# Generated by pormake.
# Topology ukx, (4)-cn, num edge types: 1
# Building blocks:
#     Node 0, Type 0, BuildingBlock: CEKHIL_clean_sbu_0, # of connection points: 4
#     Node 1, Type 0, BuildingBlock: CEKHIL_clean_sbu_0, # of connection points: 4
#     Node 2, Type 0, BuildingBlock: CEKHIL_clean_sbu_0, # of connection points: 4
#     Node 3, Type 0, BuildingBlock: CEKHIL_clean_sbu_0, # of connection points: 4
#     Node 4, Type 0, BuildingBlock: CEKHIL_clean_sbu_0, # of connection points: 4
#     Node 5, Type 0, BuildingBlock: CEKHIL_clean_sbu_0, # of connection points: 4
#     Node 6, Type 0, BuildingBlock: CEKHIL_clean_sbu_0, # of connection points: 4
#     Node 7, Type 0, BuildingBlock: CEKHIL_clean_sbu_0, # of connection points: 4
#     Node 8, Type 0, BuildingBlock: CEKHIL_clean_sbu_0, # of connection points: 4
#     Node 9, Type 0, BuildingBlock: CEKHIL_clean_sbu_0, # of connection points: 4
#     Node 10, Type 0, BuildingBlock: CEKHIL_clean_sbu_0, # of connection points: 4
#     Node 11, Type 0, BuildingBlock: CEKHIL_clean_sbu_0, # of connection points: 4
#     Node 12, Type 0, BuildingBlock: CEKHIL_clean_sbu_0, # of connection points: 4
#     Node 13, Type 0, BuildingBlock: CEKHIL_clean_sbu_0, # of connection points: 4
#     Node 14, Type 0, BuildingBlock: CEKHIL_clean_sbu_0, # of connection points: 4
#     Node 15, Type 0, BuildingBlock: CEKHIL_clean_sbu_0, # of connection points: 4
#     Node 16, Type 0, BuildingBlock: CEKHIL_clean_sbu_0, # of connection points: 4
#     Node 17, Type 0, BuildingBlock: CEKHIL_clean_sbu_0, # of connection points: 4
#     Node 18, Type 0, BuildingBlock: CEKHIL_clean_sbu_0, # of connection points: 4
#     Node 19, Type 0, BuildingBlock: CEKHIL_clean_sbu_0, # of connection points: 4
#     Node 20, Type 0, BuildingBlock: CEKHIL_clean_sbu_0, # of connection points: 4
#     Node 21, Type 0, BuildingBlock: CEKHIL_clean_sbu_0, # of connection points: 4
#     Node 22, Type 0, BuildingBlock: CEKHIL_clean_sbu_0, # of connection points: 4
#     Node 23, Type 0, BuildingBlock: CEKHIL_clean_sbu_0, # of connection points: 4
#     Node 24, Type 0, BuildingBlock: CEKHIL_clean_sbu_0, # of connection points: 4
#     Node 25, Type 0, BuildingBlock: CEKHIL_clean_sbu_0, # of connection points: 4
#     Node 26, Type 0, BuildingBlock: CEKHIL_clean_sbu_0, # of connection points: 4
#     Node 27, Type 0, BuildingBlock: CEKHIL_clean_sbu_0, # of connection points: 4
#     Node 28, Type 0, BuildingBlock: CEKHIL_clean_sbu_0, # of connection points: 4
#     Node 29, Type 0, BuildingBlock: CEKHIL_clean_sbu_0, # of connection points: 4
#     Node 30, Type 0, BuildingBlock: CEKHIL_clean_sbu_0, # of connection points: 4
#     Node 31, Type 0, BuildingBlock: CEKHIL_clean_sbu_0, # of connection points: 4
#     Node 32, Type 0, BuildingBlock: CEKHIL_clean_sbu_0, # of connection points: 4
#     Node 33, Type 0, BuildingBlock: CEKHIL_clean_sbu_0, # of connection points: 4
#     Node 34, Type 0, BuildingBlock: CEKHIL_clean_sbu_0, # of connection points: 4
#     Node 35, Type 0, BuildingBlock: CEKHIL_clean_sbu_0, # of connection points: 4
#     Node 36, Type 0, BuildingBlock: CEKHIL_clean_sbu_0, # of connection points: 4
#     Node 37, Type 0, BuildingBlock: CEKHIL_clean_sbu_0, # of connection points: 4
#     Node 38, Type 0, BuildingBlock: CEKHIL_clean_sbu_0, # of connection points: 4
#     Node 39, Type 0, BuildingBlock: CEKHIL_clean_sbu_0, # of connection points: 4
#     Node 40, Type 0, BuildingBlock: CEKHIL_clean_sbu_0, # of connection points: 4
#     Node 41, Type 0, BuildingBlock: CEKHIL_clean_sbu_0, # of connection points: 4
#     Node 42, Type 0, BuildingBlock: CEKHIL_clean_sbu_0, # of connection points: 4
#     Node 43, Type 0, BuildingBlock: CEKHIL_clean_sbu_0, # of connection points: 4
#     Node 44, Type 0, BuildingBlock: CEKHIL_clean_sbu_0, # of connection points: 4
#     Node 45, Type 0, BuildingBlock: CEKHIL_clean_sbu_0, # of connection points: 4
#     Node 46, Type 0, BuildingBlock: CEKHIL_clean_sbu_0, # of connection points: 4
#     Node 47, Type 0, BuildingBlock: CEKHIL_clean_sbu_0, # of connection points: 4
#     Node 48, Type 0, BuildingBlock: CEKHIL_clean_sbu_0, # of connection points: 4
#     Node 49, Type 0, BuildingBlock: CEKHIL_clean_sbu_0, # of connection points: 4
#     Node 50, Type 0, BuildingBlock: CEKHIL_clean_sbu_0, # of connection points: 4
#     Node 51, Type 0, BuildingBlock: CEKHIL_clean_sbu_0, # of connection points: 4
#     Node 52, Type 0, BuildingBlock: CEKHIL_clean_sbu_0, # of connection points: 4
#     Node 53, Type 0, BuildingBlock: CEKHIL_clean_sbu_0, # of connection points: 4
#     Node 54, Type 0, BuildingBlock: CEKHIL_clean_sbu_0, # of connection points: 4
#     Node 55, Type 0, BuildingBlock: CEKHIL_clean_sbu_0, # of connection points: 4
#     Node 56, Type 0, BuildingBlock: CEKHIL_clean_sbu_0, # of connection points: 4
#     Node 57, Type 0, BuildingBlock: CEKHIL_clean_sbu_0, # of connection points: 4
#     Node 58, Type 0, BuildingBlock: CEKHIL_clean_sbu_0, # of connection points: 4
#     Node 59, Type 0, BuildingBlock: CEKHIL_clean_sbu_0, # of connection points: 4
#     Node 60, Type 0, BuildingBlock: CEKHIL_clean_sbu_0, # of connection points: 4
#     Node 61, Type 0, BuildingBlock: CEKHIL_clean_sbu_0, # of connection points: 4
#     Node 62, Type 0, BuildingBlock: CEKHIL_clean_sbu_0, # of connection points: 4
#     Node 63, Type 0, BuildingBlock: CEKHIL_clean_sbu_0, # of connection points: 4
#     Node 64, Type 0, BuildingBlock: CEKHIL_clean_sbu_0, # of connection points: 4
#     Node 65, Type 0, BuildingBlock: CEKHIL_clean_sbu_0, # of connection points: 4
#     Node 66, Type 0, BuildingBlock: CEKHIL_clean_sbu_0, # of connection points: 4
#     Node 67, Type 0, BuildingBlock: CEKHIL_clean_sbu_0, # of connection points: 4
#     Node 68, Type 0, BuildingBlock: CEKHIL_clean_sbu_0, # of connection points: 4
#     Node 69, Type 0, BuildingBlock: CEKHIL_clean_sbu_0, # of connection points: 4
#     Node 70, Type 0, BuildingBlock: CEKHIL_clean_sbu_0, # of connection points: 4
#     Node 71, Type 0, BuildingBlock: CEKHIL_clean_sbu_0, # of connection points: 4
#     Node 72, Type 0, BuildingBlock: CEKHIL_clean_sbu_0, # of connection points: 4
#     Node 73, Type 0, BuildingBlock: CEKHIL_clean_sbu_0, # of connection points: 4
#     Node 74, Type 0, BuildingBlock: CEKHIL_clean_sbu_0, # of connection points: 4
#     Node 75, Type 0, BuildingBlock: CEKHIL_clean_sbu_0, # of connection points: 4
#     Node 76, Type 0, BuildingBlock: CEKHIL_clean_sbu_0, # of connection points: 4
#     Node 77, Type 0, BuildingBlock: CEKHIL_clean_sbu_0, # of connection points: 4
#     Node 78, Type 0, BuildingBlock: CEKHIL_clean_sbu_0, # of connection points: 4
#     Node 79, Type 0, BuildingBlock: CEKHIL_clean_sbu_0, # of connection points: 4
#     Node 80, Type 0, BuildingBlock: CEKHIL_clean_sbu_0, # of connection points: 4
#     Node 81, Type 0, BuildingBlock: CEKHIL_clean_sbu_0, # of connection points: 4
#     Node 82, Type 0, BuildingBlock: CEKHIL_clean_sbu_0, # of connection points: 4
#     Node 83, Type 0, BuildingBlock: CEKHIL_clean_sbu_0, # of connection points: 4
#     Node 84, Type 0, BuildingBlock: CEKHIL_clean_sbu_0, # of connection points: 4
#     Node 85, Type 0, BuildingBlock: CEKHIL_clean_sbu_0, # of connection points: 4
#     Node 86, Type 0, BuildingBlock: CEKHIL_clean_sbu_0, # of connection points: 4
#     Node 87, Type 0, BuildingBlock: CEKHIL_clean_sbu_0, # of connection points: 4
#     Node 88, Type 0, BuildingBlock: CEKHIL_clean_sbu_0, # of connection points: 4
#     Node 89, Type 0, BuildingBlock: CEKHIL_clean_sbu_0, # of connection points: 4
#     Node 90, Type 0, BuildingBlock: CEKHIL_clean_sbu_0, # of connection points: 4
#     Node 91, Type 0, BuildingBlock: CEKHIL_clean_sbu_0, # of connection points: 4
#     Node 92, Type 0, BuildingBlock: CEKHIL_clean_sbu_0, # of connection points: 4
#     Node 93, Type 0, BuildingBlock: CEKHIL_clean_sbu_0, # of connection points: 4
#     Node 94, Type 0, BuildingBlock: CEKHIL_clean_sbu_0, # of connection points: 4
#     Node 95, Type 0, BuildingBlock: CEKHIL_clean_sbu_0, # of connection points: 4
#     Edge 96, Type (0, 0), BuildingBlock: CIFDUS_clean_linker_0, # of connection points: 2
#     Edge 97, Type (0, 0), BuildingBlock: CIFDUS_clean_linker_0, # of connection points: 2
#     Edge 98, Type (0, 0), BuildingBlock: CIFDUS_clean_linker_0, # of connection points: 2
#     Edge 99, Type (0, 0), BuildingBlock: CIFDUS_clean_linker_0, # of connection points: 2
#     Edge 100, Type (0, 0), BuildingBlock: CIFDUS_clean_linker_0, # of connection points: 2
#     Edge 101, Type (0, 0), BuildingBlock: CIFDUS_clean_linker_0, # of connection points: 2
#     Edge 102, Type (0, 0), BuildingBlock: CIFDUS_clean_linker_0, # of connection points: 2
#     Edge 103, Type (0, 0), BuildingBlock: CIFDUS_clean_linker_0, # of connection points: 2
#     Edge 104, Type (0, 0), BuildingBlock: CIFDUS_clean_linker_0, # of connection points: 2
#     Edge 105, Type (0, 0), BuildingBlock: CIFDUS_clean_linker_0, # of connection points: 2
#     Edge 106, Type (0, 0), BuildingBlock: CIFDUS_clean_linker_0, # of connection points: 2
#     Edge 107, Type (0, 0), BuildingBlock: CIFDUS_clean_linker_0, # of connection points: 2
#     Edge 108, Type (0, 0), BuildingBlock: CIFDUS_clean_linker_0, # of connection points: 2
#     Edge 109, Type (0, 0), BuildingBlock: CIFDUS_clean_linker_0, # of connection points: 2
#     Edge 110, Type (0, 0), BuildingBlock: CIFDUS_clean_linker_0, # of connection points: 2
#     Edge 111, Type (0, 0), BuildingBlock: CIFDUS_clean_linker_0, # of connection points: 2
#     Edge 112, Type (0, 0), BuildingBlock: CIFDUS_clean_linker_0, # of connection points: 2
#     Edge 113, Type (0, 0), BuildingBlock: CIFDUS_clean_linker_0, # of connection points: 2
#     Edge 114, Type (0, 0), BuildingBlock: CIFDUS_clean_linker_0, # of connection points: 2
#     Edge 115, Type (0, 0), BuildingBlock: CIFDUS_clean_linker_0, # of connection points: 2
#     Edge 116, Type (0, 0), BuildingBlock: CIFDUS_clean_linker_0, # of connection points: 2
#     Edge 117, Type (0, 0), BuildingBlock: CIFDUS_clean_linker_0, # of connection points: 2
#     Edge 118, Type (0, 0), BuildingBlock: CIFDUS_clean_linker_0, # of connection points: 2
#     Edge 119, Type (0, 0), BuildingBlock: CIFDUS_clean_linker_0, # of connection points: 2
#     Edge 120, Type (0, 0), BuildingBlock: CIFDUS_clean_linker_0, # of connection points: 2
#     Edge 121, Type (0, 0), BuildingBlock: CIFDUS_clean_linker_0, # of connection points: 2
#     Edge 122, Type (0, 0), BuildingBlock: CIFDUS_clean_linker_0, # of connection points: 2
#     Edge 123, Type (0, 0), BuildingBlock: CIFDUS_clean_linker_0, # of connection points: 2
#     Edge 124, Type (0, 0), BuildingBlock: CIFDUS_clean_linker_0, # of connection points: 2
#     Edge 125, Type (0, 0), BuildingBlock: CIFDUS_clean_linker_0, # of connection points: 2
#     Edge 126, Type (0, 0), BuildingBlock: CIFDUS_clean_linker_0, # of connection points: 2
#     Edge 127, Type (0, 0), BuildingBlock: CIFDUS_clean_linker_0, # of connection points: 2
#     Edge 128, Type (0, 0), BuildingBlock: CIFDUS_clean_linker_0, # of connection points: 2
#     Edge 129, Type (0, 0), BuildingBlock: CIFDUS_clean_linker_0, # of connection points: 2
#     Edge 130, Type (0, 0), BuildingBlock: CIFDUS_clean_linker_0, # of connection points: 2
#     Edge 131, Type (0, 0), BuildingBlock: CIFDUS_clean_linker_0, # of connection points: 2
#     Edge 132, Type (0, 0), BuildingBlock: CIFDUS_clean_linker_0, # of connection points: 2
#     Edge 133, Type (0, 0), BuildingBlock: CIFDUS_clean_linker_0, # of connection points: 2
#     Edge 134, Type (0, 0), BuildingBlock: CIFDUS_clean_linker_0, # of connection points: 2
#     Edge 135, Type (0, 0), BuildingBlock: CIFDUS_clean_linker_0, # of connection points: 2
#     Edge 136, Type (0, 0), BuildingBlock: CIFDUS_clean_linker_0, # of connection points: 2
#     Edge 137, Type (0, 0), BuildingBlock: CIFDUS_clean_linker_0, # of connection points: 2
#     Edge 138, Type (0, 0), BuildingBlock: CIFDUS_clean_linker_0, # of connection points: 2
#     Edge 139, Type (0, 0), BuildingBlock: CIFDUS_clean_linker_0, # of connection points: 2
#     Edge 140, Type (0, 0), BuildingBlock: CIFDUS_clean_linker_0, # of connection points: 2
#     Edge 141, Type (0, 0), BuildingBlock: CIFDUS_clean_linker_0, # of connection points: 2
#     Edge 142, Type (0, 0), BuildingBlock: CIFDUS_clean_linker_0, # of connection points: 2
#     Edge 143, Type (0, 0), BuildingBlock: CIFDUS_clean_linker_0, # of connection points: 2
#     Edge 144, Type (0, 0), BuildingBlock: CIFDUS_clean_linker_0, # of connection points: 2
#     Edge 145, Type (0, 0), BuildingBlock: CIFDUS_clean_linker_0, # of connection points: 2
#     Edge 146, Type (0, 0), BuildingBlock: CIFDUS_clean_linker_0, # of connection points: 2
#     Edge 147, Type (0, 0), BuildingBlock: CIFDUS_clean_linker_0, # of connection points: 2
#     Edge 148, Type (0, 0), BuildingBlock: CIFDUS_clean_linker_0, # of connection points: 2
#     Edge 149, Type (0, 0), BuildingBlock: CIFDUS_clean_linker_0, # of connection points: 2
#     Edge 150, Type (0, 0), BuildingBlock: CIFDUS_clean_linker_0, # of connection points: 2
#     Edge 151, Type (0, 0), BuildingBlock: CIFDUS_clean_linker_0, # of connection points: 2
#     Edge 152, Type (0, 0), BuildingBlock: CIFDUS_clean_linker_0, # of connection points: 2
#     Edge 153, Type (0, 0), BuildingBlock: CIFDUS_clean_linker_0, # of connection points: 2
#     Edge 154, Type (0, 0), BuildingBlock: CIFDUS_clean_linker_0, # of connection points: 2
#     Edge 155, Type (0, 0), BuildingBlock: CIFDUS_clean_linker_0, # of connection points: 2
#     Edge 156, Type (0, 0), BuildingBlock: CIFDUS_clean_linker_0, # of connection points: 2
#     Edge 157, Type (0, 0), BuildingBlock: CIFDUS_clean_linker_0, # of connection points: 2
#     Edge 158, Type (0, 0), BuildingBlock: CIFDUS_clean_linker_0, # of connection points: 2
#     Edge 159, Type (0, 0), BuildingBlock: CIFDUS_clean_linker_0, # of connection points: 2
#     Edge 160, Type (0, 0), BuildingBlock: CIFDUS_clean_linker_0, # of connection points: 2
#     Edge 161, Type (0, 0), BuildingBlock: CIFDUS_clean_linker_0, # of connection points: 2
#     Edge 162, Type (0, 0), BuildingBlock: CIFDUS_clean_linker_0, # of connection points: 2
#     Edge 163, Type (0, 0), BuildingBlock: CIFDUS_clean_linker_0, # of connection points: 2
#     Edge 164, Type (0, 0), BuildingBlock: CIFDUS_clean_linker_0, # of connection points: 2
#     Edge 165, Type (0, 0), BuildingBlock: CIFDUS_clean_linker_0, # of connection points: 2
#     Edge 166, Type (0, 0), BuildingBlock: CIFDUS_clean_linker_0, # of connection points: 2
#     Edge 167, Type (0, 0), BuildingBlock: CIFDUS_clean_linker_0, # of connection points: 2
#     Edge 168, Type (0, 0), BuildingBlock: CIFDUS_clean_linker_0, # of connection points: 2
#     Edge 169, Type (0, 0), BuildingBlock: CIFDUS_clean_linker_0, # of connection points: 2
#     Edge 170, Type (0, 0), BuildingBlock: CIFDUS_clean_linker_0, # of connection points: 2
#     Edge 171, Type (0, 0), BuildingBlock: CIFDUS_clean_linker_0, # of connection points: 2
#     Edge 172, Type (0, 0), BuildingBlock: CIFDUS_clean_linker_0, # of connection points: 2
#     Edge 173, Type (0, 0), BuildingBlock: CIFDUS_clean_linker_0, # of connection points: 2
#     Edge 174, Type (0, 0), BuildingBlock: CIFDUS_clean_linker_0, # of connection points: 2
#     Edge 175, Type (0, 0), BuildingBlock: CIFDUS_clean_linker_0, # of connection points: 2
#     Edge 176, Type (0, 0), BuildingBlock: CIFDUS_clean_linker_0, # of connection points: 2
#     Edge 177, Type (0, 0), BuildingBlock: CIFDUS_clean_linker_0, # of connection points: 2
#     Edge 178, Type (0, 0), BuildingBlock: CIFDUS_clean_linker_0, # of connection points: 2
#     Edge 179, Type (0, 0), BuildingBlock: CIFDUS_clean_linker_0, # of connection points: 2
#     Edge 180, Type (0, 0), BuildingBlock: CIFDUS_clean_linker_0, # of connection points: 2
#     Edge 181, Type (0, 0), BuildingBlock: CIFDUS_clean_linker_0, # of connection points: 2
#     Edge 182, Type (0, 0), BuildingBlock: CIFDUS_clean_linker_0, # of connection points: 2
#     Edge 183, Type (0, 0), BuildingBlock: CIFDUS_clean_linker_0, # of connection points: 2
#     Edge 184, Type (0, 0), BuildingBlock: CIFDUS_clean_linker_0, # of connection points: 2
#     Edge 185, Type (0, 0), BuildingBlock: CIFDUS_clean_linker_0, # of connection points: 2
#     Edge 186, Type (0, 0), BuildingBlock: CIFDUS_clean_linker_0, # of connection points: 2
#     Edge 187, Type (0, 0), BuildingBlock: CIFDUS_clean_linker_0, # of connection points: 2
#     Edge 188, Type (0, 0), BuildingBlock: CIFDUS_clean_linker_0, # of connection points: 2
#     Edge 189, Type (0, 0), BuildingBlock: CIFDUS_clean_linker_0, # of connection points: 2
#     Edge 190, Type (0, 0), BuildingBlock: CIFDUS_clean_linker_0, # of connection points: 2
#     Edge 191, Type (0, 0), BuildingBlock: CIFDUS_clean_linker_0, # of connection points: 2
#     Edge 192, Type (0, 0), BuildingBlock: CIFDUS_clean_linker_0, # of connection points: 2
#     Edge 193, Type (0, 0), BuildingBlock: CIFDUS_clean_linker_0, # of connection points: 2
#     Edge 194, Type (0, 0), BuildingBlock: CIFDUS_clean_linker_0, # of connection points: 2
#     Edge 195, Type (0, 0), BuildingBlock: CIFDUS_clean_linker_0, # of connection points: 2
#     Edge 196, Type (0, 0), BuildingBlock: CIFDUS_clean_linker_0, # of connection points: 2
#     Edge 197, Type (0, 0), BuildingBlock: CIFDUS_clean_linker_0, # of connection points: 2
#     Edge 198, Type (0, 0), BuildingBlock: CIFDUS_clean_linker_0, # of connection points: 2
#     Edge 199, Type (0, 0), BuildingBlock: CIFDUS_clean_linker_0, # of connection points: 2
#     Edge 200, Type (0, 0), BuildingBlock: CIFDUS_clean_linker_0, # of connection points: 2
#     Edge 201, Type (0, 0), BuildingBlock: CIFDUS_clean_linker_0, # of connection points: 2
#     Edge 202, Type (0, 0), BuildingBlock: CIFDUS_clean_linker_0, # of connection points: 2
#     Edge 203, Type (0, 0), BuildingBlock: CIFDUS_clean_linker_0, # of connection points: 2
#     Edge 204, Type (0, 0), BuildingBlock: CIFDUS_clean_linker_0, # of connection points: 2
#     Edge 205, Type (0, 0), BuildingBlock: CIFDUS_clean_linker_0, # of connection points: 2
#     Edge 206, Type (0, 0), BuildingBlock: CIFDUS_clean_linker_0, # of connection points: 2
#     Edge 207, Type (0, 0), BuildingBlock: CIFDUS_clean_linker_0, # of connection points: 2
#     Edge 208, Type (0, 0), BuildingBlock: CIFDUS_clean_linker_0, # of connection points: 2
#     Edge 209, Type (0, 0), BuildingBlock: CIFDUS_clean_linker_0, # of connection points: 2
#     Edge 210, Type (0, 0), BuildingBlock: CIFDUS_clean_linker_0, # of connection points: 2
#     Edge 211, Type (0, 0), BuildingBlock: CIFDUS_clean_linker_0, # of connection points: 2
#     Edge 212, Type (0, 0), BuildingBlock: CIFDUS_clean_linker_0, # of connection points: 2
#     Edge 213, Type (0, 0), BuildingBlock: CIFDUS_clean_linker_0, # of connection points: 2
#     Edge 214, Type (0, 0), BuildingBlock: CIFDUS_clean_linker_0, # of connection points: 2
#     Edge 215, Type (0, 0), BuildingBlock: CIFDUS_clean_linker_0, # of connection points: 2
#     Edge 216, Type (0, 0), BuildingBlock: CIFDUS_clean_linker_0, # of connection points: 2
#     Edge 217, Type (0, 0), BuildingBlock: CIFDUS_clean_linker_0, # of connection points: 2
#     Edge 218, Type (0, 0), BuildingBlock: CIFDUS_clean_linker_0, # of connection points: 2
#     Edge 219, Type (0, 0), BuildingBlock: CIFDUS_clean_linker_0, # of connection points: 2
#     Edge 220, Type (0, 0), BuildingBlock: CIFDUS_clean_linker_0, # of connection points: 2
#     Edge 221, Type (0, 0), BuildingBlock: CIFDUS_clean_linker_0, # of connection points: 2
#     Edge 222, Type (0, 0), BuildingBlock: CIFDUS_clean_linker_0, # of connection points: 2
#     Edge 223, Type (0, 0), BuildingBlock: CIFDUS_clean_linker_0, # of connection points: 2
#     Edge 224, Type (0, 0), BuildingBlock: CIFDUS_clean_linker_0, # of connection points: 2
#     Edge 225, Type (0, 0), BuildingBlock: CIFDUS_clean_linker_0, # of connection points: 2
#     Edge 226, Type (0, 0), BuildingBlock: CIFDUS_clean_linker_0, # of connection points: 2
#     Edge 227, Type (0, 0), BuildingBlock: CIFDUS_clean_linker_0, # of connection points: 2
#     Edge 228, Type (0, 0), BuildingBlock: CIFDUS_clean_linker_0, # of connection points: 2
#     Edge 229, Type (0, 0), BuildingBlock: CIFDUS_clean_linker_0, # of connection points: 2
#     Edge 230, Type (0, 0), BuildingBlock: CIFDUS_clean_linker_0, # of connection points: 2
#     Edge 231, Type (0, 0), BuildingBlock: CIFDUS_clean_linker_0, # of connection points: 2
#     Edge 232, Type (0, 0), BuildingBlock: CIFDUS_clean_linker_0, # of connection points: 2
#     Edge 233, Type (0, 0), BuildingBlock: CIFDUS_clean_linker_0, # of connection points: 2
#     Edge 234, Type (0, 0), BuildingBlock: CIFDUS_clean_linker_0, # of connection points: 2
#     Edge 235, Type (0, 0), BuildingBlock: CIFDUS_clean_linker_0, # of connection points: 2
#     Edge 236, Type (0, 0), BuildingBlock: CIFDUS_clean_linker_0, # of connection points: 2
#     Edge 237, Type (0, 0), BuildingBlock: CIFDUS_clean_linker_0, # of connection points: 2
#     Edge 238, Type (0, 0), BuildingBlock: CIFDUS_clean_linker_0, # of connection points: 2
#     Edge 239, Type (0, 0), BuildingBlock: CIFDUS_clean_linker_0, # of connection points: 2
#     Edge 240, Type (0, 0), BuildingBlock: CIFDUS_clean_linker_0, # of connection points: 2
#     Edge 241, Type (0, 0), BuildingBlock: CIFDUS_clean_linker_0, # of connection points: 2
#     Edge 242, Type (0, 0), BuildingBlock: CIFDUS_clean_linker_0, # of connection points: 2
#     Edge 243, Type (0, 0), BuildingBlock: CIFDUS_clean_linker_0, # of connection points: 2
#     Edge 244, Type (0, 0), BuildingBlock: CIFDUS_clean_linker_0, # of connection points: 2
#     Edge 245, Type (0, 0), BuildingBlock: CIFDUS_clean_linker_0, # of connection points: 2
#     Edge 246, Type (0, 0), BuildingBlock: CIFDUS_clean_linker_0, # of connection points: 2
#     Edge 247, Type (0, 0), BuildingBlock: CIFDUS_clean_linker_0, # of connection points: 2
#     Edge 248, Type (0, 0), BuildingBlock: CIFDUS_clean_linker_0, # of connection points: 2
#     Edge 249, Type (0, 0), BuildingBlock: CIFDUS_clean_linker_0, # of connection points: 2
#     Edge 250, Type (0, 0), BuildingBlock: CIFDUS_clean_linker_0, # of connection points: 2
#     Edge 251, Type (0, 0), BuildingBlock: CIFDUS_clean_linker_0, # of connection points: 2
#     Edge 252, Type (0, 0), BuildingBlock: CIFDUS_clean_linker_0, # of connection points: 2
#     Edge 253, Type (0, 0), BuildingBlock: CIFDUS_clean_linker_0, # of connection points: 2
#     Edge 254, Type (0, 0), BuildingBlock: CIFDUS_clean_linker_0, # of connection points: 2
#     Edge 255, Type (0, 0), BuildingBlock: CIFDUS_clean_linker_0, # of connection points: 2
#     Edge 256, Type (0, 0), BuildingBlock: CIFDUS_clean_linker_0, # of connection points: 2
#     Edge 257, Type (0, 0), BuildingBlock: CIFDUS_clean_linker_0, # of connection points: 2
#     Edge 258, Type (0, 0), BuildingBlock: CIFDUS_clean_linker_0, # of connection points: 2
#     Edge 259, Type (0, 0), BuildingBlock: CIFDUS_clean_linker_0, # of connection points: 2
#     Edge 260, Type (0, 0), BuildingBlock: CIFDUS_clean_linker_0, # of connection points: 2
#     Edge 261, Type (0, 0), BuildingBlock: CIFDUS_clean_linker_0, # of connection points: 2
#     Edge 262, Type (0, 0), BuildingBlock: CIFDUS_clean_linker_0, # of connection points: 2
#     Edge 263, Type (0, 0), BuildingBlock: CIFDUS_clean_linker_0, # of connection points: 2
#     Edge 264, Type (0, 0), BuildingBlock: CIFDUS_clean_linker_0, # of connection points: 2
#     Edge 265, Type (0, 0), BuildingBlock: CIFDUS_clean_linker_0, # of connection points: 2
#     Edge 266, Type (0, 0), BuildingBlock: CIFDUS_clean_linker_0, # of connection points: 2
#     Edge 267, Type (0, 0), BuildingBlock: CIFDUS_clean_linker_0, # of connection points: 2
#     Edge 268, Type (0, 0), BuildingBlock: CIFDUS_clean_linker_0, # of connection points: 2
#     Edge 269, Type (0, 0), BuildingBlock: CIFDUS_clean_linker_0, # of connection points: 2
#     Edge 270, Type (0, 0), BuildingBlock: CIFDUS_clean_linker_0, # of connection points: 2
#     Edge 271, Type (0, 0), BuildingBlock: CIFDUS_clean_linker_0, # of connection points: 2
#     Edge 272, Type (0, 0), BuildingBlock: CIFDUS_clean_linker_0, # of connection points: 2
#     Edge 273, Type (0, 0), BuildingBlock: CIFDUS_clean_linker_0, # of connection points: 2
#     Edge 274, Type (0, 0), BuildingBlock: CIFDUS_clean_linker_0, # of connection points: 2
#     Edge 275, Type (0, 0), BuildingBlock: CIFDUS_clean_linker_0, # of connection points: 2
#     Edge 276, Type (0, 0), BuildingBlock: CIFDUS_clean_linker_0, # of connection points: 2
#     Edge 277, Type (0, 0), BuildingBlock: CIFDUS_clean_linker_0, # of connection points: 2
#     Edge 278, Type (0, 0), BuildingBlock: CIFDUS_clean_linker_0, # of connection points: 2
#     Edge 279, Type (0, 0), BuildingBlock: CIFDUS_clean_linker_0, # of connection points: 2
#     Edge 280, Type (0, 0), BuildingBlock: CIFDUS_clean_linker_0, # of connection points: 2
#     Edge 281, Type (0, 0), BuildingBlock: CIFDUS_clean_linker_0, # of connection points: 2
#     Edge 282, Type (0, 0), BuildingBlock: CIFDUS_clean_linker_0, # of connection points: 2
#     Edge 283, Type (0, 0), BuildingBlock: CIFDUS_clean_linker_0, # of connection points: 2
#     Edge 284, Type (0, 0), BuildingBlock: CIFDUS_clean_linker_0, # of connection points: 2
#     Edge 285, Type (0, 0), BuildingBlock: CIFDUS_clean_linker_0, # of connection points: 2
#     Edge 286, Type (0, 0), BuildingBlock: CIFDUS_clean_linker_0, # of connection points: 2
#     Edge 287, Type (0, 0), BuildingBlock: CIFDUS_clean_linker_0, # of connection points: 2
# Relax obj value: 0.272
# Max RMSD: 0.165
# Mean RMSD: 0.154
data_MOF--net-ukx--node1-CEKHIL_clean_sbu_0--edge1-CIFDUS_clean_linker_0
_symmetry_space_group_name_H-M    P1
_symmetry_Int_Tables_number       1
_symmetry_cell_setting            triclinic
loop_
_symmetry_equiv_pos_as_xyz
'x, y, z'
_cell_length_a     68.569119
_cell_length_b     68.291369
_cell_length_c     68.246361
_cell_angle_alpha  90.006535
_cell_angle_beta   89.992616
_cell_angle_gamma 90.032814
loop_
_atom_site_label
_atom_site_type_symbol
_atom_site_fract_x
_atom_site_fract_y
_atom_site_fract_z
_atom_type_partial_charge
Co0 Co 0.05129 0.14943 0.31579 0.0
O1 O 0.07676 0.14191 0.30659 0.0
O2 O 0.06514 0.1358 0.3363 0.0
C3 C 0.03368 0.14015 0.28951 0.0
O4 O 0.02572 0.15457 0.33022 0.0
Co5 Co 0.02903 0.18263 0.29395 0.0
O6 O 0.00781 0.17603 0.31264 0.0
C7 C 0.06361 0.19206 0.31719 0.0
C8 C 0.07965 0.13488 0.32403 0.0
C9 C 0.01007 0.16453 0.32716 0.0
O10 O 0.0626 0.17502 0.32511 0.0
O11 O 0.05283 0.19727 0.30281 0.0
O12 O 0.03889 0.12722 0.3025 0.0
O13 O 0.04141 0.15725 0.2916 0.0
Co14 Co 0.11576 0.80216 0.57144 0.0
O15 O 0.13276 0.78943 0.55302 0.0
O16 O 0.10062 0.79101 0.55025 0.0
C17 C 0.13291 0.82985 0.57522 0.0
O18 O 0.09376 0.81476 0.58736 0.0
Co19 Co 0.13089 0.81026 0.61357 0.0
O20 O 0.10665 0.82587 0.61562 0.0
C21 C 0.11808 0.77058 0.60339 0.0
C22 C 0.11718 0.78477 0.54329 0.0
C23 C 0.09248 0.82434 0.60362 0.0
O24 O 0.11301 0.77691 0.58641 0.0
O25 O 0.12643 0.78131 0.61628 0.0
O26 O 0.12148 0.82768 0.56017 0.0
O27 O 0.13551 0.81439 0.58584 0.0
Co28 Co 0.45591 0.84933 0.83242 0.0
O29 O 0.43024 0.85581 0.82348 0.0
O30 O 0.4407 0.85961 0.85404 0.0
C31 C 0.47192 0.86307 0.80726 0.0
O32 O 0.48181 0.84405 0.84645 0.0
Co33 Co 0.48057 0.82097 0.80676 0.0
O34 O 0.50183 0.82942 0.82465 0.0
C35 C 0.44684 0.80614 0.82875 0.0
C36 C 0.42651 0.86078 0.8414 0.0
C37 C 0.49867 0.83749 0.8412 0.0
O38 O 0.44643 0.82227 0.8384 0.0
O39 O 0.45833 0.80321 0.81424 0.0
O40 O 0.46648 0.87383 0.82199 0.0
O41 O 0.46595 0.84516 0.80754 0.0
Co42 Co 0.38266 0.19931 0.07258 0.0
O43 O 0.36595 0.21467 0.05592 0.0
O44 O 0.39685 0.20738 0.04964 0.0
C45 C 0.36165 0.17513 0.07934 0.0
O46 O 0.40422 0.18336 0.08532 0.0
Co47 Co 0.37346 0.19272 0.11653 0.0
O48 O 0.39487 0.17322 0.11517 0.0
C49 C 0.38936 0.23063 0.10391 0.0
C50 C 0.38096 0.21634 0.0444 0.0
C51 C 0.40683 0.17307 0.10088 0.0
O52 O 0.39133 0.22375 0.0865 0.0
O53 O 0.38156 0.22098 0.11795 0.0
O54 O 0.37126 0.17512 0.0629 0.0
O55 O 0.36336 0.19071 0.08997 0.0
Co56 Co 0.04545 0.8541 0.17272 0.0
O57 O 0.07155 0.86123 0.17993 0.0
O58 O 0.05702 0.86978 0.15218 0.0
C59 C 0.03093 0.86108 0.20142 0.0
O60 O 0.01847 0.84947 0.16081 0.0
Co61 Co 0.02605 0.81895 0.19441 0.0
O62 O 0.00231 0.82903 0.18113 0.0
C63 C 0.05701 0.81181 0.16562 0.0
C64 C 0.07257 0.87004 0.16313 0.0
C65 C 0.00286 0.8406 0.16647 0.0
O66 O 0.05573 0.82968 0.15997 0.0
O67 O 0.04783 0.80502 0.18048 0.0
O68 O 0.03457 0.87498 0.18892 0.0
O69 O 0.03839 0.84425 0.1972 0.0
Co70 Co 0.3793 0.79834 0.42879 0.0
O71 O 0.35968 0.78673 0.44522 0.0
O72 O 0.39148 0.78624 0.45114 0.0
C73 C 0.3646 0.82714 0.42356 0.0
O74 O 0.40368 0.80932 0.41572 0.0
Co75 Co 0.37004 0.80797 0.38538 0.0
O76 O 0.39539 0.82187 0.38642 0.0
C77 C 0.37897 0.76738 0.39618 0.0
C78 C 0.37396 0.78111 0.45639 0.0
C79 C 0.40777 0.81898 0.40005 0.0
O80 O 0.38194 0.77308 0.41387 0.0
O81 O 0.3733 0.77886 0.3825 0.0
O82 O 0.37418 0.82411 0.43971 0.0
O83 O 0.36214 0.812 0.41242 0.0
Co84 Co 0.46104 0.13507 0.66208 0.0
O85 O 0.43642 0.12368 0.66937 0.0
O86 O 0.44826 0.12437 0.63915 0.0
C87 C 0.47894 0.12213 0.68663 0.0
O88 O 0.48605 0.14536 0.64926 0.0
Co89 Co 0.48109 0.16459 0.69051 0.0
O90 O 0.50353 0.16113 0.67241 0.0
C91 C 0.4459 0.17625 0.66878 0.0
C92 C 0.43408 0.11968 0.65094 0.0
C93 C 0.50169 0.15396 0.65526 0.0
O94 O 0.44755 0.16094 0.65793 0.0
O95 O 0.45671 0.17941 0.68376 0.0
O96 O 0.47529 0.11177 0.67105 0.0
O97 O 0.47005 0.13873 0.68753 0.0
Co98 Co 0.10611 0.19709 0.9238 0.0
O99 O 0.12168 0.20743 0.94463 0.0
O100 O 0.0894 0.2089 0.9433 0.0
C101 C 0.12086 0.16806 0.92092 0.0
O102 O 0.08536 0.18715 0.90482 0.0
Co103 Co 0.12545 0.18992 0.88351 0.0
O104 O 0.10058 0.17643 0.87761 0.0
C105 C 0.11484 0.22991 0.89418 0.0
C106 C 0.10547 0.21336 0.95244 0.0
C107 C 0.08531 0.17843 0.88806 0.0
O108 O 0.10748 0.22303 0.91002 0.0
O109 O 0.12353 0.21928 0.88147 0.0
O110 O 0.1079 0.17092 0.93452 0.0
O111 O 0.12638 0.1835 0.91134 0.0
Co112 Co 0.32553 0.04357 0.13677 0.0
O113 O 0.30718 0.03087 0.11976 0.0
O114 O 0.30356 0.03446 0.15188 0.0
C115 C 0.33118 0.06967 0.11768 0.0
O116 O 0.3405 0.05655 0.15895 0.0
Co117 Co 0.36851 0.05018 0.12455 0.0
O118 O 0.36981 0.06676 0.1484 0.0
C119 C 0.35588 0.01087 0.13666 0.0
C120 C 0.29678 0.02781 0.13538 0.0
C121 C 0.35658 0.06592 0.16148 0.0
O122 O 0.33912 0.0179 0.14129 0.0
O123 O 0.36943 0.02107 0.12875 0.0
O124 O 0.31588 0.06919 0.12894 0.0
O125 O 0.34142 0.05381 0.11697 0.0
Co126 Co 0.20483 0.08244 0.38632 0.0
O127 O 0.17966 0.07428 0.3771 0.0
O128 O 0.19068 0.1048 0.37607 0.0
C129 C 0.22183 0.05788 0.37232 0.0
O130 O 0.23027 0.09597 0.3945 0.0
Co131 Co 0.22764 0.05493 0.41457 0.0
O132 O 0.24941 0.07331 0.40892 0.0
C133 C 0.19341 0.07667 0.42892 0.0
C134 C 0.17655 0.09248 0.37275 0.0
C135 C 0.24667 0.09038 0.40187 0.0
O136 O 0.19334 0.0869 0.4131 0.0
O137 O 0.20478 0.06204 0.43161 0.0
O138 O 0.21736 0.07332 0.36211 0.0
O139 O 0.21447 0.0572 0.38968 0.0
Co140 Co 0.173 0.95371 0.64575 0.0
O141 O 0.1906 0.96784 0.62909 0.0
O142 O 0.19296 0.96605 0.66146 0.0
C143 C 0.17159 0.92621 0.62786 0.0
O144 O 0.15838 0.93979 0.66763 0.0
Co145 Co 0.1319 0.94174 0.63122 0.0
O146 O 0.13183 0.92515 0.65507 0.0
C147 C 0.13874 0.98243 0.64337 0.0
C148 C 0.19982 0.97269 0.64498 0.0
C149 C 0.14372 0.92812 0.66912 0.0
O150 O 0.15615 0.9777 0.6485 0.0
O151 O 0.12683 0.97044 0.6353 0.0
O152 O 0.18612 0.92918 0.63973 0.0
O153 O 0.15967 0.94071 0.62566 0.0
Co154 Co 0.29584 0.91509 0.88701 0.0
O155 O 0.32098 0.92414 0.8789 0.0
O156 O 0.31025 0.89374 0.87515 0.0
C157 C 0.27851 0.94056 0.87546 0.0
O158 O 0.27034 0.90108 0.89389 0.0
Co159 Co 0.27445 0.93999 0.91855 0.0
O160 O 0.25233 0.92255 0.91136 0.0
C161 C 0.30774 0.91574 0.92999 0.0
C162 C 0.32451 0.90628 0.87356 0.0
C163 C 0.25434 0.90631 0.90235 0.0
O164 O 0.30716 0.90773 0.91302 0.0
O165 O 0.29707 0.93037 0.93477 0.0
O166 O 0.28343 0.92636 0.86376 0.0
O167 O 0.28614 0.93985 0.89274 0.0
Co168 Co 0.32701 0.95554 0.35863 0.0
O169 O 0.30782 0.9664 0.37577 0.0
O170 O 0.30668 0.96807 0.34332 0.0
C171 C 0.3298 0.92652 0.37365 0.0
O172 O 0.34409 0.94482 0.33657 0.0
Co173 Co 0.36798 0.94677 0.37564 0.0
O174 O 0.37143 0.93284 0.35045 0.0
C175 C 0.35828 0.98715 0.36526 0.0
C176 C 0.29885 0.97239 0.36017 0.0
C177 C 0.36029 0.93526 0.33569 0.0
O178 O 0.34176 0.98099 0.3589 0.0
O179 O 0.37089 0.97598 0.37338 0.0
O180 O 0.31564 0.92965 0.36139 0.0
O181 O 0.3402 0.94167 0.37824 0.0
Co182 Co 0.29813 0.07589 0.60988 0.0
O183 O 0.32484 0.06973 0.6159 0.0
O184 O 0.30977 0.09708 0.62466 0.0
C185 C 0.2851 0.04673 0.61798 0.0
O186 O 0.27057 0.08699 0.60634 0.0
Co187 Co 0.2767 0.05301 0.57666 0.0
O188 O 0.25333 0.06489 0.58893 0.0
C189 C 0.30511 0.08372 0.56656 0.0
C190 C 0.3257 0.08672 0.62435 0.0
C191 C 0.25438 0.08027 0.59944 0.0
O192 O 0.30693 0.08834 0.5847 0.0
O193 O 0.29465 0.06951 0.56033 0.0
O194 O 0.28872 0.05964 0.63152 0.0
O195 O 0.29146 0.05105 0.60072 0.0
Co196 Co 0.16788 0.03904 0.86537 0.0
O197 O 0.18533 0.027 0.88361 0.0
O198 O 0.18907 0.02652 0.85133 0.0
C199 C 0.16466 0.06774 0.88094 0.0
O200 O 0.153 0.05102 0.84239 0.0
Co201 Co 0.1259 0.04872 0.8793 0.0
O202 O 0.12518 0.06376 0.85454 0.0
C203 C 0.13502 0.00841 0.86801 0.0
C204 C 0.19547 0.02145 0.86857 0.0
C205 C 0.13734 0.06133 0.84062 0.0
O206 O 0.15233 0.01406 0.8635 0.0
O207 O 0.12217 0.0198 0.8754 0.0
O208 O 0.17978 0.06446 0.86995 0.0
O209 O 0.15352 0.05277 0.8842 0.0
Co210 Co 0.19113 0.9328 0.09839 0.0
O211 O 0.16525 0.94035 0.10618 0.0
O212 O 0.17891 0.91158 0.11245 0.0
C213 C 0.20662 0.96042 0.10737 0.0
O214 O 0.2176 0.92007 0.09316 0.0
Co215 Co 0.21235 0.95587 0.06529 0.0
O216 O 0.23535 0.94083 0.07463 0.0
C217 C 0.17894 0.93062 0.05591 0.0
C218 C 0.16373 0.92294 0.11368 0.0
C219 C 0.23372 0.92547 0.08511 0.0
O220 O 0.18025 0.92268 0.07294 0.0
O221 O 0.18915 0.94542 0.05069 0.0
O222 O 0.20268 0.94709 0.12041 0.0
O223 O 0.19915 0.95753 0.09028 0.0
Co224 Co 0.13448 0.32457 0.04566 0.0
O225 O 0.11603 0.3077 0.03275 0.0
O226 O 0.14755 0.30143 0.03643 0.0
C227 C 0.11649 0.33145 0.07215 0.0
O228 O 0.15778 0.33766 0.05877 0.0
Co229 Co 0.12577 0.36845 0.05255 0.0
O230 O 0.14901 0.36732 0.06986 0.0
C231 C 0.13706 0.35526 0.01312 0.0
C232 C 0.13065 0.29598 0.02972 0.0
C233 C 0.16119 0.35328 0.06877 0.0
O234 O 0.14014 0.33805 0.02006 0.0
O235 O 0.13022 0.36935 0.02342 0.0
O236 O 0.1262 0.31514 0.07113 0.0
O237 O 0.11618 0.34194 0.05637 0.0
Co238 Co 0.64575 0.16845 0.94732 0.0
O239 O 0.62777 0.18403 0.96232 0.0
O240 O 0.65981 0.18841 0.96145 0.0
C241 C 0.62919 0.16776 0.91903 0.0
O242 O 0.6687 0.1561 0.93302 0.0
Co243 Co 0.63404 0.12718 0.93285 0.0
O244 O 0.65791 0.12969 0.91662 0.0
C245 C 0.64537 0.13209 0.97394 0.0
C246 C 0.64293 0.19372 0.96836 0.0
C247 C 0.67115 0.14221 0.9205 0.0
O248 O 0.64911 0.15016 0.97022 0.0
O249 O 0.63835 0.12029 0.9612 0.0
O250 O 0.63968 0.18294 0.92361 0.0
O251 O 0.62701 0.15479 0.93271 0.0
Co252 Co 0.0888 0.38298 0.20801 0.0
O253 O 0.07521 0.36362 0.22318 0.0
O254 O 0.06625 0.39469 0.22029 0.0
C255 C 0.09314 0.36438 0.18129 0.0
O256 O 0.09833 0.40683 0.19287 0.0
Co257 Co 0.13155 0.3767 0.19471 0.0
O258 O 0.12587 0.39897 0.17692 0.0
C259 C 0.12363 0.3885 0.23545 0.0
C260 C 0.06288 0.37738 0.2275 0.0
C261 C 0.11168 0.41058 0.18016 0.0
O262 O 0.10537 0.39006 0.23135 0.0
O263 O 0.13636 0.38239 0.22317 0.0
O264 O 0.07665 0.37336 0.18406 0.0
O265 O 0.1056 0.36544 0.19544 0.0
Co266 Co 0.86726 0.82251 0.4454 0.0
O267 O 0.88505 0.80513 0.45871 0.0
O268 O 0.85334 0.8 0.45504 0.0
C269 C 0.88544 0.82899 0.41887 0.0
O270 O 0.84439 0.83619 0.43229 0.0
Co271 Co 0.87719 0.8662 0.43811 0.0
O272 O 0.85317 0.86611 0.42185 0.0
C273 C 0.86555 0.85364 0.47756 0.0
C274 C 0.86989 0.79425 0.46233 0.0
C275 C 0.84089 0.85214 0.4229 0.0
O276 O 0.86206 0.83641 0.47084 0.0
O277 O 0.87267 0.8675 0.46716 0.0
O278 O 0.87536 0.81285 0.41977 0.0
O279 O 0.88596 0.83934 0.4347 0.0
Co280 Co 0.91821 0.10562 0.20179 0.0
O281 O 0.9338 0.12341 0.21697 0.0
O282 O 0.93832 0.09131 0.21559 0.0
C283 C 0.91768 0.12291 0.17378 0.0
O284 O 0.90587 0.08296 0.18691 0.0
Co285 Co 0.87722 0.11799 0.18732 0.0
O286 O 0.87999 0.09457 0.17037 0.0
C287 C 0.88175 0.10518 0.22813 0.0
C288 C 0.94384 0.10823 0.22238 0.0
C289 C 0.89227 0.08106 0.17404 0.0
O290 O 0.89985 0.10164 0.22457 0.0
O291 O 0.87024 0.11275 0.21546 0.0
O292 O 0.93271 0.11221 0.17821 0.0
O293 O 0.90474 0.12481 0.18748 0.0
Co294 Co 0.36719 0.66776 0.55138 0.0
O295 O 0.38665 0.68439 0.53985 0.0
O296 O 0.35508 0.69124 0.54147 0.0
C297 C 0.38372 0.66037 0.5787 0.0
O298 O 0.34296 0.6547 0.56282 0.0
Co299 Co 0.37529 0.62367 0.55797 0.0
O300 O 0.35053 0.62434 0.57298 0.0
C301 C 0.36628 0.6376 0.51828 0.0
C302 C 0.37248 0.69633 0.53579 0.0
C303 C 0.3386 0.63859 0.57162 0.0
O304 O 0.36296 0.65471 0.52534 0.0
O305 O 0.37239 0.62325 0.52866 0.0
O306 O 0.37412 0.67674 0.57747 0.0
O307 O 0.38467 0.65008 0.56282 0.0
Co308 Co 0.07298 0.60508 0.29687 0.0
O309 O 0.05657 0.62402 0.28445 0.0
O310 O 0.05039 0.59214 0.28581 0.0
C311 C 0.07843 0.62198 0.32448 0.0
O312 O 0.08616 0.5815 0.30951 0.0
Co313 Co 0.11622 0.61512 0.30501 0.0
O314 O 0.11432 0.59211 0.32261 0.0
C315 C 0.10481 0.60401 0.26516 0.0
C316 C 0.04515 0.60953 0.28005 0.0
C317 C 0.10114 0.57908 0.32064 0.0
O318 O 0.08744 0.60086 0.27154 0.0
O319 O 0.11857 0.6106 0.27598 0.0
O320 O 0.06245 0.61194 0.32238 0.0
O321 O 0.08937 0.62333 0.30908 0.0
Co322 Co 0.41328 0.38771 0.78984 0.0
O323 O 0.42948 0.37154 0.7736 0.0
O324 O 0.43469 0.40304 0.7798 0.0
C325 C 0.40975 0.3665 0.81465 0.0
O326 O 0.40086 0.40884 0.80659 0.0
Co327 Co 0.37086 0.37623 0.80034 0.0
O328 O 0.37312 0.39758 0.81998 0.0
C329 C 0.37938 0.3918 0.76107 0.0
C330 C 0.44016 0.38706 0.77105 0.0
C331 C 0.38656 0.41042 0.81867 0.0
O332 O 0.39704 0.39518 0.76645 0.0
O333 O 0.36683 0.38329 0.77205 0.0
O334 O 0.42542 0.37718 0.81336 0.0
O335 O 0.39785 0.36753 0.80001 0.0
Co336 Co 0.95609 0.85928 0.65636 0.0
O337 O 0.96887 0.87569 0.67523 0.0
O338 O 0.96925 0.84323 0.67553 0.0
C339 C 0.9273 0.87466 0.65608 0.0
O340 O 0.94372 0.83772 0.63988 0.0
Co341 Co 0.94411 0.8765 0.6162 0.0
O342 O 0.92982 0.85146 0.61334 0.0
C343 C 0.98481 0.86479 0.62214 0.0
C344 C 0.97448 0.85964 0.6837 0.0
C345 C 0.93304 0.83677 0.62437 0.0
O346 O 0.98018 0.85905 0.63947 0.0
O347 O 0.9727 0.87306 0.61052 0.0
O348 O 0.9315 0.8623 0.6699 0.0
O349 O 0.94154 0.87931 0.64446 0.0
Co350 Co 0.88415 0.20818 0.41143 0.0
O351 O 0.86401 0.22046 0.42662 0.0
O352 O 0.89568 0.22418 0.43178 0.0
C353 C 0.8707 0.17824 0.41106 0.0
O354 O 0.90897 0.19739 0.3988 0.0
Co355 Co 0.87434 0.19049 0.37054 0.0
O356 O 0.90053 0.17839 0.37323 0.0
C357 C 0.88084 0.2331 0.37448 0.0
C358 C 0.87785 0.22842 0.43681 0.0
C359 C 0.91326 0.18519 0.38503 0.0
O360 O 0.88464 0.23098 0.39281 0.0
O361 O 0.87542 0.21899 0.36336 0.0
O362 O 0.881 0.18376 0.42606 0.0
O363 O 0.86748 0.19144 0.39794 0.0
Co364 Co 0.54193 0.12879 0.16069 0.0
O365 O 0.53052 0.11287 0.18084 0.0
O366 O 0.53324 0.14525 0.18182 0.0
C367 C 0.56861 0.11082 0.15544 0.0
O368 O 0.5536 0.15006 0.14341 0.0
Co369 Co 0.54671 0.1133 0.11839 0.0
O370 O 0.56263 0.13725 0.11447 0.0
C371 C 0.50803 0.12595 0.13164 0.0
C372 C 0.52741 0.12916 0.19017 0.0
C373 C 0.56216 0.15136 0.12668 0.0
O374 O 0.51576 0.13154 0.14783 0.0
O375 O 0.51764 0.11739 0.11803 0.0
O376 O 0.56781 0.12289 0.17015 0.0
O377 O 0.55249 0.10822 0.14587 0.0
Co378 Co 0.62721 0.79344 0.9104 0.0
O379 O 0.64432 0.77804 0.92634 0.0
O380 O 0.61238 0.77985 0.93056 0.0
C381 C 0.64568 0.82055 0.91045 0.0
O382 O 0.6053 0.80862 0.89659 0.0
Co383 Co 0.64256 0.80785 0.8699 0.0
O384 O 0.61901 0.82467 0.87127 0.0
C385 C 0.62806 0.76742 0.87396 0.0
C386 C 0.6291 0.77271 0.93621 0.0
C387 C 0.60446 0.82111 0.88238 0.0
O388 O 0.62339 0.77083 0.8919 0.0
O389 O 0.63699 0.77983 0.86312 0.0
O390 O 0.63399 0.81707 0.92502 0.0
O391 O 0.64728 0.80673 0.8977 0.0
Co392 Co 0.95579 0.13264 0.82359 0.0
O393 O 0.97285 0.11617 0.80843 0.0
O394 O 0.96876 0.14805 0.80385 0.0
C395 C 0.92958 0.11306 0.8238 0.0
O396 O 0.93906 0.15418 0.83557 0.0
Co397 Co 0.94103 0.11943 0.86454 0.0
O398 O 0.92382 0.14267 0.86239 0.0
C399 C 0.98097 0.1345 0.86065 0.0
C400 C 0.97743 0.13189 0.79874 0.0
C401 C 0.92669 0.15601 0.84965 0.0
O402 O 0.97755 0.13838 0.84253 0.0
O403 O 0.96869 0.12582 0.87179 0.0
O404 O 0.93321 0.12397 0.80861 0.0
O405 O 0.94306 0.11254 0.83702 0.0
Co406 Co 0.63026 0.20676 0.58859 0.0
O407 O 0.6482 0.22168 0.57327 0.0
O408 O 0.61645 0.21999 0.56754 0.0
C409 C 0.64844 0.17965 0.58982 0.0
O410 O 0.60776 0.19176 0.60176 0.0
Co411 Co 0.64388 0.19369 0.63008 0.0
O412 O 0.62097 0.17613 0.62762 0.0
C413 C 0.6298 0.23394 0.62415 0.0
C414 C 0.63351 0.22688 0.56259 0.0
C415 C 0.60677 0.17922 0.61593 0.0
O416 O 0.62577 0.22983 0.60624 0.0
O417 O 0.63811 0.22191 0.63587 0.0
O418 O 0.63748 0.183 0.57467 0.0
O419 O 0.64967 0.19369 0.60242 0.0
Co420 Co 0.54374 0.85448 0.3308 0.0
O421 O 0.5292 0.87217 0.31456 0.0
O422 O 0.53334 0.8405 0.30863 0.0
C423 C 0.56973 0.87357 0.33561 0.0
O424 O 0.55844 0.83192 0.34351 0.0
Co425 Co 0.55268 0.8645 0.37404 0.0
O426 O 0.57102 0.84209 0.37214 0.0
C427 C 0.51311 0.85231 0.36329 0.0
C428 C 0.52561 0.85712 0.30349 0.0
C429 C 0.56964 0.82947 0.35845 0.0
O430 O 0.51938 0.84846 0.34598 0.0
O431 O 0.52381 0.85987 0.37667 0.0
O432 O 0.56815 0.86339 0.31957 0.0
O433 O 0.5547 0.87357 0.34707 0.0
Co434 Co 0.88382 0.7875 0.08037 0.0
O435 O 0.86724 0.77196 0.06375 0.0
O436 O 0.89923 0.77481 0.06032 0.0
C437 C 0.86485 0.81428 0.08087 0.0
O438 O 0.90555 0.80262 0.09431 0.0
Co439 Co 0.86931 0.80152 0.1212 0.0
O440 O 0.89308 0.81806 0.12055 0.0
C441 C 0.88413 0.7612 0.11652 0.0
C442 C 0.88289 0.76725 0.05417 0.0
C443 C 0.90716 0.81457 0.10887 0.0
O444 O 0.88796 0.76456 0.09838 0.0
O445 O 0.87587 0.77365 0.12782 0.0
O446 O 0.87663 0.81124 0.06625 0.0
O447 O 0.86356 0.8003 0.09351 0.0
Co448 Co 0.6675 0.95611 0.85962 0.0
O449 O 0.68334 0.97193 0.87674 0.0
O450 O 0.68916 0.96689 0.8452 0.0
C451 C 0.66425 0.93049 0.87981 0.0
O452 O 0.6553 0.94014 0.8375 0.0
Co453 Co 0.62509 0.94474 0.87042 0.0
O454 O 0.6271 0.92681 0.84765 0.0
C455 C 0.63314 0.98432 0.85544 0.0
C456 C 0.69444 0.97499 0.86162 0.0
C457 C 0.64057 0.92871 0.83492 0.0
O458 O 0.65105 0.97945 0.85275 0.0
O459 O 0.62051 0.97294 0.86328 0.0
O460 O 0.67993 0.93256 0.86932 0.0
O461 O 0.65201 0.94489 0.87928 0.0
Co462 Co 0.79589 0.91553 0.60508 0.0
O463 O 0.78091 0.93139 0.62289 0.0
O464 O 0.78247 0.93566 0.59071 0.0
C465 C 0.82381 0.9146 0.62195 0.0
O466 O 0.8103 0.90289 0.58232 0.0
Co467 Co 0.80946 0.8741 0.6173 0.0
O468 O 0.82541 0.87574 0.59311 0.0
C469 C 0.76902 0.87938 0.60457 0.0
C470 C 0.77557 0.94128 0.60755 0.0
C471 C 0.8221 0.88845 0.57985 0.0
O472 O 0.77302 0.89747 0.60121 0.0
O473 O 0.78134 0.86743 0.612 0.0
O474 O 0.81945 0.92984 0.61143 0.0
O475 O 0.81002 0.90178 0.62413 0.0
Co476 Co 0.82484 0.04685 0.36057 0.0
O477 O 0.80615 0.03668 0.37873 0.0
O478 O 0.80361 0.03453 0.34642 0.0
C479 C 0.82882 0.07606 0.37473 0.0
O480 O 0.84144 0.05668 0.33756 0.0
Co481 Co 0.86659 0.05478 0.37595 0.0
O482 O 0.8696 0.06796 0.35032 0.0
C483 C 0.85565 0.01462 0.36598 0.0
C484 C 0.79643 0.03054 0.36366 0.0
C485 C 0.85802 0.06552 0.33592 0.0
O486 O 0.83894 0.02112 0.36065 0.0
O487 O 0.86899 0.02552 0.37326 0.0
O488 O 0.81408 0.07285 0.36321 0.0
O489 O 0.83911 0.06084 0.37937 0.0
Co490 Co 0.70523 0.08406 0.10773 0.0
O491 O 0.71826 0.06664 0.12537 0.0
O492 O 0.71682 0.06254 0.09322 0.0
C493 C 0.67791 0.08722 0.12546 0.0
O494 O 0.69216 0.09897 0.08526 0.0
Co495 Co 0.69537 0.12619 0.12201 0.0
O496 O 0.67946 0.12668 0.09779 0.0
C497 C 0.73533 0.1172 0.1093 0.0
C498 C 0.72281 0.05621 0.11019 0.0
C499 C 0.68172 0.11462 0.0837 0.0
O500 O 0.72984 0.09983 0.1045 0.0
O501 O 0.72407 0.12969 0.11752 0.0
O502 O 0.68016 0.07217 0.11401 0.0
O503 O 0.69291 0.09849 0.12734 0.0
Co504 Co 0.66928 0.04162 0.63208 0.0
O505 O 0.68664 0.02678 0.61598 0.0
O506 O 0.68939 0.02988 0.64819 0.0
C507 C 0.66795 0.06814 0.61311 0.0
O508 O 0.65419 0.05674 0.65311 0.0
Co509 Co 0.62819 0.05169 0.61587 0.0
O510 O 0.62739 0.0694 0.63881 0.0
C511 C 0.63565 0.01218 0.63049 0.0
C512 C 0.69597 0.02242 0.63191 0.0
C513 C 0.63897 0.06787 0.65335 0.0
O514 O 0.65268 0.0178 0.63585 0.0
O515 O 0.62353 0.02315 0.62143 0.0
O516 O 0.68249 0.06564 0.62507 0.0
O517 O 0.65611 0.05349 0.6113 0.0
Co518 Co 0.70441 0.91549 0.3774 0.0
O519 O 0.71712 0.92969 0.35675 0.0
O520 O 0.7142 0.94007 0.38738 0.0
C521 C 0.67782 0.90698 0.36045 0.0
O522 O 0.69141 0.90507 0.40232 0.0
Co523 Co 0.69738 0.87091 0.37301 0.0
O524 O 0.67998 0.8749 0.39588 0.0
C525 C 0.73674 0.88503 0.3825 0.0
C526 C 0.72063 0.94316 0.36968 0.0
C527 C 0.68117 0.8899 0.40693 0.0
O528 O 0.72984 0.90244 0.38421 0.0
O529 O 0.72642 0.8704 0.37698 0.0
O530 O 0.67901 0.92423 0.3684 0.0
O531 O 0.69343 0.8964 0.36114 0.0
Co532 Co 0.82777 0.95219 0.11649 0.0
O533 O 0.81316 0.96542 0.09635 0.0
O534 O 0.8045 0.96351 0.12757 0.0
C535 C 0.83427 0.92475 0.09971 0.0
O536 O 0.83864 0.93941 0.14129 0.0
Co537 Co 0.87158 0.94268 0.11045 0.0
O538 O 0.86868 0.92775 0.13519 0.0
C539 C 0.86007 0.9828 0.12069 0.0
C540 C 0.80088 0.97011 0.11006 0.0
C541 C 0.854 0.92982 0.14645 0.0
O542 O 0.84231 0.97705 0.12223 0.0
O543 O 0.87403 0.97162 0.11525 0.0
O544 O 0.8175 0.92692 0.10835 0.0
O545 O 0.84553 0.93993 0.09967 0.0
Co546 Co 0.80237 0.07312 0.88567 0.0
O547 O 0.78934 0.05427 0.86949 0.0
O548 O 0.78924 0.05402 0.90196 0.0
C549 C 0.83064 0.07384 0.86934 0.0
O550 O 0.81492 0.09 0.90702 0.0
Co551 Co 0.81315 0.1134 0.86775 0.0
O552 O 0.82747 0.11694 0.8927 0.0
C553 C 0.77267 0.10597 0.87879 0.0
C554 C 0.78315 0.04632 0.88559 0.0
C555 C 0.82497 0.10598 0.90761 0.0
O556 O 0.77808 0.08946 0.88589 0.0
O557 O 0.78423 0.11777 0.87001 0.0
O558 O 0.82724 0.06002 0.88201 0.0
O559 O 0.81607 0.08516 0.86529 0.0
Co560 Co 0.86105 0.66028 0.95251 0.0
O561 O 0.87699 0.67808 0.96726 0.0
O562 O 0.84488 0.68015 0.96473 0.0
C563 C 0.88006 0.6596 0.92575 0.0
O564 O 0.84 0.64452 0.93813 0.0
Co565 Co 0.87793 0.61973 0.94035 0.0
O566 O 0.85449 0.61893 0.92334 0.0
C567 C 0.86249 0.62536 0.98032 0.0
C568 C 0.86104 0.68707 0.97202 0.0
C569 C 0.83957 0.6296 0.92651 0.0
O570 O 0.85783 0.6431 0.97617 0.0
O571 O 0.87136 0.61392 0.96841 0.0
O572 O 0.86756 0.67372 0.92807 0.0
O573 O 0.88188 0.64771 0.9403 0.0
Co574 Co 0.35804 0.83842 0.04609 0.0
O575 O 0.37715 0.82339 0.03215 0.0
O576 O 0.34527 0.81999 0.02856 0.0
C577 C 0.37213 0.83534 0.07559 0.0
O578 O 0.33415 0.8514 0.05853 0.0
Co579 Co 0.37095 0.87697 0.06682 0.0
O580 O 0.34441 0.87569 0.0783 0.0
C581 C 0.36248 0.87734 0.02444 0.0
C582 C 0.3628 0.81442 0.02368 0.0
C583 C 0.33085 0.86503 0.07122 0.0
O584 O 0.35808 0.85903 0.02505 0.0
O585 O 0.36893 0.8869 0.03923 0.0
O586 O 0.36079 0.82156 0.06907 0.0
O587 O 0.37587 0.84937 0.06353 0.0
Co588 Co 0.92073 0.61402 0.79172 0.0
O589 O 0.93821 0.63238 0.77946 0.0
O590 O 0.94409 0.60072 0.78362 0.0
C591 C 0.91275 0.63239 0.81768 0.0
O592 O 0.90707 0.59072 0.80434 0.0
Co593 Co 0.87675 0.62274 0.79644 0.0
O594 O 0.87663 0.59899 0.81319 0.0
C595 C 0.89172 0.61119 0.75781 0.0
C596 C 0.94989 0.6176 0.77701 0.0
C597 C 0.89083 0.58696 0.81302 0.0
O598 O 0.90851 0.60825 0.76561 0.0
O599 O 0.87711 0.61795 0.76734 0.0
O600 O 0.92898 0.62256 0.81747 0.0
O601 O 0.90295 0.63251 0.80147 0.0
Co602 Co 0.13499 0.16373 0.54292 0.0
O603 O 0.11805 0.1804 0.52788 0.0
O604 O 0.14998 0.18438 0.53081 0.0
C605 C 0.11633 0.16193 0.56983 0.0
O606 O 0.15701 0.14991 0.55767 0.0
Co607 Co 0.12154 0.12215 0.55542 0.0
O608 O 0.1449 0.12318 0.57255 0.0
C609 C 0.13556 0.12864 0.51511 0.0
C610 C 0.13354 0.19036 0.5234 0.0
C611 C 0.15874 0.13529 0.56952 0.0
O612 O 0.13938 0.14658 0.51937 0.0
O613 O 0.12755 0.11669 0.52712 0.0
O614 O 0.12763 0.17698 0.56709 0.0
O615 O 0.11512 0.14975 0.55541 0.0
Co616 Co 0.06711 0.88422 0.79652 0.0
O617 O 0.05104 0.8668 0.78149 0.0
O618 O 0.04672 0.89891 0.78375 0.0
C619 C 0.06885 0.86625 0.82381 0.0
O620 O 0.08041 0.90663 0.8112 0.0
Co621 Co 0.10874 0.87136 0.80853 0.0
O622 O 0.10782 0.89515 0.82516 0.0
C623 C 0.10163 0.88359 0.76805 0.0
C624 C 0.04133 0.88224 0.77622 0.0
C625 C 0.09525 0.90865 0.82262 0.0
O626 O 0.08419 0.88825 0.773 0.0
O627 O 0.11383 0.87568 0.77981 0.0
O628 O 0.05366 0.87716 0.82051 0.0
O629 O 0.08116 0.86474 0.80951 0.0
Co630 Co 0.63913 0.33303 0.4576 0.0
O631 O 0.62031 0.31706 0.4708 0.0
O632 O 0.65232 0.31359 0.47343 0.0
C633 C 0.62481 0.3322 0.4282 0.0
O634 O 0.66264 0.34697 0.44536 0.0
Co635 Co 0.62551 0.3731 0.44083 0.0
O636 O 0.651 0.37185 0.42717 0.0
C637 C 0.63449 0.36976 0.48287 0.0
C638 C 0.6349 0.30777 0.47843 0.0
C639 C 0.66502 0.36097 0.43284 0.0
O640 O 0.63949 0.35181 0.48029 0.0
O641 O 0.62757 0.38057 0.46921 0.0
O642 O 0.63601 0.31786 0.43361 0.0
O643 O 0.62102 0.34519 0.44141 0.0
Co644 Co 0.92295 0.38172 0.705 0.0
O645 O 0.94171 0.36568 0.71821 0.0
O646 O 0.94216 0.39815 0.71758 0.0
C647 C 0.92178 0.36526 0.67676 0.0
O648 O 0.90639 0.40296 0.69213 0.0
Co649 Co 0.88246 0.3644 0.69484 0.0
O650 O 0.87941 0.3889 0.67962 0.0
C651 C 0.89016 0.37643 0.73517 0.0
C652 C 0.94989 0.38189 0.72381 0.0
C653 C 0.89061 0.40363 0.68187 0.0
O654 O 0.90686 0.38269 0.7295 0.0
O655 O 0.87806 0.36782 0.72381 0.0
O656 O 0.93584 0.37758 0.68016 0.0
O657 O 0.91052 0.36133 0.69151 0.0
Co658 Co 0.57612 0.61205 0.20324 0.0
O659 O 0.56184 0.62974 0.21986 0.0
O660 O 0.55646 0.59782 0.21757 0.0
C661 C 0.5759 0.63042 0.17604 0.0
O662 O 0.58715 0.58932 0.18741 0.0
Co663 Co 0.61672 0.62343 0.18672 0.0
O664 O 0.61412 0.59893 0.17133 0.0
C665 C 0.61362 0.61022 0.22753 0.0
C666 C 0.55193 0.61453 0.2255 0.0
C667 C 0.60112 0.58616 0.1752 0.0
O668 O 0.59535 0.60701 0.22481 0.0
O669 O 0.62472 0.61778 0.21449 0.0
O670 O 0.56078 0.61988 0.18063 0.0
O671 O 0.58958 0.63126 0.18906 0.0
Co672 Co 0.54429 0.63986 0.83505 0.0
O673 O 0.56936 0.63238 0.825 0.0
O674 O 0.55742 0.62315 0.85375 0.0
C675 C 0.52684 0.63456 0.80767 0.0
O676 O 0.51871 0.64458 0.84975 0.0
Co677 Co 0.52427 0.67659 0.81688 0.0
O678 O 0.50275 0.6695 0.835 0.0
C679 C 0.55959 0.6808 0.84042 0.0
C680 C 0.57187 0.62306 0.84137 0.0
C681 C 0.5039 0.65606 0.84792 0.0
O682 O 0.55672 0.66357 0.84738 0.0
O683 O 0.54963 0.6879 0.82626 0.0
O684 O 0.53115 0.61999 0.81915 0.0
O685 O 0.53519 0.65095 0.81189 0.0
Co686 Co 0.61175 0.28777 0.07992 0.0
O687 O 0.62955 0.27231 0.06458 0.0
O688 O 0.5984 0.27727 0.05739 0.0
C689 C 0.63142 0.31349 0.08489 0.0
O690 O 0.58921 0.30341 0.09141 0.0
Co691 Co 0.62048 0.29824 0.12323 0.0
O692 O 0.59847 0.31684 0.11997 0.0
C693 C 0.60668 0.25858 0.11352 0.0
C694 C 0.61494 0.26911 0.05288 0.0
C695 C 0.58633 0.3151 0.10593 0.0
O696 O 0.6043 0.26394 0.09561 0.0
O697 O 0.61405 0.26974 0.12666 0.0
O698 O 0.62184 0.31184 0.06853 0.0
O699 O 0.63046 0.29868 0.09663 0.0
Co700 Co 0.95236 0.35717 0.32326 0.0
O701 O 0.9281 0.36809 0.31426 0.0
O702 O 0.93843 0.36833 0.34509 0.0
C703 C 0.97189 0.36934 0.29972 0.0
O704 O 0.97647 0.34766 0.33795 0.0
Co705 Co 0.97393 0.32647 0.29749 0.0
O706 O 0.99456 0.32879 0.3178 0.0
C707 C 0.93784 0.31548 0.31771 0.0
C708 C 0.92483 0.37251 0.33248 0.0
C709 C 0.99184 0.33757 0.33405 0.0
O710 O 0.93886 0.33141 0.32769 0.0
O711 O 0.94936 0.3116 0.30348 0.0
O712 O 0.96688 0.38025 0.31451 0.0
O713 O 0.96312 0.35264 0.29857 0.0
Co714 Co 0.892 0.69904 0.57493 0.0
O715 O 0.87539 0.71342 0.55726 0.0
O716 O 0.90734 0.70994 0.5539 0.0
C717 C 0.87306 0.67241 0.57816 0.0
O718 O 0.91391 0.6849 0.5892 0.0
Co719 Co 0.87909 0.68851 0.61722 0.0
O720 O 0.90343 0.67282 0.61796 0.0
C721 C 0.89237 0.72858 0.6086 0.0
C722 C 0.89111 0.71727 0.54734 0.0
C723 C 0.91655 0.67478 0.60488 0.0
O724 O 0.89651 0.72336 0.59097 0.0
O725 O 0.8843 0.71718 0.62109 0.0
O726 O 0.88436 0.67429 0.56297 0.0
O727 O 0.87209 0.68739 0.58968 0.0
Co728 Co 0.54919 0.35305 0.67763 0.0
O729 O 0.57428 0.36181 0.68668 0.0
O730 O 0.56244 0.36718 0.65693 0.0
C731 C 0.53171 0.36184 0.70411 0.0
O732 O 0.52364 0.34661 0.66341 0.0
Co733 Co 0.52786 0.31956 0.70021 0.0
O734 O 0.50573 0.32696 0.68303 0.0
C735 C 0.56373 0.31151 0.67823 0.0
C736 C 0.57683 0.36895 0.66925 0.0
C737 C 0.50773 0.3375 0.66775 0.0
O738 O 0.56165 0.32778 0.66896 0.0
O739 O 0.55292 0.30651 0.69267 0.0
O740 O 0.53594 0.37486 0.69084 0.0
O741 O 0.53998 0.34506 0.7019 0.0
Co742 Co 0.88069 0.28978 0.91422 0.0
O743 O 0.86412 0.27689 0.93305 0.0
O744 O 0.89615 0.28019 0.93578 0.0
C745 C 0.86233 0.3165 0.90907 0.0
O746 O 0.90249 0.30255 0.89841 0.0
Co747 Co 0.86692 0.29613 0.87146 0.0
O748 O 0.89093 0.31217 0.86913 0.0
C749 C 0.88001 0.25706 0.88346 0.0
C750 C 0.87995 0.27322 0.94286 0.0
C751 C 0.90448 0.31146 0.88189 0.0
O752 O 0.88459 0.26412 0.90029 0.0
O753 O 0.87186 0.26715 0.86996 0.0
O754 O 0.87368 0.31549 0.92431 0.0
O755 O 0.86071 0.30059 0.89891 0.0
Co756 Co 0.94775 0.63418 0.17338 0.0
O757 O 0.92144 0.62824 0.18086 0.0
O758 O 0.9337 0.62375 0.15111 0.0
C759 C 0.96249 0.6207 0.19958 0.0
O760 O 0.97444 0.63852 0.16069 0.0
Co761 Co 0.97195 0.66245 0.1997 0.0
O762 O 0.99385 0.65247 0.18344 0.0
C763 C 0.9403 0.67797 0.17516 0.0
C764 C 0.91873 0.62293 0.16283 0.0
C765 C 0.99126 0.64428 0.16685 0.0
O766 O 0.93929 0.66143 0.16622 0.0
O767 O 0.95118 0.68088 0.19013 0.0
O768 O 0.95732 0.6097 0.18491 0.0
O769 O 0.95671 0.63865 0.19869 0.0
Co770 Co 0.61838 0.69802 0.42147 0.0
O771 O 0.63779 0.70868 0.43861 0.0
O772 O 0.60597 0.71021 0.44392 0.0
C773 C 0.63276 0.66906 0.41628 0.0
O774 O 0.59439 0.68776 0.4067 0.0
Co775 Co 0.63067 0.6901 0.37842 0.0
O776 O 0.60529 0.67632 0.37772 0.0
C777 C 0.6209 0.73016 0.39 0.0
C778 C 0.62359 0.71473 0.44954 0.0
C779 C 0.59172 0.67872 0.39028 0.0
O780 O 0.61683 0.72371 0.40718 0.0
O781 O 0.6275 0.71928 0.37625 0.0
O782 O 0.62246 0.67189 0.43201 0.0
O783 O 0.63606 0.68445 0.40573 0.0
Co784 Co 0.84074 0.53746 0.62765 0.0
O785 O 0.82592 0.52212 0.60931 0.0
O786 O 0.81802 0.52662 0.64049 0.0
C787 C 0.84566 0.5634 0.60797 0.0
O788 O 0.85157 0.55304 0.65063 0.0
Co789 Co 0.88384 0.54881 0.61959 0.0
O790 O 0.88023 0.56662 0.64226 0.0
C791 C 0.87471 0.50909 0.63385 0.0
C792 C 0.81379 0.51894 0.62358 0.0
C793 C 0.86601 0.56457 0.65411 0.0
O794 O 0.8566 0.51382 0.63537 0.0
O795 O 0.88771 0.52058 0.62681 0.0
O796 O 0.82929 0.56147 0.61739 0.0
O797 O 0.85755 0.54878 0.60917 0.0
Co798 Co 0.69567 0.5675 0.90182 0.0
O799 O 0.67078 0.55753 0.89343 0.0
O800 O 0.68187 0.58743 0.88732 0.0
C801 C 0.7137 0.54124 0.89345 0.0
O802 O 0.72062 0.58279 0.90788 0.0
Co803 Co 0.71795 0.54666 0.93568 0.0
O804 O 0.73931 0.56491 0.92835 0.0
C805 C 0.68225 0.56894 0.94398 0.0
C806 C 0.66779 0.57473 0.8859 0.0
C807 C 0.73657 0.57975 0.91737 0.0
O808 O 0.68323 0.57672 0.92686 0.0
O809 O 0.69356 0.55513 0.94961 0.0
O810 O 0.70905 0.55414 0.88023 0.0
O811 O 0.70567 0.54365 0.91036 0.0
Co812 Co 0.66518 0.44904 0.13427 0.0
O813 O 0.6803 0.46176 0.11437 0.0
O814 O 0.68864 0.45966 0.14574 0.0
C815 C 0.65827 0.42199 0.11704 0.0
O816 O 0.65395 0.43619 0.15872 0.0
Co817 Co 0.62135 0.44067 0.12816 0.0
O818 O 0.62482 0.42323 0.15116 0.0
C819 C 0.6338 0.48075 0.13742 0.0
C820 C 0.69267 0.46586 0.12817 0.0
C821 C 0.63922 0.42522 0.1628 0.0
O822 O 0.65125 0.47435 0.13986 0.0
O823 O 0.61967 0.46987 0.13177 0.0
O824 O 0.6749 0.42362 0.12606 0.0
O825 O 0.64728 0.43738 0.11713 0.0
Co826 Co 0.80225 0.42865 0.39583 0.0
O827 O 0.82844 0.43578 0.38894 0.0
O828 O 0.81524 0.4065 0.38395 0.0
C829 C 0.78772 0.45567 0.38383 0.0
O830 O 0.77557 0.41621 0.40081 0.0
Co831 Co 0.77916 0.45436 0.42555 0.0
O832 O 0.75674 0.43844 0.41626 0.0
C833 C 0.81138 0.42931 0.43926 0.0
C834 C 0.83037 0.41795 0.3827 0.0
C835 C 0.75901 0.42213 0.40748 0.0
O836 O 0.81175 0.42059 0.42255 0.0
O837 O 0.80064 0.44424 0.44278 0.0
O838 O 0.79189 0.44121 0.37216 0.0
O839 O 0.79405 0.45394 0.40153 0.0
Co840 Co 0.82625 0.45098 0.85882 0.0
O841 O 0.80967 0.4647 0.87683 0.0
O842 O 0.80346 0.46047 0.84521 0.0
C843 C 0.83269 0.42488 0.87774 0.0
O844 O 0.83926 0.43691 0.83603 0.0
Co845 Co 0.86981 0.44435 0.86833 0.0
O846 O 0.86827 0.42555 0.84619 0.0
C847 C 0.85718 0.48329 0.85543 0.0
C848 C 0.79826 0.46788 0.86197 0.0
C849 C 0.85455 0.42626 0.8336 0.0
O850 O 0.84008 0.47619 0.85246 0.0
O851 O 0.87117 0.47326 0.86274 0.0
O852 O 0.81647 0.42583 0.86791 0.0
O853 O 0.84326 0.44058 0.87765 0.0
Co854 Co 0.79114 0.5723 0.10448 0.0
O855 O 0.81711 0.56399 0.11076 0.0
O856 O 0.80558 0.59394 0.1157 0.0
C857 C 0.77551 0.54626 0.11709 0.0
O858 O 0.76482 0.58576 0.09994 0.0
Co859 Co 0.76695 0.54723 0.07507 0.0
O860 O 0.74529 0.56412 0.08442 0.0
C861 C 0.80033 0.57034 0.06121 0.0
C862 C 0.8202 0.5818 0.11657 0.0
C863 C 0.74806 0.58031 0.09331 0.0
O864 O 0.80043 0.57967 0.07756 0.0
O865 O 0.78931 0.55556 0.05794 0.0
O866 O 0.78083 0.56054 0.12852 0.0
O867 O 0.78162 0.54738 0.09926 0.0
Co868 Co 0.67363 0.54217 0.35158 0.0
O869 O 0.69369 0.53072 0.36718 0.0
O870 O 0.69313 0.53037 0.33468 0.0
C871 C 0.67158 0.57058 0.36776 0.0
O872 O 0.65543 0.55365 0.33093 0.0
Co873 Co 0.63352 0.55033 0.37093 0.0
O874 O 0.62929 0.56582 0.34681 0.0
C875 C 0.64257 0.51041 0.3584 0.0
C876 C 0.70188 0.52546 0.35089 0.0
C877 C 0.63951 0.56369 0.33135 0.0
O878 O 0.6589 0.51671 0.3517 0.0
O879 O 0.63027 0.52129 0.36734 0.0
O880 O 0.68515 0.56792 0.35473 0.0
O881 O 0.66142 0.55525 0.37231 0.0
Co882 Co 0.70058 0.42651 0.60907 0.0
O883 O 0.67529 0.43559 0.61744 0.0
O884 O 0.68637 0.40533 0.62124 0.0
C885 C 0.71877 0.45158 0.62041 0.0
O886 O 0.72587 0.41196 0.60281 0.0
Co887 Co 0.72369 0.45031 0.57782 0.0
O888 O 0.74505 0.43201 0.58491 0.0
C889 C 0.68873 0.42853 0.56624 0.0
C890 C 0.6722 0.4178 0.62339 0.0
C891 C 0.74219 0.41625 0.59449 0.0
O892 O 0.68908 0.4195 0.58278 0.0
O893 O 0.70012 0.4428 0.56215 0.0
O894 O 0.71321 0.43774 0.63227 0.0
O895 O 0.71105 0.45103 0.60317 0.0
Co896 Co 0.63556 0.83081 0.54201 0.0
O897 O 0.61607 0.81364 0.5316 0.0
O898 O 0.64785 0.8082 0.52993 0.0
C899 C 0.62163 0.83584 0.57122 0.0
O900 O 0.65957 0.84558 0.55225 0.0
Co901 Co 0.62332 0.87369 0.54959 0.0
O902 O 0.64822 0.87417 0.56415 0.0
C903 C 0.63331 0.86224 0.5096 0.0
C904 C 0.63017 0.80245 0.52581 0.0
C905 C 0.66191 0.86178 0.56176 0.0
O906 O 0.63697 0.84501 0.51618 0.0
O907 O 0.62698 0.87615 0.52042 0.0
O908 O 0.63191 0.82021 0.56803 0.0
O909 O 0.61784 0.84649 0.55594 0.0
Co910 Co 0.14173 0.67367 0.44805 0.0
O911 O 0.12515 0.69326 0.45945 0.0
O912 O 0.15741 0.69455 0.45903 0.0
C913 C 0.12536 0.6697 0.4199 0.0
O914 O 0.16339 0.65632 0.43688 0.0
Co915 Co 0.12496 0.63203 0.44087 0.0
O916 O 0.14973 0.62817 0.42646 0.0
C917 C 0.13674 0.6431 0.48065 0.0
C918 C 0.14096 0.70245 0.46439 0.0
C919 C 0.16434 0.63962 0.42807 0.0
O920 O 0.14284 0.65956 0.4739 0.0
O921 O 0.1282 0.63022 0.47007 0.0
O922 O 0.13748 0.68421 0.42191 0.0
O923 O 0.12176 0.65976 0.43562 0.0
Co924 Co 0.57283 0.88569 0.70217 0.0
O925 O 0.55688 0.86579 0.71358 0.0
O926 O 0.55089 0.89773 0.71518 0.0
C927 C 0.57724 0.87155 0.67294 0.0
O928 O 0.58572 0.91013 0.69104 0.0
Co929 Co 0.61572 0.8759 0.69216 0.0
O930 O 0.61331 0.90011 0.67634 0.0
C931 C 0.60572 0.88443 0.73292 0.0
C932 C 0.54586 0.87992 0.71978 0.0
C933 C 0.60036 0.9131 0.67959 0.0
O934 O 0.58818 0.88785 0.72725 0.0
O935 O 0.61919 0.87866 0.7213 0.0
O936 O 0.56129 0.88113 0.67661 0.0
O937 O 0.58863 0.8686 0.6878 0.0
Co938 Co 0.36053 0.3262 0.94711 0.0
O939 O 0.37715 0.30833 0.96114 0.0
O940 O 0.3455 0.30409 0.95592 0.0
C941 C 0.38031 0.33194 0.92162 0.0
O942 O 0.33877 0.34051 0.93286 0.0
Co943 Co 0.37197 0.36955 0.94048 0.0
O944 O 0.34874 0.37031 0.92317 0.0
C945 C 0.35768 0.35739 0.97916 0.0
C946 C 0.36158 0.29778 0.96377 0.0
C947 C 0.3361 0.35663 0.92349 0.0
O948 O 0.3544 0.34022 0.97223 0.0
O949 O 0.36558 0.37115 0.96919 0.0
O950 O 0.36965 0.31618 0.9221 0.0
O951 O 0.38029 0.34248 0.93737 0.0
Co952 Co 0.41493 0.60975 0.71287 0.0
O953 O 0.43078 0.62637 0.72907 0.0
O954 O 0.43625 0.59482 0.72359 0.0
C955 C 0.41171 0.63025 0.68748 0.0
O956 O 0.40274 0.5882 0.69634 0.0
Co957 Co 0.37262 0.621 0.70165 0.0
O958 O 0.37518 0.59929 0.68246 0.0
C959 C 0.38068 0.60632 0.74134 0.0
C960 C 0.44146 0.61098 0.73221 0.0
C961 C 0.38855 0.58644 0.68413 0.0
O962 O 0.39836 0.60273 0.73619 0.0
O963 O 0.36829 0.61466 0.73006 0.0
O964 O 0.42742 0.61974 0.68931 0.0
O965 O 0.39962 0.62963 0.702 0.0
Co966 Co 0.86408 0.16324 0.04245 0.0
O967 O 0.87958 0.18185 0.02803 0.0
O968 O 0.84732 0.18199 0.0296 0.0
C969 C 0.88096 0.16329 0.07062 0.0
O970 O 0.8433 0.14716 0.05645 0.0
Co971 Co 0.88166 0.12321 0.05453 0.0
O972 O 0.85736 0.12063 0.07002 0.0
C973 C 0.86784 0.12831 0.01418 0.0
C974 C 0.86322 0.18991 0.02286 0.0
C975 C 0.8427 0.13178 0.06738 0.0
O976 O 0.86238 0.14574 0.01871 0.0
O977 O 0.87677 0.11701 0.02615 0.0
O978 O 0.86868 0.17725 0.06676 0.0
O979 O 0.88471 0.15148 0.05624 0.0
Co980 Co 0.58897 0.11476 0.78672 0.0
O981 O 0.5714 0.1322 0.77367 0.0
O982 O 0.56893 0.09983 0.77326 0.0
C983 C 0.59026 0.1305 0.81555 0.0
O984 O 0.6041 0.09244 0.7995 0.0
Co985 Co 0.62989 0.13024 0.79836 0.0
O986 O 0.63091 0.10551 0.81345 0.0
C987 C 0.62343 0.11752 0.75789 0.0
C988 C 0.56207 0.11675 0.76781 0.0
C989 C 0.61939 0.09117 0.81043 0.0
O990 O 0.60582 0.1131 0.76262 0.0
O991 O 0.63549 0.12538 0.76984 0.0
O992 O 0.57571 0.11901 0.81148 0.0
O993 O 0.60197 0.13422 0.80112 0.0
Co994 Co 0.91374 0.8913 0.28703 0.0
O995 O 0.93076 0.87366 0.27324 0.0
O996 O 0.93652 0.90525 0.27828 0.0
C997 C 0.90725 0.87173 0.31261 0.0
O998 O 0.90072 0.91385 0.3014 0.0
Co999 Co 0.87025 0.8824 0.2934 0.0
O1000 O 0.87169 0.904 0.31286 0.0
C1001 C 0.88322 0.89483 0.25439 0.0
C1002 C 0.94215 0.88869 0.27081 0.0
C1003 C 0.88563 0.91634 0.3123 0.0
O1004 O 0.90022 0.89791 0.2617 0.0
O1005 O 0.86909 0.88767 0.26434 0.0
O1006 O 0.92331 0.88184 0.312 0.0
O1007 O 0.89659 0.87218 0.29693 0.0
Co1008 Co 0.45422 0.36109 0.16805 0.0
O1009 O 0.46468 0.38123 0.1845 0.0
O1010 O 0.46674 0.34934 0.19039 0.0
C1011 C 0.42496 0.37439 0.16315 0.0
O1012 O 0.44425 0.33634 0.15467 0.0
Co1013 Co 0.44491 0.37074 0.12482 0.0
O1014 O 0.43118 0.34524 0.12578 0.0
C1015 C 0.48546 0.36335 0.13581 0.0
C1016 C 0.47079 0.3672 0.19572 0.0
C1017 C 0.43433 0.33254 0.13909 0.0
O1018 O 0.47955 0.35977 0.15329 0.0
O1019 O 0.47405 0.36877 0.122 0.0
O1020 O 0.42854 0.3647 0.17912 0.0
O1021 O 0.43982 0.37794 0.15194 0.0
Co1022 Co 0.37468 0.70638 0.92026 0.0
O1023 O 0.35479 0.72182 0.93277 0.0
O1024 O 0.38602 0.72207 0.94097 0.0
C1025 C 0.35753 0.67846 0.91965 0.0
O1026 O 0.39928 0.69227 0.91089 0.0
Co1027 Co 0.36763 0.68713 0.87954 0.0
O1028 O 0.39218 0.67285 0.88527 0.0
C1029 C 0.37896 0.72889 0.88207 0.0
C1030 C 0.36848 0.72875 0.94391 0.0
C1031 C 0.40408 0.67917 0.89815 0.0
O1032 O 0.37981 0.72785 0.90086 0.0
O1033 O 0.37363 0.71464 0.87109 0.0
O1034 O 0.36708 0.68328 0.93538 0.0
O1035 O 0.35751 0.6911 0.90564 0.0
Co1036 Co 0.05272 0.64584 0.67574 0.0
O1037 O 0.04019 0.62853 0.69396 0.0
O1038 O 0.04163 0.66084 0.69693 0.0
C1039 C 0.08024 0.62867 0.67172 0.0
O1040 O 0.06506 0.66826 0.66048 0.0
Co1041 Co 0.0612 0.63234 0.63331 0.0
O1042 O 0.07693 0.65671 0.63204 0.0
C1043 C 0.02113 0.64271 0.64412 0.0
C1044 C 0.03543 0.64415 0.70371 0.0
C1045 C 0.07506 0.67035 0.64465 0.0
O1046 O 0.02749 0.64841 0.66089 0.0
O1047 O 0.03205 0.63477 0.63115 0.0
O1048 O 0.07819 0.64007 0.68686 0.0
O1049 O 0.06491 0.62635 0.66092 0.0
Co1050 Co 0.11211 0.29507 0.41933 0.0
O1051 O 0.12776 0.2801 0.43712 0.0
O1052 O 0.09546 0.28026 0.43689 0.0
C1053 C 0.12879 0.32321 0.42209 0.0
O1054 O 0.09134 0.30932 0.40319 0.0
Co1055 Co 0.131 0.31134 0.38118 0.0
O1056 O 0.10687 0.32735 0.3804 0.0
C1057 C 0.1182 0.27014 0.38262 0.0
C1058 C 0.11158 0.27365 0.44453 0.0
C1059 C 0.09142 0.32244 0.38957 0.0
O1060 O 0.11185 0.27271 0.40016 0.0
O1061 O 0.1271 0.28342 0.37283 0.0
O1062 O 0.11572 0.31865 0.43511 0.0
O1063 O 0.13273 0.30979 0.40938 0.0
Co1064 Co 0.45528 0.64292 0.33571 0.0
O1065 O 0.47063 0.62538 0.31993 0.0
O1066 O 0.46873 0.65749 0.3156 0.0
C1067 C 0.42769 0.62532 0.33635 0.0
O1068 O 0.44033 0.66547 0.34821 0.0
Co1069 Co 0.44138 0.63067 0.37697 0.0
O1070 O 0.42445 0.65411 0.37468 0.0
C1071 C 0.48197 0.64317 0.37196 0.0
C1072 C 0.47591 0.64075 0.31005 0.0
C1073 C 0.42782 0.66752 0.36214 0.0
O1074 O 0.47802 0.64698 0.35394 0.0
O1075 O 0.46956 0.63558 0.38374 0.0
O1076 O 0.43188 0.63615 0.32126 0.0
O1077 O 0.44135 0.62353 0.34934 0.0
Co1078 Co 0.10656 0.70065 0.07738 0.0
O1079 O 0.12331 0.71678 0.0616 0.0
O1080 O 0.09105 0.71676 0.06002 0.0
C1081 C 0.12326 0.67274 0.07339 0.0
O1082 O 0.08479 0.68545 0.09117 0.0
Co1083 Co 0.12329 0.68067 0.1149 0.0
O1084 O 0.09825 0.66608 0.11415 0.0
C1085 C 0.11148 0.72221 0.11627 0.0
C1086 C 0.1076 0.72365 0.05361 0.0
C1087 C 0.08355 0.67189 0.10429 0.0
O1088 O 0.10547 0.72135 0.09841 0.0
O1089 O 0.12015 0.70804 0.12492 0.0
O1090 O 0.11087 0.67819 0.06005 0.0
O1091 O 0.12646 0.68514 0.08723 0.0
Co1092 Co 0.04256 0.35714 0.83732 0.0
O1093 O 0.02704 0.37435 0.82132 0.0
O1094 O 0.03286 0.34304 0.81496 0.0
C1095 C 0.06758 0.37771 0.84204 0.0
O1096 O 0.05846 0.33504 0.84935 0.0
Co1097 Co 0.05244 0.36662 0.88048 0.0
O1098 O 0.07116 0.34458 0.87811 0.0
C1099 C 0.01313 0.35233 0.87062 0.0
C1100 C 0.02456 0.35937 0.80984 0.0
C1101 C 0.06983 0.33232 0.86409 0.0
O1102 O 0.01873 0.34957 0.85284 0.0
O1103 O 0.02404 0.36004 0.88375 0.0
O1104 O 0.06635 0.36758 0.82596 0.0
O1105 O 0.05283 0.37653 0.85379 0.0
Co1106 Co 0.38274 0.28918 0.58481 0.0
O1107 O 0.36313 0.27603 0.56955 0.0
O1108 O 0.3946 0.27638 0.56242 0.0
C1109 C 0.36617 0.31727 0.58871 0.0
O1110 O 0.40701 0.30167 0.59715 0.0
Co1111 Co 0.37339 0.30159 0.62765 0.0
O1112 O 0.39795 0.31674 0.62502 0.0
C1113 C 0.38416 0.26058 0.61918 0.0
C1114 C 0.37706 0.27051 0.55798 0.0
C1115 C 0.41069 0.31284 0.61198 0.0
O1116 O 0.38683 0.26494 0.60105 0.0
O1117 O 0.37774 0.27282 0.63187 0.0
O1118 O 0.3761 0.31426 0.57277 0.0
O1119 O 0.36511 0.30267 0.60065 0.0
Co1120 Co 0.17237 0.45182 0.36641 0.0
O1121 O 0.19082 0.46567 0.38238 0.0
O1122 O 0.1917 0.4642 0.34994 0.0
C1123 C 0.17139 0.42404 0.38376 0.0
O1124 O 0.15626 0.43835 0.34518 0.0
Co1125 Co 0.13179 0.44098 0.38324 0.0
O1126 O 0.12936 0.42537 0.3589 0.0
C1127 C 0.13884 0.48123 0.37031 0.0
C1128 C 0.1992 0.47088 0.36613 0.0
C1129 C 0.14068 0.42781 0.34429 0.0
O1130 O 0.15591 0.476 0.36467 0.0
O1131 O 0.12683 0.46969 0.37882 0.0
O1132 O 0.1855 0.4272 0.37142 0.0
O1133 O 0.15984 0.43869 0.38697 0.0
Co1134 Co 0.29423 0.41974 0.11104 0.0
O1135 O 0.28345 0.43566 0.13144 0.0
O1136 O 0.28154 0.44216 0.09963 0.0
C1137 C 0.32345 0.4149 0.12448 0.0
O1138 O 0.30453 0.40695 0.08611 0.0
Co1139 Co 0.30395 0.37647 0.12003 0.0
O1140 O 0.318 0.37818 0.09472 0.0
C1141 C 0.26331 0.38714 0.11257 0.0
C1142 C 0.2773 0.44708 0.11758 0.0
C1143 C 0.31476 0.39162 0.08218 0.0
O1144 O 0.26906 0.40472 0.10923 0.0
O1145 O 0.27484 0.37343 0.11796 0.0
O1146 O 0.31979 0.43102 0.11509 0.0
O1147 O 0.30867 0.4035 0.12768 0.0
Co1148 Co 0.32963 0.54333 0.87055 0.0
O1149 O 0.3093 0.53117 0.88557 0.0
O1150 O 0.30894 0.53523 0.85331 0.0
C1151 C 0.33436 0.56925 0.89002 0.0
O1152 O 0.34722 0.55586 0.85006 0.0
Co1153 Co 0.37145 0.54755 0.88688 0.0
O1154 O 0.37611 0.56391 0.86333 0.0
C1155 C 0.35846 0.50927 0.87243 0.0
C1156 C 0.30037 0.52862 0.86897 0.0
C1157 C 0.3641 0.56406 0.84909 0.0
O1158 O 0.34245 0.51724 0.86693 0.0
O1159 O 0.37192 0.51855 0.88153 0.0
O1160 O 0.32007 0.56898 0.87749 0.0
O1161 O 0.34401 0.55305 0.89191 0.0
Co1162 Co 0.20073 0.57325 0.60691 0.0
O1163 O 0.21356 0.55518 0.62422 0.0
O1164 O 0.21062 0.55147 0.59206 0.0
C1165 C 0.17389 0.57838 0.62483 0.0
O1166 O 0.18787 0.58805 0.5845 0.0
Co1167 Co 0.19372 0.61623 0.61917 0.0
O1168 O 0.17704 0.61711 0.59543 0.0
C1169 C 0.23306 0.60433 0.60733 0.0
C1170 C 0.21731 0.5449 0.60864 0.0
C1171 C 0.17814 0.60399 0.58219 0.0
O1172 O 0.22614 0.58743 0.60284 0.0
O1173 O 0.22275 0.6179 0.61508 0.0
O1174 O 0.17536 0.56284 0.61393 0.0
O1175 O 0.1895 0.58896 0.6264 0.0
Co1176 Co 0.16712 0.54429 0.13123 0.0
O1177 O 0.18287 0.53289 0.11109 0.0
O1178 O 0.18975 0.5322 0.14285 0.0
C1179 C 0.16225 0.57284 0.11614 0.0
O1180 O 0.15462 0.55539 0.15605 0.0
Co1181 Co 0.12403 0.55363 0.12297 0.0
O1182 O 0.12557 0.56824 0.14797 0.0
C1183 C 0.13503 0.51305 0.13103 0.0
C1184 C 0.19453 0.52744 0.12501 0.0
C1185 C 0.13926 0.56541 0.16026 0.0
O1186 O 0.1525 0.51904 0.134 0.0
O1187 O 0.12113 0.52439 0.12577 0.0
O1188 O 0.17813 0.56969 0.126 0.0
O1189 O 0.15066 0.55797 0.11398 0.0
Co1190 Co 0.1998 0.42298 0.88498 0.0
O1191 O 0.21267 0.44155 0.86815 0.0
O1192 O 0.20849 0.44493 0.90022 0.0
C1193 C 0.17382 0.41703 0.8661 0.0
O1194 O 0.18681 0.40793 0.90708 0.0
Co1195 Co 0.1936 0.37976 0.87296 0.0
O1196 O 0.17723 0.37816 0.89694 0.0
C1197 C 0.23267 0.39283 0.88491 0.0
C1198 C 0.21555 0.45182 0.88395 0.0
C1199 C 0.17778 0.39165 0.90983 0.0
O1200 O 0.22543 0.40949 0.88972 0.0
O1201 O 0.22267 0.37921 0.87683 0.0
O1202 O 0.17434 0.43258 0.87711 0.0
O1203 O 0.18972 0.4069 0.86521 0.0
Co1204 Co 0.33133 0.45434 0.62989 0.0
O1205 O 0.31169 0.46585 0.61348 0.0
O1206 O 0.30987 0.46318 0.64582 0.0
C1207 C 0.33696 0.42746 0.61203 0.0
O1208 O 0.34811 0.44264 0.65155 0.0
Co1209 Co 0.37371 0.44974 0.61507 0.0
O1210 O 0.3772 0.43388 0.63913 0.0
C1211 C 0.36057 0.48828 0.62858 0.0
C1212 C 0.30203 0.46913 0.62953 0.0
C1213 C 0.36487 0.43429 0.6531 0.0
O1214 O 0.3441 0.48059 0.6331 0.0
O1215 O 0.37442 0.47871 0.62043 0.0
O1216 O 0.32204 0.42832 0.62375 0.0
O1217 O 0.3465 0.44367 0.60959 0.0
Co1218 Co 0.29836 0.57993 0.38856 0.0
O1219 O 0.28313 0.56371 0.37116 0.0
O1220 O 0.28535 0.55987 0.40334 0.0
C1221 C 0.32606 0.58104 0.37113 0.0
O1222 O 0.31298 0.59254 0.41114 0.0
Co1223 Co 0.31252 0.6213 0.37662 0.0
O1224 O 0.32847 0.61965 0.40084 0.0
C1225 C 0.27173 0.61608 0.38881 0.0
C1226 C 0.27816 0.55395 0.38674 0.0
C1227 C 0.32497 0.60676 0.41388 0.0
O1228 O 0.27541 0.59799 0.39257 0.0
O1229 O 0.28431 0.62775 0.38132 0.0
O1230 O 0.32203 0.56582 0.38182 0.0
O1231 O 0.3122 0.59377 0.3693 0.0
Co1232 Co 0.3721 0.16278 0.45461 0.0
O1233 O 0.38933 0.17904 0.46941 0.0
O1234 O 0.35772 0.18456 0.46622 0.0
C1235 C 0.39163 0.16001 0.4284 0.0
O1236 O 0.35045 0.14849 0.43943 0.0
Co1237 Co 0.38719 0.12072 0.44506 0.0
O1238 O 0.36447 0.12132 0.42701 0.0
C1239 C 0.37201 0.12929 0.48427 0.0
C1240 C 0.37448 0.18994 0.47351 0.0
C1241 C 0.3501 0.13315 0.42831 0.0
O1242 O 0.36654 0.14629 0.47835 0.0
O1243 O 0.38217 0.1175 0.47387 0.0
O1244 O 0.38046 0.17527 0.43025 0.0
O1245 O 0.39215 0.14842 0.44327 0.0
Co1246 Co 0.86459 0.33092 0.54521 0.0
O1247 O 0.88417 0.31638 0.53148 0.0
O1248 O 0.85241 0.31116 0.52883 0.0
C1249 C 0.8794 0.33012 0.57452 0.0
O1250 O 0.84036 0.34316 0.55777 0.0
Co1251 Co 0.87578 0.37114 0.56353 0.0
O1252 O 0.8503 0.36806 0.57693 0.0
C1253 C 0.86654 0.36871 0.52136 0.0
C1254 C 0.87009 0.3065 0.52358 0.0
C1255 C 0.837 0.35662 0.57063 0.0
O1256 O 0.86299 0.3503 0.5231 0.0
O1257 O 0.87271 0.37941 0.53547 0.0
O1258 O 0.86883 0.31537 0.56888 0.0
O1259 O 0.88213 0.34369 0.56166 0.0
Co1260 Co 0.42622 0.11049 0.29495 0.0
O1261 O 0.44355 0.12697 0.28029 0.0
O1262 O 0.44796 0.09524 0.28577 0.0
C1263 C 0.42146 0.13068 0.32025 0.0
O1264 O 0.41218 0.08898 0.31003 0.0
Co1265 Co 0.38338 0.12258 0.30237 0.0
O1266 O 0.38339 0.10022 0.32096 0.0
C1267 C 0.39465 0.10823 0.26342 0.0
C1268 C 0.45402 0.11135 0.27761 0.0
C1269 C 0.39664 0.08715 0.32045 0.0
O1270 O 0.41161 0.10413 0.27026 0.0
O1271 O 0.38139 0.11671 0.27353 0.0
O1272 O 0.43704 0.11986 0.31944 0.0
O1273 O 0.4105 0.13058 0.30483 0.0
Co1274 Co 0.62797 0.66955 0.04484 0.0
O1275 O 0.60989 0.68565 0.03058 0.0
O1276 O 0.64202 0.68841 0.02902 0.0
C1277 C 0.6126 0.67101 0.07385 0.0
O1278 O 0.65106 0.65565 0.0579 0.0
Co1279 Co 0.61382 0.63001 0.06259 0.0
O1280 O 0.63951 0.63065 0.07597 0.0
C1281 C 0.62376 0.6322 0.02059 0.0
C1282 C 0.62495 0.69443 0.02319 0.0
C1283 C 0.65351 0.64157 0.07028 0.0
O1284 O 0.6288 0.65022 0.02263 0.0
O1285 O 0.61639 0.62193 0.03444 0.0
O1286 O 0.62418 0.68513 0.06855 0.0
O1287 O 0.60922 0.65783 0.06075 0.0
Co1288 Co 0.57837 0.37926 0.2961 0.0
O1289 O 0.56253 0.35925 0.2846 0.0
O1290 O 0.55625 0.39111 0.28335 0.0
C1291 C 0.58271 0.36506 0.32511 0.0
O1292 O 0.59116 0.40389 0.30722 0.0
Co1293 Co 0.62129 0.37001 0.30611 0.0
O1294 O 0.61944 0.39474 0.32115 0.0
C1295 C 0.61109 0.37821 0.26535 0.0
C1296 C 0.55129 0.3733 0.27865 0.0
C1297 C 0.60621 0.40745 0.31798 0.0
O1298 O 0.59358 0.3815 0.27108 0.0
O1299 O 0.62471 0.3727 0.27692 0.0
O1300 O 0.56678 0.37465 0.32141 0.0
O1301 O 0.59431 0.36217 0.31038 0.0
Co1302 Co 0.13061 0.83009 0.95144 0.0
O1303 O 0.11506 0.81214 0.9662 0.0
O1304 O 0.14733 0.81217 0.96591 0.0
C1305 C 0.11364 0.8277 0.92345 0.0
O1306 O 0.15103 0.84682 0.93702 0.0
Co1307 Co 0.11019 0.86821 0.93696 0.0
O1308 O 0.13432 0.87037 0.92113 0.0
C1309 C 0.12389 0.86582 0.9777 0.0
C1310 C 0.13116 0.80456 0.97253 0.0
C1311 C 0.15018 0.86133 0.92487 0.0
O1312 O 0.13101 0.84877 0.97422 0.0
O1313 O 0.11409 0.87564 0.96513 0.0
O1314 O 0.12686 0.81471 0.92759 0.0
O1315 O 0.10969 0.83999 0.93723 0.0
Co1316 Co 0.41746 0.88349 0.20518 0.0
O1317 O 0.43295 0.86649 0.2213 0.0
O1318 O 0.43772 0.89844 0.21776 0.0
C1319 C 0.41638 0.86463 0.1784 0.0
O1320 O 0.40524 0.90547 0.18928 0.0
Co1321 Co 0.3761 0.87102 0.19176 0.0
O1322 O 0.37781 0.89457 0.17485 0.0
C1323 C 0.3814 0.88608 0.2317 0.0
C1324 C 0.44309 0.88196 0.22565 0.0
C1325 C 0.39076 0.90771 0.1775 0.0
O1326 O 0.39948 0.8891 0.22774 0.0
O1327 O 0.36959 0.87794 0.21967 0.0
O1328 O 0.43165 0.87529 0.18208 0.0
O1329 O 0.40349 0.86373 0.19225 0.0
Co1330 Co 0.09254 0.1135 0.70621 0.0
O1331 O 0.07475 0.12918 0.72127 0.0
O1332 O 0.07194 0.09718 0.71658 0.0
C1333 C 0.09501 0.13344 0.6803 0.0
O1334 O 0.10757 0.09269 0.69099 0.0
Co1335 Co 0.13418 0.12882 0.69735 0.0
O1336 O 0.13545 0.10585 0.67964 0.0
C1337 C 0.12592 0.11218 0.7361 0.0
C1338 C 0.06513 0.11312 0.72448 0.0
C1339 C 0.12328 0.09178 0.68065 0.0
O1340 O 0.10856 0.10823 0.73023 0.0
O1341 O 0.13839 0.12132 0.72555 0.0
O1342 O 0.08019 0.12169 0.68203 0.0
O1343 O 0.10648 0.13446 0.69532 0.0
H1344 H 0.07907 0.19225 0.35386 0.0
H1345 H 0.07817 0.22481 0.29964 0.0
H1346 H 0.09783 0.2506 0.31456 0.0
H1347 H 0.11218 0.26543 0.34379 0.0
H1348 H 0.11062 0.23435 0.39881 0.0
H1349 H 0.09534 0.20626 0.3827 0.0
C1350 C 0.0834 0.20487 0.34523 0.0
C1351 C 0.07701 0.2067 0.32573 0.0
C1352 C 0.09424 0.2199 0.35406 0.0
C1353 C 0.08269 0.22317 0.31476 0.0
C1354 C 0.09397 0.2379 0.32326 0.0
C1355 C 0.10893 0.25233 0.35217 0.0
C1356 C 0.11252 0.25194 0.37244 0.0
C1357 C 0.09941 0.23664 0.34301 0.0
C1358 C 0.10795 0.23498 0.38317 0.0
C1359 C 0.09914 0.21898 0.374 0.0
H1360 H 0.01682 0.85745 0.64413 0.0
H1361 H 0.99739 0.8612 0.58413 0.0
H1362 H 0.02908 0.84912 0.57283 0.0
H1363 H 0.06183 0.83559 0.58028 0.0
H1364 H 0.08079 0.83296 0.64058 0.0
H1365 H 0.0498 0.84637 0.65137 0.0
C1366 C 0.01954 0.85579 0.62855 0.0
C1367 C 0.0047 0.8601 0.61503 0.0
C1368 C 0.0377 0.84883 0.62219 0.0
C1369 C 0.00858 0.85807 0.59488 0.0
C1370 C 0.02666 0.85101 0.58841 0.0
C1371 C 0.05915 0.83799 0.59576 0.0
C1372 C 0.07361 0.83312 0.60957 0.0
C1373 C 0.04123 0.846 0.60196 0.0
C1374 C 0.06999 0.83657 0.62958 0.0
C1375 C 0.05223 0.84423 0.63582 0.0
H1376 H 0.39734 0.73061 0.84715 0.0
H1377 H 0.37983 0.76617 0.89638 0.0
H1378 H 0.39851 0.79377 0.88333 0.0
H1379 H 0.42195 0.8066 0.85968 0.0
H1380 H 0.4413 0.77024 0.81162 0.0
H1381 H 0.41972 0.74401 0.8226 0.0
C1382 C 0.39725 0.74454 0.85479 0.0
C1383 C 0.38718 0.74643 0.87264 0.0
C1384 C 0.40861 0.76002 0.84764 0.0
C1385 C 0.38748 0.76443 0.88259 0.0
C1386 C 0.39822 0.78013 0.8752 0.0
C1387 C 0.42146 0.79298 0.85152 0.0
C1388 C 0.43343 0.79035 0.83496 0.0
C1389 C 0.40926 0.77789 0.85804 0.0
C1390 C 0.43241 0.77262 0.82453 0.0
C1391 C 0.42003 0.75763 0.83075 0.0
H1392 H 0.49007 0.13396 0.09703 0.0
H1393 H 0.47975 0.12954 0.15925 0.0
H1394 H 0.4467 0.14202 0.1549 0.0
H1395 H 0.42194 0.15699 0.13397 0.0
H1396 H 0.43284 0.16353 0.072 0.0
H1397 H 0.46437 0.14734 0.0757 0.0
C1398 C 0.48044 0.13539 0.10956 0.0
C1399 C 0.48733 0.13089 0.12842 0.0
C1400 C 0.46163 0.14317 0.10704 0.0
C1401 C 0.47479 0.13303 0.14459 0.0
C1402 C 0.45591 0.14019 0.14212 0.0
C1403 C 0.43108 0.15468 0.12121 0.0
C1404 C 0.42507 0.16162 0.10277 0.0
C1405 C 0.44936 0.14577 0.12349 0.0
C1406 C 0.43717 0.15851 0.08641 0.0
C1407 C 0.45521 0.14923 0.0885 0.0
H1408 H 0.07679 0.78008 0.17855 0.0
H1409 H 0.06421 0.81348 0.12642 0.0
H1410 H 0.08175 0.78953 0.10646 0.0
H1411 H 0.09818 0.75766 0.10362 0.0
H1412 H 0.11159 0.72499 0.15613 0.0
H1413 H 0.09656 0.7503 0.17611 0.0
C1414 C 0.07799 0.78213 0.16283 0.0
C1415 C 0.06899 0.79827 0.1539 0.0
C1416 C 0.08828 0.76849 0.1515 0.0
C1417 C 0.07097 0.80106 0.13359 0.0
C1418 C 0.08096 0.78737 0.12217 0.0
C1419 C 0.09809 0.75622 0.11945 0.0
C1420 C 0.10579 0.73931 0.12828 0.0
C1421 C 0.08934 0.77083 0.13094 0.0
C1422 C 0.10576 0.73781 0.14886 0.0
C1423 C 0.09703 0.75222 0.16035 0.0
H1424 H 0.42401 0.83081 0.36591 0.0
H1425 H 0.43694 0.82306 0.42733 0.0
H1426 H 0.47057 0.83372 0.42163 0.0
H1427 H 0.4966 0.84416 0.39882 0.0
H1428 H 0.48335 0.85006 0.33724 0.0
H1429 H 0.4495 0.84128 0.34346 0.0
C1430 C 0.43409 0.83158 0.37814 0.0
C1431 C 0.42793 0.82617 0.39703 0.0
C1432 C 0.45339 0.83734 0.37471 0.0
C1433 C 0.44131 0.82709 0.41262 0.0
C1434 C 0.46053 0.8332 0.40938 0.0
C1435 C 0.48624 0.84366 0.38682 0.0
C1436 C 0.49249 0.84772 0.36761 0.0
C1437 C 0.46679 0.8382 0.39043 0.0
C1438 C 0.47896 0.84684 0.35216 0.0
C1439 C 0.45958 0.84186 0.35569 0.0
H1440 H 0.39342 0.25059 0.65645 0.0
H1441 H 0.39159 0.22765 0.59752 0.0
H1442 H 0.40898 0.19832 0.60825 0.0
H1443 H 0.42789 0.18108 0.63353 0.0
H1444 H 0.43149 0.20549 0.6918 0.0
H1445 H 0.41016 0.23232 0.68212 0.0
C1446 C 0.39644 0.23901 0.646 0.0
C1447 C 0.39129 0.24138 0.62619 0.0
C1448 C 0.40704 0.22257 0.65209 0.0
C1449 C 0.39548 0.22625 0.61284 0.0
C1450 C 0.4055 0.20951 0.61895 0.0
C1451 C 0.42382 0.19214 0.64418 0.0
C1452 C 0.43149 0.1914 0.66329 0.0
C1453 C 0.41188 0.20781 0.6384 0.0
C1454 C 0.42604 0.20584 0.67691 0.0
C1455 C 0.41379 0.22118 0.67141 0.0
H1456 H 0.0533 0.16635 0.90848 0.0
H1457 H 0.07608 0.17259 0.84983 0.0
H1458 H 0.04607 0.15913 0.8363 0.0
H1459 H 0.01337 0.14588 0.84094 0.0
H1460 H 0.99053 0.1385 0.89944 0.0
H1461 H 0.02063 0.15189 0.91318 0.0
C1462 C 0.05161 0.16484 0.89275 0.0
C1463 C 0.06684 0.17055 0.88019 0.0
C1464 C 0.03439 0.15677 0.88502 0.0
C1465 C 0.06459 0.16826 0.85984 0.0
C1466 C 0.04743 0.16057 0.85206 0.0
C1467 C 0.01495 0.14715 0.85671 0.0
C1468 C -0.00034 0.14127 0.86912 0.0
C1469 C 0.03226 0.15479 0.86451 0.0
C1470 C 0.00208 0.14285 0.88953 0.0
C1471 C 0.01926 0.1506 0.89741 0.0
H1472 H 0.39132 0.07802 0.17631 0.0
H1473 H 0.32989 0.07494 0.18986 0.0
H1474 H 0.33605 0.08903 0.22217 0.0
H1475 H 0.35912 0.10077 0.24718 0.0
H1476 H 0.42069 0.10213 0.23398 0.0
H1477 H 0.41419 0.09029 0.20091 0.0
C1478 C 0.37923 0.08057 0.18624 0.0
C1479 C 0.36018 0.07538 0.18066 0.0
C1480 C 0.38291 0.08833 0.20491 0.0
C1481 C 0.34473 0.07868 0.19381 0.0
C1482 C 0.34823 0.08677 0.21229 0.0
C1483 C 0.37108 0.09866 0.23699 0.0
C1484 C 0.39034 0.10229 0.24305 0.0
C1485 C 0.36729 0.09144 0.21809 0.0
C1486 C 0.40572 0.09931 0.22973 0.0
C1487 C 0.40203 0.09256 0.2108 0.0
H1488 H 0.14609 0.09138 0.50663 0.0
H1489 H 0.14152 0.14908 0.48127 0.0
H1490 H 0.15756 0.1375 0.45145 0.0
H1491 H 0.17547 0.11182 0.43393 0.0
H1492 H 0.18211 0.0548 0.46045 0.0
H1493 H 0.16262 0.06529 0.48845 0.0
C1494 C 0.14826 0.10133 0.49443 0.0
C1495 C 0.14262 0.12105 0.49613 0.0
C1496 C 0.15809 0.09476 0.47764 0.0
C1497 C 0.14579 0.13384 0.48032 0.0
C1498 C 0.155 0.12725 0.4633 0.0
C1499 C 0.17248 0.10161 0.44573 0.0
C1500 C 0.18037 0.0826 0.44515 0.0
C1501 C 0.16165 0.10787 0.46201 0.0
C1502 C 0.17639 0.06959 0.46061 0.0
C1503 C 0.16521 0.07555 0.47662 0.0
H1504 H 0.11047 0.90985 0.68045 0.0
H1505 H 0.16828 0.92475 0.70064 0.0
H1506 H 0.16103 0.91039 0.73264 0.0
H1507 H 0.13742 0.89552 0.75557 0.0
H1508 H 0.07908 0.88284 0.73553 0.0
H1509 H 0.08748 0.89418 0.70271 0.0
C1510 C 0.12159 0.90983 0.69176 0.0
C1511 C 0.13986 0.91846 0.68815 0.0
C1512 C 0.11721 0.90192 0.71018 0.0
C1513 C 0.15403 0.91834 0.70305 0.0
C1514 C 0.14991 0.9101 0.72135 0.0
C1515 C 0.1267 0.89497 0.7439 0.0
C1516 C 0.10769 0.88837 0.7479 0.0
C1517 C 0.13145 0.9021 0.72518 0.0
C1518 C 0.0938 0.88795 0.73277 0.0
C1519 C 0.09857 0.89445 0.71403 0.0
H1520 H 0.32296 0.93264 0.96284 0.0
H1521 H 0.32169 0.87853 0.93011 0.0
H1522 H 0.34086 0.86243 0.95541 0.0
H1523 H 0.3552 0.8628 0.98817 0.0
H1524 H 0.35701 0.91685 0.02095 0.0
H1525 H 0.34093 0.93394 0.99407 0.0
C1526 C 0.32697 0.91736 0.96123 0.0
C1527 C 0.32061 0.90673 0.9448 0.0
C1528 C 0.33819 0.90817 0.97578 0.0
C1529 C 0.32627 0.88704 0.94269 0.0
C1530 C 0.33725 0.87779 0.95715 0.0
C1531 C 0.35239 0.87839 0.98931 0.0
C1532 C 0.35705 0.88843 0.00665 0.0
C1533 C 0.34291 0.88809 0.97394 0.0
C1534 C 0.35357 0.90871 0.00778 0.0
C1535 C 0.34419 0.91849 0.99248 0.0
H1536 H 0.33789 0.92196 0.30529 0.0
H1537 H 0.39755 0.9293 0.32413 0.0
H1538 H 0.40916 0.9141 0.29407 0.0
H1539 H 0.40263 0.89884 0.26261 0.0
H1540 H 0.34324 0.89051 0.24331 0.0
H1541 H 0.3313 0.90566 0.27351 0.0
C1542 C 0.35341 0.92034 0.30269 0.0
C1543 C 0.36683 0.92682 0.31688 0.0
C1544 C 0.36005 0.91123 0.28543 0.0
C1545 C 0.38691 0.92438 0.31347 0.0
C1546 C 0.39358 0.91568 0.2963 0.0
C1547 C 0.38705 0.90024 0.26496 0.0
C1548 C 0.37389 0.89358 0.25064 0.0
C1549 C 0.38031 0.909 0.28223 0.0
C1550 C 0.35374 0.89542 0.25411 0.0
C1551 C 0.34688 0.90421 0.27132 0.0
H1552 H 0.34347 0.08264 0.55846 0.0
H1553 H 0.28959 0.11078 0.54244 0.0
H1554 H 0.30646 0.12956 0.51695 0.0
H1555 H 0.33592 0.136 0.49784 0.0
H1556 H 0.38915 0.10519 0.51121 0.0
H1557 H 0.37335 0.08953 0.5394 0.0
C1558 C 0.3356 0.09304 0.54942 0.0
C1559 C 0.31548 0.09553 0.5521 0.0
C1560 C 0.34528 0.10324 0.53446 0.0
C1561 C 0.30514 0.10879 0.54042 0.0
C1562 C 0.31476 0.11948 0.52593 0.0
C1563 C 0.34417 0.12616 0.50718 0.0
C1564 C 0.36368 0.12185 0.50268 0.0
C1565 C 0.33475 0.1166 0.52266 0.0
C1566 C 0.37411 0.10873 0.51454 0.0
C1567 C 0.36507 0.09975 0.53055 0.0
H1568 H 0.16249 0.07442 0.81238 0.0
H1569 H 0.10133 0.06922 0.82656 0.0
H1570 H 0.09261 0.08532 0.79602 0.0
H1571 H 0.10204 0.10044 0.76527 0.0
H1572 H 0.16294 0.1067 0.75055 0.0
H1573 H 0.17207 0.09097 0.78147 0.0
C1574 C 0.14729 0.07673 0.80866 0.0
C1575 C 0.13259 0.07054 0.82165 0.0
C1576 C 0.14231 0.08635 0.79112 0.0
C1577 C 0.11293 0.07388 0.81684 0.0
C1578 C 0.10791 0.0831 0.79938 0.0
C1579 C 0.11735 0.09846 0.7688 0.0
C1580 C 0.13177 0.10465 0.75556 0.0
C1581 C 0.12245 0.08938 0.78645 0.0
C1582 C 0.15153 0.10215 0.76052 0.0
C1583 C 0.15675 0.09302 0.77814 0.0
H1584 H 0.16491 0.89337 0.05506 0.0
H1585 H 0.16281 0.94851 0.02419 0.0
H1586 H 0.14268 0.93376 -0.0013 0.0
H1587 H 0.12868 0.9046 0.98352 0.0
H1588 H 0.13321 0.84873 0.01267 0.0
H1589 H 0.14903 0.86443 0.04071 0.0
C1590 C 0.15985 0.9022 0.04287 0.0
C1591 C 0.16552 0.92193 0.0414 0.0
C1592 C 0.1487 0.89349 0.02797 0.0
C1593 C 0.15888 0.9332 0.02551 0.0
C1594 C 0.14731 0.92481 0.01096 0.0
C1595 C 0.13269 0.89593 0.99621 0.0
C1596 C 0.12978 0.87557 0.99606 0.0
C1597 C 0.14253 0.90488 0.01181 0.0
C1598 C 0.13534 0.86445 0.01247 0.0
C1599 C 0.14447 0.8734 0.02844 0.0
H1600 H 0.24776 0.3524 0.10065 0.0
H1601 H 0.2325 0.41202 0.11491 0.0
H1602 H 0.19913 0.4063 0.10394 0.0
H1603 H 0.17512 0.38537 0.08783 0.0
H1604 H 0.19056 0.32618 0.07184 0.0
H1605 H 0.22295 0.33074 0.086 0.0
C1606 C 0.23702 0.364 0.10169 0.0
C1607 C 0.2426 0.38261 0.10856 0.0
C1608 C 0.21795 0.36079 0.09481 0.0
C1609 C 0.22859 0.39759 0.10959 0.0
C1610 C 0.20951 0.39436 0.10328 0.0
C1611 C 0.18547 0.37337 0.08755 0.0
C1612 C 0.18039 0.35551 0.07859 0.0
C1613 C 0.20416 0.37617 0.09543 0.0
C1614 C 0.19406 0.34015 0.07847 0.0
C1615 C 0.21262 0.34273 0.08659 0.0
H1616 H 0.68413 0.1108 0.90006 0.0
H1617 H 0.70159 0.16831 0.91965 0.0
H1618 H 0.73416 0.16315 0.906 0.0
H1619 H 0.75852 0.14104 0.891 0.0
H1620 H 0.74122 0.0827 0.87416 0.0
H1621 H 0.70764 0.08955 0.88391 0.0
C1622 C 0.69495 0.12233 0.90119 0.0
C1623 C 0.69043 0.13986 0.911 0.0
C1624 C 0.7137 0.1191 0.89375 0.0
C1625 C 0.70471 0.15459 0.91233 0.0
C1626 C 0.72334 0.15167 0.9045 0.0
C1627 C 0.74724 0.13005 0.8891 0.0
C1628 C 0.75217 0.11147 0.8818 0.0
C1629 C 0.72812 0.13382 0.89551 0.0
C1630 C 0.73764 0.09713 0.87973 0.0
C1631 C 0.7185 0.101 0.88537 0.0
H1632 H 0.13869 0.42467 0.15468 0.0
H1633 H 0.08381 0.4394 0.18201 0.0
H1634 H 0.08486 0.47183 0.16691 0.0
H1635 H 0.10303 0.49712 0.14847 0.0
H1636 H 0.15882 0.48252 0.12321 0.0
H1637 H 0.15558 0.44885 0.1347 0.0
C1638 C 0.12683 0.43486 0.15724 0.0
C1639 C 0.11132 0.42962 0.16968 0.0
C1640 C 0.12769 0.45356 0.14884 0.0
C1641 C 0.09605 0.44306 0.17266 0.0
C1642 C 0.09662 0.46163 0.16402 0.0
C1643 C 0.11421 0.48641 0.14513 0.0
C1644 C 0.13111 0.49221 0.13502 0.0
C1645 C 0.11258 0.4672 0.15241 0.0
C1646 C 0.14569 0.47833 0.13102 0.0
C1647 C 0.14389 0.45912 0.13764 0.0
H1648 H 0.75444 0.85039 0.39118 0.0
H1649 H 0.7655 0.91245 0.38614 0.0
H1650 H 0.79901 0.90754 0.39704 0.0
H1651 H 0.82466 0.88597 0.40956 0.0
H1652 H 0.81327 0.8241 0.41592 0.0
H1653 H 0.78046 0.82864 0.40284 0.0
C1654 C 0.76422 0.86282 0.39228 0.0
C1655 C 0.75741 0.88176 0.3879 0.0
C1656 C 0.78341 0.85997 0.39888 0.0
C1657 C 0.77028 0.89772 0.38955 0.0
C1658 C 0.78948 0.89494 0.39576 0.0
C1659 C 0.81509 0.87343 0.40794 0.0
C1660 C 0.82144 0.85473 0.41379 0.0
C1661 C 0.79612 0.87617 0.40071 0.0
C1662 C 0.80875 0.83868 0.41165 0.0
C1663 C 0.78997 0.84125 0.40416 0.0
H1664 H 0.86188 0.06931 0.15148 0.0
H1665 H 0.91814 0.05047 0.17278 0.0
H1666 H 0.91396 0.01896 0.15631 0.0
H1667 H 0.8934 0.99606 0.13758 0.0
H1668 H 0.83639 0.01455 0.11822 0.0
H1669 H 0.84195 0.04706 0.13201 0.0
C1670 C 0.87334 0.05841 0.15245 0.0
C1671 C 0.89025 0.06224 0.16346 0.0
C1672 C 0.87071 0.04027 0.14325 0.0
C1673 C 0.90489 0.04787 0.16454 0.0
C1674 C 0.90254 0.02986 0.15509 0.0
C1675 C 0.88236 0.00734 0.1361 0.0
C1676 C 0.86454 0.00298 0.12688 0.0
C1677 C 0.8854 0.02581 0.14461 0.0
C1678 C 0.85021 0.01759 0.12531 0.0
C1679 C 0.85335 0.03614 0.13323 0.0
H1680 H 0.25063 0.63947 0.59986 0.0
H1681 H 0.26211 0.57749 0.60443 0.0
H1682 H 0.29595 0.58285 0.5949 0.0
H1683 H 0.32179 0.60469 0.58375 0.0
H1684 H 0.31039 0.66654 0.57737 0.0
H1685 H 0.27705 0.66165 0.58914 0.0
C1686 C 0.26061 0.62719 0.59896 0.0
C1687 C 0.25384 0.60811 0.60283 0.0
C1688 C 0.28002 0.63031 0.59302 0.0
C1689 C 0.2669 0.59231 0.60141 0.0
C1690 C 0.28627 0.59535 0.59597 0.0
C1691 C 0.31212 0.61718 0.58506 0.0
C1692 C 0.31865 0.63596 0.57965 0.0
C1693 C 0.29291 0.61423 0.59149 0.0
C1694 C 0.30577 0.6519 0.58135 0.0
C1695 C 0.28668 0.64912 0.58809 0.0
H1696 H 0.13234 0.56807 0.34233 0.0
H1697 H 0.07602 0.54771 0.32262 0.0
H1698 H 0.0817 0.51614 0.3386 0.0
H1699 H 0.10393 0.49346 0.35599 0.0
H1700 H 0.16094 0.51378 0.37332 0.0
H1701 H 0.15358 0.54639 0.36073 0.0
C1702 C 0.12118 0.55683 0.34158 0.0
C1703 C 0.10384 0.56025 0.3311 0.0
C1704 C 0.12467 0.5387 0.35047 0.0
C1705 C 0.08958 0.54545 0.33043 0.0
C1706 C 0.09281 0.52739 0.33959 0.0
C1707 C 0.11451 0.5052 0.35735 0.0
C1708 C 0.13289 0.50137 0.36562 0.0
C1709 C 0.11044 0.52375 0.34939 0.0
C1710 C 0.14669 0.5165 0.36702 0.0
C1711 C 0.14252 0.53508 0.35975 0.0
H1712 H 0.39241 0.49219 0.86123 0.0
H1713 H 0.3312 0.48062 0.87009 0.0
H1714 H 0.33491 0.44807 0.85579 0.0
H1715 H 0.35477 0.42429 0.83793 0.0
H1716 H 0.4155 0.43671 0.82677 0.0
H1717 H 0.41279 0.46746 0.84481 0.0
C1718 C 0.38002 0.48235 0.86039 0.0
C1719 C 0.36159 0.48871 0.86669 0.0
C1720 C 0.3821 0.46393 0.85147 0.0
C1721 C 0.34553 0.476 0.86526 0.0
C1722 C 0.34762 0.45743 0.85704 0.0
C1723 C 0.36748 0.4336 0.83962 0.0
C1724 C 0.38525 0.42828 0.83086 0.0
C1725 C 0.36572 0.45145 0.84962 0.0
C1726 C 0.40157 0.44056 0.83317 0.0
C1727 C 0.40005 0.45814 0.84353 0.0
H1728 H 0.89937 0.7602 0.58564 0.0
H1729 H 0.8988 0.74135 0.646 0.0
H1730 H 0.91139 0.7732 0.65631 0.0
H1731 H 0.9238 0.80602 0.64798 0.0
H1732 H 0.92306 0.82504 0.58767 0.0
H1733 H 0.90979 0.7935 0.57756 0.0
C1734 C 0.90192 0.76308 0.60106 0.0
C1735 C 0.89828 0.74839 0.615 0.0
C1736 C 0.90904 0.78142 0.60689 0.0
C1737 C 0.90142 0.75244 0.63496 0.0
C1738 C 0.90873 0.77061 0.64087 0.0
C1739 C 0.92075 0.80321 0.63264 0.0
C1740 C 0.92457 0.81776 0.61859 0.0
C1741 C 0.91282 0.78512 0.62693 0.0
C1742 C 0.92024 0.81408 0.59878 0.0
C1743 C 0.91268 0.79604 0.59297 0.0
H1744 H 9e-05 0.1892 0.35634 0.0
H1745 H 0.98282 0.13596 0.32732 0.0
H1746 H 0.95168 0.13617 0.34499 0.0
H1747 H 0.92794 0.15395 0.36527 0.0
H1748 H 0.94514 0.2074 0.39425 0.0
H1749 H 0.9779 0.20445 0.38048 0.0
C1750 C 0.98966 0.17741 0.35436 0.0
C1751 C 0.99357 0.16254 0.34072 0.0
C1752 C 0.97178 0.17777 0.36445 0.0
C1753 C 0.98004 0.1474 0.33796 0.0
C1754 C 0.96224 0.14762 0.34795 0.0
C1755 C 0.93898 0.16474 0.3689 0.0
C1756 C 0.93401 0.18101 0.38056 0.0
C1757 C 0.95771 0.16307 0.36074 0.0
C1758 C 0.94854 0.19473 0.38533 0.0
C1759 C 0.96726 0.19315 0.37732 0.0
H1760 H 0.57298 0.1811 0.15086 0.0
H1761 H 0.57235 0.16373 0.09003 0.0
H1762 H 0.58657 0.19513 0.08069 0.0
H1763 H 0.5982 0.22787 0.08963 0.0
H1764 H 0.59961 0.24499 0.15054 0.0
H1765 H 0.58618 0.21326 0.15997 0.0
C1766 C 0.57594 0.18418 0.13556 0.0
C1767 C 0.57144 0.17014 0.12117 0.0
C1768 C 0.58428 0.2022 0.13028 0.0
C1769 C 0.57565 0.17427 0.10142 0.0
C1770 C 0.58375 0.19224 0.09605 0.0
C1771 C 0.59563 0.22466 0.10498 0.0
C1772 C 0.59979 0.23886 0.11932 0.0
C1773 C 0.58798 0.20637 0.11033 0.0
C1774 C 0.59657 0.23434 0.13917 0.0
C1775 C 0.58882 0.21622 0.14459 0.0
H1776 H 0.56748 0.81284 0.8961 0.0
H1777 H 0.59873 0.85021 0.85575 0.0
H1778 H 0.56825 0.86056 0.84103 0.0
H1779 H 0.53322 0.85533 0.83616 0.0
H1780 H 0.5012 0.81913 0.87652 0.0
H1781 H 0.53127 0.81225 0.89481 0.0
C1782 C 0.5676 0.82358 0.8844 0.0
C1783 C 0.58554 0.83027 0.87679 0.0
C1784 C 0.54983 0.8296 0.87584 0.0
C1785 C 0.58528 0.84439 0.86172 0.0
C1786 C 0.5678 0.85038 0.85321 0.0
C1787 C 0.53279 0.84644 0.84934 0.0
C1788 C 0.51515 0.83776 0.85507 0.0
C1789 C 0.55008 0.84252 0.85964 0.0
C1790 C 0.51465 0.82614 0.87203 0.0
C1791 C 0.53188 0.82205 0.88234 0.0
H1792 H 0.9093 0.16991 0.88249 0.0
H1793 H 0.92081 0.18451 0.82205 0.0
H1794 H 0.9055 0.21652 0.8267 0.0
H1795 H 0.89087 0.2412 0.8486 0.0
H1796 H 0.8818 0.22712 0.90956 0.0
H1797 H 0.89394 0.19398 0.90399 0.0
C1798 C 0.90827 0.17998 0.87024 0.0
C1799 C 0.91622 0.17483 0.85196 0.0
C1800 C 0.89992 0.19849 0.87314 0.0
C1801 C 0.91491 0.18816 0.83631 0.0
C1802 C 0.90615 0.20646 0.83895 0.0
C1803 C 0.89128 0.23075 0.86056 0.0
C1804 C 0.88542 0.23654 0.87944 0.0
C1805 C 0.89888 0.2119 0.85739 0.0
C1806 C 0.88629 0.22299 0.8949 0.0
C1807 C 0.89325 0.20406 0.89174 0.0
H1808 H 0.53705 0.13743 0.65827 0.0
H1809 H 0.50352 0.17731 0.623 0.0
H1810 H 0.53319 0.18754 0.60558 0.0
H1811 H 0.56941 0.18811 0.60374 0.0
H1812 H 0.60218 0.14715 0.63899 0.0
H1813 H 0.5722 0.13417 0.65269 0.0
C1814 C 0.53624 0.14795 0.64637 0.0
C1815 C 0.51828 0.1566 0.64181 0.0
C1816 C 0.5533 0.15374 0.63656 0.0
C1817 C 0.51726 0.17033 0.62654 0.0
C1818 C 0.53424 0.17628 0.61673 0.0
C1819 C 0.56996 0.17605 0.61406 0.0
C1820 C 0.58815 0.169 0.62061 0.0
C1821 C 0.55248 0.16854 0.62206 0.0
C1822 C 0.58849 0.15323 0.63393 0.0
C1823 C 0.57131 0.14573 0.64183 0.0
H1824 H 0.59028 0.81665 0.38996 0.0
H1825 H 0.5742 0.80061 0.33091 0.0
H1826 H 0.59095 0.76929 0.33466 0.0
H1827 H 0.60785 0.74535 0.35564 0.0
H1828 H 0.62193 0.76086 0.41527 0.0
H1829 H 0.60858 0.79361 0.41022 0.0
C1830 C 0.59054 0.80641 0.37782 0.0
C1831 C 0.5808 0.81096 0.36025 0.0
C1832 C 0.59991 0.7883 0.38016 0.0
C1833 C 0.58138 0.79745 0.34469 0.0
C1834 C 0.591 0.77953 0.34679 0.0
C1835 C 0.60837 0.75607 0.36737 0.0
C1836 C 0.61589 0.75075 0.38577 0.0
C1837 C 0.60003 0.77466 0.36458 0.0
C1838 C 0.61619 0.76464 0.40097 0.0
C1839 C 0.60849 0.78332 0.39812 0.0
H1840 H 0.9162 0.83846 0.13944 0.0
H1841 H 0.94219 0.8088 0.09003 0.0
H1842 H 0.97469 0.81734 0.10206 0.0
H1843 H 0.9957 0.82909 0.12918 0.0
H1844 H 0.96914 0.85587 0.1797 0.0
H1845 H 0.93692 0.85287 0.1646 0.0
C1846 C 0.92891 0.83409 0.13106 0.0
C1847 C 0.92665 0.82272 0.11397 0.0
C1848 C 0.94752 0.8385 0.13837 0.0
C1849 C 0.9434 0.81741 0.1033 0.0
C1850 C 0.96204 0.82223 0.11022 0.0
C1851 C 0.98286 0.83478 0.13651 0.0
C1852 C 0.98464 0.84288 0.15536 0.0
C1853 C 0.96429 0.83219 0.12808 0.0
C1854 C 0.96799 0.84978 0.16508 0.0
C1855 C 0.9496 0.84793 0.15651 0.0
H1856 H 0.60863 0.90924 0.82152 0.0
H1857 H 0.6674 0.9252 0.80528 0.0
H1858 H 0.66249 0.91091 0.77281 0.0
H1859 H 0.64055 0.89632 0.74812 0.0
H1860 H 0.58124 0.88246 0.76415 0.0
H1861 H 0.58742 0.89328 0.79765 0.0
C1862 C 0.62049 0.90944 0.811 0.0
C1863 C 0.63833 0.91843 0.81587 0.0
C1864 C 0.61744 0.90159 0.79224 0.0
C1865 C 0.65346 0.91851 0.80194 0.0
C1866 C 0.65067 0.91034 0.78334 0.0
C1867 C 0.62911 0.89535 0.75905 0.0
C1868 C 0.61046 0.88862 0.75365 0.0
C1869 C 0.63259 0.90218 0.7782 0.0
C1870 C 0.59569 0.88768 0.76791 0.0
C1871 C 0.5992 0.8939 0.78707 0.0
H1872 H 0.85451 0.88845 0.49329 0.0
H1873 H 0.86424 0.8277 0.50774 0.0
H1874 H 0.85292 0.83355 0.54114 0.0
H1875 H 0.83848 0.85532 0.56552 0.0
H1876 H 0.82663 0.91561 0.5507 0.0
H1877 H 0.8406 0.91055 0.51813 0.0
C1878 C 0.85438 0.87657 0.50385 0.0
C1879 C 0.86021 0.85769 0.4981 0.0
C1880 C 0.84734 0.87991 0.52287 0.0
C1881 C 0.85973 0.84236 0.51182 0.0
C1882 C 0.85326 0.84568 0.5309 0.0
C1883 C 0.83911 0.86743 0.55526 0.0
C1884 C 0.83149 0.88581 0.56053 0.0
C1885 C 0.84675 0.86431 0.53648 0.0
C1886 C 0.83228 0.90128 0.54697 0.0
C1887 C 0.8403 0.89841 0.52836 0.0
H1888 H 0.83624 0.07655 0.30391 0.0
H1889 H 0.89548 0.07044 0.3245 0.0
H1890 H 0.90783 0.08262 0.29348 0.0
H1891 H 0.9022 0.09479 0.2605 0.0
H1892 H 0.84334 0.10195 0.23929 0.0
H1893 H 0.83056 0.08985 0.27051 0.0
C1894 C 0.85183 0.07782 0.30152 0.0
C1895 C 0.86487 0.07255 0.31654 0.0
C1896 C 0.85896 0.08516 0.28356 0.0
C1897 C 0.88506 0.07447 0.31328 0.0
C1898 C 0.89219 0.08143 0.2955 0.0
C1899 C 0.88655 0.09378 0.26265 0.0
C1900 C 0.8738 0.09924 0.24749 0.0
C1901 C 0.87931 0.08684 0.28057 0.0
C1902 C 0.85355 0.09794 0.25071 0.0
C1903 C 0.84621 0.09091 0.26854 0.0
H1904 H 0.64742 0.15318 0.00731 0.0
H1905 H 0.65449 0.09453 0.98501 0.0
H1906 H 0.66604 0.08356 0.01719 0.0
H1907 H 0.6759 0.09129 0.05133 0.0
H1908 H 0.66758 0.15018 0.07297 0.0
H1909 H 0.65479 0.16028 0.04145 0.0
C1910 C 0.65138 0.13795 0.00949 0.0
C1911 C 0.65028 0.12475 0.99376 0.0
C1912 C 0.65791 0.13178 0.02793 0.0
C1913 C 0.65518 0.105 0.99691 0.0
C1914 C 0.66189 0.09875 0.01528 0.0
C1915 C 0.67121 0.10629 0.04915 0.0
C1916 C 0.6729 0.11993 0.06455 0.0
C1917 C 0.66362 0.1121 0.03085 0.0
C1918 C 0.66652 0.13929 0.06148 0.0
C1919 C 0.6592 0.14516 0.04339 0.0
H1920 H 0.66288 0.07932 0.68351 0.0
H1921 H 0.6031 0.08109 0.66361 0.0
H1922 H 0.59344 0.09804 0.69335 0.0
H1923 H 0.60134 0.11072 0.72576 0.0
H1924 H 0.66091 0.11 0.74606 0.0
H1925 H 0.67128 0.0947 0.71533 0.0
C1926 C 0.64777 0.08345 0.68571 0.0
C1927 C 0.63374 0.07873 0.6714 0.0
C1928 C 0.64224 0.0935 0.70288 0.0
C1929 C 0.61424 0.08447 0.67435 0.0
C1930 C 0.60865 0.09419 0.69138 0.0
C1931 C 0.61664 0.10743 0.7234 0.0
C1932 C 0.63029 0.11136 0.73825 0.0
C1933 C 0.62246 0.09856 0.70583 0.0
C1934 C 0.6501 0.1072 0.73484 0.0
C1935 C 0.65601 0.09829 0.71734 0.0
H1936 H 0.65981 0.85983 0.42169 0.0
H1937 H 0.67953 0.91825 0.43562 0.0
H1938 H 0.66444 0.91572 0.46803 0.0
H1939 H 0.64772 0.89581 0.49336 0.0
H1940 H 0.63001 0.83681 0.47934 0.0
H1941 H 0.64201 0.84081 0.44594 0.0
C1942 C 0.66076 0.87213 0.43169 0.0
C1943 C 0.671 0.88915 0.42618 0.0
C1944 C 0.65235 0.87046 0.45035 0.0
C1945 C 0.67189 0.90491 0.43945 0.0
C1946 C 0.66324 0.90347 0.45801 0.0
C1947 C 0.64616 0.88401 0.48284 0.0
C1948 C 0.63795 0.86605 0.48878 0.0
C1949 C 0.65369 0.88619 0.46374 0.0
C1950 C 0.6363 0.85075 0.47512 0.0
C1951 C 0.64321 0.853 0.45604 0.0
H1952 H 0.88664 0.91725 0.16496 0.0
H1953 H 0.82481 0.92517 0.17377 0.0
H1954 H 0.8281 0.91408 0.20774 0.0
H1955 H 0.84898 0.90336 0.23541 0.0
H1956 H 0.911 0.89734 0.22619 0.0
H1957 H 0.90712 0.90641 0.19194 0.0
C1958 C 0.87379 0.91642 0.17419 0.0
C1959 C 0.85548 0.92203 0.16673 0.0
C1960 C 0.87585 0.91045 0.19374 0.0
C1961 C 0.83909 0.92098 0.17909 0.0
C1962 C 0.84097 0.91465 0.19854 0.0
C1963 C 0.8616 0.90392 0.22585 0.0
C1964 C 0.88026 0.89973 0.23342 0.0
C1965 C 0.85933 0.90953 0.2061 0.0
C1966 C 0.89649 0.90065 0.22085 0.0
C1967 C 0.8943 0.9058 0.20121 0.0
H1968 H 0.85799 0.14939 0.98202 0.0
H1969 H 0.86461 0.09 0.00253 0.0
H1970 H 0.85167 0.07764 0.97148 0.0
H1971 H 0.83712 0.08387 0.93881 0.0
H1972 H 0.83186 0.14349 0.91848 0.0
H1973 H 0.84545 0.15551 0.94914 0.0
C1974 C 0.85673 0.13372 0.97969 0.0
C1975 C 0.86218 0.12067 0.99464 0.0
C1976 C 0.84933 0.12673 0.96185 0.0
C1977 C 0.86062 0.1004 0.99124 0.0
C1978 C 0.85309 0.09331 0.97353 0.0
C1979 C 0.83893 0.09947 0.94116 0.0
C1980 C 0.83336 0.11274 0.92642 0.0
C1981 C 0.84713 0.10636 0.95881 0.0
C1982 C 0.83606 0.13293 0.92955 0.0
C1983 C 0.84382 0.13985 0.9471 0.0
H1984 H 0.77004 0.57781 0.89678 0.0
H1985 H 0.73831 0.61383 0.93752 0.0
H1986 H 0.76712 0.63465 0.94223 0.0
H1987 H 0.80256 0.63965 0.93801 0.0
H1988 H 0.83402 0.60324 0.89704 0.0
H1989 H 0.80411 0.58592 0.88882 0.0
C1990 C 0.76936 0.59057 0.90624 0.0
C1991 C 0.75222 0.59446 0.91673 0.0
C1992 C 0.786 0.6023 0.90896 0.0
C1993 C 0.7514 0.6108 0.92916 0.0
C1994 C 0.76789 0.62258 0.93194 0.0
C1995 C 0.80279 0.62827 0.92693 0.0
C1996 C 0.82066 0.62256 0.91847 0.0
C1997 C 0.78548 0.6181 0.92239 0.0
C1998 C 0.82059 0.60778 0.90407 0.0
C1999 C 0.80347 0.59779 0.89935 0.0
H2000 H 0.24192 0.88917 0.07099 0.0
H2001 H 0.2654 0.93645 0.10551 0.0
H2002 H 0.29711 0.9201 0.10678 0.0
H2003 H 0.31886 0.89463 0.09492 0.0
H2004 H 0.29667 0.84852 0.05777 0.0
H2005 H 0.26371 0.86187 0.06097 0.0
C2006 C 0.25393 0.89556 0.07913 0.0
C2007 C 0.25148 0.91384 0.08829 0.0
C2008 C 0.27234 0.88639 0.07916 0.0
C2009 C 0.26708 0.92231 0.09849 0.0
C2010 C 0.28518 0.91301 0.09914 0.0
C2011 C 0.30684 0.88723 0.08772 0.0
C2012 C 0.3104 0.87066 0.07592 0.0
C2013 C 0.28811 0.89536 0.08905 0.0
C2014 C 0.29447 0.86133 0.06687 0.0
C2015 C 0.27559 0.86902 0.06861 0.0
H2016 H 0.89204 0.50084 0.84717 0.0
H2017 H 0.83012 0.51197 0.85022 0.0
H2018 H 0.83525 0.54526 0.83846 0.0
H2019 H 0.85693 0.57068 0.8258 0.0
H2020 H 0.91873 0.55943 0.82126 0.0
H2021 H 0.91399 0.52681 0.83516 0.0
C2022 C 0.8797 0.51062 0.84544 0.0
C2023 C 0.86073 0.50387 0.84953 0.0
C2024 C 0.88269 0.52971 0.83829 0.0
C2025 C 0.84488 0.5167 0.84706 0.0
C2026 C 0.84778 0.53577 0.84034 0.0
C2027 C 0.86943 0.56119 0.82797 0.0
C2028 C 0.88815 0.56754 0.82241 0.0
C2029 C 0.86657 0.54235 0.83567 0.0
C2030 C 0.90412 0.55493 0.82528 0.0
C2031 C 0.90143 0.53625 0.83325 0.0
H2032 H 0.16762 0.10605 0.59509 0.0
H2033 H 0.19359 0.15435 0.56366 0.0
H2034 H 0.22604 0.14336 0.57359 0.0
H2035 H 0.24713 0.11714 0.58689 0.0
H2036 H 0.22075 0.06758 0.61557 0.0
H2037 H 0.18841 0.08209 0.6114 0.0
C2038 C 0.18031 0.11441 0.59061 0.0
C2039 C 0.17809 0.13084 0.57832 0.0
C2040 C 0.19893 0.1077 0.5959 0.0
C2041 C 0.19479 0.14155 0.57295 0.0
C2042 C 0.2134 0.13523 0.57858 0.0
C2043 C 0.23431 0.10994 0.59281 0.0
C2044 C 0.2362 0.09148 0.60172 0.0
C2045 C 0.21568 0.11794 0.58947 0.0
C2046 C 0.21954 0.08192 0.60887 0.0
C2047 C 0.20108 0.09012 0.60631 0.0
H2048 H 0.1284 0.92084 0.84062 0.0
H2049 H 0.06984 0.93947 0.82675 0.0
H2050 H 0.07639 0.97146 0.84149 0.0
H2051 H 0.09952 0.99485 0.85641 0.0
H2052 H 0.15861 0.97648 0.86799 0.0
H2053 H 0.15098 0.94357 0.85628 0.0
C2054 C 0.11695 0.93179 0.84094 0.0
C2055 C 0.09865 0.92772 0.8325 0.0
C2056 C 0.12094 0.95023 0.84906 0.0
C2057 C 0.08409 0.94221 0.83301 0.0
C2058 C 0.08782 0.96051 0.84147 0.0
C2059 C 0.1106 0.98352 0.85667 0.0
C2060 C 0.12958 0.98804 0.86312 0.0
C2061 C 0.10628 0.96478 0.84929 0.0
C2062 C 0.1439 0.97335 0.86307 0.0
C2063 C 0.13957 0.95455 0.85634 0.0
H2064 H 0.67465 0.38816 0.40551 0.0
H2065 H 0.7004 0.34648 0.44541 0.0
H2066 H 0.73276 0.36004 0.43855 0.0
H2067 H 0.75303 0.38681 0.42466 0.0
H2068 H 0.7261 0.42998 0.38744 0.0
H2069 H 0.69492 0.4127 0.38964 0.0
C2070 C 0.68731 0.3818 0.41258 0.0
C2071 C 0.68497 0.36648 0.42623 0.0
C2072 C 0.7057 0.39007 0.40908 0.0
C2073 C 0.70169 0.35833 0.43495 0.0
C2074 C 0.72021 0.36616 0.4311 0.0
C2075 C 0.7404 0.39204 0.41665 0.0
C2076 C 0.74174 0.40948 0.40577 0.0
C2077 C 0.72231 0.38245 0.41869 0.0
C2078 C 0.72531 0.41648 0.39577 0.0
C2079 C 0.70751 0.40668 0.39712 0.0
H2080 H 0.85192 0.47774 0.64285 0.0
H2081 H 0.91182 0.49727 0.64255 0.0
H2082 H 0.92205 0.46655 0.6576 0.0
H2083 H 0.9139 0.43435 0.67166 0.0
H2084 H 0.85408 0.41461 0.67086 0.0
H2085 H 0.84398 0.44517 0.65552 0.0
C2086 C 0.86723 0.47527 0.646 0.0
C2087 C 0.88103 0.48986 0.64163 0.0
C2088 C 0.87305 0.45754 0.65458 0.0
C2089 C 0.90085 0.4863 0.64568 0.0
C2090 C 0.90673 0.46875 0.65438 0.0
C2091 C 0.89866 0.43679 0.66818 0.0
C2092 C 0.88478 0.42227 0.67252 0.0
C2093 C 0.89294 0.45433 0.65906 0.0
C2094 C 0.8651 0.42552 0.66765 0.0
C2095 C 0.85928 0.44302 0.65889 0.0
H2096 H 0.63355 0.57037 0.1589 0.0
H2097 H 0.57342 0.55734 0.17235 0.0
H2098 H 0.57783 0.52383 0.16047 0.0
H2099 H 0.59938 0.49769 0.14811 0.0
H2100 H 0.65998 0.51066 0.13677 0.0
H2101 H 0.65471 0.54476 0.1459 0.0
C2102 C 0.62131 0.56031 0.15902 0.0
C2103 C 0.60317 0.56639 0.1665 0.0
C2104 C 0.62407 0.54099 0.15266 0.0
C2105 C 0.58755 0.55304 0.16673 0.0
C2106 C 0.59007 0.53387 0.15996 0.0
C2107 C 0.61136 0.50804 0.14745 0.0
C2108 C 0.63004 0.50163 0.14181 0.0
C2109 C 0.60835 0.52759 0.15317 0.0
C2110 C 0.64548 0.51517 0.1412 0.0
C2111 C 0.64249 0.53469 0.14639 0.0
H2112 H 0.61264 0.73529 0.89193 0.0
H2113 H 0.62559 0.75941 0.83485 0.0
H2114 H 0.60637 0.73377 0.81936 0.0
H2115 H 0.58266 0.70707 0.82221 0.0
H2116 H 0.57014 0.68222 0.87891 0.0
H2117 H 0.59245 0.7056 0.89438 0.0
C2118 C 0.61155 0.73475 0.87608 0.0
C2119 C 0.62026 0.74949 0.86463 0.0
C2120 C 0.6003 0.72004 0.86721 0.0
C2121 C 0.61896 0.74836 0.84409 0.0
C2122 C 0.60784 0.73377 0.83518 0.0
C2123 C 0.58495 0.70672 0.83794 0.0
C2124 C 0.57454 0.69332 0.8495 0.0
C2125 C 0.59789 0.72 0.84664 0.0
C2126 C 0.57793 0.69258 0.86978 0.0
C2127 C 0.59063 0.70594 0.8786 0.0
H2128 H 0.501 0.34964 0.10179 0.0
H2129 H 0.51619 0.36737 0.16052 0.0
H2130 H 0.54945 0.35561 0.1557 0.0
H2131 H 0.57307 0.33733 0.1362 0.0
H2132 H 0.55754 0.31757 0.07814 0.0
H2133 H 0.52564 0.33314 0.08128 0.0
C2134 C 0.51174 0.35131 0.11335 0.0
C2135 C 0.50618 0.35933 0.13148 0.0
C2136 C 0.53069 0.34388 0.11072 0.0
C2137 C 0.52013 0.36117 0.14645 0.0
C2138 C 0.53912 0.35439 0.14374 0.0
C2139 C 0.56283 0.33656 0.12411 0.0
C2140 C 0.56768 0.32607 0.10704 0.0
C2141 C 0.54439 0.34521 0.12615 0.0
C2142 C 0.55417 0.32536 0.09154 0.0
C2143 C 0.5359 0.33428 0.09331 0.0
H2144 H 0.9178 0.31377 0.35204 0.0
H2145 H 0.92607 0.28312 0.2973 0.0
H2146 H 0.90598 0.25613 0.30916 0.0
H2147 H 0.8898 0.23954 0.3364 0.0
H2148 H 0.88384 0.26896 0.39207 0.0
H2149 H 0.89894 0.29833 0.37834 0.0
C2150 C 0.91498 0.30133 0.34257 0.0
C2151 C 0.92368 0.30035 0.32391 0.0
C2152 C 0.90387 0.28562 0.34967 0.0
C2153 C 0.9198 0.28413 0.31183 0.0
C2154 C 0.90829 0.26869 0.31859 0.0
C2155 C 0.89134 0.25253 0.34542 0.0
C2156 C 0.88582 0.25202 0.36526 0.0
C2157 C 0.90076 0.26902 0.33769 0.0
C2158 C 0.88808 0.26894 0.37678 0.0
C2159 C 0.8968 0.2857 0.36897 0.0
H2160 H 0.00439 0.64729 0.60821 0.0
H2161 H 0.99119 0.64613 0.67005 0.0
H2162 H 0.95724 0.65425 0.66315 0.0
H2163 H 0.93185 0.66379 0.63987 0.0
H2164 H 0.94531 0.66713 0.57817 0.0
H2165 H 0.97853 0.65593 0.5847 0.0
C2166 C 0.99401 0.64859 0.62014 0.0
C2167 C 0.00032 0.64615 0.6396 0.0
C2168 C 0.97458 0.65375 0.61612 0.0
C2169 C 0.98675 0.64807 0.65494 0.0
C2170 C 0.96732 0.6527 0.65102 0.0
C2171 C 0.94196 0.66183 0.6278 0.0
C2172 C 0.93609 0.66631 0.60856 0.0
C2173 C 0.96115 0.65588 0.6317 0.0
C2174 C 0.94947 0.66387 0.59314 0.0
C2175 C 0.96848 0.65747 0.59685 0.0
H2176 H 0.5817 0.30977 0.64266 0.0
H2177 H 0.5799 0.28208 0.69952 0.0
H2178 H 0.60292 0.25729 0.68848 0.0
H2179 H 0.62065 0.2415 0.66189 0.0
H2180 H 0.62061 0.26741 0.60422 0.0
H2181 H 0.60158 0.2951 0.61648 0.0
C2182 C 0.58653 0.29843 0.65268 0.0
C2183 C 0.57888 0.2976 0.67178 0.0
C2184 C 0.59945 0.28391 0.64611 0.0
C2185 C 0.58531 0.28286 0.68463 0.0
C2186 C 0.59853 0.26871 0.67837 0.0
C2187 C 0.61689 0.25343 0.65209 0.0
C2188 C 0.62195 0.25238 0.63218 0.0
C2189 C 0.60531 0.26882 0.65902 0.0
C2190 C 0.61678 0.26786 0.61962 0.0
C2191 C 0.60583 0.28363 0.62658 0.0
H2192 H 0.98237 0.34567 0.84648 0.0
H2193 H 0.99929 0.34435 0.90738 0.0
H2194 H 0.96708 0.33193 0.91635 0.0
H2195 H 0.93442 0.32039 0.90673 0.0
H2196 H 0.91745 0.32276 0.84583 0.0
H2197 H 0.94931 0.33588 0.83712 0.0
C2198 C 0.97902 0.34268 0.86173 0.0
C2199 C 0.99329 0.34579 0.8762 0.0
C2200 C 0.96044 0.3357 0.86681 0.0
C2201 C 0.98859 0.34211 0.89592 0.0
C2202 C 0.97018 0.33494 0.90107 0.0
C2203 C 0.93768 0.32381 0.89156 0.0
C2204 C 0.92356 0.32044 0.87697 0.0
C2205 C 0.95605 0.33152 0.88661 0.0
C2206 C 0.92798 0.32519 0.8574 0.0
C2207 C 0.94625 0.33266 0.85236 0.0
H2208 H 0.92368 0.68122 0.13913 0.0
H2209 H 0.93057 0.71179 0.19411 0.0
H2210 H 0.91194 0.73939 0.18131 0.0
H2211 H 0.8953 0.75555 0.15404 0.0
H2212 H 0.89039 0.72613 0.09831 0.0
H2213 H 0.90643 0.69719 0.11199 0.0
C2214 C 0.921 0.69386 0.14837 0.0
C2215 C 0.92858 0.69446 0.16753 0.0
C2216 C 0.91059 0.70984 0.14081 0.0
C2217 C 0.92505 0.71101 0.17926 0.0
C2218 C 0.91434 0.72678 0.17198 0.0
C2219 C 0.89742 0.74267 0.14498 0.0
C2220 C 0.89156 0.74289 0.12524 0.0
C2221 C 0.90722 0.72642 0.15273 0.0
C2222 C 0.89476 0.72626 0.11356 0.0
C2223 C 0.90397 0.70977 0.12135 0.0
H2224 H 0.51412 0.65012 0.3502 0.0
H2225 H 0.49415 0.6482 0.41011 0.0
H2226 H 0.52628 0.65923 0.4214 0.0
H2227 H 0.56009 0.67036 0.41391 0.0
H2228 H 0.57904 0.67118 0.35351 0.0
H2229 H 0.54732 0.65979 0.3429 0.0
C2230 C 0.51672 0.65207 0.36576 0.0
C2231 C 0.50168 0.64845 0.37925 0.0
C2232 C 0.53512 0.65834 0.3721 0.0
C2233 C 0.50549 0.65083 0.39937 0.0
C2234 C 0.52384 0.65724 0.40584 0.0
C2235 C 0.55722 0.66806 0.39846 0.0
C2236 C 0.57203 0.67167 0.3846 0.0
C2237 C 0.53877 0.66122 0.3923 0.0
C2238 C 0.56807 0.66844 0.3646 0.0
C2239 C 0.54986 0.66194 0.35843 0.0
H2240 H 0.85841 0.59944 0.73951 0.0
H2241 H 0.91965 0.61025 0.7296 0.0
H2242 H 0.91665 0.59823 0.69609 0.0
H2243 H 0.89734 0.58255 0.67048 0.0
H2244 H 0.83651 0.56976 0.6807 0.0
H2245 H 0.83864 0.58473 0.71316 0.0
C2246 C 0.87101 0.59941 0.7299 0.0
C2247 C 0.88922 0.60567 0.73703 0.0
C2248 C 0.86931 0.59197 0.71077 0.0
C2249 C 0.90549 0.60536 0.7245 0.0
C2250 C 0.9038 0.5985 0.70534 0.0
C2251 C 0.88446 0.58319 0.67968 0.0
C2252 C 0.86681 0.57495 0.67316 0.0
C2253 C 0.88588 0.59142 0.69845 0.0
C2254 C 0.85032 0.57586 0.68539 0.0
C2255 C 0.85152 0.58444 0.70396 0.0
H2256 H 0.66476 0.60467 0.94333 0.0
H2257 H 0.66789 0.55096 0.97656 0.0
H2258 H 0.64698 0.56503 0.00179 0.0
H2259 H 0.63114 0.59361 0.01612 0.0
H2260 H 0.63036 0.64832 0.98448 0.0
H2261 H 0.64665 0.6327 0.95669 0.0
C2262 C 0.66065 0.59596 0.95597 0.0
C2263 C 0.66807 0.57689 0.9582 0.0
C2264 C 0.64905 0.60433 0.97069 0.0
C2265 C 0.66262 0.56578 0.97465 0.0
C2266 C 0.65061 0.57379 0.98905 0.0
C2267 C 0.63408 0.60203 0.00296 0.0
C2268 C 0.62961 0.6221 0.00238 0.0
C2269 C 0.64419 0.59321 0.98747 0.0
C2270 C 0.63373 0.63285 0.9853 0.0
C2271 C 0.64313 0.62395 0.96947 0.0
H2272 H 0.64427 0.39381 0.24986 0.0
H2273 H 0.58719 0.37216 0.23443 0.0
H2274 H 0.59159 0.38346 0.20082 0.0
H2275 H 0.61015 0.4021 0.1768 0.0
H2276 H 0.66656 0.42565 0.19223 0.0
H2277 H 0.66395 0.41097 0.22479 0.0
C2278 C 0.63302 0.39123 0.23899 0.0
C2279 C 0.61544 0.38219 0.24456 0.0
C2280 C 0.63538 0.39836 0.21979 0.0
C2281 C 0.60082 0.37915 0.23046 0.0
C2282 C 0.60329 0.38567 0.21127 0.0
C2283 C 0.62198 0.40396 0.18719 0.0
C2284 C 0.63842 0.41519 0.18208 0.0
C2285 C 0.62027 0.39576 0.20593 0.0
C2286 C 0.65364 0.41724 0.19577 0.0
C2287 C 0.65217 0.40883 0.21442 0.0
H2288 H 0.83043 0.39428 0.44072 0.0
H2289 H 0.81976 0.44695 0.47413 0.0
H2290 H 0.83821 0.43365 0.50152 0.0
H2291 H 0.85507 0.40625 0.51696 0.0
H2292 H 0.86388 0.3526 0.48476 0.0
H2293 H 0.8488 0.36728 0.45577 0.0
C2294 C 0.83228 0.40293 0.45392 0.0
C2295 C 0.82356 0.42153 0.45538 0.0
C2296 C 0.84264 0.39506 0.46982 0.0
C2297 C 0.82612 0.43251 0.47263 0.0
C2298 C 0.83673 0.42495 0.48831 0.0
C2299 C 0.8541 0.3979 0.50347 0.0
C2300 C 0.86064 0.37841 0.50297 0.0
C2301 C 0.84477 0.40614 0.48718 0.0
C2302 C 0.85894 0.36766 0.48548 0.0
C2303 C 0.85024 0.376 0.46896 0.0
H2304 H 0.85513 0.3891 0.74878 0.0
H2305 H 0.91349 0.37417 0.76696 0.0
H2306 H 0.90693 0.3868 0.79976 0.0
H2307 H 0.88597 0.40503 0.82203 0.0
H2308 H 0.82823 0.42224 0.80355 0.0
H2309 H 0.83317 0.40577 0.77215 0.0
C2310 C 0.86619 0.38821 0.76011 0.0
C2311 C 0.88471 0.38069 0.75559 0.0
C2312 C 0.86256 0.39621 0.77875 0.0
C2313 C 0.89911 0.37991 0.7702 0.0
C2314 C 0.89541 0.3872 0.7889 0.0
C2315 C 0.87435 0.40508 0.81125 0.0
C2316 C 0.85684 0.41508 0.81512 0.0
C2317 C 0.8774 0.39591 0.79314 0.0
C2318 C 0.84196 0.41484 0.80093 0.0
C2319 C 0.84475 0.40539 0.78296 0.0
H2320 H 0.81876 0.60549 0.05858 0.0
H2321 H 0.8115 0.55033 0.02846 0.0
H2322 H 0.83247 0.56178 0.00197 0.0
H2323 H 0.85085 0.58816 0.9863 0.0
H2324 H 0.85597 0.64423 0.01496 0.0
H2325 H 0.83815 0.63157 0.04335 0.0
C2326 C 0.82186 0.59592 0.04629 0.0
C2327 C 0.81344 0.57714 0.04544 0.0
C2328 C 0.83363 0.60272 0.03092 0.0
C2329 C 0.81759 0.56494 0.02938 0.0
C2330 C 0.82966 0.57143 0.01426 0.0
C2331 C 0.84845 0.59747 -0.00105 0.0
C2332 C 0.8548 0.61703 -0.00134 0.0
C2333 C 0.83752 0.59037 0.01476 0.0
C2334 C 0.85124 0.62908 0.01494 0.0
C2335 C 0.84098 0.6219 0.03109 0.0
H2336 H 0.59433 0.60197 0.26103 0.0
H2337 H 0.65215 0.60334 0.23606 0.0
H2338 H 0.66545 0.58887 0.26602 0.0
H2339 H 0.66026 0.57446 0.29888 0.0
H2340 H 0.60216 0.57388 0.32333 0.0
H2341 H 0.58939 0.58924 0.29389 0.0
C2342 C 0.60987 0.59921 0.26212 0.0
C2343 C 0.62219 0.6036 0.24628 0.0
C2344 C 0.61736 0.59083 0.27924 0.0
C2345 C 0.64233 0.60015 0.24807 0.0
C2346 C 0.64993 0.59175 0.26515 0.0
C2347 C 0.64482 0.57765 0.29769 0.0
C2348 C 0.63218 0.57291 0.31322 0.0
C2349 C 0.63752 0.58675 0.28073 0.0
C2350 C 0.61223 0.57739 0.31161 0.0
C2351 C 0.60488 0.58618 0.29478 0.0
H2352 H 0.64242 0.40799 0.48953 0.0
H2353 H 0.63873 0.35192 0.51845 0.0
H2354 H 0.65337 0.36593 0.54795 0.0
H2355 H 0.67081 0.39302 0.56389 0.0
H2356 H 0.6767 0.44827 0.53369 0.0
H2357 H 0.65755 0.43568 0.50637 0.0
C2358 C 0.64437 0.39894 0.50245 0.0
C2359 C 0.63955 0.37894 0.5018 0.0
C2360 C 0.6535 0.40687 0.51902 0.0
C2361 C 0.6424 0.36735 0.51857 0.0
C2362 C 0.65085 0.37533 0.5354 0.0
C2363 C 0.66767 0.4024 0.55146 0.0
C2364 C 0.67539 0.42148 0.55074 0.0
C2365 C 0.65706 0.3949 0.53555 0.0
C2366 C 0.67118 0.43343 0.53451 0.0
C2367 C 0.66018 0.42626 0.51888 0.0
H2368 H 0.73748 0.90127 0.59576 0.0
H2369 H 0.75682 0.84126 0.59923 0.0
H2370 H 0.72549 0.83018 0.58589 0.0
H2371 H 0.69268 0.8379 0.57218 0.0
H2372 H 0.67455 0.89844 0.56943 0.0
H2373 H 0.70535 0.90881 0.58331 0.0
C2374 C 0.73491 0.88572 0.59369 0.0
C2375 C 0.74955 0.87216 0.59841 0.0
C2376 C 0.71705 0.87951 0.58594 0.0
C2377 C 0.74578 0.85206 0.5958 0.0
C2378 C 0.7279 0.84571 0.58804 0.0
C2379 C 0.69557 0.85333 0.57455 0.0
C2380 C 0.68126 0.86731 0.56972 0.0
C2381 C 0.71347 0.85935 0.58283 0.0
C2382 C 0.68517 0.88728 0.57308 0.0
C2383 C 0.70283 0.8933 0.58103 0.0
H2384 H 0.23891 0.59541 0.39703 0.0
H2385 H 0.261 0.65449 0.39343 0.0
H2386 H 0.22982 0.66715 0.40531 0.0
H2387 H 0.19645 0.6613 0.41784 0.0
H2388 H 0.17463 0.60201 0.42033 0.0
H2389 H 0.20548 0.5897 0.40786 0.0
C2390 C 0.23692 0.61107 0.39876 0.0
C2391 C 0.25235 0.62393 0.39444 0.0
C2392 C 0.21898 0.61826 0.40553 0.0
C2393 C 0.24938 0.64422 0.39659 0.0
C2394 C 0.23157 0.65148 0.40348 0.0
C2395 C 0.19848 0.6457 0.41566 0.0
C2396 C 0.18323 0.63264 0.42012 0.0
C2397 C 0.2163 0.63863 0.40821 0.0
C2398 C 0.18605 0.61246 0.41699 0.0
C2399 C 0.20373 0.60535 0.40987 0.0
H2400 H 0.63098 0.92508 0.65773 0.0
H2401 H 0.57511 0.94442 0.6796 0.0
H2402 H 0.58009 0.97644 0.66424 0.0
H2403 H 0.60149 -0.00041 0.64629 0.0
H2404 H 0.65804 0.98007 0.62671 0.0
H2405 H 0.65146 0.94726 0.63921 0.0
C2406 C 0.61978 0.9362 0.65912 0.0
C2407 C 0.60276 0.93237 0.66996 0.0
C2408 C 0.62284 0.95452 0.65054 0.0
C2409 C 0.58844 0.94703 0.67149 0.0
C2410 C 0.59125 0.96532 0.66267 0.0
C2411 C 0.61213 0.98798 0.64447 0.0
C2412 C 0.63014 0.99205 0.63556 0.0
C2413 C 0.60852 0.9693 0.65235 0.0
C2414 C 0.64406 0.97713 0.63354 0.0
C2415 C 0.64035 0.95844 0.64073 0.0
H2416 H 0.32034 0.39138 0.91234 0.0
H2417 H 0.30894 0.32921 0.91316 0.0
H2418 H 0.2764 0.33483 0.89978 0.0
H2419 H 0.25042 0.35756 0.88993 0.0
H2420 H 0.26134 0.41982 0.89097 0.0
H2421 H 0.29486 0.41397 0.90141 0.0
C2422 C 0.31084 0.37903 0.90938 0.0
C2423 C 0.31706 0.35991 0.91381 0.0
C2424 C 0.292 0.38239 0.90212 0.0
C2425 C 0.30448 0.34409 0.91001 0.0
C2426 C 0.28586 0.34729 0.90235 0.0
C2427 C 0.2602 0.36983 0.89222 0.0
C2428 C 0.25336 0.38908 0.88975 0.0
C2429 C 0.27935 0.3664 0.89867 0.0
C2430 C 0.26619 0.40485 0.89293 0.0
C2431 C 0.28537 0.40153 0.89888 0.0
H2432 H 0.39429 0.5045 0.64164 0.0
H2433 H 0.33388 0.51758 0.62989 0.0
H2434 H 0.33768 0.54991 0.6447 0.0
H2435 H 0.35727 0.57314 0.66359 0.0
H2436 H 0.4171 0.55925 0.67754 0.0
H2437 H 0.41443 0.5286 0.6593 0.0
C2438 C 0.3821 0.51462 0.64197 0.0
C2439 C 0.36386 0.50875 0.63465 0.0
C2440 C 0.3842 0.53291 0.65117 0.0
C2441 C 0.34807 0.52182 0.63546 0.0
C2442 C 0.35021 0.54026 0.64398 0.0
C2443 C 0.3698 0.56352 0.66251 0.0
C2444 C 0.3873 0.56844 0.67208 0.0
C2445 C 0.36806 0.54575 0.65234 0.0
C2446 C 0.40337 0.55574 0.67051 0.0
C2447 C 0.40189 0.53822 0.66003 0.0
H2448 H 0.76663 0.09391 0.10253 0.0
H2449 H 0.74862 0.15445 0.10346 0.0
H2450 H 0.78042 0.16443 0.09079 0.0
H2451 H 0.81276 0.15574 0.07773 0.0
H2452 H 0.831 0.09526 0.07805 0.0
H2453 H 0.7997 0.0855 0.09195 0.0
C2454 C 0.76971 0.1093 0.10009 0.0
C2455 C 0.75524 0.12339 0.10378 0.0
C2456 C 0.78802 0.11494 0.09289 0.0
C2457 C 0.75953 0.1433 0.10079 0.0
C2458 C 0.77767 0.14902 0.09343 0.0
C2459 C 0.80985 0.14044 0.08088 0.0
C2460 C 0.82407 0.12623 0.07668 0.0
C2461 C 0.79191 0.13494 0.08913 0.0
C2462 C 0.82028 0.10649 0.08114 0.0
C2463 C 0.80238 0.10088 0.08904 0.0
H2464 H 0.65606 0.01566 0.8481 0.0
H2465 H 0.59606 0.99659 0.8467 0.0
H2466 H 0.58634 0.02799 0.83244 0.0
H2467 H 0.59521 0.06059 0.81935 0.0
H2468 H 0.65533 0.07932 0.82195 0.0
H2469 H 0.66463 0.04828 0.83665 0.0
C2470 C 0.64083 0.01835 0.84472 0.0
C2471 C 0.62684 0.00376 0.84833 0.0
C2472 C 0.63537 0.03635 0.83662 0.0
C2473 C 0.60713 0.00761 0.84412 0.0
C2474 C 0.60157 0.02552 0.83586 0.0
C2475 C 0.61033 0.05781 0.8231 0.0
C2476 C 0.62455 0.0722 0.81945 0.0
C2477 C 0.61561 0.03993 0.83185 0.0
C2478 C 0.64406 0.06853 0.82463 0.0
C2479 C 0.64943 0.05076 0.83303 0.0
H2480 H 0.88972 -0.00058 0.35275 0.0
H2481 H 0.83062 0.98392 0.36782 0.0
H2482 H 0.83522 0.95133 0.35381 0.0
H2483 H 0.85477 0.92868 0.3342 0.0
H2484 H 0.91326 0.94489 0.31716 0.0
H2485 H 0.91015 0.9757 0.33495 0.0
C2486 C 0.87806 0.9887 0.35342 0.0
C2487 C 0.8599 0.99397 0.36135 0.0
C2488 C 0.88056 0.97026 0.34461 0.0
C2489 C 0.84475 0.98012 0.3618 0.0
C2490 C 0.84732 0.96155 0.35368 0.0
C2491 C 0.86692 0.93885 0.33447 0.0
C2492 C 0.88413 0.93451 0.32411 0.0
C2493 C 0.86496 0.95669 0.3445 0.0
C2494 C 0.89974 0.94789 0.32478 0.0
C2495 C 0.89801 0.96553 0.33501 0.0
H2496 H 0.42126 0.31696 0.10511 0.0
H2497 H 0.42948 0.30333 0.16632 0.0
H2498 H 0.41555 0.27073 0.16103 0.0
H2499 H 0.40118 0.24607 0.13881 0.0
H2500 H 0.39439 0.25989 0.07744 0.0
H2501 H 0.40752 0.29257 0.08309 0.0
C2502 C 0.41998 0.30692 0.11736 0.0
C2503 C 0.42634 0.31262 0.1361 0.0
C2504 C 0.41217 0.28825 0.11418 0.0
C2505 C 0.42475 0.2993 0.15172 0.0
C2506 C 0.41673 0.28069 0.14872 0.0
C2507 C 0.40246 0.2563 0.12672 0.0
C2508 C 0.39676 0.25059 0.10775 0.0
C2509 C 0.41038 0.27501 0.13 0.0
C2510 C 0.39874 0.2639 0.09217 0.0
C2511 C 0.40623 0.28259 0.09538 0.0
H2512 H 0.41918 0.64712 0.87972 0.0
H2513 H 0.43593 0.69948 0.91094 0.0
H2514 H 0.46958 0.69532 0.90013 0.0
H2515 H 0.49292 0.67991 0.87733 0.0
H2516 H 0.47643 0.62763 0.84621 0.0
H2517 H 0.44407 0.6285 0.86151 0.0
C2518 C 0.43029 0.65737 0.88455 0.0
C2519 C 0.42493 0.67377 0.89588 0.0
C2520 C 0.44963 0.655 0.87809 0.0
C2521 C 0.43957 0.68675 0.90221 0.0
C2522 C 0.45883 0.68448 0.89588 0.0
C2523 C 0.4824 0.66839 0.87447 0.0
C2524 C 0.48691 0.65367 0.86083 0.0
C2525 C 0.46384 0.66912 0.88319 0.0
C2526 C 0.47323 0.63892 0.8569 0.0
C2527 C 0.45471 0.63954 0.8655 0.0
H2528 H 0.089 0.68345 0.60978 0.0
H2529 H 0.08192 0.70039 0.67032 0.0
H2530 H 0.09629 0.73237 0.66321 0.0
H2531 H 0.10935 0.75611 0.63943 0.0
H2532 H 0.11442 0.73962 0.5786 0.0
H2533 H 0.10256 0.70678 0.58626 0.0
C2534 C 0.09071 0.69406 0.62148 0.0
C2535 C 0.08433 0.68952 0.64055 0.0
C2536 C 0.09866 0.71251 0.61724 0.0
C2537 C 0.08657 0.70353 0.65548 0.0
C2538 C 0.09483 0.72181 0.65144 0.0
C2539 C 0.10813 0.74522 0.62793 0.0
C2540 C 0.11281 0.75024 0.6085 0.0
C2541 C 0.10075 0.72653 0.63233 0.0
C2542 C 0.11087 0.7361 0.59367 0.0
C2543 C 0.10406 0.71734 0.59802 0.0
H2544 H 0.05491 0.30678 0.39287 0.0
H2545 H 0.08614 0.3564 0.36937 0.0
H2546 H 0.0571 0.36679 0.35162 0.0
H2547 H 0.02412 0.35944 0.33936 0.0
H2548 H 0.99312 0.30944 0.36182 0.0
H2549 H 0.02059 0.30155 0.38343 0.0
C2550 C 0.05522 0.32012 0.38426 0.0
C2551 C 0.07275 0.33065 0.3823 0.0
C2552 C 0.03853 0.32581 0.37368 0.0
C2553 C 0.07291 0.34787 0.37097 0.0
C2554 C 0.05631 0.35382 0.36074 0.0
C2555 C 0.02331 0.34712 0.34936 0.0
C2556 C 0.00677 0.33506 0.34923 0.0
C2557 C 0.03925 0.34255 0.36146 0.0
C2558 C 0.00577 0.31896 0.36194 0.0
C2559 C 0.02148 0.31442 0.37418 0.0
H2560 H 0.3936 0.75341 0.36194 0.0
H2561 H 0.37604 0.73565 0.42 0.0
H2562 H 0.38834 0.70265 0.41392 0.0
H2563 H 0.4064 0.67979 0.39328 0.0
H2564 H 0.42608 0.69794 0.33597 0.0
H2565 H 0.41062 0.72985 0.34059 0.0
C2566 C 0.39214 0.74219 0.37309 0.0
C2567 C 0.3839 0.74691 0.39136 0.0
C2568 C 0.39986 0.72342 0.36974 0.0
C2569 C 0.38238 0.73235 0.40583 0.0
C2570 C 0.38945 0.71351 0.40239 0.0
C2571 C 0.4072 0.69063 0.38169 0.0
C2572 C 0.41752 0.68648 0.36435 0.0
C2573 C 0.39862 0.70903 0.38458 0.0
C2574 C 0.41839 0.70077 0.34954 0.0
C2575 C 0.40951 0.71902 0.35215 0.0
H2576 H 0.99617 0.65976 0.13055 0.0
H2577 H 0.02511 0.62614 0.17535 0.0
H2578 H 0.05609 0.62916 0.15786 0.0
H2579 H 0.07551 0.64516 0.13267 0.0
H2580 H 0.04753 0.68167 0.08934 0.0
H2581 H 0.01563 0.67349 0.10316 0.0
C2582 C 0.0092 0.65266 0.13609 0.0
C2583 C 0.00847 0.64262 0.15407 0.0
C2584 C 0.02716 0.65525 0.12639 0.0
C2585 C 0.02542 0.63382 0.16145 0.0
C2586 C 0.04312 0.63566 0.15153 0.0
C2587 C 0.06247 0.65115 0.12598 0.0
C2588 C 0.06404 0.66428 0.11012 0.0
C2589 C 0.04428 0.64694 0.1344 0.0
C2590 C 0.04685 0.67166 0.10163 0.0
C2591 C 0.02857 0.66705 0.10959 0.0
H2592 H 0.10518 0.24704 0.85958 0.0
H2593 H 0.11635 0.25952 0.92049 0.0
H2594 H 0.10524 0.29318 0.91599 0.0
H2595 H 0.08901 0.31779 0.89579 0.0
H2596 H 0.07534 0.30478 0.83542 0.0
H2597 H 0.09077 0.27271 0.83862 0.0
C2598 C 0.10561 0.25732 0.87169 0.0
C2599 C 0.11162 0.25091 0.8903 0.0
C2600 C 0.09843 0.27645 0.86918 0.0
C2601 C 0.11179 0.26419 0.90602 0.0
C2602 C 0.10534 0.28339 0.90348 0.0
C2603 C 0.08959 0.30807 0.88323 0.0
C2604 C 0.08083 0.31366 0.86545 0.0
C2605 C 0.09808 0.2895 0.88529 0.0
C2606 C 0.08177 0.30081 0.84936 0.0
C2607 C 0.09062 0.28245 0.85116 0.0
H2608 H 0.49974 0.3186 0.63364 0.0
H2609 H 0.47658 0.36022 0.67494 0.0
H2610 H 0.44462 0.35846 0.65911 0.0
H2611 H 0.42241 0.34165 0.63673 0.0
H2612 H 0.44477 0.29856 0.59631 0.0
H2613 H 0.4779 0.30463 0.60817 0.0
C2614 C 0.48779 0.3277 0.63869 0.0
C2615 C 0.49041 0.3397 0.65523 0.0
C2616 C 0.46928 0.32615 0.62982 0.0
C2617 C 0.47484 0.35111 0.66205 0.0
C2618 C 0.45656 0.34998 0.6531 0.0
C2619 C 0.43455 0.3338 0.63024 0.0
C2620 C 0.43101 0.31943 0.61585 0.0
C2621 C 0.45346 0.33703 0.63744 0.0
C2622 C 0.447 0.30965 0.60744 0.0
C2623 C 0.46597 0.31301 0.61433 0.0
H2624 H 0.16349 0.42145 0.31212 0.0
H2625 H 0.10482 0.41405 0.33397 0.0
H2626 H 0.09456 0.40083 0.30249 0.0
H2627 H 0.10181 0.39243 0.26842 0.0
H2628 H 0.16056 0.39876 0.24658 0.0
H2629 H 0.17118 0.41119 0.2784 0.0
C2630 C 0.14847 0.41691 0.31 0.0
C2631 C 0.13495 0.4189 0.32537 0.0
C2632 C 0.14264 0.40913 0.29185 0.0
C2633 C 0.11559 0.4127 0.32243 0.0
C2634 C 0.10965 0.40517 0.3044 0.0
C2635 C 0.11695 0.39648 0.27062 0.0
C2636 C 0.13032 0.3948 0.25509 0.0
C2637 C 0.123 0.40349 0.28896 0.0
C2638 C 0.14995 0.39987 0.25829 0.0
C2639 C 0.15603 0.40706 0.27646 0.0
H2640 H 0.34622 0.39219 0.995 0.0
H2641 H 0.35499 0.33112 0.00881 0.0
H2642 H 0.34298 0.33659 0.04196 0.0
H2643 H 0.32908 0.35821 0.06656 0.0
H2644 H 0.31858 0.41903 0.05295 0.0
H2645 H 0.3321 0.41413 0.02009 0.0
C2646 C 0.34568 0.38016 0.00536 0.0
C2647 C 0.35153 0.3613 -0.0005 0.0
C2648 C 0.33831 0.3833 0.02433 0.0
C2649 C 0.3505 0.34576 0.01296 0.0
C2650 C 0.34363 0.34886 0.03191 0.0
C2651 C 0.3298 0.37047 0.05649 0.0
C2652 C 0.32284 0.38897 0.06224 0.0
C2653 C 0.33733 0.3675 0.03767 0.0
C2654 C 0.32375 0.40461 0.04888 0.0
C2655 C 0.33153 0.40183 0.03011 0.0
H2656 H 0.3409 0.57532 0.81876 0.0
H2657 H 0.40104 0.5735 0.83746 0.0
H2658 H 0.41138 0.58683 0.80598 0.0
H2659 H 0.40352 0.59781 0.77272 0.0
H2660 H 0.34336 0.6005 0.75422 0.0
H2661 H 0.3329 0.58811 0.7861 0.0
C2662 C 0.35627 0.57787 0.81597 0.0
C2663 C 0.37017 0.57326 0.83041 0.0
C2664 C 0.36213 0.58567 0.79786 0.0
C2665 C 0.39 0.57691 0.82663 0.0
C2666 C 0.39596 0.58449 0.8086 0.0
C2667 C 0.38811 0.59572 0.77565 0.0
C2668 C 0.37427 0.59992 0.76104 0.0
C2669 C 0.38217 0.58872 0.79404 0.0
C2670 C 0.35434 0.59739 0.7652 0.0
C2671 C 0.34833 0.59024 0.78341 0.0
H2672 H 0.16469 0.63869 0.56823 0.0
H2673 H 0.16994 0.57749 0.55326 0.0
H2674 H 0.1556 0.58391 0.52113 0.0
H2675 H 0.14361 0.60729 0.4965 0.0
H2676 H 0.1405 0.66874 0.51091 0.0
H2677 H 0.15172 0.66179 0.54415 0.0
C2678 C 0.16255 0.6267 0.55803 0.0
C2679 C 0.16848 0.60765 0.56314 0.0
C2680 C 0.15467 0.63055 0.53946 0.0
C2681 C 0.16566 0.59233 0.54967 0.0
C2682 C 0.15742 0.59597 0.5313 0.0
C2683 C 0.14507 0.61909 0.50704 0.0
C2684 C 0.1412 0.63848 0.5013 0.0
C2685 C 0.15214 0.61507 0.52593 0.0
C2686 C 0.14344 0.65369 0.51499 0.0
C2687 C 0.1499 0.64974 0.53397 0.0
H2688 H 0.13956 0.59315 0.24887 0.0
H2689 H 0.07904 0.60366 0.23498 0.0
H2690 H 0.0847 0.59355 0.20121 0.0
H2691 H 0.10623 0.58041 0.17611 0.0
H2692 H 0.16646 0.56807 0.18977 0.0
H2693 H 0.1615 0.58021 0.22316 0.0
C2694 C 0.12769 0.59342 0.23837 0.0
C2695 C 0.10891 0.59917 0.24443 0.0
C2696 C 0.13094 0.58713 0.219 0.0
C2697 C 0.09361 0.59922 0.23073 0.0
C2698 C 0.09683 0.59344 0.21141 0.0
C2699 C 0.11837 0.58046 0.18629 0.0
C2700 C 0.13671 0.57331 0.18037 0.0
C2701 C 0.11535 0.58714 0.20546 0.0
C2702 C 0.15217 0.57341 0.19391 0.0
C2703 C 0.14935 0.58038 0.21301 0.0
H2704 H 0.14392 0.39052 0.99581 0.0
H2705 H 0.14277 0.32841 0.98404 0.0
H2706 H 0.15408 0.3343 0.95065 0.0
H2707 H 0.16599 0.35687 0.92538 0.0
H2708 H 0.16856 0.41884 0.93766 0.0
H2709 H 0.15493 0.41319 0.97019 0.0
C2710 C 0.14594 0.37828 0.98588 0.0
C2711 C 0.14254 0.35906 0.99246 0.0
C2712 C 0.15282 0.38172 0.9668 0.0
C2713 C 0.14539 0.34336 0.97942 0.0
C2714 C 0.15186 0.3467 0.96031 0.0
C2715 C 0.16341 0.36917 0.93509 0.0
C2716 C 0.16838 0.38824 0.92908 0.0
C2717 C 0.15588 0.36579 0.95393 0.0
C2718 C 0.16502 0.40399 0.94193 0.0
C2719 C 0.1572 0.40078 0.96055 0.0
H2720 H 0.34101 0.42366 0.68324 0.0
H2721 H 0.40148 0.42494 0.66555 0.0
H2722 H 0.41117 0.41162 0.69719 0.0
H2723 H 0.4027 0.40049 0.73017 0.0
H2724 H 0.34227 0.39818 0.74779 0.0
H2725 H 0.33238 0.41093 0.71584 0.0
C2726 C 0.3563 0.42102 0.68631 0.0
C2727 C 0.37048 0.42543 0.67207 0.0
C2728 C 0.36181 0.41318 0.70451 0.0
C2729 C 0.39023 0.42167 0.67621 0.0
C2730 C 0.39582 0.4141 0.69433 0.0
C2731 C 0.38735 0.40276 0.72704 0.0
C2732 C 0.37327 0.39853 0.7414 0.0
C2733 C 0.38176 0.40994 0.70863 0.0
C2734 C 0.35343 0.4013 0.73699 0.0
C2735 C 0.34775 0.40865 0.71874 0.0
H2736 H 0.35601 0.60338 0.50078 0.0
H2737 H 0.36606 0.66466 0.489 0.0
H2738 H 0.35559 0.66013 0.45512 0.0
H2739 H 0.34145 0.63935 0.42957 0.0
H2740 H 0.3294 0.57853 0.44186 0.0
H2741 H 0.34285 0.58228 0.47478 0.0
C2742 C 0.35617 0.61567 0.49071 0.0
C2743 C 0.36178 0.63431 0.49738 0.0
C2744 C 0.34962 0.61309 0.47139 0.0
C2745 C 0.3617 0.65016 0.48424 0.0
C2746 C 0.35571 0.6476 0.46487 0.0
C2747 C 0.34195 0.62686 0.43936 0.0
C2748 C 0.33435 0.60872 0.43329 0.0
C2749 C 0.3493 0.62921 0.4584 0.0
C2750 C 0.335 0.59271 0.44623 0.0
C2751 C 0.34272 0.59483 0.46505 0.0
H2752 H 0.31224 0.14579 0.43414 0.0
H2753 H 0.34722 0.10727 0.39827 0.0
H2754 H 0.31802 0.09214 0.38514 0.0
H2755 H 0.28283 0.08643 0.38725 0.0
H2756 H 0.24705 0.12496 0.42182 0.0
H2757 H 0.27605 0.14359 0.43181 0.0
C2758 C 0.31345 0.13442 0.42312 0.0
C2759 C 0.33202 0.12741 0.41764 0.0
C2760 C 0.2964 0.1256 0.41549 0.0
C2761 C 0.33321 0.11273 0.40318 0.0
C2762 C 0.31648 0.104 0.39559 0.0
C2763 C 0.28138 0.09926 0.39652 0.0
C2764 C 0.26296 0.10438 0.40381 0.0
C2765 C 0.29805 0.10979 0.40217 0.0
C2766 C 0.26114 0.12093 0.41588 0.0
C2767 C 0.27774 0.13145 0.42173 0.0
H2768 H 0.82523 0.37984 0.60063 0.0
H2769 H 0.80288 0.3441 0.55353 0.0
H2770 H 0.77024 0.35759 0.55878 0.0
H2771 H 0.74927 0.38332 0.57348 0.0
H2772 H 0.77268 0.4203 0.61888 0.0
H2773 H 0.80367 0.40258 0.61766 0.0
C2774 C 0.81318 0.37472 0.59169 0.0
C2775 C 0.81663 0.36119 0.57648 0.0
C2776 C 0.79464 0.38295 0.5944 0.0
C2777 C 0.80073 0.35454 0.56529 0.0
C2778 C 0.78206 0.36237 0.56819 0.0
C2779 C 0.76104 0.38703 0.58344 0.0
C2780 C 0.75883 0.40287 0.59639 0.0
C2781 C 0.77901 0.37712 0.58221 0.0
C2782 C 0.77415 0.40797 0.60899 0.0
C2783 C 0.79185 0.39793 0.60819 0.0
H2784 H 0.39399 0.00229 0.35703 0.0
H2785 H 0.33348 0.01811 0.36399 0.0
H2786 H 0.34048 0.05122 0.35246 0.0
H2787 H 0.363 0.0745 0.33735 0.0
H2788 H 0.42311 0.05811 0.32807 0.0
H2789 H 0.41708 0.02646 0.34359 0.0
C2790 C 0.38245 0.01314 0.35641 0.0
C2791 C 0.36327 0.00781 0.36136 0.0
C2792 C 0.38645 0.03195 0.34907 0.0
C2793 C 0.34837 0.02189 0.36021 0.0
C2794 C 0.35234 0.04079 0.35355 0.0
C2795 C 0.37487 0.06413 0.33889 0.0
C2796 C 0.39344 0.06865 0.33137 0.0
C2797 C 0.37121 0.0458 0.34743 0.0
C2798 C 0.40862 0.05496 0.33353 0.0
C2799 C 0.40519 0.03685 0.34244 0.0
H2800 H 0.66369 0.61407 0.09719 0.0
H2801 H 0.68864 0.65621 0.05723 0.0
H2802 H 0.72113 0.64269 0.0633 0.0
H2803 H 0.74175 0.61585 0.07651 0.0
H2804 H 0.7157 0.57247 0.11415 0.0
H2805 H 0.68442 0.58958 0.11263 0.0
C2806 C 0.67621 0.62056 0.08997 0.0
C2807 C 0.67358 0.63601 0.07653 0.0
C2808 C 0.69472 0.61236 0.09308 0.0
C2809 C 0.69013 0.64427 0.06756 0.0
C2810 C 0.70874 0.63646 0.07096 0.0
C2811 C 0.72931 0.61057 0.0848 0.0
C2812 C 0.73094 0.59311 0.09561 0.0
C2813 C 0.71113 0.62009 0.0832 0.0
C2814 C 0.71472 0.58601 0.10592 0.0
C2815 C 0.69684 0.59571 0.10494 0.0
H2816 H 0.60745 0.49532 0.34766 0.0
H2817 H 0.66715 0.47952 0.35972 0.0
H2818 H 0.66069 0.44591 0.34938 0.0
H2819 H 0.63896 0.42183 0.33485 0.0
H2820 H 0.57972 0.43761 0.32033 0.0
H2821 H 0.58513 0.47048 0.33362 0.0
C2822 C 0.61889 0.48437 0.34833 0.0
C2823 C 0.6377 0.48976 0.35454 0.0
C2824 C 0.61524 0.46522 0.34167 0.0
C2825 C 0.65256 0.47563 0.35501 0.0
C2826 C 0.64889 0.45647 0.34905 0.0
C2827 C 0.62712 0.43236 0.33467 0.0
C2828 C 0.60896 0.42723 0.32652 0.0
C2829 C 0.63042 0.45122 0.34199 0.0
C2830 C 0.59388 0.44118 0.32639 0.0
C2831 C 0.59695 0.45996 0.33403 0.0
H2832 H 0.18811 0.84742 0.92678 0.0
H2833 H 0.15311 0.89435 0.90281 0.0
H2834 H 0.18217 0.91116 0.89196 0.0
H2835 H 0.21755 0.91476 0.89231 0.0
H2836 H 0.25348 0.86819 0.91462 0.0
H2837 H 0.22422 0.84898 0.92271 0.0
C2838 C 0.18684 0.86117 0.91895 0.0
C2839 C 0.16829 0.86963 0.91604 0.0
C2840 C 0.20383 0.87094 0.91243 0.0
C2841 C 0.16704 0.88741 0.90558 0.0
C2842 C 0.18372 0.89717 0.8993 0.0
C2843 C 0.21893 0.90018 0.89851 0.0
C2844 C 0.23751 0.89285 0.90291 0.0
C2845 C 0.20216 0.88936 0.90309 0.0
C2846 C 0.23925 0.874 0.91094 0.0
C2847 C 0.22252 0.86313 0.91574 0.0
H2848 H 0.35725 0.92263 0.16278 0.0
H2849 H 0.41832 0.93588 0.17061 0.0
H2850 H 0.4132 0.96859 0.15694 0.0
H2851 H 0.39088 0.99413 0.14492 0.0
H2852 H 0.32947 0.98131 0.13947 0.0
H2853 H 0.33525 0.94764 0.14994 0.0
C2854 C 0.36952 0.93257 0.16127 0.0
C2855 C 0.38813 0.92685 0.16773 0.0
C2856 C 0.36637 0.95146 0.15393 0.0
C2857 C 0.40381 0.93998 0.16585 0.0
C2858 C 0.4009 0.95867 0.15804 0.0
C2859 C 0.37882 0.98388 0.14579 0.0
C2860 C 0.35978 0.99017 0.14147 0.0
C2861 C 0.38217 0.96468 0.15235 0.0
C2862 C 0.34424 0.97682 0.14286 0.0
C2863 C 0.34753 0.95757 0.14882 0.0
H2864 H 0.09949 0.06058 0.67279 0.0
H2865 H 0.15879 0.08102 0.66632 0.0
H2866 H 0.16848 0.04936 0.65328 0.0
H2867 H 0.16082 0.01514 0.64594 0.0
H2868 H 0.10155 0.99459 0.65113 0.0
H2869 H 0.09116 0.02702 0.66229 0.0
C2870 C 0.11449 0.05814 0.66839 0.0
C2871 C 0.1284 0.07313 0.6708 0.0
C2872 C 0.12003 0.03985 0.66075 0.0
C2873 C 0.14774 0.06979 0.66473 0.0
C2874 C 0.15336 0.05163 0.65731 0.0
C2875 C 0.1456 0.01781 0.64938 0.0
C2876 C 0.13202 0.00247 0.64794 0.0
C2877 C 0.13973 0.03646 0.65562 0.0
C2878 C 0.11229 0.00619 0.65213 0.0
C2879 C 0.10636 0.02469 0.65859 0.0
H2880 H 0.08829 0.10904 0.35299 0.0
H2881 H 0.11469 0.14578 0.30898 0.0
H2882 H 0.14717 0.13679 0.32068 0.0
H2883 H 0.16822 0.11874 0.34392 0.0
H2884 H 0.1417 0.07972 0.3858 0.0
H2885 H 0.10922 0.08935 0.37462 0.0
C2886 C 0.10118 0.11496 0.34592 0.0
C2887 C 0.09913 0.12805 0.3302 0.0
C2888 C 0.11981 0.10941 0.35245 0.0
C2889 C 0.11592 0.13554 0.32104 0.0
C2890 C 0.1345 0.13051 0.32779 0.0
C2891 C 0.15528 0.11246 0.35057 0.0
C2892 C 0.15722 0.09872 0.36573 0.0
C2893 C 0.13664 0.11755 0.34358 0.0
C2894 C 0.14045 0.09035 0.37408 0.0
C2895 C 0.12191 0.09584 0.36771 0.0
H2896 H 0.15971 0.83809 0.60325 0.0
H2897 H 0.12095 0.86529 0.56154 0.0
H2898 H 0.12982 0.89761 0.57395 0.0
H2899 H 0.14747 0.91805 0.59761 0.0
H2900 H 0.18704 0.89107 0.63865 0.0
H2901 H 0.17903 0.85874 0.62552 0.0
C2902 C 0.15333 0.85112 0.5968 0.0
C2903 C 0.13965 0.84933 0.58159 0.0
C2904 C 0.15858 0.86966 0.60393 0.0
C2905 C 0.13157 0.8663 0.57325 0.0
C2906 C 0.13657 0.88478 0.58038 0.0
C2907 C 0.1544 0.90508 0.6036 0.0
C2908 C 0.16771 0.90687 0.61912 0.0
C2909 C 0.14987 0.88661 0.59586 0.0
C2910 C 0.17675 0.89003 0.62666 0.0
C2911 C 0.17214 0.87155 0.6192 0.0
H2912 H 0.3364 0.87342 0.85415 0.0
H2913 H 0.35776 0.92589 0.88212 0.0
H2914 H 0.39128 0.91583 0.87609 0.0
H2915 H 0.41482 0.89219 0.86262 0.0
H2916 H 0.39367 0.84127 0.83204 0.0
H2917 H 0.35995 0.85042 0.83945 0.0
C2918 C 0.34841 0.88265 0.85881 0.0
C2919 C 0.34459 0.90036 0.86849 0.0
C2920 C 0.36775 0.87696 0.85497 0.0
C2921 C 0.36029 0.91224 0.87444 0.0
C2922 C 0.37951 0.90647 0.87112 0.0
C2923 C 0.40277 0.88309 0.85778 0.0
C2924 C 0.40653 0.86607 0.84701 0.0
C2925 C 0.38344 0.88885 0.86143 0.0
C2926 C 0.39094 0.85447 0.84041 0.0
C2927 C 0.37171 0.8597 0.84461 0.0
H2928 H 0.3687 0.13778 0.06832 0.0
H2929 H 0.33433 0.17264 0.10812 0.0
H2930 H 0.32083 0.1429 0.12282 0.0
H2931 H 0.3201 0.10699 0.12538 0.0
H2932 H 0.3564 0.07234 0.08714 0.0
H2933 H 0.36786 0.10199 0.07075 0.0
C2934 C 0.35805 0.13884 0.08003 0.0
C2935 C 0.35238 0.15729 0.08707 0.0
C2936 C 0.35083 0.12174 0.08877 0.0
C2937 C 0.33886 0.15853 0.10247 0.0
C2938 C 0.33117 0.14156 0.11089 0.0
C2939 C 0.33038 0.10596 0.11335 0.0
C2940 C 0.33738 0.08758 0.10741 0.0
C2941 C 0.33724 0.12309 0.10431 0.0
C2942 C 0.35087 0.08639 0.09198 0.0
C2943 C 0.3574 0.10331 0.08259 0.0
H2944 H 0.1584 0.89423 0.1406 0.0
H2945 H 0.12737 0.93619 0.10518 0.0
H2946 H 0.09623 0.92348 0.11714 0.0
H2947 H 0.07775 0.89973 0.13707 0.0
H2948 H 0.10897 0.85944 0.17424 0.0
H2949 H 0.14004 0.87217 0.16228 0.0
C2950 C 0.14481 0.90061 0.13559 0.0
C2951 C 0.14512 0.916 0.12198 0.0
C2952 C 0.12698 0.8935 0.14281 0.0
C2953 C 0.12745 0.92434 0.11573 0.0
C2954 C 0.10965 0.91704 0.12249 0.0
C2955 C 0.09138 0.89383 0.14254 0.0
C2956 C 0.09112 0.87864 0.15639 0.0
C2957 C 0.10922 0.90152 0.13593 0.0
C2958 C 0.10883 0.87121 0.1636 0.0
C2959 C 0.1266 0.87843 0.15673 0.0
H2960 H 0.34142 0.83713 0.39303 0.0
H2961 H 0.37603 0.86175 0.43974 0.0
H2962 H 0.36859 0.89477 0.42824 0.0
H2963 H 0.35258 0.91667 0.4046 0.0
H2964 H 0.31697 0.89199 0.35869 0.0
H2965 H 0.32451 0.85899 0.37013 0.0
C2966 C 0.34727 0.84973 0.40071 0.0
C2967 C 0.35925 0.84704 0.41716 0.0
C2968 C 0.34281 0.86866 0.39413 0.0
C2969 C 0.36668 0.86347 0.42706 0.0
C2970 C 0.3625 0.88235 0.42046 0.0
C2971 C 0.34649 0.90404 0.39713 0.0
C2972 C 0.33429 0.90671 0.38084 0.0
C2973 C 0.35065 0.88512 0.40396 0.0
C2974 C 0.32637 0.89028 0.37133 0.0
C2975 C 0.33068 0.87141 0.37784 0.0
H2976 H 0.39819 0.12558 0.66606 0.0
H2977 H 0.42843 0.09575 0.61942 0.0
H2978 H 0.39746 0.08217 0.60762 0.0
H2979 H 0.36178 0.07909 0.6105 0.0
H2980 H 0.33126 0.11157 0.65515 0.0
H2981 H 0.36236 0.1239 0.66789 0.0
C2982 C 0.39798 0.116 0.65338 0.0
C2983 C 0.41552 0.11142 0.64373 0.0
C2984 C 0.3801 0.10881 0.64636 0.0
C2985 C 0.41507 0.09938 0.62708 0.0
C2986 C 0.3974 0.09163 0.62037 0.0
C2987 C 0.36199 0.08879 0.62309 0.0
C2988 C 0.34434 0.09426 0.63208 0.0
C2989 C 0.37984 0.09626 0.62989 0.0
C2990 C 0.3447 0.10714 0.64808 0.0
C2991 C 0.36245 0.11415 0.65535 0.0
H2992 H 0.13612 0.07832 0.90627 0.0
H2993 H 0.18147 0.10195 0.86935 0.0
H2994 H 0.17198 0.1352 0.87839 0.0
H2995 H 0.15036 0.15763 0.8964 0.0
H2996 H 0.10563 0.13377 0.93397 0.0
H2997 H 0.11532 0.10062 0.92508 0.0
C2998 C 0.14396 0.09076 0.90027 0.0
C2999 C 0.15942 0.08771 0.88717 0.0
C3000 C 0.13852 0.10981 0.90562 0.0
C3001 C 0.16952 0.10393 0.87954 0.0
C3002 C 0.16408 0.12295 0.88465 0.0
C3003 C 0.14279 0.14516 0.90265 0.0
C3004 C 0.12732 0.14813 0.91578 0.0
C3005 C 0.14854 0.12608 0.89761 0.0
C3006 C 0.11766 0.13186 0.92386 0.0
C3007 C 0.12314 0.11288 0.91877 0.0
H3008 H 0.07901 0.37346 0.14531 0.0
H3009 H 0.11911 0.33517 0.17532 0.0
H3010 H 0.12898 0.3207 0.14411 0.0
H3011 H 0.12711 0.3198 0.10835 0.0
H3012 H 0.08912 0.35984 0.07787 0.0
H3013 H 0.07745 0.37282 0.10921 0.0
C3014 C 0.08975 0.36181 0.14496 0.0
C3015 C 0.09825 0.35523 0.16249 0.0
C3016 C 0.09577 0.35398 0.12693 0.0
C3017 C 0.1124 0.34041 0.16194 0.0
C3018 C 0.11804 0.33215 0.14413 0.0
C3019 C 0.11613 0.33124 0.10858 0.0
C3020 C 0.10884 0.33878 0.09091 0.0
C3021 C 0.10994 0.33894 0.12655 0.0
C3022 C 0.09489 0.35382 0.09135 0.0
C3023 C 0.08823 0.36122 0.10924 0.0
H3024 H 0.60246 0.14136 0.90642 0.0
H3025 H 0.642 0.18608 0.88602 0.0
H3026 H 0.63337 0.1787 0.85208 0.0
H3027 H 0.61535 0.1587 0.82809 0.0
H3028 H 0.57478 0.115 0.84872 0.0
H3029 H 0.58298 0.12284 0.88259 0.0
C3030 C 0.60908 0.14955 0.89453 0.0
C3031 C 0.62287 0.16417 0.89868 0.0
C3032 C 0.60391 0.14538 0.87507 0.0
C3033 C 0.63128 0.17478 0.88318 0.0
C3034 C 0.62641 0.17053 0.86376 0.0
C3035 C 0.60826 0.151 0.84003 0.0
C3036 C 0.59456 0.13627 0.83592 0.0
C3037 C 0.61287 0.15574 0.85952 0.0
C3038 C 0.58536 0.12646 0.8515 0.0
C3039 C 0.59007 0.13088 0.87088 0.0
H3040 H 0.92302 0.87514 0.34871 0.0
H3041 H 0.87791 0.84488 0.31668 0.0
H3042 H 0.86806 0.82769 0.34658 0.0
H3043 H 0.87173 0.82208 0.38215 0.0
H3044 H 0.91552 0.85419 0.4142 0.0
H3045 H 0.9266 0.86972 0.38393 0.0
C3046 C 0.91109 0.86471 0.34824 0.0
C3047 C 0.90125 0.86121 0.33052 0.0
C3048 C 0.90534 0.85517 0.36548 0.0
C3049 C 0.8857 0.84782 0.33017 0.0
C3050 C 0.88009 0.83797 0.34724 0.0
C3051 C 0.88387 0.83226 0.38239 0.0
C3052 C 0.89297 0.83687 0.40027 0.0
C3053 C 0.88977 0.84159 0.36501 0.0
C3054 C 0.90839 0.85039 0.40055 0.0
C3055 C 0.91468 0.8593 0.38328 0.0
H3056 H 0.89177 0.15029 0.16145 0.0
H3057 H 0.93582 0.11029 0.14065 0.0
H3058 H 0.92874 0.11952 0.10682 0.0
H3059 H 0.9091 0.13807 0.083 0.0
H3060 H 0.866 0.17905 0.10397 0.0
H3061 H 0.87371 0.17044 0.13777 0.0
C3062 C 0.89988 0.14371 0.14949 0.0
C3063 C 0.91422 0.1296 0.15351 0.0
C3064 C 0.8959 0.14924 0.13008 0.0
C3065 C 0.92474 0.12125 0.13793 0.0
C3066 C 0.92066 0.12647 0.11857 0.0
C3067 C 0.90153 0.14521 0.09499 0.0
C3068 C 0.88698 0.15911 0.09098 0.0
C3069 C 0.90615 0.14032 0.11445 0.0
C3070 C 0.87733 0.16833 0.10665 0.0
C3071 C 0.88166 0.16337 0.126 0.0
H3072 H 0.42362 0.61973 0.6512 0.0
H3073 H 0.38703 0.66078 0.68206 0.0
H3074 H 0.37585 0.67449 0.65092 0.0
H3075 H 0.37541 0.67378 0.61502 0.0
H3076 H 0.41012 0.63109 0.58411 0.0
H3077 H 0.42312 0.61896 0.61519 0.0
C3078 C 0.41341 0.63185 0.65106 0.0
C3079 C 0.40626 0.63941 0.66879 0.0
C3080 C 0.40661 0.63922 0.63314 0.0
C3081 C 0.39274 0.65482 0.66851 0.0
C3082 C 0.38633 0.66262 0.65075 0.0
C3083 C 0.38592 0.66191 0.6151 0.0
C3084 C 0.39187 0.65337 0.59737 0.0
C3085 C 0.39299 0.65477 0.63299 0.0
C3086 C 0.40532 0.63787 0.59764 0.0
C3087 C 0.41277 0.63095 0.61537 0.0
H3088 H 0.10669 0.64875 0.33192 0.0
H3089 H 0.06367 0.61225 0.36014 0.0
H3090 H 0.07429 0.62394 0.39223 0.0
H3091 H 0.09623 0.64404 0.4123 0.0
H3092 H 0.13842 0.68153 0.38412 0.0
H3093 H 0.12765 0.67004 0.35198 0.0
C3094 C 0.09964 0.64342 0.34511 0.0
C3095 C 0.08449 0.62965 0.34372 0.0
C3096 C 0.10565 0.65038 0.3635 0.0
C3097 C 0.07535 0.62292 0.36087 0.0
C3098 C 0.08143 0.62955 0.37921 0.0
C3099 C 0.103 0.64973 0.3991 0.0
C3100 C 0.1181 0.66354 0.40054 0.0
C3101 C 0.09662 0.64321 0.3807 0.0
C3102 C 0.1267 0.67092 0.38336 0.0
C3103 C 0.1206 0.66432 0.36499 0.0
H3104 H 0.42238 0.37436 0.85143 0.0
H3105 H 0.38444 0.33622 0.81847 0.0
H3106 H 0.3731 0.32095 0.8488 0.0
H3107 H 0.37249 0.31989 0.88469 0.0
H3108 H 0.40847 0.35978 0.91781 0.0
H3109 H 0.42215 0.37291 0.88743 0.0
C3110 C 0.41184 0.36251 0.85092 0.0
C3111 C 0.40429 0.35631 0.83283 0.0
C3112 C 0.40496 0.35424 0.86843 0.0
C3113 C 0.39042 0.3412 0.8323 0.0
C3114 C 0.38393 0.33249 0.84961 0.0
C3115 C 0.3835 0.33129 0.88525 0.0
C3116 C 0.38953 0.33884 0.9034 0.0
C3117 C 0.39088 0.3391 0.86776 0.0
C3118 C 0.4036 0.35378 0.90395 0.0
C3119 C 0.41142 0.36128 0.88661 0.0
H3120 H 0.91444 0.90452 0.63317 0.0
H3121 H 0.89464 0.85812 0.67121 0.0
H3122 H 0.8608 0.86667 0.66446 0.0
H3123 H 0.83674 0.88659 0.64688 0.0
H3124 H 0.8564 0.93381 0.6098 0.0
H3125 H 0.89028 0.92581 0.61715 0.0
C3126 C 0.90269 0.89637 0.64001 0.0
C3127 C 0.907 0.8807 0.65256 0.0
C3128 C 0.88322 0.9015 0.63627 0.0
C3129 C 0.89168 0.8703 0.66149 0.0
C3130 C 0.87231 0.87514 0.65763 0.0
C3131 C 0.84846 0.89519 0.64054 0.0
C3132 C 0.84411 0.91068 0.62779 0.0
C3133 C 0.86791 0.89061 0.64493 0.0
C3134 C 0.85939 0.92181 0.61973 0.0
C3135 C 0.87878 0.91721 0.62385 0.0
H3136 H 0.85554 0.08753 0.40208 0.0
H3137 H 0.81399 0.1096 0.35997 0.0
H3138 H 0.82305 0.14305 0.368 0.0
H3139 H 0.84315 0.16602 0.38613 0.0
H3140 H 0.88427 0.14502 0.42905 0.0
H3141 H 0.87489 0.11111 0.42171 0.0
C3142 C 0.84848 0.0997 0.39475 0.0
C3143 C 0.83419 0.09612 0.38042 0.0
C3144 C 0.85363 0.11903 0.39958 0.0
C3145 C 0.82502 0.11197 0.37108 0.0
C3146 C 0.8302 0.13111 0.37562 0.0
C3147 C 0.85003 0.15402 0.39394 0.0
C3148 C 0.86442 0.1579 0.40799 0.0
C3149 C 0.84453 0.13479 0.38973 0.0
C3150 C 0.87309 0.1423 0.41817 0.0
C3151 C 0.86779 0.12296 0.41392 0.0
H3152 H 0.64233 0.0732 0.11521 0.0
H3153 H 0.67122 0.11283 0.15502 0.0
H3154 H 0.6398 0.12272 0.16859 0.0
H3155 H 0.60432 0.12112 0.1682 0.0
H3156 H 0.57491 0.08305 0.12728 0.0
H3157 H 0.60644 0.07139 0.11506 0.0
C3158 C 0.64171 0.08386 0.12697 0.0
C3159 C 0.65898 0.09227 0.13417 0.0
C3160 C 0.62358 0.08977 0.13441 0.0
C3161 C 0.65806 0.10621 0.14925 0.0
C3162 C 0.64013 0.11186 0.157 0.0
C3163 C 0.60478 0.11015 0.15671 0.0
C3164 C 0.58738 0.10289 0.14866 0.0
C3165 C 0.62283 0.10388 0.14956 0.0
C3166 C 0.58818 0.08882 0.13368 0.0
C3167 C 0.60616 0.08219 0.1267 0.0
H3168 H 0.6302 0.85543 0.92098 0.0
H3169 H 0.67849 0.82909 0.89029 0.0
H3170 H 0.68959 0.86134 0.87953 0.0
H3171 H 0.6839 0.89646 0.87649 0.0
H3172 H 0.63415 0.92279 0.90484 0.0
H3173 H 0.62523 0.89109 0.91897 0.0
C3174 C 0.64336 0.85687 0.91228 0.0
C3175 C 0.65363 0.84007 0.90647 0.0
C3176 C 0.64921 0.87537 0.90556 0.0
C3177 C 0.67043 0.84193 0.8949 0.0
C3178 C 0.67672 0.86031 0.88871 0.0
C3179 C 0.67122 0.89532 0.88594 0.0
C3180 C 0.65965 0.91186 0.88959 0.0
C3181 C 0.66596 0.87705 0.89357 0.0
C3182 C 0.64322 0.91018 0.90178 0.0
C3183 C 0.63813 0.89209 0.90985 0.0
H3184 H 0.84057 0.09631 0.83817 0.0
H3185 H 0.86485 0.05957 0.88345 0.0
H3186 H 0.89778 0.0675 0.87242 0.0
H3187 H 0.91962 0.08645 0.85126 0.0
H3188 H 0.89554 0.12266 0.80546 0.0
H3189 H 0.86254 0.11314 0.81515 0.0
C3190 C 0.85309 0.08996 0.84551 0.0
C3191 C 0.85036 0.07753 0.86167 0.0
C3192 C 0.87197 0.09446 0.839 0.0
C3193 C 0.86663 0.06921 0.87096 0.0
C3194 C 0.88545 0.07376 0.8647 0.0
C3195 C 0.90714 0.09207 0.84326 0.0
C3196 C 0.90994 0.10531 0.82779 0.0
C3197 C 0.88828 0.08658 0.84892 0.0
C3198 C 0.89372 0.11239 0.81742 0.0
C3199 C 0.87486 0.10705 0.82302 0.0
H3200 H 0.63617 0.14529 0.57463 0.0
H3201 H 0.67776 0.17052 0.61482 0.0
H3202 H 0.68871 0.13783 0.6243 0.0
H3203 H 0.68478 0.10238 0.62285 0.0
H3204 H 0.64148 0.07696 0.58464 0.0
H3205 H 0.63286 0.10956 0.57253 0.0
C3206 C 0.64783 0.14359 0.58524 0.0
C3207 C 0.65624 0.16014 0.59402 0.0
C3208 C 0.65359 0.12481 0.59103 0.0
C3209 C 0.67111 0.15788 0.60793 0.0
C3210 C 0.67734 0.13924 0.61336 0.0
C3211 C 0.67361 0.10395 0.6117 0.0
C3212 C 0.66375 0.0874 0.6046 0.0
C3213 C 0.66843 0.12264 0.60526 0.0
C3214 C 0.64921 0.08959 0.5903 0.0
C3215 C 0.64429 0.10817 0.58341 0.0
H3216 H 0.64166 0.91904 0.37028 0.0
H3217 H 0.67256 0.87723 0.33451 0.0
H3218 H 0.64159 0.86381 0.32279 0.0
H3219 H 0.6058 0.86355 0.32338 0.0
H3220 H 0.57498 0.90363 0.36115 0.0
H3221 H 0.60591 0.91825 0.37148 0.0
C3222 C 0.64157 0.90709 0.3598 0.0
C3223 C 0.65925 0.8992 0.35309 0.0
C3224 C 0.62378 0.89916 0.35357 0.0
C3225 C 0.65905 0.88351 0.33981 0.0
C3226 C 0.64139 0.87586 0.33312 0.0
C3227 C 0.60589 0.8756 0.33374 0.0
C3228 C 0.58825 0.88268 0.34139 0.0
C3229 C 0.62368 0.88353 0.33997 0.0
C3230 C 0.58847 0.89802 0.35508 0.0
C3231 C 0.6061 0.90636 0.36096 0.0
H3232 H 0.87606 0.84959 0.06666 0.0
H3233 H 0.83314 0.82159 0.10342 0.0
H3234 H 0.8189 0.8534 0.11137 0.0
H3235 H 0.81976 0.8892 0.10928 0.0
H3236 H 0.86422 0.91745 0.07461 0.0
H3237 H 0.87675 0.88553 0.06434 0.0
C3238 C 0.86344 0.85049 0.07621 0.0
C3239 C 0.85556 0.83336 0.08438 0.0
C3240 C 0.8557 0.86885 0.08116 0.0
C3241 C 0.83942 0.83465 0.09697 0.0
C3242 C 0.83129 0.8528 0.10153 0.0
C3243 C 0.83206 0.88835 0.09931 0.0
C3244 C 0.84103 0.90557 0.09263 0.0
C3245 C 0.83947 0.87 0.09391 0.0
C3246 C 0.85711 0.90432 0.07994 0.0
C3247 C 0.86427 0.8861 0.07407 0.0
H3248 H 0.92766 0.62821 0.85397 0.0
H3249 H 0.88057 0.65561 0.82229 0.0
H3250 H 0.86708 0.66815 0.85306 0.0
H3251 H 0.86775 0.66958 0.88923 0.0
H3252 H 0.91387 0.64012 0.92049 0.0
H3253 H 0.92882 0.63027 0.88958 0.0
C3254 C 0.91453 0.63706 0.85376 0.0
C3255 C 0.90509 0.64097 0.83594 0.0
C3256 C 0.90671 0.64384 0.87143 0.0
C3257 C 0.88805 0.65238 0.83588 0.0
C3258 C 0.88035 0.65954 0.85345 0.0
C3259 C 0.88122 0.66126 0.88919 0.0
C3260 C 0.88978 0.6556 0.907 0.0
C3261 C 0.88943 0.65515 0.87135 0.0
C3262 C 0.90705 0.64459 0.90688 0.0
C3263 C 0.91558 0.63893 0.88925 0.0
H3264 H 0.4049 0.85246 0.08819 0.0
H3265 H 0.35483 0.81997 0.10822 0.0
H3266 H 0.36486 0.82503 0.14237 0.0
H3267 H 0.38658 0.8412 0.16633 0.0
H3268 H 0.4371 0.87278 0.14555 0.0
H3269 H 0.42831 0.86537 0.11182 0.0
C3270 C 0.39631 0.84634 0.10006 0.0
C3271 C 0.3791 0.83609 0.09589 0.0
C3272 C 0.40222 0.84919 0.11945 0.0
C3273 C 0.36817 0.82793 0.11123 0.0
C3274 C 0.37385 0.8309 0.13069 0.0
C3275 C 0.39576 0.84622 0.15441 0.0
C3276 C 0.41231 0.85771 0.15839 0.0
C3277 C 0.39065 0.84187 0.13497 0.0
C3278 C 0.42423 0.86398 0.14286 0.0
C3279 C 0.41919 0.85982 0.12355 0.0
H3280 H 0.129 0.17475 0.60519 0.0
H3281 H 0.08596 0.13778 0.57764 0.0
H3282 H 0.07448 0.12691 0.60973 0.0
H3283 H 0.07821 0.12618 0.6453 0.0
H3284 H 0.12276 0.16119 0.673 0.0
H3285 H 0.13213 0.17468 0.64112 0.0
C3286 C 0.11692 0.16455 0.60627 0.0
C3287 C 0.10826 0.1571 0.58918 0.0
C3288 C 0.11081 0.15792 0.62473 0.0
C3289 C 0.09282 0.14368 0.59067 0.0
C3290 C 0.08629 0.13744 0.60898 0.0
C3291 C 0.08984 0.13692 0.6444 0.0
C3292 C 0.0998 0.1427 0.66142 0.0
C3293 C 0.09541 0.1442 0.62607 0.0
C3294 C 0.11492 0.15651 0.66004 0.0
C3295 C 0.12028 0.1642 0.64185 0.0
H3296 H 0.08204 0.84858 0.91305 0.0
H3297 H 0.12836 0.81306 0.88931 0.0
H3298 H 0.11786 0.82108 0.856 0.0
H3299 H 0.09696 0.84022 0.83382 0.0
H3300 H 0.05038 0.8753 0.85786 0.0
H3301 H 0.05947 0.86532 0.89093 0.0
C3302 C 0.0897 0.84245 0.90056 0.0
C3303 C 0.106 0.83041 0.90353 0.0
C3304 C 0.08361 0.84712 0.88157 0.0
C3305 C 0.11573 0.82236 0.88732 0.0
C3306 C 0.1098 0.82702 0.86831 0.0
C3307 C 0.08871 0.84552 0.84631 0.0
C3308 C 0.07316 0.85859 0.84347 0.0
C3309 C 0.09399 0.83969 0.86528 0.0
C3310 C 0.06245 0.86523 0.8597 0.0
C3311 C 0.06766 0.85959 0.87861 0.0
H3312 H 0.6106 0.33951 0.33731 0.0
H3313 H 0.56637 0.37938 0.35817 0.0
H3314 H 0.57529 0.3723 0.39192 0.0
H3315 H 0.59607 0.35558 0.41548 0.0
H3316 H 0.63966 0.31473 0.39541 0.0
H3317 H 0.63047 0.32123 0.36133 0.0
C3318 C 0.60293 0.34656 0.34929 0.0
C3319 C 0.58794 0.35996 0.34533 0.0
C3320 C 0.60797 0.34224 0.36874 0.0
C3321 C 0.57795 0.36894 0.36089 0.0
C3322 C 0.58305 0.36495 0.38019 0.0
C3323 C 0.6035 0.34804 0.40364 0.0
C3324 C 0.61854 0.33482 0.40782 0.0
C3325 C 0.59808 0.35173 0.38426 0.0
C3326 C 0.62796 0.32497 0.39244 0.0
C3327 C 0.62278 0.32873 0.373 0.0
H3328 H 0.90868 0.35316 0.58662 0.0
H3329 H 0.86542 0.31243 0.60763 0.0
H3330 H 0.87523 0.31911 0.64154 0.0
H3331 H 0.89499 0.33815 0.66513 0.0
H3332 H 0.93873 0.37811 0.6433 0.0
H3333 H 0.92991 0.37003 0.60974 0.0
C3334 C 0.90149 0.34565 0.59863 0.0
C3335 C 0.88629 0.33249 0.59476 0.0
C3336 C 0.90726 0.34948 0.6179 0.0
C3337 C 0.87721 0.32263 0.61035 0.0
C3338 C 0.88275 0.32651 0.62969 0.0
C3339 C 0.90267 0.34493 0.653 0.0
C3340 C 0.91737 0.3588 0.65667 0.0
C3341 C 0.89759 0.34014 0.63364 0.0
C3342 C 0.92732 0.3674 0.64086 0.0
C3343 C 0.92227 0.36284 0.62165 0.0
H3344 H 0.58243 0.64915 0.08625 0.0
H3345 H 0.62897 0.68623 0.10701 0.0
H3346 H 0.62104 0.67762 0.14093 0.0
H3347 H 0.60242 0.65746 0.16434 0.0
H3348 H 0.5554 0.62107 0.14328 0.0
H3349 H 0.56189 0.63158 0.10974 0.0
C3350 C 0.59068 0.65551 0.09824 0.0
C3351 C 0.60633 0.66814 0.09424 0.0
C3352 C 0.58603 0.65052 0.11757 0.0
C3353 C 0.61681 0.67648 0.10981 0.0
C3354 C 0.61236 0.67148 0.12916 0.0
C3355 C 0.59351 0.65199 0.1524 0.0
C3356 C 0.57859 0.63839 0.15619 0.0
C3357 C 0.59725 0.65819 0.13317 0.0
C3358 C 0.56698 0.63155 0.14069 0.0
C3359 C 0.57072 0.6375 0.12151 0.0
H3360 H 0.65977 0.60252 0.85864 0.0
H3361 H 0.63268 0.55902 0.89546 0.0
H3362 H 0.6004 0.56984 0.88484 0.0
H3363 H 0.57977 0.5929 0.86626 0.0
H3364 H 0.60704 0.63474 0.82765 0.0
H3365 H 0.63925 0.62333 0.83765 0.0
C3366 C 0.64678 0.59534 0.86418 0.0
C3367 C 0.64855 0.58012 0.87788 0.0
C3368 C 0.62828 0.60139 0.85773 0.0
C3369 C 0.63166 0.57075 0.88483 0.0
C3370 C 0.61319 0.57698 0.87884 0.0
C3371 C 0.59279 0.59937 0.85997 0.0
C3372 C 0.59107 0.61469 0.84636 0.0
C3373 C 0.61131 0.59247 0.86549 0.0
C3374 C 0.60801 0.62286 0.83811 0.0
C3375 C 0.62644 0.61641 0.84388 0.0
H3376 H 0.67219 0.38576 0.12475 0.0
H3377 H 0.62979 0.41668 0.08981 0.0
H3378 H 0.61873 0.38577 0.07552 0.0
H3379 H 0.62039 0.34985 0.07385 0.0
H3380 H 0.66094 0.31881 0.1108 0.0
H3381 H 0.67362 0.34988 0.12335 0.0
C3382 C 0.66062 0.38571 0.11391 0.0
C3383 C 0.65186 0.4034 0.10824 0.0
C3384 C 0.65406 0.36789 0.10612 0.0
C3385 C 0.63672 0.40318 0.0944 0.0
C3386 C 0.63042 0.38554 0.0862 0.0
C3387 C 0.63218 0.34995 0.08445 0.0
C3388 C 0.63992 0.3322 0.09128 0.0
C3389 C 0.63891 0.3678 0.09205 0.0
C3390 C 0.65487 0.3324 0.10532 0.0
C3391 C 0.66207 0.35011 0.1125 0.0
H3392 H 0.83751 0.39488 0.35116 0.0
H3393 H 0.8656 0.42572 0.39847 0.0
H3394 H 0.89751 0.41424 0.38731 0.0
H3395 H 0.91741 0.39525 0.36413 0.0
H3396 H 0.8897 0.367 0.31496 0.0
H3397 H 0.85771 0.37775 0.32658 0.0
C3398 C 0.85066 0.39899 0.35897 0.0
C3399 C 0.84935 0.41092 0.37564 0.0
C3400 C 0.869 0.39292 0.35205 0.0
C3401 C 0.8664 0.41652 0.38556 0.0
C3402 C 0.8846 0.40996 0.37921 0.0
C3403 C 0.90435 0.39156 0.35595 0.0
C3404 C 0.90583 0.38034 0.3388 0.0
C3405 C 0.88608 0.39817 0.36247 0.0
C3406 C 0.88888 0.37576 0.32817 0.0
C3407 C 0.87059 0.3818 0.33485 0.0
H3408 H 0.88421 0.63616 0.5665 0.0
H3409 H 0.84235 0.66654 0.60255 0.0
H3410 H 0.82906 0.63529 0.61384 0.0
H3411 H 0.83062 0.5994 0.61491 0.0
H3412 H 0.87418 0.56908 0.5809 0.0
H3413 H 0.88551 0.60019 0.56727 0.0
C3414 C 0.87202 0.63589 0.57662 0.0
C3415 C 0.86418 0.65354 0.58364 0.0
C3416 C 0.86485 0.6179 0.58349 0.0
C3417 C 0.8486 0.65307 0.59698 0.0
C3418 C 0.84101 0.63524 0.60344 0.0
C3419 C 0.84243 0.59961 0.60434 0.0
C3420 C 0.85152 0.58203 0.59883 0.0
C3421 C 0.8492 0.61757 0.59701 0.0
C3422 C 0.86699 0.58248 0.58535 0.0
C3423 C 0.87347 0.60024 0.57757 0.0
H3424 H 0.5843 0.39805 0.64295 0.0
H3425 H 0.61222 0.35746 0.68235 0.0
H3426 H 0.64429 0.36876 0.67159 0.0
H3427 H 0.66449 0.38964 0.65032 0.0
H3428 H 0.6368 0.43236 0.61311 0.0
H3429 H 0.60463 0.42095 0.62367 0.0
C3430 C 0.59744 0.3918 0.64919 0.0
C3431 C 0.59596 0.37691 0.66332 0.0
C3432 C 0.61586 0.39875 0.64333 0.0
C3433 C 0.61303 0.36903 0.67151 0.0
C3434 C 0.63137 0.37542 0.66532 0.0
C3435 C 0.65139 0.39648 0.64463 0.0
C3436 C 0.65295 0.4117 0.63091 0.0
C3437 C 0.63297 0.39019 0.65115 0.0
C3438 C 0.63592 0.42064 0.62377 0.0
C3439 C 0.61753 0.41408 0.62974 0.0
H3440 H 0.87329 0.35324 0.91948 0.0
H3441 H 0.83244 0.3215 0.88337 0.0
H3442 H 0.81899 0.35234 0.87121 0.0
H3443 H 0.8195 0.38826 0.87011 0.0
H3444 H 0.86175 0.42002 0.90453 0.0
H3445 H 0.87401 0.38924 0.91813 0.0
C3446 C 0.86133 0.3531 0.90908 0.0
C3447 C 0.85376 0.33516 0.90241 0.0
C3448 C 0.85399 0.37087 0.90181 0.0
C3449 C 0.83848 0.33516 0.88872 0.0
C3450 C 0.83079 0.35277 0.88176 0.0
C3451 C 0.83129 0.38845 0.88071 0.0
C3452 C 0.83964 0.40636 0.88643 0.0
C3453 C 0.83852 0.3707 0.88811 0.0
C3454 C 0.85508 0.40638 0.89994 0.0
C3455 C 0.86209 0.38881 0.90771 0.0
H3456 H 0.90925 0.59755 0.13366 0.0
H3457 H 0.88428 0.63631 0.17674 0.0
H3458 H 0.85146 0.62793 0.16561 0.0
H3459 H 0.82972 0.6091 0.1439 0.0
H3460 H 0.85461 0.56803 0.10298 0.0
H3461 H 0.88748 0.57772 0.11287 0.0
C3462 C 0.89659 0.60414 0.14053 0.0
C3463 C 0.8991 0.61751 0.15592 0.0
C3464 C 0.87773 0.59882 0.13445 0.0
C3465 C 0.88264 0.62586 0.16491 0.0
C3466 C 0.86388 0.62113 0.15853 0.0
C3467 C 0.84238 0.60237 0.13715 0.0
C3468 C 0.83984 0.58796 0.12274 0.0
C3469 C 0.86123 0.60757 0.14336 0.0
C3470 C 0.85628 0.57912 0.11421 0.0
C3471 C 0.87506 0.58467 0.11982 0.0
H3472 H 0.65797 0.65964 0.38724 0.0
H3473 H 0.6207 0.63423 0.4314 0.0
H3474 H 0.62948 0.60139 0.42036 0.0
H3475 H 0.64731 0.57989 0.39773 0.0
H3476 H 0.68533 0.60538 0.35424 0.0
H3477 H 0.67673 0.63817 0.36548 0.0
C3478 C 0.65182 0.6469 0.39446 0.0
C3479 C 0.63869 0.64931 0.41005 0.0
C3480 C 0.65705 0.62808 0.38816 0.0
C3481 C 0.63089 0.63272 0.41938 0.0
C3482 C 0.63587 0.61394 0.41306 0.0
C3483 C 0.65374 0.59264 0.39077 0.0
C3484 C 0.66687 0.59026 0.37518 0.0
C3485 C 0.64887 0.61145 0.39741 0.0
C3486 C 0.6752 0.60686 0.36633 0.0
C3487 C 0.67027 0.62561 0.3727 0.0
H3488 H 0.607 0.8482 0.6614 0.0
H3489 H 0.56045 0.88436 0.63913 0.0
H3490 H 0.57052 0.87729 0.60554 0.0
H3491 H 0.59253 0.86052 0.58239 0.0
H3492 H 0.63801 0.82319 0.60496 0.0
H3493 H 0.6285 0.8311 0.63844 0.0
C3494 C 0.59906 0.85449 0.64918 0.0
C3495 C 0.58302 0.86672 0.65271 0.0
C3496 C 0.60478 0.8502 0.62993 0.0
C3497 C 0.5728 0.87477 0.63677 0.0
C3498 C 0.57859 0.8708 0.61755 0.0
C3499 C 0.60035 0.85423 0.59467 0.0
C3500 C 0.61589 0.84132 0.59126 0.0
C3501 C 0.59456 0.85852 0.61395 0.0
C3502 C 0.62589 0.8331 0.60725 0.0
C3503 C 0.62049 0.83761 0.6264 0.0
H3504 H 0.33503 0.38685 0.14995 0.0
H3505 H 0.35682 0.43058 0.10991 0.0
H3506 H 0.39031 0.42145 0.11779 0.0
H3507 H 0.41345 0.40129 0.13641 0.0
H3508 H 0.39161 0.35878 0.17772 0.0
H3509 H 0.35813 0.36713 0.169 0.0
C3510 C 0.34713 0.39433 0.14297 0.0
C3511 C 0.34354 0.40933 0.12944 0.0
C3512 C 0.36633 0.38925 0.1478 0.0
C3513 C 0.35929 0.41903 0.12051 0.0
C3514 C 0.37843 0.41381 0.12495 0.0
C3515 C 0.40133 0.39386 0.14343 0.0
C3516 C 0.4049 0.37951 0.15765 0.0
C3517 C 0.38213 0.39898 0.13862 0.0
C3518 C 0.38915 0.37001 0.16679 0.0
C3519 C 0.37002 0.37473 0.1618 0.0
H3520 H 0.37233 0.64314 0.9304 0.0
H3521 H 0.32388 0.67079 0.90118 0.0
H3522 H 0.31143 0.63892 0.89097 0.0
H3523 H 0.31597 0.60387 0.88765 0.0
H3524 H 0.36547 0.57564 0.91452 0.0
H3525 H 0.37591 0.60704 0.92846 0.0
C3526 C 0.35883 0.64202 0.92219 0.0
C3527 C 0.3489 0.65909 0.91658 0.0
C3528 C 0.35216 0.62365 0.91574 0.0
C3529 C 0.33166 0.65771 0.90562 0.0
C3530 C 0.3246 0.63955 0.89974 0.0
C3531 C 0.32897 0.60451 0.89669 0.0
C3532 C 0.34003 0.58755 0.89993 0.0
C3533 C 0.33501 0.62252 0.90426 0.0
C3534 C 0.35676 0.58858 0.91176 0.0
C3535 C 0.36274 0.6065 0.91971 0.0
H3536 H 0.1673 0.60633 0.65233 0.0
H3537 H 0.13799 0.56478 0.61486 0.0
H3538 H 0.10638 0.57653 0.6263 0.0
H3539 H 0.08705 0.59929 0.64612 0.0
H3540 H 0.11613 0.64004 0.6846 0.0
H3541 H 0.14787 0.62787 0.67367 0.0
C3542 C 0.15398 0.59982 0.64676 0.0
C3543 C 0.15494 0.5848 0.63273 0.0
C3544 C 0.13584 0.6065 0.65355 0.0
C3545 C 0.13761 0.57635 0.62571 0.0
C3546 C 0.11953 0.58308 0.63219 0.0
C3547 C 0.10035 0.60544 0.65216 0.0
C3548 C 0.09932 0.62057 0.66603 0.0
C3549 C 0.11848 0.59826 0.64598 0.0
C3550 C 0.1166 0.62832 0.6739 0.0
C3551 C 0.13473 0.62143 0.66763 0.0
H3552 H 0.14393 0.41331 0.41046 0.0
H3553 H 0.18983 0.39032 0.37376 0.0
H3554 H 0.18145 0.35708 0.38358 0.0
H3555 H 0.15974 0.33446 0.40068 0.0
H3556 H 0.11393 0.35694 0.43768 0.0
H3557 H 0.12377 0.39052 0.42986 0.0
C3558 C 0.15219 0.40102 0.40477 0.0
C3559 C 0.16734 0.40424 0.39128 0.0
C3560 C 0.1473 0.38189 0.41049 0.0
C3561 C 0.17804 0.38822 0.38412 0.0
C3562 C 0.17325 0.3692 0.38969 0.0
C3563 C 0.15204 0.34673 0.40719 0.0
C3564 C 0.13609 0.34332 0.41959 0.0
C3565 C 0.15771 0.36586 0.40258 0.0
C3566 C 0.12632 0.35926 0.4281 0.0
C3567 C 0.13186 0.37843 0.42355 0.0
H3568 H 0.33786 0.60776 0.34432 0.0
H3569 H 0.35951 0.56442 0.3848 0.0
H3570 H 0.39303 0.5741 0.37749 0.0
H3571 H 0.41618 0.59607 0.36073 0.0
H3572 H 0.39445 0.63834 0.31916 0.0
H3573 H 0.36104 0.6279 0.32571 0.0
C3574 C 0.34994 0.60033 0.35139 0.0
C3575 C 0.34625 0.58549 0.36512 0.0
C3576 C 0.36917 0.60586 0.34701 0.0
C3577 C 0.362 0.57586 0.3741 0.0
C3578 C 0.38117 0.58146 0.37002 0.0
C3579 C 0.4041 0.60289 0.35307 0.0
C3580 C 0.40772 0.618 0.33959 0.0
C3581 C 0.38492 0.59662 0.35669 0.0
C3582 C 0.39201 0.62663 0.32958 0.0
C3583 C 0.3729 0.62072 0.33335 0.0
H3584 H 0.13383 0.58302 0.09003 0.0
H3585 H 0.18178 0.60627 0.12389 0.0
H3586 H 0.17523 0.63892 0.11146 0.0
H3587 H 0.15477 0.66119 0.09299 0.0
H3588 H 0.1064 0.63913 0.05923 0.0
H3589 H 0.11454 0.60554 0.06913 0.0
C3590 C 0.14282 0.59526 0.0946 0.0
C3591 C 0.15811 0.59231 0.10799 0.0
C3592 C 0.13904 0.61411 0.0873 0.0
C3593 C 0.16984 0.60819 0.11366 0.0
C3594 C 0.16616 0.62687 0.10655 0.0
C3595 C 0.14619 0.64898 0.08755 0.0
C3596 C 0.13001 0.65249 0.07556 0.0
C3597 C 0.15068 0.63002 0.09361 0.0
C3598 C 0.11904 0.63666 0.06842 0.0
C3599 C 0.12356 0.61753 0.07425 0.0
H3600 H 0.13723 0.42583 0.87793 0.0
H3601 H 0.16945 0.39118 0.83616 0.0
H3602 H 0.13906 0.37684 0.82404 0.0
H3603 H 0.10358 0.37293 0.82657 0.0
H3604 H 0.07168 0.40573 0.87005 0.0
H3605 H 0.10172 0.4221 0.88028 0.0
C3606 C 0.13754 0.41533 0.866 0.0
C3607 C 0.15545 0.40961 0.85784 0.0
C3608 C 0.12012 0.40675 0.85954 0.0
C3609 C 0.15576 0.39577 0.84263 0.0
C3610 C 0.13843 0.38757 0.83573 0.0
C3611 C 0.1032 0.3838 0.83815 0.0
C3612 C 0.08551 0.38819 0.84753 0.0
C3613 C 0.12056 0.39276 0.84426 0.0
C3614 C 0.08519 0.40211 0.86267 0.0
C3615 C 0.10233 0.41147 0.8685 0.0
H3616 H 0.3247 0.39166 0.62294 0.0
H3617 H 0.36494 0.42091 0.58413 0.0
H3618 H 0.37694 0.38914 0.57252 0.0
H3619 H 0.37657 0.35296 0.57433 0.0
H3620 H 0.33748 0.32445 0.61488 0.0
H3621 H 0.32436 0.35609 0.62485 0.0
C3622 C 0.336 0.39112 0.61182 0.0
C3623 C 0.34387 0.40855 0.60431 0.0
C3624 C 0.34304 0.37294 0.60558 0.0
C3625 C 0.35865 0.40763 0.5901 0.0
C3626 C 0.36551 0.3895 0.58347 0.0
C3627 C 0.36506 0.35374 0.58522 0.0
C3628 C 0.35791 0.33647 0.59383 0.0
C3629 C 0.35788 0.37205 0.59122 0.0
C3630 C 0.34321 0.33759 0.60809 0.0
C3631 C 0.3357 0.35565 0.61379 0.0
H3632 H 0.43541 0.12352 0.35648 0.0
H3633 H 0.39327 0.15838 0.3251 0.0
H3634 H 0.38135 0.17202 0.35603 0.0
H3635 H 0.38164 0.17236 0.39207 0.0
H3636 H 0.42219 0.13547 0.42323 0.0
H3637 H 0.43616 0.12434 0.39225 0.0
C3638 C 0.42377 0.13428 0.3564 0.0
C3639 C 0.41523 0.14 0.33862 0.0
C3640 C 0.41669 0.1416 0.37417 0.0
C3641 C 0.40002 0.15376 0.33868 0.0
C3642 C 0.39321 0.16154 0.35632 0.0
C3643 C 0.39371 0.1621 0.39202 0.0
C3644 C 0.40097 0.15476 0.40978 0.0
C3645 C 0.40126 0.15534 0.37417 0.0
C3646 C 0.4164 0.14127 0.40964 0.0
C3647 C 0.42436 0.1349 0.39198 0.0
H3648 H 0.01448 0.10585 0.28197 0.0
H3649 H 0.01725 0.16668 0.26495 0.0
H3650 H 0.98969 0.1621 0.24299 0.0
H3651 H 0.96431 0.14124 0.22912 0.0
H3652 H 0.96182 0.08006 0.24453 0.0
H3653 H 0.98976 0.08432 0.26657 0.0
C3654 C 0.0091 0.11805 0.27336 0.0
C3655 C 0.01783 0.13661 0.27524 0.0
C3656 C 0.99326 0.11528 0.26053 0.0
C3657 C 0.01077 0.15226 0.2639 0.0
C3658 C 0.99497 0.14968 0.25132 0.0
C3659 C 0.96986 0.12882 0.23732 0.0
C3660 C 0.96095 0.11041 0.23535 0.0
C3661 C 0.98601 0.13132 0.24965 0.0
C3662 C 0.96846 0.0944 0.24584 0.0
C3663 C 0.9844 0.09684 0.25844 0.0
H3664 H 0.10853 0.72171 0.47649 0.0
H3665 H 0.17133 0.7226 0.48084 0.0
H3666 H 0.16946 0.7493 0.50464 0.0
H3667 H 0.1499 0.77055 0.52602 0.0
H3668 H 0.08708 0.76915 0.52214 0.0
H3669 H 0.08907 0.74455 0.49619 0.0
C3670 C 0.12184 0.72787 0.48248 0.0
C3671 C 0.14005 0.72007 0.47699 0.0
C3672 C 0.12064 0.74305 0.49631 0.0
C3673 C 0.15713 0.7283 0.48483 0.0
C3674 C 0.15606 0.74353 0.49849 0.0
C3675 C 0.13663 0.76502 0.51936 0.0
C3676 C 0.11835 0.77159 0.52611 0.0
C3677 C 0.13788 0.75074 0.50461 0.0
C3678 C 0.10132 0.76433 0.51726 0.0
C3679 C 0.10245 0.75022 0.50246 0.0
H3680 H 0.53058 0.90309 0.7483 0.0
H3681 H 0.5246 0.84668 0.72046 0.0
H3682 H 0.50029 0.83697 0.74464 0.0
H3683 H 0.48276 0.84345 0.7749 0.0
H3684 H 0.48931 0.89909 0.80412 0.0
H3685 H 0.51144 0.91023 0.7782 0.0
C3686 C 0.52364 0.88885 0.74738 0.0
C3687 C 0.52929 0.87559 0.7327 0.0
C3688 C 0.51005 0.88314 0.76169 0.0
C3689 C 0.52047 0.85707 0.73172 0.0
C3690 C 0.50663 0.85149 0.74555 0.0
C3691 C 0.48896 0.85806 0.77559 0.0
C3692 C 0.48458 0.87038 0.79143 0.0
C3693 C 0.50168 0.86422 0.76083 0.0
C3694 C 0.49258 0.88931 0.79206 0.0
C3695 C 0.5052 0.89567 0.77726 0.0
H3696 H 0.39323 0.27795 0.977 0.0
H3697 H 0.33035 0.2788 0.97953 0.0
H3698 H 0.33073 0.25269 0.00397 0.0
H3699 H 0.34903 0.23148 0.02649 0.0
H3700 H 0.41188 0.23019 0.02352 0.0
H3701 H 0.4114 0.25449 0.99728 0.0
C3702 C 0.37961 0.27227 0.98276 0.0
C3703 C 0.36181 0.2804 0.97662 0.0
C3704 C 0.37993 0.25726 0.99679 0.0
C3705 C 0.34426 0.27278 0.98403 0.0
C3706 C 0.34446 0.25791 0.99808 0.0
C3707 C 0.3626 0.23638 0.01995 0.0
C3708 C 0.38046 0.22921 0.02704 0.0
C3709 C 0.36222 0.25033 0.00485 0.0
C3710 C 0.39793 0.23552 0.01832 0.0
C3711 C 0.39768 0.24947 0.00336 0.0
H3712 H 0.9626 0.85582 0.26266 0.0
H3713 H 0.96207 0.91823 0.25298 0.0
H3714 H 0.99037 0.91538 0.23137 0.0
H3715 H 0.0139 0.8948 0.21362 0.0
H3716 H 0.0151 0.83254 0.22439 0.0
H3717 H 0.98802 0.8357 0.24732 0.0
C3718 C 0.96878 0.8688 0.2559 0.0
C3719 C 0.9602 0.88716 0.2592 0.0
C3720 C 0.98512 0.86707 0.24367 0.0
C3721 C 0.96845 0.90392 0.25061 0.0
C3722 C 0.98458 0.9023 0.23822 0.0
C3723 C 0.00835 0.88197 0.22114 0.0
C3724 C 0.01628 0.86344 0.21708 0.0
C3725 C 0.99284 0.8839 0.23442 0.0
C3726 C 0.00913 0.84696 0.2271 0.0
C3727 C 0.99361 0.84873 0.2402 0.0
H3728 H 0.40105 0.76268 0.47873 0.0
H3729 H 0.33893 0.77002 0.47169 0.0
H3730 H 0.33295 0.74556 0.49706 0.0
H3731 H 0.34535 0.72013 0.51925 0.0
H3732 H 0.40747 0.71193 0.52524 0.0
H3733 H 0.41345 0.73877 0.50243 0.0
C3734 C 0.38621 0.75912 0.48293 0.0
C3735 C 0.37047 0.76806 0.47327 0.0
C3736 C 0.38287 0.74479 0.49728 0.0
C3737 C 0.35132 0.76327 0.47885 0.0
C3738 C 0.34788 0.74926 0.49334 0.0
C3739 C 0.36019 0.72441 0.51577 0.0
C3740 C 0.37593 0.714 0.52383 0.0
C3741 C 0.36353 0.73963 0.50235 0.0
C3742 C 0.39509 0.71966 0.51914 0.0
C3743 C 0.39853 0.73498 0.50608 0.0
H3744 H 0.48987 0.14321 0.71809 0.0
H3745 H 0.50166 0.08896 0.68798 0.0
H3746 H 0.52767 0.08151 0.71153 0.0
H3747 H 0.54827 0.09157 0.73982 0.0
H3748 H 0.53692 0.147 0.76795 0.0
H3749 H 0.50946 0.15279 0.7461 0.0
C3750 C 0.49805 0.12969 0.71666 0.0
C3751 C 0.4939 0.11671 0.70126 0.0
C3752 C 0.51309 0.12574 0.72994 0.0
C3753 C 0.50461 0.09923 0.69971 0.0
C3754 C 0.51949 0.09499 0.71316 0.0
C3755 C 0.53958 0.10475 0.74126 0.0
C3756 C 0.54456 0.11885 0.75545 0.0
C3757 C 0.52402 0.10827 0.72822 0.0
C3758 C 0.5334 0.136 0.75706 0.0
C3759 C 0.5177 0.13933 0.74458 0.0
H3760 H 0.13664 0.22249 0.97481 0.0
H3761 H 0.07515 0.2342 0.96813 0.0
H3762 H 0.07726 0.26007 0.99286 0.0
H3763 H 0.09731 0.28139 0.01384 0.0
H3764 H 0.15899 0.26998 0.01955 0.0
H3765 H 0.15603 0.24187 0.9977 0.0
C3766 C 0.12362 0.23051 0.97894 0.0
C3767 C 0.1058 0.22657 0.96954 0.0
C3768 C 0.12502 0.24554 0.99283 0.0
C3769 C 0.08905 0.23697 0.97516 0.0
C3770 C 0.09027 0.25184 0.9892 0.0
C3771 C 0.11007 0.27263 0.01046 0.0
C3772 C 0.12838 0.27788 0.01813 0.0
C3773 C 0.1083 0.25658 0.99773 0.0
C3774 C 0.14474 0.26632 0.01374 0.0
C3775 C 0.14307 0.25025 0.00123 0.0
H3776 H 0.27377 0.02288 0.10381 0.0
H3777 H 0.27925 0.00703 0.1647 0.0
H3778 H 0.25098 0.98525 0.16182 0.0
H3779 H 0.22608 0.9691 0.14118 0.0
H3780 H 0.22035 0.98634 0.08058 0.0
H3781 H 0.24725 0.00925 0.08419 0.0
C3782 C 0.26867 0.01476 0.11648 0.0
C3783 C 0.27861 0.01636 0.13436 0.0
C3784 C 0.25243 0.00246 0.11474 0.0
C3785 C 0.27176 0.00601 0.15077 0.0
C3786 C 0.25567 0.99351 0.1491 0.0
C3787 C 0.23062 0.97803 0.12885 0.0
C3788 C 0.22142 0.97579 0.11057 0.0
C3789 C 0.24608 0.99137 0.13105 0.0
C3790 C 0.2273 0.98759 0.09476 0.0
C3791 C 0.24271 0.00072 0.09679 0.0
H3792 H 0.22919 0.02337 0.38971 0.0
H3793 H 0.24472 0.05803 0.33925 0.0
H3794 H 0.26869 0.03322 0.32946 0.0
H3795 H 0.28708 0.00277 0.337 0.0
H3796 H 0.27172 0.96951 0.38848 0.0
H3797 H 0.2456 0.99248 0.39594 0.0
C3798 C 0.23772 0.02548 0.37649 0.0
C3799 C 0.23535 0.04257 0.36533 0.0
C3800 C 0.25147 0.01133 0.37111 0.0
C3801 C 0.24637 0.045 0.34813 0.0
C3802 C 0.26007 0.03083 0.34255 0.0
C3803 C 0.27768 0.0004 0.34956 0.0
C3804 C 0.28124 0.98452 0.36219 0.0
C3805 C 0.26298 0.01406 0.35412 0.0
C3806 C 0.26924 0.98168 0.37861 0.0
C3807 C 0.25436 0.99484 0.38293 0.0
H3808 H 0.22277 0.97946 0.61369 0.0
H3809 H 0.21516 0.9951 0.67443 0.0
H3810 H 0.24186 0.01884 0.67187 0.0
H3811 H 0.26596 0.03658 0.65158 0.0
H3812 H 0.27358 0.01991 0.59102 0.0
H3813 H 0.24837 0.99505 0.59436 0.0
C3814 C 0.22703 0.98799 0.6264 0.0
C3815 C 0.21695 0.98572 0.64415 0.0
C3816 C 0.24236 0.00146 0.62484 0.0
C3817 C 0.22276 0.99663 0.66059 0.0
C3818 C 0.23796 0.01024 0.65911 0.0
C3819 C 0.26224 0.02734 0.6392 0.0
C3820 C 0.27147 0.03026 0.62102 0.0
C3821 C 0.24768 0.01298 0.64121 0.0
C3822 C 0.26659 0.01811 0.60513 0.0
C3823 C 0.25215 0.00389 0.607 0.0
H3824 H 0.2121 0.99583 0.84279 0.0
H3825 H 0.21786 0.0197 0.90106 0.0
H3826 H 0.2448 0.99749 0.90786 0.0
H3827 H 0.2653 0.97005 0.89818 0.0
H3828 H 0.25915 0.94472 0.8406 0.0
H3829 H 0.23384 0.96872 0.83257 0.0
C3830 C 0.21947 0.9963 0.85684 0.0
C3831 C 0.21301 0.00932 0.87142 0.0
C3832 C 0.23474 0.98312 0.86085 0.0
C3833 C 0.22252 0.0097 0.88965 0.0
C3834 C 0.23791 0.99701 0.89357 0.0
C3835 C 0.25851 0.96982 0.88382 0.0
C3836 C 0.264 0.95559 0.87005 0.0
C3837 C 0.24389 0.98343 0.87943 0.0
C3838 C 0.25511 0.95552 0.85149 0.0
C3839 C 0.24064 0.96923 0.8469 0.0
H3840 H 0.64844 0.25503 0.03716 0.0
H3841 H 0.58592 0.25415 0.02999 0.0
H3842 H 0.58913 0.23123 0.00269 0.0
H3843 H 0.60962 0.21044 0.98176 0.0
H3844 H 0.67218 0.21172 0.98861 0.0
H3845 H 0.66904 0.2356 0.01508 0.0
C3846 C 0.63552 0.24988 0.02957 0.0
C3847 C 0.61696 0.25618 0.03565 0.0
C3848 C 0.63749 0.23678 0.01385 0.0
C3849 C 0.60037 0.24952 0.02558 0.0
C3850 C 0.60219 0.23638 0.01 0.0
C3851 C 0.62258 0.21604 0.98897 0.0
C3852 C 0.6411 0.20926 0.9833 0.0
C3853 C 0.62066 0.22977 0.00414 0.0
C3854 C 0.65776 0.21672 0.99268 0.0
C3855 C 0.65597 0.23033 0.00786 0.0
H3856 H 0.04165 0.40308 0.24937 0.0
H3857 H 0.04565 0.34217 0.23306 0.0
H3858 H 0.01726 0.33458 0.25319 0.0
H3859 H 0.9917 0.34502 0.27569 0.0
H3860 H 0.98867 0.40528 0.29433 0.0
H3861 H 0.01622 0.41344 0.27294 0.0
C3862 C 0.03622 0.38819 0.25021 0.0
C3863 C 0.04566 0.37321 0.23973 0.0
C3864 C 0.0201 0.38383 0.2622 0.0
C3865 C 0.03866 0.35393 0.24107 0.0
C3866 C 0.02241 0.34958 0.25253 0.0
C3867 C 0.997 0.35995 0.27507 0.0
C3868 C 0.98814 0.37453 0.28651 0.0
C3869 C 0.01308 0.36438 0.2632 0.0
C3870 C 0.99529 0.3938 0.28563 0.0
C3871 C 0.01103 0.39846 0.27342 0.0
H3872 H 0.90234 0.77842 0.47898 0.0
H3873 H 0.83971 0.77253 0.4766 0.0
H3874 H 0.84082 0.74761 0.50219 0.0
H3875 H 0.85933 0.72908 0.52678 0.0
H3876 H 0.92197 0.73456 0.52897 0.0
H3877 H 0.92111 0.75798 0.5019 0.0
C3878 C 0.88896 0.77151 0.48389 0.0
C3879 C 0.87097 0.77742 0.47595 0.0
C3880 C 0.88969 0.75722 0.49869 0.0
C3881 C 0.85377 0.76827 0.48244 0.0
C3882 C 0.85437 0.75407 0.49715 0.0
C3883 C 0.8728 0.7353 0.52125 0.0
C3884 C 0.89067 0.73021 0.52997 0.0
C3885 C 0.8722 0.74869 0.50564 0.0
C3886 C 0.90802 0.73825 0.52252 0.0
C3887 C 0.90754 0.75168 0.50707 0.0
H3888 H 0.97585 0.64198 0.22995 0.0
H3889 H 0.98004 0.58479 0.20346 0.0
H3890 H 0.00492 0.57539 0.22749 0.0
H3891 H 0.02724 0.58453 0.25459 0.0
H3892 H 0.02379 0.64265 0.27913 0.0
H3893 H 0.99673 0.65055 0.25739 0.0
C3894 C 0.98209 0.6274 0.22947 0.0
C3895 C 0.97623 0.61415 0.21489 0.0
C3896 C 0.99655 0.62229 0.24299 0.0
C3897 C 0.98437 0.59527 0.21455 0.0
C3898 C 0.99861 0.58991 0.22825 0.0
C3899 C 0.0203 0.59878 0.25533 0.0
C3900 C 0.02745 0.61302 0.26837 0.0
C3901 C 0.00505 0.60344 0.24235 0.0
C3902 C 0.01857 0.63152 0.2691 0.0
C3903 C 0.00312 0.63606 0.25668 0.0
H3904 H 0.46321 0.35592 0.76494 0.0
H3905 H 0.45638 0.41676 0.74971 0.0
H3906 H 0.48464 0.41471 0.72773 0.0
H3907 H 0.51054 0.39492 0.71191 0.0
H3908 H 0.51791 0.33458 0.72939 0.0
H3909 H 0.49029 0.33717 0.75146 0.0
C3910 C 0.46795 0.36873 0.75682 0.0
C3911 C 0.45772 0.38638 0.75869 0.0
C3912 C 0.48429 0.36752 0.74461 0.0
C3913 C 0.46413 0.403 0.74842 0.0
C3914 C 0.48021 0.40181 0.73585 0.0
C3915 C 0.50616 0.38242 0.72067 0.0
C3916 C 0.51609 0.36452 0.71875 0.0
C3917 C 0.49032 0.38406 0.73369 0.0
C3918 C 0.5104 0.34849 0.73035 0.0
C3919 C 0.49458 0.34992 0.74303 0.0
H3920 H 0.98317 0.89156 0.70556 0.0
H3921 H 0.99206 0.82906 0.70252 0.0
H3922 H 0.01245 0.83044 0.73188 0.0
H3923 H 0.02894 0.84961 0.75735 0.0
H3924 H 0.02028 0.91216 0.76016 0.0
H3925 H 0.99832 0.91049 0.73201 0.0
C3926 C 0.98953 0.87822 0.71133 0.0
C3927 C 0.98625 0.86025 0.70179 0.0
C3928 C 0.00119 0.87912 0.72818 0.0
C3929 C 0.99443 0.84308 0.70956 0.0
C3930 C 0.00608 0.84386 0.72634 0.0
C3931 C 0.02209 0.86287 0.75195 0.0
C3932 C 0.02629 0.881 0.76078 0.0
C3933 C 0.0097 0.86183 0.73564 0.0
C3934 C 0.01728 0.89803 0.75362 0.0
C3935 C 0.0048 0.89709 0.73748 0.0
H3936 H 0.84431 0.28576 0.50119 0.0
H3937 H 0.90578 0.2932 0.51264 0.0
H3938 H 0.91366 0.26953 0.48717 0.0
H3939 H 0.90327 0.24733 0.46092 0.0
H3940 H 0.84187 0.23991 0.4492 0.0
H3941 H 0.83387 0.26284 0.47539 0.0
C3942 C 0.8594 0.28209 0.49819 0.0
C3943 C 0.87439 0.29127 0.50879 0.0
C3944 C 0.8639 0.2685 0.48338 0.0
C3945 C 0.89391 0.2864 0.50468 0.0
C3946 C 0.89847 0.27286 0.49008 0.0
C3947 C 0.88815 0.25069 0.46414 0.0
C3948 C 0.87323 0.24195 0.45309 0.0
C3949 C 0.88361 0.26393 0.47922 0.0
C3950 C 0.85368 0.24645 0.45747 0.0
C3951 C 0.84906 0.25957 0.47245 0.0
H3952 H 0.47111 0.14311 0.26126 0.0
H3953 H 0.47456 0.08005 0.2638 0.0
H3954 H 0.49911 0.08018 0.23787 0.0
H3955 H 0.51696 0.09797 0.21231 0.0
H3956 H 0.51315 0.161 0.20952 0.0
H3957 H 0.49144 0.16113 0.23788 0.0
C3958 C 0.47742 0.12941 0.25631 0.0
C3959 C 0.47088 0.11159 0.26424 0.0
C3960 C 0.49132 0.12958 0.24128 0.0
C3961 C 0.47931 0.09396 0.25786 0.0
C3962 C 0.49328 0.09402 0.24298 0.0
C3963 C 0.51154 0.11175 0.21804 0.0
C3964 C 0.51642 0.12942 0.20871 0.0
C3965 C 0.49897 0.1117 0.23423 0.0
C3966 C 0.50951 0.14719 0.21641 0.0
C3967 C 0.49706 0.14727 0.23258 0.0
H3968 H 0.65335 0.71321 0.00262 0.0
H3969 H 0.59093 0.71029 0.00998 0.0
H3970 H 0.5865 0.73457 0.98412 0.0
H3971 H 0.60035 0.75606 0.95858 0.0
H3972 H 0.66284 0.75842 0.95122 0.0
H3973 H 0.66716 0.73509 0.97778 0.0
C3974 C 0.63879 0.71798 -0.00135 0.0
C3975 C 0.62253 0.70993 0.00821 0.0
C3976 C 0.63631 0.73185 0.98365 0.0
C3977 C 0.60374 0.71623 0.00284 0.0
C3978 C 0.60117 0.73012 0.98803 0.0
C3979 C 0.61489 0.75152 0.96287 0.0
C3980 C 0.6312 0.75897 0.95286 0.0
C3981 C 0.61734 0.73794 0.9782 0.0
C3982 C 0.64997 0.7529 0.95859 0.0
C3983 C 0.65251 0.73954 0.97382 0.0
H3984 H 0.99501 0.09996 0.78286 0.0
H3985 H 0.99392 0.1631 0.78013 0.0
H3986 H 0.02056 0.16275 0.7564 0.0
H3987 H 0.04506 0.14463 0.73757 0.0
H3988 H 0.04606 0.0815 0.73986 0.0
H3989 H 0.01845 0.08171 0.76258 0.0
C3990 C 0.00053 0.11364 0.77699 0.0
C3991 C 0.99257 0.13154 0.78334 0.0
C3992 C 0.01585 0.11333 0.76333 0.0
C3993 C -0.00021 0.14913 0.7755 0.0
C3994 C 0.01506 0.14894 0.76196 0.0
C3995 C 0.03919 0.1309 0.74297 0.0
C3996 C 0.04766 0.11308 0.73716 0.0
C3997 C 0.02334 0.13115 0.75596 0.0
C3998 C 0.03979 0.09541 0.74413 0.0
C3999 C 0.02404 0.09553 0.75715 0.0
H4000 H 0.60603 0.24543 0.5403 0.0
H4001 H 0.6682 0.23873 0.54772 0.0
H4002 H 0.6742 0.26251 0.52191 0.0
H4003 H 0.66199 0.28635 0.49811 0.0
H4004 H 0.5999 0.29353 0.49074 0.0
H4005 H 0.59376 0.26852 0.51546 0.0
C4006 C 0.62086 0.24908 0.53614 0.0
C4007 C 0.63659 0.2404 0.54599 0.0
C4008 C 0.62429 0.26296 0.52131 0.0
C4009 C 0.65577 0.24529 0.54046 0.0
C4010 C 0.65927 0.25891 0.52568 0.0
C4011 C 0.64713 0.28235 0.50183 0.0
C4012 C 0.63148 0.29184 0.49266 0.0
C4013 C 0.64366 0.26802 0.51616 0.0
C4014 C 0.61227 0.28648 0.49763 0.0
C4015 C 0.60871 0.27217 0.51179 0.0
H4016 H 0.51022 0.89021 0.28801 0.0
H4017 H 0.51032 0.82731 0.28176 0.0
H4018 H 0.48511 0.82956 0.25658 0.0
H4019 H 0.46175 0.84925 0.23781 0.0
H4020 H 0.46187 0.91216 0.24377 0.0
H4021 H 0.48836 0.91006 0.26765 0.0
C4022 C 0.50484 0.877 0.28102 0.0
C4023 C 0.51201 0.85861 0.28682 0.0
C4024 C 0.49032 0.8784 0.26664 0.0
C4025 C 0.50503 0.84164 0.27754 0.0
C4026 C 0.49056 0.84291 0.26321 0.0
C4027 C 0.46762 0.8625 0.2443 0.0
C4028 C 0.45977 0.88081 0.23922 0.0
C4029 C 0.48287 0.86118 0.2579 0.0
C4030 C 0.46766 0.89789 0.24751 0.0
C4031 C 0.48277 0.89669 0.26117 0.0
H4032 H 0.85051 0.75208 0.03693 0.0
H4033 H 0.91339 0.75136 0.03394 0.0
H4034 H 0.91201 0.72718 0.00757 0.0
H4035 H 0.89305 0.70529 0.98644 0.0
H4036 H 0.83018 0.70581 0.98931 0.0
H4037 H 0.83144 0.73122 0.0146 0.0
C4038 C 0.86392 0.7467 0.03046 0.0
C4039 C 0.88205 0.75343 0.03748 0.0
C4040 C 0.86301 0.73279 0.01531 0.0
C4041 C 0.89927 0.74641 0.02884 0.0
C4042 C 0.89848 0.73256 0.01378 0.0
C4043 C 0.87959 0.71103 0.99249 0.0
C4044 C 0.86153 0.7036 0.98606 0.0
C4045 C 0.88045 0.72552 0.00705 0.0
C4046 C 0.84425 0.71129 0.99398 0.0
C4047 C 0.84498 0.72576 0.00849 0.0
H4048 H 0.71127 0.98946 0.89468 0.0
H4049 H 0.71771 0.98749 0.83178 0.0
H4050 H 0.74669 0.00816 0.83394 0.0
H4051 H 0.7692 0.02794 0.85342 0.0
H4052 H 0.7629 0.03033 0.9163 0.0
H4053 H 0.73501 0.00802 0.91444 0.0
C4054 C 0.71904 0.99352 0.88145 0.0
C4055 C 0.71226 0.98708 0.86308 0.0
C4056 C 0.73574 0.00537 0.8828 0.0
C4057 C 0.72258 0.99231 0.84609 0.0
C4058 C 0.73916 0.00412 0.84731 0.0
C4059 C 0.76188 0.02343 0.86677 0.0
C4060 C 0.76808 0.03084 0.88497 0.0
C4061 C 0.74575 0.01086 0.86556 0.0
C4062 C 0.75845 0.0248 0.90211 0.0
C4063 C 0.74243 0.01214 0.90104 0.0
H4064 H 0.76067 0.95742 0.64082 0.0
H4065 H 0.75966 0.96233 0.57774 0.0
H4066 H 0.73579 0.98867 0.57998 0.0
H4067 H 0.71423 0.00917 0.59958 0.0
H4068 H 0.71467 0.00457 0.66264 0.0
H4069 H 0.74 0.97933 0.6607 0.0
C4070 C 0.75528 0.96432 0.62757 0.0
C4071 C 0.76183 0.95785 0.60912 0.0
C4072 C 0.74151 0.97948 0.62897 0.0
C4073 C 0.75482 0.967 0.5921 0.0
C4074 C 0.74116 0.98206 0.59337 0.0
C4075 C 0.71993 0.00276 0.61294 0.0
C4076 C 0.71252 0.00863 0.63123 0.0
C4077 C 0.73427 0.98824 0.61169 0.0
C4078 C 0.72017 0.00029 0.64839 0.0
C4079 C 0.73457 0.98581 0.64727 0.0
H4080 H 0.7317 0.97291 0.39368 0.0
H4081 H 0.73621 0.95224 0.33409 0.0
H4082 H 0.75852 0.97893 0.32622 0.0
H4083 H 0.77916 0.00636 0.33707 0.0
H4084 H 0.77525 0.02629 0.39695 0.0
H4085 H 0.75017 0.00194 0.40376 0.0
C4086 C 0.73739 0.97438 0.37892 0.0
C4087 C 0.73246 0.96051 0.36458 0.0
C4088 C 0.7504 0.98964 0.37452 0.0
C4089 C 0.73988 0.96266 0.34548 0.0
C4090 C 0.75266 0.97792 0.34094 0.0
C4091 C 0.77253 0.0056 0.35148 0.0
C4092 C 0.77914 0.01799 0.3665 0.0
C4093 C 0.75836 0.99126 0.35545 0.0
C4094 C 0.7705 0.0168 0.38515 0.0
C4095 C 0.75619 0.00284 0.3891 0.0
H4096 H 0.74211 0.03544 0.08191 0.0
H4097 H 0.73041 0.03699 0.14405 0.0
H4098 H 0.7522 0.00937 0.14923 0.0
H4099 H 0.77637 0.98632 0.13666 0.0
H4100 H 0.78934 0.98517 0.07481 0.0
H4101 H 0.76519 0.01084 0.06898 0.0
C4102 C 0.74418 0.02956 0.09653 0.0
C4103 C 0.73476 0.03835 0.11256 0.0
C4104 C 0.75703 0.01377 0.0995 0.0
C4105 C 0.73762 0.03061 0.13144 0.0
C4106 C 0.75007 0.01479 0.13446 0.0
C4107 C 0.77374 0.99149 0.12186 0.0
C4108 C 0.78469 0.9839 0.10623 0.0
C4109 C 0.76013 0.00648 0.11867 0.0
C4110 C 0.78114 0.99081 0.08714 0.0
C4111 C 0.76736 0.00553 0.08379 0.0
H4112 H 0.39432 0.74934 0.96608 0.0
H4113 H 0.33278 0.74251 0.95486 0.0
H4114 H 0.32539 0.76828 0.97852 0.0
H4115 H 0.33645 0.79315 0.0023 0.0
H4116 H 0.39813 0.80007 0.01293 0.0
H4117 H 0.40533 0.77404 0.98969 0.0
C4118 C 0.3793 0.75343 0.96888 0.0
C4119 C 0.36416 0.74398 0.95874 0.0
C4120 C 0.37513 0.76838 0.9824 0.0
C4121 C 0.34475 0.74954 0.96246 0.0
C4122 C 0.34049 0.76431 0.97599 0.0
C4123 C 0.35144 0.78894 -0.00048 0.0
C4124 C 0.36668 0.79858 0.00937 0.0
C4125 C 0.35556 0.7739 0.98602 0.0
C4126 C 0.38606 0.79295 0.00557 0.0
C4127 C 0.39024 0.77802 0.99227 0.0
H4128 H 0.96698 0.65124 0.76448 0.0
H4129 H 0.97409 0.58843 0.76482 0.0
H4130 H 0.00256 0.59136 0.74356 0.0
H4131 H 0.02351 0.61144 0.72259 0.0
H4132 H 0.01642 0.67422 0.72192 0.0
H4133 H 0.99002 0.67164 0.74586 0.0
C4134 C 0.97488 0.63821 0.76006 0.0
C4135 C 0.96831 0.61963 0.76601 0.0
C4136 C 0.9912 0.63999 0.74776 0.0
C4137 C 0.9788 0.6029 0.76035 0.0
C4138 C 0.99506 0.60455 0.74816 0.0
C4139 C 0.01637 0.62459 0.72788 0.0
C4140 C 0.02176 0.64297 0.72036 0.0
C4141 C 0.0011 0.62297 0.74144 0.0
C4142 C 0.01251 0.65989 0.72747 0.0
C4143 C 0.99734 0.65842 0.74107 0.0
H4144 H 0.14327 0.26007 0.46377 0.0
H4145 H 0.0807 0.25384 0.46068 0.0
H4146 H 0.08196 0.22785 0.48538 0.0
H4147 H 0.10106 0.20611 0.50683 0.0
H4148 H 0.16366 0.21248 0.50953 0.0
H4149 H 0.16213 0.23932 0.48594 0.0
C4150 C 0.12986 0.25312 0.46854 0.0
C4151 C 0.11191 0.25883 0.46034 0.0
C4152 C 0.13072 0.23819 0.48261 0.0
C4153 C 0.0947 0.24971 0.46677 0.0
C4154 C 0.09542 0.23483 0.48084 0.0
C4155 C 0.11437 0.21343 0.50233 0.0
C4156 C 0.13247 0.20725 0.50988 0.0
C4157 C 0.11338 0.22882 0.48871 0.0
C4158 C 0.14955 0.21693 0.50394 0.0
C4159 C 0.14869 0.23226 0.49043 0.0
H4160 H 0.96992 0.35026 0.73642 0.0
H4161 H 0.96561 0.41287 0.74373 0.0
H4162 H 0.98912 0.41153 0.77067 0.0
H4163 H 0.00903 0.39217 0.79358 0.0
H4164 H 0.01299 0.32951 0.7861 0.0
H4165 H 0.99141 0.33129 0.75774 0.0
C4166 C 0.97426 0.36365 0.74376 0.0
C4167 C 0.96595 0.38162 0.7382 0.0
C4168 C 0.98756 0.36273 0.7593 0.0
C4169 C 0.97182 0.39886 0.74775 0.0
C4170 C 0.98517 0.39808 0.76321 0.0
C4171 C 0.00524 0.37892 0.78568 0.0
C4172 C 0.01244 0.36071 0.79203 0.0
C4173 C 0.99282 0.38004 0.76936 0.0
C4174 C 0.00757 0.3437 0.78155 0.0
C4175 C 0.99523 0.34469 0.76534 0.0
H4176 H 0.48926 0.60755 0.29282 0.0
H4177 H 0.49365 0.67055 0.29019 0.0
H4178 H 0.51733 0.66797 0.26355 0.0
H4179 H 0.53728 0.64781 0.24151 0.0
H4180 H 0.53251 0.58483 0.24381 0.0
H4181 H 0.5084 0.58743 0.27005 0.0
C4182 C 0.49537 0.62073 0.2864 0.0
C4183 C 0.48976 0.63921 0.29352 0.0
C4184 C 0.5089 0.61914 0.27104 0.0
C4185 C 0.49772 0.65614 0.28497 0.0
C4186 C 0.51128 0.65468 0.26976 0.0
C4187 C 0.53093 0.63465 0.24771 0.0
C4188 C 0.53672 0.61615 0.24076 0.0
C4189 C 0.51705 0.63625 0.26275 0.0
C4190 C 0.52828 0.59924 0.24888 0.0
C4191 C 0.51453 0.60071 0.26392 0.0
H4192 H 0.50973 0.60155 0.79344 0.0
H4193 H 0.51035 0.66446 0.78725 0.0
H4194 H 0.48421 0.66262 0.76315 0.0
H4195 H 0.46044 0.64335 0.74463 0.0
H4196 H 0.46032 0.58038 0.74962 0.0
H4197 H 0.48709 0.58201 0.77328 0.0
C4198 C 0.50417 0.61483 0.78674 0.0
C4199 C 0.51183 0.63311 0.79225 0.0
C4200 C 0.48924 0.61366 0.7727 0.0
C4201 C 0.50465 0.6502 0.78334 0.0
C4202 C 0.48968 0.64918 0.76956 0.0
C4203 C 0.46632 0.62998 0.75086 0.0
C4204 C 0.45836 0.61179 0.74553 0.0
C4205 C 0.48175 0.63102 0.76427 0.0
C4206 C 0.46624 0.59456 0.75351 0.0
C4207 C 0.48149 0.59549 0.76708 0.0
H4208 H 0.84849 0.25585 0.95983 0.0
H4209 H 0.91111 0.26061 0.9643 0.0
H4210 H 0.91133 0.23584 0.99009 0.0
H4211 H 0.894 0.21131 0.00984 0.0
H4212 H 0.83141 0.20641 0.00533 0.0
H4213 H 0.83093 0.23279 0.98113 0.0
C4214 C 0.86217 0.25164 0.9666 0.0
C4215 C 0.87977 0.26002 0.96006 0.0
C4216 C 0.86221 0.23724 0.98131 0.0
C4217 C 0.89735 0.2544 0.96903 0.0
C4218 C 0.8975 0.24017 0.98374 0.0
C4219 C 0.88023 0.21609 0.00366 0.0
C4220 C 0.86278 0.2068 0.00928 0.0
C4221 C 0.88006 0.23124 0.98974 0.0
C4222 C 0.84506 0.21327 0.00123 0.0
C4223 C 0.84477 0.22834 0.98737 0.0
H4224 H 0.5975 0.73569 0.47116 0.0
H4225 H 0.65898 0.72367 0.46513 0.0
H4226 H 0.66657 0.74892 0.48917 0.0
H4227 H 0.65597 0.77646 0.50985 0.0
H4228 H 0.59446 0.78862 0.51553 0.0
H4229 H 0.58676 0.76138 0.4939 0.0
C4230 C 0.61252 0.73838 0.47536 0.0
C4231 C 0.62761 0.72791 0.46625 0.0
C4232 C 0.61685 0.75315 0.48903 0.0
C4233 C 0.64704 0.7316 0.47183 0.0
C4234 C 0.65143 0.7461 0.48556 0.0
C4235 C 0.64089 0.773 0.50651 0.0
C4236 C 0.62587 0.78469 0.51415 0.0
C4237 C 0.63649 0.7573 0.49391 0.0
C4238 C 0.60637 0.77996 0.50975 0.0
C4239 C 0.6019 0.76436 0.49735 0.0
H4240 H 0.73879 0.47435 0.59496 0.0
H4241 H 0.73628 0.45797 0.65594 0.0
H4242 H 0.76515 0.47809 0.66264 0.0
H4243 H 0.79185 0.49948 0.65071 0.0
H4244 H 0.79529 0.51306 0.58905 0.0
H4245 H 0.76542 0.49467 0.58302 0.0
C4246 C 0.74448 0.47515 0.60974 0.0
C4247 C 0.73539 0.46466 0.62492 0.0
C4248 C 0.76137 0.48614 0.61332 0.0
C4249 C 0.74302 0.46592 0.64399 0.0
C4250 C 0.75954 0.47738 0.64781 0.0
C4251 C 0.78598 0.49842 0.63599 0.0
C4252 C 0.79572 0.50762 0.62035 0.0
C4253 C 0.76896 0.48741 0.63253 0.0
C4254 C 0.78811 0.50602 0.60131 0.0
C4255 C 0.77099 0.49556 0.59785 0.0
H4256 H 0.72988 0.52964 0.85879 0.0
H4257 H 0.73084 0.51843 0.92104 0.0
H4258 H 0.75653 0.49431 0.91662 0.0
H4259 H 0.7796 0.47724 0.89544 0.0
H4260 H 0.77834 0.48702 0.83303 0.0
H4261 H 0.75174 0.51062 0.83709 0.0
C4262 C 0.7357 0.52185 0.87134 0.0
C4263 C 0.72862 0.526 0.89023 0.0
C4264 C 0.75036 0.5077 0.86868 0.0
C4265 C 0.73611 0.51564 0.90635 0.0
C4266 C 0.75081 0.50181 0.90386 0.0
C4267 C 0.77341 0.48444 0.8827 0.0
C4268 C 0.78095 0.48052 0.864 0.0
C4269 C 0.75816 0.49786 0.88514 0.0
C4270 C 0.7727 0.48978 0.8476 0.0
C4271 C 0.75758 0.50335 0.84992 0.0
H4272 H 0.7599 0.51806 0.09434 0.0
H4273 H 0.75991 0.54019 0.15356 0.0
H4274 H 0.73531 0.51584 0.1628 0.0
H4275 H 0.71234 0.48957 0.15334 0.0
H4276 H 0.71129 0.46942 0.09342 0.0
H4277 H 0.73791 0.49164 0.08516 0.0
C4278 C 0.75462 0.51753 0.10931 0.0
C4279 C 0.76161 0.53095 0.12323 0.0
C4280 C 0.74028 0.50385 0.11436 0.0
C4281 C 0.75467 0.53003 0.14257 0.0
C4282 C 0.74061 0.51613 0.14785 0.0
C4283 C 0.71817 0.4899 0.13857 0.0
C4284 C 0.70995 0.47792 0.12399 0.0
C4285 C 0.73312 0.50314 0.13378 0.0
C4286 C 0.71739 0.47859 0.10484 0.0
C4287 C 0.73257 0.49129 0.10011 0.0
H4288 H 0.7667 0.46024 0.34996 0.0
H4289 H 0.77937 0.48759 0.40561 0.0
H4290 H 0.75526 0.5128 0.39912 0.0
H4291 H 0.72861 0.52533 0.37938 0.0
H4292 H 0.71487 0.49867 0.32383 0.0
H4293 H 0.74161 0.47515 0.32832 0.0
C4294 C 0.76432 0.47187 0.36051 0.0
C4295 C 0.7746 0.47188 0.37836 0.0
C4296 C 0.75024 0.4864 0.35674 0.0
C4297 C 0.77148 0.48709 0.39186 0.0
C4298 C 0.7577 0.50155 0.38818 0.0
C4299 C 0.73162 0.51452 0.36812 0.0
C4300 C 0.71974 0.51353 0.35143 0.0
C4301 C 0.7467 0.50106 0.37093 0.0
C4302 C 0.72391 0.49968 0.33681 0.0
C4303 C 0.73907 0.48617 0.33945 0.0
H4304 H 0.52798 0.39945 0.25999 0.0
H4305 H 0.53697 0.33751 0.26878 0.0
H4306 H 0.51152 0.33009 0.24498 0.0
H4307 H 0.48871 0.34114 0.21969 0.0
H4308 H 0.48034 0.40307 0.21022 0.0
H4309 H 0.50341 0.41052 0.23636 0.0
C4310 C 0.52419 0.38434 0.25686 0.0
C4311 C 0.53443 0.36907 0.26597 0.0
C4312 C 0.50974 0.38016 0.24295 0.0
C4313 C 0.52937 0.34955 0.26183 0.0
C4314 C 0.51484 0.34527 0.24821 0.0
C4315 C 0.49176 0.35626 0.22352 0.0
C4316 C 0.48299 0.37151 0.21295 0.0
C4317 C 0.50523 0.36045 0.23837 0.0
C4318 C 0.48703 0.39104 0.21807 0.0
C4319 C 0.50023 0.39533 0.233 0.0
H4320 H 0.14035 0.73958 0.0378 0.0
H4321 H 0.0775 0.74124 0.03421 0.0
H4322 H 0.07951 0.76599 0.00843 0.0
H4323 H 0.09896 0.7873 0.98738 0.0
H4324 H 0.1618 0.78617 0.99087 0.0
H4325 H 0.15995 0.76084 0.01626 0.0
C4326 C 0.12707 0.74534 0.03138 0.0
C4327 C 0.10877 0.73859 0.03795 0.0
C4328 C 0.12836 0.75957 0.01657 0.0
C4329 C 0.09174 0.74619 0.02945 0.0
C4330 C 0.09289 0.76033 0.01471 0.0
C4331 C 0.11231 0.78151 0.99361 0.0
C4332 C 0.13053 0.78863 0.98723 0.0
C4333 C 0.1111 0.76713 0.00821 0.0
C4334 C 0.14762 0.78092 0.99548 0.0
C4335 C 0.14655 0.76648 0.01003 0.0
H4336 H 0.40308 0.25499 0.53219 0.0
H4337 H 0.34174 0.2564 0.54616 0.0
H4338 H 0.33501 0.2328 0.52016 0.0
H4339 H 0.3469 0.20989 0.49474 0.0
H4340 H 0.40844 0.20831 0.4816 0.0
H4341 H 0.41462 0.23381 0.50567 0.0
C4342 C 0.38823 0.25027 0.52943 0.0
C4343 C 0.373 0.25736 0.54119 0.0
C4344 C 0.38445 0.23655 0.51456 0.0
C4345 C 0.3538 0.25111 0.53739 0.0
C4346 C 0.34991 0.23758 0.52251 0.0
C4347 C 0.36158 0.21537 0.49697 0.0
C4348 C 0.37716 0.2071 0.48648 0.0
C4349 C 0.36515 0.22994 0.51117 0.0
C4350 C 0.39616 0.21429 0.4896 0.0
C4351 C 0.39976 0.22889 0.5034 0.0
H4352 H 0.26245 0.53698 0.3542 0.0
H4353 H 0.26341 0.53321 0.41736 0.0
H4354 H 0.23996 0.50641 0.41636 0.0
H4355 H 0.21815 0.48508 0.39782 0.0
H4356 H 0.21672 0.48857 0.3347 0.0
H4357 H 0.24158 0.51431 0.33541 0.0
C4358 C 0.25758 0.53023 0.36773 0.0
C4359 C 0.26458 0.53717 0.38583 0.0
C4360 C 0.24404 0.51478 0.36707 0.0
C4361 C 0.25822 0.52821 0.40323 0.0
C4362 C 0.24479 0.51287 0.40269 0.0
C4363 C 0.22336 0.49135 0.38418 0.0
C4364 C 0.21554 0.485 0.36624 0.0
C4365 C 0.23747 0.50619 0.38472 0.0
C4366 C 0.22253 0.49321 0.34872 0.0
C4367 C 0.23667 0.50798 0.34912 0.0
H4368 H 0.21861 0.50932 0.15087 0.0
H4369 H 0.20889 0.51836 0.08903 0.0
H4370 H 0.23504 0.49552 0.08122 0.0
H4371 H 0.25867 0.47086 0.09187 0.0
H4372 H 0.26774 0.46102 0.15368 0.0
H4373 H 0.24401 0.48641 0.16155 0.0
C4374 C 0.22239 0.50647 0.1357 0.0
C4375 C 0.21173 0.51534 0.12057 0.0
C4376 C 0.23725 0.49309 0.13128 0.0
C4377 C 0.21679 0.51156 0.10097 0.0
C4378 C 0.23173 0.49849 0.09646 0.0
C4379 C 0.25564 0.47446 0.10705 0.0
C4380 C 0.26479 0.46399 0.12214 0.0
C4381 C 0.24176 0.48884 0.11149 0.0
C4382 C 0.26076 0.46881 0.14177 0.0
C4383 C 0.24717 0.48329 0.1463 0.0
H4384 H 0.27711 0.51796 0.89911 0.0
H4385 H 0.28303 0.51347 0.83632 0.0
H4386 H 0.25565 0.49056 0.83515 0.0
H4387 H 0.23245 0.46924 0.85244 0.0
H4388 H 0.22695 0.47363 0.91531 0.0
H4389 H 0.25161 0.49934 0.91593 0.0
C4390 C 0.27225 0.51215 0.88514 0.0
C4391 C 0.2822 0.51716 0.86787 0.0
C4392 C 0.25666 0.4989 0.88461 0.0
C4393 C 0.27562 0.50975 0.84984 0.0
C4394 C 0.26003 0.49659 0.84917 0.0
C4395 C 0.23644 0.47603 0.86624 0.0
C4396 C 0.22808 0.46937 0.88382 0.0
C4397 C 0.2508 0.49067 0.86653 0.0
C4398 C 0.23327 0.4784 0.90157 0.0
C4399 C 0.24742 0.49307 0.90196 0.0
H4400 H 0.23246 0.52779 0.64113 0.0
H4401 H 0.23145 0.52355 0.57802 0.0
H4402 H 0.25655 0.49824 0.57912 0.0
H4403 H 0.28096 0.4798 0.59773 0.0
H4404 H 0.28234 0.4843 0.6608 0.0
H4405 H 0.25475 0.50692 0.65999 0.0
C4406 C 0.23755 0.52115 0.62763 0.0
C4407 C 0.23028 0.52769 0.60951 0.0
C4408 C 0.25213 0.50677 0.62835 0.0
C4409 C 0.23688 0.51883 0.59216 0.0
C4410 C 0.25129 0.50441 0.59276 0.0
C4411 C 0.27508 0.48556 0.61132 0.0
C4412 C 0.2838 0.48059 0.62927 0.0
C4413 C 0.25936 0.49866 0.61073 0.0
C4414 C 0.27591 0.48797 0.64678 0.0
C4415 C 0.26019 0.50096 0.64632 0.0
loop_
_geom_bond_atom_site_label_1
_geom_bond_atom_site_label_2
_geom_bond_distance
_geom_bond_site_symmetry_2
_ccdc_geom_bond_type
Co0 O1 2.216 . S
Co0 O2 2.091 . S
Co0 O4 2.004 . S
Co0 O10 2.021 . S
Co0 O12 2.137 . S
Co0 O13 2.244 . S
O1 Co0 2.216 . S
O1 C8 1.247 . S
O2 Co0 2.091 . S
O2 C8 1.261 . S
C3 O12 1.247 . S
C3 O13 1.272 . S
O4 Co0 2.004 . S
O4 C9 1.259 . S
Co5 O6 2.061 . S
Co5 O11 2.052 . S
Co5 O13 2.135 . S
O6 Co5 2.061 . S
O6 C9 1.235 . S
C7 O10 1.238 . S
C7 O11 1.241 . S
C8 O1 1.247 . S
C8 O2 1.261 . S
C9 O4 1.259 . S
C9 O6 1.235 . S
O10 Co0 2.021 . S
O10 C7 1.238 . S
O11 Co5 2.052 . S
O11 C7 1.241 . S
O12 Co0 2.137 . S
O12 C3 1.247 . S
O13 Co0 2.244 . S
O13 C3 1.272 . S
O13 Co5 2.135 . S
Co14 O15 2.216 . S
Co14 O16 2.091 . S
Co14 O18 2.004 . S
Co14 O24 2.021 . S
Co14 O26 2.137 . S
Co14 O27 2.244 . S
O15 Co14 2.216 . S
O15 C22 1.247 . S
O16 Co14 2.091 . S
O16 C22 1.261 . S
C17 O26 1.247 . S
C17 O27 1.272 . S
O18 Co14 2.004 . S
O18 C23 1.259 . S
Co19 O20 2.061 . S
Co19 O25 2.052 . S
Co19 O27 2.135 . S
O20 Co19 2.061 . S
O20 C23 1.235 . S
C21 O24 1.238 . S
C21 O25 1.241 . S
C22 O15 1.247 . S
C22 O16 1.261 . S
C23 O18 1.259 . S
C23 O20 1.235 . S
O24 Co14 2.021 . S
O24 C21 1.238 . S
O25 Co19 2.052 . S
O25 C21 1.241 . S
O26 Co14 2.137 . S
O26 C17 1.247 . S
O27 Co14 2.244 . S
O27 C17 1.272 . S
O27 Co19 2.135 . S
Co28 O29 2.216 . S
Co28 O30 2.091 . S
Co28 O32 2.004 . S
Co28 O38 2.021 . S
Co28 O40 2.137 . S
Co28 O41 2.244 . S
O29 Co28 2.216 . S
O29 C36 1.247 . S
O30 Co28 2.091 . S
O30 C36 1.261 . S
C31 O40 1.247 . S
C31 O41 1.272 . S
O32 Co28 2.004 . S
O32 C37 1.259 . S
Co33 O34 2.061 . S
Co33 O39 2.052 . S
Co33 O41 2.135 . S
O34 Co33 2.061 . S
O34 C37 1.235 . S
C35 O38 1.238 . S
C35 O39 1.241 . S
C36 O29 1.247 . S
C36 O30 1.261 . S
C37 O32 1.259 . S
C37 O34 1.235 . S
O38 Co28 2.021 . S
O38 C35 1.238 . S
O39 Co33 2.052 . S
O39 C35 1.241 . S
O40 Co28 2.137 . S
O40 C31 1.247 . S
O41 Co28 2.244 . S
O41 C31 1.272 . S
O41 Co33 2.135 . S
Co42 O43 2.216 . S
Co42 O44 2.091 . S
Co42 O46 2.004 . S
Co42 O52 2.021 . S
Co42 O54 2.137 . S
Co42 O55 2.244 . S
O43 Co42 2.216 . S
O43 C50 1.247 . S
O44 Co42 2.091 . S
O44 C50 1.261 . S
C45 O54 1.247 . S
C45 O55 1.272 . S
O46 Co42 2.004 . S
O46 C51 1.259 . S
Co47 O48 2.061 . S
Co47 O53 2.052 . S
Co47 O55 2.135 . S
O48 Co47 2.061 . S
O48 C51 1.235 . S
C49 O52 1.238 . S
C49 O53 1.241 . S
C50 O43 1.247 . S
C50 O44 1.261 . S
C51 O46 1.259 . S
C51 O48 1.235 . S
O52 Co42 2.021 . S
O52 C49 1.238 . S
O53 Co47 2.052 . S
O53 C49 1.241 . S
O54 Co42 2.137 . S
O54 C45 1.247 . S
O55 Co42 2.244 . S
O55 C45 1.272 . S
O55 Co47 2.135 . S
Co56 O57 2.216 . S
Co56 O58 2.091 . S
Co56 O60 2.004 . S
Co56 O66 2.021 . S
Co56 O68 2.137 . S
Co56 O69 2.244 . S
O57 Co56 2.216 . S
O57 C64 1.247 . S
O58 Co56 2.091 . S
O58 C64 1.261 . S
C59 O68 1.247 . S
C59 O69 1.272 . S
O60 Co56 2.004 . S
O60 C65 1.259 . S
Co61 O62 2.061 . S
Co61 O67 2.052 . S
Co61 O69 2.135 . S
O62 Co61 2.061 . S
O62 C65 1.235 . S
C63 O66 1.238 . S
C63 O67 1.241 . S
C64 O57 1.247 . S
C64 O58 1.261 . S
C65 O60 1.259 . S
C65 O62 1.235 . S
O66 Co56 2.021 . S
O66 C63 1.238 . S
O67 Co61 2.052 . S
O67 C63 1.241 . S
O68 Co56 2.137 . S
O68 C59 1.247 . S
O69 Co56 2.244 . S
O69 C59 1.272 . S
O69 Co61 2.135 . S
Co70 O71 2.216 . S
Co70 O72 2.091 . S
Co70 O74 2.004 . S
Co70 O80 2.021 . S
Co70 O82 2.137 . S
Co70 O83 2.244 . S
O71 Co70 2.216 . S
O71 C78 1.247 . S
O72 Co70 2.091 . S
O72 C78 1.261 . S
C73 O82 1.247 . S
C73 O83 1.272 . S
O74 Co70 2.004 . S
O74 C79 1.259 . S
Co75 O76 2.061 . S
Co75 O81 2.052 . S
Co75 O83 2.135 . S
O76 Co75 2.061 . S
O76 C79 1.235 . S
C77 O80 1.238 . S
C77 O81 1.241 . S
C78 O71 1.247 . S
C78 O72 1.261 . S
C79 O74 1.259 . S
C79 O76 1.235 . S
O80 Co70 2.021 . S
O80 C77 1.238 . S
O81 Co75 2.052 . S
O81 C77 1.241 . S
O82 Co70 2.137 . S
O82 C73 1.247 . S
O83 Co70 2.244 . S
O83 C73 1.272 . S
O83 Co75 2.135 . S
Co84 O85 2.216 . S
Co84 O86 2.091 . S
Co84 O88 2.004 . S
Co84 O94 2.021 . S
Co84 O96 2.137 . S
Co84 O97 2.244 . S
O85 Co84 2.216 . S
O85 C92 1.247 . S
O86 Co84 2.091 . S
O86 C92 1.261 . S
C87 O96 1.247 . S
C87 O97 1.272 . S
O88 Co84 2.004 . S
O88 C93 1.259 . S
Co89 O90 2.061 . S
Co89 O95 2.052 . S
Co89 O97 2.135 . S
O90 Co89 2.061 . S
O90 C93 1.235 . S
C91 O94 1.238 . S
C91 O95 1.241 . S
C92 O85 1.247 . S
C92 O86 1.261 . S
C93 O88 1.259 . S
C93 O90 1.235 . S
O94 Co84 2.021 . S
O94 C91 1.238 . S
O95 Co89 2.052 . S
O95 C91 1.241 . S
O96 Co84 2.137 . S
O96 C87 1.247 . S
O97 Co84 2.244 . S
O97 C87 1.272 . S
O97 Co89 2.135 . S
Co98 O99 2.216 . S
Co98 O100 2.091 . S
Co98 O102 2.004 . S
Co98 O108 2.021 . S
Co98 O110 2.137 . S
Co98 O111 2.244 . S
O99 Co98 2.216 . S
O99 C106 1.247 . S
O100 Co98 2.091 . S
O100 C106 1.261 . S
C101 O110 1.247 . S
C101 O111 1.272 . S
O102 Co98 2.004 . S
O102 C107 1.259 . S
Co103 O104 2.061 . S
Co103 O109 2.052 . S
Co103 O111 2.135 . S
O104 Co103 2.061 . S
O104 C107 1.235 . S
C105 O108 1.238 . S
C105 O109 1.241 . S
C106 O99 1.247 . S
C106 O100 1.261 . S
C107 O102 1.259 . S
C107 O104 1.235 . S
O108 Co98 2.021 . S
O108 C105 1.238 . S
O109 Co103 2.052 . S
O109 C105 1.241 . S
O110 Co98 2.137 . S
O110 C101 1.247 . S
O111 Co98 2.244 . S
O111 C101 1.272 . S
O111 Co103 2.135 . S
Co112 O113 2.216 . S
Co112 O114 2.091 . S
Co112 O116 2.004 . S
Co112 O122 2.021 . S
Co112 O124 2.137 . S
Co112 O125 2.244 . S
O113 Co112 2.216 . S
O113 C120 1.247 . S
O114 Co112 2.091 . S
O114 C120 1.261 . S
C115 O124 1.247 . S
C115 O125 1.272 . S
O116 Co112 2.004 . S
O116 C121 1.259 . S
Co117 O118 2.061 . S
Co117 O123 2.052 . S
Co117 O125 2.135 . S
O118 Co117 2.061 . S
O118 C121 1.235 . S
C119 O122 1.238 . S
C119 O123 1.241 . S
C120 O113 1.247 . S
C120 O114 1.261 . S
C121 O116 1.259 . S
C121 O118 1.235 . S
O122 Co112 2.021 . S
O122 C119 1.238 . S
O123 Co117 2.052 . S
O123 C119 1.241 . S
O124 Co112 2.137 . S
O124 C115 1.247 . S
O125 Co112 2.244 . S
O125 C115 1.272 . S
O125 Co117 2.135 . S
Co126 O127 2.216 . S
Co126 O128 2.091 . S
Co126 O130 2.004 . S
Co126 O136 2.021 . S
Co126 O138 2.137 . S
Co126 O139 2.244 . S
O127 Co126 2.216 . S
O127 C134 1.247 . S
O128 Co126 2.091 . S
O128 C134 1.261 . S
C129 O138 1.247 . S
C129 O139 1.272 . S
O130 Co126 2.004 . S
O130 C135 1.259 . S
Co131 O132 2.061 . S
Co131 O137 2.052 . S
Co131 O139 2.135 . S
O132 Co131 2.061 . S
O132 C135 1.235 . S
C133 O136 1.238 . S
C133 O137 1.241 . S
C134 O127 1.247 . S
C134 O128 1.261 . S
C135 O130 1.259 . S
C135 O132 1.235 . S
O136 Co126 2.021 . S
O136 C133 1.238 . S
O137 Co131 2.052 . S
O137 C133 1.241 . S
O138 Co126 2.137 . S
O138 C129 1.247 . S
O139 Co126 2.244 . S
O139 C129 1.272 . S
O139 Co131 2.135 . S
Co140 O141 2.216 . S
Co140 O142 2.091 . S
Co140 O144 2.004 . S
Co140 O150 2.021 . S
Co140 O152 2.137 . S
Co140 O153 2.244 . S
O141 Co140 2.216 . S
O141 C148 1.247 . S
O142 Co140 2.091 . S
O142 C148 1.261 . S
C143 O152 1.247 . S
C143 O153 1.272 . S
O144 Co140 2.004 . S
O144 C149 1.259 . S
Co145 O146 2.061 . S
Co145 O151 2.052 . S
Co145 O153 2.135 . S
O146 Co145 2.061 . S
O146 C149 1.235 . S
C147 O150 1.238 . S
C147 O151 1.241 . S
C148 O141 1.247 . S
C148 O142 1.261 . S
C149 O144 1.259 . S
C149 O146 1.235 . S
O150 Co140 2.021 . S
O150 C147 1.238 . S
O151 Co145 2.052 . S
O151 C147 1.241 . S
O152 Co140 2.137 . S
O152 C143 1.247 . S
O153 Co140 2.244 . S
O153 C143 1.272 . S
O153 Co145 2.135 . S
Co154 O155 2.216 . S
Co154 O156 2.091 . S
Co154 O158 2.004 . S
Co154 O164 2.021 . S
Co154 O166 2.137 . S
Co154 O167 2.244 . S
O155 Co154 2.216 . S
O155 C162 1.247 . S
O156 Co154 2.091 . S
O156 C162 1.261 . S
C157 O166 1.247 . S
C157 O167 1.272 . S
O158 Co154 2.004 . S
O158 C163 1.259 . S
Co159 O160 2.061 . S
Co159 O165 2.052 . S
Co159 O167 2.135 . S
O160 Co159 2.061 . S
O160 C163 1.235 . S
C161 O164 1.238 . S
C161 O165 1.241 . S
C162 O155 1.247 . S
C162 O156 1.261 . S
C163 O158 1.259 . S
C163 O160 1.235 . S
O164 Co154 2.021 . S
O164 C161 1.238 . S
O165 Co159 2.052 . S
O165 C161 1.241 . S
O166 Co154 2.137 . S
O166 C157 1.247 . S
O167 Co154 2.244 . S
O167 C157 1.272 . S
O167 Co159 2.135 . S
Co168 O169 2.216 . S
Co168 O170 2.091 . S
Co168 O172 2.004 . S
Co168 O178 2.021 . S
Co168 O180 2.137 . S
Co168 O181 2.244 . S
O169 Co168 2.216 . S
O169 C176 1.247 . S
O170 Co168 2.091 . S
O170 C176 1.261 . S
C171 O180 1.247 . S
C171 O181 1.272 . S
O172 Co168 2.004 . S
O172 C177 1.259 . S
Co173 O174 2.061 . S
Co173 O179 2.052 . S
Co173 O181 2.135 . S
O174 Co173 2.061 . S
O174 C177 1.235 . S
C175 O178 1.238 . S
C175 O179 1.241 . S
C176 O169 1.247 . S
C176 O170 1.261 . S
C177 O172 1.259 . S
C177 O174 1.235 . S
O178 Co168 2.021 . S
O178 C175 1.238 . S
O179 Co173 2.052 . S
O179 C175 1.241 . S
O180 Co168 2.137 . S
O180 C171 1.247 . S
O181 Co168 2.244 . S
O181 C171 1.272 . S
O181 Co173 2.135 . S
Co182 O183 2.216 . S
Co182 O184 2.091 . S
Co182 O186 2.004 . S
Co182 O192 2.021 . S
Co182 O194 2.137 . S
Co182 O195 2.244 . S
O183 Co182 2.216 . S
O183 C190 1.247 . S
O184 Co182 2.091 . S
O184 C190 1.261 . S
C185 O194 1.247 . S
C185 O195 1.272 . S
O186 Co182 2.004 . S
O186 C191 1.259 . S
Co187 O188 2.061 . S
Co187 O193 2.052 . S
Co187 O195 2.135 . S
O188 Co187 2.061 . S
O188 C191 1.235 . S
C189 O192 1.238 . S
C189 O193 1.241 . S
C190 O183 1.247 . S
C190 O184 1.261 . S
C191 O186 1.259 . S
C191 O188 1.235 . S
O192 Co182 2.021 . S
O192 C189 1.238 . S
O193 Co187 2.052 . S
O193 C189 1.241 . S
O194 Co182 2.137 . S
O194 C185 1.247 . S
O195 Co182 2.244 . S
O195 C185 1.272 . S
O195 Co187 2.135 . S
Co196 O197 2.216 . S
Co196 O198 2.091 . S
Co196 O200 2.004 . S
Co196 O206 2.021 . S
Co196 O208 2.137 . S
Co196 O209 2.244 . S
O197 Co196 2.216 . S
O197 C204 1.247 . S
O198 Co196 2.091 . S
O198 C204 1.261 . S
C199 O208 1.247 . S
C199 O209 1.272 . S
O200 Co196 2.004 . S
O200 C205 1.259 . S
Co201 O202 2.061 . S
Co201 O207 2.052 . S
Co201 O209 2.135 . S
O202 Co201 2.061 . S
O202 C205 1.235 . S
C203 O206 1.238 . S
C203 O207 1.241 . S
C204 O197 1.247 . S
C204 O198 1.261 . S
C205 O200 1.259 . S
C205 O202 1.235 . S
O206 Co196 2.021 . S
O206 C203 1.238 . S
O207 Co201 2.052 . S
O207 C203 1.241 . S
O208 Co196 2.137 . S
O208 C199 1.247 . S
O209 Co196 2.244 . S
O209 C199 1.272 . S
O209 Co201 2.135 . S
Co210 O211 2.216 . S
Co210 O212 2.091 . S
Co210 O214 2.004 . S
Co210 O220 2.021 . S
Co210 O222 2.137 . S
Co210 O223 2.244 . S
O211 Co210 2.216 . S
O211 C218 1.247 . S
O212 Co210 2.091 . S
O212 C218 1.261 . S
C213 O222 1.247 . S
C213 O223 1.272 . S
O214 Co210 2.004 . S
O214 C219 1.259 . S
Co215 O216 2.061 . S
Co215 O221 2.052 . S
Co215 O223 2.135 . S
O216 Co215 2.061 . S
O216 C219 1.235 . S
C217 O220 1.238 . S
C217 O221 1.241 . S
C218 O211 1.247 . S
C218 O212 1.261 . S
C219 O214 1.259 . S
C219 O216 1.235 . S
O220 Co210 2.021 . S
O220 C217 1.238 . S
O221 Co215 2.052 . S
O221 C217 1.241 . S
O222 Co210 2.137 . S
O222 C213 1.247 . S
O223 Co210 2.244 . S
O223 C213 1.272 . S
O223 Co215 2.135 . S
Co224 O225 2.216 . S
Co224 O226 2.091 . S
Co224 O228 2.004 . S
Co224 O234 2.021 . S
Co224 O236 2.137 . S
Co224 O237 2.244 . S
O225 Co224 2.216 . S
O225 C232 1.247 . S
O226 Co224 2.091 . S
O226 C232 1.261 . S
C227 O236 1.247 . S
C227 O237 1.272 . S
O228 Co224 2.004 . S
O228 C233 1.259 . S
Co229 O230 2.061 . S
Co229 O235 2.052 . S
Co229 O237 2.135 . S
O230 Co229 2.061 . S
O230 C233 1.235 . S
C231 O234 1.238 . S
C231 O235 1.241 . S
C232 O225 1.247 . S
C232 O226 1.261 . S
C233 O228 1.259 . S
C233 O230 1.235 . S
O234 Co224 2.021 . S
O234 C231 1.238 . S
O235 Co229 2.052 . S
O235 C231 1.241 . S
O236 Co224 2.137 . S
O236 C227 1.247 . S
O237 Co224 2.244 . S
O237 C227 1.272 . S
O237 Co229 2.135 . S
Co238 O239 2.216 . S
Co238 O240 2.091 . S
Co238 O242 2.004 . S
Co238 O248 2.021 . S
Co238 O250 2.137 . S
Co238 O251 2.244 . S
O239 Co238 2.216 . S
O239 C246 1.247 . S
O240 Co238 2.091 . S
O240 C246 1.261 . S
C241 O250 1.247 . S
C241 O251 1.272 . S
O242 Co238 2.004 . S
O242 C247 1.259 . S
Co243 O244 2.061 . S
Co243 O249 2.052 . S
Co243 O251 2.135 . S
O244 Co243 2.061 . S
O244 C247 1.235 . S
C245 O248 1.238 . S
C245 O249 1.241 . S
C246 O239 1.247 . S
C246 O240 1.261 . S
C247 O242 1.259 . S
C247 O244 1.235 . S
O248 Co238 2.021 . S
O248 C245 1.238 . S
O249 Co243 2.052 . S
O249 C245 1.241 . S
O250 Co238 2.137 . S
O250 C241 1.247 . S
O251 Co238 2.244 . S
O251 C241 1.272 . S
O251 Co243 2.135 . S
Co252 O253 2.216 . S
Co252 O254 2.091 . S
Co252 O256 2.004 . S
Co252 O262 2.021 . S
Co252 O264 2.137 . S
Co252 O265 2.244 . S
O253 Co252 2.216 . S
O253 C260 1.247 . S
O254 Co252 2.091 . S
O254 C260 1.261 . S
C255 O264 1.247 . S
C255 O265 1.272 . S
O256 Co252 2.004 . S
O256 C261 1.259 . S
Co257 O258 2.061 . S
Co257 O263 2.052 . S
Co257 O265 2.135 . S
O258 Co257 2.061 . S
O258 C261 1.235 . S
C259 O262 1.238 . S
C259 O263 1.241 . S
C260 O253 1.247 . S
C260 O254 1.261 . S
C261 O256 1.259 . S
C261 O258 1.235 . S
O262 Co252 2.021 . S
O262 C259 1.238 . S
O263 Co257 2.052 . S
O263 C259 1.241 . S
O264 Co252 2.137 . S
O264 C255 1.247 . S
O265 Co252 2.244 . S
O265 C255 1.272 . S
O265 Co257 2.135 . S
Co266 O267 2.216 . S
Co266 O268 2.091 . S
Co266 O270 2.004 . S
Co266 O276 2.021 . S
Co266 O278 2.137 . S
Co266 O279 2.244 . S
O267 Co266 2.216 . S
O267 C274 1.247 . S
O268 Co266 2.091 . S
O268 C274 1.261 . S
C269 O278 1.247 . S
C269 O279 1.272 . S
O270 Co266 2.004 . S
O270 C275 1.259 . S
Co271 O272 2.061 . S
Co271 O277 2.052 . S
Co271 O279 2.135 . S
O272 Co271 2.061 . S
O272 C275 1.235 . S
C273 O276 1.238 . S
C273 O277 1.241 . S
C274 O267 1.247 . S
C274 O268 1.261 . S
C275 O270 1.259 . S
C275 O272 1.235 . S
O276 Co266 2.021 . S
O276 C273 1.238 . S
O277 Co271 2.052 . S
O277 C273 1.241 . S
O278 Co266 2.137 . S
O278 C269 1.247 . S
O279 Co266 2.244 . S
O279 C269 1.272 . S
O279 Co271 2.135 . S
Co280 O281 2.216 . S
Co280 O282 2.091 . S
Co280 O284 2.004 . S
Co280 O290 2.021 . S
Co280 O292 2.137 . S
Co280 O293 2.244 . S
O281 Co280 2.216 . S
O281 C288 1.247 . S
O282 Co280 2.091 . S
O282 C288 1.261 . S
C283 O292 1.247 . S
C283 O293 1.272 . S
O284 Co280 2.004 . S
O284 C289 1.259 . S
Co285 O286 2.061 . S
Co285 O291 2.052 . S
Co285 O293 2.135 . S
O286 Co285 2.061 . S
O286 C289 1.235 . S
C287 O290 1.238 . S
C287 O291 1.241 . S
C288 O281 1.247 . S
C288 O282 1.261 . S
C289 O284 1.259 . S
C289 O286 1.235 . S
O290 Co280 2.021 . S
O290 C287 1.238 . S
O291 Co285 2.052 . S
O291 C287 1.241 . S
O292 Co280 2.137 . S
O292 C283 1.247 . S
O293 Co280 2.244 . S
O293 C283 1.272 . S
O293 Co285 2.135 . S
Co294 O295 2.216 . S
Co294 O296 2.091 . S
Co294 O298 2.004 . S
Co294 O304 2.021 . S
Co294 O306 2.137 . S
Co294 O307 2.244 . S
O295 Co294 2.216 . S
O295 C302 1.247 . S
O296 Co294 2.091 . S
O296 C302 1.261 . S
C297 O306 1.247 . S
C297 O307 1.272 . S
O298 Co294 2.004 . S
O298 C303 1.259 . S
Co299 O300 2.061 . S
Co299 O305 2.052 . S
Co299 O307 2.135 . S
O300 Co299 2.061 . S
O300 C303 1.235 . S
C301 O304 1.238 . S
C301 O305 1.241 . S
C302 O295 1.247 . S
C302 O296 1.261 . S
C303 O298 1.259 . S
C303 O300 1.235 . S
O304 Co294 2.021 . S
O304 C301 1.238 . S
O305 Co299 2.052 . S
O305 C301 1.241 . S
O306 Co294 2.137 . S
O306 C297 1.247 . S
O307 Co294 2.244 . S
O307 C297 1.272 . S
O307 Co299 2.135 . S
Co308 O309 2.216 . S
Co308 O310 2.091 . S
Co308 O312 2.004 . S
Co308 O318 2.021 . S
Co308 O320 2.137 . S
Co308 O321 2.244 . S
O309 Co308 2.216 . S
O309 C316 1.247 . S
O310 Co308 2.091 . S
O310 C316 1.261 . S
C311 O320 1.247 . S
C311 O321 1.272 . S
O312 Co308 2.004 . S
O312 C317 1.259 . S
Co313 O314 2.061 . S
Co313 O319 2.052 . S
Co313 O321 2.135 . S
O314 Co313 2.061 . S
O314 C317 1.235 . S
C315 O318 1.238 . S
C315 O319 1.241 . S
C316 O309 1.247 . S
C316 O310 1.261 . S
C317 O312 1.259 . S
C317 O314 1.235 . S
O318 Co308 2.021 . S
O318 C315 1.238 . S
O319 Co313 2.052 . S
O319 C315 1.241 . S
O320 Co308 2.137 . S
O320 C311 1.247 . S
O321 Co308 2.244 . S
O321 C311 1.272 . S
O321 Co313 2.135 . S
Co322 O323 2.216 . S
Co322 O324 2.091 . S
Co322 O326 2.004 . S
Co322 O332 2.021 . S
Co322 O334 2.137 . S
Co322 O335 2.244 . S
O323 Co322 2.216 . S
O323 C330 1.247 . S
O324 Co322 2.091 . S
O324 C330 1.261 . S
C325 O334 1.247 . S
C325 O335 1.272 . S
O326 Co322 2.004 . S
O326 C331 1.259 . S
Co327 O328 2.061 . S
Co327 O333 2.052 . S
Co327 O335 2.135 . S
O328 Co327 2.061 . S
O328 C331 1.235 . S
C329 O332 1.238 . S
C329 O333 1.241 . S
C330 O323 1.247 . S
C330 O324 1.261 . S
C331 O326 1.259 . S
C331 O328 1.235 . S
O332 Co322 2.021 . S
O332 C329 1.238 . S
O333 Co327 2.052 . S
O333 C329 1.241 . S
O334 Co322 2.137 . S
O334 C325 1.247 . S
O335 Co322 2.244 . S
O335 C325 1.272 . S
O335 Co327 2.135 . S
Co336 O337 2.216 . S
Co336 O338 2.091 . S
Co336 O340 2.004 . S
Co336 O346 2.021 . S
Co336 O348 2.137 . S
Co336 O349 2.244 . S
O337 Co336 2.216 . S
O337 C344 1.247 . S
O338 Co336 2.091 . S
O338 C344 1.261 . S
C339 O348 1.247 . S
C339 O349 1.272 . S
O340 Co336 2.004 . S
O340 C345 1.259 . S
Co341 O342 2.061 . S
Co341 O347 2.052 . S
Co341 O349 2.135 . S
O342 Co341 2.061 . S
O342 C345 1.235 . S
C343 O346 1.238 . S
C343 O347 1.241 . S
C344 O337 1.247 . S
C344 O338 1.261 . S
C345 O340 1.259 . S
C345 O342 1.235 . S
O346 Co336 2.021 . S
O346 C343 1.238 . S
O347 Co341 2.052 . S
O347 C343 1.241 . S
O348 Co336 2.137 . S
O348 C339 1.247 . S
O349 Co336 2.244 . S
O349 C339 1.272 . S
O349 Co341 2.135 . S
Co350 O351 2.216 . S
Co350 O352 2.091 . S
Co350 O354 2.004 . S
Co350 O360 2.021 . S
Co350 O362 2.137 . S
Co350 O363 2.244 . S
O351 Co350 2.216 . S
O351 C358 1.247 . S
O352 Co350 2.091 . S
O352 C358 1.261 . S
C353 O362 1.247 . S
C353 O363 1.272 . S
O354 Co350 2.004 . S
O354 C359 1.259 . S
Co355 O356 2.061 . S
Co355 O361 2.052 . S
Co355 O363 2.135 . S
O356 Co355 2.061 . S
O356 C359 1.235 . S
C357 O360 1.238 . S
C357 O361 1.241 . S
C358 O351 1.247 . S
C358 O352 1.261 . S
C359 O354 1.259 . S
C359 O356 1.235 . S
O360 Co350 2.021 . S
O360 C357 1.238 . S
O361 Co355 2.052 . S
O361 C357 1.241 . S
O362 Co350 2.137 . S
O362 C353 1.247 . S
O363 Co350 2.244 . S
O363 C353 1.272 . S
O363 Co355 2.135 . S
Co364 O365 2.216 . S
Co364 O366 2.091 . S
Co364 O368 2.004 . S
Co364 O374 2.021 . S
Co364 O376 2.137 . S
Co364 O377 2.244 . S
O365 Co364 2.216 . S
O365 C372 1.247 . S
O366 Co364 2.091 . S
O366 C372 1.261 . S
C367 O376 1.247 . S
C367 O377 1.272 . S
O368 Co364 2.004 . S
O368 C373 1.259 . S
Co369 O370 2.061 . S
Co369 O375 2.052 . S
Co369 O377 2.135 . S
O370 Co369 2.061 . S
O370 C373 1.235 . S
C371 O374 1.238 . S
C371 O375 1.241 . S
C372 O365 1.247 . S
C372 O366 1.261 . S
C373 O368 1.259 . S
C373 O370 1.235 . S
O374 Co364 2.021 . S
O374 C371 1.238 . S
O375 Co369 2.052 . S
O375 C371 1.241 . S
O376 Co364 2.137 . S
O376 C367 1.247 . S
O377 Co364 2.244 . S
O377 C367 1.272 . S
O377 Co369 2.135 . S
Co378 O379 2.216 . S
Co378 O380 2.091 . S
Co378 O382 2.004 . S
Co378 O388 2.021 . S
Co378 O390 2.137 . S
Co378 O391 2.244 . S
O379 Co378 2.216 . S
O379 C386 1.247 . S
O380 Co378 2.091 . S
O380 C386 1.261 . S
C381 O390 1.247 . S
C381 O391 1.272 . S
O382 Co378 2.004 . S
O382 C387 1.259 . S
Co383 O384 2.061 . S
Co383 O389 2.052 . S
Co383 O391 2.135 . S
O384 Co383 2.061 . S
O384 C387 1.235 . S
C385 O388 1.238 . S
C385 O389 1.241 . S
C386 O379 1.247 . S
C386 O380 1.261 . S
C387 O382 1.259 . S
C387 O384 1.235 . S
O388 Co378 2.021 . S
O388 C385 1.238 . S
O389 Co383 2.052 . S
O389 C385 1.241 . S
O390 Co378 2.137 . S
O390 C381 1.247 . S
O391 Co378 2.244 . S
O391 C381 1.272 . S
O391 Co383 2.135 . S
Co392 O393 2.216 . S
Co392 O394 2.091 . S
Co392 O396 2.004 . S
Co392 O402 2.021 . S
Co392 O404 2.137 . S
Co392 O405 2.244 . S
O393 Co392 2.216 . S
O393 C400 1.247 . S
O394 Co392 2.091 . S
O394 C400 1.261 . S
C395 O404 1.247 . S
C395 O405 1.272 . S
O396 Co392 2.004 . S
O396 C401 1.259 . S
Co397 O398 2.061 . S
Co397 O403 2.052 . S
Co397 O405 2.135 . S
O398 Co397 2.061 . S
O398 C401 1.235 . S
C399 O402 1.238 . S
C399 O403 1.241 . S
C400 O393 1.247 . S
C400 O394 1.261 . S
C401 O396 1.259 . S
C401 O398 1.235 . S
O402 Co392 2.021 . S
O402 C399 1.238 . S
O403 Co397 2.052 . S
O403 C399 1.241 . S
O404 Co392 2.137 . S
O404 C395 1.247 . S
O405 Co392 2.244 . S
O405 C395 1.272 . S
O405 Co397 2.135 . S
Co406 O407 2.216 . S
Co406 O408 2.091 . S
Co406 O410 2.004 . S
Co406 O416 2.021 . S
Co406 O418 2.137 . S
Co406 O419 2.244 . S
O407 Co406 2.216 . S
O407 C414 1.247 . S
O408 Co406 2.091 . S
O408 C414 1.261 . S
C409 O418 1.247 . S
C409 O419 1.272 . S
O410 Co406 2.004 . S
O410 C415 1.259 . S
Co411 O412 2.061 . S
Co411 O417 2.052 . S
Co411 O419 2.135 . S
O412 Co411 2.061 . S
O412 C415 1.235 . S
C413 O416 1.238 . S
C413 O417 1.241 . S
C414 O407 1.247 . S
C414 O408 1.261 . S
C415 O410 1.259 . S
C415 O412 1.235 . S
O416 Co406 2.021 . S
O416 C413 1.238 . S
O417 Co411 2.052 . S
O417 C413 1.241 . S
O418 Co406 2.137 . S
O418 C409 1.247 . S
O419 Co406 2.244 . S
O419 C409 1.272 . S
O419 Co411 2.135 . S
Co420 O421 2.216 . S
Co420 O422 2.091 . S
Co420 O424 2.004 . S
Co420 O430 2.021 . S
Co420 O432 2.137 . S
Co420 O433 2.244 . S
O421 Co420 2.216 . S
O421 C428 1.247 . S
O422 Co420 2.091 . S
O422 C428 1.261 . S
C423 O432 1.247 . S
C423 O433 1.272 . S
O424 Co420 2.004 . S
O424 C429 1.259 . S
Co425 O426 2.061 . S
Co425 O431 2.052 . S
Co425 O433 2.135 . S
O426 Co425 2.061 . S
O426 C429 1.235 . S
C427 O430 1.238 . S
C427 O431 1.241 . S
C428 O421 1.247 . S
C428 O422 1.261 . S
C429 O424 1.259 . S
C429 O426 1.235 . S
O430 Co420 2.021 . S
O430 C427 1.238 . S
O431 Co425 2.052 . S
O431 C427 1.241 . S
O432 Co420 2.137 . S
O432 C423 1.247 . S
O433 Co420 2.244 . S
O433 C423 1.272 . S
O433 Co425 2.135 . S
Co434 O435 2.216 . S
Co434 O436 2.091 . S
Co434 O438 2.004 . S
Co434 O444 2.021 . S
Co434 O446 2.137 . S
Co434 O447 2.244 . S
O435 Co434 2.216 . S
O435 C442 1.247 . S
O436 Co434 2.091 . S
O436 C442 1.261 . S
C437 O446 1.247 . S
C437 O447 1.272 . S
O438 Co434 2.004 . S
O438 C443 1.259 . S
Co439 O440 2.061 . S
Co439 O445 2.052 . S
Co439 O447 2.135 . S
O440 Co439 2.061 . S
O440 C443 1.235 . S
C441 O444 1.238 . S
C441 O445 1.241 . S
C442 O435 1.247 . S
C442 O436 1.261 . S
C443 O438 1.259 . S
C443 O440 1.235 . S
O444 Co434 2.021 . S
O444 C441 1.238 . S
O445 Co439 2.052 . S
O445 C441 1.241 . S
O446 Co434 2.137 . S
O446 C437 1.247 . S
O447 Co434 2.244 . S
O447 C437 1.272 . S
O447 Co439 2.135 . S
Co448 O449 2.216 . S
Co448 O450 2.091 . S
Co448 O452 2.004 . S
Co448 O458 2.021 . S
Co448 O460 2.137 . S
Co448 O461 2.244 . S
O449 Co448 2.216 . S
O449 C456 1.247 . S
O450 Co448 2.091 . S
O450 C456 1.261 . S
C451 O460 1.247 . S
C451 O461 1.272 . S
O452 Co448 2.004 . S
O452 C457 1.259 . S
Co453 O454 2.061 . S
Co453 O459 2.052 . S
Co453 O461 2.135 . S
O454 Co453 2.061 . S
O454 C457 1.235 . S
C455 O458 1.238 . S
C455 O459 1.241 . S
C456 O449 1.247 . S
C456 O450 1.261 . S
C457 O452 1.259 . S
C457 O454 1.235 . S
O458 Co448 2.021 . S
O458 C455 1.238 . S
O459 Co453 2.052 . S
O459 C455 1.241 . S
O460 Co448 2.137 . S
O460 C451 1.247 . S
O461 Co448 2.244 . S
O461 C451 1.272 . S
O461 Co453 2.135 . S
Co462 O463 2.216 . S
Co462 O464 2.091 . S
Co462 O466 2.004 . S
Co462 O472 2.021 . S
Co462 O474 2.137 . S
Co462 O475 2.244 . S
O463 Co462 2.216 . S
O463 C470 1.247 . S
O464 Co462 2.091 . S
O464 C470 1.261 . S
C465 O474 1.247 . S
C465 O475 1.272 . S
O466 Co462 2.004 . S
O466 C471 1.259 . S
Co467 O468 2.061 . S
Co467 O473 2.052 . S
Co467 O475 2.135 . S
O468 Co467 2.061 . S
O468 C471 1.235 . S
C469 O472 1.238 . S
C469 O473 1.241 . S
C470 O463 1.247 . S
C470 O464 1.261 . S
C471 O466 1.259 . S
C471 O468 1.235 . S
O472 Co462 2.021 . S
O472 C469 1.238 . S
O473 Co467 2.052 . S
O473 C469 1.241 . S
O474 Co462 2.137 . S
O474 C465 1.247 . S
O475 Co462 2.244 . S
O475 C465 1.272 . S
O475 Co467 2.135 . S
Co476 O477 2.216 . S
Co476 O478 2.091 . S
Co476 O480 2.004 . S
Co476 O486 2.021 . S
Co476 O488 2.137 . S
Co476 O489 2.244 . S
O477 Co476 2.216 . S
O477 C484 1.247 . S
O478 Co476 2.091 . S
O478 C484 1.261 . S
C479 O488 1.247 . S
C479 O489 1.272 . S
O480 Co476 2.004 . S
O480 C485 1.259 . S
Co481 O482 2.061 . S
Co481 O487 2.052 . S
Co481 O489 2.135 . S
O482 Co481 2.061 . S
O482 C485 1.235 . S
C483 O486 1.238 . S
C483 O487 1.241 . S
C484 O477 1.247 . S
C484 O478 1.261 . S
C485 O480 1.259 . S
C485 O482 1.235 . S
O486 Co476 2.021 . S
O486 C483 1.238 . S
O487 Co481 2.052 . S
O487 C483 1.241 . S
O488 Co476 2.137 . S
O488 C479 1.247 . S
O489 Co476 2.244 . S
O489 C479 1.272 . S
O489 Co481 2.135 . S
Co490 O491 2.216 . S
Co490 O492 2.091 . S
Co490 O494 2.004 . S
Co490 O500 2.021 . S
Co490 O502 2.137 . S
Co490 O503 2.244 . S
O491 Co490 2.216 . S
O491 C498 1.247 . S
O492 Co490 2.091 . S
O492 C498 1.261 . S
C493 O502 1.247 . S
C493 O503 1.272 . S
O494 Co490 2.004 . S
O494 C499 1.259 . S
Co495 O496 2.061 . S
Co495 O501 2.052 . S
Co495 O503 2.135 . S
O496 Co495 2.061 . S
O496 C499 1.235 . S
C497 O500 1.238 . S
C497 O501 1.241 . S
C498 O491 1.247 . S
C498 O492 1.261 . S
C499 O494 1.259 . S
C499 O496 1.235 . S
O500 Co490 2.021 . S
O500 C497 1.238 . S
O501 Co495 2.052 . S
O501 C497 1.241 . S
O502 Co490 2.137 . S
O502 C493 1.247 . S
O503 Co490 2.244 . S
O503 C493 1.272 . S
O503 Co495 2.135 . S
Co504 O505 2.216 . S
Co504 O506 2.091 . S
Co504 O508 2.004 . S
Co504 O514 2.021 . S
Co504 O516 2.137 . S
Co504 O517 2.244 . S
O505 Co504 2.216 . S
O505 C512 1.247 . S
O506 Co504 2.091 . S
O506 C512 1.261 . S
C507 O516 1.247 . S
C507 O517 1.272 . S
O508 Co504 2.004 . S
O508 C513 1.259 . S
Co509 O510 2.061 . S
Co509 O515 2.052 . S
Co509 O517 2.135 . S
O510 Co509 2.061 . S
O510 C513 1.235 . S
C511 O514 1.238 . S
C511 O515 1.241 . S
C512 O505 1.247 . S
C512 O506 1.261 . S
C513 O508 1.259 . S
C513 O510 1.235 . S
O514 Co504 2.021 . S
O514 C511 1.238 . S
O515 Co509 2.052 . S
O515 C511 1.241 . S
O516 Co504 2.137 . S
O516 C507 1.247 . S
O517 Co504 2.244 . S
O517 C507 1.272 . S
O517 Co509 2.135 . S
Co518 O519 2.216 . S
Co518 O520 2.091 . S
Co518 O522 2.004 . S
Co518 O528 2.021 . S
Co518 O530 2.137 . S
Co518 O531 2.244 . S
O519 Co518 2.216 . S
O519 C526 1.247 . S
O520 Co518 2.091 . S
O520 C526 1.261 . S
C521 O530 1.247 . S
C521 O531 1.272 . S
O522 Co518 2.004 . S
O522 C527 1.259 . S
Co523 O524 2.061 . S
Co523 O529 2.052 . S
Co523 O531 2.135 . S
O524 Co523 2.061 . S
O524 C527 1.235 . S
C525 O528 1.238 . S
C525 O529 1.241 . S
C526 O519 1.247 . S
C526 O520 1.261 . S
C527 O522 1.259 . S
C527 O524 1.235 . S
O528 Co518 2.021 . S
O528 C525 1.238 . S
O529 Co523 2.052 . S
O529 C525 1.241 . S
O530 Co518 2.137 . S
O530 C521 1.247 . S
O531 Co518 2.244 . S
O531 C521 1.272 . S
O531 Co523 2.135 . S
Co532 O533 2.216 . S
Co532 O534 2.091 . S
Co532 O536 2.004 . S
Co532 O542 2.021 . S
Co532 O544 2.137 . S
Co532 O545 2.244 . S
O533 Co532 2.216 . S
O533 C540 1.247 . S
O534 Co532 2.091 . S
O534 C540 1.261 . S
C535 O544 1.247 . S
C535 O545 1.272 . S
O536 Co532 2.004 . S
O536 C541 1.259 . S
Co537 O538 2.061 . S
Co537 O543 2.052 . S
Co537 O545 2.135 . S
O538 Co537 2.061 . S
O538 C541 1.235 . S
C539 O542 1.238 . S
C539 O543 1.241 . S
C540 O533 1.247 . S
C540 O534 1.261 . S
C541 O536 1.259 . S
C541 O538 1.235 . S
O542 Co532 2.021 . S
O542 C539 1.238 . S
O543 Co537 2.052 . S
O543 C539 1.241 . S
O544 Co532 2.137 . S
O544 C535 1.247 . S
O545 Co532 2.244 . S
O545 C535 1.272 . S
O545 Co537 2.135 . S
Co546 O547 2.216 . S
Co546 O548 2.091 . S
Co546 O550 2.004 . S
Co546 O556 2.021 . S
Co546 O558 2.137 . S
Co546 O559 2.244 . S
O547 Co546 2.216 . S
O547 C554 1.247 . S
O548 Co546 2.091 . S
O548 C554 1.261 . S
C549 O558 1.247 . S
C549 O559 1.272 . S
O550 Co546 2.004 . S
O550 C555 1.259 . S
Co551 O552 2.061 . S
Co551 O557 2.052 . S
Co551 O559 2.135 . S
O552 Co551 2.061 . S
O552 C555 1.235 . S
C553 O556 1.238 . S
C553 O557 1.241 . S
C554 O547 1.247 . S
C554 O548 1.261 . S
C555 O550 1.259 . S
C555 O552 1.235 . S
O556 Co546 2.021 . S
O556 C553 1.238 . S
O557 Co551 2.052 . S
O557 C553 1.241 . S
O558 Co546 2.137 . S
O558 C549 1.247 . S
O559 Co546 2.244 . S
O559 C549 1.272 . S
O559 Co551 2.135 . S
Co560 O561 2.216 . S
Co560 O562 2.091 . S
Co560 O564 2.004 . S
Co560 O570 2.021 . S
Co560 O572 2.137 . S
Co560 O573 2.244 . S
O561 Co560 2.216 . S
O561 C568 1.247 . S
O562 Co560 2.091 . S
O562 C568 1.261 . S
C563 O572 1.247 . S
C563 O573 1.272 . S
O564 Co560 2.004 . S
O564 C569 1.259 . S
Co565 O566 2.061 . S
Co565 O571 2.052 . S
Co565 O573 2.135 . S
O566 Co565 2.061 . S
O566 C569 1.235 . S
C567 O570 1.238 . S
C567 O571 1.241 . S
C568 O561 1.247 . S
C568 O562 1.261 . S
C569 O564 1.259 . S
C569 O566 1.235 . S
O570 Co560 2.021 . S
O570 C567 1.238 . S
O571 Co565 2.052 . S
O571 C567 1.241 . S
O572 Co560 2.137 . S
O572 C563 1.247 . S
O573 Co560 2.244 . S
O573 C563 1.272 . S
O573 Co565 2.135 . S
Co574 O575 2.216 . S
Co574 O576 2.091 . S
Co574 O578 2.004 . S
Co574 O584 2.021 . S
Co574 O586 2.137 . S
Co574 O587 2.244 . S
O575 Co574 2.216 . S
O575 C582 1.247 . S
O576 Co574 2.091 . S
O576 C582 1.261 . S
C577 O586 1.247 . S
C577 O587 1.272 . S
O578 Co574 2.004 . S
O578 C583 1.259 . S
Co579 O580 2.061 . S
Co579 O585 2.052 . S
Co579 O587 2.135 . S
O580 Co579 2.061 . S
O580 C583 1.235 . S
C581 O584 1.238 . S
C581 O585 1.241 . S
C582 O575 1.247 . S
C582 O576 1.261 . S
C583 O578 1.259 . S
C583 O580 1.235 . S
O584 Co574 2.021 . S
O584 C581 1.238 . S
O585 Co579 2.052 . S
O585 C581 1.241 . S
O586 Co574 2.137 . S
O586 C577 1.247 . S
O587 Co574 2.244 . S
O587 C577 1.272 . S
O587 Co579 2.135 . S
Co588 O589 2.216 . S
Co588 O590 2.091 . S
Co588 O592 2.004 . S
Co588 O598 2.021 . S
Co588 O600 2.137 . S
Co588 O601 2.244 . S
O589 Co588 2.216 . S
O589 C596 1.247 . S
O590 Co588 2.091 . S
O590 C596 1.261 . S
C591 O600 1.247 . S
C591 O601 1.272 . S
O592 Co588 2.004 . S
O592 C597 1.259 . S
Co593 O594 2.061 . S
Co593 O599 2.052 . S
Co593 O601 2.135 . S
O594 Co593 2.061 . S
O594 C597 1.235 . S
C595 O598 1.238 . S
C595 O599 1.241 . S
C596 O589 1.247 . S
C596 O590 1.261 . S
C597 O592 1.259 . S
C597 O594 1.235 . S
O598 Co588 2.021 . S
O598 C595 1.238 . S
O599 Co593 2.052 . S
O599 C595 1.241 . S
O600 Co588 2.137 . S
O600 C591 1.247 . S
O601 Co588 2.244 . S
O601 C591 1.272 . S
O601 Co593 2.135 . S
Co602 O603 2.216 . S
Co602 O604 2.091 . S
Co602 O606 2.004 . S
Co602 O612 2.021 . S
Co602 O614 2.137 . S
Co602 O615 2.244 . S
O603 Co602 2.216 . S
O603 C610 1.247 . S
O604 Co602 2.091 . S
O604 C610 1.261 . S
C605 O614 1.247 . S
C605 O615 1.272 . S
O606 Co602 2.004 . S
O606 C611 1.259 . S
Co607 O608 2.061 . S
Co607 O613 2.052 . S
Co607 O615 2.135 . S
O608 Co607 2.061 . S
O608 C611 1.235 . S
C609 O612 1.238 . S
C609 O613 1.241 . S
C610 O603 1.247 . S
C610 O604 1.261 . S
C611 O606 1.259 . S
C611 O608 1.235 . S
O612 Co602 2.021 . S
O612 C609 1.238 . S
O613 Co607 2.052 . S
O613 C609 1.241 . S
O614 Co602 2.137 . S
O614 C605 1.247 . S
O615 Co602 2.244 . S
O615 C605 1.272 . S
O615 Co607 2.135 . S
Co616 O617 2.216 . S
Co616 O618 2.091 . S
Co616 O620 2.004 . S
Co616 O626 2.021 . S
Co616 O628 2.137 . S
Co616 O629 2.244 . S
O617 Co616 2.216 . S
O617 C624 1.247 . S
O618 Co616 2.091 . S
O618 C624 1.261 . S
C619 O628 1.247 . S
C619 O629 1.272 . S
O620 Co616 2.004 . S
O620 C625 1.259 . S
Co621 O622 2.061 . S
Co621 O627 2.052 . S
Co621 O629 2.135 . S
O622 Co621 2.061 . S
O622 C625 1.235 . S
C623 O626 1.238 . S
C623 O627 1.241 . S
C624 O617 1.247 . S
C624 O618 1.261 . S
C625 O620 1.259 . S
C625 O622 1.235 . S
O626 Co616 2.021 . S
O626 C623 1.238 . S
O627 Co621 2.052 . S
O627 C623 1.241 . S
O628 Co616 2.137 . S
O628 C619 1.247 . S
O629 Co616 2.244 . S
O629 C619 1.272 . S
O629 Co621 2.135 . S
Co630 O631 2.216 . S
Co630 O632 2.091 . S
Co630 O634 2.004 . S
Co630 O640 2.021 . S
Co630 O642 2.137 . S
Co630 O643 2.244 . S
O631 Co630 2.216 . S
O631 C638 1.247 . S
O632 Co630 2.091 . S
O632 C638 1.261 . S
C633 O642 1.247 . S
C633 O643 1.272 . S
O634 Co630 2.004 . S
O634 C639 1.259 . S
Co635 O636 2.061 . S
Co635 O641 2.052 . S
Co635 O643 2.135 . S
O636 Co635 2.061 . S
O636 C639 1.235 . S
C637 O640 1.238 . S
C637 O641 1.241 . S
C638 O631 1.247 . S
C638 O632 1.261 . S
C639 O634 1.259 . S
C639 O636 1.235 . S
O640 Co630 2.021 . S
O640 C637 1.238 . S
O641 Co635 2.052 . S
O641 C637 1.241 . S
O642 Co630 2.137 . S
O642 C633 1.247 . S
O643 Co630 2.244 . S
O643 C633 1.272 . S
O643 Co635 2.135 . S
Co644 O645 2.216 . S
Co644 O646 2.091 . S
Co644 O648 2.004 . S
Co644 O654 2.021 . S
Co644 O656 2.137 . S
Co644 O657 2.244 . S
O645 Co644 2.216 . S
O645 C652 1.247 . S
O646 Co644 2.091 . S
O646 C652 1.261 . S
C647 O656 1.247 . S
C647 O657 1.272 . S
O648 Co644 2.004 . S
O648 C653 1.259 . S
Co649 O650 2.061 . S
Co649 O655 2.052 . S
Co649 O657 2.135 . S
O650 Co649 2.061 . S
O650 C653 1.235 . S
C651 O654 1.238 . S
C651 O655 1.241 . S
C652 O645 1.247 . S
C652 O646 1.261 . S
C653 O648 1.259 . S
C653 O650 1.235 . S
O654 Co644 2.021 . S
O654 C651 1.238 . S
O655 Co649 2.052 . S
O655 C651 1.241 . S
O656 Co644 2.137 . S
O656 C647 1.247 . S
O657 Co644 2.244 . S
O657 C647 1.272 . S
O657 Co649 2.135 . S
Co658 O659 2.216 . S
Co658 O660 2.091 . S
Co658 O662 2.004 . S
Co658 O668 2.021 . S
Co658 O670 2.137 . S
Co658 O671 2.244 . S
O659 Co658 2.216 . S
O659 C666 1.247 . S
O660 Co658 2.091 . S
O660 C666 1.261 . S
C661 O670 1.247 . S
C661 O671 1.272 . S
O662 Co658 2.004 . S
O662 C667 1.259 . S
Co663 O664 2.061 . S
Co663 O669 2.052 . S
Co663 O671 2.135 . S
O664 Co663 2.061 . S
O664 C667 1.235 . S
C665 O668 1.238 . S
C665 O669 1.241 . S
C666 O659 1.247 . S
C666 O660 1.261 . S
C667 O662 1.259 . S
C667 O664 1.235 . S
O668 Co658 2.021 . S
O668 C665 1.238 . S
O669 Co663 2.052 . S
O669 C665 1.241 . S
O670 Co658 2.137 . S
O670 C661 1.247 . S
O671 Co658 2.244 . S
O671 C661 1.272 . S
O671 Co663 2.135 . S
Co672 O673 2.216 . S
Co672 O674 2.091 . S
Co672 O676 2.004 . S
Co672 O682 2.021 . S
Co672 O684 2.137 . S
Co672 O685 2.244 . S
O673 Co672 2.216 . S
O673 C680 1.247 . S
O674 Co672 2.091 . S
O674 C680 1.261 . S
C675 O684 1.247 . S
C675 O685 1.272 . S
O676 Co672 2.004 . S
O676 C681 1.259 . S
Co677 O678 2.061 . S
Co677 O683 2.052 . S
Co677 O685 2.135 . S
O678 Co677 2.061 . S
O678 C681 1.235 . S
C679 O682 1.238 . S
C679 O683 1.241 . S
C680 O673 1.247 . S
C680 O674 1.261 . S
C681 O676 1.259 . S
C681 O678 1.235 . S
O682 Co672 2.021 . S
O682 C679 1.238 . S
O683 Co677 2.052 . S
O683 C679 1.241 . S
O684 Co672 2.137 . S
O684 C675 1.247 . S
O685 Co672 2.244 . S
O685 C675 1.272 . S
O685 Co677 2.135 . S
Co686 O687 2.216 . S
Co686 O688 2.091 . S
Co686 O690 2.004 . S
Co686 O696 2.021 . S
Co686 O698 2.137 . S
Co686 O699 2.244 . S
O687 Co686 2.216 . S
O687 C694 1.247 . S
O688 Co686 2.091 . S
O688 C694 1.261 . S
C689 O698 1.247 . S
C689 O699 1.272 . S
O690 Co686 2.004 . S
O690 C695 1.259 . S
Co691 O692 2.061 . S
Co691 O697 2.052 . S
Co691 O699 2.135 . S
O692 Co691 2.061 . S
O692 C695 1.235 . S
C693 O696 1.238 . S
C693 O697 1.241 . S
C694 O687 1.247 . S
C694 O688 1.261 . S
C695 O690 1.259 . S
C695 O692 1.235 . S
O696 Co686 2.021 . S
O696 C693 1.238 . S
O697 Co691 2.052 . S
O697 C693 1.241 . S
O698 Co686 2.137 . S
O698 C689 1.247 . S
O699 Co686 2.244 . S
O699 C689 1.272 . S
O699 Co691 2.135 . S
Co700 O701 2.216 . S
Co700 O702 2.091 . S
Co700 O704 2.004 . S
Co700 O710 2.021 . S
Co700 O712 2.137 . S
Co700 O713 2.244 . S
O701 Co700 2.216 . S
O701 C708 1.247 . S
O702 Co700 2.091 . S
O702 C708 1.261 . S
C703 O712 1.247 . S
C703 O713 1.272 . S
O704 Co700 2.004 . S
O704 C709 1.259 . S
Co705 O706 2.061 . S
Co705 O711 2.052 . S
Co705 O713 2.135 . S
O706 Co705 2.061 . S
O706 C709 1.235 . S
C707 O710 1.238 . S
C707 O711 1.241 . S
C708 O701 1.247 . S
C708 O702 1.261 . S
C709 O704 1.259 . S
C709 O706 1.235 . S
O710 Co700 2.021 . S
O710 C707 1.238 . S
O711 Co705 2.052 . S
O711 C707 1.241 . S
O712 Co700 2.137 . S
O712 C703 1.247 . S
O713 Co700 2.244 . S
O713 C703 1.272 . S
O713 Co705 2.135 . S
Co714 O715 2.216 . S
Co714 O716 2.091 . S
Co714 O718 2.004 . S
Co714 O724 2.021 . S
Co714 O726 2.137 . S
Co714 O727 2.244 . S
O715 Co714 2.216 . S
O715 C722 1.247 . S
O716 Co714 2.091 . S
O716 C722 1.261 . S
C717 O726 1.247 . S
C717 O727 1.272 . S
O718 Co714 2.004 . S
O718 C723 1.259 . S
Co719 O720 2.061 . S
Co719 O725 2.052 . S
Co719 O727 2.135 . S
O720 Co719 2.061 . S
O720 C723 1.235 . S
C721 O724 1.238 . S
C721 O725 1.241 . S
C722 O715 1.247 . S
C722 O716 1.261 . S
C723 O718 1.259 . S
C723 O720 1.235 . S
O724 Co714 2.021 . S
O724 C721 1.238 . S
O725 Co719 2.052 . S
O725 C721 1.241 . S
O726 Co714 2.137 . S
O726 C717 1.247 . S
O727 Co714 2.244 . S
O727 C717 1.272 . S
O727 Co719 2.135 . S
Co728 O729 2.216 . S
Co728 O730 2.091 . S
Co728 O732 2.004 . S
Co728 O738 2.021 . S
Co728 O740 2.137 . S
Co728 O741 2.244 . S
O729 Co728 2.216 . S
O729 C736 1.247 . S
O730 Co728 2.091 . S
O730 C736 1.261 . S
C731 O740 1.247 . S
C731 O741 1.272 . S
O732 Co728 2.004 . S
O732 C737 1.259 . S
Co733 O734 2.061 . S
Co733 O739 2.052 . S
Co733 O741 2.135 . S
O734 Co733 2.061 . S
O734 C737 1.235 . S
C735 O738 1.238 . S
C735 O739 1.241 . S
C736 O729 1.247 . S
C736 O730 1.261 . S
C737 O732 1.259 . S
C737 O734 1.235 . S
O738 Co728 2.021 . S
O738 C735 1.238 . S
O739 Co733 2.052 . S
O739 C735 1.241 . S
O740 Co728 2.137 . S
O740 C731 1.247 . S
O741 Co728 2.244 . S
O741 C731 1.272 . S
O741 Co733 2.135 . S
Co742 O743 2.216 . S
Co742 O744 2.091 . S
Co742 O746 2.004 . S
Co742 O752 2.021 . S
Co742 O754 2.137 . S
Co742 O755 2.244 . S
O743 Co742 2.216 . S
O743 C750 1.247 . S
O744 Co742 2.091 . S
O744 C750 1.261 . S
C745 O754 1.247 . S
C745 O755 1.272 . S
O746 Co742 2.004 . S
O746 C751 1.259 . S
Co747 O748 2.061 . S
Co747 O753 2.052 . S
Co747 O755 2.135 . S
O748 Co747 2.061 . S
O748 C751 1.235 . S
C749 O752 1.238 . S
C749 O753 1.241 . S
C750 O743 1.247 . S
C750 O744 1.261 . S
C751 O746 1.259 . S
C751 O748 1.235 . S
O752 Co742 2.021 . S
O752 C749 1.238 . S
O753 Co747 2.052 . S
O753 C749 1.241 . S
O754 Co742 2.137 . S
O754 C745 1.247 . S
O755 Co742 2.244 . S
O755 C745 1.272 . S
O755 Co747 2.135 . S
Co756 O757 2.216 . S
Co756 O758 2.091 . S
Co756 O760 2.004 . S
Co756 O766 2.021 . S
Co756 O768 2.137 . S
Co756 O769 2.244 . S
O757 Co756 2.216 . S
O757 C764 1.247 . S
O758 Co756 2.091 . S
O758 C764 1.261 . S
C759 O768 1.247 . S
C759 O769 1.272 . S
O760 Co756 2.004 . S
O760 C765 1.259 . S
Co761 O762 2.061 . S
Co761 O767 2.052 . S
Co761 O769 2.135 . S
O762 Co761 2.061 . S
O762 C765 1.235 . S
C763 O766 1.238 . S
C763 O767 1.241 . S
C764 O757 1.247 . S
C764 O758 1.261 . S
C765 O760 1.259 . S
C765 O762 1.235 . S
O766 Co756 2.021 . S
O766 C763 1.238 . S
O767 Co761 2.052 . S
O767 C763 1.241 . S
O768 Co756 2.137 . S
O768 C759 1.247 . S
O769 Co756 2.244 . S
O769 C759 1.272 . S
O769 Co761 2.135 . S
Co770 O771 2.216 . S
Co770 O772 2.091 . S
Co770 O774 2.004 . S
Co770 O780 2.021 . S
Co770 O782 2.137 . S
Co770 O783 2.244 . S
O771 Co770 2.216 . S
O771 C778 1.247 . S
O772 Co770 2.091 . S
O772 C778 1.261 . S
C773 O782 1.247 . S
C773 O783 1.272 . S
O774 Co770 2.004 . S
O774 C779 1.259 . S
Co775 O776 2.061 . S
Co775 O781 2.052 . S
Co775 O783 2.135 . S
O776 Co775 2.061 . S
O776 C779 1.235 . S
C777 O780 1.238 . S
C777 O781 1.241 . S
C778 O771 1.247 . S
C778 O772 1.261 . S
C779 O774 1.259 . S
C779 O776 1.235 . S
O780 Co770 2.021 . S
O780 C777 1.238 . S
O781 Co775 2.052 . S
O781 C777 1.241 . S
O782 Co770 2.137 . S
O782 C773 1.247 . S
O783 Co770 2.244 . S
O783 C773 1.272 . S
O783 Co775 2.135 . S
Co784 O785 2.216 . S
Co784 O786 2.091 . S
Co784 O788 2.004 . S
Co784 O794 2.021 . S
Co784 O796 2.137 . S
Co784 O797 2.244 . S
O785 Co784 2.216 . S
O785 C792 1.247 . S
O786 Co784 2.091 . S
O786 C792 1.261 . S
C787 O796 1.247 . S
C787 O797 1.272 . S
O788 Co784 2.004 . S
O788 C793 1.259 . S
Co789 O790 2.061 . S
Co789 O795 2.052 . S
Co789 O797 2.135 . S
O790 Co789 2.061 . S
O790 C793 1.235 . S
C791 O794 1.238 . S
C791 O795 1.241 . S
C792 O785 1.247 . S
C792 O786 1.261 . S
C793 O788 1.259 . S
C793 O790 1.235 . S
O794 Co784 2.021 . S
O794 C791 1.238 . S
O795 Co789 2.052 . S
O795 C791 1.241 . S
O796 Co784 2.137 . S
O796 C787 1.247 . S
O797 Co784 2.244 . S
O797 C787 1.272 . S
O797 Co789 2.135 . S
Co798 O799 2.216 . S
Co798 O800 2.091 . S
Co798 O802 2.004 . S
Co798 O808 2.021 . S
Co798 O810 2.137 . S
Co798 O811 2.244 . S
O799 Co798 2.216 . S
O799 C806 1.247 . S
O800 Co798 2.091 . S
O800 C806 1.261 . S
C801 O810 1.247 . S
C801 O811 1.272 . S
O802 Co798 2.004 . S
O802 C807 1.259 . S
Co803 O804 2.061 . S
Co803 O809 2.052 . S
Co803 O811 2.135 . S
O804 Co803 2.061 . S
O804 C807 1.235 . S
C805 O808 1.238 . S
C805 O809 1.241 . S
C806 O799 1.247 . S
C806 O800 1.261 . S
C807 O802 1.259 . S
C807 O804 1.235 . S
O808 Co798 2.021 . S
O808 C805 1.238 . S
O809 Co803 2.052 . S
O809 C805 1.241 . S
O810 Co798 2.137 . S
O810 C801 1.247 . S
O811 Co798 2.244 . S
O811 C801 1.272 . S
O811 Co803 2.135 . S
Co812 O813 2.216 . S
Co812 O814 2.091 . S
Co812 O816 2.004 . S
Co812 O822 2.021 . S
Co812 O824 2.137 . S
Co812 O825 2.244 . S
O813 Co812 2.216 . S
O813 C820 1.247 . S
O814 Co812 2.091 . S
O814 C820 1.261 . S
C815 O824 1.247 . S
C815 O825 1.272 . S
O816 Co812 2.004 . S
O816 C821 1.259 . S
Co817 O818 2.061 . S
Co817 O823 2.052 . S
Co817 O825 2.135 . S
O818 Co817 2.061 . S
O818 C821 1.235 . S
C819 O822 1.238 . S
C819 O823 1.241 . S
C820 O813 1.247 . S
C820 O814 1.261 . S
C821 O816 1.259 . S
C821 O818 1.235 . S
O822 Co812 2.021 . S
O822 C819 1.238 . S
O823 Co817 2.052 . S
O823 C819 1.241 . S
O824 Co812 2.137 . S
O824 C815 1.247 . S
O825 Co812 2.244 . S
O825 C815 1.272 . S
O825 Co817 2.135 . S
Co826 O827 2.216 . S
Co826 O828 2.091 . S
Co826 O830 2.004 . S
Co826 O836 2.021 . S
Co826 O838 2.137 . S
Co826 O839 2.244 . S
O827 Co826 2.216 . S
O827 C834 1.247 . S
O828 Co826 2.091 . S
O828 C834 1.261 . S
C829 O838 1.247 . S
C829 O839 1.272 . S
O830 Co826 2.004 . S
O830 C835 1.259 . S
Co831 O832 2.061 . S
Co831 O837 2.052 . S
Co831 O839 2.135 . S
O832 Co831 2.061 . S
O832 C835 1.235 . S
C833 O836 1.238 . S
C833 O837 1.241 . S
C834 O827 1.247 . S
C834 O828 1.261 . S
C835 O830 1.259 . S
C835 O832 1.235 . S
O836 Co826 2.021 . S
O836 C833 1.238 . S
O837 Co831 2.052 . S
O837 C833 1.241 . S
O838 Co826 2.137 . S
O838 C829 1.247 . S
O839 Co826 2.244 . S
O839 C829 1.272 . S
O839 Co831 2.135 . S
Co840 O841 2.216 . S
Co840 O842 2.091 . S
Co840 O844 2.004 . S
Co840 O850 2.021 . S
Co840 O852 2.137 . S
Co840 O853 2.244 . S
O841 Co840 2.216 . S
O841 C848 1.247 . S
O842 Co840 2.091 . S
O842 C848 1.261 . S
C843 O852 1.247 . S
C843 O853 1.272 . S
O844 Co840 2.004 . S
O844 C849 1.259 . S
Co845 O846 2.061 . S
Co845 O851 2.052 . S
Co845 O853 2.135 . S
O846 Co845 2.061 . S
O846 C849 1.235 . S
C847 O850 1.238 . S
C847 O851 1.241 . S
C848 O841 1.247 . S
C848 O842 1.261 . S
C849 O844 1.259 . S
C849 O846 1.235 . S
O850 Co840 2.021 . S
O850 C847 1.238 . S
O851 Co845 2.052 . S
O851 C847 1.241 . S
O852 Co840 2.137 . S
O852 C843 1.247 . S
O853 Co840 2.244 . S
O853 C843 1.272 . S
O853 Co845 2.135 . S
Co854 O855 2.216 . S
Co854 O856 2.091 . S
Co854 O858 2.004 . S
Co854 O864 2.021 . S
Co854 O866 2.137 . S
Co854 O867 2.244 . S
O855 Co854 2.216 . S
O855 C862 1.247 . S
O856 Co854 2.091 . S
O856 C862 1.261 . S
C857 O866 1.247 . S
C857 O867 1.272 . S
O858 Co854 2.004 . S
O858 C863 1.259 . S
Co859 O860 2.061 . S
Co859 O865 2.052 . S
Co859 O867 2.135 . S
O860 Co859 2.061 . S
O860 C863 1.235 . S
C861 O864 1.238 . S
C861 O865 1.241 . S
C862 O855 1.247 . S
C862 O856 1.261 . S
C863 O858 1.259 . S
C863 O860 1.235 . S
O864 Co854 2.021 . S
O864 C861 1.238 . S
O865 Co859 2.052 . S
O865 C861 1.241 . S
O866 Co854 2.137 . S
O866 C857 1.247 . S
O867 Co854 2.244 . S
O867 C857 1.272 . S
O867 Co859 2.135 . S
Co868 O869 2.216 . S
Co868 O870 2.091 . S
Co868 O872 2.004 . S
Co868 O878 2.021 . S
Co868 O880 2.137 . S
Co868 O881 2.244 . S
O869 Co868 2.216 . S
O869 C876 1.247 . S
O870 Co868 2.091 . S
O870 C876 1.261 . S
C871 O880 1.247 . S
C871 O881 1.272 . S
O872 Co868 2.004 . S
O872 C877 1.259 . S
Co873 O874 2.061 . S
Co873 O879 2.052 . S
Co873 O881 2.135 . S
O874 Co873 2.061 . S
O874 C877 1.235 . S
C875 O878 1.238 . S
C875 O879 1.241 . S
C876 O869 1.247 . S
C876 O870 1.261 . S
C877 O872 1.259 . S
C877 O874 1.235 . S
O878 Co868 2.021 . S
O878 C875 1.238 . S
O879 Co873 2.052 . S
O879 C875 1.241 . S
O880 Co868 2.137 . S
O880 C871 1.247 . S
O881 Co868 2.244 . S
O881 C871 1.272 . S
O881 Co873 2.135 . S
Co882 O883 2.216 . S
Co882 O884 2.091 . S
Co882 O886 2.004 . S
Co882 O892 2.021 . S
Co882 O894 2.137 . S
Co882 O895 2.244 . S
O883 Co882 2.216 . S
O883 C890 1.247 . S
O884 Co882 2.091 . S
O884 C890 1.261 . S
C885 O894 1.247 . S
C885 O895 1.272 . S
O886 Co882 2.004 . S
O886 C891 1.259 . S
Co887 O888 2.061 . S
Co887 O893 2.052 . S
Co887 O895 2.135 . S
O888 Co887 2.061 . S
O888 C891 1.235 . S
C889 O892 1.238 . S
C889 O893 1.241 . S
C890 O883 1.247 . S
C890 O884 1.261 . S
C891 O886 1.259 . S
C891 O888 1.235 . S
O892 Co882 2.021 . S
O892 C889 1.238 . S
O893 Co887 2.052 . S
O893 C889 1.241 . S
O894 Co882 2.137 . S
O894 C885 1.247 . S
O895 Co882 2.244 . S
O895 C885 1.272 . S
O895 Co887 2.135 . S
Co896 O897 2.216 . S
Co896 O898 2.091 . S
Co896 O900 2.004 . S
Co896 O906 2.021 . S
Co896 O908 2.137 . S
Co896 O909 2.244 . S
O897 Co896 2.216 . S
O897 C904 1.247 . S
O898 Co896 2.091 . S
O898 C904 1.261 . S
C899 O908 1.247 . S
C899 O909 1.272 . S
O900 Co896 2.004 . S
O900 C905 1.259 . S
Co901 O902 2.061 . S
Co901 O907 2.052 . S
Co901 O909 2.135 . S
O902 Co901 2.061 . S
O902 C905 1.235 . S
C903 O906 1.238 . S
C903 O907 1.241 . S
C904 O897 1.247 . S
C904 O898 1.261 . S
C905 O900 1.259 . S
C905 O902 1.235 . S
O906 Co896 2.021 . S
O906 C903 1.238 . S
O907 Co901 2.052 . S
O907 C903 1.241 . S
O908 Co896 2.137 . S
O908 C899 1.247 . S
O909 Co896 2.244 . S
O909 C899 1.272 . S
O909 Co901 2.135 . S
Co910 O911 2.216 . S
Co910 O912 2.091 . S
Co910 O914 2.004 . S
Co910 O920 2.021 . S
Co910 O922 2.137 . S
Co910 O923 2.244 . S
O911 Co910 2.216 . S
O911 C918 1.247 . S
O912 Co910 2.091 . S
O912 C918 1.261 . S
C913 O922 1.247 . S
C913 O923 1.272 . S
O914 Co910 2.004 . S
O914 C919 1.259 . S
Co915 O916 2.061 . S
Co915 O921 2.052 . S
Co915 O923 2.135 . S
O916 Co915 2.061 . S
O916 C919 1.235 . S
C917 O920 1.238 . S
C917 O921 1.241 . S
C918 O911 1.247 . S
C918 O912 1.261 . S
C919 O914 1.259 . S
C919 O916 1.235 . S
O920 Co910 2.021 . S
O920 C917 1.238 . S
O921 Co915 2.052 . S
O921 C917 1.241 . S
O922 Co910 2.137 . S
O922 C913 1.247 . S
O923 Co910 2.244 . S
O923 C913 1.272 . S
O923 Co915 2.135 . S
Co924 O925 2.216 . S
Co924 O926 2.091 . S
Co924 O928 2.004 . S
Co924 O934 2.021 . S
Co924 O936 2.137 . S
Co924 O937 2.244 . S
O925 Co924 2.216 . S
O925 C932 1.247 . S
O926 Co924 2.091 . S
O926 C932 1.261 . S
C927 O936 1.247 . S
C927 O937 1.272 . S
O928 Co924 2.004 . S
O928 C933 1.259 . S
Co929 O930 2.061 . S
Co929 O935 2.052 . S
Co929 O937 2.135 . S
O930 Co929 2.061 . S
O930 C933 1.235 . S
C931 O934 1.238 . S
C931 O935 1.241 . S
C932 O925 1.247 . S
C932 O926 1.261 . S
C933 O928 1.259 . S
C933 O930 1.235 . S
O934 Co924 2.021 . S
O934 C931 1.238 . S
O935 Co929 2.052 . S
O935 C931 1.241 . S
O936 Co924 2.137 . S
O936 C927 1.247 . S
O937 Co924 2.244 . S
O937 C927 1.272 . S
O937 Co929 2.135 . S
Co938 O939 2.216 . S
Co938 O940 2.091 . S
Co938 O942 2.004 . S
Co938 O948 2.021 . S
Co938 O950 2.137 . S
Co938 O951 2.244 . S
O939 Co938 2.216 . S
O939 C946 1.247 . S
O940 Co938 2.091 . S
O940 C946 1.261 . S
C941 O950 1.247 . S
C941 O951 1.272 . S
O942 Co938 2.004 . S
O942 C947 1.259 . S
Co943 O944 2.061 . S
Co943 O949 2.052 . S
Co943 O951 2.135 . S
O944 Co943 2.061 . S
O944 C947 1.235 . S
C945 O948 1.238 . S
C945 O949 1.241 . S
C946 O939 1.247 . S
C946 O940 1.261 . S
C947 O942 1.259 . S
C947 O944 1.235 . S
O948 Co938 2.021 . S
O948 C945 1.238 . S
O949 Co943 2.052 . S
O949 C945 1.241 . S
O950 Co938 2.137 . S
O950 C941 1.247 . S
O951 Co938 2.244 . S
O951 C941 1.272 . S
O951 Co943 2.135 . S
Co952 O953 2.216 . S
Co952 O954 2.091 . S
Co952 O956 2.004 . S
Co952 O962 2.021 . S
Co952 O964 2.137 . S
Co952 O965 2.244 . S
O953 Co952 2.216 . S
O953 C960 1.247 . S
O954 Co952 2.091 . S
O954 C960 1.261 . S
C955 O964 1.247 . S
C955 O965 1.272 . S
O956 Co952 2.004 . S
O956 C961 1.259 . S
Co957 O958 2.061 . S
Co957 O963 2.052 . S
Co957 O965 2.135 . S
O958 Co957 2.061 . S
O958 C961 1.235 . S
C959 O962 1.238 . S
C959 O963 1.241 . S
C960 O953 1.247 . S
C960 O954 1.261 . S
C961 O956 1.259 . S
C961 O958 1.235 . S
O962 Co952 2.021 . S
O962 C959 1.238 . S
O963 Co957 2.052 . S
O963 C959 1.241 . S
O964 Co952 2.137 . S
O964 C955 1.247 . S
O965 Co952 2.244 . S
O965 C955 1.272 . S
O965 Co957 2.135 . S
Co966 O967 2.216 . S
Co966 O968 2.091 . S
Co966 O970 2.004 . S
Co966 O976 2.021 . S
Co966 O978 2.137 . S
Co966 O979 2.244 . S
O967 Co966 2.216 . S
O967 C974 1.247 . S
O968 Co966 2.091 . S
O968 C974 1.261 . S
C969 O978 1.247 . S
C969 O979 1.272 . S
O970 Co966 2.004 . S
O970 C975 1.259 . S
Co971 O972 2.061 . S
Co971 O977 2.052 . S
Co971 O979 2.135 . S
O972 Co971 2.061 . S
O972 C975 1.235 . S
C973 O976 1.238 . S
C973 O977 1.241 . S
C974 O967 1.247 . S
C974 O968 1.261 . S
C975 O970 1.259 . S
C975 O972 1.235 . S
O976 Co966 2.021 . S
O976 C973 1.238 . S
O977 Co971 2.052 . S
O977 C973 1.241 . S
O978 Co966 2.137 . S
O978 C969 1.247 . S
O979 Co966 2.244 . S
O979 C969 1.272 . S
O979 Co971 2.135 . S
Co980 O981 2.216 . S
Co980 O982 2.091 . S
Co980 O984 2.004 . S
Co980 O990 2.021 . S
Co980 O992 2.137 . S
Co980 O993 2.244 . S
O981 Co980 2.216 . S
O981 C988 1.247 . S
O982 Co980 2.091 . S
O982 C988 1.261 . S
C983 O992 1.247 . S
C983 O993 1.272 . S
O984 Co980 2.004 . S
O984 C989 1.259 . S
Co985 O986 2.061 . S
Co985 O991 2.052 . S
Co985 O993 2.135 . S
O986 Co985 2.061 . S
O986 C989 1.235 . S
C987 O990 1.238 . S
C987 O991 1.241 . S
C988 O981 1.247 . S
C988 O982 1.261 . S
C989 O984 1.259 . S
C989 O986 1.235 . S
O990 Co980 2.021 . S
O990 C987 1.238 . S
O991 Co985 2.052 . S
O991 C987 1.241 . S
O992 Co980 2.137 . S
O992 C983 1.247 . S
O993 Co980 2.244 . S
O993 C983 1.272 . S
O993 Co985 2.135 . S
Co994 O995 2.216 . S
Co994 O996 2.091 . S
Co994 O998 2.004 . S
Co994 O1004 2.021 . S
Co994 O1006 2.137 . S
Co994 O1007 2.244 . S
O995 Co994 2.216 . S
O995 C1002 1.247 . S
O996 Co994 2.091 . S
O996 C1002 1.261 . S
C997 O1006 1.247 . S
C997 O1007 1.272 . S
O998 Co994 2.004 . S
O998 C1003 1.259 . S
Co999 O1000 2.061 . S
Co999 O1005 2.052 . S
Co999 O1007 2.135 . S
O1000 Co999 2.061 . S
O1000 C1003 1.235 . S
C1001 O1004 1.238 . S
C1001 O1005 1.241 . S
C1002 O995 1.247 . S
C1002 O996 1.261 . S
C1003 O998 1.259 . S
C1003 O1000 1.235 . S
O1004 Co994 2.021 . S
O1004 C1001 1.238 . S
O1005 Co999 2.052 . S
O1005 C1001 1.241 . S
O1006 Co994 2.137 . S
O1006 C997 1.247 . S
O1007 Co994 2.244 . S
O1007 C997 1.272 . S
O1007 Co999 2.135 . S
Co1008 O1009 2.216 . S
Co1008 O1010 2.091 . S
Co1008 O1012 2.004 . S
Co1008 O1018 2.021 . S
Co1008 O1020 2.137 . S
Co1008 O1021 2.244 . S
O1009 Co1008 2.216 . S
O1009 C1016 1.247 . S
O1010 Co1008 2.091 . S
O1010 C1016 1.261 . S
C1011 O1020 1.247 . S
C1011 O1021 1.272 . S
O1012 Co1008 2.004 . S
O1012 C1017 1.259 . S
Co1013 O1014 2.061 . S
Co1013 O1019 2.052 . S
Co1013 O1021 2.135 . S
O1014 Co1013 2.061 . S
O1014 C1017 1.235 . S
C1015 O1018 1.238 . S
C1015 O1019 1.241 . S
C1016 O1009 1.247 . S
C1016 O1010 1.261 . S
C1017 O1012 1.259 . S
C1017 O1014 1.235 . S
O1018 Co1008 2.021 . S
O1018 C1015 1.238 . S
O1019 Co1013 2.052 . S
O1019 C1015 1.241 . S
O1020 Co1008 2.137 . S
O1020 C1011 1.247 . S
O1021 Co1008 2.244 . S
O1021 C1011 1.272 . S
O1021 Co1013 2.135 . S
Co1022 O1023 2.216 . S
Co1022 O1024 2.091 . S
Co1022 O1026 2.004 . S
Co1022 O1032 2.021 . S
Co1022 O1034 2.137 . S
Co1022 O1035 2.244 . S
O1023 Co1022 2.216 . S
O1023 C1030 1.247 . S
O1024 Co1022 2.091 . S
O1024 C1030 1.261 . S
C1025 O1034 1.247 . S
C1025 O1035 1.272 . S
O1026 Co1022 2.004 . S
O1026 C1031 1.259 . S
Co1027 O1028 2.061 . S
Co1027 O1033 2.052 . S
Co1027 O1035 2.135 . S
O1028 Co1027 2.061 . S
O1028 C1031 1.235 . S
C1029 O1032 1.238 . S
C1029 O1033 1.241 . S
C1030 O1023 1.247 . S
C1030 O1024 1.261 . S
C1031 O1026 1.259 . S
C1031 O1028 1.235 . S
O1032 Co1022 2.021 . S
O1032 C1029 1.238 . S
O1033 Co1027 2.052 . S
O1033 C1029 1.241 . S
O1034 Co1022 2.137 . S
O1034 C1025 1.247 . S
O1035 Co1022 2.244 . S
O1035 C1025 1.272 . S
O1035 Co1027 2.135 . S
Co1036 O1037 2.216 . S
Co1036 O1038 2.091 . S
Co1036 O1040 2.004 . S
Co1036 O1046 2.021 . S
Co1036 O1048 2.137 . S
Co1036 O1049 2.244 . S
O1037 Co1036 2.216 . S
O1037 C1044 1.247 . S
O1038 Co1036 2.091 . S
O1038 C1044 1.261 . S
C1039 O1048 1.247 . S
C1039 O1049 1.272 . S
O1040 Co1036 2.004 . S
O1040 C1045 1.259 . S
Co1041 O1042 2.061 . S
Co1041 O1047 2.052 . S
Co1041 O1049 2.135 . S
O1042 Co1041 2.061 . S
O1042 C1045 1.235 . S
C1043 O1046 1.238 . S
C1043 O1047 1.241 . S
C1044 O1037 1.247 . S
C1044 O1038 1.261 . S
C1045 O1040 1.259 . S
C1045 O1042 1.235 . S
O1046 Co1036 2.021 . S
O1046 C1043 1.238 . S
O1047 Co1041 2.052 . S
O1047 C1043 1.241 . S
O1048 Co1036 2.137 . S
O1048 C1039 1.247 . S
O1049 Co1036 2.244 . S
O1049 C1039 1.272 . S
O1049 Co1041 2.135 . S
Co1050 O1051 2.216 . S
Co1050 O1052 2.091 . S
Co1050 O1054 2.004 . S
Co1050 O1060 2.021 . S
Co1050 O1062 2.137 . S
Co1050 O1063 2.244 . S
O1051 Co1050 2.216 . S
O1051 C1058 1.247 . S
O1052 Co1050 2.091 . S
O1052 C1058 1.261 . S
C1053 O1062 1.247 . S
C1053 O1063 1.272 . S
O1054 Co1050 2.004 . S
O1054 C1059 1.259 . S
Co1055 O1056 2.061 . S
Co1055 O1061 2.052 . S
Co1055 O1063 2.135 . S
O1056 Co1055 2.061 . S
O1056 C1059 1.235 . S
C1057 O1060 1.238 . S
C1057 O1061 1.241 . S
C1058 O1051 1.247 . S
C1058 O1052 1.261 . S
C1059 O1054 1.259 . S
C1059 O1056 1.235 . S
O1060 Co1050 2.021 . S
O1060 C1057 1.238 . S
O1061 Co1055 2.052 . S
O1061 C1057 1.241 . S
O1062 Co1050 2.137 . S
O1062 C1053 1.247 . S
O1063 Co1050 2.244 . S
O1063 C1053 1.272 . S
O1063 Co1055 2.135 . S
Co1064 O1065 2.216 . S
Co1064 O1066 2.091 . S
Co1064 O1068 2.004 . S
Co1064 O1074 2.021 . S
Co1064 O1076 2.137 . S
Co1064 O1077 2.244 . S
O1065 Co1064 2.216 . S
O1065 C1072 1.247 . S
O1066 Co1064 2.091 . S
O1066 C1072 1.261 . S
C1067 O1076 1.247 . S
C1067 O1077 1.272 . S
O1068 Co1064 2.004 . S
O1068 C1073 1.259 . S
Co1069 O1070 2.061 . S
Co1069 O1075 2.052 . S
Co1069 O1077 2.135 . S
O1070 Co1069 2.061 . S
O1070 C1073 1.235 . S
C1071 O1074 1.238 . S
C1071 O1075 1.241 . S
C1072 O1065 1.247 . S
C1072 O1066 1.261 . S
C1073 O1068 1.259 . S
C1073 O1070 1.235 . S
O1074 Co1064 2.021 . S
O1074 C1071 1.238 . S
O1075 Co1069 2.052 . S
O1075 C1071 1.241 . S
O1076 Co1064 2.137 . S
O1076 C1067 1.247 . S
O1077 Co1064 2.244 . S
O1077 C1067 1.272 . S
O1077 Co1069 2.135 . S
Co1078 O1079 2.216 . S
Co1078 O1080 2.091 . S
Co1078 O1082 2.004 . S
Co1078 O1088 2.021 . S
Co1078 O1090 2.137 . S
Co1078 O1091 2.244 . S
O1079 Co1078 2.216 . S
O1079 C1086 1.247 . S
O1080 Co1078 2.091 . S
O1080 C1086 1.261 . S
C1081 O1090 1.247 . S
C1081 O1091 1.272 . S
O1082 Co1078 2.004 . S
O1082 C1087 1.259 . S
Co1083 O1084 2.061 . S
Co1083 O1089 2.052 . S
Co1083 O1091 2.135 . S
O1084 Co1083 2.061 . S
O1084 C1087 1.235 . S
C1085 O1088 1.238 . S
C1085 O1089 1.241 . S
C1086 O1079 1.247 . S
C1086 O1080 1.261 . S
C1087 O1082 1.259 . S
C1087 O1084 1.235 . S
O1088 Co1078 2.021 . S
O1088 C1085 1.238 . S
O1089 Co1083 2.052 . S
O1089 C1085 1.241 . S
O1090 Co1078 2.137 . S
O1090 C1081 1.247 . S
O1091 Co1078 2.244 . S
O1091 C1081 1.272 . S
O1091 Co1083 2.135 . S
Co1092 O1093 2.216 . S
Co1092 O1094 2.091 . S
Co1092 O1096 2.004 . S
Co1092 O1102 2.021 . S
Co1092 O1104 2.137 . S
Co1092 O1105 2.244 . S
O1093 Co1092 2.216 . S
O1093 C1100 1.247 . S
O1094 Co1092 2.091 . S
O1094 C1100 1.261 . S
C1095 O1104 1.247 . S
C1095 O1105 1.272 . S
O1096 Co1092 2.004 . S
O1096 C1101 1.259 . S
Co1097 O1098 2.061 . S
Co1097 O1103 2.052 . S
Co1097 O1105 2.135 . S
O1098 Co1097 2.061 . S
O1098 C1101 1.235 . S
C1099 O1102 1.238 . S
C1099 O1103 1.241 . S
C1100 O1093 1.247 . S
C1100 O1094 1.261 . S
C1101 O1096 1.259 . S
C1101 O1098 1.235 . S
O1102 Co1092 2.021 . S
O1102 C1099 1.238 . S
O1103 Co1097 2.052 . S
O1103 C1099 1.241 . S
O1104 Co1092 2.137 . S
O1104 C1095 1.247 . S
O1105 Co1092 2.244 . S
O1105 C1095 1.272 . S
O1105 Co1097 2.135 . S
Co1106 O1107 2.216 . S
Co1106 O1108 2.091 . S
Co1106 O1110 2.004 . S
Co1106 O1116 2.021 . S
Co1106 O1118 2.137 . S
Co1106 O1119 2.244 . S
O1107 Co1106 2.216 . S
O1107 C1114 1.247 . S
O1108 Co1106 2.091 . S
O1108 C1114 1.261 . S
C1109 O1118 1.247 . S
C1109 O1119 1.272 . S
O1110 Co1106 2.004 . S
O1110 C1115 1.259 . S
Co1111 O1112 2.061 . S
Co1111 O1117 2.052 . S
Co1111 O1119 2.135 . S
O1112 Co1111 2.061 . S
O1112 C1115 1.235 . S
C1113 O1116 1.238 . S
C1113 O1117 1.241 . S
C1114 O1107 1.247 . S
C1114 O1108 1.261 . S
C1115 O1110 1.259 . S
C1115 O1112 1.235 . S
O1116 Co1106 2.021 . S
O1116 C1113 1.238 . S
O1117 Co1111 2.052 . S
O1117 C1113 1.241 . S
O1118 Co1106 2.137 . S
O1118 C1109 1.247 . S
O1119 Co1106 2.244 . S
O1119 C1109 1.272 . S
O1119 Co1111 2.135 . S
Co1120 O1121 2.216 . S
Co1120 O1122 2.091 . S
Co1120 O1124 2.004 . S
Co1120 O1130 2.021 . S
Co1120 O1132 2.137 . S
Co1120 O1133 2.244 . S
O1121 Co1120 2.216 . S
O1121 C1128 1.247 . S
O1122 Co1120 2.091 . S
O1122 C1128 1.261 . S
C1123 O1132 1.247 . S
C1123 O1133 1.272 . S
O1124 Co1120 2.004 . S
O1124 C1129 1.259 . S
Co1125 O1126 2.061 . S
Co1125 O1131 2.052 . S
Co1125 O1133 2.135 . S
O1126 Co1125 2.061 . S
O1126 C1129 1.235 . S
C1127 O1130 1.238 . S
C1127 O1131 1.241 . S
C1128 O1121 1.247 . S
C1128 O1122 1.261 . S
C1129 O1124 1.259 . S
C1129 O1126 1.235 . S
O1130 Co1120 2.021 . S
O1130 C1127 1.238 . S
O1131 Co1125 2.052 . S
O1131 C1127 1.241 . S
O1132 Co1120 2.137 . S
O1132 C1123 1.247 . S
O1133 Co1120 2.244 . S
O1133 C1123 1.272 . S
O1133 Co1125 2.135 . S
Co1134 O1135 2.216 . S
Co1134 O1136 2.091 . S
Co1134 O1138 2.004 . S
Co1134 O1144 2.021 . S
Co1134 O1146 2.137 . S
Co1134 O1147 2.244 . S
O1135 Co1134 2.216 . S
O1135 C1142 1.247 . S
O1136 Co1134 2.091 . S
O1136 C1142 1.261 . S
C1137 O1146 1.247 . S
C1137 O1147 1.272 . S
O1138 Co1134 2.004 . S
O1138 C1143 1.259 . S
Co1139 O1140 2.061 . S
Co1139 O1145 2.052 . S
Co1139 O1147 2.135 . S
O1140 Co1139 2.061 . S
O1140 C1143 1.235 . S
C1141 O1144 1.238 . S
C1141 O1145 1.241 . S
C1142 O1135 1.247 . S
C1142 O1136 1.261 . S
C1143 O1138 1.259 . S
C1143 O1140 1.235 . S
O1144 Co1134 2.021 . S
O1144 C1141 1.238 . S
O1145 Co1139 2.052 . S
O1145 C1141 1.241 . S
O1146 Co1134 2.137 . S
O1146 C1137 1.247 . S
O1147 Co1134 2.244 . S
O1147 C1137 1.272 . S
O1147 Co1139 2.135 . S
Co1148 O1149 2.216 . S
Co1148 O1150 2.091 . S
Co1148 O1152 2.004 . S
Co1148 O1158 2.021 . S
Co1148 O1160 2.137 . S
Co1148 O1161 2.244 . S
O1149 Co1148 2.216 . S
O1149 C1156 1.247 . S
O1150 Co1148 2.091 . S
O1150 C1156 1.261 . S
C1151 O1160 1.247 . S
C1151 O1161 1.272 . S
O1152 Co1148 2.004 . S
O1152 C1157 1.259 . S
Co1153 O1154 2.061 . S
Co1153 O1159 2.052 . S
Co1153 O1161 2.135 . S
O1154 Co1153 2.061 . S
O1154 C1157 1.235 . S
C1155 O1158 1.238 . S
C1155 O1159 1.241 . S
C1156 O1149 1.247 . S
C1156 O1150 1.261 . S
C1157 O1152 1.259 . S
C1157 O1154 1.235 . S
O1158 Co1148 2.021 . S
O1158 C1155 1.238 . S
O1159 Co1153 2.052 . S
O1159 C1155 1.241 . S
O1160 Co1148 2.137 . S
O1160 C1151 1.247 . S
O1161 Co1148 2.244 . S
O1161 C1151 1.272 . S
O1161 Co1153 2.135 . S
Co1162 O1163 2.216 . S
Co1162 O1164 2.091 . S
Co1162 O1166 2.004 . S
Co1162 O1172 2.021 . S
Co1162 O1174 2.137 . S
Co1162 O1175 2.244 . S
O1163 Co1162 2.216 . S
O1163 C1170 1.247 . S
O1164 Co1162 2.091 . S
O1164 C1170 1.261 . S
C1165 O1174 1.247 . S
C1165 O1175 1.272 . S
O1166 Co1162 2.004 . S
O1166 C1171 1.259 . S
Co1167 O1168 2.061 . S
Co1167 O1173 2.052 . S
Co1167 O1175 2.135 . S
O1168 Co1167 2.061 . S
O1168 C1171 1.235 . S
C1169 O1172 1.238 . S
C1169 O1173 1.241 . S
C1170 O1163 1.247 . S
C1170 O1164 1.261 . S
C1171 O1166 1.259 . S
C1171 O1168 1.235 . S
O1172 Co1162 2.021 . S
O1172 C1169 1.238 . S
O1173 Co1167 2.052 . S
O1173 C1169 1.241 . S
O1174 Co1162 2.137 . S
O1174 C1165 1.247 . S
O1175 Co1162 2.244 . S
O1175 C1165 1.272 . S
O1175 Co1167 2.135 . S
Co1176 O1177 2.216 . S
Co1176 O1178 2.091 . S
Co1176 O1180 2.004 . S
Co1176 O1186 2.021 . S
Co1176 O1188 2.137 . S
Co1176 O1189 2.244 . S
O1177 Co1176 2.216 . S
O1177 C1184 1.247 . S
O1178 Co1176 2.091 . S
O1178 C1184 1.261 . S
C1179 O1188 1.247 . S
C1179 O1189 1.272 . S
O1180 Co1176 2.004 . S
O1180 C1185 1.259 . S
Co1181 O1182 2.061 . S
Co1181 O1187 2.052 . S
Co1181 O1189 2.135 . S
O1182 Co1181 2.061 . S
O1182 C1185 1.235 . S
C1183 O1186 1.238 . S
C1183 O1187 1.241 . S
C1184 O1177 1.247 . S
C1184 O1178 1.261 . S
C1185 O1180 1.259 . S
C1185 O1182 1.235 . S
O1186 Co1176 2.021 . S
O1186 C1183 1.238 . S
O1187 Co1181 2.052 . S
O1187 C1183 1.241 . S
O1188 Co1176 2.137 . S
O1188 C1179 1.247 . S
O1189 Co1176 2.244 . S
O1189 C1179 1.272 . S
O1189 Co1181 2.135 . S
Co1190 O1191 2.216 . S
Co1190 O1192 2.091 . S
Co1190 O1194 2.004 . S
Co1190 O1200 2.021 . S
Co1190 O1202 2.137 . S
Co1190 O1203 2.244 . S
O1191 Co1190 2.216 . S
O1191 C1198 1.247 . S
O1192 Co1190 2.091 . S
O1192 C1198 1.261 . S
C1193 O1202 1.247 . S
C1193 O1203 1.272 . S
O1194 Co1190 2.004 . S
O1194 C1199 1.259 . S
Co1195 O1196 2.061 . S
Co1195 O1201 2.052 . S
Co1195 O1203 2.135 . S
O1196 Co1195 2.061 . S
O1196 C1199 1.235 . S
C1197 O1200 1.238 . S
C1197 O1201 1.241 . S
C1198 O1191 1.247 . S
C1198 O1192 1.261 . S
C1199 O1194 1.259 . S
C1199 O1196 1.235 . S
O1200 Co1190 2.021 . S
O1200 C1197 1.238 . S
O1201 Co1195 2.052 . S
O1201 C1197 1.241 . S
O1202 Co1190 2.137 . S
O1202 C1193 1.247 . S
O1203 Co1190 2.244 . S
O1203 C1193 1.272 . S
O1203 Co1195 2.135 . S
Co1204 O1205 2.216 . S
Co1204 O1206 2.091 . S
Co1204 O1208 2.004 . S
Co1204 O1214 2.021 . S
Co1204 O1216 2.137 . S
Co1204 O1217 2.244 . S
O1205 Co1204 2.216 . S
O1205 C1212 1.247 . S
O1206 Co1204 2.091 . S
O1206 C1212 1.261 . S
C1207 O1216 1.247 . S
C1207 O1217 1.272 . S
O1208 Co1204 2.004 . S
O1208 C1213 1.259 . S
Co1209 O1210 2.061 . S
Co1209 O1215 2.052 . S
Co1209 O1217 2.135 . S
O1210 Co1209 2.061 . S
O1210 C1213 1.235 . S
C1211 O1214 1.238 . S
C1211 O1215 1.241 . S
C1212 O1205 1.247 . S
C1212 O1206 1.261 . S
C1213 O1208 1.259 . S
C1213 O1210 1.235 . S
O1214 Co1204 2.021 . S
O1214 C1211 1.238 . S
O1215 Co1209 2.052 . S
O1215 C1211 1.241 . S
O1216 Co1204 2.137 . S
O1216 C1207 1.247 . S
O1217 Co1204 2.244 . S
O1217 C1207 1.272 . S
O1217 Co1209 2.135 . S
Co1218 O1219 2.216 . S
Co1218 O1220 2.091 . S
Co1218 O1222 2.004 . S
Co1218 O1228 2.021 . S
Co1218 O1230 2.137 . S
Co1218 O1231 2.244 . S
O1219 Co1218 2.216 . S
O1219 C1226 1.247 . S
O1220 Co1218 2.091 . S
O1220 C1226 1.261 . S
C1221 O1230 1.247 . S
C1221 O1231 1.272 . S
O1222 Co1218 2.004 . S
O1222 C1227 1.259 . S
Co1223 O1224 2.061 . S
Co1223 O1229 2.052 . S
Co1223 O1231 2.135 . S
O1224 Co1223 2.061 . S
O1224 C1227 1.235 . S
C1225 O1228 1.238 . S
C1225 O1229 1.241 . S
C1226 O1219 1.247 . S
C1226 O1220 1.261 . S
C1227 O1222 1.259 . S
C1227 O1224 1.235 . S
O1228 Co1218 2.021 . S
O1228 C1225 1.238 . S
O1229 Co1223 2.052 . S
O1229 C1225 1.241 . S
O1230 Co1218 2.137 . S
O1230 C1221 1.247 . S
O1231 Co1218 2.244 . S
O1231 C1221 1.272 . S
O1231 Co1223 2.135 . S
Co1232 O1233 2.216 . S
Co1232 O1234 2.091 . S
Co1232 O1236 2.004 . S
Co1232 O1242 2.021 . S
Co1232 O1244 2.137 . S
Co1232 O1245 2.244 . S
O1233 Co1232 2.216 . S
O1233 C1240 1.247 . S
O1234 Co1232 2.091 . S
O1234 C1240 1.261 . S
C1235 O1244 1.247 . S
C1235 O1245 1.272 . S
O1236 Co1232 2.004 . S
O1236 C1241 1.259 . S
Co1237 O1238 2.061 . S
Co1237 O1243 2.052 . S
Co1237 O1245 2.135 . S
O1238 Co1237 2.061 . S
O1238 C1241 1.235 . S
C1239 O1242 1.238 . S
C1239 O1243 1.241 . S
C1240 O1233 1.247 . S
C1240 O1234 1.261 . S
C1241 O1236 1.259 . S
C1241 O1238 1.235 . S
O1242 Co1232 2.021 . S
O1242 C1239 1.238 . S
O1243 Co1237 2.052 . S
O1243 C1239 1.241 . S
O1244 Co1232 2.137 . S
O1244 C1235 1.247 . S
O1245 Co1232 2.244 . S
O1245 C1235 1.272 . S
O1245 Co1237 2.135 . S
Co1246 O1247 2.216 . S
Co1246 O1248 2.091 . S
Co1246 O1250 2.004 . S
Co1246 O1256 2.021 . S
Co1246 O1258 2.137 . S
Co1246 O1259 2.244 . S
O1247 Co1246 2.216 . S
O1247 C1254 1.247 . S
O1248 Co1246 2.091 . S
O1248 C1254 1.261 . S
C1249 O1258 1.247 . S
C1249 O1259 1.272 . S
O1250 Co1246 2.004 . S
O1250 C1255 1.259 . S
Co1251 O1252 2.061 . S
Co1251 O1257 2.052 . S
Co1251 O1259 2.135 . S
O1252 Co1251 2.061 . S
O1252 C1255 1.235 . S
C1253 O1256 1.238 . S
C1253 O1257 1.241 . S
C1254 O1247 1.247 . S
C1254 O1248 1.261 . S
C1255 O1250 1.259 . S
C1255 O1252 1.235 . S
O1256 Co1246 2.021 . S
O1256 C1253 1.238 . S
O1257 Co1251 2.052 . S
O1257 C1253 1.241 . S
O1258 Co1246 2.137 . S
O1258 C1249 1.247 . S
O1259 Co1246 2.244 . S
O1259 C1249 1.272 . S
O1259 Co1251 2.135 . S
Co1260 O1261 2.216 . S
Co1260 O1262 2.091 . S
Co1260 O1264 2.004 . S
Co1260 O1270 2.021 . S
Co1260 O1272 2.137 . S
Co1260 O1273 2.244 . S
O1261 Co1260 2.216 . S
O1261 C1268 1.247 . S
O1262 Co1260 2.091 . S
O1262 C1268 1.261 . S
C1263 O1272 1.247 . S
C1263 O1273 1.272 . S
O1264 Co1260 2.004 . S
O1264 C1269 1.259 . S
Co1265 O1266 2.061 . S
Co1265 O1271 2.052 . S
Co1265 O1273 2.135 . S
O1266 Co1265 2.061 . S
O1266 C1269 1.235 . S
C1267 O1270 1.238 . S
C1267 O1271 1.241 . S
C1268 O1261 1.247 . S
C1268 O1262 1.261 . S
C1269 O1264 1.259 . S
C1269 O1266 1.235 . S
O1270 Co1260 2.021 . S
O1270 C1267 1.238 . S
O1271 Co1265 2.052 . S
O1271 C1267 1.241 . S
O1272 Co1260 2.137 . S
O1272 C1263 1.247 . S
O1273 Co1260 2.244 . S
O1273 C1263 1.272 . S
O1273 Co1265 2.135 . S
Co1274 O1275 2.216 . S
Co1274 O1276 2.091 . S
Co1274 O1278 2.004 . S
Co1274 O1284 2.021 . S
Co1274 O1286 2.137 . S
Co1274 O1287 2.244 . S
O1275 Co1274 2.216 . S
O1275 C1282 1.247 . S
O1276 Co1274 2.091 . S
O1276 C1282 1.261 . S
C1277 O1286 1.247 . S
C1277 O1287 1.272 . S
O1278 Co1274 2.004 . S
O1278 C1283 1.259 . S
Co1279 O1280 2.061 . S
Co1279 O1285 2.052 . S
Co1279 O1287 2.135 . S
O1280 Co1279 2.061 . S
O1280 C1283 1.235 . S
C1281 O1284 1.238 . S
C1281 O1285 1.241 . S
C1282 O1275 1.247 . S
C1282 O1276 1.261 . S
C1283 O1278 1.259 . S
C1283 O1280 1.235 . S
O1284 Co1274 2.021 . S
O1284 C1281 1.238 . S
O1285 Co1279 2.052 . S
O1285 C1281 1.241 . S
O1286 Co1274 2.137 . S
O1286 C1277 1.247 . S
O1287 Co1274 2.244 . S
O1287 C1277 1.272 . S
O1287 Co1279 2.135 . S
Co1288 O1289 2.216 . S
Co1288 O1290 2.091 . S
Co1288 O1292 2.004 . S
Co1288 O1298 2.021 . S
Co1288 O1300 2.137 . S
Co1288 O1301 2.244 . S
O1289 Co1288 2.216 . S
O1289 C1296 1.247 . S
O1290 Co1288 2.091 . S
O1290 C1296 1.261 . S
C1291 O1300 1.247 . S
C1291 O1301 1.272 . S
O1292 Co1288 2.004 . S
O1292 C1297 1.259 . S
Co1293 O1294 2.061 . S
Co1293 O1299 2.052 . S
Co1293 O1301 2.135 . S
O1294 Co1293 2.061 . S
O1294 C1297 1.235 . S
C1295 O1298 1.238 . S
C1295 O1299 1.241 . S
C1296 O1289 1.247 . S
C1296 O1290 1.261 . S
C1297 O1292 1.259 . S
C1297 O1294 1.235 . S
O1298 Co1288 2.021 . S
O1298 C1295 1.238 . S
O1299 Co1293 2.052 . S
O1299 C1295 1.241 . S
O1300 Co1288 2.137 . S
O1300 C1291 1.247 . S
O1301 Co1288 2.244 . S
O1301 C1291 1.272 . S
O1301 Co1293 2.135 . S
Co1302 O1303 2.216 . S
Co1302 O1304 2.091 . S
Co1302 O1306 2.004 . S
Co1302 O1312 2.021 . S
Co1302 O1314 2.137 . S
Co1302 O1315 2.244 . S
O1303 Co1302 2.216 . S
O1303 C1310 1.247 . S
O1304 Co1302 2.091 . S
O1304 C1310 1.261 . S
C1305 O1314 1.247 . S
C1305 O1315 1.272 . S
O1306 Co1302 2.004 . S
O1306 C1311 1.259 . S
Co1307 O1308 2.061 . S
Co1307 O1313 2.052 . S
Co1307 O1315 2.135 . S
O1308 Co1307 2.061 . S
O1308 C1311 1.235 . S
C1309 O1312 1.238 . S
C1309 O1313 1.241 . S
C1310 O1303 1.247 . S
C1310 O1304 1.261 . S
C1311 O1306 1.259 . S
C1311 O1308 1.235 . S
O1312 Co1302 2.021 . S
O1312 C1309 1.238 . S
O1313 Co1307 2.052 . S
O1313 C1309 1.241 . S
O1314 Co1302 2.137 . S
O1314 C1305 1.247 . S
O1315 Co1302 2.244 . S
O1315 C1305 1.272 . S
O1315 Co1307 2.135 . S
Co1316 O1317 2.216 . S
Co1316 O1318 2.091 . S
Co1316 O1320 2.004 . S
Co1316 O1326 2.021 . S
Co1316 O1328 2.137 . S
Co1316 O1329 2.244 . S
O1317 Co1316 2.216 . S
O1317 C1324 1.247 . S
O1318 Co1316 2.091 . S
O1318 C1324 1.261 . S
C1319 O1328 1.247 . S
C1319 O1329 1.272 . S
O1320 Co1316 2.004 . S
O1320 C1325 1.259 . S
Co1321 O1322 2.061 . S
Co1321 O1327 2.052 . S
Co1321 O1329 2.135 . S
O1322 Co1321 2.061 . S
O1322 C1325 1.235 . S
C1323 O1326 1.238 . S
C1323 O1327 1.241 . S
C1324 O1317 1.247 . S
C1324 O1318 1.261 . S
C1325 O1320 1.259 . S
C1325 O1322 1.235 . S
O1326 Co1316 2.021 . S
O1326 C1323 1.238 . S
O1327 Co1321 2.052 . S
O1327 C1323 1.241 . S
O1328 Co1316 2.137 . S
O1328 C1319 1.247 . S
O1329 Co1316 2.244 . S
O1329 C1319 1.272 . S
O1329 Co1321 2.135 . S
Co1330 O1331 2.216 . S
Co1330 O1332 2.091 . S
Co1330 O1334 2.004 . S
Co1330 O1340 2.021 . S
Co1330 O1342 2.137 . S
Co1330 O1343 2.244 . S
O1331 Co1330 2.216 . S
O1331 C1338 1.247 . S
O1332 Co1330 2.091 . S
O1332 C1338 1.261 . S
C1333 O1342 1.247 . S
C1333 O1343 1.272 . S
O1334 Co1330 2.004 . S
O1334 C1339 1.259 . S
Co1335 O1336 2.061 . S
Co1335 O1341 2.052 . S
Co1335 O1343 2.135 . S
O1336 Co1335 2.061 . S
O1336 C1339 1.235 . S
C1337 O1340 1.238 . S
C1337 O1341 1.241 . S
C1338 O1331 1.247 . S
C1338 O1332 1.261 . S
C1339 O1334 1.259 . S
C1339 O1336 1.235 . S
O1340 Co1330 2.021 . S
O1340 C1337 1.238 . S
O1341 Co1335 2.052 . S
O1341 C1337 1.241 . S
O1342 Co1330 2.137 . S
O1342 C1333 1.247 . S
O1343 Co1330 2.244 . S
O1343 C1333 1.272 . S
O1343 Co1335 2.135 . S
H1344 C1350 0.930 . S
H1345 C1353 0.930 . S
H1346 C1354 0.930 . S
H1347 C1355 0.930 . S
H1348 C1358 0.930 . S
H1349 C1359 0.930 . S
C1350 H1344 0.930 . S
C1350 C1351 1.355 . S
C1350 C1352 1.415 . S
C1351 C1350 1.355 . S
C1351 C1353 1.419 . S
C1352 C1350 1.415 . S
C1352 C1357 1.425 . S
C1352 C1359 1.409 . S
C1353 H1345 0.930 . S
C1353 C1351 1.419 . S
C1353 C1354 1.362 . S
C1354 H1346 0.930 . S
C1354 C1353 1.362 . S
C1354 C1357 1.409 . S
C1355 H1347 0.930 . S
C1355 C1356 1.355 . S
C1355 C1357 1.415 . S
C1356 C1355 1.355 . S
C1356 C1358 1.419 . S
C1357 C1352 1.425 . S
C1357 C1354 1.409 . S
C1357 C1355 1.415 . S
C1358 H1348 0.930 . S
C1358 C1356 1.419 . S
C1358 C1359 1.362 . S
C1359 H1349 0.930 . S
C1359 C1352 1.409 . S
C1359 C1358 1.362 . S
H1360 C1366 0.930 . S
H1361 C1369 0.930 . S
H1362 C1370 0.930 . S
H1363 C1371 0.930 . S
H1364 C1374 0.930 . S
H1365 C1375 0.930 . S
C1366 H1360 0.930 . S
C1366 C1367 1.355 1_455 S
C1366 C1368 1.415 . S
C1367 C1366 1.355 1_655 S
C1367 C1369 1.419 . S
C1368 C1366 1.415 . S
C1368 C1373 1.425 . S
C1368 C1375 1.409 . S
C1369 H1361 0.930 . S
C1369 C1367 1.419 . S
C1369 C1370 1.362 . S
C1370 H1362 0.930 . S
C1370 C1369 1.362 . S
C1370 C1373 1.409 1_655 S
C1371 H1363 0.930 . S
C1371 C1372 1.355 . S
C1371 C1373 1.415 . S
C1372 C1371 1.355 . S
C1372 C1374 1.419 . S
C1373 C1368 1.425 . S
C1373 C1370 1.409 1_455 S
C1373 C1371 1.415 . S
C1374 H1364 0.930 . S
C1374 C1372 1.419 . S
C1374 C1375 1.362 . S
C1375 H1365 0.930 . S
C1375 C1368 1.409 . S
C1375 C1374 1.362 . S
H1376 C1382 0.930 . S
H1377 C1385 0.930 . S
H1378 C1386 0.930 . S
H1379 C1387 0.930 . S
H1380 C1390 0.930 . S
H1381 C1391 0.930 . S
C1382 H1376 0.930 . S
C1382 C1383 1.355 . S
C1382 C1384 1.415 . S
C1383 C1382 1.355 . S
C1383 C1385 1.419 . S
C1384 C1382 1.415 . S
C1384 C1389 1.425 . S
C1384 C1391 1.409 . S
C1385 H1377 0.930 . S
C1385 C1383 1.419 . S
C1385 C1386 1.362 . S
C1386 H1378 0.930 . S
C1386 C1385 1.362 . S
C1386 C1389 1.409 . S
C1387 H1379 0.930 . S
C1387 C1388 1.355 . S
C1387 C1389 1.415 . S
C1388 C1387 1.355 . S
C1388 C1390 1.419 . S
C1389 C1384 1.425 . S
C1389 C1386 1.409 . S
C1389 C1387 1.415 . S
C1390 H1380 0.930 . S
C1390 C1388 1.419 . S
C1390 C1391 1.362 . S
C1391 H1381 0.930 . S
C1391 C1384 1.409 . S
C1391 C1390 1.362 . S
H1392 C1398 0.930 . S
H1393 C1401 0.930 . S
H1394 C1402 0.930 . S
H1395 C1403 0.930 . S
H1396 C1406 0.930 . S
H1397 C1407 0.930 . S
C1398 H1392 0.930 . S
C1398 C1399 1.355 . S
C1398 C1400 1.415 . S
C1399 C1398 1.355 . S
C1399 C1401 1.419 . S
C1400 C1398 1.415 . S
C1400 C1405 1.425 . S
C1400 C1407 1.409 . S
C1401 H1393 0.930 . S
C1401 C1399 1.419 . S
C1401 C1402 1.362 . S
C1402 H1394 0.930 . S
C1402 C1401 1.362 . S
C1402 C1405 1.409 . S
C1403 H1395 0.930 . S
C1403 C1404 1.355 . S
C1403 C1405 1.415 . S
C1404 C1403 1.355 . S
C1404 C1406 1.419 . S
C1405 C1400 1.425 . S
C1405 C1402 1.409 . S
C1405 C1403 1.415 . S
C1406 H1396 0.930 . S
C1406 C1404 1.419 . S
C1406 C1407 1.362 . S
C1407 H1397 0.930 . S
C1407 C1400 1.409 . S
C1407 C1406 1.362 . S
H1408 C1414 0.930 . S
H1409 C1417 0.930 . S
H1410 C1418 0.930 . S
H1411 C1419 0.930 . S
H1412 C1422 0.930 . S
H1413 C1423 0.930 . S
C1414 H1408 0.930 . S
C1414 C1415 1.355 . S
C1414 C1416 1.415 . S
C1415 C1414 1.355 . S
C1415 C1417 1.419 . S
C1416 C1414 1.415 . S
C1416 C1421 1.425 . S
C1416 C1423 1.409 . S
C1417 H1409 0.930 . S
C1417 C1415 1.419 . S
C1417 C1418 1.362 . S
C1418 H1410 0.930 . S
C1418 C1417 1.362 . S
C1418 C1421 1.409 . S
C1419 H1411 0.930 . S
C1419 C1420 1.355 . S
C1419 C1421 1.415 . S
C1420 C1419 1.355 . S
C1420 C1422 1.419 . S
C1421 C1416 1.425 . S
C1421 C1418 1.409 . S
C1421 C1419 1.415 . S
C1422 H1412 0.930 . S
C1422 C1420 1.419 . S
C1422 C1423 1.362 . S
C1423 H1413 0.930 . S
C1423 C1416 1.409 . S
C1423 C1422 1.362 . S
H1424 C1430 0.930 . S
H1425 C1433 0.930 . S
H1426 C1434 0.930 . S
H1427 C1435 0.930 . S
H1428 C1438 0.930 . S
H1429 C1439 0.930 . S
C1430 H1424 0.930 . S
C1430 C1431 1.355 . S
C1430 C1432 1.415 . S
C1431 C1430 1.355 . S
C1431 C1433 1.419 . S
C1432 C1430 1.415 . S
C1432 C1437 1.425 . S
C1432 C1439 1.409 . S
C1433 H1425 0.930 . S
C1433 C1431 1.419 . S
C1433 C1434 1.362 . S
C1434 H1426 0.930 . S
C1434 C1433 1.362 . S
C1434 C1437 1.409 . S
C1435 H1427 0.930 . S
C1435 C1436 1.355 . S
C1435 C1437 1.415 . S
C1436 C1435 1.355 . S
C1436 C1438 1.419 . S
C1437 C1432 1.425 . S
C1437 C1434 1.409 . S
C1437 C1435 1.415 . S
C1438 H1428 0.930 . S
C1438 C1436 1.419 . S
C1438 C1439 1.362 . S
C1439 H1429 0.930 . S
C1439 C1432 1.409 . S
C1439 C1438 1.362 . S
H1440 C1446 0.930 . S
H1441 C1449 0.930 . S
H1442 C1450 0.930 . S
H1443 C1451 0.930 . S
H1444 C1454 0.930 . S
H1445 C1455 0.930 . S
C1446 H1440 0.930 . S
C1446 C1447 1.355 . S
C1446 C1448 1.415 . S
C1447 C1446 1.355 . S
C1447 C1449 1.419 . S
C1448 C1446 1.415 . S
C1448 C1453 1.425 . S
C1448 C1455 1.409 . S
C1449 H1441 0.930 . S
C1449 C1447 1.419 . S
C1449 C1450 1.362 . S
C1450 H1442 0.930 . S
C1450 C1449 1.362 . S
C1450 C1453 1.409 . S
C1451 H1443 0.930 . S
C1451 C1452 1.355 . S
C1451 C1453 1.415 . S
C1452 C1451 1.355 . S
C1452 C1454 1.419 . S
C1453 C1448 1.425 . S
C1453 C1450 1.409 . S
C1453 C1451 1.415 . S
C1454 H1444 0.930 . S
C1454 C1452 1.419 . S
C1454 C1455 1.362 . S
C1455 H1445 0.930 . S
C1455 C1448 1.409 . S
C1455 C1454 1.362 . S
H1456 C1462 0.930 . S
H1457 C1465 0.930 . S
H1458 C1466 0.930 . S
H1459 C1467 0.930 . S
H1460 C1470 0.930 . S
H1461 C1471 0.930 . S
C1462 H1456 0.930 . S
C1462 C1463 1.355 . S
C1462 C1464 1.415 . S
C1463 C1462 1.355 . S
C1463 C1465 1.419 . S
C1464 C1462 1.415 . S
C1464 C1469 1.425 . S
C1464 C1471 1.409 1_455 S
C1465 H1457 0.930 . S
C1465 C1463 1.419 . S
C1465 C1466 1.362 . S
C1466 H1458 0.930 . S
C1466 C1465 1.362 . S
C1466 C1469 1.409 . S
C1467 H1459 0.930 . S
C1467 C1468 1.355 1_455 S
C1467 C1469 1.415 . S
C1468 C1467 1.355 1_655 S
C1468 C1470 1.419 . S
C1469 C1464 1.425 . S
C1469 C1466 1.409 . S
C1469 C1467 1.415 . S
C1470 H1460 0.930 . S
C1470 C1468 1.419 . S
C1470 C1471 1.362 . S
C1471 H1461 0.930 . S
C1471 C1464 1.409 1_655 S
C1471 C1470 1.362 . S
H1472 C1478 0.930 . S
H1473 C1481 0.930 . S
H1474 C1482 0.930 . S
H1475 C1483 0.930 . S
H1476 C1486 0.930 . S
H1477 C1487 0.930 . S
C1478 H1472 0.930 . S
C1478 C1479 1.355 . S
C1478 C1480 1.415 . S
C1479 C1478 1.355 . S
C1479 C1481 1.419 . S
C1480 C1478 1.415 . S
C1480 C1485 1.425 . S
C1480 C1487 1.409 . S
C1481 H1473 0.930 . S
C1481 C1479 1.419 . S
C1481 C1482 1.362 . S
C1482 H1474 0.930 . S
C1482 C1481 1.362 . S
C1482 C1485 1.409 . S
C1483 H1475 0.930 . S
C1483 C1484 1.355 . S
C1483 C1485 1.415 . S
C1484 C1483 1.355 . S
C1484 C1486 1.419 . S
C1485 C1480 1.425 . S
C1485 C1482 1.409 . S
C1485 C1483 1.415 . S
C1486 H1476 0.930 . S
C1486 C1484 1.419 . S
C1486 C1487 1.362 . S
C1487 H1477 0.930 . S
C1487 C1480 1.409 . S
C1487 C1486 1.362 . S
H1488 C1494 0.930 . S
H1489 C1497 0.930 . S
H1490 C1498 0.930 . S
H1491 C1499 0.930 . S
H1492 C1502 0.930 . S
H1493 C1503 0.930 . S
C1494 H1488 0.930 . S
C1494 C1495 1.355 . S
C1494 C1496 1.415 . S
C1495 C1494 1.355 . S
C1495 C1497 1.419 . S
C1496 C1494 1.415 . S
C1496 C1501 1.425 . S
C1496 C1503 1.409 . S
C1497 H1489 0.930 . S
C1497 C1495 1.419 . S
C1497 C1498 1.362 . S
C1498 H1490 0.930 . S
C1498 C1497 1.362 . S
C1498 C1501 1.409 . S
C1499 H1491 0.930 . S
C1499 C1500 1.355 . S
C1499 C1501 1.415 . S
C1500 C1499 1.355 . S
C1500 C1502 1.419 . S
C1501 C1496 1.425 . S
C1501 C1498 1.409 . S
C1501 C1499 1.415 . S
C1502 H1492 0.930 . S
C1502 C1500 1.419 . S
C1502 C1503 1.362 . S
C1503 H1493 0.930 . S
C1503 C1496 1.409 . S
C1503 C1502 1.362 . S
H1504 C1510 0.930 . S
H1505 C1513 0.930 . S
H1506 C1514 0.930 . S
H1507 C1515 0.930 . S
H1508 C1518 0.930 . S
H1509 C1519 0.930 . S
C1510 H1504 0.930 . S
C1510 C1511 1.355 . S
C1510 C1512 1.415 . S
C1511 C1510 1.355 . S
C1511 C1513 1.419 . S
C1512 C1510 1.415 . S
C1512 C1517 1.425 . S
C1512 C1519 1.409 . S
C1513 H1505 0.930 . S
C1513 C1511 1.419 . S
C1513 C1514 1.362 . S
C1514 H1506 0.930 . S
C1514 C1513 1.362 . S
C1514 C1517 1.409 . S
C1515 H1507 0.930 . S
C1515 C1516 1.355 . S
C1515 C1517 1.415 . S
C1516 C1515 1.355 . S
C1516 C1518 1.419 . S
C1517 C1512 1.425 . S
C1517 C1514 1.409 . S
C1517 C1515 1.415 . S
C1518 H1508 0.930 . S
C1518 C1516 1.419 . S
C1518 C1519 1.362 . S
C1519 H1509 0.930 . S
C1519 C1512 1.409 . S
C1519 C1518 1.362 . S
H1520 C1526 0.930 . S
H1521 C1529 0.930 . S
H1522 C1530 0.930 . S
H1523 C1531 0.930 . S
H1524 C1534 0.930 . S
H1525 C1535 0.943 . S
C1526 H1520 0.930 . S
C1526 C1527 1.355 . S
C1526 C1528 1.415 . S
C1527 C1526 1.355 . S
C1527 C1529 1.419 . S
C1528 C1526 1.415 . S
C1528 C1533 1.425 . S
C1528 C1535 1.409 . S
C1529 H1521 0.930 . S
C1529 C1527 1.419 . S
C1529 C1530 1.362 . S
C1530 H1522 0.930 . S
C1530 C1529 1.362 . S
C1530 C1533 1.409 . S
C1531 H1523 0.930 . S
C1531 C1532 1.324 1_556 S
C1531 C1533 1.415 . S
C1532 C1531 1.324 1_554 S
C1532 C1534 1.430 . S
C1533 C1528 1.425 . S
C1533 C1530 1.409 . S
C1533 C1531 1.415 . S
C1534 H1524 0.930 . S
C1534 C1532 1.430 . S
C1534 C1535 1.362 1_554 S
C1535 H1525 0.943 . S
C1535 C1528 1.409 . S
C1535 C1534 1.362 1_556 S
H1536 C1542 0.930 . S
H1537 C1545 0.930 . S
H1538 C1546 0.930 . S
H1539 C1547 0.930 . S
H1540 C1550 0.930 . S
H1541 C1551 0.930 . S
C1542 H1536 0.930 . S
C1542 C1543 1.355 . S
C1542 C1544 1.415 . S
C1543 C1542 1.355 . S
C1543 C1545 1.419 . S
C1544 C1542 1.415 . S
C1544 C1549 1.425 . S
C1544 C1551 1.409 . S
C1545 H1537 0.930 . S
C1545 C1543 1.419 . S
C1545 C1546 1.362 . S
C1546 H1538 0.930 . S
C1546 C1545 1.362 . S
C1546 C1549 1.409 . S
C1547 H1539 0.930 . S
C1547 C1548 1.355 . S
C1547 C1549 1.415 . S
C1548 C1547 1.355 . S
C1548 C1550 1.419 . S
C1549 C1544 1.425 . S
C1549 C1546 1.409 . S
C1549 C1547 1.415 . S
C1550 H1540 0.930 . S
C1550 C1548 1.419 . S
C1550 C1551 1.362 . S
C1551 H1541 0.930 . S
C1551 C1544 1.409 . S
C1551 C1550 1.362 . S
H1552 C1558 0.930 . S
H1553 C1561 0.930 . S
H1554 C1562 0.930 . S
H1555 C1563 0.930 . S
H1556 C1566 0.930 . S
H1557 C1567 0.930 . S
C1558 H1552 0.930 . S
C1558 C1559 1.355 . S
C1558 C1560 1.415 . S
C1559 C1558 1.355 . S
C1559 C1561 1.419 . S
C1560 C1558 1.415 . S
C1560 C1565 1.425 . S
C1560 C1567 1.409 . S
C1561 H1553 0.930 . S
C1561 C1559 1.419 . S
C1561 C1562 1.362 . S
C1562 H1554 0.930 . S
C1562 C1561 1.362 . S
C1562 C1565 1.409 . S
C1563 H1555 0.930 . S
C1563 C1564 1.355 . S
C1563 C1565 1.415 . S
C1564 C1563 1.355 . S
C1564 C1566 1.419 . S
C1565 C1560 1.425 . S
C1565 C1562 1.409 . S
C1565 C1563 1.415 . S
C1566 H1556 0.930 . S
C1566 C1564 1.419 . S
C1566 C1567 1.362 . S
C1567 H1557 0.930 . S
C1567 C1560 1.409 . S
C1567 C1566 1.362 . S
H1568 C1574 0.930 . S
H1569 C1577 0.930 . S
H1570 C1578 0.930 . S
H1571 C1579 0.930 . S
H1572 C1582 0.930 . S
H1573 C1583 0.930 . S
C1574 H1568 0.930 . S
C1574 C1575 1.355 . S
C1574 C1576 1.415 . S
C1575 C1574 1.355 . S
C1575 C1577 1.419 . S
C1576 C1574 1.415 . S
C1576 C1581 1.425 . S
C1576 C1583 1.409 . S
C1577 H1569 0.930 . S
C1577 C1575 1.419 . S
C1577 C1578 1.362 . S
C1578 H1570 0.930 . S
C1578 C1577 1.362 . S
C1578 C1581 1.409 . S
C1579 H1571 0.930 . S
C1579 C1580 1.355 . S
C1579 C1581 1.415 . S
C1580 C1579 1.355 . S
C1580 C1582 1.419 . S
C1581 C1576 1.425 . S
C1581 C1578 1.409 . S
C1581 C1579 1.415 . S
C1582 H1572 0.930 . S
C1582 C1580 1.419 . S
C1582 C1583 1.362 . S
C1583 H1573 0.930 . S
C1583 C1576 1.409 . S
C1583 C1582 1.362 . S
H1584 C1590 0.930 . S
H1585 C1593 0.930 . S
H1586 C1594 0.930 . S
H1587 C1595 0.930 . S
H1588 C1598 0.954 . S
H1589 C1599 0.930 . S
C1590 H1584 0.930 . S
C1590 C1591 1.355 . S
C1590 C1592 1.415 . S
C1591 C1590 1.355 . S
C1591 C1593 1.419 . S
C1592 C1590 1.415 . S
C1592 C1597 1.425 . S
C1592 C1599 1.409 . S
C1593 H1585 0.930 . S
C1593 C1591 1.419 . S
C1593 C1594 1.362 . S
C1594 H1586 0.930 . S
C1594 C1593 1.362 . S
C1594 C1597 1.409 . S
C1595 H1587 0.930 . S
C1595 C1596 1.359 1_554 S
C1595 C1597 1.415 . S
C1596 C1595 1.359 1_556 S
C1596 C1598 1.418 . S
C1597 C1592 1.425 . S
C1597 C1594 1.409 . S
C1597 C1595 1.415 . S
C1598 H1588 0.954 . S
C1598 C1596 1.418 . S
C1598 C1599 1.340 1_556 S
C1599 H1589 0.930 . S
C1599 C1592 1.409 . S
C1599 C1598 1.340 1_554 S
H1600 C1606 0.930 . S
H1601 C1609 0.930 . S
H1602 C1610 0.930 . S
H1603 C1611 0.930 . S
H1604 C1614 0.930 . S
H1605 C1615 0.930 . S
C1606 H1600 0.930 . S
C1606 C1607 1.355 . S
C1606 C1608 1.415 . S
C1607 C1606 1.355 . S
C1607 C1609 1.419 . S
C1608 C1606 1.415 . S
C1608 C1613 1.425 . S
C1608 C1615 1.409 . S
C1609 H1601 0.930 . S
C1609 C1607 1.419 . S
C1609 C1610 1.362 . S
C1610 H1602 0.930 . S
C1610 C1609 1.362 . S
C1610 C1613 1.409 . S
C1611 H1603 0.930 . S
C1611 C1612 1.355 . S
C1611 C1613 1.415 . S
C1612 C1611 1.355 . S
C1612 C1614 1.419 . S
C1613 C1608 1.425 . S
C1613 C1610 1.409 . S
C1613 C1611 1.415 . S
C1614 H1604 0.930 . S
C1614 C1612 1.419 . S
C1614 C1615 1.362 . S
C1615 H1605 0.930 . S
C1615 C1608 1.409 . S
C1615 C1614 1.362 . S
H1616 C1622 0.930 . S
H1617 C1625 0.930 . S
H1618 C1626 0.930 . S
H1619 C1627 0.930 . S
H1620 C1630 0.930 . S
H1621 C1631 0.930 . S
C1622 H1616 0.930 . S
C1622 C1623 1.355 . S
C1622 C1624 1.415 . S
C1623 C1622 1.355 . S
C1623 C1625 1.419 . S
C1624 C1622 1.415 . S
C1624 C1629 1.425 . S
C1624 C1631 1.409 . S
C1625 H1617 0.930 . S
C1625 C1623 1.419 . S
C1625 C1626 1.362 . S
C1626 H1618 0.930 . S
C1626 C1625 1.362 . S
C1626 C1629 1.409 . S
C1627 H1619 0.930 . S
C1627 C1628 1.355 . S
C1627 C1629 1.415 . S
C1628 C1627 1.355 . S
C1628 C1630 1.419 . S
C1629 C1624 1.425 . S
C1629 C1626 1.409 . S
C1629 C1627 1.415 . S
C1630 H1620 0.930 . S
C1630 C1628 1.419 . S
C1630 C1631 1.362 . S
C1631 H1621 0.930 . S
C1631 C1624 1.409 . S
C1631 C1630 1.362 . S
H1632 C1638 0.930 . S
H1633 C1641 0.930 . S
H1634 C1642 0.930 . S
H1635 C1643 0.930 . S
H1636 C1646 0.930 . S
H1637 C1647 0.930 . S
C1638 H1632 0.930 . S
C1638 C1639 1.355 . S
C1638 C1640 1.415 . S
C1639 C1638 1.355 . S
C1639 C1641 1.419 . S
C1640 C1638 1.415 . S
C1640 C1645 1.425 . S
C1640 C1647 1.409 . S
C1641 H1633 0.930 . S
C1641 C1639 1.419 . S
C1641 C1642 1.362 . S
C1642 H1634 0.930 . S
C1642 C1641 1.362 . S
C1642 C1645 1.409 . S
C1643 H1635 0.930 . S
C1643 C1644 1.355 . S
C1643 C1645 1.415 . S
C1644 C1643 1.355 . S
C1644 C1646 1.419 . S
C1645 C1640 1.425 . S
C1645 C1642 1.409 . S
C1645 C1643 1.415 . S
C1646 H1636 0.930 . S
C1646 C1644 1.419 . S
C1646 C1647 1.362 . S
C1647 H1637 0.930 . S
C1647 C1640 1.409 . S
C1647 C1646 1.362 . S
H1648 C1654 0.930 . S
H1649 C1657 0.930 . S
H1650 C1658 0.930 . S
H1651 C1659 0.930 . S
H1652 C1662 0.930 . S
H1653 C1663 0.930 . S
C1654 H1648 0.930 . S
C1654 C1655 1.355 . S
C1654 C1656 1.415 . S
C1655 C1654 1.355 . S
C1655 C1657 1.419 . S
C1656 C1654 1.415 . S
C1656 C1661 1.425 . S
C1656 C1663 1.409 . S
C1657 H1649 0.930 . S
C1657 C1655 1.419 . S
C1657 C1658 1.362 . S
C1658 H1650 0.930 . S
C1658 C1657 1.362 . S
C1658 C1661 1.409 . S
C1659 H1651 0.930 . S
C1659 C1660 1.355 . S
C1659 C1661 1.415 . S
C1660 C1659 1.355 . S
C1660 C1662 1.419 . S
C1661 C1656 1.425 . S
C1661 C1658 1.409 . S
C1661 C1659 1.415 . S
C1662 H1652 0.930 . S
C1662 C1660 1.419 . S
C1662 C1663 1.362 . S
C1663 H1653 0.930 . S
C1663 C1656 1.409 . S
C1663 C1662 1.362 . S
H1664 C1670 0.930 . S
H1665 C1673 0.930 . S
H1666 C1674 0.930 1_565 S
H1667 C1675 0.930 . S
H1668 C1678 0.930 . S
H1669 C1679 0.930 . S
C1670 H1664 0.930 . S
C1670 C1671 1.355 . S
C1670 C1672 1.415 . S
C1671 C1670 1.355 . S
C1671 C1673 1.419 . S
C1672 C1670 1.415 . S
C1672 C1677 1.425 . S
C1672 C1679 1.409 . S
C1673 H1665 0.930 . S
C1673 C1671 1.419 . S
C1673 C1674 1.362 . S
C1674 H1666 0.930 1_545 S
C1674 C1673 1.362 . S
C1674 C1677 1.409 . S
C1675 H1667 0.930 . S
C1675 C1676 1.355 . S
C1675 C1677 1.415 1_565 S
C1676 C1675 1.355 . S
C1676 C1678 1.419 1_565 S
C1677 C1672 1.425 . S
C1677 C1674 1.409 . S
C1677 C1675 1.415 1_545 S
C1678 H1668 0.930 . S
C1678 C1676 1.419 1_545 S
C1678 C1679 1.362 . S
C1679 H1669 0.930 . S
C1679 C1672 1.409 . S
C1679 C1678 1.362 . S
H1680 C1686 0.930 . S
H1681 C1689 0.930 . S
H1682 C1690 0.930 . S
H1683 C1691 0.930 . S
H1684 C1694 0.930 . S
H1685 C1695 0.930 . S
C1686 H1680 0.930 . S
C1686 C1687 1.355 . S
C1686 C1688 1.415 . S
C1687 C1686 1.355 . S
C1687 C1689 1.419 . S
C1688 C1686 1.415 . S
C1688 C1693 1.425 . S
C1688 C1695 1.409 . S
C1689 H1681 0.930 . S
C1689 C1687 1.419 . S
C1689 C1690 1.362 . S
C1690 H1682 0.930 . S
C1690 C1689 1.362 . S
C1690 C1693 1.409 . S
C1691 H1683 0.930 . S
C1691 C1692 1.355 . S
C1691 C1693 1.415 . S
C1692 C1691 1.355 . S
C1692 C1694 1.419 . S
C1693 C1688 1.425 . S
C1693 C1690 1.409 . S
C1693 C1691 1.415 . S
C1694 H1684 0.930 . S
C1694 C1692 1.419 . S
C1694 C1695 1.362 . S
C1695 H1685 0.930 . S
C1695 C1688 1.409 . S
C1695 C1694 1.362 . S
H1696 C1702 0.930 . S
H1697 C1705 0.930 . S
H1698 C1706 0.930 . S
H1699 C1707 0.930 . S
H1700 C1710 0.930 . S
H1701 C1711 0.930 . S
C1702 H1696 0.930 . S
C1702 C1703 1.355 . S
C1702 C1704 1.415 . S
C1703 C1702 1.355 . S
C1703 C1705 1.419 . S
C1704 C1702 1.415 . S
C1704 C1709 1.425 . S
C1704 C1711 1.409 . S
C1705 H1697 0.930 . S
C1705 C1703 1.419 . S
C1705 C1706 1.362 . S
C1706 H1698 0.930 . S
C1706 C1705 1.362 . S
C1706 C1709 1.409 . S
C1707 H1699 0.930 . S
C1707 C1708 1.355 . S
C1707 C1709 1.415 . S
C1708 C1707 1.355 . S
C1708 C1710 1.419 . S
C1709 C1704 1.425 . S
C1709 C1706 1.409 . S
C1709 C1707 1.415 . S
C1710 H1700 0.930 . S
C1710 C1708 1.419 . S
C1710 C1711 1.362 . S
C1711 H1701 0.930 . S
C1711 C1704 1.409 . S
C1711 C1710 1.362 . S
H1712 C1718 0.930 . S
H1713 C1721 0.930 . S
H1714 C1722 0.930 . S
H1715 C1723 0.930 . S
H1716 C1726 0.930 . S
H1717 C1727 0.930 . S
C1718 H1712 0.930 . S
C1718 C1719 1.355 . S
C1718 C1720 1.415 . S
C1719 C1718 1.355 . S
C1719 C1721 1.419 . S
C1720 C1718 1.415 . S
C1720 C1725 1.425 . S
C1720 C1727 1.409 . S
C1721 H1713 0.930 . S
C1721 C1719 1.419 . S
C1721 C1722 1.362 . S
C1722 H1714 0.930 . S
C1722 C1721 1.362 . S
C1722 C1725 1.409 . S
C1723 H1715 0.930 . S
C1723 C1724 1.355 . S
C1723 C1725 1.415 . S
C1724 C1723 1.355 . S
C1724 C1726 1.419 . S
C1725 C1720 1.425 . S
C1725 C1722 1.409 . S
C1725 C1723 1.415 . S
C1726 H1716 0.930 . S
C1726 C1724 1.419 . S
C1726 C1727 1.362 . S
C1727 H1717 0.930 . S
C1727 C1720 1.409 . S
C1727 C1726 1.362 . S
H1728 C1734 0.930 . S
H1729 C1737 0.930 . S
H1730 C1738 0.930 . S
H1731 C1739 0.930 . S
H1732 C1742 0.930 . S
H1733 C1743 0.930 . S
C1734 H1728 0.930 . S
C1734 C1735 1.355 . S
C1734 C1736 1.415 . S
C1735 C1734 1.355 . S
C1735 C1737 1.419 . S
C1736 C1734 1.415 . S
C1736 C1741 1.425 . S
C1736 C1743 1.409 . S
C1737 H1729 0.930 . S
C1737 C1735 1.419 . S
C1737 C1738 1.362 . S
C1738 H1730 0.930 . S
C1738 C1737 1.362 . S
C1738 C1741 1.409 . S
C1739 H1731 0.930 . S
C1739 C1740 1.355 . S
C1739 C1741 1.415 . S
C1740 C1739 1.355 . S
C1740 C1742 1.419 . S
C1741 C1736 1.425 . S
C1741 C1738 1.409 . S
C1741 C1739 1.415 . S
C1742 H1732 0.930 . S
C1742 C1740 1.419 . S
C1742 C1743 1.362 . S
C1743 H1733 0.930 . S
C1743 C1736 1.409 . S
C1743 C1742 1.362 . S
H1744 C1750 0.930 . S
H1745 C1753 0.930 . S
H1746 C1754 0.930 . S
H1747 C1755 0.930 . S
H1748 C1758 0.930 . S
H1749 C1759 0.930 . S
C1750 H1744 0.930 . S
C1750 C1751 1.355 1_655 S
C1750 C1752 1.415 . S
C1751 C1750 1.355 1_455 S
C1751 C1753 1.419 . S
C1752 C1750 1.415 . S
C1752 C1757 1.425 . S
C1752 C1759 1.409 . S
C1753 H1745 0.930 . S
C1753 C1751 1.419 . S
C1753 C1754 1.362 . S
C1754 H1746 0.930 . S
C1754 C1753 1.362 . S
C1754 C1757 1.409 1_455 S
C1755 H1747 0.930 . S
C1755 C1756 1.355 . S
C1755 C1757 1.415 . S
C1756 C1755 1.355 . S
C1756 C1758 1.419 . S
C1757 C1752 1.425 . S
C1757 C1754 1.409 1_655 S
C1757 C1755 1.415 . S
C1758 H1748 0.930 . S
C1758 C1756 1.419 . S
C1758 C1759 1.362 . S
C1759 H1749 0.930 . S
C1759 C1752 1.409 . S
C1759 C1758 1.362 . S
H1760 C1766 0.930 . S
H1761 C1769 0.930 . S
H1762 C1770 0.930 . S
H1763 C1771 0.930 . S
H1764 C1774 0.930 . S
H1765 C1775 0.930 . S
C1766 H1760 0.930 . S
C1766 C1767 1.355 . S
C1766 C1768 1.415 . S
C1767 C1766 1.355 . S
C1767 C1769 1.419 . S
C1768 C1766 1.415 . S
C1768 C1773 1.425 . S
C1768 C1775 1.409 . S
C1769 H1761 0.930 . S
C1769 C1767 1.419 . S
C1769 C1770 1.362 . S
C1770 H1762 0.930 . S
C1770 C1769 1.362 . S
C1770 C1773 1.409 . S
C1771 H1763 0.930 . S
C1771 C1772 1.355 . S
C1771 C1773 1.415 . S
C1772 C1771 1.355 . S
C1772 C1774 1.419 . S
C1773 C1768 1.425 . S
C1773 C1770 1.409 . S
C1773 C1771 1.415 . S
C1774 H1764 0.930 . S
C1774 C1772 1.419 . S
C1774 C1775 1.362 . S
C1775 H1765 0.930 . S
C1775 C1768 1.409 . S
C1775 C1774 1.362 . S
H1776 C1782 0.930 . S
H1777 C1785 0.930 . S
H1778 C1786 0.930 . S
H1779 C1787 0.930 . S
H1780 C1790 0.930 . S
H1781 C1791 0.930 . S
C1782 H1776 0.930 . S
C1782 C1783 1.355 . S
C1782 C1784 1.415 . S
C1783 C1782 1.355 . S
C1783 C1785 1.419 . S
C1784 C1782 1.415 . S
C1784 C1789 1.425 . S
C1784 C1791 1.409 . S
C1785 H1777 0.930 . S
C1785 C1783 1.419 . S
C1785 C1786 1.362 . S
C1786 H1778 0.930 . S
C1786 C1785 1.362 . S
C1786 C1789 1.409 . S
C1787 H1779 0.930 . S
C1787 C1788 1.355 . S
C1787 C1789 1.415 . S
C1788 C1787 1.355 . S
C1788 C1790 1.419 . S
C1789 C1784 1.425 . S
C1789 C1786 1.409 . S
C1789 C1787 1.415 . S
C1790 H1780 0.930 . S
C1790 C1788 1.419 . S
C1790 C1791 1.362 . S
C1791 H1781 0.930 . S
C1791 C1784 1.409 . S
C1791 C1790 1.362 . S
H1792 C1798 0.930 . S
H1793 C1801 0.930 . S
H1794 C1802 0.930 . S
H1795 C1803 0.930 . S
H1796 C1806 0.930 . S
H1797 C1807 0.930 . S
C1798 H1792 0.930 . S
C1798 C1799 1.355 . S
C1798 C1800 1.415 . S
C1799 C1798 1.355 . S
C1799 C1801 1.419 . S
C1800 C1798 1.415 . S
C1800 C1805 1.425 . S
C1800 C1807 1.409 . S
C1801 H1793 0.930 . S
C1801 C1799 1.419 . S
C1801 C1802 1.362 . S
C1802 H1794 0.930 . S
C1802 C1801 1.362 . S
C1802 C1805 1.409 . S
C1803 H1795 0.930 . S
C1803 C1804 1.355 . S
C1803 C1805 1.415 . S
C1804 C1803 1.355 . S
C1804 C1806 1.419 . S
C1805 C1800 1.425 . S
C1805 C1802 1.409 . S
C1805 C1803 1.415 . S
C1806 H1796 0.930 . S
C1806 C1804 1.419 . S
C1806 C1807 1.362 . S
C1807 H1797 0.930 . S
C1807 C1800 1.409 . S
C1807 C1806 1.362 . S
H1808 C1814 0.930 . S
H1809 C1817 0.930 . S
H1810 C1818 0.930 . S
H1811 C1819 0.930 . S
H1812 C1822 0.930 . S
H1813 C1823 0.930 . S
C1814 H1808 0.930 . S
C1814 C1815 1.355 . S
C1814 C1816 1.415 . S
C1815 C1814 1.355 . S
C1815 C1817 1.419 . S
C1816 C1814 1.415 . S
C1816 C1821 1.425 . S
C1816 C1823 1.409 . S
C1817 H1809 0.930 . S
C1817 C1815 1.419 . S
C1817 C1818 1.362 . S
C1818 H1810 0.930 . S
C1818 C1817 1.362 . S
C1818 C1821 1.409 . S
C1819 H1811 0.930 . S
C1819 C1820 1.355 . S
C1819 C1821 1.415 . S
C1820 C1819 1.355 . S
C1820 C1822 1.419 . S
C1821 C1816 1.425 . S
C1821 C1818 1.409 . S
C1821 C1819 1.415 . S
C1822 H1812 0.930 . S
C1822 C1820 1.419 . S
C1822 C1823 1.362 . S
C1823 H1813 0.930 . S
C1823 C1816 1.409 . S
C1823 C1822 1.362 . S
H1824 C1830 0.930 . S
H1825 C1833 0.930 . S
H1826 C1834 0.930 . S
H1827 C1835 0.930 . S
H1828 C1838 0.930 . S
H1829 C1839 0.930 . S
C1830 H1824 0.930 . S
C1830 C1831 1.355 . S
C1830 C1832 1.415 . S
C1831 C1830 1.355 . S
C1831 C1833 1.419 . S
C1832 C1830 1.415 . S
C1832 C1837 1.425 . S
C1832 C1839 1.409 . S
C1833 H1825 0.930 . S
C1833 C1831 1.419 . S
C1833 C1834 1.362 . S
C1834 H1826 0.930 . S
C1834 C1833 1.362 . S
C1834 C1837 1.409 . S
C1835 H1827 0.930 . S
C1835 C1836 1.355 . S
C1835 C1837 1.415 . S
C1836 C1835 1.355 . S
C1836 C1838 1.419 . S
C1837 C1832 1.425 . S
C1837 C1834 1.409 . S
C1837 C1835 1.415 . S
C1838 H1828 0.930 . S
C1838 C1836 1.419 . S
C1838 C1839 1.362 . S
C1839 H1829 0.930 . S
C1839 C1832 1.409 . S
C1839 C1838 1.362 . S
H1840 C1846 0.930 . S
H1841 C1849 0.930 . S
H1842 C1850 0.930 . S
H1843 C1851 0.906 1_455 S
H1844 C1854 0.930 . S
H1845 C1855 0.930 . S
C1846 H1840 0.930 . S
C1846 C1847 1.355 . S
C1846 C1848 1.415 . S
C1847 C1846 1.355 . S
C1847 C1849 1.419 . S
C1848 C1846 1.415 . S
C1848 C1853 1.425 . S
C1848 C1855 1.409 . S
C1849 H1841 0.930 . S
C1849 C1847 1.419 . S
C1849 C1850 1.362 . S
C1850 H1842 0.930 . S
C1850 C1849 1.362 . S
C1850 C1853 1.409 . S
C1851 H1843 0.906 1_655 S
C1851 C1852 1.350 1_655 S
C1851 C1853 1.443 . S
C1852 C1851 1.350 1_455 S
C1852 C1854 1.419 1_455 S
C1853 C1848 1.425 . S
C1853 C1850 1.409 . S
C1853 C1851 1.443 . S
C1854 H1844 0.930 . S
C1854 C1852 1.419 1_655 S
C1854 C1855 1.362 . S
C1855 H1845 0.930 . S
C1855 C1848 1.409 . S
C1855 C1854 1.362 . S
H1856 C1862 0.930 . S
H1857 C1865 0.930 . S
H1858 C1866 0.930 . S
H1859 C1867 0.930 . S
H1860 C1870 0.930 . S
H1861 C1871 0.930 . S
C1862 H1856 0.930 . S
C1862 C1863 1.355 . S
C1862 C1864 1.415 . S
C1863 C1862 1.355 . S
C1863 C1865 1.419 . S
C1864 C1862 1.415 . S
C1864 C1869 1.425 . S
C1864 C1871 1.409 . S
C1865 H1857 0.930 . S
C1865 C1863 1.419 . S
C1865 C1866 1.362 . S
C1866 H1858 0.930 . S
C1866 C1865 1.362 . S
C1866 C1869 1.409 . S
C1867 H1859 0.930 . S
C1867 C1868 1.355 . S
C1867 C1869 1.415 . S
C1868 C1867 1.355 . S
C1868 C1870 1.419 . S
C1869 C1864 1.425 . S
C1869 C1866 1.409 . S
C1869 C1867 1.415 . S
C1870 H1860 0.930 . S
C1870 C1868 1.419 . S
C1870 C1871 1.362 . S
C1871 H1861 0.930 . S
C1871 C1864 1.409 . S
C1871 C1870 1.362 . S
H1872 C1878 0.930 . S
H1873 C1881 0.930 . S
H1874 C1882 0.930 . S
H1875 C1883 0.930 . S
H1876 C1886 0.930 . S
H1877 C1887 0.930 . S
C1878 H1872 0.930 . S
C1878 C1879 1.355 . S
C1878 C1880 1.415 . S
C1879 C1878 1.355 . S
C1879 C1881 1.419 . S
C1880 C1878 1.415 . S
C1880 C1885 1.425 . S
C1880 C1887 1.409 . S
C1881 H1873 0.930 . S
C1881 C1879 1.419 . S
C1881 C1882 1.362 . S
C1882 H1874 0.930 . S
C1882 C1881 1.362 . S
C1882 C1885 1.409 . S
C1883 H1875 0.930 . S
C1883 C1884 1.355 . S
C1883 C1885 1.415 . S
C1884 C1883 1.355 . S
C1884 C1886 1.419 . S
C1885 C1880 1.425 . S
C1885 C1882 1.409 . S
C1885 C1883 1.415 . S
C1886 H1876 0.930 . S
C1886 C1884 1.419 . S
C1886 C1887 1.362 . S
C1887 H1877 0.930 . S
C1887 C1880 1.409 . S
C1887 C1886 1.362 . S
H1888 C1894 0.930 . S
H1889 C1897 0.930 . S
H1890 C1898 0.930 . S
H1891 C1899 0.930 . S
H1892 C1902 0.930 . S
H1893 C1903 0.930 . S
C1894 H1888 0.930 . S
C1894 C1895 1.355 . S
C1894 C1896 1.415 . S
C1895 C1894 1.355 . S
C1895 C1897 1.419 . S
C1896 C1894 1.415 . S
C1896 C1901 1.425 . S
C1896 C1903 1.409 . S
C1897 H1889 0.930 . S
C1897 C1895 1.419 . S
C1897 C1898 1.362 . S
C1898 H1890 0.930 . S
C1898 C1897 1.362 . S
C1898 C1901 1.409 . S
C1899 H1891 0.930 . S
C1899 C1900 1.355 . S
C1899 C1901 1.415 . S
C1900 C1899 1.355 . S
C1900 C1902 1.419 . S
C1901 C1896 1.425 . S
C1901 C1898 1.409 . S
C1901 C1899 1.415 . S
C1902 H1892 0.930 . S
C1902 C1900 1.419 . S
C1902 C1903 1.362 . S
C1903 H1893 0.930 . S
C1903 C1896 1.409 . S
C1903 C1902 1.362 . S
H1904 C1910 0.930 . S
H1905 C1913 0.930 . S
H1906 C1914 0.930 . S
H1907 C1915 0.930 . S
H1908 C1918 0.930 . S
H1909 C1919 0.930 . S
C1910 H1904 0.930 . S
C1910 C1911 1.355 1_554 S
C1910 C1912 1.415 . S
C1911 C1910 1.355 1_556 S
C1911 C1913 1.419 . S
C1912 C1910 1.415 . S
C1912 C1917 1.425 . S
C1912 C1919 1.409 . S
C1913 H1905 0.930 . S
C1913 C1911 1.419 . S
C1913 C1914 1.362 . S
C1914 H1906 0.930 . S
C1914 C1913 1.362 . S
C1914 C1917 1.409 1_556 S
C1915 H1907 0.930 . S
C1915 C1916 1.355 . S
C1915 C1917 1.415 . S
C1916 C1915 1.355 . S
C1916 C1918 1.419 . S
C1917 C1912 1.425 . S
C1917 C1914 1.409 1_554 S
C1917 C1915 1.415 . S
C1918 H1908 0.930 . S
C1918 C1916 1.419 . S
C1918 C1919 1.362 . S
C1919 H1909 0.930 . S
C1919 C1912 1.409 . S
C1919 C1918 1.362 . S
H1920 C1926 0.930 . S
H1921 C1929 0.930 . S
H1922 C1930 0.930 . S
H1923 C1931 0.930 . S
H1924 C1934 0.930 . S
H1925 C1935 0.930 . S
C1926 H1920 0.930 . S
C1926 C1927 1.355 . S
C1926 C1928 1.415 . S
C1927 C1926 1.355 . S
C1927 C1929 1.419 . S
C1928 C1926 1.415 . S
C1928 C1933 1.425 . S
C1928 C1935 1.409 . S
C1929 H1921 0.930 . S
C1929 C1927 1.419 . S
C1929 C1930 1.362 . S
C1930 H1922 0.930 . S
C1930 C1929 1.362 . S
C1930 C1933 1.409 . S
C1931 H1923 0.930 . S
C1931 C1932 1.355 . S
C1931 C1933 1.415 . S
C1932 C1931 1.355 . S
C1932 C1934 1.419 . S
C1933 C1928 1.425 . S
C1933 C1930 1.409 . S
C1933 C1931 1.415 . S
C1934 H1924 0.930 . S
C1934 C1932 1.419 . S
C1934 C1935 1.362 . S
C1935 H1925 0.930 . S
C1935 C1928 1.409 . S
C1935 C1934 1.362 . S
H1936 C1942 0.930 . S
H1937 C1945 0.930 . S
H1938 C1946 0.930 . S
H1939 C1947 0.930 . S
H1940 C1950 0.930 . S
H1941 C1951 0.930 . S
C1942 H1936 0.930 . S
C1942 C1943 1.355 . S
C1942 C1944 1.415 . S
C1943 C1942 1.355 . S
C1943 C1945 1.419 . S
C1944 C1942 1.415 . S
C1944 C1949 1.425 . S
C1944 C1951 1.409 . S
C1945 H1937 0.930 . S
C1945 C1943 1.419 . S
C1945 C1946 1.362 . S
C1946 H1938 0.930 . S
C1946 C1945 1.362 . S
C1946 C1949 1.409 . S
C1947 H1939 0.930 . S
C1947 C1948 1.355 . S
C1947 C1949 1.415 . S
C1948 C1947 1.355 . S
C1948 C1950 1.419 . S
C1949 C1944 1.425 . S
C1949 C1946 1.409 . S
C1949 C1947 1.415 . S
C1950 H1940 0.930 . S
C1950 C1948 1.419 . S
C1950 C1951 1.362 . S
C1951 H1941 0.930 . S
C1951 C1944 1.409 . S
C1951 C1950 1.362 . S
H1952 C1958 0.930 . S
H1953 C1961 0.930 . S
H1954 C1962 0.930 . S
H1955 C1963 0.930 . S
H1956 C1966 0.930 . S
H1957 C1967 0.930 . S
C1958 H1952 0.930 . S
C1958 C1959 1.355 . S
C1958 C1960 1.415 . S
C1959 C1958 1.355 . S
C1959 C1961 1.419 . S
C1960 C1958 1.415 . S
C1960 C1965 1.425 . S
C1960 C1967 1.409 . S
C1961 H1953 0.930 . S
C1961 C1959 1.419 . S
C1961 C1962 1.362 . S
C1962 H1954 0.930 . S
C1962 C1961 1.362 . S
C1962 C1965 1.409 . S
C1963 H1955 0.930 . S
C1963 C1964 1.355 . S
C1963 C1965 1.415 . S
C1964 C1963 1.355 . S
C1964 C1966 1.419 . S
C1965 C1960 1.425 . S
C1965 C1962 1.409 . S
C1965 C1963 1.415 . S
C1966 H1956 0.930 . S
C1966 C1964 1.419 . S
C1966 C1967 1.362 . S
C1967 H1957 0.930 . S
C1967 C1960 1.409 . S
C1967 C1966 1.362 . S
H1968 C1974 0.930 . S
H1969 C1977 0.930 . S
H1970 C1978 0.930 1_554 S
H1971 C1979 0.930 . S
H1972 C1982 0.930 . S
H1973 C1983 0.930 . S
C1974 H1968 0.930 . S
C1974 C1975 1.355 1_556 S
C1974 C1976 1.415 . S
C1975 C1974 1.355 1_554 S
C1975 C1977 1.419 . S
C1976 C1974 1.415 . S
C1976 C1981 1.425 . S
C1976 C1983 1.409 . S
C1977 H1969 0.930 . S
C1977 C1975 1.419 . S
C1977 C1978 1.362 1_554 S
C1978 H1970 0.930 1_556 S
C1978 C1977 1.362 1_556 S
C1978 C1981 1.409 . S
C1979 H1971 0.930 . S
C1979 C1980 1.355 . S
C1979 C1981 1.415 . S
C1980 C1979 1.355 . S
C1980 C1982 1.419 . S
C1981 C1976 1.425 . S
C1981 C1978 1.409 . S
C1981 C1979 1.415 . S
C1982 H1972 0.930 . S
C1982 C1980 1.419 . S
C1982 C1983 1.362 . S
C1983 H1973 0.930 . S
C1983 C1976 1.409 . S
C1983 C1982 1.362 . S
H1984 C1990 0.930 . S
H1985 C1993 0.930 . S
H1986 C1994 0.930 . S
H1987 C1995 0.930 . S
H1988 C1998 0.930 . S
H1989 C1999 0.930 . S
C1990 H1984 0.930 . S
C1990 C1991 1.355 . S
C1990 C1992 1.415 . S
C1991 C1990 1.355 . S
C1991 C1993 1.419 . S
C1992 C1990 1.415 . S
C1992 C1997 1.425 . S
C1992 C1999 1.409 . S
C1993 H1985 0.930 . S
C1993 C1991 1.419 . S
C1993 C1994 1.362 . S
C1994 H1986 0.930 . S
C1994 C1993 1.362 . S
C1994 C1997 1.409 . S
C1995 H1987 0.930 . S
C1995 C1996 1.355 . S
C1995 C1997 1.415 . S
C1996 C1995 1.355 . S
C1996 C1998 1.419 . S
C1997 C1992 1.425 . S
C1997 C1994 1.409 . S
C1997 C1995 1.415 . S
C1998 H1988 0.930 . S
C1998 C1996 1.419 . S
C1998 C1999 1.362 . S
C1999 H1989 0.930 . S
C1999 C1992 1.409 . S
C1999 C1998 1.362 . S
H2000 C2006 0.930 . S
H2001 C2009 0.930 . S
H2002 C2010 0.930 . S
H2003 C2011 0.930 . S
H2004 C2014 0.930 . S
H2005 C2015 0.930 . S
C2006 H2000 0.930 . S
C2006 C2007 1.355 . S
C2006 C2008 1.415 . S
C2007 C2006 1.355 . S
C2007 C2009 1.419 . S
C2008 C2006 1.415 . S
C2008 C2013 1.425 . S
C2008 C2015 1.409 . S
C2009 H2001 0.930 . S
C2009 C2007 1.419 . S
C2009 C2010 1.362 . S
C2010 H2002 0.930 . S
C2010 C2009 1.362 . S
C2010 C2013 1.409 . S
C2011 H2003 0.930 . S
C2011 C2012 1.355 . S
C2011 C2013 1.415 . S
C2012 C2011 1.355 . S
C2012 C2014 1.419 . S
C2013 C2008 1.425 . S
C2013 C2010 1.409 . S
C2013 C2011 1.415 . S
C2014 H2004 0.930 . S
C2014 C2012 1.419 . S
C2014 C2015 1.362 . S
C2015 H2005 0.930 . S
C2015 C2008 1.409 . S
C2015 C2014 1.362 . S
H2016 C2022 0.930 . S
H2017 C2025 0.930 . S
H2018 C2026 0.930 . S
H2019 C2027 0.930 . S
H2020 C2030 0.930 . S
H2021 C2031 0.930 . S
C2022 H2016 0.930 . S
C2022 C2023 1.355 . S
C2022 C2024 1.415 . S
C2023 C2022 1.355 . S
C2023 C2025 1.419 . S
C2024 C2022 1.415 . S
C2024 C2029 1.425 . S
C2024 C2031 1.409 . S
C2025 H2017 0.930 . S
C2025 C2023 1.419 . S
C2025 C2026 1.362 . S
C2026 H2018 0.930 . S
C2026 C2025 1.362 . S
C2026 C2029 1.409 . S
C2027 H2019 0.930 . S
C2027 C2028 1.355 . S
C2027 C2029 1.415 . S
C2028 C2027 1.355 . S
C2028 C2030 1.419 . S
C2029 C2024 1.425 . S
C2029 C2026 1.409 . S
C2029 C2027 1.415 . S
C2030 H2020 0.930 . S
C2030 C2028 1.419 . S
C2030 C2031 1.362 . S
C2031 H2021 0.930 . S
C2031 C2024 1.409 . S
C2031 C2030 1.362 . S
H2032 C2038 0.930 . S
H2033 C2041 0.930 . S
H2034 C2042 0.930 . S
H2035 C2043 0.930 . S
H2036 C2046 0.930 . S
H2037 C2047 0.930 . S
C2038 H2032 0.930 . S
C2038 C2039 1.355 . S
C2038 C2040 1.415 . S
C2039 C2038 1.355 . S
C2039 C2041 1.419 . S
C2040 C2038 1.415 . S
C2040 C2045 1.425 . S
C2040 C2047 1.409 . S
C2041 H2033 0.930 . S
C2041 C2039 1.419 . S
C2041 C2042 1.362 . S
C2042 H2034 0.930 . S
C2042 C2041 1.362 . S
C2042 C2045 1.409 . S
C2043 H2035 0.930 . S
C2043 C2044 1.355 . S
C2043 C2045 1.415 . S
C2044 C2043 1.355 . S
C2044 C2046 1.419 . S
C2045 C2040 1.425 . S
C2045 C2042 1.409 . S
C2045 C2043 1.415 . S
C2046 H2036 0.930 . S
C2046 C2044 1.419 . S
C2046 C2047 1.362 . S
C2047 H2037 0.930 . S
C2047 C2040 1.409 . S
C2047 C2046 1.362 . S
H2048 C2054 0.930 . S
H2049 C2057 0.930 . S
H2050 C2058 0.930 . S
H2051 C2059 0.930 . S
H2052 C2062 0.921 1_545 S
H2053 C2063 0.930 . S
C2054 H2048 0.930 . S
C2054 C2055 1.355 . S
C2054 C2056 1.415 . S
C2055 C2054 1.355 . S
C2055 C2057 1.419 . S
C2056 C2054 1.415 . S
C2056 C2061 1.425 . S
C2056 C2063 1.409 . S
C2057 H2049 0.930 . S
C2057 C2055 1.419 . S
C2057 C2058 1.362 . S
C2058 H2050 0.930 . S
C2058 C2057 1.362 . S
C2058 C2061 1.409 . S
C2059 H2051 0.930 . S
C2059 C2060 1.355 . S
C2059 C2061 1.415 1_545 S
C2060 C2059 1.355 . S
C2060 C2062 1.398 1_545 S
C2061 C2056 1.425 . S
C2061 C2058 1.409 . S
C2061 C2059 1.415 1_565 S
C2062 H2052 0.921 1_565 S
C2062 C2060 1.398 1_565 S
C2062 C2063 1.394 . S
C2063 H2053 0.930 . S
C2063 C2056 1.409 . S
C2063 C2062 1.394 . S
H2064 C2070 0.930 . S
H2065 C2073 0.930 . S
H2066 C2074 0.930 . S
H2067 C2075 0.930 . S
H2068 C2078 0.930 . S
H2069 C2079 0.930 . S
C2070 H2064 0.930 . S
C2070 C2071 1.355 . S
C2070 C2072 1.415 . S
C2071 C2070 1.355 . S
C2071 C2073 1.419 . S
C2072 C2070 1.415 . S
C2072 C2077 1.425 . S
C2072 C2079 1.409 . S
C2073 H2065 0.930 . S
C2073 C2071 1.419 . S
C2073 C2074 1.362 . S
C2074 H2066 0.930 . S
C2074 C2073 1.362 . S
C2074 C2077 1.409 . S
C2075 H2067 0.930 . S
C2075 C2076 1.355 . S
C2075 C2077 1.415 . S
C2076 C2075 1.355 . S
C2076 C2078 1.419 . S
C2077 C2072 1.425 . S
C2077 C2074 1.409 . S
C2077 C2075 1.415 . S
C2078 H2068 0.930 . S
C2078 C2076 1.419 . S
C2078 C2079 1.362 . S
C2079 H2069 0.930 . S
C2079 C2072 1.409 . S
C2079 C2078 1.362 . S
H2080 C2086 0.930 . S
H2081 C2089 0.930 . S
H2082 C2090 0.930 . S
H2083 C2091 0.930 . S
H2084 C2094 0.930 . S
H2085 C2095 0.930 . S
C2086 H2080 0.930 . S
C2086 C2087 1.355 . S
C2086 C2088 1.415 . S
C2087 C2086 1.355 . S
C2087 C2089 1.419 . S
C2088 C2086 1.415 . S
C2088 C2093 1.425 . S
C2088 C2095 1.409 . S
C2089 H2081 0.930 . S
C2089 C2087 1.419 . S
C2089 C2090 1.362 . S
C2090 H2082 0.930 . S
C2090 C2089 1.362 . S
C2090 C2093 1.409 . S
C2091 H2083 0.930 . S
C2091 C2092 1.355 . S
C2091 C2093 1.415 . S
C2092 C2091 1.355 . S
C2092 C2094 1.419 . S
C2093 C2088 1.425 . S
C2093 C2090 1.409 . S
C2093 C2091 1.415 . S
C2094 H2084 0.930 . S
C2094 C2092 1.419 . S
C2094 C2095 1.362 . S
C2095 H2085 0.930 . S
C2095 C2088 1.409 . S
C2095 C2094 1.362 . S
H2096 C2102 0.930 . S
H2097 C2105 0.930 . S
H2098 C2106 0.930 . S
H2099 C2107 0.930 . S
H2100 C2110 0.930 . S
H2101 C2111 0.930 . S
C2102 H2096 0.930 . S
C2102 C2103 1.355 . S
C2102 C2104 1.415 . S
C2103 C2102 1.355 . S
C2103 C2105 1.419 . S
C2104 C2102 1.415 . S
C2104 C2109 1.425 . S
C2104 C2111 1.409 . S
C2105 H2097 0.930 . S
C2105 C2103 1.419 . S
C2105 C2106 1.362 . S
C2106 H2098 0.930 . S
C2106 C2105 1.362 . S
C2106 C2109 1.409 . S
C2107 H2099 0.930 . S
C2107 C2108 1.355 . S
C2107 C2109 1.415 . S
C2108 C2107 1.355 . S
C2108 C2110 1.419 . S
C2109 C2104 1.425 . S
C2109 C2106 1.409 . S
C2109 C2107 1.415 . S
C2110 H2100 0.930 . S
C2110 C2108 1.419 . S
C2110 C2111 1.362 . S
C2111 H2101 0.930 . S
C2111 C2104 1.409 . S
C2111 C2110 1.362 . S
H2112 C2118 0.930 . S
H2113 C2121 0.930 . S
H2114 C2122 0.930 . S
H2115 C2123 0.930 . S
H2116 C2126 0.930 . S
H2117 C2127 0.930 . S
C2118 H2112 0.930 . S
C2118 C2119 1.355 . S
C2118 C2120 1.415 . S
C2119 C2118 1.355 . S
C2119 C2121 1.419 . S
C2120 C2118 1.415 . S
C2120 C2125 1.425 . S
C2120 C2127 1.409 . S
C2121 H2113 0.930 . S
C2121 C2119 1.419 . S
C2121 C2122 1.362 . S
C2122 H2114 0.930 . S
C2122 C2121 1.362 . S
C2122 C2125 1.409 . S
C2123 H2115 0.930 . S
C2123 C2124 1.355 . S
C2123 C2125 1.415 . S
C2124 C2123 1.355 . S
C2124 C2126 1.419 . S
C2125 C2120 1.425 . S
C2125 C2122 1.409 . S
C2125 C2123 1.415 . S
C2126 H2116 0.930 . S
C2126 C2124 1.419 . S
C2126 C2127 1.362 . S
C2127 H2117 0.930 . S
C2127 C2120 1.409 . S
C2127 C2126 1.362 . S
H2128 C2134 0.930 . S
H2129 C2137 0.930 . S
H2130 C2138 0.930 . S
H2131 C2139 0.930 . S
H2132 C2142 0.930 . S
H2133 C2143 0.930 . S
C2134 H2128 0.930 . S
C2134 C2135 1.355 . S
C2134 C2136 1.415 . S
C2135 C2134 1.355 . S
C2135 C2137 1.419 . S
C2136 C2134 1.415 . S
C2136 C2141 1.425 . S
C2136 C2143 1.409 . S
C2137 H2129 0.930 . S
C2137 C2135 1.419 . S
C2137 C2138 1.362 . S
C2138 H2130 0.930 . S
C2138 C2137 1.362 . S
C2138 C2141 1.409 . S
C2139 H2131 0.930 . S
C2139 C2140 1.355 . S
C2139 C2141 1.415 . S
C2140 C2139 1.355 . S
C2140 C2142 1.419 . S
C2141 C2136 1.425 . S
C2141 C2138 1.409 . S
C2141 C2139 1.415 . S
C2142 H2132 0.930 . S
C2142 C2140 1.419 . S
C2142 C2143 1.362 . S
C2143 H2133 0.930 . S
C2143 C2136 1.409 . S
C2143 C2142 1.362 . S
H2144 C2150 0.930 . S
H2145 C2153 0.930 . S
H2146 C2154 0.930 . S
H2147 C2155 0.930 . S
H2148 C2158 0.930 . S
H2149 C2159 0.930 . S
C2150 H2144 0.930 . S
C2150 C2151 1.355 . S
C2150 C2152 1.415 . S
C2151 C2150 1.355 . S
C2151 C2153 1.419 . S
C2152 C2150 1.415 . S
C2152 C2157 1.425 . S
C2152 C2159 1.409 . S
C2153 H2145 0.930 . S
C2153 C2151 1.419 . S
C2153 C2154 1.362 . S
C2154 H2146 0.930 . S
C2154 C2153 1.362 . S
C2154 C2157 1.409 . S
C2155 H2147 0.930 . S
C2155 C2156 1.355 . S
C2155 C2157 1.415 . S
C2156 C2155 1.355 . S
C2156 C2158 1.419 . S
C2157 C2152 1.425 . S
C2157 C2154 1.409 . S
C2157 C2155 1.415 . S
C2158 H2148 0.930 . S
C2158 C2156 1.419 . S
C2158 C2159 1.362 . S
C2159 H2149 0.930 . S
C2159 C2152 1.409 . S
C2159 C2158 1.362 . S
H2160 C2166 0.914 1_455 S
H2161 C2169 0.943 . S
H2162 C2170 0.930 . S
H2163 C2171 0.930 . S
H2164 C2174 0.930 . S
H2165 C2175 0.930 . S
C2166 H2160 0.914 1_655 S
C2166 C2167 1.331 1_655 S
C2166 C2168 1.457 . S
C2167 C2166 1.331 1_455 S
C2167 C2169 1.429 . S
C2168 C2166 1.457 . S
C2168 C2173 1.425 . S
C2168 C2175 1.409 . S
C2169 H2161 0.943 . S
C2169 C2167 1.429 . S
C2169 C2170 1.340 1_455 S
C2170 H2162 0.930 . S
C2170 C2169 1.340 1_655 S
C2170 C2173 1.409 . S
C2171 H2163 0.930 . S
C2171 C2172 1.355 . S
C2171 C2173 1.415 . S
C2172 C2171 1.355 . S
C2172 C2174 1.419 . S
C2173 C2168 1.425 . S
C2173 C2170 1.409 . S
C2173 C2171 1.415 . S
C2174 H2164 0.930 . S
C2174 C2172 1.419 . S
C2174 C2175 1.362 . S
C2175 H2165 0.930 . S
C2175 C2168 1.409 . S
C2175 C2174 1.362 . S
H2176 C2182 0.930 . S
H2177 C2185 0.930 . S
H2178 C2186 0.930 . S
H2179 C2187 0.930 . S
H2180 C2190 0.930 . S
H2181 C2191 0.930 . S
C2182 H2176 0.930 . S
C2182 C2183 1.355 . S
C2182 C2184 1.415 . S
C2183 C2182 1.355 . S
C2183 C2185 1.419 . S
C2184 C2182 1.415 . S
C2184 C2189 1.425 . S
C2184 C2191 1.409 . S
C2185 H2177 0.930 . S
C2185 C2183 1.419 . S
C2185 C2186 1.362 . S
C2186 H2178 0.930 . S
C2186 C2185 1.362 . S
C2186 C2189 1.409 . S
C2187 H2179 0.930 . S
C2187 C2188 1.355 . S
C2187 C2189 1.415 . S
C2188 C2187 1.355 . S
C2188 C2190 1.419 . S
C2189 C2184 1.425 . S
C2189 C2186 1.409 . S
C2189 C2187 1.415 . S
C2190 H2180 0.930 . S
C2190 C2188 1.419 . S
C2190 C2191 1.362 . S
C2191 H2181 0.930 . S
C2191 C2184 1.409 . S
C2191 C2190 1.362 . S
H2192 C2198 0.930 . S
H2193 C2201 0.930 . S
H2194 C2202 0.930 . S
H2195 C2203 0.930 . S
H2196 C2206 0.930 . S
H2197 C2207 0.930 . S
C2198 H2192 0.930 . S
C2198 C2199 1.355 1_655 S
C2198 C2200 1.415 . S
C2199 C2198 1.355 1_455 S
C2199 C2201 1.419 . S
C2200 C2198 1.415 . S
C2200 C2205 1.425 . S
C2200 C2207 1.409 . S
C2201 H2193 0.930 . S
C2201 C2199 1.419 . S
C2201 C2202 1.362 . S
C2202 H2194 0.930 . S
C2202 C2201 1.362 . S
C2202 C2205 1.409 1_455 S
C2203 H2195 0.930 . S
C2203 C2204 1.355 . S
C2203 C2205 1.415 . S
C2204 C2203 1.355 . S
C2204 C2206 1.419 . S
C2205 C2200 1.425 . S
C2205 C2202 1.409 1_655 S
C2205 C2203 1.415 . S
C2206 H2196 0.930 . S
C2206 C2204 1.419 . S
C2206 C2207 1.362 . S
C2207 H2197 0.930 . S
C2207 C2200 1.409 . S
C2207 C2206 1.362 . S
H2208 C2214 0.930 . S
H2209 C2217 0.930 . S
H2210 C2218 0.930 . S
H2211 C2219 0.930 . S
H2212 C2222 0.930 . S
H2213 C2223 0.930 . S
C2214 H2208 0.930 . S
C2214 C2215 1.355 . S
C2214 C2216 1.415 . S
C2215 C2214 1.355 . S
C2215 C2217 1.419 . S
C2216 C2214 1.415 . S
C2216 C2221 1.425 . S
C2216 C2223 1.409 . S
C2217 H2209 0.930 . S
C2217 C2215 1.419 . S
C2217 C2218 1.362 . S
C2218 H2210 0.930 . S
C2218 C2217 1.362 . S
C2218 C2221 1.409 . S
C2219 H2211 0.930 . S
C2219 C2220 1.355 . S
C2219 C2221 1.415 . S
C2220 C2219 1.355 . S
C2220 C2222 1.419 . S
C2221 C2216 1.425 . S
C2221 C2218 1.409 . S
C2221 C2219 1.415 . S
C2222 H2212 0.930 . S
C2222 C2220 1.419 . S
C2222 C2223 1.362 . S
C2223 H2213 0.930 . S
C2223 C2216 1.409 . S
C2223 C2222 1.362 . S
H2224 C2230 0.930 . S
H2225 C2233 0.930 . S
H2226 C2234 0.930 . S
H2227 C2235 0.930 . S
H2228 C2238 0.930 . S
H2229 C2239 0.930 . S
C2230 H2224 0.930 . S
C2230 C2231 1.355 . S
C2230 C2232 1.415 . S
C2231 C2230 1.355 . S
C2231 C2233 1.419 . S
C2232 C2230 1.415 . S
C2232 C2237 1.425 . S
C2232 C2239 1.409 . S
C2233 H2225 0.930 . S
C2233 C2231 1.419 . S
C2233 C2234 1.362 . S
C2234 H2226 0.930 . S
C2234 C2233 1.362 . S
C2234 C2237 1.409 . S
C2235 H2227 0.930 . S
C2235 C2236 1.355 . S
C2235 C2237 1.415 . S
C2236 C2235 1.355 . S
C2236 C2238 1.419 . S
C2237 C2232 1.425 . S
C2237 C2234 1.409 . S
C2237 C2235 1.415 . S
C2238 H2228 0.930 . S
C2238 C2236 1.419 . S
C2238 C2239 1.362 . S
C2239 H2229 0.930 . S
C2239 C2232 1.409 . S
C2239 C2238 1.362 . S
H2240 C2246 0.930 . S
H2241 C2249 0.930 . S
H2242 C2250 0.930 . S
H2243 C2251 0.930 . S
H2244 C2254 0.930 . S
H2245 C2255 0.930 . S
C2246 H2240 0.930 . S
C2246 C2247 1.355 . S
C2246 C2248 1.415 . S
C2247 C2246 1.355 . S
C2247 C2249 1.419 . S
C2248 C2246 1.415 . S
C2248 C2253 1.425 . S
C2248 C2255 1.409 . S
C2249 H2241 0.930 . S
C2249 C2247 1.419 . S
C2249 C2250 1.362 . S
C2250 H2242 0.930 . S
C2250 C2249 1.362 . S
C2250 C2253 1.409 . S
C2251 H2243 0.930 . S
C2251 C2252 1.355 . S
C2251 C2253 1.415 . S
C2252 C2251 1.355 . S
C2252 C2254 1.419 . S
C2253 C2248 1.425 . S
C2253 C2250 1.409 . S
C2253 C2251 1.415 . S
C2254 H2244 0.930 . S
C2254 C2252 1.419 . S
C2254 C2255 1.362 . S
C2255 H2245 0.930 . S
C2255 C2248 1.409 . S
C2255 C2254 1.362 . S
H2256 C2262 0.930 . S
H2257 C2265 0.930 . S
H2258 C2266 0.930 . S
H2259 C2267 0.930 . S
H2260 C2270 0.917 1_554 S
H2261 C2271 0.930 . S
C2262 H2256 0.930 . S
C2262 C2263 1.355 . S
C2262 C2264 1.415 . S
C2263 C2262 1.355 . S
C2263 C2265 1.419 . S
C2264 C2262 1.415 . S
C2264 C2269 1.425 . S
C2264 C2271 1.409 . S
C2265 H2257 0.930 . S
C2265 C2263 1.419 . S
C2265 C2266 1.362 . S
C2266 H2258 0.930 . S
C2266 C2265 1.362 . S
C2266 C2269 1.409 . S
C2267 H2259 0.930 . S
C2267 C2268 1.368 . S
C2267 C2269 1.415 . S
C2268 C2267 1.368 . S
C2268 C2270 1.426 . S
C2269 C2264 1.425 . S
C2269 C2266 1.409 . S
C2269 C2267 1.415 . S
C2270 H2260 0.917 1_556 S
C2270 C2268 1.426 . S
C2270 C2271 1.362 . S
C2271 H2261 0.930 . S
C2271 C2264 1.409 . S
C2271 C2270 1.362 . S
H2272 C2278 0.930 . S
H2273 C2281 0.930 . S
H2274 C2282 0.930 . S
H2275 C2283 0.930 . S
H2276 C2286 0.930 . S
H2277 C2287 0.930 . S
C2278 H2272 0.930 . S
C2278 C2279 1.355 . S
C2278 C2280 1.415 . S
C2279 C2278 1.355 . S
C2279 C2281 1.419 . S
C2280 C2278 1.415 . S
C2280 C2285 1.425 . S
C2280 C2287 1.409 . S
C2281 H2273 0.930 . S
C2281 C2279 1.419 . S
C2281 C2282 1.362 . S
C2282 H2274 0.930 . S
C2282 C2281 1.362 . S
C2282 C2285 1.409 . S
C2283 H2275 0.930 . S
C2283 C2284 1.355 . S
C2283 C2285 1.415 . S
C2284 C2283 1.355 . S
C2284 C2286 1.419 . S
C2285 C2280 1.425 . S
C2285 C2282 1.409 . S
C2285 C2283 1.415 . S
C2286 H2276 0.930 . S
C2286 C2284 1.419 . S
C2286 C2287 1.362 . S
C2287 H2277 0.930 . S
C2287 C2280 1.409 . S
C2287 C2286 1.362 . S
H2288 C2294 0.930 . S
H2289 C2297 0.930 . S
H2290 C2298 0.930 . S
H2291 C2299 0.930 . S
H2292 C2302 0.930 . S
H2293 C2303 0.930 . S
C2294 H2288 0.930 . S
C2294 C2295 1.355 . S
C2294 C2296 1.415 . S
C2295 C2294 1.355 . S
C2295 C2297 1.419 . S
C2296 C2294 1.415 . S
C2296 C2301 1.425 . S
C2296 C2303 1.409 . S
C2297 H2289 0.930 . S
C2297 C2295 1.419 . S
C2297 C2298 1.362 . S
C2298 H2290 0.930 . S
C2298 C2297 1.362 . S
C2298 C2301 1.409 . S
C2299 H2291 0.930 . S
C2299 C2300 1.355 . S
C2299 C2301 1.415 . S
C2300 C2299 1.355 . S
C2300 C2302 1.419 . S
C2301 C2296 1.425 . S
C2301 C2298 1.409 . S
C2301 C2299 1.415 . S
C2302 H2292 0.930 . S
C2302 C2300 1.419 . S
C2302 C2303 1.362 . S
C2303 H2293 0.930 . S
C2303 C2296 1.409 . S
C2303 C2302 1.362 . S
H2304 C2310 0.930 . S
H2305 C2313 0.930 . S
H2306 C2314 0.930 . S
H2307 C2315 0.930 . S
H2308 C2318 0.930 . S
H2309 C2319 0.930 . S
C2310 H2304 0.930 . S
C2310 C2311 1.355 . S
C2310 C2312 1.415 . S
C2311 C2310 1.355 . S
C2311 C2313 1.419 . S
C2312 C2310 1.415 . S
C2312 C2317 1.425 . S
C2312 C2319 1.409 . S
C2313 H2305 0.930 . S
C2313 C2311 1.419 . S
C2313 C2314 1.362 . S
C2314 H2306 0.930 . S
C2314 C2313 1.362 . S
C2314 C2317 1.409 . S
C2315 H2307 0.930 . S
C2315 C2316 1.355 . S
C2315 C2317 1.415 . S
C2316 C2315 1.355 . S
C2316 C2318 1.419 . S
C2317 C2312 1.425 . S
C2317 C2314 1.409 . S
C2317 C2315 1.415 . S
C2318 H2308 0.930 . S
C2318 C2316 1.419 . S
C2318 C2319 1.362 . S
C2319 H2309 0.930 . S
C2319 C2312 1.409 . S
C2319 C2318 1.362 . S
H2320 C2326 0.930 . S
H2321 C2329 0.930 . S
H2322 C2330 0.970 . S
H2323 C2331 0.979 . S
H2324 C2334 0.930 . S
H2325 C2335 0.930 . S
C2326 H2320 0.930 . S
C2326 C2327 1.355 . S
C2326 C2328 1.415 . S
C2327 C2326 1.355 . S
C2327 C2329 1.419 . S
C2328 C2326 1.415 . S
C2328 C2333 1.425 . S
C2328 C2335 1.409 . S
C2329 H2321 0.930 . S
C2329 C2327 1.419 . S
C2329 C2330 1.362 . S
C2330 H2322 0.970 . S
C2330 C2329 1.362 . S
C2330 C2333 1.409 . S
C2331 H2323 0.979 . S
C2331 C2332 1.349 1_556 S
C2331 C2333 1.374 1_556 S
C2332 C2331 1.349 1_554 S
C2332 C2334 1.419 . S
C2333 C2328 1.425 . S
C2333 C2330 1.409 . S
C2333 C2331 1.374 1_554 S
C2334 H2324 0.930 . S
C2334 C2332 1.419 . S
C2334 C2335 1.362 . S
C2335 H2325 0.930 . S
C2335 C2328 1.409 . S
C2335 C2334 1.362 . S
H2336 C2342 0.930 . S
H2337 C2345 0.930 . S
H2338 C2346 0.930 . S
H2339 C2347 0.930 . S
H2340 C2350 0.930 . S
H2341 C2351 0.930 . S
C2342 H2336 0.930 . S
C2342 C2343 1.355 . S
C2342 C2344 1.415 . S
C2343 C2342 1.355 . S
C2343 C2345 1.419 . S
C2344 C2342 1.415 . S
C2344 C2349 1.425 . S
C2344 C2351 1.409 . S
C2345 H2337 0.930 . S
C2345 C2343 1.419 . S
C2345 C2346 1.362 . S
C2346 H2338 0.930 . S
C2346 C2345 1.362 . S
C2346 C2349 1.409 . S
C2347 H2339 0.930 . S
C2347 C2348 1.355 . S
C2347 C2349 1.415 . S
C2348 C2347 1.355 . S
C2348 C2350 1.419 . S
C2349 C2344 1.425 . S
C2349 C2346 1.409 . S
C2349 C2347 1.415 . S
C2350 H2340 0.930 . S
C2350 C2348 1.419 . S
C2350 C2351 1.362 . S
C2351 H2341 0.930 . S
C2351 C2344 1.409 . S
C2351 C2350 1.362 . S
H2352 C2358 0.930 . S
H2353 C2361 0.930 . S
H2354 C2362 0.930 . S
H2355 C2363 0.930 . S
H2356 C2366 0.930 . S
H2357 C2367 0.930 . S
C2358 H2352 0.930 . S
C2358 C2359 1.355 . S
C2358 C2360 1.415 . S
C2359 C2358 1.355 . S
C2359 C2361 1.419 . S
C2360 C2358 1.415 . S
C2360 C2365 1.425 . S
C2360 C2367 1.409 . S
C2361 H2353 0.930 . S
C2361 C2359 1.419 . S
C2361 C2362 1.362 . S
C2362 H2354 0.930 . S
C2362 C2361 1.362 . S
C2362 C2365 1.409 . S
C2363 H2355 0.930 . S
C2363 C2364 1.355 . S
C2363 C2365 1.415 . S
C2364 C2363 1.355 . S
C2364 C2366 1.419 . S
C2365 C2360 1.425 . S
C2365 C2362 1.409 . S
C2365 C2363 1.415 . S
C2366 H2356 0.930 . S
C2366 C2364 1.419 . S
C2366 C2367 1.362 . S
C2367 H2357 0.930 . S
C2367 C2360 1.409 . S
C2367 C2366 1.362 . S
H2368 C2374 0.930 . S
H2369 C2377 0.930 . S
H2370 C2378 0.930 . S
H2371 C2379 0.930 . S
H2372 C2382 0.930 . S
H2373 C2383 0.930 . S
C2374 H2368 0.930 . S
C2374 C2375 1.355 . S
C2374 C2376 1.415 . S
C2375 C2374 1.355 . S
C2375 C2377 1.419 . S
C2376 C2374 1.415 . S
C2376 C2381 1.425 . S
C2376 C2383 1.409 . S
C2377 H2369 0.930 . S
C2377 C2375 1.419 . S
C2377 C2378 1.362 . S
C2378 H2370 0.930 . S
C2378 C2377 1.362 . S
C2378 C2381 1.409 . S
C2379 H2371 0.930 . S
C2379 C2380 1.355 . S
C2379 C2381 1.415 . S
C2380 C2379 1.355 . S
C2380 C2382 1.419 . S
C2381 C2376 1.425 . S
C2381 C2378 1.409 . S
C2381 C2379 1.415 . S
C2382 H2372 0.930 . S
C2382 C2380 1.419 . S
C2382 C2383 1.362 . S
C2383 H2373 0.930 . S
C2383 C2376 1.409 . S
C2383 C2382 1.362 . S
H2384 C2390 0.930 . S
H2385 C2393 0.930 . S
H2386 C2394 0.930 . S
H2387 C2395 0.930 . S
H2388 C2398 0.930 . S
H2389 C2399 0.930 . S
C2390 H2384 0.930 . S
C2390 C2391 1.355 . S
C2390 C2392 1.415 . S
C2391 C2390 1.355 . S
C2391 C2393 1.419 . S
C2392 C2390 1.415 . S
C2392 C2397 1.425 . S
C2392 C2399 1.409 . S
C2393 H2385 0.930 . S
C2393 C2391 1.419 . S
C2393 C2394 1.362 . S
C2394 H2386 0.930 . S
C2394 C2393 1.362 . S
C2394 C2397 1.409 . S
C2395 H2387 0.930 . S
C2395 C2396 1.355 . S
C2395 C2397 1.415 . S
C2396 C2395 1.355 . S
C2396 C2398 1.419 . S
C2397 C2392 1.425 . S
C2397 C2394 1.409 . S
C2397 C2395 1.415 . S
C2398 H2388 0.930 . S
C2398 C2396 1.419 . S
C2398 C2399 1.362 . S
C2399 H2389 0.930 . S
C2399 C2392 1.409 . S
C2399 C2398 1.362 . S
H2400 C2406 0.930 . S
H2401 C2409 0.930 . S
H2402 C2410 0.930 1_545 S
H2403 C2411 0.930 . S
H2404 C2414 0.930 . S
H2405 C2415 0.930 . S
C2406 H2400 0.930 . S
C2406 C2407 1.355 . S
C2406 C2408 1.415 . S
C2407 C2406 1.355 . S
C2407 C2409 1.419 . S
C2408 C2406 1.415 . S
C2408 C2413 1.425 . S
C2408 C2415 1.409 . S
C2409 H2401 0.930 . S
C2409 C2407 1.419 . S
C2409 C2410 1.362 . S
C2410 H2402 0.930 1_565 S
C2410 C2409 1.362 . S
C2410 C2413 1.409 . S
C2411 H2403 0.930 . S
C2411 C2412 1.355 . S
C2411 C2413 1.415 1_545 S
C2412 C2411 1.355 . S
C2412 C2414 1.419 1_545 S
C2413 C2408 1.425 . S
C2413 C2410 1.409 . S
C2413 C2411 1.415 1_565 S
C2414 H2404 0.930 . S
C2414 C2412 1.419 1_565 S
C2414 C2415 1.362 . S
C2415 H2405 0.930 . S
C2415 C2408 1.409 . S
C2415 C2414 1.362 . S
H2416 C2422 0.930 . S
H2417 C2425 0.930 . S
H2418 C2426 0.930 . S
H2419 C2427 0.930 . S
H2420 C2430 0.930 . S
H2421 C2431 0.930 . S
C2422 H2416 0.930 . S
C2422 C2423 1.355 . S
C2422 C2424 1.415 . S
C2423 C2422 1.355 . S
C2423 C2425 1.419 . S
C2424 C2422 1.415 . S
C2424 C2429 1.425 . S
C2424 C2431 1.409 . S
C2425 H2417 0.930 . S
C2425 C2423 1.419 . S
C2425 C2426 1.362 . S
C2426 H2418 0.930 . S
C2426 C2425 1.362 . S
C2426 C2429 1.409 . S
C2427 H2419 0.930 . S
C2427 C2428 1.355 . S
C2427 C2429 1.415 . S
C2428 C2427 1.355 . S
C2428 C2430 1.419 . S
C2429 C2424 1.425 . S
C2429 C2426 1.409 . S
C2429 C2427 1.415 . S
C2430 H2420 0.930 . S
C2430 C2428 1.419 . S
C2430 C2431 1.362 . S
C2431 H2421 0.930 . S
C2431 C2424 1.409 . S
C2431 C2430 1.362 . S
H2432 C2438 0.930 . S
H2433 C2441 0.930 . S
H2434 C2442 0.930 . S
H2435 C2443 0.930 . S
H2436 C2446 0.930 . S
H2437 C2447 0.930 . S
C2438 H2432 0.930 . S
C2438 C2439 1.355 . S
C2438 C2440 1.415 . S
C2439 C2438 1.355 . S
C2439 C2441 1.419 . S
C2440 C2438 1.415 . S
C2440 C2445 1.425 . S
C2440 C2447 1.409 . S
C2441 H2433 0.930 . S
C2441 C2439 1.419 . S
C2441 C2442 1.362 . S
C2442 H2434 0.930 . S
C2442 C2441 1.362 . S
C2442 C2445 1.409 . S
C2443 H2435 0.930 . S
C2443 C2444 1.355 . S
C2443 C2445 1.415 . S
C2444 C2443 1.355 . S
C2444 C2446 1.419 . S
C2445 C2440 1.425 . S
C2445 C2442 1.409 . S
C2445 C2443 1.415 . S
C2446 H2436 0.930 . S
C2446 C2444 1.419 . S
C2446 C2447 1.362 . S
C2447 H2437 0.930 . S
C2447 C2440 1.409 . S
C2447 C2446 1.362 . S
H2448 C2454 0.930 . S
H2449 C2457 0.930 . S
H2450 C2458 0.930 . S
H2451 C2459 0.930 . S
H2452 C2462 0.930 . S
H2453 C2463 0.930 . S
C2454 H2448 0.930 . S
C2454 C2455 1.355 . S
C2454 C2456 1.415 . S
C2455 C2454 1.355 . S
C2455 C2457 1.419 . S
C2456 C2454 1.415 . S
C2456 C2461 1.425 . S
C2456 C2463 1.409 . S
C2457 H2449 0.930 . S
C2457 C2455 1.419 . S
C2457 C2458 1.362 . S
C2458 H2450 0.930 . S
C2458 C2457 1.362 . S
C2458 C2461 1.409 . S
C2459 H2451 0.930 . S
C2459 C2460 1.355 . S
C2459 C2461 1.415 . S
C2460 C2459 1.355 . S
C2460 C2462 1.419 . S
C2461 C2456 1.425 . S
C2461 C2458 1.409 . S
C2461 C2459 1.415 . S
C2462 H2452 0.930 . S
C2462 C2460 1.419 . S
C2462 C2463 1.362 . S
C2463 H2453 0.930 . S
C2463 C2456 1.409 . S
C2463 C2462 1.362 . S
H2464 C2470 0.930 . S
H2465 C2473 0.930 . S
H2466 C2474 0.930 . S
H2467 C2475 0.930 . S
H2468 C2478 0.930 . S
H2469 C2479 0.930 . S
C2470 H2464 0.930 . S
C2470 C2471 1.355 1_545 S
C2470 C2472 1.415 . S
C2471 C2470 1.355 1_565 S
C2471 C2473 1.419 . S
C2472 C2470 1.415 . S
C2472 C2477 1.425 . S
C2472 C2479 1.409 . S
C2473 H2465 0.930 . S
C2473 C2471 1.419 . S
C2473 C2474 1.362 . S
C2474 H2466 0.930 . S
C2474 C2473 1.362 . S
C2474 C2477 1.409 1_565 S
C2475 H2467 0.930 . S
C2475 C2476 1.355 . S
C2475 C2477 1.415 . S
C2476 C2475 1.355 . S
C2476 C2478 1.419 . S
C2477 C2472 1.425 . S
C2477 C2474 1.409 1_545 S
C2477 C2475 1.415 . S
C2478 H2468 0.930 . S
C2478 C2476 1.419 . S
C2478 C2479 1.362 . S
C2479 H2469 0.930 . S
C2479 C2472 1.409 . S
C2479 C2478 1.362 . S
H2480 C2486 0.930 . S
H2481 C2489 0.930 . S
H2482 C2490 0.930 . S
H2483 C2491 0.930 . S
H2484 C2494 0.930 . S
H2485 C2495 0.930 . S
C2486 H2480 0.930 . S
C2486 C2487 1.355 1_565 S
C2486 C2488 1.415 . S
C2487 C2486 1.355 1_545 S
C2487 C2489 1.419 . S
C2488 C2486 1.415 . S
C2488 C2493 1.425 . S
C2488 C2495 1.409 . S
C2489 H2481 0.930 . S
C2489 C2487 1.419 . S
C2489 C2490 1.362 1_545 S
C2490 H2482 0.930 . S
C2490 C2489 1.362 1_565 S
C2490 C2493 1.409 . S
C2491 H2483 0.930 . S
C2491 C2492 1.355 . S
C2491 C2493 1.415 . S
C2492 C2491 1.355 . S
C2492 C2494 1.419 . S
C2493 C2488 1.425 . S
C2493 C2490 1.409 . S
C2493 C2491 1.415 . S
C2494 H2484 0.930 . S
C2494 C2492 1.419 . S
C2494 C2495 1.362 . S
C2495 H2485 0.930 . S
C2495 C2488 1.409 . S
C2495 C2494 1.362 . S
H2496 C2502 0.930 . S
H2497 C2505 0.930 . S
H2498 C2506 0.930 . S
H2499 C2507 0.930 . S
H2500 C2510 0.930 . S
H2501 C2511 0.930 . S
C2502 H2496 0.930 . S
C2502 C2503 1.355 . S
C2502 C2504 1.415 . S
C2503 C2502 1.355 . S
C2503 C2505 1.419 . S
C2504 C2502 1.415 . S
C2504 C2509 1.425 . S
C2504 C2511 1.409 . S
C2505 H2497 0.930 . S
C2505 C2503 1.419 . S
C2505 C2506 1.362 . S
C2506 H2498 0.930 . S
C2506 C2505 1.362 . S
C2506 C2509 1.409 . S
C2507 H2499 0.930 . S
C2507 C2508 1.355 . S
C2507 C2509 1.415 . S
C2508 C2507 1.355 . S
C2508 C2510 1.419 . S
C2509 C2504 1.425 . S
C2509 C2506 1.409 . S
C2509 C2507 1.415 . S
C2510 H2500 0.930 . S
C2510 C2508 1.419 . S
C2510 C2511 1.362 . S
C2511 H2501 0.930 . S
C2511 C2504 1.409 . S
C2511 C2510 1.362 . S
H2512 C2518 0.930 . S
H2513 C2521 0.930 . S
H2514 C2522 0.930 . S
H2515 C2523 0.930 . S
H2516 C2526 0.930 . S
H2517 C2527 0.930 . S
C2518 H2512 0.930 . S
C2518 C2519 1.355 . S
C2518 C2520 1.415 . S
C2519 C2518 1.355 . S
C2519 C2521 1.419 . S
C2520 C2518 1.415 . S
C2520 C2525 1.425 . S
C2520 C2527 1.409 . S
C2521 H2513 0.930 . S
C2521 C2519 1.419 . S
C2521 C2522 1.362 . S
C2522 H2514 0.930 . S
C2522 C2521 1.362 . S
C2522 C2525 1.409 . S
C2523 H2515 0.930 . S
C2523 C2524 1.355 . S
C2523 C2525 1.415 . S
C2524 C2523 1.355 . S
C2524 C2526 1.419 . S
C2525 C2520 1.425 . S
C2525 C2522 1.409 . S
C2525 C2523 1.415 . S
C2526 H2516 0.930 . S
C2526 C2524 1.419 . S
C2526 C2527 1.362 . S
C2527 H2517 0.930 . S
C2527 C2520 1.409 . S
C2527 C2526 1.362 . S
H2528 C2534 0.930 . S
H2529 C2537 0.930 . S
H2530 C2538 0.930 . S
H2531 C2539 0.930 . S
H2532 C2542 0.930 . S
H2533 C2543 0.930 . S
C2534 H2528 0.930 . S
C2534 C2535 1.355 . S
C2534 C2536 1.415 . S
C2535 C2534 1.355 . S
C2535 C2537 1.419 . S
C2536 C2534 1.415 . S
C2536 C2541 1.425 . S
C2536 C2543 1.409 . S
C2537 H2529 0.930 . S
C2537 C2535 1.419 . S
C2537 C2538 1.362 . S
C2538 H2530 0.930 . S
C2538 C2537 1.362 . S
C2538 C2541 1.409 . S
C2539 H2531 0.930 . S
C2539 C2540 1.355 . S
C2539 C2541 1.415 . S
C2540 C2539 1.355 . S
C2540 C2542 1.419 . S
C2541 C2536 1.425 . S
C2541 C2538 1.409 . S
C2541 C2539 1.415 . S
C2542 H2532 0.930 . S
C2542 C2540 1.419 . S
C2542 C2543 1.362 . S
C2543 H2533 0.930 . S
C2543 C2536 1.409 . S
C2543 C2542 1.362 . S
H2544 C2550 0.930 . S
H2545 C2553 0.930 . S
H2546 C2554 0.930 . S
H2547 C2555 0.930 . S
H2548 C2558 0.930 . S
H2549 C2559 0.930 . S
C2550 H2544 0.930 . S
C2550 C2551 1.355 . S
C2550 C2552 1.415 . S
C2551 C2550 1.355 . S
C2551 C2553 1.419 . S
C2552 C2550 1.415 . S
C2552 C2557 1.425 . S
C2552 C2559 1.409 . S
C2553 H2545 0.930 . S
C2553 C2551 1.419 . S
C2553 C2554 1.362 . S
C2554 H2546 0.930 . S
C2554 C2553 1.362 . S
C2554 C2557 1.409 . S
C2555 H2547 0.930 . S
C2555 C2556 1.355 1_455 S
C2555 C2557 1.415 . S
C2556 C2555 1.355 1_655 S
C2556 C2558 1.419 . S
C2557 C2552 1.425 . S
C2557 C2554 1.409 . S
C2557 C2555 1.415 . S
C2558 H2548 0.930 . S
C2558 C2556 1.419 . S
C2558 C2559 1.362 1_655 S
C2559 H2549 0.930 . S
C2559 C2552 1.409 . S
C2559 C2558 1.362 1_455 S
H2560 C2566 0.930 . S
H2561 C2569 0.930 . S
H2562 C2570 0.930 . S
H2563 C2571 0.930 . S
H2564 C2574 0.930 . S
H2565 C2575 0.930 . S
C2566 H2560 0.930 . S
C2566 C2567 1.355 . S
C2566 C2568 1.415 . S
C2567 C2566 1.355 . S
C2567 C2569 1.419 . S
C2568 C2566 1.415 . S
C2568 C2573 1.425 . S
C2568 C2575 1.409 . S
C2569 H2561 0.930 . S
C2569 C2567 1.419 . S
C2569 C2570 1.362 . S
C2570 H2562 0.930 . S
C2570 C2569 1.362 . S
C2570 C2573 1.409 . S
C2571 H2563 0.930 . S
C2571 C2572 1.355 . S
C2571 C2573 1.415 . S
C2572 C2571 1.355 . S
C2572 C2574 1.419 . S
C2573 C2568 1.425 . S
C2573 C2570 1.409 . S
C2573 C2571 1.415 . S
C2574 H2564 0.930 . S
C2574 C2572 1.419 . S
C2574 C2575 1.362 . S
C2575 H2565 0.930 . S
C2575 C2568 1.409 . S
C2575 C2574 1.362 . S
H2576 C2582 0.930 . S
H2577 C2585 0.930 . S
H2578 C2586 0.930 . S
H2579 C2587 0.930 . S
H2580 C2590 0.930 . S
H2581 C2591 0.969 . S
C2582 H2576 0.930 . S
C2582 C2583 1.355 . S
C2582 C2584 1.415 1_655 S
C2583 C2582 1.355 . S
C2583 C2585 1.419 1_655 S
C2584 C2582 1.415 1_455 S
C2584 C2589 1.425 . S
C2584 C2591 1.409 . S
C2585 H2577 0.930 . S
C2585 C2583 1.419 1_455 S
C2585 C2586 1.362 . S
C2586 H2578 0.930 . S
C2586 C2585 1.362 . S
C2586 C2589 1.409 . S
C2587 H2579 0.930 . S
C2587 C2588 1.355 . S
C2587 C2589 1.415 . S
C2588 C2587 1.355 . S
C2588 C2590 1.419 . S
C2589 C2584 1.425 . S
C2589 C2586 1.409 . S
C2589 C2587 1.415 . S
C2590 H2580 0.930 . S
C2590 C2588 1.419 . S
C2590 C2591 1.362 . S
C2591 H2581 0.969 . S
C2591 C2584 1.409 . S
C2591 C2590 1.362 . S
H2592 C2598 0.930 . S
H2593 C2601 0.930 . S
H2594 C2602 0.930 . S
H2595 C2603 0.930 . S
H2596 C2606 0.930 . S
H2597 C2607 0.930 . S
C2598 H2592 0.930 . S
C2598 C2599 1.355 . S
C2598 C2600 1.415 . S
C2599 C2598 1.355 . S
C2599 C2601 1.419 . S
C2600 C2598 1.415 . S
C2600 C2605 1.425 . S
C2600 C2607 1.409 . S
C2601 H2593 0.930 . S
C2601 C2599 1.419 . S
C2601 C2602 1.362 . S
C2602 H2594 0.930 . S
C2602 C2601 1.362 . S
C2602 C2605 1.409 . S
C2603 H2595 0.930 . S
C2603 C2604 1.355 . S
C2603 C2605 1.415 . S
C2604 C2603 1.355 . S
C2604 C2606 1.419 . S
C2605 C2600 1.425 . S
C2605 C2602 1.409 . S
C2605 C2603 1.415 . S
C2606 H2596 0.930 . S
C2606 C2604 1.419 . S
C2606 C2607 1.362 . S
C2607 H2597 0.930 . S
C2607 C2600 1.409 . S
C2607 C2606 1.362 . S
H2608 C2614 0.930 . S
H2609 C2617 0.930 . S
H2610 C2618 0.930 . S
H2611 C2619 0.930 . S
H2612 C2622 0.930 . S
H2613 C2623 0.930 . S
C2614 H2608 0.930 . S
C2614 C2615 1.355 . S
C2614 C2616 1.415 . S
C2615 C2614 1.355 . S
C2615 C2617 1.419 . S
C2616 C2614 1.415 . S
C2616 C2621 1.425 . S
C2616 C2623 1.409 . S
C2617 H2609 0.930 . S
C2617 C2615 1.419 . S
C2617 C2618 1.362 . S
C2618 H2610 0.930 . S
C2618 C2617 1.362 . S
C2618 C2621 1.409 . S
C2619 H2611 0.930 . S
C2619 C2620 1.355 . S
C2619 C2621 1.415 . S
C2620 C2619 1.355 . S
C2620 C2622 1.419 . S
C2621 C2616 1.425 . S
C2621 C2618 1.409 . S
C2621 C2619 1.415 . S
C2622 H2612 0.930 . S
C2622 C2620 1.419 . S
C2622 C2623 1.362 . S
C2623 H2613 0.930 . S
C2623 C2616 1.409 . S
C2623 C2622 1.362 . S
H2624 C2630 0.930 . S
H2625 C2633 0.930 . S
H2626 C2634 0.930 . S
H2627 C2635 0.930 . S
H2628 C2638 0.930 . S
H2629 C2639 0.930 . S
C2630 H2624 0.930 . S
C2630 C2631 1.355 . S
C2630 C2632 1.415 . S
C2631 C2630 1.355 . S
C2631 C2633 1.419 . S
C2632 C2630 1.415 . S
C2632 C2637 1.425 . S
C2632 C2639 1.409 . S
C2633 H2625 0.930 . S
C2633 C2631 1.419 . S
C2633 C2634 1.362 . S
C2634 H2626 0.930 . S
C2634 C2633 1.362 . S
C2634 C2637 1.409 . S
C2635 H2627 0.930 . S
C2635 C2636 1.355 . S
C2635 C2637 1.415 . S
C2636 C2635 1.355 . S
C2636 C2638 1.419 . S
C2637 C2632 1.425 . S
C2637 C2634 1.409 . S
C2637 C2635 1.415 . S
C2638 H2628 0.930 . S
C2638 C2636 1.419 . S
C2638 C2639 1.362 . S
C2639 H2629 0.930 . S
C2639 C2632 1.409 . S
C2639 C2638 1.362 . S
H2640 C2646 0.930 . S
H2641 C2649 0.930 . S
H2642 C2650 0.930 . S
H2643 C2651 0.930 . S
H2644 C2654 0.930 . S
H2645 C2655 0.930 . S
C2646 H2640 0.930 . S
C2646 C2647 1.355 1_554 S
C2646 C2648 1.415 . S
C2647 C2646 1.355 1_556 S
C2647 C2649 1.419 . S
C2648 C2646 1.415 . S
C2648 C2653 1.425 . S
C2648 C2655 1.409 . S
C2649 H2641 0.930 . S
C2649 C2647 1.419 . S
C2649 C2650 1.362 1_556 S
C2650 H2642 0.930 . S
C2650 C2649 1.362 1_554 S
C2650 C2653 1.409 . S
C2651 H2643 0.930 . S
C2651 C2652 1.355 . S
C2651 C2653 1.415 . S
C2652 C2651 1.355 . S
C2652 C2654 1.419 . S
C2653 C2648 1.425 . S
C2653 C2650 1.409 . S
C2653 C2651 1.415 . S
C2654 H2644 0.930 . S
C2654 C2652 1.419 . S
C2654 C2655 1.362 . S
C2655 H2645 0.930 . S
C2655 C2648 1.409 . S
C2655 C2654 1.362 . S
H2656 C2662 0.930 . S
H2657 C2665 0.930 . S
H2658 C2666 0.930 . S
H2659 C2667 0.930 . S
H2660 C2670 0.930 . S
H2661 C2671 0.930 . S
C2662 H2656 0.930 . S
C2662 C2663 1.355 . S
C2662 C2664 1.415 . S
C2663 C2662 1.355 . S
C2663 C2665 1.419 . S
C2664 C2662 1.415 . S
C2664 C2669 1.425 . S
C2664 C2671 1.409 . S
C2665 H2657 0.930 . S
C2665 C2663 1.419 . S
C2665 C2666 1.362 . S
C2666 H2658 0.930 . S
C2666 C2665 1.362 . S
C2666 C2669 1.409 . S
C2667 H2659 0.930 . S
C2667 C2668 1.355 . S
C2667 C2669 1.415 . S
C2668 C2667 1.355 . S
C2668 C2670 1.419 . S
C2669 C2664 1.425 . S
C2669 C2666 1.409 . S
C2669 C2667 1.415 . S
C2670 H2660 0.930 . S
C2670 C2668 1.419 . S
C2670 C2671 1.362 . S
C2671 H2661 0.930 . S
C2671 C2664 1.409 . S
C2671 C2670 1.362 . S
H2672 C2678 0.930 . S
H2673 C2681 0.930 . S
H2674 C2682 0.930 . S
H2675 C2683 0.930 . S
H2676 C2686 0.930 . S
H2677 C2687 0.930 . S
C2678 H2672 0.930 . S
C2678 C2679 1.355 . S
C2678 C2680 1.415 . S
C2679 C2678 1.355 . S
C2679 C2681 1.419 . S
C2680 C2678 1.415 . S
C2680 C2685 1.425 . S
C2680 C2687 1.409 . S
C2681 H2673 0.930 . S
C2681 C2679 1.419 . S
C2681 C2682 1.362 . S
C2682 H2674 0.930 . S
C2682 C2681 1.362 . S
C2682 C2685 1.409 . S
C2683 H2675 0.930 . S
C2683 C2684 1.355 . S
C2683 C2685 1.415 . S
C2684 C2683 1.355 . S
C2684 C2686 1.419 . S
C2685 C2680 1.425 . S
C2685 C2682 1.409 . S
C2685 C2683 1.415 . S
C2686 H2676 0.930 . S
C2686 C2684 1.419 . S
C2686 C2687 1.362 . S
C2687 H2677 0.930 . S
C2687 C2680 1.409 . S
C2687 C2686 1.362 . S
H2688 C2694 0.930 . S
H2689 C2697 0.930 . S
H2690 C2698 0.930 . S
H2691 C2699 0.930 . S
H2692 C2702 0.930 . S
H2693 C2703 0.930 . S
C2694 H2688 0.930 . S
C2694 C2695 1.355 . S
C2694 C2696 1.415 . S
C2695 C2694 1.355 . S
C2695 C2697 1.419 . S
C2696 C2694 1.415 . S
C2696 C2701 1.425 . S
C2696 C2703 1.409 . S
C2697 H2689 0.930 . S
C2697 C2695 1.419 . S
C2697 C2698 1.362 . S
C2698 H2690 0.930 . S
C2698 C2697 1.362 . S
C2698 C2701 1.409 . S
C2699 H2691 0.930 . S
C2699 C2700 1.355 . S
C2699 C2701 1.415 . S
C2700 C2699 1.355 . S
C2700 C2702 1.419 . S
C2701 C2696 1.425 . S
C2701 C2698 1.409 . S
C2701 C2699 1.415 . S
C2702 H2692 0.930 . S
C2702 C2700 1.419 . S
C2702 C2703 1.362 . S
C2703 H2693 0.930 . S
C2703 C2696 1.409 . S
C2703 C2702 1.362 . S
H2704 C2710 0.930 . S
H2705 C2713 0.930 . S
H2706 C2714 0.930 . S
H2707 C2715 0.930 . S
H2708 C2718 0.930 . S
H2709 C2719 0.930 . S
C2710 H2704 0.930 . S
C2710 C2711 1.355 1_556 S
C2710 C2712 1.415 . S
C2711 C2710 1.355 1_554 S
C2711 C2713 1.419 . S
C2712 C2710 1.415 . S
C2712 C2717 1.425 . S
C2712 C2719 1.409 . S
C2713 H2705 0.930 . S
C2713 C2711 1.419 . S
C2713 C2714 1.362 1_554 S
C2714 H2706 0.930 . S
C2714 C2713 1.362 1_556 S
C2714 C2717 1.409 . S
C2715 H2707 0.930 . S
C2715 C2716 1.355 . S
C2715 C2717 1.415 . S
C2716 C2715 1.355 . S
C2716 C2718 1.419 . S
C2717 C2712 1.425 . S
C2717 C2714 1.409 . S
C2717 C2715 1.415 . S
C2718 H2708 0.930 . S
C2718 C2716 1.419 . S
C2718 C2719 1.362 . S
C2719 H2709 0.930 . S
C2719 C2712 1.409 . S
C2719 C2718 1.362 . S
H2720 C2726 0.930 . S
H2721 C2729 0.930 . S
H2722 C2730 0.930 . S
H2723 C2731 0.930 . S
H2724 C2734 0.930 . S
H2725 C2735 0.930 . S
C2726 H2720 0.930 . S
C2726 C2727 1.355 . S
C2726 C2728 1.415 . S
C2727 C2726 1.355 . S
C2727 C2729 1.419 . S
C2728 C2726 1.415 . S
C2728 C2733 1.425 . S
C2728 C2735 1.409 . S
C2729 H2721 0.930 . S
C2729 C2727 1.419 . S
C2729 C2730 1.362 . S
C2730 H2722 0.930 . S
C2730 C2729 1.362 . S
C2730 C2733 1.409 . S
C2731 H2723 0.930 . S
C2731 C2732 1.355 . S
C2731 C2733 1.415 . S
C2732 C2731 1.355 . S
C2732 C2734 1.419 . S
C2733 C2728 1.425 . S
C2733 C2730 1.409 . S
C2733 C2731 1.415 . S
C2734 H2724 0.930 . S
C2734 C2732 1.419 . S
C2734 C2735 1.362 . S
C2735 H2725 0.930 . S
C2735 C2728 1.409 . S
C2735 C2734 1.362 . S
H2736 C2742 0.930 . S
H2737 C2745 0.930 . S
H2738 C2746 0.930 . S
H2739 C2747 0.930 . S
H2740 C2750 0.930 . S
H2741 C2751 0.930 . S
C2742 H2736 0.930 . S
C2742 C2743 1.355 . S
C2742 C2744 1.415 . S
C2743 C2742 1.355 . S
C2743 C2745 1.419 . S
C2744 C2742 1.415 . S
C2744 C2749 1.425 . S
C2744 C2751 1.409 . S
C2745 H2737 0.930 . S
C2745 C2743 1.419 . S
C2745 C2746 1.362 . S
C2746 H2738 0.930 . S
C2746 C2745 1.362 . S
C2746 C2749 1.409 . S
C2747 H2739 0.930 . S
C2747 C2748 1.355 . S
C2747 C2749 1.415 . S
C2748 C2747 1.355 . S
C2748 C2750 1.419 . S
C2749 C2744 1.425 . S
C2749 C2746 1.409 . S
C2749 C2747 1.415 . S
C2750 H2740 0.930 . S
C2750 C2748 1.419 . S
C2750 C2751 1.362 . S
C2751 H2741 0.930 . S
C2751 C2744 1.409 . S
C2751 C2750 1.362 . S
H2752 C2758 0.930 . S
H2753 C2761 0.930 . S
H2754 C2762 0.930 . S
H2755 C2763 0.930 . S
H2756 C2766 0.930 . S
H2757 C2767 0.930 . S
C2758 H2752 0.930 . S
C2758 C2759 1.355 . S
C2758 C2760 1.415 . S
C2759 C2758 1.355 . S
C2759 C2761 1.419 . S
C2760 C2758 1.415 . S
C2760 C2765 1.425 . S
C2760 C2767 1.409 . S
C2761 H2753 0.930 . S
C2761 C2759 1.419 . S
C2761 C2762 1.362 . S
C2762 H2754 0.930 . S
C2762 C2761 1.362 . S
C2762 C2765 1.409 . S
C2763 H2755 0.930 . S
C2763 C2764 1.355 . S
C2763 C2765 1.415 . S
C2764 C2763 1.355 . S
C2764 C2766 1.419 . S
C2765 C2760 1.425 . S
C2765 C2762 1.409 . S
C2765 C2763 1.415 . S
C2766 H2756 0.930 . S
C2766 C2764 1.419 . S
C2766 C2767 1.362 . S
C2767 H2757 0.930 . S
C2767 C2760 1.409 . S
C2767 C2766 1.362 . S
H2768 C2774 0.930 . S
H2769 C2777 0.930 . S
H2770 C2778 0.930 . S
H2771 C2779 0.930 . S
H2772 C2782 0.930 . S
H2773 C2783 0.930 . S
C2774 H2768 0.930 . S
C2774 C2775 1.355 . S
C2774 C2776 1.415 . S
C2775 C2774 1.355 . S
C2775 C2777 1.419 . S
C2776 C2774 1.415 . S
C2776 C2781 1.425 . S
C2776 C2783 1.409 . S
C2777 H2769 0.930 . S
C2777 C2775 1.419 . S
C2777 C2778 1.362 . S
C2778 H2770 0.930 . S
C2778 C2777 1.362 . S
C2778 C2781 1.409 . S
C2779 H2771 0.930 . S
C2779 C2780 1.355 . S
C2779 C2781 1.415 . S
C2780 C2779 1.355 . S
C2780 C2782 1.419 . S
C2781 C2776 1.425 . S
C2781 C2778 1.409 . S
C2781 C2779 1.415 . S
C2782 H2772 0.930 . S
C2782 C2780 1.419 . S
C2782 C2783 1.362 . S
C2783 H2773 0.930 . S
C2783 C2776 1.409 . S
C2783 C2782 1.362 . S
H2784 C2790 0.930 . S
H2785 C2793 0.930 . S
H2786 C2794 0.930 . S
H2787 C2795 0.930 . S
H2788 C2798 0.930 . S
H2789 C2799 0.930 . S
C2790 H2784 0.930 . S
C2790 C2791 1.355 . S
C2790 C2792 1.415 1_565 S
C2791 C2790 1.355 . S
C2791 C2793 1.419 1_565 S
C2792 C2790 1.415 1_545 S
C2792 C2797 1.425 . S
C2792 C2799 1.409 . S
C2793 H2785 0.930 . S
C2793 C2791 1.419 1_545 S
C2793 C2794 1.362 . S
C2794 H2786 0.930 . S
C2794 C2793 1.362 . S
C2794 C2797 1.409 . S
C2795 H2787 0.930 . S
C2795 C2796 1.355 . S
C2795 C2797 1.415 . S
C2796 C2795 1.355 . S
C2796 C2798 1.419 . S
C2797 C2792 1.425 . S
C2797 C2794 1.409 . S
C2797 C2795 1.415 . S
C2798 H2788 0.930 . S
C2798 C2796 1.419 . S
C2798 C2799 1.362 . S
C2799 H2789 0.930 . S
C2799 C2792 1.409 . S
C2799 C2798 1.362 . S
H2800 C2806 0.930 . S
H2801 C2809 0.930 . S
H2802 C2810 0.930 . S
H2803 C2811 0.930 . S
H2804 C2814 0.930 . S
H2805 C2815 0.930 . S
C2806 H2800 0.930 . S
C2806 C2807 1.355 . S
C2806 C2808 1.415 . S
C2807 C2806 1.355 . S
C2807 C2809 1.419 . S
C2808 C2806 1.415 . S
C2808 C2813 1.425 . S
C2808 C2815 1.409 . S
C2809 H2801 0.930 . S
C2809 C2807 1.419 . S
C2809 C2810 1.362 . S
C2810 H2802 0.930 . S
C2810 C2809 1.362 . S
C2810 C2813 1.409 . S
C2811 H2803 0.930 . S
C2811 C2812 1.355 . S
C2811 C2813 1.415 . S
C2812 C2811 1.355 . S
C2812 C2814 1.419 . S
C2813 C2808 1.425 . S
C2813 C2810 1.409 . S
C2813 C2811 1.415 . S
C2814 H2804 0.930 . S
C2814 C2812 1.419 . S
C2814 C2815 1.362 . S
C2815 H2805 0.930 . S
C2815 C2808 1.409 . S
C2815 C2814 1.362 . S
H2816 C2822 0.930 . S
H2817 C2825 0.930 . S
H2818 C2826 0.930 . S
H2819 C2827 0.930 . S
H2820 C2830 0.930 . S
H2821 C2831 0.930 . S
C2822 H2816 0.930 . S
C2822 C2823 1.355 . S
C2822 C2824 1.415 . S
C2823 C2822 1.355 . S
C2823 C2825 1.419 . S
C2824 C2822 1.415 . S
C2824 C2829 1.425 . S
C2824 C2831 1.409 . S
C2825 H2817 0.930 . S
C2825 C2823 1.419 . S
C2825 C2826 1.362 . S
C2826 H2818 0.930 . S
C2826 C2825 1.362 . S
C2826 C2829 1.409 . S
C2827 H2819 0.930 . S
C2827 C2828 1.355 . S
C2827 C2829 1.415 . S
C2828 C2827 1.355 . S
C2828 C2830 1.419 . S
C2829 C2824 1.425 . S
C2829 C2826 1.409 . S
C2829 C2827 1.415 . S
C2830 H2820 0.930 . S
C2830 C2828 1.419 . S
C2830 C2831 1.362 . S
C2831 H2821 0.930 . S
C2831 C2824 1.409 . S
C2831 C2830 1.362 . S
H2832 C2838 0.930 . S
H2833 C2841 0.930 . S
H2834 C2842 0.930 . S
H2835 C2843 0.930 . S
H2836 C2846 0.930 . S
H2837 C2847 0.930 . S
C2838 H2832 0.930 . S
C2838 C2839 1.355 . S
C2838 C2840 1.415 . S
C2839 C2838 1.355 . S
C2839 C2841 1.419 . S
C2840 C2838 1.415 . S
C2840 C2845 1.425 . S
C2840 C2847 1.409 . S
C2841 H2833 0.930 . S
C2841 C2839 1.419 . S
C2841 C2842 1.362 . S
C2842 H2834 0.930 . S
C2842 C2841 1.362 . S
C2842 C2845 1.409 . S
C2843 H2835 0.930 . S
C2843 C2844 1.355 . S
C2843 C2845 1.415 . S
C2844 C2843 1.355 . S
C2844 C2846 1.419 . S
C2845 C2840 1.425 . S
C2845 C2842 1.409 . S
C2845 C2843 1.415 . S
C2846 H2836 0.930 . S
C2846 C2844 1.419 . S
C2846 C2847 1.362 . S
C2847 H2837 0.930 . S
C2847 C2840 1.409 . S
C2847 C2846 1.362 . S
H2848 C2854 0.930 . S
H2849 C2857 0.930 . S
H2850 C2858 0.930 1_545 S
H2851 C2859 0.930 . S
H2852 C2862 0.930 . S
H2853 C2863 0.930 . S
C2854 H2848 0.930 . S
C2854 C2855 1.355 . S
C2854 C2856 1.415 . S
C2855 C2854 1.355 . S
C2855 C2857 1.419 . S
C2856 C2854 1.415 . S
C2856 C2861 1.425 . S
C2856 C2863 1.409 . S
C2857 H2849 0.930 . S
C2857 C2855 1.419 . S
C2857 C2858 1.362 . S
C2858 H2850 0.930 1_565 S
C2858 C2857 1.362 . S
C2858 C2861 1.409 . S
C2859 H2851 0.930 . S
C2859 C2860 1.355 . S
C2859 C2861 1.415 1_545 S
C2860 C2859 1.355 . S
C2860 C2862 1.419 1_545 S
C2861 C2856 1.425 . S
C2861 C2858 1.409 . S
C2861 C2859 1.415 1_565 S
C2862 H2852 0.930 . S
C2862 C2860 1.419 1_565 S
C2862 C2863 1.362 . S
C2863 H2853 0.930 . S
C2863 C2856 1.409 . S
C2863 C2862 1.362 . S
H2864 C2870 0.930 . S
H2865 C2873 0.930 . S
H2866 C2874 0.930 . S
H2867 C2875 0.930 . S
H2868 C2878 0.930 . S
H2869 C2879 0.930 . S
C2870 H2864 0.930 . S
C2870 C2871 1.355 . S
C2870 C2872 1.415 . S
C2871 C2870 1.355 . S
C2871 C2873 1.419 . S
C2872 C2870 1.415 . S
C2872 C2877 1.425 . S
C2872 C2879 1.409 1_545 S
C2873 H2865 0.930 . S
C2873 C2871 1.419 . S
C2873 C2874 1.362 . S
C2874 H2866 0.930 . S
C2874 C2873 1.362 . S
C2874 C2877 1.409 . S
C2875 H2867 0.930 . S
C2875 C2876 1.355 1_545 S
C2875 C2877 1.415 . S
C2876 C2875 1.355 1_565 S
C2876 C2878 1.419 . S
C2877 C2872 1.425 . S
C2877 C2874 1.409 . S
C2877 C2875 1.415 . S
C2878 H2868 0.930 . S
C2878 C2876 1.419 . S
C2878 C2879 1.362 . S
C2879 H2869 0.930 . S
C2879 C2872 1.409 1_565 S
C2879 C2878 1.362 . S
H2880 C2886 0.930 . S
H2881 C2889 0.930 . S
H2882 C2890 0.930 . S
H2883 C2891 0.930 . S
H2884 C2894 0.930 . S
H2885 C2895 0.930 . S
C2886 H2880 0.930 . S
C2886 C2887 1.355 . S
C2886 C2888 1.415 . S
C2887 C2886 1.355 . S
C2887 C2889 1.419 . S
C2888 C2886 1.415 . S
C2888 C2893 1.425 . S
C2888 C2895 1.409 . S
C2889 H2881 0.930 . S
C2889 C2887 1.419 . S
C2889 C2890 1.362 . S
C2890 H2882 0.930 . S
C2890 C2889 1.362 . S
C2890 C2893 1.409 . S
C2891 H2883 0.930 . S
C2891 C2892 1.355 . S
C2891 C2893 1.415 . S
C2892 C2891 1.355 . S
C2892 C2894 1.419 . S
C2893 C2888 1.425 . S
C2893 C2890 1.409 . S
C2893 C2891 1.415 . S
C2894 H2884 0.930 . S
C2894 C2892 1.419 . S
C2894 C2895 1.362 . S
C2895 H2885 0.930 . S
C2895 C2888 1.409 . S
C2895 C2894 1.362 . S
H2896 C2902 0.930 . S
H2897 C2905 0.930 . S
H2898 C2906 0.930 . S
H2899 C2907 0.930 . S
H2900 C2910 0.930 . S
H2901 C2911 0.930 . S
C2902 H2896 0.930 . S
C2902 C2903 1.355 . S
C2902 C2904 1.415 . S
C2903 C2902 1.355 . S
C2903 C2905 1.419 . S
C2904 C2902 1.415 . S
C2904 C2909 1.425 . S
C2904 C2911 1.409 . S
C2905 H2897 0.930 . S
C2905 C2903 1.419 . S
C2905 C2906 1.362 . S
C2906 H2898 0.930 . S
C2906 C2905 1.362 . S
C2906 C2909 1.409 . S
C2907 H2899 0.930 . S
C2907 C2908 1.355 . S
C2907 C2909 1.415 . S
C2908 C2907 1.355 . S
C2908 C2910 1.419 . S
C2909 C2904 1.425 . S
C2909 C2906 1.409 . S
C2909 C2907 1.415 . S
C2910 H2900 0.930 . S
C2910 C2908 1.419 . S
C2910 C2911 1.362 . S
C2911 H2901 0.930 . S
C2911 C2904 1.409 . S
C2911 C2910 1.362 . S
H2912 C2918 0.930 . S
H2913 C2921 0.930 . S
H2914 C2922 0.930 . S
H2915 C2923 0.930 . S
H2916 C2926 0.930 . S
H2917 C2927 0.930 . S
C2918 H2912 0.930 . S
C2918 C2919 1.355 . S
C2918 C2920 1.415 . S
C2919 C2918 1.355 . S
C2919 C2921 1.419 . S
C2920 C2918 1.415 . S
C2920 C2925 1.425 . S
C2920 C2927 1.409 . S
C2921 H2913 0.930 . S
C2921 C2919 1.419 . S
C2921 C2922 1.362 . S
C2922 H2914 0.930 . S
C2922 C2921 1.362 . S
C2922 C2925 1.409 . S
C2923 H2915 0.930 . S
C2923 C2924 1.355 . S
C2923 C2925 1.415 . S
C2924 C2923 1.355 . S
C2924 C2926 1.419 . S
C2925 C2920 1.425 . S
C2925 C2922 1.409 . S
C2925 C2923 1.415 . S
C2926 H2916 0.930 . S
C2926 C2924 1.419 . S
C2926 C2927 1.362 . S
C2927 H2917 0.930 . S
C2927 C2920 1.409 . S
C2927 C2926 1.362 . S
H2928 C2934 0.930 . S
H2929 C2937 0.930 . S
H2930 C2938 0.930 . S
H2931 C2939 0.930 . S
H2932 C2942 0.930 . S
H2933 C2943 0.930 . S
C2934 H2928 0.930 . S
C2934 C2935 1.355 . S
C2934 C2936 1.415 . S
C2935 C2934 1.355 . S
C2935 C2937 1.419 . S
C2936 C2934 1.415 . S
C2936 C2941 1.425 . S
C2936 C2943 1.409 . S
C2937 H2929 0.930 . S
C2937 C2935 1.419 . S
C2937 C2938 1.362 . S
C2938 H2930 0.930 . S
C2938 C2937 1.362 . S
C2938 C2941 1.409 . S
C2939 H2931 0.930 . S
C2939 C2940 1.355 . S
C2939 C2941 1.415 . S
C2940 C2939 1.355 . S
C2940 C2942 1.419 . S
C2941 C2936 1.425 . S
C2941 C2938 1.409 . S
C2941 C2939 1.415 . S
C2942 H2932 0.930 . S
C2942 C2940 1.419 . S
C2942 C2943 1.362 . S
C2943 H2933 0.930 . S
C2943 C2936 1.409 . S
C2943 C2942 1.362 . S
H2944 C2950 0.930 . S
H2945 C2953 0.930 . S
H2946 C2954 0.930 . S
H2947 C2955 0.930 . S
H2948 C2958 0.930 . S
H2949 C2959 0.930 . S
C2950 H2944 0.930 . S
C2950 C2951 1.355 . S
C2950 C2952 1.415 . S
C2951 C2950 1.355 . S
C2951 C2953 1.419 . S
C2952 C2950 1.415 . S
C2952 C2957 1.425 . S
C2952 C2959 1.409 . S
C2953 H2945 0.930 . S
C2953 C2951 1.419 . S
C2953 C2954 1.362 . S
C2954 H2946 0.930 . S
C2954 C2953 1.362 . S
C2954 C2957 1.409 . S
C2955 H2947 0.930 . S
C2955 C2956 1.355 . S
C2955 C2957 1.415 . S
C2956 C2955 1.355 . S
C2956 C2958 1.419 . S
C2957 C2952 1.425 . S
C2957 C2954 1.409 . S
C2957 C2955 1.415 . S
C2958 H2948 0.930 . S
C2958 C2956 1.419 . S
C2958 C2959 1.362 . S
C2959 H2949 0.930 . S
C2959 C2952 1.409 . S
C2959 C2958 1.362 . S
H2960 C2966 0.930 . S
H2961 C2969 0.930 . S
H2962 C2970 0.930 . S
H2963 C2971 0.930 . S
H2964 C2974 0.930 . S
H2965 C2975 0.930 . S
C2966 H2960 0.930 . S
C2966 C2967 1.355 . S
C2966 C2968 1.415 . S
C2967 C2966 1.355 . S
C2967 C2969 1.419 . S
C2968 C2966 1.415 . S
C2968 C2973 1.425 . S
C2968 C2975 1.409 . S
C2969 H2961 0.930 . S
C2969 C2967 1.419 . S
C2969 C2970 1.362 . S
C2970 H2962 0.930 . S
C2970 C2969 1.362 . S
C2970 C2973 1.409 . S
C2971 H2963 0.930 . S
C2971 C2972 1.355 . S
C2971 C2973 1.415 . S
C2972 C2971 1.355 . S
C2972 C2974 1.419 . S
C2973 C2968 1.425 . S
C2973 C2970 1.409 . S
C2973 C2971 1.415 . S
C2974 H2964 0.930 . S
C2974 C2972 1.419 . S
C2974 C2975 1.362 . S
C2975 H2965 0.930 . S
C2975 C2968 1.409 . S
C2975 C2974 1.362 . S
H2976 C2982 0.930 . S
H2977 C2985 0.930 . S
H2978 C2986 0.930 . S
H2979 C2987 0.930 . S
H2980 C2990 0.930 . S
H2981 C2991 0.930 . S
C2982 H2976 0.930 . S
C2982 C2983 1.355 . S
C2982 C2984 1.415 . S
C2983 C2982 1.355 . S
C2983 C2985 1.419 . S
C2984 C2982 1.415 . S
C2984 C2989 1.425 . S
C2984 C2991 1.409 . S
C2985 H2977 0.930 . S
C2985 C2983 1.419 . S
C2985 C2986 1.362 . S
C2986 H2978 0.930 . S
C2986 C2985 1.362 . S
C2986 C2989 1.409 . S
C2987 H2979 0.930 . S
C2987 C2988 1.355 . S
C2987 C2989 1.415 . S
C2988 C2987 1.355 . S
C2988 C2990 1.419 . S
C2989 C2984 1.425 . S
C2989 C2986 1.409 . S
C2989 C2987 1.415 . S
C2990 H2980 0.930 . S
C2990 C2988 1.419 . S
C2990 C2991 1.362 . S
C2991 H2981 0.930 . S
C2991 C2984 1.409 . S
C2991 C2990 1.362 . S
H2992 C2998 0.930 . S
H2993 C3001 0.930 . S
H2994 C3002 0.930 . S
H2995 C3003 0.930 . S
H2996 C3006 0.930 . S
H2997 C3007 0.930 . S
C2998 H2992 0.930 . S
C2998 C2999 1.355 . S
C2998 C3000 1.415 . S
C2999 C2998 1.355 . S
C2999 C3001 1.419 . S
C3000 C2998 1.415 . S
C3000 C3005 1.425 . S
C3000 C3007 1.409 . S
C3001 H2993 0.930 . S
C3001 C2999 1.419 . S
C3001 C3002 1.362 . S
C3002 H2994 0.930 . S
C3002 C3001 1.362 . S
C3002 C3005 1.409 . S
C3003 H2995 0.930 . S
C3003 C3004 1.355 . S
C3003 C3005 1.415 . S
C3004 C3003 1.355 . S
C3004 C3006 1.419 . S
C3005 C3000 1.425 . S
C3005 C3002 1.409 . S
C3005 C3003 1.415 . S
C3006 H2996 0.930 . S
C3006 C3004 1.419 . S
C3006 C3007 1.362 . S
C3007 H2997 0.930 . S
C3007 C3000 1.409 . S
C3007 C3006 1.362 . S
H3008 C3014 0.930 . S
H3009 C3017 0.930 . S
H3010 C3018 0.930 . S
H3011 C3019 0.930 . S
H3012 C3022 0.930 . S
H3013 C3023 0.930 . S
C3014 H3008 0.930 . S
C3014 C3015 1.355 . S
C3014 C3016 1.415 . S
C3015 C3014 1.355 . S
C3015 C3017 1.419 . S
C3016 C3014 1.415 . S
C3016 C3021 1.425 . S
C3016 C3023 1.409 . S
C3017 H3009 0.930 . S
C3017 C3015 1.419 . S
C3017 C3018 1.362 . S
C3018 H3010 0.930 . S
C3018 C3017 1.362 . S
C3018 C3021 1.409 . S
C3019 H3011 0.930 . S
C3019 C3020 1.355 . S
C3019 C3021 1.415 . S
C3020 C3019 1.355 . S
C3020 C3022 1.419 . S
C3021 C3016 1.425 . S
C3021 C3018 1.409 . S
C3021 C3019 1.415 . S
C3022 H3012 0.930 . S
C3022 C3020 1.419 . S
C3022 C3023 1.362 . S
C3023 H3013 0.930 . S
C3023 C3016 1.409 . S
C3023 C3022 1.362 . S
H3024 C3030 0.930 . S
H3025 C3033 0.930 . S
H3026 C3034 0.930 . S
H3027 C3035 0.930 . S
H3028 C3038 0.930 . S
H3029 C3039 0.930 . S
C3030 H3024 0.930 . S
C3030 C3031 1.355 . S
C3030 C3032 1.415 . S
C3031 C3030 1.355 . S
C3031 C3033 1.419 . S
C3032 C3030 1.415 . S
C3032 C3037 1.425 . S
C3032 C3039 1.409 . S
C3033 H3025 0.930 . S
C3033 C3031 1.419 . S
C3033 C3034 1.362 . S
C3034 H3026 0.930 . S
C3034 C3033 1.362 . S
C3034 C3037 1.409 . S
C3035 H3027 0.930 . S
C3035 C3036 1.355 . S
C3035 C3037 1.415 . S
C3036 C3035 1.355 . S
C3036 C3038 1.419 . S
C3037 C3032 1.425 . S
C3037 C3034 1.409 . S
C3037 C3035 1.415 . S
C3038 H3028 0.930 . S
C3038 C3036 1.419 . S
C3038 C3039 1.362 . S
C3039 H3029 0.930 . S
C3039 C3032 1.409 . S
C3039 C3038 1.362 . S
H3040 C3046 0.930 . S
H3041 C3049 0.930 . S
H3042 C3050 0.930 . S
H3043 C3051 0.930 . S
H3044 C3054 0.930 . S
H3045 C3055 0.930 . S
C3046 H3040 0.930 . S
C3046 C3047 1.355 . S
C3046 C3048 1.415 . S
C3047 C3046 1.355 . S
C3047 C3049 1.419 . S
C3048 C3046 1.415 . S
C3048 C3053 1.425 . S
C3048 C3055 1.409 . S
C3049 H3041 0.930 . S
C3049 C3047 1.419 . S
C3049 C3050 1.362 . S
C3050 H3042 0.930 . S
C3050 C3049 1.362 . S
C3050 C3053 1.409 . S
C3051 H3043 0.930 . S
C3051 C3052 1.355 . S
C3051 C3053 1.415 . S
C3052 C3051 1.355 . S
C3052 C3054 1.419 . S
C3053 C3048 1.425 . S
C3053 C3050 1.409 . S
C3053 C3051 1.415 . S
C3054 H3044 0.930 . S
C3054 C3052 1.419 . S
C3054 C3055 1.362 . S
C3055 H3045 0.930 . S
C3055 C3048 1.409 . S
C3055 C3054 1.362 . S
H3056 C3062 0.930 . S
H3057 C3065 0.930 . S
H3058 C3066 0.930 . S
H3059 C3067 0.930 . S
H3060 C3070 0.930 . S
H3061 C3071 0.930 . S
C3062 H3056 0.930 . S
C3062 C3063 1.355 . S
C3062 C3064 1.415 . S
C3063 C3062 1.355 . S
C3063 C3065 1.419 . S
C3064 C3062 1.415 . S
C3064 C3069 1.425 . S
C3064 C3071 1.409 . S
C3065 H3057 0.930 . S
C3065 C3063 1.419 . S
C3065 C3066 1.362 . S
C3066 H3058 0.930 . S
C3066 C3065 1.362 . S
C3066 C3069 1.409 . S
C3067 H3059 0.930 . S
C3067 C3068 1.355 . S
C3067 C3069 1.415 . S
C3068 C3067 1.355 . S
C3068 C3070 1.419 . S
C3069 C3064 1.425 . S
C3069 C3066 1.409 . S
C3069 C3067 1.415 . S
C3070 H3060 0.930 . S
C3070 C3068 1.419 . S
C3070 C3071 1.362 . S
C3071 H3061 0.930 . S
C3071 C3064 1.409 . S
C3071 C3070 1.362 . S
H3072 C3078 0.930 . S
H3073 C3081 0.930 . S
H3074 C3082 0.930 . S
H3075 C3083 0.930 . S
H3076 C3086 0.930 . S
H3077 C3087 0.930 . S
C3078 H3072 0.930 . S
C3078 C3079 1.355 . S
C3078 C3080 1.415 . S
C3079 C3078 1.355 . S
C3079 C3081 1.419 . S
C3080 C3078 1.415 . S
C3080 C3085 1.425 . S
C3080 C3087 1.409 . S
C3081 H3073 0.930 . S
C3081 C3079 1.419 . S
C3081 C3082 1.362 . S
C3082 H3074 0.930 . S
C3082 C3081 1.362 . S
C3082 C3085 1.409 . S
C3083 H3075 0.930 . S
C3083 C3084 1.355 . S
C3083 C3085 1.415 . S
C3084 C3083 1.355 . S
C3084 C3086 1.419 . S
C3085 C3080 1.425 . S
C3085 C3082 1.409 . S
C3085 C3083 1.415 . S
C3086 H3076 0.930 . S
C3086 C3084 1.419 . S
C3086 C3087 1.362 . S
C3087 H3077 0.930 . S
C3087 C3080 1.409 . S
C3087 C3086 1.362 . S
H3088 C3094 0.930 . S
H3089 C3097 0.930 . S
H3090 C3098 0.930 . S
H3091 C3099 0.930 . S
H3092 C3102 0.930 . S
H3093 C3103 0.930 . S
C3094 H3088 0.930 . S
C3094 C3095 1.355 . S
C3094 C3096 1.415 . S
C3095 C3094 1.355 . S
C3095 C3097 1.419 . S
C3096 C3094 1.415 . S
C3096 C3101 1.425 . S
C3096 C3103 1.409 . S
C3097 H3089 0.930 . S
C3097 C3095 1.419 . S
C3097 C3098 1.362 . S
C3098 H3090 0.930 . S
C3098 C3097 1.362 . S
C3098 C3101 1.409 . S
C3099 H3091 0.930 . S
C3099 C3100 1.355 . S
C3099 C3101 1.415 . S
C3100 C3099 1.355 . S
C3100 C3102 1.419 . S
C3101 C3096 1.425 . S
C3101 C3098 1.409 . S
C3101 C3099 1.415 . S
C3102 H3092 0.930 . S
C3102 C3100 1.419 . S
C3102 C3103 1.362 . S
C3103 H3093 0.930 . S
C3103 C3096 1.409 . S
C3103 C3102 1.362 . S
H3104 C3110 0.930 . S
H3105 C3113 0.930 . S
H3106 C3114 0.930 . S
H3107 C3115 0.930 . S
H3108 C3118 0.930 . S
H3109 C3119 0.930 . S
C3110 H3104 0.930 . S
C3110 C3111 1.355 . S
C3110 C3112 1.415 . S
C3111 C3110 1.355 . S
C3111 C3113 1.419 . S
C3112 C3110 1.415 . S
C3112 C3117 1.425 . S
C3112 C3119 1.409 . S
C3113 H3105 0.930 . S
C3113 C3111 1.419 . S
C3113 C3114 1.362 . S
C3114 H3106 0.930 . S
C3114 C3113 1.362 . S
C3114 C3117 1.409 . S
C3115 H3107 0.930 . S
C3115 C3116 1.355 . S
C3115 C3117 1.415 . S
C3116 C3115 1.355 . S
C3116 C3118 1.419 . S
C3117 C3112 1.425 . S
C3117 C3114 1.409 . S
C3117 C3115 1.415 . S
C3118 H3108 0.930 . S
C3118 C3116 1.419 . S
C3118 C3119 1.362 . S
C3119 H3109 0.930 . S
C3119 C3112 1.409 . S
C3119 C3118 1.362 . S
H3120 C3126 0.930 . S
H3121 C3129 0.930 . S
H3122 C3130 0.930 . S
H3123 C3131 0.930 . S
H3124 C3134 0.930 . S
H3125 C3135 0.930 . S
C3126 H3120 0.930 . S
C3126 C3127 1.355 . S
C3126 C3128 1.415 . S
C3127 C3126 1.355 . S
C3127 C3129 1.419 . S
C3128 C3126 1.415 . S
C3128 C3133 1.425 . S
C3128 C3135 1.409 . S
C3129 H3121 0.930 . S
C3129 C3127 1.419 . S
C3129 C3130 1.362 . S
C3130 H3122 0.930 . S
C3130 C3129 1.362 . S
C3130 C3133 1.409 . S
C3131 H3123 0.930 . S
C3131 C3132 1.355 . S
C3131 C3133 1.415 . S
C3132 C3131 1.355 . S
C3132 C3134 1.419 . S
C3133 C3128 1.425 . S
C3133 C3130 1.409 . S
C3133 C3131 1.415 . S
C3134 H3124 0.930 . S
C3134 C3132 1.419 . S
C3134 C3135 1.362 . S
C3135 H3125 0.930 . S
C3135 C3128 1.409 . S
C3135 C3134 1.362 . S
H3136 C3142 0.930 . S
H3137 C3145 0.930 . S
H3138 C3146 0.930 . S
H3139 C3147 0.930 . S
H3140 C3150 0.930 . S
H3141 C3151 0.930 . S
C3142 H3136 0.930 . S
C3142 C3143 1.355 . S
C3142 C3144 1.415 . S
C3143 C3142 1.355 . S
C3143 C3145 1.419 . S
C3144 C3142 1.415 . S
C3144 C3149 1.425 . S
C3144 C3151 1.409 . S
C3145 H3137 0.930 . S
C3145 C3143 1.419 . S
C3145 C3146 1.362 . S
C3146 H3138 0.930 . S
C3146 C3145 1.362 . S
C3146 C3149 1.409 . S
C3147 H3139 0.930 . S
C3147 C3148 1.355 . S
C3147 C3149 1.415 . S
C3148 C3147 1.355 . S
C3148 C3150 1.419 . S
C3149 C3144 1.425 . S
C3149 C3146 1.409 . S
C3149 C3147 1.415 . S
C3150 H3140 0.930 . S
C3150 C3148 1.419 . S
C3150 C3151 1.362 . S
C3151 H3141 0.930 . S
C3151 C3144 1.409 . S
C3151 C3150 1.362 . S
H3152 C3158 0.930 . S
H3153 C3161 0.930 . S
H3154 C3162 0.930 . S
H3155 C3163 0.930 . S
H3156 C3166 0.930 . S
H3157 C3167 0.930 . S
C3158 H3152 0.930 . S
C3158 C3159 1.355 . S
C3158 C3160 1.415 . S
C3159 C3158 1.355 . S
C3159 C3161 1.419 . S
C3160 C3158 1.415 . S
C3160 C3165 1.425 . S
C3160 C3167 1.409 . S
C3161 H3153 0.930 . S
C3161 C3159 1.419 . S
C3161 C3162 1.362 . S
C3162 H3154 0.930 . S
C3162 C3161 1.362 . S
C3162 C3165 1.409 . S
C3163 H3155 0.930 . S
C3163 C3164 1.355 . S
C3163 C3165 1.415 . S
C3164 C3163 1.355 . S
C3164 C3166 1.419 . S
C3165 C3160 1.425 . S
C3165 C3162 1.409 . S
C3165 C3163 1.415 . S
C3166 H3156 0.930 . S
C3166 C3164 1.419 . S
C3166 C3167 1.362 . S
C3167 H3157 0.930 . S
C3167 C3160 1.409 . S
C3167 C3166 1.362 . S
H3168 C3174 0.930 . S
H3169 C3177 0.930 . S
H3170 C3178 0.930 . S
H3171 C3179 0.930 . S
H3172 C3182 0.930 . S
H3173 C3183 0.930 . S
C3174 H3168 0.930 . S
C3174 C3175 1.355 . S
C3174 C3176 1.415 . S
C3175 C3174 1.355 . S
C3175 C3177 1.419 . S
C3176 C3174 1.415 . S
C3176 C3181 1.425 . S
C3176 C3183 1.409 . S
C3177 H3169 0.930 . S
C3177 C3175 1.419 . S
C3177 C3178 1.362 . S
C3178 H3170 0.930 . S
C3178 C3177 1.362 . S
C3178 C3181 1.409 . S
C3179 H3171 0.930 . S
C3179 C3180 1.355 . S
C3179 C3181 1.415 . S
C3180 C3179 1.355 . S
C3180 C3182 1.419 . S
C3181 C3176 1.425 . S
C3181 C3178 1.409 . S
C3181 C3179 1.415 . S
C3182 H3172 0.930 . S
C3182 C3180 1.419 . S
C3182 C3183 1.362 . S
C3183 H3173 0.930 . S
C3183 C3176 1.409 . S
C3183 C3182 1.362 . S
H3184 C3190 0.930 . S
H3185 C3193 0.930 . S
H3186 C3194 0.930 . S
H3187 C3195 0.930 . S
H3188 C3198 0.930 . S
H3189 C3199 0.930 . S
C3190 H3184 0.930 . S
C3190 C3191 1.355 . S
C3190 C3192 1.415 . S
C3191 C3190 1.355 . S
C3191 C3193 1.419 . S
C3192 C3190 1.415 . S
C3192 C3197 1.425 . S
C3192 C3199 1.409 . S
C3193 H3185 0.930 . S
C3193 C3191 1.419 . S
C3193 C3194 1.362 . S
C3194 H3186 0.930 . S
C3194 C3193 1.362 . S
C3194 C3197 1.409 . S
C3195 H3187 0.930 . S
C3195 C3196 1.355 . S
C3195 C3197 1.415 . S
C3196 C3195 1.355 . S
C3196 C3198 1.419 . S
C3197 C3192 1.425 . S
C3197 C3194 1.409 . S
C3197 C3195 1.415 . S
C3198 H3188 0.930 . S
C3198 C3196 1.419 . S
C3198 C3199 1.362 . S
C3199 H3189 0.930 . S
C3199 C3192 1.409 . S
C3199 C3198 1.362 . S
H3200 C3206 0.930 . S
H3201 C3209 0.930 . S
H3202 C3210 0.930 . S
H3203 C3211 0.930 . S
H3204 C3214 0.930 . S
H3205 C3215 0.930 . S
C3206 H3200 0.930 . S
C3206 C3207 1.355 . S
C3206 C3208 1.415 . S
C3207 C3206 1.355 . S
C3207 C3209 1.419 . S
C3208 C3206 1.415 . S
C3208 C3213 1.425 . S
C3208 C3215 1.409 . S
C3209 H3201 0.930 . S
C3209 C3207 1.419 . S
C3209 C3210 1.362 . S
C3210 H3202 0.930 . S
C3210 C3209 1.362 . S
C3210 C3213 1.409 . S
C3211 H3203 0.930 . S
C3211 C3212 1.355 . S
C3211 C3213 1.415 . S
C3212 C3211 1.355 . S
C3212 C3214 1.419 . S
C3213 C3208 1.425 . S
C3213 C3210 1.409 . S
C3213 C3211 1.415 . S
C3214 H3204 0.930 . S
C3214 C3212 1.419 . S
C3214 C3215 1.362 . S
C3215 H3205 0.930 . S
C3215 C3208 1.409 . S
C3215 C3214 1.362 . S
H3216 C3222 0.930 . S
H3217 C3225 0.930 . S
H3218 C3226 0.930 . S
H3219 C3227 0.930 . S
H3220 C3230 0.930 . S
H3221 C3231 0.930 . S
C3222 H3216 0.930 . S
C3222 C3223 1.355 . S
C3222 C3224 1.415 . S
C3223 C3222 1.355 . S
C3223 C3225 1.419 . S
C3224 C3222 1.415 . S
C3224 C3229 1.425 . S
C3224 C3231 1.409 . S
C3225 H3217 0.930 . S
C3225 C3223 1.419 . S
C3225 C3226 1.362 . S
C3226 H3218 0.930 . S
C3226 C3225 1.362 . S
C3226 C3229 1.409 . S
C3227 H3219 0.930 . S
C3227 C3228 1.355 . S
C3227 C3229 1.415 . S
C3228 C3227 1.355 . S
C3228 C3230 1.419 . S
C3229 C3224 1.425 . S
C3229 C3226 1.409 . S
C3229 C3227 1.415 . S
C3230 H3220 0.930 . S
C3230 C3228 1.419 . S
C3230 C3231 1.362 . S
C3231 H3221 0.930 . S
C3231 C3224 1.409 . S
C3231 C3230 1.362 . S
H3232 C3238 0.930 . S
H3233 C3241 0.930 . S
H3234 C3242 0.930 . S
H3235 C3243 0.930 . S
H3236 C3246 0.930 . S
H3237 C3247 0.930 . S
C3238 H3232 0.930 . S
C3238 C3239 1.355 . S
C3238 C3240 1.415 . S
C3239 C3238 1.355 . S
C3239 C3241 1.419 . S
C3240 C3238 1.415 . S
C3240 C3245 1.425 . S
C3240 C3247 1.409 . S
C3241 H3233 0.930 . S
C3241 C3239 1.419 . S
C3241 C3242 1.362 . S
C3242 H3234 0.930 . S
C3242 C3241 1.362 . S
C3242 C3245 1.409 . S
C3243 H3235 0.930 . S
C3243 C3244 1.355 . S
C3243 C3245 1.415 . S
C3244 C3243 1.355 . S
C3244 C3246 1.419 . S
C3245 C3240 1.425 . S
C3245 C3242 1.409 . S
C3245 C3243 1.415 . S
C3246 H3236 0.930 . S
C3246 C3244 1.419 . S
C3246 C3247 1.362 . S
C3247 H3237 0.930 . S
C3247 C3240 1.409 . S
C3247 C3246 1.362 . S
H3248 C3254 0.930 . S
H3249 C3257 0.930 . S
H3250 C3258 0.930 . S
H3251 C3259 0.930 . S
H3252 C3262 0.930 . S
H3253 C3263 0.930 . S
C3254 H3248 0.930 . S
C3254 C3255 1.355 . S
C3254 C3256 1.415 . S
C3255 C3254 1.355 . S
C3255 C3257 1.419 . S
C3256 C3254 1.415 . S
C3256 C3261 1.425 . S
C3256 C3263 1.409 . S
C3257 H3249 0.930 . S
C3257 C3255 1.419 . S
C3257 C3258 1.362 . S
C3258 H3250 0.930 . S
C3258 C3257 1.362 . S
C3258 C3261 1.409 . S
C3259 H3251 0.930 . S
C3259 C3260 1.355 . S
C3259 C3261 1.415 . S
C3260 C3259 1.355 . S
C3260 C3262 1.419 . S
C3261 C3256 1.425 . S
C3261 C3258 1.409 . S
C3261 C3259 1.415 . S
C3262 H3252 0.930 . S
C3262 C3260 1.419 . S
C3262 C3263 1.362 . S
C3263 H3253 0.930 . S
C3263 C3256 1.409 . S
C3263 C3262 1.362 . S
H3264 C3270 0.930 . S
H3265 C3273 0.930 . S
H3266 C3274 0.930 . S
H3267 C3275 0.930 . S
H3268 C3278 0.930 . S
H3269 C3279 0.930 . S
C3270 H3264 0.930 . S
C3270 C3271 1.355 . S
C3270 C3272 1.415 . S
C3271 C3270 1.355 . S
C3271 C3273 1.419 . S
C3272 C3270 1.415 . S
C3272 C3277 1.425 . S
C3272 C3279 1.409 . S
C3273 H3265 0.930 . S
C3273 C3271 1.419 . S
C3273 C3274 1.362 . S
C3274 H3266 0.930 . S
C3274 C3273 1.362 . S
C3274 C3277 1.409 . S
C3275 H3267 0.930 . S
C3275 C3276 1.355 . S
C3275 C3277 1.415 . S
C3276 C3275 1.355 . S
C3276 C3278 1.419 . S
C3277 C3272 1.425 . S
C3277 C3274 1.409 . S
C3277 C3275 1.415 . S
C3278 H3268 0.930 . S
C3278 C3276 1.419 . S
C3278 C3279 1.362 . S
C3279 H3269 0.930 . S
C3279 C3272 1.409 . S
C3279 C3278 1.362 . S
H3280 C3286 0.930 . S
H3281 C3289 0.930 . S
H3282 C3290 0.930 . S
H3283 C3291 0.930 . S
H3284 C3294 0.930 . S
H3285 C3295 0.930 . S
C3286 H3280 0.930 . S
C3286 C3287 1.355 . S
C3286 C3288 1.415 . S
C3287 C3286 1.355 . S
C3287 C3289 1.419 . S
C3288 C3286 1.415 . S
C3288 C3293 1.425 . S
C3288 C3295 1.409 . S
C3289 H3281 0.930 . S
C3289 C3287 1.419 . S
C3289 C3290 1.362 . S
C3290 H3282 0.930 . S
C3290 C3289 1.362 . S
C3290 C3293 1.409 . S
C3291 H3283 0.930 . S
C3291 C3292 1.355 . S
C3291 C3293 1.415 . S
C3292 C3291 1.355 . S
C3292 C3294 1.419 . S
C3293 C3288 1.425 . S
C3293 C3290 1.409 . S
C3293 C3291 1.415 . S
C3294 H3284 0.930 . S
C3294 C3292 1.419 . S
C3294 C3295 1.362 . S
C3295 H3285 0.930 . S
C3295 C3288 1.409 . S
C3295 C3294 1.362 . S
H3296 C3302 0.930 . S
H3297 C3305 0.930 . S
H3298 C3306 0.930 . S
H3299 C3307 0.930 . S
H3300 C3310 0.930 . S
H3301 C3311 0.930 . S
C3302 H3296 0.930 . S
C3302 C3303 1.355 . S
C3302 C3304 1.415 . S
C3303 C3302 1.355 . S
C3303 C3305 1.419 . S
C3304 C3302 1.415 . S
C3304 C3309 1.425 . S
C3304 C3311 1.409 . S
C3305 H3297 0.930 . S
C3305 C3303 1.419 . S
C3305 C3306 1.362 . S
C3306 H3298 0.930 . S
C3306 C3305 1.362 . S
C3306 C3309 1.409 . S
C3307 H3299 0.930 . S
C3307 C3308 1.355 . S
C3307 C3309 1.415 . S
C3308 C3307 1.355 . S
C3308 C3310 1.419 . S
C3309 C3304 1.425 . S
C3309 C3306 1.409 . S
C3309 C3307 1.415 . S
C3310 H3300 0.930 . S
C3310 C3308 1.419 . S
C3310 C3311 1.362 . S
C3311 H3301 0.930 . S
C3311 C3304 1.409 . S
C3311 C3310 1.362 . S
H3312 C3318 0.930 . S
H3313 C3321 0.930 . S
H3314 C3322 0.930 . S
H3315 C3323 0.930 . S
H3316 C3326 0.930 . S
H3317 C3327 0.930 . S
C3318 H3312 0.930 . S
C3318 C3319 1.355 . S
C3318 C3320 1.415 . S
C3319 C3318 1.355 . S
C3319 C3321 1.419 . S
C3320 C3318 1.415 . S
C3320 C3325 1.425 . S
C3320 C3327 1.409 . S
C3321 H3313 0.930 . S
C3321 C3319 1.419 . S
C3321 C3322 1.362 . S
C3322 H3314 0.930 . S
C3322 C3321 1.362 . S
C3322 C3325 1.409 . S
C3323 H3315 0.930 . S
C3323 C3324 1.355 . S
C3323 C3325 1.415 . S
C3324 C3323 1.355 . S
C3324 C3326 1.419 . S
C3325 C3320 1.425 . S
C3325 C3322 1.409 . S
C3325 C3323 1.415 . S
C3326 H3316 0.930 . S
C3326 C3324 1.419 . S
C3326 C3327 1.362 . S
C3327 H3317 0.930 . S
C3327 C3320 1.409 . S
C3327 C3326 1.362 . S
H3328 C3334 0.930 . S
H3329 C3337 0.930 . S
H3330 C3338 0.930 . S
H3331 C3339 0.930 . S
H3332 C3342 0.930 . S
H3333 C3343 0.930 . S
C3334 H3328 0.930 . S
C3334 C3335 1.355 . S
C3334 C3336 1.415 . S
C3335 C3334 1.355 . S
C3335 C3337 1.419 . S
C3336 C3334 1.415 . S
C3336 C3341 1.425 . S
C3336 C3343 1.409 . S
C3337 H3329 0.930 . S
C3337 C3335 1.419 . S
C3337 C3338 1.362 . S
C3338 H3330 0.930 . S
C3338 C3337 1.362 . S
C3338 C3341 1.409 . S
C3339 H3331 0.930 . S
C3339 C3340 1.355 . S
C3339 C3341 1.415 . S
C3340 C3339 1.355 . S
C3340 C3342 1.419 . S
C3341 C3336 1.425 . S
C3341 C3338 1.409 . S
C3341 C3339 1.415 . S
C3342 H3332 0.930 . S
C3342 C3340 1.419 . S
C3342 C3343 1.362 . S
C3343 H3333 0.930 . S
C3343 C3336 1.409 . S
C3343 C3342 1.362 . S
H3344 C3350 0.930 . S
H3345 C3353 0.930 . S
H3346 C3354 0.930 . S
H3347 C3355 0.930 . S
H3348 C3358 0.930 . S
H3349 C3359 0.930 . S
C3350 H3344 0.930 . S
C3350 C3351 1.355 . S
C3350 C3352 1.415 . S
C3351 C3350 1.355 . S
C3351 C3353 1.419 . S
C3352 C3350 1.415 . S
C3352 C3357 1.425 . S
C3352 C3359 1.409 . S
C3353 H3345 0.930 . S
C3353 C3351 1.419 . S
C3353 C3354 1.362 . S
C3354 H3346 0.930 . S
C3354 C3353 1.362 . S
C3354 C3357 1.409 . S
C3355 H3347 0.930 . S
C3355 C3356 1.355 . S
C3355 C3357 1.415 . S
C3356 C3355 1.355 . S
C3356 C3358 1.419 . S
C3357 C3352 1.425 . S
C3357 C3354 1.409 . S
C3357 C3355 1.415 . S
C3358 H3348 0.930 . S
C3358 C3356 1.419 . S
C3358 C3359 1.362 . S
C3359 H3349 0.930 . S
C3359 C3352 1.409 . S
C3359 C3358 1.362 . S
H3360 C3366 0.930 . S
H3361 C3369 0.930 . S
H3362 C3370 0.930 . S
H3363 C3371 0.930 . S
H3364 C3374 0.930 . S
H3365 C3375 0.930 . S
C3366 H3360 0.930 . S
C3366 C3367 1.355 . S
C3366 C3368 1.415 . S
C3367 C3366 1.355 . S
C3367 C3369 1.419 . S
C3368 C3366 1.415 . S
C3368 C3373 1.425 . S
C3368 C3375 1.409 . S
C3369 H3361 0.930 . S
C3369 C3367 1.419 . S
C3369 C3370 1.362 . S
C3370 H3362 0.930 . S
C3370 C3369 1.362 . S
C3370 C3373 1.409 . S
C3371 H3363 0.930 . S
C3371 C3372 1.355 . S
C3371 C3373 1.415 . S
C3372 C3371 1.355 . S
C3372 C3374 1.419 . S
C3373 C3368 1.425 . S
C3373 C3370 1.409 . S
C3373 C3371 1.415 . S
C3374 H3364 0.930 . S
C3374 C3372 1.419 . S
C3374 C3375 1.362 . S
C3375 H3365 0.930 . S
C3375 C3368 1.409 . S
C3375 C3374 1.362 . S
H3376 C3382 0.930 . S
H3377 C3385 0.930 . S
H3378 C3386 0.930 . S
H3379 C3387 0.930 . S
H3380 C3390 0.930 . S
H3381 C3391 0.930 . S
C3382 H3376 0.930 . S
C3382 C3383 1.355 . S
C3382 C3384 1.415 . S
C3383 C3382 1.355 . S
C3383 C3385 1.419 . S
C3384 C3382 1.415 . S
C3384 C3389 1.425 . S
C3384 C3391 1.409 . S
C3385 H3377 0.930 . S
C3385 C3383 1.419 . S
C3385 C3386 1.362 . S
C3386 H3378 0.930 . S
C3386 C3385 1.362 . S
C3386 C3389 1.409 . S
C3387 H3379 0.930 . S
C3387 C3388 1.355 . S
C3387 C3389 1.415 . S
C3388 C3387 1.355 . S
C3388 C3390 1.419 . S
C3389 C3384 1.425 . S
C3389 C3386 1.409 . S
C3389 C3387 1.415 . S
C3390 H3380 0.930 . S
C3390 C3388 1.419 . S
C3390 C3391 1.362 . S
C3391 H3381 0.930 . S
C3391 C3384 1.409 . S
C3391 C3390 1.362 . S
H3392 C3398 0.930 . S
H3393 C3401 0.930 . S
H3394 C3402 0.930 . S
H3395 C3403 0.930 . S
H3396 C3406 0.930 . S
H3397 C3407 0.930 . S
C3398 H3392 0.930 . S
C3398 C3399 1.355 . S
C3398 C3400 1.415 . S
C3399 C3398 1.355 . S
C3399 C3401 1.419 . S
C3400 C3398 1.415 . S
C3400 C3405 1.425 . S
C3400 C3407 1.409 . S
C3401 H3393 0.930 . S
C3401 C3399 1.419 . S
C3401 C3402 1.362 . S
C3402 H3394 0.930 . S
C3402 C3401 1.362 . S
C3402 C3405 1.409 . S
C3403 H3395 0.930 . S
C3403 C3404 1.355 . S
C3403 C3405 1.415 . S
C3404 C3403 1.355 . S
C3404 C3406 1.419 . S
C3405 C3400 1.425 . S
C3405 C3402 1.409 . S
C3405 C3403 1.415 . S
C3406 H3396 0.930 . S
C3406 C3404 1.419 . S
C3406 C3407 1.362 . S
C3407 H3397 0.930 . S
C3407 C3400 1.409 . S
C3407 C3406 1.362 . S
H3408 C3414 0.930 . S
H3409 C3417 0.930 . S
H3410 C3418 0.930 . S
H3411 C3419 0.930 . S
H3412 C3422 0.930 . S
H3413 C3423 0.930 . S
C3414 H3408 0.930 . S
C3414 C3415 1.355 . S
C3414 C3416 1.415 . S
C3415 C3414 1.355 . S
C3415 C3417 1.419 . S
C3416 C3414 1.415 . S
C3416 C3421 1.425 . S
C3416 C3423 1.409 . S
C3417 H3409 0.930 . S
C3417 C3415 1.419 . S
C3417 C3418 1.362 . S
C3418 H3410 0.930 . S
C3418 C3417 1.362 . S
C3418 C3421 1.409 . S
C3419 H3411 0.930 . S
C3419 C3420 1.355 . S
C3419 C3421 1.415 . S
C3420 C3419 1.355 . S
C3420 C3422 1.419 . S
C3421 C3416 1.425 . S
C3421 C3418 1.409 . S
C3421 C3419 1.415 . S
C3422 H3412 0.930 . S
C3422 C3420 1.419 . S
C3422 C3423 1.362 . S
C3423 H3413 0.930 . S
C3423 C3416 1.409 . S
C3423 C3422 1.362 . S
H3424 C3430 0.930 . S
H3425 C3433 0.930 . S
H3426 C3434 0.930 . S
H3427 C3435 0.930 . S
H3428 C3438 0.930 . S
H3429 C3439 0.930 . S
C3430 H3424 0.930 . S
C3430 C3431 1.355 . S
C3430 C3432 1.415 . S
C3431 C3430 1.355 . S
C3431 C3433 1.419 . S
C3432 C3430 1.415 . S
C3432 C3437 1.425 . S
C3432 C3439 1.409 . S
C3433 H3425 0.930 . S
C3433 C3431 1.419 . S
C3433 C3434 1.362 . S
C3434 H3426 0.930 . S
C3434 C3433 1.362 . S
C3434 C3437 1.409 . S
C3435 H3427 0.930 . S
C3435 C3436 1.355 . S
C3435 C3437 1.415 . S
C3436 C3435 1.355 . S
C3436 C3438 1.419 . S
C3437 C3432 1.425 . S
C3437 C3434 1.409 . S
C3437 C3435 1.415 . S
C3438 H3428 0.930 . S
C3438 C3436 1.419 . S
C3438 C3439 1.362 . S
C3439 H3429 0.930 . S
C3439 C3432 1.409 . S
C3439 C3438 1.362 . S
H3440 C3446 0.930 . S
H3441 C3449 0.930 . S
H3442 C3450 0.930 . S
H3443 C3451 0.930 . S
H3444 C3454 0.930 . S
H3445 C3455 0.930 . S
C3446 H3440 0.930 . S
C3446 C3447 1.355 . S
C3446 C3448 1.415 . S
C3447 C3446 1.355 . S
C3447 C3449 1.419 . S
C3448 C3446 1.415 . S
C3448 C3453 1.425 . S
C3448 C3455 1.409 . S
C3449 H3441 0.930 . S
C3449 C3447 1.419 . S
C3449 C3450 1.362 . S
C3450 H3442 0.930 . S
C3450 C3449 1.362 . S
C3450 C3453 1.409 . S
C3451 H3443 0.930 . S
C3451 C3452 1.355 . S
C3451 C3453 1.415 . S
C3452 C3451 1.355 . S
C3452 C3454 1.419 . S
C3453 C3448 1.425 . S
C3453 C3450 1.409 . S
C3453 C3451 1.415 . S
C3454 H3444 0.930 . S
C3454 C3452 1.419 . S
C3454 C3455 1.362 . S
C3455 H3445 0.930 . S
C3455 C3448 1.409 . S
C3455 C3454 1.362 . S
H3456 C3462 0.930 . S
H3457 C3465 0.930 . S
H3458 C3466 0.930 . S
H3459 C3467 0.930 . S
H3460 C3470 0.930 . S
H3461 C3471 0.930 . S
C3462 H3456 0.930 . S
C3462 C3463 1.355 . S
C3462 C3464 1.415 . S
C3463 C3462 1.355 . S
C3463 C3465 1.419 . S
C3464 C3462 1.415 . S
C3464 C3469 1.425 . S
C3464 C3471 1.409 . S
C3465 H3457 0.930 . S
C3465 C3463 1.419 . S
C3465 C3466 1.362 . S
C3466 H3458 0.930 . S
C3466 C3465 1.362 . S
C3466 C3469 1.409 . S
C3467 H3459 0.930 . S
C3467 C3468 1.355 . S
C3467 C3469 1.415 . S
C3468 C3467 1.355 . S
C3468 C3470 1.419 . S
C3469 C3464 1.425 . S
C3469 C3466 1.409 . S
C3469 C3467 1.415 . S
C3470 H3460 0.930 . S
C3470 C3468 1.419 . S
C3470 C3471 1.362 . S
C3471 H3461 0.930 . S
C3471 C3464 1.409 . S
C3471 C3470 1.362 . S
H3472 C3478 0.930 . S
H3473 C3481 0.930 . S
H3474 C3482 0.930 . S
H3475 C3483 0.930 . S
H3476 C3486 0.930 . S
H3477 C3487 0.930 . S
C3478 H3472 0.930 . S
C3478 C3479 1.355 . S
C3478 C3480 1.415 . S
C3479 C3478 1.355 . S
C3479 C3481 1.419 . S
C3480 C3478 1.415 . S
C3480 C3485 1.425 . S
C3480 C3487 1.409 . S
C3481 H3473 0.930 . S
C3481 C3479 1.419 . S
C3481 C3482 1.362 . S
C3482 H3474 0.930 . S
C3482 C3481 1.362 . S
C3482 C3485 1.409 . S
C3483 H3475 0.930 . S
C3483 C3484 1.355 . S
C3483 C3485 1.415 . S
C3484 C3483 1.355 . S
C3484 C3486 1.419 . S
C3485 C3480 1.425 . S
C3485 C3482 1.409 . S
C3485 C3483 1.415 . S
C3486 H3476 0.930 . S
C3486 C3484 1.419 . S
C3486 C3487 1.362 . S
C3487 H3477 0.930 . S
C3487 C3480 1.409 . S
C3487 C3486 1.362 . S
H3488 C3494 0.930 . S
H3489 C3497 0.930 . S
H3490 C3498 0.930 . S
H3491 C3499 0.930 . S
H3492 C3502 0.930 . S
H3493 C3503 0.930 . S
C3494 H3488 0.930 . S
C3494 C3495 1.355 . S
C3494 C3496 1.415 . S
C3495 C3494 1.355 . S
C3495 C3497 1.419 . S
C3496 C3494 1.415 . S
C3496 C3501 1.425 . S
C3496 C3503 1.409 . S
C3497 H3489 0.930 . S
C3497 C3495 1.419 . S
C3497 C3498 1.362 . S
C3498 H3490 0.930 . S
C3498 C3497 1.362 . S
C3498 C3501 1.409 . S
C3499 H3491 0.930 . S
C3499 C3500 1.355 . S
C3499 C3501 1.415 . S
C3500 C3499 1.355 . S
C3500 C3502 1.419 . S
C3501 C3496 1.425 . S
C3501 C3498 1.409 . S
C3501 C3499 1.415 . S
C3502 H3492 0.930 . S
C3502 C3500 1.419 . S
C3502 C3503 1.362 . S
C3503 H3493 0.930 . S
C3503 C3496 1.409 . S
C3503 C3502 1.362 . S
H3504 C3510 0.930 . S
H3505 C3513 0.930 . S
H3506 C3514 0.930 . S
H3507 C3515 0.930 . S
H3508 C3518 0.930 . S
H3509 C3519 0.930 . S
C3510 H3504 0.930 . S
C3510 C3511 1.355 . S
C3510 C3512 1.415 . S
C3511 C3510 1.355 . S
C3511 C3513 1.419 . S
C3512 C3510 1.415 . S
C3512 C3517 1.425 . S
C3512 C3519 1.409 . S
C3513 H3505 0.930 . S
C3513 C3511 1.419 . S
C3513 C3514 1.362 . S
C3514 H3506 0.930 . S
C3514 C3513 1.362 . S
C3514 C3517 1.409 . S
C3515 H3507 0.930 . S
C3515 C3516 1.355 . S
C3515 C3517 1.415 . S
C3516 C3515 1.355 . S
C3516 C3518 1.419 . S
C3517 C3512 1.425 . S
C3517 C3514 1.409 . S
C3517 C3515 1.415 . S
C3518 H3508 0.930 . S
C3518 C3516 1.419 . S
C3518 C3519 1.362 . S
C3519 H3509 0.930 . S
C3519 C3512 1.409 . S
C3519 C3518 1.362 . S
H3520 C3526 0.930 . S
H3521 C3529 0.930 . S
H3522 C3530 0.930 . S
H3523 C3531 0.930 . S
H3524 C3534 0.930 . S
H3525 C3535 0.930 . S
C3526 H3520 0.930 . S
C3526 C3527 1.355 . S
C3526 C3528 1.415 . S
C3527 C3526 1.355 . S
C3527 C3529 1.419 . S
C3528 C3526 1.415 . S
C3528 C3533 1.425 . S
C3528 C3535 1.409 . S
C3529 H3521 0.930 . S
C3529 C3527 1.419 . S
C3529 C3530 1.362 . S
C3530 H3522 0.930 . S
C3530 C3529 1.362 . S
C3530 C3533 1.409 . S
C3531 H3523 0.930 . S
C3531 C3532 1.355 . S
C3531 C3533 1.415 . S
C3532 C3531 1.355 . S
C3532 C3534 1.419 . S
C3533 C3528 1.425 . S
C3533 C3530 1.409 . S
C3533 C3531 1.415 . S
C3534 H3524 0.930 . S
C3534 C3532 1.419 . S
C3534 C3535 1.362 . S
C3535 H3525 0.930 . S
C3535 C3528 1.409 . S
C3535 C3534 1.362 . S
H3536 C3542 0.930 . S
H3537 C3545 0.930 . S
H3538 C3546 0.930 . S
H3539 C3547 0.930 . S
H3540 C3550 0.930 . S
H3541 C3551 0.930 . S
C3542 H3536 0.930 . S
C3542 C3543 1.355 . S
C3542 C3544 1.415 . S
C3543 C3542 1.355 . S
C3543 C3545 1.419 . S
C3544 C3542 1.415 . S
C3544 C3549 1.425 . S
C3544 C3551 1.409 . S
C3545 H3537 0.930 . S
C3545 C3543 1.419 . S
C3545 C3546 1.362 . S
C3546 H3538 0.930 . S
C3546 C3545 1.362 . S
C3546 C3549 1.409 . S
C3547 H3539 0.930 . S
C3547 C3548 1.355 . S
C3547 C3549 1.415 . S
C3548 C3547 1.355 . S
C3548 C3550 1.419 . S
C3549 C3544 1.425 . S
C3549 C3546 1.409 . S
C3549 C3547 1.415 . S
C3550 H3540 0.930 . S
C3550 C3548 1.419 . S
C3550 C3551 1.362 . S
C3551 H3541 0.930 . S
C3551 C3544 1.409 . S
C3551 C3550 1.362 . S
H3552 C3558 0.930 . S
H3553 C3561 0.930 . S
H3554 C3562 0.930 . S
H3555 C3563 0.930 . S
H3556 C3566 0.930 . S
H3557 C3567 0.930 . S
C3558 H3552 0.930 . S
C3558 C3559 1.355 . S
C3558 C3560 1.415 . S
C3559 C3558 1.355 . S
C3559 C3561 1.419 . S
C3560 C3558 1.415 . S
C3560 C3565 1.425 . S
C3560 C3567 1.409 . S
C3561 H3553 0.930 . S
C3561 C3559 1.419 . S
C3561 C3562 1.362 . S
C3562 H3554 0.930 . S
C3562 C3561 1.362 . S
C3562 C3565 1.409 . S
C3563 H3555 0.930 . S
C3563 C3564 1.355 . S
C3563 C3565 1.415 . S
C3564 C3563 1.355 . S
C3564 C3566 1.419 . S
C3565 C3560 1.425 . S
C3565 C3562 1.409 . S
C3565 C3563 1.415 . S
C3566 H3556 0.930 . S
C3566 C3564 1.419 . S
C3566 C3567 1.362 . S
C3567 H3557 0.930 . S
C3567 C3560 1.409 . S
C3567 C3566 1.362 . S
H3568 C3574 0.930 . S
H3569 C3577 0.930 . S
H3570 C3578 0.930 . S
H3571 C3579 0.930 . S
H3572 C3582 0.930 . S
H3573 C3583 0.930 . S
C3574 H3568 0.930 . S
C3574 C3575 1.355 . S
C3574 C3576 1.415 . S
C3575 C3574 1.355 . S
C3575 C3577 1.419 . S
C3576 C3574 1.415 . S
C3576 C3581 1.425 . S
C3576 C3583 1.409 . S
C3577 H3569 0.930 . S
C3577 C3575 1.419 . S
C3577 C3578 1.362 . S
C3578 H3570 0.930 . S
C3578 C3577 1.362 . S
C3578 C3581 1.409 . S
C3579 H3571 0.930 . S
C3579 C3580 1.355 . S
C3579 C3581 1.415 . S
C3580 C3579 1.355 . S
C3580 C3582 1.419 . S
C3581 C3576 1.425 . S
C3581 C3578 1.409 . S
C3581 C3579 1.415 . S
C3582 H3572 0.930 . S
C3582 C3580 1.419 . S
C3582 C3583 1.362 . S
C3583 H3573 0.930 . S
C3583 C3576 1.409 . S
C3583 C3582 1.362 . S
H3584 C3590 0.930 . S
H3585 C3593 0.930 . S
H3586 C3594 0.930 . S
H3587 C3595 0.930 . S
H3588 C3598 0.930 . S
H3589 C3599 0.930 . S
C3590 H3584 0.930 . S
C3590 C3591 1.355 . S
C3590 C3592 1.415 . S
C3591 C3590 1.355 . S
C3591 C3593 1.419 . S
C3592 C3590 1.415 . S
C3592 C3597 1.425 . S
C3592 C3599 1.409 . S
C3593 H3585 0.930 . S
C3593 C3591 1.419 . S
C3593 C3594 1.362 . S
C3594 H3586 0.930 . S
C3594 C3593 1.362 . S
C3594 C3597 1.409 . S
C3595 H3587 0.930 . S
C3595 C3596 1.355 . S
C3595 C3597 1.415 . S
C3596 C3595 1.355 . S
C3596 C3598 1.419 . S
C3597 C3592 1.425 . S
C3597 C3594 1.409 . S
C3597 C3595 1.415 . S
C3598 H3588 0.930 . S
C3598 C3596 1.419 . S
C3598 C3599 1.362 . S
C3599 H3589 0.930 . S
C3599 C3592 1.409 . S
C3599 C3598 1.362 . S
H3600 C3606 0.930 . S
H3601 C3609 0.930 . S
H3602 C3610 0.930 . S
H3603 C3611 0.930 . S
H3604 C3614 0.930 . S
H3605 C3615 0.930 . S
C3606 H3600 0.930 . S
C3606 C3607 1.355 . S
C3606 C3608 1.415 . S
C3607 C3606 1.355 . S
C3607 C3609 1.419 . S
C3608 C3606 1.415 . S
C3608 C3613 1.425 . S
C3608 C3615 1.409 . S
C3609 H3601 0.930 . S
C3609 C3607 1.419 . S
C3609 C3610 1.362 . S
C3610 H3602 0.930 . S
C3610 C3609 1.362 . S
C3610 C3613 1.409 . S
C3611 H3603 0.930 . S
C3611 C3612 1.355 . S
C3611 C3613 1.415 . S
C3612 C3611 1.355 . S
C3612 C3614 1.419 . S
C3613 C3608 1.425 . S
C3613 C3610 1.409 . S
C3613 C3611 1.415 . S
C3614 H3604 0.930 . S
C3614 C3612 1.419 . S
C3614 C3615 1.362 . S
C3615 H3605 0.930 . S
C3615 C3608 1.409 . S
C3615 C3614 1.362 . S
H3616 C3622 0.930 . S
H3617 C3625 0.930 . S
H3618 C3626 0.930 . S
H3619 C3627 0.930 . S
H3620 C3630 0.930 . S
H3621 C3631 0.930 . S
C3622 H3616 0.930 . S
C3622 C3623 1.355 . S
C3622 C3624 1.415 . S
C3623 C3622 1.355 . S
C3623 C3625 1.419 . S
C3624 C3622 1.415 . S
C3624 C3629 1.425 . S
C3624 C3631 1.409 . S
C3625 H3617 0.930 . S
C3625 C3623 1.419 . S
C3625 C3626 1.362 . S
C3626 H3618 0.930 . S
C3626 C3625 1.362 . S
C3626 C3629 1.409 . S
C3627 H3619 0.930 . S
C3627 C3628 1.355 . S
C3627 C3629 1.415 . S
C3628 C3627 1.355 . S
C3628 C3630 1.419 . S
C3629 C3624 1.425 . S
C3629 C3626 1.409 . S
C3629 C3627 1.415 . S
C3630 H3620 0.930 . S
C3630 C3628 1.419 . S
C3630 C3631 1.362 . S
C3631 H3621 0.930 . S
C3631 C3624 1.409 . S
C3631 C3630 1.362 . S
H3632 C3638 0.930 . S
H3633 C3641 0.930 . S
H3634 C3642 0.930 . S
H3635 C3643 0.930 . S
H3636 C3646 0.930 . S
H3637 C3647 0.930 . S
C3638 H3632 0.930 . S
C3638 C3639 1.355 . S
C3638 C3640 1.415 . S
C3639 C3638 1.355 . S
C3639 C3641 1.419 . S
C3640 C3638 1.415 . S
C3640 C3645 1.425 . S
C3640 C3647 1.409 . S
C3641 H3633 0.930 . S
C3641 C3639 1.419 . S
C3641 C3642 1.362 . S
C3642 H3634 0.930 . S
C3642 C3641 1.362 . S
C3642 C3645 1.409 . S
C3643 H3635 0.930 . S
C3643 C3644 1.355 . S
C3643 C3645 1.415 . S
C3644 C3643 1.355 . S
C3644 C3646 1.419 . S
C3645 C3640 1.425 . S
C3645 C3642 1.409 . S
C3645 C3643 1.415 . S
C3646 H3636 0.930 . S
C3646 C3644 1.419 . S
C3646 C3647 1.362 . S
C3647 H3637 0.930 . S
C3647 C3640 1.409 . S
C3647 C3646 1.362 . S
H3648 C3654 0.930 . S
H3649 C3657 0.930 . S
H3650 C3658 0.965 . S
H3651 C3659 0.930 . S
H3652 C3662 0.930 . S
H3653 C3663 0.930 . S
C3654 H3648 0.930 . S
C3654 C3655 1.355 . S
C3654 C3656 1.415 . S
C3655 C3654 1.355 . S
C3655 C3657 1.419 . S
C3656 C3654 1.415 . S
C3656 C3661 1.425 1_455 S
C3656 C3663 1.409 . S
C3657 H3649 0.930 . S
C3657 C3655 1.419 . S
C3657 C3658 1.323 1_455 S
C3658 H3650 0.965 . S
C3658 C3657 1.323 1_655 S
C3658 C3661 1.417 . S
C3659 H3651 0.930 . S
C3659 C3660 1.355 . S
C3659 C3661 1.415 . S
C3660 C3659 1.355 . S
C3660 C3662 1.419 . S
C3661 C3656 1.425 1_655 S
C3661 C3658 1.417 . S
C3661 C3659 1.415 . S
C3662 H3652 0.930 . S
C3662 C3660 1.419 . S
C3662 C3663 1.362 1_655 S
C3663 H3653 0.930 . S
C3663 C3656 1.409 . S
C3663 C3662 1.362 1_455 S
H3664 C3670 0.930 . S
H3665 C3673 0.930 . S
H3666 C3674 0.930 . S
H3667 C3675 0.930 . S
H3668 C3678 0.930 . S
H3669 C3679 0.930 . S
C3670 H3664 0.930 . S
C3670 C3671 1.355 . S
C3670 C3672 1.415 . S
C3671 C3670 1.355 . S
C3671 C3673 1.419 . S
C3672 C3670 1.415 . S
C3672 C3677 1.425 . S
C3672 C3679 1.409 . S
C3673 H3665 0.930 . S
C3673 C3671 1.419 . S
C3673 C3674 1.362 . S
C3674 H3666 0.930 . S
C3674 C3673 1.362 . S
C3674 C3677 1.409 . S
C3675 H3667 0.930 . S
C3675 C3676 1.355 . S
C3675 C3677 1.415 . S
C3676 C3675 1.355 . S
C3676 C3678 1.419 . S
C3677 C3672 1.425 . S
C3677 C3674 1.409 . S
C3677 C3675 1.415 . S
C3678 H3668 0.930 . S
C3678 C3676 1.419 . S
C3678 C3679 1.362 . S
C3679 H3669 0.930 . S
C3679 C3672 1.409 . S
C3679 C3678 1.362 . S
H3680 C3686 0.930 . S
H3681 C3689 0.930 . S
H3682 C3690 0.930 . S
H3683 C3691 0.930 . S
H3684 C3694 0.930 . S
H3685 C3695 0.930 . S
C3686 H3680 0.930 . S
C3686 C3687 1.355 . S
C3686 C3688 1.415 . S
C3687 C3686 1.355 . S
C3687 C3689 1.419 . S
C3688 C3686 1.415 . S
C3688 C3693 1.425 . S
C3688 C3695 1.409 . S
C3689 H3681 0.930 . S
C3689 C3687 1.419 . S
C3689 C3690 1.362 . S
C3690 H3682 0.930 . S
C3690 C3689 1.362 . S
C3690 C3693 1.409 . S
C3691 H3683 0.930 . S
C3691 C3692 1.355 . S
C3691 C3693 1.415 . S
C3692 C3691 1.355 . S
C3692 C3694 1.419 . S
C3693 C3688 1.425 . S
C3693 C3690 1.409 . S
C3693 C3691 1.415 . S
C3694 H3684 0.930 . S
C3694 C3692 1.419 . S
C3694 C3695 1.362 . S
C3695 H3685 0.930 . S
C3695 C3688 1.409 . S
C3695 C3694 1.362 . S
H3696 C3702 0.930 . S
H3697 C3705 0.930 . S
H3698 C3706 0.930 . S
H3699 C3707 0.930 . S
H3700 C3710 0.930 . S
H3701 C3711 0.930 . S
C3702 H3696 0.930 . S
C3702 C3703 1.355 . S
C3702 C3704 1.415 . S
C3703 C3702 1.355 . S
C3703 C3705 1.419 . S
C3704 C3702 1.415 . S
C3704 C3709 1.425 1_556 S
C3704 C3711 1.409 . S
C3705 H3697 0.930 . S
C3705 C3703 1.419 . S
C3705 C3706 1.362 1_556 S
C3706 H3698 0.930 . S
C3706 C3705 1.362 1_554 S
C3706 C3709 1.409 . S
C3707 H3699 0.930 . S
C3707 C3708 1.355 . S
C3707 C3709 1.415 . S
C3708 C3707 1.355 . S
C3708 C3710 1.419 . S
C3709 C3704 1.425 1_554 S
C3709 C3706 1.409 . S
C3709 C3707 1.415 . S
C3710 H3700 0.930 . S
C3710 C3708 1.419 . S
C3710 C3711 1.362 1_554 S
C3711 H3701 0.930 . S
C3711 C3704 1.409 . S
C3711 C3710 1.362 1_556 S
H3712 C3718 0.909 1_455 S
H3713 C3721 0.930 . S
H3714 C3722 0.930 . S
H3715 C3723 0.930 . S
H3716 C3726 0.930 . S
H3717 C3727 0.930 . S
C3718 H3712 0.909 1_655 S
C3718 C3719 1.355 . S
C3718 C3720 1.415 1_655 S
C3719 C3718 1.355 . S
C3719 C3721 1.419 . S
C3720 C3718 1.415 1_455 S
C3720 C3725 1.410 1_455 S
C3720 C3727 1.409 . S
C3721 H3713 0.930 . S
C3721 C3719 1.419 . S
C3721 C3722 1.362 . S
C3722 H3714 0.930 . S
C3722 C3721 1.362 . S
C3722 C3725 1.447 . S
C3723 H3715 0.930 . S
C3723 C3724 1.355 . S
C3723 C3725 1.392 1_455 S
C3724 C3723 1.355 . S
C3724 C3726 1.419 . S
C3725 C3720 1.410 1_655 S
C3725 C3722 1.447 . S
C3725 C3723 1.392 1_655 S
C3726 H3716 0.930 . S
C3726 C3724 1.419 . S
C3726 C3727 1.362 . S
C3727 H3717 0.930 . S
C3727 C3720 1.409 . S
C3727 C3726 1.362 . S
H3728 C3734 0.930 . S
H3729 C3737 0.930 . S
H3730 C3738 0.930 . S
H3731 C3739 0.930 . S
H3732 C3742 0.930 . S
H3733 C3743 0.930 . S
C3734 H3728 0.930 . S
C3734 C3735 1.355 . S
C3734 C3736 1.415 . S
C3735 C3734 1.355 . S
C3735 C3737 1.419 . S
C3736 C3734 1.415 . S
C3736 C3741 1.425 . S
C3736 C3743 1.409 . S
C3737 H3729 0.930 . S
C3737 C3735 1.419 . S
C3737 C3738 1.362 . S
C3738 H3730 0.930 . S
C3738 C3737 1.362 . S
C3738 C3741 1.409 . S
C3739 H3731 0.930 . S
C3739 C3740 1.355 . S
C3739 C3741 1.415 . S
C3740 C3739 1.355 . S
C3740 C3742 1.419 . S
C3741 C3736 1.425 . S
C3741 C3738 1.409 . S
C3741 C3739 1.415 . S
C3742 H3732 0.930 . S
C3742 C3740 1.419 . S
C3742 C3743 1.362 . S
C3743 H3733 0.930 . S
C3743 C3736 1.409 . S
C3743 C3742 1.362 . S
H3744 C3750 0.930 . S
H3745 C3753 0.930 . S
H3746 C3754 0.930 . S
H3747 C3755 0.930 . S
H3748 C3758 0.930 . S
H3749 C3759 0.930 . S
C3750 H3744 0.930 . S
C3750 C3751 1.355 . S
C3750 C3752 1.415 . S
C3751 C3750 1.355 . S
C3751 C3753 1.419 . S
C3752 C3750 1.415 . S
C3752 C3757 1.425 . S
C3752 C3759 1.409 . S
C3753 H3745 0.930 . S
C3753 C3751 1.419 . S
C3753 C3754 1.362 . S
C3754 H3746 0.930 . S
C3754 C3753 1.362 . S
C3754 C3757 1.409 . S
C3755 H3747 0.930 . S
C3755 C3756 1.355 . S
C3755 C3757 1.415 . S
C3756 C3755 1.355 . S
C3756 C3758 1.419 . S
C3757 C3752 1.425 . S
C3757 C3754 1.409 . S
C3757 C3755 1.415 . S
C3758 H3748 0.930 . S
C3758 C3756 1.419 . S
C3758 C3759 1.362 . S
C3759 H3749 0.930 . S
C3759 C3752 1.409 . S
C3759 C3758 1.362 . S
H3760 C3766 0.930 . S
H3761 C3769 0.930 . S
H3762 C3770 0.930 . S
H3763 C3771 0.930 . S
H3764 C3774 0.930 . S
H3765 C3775 0.930 . S
C3766 H3760 0.930 . S
C3766 C3767 1.355 . S
C3766 C3768 1.415 . S
C3767 C3766 1.355 . S
C3767 C3769 1.419 . S
C3768 C3766 1.415 . S
C3768 C3773 1.425 1_556 S
C3768 C3775 1.409 . S
C3769 H3761 0.930 . S
C3769 C3767 1.419 . S
C3769 C3770 1.362 1_556 S
C3770 H3762 0.930 . S
C3770 C3769 1.362 1_554 S
C3770 C3773 1.409 . S
C3771 H3763 0.930 . S
C3771 C3772 1.355 . S
C3771 C3773 1.415 . S
C3772 C3771 1.355 . S
C3772 C3774 1.419 . S
C3773 C3768 1.425 1_554 S
C3773 C3770 1.409 . S
C3773 C3771 1.415 . S
C3774 H3764 0.930 . S
C3774 C3772 1.419 . S
C3774 C3775 1.362 1_554 S
C3775 H3765 0.930 . S
C3775 C3768 1.409 . S
C3775 C3774 1.362 1_556 S
H3776 C3782 0.930 . S
H3777 C3785 0.930 . S
H3778 C3786 0.930 . S
H3779 C3787 0.930 . S
H3780 C3790 0.930 . S
H3781 C3791 0.930 . S
C3782 H3776 0.930 . S
C3782 C3783 1.355 . S
C3782 C3784 1.415 . S
C3783 C3782 1.355 . S
C3783 C3785 1.419 . S
C3784 C3782 1.415 . S
C3784 C3789 1.425 1_545 S
C3784 C3791 1.409 . S
C3785 H3777 0.930 . S
C3785 C3783 1.419 . S
C3785 C3786 1.362 1_545 S
C3786 H3778 0.930 . S
C3786 C3785 1.362 1_565 S
C3786 C3789 1.409 . S
C3787 H3779 0.930 . S
C3787 C3788 1.355 . S
C3787 C3789 1.415 . S
C3788 C3787 1.355 . S
C3788 C3790 1.419 1_565 S
C3789 C3784 1.425 1_565 S
C3789 C3786 1.409 . S
C3789 C3787 1.415 . S
C3790 H3780 0.930 . S
C3790 C3788 1.419 1_545 S
C3790 C3791 1.362 . S
C3791 H3781 0.930 . S
C3791 C3784 1.409 . S
C3791 C3790 1.362 . S
H3792 C3798 0.930 . S
H3793 C3801 0.930 . S
H3794 C3802 0.930 . S
H3795 C3803 0.930 . S
H3796 C3806 0.930 . S
H3797 C3807 0.930 . S
C3798 H3792 0.930 . S
C3798 C3799 1.355 . S
C3798 C3800 1.415 1_545 S
C3799 C3798 1.355 . S
C3799 C3801 1.419 . S
C3800 C3798 1.415 1_565 S
C3800 C3805 1.425 . S
C3800 C3807 1.409 . S
C3801 H3793 0.930 . S
C3801 C3799 1.419 . S
C3801 C3802 1.362 1_545 S
C3802 H3794 0.930 . S
C3802 C3801 1.362 1_565 S
C3802 C3805 1.409 . S
C3803 H3795 0.930 . S
C3803 C3804 1.355 . S
C3803 C3805 1.415 . S
C3804 C3803 1.355 . S
C3804 C3806 1.419 . S
C3805 C3800 1.425 . S
C3805 C3802 1.409 . S
C3805 C3803 1.415 . S
C3806 H3796 0.930 . S
C3806 C3804 1.419 . S
C3806 C3807 1.362 . S
C3807 H3797 0.930 . S
C3807 C3800 1.409 . S
C3807 C3806 1.362 . S
H3808 C3814 0.930 . S
H3809 C3817 0.930 . S
H3810 C3818 0.930 . S
H3811 C3819 0.938 . S
H3812 C3822 0.930 . S
H3813 C3823 0.930 . S
C3814 H3808 0.930 . S
C3814 C3815 1.355 . S
C3814 C3816 1.415 . S
C3815 C3814 1.355 . S
C3815 C3817 1.419 . S
C3816 C3814 1.415 . S
C3816 C3821 1.425 . S
C3816 C3823 1.409 1_565 S
C3817 H3809 0.930 . S
C3817 C3815 1.419 . S
C3817 C3818 1.362 . S
C3818 H3810 0.930 . S
C3818 C3817 1.362 . S
C3818 C3821 1.409 . S
C3819 H3811 0.938 . S
C3819 C3820 1.355 . S
C3819 C3821 1.415 1_545 S
C3820 C3819 1.355 . S
C3820 C3822 1.419 . S
C3821 C3816 1.425 . S
C3821 C3818 1.409 . S
C3821 C3819 1.415 1_565 S
C3822 H3812 0.930 . S
C3822 C3820 1.419 . S
C3822 C3823 1.362 . S
C3823 H3813 0.930 . S
C3823 C3816 1.409 1_545 S
C3823 C3822 1.362 . S
H3824 C3830 0.930 . S
H3825 C3833 0.930 . S
H3826 C3834 0.930 . S
H3827 C3835 0.927 . S
H3828 C3838 0.930 . S
H3829 C3839 0.930 . S
C3830 H3824 0.930 . S
C3830 C3831 1.355 . S
C3830 C3832 1.415 . S
C3831 C3830 1.355 . S
C3831 C3833 1.419 . S
C3832 C3830 1.415 . S
C3832 C3837 1.425 . S
C3832 C3839 1.409 1_545 S
C3833 H3825 0.930 . S
C3833 C3831 1.419 . S
C3833 C3834 1.362 . S
C3834 H3826 0.930 . S
C3834 C3833 1.362 . S
C3834 C3837 1.409 . S
C3835 H3827 0.927 . S
C3835 C3836 1.360 1_545 S
C3835 C3837 1.412 . S
C3836 C3835 1.360 1_565 S
C3836 C3838 1.419 . S
C3837 C3832 1.425 . S
C3837 C3834 1.409 . S
C3837 C3835 1.412 . S
C3838 H3828 0.930 . S
C3838 C3836 1.419 . S
C3838 C3839 1.362 . S
C3839 H3829 0.930 . S
C3839 C3832 1.409 1_565 S
C3839 C3838 1.362 . S
H3840 C3846 0.930 . S
H3841 C3849 0.930 . S
H3842 C3850 0.930 . S
H3843 C3851 0.930 . S
H3844 C3854 0.930 . S
H3845 C3855 0.930 . S
C3846 H3840 0.930 . S
C3846 C3847 1.355 . S
C3846 C3848 1.415 . S
C3847 C3846 1.355 . S
C3847 C3849 1.419 . S
C3848 C3846 1.415 . S
C3848 C3853 1.425 1_554 S
C3848 C3855 1.409 . S
C3849 H3841 0.930 . S
C3849 C3847 1.419 . S
C3849 C3850 1.362 1_554 S
C3850 H3842 0.930 . S
C3850 C3849 1.362 1_556 S
C3850 C3853 1.409 . S
C3851 H3843 0.930 . S
C3851 C3852 1.355 . S
C3851 C3853 1.415 . S
C3852 C3851 1.355 . S
C3852 C3854 1.419 . S
C3853 C3848 1.425 1_556 S
C3853 C3850 1.409 . S
C3853 C3851 1.415 . S
C3854 H3844 0.930 . S
C3854 C3852 1.419 . S
C3854 C3855 1.362 1_556 S
C3855 H3845 0.930 . S
C3855 C3848 1.409 . S
C3855 C3854 1.362 1_554 S
H3856 C3862 0.930 1_655 S
H3857 C3865 0.930 . S
H3858 C3866 0.930 . S
H3859 C3867 0.930 . S
H3860 C3870 0.930 . S
H3861 C3871 0.930 . S
C3862 H3856 0.930 1_455 S
C3862 C3863 1.355 . S
C3862 C3864 1.415 1_455 S
C3863 C3862 1.355 . S
C3863 C3865 1.419 . S
C3864 C3862 1.415 1_655 S
C3864 C3869 1.425 1_655 S
C3864 C3871 1.409 . S
C3865 H3857 0.930 . S
C3865 C3863 1.419 . S
C3865 C3866 1.362 . S
C3866 H3858 0.930 . S
C3866 C3865 1.362 . S
C3866 C3869 1.409 . S
C3867 H3859 0.930 . S
C3867 C3868 1.355 . S
C3867 C3869 1.415 1_655 S
C3868 C3867 1.355 . S
C3868 C3870 1.419 . S
C3869 C3864 1.425 1_455 S
C3869 C3866 1.409 . S
C3869 C3867 1.415 1_455 S
C3870 H3860 0.930 . S
C3870 C3868 1.419 . S
C3870 C3871 1.362 . S
C3871 H3861 0.930 . S
C3871 C3864 1.409 . S
C3871 C3870 1.362 . S
H3872 C3878 0.930 . S
H3873 C3881 0.930 . S
H3874 C3882 0.930 . S
H3875 C3883 0.930 . S
H3876 C3886 0.930 . S
H3877 C3887 0.930 . S
C3878 H3872 0.930 . S
C3878 C3879 1.355 . S
C3878 C3880 1.415 . S
C3879 C3878 1.355 . S
C3879 C3881 1.419 . S
C3880 C3878 1.415 . S
C3880 C3885 1.425 . S
C3880 C3887 1.409 . S
C3881 H3873 0.930 . S
C3881 C3879 1.419 . S
C3881 C3882 1.362 . S
C3882 H3874 0.930 . S
C3882 C3881 1.362 . S
C3882 C3885 1.409 . S
C3883 H3875 0.930 . S
C3883 C3884 1.355 . S
C3883 C3885 1.415 . S
C3884 C3883 1.355 . S
C3884 C3886 1.419 . S
C3885 C3880 1.425 . S
C3885 C3882 1.409 . S
C3885 C3883 1.415 . S
C3886 H3876 0.930 . S
C3886 C3884 1.419 . S
C3886 C3887 1.362 . S
C3887 H3877 0.930 . S
C3887 C3880 1.409 . S
C3887 C3886 1.362 . S
H3888 C3894 0.930 . S
H3889 C3897 0.930 . S
H3890 C3898 0.930 . S
H3891 C3899 0.930 . S
H3892 C3902 0.930 . S
H3893 C3903 0.930 . S
C3894 H3888 0.930 . S
C3894 C3895 1.355 . S
C3894 C3896 1.415 . S
C3895 C3894 1.355 . S
C3895 C3897 1.419 . S
C3896 C3894 1.415 . S
C3896 C3901 1.425 1_655 S
C3896 C3903 1.409 . S
C3897 H3889 0.930 . S
C3897 C3895 1.419 . S
C3897 C3898 1.362 1_655 S
C3898 H3890 0.930 . S
C3898 C3897 1.362 1_455 S
C3898 C3901 1.409 . S
C3899 H3891 0.930 . S
C3899 C3900 1.355 . S
C3899 C3901 1.415 . S
C3900 C3899 1.355 . S
C3900 C3902 1.419 . S
C3901 C3896 1.425 1_455 S
C3901 C3898 1.409 . S
C3901 C3899 1.415 . S
C3902 H3892 0.930 . S
C3902 C3900 1.419 . S
C3902 C3903 1.362 1_455 S
C3903 H3893 0.930 . S
C3903 C3896 1.409 . S
C3903 C3902 1.362 1_655 S
H3904 C3910 0.930 . S
H3905 C3913 0.930 . S
H3906 C3914 0.930 . S
H3907 C3915 0.930 . S
H3908 C3918 0.930 . S
H3909 C3919 0.930 . S
C3910 H3904 0.930 . S
C3910 C3911 1.355 . S
C3910 C3912 1.415 . S
C3911 C3910 1.355 . S
C3911 C3913 1.419 . S
C3912 C3910 1.415 . S
C3912 C3917 1.425 . S
C3912 C3919 1.409 . S
C3913 H3905 0.930 . S
C3913 C3911 1.419 . S
C3913 C3914 1.362 . S
C3914 H3906 0.930 . S
C3914 C3913 1.362 . S
C3914 C3917 1.409 . S
C3915 H3907 0.930 . S
C3915 C3916 1.355 . S
C3915 C3917 1.415 . S
C3916 C3915 1.355 . S
C3916 C3918 1.419 . S
C3917 C3912 1.425 . S
C3917 C3914 1.409 . S
C3917 C3915 1.415 . S
C3918 H3908 0.930 . S
C3918 C3916 1.419 . S
C3918 C3919 1.362 . S
C3919 H3909 0.930 . S
C3919 C3912 1.409 . S
C3919 C3918 1.362 . S
H3920 C3926 0.930 . S
H3921 C3929 0.930 . S
H3922 C3930 0.930 . S
H3923 C3931 0.930 . S
H3924 C3934 0.930 . S
H3925 C3935 0.930 . S
C3926 H3920 0.930 . S
C3926 C3927 1.355 . S
C3926 C3928 1.415 . S
C3927 C3926 1.355 . S
C3927 C3929 1.419 . S
C3928 C3926 1.415 . S
C3928 C3933 1.425 1_655 S
C3928 C3935 1.409 . S
C3929 H3921 0.930 . S
C3929 C3927 1.419 . S
C3929 C3930 1.362 1_655 S
C3930 H3922 0.930 . S
C3930 C3929 1.362 1_455 S
C3930 C3933 1.409 . S
C3931 H3923 0.930 . S
C3931 C3932 1.355 . S
C3931 C3933 1.415 . S
C3932 C3931 1.355 . S
C3932 C3934 1.419 . S
C3933 C3928 1.425 1_455 S
C3933 C3930 1.409 . S
C3933 C3931 1.415 . S
C3934 H3924 0.930 . S
C3934 C3932 1.419 . S
C3934 C3935 1.362 1_455 S
C3935 H3925 0.930 . S
C3935 C3928 1.409 . S
C3935 C3934 1.362 1_655 S
H3936 C3942 0.930 . S
H3937 C3945 0.930 . S
H3938 C3946 0.930 . S
H3939 C3947 0.930 . S
H3940 C3950 0.930 . S
H3941 C3951 0.930 . S
C3942 H3936 0.930 . S
C3942 C3943 1.355 . S
C3942 C3944 1.415 . S
C3943 C3942 1.355 . S
C3943 C3945 1.419 . S
C3944 C3942 1.415 . S
C3944 C3949 1.425 . S
C3944 C3951 1.409 . S
C3945 H3937 0.930 . S
C3945 C3943 1.419 . S
C3945 C3946 1.362 . S
C3946 H3938 0.930 . S
C3946 C3945 1.362 . S
C3946 C3949 1.409 . S
C3947 H3939 0.930 . S
C3947 C3948 1.355 . S
C3947 C3949 1.415 . S
C3948 C3947 1.355 . S
C3948 C3950 1.419 . S
C3949 C3944 1.425 . S
C3949 C3946 1.409 . S
C3949 C3947 1.415 . S
C3950 H3940 0.930 . S
C3950 C3948 1.419 . S
C3950 C3951 1.362 . S
C3951 H3941 0.930 . S
C3951 C3944 1.409 . S
C3951 C3950 1.362 . S
H3952 C3958 0.930 . S
H3953 C3961 0.930 . S
H3954 C3962 0.930 . S
H3955 C3963 0.930 . S
H3956 C3966 0.930 . S
H3957 C3967 0.930 . S
C3958 H3952 0.930 . S
C3958 C3959 1.355 . S
C3958 C3960 1.415 . S
C3959 C3958 1.355 . S
C3959 C3961 1.419 . S
C3960 C3958 1.415 . S
C3960 C3965 1.425 . S
C3960 C3967 1.409 . S
C3961 H3953 0.930 . S
C3961 C3959 1.419 . S
C3961 C3962 1.362 . S
C3962 H3954 0.930 . S
C3962 C3961 1.362 . S
C3962 C3965 1.409 . S
C3963 H3955 0.930 . S
C3963 C3964 1.355 . S
C3963 C3965 1.415 . S
C3964 C3963 1.355 . S
C3964 C3966 1.419 . S
C3965 C3960 1.425 . S
C3965 C3962 1.409 . S
C3965 C3963 1.415 . S
C3966 H3956 0.930 . S
C3966 C3964 1.419 . S
C3966 C3967 1.362 . S
C3967 H3957 0.930 . S
C3967 C3960 1.409 . S
C3967 C3966 1.362 . S
H3968 C3974 0.930 . S
H3969 C3977 0.930 . S
H3970 C3978 0.930 . S
H3971 C3979 0.930 . S
H3972 C3982 0.930 . S
H3973 C3983 0.930 . S
C3974 H3968 0.930 . S
C3974 C3975 1.355 . S
C3974 C3976 1.415 1_554 S
C3975 C3974 1.355 . S
C3975 C3977 1.419 . S
C3976 C3974 1.415 1_556 S
C3976 C3981 1.425 . S
C3976 C3983 1.409 . S
C3977 H3969 0.930 . S
C3977 C3975 1.419 . S
C3977 C3978 1.362 1_554 S
C3978 H3970 0.930 . S
C3978 C3977 1.362 1_556 S
C3978 C3981 1.409 . S
C3979 H3971 0.930 . S
C3979 C3980 1.355 . S
C3979 C3981 1.415 . S
C3980 C3979 1.355 . S
C3980 C3982 1.419 . S
C3981 C3976 1.425 . S
C3981 C3978 1.409 . S
C3981 C3979 1.415 . S
C3982 H3972 0.930 . S
C3982 C3980 1.419 . S
C3982 C3983 1.362 . S
C3983 H3973 0.930 . S
C3983 C3976 1.409 . S
C3983 C3982 1.362 . S
H3984 C3990 0.930 . S
H3985 C3993 0.930 . S
H3986 C3994 0.930 . S
H3987 C3995 0.930 . S
H3988 C3998 0.930 . S
H3989 C3999 0.930 . S
C3990 H3984 0.930 . S
C3990 C3991 1.355 . S
C3990 C3992 1.415 1_655 S
C3991 C3990 1.355 . S
C3991 C3993 1.419 . S
C3992 C3990 1.415 1_455 S
C3992 C3997 1.425 1_455 S
C3992 C3999 1.409 . S
C3993 H3985 0.930 . S
C3993 C3991 1.419 . S
C3993 C3994 1.362 . S
C3994 H3986 0.930 . S
C3994 C3993 1.362 . S
C3994 C3997 1.409 . S
C3995 H3987 0.930 . S
C3995 C3996 1.355 . S
C3995 C3997 1.415 1_455 S
C3996 C3995 1.355 . S
C3996 C3998 1.419 . S
C3997 C3992 1.425 1_655 S
C3997 C3994 1.409 . S
C3997 C3995 1.415 1_655 S
C3998 H3988 0.930 . S
C3998 C3996 1.419 . S
C3998 C3999 1.362 . S
C3999 H3989 0.930 . S
C3999 C3992 1.409 . S
C3999 C3998 1.362 . S
H4000 C4006 0.930 . S
H4001 C4009 0.930 . S
H4002 C4010 0.930 . S
H4003 C4011 0.930 . S
H4004 C4014 0.930 . S
H4005 C4015 0.930 . S
C4006 H4000 0.930 . S
C4006 C4007 1.355 . S
C4006 C4008 1.415 . S
C4007 C4006 1.355 . S
C4007 C4009 1.419 . S
C4008 C4006 1.415 . S
C4008 C4013 1.425 . S
C4008 C4015 1.409 . S
C4009 H4001 0.930 . S
C4009 C4007 1.419 . S
C4009 C4010 1.362 . S
C4010 H4002 0.930 . S
C4010 C4009 1.362 . S
C4010 C4013 1.409 . S
C4011 H4003 0.930 . S
C4011 C4012 1.355 . S
C4011 C4013 1.415 . S
C4012 C4011 1.355 . S
C4012 C4014 1.419 . S
C4013 C4008 1.425 . S
C4013 C4010 1.409 . S
C4013 C4011 1.415 . S
C4014 H4004 0.930 . S
C4014 C4012 1.419 . S
C4014 C4015 1.362 . S
C4015 H4005 0.930 . S
C4015 C4008 1.409 . S
C4015 C4014 1.362 . S
H4016 C4022 0.930 . S
H4017 C4025 0.930 . S
H4018 C4026 0.930 . S
H4019 C4027 0.930 . S
H4020 C4030 0.930 . S
H4021 C4031 0.930 . S
C4022 H4016 0.930 . S
C4022 C4023 1.355 . S
C4022 C4024 1.415 . S
C4023 C4022 1.355 . S
C4023 C4025 1.419 . S
C4024 C4022 1.415 . S
C4024 C4029 1.425 . S
C4024 C4031 1.409 . S
C4025 H4017 0.930 . S
C4025 C4023 1.419 . S
C4025 C4026 1.362 . S
C4026 H4018 0.930 . S
C4026 C4025 1.362 . S
C4026 C4029 1.409 . S
C4027 H4019 0.930 . S
C4027 C4028 1.355 . S
C4027 C4029 1.415 . S
C4028 C4027 1.355 . S
C4028 C4030 1.419 . S
C4029 C4024 1.425 . S
C4029 C4026 1.409 . S
C4029 C4027 1.415 . S
C4030 H4020 0.930 . S
C4030 C4028 1.419 . S
C4030 C4031 1.362 . S
C4031 H4021 0.930 . S
C4031 C4024 1.409 . S
C4031 C4030 1.362 . S
H4032 C4038 0.930 . S
H4033 C4041 0.930 . S
H4034 C4042 0.930 1_556 S
H4035 C4043 0.930 . S
H4036 C4046 0.930 . S
H4037 C4047 0.930 . S
C4038 H4032 0.930 . S
C4038 C4039 1.355 . S
C4038 C4040 1.415 . S
C4039 C4038 1.355 . S
C4039 C4041 1.419 . S
C4040 C4038 1.415 . S
C4040 C4045 1.425 . S
C4040 C4047 1.409 . S
C4041 H4033 0.930 . S
C4041 C4039 1.419 . S
C4041 C4042 1.362 . S
C4042 H4034 0.930 1_554 S
C4042 C4041 1.362 . S
C4042 C4045 1.409 . S
C4043 H4035 0.930 . S
C4043 C4044 1.355 . S
C4043 C4045 1.415 1_556 S
C4044 C4043 1.355 . S
C4044 C4046 1.419 . S
C4045 C4040 1.425 . S
C4045 C4042 1.409 . S
C4045 C4043 1.415 1_554 S
C4046 H4036 0.930 . S
C4046 C4044 1.419 . S
C4046 C4047 1.362 1_556 S
C4047 H4037 0.930 . S
C4047 C4040 1.409 . S
C4047 C4046 1.362 1_554 S
H4048 C4054 0.930 . S
H4049 C4057 0.930 . S
H4050 C4058 0.930 . S
H4051 C4059 0.930 1_565 S
H4052 C4062 0.930 . S
H4053 C4063 0.930 . S
C4054 H4048 0.930 . S
C4054 C4055 1.355 . S
C4054 C4056 1.415 . S
C4055 C4054 1.355 . S
C4055 C4057 1.419 . S
C4056 C4054 1.415 . S
C4056 C4061 1.425 . S
C4056 C4063 1.409 1_565 S
C4057 H4049 0.930 . S
C4057 C4055 1.419 . S
C4057 C4058 1.362 . S
C4058 H4050 0.930 . S
C4058 C4057 1.362 . S
C4058 C4061 1.409 . S
C4059 H4051 0.930 1_545 S
C4059 C4060 1.355 . S
C4059 C4061 1.415 1_545 S
C4060 C4059 1.355 . S
C4060 C4062 1.419 . S
C4061 C4056 1.425 . S
C4061 C4058 1.409 . S
C4061 C4059 1.415 1_565 S
C4062 H4052 0.930 . S
C4062 C4060 1.419 . S
C4062 C4063 1.362 . S
C4063 H4053 0.930 . S
C4063 C4056 1.409 1_545 S
C4063 C4062 1.362 . S
H4064 C4070 0.906 1_545 S
H4065 C4073 0.930 . S
H4066 C4074 0.930 . S
H4067 C4075 0.930 . S
H4068 C4078 0.930 . S
H4069 C4079 0.930 . S
C4070 H4064 0.906 1_565 S
C4070 C4071 1.413 . S
C4070 C4072 1.382 1_565 S
C4071 C4070 1.413 . S
C4071 C4073 1.419 . S
C4072 C4070 1.382 1_545 S
C4072 C4077 1.425 . S
C4072 C4079 1.409 . S
C4073 H4065 0.930 . S
C4073 C4071 1.419 . S
C4073 C4074 1.362 . S
C4074 H4066 0.930 . S
C4074 C4073 1.362 . S
C4074 C4077 1.409 1_565 S
C4075 H4067 0.930 . S
C4075 C4076 1.355 . S
C4075 C4077 1.415 . S
C4076 C4075 1.355 . S
C4076 C4078 1.419 . S
C4077 C4072 1.425 . S
C4077 C4074 1.409 1_545 S
C4077 C4075 1.415 . S
C4078 H4068 0.930 . S
C4078 C4076 1.419 . S
C4078 C4079 1.362 . S
C4079 H4069 0.930 . S
C4079 C4072 1.409 . S
C4079 C4078 1.362 . S
H4080 C4086 0.930 . S
H4081 C4089 0.930 . S
H4082 C4090 0.930 . S
H4083 C4091 0.930 . S
H4084 C4094 0.930 . S
H4085 C4095 0.930 1_565 S
C4086 H4080 0.930 . S
C4086 C4087 1.355 . S
C4086 C4088 1.414 . S
C4087 C4086 1.355 . S
C4087 C4089 1.419 . S
C4088 C4086 1.414 . S
C4088 C4093 1.426 1_565 S
C4088 C4095 1.409 1_565 S
C4089 H4081 0.930 . S
C4089 C4087 1.419 . S
C4089 C4090 1.362 1_565 S
C4090 H4082 0.930 . S
C4090 C4089 1.362 1_545 S
C4090 C4093 1.409 . S
C4091 H4083 0.930 . S
C4091 C4092 1.355 . S
C4091 C4093 1.415 . S
C4092 C4091 1.355 . S
C4092 C4094 1.419 . S
C4093 C4088 1.426 1_545 S
C4093 C4090 1.409 . S
C4093 C4091 1.415 . S
C4094 H4084 0.930 . S
C4094 C4092 1.419 . S
C4094 C4095 1.362 . S
C4095 H4085 0.930 1_545 S
C4095 C4088 1.409 1_545 S
C4095 C4094 1.362 . S
H4096 C4102 0.930 . S
H4097 C4105 0.929 1_565 S
H4098 C4106 0.930 . S
H4099 C4107 0.930 . S
H4100 C4110 0.930 . S
H4101 C4111 0.930 . S
C4102 H4096 0.930 . S
C4102 C4103 1.355 . S
C4102 C4104 1.415 . S
C4103 C4102 1.355 . S
C4103 C4105 1.423 . S
C4104 C4102 1.415 . S
C4104 C4109 1.425 1_545 S
C4104 C4111 1.409 . S
C4105 H4097 0.929 1_545 S
C4105 C4103 1.423 . S
C4105 C4106 1.359 1_545 S
C4106 H4098 0.930 . S
C4106 C4105 1.359 1_565 S
C4106 C4109 1.409 . S
C4107 H4099 0.930 . S
C4107 C4108 1.355 . S
C4107 C4109 1.415 . S
C4108 C4107 1.355 . S
C4108 C4110 1.419 . S
C4109 C4104 1.425 1_565 S
C4109 C4106 1.409 . S
C4109 C4107 1.415 . S
C4110 H4100 0.930 . S
C4110 C4108 1.419 . S
C4110 C4111 1.362 1_565 S
C4111 H4101 0.930 . S
C4111 C4104 1.409 . S
C4111 C4110 1.362 1_545 S
H4112 C4118 0.930 . S
H4113 C4121 0.930 . S
H4114 C4122 0.930 1_554 S
H4115 C4123 0.930 . S
H4116 C4126 0.931 . S
H4117 C4127 0.930 . S
C4118 H4112 0.930 . S
C4118 C4119 1.355 . S
C4118 C4120 1.415 . S
C4119 C4118 1.355 . S
C4119 C4121 1.419 . S
C4120 C4118 1.415 . S
C4120 C4125 1.425 . S
C4120 C4127 1.409 . S
C4121 H4113 0.930 . S
C4121 C4119 1.419 . S
C4121 C4122 1.362 . S
C4122 H4114 0.930 1_556 S
C4122 C4121 1.362 . S
C4122 C4125 1.409 . S
C4123 H4115 0.930 . S
C4123 C4124 1.355 . S
C4123 C4125 1.415 1_554 S
C4124 C4123 1.355 . S
C4124 C4126 1.428 . S
C4125 C4120 1.425 . S
C4125 C4122 1.409 . S
C4125 C4123 1.415 1_556 S
C4126 H4116 0.931 . S
C4126 C4124 1.428 . S
C4126 C4127 1.353 1_554 S
C4127 H4117 0.930 . S
C4127 C4120 1.409 . S
C4127 C4126 1.353 1_556 S
H4128 C4134 0.930 . S
H4129 C4137 0.930 . S
H4130 C4138 0.930 . S
H4131 C4139 0.930 . S
H4132 C4142 0.930 . S
H4133 C4143 0.930 . S
C4134 H4128 0.930 . S
C4134 C4135 1.355 . S
C4134 C4136 1.415 1_655 S
C4135 C4134 1.355 . S
C4135 C4137 1.419 . S
C4136 C4134 1.415 1_455 S
C4136 C4141 1.425 . S
C4136 C4143 1.409 . S
C4137 H4129 0.930 . S
C4137 C4135 1.419 . S
C4137 C4138 1.362 . S
C4138 H4130 0.930 . S
C4138 C4137 1.362 . S
C4138 C4141 1.409 1_655 S
C4139 H4131 0.930 . S
C4139 C4140 1.355 . S
C4139 C4141 1.415 . S
C4140 C4139 1.355 . S
C4140 C4142 1.419 . S
C4141 C4136 1.425 . S
C4141 C4138 1.409 1_455 S
C4141 C4139 1.415 . S
C4142 H4132 0.930 . S
C4142 C4140 1.419 . S
C4142 C4143 1.362 . S
C4143 H4133 0.930 . S
C4143 C4136 1.409 . S
C4143 C4142 1.362 . S
H4144 C4150 0.930 . S
H4145 C4153 0.930 . S
H4146 C4154 0.930 . S
H4147 C4155 0.930 . S
H4148 C4158 0.930 . S
H4149 C4159 0.930 . S
C4150 H4144 0.930 . S
C4150 C4151 1.355 . S
C4150 C4152 1.415 . S
C4151 C4150 1.355 . S
C4151 C4153 1.419 . S
C4152 C4150 1.415 . S
C4152 C4157 1.425 . S
C4152 C4159 1.409 . S
C4153 H4145 0.930 . S
C4153 C4151 1.419 . S
C4153 C4154 1.362 . S
C4154 H4146 0.930 . S
C4154 C4153 1.362 . S
C4154 C4157 1.409 . S
C4155 H4147 0.930 . S
C4155 C4156 1.355 . S
C4155 C4157 1.415 . S
C4156 C4155 1.355 . S
C4156 C4158 1.419 . S
C4157 C4152 1.425 . S
C4157 C4154 1.409 . S
C4157 C4155 1.415 . S
C4158 H4148 0.930 . S
C4158 C4156 1.419 . S
C4158 C4159 1.362 . S
C4159 H4149 0.930 . S
C4159 C4152 1.409 . S
C4159 C4158 1.362 . S
H4160 C4166 0.930 . S
H4161 C4169 0.930 . S
H4162 C4170 0.930 . S
H4163 C4171 0.930 . S
H4164 C4174 0.930 . S
H4165 C4175 0.930 . S
C4166 H4160 0.930 . S
C4166 C4167 1.355 . S
C4166 C4168 1.415 . S
C4167 C4166 1.355 . S
C4167 C4169 1.419 . S
C4168 C4166 1.415 . S
C4168 C4173 1.425 1_655 S
C4168 C4175 1.409 . S
C4169 H4161 0.930 . S
C4169 C4167 1.419 . S
C4169 C4170 1.362 1_655 S
C4170 H4162 0.930 . S
C4170 C4169 1.362 1_455 S
C4170 C4173 1.409 . S
C4171 H4163 0.930 . S
C4171 C4172 1.355 . S
C4171 C4173 1.415 . S
C4172 C4171 1.355 . S
C4172 C4174 1.419 . S
C4173 C4168 1.425 1_455 S
C4173 C4170 1.409 . S
C4173 C4171 1.415 . S
C4174 H4164 0.930 . S
C4174 C4172 1.419 . S
C4174 C4175 1.362 1_455 S
C4175 H4165 0.930 . S
C4175 C4168 1.409 . S
C4175 C4174 1.362 1_655 S
H4176 C4182 0.930 . S
H4177 C4185 0.930 . S
H4178 C4186 0.930 . S
H4179 C4187 0.930 . S
H4180 C4190 0.930 . S
H4181 C4191 0.930 . S
C4182 H4176 0.930 . S
C4182 C4183 1.355 . S
C4182 C4184 1.415 . S
C4183 C4182 1.355 . S
C4183 C4185 1.419 . S
C4184 C4182 1.415 . S
C4184 C4189 1.425 . S
C4184 C4191 1.409 . S
C4185 H4177 0.930 . S
C4185 C4183 1.419 . S
C4185 C4186 1.362 . S
C4186 H4178 0.930 . S
C4186 C4185 1.362 . S
C4186 C4189 1.409 . S
C4187 H4179 0.930 . S
C4187 C4188 1.355 . S
C4187 C4189 1.415 . S
C4188 C4187 1.355 . S
C4188 C4190 1.419 . S
C4189 C4184 1.425 . S
C4189 C4186 1.409 . S
C4189 C4187 1.415 . S
C4190 H4180 0.930 . S
C4190 C4188 1.419 . S
C4190 C4191 1.362 . S
C4191 H4181 0.930 . S
C4191 C4184 1.409 . S
C4191 C4190 1.362 . S
H4192 C4198 0.930 . S
H4193 C4201 0.930 . S
H4194 C4202 0.930 . S
H4195 C4203 0.930 . S
H4196 C4206 0.930 . S
H4197 C4207 0.930 . S
C4198 H4192 0.930 . S
C4198 C4199 1.355 . S
C4198 C4200 1.415 . S
C4199 C4198 1.355 . S
C4199 C4201 1.419 . S
C4200 C4198 1.415 . S
C4200 C4205 1.425 . S
C4200 C4207 1.409 . S
C4201 H4193 0.930 . S
C4201 C4199 1.419 . S
C4201 C4202 1.362 . S
C4202 H4194 0.930 . S
C4202 C4201 1.362 . S
C4202 C4205 1.409 . S
C4203 H4195 0.930 . S
C4203 C4204 1.355 . S
C4203 C4205 1.415 . S
C4204 C4203 1.355 . S
C4204 C4206 1.419 . S
C4205 C4200 1.425 . S
C4205 C4202 1.409 . S
C4205 C4203 1.415 . S
C4206 H4196 0.930 . S
C4206 C4204 1.419 . S
C4206 C4207 1.362 . S
C4207 H4197 0.930 . S
C4207 C4200 1.409 . S
C4207 C4206 1.362 . S
H4208 C4214 0.930 . S
H4209 C4217 0.930 . S
H4210 C4218 0.930 . S
H4211 C4219 0.930 . S
H4212 C4222 0.930 . S
H4213 C4223 0.930 . S
C4214 H4208 0.930 . S
C4214 C4215 1.355 . S
C4214 C4216 1.415 . S
C4215 C4214 1.355 . S
C4215 C4217 1.419 . S
C4216 C4214 1.415 . S
C4216 C4221 1.416 1_556 S
C4216 C4223 1.409 1_556 S
C4217 H4209 0.930 . S
C4217 C4215 1.419 . S
C4217 C4218 1.362 . S
C4218 H4210 0.930 . S
C4218 C4217 1.362 . S
C4218 C4221 1.388 1_556 S
C4219 H4211 0.930 . S
C4219 C4220 1.355 . S
C4219 C4221 1.447 . S
C4220 C4219 1.355 . S
C4220 C4222 1.419 . S
C4221 C4216 1.416 1_554 S
C4221 C4218 1.388 1_554 S
C4221 C4219 1.447 . S
C4222 H4212 0.930 . S
C4222 C4220 1.419 . S
C4222 C4223 1.362 . S
C4223 H4213 0.930 . S
C4223 C4216 1.409 1_554 S
C4223 C4222 1.362 . S
H4224 C4230 0.930 . S
H4225 C4233 0.930 . S
H4226 C4234 0.930 . S
H4227 C4235 0.930 . S
H4228 C4238 0.930 . S
H4229 C4239 0.930 . S
C4230 H4224 0.930 . S
C4230 C4231 1.355 . S
C4230 C4232 1.415 . S
C4231 C4230 1.355 . S
C4231 C4233 1.419 . S
C4232 C4230 1.415 . S
C4232 C4237 1.425 . S
C4232 C4239 1.409 . S
C4233 H4225 0.930 . S
C4233 C4231 1.419 . S
C4233 C4234 1.362 . S
C4234 H4226 0.930 . S
C4234 C4233 1.362 . S
C4234 C4237 1.409 . S
C4235 H4227 0.930 . S
C4235 C4236 1.355 . S
C4235 C4237 1.415 . S
C4236 C4235 1.355 . S
C4236 C4238 1.419 . S
C4237 C4232 1.425 . S
C4237 C4234 1.409 . S
C4237 C4235 1.415 . S
C4238 H4228 0.930 . S
C4238 C4236 1.419 . S
C4238 C4239 1.362 . S
C4239 H4229 0.930 . S
C4239 C4232 1.409 . S
C4239 C4238 1.362 . S
H4240 C4246 0.930 . S
H4241 C4249 0.930 . S
H4242 C4250 0.930 . S
H4243 C4251 0.930 . S
H4244 C4254 0.930 . S
H4245 C4255 0.930 . S
C4246 H4240 0.930 . S
C4246 C4247 1.355 . S
C4246 C4248 1.415 . S
C4247 C4246 1.355 . S
C4247 C4249 1.419 . S
C4248 C4246 1.415 . S
C4248 C4253 1.425 . S
C4248 C4255 1.409 . S
C4249 H4241 0.930 . S
C4249 C4247 1.419 . S
C4249 C4250 1.362 . S
C4250 H4242 0.930 . S
C4250 C4249 1.362 . S
C4250 C4253 1.409 . S
C4251 H4243 0.930 . S
C4251 C4252 1.355 . S
C4251 C4253 1.415 . S
C4252 C4251 1.355 . S
C4252 C4254 1.419 . S
C4253 C4248 1.425 . S
C4253 C4250 1.409 . S
C4253 C4251 1.415 . S
C4254 H4244 0.930 . S
C4254 C4252 1.419 . S
C4254 C4255 1.362 . S
C4255 H4245 0.930 . S
C4255 C4248 1.409 . S
C4255 C4254 1.362 . S
H4256 C4262 0.930 . S
H4257 C4265 0.930 . S
H4258 C4266 0.930 . S
H4259 C4267 0.930 . S
H4260 C4270 0.930 . S
H4261 C4271 0.930 . S
C4262 H4256 0.930 . S
C4262 C4263 1.355 . S
C4262 C4264 1.415 . S
C4263 C4262 1.355 . S
C4263 C4265 1.419 . S
C4264 C4262 1.415 . S
C4264 C4269 1.425 . S
C4264 C4271 1.409 . S
C4265 H4257 0.930 . S
C4265 C4263 1.419 . S
C4265 C4266 1.362 . S
C4266 H4258 0.930 . S
C4266 C4265 1.362 . S
C4266 C4269 1.409 . S
C4267 H4259 0.930 . S
C4267 C4268 1.355 . S
C4267 C4269 1.415 . S
C4268 C4267 1.355 . S
C4268 C4270 1.419 . S
C4269 C4264 1.425 . S
C4269 C4266 1.409 . S
C4269 C4267 1.415 . S
C4270 H4260 0.930 . S
C4270 C4268 1.419 . S
C4270 C4271 1.362 . S
C4271 H4261 0.930 . S
C4271 C4264 1.409 . S
C4271 C4270 1.362 . S
H4272 C4278 0.930 . S
H4273 C4281 0.930 . S
H4274 C4282 0.930 . S
H4275 C4283 0.930 . S
H4276 C4286 0.930 . S
H4277 C4287 0.930 . S
C4278 H4272 0.930 . S
C4278 C4279 1.355 . S
C4278 C4280 1.415 . S
C4279 C4278 1.355 . S
C4279 C4281 1.419 . S
C4280 C4278 1.415 . S
C4280 C4285 1.425 . S
C4280 C4287 1.409 . S
C4281 H4273 0.930 . S
C4281 C4279 1.419 . S
C4281 C4282 1.362 . S
C4282 H4274 0.930 . S
C4282 C4281 1.362 . S
C4282 C4285 1.409 . S
C4283 H4275 0.930 . S
C4283 C4284 1.355 . S
C4283 C4285 1.415 . S
C4284 C4283 1.355 . S
C4284 C4286 1.419 . S
C4285 C4280 1.425 . S
C4285 C4282 1.409 . S
C4285 C4283 1.415 . S
C4286 H4276 0.930 . S
C4286 C4284 1.419 . S
C4286 C4287 1.362 . S
C4287 H4277 0.930 . S
C4287 C4280 1.409 . S
C4287 C4286 1.362 . S
H4288 C4294 0.930 . S
H4289 C4297 0.930 . S
H4290 C4298 0.930 . S
H4291 C4299 0.930 . S
H4292 C4302 0.930 . S
H4293 C4303 0.930 . S
C4294 H4288 0.930 . S
C4294 C4295 1.355 . S
C4294 C4296 1.415 . S
C4295 C4294 1.355 . S
C4295 C4297 1.419 . S
C4296 C4294 1.415 . S
C4296 C4301 1.425 . S
C4296 C4303 1.409 . S
C4297 H4289 0.930 . S
C4297 C4295 1.419 . S
C4297 C4298 1.362 . S
C4298 H4290 0.930 . S
C4298 C4297 1.362 . S
C4298 C4301 1.409 . S
C4299 H4291 0.930 . S
C4299 C4300 1.355 . S
C4299 C4301 1.415 . S
C4300 C4299 1.355 . S
C4300 C4302 1.419 . S
C4301 C4296 1.425 . S
C4301 C4298 1.409 . S
C4301 C4299 1.415 . S
C4302 H4292 0.930 . S
C4302 C4300 1.419 . S
C4302 C4303 1.362 . S
C4303 H4293 0.930 . S
C4303 C4296 1.409 . S
C4303 C4302 1.362 . S
H4304 C4310 0.930 . S
H4305 C4313 0.930 . S
H4306 C4314 0.930 . S
H4307 C4315 0.930 . S
H4308 C4318 0.930 . S
H4309 C4319 0.930 . S
C4310 H4304 0.930 . S
C4310 C4311 1.355 . S
C4310 C4312 1.415 . S
C4311 C4310 1.355 . S
C4311 C4313 1.419 . S
C4312 C4310 1.415 . S
C4312 C4317 1.425 . S
C4312 C4319 1.409 . S
C4313 H4305 0.930 . S
C4313 C4311 1.419 . S
C4313 C4314 1.362 . S
C4314 H4306 0.930 . S
C4314 C4313 1.362 . S
C4314 C4317 1.409 . S
C4315 H4307 0.930 . S
C4315 C4316 1.355 . S
C4315 C4317 1.415 . S
C4316 C4315 1.355 . S
C4316 C4318 1.419 . S
C4317 C4312 1.425 . S
C4317 C4314 1.409 . S
C4317 C4315 1.415 . S
C4318 H4308 0.930 . S
C4318 C4316 1.419 . S
C4318 C4319 1.362 . S
C4319 H4309 0.930 . S
C4319 C4312 1.409 . S
C4319 C4318 1.362 . S
H4320 C4326 0.930 . S
H4321 C4329 0.930 . S
H4322 C4330 0.918 1_556 S
H4323 C4331 0.930 . S
H4324 C4334 0.930 . S
H4325 C4335 0.930 . S
C4326 H4320 0.930 . S
C4326 C4327 1.355 . S
C4326 C4328 1.415 . S
C4327 C4326 1.355 . S
C4327 C4329 1.419 . S
C4328 C4326 1.415 . S
C4328 C4333 1.441 . S
C4328 C4335 1.409 . S
C4329 H4321 0.930 . S
C4329 C4327 1.419 . S
C4329 C4330 1.375 . S
C4330 H4322 0.918 1_554 S
C4330 C4329 1.375 . S
C4330 C4333 1.409 . S
C4331 H4323 0.930 . S
C4331 C4332 1.355 . S
C4331 C4333 1.400 1_556 S
C4332 C4331 1.355 . S
C4332 C4334 1.419 1_556 S
C4333 C4328 1.441 . S
C4333 C4330 1.409 . S
C4333 C4331 1.400 1_554 S
C4334 H4324 0.930 . S
C4334 C4332 1.419 1_554 S
C4334 C4335 1.362 . S
C4335 H4325 0.930 . S
C4335 C4328 1.409 . S
C4335 C4334 1.362 . S
H4336 C4342 0.930 . S
H4337 C4345 0.930 . S
H4338 C4346 0.930 . S
H4339 C4347 0.930 . S
H4340 C4350 0.930 . S
H4341 C4351 0.930 . S
C4342 H4336 0.930 . S
C4342 C4343 1.355 . S
C4342 C4344 1.415 . S
C4343 C4342 1.355 . S
C4343 C4345 1.419 . S
C4344 C4342 1.415 . S
C4344 C4349 1.425 . S
C4344 C4351 1.409 . S
C4345 H4337 0.930 . S
C4345 C4343 1.419 . S
C4345 C4346 1.362 . S
C4346 H4338 0.930 . S
C4346 C4345 1.362 . S
C4346 C4349 1.409 . S
C4347 H4339 0.930 . S
C4347 C4348 1.355 . S
C4347 C4349 1.415 . S
C4348 C4347 1.355 . S
C4348 C4350 1.419 . S
C4349 C4344 1.425 . S
C4349 C4346 1.409 . S
C4349 C4347 1.415 . S
C4350 H4340 0.930 . S
C4350 C4348 1.419 . S
C4350 C4351 1.362 . S
C4351 H4341 0.930 . S
C4351 C4344 1.409 . S
C4351 C4350 1.362 . S
H4352 C4358 0.930 . S
H4353 C4361 0.930 . S
H4354 C4362 0.930 . S
H4355 C4363 0.930 . S
H4356 C4366 0.930 . S
H4357 C4367 0.930 . S
C4358 H4352 0.930 . S
C4358 C4359 1.355 . S
C4358 C4360 1.415 . S
C4359 C4358 1.355 . S
C4359 C4361 1.419 . S
C4360 C4358 1.415 . S
C4360 C4365 1.425 . S
C4360 C4367 1.409 . S
C4361 H4353 0.930 . S
C4361 C4359 1.419 . S
C4361 C4362 1.362 . S
C4362 H4354 0.930 . S
C4362 C4361 1.362 . S
C4362 C4365 1.409 . S
C4363 H4355 0.930 . S
C4363 C4364 1.355 . S
C4363 C4365 1.415 . S
C4364 C4363 1.355 . S
C4364 C4366 1.419 . S
C4365 C4360 1.425 . S
C4365 C4362 1.409 . S
C4365 C4363 1.415 . S
C4366 H4356 0.930 . S
C4366 C4364 1.419 . S
C4366 C4367 1.362 . S
C4367 H4357 0.930 . S
C4367 C4360 1.409 . S
C4367 C4366 1.362 . S
H4368 C4374 0.930 . S
H4369 C4377 0.930 . S
H4370 C4378 0.930 . S
H4371 C4379 0.930 . S
H4372 C4382 0.930 . S
H4373 C4383 0.930 . S
C4374 H4368 0.930 . S
C4374 C4375 1.355 . S
C4374 C4376 1.415 . S
C4375 C4374 1.355 . S
C4375 C4377 1.419 . S
C4376 C4374 1.415 . S
C4376 C4381 1.425 . S
C4376 C4383 1.409 . S
C4377 H4369 0.930 . S
C4377 C4375 1.419 . S
C4377 C4378 1.362 . S
C4378 H4370 0.930 . S
C4378 C4377 1.362 . S
C4378 C4381 1.409 . S
C4379 H4371 0.930 . S
C4379 C4380 1.355 . S
C4379 C4381 1.415 . S
C4380 C4379 1.355 . S
C4380 C4382 1.419 . S
C4381 C4376 1.425 . S
C4381 C4378 1.409 . S
C4381 C4379 1.415 . S
C4382 H4372 0.930 . S
C4382 C4380 1.419 . S
C4382 C4383 1.362 . S
C4383 H4373 0.930 . S
C4383 C4376 1.409 . S
C4383 C4382 1.362 . S
H4384 C4390 0.930 . S
H4385 C4393 0.930 . S
H4386 C4394 0.930 . S
H4387 C4395 0.930 . S
H4388 C4398 0.930 . S
H4389 C4399 0.930 . S
C4390 H4384 0.930 . S
C4390 C4391 1.355 . S
C4390 C4392 1.415 . S
C4391 C4390 1.355 . S
C4391 C4393 1.419 . S
C4392 C4390 1.415 . S
C4392 C4397 1.425 . S
C4392 C4399 1.409 . S
C4393 H4385 0.930 . S
C4393 C4391 1.419 . S
C4393 C4394 1.362 . S
C4394 H4386 0.930 . S
C4394 C4393 1.362 . S
C4394 C4397 1.409 . S
C4395 H4387 0.930 . S
C4395 C4396 1.355 . S
C4395 C4397 1.415 . S
C4396 C4395 1.355 . S
C4396 C4398 1.419 . S
C4397 C4392 1.425 . S
C4397 C4394 1.409 . S
C4397 C4395 1.415 . S
C4398 H4388 0.930 . S
C4398 C4396 1.419 . S
C4398 C4399 1.362 . S
C4399 H4389 0.930 . S
C4399 C4392 1.409 . S
C4399 C4398 1.362 . S
H4400 C4406 0.930 . S
H4401 C4409 0.930 . S
H4402 C4410 0.930 . S
H4403 C4411 0.930 . S
H4404 C4414 0.930 . S
H4405 C4415 0.930 . S
C4406 H4400 0.930 . S
C4406 C4407 1.355 . S
C4406 C4408 1.415 . S
C4407 C4406 1.355 . S
C4407 C4409 1.419 . S
C4408 C4406 1.415 . S
C4408 C4413 1.425 . S
C4408 C4415 1.409 . S
C4409 H4401 0.930 . S
C4409 C4407 1.419 . S
C4409 C4410 1.362 . S
C4410 H4402 0.930 . S
C4410 C4409 1.362 . S
C4410 C4413 1.409 . S
C4411 H4403 0.930 . S
C4411 C4412 1.355 . S
C4411 C4413 1.415 . S
C4412 C4411 1.355 . S
C4412 C4414 1.419 . S
C4413 C4408 1.425 . S
C4413 C4410 1.409 . S
C4413 C4411 1.415 . S
C4414 H4404 0.930 . S
C4414 C4412 1.419 . S
C4414 C4415 1.362 . S
C4415 H4405 0.930 . S
C4415 C4408 1.409 . S
C4415 C4414 1.362 . S
C1351 C7 1.185 . S
C1356 C1057 1.231 . S
C1367 C343 1.231 . S
C1372 C23 1.176 . S
C1383 C1029 1.171 . S
C1388 C35 1.136 . S
C1399 C371 1.272 . S
C1404 C51 1.212 . S
C1415 C63 1.214 . S
C1420 C1085 1.142 . S
C1431 C79 1.263 . S
C1436 C427 1.306 . S
C1447 C1113 1.150 . S
C1452 C91 1.221 . S
C1463 C107 1.181 . S
C1468 C399 1.217 . S
C1479 C121 1.248 . S
C1484 C1267 1.272 . S
C1495 C609 1.185 . S
C1500 C133 1.236 . S
C1511 C149 1.156 . S
C1516 C623 1.219 . S
C1527 C161 1.226 . S
C1532 C581 1.189 . S
C1543 C177 1.132 . S
C1548 C1323 1.180 . S
C1559 C189 1.142 . S
C1564 C1239 1.196 . S
C1575 C205 1.149 . S
C1580 C1337 1.176 . S
C1591 C217 1.235 . S
C1596 C1309 1.173 . S
C1607 C1141 1.304 . S
C1612 C233 1.290 . S
C1623 C247 1.289 . S
C1628 C553 1.311 . S
C1639 C261 1.201 . S
C1644 C1183 1.255 . S
C1655 C525 1.312 . S
C1660 C275 1.280 . S
C1671 C289 1.251 . S
C1676 C539 1.269 . S
C1687 C1169 1.313 . S
C1692 C303 1.285 . S
C1703 C317 1.251 . S
C1708 C1127 1.262 . S
C1719 C1155 1.179 . S
C1724 C331 1.157 . S
C1735 C721 1.147 . S
C1740 C345 1.092 . S
C1751 C9 1.286 . S
C1756 C359 1.164 . S
C1767 C373 1.096 . S
C1772 C693 1.162 . S
C1783 C387 1.155 . S
C1788 C37 1.294 . S
C1799 C401 1.205 . S
C1804 C749 1.213 . S
C1815 C93 1.285 . S
C1820 C415 1.167 . S
C1831 C429 1.220 . S
C1836 C777 1.237 . S
C1847 C443 1.239 . S
C1852 C65 1.312 . S
C1863 C457 1.143 . S
C1868 C931 1.166 . S
C1879 C273 1.167 . S
C1884 C471 1.099 . S
C1895 C485 1.125 . S
C1900 C287 1.165 . S
C1911 C245 1.153 . S
C1916 C499 1.128 . S
C1927 C513 1.128 . S
C1932 C987 1.180 . S
C1943 C527 1.205 . S
C1948 C903 1.213 . S
C1959 C541 1.146 . S
C1964 C1001 1.204 . S
C1975 C973 1.150 . S
C1980 C555 1.092 . S
C1991 C807 1.282 . S
C1996 C569 1.253 . S
C2007 C219 1.297 . S
C2012 C583 1.271 . S
C2023 C847 1.208 . S
C2028 C597 1.206 . S
C2039 C611 1.265 . S
C2044 C191 1.304 . S
C2055 C625 1.217 . S
C2060 C203 1.219 . S
C2071 C639 1.221 . S
C2076 C835 1.314 . S
C2087 C791 1.163 . S
C2092 C653 1.130 . S
C2103 C667 1.222 . S
C2108 C819 1.260 . S
C2119 C385 1.178 . S
C2124 C679 1.137 . S
C2135 C1015 1.312 . S
C2140 C695 1.278 . S
C2151 C707 1.233 . S
C2156 C357 1.208 . S
C2167 C1043 1.285 . S
C2172 C723 1.229 . S
C2183 C735 1.203 . S
C2188 C413 1.232 . S
C2199 C1099 1.217 . S
C2204 C751 1.178 . S
C2215 C763 1.150 . S
C2220 C441 1.210 . S
C2231 C1071 1.218 . S
C2236 C779 1.189 . S
C2247 C595 1.225 . S
C2252 C793 1.162 . S
C2263 C805 1.235 . S
C2268 C1281 1.171 1_556 S
C2279 C1295 1.261 . S
C2284 C821 1.251 . S
C2295 C833 1.137 . S
C2300 C1253 1.182 . S
C2311 C651 1.272 . S
C2316 C849 1.248 . S
C2327 C861 1.187 . S
C2332 C567 1.232 1_554 S
C2343 C665 1.199 . S
C2348 C877 1.139 . S
C2359 C637 1.223 . S
C2364 C889 1.222 . S
C2375 C469 1.219 . S
C2380 C905 1.176 . S
C2391 C1225 1.220 . S
C2396 C919 1.174 . S
C2407 C933 1.247 . S
C2412 C511 1.272 . S
C2423 C947 1.272 . S
C2428 C1197 1.310 . S
C2439 C1211 1.185 . S
C2444 C961 1.171 . S
C2455 C497 1.224 . S
C2460 C975 1.174 . S
C2471 C455 1.184 . S
C2476 C989 1.132 . S
C2487 C483 1.228 . S
C2492 C1003 1.165 . S
C2503 C1017 1.153 . S
C2508 C49 1.216 . S
C2519 C1031 1.162 . S
C2524 C681 1.304 . S
C2535 C1045 1.159 . S
C2540 C21 1.221 . S
C2551 C1059 1.215 . S
C2556 C709 1.277 . S
C2567 C77 1.160 . S
C2572 C1073 1.095 . S
C2583 C765 1.305 . S
C2588 C1087 1.262 . S
C2599 C105 1.207 . S
C2604 C1101 1.200 . S
C2615 C737 1.314 . S
C2620 C1115 1.219 . S
C2631 C1129 1.127 . S
C2636 C259 1.179 . S
C2647 C945 1.205 . S
C2652 C1143 1.197 . S
C2663 C1157 1.133 . S
C2668 C959 1.163 . S
C2679 C1171 1.182 . S
C2684 C917 1.190 . S
C2695 C315 1.262 . S
C2700 C1185 1.226 . S
C2711 C231 1.192 . S
C2716 C1199 1.185 . S
C2727 C1213 1.139 . S
C2732 C329 1.195 . S
C2743 C301 1.231 . S
C2748 C1227 1.176 . S
C2759 C1241 1.207 . S
C2764 C135 1.277 . S
C2775 C1255 1.262 . S
C2780 C891 1.305 . S
C2791 C175 1.255 . S
C2796 C1269 1.245 . S
C2807 C1283 1.161 . S
C2812 C863 1.303 . S
C2823 C875 1.234 . S
C2828 C1297 1.181 . S
C2839 C1311 1.157 . S
C2844 C163 1.300 . S
C2855 C1325 1.245 . S
C2860 C119 1.255 . S
C2871 C1339 1.142 . S
C2876 C147 1.166 . S
C2887 C8 1.359 . S
C2892 C134 1.389 . S
C2903 C17 1.328 . S
C2908 C143 1.348 . S
C2919 C162 1.360 . S
C2924 C36 1.389 . S
C2935 C45 1.323 . S
C2940 C115 1.345 . S
C2951 C218 1.386 . S
C2956 C64 1.368 . S
C2967 C73 1.333 . S
C2972 C171 1.343 . S
C2983 C92 1.367 . S
C2988 C190 1.338 . S
C2999 C199 1.332 . S
C3004 C101 1.344 . S
C3015 C255 1.347 . S
C3020 C227 1.321 . S
C3031 C241 1.319 . S
C3036 C983 1.352 . S
C3047 C997 1.324 . S
C3052 C269 1.344 . S
C3063 C283 1.348 . S
C3068 C969 1.327 . S
C3079 C955 1.338 . S
C3084 C297 1.330 . S
C3095 C311 1.345 . S
C3100 C913 1.330 . S
C3111 C325 1.330 . S
C3116 C941 1.337 . S
C3127 C339 1.433 . S
C3132 C465 1.405 . S
C3143 C479 1.292 . S
C3148 C353 1.281 . S
C3159 C493 1.415 . S
C3164 C367 1.423 . S
C3175 C381 1.306 . S
C3180 C451 1.279 . S
C3191 C549 1.425 . S
C3196 C395 1.414 . S
C3207 C409 1.302 . S
C3212 C507 1.284 . S
C3223 C521 1.429 . S
C3228 C423 1.410 . S
C3239 C437 1.290 . S
C3244 C535 1.298 . S
C3255 C591 1.284 . S
C3260 C563 1.303 . S
C3271 C577 1.285 . S
C3276 C1319 1.288 . S
C3287 C605 1.306 . S
C3292 C1333 1.279 . S
C3303 C1305 1.305 . S
C3308 C619 1.270 . S
C3319 C1291 1.309 . S
C3324 C633 1.272 . S
C3335 C1249 1.309 . S
C3340 C647 1.273 . S
C3351 C1277 1.305 . S
C3356 C661 1.270 . S
C3367 C806 1.368 . S
C3372 C680 1.386 . S
C3383 C815 1.334 . S
C3388 C689 1.333 . S
C3399 C834 1.381 . S
C3404 C708 1.376 . S
C3415 C717 1.348 . S
C3420 C787 1.320 . S
C3431 C736 1.351 . S
C3436 C890 1.388 . S
C3447 C745 1.351 . S
C3452 C843 1.318 . S
C3463 C764 1.387 . S
C3468 C862 1.366 . S
C3479 C773 1.319 . S
C3484 C871 1.351 . S
C3495 C927 1.347 . S
C3500 C899 1.329 . S
C3511 C1137 1.407 . S
C3516 C1011 1.431 . S
C3527 C1025 1.303 . S
C3532 C1151 1.283 . S
C3543 C1165 1.419 . S
C3548 C1039 1.419 . S
C3559 C1123 1.272 . S
C3564 C1053 1.302 . S
C3575 C1221 1.434 . S
C3580 C1067 1.404 . S
C3591 C1179 1.304 . S
C3596 C1081 1.273 . S
C3607 C1193 1.432 . S
C3612 C1095 1.406 . S
C3623 C1207 1.270 . S
C3628 C1109 1.309 . S
C3639 C1263 1.306 . S
C3644 C1235 1.281 . S
C3655 C3 1.452 . S
C3660 C288 1.464 . S
C3671 C918 1.511 . S
C3676 C22 1.521 . S
C3687 C932 1.489 . S
C3692 C31 1.437 . S
C3703 C946 1.505 . S
C3708 C50 1.541 . S
C3719 C1002 1.450 . S
C3724 C59 1.481 . S
C3735 C78 1.534 . S
C3740 C302 1.537 . S
C3751 C87 1.425 . S
C3756 C988 1.487 . S
C3767 C106 1.539 . S
C3772 C232 1.505 . S
C3783 C120 1.450 . S
C3788 C213 1.480 . S
C3799 C129 1.461 . S
C3804 C176 1.475 . S
C3815 C148 1.486 . S
C3820 C185 1.426 . S
C3831 C204 1.486 . S
C3836 C157 1.444 . S
C3847 C694 1.541 . S
C3852 C246 1.506 . S
C3863 C260 1.452 . S
C3868 C703 1.483 . S
C3879 C274 1.544 . S
C3884 C722 1.507 . S
C3895 C759 1.425 . S
C3900 C316 1.487 . S
C3911 C330 1.450 . S
C3916 C731 1.483 . S
C3927 C344 1.505 . S
C3932 C624 1.542 . S
C3943 C1254 1.569 . S
C3948 C358 1.541 . S
C3959 C1268 1.535 . S
C3964 C372 1.498 . S
C3975 C1282 1.563 . S
C3980 C386 1.558 . S
C3991 C400 1.527 . S
C3996 C1338 1.498 . S
C4007 C414 1.568 . S
C4012 C638 1.537 . S
C4023 C428 1.529 . S
C4028 C1324 1.498 . S
C4039 C442 1.538 . S
C4044 C568 1.532 . S
C4055 C456 1.525 . S
C4060 C554 1.498 . S
C4071 C470 1.505 . S
C4076 C512 1.541 . S
C4087 C526 1.542 . S
C4092 C484 1.508 . S
C4103 C498 1.538 . S
C4108 C540 1.500 . S
C4119 C1030 1.567 . S
C4124 C582 1.534 . S
C4135 C596 1.498 . S
C4140 C1044 1.529 . S
C4151 C1058 1.531 . S
C4156 C610 1.565 . S
C4167 C652 1.525 . S
C4172 C1100 1.498 . S
C4183 C1072 1.511 . S
C4188 C666 1.506 . S
C4199 C675 1.444 . S
C4204 C960 1.470 . S
C4215 C750 1.517 . S
C4220 C974 1.515 . S
C4231 C778 1.543 . S
C4236 C904 1.527 . S
C4247 C885 1.428 . S
C4252 C792 1.492 . S
C4263 C801 1.435 . S
C4268 C848 1.476 . S
C4279 C857 1.425 . S
C4284 C820 1.486 . S
C4295 C829 1.483 . S
C4300 C876 1.452 . S
C4311 C1296 1.513 . S
C4316 C1016 1.542 . S
C4327 C1086 1.546 . S
C4332 C1310 1.528 . S
C4343 C1114 1.566 . S
C4348 C1240 1.532 . S
C4359 C1226 1.505 . S
C4364 C1128 1.512 . S
C4375 C1184 1.538 . S
C4380 C1142 1.522 . S
C4391 C1156 1.502 . S
C4396 C1198 1.516 . S
C4407 C1170 1.529 . S
C4412 C1212 1.498 . S
