# Generated by pormake.
# Topology uow, (4)-cn, num edge types: 1
# Building blocks:
#     Node 0, Type 0, BuildingBlock: GALJAG_clean_sbu_0, # of connection points: 4
#     Node 1, Type 0, BuildingBlock: GALJAG_clean_sbu_0, # of connection points: 4
#     Node 2, Type 0, BuildingBlock: GALJAG_clean_sbu_0, # of connection points: 4
#     Node 3, Type 0, BuildingBlock: GALJAG_clean_sbu_0, # of connection points: 4
#     Node 4, Type 0, BuildingBlock: GALJAG_clean_sbu_0, # of connection points: 4
#     Node 5, Type 0, BuildingBlock: GALJAG_clean_sbu_0, # of connection points: 4
#     Node 6, Type 0, BuildingBlock: GALJAG_clean_sbu_0, # of connection points: 4
#     Node 7, Type 0, BuildingBlock: GALJAG_clean_sbu_0, # of connection points: 4
#     Node 8, Type 0, BuildingBlock: GALJAG_clean_sbu_0, # of connection points: 4
#     Node 9, Type 0, BuildingBlock: GALJAG_clean_sbu_0, # of connection points: 4
#     Node 10, Type 0, BuildingBlock: GALJAG_clean_sbu_0, # of connection points: 4
#     Node 11, Type 0, BuildingBlock: GALJAG_clean_sbu_0, # of connection points: 4
#     Node 12, Type 0, BuildingBlock: GALJAG_clean_sbu_0, # of connection points: 4
#     Node 13, Type 0, BuildingBlock: GALJAG_clean_sbu_0, # of connection points: 4
#     Node 14, Type 0, BuildingBlock: GALJAG_clean_sbu_0, # of connection points: 4
#     Node 15, Type 0, BuildingBlock: GALJAG_clean_sbu_0, # of connection points: 4
#     Node 16, Type 0, BuildingBlock: GALJAG_clean_sbu_0, # of connection points: 4
#     Node 17, Type 0, BuildingBlock: GALJAG_clean_sbu_0, # of connection points: 4
#     Node 18, Type 0, BuildingBlock: GALJAG_clean_sbu_0, # of connection points: 4
#     Node 19, Type 0, BuildingBlock: GALJAG_clean_sbu_0, # of connection points: 4
#     Node 20, Type 0, BuildingBlock: GALJAG_clean_sbu_0, # of connection points: 4
#     Node 21, Type 0, BuildingBlock: GALJAG_clean_sbu_0, # of connection points: 4
#     Node 22, Type 0, BuildingBlock: GALJAG_clean_sbu_0, # of connection points: 4
#     Node 23, Type 0, BuildingBlock: GALJAG_clean_sbu_0, # of connection points: 4
#     Node 24, Type 0, BuildingBlock: GALJAG_clean_sbu_0, # of connection points: 4
#     Node 25, Type 0, BuildingBlock: GALJAG_clean_sbu_0, # of connection points: 4
#     Node 26, Type 0, BuildingBlock: GALJAG_clean_sbu_0, # of connection points: 4
#     Node 27, Type 0, BuildingBlock: GALJAG_clean_sbu_0, # of connection points: 4
#     Node 28, Type 0, BuildingBlock: GALJAG_clean_sbu_0, # of connection points: 4
#     Node 29, Type 0, BuildingBlock: GALJAG_clean_sbu_0, # of connection points: 4
#     Node 30, Type 0, BuildingBlock: GALJAG_clean_sbu_0, # of connection points: 4
#     Node 31, Type 0, BuildingBlock: GALJAG_clean_sbu_0, # of connection points: 4
#     Edge 32, Type (0, 0), BuildingBlock: CIFDUS_clean_linker_0, # of connection points: 2
#     Edge 33, Type (0, 0), BuildingBlock: CIFDUS_clean_linker_0, # of connection points: 2
#     Edge 34, Type (0, 0), BuildingBlock: CIFDUS_clean_linker_0, # of connection points: 2
#     Edge 35, Type (0, 0), BuildingBlock: CIFDUS_clean_linker_0, # of connection points: 2
#     Edge 36, Type (0, 0), BuildingBlock: CIFDUS_clean_linker_0, # of connection points: 2
#     Edge 37, Type (0, 0), BuildingBlock: CIFDUS_clean_linker_0, # of connection points: 2
#     Edge 38, Type (0, 0), BuildingBlock: CIFDUS_clean_linker_0, # of connection points: 2
#     Edge 39, Type (0, 0), BuildingBlock: CIFDUS_clean_linker_0, # of connection points: 2
#     Edge 40, Type (0, 0), BuildingBlock: CIFDUS_clean_linker_0, # of connection points: 2
#     Edge 41, Type (0, 0), BuildingBlock: CIFDUS_clean_linker_0, # of connection points: 2
#     Edge 42, Type (0, 0), BuildingBlock: CIFDUS_clean_linker_0, # of connection points: 2
#     Edge 43, Type (0, 0), BuildingBlock: CIFDUS_clean_linker_0, # of connection points: 2
#     Edge 44, Type (0, 0), BuildingBlock: CIFDUS_clean_linker_0, # of connection points: 2
#     Edge 45, Type (0, 0), BuildingBlock: CIFDUS_clean_linker_0, # of connection points: 2
#     Edge 46, Type (0, 0), BuildingBlock: CIFDUS_clean_linker_0, # of connection points: 2
#     Edge 47, Type (0, 0), BuildingBlock: CIFDUS_clean_linker_0, # of connection points: 2
#     Edge 48, Type (0, 0), BuildingBlock: CIFDUS_clean_linker_0, # of connection points: 2
#     Edge 49, Type (0, 0), BuildingBlock: CIFDUS_clean_linker_0, # of connection points: 2
#     Edge 50, Type (0, 0), BuildingBlock: CIFDUS_clean_linker_0, # of connection points: 2
#     Edge 51, Type (0, 0), BuildingBlock: CIFDUS_clean_linker_0, # of connection points: 2
#     Edge 52, Type (0, 0), BuildingBlock: CIFDUS_clean_linker_0, # of connection points: 2
#     Edge 53, Type (0, 0), BuildingBlock: CIFDUS_clean_linker_0, # of connection points: 2
#     Edge 54, Type (0, 0), BuildingBlock: CIFDUS_clean_linker_0, # of connection points: 2
#     Edge 55, Type (0, 0), BuildingBlock: CIFDUS_clean_linker_0, # of connection points: 2
#     Edge 56, Type (0, 0), BuildingBlock: CIFDUS_clean_linker_0, # of connection points: 2
#     Edge 57, Type (0, 0), BuildingBlock: CIFDUS_clean_linker_0, # of connection points: 2
#     Edge 58, Type (0, 0), BuildingBlock: CIFDUS_clean_linker_0, # of connection points: 2
#     Edge 59, Type (0, 0), BuildingBlock: CIFDUS_clean_linker_0, # of connection points: 2
#     Edge 60, Type (0, 0), BuildingBlock: CIFDUS_clean_linker_0, # of connection points: 2
#     Edge 61, Type (0, 0), BuildingBlock: CIFDUS_clean_linker_0, # of connection points: 2
#     Edge 62, Type (0, 0), BuildingBlock: CIFDUS_clean_linker_0, # of connection points: 2
#     Edge 63, Type (0, 0), BuildingBlock: CIFDUS_clean_linker_0, # of connection points: 2
#     Edge 64, Type (0, 0), BuildingBlock: CIFDUS_clean_linker_0, # of connection points: 2
#     Edge 65, Type (0, 0), BuildingBlock: CIFDUS_clean_linker_0, # of connection points: 2
#     Edge 66, Type (0, 0), BuildingBlock: CIFDUS_clean_linker_0, # of connection points: 2
#     Edge 67, Type (0, 0), BuildingBlock: CIFDUS_clean_linker_0, # of connection points: 2
#     Edge 68, Type (0, 0), BuildingBlock: CIFDUS_clean_linker_0, # of connection points: 2
#     Edge 69, Type (0, 0), BuildingBlock: CIFDUS_clean_linker_0, # of connection points: 2
#     Edge 70, Type (0, 0), BuildingBlock: CIFDUS_clean_linker_0, # of connection points: 2
#     Edge 71, Type (0, 0), BuildingBlock: CIFDUS_clean_linker_0, # of connection points: 2
#     Edge 72, Type (0, 0), BuildingBlock: CIFDUS_clean_linker_0, # of connection points: 2
#     Edge 73, Type (0, 0), BuildingBlock: CIFDUS_clean_linker_0, # of connection points: 2
#     Edge 74, Type (0, 0), BuildingBlock: CIFDUS_clean_linker_0, # of connection points: 2
#     Edge 75, Type (0, 0), BuildingBlock: CIFDUS_clean_linker_0, # of connection points: 2
#     Edge 76, Type (0, 0), BuildingBlock: CIFDUS_clean_linker_0, # of connection points: 2
#     Edge 77, Type (0, 0), BuildingBlock: CIFDUS_clean_linker_0, # of connection points: 2
#     Edge 78, Type (0, 0), BuildingBlock: CIFDUS_clean_linker_0, # of connection points: 2
#     Edge 79, Type (0, 0), BuildingBlock: CIFDUS_clean_linker_0, # of connection points: 2
#     Edge 80, Type (0, 0), BuildingBlock: CIFDUS_clean_linker_0, # of connection points: 2
#     Edge 81, Type (0, 0), BuildingBlock: CIFDUS_clean_linker_0, # of connection points: 2
#     Edge 82, Type (0, 0), BuildingBlock: CIFDUS_clean_linker_0, # of connection points: 2
#     Edge 83, Type (0, 0), BuildingBlock: CIFDUS_clean_linker_0, # of connection points: 2
#     Edge 84, Type (0, 0), BuildingBlock: CIFDUS_clean_linker_0, # of connection points: 2
#     Edge 85, Type (0, 0), BuildingBlock: CIFDUS_clean_linker_0, # of connection points: 2
#     Edge 86, Type (0, 0), BuildingBlock: CIFDUS_clean_linker_0, # of connection points: 2
#     Edge 87, Type (0, 0), BuildingBlock: CIFDUS_clean_linker_0, # of connection points: 2
#     Edge 88, Type (0, 0), BuildingBlock: CIFDUS_clean_linker_0, # of connection points: 2
#     Edge 89, Type (0, 0), BuildingBlock: CIFDUS_clean_linker_0, # of connection points: 2
#     Edge 90, Type (0, 0), BuildingBlock: CIFDUS_clean_linker_0, # of connection points: 2
#     Edge 91, Type (0, 0), BuildingBlock: CIFDUS_clean_linker_0, # of connection points: 2
#     Edge 92, Type (0, 0), BuildingBlock: CIFDUS_clean_linker_0, # of connection points: 2
#     Edge 93, Type (0, 0), BuildingBlock: CIFDUS_clean_linker_0, # of connection points: 2
#     Edge 94, Type (0, 0), BuildingBlock: CIFDUS_clean_linker_0, # of connection points: 2
#     Edge 95, Type (0, 0), BuildingBlock: CIFDUS_clean_linker_0, # of connection points: 2
# Relax obj value: 0.042
# Max RMSD: 0.080
# Mean RMSD: 0.080
data_MOF--net-uow--node1-GALJAG_clean_sbu_0--edge1-CIFDUS_clean_linker_0
_symmetry_space_group_name_H-M    P1
_symmetry_Int_Tables_number       1
_symmetry_cell_setting            triclinic
loop_
_symmetry_equiv_pos_as_xyz
'x, y, z'
_cell_length_a     52.413162
_cell_length_b     52.438429
_cell_length_c     39.355518
_cell_angle_alpha  89.987066
_cell_angle_beta   89.960899
_cell_angle_gamma 89.882866
loop_
_atom_site_label
_atom_site_type_symbol
_atom_site_fract_x
_atom_site_fract_y
_atom_site_fract_z
_atom_type_partial_charge
In0 In 0.05134 0.37171 0.27655 0.0
O1 O 0.07224 0.40977 0.27632 0.0
O2 O 0.0319 0.40962 0.26888 0.0
C3 C 0.08379 0.34485 0.31586 0.0
C4 C 0.06093 0.35852 0.21182 0.0
C5 C 0.00658 0.36359 0.30825 0.0
O6 O 0.07786 0.36763 0.32242 0.0
O7 O 0.07424 0.33615 0.2889 0.0
O8 O 0.00917 0.35951 0.27675 0.0
O9 O 0.02642 0.37127 0.32306 0.0
C10 C 0.05212 0.4225 0.27111 0.0
O11 O 0.04565 0.34594 0.23016 0.0
O12 O 0.07112 0.37741 0.22617 0.0
In13 In 0.87824 0.81719 0.53914 0.0
O14 O 0.90732 0.80966 0.49682 0.0
O15 O 0.88221 0.84145 0.49192 0.0
C16 C 0.88564 0.77185 0.57009 0.0
C17 C 0.82828 0.81939 0.52344 0.0
C18 C 0.9007 0.84759 0.58561 0.0
O19 O 0.89147 0.77523 0.53924 0.0
O20 O 0.87598 0.79101 0.5845 0.0
O21 O 0.87852 0.83886 0.58958 0.0
O22 O 0.91103 0.84193 0.55769 0.0
C23 C 0.90011 0.82847 0.47911 0.0
O24 O 0.84015 0.83839 0.53507 0.0
O25 O 0.84156 0.79948 0.52008 0.0
In26 In 0.43158 0.62857 0.76653 0.0
O27 O 0.41321 0.59363 0.79126 0.0
O28 O 0.421 0.592 0.73848 0.0
C29 C 0.41495 0.66265 0.8129 0.0
C30 C 0.42173 0.65048 0.70599 0.0
C31 C 0.48052 0.62221 0.78599 0.0
O32 O 0.40005 0.64674 0.79921 0.0
O33 O 0.43771 0.66152 0.80274 0.0
O34 O 0.47442 0.63654 0.7615 0.0
O35 O 0.46211 0.61058 0.7995 0.0
C36 C 0.41288 0.58053 0.76442 0.0
O37 O 0.44086 0.63627 0.71089 0.0
O38 O 0.40764 0.65372 0.73165 0.0
In39 In 0.62433 0.18801 0.00934 0.0
O40 O 0.66202 0.16509 0.01086 0.0
O41 O 0.65838 0.19616 0.97649 0.0
C42 C 0.59505 0.16437 0.05581 0.0
C43 C 0.60131 0.17316 0.95202 0.0
C44 C 0.62338 0.23568 0.03516 0.0
O45 O 0.61882 0.16685 0.06021 0.0
O46 O 0.58655 0.17358 0.02854 0.0
O47 O 0.60983 0.22909 0.01018 0.0
O48 O 0.63755 0.21831 0.04682 0.0
C49 C 0.67207 0.17822 0.98746 0.0
O50 O 0.60538 0.19642 0.95859 0.0
O51 O 0.60884 0.15753 0.97435 0.0
In52 In 0.06247 0.61867 0.21321 0.0
O53 O 0.08404 0.58103 0.20691 0.0
O54 O 0.04898 0.5816 0.23465 0.0
C55 C 0.08627 0.6521 0.17262 0.0
C56 C 0.07868 0.63212 0.27522 0.0
C57 C 0.01626 0.61834 0.1837 0.0
O58 O 0.08773 0.62835 0.16752 0.0
O59 O 0.07331 0.65863 0.1982 0.0
O60 O 0.01976 0.62826 0.21265 0.0
O61 O 0.03599 0.60912 0.17003 0.0
C62 C 0.06761 0.56868 0.2238 0.0
O63 O 0.05653 0.63785 0.26479 0.0
O64 O 0.09245 0.62031 0.2541 0.0
In65 In 0.63201 0.79498 0.46603 0.0
O66 O 0.61137 0.78447 0.51523 0.0
O67 O 0.63071 0.82019 0.51254 0.0
C68 C 0.62984 0.75159 0.43015 0.0
C69 C 0.68248 0.79752 0.47585 0.0
C70 C 0.59899 0.82266 0.42865 0.0
O71 O 0.62063 0.75317 0.45982 0.0
O72 O 0.63993 0.77176 0.41905 0.0
O73 O 0.62278 0.82381 0.42356 0.0
O74 O 0.59238 0.80836 0.4528 0.0
C75 C 0.61741 0.80501 0.53003 0.0
O76 O 0.66995 0.81648 0.46485 0.0
O77 O 0.66951 0.77776 0.4817 0.0
In78 In 0.43707 0.38529 0.72223 0.0
O79 O 0.41051 0.41773 0.70587 0.0
O80 O 0.4365 0.42433 0.74662 0.0
C81 C 0.41951 0.34371 0.68939 0.0
C82 C 0.43007 0.36936 0.78627 0.0
C83 C 0.48079 0.39344 0.68779 0.0
O84 O 0.40903 0.36528 0.68581 0.0
O85 O 0.4381 0.34336 0.70959 0.0
O86 O 0.48071 0.38563 0.71814 0.0
O87 O 0.45902 0.39778 0.67556 0.0
C88 C 0.41912 0.43312 0.72776 0.0
O89 O 0.45185 0.36963 0.77243 0.0
O90 O 0.41193 0.37728 0.7679 0.0
In91 In 0.86669 0.18399 0.94741 0.0
O92 O 0.86015 0.19779 0.00165 0.0
O93 O 0.88981 0.17073 0.99287 0.0
C94 C 0.8663 0.23123 0.92007 0.0
C95 C 0.81915 0.16434 0.94991 0.0
C96 C 0.90241 0.15988 0.90958 0.0
O97 O 0.8754 0.2269 0.94918 0.0
O98 O 0.85773 0.21186 0.90508 0.0
O99 O 0.87893 0.15533 0.90601 0.0
O100 O 0.9076 0.17594 0.93227 0.0
C101 C 0.87769 0.18413 0.01409 0.0
O102 O 0.83769 0.15352 0.96447 0.0
O103 O 0.82503 0.18386 0.93307 0.0
In104 In 0.94415 0.62797 0.74218 0.0
O105 O 0.94793 0.64571 0.79475 0.0
O106 O 0.91143 0.63184 0.77879 0.0
C107 C 0.99173 0.6253 0.71669 0.0
C108 C 0.93529 0.57866 0.75414 0.0
C109 C 0.92259 0.6638 0.70259 0.0
O110 O 0.98699 0.63715 0.74398 0.0
O111 O 0.97265 0.61506 0.70291 0.0
O112 O 0.91976 0.64032 0.69639 0.0
O113 O 0.93601 0.66884 0.72825 0.0
C114 C 0.92465 0.64195 0.80202 0.0
O115 O 0.92561 0.58987 0.72869 0.0
O116 O 0.94949 0.59215 0.77268 0.0
In117 In 0.1185 0.18157 0.45994 0.0
O118 O 0.0982 0.19411 0.50863 0.0
O119 O 0.11117 0.15557 0.50427 0.0
C120 C 0.12236 0.22419 0.42246 0.0
C121 C 0.16726 0.17276 0.47624 0.0
C122 C 0.08436 0.1575 0.42063 0.0
O123 O 0.11237 0.22441 0.45175 0.0
O124 O 0.13063 0.20279 0.41287 0.0
O125 O 0.10806 0.15366 0.41741 0.0
O126 O 0.07817 0.17256 0.44422 0.0
C127 C 0.10058 0.17241 0.52244 0.0
O128 O 0.15466 0.15706 0.45851 0.0
O129 O 0.15537 0.19273 0.48463 0.0
In130 In 0.57193 0.37243 0.20899 0.0
O131 O 0.56731 0.4113 0.18466 0.0
O132 O 0.59278 0.40867 0.22625 0.0
C133 C 0.60255 0.34878 0.16352 0.0
C134 C 0.57256 0.35946 0.27515 0.0
C135 C 0.52529 0.35532 0.19181 0.0
O136 O 0.58322 0.3616 0.15516 0.0
O137 O 0.60747 0.34915 0.19488 0.0
O138 O 0.54388 0.3406 0.19741 0.0
O139 O 0.52996 0.37864 0.19633 0.0
C140 C 0.58195 0.42282 0.20472 0.0
O141 O 0.55638 0.37478 0.26297 0.0
O142 O 0.58839 0.35071 0.25395 0.0
In143 In 0.38579 0.82218 0.97197 0.0
O144 O 0.40502 0.80866 0.02125 0.0
O145 O 0.38895 0.84588 0.01987 0.0
C146 C 0.39681 0.77646 0.94416 0.0
C147 C 0.33506 0.82801 0.97932 0.0
C148 C 0.41135 0.85258 0.9281 0.0
O149 O 0.41277 0.78882 0.96163 0.0
O150 O 0.37513 0.78678 0.94176 0.0
O151 O 0.39366 0.83798 0.91868 0.0
O152 O 0.41528 0.85267 0.95965 0.0
C153 C 0.4006 0.8292 0.03697 0.0
O154 O 0.3487 0.84495 0.96553 0.0
O155 O 0.347 0.80836 0.9888 0.0
In156 In 0.94118 0.37837 0.785 0.0
O157 O 0.92727 0.41867 0.79728 0.0
O158 O 0.94897 0.41295 0.75219 0.0
C159 C 0.9102 0.35788 0.83265 0.0
C160 C 0.92999 0.35726 0.72483 0.0
C161 C 0.98771 0.36538 0.80817 0.0
O162 O 0.92861 0.3722 0.84021 0.0
O163 O 0.90654 0.35539 0.80122 0.0
O164 O 0.97171 0.34932 0.79763 0.0
O165 O 0.98073 0.38835 0.80557 0.0
C166 C 0.93679 0.4283 0.77074 0.0
O167 O 0.9512 0.35347 0.73924 0.0
O168 O 0.91466 0.37138 0.74095 0.0
In169 In 0.36126 0.18676 0.53749 0.0
O170 O 0.35399 0.18713 0.48069 0.0
O171 O 0.3926 0.18813 0.49679 0.0
C172 C 0.37571 0.23128 0.56634 0.0
C173 C 0.31038 0.18026 0.53942 0.0
C174 C 0.38143 0.14738 0.57256 0.0
O175 O 0.36217 0.23057 0.53989 0.0
O176 O 0.38248 0.20975 0.5773 0.0
O177 O 0.36574 0.16284 0.58552 0.0
O178 O 0.38615 0.15124 0.54156 0.0
C179 C 0.37716 0.18741 0.47221 0.0
O180 O 0.32522 0.1638 0.52691 0.0
O181 O 0.32131 0.19949 0.55191 0.0
In182 In 0.5559 0.61639 0.2677 0.0
O183 O 0.55324 0.61572 0.21011 0.0
O184 O 0.57209 0.64725 0.23271 0.0
C185 C 0.508 0.62939 0.28633 0.0
C186 C 0.56999 0.56743 0.25884 0.0
C187 C 0.58251 0.636 0.31971 0.0
O188 O 0.52231 0.64386 0.26935 0.0
O189 O 0.51745 0.6078 0.29282 0.0
O190 O 0.56279 0.62262 0.3241 0.0
O191 O 0.58946 0.63839 0.28912 0.0
C192 C 0.56506 0.63636 0.20573 0.0
O193 O 0.58341 0.58283 0.27569 0.0
O194 O 0.54941 0.57651 0.24755 0.0
In195 In 0.13623 0.8177 0.03368 0.0
O196 O 0.1171 0.80474 0.98447 0.0
O197 O 0.12493 0.84434 0.99103 0.0
C198 C 0.1285 0.77635 0.07244 0.0
C199 C 0.18668 0.81752 0.02062 0.0
C200 C 0.10799 0.84767 0.07432 0.0
O201 O 0.12229 0.77672 0.04138 0.0
O202 O 0.13878 0.79647 0.08329 0.0
O203 O 0.13195 0.84606 0.07782 0.0
O204 O 0.09888 0.83501 0.04996 0.0
C205 C 0.11558 0.82707 0.97251 0.0
O206 O 0.17509 0.8378 0.02865 0.0
O207 O 0.17285 0.79798 0.01912 0.0
In208 In 0.57041 0.87831 0.77379 0.0
O209 O 0.59103 0.91574 0.7853 0.0
O210 O 0.56352 0.91513 0.74541 0.0
C211 C 0.5934 0.84594 0.8176 0.0
C212 C 0.58718 0.8613 0.7136 0.0
C213 C 0.52199 0.87741 0.79744 0.0
O214 O 0.59097 0.86936 0.82418 0.0
O215 O 0.58495 0.83929 0.78906 0.0
O216 O 0.52844 0.8658 0.77067 0.0
O217 O 0.53973 0.88963 0.81146 0.0
C218 C 0.57951 0.92792 0.76218 0.0
O219 O 0.5646 0.85739 0.72378 0.0
O220 O 0.6012 0.87362 0.73391 0.0
In221 In 0.37041 0.31167 0.03258 0.0
O222 O 0.3893 0.30792 0.98047 0.0
O223 O 0.37439 0.34417 0.99512 0.0
C224 C 0.37121 0.26383 0.05716 0.0
C225 C 0.31987 0.31797 0.02852 0.0
C226 C 0.4048 0.33156 0.07548 0.0
O227 O 0.38029 0.26908 0.02817 0.0
O228 O 0.36082 0.28234 0.07226 0.0
O229 O 0.38327 0.34196 0.07115 0.0
O230 O 0.40899 0.31224 0.05732 0.0
C231 C 0.38534 0.33098 0.97259 0.0
O232 O 0.33255 0.32632 0.05344 0.0
O233 O 0.33267 0.30652 0.006 0.0
In234 In 0.92137 0.13037 0.26581 0.0
O235 O 0.89761 0.09354 0.2626 0.0
O236 O 0.937 0.09247 0.24979 0.0
C237 C 0.89177 0.16236 0.3012 0.0
C238 C 0.91799 0.14873 0.20242 0.0
C239 C 0.96103 0.13291 0.309 0.0
O240 O 0.89123 0.13855 0.30619 0.0
O241 O 0.90652 0.16973 0.27785 0.0
O242 O 0.96309 0.13976 0.27831 0.0
O243 O 0.93932 0.12482 0.3174 0.0
C244 C 0.91641 0.08037 0.2527 0.0
O245 O 0.93914 0.1467 0.21765 0.0
O246 O 0.89873 0.14172 0.2193 0.0
In247 In 0.12061 0.67009 0.53434 0.0
O248 O 0.10147 0.68608 0.48651 0.0
O249 O 0.11843 0.64932 0.48375 0.0
C250 C 0.10423 0.71623 0.55427 0.0
C251 C 0.17194 0.66601 0.53317 0.0
C252 C 0.09926 0.63815 0.58034 0.0
O253 O 0.12712 0.71216 0.5457 0.0
O254 O 0.08951 0.69733 0.55119 0.0
O255 O 0.11697 0.65329 0.58777 0.0
O256 O 0.09343 0.63798 0.54934 0.0
C257 C 0.10641 0.66677 0.46859 0.0
O258 O 0.15769 0.65199 0.51549 0.0
O259 O 0.1603 0.68157 0.55202 0.0
In260 In 0.53931 0.11774 0.70756 0.0
O261 O 0.53466 0.12444 0.76426 0.0
O262 O 0.56422 0.14455 0.73843 0.0
C263 C 0.48984 0.10809 0.69387 0.0
C264 C 0.56248 0.07173 0.70961 0.0
C265 C 0.5498 0.15422 0.66146 0.0
O266 O 0.49668 0.12154 0.71883 0.0
O267 O 0.50798 0.09862 0.67703 0.0
O268 O 0.56559 0.13666 0.6683 0.0
O269 O 0.52918 0.1532 0.67787 0.0
C270 C 0.55293 0.14006 0.76613 0.0
O271 O 0.55809 0.08315 0.68199 0.0
O272 O 0.55585 0.0838 0.7358 0.0
In273 In 0.12605 0.28746 0.97553 0.0
O274 O 0.10765 0.27635 0.02604 0.0
O275 O 0.1102 0.31577 0.01344 0.0
C276 C 0.13628 0.24105 0.94975 0.0
C277 C 0.17374 0.30499 0.98348 0.0
C278 C 0.0907 0.30332 0.93069 0.0
O279 O 0.12484 0.24382 0.97781 0.0
O280 O 0.14323 0.26155 0.93587 0.0
O281 O 0.10948 0.31707 0.93883 0.0
O282 O 0.08961 0.28214 0.94572 0.0
C283 C 0.10324 0.29914 0.03469 0.0
O284 O 0.16059 0.30992 0.95744 0.0
O285 O 0.16275 0.29149 0.00559 0.0
In286 In 0.94666 0.8821 0.22604 0.0
O287 O 0.92323 0.91803 0.21559 0.0
O288 O 0.96068 0.92138 0.23704 0.0
C289 C 0.92606 0.84139 0.19594 0.0
C290 C 0.93448 0.8732 0.29111 0.0
C291 C 0.98757 0.88254 0.18535 0.0
O292 O 0.91681 0.86351 0.19151 0.0
O293 O 0.9446 0.84018 0.21634 0.0
O294 O 0.98964 0.87745 0.21679 0.0
O295 O 0.9652 0.88745 0.17532 0.0
C296 C 0.94083 0.93248 0.22637 0.0
O297 O 0.9567 0.86861 0.27988 0.0
O298 O 0.91896 0.88201 0.26957 0.0
In299 In 0.36324 0.6876 0.45481 0.0
O300 O 0.37746 0.70089 0.50687 0.0
O301 O 0.38868 0.66413 0.48979 0.0
C302 C 0.35657 0.73247 0.42253 0.0
C303 C 0.31572 0.67257 0.4716 0.0
C304 C 0.39388 0.66506 0.40909 0.0
O305 O 0.36967 0.7305 0.44935 0.0
O306 O 0.34632 0.71201 0.41271 0.0
O307 O 0.376 0.65305 0.42355 0.0
O308 O 0.39633 0.68803 0.41808 0.0
C309 C 0.38942 0.68053 0.51315 0.0
O310 O 0.3275 0.66309 0.44662 0.0
O311 O 0.32787 0.6894 0.48758 0.0
In312 In 0.44754 0.1325 0.23109 0.0
O313 O 0.46027 0.14838 0.2826 0.0
O314 O 0.42054 0.14326 0.27337 0.0
C315 C 0.49258 0.1371 0.19841 0.0
C316 C 0.43886 0.08273 0.2438 0.0
C317 C 0.419 0.16263 0.1906 0.0
O318 O 0.48834 0.14805 0.22646 0.0
O319 O 0.47433 0.12384 0.18746 0.0
O320 O 0.42334 0.1396 0.18328 0.0
O321 O 0.42904 0.17024 0.21783 0.0
C322 C 0.4377 0.15036 0.29374 0.0
O323 O 0.42243 0.09683 0.22977 0.0
O324 O 0.45961 0.09364 0.25077 0.0
In325 In 0.62362 0.67478 0.95326 0.0
O326 O 0.60598 0.68537 0.00433 0.0
O327 O 0.61052 0.6459 0.99196 0.0
C328 C 0.62491 0.71899 0.91824 0.0
C329 C 0.67249 0.66613 0.97007 0.0
C330 C 0.5913 0.64867 0.91382 0.0
O331 O 0.61422 0.71744 0.94696 0.0
O332 O 0.63504 0.69862 0.908 0.0
O333 O 0.61515 0.64533 0.91181 0.0
O334 O 0.58401 0.66491 0.93537 0.0
C335 C 0.60313 0.66234 0.0133 0.0
O336 O 0.66188 0.65435 0.94593 0.0
O337 O 0.65858 0.68211 0.9852 0.0
In338 In 0.06461 0.86786 0.72223 0.0
O339 O 0.0524 0.86263 0.77723 0.0
O340 O 0.08138 0.83802 0.75768 0.0
C341 C 0.01828 0.88099 0.69773 0.0
C342 C 0.08843 0.91277 0.73217 0.0
C343 C 0.08198 0.83453 0.67569 0.0
O344 O 0.02087 0.86427 0.72062 0.0
O345 O 0.03873 0.8916 0.68885 0.0
O346 O 0.09641 0.85117 0.68871 0.0
O347 O 0.05942 0.83461 0.68672 0.0
C348 C 0.06811 0.84479 0.78293 0.0
O349 O 0.08256 0.90471 0.70304 0.0
O350 O 0.08366 0.89755 0.75603 0.0
In351 In 0.86419 0.3076 0.47882 0.0
O352 O 0.88466 0.30059 0.52906 0.0
O353 O 0.86615 0.33651 0.52062 0.0
C354 C 0.86527 0.26354 0.44443 0.0
C355 C 0.81467 0.31123 0.49384 0.0
C356 C 0.89782 0.33373 0.44139 0.0
O357 O 0.8743 0.26523 0.47419 0.0
O358 O 0.85577 0.28384 0.43277 0.0
O359 O 0.8742 0.33447 0.43479 0.0
O360 O 0.90401 0.32037 0.46671 0.0
C361 C 0.87877 0.32243 0.54055 0.0
O362 O 0.82548 0.32758 0.47497 0.0
O363 O 0.8287 0.2931 0.50368 0.0
In364 In 0.43407 0.88419 0.29382 0.0
O365 O 0.44226 0.86261 0.2442 0.0
O366 O 0.41219 0.89002 0.24508 0.0
C367 C 0.47456 0.86997 0.33136 0.0
C368 C 0.43924 0.93514 0.2908 0.0
C369 C 0.39871 0.85691 0.32762 0.0
O370 O 0.47513 0.86897 0.29922 0.0
O371 O 0.45394 0.87808 0.34383 0.0
O372 O 0.40419 0.87954 0.33581 0.0
O373 O 0.41014 0.84868 0.30161 0.0
C374 C 0.42471 0.87393 0.22801 0.0
O375 O 0.41788 0.92473 0.29613 0.0
O376 O 0.45773 0.91991 0.28767 0.0
In377 In 0.86288 0.68429 0.05214 0.0
O378 O 0.88725 0.6985 0.00792 0.0
O379 O 0.87146 0.6611 0.00504 0.0
C380 C 0.87348 0.73107 0.07643 0.0
C381 C 0.81283 0.67576 0.04223 0.0
C382 C 0.88566 0.65258 0.09694 0.0
O383 O 0.8898 0.7136 0.07323 0.0
O384 O 0.85149 0.72556 0.06566 0.0
O385 O 0.88857 0.65067 0.06526 0.0
O386 O 0.8696 0.66918 0.10588 0.0
C387 C 0.88469 0.67821 0.99096 0.0
O388 O 0.82324 0.67208 0.07072 0.0
O389 O 0.82743 0.68407 0.01943 0.0
In390 In 0.07265 0.11082 0.77727 0.0
O391 O 0.06366 0.13418 0.72953 0.0
O392 O 0.09693 0.1106 0.73016 0.0
C393 C 0.03011 0.11885 0.81461 0.0
C394 C 0.07453 0.0606 0.76456 0.0
C395 C 0.10631 0.13894 0.81243 0.0
O396 O 0.03051 0.12285 0.78296 0.0
O397 O 0.05071 0.11053 0.82676 0.0
O398 O 0.10172 0.11599 0.81994 0.0
O399 O 0.09443 0.14735 0.78692 0.0
C400 C 0.08289 0.1257 0.71356 0.0
O401 O 0.09131 0.07156 0.78231 0.0
O402 O 0.05639 0.07468 0.75497 0.0
In403 In 0.61728 0.31606 0.53059 0.0
O404 O 0.65846 0.31154 0.54629 0.0
O405 O 0.64991 0.3417 0.51223 0.0
C406 C 0.59616 0.3466 0.5782 0.0
C407 C 0.60338 0.31728 0.4647 0.0
C408 C 0.60317 0.26884 0.55046 0.0
O409 O 0.61383 0.33107 0.58496 0.0
O410 O 0.58978 0.34724 0.54735 0.0
O411 O 0.5874 0.28685 0.54699 0.0
O412 O 0.62581 0.27446 0.54289 0.0
C413 C 0.6668 0.32949 0.52821 0.0
O414 O 0.61835 0.30062 0.47646 0.0
O415 O 0.59496 0.3329 0.48635 0.0
H416 H 0.05664 0.31199 0.18176 0.0
H417 H 0.07997 0.38963 0.16329 0.0
H418 H 0.09364 0.37829 0.106 0.0
H419 H 0.101 0.3461 0.06235 0.0
H420 H 0.08049 0.26775 0.08121 0.0
H421 H 0.06361 0.27951 0.13714 0.0
C422 C 0.06447 0.3264 0.16497 0.0
C423 C 0.0673 0.35157 0.17658 0.0
C424 C 0.07292 0.3196 0.1323 0.0
C425 C 0.07771 0.37009 0.15486 0.0
C426 C 0.08553 0.36364 0.12214 0.0
C427 C 0.09266 0.33161 0.07859 0.0
C428 C 0.09196 0.30612 0.06775 0.0
C429 C 0.08355 0.33841 0.11079 0.0
C430 C 0.08127 0.28752 0.08911 0.0
C431 C 0.07163 0.29423 0.12104 0.0
H432 H 0.95651 0.84154 0.33792 0.0
H433 H 0.89439 0.8946 0.3235 0.0
H434 H 0.87904 0.88615 0.3808 0.0
H435 H 0.88215 0.86278 0.43409 0.0
H436 H 0.94256 0.80793 0.44881 0.0
H437 H 0.95971 0.81793 0.39238 0.0
C438 C 0.93976 0.85136 0.34754 0.0
C439 C 0.9266 0.86866 0.32659 0.0
C440 C 0.93065 0.84599 0.38044 0.0
C441 C 0.90478 0.88111 0.33913 0.0
C442 C 0.89597 0.87631 0.37189 0.0
C443 C 0.89916 0.85308 0.42507 0.0
C444 C 0.91109 0.83468 0.44555 0.0
C445 C 0.90859 0.85863 0.3926 0.0
C446 C 0.93301 0.82216 0.43342 0.0
C447 C 0.94282 0.82789 0.4012 0.0
H448 H 0.44051 0.63582 0.64491 0.0
H449 H 0.38876 0.68927 0.69194 0.0
H450 H 0.37621 0.70536 0.63605 0.0
H451 H 0.37771 0.70205 0.57373 0.0
H452 H 0.4268 0.64608 0.5269 0.0
H453 H 0.44289 0.63333 0.58269 0.0
C454 C 0.4267 0.65119 0.64289 0.0
C455 C 0.41554 0.66135 0.6724 0.0
C456 C 0.41909 0.65983 0.61069 0.0
C457 C 0.39751 0.68109 0.6695 0.0
C458 C 0.39035 0.69029 0.63758 0.0
C459 C 0.39224 0.68736 0.57579 0.0
C460 C 0.40116 0.67506 0.54638 0.0
C461 C 0.40071 0.67952 0.60799 0.0
C462 C 0.41968 0.65579 0.54929 0.0
C463 C 0.42882 0.64846 0.58114 0.0
H464 H 0.54709 0.11975 0.8286 0.0
H465 H 0.57854 0.18453 0.77582 0.0
H466 H 0.59481 0.20162 0.82948 0.0
H467 H 0.60167 0.19702 0.89108 0.0
H468 H 0.57375 0.13006 0.94258 0.0
H469 H 0.5544 0.11487 0.88982 0.0
C470 C 0.55728 0.13773 0.82899 0.0
C471 C 0.56152 0.151 0.79855 0.0
C472 C 0.56728 0.14692 0.85964 0.0
C473 C 0.5751 0.17405 0.7991 0.0
C474 C 0.58438 0.18379 0.8297 0.0
C475 C 0.59116 0.17922 0.89068 0.0
C476 C 0.58898 0.16468 0.92048 0.0
C477 C 0.58082 0.17024 0.86007 0.0
C478 C 0.57567 0.14148 0.91978 0.0
C479 C 0.56461 0.13282 0.8897 0.0
H480 H 0.05825 0.66497 0.32162 0.0
H481 H 0.11916 0.61055 0.30686 0.0
H482 H 0.13311 0.61659 0.36533 0.0
H483 H 0.12736 0.63625 0.42112 0.0
H484 H 0.06822 0.6924 0.43598 0.0
H485 H 0.05422 0.68688 0.37702 0.0
C486 C 0.07462 0.65455 0.33126 0.0
C487 C 0.08756 0.63725 0.31008 0.0
C488 C 0.0828 0.65837 0.36489 0.0
C489 C 0.10889 0.62401 0.32268 0.0
C490 C 0.11685 0.62738 0.35614 0.0
C491 C 0.11143 0.64729 0.4114 0.0
C492 C 0.09866 0.6645 0.43277 0.0
C493 C 0.10383 0.64432 0.37752 0.0
C494 C 0.0783 0.679 0.41986 0.0
C495 C 0.07027 0.67581 0.38624 0.0
H496 H 0.63825 0.84009 0.57161 0.0
H497 H 0.57826 0.78408 0.56635 0.0
H498 H 0.56336 0.79663 0.62297 0.0
H499 H 0.56688 0.82448 0.67332 0.0
H500 H 0.62838 0.87888 0.67911 0.0
H501 H 0.64326 0.86601 0.62287 0.0
C502 C 0.62195 0.8306 0.58291 0.0
C503 C 0.60922 0.81135 0.56486 0.0
C504 C 0.61376 0.83767 0.61548 0.0
C505 C 0.58834 0.79896 0.57987 0.0
C506 C 0.57979 0.80618 0.61214 0.0
C507 C 0.58354 0.83345 0.66221 0.0
C508 C 0.59643 0.8527 0.68013 0.0
C509 C 0.59224 0.82566 0.63007 0.0
C510 C 0.61816 0.864 0.66575 0.0
C511 C 0.62665 0.8567 0.6336 0.0
H512 H 0.42286 0.31571 0.92943 0.0
H513 H 0.36141 0.3699 0.94055 0.0
H514 H 0.36964 0.38643 0.88358 0.0
H515 H 0.39366 0.38483 0.83009 0.0
H516 H 0.45744 0.33334 0.82029 0.0
H517 H 0.44911 0.3164 0.87726 0.0
C518 C 0.41137 0.33117 0.9193 0.0
C519 C 0.39147 0.34148 0.93889 0.0
C520 C 0.41662 0.34101 0.88683 0.0
C521 C 0.37688 0.36172 0.92585 0.0
C522 C 0.38151 0.37112 0.89328 0.0
C523 C 0.40573 0.36993 0.84054 0.0
C524 C 0.42594 0.36012 0.82113 0.0
C525 C 0.40121 0.36081 0.87348 0.0
C526 C 0.44175 0.34113 0.83495 0.0
C527 C 0.43696 0.33142 0.86741 0.0
H528 H 0.92126 0.16902 0.04501 0.0
H529 H 0.84468 0.19515 0.06533 0.0
H530 H 0.8508 0.18746 0.12608 0.0
H531 H 0.87692 0.17038 0.1727 0.0
H532 H 0.95424 0.14633 0.15298 0.0
H533 H 0.94898 0.15632 0.09261 0.0
C534 C 0.90604 0.17324 0.06285 0.0
C535 C 0.88248 0.18236 0.05086 0.0
C536 C 0.9098 0.16905 0.09769 0.0
C537 C 0.86297 0.18811 0.07409 0.0
C538 C 0.86642 0.18361 0.10875 0.0
C539 C 0.89265 0.16756 0.15517 0.0
C540 C 0.91581 0.15739 0.16698 0.0
C541 C 0.88958 0.17364 0.12072 0.0
C542 C 0.93623 0.15414 0.14431 0.0
C543 C 0.9332 0.15974 0.10984 0.0
H544 H 0.94296 0.67401 0.85064 0.0
H545 H 0.88214 0.62107 0.82913 0.0
H546 H 0.86482 0.62725 0.88602 0.0
H547 H 0.86721 0.64709 0.94206 0.0
H548 H 0.92592 0.70227 0.96324 0.0
H549 H 0.9439 0.69589 0.90631 0.0
C550 C 0.92589 0.66393 0.85849 0.0
C551 C 0.91388 0.64706 0.83589 0.0
C552 C 0.91575 0.66791 0.89112 0.0
C553 C 0.89165 0.63425 0.8461 0.0
C554 C 0.88178 0.63768 0.87864 0.0
C555 C 0.88399 0.65766 0.9342 0.0
C556 C 0.89545 0.67489 0.95672 0.0
C557 C 0.89374 0.65434 0.90138 0.0
C558 C 0.91687 0.68884 0.94619 0.0
C559 C 0.92713 0.68518 0.91373 0.0
H560 H 0.11721 0.13364 0.56104 0.0
H561 H 0.0684 0.1999 0.56363 0.0
H562 H 0.05793 0.19112 0.62332 0.0
H563 H 0.06333 0.16451 0.67502 0.0
H564 H 0.11449 0.09992 0.6716 0.0
H565 H 0.12343 0.10819 0.61196 0.0
C566 C 0.10413 0.14609 0.57457 0.0
C567 C 0.09339 0.16722 0.558 0.0
C568 C 0.09875 0.14127 0.60878 0.0
C569 C 0.07682 0.18344 0.57595 0.0
C570 C 0.07087 0.17843 0.61001 0.0
C571 C 0.07641 0.15232 0.66111 0.0
C572 C 0.08822 0.13165 0.67764 0.0
C573 C 0.08182 0.15742 0.62675 0.0
C574 C 0.10526 0.11604 0.65949 0.0
C575 C 0.11033 0.12068 0.62535 0.0
H576 H 0.57021 0.34991 0.43459 0.0
H577 H 0.62472 0.29034 0.41273 0.0
H578 H 0.61924 0.29752 0.35184 0.0
H579 H 0.60094 0.32251 0.30502 0.0
H580 H 0.54617 0.38184 0.32684 0.0
H581 H 0.54972 0.37293 0.3876 0.0
C582 C 0.5807 0.33834 0.41648 0.0
C583 C 0.59796 0.31975 0.42808 0.0
C584 C 0.57755 0.34265 0.38156 0.0
C585 C 0.61133 0.30479 0.40438 0.0
C586 C 0.60829 0.30895 0.36958 0.0
C587 C 0.58969 0.33339 0.32309 0.0
C588 C 0.5735 0.35294 0.31157 0.0
C589 C 0.59178 0.32812 0.35792 0.0
C590 C 0.55883 0.36674 0.33515 0.0
C591 C 0.56088 0.36168 0.36988 0.0
H592 H 0.44075 0.83411 0.18849 0.0
H593 H 0.39524 0.90281 0.18666 0.0
H594 H 0.38425 0.89514 0.12745 0.0
H595 H 0.38697 0.86893 0.07647 0.0
H596 H 0.43093 0.79933 0.07753 0.0
H597 H 0.4431 0.80728 0.13673 0.0
C598 C 0.42853 0.8474 0.17501 0.0
C599 C 0.41886 0.869 0.1919 0.0
C600 C 0.42195 0.84269 0.14091 0.0
C601 C 0.40289 0.886 0.17426 0.0
C602 C 0.39659 0.88166 0.14038 0.0
C603 C 0.39927 0.8555 0.0896 0.0
C604 C 0.4081 0.83363 0.07267 0.0
C605 C 0.40591 0.86006 0.12352 0.0
C606 C 0.42388 0.81632 0.09008 0.0
C607 C 0.43085 0.82087 0.12389 0.0
H608 H 0.89237 0.37322 0.68373 0.0
H609 H 0.95366 0.31847 0.69045 0.0
H610 H 0.94273 0.30197 0.63399 0.0
H611 H 0.91579 0.30374 0.58238 0.0
H612 H 0.85628 0.36054 0.5757 0.0
H613 H 0.86645 0.37563 0.63259 0.0
C614 C 0.90327 0.35759 0.67291 0.0
C615 C 0.92365 0.34694 0.69113 0.0
C616 C 0.89722 0.34864 0.64046 0.0
C617 C 0.93785 0.32693 0.67674 0.0
C618 C 0.9316 0.31751 0.64455 0.0
C619 C 0.90507 0.31935 0.59354 0.0
C620 C 0.88533 0.33101 0.57502 0.0
C621 C 0.91134 0.32829 0.62613 0.0
C622 C 0.87165 0.35136 0.58947 0.0
C623 C 0.8774 0.35997 0.622 0.0
H624 H 0.39117 0.16344 0.31708 0.0
H625 H 0.47016 0.1587 0.34713 0.0
H626 H 0.45867 0.17171 0.40499 0.0
H627 H 0.42556 0.18174 0.44776 0.0
H628 H 0.34671 0.18612 0.41657 0.0
H629 H 0.35883 0.17619 0.35829 0.0
C630 C 0.40592 0.16536 0.33625 0.0
C631 C 0.43142 0.15987 0.32803 0.0
C632 C 0.39918 0.17279 0.36922 0.0
C633 C 0.45036 0.16274 0.35296 0.0
C634 C 0.44379 0.17014 0.38601 0.0
C635 C 0.41111 0.18084 0.42808 0.0
C636 C 0.38526 0.1845 0.4365 0.0
C637 C 0.41819 0.17485 0.39455 0.0
C638 C 0.36672 0.18329 0.41078 0.0
C639 C 0.37361 0.17754 0.37745 0.0
H640 H 0.56116 0.61104 0.14633 0.0
H641 H 0.58311 0.68355 0.18885 0.0
H642 H 0.59521 0.69884 0.13228 0.0
H643 H 0.60136 0.6907 0.07104 0.0
H644 H 0.58189 0.61699 0.02995 0.0
H645 H 0.56684 0.60308 0.08563 0.0
C646 C 0.5684 0.63027 0.14318 0.0
C647 C 0.57122 0.64618 0.1716 0.0
C648 C 0.5758 0.63866 0.11086 0.0
C649 C 0.58082 0.67096 0.16726 0.0
C650 C 0.58773 0.67969 0.13496 0.0
C651 C 0.59357 0.6717 0.07432 0.0
C652 C 0.59268 0.65488 0.04657 0.0
C653 C 0.58555 0.6636 0.10662 0.0
C654 C 0.58284 0.63022 0.05106 0.0
C655 C 0.57423 0.62225 0.08285 0.0
H656 H 0.06394 0.87146 0.84097 0.0
H657 H 0.08606 0.79801 0.80154 0.0
H658 H 0.10093 0.78502 0.85802 0.0
H659 H 0.11069 0.79602 0.91764 0.0
H660 H 0.09282 0.87141 0.95455 0.0
H661 H 0.07327 0.88229 0.90013 0.0
C662 C 0.07154 0.85244 0.84497 0.0
C663 C 0.07369 0.83557 0.81744 0.0
C664 C 0.08114 0.84564 0.87695 0.0
C665 C 0.08413 0.8112 0.82258 0.0
C666 C 0.09273 0.80385 0.85476 0.0
C667 C 0.10232 0.81472 0.91372 0.0
C668 C 0.10319 0.83293 0.93987 0.0
C669 C 0.09183 0.82112 0.88197 0.0
C670 C 0.09252 0.85719 0.93458 0.0
C671 C 0.08127 0.86339 0.90356 0.0
H672 H 0.10849 0.30094 0.30215 0.0
H673 H 0.08767 0.35113 0.3844 0.0
H674 H 0.10016 0.31859 0.42578 0.0
H675 H 0.11132 0.27369 0.43792 0.0
H676 H 0.13267 0.22415 0.35501 0.0
H677 H 0.12586 0.25864 0.31461 0.0
C678 C 0.10725 0.30492 0.32916 0.0
C679 C 0.09692 0.32814 0.34031 0.0
C680 C 0.11422 0.28611 0.35267 0.0
C681 C 0.09561 0.33331 0.37529 0.0
C682 C 0.10252 0.31464 0.39893 0.0
C683 C 0.11485 0.27063 0.41107 0.0
C684 C 0.12202 0.24633 0.39939 0.0
C685 C 0.11094 0.29062 0.38785 0.0
C686 C 0.12691 0.24265 0.36462 0.0
C687 C 0.12298 0.26233 0.34144 0.0
H688 H 0.93872 0.88198 0.58051 0.0
H689 H 0.89608 0.83761 0.65304 0.0
H690 H 0.92762 0.84705 0.69704 0.0
H691 H 0.97101 0.86182 0.71151 0.0
H692 H 0.01267 0.90734 0.63893 0.0
H693 H 0.97764 0.90404 0.59865 0.0
C694 C 0.93602 0.87503 0.60623 0.0
C695 C 0.91545 0.8589 0.61355 0.0
C696 C 0.95421 0.88049 0.63128 0.0
C697 C 0.91185 0.85012 0.64693 0.0
C698 C 0.92999 0.85532 0.672 0.0
C699 C 0.97209 0.87155 0.68723 0.0
C700 C 0.9946 0.88428 0.67793 0.0
C701 C 0.95182 0.86956 0.66402 0.0
C702 C 0.99565 0.89715 0.64659 0.0
C703 C 0.97567 0.89518 0.6234 0.0
H704 H 0.36513 0.74572 0.90808 0.0
H705 H 0.44398 0.75534 0.93686 0.0
H706 H 0.45631 0.72022 0.89954 0.0
H707 H 0.44513 0.68884 0.85596 0.0
H708 H 0.36638 0.67838 0.82756 0.0
H709 H 0.3535 0.71179 0.86763 0.0
C710 C 0.38497 0.73992 0.90646 0.0
C711 C 0.40365 0.75321 0.925 0.0
C712 C 0.39194 0.71976 0.88484 0.0
C713 C 0.42925 0.74542 0.92283 0.0
C714 C 0.43634 0.72543 0.90138 0.0
C715 C 0.42512 0.69381 0.85865 0.0
C716 C 0.40673 0.68144 0.8386 0.0
C717 C 0.41791 0.71282 0.8818 0.0
C718 C 0.38086 0.68774 0.84267 0.0
C719 C 0.37352 0.70685 0.86551 0.0
H720 H 0.59381 0.17138 0.12427 0.0
H721 H 0.55683 0.132 0.04183 0.0
H722 H 0.52306 0.11769 0.08006 0.0
H723 H 0.50181 0.12018 0.13496 0.0
H724 H 0.53607 0.16261 0.21689 0.0
H725 H 0.57319 0.17191 0.18106 0.0
C726 C 0.57864 0.15916 0.11508 0.0
C727 C 0.57774 0.15251 0.08052 0.0
C728 C 0.55865 0.15193 0.13695 0.0
C729 C 0.55781 0.13719 0.06845 0.0
C730 C 0.53848 0.12913 0.09022 0.0
C731 C 0.51752 0.13121 0.14517 0.0
C732 C 0.51616 0.14082 0.17843 0.0
C733 C 0.53833 0.13699 0.12423 0.0
C734 C 0.53665 0.15511 0.19126 0.0
C735 C 0.55785 0.16043 0.17078 0.0
H736 H 0.09955 0.69992 0.18886 0.0
H737 H 0.09746 0.64706 0.10508 0.0
H738 H 0.11075 0.681 0.06599 0.0
H739 H 0.12044 0.72658 0.05554 0.0
H740 H 0.1242 0.77828 0.14072 0.0
H741 H 0.11273 0.74392 0.17944 0.0
C742 C 0.10224 0.6958 0.16208 0.0
C743 C 0.09737 0.67123 0.14969 0.0
C744 C 0.10997 0.71523 0.14004 0.0
C745 C 0.10119 0.66592 0.11509 0.0
C746 C 0.10861 0.68533 0.09277 0.0
C747 C 0.11882 0.73018 0.0826 0.0
C748 C 0.12291 0.75488 0.09529 0.0
C749 C 0.11262 0.71019 0.1049 0.0
C750 C 0.12113 0.75937 0.1304 0.0
C751 C 0.11454 0.73978 0.15255 0.0
H752 H 0.52518 0.86531 0.31509 0.0
H753 H 0.4714 0.85674 0.39742 0.0
H754 H 0.50547 0.84285 0.43511 0.0
H755 H 0.54999 0.83171 0.44444 0.0
H756 H 0.60491 0.84108 0.36385 0.0
H757 H 0.57111 0.85655 0.32586 0.0
C758 C 0.52103 0.86037 0.34127 0.0
C759 C 0.49582 0.86183 0.3534 0.0
C760 C 0.54089 0.85274 0.36315 0.0
C761 C 0.49066 0.85574 0.38748 0.0
C762 C 0.51012 0.8478 0.40909 0.0
C763 C 0.55462 0.83735 0.41863 0.0
C764 C 0.5798 0.83516 0.40684 0.0
C765 C 0.53522 0.84609 0.39716 0.0
C766 C 0.58562 0.84273 0.37349 0.0
C767 C 0.56628 0.85138 0.35174 0.0
H768 H 0.403 0.23568 0.62406 0.0
H769 H 0.36189 0.28021 0.54988 0.0
H770 H 0.37071 0.31915 0.58222 0.0
H771 H 0.39043 0.34047 0.63189 0.0
H772 H 0.4319 0.29506 0.70488 0.0
H773 H 0.42233 0.25651 0.67292 0.0
C774 C 0.39603 0.25391 0.61484 0.0
C775 C 0.3819 0.25509 0.5846 0.0
C776 C 0.40106 0.27604 0.63355 0.0
C777 C 0.37293 0.27884 0.57307 0.0
C778 C 0.37788 0.30108 0.59161 0.0
C779 C 0.39713 0.32209 0.64086 0.0
C780 C 0.41179 0.32059 0.67071 0.0
C781 C 0.39188 0.2999 0.62199 0.0
C782 C 0.42061 0.29671 0.68193 0.0
C783 C 0.4152 0.27465 0.66365 0.0
H784 H 0.97964 0.12164 0.79727 0.0
H785 H 0.03163 0.12983 0.88153 0.0
H786 H 0.99651 0.14225 0.91859 0.0
H787 H 0.95149 0.15262 0.92665 0.0
H788 H 0.89834 0.14225 0.84435 0.0
H789 H 0.93328 0.12849 0.80699 0.0
C790 C 0.98315 0.12607 0.82377 0.0
C791 C 0.00816 0.12505 0.83661 0.0
C792 C 0.96269 0.13271 0.84526 0.0
C793 C 0.01252 0.13048 0.87108 0.0
C794 C 0.99247 0.13762 0.89229 0.0
C795 C 0.94754 0.14712 0.9006 0.0
C796 C 0.92253 0.14859 0.88809 0.0
C797 C 0.96756 0.13903 0.8796 0.0
C798 C 0.91752 0.14116 0.85448 0.0
C799 C 0.9375 0.13347 0.83311 0.0
H800 H 0.91751 0.66556 0.63365 0.0
H801 H 0.90355 0.7082 0.72551 0.0
H802 H 0.88901 0.74471 0.69231 0.0
H803 H 0.88309 0.76547 0.6377 0.0
H804 H 0.90019 0.72512 0.54495 0.0
H805 H 0.91072 0.6867 0.57781 0.0
C806 C 0.91088 0.68276 0.6462 0.0
C807 C 0.91142 0.6843 0.68186 0.0
C808 C 0.90341 0.70409 0.62683 0.0
C809 C 0.90326 0.70671 0.69805 0.0
C810 C 0.89501 0.72757 0.67911 0.0
C811 C 0.8889 0.74821 0.62457 0.0
C812 C 0.89086 0.74808 0.58899 0.0
C813 C 0.89546 0.72662 0.64356 0.0
C814 C 0.89861 0.72565 0.57239 0.0
C815 C 0.90461 0.70372 0.59115 0.0
H816 H 0.01229 0.13292 0.29719 0.0
H817 H 0.95596 0.13778 0.37695 0.0
H818 H 0.98948 0.14377 0.41909 0.0
H819 H 0.03443 0.15037 0.43282 0.0
H820 H 0.09147 0.14375 0.35436 0.0
H821 H 0.05816 0.13516 0.31219 0.0
C822 C 0.00748 0.13521 0.32383 0.0
C823 C 0.98178 0.13524 0.33399 0.0
C824 C 0.02693 0.13816 0.3481 0.0
C825 C 0.97566 0.13777 0.36857 0.0
C826 C 0.99478 0.14121 0.39268 0.0
C827 C 0.03956 0.14666 0.40656 0.0
C828 C 0.06522 0.14783 0.39655 0.0
C829 C 0.02042 0.14177 0.38267 0.0
C830 C 0.07177 0.1428 0.3626 0.0
C831 C 0.05273 0.13812 0.33847 0.0
H832 H 0.64784 0.25235 0.09172 0.0
H833 H 0.59392 0.27576 0.01491 0.0
H834 H 0.58584 0.31536 0.04574 0.0
H835 H 0.59003 0.34052 0.0978 0.0
H836 H 0.6421 0.3161 0.17626 0.0
H837 H 0.65545 0.28 0.14113 0.0
C838 C 0.63461 0.2663 0.08149 0.0
C839 C 0.62123 0.261 0.05133 0.0
C840 C 0.6297 0.28881 0.09968 0.0
C841 C 0.60427 0.2793 0.03824 0.0
C842 C 0.59963 0.30194 0.05587 0.0
C843 C 0.60472 0.32763 0.10692 0.0
C844 C 0.61488 0.33081 0.13971 0.0
C845 C 0.61165 0.30651 0.0871 0.0
C846 C 0.63393 0.314 0.15115 0.0
C847 C 0.64143 0.29326 0.13117 0.0
H848 H 0.41826 0.84159 0.86136 0.0
H849 H 0.4444 0.89105 0.94165 0.0
H850 H 0.47944 0.90576 0.9058 0.0
H851 H 0.50572 0.90016 0.85506 0.0
H852 H 0.48159 0.84856 0.77604 0.0
H853 H 0.4425 0.83927 0.80776 0.0
C854 C 0.43127 0.85605 0.87064 0.0
C855 C 0.4289 0.86515 0.90412 0.0
C856 C 0.45191 0.86374 0.8503 0.0
C857 C 0.44596 0.88371 0.916 0.0
C858 C 0.46605 0.89203 0.89558 0.0
C859 C 0.49173 0.88717 0.84449 0.0
C860 C 0.49665 0.87482 0.81348 0.0
C861 C 0.46972 0.88147 0.86321 0.0
C862 C 0.47828 0.85819 0.79999 0.0
C863 C 0.45598 0.85282 0.81817 0.0
H864 H 0.89002 0.2743 0.94231 0.0
H865 H 0.84398 0.24462 0.86053 0.0
H866 H 0.84973 0.284 0.82863 0.0
H867 H 0.87268 0.32394 0.8205 0.0
H868 H 0.92084 0.35301 0.90039 0.0
H869 H 0.90881 0.31724 0.9369 0.0
C870 C 0.88093 0.27667 0.91776 0.0
C871 C 0.86699 0.25645 0.90352 0.0
C872 C 0.88471 0.29925 0.8992 0.0
C873 C 0.85513 0.25979 0.87182 0.0
C874 C 0.85837 0.28231 0.85356 0.0
C875 C 0.88007 0.3228 0.8462 0.0
C876 C 0.89788 0.34085 0.85756 0.0
C877 C 0.87383 0.30177 0.86648 0.0
C878 C 0.90715 0.33926 0.891 0.0
C879 C 0.90047 0.31868 0.91177 0.0
H880 H 0.47322 0.08876 0.63421 0.0
H881 H 0.44753 0.12875 0.72376 0.0
H882 H 0.40778 0.14008 0.69506 0.0
H883 H 0.38502 0.14614 0.64118 0.0
H884 H 0.41314 0.10974 0.55021 0.0
H885 H 0.44697 0.0891 0.58286 0.0
C886 C 0.45861 0.09933 0.64779 0.0
C887 C 0.46347 0.10835 0.68079 0.0
C888 C 0.43638 0.10676 0.63062 0.0
C889 C 0.44432 0.12184 0.69818 0.0
C890 C 0.42166 0.12847 0.6817 0.0
C891 C 0.3981 0.13309 0.6287 0.0
C892 C 0.39691 0.12978 0.59329 0.0
C893 C 0.41815 0.1222 0.64736 0.0
C894 C 0.41389 0.11279 0.57742 0.0
C895 C 0.43331 0.10109 0.59604 0.0
H896 H 0.60273 0.70846 0.44322 0.0
H897 H 0.65251 0.74325 0.36919 0.0
H898 H 0.6452 0.70799 0.33014 0.0
H899 H 0.62071 0.67028 0.31434 0.0
H900 H 0.56912 0.63634 0.38678 0.0
H901 H 0.58151 0.66788 0.42937 0.0
C902 C 0.61225 0.70808 0.41874 0.0
C903 C 0.62782 0.72856 0.40888 0.0
C904 C 0.60759 0.68794 0.39608 0.0
C905 C 0.64017 0.72783 0.37719 0.0
C906 C 0.63602 0.70767 0.35483 0.0
C907 C 0.61257 0.66945 0.33967 0.0
C908 C 0.59384 0.65123 0.34731 0.0
C909 C 0.61918 0.68805 0.36361 0.0
C910 C 0.58351 0.6503 0.38026 0.0
C911 C 0.59046 0.66842 0.40455 0.0
H912 H 0.06159 0.86708 0.06192 0.0
H913 H 0.11617 0.85525 0.14222 0.0
H914 H 0.08385 0.86685 0.18466 0.0
H915 H 0.03842 0.87532 0.19876 0.0
H916 H 0.98471 0.88722 0.11706 0.0
H917 H 0.01831 0.88072 0.07542 0.0
C918 C 0.06653 0.86757 0.08869 0.0
C919 C 0.09103 0.86018 0.09907 0.0
C920 C 0.04788 0.8739 0.11272 0.0
C921 C 0.09738 0.86103 0.13371 0.0
C922 C 0.07884 0.8674 0.15795 0.0
C923 C 0.03422 0.87677 0.17186 0.0
C924 C 0.00903 0.88133 0.16106 0.0
C925 C 0.05376 0.87305 0.14778 0.0
C926 C 0.00387 0.88348 0.12611 0.0
C927 C 0.02308 0.87977 0.10219 0.0
H928 H 0.61155 0.76762 0.93629 0.0
H929 H 0.6362 0.72168 0.85132 0.0
H930 H 0.63077 0.75777 0.81316 0.0
H931 H 0.61551 0.80108 0.80291 0.0
H932 H 0.59205 0.84823 0.88701 0.0
H933 H 0.60092 0.8132 0.92667 0.0
C934 C 0.61595 0.76567 0.90949 0.0
C935 C 0.62394 0.74195 0.89658 0.0
C936 C 0.613 0.78668 0.88756 0.0
C937 C 0.6299 0.7397 0.86188 0.0
C938 C 0.62677 0.76032 0.83998 0.0
C939 C 0.61273 0.80379 0.83 0.0
C940 C 0.60296 0.82698 0.84211 0.0
C941 C 0.61784 0.78369 0.85241 0.0
C942 C 0.59966 0.83047 0.87721 0.0
C943 C 0.60453 0.8104 0.8998 0.0
H944 H 0.48426 0.38381 0.17293 0.0
H945 H 0.51307 0.30661 0.1752 0.0
H946 H 0.4773 0.29244 0.14054 0.0
H947 H 0.4404 0.30259 0.10534 0.0
H948 H 0.41066 0.37928 0.10279 0.0
H949 H 0.44433 0.39317 0.14198 0.0
C950 C 0.48244 0.36382 0.1663 0.0
C951 C 0.50139 0.34631 0.17628 0.0
C952 C 0.46195 0.35584 0.14599 0.0
C953 C 0.49878 0.32046 0.1677 0.0
C954 C 0.47842 0.31236 0.14773 0.0
C955 C 0.44126 0.32236 0.11346 0.0
C956 C 0.42352 0.34006 0.10084 0.0
C957 C 0.46037 0.33001 0.13597 0.0
C958 C 0.42434 0.36543 0.11207 0.0
C959 C 0.44355 0.37332 0.13439 0.0
H960 H 0.85471 0.25961 0.37778 0.0
H961 H 0.88011 0.21558 0.46403 0.0
H962 H 0.88661 0.17839 0.42725 0.0
H963 H 0.88931 0.16011 0.36953 0.0
H964 H 0.8683 0.20625 0.28331 0.0
H965 H 0.85527 0.24091 0.32115 0.0
C966 C 0.86137 0.24179 0.38866 0.0
C967 C 0.86707 0.24031 0.42348 0.0
C968 C 0.86575 0.22092 0.36731 0.0
C969 C 0.87574 0.21715 0.43721 0.0
C970 C 0.87944 0.19594 0.41621 0.0
C971 C 0.8812 0.17753 0.35926 0.0
C972 C 0.87941 0.18074 0.32391 0.0
C973 C 0.87504 0.19779 0.3811 0.0
C974 C 0.86959 0.2035 0.31054 0.0
C975 C 0.86233 0.22329 0.33212 0.0
H976 H 0.09609 0.65076 0.64693 0.0
H977 H 0.06475 0.60009 0.57143 0.0
H978 H 0.0301 0.58873 0.61006 0.0
H979 H 0.0053 0.59858 0.66098 0.0
H980 H 0.03463 0.65174 0.73486 0.0
H981 H 0.07368 0.65663 0.70132 0.0
C982 C 0.08209 0.63667 0.63934 0.0
C983 C 0.08279 0.6264 0.60632 0.0
C984 C 0.06163 0.63109 0.66113 0.0
C985 C 0.06448 0.6083 0.59668 0.0
C986 C 0.04459 0.60196 0.61866 0.0
C987 C 0.0204 0.61095 0.67004 0.0
C988 C 0.01696 0.62514 0.70001 0.0
C989 C 0.04239 0.61412 0.65027 0.0
C990 C 0.03679 0.6408 0.71169 0.0
C991 C 0.05906 0.64365 0.69248 0.0
H992 H 0.55688 0.25444 0.5742 0.0
H993 H 0.63422 0.22781 0.56128 0.0
H994 H 0.62416 0.18891 0.59274 0.0
H995 H 0.59418 0.16403 0.62776 0.0
H996 H 0.51721 0.19161 0.64159 0.0
H997 H 0.52633 0.22844 0.60588 0.0
C998 C 0.57144 0.23997 0.57788 0.0
C999 C 0.59626 0.24404 0.56561 0.0
C1000 C 0.56566 0.21789 0.59643 0.0
C1001 C 0.61495 0.22514 0.57057 0.0
C1002 C 0.60925 0.20293 0.58865 0.0
C1003 C 0.57937 0.17799 0.62266 0.0
C1004 C 0.55515 0.17521 0.63752 0.0
C1005 C 0.5848 0.19934 0.60232 0.0
C1006 C 0.5361 0.19341 0.63065 0.0
C1007 C 0.54126 0.21449 0.61022 0.0
H1008 H 0.00018 0.31786 0.82805 0.0
H1009 H 0.02686 0.39561 0.83029 0.0
H1010 H 0.06229 0.383 0.86729 0.0
H1011 H 0.08376 0.35021 0.90225 0.0
H1012 H 0.05481 0.27319 0.90193 0.0
H1013 H 0.0221 0.28522 0.86101 0.0
C1014 C 0.01395 0.33201 0.8362 0.0
C1015 C 0.01097 0.35759 0.82648 0.0
C1016 C 0.03366 0.3248 0.85817 0.0
C1017 C 0.02883 0.37575 0.83745 0.0
C1018 C 0.04898 0.36858 0.85872 0.0
C1019 C 0.07034 0.3361 0.89303 0.0
C1020 C 0.07155 0.31092 0.90522 0.0
C1021 C 0.05127 0.34323 0.86981 0.0
C1022 C 0.05411 0.29276 0.89314 0.0
C1023 C 0.03544 0.29959 0.86966 0.0
H1024 H 0.91278 0.73792 0.11851 0.0
H1025 H 0.84701 0.77649 0.07728 0.0
H1026 H 0.85716 0.81455 0.11115 0.0
H1027 H 0.88523 0.83657 0.15281 0.0
H1028 H 0.94923 0.79543 0.19527 0.0
H1029 H 0.93907 0.75853 0.16076 0.0
C1030 C 0.90073 0.75472 0.11666 0.0
C1031 C 0.87942 0.75462 0.09516 0.0
C1032 C 0.90625 0.77596 0.13669 0.0
C1033 C 0.86367 0.77629 0.09355 0.0
C1034 C 0.86943 0.79795 0.11295 0.0
C1035 C 0.89677 0.81944 0.15458 0.0
C1036 C 0.91796 0.81878 0.17654 0.0
C1037 C 0.89069 0.79797 0.13473 0.0
C1038 C 0.93276 0.79646 0.17869 0.0
C1039 C 0.92707 0.77533 0.15885 0.0
H1040 H 0.42082 0.68925 0.36072 0.0
H1041 H 0.40582 0.61459 0.40192 0.0
H1042 H 0.43858 0.59615 0.36476 0.0
H1043 H 0.4742 0.60227 0.32446 0.0
H1044 H 0.48814 0.67718 0.28295 0.0
H1045 H 0.45276 0.69447 0.31594 0.0
C1046 C 0.4246 0.6689 0.36132 0.0
C1047 C 0.41132 0.65331 0.38426 0.0
C1048 C 0.44324 0.65853 0.33986 0.0
C1049 C 0.41596 0.62693 0.38448 0.0
C1050 C 0.43471 0.61643 0.36334 0.0
C1051 C 0.46918 0.62227 0.32223 0.0
C1052 C 0.48393 0.63848 0.30162 0.0
C1053 C 0.44886 0.63217 0.34147 0.0
C1054 C 0.47715 0.66432 0.29875 0.0
C1055 C 0.457 0.67428 0.31774 0.0
H1056 H 0.41675 0.16372 0.12152 0.0
H1057 H 0.38812 0.20051 0.21185 0.0
H1058 H 0.36703 0.23294 0.17733 0.0
H1059 H 0.36101 0.25345 0.12263 0.0
H1060 H 0.39338 0.22015 0.0321 0.0
H1061 H 0.40835 0.18345 0.06528 0.0
C1062 C 0.40548 0.17862 0.13342 0.0
C1063 C 0.40394 0.1799 0.16904 0.0
C1064 C 0.39425 0.19784 0.1134 0.0
C1065 C 0.38962 0.19935 0.18443 0.0
C1066 C 0.37758 0.21785 0.16473 0.0
C1067 C 0.37093 0.23796 0.10995 0.0
C1068 C 0.37618 0.23954 0.075 0.0
C1069 C 0.38039 0.21769 0.12934 0.0
C1070 C 0.38913 0.21935 0.05901 0.0
C1071 C 0.39781 0.19847 0.07802 0.0
H1072 H 0.49322 0.60417 0.84775 0.0
H1073 H 0.52475 0.64185 0.75987 0.0
H1074 H 0.56456 0.64955 0.79077 0.0
H1075 H 0.58768 0.65107 0.84553 0.0
H1076 H 0.55315 0.61822 0.93465 0.0
H1077 H 0.51731 0.60278 0.90064 0.0
C1078 C 0.509 0.61357 0.83508 0.0
C1079 C 0.50607 0.62256 0.80168 0.0
C1080 C 0.53121 0.61894 0.85345 0.0
C1081 C 0.52659 0.63485 0.78565 0.0
C1082 C 0.54928 0.63934 0.80335 0.0
C1083 C 0.57258 0.6399 0.85708 0.0
C1084 C 0.5729 0.63542 0.89222 0.0
C1085 C 0.55144 0.63228 0.83764 0.0
C1086 C 0.55314 0.62158 0.90748 0.0
C1087 C 0.53267 0.61291 0.88811 0.0
H1088 H 0.05227 0.80221 0.6404 0.0
H1089 H 0.13063 0.82532 0.65316 0.0
H1090 H 0.14434 0.79214 0.61322 0.0
H1091 H 0.1341 0.7544 0.57843 0.0
H1092 H 0.0556 0.731 0.56773 0.0
H1093 H 0.04181 0.76682 0.6028 0.0
C1094 C 0.07236 0.8001 0.63433 0.0
C1095 C 0.09047 0.81593 0.64996 0.0
C1096 C 0.08002 0.78099 0.61169 0.0
C1097 C 0.11637 0.81321 0.64156 0.0
C1098 C 0.12419 0.79426 0.61877 0.0
C1099 C 0.11395 0.75745 0.58329 0.0
C1100 C 0.09588 0.74007 0.57068 0.0
C1101 C 0.1062 0.77776 0.60415 0.0
C1102 C 0.06985 0.7441 0.57728 0.0
C1103 C 0.06196 0.76449 0.59743 0.0
H1104 H 0.8997 0.33563 0.3725 0.0
H1105 H 0.94035 0.3571 0.46326 0.0
H1106 H 0.97707 0.3701 0.4293 0.0
H1107 H -0.00106 0.37142 0.37493 0.0
H1108 H 0.96032 0.34728 0.28371 0.0
H1109 H 0.9214 0.33913 0.31663 0.0
C1110 C 0.91641 0.34375 0.38457 0.0
C1111 C 0.91745 0.34566 0.42015 0.0
C1112 C 0.93788 0.3502 0.36492 0.0
C1113 C 0.93927 0.35562 0.43583 0.0
C1114 C 0.96026 0.36289 0.41648 0.0
C1115 C 0.98198 0.36452 0.36212 0.0
C1116 C 0.98252 0.35973 0.32703 0.0
C1117 C 0.96002 0.35958 0.38117 0.0
C1118 C 0.96037 0.35093 0.3108 0.0
C1119 C 0.93814 0.34632 0.32959 0.0
H1120 H 0.37305 0.81446 0.30928 0.0
H1121 H 0.39308 0.86022 0.3962 0.0
H1122 H 0.37913 0.82615 0.43435 0.0
H1123 H 0.36735 0.78097 0.44236 0.0
H1124 H 0.3461 0.7359 0.3552 0.0
H1125 H 0.3541 0.77213 0.3178 0.0
C1126 C 0.37372 0.81717 0.33659 0.0
C1127 C 0.38431 0.83959 0.34998 0.0
C1128 C 0.36577 0.7975 0.3583 0.0
C1129 C 0.38492 0.8431 0.38535 0.0
C1130 C 0.37718 0.82353 0.40716 0.0
C1131 C 0.364 0.7793 0.41525 0.0
C1132 C 0.35657 0.75574 0.40146 0.0
C1133 C 0.36853 0.80028 0.39386 0.0
C1134 C 0.35193 0.75384 0.36639 0.0
C1135 C 0.35662 0.7745 0.34495 0.0
H1136 H 0.97081 0.63754 0.20614 0.0
H1137 H 0.00595 0.59834 0.1217 0.0
H1138 H 0.9665 0.60148 0.08938 0.0
H1139 H 0.92409 0.61998 0.08232 0.0
H1140 H 0.88902 0.6607 0.16539 0.0
H1141 H 0.92597 0.65164 0.20133 0.0
C1142 C 0.96969 0.62945 0.18083 0.0
C1143 C 0.99139 0.61815 0.16612 0.0
C1144 C 0.94692 0.6315 0.16214 0.0
C1145 C 0.98961 0.60746 0.13346 0.0
C1146 C 0.96704 0.60918 0.11493 0.0
C1147 C 0.92424 0.62632 0.10855 0.0
C1148 C 0.90403 0.64123 0.12104 0.0
C1149 C 0.94584 0.6218 0.12864 0.0
C1150 C 0.90441 0.64922 0.15514 0.0
C1151 C 0.92565 0.64427 0.17561 0.0
H1152 H 0.15168 0.23368 0.88519 0.0
H1153 H 0.12238 0.19375 0.97273 0.0
H1154 H 0.11506 0.15579 0.93789 0.0
H1155 H 0.11011 0.13701 0.88084 0.0
H1156 H 0.13451 0.17958 0.79295 0.0
H1157 H 0.151 0.21337 0.82956 0.0
C1158 C 0.14423 0.21649 0.89686 0.0
C1159 C 0.13728 0.21657 0.93135 0.0
C1160 C 0.13897 0.19531 0.87642 0.0
C1161 C 0.12772 0.19416 0.94614 0.0
C1162 C 0.12341 0.17253 0.92619 0.0
C1163 C 0.11974 0.15336 0.86989 0.0
C1164 C 0.12114 0.15599 0.83441 0.0
C1165 C 0.12794 0.17329 0.89104 0.0
C1166 C 0.13323 0.17734 0.82027 0.0
C1167 C 0.14253 0.19665 0.84116 0.0
H1168 H 0.55857 0.38129 0.56897 0.0
H1169 H 0.60032 0.34127 0.647 0.0
H1170 H 0.56984 0.35598 0.68978 0.0
H1171 H 0.52772 0.3744 0.70301 0.0
H1172 H 0.48531 0.41269 0.62403 0.0
H1173 H 0.51982 0.40485 0.58379 0.0
C1174 C 0.56129 0.37623 0.59546 0.0
C1175 C 0.58136 0.35989 0.60476 0.0
C1176 C 0.54341 0.38425 0.61971 0.0
C1177 C 0.58487 0.3537 0.63919 0.0
C1178 C 0.56737 0.36199 0.66364 0.0
C1179 C 0.52634 0.38156 0.67722 0.0
C1180 C 0.50387 0.39372 0.66633 0.0
C1181 C 0.546 0.3764 0.65393 0.0
C1182 C 0.50232 0.403 0.63289 0.0
C1183 C 0.522 0.39845 0.60982 0.0
H1184 H 0.09114 0.45215 0.24906 0.0
H1185 H 0.01256 0.45456 0.28176 0.0
H1186 H 0.01082 0.50026 0.27048 0.0
H1187 H 0.03096 0.53892 0.24983 0.0
H1188 H 0.10877 0.53713 0.21405 0.0
H1189 H 0.1115 0.49155 0.22775 0.0
C1190 C 0.07378 0.46283 0.25399 0.0
C1191 C 0.05204 0.45023 0.26632 0.0
C1192 C 0.07271 0.48898 0.24659 0.0
C1193 C 0.02949 0.46399 0.27222 0.0
C1194 C 0.02847 0.49005 0.26574 0.0
C1195 C 0.04857 0.5286 0.24506 0.0
C1196 C 0.06965 0.54125 0.23102 0.0
C1197 C 0.04985 0.50263 0.25262 0.0
C1198 C 0.09227 0.52766 0.22476 0.0
C1199 C 0.09385 0.50169 0.23268 0.0
H1200 H 0.79844 0.77935 0.50779 0.0
H1201 H 0.79717 0.8612 0.51849 0.0
H1202 H 0.75195 0.86199 0.50274 0.0
H1203 H 0.71251 0.83902 0.48697 0.0
H1204 H 0.71418 0.75694 0.47933 0.0
H1205 H 0.75959 0.75663 0.49257 0.0
C1206 C 0.78829 0.79738 0.5066 0.0
C1207 C 0.80104 0.82017 0.51423 0.0
C1208 C 0.7624 0.79763 0.49799 0.0
C1209 C 0.78766 0.84339 0.5128 0.0
C1210 C 0.76186 0.84385 0.50373 0.0
C1211 C 0.72294 0.82115 0.48796 0.0
C1212 C 0.71014 0.79805 0.48213 0.0
C1213 C 0.749 0.82106 0.49636 0.0
C1214 C 0.72368 0.77495 0.48384 0.0
C1215 C 0.74962 0.77475 0.49141 0.0
H1216 H 0.41694 0.46225 0.78408 0.0
H1217 H 0.40373 0.46399 0.67604 0.0
H1218 H 0.3978 0.51034 0.67822 0.0
H1219 H 0.40172 0.55068 0.71009 0.0
H1220 H 0.41319 0.54842 0.81859 0.0
H1221 H 0.41395 0.50188 0.8172 0.0
C1222 C 0.41234 0.4728 0.76115 0.0
C1223 C 0.41113 0.45999 0.72988 0.0
C1224 C 0.40874 0.49927 0.76271 0.0
C1225 C 0.40478 0.4736 0.70036 0.0
C1226 C 0.40153 0.50006 0.7016 0.0
C1227 C 0.40385 0.53994 0.73348 0.0
C1228 C 0.40775 0.55289 0.76431 0.0
C1229 C 0.40424 0.51317 0.73249 0.0
C1230 C 0.4102 0.53885 0.79453 0.0
C1231 C 0.41082 0.51224 0.79373 0.0
H1232 H 0.7785 0.18154 0.91539 0.0
H1233 H 0.79945 0.13346 -0.00022 0.0
H1234 H 0.75467 0.13139 0.01771 0.0
H1235 H 0.71035 0.14807 0.01318 0.0
H1236 H 0.69126 0.19797 0.92963 0.0
H1237 H 0.73444 0.19453 0.9077 0.0
C1238 C 0.77322 0.17019 0.93736 0.0
C1239 C 0.7922 0.15789 0.95642 0.0
C1240 C 0.74777 0.16979 0.94801 0.0
C1241 C 0.78511 0.14308 0.98465 0.0
C1242 C 0.75955 0.14211 0.99509 0.0
C1243 C 0.71565 0.1579 0.98999 0.0
C1244 C 0.69777 0.17358 0.97338 0.0
C1245 C 0.74083 0.15616 0.97763 0.0
C1246 C 0.70479 0.18611 0.94323 0.0
C1247 C 0.72947 0.18411 0.93055 0.0
H1248 H 0.92831 0.46782 0.81344 0.0
H1249 H 0.9393 0.44913 0.70775 0.0
H1250 H 0.93664 0.49426 0.69251 0.0
H1251 H 0.9341 0.53933 0.70983 0.0
H1252 H 0.9279 0.55801 0.81612 0.0
H1253 H 0.9254 0.51272 0.83067 0.0
C1254 C 0.92988 0.47369 0.78709 0.0
C1255 C 0.93403 0.45536 0.76175 0.0
C1256 C 0.92917 0.49967 0.77868 0.0
C1257 C 0.93629 0.46306 0.72769 0.0
C1258 C 0.93471 0.48881 0.71896 0.0
C1259 C 0.93179 0.53335 0.73605 0.0
C1260 C 0.93101 0.55168 0.76191 0.0
C1261 C 0.93154 0.50731 0.7443 0.0
C1262 C 0.92851 0.54399 0.7959 0.0
C1263 C 0.92715 0.51818 0.80421 0.0
H1264 H 0.28313 0.14675 0.50144 0.0
H1265 H 0.27522 0.21128 0.56877 0.0
H1266 H 0.22972 0.21359 0.55624 0.0
H1267 H 0.19324 0.19972 0.52277 0.0
H1268 H 0.20053 0.13585 0.45434 0.0
H1269 H 0.24539 0.13077 0.47072 0.0
C1270 C 0.27133 0.16102 0.51377 0.0
C1271 C 0.28247 0.17892 0.53582 0.0
C1272 C 0.24526 0.16257 0.50592 0.0
C1273 C 0.26706 0.19737 0.55159 0.0
C1274 C 0.24109 0.19878 0.54434 0.0
C1275 C 0.20461 0.18461 0.51148 0.0
C1276 C 0.1938 0.1684 0.48706 0.0
C1277 C 0.23018 0.1819 0.52092 0.0
C1278 C 0.20858 0.14868 0.47304 0.0
C1279 C 0.23417 0.14578 0.48239 0.0
H1280 H 0.55615 0.53922 0.20512 0.0
H1281 H 0.60196 0.53701 0.29598 0.0
H1282 H 0.61235 0.49208 0.28523 0.0
H1283 H 0.60507 0.4526 0.25233 0.0
H1284 H 0.55968 0.45594 0.16091 0.0
H1285 H 0.55294 0.50147 0.1691 0.0
C1286 C 0.56849 0.52889 0.22249 0.0
C1287 C 0.5779 0.54107 0.25159 0.0
C1288 C 0.57455 0.50337 0.21591 0.0
C1289 C 0.59434 0.52781 0.27354 0.0
C1290 C 0.60026 0.50219 0.26739 0.0
C1291 C 0.59416 0.46343 0.23387 0.0
C1292 C 0.58264 0.45089 0.20628 0.0
C1293 C 0.59007 0.48965 0.23895 0.0
C1294 C 0.5686 0.46513 0.18248 0.0
C1295 C 0.5646 0.49114 0.18723 0.0
H1296 H 0.21912 0.85626 0.00375 0.0
H1297 H 0.21602 0.77521 0.02247 0.0
H1298 H 0.26153 0.77146 0.01121 0.0
H1299 H 0.30212 0.79088 0.9962 0.0
H1300 H 0.30604 0.87142 0.97477 0.0
H1301 H 0.26028 0.87573 0.98664 0.0
C1302 C 0.22852 0.83786 0.00544 0.0
C1303 C 0.21432 0.81608 0.01405 0.0
C1304 C 0.25474 0.83572 0.9983 0.0
C1305 C 0.22656 0.79226 0.01582 0.0
C1306 C 0.25258 0.79007 0.00941 0.0
C1307 C 0.29297 0.80939 0.99408 0.0
C1308 C 0.30737 0.83081 0.98479 0.0
C1309 C 0.26682 0.81163 0.0006 0.0
C1310 C 0.29526 0.85463 0.98184 0.0
C1311 C 0.26915 0.85711 0.98873 0.0
H1312 H 0.57252 0.95299 0.70313 0.0
H1313 H 0.59455 0.96408 0.80761 0.0
H1314 H 0.59406 0.01038 0.79938 0.0
H1315 H 0.58231 0.04739 0.76418 0.0
H1316 H 0.56133 0.03615 0.65927 0.0
H1317 H 0.56697 0.99011 0.6657 0.0
C1318 C 0.57754 0.9656 0.72393 0.0
C1319 C 0.58313 0.95535 0.75605 0.0
C1320 C 0.57735 0.99206 0.71892 0.0
C1321 C 0.59008 0.97167 0.7827 0.0
C1322 C 0.58969 -0.00191 0.77804 0.0
C1323 C 0.57946 0.03487 0.74258 0.0
C1324 C 0.57107 0.045 0.71145 0.0
C1325 C 0.58263 0.00847 0.74652 0.0
C1326 C 0.56774 0.02872 0.6835 0.0
C1327 C 0.57078 0.00241 0.68723 0.0
H1328 H 0.29179 0.3214 0.97152 0.0
H1329 H 0.28585 0.31904 0.08073 0.0
H1330 H 0.23928 0.31642 0.07657 0.0
H1331 H 0.20082 0.31078 0.04141 0.0
H1332 H 0.20682 0.31542 0.93227 0.0
H1333 H 0.25292 0.3215 0.93675 0.0
C1334 C 0.28021 0.32061 0.99436 0.0
C1335 C 0.292 0.32002 0.02634 0.0
C1336 C 0.2536 0.31942 0.99173 0.0
C1337 C 0.277 0.31945 0.05586 0.0
C1338 C 0.25046 0.31783 0.05347 0.0
C1339 C 0.21225 0.31345 0.0187 0.0
C1340 C 0.20068 0.31233 0.98657 0.0
C1341 C 0.23863 0.31719 0.0215 0.0
C1342 C 0.21544 0.31618 0.95727 0.0
C1343 C 0.24177 0.31953 0.9598 0.0
H1344 H 0.95577 0.05036 0.23584 0.0
H1345 H 0.87465 0.0486 0.2542 0.0
H1346 H 0.87444 0.0023 0.2447 0.0
H1347 H 0.89827 0.962 0.23405 0.0
H1348 H 0.97981 0.96517 0.21939 0.0
H1349 H 0.97889 0.01143 0.22421 0.0
C1350 C 0.93795 0.03994 0.23762 0.0
C1351 C 0.91528 0.05278 0.24582 0.0
C1352 C 0.93811 0.0136 0.23274 0.0
C1353 C 0.89238 0.03902 0.24802 0.0
C1354 C 0.89227 0.01261 0.24259 0.0
C1355 C 0.91569 0.97298 0.23153 0.0
C1356 C 0.93908 0.96039 0.22645 0.0
C1357 C 0.91513 -0.00036 0.2353 0.0
C1358 C 0.96164 0.97457 0.22354 0.0
C1359 C 0.96114 0.00097 0.22629 0.0
H1360 H 0.28903 0.68955 0.52563 0.0
H1361 H 0.28346 0.64 0.43845 0.0
H1362 H 0.23863 0.63154 0.45188 0.0
H1363 H 0.20033 0.64105 0.48594 0.0
H1364 H 0.20613 0.69187 0.57185 0.0
H1365 H 0.25176 0.69681 0.56158 0.0
C1366 C 0.27807 0.67674 0.50967 0.0
C1367 C 0.2894 0.6656 0.48091 0.0
C1368 C 0.25239 0.67225 0.51732 0.0
C1369 C 0.27507 0.6489 0.46064 0.0
C1370 C 0.24947 0.64409 0.46829 0.0
C1371 C 0.21168 0.6529 0.50268 0.0
C1372 C 0.19991 0.6662 0.52948 0.0
C1373 C 0.23782 0.65605 0.49621 0.0
C1374 C 0.21477 0.68153 0.55096 0.0
C1375 C 0.24083 0.68442 0.54505 0.0
H1376 H 0.47327 0.04858 0.26706 0.0
H1377 H 0.39405 0.05635 0.23921 0.0
H1378 H 0.38662 0.01156 0.25365 0.0
H1379 H 0.40311 0.96984 0.27289 0.0
H1380 H 0.48289 0.96215 0.29784 0.0
H1381 H 0.48961 0.00736 0.28622 0.0
C1382 C 0.45436 0.04049 0.26419 0.0
C1383 C 0.43425 0.05569 0.25207 0.0
C1384 C 0.45033 0.01478 0.27219 0.0
C1385 C 0.40987 0.04495 0.24838 0.0
C1386 C 0.4056 0.01939 0.25672 0.0
C1387 C 0.42186 0.9782 0.27613 0.0
C1388 C 0.44246 0.96282 0.28633 0.0
C1389 C 0.42573 0.0041 0.26856 0.0
C1390 C 0.46676 0.97369 0.29 0.0
C1391 C 0.47063 -0.00051 0.2833 0.0
H1392 H 0.79169 0.66168 0.98291 0.0
H1393 H 0.7734 0.67964 0.08703 0.0
H1394 H 0.72775 0.67681 0.07409 0.0
H1395 H 0.69338 0.67259 0.03194 0.0
H1396 H 0.71167 0.65219 0.92861 0.0
H1397 H 0.75724 0.65228 0.94245 0.0
C1398 C 0.77764 0.66475 0.00277 0.0
C1399 C 0.78564 0.67124 0.03569 0.0
C1400 C 0.75162 0.6627 0.99524 0.0
C1401 C 0.7675 0.67472 0.06148 0.0
C1402 C 0.74149 0.67319 0.05406 0.0
C1403 C 0.70739 0.6679 0.01261 0.0
C1404 C 0.69943 0.66273 0.97925 0.0
C1405 C 0.73338 0.66771 0.02087 0.0
C1406 C 0.71753 0.65626 0.95444 0.0
C1407 C 0.7435 0.65644 0.96231 0.0
H1408 H 0.10189 0.02225 0.79373 0.0
H1409 H 0.05294 0.03989 0.70877 0.0
H1410 H 0.05688 0.99628 0.68802 0.0
H1411 H 0.0715 0.95258 0.69612 0.0
H1412 H 0.11595 0.93298 0.78445 0.0
H1413 H 0.11717 0.97797 0.80145 0.0
C1414 C 0.09218 0.01645 0.77066 0.0
C1415 C 0.07698 0.03407 0.75293 0.0
C1416 C 0.09399 0.99111 0.75934 0.0
C1417 C 0.06444 0.02649 0.72309 0.0
C1418 C 0.06683 0.00163 0.71107 0.0
C1419 C 0.08203 0.95829 0.7186 0.0
C1420 C 0.09394 0.93975 0.73879 0.0
C1421 C 0.08127 0.98374 0.72919 0.0
C1422 C 0.1069 0.94714 0.76839 0.0
C1423 C 0.10738 0.97275 0.77824 0.0
H1424 H 0.70476 0.30172 0.5553 0.0
H1425 H 0.6904 0.3647 0.48738 0.0
H1426 H 0.73562 0.36551 0.47148 0.0
H1427 H 0.7786 0.34583 0.47381 0.0
H1428 H 0.79112 0.28133 0.54008 0.0
H1429 H 0.74717 0.2835 0.55945 0.0
C1430 C 0.71154 0.31588 0.53736 0.0
C1431 C 0.69433 0.33305 0.52245 0.0
C1432 C 0.73717 0.3157 0.52764 0.0
C1433 C 0.70338 0.35128 0.49923 0.0
C1434 C 0.72916 0.35163 0.48997 0.0
C1435 C 0.77164 0.33234 0.49253 0.0
C1436 C 0.78798 0.31331 0.50522 0.0
C1437 C 0.74612 0.3335 0.50342 0.0
C1438 C 0.77885 0.296 0.52962 0.0
C1439 C 0.75374 0.29727 0.54085 0.0
loop_
_geom_bond_atom_site_label_1
_geom_bond_atom_site_label_2
_geom_bond_distance
_geom_bond_site_symmetry_2
_ccdc_geom_bond_type
In0 O1 2.294 . S
In0 O2 2.326 . S
In0 O6 2.266 . S
In0 O7 2.326 . S
In0 O8 2.266 . S
In0 O9 2.326 . S
In0 O11 2.294 . S
In0 O12 2.326 . S
O1 In0 2.294 . S
O1 C10 1.240 . S
O2 In0 2.326 . S
O2 C10 1.252 . S
C3 O6 1.252 . S
C3 O7 1.260 . S
C4 O11 1.240 . S
C4 O12 1.252 . S
C5 O8 1.252 . S
C5 O9 1.260 . S
O6 In0 2.266 . S
O6 C3 1.252 . S
O7 In0 2.326 . S
O7 C3 1.260 . S
O8 In0 2.266 . S
O8 C5 1.252 . S
O9 In0 2.326 . S
O9 C5 1.260 . S
C10 O1 1.240 . S
C10 O2 1.252 . S
O11 In0 2.294 . S
O11 C4 1.240 . S
O12 In0 2.326 . S
O12 C4 1.252 . S
In13 O14 2.294 . S
In13 O15 2.326 . S
In13 O19 2.266 . S
In13 O20 2.326 . S
In13 O21 2.266 . S
In13 O22 2.326 . S
In13 O24 2.294 . S
In13 O25 2.326 . S
O14 In13 2.294 . S
O14 C23 1.240 . S
O15 In13 2.326 . S
O15 C23 1.252 . S
C16 O19 1.252 . S
C16 O20 1.260 . S
C17 O24 1.240 . S
C17 O25 1.252 . S
C18 O21 1.252 . S
C18 O22 1.260 . S
O19 In13 2.266 . S
O19 C16 1.252 . S
O20 In13 2.326 . S
O20 C16 1.260 . S
O21 In13 2.266 . S
O21 C18 1.252 . S
O22 In13 2.326 . S
O22 C18 1.260 . S
C23 O14 1.240 . S
C23 O15 1.252 . S
O24 In13 2.294 . S
O24 C17 1.240 . S
O25 In13 2.326 . S
O25 C17 1.252 . S
In26 O27 2.294 . S
In26 O28 2.326 . S
In26 O32 2.266 . S
In26 O33 2.326 . S
In26 O34 2.266 . S
In26 O35 2.326 . S
In26 O37 2.294 . S
In26 O38 2.326 . S
O27 In26 2.294 . S
O27 C36 1.240 . S
O28 In26 2.326 . S
O28 C36 1.252 . S
C29 O32 1.252 . S
C29 O33 1.260 . S
C30 O37 1.240 . S
C30 O38 1.252 . S
C31 O34 1.252 . S
C31 O35 1.260 . S
O32 In26 2.266 . S
O32 C29 1.252 . S
O33 In26 2.326 . S
O33 C29 1.260 . S
O34 In26 2.266 . S
O34 C31 1.252 . S
O35 In26 2.326 . S
O35 C31 1.260 . S
C36 O27 1.240 . S
C36 O28 1.252 . S
O37 In26 2.294 . S
O37 C30 1.240 . S
O38 In26 2.326 . S
O38 C30 1.252 . S
In39 O40 2.294 . S
In39 O41 2.326 . S
In39 O45 2.266 . S
In39 O46 2.326 . S
In39 O47 2.266 . S
In39 O48 2.326 . S
In39 O50 2.294 1_554 S
In39 O51 2.326 1_554 S
O40 In39 2.294 . S
O40 C49 1.240 . S
O41 In39 2.326 . S
O41 C49 1.252 . S
C42 O45 1.252 . S
C42 O46 1.260 . S
C43 O50 1.240 . S
C43 O51 1.252 . S
C44 O47 1.252 . S
C44 O48 1.260 . S
O45 In39 2.266 . S
O45 C42 1.252 . S
O46 In39 2.326 . S
O46 C42 1.260 . S
O47 In39 2.266 . S
O47 C44 1.252 . S
O48 In39 2.326 . S
O48 C44 1.260 . S
C49 O40 1.240 . S
C49 O41 1.252 . S
O50 In39 2.294 1_556 S
O50 C43 1.240 . S
O51 In39 2.326 1_556 S
O51 C43 1.252 . S
In52 O53 2.294 . S
In52 O54 2.326 . S
In52 O58 2.266 . S
In52 O59 2.326 . S
In52 O60 2.266 . S
In52 O61 2.326 . S
In52 O63 2.294 . S
In52 O64 2.326 . S
O53 In52 2.294 . S
O53 C62 1.240 . S
O54 In52 2.326 . S
O54 C62 1.252 . S
C55 O58 1.252 . S
C55 O59 1.260 . S
C56 O63 1.240 . S
C56 O64 1.252 . S
C57 O60 1.252 . S
C57 O61 1.260 . S
O58 In52 2.266 . S
O58 C55 1.252 . S
O59 In52 2.326 . S
O59 C55 1.260 . S
O60 In52 2.266 . S
O60 C57 1.252 . S
O61 In52 2.326 . S
O61 C57 1.260 . S
C62 O53 1.240 . S
C62 O54 1.252 . S
O63 In52 2.294 . S
O63 C56 1.240 . S
O64 In52 2.326 . S
O64 C56 1.252 . S
In65 O66 2.294 . S
In65 O67 2.326 . S
In65 O71 2.266 . S
In65 O72 2.326 . S
In65 O73 2.266 . S
In65 O74 2.326 . S
In65 O76 2.294 . S
In65 O77 2.326 . S
O66 In65 2.294 . S
O66 C75 1.240 . S
O67 In65 2.326 . S
O67 C75 1.252 . S
C68 O71 1.252 . S
C68 O72 1.260 . S
C69 O76 1.240 . S
C69 O77 1.252 . S
C70 O73 1.252 . S
C70 O74 1.260 . S
O71 In65 2.266 . S
O71 C68 1.252 . S
O72 In65 2.326 . S
O72 C68 1.260 . S
O73 In65 2.266 . S
O73 C70 1.252 . S
O74 In65 2.326 . S
O74 C70 1.260 . S
C75 O66 1.240 . S
C75 O67 1.252 . S
O76 In65 2.294 . S
O76 C69 1.240 . S
O77 In65 2.326 . S
O77 C69 1.252 . S
In78 O79 2.294 . S
In78 O80 2.326 . S
In78 O84 2.266 . S
In78 O85 2.326 . S
In78 O86 2.266 . S
In78 O87 2.326 . S
In78 O89 2.294 . S
In78 O90 2.326 . S
O79 In78 2.294 . S
O79 C88 1.240 . S
O80 In78 2.326 . S
O80 C88 1.252 . S
C81 O84 1.252 . S
C81 O85 1.260 . S
C82 O89 1.240 . S
C82 O90 1.252 . S
C83 O86 1.252 . S
C83 O87 1.260 . S
O84 In78 2.266 . S
O84 C81 1.252 . S
O85 In78 2.326 . S
O85 C81 1.260 . S
O86 In78 2.266 . S
O86 C83 1.252 . S
O87 In78 2.326 . S
O87 C83 1.260 . S
C88 O79 1.240 . S
C88 O80 1.252 . S
O89 In78 2.294 . S
O89 C82 1.240 . S
O90 In78 2.326 . S
O90 C82 1.252 . S
In91 O92 2.294 1_556 S
In91 O93 2.326 1_556 S
In91 O97 2.266 . S
In91 O98 2.326 . S
In91 O99 2.266 . S
In91 O100 2.326 . S
In91 O102 2.294 . S
In91 O103 2.326 . S
O92 In91 2.294 1_554 S
O92 C101 1.240 . S
O93 In91 2.326 1_554 S
O93 C101 1.252 . S
C94 O97 1.252 . S
C94 O98 1.260 . S
C95 O102 1.240 . S
C95 O103 1.252 . S
C96 O99 1.252 . S
C96 O100 1.260 . S
O97 In91 2.266 . S
O97 C94 1.252 . S
O98 In91 2.326 . S
O98 C94 1.260 . S
O99 In91 2.266 . S
O99 C96 1.252 . S
O100 In91 2.326 . S
O100 C96 1.260 . S
C101 O92 1.240 . S
C101 O93 1.252 . S
O102 In91 2.294 . S
O102 C95 1.240 . S
O103 In91 2.326 . S
O103 C95 1.252 . S
In104 O105 2.294 . S
In104 O106 2.326 . S
In104 O110 2.266 . S
In104 O111 2.326 . S
In104 O112 2.266 . S
In104 O113 2.326 . S
In104 O115 2.294 . S
In104 O116 2.326 . S
O105 In104 2.294 . S
O105 C114 1.240 . S
O106 In104 2.326 . S
O106 C114 1.252 . S
C107 O110 1.252 . S
C107 O111 1.260 . S
C108 O115 1.240 . S
C108 O116 1.252 . S
C109 O112 1.252 . S
C109 O113 1.260 . S
O110 In104 2.266 . S
O110 C107 1.252 . S
O111 In104 2.326 . S
O111 C107 1.260 . S
O112 In104 2.266 . S
O112 C109 1.252 . S
O113 In104 2.326 . S
O113 C109 1.260 . S
C114 O105 1.240 . S
C114 O106 1.252 . S
O115 In104 2.294 . S
O115 C108 1.240 . S
O116 In104 2.326 . S
O116 C108 1.252 . S
In117 O118 2.294 . S
In117 O119 2.326 . S
In117 O123 2.266 . S
In117 O124 2.326 . S
In117 O125 2.266 . S
In117 O126 2.326 . S
In117 O128 2.294 . S
In117 O129 2.326 . S
O118 In117 2.294 . S
O118 C127 1.240 . S
O119 In117 2.326 . S
O119 C127 1.252 . S
C120 O123 1.252 . S
C120 O124 1.260 . S
C121 O128 1.240 . S
C121 O129 1.252 . S
C122 O125 1.252 . S
C122 O126 1.260 . S
O123 In117 2.266 . S
O123 C120 1.252 . S
O124 In117 2.326 . S
O124 C120 1.260 . S
O125 In117 2.266 . S
O125 C122 1.252 . S
O126 In117 2.326 . S
O126 C122 1.260 . S
C127 O118 1.240 . S
C127 O119 1.252 . S
O128 In117 2.294 . S
O128 C121 1.240 . S
O129 In117 2.326 . S
O129 C121 1.252 . S
In130 O131 2.294 . S
In130 O132 2.326 . S
In130 O136 2.266 . S
In130 O137 2.326 . S
In130 O138 2.266 . S
In130 O139 2.326 . S
In130 O141 2.294 . S
In130 O142 2.326 . S
O131 In130 2.294 . S
O131 C140 1.240 . S
O132 In130 2.326 . S
O132 C140 1.252 . S
C133 O136 1.252 . S
C133 O137 1.260 . S
C134 O141 1.240 . S
C134 O142 1.252 . S
C135 O138 1.252 . S
C135 O139 1.260 . S
O136 In130 2.266 . S
O136 C133 1.252 . S
O137 In130 2.326 . S
O137 C133 1.260 . S
O138 In130 2.266 . S
O138 C135 1.252 . S
O139 In130 2.326 . S
O139 C135 1.260 . S
C140 O131 1.240 . S
C140 O132 1.252 . S
O141 In130 2.294 . S
O141 C134 1.240 . S
O142 In130 2.326 . S
O142 C134 1.252 . S
In143 O144 2.294 1_556 S
In143 O145 2.326 1_556 S
In143 O149 2.266 . S
In143 O150 2.326 . S
In143 O151 2.266 . S
In143 O152 2.326 . S
In143 O154 2.294 . S
In143 O155 2.326 . S
O144 In143 2.294 1_554 S
O144 C153 1.240 . S
O145 In143 2.326 1_554 S
O145 C153 1.252 . S
C146 O149 1.252 . S
C146 O150 1.260 . S
C147 O154 1.240 . S
C147 O155 1.252 . S
C148 O151 1.252 . S
C148 O152 1.260 . S
O149 In143 2.266 . S
O149 C146 1.252 . S
O150 In143 2.326 . S
O150 C146 1.260 . S
O151 In143 2.266 . S
O151 C148 1.252 . S
O152 In143 2.326 . S
O152 C148 1.260 . S
C153 O144 1.240 . S
C153 O145 1.252 . S
O154 In143 2.294 . S
O154 C147 1.240 . S
O155 In143 2.326 . S
O155 C147 1.252 . S
In156 O157 2.294 . S
In156 O158 2.326 . S
In156 O162 2.266 . S
In156 O163 2.326 . S
In156 O164 2.266 . S
In156 O165 2.326 . S
In156 O167 2.294 . S
In156 O168 2.326 . S
O157 In156 2.294 . S
O157 C166 1.240 . S
O158 In156 2.326 . S
O158 C166 1.252 . S
C159 O162 1.252 . S
C159 O163 1.260 . S
C160 O167 1.240 . S
C160 O168 1.252 . S
C161 O164 1.252 . S
C161 O165 1.260 . S
O162 In156 2.266 . S
O162 C159 1.252 . S
O163 In156 2.326 . S
O163 C159 1.260 . S
O164 In156 2.266 . S
O164 C161 1.252 . S
O165 In156 2.326 . S
O165 C161 1.260 . S
C166 O157 1.240 . S
C166 O158 1.252 . S
O167 In156 2.294 . S
O167 C160 1.240 . S
O168 In156 2.326 . S
O168 C160 1.252 . S
In169 O170 2.294 . S
In169 O171 2.326 . S
In169 O175 2.266 . S
In169 O176 2.326 . S
In169 O177 2.266 . S
In169 O178 2.326 . S
In169 O180 2.294 . S
In169 O181 2.326 . S
O170 In169 2.294 . S
O170 C179 1.240 . S
O171 In169 2.326 . S
O171 C179 1.252 . S
C172 O175 1.252 . S
C172 O176 1.260 . S
C173 O180 1.240 . S
C173 O181 1.252 . S
C174 O177 1.252 . S
C174 O178 1.260 . S
O175 In169 2.266 . S
O175 C172 1.252 . S
O176 In169 2.326 . S
O176 C172 1.260 . S
O177 In169 2.266 . S
O177 C174 1.252 . S
O178 In169 2.326 . S
O178 C174 1.260 . S
C179 O170 1.240 . S
C179 O171 1.252 . S
O180 In169 2.294 . S
O180 C173 1.240 . S
O181 In169 2.326 . S
O181 C173 1.252 . S
In182 O183 2.294 . S
In182 O184 2.326 . S
In182 O188 2.266 . S
In182 O189 2.326 . S
In182 O190 2.266 . S
In182 O191 2.326 . S
In182 O193 2.294 . S
In182 O194 2.326 . S
O183 In182 2.294 . S
O183 C192 1.240 . S
O184 In182 2.326 . S
O184 C192 1.252 . S
C185 O188 1.252 . S
C185 O189 1.260 . S
C186 O193 1.240 . S
C186 O194 1.252 . S
C187 O190 1.252 . S
C187 O191 1.260 . S
O188 In182 2.266 . S
O188 C185 1.252 . S
O189 In182 2.326 . S
O189 C185 1.260 . S
O190 In182 2.266 . S
O190 C187 1.252 . S
O191 In182 2.326 . S
O191 C187 1.260 . S
C192 O183 1.240 . S
C192 O184 1.252 . S
O193 In182 2.294 . S
O193 C186 1.240 . S
O194 In182 2.326 . S
O194 C186 1.252 . S
In195 O196 2.294 1_554 S
In195 O197 2.326 1_554 S
In195 O201 2.266 . S
In195 O202 2.326 . S
In195 O203 2.266 . S
In195 O204 2.326 . S
In195 O206 2.294 . S
In195 O207 2.326 . S
O196 In195 2.294 1_556 S
O196 C205 1.240 . S
O197 In195 2.326 1_556 S
O197 C205 1.252 . S
C198 O201 1.252 . S
C198 O202 1.260 . S
C199 O206 1.240 . S
C199 O207 1.252 . S
C200 O203 1.252 . S
C200 O204 1.260 . S
O201 In195 2.266 . S
O201 C198 1.252 . S
O202 In195 2.326 . S
O202 C198 1.260 . S
O203 In195 2.266 . S
O203 C200 1.252 . S
O204 In195 2.326 . S
O204 C200 1.260 . S
C205 O196 1.240 . S
C205 O197 1.252 . S
O206 In195 2.294 . S
O206 C199 1.240 . S
O207 In195 2.326 . S
O207 C199 1.252 . S
In208 O209 2.294 . S
In208 O210 2.326 . S
In208 O214 2.266 . S
In208 O215 2.326 . S
In208 O216 2.266 . S
In208 O217 2.326 . S
In208 O219 2.294 . S
In208 O220 2.326 . S
O209 In208 2.294 . S
O209 C218 1.240 . S
O210 In208 2.326 . S
O210 C218 1.252 . S
C211 O214 1.252 . S
C211 O215 1.260 . S
C212 O219 1.240 . S
C212 O220 1.252 . S
C213 O216 1.252 . S
C213 O217 1.260 . S
O214 In208 2.266 . S
O214 C211 1.252 . S
O215 In208 2.326 . S
O215 C211 1.260 . S
O216 In208 2.266 . S
O216 C213 1.252 . S
O217 In208 2.326 . S
O217 C213 1.260 . S
C218 O209 1.240 . S
C218 O210 1.252 . S
O219 In208 2.294 . S
O219 C212 1.240 . S
O220 In208 2.326 . S
O220 C212 1.252 . S
In221 O222 2.294 1_554 S
In221 O223 2.326 1_554 S
In221 O227 2.266 . S
In221 O228 2.326 . S
In221 O229 2.266 . S
In221 O230 2.326 . S
In221 O232 2.294 . S
In221 O233 2.326 . S
O222 In221 2.294 1_556 S
O222 C231 1.240 . S
O223 In221 2.326 1_556 S
O223 C231 1.252 . S
C224 O227 1.252 . S
C224 O228 1.260 . S
C225 O232 1.240 . S
C225 O233 1.252 . S
C226 O229 1.252 . S
C226 O230 1.260 . S
O227 In221 2.266 . S
O227 C224 1.252 . S
O228 In221 2.326 . S
O228 C224 1.260 . S
O229 In221 2.266 . S
O229 C226 1.252 . S
O230 In221 2.326 . S
O230 C226 1.260 . S
C231 O222 1.240 . S
C231 O223 1.252 . S
O232 In221 2.294 . S
O232 C225 1.240 . S
O233 In221 2.326 . S
O233 C225 1.252 . S
In234 O235 2.294 . S
In234 O236 2.326 . S
In234 O240 2.266 . S
In234 O241 2.326 . S
In234 O242 2.266 . S
In234 O243 2.326 . S
In234 O245 2.294 . S
In234 O246 2.326 . S
O235 In234 2.294 . S
O235 C244 1.240 . S
O236 In234 2.326 . S
O236 C244 1.252 . S
C237 O240 1.252 . S
C237 O241 1.260 . S
C238 O245 1.240 . S
C238 O246 1.252 . S
C239 O242 1.252 . S
C239 O243 1.260 . S
O240 In234 2.266 . S
O240 C237 1.252 . S
O241 In234 2.326 . S
O241 C237 1.260 . S
O242 In234 2.266 . S
O242 C239 1.252 . S
O243 In234 2.326 . S
O243 C239 1.260 . S
C244 O235 1.240 . S
C244 O236 1.252 . S
O245 In234 2.294 . S
O245 C238 1.240 . S
O246 In234 2.326 . S
O246 C238 1.252 . S
In247 O248 2.294 . S
In247 O249 2.326 . S
In247 O253 2.266 . S
In247 O254 2.326 . S
In247 O255 2.266 . S
In247 O256 2.326 . S
In247 O258 2.294 . S
In247 O259 2.326 . S
O248 In247 2.294 . S
O248 C257 1.240 . S
O249 In247 2.326 . S
O249 C257 1.252 . S
C250 O253 1.252 . S
C250 O254 1.260 . S
C251 O258 1.240 . S
C251 O259 1.252 . S
C252 O255 1.252 . S
C252 O256 1.260 . S
O253 In247 2.266 . S
O253 C250 1.252 . S
O254 In247 2.326 . S
O254 C250 1.260 . S
O255 In247 2.266 . S
O255 C252 1.252 . S
O256 In247 2.326 . S
O256 C252 1.260 . S
C257 O248 1.240 . S
C257 O249 1.252 . S
O258 In247 2.294 . S
O258 C251 1.240 . S
O259 In247 2.326 . S
O259 C251 1.252 . S
In260 O261 2.294 . S
In260 O262 2.326 . S
In260 O266 2.266 . S
In260 O267 2.326 . S
In260 O268 2.266 . S
In260 O269 2.326 . S
In260 O271 2.294 . S
In260 O272 2.326 . S
O261 In260 2.294 . S
O261 C270 1.240 . S
O262 In260 2.326 . S
O262 C270 1.252 . S
C263 O266 1.252 . S
C263 O267 1.260 . S
C264 O271 1.240 . S
C264 O272 1.252 . S
C265 O268 1.252 . S
C265 O269 1.260 . S
O266 In260 2.266 . S
O266 C263 1.252 . S
O267 In260 2.326 . S
O267 C263 1.260 . S
O268 In260 2.266 . S
O268 C265 1.252 . S
O269 In260 2.326 . S
O269 C265 1.260 . S
C270 O261 1.240 . S
C270 O262 1.252 . S
O271 In260 2.294 . S
O271 C264 1.240 . S
O272 In260 2.326 . S
O272 C264 1.252 . S
In273 O274 2.294 1_556 S
In273 O275 2.326 1_556 S
In273 O279 2.266 . S
In273 O280 2.326 . S
In273 O281 2.266 . S
In273 O282 2.326 . S
In273 O284 2.294 . S
In273 O285 2.326 . S
O274 In273 2.294 1_554 S
O274 C283 1.240 . S
O275 In273 2.326 1_554 S
O275 C283 1.252 . S
C276 O279 1.252 . S
C276 O280 1.260 . S
C277 O284 1.240 . S
C277 O285 1.252 . S
C278 O281 1.252 . S
C278 O282 1.260 . S
O279 In273 2.266 . S
O279 C276 1.252 . S
O280 In273 2.326 . S
O280 C276 1.260 . S
O281 In273 2.266 . S
O281 C278 1.252 . S
O282 In273 2.326 . S
O282 C278 1.260 . S
C283 O274 1.240 . S
C283 O275 1.252 . S
O284 In273 2.294 . S
O284 C277 1.240 . S
O285 In273 2.326 . S
O285 C277 1.252 . S
In286 O287 2.294 . S
In286 O288 2.326 . S
In286 O292 2.266 . S
In286 O293 2.326 . S
In286 O294 2.266 . S
In286 O295 2.326 . S
In286 O297 2.294 . S
In286 O298 2.326 . S
O287 In286 2.294 . S
O287 C296 1.240 . S
O288 In286 2.326 . S
O288 C296 1.252 . S
C289 O292 1.252 . S
C289 O293 1.260 . S
C290 O297 1.240 . S
C290 O298 1.252 . S
C291 O294 1.252 . S
C291 O295 1.260 . S
O292 In286 2.266 . S
O292 C289 1.252 . S
O293 In286 2.326 . S
O293 C289 1.260 . S
O294 In286 2.266 . S
O294 C291 1.252 . S
O295 In286 2.326 . S
O295 C291 1.260 . S
C296 O287 1.240 . S
C296 O288 1.252 . S
O297 In286 2.294 . S
O297 C290 1.240 . S
O298 In286 2.326 . S
O298 C290 1.252 . S
In299 O300 2.294 . S
In299 O301 2.326 . S
In299 O305 2.266 . S
In299 O306 2.326 . S
In299 O307 2.266 . S
In299 O308 2.326 . S
In299 O310 2.294 . S
In299 O311 2.326 . S
O300 In299 2.294 . S
O300 C309 1.240 . S
O301 In299 2.326 . S
O301 C309 1.252 . S
C302 O305 1.252 . S
C302 O306 1.260 . S
C303 O310 1.240 . S
C303 O311 1.252 . S
C304 O307 1.252 . S
C304 O308 1.260 . S
O305 In299 2.266 . S
O305 C302 1.252 . S
O306 In299 2.326 . S
O306 C302 1.260 . S
O307 In299 2.266 . S
O307 C304 1.252 . S
O308 In299 2.326 . S
O308 C304 1.260 . S
C309 O300 1.240 . S
C309 O301 1.252 . S
O310 In299 2.294 . S
O310 C303 1.240 . S
O311 In299 2.326 . S
O311 C303 1.252 . S
In312 O313 2.294 . S
In312 O314 2.326 . S
In312 O318 2.266 . S
In312 O319 2.326 . S
In312 O320 2.266 . S
In312 O321 2.326 . S
In312 O323 2.294 . S
In312 O324 2.326 . S
O313 In312 2.294 . S
O313 C322 1.240 . S
O314 In312 2.326 . S
O314 C322 1.252 . S
C315 O318 1.252 . S
C315 O319 1.260 . S
C316 O323 1.240 . S
C316 O324 1.252 . S
C317 O320 1.252 . S
C317 O321 1.260 . S
O318 In312 2.266 . S
O318 C315 1.252 . S
O319 In312 2.326 . S
O319 C315 1.260 . S
O320 In312 2.266 . S
O320 C317 1.252 . S
O321 In312 2.326 . S
O321 C317 1.260 . S
C322 O313 1.240 . S
C322 O314 1.252 . S
O323 In312 2.294 . S
O323 C316 1.240 . S
O324 In312 2.326 . S
O324 C316 1.252 . S
In325 O326 2.294 1_556 S
In325 O327 2.326 1_556 S
In325 O331 2.266 . S
In325 O332 2.326 . S
In325 O333 2.266 . S
In325 O334 2.326 . S
In325 O336 2.294 . S
In325 O337 2.326 . S
O326 In325 2.294 1_554 S
O326 C335 1.240 . S
O327 In325 2.326 1_554 S
O327 C335 1.252 . S
C328 O331 1.252 . S
C328 O332 1.260 . S
C329 O336 1.240 . S
C329 O337 1.252 . S
C330 O333 1.252 . S
C330 O334 1.260 . S
O331 In325 2.266 . S
O331 C328 1.252 . S
O332 In325 2.326 . S
O332 C328 1.260 . S
O333 In325 2.266 . S
O333 C330 1.252 . S
O334 In325 2.326 . S
O334 C330 1.260 . S
C335 O326 1.240 . S
C335 O327 1.252 . S
O336 In325 2.294 . S
O336 C329 1.240 . S
O337 In325 2.326 . S
O337 C329 1.252 . S
In338 O339 2.294 . S
In338 O340 2.326 . S
In338 O344 2.266 . S
In338 O345 2.326 . S
In338 O346 2.266 . S
In338 O347 2.326 . S
In338 O349 2.294 . S
In338 O350 2.326 . S
O339 In338 2.294 . S
O339 C348 1.240 . S
O340 In338 2.326 . S
O340 C348 1.252 . S
C341 O344 1.252 . S
C341 O345 1.260 . S
C342 O349 1.240 . S
C342 O350 1.252 . S
C343 O346 1.252 . S
C343 O347 1.260 . S
O344 In338 2.266 . S
O344 C341 1.252 . S
O345 In338 2.326 . S
O345 C341 1.260 . S
O346 In338 2.266 . S
O346 C343 1.252 . S
O347 In338 2.326 . S
O347 C343 1.260 . S
C348 O339 1.240 . S
C348 O340 1.252 . S
O349 In338 2.294 . S
O349 C342 1.240 . S
O350 In338 2.326 . S
O350 C342 1.252 . S
In351 O352 2.294 . S
In351 O353 2.326 . S
In351 O357 2.266 . S
In351 O358 2.326 . S
In351 O359 2.266 . S
In351 O360 2.326 . S
In351 O362 2.294 . S
In351 O363 2.326 . S
O352 In351 2.294 . S
O352 C361 1.240 . S
O353 In351 2.326 . S
O353 C361 1.252 . S
C354 O357 1.252 . S
C354 O358 1.260 . S
C355 O362 1.240 . S
C355 O363 1.252 . S
C356 O359 1.252 . S
C356 O360 1.260 . S
O357 In351 2.266 . S
O357 C354 1.252 . S
O358 In351 2.326 . S
O358 C354 1.260 . S
O359 In351 2.266 . S
O359 C356 1.252 . S
O360 In351 2.326 . S
O360 C356 1.260 . S
C361 O352 1.240 . S
C361 O353 1.252 . S
O362 In351 2.294 . S
O362 C355 1.240 . S
O363 In351 2.326 . S
O363 C355 1.252 . S
In364 O365 2.294 . S
In364 O366 2.326 . S
In364 O370 2.266 . S
In364 O371 2.326 . S
In364 O372 2.266 . S
In364 O373 2.326 . S
In364 O375 2.294 . S
In364 O376 2.326 . S
O365 In364 2.294 . S
O365 C374 1.240 . S
O366 In364 2.326 . S
O366 C374 1.252 . S
C367 O370 1.252 . S
C367 O371 1.260 . S
C368 O375 1.240 . S
C368 O376 1.252 . S
C369 O372 1.252 . S
C369 O373 1.260 . S
O370 In364 2.266 . S
O370 C367 1.252 . S
O371 In364 2.326 . S
O371 C367 1.260 . S
O372 In364 2.266 . S
O372 C369 1.252 . S
O373 In364 2.326 . S
O373 C369 1.260 . S
C374 O365 1.240 . S
C374 O366 1.252 . S
O375 In364 2.294 . S
O375 C368 1.240 . S
O376 In364 2.326 . S
O376 C368 1.252 . S
In377 O378 2.294 1_554 S
In377 O379 2.326 1_554 S
In377 O383 2.266 . S
In377 O384 2.326 . S
In377 O385 2.266 . S
In377 O386 2.326 . S
In377 O388 2.294 . S
In377 O389 2.326 . S
O378 In377 2.294 1_556 S
O378 C387 1.240 . S
O379 In377 2.326 1_556 S
O379 C387 1.252 . S
C380 O383 1.252 . S
C380 O384 1.260 . S
C381 O388 1.240 . S
C381 O389 1.252 . S
C382 O385 1.252 . S
C382 O386 1.260 . S
O383 In377 2.266 . S
O383 C380 1.252 . S
O384 In377 2.326 . S
O384 C380 1.260 . S
O385 In377 2.266 . S
O385 C382 1.252 . S
O386 In377 2.326 . S
O386 C382 1.260 . S
C387 O378 1.240 . S
C387 O379 1.252 . S
O388 In377 2.294 . S
O388 C381 1.240 . S
O389 In377 2.326 . S
O389 C381 1.252 . S
In390 O391 2.294 . S
In390 O392 2.326 . S
In390 O396 2.266 . S
In390 O397 2.326 . S
In390 O398 2.266 . S
In390 O399 2.326 . S
In390 O401 2.294 . S
In390 O402 2.326 . S
O391 In390 2.294 . S
O391 C400 1.240 . S
O392 In390 2.326 . S
O392 C400 1.252 . S
C393 O396 1.252 . S
C393 O397 1.260 . S
C394 O401 1.240 . S
C394 O402 1.252 . S
C395 O398 1.252 . S
C395 O399 1.260 . S
O396 In390 2.266 . S
O396 C393 1.252 . S
O397 In390 2.326 . S
O397 C393 1.260 . S
O398 In390 2.266 . S
O398 C395 1.252 . S
O399 In390 2.326 . S
O399 C395 1.260 . S
C400 O391 1.240 . S
C400 O392 1.252 . S
O401 In390 2.294 . S
O401 C394 1.240 . S
O402 In390 2.326 . S
O402 C394 1.252 . S
In403 O404 2.294 . S
In403 O405 2.326 . S
In403 O409 2.266 . S
In403 O410 2.326 . S
In403 O411 2.266 . S
In403 O412 2.326 . S
In403 O414 2.294 . S
In403 O415 2.326 . S
O404 In403 2.294 . S
O404 C413 1.240 . S
O405 In403 2.326 . S
O405 C413 1.252 . S
C406 O409 1.252 . S
C406 O410 1.260 . S
C407 O414 1.240 . S
C407 O415 1.252 . S
C408 O411 1.252 . S
C408 O412 1.260 . S
O409 In403 2.266 . S
O409 C406 1.252 . S
O410 In403 2.326 . S
O410 C406 1.260 . S
O411 In403 2.266 . S
O411 C408 1.252 . S
O412 In403 2.326 . S
O412 C408 1.260 . S
C413 O404 1.240 . S
C413 O405 1.252 . S
O414 In403 2.294 . S
O414 C407 1.240 . S
O415 In403 2.326 . S
O415 C407 1.252 . S
H416 C422 0.930 . S
H417 C425 0.930 . S
H418 C426 0.930 . S
H419 C427 0.930 . S
H420 C430 0.930 . S
H421 C431 0.930 . S
C422 H416 0.930 . S
C422 C423 1.355 . S
C422 C424 1.415 . S
C423 C422 1.355 . S
C423 C425 1.419 . S
C424 C422 1.415 . S
C424 C429 1.425 . S
C424 C431 1.409 . S
C425 H417 0.930 . S
C425 C423 1.419 . S
C425 C426 1.362 . S
C426 H418 0.930 . S
C426 C425 1.362 . S
C426 C429 1.409 . S
C427 H419 0.930 . S
C427 C428 1.355 . S
C427 C429 1.415 . S
C428 C427 1.355 . S
C428 C430 1.419 . S
C429 C424 1.425 . S
C429 C426 1.409 . S
C429 C427 1.415 . S
C430 H420 0.930 . S
C430 C428 1.419 . S
C430 C431 1.362 . S
C431 H421 0.930 . S
C431 C424 1.409 . S
C431 C430 1.362 . S
H432 C438 0.930 . S
H433 C441 0.930 . S
H434 C442 0.930 . S
H435 C443 0.930 . S
H436 C446 0.930 . S
H437 C447 0.930 . S
C438 H432 0.930 . S
C438 C439 1.355 . S
C438 C440 1.415 . S
C439 C438 1.355 . S
C439 C441 1.419 . S
C440 C438 1.415 . S
C440 C445 1.425 . S
C440 C447 1.409 . S
C441 H433 0.930 . S
C441 C439 1.419 . S
C441 C442 1.362 . S
C442 H434 0.930 . S
C442 C441 1.362 . S
C442 C445 1.409 . S
C443 H435 0.930 . S
C443 C444 1.355 . S
C443 C445 1.415 . S
C444 C443 1.355 . S
C444 C446 1.419 . S
C445 C440 1.425 . S
C445 C442 1.409 . S
C445 C443 1.415 . S
C446 H436 0.930 . S
C446 C444 1.419 . S
C446 C447 1.362 . S
C447 H437 0.930 . S
C447 C440 1.409 . S
C447 C446 1.362 . S
H448 C454 0.930 . S
H449 C457 0.930 . S
H450 C458 0.930 . S
H451 C459 0.930 . S
H452 C462 0.930 . S
H453 C463 0.930 . S
C454 H448 0.930 . S
C454 C455 1.355 . S
C454 C456 1.415 . S
C455 C454 1.355 . S
C455 C457 1.419 . S
C456 C454 1.415 . S
C456 C461 1.425 . S
C456 C463 1.409 . S
C457 H449 0.930 . S
C457 C455 1.419 . S
C457 C458 1.362 . S
C458 H450 0.930 . S
C458 C457 1.362 . S
C458 C461 1.409 . S
C459 H451 0.930 . S
C459 C460 1.355 . S
C459 C461 1.415 . S
C460 C459 1.355 . S
C460 C462 1.419 . S
C461 C456 1.425 . S
C461 C458 1.409 . S
C461 C459 1.415 . S
C462 H452 0.930 . S
C462 C460 1.419 . S
C462 C463 1.362 . S
C463 H453 0.930 . S
C463 C456 1.409 . S
C463 C462 1.362 . S
H464 C470 0.930 . S
H465 C473 0.930 . S
H466 C474 0.930 . S
H467 C475 0.930 . S
H468 C478 0.930 . S
H469 C479 0.930 . S
C470 H464 0.930 . S
C470 C471 1.355 . S
C470 C472 1.415 . S
C471 C470 1.355 . S
C471 C473 1.419 . S
C472 C470 1.415 . S
C472 C477 1.425 . S
C472 C479 1.409 . S
C473 H465 0.930 . S
C473 C471 1.419 . S
C473 C474 1.362 . S
C474 H466 0.930 . S
C474 C473 1.362 . S
C474 C477 1.409 . S
C475 H467 0.930 . S
C475 C476 1.355 . S
C475 C477 1.415 . S
C476 C475 1.355 . S
C476 C478 1.419 . S
C477 C472 1.425 . S
C477 C474 1.409 . S
C477 C475 1.415 . S
C478 H468 0.930 . S
C478 C476 1.419 . S
C478 C479 1.362 . S
C479 H469 0.930 . S
C479 C472 1.409 . S
C479 C478 1.362 . S
H480 C486 0.930 . S
H481 C489 0.930 . S
H482 C490 0.930 . S
H483 C491 0.930 . S
H484 C494 0.930 . S
H485 C495 0.930 . S
C486 H480 0.930 . S
C486 C487 1.355 . S
C486 C488 1.415 . S
C487 C486 1.355 . S
C487 C489 1.419 . S
C488 C486 1.415 . S
C488 C493 1.425 . S
C488 C495 1.409 . S
C489 H481 0.930 . S
C489 C487 1.419 . S
C489 C490 1.362 . S
C490 H482 0.930 . S
C490 C489 1.362 . S
C490 C493 1.409 . S
C491 H483 0.930 . S
C491 C492 1.355 . S
C491 C493 1.415 . S
C492 C491 1.355 . S
C492 C494 1.419 . S
C493 C488 1.425 . S
C493 C490 1.409 . S
C493 C491 1.415 . S
C494 H484 0.930 . S
C494 C492 1.419 . S
C494 C495 1.362 . S
C495 H485 0.930 . S
C495 C488 1.409 . S
C495 C494 1.362 . S
H496 C502 0.930 . S
H497 C505 0.930 . S
H498 C506 0.930 . S
H499 C507 0.930 . S
H500 C510 0.930 . S
H501 C511 0.930 . S
C502 H496 0.930 . S
C502 C503 1.355 . S
C502 C504 1.415 . S
C503 C502 1.355 . S
C503 C505 1.419 . S
C504 C502 1.415 . S
C504 C509 1.425 . S
C504 C511 1.409 . S
C505 H497 0.930 . S
C505 C503 1.419 . S
C505 C506 1.362 . S
C506 H498 0.930 . S
C506 C505 1.362 . S
C506 C509 1.409 . S
C507 H499 0.930 . S
C507 C508 1.355 . S
C507 C509 1.415 . S
C508 C507 1.355 . S
C508 C510 1.419 . S
C509 C504 1.425 . S
C509 C506 1.409 . S
C509 C507 1.415 . S
C510 H500 0.930 . S
C510 C508 1.419 . S
C510 C511 1.362 . S
C511 H501 0.930 . S
C511 C504 1.409 . S
C511 C510 1.362 . S
H512 C518 0.930 . S
H513 C521 0.930 . S
H514 C522 0.930 . S
H515 C523 0.930 . S
H516 C526 0.930 . S
H517 C527 0.930 . S
C518 H512 0.930 . S
C518 C519 1.355 . S
C518 C520 1.415 . S
C519 C518 1.355 . S
C519 C521 1.419 . S
C520 C518 1.415 . S
C520 C525 1.425 . S
C520 C527 1.409 . S
C521 H513 0.930 . S
C521 C519 1.419 . S
C521 C522 1.362 . S
C522 H514 0.930 . S
C522 C521 1.362 . S
C522 C525 1.409 . S
C523 H515 0.930 . S
C523 C524 1.355 . S
C523 C525 1.415 . S
C524 C523 1.355 . S
C524 C526 1.419 . S
C525 C520 1.425 . S
C525 C522 1.409 . S
C525 C523 1.415 . S
C526 H516 0.930 . S
C526 C524 1.419 . S
C526 C527 1.362 . S
C527 H517 0.930 . S
C527 C520 1.409 . S
C527 C526 1.362 . S
H528 C534 0.930 . S
H529 C537 0.930 . S
H530 C538 0.930 . S
H531 C539 0.930 . S
H532 C542 0.930 . S
H533 C543 0.930 . S
C534 H528 0.930 . S
C534 C535 1.355 . S
C534 C536 1.415 . S
C535 C534 1.355 . S
C535 C537 1.419 . S
C536 C534 1.415 . S
C536 C541 1.425 . S
C536 C543 1.409 . S
C537 H529 0.930 . S
C537 C535 1.419 . S
C537 C538 1.362 . S
C538 H530 0.930 . S
C538 C537 1.362 . S
C538 C541 1.409 . S
C539 H531 0.930 . S
C539 C540 1.355 . S
C539 C541 1.415 . S
C540 C539 1.355 . S
C540 C542 1.419 . S
C541 C536 1.425 . S
C541 C538 1.409 . S
C541 C539 1.415 . S
C542 H532 0.930 . S
C542 C540 1.419 . S
C542 C543 1.362 . S
C543 H533 0.930 . S
C543 C536 1.409 . S
C543 C542 1.362 . S
H544 C550 0.930 . S
H545 C553 0.930 . S
H546 C554 0.930 . S
H547 C555 0.930 . S
H548 C558 0.930 . S
H549 C559 0.930 . S
C550 H544 0.930 . S
C550 C551 1.355 . S
C550 C552 1.415 . S
C551 C550 1.355 . S
C551 C553 1.419 . S
C552 C550 1.415 . S
C552 C557 1.425 . S
C552 C559 1.409 . S
C553 H545 0.930 . S
C553 C551 1.419 . S
C553 C554 1.362 . S
C554 H546 0.930 . S
C554 C553 1.362 . S
C554 C557 1.409 . S
C555 H547 0.930 . S
C555 C556 1.355 . S
C555 C557 1.415 . S
C556 C555 1.355 . S
C556 C558 1.419 . S
C557 C552 1.425 . S
C557 C554 1.409 . S
C557 C555 1.415 . S
C558 H548 0.930 . S
C558 C556 1.419 . S
C558 C559 1.362 . S
C559 H549 0.930 . S
C559 C552 1.409 . S
C559 C558 1.362 . S
H560 C566 0.930 . S
H561 C569 0.930 . S
H562 C570 0.930 . S
H563 C571 0.930 . S
H564 C574 0.930 . S
H565 C575 0.930 . S
C566 H560 0.930 . S
C566 C567 1.355 . S
C566 C568 1.415 . S
C567 C566 1.355 . S
C567 C569 1.419 . S
C568 C566 1.415 . S
C568 C573 1.425 . S
C568 C575 1.409 . S
C569 H561 0.930 . S
C569 C567 1.419 . S
C569 C570 1.362 . S
C570 H562 0.930 . S
C570 C569 1.362 . S
C570 C573 1.409 . S
C571 H563 0.930 . S
C571 C572 1.355 . S
C571 C573 1.415 . S
C572 C571 1.355 . S
C572 C574 1.419 . S
C573 C568 1.425 . S
C573 C570 1.409 . S
C573 C571 1.415 . S
C574 H564 0.930 . S
C574 C572 1.419 . S
C574 C575 1.362 . S
C575 H565 0.930 . S
C575 C568 1.409 . S
C575 C574 1.362 . S
H576 C582 0.930 . S
H577 C585 0.930 . S
H578 C586 0.930 . S
H579 C587 0.930 . S
H580 C590 0.930 . S
H581 C591 0.930 . S
C582 H576 0.930 . S
C582 C583 1.355 . S
C582 C584 1.415 . S
C583 C582 1.355 . S
C583 C585 1.419 . S
C584 C582 1.415 . S
C584 C589 1.425 . S
C584 C591 1.409 . S
C585 H577 0.930 . S
C585 C583 1.419 . S
C585 C586 1.362 . S
C586 H578 0.930 . S
C586 C585 1.362 . S
C586 C589 1.409 . S
C587 H579 0.930 . S
C587 C588 1.355 . S
C587 C589 1.415 . S
C588 C587 1.355 . S
C588 C590 1.419 . S
C589 C584 1.425 . S
C589 C586 1.409 . S
C589 C587 1.415 . S
C590 H580 0.930 . S
C590 C588 1.419 . S
C590 C591 1.362 . S
C591 H581 0.930 . S
C591 C584 1.409 . S
C591 C590 1.362 . S
H592 C598 0.930 . S
H593 C601 0.930 . S
H594 C602 0.930 . S
H595 C603 0.930 . S
H596 C606 0.930 . S
H597 C607 0.930 . S
C598 H592 0.930 . S
C598 C599 1.355 . S
C598 C600 1.415 . S
C599 C598 1.355 . S
C599 C601 1.419 . S
C600 C598 1.415 . S
C600 C605 1.425 . S
C600 C607 1.409 . S
C601 H593 0.930 . S
C601 C599 1.419 . S
C601 C602 1.362 . S
C602 H594 0.930 . S
C602 C601 1.362 . S
C602 C605 1.409 . S
C603 H595 0.930 . S
C603 C604 1.355 . S
C603 C605 1.415 . S
C604 C603 1.355 . S
C604 C606 1.419 . S
C605 C600 1.425 . S
C605 C602 1.409 . S
C605 C603 1.415 . S
C606 H596 0.930 . S
C606 C604 1.419 . S
C606 C607 1.362 . S
C607 H597 0.930 . S
C607 C600 1.409 . S
C607 C606 1.362 . S
H608 C614 0.930 . S
H609 C617 0.930 . S
H610 C618 0.930 . S
H611 C619 0.930 . S
H612 C622 0.930 . S
H613 C623 0.930 . S
C614 H608 0.930 . S
C614 C615 1.355 . S
C614 C616 1.415 . S
C615 C614 1.355 . S
C615 C617 1.419 . S
C616 C614 1.415 . S
C616 C621 1.425 . S
C616 C623 1.409 . S
C617 H609 0.930 . S
C617 C615 1.419 . S
C617 C618 1.362 . S
C618 H610 0.930 . S
C618 C617 1.362 . S
C618 C621 1.409 . S
C619 H611 0.930 . S
C619 C620 1.355 . S
C619 C621 1.415 . S
C620 C619 1.355 . S
C620 C622 1.419 . S
C621 C616 1.425 . S
C621 C618 1.409 . S
C621 C619 1.415 . S
C622 H612 0.930 . S
C622 C620 1.419 . S
C622 C623 1.362 . S
C623 H613 0.930 . S
C623 C616 1.409 . S
C623 C622 1.362 . S
H624 C630 0.930 . S
H625 C633 0.930 . S
H626 C634 0.930 . S
H627 C635 0.930 . S
H628 C638 0.930 . S
H629 C639 0.930 . S
C630 H624 0.930 . S
C630 C631 1.355 . S
C630 C632 1.415 . S
C631 C630 1.355 . S
C631 C633 1.419 . S
C632 C630 1.415 . S
C632 C637 1.425 . S
C632 C639 1.409 . S
C633 H625 0.930 . S
C633 C631 1.419 . S
C633 C634 1.362 . S
C634 H626 0.930 . S
C634 C633 1.362 . S
C634 C637 1.409 . S
C635 H627 0.930 . S
C635 C636 1.355 . S
C635 C637 1.415 . S
C636 C635 1.355 . S
C636 C638 1.419 . S
C637 C632 1.425 . S
C637 C634 1.409 . S
C637 C635 1.415 . S
C638 H628 0.930 . S
C638 C636 1.419 . S
C638 C639 1.362 . S
C639 H629 0.930 . S
C639 C632 1.409 . S
C639 C638 1.362 . S
H640 C646 0.930 . S
H641 C649 0.930 . S
H642 C650 0.930 . S
H643 C651 0.930 . S
H644 C654 0.930 . S
H645 C655 0.930 . S
C646 H640 0.930 . S
C646 C647 1.355 . S
C646 C648 1.415 . S
C647 C646 1.355 . S
C647 C649 1.419 . S
C648 C646 1.415 . S
C648 C653 1.425 . S
C648 C655 1.409 . S
C649 H641 0.930 . S
C649 C647 1.419 . S
C649 C650 1.362 . S
C650 H642 0.930 . S
C650 C649 1.362 . S
C650 C653 1.409 . S
C651 H643 0.930 . S
C651 C652 1.355 . S
C651 C653 1.415 . S
C652 C651 1.355 . S
C652 C654 1.419 . S
C653 C648 1.425 . S
C653 C650 1.409 . S
C653 C651 1.415 . S
C654 H644 0.930 . S
C654 C652 1.419 . S
C654 C655 1.362 . S
C655 H645 0.930 . S
C655 C648 1.409 . S
C655 C654 1.362 . S
H656 C662 0.930 . S
H657 C665 0.930 . S
H658 C666 0.930 . S
H659 C667 0.930 . S
H660 C670 0.930 . S
H661 C671 0.930 . S
C662 H656 0.930 . S
C662 C663 1.355 . S
C662 C664 1.415 . S
C663 C662 1.355 . S
C663 C665 1.419 . S
C664 C662 1.415 . S
C664 C669 1.425 . S
C664 C671 1.409 . S
C665 H657 0.930 . S
C665 C663 1.419 . S
C665 C666 1.362 . S
C666 H658 0.930 . S
C666 C665 1.362 . S
C666 C669 1.409 . S
C667 H659 0.930 . S
C667 C668 1.355 . S
C667 C669 1.415 . S
C668 C667 1.355 . S
C668 C670 1.419 . S
C669 C664 1.425 . S
C669 C666 1.409 . S
C669 C667 1.415 . S
C670 H660 0.930 . S
C670 C668 1.419 . S
C670 C671 1.362 . S
C671 H661 0.930 . S
C671 C664 1.409 . S
C671 C670 1.362 . S
H672 C678 0.930 . S
H673 C681 0.930 . S
H674 C682 0.930 . S
H675 C683 0.930 . S
H676 C686 0.930 . S
H677 C687 0.930 . S
C678 H672 0.930 . S
C678 C679 1.355 . S
C678 C680 1.415 . S
C679 C678 1.355 . S
C679 C681 1.419 . S
C680 C678 1.415 . S
C680 C685 1.425 . S
C680 C687 1.409 . S
C681 H673 0.930 . S
C681 C679 1.419 . S
C681 C682 1.362 . S
C682 H674 0.930 . S
C682 C681 1.362 . S
C682 C685 1.409 . S
C683 H675 0.930 . S
C683 C684 1.355 . S
C683 C685 1.415 . S
C684 C683 1.355 . S
C684 C686 1.419 . S
C685 C680 1.425 . S
C685 C682 1.409 . S
C685 C683 1.415 . S
C686 H676 0.930 . S
C686 C684 1.419 . S
C686 C687 1.362 . S
C687 H677 0.930 . S
C687 C680 1.409 . S
C687 C686 1.362 . S
H688 C694 0.930 . S
H689 C697 0.930 . S
H690 C698 0.930 . S
H691 C699 0.930 . S
H692 C702 0.930 . S
H693 C703 0.930 . S
C694 H688 0.930 . S
C694 C695 1.355 . S
C694 C696 1.415 . S
C695 C694 1.355 . S
C695 C697 1.419 . S
C696 C694 1.415 . S
C696 C701 1.425 . S
C696 C703 1.409 . S
C697 H689 0.930 . S
C697 C695 1.419 . S
C697 C698 1.362 . S
C698 H690 0.930 . S
C698 C697 1.362 . S
C698 C701 1.409 . S
C699 H691 0.930 . S
C699 C700 1.355 1_655 S
C699 C701 1.415 . S
C700 C699 1.355 1_455 S
C700 C702 1.419 . S
C701 C696 1.425 . S
C701 C698 1.409 . S
C701 C699 1.415 . S
C702 H692 0.930 . S
C702 C700 1.419 . S
C702 C703 1.362 1_455 S
C703 H693 0.930 . S
C703 C696 1.409 . S
C703 C702 1.362 1_655 S
H704 C710 0.930 . S
H705 C713 0.930 . S
H706 C714 0.930 . S
H707 C715 0.930 . S
H708 C718 0.930 . S
H709 C719 0.930 . S
C710 H704 0.930 . S
C710 C711 1.355 . S
C710 C712 1.415 . S
C711 C710 1.355 . S
C711 C713 1.419 . S
C712 C710 1.415 . S
C712 C717 1.425 . S
C712 C719 1.409 . S
C713 H705 0.930 . S
C713 C711 1.419 . S
C713 C714 1.362 . S
C714 H706 0.930 . S
C714 C713 1.362 . S
C714 C717 1.409 . S
C715 H707 0.930 . S
C715 C716 1.355 . S
C715 C717 1.415 . S
C716 C715 1.355 . S
C716 C718 1.419 . S
C717 C712 1.425 . S
C717 C714 1.409 . S
C717 C715 1.415 . S
C718 H708 0.930 . S
C718 C716 1.419 . S
C718 C719 1.362 . S
C719 H709 0.930 . S
C719 C712 1.409 . S
C719 C718 1.362 . S
H720 C726 0.930 . S
H721 C729 0.930 . S
H722 C730 0.930 . S
H723 C731 0.930 . S
H724 C734 0.930 . S
H725 C735 0.930 . S
C726 H720 0.930 . S
C726 C727 1.355 . S
C726 C728 1.415 . S
C727 C726 1.355 . S
C727 C729 1.419 . S
C728 C726 1.415 . S
C728 C733 1.425 . S
C728 C735 1.409 . S
C729 H721 0.930 . S
C729 C727 1.419 . S
C729 C730 1.362 . S
C730 H722 0.930 . S
C730 C729 1.362 . S
C730 C733 1.409 . S
C731 H723 0.930 . S
C731 C732 1.355 . S
C731 C733 1.415 . S
C732 C731 1.355 . S
C732 C734 1.419 . S
C733 C728 1.425 . S
C733 C730 1.409 . S
C733 C731 1.415 . S
C734 H724 0.930 . S
C734 C732 1.419 . S
C734 C735 1.362 . S
C735 H725 0.930 . S
C735 C728 1.409 . S
C735 C734 1.362 . S
H736 C742 0.930 . S
H737 C745 0.930 . S
H738 C746 0.930 . S
H739 C747 0.930 . S
H740 C750 0.930 . S
H741 C751 0.930 . S
C742 H736 0.930 . S
C742 C743 1.355 . S
C742 C744 1.415 . S
C743 C742 1.355 . S
C743 C745 1.419 . S
C744 C742 1.415 . S
C744 C749 1.425 . S
C744 C751 1.409 . S
C745 H737 0.930 . S
C745 C743 1.419 . S
C745 C746 1.362 . S
C746 H738 0.930 . S
C746 C745 1.362 . S
C746 C749 1.409 . S
C747 H739 0.930 . S
C747 C748 1.355 . S
C747 C749 1.415 . S
C748 C747 1.355 . S
C748 C750 1.419 . S
C749 C744 1.425 . S
C749 C746 1.409 . S
C749 C747 1.415 . S
C750 H740 0.930 . S
C750 C748 1.419 . S
C750 C751 1.362 . S
C751 H741 0.930 . S
C751 C744 1.409 . S
C751 C750 1.362 . S
H752 C758 0.930 . S
H753 C761 0.930 . S
H754 C762 0.930 . S
H755 C763 0.930 . S
H756 C766 0.930 . S
H757 C767 0.930 . S
C758 H752 0.930 . S
C758 C759 1.355 . S
C758 C760 1.415 . S
C759 C758 1.355 . S
C759 C761 1.419 . S
C760 C758 1.415 . S
C760 C765 1.425 . S
C760 C767 1.409 . S
C761 H753 0.930 . S
C761 C759 1.419 . S
C761 C762 1.362 . S
C762 H754 0.930 . S
C762 C761 1.362 . S
C762 C765 1.409 . S
C763 H755 0.930 . S
C763 C764 1.355 . S
C763 C765 1.415 . S
C764 C763 1.355 . S
C764 C766 1.419 . S
C765 C760 1.425 . S
C765 C762 1.409 . S
C765 C763 1.415 . S
C766 H756 0.930 . S
C766 C764 1.419 . S
C766 C767 1.362 . S
C767 H757 0.930 . S
C767 C760 1.409 . S
C767 C766 1.362 . S
H768 C774 0.930 . S
H769 C777 0.930 . S
H770 C778 0.930 . S
H771 C779 0.930 . S
H772 C782 0.930 . S
H773 C783 0.930 . S
C774 H768 0.930 . S
C774 C775 1.355 . S
C774 C776 1.415 . S
C775 C774 1.355 . S
C775 C777 1.419 . S
C776 C774 1.415 . S
C776 C781 1.425 . S
C776 C783 1.409 . S
C777 H769 0.930 . S
C777 C775 1.419 . S
C777 C778 1.362 . S
C778 H770 0.930 . S
C778 C777 1.362 . S
C778 C781 1.409 . S
C779 H771 0.930 . S
C779 C780 1.355 . S
C779 C781 1.415 . S
C780 C779 1.355 . S
C780 C782 1.419 . S
C781 C776 1.425 . S
C781 C778 1.409 . S
C781 C779 1.415 . S
C782 H772 0.930 . S
C782 C780 1.419 . S
C782 C783 1.362 . S
C783 H773 0.930 . S
C783 C776 1.409 . S
C783 C782 1.362 . S
H784 C790 0.930 . S
H785 C793 0.930 . S
H786 C794 0.933 . S
H787 C795 0.930 . S
H788 C798 0.930 . S
H789 C799 0.930 . S
C790 H784 0.930 . S
C790 C791 1.355 1_655 S
C790 C792 1.415 . S
C791 C790 1.355 1_455 S
C791 C793 1.419 . S
C792 C790 1.415 . S
C792 C797 1.425 . S
C792 C799 1.409 . S
C793 H785 0.930 . S
C793 C791 1.419 . S
C793 C794 1.362 1_455 S
C794 H786 0.933 . S
C794 C793 1.362 1_655 S
C794 C797 1.409 . S
C795 H787 0.930 . S
C795 C796 1.355 . S
C795 C797 1.415 . S
C796 C795 1.355 . S
C796 C798 1.419 . S
C797 C792 1.425 . S
C797 C794 1.409 . S
C797 C795 1.415 . S
C798 H788 0.930 . S
C798 C796 1.419 . S
C798 C799 1.362 . S
C799 H789 0.930 . S
C799 C792 1.409 . S
C799 C798 1.362 . S
H800 C806 0.930 . S
H801 C809 0.930 . S
H802 C810 0.930 . S
H803 C811 0.930 . S
H804 C814 0.930 . S
H805 C815 0.930 . S
C806 H800 0.930 . S
C806 C807 1.355 . S
C806 C808 1.415 . S
C807 C806 1.355 . S
C807 C809 1.419 . S
C808 C806 1.415 . S
C808 C813 1.425 . S
C808 C815 1.409 . S
C809 H801 0.930 . S
C809 C807 1.419 . S
C809 C810 1.362 . S
C810 H802 0.930 . S
C810 C809 1.362 . S
C810 C813 1.409 . S
C811 H803 0.930 . S
C811 C812 1.355 . S
C811 C813 1.415 . S
C812 C811 1.355 . S
C812 C814 1.419 . S
C813 C808 1.425 . S
C813 C810 1.409 . S
C813 C811 1.415 . S
C814 H804 0.930 . S
C814 C812 1.419 . S
C814 C815 1.362 . S
C815 H805 0.930 . S
C815 C808 1.409 . S
C815 C814 1.362 . S
H816 C822 0.930 . S
H817 C825 0.930 . S
H818 C826 0.930 . S
H819 C827 0.930 . S
H820 C830 0.930 . S
H821 C831 0.930 . S
C822 H816 0.930 . S
C822 C823 1.355 1_455 S
C822 C824 1.415 . S
C823 C822 1.355 1_655 S
C823 C825 1.419 . S
C824 C822 1.415 . S
C824 C829 1.425 . S
C824 C831 1.409 . S
C825 H817 0.930 . S
C825 C823 1.419 . S
C825 C826 1.362 1_655 S
C826 H818 0.930 . S
C826 C825 1.362 1_455 S
C826 C829 1.409 . S
C827 H819 0.930 . S
C827 C828 1.355 . S
C827 C829 1.415 . S
C828 C827 1.355 . S
C828 C830 1.419 . S
C829 C824 1.425 . S
C829 C826 1.409 . S
C829 C827 1.415 . S
C830 H820 0.930 . S
C830 C828 1.419 . S
C830 C831 1.362 . S
C831 H821 0.930 . S
C831 C824 1.409 . S
C831 C830 1.362 . S
H832 C838 0.930 . S
H833 C841 0.930 . S
H834 C842 0.930 . S
H835 C843 0.930 . S
H836 C846 0.930 . S
H837 C847 0.930 . S
C838 H832 0.930 . S
C838 C839 1.355 . S
C838 C840 1.415 . S
C839 C838 1.355 . S
C839 C841 1.419 . S
C840 C838 1.415 . S
C840 C845 1.425 . S
C840 C847 1.409 . S
C841 H833 0.930 . S
C841 C839 1.419 . S
C841 C842 1.362 . S
C842 H834 0.930 . S
C842 C841 1.362 . S
C842 C845 1.409 . S
C843 H835 0.930 . S
C843 C844 1.355 . S
C843 C845 1.415 . S
C844 C843 1.355 . S
C844 C846 1.419 . S
C845 C840 1.425 . S
C845 C842 1.409 . S
C845 C843 1.415 . S
C846 H836 0.930 . S
C846 C844 1.419 . S
C846 C847 1.362 . S
C847 H837 0.930 . S
C847 C840 1.409 . S
C847 C846 1.362 . S
H848 C854 0.930 . S
H849 C857 0.930 . S
H850 C858 0.930 . S
H851 C859 0.930 . S
H852 C862 0.930 . S
H853 C863 0.930 . S
C854 H848 0.930 . S
C854 C855 1.355 . S
C854 C856 1.415 . S
C855 C854 1.355 . S
C855 C857 1.419 . S
C856 C854 1.415 . S
C856 C861 1.425 . S
C856 C863 1.409 . S
C857 H849 0.930 . S
C857 C855 1.419 . S
C857 C858 1.362 . S
C858 H850 0.930 . S
C858 C857 1.362 . S
C858 C861 1.409 . S
C859 H851 0.930 . S
C859 C860 1.355 . S
C859 C861 1.415 . S
C860 C859 1.355 . S
C860 C862 1.419 . S
C861 C856 1.425 . S
C861 C858 1.409 . S
C861 C859 1.415 . S
C862 H852 0.930 . S
C862 C860 1.419 . S
C862 C863 1.362 . S
C863 H853 0.930 . S
C863 C856 1.409 . S
C863 C862 1.362 . S
H864 C870 0.930 . S
H865 C873 0.930 . S
H866 C874 0.930 . S
H867 C875 0.930 . S
H868 C878 0.930 . S
H869 C879 0.930 . S
C870 H864 0.930 . S
C870 C871 1.355 . S
C870 C872 1.415 . S
C871 C870 1.355 . S
C871 C873 1.419 . S
C872 C870 1.415 . S
C872 C877 1.425 . S
C872 C879 1.409 . S
C873 H865 0.930 . S
C873 C871 1.419 . S
C873 C874 1.362 . S
C874 H866 0.930 . S
C874 C873 1.362 . S
C874 C877 1.409 . S
C875 H867 0.930 . S
C875 C876 1.355 . S
C875 C877 1.415 . S
C876 C875 1.355 . S
C876 C878 1.419 . S
C877 C872 1.425 . S
C877 C874 1.409 . S
C877 C875 1.415 . S
C878 H868 0.930 . S
C878 C876 1.419 . S
C878 C879 1.362 . S
C879 H869 0.930 . S
C879 C872 1.409 . S
C879 C878 1.362 . S
H880 C886 0.930 . S
H881 C889 0.930 . S
H882 C890 0.930 . S
H883 C891 0.930 . S
H884 C894 0.930 . S
H885 C895 0.930 . S
C886 H880 0.930 . S
C886 C887 1.355 . S
C886 C888 1.415 . S
C887 C886 1.355 . S
C887 C889 1.419 . S
C888 C886 1.415 . S
C888 C893 1.425 . S
C888 C895 1.409 . S
C889 H881 0.930 . S
C889 C887 1.419 . S
C889 C890 1.362 . S
C890 H882 0.930 . S
C890 C889 1.362 . S
C890 C893 1.409 . S
C891 H883 0.930 . S
C891 C892 1.355 . S
C891 C893 1.415 . S
C892 C891 1.355 . S
C892 C894 1.419 . S
C893 C888 1.425 . S
C893 C890 1.409 . S
C893 C891 1.415 . S
C894 H884 0.930 . S
C894 C892 1.419 . S
C894 C895 1.362 . S
C895 H885 0.930 . S
C895 C888 1.409 . S
C895 C894 1.362 . S
H896 C902 0.930 . S
H897 C905 0.930 . S
H898 C906 0.930 . S
H899 C907 0.930 . S
H900 C910 0.930 . S
H901 C911 0.930 . S
C902 H896 0.930 . S
C902 C903 1.355 . S
C902 C904 1.415 . S
C903 C902 1.355 . S
C903 C905 1.419 . S
C904 C902 1.415 . S
C904 C909 1.425 . S
C904 C911 1.409 . S
C905 H897 0.930 . S
C905 C903 1.419 . S
C905 C906 1.362 . S
C906 H898 0.930 . S
C906 C905 1.362 . S
C906 C909 1.409 . S
C907 H899 0.930 . S
C907 C908 1.355 . S
C907 C909 1.415 . S
C908 C907 1.355 . S
C908 C910 1.419 . S
C909 C904 1.425 . S
C909 C906 1.409 . S
C909 C907 1.415 . S
C910 H900 0.930 . S
C910 C908 1.419 . S
C910 C911 1.362 . S
C911 H901 0.930 . S
C911 C904 1.409 . S
C911 C910 1.362 . S
H912 C918 0.930 . S
H913 C921 0.930 . S
H914 C922 0.930 . S
H915 C923 0.930 . S
H916 C926 0.930 . S
H917 C927 0.930 . S
C918 H912 0.930 . S
C918 C919 1.355 . S
C918 C920 1.415 . S
C919 C918 1.355 . S
C919 C921 1.419 . S
C920 C918 1.415 . S
C920 C925 1.425 . S
C920 C927 1.409 . S
C921 H913 0.930 . S
C921 C919 1.419 . S
C921 C922 1.362 . S
C922 H914 0.930 . S
C922 C921 1.362 . S
C922 C925 1.409 . S
C923 H915 0.930 . S
C923 C924 1.355 1_455 S
C923 C925 1.415 . S
C924 C923 1.355 1_655 S
C924 C926 1.419 . S
C925 C920 1.425 . S
C925 C922 1.409 . S
C925 C923 1.415 . S
C926 H916 0.930 . S
C926 C924 1.419 . S
C926 C927 1.362 1_655 S
C927 H917 0.930 . S
C927 C920 1.409 . S
C927 C926 1.362 1_455 S
H928 C934 0.930 . S
H929 C937 0.930 . S
H930 C938 0.930 . S
H931 C939 0.930 . S
H932 C942 0.930 . S
H933 C943 0.930 . S
C934 H928 0.930 . S
C934 C935 1.355 . S
C934 C936 1.415 . S
C935 C934 1.355 . S
C935 C937 1.419 . S
C936 C934 1.415 . S
C936 C941 1.425 . S
C936 C943 1.409 . S
C937 H929 0.930 . S
C937 C935 1.419 . S
C937 C938 1.362 . S
C938 H930 0.930 . S
C938 C937 1.362 . S
C938 C941 1.409 . S
C939 H931 0.930 . S
C939 C940 1.355 . S
C939 C941 1.415 . S
C940 C939 1.355 . S
C940 C942 1.419 . S
C941 C936 1.425 . S
C941 C938 1.409 . S
C941 C939 1.415 . S
C942 H932 0.930 . S
C942 C940 1.419 . S
C942 C943 1.362 . S
C943 H933 0.930 . S
C943 C936 1.409 . S
C943 C942 1.362 . S
H944 C950 0.930 . S
H945 C953 0.930 . S
H946 C954 0.930 . S
H947 C955 0.930 . S
H948 C958 0.930 . S
H949 C959 0.930 . S
C950 H944 0.930 . S
C950 C951 1.355 . S
C950 C952 1.415 . S
C951 C950 1.355 . S
C951 C953 1.419 . S
C952 C950 1.415 . S
C952 C957 1.425 . S
C952 C959 1.409 . S
C953 H945 0.930 . S
C953 C951 1.419 . S
C953 C954 1.362 . S
C954 H946 0.930 . S
C954 C953 1.362 . S
C954 C957 1.409 . S
C955 H947 0.930 . S
C955 C956 1.355 . S
C955 C957 1.415 . S
C956 C955 1.355 . S
C956 C958 1.419 . S
C957 C952 1.425 . S
C957 C954 1.409 . S
C957 C955 1.415 . S
C958 H948 0.930 . S
C958 C956 1.419 . S
C958 C959 1.362 . S
C959 H949 0.930 . S
C959 C952 1.409 . S
C959 C958 1.362 . S
H960 C966 0.930 . S
H961 C969 0.930 . S
H962 C970 0.930 . S
H963 C971 0.930 . S
H964 C974 0.930 . S
H965 C975 0.930 . S
C966 H960 0.930 . S
C966 C967 1.355 . S
C966 C968 1.415 . S
C967 C966 1.355 . S
C967 C969 1.419 . S
C968 C966 1.415 . S
C968 C973 1.425 . S
C968 C975 1.409 . S
C969 H961 0.930 . S
C969 C967 1.419 . S
C969 C970 1.362 . S
C970 H962 0.930 . S
C970 C969 1.362 . S
C970 C973 1.409 . S
C971 H963 0.930 . S
C971 C972 1.355 . S
C971 C973 1.415 . S
C972 C971 1.355 . S
C972 C974 1.419 . S
C973 C968 1.425 . S
C973 C970 1.409 . S
C973 C971 1.415 . S
C974 H964 0.930 . S
C974 C972 1.419 . S
C974 C975 1.362 . S
C975 H965 0.930 . S
C975 C968 1.409 . S
C975 C974 1.362 . S
H976 C982 0.930 . S
H977 C985 0.930 . S
H978 C986 0.930 . S
H979 C987 0.930 . S
H980 C990 0.930 . S
H981 C991 0.930 . S
C982 H976 0.930 . S
C982 C983 1.355 . S
C982 C984 1.415 . S
C983 C982 1.355 . S
C983 C985 1.419 . S
C984 C982 1.415 . S
C984 C989 1.425 . S
C984 C991 1.409 . S
C985 H977 0.930 . S
C985 C983 1.419 . S
C985 C986 1.362 . S
C986 H978 0.930 . S
C986 C985 1.362 . S
C986 C989 1.409 . S
C987 H979 0.930 . S
C987 C988 1.355 . S
C987 C989 1.415 1_655 S
C988 C987 1.355 . S
C988 C990 1.419 1_655 S
C989 C984 1.425 . S
C989 C986 1.409 . S
C989 C987 1.415 1_455 S
C990 H980 0.930 . S
C990 C988 1.419 1_455 S
C990 C991 1.362 . S
C991 H981 0.930 . S
C991 C984 1.409 . S
C991 C990 1.362 . S
H992 C998 0.930 . S
H993 C1001 0.930 . S
H994 C1002 0.930 . S
H995 C1003 0.930 . S
H996 C1006 0.930 . S
H997 C1007 0.930 . S
C998 H992 0.930 . S
C998 C999 1.355 . S
C998 C1000 1.415 . S
C999 C998 1.355 . S
C999 C1001 1.419 . S
C1000 C998 1.415 . S
C1000 C1005 1.425 . S
C1000 C1007 1.409 . S
C1001 H993 0.930 . S
C1001 C999 1.419 . S
C1001 C1002 1.362 . S
C1002 H994 0.930 . S
C1002 C1001 1.362 . S
C1002 C1005 1.409 . S
C1003 H995 0.930 . S
C1003 C1004 1.355 . S
C1003 C1005 1.415 . S
C1004 C1003 1.355 . S
C1004 C1006 1.419 . S
C1005 C1000 1.425 . S
C1005 C1002 1.409 . S
C1005 C1003 1.415 . S
C1006 H996 0.930 . S
C1006 C1004 1.419 . S
C1006 C1007 1.362 . S
C1007 H997 0.930 . S
C1007 C1000 1.409 . S
C1007 C1006 1.362 . S
H1008 C1014 0.919 1_655 S
H1009 C1017 0.917 1_655 S
H1010 C1018 0.930 . S
H1011 C1019 0.930 . S
H1012 C1022 0.930 . S
H1013 C1023 0.930 . S
C1014 H1008 0.919 1_455 S
C1014 C1015 1.344 1_455 S
C1014 C1016 1.436 . S
C1015 C1014 1.344 1_655 S
C1015 C1017 1.407 1_655 S
C1016 C1014 1.436 . S
C1016 C1021 1.425 . S
C1016 C1023 1.409 . S
C1017 H1009 0.917 1_455 S
C1017 C1015 1.407 1_455 S
C1017 C1018 1.388 . S
C1018 H1010 0.930 . S
C1018 C1017 1.388 . S
C1018 C1021 1.409 . S
C1019 H1011 0.930 . S
C1019 C1020 1.355 . S
C1019 C1021 1.415 . S
C1020 C1019 1.355 . S
C1020 C1022 1.419 . S
C1021 C1016 1.425 . S
C1021 C1018 1.409 . S
C1021 C1019 1.415 . S
C1022 H1012 0.930 . S
C1022 C1020 1.419 . S
C1022 C1023 1.362 . S
C1023 H1013 0.930 . S
C1023 C1016 1.409 . S
C1023 C1022 1.362 . S
H1024 C1030 0.930 . S
H1025 C1033 0.930 . S
H1026 C1034 0.930 . S
H1027 C1035 0.930 . S
H1028 C1038 0.930 . S
H1029 C1039 0.930 . S
C1030 H1024 0.930 . S
C1030 C1031 1.355 . S
C1030 C1032 1.415 . S
C1031 C1030 1.355 . S
C1031 C1033 1.419 . S
C1032 C1030 1.415 . S
C1032 C1037 1.425 . S
C1032 C1039 1.409 . S
C1033 H1025 0.930 . S
C1033 C1031 1.419 . S
C1033 C1034 1.362 . S
C1034 H1026 0.930 . S
C1034 C1033 1.362 . S
C1034 C1037 1.409 . S
C1035 H1027 0.930 . S
C1035 C1036 1.355 . S
C1035 C1037 1.415 . S
C1036 C1035 1.355 . S
C1036 C1038 1.419 . S
C1037 C1032 1.425 . S
C1037 C1034 1.409 . S
C1037 C1035 1.415 . S
C1038 H1028 0.930 . S
C1038 C1036 1.419 . S
C1038 C1039 1.362 . S
C1039 H1029 0.930 . S
C1039 C1032 1.409 . S
C1039 C1038 1.362 . S
H1040 C1046 0.930 . S
H1041 C1049 0.930 . S
H1042 C1050 0.930 . S
H1043 C1051 0.930 . S
H1044 C1054 0.930 . S
H1045 C1055 0.930 . S
C1046 H1040 0.930 . S
C1046 C1047 1.355 . S
C1046 C1048 1.415 . S
C1047 C1046 1.355 . S
C1047 C1049 1.419 . S
C1048 C1046 1.415 . S
C1048 C1053 1.425 . S
C1048 C1055 1.409 . S
C1049 H1041 0.930 . S
C1049 C1047 1.419 . S
C1049 C1050 1.362 . S
C1050 H1042 0.930 . S
C1050 C1049 1.362 . S
C1050 C1053 1.409 . S
C1051 H1043 0.930 . S
C1051 C1052 1.355 . S
C1051 C1053 1.415 . S
C1052 C1051 1.355 . S
C1052 C1054 1.419 . S
C1053 C1048 1.425 . S
C1053 C1050 1.409 . S
C1053 C1051 1.415 . S
C1054 H1044 0.930 . S
C1054 C1052 1.419 . S
C1054 C1055 1.362 . S
C1055 H1045 0.930 . S
C1055 C1048 1.409 . S
C1055 C1054 1.362 . S
H1056 C1062 0.930 . S
H1057 C1065 0.930 . S
H1058 C1066 0.930 . S
H1059 C1067 0.930 . S
H1060 C1070 0.930 . S
H1061 C1071 0.930 . S
C1062 H1056 0.930 . S
C1062 C1063 1.355 . S
C1062 C1064 1.415 . S
C1063 C1062 1.355 . S
C1063 C1065 1.419 . S
C1064 C1062 1.415 . S
C1064 C1069 1.425 . S
C1064 C1071 1.409 . S
C1065 H1057 0.930 . S
C1065 C1063 1.419 . S
C1065 C1066 1.362 . S
C1066 H1058 0.930 . S
C1066 C1065 1.362 . S
C1066 C1069 1.409 . S
C1067 H1059 0.930 . S
C1067 C1068 1.355 . S
C1067 C1069 1.415 . S
C1068 C1067 1.355 . S
C1068 C1070 1.419 . S
C1069 C1064 1.425 . S
C1069 C1066 1.409 . S
C1069 C1067 1.415 . S
C1070 H1060 0.930 . S
C1070 C1068 1.419 . S
C1070 C1071 1.362 . S
C1071 H1061 0.930 . S
C1071 C1064 1.409 . S
C1071 C1070 1.362 . S
H1072 C1078 0.930 . S
H1073 C1081 0.930 . S
H1074 C1082 0.930 . S
H1075 C1083 0.930 . S
H1076 C1086 0.930 . S
H1077 C1087 0.930 . S
C1078 H1072 0.930 . S
C1078 C1079 1.355 . S
C1078 C1080 1.415 . S
C1079 C1078 1.355 . S
C1079 C1081 1.419 . S
C1080 C1078 1.415 . S
C1080 C1085 1.425 . S
C1080 C1087 1.409 . S
C1081 H1073 0.930 . S
C1081 C1079 1.419 . S
C1081 C1082 1.362 . S
C1082 H1074 0.930 . S
C1082 C1081 1.362 . S
C1082 C1085 1.409 . S
C1083 H1075 0.930 . S
C1083 C1084 1.355 . S
C1083 C1085 1.415 . S
C1084 C1083 1.355 . S
C1084 C1086 1.419 . S
C1085 C1080 1.425 . S
C1085 C1082 1.409 . S
C1085 C1083 1.415 . S
C1086 H1076 0.930 . S
C1086 C1084 1.419 . S
C1086 C1087 1.362 . S
C1087 H1077 0.930 . S
C1087 C1080 1.409 . S
C1087 C1086 1.362 . S
H1088 C1094 0.930 . S
H1089 C1097 0.930 . S
H1090 C1098 0.930 . S
H1091 C1099 0.930 . S
H1092 C1102 0.930 . S
H1093 C1103 0.930 . S
C1094 H1088 0.930 . S
C1094 C1095 1.355 . S
C1094 C1096 1.415 . S
C1095 C1094 1.355 . S
C1095 C1097 1.419 . S
C1096 C1094 1.415 . S
C1096 C1101 1.425 . S
C1096 C1103 1.409 . S
C1097 H1089 0.930 . S
C1097 C1095 1.419 . S
C1097 C1098 1.362 . S
C1098 H1090 0.930 . S
C1098 C1097 1.362 . S
C1098 C1101 1.409 . S
C1099 H1091 0.930 . S
C1099 C1100 1.355 . S
C1099 C1101 1.415 . S
C1100 C1099 1.355 . S
C1100 C1102 1.419 . S
C1101 C1096 1.425 . S
C1101 C1098 1.409 . S
C1101 C1099 1.415 . S
C1102 H1092 0.930 . S
C1102 C1100 1.419 . S
C1102 C1103 1.362 . S
C1103 H1093 0.930 . S
C1103 C1096 1.409 . S
C1103 C1102 1.362 . S
H1104 C1110 0.930 . S
H1105 C1113 0.930 . S
H1106 C1114 0.930 . S
H1107 C1115 0.930 . S
H1108 C1118 0.930 . S
H1109 C1119 0.930 . S
C1110 H1104 0.930 . S
C1110 C1111 1.355 . S
C1110 C1112 1.415 . S
C1111 C1110 1.355 . S
C1111 C1113 1.419 . S
C1112 C1110 1.415 . S
C1112 C1117 1.425 . S
C1112 C1119 1.409 . S
C1113 H1105 0.930 . S
C1113 C1111 1.419 . S
C1113 C1114 1.362 . S
C1114 H1106 0.930 . S
C1114 C1113 1.362 . S
C1114 C1117 1.409 . S
C1115 H1107 0.930 . S
C1115 C1116 1.355 . S
C1115 C1117 1.415 1_455 S
C1116 C1115 1.355 . S
C1116 C1118 1.419 1_455 S
C1117 C1112 1.425 . S
C1117 C1114 1.409 . S
C1117 C1115 1.415 1_655 S
C1118 H1108 0.930 . S
C1118 C1116 1.419 1_655 S
C1118 C1119 1.362 . S
C1119 H1109 0.930 . S
C1119 C1112 1.409 . S
C1119 C1118 1.362 . S
H1120 C1126 0.930 . S
H1121 C1129 0.930 . S
H1122 C1130 0.930 . S
H1123 C1131 0.930 . S
H1124 C1134 0.930 . S
H1125 C1135 0.930 . S
C1126 H1120 0.930 . S
C1126 C1127 1.355 . S
C1126 C1128 1.415 . S
C1127 C1126 1.355 . S
C1127 C1129 1.419 . S
C1128 C1126 1.415 . S
C1128 C1133 1.425 . S
C1128 C1135 1.409 . S
C1129 H1121 0.930 . S
C1129 C1127 1.419 . S
C1129 C1130 1.362 . S
C1130 H1122 0.930 . S
C1130 C1129 1.362 . S
C1130 C1133 1.409 . S
C1131 H1123 0.930 . S
C1131 C1132 1.355 . S
C1131 C1133 1.415 . S
C1132 C1131 1.355 . S
C1132 C1134 1.419 . S
C1133 C1128 1.425 . S
C1133 C1130 1.409 . S
C1133 C1131 1.415 . S
C1134 H1124 0.930 . S
C1134 C1132 1.419 . S
C1134 C1135 1.362 . S
C1135 H1125 0.930 . S
C1135 C1128 1.409 . S
C1135 C1134 1.362 . S
H1136 C1142 0.911 1_455 S
H1137 C1145 0.930 1_455 S
H1138 C1146 0.930 . S
H1139 C1147 0.930 . S
H1140 C1150 0.930 . S
H1141 C1151 0.930 . S
C1142 H1136 0.911 1_655 S
C1142 C1143 1.336 1_655 S
C1142 C1144 1.453 . S
C1143 C1142 1.336 1_455 S
C1143 C1145 1.419 1_455 S
C1144 C1142 1.453 . S
C1144 C1149 1.425 . S
C1144 C1151 1.409 . S
C1145 H1137 0.930 1_655 S
C1145 C1143 1.419 1_655 S
C1145 C1146 1.362 . S
C1146 H1138 0.930 . S
C1146 C1145 1.362 . S
C1146 C1149 1.409 . S
C1147 H1139 0.930 . S
C1147 C1148 1.355 . S
C1147 C1149 1.415 . S
C1148 C1147 1.355 . S
C1148 C1150 1.419 . S
C1149 C1144 1.425 . S
C1149 C1146 1.409 . S
C1149 C1147 1.415 . S
C1150 H1140 0.930 . S
C1150 C1148 1.419 . S
C1150 C1151 1.362 . S
C1151 H1141 0.930 . S
C1151 C1144 1.409 . S
C1151 C1150 1.362 . S
H1152 C1158 0.930 . S
H1153 C1161 0.930 . S
H1154 C1162 0.930 . S
H1155 C1163 0.930 . S
H1156 C1166 0.930 . S
H1157 C1167 0.930 . S
C1158 H1152 0.930 . S
C1158 C1159 1.355 . S
C1158 C1160 1.415 . S
C1159 C1158 1.355 . S
C1159 C1161 1.419 . S
C1160 C1158 1.415 . S
C1160 C1165 1.425 . S
C1160 C1167 1.409 . S
C1161 H1153 0.930 . S
C1161 C1159 1.419 . S
C1161 C1162 1.362 . S
C1162 H1154 0.930 . S
C1162 C1161 1.362 . S
C1162 C1165 1.409 . S
C1163 H1155 0.930 . S
C1163 C1164 1.355 . S
C1163 C1165 1.415 . S
C1164 C1163 1.355 . S
C1164 C1166 1.419 . S
C1165 C1160 1.425 . S
C1165 C1162 1.409 . S
C1165 C1163 1.415 . S
C1166 H1156 0.930 . S
C1166 C1164 1.419 . S
C1166 C1167 1.362 . S
C1167 H1157 0.930 . S
C1167 C1160 1.409 . S
C1167 C1166 1.362 . S
H1168 C1174 0.930 . S
H1169 C1177 0.930 . S
H1170 C1178 0.930 . S
H1171 C1179 0.930 . S
H1172 C1182 0.930 . S
H1173 C1183 0.930 . S
C1174 H1168 0.930 . S
C1174 C1175 1.355 . S
C1174 C1176 1.415 . S
C1175 C1174 1.355 . S
C1175 C1177 1.419 . S
C1176 C1174 1.415 . S
C1176 C1181 1.425 . S
C1176 C1183 1.409 . S
C1177 H1169 0.930 . S
C1177 C1175 1.419 . S
C1177 C1178 1.362 . S
C1178 H1170 0.930 . S
C1178 C1177 1.362 . S
C1178 C1181 1.409 . S
C1179 H1171 0.930 . S
C1179 C1180 1.355 . S
C1179 C1181 1.415 . S
C1180 C1179 1.355 . S
C1180 C1182 1.419 . S
C1181 C1176 1.425 . S
C1181 C1178 1.409 . S
C1181 C1179 1.415 . S
C1182 H1172 0.930 . S
C1182 C1180 1.419 . S
C1182 C1183 1.362 . S
C1183 H1173 0.930 . S
C1183 C1176 1.409 . S
C1183 C1182 1.362 . S
H1184 C1190 0.930 . S
H1185 C1193 0.930 . S
H1186 C1194 0.930 . S
H1187 C1195 0.930 . S
H1188 C1198 0.930 . S
H1189 C1199 0.930 . S
C1190 H1184 0.930 . S
C1190 C1191 1.355 . S
C1190 C1192 1.415 . S
C1191 C1190 1.355 . S
C1191 C1193 1.419 . S
C1192 C1190 1.415 . S
C1192 C1197 1.425 . S
C1192 C1199 1.409 . S
C1193 H1185 0.930 . S
C1193 C1191 1.419 . S
C1193 C1194 1.362 . S
C1194 H1186 0.930 . S
C1194 C1193 1.362 . S
C1194 C1197 1.409 . S
C1195 H1187 0.930 . S
C1195 C1196 1.355 . S
C1195 C1197 1.415 . S
C1196 C1195 1.355 . S
C1196 C1198 1.419 . S
C1197 C1192 1.425 . S
C1197 C1194 1.409 . S
C1197 C1195 1.415 . S
C1198 H1188 0.930 . S
C1198 C1196 1.419 . S
C1198 C1199 1.362 . S
C1199 H1189 0.930 . S
C1199 C1192 1.409 . S
C1199 C1198 1.362 . S
H1200 C1206 0.930 . S
H1201 C1209 0.930 . S
H1202 C1210 0.930 . S
H1203 C1211 0.930 . S
H1204 C1214 0.930 . S
H1205 C1215 0.930 . S
C1206 H1200 0.930 . S
C1206 C1207 1.355 . S
C1206 C1208 1.415 . S
C1207 C1206 1.355 . S
C1207 C1209 1.419 . S
C1208 C1206 1.415 . S
C1208 C1213 1.425 . S
C1208 C1215 1.409 . S
C1209 H1201 0.930 . S
C1209 C1207 1.419 . S
C1209 C1210 1.362 . S
C1210 H1202 0.930 . S
C1210 C1209 1.362 . S
C1210 C1213 1.409 . S
C1211 H1203 0.930 . S
C1211 C1212 1.355 . S
C1211 C1213 1.415 . S
C1212 C1211 1.355 . S
C1212 C1214 1.419 . S
C1213 C1208 1.425 . S
C1213 C1210 1.409 . S
C1213 C1211 1.415 . S
C1214 H1204 0.930 . S
C1214 C1212 1.419 . S
C1214 C1215 1.362 . S
C1215 H1205 0.930 . S
C1215 C1208 1.409 . S
C1215 C1214 1.362 . S
H1216 C1222 0.930 . S
H1217 C1225 0.930 . S
H1218 C1226 0.930 . S
H1219 C1227 0.930 . S
H1220 C1230 0.930 . S
H1221 C1231 0.930 . S
C1222 H1216 0.930 . S
C1222 C1223 1.355 . S
C1222 C1224 1.415 . S
C1223 C1222 1.355 . S
C1223 C1225 1.419 . S
C1224 C1222 1.415 . S
C1224 C1229 1.425 . S
C1224 C1231 1.409 . S
C1225 H1217 0.930 . S
C1225 C1223 1.419 . S
C1225 C1226 1.362 . S
C1226 H1218 0.930 . S
C1226 C1225 1.362 . S
C1226 C1229 1.409 . S
C1227 H1219 0.930 . S
C1227 C1228 1.355 . S
C1227 C1229 1.415 . S
C1228 C1227 1.355 . S
C1228 C1230 1.419 . S
C1229 C1224 1.425 . S
C1229 C1226 1.409 . S
C1229 C1227 1.415 . S
C1230 H1220 0.930 . S
C1230 C1228 1.419 . S
C1230 C1231 1.362 . S
C1231 H1221 0.930 . S
C1231 C1224 1.409 . S
C1231 C1230 1.362 . S
H1232 C1238 0.930 . S
H1233 C1241 0.930 . S
H1234 C1242 0.930 . S
H1235 C1243 0.930 . S
H1236 C1246 0.930 . S
H1237 C1247 0.930 . S
C1238 H1232 0.930 . S
C1238 C1239 1.355 . S
C1238 C1240 1.415 . S
C1239 C1238 1.355 . S
C1239 C1241 1.419 1_556 S
C1240 C1238 1.415 . S
C1240 C1245 1.425 1_556 S
C1240 C1247 1.409 . S
C1241 H1233 0.930 . S
C1241 C1239 1.419 1_554 S
C1241 C1242 1.362 . S
C1242 H1234 0.930 . S
C1242 C1241 1.362 . S
C1242 C1245 1.409 . S
C1243 H1235 0.930 . S
C1243 C1244 1.355 . S
C1243 C1245 1.415 . S
C1244 C1243 1.355 . S
C1244 C1246 1.419 1_554 S
C1245 C1240 1.425 1_554 S
C1245 C1242 1.409 . S
C1245 C1243 1.415 . S
C1246 H1236 0.930 . S
C1246 C1244 1.419 1_556 S
C1246 C1247 1.362 . S
C1247 H1237 0.930 . S
C1247 C1240 1.409 . S
C1247 C1246 1.362 . S
H1248 C1254 0.930 . S
H1249 C1257 0.930 . S
H1250 C1258 0.930 . S
H1251 C1259 0.930 . S
H1252 C1262 0.930 . S
H1253 C1263 0.930 . S
C1254 H1248 0.930 . S
C1254 C1255 1.355 . S
C1254 C1256 1.415 . S
C1255 C1254 1.355 . S
C1255 C1257 1.419 . S
C1256 C1254 1.415 . S
C1256 C1261 1.425 . S
C1256 C1263 1.409 . S
C1257 H1249 0.930 . S
C1257 C1255 1.419 . S
C1257 C1258 1.362 . S
C1258 H1250 0.930 . S
C1258 C1257 1.362 . S
C1258 C1261 1.409 . S
C1259 H1251 0.930 . S
C1259 C1260 1.355 . S
C1259 C1261 1.415 . S
C1260 C1259 1.355 . S
C1260 C1262 1.419 . S
C1261 C1256 1.425 . S
C1261 C1258 1.409 . S
C1261 C1259 1.415 . S
C1262 H1252 0.930 . S
C1262 C1260 1.419 . S
C1262 C1263 1.362 . S
C1263 H1253 0.930 . S
C1263 C1256 1.409 . S
C1263 C1262 1.362 . S
H1264 C1270 0.930 . S
H1265 C1273 0.930 . S
H1266 C1274 0.930 . S
H1267 C1275 0.930 . S
H1268 C1278 0.930 . S
H1269 C1279 0.930 . S
C1270 H1264 0.930 . S
C1270 C1271 1.355 . S
C1270 C1272 1.415 . S
C1271 C1270 1.355 . S
C1271 C1273 1.419 . S
C1272 C1270 1.415 . S
C1272 C1277 1.425 . S
C1272 C1279 1.409 . S
C1273 H1265 0.930 . S
C1273 C1271 1.419 . S
C1273 C1274 1.362 . S
C1274 H1266 0.930 . S
C1274 C1273 1.362 . S
C1274 C1277 1.409 . S
C1275 H1267 0.930 . S
C1275 C1276 1.355 . S
C1275 C1277 1.415 . S
C1276 C1275 1.355 . S
C1276 C1278 1.419 . S
C1277 C1272 1.425 . S
C1277 C1274 1.409 . S
C1277 C1275 1.415 . S
C1278 H1268 0.930 . S
C1278 C1276 1.419 . S
C1278 C1279 1.362 . S
C1279 H1269 0.930 . S
C1279 C1272 1.409 . S
C1279 C1278 1.362 . S
H1280 C1286 0.930 . S
H1281 C1289 0.930 . S
H1282 C1290 0.930 . S
H1283 C1291 0.930 . S
H1284 C1294 0.930 . S
H1285 C1295 0.930 . S
C1286 H1280 0.930 . S
C1286 C1287 1.355 . S
C1286 C1288 1.415 . S
C1287 C1286 1.355 . S
C1287 C1289 1.419 . S
C1288 C1286 1.415 . S
C1288 C1293 1.425 . S
C1288 C1295 1.409 . S
C1289 H1281 0.930 . S
C1289 C1287 1.419 . S
C1289 C1290 1.362 . S
C1290 H1282 0.930 . S
C1290 C1289 1.362 . S
C1290 C1293 1.409 . S
C1291 H1283 0.930 . S
C1291 C1292 1.355 . S
C1291 C1293 1.415 . S
C1292 C1291 1.355 . S
C1292 C1294 1.419 . S
C1293 C1288 1.425 . S
C1293 C1290 1.409 . S
C1293 C1291 1.415 . S
C1294 H1284 0.930 . S
C1294 C1292 1.419 . S
C1294 C1295 1.362 . S
C1295 H1285 0.930 . S
C1295 C1288 1.409 . S
C1295 C1294 1.362 . S
H1296 C1302 0.930 . S
H1297 C1305 0.930 . S
H1298 C1306 0.930 . S
H1299 C1307 0.930 . S
H1300 C1310 0.930 . S
H1301 C1311 0.930 . S
C1302 H1296 0.930 . S
C1302 C1303 1.355 . S
C1302 C1304 1.409 1_554 S
C1303 C1302 1.355 . S
C1303 C1305 1.419 . S
C1304 C1302 1.409 1_556 S
C1304 C1309 1.425 1_556 S
C1304 C1311 1.415 . S
C1305 H1297 0.930 . S
C1305 C1303 1.419 . S
C1305 C1306 1.362 . S
C1306 H1298 0.930 . S
C1306 C1305 1.362 . S
C1306 C1309 1.415 . S
C1307 H1299 0.930 . S
C1307 C1308 1.355 . S
C1307 C1309 1.409 1_556 S
C1308 C1307 1.355 . S
C1308 C1310 1.419 . S
C1309 C1304 1.425 1_554 S
C1309 C1306 1.415 . S
C1309 C1307 1.409 1_554 S
C1310 H1300 0.930 . S
C1310 C1308 1.419 . S
C1310 C1311 1.362 . S
C1311 H1301 0.930 . S
C1311 C1304 1.415 . S
C1311 C1310 1.362 . S
H1312 C1318 0.930 . S
H1313 C1321 0.930 . S
H1314 C1322 0.930 . S
H1315 C1323 0.930 . S
H1316 C1326 0.930 . S
H1317 C1327 0.930 . S
C1318 H1312 0.930 . S
C1318 C1319 1.355 . S
C1318 C1320 1.415 . S
C1319 C1318 1.355 . S
C1319 C1321 1.419 . S
C1320 C1318 1.415 . S
C1320 C1325 1.425 1_565 S
C1320 C1327 1.409 1_565 S
C1321 H1313 0.930 . S
C1321 C1319 1.419 . S
C1321 C1322 1.362 . S
C1322 H1314 0.930 . S
C1322 C1321 1.362 . S
C1322 C1325 1.409 1_565 S
C1323 H1315 0.930 . S
C1323 C1324 1.355 . S
C1323 C1325 1.415 . S
C1324 C1323 1.355 . S
C1324 C1326 1.419 . S
C1325 C1320 1.425 1_545 S
C1325 C1322 1.409 1_545 S
C1325 C1323 1.415 . S
C1326 H1316 0.930 . S
C1326 C1324 1.419 . S
C1326 C1327 1.362 . S
C1327 H1317 0.930 . S
C1327 C1320 1.409 1_545 S
C1327 C1326 1.362 . S
H1328 C1334 0.930 . S
H1329 C1337 0.930 . S
H1330 C1338 0.930 . S
H1331 C1339 0.930 . S
H1332 C1342 0.930 . S
H1333 C1343 0.930 . S
C1334 H1328 0.930 . S
C1334 C1335 1.355 1_556 S
C1334 C1336 1.415 . S
C1335 C1334 1.355 1_554 S
C1335 C1337 1.419 . S
C1336 C1334 1.415 . S
C1336 C1341 1.425 1_556 S
C1336 C1343 1.409 . S
C1337 H1329 0.930 . S
C1337 C1335 1.419 . S
C1337 C1338 1.362 . S
C1338 H1330 0.930 . S
C1338 C1337 1.362 . S
C1338 C1341 1.409 . S
C1339 H1331 0.930 . S
C1339 C1340 1.355 1_554 S
C1339 C1341 1.415 . S
C1340 C1339 1.355 1_556 S
C1340 C1342 1.419 . S
C1341 C1336 1.425 1_554 S
C1341 C1338 1.409 . S
C1341 C1339 1.415 . S
C1342 H1332 0.930 . S
C1342 C1340 1.419 . S
C1342 C1343 1.362 . S
C1343 H1333 0.930 . S
C1343 C1336 1.409 . S
C1343 C1342 1.362 . S
H1344 C1350 0.930 . S
H1345 C1353 0.930 . S
H1346 C1354 0.930 1_565 S
H1347 C1355 0.930 . S
H1348 C1358 0.930 . S
H1349 C1359 0.930 1_545 S
C1350 H1344 0.930 . S
C1350 C1351 1.355 . S
C1350 C1352 1.415 . S
C1351 C1350 1.355 . S
C1351 C1353 1.419 . S
C1352 C1350 1.415 . S
C1352 C1357 1.425 1_545 S
C1352 C1359 1.409 1_545 S
C1353 H1345 0.930 . S
C1353 C1351 1.419 . S
C1353 C1354 1.362 . S
C1354 H1346 0.930 1_545 S
C1354 C1353 1.362 . S
C1354 C1357 1.409 1_545 S
C1355 H1347 0.930 . S
C1355 C1356 1.355 . S
C1355 C1357 1.415 . S
C1356 C1355 1.355 . S
C1356 C1358 1.419 . S
C1357 C1352 1.425 1_565 S
C1357 C1354 1.409 1_565 S
C1357 C1355 1.415 . S
C1358 H1348 0.930 . S
C1358 C1356 1.419 . S
C1358 C1359 1.362 . S
C1359 H1349 0.930 1_565 S
C1359 C1352 1.409 1_565 S
C1359 C1358 1.362 . S
H1360 C1366 0.930 . S
H1361 C1369 0.930 . S
H1362 C1370 0.930 . S
H1363 C1371 0.930 . S
H1364 C1374 0.930 . S
H1365 C1375 0.930 . S
C1366 H1360 0.930 . S
C1366 C1367 1.355 . S
C1366 C1368 1.415 . S
C1367 C1366 1.355 . S
C1367 C1369 1.419 . S
C1368 C1366 1.415 . S
C1368 C1373 1.425 . S
C1368 C1375 1.409 . S
C1369 H1361 0.930 . S
C1369 C1367 1.419 . S
C1369 C1370 1.362 . S
C1370 H1362 0.930 . S
C1370 C1369 1.362 . S
C1370 C1373 1.409 . S
C1371 H1363 0.930 . S
C1371 C1372 1.355 . S
C1371 C1373 1.415 . S
C1372 C1371 1.355 . S
C1372 C1374 1.419 . S
C1373 C1368 1.425 . S
C1373 C1370 1.409 . S
C1373 C1371 1.415 . S
C1374 H1364 0.930 . S
C1374 C1372 1.419 . S
C1374 C1375 1.362 . S
C1375 H1365 0.930 . S
C1375 C1368 1.409 . S
C1375 C1374 1.362 . S
H1376 C1382 0.930 . S
H1377 C1385 0.930 . S
H1378 C1386 0.930 1_565 S
H1379 C1387 0.930 . S
H1380 C1390 0.930 . S
H1381 C1391 0.930 1_545 S
C1382 H1376 0.930 . S
C1382 C1383 1.355 . S
C1382 C1384 1.415 . S
C1383 C1382 1.355 . S
C1383 C1385 1.419 . S
C1384 C1382 1.415 . S
C1384 C1389 1.425 1_545 S
C1384 C1391 1.409 1_545 S
C1385 H1377 0.930 . S
C1385 C1383 1.419 . S
C1385 C1386 1.362 . S
C1386 H1378 0.930 1_545 S
C1386 C1385 1.362 . S
C1386 C1389 1.409 1_545 S
C1387 H1379 0.930 . S
C1387 C1388 1.355 . S
C1387 C1389 1.415 . S
C1388 C1387 1.355 . S
C1388 C1390 1.419 . S
C1389 C1384 1.425 1_565 S
C1389 C1386 1.409 1_565 S
C1389 C1387 1.415 . S
C1390 H1380 0.930 . S
C1390 C1388 1.419 . S
C1390 C1391 1.362 . S
C1391 H1381 0.930 1_565 S
C1391 C1384 1.409 1_565 S
C1391 C1390 1.362 . S
H1392 C1398 0.930 . S
H1393 C1401 0.930 . S
H1394 C1402 0.930 . S
H1395 C1403 0.930 . S
H1396 C1406 0.930 . S
H1397 C1407 0.930 . S
C1398 H1392 0.930 . S
C1398 C1399 1.355 1_556 S
C1398 C1400 1.415 . S
C1399 C1398 1.355 1_554 S
C1399 C1401 1.419 . S
C1400 C1398 1.415 . S
C1400 C1405 1.425 1_556 S
C1400 C1407 1.409 . S
C1401 H1393 0.930 . S
C1401 C1399 1.419 . S
C1401 C1402 1.362 . S
C1402 H1394 0.930 . S
C1402 C1401 1.362 . S
C1402 C1405 1.409 . S
C1403 H1395 0.930 . S
C1403 C1404 1.355 1_554 S
C1403 C1405 1.415 . S
C1404 C1403 1.355 1_556 S
C1404 C1406 1.419 . S
C1405 C1400 1.425 1_554 S
C1405 C1402 1.409 . S
C1405 C1403 1.415 . S
C1406 H1396 0.930 . S
C1406 C1404 1.419 . S
C1406 C1407 1.362 . S
C1407 H1397 0.930 . S
C1407 C1400 1.409 . S
C1407 C1406 1.362 . S
H1408 C1414 0.930 . S
H1409 C1417 0.930 . S
H1410 C1418 0.930 . S
H1411 C1419 0.930 . S
H1412 C1422 0.930 . S
H1413 C1423 0.930 . S
C1414 H1408 0.930 . S
C1414 C1415 1.355 . S
C1414 C1416 1.415 1_545 S
C1415 C1414 1.355 . S
C1415 C1417 1.419 . S
C1416 C1414 1.415 1_565 S
C1416 C1421 1.425 1_565 S
C1416 C1423 1.408 . S
C1417 H1409 0.930 . S
C1417 C1415 1.419 . S
C1417 C1418 1.362 . S
C1418 H1410 0.930 . S
C1418 C1417 1.362 . S
C1418 C1421 1.408 . S
C1419 H1411 0.930 . S
C1419 C1420 1.355 . S
C1419 C1421 1.415 1_565 S
C1420 C1419 1.355 . S
C1420 C1422 1.419 . S
C1421 C1416 1.425 1_545 S
C1421 C1418 1.408 . S
C1421 C1419 1.415 1_545 S
C1422 H1412 0.930 . S
C1422 C1420 1.419 . S
C1422 C1423 1.362 . S
C1423 H1413 0.930 . S
C1423 C1416 1.408 . S
C1423 C1422 1.362 . S
H1424 C1430 0.930 . S
H1425 C1433 0.930 . S
H1426 C1434 0.930 . S
H1427 C1435 0.930 . S
H1428 C1438 0.930 . S
H1429 C1439 0.930 . S
C1430 H1424 0.930 . S
C1430 C1431 1.355 . S
C1430 C1432 1.415 . S
C1431 C1430 1.355 . S
C1431 C1433 1.419 . S
C1432 C1430 1.415 . S
C1432 C1437 1.425 . S
C1432 C1439 1.409 . S
C1433 H1425 0.930 . S
C1433 C1431 1.419 . S
C1433 C1434 1.362 . S
C1434 H1426 0.930 . S
C1434 C1433 1.362 . S
C1434 C1437 1.409 . S
C1435 H1427 0.930 . S
C1435 C1436 1.355 . S
C1435 C1437 1.415 . S
C1436 C1435 1.355 . S
C1436 C1438 1.419 . S
C1437 C1432 1.425 . S
C1437 C1434 1.409 . S
C1437 C1435 1.415 . S
C1438 H1428 0.930 . S
C1438 C1436 1.419 . S
C1438 C1439 1.362 . S
C1439 H1429 0.930 . S
C1439 C1432 1.409 . S
C1439 C1438 1.362 . S
C423 C4 1.599 . S
C428 C283 1.594 . S
C439 C290 1.598 . S
C444 C23 1.593 . S
C455 C30 1.597 . S
C460 C309 1.599 . S
C471 C270 1.597 . S
C476 C43 1.599 . S
C487 C56 1.596 . S
C492 C257 1.591 . S
C503 C75 1.595 . S
C508 C212 1.599 . S
C519 C231 1.595 . S
C524 C82 1.591 . S
C535 C101 1.593 . S
C540 C238 1.591 . S
C551 C114 1.599 . S
C556 C387 1.593 . S
C567 C127 1.593 . S
C572 C400 1.598 . S
C583 C407 1.591 . S
C588 C134 1.594 . S
C599 C374 1.594 . S
C604 C153 1.591 . S
C615 C160 1.591 . S
C620 C361 1.596 . S
C631 C322 1.591 . S
C636 C179 1.592 . S
C647 C192 1.598 . S
C652 C335 1.599 . S
C663 C348 1.598 . S
C668 C205 1.599 . S
C679 C3 1.375 . S
C684 C120 1.423 . S
C695 C18 1.394 . S
C700 C341 1.424 . S
C711 C146 1.417 . S
C716 C29 1.409 . S
C727 C42 1.381 . S
C732 C315 1.419 . S
C743 C55 1.383 . S
C748 C198 1.424 . S
C759 C367 1.419 . S
C764 C70 1.422 . S
C775 C172 1.421 . S
C780 C81 1.373 . S
C791 C393 1.420 . S
C796 C96 1.423 . S
C807 C109 1.381 . S
C812 C16 1.419 . S
C823 C239 1.422 . S
C828 C122 1.420 . S
C839 C44 1.419 . S
C844 C133 1.382 . S
C855 C148 1.385 . S
C860 C213 1.419 . S
C871 C94 1.424 . S
C876 C159 1.381 . S
C887 C263 1.418 . S
C892 C174 1.391 . S
C903 C68 1.422 . S
C908 C187 1.417 . S
C919 C200 1.424 . S
C924 C291 1.420 . S
C935 C328 1.422 . S
C940 C211 1.418 . S
C951 C135 1.418 . S
C956 C226 1.420 . S
C967 C354 1.423 . S
C972 C237 1.373 . S
C983 C252 1.392 . S
C988 C107 1.418 . S
C999 C408 1.424 . S
C1004 C265 1.380 . S
C1015 C161 1.424 . S
C1020 C278 1.381 . S
C1031 C380 1.424 . S
C1036 C289 1.378 . S
C1047 C304 1.423 . S
C1052 C185 1.420 . S
C1063 C317 1.385 . S
C1068 C224 1.419 . S
C1079 C31 1.418 . S
C1084 C330 1.397 . S
C1095 C343 1.424 . S
C1100 C250 1.420 . S
C1111 C356 1.378 . S
C1116 C5 1.420 . S
C1127 C369 1.422 . S
C1132 C302 1.421 . S
C1143 C57 1.422 . S
C1148 C382 1.373 . S
C1159 C276 1.420 . S
C1164 C395 1.376 . S
C1175 C406 1.422 . S
C1180 C83 1.421 . S
C1191 C10 1.302 . S
C1196 C62 1.319 . S
C1207 C17 1.315 . S
C1212 C69 1.300 . S
C1223 C88 1.342 . S
C1228 C36 1.333 . S
C1239 C95 1.299 . S
C1244 C49 1.301 . S
C1255 C166 1.309 . S
C1260 C108 1.298 . S
C1271 C173 1.323 . S
C1276 C121 1.339 . S
C1287 C186 1.328 . S
C1292 C140 1.341 . S
C1303 C199 1.307 . S
C1308 C147 1.326 . S
C1319 C218 1.316 . S
C1324 C264 1.334 . S
C1335 C225 1.342 . S
C1340 C277 1.334 . S
C1351 C244 1.335 . S
C1356 C296 1.317 . S
C1367 C303 1.332 . S
C1372 C251 1.313 . S
C1383 C316 1.342 . S
C1388 C368 1.337 . S
C1399 C381 1.334 . S
C1404 C329 1.342 . S
C1415 C394 1.302 . S
C1420 C342 1.299 . S
C1431 C413 1.308 . S
C1436 C355 1.298 . S
