# Generated by pormake.
# Topology fcu, (12)-cn, num edge types: 1
# Building blocks:
#     Node 0, Type 0, BuildingBlock: QEWDON_clean_sbu_0, # of connection points: 12
#     Node 1, Type 0, BuildingBlock: QEWDON_clean_sbu_0, # of connection points: 12
#     Node 2, Type 0, BuildingBlock: QEWDON_clean_sbu_0, # of connection points: 12
#     Node 3, Type 0, BuildingBlock: QEWDON_clean_sbu_0, # of connection points: 12
#     Edge 4, Type (0, 0), BuildingBlock: EZIPEK_clean_linker_0, # of connection points: 2
#     Edge 5, Type (0, 0), BuildingBlock: EZIPEK_clean_linker_0, # of connection points: 2
#     Edge 6, Type (0, 0), BuildingBlock: EZIPEK_clean_linker_0, # of connection points: 2
#     Edge 7, Type (0, 0), BuildingBlock: EZIPEK_clean_linker_0, # of connection points: 2
#     Edge 8, Type (0, 0), BuildingBlock: EZIPEK_clean_linker_0, # of connection points: 2
#     Edge 9, Type (0, 0), BuildingBlock: EZIPEK_clean_linker_0, # of connection points: 2
#     Edge 10, Type (0, 0), BuildingBlock: EZIPEK_clean_linker_0, # of connection points: 2
#     Edge 11, Type (0, 0), BuildingBlock: EZIPEK_clean_linker_0, # of connection points: 2
#     Edge 12, Type (0, 0), BuildingBlock: EZIPEK_clean_linker_0, # of connection points: 2
#     Edge 13, Type (0, 0), BuildingBlock: EZIPEK_clean_linker_0, # of connection points: 2
#     Edge 14, Type (0, 0), BuildingBlock: EZIPEK_clean_linker_0, # of connection points: 2
#     Edge 15, Type (0, 0), BuildingBlock: EZIPEK_clean_linker_0, # of connection points: 2
#     Edge 16, Type (0, 0), BuildingBlock: EZIPEK_clean_linker_0, # of connection points: 2
#     Edge 17, Type (0, 0), BuildingBlock: EZIPEK_clean_linker_0, # of connection points: 2
#     Edge 18, Type (0, 0), BuildingBlock: EZIPEK_clean_linker_0, # of connection points: 2
#     Edge 19, Type (0, 0), BuildingBlock: EZIPEK_clean_linker_0, # of connection points: 2
#     Edge 20, Type (0, 0), BuildingBlock: EZIPEK_clean_linker_0, # of connection points: 2
#     Edge 21, Type (0, 0), BuildingBlock: EZIPEK_clean_linker_0, # of connection points: 2
#     Edge 22, Type (0, 0), BuildingBlock: EZIPEK_clean_linker_0, # of connection points: 2
#     Edge 23, Type (0, 0), BuildingBlock: EZIPEK_clean_linker_0, # of connection points: 2
#     Edge 24, Type (0, 0), BuildingBlock: EZIPEK_clean_linker_0, # of connection points: 2
#     Edge 25, Type (0, 0), BuildingBlock: EZIPEK_clean_linker_0, # of connection points: 2
#     Edge 26, Type (0, 0), BuildingBlock: EZIPEK_clean_linker_0, # of connection points: 2
#     Edge 27, Type (0, 0), BuildingBlock: EZIPEK_clean_linker_0, # of connection points: 2
# Relax obj value: 0.045
# Max RMSD: 0.119
# Mean RMSD: 0.111
data_MOF--net-fcu--node1-QEWDON_clean_sbu_0--edge1-EZIPEK_clean_linker_0
_symmetry_space_group_name_H-M    P1
_symmetry_Int_Tables_number       1
_symmetry_cell_setting            triclinic
loop_
_symmetry_equiv_pos_as_xyz
'x, y, z'
_cell_length_a     21.958647
_cell_length_b     21.823143
_cell_length_c     21.985508
_cell_angle_alpha  89.92551
_cell_angle_beta   90.135326
_cell_angle_gamma 90.590236
loop_
_atom_site_label
_atom_site_type_symbol
_atom_site_fract_x
_atom_site_fract_y
_atom_site_fract_z
_atom_type_partial_charge
Zn0 Zn 0.90319 0.89121 0.94897 0.0
Zn1 Zn 0.91074 0.86667 0.09824 0.0
O2 O 0.91063 0.93303 0.03155 0.0
H3 H 0.93512 0.96979 0.0349 0.0
C4 C -0.00149 0.87738 0.82875 0.0
O5 O 0.97393 0.93168 0.82325 0.0
Zn6 Zn 0.06743 0.10222 0.09912 0.0
Zn7 Zn 0.09911 0.09522 0.9544 0.0
O8 O 0.06726 0.0462 0.02607 0.0
H9 H 0.0389 0.01251 0.02147 0.0
Zn10 Zn 0.06835 0.92084 0.94458 0.0
O11 O 0.03496 0.89755 0.02721 0.0
Zn12 Zn 0.10522 0.90117 0.0871 0.0
H13 H 0.00629 0.86386 0.02416 0.0
Zn14 Zn 0.8524 0.0927 0.96237 0.0
O15 O 0.91257 0.08102 0.03079 0.0
H16 H 0.95495 0.09232 0.0266 0.0
Zn17 Zn 0.86458 0.06408 0.10769 0.0
C18 C 0.93514 0.1534 0.87161 0.0
O19 O 0.97881 0.12562 0.90144 0.0
O20 O 0.91324 0.79843 0.96265 0.0
O21 O 0.88212 0.78977 0.05888 0.0
O22 O 0.12035 0.18335 0.9787 0.0
O23 O 0.08924 0.18707 0.07497 0.0
O24 O 0.16268 0.91844 0.94787 0.0
O25 O 0.17582 0.87421 0.03846 0.0
C26 C 0.84076 0.9432 0.16604 0.0
O27 O 0.77043 0.11598 1.00028 0.0
O28 O 0.77853 0.08691 0.09716 0.0
O29 O 0.15507 0.05735 0.88816 0.0
C30 C 0.89018 0.7674 0.00612 0.0
O31 O 0.84821 0.92082 0.87241 0.0
C32 C 0.14283 0.01917 0.15993 0.0
O33 O 0.03421 0.86601 0.87292 0.0
C34 C 0.11235 0.21225 0.02826 0.0
O35 O 0.88001 0.14588 0.88792 0.0
C36 C 0.03516 0.83088 0.16588 0.0
O37 O 0.85194 0.88653 0.1656 0.0
O38 O 0.86985 0.97709 0.12939 0.0
C39 C 0.19439 0.88739 0.98514 0.0
O40 O 0.12929 0.07544 0.1612 0.0
O41 O 0.11636 0.9863 0.11982 0.0
C42 C 0.952 0.12702 0.17462 0.0
O43 O 0.09085 0.84365 0.15722 0.0
O44 O -0.00375 0.85582 0.13116 0.0
C45 C 0.74856 0.1101 0.05367 0.0
O46 O 0.89564 0.11498 0.1761 0.0
O47 O -0.0163 0.10093 0.13418 0.0
C48 C 0.13652 0.02498 0.84366 0.0
O49 O 0.07837 0.01161 0.83845 0.0
C50 C 0.79528 0.94463 0.87211 0.0
O51 O 0.76892 0.9569 0.92421 0.0
Zn52 Zn 0.87359 0.43743 0.35636 0.0
Zn53 Zn 0.87226 0.58091 0.39598 0.0
O54 O 0.92437 0.50546 0.39084 0.0
H55 H 0.96809 0.50284 0.39078 0.0
C56 C 0.79663 0.41489 0.53932 0.0
O57 O 0.78573 0.47397 0.5392 0.0
Zn58 Zn 0.09622 0.57756 0.62536 0.0
Zn59 Zn 0.05887 0.43738 0.62767 0.0
O60 O 0.0248 0.52164 0.64192 0.0
H61 H -0.00537 0.52758 0.67325 0.0
Zn62 Zn 0.89811 0.45655 0.61027 0.0
O63 O 0.92747 0.53108 0.56456 0.0
Zn64 Zn 0.90894 0.60328 0.61691 0.0
H65 H 0.9531 0.53108 0.52895 0.0
Zn66 Zn 0.07443 0.42608 0.39811 0.0
O67 O 0.06166 0.50029 0.45127 0.0
H68 H 0.04772 0.4988 0.49285 0.0
Zn69 Zn 0.07751 0.5735 0.39803 0.0
C70 C 0.08069 0.32523 0.4924 0.0
O71 O 0.03796 0.35378 0.52251 0.0
O72 O 0.79436 0.4696 0.32235 0.0
O73 O 0.78846 0.56519 0.35788 0.0
O74 O 0.15306 0.44017 0.61991 0.0
O75 O 0.1692 0.53281 0.65874 0.0
O76 O 0.84881 0.4786 0.68557 0.0
O77 O 0.8514 0.58069 0.68593 0.0
C78 C 0.96718 0.64885 0.34231 0.0
O79 O 0.12713 0.44696 0.32315 0.0
O80 O 0.12891 0.54922 0.32584 0.0
O81 O 0.02853 0.37104 0.69022 0.0
C82 C 0.76669 0.52025 0.3273 0.0
O83 O 0.91246 0.36578 0.30915 0.0
C84 C 0.02735 0.6726 0.67116 0.0
O85 O 0.84585 0.39518 0.56226 0.0
C86 C 0.18733 0.47876 0.64689 0.0
O87 O 0.0998 0.34636 0.44196 0.0
C88 C 0.85542 0.65579 0.5105 0.0
O89 O 0.90966 0.64746 0.34537 0.0
O90 O -0.00328 0.61005 0.3736 0.0
C91 C 0.83213 0.52968 0.7072 0.0
O92 O 0.08312 0.65802 0.66903 0.0
O93 O -0.01082 0.63715 0.64543 0.0
C94 C 0.13167 0.6323 0.50324 0.0
O95 O 0.86621 0.6641 0.56659 0.0
O96 O 0.87446 0.60786 0.48417 0.0
C97 C 0.14505 0.49854 0.30227 0.0
O98 O 0.1266 0.63342 0.4457 0.0
O99 O 0.10185 0.59262 0.53401 0.0
C100 C -0.01392 0.33182 0.68237 0.0
O101 O 0.95468 0.33157 0.63146 0.0
C102 C 0.95307 0.3308 0.3306 0.0
O103 O 0.97493 0.3407 0.38536 0.0
Zn104 Zn 0.36982 0.90501 0.46418 0.0
Zn105 Zn 0.40165 0.89637 0.61297 0.0
O106 O 0.41108 0.94819 0.53735 0.0
H107 H 0.44928 0.97001 0.53322 0.0
C108 C 0.49352 0.83568 0.35146 0.0
O109 O 0.45013 0.8393 0.39225 0.0
Zn110 Zn 0.5978 0.09725 0.57734 0.0
Zn111 Zn 0.60242 0.0967 0.4304 0.0
O112 O 0.60532 0.04166 0.50537 0.0
H113 H 0.6115 -0.00208 0.50481 0.0
Zn114 Zn 0.57978 0.90384 0.4395 0.0
O115 O 0.53738 0.89258 0.52176 0.0
Zn116 Zn 0.60389 0.88683 0.58569 0.0
H117 H 0.50043 0.86821 0.52246 0.0
Zn118 Zn 0.34965 0.09249 0.42643 0.0
O119 O 0.40505 0.06308 0.49305 0.0
H120 H 0.4488 0.06576 0.48895 0.0
Zn121 Zn 0.36003 0.07433 0.57146 0.0
C122 C 0.43962 0.15996 0.35388 0.0
O123 O 0.47226 0.15704 0.40393 0.0
O124 O 0.32378 0.83161 0.49691 0.0
O125 O 0.34431 0.82607 0.59625 0.0
O126 O 0.62254 0.18605 0.45148 0.0
O127 O 0.63138 0.18114 0.55261 0.0
O128 O 0.66718 0.87328 0.4446 0.0
O129 O 0.67387 0.84689 0.54266 0.0
C130 C 0.3251 0.98467 0.66496 0.0
O131 O 0.27512 0.13758 0.4592 0.0
O132 O 0.28748 0.12728 0.55899 0.0
O133 O 0.65828 0.06972 0.36013 0.0
C134 C 0.31658 0.80712 0.54886 0.0
O135 O 0.31232 0.94272 0.39628 0.0
C136 C 0.6536 0.00641 0.65527 0.0
O137 O 0.5453 0.86005 0.36174 0.0
C138 C 0.63749 0.20986 0.50222 0.0
O139 O 0.38787 0.1337 0.35135 0.0
C140 C 0.51831 0.83128 0.66501 0.0
O141 O 0.36202 0.94321 0.68097 0.0
O142 O 0.3219 -0.00263 0.60856 0.0
C143 C 0.69429 0.84681 0.48832 0.0
O144 O 0.64834 0.06407 0.64872 0.0
O145 O 0.62573 0.97213 0.61706 0.0
C146 C 0.47257 0.12681 0.63224 0.0
O147 O 0.57509 0.83152 0.65425 0.0
O148 O 0.48548 0.86796 0.63477 0.0
C149 C 0.25849 0.14798 0.51354 0.0
O150 O 0.4153 0.11989 0.62896 0.0
O151 O 0.50692 0.09871 0.59525 0.0
C152 C 0.65148 0.02121 0.32906 0.0
O153 O 0.6042 0.98518 0.33862 0.0
C154 C 0.32595 0.9562 0.3415 0.0
O155 O 0.3833 0.95515 0.32478 0.0
Zn156 Zn 0.40498 0.59744 0.03251 0.0
Zn157 Zn 0.40375 0.58142 0.88734 0.0
O158 O 0.40525 0.53388 0.96549 0.0
H159 H 0.39086 0.49251 0.97216 0.0
C160 C 0.50643 0.68003 0.13984 0.0
O161 O 0.47645 0.62848 0.13064 0.0
Zn162 Zn 0.55657 0.36986 0.90412 0.0
Zn163 Zn 0.53609 0.42122 0.0438 0.0
O164 O 0.52003 0.43866 0.95402 0.0
H165 H 0.49143 0.46763 0.93779 0.0
Zn166 Zn 0.58443 0.63926 0.03462 0.0
O167 O 0.53415 0.58793 0.97575 0.0
Zn168 Zn 0.59286 0.57505 0.90614 0.0
H169 H 0.55218 0.61216 0.00793 0.0
Zn170 Zn 0.40506 0.37805 0.04224 0.0
O171 O 0.44532 0.34533 0.9668 0.0
H172 H 0.46895 0.30838 0.96892 0.0
Zn173 Zn 0.38121 0.358 0.90464 0.0
C174 C 0.45225 0.3276 0.15422 0.0
O175 O 0.4922 0.37083 0.14313 0.0
O176 O 0.38512 0.68208 0.99887 0.0
O177 O 0.361 0.6604 0.90234 0.0
O178 O 0.56056 0.33181 0.05344 0.0
O179 O 0.59232 0.30706 0.96039 0.0
O180 O 0.67725 0.63146 0.02172 0.0
O181 O 0.67711 0.5836 0.93294 0.0
C182 C 0.36126 0.47222 0.82241 0.0
O183 O 0.32013 0.41232 0.02583 0.0
O184 O 0.30064 0.34773 0.95072 0.0
O185 O 0.5931 0.47381 0.10141 0.0
C186 C 0.36201 0.69674 0.94783 0.0
O187 O 0.34596 0.57914 0.10397 0.0
C188 C 0.626 0.45989 0.84738 0.0
O189 O 0.55016 0.69485 0.10472 0.0
C190 C 0.58641 0.29551 0.01689 0.0
O191 O 0.40839 0.31992 0.11736 0.0
C192 C 0.52072 0.6394 0.83234 0.0
O193 O 0.36608 0.53043 0.82039 0.0
O194 O 0.38065 0.44448 0.86978 0.0
C195 C 0.7053 0.60597 0.97797 0.0
O196 O 0.62173 0.40201 0.84785 0.0
O197 O 0.58754 0.48992 0.87762 0.0
C198 C 0.45589 0.29488 0.8227 0.0
O199 O 0.57764 0.63596 0.83952 0.0
O200 O 0.4881 0.60318 0.86405 0.0
C201 C 0.28241 0.38157 0.99434 0.0
O202 O 0.39964 0.29892 0.83573 0.0
O203 O 0.49472 0.32404 0.85441 0.0
C204 C 0.57523 0.49265 0.15314 0.0
O205 O 0.51725 0.48903 0.16712 0.0
C206 C 0.34053 0.5269 0.12882 0.0
O207 O 0.37643 0.48235 0.11193 0.0
C208 C -0.01346 0.23531 0.19293 0.0
C209 C 0.97557 0.17531 0.21555 0.0
C210 C 0.95792 0.21639 0.31711 0.0
C211 C 0.97086 0.2763 0.29506 0.0
N212 N 0.01571 0.33988 0.21708 0.0
N213 N 0.96992 0.10735 0.30142 0.0
C214 C -0.00809 0.28461 0.23469 0.0
C215 C 0.96862 0.16555 0.27872 0.0
N216 N -0.01411 0.24637 0.13179 0.0
N217 N 0.93027 0.20796 0.37214 0.0
H218 H 0.97744 0.06948 0.27356 0.0
H219 H 0.96986 0.09778 0.34789 0.0
H220 H 0.91982 0.24385 0.40138 0.0
H221 H 0.91372 0.16553 0.38679 0.0
H222 H -0.01268 0.29035 0.11328 0.0
H223 H 0.97905 0.21187 0.09966 0.0
H224 H 0.0363 0.34681 0.17491 0.0
H225 H 0.02037 0.37668 0.2471 0.0
C226 C 0.80808 0.98375 0.26649 0.0
C227 C 0.79306 0.96789 0.20589 0.0
C228 C 0.68625 -0.00608 0.22385 0.0
C229 C 0.70002 0.00295 0.28634 0.0
N230 N 0.77216 -0.00191 0.36942 0.0
N231 N 0.71831 0.9528 0.12668 0.0
C232 C 0.76056 -0.00392 0.30828 0.0
C233 C 0.73224 0.97165 0.18441 0.0
N234 N 0.86786 0.98735 0.28387 0.0
N235 N 0.63008 0.00903 0.20179 0.0
H236 H 0.75122 0.93865 0.09571 0.0
H237 H 0.67393 0.9477 0.11056 0.0
H238 H 0.5954 0.02586 0.22925 0.0
H239 H 0.61934 0.00995 0.15564 0.0
H240 H 0.88226 0.00505 0.32548 0.0
H241 H 0.90373 0.97745 0.25455 0.0
H242 H 0.81438 0.98836 0.38851 0.0
H243 H 0.73835 0.00395 0.40205 0.0
C244 C 0.00802 0.80105 0.27212 0.0
C245 C 0.01844 0.7836 0.21101 0.0
C246 C 0.00395 0.67544 0.23807 0.0
C247 C -0.00391 0.69266 0.29966 0.0
N248 N 0.00257 0.76915 0.37774 0.0
N249 N 0.03884 0.70455 0.13747 0.0
C250 C 0.0019 0.75482 0.31737 0.0
C251 C 0.02031 0.72082 0.19447 0.0
N252 N 0.00281 0.86172 0.28655 0.0
N253 N -0.00682 0.61616 0.22083 0.0
H254 H 0.0488 0.73649 0.10347 0.0
H255 H 0.04765 0.65955 0.12485 0.0
H256 H -0.0163 0.58118 0.25192 0.0
H257 H -0.00931 0.60219 0.17562 0.0
H258 H -0.01087 0.87731 0.32906 0.0
H259 H 0.00773 0.89672 0.25448 0.0
H260 H 0.01158 0.81287 0.39461 0.0
H261 H -0.00014 0.73536 0.41115 0.0
C262 C 0.22736 0.00715 0.30973 0.0
C263 C 0.27674 0.96819 0.29554 0.0
C264 C 0.23806 0.96073 0.19043 0.0
C265 C 0.18579 -0.0053 0.20671 0.0
N266 N 0.12339 0.03466 0.28738 0.0
N267 N 0.31766 0.89343 0.22577 0.0
C268 C 0.17822 0.01296 0.2681 0.0
C269 C 0.27874 0.94054 0.23686 0.0
N270 N 0.2284 0.04176 0.36125 0.0
N271 N 0.25122 0.95071 0.13067 0.0
H272 H 0.34528 0.87439 0.25931 0.0
H273 H 0.31709 0.86857 0.18531 0.0
H274 H 0.22461 0.96772 0.09532 0.0
H275 H 0.29187 0.93119 0.1164 0.0
H276 H 0.19825 0.07764 0.36792 0.0
H277 H 0.26291 0.03946 0.39354 0.0
H278 H 0.11406 0.04383 0.33294 0.0
H279 H 0.08528 0.0367 0.25906 0.0
C280 C 0.95719 0.77823 0.78855 0.0
C281 C -0.007 0.83156 0.77922 0.0
C282 C 0.0341 0.786 0.68663 0.0
C283 C 0.00859 0.72858 0.70389 0.0
N284 N 0.94712 0.66885 0.77372 0.0
N285 N 0.06305 0.88918 0.71672 0.0
C286 C 0.96955 0.72441 0.75494 0.0
C287 C 0.03026 0.83666 0.72696 0.0
N288 N 0.90974 0.77985 0.82802 0.0
N289 N 0.06029 0.79218 0.63077 0.0
H290 H 0.05835 0.92833 0.74333 0.0
H291 H 0.09672 0.89314 0.68365 0.0
H292 H 0.06073 0.75607 0.59993 0.0
H293 H 0.07527 0.8338 0.61279 0.0
H294 H 0.87776 0.74449 0.83105 0.0
H295 H 0.89846 0.81981 0.85096 0.0
H296 H 0.92408 0.66264 0.8147 0.0
H297 H 0.95552 0.62796 0.75098 0.0
C298 C 0.20364 0.06479 0.76094 0.0
C299 C 0.17842 0.01382 0.7922 0.0
C300 C 0.23672 0.94489 0.72716 0.0
C301 C 0.27108 -0.00427 0.70485 0.0
N302 N 0.28682 0.10517 0.7016 0.0
N303 N 0.17148 0.90444 0.80632 0.0
C304 C 0.25393 0.05606 0.72158 0.0
C305 C 0.19485 0.95354 0.77546 0.0
N306 N 0.17806 0.12133 0.76723 0.0
N307 N 0.24139 0.88898 0.6998 0.0
H308 H 0.13739 0.90879 0.83866 0.0
H309 H 0.18782 0.86003 0.80163 0.0
H310 H 0.26817 0.88206 0.66149 0.0
H311 H 0.21328 0.85169 0.71021 0.0
H312 H 0.19025 0.15903 0.74064 0.0
H313 H 0.1401 0.12913 0.79451 0.0
H314 H 0.28191 0.14952 0.71826 0.0
H315 H 0.32161 0.10034 0.67065 0.0
C316 C -0.0158 0.2228 0.71962 0.0
C317 C 0.97309 0.28593 0.73072 0.0
C318 C 0.94042 0.26225 0.8352 0.0
C319 C 0.95034 0.19903 0.82366 0.0
N320 N -0.01315 0.11842 0.75897 0.0
N321 N 0.94202 0.36731 0.79751 0.0
C322 C 0.97381 0.1791 0.76695 0.0
C323 C 0.95176 0.3061 0.78827 0.0
N324 N 0.00456 0.20489 0.66361 0.0
N325 N 0.9205 0.27997 0.89145 0.0
H326 H 0.9458 0.40008 0.76313 0.0
H327 H 0.93018 0.38688 0.83878 0.0
H328 H 0.91577 0.24976 0.92795 0.0
H329 H 0.90868 0.32432 0.90328 0.0
H330 H 0.00828 0.15962 0.64966 0.0
H331 H 0.0166 0.23573 0.62933 0.0
H332 H 0.00922 0.10066 0.72141 0.0
H333 H 0.97732 0.08497 0.79159 0.0
C334 C 0.66455 0.95037 0.75592 0.0
C335 C 0.69186 0.98211 0.70651 0.0
C336 C 0.78764 0.99026 0.76542 0.0
C337 C 0.76132 0.95507 0.81338 0.0
N338 N 0.67917 0.88853 0.84625 0.0
N339 N 0.78324 0.02076 0.65911 0.0
C340 C 0.70107 0.93129 0.80621 0.0
C341 C 0.7547 -0.00164 0.70975 0.0
N342 N 0.60299 0.94123 0.75677 0.0
N343 N 0.84254 0.01907 0.77408 0.0
H344 H 0.76071 0.0266 0.61768 0.0
H345 H 0.83015 0.02776 0.65646 0.0
H346 H 0.86735 0.01594 0.81442 0.0
H347 H 0.86089 0.05069 0.7435 0.0
H348 H 0.57988 0.92689 0.79564 0.0
H349 H 0.57456 0.95318 0.7207 0.0
H350 H 0.63811 0.86503 0.83974 0.0
H351 H 0.70478 0.87177 0.88251 0.0
C352 C 0.17187 0.36532 0.97896 0.0
C353 C 0.22137 0.36988 0.01951 0.0
C354 C 0.18397 0.28527 0.07989 0.0
C355 C 0.13925 0.27371 0.03415 0.0
N356 N 0.07777 0.31171 0.95165 0.0
N357 N 0.2517 0.36059 0.12435 0.0
C358 C 0.12815 0.31769 0.98786 0.0
C359 C 0.21875 0.33954 0.07595 0.0
N360 N 0.16858 0.40581 0.93187 0.0
N361 N 0.19878 0.2423 0.12272 0.0
H362 H 0.27647 0.40137 0.12247 0.0
H363 H 0.24781 0.34199 0.16789 0.0
H364 H 0.17826 0.1994 0.12669 0.0
H365 H 0.23635 0.24711 0.15147 0.0
H366 H 0.13359 0.40631 0.90003 0.0
H367 H 0.20105 0.44078 0.92665 0.0
H368 H 0.06666 0.34167 0.91663 0.0
H369 H 0.04494 0.2776 0.95919 0.0
C370 C 0.25813 0.73824 0.9404 0.0
C371 C 0.32145 0.74955 0.94736 0.0
C372 C 0.30246 0.85775 0.96921 0.0
C373 C 0.23975 0.8461 0.95996 0.0
N374 N 0.15889 0.7803 0.9222 0.0
N375 N 0.40567 0.81915 0.96484 0.0
C376 C 0.21822 0.78819 0.93981 0.0
C377 C 0.34431 0.80932 0.96023 0.0
N378 N 0.23519 0.67957 0.94079 0.0
N379 N 0.32115 0.91437 0.9886 0.0
H380 H 0.43689 0.78366 0.9627 0.0
H381 H 0.42596 0.86228 0.96844 0.0
H382 H 0.29116 0.951 0.99227 0.0
H383 H 0.36531 0.92487 0.00258 0.0
H384 H 0.18883 0.66941 0.94378 0.0
H385 H 0.26188 0.6406 0.94517 0.0
H386 H 0.14281 0.74075 0.90074 0.0
H387 H 0.12688 0.81507 0.92385 0.0
C388 C 0.66788 0.25145 0.08125 0.0
C389 C 0.61725 0.24222 0.04212 0.0
C390 C 0.64089 0.1339 0.03209 0.0
C391 C 0.69346 0.14443 0.06775 0.0
N392 N 0.74189 0.20435 0.14717 0.0
N393 N 0.54423 0.17314 0.9964 0.0
C394 C 0.70131 0.20002 0.10012 0.0
C395 C 0.59974 0.18263 0.02301 0.0
N396 N 0.68724 0.30931 0.09635 0.0
N397 N 0.63238 0.07823 0.00494 0.0
H398 H 0.51311 0.20846 0.9905 0.0
H399 H 0.52699 0.12993 0.98542 0.0
H400 H 0.66092 0.04131 0.01408 0.0
H401 H 0.59871 0.06931 0.97264 0.0
H402 H 0.72853 0.31828 0.1182 0.0
H403 H 0.6652 0.34907 0.08262 0.0
H404 H 0.74599 0.24311 0.17457 0.0
H405 H 0.76568 0.16701 0.16407 0.0
C406 C 0.81481 0.71461 0.94026 0.0
C407 C 0.85549 0.71217 0.99032 0.0
C408 C 0.80878 0.61551 0.02195 0.0
C409 C 0.77025 0.61928 0.97061 0.0
N410 N 0.76182 0.65377 0.86623 0.0
N411 N 0.90086 0.65309 0.07123 0.0
C412 C 0.784 0.66106 0.92375 0.0
C413 C 0.85633 0.65962 0.02849 0.0
N414 N 0.79839 0.7688 0.91394 0.0
N415 N 0.79727 0.5723 0.06539 0.0
H416 H 0.93605 0.68514 0.07604 0.0
H417 H 0.90547 0.61389 0.09784 0.0
H418 H 0.76333 0.53891 0.05938 0.0
H419 H 0.81963 0.571 0.1072 0.0
H420 H 0.76496 0.77111 0.88021 0.0
H421 H 0.812 0.81154 0.9304 0.0
H422 H 0.77276 0.68431 0.83124 0.0
H423 H 0.73934 0.61403 0.85226 0.0
C424 C 0.66956 0.52348 0.76331 0.0
C425 C 0.67859 0.49034 0.81801 0.0
C426 C 0.78925 0.50369 0.80875 0.0
C427 C 0.7804 0.52825 0.74986 0.0
N428 N 0.71327 0.5612 0.66918 0.0
N429 N 0.74509 0.45189 0.89631 0.0
C430 C 0.72085 0.53952 0.72714 0.0
C431 C 0.738 0.48174 0.84205 0.0
N432 N 0.61188 0.53833 0.74533 0.0
N433 N 0.84675 0.50249 0.83267 0.0
H434 H 0.70836 0.43925 0.92379 0.0
H435 H 0.78688 0.43805 0.9136 0.0
H436 H 0.88455 0.51935 0.80899 0.0
H437 H 0.85674 0.48964 0.87713 0.0
H438 H 0.60243 0.56841 0.70985 0.0
H439 H 0.57298 0.52422 0.76881 0.0
H440 H 0.67147 0.56261 0.64685 0.0
H441 H 0.74935 0.57477 0.6414 0.0
C442 C 0.22426 0.42638 0.73981 0.0
C443 C 0.23777 0.45455 0.68339 0.0
C444 C 0.34518 0.46113 0.71065 0.0
C445 C 0.32987 0.44148 0.77026 0.0
N446 N 0.26586 0.37068 0.82416 0.0
N447 N 0.31217 0.47235 0.60541 0.0
C448 C 0.27263 0.41317 0.77978 0.0
C449 C 0.29892 0.46318 0.6653 0.0
N450 N 0.16542 0.41374 0.75604 0.0
N451 N 0.40333 0.47993 0.69877 0.0
H452 H 0.27824 0.47145 0.57205 0.0
H453 H 0.35631 0.4756 0.58847 0.0
H454 H 0.4378 0.47605 0.7313 0.0
H455 H 0.41688 0.49971 0.65783 0.0
H456 H 0.15321 0.39707 0.79865 0.0
H457 H 0.12822 0.42292 0.72819 0.0
H458 H 0.22628 0.34485 0.83096 0.0
H459 H 0.30406 0.35375 0.8452 0.0
C460 C 0.18109 0.52252 0.19685 0.0
C461 C 0.1936 0.49974 0.25584 0.0
C462 C 0.30221 0.49106 0.23088 0.0
C463 C 0.28991 0.51534 0.17219 0.0
N464 N 0.21652 0.53875 0.09373 0.0
N465 N 0.26507 0.46575 0.33203 0.0
C466 C 0.229 0.52718 0.15366 0.0
C467 C 0.25376 0.48368 0.27331 0.0
N468 N 0.12339 0.54071 0.18259 0.0
N469 N 0.36039 0.47548 0.24614 0.0
H470 H 0.23118 0.46006 0.36471 0.0
H471 H 0.30816 0.4594 0.35044 0.0
H472 H 0.39808 0.48647 0.21948 0.0
H473 H 0.37173 0.4502 0.28449 0.0
H474 H 0.11251 0.56554 0.14369 0.0
H475 H 0.08644 0.53352 0.21152 0.0
H476 H 0.17269 0.54186 0.07599 0.0
H477 H 0.24976 0.53935 0.05995 0.0
C478 C 0.62614 0.46453 0.25147 0.0
C479 C 0.62058 0.50575 0.20179 0.0
C480 C 0.70672 0.56611 0.24139 0.0
C481 C 0.70958 0.52624 0.29246 0.0
N482 N 0.66127 0.44939 0.35477 0.0
N483 N 0.64753 0.60217 0.15571 0.0
C484 C 0.66504 0.47989 0.30055 0.0
C485 C 0.65825 0.5588 0.19891 0.0
N486 N 0.59884 0.40816 0.24943 0.0
N487 N 0.75218 0.60808 0.23104 0.0
H488 H 0.61324 0.59664 0.12346 0.0
H489 H 0.6689 0.645 0.15509 0.0
H490 H 0.78814 0.61578 0.26113 0.0
H491 H 0.75629 0.63283 0.19069 0.0
H492 H 0.60606 0.37422 0.28196 0.0
H493 H 0.57527 0.39265 0.21139 0.0
H494 H 0.62638 0.41831 0.36492 0.0
H495 H 0.68951 0.46021 0.39161 0.0
C496 C 0.20704 0.78424 0.53823 0.0
C497 C 0.26566 0.76368 0.55505 0.0
C498 C 0.22897 0.65796 0.55739 0.0
C499 C 0.17305 0.67755 0.53169 0.0
N500 N 0.10885 0.75863 0.49486 0.0
N501 N 0.33371 0.68339 0.58443 0.0
C502 C 0.16182 0.74068 0.52203 0.0
C503 C 0.27656 0.70135 0.56763 0.0
N504 N 0.19488 0.84563 0.53828 0.0
N505 N 0.23793 0.59739 0.56862 0.0
H506 H 0.36887 0.71453 0.59335 0.0
H507 H 0.34751 0.63804 0.58761 0.0
H508 H 0.20849 0.56313 0.55303 0.0
H509 H 0.2728 0.58178 0.59635 0.0
H510 H 0.15175 0.86362 0.53102 0.0
H511 H 0.22711 0.87865 0.5512 0.0
H512 H 0.10155 0.80264 0.47822 0.0
H513 H 0.07219 0.72865 0.48814 0.0
C514 C 0.10608 0.21493 0.48041 0.0
C515 C 0.10882 0.26875 0.51595 0.0
C516 C 0.20404 0.23638 0.56194 0.0
C517 C 0.20329 0.18419 0.52349 0.0
N518 N 0.14165 0.11114 0.46819 0.0
N519 N 0.1424 0.31313 0.61003 0.0
C520 C 0.15019 0.16917 0.48983 0.0
C521 C 0.15176 0.27351 0.56354 0.0
N522 N 0.06264 0.20871 0.43649 0.0
N523 N 0.2553 0.25349 0.59325 0.0
H524 H 0.10236 0.33786 0.61256 0.0
H525 H 0.16997 0.31505 0.64869 0.0
H526 H 0.296 0.22953 0.5918 0.0
H527 H 0.25883 0.2949 0.61668 0.0
H528 H 0.06261 0.17369 0.40429 0.0
H529 H 0.02816 0.24073 0.43147 0.0
H530 H 0.10159 0.09658 0.44693 0.0
H531 H 0.17231 0.07607 0.47751 0.0
C532 C 0.75676 0.68882 0.46836 0.0
C533 C 0.81917 0.70209 0.47908 0.0
C534 C 0.80064 0.81222 0.47169 0.0
C535 C 0.73774 0.79893 0.47263 0.0
N536 N 0.65367 0.72784 0.46115 0.0
N537 N 0.90273 0.7739 0.48732 0.0
C538 C 0.71517 0.73806 0.46606 0.0
C539 C 0.84203 0.76318 0.47773 0.0
N540 N 0.73721 0.62919 0.46464 0.0
N541 N 0.82013 0.87161 0.46642 0.0
H542 H 0.93387 0.73838 0.49175 0.0
H543 H 0.92206 0.81721 0.49324 0.0
H544 H 0.78978 0.90798 0.46369 0.0
H545 H 0.86543 0.88457 0.46024 0.0
H546 H 0.69308 0.61547 0.45373 0.0
H547 H 0.7662 0.59211 0.47001 0.0
H548 H 0.63275 0.68493 0.46117 0.0
H549 H 0.62229 0.7632 0.45714 0.0
C550 C 0.7304 0.27057 0.47274 0.0
C551 C 0.67255 0.268 0.50168 0.0
C552 C 0.69232 0.36717 0.54965 0.0
C553 C 0.74964 0.37022 0.51972 0.0
N554 N 0.81476 0.33451 0.43959 0.0
N555 N 0.59151 0.32086 0.55194 0.0
C556 C 0.76569 0.32512 0.47667 0.0
C557 C 0.6512 0.31879 0.53498 0.0
N558 N 0.75388 0.21978 0.44533 0.0
N559 N 0.67862 0.40756 0.59497 0.0
H560 H 0.56046 0.28655 0.53976 0.0
H561 H 0.57176 0.35911 0.57184 0.0
H562 H 0.70775 0.44284 0.60874 0.0
H563 H 0.64036 0.40292 0.62258 0.0
H564 H 0.7986 0.21764 0.42979 0.0
H565 H 0.73104 0.1778 0.44274 0.0
H566 H 0.82455 0.30634 0.40273 0.0
H567 H 0.84183 0.37401 0.44192 0.0
C568 C 0.49736 0.19491 0.78479 0.0
C569 C 0.4765 0.2551 0.77249 0.0
C570 C 0.47884 0.23526 0.66323 0.0
C571 C 0.49461 0.1736 0.67549 0.0
N572 N 0.53246 0.09751 0.74411 0.0
N573 N 0.46611 0.33844 0.70164 0.0
C574 C 0.50937 0.15473 0.73524 0.0
C575 C 0.47363 0.27726 0.71206 0.0
N576 N 0.50275 0.17563 0.84372 0.0
N577 N 0.46426 0.25211 0.60514 0.0
H578 H 0.46234 0.37004 0.73694 0.0
H579 H 0.46907 0.35854 0.65876 0.0
H580 H 0.47041 0.22295 0.56807 0.0
H581 H 0.4443 0.29369 0.59389 0.0
H582 H 0.51285 0.13099 0.85653 0.0
H583 H 0.49493 0.20446 0.88058 0.0
H584 H 0.54793 0.0811 0.78574 0.0
H585 H 0.53997 0.06763 0.70795 0.0
C586 C 0.48785 0.72267 0.68665 0.0
C587 C 0.49289 0.78421 0.70678 0.0
C588 C 0.49751 0.74979 0.81242 0.0
C589 C 0.49577 0.68801 0.79241 0.0
N590 N 0.47217 0.6156 0.71359 0.0
N591 N 0.47987 0.8566 0.78748 0.0
C592 C 0.48447 0.67455 0.73042 0.0
C593 C 0.48971 0.79778 0.76942 0.0
N594 N 0.48981 0.71034 0.62579 0.0
N595 N 0.51086 0.76269 0.87171 0.0
H596 H 0.47339 0.89193 0.75611 0.0
H597 H 0.47235 0.86886 0.83262 0.0
H598 H 0.51472 0.72861 0.90483 0.0
H599 H 0.52103 0.80675 0.88714 0.0
H600 H 0.49375 0.66641 0.60794 0.0
H601 H 0.48933 0.74495 0.59296 0.0
H602 H 0.45901 0.60308 0.66981 0.0
H603 H 0.47009 0.5801 0.74533 0.0
C604 C 0.48041 0.78116 0.18703 0.0
C605 C 0.49397 0.71813 0.1944 0.0
C606 C 0.49113 0.73068 0.30545 0.0
C607 C 0.48661 0.79508 0.2977 0.0
N608 N 0.48243 0.88292 0.23125 0.0
N609 N 0.5201 0.63397 0.26085 0.0
C610 C 0.48253 0.82071 0.23848 0.0
C611 C 0.50053 0.69286 0.2537 0.0
N612 N 0.46387 0.8028 0.13106 0.0
N613 N 0.48762 0.7056 0.36239 0.0
H614 H 0.52864 0.60473 0.2246 0.0
H615 H 0.53314 0.61554 0.30255 0.0
H616 H 0.484 0.73168 0.40187 0.0
H617 H 0.48344 0.65866 0.37022 0.0
H618 H 0.44747 0.84684 0.12382 0.0
H619 H 0.46083 0.77476 0.09273 0.0
H620 H 0.48652 0.90447 0.18914 0.0
H621 H 0.48236 0.91325 0.26786 0.0
C622 C 0.46973 0.18104 0.24653 0.0
C623 C 0.45604 0.20355 0.30524 0.0
C624 C 0.45823 0.30875 0.26674 0.0
C625 C 0.46057 0.28561 0.20649 0.0
N626 N 0.47454 0.20076 0.13788 0.0
N627 N 0.43298 0.28821 0.37178 0.0
C628 C 0.46845 0.22192 0.19604 0.0
C629 C 0.45032 0.26731 0.31583 0.0
N630 N 0.48499 0.12085 0.23967 0.0
N631 N 0.46325 0.37021 0.27739 0.0
H632 H 0.42686 0.25982 0.40946 0.0
H633 H 0.42006 0.33326 0.37989 0.0
H634 H 0.4661 0.40275 0.24294 0.0
H635 H 0.46996 0.38869 0.32059 0.0
H636 H 0.5006 0.10206 0.19921 0.0
H637 H 0.48684 0.09043 0.27631 0.0
H638 H 0.47366 0.15458 0.12618 0.0
H639 H 0.47888 0.22985 0.10045 0.0
loop_
_geom_bond_atom_site_label_1
_geom_bond_atom_site_label_2
_geom_bond_distance
_geom_bond_site_symmetry_2
_ccdc_geom_bond_type
Zn0 O2 1.933 1_556 S
Zn0 O20 1.985 . S
Zn0 O31 1.955 . S
Zn1 O2 1.911 . S
Zn1 O21 1.970 . S
Zn1 O37 1.945 . S
Zn1 O44 1.981 . S
O2 Zn0 1.933 1_554 S
O2 Zn1 1.911 . S
O2 H3 0.839 1_554 S
H3 O2 0.839 1_556 S
C4 O5 1.246 . S
C4 O33 1.276 1_655 S
O5 C4 1.246 . S
Zn6 O8 1.911 . S
Zn6 O23 1.970 . S
Zn6 O40 1.945 . S
Zn6 O47 1.981 . S
Zn7 O8 1.933 1_556 S
Zn7 O22 1.985 . S
Zn7 O29 1.955 . S
O8 Zn6 1.911 . S
O8 Zn7 1.933 1_554 S
O8 H9 0.841 1_554 S
H9 O8 0.841 1_556 S
Zn10 O11 1.933 1_556 S
Zn10 O24 1.985 . S
Zn10 O33 1.955 . S
O11 Zn10 1.933 1_554 S
O11 Zn12 1.911 . S
O11 H13 0.838 1_554 S
Zn12 O11 1.911 . S
Zn12 O25 1.970 . S
Zn12 O41 1.981 . S
Zn12 O43 1.945 . S
H13 O11 0.838 1_556 S
Zn14 O15 1.933 1_556 S
Zn14 O27 1.985 . S
Zn14 O35 1.955 . S
O15 Zn14 1.933 1_554 S
O15 H16 0.838 1_554 S
O15 Zn17 1.911 . S
H16 O15 0.838 1_556 S
Zn17 O15 1.911 . S
Zn17 O28 1.970 . S
Zn17 O38 1.981 . S
Zn17 O46 1.945 . S
C18 O19 1.246 . S
C18 O35 1.276 1_455 S
O19 C18 1.246 . S
O20 Zn0 1.985 . S
O20 C30 1.245 1_556 S
O21 Zn1 1.970 . S
O21 C30 1.263 . S
O22 Zn7 1.985 . S
O22 C34 1.245 1_556 S
O23 Zn6 1.970 . S
O23 C34 1.263 . S
O24 Zn10 1.985 . S
O24 C39 1.245 1_556 S
O25 Zn12 1.970 . S
O25 C39 1.263 . S
C26 O37 1.262 1_545 S
C26 O38 1.245 . S
O27 Zn14 1.985 . S
O27 C45 1.245 1_556 S
O28 Zn17 1.970 . S
O28 C45 1.263 . S
O29 Zn7 1.955 . S
O29 C48 1.276 1_545 S
C30 O20 1.245 1_554 S
C30 O21 1.263 . S
O31 Zn0 1.955 . S
O31 C50 1.276 1_565 S
C32 O40 1.262 . S
C32 O41 1.245 1_545 S
O33 C4 1.276 1_455 S
O33 Zn10 1.955 . S
C34 O22 1.245 1_554 S
C34 O23 1.263 . S
O35 Zn14 1.955 . S
O35 C18 1.276 1_655 S
C36 O43 1.268 . S
C36 O44 1.241 1_455 S
O37 Zn1 1.945 . S
O37 C26 1.262 1_565 S
O38 Zn17 1.981 . S
O38 C26 1.245 . S
C39 O24 1.245 1_554 S
C39 O25 1.263 . S
O40 Zn6 1.945 . S
O40 C32 1.262 . S
O41 Zn12 1.981 . S
O41 C32 1.245 1_565 S
C42 O46 1.263 1_455 S
C42 O47 1.244 . S
O43 Zn12 1.945 . S
O43 C36 1.268 . S
O44 Zn1 1.981 . S
O44 C36 1.241 1_655 S
C45 O27 1.245 1_554 S
C45 O28 1.263 . S
O46 Zn17 1.945 . S
O46 C42 1.263 1_655 S
O47 Zn6 1.981 . S
O47 C42 1.244 . S
C48 O29 1.276 1_565 S
C48 O49 1.246 . S
O49 C48 1.246 . S
C50 O31 1.276 1_545 S
C50 O51 1.246 . S
O51 C50 1.246 . S
Zn52 O54 1.933 . S
Zn52 O72 1.985 . S
Zn52 O83 1.955 . S
Zn53 O54 1.911 . S
Zn53 O73 1.970 . S
Zn53 O89 1.945 . S
Zn53 O96 1.981 . S
O54 Zn52 1.933 . S
O54 Zn53 1.911 . S
O54 H55 0.841 . S
H55 O54 0.841 . S
C56 O57 1.246 . S
C56 O85 1.276 . S
O57 C56 1.246 . S
Zn58 O60 1.911 . S
Zn58 O75 1.970 . S
Zn58 O92 1.945 . S
Zn58 O99 1.981 . S
Zn59 O60 1.933 . S
Zn59 O74 1.985 . S
Zn59 O81 1.955 . S
O60 Zn58 1.911 . S
O60 Zn59 1.933 . S
O60 H61 0.841 . S
H61 O60 0.841 . S
Zn62 O63 1.933 . S
Zn62 O76 1.985 . S
Zn62 O85 1.955 . S
O63 Zn62 1.933 . S
O63 Zn64 1.911 . S
O63 H65 0.841 . S
Zn64 O63 1.911 . S
Zn64 O77 1.970 . S
Zn64 O93 1.981 . S
Zn64 O95 1.945 . S
H65 O63 0.841 . S
Zn66 O67 1.933 . S
Zn66 O79 1.985 . S
Zn66 O87 1.955 . S
O67 Zn66 1.933 . S
O67 H68 0.841 . S
O67 Zn69 1.911 . S
H68 O67 0.841 . S
Zn69 O67 1.911 . S
Zn69 O80 1.970 . S
Zn69 O90 1.981 . S
Zn69 O98 1.945 . S
C70 O71 1.246 . S
C70 O87 1.276 . S
O71 C70 1.246 . S
O72 Zn52 1.985 . S
O72 C82 1.245 . S
O73 Zn53 1.970 . S
O73 C82 1.263 . S
O74 Zn59 1.985 . S
O74 C86 1.245 . S
O75 Zn58 1.970 . S
O75 C86 1.263 . S
O76 Zn62 1.985 . S
O76 C91 1.245 . S
O77 Zn64 1.970 . S
O77 C91 1.263 . S
C78 O89 1.262 . S
C78 O90 1.245 1_655 S
O79 Zn66 1.985 . S
O79 C97 1.245 . S
O80 Zn69 1.970 . S
O80 C97 1.263 . S
O81 Zn59 1.955 . S
O81 C100 1.276 1_455 S
C82 O72 1.245 . S
C82 O73 1.263 . S
O83 Zn52 1.955 . S
O83 C102 1.276 1_655 S
C84 O92 1.268 . S
C84 O93 1.242 1_455 S
O85 C56 1.276 . S
O85 Zn62 1.955 . S
C86 O74 1.245 . S
C86 O75 1.263 . S
O87 Zn66 1.955 . S
O87 C70 1.276 . S
C88 O95 1.262 . S
C88 O96 1.245 . S
O89 Zn53 1.945 . S
O89 C78 1.262 . S
O90 Zn69 1.981 . S
O90 C78 1.245 1_455 S
C91 O76 1.245 . S
C91 O77 1.263 . S
O92 Zn58 1.945 . S
O92 C84 1.268 . S
O93 Zn64 1.981 . S
O93 C84 1.242 1_655 S
C94 O98 1.262 . S
C94 O99 1.245 . S
O95 Zn64 1.945 . S
O95 C88 1.262 . S
O96 Zn53 1.981 . S
O96 C88 1.245 . S
C97 O79 1.245 . S
C97 O80 1.263 . S
O98 Zn69 1.945 . S
O98 C94 1.262 . S
O99 Zn58 1.981 . S
O99 C94 1.245 . S
C100 O81 1.276 1_655 S
C100 O101 1.246 . S
O101 C100 1.246 . S
C102 O83 1.276 1_455 S
C102 O103 1.246 . S
O103 C102 1.246 . S
Zn104 O106 1.933 . S
Zn104 O124 1.985 . S
Zn104 O135 1.955 . S
Zn105 O106 1.911 . S
Zn105 O125 1.970 . S
Zn105 O141 1.945 . S
Zn105 O148 1.981 . S
O106 Zn104 1.933 . S
O106 Zn105 1.911 . S
O106 H107 0.841 . S
H107 O106 0.841 . S
C108 O109 1.246 . S
C108 O137 1.276 . S
O109 C108 1.246 . S
Zn110 O112 1.911 . S
Zn110 O127 1.970 . S
Zn110 O144 1.945 . S
Zn110 O151 1.981 . S
Zn111 O112 1.933 . S
Zn111 O126 1.985 . S
Zn111 O133 1.955 . S
O112 Zn110 1.911 . S
O112 Zn111 1.933 . S
O112 H113 0.841 . S
H113 O112 0.841 . S
Zn114 O115 1.933 . S
Zn114 O128 1.985 . S
Zn114 O137 1.955 . S
O115 Zn114 1.933 . S
O115 Zn116 1.911 . S
O115 H117 0.841 . S
Zn116 O115 1.911 . S
Zn116 O129 1.970 . S
Zn116 O145 1.981 . S
Zn116 O147 1.945 . S
H117 O115 0.841 . S
Zn118 O119 1.933 . S
Zn118 O131 1.985 . S
Zn118 O139 1.955 . S
O119 Zn118 1.933 . S
O119 H120 0.841 . S
O119 Zn121 1.911 . S
H120 O119 0.841 . S
Zn121 O119 1.911 . S
Zn121 O132 1.970 . S
Zn121 O142 1.981 . S
Zn121 O150 1.945 . S
C122 O123 1.246 . S
C122 O139 1.276 . S
O123 C122 1.246 . S
O124 Zn104 1.985 . S
O124 C134 1.245 . S
O125 Zn105 1.970 . S
O125 C134 1.263 . S
O126 Zn111 1.985 . S
O126 C138 1.245 . S
O127 Zn110 1.970 . S
O127 C138 1.263 . S
O128 Zn114 1.985 . S
O128 C143 1.245 . S
O129 Zn116 1.970 . S
O129 C143 1.263 . S
C130 O141 1.262 1_545 S
C130 O142 1.245 . S
O131 Zn118 1.985 . S
O131 C149 1.245 . S
O132 Zn121 1.970 . S
O132 C149 1.263 . S
O133 Zn111 1.955 . S
O133 C152 1.276 1_545 S
C134 O124 1.245 . S
C134 O125 1.263 . S
O135 Zn104 1.955 . S
O135 C154 1.276 1_565 S
C136 O144 1.262 . S
C136 O145 1.245 1_545 S
O137 C108 1.276 . S
O137 Zn114 1.955 . S
C138 O126 1.245 . S
C138 O127 1.263 . S
O139 Zn118 1.955 . S
O139 C122 1.276 . S
C140 O147 1.262 . S
C140 O148 1.245 . S
O141 Zn105 1.945 . S
O141 C130 1.262 1_565 S
O142 Zn121 1.981 . S
O142 C130 1.245 . S
C143 O128 1.245 . S
C143 O129 1.263 . S
O144 Zn110 1.945 . S
O144 C136 1.262 . S
O145 Zn116 1.981 . S
O145 C136 1.245 1_565 S
C146 O150 1.262 . S
C146 O151 1.245 . S
O147 Zn116 1.945 . S
O147 C140 1.262 . S
O148 Zn105 1.981 . S
O148 C140 1.245 . S
C149 O131 1.245 . S
C149 O132 1.263 . S
O150 Zn121 1.945 . S
O150 C146 1.262 . S
O151 Zn110 1.981 . S
O151 C146 1.245 . S
C152 O133 1.276 1_565 S
C152 O153 1.246 . S
O153 C152 1.246 . S
C154 O135 1.276 1_545 S
C154 O155 1.246 . S
O155 C154 1.246 . S
Zn156 O158 1.925 1_554 S
Zn156 O176 1.985 . S
Zn156 O187 1.955 . S
Zn157 O158 1.919 . S
Zn157 O177 1.970 . S
Zn157 O193 1.945 . S
Zn157 O200 1.981 . S
O158 Zn156 1.925 1_556 S
O158 Zn157 1.919 . S
O158 H159 0.839 1_556 S
H159 O158 0.839 1_554 S
C160 O161 1.246 . S
C160 O189 1.276 . S
O161 C160 1.246 . S
Zn162 O164 1.921 . S
Zn162 O179 1.970 . S
Zn162 O196 1.945 . S
Zn162 O203 1.981 . S
Zn163 O164 1.924 1_554 S
Zn163 O178 1.985 . S
Zn163 O185 1.955 . S
O164 Zn162 1.921 . S
O164 Zn163 1.924 1_556 S
O164 H165 0.839 1_556 S
H165 O164 0.839 1_554 S
Zn166 O167 1.924 1_554 S
Zn166 O180 1.985 . S
Zn166 O189 1.955 . S
O167 Zn166 1.924 1_556 S
O167 Zn168 1.920 . S
O167 H169 0.839 1_556 S
Zn168 O167 1.920 . S
Zn168 O181 1.970 . S
Zn168 O197 1.981 . S
Zn168 O199 1.945 . S
H169 O167 0.839 1_554 S
Zn170 O171 1.925 1_554 S
Zn170 O183 1.985 . S
Zn170 O191 1.955 . S
O171 Zn170 1.925 1_556 S
O171 H172 0.839 1_556 S
O171 Zn173 1.920 . S
H172 O171 0.839 1_554 S
Zn173 O171 1.920 . S
Zn173 O184 1.970 . S
Zn173 O194 1.981 . S
Zn173 O202 1.945 . S
C174 O175 1.246 . S
C174 O191 1.276 . S
O175 C174 1.246 . S
O176 Zn156 1.985 . S
O176 C186 1.262 . S
O177 Zn157 1.970 . S
O177 C186 1.246 1_556 S
O178 Zn163 1.985 . S
O178 C190 1.260 . S
O179 Zn162 1.970 . S
O179 C190 1.248 1_556 S
O180 Zn166 1.985 . S
O180 C195 1.259 . S
O181 Zn168 1.970 . S
O181 C195 1.248 1_556 S
C182 O193 1.262 . S
C182 O194 1.245 . S
O183 Zn170 1.985 . S
O183 C201 1.262 . S
O184 Zn173 1.970 . S
O184 C201 1.246 1_556 S
O185 Zn163 1.955 . S
O185 C204 1.276 . S
C186 O176 1.262 . S
C186 O177 1.246 1_554 S
O187 Zn156 1.955 . S
O187 C206 1.276 . S
C188 O196 1.262 . S
C188 O197 1.245 . S
O189 C160 1.276 . S
O189 Zn166 1.955 . S
C190 O178 1.260 . S
C190 O179 1.248 1_554 S
O191 Zn170 1.955 . S
O191 C174 1.276 . S
C192 O199 1.262 . S
C192 O200 1.245 . S
O193 Zn157 1.945 . S
O193 C182 1.262 . S
O194 Zn173 1.981 . S
O194 C182 1.245 . S
C195 O180 1.259 . S
C195 O181 1.248 1_554 S
O196 Zn162 1.945 . S
O196 C188 1.262 . S
O197 Zn168 1.981 . S
O197 C188 1.245 . S
C198 O202 1.262 . S
C198 O203 1.245 . S
O199 Zn168 1.945 . S
O199 C192 1.262 . S
O200 Zn157 1.981 . S
O200 C192 1.245 . S
C201 O183 1.262 . S
C201 O184 1.246 1_554 S
O202 Zn173 1.945 . S
O202 C198 1.262 . S
O203 Zn162 1.981 . S
O203 C198 1.245 . S
C204 O185 1.276 . S
C204 O205 1.246 . S
O205 C204 1.246 . S
C206 O187 1.276 . S
C206 O207 1.246 . S
O207 C206 1.246 . S
C208 C209 1.363 . S
C208 C214 1.379 . S
C208 N216 1.356 . S
C209 C208 1.363 . S
C209 C215 1.363 1_455 S
C210 C211 1.363 1_655 S
C210 C215 1.379 . S
C210 N217 1.356 . S
C211 C210 1.363 1_455 S
C211 C214 1.363 . S
N212 C214 1.356 . S
N212 H224 0.984 . S
N212 H225 0.985 . S
N213 C215 1.356 . S
N213 H218 0.984 . S
N213 H219 0.985 . S
C214 C208 1.379 . S
C214 C211 1.363 . S
C214 N212 1.356 . S
C215 C209 1.363 1_655 S
C215 C210 1.379 . S
C215 N213 1.356 . S
N216 C208 1.356 . S
N216 H222 0.984 . S
N216 H223 0.984 . S
N217 C210 1.356 . S
N217 H220 0.984 . S
N217 H221 0.985 . S
H218 N213 0.984 . S
H219 N213 0.985 . S
H220 N217 0.984 . S
H221 N217 0.985 . S
H222 N216 0.984 . S
H223 N216 0.984 . S
H224 N212 0.984 . S
H225 N212 0.985 . S
C226 C227 1.363 . S
C226 C232 1.379 . S
C226 N234 1.356 . S
C227 C226 1.363 . S
C227 C233 1.363 1_545 S
C228 C229 1.363 . S
C228 C233 1.379 . S
C228 N235 1.356 . S
C229 C228 1.363 . S
C229 C232 1.363 1_565 S
N230 C232 1.356 . S
N230 H242 0.984 . S
N230 H243 0.985 . S
N231 C233 1.356 . S
N231 H236 0.984 . S
N231 H237 0.985 . S
C232 C226 1.379 . S
C232 C229 1.363 1_545 S
C232 N230 1.356 . S
C233 C227 1.363 1_565 S
C233 C228 1.379 . S
C233 N231 1.356 . S
N234 C226 1.356 . S
N234 H240 0.984 . S
N234 H241 0.984 . S
N235 C228 1.356 . S
N235 H238 0.984 . S
N235 H239 0.985 . S
H236 N231 0.984 . S
H237 N231 0.985 . S
H238 N235 0.984 . S
H239 N235 0.985 . S
H240 N234 0.984 . S
H241 N234 0.984 . S
H242 N230 0.984 . S
H243 N230 0.985 . S
C244 C245 1.363 1_455 S
C244 C250 1.379 . S
C244 N252 1.356 . S
C245 C244 1.363 1_655 S
C245 C251 1.363 . S
C246 C247 1.363 1_655 S
C246 C251 1.379 . S
C246 N253 1.356 . S
C247 C246 1.363 1_455 S
C247 C250 1.363 . S
N248 C250 1.356 . S
N248 H260 0.984 . S
N248 H261 0.985 . S
N249 C251 1.356 . S
N249 H254 0.984 . S
N249 H255 0.985 . S
C250 C244 1.379 . S
C250 C247 1.363 . S
C250 N248 1.356 . S
C251 C245 1.363 . S
C251 C246 1.379 . S
C251 N249 1.356 . S
N252 C244 1.356 . S
N252 H258 0.984 . S
N252 H259 0.984 . S
N253 C246 1.356 . S
N253 H256 0.984 . S
N253 H257 0.985 . S
H254 N249 0.984 . S
H255 N249 0.985 . S
H256 N253 0.984 . S
H257 N253 0.985 . S
H258 N252 0.984 . S
H259 N252 0.984 . S
H260 N248 0.984 . S
H261 N248 0.985 . S
C262 C263 1.363 . S
C262 C268 1.379 . S
C262 N270 1.356 . S
C263 C262 1.363 . S
C263 C269 1.363 1_545 S
C264 C265 1.363 . S
C264 C269 1.379 . S
C264 N271 1.356 . S
C265 C264 1.363 . S
C265 C268 1.363 1_565 S
N266 C268 1.356 . S
N266 H278 0.984 . S
N266 H279 0.985 . S
N267 C269 1.356 . S
N267 H272 0.984 . S
N267 H273 0.985 . S
C268 C262 1.379 . S
C268 C265 1.363 1_545 S
C268 N266 1.356 . S
C269 C263 1.363 1_565 S
C269 C264 1.379 . S
C269 N267 1.356 . S
N270 C262 1.356 . S
N270 H276 0.984 . S
N270 H277 0.984 . S
N271 C264 1.356 . S
N271 H274 0.984 . S
N271 H275 0.985 . S
H272 N267 0.984 . S
H273 N267 0.985 . S
H274 N271 0.984 . S
H275 N271 0.985 . S
H276 N270 0.984 . S
H277 N270 0.984 . S
H278 N266 0.984 . S
H279 N266 0.985 . S
C280 C281 1.363 . S
C280 C286 1.379 . S
C280 N288 1.356 . S
C281 C280 1.363 . S
C281 C287 1.363 1_655 S
C282 C283 1.363 1_455 S
C282 C287 1.379 . S
C282 N289 1.356 . S
C283 C282 1.363 1_655 S
C283 C286 1.363 . S
N284 C286 1.356 . S
N284 H296 0.984 . S
N284 H297 0.985 . S
N285 C287 1.356 . S
N285 H290 0.984 . S
N285 H291 0.985 . S
C286 C280 1.379 . S
C286 C283 1.363 . S
C286 N284 1.356 . S
C287 C281 1.363 1_455 S
C287 C282 1.379 . S
C287 N285 1.356 . S
N288 C280 1.356 . S
N288 H294 0.984 . S
N288 H295 0.984 . S
N289 C282 1.356 . S
N289 H292 0.984 . S
N289 H293 0.985 . S
H290 N285 0.984 . S
H291 N285 0.985 . S
H292 N289 0.984 . S
H293 N289 0.985 . S
H294 N288 0.984 . S
H295 N288 0.984 . S
H296 N284 0.984 . S
H297 N284 0.985 . S
C298 C299 1.363 1_545 S
C298 C304 1.379 . S
C298 N306 1.356 . S
C299 C298 1.363 1_565 S
C299 C305 1.363 . S
C300 C301 1.363 1_565 S
C300 C305 1.379 . S
C300 N307 1.356 . S
C301 C300 1.363 1_545 S
C301 C304 1.363 . S
N302 C304 1.356 . S
N302 H314 0.984 . S
N302 H315 0.985 . S
N303 C305 1.356 . S
N303 H308 0.984 . S
N303 H309 0.985 . S
C304 C298 1.379 . S
C304 C301 1.363 . S
C304 N302 1.356 . S
C305 C299 1.363 . S
C305 C300 1.379 . S
C305 N303 1.356 . S
N306 C298 1.356 . S
N306 H312 0.984 . S
N306 H313 0.984 . S
N307 C300 1.356 . S
N307 H310 0.984 . S
N307 H311 0.985 . S
H308 N303 0.984 . S
H309 N303 0.985 . S
H310 N307 0.984 . S
H311 N307 0.985 . S
H312 N306 0.984 . S
H313 N306 0.984 . S
H314 N302 0.984 . S
H315 N302 0.985 . S
C316 C317 1.363 . S
C316 C322 1.379 . S
C316 N324 1.356 . S
C317 C316 1.363 . S
C317 C323 1.363 1_655 S
C318 C319 1.363 . S
C318 C323 1.379 . S
C318 N325 1.356 . S
C319 C318 1.363 . S
C319 C322 1.363 1_455 S
N320 C322 1.356 1_455 S
N320 H332 0.984 1_455 S
N320 H333 0.985 . S
N321 C323 1.356 1_655 S
N321 H326 0.986 . S
N321 H327 0.983 1_655 S
C322 C316 1.379 . S
C322 C319 1.363 1_655 S
C322 N320 1.356 1_655 S
C323 C317 1.363 1_455 S
C323 C318 1.379 . S
C323 N321 1.356 1_455 S
N324 C316 1.356 . S
N324 H330 0.984 . S
N324 H331 0.984 . S
N325 C318 1.356 . S
N325 H328 0.984 . S
N325 H329 0.985 . S
H326 N321 0.986 . S
H327 N321 0.983 1_455 S
H328 N325 0.984 . S
H329 N325 0.985 . S
H330 N324 0.984 . S
H331 N324 0.984 . S
H332 N320 0.984 1_655 S
H333 N320 0.985 . S
C334 C335 1.363 . S
C334 C340 1.379 . S
C334 N342 1.356 . S
C335 C334 1.363 . S
C335 C341 1.363 1_565 S
C336 C337 1.363 . S
C336 C341 1.379 . S
C336 N343 1.356 . S
C337 C336 1.363 . S
C337 C340 1.363 1_545 S
N338 C340 1.356 . S
N338 H350 0.984 . S
N338 H351 0.985 . S
N339 C341 1.356 . S
N339 H344 0.984 . S
N339 H345 0.985 . S
C340 C334 1.379 . S
C340 C337 1.363 1_565 S
C340 N338 1.356 . S
C341 C335 1.363 1_545 S
C341 C336 1.379 . S
C341 N339 1.356 . S
N342 C334 1.356 . S
N342 H348 0.984 . S
N342 H349 0.984 . S
N343 C336 1.356 . S
N343 H346 0.984 . S
N343 H347 0.985 . S
H344 N339 0.984 . S
H345 N339 0.985 . S
H346 N343 0.984 . S
H347 N343 0.985 . S
H348 N342 0.984 . S
H349 N342 0.984 . S
H350 N338 0.984 . S
H351 N338 0.985 . S
C352 C353 1.351 1_556 S
C352 C358 1.379 . S
C352 N360 1.356 . S
C353 C352 1.351 1_554 S
C353 C359 1.376 . S
C354 C355 1.363 . S
C354 C359 1.379 . S
C354 N361 1.356 . S
C355 C354 1.363 . S
C355 C358 1.363 1_554 S
N356 C358 1.356 . S
N356 H368 0.984 . S
N356 H369 0.985 . S
N357 C359 1.356 . S
N357 H362 0.984 . S
N357 H363 0.985 . S
C358 C352 1.379 . S
C358 C355 1.363 1_556 S
C358 N356 1.356 . S
C359 C353 1.376 . S
C359 C354 1.379 . S
C359 N357 1.356 . S
N360 C352 1.356 . S
N360 H366 0.984 . S
N360 H367 0.984 . S
N361 C354 1.356 . S
N361 H364 0.984 . S
N361 H365 0.985 . S
H362 N357 0.984 . S
H363 N357 0.985 . S
H364 N361 0.984 . S
H365 N361 0.985 . S
H366 N360 0.984 . S
H367 N360 0.984 . S
H368 N356 0.984 . S
H369 N356 0.985 . S
C370 C371 1.368 . S
C370 C376 1.379 . S
C370 N378 1.356 . S
C371 C370 1.368 . S
C371 C377 1.358 1_554 S
C372 C373 1.363 1_556 S
C372 C377 1.379 . S
C372 N379 1.356 . S
C373 C372 1.363 1_554 S
C373 C376 1.363 . S
N374 C376 1.356 . S
N374 H386 0.984 . S
N374 H387 0.985 . S
N375 C377 1.356 . S
N375 H380 0.984 . S
N375 H381 0.985 . S
C376 C370 1.379 . S
C376 C373 1.363 . S
C376 N374 1.356 . S
C377 C371 1.358 1_556 S
C377 C372 1.379 . S
C377 N375 1.356 . S
N378 C370 1.356 . S
N378 H384 0.984 . S
N378 H385 0.984 . S
N379 C372 1.356 . S
N379 H382 0.984 . S
N379 H383 0.985 . S
H380 N375 0.984 . S
H381 N375 0.985 . S
H382 N379 0.984 . S
H383 N379 0.985 . S
H384 N378 0.984 . S
H385 N378 0.984 . S
H386 N374 0.984 . S
H387 N374 0.985 . S
C388 C389 1.373 . S
C388 C394 1.379 . S
C388 N396 1.356 . S
C389 C388 1.373 . S
C389 C395 1.353 1_554 S
C390 C391 1.363 1_556 S
C390 C395 1.379 . S
C390 N397 1.356 . S
C391 C390 1.363 1_554 S
C391 C394 1.363 . S
N392 C394 1.356 . S
N392 H404 0.984 . S
N392 H405 0.985 . S
N393 C395 1.356 . S
N393 H398 0.984 . S
N393 H399 0.985 . S
C394 C388 1.379 . S
C394 C391 1.363 . S
C394 N392 1.356 . S
C395 C389 1.353 1_556 S
C395 C390 1.379 . S
C395 N393 1.356 . S
N396 C388 1.356 . S
N396 H402 0.984 . S
N396 H403 0.984 . S
N397 C390 1.356 . S
N397 H400 0.984 . S
N397 H401 0.985 . S
H398 N393 0.984 . S
H399 N393 0.985 . S
H400 N397 0.984 . S
H401 N397 0.985 . S
H402 N396 0.984 . S
H403 N396 0.984 . S
H404 N392 0.984 . S
H405 N392 0.985 . S
C406 C407 1.363 1_556 S
C406 C412 1.379 . S
C406 N414 1.356 . S
C407 C406 1.363 1_554 S
C407 C413 1.363 . S
C408 C409 1.373 . S
C408 C413 1.379 . S
C408 N415 1.356 . S
C409 C408 1.373 . S
C409 C412 1.354 1_554 S
N410 C412 1.356 . S
N410 H422 0.984 . S
N410 H423 0.985 . S
N411 C413 1.356 . S
N411 H416 0.984 . S
N411 H417 0.985 . S
C412 C406 1.379 . S
C412 C409 1.354 1_556 S
C412 N410 1.356 . S
C413 C407 1.363 . S
C413 C408 1.379 . S
C413 N411 1.356 . S
N414 C406 1.356 . S
N414 H420 0.984 . S
N414 H421 0.984 . S
N415 C408 1.356 . S
N415 H418 0.984 . S
N415 H419 0.985 . S
H416 N411 0.984 . S
H417 N411 0.985 . S
H418 N415 0.984 . S
H419 N415 0.985 . S
H420 N414 0.984 . S
H421 N414 0.984 . S
H422 N410 0.984 . S
H423 N410 0.985 . S
C424 C425 1.363 . S
C424 C430 1.379 . S
C424 N432 1.356 . S
C425 C424 1.363 . S
C425 C431 1.363 . S
C426 C427 1.363 . S
C426 C431 1.379 . S
C426 N433 1.356 . S
C427 C426 1.363 . S
C427 C430 1.363 . S
N428 C430 1.356 . S
N428 H440 0.984 . S
N428 H441 0.985 . S
N429 C431 1.356 . S
N429 H434 0.984 . S
N429 H435 0.985 . S
C430 C424 1.379 . S
C430 C427 1.363 . S
C430 N428 1.356 . S
C431 C425 1.363 . S
C431 C426 1.379 . S
C431 N429 1.356 . S
N432 C424 1.356 . S
N432 H438 0.984 . S
N432 H439 0.984 . S
N433 C426 1.356 . S
N433 H436 0.984 . S
N433 H437 0.985 . S
H434 N429 0.984 . S
H435 N429 0.985 . S
H436 N433 0.984 . S
H437 N433 0.985 . S
H438 N432 0.984 . S
H439 N432 0.984 . S
H440 N428 0.984 . S
H441 N428 0.985 . S
C442 C443 1.363 . S
C442 C448 1.379 . S
C442 N450 1.356 . S
C443 C442 1.363 . S
C443 C449 1.363 . S
C444 C445 1.363 . S
C444 C449 1.379 . S
C444 N451 1.356 . S
C445 C444 1.363 . S
C445 C448 1.363 . S
N446 C448 1.356 . S
N446 H458 0.984 . S
N446 H459 0.985 . S
N447 C449 1.356 . S
N447 H452 0.984 . S
N447 H453 0.985 . S
C448 C442 1.379 . S
C448 C445 1.363 . S
C448 N446 1.356 . S
C449 C443 1.363 . S
C449 C444 1.379 . S
C449 N447 1.356 . S
N450 C442 1.356 . S
N450 H456 0.984 . S
N450 H457 0.984 . S
N451 C444 1.356 . S
N451 H454 0.984 . S
N451 H455 0.985 . S
H452 N447 0.984 . S
H453 N447 0.985 . S
H454 N451 0.984 . S
H455 N451 0.985 . S
H456 N450 0.984 . S
H457 N450 0.984 . S
H458 N446 0.984 . S
H459 N446 0.985 . S
C460 C461 1.363 . S
C460 C466 1.379 . S
C460 N468 1.356 . S
C461 C460 1.363 . S
C461 C467 1.363 . S
C462 C463 1.363 . S
C462 C467 1.379 . S
C462 N469 1.356 . S
C463 C462 1.363 . S
C463 C466 1.363 . S
N464 C466 1.356 . S
N464 H476 0.984 . S
N464 H477 0.985 . S
N465 C467 1.356 . S
N465 H470 0.984 . S
N465 H471 0.985 . S
C466 C460 1.379 . S
C466 C463 1.363 . S
C466 N464 1.356 . S
C467 C461 1.363 . S
C467 C462 1.379 . S
C467 N465 1.356 . S
N468 C460 1.356 . S
N468 H474 0.984 . S
N468 H475 0.984 . S
N469 C462 1.356 . S
N469 H472 0.984 . S
N469 H473 0.985 . S
H470 N465 0.984 . S
H471 N465 0.985 . S
H472 N469 0.984 . S
H473 N469 0.985 . S
H474 N468 0.984 . S
H475 N468 0.984 . S
H476 N464 0.984 . S
H477 N464 0.985 . S
C478 C479 1.363 . S
C478 C484 1.379 . S
C478 N486 1.356 . S
C479 C478 1.363 . S
C479 C485 1.363 . S
C480 C481 1.363 . S
C480 C485 1.379 . S
C480 N487 1.356 . S
C481 C480 1.363 . S
C481 C484 1.363 . S
N482 C484 1.356 . S
N482 H494 0.984 . S
N482 H495 0.985 . S
N483 C485 1.356 . S
N483 H488 0.984 . S
N483 H489 0.985 . S
C484 C478 1.379 . S
C484 C481 1.363 . S
C484 N482 1.356 . S
C485 C479 1.363 . S
C485 C480 1.379 . S
C485 N483 1.356 . S
N486 C478 1.356 . S
N486 H492 0.984 . S
N486 H493 0.984 . S
N487 C480 1.356 . S
N487 H490 0.984 . S
N487 H491 0.985 . S
H488 N483 0.984 . S
H489 N483 0.985 . S
H490 N487 0.984 . S
H491 N487 0.985 . S
H492 N486 0.984 . S
H493 N486 0.984 . S
H494 N482 0.984 . S
H495 N482 0.985 . S
C496 C497 1.363 . S
C496 C502 1.379 . S
C496 N504 1.356 . S
C497 C496 1.363 . S
C497 C503 1.363 . S
C498 C499 1.363 . S
C498 C503 1.379 . S
C498 N505 1.356 . S
C499 C498 1.363 . S
C499 C502 1.363 . S
N500 C502 1.356 . S
N500 H512 0.984 . S
N500 H513 0.985 . S
N501 C503 1.356 . S
N501 H506 0.984 . S
N501 H507 0.985 . S
C502 C496 1.379 . S
C502 C499 1.363 . S
C502 N500 1.356 . S
C503 C497 1.363 . S
C503 C498 1.379 . S
C503 N501 1.356 . S
N504 C496 1.356 . S
N504 H510 0.984 . S
N504 H511 0.984 . S
N505 C498 1.356 . S
N505 H508 0.984 . S
N505 H509 0.985 . S
H506 N501 0.984 . S
H507 N501 0.985 . S
H508 N505 0.984 . S
H509 N505 0.985 . S
H510 N504 0.984 . S
H511 N504 0.984 . S
H512 N500 0.984 . S
H513 N500 0.985 . S
C514 C515 1.363 . S
C514 C520 1.379 . S
C514 N522 1.356 . S
C515 C514 1.363 . S
C515 C521 1.363 . S
C516 C517 1.363 . S
C516 C521 1.379 . S
C516 N523 1.356 . S
C517 C516 1.363 . S
C517 C520 1.363 . S
N518 C520 1.356 . S
N518 H530 0.984 . S
N518 H531 0.985 . S
N519 C521 1.356 . S
N519 H524 0.984 . S
N519 H525 0.985 . S
C520 C514 1.379 . S
C520 C517 1.363 . S
C520 N518 1.356 . S
C521 C515 1.363 . S
C521 C516 1.379 . S
C521 N519 1.356 . S
N522 C514 1.356 . S
N522 H528 0.984 . S
N522 H529 0.984 . S
N523 C516 1.356 . S
N523 H526 0.984 . S
N523 H527 0.985 . S
H524 N519 0.984 . S
H525 N519 0.985 . S
H526 N523 0.984 . S
H527 N523 0.985 . S
H528 N522 0.984 . S
H529 N522 0.984 . S
H530 N518 0.984 . S
H531 N518 0.985 . S
C532 C533 1.363 . S
C532 C538 1.379 . S
C532 N540 1.356 . S
C533 C532 1.363 . S
C533 C539 1.363 . S
C534 C535 1.363 . S
C534 C539 1.379 . S
C534 N541 1.356 . S
C535 C534 1.363 . S
C535 C538 1.363 . S
N536 C538 1.356 . S
N536 H548 0.984 . S
N536 H549 0.985 . S
N537 C539 1.356 . S
N537 H542 0.984 . S
N537 H543 0.985 . S
C538 C532 1.379 . S
C538 C535 1.363 . S
C538 N536 1.356 . S
C539 C533 1.363 . S
C539 C534 1.379 . S
C539 N537 1.356 . S
N540 C532 1.356 . S
N540 H546 0.984 . S
N540 H547 0.984 . S
N541 C534 1.356 . S
N541 H544 0.984 . S
N541 H545 0.985 . S
H542 N537 0.984 . S
H543 N537 0.985 . S
H544 N541 0.984 . S
H545 N541 0.985 . S
H546 N540 0.984 . S
H547 N540 0.984 . S
H548 N536 0.984 . S
H549 N536 0.985 . S
C550 C551 1.363 . S
C550 C556 1.379 . S
C550 N558 1.356 . S
C551 C550 1.363 . S
C551 C557 1.363 . S
C552 C553 1.363 . S
C552 C557 1.379 . S
C552 N559 1.356 . S
C553 C552 1.363 . S
C553 C556 1.363 . S
N554 C556 1.356 . S
N554 H566 0.984 . S
N554 H567 0.985 . S
N555 C557 1.356 . S
N555 H560 0.984 . S
N555 H561 0.985 . S
C556 C550 1.379 . S
C556 C553 1.363 . S
C556 N554 1.356 . S
C557 C551 1.363 . S
C557 C552 1.379 . S
C557 N555 1.356 . S
N558 C550 1.356 . S
N558 H564 0.984 . S
N558 H565 0.984 . S
N559 C552 1.356 . S
N559 H562 0.984 . S
N559 H563 0.985 . S
H560 N555 0.984 . S
H561 N555 0.985 . S
H562 N559 0.984 . S
H563 N559 0.985 . S
H564 N558 0.984 . S
H565 N558 0.984 . S
H566 N554 0.984 . S
H567 N554 0.985 . S
C568 C569 1.363 . S
C568 C574 1.379 . S
C568 N576 1.356 . S
C569 C568 1.363 . S
C569 C575 1.363 . S
C570 C571 1.363 . S
C570 C575 1.379 . S
C570 N577 1.356 . S
C571 C570 1.363 . S
C571 C574 1.363 . S
N572 C574 1.356 . S
N572 H584 0.984 . S
N572 H585 0.985 . S
N573 C575 1.356 . S
N573 H578 0.984 . S
N573 H579 0.985 . S
C574 C568 1.379 . S
C574 C571 1.363 . S
C574 N572 1.356 . S
C575 C569 1.363 . S
C575 C570 1.379 . S
C575 N573 1.356 . S
N576 C568 1.356 . S
N576 H582 0.984 . S
N576 H583 0.984 . S
N577 C570 1.356 . S
N577 H580 0.984 . S
N577 H581 0.985 . S
H578 N573 0.984 . S
H579 N573 0.985 . S
H580 N577 0.984 . S
H581 N577 0.985 . S
H582 N576 0.984 . S
H583 N576 0.984 . S
H584 N572 0.984 . S
H585 N572 0.985 . S
C586 C587 1.363 . S
C586 C592 1.379 . S
C586 N594 1.356 . S
C587 C586 1.363 . S
C587 C593 1.363 . S
C588 C589 1.363 . S
C588 C593 1.379 . S
C588 N595 1.356 . S
C589 C588 1.363 . S
C589 C592 1.363 . S
N590 C592 1.356 . S
N590 H602 0.984 . S
N590 H603 0.985 . S
N591 C593 1.356 . S
N591 H596 0.984 . S
N591 H597 0.985 . S
C592 C586 1.379 . S
C592 C589 1.363 . S
C592 N590 1.356 . S
C593 C587 1.363 . S
C593 C588 1.379 . S
C593 N591 1.356 . S
N594 C586 1.356 . S
N594 H600 0.984 . S
N594 H601 0.984 . S
N595 C588 1.356 . S
N595 H598 0.984 . S
N595 H599 0.985 . S
H596 N591 0.984 . S
H597 N591 0.985 . S
H598 N595 0.984 . S
H599 N595 0.985 . S
H600 N594 0.984 . S
H601 N594 0.984 . S
H602 N590 0.984 . S
H603 N590 0.985 . S
C604 C605 1.363 . S
C604 C610 1.379 . S
C604 N612 1.356 . S
C605 C604 1.363 . S
C605 C611 1.363 . S
C606 C607 1.363 . S
C606 C611 1.379 . S
C606 N613 1.356 . S
C607 C606 1.363 . S
C607 C610 1.363 . S
N608 C610 1.356 . S
N608 H620 0.984 . S
N608 H621 0.985 . S
N609 C611 1.356 . S
N609 H614 0.984 . S
N609 H615 0.985 . S
C610 C604 1.379 . S
C610 C607 1.363 . S
C610 N608 1.356 . S
C611 C605 1.363 . S
C611 C606 1.379 . S
C611 N609 1.356 . S
N612 C604 1.356 . S
N612 H618 0.984 . S
N612 H619 0.984 . S
N613 C606 1.356 . S
N613 H616 0.984 . S
N613 H617 0.985 . S
H614 N609 0.984 . S
H615 N609 0.985 . S
H616 N613 0.984 . S
H617 N613 0.985 . S
H618 N612 0.984 . S
H619 N612 0.984 . S
H620 N608 0.984 . S
H621 N608 0.985 . S
C622 C623 1.363 . S
C622 C628 1.379 . S
C622 N630 1.356 . S
C623 C622 1.363 . S
C623 C629 1.363 . S
C624 C625 1.363 . S
C624 C629 1.379 . S
C624 N631 1.356 . S
C625 C624 1.363 . S
C625 C628 1.363 . S
N626 C628 1.356 . S
N626 H638 0.984 . S
N626 H639 0.985 . S
N627 C629 1.356 . S
N627 H632 0.984 . S
N627 H633 0.985 . S
C628 C622 1.379 . S
C628 C625 1.363 . S
C628 N626 1.356 . S
C629 C623 1.363 . S
C629 C624 1.379 . S
C629 N627 1.356 . S
N630 C622 1.356 . S
N630 H636 0.984 . S
N630 H637 0.984 . S
N631 C624 1.356 . S
N631 H634 0.984 . S
N631 H635 0.985 . S
H632 N627 0.984 . S
H633 N627 0.985 . S
H634 N631 0.984 . S
H635 N631 0.985 . S
H636 N630 0.984 . S
H637 N630 0.984 . S
H638 N626 0.984 . S
H639 N626 0.985 . S
C209 C42 1.846 . S
C211 C102 1.790 . S
C227 C26 1.733 . S
C229 C152 1.717 . S
C245 C36 1.742 1_655 S
C247 C78 1.725 1_455 S
C263 C154 1.721 . S
C265 C32 1.737 1_565 S
C281 C4 1.781 . S
C283 C84 1.803 1_655 S
C299 C48 1.708 . S
C301 C130 1.725 . S
C317 C100 1.851 . S
C319 C18 1.866 . S
C335 C136 1.731 1_565 S
C337 C50 1.715 . S
C353 C201 0.781 . S
C355 C34 0.783 . S
C371 C186 0.768 . S
C373 C39 0.768 . S
C389 C190 0.778 . S
C391 C45 0.777 . S
C407 C30 0.774 . S
C409 C195 0.773 . S
C425 C188 1.242 . S
C427 C91 1.298 . S
C443 C86 1.301 . S
C445 C182 1.287 . S
C461 C97 1.388 . S
C463 C206 1.306 . S
C479 C204 1.333 . S
C481 C82 1.377 . S
C497 C134 1.216 . S
C499 C94 1.163 . S
C515 C70 1.222 . S
C517 C149 1.275 . S
C533 C88 1.168 . S
C535 C143 1.192 . S
C551 C138 1.309 . S
C553 C56 1.230 . S
C569 C198 1.733 . S
C571 C146 1.733 . S
C587 C140 1.724 . S
C589 C192 1.724 . S
C605 C160 1.857 . S
C607 C108 1.858 . S
C623 C122 1.867 . S
C625 C174 1.867 . S
