# Generated by pormake.
# Topology soe, (5)-cn, num edge types: 1
# Building blocks:
#     Node 0, Type 0, BuildingBlock: BEQFEK_clean_sbu_0, # of connection points: 5
#     Node 1, Type 0, BuildingBlock: BEQFEK_clean_sbu_0, # of connection points: 5
#     Node 2, Type 0, BuildingBlock: BEQFEK_clean_sbu_0, # of connection points: 5
#     Node 3, Type 0, BuildingBlock: BEQFEK_clean_sbu_0, # of connection points: 5
#     Node 4, Type 0, BuildingBlock: BEQFEK_clean_sbu_0, # of connection points: 5
#     Node 5, Type 0, BuildingBlock: BEQFEK_clean_sbu_0, # of connection points: 5
#     Node 6, Type 0, BuildingBlock: BEQFEK_clean_sbu_0, # of connection points: 5
#     Node 7, Type 0, BuildingBlock: BEQFEK_clean_sbu_0, # of connection points: 5
#     Edge 8, Type (0, 0), None
#     Edge 9, Type (0, 0), None
#     Edge 10, Type (0, 0), None
#     Edge 11, Type (0, 0), None
#     Edge 12, Type (0, 0), None
#     Edge 13, Type (0, 0), None
#     Edge 14, Type (0, 0), None
#     Edge 15, Type (0, 0), None
#     Edge 16, Type (0, 0), None
#     Edge 17, Type (0, 0), None
#     Edge 18, Type (0, 0), None
#     Edge 19, Type (0, 0), None
#     Edge 20, Type (0, 0), None
#     Edge 21, Type (0, 0), None
#     Edge 22, Type (0, 0), None
#     Edge 23, Type (0, 0), None
#     Edge 24, Type (0, 0), None
#     Edge 25, Type (0, 0), None
#     Edge 26, Type (0, 0), None
#     Edge 27, Type (0, 0), None
# Relax obj value: 0.196
# Max RMSD: 0.250
# Mean RMSD: 0.194
data_MOF--net-soe--node1-BEQFEK_clean_sbu_0--edge1-none
_symmetry_space_group_name_H-M    P1
_symmetry_Int_Tables_number       1
_symmetry_cell_setting            triclinic
loop_
_symmetry_equiv_pos_as_xyz
'x, y, z'
_cell_length_a     26.479537
_cell_length_b     19.558678
_cell_length_c     10.832111
_cell_angle_alpha  90.55908
_cell_angle_beta   91.43724
_cell_angle_gamma 90.912997
loop_
_atom_site_label
_atom_site_type_symbol
_atom_site_fract_x
_atom_site_fract_y
_atom_site_fract_z
_atom_type_partial_charge
Co0 Co 0.14168 0.03655 0.26318 0.0
Co1 Co 0.16285 0.0817 0.99478 0.0
C2 C 0.23291 -0.01588 0.12938 0.0
O3 O 0.2054 -0.01426 0.2246 0.0
O4 O 0.22139 0.0183 0.03283 0.0
C5 C 0.16097 0.04834 0.50496 0.0
O6 O 0.2059 0.05274 0.45689 0.0
C7 C 0.18186 0.07528 0.73169 0.0
C8 C 0.11365 0.12387 0.6543 0.0
C9 C 0.15323 0.08204 0.62432 0.0
N10 N 0.15826 0.10649 0.82393 0.0
N11 N 0.11861 0.1381 0.77619 0.0
C12 C 0.22524 0.0296 0.75153 0.0
H13 H 0.25264 0.05364 0.81858 0.0
H14 H 0.21066 -0.01876 0.79088 0.0
H15 H 0.24445 0.0188 0.66397 0.0
C16 C 0.0402 -0.00309 0.13795 0.0
N17 N 0.08799 0.02257 0.13912 0.0
N18 N 0.10038 0.03422 0.02431 0.0
C19 C 0.06254 0.01142 0.94699 0.0
C20 C 1.02193 -0.0098 0.01545 0.0
C21 C 1.01383 -0.02509 0.25125 0.0
H22 H 0.03556 -0.00924 0.3358 0.0
H23 H 1.00956 0.91841 0.24896 0.0
H24 H 0.9756 -0.00271 0.25253 0.0
O25 O 0.15844 0.1324 0.28242 0.0
O26 O 0.1701 0.1706 0.0949 0.0
H27 H 0.04944 0.03227 0.75543 0.0
H28 H 0.05065 0.94341 0.79113 0.0
C29 C 0.06866 -0.00621 0.81354 0.0
H30 H 0.10896 -0.01042 0.79189 0.0
H31 H 0.09206 0.16352 0.8286 0.0
O32 O 0.1235 0.02756 0.43743 0.0
C33 C 0.16856 0.18068 0.21149 0.0
Co34 Co 0.37377 0.90081 0.28009 0.0
Co35 Co 0.35388 0.85003 0.00918 0.0
C36 C 0.28021 0.9441 0.13384 0.0
O37 O 0.30781 0.94591 0.23248 0.0
O38 O 0.29278 0.90892 0.03964 0.0
C39 C 0.35584 0.88835 0.52055 0.0
O40 O 0.31107 0.87949 0.46748 0.0
C41 C 0.33608 0.85628 0.74327 0.0
C42 C 0.40858 0.81977 0.67405 0.0
C43 C 0.36578 0.85536 0.63993 0.0
N44 N 0.36156 0.8277 0.8373 0.0
N45 N 0.4042 0.80366 0.79422 0.0
C46 C 0.28829 0.89323 0.75906 0.0
H47 H 0.26316 0.86394 0.82046 0.0
H48 H 0.29804 0.94283 0.80429 0.0
H49 H 0.26851 0.90166 0.66937 0.0
C50 C 0.47225 0.94839 0.16068 0.0
N51 N 0.42638 0.91712 0.16139 0.0
N52 N 0.41303 0.90257 0.04687 0.0
C53 C 0.44683 0.92947 0.96908 0.0
C54 C 0.48942 0.95123 0.03735 0.0
C55 C 0.49164 -0.01153 0.27073 0.0
H56 H 0.45948 0.00507 0.32701 0.0
H57 H 0.51318 0.03455 0.24232 0.0
H58 H 0.51522 0.9554 0.3306 0.0
O59 O 0.36293 0.80361 0.2967 0.0
O60 O 0.35344 0.76147 0.10826 0.0
H61 H 0.4343 0.93734 0.77203 0.0
H62 H 0.44764 0.01728 0.8488 0.0
C63 C 0.42816 -0.03314 0.85676 0.0
H64 H 0.387 -0.0242 0.86226 0.0
H65 H 0.4326 0.78238 0.84946 0.0
O66 O 0.39194 0.91253 0.45719 0.0
C67 C 0.35654 0.75323 0.22523 0.0
Co68 Co 0.16287 0.39751 0.21484 0.0
Co69 Co 0.18514 0.34711 0.48463 0.0
C70 C 0.25918 0.43728 0.35794 0.0
O71 O 0.23049 0.43872 0.26145 0.0
O72 O 0.24778 0.40238 0.4528 0.0
C73 C 0.18162 0.38238 0.97579 0.0
O74 O 0.22505 0.37018 0.03171 0.0
C75 C 0.20293 0.34609 0.75435 0.0
C76 C 0.1254 0.32226 0.81346 0.0
C77 C 0.17119 0.35019 0.85428 0.0
N78 N 0.17573 0.32312 0.65564 0.0
N79 N 0.13013 0.30583 0.69323 0.0
C80 C 0.25493 0.37501 0.74521 0.0
H81 H 0.27991 0.33591 0.70551 0.0
H82 H 0.25302 0.41761 0.67965 0.0
H83 H 0.27079 0.39351 0.83527 0.0
C84 C 0.07369 0.46098 0.35109 0.0
N85 N 0.11531 0.42233 0.34023 0.0
N86 N 0.13135 0.40771 0.45233 0.0
C87 C 0.10453 0.44201 0.53606 0.0
C88 C 0.06419 0.47282 0.47735 0.0
C89 C 0.04769 0.49341 0.24329 0.0
H90 H 0.0758 0.52299 0.19033 0.0
H91 H 1.01772 0.52796 0.27424 0.0
H92 H 0.03167 0.45315 0.18023 0.0
O93 O 0.16683 0.29958 0.19655 0.0
O94 O 0.18018 0.25892 0.38267 0.0
H95 H 0.10928 0.44768 0.73344 0.0
H96 H 0.12619 0.52555 0.65642 0.0
C97 C 0.12852 0.46915 0.65307 0.0
H98 H 0.16923 0.45817 0.65681 0.0
H99 H 0.10049 0.28982 0.63397 0.0
O100 O 0.1464 0.40976 0.03731 0.0
C101 C 0.17358 0.24974 0.26646 0.0
Co102 Co 0.39225 0.54225 0.22731 0.0
Co103 Co 0.36841 0.58883 0.49609 0.0
C104 C 0.30459 0.4815 0.36195 0.0
O105 O 0.33138 0.48543 0.26588 0.0
O106 O 0.31374 0.51898 0.45747 0.0
C107 C 0.37312 0.55092 0.98507 0.0
O108 O 0.32805 0.55092 0.03281 0.0
C109 C 0.34997 0.58073 0.76083 0.0
C110 C 0.42113 0.62642 0.8367 0.0
C111 C 0.38017 0.58574 0.86701 0.0
N112 N 0.37388 0.61222 0.66895 0.0
N113 N 0.41543 0.64178 0.71614 0.0
C114 C 0.30457 0.53607 0.74046 0.0
H115 H 0.27849 0.55922 0.67146 0.0
H116 H 0.31774 0.487 0.70297 0.0
H117 H 0.28438 0.52661 0.82716 0.0
C118 C 0.48799 0.49736 0.3609 0.0
N119 N 0.44454 0.53243 0.35358 0.0
N120 N 0.43061 0.54627 0.46618 0.0
C121 C 0.46165 0.51544 0.54825 0.0
C122 C 0.50321 0.49112 0.487 0.0
C123 C 0.50438 0.45513 0.25357 0.0
H124 H 0.47177 0.4447 0.18936 0.0
H125 H 0.51963 0.40549 0.28446 0.0
H126 H 0.53281 0.48418 0.20089 0.0
O127 O 0.37282 0.63661 0.21003 0.0
O128 O 0.35898 0.67607 0.39676 0.0
H129 H 0.44708 0.50831 0.74236 0.0
H130 H 0.45665 0.42749 0.66807 0.0
C131 C 0.44007 0.47889 0.6566 0.0
H132 H 0.39884 0.47143 0.64246 0.0
H133 H 0.44256 0.66647 0.66353 0.0
O134 O 0.41104 0.53401 0.05274 0.0
C135 C 0.36078 0.68477 0.28011 0.0
Co136 Co 0.88164 0.87852 0.02301 0.0
Co137 Co 0.89787 0.9222 0.75516 0.0
C138 C 0.80531 -0.03551 0.88435 0.0
O139 O 0.82082 0.93464 0.9819 0.0
O140 O 0.8317 -0.03385 0.78753 0.0
C141 C 0.8762 0.90578 0.26272 0.0
O142 O 0.86482 -0.03605 0.21041 0.0
C143 C 0.88369 0.94259 0.49001 0.0
C144 C 0.94232 0.87315 0.42248 0.0
C145 C 0.89949 0.90783 0.38634 0.0
N146 N 0.91387 0.92508 0.58566 0.0
N147 N 0.95002 0.88588 0.54374 0.0
C148 C 0.83656 -0.01724 0.50216 0.0
H149 H 0.80487 0.94757 0.52453 0.0
H150 H 0.82718 0.00928 0.41495 0.0
H151 H 0.84146 0.02133 0.57736 0.0
C152 C 0.88647 0.73854 0.90144 0.0
N153 N 0.88775 0.80737 0.90083 0.0
N154 N 0.8876 0.82735 0.78535 0.0
C155 C 0.88179 0.77206 0.7096 0.0
C156 C 0.8835 0.71374 0.77961 0.0
C157 C 0.88883 0.69758 0.01639 0.0
H158 H 0.88809 0.73084 0.09969 0.0
H159 H 0.85685 0.66022 0.01714 0.0
H160 H 0.92467 0.66912 0.0166 0.0
O161 O 0.94465 0.93051 0.04222 0.0
O162 O 0.95957 0.96266 0.85285 0.0
H163 H 0.89663 0.76261 0.51706 0.0
H164 H 0.83532 0.73324 0.55841 0.0
C165 C 0.86449 0.77364 0.57722 0.0
H166 H 0.84711 0.82307 0.55517 0.0
H167 H 0.97702 0.86237 0.6001 0.0
O168 O 0.87861 0.85182 0.19619 0.0
C169 C 0.97276 0.96031 0.96721 0.0
Co170 Co 0.65669 0.02394 0.74432 0.0
Co171 Co 0.67636 0.07343 0.01477 0.0
C172 C 0.75485 -0.00479 0.88286 0.0
O173 O 0.72571 -0.01266 0.78806 0.0
O174 O 0.74069 0.02729 0.97824 0.0
C175 C 0.6771 0.02942 0.50408 0.0
O176 O 0.72154 0.03943 0.55798 0.0
C177 C 0.69483 0.05243 0.27738 0.0
C178 C 0.63116 0.10842 0.35665 0.0
C179 C 0.66813 0.06137 0.38423 0.0
N180 N 0.67301 0.08997 0.18797 0.0
N181 N 0.63561 0.12432 0.2366 0.0
C182 C 0.73543 0.00155 0.25617 0.0
H183 H 0.72425 -0.03341 0.17889 0.0
H184 H 0.74316 -0.02939 0.33953 0.0
H185 H 0.77035 0.02916 0.22953 0.0
C186 C 0.55775 -0.0233 0.86323 0.0
N187 N 0.60505 0.0039 0.86389 0.0
N188 N 0.6189 0.01635 0.97881 0.0
C189 C 0.58327 -0.00721 0.05535 0.0
C190 C 0.54016 -0.02614 0.98623 0.0
C191 C 0.53522 0.94376 0.74924 0.0
H192 H 0.56553 0.93019 0.68484 0.0
H193 H 0.51399 0.89644 0.77223 0.0
H194 H 0.51049 -0.01946 0.7006 0.0
O195 O 0.66302 0.12134 0.72842 0.0
O196 O 0.67176 0.16262 0.91857 0.0
H197 H 0.5936 -0.00654 0.25275 0.0
H198 H 0.57544 0.91143 0.188 0.0
C199 C 0.59825 0.95866 0.17372 0.0
H200 H 0.63828 0.94352 0.17147 0.0
H201 H 0.61049 0.15411 0.1855 0.0
O202 O 0.64014 0.00863 0.56805 0.0
C203 C 0.66767 0.17136 0.80165 0.0
Co204 Co 0.90198 0.50258 0.79777 0.0
Co205 Co 0.8789 0.52954 0.53176 0.0
C206 C 0.80264 0.45473 0.66765 0.0
O207 O 0.83329 0.45497 0.7611 0.0
O208 O 0.81427 0.48374 0.56732 0.0
C209 C 0.89206 0.50081 0.03868 0.0
O210 O 0.84603 0.50819 0.99358 0.0
C211 C 0.87771 0.50168 0.26676 0.0
C212 C 0.92808 0.58309 0.20143 0.0
C213 C 0.90263 0.52383 0.16501 0.0
N214 N 0.88819 0.54466 0.36157 0.0
N215 N 0.91876 0.59332 0.32181 0.0
C216 C 0.84991 0.43552 0.27415 0.0
H217 H 0.83393 0.42832 0.36647 0.0
H218 H 0.87508 0.39267 0.25205 0.0
H219 H 0.82093 0.43425 0.19934 0.0
C220 C 1.00125 0.50358 0.65741 0.0
N221 N 0.95182 0.48945 0.67457 0.0
N222 N 0.93172 0.46837 0.56986 0.0
C223 C 0.96831 0.45724 0.48837 0.0
C224 C 1.01389 0.48307 0.53634 0.0
C225 C 0.03095 0.5485 0.746 0.0
H226 H 1.00481 0.58044 0.79967 0.0
H227 H 0.05188 0.51696 0.81374 0.0
H228 H 0.057 0.5828 0.69625 0.0
O229 O 0.88961 0.59692 0.81685 0.0
O230 O 0.88311 0.62444 0.62103 0.0
H231 H 0.96176 0.41904 0.30205 0.0
H232 H 0.99737 0.36559 0.40443 0.0
C233 C 0.96401 0.39912 0.3971 0.0
H234 H 0.9298 0.36754 0.41453 0.0
H235 H 0.93474 0.63202 0.3779 0.0
O236 O 0.92741 0.48664 0.96615 0.0
C237 C 0.88449 0.64158 0.73567 0.0
Co238 Co 0.65584 0.38816 0.80394 0.0
Co239 Co 0.67225 0.33679 0.53532 0.0
C240 C 0.75286 0.41987 0.67307 0.0
O241 O 0.72538 0.42749 0.76764 0.0
O242 O 0.73713 0.38579 0.5783 0.0
C243 C 0.66992 0.3746 0.04489 0.0
O244 O 0.71464 0.36353 0.99969 0.0
C245 C 0.68738 0.3494 0.27136 0.0
C246 C 0.61588 0.30637 0.19374 0.0
C247 C 0.65818 0.34466 0.16443 0.0
N248 N 0.6632 0.31778 0.36233 0.0
N249 N 0.62071 0.29096 0.31468 0.0
C250 C 0.73339 0.39251 0.29043 0.0
H251 H 0.76538 0.35767 0.30708 0.0
H252 H 0.73019 0.42644 0.37162 0.0
H253 H 0.73959 0.42516 0.20917 0.0
C254 C 0.56367 0.4492 0.67222 0.0
N255 N 0.60554 0.41065 0.67882 0.0
N256 N 0.61822 0.39556 0.56601 0.0
C257 C 0.58858 0.42896 0.48437 0.0
C258 C 0.54856 0.45676 0.54642 0.0
C259 C 0.5475 0.49034 0.78101 0.0
H260 H 0.5804 0.50072 0.84435 0.0
H261 H 0.53152 0.53986 0.75172 0.0
H262 H 0.51961 0.46037 0.83381 0.0
O263 O 0.66226 0.29017 0.81937 0.0
O264 O 0.66859 0.24838 0.63093 0.0
H265 H 0.60461 0.43385 0.29086 0.0
H266 H 0.59556 0.51566 0.36215 0.0
C267 C 0.61137 0.46398 0.37591 0.0
H268 H 0.65256 0.47079 0.39159 0.0
H269 H 0.59306 0.26695 0.36671 0.0
O270 O 0.63576 0.40081 0.97614 0.0
C271 C 0.66659 0.24001 0.74756 0.0
loop_
_geom_bond_atom_site_label_1
_geom_bond_atom_site_label_2
_geom_bond_distance
_geom_bond_site_symmetry_2
_ccdc_geom_bond_type
Co0 O3 1.970 . S
Co0 N17 1.989 . S
Co0 O25 1.967 . S
Co0 O32 1.920 . S
Co1 O4 1.966 1_556 S
Co1 N10 2.022 . S
Co1 N18 1.993 1_556 S
Co1 O26 1.941 1_556 S
C2 O3 1.258 . S
C2 O4 1.263 . S
O3 Co0 1.970 . S
O3 C2 1.258 . S
O4 Co1 1.966 1_554 S
O4 C2 1.263 . S
C5 O6 1.235 . S
C5 O32 1.289 1_565 S
O6 C5 1.235 . S
C7 C9 1.400 . S
C7 N10 1.351 . S
C7 C12 1.501 . S
C8 C9 1.387 . S
C8 N11 1.341 . S
C9 C7 1.400 . S
C9 C8 1.387 . S
N10 Co1 2.022 . S
N10 C7 1.351 . S
N10 N11 1.365 . S
N11 C8 1.341 . S
N11 N10 1.365 . S
N11 H31 0.862 . S
C12 C7 1.501 . S
C12 H13 0.961 . S
C12 H14 0.961 1_545 S
C12 H15 0.960 . S
H13 C12 0.961 . S
H14 C12 0.961 1_565 S
H15 C12 0.960 . S
C16 N17 1.342 1_565 S
C16 C20 1.394 1_455 S
C16 C21 1.499 . S
N17 Co0 1.989 . S
N17 C16 1.342 1_545 S
N17 N18 1.388 . S
N18 Co1 1.993 1_554 S
N18 N17 1.388 . S
N18 C19 1.346 1_554 S
C19 N18 1.346 1_556 S
C19 C20 1.385 1_446 S
C19 C29 1.510 . S
C20 C16 1.394 1_655 S
C20 C19 1.385 1_664 S
C21 C16 1.499 . S
C21 H22 0.959 . S
C21 H23 0.960 1_455 S
C21 H24 0.961 1_465 S
H22 C21 0.959 . S
H23 C21 0.960 1_655 S
H24 C21 0.961 1_645 S
O25 Co0 1.967 . S
O25 C33 1.258 . S
O26 Co1 1.941 1_554 S
O26 C33 1.266 . S
H27 C29 0.959 . S
H28 C29 0.961 1_565 S
C29 C19 1.510 . S
C29 H27 0.959 . S
C29 H28 0.961 1_545 S
C29 H30 0.960 . S
H30 C29 0.960 . S
H31 N11 0.862 . S
O32 Co0 1.920 . S
O32 C5 1.289 1_545 S
C33 O25 1.258 . S
C33 O26 1.266 . S
Co34 O37 1.970 . S
Co34 N51 1.989 . S
Co34 O59 1.967 . S
Co34 O66 1.920 . S
Co35 O38 1.964 1_556 S
Co35 N44 2.031 . S
Co35 N52 1.991 1_556 S
Co35 O60 1.938 1_556 S
C36 O37 1.258 . S
C36 O38 1.263 . S
O37 Co34 1.970 . S
O37 C36 1.258 . S
O38 Co35 1.964 1_554 S
O38 C36 1.263 . S
C39 O40 1.235 . S
C39 O66 1.289 1_545 S
O40 C39 1.235 . S
C41 C43 1.400 . S
C41 N44 1.351 . S
C41 C46 1.501 . S
C42 C43 1.387 . S
C42 N45 1.341 . S
C43 C41 1.400 . S
C43 C42 1.387 . S
N44 Co35 2.031 . S
N44 C41 1.351 . S
N44 N45 1.365 . S
N45 C42 1.341 . S
N45 N44 1.365 . S
N45 H65 0.862 . S
C46 C41 1.501 . S
C46 H47 0.961 . S
C46 H48 0.961 1_565 S
C46 H49 0.960 . S
H47 C46 0.961 . S
H48 C46 0.961 1_545 S
H49 C46 0.960 . S
C50 N51 1.342 1_545 S
C50 C54 1.401 . S
C50 C55 1.499 . S
N51 Co34 1.989 . S
N51 C50 1.342 1_565 S
N51 N52 1.388 . S
N52 Co35 1.991 1_554 S
N52 N51 1.388 . S
N52 C53 1.346 1_564 S
C53 N52 1.346 1_546 S
C53 C54 1.396 1_556 S
C53 C63 1.510 . S
C54 C50 1.401 . S
C54 C53 1.396 1_554 S
C55 C50 1.499 . S
C55 H56 0.959 . S
C55 H57 0.960 . S
C55 H58 0.961 . S
H56 C55 0.959 . S
H57 C55 0.960 . S
H58 C55 0.961 . S
O59 Co34 1.967 . S
O59 C67 1.258 . S
O60 Co35 1.938 1_554 S
O60 C67 1.266 . S
H61 C63 0.953 1_565 S
H62 C63 0.971 . S
C63 C53 1.510 . S
C63 H61 0.953 1_545 S
C63 H62 0.971 . S
C63 H64 0.956 1_545 S
H64 C63 0.956 1_565 S
H65 N45 0.862 . S
O66 Co34 1.920 . S
O66 C39 1.289 1_565 S
C67 O59 1.258 . S
C67 O60 1.266 . S
Co68 O71 1.970 . S
Co68 N85 1.989 . S
Co68 O93 1.967 . S
Co68 O100 1.920 . S
Co69 O72 1.966 . S
Co69 N78 2.022 . S
Co69 N86 1.993 . S
Co69 O94 1.941 . S
C70 O71 1.258 . S
C70 O72 1.263 . S
O71 Co68 1.970 . S
O71 C70 1.258 . S
O72 Co69 1.966 . S
O72 C70 1.263 . S
C73 O74 1.235 . S
C73 O100 1.289 . S
O74 C73 1.235 . S
C75 C77 1.400 . S
C75 N78 1.351 . S
C75 C80 1.501 . S
C76 C77 1.387 . S
C76 N79 1.341 . S
C77 C75 1.400 . S
C77 C76 1.387 . S
N78 Co69 2.022 . S
N78 C75 1.351 . S
N78 N79 1.365 . S
N79 C76 1.341 . S
N79 N78 1.365 . S
N79 H99 0.862 . S
C80 C75 1.501 . S
C80 H81 0.961 . S
C80 H82 0.961 . S
C80 H83 0.960 . S
H81 C80 0.961 . S
H82 C80 0.961 . S
H83 C80 0.960 . S
C84 N85 1.342 . S
C84 C88 1.401 . S
C84 C89 1.499 . S
N85 Co68 1.989 . S
N85 C84 1.342 . S
N85 N86 1.388 . S
N86 Co69 1.993 . S
N86 N85 1.388 . S
N86 C87 1.346 . S
C87 N86 1.346 . S
C87 C88 1.396 . S
C87 C97 1.510 . S
C88 C84 1.401 . S
C88 C87 1.396 . S
C89 C84 1.499 . S
C89 H90 0.959 . S
C89 H91 0.960 . S
C89 H92 0.961 1_455 S
H90 C89 0.959 . S
H91 C89 0.960 . S
H92 C89 0.961 1_655 S
O93 Co68 1.967 . S
O93 C101 1.258 . S
O94 Co69 1.941 . S
O94 C101 1.266 . S
H95 C97 0.959 . S
H96 C97 0.961 . S
C97 C87 1.510 . S
C97 H95 0.959 . S
C97 H96 0.961 . S
C97 H98 0.960 . S
H98 C97 0.960 . S
H99 N79 0.862 . S
O100 Co68 1.920 . S
O100 C73 1.289 . S
C101 O93 1.258 . S
C101 O94 1.266 . S
Co102 O105 1.970 . S
Co102 N119 1.989 . S
Co102 O127 1.967 . S
Co102 O134 1.920 . S
Co103 O106 1.966 . S
Co103 N112 2.022 . S
Co103 N120 1.993 . S
Co103 O128 1.941 . S
C104 O105 1.258 . S
C104 O106 1.263 . S
O105 Co102 1.970 . S
O105 C104 1.258 . S
O106 Co103 1.966 . S
O106 C104 1.263 . S
C107 O108 1.235 . S
C107 O134 1.289 . S
O108 C107 1.235 . S
C109 C111 1.400 . S
C109 N112 1.351 . S
C109 C114 1.501 . S
C110 C111 1.387 . S
C110 N113 1.341 . S
C111 C109 1.400 . S
C111 C110 1.387 . S
N112 Co103 2.022 . S
N112 C109 1.351 . S
N112 N113 1.365 . S
N113 C110 1.341 . S
N113 N112 1.365 . S
N113 H133 0.862 . S
C114 C109 1.501 . S
C114 H115 0.961 . S
C114 H116 0.961 . S
C114 H117 0.960 . S
H115 C114 0.961 . S
H116 C114 0.961 . S
H117 C114 0.960 . S
C118 N119 1.342 . S
C118 C122 1.401 . S
C118 C123 1.499 . S
N119 Co102 1.989 . S
N119 C118 1.342 . S
N119 N120 1.388 . S
N120 Co103 1.993 . S
N120 N119 1.388 . S
N120 C121 1.346 . S
C121 N120 1.346 . S
C121 C122 1.396 . S
C121 C131 1.510 . S
C122 C118 1.401 . S
C122 C121 1.396 . S
C123 C118 1.499 . S
C123 H124 0.959 . S
C123 H125 0.960 . S
C123 H126 0.961 . S
H124 C123 0.959 . S
H125 C123 0.960 . S
H126 C123 0.961 . S
O127 Co102 1.967 . S
O127 C135 1.258 . S
O128 Co103 1.941 . S
O128 C135 1.266 . S
H129 C131 0.959 . S
H130 C131 0.961 . S
C131 C121 1.510 . S
C131 H129 0.959 . S
C131 H130 0.961 . S
C131 H132 0.960 . S
H132 C131 0.960 . S
H133 N113 0.862 . S
O134 Co102 1.920 . S
O134 C107 1.289 . S
C135 O127 1.258 . S
C135 O128 1.266 . S
Co136 O139 1.970 1_554 S
Co136 N153 1.989 1_554 S
Co136 O161 1.967 . S
Co136 O168 1.920 . S
Co137 O140 1.966 1_565 S
Co137 N146 2.022 . S
Co137 N154 1.993 . S
Co137 O162 1.941 1_565 S
C138 O139 1.258 1_545 S
C138 O140 1.263 . S
O139 Co136 1.970 1_556 S
O139 C138 1.258 1_565 S
O140 Co137 1.966 1_545 S
O140 C138 1.263 . S
C141 O142 1.235 . S
C141 O168 1.289 . S
O142 C141 1.235 . S
C143 C145 1.400 . S
C143 N146 1.351 . S
C143 C148 1.501 1_565 S
C144 C145 1.387 . S
C144 N147 1.341 . S
C145 C143 1.400 . S
C145 C144 1.387 . S
N146 Co137 2.022 . S
N146 C143 1.351 . S
N146 N147 1.365 . S
N147 C144 1.341 . S
N147 N146 1.365 . S
N147 H167 0.862 . S
C148 C143 1.501 1_545 S
C148 H149 0.961 . S
C148 H150 0.961 1_545 S
C148 H151 0.960 . S
H149 C148 0.961 . S
H150 C148 0.961 1_565 S
H151 C148 0.960 . S
C152 N153 1.342 . S
C152 C156 1.401 . S
C152 C157 1.499 1_556 S
N153 Co136 1.989 1_556 S
N153 C152 1.342 . S
N153 N154 1.388 . S
N154 Co137 1.993 . S
N154 N153 1.388 . S
N154 C155 1.346 . S
C155 N154 1.346 . S
C155 C156 1.396 . S
C155 C165 1.510 . S
C156 C152 1.401 . S
C156 C155 1.396 . S
C157 C152 1.499 1_554 S
C157 H158 0.959 . S
C157 H159 0.960 . S
C157 H160 0.961 . S
H158 C157 0.959 . S
H159 C157 0.960 . S
H160 C157 0.961 . S
O161 Co136 1.967 . S
O161 C169 1.258 1_564 S
O162 Co137 1.941 1_545 S
O162 C169 1.266 . S
H163 C165 0.959 . S
H164 C165 0.961 . S
C165 C155 1.510 . S
C165 H163 0.959 . S
C165 H164 0.961 . S
C165 H166 0.960 . S
H166 C165 0.960 . S
H167 N147 0.862 . S
O168 Co136 1.920 . S
O168 C141 1.289 . S
C169 O161 1.258 1_546 S
C169 O162 1.266 . S
Co170 O173 1.970 . S
Co170 N187 1.989 . S
Co170 O195 1.967 . S
Co170 O202 1.920 . S
Co171 O174 1.966 1_554 S
Co171 N180 2.022 . S
Co171 N188 1.993 1_554 S
Co171 O196 1.941 1_554 S
C172 O173 1.258 . S
C172 O174 1.263 . S
O173 Co170 1.970 . S
O173 C172 1.258 . S
O174 Co171 1.966 1_556 S
O174 C172 1.263 . S
C175 O176 1.235 1_545 S
C175 O202 1.289 . S
O176 C175 1.235 1_565 S
C177 C179 1.400 . S
C177 N180 1.351 . S
C177 C182 1.501 . S
C178 C179 1.387 . S
C178 N181 1.341 . S
C179 C177 1.400 . S
C179 C178 1.387 . S
N180 Co171 2.022 . S
N180 C177 1.351 . S
N180 N181 1.365 . S
N181 C178 1.341 . S
N181 N180 1.365 . S
N181 H201 0.862 . S
C182 C177 1.501 . S
C182 H183 0.961 . S
C182 H184 0.961 . S
C182 H185 0.960 . S
H183 C182 0.961 . S
H184 C182 0.961 . S
H185 C182 0.960 . S
C186 N187 1.342 . S
C186 C190 1.401 . S
C186 C191 1.499 . S
N187 Co170 1.989 . S
N187 C186 1.342 . S
N187 N188 1.388 . S
N188 Co171 1.993 1_556 S
N188 N187 1.388 . S
N188 C189 1.346 1_556 S
C189 N188 1.346 1_554 S
C189 C190 1.396 1_554 S
C189 C199 1.510 . S
C190 C186 1.401 . S
C190 C189 1.396 1_556 S
C191 C186 1.499 . S
C191 H192 0.959 . S
C191 H193 0.960 1_545 S
C191 H194 0.961 . S
H192 C191 0.959 . S
H193 C191 0.960 1_565 S
H194 C191 0.961 . S
O195 Co170 1.967 . S
O195 C203 1.258 . S
O196 Co171 1.941 1_556 S
O196 C203 1.266 . S
H197 C199 0.959 . S
H198 C199 0.961 . S
C199 C189 1.510 . S
C199 H197 0.959 . S
C199 H198 0.961 . S
C199 H200 0.960 . S
H200 C199 0.960 . S
H201 N181 0.862 . S
O202 Co170 1.920 . S
O202 C175 1.289 . S
C203 O195 1.258 . S
C203 O196 1.266 . S
Co204 O207 1.970 . S
Co204 N221 1.989 . S
Co204 O229 1.967 . S
Co204 O236 1.920 . S
Co205 O208 1.966 . S
Co205 N214 2.022 . S
Co205 N222 1.993 . S
Co205 O230 1.941 . S
C206 O207 1.258 . S
C206 O208 1.263 . S
O207 Co204 1.970 . S
O207 C206 1.258 . S
O208 Co205 1.966 . S
O208 C206 1.263 . S
C209 O210 1.235 1_554 S
C209 O236 1.289 1_554 S
O210 C209 1.235 1_556 S
C211 C213 1.400 . S
C211 N214 1.351 . S
C211 C216 1.501 . S
C212 C213 1.387 . S
C212 N215 1.341 . S
C213 C211 1.400 . S
C213 C212 1.387 . S
N214 Co205 2.022 . S
N214 C211 1.351 . S
N214 N215 1.365 . S
N215 C212 1.341 . S
N215 N214 1.365 . S
N215 H235 0.862 . S
C216 C211 1.501 . S
C216 H217 0.961 . S
C216 H218 0.961 . S
C216 H219 0.960 . S
H217 C216 0.961 . S
H218 C216 0.961 . S
H219 C216 0.960 . S
C220 N221 1.342 . S
C220 C224 1.401 . S
C220 C225 1.499 . S
N221 Co204 1.989 . S
N221 C220 1.342 . S
N221 N222 1.388 . S
N222 Co205 1.993 . S
N222 N221 1.388 . S
N222 C223 1.346 . S
C223 N222 1.346 . S
C223 C224 1.396 . S
C223 C233 1.510 . S
C224 C220 1.401 . S
C224 C223 1.396 . S
C225 C220 1.499 . S
C225 H226 0.959 . S
C225 H227 0.960 . S
C225 H228 0.961 1_655 S
H226 C225 0.959 . S
H227 C225 0.960 . S
H228 C225 0.961 1_455 S
O229 Co204 1.967 . S
O229 C237 1.258 . S
O230 Co205 1.941 . S
O230 C237 1.266 . S
H231 C233 0.959 . S
H232 C233 0.961 . S
C233 C223 1.510 . S
C233 H231 0.959 . S
C233 H232 0.961 . S
C233 H234 0.960 . S
H234 C233 0.960 . S
H235 N215 0.862 . S
O236 Co204 1.920 . S
O236 C209 1.289 1_556 S
C237 O229 1.258 . S
C237 O230 1.266 . S
Co238 O241 1.970 . S
Co238 N255 1.989 . S
Co238 O263 1.967 . S
Co238 O270 1.920 . S
Co239 O242 1.966 . S
Co239 N248 2.022 . S
Co239 N256 1.993 . S
Co239 O264 1.941 . S
C240 O241 1.258 . S
C240 O242 1.263 . S
O241 Co238 1.970 . S
O241 C240 1.258 . S
O242 Co239 1.966 . S
O242 C240 1.263 . S
C243 O244 1.235 . S
C243 O270 1.289 . S
O244 C243 1.235 . S
C245 C247 1.400 . S
C245 N248 1.351 . S
C245 C250 1.501 . S
C246 C247 1.387 . S
C246 N249 1.341 . S
C247 C245 1.400 . S
C247 C246 1.387 . S
N248 Co239 2.022 . S
N248 C245 1.351 . S
N248 N249 1.365 . S
N249 C246 1.341 . S
N249 N248 1.365 . S
N249 H269 0.862 . S
C250 C245 1.501 . S
C250 H251 0.961 . S
C250 H252 0.961 . S
C250 H253 0.960 . S
H251 C250 0.961 . S
H252 C250 0.961 . S
H253 C250 0.960 . S
C254 N255 1.342 . S
C254 C258 1.401 . S
C254 C259 1.499 . S
N255 Co238 1.989 . S
N255 C254 1.342 . S
N255 N256 1.388 . S
N256 Co239 1.993 . S
N256 N255 1.388 . S
N256 C257 1.346 . S
C257 N256 1.346 . S
C257 C258 1.396 . S
C257 C267 1.510 . S
C258 C254 1.401 . S
C258 C257 1.396 . S
C259 C254 1.499 . S
C259 H260 0.959 . S
C259 H261 0.960 . S
C259 H262 0.961 . S
H260 C259 0.959 . S
H261 C259 0.960 . S
H262 C259 0.961 . S
O263 Co238 1.967 . S
O263 C271 1.258 . S
O264 Co239 1.941 . S
O264 C271 1.266 . S
H265 C267 0.959 . S
H266 C267 0.961 . S
C267 C257 1.510 . S
C267 H265 0.959 . S
C267 H266 0.961 . S
C267 H268 0.960 . S
H268 C267 0.960 . S
H269 N249 0.862 . S
O270 Co238 1.920 . S
O270 C243 1.289 . S
C271 O263 1.258 . S
C271 O264 1.266 . S
C36 C2 1.941 1_565 S
C70 C104 1.606 . S
C172 C138 1.898 . S
C206 C240 1.120 . S
C169 C20 2.389 1_546 S
C54 C190 2.071 1_554 S
C88 C224 1.996 1_455 S
C122 C258 2.051 . S
C9 C5 2.274 1_545 S
C39 C43 2.039 1_545 S
C77 C73 2.227 1_556 S
C107 C111 2.030 1_554 S
C141 C145 2.175 . S
C175 C179 2.193 . S
C213 C209 1.966 . S
C247 C243 2.259 1_554 S
C33 C101 1.976 . S
C67 C135 2.123 . S
C156 C237 1.882 . S
C203 C271 1.977 . S
