# Generated by pormake.
# Topology acs-a, (4)-cn, num edge types: 1
# Building blocks:
#     Node 0, Type 0, BuildingBlock: CEKHIL_clean_sbu_0, # of connection points: 4
#     Node 1, Type 0, BuildingBlock: CEKHIL_clean_sbu_0, # of connection points: 4
#     Node 2, Type 0, BuildingBlock: CEKHIL_clean_sbu_0, # of connection points: 4
#     Node 3, Type 0, BuildingBlock: CEKHIL_clean_sbu_0, # of connection points: 4
#     Node 4, Type 0, BuildingBlock: CEKHIL_clean_sbu_0, # of connection points: 4
#     Node 5, Type 0, BuildingBlock: CEKHIL_clean_sbu_0, # of connection points: 4
#     Node 6, Type 0, BuildingBlock: CEKHIL_clean_sbu_0, # of connection points: 4
#     Node 7, Type 0, BuildingBlock: CEKHIL_clean_sbu_0, # of connection points: 4
#     Node 8, Type 0, BuildingBlock: CEKHIL_clean_sbu_0, # of connection points: 4
#     Node 9, Type 0, BuildingBlock: CEKHIL_clean_sbu_0, # of connection points: 4
#     Node 10, Type 0, BuildingBlock: CEKHIL_clean_sbu_0, # of connection points: 4
#     Node 11, Type 0, BuildingBlock: CEKHIL_clean_sbu_0, # of connection points: 4
#     Edge 12, Type (0, 0), BuildingBlock: KIFKEQ_clean_linker_1, # of connection points: 2
#     Edge 13, Type (0, 0), BuildingBlock: KIFKEQ_clean_linker_1, # of connection points: 2
#     Edge 14, Type (0, 0), BuildingBlock: KIFKEQ_clean_linker_1, # of connection points: 2
#     Edge 15, Type (0, 0), BuildingBlock: KIFKEQ_clean_linker_1, # of connection points: 2
#     Edge 16, Type (0, 0), BuildingBlock: KIFKEQ_clean_linker_1, # of connection points: 2
#     Edge 17, Type (0, 0), BuildingBlock: KIFKEQ_clean_linker_1, # of connection points: 2
#     Edge 18, Type (0, 0), BuildingBlock: KIFKEQ_clean_linker_1, # of connection points: 2
#     Edge 19, Type (0, 0), BuildingBlock: KIFKEQ_clean_linker_1, # of connection points: 2
#     Edge 20, Type (0, 0), BuildingBlock: KIFKEQ_clean_linker_1, # of connection points: 2
#     Edge 21, Type (0, 0), BuildingBlock: KIFKEQ_clean_linker_1, # of connection points: 2
#     Edge 22, Type (0, 0), BuildingBlock: KIFKEQ_clean_linker_1, # of connection points: 2
#     Edge 23, Type (0, 0), BuildingBlock: KIFKEQ_clean_linker_1, # of connection points: 2
#     Edge 24, Type (0, 0), BuildingBlock: KIFKEQ_clean_linker_1, # of connection points: 2
#     Edge 25, Type (0, 0), BuildingBlock: KIFKEQ_clean_linker_1, # of connection points: 2
#     Edge 26, Type (0, 0), BuildingBlock: KIFKEQ_clean_linker_1, # of connection points: 2
#     Edge 27, Type (0, 0), BuildingBlock: KIFKEQ_clean_linker_1, # of connection points: 2
#     Edge 28, Type (0, 0), BuildingBlock: KIFKEQ_clean_linker_1, # of connection points: 2
#     Edge 29, Type (0, 0), BuildingBlock: KIFKEQ_clean_linker_1, # of connection points: 2
#     Edge 30, Type (0, 0), BuildingBlock: KIFKEQ_clean_linker_1, # of connection points: 2
#     Edge 31, Type (0, 0), BuildingBlock: KIFKEQ_clean_linker_1, # of connection points: 2
#     Edge 32, Type (0, 0), BuildingBlock: KIFKEQ_clean_linker_1, # of connection points: 2
#     Edge 33, Type (0, 0), BuildingBlock: KIFKEQ_clean_linker_1, # of connection points: 2
#     Edge 34, Type (0, 0), BuildingBlock: KIFKEQ_clean_linker_1, # of connection points: 2
#     Edge 35, Type (0, 0), BuildingBlock: KIFKEQ_clean_linker_1, # of connection points: 2
# Relax obj value: 0.518
# Max RMSD: 0.260
# Mean RMSD: 0.235
data_MOF--net-acs-a--node1-CEKHIL_clean_sbu_0--edge1-KIFKEQ_clean_linker_1
_symmetry_space_group_name_H-M    P1
_symmetry_Int_Tables_number       1
_symmetry_cell_setting            triclinic
loop_
_symmetry_equiv_pos_as_xyz
'x, y, z'
_cell_length_a     49.266225
_cell_length_b     49.237402
_cell_length_c     38.176109
_cell_angle_alpha  90.016454
_cell_angle_beta   89.981256
_cell_angle_gamma 114.07816
loop_
_atom_site_label
_atom_site_type_symbol
_atom_site_fract_x
_atom_site_fract_y
_atom_site_fract_z
_atom_type_partial_charge
Co0 Co 0.63898 0.13781 0.04295 0.0
O1 O 0.63512 0.09742 0.03543 0.0
O2 O 0.59848 0.11256 0.03375 0.0
C3 C 0.67923 0.16252 0.0093 0.0
O4 O 0.63225 0.17539 0.04607 0.0
Co5 Co 0.69195 0.18939 0.0769 0.0
O6 O 0.67337 0.21579 0.0584 0.0
C7 C 0.65009 0.14123 0.12126 0.0
C8 C 0.60697 0.09103 0.03051 0.0
C9 C 0.64633 0.20365 0.04856 0.0
O10 O 0.63241 0.13066 0.09506 0.0
O11 O 0.67583 0.16265 0.11842 0.0
O12 O 0.65317 0.14891 0.99498 0.0
O13 O 0.68049 0.15766 0.04235 0.0
Co14 Co 0.46022 0.62812 0.55863 0.0
O15 O 0.50008 0.63148 0.55091 0.0
O16 O 0.45877 0.59422 0.53288 0.0
C17 C 0.46572 0.67425 0.54405 0.0
O18 O 0.41596 0.61712 0.55989 0.0
Co19 Co 0.44603 0.66498 0.61614 0.0
O20 O 0.40657 0.65039 0.5924 0.0
C21 C 0.45897 0.6141 0.63638 0.0
C22 C 0.4876 0.60609 0.53477 0.0
C23 C 0.39836 0.62852 0.57113 0.0
O24 O 0.45768 0.60629 0.60408 0.0
O25 O 0.45796 0.63844 0.64645 0.0
O26 O 0.46329 0.65489 0.51971 0.0
O27 O 0.46994 0.66664 0.57528 0.0
Co28 Co 0.84211 0.4276 0.06801 0.0
O29 O 0.87293 0.46627 0.07651 0.0
O30 O 0.87909 0.42965 0.04868 0.0
C31 C 0.80833 0.44391 0.04873 0.0
O32 O 0.81515 0.38533 0.05256 0.0
Co33 Co 0.78168 0.40565 0.10729 0.0
O34 O 0.76836 0.37603 0.06886 0.0
C35 C 0.83434 0.40339 0.14242 0.0
C36 C 0.8904 0.45713 0.05947 0.0
C37 C 0.78687 0.36958 0.05118 0.0
O38 O 0.85037 0.41287 0.11468 0.0
O39 O 0.80736 0.40041 0.14489 0.0
O40 O 0.82836 0.44272 0.02742 0.0
O41 O 0.81097 0.43775 0.08102 0.0
Co42 Co 0.3531 0.85775 0.53794 0.0
O43 O 0.35833 0.89785 0.52644 0.0
O44 O 0.3936 0.88075 0.52556 0.0
C45 C 0.31133 0.83164 0.50763 0.0
O46 O 0.35751 0.81918 0.54494 0.0
Co47 Co 0.29989 0.8125 0.57937 0.0
O48 O 0.31676 0.78301 0.56764 0.0
C49 C 0.34532 0.8631 0.6162 0.0
C50 C 0.38601 0.90275 0.52058 0.0
C51 C 0.34255 0.79206 0.55395 0.0
O52 O 0.36223 0.86898 0.58899 0.0
O53 O 0.31845 0.84359 0.61623 0.0
O54 O 0.33681 0.84343 0.49158 0.0
O55 O 0.31151 0.83977 0.53983 0.0
Co56 Co 0.53339 0.36766 0.06266 0.0
O57 O 0.49376 0.36529 0.0563 0.0
O58 O 0.53551 0.40507 0.04588 0.0
C59 C 0.52826 0.32491 0.03684 0.0
O60 O 0.57761 0.37853 0.06405 0.0
Co61 Co 0.5463 0.32226 0.10833 0.0
O62 O 0.58589 0.33998 0.08497 0.0
C63 C 0.53324 0.36908 0.14255 0.0
C64 C 0.50664 0.3928 0.04596 0.0
C65 C 0.59474 0.36515 0.06968 0.0
O66 O 0.53396 0.38132 0.1126 0.0
O67 O 0.53499 0.34399 0.1461 0.0
O68 O 0.53203 0.3481 0.01785 0.0
O69 O 0.52317 0.32713 0.06969 0.0
Co70 Co 0.14703 0.56476 0.57142 0.0
O71 O 0.11656 0.52546 0.57742 0.0
O72 O 0.11081 0.5623 0.54961 0.0
C73 C 0.18275 0.5504 0.55415 0.0
O74 O 0.17372 0.60764 0.55817 0.0
Co75 Co 0.20537 0.58723 0.61494 0.0
O76 O 0.21991 0.61763 0.57743 0.0
C77 C 0.1504 0.58743 0.64619 0.0
C78 C 0.09961 0.53454 0.55925 0.0
C79 C 0.20189 0.62392 0.55863 0.0
O80 O 0.13585 0.57791 0.61749 0.0
O81 O 0.17749 0.59129 0.65056 0.0
O82 O 0.16337 0.55136 0.5317 0.0
O83 O 0.17824 0.55537 0.58634 0.0
Co84 Co 0.85549 0.35376 0.45851 0.0
O85 O 0.89568 0.3574 0.46687 0.0
O86 O 0.8807 0.39418 0.46818 0.0
C87 C 0.83012 0.31341 0.4917 0.0
O88 O 0.81811 0.3607 0.45455 0.0
Co89 Co 0.80437 0.3011 0.42344 0.0
O90 O 0.77783 0.31962 0.44174 0.0
C91 C 0.85348 0.3429 0.38021 0.0
C92 C 0.90209 0.38557 0.47187 0.0
C93 C 0.78989 0.34664 0.45172 0.0
O94 O 0.86349 0.36055 0.40656 0.0
O95 O 0.83199 0.31716 0.3826 0.0
O96 O 0.84365 0.3394 0.50624 0.0
O97 O 0.83548 0.31224 0.45876 0.0
Co98 Co 0.4281 0.84745 0.92596 0.0
O99 O 0.4673 0.87827 0.92062 0.0
O100 O 0.4305 0.88289 0.94983 0.0
C101 C 0.44283 0.81138 0.94055 0.0
O102 O 0.38533 0.82014 0.93897 0.0
Co103 Co 0.40558 0.7905 0.87985 0.0
O104 O 0.37567 0.77457 0.91771 0.0
C105 C 0.40595 0.8466 0.8514 0.0
C106 C 0.45822 0.89454 0.94004 0.0
C107 C 0.36934 0.7919 0.93768 0.0
O108 O 0.41482 0.86007 0.88088 0.0
O109 O 0.40228 0.81972 0.8456 0.0
O110 O 0.44178 0.82986 0.96424 0.0
O111 O 0.43757 0.8169 0.90886 0.0
Co112 Co 0.62359 0.45753 0.44245 0.0
O113 O 0.62713 0.49775 0.44658 0.0
O114 O 0.58726 0.45723 0.46078 0.0
C115 C 0.66727 0.46322 0.46612 0.0
O116 O 0.61194 0.41309 0.4437 0.0
Co117 Co 0.66651 0.44168 0.3956 0.0
O118 O 0.64921 0.40326 0.42151 0.0
C119 C 0.61901 0.45444 0.36281 0.0
C120 C 0.60006 0.48606 0.45849 0.0
C121 C 0.62477 0.39542 0.43824 0.0
O122 O 0.60785 0.45486 0.39317 0.0
O123 O 0.64382 0.45229 0.35841 0.0
O124 O 0.64507 0.46063 0.4863 0.0
O125 O 0.66356 0.46671 0.43322 0.0
Co126 Co 0.13449 0.63856 0.95844 0.0
O127 O 0.09512 0.63493 0.97153 0.0
O128 O 0.11016 0.59819 0.9698 0.0
C129 C 0.16234 0.67927 0.98977 0.0
O130 O 0.17147 0.63181 0.94928 0.0
Co131 Co 0.18223 0.69121 0.9189 0.0
O132 O 0.21019 0.67264 0.93172 0.0
C133 C 0.13033 0.64828 0.88054 0.0
C134 C 0.0891 0.60682 0.97625 0.0
C135 C 0.19913 0.64572 0.94215 0.0
O136 O 0.1225 0.63109 0.90751 0.0
O137 O 0.15162 0.67425 0.88108 0.0
O138 O 0.15005 0.65344 0.00498 0.0
O139 O 0.15431 0.68011 0.95775 0.0
Co140 Co 0.5645 0.15099 0.4343 0.0
O141 O 0.52619 0.11987 0.42523 0.0
O142 O 0.56349 0.11365 0.45127 0.0
C143 C 0.54741 0.18334 0.4564 0.0
O144 O 0.60663 0.17821 0.44979 0.0
Co145 Co 0.58469 0.21255 0.39792 0.0
O146 O 0.61486 0.22524 0.43575 0.0
C147 C 0.58776 0.16163 0.3594 0.0
C148 C 0.53597 0.10218 0.4407 0.0
C149 C 0.62197 0.20652 0.45207 0.0
O150 O 0.5791 0.14477 0.38661 0.0
O151 O 0.58991 0.18842 0.35842 0.0
O152 O 0.5493 0.16281 0.47632 0.0
O153 O 0.55336 0.18196 0.42373 0.0
Co154 Co 0.36967 0.53427 0.9339 0.0
O155 O 0.36644 0.49485 0.94407 0.0
O156 O 0.40554 0.53682 0.95596 0.0
C157 C 0.32535 0.53019 0.95374 0.0
O158 O 0.38077 0.57839 0.92908 0.0
Co159 Co 0.3278 0.54487 0.88004 0.0
O160 O 0.34391 0.58541 0.90131 0.0
C161 C 0.37651 0.53018 0.85505 0.0
C162 C 0.39305 0.50794 0.95707 0.0
C163 C 0.36786 0.59507 0.91921 0.0
O164 O 0.38703 0.53324 0.88632 0.0
O165 O 0.35151 0.53092 0.84754 0.0
O166 O 0.34693 0.53447 0.97563 0.0
O167 O 0.32991 0.5238 0.92206 0.0
H168 H 0.63468 0.19295 0.31875 0.0
H169 H 0.56234 0.10629 0.32851 0.0
H170 H 0.64894 0.17841 0.26334 0.0
H171 H 0.57648 0.09167 0.27181 0.0
H172 H 0.59259 0.11593 0.14547 0.0
H173 H 0.57708 0.11273 0.20688 0.0
H174 H 0.66836 0.14097 0.23959 0.0
H175 H 0.68391 0.14437 0.17865 0.0
C176 C 0.622 0.17061 0.3091 0.0
C177 C 0.59737 0.15077 0.32777 0.0
C178 C 0.6303 0.1622 0.27749 0.0
C179 C 0.61392 0.13384 0.26339 0.0
C180 C 0.5895 0.11362 0.28225 0.0
C181 C 0.58152 0.12191 0.31459 0.0
C182 C 0.60919 0.12041 0.16581 0.0
C183 C 0.63955 0.13108 0.15723 0.0
C184 C 0.60028 0.1185 0.20095 0.0
C185 C 0.62162 0.12712 0.22785 0.0
C186 C 0.65153 0.13462 0.21929 0.0
C187 C 0.66041 0.13661 0.18438 0.0
H188 H 0.4969 0.61688 0.68967 0.0
H189 H 0.41174 0.56239 0.64492 0.0
H190 H 0.48424 0.58626 0.74236 0.0
H191 H 0.39729 0.53388 0.69826 0.0
H192 H 0.36463 0.49367 0.79804 0.0
H193 H 0.39258 0.50431 0.74341 0.0
H194 H 0.45855 0.58415 0.79046 0.0
H195 H 0.43221 0.57121 0.84535 0.0
C196 C 0.47564 0.59791 0.69106 0.0
C197 C 0.45521 0.59185 0.66358 0.0
C198 C 0.46801 0.58059 0.72151 0.0
C199 C 0.43913 0.55802 0.7258 0.0
C200 C 0.41979 0.55067 0.69668 0.0
C201 C 0.42795 0.56717 0.6658 0.0
C202 C 0.38579 0.51277 0.79673 0.0
C203 C 0.39627 0.53176 0.82558 0.0
C204 C 0.40168 0.5193 0.76523 0.0
C205 C 0.42747 0.54593 0.7614 0.0
C206 C 0.43907 0.56339 0.7916 0.0
C207 C 0.42384 0.5561 0.82341 0.0
H208 H 0.8068 0.35305 0.17898 0.0
H209 H 0.88834 0.43239 0.17514 0.0
H210 H 0.82167 0.33931 0.23443 0.0
H211 H 0.90342 0.41872 0.23177 0.0
H212 H 0.87699 0.40024 0.35562 0.0
H213 H 0.8814 0.41524 0.29403 0.0
H214 H 0.859 0.32437 0.26271 0.0
H215 H 0.85404 0.30931 0.32394 0.0
C216 C 0.82824 0.36728 0.18984 0.0
C217 C 0.84641 0.39377 0.17297 0.0
C218 C 0.8369 0.35932 0.2215 0.0
C219 C 0.86381 0.37787 0.23743 0.0
C220 C 0.8826 0.40401 0.22001 0.0
C221 C 0.8741 0.41173 0.18767 0.0
C222 C 0.87403 0.38368 0.33559 0.0
C223 C 0.86449 0.35349 0.34454 0.0
C224 C 0.87665 0.39229 0.30031 0.0
C225 C 0.86994 0.37085 0.2736 0.0
C226 C 0.86374 0.34127 0.28276 0.0
C227 C 0.8609 0.33266 0.31783 0.0
H228 H 0.44156 0.89611 0.81462 0.0
H229 H 0.35199 0.82906 0.8225 0.0
H230 H 0.42925 0.91231 0.75807 0.0
H231 H 0.33956 0.84483 0.76682 0.0
H232 H 0.31631 0.87456 0.67102 0.0
H233 H 0.33283 0.88248 0.73176 0.0
H234 H 0.41885 0.88722 0.70013 0.0
H235 H 0.40255 0.88025 0.63913 0.0
C236 C 0.41902 0.88563 0.80479 0.0
C237 C 0.3976 0.86151 0.8227 0.0
C238 C 0.41202 0.89467 0.7724 0.0
C239 C 0.38343 0.87988 0.75787 0.0
C240 C 0.36163 0.85711 0.77733 0.0
C241 C 0.36872 0.84793 0.80922 0.0
C242 C 0.33907 0.87827 0.67692 0.0
C243 C 0.35796 0.87619 0.65047 0.0
C244 C 0.34851 0.88273 0.71173 0.0
C245 C 0.37689 0.88471 0.72091 0.0
C246 C 0.39686 0.88582 0.69399 0.0
C247 C 0.3875 0.88173 0.65899 0.0
H248 H 0.63866 0.47165 0.29642 0.0
H249 H 0.55844 0.43132 0.35787 0.0
H250 H 0.60953 0.45661 0.24287 0.0
H251 H 0.52921 0.41599 0.30401 0.0
H252 H 0.51707 0.3478 0.20875 0.0
H253 H 0.53153 0.37615 0.26292 0.0
H254 H 0.56828 0.45784 0.20364 0.0
H255 H 0.55364 0.42945 0.14919 0.0
C256 C 0.61469 0.46035 0.29844 0.0
C257 C 0.60087 0.45229 0.33128 0.0
C258 C 0.59796 0.45192 0.26776 0.0
C259 C 0.56712 0.4349 0.26931 0.0
C260 C 0.55297 0.42897 0.30213 0.0
C261 C 0.5697 0.43785 0.33291 0.0
C262 C 0.52739 0.37186 0.20727 0.0
C263 C 0.53468 0.38635 0.17471 0.0
C264 C 0.53547 0.38813 0.23834 0.0
C265 C 0.55132 0.41918 0.23744 0.0
C266 C 0.55626 0.4339 0.205 0.0
C267 C 0.54778 0.41763 0.17387 0.0
H268 H 0.09745 0.55507 0.67941 0.0
H269 H 0.17306 0.6398 0.67952 0.0
H270 H 0.0805 0.56819 0.73516 0.0
H271 H 0.15639 0.65302 0.73414 0.0
H272 H 0.124 0.6798 0.825 0.0
H273 H 0.11769 0.66391 0.764 0.0
H274 H 0.10308 0.57494 0.79616 0.0
H275 H 0.10864 0.5907 0.85741 0.0
C276 C 0.10987 0.57677 0.69087 0.0
C277 C 0.13653 0.59647 0.67548 0.0
C278 C 0.10032 0.58421 0.72272 0.0
C279 C 0.11702 0.61168 0.73899 0.0
C280 C 0.14267 0.63191 0.72213 0.0
C281 C 0.15239 0.6243 0.69094 0.0
C282 C 0.11839 0.65659 0.81914 0.0
C283 C 0.11745 0.63663 0.84587 0.0
C284 C 0.11482 0.64751 0.7842 0.0
C285 C 0.11066 0.61838 0.77525 0.0
C286 C 0.10626 0.59753 0.80221 0.0
C287 C 0.10952 0.60658 0.83734 0.0
H288 H 0.54794 0.07403 0.01976 0.0
H289 H 0.61671 0.04082 0.01731 0.0
H290 H 0.51212 0.02676 0.99819 0.0
H291 H 0.58027 0.99269 0.99647 0.0
H292 H 0.51576 0.92523 0.91988 0.0
H293 H 0.55183 0.97187 0.94375 0.0
H294 H 0.48484 0.97586 0.0142 0.0
H295 H 0.44855 0.92962 0.98958 0.0
C296 C 0.55537 0.05646 0.01501 0.0
C297 C 0.58524 0.0612 0.0201 0.0
C298 C 0.5347 0.02923 0.00281 0.0
C299 C 0.54329 0.00593 0.99555 0.0
C300 C 0.57305 0.01038 0.00137 0.0
C301 C 0.59387 0.03781 0.01354 0.0
C302 C 0.50868 0.9362 0.94028 0.0
C303 C 0.47929 0.92386 0.95276 0.0
C304 C 0.52945 0.96275 0.95423 0.0
C305 C 0.5213 0.97748 0.98107 0.0
C306 C 0.49178 0.96524 0.99329 0.0
C307 C 0.47096 0.93875 0.97919 0.0
H308 H 0.46732 0.55547 0.49584 0.0
H309 H 0.54726 0.62144 0.54166 0.0
H310 H 0.49524 0.52761 0.47551 0.0
H311 H 0.57514 0.5931 0.52195 0.0
H312 H 0.54458 0.4675 0.48635 0.0
H313 H 0.51825 0.49789 0.50307 0.0
H314 H 0.59319 0.57688 0.46949 0.0
H315 H 0.6199 0.54643 0.45342 0.0
C316 C 0.49089 0.56405 0.50151 0.0
C317 C 0.50511 0.59052 0.52052 0.0
C318 C 0.50684 0.548 0.49003 0.0
C319 C 0.5373 0.55801 0.49747 0.0
C320 C 0.55173 0.58496 0.51561 0.0
C321 C 0.53576 0.60111 0.52701 0.0
C322 C 0.55546 0.49134 0.48253 0.0
C323 C 0.58428 0.50461 0.4686 0.0
C324 C 0.5403 0.50874 0.49189 0.0
C325 C 0.5536 0.53975 0.48739 0.0
C326 C 0.58249 0.55306 0.47354 0.0
C327 C 0.59771 0.53562 0.46422 0.0
H328 H 0.07411 0.5488 0.99204 0.0
H329 H 0.03854 0.6158 0.9894 0.0
H330 H 0.02704 0.51262 0.01389 0.0
H331 H 0.99075 0.57905 0.01055 0.0
H332 H 0.92 0.51407 0.0823 0.0
H333 H 0.96816 0.55044 0.06267 0.0
H334 H 0.97699 0.48438 0.99454 0.0
H335 H 0.92912 0.44778 0.01488 0.0
C336 C 0.05613 0.55578 0.99591 0.0
C337 C 0.06002 0.58519 0.98896 0.0
C338 C 0.02906 0.53492 0.00828 0.0
C339 C 0.00511 0.54288 0.01386 0.0
C340 C 0.00893 0.57232 0.00691 0.0
C341 C 0.03619 0.59332 0.9946 0.0
C342 C 0.93238 0.50722 0.0634 0.0
C343 C 0.92082 0.47806 0.05012 0.0
C344 C 0.95984 0.52816 0.0519 0.0
C345 C 0.97629 0.52041 0.02681 0.0
C346 C 0.965 0.49101 0.01415 0.0
C347 C 0.93757 0.47002 0.02577 0.0
H348 H 0.546 0.06263 0.48338 0.0
H349 H 0.47956 0.07222 0.41676 0.0
H350 H 0.50969 0.01408 0.50252 0.0
H351 H 0.44354 0.02354 0.43522 0.0
H352 H 0.37834 0.95406 0.50883 0.0
H353 H 0.41554 0.0016 0.48796 0.0
H354 H 0.48066 0.96377 0.48282 0.0
H355 H 0.44388 0.91672 0.50438 0.0
C356 C 0.52382 0.05413 0.47236 0.0
C357 C 0.51557 0.07126 0.44874 0.0
C358 C 0.50301 0.02634 0.4833 0.0
C359 C 0.47362 0.01514 0.47069 0.0
C360 C 0.4658 0.03183 0.44601 0.0
C361 C 0.48653 0.0596 0.43519 0.0
C362 C 0.40061 0.95599 0.5033 0.0
C363 C 0.40818 0.93171 0.50826 0.0
C364 C 0.42187 0.98311 0.49113 0.0
C365 C 0.45104 0.9864 0.48364 0.0
C366 C 0.45852 0.96208 0.48873 0.0
C367 C 0.43735 0.93506 0.50094 0.0
H368 H 0.37634 0.44792 0.95436 0.0
H369 H 0.44492 0.52931 0.99366 0.0
H370 H 0.4034 0.41988 0.97713 0.0
H371 H 0.47147 0.50124 0.01743 0.0
H372 H 0.52784 0.44757 0.01593 0.0
H373 H 0.49958 0.47501 0.99562 0.0
H374 H 0.41825 0.4037 0.03069 0.0
H375 H 0.44658 0.37573 0.05006 0.0
C376 C 0.39704 0.45976 0.96818 0.0
C377 C 0.40865 0.49078 0.97207 0.0
C378 C 0.41245 0.44369 0.9814 0.0
C379 C 0.43963 0.45836 0.99897 0.0
C380 C 0.45086 0.48935 0.00346 0.0
C381 C 0.43559 0.50542 0.99001 0.0
C382 C 0.50393 0.43776 0.01937 0.0
C383 C 0.48937 0.40951 0.03451 0.0
C384 C 0.48775 0.45358 0.00794 0.0
C385 C 0.45668 0.44158 0.01166 0.0
C386 C 0.44213 0.41337 0.02706 0.0
C387 C 0.45834 0.39743 0.0383 0.0
H388 H 0.91863 0.44427 0.48465 0.0
H389 H 0.95252 0.37596 0.48392 0.0
H390 H 0.96596 0.48007 0.506 0.0
H391 H 0.00072 0.41243 0.50451 0.0
H392 H 0.06971 0.47689 0.5796 0.0
H393 H 0.02257 0.44068 0.55706 0.0
H394 H 0.01633 0.50776 0.48851 0.0
H395 H 0.06305 0.54418 0.51183 0.0
C396 C 0.93634 0.43694 0.48869 0.0
C397 C 0.93182 0.40722 0.48268 0.0
C398 C 0.9636 0.4576 0.50076 0.0
C399 C 0.98714 0.44916 0.50695 0.0
C400 C 0.98284 0.41952 0.50042 0.0
C401 C 0.95537 0.39869 0.4884 0.0
C402 C 0.05812 0.48396 0.55993 0.0
C403 C 0.06997 0.5134 0.54758 0.0
C404 C 0.03128 0.46311 0.54674 0.0
C405 C 0.0158 0.47125 0.52081 0.0
C406 C 0.02754 0.50083 0.50876 0.0
C407 C 0.0543 0.52173 0.52211 0.0
H408 H 0.58927 0.18342 0.0255 0.0
H409 H 0.6653 0.26482 0.05019 0.0
H410 H 0.5599 0.21152 0.01369 0.0
H411 H 0.63531 0.29312 0.03796 0.0
H412 H 0.57455 0.33481 0.99199 0.0
H413 H 0.60463 0.30563 0.98906 0.0
H414 H 0.54181 0.23945 0.05677 0.0
H415 H 0.51228 0.26879 0.06027 0.0
C416 C 0.59989 0.20738 0.02831 0.0
C417 C 0.62963 0.22181 0.03953 0.0
C418 C 0.58294 0.22343 0.02137 0.0
C419 C 0.59522 0.25439 0.02522 0.0
C420 C 0.62534 0.2692 0.03472 0.0
C421 C 0.64242 0.25301 0.04196 0.0
C422 C 0.56664 0.31347 0.00513 0.0
C423 C 0.54099 0.30384 0.0262 0.0
C424 C 0.5841 0.29708 0.00389 0.0
C425 C 0.57564 0.27048 0.02291 0.0
C426 C 0.54878 0.25983 0.04171 0.0
C427 C 0.53176 0.27647 0.04356 0.0
H428 H 0.35989 0.65544 0.56542 0.0
H429 H 0.36675 0.57147 0.55 0.0
H430 H 0.30717 0.63197 0.54969 0.0
H431 H 0.31397 0.54806 0.53486 0.0
H432 H 0.21607 0.52549 0.58519 0.0
H433 H 0.26985 0.54219 0.57963 0.0
H434 H 0.27068 0.60186 0.49639 0.0
H435 H 0.21651 0.5842 0.50107 0.0
C436 C 0.35017 0.63207 0.55844 0.0
C437 C 0.3672 0.61513 0.5594 0.0
C438 C 0.32021 0.61878 0.54901 0.0
C439 C 0.30678 0.58831 0.54095 0.0
C440 C 0.324 0.57162 0.54081 0.0
C441 C 0.35407 0.58501 0.54958 0.0
C442 C 0.22763 0.54113 0.56465 0.0
C443 C 0.2124 0.5535 0.54345 0.0
C444 C 0.2583 0.55072 0.5615 0.0
C445 C 0.27421 0.57339 0.53775 0.0
C446 C 0.25873 0.5843 0.51482 0.0
C447 C 0.22784 0.57403 0.51729 0.0
H448 H 0.72937 0.33725 0.03176 0.0
H449 H 0.81751 0.33896 0.02295 0.0
H450 H 0.7084 0.28802 0.00605 0.0
H451 H 0.79639 0.2895 0.99629 0.0
H452 H 0.67047 0.20032 0.96244 0.0
H453 H 0.70136 0.2536 0.95867 0.0
H454 H 0.76815 0.24181 0.02257 0.0
H455 H 0.73762 0.18882 0.02561 0.0
C456 C 0.74438 0.32732 0.02376 0.0
C457 C 0.77508 0.34177 0.03026 0.0
C458 C 0.73234 0.29913 0.00849 0.0
C459 C 0.75065 0.28457 0.99931 0.0
C460 C 0.78162 0.29992 0.00347 0.0
C461 C 0.79373 0.32829 0.01869 0.0
C462 C 0.69242 0.20892 0.97409 0.0
C463 C 0.70149 0.19055 0.9948 0.0
C464 C 0.70997 0.23954 0.97237 0.0
C465 C 0.73688 0.25216 0.99116 0.0
C466 C 0.74761 0.23303 0.00779 0.0
C467 C 0.73007 0.20254 0.00958 0.0
H468 H 0.3765 0.79155 0.49861 0.0
H469 H 0.34104 0.74645 0.59601 0.0
H470 H 0.40716 0.76337 0.49249 0.0
H471 H 0.37225 0.71847 0.5901 0.0
H472 H 0.46531 0.71552 0.59105 0.0
H473 H 0.43205 0.74105 0.59098 0.0
H474 H 0.40147 0.70705 0.48754 0.0
H475 H 0.43422 0.68067 0.48778 0.0
C476 C 0.37501 0.77527 0.51845 0.0
C477 C 0.35672 0.77131 0.54799 0.0
C478 C 0.39246 0.75915 0.51486 0.0
C479 C 0.39231 0.7392 0.54107 0.0
C480 C 0.37292 0.73409 0.56978 0.0
C481 C 0.35496 0.74984 0.57304 0.0
C482 C 0.4519 0.71386 0.56801 0.0
C483 C 0.45216 0.69582 0.53959 0.0
C484 C 0.43263 0.72817 0.5682 0.0
C485 C 0.41376 0.72529 0.53965 0.0
C486 C 0.41564 0.70926 0.51001 0.0
C487 C 0.43463 0.69449 0.51003 0.0
H488 H 0.62531 0.42317 0.0506 0.0
H489 H 0.63407 0.33962 0.06014 0.0
H490 H 0.67729 0.44755 0.03266 0.0
H491 H 0.68595 0.36405 0.04183 0.0
H492 H 0.77505 0.4109 0.99489 0.0
H493 H 0.72097 0.39381 0.99027 0.0
H494 H 0.72284 0.45525 0.07195 0.0
H495 H 0.77647 0.47146 0.07727 0.0
C496 C 0.6382 0.40992 0.04847 0.0
C497 C 0.62577 0.37955 0.05733 0.0
C498 C 0.66784 0.42388 0.038 0.0
C499 C 0.68542 0.40761 0.03564 0.0
C500 C 0.67267 0.37698 0.04292 0.0
C501 C 0.64314 0.3631 0.05389 0.0
C502 C 0.76399 0.42169 0.01058 0.0
C503 C 0.77961 0.44239 0.0365 0.0
C504 C 0.73311 0.41173 0.00819 0.0
C505 C 0.71787 0.42305 0.03101 0.0
C506 C 0.73411 0.4463 0.05395 0.0
C507 C 0.76475 0.45564 0.05695 0.0
H508 H 0.17171 0.65481 0.53017 0.0
H509 H 0.2597 0.65646 0.54083 0.0
H510 H 0.19321 0.70425 0.50336 0.0
H511 H 0.28102 0.70564 0.51476 0.0
H512 H 0.25405 0.806 0.52939 0.0
H513 H 0.22311 0.75288 0.53007 0.0
H514 H 0.28652 0.73766 0.4636 0.0
H515 H 0.31768 0.79097 0.46326 0.0
C516 C 0.19554 0.66547 0.52628 0.0
C517 C 0.21404 0.65195 0.53824 0.0
C518 C 0.20784 0.69377 0.51096 0.0
C519 C 0.23882 0.70892 0.50698 0.0
C520 C 0.25705 0.69451 0.51694 0.0
C521 C 0.24483 0.66641 0.53239 0.0
C522 C 0.26074 0.79144 0.51369 0.0
C523 C 0.28844 0.80255 0.49673 0.0
C524 C 0.24298 0.76094 0.51403 0.0
C525 C 0.25269 0.74098 0.49751 0.0
C526 C 0.27872 0.75249 0.47707 0.0
C527 C 0.29641 0.78308 0.47654 0.0
H528 H 0.81006 0.40408 0.47348 0.0
H529 H 0.72867 0.32723 0.45127 0.0
H530 H 0.78181 0.43319 0.48591 0.0
H531 H 0.70021 0.35703 0.464 0.0
H532 H 0.65906 0.4179 0.51188 0.0
H533 H 0.68866 0.38817 0.51386 0.0
H534 H 0.7525 0.45027 0.44332 0.0
H535 H 0.72271 0.47938 0.44072 0.0
C536 C 0.78608 0.39323 0.47133 0.0
C537 C 0.77167 0.36332 0.46069 0.0
C538 C 0.76994 0.41004 0.47863 0.0
C539 C 0.73893 0.39745 0.4757 0.0
C540 C 0.72418 0.36721 0.46661 0.0
C541 C 0.74045 0.35026 0.45903 0.0
C542 C 0.68002 0.42574 0.49792 0.0
C543 C 0.68884 0.45104 0.47632 0.0
C544 C 0.69663 0.40848 0.49861 0.0
C545 C 0.72266 0.41682 0.47851 0.0
C546 C 0.73257 0.4434 0.45918 0.0
C547 C 0.71569 0.46019 0.45787 0.0
H548 H 0.33798 0.82063 0.96854 0.0
H549 H 0.33799 0.73357 0.95429 0.0
H550 H 0.28896 0.79777 0.99612 0.0
H551 H 0.28925 0.71089 0.98119 0.0
H552 H 0.20355 0.67126 0.03174 0.0
H553 H 0.25679 0.70275 0.03153 0.0
H554 H 0.24053 0.76854 0.97058 0.0
H555 H 0.18756 0.73734 0.9713 0.0
C556 C 0.32776 0.7967 0.97177 0.0
C557 C 0.3416 0.77888 0.95854 0.0
C558 C 0.29968 0.7836 0.98753 0.0
C559 C 0.28503 0.75247 0.99066 0.0
C560 C 0.29987 0.73492 0.97955 0.0
C561 C 0.32774 0.74794 0.96364 0.0
C562 C 0.21124 0.69307 0.01978 0.0
C563 C 0.1915 0.70174 0.00114 0.0
C564 C 0.2418 0.71097 0.01926 0.0
C565 C 0.25301 0.73786 0.00034 0.0
C566 C 0.23278 0.74804 0.98545 0.0
C567 C 0.20234 0.73012 0.98581 0.0
H568 H 0.51872 0.21525 0.43092 0.0
H569 H 0.58023 0.21513 0.51124 0.0
H570 H 0.53431 0.2686 0.43863 0.0
H571 H 0.59665 0.26896 0.51833 0.0
H572 H 0.56717 0.36568 0.45947 0.0
H573 H 0.54277 0.31384 0.4782 0.0
H574 H 0.62588 0.30461 0.46788 0.0
H575 H 0.65028 0.35627 0.44892 0.0
C576 C 0.53458 0.22652 0.45138 0.0
C577 C 0.54837 0.21136 0.47044 0.0
C578 C 0.54355 0.25702 0.45579 0.0
C579 C 0.56694 0.27285 0.47875 0.0
C580 C 0.57863 0.25716 0.50041 0.0
C581 C 0.56906 0.2264 0.49659 0.0
C582 C 0.58033 0.35271 0.46165 0.0
C583 C 0.61053 0.36484 0.45207 0.0
C584 C 0.56638 0.32315 0.47256 0.0
C585 C 0.58249 0.30539 0.47465 0.0
C586 C 0.61305 0.31799 0.46701 0.0
C587 C 0.6269 0.3474 0.45563 0.0
H588 H 0.26043 0.66677 0.94166 0.0
H589 H 0.18018 0.58639 0.95326 0.0
H590 H 0.29015 0.63749 0.94987 0.0
H591 H 0.20959 0.55779 0.96145 0.0
H592 H 0.27258 0.51572 0.92118 0.0
H593 H 0.2424 0.54453 0.9207 0.0
H594 H 0.30057 0.60472 0.99744 0.0
H595 H 0.3307 0.57557 0.99821 0.0
C596 C 0.24917 0.64302 0.94595 0.0
C597 C 0.21796 0.62897 0.94656 0.0
C598 C 0.26613 0.62634 0.95095 0.0
C599 C 0.25206 0.59538 0.95621 0.0
C600 C 0.22098 0.58154 0.95715 0.0
C601 C 0.20417 0.59807 0.95247 0.0
C602 C 0.27838 0.53457 0.93871 0.0
C603 C 0.30368 0.5432 0.96001 0.0
C604 C 0.26127 0.55117 0.93829 0.0
C605 C 0.26936 0.57698 0.95883 0.0
C606 C 0.29405 0.58505 0.98117 0.0
C607 C 0.31093 0.56808 0.98204 0.0
H608 H 0.65462 0.26393 0.47187 0.0
H609 H 0.65304 0.17567 0.4785 0.0
H610 H 0.70423 0.2847 0.49647 0.0
H611 H 0.70285 0.19657 0.50409 0.0
H612 H 0.79251 0.32201 0.53899 0.0
H613 H 0.73922 0.29134 0.54296 0.0
H614 H 0.75017 0.22499 0.47729 0.0
H615 H 0.80318 0.25527 0.47407 0.0
C616 C 0.66466 0.24885 0.47916 0.0
C617 C 0.65011 0.21818 0.47236 0.0
C618 C 0.69308 0.26077 0.49379 0.0
C619 C 0.70776 0.24237 0.50204 0.0
C620 C 0.69235 0.21142 0.4976 0.0
C621 C 0.66377 0.19943 0.48299 0.0
C622 C 0.78372 0.3002 0.52692 0.0
C623 C 0.80187 0.29118 0.50575 0.0
C624 C 0.75309 0.28278 0.52877 0.0
C625 C 0.74024 0.25606 0.50965 0.0
C626 C 0.75914 0.24538 0.49236 0.0
C627 C 0.78964 0.26279 0.49046 0.0
H628 H 0.34019 0.63264 0.92759 0.0
H629 H 0.42599 0.62849 0.93464 0.0
H630 H 0.36314 0.6854 0.94321 0.0
H631 H 0.44888 0.68132 0.94974 0.0
H632 H 0.41042 0.77549 0.99305 0.0
H633 H 0.39401 0.72132 0.99521 0.0
H634 H 0.4524 0.72607 0.90886 0.0
H635 H 0.46795 0.77987 0.90599 0.0
C636 C 0.36389 0.64299 0.93256 0.0
C637 C 0.38139 0.62664 0.92945 0.0
C638 C 0.37691 0.67298 0.94196 0.0
C639 C 0.40769 0.68717 0.94785 0.0
C640 C 0.42508 0.67072 0.94546 0.0
C641 C 0.41199 0.64061 0.9367 0.0
C642 C 0.42059 0.76501 0.97556 0.0
C643 C 0.44044 0.78158 0.94938 0.0
C644 C 0.41101 0.73411 0.97657 0.0
C645 C 0.42188 0.71973 0.95207 0.0
C646 C 0.44388 0.73673 0.92816 0.0
C647 C 0.45282 0.76743 0.92655 0.0
loop_
_geom_bond_atom_site_label_1
_geom_bond_atom_site_label_2
_geom_bond_distance
_geom_bond_site_symmetry_2
_ccdc_geom_bond_type
Co0 O1 2.216 . S
Co0 O2 2.091 . S
Co0 O4 2.004 . S
Co0 O10 2.021 . S
Co0 O12 2.150 . S
Co0 O13 2.244 . S
O1 Co0 2.216 . S
O1 C8 1.247 . S
O2 Co0 2.091 . S
O2 C8 1.261 . S
C3 O12 1.258 . S
C3 O13 1.272 . S
O4 Co0 2.004 . S
O4 C9 1.259 . S
Co5 O6 2.061 . S
Co5 O11 2.052 . S
Co5 O13 2.135 . S
O6 Co5 2.061 . S
O6 C9 1.235 . S
C7 O10 1.238 . S
C7 O11 1.241 . S
C8 O1 1.247 . S
C8 O2 1.261 . S
C9 O4 1.259 . S
C9 O6 1.235 . S
O10 Co0 2.021 . S
O10 C7 1.238 . S
O11 Co5 2.052 . S
O11 C7 1.241 . S
O12 Co0 2.150 . S
O12 C3 1.258 . S
O13 Co0 2.244 . S
O13 C3 1.272 . S
O13 Co5 2.135 . S
Co14 O15 2.216 . S
Co14 O16 2.091 . S
Co14 O18 2.004 . S
Co14 O24 2.021 . S
Co14 O26 2.137 . S
Co14 O27 2.244 . S
O15 Co14 2.216 . S
O15 C22 1.247 . S
O16 Co14 2.091 . S
O16 C22 1.261 . S
C17 O26 1.247 . S
C17 O27 1.272 . S
O18 Co14 2.004 . S
O18 C23 1.259 . S
Co19 O20 2.061 . S
Co19 O25 2.052 . S
Co19 O27 2.135 . S
O20 Co19 2.061 . S
O20 C23 1.235 . S
C21 O24 1.238 . S
C21 O25 1.241 . S
C22 O15 1.247 . S
C22 O16 1.261 . S
C23 O18 1.259 . S
C23 O20 1.235 . S
O24 Co14 2.021 . S
O24 C21 1.238 . S
O25 Co19 2.052 . S
O25 C21 1.241 . S
O26 Co14 2.137 . S
O26 C17 1.247 . S
O27 Co14 2.244 . S
O27 C17 1.272 . S
O27 Co19 2.135 . S
Co28 O29 2.216 . S
Co28 O30 2.091 . S
Co28 O32 2.004 . S
Co28 O38 2.021 . S
Co28 O40 2.137 . S
Co28 O41 2.244 . S
O29 Co28 2.216 . S
O29 C36 1.247 . S
O30 Co28 2.091 . S
O30 C36 1.261 . S
C31 O40 1.247 . S
C31 O41 1.272 . S
O32 Co28 2.004 . S
O32 C37 1.259 . S
Co33 O34 2.061 . S
Co33 O39 2.052 . S
Co33 O41 2.135 . S
O34 Co33 2.061 . S
O34 C37 1.235 . S
C35 O38 1.238 . S
C35 O39 1.241 . S
C36 O29 1.247 . S
C36 O30 1.261 . S
C37 O32 1.259 . S
C37 O34 1.235 . S
O38 Co28 2.021 . S
O38 C35 1.238 . S
O39 Co33 2.052 . S
O39 C35 1.241 . S
O40 Co28 2.137 . S
O40 C31 1.247 . S
O41 Co28 2.244 . S
O41 C31 1.272 . S
O41 Co33 2.135 . S
Co42 O43 2.216 . S
Co42 O44 2.091 . S
Co42 O46 2.004 . S
Co42 O52 2.021 . S
Co42 O54 2.137 . S
Co42 O55 2.244 . S
O43 Co42 2.216 . S
O43 C50 1.247 . S
O44 Co42 2.091 . S
O44 C50 1.261 . S
C45 O54 1.247 . S
C45 O55 1.272 . S
O46 Co42 2.004 . S
O46 C51 1.259 . S
Co47 O48 2.061 . S
Co47 O53 2.052 . S
Co47 O55 2.135 . S
O48 Co47 2.061 . S
O48 C51 1.235 . S
C49 O52 1.238 . S
C49 O53 1.241 . S
C50 O43 1.247 . S
C50 O44 1.261 . S
C51 O46 1.259 . S
C51 O48 1.235 . S
O52 Co42 2.021 . S
O52 C49 1.238 . S
O53 Co47 2.052 . S
O53 C49 1.241 . S
O54 Co42 2.137 . S
O54 C45 1.247 . S
O55 Co42 2.244 . S
O55 C45 1.272 . S
O55 Co47 2.135 . S
Co56 O57 2.216 . S
Co56 O58 2.091 . S
Co56 O60 2.004 . S
Co56 O66 2.021 . S
Co56 O68 2.137 . S
Co56 O69 2.244 . S
O57 Co56 2.216 . S
O57 C64 1.247 . S
O58 Co56 2.091 . S
O58 C64 1.261 . S
C59 O68 1.247 . S
C59 O69 1.272 . S
O60 Co56 2.004 . S
O60 C65 1.259 . S
Co61 O62 2.061 . S
Co61 O67 2.052 . S
Co61 O69 2.135 . S
O62 Co61 2.061 . S
O62 C65 1.235 . S
C63 O66 1.238 . S
C63 O67 1.241 . S
C64 O57 1.247 . S
C64 O58 1.261 . S
C65 O60 1.259 . S
C65 O62 1.235 . S
O66 Co56 2.021 . S
O66 C63 1.238 . S
O67 Co61 2.052 . S
O67 C63 1.241 . S
O68 Co56 2.137 . S
O68 C59 1.247 . S
O69 Co56 2.244 . S
O69 C59 1.272 . S
O69 Co61 2.135 . S
Co70 O71 2.216 . S
Co70 O72 2.091 . S
Co70 O74 2.004 . S
Co70 O80 2.021 . S
Co70 O82 2.137 . S
Co70 O83 2.244 . S
O71 Co70 2.216 . S
O71 C78 1.247 . S
O72 Co70 2.091 . S
O72 C78 1.261 . S
C73 O82 1.247 . S
C73 O83 1.272 . S
O74 Co70 2.004 . S
O74 C79 1.259 . S
Co75 O76 2.061 . S
Co75 O81 2.052 . S
Co75 O83 2.135 . S
O76 Co75 2.061 . S
O76 C79 1.235 . S
C77 O80 1.238 . S
C77 O81 1.241 . S
C78 O71 1.247 . S
C78 O72 1.261 . S
C79 O74 1.259 . S
C79 O76 1.235 . S
O80 Co70 2.021 . S
O80 C77 1.238 . S
O81 Co75 2.052 . S
O81 C77 1.241 . S
O82 Co70 2.137 . S
O82 C73 1.247 . S
O83 Co70 2.244 . S
O83 C73 1.272 . S
O83 Co75 2.135 . S
Co84 O85 2.216 . S
Co84 O86 2.091 . S
Co84 O88 2.004 . S
Co84 O94 2.021 . S
Co84 O96 2.137 . S
Co84 O97 2.244 . S
O85 Co84 2.216 . S
O85 C92 1.247 . S
O86 Co84 2.091 . S
O86 C92 1.261 . S
C87 O96 1.247 . S
C87 O97 1.272 . S
O88 Co84 2.004 . S
O88 C93 1.259 . S
Co89 O90 2.061 . S
Co89 O95 2.052 . S
Co89 O97 2.135 . S
O90 Co89 2.061 . S
O90 C93 1.235 . S
C91 O94 1.238 . S
C91 O95 1.241 . S
C92 O85 1.247 . S
C92 O86 1.261 . S
C93 O88 1.259 . S
C93 O90 1.235 . S
O94 Co84 2.021 . S
O94 C91 1.238 . S
O95 Co89 2.052 . S
O95 C91 1.241 . S
O96 Co84 2.137 . S
O96 C87 1.247 . S
O97 Co84 2.244 . S
O97 C87 1.272 . S
O97 Co89 2.135 . S
Co98 O99 2.216 . S
Co98 O100 2.091 . S
Co98 O102 2.004 . S
Co98 O108 2.021 . S
Co98 O110 2.137 . S
Co98 O111 2.244 . S
O99 Co98 2.216 . S
O99 C106 1.247 . S
O100 Co98 2.091 . S
O100 C106 1.261 . S
C101 O110 1.247 . S
C101 O111 1.272 . S
O102 Co98 2.004 . S
O102 C107 1.259 . S
Co103 O104 2.061 . S
Co103 O109 2.052 . S
Co103 O111 2.135 . S
O104 Co103 2.061 . S
O104 C107 1.235 . S
C105 O108 1.238 . S
C105 O109 1.241 . S
C106 O99 1.247 . S
C106 O100 1.261 . S
C107 O102 1.259 . S
C107 O104 1.235 . S
O108 Co98 2.021 . S
O108 C105 1.238 . S
O109 Co103 2.052 . S
O109 C105 1.241 . S
O110 Co98 2.137 . S
O110 C101 1.247 . S
O111 Co98 2.244 . S
O111 C101 1.272 . S
O111 Co103 2.135 . S
Co112 O113 2.216 . S
Co112 O114 2.091 . S
Co112 O116 2.004 . S
Co112 O122 2.021 . S
Co112 O124 2.137 . S
Co112 O125 2.244 . S
O113 Co112 2.216 . S
O113 C120 1.247 . S
O114 Co112 2.091 . S
O114 C120 1.261 . S
C115 O124 1.247 . S
C115 O125 1.272 . S
O116 Co112 2.004 . S
O116 C121 1.259 . S
Co117 O118 2.061 . S
Co117 O123 2.052 . S
Co117 O125 2.135 . S
O118 Co117 2.061 . S
O118 C121 1.235 . S
C119 O122 1.238 . S
C119 O123 1.241 . S
C120 O113 1.247 . S
C120 O114 1.261 . S
C121 O116 1.259 . S
C121 O118 1.235 . S
O122 Co112 2.021 . S
O122 C119 1.238 . S
O123 Co117 2.052 . S
O123 C119 1.241 . S
O124 Co112 2.137 . S
O124 C115 1.247 . S
O125 Co112 2.244 . S
O125 C115 1.272 . S
O125 Co117 2.135 . S
Co126 O127 2.216 . S
Co126 O128 2.091 . S
Co126 O130 2.004 . S
Co126 O136 2.021 . S
Co126 O138 2.150 . S
Co126 O139 2.244 . S
O127 Co126 2.216 . S
O127 C134 1.247 . S
O128 Co126 2.091 . S
O128 C134 1.261 . S
C129 O138 1.258 . S
C129 O139 1.272 . S
O130 Co126 2.004 . S
O130 C135 1.259 . S
Co131 O132 2.061 . S
Co131 O137 2.052 . S
Co131 O139 2.135 . S
O132 Co131 2.061 . S
O132 C135 1.235 . S
C133 O136 1.238 . S
C133 O137 1.241 . S
C134 O127 1.247 . S
C134 O128 1.261 . S
C135 O130 1.259 . S
C135 O132 1.235 . S
O136 Co126 2.021 . S
O136 C133 1.238 . S
O137 Co131 2.052 . S
O137 C133 1.241 . S
O138 Co126 2.150 . S
O138 C129 1.258 . S
O139 Co126 2.244 . S
O139 C129 1.272 . S
O139 Co131 2.135 . S
Co140 O141 2.216 . S
Co140 O142 2.091 . S
Co140 O144 2.004 . S
Co140 O150 2.021 . S
Co140 O152 2.137 . S
Co140 O153 2.244 . S
O141 Co140 2.216 . S
O141 C148 1.247 . S
O142 Co140 2.091 . S
O142 C148 1.261 . S
C143 O152 1.247 . S
C143 O153 1.272 . S
O144 Co140 2.004 . S
O144 C149 1.259 . S
Co145 O146 2.061 . S
Co145 O151 2.052 . S
Co145 O153 2.135 . S
O146 Co145 2.061 . S
O146 C149 1.235 . S
C147 O150 1.238 . S
C147 O151 1.241 . S
C148 O141 1.247 . S
C148 O142 1.261 . S
C149 O144 1.259 . S
C149 O146 1.235 . S
O150 Co140 2.021 . S
O150 C147 1.238 . S
O151 Co145 2.052 . S
O151 C147 1.241 . S
O152 Co140 2.137 . S
O152 C143 1.247 . S
O153 Co140 2.244 . S
O153 C143 1.272 . S
O153 Co145 2.135 . S
Co154 O155 2.216 . S
Co154 O156 2.091 . S
Co154 O158 2.004 . S
Co154 O164 2.021 . S
Co154 O166 2.137 . S
Co154 O167 2.244 . S
O155 Co154 2.216 . S
O155 C162 1.247 . S
O156 Co154 2.091 . S
O156 C162 1.261 . S
C157 O166 1.247 . S
C157 O167 1.272 . S
O158 Co154 2.004 . S
O158 C163 1.259 . S
Co159 O160 2.061 . S
Co159 O165 2.052 . S
Co159 O167 2.135 . S
O160 Co159 2.061 . S
O160 C163 1.235 . S
C161 O164 1.238 . S
C161 O165 1.241 . S
C162 O155 1.247 . S
C162 O156 1.261 . S
C163 O158 1.259 . S
C163 O160 1.235 . S
O164 Co154 2.021 . S
O164 C161 1.238 . S
O165 Co159 2.052 . S
O165 C161 1.241 . S
O166 Co154 2.137 . S
O166 C157 1.247 . S
O167 Co154 2.244 . S
O167 C157 1.272 . S
O167 Co159 2.135 . S
H168 C176 0.950 . S
H169 C181 0.950 . S
H170 C178 0.950 . S
H171 C180 0.950 . S
H172 C182 0.950 . S
H173 C184 0.950 . S
H174 C186 0.950 . S
H175 C187 0.950 . S
C176 H168 0.950 . S
C176 C177 1.386 . S
C176 C178 1.391 . S
C177 C176 1.386 . S
C177 C181 1.393 . S
C178 H170 0.950 . S
C178 C176 1.391 . S
C178 C179 1.400 . S
C179 C178 1.400 . S
C179 C180 1.398 . S
C179 C185 1.491 . S
C180 H171 0.950 . S
C180 C179 1.398 . S
C180 C181 1.391 . S
C181 H169 0.950 . S
C181 C177 1.393 . S
C181 C180 1.391 . S
C182 H172 0.950 . S
C182 C183 1.386 . S
C182 C184 1.391 . S
C183 C182 1.386 . S
C183 C187 1.393 . S
C184 H173 0.950 . S
C184 C182 1.391 . S
C184 C185 1.400 . S
C185 C179 1.491 . S
C185 C184 1.400 . S
C185 C186 1.398 . S
C186 H174 0.950 . S
C186 C185 1.398 . S
C186 C187 1.391 . S
C187 H175 0.950 . S
C187 C183 1.393 . S
C187 C186 1.391 . S
H188 C196 0.950 . S
H189 C201 0.950 . S
H190 C198 0.950 . S
H191 C200 0.950 . S
H192 C202 0.950 . S
H193 C204 0.950 . S
H194 C206 0.950 . S
H195 C207 0.950 . S
C196 H188 0.950 . S
C196 C197 1.386 . S
C196 C198 1.391 . S
C197 C196 1.386 . S
C197 C201 1.393 . S
C198 H190 0.950 . S
C198 C196 1.391 . S
C198 C199 1.400 . S
C199 C198 1.400 . S
C199 C200 1.398 . S
C199 C205 1.491 . S
C200 H191 0.950 . S
C200 C199 1.398 . S
C200 C201 1.391 . S
C201 H189 0.950 . S
C201 C197 1.393 . S
C201 C200 1.391 . S
C202 H192 0.950 . S
C202 C203 1.386 . S
C202 C204 1.391 . S
C203 C202 1.386 . S
C203 C207 1.393 . S
C204 H193 0.950 . S
C204 C202 1.391 . S
C204 C205 1.400 . S
C205 C199 1.491 . S
C205 C204 1.400 . S
C205 C206 1.398 . S
C206 H194 0.950 . S
C206 C205 1.398 . S
C206 C207 1.391 . S
C207 H195 0.950 . S
C207 C203 1.393 . S
C207 C206 1.391 . S
H208 C216 0.950 . S
H209 C221 0.950 . S
H210 C218 0.950 . S
H211 C220 0.950 . S
H212 C222 0.950 . S
H213 C224 0.950 . S
H214 C226 0.950 . S
H215 C227 0.950 . S
C216 H208 0.950 . S
C216 C217 1.386 . S
C216 C218 1.391 . S
C217 C216 1.386 . S
C217 C221 1.393 . S
C218 H210 0.950 . S
C218 C216 1.391 . S
C218 C219 1.400 . S
C219 C218 1.400 . S
C219 C220 1.398 . S
C219 C225 1.491 . S
C220 H211 0.950 . S
C220 C219 1.398 . S
C220 C221 1.391 . S
C221 H209 0.950 . S
C221 C217 1.393 . S
C221 C220 1.391 . S
C222 H212 0.950 . S
C222 C223 1.386 . S
C222 C224 1.391 . S
C223 C222 1.386 . S
C223 C227 1.393 . S
C224 H213 0.950 . S
C224 C222 1.391 . S
C224 C225 1.400 . S
C225 C219 1.491 . S
C225 C224 1.400 . S
C225 C226 1.398 . S
C226 H214 0.950 . S
C226 C225 1.398 . S
C226 C227 1.391 . S
C227 H215 0.950 . S
C227 C223 1.393 . S
C227 C226 1.391 . S
H228 C236 0.950 . S
H229 C241 0.950 . S
H230 C238 0.950 . S
H231 C240 0.950 . S
H232 C242 0.950 . S
H233 C244 0.950 . S
H234 C246 0.950 . S
H235 C247 0.950 . S
C236 H228 0.950 . S
C236 C237 1.386 . S
C236 C238 1.391 . S
C237 C236 1.386 . S
C237 C241 1.393 . S
C238 H230 0.950 . S
C238 C236 1.391 . S
C238 C239 1.400 . S
C239 C238 1.400 . S
C239 C240 1.398 . S
C239 C245 1.491 . S
C240 H231 0.950 . S
C240 C239 1.398 . S
C240 C241 1.391 . S
C241 H229 0.950 . S
C241 C237 1.393 . S
C241 C240 1.391 . S
C242 H232 0.950 . S
C242 C243 1.386 . S
C242 C244 1.391 . S
C243 C242 1.386 . S
C243 C247 1.393 . S
C244 H233 0.950 . S
C244 C242 1.391 . S
C244 C245 1.400 . S
C245 C239 1.491 . S
C245 C244 1.400 . S
C245 C246 1.398 . S
C246 H234 0.950 . S
C246 C245 1.398 . S
C246 C247 1.391 . S
C247 H235 0.950 . S
C247 C243 1.393 . S
C247 C246 1.391 . S
H248 C256 0.950 . S
H249 C261 0.950 . S
H250 C258 0.950 . S
H251 C260 0.950 . S
H252 C262 0.950 . S
H253 C264 0.950 . S
H254 C266 0.950 . S
H255 C267 0.950 . S
C256 H248 0.950 . S
C256 C257 1.386 . S
C256 C258 1.391 . S
C257 C256 1.386 . S
C257 C261 1.393 . S
C258 H250 0.950 . S
C258 C256 1.391 . S
C258 C259 1.400 . S
C259 C258 1.400 . S
C259 C260 1.398 . S
C259 C265 1.491 . S
C260 H251 0.950 . S
C260 C259 1.398 . S
C260 C261 1.391 . S
C261 H249 0.950 . S
C261 C257 1.393 . S
C261 C260 1.391 . S
C262 H252 0.950 . S
C262 C263 1.386 . S
C262 C264 1.391 . S
C263 C262 1.386 . S
C263 C267 1.393 . S
C264 H253 0.950 . S
C264 C262 1.391 . S
C264 C265 1.400 . S
C265 C259 1.491 . S
C265 C264 1.400 . S
C265 C266 1.398 . S
C266 H254 0.950 . S
C266 C265 1.398 . S
C266 C267 1.391 . S
C267 H255 0.950 . S
C267 C263 1.393 . S
C267 C266 1.391 . S
H268 C276 0.950 . S
H269 C281 0.950 . S
H270 C278 0.950 . S
H271 C280 0.950 . S
H272 C282 0.950 . S
H273 C284 0.950 . S
H274 C286 0.950 . S
H275 C287 0.950 . S
C276 H268 0.950 . S
C276 C277 1.386 . S
C276 C278 1.391 . S
C277 C276 1.386 . S
C277 C281 1.393 . S
C278 H270 0.950 . S
C278 C276 1.391 . S
C278 C279 1.400 . S
C279 C278 1.400 . S
C279 C280 1.398 . S
C279 C285 1.491 . S
C280 H271 0.950 . S
C280 C279 1.398 . S
C280 C281 1.391 . S
C281 H269 0.950 . S
C281 C277 1.393 . S
C281 C280 1.391 . S
C282 H272 0.950 . S
C282 C283 1.386 . S
C282 C284 1.391 . S
C283 C282 1.386 . S
C283 C287 1.393 . S
C284 H273 0.950 . S
C284 C282 1.391 . S
C284 C285 1.400 . S
C285 C279 1.491 . S
C285 C284 1.400 . S
C285 C286 1.398 . S
C286 H274 0.950 . S
C286 C285 1.398 . S
C286 C287 1.391 . S
C287 H275 0.950 . S
C287 C283 1.393 . S
C287 C286 1.391 . S
H288 C296 0.950 . S
H289 C301 0.950 . S
H290 C298 0.950 . S
H291 C300 0.931 1_566 S
H292 C302 0.950 . S
H293 C304 0.950 . S
H294 C306 0.953 . S
H295 C307 0.950 . S
C296 H288 0.950 . S
C296 C297 1.386 . S
C296 C298 1.391 . S
C297 C296 1.386 . S
C297 C301 1.393 . S
C298 H290 0.950 . S
C298 C296 1.391 . S
C298 C299 1.400 . S
C299 C298 1.400 . S
C299 C300 1.398 . S
C299 C305 1.491 1_544 S
C300 H291 0.931 1_544 S
C300 C299 1.398 . S
C300 C301 1.391 . S
C301 H289 0.950 . S
C301 C297 1.393 . S
C301 C300 1.391 . S
C302 H292 0.950 . S
C302 C303 1.386 . S
C302 C304 1.391 . S
C303 C302 1.386 . S
C303 C307 1.393 . S
C304 H293 0.950 . S
C304 C302 1.391 . S
C304 C305 1.400 . S
C305 C299 1.491 1_566 S
C305 C304 1.400 . S
C305 C306 1.398 . S
C306 H294 0.953 . S
C306 C305 1.398 . S
C306 C307 1.391 . S
C307 H295 0.950 . S
C307 C303 1.393 . S
C307 C306 1.391 . S
H308 C316 0.950 . S
H309 C321 0.950 . S
H310 C318 0.950 . S
H311 C320 0.950 . S
H312 C322 0.950 . S
H313 C324 0.950 . S
H314 C326 0.950 . S
H315 C327 0.950 . S
C316 H308 0.950 . S
C316 C317 1.386 . S
C316 C318 1.391 . S
C317 C316 1.386 . S
C317 C321 1.393 . S
C318 H310 0.950 . S
C318 C316 1.391 . S
C318 C319 1.400 . S
C319 C318 1.400 . S
C319 C320 1.398 . S
C319 C325 1.491 . S
C320 H311 0.950 . S
C320 C319 1.398 . S
C320 C321 1.391 . S
C321 H309 0.950 . S
C321 C317 1.393 . S
C321 C320 1.391 . S
C322 H312 0.950 . S
C322 C323 1.386 . S
C322 C324 1.391 . S
C323 C322 1.386 . S
C323 C327 1.393 . S
C324 H313 0.950 . S
C324 C322 1.391 . S
C324 C325 1.400 . S
C325 C319 1.491 . S
C325 C324 1.400 . S
C325 C326 1.398 . S
C326 H314 0.950 . S
C326 C325 1.398 . S
C326 C327 1.391 . S
C327 H315 0.950 . S
C327 C323 1.393 . S
C327 C326 1.391 . S
H328 C336 0.950 . S
H329 C341 0.950 . S
H330 C338 0.950 . S
H331 C340 0.950 1_655 S
H332 C342 0.950 . S
H333 C344 0.950 . S
H334 C346 0.950 . S
H335 C347 0.950 . S
C336 H328 0.950 . S
C336 C337 1.386 1_554 S
C336 C338 1.391 . S
C337 C336 1.386 1_556 S
C337 C341 1.393 . S
C338 H330 0.950 . S
C338 C336 1.391 . S
C338 C339 1.400 1_554 S
C339 C338 1.400 1_556 S
C339 C340 1.398 . S
C339 C345 1.491 1_456 S
C340 H331 0.950 1_455 S
C340 C339 1.398 . S
C340 C341 1.391 . S
C341 H329 0.950 . S
C341 C337 1.393 . S
C341 C340 1.391 . S
C342 H332 0.950 . S
C342 C343 1.386 1_556 S
C342 C344 1.391 . S
C343 C342 1.386 1_554 S
C343 C347 1.393 . S
C344 H333 0.950 . S
C344 C342 1.391 . S
C344 C345 1.400 1_556 S
C345 C339 1.491 1_654 S
C345 C344 1.400 1_554 S
C345 C346 1.398 . S
C346 H334 0.950 . S
C346 C345 1.398 . S
C346 C347 1.391 . S
C347 H335 0.950 . S
C347 C343 1.393 . S
C347 C346 1.391 . S
H348 C356 0.950 . S
H349 C361 0.950 . S
H350 C358 0.950 . S
H351 C360 0.950 . S
H352 C362 0.950 . S
H353 C364 0.950 . S
H354 C366 0.950 . S
H355 C367 0.950 . S
C356 H348 0.950 . S
C356 C357 1.386 . S
C356 C358 1.391 . S
C357 C356 1.386 . S
C357 C361 1.393 . S
C358 H350 0.950 . S
C358 C356 1.391 . S
C358 C359 1.400 . S
C359 C358 1.400 . S
C359 C360 1.398 . S
C359 C365 1.491 1_545 S
C360 H351 0.950 . S
C360 C359 1.398 . S
C360 C361 1.391 . S
C361 H349 0.950 . S
C361 C357 1.393 . S
C361 C360 1.391 . S
C362 H352 0.950 . S
C362 C363 1.386 . S
C362 C364 1.391 . S
C363 C362 1.386 . S
C363 C367 1.393 . S
C364 H353 0.950 . S
C364 C362 1.391 . S
C364 C365 1.400 . S
C365 C359 1.491 1_565 S
C365 C364 1.400 . S
C365 C366 1.398 . S
C366 H354 0.950 . S
C366 C365 1.398 . S
C366 C367 1.391 . S
C367 H355 0.950 . S
C367 C363 1.393 . S
C367 C366 1.391 . S
H368 C376 0.950 . S
H369 C381 0.950 . S
H370 C378 0.950 . S
H371 C380 0.950 . S
H372 C382 0.950 . S
H373 C384 0.950 . S
H374 C386 0.950 . S
H375 C387 0.950 . S
C376 H368 0.950 . S
C376 C377 1.386 1_554 S
C376 C378 1.391 . S
C377 C376 1.386 1_556 S
C377 C381 1.393 . S
C378 H370 0.950 . S
C378 C376 1.391 . S
C378 C379 1.400 1_554 S
C379 C378 1.400 1_556 S
C379 C380 1.398 . S
C379 C385 1.491 1_556 S
C380 H371 0.950 . S
C380 C379 1.398 . S
C380 C381 1.391 . S
C381 H369 0.950 . S
C381 C377 1.393 . S
C381 C380 1.391 . S
C382 H372 0.950 . S
C382 C383 1.386 1_556 S
C382 C384 1.391 . S
C383 C382 1.386 1_554 S
C383 C387 1.393 . S
C384 H373 0.950 . S
C384 C382 1.391 . S
C384 C385 1.400 1_556 S
C385 C379 1.491 1_554 S
C385 C384 1.400 1_554 S
C385 C386 1.398 . S
C386 H374 0.950 . S
C386 C385 1.398 . S
C386 C387 1.391 . S
C387 H375 0.950 . S
C387 C383 1.393 . S
C387 C386 1.391 . S
H388 C396 0.950 . S
H389 C401 0.950 . S
H390 C398 0.950 . S
H391 C400 0.950 . S
H392 C402 0.950 . S
H393 C404 0.950 . S
H394 C406 0.950 . S
H395 C407 0.950 . S
C396 H388 0.950 . S
C396 C397 1.386 . S
C396 C398 1.391 . S
C397 C396 1.386 . S
C397 C401 1.393 . S
C398 H390 0.950 . S
C398 C396 1.391 . S
C398 C399 1.400 . S
C399 C398 1.400 . S
C399 C400 1.398 . S
C399 C405 1.491 1_655 S
C400 H391 0.950 . S
C400 C399 1.398 . S
C400 C401 1.391 . S
C401 H389 0.950 . S
C401 C397 1.393 . S
C401 C400 1.391 . S
C402 H392 0.950 . S
C402 C403 1.386 . S
C402 C404 1.391 . S
C403 C402 1.386 . S
C403 C407 1.393 . S
C404 H393 0.950 . S
C404 C402 1.391 . S
C404 C405 1.400 . S
C405 C399 1.491 1_455 S
C405 C404 1.400 . S
C405 C406 1.398 . S
C406 H394 0.950 . S
C406 C405 1.398 . S
C406 C407 1.391 . S
C407 H395 0.950 . S
C407 C403 1.393 . S
C407 C406 1.391 . S
H408 C416 0.950 . S
H409 C421 0.950 . S
H410 C418 0.950 . S
H411 C420 0.950 . S
H412 C422 0.950 . S
H413 C424 0.950 . S
H414 C426 0.950 . S
H415 C427 0.950 . S
C416 H408 0.950 . S
C416 C417 1.386 . S
C416 C418 1.391 . S
C417 C416 1.386 . S
C417 C421 1.393 . S
C418 H410 0.950 . S
C418 C416 1.391 . S
C418 C419 1.400 . S
C419 C418 1.400 . S
C419 C420 1.398 . S
C419 C425 1.491 . S
C420 H411 0.950 . S
C420 C419 1.398 . S
C420 C421 1.391 . S
C421 H409 0.950 . S
C421 C417 1.393 . S
C421 C420 1.391 . S
C422 H412 0.950 . S
C422 C423 1.386 . S
C422 C424 1.391 . S
C423 C422 1.386 . S
C423 C427 1.393 . S
C424 H413 0.950 . S
C424 C422 1.391 . S
C424 C425 1.400 . S
C425 C419 1.491 . S
C425 C424 1.400 . S
C425 C426 1.398 . S
C426 H414 0.950 . S
C426 C425 1.398 . S
C426 C427 1.391 . S
C427 H415 0.950 . S
C427 C423 1.393 . S
C427 C426 1.391 . S
H428 C436 0.950 . S
H429 C441 0.950 . S
H430 C438 0.950 . S
H431 C440 0.950 . S
H432 C442 0.950 . S
H433 C444 0.950 . S
H434 C446 0.950 . S
H435 C447 0.950 . S
C436 H428 0.950 . S
C436 C437 1.386 . S
C436 C438 1.391 . S
C437 C436 1.386 . S
C437 C441 1.393 . S
C438 H430 0.950 . S
C438 C436 1.391 . S
C438 C439 1.400 . S
C439 C438 1.400 . S
C439 C440 1.398 . S
C439 C445 1.491 . S
C440 H431 0.950 . S
C440 C439 1.398 . S
C440 C441 1.391 . S
C441 H429 0.950 . S
C441 C437 1.393 . S
C441 C440 1.391 . S
C442 H432 0.950 . S
C442 C443 1.386 . S
C442 C444 1.391 . S
C443 C442 1.386 . S
C443 C447 1.393 . S
C444 H433 0.950 . S
C444 C442 1.391 . S
C444 C445 1.400 . S
C445 C439 1.491 . S
C445 C444 1.400 . S
C445 C446 1.398 . S
C446 H434 0.950 . S
C446 C445 1.398 . S
C446 C447 1.391 . S
C447 H435 0.950 . S
C447 C443 1.393 . S
C447 C446 1.391 . S
H448 C456 0.950 . S
H449 C461 0.950 1_556 S
H450 C458 0.950 . S
H451 C460 0.950 1_556 S
H452 C462 0.950 . S
H453 C464 0.950 . S
H454 C466 0.950 . S
H455 C467 0.950 . S
C456 H448 0.950 . S
C456 C457 1.386 . S
C456 C458 1.391 . S
C457 C456 1.386 . S
C457 C461 1.393 . S
C458 H450 0.950 . S
C458 C456 1.391 . S
C458 C459 1.400 . S
C459 C458 1.400 . S
C459 C460 1.398 . S
C459 C465 1.491 . S
C460 H451 0.950 1_554 S
C460 C459 1.398 . S
C460 C461 1.391 . S
C461 H449 0.950 1_554 S
C461 C457 1.393 . S
C461 C460 1.391 . S
C462 H452 0.950 . S
C462 C463 1.386 1_556 S
C462 C464 1.391 . S
C463 C462 1.386 1_554 S
C463 C467 1.393 . S
C464 H453 0.950 . S
C464 C462 1.391 . S
C464 C465 1.400 1_556 S
C465 C459 1.491 . S
C465 C464 1.400 1_554 S
C465 C466 1.398 . S
C466 H454 0.950 . S
C466 C465 1.398 . S
C466 C467 1.391 . S
C467 H455 0.950 . S
C467 C463 1.393 . S
C467 C466 1.391 . S
H468 C476 0.950 . S
H469 C481 0.950 . S
H470 C478 0.950 . S
H471 C480 0.950 . S
H472 C482 0.950 . S
H473 C484 0.950 . S
H474 C486 0.950 . S
H475 C487 0.950 . S
C476 H468 0.950 . S
C476 C477 1.386 . S
C476 C478 1.391 . S
C477 C476 1.386 . S
C477 C481 1.393 . S
C478 H470 0.950 . S
C478 C476 1.391 . S
C478 C479 1.400 . S
C479 C478 1.400 . S
C479 C480 1.398 . S
C479 C485 1.491 . S
C480 H471 0.950 . S
C480 C479 1.398 . S
C480 C481 1.391 . S
C481 H469 0.950 . S
C481 C477 1.393 . S
C481 C480 1.391 . S
C482 H472 0.950 . S
C482 C483 1.386 . S
C482 C484 1.391 . S
C483 C482 1.386 . S
C483 C487 1.393 . S
C484 H473 0.950 . S
C484 C482 1.391 . S
C484 C485 1.400 . S
C485 C479 1.491 . S
C485 C484 1.400 . S
C485 C486 1.398 . S
C486 H474 0.950 . S
C486 C485 1.398 . S
C486 C487 1.391 . S
C487 H475 0.950 . S
C487 C483 1.393 . S
C487 C486 1.391 . S
H488 C496 0.950 . S
H489 C501 0.950 . S
H490 C498 0.950 . S
H491 C500 0.950 . S
H492 C502 0.950 . S
H493 C504 0.950 . S
H494 C506 0.950 . S
H495 C507 0.950 . S
C496 H488 0.950 . S
C496 C497 1.386 . S
C496 C498 1.391 . S
C497 C496 1.386 . S
C497 C501 1.393 . S
C498 H490 0.950 . S
C498 C496 1.391 . S
C498 C499 1.400 . S
C499 C498 1.400 . S
C499 C500 1.398 . S
C499 C505 1.491 . S
C500 H491 0.950 . S
C500 C499 1.398 . S
C500 C501 1.391 . S
C501 H489 0.950 . S
C501 C497 1.393 . S
C501 C500 1.391 . S
C502 H492 0.950 . S
C502 C503 1.386 . S
C502 C504 1.391 . S
C503 C502 1.386 . S
C503 C507 1.393 . S
C504 H493 0.950 . S
C504 C502 1.391 . S
C504 C505 1.400 . S
C505 C499 1.491 . S
C505 C504 1.400 . S
C505 C506 1.398 . S
C506 H494 0.950 . S
C506 C505 1.398 . S
C506 C507 1.391 . S
C507 H495 0.950 . S
C507 C503 1.393 . S
C507 C506 1.391 . S
H508 C516 0.950 . S
H509 C521 0.950 . S
H510 C518 0.950 . S
H511 C520 0.950 . S
H512 C522 0.950 . S
H513 C524 0.950 . S
H514 C526 0.950 . S
H515 C527 0.950 . S
C516 H508 0.950 . S
C516 C517 1.386 . S
C516 C518 1.391 . S
C517 C516 1.386 . S
C517 C521 1.393 . S
C518 H510 0.950 . S
C518 C516 1.391 . S
C518 C519 1.400 . S
C519 C518 1.400 . S
C519 C520 1.398 . S
C519 C525 1.491 . S
C520 H511 0.950 . S
C520 C519 1.398 . S
C520 C521 1.391 . S
C521 H509 0.950 . S
C521 C517 1.393 . S
C521 C520 1.391 . S
C522 H512 0.950 . S
C522 C523 1.386 . S
C522 C524 1.391 . S
C523 C522 1.386 . S
C523 C527 1.393 . S
C524 H513 0.950 . S
C524 C522 1.391 . S
C524 C525 1.400 . S
C525 C519 1.491 . S
C525 C524 1.400 . S
C525 C526 1.398 . S
C526 H514 0.950 . S
C526 C525 1.398 . S
C526 C527 1.391 . S
C527 H515 0.950 . S
C527 C523 1.393 . S
C527 C526 1.391 . S
H528 C536 0.950 . S
H529 C541 0.950 . S
H530 C538 0.950 . S
H531 C540 0.950 . S
H532 C542 0.950 . S
H533 C544 0.950 . S
H534 C546 0.950 . S
H535 C547 0.950 . S
C536 H528 0.950 . S
C536 C537 1.386 . S
C536 C538 1.391 . S
C537 C536 1.386 . S
C537 C541 1.393 . S
C538 H530 0.950 . S
C538 C536 1.391 . S
C538 C539 1.400 . S
C539 C538 1.400 . S
C539 C540 1.398 . S
C539 C545 1.491 . S
C540 H531 0.950 . S
C540 C539 1.398 . S
C540 C541 1.391 . S
C541 H529 0.950 . S
C541 C537 1.393 . S
C541 C540 1.391 . S
C542 H532 0.950 . S
C542 C543 1.386 . S
C542 C544 1.391 . S
C543 C542 1.386 . S
C543 C547 1.393 . S
C544 H533 0.950 . S
C544 C542 1.391 . S
C544 C545 1.400 . S
C545 C539 1.491 . S
C545 C544 1.400 . S
C545 C546 1.398 . S
C546 H534 0.950 . S
C546 C545 1.398 . S
C546 C547 1.391 . S
C547 H535 0.950 . S
C547 C543 1.393 . S
C547 C546 1.391 . S
H548 C556 0.950 1_554 S
H549 C561 0.950 . S
H550 C558 0.950 1_554 S
H551 C560 0.950 . S
H552 C562 0.950 . S
H553 C564 0.950 . S
H554 C566 0.950 . S
H555 C567 0.950 . S
C556 H548 0.950 1_556 S
C556 C557 1.386 . S
C556 C558 1.391 . S
C557 C556 1.386 . S
C557 C561 1.393 . S
C558 H550 0.950 1_556 S
C558 C556 1.391 . S
C558 C559 1.400 . S
C559 C558 1.400 . S
C559 C560 1.398 . S
C559 C565 1.491 . S
C560 H551 0.950 . S
C560 C559 1.398 . S
C560 C561 1.391 . S
C561 H549 0.950 . S
C561 C557 1.393 . S
C561 C560 1.391 . S
C562 H552 0.950 . S
C562 C563 1.386 . S
C562 C564 1.391 . S
C563 C562 1.386 . S
C563 C567 1.393 1_556 S
C564 H553 0.950 . S
C564 C562 1.391 . S
C564 C565 1.400 . S
C565 C559 1.491 . S
C565 C564 1.400 . S
C565 C566 1.398 1_556 S
C566 H554 0.950 . S
C566 C565 1.398 1_554 S
C566 C567 1.391 . S
C567 H555 0.950 . S
C567 C563 1.393 1_554 S
C567 C566 1.391 . S
H568 C576 0.950 . S
H569 C581 0.950 . S
H570 C578 0.950 . S
H571 C580 0.950 . S
H572 C582 0.950 . S
H573 C584 0.950 . S
H574 C586 0.950 . S
H575 C587 0.950 . S
C576 H568 0.950 . S
C576 C577 1.386 . S
C576 C578 1.391 . S
C577 C576 1.386 . S
C577 C581 1.393 . S
C578 H570 0.950 . S
C578 C576 1.391 . S
C578 C579 1.400 . S
C579 C578 1.400 . S
C579 C580 1.398 . S
C579 C585 1.491 . S
C580 H571 0.950 . S
C580 C579 1.398 . S
C580 C581 1.391 . S
C581 H569 0.950 . S
C581 C577 1.393 . S
C581 C580 1.391 . S
C582 H572 0.950 . S
C582 C583 1.386 . S
C582 C584 1.391 . S
C583 C582 1.386 . S
C583 C587 1.393 . S
C584 H573 0.950 . S
C584 C582 1.391 . S
C584 C585 1.400 . S
C585 C579 1.491 . S
C585 C584 1.400 . S
C585 C586 1.398 . S
C586 H574 0.950 . S
C586 C585 1.398 . S
C586 C587 1.391 . S
C587 H575 0.950 . S
C587 C583 1.393 . S
C587 C586 1.391 . S
H588 C596 0.950 . S
H589 C601 0.950 . S
H590 C598 0.950 . S
H591 C600 0.950 1_554 S
H592 C602 0.950 1_554 S
H593 C604 0.950 1_554 S
H594 C606 0.950 . S
H595 C607 0.950 . S
C596 H588 0.950 . S
C596 C597 1.386 . S
C596 C598 1.391 . S
C597 C596 1.386 . S
C597 C601 1.393 . S
C598 H590 0.950 . S
C598 C596 1.391 . S
C598 C599 1.400 . S
C599 C598 1.400 . S
C599 C600 1.398 . S
C599 C605 1.491 . S
C600 H591 0.950 1_556 S
C600 C599 1.398 . S
C600 C601 1.391 . S
C601 H589 0.950 . S
C601 C597 1.393 . S
C601 C600 1.391 . S
C602 H592 0.950 1_556 S
C602 C603 1.386 . S
C602 C604 1.391 . S
C603 C602 1.386 . S
C603 C607 1.393 . S
C604 H593 0.950 1_556 S
C604 C602 1.391 . S
C604 C605 1.400 . S
C605 C599 1.491 . S
C605 C604 1.400 . S
C605 C606 1.398 . S
C606 H594 0.950 . S
C606 C605 1.398 . S
C606 C607 1.391 . S
C607 H595 0.950 . S
C607 C603 1.393 . S
C607 C606 1.391 . S
H608 C616 0.950 . S
H609 C621 0.950 . S
H610 C618 0.950 . S
H611 C620 0.950 . S
H612 C622 0.950 . S
H613 C624 0.950 . S
H614 C626 0.950 . S
H615 C627 0.950 . S
C616 H608 0.950 . S
C616 C617 1.386 . S
C616 C618 1.391 . S
C617 C616 1.386 . S
C617 C621 1.393 . S
C618 H610 0.950 . S
C618 C616 1.391 . S
C618 C619 1.400 . S
C619 C618 1.400 . S
C619 C620 1.398 . S
C619 C625 1.491 . S
C620 H611 0.950 . S
C620 C619 1.398 . S
C620 C621 1.391 . S
C621 H609 0.950 . S
C621 C617 1.393 . S
C621 C620 1.391 . S
C622 H612 0.950 . S
C622 C623 1.386 . S
C622 C624 1.391 . S
C623 C622 1.386 . S
C623 C627 1.393 . S
C624 H613 0.950 . S
C624 C622 1.391 . S
C624 C625 1.400 . S
C625 C619 1.491 . S
C625 C624 1.400 . S
C625 C626 1.398 . S
C626 H614 0.950 . S
C626 C625 1.398 . S
C626 C627 1.391 . S
C627 H615 0.950 . S
C627 C623 1.393 . S
C627 C626 1.391 . S
H628 C636 0.950 . S
H629 C641 0.950 . S
H630 C638 0.950 . S
H631 C640 0.950 . S
H632 C642 0.950 1_554 S
H633 C644 0.950 1_554 S
H634 C646 0.950 . S
H635 C647 0.950 . S
C636 H628 0.950 . S
C636 C637 1.386 . S
C636 C638 1.391 . S
C637 C636 1.386 . S
C637 C641 1.393 . S
C638 H630 0.950 . S
C638 C636 1.391 . S
C638 C639 1.400 . S
C639 C638 1.400 . S
C639 C640 1.398 . S
C639 C645 1.491 . S
C640 H631 0.950 . S
C640 C639 1.398 . S
C640 C641 1.391 . S
C641 H629 0.950 . S
C641 C637 1.393 . S
C641 C640 1.391 . S
C642 H632 0.950 1_556 S
C642 C643 1.386 . S
C642 C644 1.391 . S
C643 C642 1.386 . S
C643 C647 1.393 . S
C644 H633 0.950 1_556 S
C644 C642 1.391 . S
C644 C645 1.400 . S
C645 C639 1.491 . S
C645 C644 1.400 . S
C645 C646 1.398 . S
C646 H634 0.950 . S
C646 C645 1.398 . S
C646 C647 1.391 . S
C647 H635 0.950 . S
C647 C643 1.393 . S
C647 C646 1.391 . S
C177 C147 1.537 . S
C183 C7 1.536 . S
C197 C21 1.445 . S
C203 C161 1.471 . S
C217 C35 1.543 . S
C223 C91 1.533 . S
C237 C105 1.523 . S
C243 C49 1.562 . S
C257 C119 1.464 . S
C263 C63 1.470 . S
C277 C77 1.524 . S
C283 C133 1.562 . S
C297 C8 0.988 . S
C303 C106 1.002 . S
C317 C22 0.815 . S
C323 C120 0.801 . S
C337 C134 0.993 . S
C343 C36 1.002 . S
C357 C148 1.002 . S
C363 C50 0.995 . S
C377 C162 0.812 . S
C383 C64 0.801 . S
C397 C92 0.984 . S
C403 C78 1.001 . S
C417 C9 1.023 . S
C423 C59 1.018 . S
C437 C23 0.894 . S
C443 C73 0.905 . S
C457 C37 0.916 . S
C463 C3 0.949 . S
C477 C51 1.031 . S
C483 C17 0.983 . S
C497 C65 0.901 . S
C503 C31 0.922 . S
C517 C79 0.956 . S
C523 C45 0.900 . S
C537 C93 1.022 . S
C543 C115 1.018 . S
C557 C107 0.951 . S
C563 C129 0.921 . S
C577 C143 0.928 . S
C583 C121 0.889 . S
C597 C135 1.022 . S
C603 C157 0.998 . S
C617 C149 0.917 . S
C623 C87 0.946 . S
C637 C163 0.884 . S
C643 C101 0.927 . S
