# Generated by pormake.
# Topology unw, (4)-cn, num edge types: 1
# Building blocks:
#     Node 0, Type 0, BuildingBlock: NAWXER_clean_sbu_0, # of connection points: 4
#     Node 1, Type 0, BuildingBlock: NAWXER_clean_sbu_0, # of connection points: 4
#     Node 2, Type 0, BuildingBlock: NAWXER_clean_sbu_0, # of connection points: 4
#     Node 3, Type 0, BuildingBlock: NAWXER_clean_sbu_0, # of connection points: 4
#     Node 4, Type 0, BuildingBlock: NAWXER_clean_sbu_0, # of connection points: 4
#     Node 5, Type 0, BuildingBlock: NAWXER_clean_sbu_0, # of connection points: 4
#     Node 6, Type 0, BuildingBlock: NAWXER_clean_sbu_0, # of connection points: 4
#     Node 7, Type 0, BuildingBlock: NAWXER_clean_sbu_0, # of connection points: 4
#     Node 8, Type 0, BuildingBlock: NAWXER_clean_sbu_0, # of connection points: 4
#     Node 9, Type 0, BuildingBlock: NAWXER_clean_sbu_0, # of connection points: 4
#     Node 10, Type 0, BuildingBlock: NAWXER_clean_sbu_0, # of connection points: 4
#     Node 11, Type 0, BuildingBlock: NAWXER_clean_sbu_0, # of connection points: 4
#     Node 12, Type 0, BuildingBlock: NAWXER_clean_sbu_0, # of connection points: 4
#     Node 13, Type 0, BuildingBlock: NAWXER_clean_sbu_0, # of connection points: 4
#     Node 14, Type 0, BuildingBlock: NAWXER_clean_sbu_0, # of connection points: 4
#     Node 15, Type 0, BuildingBlock: NAWXER_clean_sbu_0, # of connection points: 4
#     Node 16, Type 0, BuildingBlock: NAWXER_clean_sbu_0, # of connection points: 4
#     Node 17, Type 0, BuildingBlock: NAWXER_clean_sbu_0, # of connection points: 4
#     Node 18, Type 0, BuildingBlock: NAWXER_clean_sbu_0, # of connection points: 4
#     Node 19, Type 0, BuildingBlock: NAWXER_clean_sbu_0, # of connection points: 4
#     Node 20, Type 0, BuildingBlock: NAWXER_clean_sbu_0, # of connection points: 4
#     Node 21, Type 0, BuildingBlock: NAWXER_clean_sbu_0, # of connection points: 4
#     Node 22, Type 0, BuildingBlock: NAWXER_clean_sbu_0, # of connection points: 4
#     Node 23, Type 0, BuildingBlock: NAWXER_clean_sbu_0, # of connection points: 4
#     Edge 24, Type (0, 0), BuildingBlock: AJUNOK_clean_linker_0, # of connection points: 2
#     Edge 25, Type (0, 0), BuildingBlock: AJUNOK_clean_linker_0, # of connection points: 2
#     Edge 26, Type (0, 0), BuildingBlock: AJUNOK_clean_linker_0, # of connection points: 2
#     Edge 27, Type (0, 0), BuildingBlock: AJUNOK_clean_linker_0, # of connection points: 2
#     Edge 28, Type (0, 0), BuildingBlock: AJUNOK_clean_linker_0, # of connection points: 2
#     Edge 29, Type (0, 0), BuildingBlock: AJUNOK_clean_linker_0, # of connection points: 2
#     Edge 30, Type (0, 0), BuildingBlock: AJUNOK_clean_linker_0, # of connection points: 2
#     Edge 31, Type (0, 0), BuildingBlock: AJUNOK_clean_linker_0, # of connection points: 2
#     Edge 32, Type (0, 0), BuildingBlock: AJUNOK_clean_linker_0, # of connection points: 2
#     Edge 33, Type (0, 0), BuildingBlock: AJUNOK_clean_linker_0, # of connection points: 2
#     Edge 34, Type (0, 0), BuildingBlock: AJUNOK_clean_linker_0, # of connection points: 2
#     Edge 35, Type (0, 0), BuildingBlock: AJUNOK_clean_linker_0, # of connection points: 2
#     Edge 36, Type (0, 0), BuildingBlock: AJUNOK_clean_linker_0, # of connection points: 2
#     Edge 37, Type (0, 0), BuildingBlock: AJUNOK_clean_linker_0, # of connection points: 2
#     Edge 38, Type (0, 0), BuildingBlock: AJUNOK_clean_linker_0, # of connection points: 2
#     Edge 39, Type (0, 0), BuildingBlock: AJUNOK_clean_linker_0, # of connection points: 2
#     Edge 40, Type (0, 0), BuildingBlock: AJUNOK_clean_linker_0, # of connection points: 2
#     Edge 41, Type (0, 0), BuildingBlock: AJUNOK_clean_linker_0, # of connection points: 2
#     Edge 42, Type (0, 0), BuildingBlock: AJUNOK_clean_linker_0, # of connection points: 2
#     Edge 43, Type (0, 0), BuildingBlock: AJUNOK_clean_linker_0, # of connection points: 2
#     Edge 44, Type (0, 0), BuildingBlock: AJUNOK_clean_linker_0, # of connection points: 2
#     Edge 45, Type (0, 0), BuildingBlock: AJUNOK_clean_linker_0, # of connection points: 2
#     Edge 46, Type (0, 0), BuildingBlock: AJUNOK_clean_linker_0, # of connection points: 2
#     Edge 47, Type (0, 0), BuildingBlock: AJUNOK_clean_linker_0, # of connection points: 2
#     Edge 48, Type (0, 0), BuildingBlock: AJUNOK_clean_linker_0, # of connection points: 2
#     Edge 49, Type (0, 0), BuildingBlock: AJUNOK_clean_linker_0, # of connection points: 2
#     Edge 50, Type (0, 0), BuildingBlock: AJUNOK_clean_linker_0, # of connection points: 2
#     Edge 51, Type (0, 0), BuildingBlock: AJUNOK_clean_linker_0, # of connection points: 2
#     Edge 52, Type (0, 0), BuildingBlock: AJUNOK_clean_linker_0, # of connection points: 2
#     Edge 53, Type (0, 0), BuildingBlock: AJUNOK_clean_linker_0, # of connection points: 2
#     Edge 54, Type (0, 0), BuildingBlock: AJUNOK_clean_linker_0, # of connection points: 2
#     Edge 55, Type (0, 0), BuildingBlock: AJUNOK_clean_linker_0, # of connection points: 2
#     Edge 56, Type (0, 0), BuildingBlock: AJUNOK_clean_linker_0, # of connection points: 2
#     Edge 57, Type (0, 0), BuildingBlock: AJUNOK_clean_linker_0, # of connection points: 2
#     Edge 58, Type (0, 0), BuildingBlock: AJUNOK_clean_linker_0, # of connection points: 2
#     Edge 59, Type (0, 0), BuildingBlock: AJUNOK_clean_linker_0, # of connection points: 2
#     Edge 60, Type (0, 0), BuildingBlock: AJUNOK_clean_linker_0, # of connection points: 2
#     Edge 61, Type (0, 0), BuildingBlock: AJUNOK_clean_linker_0, # of connection points: 2
#     Edge 62, Type (0, 0), BuildingBlock: AJUNOK_clean_linker_0, # of connection points: 2
#     Edge 63, Type (0, 0), BuildingBlock: AJUNOK_clean_linker_0, # of connection points: 2
#     Edge 64, Type (0, 0), BuildingBlock: AJUNOK_clean_linker_0, # of connection points: 2
#     Edge 65, Type (0, 0), BuildingBlock: AJUNOK_clean_linker_0, # of connection points: 2
#     Edge 66, Type (0, 0), BuildingBlock: AJUNOK_clean_linker_0, # of connection points: 2
#     Edge 67, Type (0, 0), BuildingBlock: AJUNOK_clean_linker_0, # of connection points: 2
#     Edge 68, Type (0, 0), BuildingBlock: AJUNOK_clean_linker_0, # of connection points: 2
#     Edge 69, Type (0, 0), BuildingBlock: AJUNOK_clean_linker_0, # of connection points: 2
#     Edge 70, Type (0, 0), BuildingBlock: AJUNOK_clean_linker_0, # of connection points: 2
#     Edge 71, Type (0, 0), BuildingBlock: AJUNOK_clean_linker_0, # of connection points: 2
# Relax obj value: 0.404
# Max RMSD: 0.268
# Mean RMSD: 0.268
data_MOF--net-unw--node1-NAWXER_clean_sbu_0--edge1-AJUNOK_clean_linker_0
_symmetry_space_group_name_H-M    P1
_symmetry_Int_Tables_number       1
_symmetry_cell_setting            triclinic
loop_
_symmetry_equiv_pos_as_xyz
'x, y, z'
_cell_length_a     34.975739
_cell_length_b     34.991929
_cell_length_c     34.999641
_cell_angle_alpha  90.008706
_cell_angle_beta   89.952371
_cell_angle_gamma 89.972175
loop_
_atom_site_label
_atom_site_type_symbol
_atom_site_fract_x
_atom_site_fract_y
_atom_site_fract_z
_atom_type_partial_charge
C0 C 0.18371 0.35884 0.20725 0.0
C1 C 0.05999 0.36488 0.27295 0.0
O2 O 0.1519 0.34887 0.19231 0.0
Zn3 Zn 0.1201 0.36923 0.23357 0.0
O4 O 0.18396 0.37496 0.23998 0.0
Zn5 Zn 0.14568 0.39416 0.28311 0.0
O6 O 0.16562 0.36193 0.3241 0.0
O7 O 0.13894 0.33051 0.27632 0.0
O8 O 0.0866 0.38126 0.29199 0.0
O9 O 0.06525 0.35833 0.23753 0.0
O10 O 0.13431 0.42822 0.225 0.0
O11 O 0.15724 0.4487 0.2798 0.0
C12 C 0.15518 0.33037 0.30899 0.0
C13 C 0.1513 0.45426 0.24433 0.0
C14 C 0.65501 0.1768 0.20189 0.0
C15 C 0.64963 0.05513 0.27029 0.0
O16 O 0.66472 0.14454 0.18778 0.0
Zn17 Zn 0.64447 0.11456 0.23019 0.0
O18 O 0.63973 0.17842 0.23501 0.0
Zn19 Zn 0.62115 0.14119 0.27956 0.0
O20 O 0.65417 0.16193 0.31927 0.0
O21 O 0.68475 0.13398 0.27161 0.0
O22 O 0.63425 0.08217 0.28961 0.0
O23 O 0.65432 0.05967 0.23449 0.0
O24 O 0.58547 0.13006 0.2224 0.0
O25 O 0.5666 0.15337 0.27761 0.0
C26 C 0.68547 0.15106 0.30387 0.0
C27 C 0.56014 0.1476 0.24227 0.0
C28 C 0.94901 0.6479 0.26629 0.0
C29 C 0.82387 0.65102 0.20481 0.0
O30 O 0.94252 0.65453 0.23111 0.0
Zn31 Zn 0.88833 0.64168 0.22891 0.0
O32 O 0.92397 0.62941 0.28565 0.0
Zn33 Zn 0.86514 0.61326 0.27759 0.0
O34 O 0.85605 0.55831 0.27149 0.0
O35 O 0.87684 0.58282 0.21751 0.0
O36 O 0.82491 0.63313 0.2366 0.0
O37 O 0.85495 0.66279 0.18967 0.0
O38 O 0.86922 0.67731 0.27441 0.0
O39 O 0.84424 0.64208 0.32067 0.0
C40 C 0.86189 0.55484 0.23574 0.0
C41 C 0.8538 0.67473 0.30739 0.0
C42 C 0.32405 0.85843 0.30542 0.0
C43 C 0.44931 0.86176 0.24365 0.0
O44 O 0.35521 0.84711 0.32073 0.0
Zn45 Zn 0.3885 0.86801 0.28119 0.0
O46 O 0.325 0.87584 0.27335 0.0
Zn47 Zn 0.36524 0.89532 0.23204 0.0
O48 O 0.34478 0.86579 0.1894 0.0
O49 O 0.36979 0.83144 0.23628 0.0
O50 O 0.42406 0.87972 0.22414 0.0
O51 O 0.44293 0.85552 0.27894 0.0
O52 O 0.37599 0.927 0.29166 0.0
O53 O 0.35594 0.95015 0.23682 0.0
C54 C 0.35449 0.83342 0.20322 0.0
C55 C 0.3608 0.95432 0.27263 0.0
C56 C 0.15485 0.67957 0.703 0.0
C57 C 0.15237 0.55473 0.76594 0.0
O58 O 0.16563 0.64837 0.68734 0.0
Zn59 Zn 0.14607 0.61517 0.72779 0.0
O60 O 0.13857 0.67872 0.73565 0.0
Zn61 Zn 0.12011 0.63919 0.77775 0.0
O62 O 0.15179 0.65902 0.81935 0.0
O63 O 0.18401 0.634 0.77115 0.0
O64 O 0.13479 0.58029 0.78543 0.0
O65 O 0.1585 0.56074 0.73056 0.0
O66 O 0.08684 0.62742 0.71922 0.0
O67 O 0.06517 0.64951 0.77395 0.0
C68 C 0.18365 0.64946 0.80419 0.0
C69 C 0.06001 0.64325 0.73846 0.0
C70 C 0.32681 0.1509 0.70328 0.0
C71 C 0.44981 0.14609 0.76872 0.0
O72 O 0.35854 0.16228 0.68922 0.0
Zn73 Zn 0.39008 0.14078 0.72973 0.0
O74 O 0.32629 0.13361 0.7354 0.0
Zn75 Zn 0.36486 0.11373 0.77809 0.0
O76 O 0.34333 0.14358 0.82001 0.0
O77 O 0.37044 0.17757 0.77402 0.0
O78 O 0.42376 0.12863 0.78769 0.0
O79 O 0.44448 0.15226 0.73327 0.0
O80 O 0.37732 0.08198 0.71906 0.0
O81 O 0.35477 0.059 0.77304 0.0
C82 C 0.35397 0.17581 0.80655 0.0
C83 C 0.36125 0.05475 0.73748 0.0
C84 C 0.85062 0.3325 0.69934 0.0
C85 C 0.85539 0.45397 0.76775 0.0
O86 O 0.83976 0.36457 0.68569 0.0
Zn87 Zn 0.8608 0.39489 0.72739 0.0
O88 O 0.86713 0.33112 0.73185 0.0
Zn89 Zn 0.88643 0.36856 0.77584 0.0
O90 O 0.85521 0.34694 0.81663 0.0
O91 O 0.82259 0.37452 0.77018 0.0
O92 O 0.87219 0.42733 0.78644 0.0
O93 O 0.8497 0.44942 0.73211 0.0
O94 O 0.91979 0.38098 0.71766 0.0
O95 O 0.94114 0.35747 0.77186 0.0
C96 C 0.82325 0.35734 0.80237 0.0
C97 C 0.94629 0.36406 0.73644 0.0
C98 C 0.64716 0.95268 0.73782 0.0
C99 C 0.65359 0.83347 0.8108 0.0
O100 O 0.6533 0.94951 0.77355 0.0
Zn101 Zn 0.64342 0.89482 0.78032 0.0
O102 O 0.63174 0.92467 0.72003 0.0
Zn103 Zn 0.6196 0.866 0.73201 0.0
O104 O 0.56517 0.85372 0.7348 0.0
O105 O 0.58428 0.88021 0.7885 0.0
O106 O 0.63816 0.83083 0.77787 0.0
O107 O 0.66372 0.86607 0.82375 0.0
O108 O 0.68325 0.87393 0.73946 0.0
O109 O 0.65284 0.84406 0.69295 0.0
C110 C 0.55874 0.86191 0.76968 0.0
C111 C 0.68407 0.85565 0.70789 0.0
C112 C 0.20232 0.18198 0.36096 0.0
C113 C 0.2698 0.06006 0.36553 0.0
O114 O 0.18828 0.14996 0.3505 0.0
Zn115 Zn 0.23014 0.11951 0.37103 0.0
O116 O 0.23517 0.18325 0.37682 0.0
Zn117 Zn 0.2792 0.14558 0.3956 0.0
O118 O 0.31962 0.16685 0.3637 0.0
O119 O 0.27261 0.13911 0.3319 0.0
O120 O 0.2891 0.08668 0.38161 0.0
O121 O 0.23406 0.06487 0.36062 0.0
O122 O 0.22132 0.13404 0.42996 0.0
O123 O 0.27622 0.15686 0.45022 0.0
C124 C 0.305 0.15592 0.33208 0.0
C125 C 0.24071 0.15113 0.45588 0.0
C126 C 0.95289 0.27279 0.36293 0.0
C127 C 0.83328 0.20052 0.35531 0.0
O128 O 0.9496 0.23699 0.35723 0.0
Zn129 Zn 0.89465 0.23058 0.36649 0.0
O130 O 0.92483 0.29092 0.37791 0.0
Zn131 Zn 0.86601 0.27925 0.38952 0.0
O132 O 0.85311 0.27712 0.44369 0.0
O133 O 0.87848 0.2226 0.42532 0.0
O134 O 0.83057 0.23355 0.3706 0.0
O135 O 0.86599 0.18732 0.34575 0.0
O136 O 0.87463 0.27138 0.32619 0.0
O137 O 0.84474 0.31833 0.35603 0.0
C138 C 0.85986 0.24196 0.45028 0.0
C139 C 0.85662 0.30312 0.32504 0.0
C140 C 0.77075 0.85931 0.45385 0.0
C141 C 0.69968 0.85273 0.33363 0.0
O142 O 0.73498 0.85364 0.45014 0.0
Zn143 Zn 0.72923 0.86337 0.39526 0.0
O144 O 0.78916 0.87452 0.42612 0.0
Zn145 Zn 0.77801 0.88684 0.36735 0.0
O146 O 0.77575 0.94121 0.35507 0.0
O147 O 0.72106 0.92242 0.37972 0.0
O148 O 0.7327 0.86813 0.33132 0.0
O149 O 0.68625 0.84289 0.36613 0.0
O150 O 0.77041 0.82326 0.37503 0.0
O151 O 0.81743 0.85377 0.34599 0.0
C152 C 0.74052 0.94768 0.36165 0.0
C153 C 0.80232 0.82252 0.35725 0.0
C154 C 0.17487 0.81016 0.35468 0.0
C155 C 0.05336 0.74154 0.35815 0.0
O156 O 0.14286 0.824 0.34384 0.0
Zn157 Zn 0.11238 0.78184 0.36392 0.0
O158 O 0.17616 0.77733 0.37056 0.0
Zn159 Zn 0.13876 0.73296 0.38894 0.0
O160 O 0.16042 0.69269 0.35705 0.0
O161 O 0.13291 0.73969 0.32515 0.0
O162 O 0.08003 0.72266 0.37469 0.0
O163 O 0.0579 0.77724 0.35276 0.0
O164 O 0.12569 0.79044 0.42305 0.0
O165 O 0.14964 0.7361 0.44367 0.0
C166 C 0.1501 0.70748 0.32532 0.0
C167 C 0.14262 0.77138 0.44932 0.0
C168 C 0.20001 0.82872 0.65149 0.0
C169 C 0.26899 0.94984 0.6456 0.0
O170 O 0.18677 0.86074 0.66303 0.0
Zn171 Zn 0.22832 0.89108 0.6415 0.0
O172 O 0.23222 0.8273 0.63438 0.0
Zn173 Zn 0.27616 0.86424 0.61461 0.0
O174 O 0.31726 0.84193 0.64502 0.0
O175 O 0.27184 0.87046 0.67858 0.0
O176 O 0.28708 0.92295 0.6285 0.0
O177 O 0.23355 0.94547 0.65272 0.0
O178 O 0.21767 0.87806 0.58258 0.0
O179 O 0.27107 0.85362 0.56002 0.0
C180 C 0.30389 0.85303 0.67713 0.0
C181 C 0.23571 0.86109 0.55558 0.0
C182 C 0.14854 0.24365 0.56123 0.0
C183 C 0.15054 0.30732 0.68559 0.0
O184 O 0.15462 0.27905 0.56715 0.0
Zn185 Zn 0.14185 0.282 0.62142 0.0
O186 O 0.13083 0.22426 0.58677 0.0
Zn187 Zn 0.11544 0.23249 0.64561 0.0
O188 O 0.06034 0.23674 0.6553 0.0
O189 O 0.08259 0.2911 0.63292 0.0
O190 O 0.13395 0.27482 0.68505 0.0
O191 O 0.16148 0.32253 0.65426 0.0
O192 O 0.17938 0.23846 0.64093 0.0
O193 O 0.14662 0.19076 0.66614 0.0
C194 C 0.0554 0.27217 0.64848 0.0
C195 C 0.17867 0.20559 0.65675 0.0
C196 C 0.69643 0.15394 0.67558 0.0
C197 C 0.76607 0.15004 0.55461 0.0
O198 O 0.68265 0.16442 0.64345 0.0
Zn199 Zn 0.72523 0.14439 0.61337 0.0
O200 O 0.72941 0.13834 0.67715 0.0
Zn201 Zn 0.77425 0.12008 0.64028 0.0
O202 O 0.81403 0.15265 0.66189 0.0
O203 O 0.76682 0.18373 0.63377 0.0
O204 O 0.78489 0.13388 0.58153 0.0
O205 O 0.73026 0.15516 0.55884 0.0
O206 O 0.7171 0.08526 0.6272 0.0
O207 O 0.7715 0.06543 0.6517 0.0
C208 C 0.7989 0.18412 0.65117 0.0
C209 C 0.73632 0.05935 0.64452 0.0
C210 C 0.85561 0.70401 0.6849 0.0
C211 C 0.8618 0.76814 0.56083 0.0
O212 O 0.84425 0.68946 0.65341 0.0
Zn213 Zn 0.86605 0.72929 0.62098 0.0
O214 O 0.8736 0.73575 0.68464 0.0
Zn215 Zn 0.89421 0.77752 0.64572 0.0
O216 O 0.86489 0.82017 0.66678 0.0
O217 O 0.8302 0.77439 0.64031 0.0
O218 O 0.87978 0.78669 0.58679 0.0
O219 O 0.85395 0.73306 0.56656 0.0
O220 O 0.92487 0.71768 0.63341 0.0
O221 O 0.94889 0.77126 0.65583 0.0
C222 C 0.83243 0.80704 0.65643 0.0
C223 C 0.95253 0.73563 0.64932 0.0
C224 C 0.35573 0.20755 0.18398 0.0
C225 C 0.36528 0.27225 0.06043 0.0
O226 O 0.34572 0.19296 0.15204 0.0
Zn227 Zn 0.36823 0.23324 0.12067 0.0
O228 O 0.37324 0.23957 0.18449 0.0
Zn229 Zn 0.39454 0.28183 0.14625 0.0
O230 O 0.36391 0.32398 0.16625 0.0
O231 O 0.33075 0.27764 0.13894 0.0
O232 O 0.38199 0.29107 0.08701 0.0
O233 O 0.35798 0.237 0.06582 0.0
O234 O 0.42684 0.22242 0.1357 0.0
O235 O 0.44893 0.2768 0.15811 0.0
C236 C 0.33193 0.31033 0.15509 0.0
C237 C 0.45344 0.24111 0.15255 0.0
C238 C 0.33126 0.69844 0.85615 0.0
C239 C 0.4513 0.77037 0.85998 0.0
O240 O 0.36362 0.68525 0.84545 0.0
Zn241 Zn 0.39313 0.72847 0.86495 0.0
O242 O 0.32919 0.73143 0.87157 0.0
Zn243 Zn 0.36512 0.77695 0.88947 0.0
O244 O 0.34263 0.81621 0.85683 0.0
O245 O 0.37159 0.76953 0.82571 0.0
O246 O 0.42373 0.78845 0.87596 0.0
O247 O 0.44767 0.73467 0.85388 0.0
O248 O 0.37986 0.7202 0.92423 0.0
O249 O 0.35386 0.77391 0.94413 0.0
C250 C 0.35342 0.8012 0.82534 0.0
C251 C 0.3621 0.73896 0.95021 0.0
C252 C 0.2448 0.45062 0.85948 0.0
C253 C 0.30454 0.32475 0.85531 0.0
O254 O 0.27988 0.44374 0.85254 0.0
Zn255 Zn 0.28152 0.38948 0.86545 0.0
O256 O 0.2254 0.42589 0.87832 0.0
Zn257 Zn 0.23277 0.36692 0.89419 0.0
O258 O 0.2391 0.35759 0.94905 0.0
O259 O 0.2933 0.37746 0.9242 0.0
O260 O 0.27294 0.32609 0.87359 0.0
O261 O 0.32002 0.35569 0.84368 0.0
O262 O 0.23533 0.3714 0.83022 0.0
O263 O 0.18891 0.34718 0.86579 0.0
C264 C 0.27499 0.36279 0.9523 0.0
C265 C 0.20202 0.35676 0.83307 0.0
C266 C 0.67626 0.30635 0.85539 0.0
C267 C 0.5546 0.23823 0.86139 0.0
O268 O 0.64397 0.32058 0.84595 0.0
Zn269 Zn 0.61396 0.27816 0.86608 0.0
O270 O 0.67789 0.27315 0.87045 0.0
Zn271 Zn 0.64077 0.22863 0.88911 0.0
O272 O 0.66107 0.18889 0.85572 0.0
O273 O 0.63294 0.23675 0.82569 0.0
O274 O 0.58167 0.21889 0.87664 0.0
O275 O 0.5591 0.27403 0.85665 0.0
O276 O 0.6295 0.2856 0.92487 0.0
O277 O 0.65325 0.23048 0.94347 0.0
C278 C 0.64987 0.20441 0.82465 0.0
C279 C 0.64727 0.26578 0.95001 0.0
C280 C 0.70377 0.68498 0.85907 0.0
C281 C 0.7647 0.55922 0.86196 0.0
O282 O 0.6881 0.65394 0.84796 0.0
Zn283 Zn 0.72759 0.62033 0.86844 0.0
O284 O 0.73604 0.68382 0.87609 0.0
Zn285 Zn 0.77716 0.64327 0.89529 0.0
O286 O 0.81975 0.66322 0.86525 0.0
O287 O 0.77231 0.63861 0.83142 0.0
O288 O 0.78453 0.58433 0.87976 0.0
O289 O 0.7294 0.56587 0.85598 0.0
O290 O 0.7176 0.63298 0.92746 0.0
O291 O 0.77267 0.65297 0.95015 0.0
C292 C 0.80556 0.65357 0.83302 0.0
C293 C 0.73684 0.64824 0.95457 0.0
C294 C 0.67484 0.69911 0.15548 0.0
C295 C 0.55355 0.76809 0.15157 0.0
O296 O 0.6427 0.68519 0.16584 0.0
Zn297 Zn 0.61257 0.7276 0.14582 0.0
O298 O 0.67638 0.73213 0.14002 0.0
Zn299 Zn 0.63919 0.77678 0.12185 0.0
O300 O 0.66048 0.81657 0.15449 0.0
O301 O 0.63267 0.76915 0.1855 0.0
O302 O 0.58045 0.78708 0.13557 0.0
O303 O 0.5579 0.7323 0.15651 0.0
O304 O 0.62713 0.71955 0.08669 0.0
O305 O 0.65056 0.77451 0.06725 0.0
C306 C 0.64986 0.80135 0.18593 0.0
C307 C 0.64448 0.73916 0.06107 0.0
C308 C 0.20136 0.65488 0.17845 0.0
C309 C 0.2723 0.64771 0.05818 0.0
O310 O 0.18792 0.66442 0.14587 0.0
Zn311 Zn 0.23096 0.64386 0.11688 0.0
O312 O 0.23444 0.63962 0.18085 0.0
Zn313 Zn 0.27979 0.6207 0.14483 0.0
O314 O 0.31914 0.65389 0.1659 0.0
O315 O 0.27205 0.68417 0.13673 0.0
O316 O 0.29084 0.63273 0.08594 0.0
O317 O 0.23649 0.65319 0.06195 0.0
O318 O 0.22297 0.58499 0.13291 0.0
O319 O 0.27771 0.56644 0.15759 0.0
C320 C 0.30397 0.68505 0.15445 0.0
C321 C 0.24246 0.55994 0.15122 0.0
C322 C 0.74146 0.35678 0.05449 0.0
C323 C 0.81001 0.35292 0.17577 0.0
O324 O 0.77715 0.35119 0.05895 0.0
Zn325 Zn 0.7818 0.36238 0.11338 0.0
O326 O 0.72267 0.37347 0.08115 0.0
Zn327 Zn 0.73303 0.38771 0.13984 0.0
O328 O 0.73664 0.44242 0.15078 0.0
O329 O 0.79086 0.42149 0.12671 0.0
O330 O 0.77729 0.36906 0.17708 0.0
O331 O 0.82381 0.34195 0.14378 0.0
O332 O 0.73942 0.32387 0.13393 0.0
O333 O 0.6926 0.35599 0.16158 0.0
C334 C 0.77195 0.44787 0.1437 0.0
C335 C 0.70724 0.32418 0.1512 0.0
C336 C 0.18397 0.51917 0.16269 0.0
C337 C 0.22115 0.53028 0.1737 0.0
C338 C 0.16085 0.4961 0.18634 0.0
C339 C 0.17322 0.48407 0.22275 0.0
H340 H 0.1725 0.52853 0.13552 0.0
H341 H 0.13303 0.48742 0.1759 0.0
S342 S 0.26797 0.50542 0.26575 0.0
N343 N 0.26913 0.5271 0.22389 0.0
N344 N 0.22561 0.48482 0.26837 0.0
C345 C 0.21017 0.49529 0.23431 0.0
C346 C 0.23409 0.51796 0.20984 0.0
C347 C 0.51825 0.15889 0.18452 0.0
C348 C 0.53005 0.16999 0.22145 0.0
C349 C 0.49476 0.18253 0.16178 0.0
C350 C 0.48308 0.21904 0.17427 0.0
H351 H 0.52742 0.13167 0.17295 0.0
H352 H 0.48562 0.17208 0.13413 0.0
S353 S 0.50612 0.26221 0.26852 0.0
N354 N 0.52775 0.2203 0.26937 0.0
N355 N 0.4848 0.26478 0.22655 0.0
C356 C 0.49493 0.23064 0.211 0.0
C357 C 0.51797 0.20617 0.23454 0.0
C358 C 0.7822 0.48889 0.20173 0.0
C359 C 0.79392 0.47792 0.16475 0.0
C360 C 0.80561 0.51146 0.22546 0.0
C361 C 0.84163 0.52472 0.21315 0.0
H362 H 0.75514 0.47894 0.21306 0.0
H363 H 0.79475 0.51953 0.25331 0.0
S364 S 0.88585 0.50448 0.11883 0.0
N365 N 0.84449 0.48176 0.11729 0.0
N366 N 0.88764 0.52535 0.16112 0.0
C367 C 0.85359 0.51423 0.17614 0.0
C368 C 0.83004 0.49062 0.15223 0.0
C369 C 0.51214 0.8263 0.16146 0.0
C370 C 0.52429 0.78996 0.17387 0.0
C371 C 0.48948 0.85013 0.18483 0.0
C372 C 0.47898 0.83935 0.22226 0.0
H373 H 0.52033 0.83651 0.13341 0.0
H374 H 0.47986 0.8772 0.17331 0.0
S375 S 0.50515 0.74784 0.26945 0.0
N376 N 0.52484 0.74485 0.22668 0.0
N377 N 0.48332 0.78965 0.27067 0.0
C378 C 0.49167 0.80337 0.23531 0.0
C379 C 0.5139 0.77873 0.21115 0.0
C380 C 0.18557 0.49008 0.84744 0.0
C381 C 0.22327 0.48014 0.83697 0.0
C382 C 0.16215 0.51259 0.82357 0.0
C383 C 0.1748 0.52531 0.78749 0.0
H384 H 0.17384 0.48014 0.87431 0.0
H385 H 0.13387 0.5203 0.8336 0.0
S386 S 0.27108 0.5076 0.7461 0.0
N387 N 0.27213 0.48546 0.78772 0.0
N388 N 0.22811 0.52683 0.74289 0.0
C389 C 0.21234 0.51544 0.77653 0.0
C390 C 0.23652 0.49328 0.8012 0.0
C391 C 0.51221 0.18072 0.85157 0.0
C392 C 0.52503 0.21683 0.83916 0.0
C393 C 0.4893 0.15725 0.82811 0.0
C394 C 0.47935 0.16814 0.79057 0.0
H395 H 0.52007 0.17041 0.87967 0.0
H396 H 0.47916 0.13035 0.83957 0.0
S397 S 0.50731 0.25915 0.74343 0.0
N398 N 0.52669 0.26187 0.78632 0.0
N399 N 0.48486 0.21771 0.74214 0.0
C400 C 0.49269 0.20389 0.77757 0.0
C401 C 0.51508 0.2282 0.80182 0.0
C402 C 0.82304 0.51827 0.85011 0.0
C403 C 0.78571 0.52932 0.83946 0.0
C404 C 0.84603 0.49527 0.82621 0.0
C405 C 0.83338 0.48331 0.7899 0.0
H406 H 0.83476 0.52771 0.87714 0.0
H407 H 0.87402 0.48671 0.83633 0.0
S408 S 0.73795 0.50401 0.74804 0.0
N409 N 0.73715 0.52577 0.78987 0.0
N410 N 0.78042 0.48367 0.74493 0.0
C411 C 0.7962 0.49429 0.77878 0.0
C412 C 0.77241 0.51685 0.80351 0.0
C413 C 0.51745 0.80403 0.78013 0.0
C414 C 0.52848 0.84105 0.79165 0.0
C415 C 0.49467 0.7805 0.80357 0.0
C416 C 0.48123 0.79304 0.83944 0.0
H417 H 0.52753 0.79249 0.75322 0.0
H418 H 0.48666 0.75258 0.79289 0.0
S419 S 0.50135 0.88763 0.88307 0.0
N420 N 0.52431 0.88886 0.84182 0.0
N421 N 0.48042 0.84537 0.88506 0.0
C422 C 0.4917 0.83012 0.85117 0.0
C423 C 0.5155 0.85384 0.82758 0.0
C424 C 0.15843 0.18599 0.519 0.0
C425 C 0.1709 0.22216 0.53166 0.0
C426 C 0.18176 0.16243 0.49602 0.0
C427 C 0.21922 0.17327 0.48567 0.0
H428 H 0.13035 0.17569 0.52705 0.0
H429 H 0.17021 0.13548 0.48609 0.0
S430 S 0.26643 0.26455 0.51252 0.0
N431 N 0.22373 0.2673 0.53243 0.0
N432 N 0.26761 0.22296 0.49031 0.0
C433 C 0.23228 0.20912 0.49868 0.0
C434 C 0.20817 0.23352 0.52125 0.0
C435 C 0.82455 0.1599 0.51342 0.0
C436 C 0.78807 0.17224 0.52537 0.0
C437 C 0.84833 0.1832 0.49064 0.0
C438 C 0.83739 0.22051 0.47986 0.0
H439 H 0.83488 0.13196 0.52183 0.0
H440 H 0.87552 0.17174 0.4812 0.0
S441 S 0.74543 0.26744 0.50533 0.0
N442 N 0.74263 0.22483 0.52533 0.0
N443 N 0.78734 0.26869 0.48368 0.0
C444 C 0.80126 0.23347 0.49235 0.0
C445 C 0.77666 0.20938 0.51465 0.0
C446 C 0.78032 0.80297 0.49737 0.0
C447 C 0.79312 0.83875 0.48397 0.0
C448 C 0.80374 0.77928 0.52 0.0
C449 C 0.84091 0.79047 0.5309 0.0
H450 H 0.75231 0.7925 0.48936 0.0
H451 H 0.79205 0.75243 0.53001 0.0
S452 S 0.88809 0.88162 0.50402 0.0
N453 N 0.84579 0.88398 0.4832 0.0
N454 N 0.88907 0.84031 0.52684 0.0
C455 C 0.85391 0.82636 0.51807 0.0
C456 C 0.8303 0.85019 0.49442 0.0
C457 C 0.20037 0.78084 0.49095 0.0
C458 C 0.16376 0.79318 0.47943 0.0
C459 C 0.22441 0.80412 0.51332 0.0
C460 C 0.2128 0.84065 0.52582 0.0
H461 H 0.2112 0.75339 0.48158 0.0
H462 H 0.25195 0.79279 0.52181 0.0
S463 S 0.11953 0.88645 0.50416 0.0
N464 N 0.11729 0.84474 0.48217 0.0
N465 N 0.16173 0.88772 0.52527 0.0
C466 C 0.17611 0.85318 0.51487 0.0
C467 C 0.15188 0.82973 0.49151 0.0
C468 C 0.70329 0.99615 0.72686 0.0
C469 C 0.66734 0.98253 0.71477 0.0
C470 C 0.72652 0.01866 0.70287 0.0
C471 C 0.71469 0.02922 0.66582 0.0
H472 H 0.71421 0.98845 0.75477 0.0
H473 H 0.7535 0.02892 0.71405 0.0
S474 S 0.62293 1.00152 0.62035 0.0
N475 N 0.62131 0.98106 0.66285 0.0
N476 N 0.66413 0.0245 0.61851 0.0
C477 C 0.67866 0.01609 0.6535 0.0
C478 C 0.6553 0.99255 0.67769 0.0
C479 C 0.99528 0.72459 0.70593 0.0
C480 C 0.98241 0.71273 0.66964 0.0
C481 C 0.01805 0.70078 0.72908 0.0
C482 C 0.02956 0.66413 0.71686 0.0
H483 H 0.98682 0.75219 0.71715 0.0
H484 H 0.02773 0.71179 0.75633 0.0
S485 S 1.00394 0.61929 0.62421 0.0
N486 N 0.98257 0.66138 0.62293 0.0
N487 N 0.02648 0.61738 0.66564 0.0
C488 C 0.01712 0.652 0.68054 0.0
C489 C 0.99333 0.676 0.65724 0.0
C490 C 0.30366 0.01332 0.72694 0.0
C491 C 0.34035 0.02502 0.71504 0.0
C492 C 0.27984 0.99126 0.70318 0.0
C493 C 0.29177 0.97928 0.66659 0.0
H494 H 0.29261 0.0223 0.75444 0.0
H495 H 0.25223 0.98258 0.71419 0.0
S496 S 0.38534 1.00178 0.62179 0.0
N497 N 0.38721 0.0232 0.66381 0.0
N498 N 0.3432 0.98056 0.6199 0.0
C499 C 0.32854 0.99046 0.65447 0.0
C500 C 0.35254 0.01354 0.67841 0.0
C501 C 0.01264 0.28323 0.70511 0.0
C502 C 0.02443 0.29416 0.66817 0.0
C503 C 0.98945 0.30712 0.72782 0.0
C504 C 0.97642 0.34288 0.71451 0.0
H505 H 0.02245 0.25648 0.71722 0.0
H506 H 0.98082 0.29688 0.75573 0.0
S507 S 0.99824 0.38461 0.61939 0.0
N508 N 0.02119 0.34335 0.61936 0.0
N509 N 0.97658 0.38747 0.66126 0.0
C510 C 0.98755 0.35389 0.67737 0.0
C511 C 0.01173 0.32983 0.6545 0.0
C512 C 0.68236 0.98936 0.3513 0.0
C513 C 0.71925 0.97776 0.33969 0.0
C514 C 0.6593 0.01302 0.32814 0.0
C515 C 0.67141 0.02506 0.29163 0.0
H516 H 0.67109 0.97994 0.37855 0.0
H517 H 0.63173 0.02207 0.33899 0.0
S518 S 0.76539 1.00276 0.24727 0.0
N519 N 0.76671 0.98071 0.28893 0.0
N520 N 0.72327 0.02394 0.24535 0.0
C521 C 0.70807 0.0134 0.27951 0.0
C522 C 0.73195 0.99021 0.30349 0.0
C523 C 0.98935 0.65941 0.32501 0.0
C524 C 0.97857 0.67035 0.28773 0.0
C525 C 0.01213 0.68317 0.3483 0.0
C526 C 0.0241 0.7196 0.33596 0.0
H527 H 0.97991 0.63224 0.33647 0.0
H528 H 0.02055 0.67284 0.37623 0.0
S529 S 1.00394 0.76225 0.24084 0.0
N530 N 0.98232 0.72037 0.23959 0.0
N531 N 0.02398 0.76504 0.28341 0.0
C532 C 0.01335 0.73102 0.29885 0.0
C533 C 0.99103 0.70644 0.27478 0.0
C534 C 0.35138 0.9959 0.33086 0.0
C535 C 0.3391 0.98414 0.29434 0.0
C536 C 0.32829 0.01913 0.35445 0.0
C537 C 0.29121 0.0304 0.34326 0.0
H538 H 0.3791 0.98696 0.34139 0.0
H539 H 0.33963 0.02843 0.38169 0.0
S540 S 0.2447 0.00617 0.25093 0.0
N541 N 0.28697 0.98535 0.24844 0.0
N542 N 0.24346 0.02772 0.29285 0.0
C543 C 0.27838 0.0183 0.30703 0.0
C544 C 0.30229 0.99562 0.28261 0.0
C545 C 0.01872 0.30697 0.28306 0.0
C546 C 0.02976 0.34391 0.29481 0.0
C547 C 0.99608 0.28325 0.30646 0.0
C548 C 0.98289 0.29548 0.34253 0.0
H549 H 0.02864 0.2957 0.25598 0.0
H550 H 0.98791 0.25544 0.29558 0.0
S551 S 1.00326 0.38972 0.38679 0.0
N552 N 0.02597 0.39128 0.34541 0.0
N553 N 0.98232 0.34745 0.38856 0.0
C554 C 0.99341 0.33247 0.35449 0.0
C555 C 0.01705 0.35638 0.33094 0.0
C556 C 0.67906 0.6576 0.99684 0.0
C557 C 0.7153 0.67012 0.9844 0.0
C558 C 0.65556 0.68068 0.02017 0.0
C559 C 0.66654 0.71796 0.031 0.0
H560 H 0.66869 0.62969 0.98838 0.0
H561 H 0.62858 0.66909 0.02998 0.0
S562 S 0.75788 0.76531 1.00436 0.0
N563 N 0.76054 0.72283 0.98405 0.0
N564 N 0.71633 0.7663 0.02671 0.0
C565 C 0.70241 0.73109 0.01804 0.0
C566 C 0.72674 0.70721 0.99519 0.0
C567 C 0.28112 0.70373 0.01409 0.0
C568 C 0.29447 0.66831 0.02793 0.0
C569 C 0.30421 0.72752 0.99122 0.0
C570 C 0.34161 0.71681 0.98053 0.0
H571 H 0.25289 0.71383 0.02189 0.0
H572 H 0.29209 0.75404 0.98084 0.0
S573 S 0.39024 0.62675 0.00853 0.0
N574 N 0.34791 0.62395 0.02931 0.0
N575 N 0.3906 0.66781 0.98525 0.0
C576 C 0.35518 0.68129 0.99381 0.0
C577 C 0.33189 0.65736 0.01769 0.0
C578 C 0.2842 0.30691 0.99647 0.0
C579 C 0.29734 0.34236 0.98253 0.0
C580 C 0.30741 0.28333 0.01943 0.0
C581 C 0.3447 0.29431 0.03012 0.0
H582 H 0.25606 0.29662 0.98867 0.0
H583 H 0.29547 0.25676 0.02987 0.0
S584 S 0.39271 0.38462 1.00199 0.0
N585 N 0.35045 0.38706 0.98107 0.0
N586 N 0.3933 0.34364 0.02543 0.0
C587 C 0.35802 0.32989 0.01681 0.0
C588 C 0.33465 0.35359 0.99277 0.0
C589 C 0.68267 0.34703 0.01389 0.0
C590 C 0.71936 0.33477 0.0252 0.0
C591 C 0.65878 0.32389 0.99114 0.0
C592 C 0.66985 0.28683 0.97969 0.0
H593 H 0.67224 0.37479 0.02282 0.0
H594 H 0.6314 0.33529 0.98221 0.0
S595 S 0.76248 0.24023 1.00298 0.0
N596 N 0.76523 0.28254 0.02363 0.0
N597 N 0.72028 0.23899 0.98195 0.0
C598 C 0.70622 0.27395 0.99141 0.0
C599 C 0.73093 0.29789 0.01374 0.0
C600 C 0.15132 0.25933 0.30689 0.0
C601 C 0.16239 0.29273 0.3268 0.0
C602 C 0.16169 0.22297 0.31967 0.0
C603 C 0.18348 0.21867 0.35285 0.0
H604 H 0.13585 0.26111 0.28015 0.0
H605 H 0.15468 0.19841 0.30218 0.0
S606 S 0.21285 0.29568 0.4198 0.0
N607 N 0.19149 0.3184 0.38438 0.0
N608 N 0.21073 0.24985 0.40881 0.0
C609 C 0.19183 0.25137 0.37491 0.0
C610 C 0.18137 0.28849 0.36179 0.0
C611 C 0.79303 0.16034 0.31276 0.0
C612 C 0.79729 0.18048 0.347 0.0
C613 C 0.75669 0.14965 0.30001 0.0
C614 C 0.72334 0.15876 0.32105 0.0
H615 H 0.8175 0.15503 0.29452 0.0
H616 H 0.7548 0.13558 0.27251 0.0
S617 S 0.72062 0.20453 0.4165 0.0
N618 N 0.76632 0.20418 0.40467 0.0
N619 N 0.69789 0.1843 0.38046 0.0
C620 C 0.72769 0.17611 0.35688 0.0
C621 C 0.76472 0.18687 0.36992 0.0
C622 C 0.81104 0.71504 0.34735 0.0
C623 C 0.84536 0.71075 0.32731 0.0
C624 C 0.79827 0.75135 0.35812 0.0
C625 C 0.81939 0.78466 0.3492 0.0
H626 H 0.79276 0.69059 0.35258 0.0
H627 H 0.7707 0.75327 0.37211 0.0
S628 S 0.91498 0.78732 0.30354 0.0
N629 N 0.90312 0.74166 0.30372 0.0
N630 N 0.87889 0.81005 0.3238 0.0
C631 C 0.85526 0.7803 0.33184 0.0
C632 C 0.86831 0.74328 0.32099 0.0
C633 C 0.25294 0.86148 0.30168 0.0
C634 C 0.28603 0.85079 0.32232 0.0
C635 C 0.21638 0.85087 0.31382 0.0
C636 C 0.21158 0.82923 0.34706 0.0
H637 H 0.25518 0.87683 0.2749 0.0
H638 H 0.1921 0.85761 0.29583 0.0
S639 S 0.28751 0.80066 0.41558 0.0
N640 N 0.31076 0.82207 0.38051 0.0
N641 N 0.24188 0.8024 0.40369 0.0
C642 C 0.24393 0.82118 0.36974 0.0
C643 C 0.28122 0.83186 0.35728 0.0
C644 C 0.15198 0.7506 0.70707 0.0
C645 C 0.16161 0.71758 0.68578 0.0
C646 C 0.16164 0.78719 0.69436 0.0
C647 C 0.18124 0.79209 0.6599 0.0
H648 H 0.13827 0.74831 0.73473 0.0
H649 H 0.1559 0.81141 0.71279 0.0
S650 S 0.20617 0.71638 0.58969 0.0
N651 N 0.18699 0.693 0.62594 0.0
N652 N 0.20489 0.76198 0.60173 0.0
C653 C 0.18813 0.75981 0.63673 0.0
C654 C 0.17842 0.72247 0.64975 0.0
C655 C 0.28591 0.19242 0.66264 0.0
C656 C 0.28973 0.15981 0.68541 0.0
C657 C 0.24974 0.20577 0.65227 0.0
C658 C 0.21597 0.18707 0.66433 0.0
H659 H 0.31079 0.209 0.65457 0.0
H660 H 0.24845 0.23196 0.63581 0.0
S661 S 0.21129 0.09592 0.71799 0.0
N662 N 0.25738 0.1056 0.71492 0.0
N663 N 0.18922 0.13122 0.69576 0.0
C664 C 0.21958 0.15266 0.68449 0.0
C665 C 0.25652 0.13892 0.69494 0.0
C666 C 0.79576 0.25523 0.64895 0.0
C667 C 0.81619 0.22185 0.65916 0.0
C668 C 0.80852 0.29156 0.65945 0.0
C669 C 0.84218 0.29588 0.68052 0.0
H670 H 0.76872 0.25341 0.63399 0.0
H671 H 0.79072 0.31609 0.65303 0.0
S672 S 0.91021 0.21899 0.70784 0.0
N673 N 0.87452 0.19627 0.68693 0.0
N674 N 0.89885 0.26477 0.70643 0.0
C675 C 0.86458 0.26322 0.68819 0.0
C676 C 0.85149 0.22613 0.6776 0.0
C677 C 0.79165 0.8462 0.69945 0.0
C678 C 0.79618 0.82655 0.66496 0.0
C679 C 0.75521 0.85656 0.71223 0.0
C680 C 0.722 0.84763 0.69097 0.0
H681 H 0.81601 0.85145 0.71781 0.0
H682 H 0.75314 0.8703 0.73989 0.0
S683 S 0.71989 0.80279 0.59507 0.0
N684 N 0.76554 0.80323 0.607 0.0
N685 N 0.6969 0.82254 0.63128 0.0
C686 C 0.72656 0.83058 0.65502 0.0
C687 C 0.76372 0.82015 0.64194 0.0
C688 C 0.34787 0.1953 0.29114 0.0
C689 C 0.32299 0.16425 0.29487 0.0
C690 C 0.35949 0.20783 0.25506 0.0
C691 C 0.34661 0.1898 0.22126 0.0
H692 H 0.35692 0.21131 0.31607 0.0
H693 H 0.37767 0.23283 0.25381 0.0
S694 S 0.2867 0.10265 0.21622 0.0
N695 N 0.29004 0.11217 0.26229 0.0
N696 N 0.31155 0.13627 0.19435 0.0
C697 C 0.32403 0.15693 0.22478 0.0
C698 C 0.31227 0.14402 0.2616 0.0
C699 C 0.85939 0.29873 0.25404 0.0
C700 C 0.84921 0.31986 0.28698 0.0
C701 C 0.84939 0.31108 0.21743 0.0
C702 C 0.82885 0.34499 0.21244 0.0
H703 H 0.87386 0.27146 0.25642 0.0
H704 H 0.85565 0.29278 0.19324 0.0
S705 S 0.80184 0.41461 0.28799 0.0
N706 N 0.82209 0.379 0.31142 0.0
N707 N 0.80347 0.40251 0.24243 0.0
C708 C 0.82125 0.36801 0.24467 0.0
C709 C 0.83133 0.35536 0.28201 0.0
C710 C 0.64797 0.79816 0.25708 0.0
C711 C 0.65785 0.81866 0.22365 0.0
C712 C 0.65883 0.81089 0.29334 0.0
C713 C 0.67992 0.84457 0.29747 0.0
H714 H 0.63308 0.77108 0.25534 0.0
H715 H 0.6528 0.79302 0.3179 0.0
S716 S 0.70629 0.91277 0.22047 0.0
N717 N 0.68519 0.8771 0.19792 0.0
N718 N 0.70536 0.90134 0.26622 0.0
C719 C 0.68713 0.86705 0.26479 0.0
C720 C 0.67619 0.85401 0.22782 0.0
C721 C 0.1596 0.6965 0.21812 0.0
C722 C 0.18145 0.66323 0.21452 0.0
C723 C 0.1483 0.7095 0.25416 0.0
C724 C 0.15849 0.6897 0.2879 0.0
H725 H 0.15325 0.71388 0.1933 0.0
H726 H 0.1328 0.73627 0.25546 0.0
S727 S 0.20894 0.59667 0.29255 0.0
N728 N 0.20797 0.60743 0.24664 0.0
N729 N 0.18699 0.63221 0.31454 0.0
C730 C 0.17761 0.65467 0.28429 0.0
C731 C 0.189 0.64135 0.24753 0.0
C732 C 0.35379 0.79723 0.75422 0.0
C733 C 0.34461 0.81813 0.7876 0.0
C734 C 0.34299 0.80999 0.71797 0.0
C735 C 0.32259 0.8441 0.71372 0.0
H736 H 0.36825 0.76991 0.75599 0.0
H737 H 0.34876 0.79196 0.69346 0.0
S738 S 0.29749 0.91297 0.79063 0.0
N739 N 0.31814 0.87705 0.81323 0.0
N740 N 0.29801 0.90133 0.74492 0.0
C741 C 0.31567 0.86673 0.74639 0.0
C742 C 0.32659 0.85367 0.78338 0.0
C743 C 0.15981 0.31607 0.79301 0.0
C744 C 0.18137 0.34942 0.79723 0.0
C745 C 0.14839 0.30388 0.75673 0.0
C746 C 0.15821 0.32459 0.72341 0.0
H747 H 0.15395 0.29796 0.81742 0.0
H748 H 0.13331 0.27692 0.75485 0.0
S749 S 0.20743 0.4183 0.72073 0.0
N750 N 0.20692 0.40635 0.76636 0.0
N751 N 0.18573 0.3831 0.69802 0.0
C752 C 0.17682 0.35978 0.72776 0.0
C753 C 0.18831 0.37228 0.76475 0.0
C754 C 0.65639 0.19554 0.717 0.0
C755 C 0.67725 0.16179 0.71216 0.0
C756 C 0.64634 0.20805 0.75359 0.0
C757 C 0.65686 0.18727 0.78663 0.0
H758 H 0.64995 0.21364 0.69273 0.0
H759 H 0.63162 0.2352 0.75587 0.0
S760 S 0.70486 0.09284 0.78802 0.0
N761 N 0.70303 0.10463 0.74239 0.0
N762 N 0.68442 0.12846 0.81131 0.0
C763 C 0.6749 0.15182 0.7818 0.0
C764 C 0.68499 0.139 0.74449 0.0
C765 C 0.85835 0.70659 0.75601 0.0
C766 C 0.84736 0.68669 0.72257 0.0
C767 C 0.8473 0.69414 0.79231 0.0
C768 C 0.82488 0.66136 0.7965 0.0
H769 H 0.87433 0.73304 0.75428 0.0
H770 H 0.85435 0.71159 0.81688 0.0
S771 S 0.79501 0.59472 0.71939 0.0
N772 N 0.81737 0.62961 0.69681 0.0
N773 N 0.79681 0.60585 0.76519 0.0
C774 C 0.81642 0.63937 0.76377 0.0
C775 C 0.82758 0.65213 0.72674 0.0
C776 C 0.25481 0.36314 0.20821 0.0
C777 C 0.22121 0.35125 0.18913 0.0
C778 C 0.29109 0.35232 0.19542 0.0
C779 C 0.29515 0.3293 0.16302 0.0
H780 H 0.25326 0.37966 0.23434 0.0
H781 H 0.31581 0.3601 0.21236 0.0
S782 S 0.21738 0.2973 0.09811 0.0
N783 N 0.195 0.31992 0.13299 0.0
N784 N 0.26334 0.29996 0.10844 0.0
C785 C 0.26218 0.32012 0.14164 0.0
C786 C 0.22515 0.33099 0.15481 0.0
C787 C 0.291 0.6561 0.8158 0.0
C788 C 0.29493 0.67864 0.84852 0.0
C789 C 0.25476 0.64526 0.803 0.0
C790 C 0.22112 0.65671 0.8224 0.0
H791 H 0.31573 0.6489 0.79857 0.0
H792 H 0.25326 0.62922 0.77658 0.0
S793 S 0.21719 0.70887 0.91444 0.0
N794 N 0.26314 0.70669 0.90383 0.0
N795 N 0.19485 0.68675 0.87926 0.0
C796 C 0.225 0.67626 0.85711 0.0
C797 C 0.26199 0.68712 0.87029 0.0
C798 C 0.29905 0.25374 0.85596 0.0
C799 C 0.32086 0.28662 0.84719 0.0
C800 C 0.31128 0.21718 0.84544 0.0
C801 C 0.34573 0.21223 0.82578 0.0
H802 H 0.2714 0.25617 0.86972 0.0
H803 H 0.29256 0.19307 0.85065 0.0
S804 S 0.41687 0.28751 0.80235 0.0
N805 N 0.38098 0.31092 0.82219 0.0
N806 N 0.40422 0.24207 0.80256 0.0
C807 C 0.36927 0.24434 0.81947 0.0
C808 C 0.35676 0.28161 0.83008 0.0
C809 C 0.71612 0.34947 0.81533 0.0
C810 C 0.71277 0.3256 0.84719 0.0
C811 C 0.75209 0.36096 0.80232 0.0
C812 C 0.78606 0.34893 0.82067 0.0
H813 H 0.69106 0.35745 0.79898 0.0
H814 H 0.75314 0.37815 0.7766 0.0
S815 S 0.79175 0.29263 0.91014 0.0
N816 N 0.74562 0.29511 0.90051 0.0
N817 N 0.81339 0.31638 0.87558 0.0
C818 C 0.78282 0.32772 0.85447 0.0
C819 C 0.74612 0.31614 0.86784 0.0
C820 C 0.70846 0.75609 0.86083 0.0
C821 C 0.68692 0.72308 0.8518 0.0
C822 C 0.69599 0.79264 0.85052 0.0
C823 C 0.66153 0.79745 0.8309 0.0
H824 H 0.73615 0.75377 0.87447 0.0
H825 H 0.71463 0.81682 0.85564 0.0
S826 S 0.59075 0.72188 0.80746 0.0
N827 N 0.62682 0.69857 0.82703 0.0
N828 N 0.60313 0.76739 0.80791 0.0
C829 C 0.6381 0.76524 0.8247 0.0
C830 C 0.65087 0.72799 0.83504 0.0
C831 C 0.71623 0.6588 0.19671 0.0
C832 C 0.71142 0.6799 0.16315 0.0
C833 C 0.75279 0.64835 0.20894 0.0
C834 C 0.78584 0.65864 0.18802 0.0
H835 H 0.69195 0.65244 0.21489 0.0
H836 H 0.75505 0.63347 0.23598 0.0
S837 S 0.78729 0.70736 0.09404 0.0
N838 N 0.74166 0.70589 0.10606 0.0
N839 N 0.81056 0.68643 0.12934 0.0
C840 C 0.78103 0.67704 0.15279 0.0
C841 C 0.74374 0.68758 0.14027 0.0
C842 C 0.31255 0.79259 0.16306 0.0
C843 C 0.34641 0.79708 0.18376 0.0
C844 C 0.30003 0.75617 0.15247 0.0
C845 C 0.32094 0.72296 0.16222 0.0
H846 H 0.2944 0.81698 0.15714 0.0
H847 H 0.27278 0.75412 0.13792 0.0
S848 S 0.41552 0.72076 0.20982 0.0
N849 N 0.40366 0.76642 0.20886 0.0
N850 N 0.37987 0.69782 0.18912 0.0
C851 C 0.35643 0.72749 0.18024 0.0
C852 C 0.36923 0.76462 0.19093 0.0
C853 C 0.70854 0.25302 0.14833 0.0
C854 C 0.68938 0.2868 0.15966 0.0
C855 C 0.69569 0.21694 0.15964 0.0
C856 C 0.66321 0.2133 0.18266 0.0
H857 H 0.73472 0.2543 0.13182 0.0
H858 H 0.71261 0.19207 0.15223 0.0
S859 S 0.5983 0.29156 0.21362 0.0
N860 N 0.63319 0.31354 0.19065 0.0
N861 N 0.60865 0.24557 0.21165 0.0
C862 C 0.64188 0.24641 0.19147 0.0
C863 C 0.65506 0.28322 0.18005 0.0
loop_
_geom_bond_atom_site_label_1
_geom_bond_atom_site_label_2
_geom_bond_distance
_geom_bond_site_symmetry_2
_ccdc_geom_bond_type
C0 O2 1.247 . S
C0 O4 1.258 . S
C1 O8 1.247 . S
C1 O9 1.258 . S
O2 C0 1.247 . S
O2 Zn3 2.028 . S
Zn3 O2 2.028 . S
Zn3 O7 2.035 . S
Zn3 O9 2.035 . S
Zn3 O10 2.028 . S
O4 C0 1.258 . S
O4 Zn5 2.035 . S
Zn5 O4 2.035 . S
Zn5 O6 2.028 . S
Zn5 O8 2.028 . S
Zn5 O11 2.035 . S
O6 Zn5 2.028 . S
O6 C12 1.247 . S
O7 Zn3 2.035 . S
O7 C12 1.258 . S
O8 C1 1.247 . S
O8 Zn5 2.028 . S
O9 C1 1.258 . S
O9 Zn3 2.035 . S
O10 Zn3 2.028 . S
O10 C13 1.247 . S
O11 Zn5 2.035 . S
O11 C13 1.258 . S
C12 O6 1.247 . S
C12 O7 1.258 . S
C13 O10 1.247 . S
C13 O11 1.258 . S
C14 O16 1.247 . S
C14 O18 1.258 . S
C15 O22 1.247 . S
C15 O23 1.258 . S
O16 C14 1.247 . S
O16 Zn17 2.028 . S
Zn17 O16 2.028 . S
Zn17 O21 2.035 . S
Zn17 O23 2.035 . S
Zn17 O24 2.028 . S
O18 C14 1.258 . S
O18 Zn19 2.035 . S
Zn19 O18 2.035 . S
Zn19 O20 2.028 . S
Zn19 O22 2.028 . S
Zn19 O25 2.035 . S
O20 Zn19 2.028 . S
O20 C26 1.247 . S
O21 Zn17 2.035 . S
O21 C26 1.258 . S
O22 C15 1.247 . S
O22 Zn19 2.028 . S
O23 C15 1.258 . S
O23 Zn17 2.035 . S
O24 Zn17 2.028 . S
O24 C27 1.247 . S
O25 Zn19 2.035 . S
O25 C27 1.258 . S
C26 O20 1.247 . S
C26 O21 1.258 . S
C27 O24 1.247 . S
C27 O25 1.258 . S
C28 O30 1.247 . S
C28 O32 1.258 . S
C29 O36 1.247 . S
C29 O37 1.258 . S
O30 C28 1.247 . S
O30 Zn31 2.028 . S
Zn31 O30 2.028 . S
Zn31 O35 2.035 . S
Zn31 O37 2.035 . S
Zn31 O38 2.028 . S
O32 C28 1.258 . S
O32 Zn33 2.035 . S
Zn33 O32 2.035 . S
Zn33 O34 2.028 . S
Zn33 O36 2.028 . S
Zn33 O39 2.035 . S
O34 Zn33 2.028 . S
O34 C40 1.247 . S
O35 Zn31 2.035 . S
O35 C40 1.258 . S
O36 C29 1.247 . S
O36 Zn33 2.028 . S
O37 C29 1.258 . S
O37 Zn31 2.035 . S
O38 Zn31 2.028 . S
O38 C41 1.247 . S
O39 Zn33 2.035 . S
O39 C41 1.258 . S
C40 O34 1.247 . S
C40 O35 1.258 . S
C41 O38 1.247 . S
C41 O39 1.258 . S
C42 O44 1.247 . S
C42 O46 1.258 . S
C43 O50 1.247 . S
C43 O51 1.258 . S
O44 C42 1.247 . S
O44 Zn45 2.028 . S
Zn45 O44 2.028 . S
Zn45 O49 2.035 . S
Zn45 O51 2.035 . S
Zn45 O52 2.028 . S
O46 C42 1.258 . S
O46 Zn47 2.035 . S
Zn47 O46 2.035 . S
Zn47 O48 2.028 . S
Zn47 O50 2.028 . S
Zn47 O53 2.035 . S
O48 Zn47 2.028 . S
O48 C54 1.247 . S
O49 Zn45 2.035 . S
O49 C54 1.258 . S
O50 C43 1.247 . S
O50 Zn47 2.028 . S
O51 C43 1.258 . S
O51 Zn45 2.035 . S
O52 Zn45 2.028 . S
O52 C55 1.247 . S
O53 Zn47 2.035 . S
O53 C55 1.258 . S
C54 O48 1.247 . S
C54 O49 1.258 . S
C55 O52 1.247 . S
C55 O53 1.258 . S
C56 O58 1.247 . S
C56 O60 1.258 . S
C57 O64 1.247 . S
C57 O65 1.258 . S
O58 C56 1.247 . S
O58 Zn59 2.028 . S
Zn59 O58 2.028 . S
Zn59 O63 2.035 . S
Zn59 O65 2.035 . S
Zn59 O66 2.028 . S
O60 C56 1.258 . S
O60 Zn61 2.035 . S
Zn61 O60 2.035 . S
Zn61 O62 2.028 . S
Zn61 O64 2.028 . S
Zn61 O67 2.035 . S
O62 Zn61 2.028 . S
O62 C68 1.247 . S
O63 Zn59 2.035 . S
O63 C68 1.258 . S
O64 C57 1.247 . S
O64 Zn61 2.028 . S
O65 C57 1.258 . S
O65 Zn59 2.035 . S
O66 Zn59 2.028 . S
O66 C69 1.247 . S
O67 Zn61 2.035 . S
O67 C69 1.258 . S
C68 O62 1.247 . S
C68 O63 1.258 . S
C69 O66 1.247 . S
C69 O67 1.258 . S
C70 O72 1.247 . S
C70 O74 1.258 . S
C71 O78 1.247 . S
C71 O79 1.258 . S
O72 C70 1.247 . S
O72 Zn73 2.028 . S
Zn73 O72 2.028 . S
Zn73 O77 2.035 . S
Zn73 O79 2.035 . S
Zn73 O80 2.028 . S
O74 C70 1.258 . S
O74 Zn75 2.035 . S
Zn75 O74 2.035 . S
Zn75 O76 2.028 . S
Zn75 O78 2.028 . S
Zn75 O81 2.035 . S
O76 Zn75 2.028 . S
O76 C82 1.247 . S
O77 Zn73 2.035 . S
O77 C82 1.258 . S
O78 C71 1.247 . S
O78 Zn75 2.028 . S
O79 C71 1.258 . S
O79 Zn73 2.035 . S
O80 Zn73 2.028 . S
O80 C83 1.247 . S
O81 Zn75 2.035 . S
O81 C83 1.258 . S
C82 O76 1.247 . S
C82 O77 1.258 . S
C83 O80 1.247 . S
C83 O81 1.258 . S
C84 O86 1.247 . S
C84 O88 1.258 . S
C85 O92 1.247 . S
C85 O93 1.258 . S
O86 C84 1.247 . S
O86 Zn87 2.028 . S
Zn87 O86 2.028 . S
Zn87 O91 2.035 . S
Zn87 O93 2.035 . S
Zn87 O94 2.028 . S
O88 C84 1.258 . S
O88 Zn89 2.035 . S
Zn89 O88 2.035 . S
Zn89 O90 2.028 . S
Zn89 O92 2.028 . S
Zn89 O95 2.035 . S
O90 Zn89 2.028 . S
O90 C96 1.247 . S
O91 Zn87 2.035 . S
O91 C96 1.258 . S
O92 C85 1.247 . S
O92 Zn89 2.028 . S
O93 C85 1.258 . S
O93 Zn87 2.035 . S
O94 Zn87 2.028 . S
O94 C97 1.247 . S
O95 Zn89 2.035 . S
O95 C97 1.258 . S
C96 O90 1.247 . S
C96 O91 1.258 . S
C97 O94 1.247 . S
C97 O95 1.258 . S
C98 O100 1.247 . S
C98 O102 1.258 . S
C99 O106 1.247 . S
C99 O107 1.258 . S
O100 C98 1.247 . S
O100 Zn101 2.028 . S
Zn101 O100 2.028 . S
Zn101 O105 2.035 . S
Zn101 O107 2.035 . S
Zn101 O108 2.028 . S
O102 C98 1.258 . S
O102 Zn103 2.035 . S
Zn103 O102 2.035 . S
Zn103 O104 2.028 . S
Zn103 O106 2.028 . S
Zn103 O109 2.035 . S
O104 Zn103 2.028 . S
O104 C110 1.247 . S
O105 Zn101 2.035 . S
O105 C110 1.258 . S
O106 C99 1.247 . S
O106 Zn103 2.028 . S
O107 C99 1.258 . S
O107 Zn101 2.035 . S
O108 Zn101 2.028 . S
O108 C111 1.247 . S
O109 Zn103 2.035 . S
O109 C111 1.258 . S
C110 O104 1.247 . S
C110 O105 1.258 . S
C111 O108 1.247 . S
C111 O109 1.258 . S
C112 O114 1.247 . S
C112 O116 1.258 . S
C113 O120 1.247 . S
C113 O121 1.258 . S
O114 C112 1.247 . S
O114 Zn115 2.028 . S
Zn115 O114 2.028 . S
Zn115 O119 2.035 . S
Zn115 O121 2.035 . S
Zn115 O122 2.028 . S
O116 C112 1.258 . S
O116 Zn117 2.035 . S
Zn117 O116 2.035 . S
Zn117 O118 2.028 . S
Zn117 O120 2.028 . S
Zn117 O123 2.035 . S
O118 Zn117 2.028 . S
O118 C124 1.247 . S
O119 Zn115 2.035 . S
O119 C124 1.258 . S
O120 C113 1.247 . S
O120 Zn117 2.028 . S
O121 C113 1.258 . S
O121 Zn115 2.035 . S
O122 Zn115 2.028 . S
O122 C125 1.247 . S
O123 Zn117 2.035 . S
O123 C125 1.258 . S
C124 O118 1.247 . S
C124 O119 1.258 . S
C125 O122 1.247 . S
C125 O123 1.258 . S
C126 O128 1.247 . S
C126 O130 1.258 . S
C127 O134 1.247 . S
C127 O135 1.258 . S
O128 C126 1.247 . S
O128 Zn129 2.028 . S
Zn129 O128 2.028 . S
Zn129 O133 2.035 . S
Zn129 O135 2.035 . S
Zn129 O136 2.028 . S
O130 C126 1.258 . S
O130 Zn131 2.035 . S
Zn131 O130 2.035 . S
Zn131 O132 2.028 . S
Zn131 O134 2.028 . S
Zn131 O137 2.035 . S
O132 Zn131 2.028 . S
O132 C138 1.247 . S
O133 Zn129 2.035 . S
O133 C138 1.258 . S
O134 C127 1.247 . S
O134 Zn131 2.028 . S
O135 C127 1.258 . S
O135 Zn129 2.035 . S
O136 Zn129 2.028 . S
O136 C139 1.247 . S
O137 Zn131 2.035 . S
O137 C139 1.258 . S
C138 O132 1.247 . S
C138 O133 1.258 . S
C139 O136 1.247 . S
C139 O137 1.258 . S
C140 O142 1.247 . S
C140 O144 1.258 . S
C141 O148 1.247 . S
C141 O149 1.258 . S
O142 C140 1.247 . S
O142 Zn143 2.028 . S
Zn143 O142 2.028 . S
Zn143 O147 2.035 . S
Zn143 O149 2.035 . S
Zn143 O150 2.028 . S
O144 C140 1.258 . S
O144 Zn145 2.035 . S
Zn145 O144 2.035 . S
Zn145 O146 2.028 . S
Zn145 O148 2.028 . S
Zn145 O151 2.035 . S
O146 Zn145 2.028 . S
O146 C152 1.247 . S
O147 Zn143 2.035 . S
O147 C152 1.258 . S
O148 C141 1.247 . S
O148 Zn145 2.028 . S
O149 C141 1.258 . S
O149 Zn143 2.035 . S
O150 Zn143 2.028 . S
O150 C153 1.247 . S
O151 Zn145 2.035 . S
O151 C153 1.258 . S
C152 O146 1.247 . S
C152 O147 1.258 . S
C153 O150 1.247 . S
C153 O151 1.258 . S
C154 O156 1.247 . S
C154 O158 1.258 . S
C155 O162 1.247 . S
C155 O163 1.258 . S
O156 C154 1.247 . S
O156 Zn157 2.028 . S
Zn157 O156 2.028 . S
Zn157 O161 2.035 . S
Zn157 O163 2.035 . S
Zn157 O164 2.028 . S
O158 C154 1.258 . S
O158 Zn159 2.035 . S
Zn159 O158 2.035 . S
Zn159 O160 2.028 . S
Zn159 O162 2.028 . S
Zn159 O165 2.035 . S
O160 Zn159 2.028 . S
O160 C166 1.247 . S
O161 Zn157 2.035 . S
O161 C166 1.258 . S
O162 C155 1.247 . S
O162 Zn159 2.028 . S
O163 C155 1.258 . S
O163 Zn157 2.035 . S
O164 Zn157 2.028 . S
O164 C167 1.247 . S
O165 Zn159 2.035 . S
O165 C167 1.258 . S
C166 O160 1.247 . S
C166 O161 1.258 . S
C167 O164 1.247 . S
C167 O165 1.258 . S
C168 O170 1.247 . S
C168 O172 1.258 . S
C169 O176 1.247 . S
C169 O177 1.258 . S
O170 C168 1.247 . S
O170 Zn171 2.028 . S
Zn171 O170 2.028 . S
Zn171 O175 2.035 . S
Zn171 O177 2.035 . S
Zn171 O178 2.028 . S
O172 C168 1.258 . S
O172 Zn173 2.035 . S
Zn173 O172 2.035 . S
Zn173 O174 2.028 . S
Zn173 O176 2.028 . S
Zn173 O179 2.035 . S
O174 Zn173 2.028 . S
O174 C180 1.247 . S
O175 Zn171 2.035 . S
O175 C180 1.258 . S
O176 C169 1.247 . S
O176 Zn173 2.028 . S
O177 C169 1.258 . S
O177 Zn171 2.035 . S
O178 Zn171 2.028 . S
O178 C181 1.247 . S
O179 Zn173 2.035 . S
O179 C181 1.258 . S
C180 O174 1.247 . S
C180 O175 1.258 . S
C181 O178 1.247 . S
C181 O179 1.258 . S
C182 O184 1.247 . S
C182 O186 1.258 . S
C183 O190 1.247 . S
C183 O191 1.258 . S
O184 C182 1.247 . S
O184 Zn185 2.028 . S
Zn185 O184 2.028 . S
Zn185 O189 2.035 . S
Zn185 O191 2.035 . S
Zn185 O192 2.028 . S
O186 C182 1.258 . S
O186 Zn187 2.035 . S
Zn187 O186 2.035 . S
Zn187 O188 2.028 . S
Zn187 O190 2.028 . S
Zn187 O193 2.035 . S
O188 Zn187 2.028 . S
O188 C194 1.247 . S
O189 Zn185 2.035 . S
O189 C194 1.258 . S
O190 C183 1.247 . S
O190 Zn187 2.028 . S
O191 C183 1.258 . S
O191 Zn185 2.035 . S
O192 Zn185 2.028 . S
O192 C195 1.247 . S
O193 Zn187 2.035 . S
O193 C195 1.258 . S
C194 O188 1.247 . S
C194 O189 1.258 . S
C195 O192 1.247 . S
C195 O193 1.258 . S
C196 O198 1.247 . S
C196 O200 1.258 . S
C197 O204 1.247 . S
C197 O205 1.258 . S
O198 C196 1.247 . S
O198 Zn199 2.028 . S
Zn199 O198 2.028 . S
Zn199 O203 2.035 . S
Zn199 O205 2.035 . S
Zn199 O206 2.028 . S
O200 C196 1.258 . S
O200 Zn201 2.035 . S
Zn201 O200 2.035 . S
Zn201 O202 2.028 . S
Zn201 O204 2.028 . S
Zn201 O207 2.035 . S
O202 Zn201 2.028 . S
O202 C208 1.247 . S
O203 Zn199 2.035 . S
O203 C208 1.258 . S
O204 C197 1.247 . S
O204 Zn201 2.028 . S
O205 C197 1.258 . S
O205 Zn199 2.035 . S
O206 Zn199 2.028 . S
O206 C209 1.247 . S
O207 Zn201 2.035 . S
O207 C209 1.258 . S
C208 O202 1.247 . S
C208 O203 1.258 . S
C209 O206 1.247 . S
C209 O207 1.258 . S
C210 O212 1.247 . S
C210 O214 1.258 . S
C211 O218 1.247 . S
C211 O219 1.258 . S
O212 C210 1.247 . S
O212 Zn213 2.028 . S
Zn213 O212 2.028 . S
Zn213 O217 2.035 . S
Zn213 O219 2.035 . S
Zn213 O220 2.028 . S
O214 C210 1.258 . S
O214 Zn215 2.035 . S
Zn215 O214 2.035 . S
Zn215 O216 2.028 . S
Zn215 O218 2.028 . S
Zn215 O221 2.035 . S
O216 Zn215 2.028 . S
O216 C222 1.247 . S
O217 Zn213 2.035 . S
O217 C222 1.258 . S
O218 C211 1.247 . S
O218 Zn215 2.028 . S
O219 C211 1.258 . S
O219 Zn213 2.035 . S
O220 Zn213 2.028 . S
O220 C223 1.247 . S
O221 Zn215 2.035 . S
O221 C223 1.258 . S
C222 O216 1.247 . S
C222 O217 1.258 . S
C223 O220 1.247 . S
C223 O221 1.258 . S
C224 O226 1.247 . S
C224 O228 1.258 . S
C225 O232 1.247 . S
C225 O233 1.258 . S
O226 C224 1.247 . S
O226 Zn227 2.028 . S
Zn227 O226 2.028 . S
Zn227 O231 2.035 . S
Zn227 O233 2.035 . S
Zn227 O234 2.028 . S
O228 C224 1.258 . S
O228 Zn229 2.035 . S
Zn229 O228 2.035 . S
Zn229 O230 2.028 . S
Zn229 O232 2.028 . S
Zn229 O235 2.035 . S
O230 Zn229 2.028 . S
O230 C236 1.247 . S
O231 Zn227 2.035 . S
O231 C236 1.258 . S
O232 C225 1.247 . S
O232 Zn229 2.028 . S
O233 C225 1.258 . S
O233 Zn227 2.035 . S
O234 Zn227 2.028 . S
O234 C237 1.247 . S
O235 Zn229 2.035 . S
O235 C237 1.258 . S
C236 O230 1.247 . S
C236 O231 1.258 . S
C237 O234 1.247 . S
C237 O235 1.258 . S
C238 O240 1.247 . S
C238 O242 1.258 . S
C239 O246 1.247 . S
C239 O247 1.258 . S
O240 C238 1.247 . S
O240 Zn241 2.028 . S
Zn241 O240 2.028 . S
Zn241 O245 2.035 . S
Zn241 O247 2.035 . S
Zn241 O248 2.028 . S
O242 C238 1.258 . S
O242 Zn243 2.035 . S
Zn243 O242 2.035 . S
Zn243 O244 2.028 . S
Zn243 O246 2.028 . S
Zn243 O249 2.035 . S
O244 Zn243 2.028 . S
O244 C250 1.247 . S
O245 Zn241 2.035 . S
O245 C250 1.258 . S
O246 C239 1.247 . S
O246 Zn243 2.028 . S
O247 C239 1.258 . S
O247 Zn241 2.035 . S
O248 Zn241 2.028 . S
O248 C251 1.247 . S
O249 Zn243 2.035 . S
O249 C251 1.258 . S
C250 O244 1.247 . S
C250 O245 1.258 . S
C251 O248 1.247 . S
C251 O249 1.258 . S
C252 O254 1.247 . S
C252 O256 1.258 . S
C253 O260 1.247 . S
C253 O261 1.258 . S
O254 C252 1.247 . S
O254 Zn255 2.028 . S
Zn255 O254 2.028 . S
Zn255 O259 2.035 . S
Zn255 O261 2.035 . S
Zn255 O262 2.028 . S
O256 C252 1.258 . S
O256 Zn257 2.035 . S
Zn257 O256 2.035 . S
Zn257 O258 2.028 . S
Zn257 O260 2.028 . S
Zn257 O263 2.035 . S
O258 Zn257 2.028 . S
O258 C264 1.247 . S
O259 Zn255 2.035 . S
O259 C264 1.258 . S
O260 C253 1.247 . S
O260 Zn257 2.028 . S
O261 C253 1.258 . S
O261 Zn255 2.035 . S
O262 Zn255 2.028 . S
O262 C265 1.247 . S
O263 Zn257 2.035 . S
O263 C265 1.258 . S
C264 O258 1.247 . S
C264 O259 1.258 . S
C265 O262 1.247 . S
C265 O263 1.258 . S
C266 O268 1.247 . S
C266 O270 1.258 . S
C267 O274 1.247 . S
C267 O275 1.258 . S
O268 C266 1.247 . S
O268 Zn269 2.028 . S
Zn269 O268 2.028 . S
Zn269 O273 2.035 . S
Zn269 O275 2.035 . S
Zn269 O276 2.028 . S
O270 C266 1.258 . S
O270 Zn271 2.035 . S
Zn271 O270 2.035 . S
Zn271 O272 2.028 . S
Zn271 O274 2.028 . S
Zn271 O277 2.035 . S
O272 Zn271 2.028 . S
O272 C278 1.247 . S
O273 Zn269 2.035 . S
O273 C278 1.258 . S
O274 C267 1.247 . S
O274 Zn271 2.028 . S
O275 C267 1.258 . S
O275 Zn269 2.035 . S
O276 Zn269 2.028 . S
O276 C279 1.247 . S
O277 Zn271 2.035 . S
O277 C279 1.258 . S
C278 O272 1.247 . S
C278 O273 1.258 . S
C279 O276 1.247 . S
C279 O277 1.258 . S
C280 O282 1.247 . S
C280 O284 1.258 . S
C281 O288 1.247 . S
C281 O289 1.258 . S
O282 C280 1.247 . S
O282 Zn283 2.028 . S
Zn283 O282 2.028 . S
Zn283 O287 2.035 . S
Zn283 O289 2.035 . S
Zn283 O290 2.028 . S
O284 C280 1.258 . S
O284 Zn285 2.035 . S
Zn285 O284 2.035 . S
Zn285 O286 2.028 . S
Zn285 O288 2.028 . S
Zn285 O291 2.035 . S
O286 Zn285 2.028 . S
O286 C292 1.247 . S
O287 Zn283 2.035 . S
O287 C292 1.258 . S
O288 C281 1.247 . S
O288 Zn285 2.028 . S
O289 C281 1.258 . S
O289 Zn283 2.035 . S
O290 Zn283 2.028 . S
O290 C293 1.247 . S
O291 Zn285 2.035 . S
O291 C293 1.258 . S
C292 O286 1.247 . S
C292 O287 1.258 . S
C293 O290 1.247 . S
C293 O291 1.258 . S
C294 O296 1.247 . S
C294 O298 1.258 . S
C295 O302 1.247 . S
C295 O303 1.258 . S
O296 C294 1.247 . S
O296 Zn297 2.028 . S
Zn297 O296 2.028 . S
Zn297 O301 2.035 . S
Zn297 O303 2.035 . S
Zn297 O304 2.028 . S
O298 C294 1.258 . S
O298 Zn299 2.035 . S
Zn299 O298 2.035 . S
Zn299 O300 2.028 . S
Zn299 O302 2.028 . S
Zn299 O305 2.035 . S
O300 Zn299 2.028 . S
O300 C306 1.247 . S
O301 Zn297 2.035 . S
O301 C306 1.258 . S
O302 C295 1.247 . S
O302 Zn299 2.028 . S
O303 C295 1.258 . S
O303 Zn297 2.035 . S
O304 Zn297 2.028 . S
O304 C307 1.247 . S
O305 Zn299 2.035 . S
O305 C307 1.258 . S
C306 O300 1.247 . S
C306 O301 1.258 . S
C307 O304 1.247 . S
C307 O305 1.258 . S
C308 O310 1.247 . S
C308 O312 1.258 . S
C309 O316 1.247 . S
C309 O317 1.258 . S
O310 C308 1.247 . S
O310 Zn311 2.028 . S
Zn311 O310 2.028 . S
Zn311 O315 2.035 . S
Zn311 O317 2.035 . S
Zn311 O318 2.028 . S
O312 C308 1.258 . S
O312 Zn313 2.035 . S
Zn313 O312 2.035 . S
Zn313 O314 2.028 . S
Zn313 O316 2.028 . S
Zn313 O319 2.035 . S
O314 Zn313 2.028 . S
O314 C320 1.247 . S
O315 Zn311 2.035 . S
O315 C320 1.258 . S
O316 C309 1.247 . S
O316 Zn313 2.028 . S
O317 C309 1.258 . S
O317 Zn311 2.035 . S
O318 Zn311 2.028 . S
O318 C321 1.247 . S
O319 Zn313 2.035 . S
O319 C321 1.258 . S
C320 O314 1.247 . S
C320 O315 1.258 . S
C321 O318 1.247 . S
C321 O319 1.258 . S
C322 O324 1.247 . S
C322 O326 1.258 . S
C323 O330 1.247 . S
C323 O331 1.258 . S
O324 C322 1.247 . S
O324 Zn325 2.028 . S
Zn325 O324 2.028 . S
Zn325 O329 2.035 . S
Zn325 O331 2.035 . S
Zn325 O332 2.028 . S
O326 C322 1.258 . S
O326 Zn327 2.035 . S
Zn327 O326 2.035 . S
Zn327 O328 2.028 . S
Zn327 O330 2.028 . S
Zn327 O333 2.035 . S
O328 Zn327 2.028 . S
O328 C334 1.247 . S
O329 Zn325 2.035 . S
O329 C334 1.258 . S
O330 C323 1.247 . S
O330 Zn327 2.028 . S
O331 C323 1.258 . S
O331 Zn325 2.035 . S
O332 Zn325 2.028 . S
O332 C335 1.247 . S
O333 Zn327 2.035 . S
O333 C335 1.258 . S
C334 O328 1.247 . S
C334 O329 1.258 . S
C335 O332 1.247 . S
C335 O333 1.258 . S
C336 C337 1.369 . S
C336 C338 1.419 . S
C336 H340 0.930 . S
C337 C336 1.369 . S
C337 C346 1.429 . S
C338 C336 1.419 . S
C338 C339 1.363 . S
C338 H341 0.929 . S
C339 C338 1.363 . S
C339 C345 1.428 . S
H340 C336 0.930 . S
H341 C338 0.929 . S
S342 N343 1.613 . S
S342 N344 1.610 . S
N343 S342 1.613 . S
N343 C346 1.350 . S
N344 S342 1.610 . S
N344 C345 1.351 . S
C345 C339 1.428 . S
C345 N344 1.351 . S
C345 C346 1.434 . S
C346 C337 1.429 . S
C346 N343 1.350 . S
C346 C345 1.434 . S
C347 C348 1.369 . S
C347 C349 1.419 . S
C347 H351 0.930 . S
C348 C347 1.369 . S
C348 C357 1.429 . S
C349 C347 1.419 . S
C349 C350 1.363 . S
C349 H352 0.929 . S
C350 C349 1.363 . S
C350 C356 1.428 . S
H351 C347 0.930 . S
H352 C349 0.929 . S
S353 N354 1.613 . S
S353 N355 1.610 . S
N354 S353 1.613 . S
N354 C357 1.350 . S
N355 S353 1.610 . S
N355 C356 1.351 . S
C356 C350 1.428 . S
C356 N355 1.351 . S
C356 C357 1.434 . S
C357 C348 1.429 . S
C357 N354 1.350 . S
C357 C356 1.434 . S
C358 C359 1.369 . S
C358 C360 1.419 . S
C358 H362 0.930 . S
C359 C358 1.369 . S
C359 C368 1.429 . S
C360 C358 1.419 . S
C360 C361 1.363 . S
C360 H363 0.929 . S
C361 C360 1.363 . S
C361 C367 1.428 . S
H362 C358 0.930 . S
H363 C360 0.929 . S
S364 N365 1.613 . S
S364 N366 1.610 . S
N365 S364 1.613 . S
N365 C368 1.350 . S
N366 S364 1.610 . S
N366 C367 1.351 . S
C367 C361 1.428 . S
C367 N366 1.351 . S
C367 C368 1.434 . S
C368 C359 1.429 . S
C368 N365 1.350 . S
C368 C367 1.434 . S
C369 C370 1.369 . S
C369 C371 1.419 . S
C369 H373 0.930 . S
C370 C369 1.369 . S
C370 C379 1.429 . S
C371 C369 1.419 . S
C371 C372 1.363 . S
C371 H374 0.929 . S
C372 C371 1.363 . S
C372 C378 1.428 . S
H373 C369 0.930 . S
H374 C371 0.929 . S
S375 N376 1.613 . S
S375 N377 1.610 . S
N376 S375 1.613 . S
N376 C379 1.350 . S
N377 S375 1.610 . S
N377 C378 1.351 . S
C378 C372 1.428 . S
C378 N377 1.351 . S
C378 C379 1.434 . S
C379 C370 1.429 . S
C379 N376 1.350 . S
C379 C378 1.434 . S
C380 C381 1.369 . S
C380 C382 1.419 . S
C380 H384 0.930 . S
C381 C380 1.369 . S
C381 C390 1.429 . S
C382 C380 1.419 . S
C382 C383 1.363 . S
C382 H385 0.929 . S
C383 C382 1.363 . S
C383 C389 1.428 . S
H384 C380 0.930 . S
H385 C382 0.929 . S
S386 N387 1.613 . S
S386 N388 1.610 . S
N387 S386 1.613 . S
N387 C390 1.350 . S
N388 S386 1.610 . S
N388 C389 1.351 . S
C389 C383 1.428 . S
C389 N388 1.351 . S
C389 C390 1.434 . S
C390 C381 1.429 . S
C390 N387 1.350 . S
C390 C389 1.434 . S
C391 C392 1.369 . S
C391 C393 1.419 . S
C391 H395 0.930 . S
C392 C391 1.369 . S
C392 C401 1.429 . S
C393 C391 1.419 . S
C393 C394 1.363 . S
C393 H396 0.929 . S
C394 C393 1.363 . S
C394 C400 1.428 . S
H395 C391 0.930 . S
H396 C393 0.929 . S
S397 N398 1.613 . S
S397 N399 1.610 . S
N398 S397 1.613 . S
N398 C401 1.350 . S
N399 S397 1.610 . S
N399 C400 1.351 . S
C400 C394 1.428 . S
C400 N399 1.351 . S
C400 C401 1.434 . S
C401 C392 1.429 . S
C401 N398 1.350 . S
C401 C400 1.434 . S
C402 C403 1.369 . S
C402 C404 1.419 . S
C402 H406 0.930 . S
C403 C402 1.369 . S
C403 C412 1.429 . S
C404 C402 1.419 . S
C404 C405 1.363 . S
C404 H407 0.929 . S
C405 C404 1.363 . S
C405 C411 1.428 . S
H406 C402 0.930 . S
H407 C404 0.929 . S
S408 N409 1.613 . S
S408 N410 1.610 . S
N409 S408 1.613 . S
N409 C412 1.350 . S
N410 S408 1.610 . S
N410 C411 1.351 . S
C411 C405 1.428 . S
C411 N410 1.351 . S
C411 C412 1.434 . S
C412 C403 1.429 . S
C412 N409 1.350 . S
C412 C411 1.434 . S
C413 C414 1.369 . S
C413 C415 1.419 . S
C413 H417 0.930 . S
C414 C413 1.369 . S
C414 C423 1.429 . S
C415 C413 1.419 . S
C415 C416 1.363 . S
C415 H418 0.929 . S
C416 C415 1.363 . S
C416 C422 1.428 . S
H417 C413 0.930 . S
H418 C415 0.929 . S
S419 N420 1.613 . S
S419 N421 1.610 . S
N420 S419 1.613 . S
N420 C423 1.350 . S
N421 S419 1.610 . S
N421 C422 1.351 . S
C422 C416 1.428 . S
C422 N421 1.351 . S
C422 C423 1.434 . S
C423 C414 1.429 . S
C423 N420 1.350 . S
C423 C422 1.434 . S
C424 C425 1.369 . S
C424 C426 1.419 . S
C424 H428 0.930 . S
C425 C424 1.369 . S
C425 C434 1.429 . S
C426 C424 1.419 . S
C426 C427 1.363 . S
C426 H429 0.929 . S
C427 C426 1.363 . S
C427 C433 1.428 . S
H428 C424 0.930 . S
H429 C426 0.929 . S
S430 N431 1.613 . S
S430 N432 1.610 . S
N431 S430 1.613 . S
N431 C434 1.350 . S
N432 S430 1.610 . S
N432 C433 1.351 . S
C433 C427 1.428 . S
C433 N432 1.351 . S
C433 C434 1.434 . S
C434 C425 1.429 . S
C434 N431 1.350 . S
C434 C433 1.434 . S
C435 C436 1.369 . S
C435 C437 1.419 . S
C435 H439 0.930 . S
C436 C435 1.369 . S
C436 C445 1.429 . S
C437 C435 1.419 . S
C437 C438 1.363 . S
C437 H440 0.929 . S
C438 C437 1.363 . S
C438 C444 1.428 . S
H439 C435 0.930 . S
H440 C437 0.929 . S
S441 N442 1.613 . S
S441 N443 1.610 . S
N442 S441 1.613 . S
N442 C445 1.350 . S
N443 S441 1.610 . S
N443 C444 1.351 . S
C444 C438 1.428 . S
C444 N443 1.351 . S
C444 C445 1.434 . S
C445 C436 1.429 . S
C445 N442 1.350 . S
C445 C444 1.434 . S
C446 C447 1.369 . S
C446 C448 1.419 . S
C446 H450 0.930 . S
C447 C446 1.369 . S
C447 C456 1.429 . S
C448 C446 1.419 . S
C448 C449 1.363 . S
C448 H451 0.929 . S
C449 C448 1.363 . S
C449 C455 1.428 . S
H450 C446 0.930 . S
H451 C448 0.929 . S
S452 N453 1.613 . S
S452 N454 1.610 . S
N453 S452 1.613 . S
N453 C456 1.350 . S
N454 S452 1.610 . S
N454 C455 1.351 . S
C455 C449 1.428 . S
C455 N454 1.351 . S
C455 C456 1.434 . S
C456 C447 1.429 . S
C456 N453 1.350 . S
C456 C455 1.434 . S
C457 C458 1.369 . S
C457 C459 1.419 . S
C457 H461 0.930 . S
C458 C457 1.369 . S
C458 C467 1.429 . S
C459 C457 1.419 . S
C459 C460 1.363 . S
C459 H462 0.929 . S
C460 C459 1.363 . S
C460 C466 1.428 . S
H461 C457 0.930 . S
H462 C459 0.929 . S
S463 N464 1.613 . S
S463 N465 1.610 . S
N464 S463 1.613 . S
N464 C467 1.350 . S
N465 S463 1.610 . S
N465 C466 1.351 . S
C466 C460 1.428 . S
C466 N465 1.351 . S
C466 C467 1.434 . S
C467 C458 1.429 . S
C467 N464 1.350 . S
C467 C466 1.434 . S
C468 C469 1.369 . S
C468 C470 1.419 1_565 S
C468 H472 0.930 . S
C469 C468 1.369 . S
C469 C478 1.429 . S
C470 C468 1.419 1_545 S
C470 C471 1.363 . S
C470 H473 0.929 . S
C471 C470 1.363 . S
C471 C477 1.428 . S
H472 C468 0.930 . S
H473 C470 0.929 . S
S474 N475 1.610 1_545 S
S474 N476 1.613 . S
N475 S474 1.610 1_565 S
N475 C478 1.350 . S
N476 S474 1.613 . S
N476 C477 1.351 . S
C477 C471 1.428 . S
C477 N476 1.351 . S
C477 C478 1.434 1_545 S
C478 C469 1.429 . S
C478 N475 1.350 . S
C478 C477 1.434 1_565 S
C479 C480 1.369 1_455 S
C479 C481 1.419 . S
C479 H483 0.930 . S
C480 C479 1.369 1_655 S
C480 C489 1.429 . S
C481 C479 1.419 . S
C481 C482 1.363 . S
C481 H484 0.929 . S
C482 C481 1.363 . S
C482 C488 1.428 1_455 S
H483 C479 0.930 . S
H484 C481 0.929 . S
S485 N486 1.613 . S
S485 N487 1.610 . S
N486 S485 1.613 . S
N486 C489 1.350 . S
N487 S485 1.610 . S
N487 C488 1.351 . S
C488 C482 1.428 1_655 S
C488 N487 1.351 . S
C488 C489 1.434 . S
C489 C480 1.429 . S
C489 N486 1.350 . S
C489 C488 1.434 . S
C490 C491 1.369 1_565 S
C490 C492 1.419 . S
C490 H494 0.930 . S
C491 C490 1.369 1_545 S
C491 C500 1.429 . S
C492 C490 1.419 . S
C492 C493 1.363 . S
C492 H495 0.929 . S
C493 C492 1.363 . S
C493 C499 1.428 1_565 S
H494 C490 0.930 . S
H495 C492 0.929 . S
S496 N497 1.613 . S
S496 N498 1.610 . S
N497 S496 1.613 . S
N497 C500 1.350 . S
N498 S496 1.610 . S
N498 C499 1.351 . S
C499 C493 1.428 1_545 S
C499 N498 1.351 . S
C499 C500 1.434 . S
C500 C491 1.429 . S
C500 N497 1.350 . S
C500 C499 1.434 . S
C501 C502 1.369 . S
C501 C503 1.419 . S
C501 H505 0.930 . S
C502 C501 1.369 . S
C502 C511 1.429 1_455 S
C503 C501 1.419 . S
C503 C504 1.363 1_455 S
C503 H506 0.929 . S
C504 C503 1.363 1_655 S
C504 C510 1.428 . S
H505 C501 0.930 . S
H506 C503 0.929 . S
S507 N508 1.613 . S
S507 N509 1.610 . S
N508 S507 1.613 . S
N508 C511 1.350 . S
N509 S507 1.610 . S
N509 C510 1.351 . S
C510 C504 1.428 . S
C510 N509 1.351 . S
C510 C511 1.434 . S
C511 C502 1.429 1_655 S
C511 N508 1.350 . S
C511 C510 1.434 . S
C512 C513 1.369 1_545 S
C512 C514 1.419 . S
C512 H516 0.930 . S
C513 C512 1.369 1_565 S
C513 C522 1.429 . S
C514 C512 1.419 . S
C514 C515 1.363 . S
C514 H517 0.929 . S
C515 C514 1.363 . S
C515 C521 1.428 1_545 S
H516 C512 0.930 . S
H517 C514 0.929 . S
S518 N519 1.613 . S
S518 N520 1.610 . S
N519 S518 1.613 . S
N519 C522 1.350 . S
N520 S518 1.610 . S
N520 C521 1.351 . S
C521 C515 1.428 1_565 S
C521 N520 1.351 . S
C521 C522 1.434 . S
C522 C513 1.429 . S
C522 N519 1.350 . S
C522 C521 1.434 . S
C523 C524 1.369 1_455 S
C523 C525 1.419 . S
C523 H527 0.930 . S
C524 C523 1.369 1_655 S
C524 C533 1.429 . S
C525 C523 1.419 . S
C525 C526 1.363 . S
C525 H528 0.929 . S
C526 C525 1.363 . S
C526 C532 1.428 1_455 S
H527 C523 0.930 . S
H528 C525 0.929 . S
S529 N530 1.613 . S
S529 N531 1.610 . S
N530 S529 1.613 . S
N530 C533 1.350 . S
N531 S529 1.610 . S
N531 C532 1.351 . S
C532 C526 1.428 1_655 S
C532 N531 1.351 . S
C532 C533 1.434 . S
C533 C524 1.429 . S
C533 N530 1.350 . S
C533 C532 1.434 . S
C534 C535 1.369 . S
C534 C536 1.419 1_565 S
C534 H538 0.930 . S
C535 C534 1.369 . S
C535 C544 1.429 . S
C536 C534 1.419 1_545 S
C536 C537 1.363 . S
C536 H539 0.929 . S
C537 C536 1.363 . S
C537 C543 1.428 . S
H538 C534 0.930 . S
H539 C536 0.929 . S
S540 N541 1.613 . S
S540 N542 1.610 1_565 S
N541 S540 1.613 . S
N541 C544 1.350 . S
N542 S540 1.610 1_545 S
N542 C543 1.351 . S
C543 C537 1.428 . S
C543 N542 1.351 . S
C543 C544 1.434 1_545 S
C544 C535 1.429 . S
C544 N541 1.350 . S
C544 C543 1.434 1_565 S
C545 C546 1.369 1_655 S
C545 C547 1.419 . S
C545 H549 0.930 . S
C546 C545 1.369 1_455 S
C546 C555 1.429 . S
C547 C545 1.419 . S
C547 C548 1.363 . S
C547 H550 0.929 . S
C548 C547 1.363 . S
C548 C554 1.428 1_655 S
H549 C545 0.930 . S
H550 C547 0.929 . S
S551 N552 1.613 . S
S551 N553 1.610 . S
N552 S551 1.613 . S
N552 C555 1.350 . S
N553 S551 1.610 . S
N553 C554 1.351 . S
C554 C548 1.428 1_455 S
C554 N553 1.351 . S
C554 C555 1.434 . S
C555 C546 1.429 . S
C555 N552 1.350 . S
C555 C554 1.434 . S
C556 C557 1.369 . S
C556 C558 1.426 . S
C556 H560 0.930 . S
C557 C556 1.369 . S
C557 C566 1.429 1_556 S
C558 C556 1.426 . S
C558 C559 1.356 1_556 S
C558 H561 0.930 . S
C559 C558 1.356 1_554 S
C559 C565 1.428 . S
H560 C556 0.930 . S
H561 C558 0.930 . S
S562 N563 1.613 . S
S562 N564 1.610 . S
N563 S562 1.613 . S
N563 C566 1.350 . S
N564 S562 1.610 . S
N564 C565 1.351 . S
C565 C559 1.428 . S
C565 N564 1.351 . S
C565 C566 1.434 . S
C566 C557 1.429 1_554 S
C566 N563 1.350 . S
C566 C565 1.434 . S
C567 C568 1.369 1_556 S
C567 C569 1.419 . S
C567 H571 0.930 . S
C568 C567 1.369 1_554 S
C568 C577 1.429 . S
C569 C567 1.419 . S
C569 C570 1.363 . S
C569 H572 0.929 . S
C570 C569 1.363 . S
C570 C576 1.428 1_556 S
H571 C567 0.930 . S
H572 C569 0.929 . S
S573 N574 1.613 . S
S573 N575 1.610 . S
N574 S573 1.613 . S
N574 C577 1.350 . S
N575 S573 1.610 . S
N575 C576 1.351 . S
C576 C570 1.428 1_554 S
C576 N575 1.351 . S
C576 C577 1.434 . S
C577 C568 1.429 . S
C577 N574 1.350 . S
C577 C576 1.434 . S
C578 C579 1.369 . S
C578 C580 1.419 . S
C578 H582 0.930 . S
C579 C578 1.369 . S
C579 C588 1.429 1_556 S
C580 C578 1.419 . S
C580 C581 1.363 1_556 S
C580 H583 0.929 . S
C581 C580 1.363 1_554 S
C581 C587 1.428 . S
H582 C578 0.930 . S
H583 C580 0.929 . S
S584 N585 1.613 . S
S584 N586 1.610 . S
N585 S584 1.613 . S
N585 C588 1.350 . S
N586 S584 1.610 . S
N586 C587 1.351 . S
C587 C581 1.428 . S
C587 N586 1.351 . S
C587 C588 1.434 . S
C588 C579 1.429 1_554 S
C588 N585 1.350 . S
C588 C587 1.434 . S
C589 C590 1.369 . S
C589 C591 1.419 1_554 S
C589 H593 0.930 . S
C590 C589 1.369 . S
C590 C599 1.429 . S
C591 C589 1.419 1_556 S
C591 C592 1.363 . S
C591 H594 0.929 . S
C592 C591 1.363 . S
C592 C598 1.428 . S
H593 C589 0.930 . S
H594 C591 0.929 . S
S595 N596 1.613 . S
S595 N597 1.610 1_554 S
N596 S595 1.613 . S
N596 C599 1.350 . S
N597 S595 1.610 1_556 S
N597 C598 1.351 . S
C598 C592 1.428 . S
C598 N597 1.351 . S
C598 C599 1.434 1_556 S
C599 C590 1.429 . S
C599 N596 1.350 . S
C599 C598 1.434 1_554 S
C600 C601 1.369 . S
C600 C602 1.419 . S
C600 H604 0.930 . S
C601 C600 1.369 . S
C601 C610 1.429 . S
C602 C600 1.419 . S
C602 C603 1.363 . S
C602 H605 0.929 . S
C603 C602 1.363 . S
C603 C609 1.428 . S
H604 C600 0.930 . S
H605 C602 0.929 . S
S606 N607 1.613 . S
S606 N608 1.610 . S
N607 S606 1.613 . S
N607 C610 1.350 . S
N608 S606 1.610 . S
N608 C609 1.351 . S
C609 C603 1.428 . S
C609 N608 1.351 . S
C609 C610 1.434 . S
C610 C601 1.429 . S
C610 N607 1.350 . S
C610 C609 1.434 . S
C611 C612 1.369 . S
C611 C613 1.419 . S
C611 H615 0.930 . S
C612 C611 1.369 . S
C612 C621 1.429 . S
C613 C611 1.419 . S
C613 C614 1.363 . S
C613 H616 0.929 . S
C614 C613 1.363 . S
C614 C620 1.428 . S
H615 C611 0.930 . S
H616 C613 0.929 . S
S617 N618 1.613 . S
S617 N619 1.610 . S
N618 S617 1.613 . S
N618 C621 1.350 . S
N619 S617 1.610 . S
N619 C620 1.351 . S
C620 C614 1.428 . S
C620 N619 1.351 . S
C620 C621 1.434 . S
C621 C612 1.429 . S
C621 N618 1.350 . S
C621 C620 1.434 . S
C622 C623 1.369 . S
C622 C624 1.419 . S
C622 H626 0.930 . S
C623 C622 1.369 . S
C623 C632 1.429 . S
C624 C622 1.419 . S
C624 C625 1.363 . S
C624 H627 0.929 . S
C625 C624 1.363 . S
C625 C631 1.428 . S
H626 C622 0.930 . S
H627 C624 0.929 . S
S628 N629 1.613 . S
S628 N630 1.610 . S
N629 S628 1.613 . S
N629 C632 1.350 . S
N630 S628 1.610 . S
N630 C631 1.351 . S
C631 C625 1.428 . S
C631 N630 1.351 . S
C631 C632 1.434 . S
C632 C623 1.429 . S
C632 N629 1.350 . S
C632 C631 1.434 . S
C633 C634 1.369 . S
C633 C635 1.419 . S
C633 H637 0.930 . S
C634 C633 1.369 . S
C634 C643 1.429 . S
C635 C633 1.419 . S
C635 C636 1.363 . S
C635 H638 0.929 . S
C636 C635 1.363 . S
C636 C642 1.428 . S
H637 C633 0.930 . S
H638 C635 0.929 . S
S639 N640 1.613 . S
S639 N641 1.610 . S
N640 S639 1.613 . S
N640 C643 1.350 . S
N641 S639 1.610 . S
N641 C642 1.351 . S
C642 C636 1.428 . S
C642 N641 1.351 . S
C642 C643 1.434 . S
C643 C634 1.429 . S
C643 N640 1.350 . S
C643 C642 1.434 . S
C644 C645 1.369 . S
C644 C646 1.419 . S
C644 H648 0.930 . S
C645 C644 1.369 . S
C645 C654 1.429 . S
C646 C644 1.419 . S
C646 C647 1.363 . S
C646 H649 0.929 . S
C647 C646 1.363 . S
C647 C653 1.428 . S
H648 C644 0.930 . S
H649 C646 0.929 . S
S650 N651 1.613 . S
S650 N652 1.610 . S
N651 S650 1.613 . S
N651 C654 1.350 . S
N652 S650 1.610 . S
N652 C653 1.351 . S
C653 C647 1.428 . S
C653 N652 1.351 . S
C653 C654 1.434 . S
C654 C645 1.429 . S
C654 N651 1.350 . S
C654 C653 1.434 . S
C655 C656 1.369 . S
C655 C657 1.419 . S
C655 H659 0.930 . S
C656 C655 1.369 . S
C656 C665 1.429 . S
C657 C655 1.419 . S
C657 C658 1.363 . S
C657 H660 0.929 . S
C658 C657 1.363 . S
C658 C664 1.428 . S
H659 C655 0.930 . S
H660 C657 0.929 . S
S661 N662 1.613 . S
S661 N663 1.610 . S
N662 S661 1.613 . S
N662 C665 1.350 . S
N663 S661 1.610 . S
N663 C664 1.351 . S
C664 C658 1.428 . S
C664 N663 1.351 . S
C664 C665 1.434 . S
C665 C656 1.429 . S
C665 N662 1.350 . S
C665 C664 1.434 . S
C666 C667 1.369 . S
C666 C668 1.419 . S
C666 H670 0.930 . S
C667 C666 1.369 . S
C667 C676 1.429 . S
C668 C666 1.419 . S
C668 C669 1.363 . S
C668 H671 0.929 . S
C669 C668 1.363 . S
C669 C675 1.428 . S
H670 C666 0.930 . S
H671 C668 0.929 . S
S672 N673 1.613 . S
S672 N674 1.610 . S
N673 S672 1.613 . S
N673 C676 1.350 . S
N674 S672 1.610 . S
N674 C675 1.351 . S
C675 C669 1.428 . S
C675 N674 1.351 . S
C675 C676 1.434 . S
C676 C667 1.429 . S
C676 N673 1.350 . S
C676 C675 1.434 . S
C677 C678 1.369 . S
C677 C679 1.419 . S
C677 H681 0.930 . S
C678 C677 1.369 . S
C678 C687 1.429 . S
C679 C677 1.419 . S
C679 C680 1.363 . S
C679 H682 0.929 . S
C680 C679 1.363 . S
C680 C686 1.428 . S
H681 C677 0.930 . S
H682 C679 0.929 . S
S683 N684 1.613 . S
S683 N685 1.610 . S
N684 S683 1.613 . S
N684 C687 1.350 . S
N685 S683 1.610 . S
N685 C686 1.351 . S
C686 C680 1.428 . S
C686 N685 1.351 . S
C686 C687 1.434 . S
C687 C678 1.429 . S
C687 N684 1.350 . S
C687 C686 1.434 . S
C688 C689 1.369 . S
C688 C690 1.419 . S
C688 H692 0.930 . S
C689 C688 1.369 . S
C689 C698 1.429 . S
C690 C688 1.419 . S
C690 C691 1.363 . S
C690 H693 0.929 . S
C691 C690 1.363 . S
C691 C697 1.428 . S
H692 C688 0.930 . S
H693 C690 0.929 . S
S694 N695 1.613 . S
S694 N696 1.610 . S
N695 S694 1.613 . S
N695 C698 1.350 . S
N696 S694 1.610 . S
N696 C697 1.351 . S
C697 C691 1.428 . S
C697 N696 1.351 . S
C697 C698 1.434 . S
C698 C689 1.429 . S
C698 N695 1.350 . S
C698 C697 1.434 . S
C699 C700 1.369 . S
C699 C701 1.419 . S
C699 H703 0.930 . S
C700 C699 1.369 . S
C700 C709 1.429 . S
C701 C699 1.419 . S
C701 C702 1.363 . S
C701 H704 0.929 . S
C702 C701 1.363 . S
C702 C708 1.428 . S
H703 C699 0.930 . S
H704 C701 0.929 . S
S705 N706 1.613 . S
S705 N707 1.610 . S
N706 S705 1.613 . S
N706 C709 1.350 . S
N707 S705 1.610 . S
N707 C708 1.351 . S
C708 C702 1.428 . S
C708 N707 1.351 . S
C708 C709 1.434 . S
C709 C700 1.429 . S
C709 N706 1.350 . S
C709 C708 1.434 . S
C710 C711 1.369 . S
C710 C712 1.419 . S
C710 H714 0.930 . S
C711 C710 1.369 . S
C711 C720 1.429 . S
C712 C710 1.419 . S
C712 C713 1.363 . S
C712 H715 0.929 . S
C713 C712 1.363 . S
C713 C719 1.428 . S
H714 C710 0.930 . S
H715 C712 0.929 . S
S716 N717 1.613 . S
S716 N718 1.610 . S
N717 S716 1.613 . S
N717 C720 1.350 . S
N718 S716 1.610 . S
N718 C719 1.351 . S
C719 C713 1.428 . S
C719 N718 1.351 . S
C719 C720 1.434 . S
C720 C711 1.429 . S
C720 N717 1.350 . S
C720 C719 1.434 . S
C721 C722 1.369 . S
C721 C723 1.419 . S
C721 H725 0.930 . S
C722 C721 1.369 . S
C722 C731 1.429 . S
C723 C721 1.419 . S
C723 C724 1.363 . S
C723 H726 0.929 . S
C724 C723 1.363 . S
C724 C730 1.428 . S
H725 C721 0.930 . S
H726 C723 0.929 . S
S727 N728 1.613 . S
S727 N729 1.610 . S
N728 S727 1.613 . S
N728 C731 1.350 . S
N729 S727 1.610 . S
N729 C730 1.351 . S
C730 C724 1.428 . S
C730 N729 1.351 . S
C730 C731 1.434 . S
C731 C722 1.429 . S
C731 N728 1.350 . S
C731 C730 1.434 . S
C732 C733 1.369 . S
C732 C734 1.419 . S
C732 H736 0.930 . S
C733 C732 1.369 . S
C733 C742 1.429 . S
C734 C732 1.419 . S
C734 C735 1.363 . S
C734 H737 0.929 . S
C735 C734 1.363 . S
C735 C741 1.428 . S
H736 C732 0.930 . S
H737 C734 0.929 . S
S738 N739 1.613 . S
S738 N740 1.610 . S
N739 S738 1.613 . S
N739 C742 1.350 . S
N740 S738 1.610 . S
N740 C741 1.351 . S
C741 C735 1.428 . S
C741 N740 1.351 . S
C741 C742 1.434 . S
C742 C733 1.429 . S
C742 N739 1.350 . S
C742 C741 1.434 . S
C743 C744 1.369 . S
C743 C745 1.419 . S
C743 H747 0.930 . S
C744 C743 1.369 . S
C744 C753 1.429 . S
C745 C743 1.419 . S
C745 C746 1.363 . S
C745 H748 0.929 . S
C746 C745 1.363 . S
C746 C752 1.428 . S
H747 C743 0.930 . S
H748 C745 0.929 . S
S749 N750 1.613 . S
S749 N751 1.610 . S
N750 S749 1.613 . S
N750 C753 1.350 . S
N751 S749 1.610 . S
N751 C752 1.351 . S
C752 C746 1.428 . S
C752 N751 1.351 . S
C752 C753 1.434 . S
C753 C744 1.429 . S
C753 N750 1.350 . S
C753 C752 1.434 . S
C754 C755 1.369 . S
C754 C756 1.419 . S
C754 H758 0.930 . S
C755 C754 1.369 . S
C755 C764 1.429 . S
C756 C754 1.419 . S
C756 C757 1.363 . S
C756 H759 0.929 . S
C757 C756 1.363 . S
C757 C763 1.428 . S
H758 C754 0.930 . S
H759 C756 0.929 . S
S760 N761 1.613 . S
S760 N762 1.610 . S
N761 S760 1.613 . S
N761 C764 1.350 . S
N762 S760 1.610 . S
N762 C763 1.351 . S
C763 C757 1.428 . S
C763 N762 1.351 . S
C763 C764 1.434 . S
C764 C755 1.429 . S
C764 N761 1.350 . S
C764 C763 1.434 . S
C765 C766 1.369 . S
C765 C767 1.419 . S
C765 H769 0.930 . S
C766 C765 1.369 . S
C766 C775 1.429 . S
C767 C765 1.419 . S
C767 C768 1.363 . S
C767 H770 0.929 . S
C768 C767 1.363 . S
C768 C774 1.428 . S
H769 C765 0.930 . S
H770 C767 0.929 . S
S771 N772 1.613 . S
S771 N773 1.610 . S
N772 S771 1.613 . S
N772 C775 1.350 . S
N773 S771 1.610 . S
N773 C774 1.351 . S
C774 C768 1.428 . S
C774 N773 1.351 . S
C774 C775 1.434 . S
C775 C766 1.429 . S
C775 N772 1.350 . S
C775 C774 1.434 . S
C776 C777 1.369 . S
C776 C778 1.419 . S
C776 H780 0.930 . S
C777 C776 1.369 . S
C777 C786 1.429 . S
C778 C776 1.419 . S
C778 C779 1.363 . S
C778 H781 0.929 . S
C779 C778 1.363 . S
C779 C785 1.428 . S
H780 C776 0.930 . S
H781 C778 0.929 . S
S782 N783 1.613 . S
S782 N784 1.610 . S
N783 S782 1.613 . S
N783 C786 1.350 . S
N784 S782 1.610 . S
N784 C785 1.351 . S
C785 C779 1.428 . S
C785 N784 1.351 . S
C785 C786 1.434 . S
C786 C777 1.429 . S
C786 N783 1.350 . S
C786 C785 1.434 . S
C787 C788 1.369 . S
C787 C789 1.419 . S
C787 H791 0.930 . S
C788 C787 1.369 . S
C788 C797 1.429 . S
C789 C787 1.419 . S
C789 C790 1.363 . S
C789 H792 0.929 . S
C790 C789 1.363 . S
C790 C796 1.428 . S
H791 C787 0.930 . S
H792 C789 0.929 . S
S793 N794 1.613 . S
S793 N795 1.610 . S
N794 S793 1.613 . S
N794 C797 1.350 . S
N795 S793 1.610 . S
N795 C796 1.351 . S
C796 C790 1.428 . S
C796 N795 1.351 . S
C796 C797 1.434 . S
C797 C788 1.429 . S
C797 N794 1.350 . S
C797 C796 1.434 . S
C798 C799 1.369 . S
C798 C800 1.419 . S
C798 H802 0.930 . S
C799 C798 1.369 . S
C799 C808 1.429 . S
C800 C798 1.419 . S
C800 C801 1.363 . S
C800 H803 0.929 . S
C801 C800 1.363 . S
C801 C807 1.428 . S
H802 C798 0.930 . S
H803 C800 0.929 . S
S804 N805 1.613 . S
S804 N806 1.610 . S
N805 S804 1.613 . S
N805 C808 1.350 . S
N806 S804 1.610 . S
N806 C807 1.351 . S
C807 C801 1.428 . S
C807 N806 1.351 . S
C807 C808 1.434 . S
C808 C799 1.429 . S
C808 N805 1.350 . S
C808 C807 1.434 . S
C809 C810 1.369 . S
C809 C811 1.419 . S
C809 H813 0.930 . S
C810 C809 1.369 . S
C810 C819 1.429 . S
C811 C809 1.419 . S
C811 C812 1.363 . S
C811 H814 0.929 . S
C812 C811 1.363 . S
C812 C818 1.428 . S
H813 C809 0.930 . S
H814 C811 0.929 . S
S815 N816 1.613 . S
S815 N817 1.610 . S
N816 S815 1.613 . S
N816 C819 1.350 . S
N817 S815 1.610 . S
N817 C818 1.351 . S
C818 C812 1.428 . S
C818 N817 1.351 . S
C818 C819 1.434 . S
C819 C810 1.429 . S
C819 N816 1.350 . S
C819 C818 1.434 . S
C820 C821 1.369 . S
C820 C822 1.419 . S
C820 H824 0.930 . S
C821 C820 1.369 . S
C821 C830 1.429 . S
C822 C820 1.419 . S
C822 C823 1.363 . S
C822 H825 0.929 . S
C823 C822 1.363 . S
C823 C829 1.428 . S
H824 C820 0.930 . S
H825 C822 0.929 . S
S826 N827 1.613 . S
S826 N828 1.610 . S
N827 S826 1.613 . S
N827 C830 1.350 . S
N828 S826 1.610 . S
N828 C829 1.351 . S
C829 C823 1.428 . S
C829 N828 1.351 . S
C829 C830 1.434 . S
C830 C821 1.429 . S
C830 N827 1.350 . S
C830 C829 1.434 . S
C831 C832 1.369 . S
C831 C833 1.419 . S
C831 H835 0.930 . S
C832 C831 1.369 . S
C832 C841 1.429 . S
C833 C831 1.419 . S
C833 C834 1.363 . S
C833 H836 0.929 . S
C834 C833 1.363 . S
C834 C840 1.428 . S
H835 C831 0.930 . S
H836 C833 0.929 . S
S837 N838 1.613 . S
S837 N839 1.610 . S
N838 S837 1.613 . S
N838 C841 1.350 . S
N839 S837 1.610 . S
N839 C840 1.351 . S
C840 C834 1.428 . S
C840 N839 1.351 . S
C840 C841 1.434 . S
C841 C832 1.429 . S
C841 N838 1.350 . S
C841 C840 1.434 . S
C842 C843 1.369 . S
C842 C844 1.419 . S
C842 H846 0.930 . S
C843 C842 1.369 . S
C843 C852 1.429 . S
C844 C842 1.419 . S
C844 C845 1.363 . S
C844 H847 0.929 . S
C845 C844 1.363 . S
C845 C851 1.428 . S
H846 C842 0.930 . S
H847 C844 0.929 . S
S848 N849 1.613 . S
S848 N850 1.610 . S
N849 S848 1.613 . S
N849 C852 1.350 . S
N850 S848 1.610 . S
N850 C851 1.351 . S
C851 C845 1.428 . S
C851 N850 1.351 . S
C851 C852 1.434 . S
C852 C843 1.429 . S
C852 N849 1.350 . S
C852 C851 1.434 . S
C853 C854 1.369 . S
C853 C855 1.419 . S
C853 H857 0.930 . S
C854 C853 1.369 . S
C854 C863 1.429 . S
C855 C853 1.419 . S
C855 C856 1.363 . S
C855 H858 0.929 . S
C856 C855 1.363 . S
C856 C862 1.428 . S
H857 C853 0.930 . S
H858 C855 0.929 . S
S859 N860 1.613 . S
S859 N861 1.610 . S
N860 S859 1.613 . S
N860 C863 1.350 . S
N861 S859 1.610 . S
N861 C862 1.351 . S
C862 C856 1.428 . S
C862 N861 1.351 . S
C862 C863 1.434 . S
C863 C854 1.429 . S
C863 N860 1.350 . S
C863 C862 1.434 . S
C337 C321 1.859 . S
C339 C13 1.855 . S
C348 C27 1.854 . S
C350 C237 1.856 . S
C359 C334 1.859 . S
C361 C40 1.858 . S
C370 C295 1.859 . S
C372 C43 1.854 . S
C381 C252 1.857 . S
C383 C57 1.855 . S
C392 C267 1.854 . S
C394 C71 1.857 . S
C403 C281 1.856 . S
C405 C85 1.855 . S
C414 C110 1.857 . S
C416 C239 1.860 . S
C425 C182 1.854 . S
C427 C125 1.856 . S
C436 C197 1.858 . S
C438 C138 1.854 . S
C447 C140 1.860 . S
C449 C211 1.857 . S
C458 C167 1.860 . S
C460 C181 1.858 . S
C469 C98 1.858 . S
C471 C209 1.859 . S
C480 C223 1.854 . S
C482 C69 1.859 . S
C491 C83 1.855 . S
C493 C169 1.860 . S
C502 C194 1.860 . S
C504 C97 1.856 . S
C513 C152 1.854 . S
C515 C15 1.856 . S
C524 C28 1.853 . S
C526 C155 1.857 . S
C535 C55 1.856 . S
C537 C113 1.855 . S
C546 C1 1.854 . S
C548 C126 1.858 . S
C557 C293 1.858 . S
C559 C307 1.854 . S
C568 C309 1.854 . S
C570 C251 1.859 . S
C579 C264 1.860 . S
C581 C225 1.856 . S
C590 C322 1.855 . S
C592 C279 1.855 . S
C601 C12 1.306 . S
C603 C112 1.307 . S
C612 C127 1.318 . S
C614 C26 1.308 . S
C623 C41 1.317 . S
C625 C153 1.307 . S
C634 C42 1.311 . S
C636 C154 1.314 . S
C645 C56 1.303 . S
C647 C168 1.311 . S
C656 C70 1.312 . S
C658 C195 1.316 . S
C667 C208 1.304 . S
C669 C84 1.314 . S
C678 C222 1.316 . S
C680 C111 1.309 . S
C689 C124 1.307 . S
C691 C224 1.306 . S
C700 C139 1.308 . S
C702 C323 1.317 . S
C711 C306 1.304 . S
C713 C141 1.317 . S
C722 C308 1.316 . S
C724 C166 1.305 . S
C733 C250 1.303 . S
C735 C180 1.312 . S
C744 C265 1.313 . S
C746 C183 1.307 . S
C755 C196 1.315 . S
C757 C278 1.310 . S
C766 C210 1.307 . S
C768 C292 1.306 . S
C777 C0 1.304 . S
C779 C236 1.314 . S
C788 C238 1.313 . S
C790 C68 1.304 . S
C799 C253 1.310 . S
C801 C82 1.315 . S
C810 C266 1.316 . S
C812 C96 1.307 . S
C821 C280 1.312 . S
C823 C99 1.316 . S
C832 C294 1.312 . S
C834 C29 1.315 . S
C843 C54 1.310 . S
C845 C320 1.305 . S
C854 C335 1.305 . S
C856 C14 1.313 . S
