# Generated by pormake.
# Topology smu, (6)-cn, num edge types: 1
# Building blocks:
#     Node 0, Type 0, BuildingBlock: PAMTUU_clean_sbu_0, # of connection points: 6
#     Node 1, Type 0, BuildingBlock: PAMTUU_clean_sbu_0, # of connection points: 6
#     Node 2, Type 0, BuildingBlock: PAMTUU_clean_sbu_0, # of connection points: 6
#     Node 3, Type 0, BuildingBlock: PAMTUU_clean_sbu_0, # of connection points: 6
#     Node 4, Type 0, BuildingBlock: PAMTUU_clean_sbu_0, # of connection points: 6
#     Node 5, Type 0, BuildingBlock: PAMTUU_clean_sbu_0, # of connection points: 6
#     Edge 6, Type (0, 0), BuildingBlock: KIFKEQ_clean_linker_1, # of connection points: 2
#     Edge 7, Type (0, 0), BuildingBlock: KIFKEQ_clean_linker_1, # of connection points: 2
#     Edge 8, Type (0, 0), BuildingBlock: KIFKEQ_clean_linker_1, # of connection points: 2
#     Edge 9, Type (0, 0), BuildingBlock: KIFKEQ_clean_linker_1, # of connection points: 2
#     Edge 10, Type (0, 0), BuildingBlock: KIFKEQ_clean_linker_1, # of connection points: 2
#     Edge 11, Type (0, 0), BuildingBlock: KIFKEQ_clean_linker_1, # of connection points: 2
#     Edge 12, Type (0, 0), BuildingBlock: KIFKEQ_clean_linker_1, # of connection points: 2
#     Edge 13, Type (0, 0), BuildingBlock: KIFKEQ_clean_linker_1, # of connection points: 2
#     Edge 14, Type (0, 0), BuildingBlock: KIFKEQ_clean_linker_1, # of connection points: 2
#     Edge 15, Type (0, 0), BuildingBlock: KIFKEQ_clean_linker_1, # of connection points: 2
#     Edge 16, Type (0, 0), BuildingBlock: KIFKEQ_clean_linker_1, # of connection points: 2
#     Edge 17, Type (0, 0), BuildingBlock: KIFKEQ_clean_linker_1, # of connection points: 2
#     Edge 18, Type (0, 0), BuildingBlock: KIFKEQ_clean_linker_1, # of connection points: 2
#     Edge 19, Type (0, 0), BuildingBlock: KIFKEQ_clean_linker_1, # of connection points: 2
#     Edge 20, Type (0, 0), BuildingBlock: KIFKEQ_clean_linker_1, # of connection points: 2
#     Edge 21, Type (0, 0), BuildingBlock: KIFKEQ_clean_linker_1, # of connection points: 2
#     Edge 22, Type (0, 0), BuildingBlock: KIFKEQ_clean_linker_1, # of connection points: 2
#     Edge 23, Type (0, 0), BuildingBlock: KIFKEQ_clean_linker_1, # of connection points: 2
# Relax obj value: 0.216
# Max RMSD: 0.311
# Mean RMSD: 0.311
data_MOF--net-smu--node1-PAMTUU_clean_sbu_0--edge1-KIFKEQ_clean_linker_1
_symmetry_space_group_name_H-M    P1
_symmetry_Int_Tables_number       1
_symmetry_cell_setting            triclinic
loop_
_symmetry_equiv_pos_as_xyz
'x, y, z'
_cell_length_a     39.510316
_cell_length_b     39.397711
_cell_length_c     27.757958
_cell_angle_alpha  90.655473
_cell_angle_beta   88.916015
_cell_angle_gamma 119.8528
loop_
_atom_site_label
_atom_site_type_symbol
_atom_site_fract_x
_atom_site_fract_y
_atom_site_fract_z
_atom_type_partial_charge
Tb0 Tb 0.32602 0.12263 0.26606 0.0
Tb1 Tb 0.39011 0.09286 0.26977 0.0
C2 C 0.34277 0.08271 0.17603 0.0
C3 C 0.25831 0.17024 0.25873 0.0
C4 C 0.21405 0.20809 0.25523 0.0
C5 C 0.23459 0.20671 0.21415 0.0
C6 C 0.25685 0.18818 0.21602 0.0
C7 C 0.23692 0.17066 0.29938 0.0
C8 C 0.21513 0.18964 0.29773 0.0
C9 C 0.28334 0.1526 0.26155 0.0
O10 O 0.29064 0.06056 0.25571 0.0
O11 O 0.33284 0.04003 0.2831 0.0
O12 O 0.38356 0.11013 0.3423 0.0
O13 O 0.32119 0.09907 0.3381 0.0
O14 O 0.43149 0.08375 0.23264 0.0
O15 O 0.42258 0.07367 0.30927 0.0
O16 O 0.42009 0.15399 0.2468 0.0
O17 O 0.38113 0.17012 0.29018 0.0
O18 O 0.33528 0.11024 0.19094 0.0
O19 O 0.35975 0.06909 0.20366 0.0
C20 C 0.29779 0.03324 0.27049 0.0
O21 O 0.27689 0.12511 0.29222 0.0
O22 O 0.31365 0.16303 0.23326 0.0
C23 C 0.34948 0.0995 0.36269 0.0
C24 C 0.48684 0.09699 0.27809 0.0
C25 C 0.56887 0.1315 0.28444 0.0
C26 C 0.54373 0.09828 0.31201 0.0
C27 C 0.50322 0.08115 0.30863 0.0
C28 C 0.51172 0.13107 0.25189 0.0
C29 C 0.55228 0.14802 0.25487 0.0
C30 C 0.4441 0.07614 0.27181 0.0
C31 C 0.41397 0.18062 0.26726 0.0
H32 H 0.23419 0.22078 0.18103 0.0
H33 H 0.27311 0.18811 0.18419 0.0
H34 H 0.2377 0.15707 0.33274 0.0
H35 H 0.19911 0.18993 0.32971 0.0
H36 H 0.55529 0.08522 0.33604 0.0
H37 H 0.48462 0.055 0.32929 0.0
H38 H 0.4999 0.14409 0.22813 0.0
H39 H 0.57053 0.17331 0.23275 0.0
Tb40 Tb 0.82342 0.71317 0.2736 0.0
Tb41 Tb 0.73021 0.65121 0.25747 0.0
C42 C 0.78548 0.70003 0.17246 0.0
C43 C 0.93479 0.78635 0.2851 0.0
C44 C 1.01585 0.83914 0.27935 0.0
C45 C 0.99456 0.82168 0.23736 0.0
C46 C 0.95437 0.79535 0.24022 0.0
C47 C 0.95563 0.80555 0.32649 0.0
C48 C 0.9957 0.83167 0.3237 0.0
C49 C 0.89535 0.7523 0.29152 0.0
O50 O 0.79897 0.75146 0.26942 0.0
O51 O 0.73391 0.70834 0.24997 0.0
O52 O 0.73494 0.6812 0.32429 0.0
O53 O 0.79458 0.69041 0.34359 0.0
O54 O 0.68267 0.61839 0.21188 0.0
O55 O 0.67642 0.61142 0.28907 0.0
O56 O 0.75749 0.61813 0.28185 0.0
O57 O 0.81606 0.6583 0.2469 0.0
O58 O 0.81181 0.72596 0.20161 0.0
O59 O 0.76015 0.66455 0.18759 0.0
C60 C 0.76353 0.74383 0.25844 0.0
O61 O 0.86885 0.75606 0.31588 0.0
O62 O 0.88066 0.727 0.25651 0.0
C63 C 0.76197 0.68978 0.35604 0.0
C64 C 0.63768 0.55555 0.2429 0.0
C65 C 0.59386 0.47288 0.24018 0.0
C66 C 0.5758 0.49521 0.25102 0.0
C67 C 0.59745 0.53601 0.25221 0.0
C68 C 0.65619 0.53372 0.23238 0.0
C69 C 0.63443 0.49269 0.23088 0.0
C70 C 0.65977 0.59844 0.24772 0.0
C71 C 0.791 0.62416 0.26436 0.0
H72 H 1.00928 0.82677 0.20267 0.0
H73 H 0.9391 0.78066 0.20773 0.0
H74 H 0.94127 0.79876 0.36156 0.0
H75 H 1.01114 0.8452 0.35654 0.0
H76 H 0.54491 0.48117 0.25964 0.0
H77 H 0.5828 0.55236 0.26124 0.0
H78 H 0.68742 0.54836 0.22575 0.0
H79 H 0.64934 0.47657 0.22219 0.0
Tb80 Tb 0.92489 0.21416 0.29485 0.0
Tb81 Tb 0.94603 0.30462 0.27494 0.0
C82 C 0.94557 0.25088 0.19085 0.0
C83 C 0.87769 0.10285 0.30184 0.0
C84 C 0.83459 0.02139 0.28598 0.0
C85 C 0.85625 0.04687 0.2481 0.0
C86 C 0.87776 0.08735 0.25598 0.0
C87 C 0.85444 0.07757 0.33878 0.0
C88 C 0.83302 0.03733 0.33094 0.0
C89 C 0.90465 0.14407 0.31433 0.0
O90 O 0.98684 0.24949 0.30588 0.0
O91 O 1.00059 0.30413 0.26091 0.0
O92 O 0.97023 0.30612 0.34459 0.0
O93 O 0.9311 0.24191 0.36555 0.0
O94 O 0.95074 0.34802 0.22732 0.0
O95 O 0.96042 0.35977 0.30316 0.0
O96 O 0.88548 0.27067 0.2994 0.0
O97 O 0.87391 0.21316 0.26582 0.0
O98 O 0.94711 0.22617 0.22093 0.0
O99 O 0.93382 0.27533 0.20516 0.0
C100 C 1.01135 0.28124 0.28213 0.0
O101 O 0.93251 0.16556 0.2838 0.0
O102 O 0.88953 0.16341 0.33508 0.0
C103 C 0.95673 0.27826 0.37687 0.0
C104 C 0.93166 0.39152 0.26303 0.0
C105 C 0.88928 0.43202 0.26379 0.0
C106 C 0.91372 0.43607 0.3022 0.0
C107 C 0.93474 0.41617 0.30172 0.0
C108 C 0.90665 0.38681 0.225 0.0
C109 C 0.88569 0.40684 0.22541 0.0
C110 C 0.95598 0.37255 0.26212 0.0
C111 C 0.86104 0.236 0.28211 0.0
H112 H 0.85816 0.03544 0.21311 0.0
H113 H 0.89552 0.10622 0.22683 0.0
H114 H 0.85402 0.08885 0.37446 0.0
H115 H 0.81607 0.01854 0.3606 0.0
H116 H 0.91764 0.45565 0.33197 0.0
H117 H 0.95403 0.42065 0.33133 0.0
H118 H 0.9036 0.36808 0.19459 0.0
H119 H 0.86681 0.40276 0.1955 0.0
Tb120 Tb 0.09838 0.38101 0.78691 0.0
Tb121 Tb 0.13335 0.32076 0.78279 0.0
C122 C 0.10004 0.33743 0.8803 0.0
C123 C 0.09825 0.47572 0.78054 0.0
C124 C 0.1321 0.55786 0.77091 0.0
C125 C 0.14787 0.5419 0.80267 0.0
C126 C 0.13126 0.50133 0.80728 0.0
C127 C 0.08307 0.49148 0.74798 0.0
C128 C 0.09988 0.53203 0.74302 0.0
C129 C 0.07833 0.43281 0.78753 0.0
O130 O 0.16004 0.41358 0.80477 0.0
O131 O 0.17511 0.37775 0.7545 0.0
O132 O 0.10501 0.31429 0.71411 0.0
O133 O 0.11253 0.37561 0.71216 0.0
O134 O 0.18403 0.31852 0.79709 0.0
O135 O 0.13555 0.27076 0.75985 0.0
O136 O 0.07306 0.28309 0.80239 0.0
O137 O 0.04752 0.322 0.77801 0.0
O138 O 0.08297 0.35303 0.85622 0.0
O139 O 0.12521 0.32846 0.86009 0.0
C140 C 0.18608 0.40959 0.77955 0.0
O141 O 0.07558 0.41155 0.74992 0.0
O142 O 0.08732 0.42042 0.82585 0.0
C143 C 0.10283 0.34204 0.69108 0.0
C144 C 0.1826 0.25728 0.79604 0.0
C145 C 0.21333 0.20737 0.81194 0.0
C146 C 0.1736 0.19167 0.8014 0.0
C147 C 0.15837 0.21646 0.79318 0.0
C148 C 0.22162 0.27266 0.80957 0.0
C149 C 0.23683 0.248 0.81744 0.0
C150 C 0.1707 0.28437 0.77645 0.0
C151 C 0.04356 0.28799 0.79134 0.0
H152 H 0.17237 0.56069 0.82512 0.0
H153 H 0.14384 0.49011 0.83254 0.0
H154 H 0.05782 0.47236 0.72675 0.0
H155 H 0.08742 0.5431 0.71741 0.0
H156 H 0.1549 0.16042 0.79662 0.0
H157 H 0.12831 0.20376 0.78216 0.0
H158 H 0.24113 0.30401 0.81137 0.0
H159 H 0.26744 0.26084 0.82597 0.0
Tb160 Tb 0.30541 0.9346 0.7772 0.0
Tb161 Tb 0.21581 0.9167 0.75956 0.0
C162 C 0.25216 0.93385 0.86246 0.0
C163 C 0.39237 0.91938 0.7836 0.0
C164 C 0.4377 0.88213 0.77252 0.0
C165 C 0.41141 0.87291 0.81163 0.0
C166 C 0.38909 0.89135 0.81715 0.0
C167 C 0.41784 0.92781 0.74382 0.0
C168 C 0.44005 0.90929 0.73822 0.0
C169 C 0.37196 0.94205 0.79184 0.0
O170 O 0.27082 0.87539 0.74919 0.0
O171 O 0.21398 0.86395 0.78504 0.0
O172 O 0.24294 0.92477 0.68786 0.0
O173 O 0.30793 0.95857 0.7068 0.0
O174 O 0.16796 0.92486 0.77406 0.0
O175 O 0.16496 0.88378 0.71957 0.0
O176 O 0.25321 0.97887 0.74865 0.0
O177 O 0.30575 0.98924 0.79461 0.0
O178 O 0.27479 0.9205 0.84635 0.0
O179 O 0.22812 0.93746 0.83374 0.0
C180 C 0.2361 0.85085 0.76675 0.0
O181 O 0.3635 0.95552 0.75411 0.0
O182 O 0.34358 0.9286 0.82353 0.0
C183 C 0.27983 0.94799 0.67573 0.0
C184 C 0.1051 0.87105 0.75585 0.0
C185 C 0.02434 0.8249 0.7759 0.0
C186 C 0.03886 0.82971 0.72832 0.0
C187 C 0.07872 0.85244 0.71851 0.0
C188 C 0.09111 0.86552 0.80369 0.0
C189 C 0.05101 0.84258 0.81362 0.0
C190 C 0.14614 0.89842 0.7427 0.0
C191 C 0.28449 1.00193 0.77342 0.0
H192 H 0.40914 0.85255 0.8391 0.0
H193 H 0.37005 0.88438 0.84849 0.0
H194 H 0.42126 0.9494 0.71746 0.0
H195 H 0.45949 0.9167 0.70723 0.0
H196 H 1.01932 0.81729 0.69822 0.0
H197 H 0.08886 0.85659 0.68134 0.0
H198 H 0.11093 0.87955 0.83321 0.0
H199 H 0.04087 0.83915 0.85071 0.0
Tb200 Tb 0.65659 0.72251 0.78547 0.0
Tb201 Tb 0.71926 0.81511 0.76516 0.0
C202 C 0.70725 0.77906 0.86758 0.0
C203 C 0.55944 0.6331 0.80014 0.0
C204 C 0.47703 0.59174 0.79816 0.0
C205 C 0.49718 0.58042 0.82955 0.0
C206 C 0.53799 0.60087 0.83041 0.0
C207 C 0.53945 0.64521 0.76965 0.0
C208 C 0.49864 0.62461 0.76853 0.0
C209 C 0.60245 0.65298 0.79972 0.0
O210 O 0.62416 0.74989 0.75905 0.0
O211 O 0.66479 0.80866 0.79218 0.0
O212 O 0.69509 0.78567 0.69663 0.0
O213 O 0.68496 0.72561 0.7173 0.0
O214 O 0.73328 0.87271 0.78003 0.0
O215 O 0.76271 0.86006 0.72181 0.0
O216 O 0.75575 0.78845 0.76588 0.0
O217 O 0.71315 0.72595 0.79582 0.0
O218 O 0.67151 0.75411 0.8539 0.0
O219 O 0.73302 0.80462 0.8371 0.0
C220 C 0.63081 0.78409 0.77468 0.0
O221 O 0.61961 0.66634 0.7582 0.0
O222 O 0.62009 0.67803 0.83425 0.0
C223 C 0.69392 0.75266 0.68488 0.0
C224 C 0.79299 0.92602 0.75141 0.0
C225 C 0.84711 1.00643 0.76245 0.0
C226 C 0.83367 0.99036 0.71655 0.0
C227 C 0.80704 0.9506 0.71117 0.0
C228 C 0.80747 0.94134 0.79717 0.0
C229 C 0.8345 0.98122 0.80259 0.0
C230 C 0.75883 0.88695 0.7449 0.0
C231 C 0.74819 0.75388 0.78169 0.0
H232 H 0.48144 0.55504 0.85251 0.0
H233 H 0.55286 0.59112 0.8542 0.0
H234 H 0.55537 0.67026 0.74623 0.0
H235 H 0.48399 0.63438 0.74442 0.0
H236 H 0.84215 1.00875 0.68488 0.0
H237 H 0.79574 0.93943 0.67567 0.0
H238 H 0.79682 0.92289 0.82882 0.0
H239 H 0.8448 0.99244 0.83835 0.0
H240 H 0.21758 0.97181 0.90792 0.0
H241 H 0.30547 0.93844 0.92661 0.0
H242 H 0.237 1.00844 0.98389 0.0
H243 H 0.32573 0.97592 1.0002 0.0
H244 H 0.33223 1.01154 0.15173 0.0
H245 H 0.30521 0.9741 0.07964 0.0
H246 H 0.28933 0.06673 1.02246 0.0
H247 H 0.31509 0.10421 0.09744 0.0
C248 C 0.24058 0.97175 0.92847 0.0
C249 C 0.25951 0.95159 0.91138 0.0
C250 C 0.25211 0.99327 0.97163 0.0
C251 C 0.28282 0.99506 0.9985 0.0
C252 C 0.30134 0.97457 0.98134 0.0
C253 C 0.28968 0.95296 0.93879 0.0
C254 C 0.32338 0.02443 0.12389 0.0
C255 C 0.3268 0.06149 0.13009 0.0
C256 C 0.3078 1.00275 0.08221 0.0
C257 C 0.29588 0.01762 0.0445 0.0
C258 C 0.29826 0.05434 0.05081 0.0
C259 C 0.31337 0.07601 0.09347 0.0
H260 H 0.71397 0.69816 0.65933 0.0
H261 H 0.70372 0.79389 0.60118 0.0
H262 H 0.73477 0.68683 0.58086 0.0
H263 H 0.72472 0.7823 0.52189 0.0
H264 H 0.70721 0.70895 0.38263 0.0
H265 H 0.69489 0.72807 0.4613 0.0
H266 H 0.78967 0.71736 0.51961 0.0
H267 H 0.80249 0.69822 0.43969 0.0
C268 C 0.71604 0.71681 0.62973 0.0
C269 C 0.70655 0.74662 0.63641 0.0
C270 C 0.7285 0.71055 0.58483 0.0
C271 C 0.73148 0.73367 0.5452 0.0
C272 C 0.72248 0.76385 0.55181 0.0
C273 C 0.71043 0.77049 0.59711 0.0
C274 C 0.72566 0.71067 0.41201 0.0
C275 C 0.75571 0.70166 0.40484 0.0
C276 C 0.71874 0.72209 0.45712 0.0
C277 C 0.74135 0.72442 0.49664 0.0
C278 C 0.77166 0.71568 0.48972 0.0
C279 C 0.77903 0.70474 0.44408 0.0
H280 H 0.99477 0.22504 0.15821 0.0
H281 H 0.94077 0.29171 0.11474 0.0
H282 H 0.03564 0.24564 0.08551 0.0
H283 H 0.98046 0.31109 0.04137 0.0
H284 H 0.08414 0.37861 0.94614 0.0
H285 H 0.04618 0.35458 1.02035 0.0
H286 H 0.04064 0.24307 0.99911 0.0
H287 H 0.08021 0.2681 0.92515 0.0
C288 C 0.99078 0.24319 0.1325 0.0
C289 C 0.96445 0.25676 0.14246 0.0
C290 C 1.01438 0.25512 0.09077 0.0
C291 C 1.01205 0.28071 0.0578 0.0
C292 C 0.98403 0.29235 0.06653 0.0
C293 C 0.96078 0.28078 0.10839 0.0
C294 C 0.0757 0.34931 0.95805 0.0
C295 C 0.08546 0.32538 0.93017 0.0
C296 C 0.05331 0.33522 1.00021 0.0
C297 C 0.03934 0.29646 1.01532 0.0
C298 C 0.05088 0.27308 0.98873 0.0
C299 C 0.07384 0.28747 0.94656 0.0
H300 H 0.28307 0.07472 0.41817 0.0
H301 H 0.39532 0.08079 0.41588 0.0
H302 H 0.26594 0.0374 0.49292 0.0
H303 H 0.37768 0.0422 0.48892 0.0
H304 H 0.23133 0.9376 0.59999 0.0
H305 H 0.24833 0.97516 0.52523 0.0
H306 H 0.3679 0.04312 0.57145 0.0
H307 H 0.35145 1.00476 0.64425 0.0
C308 C 0.30426 0.06844 0.43382 0.0
C309 C 0.34078 0.08123 0.41119 0.0
C310 C 0.2942 0.04649 0.47638 0.0
C311 C 0.32028 0.03646 0.49717 0.0
C312 C 0.357 0.04981 0.47474 0.0
C313 C 0.36718 0.07206 0.4326 0.0
C314 C 0.26136 0.96013 0.59371 0.0
C315 C 0.29002 0.96776 0.62807 0.0
C316 C 0.27106 0.98207 0.55109 0.0
C317 C 0.30958 1.01239 0.54204 0.0
C318 C 0.33812 0.01964 0.57639 0.0
C319 C 0.32857 0.99755 0.61851 0.0
H320 H 0.78167 0.81405 0.90287 0.0
H321 H 0.66214 0.72965 0.93976 0.0
H322 H 0.80358 0.79563 0.97452 0.0
H323 H 0.6839 0.71205 1.01176 0.0
H324 H 0.7337 0.6549 0.10328 0.0
H325 H 0.71654 0.67679 0.03099 0.0
H326 H 0.8051 0.79593 0.06144 0.0
H327 H 0.82319 0.77379 0.13321 0.0
C328 C 0.75995 0.79226 0.92682 0.0
C329 C 0.72009 0.77333 0.91535 0.0
C330 C 0.77257 0.7816 0.96793 0.0
C331 C 0.74562 0.75184 0.99866 0.0
C332 C 0.70564 0.73435 0.98834 0.0
C333 C 0.69307 0.74485 0.94725 0.0
C334 C 0.75005 0.68569 0.09424 0.0
C335 C 0.77977 0.71255 0.12437 0.0
C336 C 0.73983 0.69837 0.05298 0.0
C337 C 0.75885 0.7383 0.04073 0.0
C338 C 0.78983 0.76496 0.06959 0.0
C339 C 0.80024 0.75222 0.11082 0.0
H340 H 1.01494 0.34877 0.40808 0.0
H341 H 0.94298 0.22857 0.45328 0.0
H342 H 0.05159 0.3635 0.48154 0.0
H343 H 0.97898 0.24388 0.52856 0.0
H344 H 0.08557 0.38913 0.63775 0.0
H345 H 0.04832 0.37281 0.56431 0.0
H346 H 0.04057 0.25943 0.56146 0.0
H347 H 0.07674 0.27531 0.63642 0.0
C348 C 1.00636 0.32552 0.43412 0.0
C349 C 0.97568 0.28747 0.42469 0.0
C350 C 0.02745 0.33409 0.47659 0.0
C351 C 1.01833 0.30501 0.51137 0.0
C352 C 0.98723 0.26697 0.50238 0.0
C353 C 0.96621 0.25827 0.45946 0.0
C354 C 0.07637 0.36086 0.62129 0.0
C355 C 0.08447 0.33368 0.64297 0.0
C356 C 0.05495 0.35146 0.57892 0.0
C357 C 0.04128 0.31472 0.55665 0.0
C358 C 0.05002 0.28776 0.57787 0.0
C359 C 0.07127 0.29708 0.62057 0.0
H360 H 0.62723 0.20866 0.27888 0.0
H361 H 0.60871 0.09129 0.29108 0.0
H362 H 0.69749 0.23444 0.2766 0.0
H363 H 0.67863 0.11723 0.29237 0.0
H364 H 0.80367 0.16879 0.24184 0.0
H365 H 0.73396 0.1449 0.24183 0.0
H366 H 0.75193 0.24658 0.32337 0.0
H367 H 0.82211 0.27127 0.32164 0.0
C368 C 0.63803 0.18831 0.28126 0.0
C369 C 0.61203 0.1478 0.28517 0.0
C370 C 0.67845 0.20319 0.28063 0.0
C371 C 0.69398 0.17801 0.28423 0.0
C372 C 0.66794 0.13758 0.28872 0.0
C373 C 0.62762 0.12269 0.28884 0.0
C374 C 0.79283 0.18618 0.25965 0.0
C375 C 0.81855 0.22195 0.28182 0.0
C376 C 0.75268 0.17228 0.26 0.0
C377 C 0.73702 0.19357 0.28294 0.0
C378 C 0.76284 0.22955 0.30483 0.0
C379 C 0.80313 0.24364 0.30413 0.0
H380 H 0.51963 0.4272 0.20703 0.0
H381 H 0.61422 0.41927 0.27144 0.0
H382 H 0.47836 0.35659 0.21284 0.0
H383 H 0.57284 0.34807 0.27588 0.0
H384 H 0.48981 0.21566 0.23271 0.0
H385 H 0.53561 0.28608 0.22355 0.0
H386 H 0.44863 0.31116 0.28295 0.0
H387 H 0.40329 0.24165 0.29211 0.0
C388 C 0.5317 0.41049 0.22249 0.0
C389 C 0.57017 0.42923 0.2395 0.0
C390 C 0.50802 0.36992 0.22561 0.0
C391 C 0.52221 0.34682 0.2453 0.0
C392 C 0.56117 0.36513 0.26035 0.0
C393 C 0.58487 0.40594 0.25767 0.0
C394 C 0.48061 0.23628 0.24391 0.0
C395 C 0.44285 0.22296 0.26301 0.0
C396 C 0.50684 0.27654 0.23883 0.0
C397 C 0.49556 0.3041 0.25211 0.0
C398 C 0.45801 0.29067 0.2717 0.0
C399 C 0.43209 0.25072 0.27724 0.0
H400 H 0.85261 0.44809 0.33829 0.0
H401 H 0.88149 0.46998 0.18672 0.0
H402 H 0.82541 0.49187 0.33743 0.0
H403 H 0.8532 0.5125 0.18556 0.0
H404 H 0.85377 0.62647 0.21946 0.0
H405 H 0.87339 0.57723 0.21874 0.0
H406 H 0.7719 0.50112 0.30517 0.0
H407 H 0.75211 0.55114 0.30636 0.0
C408 C 0.85284 0.46195 0.30472 0.0
C409 C 0.86942 0.45567 0.26263 0.0
C410 C 0.83687 0.48668 0.30413 0.0
C411 C 0.8373 0.50579 0.26149 0.0
C412 C 0.85279 0.49854 0.21913 0.0
C413 C 0.86865 0.47381 0.21968 0.0
C414 C 0.83538 0.59924 0.23824 0.0
C415 C 0.80131 0.59278 0.26305 0.0
C416 C 0.84657 0.57083 0.23749 0.0
C417 C 0.8241 0.53514 0.26162 0.0
C418 C 0.78991 0.52845 0.28641 0.0
C419 C 0.77848 0.55696 0.28691 0.0
H420 H 0.20878 0.61671 0.77671 0.0
H421 H 0.09197 0.59735 0.75941 0.0
H422 H 0.23419 0.68713 0.7764 0.0
H423 H 0.11763 0.66748 0.75587 0.0
H424 H 0.16792 0.79297 0.80569 0.0
H425 H 0.14399 0.72304 0.80634 0.0
H426 H 0.24698 0.74145 0.72706 0.0
H427 H 0.27163 0.81187 0.72793 0.0
C428 C 0.18848 0.62737 0.77265 0.0
C429 C 0.14822 0.60108 0.76819 0.0
C430 C 0.20317 0.66787 0.77181 0.0
C431 C 0.17803 0.6832 0.7662 0.0
C432 C 0.13789 0.6569 0.76102 0.0
C433 C 0.12319 0.61649 0.76225 0.0
C434 C 0.18556 0.7822 0.78841 0.0
C435 C 0.22171 0.80813 0.76667 0.0
C436 C 0.17165 0.74192 0.78846 0.0
C437 C 0.19335 0.72634 0.76647 0.0
C438 C 0.22963 0.75233 0.74484 0.0
C439 C 0.24368 0.79275 0.74504 0.0
H440 H 0.42147 0.80727 0.79382 0.0
H441 H 0.51447 0.91923 0.74409 0.0
H442 H 0.46676 0.78193 0.79339 0.0
H443 H 0.5589 0.89344 0.74143 0.0
H444 H 0.639 0.85427 0.80154 0.0
H445 H 0.5913 0.87561 0.79934 0.0
H446 H 0.50628 0.76327 0.74179 0.0
H447 H 0.55439 0.74125 0.74498 0.0
C448 C 0.45144 0.82642 0.7825 0.0
C449 C 0.46424 0.86538 0.7691 0.0
C450 C 0.47729 0.81172 0.78172 0.0
C451 C 0.51655 0.83568 0.76763 0.0
C452 C 0.52902 0.87429 0.75316 0.0
C453 C 0.50332 0.88896 0.75405 0.0
C454 C 0.61016 0.83388 0.78845 0.0
C455 C 0.60061 0.79597 0.77331 0.0
C456 C 0.58281 0.84634 0.78683 0.0
C457 C 0.54503 0.82137 0.76986 0.0
C458 C 0.53511 0.78319 0.75525 0.0
C459 C 0.56269 0.77063 0.75684 0.0
H460 H 0.2446 0.41303 0.72258 0.0
H461 H 0.22263 0.47368 0.83893 0.0
H462 H 0.31416 0.45925 0.72701 0.0
H463 H 0.2927 0.52035 0.84311 0.0
H464 H 0.42354 0.56111 0.87233 0.0
H465 H 0.35279 0.51949 0.86689 0.0
H466 H 0.36193 0.52852 0.71175 0.0
H467 H 0.43265 0.56934 0.71712 0.0
C468 C 0.25456 0.43648 0.74885 0.0
C469 C 0.22801 0.43968 0.78039 0.0
C470 C 0.2945 0.46312 0.7512 0.0
C471 C 0.30898 0.49353 0.78535 0.0
C472 C 0.28243 0.49705 0.81663 0.0
C473 C 0.24231 0.4705 0.81401 0.0
C474 C 0.41041 0.55419 0.83708 0.0
C475 C 0.43375 0.56845 0.79516 0.0
C476 C 0.36985 0.53068 0.83399 0.0
C477 C 0.35175 0.52066 0.78889 0.0
C478 C 0.37503 0.53544 0.74702 0.0
C479 C 0.41551 0.55914 0.75012 0.0
H480 H 0.16109 0.20169 0.18879 0.0
H481 H 0.21748 0.26205 0.31955 0.0
H482 H 0.11983 0.23168 0.19232 0.0
H483 H 0.17736 0.29309 0.32243 0.0
H484 H 0.05614 0.29871 0.20035 0.0
H485 H 0.11313 0.28997 0.18934 0.0
H486 H 0.11018 0.26717 0.3419 0.0
H487 H 0.05437 0.27654 0.35246 0.0
C488 C 0.16517 0.22206 0.21765 0.0
C489 C 0.19192 0.22917 0.25432 0.0
C490 C 0.14182 0.23949 0.21952 0.0
C491 C 0.14517 0.26462 0.25785 0.0
C492 C 0.1736 0.27335 0.29291 0.0
C493 C 0.19651 0.25558 0.29135 0.0
C494 C 0.06898 0.29355 0.23159 0.0
C495 C 0.05132 0.28847 0.27725 0.0
C496 C 0.10111 0.28795 0.22527 0.0
C497 C 0.11603 0.27761 0.26468 0.0
C498 C 0.09993 0.27565 0.31085 0.0
C499 C 0.0679 0.28098 0.317 0.0
H500 H 0.06801 0.83684 0.34057 0.0
H501 H 0.06145 0.89569 0.21378 0.0
H502 H 0.13897 0.87643 0.33813 0.0
H503 H 0.13232 0.93577 0.21167 0.0
H504 H 0.25921 0.98764 0.19525 0.0
H505 H 0.1914 0.93507 0.19655 0.0
H506 H 0.18954 0.94229 0.35209 0.0
H507 H 0.258 0.99383 0.35026 0.0
C508 C 0.08175 0.85849 0.31237 0.0
C509 C 0.0591 0.86332 0.2775 0.0
C510 C 0.12244 0.88111 0.31092 0.0
C511 C 0.1415 0.90918 0.27461 0.0
C512 C 0.11878 0.91381 0.23956 0.0
C513 C 0.07809 0.89103 0.24087 0.0
C514 C 0.24475 0.97645 0.2297 0.0
C515 C 0.26382 0.99387 0.27269 0.0
C516 C 0.20568 0.94697 0.2305 0.0
C517 C 0.18469 0.93495 0.27436 0.0
C518 C 0.2048 0.95053 0.31767 0.0
C519 C 0.24411 0.9798 0.31679 0.0
H520 H 0.79261 0.9756 0.20961 0.0
H521 H 0.83636 0.97004 0.34904 0.0
H522 H 0.76485 0.90477 0.20032 0.0
H523 H 0.80899 0.89998 0.33982 0.0
H524 H 0.73878 0.77221 0.3312 0.0
H525 H 0.74824 0.83836 0.33658 0.0
H526 H 0.78973 0.85931 0.18868 0.0
H527 H 0.77927 0.79283 0.18354 0.0
C528 C 0.79616 0.95926 0.23827 0.0
C529 C 0.81632 0.97834 0.28024 0.0
C530 C 0.78022 0.91877 0.23302 0.0
C531 C 0.78423 0.89666 0.26961 0.0
C532 C 0.80432 0.91586 0.31154 0.0
C533 C 0.82014 0.95613 0.31678 0.0
C534 C 0.74824 0.79052 0.29938 0.0
C535 C 0.75775 0.77762 0.25675 0.0
C536 C 0.75423 0.82851 0.30256 0.0
C537 C 0.77026 0.85428 0.26324 0.0
C538 C 0.77704 0.84016 0.21947 0.0
C539 C 0.77102 0.80213 0.21638 0.0
H540 H 0.27987 0.22013 0.76563 0.0
H541 H 0.1868 0.13727 0.85812 0.0
H542 H 0.30759 0.17693 0.76108 0.0
H543 H 0.21465 0.09388 0.85343 0.0
H544 H 0.28927 0.03617 0.86024 0.0
H545 H 0.27741 0.09096 0.87507 0.0
H546 H 0.27972 0.10925 0.72165 0.0
H547 H 0.29044 0.05406 0.70711 0.0
C548 C 0.26577 0.193 0.78574 0.0
C549 C 0.23125 0.18208 0.81241 0.0
C550 C 0.28156 0.16827 0.78295 0.0
C551 C 0.26343 0.1323 0.80718 0.0
C552 C 0.22953 0.12179 0.83501 0.0
C553 C 0.2134 0.14635 0.83731 0.0
C554 C 0.2888 0.05302 0.82996 0.0
C555 C 0.29114 0.04144 0.7826 0.0
C556 C 0.28151 0.08391 0.83836 0.0
C557 C 0.2774 0.10406 0.79947 0.0
C558 C 0.28305 0.09441 0.75227 0.0
C559 C 0.28942 0.06306 0.74391 0.0
H560 H 0.98304 0.84393 0.84058 0.0
H561 H 0.96817 0.75868 0.73134 0.0
H562 H 0.91245 0.81547 0.84676 0.0
H563 H 0.89762 0.73102 0.73677 0.0
H564 H 0.79189 0.75238 0.70741 0.0
H565 H 0.85729 0.76085 0.71173 0.0
H566 H 0.84743 0.75485 0.86709 0.0
H567 H 0.78132 0.7456 0.8623 0.0
C568 C 0.96478 0.81852 0.81877 0.0
C569 C 0.98141 0.8039 0.78507 0.0
C570 C 0.92428 0.80223 0.82232 0.0
C571 C 0.89957 0.77115 0.79206 0.0
C572 C 0.91601 0.75521 0.76019 0.0
C573 C 0.95644 0.77123 0.75695 0.0
C574 C 0.80324 0.75133 0.74229 0.0
C575 C 0.78179 0.74791 0.7845 0.0
C576 C 0.84063 0.75625 0.74485 0.0
C577 C 0.85751 0.75866 0.78979 0.0
C578 C 0.83512 0.75319 0.83203 0.0
C579 C 0.7973 0.74753 0.82935 0.0
H580 H 0.99279 0.25805 0.71738 0.0
H581 H 1.01061 0.23691 0.86433 0.0
H582 H 0.93974 0.18999 0.71057 0.0
H583 H 0.95774 0.16931 0.85794 0.0
H584 H 0.90583 0.0577 0.70209 0.0
H585 H 0.94529 0.12846 0.70987 0.0
H586 H 0.88615 0.12395 0.84402 0.0
H587 H 0.84556 0.05313 0.83568 0.0
C588 C 0.98414 0.23926 0.74875 0.0
C589 C 1.00522 0.25246 0.79151 0.0
C590 C 0.95429 0.20029 0.74472 0.0
C591 C 0.94492 0.17433 0.78362 0.0
C592 C 0.96409 0.18866 0.82752 0.0
C593 C 0.99424 0.22731 0.83126 0.0
C594 C 0.9007 0.07172 0.73292 0.0
C595 C 0.87245 0.04952 0.76828 0.0
C596 C 0.92326 0.11233 0.73724 0.0
C597 C 0.91847 0.13172 0.77729 0.0
C598 C 0.89045 0.1097 0.81279 0.0
C599 C 0.86753 0.06908 0.80822 0.0
loop_
_geom_bond_atom_site_label_1
_geom_bond_atom_site_label_2
_geom_bond_distance
_geom_bond_site_symmetry_2
_ccdc_geom_bond_type
Tb0 C9 2.764 . S
Tb0 O10 2.325 . S
Tb0 O13 2.303 . S
Tb0 O17 2.322 . S
Tb0 O18 2.349 . S
Tb0 O21 2.415 . S
Tb0 O22 2.399 . S
Tb1 O11 2.322 . S
Tb1 O12 2.349 . S
Tb1 O14 2.415 . S
Tb1 O15 2.399 . S
Tb1 O16 2.325 . S
Tb1 O19 2.303 . S
Tb1 C30 2.764 . S
C2 O18 1.261 . S
C2 O19 1.257 . S
C3 C6 1.358 . S
C3 C7 1.332 . S
C3 C9 1.504 . S
C4 C5 1.373 . S
C4 C8 1.308 . S
C5 C4 1.373 . S
C5 C6 1.429 . S
C5 H32 0.932 . S
C6 C3 1.358 . S
C6 C5 1.429 . S
C6 H33 0.930 . S
C7 C3 1.332 . S
C7 C8 1.394 . S
C7 H34 0.932 . S
C8 C4 1.308 . S
C8 C7 1.394 . S
C8 H35 0.929 . S
C9 Tb0 2.764 . S
C9 C3 1.504 . S
C9 O21 1.239 . S
C9 O22 1.263 . S
O10 Tb0 2.325 . S
O10 C20 1.236 . S
O11 Tb1 2.322 . S
O11 C20 1.257 . S
O12 Tb1 2.349 . S
O12 C23 1.261 . S
O13 Tb0 2.303 . S
O13 C23 1.257 . S
O14 Tb1 2.415 . S
O14 C30 1.239 . S
O15 Tb1 2.399 . S
O15 C30 1.263 . S
O16 Tb1 2.325 . S
O16 C31 1.236 . S
O17 Tb0 2.322 . S
O17 C31 1.257 . S
O18 Tb0 2.349 . S
O18 C2 1.261 . S
O19 Tb1 2.303 . S
O19 C2 1.257 . S
C20 O10 1.236 . S
C20 O11 1.257 . S
O21 Tb0 2.415 . S
O21 C9 1.239 . S
O22 Tb0 2.399 . S
O22 C9 1.263 . S
C23 O12 1.261 . S
C23 O13 1.257 . S
C24 C27 1.358 . S
C24 C28 1.332 . S
C24 C30 1.504 . S
C25 C26 1.373 . S
C25 C29 1.308 . S
C26 C25 1.373 . S
C26 C27 1.429 . S
C26 H36 0.932 . S
C27 C24 1.358 . S
C27 C26 1.429 . S
C27 H37 0.930 . S
C28 C24 1.332 . S
C28 C29 1.394 . S
C28 H38 0.932 . S
C29 C25 1.308 . S
C29 C28 1.394 . S
C29 H39 0.929 . S
C30 Tb1 2.764 . S
C30 O14 1.239 . S
C30 O15 1.263 . S
C30 C24 1.504 . S
C31 O16 1.236 . S
C31 O17 1.257 . S
H32 C5 0.932 . S
H33 C6 0.930 . S
H34 C7 0.932 . S
H35 C8 0.929 . S
H36 C26 0.932 . S
H37 C27 0.930 . S
H38 C28 0.932 . S
H39 C29 0.929 . S
Tb40 C49 2.764 . S
Tb40 O50 2.325 . S
Tb40 O53 2.303 . S
Tb40 O57 2.322 . S
Tb40 O58 2.349 . S
Tb40 O61 2.415 . S
Tb40 O62 2.399 . S
Tb41 O51 2.322 . S
Tb41 O52 2.349 . S
Tb41 O54 2.415 . S
Tb41 O55 2.399 . S
Tb41 O56 2.325 . S
Tb41 O59 2.303 . S
Tb41 C70 2.764 . S
C42 O58 1.261 . S
C42 O59 1.257 . S
C43 C46 1.358 . S
C43 C47 1.332 . S
C43 C49 1.504 . S
C44 C45 1.373 . S
C44 C48 1.308 . S
C45 C44 1.373 . S
C45 C46 1.429 . S
C45 H72 0.932 1_655 S
C46 C43 1.358 . S
C46 C45 1.429 . S
C46 H73 0.930 . S
C47 C43 1.332 . S
C47 C48 1.394 . S
C47 H74 0.932 . S
C48 C44 1.308 . S
C48 C47 1.394 . S
C48 H75 0.929 . S
C49 Tb40 2.764 . S
C49 C43 1.504 . S
C49 O61 1.239 . S
C49 O62 1.263 . S
O50 Tb40 2.325 . S
O50 C60 1.236 . S
O51 Tb41 2.322 . S
O51 C60 1.257 . S
O52 Tb41 2.349 . S
O52 C63 1.261 . S
O53 Tb40 2.303 . S
O53 C63 1.257 . S
O54 Tb41 2.415 . S
O54 C70 1.239 . S
O55 Tb41 2.399 . S
O55 C70 1.263 . S
O56 Tb41 2.325 . S
O56 C71 1.236 . S
O57 Tb40 2.322 . S
O57 C71 1.257 . S
O58 Tb40 2.349 . S
O58 C42 1.261 . S
O59 Tb41 2.303 . S
O59 C42 1.257 . S
C60 O50 1.236 . S
C60 O51 1.257 . S
O61 Tb40 2.415 . S
O61 C49 1.239 . S
O62 Tb40 2.399 . S
O62 C49 1.263 . S
C63 O52 1.261 . S
C63 O53 1.257 . S
C64 C67 1.358 . S
C64 C68 1.332 . S
C64 C70 1.504 . S
C65 C66 1.373 . S
C65 C69 1.308 . S
C66 C65 1.373 . S
C66 C67 1.429 . S
C66 H76 0.932 . S
C67 C64 1.358 . S
C67 C66 1.429 . S
C67 H77 0.930 . S
C68 C64 1.332 . S
C68 C69 1.394 . S
C68 H78 0.932 . S
C69 C65 1.308 . S
C69 C68 1.394 . S
C69 H79 0.929 . S
C70 Tb41 2.764 . S
C70 O54 1.239 . S
C70 O55 1.263 . S
C70 C64 1.504 . S
C71 O56 1.236 . S
C71 O57 1.257 . S
H72 C45 0.932 1_455 S
H73 C46 0.930 . S
H74 C47 0.932 . S
H75 C48 0.929 . S
H76 C66 0.932 . S
H77 C67 0.930 . S
H78 C68 0.932 . S
H79 C69 0.929 . S
Tb80 C89 2.764 . S
Tb80 O90 2.325 . S
Tb80 O93 2.303 . S
Tb80 O97 2.322 . S
Tb80 O98 2.349 . S
Tb80 O101 2.415 . S
Tb80 O102 2.399 . S
Tb81 O91 2.322 . S
Tb81 O92 2.349 . S
Tb81 O94 2.415 . S
Tb81 O95 2.399 . S
Tb81 O96 2.325 . S
Tb81 O99 2.303 . S
Tb81 C110 2.764 . S
C82 O98 1.261 . S
C82 O99 1.257 . S
C83 C86 1.358 . S
C83 C87 1.332 . S
C83 C89 1.504 . S
C84 C85 1.373 . S
C84 C88 1.308 . S
C85 C84 1.373 . S
C85 C86 1.429 . S
C85 H112 0.932 1_545 S
C86 C83 1.358 . S
C86 C85 1.429 . S
C86 H113 0.930 . S
C87 C83 1.332 . S
C87 C88 1.394 . S
C87 H114 0.932 . S
C88 C84 1.308 . S
C88 C87 1.394 . S
C88 H115 0.929 . S
C89 Tb80 2.764 . S
C89 C83 1.504 . S
C89 O101 1.239 . S
C89 O102 1.263 . S
O90 Tb80 2.325 . S
O90 C100 1.236 . S
O91 Tb81 2.322 . S
O91 C100 1.257 . S
O92 Tb81 2.349 . S
O92 C103 1.261 . S
O93 Tb80 2.303 . S
O93 C103 1.257 . S
O94 Tb81 2.415 . S
O94 C110 1.239 . S
O95 Tb81 2.399 . S
O95 C110 1.263 . S
O96 Tb81 2.325 . S
O96 C111 1.236 . S
O97 Tb80 2.322 . S
O97 C111 1.257 . S
O98 Tb80 2.349 . S
O98 C82 1.261 . S
O99 Tb81 2.303 . S
O99 C82 1.257 . S
C100 O90 1.236 . S
C100 O91 1.257 . S
O101 Tb80 2.415 . S
O101 C89 1.239 . S
O102 Tb80 2.399 . S
O102 C89 1.263 . S
C103 O92 1.261 . S
C103 O93 1.257 . S
C104 C107 1.358 . S
C104 C108 1.332 . S
C104 C110 1.504 . S
C105 C106 1.373 . S
C105 C109 1.308 . S
C106 C105 1.373 . S
C106 C107 1.429 . S
C106 H116 0.932 . S
C107 C104 1.358 . S
C107 C106 1.429 . S
C107 H117 0.930 . S
C108 C104 1.332 . S
C108 C109 1.394 . S
C108 H118 0.932 . S
C109 C105 1.308 . S
C109 C108 1.394 . S
C109 H119 0.929 . S
C110 Tb81 2.764 . S
C110 O94 1.239 . S
C110 O95 1.263 . S
C110 C104 1.504 . S
C111 O96 1.236 . S
C111 O97 1.257 . S
H112 C85 0.932 1_565 S
H113 C86 0.930 . S
H114 C87 0.932 . S
H115 C88 0.929 . S
H116 C106 0.932 . S
H117 C107 0.930 . S
H118 C108 0.932 . S
H119 C109 0.929 . S
Tb120 C129 2.764 . S
Tb120 O130 2.325 . S
Tb120 O133 2.303 . S
Tb120 O137 2.322 . S
Tb120 O138 2.349 . S
Tb120 O141 2.415 . S
Tb120 O142 2.399 . S
Tb121 O131 2.322 . S
Tb121 O132 2.349 . S
Tb121 O134 2.415 . S
Tb121 O135 2.399 . S
Tb121 O136 2.325 . S
Tb121 O139 2.303 . S
Tb121 C150 2.764 . S
C122 O138 1.261 . S
C122 O139 1.257 . S
C123 C126 1.358 . S
C123 C127 1.332 . S
C123 C129 1.504 . S
C124 C125 1.373 . S
C124 C128 1.308 . S
C125 C124 1.373 . S
C125 C126 1.429 . S
C125 H152 0.932 . S
C126 C123 1.358 . S
C126 C125 1.429 . S
C126 H153 0.930 . S
C127 C123 1.332 . S
C127 C128 1.394 . S
C127 H154 0.932 . S
C128 C124 1.308 . S
C128 C127 1.394 . S
C128 H155 0.929 . S
C129 Tb120 2.764 . S
C129 C123 1.504 . S
C129 O141 1.239 . S
C129 O142 1.263 . S
O130 Tb120 2.325 . S
O130 C140 1.236 . S
O131 Tb121 2.322 . S
O131 C140 1.257 . S
O132 Tb121 2.349 . S
O132 C143 1.261 . S
O133 Tb120 2.303 . S
O133 C143 1.257 . S
O134 Tb121 2.415 . S
O134 C150 1.239 . S
O135 Tb121 2.399 . S
O135 C150 1.263 . S
O136 Tb121 2.325 . S
O136 C151 1.236 . S
O137 Tb120 2.322 . S
O137 C151 1.257 . S
O138 Tb120 2.349 . S
O138 C122 1.261 . S
O139 Tb121 2.303 . S
O139 C122 1.257 . S
C140 O130 1.236 . S
C140 O131 1.257 . S
O141 Tb120 2.415 . S
O141 C129 1.239 . S
O142 Tb120 2.399 . S
O142 C129 1.263 . S
C143 O132 1.261 . S
C143 O133 1.257 . S
C144 C147 1.358 . S
C144 C148 1.332 . S
C144 C150 1.504 . S
C145 C146 1.373 . S
C145 C149 1.308 . S
C146 C145 1.373 . S
C146 C147 1.429 . S
C146 H156 0.932 . S
C147 C144 1.358 . S
C147 C146 1.429 . S
C147 H157 0.930 . S
C148 C144 1.332 . S
C148 C149 1.394 . S
C148 H158 0.932 . S
C149 C145 1.308 . S
C149 C148 1.394 . S
C149 H159 0.929 . S
C150 Tb121 2.764 . S
C150 O134 1.239 . S
C150 O135 1.263 . S
C150 C144 1.504 . S
C151 O136 1.236 . S
C151 O137 1.257 . S
H152 C125 0.932 . S
H153 C126 0.930 . S
H154 C127 0.932 . S
H155 C128 0.929 . S
H156 C146 0.932 . S
H157 C147 0.930 . S
H158 C148 0.932 . S
H159 C149 0.929 . S
Tb160 C169 2.764 . S
Tb160 O170 2.325 . S
Tb160 O173 2.303 . S
Tb160 O177 2.322 . S
Tb160 O178 2.349 . S
Tb160 O181 2.415 . S
Tb160 O182 2.399 . S
Tb161 O171 2.322 . S
Tb161 O172 2.349 . S
Tb161 O174 2.415 . S
Tb161 O175 2.399 . S
Tb161 O176 2.325 . S
Tb161 O179 2.303 . S
Tb161 C190 2.764 . S
C162 O178 1.261 . S
C162 O179 1.257 . S
C163 C166 1.358 . S
C163 C167 1.332 . S
C163 C169 1.504 . S
C164 C165 1.373 . S
C164 C168 1.308 . S
C165 C164 1.373 . S
C165 C166 1.429 . S
C165 H192 0.932 . S
C166 C163 1.358 . S
C166 C165 1.429 . S
C166 H193 0.930 . S
C167 C163 1.332 . S
C167 C168 1.394 . S
C167 H194 0.932 . S
C168 C164 1.308 . S
C168 C167 1.394 . S
C168 H195 0.929 . S
C169 Tb160 2.764 . S
C169 C163 1.504 . S
C169 O181 1.239 . S
C169 O182 1.263 . S
O170 Tb160 2.325 . S
O170 C180 1.236 . S
O171 Tb161 2.322 . S
O171 C180 1.257 . S
O172 Tb161 2.349 . S
O172 C183 1.261 . S
O173 Tb160 2.303 . S
O173 C183 1.257 . S
O174 Tb161 2.415 . S
O174 C190 1.239 . S
O175 Tb161 2.399 . S
O175 C190 1.263 . S
O176 Tb161 2.325 . S
O176 C191 1.236 . S
O177 Tb160 2.322 . S
O177 C191 1.257 . S
O178 Tb160 2.349 . S
O178 C162 1.261 . S
O179 Tb161 2.303 . S
O179 C162 1.257 . S
C180 O170 1.236 . S
C180 O171 1.257 . S
O181 Tb160 2.415 . S
O181 C169 1.239 . S
O182 Tb160 2.399 . S
O182 C169 1.263 . S
C183 O172 1.261 . S
C183 O173 1.257 . S
C184 C187 1.358 . S
C184 C188 1.332 . S
C184 C190 1.504 . S
C185 C186 1.373 . S
C185 C189 1.308 . S
C186 C185 1.373 . S
C186 C187 1.429 . S
C186 H196 0.932 1_455 S
C187 C184 1.358 . S
C187 C186 1.429 . S
C187 H197 0.930 . S
C188 C184 1.332 . S
C188 C189 1.394 . S
C188 H198 0.932 . S
C189 C185 1.308 . S
C189 C188 1.394 . S
C189 H199 0.929 . S
C190 Tb161 2.764 . S
C190 O174 1.239 . S
C190 O175 1.263 . S
C190 C184 1.504 . S
C191 O176 1.236 . S
C191 O177 1.257 . S
H192 C165 0.932 . S
H193 C166 0.930 . S
H194 C167 0.932 . S
H195 C168 0.929 . S
H196 C186 0.932 1_655 S
H197 C187 0.930 . S
H198 C188 0.932 . S
H199 C189 0.929 . S
Tb200 C209 2.764 . S
Tb200 O210 2.325 . S
Tb200 O213 2.303 . S
Tb200 O217 2.322 . S
Tb200 O218 2.349 . S
Tb200 O221 2.415 . S
Tb200 O222 2.399 . S
Tb201 O211 2.322 . S
Tb201 O212 2.349 . S
Tb201 O214 2.415 . S
Tb201 O215 2.399 . S
Tb201 O216 2.325 . S
Tb201 O219 2.303 . S
Tb201 C230 2.764 . S
C202 O218 1.261 . S
C202 O219 1.257 . S
C203 C206 1.358 . S
C203 C207 1.332 . S
C203 C209 1.504 . S
C204 C205 1.373 . S
C204 C208 1.308 . S
C205 C204 1.373 . S
C205 C206 1.429 . S
C205 H232 0.932 . S
C206 C203 1.358 . S
C206 C205 1.429 . S
C206 H233 0.930 . S
C207 C203 1.332 . S
C207 C208 1.394 . S
C207 H234 0.932 . S
C208 C204 1.308 . S
C208 C207 1.394 . S
C208 H235 0.929 . S
C209 Tb200 2.764 . S
C209 C203 1.504 . S
C209 O221 1.239 . S
C209 O222 1.263 . S
O210 Tb200 2.325 . S
O210 C220 1.236 . S
O211 Tb201 2.322 . S
O211 C220 1.257 . S
O212 Tb201 2.349 . S
O212 C223 1.261 . S
O213 Tb200 2.303 . S
O213 C223 1.257 . S
O214 Tb201 2.415 . S
O214 C230 1.239 . S
O215 Tb201 2.399 . S
O215 C230 1.263 . S
O216 Tb201 2.325 . S
O216 C231 1.236 . S
O217 Tb200 2.322 . S
O217 C231 1.257 . S
O218 Tb200 2.349 . S
O218 C202 1.261 . S
O219 Tb201 2.303 . S
O219 C202 1.257 . S
C220 O210 1.236 . S
C220 O211 1.257 . S
O221 Tb200 2.415 . S
O221 C209 1.239 . S
O222 Tb200 2.399 . S
O222 C209 1.263 . S
C223 O212 1.261 . S
C223 O213 1.257 . S
C224 C227 1.358 . S
C224 C228 1.332 . S
C224 C230 1.504 . S
C225 C226 1.373 . S
C225 C229 1.308 . S
C226 C225 1.373 . S
C226 C227 1.429 . S
C226 H236 0.932 1_565 S
C227 C224 1.358 . S
C227 C226 1.429 . S
C227 H237 0.930 . S
C228 C224 1.332 . S
C228 C229 1.394 . S
C228 H238 0.932 . S
C229 C225 1.308 . S
C229 C228 1.394 . S
C229 H239 0.929 . S
C230 Tb201 2.764 . S
C230 O214 1.239 . S
C230 O215 1.263 . S
C230 C224 1.504 . S
C231 O216 1.236 . S
C231 O217 1.257 . S
H232 C205 0.932 . S
H233 C206 0.930 . S
H234 C207 0.932 . S
H235 C208 0.929 . S
H236 C226 0.932 1_545 S
H237 C227 0.930 . S
H238 C228 0.932 . S
H239 C229 0.929 . S
H240 C248 0.950 . S
H241 C253 0.950 . S
H242 C250 0.950 1_545 S
H243 C252 0.956 . S
H244 C254 0.950 . S
H245 C256 0.950 1_565 S
H246 C258 0.956 . S
H247 C259 0.950 . S
C248 H240 0.950 . S
C248 C249 1.386 . S
C248 C250 1.391 . S
C249 C248 1.386 . S
C249 C253 1.393 . S
C250 H242 0.950 1_565 S
C250 C248 1.391 . S
C250 C251 1.400 . S
C251 C250 1.400 . S
C251 C252 1.398 . S
C251 C257 1.491 1_566 S
C252 H243 0.956 . S
C252 C251 1.398 . S
C252 C253 1.391 . S
C253 H241 0.950 . S
C253 C249 1.393 . S
C253 C252 1.391 . S
C254 H244 0.950 . S
C254 C255 1.386 . S
C254 C256 1.391 . S
C255 C254 1.386 . S
C255 C259 1.393 . S
C256 H245 0.950 1_545 S
C256 C254 1.391 . S
C256 C257 1.400 . S
C257 C251 1.491 1_544 S
C257 C256 1.400 . S
C257 C258 1.398 . S
C258 H246 0.956 . S
C258 C257 1.398 . S
C258 C259 1.391 . S
C259 H247 0.950 . S
C259 C255 1.393 . S
C259 C258 1.391 . S
H260 C268 0.950 . S
H261 C273 0.950 . S
H262 C270 0.950 . S
H263 C272 0.950 . S
H264 C274 0.950 . S
H265 C276 0.950 . S
H266 C278 0.950 . S
H267 C279 0.950 . S
C268 H260 0.950 . S
C268 C269 1.386 . S
C268 C270 1.391 . S
C269 C268 1.386 . S
C269 C273 1.393 . S
C270 H262 0.950 . S
C270 C268 1.391 . S
C270 C271 1.400 . S
C271 C270 1.400 . S
C271 C272 1.398 . S
C271 C277 1.491 . S
C272 H263 0.950 . S
C272 C271 1.398 . S
C272 C273 1.391 . S
C273 H261 0.950 . S
C273 C269 1.393 . S
C273 C272 1.391 . S
C274 H264 0.950 . S
C274 C275 1.386 . S
C274 C276 1.391 . S
C275 C274 1.386 . S
C275 C279 1.393 . S
C276 H265 0.950 . S
C276 C274 1.391 . S
C276 C277 1.400 . S
C277 C271 1.491 . S
C277 C276 1.400 . S
C277 C278 1.398 . S
C278 H266 0.950 . S
C278 C277 1.398 . S
C278 C279 1.391 . S
C279 H267 0.950 . S
C279 C275 1.393 . S
C279 C278 1.391 . S
H280 C288 0.950 . S
H281 C293 0.950 . S
H282 C290 0.950 . S
H283 C292 0.950 . S
H284 C294 0.950 . S
H285 C296 0.950 . S
H286 C298 0.950 . S
H287 C299 0.950 . S
C288 H280 0.950 . S
C288 C289 1.386 . S
C288 C290 1.391 . S
C289 C288 1.386 . S
C289 C293 1.393 . S
C290 H282 0.950 . S
C290 C288 1.391 . S
C290 C291 1.400 . S
C291 C290 1.400 . S
C291 C292 1.398 . S
C291 C297 1.491 1_654 S
C292 H283 0.950 . S
C292 C291 1.398 . S
C292 C293 1.391 . S
C293 H281 0.950 . S
C293 C289 1.393 . S
C293 C292 1.391 . S
C294 H284 0.950 . S
C294 C295 1.386 . S
C294 C296 1.391 . S
C295 C294 1.386 . S
C295 C299 1.393 . S
C296 H285 0.950 . S
C296 C294 1.391 . S
C296 C297 1.400 . S
C297 C291 1.491 1_456 S
C297 C296 1.400 . S
C297 C298 1.398 . S
C298 H286 0.950 . S
C298 C297 1.398 . S
C298 C299 1.391 . S
C299 H287 0.950 . S
C299 C295 1.393 . S
C299 C298 1.391 . S
H300 C308 0.950 . S
H301 C313 0.950 . S
H302 C310 0.950 . S
H303 C312 0.975 . S
H304 C314 0.950 . S
H305 C316 0.950 . S
H306 C318 0.950 1_545 S
H307 C319 0.950 . S
C308 H300 0.950 . S
C308 C309 1.386 . S
C308 C310 1.391 . S
C309 C308 1.386 . S
C309 C313 1.393 . S
C310 H302 0.950 . S
C310 C308 1.391 . S
C310 C311 1.400 . S
C311 C310 1.400 . S
C311 C312 1.395 1_545 S
C311 C317 1.491 1_545 S
C312 H303 0.975 . S
C312 C311 1.395 1_565 S
C312 C313 1.371 1_565 S
C313 H301 0.950 . S
C313 C309 1.393 . S
C313 C312 1.371 1_545 S
C314 H304 0.950 . S
C314 C315 1.386 . S
C314 C316 1.391 . S
C315 C314 1.386 . S
C315 C319 1.393 . S
C316 H305 0.950 . S
C316 C314 1.391 . S
C316 C317 1.400 . S
C317 C311 1.491 1_565 S
C317 C316 1.400 . S
C317 C318 1.398 . S
C318 H306 0.950 1_565 S
C318 C317 1.398 . S
C318 C319 1.391 . S
C319 H307 0.950 . S
C319 C315 1.393 . S
C319 C318 1.391 . S
H320 C328 0.950 . S
H321 C333 0.950 . S
H322 C330 0.950 . S
H323 C332 0.950 . S
H324 C334 0.950 . S
H325 C336 0.950 . S
H326 C338 0.950 . S
H327 C339 0.950 . S
C328 H320 0.950 . S
C328 C329 1.386 . S
C328 C330 1.391 . S
C329 C328 1.386 . S
C329 C333 1.393 . S
C330 H322 0.950 . S
C330 C328 1.391 . S
C330 C331 1.400 . S
C331 C330 1.400 . S
C331 C332 1.398 . S
C331 C337 1.491 1_556 S
C332 H323 0.950 . S
C332 C331 1.398 . S
C332 C333 1.391 . S
C333 H321 0.950 . S
C333 C329 1.393 . S
C333 C332 1.391 . S
C334 H324 0.950 . S
C334 C335 1.386 . S
C334 C336 1.391 . S
C335 C334 1.386 . S
C335 C339 1.393 . S
C336 H325 0.950 . S
C336 C334 1.391 . S
C336 C337 1.400 . S
C337 C331 1.491 1_554 S
C337 C336 1.400 . S
C337 C338 1.398 . S
C338 H326 0.950 . S
C338 C337 1.398 . S
C338 C339 1.391 . S
C339 H327 0.950 . S
C339 C335 1.393 . S
C339 C338 1.391 . S
H340 C348 0.950 . S
H341 C353 0.950 . S
H342 C350 0.950 . S
H343 C352 0.950 . S
H344 C354 0.950 . S
H345 C356 0.950 1_655 S
H346 C358 0.950 . S
H347 C359 0.950 . S
C348 H340 0.950 . S
C348 C349 1.386 . S
C348 C350 1.391 1_655 S
C349 C348 1.386 . S
C349 C353 1.393 . S
C350 H342 0.950 . S
C350 C348 1.391 1_455 S
C350 C351 1.400 1_455 S
C351 C350 1.400 1_655 S
C351 C352 1.398 . S
C351 C357 1.491 1_655 S
C352 H343 0.950 . S
C352 C351 1.398 . S
C352 C353 1.391 . S
C353 H341 0.950 . S
C353 C349 1.393 . S
C353 C352 1.391 . S
C354 H344 0.950 . S
C354 C355 1.386 . S
C354 C356 1.391 . S
C355 C354 1.386 . S
C355 C359 1.393 . S
C356 H345 0.950 1_455 S
C356 C354 1.391 . S
C356 C357 1.400 . S
C357 C351 1.491 1_455 S
C357 C356 1.400 . S
C357 C358 1.398 . S
C358 H346 0.950 . S
C358 C357 1.398 . S
C358 C359 1.391 . S
C359 H347 0.950 . S
C359 C355 1.393 . S
C359 C358 1.391 . S
H360 C368 0.950 . S
H361 C373 0.950 . S
H362 C370 0.950 . S
H363 C372 0.950 . S
H364 C374 0.950 . S
H365 C376 0.950 . S
H366 C378 0.950 . S
H367 C379 0.950 . S
C368 H360 0.950 . S
C368 C369 1.386 . S
C368 C370 1.391 . S
C369 C368 1.386 . S
C369 C373 1.393 . S
C370 H362 0.950 . S
C370 C368 1.391 . S
C370 C371 1.400 . S
C371 C370 1.400 . S
C371 C372 1.398 . S
C371 C377 1.491 . S
C372 H363 0.950 . S
C372 C371 1.398 . S
C372 C373 1.391 . S
C373 H361 0.950 . S
C373 C369 1.393 . S
C373 C372 1.391 . S
C374 H364 0.950 . S
C374 C375 1.386 . S
C374 C376 1.391 . S
C375 C374 1.386 . S
C375 C379 1.393 . S
C376 H365 0.950 . S
C376 C374 1.391 . S
C376 C377 1.400 . S
C377 C371 1.491 . S
C377 C376 1.400 . S
C377 C378 1.398 . S
C378 H366 0.950 . S
C378 C377 1.398 . S
C378 C379 1.391 . S
C379 H367 0.950 . S
C379 C375 1.393 . S
C379 C378 1.391 . S
H380 C388 0.950 . S
H381 C393 0.950 . S
H382 C390 0.950 . S
H383 C392 0.950 . S
H384 C394 0.950 . S
H385 C396 0.950 . S
H386 C398 0.950 . S
H387 C399 0.950 . S
C388 H380 0.950 . S
C388 C389 1.386 . S
C388 C390 1.391 . S
C389 C388 1.386 . S
C389 C393 1.393 . S
C390 H382 0.950 . S
C390 C388 1.391 . S
C390 C391 1.400 . S
C391 C390 1.400 . S
C391 C392 1.398 . S
C391 C397 1.491 . S
C392 H383 0.950 . S
C392 C391 1.398 . S
C392 C393 1.391 . S
C393 H381 0.950 . S
C393 C389 1.393 . S
C393 C392 1.391 . S
C394 H384 0.950 . S
C394 C395 1.386 . S
C394 C396 1.391 . S
C395 C394 1.386 . S
C395 C399 1.393 . S
C396 H385 0.950 . S
C396 C394 1.391 . S
C396 C397 1.400 . S
C397 C391 1.491 . S
C397 C396 1.400 . S
C397 C398 1.398 . S
C398 H386 0.950 . S
C398 C397 1.398 . S
C398 C399 1.391 . S
C399 H387 0.950 . S
C399 C395 1.393 . S
C399 C398 1.391 . S
H400 C408 0.950 . S
H401 C413 0.950 . S
H402 C410 0.950 . S
H403 C412 0.950 . S
H404 C414 0.950 . S
H405 C416 0.950 . S
H406 C418 0.950 . S
H407 C419 0.950 . S
C408 H400 0.950 . S
C408 C409 1.386 . S
C408 C410 1.391 . S
C409 C408 1.386 . S
C409 C413 1.393 . S
C410 H402 0.950 . S
C410 C408 1.391 . S
C410 C411 1.400 . S
C411 C410 1.400 . S
C411 C412 1.398 . S
C411 C417 1.491 . S
C412 H403 0.950 . S
C412 C411 1.398 . S
C412 C413 1.391 . S
C413 H401 0.950 . S
C413 C409 1.393 . S
C413 C412 1.391 . S
C414 H404 0.950 . S
C414 C415 1.386 . S
C414 C416 1.391 . S
C415 C414 1.386 . S
C415 C419 1.393 . S
C416 H405 0.950 . S
C416 C414 1.391 . S
C416 C417 1.400 . S
C417 C411 1.491 . S
C417 C416 1.400 . S
C417 C418 1.398 . S
C418 H406 0.950 . S
C418 C417 1.398 . S
C418 C419 1.391 . S
C419 H407 0.950 . S
C419 C415 1.393 . S
C419 C418 1.391 . S
H420 C428 0.950 . S
H421 C433 0.950 . S
H422 C430 0.950 . S
H423 C432 0.950 . S
H424 C434 0.950 . S
H425 C436 0.950 . S
H426 C438 0.950 . S
H427 C439 0.950 . S
C428 H420 0.950 . S
C428 C429 1.386 . S
C428 C430 1.391 . S
C429 C428 1.386 . S
C429 C433 1.393 . S
C430 H422 0.950 . S
C430 C428 1.391 . S
C430 C431 1.400 . S
C431 C430 1.400 . S
C431 C432 1.398 . S
C431 C437 1.491 . S
C432 H423 0.950 . S
C432 C431 1.398 . S
C432 C433 1.391 . S
C433 H421 0.950 . S
C433 C429 1.393 . S
C433 C432 1.391 . S
C434 H424 0.950 . S
C434 C435 1.386 . S
C434 C436 1.391 . S
C435 C434 1.386 . S
C435 C439 1.393 . S
C436 H425 0.950 . S
C436 C434 1.391 . S
C436 C437 1.400 . S
C437 C431 1.491 . S
C437 C436 1.400 . S
C437 C438 1.398 . S
C438 H426 0.950 . S
C438 C437 1.398 . S
C438 C439 1.391 . S
C439 H427 0.950 . S
C439 C435 1.393 . S
C439 C438 1.391 . S
H440 C448 0.950 . S
H441 C453 0.950 . S
H442 C450 0.950 . S
H443 C452 0.950 . S
H444 C454 0.950 . S
H445 C456 0.950 . S
H446 C458 0.950 . S
H447 C459 0.950 . S
C448 H440 0.950 . S
C448 C449 1.386 . S
C448 C450 1.391 . S
C449 C448 1.386 . S
C449 C453 1.393 . S
C450 H442 0.950 . S
C450 C448 1.391 . S
C450 C451 1.400 . S
C451 C450 1.400 . S
C451 C452 1.398 . S
C451 C457 1.491 . S
C452 H443 0.950 . S
C452 C451 1.398 . S
C452 C453 1.391 . S
C453 H441 0.950 . S
C453 C449 1.393 . S
C453 C452 1.391 . S
C454 H444 0.950 . S
C454 C455 1.386 . S
C454 C456 1.391 . S
C455 C454 1.386 . S
C455 C459 1.393 . S
C456 H445 0.950 . S
C456 C454 1.391 . S
C456 C457 1.400 . S
C457 C451 1.491 . S
C457 C456 1.400 . S
C457 C458 1.398 . S
C458 H446 0.950 . S
C458 C457 1.398 . S
C458 C459 1.391 . S
C459 H447 0.950 . S
C459 C455 1.393 . S
C459 C458 1.391 . S
H460 C468 0.950 . S
H461 C473 0.950 . S
H462 C470 0.950 . S
H463 C472 0.950 . S
H464 C474 0.950 . S
H465 C476 0.950 . S
H466 C478 0.950 . S
H467 C479 0.950 . S
C468 H460 0.950 . S
C468 C469 1.386 . S
C468 C470 1.391 . S
C469 C468 1.386 . S
C469 C473 1.393 . S
C470 H462 0.950 . S
C470 C468 1.391 . S
C470 C471 1.400 . S
C471 C470 1.400 . S
C471 C472 1.398 . S
C471 C477 1.491 . S
C472 H463 0.950 . S
C472 C471 1.398 . S
C472 C473 1.391 . S
C473 H461 0.950 . S
C473 C469 1.393 . S
C473 C472 1.391 . S
C474 H464 0.950 . S
C474 C475 1.386 . S
C474 C476 1.391 . S
C475 C474 1.386 . S
C475 C479 1.393 . S
C476 H465 0.950 . S
C476 C474 1.391 . S
C476 C477 1.400 . S
C477 C471 1.491 . S
C477 C476 1.400 . S
C477 C478 1.398 . S
C478 H466 0.950 . S
C478 C477 1.398 . S
C478 C479 1.391 . S
C479 H467 0.950 . S
C479 C475 1.393 . S
C479 C478 1.391 . S
H480 C488 0.950 . S
H481 C493 0.950 . S
H482 C490 0.950 . S
H483 C492 0.950 . S
H484 C494 0.950 . S
H485 C496 0.950 . S
H486 C498 0.950 . S
H487 C499 0.950 . S
C488 H480 0.950 . S
C488 C489 1.386 . S
C488 C490 1.391 . S
C489 C488 1.386 . S
C489 C493 1.393 . S
C490 H482 0.950 . S
C490 C488 1.391 . S
C490 C491 1.400 . S
C491 C490 1.400 . S
C491 C492 1.398 . S
C491 C497 1.491 . S
C492 H483 0.950 . S
C492 C491 1.398 . S
C492 C493 1.391 . S
C493 H481 0.950 . S
C493 C489 1.393 . S
C493 C492 1.391 . S
C494 H484 0.950 . S
C494 C495 1.386 1_455 S
C494 C496 1.391 . S
C495 C494 1.386 1_655 S
C495 C499 1.393 . S
C496 H485 0.950 . S
C496 C494 1.391 . S
C496 C497 1.400 . S
C497 C491 1.491 . S
C497 C496 1.400 . S
C497 C498 1.398 1_455 S
C498 H486 0.950 . S
C498 C497 1.398 1_655 S
C498 C499 1.391 . S
C499 H487 0.950 . S
C499 C495 1.393 . S
C499 C498 1.391 . S
H500 C508 0.950 . S
H501 C513 0.950 . S
H502 C510 0.950 . S
H503 C512 0.950 . S
H504 C514 0.943 . S
H505 C516 0.950 . S
H506 C518 0.950 . S
H507 C519 0.950 . S
C508 H500 0.950 . S
C508 C509 1.386 . S
C508 C510 1.391 . S
C509 C508 1.386 . S
C509 C513 1.393 . S
C510 H502 0.950 . S
C510 C508 1.391 . S
C510 C511 1.400 . S
C511 C510 1.400 . S
C511 C512 1.398 . S
C511 C517 1.491 . S
C512 H503 0.950 . S
C512 C511 1.398 . S
C512 C513 1.391 . S
C513 H501 0.950 . S
C513 C509 1.393 . S
C513 C512 1.391 . S
C514 H504 0.943 . S
C514 C515 1.386 1_565 S
C514 C516 1.391 . S
C515 C514 1.386 1_545 S
C515 C519 1.393 . S
C516 H505 0.950 . S
C516 C514 1.391 . S
C516 C517 1.400 . S
C517 C511 1.491 . S
C517 C516 1.400 . S
C517 C518 1.398 . S
C518 H506 0.950 . S
C518 C517 1.398 . S
C518 C519 1.391 1_565 S
C519 H507 0.950 . S
C519 C515 1.393 . S
C519 C518 1.391 1_545 S
H520 C528 0.950 . S
H521 C533 0.950 . S
H522 C530 0.950 . S
H523 C532 0.950 . S
H524 C534 0.950 . S
H525 C536 0.950 . S
H526 C538 0.950 . S
H527 C539 0.950 . S
C528 H520 0.950 . S
C528 C529 1.386 . S
C528 C530 1.391 . S
C529 C528 1.386 . S
C529 C533 1.393 . S
C530 H522 0.950 . S
C530 C528 1.391 . S
C530 C531 1.400 . S
C531 C530 1.400 . S
C531 C532 1.398 . S
C531 C537 1.491 . S
C532 H523 0.950 . S
C532 C531 1.398 . S
C532 C533 1.391 . S
C533 H521 0.950 . S
C533 C529 1.393 . S
C533 C532 1.391 . S
C534 H524 0.950 . S
C534 C535 1.386 . S
C534 C536 1.391 . S
C535 C534 1.386 . S
C535 C539 1.393 . S
C536 H525 0.950 . S
C536 C534 1.391 . S
C536 C537 1.400 . S
C537 C531 1.491 . S
C537 C536 1.400 . S
C537 C538 1.398 . S
C538 H526 0.950 . S
C538 C537 1.398 . S
C538 C539 1.391 . S
C539 H527 0.950 . S
C539 C535 1.393 . S
C539 C538 1.391 . S
H540 C548 0.950 . S
H541 C553 0.950 . S
H542 C550 0.950 . S
H543 C552 0.950 . S
H544 C554 0.950 . S
H545 C556 0.950 . S
H546 C558 0.950 . S
H547 C559 0.950 . S
C548 H540 0.950 . S
C548 C549 1.386 . S
C548 C550 1.391 . S
C549 C548 1.386 . S
C549 C553 1.393 . S
C550 H542 0.950 . S
C550 C548 1.391 . S
C550 C551 1.400 . S
C551 C550 1.400 . S
C551 C552 1.398 . S
C551 C557 1.491 . S
C552 H543 0.950 . S
C552 C551 1.398 . S
C552 C553 1.391 . S
C553 H541 0.950 . S
C553 C549 1.393 . S
C553 C552 1.391 . S
C554 H544 0.950 . S
C554 C555 1.386 . S
C554 C556 1.391 . S
C555 C554 1.386 . S
C555 C559 1.393 1_565 S
C556 H545 0.950 . S
C556 C554 1.391 . S
C556 C557 1.400 1_565 S
C557 C551 1.491 . S
C557 C556 1.400 1_545 S
C557 C558 1.398 . S
C558 H546 0.950 . S
C558 C557 1.398 . S
C558 C559 1.391 . S
C559 H547 0.950 . S
C559 C555 1.393 1_545 S
C559 C558 1.391 . S
H560 C568 0.950 . S
H561 C573 0.950 . S
H562 C570 0.950 . S
H563 C572 0.950 . S
H564 C574 0.950 . S
H565 C576 0.950 . S
H566 C578 0.950 . S
H567 C579 0.950 . S
C568 H560 0.950 . S
C568 C569 1.386 . S
C568 C570 1.391 . S
C569 C568 1.386 . S
C569 C573 1.393 . S
C570 H562 0.950 . S
C570 C568 1.391 . S
C570 C571 1.400 . S
C571 C570 1.400 . S
C571 C572 1.398 . S
C571 C577 1.491 . S
C572 H563 0.950 . S
C572 C571 1.398 . S
C572 C573 1.391 . S
C573 H561 0.950 . S
C573 C569 1.393 . S
C573 C572 1.391 . S
C574 H564 0.950 . S
C574 C575 1.386 . S
C574 C576 1.391 . S
C575 C574 1.386 . S
C575 C579 1.393 . S
C576 H565 0.950 . S
C576 C574 1.391 . S
C576 C577 1.400 . S
C577 C571 1.491 . S
C577 C576 1.400 . S
C577 C578 1.398 . S
C578 H566 0.950 . S
C578 C577 1.398 . S
C578 C579 1.391 . S
C579 H567 0.950 . S
C579 C575 1.393 . S
C579 C578 1.391 . S
H580 C588 0.950 . S
H581 C593 0.950 . S
H582 C590 0.950 . S
H583 C592 0.950 . S
H584 C594 0.950 . S
H585 C596 0.950 . S
H586 C598 0.950 . S
H587 C599 0.950 . S
C588 H580 0.950 . S
C588 C589 1.386 1_655 S
C588 C590 1.391 . S
C589 C588 1.386 1_455 S
C589 C593 1.393 . S
C590 H582 0.950 . S
C590 C588 1.391 . S
C590 C591 1.400 . S
C591 C590 1.400 . S
C591 C592 1.398 1_655 S
C591 C597 1.491 . S
C592 H583 0.950 . S
C592 C591 1.398 1_455 S
C592 C593 1.391 . S
C593 H581 0.950 . S
C593 C589 1.393 . S
C593 C592 1.391 . S
C594 H584 0.950 . S
C594 C595 1.386 . S
C594 C596 1.391 . S
C595 C594 1.386 . S
C595 C599 1.393 . S
C596 H585 0.950 . S
C596 C594 1.391 . S
C596 C597 1.400 . S
C597 C591 1.491 . S
C597 C596 1.400 . S
C597 C598 1.398 . S
C598 H586 0.950 . S
C598 C597 1.398 . S
C598 C599 1.391 . S
C599 H587 0.950 . S
C599 C595 1.393 . S
C599 C598 1.391 . S
C249 C162 2.368 . S
C255 C2 2.426 . S
C269 C223 2.421 . S
C275 C63 2.361 . S
C289 C82 2.421 . S
C295 C122 2.363 . S
C309 C23 2.364 . S
C315 C183 2.424 . S
C329 C202 2.361 . S
C335 C42 2.419 . S
C349 C103 2.348 . S
C355 C143 2.408 . S
C369 C25 1.812 . S
C375 C111 1.821 . S
C389 C65 1.816 . S
C395 C31 1.819 . S
C409 C105 1.814 . S
C415 C71 1.822 . S
C429 C124 1.798 . S
C435 C180 1.804 . S
C449 C164 1.805 . S
C455 C220 1.807 . S
C469 C140 1.824 . S
C475 C204 1.817 . S
C489 C4 1.043 . S
C495 C100 1.035 . S
C509 C44 1.017 1_455 S
C515 C20 1.013 . S
C529 C84 1.038 1_565 S
C535 C60 1.042 . S
C549 C145 1.042 . S
C555 C191 1.034 . S
C569 C185 1.029 1_655 S
C575 C231 1.034 . S
C589 C151 1.029 . S
C595 C225 1.038 1_545 S
