# Generated by pormake.
# Topology lll, (7)-cn, num edge types: 1
# Building blocks:
#     Node 0, Type 0, BuildingBlock: HICVOG_clean_sbu_0, # of connection points: 7
#     Node 1, Type 0, BuildingBlock: HICVOG_clean_sbu_0, # of connection points: 7
#     Node 2, Type 0, BuildingBlock: HICVOG_clean_sbu_0, # of connection points: 7
#     Node 3, Type 0, BuildingBlock: HICVOG_clean_sbu_0, # of connection points: 7
#     Node 4, Type 0, BuildingBlock: HICVOG_clean_sbu_0, # of connection points: 7
#     Node 5, Type 0, BuildingBlock: HICVOG_clean_sbu_0, # of connection points: 7
#     Node 6, Type 0, BuildingBlock: HICVOG_clean_sbu_0, # of connection points: 7
#     Node 7, Type 0, BuildingBlock: HICVOG_clean_sbu_0, # of connection points: 7
#     Node 8, Type 0, BuildingBlock: HICVOG_clean_sbu_0, # of connection points: 7
#     Node 9, Type 0, BuildingBlock: HICVOG_clean_sbu_0, # of connection points: 7
#     Node 10, Type 0, BuildingBlock: HICVOG_clean_sbu_0, # of connection points: 7
#     Node 11, Type 0, BuildingBlock: HICVOG_clean_sbu_0, # of connection points: 7
#     Node 12, Type 0, BuildingBlock: HICVOG_clean_sbu_0, # of connection points: 7
#     Node 13, Type 0, BuildingBlock: HICVOG_clean_sbu_0, # of connection points: 7
#     Node 14, Type 0, BuildingBlock: HICVOG_clean_sbu_0, # of connection points: 7
#     Node 15, Type 0, BuildingBlock: HICVOG_clean_sbu_0, # of connection points: 7
#     Edge 16, Type (0, 0), BuildingBlock: XIVTED_clean_linker_0, # of connection points: 2
#     Edge 17, Type (0, 0), BuildingBlock: XIVTED_clean_linker_0, # of connection points: 2
#     Edge 18, Type (0, 0), BuildingBlock: XIVTED_clean_linker_0, # of connection points: 2
#     Edge 19, Type (0, 0), BuildingBlock: XIVTED_clean_linker_0, # of connection points: 2
#     Edge 20, Type (0, 0), BuildingBlock: XIVTED_clean_linker_0, # of connection points: 2
#     Edge 21, Type (0, 0), BuildingBlock: XIVTED_clean_linker_0, # of connection points: 2
#     Edge 22, Type (0, 0), BuildingBlock: XIVTED_clean_linker_0, # of connection points: 2
#     Edge 23, Type (0, 0), BuildingBlock: XIVTED_clean_linker_0, # of connection points: 2
#     Edge 24, Type (0, 0), BuildingBlock: XIVTED_clean_linker_0, # of connection points: 2
#     Edge 25, Type (0, 0), BuildingBlock: XIVTED_clean_linker_0, # of connection points: 2
#     Edge 26, Type (0, 0), BuildingBlock: XIVTED_clean_linker_0, # of connection points: 2
#     Edge 27, Type (0, 0), BuildingBlock: XIVTED_clean_linker_0, # of connection points: 2
#     Edge 28, Type (0, 0), BuildingBlock: XIVTED_clean_linker_0, # of connection points: 2
#     Edge 29, Type (0, 0), BuildingBlock: XIVTED_clean_linker_0, # of connection points: 2
#     Edge 30, Type (0, 0), BuildingBlock: XIVTED_clean_linker_0, # of connection points: 2
#     Edge 31, Type (0, 0), BuildingBlock: XIVTED_clean_linker_0, # of connection points: 2
#     Edge 32, Type (0, 0), BuildingBlock: XIVTED_clean_linker_0, # of connection points: 2
#     Edge 33, Type (0, 0), BuildingBlock: XIVTED_clean_linker_0, # of connection points: 2
#     Edge 34, Type (0, 0), BuildingBlock: XIVTED_clean_linker_0, # of connection points: 2
#     Edge 35, Type (0, 0), BuildingBlock: XIVTED_clean_linker_0, # of connection points: 2
#     Edge 36, Type (0, 0), BuildingBlock: XIVTED_clean_linker_0, # of connection points: 2
#     Edge 37, Type (0, 0), BuildingBlock: XIVTED_clean_linker_0, # of connection points: 2
#     Edge 38, Type (0, 0), BuildingBlock: XIVTED_clean_linker_0, # of connection points: 2
#     Edge 39, Type (0, 0), BuildingBlock: XIVTED_clean_linker_0, # of connection points: 2
#     Edge 40, Type (0, 0), BuildingBlock: XIVTED_clean_linker_0, # of connection points: 2
#     Edge 41, Type (0, 0), BuildingBlock: XIVTED_clean_linker_0, # of connection points: 2
#     Edge 42, Type (0, 0), BuildingBlock: XIVTED_clean_linker_0, # of connection points: 2
#     Edge 43, Type (0, 0), BuildingBlock: XIVTED_clean_linker_0, # of connection points: 2
#     Edge 44, Type (0, 0), BuildingBlock: XIVTED_clean_linker_0, # of connection points: 2
#     Edge 45, Type (0, 0), BuildingBlock: XIVTED_clean_linker_0, # of connection points: 2
#     Edge 46, Type (0, 0), BuildingBlock: XIVTED_clean_linker_0, # of connection points: 2
#     Edge 47, Type (0, 0), BuildingBlock: XIVTED_clean_linker_0, # of connection points: 2
#     Edge 48, Type (0, 0), BuildingBlock: XIVTED_clean_linker_0, # of connection points: 2
#     Edge 49, Type (0, 0), BuildingBlock: XIVTED_clean_linker_0, # of connection points: 2
#     Edge 50, Type (0, 0), BuildingBlock: XIVTED_clean_linker_0, # of connection points: 2
#     Edge 51, Type (0, 0), BuildingBlock: XIVTED_clean_linker_0, # of connection points: 2
#     Edge 52, Type (0, 0), BuildingBlock: XIVTED_clean_linker_0, # of connection points: 2
#     Edge 53, Type (0, 0), BuildingBlock: XIVTED_clean_linker_0, # of connection points: 2
#     Edge 54, Type (0, 0), BuildingBlock: XIVTED_clean_linker_0, # of connection points: 2
#     Edge 55, Type (0, 0), BuildingBlock: XIVTED_clean_linker_0, # of connection points: 2
#     Edge 56, Type (0, 0), BuildingBlock: XIVTED_clean_linker_0, # of connection points: 2
#     Edge 57, Type (0, 0), BuildingBlock: XIVTED_clean_linker_0, # of connection points: 2
#     Edge 58, Type (0, 0), BuildingBlock: XIVTED_clean_linker_0, # of connection points: 2
#     Edge 59, Type (0, 0), BuildingBlock: XIVTED_clean_linker_0, # of connection points: 2
#     Edge 60, Type (0, 0), BuildingBlock: XIVTED_clean_linker_0, # of connection points: 2
#     Edge 61, Type (0, 0), BuildingBlock: XIVTED_clean_linker_0, # of connection points: 2
#     Edge 62, Type (0, 0), BuildingBlock: XIVTED_clean_linker_0, # of connection points: 2
#     Edge 63, Type (0, 0), BuildingBlock: XIVTED_clean_linker_0, # of connection points: 2
#     Edge 64, Type (0, 0), BuildingBlock: XIVTED_clean_linker_0, # of connection points: 2
#     Edge 65, Type (0, 0), BuildingBlock: XIVTED_clean_linker_0, # of connection points: 2
#     Edge 66, Type (0, 0), BuildingBlock: XIVTED_clean_linker_0, # of connection points: 2
#     Edge 67, Type (0, 0), BuildingBlock: XIVTED_clean_linker_0, # of connection points: 2
#     Edge 68, Type (0, 0), BuildingBlock: XIVTED_clean_linker_0, # of connection points: 2
#     Edge 69, Type (0, 0), BuildingBlock: XIVTED_clean_linker_0, # of connection points: 2
#     Edge 70, Type (0, 0), BuildingBlock: XIVTED_clean_linker_0, # of connection points: 2
#     Edge 71, Type (0, 0), BuildingBlock: XIVTED_clean_linker_0, # of connection points: 2
# Relax obj value: 0.556
# Max RMSD: 0.238
# Mean RMSD: 0.238
data_MOF--net-lll--node1-HICVOG_clean_sbu_0--edge1-XIVTED_clean_linker_0
_symmetry_space_group_name_H-M    P1
_symmetry_Int_Tables_number       1
_symmetry_cell_setting            triclinic
loop_
_symmetry_equiv_pos_as_xyz
'x, y, z'
_cell_length_a     36.925797
_cell_length_b     36.726409
_cell_length_c     42.47198
_cell_angle_alpha  89.946917
_cell_angle_beta   90.128757
_cell_angle_gamma 89.818712
loop_
_atom_site_label
_atom_site_type_symbol
_atom_site_fract_x
_atom_site_fract_y
_atom_site_fract_z
_atom_type_partial_charge
Zn0 Zn 0.70612 0.09562 0.14555 0.0
C1 C 0.60735 0.05556 0.14361 0.0
N2 N 0.60434 0.06271 0.17459 0.0
C3 C 0.6363 0.0778 0.18211 0.0
N4 N 0.65817 0.07947 0.1561 0.0
N5 N 0.6394 0.06671 0.13169 0.0
C6 C 0.68155 0.06871 1.02267 0.0
O7 O 0.65892 0.09545 1.01654 0.0
O8 O 0.74157 0.10209 0.18106 0.0
Zn9 Zn 0.64786 0.08149 0.08569 0.0
N10 N 0.72985 0.06083 0.11773 0.0
C11 C 0.73514 0.00487 0.08976 0.0
C12 C 0.71442 0.02957 0.10708 0.0
C13 C 0.76555 0.06744 0.11288 0.0
N14 N 0.77113 0.01092 0.08599 0.0
C15 C 0.78723 0.04149 0.0974 0.0
O16 O 0.66401 0.13379 0.0849 0.0
C17 C 0.6843 0.15522 0.10042 0.0
O18 O 0.70221 0.14428 0.12426 0.0
H19 H 0.68646 0.02348 0.11195 0.0
H20 H 0.77734 0.09122 0.12374 0.0
C21 C 0.58774 0.06243 1.04473 0.0
C22 C 0.55209 0.06668 1.03356 0.0
C23 C 0.54267 0.11407 0.0708 0.0
C24 C 0.57838 0.11077 0.08081 0.0
N25 N 0.59995 0.08468 0.06801 0.0
N26 N 0.53054 0.09228 1.04734 0.0
H27 H 0.60574 0.04213 1.03494 0.0
C28 C 0.73925 0.13009 0.19828 0.0
O29 O 0.70687 0.14323 0.20414 0.0
O30 O 0.68232 0.05587 1.05096 0.0
H31 H 0.58866 0.12803 0.0994 0.0
H32 H 0.72307 0.98021 0.08068 0.0
H33 H 0.52486 0.13412 0.08123 0.0
Zn34 Zn 0.89854 0.12366 0.33363 0.0
C35 C 0.91377 0.10585 0.42955 0.0
N36 N 0.92712 0.07393 0.41945 0.0
C37 C 0.92861 0.07812 0.38794 0.0
N38 N 0.916 0.1109 0.37831 0.0
N39 N 0.9072 0.12856 0.40459 0.0
C40 C 0.84515 0.1849 0.44916 0.0
O41 O 0.83998 0.15114 0.44011 0.0
O42 O 0.91864 0.16491 0.30158 0.0
Zn43 Zn 0.89151 0.17784 0.39947 0.0
N44 N 0.89875 0.07907 0.30973 0.0
C45 C 0.87733 0.01874 0.30247 0.0
C46 C 0.87843 0.05071 0.32002 0.0
C47 C 0.9168 0.07741 0.28191 0.0
N48 N 0.89412 0.0176 0.2741 0.0
C49 C 0.91332 0.04641 0.2628 0.0
O50 O 0.84638 0.17991 0.37275 0.0
C51 C 0.83011 0.16199 0.35138 0.0
O52 O 0.84591 0.13666 0.33634 0.0
H53 H 0.86377 0.05282 0.34197 0.0
H54 H 0.9324 0.10062 0.27433 0.0
C55 C 0.9358 0.24 0.39251 0.0
C56 C 0.96712 0.25939 0.38446 0.0
C57 C 0.98642 0.21009 0.35291 0.0
C58 C 0.95583 0.19036 0.36189 0.0
N59 N 0.9311 0.20571 0.38159 0.0
N60 N -0.00807 0.24384 0.36504 0.0
H61 H 0.9166 0.25101 0.40925 0.0
C62 C 0.89899 0.17119 0.27691 0.0
O63 O 0.86865 0.15301 0.2737 0.0
O64 O 0.87324 0.20106 0.43921 0.0
H65 H 0.95265 0.1627 0.35397 0.0
H66 H 0.86208 -0.00448 0.3107 0.0
H67 H 0.00639 0.19804 0.33747 0.0
Zn68 Zn 0.81758 0.42908 0.60373 0.0
C69 C 0.86227 0.42782 0.69232 0.0
N70 N 0.89328 0.43252 0.67627 0.0
C71 C 0.88189 0.43991 0.64665 0.0
N72 N 0.84545 0.43982 0.64401 0.0
N73 N 0.8332 0.43203 0.6728 0.0
C74 C 0.76399 0.38189 0.73637 0.0
O75 O 0.75298 0.37817 0.76557 0.0
O76 O 0.81412 0.45522 0.55809 0.0
Zn77 Zn 0.78201 0.42784 0.68088 0.0
N78 N 0.83899 0.38299 0.59344 0.0
C79 C 0.8504 0.31955 0.59798 0.0
C80 C 0.83088 0.35046 0.60685 0.0
C81 C 0.86653 0.38622 0.57263 0.0
N82 N 0.87725 0.32264 0.57631 0.0
C83 C 0.88586 0.35537 0.56324 0.0
O84 O 0.75875 0.38962 0.65358 0.0
C85 C 0.75138 0.39724 0.62526 0.0
O86 O 0.76444 0.42575 0.61327 0.0
H87 H 0.81004 0.3486 0.62447 0.0
H88 H 0.87323 0.41293 0.56368 0.0
C89 C 0.73412 0.48719 0.69077 0.0
C90 C 0.71924 0.52203 0.68654 0.0
C91 C 0.75865 0.53204 0.64377 0.0
C92 C 0.77374 0.49739 0.64825 0.0
N93 N 0.76107 0.47553 0.6717 0.0
N94 N 0.73176 0.54377 0.66312 0.0
H95 H 0.72466 0.4696 0.70948 0.0
C96 C 0.79839 0.43418 0.53781 0.0
O97 O 0.78937 0.40138 0.54705 0.0
O98 O 0.77039 0.41376 0.72588 0.0
H99 H 0.79541 0.48828 0.63316 0.0
H100 H 0.84414 0.2933 0.608 0.0
H101 H 0.76849 0.54956 0.6252 0.0
Zn102 Zn 0.5745 0.30191 0.85144 0.0
C103 C 0.57784 0.34246 0.94139 0.0
N104 N 0.57233 0.37425 0.92641 0.0
C105 C 0.56316 0.36425 0.89689 0.0
N106 N 0.56321 0.3277 0.89302 0.0
N107 N 0.57207 0.31399 0.92122 0.0
C108 C 0.60705 0.23321 0.98525 0.0
O109 O 0.60541 0.21983 1.01388 0.0
O110 O 0.54942 0.30291 0.80506 0.0
Zn111 Zn 0.57349 0.26161 0.92666 0.0
N112 N 0.62007 0.32449 0.8426 0.0
C113 C 0.68234 0.3375 0.85076 0.0
C114 C 0.65301 0.31384 0.85364 0.0
C115 C 0.61522 0.35749 0.82894 0.0
N116 N 0.6771 0.37105 0.83805 0.0
C117 C 0.64407 0.38199 0.82722 0.0
O118 O 0.61289 0.23798 0.90068 0.0
C119 C 0.6078 0.23354 0.87144 0.0
O120 O 0.58096 0.24842 0.85807 0.0
H121 H 0.6563 0.28813 0.86561 0.0
H122 H 0.58824 0.36512 0.82161 0.0
C123 C 0.52826 0.20569 0.90517 0.0
C124 C 0.49756 0.18907 0.89202 0.0
C125 C 0.46908 0.24689 0.88869 0.0
C126 C 0.49974 0.26322 0.90183 0.0
N127 N 0.52866 0.24217 0.90992 0.0
N128 N 0.46845 0.21019 0.88448 0.0
H129 H 0.55151 0.18979 0.91253 0.0
C130 C 0.53851 0.27341 0.79149 0.0
O131 O 0.5338 0.24444 0.80913 0.0
O132 O 0.57828 0.24541 0.97233 0.0
H133 H 0.50035 0.29231 0.90557 0.0
H134 H 0.70883 0.32995 0.85942 0.0
H135 H 0.44576 0.26322 0.8823 0.0
Zn136 Zn 0.69886 0.38588 0.20199 0.0
C137 C 0.60072 0.43027 0.20611 0.0
N138 N 0.59736 0.4223 0.17526 0.0
C139 C 0.62886 0.40586 0.16817 0.0
N140 N 0.65066 0.40409 0.19427 0.0
N141 N 0.63246 0.41838 0.21835 0.0
C142 C 0.68003 0.41266 0.32528 0.0
O143 O 0.6675 0.37931 0.32654 0.0
O144 O 0.72599 0.38401 0.16005 0.0
Zn145 Zn 0.64035 0.40469 0.26459 0.0
N146 N 0.72604 0.42073 0.22837 0.0
C147 C 0.73043 0.47319 0.26136 0.0
C148 C 0.70975 0.44892 0.24362 0.0
C149 C 0.76275 0.41753 0.22884 0.0
N150 N 0.76698 0.46962 0.26194 0.0
C151 C 0.78395 0.44236 0.24606 0.0
O152 O 0.65836 0.35309 0.26512 0.0
C153 C 0.67673 0.32948 0.25011 0.0
O154 O 0.69327 0.33739 0.22467 0.0
H155 H 0.68101 0.45314 0.24213 0.0
H156 H 0.77552 0.39747 0.21408 0.0
C157 C 0.58171 0.41912 0.30756 0.0
C158 C 0.54648 0.41422 0.31928 0.0
C159 C 0.53419 0.37337 0.27724 0.0
C160 C 0.56967 0.37685 0.26677 0.0
N161 N 0.59239 0.40025 0.28166 0.0
N162 N 0.5236 0.39173 0.30333 0.0
H163 H 0.60073 0.43702 0.31913 0.0
C164 C 0.75125 0.36692 0.14578 0.0
O165 O 0.75947 0.3775 0.11712 0.0
O166 O 0.67242 0.43178 0.30061 0.0
H167 H 0.57885 0.36193 0.24632 0.0
H168 H 0.71755 0.49532 0.2739 0.0
H169 H 0.51542 0.35561 0.26517 0.0
Zn170 Zn 0.58037 0.1592 0.5019 0.0
C171 C 0.57999 0.135 0.4076 0.0
N172 N 0.57207 0.1018 0.41886 0.0
C173 C 0.56365 0.10805 0.44921 0.0
N174 N 0.56691 0.14349 0.45725 0.0
N175 N 0.57628 0.16066 0.43082 0.0
C176 C 0.60903 0.25015 0.37662 0.0
O177 O 0.60638 0.26812 0.34997 0.0
O178 O 0.5495 0.18357 0.54018 0.0
Zn179 Zn 0.57839 0.21292 0.4324 0.0
N180 N 0.59922 0.1151 0.51921 0.0
C181 C 0.64031 0.06575 0.51349 0.0
C182 C 0.62888 0.10055 0.50508 0.0
C183 C 0.58098 0.09695 0.54208 0.0
N184 N 0.62186 0.04732 0.53599 0.0
C185 C 0.59241 0.06194 0.55063 0.0
O186 O 0.61963 0.23036 0.45896 0.0
C187 C 0.63502 0.21922 0.48397 0.0
O188 O 0.62294 0.19241 0.49958 0.0
H189 H 0.64249 0.11532 0.48653 0.0
H190 H 0.55737 0.10927 0.55278 0.0
C191 C 0.53532 0.2681 0.45725 0.0
C192 C 0.50552 0.28521 0.47152 0.0
C193 C 0.47849 0.2274 0.47908 0.0
C194 C 0.50794 0.21065 0.4643 0.0
N195 N 0.53569 0.23147 0.45352 0.0
N196 N 0.47759 0.26428 0.48182 0.0
H197 H 0.55747 0.28379 0.44762 0.0
C198 C 0.56966 0.19381 0.56355 0.0
O199 O 0.6047 0.18837 0.56118 0.0
O200 O 0.58077 0.2362 0.38879 0.0
H201 H 0.50826 0.18149 0.46119 0.0
H202 H 0.66347 0.05336 0.50215 0.0
H203 H 0.4561 0.21126 0.4876 0.0
Zn204 Zn 0.80603 0.07434 0.67273 0.0
C205 C 0.90241 0.04713 0.71035 0.0
N206 N 0.91448 0.05305 0.68068 0.0
C207 C 0.88438 0.06248 0.66474 0.0
N208 N 0.8553 0.06264 0.6844 0.0
N209 N 0.86627 0.05258 0.71317 0.0
C210 C 0.81294 0.0506 0.81755 0.0
O211 O 0.7982 0.0813 0.80828 0.0
O212 O 0.802 0.11627 0.6418 0.0
Zn213 Zn 0.83645 0.06108 0.75295 0.0
N214 N 0.78245 0.02866 0.66324 0.0
C215 C 0.78711 0.9646 0.6557 0.0
C216 C 0.80316 -0.00115 0.65699 0.0
C217 C 0.74639 0.02549 0.66874 0.0
N218 N 0.75105 0.96143 0.66107 0.0
C219 C 0.73004 0.99089 0.66796 0.0
O220 O 0.78315 0.0572 0.7433 0.0
C221 C 0.76675 0.08453 0.73215 0.0
O222 O 0.77689 0.09788 0.70628 0.0
H223 H 0.83207 0.00145 0.65387 0.0
H224 H 0.73093 0.04986 0.67364 0.0
C225 C 0.86765 0.11242 0.79205 0.0
C226 C 0.86979 0.14554 0.80787 0.0
C227 C 0.84141 0.17471 0.76451 0.0
C228 C 0.837 0.14099 0.74982 0.0
N229 N 0.84882 0.11036 0.7647 0.0
N230 N 0.85644 0.17608 0.79374 0.0
H231 H 0.87729 0.08768 0.8031 0.0
C232 C 0.82345 0.14233 0.64834 0.0
O233 O 0.85162 0.13558 0.66631 0.0
O234 O 0.83399 0.03355 0.79805 0.0
H235 H 0.82341 0.13939 0.7274 0.0
H236 H 0.80323 0.94065 0.65071 0.0
H237 H 0.83143 0.19932 0.75343 0.0
Zn238 Zn 0.89426 0.3711 1.02119 0.0
C239 C 0.90517 0.38564 0.92503 0.0
N240 N 0.92086 0.41693 0.93385 0.0
C241 C 0.92466 0.41325 0.96525 0.0
N242 N 0.91111 0.38146 0.97609 0.0
N243 N 0.8997 0.36375 0.95064 0.0
C244 C 0.83973 0.29666 0.9065 0.0
O245 O 0.83116 0.33136 0.90735 0.0
O246 O 0.91356 0.33113 0.05519 0.0
Zn247 Zn 0.88116 0.31644 0.95861 0.0
N248 N 0.89741 0.41692 1.04294 0.0
C249 C 0.8762 0.47729 1.05071 0.0
C250 C 0.87569 0.44487 1.03376 0.0
C251 C 0.91896 0.4196 0.06878 0.0
N252 N 0.89581 0.47906 0.07772 0.0
C253 C 0.91668 0.45069 0.08794 0.0
O254 O 0.83418 0.32017 0.98148 0.0
C255 C 0.8211 0.33842 1.00417 0.0
O256 O 0.84064 0.36013 1.02015 0.0
H257 H 0.85855 0.44204 1.01322 0.0
H258 H 0.93588 0.39673 0.07508 0.0
C259 C 0.9078 0.25271 0.9847 0.0
C260 C 0.93285 0.22813 0.99774 0.0
C261 C 0.97018 0.27773 1.01209 0.0
C262 C 0.94606 0.30184 0.99741 0.0
N263 N 0.9153 0.2887 0.98392 0.0
N264 N 0.9637 0.24132 1.01098 0.0
H265 H 0.884 0.24316 0.97238 0.0
C266 C 0.89476 0.33118 0.08083 0.0
O267 O 0.86738 0.35404 0.08226 0.0
O268 O 0.86841 0.28662 0.92058 0.0
H269 H 0.9523 0.3305 0.99645 0.0
H270 H 0.85977 0.50021 1.04336 0.0
H271 H -0.00523 0.28776 1.02287 0.0
Zn272 Zn 0.13306 0.58984 0.58159 0.0
C273 C 0.11767 0.58444 0.67858 0.0
N274 N 0.08656 0.56871 0.66965 0.0
C275 C 0.091 0.56282 0.63861 0.0
N276 N 0.12313 0.57532 0.62786 0.0
N277 N 0.14044 0.58789 0.65324 0.0
C278 C 0.19854 0.65269 0.69566 0.0
O279 O 0.16455 0.65802 0.68773 0.0
O280 O 0.16806 0.56423 0.54648 0.0
Zn281 Zn 0.1889 0.60577 0.64665 0.0
N282 N 0.08573 0.59269 0.56306 0.0
C283 C 0.02777 0.62073 0.56537 0.0
C284 C 0.06337 0.61812 0.57581 0.0
C285 C 0.07457 0.57067 0.53922 0.0
N286 N 0.01652 0.59887 0.54162 0.0
C287 C 0.03892 0.57403 0.52784 0.0
O288 O 0.18666 0.65096 0.62039 0.0
C289 C 0.16989 0.66261 0.59625 0.0
O290 O 0.14877 0.64226 0.5806 0.0
H291 H 0.0729 0.63529 0.59475 0.0
H292 H 0.09334 0.55122 0.52921 0.0
C293 C 0.25521 0.57068 0.62888 0.0
C294 C 0.27735 0.54469 0.61372 0.0
C295 C 0.22485 0.51808 0.5913 0.0
C296 C 0.20315 0.5432 0.60705 0.0
N297 N 0.21865 0.56936 0.62523 0.0
N298 N 0.26126 0.51915 0.59524 0.0
H299 H 0.26647 0.59095 0.6445 0.0
C300 C 0.17698 0.58423 0.52265 0.0
O301 O 0.16421 0.6176 0.52167 0.0
O302 O 0.21408 0.62423 0.68538 0.0
H303 H 0.17423 0.54157 0.6046 0.0
H304 H 0.00931 0.64019 0.57577 0.0
H305 H 0.21278 0.4974 0.57653 0.0
Zn306 Zn 0.41581 0.6226 0.8337 0.0
C307 C 0.41976 0.60501 0.93021 0.0
N308 N 0.43394 0.57309 0.92106 0.0
C309 C 0.43999 0.57782 0.89003 0.0
N310 N 0.42921 0.61105 0.8796 0.0
N311 N 0.41699 0.6282 0.90512 0.0
C312 C 0.34601 0.67772 0.9428 0.0
O313 O 0.34335 0.64584 0.92901 0.0
O314 O 0.44168 0.65876 0.80004 0.0
Zn315 Zn 0.40384 0.67813 0.90205 0.0
N316 N 0.4106 0.57541 0.81429 0.0
C317 C 0.3806 0.51833 0.81411 0.0
C318 C 0.38601 0.55252 0.82732 0.0
C319 C 0.42956 0.56585 0.78817 0.0
N320 N 0.39763 0.5098 0.78684 0.0
C321 C 0.42142 0.53296 0.77273 0.0
O322 O 0.36948 0.68821 0.86694 0.0
C323 C 0.35439 0.67376 0.84319 0.0
O324 O 0.36586 0.64418 0.83131 0.0
H325 H 0.37135 0.5606 0.84822 0.0
H326 H 0.44919 0.5847 0.7789 0.0
C327 C 0.46604 0.71261 0.92347 0.0
C328 C 0.49825 0.73264 0.92224 0.0
C329 C 0.49251 0.73616 0.86672 0.0
C330 C 0.46023 0.7164 0.86821 0.0
N331 N 0.44757 0.70547 0.89669 0.0
N332 N 0.51045 0.74448 0.89381 0.0
H333 H 0.45452 0.70417 0.94569 0.0
C334 C 0.42654 0.65963 0.7725 0.0
O335 O 0.3994 0.63741 0.7673 0.0
O336 O 0.37486 0.69589 0.93886 0.0
H337 H 0.44526 0.71011 0.847 0.0
H338 H 0.3618 0.49937 0.82461 0.0
H339 H 0.5028 0.74547 0.8443 0.0
Zn340 Zn 0.30008 0.91992 0.17936 0.0
C341 C 0.39807 0.92785 0.13839 0.0
N342 N 0.41022 0.91988 0.16772 0.0
C343 C 0.37975 0.91571 0.18452 0.0
N344 N 0.3502 0.92082 0.16576 0.0
N345 N 0.36144 0.92874 0.13665 0.0
C346 C 0.31044 0.91518 1.03253 0.0
O347 O 0.29737 0.88588 1.04598 0.0
O348 O 0.29138 0.88068 0.21219 0.0
Zn349 Zn 0.33024 0.918 0.09832 0.0
N350 N 0.28812 0.96998 0.19013 0.0
C351 C 0.3061 0.03227 0.19321 0.0
C352 C 0.31411 -0.00408 0.18661 0.0
C353 C 0.25419 0.97925 0.19926 0.0
N354 N 0.27246 0.04139 0.20334 0.0
C355 C 0.24608 0.01587 0.20613 0.0
O356 O 0.27893 0.93336 0.10693 0.0
C357 C 0.25731 0.91167 0.12006 0.0
O358 O 0.26423 0.90098 0.14772 0.0
H359 H 0.34096 0.98865 0.17878 0.0
H360 H 0.23418 0.95804 0.20219 0.0
C361 C 0.37166 0.85901 0.08501 0.0
C362 C 0.38567 0.82351 0.08558 0.0
C363 C 0.33194 0.80371 0.11101 0.0
C364 C 0.31834 0.8392 0.11033 0.0
N365 N 0.3384 0.86603 0.09697 0.0
N366 N 0.36517 0.79669 0.09866 0.0
H367 H 0.3873 0.88168 0.07634 0.0
C368 C 0.30806 0.8513 0.20544 0.0
O369 O 0.33303 0.85205 0.18358 0.0
O370 O 0.3314 0.93544 1.04951 0.0
H371 H 0.29289 0.84518 0.1214 0.0
H372 H 0.32665 0.053 0.19076 0.0
H373 H 0.31647 0.78201 0.1217 0.0
Zn374 Zn 0.06167 0.806 0.35095 0.0
C375 C 0.06655 0.85371 0.43784 0.0
N376 N 0.06149 0.88418 0.42082 0.0
C377 C 0.05191 0.87172 0.39213 0.0
N378 N 0.05117 0.83504 0.39078 0.0
N379 N 0.06003 0.82361 0.41972 0.0
C380 C 0.09786 0.74558 0.48486 0.0
O381 O 0.09871 0.73283 0.51374 0.0
O382 O 0.03816 0.80866 0.30451 0.0
Zn383 Zn 0.0601 0.77155 0.42785 0.0
N384 N 0.10932 0.82424 0.34261 0.0
C385 C 0.17211 0.83371 0.35161 0.0
C386 C 0.14143 0.81188 0.35424 0.0
C387 C 0.10671 0.85727 0.32861 0.0
N388 N 0.16897 0.86755 0.339 0.0
C389 C 0.13677 0.88017 0.32769 0.0
O390 O 0.09739 0.74556 0.40126 0.0
C391 C 0.09011 0.73824 0.37279 0.0
O392 O 0.06255 0.7526 0.36015 0.0
H393 H 0.14325 0.78643 0.36664 0.0
H394 H 0.08049 0.86647 0.32051 0.0
C395 C 0.01151 0.71713 0.40786 0.0
C396 C 0.97926 0.7022 0.39615 0.0
C397 C 0.95205 0.76067 0.39799 0.0
C398 C 0.9844 0.77543 0.40935 0.0
N399 N 0.01345 0.75325 0.41416 0.0
N400 N 0.95003 0.72435 0.39199 0.0
H401 H 0.03491 0.70012 0.41257 0.0
C402 C 0.02517 0.78027 0.2907 0.0
O403 O 0.01717 0.75191 0.30818 0.0
O404 O 0.06797 0.75709 0.47351 0.0
H405 H 0.9863 0.80425 0.41424 0.0
H406 H 0.19792 0.82452 0.36056 0.0
H407 H 0.92862 0.77791 0.39424 0.0
Zn408 Zn 0.17496 0.91203 0.75206 0.0
C409 C 0.13044 0.91767 0.66456 0.0
N410 N 0.09995 0.92361 0.68097 0.0
C411 C 0.11184 0.93105 0.7103 0.0
N412 N 0.14837 0.92943 0.71267 0.0
N413 N 0.16011 0.9217 0.68363 0.0
C414 C 0.23813 0.89084 0.61559 0.0
O415 O 0.25069 0.89395 0.58683 0.0
O416 O 0.17903 0.93467 0.7987 0.0
Zn417 Zn 0.21203 0.91911 0.67628 0.0
N418 N 0.1502 0.86634 0.75792 0.0
C419 C 0.13422 0.80664 0.7413 0.0
C420 C 0.15825 0.8358 0.7412 0.0
C421 C 0.11875 0.86909 0.77422 0.0
N422 N 0.10234 0.80983 0.7569 0.0
C423 C 0.09364 0.84052 0.77323 0.0
O424 O 0.23402 0.87572 0.69843 0.0
C425 C 0.23989 0.8768 0.7278 0.0
O426 O 0.22768 0.90314 0.74367 0.0
H427 H 0.18201 0.83453 0.72665 0.0
H428 H 0.11239 0.89459 0.78568 0.0
C429 C 0.27055 0.95947 0.69974 0.0
C430 C 0.28898 0.98839 0.71417 0.0
C431 C 0.23307 0.01941 0.72049 0.0
C432 C 0.21493 0.99056 0.706 0.0
N433 N 0.23414 0.96123 0.6958 0.0
N434 N 0.26969 0.01795 0.72385 0.0
H435 H 0.28502 0.93604 0.6907 0.0
C436 C 0.20915 0.94771 0.80923 0.0
O437 O 0.23428 0.95629 0.78871 0.0
O438 O 0.22626 0.9189 0.62989 0.0
H439 H 0.18591 0.99171 0.70279 0.0
H440 H 0.14018 0.7822 0.72807 0.0
H441 H 0.21822 0.04305 0.72857 0.0
Zn442 Zn 0.07157 0.72485 0.92772 0.0
C443 C 0.05604 0.62101 0.95006 0.0
N444 N 0.0638 0.61298 0.91986 0.0
C445 C 0.07197 0.64549 0.90722 0.0
N446 N 0.06935 0.67237 0.92951 0.0
N447 N 0.05971 0.65676 0.9566 0.0
C448 C 0.06242 0.70267 0.06308 0.0
O449 O 0.09768 0.70052 0.05961 0.0
O450 O 0.08046 0.74341 0.8833 0.0
Zn451 Zn 0.07444 0.67271 1.00051 0.0
N452 N 0.02495 0.74264 0.94143 0.0
C453 C 0.98239 0.75997 0.98081 0.0
C454 C 0.01537 0.74388 0.97229 0.0
C455 C 0.00266 0.75589 0.91884 0.0
N456 N 0.96082 0.77498 0.95819 0.0
C457 C 0.96999 0.7728 0.92725 0.0
O458 O 0.11183 0.71164 0.99798 0.0
C459 C 0.12292 0.73902 0.98258 0.0
O460 O 0.10894 0.74785 0.95629 0.0
H461 H 0.03356 0.73332 0.99006 0.0
H462 H 0.01151 0.75538 0.89457 0.0
C463 C 0.08519 0.61026 1.03918 0.0
C464 C 0.10131 0.57688 1.04711 0.0
C465 C 0.14511 0.58595 1.00693 0.0
C466 C 0.12919 0.61924 0.99939 0.0
N467 N 0.0995 0.6305 1.01553 0.0
N468 N 0.1309 0.56567 1.03057 0.0
H469 H 0.06093 0.61967 1.05088 0.0
C470 C 0.11111 0.75371 0.87299 0.0
O471 O 0.11306 0.7693 0.8452 0.0
O472 O 0.0424 0.69119 1.04013 0.0
H473 H 0.13953 0.63547 0.98015 0.0
H474 H 0.97464 0.76163 1.00532 0.0
H475 H 0.16848 0.57624 0.9941 0.0
Zn476 Zn 0.33094 0.57571 0.25255 0.0
C477 C 0.37002 0.57337 0.16309 0.0
N478 N 0.40152 0.56715 0.17813 0.0
C479 C 0.39126 0.5597 0.20796 0.0
N480 N 0.35499 0.56104 0.21171 0.0
N481 N 0.34165 0.56981 0.1834 0.0
C482 C 0.26635 0.6136 0.11958 0.0
O483 O 0.25422 0.61465 0.09051 0.0
O484 O 0.32753 0.55363 0.29967 0.0
Zn485 Zn 0.28997 0.57524 0.17716 0.0
N486 N 0.35587 0.621 0.25804 0.0
C487 C 0.3793 0.6746 0.23434 0.0
C488 C 0.35362 0.6469 0.23528 0.0
C489 C 0.38292 0.62136 0.27972 0.0
N490 N 0.40638 0.67497 0.25598 0.0
C491 C 0.40927 0.64886 0.27864 0.0
O492 O 0.26848 0.61623 0.20302 0.0
C493 C 0.2658 0.61172 0.23245 0.0
O494 O 0.27863 0.5832 0.24471 0.0
H495 H 0.33353 0.64476 0.21693 0.0
H496 H 0.38428 0.59958 0.29678 0.0
C497 C 0.23083 0.53016 0.19203 0.0
C498 C 0.2125 0.49865 0.20179 0.0
C499 C 0.26892 0.47028 0.21239 0.0
C500 C 0.28699 0.50148 0.20213 0.0
N501 N 0.26751 0.53074 0.19196 0.0
N502 N 0.23215 0.46927 0.21142 0.0
H503 H 0.21626 0.55362 0.18307 0.0
C504 C 0.29781 0.54023 0.31063 0.0
O505 O 0.27275 0.53032 0.29042 0.0
O506 O 0.2761 0.58321 0.13141 0.0
H507 H 0.31622 0.50203 0.202 0.0
H508 H 0.37856 0.69491 0.21593 0.0
H509 H 0.28406 0.44672 0.22032 0.0
Zn510 Zn 0.40811 0.85422 0.51481 0.0
C511 C 0.41948 0.86514 0.41738 0.0
N512 N 0.43924 0.89407 0.42584 0.0
C513 C 0.44214 0.89086 0.45736 0.0
N514 N 0.42426 0.86146 0.46871 0.0
N515 N 0.41032 0.84515 0.44338 0.0
C516 C 0.3368 0.79407 0.40042 0.0
O517 O 0.33544 0.82951 0.40432 0.0
O518 O 0.43159 0.81791 0.54987 0.0
Zn519 Zn 0.38395 0.80118 0.44992 0.0
N520 N 0.4087 0.90243 0.53264 0.0
C521 C 0.38334 0.9619 0.53101 0.0
C522 C 0.38503 0.92648 0.51958 0.0
C523 C 0.42978 0.9118 0.55764 0.0
N524 N 0.40348 0.97099 0.55651 0.0
C525 C 0.42627 0.94678 0.57077 0.0
O526 O 0.33938 0.80997 0.47483 0.0
C527 C 0.33102 0.82576 0.50032 0.0
O528 O 0.35467 0.84215 0.5168 0.0
H529 H 0.36836 0.91834 0.49984 0.0
H530 H 0.44777 0.89174 0.56788 0.0
C531 C 0.44147 0.75237 0.45444 0.0
C532 C 0.46253 0.72385 0.46679 0.0
C533 C 0.42967 0.72786 0.51456 0.0
C534 C 0.40828 0.7557 0.50181 0.0
N535 N 0.41449 0.76702 0.47184 0.0
N536 N 0.45573 0.71198 0.49656 0.0
H537 H 0.44442 0.76115 0.43023 0.0
C538 C 0.41657 0.81951 0.57734 0.0
O539 O 0.38966 0.84261 0.58092 0.0
O540 O 0.36425 0.77729 0.41117 0.0
H541 H 0.38639 0.76744 0.51532 0.0
H542 H 0.36538 0.98172 0.52034 0.0
H543 H 0.42453 0.71785 0.53807 0.0
H544 H 0.71471 0.21324 0.13131 0.0
H545 H 0.76737 0.30192 0.9729 0.0
H546 H 0.66604 0.18268 1.04275 0.0
H547 H 0.79262 0.35071 0.06262 0.0
H548 H 0.71905 0.26745 0.99792 0.0
H549 H 0.73274 0.27116 0.10798 0.0
C550 C 0.70741 0.21891 0.10707 0.0
C551 C 0.68972 0.19269 0.08867 0.0
C552 C 0.73446 0.2864 1.01202 0.0
C553 C 0.71079 0.25869 0.06169 0.0
C554 C 0.76209 0.30616 0.99772 0.0
C555 C 0.78493 0.32817 1.016 0.0
C556 C 0.73026 0.28806 1.04485 0.0
C557 C 0.77625 0.33329 1.04783 0.0
C558 C 0.71756 0.2521 0.09378 0.0
C559 C 0.68022 0.20185 0.05762 0.0
N560 N 0.7503 0.31247 0.0615 0.0
N561 N 0.69162 0.23373 1.04489 0.0
H562 H 0.70155 0.26608 0.22315 0.0
H563 H 0.78527 0.21018 0.38109 0.0
H564 H 0.6645 0.31061 0.31144 0.0
H565 H 0.79096 0.14046 0.29959 0.0
H566 H 0.7324 0.24015 0.35851 0.0
H567 H 0.72295 0.21216 0.25141 0.0
C568 C 0.69776 0.26445 0.24839 0.0
C569 C 0.68269 0.29363 0.26512 0.0
C570 C 0.74446 0.21759 0.34594 0.0
C571 C 0.70891 0.23298 0.29761 0.0
C572 C 0.77491 0.20063 0.35875 0.0
C573 C 0.7934 0.17374 0.34167 0.0
C574 C 0.73274 0.20796 0.31562 0.0
C575 C 0.77817 0.16181 0.31321 0.0
C576 C 0.71012 0.2337 0.26454 0.0
C577 C 0.67723 0.28944 0.29767 0.0
N578 N 0.74919 0.17962 0.30071 0.0
N579 N 0.6914 0.26027 0.31301 0.0
H580 H 0.71805 0.41069 0.56949 0.0
H581 H 0.6798 0.20152 0.53303 0.0
H582 H 0.74536 0.3235 0.63346 0.0
H583 H 0.65152 0.28988 0.47035 0.0
H584 H 0.71116 0.24471 0.56705 0.0
H585 H 0.69744 0.36602 0.53119 0.0
C586 C 0.71946 0.38204 0.57553 0.0
C587 C 0.73393 0.37063 0.60443 0.0
C588 C 0.69857 0.25453 0.54559 0.0
C589 C 0.71047 0.31934 0.56075 0.0
C590 C 0.68089 0.22988 0.52605 0.0
C591 C 0.66243 0.24228 0.49916 0.0
C592 C 0.69759 0.29175 0.53816 0.0
C593 C 0.66515 0.27915 0.49098 0.0
C594 C 0.70794 0.35655 0.55358 0.0
C595 C 0.73462 0.33333 0.61133 0.0
N596 N 0.68187 0.30272 0.51072 0.0
N597 N 0.72323 0.30889 0.58952 0.0
H598 H 0.65297 0.1779 0.89079 0.0
H599 H 0.74147 0.15333 0.72245 0.0
H600 H 0.61744 0.23761 0.80863 0.0
H601 H 0.73265 0.06207 0.78621 0.0
H602 H 0.70315 0.18902 0.75738 0.0
H603 H 0.69089 0.1394 0.85645 0.0
C604 C 0.65324 0.18289 0.86564 0.0
C605 C 0.63189 0.2106 0.85239 0.0
C606 C 0.70955 0.16114 0.76367 0.0
C607 C 0.67492 0.1675 0.81356 0.0
C608 C 0.73128 0.14067 0.7437 0.0
C609 C 0.74067 0.10481 0.75169 0.0
C610 C 0.69736 0.1458 0.79196 0.0
C611 C 0.72658 0.08988 0.77953 0.0
C612 C 0.67457 0.16091 0.84616 0.0
C613 C 0.63315 0.2162 0.81974 0.0
N614 N 0.70591 0.11064 0.79899 0.0
N615 N 0.65443 0.19495 0.80148 0.0
H616 H 0.27073 0.80134 0.46934 0.0
H617 H 0.20181 0.71862 0.62787 0.0
H618 H 0.30825 0.83464 0.5612 0.0
H619 H 0.15809 0.69005 0.53704 0.0
H620 H 0.22918 0.77241 0.60432 0.0
H621 H 0.2178 0.7737 0.49386 0.0
C622 C 0.26743 0.80355 0.4946 0.0
C623 C 0.29459 0.81917 0.51339 0.0
C624 C 0.21278 0.75499 0.58978 0.0
C625 C 0.2344 0.78708 0.54149 0.0
C626 C 0.1974 0.72407 0.60311 0.0
C627 C 0.17872 0.69921 0.58414 0.0
C628 C 0.20982 0.761 0.55728 0.0
C629 C 0.17299 0.70813 0.55237 0.0
C630 C 0.23717 0.78775 0.50856 0.0
C631 C 0.28842 0.82215 0.54585 0.0
N632 N 0.18922 0.73791 0.53973 0.0
N633 N 0.25942 0.80538 0.55896 0.0
H634 H 0.2894 0.82729 0.70652 0.0
H635 H 0.30725 0.72291 0.86815 0.0
H636 H 0.22467 0.85469 0.78743 0.0
H637 H 0.34025 0.67508 0.77999 0.0
H638 H 0.27465 0.77018 0.83914 0.0
H639 H 0.30888 0.77124 0.73309 0.0
C640 C 0.2789 0.8211 0.72963 0.0
C641 C 0.25473 0.84492 0.74442 0.0
C642 C 0.2885 0.74899 0.8261 0.0
C643 C 0.27747 0.78189 0.77538 0.0
C644 C 0.30695 0.72194 0.84265 0.0
C645 C 0.32693 0.69546 0.82639 0.0
C646 C 0.29078 0.74994 0.79312 0.0
C647 C 0.32544 0.69518 0.7934 0.0
C648 C 0.29006 0.78932 0.74486 0.0
C649 C 0.24328 0.83688 0.77512 0.0
N650 N 0.30836 0.72258 0.77777 0.0
N651 N 0.25477 0.80602 0.78961 0.0
H652 H 0.23159 0.92825 0.06096 0.0
H653 H 0.16453 0.72466 1.03412 0.0
H654 H 0.22531 0.84659 0.13391 0.0
H655 H 0.13809 0.81059 0.96844 0.0
H656 H 0.19457 0.76886 0.06766 0.0
H657 H 0.20058 0.88648 1.02487 0.0
C658 C 0.22329 0.90177 0.06952 0.0
C659 C 0.23192 0.89054 0.10028 0.0
C660 C 0.18231 0.77812 1.04587 0.0
C661 C 0.1974 0.8426 0.05903 0.0
C662 C 0.16538 0.75282 1.02655 0.0
C663 C 0.14806 0.76407 0.99874 0.0
C664 C 0.18223 0.81502 1.03734 0.0
C665 C 0.15079 0.80081 0.98984 0.0
C666 C 0.20588 0.87791 1.04884 0.0
C667 C 0.21989 0.85624 0.11028 0.0
N668 N 0.16727 0.82516 1.00928 0.0
N669 N 0.20388 0.83328 0.08956 0.0
H670 H 0.15204 0.70254 0.39076 0.0
H671 H 0.21199 0.65889 0.21354 0.0
H672 H 0.08883 0.73173 0.30885 0.0
H673 H 0.26736 0.61763 0.29585 0.0
H674 H 0.17014 0.69196 0.24804 0.0
H675 H 0.19776 0.67579 0.35617 0.0
C676 C 0.14771 0.70314 0.36556 0.0
C677 C 0.11657 0.71925 0.3527 0.0
C678 C 0.1916 0.67578 0.25849 0.0
C679 C 0.16861 0.68898 0.313 0.0
C680 C 0.21557 0.65719 0.2388 0.0
C681 C 0.24273 0.63521 0.25193 0.0
C682 C 0.19512 0.67235 0.29136 0.0
C683 C 0.24629 0.63381 0.28482 0.0
C684 C 0.1738 0.68798 0.3458 0.0
C685 C 0.11226 0.71932 0.31984 0.0
N686 N 0.22261 0.65193 0.30341 0.0
N687 N 0.13801 0.70447 0.30112 0.0
H688 H 0.44008 0.14674 0.9085 0.0
H689 H 0.59194 0.04469 0.98181 0.0
H690 H 0.54941 0.13959 0.87379 0.0
H691 H 0.48251 0.05029 1.0169 0.0
H692 H 0.56876 0.04787 0.92852 0.0
H693 H 0.44578 0.08517 0.92949 0.0
C694 C 0.46483 0.13165 0.90419 0.0
C695 C 0.49514 0.14892 0.89128 0.0
C696 C 0.54956 0.04707 0.94776 0.0
C697 C 0.50236 0.0793 0.91616 0.0
C698 C 0.56288 0.04498 0.97848 0.0
C699 C 0.53919 0.04966 1.00399 0.0
C700 C 0.51273 0.05531 0.94289 0.0
C701 C 0.50186 0.0488 0.99781 0.0
C702 C 0.46819 0.09644 0.9163 0.0
C703 C 0.52609 0.12781 0.88535 0.0
N704 N 0.48974 0.05323 0.96787 0.0
N705 N 0.52943 0.09448 0.89884 0.0
H706 H 0.92865 0.98812 0.22505 0.0
H707 H 0.8327 0.10143 0.09825 0.0
H708 H 0.91974 0.10537 0.22259 0.0
H709 H 0.8337 0.98419 0.10426 0.0
H710 H 0.88961 0.10299 0.12743 0.0
H711 H 0.92076 0.98694 0.16804 0.0
C712 C 0.92632 0.01372 0.21249 0.0
C713 C 0.92342 0.04671 0.22897 0.0
C714 C 0.87801 0.07681 0.12152 0.0
C715 C 0.91355 0.04551 0.16382 0.0
C716 C 0.84537 0.07592 0.10492 0.0
C717 C 0.82719 0.04273 0.1008 0.0
C718 C 0.89198 0.04435 0.13434 0.0
C719 C 0.84593 0.01054 0.10822 0.0
C720 C 0.92184 0.01304 0.17986 0.0
C721 C 0.92143 0.07907 0.21131 0.0
N722 N 0.87668 0.01216 0.12572 0.0
N723 N 0.91541 0.07756 0.17981 0.0
H724 H 0.88709 0.40159 0.51218 0.0
H725 H 0.02091 0.26808 0.42684 0.0
H726 H 0.94637 0.31339 0.55596 0.0
H727 H 0.93085 0.32399 0.38376 0.0
H728 H 0.01639 0.30877 0.4723 0.0
H729 H 0.92515 0.39592 0.46585 0.0
C730 C 0.90884 0.38179 0.51261 0.0
C731 C 0.91312 0.35737 0.53788 0.0
C732 C -0.00127 0.31322 0.45225 0.0
C733 C 0.95644 0.3507 0.48454 0.0
C734 C 0.00152 0.29029 0.42622 0.0
C735 C 0.97567 0.29248 0.40212 0.0
C736 C 0.96991 0.33816 0.45379 0.0
C737 C 0.95088 0.32135 0.4023 0.0
C738 C 0.93055 0.37862 0.48601 0.0
C739 C 0.94162 0.33214 0.53669 0.0
N740 N 0.94799 0.34264 0.42823 0.0
N741 N 0.96184 0.32901 0.51018 0.0
H742 H 0.59255 0.40781 0.7849 0.0
H743 H 0.72854 0.55605 0.7424 0.0
H744 H 0.6842 0.44214 0.84087 0.0
H745 H 0.64684 0.51217 0.68101 0.0
H746 H 0.69157 0.53988 0.78777 0.0
H747 H 0.59247 0.46638 0.75871 0.0
C748 C 0.6122 0.42778 0.79238 0.0
C749 C 0.63935 0.41932 0.81452 0.0
C750 C 0.68079 0.53529 0.76437 0.0
C751 C 0.63977 0.48646 0.78366 0.0
C752 C 0.70173 0.54502 0.73845 0.0
C753 C 0.69102 0.53417 0.70827 0.0
C754 C 0.64985 0.51376 0.75964 0.0
C755 C 0.65621 0.52008 0.70419 0.0
C756 C 0.61204 0.46147 0.7773 0.0
C757 C 0.66372 0.44684 0.82303 0.0
N758 N 0.63728 0.50893 0.72974 0.0
N759 N 0.66391 0.47884 0.80707 0.0
H760 H 0.47836 0.43051 0.3402 0.0
H761 H 0.44566 0.32475 0.4557 0.0
H762 H 0.5895 0.42605 0.37157 0.0
H763 H 0.55716 0.33715 0.4835 0.0
H764 H 0.44732 0.38422 0.43115 0.0
H765 H 0.45867 0.4236 0.39436 0.0
C766 C 0.49867 0.42902 0.35862 0.0
C767 C 0.53558 0.42673 0.35104 0.0
C768 C 0.47141 0.37483 0.44316 0.0
C769 C 0.51337 0.41649 0.41306 0.0
C770 C 0.47021 0.34068 0.45759 0.0
C771 C 0.50196 0.32524 0.46988 0.0
C772 C 0.50489 0.39295 0.44056 0.0
C773 C 0.5326 0.34743 0.47266 0.0
C774 C 0.4874 0.42457 0.38973 0.0
C775 C 0.56066 0.42656 0.37592 0.0
N776 N 0.53369 0.37972 0.45716 0.0
N777 N 0.54907 0.42017 0.40569 0.0
H778 H 0.57764 0.98948 0.55581 0.0
H779 H 0.6801 0.0335 0.70042 0.0
H780 H 0.57307 0.08992 0.60795 0.0
H781 H 0.68818 0.9368 0.6432 0.0
H782 H 0.61606 0.03791 0.68706 0.0
H783 H 0.58563 0.9563 0.60506 0.0
C784 C 0.57681 0.0044 0.57781 0.0
C785 C 0.57714 0.04253 0.57785 0.0
C786 C 0.63157 0.01507 0.67813 0.0
C787 C 0.5886 0.00528 0.63366 0.0
C788 C 0.6684 0.01289 0.68533 0.0
C789 C 0.69021 0.98662 0.6705 0.0
C790 C 0.61703 0.99148 0.65535 0.0
C791 C 0.67287 0.9589 0.65358 0.0
C792 C 0.58144 0.98548 0.606 0.0
C793 C 0.57453 0.0605 0.60685 0.0
N794 N 0.6375 0.96273 0.64554 0.0
N795 N 0.58192 0.04182 0.6337 0.0
H796 H 0.87539 0.18167 1.00488 0.0
H797 H 0.83157 0.17425 0.85594 0.0
H798 H 0.98323 0.188 0.967 0.0
H799 H 0.93012 0.11569 0.83549 0.0
H800 H 0.84639 0.17191 0.91182 0.0
H801 H 0.85778 0.14292 0.96073 0.0
C802 C 0.89592 0.17317 0.98822 0.0
C803 C 0.93013 0.1897 0.98829 0.0
C804 C 0.86446 0.15877 0.8953 0.0
C805 C 0.91 0.1473 0.93758 0.0
C806 C 0.85643 0.161 0.86336 0.0
C807 C 0.88009 0.14585 0.84129 0.0
C808 C 0.89679 0.14189 0.90519 0.0
C809 C 0.91152 0.12813 0.85199 0.0
C810 C 0.88566 0.15177 0.96266 0.0
C811 C 0.95605 0.177 0.96687 0.0
N812 N 0.91946 0.12739 0.88326 0.0
N813 N 0.94504 0.15777 0.94133 0.0
H814 H 0.93499 0.3914 0.12628 0.0
H815 H 0.82815 0.50178 0.24579 0.0
H816 H 0.92534 0.50876 0.12764 0.0
H817 H 0.83138 0.38465 0.23842 0.0
H818 H 0.88753 0.50472 0.22109 0.0
H819 H 0.92511 0.3902 0.18224 0.0
C820 C 0.93216 0.41725 0.13814 0.0
C821 C 0.9286 0.45027 0.12146 0.0
C822 C 0.87578 0.47827 0.2257 0.0
C823 C 0.91602 0.44849 0.18608 0.0
C824 C 0.84178 0.47655 0.23987 0.0
C825 C 0.82382 0.44305 0.2423 0.0
C826 C 0.89141 0.44633 0.21353 0.0
C827 C 0.84333 0.41127 0.23517 0.0
C828 C 0.92632 0.41639 0.17053 0.0
C829 C 0.92623 0.48246 0.13917 0.0
N830 N 0.87563 0.41372 0.22017 0.0
N831 N 0.91853 0.48073 0.17037 0.0
H832 H 0.02572 0.6545 0.36708 0.0
H833 H 0.07934 0.55684 0.4753 0.0
H834 H 0.92533 0.65891 0.4183 0.0
H835 H 0.97048 0.55289 0.51156 0.0
H836 H 0.0555 0.56163 0.42272 0.0
H837 H 0.03322 0.59115 0.38265 0.0
C838 C 0.00479 0.64169 0.38105 0.0
C839 C 0.97601 0.66235 0.39314 0.0
C840 C 0.03636 0.55874 0.44174 0.0
C841 C 0.98574 0.59098 0.4132 0.0
C842 C 0.05027 0.55545 0.47219 0.0
C843 C 0.02678 0.55705 0.49806 0.0
C844 C -0.00106 0.56505 0.43761 0.0
C845 C 0.98953 0.55389 0.49222 0.0
C846 C 0.00927 0.60552 0.39038 0.0
C847 C 0.94877 0.64424 0.40968 0.0
N848 N 0.97664 0.55948 0.46266 0.0
N849 N 0.95494 0.60987 0.42024 0.0
H850 H 0.41587 0.46964 0.73909 0.0
H851 H 0.31961 0.48356 0.61031 0.0
H852 H 0.44731 0.58191 0.72768 0.0
H853 H 0.32598 0.59824 0.63187 0.0
H854 H 0.37859 0.47457 0.63482 0.0
H855 H 0.39853 0.46791 0.6843 0.0
C856 C 0.42038 0.4937 0.72487 0.0
C857 C 0.43023 0.52683 0.73893 0.0
C858 C 0.36718 0.50173 0.63419 0.0
C859 C 0.41025 0.52524 0.67567 0.0
C860 C 0.33351 0.50701 0.61989 0.0
C861 C 0.31659 0.54133 0.62089 0.0
C862 C 0.38366 0.5309 0.64998 0.0
C863 C 0.33671 0.57081 0.63243 0.0
C864 C 0.41044 0.49271 0.6932 0.0
C865 C 0.43739 0.55636 0.71878 0.0
N866 N 0.36876 0.56474 0.64725 0.0
N867 N 0.42576 0.55537 0.68846 0.0
H868 H 0.51379 0.6943 0.97591 0.0
H869 H 0.42993 0.76544 0.09876 0.0
H870 H 0.51671 0.80226 0.93649 0.0
H871 H 0.42366 0.86132 1.03985 0.0
H872 H 0.48291 0.74572 0.06937 0.0
H873 H 0.50654 0.72008 1.02792 0.0
C874 C 0.51455 0.72364 0.97852 0.0
C875 C 0.51382 0.74627 0.95191 0.0
C876 C 0.47023 0.77122 0.06295 0.0
C877 C 0.50431 0.77635 1.01124 0.0
C878 C 0.43981 0.78254 0.07986 0.0
C879 C 0.42137 0.8146 0.07142 0.0
C880 C 0.48176 0.79175 1.03684 0.0
C881 C 0.43629 0.83625 1.04745 0.0
C882 C 0.51002 0.73859 1.0084 0.0
C883 C 0.51601 0.78389 0.95644 0.0
N884 N 0.46508 0.82407 1.03077 0.0
N885 N 0.50978 0.79785 0.9855 0.0
H886 H 0.09208 0.9068 0.28074 0.0
H887 H 0.23656 0.05346 0.26039 0.0
H888 H 0.17413 0.93962 0.34746 0.0
H889 H 0.17743 -0.00138 0.18699 0.0
H890 H 0.18695 0.04135 0.29675 0.0
H891 H 0.0971 0.96572 0.25497 0.0
C892 C 0.11049 0.92666 0.29057 0.0
C893 C 0.13398 0.91771 0.31548 0.0
C894 C 0.184 0.03346 0.2723 0.0
C895 C 0.14005 0.9849 0.28567 0.0
C896 C 0.21229 0.04048 0.25151 0.0
C897 C 0.21162 0.02506 0.22138 0.0
C898 C 0.15581 0.01036 0.26267 0.0
C899 C 0.17943 0.0093 0.21069 0.0
C900 C 0.11315 0.96046 0.27588 0.0
C901 C 0.15679 0.94483 0.32735 0.0
N902 N 0.15307 0.00123 0.23168 0.0
N903 N 0.15989 0.97695 0.31188 0.0
H904 H 0.03007 0.80938 0.75466 0.0
H905 H 0.93678 0.74829 0.87398 0.0
H906 H 0.07502 0.87909 0.8265 0.0
H907 H 0.96335 0.84618 0.92426 0.0
H908 H 0.94871 0.77897 0.82477 0.0
H909 H 0.97344 0.80708 0.78401 0.0
C910 C 0.02799 0.82429 0.77658 0.0
C911 C 0.05782 0.8434 0.78863 0.0
C912 C 0.95035 0.79478 0.84616 0.0
C913 C -0.00661 0.84011 0.8229 0.0
C914 C 0.94285 0.77714 0.87447 0.0
C915 C 0.95111 0.79428 0.90304 0.0
C916 C 0.96645 0.82948 0.84699 0.0
C917 C 0.95815 0.83167 0.90254 0.0
C918 C -0.00444 0.823 0.79336 0.0
C919 C 0.0531 0.8635 0.81639 0.0
N920 N 0.96744 0.84771 0.87492 0.0
N921 N 0.02181 0.86069 0.83284 0.0
H922 H 0.07077 0.60111 0.10256 0.0
H923 H 0.1769 0.4426 0.17382 0.0
H924 H 0.10509 0.50327 0.05476 0.0
H925 H 0.15889 0.54784 0.2158 0.0
H926 H 0.12145 0.45022 0.14311 0.0
H927 H 0.07207 0.56826 0.15222 0.0
C928 C 0.07726 0.57235 0.1022 0.0
C929 C 0.08947 0.55526 0.0746 0.0
C930 C 0.12877 0.47107 0.15997 0.0
C931 C 0.09209 0.51796 0.13165 0.0
C932 C 0.16037 0.46662 0.17765 0.0
C933 C 0.17327 0.49555 0.19594 0.0
C934 C 0.11079 0.50488 0.16039 0.0
C935 C 0.15054 0.52566 0.20067 0.0
C936 C 0.07808 0.55357 0.13074 0.0
C937 C 0.09708 0.51787 0.07577 0.0
N938 N 0.1209 0.53015 0.18215 0.0
N939 N 0.09931 0.50068 0.10399 0.0
H940 H 0.44176 0.5933 0.31349 0.0
H941 H 0.4631 0.65039 0.46004 0.0
H942 H 0.44672 0.70915 0.29645 0.0
H943 H 0.51173 0.74795 0.42324 0.0
H944 H 0.47248 0.62077 0.40977 0.0
H945 H 0.48039 0.60123 0.35958 0.0
C946 C 0.4507 0.62046 0.31945 0.0
C947 C 0.43881 0.65105 0.30228 0.0
C948 C 0.48289 0.64803 0.41281 0.0
C949 C 0.48346 0.66009 0.35477 0.0
C950 C 0.47762 0.66496 0.44184 0.0
C951 C 0.48501 0.70214 0.4451 0.0
C952 C 0.49526 0.66884 0.38716 0.0
C953 C 0.50427 0.71957 0.42103 0.0
C954 C 0.47311 0.62487 0.34569 0.0
C955 C 0.45389 0.68497 0.30968 0.0
N956 N 0.50745 0.70323 0.39255 0.0
N957 N 0.47473 0.68868 0.33578 0.0
H958 H 0.44306 0.01365 0.59485 0.0
H959 H 0.33579 0.93291 0.72949 0.0
H960 H 0.43831 0.90019 0.62095 0.0
H961 H 0.33334 0.04478 0.69887 0.0
H962 H 0.39742 0.92728 0.70945 0.0
H963 H 0.43152 0.03013 0.64948 0.0
C964 C 0.44113 0.99215 0.61225 0.0
C965 C 0.43938 0.95554 0.60289 0.0
C966 C 0.38397 0.95348 0.70801 0.0
C967 C 0.42512 0.97417 0.66509 0.0
C968 C 0.34872 0.95664 0.71939 0.0
C969 C 0.32898 0.98881 0.71426 0.0
C970 C 0.39887 0.98231 0.69055 0.0
C971 C 0.3473 0.0191 0.70226 0.0
C972 C 0.4344 0.0016 0.64352 0.0
C973 C 0.4383 0.92889 0.62662 0.0
N974 N 0.38086 0.01478 0.68974 0.0
N975 N 0.42977 0.93873 0.65649 0.0
H976 H 0.7536 0.34283 0.20729 0.0
H977 H 0.77236 0.1682 0.24509 0.0
H978 H 0.79381 0.31755 0.11499 0.0
H979 H 0.77198 0.15364 0.14488 0.0
H980 H 0.79727 0.22948 0.23805 0.0
H981 H 0.77365 0.28389 0.22585 0.0
C982 C 0.76658 0.32491 0.1909 0.0
C983 C 0.76963 0.3344 0.15914 0.0
C984 C 0.79222 0.21283 0.21752 0.0
C985 C 0.79421 0.26645 0.18015 0.0
C986 C 0.77838 0.17781 0.22172 0.0
C987 C 0.76839 0.15704 0.19564 0.0
C988 C 0.79515 0.2269 0.18681 0.0
C989 C 0.77828 0.16941 0.16567 0.0
C990 C 0.77896 0.2912 0.20164 0.0
C991 C 0.78916 0.31081 0.1394 0.0
N992 N 0.79008 0.20408 0.16197 0.0
N993 N 0.79968 0.2775 0.14995 0.0
H994 H 0.659 0.30356 0.38825 0.0
H995 H 0.78491 0.16188 0.47958 0.0
H996 H 0.6396 0.18884 0.39981 0.0
H997 H 0.82996 0.25592 0.43323 0.0
H998 H 0.72423 0.18499 0.46838 0.0
H999 H 0.71639 0.29657 0.41771 0.0
C1000 C 0.66682 0.27698 0.39706 0.0
C1001 C 0.64432 0.24673 0.39239 0.0
C1002 C 0.74744 0.20106 0.46141 0.0
C1003 C 0.70873 0.2388 0.42612 0.0
C1004 C 0.78204 0.18815 0.46818 0.0
C1005 C 0.81238 0.20633 0.4563 0.0
C1006 C 0.74335 0.23222 0.44257 0.0
C1007 C 0.80718 0.24062 0.4422 0.0
C1008 C 0.69922 0.27311 0.41397 0.0
C1009 C 0.65581 0.21278 0.40347 0.0
N1010 N 0.77312 0.25204 0.43478 0.0
N1011 N 0.68704 0.20976 0.42003 0.0
H1012 H 0.71937 0.32302 0.73202 0.0
H1013 H 0.86482 0.20269 0.6432 0.0
H1014 H 0.81988 0.36563 0.69686 0.0
H1015 H 0.75408 0.16821 0.65421 0.0
H1016 H 0.84755 0.26375 0.65997 0.0
H1017 H 0.73007 0.2668 0.70211 0.0
C1018 C 0.74352 0.32067 0.71771 0.0
C1019 C 0.76867 0.34919 0.71657 0.0
C1020 C 0.8267 0.24324 0.65776 0.0
C1021 C 0.78142 0.28499 0.68284 0.0
C1022 C 0.83655 0.20842 0.64796 0.0
C1023 C 0.81085 0.18044 0.64721 0.0
C1024 C 0.7909 0.25016 0.66712 0.0
C1025 C 0.77466 0.18914 0.6541 0.0
C1026 C 0.74955 0.2887 0.70059 0.0
C1027 C 0.79967 0.34467 0.69806 0.0
N1028 N 0.76585 0.22314 0.66437 0.0
N1029 N 0.80534 0.31312 0.68216 0.0
H1030 H 0.77996 0.30141 0.86918 0.0
H1031 H 0.65936 0.1801 0.98323 0.0
H1032 H 0.82935 0.23411 0.94079 0.0
H1033 H 0.63435 0.28812 0.95006 0.0
H1034 H 0.7175 0.18281 0.95466 0.0
H1035 H 0.72127 0.27408 0.88181 0.0
C1036 C 0.77867 0.28011 0.88681 0.0
C1037 C 0.80932 0.27081 0.90459 0.0
C1038 C 0.6988 0.20554 0.95332 0.0
C1039 C 0.74237 0.24139 0.92002 0.0
C1040 C 0.66599 0.20421 0.96976 0.0
C1041 C 0.64186 0.23382 0.96845 0.0
C1042 C 0.70696 0.23649 0.93533 0.0
C1043 C 0.65179 0.2646 0.95118 0.0
C1044 C 0.74522 0.26504 0.89425 0.0
C1045 C 0.80623 0.24262 0.92691 0.0
N1046 N 0.68337 0.26502 0.93505 0.0
N1047 N 0.773 0.22967 0.93479 0.0
H1048 H 0.18106 0.85731 0.64212 0.0
H1049 H 0.26575 0.66908 0.67237 0.0
H1050 H 0.29477 0.84331 0.6238 0.0
H1051 H 0.17897 0.71249 0.72898 0.0
H1052 H 0.28237 0.73108 0.65735 0.0
H1053 H 0.18095 0.80111 0.67228 0.0
C1054 C 0.20597 0.84232 0.64453 0.0
C1055 C 0.23799 0.85525 0.63124 0.0
C1056 C 0.26062 0.72706 0.67404 0.0
C1057 C 0.23852 0.79087 0.66585 0.0
C1058 C 0.25137 0.69168 0.68301 0.0
C1059 C 0.22004 0.68575 0.70103 0.0
C1060 C 0.23809 0.75601 0.68306 0.0
C1061 C 0.20265 0.71598 0.71429 0.0
C1062 C 0.20612 0.81046 0.6621 0.0
C1063 C 0.26963 0.83431 0.63428 0.0
N1064 N 0.21107 0.74987 0.70414 0.0
N1065 N 0.26914 0.80282 0.65125 0.0
H1066 H 0.28479 0.64837 0.96717 0.0
H1067 H 0.16688 0.8014 0.88253 0.0
H1068 H 0.32941 0.74963 0.93378 0.0
H1069 H 0.13115 0.69312 0.90503 0.0
H1070 H 0.22284 0.78992 0.91257 0.0
H1071 H 0.22397 0.67304 0.95951 0.0
C1072 C 0.28173 0.67628 0.95926 0.0
C1073 C 0.31202 0.69672 0.95047 0.0
C1074 C 0.20237 0.76892 0.91137 0.0
C1075 C 0.24276 0.72453 0.94025 0.0
C1076 C 0.17068 0.77535 0.89409 0.0
C1077 C 0.14422 0.74818 0.89175 0.0
C1078 C 0.20759 0.73492 0.92599 0.0
C1079 C 0.15044 0.71487 0.90678 0.0
C1080 C 0.24703 0.69024 0.95452 0.0
C1081 C 0.30668 0.73284 0.94057 0.0
N1082 N 0.18143 0.70913 0.92318 0.0
N1083 N 0.2726 0.7453 0.93481 0.0
H1084 H 0.21248 0.6636 0.12825 0.0
H1085 H 0.34139 0.79214 0.22987 0.0
H1086 H 0.32347 0.64036 0.15254 0.0
H1087 H 0.24008 0.82912 0.19077 0.0
H1088 H 0.32585 0.7299 0.21508 0.0
H1089 H 0.2154 0.71936 0.16026 0.0
C1090 C 0.23739 0.67026 0.14044 0.0
C1091 C 0.26765 0.64726 0.13829 0.0
C1092 C 0.30663 0.75143 0.21034 0.0
C1093 C 0.27115 0.71038 0.17487 0.0
C1094 C 0.3151 0.78681 0.21947 0.0
C1095 C 0.29195 0.81561 0.21151 0.0
C1096 C 0.27533 0.74505 0.19238 0.0
C1097 C 0.2585 0.80746 0.19748 0.0
C1098 C 0.23897 0.70184 0.1588 0.0
C1099 C 0.29945 0.65713 0.15403 0.0
N1100 N 0.25156 0.77297 0.18749 0.0
N1101 N 0.30034 0.6879 0.1717 0.0
H1102 H 0.31914 0.7279 0.42671 0.0
H1103 H 0.12188 0.80154 0.44932 0.0
H1104 H 0.27409 0.81765 0.37377 0.0
H1105 H 0.15067 0.69326 0.47901 0.0
H1106 H 0.17781 0.80551 0.4198 0.0
H1107 H 0.25785 0.70972 0.44169 0.0
C1108 C 0.29635 0.74297 0.41719 0.0
C1109 C 0.30173 0.77491 0.39949 0.0
C1110 C 0.17178 0.78049 0.43218 0.0
C1111 C 0.2319 0.75474 0.41721 0.0
C1112 C 0.13986 0.77845 0.44927 0.0
C1113 C 0.13144 0.74704 0.46625 0.0
C1114 C 0.19605 0.75101 0.43242 0.0
C1115 C 0.15623 0.71799 0.46604 0.0
C1116 C 0.26136 0.73272 0.42603 0.0
C1117 C 0.27121 0.79328 0.38792 0.0
N1118 N 0.18767 0.7207 0.44947 0.0
N1119 N 0.2377 0.78343 0.3976 0.0
H1120 H 0.75158 0.01379 0.83245 0.0
H1121 H 0.75647 0.05776 1.01915 0.0
H1122 H 0.84442 0.06365 0.8756 0.0
H1123 H 0.6591 0.05062 0.96363 0.0
H1124 H 0.79245 0.04639 0.97087 0.0
H1125 H 0.72153 0.0123 0.8839 0.0
C1126 C 0.76646 0.02279 0.85302 0.0
C1127 C 0.80144 0.03732 0.84954 0.0
C1128 C 0.76318 0.04668 0.9694 0.0
C1129 C 0.76608 0.0373 0.90923 0.0
C1130 C 0.74256 0.05277 0.99709 0.0
C1131 C 0.70445 0.05466 0.99578 0.0
C1132 C 0.74567 0.04168 0.9401 0.0
C1133 C 0.68825 0.04901 0.96609 0.0
C1134 C 0.74891 0.0226 0.88246 0.0
C1135 C 0.8182 0.05066 0.87714 0.0
N1136 N 0.7087 0.04271 0.93982 0.0
N1137 N 0.8005 0.05037 0.9056 0.0
H1138 H 0.9383 0.26804 0.08935 0.0
H1139 H 0.86489 0.23589 0.26666 0.0
H1140 H 0.86786 0.34127 0.13985 0.0
H1141 H 0.94842 0.1679 0.22757 0.0
H1142 H 0.86733 0.27456 0.21976 0.0
H1143 H 0.9441 0.23082 0.13799 0.0
C1144 C 0.92428 0.27656 0.11047 0.0
C1145 C 0.90227 0.30804 0.10991 0.0
C1146 C 0.88577 0.25166 0.22143 0.0
C1147 C 0.90867 0.26521 0.16602 0.0
C1148 C 0.88467 0.22972 0.24861 0.0
C1149 C 0.90741 0.19918 0.25194 0.0
C1150 C 0.90922 0.2429 0.19635 0.0
C1151 C 0.9312 0.19178 0.22671 0.0
C1152 C 0.92753 0.25518 0.13834 0.0
C1153 C 0.88482 0.31724 0.13843 0.0
N1154 N 0.93135 0.2132 0.20008 0.0
N1155 N 0.88824 0.29615 0.16475 0.0
H1156 H 0.82287 0.39718 0.48712 0.0
H1157 H 0.67917 0.47762 0.36046 0.0
H1158 H 0.75312 0.48707 0.51071 0.0
H1159 H 0.73366 0.37415 0.35375 0.0
H1160 H 0.71202 0.48934 0.41052 0.0
H1161 H 0.79805 0.39704 0.43381 0.0
C1162 C 0.80322 0.41791 0.48077 0.0
C1163 C 0.79111 0.44286 0.5036 0.0
C1164 C 0.71717 0.46434 0.39779 0.0
C1165 C 0.76063 0.44184 0.44176 0.0
C1166 C 0.69868 0.45782 0.36893 0.0
C1167 C 0.70383 0.42496 0.35233 0.0
C1168 C 0.74146 0.43805 0.41009 0.0
C1169 C 0.72882 0.39999 0.36529 0.0
C1170 C 0.78851 0.41745 0.45023 0.0
C1171 C 0.76432 0.46805 0.49386 0.0
N1172 N 0.74644 0.40702 0.39294 0.0
N1173 N 0.74987 0.46675 0.46391 0.0
H1174 H 0.49904 0.22265 0.75876 0.0
H1175 H 0.60011 0.25175 0.59328 0.0
H1176 H 0.57345 0.31068 0.74242 0.0
H1177 H 0.51211 0.1763 0.60426 0.0
H1178 H 0.589 0.27486 0.64647 0.0
H1179 H 0.50165 0.20699 0.70273 0.0
C1180 C 0.51556 0.23923 0.74337 0.0
C1181 C 0.53579 0.26846 0.75592 0.0
C1182 C 0.57161 0.25368 0.63728 0.0
C1183 C 0.53958 0.24965 0.69054 0.0
C1184 C 0.57779 0.24049 0.60659 0.0
C1185 C 0.55668 0.21226 0.59352 0.0
C1186 C 0.5444 0.23828 0.65614 0.0
C1187 C 0.52866 0.19855 0.61265 0.0
C1188 C 0.5171 0.23004 0.71113 0.0
C1189 C 0.55688 0.28833 0.73424 0.0
N1190 N 0.52368 0.21132 0.64286 0.0
N1191 N 0.55848 0.27837 0.70301 0.0
H1192 H 0.22636 0.62581 0.49163 0.0
H1193 H 0.25072 0.49536 0.34216 0.0
H1194 H 0.18241 0.51738 0.49029 0.0
H1195 H 0.31882 0.58848 0.35818 0.0
H1196 H 0.22554 0.50241 0.39528 0.0
H1197 H 0.25963 0.6126 0.4432 0.0
C1198 C 0.22407 0.59886 0.48148 0.0
C1199 C 0.20154 0.57263 0.49576 0.0
C1200 C 0.24636 0.52104 0.38749 0.0
C1201 C 0.23956 0.55743 0.43863 0.0
C1202 C 0.26099 0.51697 0.357 0.0
C1203 C 0.28757 0.541 0.3453 0.0
C1204 C 0.25743 0.55004 0.40684 0.0
C1205 C 0.29903 0.56876 0.36596 0.0
C1206 C 0.24319 0.59138 0.45355 0.0
C1207 C 0.19971 0.5384 0.48078 0.0
N1208 N 0.28368 0.57273 0.39526 0.0
N1209 N 0.21796 0.53204 0.45303 0.0
H1210 H 0.43571 0.73517 0.77164 0.0
H1211 H 0.45049 0.75077 0.58124 0.0
H1212 H 0.43694 0.64162 0.71078 0.0
H1213 H 0.40659 0.83594 0.63955 0.0
H1214 H 0.45863 0.7128 0.62892 0.0
H1215 H 0.43832 0.77478 0.72452 0.0
C1216 C 0.43786 0.72283 0.74857 0.0
C1217 C 0.43699 0.68465 0.74559 0.0
C1218 C 0.44751 0.73997 0.63127 0.0
C1219 C 0.43945 0.73017 0.69096 0.0
C1220 C 0.44294 0.76176 0.6039 0.0
C1221 C 0.42736 0.79673 0.60584 0.0
C1222 C 0.43735 0.75337 0.66122 0.0
C1223 C 0.4184 0.80917 0.63642 0.0
C1224 C 0.43884 0.74551 0.72151 0.0
C1225 C 0.43835 0.67066 0.71461 0.0
N1226 N 0.42351 0.78781 0.66251 0.0
N1227 N 0.43962 0.6931 0.68885 0.0
H1228 H 0.18122 0.90692 0.85898 0.0
H1229 H 0.32601 0.97388 0.99106 0.0
H1230 H 0.26265 0.9873 0.83873 0.0
H1231 H 0.26303 0.87543 0.99725 0.0
H1232 H 0.29968 0.98464 0.93802 0.0
H1233 H 0.20588 0.90125 0.91269 0.0
C1234 C 0.20374 0.92399 0.86589 0.0
C1235 C 0.21948 0.94782 0.84389 0.0
C1236 C 0.29168 0.96072 0.95115 0.0
C1237 C 0.24858 0.94116 0.90607 0.0
C1238 C 0.30687 0.95452 0.98153 0.0
C1239 C 0.29708 0.92363 0.99929 0.0
C1240 C 0.26598 0.93623 0.93839 0.0
C1241 C 0.27174 0.89977 0.98512 0.0
C1242 C 0.21818 0.92047 0.89664 0.0
C1243 C 0.24932 0.96859 0.8546 0.0
N1244 N 0.25722 0.90663 0.9561 0.0
N1245 N 0.26273 0.96482 0.88459 0.0
H1246 H 0.00266 0.68409 0.10089 0.0
H1247 H 0.06293 0.81792 0.244 0.0
H1248 H 0.09301 0.75777 0.09646 0.0
H1249 H 0.98713 0.73005 0.25582 0.0
H1250 H 0.0677 0.80221 0.18774 0.0
H1251 H 0.98996 0.70615 0.15488 0.0
C1252 C 0.0193 0.70543 0.11082 0.0
C1253 C 0.04887 0.71909 0.09364 0.0
C1254 C 0.04965 0.78659 0.20254 0.0
C1255 C 0.03472 0.74444 0.15602 0.0
C1256 C 0.04668 0.79585 0.23479 0.0
C1257 C 0.02443 0.77555 0.25516 0.0
C1258 C 0.03007 0.75688 0.19001 0.0
C1259 C 0.00463 0.7467 0.24138 0.0
C1260 C 0.01229 0.71783 0.14189 0.0
C1261 C 0.06986 0.74628 0.10848 0.0
N1262 N 0.00794 0.73831 0.21007 0.0
N1263 N 0.06248 0.75786 0.13839 0.0
H1264 H 0.55688 0.17618 0.35541 0.0
H1265 H 0.67891 0.05854 0.23372 0.0
H1266 H 0.63775 0.09833 0.38416 0.0
H1267 H 0.5987 0.13641 0.2038 0.0
H1268 H 0.67004 0.07878 0.28858 0.0
H1269 H 0.57688 0.16848 0.30026 0.0
C1270 C 0.57959 0.15843 0.35039 0.0
C1271 C 0.59603 0.13851 0.37492 0.0
C1272 C 0.6549 0.09211 0.26999 0.0
C1273 C 0.61843 0.12825 0.31112 0.0
C1274 C 0.66044 0.08083 0.23845 0.0
C1275 C 0.64039 0.09643 0.21363 0.0
C1276 C 0.62851 0.11884 0.27724 0.0
C1277 C 0.61555 0.12417 0.22185 0.0
C1278 C 0.59077 0.15357 0.3187 0.0
C1279 C 0.62445 0.1147 0.36632 0.0
N1280 N 0.61019 0.13419 0.25258 0.0
N1281 N 0.63446 0.11015 0.33555 0.0
H1282 H 0.9511 0.14147 0.47711 0.0
H1283 H 0.83113 0.05483 0.61797 0.0
H1284 H 0.85674 0.07579 0.46081 0.0
H1285 H 0.93986 0.09385 0.6314 0.0
H1286 H 0.83538 0.07049 0.56181 0.0
H1287 H 0.94253 0.13358 0.53439 0.0
C1288 C 0.92777 0.12658 0.48552 0.0
C1289 C 0.90384 0.1105 0.46379 0.0
C1290 C 0.8583 0.07584 0.57705 0.0
C1291 C 0.89446 0.10003 0.52991 0.0
C1292 C 0.85581 0.06692 0.60939 0.0
C1293 C 0.88506 0.07298 0.63006 0.0
C1294 C 0.89022 0.09139 0.56481 0.0
C1295 C 0.91647 0.08851 0.61673 0.0
C1296 C 0.92318 0.12154 0.51833 0.0
C1297 C 0.87521 0.08979 0.47646 0.0
N1298 N 0.91814 0.09722 0.58535 0.0
N1299 N 0.87128 0.08531 0.50831 0.0
H1300 H 0.90279 0.37423 0.71978 0.0
H1301 H 0.85044 0.42469 0.89871 0.0
H1302 H 0.82456 0.45668 0.74363 0.0
H1303 H 0.92894 0.34243 0.87522 0.0
H1304 H 0.83616 0.43213 0.84263 0.0
H1305 H 0.90889 0.35871 0.77577 0.0
C1306 C 0.8864 0.38878 0.73677 0.0
C1307 C 0.86241 0.41631 0.72655 0.0
C1308 C 0.85601 0.41189 0.84957 0.0
C1309 C 0.86989 0.39894 0.79172 0.0
C1310 C 0.8639 0.40726 0.88179 0.0
C1311 C 0.89023 0.38205 0.89212 0.0
C1312 C 0.87505 0.39174 0.82678 0.0
C1313 C 0.9077 0.36138 0.8687 0.0
C1314 C 0.88998 0.37987 0.76891 0.0
C1315 C 0.84252 0.43453 0.75003 0.0
N1316 N 0.9 0.36681 0.83736 0.0
N1317 N 0.84675 0.42563 0.78127 0.0
H1318 H 0.59138 0.34661 0.148 0.0
H1319 H 0.63582 0.37953 0.96426 0.0
H1320 H 0.67058 0.42351 0.11564 0.0
H1321 H 0.55149 0.30779 0.9958 0.0
H1322 H 0.65417 0.38945 1.0191 0.0
H1323 H 0.58258 0.3257 0.0936 0.0
C1324 C 0.60802 0.35824 0.12959 0.0
C1325 C 0.6327 0.38622 0.13701 0.0
C1326 C 0.63202 0.37103 1.01423 0.0
C1327 C 0.62137 0.36323 0.07339 0.0
C1328 C 0.62157 0.3651 0.9827 0.0
C1329 C 0.59244 0.34202 0.97487 0.0
C1330 C 0.613 0.35432 1.03897 0.0
C1331 C 0.57476 0.32487 1.00023 0.0
C1332 C 0.60253 0.34657 0.09828 0.0
C1333 C 0.65214 0.40114 0.11158 0.0
N1334 N 0.58511 0.3315 1.03088 0.0
N1335 N 0.64595 0.38969 0.08119 0.0
H1336 H 0.16569 0.57098 0.72865 0.0
H1337 H 0.04445 0.68389 0.85529 0.0
H1338 H 0.07225 0.63503 0.70351 0.0
H1339 H 0.12842 0.60827 0.88164 0.0
H1340 H 0.06019 0.67404 0.79937 0.0
H1341 H 0.15868 0.5914 0.78383 0.0
C1342 C 0.14435 0.59009 0.73445 0.0
C1343 C 0.12001 0.60174 0.71092 0.0
C1344 C 0.07569 0.66007 0.81739 0.0
C1345 C 0.11102 0.62477 0.77478 0.0
C1346 C 0.06696 0.66617 0.84949 0.0
C1347 C 0.08558 0.64758 0.87361 0.0
C1348 C 0.10322 0.63499 0.80897 0.0
C1349 C 0.11359 0.62373 0.8641 0.0
C1350 C 0.14003 0.60153 0.76615 0.0
C1351 C 0.09209 0.62567 0.72052 0.0
N1352 N 0.1214 0.61812 0.83294 0.0
N1353 N 0.08838 0.6362 0.75129 0.0
H1354 H 0.40879 0.62754 0.13517 0.0
H1355 H 0.3677 0.56371 0.95734 0.0
H1356 H 0.33295 0.54298 0.11211 0.0
H1357 H 0.43937 0.65228 0.97918 0.0
H1358 H 0.35092 0.55958 1.01302 0.0
H1359 H 0.41664 0.64033 0.07883 0.0
C1360 C 0.39309 0.61212 0.11826 0.0
C1361 C 0.36936 0.58471 0.12882 0.0
C1362 C 0.36984 0.58042 1.00578 0.0
C1363 C 0.37919 0.59863 0.06325 0.0
C1364 C 0.37928 0.58303 0.97376 0.0
C1365 C 0.4044 0.60903 0.96302 0.0
C1366 C 0.38611 0.60346 1.0281 0.0
C1367 C 0.41915 0.63252 0.98588 0.0
C1368 C 0.39778 0.61937 0.08592 0.0
C1369 C 0.35059 0.56515 0.10545 0.0
N1370 N 0.41004 0.62899 1.01714 0.0
N1371 N 0.35603 0.57232 0.07404 0.0
H1372 H 0.33489 0.93754 0.2343 0.0
H1373 H 0.44282 0.82168 0.36796 0.0
H1374 H 0.42719 0.86959 0.21439 0.0
H1375 H 0.3672 0.90717 0.38989 0.0
H1376 H 0.4306 0.83159 0.31139 0.0
H1377 H 0.33991 0.92059 0.29038 0.0
C1378 C 0.35593 0.91874 0.24151 0.0
C1379 C 0.38041 0.90487 0.21909 0.0
C1380 C 0.41601 0.84769 0.32855 0.0
C1381 C 0.38658 0.88518 0.28405 0.0
C1382 C 0.4226 0.84156 0.36101 0.0
C1383 C 0.40509 0.86263 0.38412 0.0
C1384 C 0.39186 0.87541 0.31869 0.0
C1385 C 0.38052 0.88938 0.37319 0.0
C1386 C 0.35895 0.90913 0.27373 0.0
C1387 C 0.40758 0.88108 0.2305 0.0
N1388 N 0.37468 0.89492 0.34164 0.0
N1389 N 0.4098 0.872 0.26177 0.0
H1390 H 0.12208 0.89576 0.45855 0.0
H1391 H 0.08947 0.86132 0.64387 0.0
H1392 H 0.04333 0.81997 0.49379 0.0
H1393 H 0.16319 0.94205 0.60861 0.0
H1394 H 0.07696 0.84174 0.5898 0.0
H1395 H 0.14163 0.90836 0.51261 0.0
C1396 C 0.10925 0.88113 0.47766 0.0
C1397 C 0.08137 0.85603 0.47112 0.0
C1398 C 0.0963 0.86337 0.59369 0.0
C1399 C 0.10349 0.87122 0.53423 0.0
C1400 C 0.10367 0.87457 0.62475 0.0
C1401 C 0.12821 0.90297 0.63129 0.0
C1402 C 0.11308 0.88086 0.56817 0.0
C1403 C 0.14509 0.91931 0.60516 0.0
C1404 C 0.12044 0.88855 0.50871 0.0
C1405 C 0.06564 0.83855 0.49724 0.0
N1406 N 0.13714 0.90818 0.57499 0.0
N1407 N 0.07674 0.84656 0.5274 0.0
H1408 H 0.53852 0.07989 0.14502 0.0
H1409 H 0.39191 0.98894 0.10219 0.0
H1410 H 0.60595 -0.00259 0.10299 0.0
H1411 H 0.46269 0.89831 0.12187 0.0
H1412 H 0.44462 0.02483 0.08606 0.0
H1413 H 0.48513 0.04996 0.12379 0.0
C1414 C 0.542 0.05583 0.13056 0.0
C1415 C 0.57652 0.04116 0.1255 0.0
C1416 C 0.44846 -0.00332 0.09295 0.0
C1417 C 0.51536 0.00605 0.10154 0.0
C1418 C 0.4183 0.97599 0.10157 0.0
C1419 C 0.42329 0.94109 0.1142 0.0
C1420 C 0.48346 0.98217 0.09732 0.0
C1421 C 0.45802 0.92555 0.11293 0.0
C1422 C 0.51152 0.03895 0.11806 0.0
C1423 C 0.57968 0.00968 0.10704 0.0
N1424 N 0.48703 0.94654 0.10558 0.0
N1425 N 0.54931 0.9925 0.09645 0.0
H1426 H 0.98153 0.0806 0.34283 0.0
H1427 H 0.084 0.93425 0.37343 0.0
H1428 H 0.90605 0.00854 0.38827 0.0
H1429 H 0.9908 0.86689 0.35645 0.0
H1430 H 0.05202 0.98597 0.35057 0.0
H1431 H 0.01387 0.0271 0.32171 0.0
C1432 C 0.97114 0.05355 0.3474 0.0
C1433 C 0.94165 0.04859 0.36764 0.0
C1434 C 0.03897 0.95962 0.3503 0.0
C1435 C 0.97816 0.988 0.34414 0.0
C1436 C 0.05728 0.93008 0.3635 0.0
C1437 C 0.03961 0.89667 0.36727 0.0
C1438 C 0.00223 0.95591 0.34228 0.0
C1439 C 0.00511 0.89245 0.35414 0.0
C1440 C 0.98958 0.02315 0.33552 0.0
C1441 C 0.92912 0.01324 0.37311 0.0
N1442 N 0.98686 0.92221 0.3434 0.0
N1443 N 0.94764 0.98426 0.36168 0.0
H1444 H 0.09212 0.50275 0.60031 0.0
H1445 H 0.87709 0.49882 0.608 0.0
H1446 H 0.02234 0.58735 0.63589 0.0
H1447 H 0.94558 0.40748 0.63114 0.0
H1448 H 0.93005 0.53069 0.58674 0.0
H1449 H 0.03801 0.46919 0.58232 0.0
C1450 C 0.06555 0.51491 0.60307 0.0
C1451 C 0.06139 0.54768 0.61955 0.0
C1452 C 0.93309 0.50297 0.59513 0.0
C1453 C 0.00018 0.51022 0.59883 0.0
C1454 C 0.90289 0.48472 0.60703 0.0
C1455 C 0.90742 0.45099 0.62194 0.0
C1456 C 0.96761 0.48702 0.59802 0.0
C1457 C 0.94136 0.43387 0.62033 0.0
C1458 C 0.03484 0.49585 0.59287 0.0
C1459 C 0.02649 0.56206 0.62328 0.0
N1460 N 0.97046 0.45241 0.60927 0.0
N1461 N -0.00277 0.54321 0.61313 0.0
H1462 H 0.49786 0.57873 0.8494 0.0
H1463 H 0.59651 0.42748 0.88188 0.0
H1464 H 0.41637 0.50858 0.88879 0.0
H1465 H 0.5017 0.36383 0.86127 0.0
H1466 H 0.56624 0.48136 0.86088 0.0
H1467 H 0.53145 0.52435 0.83157 0.0
C1468 C 0.4865 0.55195 0.85328 0.0
C1469 C 0.4547 0.54785 0.87087 0.0
C1470 C 0.55246 0.45544 0.8595 0.0
C1471 C 0.49272 0.48613 0.8512 0.0
C1472 C 0.56977 0.42465 0.87161 0.0
C1473 C 0.55132 0.39143 0.87355 0.0
C1474 C 0.51589 0.45317 0.85053 0.0
C1475 C 0.51674 0.38906 0.86017 0.0
C1476 C 0.50572 0.52101 0.84338 0.0
C1477 C 0.4411 0.51271 0.87562 0.0
N1478 N 0.49955 0.41989 0.85032 0.0
N1479 N 0.4603 0.48322 0.86609 0.0
H1480 H 0.60262 0.48745 0.24772 0.0
H1481 H 0.38734 0.49829 0.2433 0.0
H1482 H 0.53048 0.41068 0.20374 0.0
H1483 H 0.45562 0.59039 0.22383 0.0
H1484 H 0.44093 0.46378 0.26028 0.0
H1485 H 0.54936 0.52139 0.26747 0.0
C1486 C 0.57565 0.47717 0.24316 0.0
C1487 C 0.57064 0.4466 0.22391 0.0
C1488 C 0.44387 0.49213 0.25374 0.0
C1489 C 0.51047 0.48409 0.247 0.0
C1490 C 0.4133 0.51191 0.24434 0.0
C1491 C 0.41746 0.54679 0.23157 0.0
C1492 C 0.47838 0.50774 0.2506 0.0
C1493 C 0.45166 0.5632 0.23306 0.0
C1494 C 0.54547 0.49636 0.25444 0.0
C1495 C 0.53532 0.43441 0.21825 0.0
N1496 N 0.48111 0.54322 0.24166 0.0
N1497 N 0.50659 0.4532 0.22969 0.0
H1498 H 0.59379 0.04117 0.45518 0.0
H1499 H 0.41482 0.95846 0.45938 0.0
H1500 H 0.50515 0.1071 0.48845 0.0
H1501 H 0.50333 0.89312 0.49407 0.0
H1502 H 0.44613 0.01321 0.47657 0.0
H1503 H 0.56421 0.98707 0.47635 0.0
C1504 C 0.56856 0.04428 0.46789 0.0
C1505 C 0.55161 0.07838 0.46992 0.0
C1506 C 0.45826 0.98694 0.4816 0.0
C1507 C 0.51693 0.0166 0.49287 0.0
C1508 C 0.44041 0.9557 0.47173 0.0
C1509 C 0.4563 0.92137 0.47593 0.0
C1510 C 0.49348 0.98405 0.49372 0.0
C1511 C 0.48998 0.91918 0.49105 0.0
C1512 C 0.55178 0.01346 0.48012 0.0
C1513 C 0.51894 0.08115 0.48643 0.0
N1514 N 0.5081 0.95029 0.49855 0.0
N1515 N 0.50197 0.05038 0.49639 0.0
H1516 H 0.05201 0.89491 0.72927 0.0
H1517 H 0.96134 0.08191 0.73318 0.0
H1518 H 0.11162 -0.00614 0.74444 0.0
H1519 H 0.90175 0.98182 0.74061 0.0
H1520 H 0.01512 0.05109 0.75367 0.0
H1521 H -0.00223 0.92407 0.75013 0.0
C1522 C 0.054 0.92238 0.7384 0.0
C1523 C 0.08619 0.94212 0.73504 0.0
C1524 C 0.99004 0.03599 0.75204 0.0
C1525 C 0.02357 0.97666 0.75692 0.0
C1526 C 0.9592 0.05377 0.74062 0.0
C1527 C 0.92724 0.03428 0.73516 0.0
C1528 C 0.98919 -0.00187 0.7569 0.0
C1529 C 0.92593 -0.00222 0.74464 0.0
C1530 C 0.02286 0.93924 0.75002 0.0
C1531 C 0.08727 0.97773 0.74675 0.0
N1532 N 0.95681 0.98055 0.75413 0.0
N1533 N 0.05607 -0.00569 0.75619 0.0
H1534 H 0.08341 0.55306 0.95834 0.0
H1535 H 0.8993 0.48181 0.96964 0.0
H1536 H -0.00073 0.6252 0.99084 0.0
H1537 H 0.98628 0.41221 1.00087 0.0
H1538 H 0.93417 0.53495 0.98556 0.0
H1539 H 0.05156 0.50171 0.98206 0.0
C1540 C 0.05869 0.55812 0.97135 0.0
C1541 C 0.04343 0.59306 0.97223 0.0
C1542 C 0.94524 0.50811 0.99014 0.0
C1543 C 0.00625 0.53453 0.99826 0.0
C1544 C 0.92532 0.47781 0.981 0.0
C1545 C 0.93997 0.44281 0.98423 0.0
C1546 C 0.981 0.50344 1.00064 0.0
C1547 C 0.97404 0.4389 0.9984 0.0
C1548 C 0.04061 0.52888 0.98504 0.0
C1549 C 0.0116 0.59846 0.98948 0.0
N1550 N -0.00594 0.46901 1.00514 0.0
N1551 N -0.00671 0.56922 1.00092 0.0
loop_
_geom_bond_atom_site_label_1
_geom_bond_atom_site_label_2
_geom_bond_distance
_geom_bond_site_symmetry_2
_ccdc_geom_bond_type
Zn0 N4 2.020 . S
Zn0 O8 2.019 . S
Zn0 N10 2.119 . S
Zn0 O18 1.975 . S
C1 N2 1.334 . S
C1 N5 1.336 . S
N2 C1 1.334 . S
N2 C3 1.334 . S
C3 N2 1.334 . S
C3 N4 1.336 . S
N4 Zn0 2.020 . S
N4 C3 1.336 . S
N4 N5 1.354 . S
N5 C1 1.336 . S
N5 N4 1.354 . S
N5 Zn9 2.020 . S
C6 O7 1.236 1_556 S
C6 O30 1.259 . S
O7 C6 1.236 1_554 S
O8 Zn0 2.019 . S
O8 C28 1.257 . S
Zn9 N5 2.020 . S
Zn9 O16 1.975 . S
Zn9 N25 2.119 . S
Zn9 O30 2.019 1_544 S
N10 Zn0 2.119 . S
N10 C12 1.334 . S
N10 C13 1.328 . S
C11 C12 1.391 1_565 S
C11 N14 1.329 . S
C11 H32 0.930 . S
C12 N10 1.334 . S
C12 C11 1.391 1_545 S
C12 H19 0.930 1_545 S
C13 N10 1.328 . S
C13 C15 1.392 . S
C13 H20 0.930 . S
N14 C11 1.329 . S
N14 C15 1.331 1_565 S
C15 C13 1.392 . S
C15 N14 1.331 1_545 S
O16 Zn9 1.975 . S
O16 C17 1.252 . S
C17 O16 1.252 . S
C17 O18 1.252 . S
O18 Zn0 1.975 . S
O18 C17 1.252 . S
H19 C12 0.930 1_565 S
H20 C13 0.930 . S
C21 C22 1.392 . S
C21 N25 1.328 1_556 S
C21 H27 0.930 . S
C22 C21 1.392 . S
C22 N26 1.331 . S
C23 C24 1.391 . S
C23 N26 1.329 1_554 S
C23 H33 0.930 . S
C24 C23 1.391 . S
C24 N25 1.334 . S
C24 H31 0.930 . S
N25 Zn9 2.119 . S
N25 C21 1.328 1_554 S
N25 C24 1.334 . S
N26 C22 1.331 . S
N26 C23 1.329 1_556 S
H27 C21 0.930 . S
C28 O8 1.257 . S
C28 O29 1.244 . S
O29 C28 1.244 . S
O30 C6 1.259 . S
O30 Zn9 2.019 1_566 S
H31 C24 0.930 . S
H32 C11 0.930 . S
H33 C23 0.930 . S
Zn34 N38 2.020 . S
Zn34 O42 2.019 1_655 S
Zn34 N44 2.119 . S
Zn34 O52 1.975 . S
C35 N36 1.334 . S
C35 N39 1.336 . S
N36 C35 1.334 . S
N36 C37 1.334 . S
C37 N36 1.334 . S
C37 N38 1.336 . S
N38 Zn34 2.020 . S
N38 C37 1.336 . S
N38 N39 1.354 . S
N39 C35 1.336 . S
N39 N38 1.354 . S
N39 Zn43 2.020 . S
C40 O41 1.244 . S
C40 O64 1.257 . S
O41 C40 1.244 . S
O42 Zn34 2.019 1_455 S
O42 C62 1.257 . S
Zn43 N39 2.020 . S
Zn43 O50 1.975 . S
Zn43 N59 2.119 . S
Zn43 O64 2.019 . S
N44 Zn34 2.119 . S
N44 C46 1.334 . S
N44 C47 1.328 . S
C45 C46 1.391 . S
C45 N48 1.329 . S
C45 H66 0.930 . S
C46 N44 1.334 . S
C46 C45 1.391 . S
C46 H53 0.930 . S
C47 N44 1.328 . S
C47 C49 1.392 . S
C47 H54 0.930 . S
N48 C45 1.329 . S
N48 C49 1.331 . S
C49 C47 1.392 . S
C49 N48 1.331 . S
O50 Zn43 1.975 . S
O50 C51 1.252 . S
C51 O50 1.252 . S
C51 O52 1.252 . S
O52 Zn34 1.975 . S
O52 C51 1.252 . S
H53 C46 0.930 . S
H54 C47 0.930 . S
C55 C56 1.392 . S
C55 N59 1.328 . S
C55 H61 0.930 . S
C56 C55 1.392 . S
C56 N60 1.331 1_655 S
C57 C58 1.391 1_455 S
C57 N60 1.329 . S
C57 H67 0.930 . S
C58 C57 1.391 1_655 S
C58 N59 1.334 . S
C58 H65 0.930 1_655 S
N59 Zn43 2.119 . S
N59 C55 1.328 . S
N59 C58 1.334 . S
N60 C56 1.331 1_455 S
N60 C57 1.329 . S
H61 C55 0.930 . S
C62 O42 1.257 . S
C62 O63 1.244 . S
O63 C62 1.244 . S
O64 C40 1.257 . S
O64 Zn43 2.019 . S
H65 C58 0.930 1_455 S
H66 C45 0.930 . S
H67 C57 0.930 . S
Zn68 N72 2.020 . S
Zn68 O76 2.019 . S
Zn68 N78 2.119 . S
Zn68 O86 1.975 . S
C69 N70 1.334 . S
C69 N73 1.336 . S
N70 C69 1.334 . S
N70 C71 1.334 . S
C71 N70 1.334 . S
C71 N72 1.336 . S
N72 Zn68 2.020 . S
N72 C71 1.336 . S
N72 N73 1.354 . S
N73 C69 1.336 . S
N73 N72 1.354 . S
N73 Zn77 2.020 . S
C74 O75 1.244 . S
C74 O98 1.257 . S
O75 C74 1.244 . S
O76 Zn68 2.019 . S
O76 C96 1.257 . S
Zn77 N73 2.020 . S
Zn77 O84 1.975 . S
Zn77 N93 2.119 . S
Zn77 O98 2.019 . S
N78 Zn68 2.119 . S
N78 C80 1.334 . S
N78 C81 1.328 . S
C79 C80 1.391 . S
C79 N82 1.329 . S
C79 H100 0.930 . S
C80 N78 1.334 . S
C80 C79 1.391 . S
C80 H87 0.930 . S
C81 N78 1.328 . S
C81 C83 1.392 . S
C81 H88 0.930 . S
N82 C79 1.329 . S
N82 C83 1.331 . S
C83 C81 1.392 . S
C83 N82 1.331 . S
O84 Zn77 1.975 . S
O84 C85 1.252 . S
C85 O84 1.252 . S
C85 O86 1.252 . S
O86 Zn68 1.975 . S
O86 C85 1.252 . S
H87 C80 0.930 . S
H88 C81 0.930 . S
C89 C90 1.392 . S
C89 N93 1.328 . S
C89 H95 0.930 . S
C90 C89 1.392 . S
C90 N94 1.331 . S
C91 C92 1.391 . S
C91 N94 1.329 . S
C91 H101 0.930 . S
C92 C91 1.391 . S
C92 N93 1.334 . S
C92 H99 0.930 . S
N93 Zn77 2.119 . S
N93 C89 1.328 . S
N93 C92 1.334 . S
N94 C90 1.331 . S
N94 C91 1.329 . S
H95 C89 0.930 . S
C96 O76 1.257 . S
C96 O97 1.244 . S
O97 C96 1.244 . S
O98 C74 1.257 . S
O98 Zn77 2.019 . S
H99 C92 0.930 . S
H100 C79 0.930 . S
H101 C91 0.930 . S
Zn102 N106 2.020 . S
Zn102 O110 2.019 . S
Zn102 N112 2.119 . S
Zn102 O120 1.975 . S
C103 N104 1.334 . S
C103 N107 1.336 . S
N104 C103 1.334 . S
N104 C105 1.334 . S
C105 N104 1.334 . S
C105 N106 1.336 . S
N106 Zn102 2.020 . S
N106 C105 1.336 . S
N106 N107 1.354 . S
N107 C103 1.336 . S
N107 N106 1.354 . S
N107 Zn111 2.020 . S
C108 O109 1.244 . S
C108 O132 1.257 . S
O109 C108 1.244 . S
O110 Zn102 2.019 . S
O110 C130 1.257 . S
Zn111 N107 2.020 . S
Zn111 O118 1.975 . S
Zn111 N127 2.119 . S
Zn111 O132 2.019 . S
N112 Zn102 2.119 . S
N112 C114 1.334 . S
N112 C115 1.328 . S
C113 C114 1.391 . S
C113 N116 1.329 . S
C113 H134 0.930 . S
C114 N112 1.334 . S
C114 C113 1.391 . S
C114 H121 0.930 . S
C115 N112 1.328 . S
C115 C117 1.392 . S
C115 H122 0.930 . S
N116 C113 1.329 . S
N116 C117 1.331 . S
C117 C115 1.392 . S
C117 N116 1.331 . S
O118 Zn111 1.975 . S
O118 C119 1.252 . S
C119 O118 1.252 . S
C119 O120 1.252 . S
O120 Zn102 1.975 . S
O120 C119 1.252 . S
H121 C114 0.930 . S
H122 C115 0.930 . S
C123 C124 1.392 . S
C123 N127 1.328 . S
C123 H129 0.930 . S
C124 C123 1.392 . S
C124 N128 1.331 . S
C125 C126 1.391 . S
C125 N128 1.329 . S
C125 H135 0.930 . S
C126 C125 1.391 . S
C126 N127 1.334 . S
C126 H133 0.930 . S
N127 Zn111 2.119 . S
N127 C123 1.328 . S
N127 C126 1.334 . S
N128 C124 1.331 . S
N128 C125 1.329 . S
H129 C123 0.930 . S
C130 O110 1.257 . S
C130 O131 1.244 . S
O131 C130 1.244 . S
O132 C108 1.257 . S
O132 Zn111 2.019 . S
H133 C126 0.930 . S
H134 C113 0.930 . S
H135 C125 0.930 . S
Zn136 N140 2.020 . S
Zn136 O144 2.019 . S
Zn136 N146 2.119 . S
Zn136 O154 1.975 . S
C137 N138 1.334 . S
C137 N141 1.336 . S
N138 C137 1.334 . S
N138 C139 1.334 . S
C139 N138 1.334 . S
C139 N140 1.336 . S
N140 Zn136 2.020 . S
N140 C139 1.336 . S
N140 N141 1.354 . S
N141 C137 1.336 . S
N141 N140 1.354 . S
N141 Zn145 2.020 . S
C142 O143 1.244 . S
C142 O166 1.257 . S
O143 C142 1.244 . S
O144 Zn136 2.019 . S
O144 C164 1.257 . S
Zn145 N141 2.020 . S
Zn145 O152 1.975 . S
Zn145 N161 2.119 . S
Zn145 O166 2.019 . S
N146 Zn136 2.119 . S
N146 C148 1.334 . S
N146 C149 1.328 . S
C147 C148 1.391 . S
C147 N150 1.329 . S
C147 H168 0.930 . S
C148 N146 1.334 . S
C148 C147 1.391 . S
C148 H155 0.930 . S
C149 N146 1.328 . S
C149 C151 1.392 . S
C149 H156 0.930 . S
N150 C147 1.329 . S
N150 C151 1.331 . S
C151 C149 1.392 . S
C151 N150 1.331 . S
O152 Zn145 1.975 . S
O152 C153 1.252 . S
C153 O152 1.252 . S
C153 O154 1.252 . S
O154 Zn136 1.975 . S
O154 C153 1.252 . S
H155 C148 0.930 . S
H156 C149 0.930 . S
C157 C158 1.392 . S
C157 N161 1.328 . S
C157 H163 0.930 . S
C158 C157 1.392 . S
C158 N162 1.331 . S
C159 C160 1.391 . S
C159 N162 1.329 . S
C159 H169 0.930 . S
C160 C159 1.391 . S
C160 N161 1.334 . S
C160 H167 0.930 . S
N161 Zn145 2.119 . S
N161 C157 1.328 . S
N161 C160 1.334 . S
N162 C158 1.331 . S
N162 C159 1.329 . S
H163 C157 0.930 . S
C164 O144 1.257 . S
C164 O165 1.244 . S
O165 C164 1.244 . S
O166 C142 1.257 . S
O166 Zn145 2.019 . S
H167 C160 0.930 . S
H168 C147 0.930 . S
H169 C159 0.930 . S
Zn170 N174 2.020 . S
Zn170 O178 2.019 . S
Zn170 N180 2.119 . S
Zn170 O188 1.975 . S
C171 N172 1.334 . S
C171 N175 1.336 . S
N172 C171 1.334 . S
N172 C173 1.334 . S
C173 N172 1.334 . S
C173 N174 1.336 . S
N174 Zn170 2.020 . S
N174 C173 1.336 . S
N174 N175 1.354 . S
N175 C171 1.336 . S
N175 N174 1.354 . S
N175 Zn179 2.020 . S
C176 O177 1.244 . S
C176 O200 1.257 . S
O177 C176 1.244 . S
O178 Zn170 2.019 . S
O178 C198 1.257 . S
Zn179 N175 2.020 . S
Zn179 O186 1.975 . S
Zn179 N195 2.119 . S
Zn179 O200 2.019 . S
N180 Zn170 2.119 . S
N180 C182 1.334 . S
N180 C183 1.328 . S
C181 C182 1.391 . S
C181 N184 1.329 . S
C181 H202 0.930 . S
C182 N180 1.334 . S
C182 C181 1.391 . S
C182 H189 0.930 . S
C183 N180 1.328 . S
C183 C185 1.392 . S
C183 H190 0.930 . S
N184 C181 1.329 . S
N184 C185 1.331 . S
C185 C183 1.392 . S
C185 N184 1.331 . S
O186 Zn179 1.975 . S
O186 C187 1.252 . S
C187 O186 1.252 . S
C187 O188 1.252 . S
O188 Zn170 1.975 . S
O188 C187 1.252 . S
H189 C182 0.930 . S
H190 C183 0.930 . S
C191 C192 1.392 . S
C191 N195 1.328 . S
C191 H197 0.930 . S
C192 C191 1.392 . S
C192 N196 1.331 . S
C193 C194 1.391 . S
C193 N196 1.329 . S
C193 H203 0.930 . S
C194 C193 1.391 . S
C194 N195 1.334 . S
C194 H201 0.930 . S
N195 Zn179 2.119 . S
N195 C191 1.328 . S
N195 C194 1.334 . S
N196 C192 1.331 . S
N196 C193 1.329 . S
H197 C191 0.930 . S
C198 O178 1.257 . S
C198 O199 1.244 . S
O199 C198 1.244 . S
O200 C176 1.257 . S
O200 Zn179 2.019 . S
H201 C194 0.930 . S
H202 C181 0.930 . S
H203 C193 0.930 . S
Zn204 N208 2.020 . S
Zn204 O212 2.019 . S
Zn204 N214 2.119 . S
Zn204 O222 1.975 . S
C205 N206 1.334 . S
C205 N209 1.336 . S
N206 C205 1.334 . S
N206 C207 1.334 . S
C207 N206 1.334 . S
C207 N208 1.336 . S
N208 Zn204 2.020 . S
N208 C207 1.336 . S
N208 N209 1.354 . S
N209 C205 1.336 . S
N209 N208 1.354 . S
N209 Zn213 2.020 . S
C210 O211 1.244 . S
C210 O234 1.257 . S
O211 C210 1.244 . S
O212 Zn204 2.019 . S
O212 C232 1.257 . S
Zn213 N209 2.020 . S
Zn213 O220 1.975 . S
Zn213 N229 2.119 . S
Zn213 O234 2.019 1_545 S
N214 Zn204 2.119 . S
N214 C216 1.334 . S
N214 C217 1.328 . S
C215 C216 1.391 1_565 S
C215 N218 1.329 . S
C215 H236 0.930 . S
C216 N214 1.334 . S
C216 C215 1.391 1_545 S
C216 H223 0.930 1_545 S
C217 N214 1.328 . S
C217 C219 1.392 . S
C217 H224 0.930 . S
N218 C215 1.329 . S
N218 C219 1.331 1_565 S
C219 C217 1.392 . S
C219 N218 1.331 1_545 S
O220 Zn213 1.975 . S
O220 C221 1.252 . S
C221 O220 1.252 . S
C221 O222 1.252 . S
O222 Zn204 1.975 . S
O222 C221 1.252 . S
H223 C216 0.930 1_565 S
H224 C217 0.930 . S
C225 C226 1.392 . S
C225 N229 1.328 . S
C225 H231 0.930 . S
C226 C225 1.392 . S
C226 N230 1.331 . S
C227 C228 1.391 . S
C227 N230 1.329 . S
C227 H237 0.930 . S
C228 C227 1.391 . S
C228 N229 1.334 . S
C228 H235 0.930 . S
N229 Zn213 2.119 . S
N229 C225 1.328 . S
N229 C228 1.334 . S
N230 C226 1.331 . S
N230 C227 1.329 . S
H231 C225 0.930 . S
C232 O212 1.257 . S
C232 O233 1.244 . S
O233 C232 1.244 . S
O234 C210 1.257 . S
O234 Zn213 2.019 1_565 S
H235 C228 0.930 . S
H236 C215 0.930 . S
H237 C227 0.930 . S
Zn238 N242 2.020 . S
Zn238 O246 2.019 1_656 S
Zn238 N248 2.119 . S
Zn238 O256 1.975 . S
C239 N240 1.334 . S
C239 N243 1.336 . S
N240 C239 1.334 . S
N240 C241 1.334 . S
C241 N240 1.334 . S
C241 N242 1.336 . S
N242 Zn238 2.020 . S
N242 C241 1.336 . S
N242 N243 1.354 . S
N243 C239 1.336 . S
N243 N242 1.354 . S
N243 Zn247 2.020 . S
C244 O245 1.244 . S
C244 O268 1.257 . S
O245 C244 1.244 . S
O246 Zn238 2.019 1_454 S
O246 C266 1.259 . S
Zn247 N243 2.020 . S
Zn247 O254 1.975 . S
Zn247 N263 2.119 . S
Zn247 O268 2.019 . S
N248 Zn238 2.119 . S
N248 C250 1.334 . S
N248 C251 1.328 1_556 S
C249 C250 1.391 . S
C249 N252 1.329 1_556 S
C249 H270 0.930 . S
C250 N248 1.334 . S
C250 C249 1.391 . S
C250 H257 0.930 . S
C251 N248 1.328 1_554 S
C251 C253 1.392 . S
C251 H258 0.930 . S
N252 C249 1.329 1_554 S
N252 C253 1.331 . S
C253 C251 1.392 . S
C253 N252 1.331 . S
O254 Zn247 1.975 . S
O254 C255 1.252 . S
C255 O254 1.252 . S
C255 O256 1.252 . S
O256 Zn238 1.975 . S
O256 C255 1.252 . S
H257 C250 0.930 . S
H258 C251 0.930 . S
C259 C260 1.392 . S
C259 N263 1.328 . S
C259 H265 0.930 . S
C260 C259 1.392 . S
C260 N264 1.331 1_655 S
C261 C262 1.391 1_455 S
C261 N264 1.329 . S
C261 H271 0.930 . S
C262 C261 1.391 1_655 S
C262 N263 1.334 . S
C262 H269 0.930 1_655 S
N263 Zn247 2.119 . S
N263 C259 1.328 . S
N263 C262 1.334 . S
N264 C260 1.331 1_455 S
N264 C261 1.329 . S
H265 C259 0.930 . S
C266 O246 1.259 . S
C266 O267 1.236 1_554 S
O267 C266 1.236 1_556 S
O268 C244 1.257 . S
O268 Zn247 2.019 . S
H269 C262 0.930 1_455 S
H270 C249 0.930 . S
H271 C261 0.930 . S
Zn272 N276 2.020 . S
Zn272 O280 2.019 . S
Zn272 N282 2.119 . S
Zn272 O290 1.975 . S
C273 N274 1.334 . S
C273 N277 1.336 . S
N274 C273 1.334 . S
N274 C275 1.334 . S
C275 N274 1.334 . S
C275 N276 1.336 . S
N276 Zn272 2.020 . S
N276 C275 1.336 . S
N276 N277 1.354 . S
N277 C273 1.336 . S
N277 N276 1.354 . S
N277 Zn281 2.020 . S
C278 O279 1.244 . S
C278 O302 1.257 . S
O279 C278 1.244 . S
O280 Zn272 2.019 . S
O280 C300 1.257 . S
Zn281 N277 2.020 . S
Zn281 O288 1.975 . S
Zn281 N297 2.119 . S
Zn281 O302 2.019 . S
N282 Zn272 2.119 . S
N282 C284 1.334 . S
N282 C285 1.328 . S
C283 C284 1.391 . S
C283 N286 1.329 . S
C283 H304 0.930 . S
C284 N282 1.334 . S
C284 C283 1.391 . S
C284 H291 0.930 . S
C285 N282 1.328 . S
C285 C287 1.392 . S
C285 H292 0.930 . S
N286 C283 1.329 . S
N286 C287 1.331 . S
C287 C285 1.392 . S
C287 N286 1.331 . S
O288 Zn281 1.975 . S
O288 C289 1.252 . S
C289 O288 1.252 . S
C289 O290 1.252 . S
O290 Zn272 1.975 . S
O290 C289 1.252 . S
H291 C284 0.930 . S
H292 C285 0.930 . S
C293 C294 1.392 . S
C293 N297 1.328 . S
C293 H299 0.930 . S
C294 C293 1.392 . S
C294 N298 1.331 . S
C295 C296 1.391 . S
C295 N298 1.329 . S
C295 H305 0.930 . S
C296 C295 1.391 . S
C296 N297 1.334 . S
C296 H303 0.930 . S
N297 Zn281 2.119 . S
N297 C293 1.328 . S
N297 C296 1.334 . S
N298 C294 1.331 . S
N298 C295 1.329 . S
H299 C293 0.930 . S
C300 O280 1.257 . S
C300 O301 1.244 . S
O301 C300 1.244 . S
O302 C278 1.257 . S
O302 Zn281 2.019 . S
H303 C296 0.930 . S
H304 C283 0.930 . S
H305 C295 0.930 . S
Zn306 N310 2.020 . S
Zn306 O314 2.019 . S
Zn306 N316 2.119 . S
Zn306 O324 1.975 . S
C307 N308 1.334 . S
C307 N311 1.336 . S
N308 C307 1.334 . S
N308 C309 1.334 . S
C309 N308 1.334 . S
C309 N310 1.336 . S
N310 Zn306 2.020 . S
N310 C309 1.336 . S
N310 N311 1.354 . S
N311 C307 1.336 . S
N311 N310 1.354 . S
N311 Zn315 2.020 . S
C312 O313 1.244 . S
C312 O336 1.257 . S
O313 C312 1.244 . S
O314 Zn306 2.019 . S
O314 C334 1.257 . S
Zn315 N311 2.020 . S
Zn315 O322 1.975 . S
Zn315 N331 2.119 . S
Zn315 O336 2.019 . S
N316 Zn306 2.119 . S
N316 C318 1.334 . S
N316 C319 1.328 . S
C317 C318 1.391 . S
C317 N320 1.329 . S
C317 H338 0.930 . S
C318 N316 1.334 . S
C318 C317 1.391 . S
C318 H325 0.930 . S
C319 N316 1.328 . S
C319 C321 1.392 . S
C319 H326 0.930 . S
N320 C317 1.329 . S
N320 C321 1.331 . S
C321 C319 1.392 . S
C321 N320 1.331 . S
O322 Zn315 1.975 . S
O322 C323 1.252 . S
C323 O322 1.252 . S
C323 O324 1.252 . S
O324 Zn306 1.975 . S
O324 C323 1.252 . S
H325 C318 0.930 . S
H326 C319 0.930 . S
C327 C328 1.392 . S
C327 N331 1.328 . S
C327 H333 0.930 . S
C328 C327 1.392 . S
C328 N332 1.331 . S
C329 C330 1.391 . S
C329 N332 1.329 . S
C329 H339 0.930 . S
C330 C329 1.391 . S
C330 N331 1.334 . S
C330 H337 0.930 . S
N331 Zn315 2.119 . S
N331 C327 1.328 . S
N331 C330 1.334 . S
N332 C328 1.331 . S
N332 C329 1.329 . S
H333 C327 0.930 . S
C334 O314 1.257 . S
C334 O335 1.244 . S
O335 C334 1.244 . S
O336 C312 1.257 . S
O336 Zn315 2.019 . S
H337 C330 0.930 . S
H338 C317 0.930 . S
H339 C329 0.930 . S
Zn340 N344 2.020 . S
Zn340 O348 2.019 . S
Zn340 N350 2.119 . S
Zn340 O358 1.975 . S
C341 N342 1.334 . S
C341 N345 1.336 . S
N342 C341 1.334 . S
N342 C343 1.334 . S
C343 N342 1.334 . S
C343 N344 1.336 . S
N344 Zn340 2.020 . S
N344 C343 1.336 . S
N344 N345 1.354 . S
N345 C341 1.336 . S
N345 N344 1.354 . S
N345 Zn349 2.020 . S
C346 O347 1.236 1_556 S
C346 O370 1.259 . S
O347 C346 1.236 1_554 S
O348 Zn340 2.019 . S
O348 C368 1.257 . S
Zn349 N345 2.020 . S
Zn349 O356 1.975 . S
Zn349 N365 2.119 . S
Zn349 O370 2.019 1_564 S
N350 Zn340 2.119 . S
N350 C352 1.334 . S
N350 C353 1.328 . S
C351 C352 1.391 1_545 S
C351 N354 1.329 . S
C351 H372 0.930 . S
C352 N350 1.334 . S
C352 C351 1.391 1_565 S
C352 H359 0.930 1_565 S
C353 N350 1.328 . S
C353 C355 1.392 . S
C353 H360 0.930 . S
N354 C351 1.329 . S
N354 C355 1.331 1_545 S
C355 C353 1.392 . S
C355 N354 1.331 1_565 S
O356 Zn349 1.975 . S
O356 C357 1.252 . S
C357 O356 1.252 . S
C357 O358 1.252 . S
O358 Zn340 1.975 . S
O358 C357 1.252 . S
H359 C352 0.930 1_545 S
H360 C353 0.930 . S
C361 C362 1.392 . S
C361 N365 1.328 1_556 S
C361 H367 0.930 . S
C362 C361 1.392 . S
C362 N366 1.331 . S
C363 C364 1.391 . S
C363 N366 1.329 1_554 S
C363 H373 0.930 . S
C364 C363 1.391 . S
C364 N365 1.334 . S
C364 H371 0.930 . S
N365 Zn349 2.119 . S
N365 C361 1.328 1_554 S
N365 C364 1.334 . S
N366 C362 1.331 . S
N366 C363 1.329 1_556 S
H367 C361 0.930 . S
C368 O348 1.257 . S
C368 O369 1.244 . S
O369 C368 1.244 . S
O370 C346 1.259 . S
O370 Zn349 2.019 1_546 S
H371 C364 0.930 . S
H372 C351 0.930 . S
H373 C363 0.930 . S
Zn374 N378 2.020 . S
Zn374 O382 2.019 1_455 S
Zn374 N384 2.119 . S
Zn374 O392 1.975 . S
C375 N376 1.334 . S
C375 N379 1.336 . S
N376 C375 1.334 . S
N376 C377 1.334 . S
C377 N376 1.334 . S
C377 N378 1.336 . S
N378 Zn374 2.020 . S
N378 C377 1.336 . S
N378 N379 1.354 . S
N379 C375 1.336 . S
N379 N378 1.354 . S
N379 Zn383 2.020 . S
C380 O381 1.244 . S
C380 O404 1.257 . S
O381 C380 1.244 . S
O382 Zn374 2.019 1_655 S
O382 C402 1.257 . S
Zn383 N379 2.020 . S
Zn383 O390 1.975 . S
Zn383 N399 2.119 . S
Zn383 O404 2.019 . S
N384 Zn374 2.119 . S
N384 C386 1.334 . S
N384 C387 1.328 . S
C385 C386 1.391 . S
C385 N388 1.329 . S
C385 H406 0.930 . S
C386 N384 1.334 . S
C386 C385 1.391 . S
C386 H393 0.930 . S
C387 N384 1.328 . S
C387 C389 1.392 . S
C387 H394 0.930 . S
N388 C385 1.329 . S
N388 C389 1.331 . S
C389 C387 1.392 . S
C389 N388 1.331 . S
O390 Zn383 1.975 . S
O390 C391 1.252 . S
C391 O390 1.252 . S
C391 O392 1.252 . S
O392 Zn374 1.975 . S
O392 C391 1.252 . S
H393 C386 0.930 . S
H394 C387 0.930 . S
C395 C396 1.392 . S
C395 N399 1.328 . S
C395 H401 0.930 . S
C396 C395 1.392 . S
C396 N400 1.331 1_455 S
C397 C398 1.391 1_655 S
C397 N400 1.329 . S
C397 H407 0.930 . S
C398 C397 1.391 1_455 S
C398 N399 1.334 . S
C398 H405 0.930 1_455 S
N399 Zn383 2.119 . S
N399 C395 1.328 . S
N399 C398 1.334 . S
N400 C396 1.331 1_655 S
N400 C397 1.329 . S
H401 C395 0.930 . S
C402 O382 1.257 . S
C402 O403 1.244 . S
O403 C402 1.244 . S
O404 C380 1.257 . S
O404 Zn383 2.019 . S
H405 C398 0.930 1_655 S
H406 C385 0.930 . S
H407 C397 0.930 . S
Zn408 N412 2.020 . S
Zn408 O416 2.019 1_565 S
Zn408 N418 2.119 . S
Zn408 O426 1.975 . S
C409 N410 1.334 . S
C409 N413 1.336 . S
N410 C409 1.334 . S
N410 C411 1.334 . S
C411 N410 1.334 . S
C411 N412 1.336 . S
N412 Zn408 2.020 . S
N412 C411 1.336 . S
N412 N413 1.354 . S
N413 C409 1.336 . S
N413 N412 1.354 . S
N413 Zn417 2.020 . S
C414 O415 1.244 . S
C414 O438 1.257 . S
O415 C414 1.244 . S
O416 Zn408 2.019 1_545 S
O416 C436 1.257 . S
Zn417 N413 2.020 . S
Zn417 O424 1.975 . S
Zn417 N433 2.119 . S
Zn417 O438 2.019 . S
N418 Zn408 2.119 . S
N418 C420 1.334 . S
N418 C421 1.328 . S
C419 C420 1.391 . S
C419 N422 1.329 . S
C419 H440 0.930 . S
C420 N418 1.334 . S
C420 C419 1.391 . S
C420 H427 0.930 . S
C421 N418 1.328 . S
C421 C423 1.392 . S
C421 H428 0.930 . S
N422 C419 1.329 . S
N422 C423 1.331 . S
C423 C421 1.392 . S
C423 N422 1.331 . S
O424 Zn417 1.975 . S
O424 C425 1.252 . S
C425 O424 1.252 . S
C425 O426 1.252 . S
O426 Zn408 1.975 . S
O426 C425 1.252 . S
H427 C420 0.930 . S
H428 C421 0.930 . S
C429 C430 1.392 . S
C429 N433 1.328 . S
C429 H435 0.930 . S
C430 C429 1.392 . S
C430 N434 1.331 1_565 S
C431 C432 1.391 1_545 S
C431 N434 1.329 . S
C431 H441 0.930 . S
C432 C431 1.391 1_565 S
C432 N433 1.334 . S
C432 H439 0.930 1_565 S
N433 Zn417 2.119 . S
N433 C429 1.328 . S
N433 C432 1.334 . S
N434 C430 1.331 1_545 S
N434 C431 1.329 . S
H435 C429 0.930 . S
C436 O416 1.257 . S
C436 O437 1.244 . S
O437 C436 1.244 . S
O438 C414 1.257 . S
O438 Zn417 2.019 . S
H439 C432 0.930 1_545 S
H440 C419 0.930 . S
H441 C431 0.930 . S
Zn442 N446 2.020 . S
Zn442 O450 2.019 . S
Zn442 N452 2.119 . S
Zn442 O460 1.975 . S
C443 N444 1.334 . S
C443 N447 1.336 . S
N444 C443 1.334 . S
N444 C445 1.334 . S
C445 N444 1.334 . S
C445 N446 1.336 . S
N446 Zn442 2.020 . S
N446 C445 1.336 . S
N446 N447 1.354 . S
N447 C443 1.336 . S
N447 N446 1.354 . S
N447 Zn451 2.020 . S
C448 O449 1.236 1_554 S
C448 O472 1.259 . S
O449 C448 1.236 1_556 S
O450 Zn442 2.019 . S
O450 C470 1.257 . S
Zn451 N447 2.020 . S
Zn451 O458 1.975 . S
Zn451 N467 2.119 . S
Zn451 O472 2.019 1_456 S
N452 Zn442 2.119 . S
N452 C454 1.334 . S
N452 C455 1.328 . S
C453 C454 1.391 1_655 S
C453 N456 1.329 . S
C453 H474 0.930 . S
C454 N452 1.334 . S
C454 C453 1.391 1_455 S
C454 H461 0.930 1_455 S
C455 N452 1.328 . S
C455 C457 1.392 . S
C455 H462 0.930 . S
N456 C453 1.329 . S
N456 C457 1.331 1_655 S
C457 C455 1.392 . S
C457 N456 1.331 1_455 S
O458 Zn451 1.975 . S
O458 C459 1.252 . S
C459 O458 1.252 . S
C459 O460 1.252 . S
O460 Zn442 1.975 . S
O460 C459 1.252 . S
H461 C454 0.930 1_655 S
H462 C455 0.930 . S
C463 C464 1.392 . S
C463 N467 1.328 1_554 S
C463 H469 0.930 . S
C464 C463 1.392 . S
C464 N468 1.331 . S
C465 C466 1.391 . S
C465 N468 1.329 1_556 S
C465 H475 0.930 . S
C466 C465 1.391 . S
C466 N467 1.334 . S
C466 H473 0.930 . S
N467 Zn451 2.119 . S
N467 C463 1.328 1_556 S
N467 C466 1.334 . S
N468 C464 1.331 . S
N468 C465 1.329 1_554 S
H469 C463 0.930 . S
C470 O450 1.257 . S
C470 O471 1.244 . S
O471 C470 1.244 . S
O472 C448 1.259 . S
O472 Zn451 2.019 1_654 S
H473 C466 0.930 . S
H474 C453 0.930 . S
H475 C465 0.930 . S
Zn476 N480 2.020 . S
Zn476 O484 2.019 . S
Zn476 N486 2.119 . S
Zn476 O494 1.975 . S
C477 N478 1.334 . S
C477 N481 1.336 . S
N478 C477 1.334 . S
N478 C479 1.334 . S
C479 N478 1.334 . S
C479 N480 1.336 . S
N480 Zn476 2.020 . S
N480 C479 1.336 . S
N480 N481 1.354 . S
N481 C477 1.336 . S
N481 N480 1.354 . S
N481 Zn485 2.020 . S
C482 O483 1.244 . S
C482 O506 1.257 . S
O483 C482 1.244 . S
O484 Zn476 2.019 . S
O484 C504 1.257 . S
Zn485 N481 2.020 . S
Zn485 O492 1.975 . S
Zn485 N501 2.119 . S
Zn485 O506 2.019 . S
N486 Zn476 2.119 . S
N486 C488 1.334 . S
N486 C489 1.328 . S
C487 C488 1.391 . S
C487 N490 1.329 . S
C487 H508 0.930 . S
C488 N486 1.334 . S
C488 C487 1.391 . S
C488 H495 0.930 . S
C489 N486 1.328 . S
C489 C491 1.392 . S
C489 H496 0.930 . S
N490 C487 1.329 . S
N490 C491 1.331 . S
C491 C489 1.392 . S
C491 N490 1.331 . S
O492 Zn485 1.975 . S
O492 C493 1.252 . S
C493 O492 1.252 . S
C493 O494 1.252 . S
O494 Zn476 1.975 . S
O494 C493 1.252 . S
H495 C488 0.930 . S
H496 C489 0.930 . S
C497 C498 1.392 . S
C497 N501 1.328 . S
C497 H503 0.930 . S
C498 C497 1.392 . S
C498 N502 1.331 . S
C499 C500 1.391 . S
C499 N502 1.329 . S
C499 H509 0.930 . S
C500 C499 1.391 . S
C500 N501 1.334 . S
C500 H507 0.930 . S
N501 Zn485 2.119 . S
N501 C497 1.328 . S
N501 C500 1.334 . S
N502 C498 1.331 . S
N502 C499 1.329 . S
H503 C497 0.930 . S
C504 O484 1.257 . S
C504 O505 1.244 . S
O505 C504 1.244 . S
O506 C482 1.257 . S
O506 Zn485 2.019 . S
H507 C500 0.930 . S
H508 C487 0.930 . S
H509 C499 0.930 . S
Zn510 N514 2.020 . S
Zn510 O518 2.019 . S
Zn510 N520 2.119 . S
Zn510 O528 1.975 . S
C511 N512 1.334 . S
C511 N515 1.336 . S
N512 C511 1.334 . S
N512 C513 1.334 . S
C513 N512 1.334 . S
C513 N514 1.336 . S
N514 Zn510 2.020 . S
N514 C513 1.336 . S
N514 N515 1.354 . S
N515 C511 1.336 . S
N515 N514 1.354 . S
N515 Zn519 2.020 . S
C516 O517 1.244 . S
C516 O540 1.257 . S
O517 C516 1.244 . S
O518 Zn510 2.019 . S
O518 C538 1.257 . S
Zn519 N515 2.020 . S
Zn519 O526 1.975 . S
Zn519 N535 2.119 . S
Zn519 O540 2.019 . S
N520 Zn510 2.119 . S
N520 C522 1.334 . S
N520 C523 1.328 . S
C521 C522 1.391 . S
C521 N524 1.329 . S
C521 H542 0.930 . S
C522 N520 1.334 . S
C522 C521 1.391 . S
C522 H529 0.930 . S
C523 N520 1.328 . S
C523 C525 1.392 . S
C523 H530 0.930 . S
N524 C521 1.329 . S
N524 C525 1.331 . S
C525 C523 1.392 . S
C525 N524 1.331 . S
O526 Zn519 1.975 . S
O526 C527 1.252 . S
C527 O526 1.252 . S
C527 O528 1.252 . S
O528 Zn510 1.975 . S
O528 C527 1.252 . S
H529 C522 0.930 . S
H530 C523 0.930 . S
C531 C532 1.392 . S
C531 N535 1.328 . S
C531 H537 0.930 . S
C532 C531 1.392 . S
C532 N536 1.331 . S
C533 C534 1.391 . S
C533 N536 1.329 . S
C533 H543 0.930 . S
C534 C533 1.391 . S
C534 N535 1.334 . S
C534 H541 0.930 . S
N535 Zn519 2.119 . S
N535 C531 1.328 . S
N535 C534 1.334 . S
N536 C532 1.331 . S
N536 C533 1.329 . S
H537 C531 0.930 . S
C538 O518 1.257 . S
C538 O539 1.244 . S
O539 C538 1.244 . S
O540 C516 1.257 . S
O540 Zn519 2.019 . S
H541 C534 0.930 . S
H542 C521 0.930 . S
H543 C533 0.930 . S
H544 C550 0.930 . S
H545 C554 0.930 . S
H546 C559 0.913 1_556 S
H547 C557 0.913 1_554 S
H548 C552 0.929 . S
H549 C558 0.929 . S
C550 H544 0.930 . S
C550 C551 1.367 . S
C550 C558 1.378 . S
C551 C550 1.367 . S
C551 C559 1.463 . S
C552 H548 0.929 . S
C552 C554 1.378 . S
C552 C556 1.350 . S
C553 C556 1.463 1_554 S
C553 C558 1.350 . S
C553 N561 1.427 1_554 S
C554 H545 0.930 . S
C554 C552 1.378 . S
C554 C555 1.367 . S
C555 C554 1.367 . S
C555 C557 1.463 . S
C556 C552 1.350 . S
C556 C553 1.463 1_556 S
C556 N560 1.427 1_556 S
C557 H547 0.913 1_556 S
C557 C555 1.463 . S
C557 N560 1.372 1_556 S
C558 H549 0.929 . S
C558 C550 1.378 . S
C558 C553 1.350 . S
C559 H546 0.913 1_554 S
C559 C551 1.463 . S
C559 N561 1.372 1_554 S
N560 C556 1.427 1_554 S
N560 C557 1.372 1_554 S
N561 C553 1.427 1_556 S
N561 C559 1.372 1_556 S
H562 C568 0.930 . S
H563 C572 0.930 . S
H564 C577 0.929 . S
H565 C575 0.929 . S
H566 C570 0.929 . S
H567 C576 0.929 . S
C568 H562 0.930 . S
C568 C569 1.367 . S
C568 C576 1.378 . S
C569 C568 1.367 . S
C569 C577 1.433 . S
C570 H566 0.929 . S
C570 C572 1.378 . S
C570 C574 1.350 . S
C571 C574 1.463 . S
C571 C576 1.350 . S
C571 N579 1.427 . S
C572 H563 0.930 . S
C572 C570 1.378 . S
C572 C573 1.367 . S
C573 C572 1.367 . S
C573 C575 1.433 . S
C574 C570 1.350 . S
C574 C571 1.463 . S
C574 N578 1.427 . S
C575 H565 0.929 . S
C575 C573 1.433 . S
C575 N578 1.384 . S
C576 H567 0.929 . S
C576 C568 1.378 . S
C576 C571 1.350 . S
C577 H564 0.929 . S
C577 C569 1.433 . S
C577 N579 1.384 . S
N578 C574 1.427 . S
N578 C575 1.384 . S
N579 C571 1.427 . S
N579 C577 1.384 . S
H580 C586 0.930 . S
H581 C590 0.930 . S
H582 C595 0.929 . S
H583 C593 0.929 . S
H584 C588 0.929 . S
H585 C594 0.929 . S
C586 H580 0.930 . S
C586 C587 1.367 . S
C586 C594 1.378 . S
C587 C586 1.367 . S
C587 C595 1.433 . S
C588 H584 0.929 . S
C588 C590 1.378 . S
C588 C592 1.350 . S
C589 C592 1.463 . S
C589 C594 1.350 . S
C589 N597 1.427 . S
C590 H581 0.930 . S
C590 C588 1.378 . S
C590 C591 1.367 . S
C591 C590 1.367 . S
C591 C593 1.433 . S
C592 C588 1.350 . S
C592 C589 1.463 . S
C592 N596 1.427 . S
C593 H583 0.929 . S
C593 C591 1.433 . S
C593 N596 1.384 . S
C594 H585 0.929 . S
C594 C586 1.378 . S
C594 C589 1.350 . S
C595 H582 0.929 . S
C595 C587 1.433 . S
C595 N597 1.384 . S
N596 C592 1.427 . S
N596 C593 1.384 . S
N597 C589 1.427 . S
N597 C595 1.384 . S
H598 C604 0.930 . S
H599 C608 0.930 . S
H600 C613 0.929 . S
H601 C611 0.929 . S
H602 C606 0.929 . S
H603 C612 0.929 . S
C604 H598 0.930 . S
C604 C605 1.367 . S
C604 C612 1.378 . S
C605 C604 1.367 . S
C605 C613 1.433 . S
C606 H602 0.929 . S
C606 C608 1.378 . S
C606 C610 1.350 . S
C607 C610 1.463 . S
C607 C612 1.350 . S
C607 N615 1.427 . S
C608 H599 0.930 . S
C608 C606 1.378 . S
C608 C609 1.367 . S
C609 C608 1.367 . S
C609 C611 1.433 . S
C610 C606 1.350 . S
C610 C607 1.463 . S
C610 N614 1.427 . S
C611 H601 0.929 . S
C611 C609 1.433 . S
C611 N614 1.384 . S
C612 H603 0.929 . S
C612 C604 1.378 . S
C612 C607 1.350 . S
C613 H600 0.929 . S
C613 C605 1.433 . S
C613 N615 1.384 . S
N614 C610 1.427 . S
N614 C611 1.384 . S
N615 C607 1.427 . S
N615 C613 1.384 . S
H616 C622 0.930 . S
H617 C626 0.930 . S
H618 C631 0.929 . S
H619 C629 0.929 . S
H620 C624 0.929 . S
H621 C630 0.929 . S
C622 H616 0.930 . S
C622 C623 1.367 . S
C622 C630 1.378 . S
C623 C622 1.367 . S
C623 C631 1.433 . S
C624 H620 0.929 . S
C624 C626 1.378 . S
C624 C628 1.350 . S
C625 C628 1.463 . S
C625 C630 1.350 . S
C625 N633 1.427 . S
C626 H617 0.930 . S
C626 C624 1.378 . S
C626 C627 1.367 . S
C627 C626 1.367 . S
C627 C629 1.433 . S
C628 C624 1.350 . S
C628 C625 1.463 . S
C628 N632 1.427 . S
C629 H619 0.929 . S
C629 C627 1.433 . S
C629 N632 1.384 . S
C630 H621 0.929 . S
C630 C622 1.378 . S
C630 C625 1.350 . S
C631 H618 0.929 . S
C631 C623 1.433 . S
C631 N633 1.384 . S
N632 C628 1.427 . S
N632 C629 1.384 . S
N633 C625 1.427 . S
N633 C631 1.384 . S
H634 C640 0.930 . S
H635 C644 0.930 . S
H636 C649 0.929 . S
H637 C647 0.929 . S
H638 C642 0.929 . S
H639 C648 0.929 . S
C640 H634 0.930 . S
C640 C641 1.367 . S
C640 C648 1.378 . S
C641 C640 1.367 . S
C641 C649 1.433 . S
C642 H638 0.929 . S
C642 C644 1.378 . S
C642 C646 1.350 . S
C643 C646 1.463 . S
C643 C648 1.350 . S
C643 N651 1.427 . S
C644 H635 0.930 . S
C644 C642 1.378 . S
C644 C645 1.367 . S
C645 C644 1.367 . S
C645 C647 1.433 . S
C646 C642 1.350 . S
C646 C643 1.463 . S
C646 N650 1.427 . S
C647 H637 0.929 . S
C647 C645 1.433 . S
C647 N650 1.384 . S
C648 H639 0.929 . S
C648 C640 1.378 . S
C648 C643 1.350 . S
C649 H636 0.929 . S
C649 C641 1.433 . S
C649 N651 1.384 . S
N650 C646 1.427 . S
N650 C647 1.384 . S
N651 C643 1.427 . S
N651 C649 1.384 . S
H652 C658 0.930 . S
H653 C662 0.930 . S
H654 C667 0.929 . S
H655 C665 0.929 . S
H656 C660 0.929 . S
H657 C666 0.929 . S
C658 H652 0.930 . S
C658 C659 1.367 . S
C658 C666 1.378 1_554 S
C659 C658 1.367 . S
C659 C667 1.433 . S
C660 H656 0.929 . S
C660 C662 1.378 1_554 S
C660 C664 1.350 1_554 S
C661 C664 1.463 1_554 S
C661 C666 1.350 1_554 S
C661 N669 1.427 . S
C662 H653 0.930 . S
C662 C660 1.378 1_556 S
C662 C663 1.367 . S
C663 C662 1.367 . S
C663 C665 1.433 . S
C664 C660 1.350 1_556 S
C664 C661 1.463 1_556 S
C664 N668 1.427 . S
C665 H655 0.929 . S
C665 C663 1.433 . S
C665 N668 1.384 . S
C666 H657 0.929 . S
C666 C658 1.378 1_556 S
C666 C661 1.350 1_556 S
C667 H654 0.929 . S
C667 C659 1.433 . S
C667 N669 1.384 . S
N668 C664 1.427 . S
N668 C665 1.384 . S
N669 C661 1.427 . S
N669 C667 1.384 . S
H670 C676 0.930 . S
H671 C680 0.930 . S
H672 C685 0.929 . S
H673 C683 0.929 . S
H674 C678 0.929 . S
H675 C684 0.929 . S
C676 H670 0.930 . S
C676 C677 1.367 . S
C676 C684 1.378 . S
C677 C676 1.367 . S
C677 C685 1.433 . S
C678 H674 0.929 . S
C678 C680 1.378 . S
C678 C682 1.350 . S
C679 C682 1.463 . S
C679 C684 1.350 . S
C679 N687 1.427 . S
C680 H671 0.930 . S
C680 C678 1.378 . S
C680 C681 1.367 . S
C681 C680 1.367 . S
C681 C683 1.433 . S
C682 C678 1.350 . S
C682 C679 1.463 . S
C682 N686 1.427 . S
C683 H673 0.929 . S
C683 C681 1.433 . S
C683 N686 1.384 . S
C684 H675 0.929 . S
C684 C676 1.378 . S
C684 C679 1.350 . S
C685 H672 0.929 . S
C685 C677 1.433 . S
C685 N687 1.384 . S
N686 C682 1.427 . S
N686 C683 1.384 . S
N687 C679 1.427 . S
N687 C685 1.384 . S
H688 C694 0.930 . S
H689 C698 0.930 . S
H690 C703 0.929 . S
H691 C701 0.929 . S
H692 C696 0.929 . S
H693 C702 0.929 . S
C694 H688 0.930 . S
C694 C695 1.367 . S
C694 C702 1.378 . S
C695 C694 1.367 . S
C695 C703 1.433 . S
C696 H692 0.929 . S
C696 C698 1.378 . S
C696 C700 1.350 . S
C697 C700 1.463 . S
C697 C702 1.350 . S
C697 N705 1.427 . S
C698 H689 0.930 . S
C698 C696 1.378 . S
C698 C699 1.367 . S
C699 C698 1.367 . S
C699 C701 1.433 . S
C700 C696 1.350 . S
C700 C697 1.463 . S
C700 N704 1.427 . S
C701 H691 0.929 . S
C701 C699 1.433 . S
C701 N704 1.384 . S
C702 H693 0.929 . S
C702 C694 1.378 . S
C702 C697 1.350 . S
C703 H690 0.929 . S
C703 C695 1.433 . S
C703 N705 1.384 . S
N704 C700 1.427 . S
N704 C701 1.384 . S
N705 C697 1.427 . S
N705 C703 1.384 . S
H706 C712 0.930 . S
H707 C716 0.930 . S
H708 C721 0.929 . S
H709 C719 0.929 1_565 S
H710 C714 0.929 . S
H711 C720 0.929 . S
C712 H706 0.930 . S
C712 C713 1.367 . S
C712 C720 1.378 . S
C713 C712 1.367 . S
C713 C721 1.433 . S
C714 H710 0.929 . S
C714 C716 1.378 . S
C714 C718 1.350 . S
C715 C718 1.463 . S
C715 C720 1.350 . S
C715 N723 1.427 . S
C716 H707 0.930 . S
C716 C714 1.378 . S
C716 C717 1.367 . S
C717 C716 1.367 . S
C717 C719 1.433 . S
C718 C714 1.350 . S
C718 C715 1.463 . S
C718 N722 1.427 . S
C719 H709 0.929 1_545 S
C719 C717 1.433 . S
C719 N722 1.384 . S
C720 H711 0.929 . S
C720 C712 1.378 . S
C720 C715 1.350 . S
C721 H708 0.929 . S
C721 C713 1.433 . S
C721 N723 1.384 . S
N722 C718 1.427 . S
N722 C719 1.384 . S
N723 C715 1.427 . S
N723 C721 1.384 . S
H724 C730 0.930 . S
H725 C734 0.930 1_455 S
H726 C739 0.929 . S
H727 C737 0.929 . S
H728 C732 0.929 . S
H729 C738 0.929 . S
C730 H724 0.930 . S
C730 C731 1.367 . S
C730 C738 1.378 . S
C731 C730 1.367 . S
C731 C739 1.433 . S
C732 H728 0.929 . S
C732 C734 1.378 . S
C732 C736 1.350 . S
C733 C736 1.463 . S
C733 C738 1.350 . S
C733 N741 1.427 . S
C734 H725 0.930 1_655 S
C734 C732 1.378 . S
C734 C735 1.367 . S
C735 C734 1.367 . S
C735 C737 1.433 . S
C736 C732 1.350 . S
C736 C733 1.463 . S
C736 N740 1.427 . S
C737 H727 0.929 . S
C737 C735 1.433 . S
C737 N740 1.384 . S
C738 H729 0.929 . S
C738 C730 1.378 . S
C738 C733 1.350 . S
C739 H726 0.929 . S
C739 C731 1.433 . S
C739 N741 1.384 . S
N740 C736 1.427 . S
N740 C737 1.384 . S
N741 C733 1.427 . S
N741 C739 1.384 . S
H742 C748 0.930 . S
H743 C752 0.930 . S
H744 C757 0.929 . S
H745 C755 0.929 . S
H746 C750 0.929 . S
H747 C756 0.929 . S
C748 H742 0.930 . S
C748 C749 1.367 . S
C748 C756 1.378 . S
C749 C748 1.367 . S
C749 C757 1.433 . S
C750 H746 0.929 . S
C750 C752 1.378 . S
C750 C754 1.350 . S
C751 C754 1.463 . S
C751 C756 1.350 . S
C751 N759 1.427 . S
C752 H743 0.930 . S
C752 C750 1.378 . S
C752 C753 1.367 . S
C753 C752 1.367 . S
C753 C755 1.433 . S
C754 C750 1.350 . S
C754 C751 1.463 . S
C754 N758 1.427 . S
C755 H745 0.929 . S
C755 C753 1.433 . S
C755 N758 1.384 . S
C756 H747 0.929 . S
C756 C748 1.378 . S
C756 C751 1.350 . S
C757 H744 0.929 . S
C757 C749 1.433 . S
C757 N759 1.384 . S
N758 C754 1.427 . S
N758 C755 1.384 . S
N759 C751 1.427 . S
N759 C757 1.384 . S
H760 C766 0.930 . S
H761 C770 0.930 . S
H762 C775 0.929 . S
H763 C773 0.929 . S
H764 C768 0.929 . S
H765 C774 0.929 . S
C766 H760 0.930 . S
C766 C767 1.367 . S
C766 C774 1.378 . S
C767 C766 1.367 . S
C767 C775 1.433 . S
C768 H764 0.929 . S
C768 C770 1.378 . S
C768 C772 1.350 . S
C769 C772 1.463 . S
C769 C774 1.350 . S
C769 N777 1.427 . S
C770 H761 0.930 . S
C770 C768 1.378 . S
C770 C771 1.367 . S
C771 C770 1.367 . S
C771 C773 1.433 . S
C772 C768 1.350 . S
C772 C769 1.463 . S
C772 N776 1.427 . S
C773 H763 0.929 . S
C773 C771 1.433 . S
C773 N776 1.384 . S
C774 H765 0.929 . S
C774 C766 1.378 . S
C774 C769 1.350 . S
C775 H762 0.929 . S
C775 C767 1.433 . S
C775 N777 1.384 . S
N776 C772 1.427 . S
N776 C773 1.384 . S
N777 C769 1.427 . S
N777 C775 1.384 . S
H778 C784 0.930 . S
H779 C788 0.930 . S
H780 C793 0.929 . S
H781 C791 0.929 . S
H782 C786 0.929 . S
H783 C792 0.929 . S
C784 H778 0.930 . S
C784 C785 1.367 . S
C784 C792 1.378 . S
C785 C784 1.367 . S
C785 C793 1.433 . S
C786 H782 0.929 . S
C786 C788 1.378 . S
C786 C790 1.350 . S
C787 C790 1.463 . S
C787 C792 1.350 . S
C787 N795 1.427 . S
C788 H779 0.930 . S
C788 C786 1.378 . S
C788 C789 1.367 . S
C789 C788 1.367 . S
C789 C791 1.433 . S
C790 C786 1.350 . S
C790 C787 1.463 . S
C790 N794 1.427 . S
C791 H781 0.929 . S
C791 C789 1.433 . S
C791 N794 1.384 . S
C792 H783 0.929 . S
C792 C784 1.378 . S
C792 C787 1.350 . S
C793 H780 0.929 . S
C793 C785 1.433 . S
C793 N795 1.384 . S
N794 C790 1.427 . S
N794 C791 1.384 . S
N795 C787 1.427 . S
N795 C793 1.384 . S
H796 C802 0.930 . S
H797 C806 0.930 . S
H798 C811 0.929 . S
H799 C809 0.929 . S
H800 C804 0.929 . S
H801 C810 0.929 . S
C802 H796 0.930 . S
C802 C803 1.367 . S
C802 C810 1.378 . S
C803 C802 1.367 . S
C803 C811 1.433 . S
C804 H800 0.929 . S
C804 C806 1.378 . S
C804 C808 1.350 . S
C805 C808 1.463 . S
C805 C810 1.350 . S
C805 N813 1.427 . S
C806 H797 0.930 . S
C806 C804 1.378 . S
C806 C807 1.367 . S
C807 C806 1.367 . S
C807 C809 1.433 . S
C808 C804 1.350 . S
C808 C805 1.463 . S
C808 N812 1.427 . S
C809 H799 0.929 . S
C809 C807 1.433 . S
C809 N812 1.384 . S
C810 H801 0.929 . S
C810 C802 1.378 . S
C810 C805 1.350 . S
C811 H798 0.929 . S
C811 C803 1.433 . S
C811 N813 1.384 . S
N812 C808 1.427 . S
N812 C809 1.384 . S
N813 C805 1.427 . S
N813 C811 1.384 . S
H814 C820 0.930 . S
H815 C824 0.930 . S
H816 C829 0.929 . S
H817 C827 0.929 . S
H818 C822 0.929 . S
H819 C828 0.929 . S
C820 H814 0.930 . S
C820 C821 1.367 . S
C820 C828 1.378 . S
C821 C820 1.367 . S
C821 C829 1.433 . S
C822 H818 0.929 . S
C822 C824 1.378 . S
C822 C826 1.350 . S
C823 C826 1.463 . S
C823 C828 1.350 . S
C823 N831 1.427 . S
C824 H815 0.930 . S
C824 C822 1.378 . S
C824 C825 1.367 . S
C825 C824 1.367 . S
C825 C827 1.433 . S
C826 C822 1.350 . S
C826 C823 1.463 . S
C826 N830 1.427 . S
C827 H817 0.929 . S
C827 C825 1.433 . S
C827 N830 1.384 . S
C828 H819 0.929 . S
C828 C820 1.378 . S
C828 C823 1.350 . S
C829 H816 0.929 . S
C829 C821 1.433 . S
C829 N831 1.384 . S
N830 C826 1.427 . S
N830 C827 1.384 . S
N831 C823 1.427 . S
N831 C829 1.384 . S
H832 C838 0.915 1_655 S
H833 C842 0.930 . S
H834 C847 0.929 . S
H835 C845 0.929 . S
H836 C840 0.929 . S
H837 C846 0.929 . S
C838 H832 0.915 1_455 S
C838 C839 1.370 . S
C838 C846 1.391 . S
C839 C838 1.370 . S
C839 C847 1.433 . S
C840 H836 0.929 . S
C840 C842 1.378 . S
C840 C844 1.350 . S
C841 C844 1.463 . S
C841 C846 1.350 . S
C841 N849 1.427 . S
C842 H833 0.930 . S
C842 C840 1.378 . S
C842 C843 1.367 . S
C843 C842 1.367 . S
C843 C845 1.433 . S
C844 C840 1.350 . S
C844 C841 1.463 . S
C844 N848 1.427 . S
C845 H835 0.929 . S
C845 C843 1.433 . S
C845 N848 1.384 . S
C846 H837 0.929 . S
C846 C838 1.391 . S
C846 C841 1.350 . S
C847 H834 0.929 . S
C847 C839 1.433 . S
C847 N849 1.384 . S
N848 C844 1.427 . S
N848 C845 1.384 . S
N849 C841 1.427 . S
N849 C847 1.384 . S
H850 C856 0.930 . S
H851 C860 0.930 . S
H852 C865 0.929 . S
H853 C863 0.929 . S
H854 C858 0.929 . S
H855 C864 0.929 . S
C856 H850 0.930 . S
C856 C857 1.367 . S
C856 C864 1.378 . S
C857 C856 1.367 . S
C857 C865 1.433 . S
C858 H854 0.929 . S
C858 C860 1.378 . S
C858 C862 1.350 . S
C859 C862 1.463 . S
C859 C864 1.350 . S
C859 N867 1.427 . S
C860 H851 0.930 . S
C860 C858 1.378 . S
C860 C861 1.367 . S
C861 C860 1.367 . S
C861 C863 1.433 . S
C862 C858 1.350 . S
C862 C859 1.463 . S
C862 N866 1.427 . S
C863 H853 0.929 . S
C863 C861 1.433 . S
C863 N866 1.384 . S
C864 H855 0.929 . S
C864 C856 1.378 . S
C864 C859 1.350 . S
C865 H852 0.929 . S
C865 C857 1.433 . S
C865 N867 1.384 . S
N866 C862 1.427 . S
N866 C863 1.384 . S
N867 C859 1.427 . S
N867 C865 1.384 . S
H868 C874 0.930 . S
H869 C878 0.930 . S
H870 C883 0.929 . S
H871 C881 0.929 . S
H872 C876 0.929 . S
H873 C882 0.929 . S
C874 H868 0.930 . S
C874 C875 1.367 . S
C874 C882 1.378 . S
C875 C874 1.367 . S
C875 C883 1.433 . S
C876 H872 0.929 . S
C876 C878 1.378 . S
C876 C880 1.350 . S
C877 C880 1.463 . S
C877 C882 1.350 . S
C877 N885 1.427 . S
C878 H869 0.930 . S
C878 C876 1.378 . S
C878 C879 1.367 . S
C879 C878 1.367 . S
C879 C881 1.433 . S
C880 C876 1.350 . S
C880 C877 1.463 . S
C880 N884 1.427 . S
C881 H871 0.929 . S
C881 C879 1.433 . S
C881 N884 1.384 . S
C882 H873 0.929 . S
C882 C874 1.378 . S
C882 C877 1.350 . S
C883 H870 0.929 . S
C883 C875 1.433 . S
C883 N885 1.384 . S
N884 C880 1.427 . S
N884 C881 1.384 . S
N885 C877 1.427 . S
N885 C883 1.384 . S
H886 C892 0.930 . S
H887 C896 0.930 1_545 S
H888 C901 0.929 . S
H889 C899 0.929 . S
H890 C894 0.929 . S
H891 C900 0.929 . S
C892 H886 0.930 . S
C892 C893 1.367 . S
C892 C900 1.378 . S
C893 C892 1.367 . S
C893 C901 1.433 . S
C894 H890 0.929 . S
C894 C896 1.378 . S
C894 C898 1.350 . S
C895 C898 1.463 . S
C895 C900 1.350 . S
C895 N903 1.427 . S
C896 H887 0.930 1_565 S
C896 C894 1.378 . S
C896 C897 1.367 . S
C897 C896 1.367 . S
C897 C899 1.433 . S
C898 C894 1.350 . S
C898 C895 1.463 . S
C898 N902 1.427 . S
C899 H889 0.929 . S
C899 C897 1.433 . S
C899 N902 1.384 . S
C900 H891 0.929 . S
C900 C892 1.378 . S
C900 C895 1.350 . S
C901 H888 0.929 . S
C901 C893 1.433 . S
C901 N903 1.384 . S
N902 C898 1.427 . S
N902 C899 1.384 . S
N903 C895 1.427 . S
N903 C901 1.384 . S
H904 C910 0.930 . S
H905 C914 0.930 . S
H906 C919 0.929 . S
H907 C917 0.929 1_655 S
H908 C912 0.929 . S
H909 C918 0.929 . S
C910 H904 0.930 . S
C910 C911 1.367 . S
C910 C918 1.378 . S
C911 C910 1.367 . S
C911 C919 1.433 . S
C912 H908 0.929 . S
C912 C914 1.378 . S
C912 C916 1.350 . S
C913 C916 1.463 . S
C913 C918 1.350 . S
C913 N921 1.427 . S
C914 H905 0.930 . S
C914 C912 1.378 . S
C914 C915 1.367 . S
C915 C914 1.367 . S
C915 C917 1.433 . S
C916 C912 1.350 . S
C916 C913 1.463 . S
C916 N920 1.427 . S
C917 H907 0.929 1_455 S
C917 C915 1.433 . S
C917 N920 1.384 . S
C918 H909 0.929 . S
C918 C910 1.378 . S
C918 C913 1.350 . S
C919 H906 0.929 . S
C919 C911 1.433 . S
C919 N921 1.384 . S
N920 C916 1.427 . S
N920 C917 1.384 . S
N921 C913 1.427 . S
N921 C919 1.384 . S
H922 C928 0.930 . S
H923 C932 0.930 . S
H924 C937 0.929 . S
H925 C935 0.929 . S
H926 C930 0.929 . S
H927 C936 0.929 . S
C928 H922 0.930 . S
C928 C929 1.367 . S
C928 C936 1.378 . S
C929 C928 1.367 . S
C929 C937 1.433 . S
C930 H926 0.929 . S
C930 C932 1.378 . S
C930 C934 1.350 . S
C931 C934 1.463 . S
C931 C936 1.350 . S
C931 N939 1.427 . S
C932 H923 0.930 . S
C932 C930 1.378 . S
C932 C933 1.367 . S
C933 C932 1.367 . S
C933 C935 1.433 . S
C934 C930 1.350 . S
C934 C931 1.463 . S
C934 N938 1.427 . S
C935 H925 0.929 . S
C935 C933 1.433 . S
C935 N938 1.384 . S
C936 H927 0.929 . S
C936 C928 1.378 . S
C936 C931 1.350 . S
C937 H924 0.929 . S
C937 C929 1.433 . S
C937 N939 1.384 . S
N938 C934 1.427 . S
N938 C935 1.384 . S
N939 C931 1.427 . S
N939 C937 1.384 . S
H940 C946 0.930 . S
H941 C950 0.930 . S
H942 C955 0.929 . S
H943 C953 0.929 . S
H944 C948 0.929 . S
H945 C954 0.929 . S
C946 H940 0.930 . S
C946 C947 1.367 . S
C946 C954 1.378 . S
C947 C946 1.367 . S
C947 C955 1.433 . S
C948 H944 0.929 . S
C948 C950 1.378 . S
C948 C952 1.350 . S
C949 C952 1.463 . S
C949 C954 1.350 . S
C949 N957 1.427 . S
C950 H941 0.930 . S
C950 C948 1.378 . S
C950 C951 1.367 . S
C951 C950 1.367 . S
C951 C953 1.433 . S
C952 C948 1.350 . S
C952 C949 1.463 . S
C952 N956 1.427 . S
C953 H943 0.929 . S
C953 C951 1.433 . S
C953 N956 1.384 . S
C954 H945 0.929 . S
C954 C946 1.378 . S
C954 C949 1.350 . S
C955 H942 0.929 . S
C955 C947 1.433 . S
C955 N957 1.384 . S
N956 C952 1.427 . S
N956 C953 1.384 . S
N957 C949 1.427 . S
N957 C955 1.384 . S
H958 C964 0.930 . S
H959 C968 0.930 . S
H960 C973 0.929 . S
H961 C971 0.929 1_545 S
H962 C966 0.929 . S
H963 C972 0.929 . S
C964 H958 0.930 . S
C964 C965 1.367 . S
C964 C972 1.378 . S
C965 C964 1.367 . S
C965 C973 1.433 . S
C966 H962 0.929 . S
C966 C968 1.378 . S
C966 C970 1.350 . S
C967 C970 1.463 . S
C967 C972 1.350 . S
C967 N975 1.427 . S
C968 H959 0.930 . S
C968 C966 1.378 . S
C968 C969 1.367 . S
C969 C968 1.367 . S
C969 C971 1.433 . S
C970 C966 1.350 . S
C970 C967 1.463 . S
C970 N974 1.427 . S
C971 H961 0.929 1_565 S
C971 C969 1.433 . S
C971 N974 1.384 . S
C972 H963 0.929 . S
C972 C964 1.378 . S
C972 C967 1.350 . S
C973 H960 0.929 . S
C973 C965 1.433 . S
C973 N975 1.384 . S
N974 C970 1.427 . S
N974 C971 1.384 . S
N975 C967 1.427 . S
N975 C973 1.384 . S
H976 C982 0.930 . S
H977 C986 0.930 . S
H978 C991 0.929 . S
H979 C989 0.929 . S
H980 C984 0.929 . S
H981 C990 0.929 . S
C982 H976 0.930 . S
C982 C983 1.367 . S
C982 C990 1.378 . S
C983 C982 1.367 . S
C983 C991 1.433 . S
C984 H980 0.929 . S
C984 C986 1.378 . S
C984 C988 1.350 . S
C985 C988 1.463 . S
C985 C990 1.350 . S
C985 N993 1.427 . S
C986 H977 0.930 . S
C986 C984 1.378 . S
C986 C987 1.367 . S
C987 C986 1.367 . S
C987 C989 1.433 . S
C988 C984 1.350 . S
C988 C985 1.463 . S
C988 N992 1.427 . S
C989 H979 0.929 . S
C989 C987 1.433 . S
C989 N992 1.384 . S
C990 H981 0.929 . S
C990 C982 1.378 . S
C990 C985 1.350 . S
C991 H978 0.929 . S
C991 C983 1.433 . S
C991 N993 1.384 . S
N992 C988 1.427 . S
N992 C989 1.384 . S
N993 C985 1.427 . S
N993 C991 1.384 . S
H994 C1000 0.930 . S
H995 C1004 0.930 . S
H996 C1009 0.929 . S
H997 C1007 0.929 . S
H998 C1002 0.929 . S
H999 C1008 0.929 . S
C1000 H994 0.930 . S
C1000 C1001 1.367 . S
C1000 C1008 1.378 . S
C1001 C1000 1.367 . S
C1001 C1009 1.433 . S
C1002 H998 0.929 . S
C1002 C1004 1.378 . S
C1002 C1006 1.350 . S
C1003 C1006 1.463 . S
C1003 C1008 1.350 . S
C1003 N1011 1.427 . S
C1004 H995 0.930 . S
C1004 C1002 1.378 . S
C1004 C1005 1.367 . S
C1005 C1004 1.367 . S
C1005 C1007 1.433 . S
C1006 C1002 1.350 . S
C1006 C1003 1.463 . S
C1006 N1010 1.427 . S
C1007 H997 0.929 . S
C1007 C1005 1.433 . S
C1007 N1010 1.384 . S
C1008 H999 0.929 . S
C1008 C1000 1.378 . S
C1008 C1003 1.350 . S
C1009 H996 0.929 . S
C1009 C1001 1.433 . S
C1009 N1011 1.384 . S
N1010 C1006 1.427 . S
N1010 C1007 1.384 . S
N1011 C1003 1.427 . S
N1011 C1009 1.384 . S
H1012 C1018 0.930 . S
H1013 C1022 0.930 . S
H1014 C1027 0.929 . S
H1015 C1025 0.929 . S
H1016 C1020 0.929 . S
H1017 C1026 0.929 . S
C1018 H1012 0.930 . S
C1018 C1019 1.367 . S
C1018 C1026 1.378 . S
C1019 C1018 1.367 . S
C1019 C1027 1.433 . S
C1020 H1016 0.929 . S
C1020 C1022 1.378 . S
C1020 C1024 1.350 . S
C1021 C1024 1.463 . S
C1021 C1026 1.350 . S
C1021 N1029 1.427 . S
C1022 H1013 0.930 . S
C1022 C1020 1.378 . S
C1022 C1023 1.367 . S
C1023 C1022 1.367 . S
C1023 C1025 1.433 . S
C1024 C1020 1.350 . S
C1024 C1021 1.463 . S
C1024 N1028 1.427 . S
C1025 H1015 0.929 . S
C1025 C1023 1.433 . S
C1025 N1028 1.384 . S
C1026 H1017 0.929 . S
C1026 C1018 1.378 . S
C1026 C1021 1.350 . S
C1027 H1014 0.929 . S
C1027 C1019 1.433 . S
C1027 N1029 1.384 . S
N1028 C1024 1.427 . S
N1028 C1025 1.384 . S
N1029 C1021 1.427 . S
N1029 C1027 1.384 . S
H1030 C1036 0.930 . S
H1031 C1040 0.930 . S
H1032 C1045 0.929 . S
H1033 C1043 0.929 . S
H1034 C1038 0.929 . S
H1035 C1044 0.929 . S
C1036 H1030 0.930 . S
C1036 C1037 1.367 . S
C1036 C1044 1.378 . S
C1037 C1036 1.367 . S
C1037 C1045 1.433 . S
C1038 H1034 0.929 . S
C1038 C1040 1.378 . S
C1038 C1042 1.350 . S
C1039 C1042 1.463 . S
C1039 C1044 1.350 . S
C1039 N1047 1.427 . S
C1040 H1031 0.930 . S
C1040 C1038 1.378 . S
C1040 C1041 1.367 . S
C1041 C1040 1.367 . S
C1041 C1043 1.433 . S
C1042 C1038 1.350 . S
C1042 C1039 1.463 . S
C1042 N1046 1.427 . S
C1043 H1033 0.929 . S
C1043 C1041 1.433 . S
C1043 N1046 1.384 . S
C1044 H1035 0.929 . S
C1044 C1036 1.378 . S
C1044 C1039 1.350 . S
C1045 H1032 0.929 . S
C1045 C1037 1.433 . S
C1045 N1047 1.384 . S
N1046 C1042 1.427 . S
N1046 C1043 1.384 . S
N1047 C1039 1.427 . S
N1047 C1045 1.384 . S
H1048 C1054 0.930 . S
H1049 C1058 0.930 . S
H1050 C1063 0.929 . S
H1051 C1061 0.929 . S
H1052 C1056 0.929 . S
H1053 C1062 0.929 . S
C1054 H1048 0.930 . S
C1054 C1055 1.367 . S
C1054 C1062 1.378 . S
C1055 C1054 1.367 . S
C1055 C1063 1.433 . S
C1056 H1052 0.929 . S
C1056 C1058 1.378 . S
C1056 C1060 1.350 . S
C1057 C1060 1.463 . S
C1057 C1062 1.350 . S
C1057 N1065 1.427 . S
C1058 H1049 0.930 . S
C1058 C1056 1.378 . S
C1058 C1059 1.367 . S
C1059 C1058 1.367 . S
C1059 C1061 1.433 . S
C1060 C1056 1.350 . S
C1060 C1057 1.463 . S
C1060 N1064 1.427 . S
C1061 H1051 0.929 . S
C1061 C1059 1.433 . S
C1061 N1064 1.384 . S
C1062 H1053 0.929 . S
C1062 C1054 1.378 . S
C1062 C1057 1.350 . S
C1063 H1050 0.929 . S
C1063 C1055 1.433 . S
C1063 N1065 1.384 . S
N1064 C1060 1.427 . S
N1064 C1061 1.384 . S
N1065 C1057 1.427 . S
N1065 C1063 1.384 . S
H1066 C1072 0.930 . S
H1067 C1076 0.930 . S
H1068 C1081 0.929 . S
H1069 C1079 0.929 . S
H1070 C1074 0.929 . S
H1071 C1080 0.929 . S
C1072 H1066 0.930 . S
C1072 C1073 1.367 . S
C1072 C1080 1.378 . S
C1073 C1072 1.367 . S
C1073 C1081 1.433 . S
C1074 H1070 0.929 . S
C1074 C1076 1.378 . S
C1074 C1078 1.350 . S
C1075 C1078 1.463 . S
C1075 C1080 1.350 . S
C1075 N1083 1.427 . S
C1076 H1067 0.930 . S
C1076 C1074 1.378 . S
C1076 C1077 1.367 . S
C1077 C1076 1.367 . S
C1077 C1079 1.433 . S
C1078 C1074 1.350 . S
C1078 C1075 1.463 . S
C1078 N1082 1.427 . S
C1079 H1069 0.929 . S
C1079 C1077 1.433 . S
C1079 N1082 1.384 . S
C1080 H1071 0.929 . S
C1080 C1072 1.378 . S
C1080 C1075 1.350 . S
C1081 H1068 0.929 . S
C1081 C1073 1.433 . S
C1081 N1083 1.384 . S
N1082 C1078 1.427 . S
N1082 C1079 1.384 . S
N1083 C1075 1.427 . S
N1083 C1081 1.384 . S
H1084 C1090 0.930 . S
H1085 C1094 0.930 . S
H1086 C1099 0.929 . S
H1087 C1097 0.929 . S
H1088 C1092 0.929 . S
H1089 C1098 0.929 . S
C1090 H1084 0.930 . S
C1090 C1091 1.367 . S
C1090 C1098 1.378 . S
C1091 C1090 1.367 . S
C1091 C1099 1.433 . S
C1092 H1088 0.929 . S
C1092 C1094 1.378 . S
C1092 C1096 1.350 . S
C1093 C1096 1.463 . S
C1093 C1098 1.350 . S
C1093 N1101 1.427 . S
C1094 H1085 0.930 . S
C1094 C1092 1.378 . S
C1094 C1095 1.367 . S
C1095 C1094 1.367 . S
C1095 C1097 1.433 . S
C1096 C1092 1.350 . S
C1096 C1093 1.463 . S
C1096 N1100 1.427 . S
C1097 H1087 0.929 . S
C1097 C1095 1.433 . S
C1097 N1100 1.384 . S
C1098 H1089 0.929 . S
C1098 C1090 1.378 . S
C1098 C1093 1.350 . S
C1099 H1086 0.929 . S
C1099 C1091 1.433 . S
C1099 N1101 1.384 . S
N1100 C1096 1.427 . S
N1100 C1097 1.384 . S
N1101 C1093 1.427 . S
N1101 C1099 1.384 . S
H1102 C1108 0.930 . S
H1103 C1112 0.930 . S
H1104 C1117 0.929 . S
H1105 C1115 0.929 . S
H1106 C1110 0.929 . S
H1107 C1116 0.929 . S
C1108 H1102 0.930 . S
C1108 C1109 1.367 . S
C1108 C1116 1.378 . S
C1109 C1108 1.367 . S
C1109 C1117 1.433 . S
C1110 H1106 0.929 . S
C1110 C1112 1.378 . S
C1110 C1114 1.350 . S
C1111 C1114 1.463 . S
C1111 C1116 1.350 . S
C1111 N1119 1.427 . S
C1112 H1103 0.930 . S
C1112 C1110 1.378 . S
C1112 C1113 1.367 . S
C1113 C1112 1.367 . S
C1113 C1115 1.433 . S
C1114 C1110 1.350 . S
C1114 C1111 1.463 . S
C1114 N1118 1.427 . S
C1115 H1105 0.929 . S
C1115 C1113 1.433 . S
C1115 N1118 1.384 . S
C1116 H1107 0.929 . S
C1116 C1108 1.378 . S
C1116 C1111 1.350 . S
C1117 H1104 0.929 . S
C1117 C1109 1.433 . S
C1117 N1119 1.384 . S
N1118 C1114 1.427 . S
N1118 C1115 1.384 . S
N1119 C1111 1.427 . S
N1119 C1117 1.384 . S
H1120 C1126 0.930 . S
H1121 C1130 0.930 . S
H1122 C1135 0.929 . S
H1123 C1133 0.929 . S
H1124 C1128 0.929 . S
H1125 C1134 0.929 . S
C1126 H1120 0.930 . S
C1126 C1127 1.367 . S
C1126 C1134 1.378 . S
C1127 C1126 1.367 . S
C1127 C1135 1.433 . S
C1128 H1124 0.929 . S
C1128 C1130 1.378 . S
C1128 C1132 1.350 . S
C1129 C1132 1.463 . S
C1129 C1134 1.350 . S
C1129 N1137 1.427 . S
C1130 H1121 0.930 . S
C1130 C1128 1.378 . S
C1130 C1131 1.367 . S
C1131 C1130 1.367 . S
C1131 C1133 1.433 . S
C1132 C1128 1.350 . S
C1132 C1129 1.463 . S
C1132 N1136 1.427 . S
C1133 H1123 0.929 . S
C1133 C1131 1.433 . S
C1133 N1136 1.384 . S
C1134 H1125 0.929 . S
C1134 C1126 1.378 . S
C1134 C1129 1.350 . S
C1135 H1122 0.929 . S
C1135 C1127 1.433 . S
C1135 N1137 1.384 . S
N1136 C1132 1.427 . S
N1136 C1133 1.384 . S
N1137 C1129 1.427 . S
N1137 C1135 1.384 . S
H1138 C1144 0.930 . S
H1139 C1148 0.930 . S
H1140 C1153 0.929 . S
H1141 C1151 0.929 . S
H1142 C1146 0.929 . S
H1143 C1152 0.929 . S
C1144 H1138 0.930 . S
C1144 C1145 1.367 . S
C1144 C1152 1.378 . S
C1145 C1144 1.367 . S
C1145 C1153 1.433 . S
C1146 H1142 0.929 . S
C1146 C1148 1.378 . S
C1146 C1150 1.350 . S
C1147 C1150 1.463 . S
C1147 C1152 1.350 . S
C1147 N1155 1.427 . S
C1148 H1139 0.930 . S
C1148 C1146 1.378 . S
C1148 C1149 1.367 . S
C1149 C1148 1.367 . S
C1149 C1151 1.433 . S
C1150 C1146 1.350 . S
C1150 C1147 1.463 . S
C1150 N1154 1.427 . S
C1151 H1141 0.929 . S
C1151 C1149 1.433 . S
C1151 N1154 1.384 . S
C1152 H1143 0.929 . S
C1152 C1144 1.378 . S
C1152 C1147 1.350 . S
C1153 H1140 0.929 . S
C1153 C1145 1.433 . S
C1153 N1155 1.384 . S
N1154 C1150 1.427 . S
N1154 C1151 1.384 . S
N1155 C1147 1.427 . S
N1155 C1153 1.384 . S
H1156 C1162 0.930 . S
H1157 C1166 0.930 . S
H1158 C1171 0.929 . S
H1159 C1169 0.929 . S
H1160 C1164 0.929 . S
H1161 C1170 0.929 . S
C1162 H1156 0.930 . S
C1162 C1163 1.367 . S
C1162 C1170 1.378 . S
C1163 C1162 1.367 . S
C1163 C1171 1.433 . S
C1164 H1160 0.929 . S
C1164 C1166 1.378 . S
C1164 C1168 1.350 . S
C1165 C1168 1.463 . S
C1165 C1170 1.350 . S
C1165 N1173 1.427 . S
C1166 H1157 0.930 . S
C1166 C1164 1.378 . S
C1166 C1167 1.367 . S
C1167 C1166 1.367 . S
C1167 C1169 1.433 . S
C1168 C1164 1.350 . S
C1168 C1165 1.463 . S
C1168 N1172 1.427 . S
C1169 H1159 0.929 . S
C1169 C1167 1.433 . S
C1169 N1172 1.384 . S
C1170 H1161 0.929 . S
C1170 C1162 1.378 . S
C1170 C1165 1.350 . S
C1171 H1158 0.929 . S
C1171 C1163 1.433 . S
C1171 N1173 1.384 . S
N1172 C1168 1.427 . S
N1172 C1169 1.384 . S
N1173 C1165 1.427 . S
N1173 C1171 1.384 . S
H1174 C1180 0.930 . S
H1175 C1184 0.930 . S
H1176 C1189 0.929 . S
H1177 C1187 0.929 . S
H1178 C1182 0.929 . S
H1179 C1188 0.929 . S
C1180 H1174 0.930 . S
C1180 C1181 1.367 . S
C1180 C1188 1.378 . S
C1181 C1180 1.367 . S
C1181 C1189 1.433 . S
C1182 H1178 0.929 . S
C1182 C1184 1.378 . S
C1182 C1186 1.350 . S
C1183 C1186 1.463 . S
C1183 C1188 1.350 . S
C1183 N1191 1.427 . S
C1184 H1175 0.930 . S
C1184 C1182 1.378 . S
C1184 C1185 1.367 . S
C1185 C1184 1.367 . S
C1185 C1187 1.433 . S
C1186 C1182 1.350 . S
C1186 C1183 1.463 . S
C1186 N1190 1.427 . S
C1187 H1177 0.929 . S
C1187 C1185 1.433 . S
C1187 N1190 1.384 . S
C1188 H1179 0.929 . S
C1188 C1180 1.378 . S
C1188 C1183 1.350 . S
C1189 H1176 0.929 . S
C1189 C1181 1.433 . S
C1189 N1191 1.384 . S
N1190 C1186 1.427 . S
N1190 C1187 1.384 . S
N1191 C1183 1.427 . S
N1191 C1189 1.384 . S
H1192 C1198 0.930 . S
H1193 C1202 0.930 . S
H1194 C1207 0.929 . S
H1195 C1205 0.929 . S
H1196 C1200 0.929 . S
H1197 C1206 0.929 . S
C1198 H1192 0.930 . S
C1198 C1199 1.367 . S
C1198 C1206 1.378 . S
C1199 C1198 1.367 . S
C1199 C1207 1.433 . S
C1200 H1196 0.929 . S
C1200 C1202 1.378 . S
C1200 C1204 1.350 . S
C1201 C1204 1.463 . S
C1201 C1206 1.350 . S
C1201 N1209 1.427 . S
C1202 H1193 0.930 . S
C1202 C1200 1.378 . S
C1202 C1203 1.367 . S
C1203 C1202 1.367 . S
C1203 C1205 1.433 . S
C1204 C1200 1.350 . S
C1204 C1201 1.463 . S
C1204 N1208 1.427 . S
C1205 H1195 0.929 . S
C1205 C1203 1.433 . S
C1205 N1208 1.384 . S
C1206 H1197 0.929 . S
C1206 C1198 1.378 . S
C1206 C1201 1.350 . S
C1207 H1194 0.929 . S
C1207 C1199 1.433 . S
C1207 N1209 1.384 . S
N1208 C1204 1.427 . S
N1208 C1205 1.384 . S
N1209 C1201 1.427 . S
N1209 C1207 1.384 . S
H1210 C1216 0.930 . S
H1211 C1220 0.930 . S
H1212 C1225 0.929 . S
H1213 C1223 0.929 . S
H1214 C1218 0.929 . S
H1215 C1224 0.929 . S
C1216 H1210 0.930 . S
C1216 C1217 1.367 . S
C1216 C1224 1.378 . S
C1217 C1216 1.367 . S
C1217 C1225 1.433 . S
C1218 H1214 0.929 . S
C1218 C1220 1.378 . S
C1218 C1222 1.350 . S
C1219 C1222 1.463 . S
C1219 C1224 1.350 . S
C1219 N1227 1.427 . S
C1220 H1211 0.930 . S
C1220 C1218 1.378 . S
C1220 C1221 1.367 . S
C1221 C1220 1.367 . S
C1221 C1223 1.433 . S
C1222 C1218 1.350 . S
C1222 C1219 1.463 . S
C1222 N1226 1.427 . S
C1223 H1213 0.929 . S
C1223 C1221 1.433 . S
C1223 N1226 1.384 . S
C1224 H1215 0.929 . S
C1224 C1216 1.378 . S
C1224 C1219 1.350 . S
C1225 H1212 0.929 . S
C1225 C1217 1.433 . S
C1225 N1227 1.384 . S
N1226 C1222 1.427 . S
N1226 C1223 1.384 . S
N1227 C1219 1.427 . S
N1227 C1225 1.384 . S
H1228 C1234 0.930 . S
H1229 C1238 0.930 . S
H1230 C1243 0.929 . S
H1231 C1241 0.929 . S
H1232 C1236 0.929 . S
H1233 C1242 0.929 . S
C1234 H1228 0.930 . S
C1234 C1235 1.367 . S
C1234 C1242 1.378 . S
C1235 C1234 1.367 . S
C1235 C1243 1.433 . S
C1236 H1232 0.929 . S
C1236 C1238 1.378 . S
C1236 C1240 1.350 . S
C1237 C1240 1.463 . S
C1237 C1242 1.350 . S
C1237 N1245 1.427 . S
C1238 H1229 0.930 . S
C1238 C1236 1.378 . S
C1238 C1239 1.367 . S
C1239 C1238 1.367 . S
C1239 C1241 1.433 . S
C1240 C1236 1.350 . S
C1240 C1237 1.463 . S
C1240 N1244 1.427 . S
C1241 H1231 0.929 . S
C1241 C1239 1.433 . S
C1241 N1244 1.384 . S
C1242 H1233 0.929 . S
C1242 C1234 1.378 . S
C1242 C1237 1.350 . S
C1243 H1230 0.929 . S
C1243 C1235 1.433 . S
C1243 N1245 1.384 . S
N1244 C1240 1.427 . S
N1244 C1241 1.384 . S
N1245 C1237 1.427 . S
N1245 C1243 1.384 . S
H1246 C1252 0.930 . S
H1247 C1256 0.930 . S
H1248 C1261 0.929 . S
H1249 C1259 0.929 . S
H1250 C1254 0.929 . S
H1251 C1260 0.929 . S
C1252 H1246 0.930 . S
C1252 C1253 1.367 . S
C1252 C1260 1.378 . S
C1253 C1252 1.367 . S
C1253 C1261 1.433 . S
C1254 H1250 0.929 . S
C1254 C1256 1.378 . S
C1254 C1258 1.350 . S
C1255 C1258 1.463 . S
C1255 C1260 1.350 . S
C1255 N1263 1.427 . S
C1256 H1247 0.930 . S
C1256 C1254 1.378 . S
C1256 C1257 1.367 . S
C1257 C1256 1.367 . S
C1257 C1259 1.433 . S
C1258 C1254 1.350 . S
C1258 C1255 1.463 . S
C1258 N1262 1.427 . S
C1259 H1249 0.929 . S
C1259 C1257 1.433 . S
C1259 N1262 1.384 . S
C1260 H1251 0.929 . S
C1260 C1252 1.378 . S
C1260 C1255 1.350 . S
C1261 H1248 0.929 . S
C1261 C1253 1.433 . S
C1261 N1263 1.384 . S
N1262 C1258 1.427 . S
N1262 C1259 1.384 . S
N1263 C1255 1.427 . S
N1263 C1261 1.384 . S
H1264 C1270 0.930 . S
H1265 C1274 0.930 . S
H1266 C1279 0.929 . S
H1267 C1277 0.929 . S
H1268 C1272 0.929 . S
H1269 C1278 0.929 . S
C1270 H1264 0.930 . S
C1270 C1271 1.367 . S
C1270 C1278 1.378 . S
C1271 C1270 1.367 . S
C1271 C1279 1.433 . S
C1272 H1268 0.929 . S
C1272 C1274 1.378 . S
C1272 C1276 1.350 . S
C1273 C1276 1.463 . S
C1273 C1278 1.350 . S
C1273 N1281 1.427 . S
C1274 H1265 0.930 . S
C1274 C1272 1.378 . S
C1274 C1275 1.367 . S
C1275 C1274 1.367 . S
C1275 C1277 1.433 . S
C1276 C1272 1.350 . S
C1276 C1273 1.463 . S
C1276 N1280 1.427 . S
C1277 H1267 0.929 . S
C1277 C1275 1.433 . S
C1277 N1280 1.384 . S
C1278 H1269 0.929 . S
C1278 C1270 1.378 . S
C1278 C1273 1.350 . S
C1279 H1266 0.929 . S
C1279 C1271 1.433 . S
C1279 N1281 1.384 . S
N1280 C1276 1.427 . S
N1280 C1277 1.384 . S
N1281 C1273 1.427 . S
N1281 C1279 1.384 . S
H1282 C1288 0.930 . S
H1283 C1292 0.930 . S
H1284 C1297 0.929 . S
H1285 C1295 0.929 . S
H1286 C1290 0.929 . S
H1287 C1296 0.929 . S
C1288 H1282 0.930 . S
C1288 C1289 1.367 . S
C1288 C1296 1.378 . S
C1289 C1288 1.367 . S
C1289 C1297 1.433 . S
C1290 H1286 0.929 . S
C1290 C1292 1.378 . S
C1290 C1294 1.350 . S
C1291 C1294 1.463 . S
C1291 C1296 1.350 . S
C1291 N1299 1.427 . S
C1292 H1283 0.930 . S
C1292 C1290 1.378 . S
C1292 C1293 1.367 . S
C1293 C1292 1.367 . S
C1293 C1295 1.433 . S
C1294 C1290 1.350 . S
C1294 C1291 1.463 . S
C1294 N1298 1.427 . S
C1295 H1285 0.929 . S
C1295 C1293 1.433 . S
C1295 N1298 1.384 . S
C1296 H1287 0.929 . S
C1296 C1288 1.378 . S
C1296 C1291 1.350 . S
C1297 H1284 0.929 . S
C1297 C1289 1.433 . S
C1297 N1299 1.384 . S
N1298 C1294 1.427 . S
N1298 C1295 1.384 . S
N1299 C1291 1.427 . S
N1299 C1297 1.384 . S
H1300 C1306 0.930 . S
H1301 C1310 0.930 . S
H1302 C1315 0.929 . S
H1303 C1313 0.929 . S
H1304 C1308 0.929 . S
H1305 C1314 0.929 . S
C1306 H1300 0.930 . S
C1306 C1307 1.367 . S
C1306 C1314 1.378 . S
C1307 C1306 1.367 . S
C1307 C1315 1.433 . S
C1308 H1304 0.929 . S
C1308 C1310 1.378 . S
C1308 C1312 1.350 . S
C1309 C1312 1.463 . S
C1309 C1314 1.350 . S
C1309 N1317 1.427 . S
C1310 H1301 0.930 . S
C1310 C1308 1.378 . S
C1310 C1311 1.367 . S
C1311 C1310 1.367 . S
C1311 C1313 1.433 . S
C1312 C1308 1.350 . S
C1312 C1309 1.463 . S
C1312 N1316 1.427 . S
C1313 H1303 0.929 . S
C1313 C1311 1.433 . S
C1313 N1316 1.384 . S
C1314 H1305 0.929 . S
C1314 C1306 1.378 . S
C1314 C1309 1.350 . S
C1315 H1302 0.929 . S
C1315 C1307 1.433 . S
C1315 N1317 1.384 . S
N1316 C1312 1.427 . S
N1316 C1313 1.384 . S
N1317 C1309 1.427 . S
N1317 C1315 1.384 . S
H1318 C1324 0.930 . S
H1319 C1328 0.930 . S
H1320 C1333 0.929 . S
H1321 C1331 0.929 . S
H1322 C1326 0.929 . S
H1323 C1332 0.929 . S
C1324 H1318 0.930 . S
C1324 C1325 1.367 . S
C1324 C1332 1.378 . S
C1325 C1324 1.367 . S
C1325 C1333 1.433 . S
C1326 H1322 0.929 . S
C1326 C1328 1.378 . S
C1326 C1330 1.350 . S
C1327 C1330 1.463 1_554 S
C1327 C1332 1.350 . S
C1327 N1335 1.427 . S
C1328 H1319 0.930 . S
C1328 C1326 1.378 . S
C1328 C1329 1.367 . S
C1329 C1328 1.367 . S
C1329 C1331 1.433 . S
C1330 C1326 1.350 . S
C1330 C1327 1.463 1_556 S
C1330 N1334 1.427 . S
C1331 H1321 0.929 . S
C1331 C1329 1.433 . S
C1331 N1334 1.384 . S
C1332 H1323 0.929 . S
C1332 C1324 1.378 . S
C1332 C1327 1.350 . S
C1333 H1320 0.929 . S
C1333 C1325 1.433 . S
C1333 N1335 1.384 . S
N1334 C1330 1.427 . S
N1334 C1331 1.384 . S
N1335 C1327 1.427 . S
N1335 C1333 1.384 . S
H1336 C1342 0.930 . S
H1337 C1346 0.930 . S
H1338 C1351 0.929 . S
H1339 C1349 0.929 . S
H1340 C1344 0.929 . S
H1341 C1350 0.929 . S
C1342 H1336 0.930 . S
C1342 C1343 1.367 . S
C1342 C1350 1.378 . S
C1343 C1342 1.367 . S
C1343 C1351 1.433 . S
C1344 H1340 0.929 . S
C1344 C1346 1.378 . S
C1344 C1348 1.350 . S
C1345 C1348 1.463 . S
C1345 C1350 1.350 . S
C1345 N1353 1.427 . S
C1346 H1337 0.930 . S
C1346 C1344 1.378 . S
C1346 C1347 1.367 . S
C1347 C1346 1.367 . S
C1347 C1349 1.433 . S
C1348 C1344 1.350 . S
C1348 C1345 1.463 . S
C1348 N1352 1.427 . S
C1349 H1339 0.929 . S
C1349 C1347 1.433 . S
C1349 N1352 1.384 . S
C1350 H1341 0.929 . S
C1350 C1342 1.378 . S
C1350 C1345 1.350 . S
C1351 H1338 0.929 . S
C1351 C1343 1.433 . S
C1351 N1353 1.384 . S
N1352 C1348 1.427 . S
N1352 C1349 1.384 . S
N1353 C1345 1.427 . S
N1353 C1351 1.384 . S
H1354 C1360 0.930 . S
H1355 C1364 0.930 . S
H1356 C1369 0.929 . S
H1357 C1367 0.929 . S
H1358 C1362 0.929 . S
H1359 C1368 0.929 . S
C1360 H1354 0.930 . S
C1360 C1361 1.367 . S
C1360 C1368 1.378 . S
C1361 C1360 1.367 . S
C1361 C1369 1.433 . S
C1362 H1358 0.929 . S
C1362 C1364 1.378 . S
C1362 C1366 1.350 . S
C1363 C1366 1.463 1_554 S
C1363 C1368 1.350 . S
C1363 N1371 1.427 . S
C1364 H1355 0.930 . S
C1364 C1362 1.378 . S
C1364 C1365 1.367 . S
C1365 C1364 1.367 . S
C1365 C1367 1.433 . S
C1366 C1362 1.350 . S
C1366 C1363 1.463 1_556 S
C1366 N1370 1.427 . S
C1367 H1357 0.929 . S
C1367 C1365 1.433 . S
C1367 N1370 1.384 . S
C1368 H1359 0.929 . S
C1368 C1360 1.378 . S
C1368 C1363 1.350 . S
C1369 H1356 0.929 . S
C1369 C1361 1.433 . S
C1369 N1371 1.384 . S
N1370 C1366 1.427 . S
N1370 C1367 1.384 . S
N1371 C1363 1.427 . S
N1371 C1369 1.384 . S
H1372 C1378 0.930 . S
H1373 C1382 0.930 . S
H1374 C1387 0.929 . S
H1375 C1385 0.929 . S
H1376 C1380 0.929 . S
H1377 C1386 0.929 . S
C1378 H1372 0.930 . S
C1378 C1379 1.367 . S
C1378 C1386 1.378 . S
C1379 C1378 1.367 . S
C1379 C1387 1.433 . S
C1380 H1376 0.929 . S
C1380 C1382 1.378 . S
C1380 C1384 1.350 . S
C1381 C1384 1.463 . S
C1381 C1386 1.350 . S
C1381 N1389 1.427 . S
C1382 H1373 0.930 . S
C1382 C1380 1.378 . S
C1382 C1383 1.367 . S
C1383 C1382 1.367 . S
C1383 C1385 1.433 . S
C1384 C1380 1.350 . S
C1384 C1381 1.463 . S
C1384 N1388 1.427 . S
C1385 H1375 0.929 . S
C1385 C1383 1.433 . S
C1385 N1388 1.384 . S
C1386 H1377 0.929 . S
C1386 C1378 1.378 . S
C1386 C1381 1.350 . S
C1387 H1374 0.929 . S
C1387 C1379 1.433 . S
C1387 N1389 1.384 . S
N1388 C1384 1.427 . S
N1388 C1385 1.384 . S
N1389 C1381 1.427 . S
N1389 C1387 1.384 . S
H1390 C1396 0.930 . S
H1391 C1400 0.930 . S
H1392 C1405 0.929 . S
H1393 C1403 0.929 . S
H1394 C1398 0.929 . S
H1395 C1404 0.929 . S
C1396 H1390 0.930 . S
C1396 C1397 1.367 . S
C1396 C1404 1.378 . S
C1397 C1396 1.367 . S
C1397 C1405 1.433 . S
C1398 H1394 0.929 . S
C1398 C1400 1.378 . S
C1398 C1402 1.350 . S
C1399 C1402 1.463 . S
C1399 C1404 1.350 . S
C1399 N1407 1.427 . S
C1400 H1391 0.930 . S
C1400 C1398 1.378 . S
C1400 C1401 1.367 . S
C1401 C1400 1.367 . S
C1401 C1403 1.433 . S
C1402 C1398 1.350 . S
C1402 C1399 1.463 . S
C1402 N1406 1.427 . S
C1403 H1393 0.929 . S
C1403 C1401 1.433 . S
C1403 N1406 1.384 . S
C1404 H1395 0.929 . S
C1404 C1396 1.378 . S
C1404 C1399 1.350 . S
C1405 H1392 0.929 . S
C1405 C1397 1.433 . S
C1405 N1407 1.384 . S
N1406 C1402 1.427 . S
N1406 C1403 1.384 . S
N1407 C1399 1.427 . S
N1407 C1405 1.384 . S
H1408 C1414 0.930 . S
H1409 C1418 0.930 . S
H1410 C1423 0.929 . S
H1411 C1421 0.929 . S
H1412 C1416 0.929 . S
H1413 C1422 0.929 . S
C1414 H1408 0.930 . S
C1414 C1415 1.367 . S
C1414 C1422 1.378 . S
C1415 C1414 1.367 . S
C1415 C1423 1.433 1_565 S
C1416 H1412 0.929 . S
C1416 C1418 1.378 . S
C1416 C1420 1.350 . S
C1417 C1420 1.463 1_565 S
C1417 C1422 1.350 . S
C1417 N1425 1.427 1_565 S
C1418 H1409 0.930 . S
C1418 C1416 1.378 . S
C1418 C1419 1.367 . S
C1419 C1418 1.367 . S
C1419 C1421 1.433 1_545 S
C1420 C1416 1.350 . S
C1420 C1417 1.463 1_545 S
C1420 N1424 1.427 1_545 S
C1421 H1411 0.929 . S
C1421 C1419 1.433 1_565 S
C1421 N1424 1.384 . S
C1422 H1413 0.929 . S
C1422 C1414 1.378 . S
C1422 C1417 1.350 . S
C1423 H1410 0.929 . S
C1423 C1415 1.433 1_545 S
C1423 N1425 1.384 . S
N1424 C1420 1.427 1_565 S
N1424 C1421 1.384 . S
N1425 C1417 1.427 1_545 S
N1425 C1423 1.384 . S
H1426 C1432 0.930 . S
H1427 C1436 0.930 . S
H1428 C1441 0.929 . S
H1429 C1439 0.929 . S
H1430 C1434 0.929 . S
H1431 C1440 0.929 . S
C1432 H1426 0.930 . S
C1432 C1433 1.367 . S
C1432 C1440 1.378 . S
C1433 C1432 1.367 . S
C1433 C1441 1.433 . S
C1434 H1430 0.929 . S
C1434 C1436 1.378 . S
C1434 C1438 1.350 . S
C1435 C1438 1.461 1_445 S
C1435 C1440 1.350 . S
C1435 N1443 1.429 . S
C1436 H1427 0.930 . S
C1436 C1434 1.378 . S
C1436 C1437 1.367 . S
C1437 C1436 1.367 . S
C1437 C1439 1.433 . S
C1438 C1434 1.350 . S
C1438 C1435 1.461 1_665 S
C1438 N1442 1.429 . S
C1439 H1429 0.929 . S
C1439 C1437 1.433 . S
C1439 N1442 1.384 . S
C1440 H1431 0.929 . S
C1440 C1432 1.378 . S
C1440 C1435 1.350 . S
C1441 H1428 0.929 . S
C1441 C1433 1.433 . S
C1441 N1443 1.384 . S
N1442 C1438 1.429 . S
N1442 C1439 1.384 . S
N1443 C1435 1.429 . S
N1443 C1441 1.384 . S
H1444 C1450 0.930 . S
H1445 C1454 0.930 . S
H1446 C1459 0.929 . S
H1447 C1457 0.929 . S
H1448 C1452 0.929 . S
H1449 C1458 0.929 . S
C1450 H1444 0.930 . S
C1450 C1451 1.367 . S
C1450 C1458 1.378 . S
C1451 C1450 1.367 . S
C1451 C1459 1.433 . S
C1452 H1448 0.929 . S
C1452 C1454 1.378 . S
C1452 C1456 1.350 . S
C1453 C1456 1.463 1_455 S
C1453 C1458 1.350 . S
C1453 N1461 1.427 . S
C1454 H1445 0.930 . S
C1454 C1452 1.378 . S
C1454 C1455 1.367 . S
C1455 C1454 1.367 . S
C1455 C1457 1.433 . S
C1456 C1452 1.350 . S
C1456 C1453 1.463 1_655 S
C1456 N1460 1.427 . S
C1457 H1447 0.929 . S
C1457 C1455 1.433 . S
C1457 N1460 1.384 . S
C1458 H1449 0.929 . S
C1458 C1450 1.378 . S
C1458 C1453 1.350 . S
C1459 H1446 0.929 . S
C1459 C1451 1.433 . S
C1459 N1461 1.384 . S
N1460 C1456 1.427 . S
N1460 C1457 1.384 . S
N1461 C1453 1.427 . S
N1461 C1459 1.384 . S
H1462 C1468 0.930 . S
H1463 C1472 0.930 . S
H1464 C1477 0.929 . S
H1465 C1475 0.929 . S
H1466 C1470 0.929 . S
H1467 C1476 0.929 . S
C1468 H1462 0.930 . S
C1468 C1469 1.367 . S
C1468 C1476 1.378 . S
C1469 C1468 1.367 . S
C1469 C1477 1.433 . S
C1470 H1466 0.929 . S
C1470 C1472 1.378 . S
C1470 C1474 1.350 . S
C1471 C1474 1.463 . S
C1471 C1476 1.350 . S
C1471 N1479 1.427 . S
C1472 H1463 0.930 . S
C1472 C1470 1.378 . S
C1472 C1473 1.367 . S
C1473 C1472 1.367 . S
C1473 C1475 1.433 . S
C1474 C1470 1.350 . S
C1474 C1471 1.463 . S
C1474 N1478 1.427 . S
C1475 H1465 0.929 . S
C1475 C1473 1.433 . S
C1475 N1478 1.384 . S
C1476 H1467 0.929 . S
C1476 C1468 1.378 . S
C1476 C1471 1.350 . S
C1477 H1464 0.929 . S
C1477 C1469 1.433 . S
C1477 N1479 1.384 . S
N1478 C1474 1.427 . S
N1478 C1475 1.384 . S
N1479 C1471 1.427 . S
N1479 C1477 1.384 . S
H1480 C1486 0.930 . S
H1481 C1490 0.930 . S
H1482 C1495 0.929 . S
H1483 C1493 0.929 . S
H1484 C1488 0.929 . S
H1485 C1494 0.929 . S
C1486 H1480 0.930 . S
C1486 C1487 1.367 . S
C1486 C1494 1.378 . S
C1487 C1486 1.367 . S
C1487 C1495 1.433 . S
C1488 H1484 0.929 . S
C1488 C1490 1.378 . S
C1488 C1492 1.350 . S
C1489 C1492 1.463 . S
C1489 C1494 1.350 . S
C1489 N1497 1.427 . S
C1490 H1481 0.930 . S
C1490 C1488 1.378 . S
C1490 C1491 1.367 . S
C1491 C1490 1.367 . S
C1491 C1493 1.433 . S
C1492 C1488 1.350 . S
C1492 C1489 1.463 . S
C1492 N1496 1.427 . S
C1493 H1483 0.929 . S
C1493 C1491 1.433 . S
C1493 N1496 1.384 . S
C1494 H1485 0.929 . S
C1494 C1486 1.378 . S
C1494 C1489 1.350 . S
C1495 H1482 0.929 . S
C1495 C1487 1.433 . S
C1495 N1497 1.384 . S
N1496 C1492 1.427 . S
N1496 C1493 1.384 . S
N1497 C1489 1.427 . S
N1497 C1495 1.384 . S
H1498 C1504 0.930 . S
H1499 C1508 0.930 . S
H1500 C1513 0.929 . S
H1501 C1511 0.929 . S
H1502 C1506 0.929 . S
H1503 C1512 0.929 . S
C1504 H1498 0.930 . S
C1504 C1505 1.367 . S
C1504 C1512 1.378 . S
C1505 C1504 1.367 . S
C1505 C1513 1.433 . S
C1506 H1502 0.929 . S
C1506 C1508 1.378 . S
C1506 C1510 1.350 . S
C1507 C1510 1.463 1_545 S
C1507 C1512 1.350 . S
C1507 N1515 1.427 . S
C1508 H1499 0.930 . S
C1508 C1506 1.378 . S
C1508 C1509 1.367 . S
C1509 C1508 1.367 . S
C1509 C1511 1.433 . S
C1510 C1506 1.350 . S
C1510 C1507 1.463 1_565 S
C1510 N1514 1.427 . S
C1511 H1501 0.929 . S
C1511 C1509 1.433 . S
C1511 N1514 1.384 . S
C1512 H1503 0.929 . S
C1512 C1504 1.378 . S
C1512 C1507 1.350 . S
C1513 H1500 0.929 . S
C1513 C1505 1.433 . S
C1513 N1515 1.384 . S
N1514 C1510 1.427 . S
N1514 C1511 1.384 . S
N1515 C1507 1.427 . S
N1515 C1513 1.384 . S
H1516 C1522 0.930 . S
H1517 C1526 0.930 . S
H1518 C1531 0.929 . S
H1519 C1529 0.929 . S
H1520 C1524 0.929 . S
H1521 C1530 0.929 . S
C1522 H1516 0.930 . S
C1522 C1523 1.367 1_565 S
C1522 C1530 1.378 . S
C1523 C1522 1.367 1_545 S
C1523 C1531 1.433 . S
C1524 H1520 0.929 . S
C1524 C1526 1.378 . S
C1524 C1528 1.354 . S
C1525 C1528 1.462 1_465 S
C1525 C1530 1.354 . S
C1525 N1533 1.423 1_565 S
C1526 H1517 0.930 . S
C1526 C1524 1.378 . S
C1526 C1527 1.367 1_545 S
C1527 C1526 1.367 1_565 S
C1527 C1529 1.433 . S
C1528 C1524 1.354 . S
C1528 C1525 1.462 1_645 S
C1528 N1532 1.423 1_545 S
C1529 H1519 0.929 . S
C1529 C1527 1.433 . S
C1529 N1532 1.384 . S
C1530 H1521 0.929 . S
C1530 C1522 1.378 . S
C1530 C1525 1.354 . S
C1531 H1518 0.929 . S
C1531 C1523 1.433 . S
C1531 N1533 1.384 . S
N1532 C1528 1.423 1_565 S
N1532 C1529 1.384 . S
N1533 C1525 1.423 1_545 S
N1533 C1531 1.384 . S
H1534 C1540 0.930 . S
H1535 C1544 0.930 . S
H1536 C1549 0.929 . S
H1537 C1547 0.929 . S
H1538 C1542 0.929 . S
H1539 C1548 0.929 . S
C1540 H1534 0.930 . S
C1540 C1541 1.367 1_455 S
C1540 C1548 1.378 . S
C1541 C1540 1.367 1_655 S
C1541 C1549 1.433 . S
C1542 H1538 0.929 . S
C1542 C1544 1.378 . S
C1542 C1546 1.354 . S
C1543 C1546 1.462 1_455 S
C1543 C1548 1.354 . S
C1543 N1551 1.423 1_455 S
C1544 H1535 0.930 . S
C1544 C1542 1.378 . S
C1544 C1545 1.367 1_655 S
C1545 C1544 1.367 1_455 S
C1545 C1547 1.433 . S
C1546 C1542 1.354 . S
C1546 C1543 1.462 1_655 S
C1546 N1550 1.423 1_655 S
C1547 H1537 0.929 . S
C1547 C1545 1.433 . S
C1547 N1550 1.384 . S
C1548 H1539 0.929 . S
C1548 C1540 1.378 . S
C1548 C1543 1.354 . S
C1549 H1536 0.929 . S
C1549 C1541 1.433 . S
C1549 N1551 1.384 . S
N1550 C1546 1.423 1_455 S
N1550 C1547 1.384 . S
N1551 C1543 1.423 1_655 S
N1551 C1549 1.384 . S
C551 C17 0.974 . S
C555 C255 0.971 . S
C569 C153 0.968 . S
C573 C51 0.979 . S
C587 C85 0.981 . S
C591 C187 0.971 . S
C605 C119 0.977 . S
C609 C221 0.969 . S
C623 C527 0.978 . S
C627 C289 0.968 . S
C641 C425 0.974 . S
C645 C323 0.970 . S
C659 C357 0.981 . S
C663 C459 0.971 . S
C677 C391 0.971 . S
C681 C493 0.974 . S
C695 C124 0.570 . S
C699 C22 0.700 . S
C713 C49 0.670 . S
C717 C15 0.518 . S
C731 C83 0.704 . S
C735 C56 0.571 . S
C749 C117 0.704 . S
C753 C90 0.571 . S
C767 C158 0.711 . S
C771 C192 0.547 . S
C785 C185 0.664 . S
C789 C219 0.529 . S
C803 C260 0.534 . S
C807 C226 0.665 . S
C821 C253 0.714 . S
C825 C151 0.566 . S
C839 C396 0.564 . S
C843 C287 0.688 . S
C857 C321 0.714 . S
C861 C294 0.555 . S
C875 C328 0.546 . S
C879 C362 0.710 . S
C893 C389 0.703 . S
C897 C355 0.571 . S
C911 C423 0.713 . S
C915 C457 0.551 . S
C929 C464 0.715 . S
C933 C498 0.557 . S
C947 C491 0.676 . S
C951 C532 0.553 . S
C965 C525 0.668 . S
C969 C430 0.520 . S
C983 C164 0.728 . S
C987 C28 0.724 . S
C1001 C176 0.736 . S
C1005 C40 0.732 . S
C1019 C74 0.750 . S
C1023 C232 0.748 . S
C1037 C244 0.745 . S
C1041 C108 0.748 . S
C1055 C414 0.720 . S
C1059 C278 0.722 . S
C1073 C312 0.728 . S
C1077 C470 0.732 . S
C1091 C482 0.751 . S
C1095 C368 0.749 . S
C1109 C516 0.719 . S
C1113 C380 0.717 . S
C1127 C210 2.536 . S
C1131 C6 2.540 . S
C1145 C266 2.546 . S
C1149 C62 2.531 . S
C1163 C96 2.538 . S
C1167 C142 2.531 . S
C1181 C130 2.538 . S
C1185 C198 2.531 . S
C1199 C300 2.529 . S
C1203 C504 2.540 . S
C1217 C334 2.540 . S
C1221 C538 2.529 . S
C1235 C436 2.529 . S
C1239 C346 2.547 . S
C1253 C448 2.539 . S
C1257 C402 2.538 . S
C1271 C171 3.981 . S
C1275 C3 3.984 . S
C1289 C35 3.984 . S
C1293 C207 3.981 . S
C1307 C69 3.981 . S
C1311 C239 3.981 . S
C1325 C139 3.982 . S
C1329 C103 3.981 . S
C1343 C273 3.983 . S
C1347 C445 3.985 . S
C1361 C477 3.981 . S
C1365 C307 3.983 . S
C1379 C343 3.985 . S
C1383 C511 3.983 . S
C1397 C375 3.980 . S
C1401 C409 3.982 . S
C1415 C1 2.319 1_565 S
C1419 C341 2.308 1_545 S
C1433 C37 2.305 1_455 S
C1437 C377 2.317 1_655 S
C1451 C275 2.319 . S
C1455 C71 2.309 . S
C1469 C309 2.307 . S
C1473 C105 2.318 . S
C1487 C137 2.319 . S
C1491 C479 2.309 . S
C1505 C173 2.303 . S
C1509 C513 2.312 . S
C1523 C411 2.307 1_545 S
C1527 C205 2.306 1_565 S
C1541 C443 2.307 1_655 S
C1545 C241 2.305 1_455 S
