# Generated by pormake.
# Topology bsn, (6)-cn, num edge types: 1
# Building blocks:
#     Node 0, Type 0, BuildingBlock: JUFBIX_clean_sbu_0, # of connection points: 6
#     Node 1, Type 0, BuildingBlock: JUFBIX_clean_sbu_0, # of connection points: 6
#     Node 2, Type 0, BuildingBlock: JUFBIX_clean_sbu_0, # of connection points: 6
#     Node 3, Type 0, BuildingBlock: JUFBIX_clean_sbu_0, # of connection points: 6
#     Edge 4, Type (0, 0), BuildingBlock: FUNLAD_clean_linker_1, # of connection points: 2
#     Edge 5, Type (0, 0), BuildingBlock: FUNLAD_clean_linker_1, # of connection points: 2
#     Edge 6, Type (0, 0), BuildingBlock: FUNLAD_clean_linker_1, # of connection points: 2
#     Edge 7, Type (0, 0), BuildingBlock: FUNLAD_clean_linker_1, # of connection points: 2
#     Edge 8, Type (0, 0), BuildingBlock: FUNLAD_clean_linker_1, # of connection points: 2
#     Edge 9, Type (0, 0), BuildingBlock: FUNLAD_clean_linker_1, # of connection points: 2
#     Edge 10, Type (0, 0), BuildingBlock: FUNLAD_clean_linker_1, # of connection points: 2
#     Edge 11, Type (0, 0), BuildingBlock: FUNLAD_clean_linker_1, # of connection points: 2
#     Edge 12, Type (0, 0), BuildingBlock: FUNLAD_clean_linker_1, # of connection points: 2
#     Edge 13, Type (0, 0), BuildingBlock: FUNLAD_clean_linker_1, # of connection points: 2
#     Edge 14, Type (0, 0), BuildingBlock: FUNLAD_clean_linker_1, # of connection points: 2
#     Edge 15, Type (0, 0), BuildingBlock: FUNLAD_clean_linker_1, # of connection points: 2
# Relax obj value: 0.100
# Max RMSD: 0.163
# Mean RMSD: 0.163
data_MOF--net-bsn--node1-JUFBIX_clean_sbu_0--edge1-FUNLAD_clean_linker_1
_symmetry_space_group_name_H-M    P1
_symmetry_Int_Tables_number       1
_symmetry_cell_setting            triclinic
loop_
_symmetry_equiv_pos_as_xyz
'x, y, z'
_cell_length_a     29.743256
_cell_length_b     40.026898
_cell_length_c     15.229148
_cell_angle_alpha  87.962085
_cell_angle_beta   93.055714
_cell_angle_gamma 96.988571
loop_
_atom_site_label
_atom_site_type_symbol
_atom_site_fract_x
_atom_site_fract_y
_atom_site_fract_z
_atom_type_partial_charge
Co0 Co 0.03085 0.26322 0.3553 0.0
C1 C 0.04338 0.29958 0.50774 0.0
Co2 Co 0.04711 0.31851 0.33381 0.0
C3 C 0.03937 0.19055 0.36864 0.0
C4 C 0.98259 0.20495 0.43255 0.0
N5 N 1.01673 0.21727 0.38109 0.0
N6 N 1.02107 0.16249 0.41198 0.0
C7 C 0.98507 0.17147 0.45131 0.0
H8 H 0.06986 0.19196 0.33223 0.0
H9 H 0.95846 0.21973 0.45835 0.0
C10 C 0.03434 0.28177 0.18194 0.0
N11 N 0.05997 0.36492 0.31612 0.0
C12 C 0.04423 0.38818 0.36471 0.0
C13 C 0.08841 0.38292 0.26115 0.0
N14 N 0.06191 0.41984 0.34357 0.0
C15 C 0.08971 0.41679 0.27788 0.0
C16 C 0.12317 0.28431 0.34517 0.0
O17 O 0.02844 0.25627 0.23405 0.0
O18 O 0.04228 0.31137 0.21184 0.0
O19 O 0.1099 0.31329 0.33381 0.0
O20 O 0.09433 0.25884 0.36061 0.0
O21 O 0.052 0.32476 0.45629 0.0
H22 H 0.10792 0.37208 0.21389 0.0
H23 H 1.02103 0.38194 0.41691 0.0
O24 O 0.03318 0.27058 0.47661 0.0
O25 O 0.96766 0.26852 0.34649 0.0
O26 O 0.98405 0.32323 0.33118 0.0
C27 C 0.95463 0.2975 0.33471 0.0
H28 H 0.96232 0.15508 0.49157 0.0
H29 H 0.11039 0.43725 0.24572 0.0
Co30 Co 0.03062 0.75156 0.61763 0.0
C31 C 0.03506 0.7896 0.76828 0.0
Co32 Co 0.02914 0.80662 0.59428 0.0
C33 C 0.05366 0.6852 0.58867 0.0
C34 C 1.01342 0.68512 0.70094 0.0
N35 N 0.03411 0.70579 0.63958 0.0
N36 N 0.04524 0.65255 0.61421 0.0
C37 C 1.02015 0.65234 0.68553 0.0
H38 H 0.07206 0.69381 0.53104 0.0
H39 H 0.99311 0.69319 0.75126 0.0
C40 C 1.02453 0.7687 0.44302 0.0
N41 N 1.02382 0.85175 0.5645 0.0
C42 C 0.04716 0.88158 0.58816 0.0
C43 C 0.99272 0.86015 0.50238 0.0
N44 N 0.03214 0.90784 0.54146 0.0
C45 C 0.99767 0.89426 0.4882 0.0
C46 C 0.11624 0.78925 0.60676 0.0
O47 O 1.02651 0.74377 0.49577 0.0
O48 O 1.02528 0.79787 0.47295 0.0
O49 O 0.09376 0.81419 0.59213 0.0
O50 O 0.0952 0.75977 0.61658 0.0
O51 O 0.03325 0.81478 0.71541 0.0
H52 H 0.96796 0.84242 0.46854 0.0
H53 H 0.07492 0.88397 0.63733 0.0
O54 O 0.03448 0.7601 0.73899 0.0
O55 O 0.96603 0.744 0.62112 0.0
O56 O 0.96464 0.79835 0.60011 0.0
C57 C 0.94375 0.76921 0.6146 0.0
H58 H 1.00632 0.6302 0.72235 0.0
H59 H 0.97672 0.90805 0.44332 0.0
Co60 Co 0.53898 0.76227 0.85717 0.0
C61 C 0.54333 0.80025 0.00835 0.0
Co62 Co 0.53771 0.81735 0.83378 0.0
C63 C 0.52103 0.6873 0.86226 0.0
C64 C 0.57468 0.70859 0.94997 0.0
N65 N 0.54403 0.71709 0.88706 0.0
N66 N 0.53579 0.66095 0.909 0.0
C67 C 0.56977 0.67445 0.96349 0.0
H68 H 0.49375 0.68498 0.81207 0.0
H69 H 0.59918 0.72627 -0.0154 0.0
C70 C 0.53351 0.77931 0.68319 0.0
N71 N 0.53455 0.86314 0.81171 0.0
C72 C 0.51405 0.88364 0.8612 0.0
C73 C 0.55677 0.88393 0.7525 0.0
N74 N 0.5234 0.91637 0.83698 0.0
C75 C 0.55005 0.91672 0.76791 0.0
C76 C 0.62453 0.79946 0.83767 0.0
O77 O 0.5351 0.7541 0.73606 0.0
O78 O 0.53416 0.80881 0.71247 0.0
O79 O 0.60235 0.82471 0.83103 0.0
O80 O 0.60351 0.77034 0.85192 0.0
O81 O 0.54149 0.82518 0.95557 0.0
H82 H 0.57813 0.87594 0.70387 0.0
H83 H 0.49447 0.87491 0.91725 0.0
O84 O 0.54261 0.77107 -0.02153 0.0
O85 O 0.47433 0.75487 0.85877 0.0
O86 O 0.47311 0.8093 0.83413 0.0
C87 C 0.45195 0.77985 0.84388 0.0
H88 H 0.5905 0.66058 0.00862 0.0
H89 H 0.5648 0.93895 0.73258 0.0
Co90 Co 0.52147 0.25054 0.11655 0.0
C91 C 0.535 0.28692 0.26853 0.0
Co92 Co 0.53799 0.30577 0.09459 0.0
C93 C 0.5238 0.18072 0.08664 0.0
C94 C 0.47802 0.18649 0.18708 0.0
N95 N 0.50778 0.20419 0.13409 0.0
N96 N 0.50497 0.14923 0.10645 0.0
C97 C 0.47614 0.1526 0.17015 0.0
H98 H 0.54781 0.18674 0.03573 0.0
H99 H 0.45793 0.19757 0.23287 0.0
C100 C 0.52461 0.26929 0.94225 0.0
N101 N 0.55282 0.35168 0.06908 0.0
C102 C 0.53059 0.37858 0.08201 0.0
C103 C 0.58678 0.36378 0.01696 0.0
N104 N 0.54894 0.40652 0.03829 0.0
C105 C 0.58456 0.39731 -0.0018 0.0
C106 C 0.61389 0.27092 0.11521 0.0
O107 O 0.5163 0.24429 -0.00563 0.0
O108 O 0.5353 0.29839 0.97265 0.0
O109 O 0.60101 0.29996 0.10343 0.0
O110 O 0.58435 0.24526 0.11863 0.0
O111 O 0.54038 0.31258 0.21666 0.0
H112 H 0.61051 0.34881 -0.00943 0.0
H113 H 0.50026 0.37734 0.11884 0.0
O114 O 0.52688 0.25744 0.23811 0.0
O115 O 0.45858 0.25655 0.11717 0.0
O116 O 0.47509 0.31083 0.08908 0.0
C117 C 0.44588 0.28572 0.10511 0.0
H118 H 0.45442 0.13236 0.20082 0.0
H119 H 0.60714 0.41356 0.95729 0.0
H120 H 0.03175 0.44593 0.4445 0.0
C121 C 0.05369 0.44937 0.38915 0.0
H122 H 0.09531 0.485 0.31438 0.0
H123 H 0.96154 0.57595 0.52463 0.0
H124 H 0.89916 0.54662 0.43827 0.0
H125 H 0.9119 0.50128 0.34035 0.0
H126 H 0.98701 0.48479 0.32879 0.0
C127 C 0.07223 0.48076 0.36751 0.0
C128 C 0.06471 0.5102 0.42061 0.0
C129 C 1.02065 0.52011 0.4252 0.0
C130 C 1.01346 0.54681 0.48033 0.0
C131 C 0.96902 0.55587 0.48407 0.0
C132 C 0.93286 0.53932 0.43457 0.0
C133 C 0.94003 0.51376 0.37955 0.0
C134 C 0.98332 0.50431 0.37422 0.0
H135 H 0.07769 0.63009 0.50946 0.0
C136 C 0.05726 0.62461 0.56655 0.0
H137 H 1.0201 0.58608 0.64058 0.0
H138 H 0.15372 0.49884 0.42434 0.0
H139 H 0.2163 0.52884 0.50883 0.0
H140 H 0.20374 0.57478 0.60494 0.0
H141 H 0.12854 0.59112 0.61691 0.0
C142 C 0.04223 0.59227 0.58655 0.0
C143 C 0.05045 0.56431 0.52905 0.0
C144 C 0.09466 0.55488 0.52309 0.0
C145 C 0.10182 0.52802 0.46837 0.0
C146 C 0.14629 0.51907 0.46441 0.0
C147 C 0.18255 0.53602 0.51279 0.0
C148 C 0.17549 0.56192 0.56683 0.0
C149 C 0.13213 0.57121 0.57259 0.0
H150 H 0.69093 0.82889 0.81306 0.0
C151 C 0.67329 0.80355 0.81896 0.0
H152 H 0.67615 0.75192 0.7989 0.0
H153 H 0.8236 0.77829 0.51302 0.0
H154 H 0.75537 0.76613 0.41921 0.0
H155 H 0.67975 0.76059 0.48104 0.0
H156 H 0.67173 0.76774 0.63668 0.0
C157 C 0.69447 0.77713 0.79864 0.0
C158 C 0.74042 0.78154 0.76181 0.0
C159 C 0.74462 0.77696 0.67071 0.0
C160 C 0.78831 0.77983 0.63507 0.0
C161 C 0.79132 0.77594 0.54362 0.0
C162 C 0.75243 0.76904 0.48901 0.0
C163 C 0.70984 0.76596 0.5238 0.0
C164 C 0.70575 0.76998 0.61339 0.0
H165 H 0.87747 0.73968 0.63974 0.0
C166 C 0.89502 0.76504 0.63362 0.0
H167 H 0.89201 0.81668 0.65329 0.0
H168 H 0.74465 0.79027 0.93945 0.0
H169 H 0.81288 0.80252 0.03321 0.0
H170 H 0.88849 0.80813 0.97134 0.0
H171 H 0.89651 0.80091 0.81574 0.0
C172 C 0.87377 0.79144 0.6538 0.0
C173 C 0.82783 0.787 0.69066 0.0
C174 C 0.82363 0.79161 0.78176 0.0
C175 C 0.77993 0.78873 0.8174 0.0
C176 C 0.77693 0.79264 0.90885 0.0
C177 C 0.81581 0.79959 0.96343 0.0
C178 C 0.8584 0.80271 0.92861 0.0
C179 C 0.8625 0.79864 0.83905 0.0
H180 H 0.51902 0.44844 0.09112 0.0
C181 C 0.53378 0.43945 0.03398 0.0
H182 H 0.55361 0.44997 0.90441 0.0
H183 H 0.4429 0.58146 0.97342 0.0
H184 H 0.37551 0.54117 -0.01028 0.0
H185 H 0.3803 0.48006 -0.01038 0.0
H186 H 0.45242 0.45875 0.97448 0.0
C187 C 0.53963 0.45956 0.96157 0.0
C188 C 0.53517 0.49632 0.96007 0.0
C189 C 0.49251 0.50828 0.96704 0.0
C190 C 0.48952 0.54359 0.96514 0.0
C191 C 0.44683 0.55492 0.97414 0.0
C192 C 0.40797 0.53209 -0.01674 0.0
C193 C 0.41068 0.49766 -0.0167 0.0
C194 C 0.45233 0.48575 0.97503 0.0
H195 H 0.50966 0.61626 0.8346 0.0
C196 C 0.52183 0.62543 0.89891 0.0
H197 H 0.53923 0.61274 0.0309 0.0
H198 H 0.62239 0.48225 0.94324 0.0
H199 H 0.68861 0.52258 0.92171 0.0
H200 H 0.68275 0.58356 0.91423 0.0
H201 H 0.61051 0.6045 0.92837 0.0
C202 C 0.52793 0.60343 0.96637 0.0
C203 C 0.5289 0.56679 0.95451 0.0
C204 C 0.5712 0.55483 0.94426 0.0
C205 C 0.57441 0.51965 0.94739 0.0
C206 C 0.61754 0.50861 0.93964 0.0
C207 C 0.65602 0.53153 0.92767 0.0
C208 C 0.65274 0.56584 0.92361 0.0
C209 C 0.611 0.57751 0.932 0.0
H210 H 0.89702 0.32683 0.30639 0.0
C211 C 0.90633 0.30143 0.31491 0.0
H212 H 0.88366 0.24949 0.30385 0.0
H213 H 0.67562 0.27477 0.31454 0.0
H214 H 0.68845 0.25581 0.46581 0.0
H215 H 0.76533 0.24783 0.52491 0.0
H216 H 0.83004 0.25865 0.43287 0.0
C217 C 0.87506 0.2751 0.29646 0.0
C218 C 0.82862 0.28003 0.26052 0.0
C219 C 0.79107 0.27315 0.31455 0.0
C220 C 0.74662 0.27748 0.28008 0.0
C221 C 0.70997 0.27131 0.33655 0.0
C222 C 0.71687 0.2606 0.42375 0.0
C223 C 0.76018 0.25609 0.45704 0.0
C224 C 0.79699 0.26233 0.40349 0.0
H225 H 0.67147 0.24151 0.14314 0.0
C226 C 0.66214 0.26692 0.13537 0.0
H227 H 0.6846 0.31879 0.14863 0.0
H228 H 0.89259 0.29304 0.13668 0.0
H229 H 0.87976 0.31162 -0.01472 0.0
H230 H 0.803 0.32022 0.92646 0.0
H231 H 0.73834 0.30978 0.01876 0.0
C232 C 0.69328 0.2932 0.15506 0.0
C233 C 0.7397 0.28822 0.191 0.0
C234 C 0.77725 0.29511 0.13697 0.0
C235 C 0.82168 0.2907 0.1714 0.0
C236 C 0.85828 0.29666 0.11479 0.0
C237 C 0.85138 0.30723 0.0275 0.0
C238 C 0.80814 0.312 -0.00564 0.0
C239 C 0.77135 0.30597 0.04806 0.0
H240 H 0.38856 0.31613 0.09975 0.0
C241 C 0.39866 0.2916 0.11898 0.0
H242 H 0.38131 0.246 0.1897 0.0
H243 H 0.24607 0.30246 0.43427 0.0
H244 H 0.31091 0.29813 0.53566 0.0
H245 H 0.38367 0.28574 0.48241 0.0
H246 H 0.39166 0.27572 0.32827 0.0
C247 C 0.37023 0.26956 0.16453 0.0
C248 C 0.32656 0.27885 0.19504 0.0
C249 C 0.32187 0.28321 0.28611 0.0
C250 C 0.28001 0.29101 0.31673 0.0
C251 C 0.27679 0.29605 0.40763 0.0
C252 C 0.31383 0.29381 0.46653 0.0
C253 C 0.35476 0.2866 0.43662 0.0
C254 C 0.35886 0.28103 0.3478 0.0
H255 H 0.18146 0.25478 0.34725 0.0
C256 C 0.17067 0.27931 0.33055 0.0
H257 H 0.18709 0.32634 0.26555 0.0
H258 H 0.32349 0.27194 0.01645 0.0
H259 H 0.26148 0.28252 0.91345 0.0
H260 H 0.19085 0.2995 0.96555 0.0
H261 H 0.18052 0.30405 0.12131 0.0
C262 C 0.19865 0.30254 0.28738 0.0
C263 C 0.24293 0.29476 0.25622 0.0
C264 C 0.24833 0.29204 0.16474 0.0
C265 C 0.28984 0.28349 0.13428 0.0
C266 C 0.29339 0.27947 0.04299 0.0
C267 C 0.25793 0.28525 -0.01687 0.0
C268 C 0.21801 0.29459 0.01253 0.0
C269 C 0.21273 0.29741 0.10219 0.0
H270 H 0.38509 0.74867 0.8381 0.0
C271 C 0.40204 0.77404 0.8281 0.0
H272 H 0.39557 0.82312 0.77777 0.0
H273 H 0.23072 0.78252 0.51179 0.0
H274 H 0.29193 0.79692 0.41316 0.0
H275 H 0.37106 0.80885 0.47108 0.0
H276 H 0.38966 0.80579 0.62771 0.0
C277 C 0.37826 0.7982 0.7924 0.0
C278 C 0.33005 0.79081 0.7586 0.0
C279 C 0.31956 0.79304 0.66661 0.0
C280 C 0.27374 0.78666 0.63312 0.0
C281 C 0.26467 0.78792 0.54091 0.0
C282 C 0.29954 0.79597 0.48345 0.0
C283 C 0.34411 0.8026 0.51604 0.0
C284 C 0.35426 0.80096 0.60631 0.0
H285 H 0.18303 0.82054 0.61229 0.0
C286 C 0.16616 0.79514 0.62229 0.0
H287 H 0.17282 0.74608 0.67254 0.0
H288 H 0.33756 0.78684 0.93851 0.0
H289 H 0.27635 0.77247 0.03714 0.0
H290 H 0.19722 0.76054 -0.02077 0.0
H291 H 0.17863 0.76355 0.82258 0.0
C292 C 0.19004 0.77102 0.65789 0.0
C293 C 0.23824 0.77849 0.69169 0.0
C294 C 0.24873 0.77628 0.78368 0.0
C295 C 0.29456 0.78266 0.81717 0.0
C296 C 0.30362 0.78142 0.90939 0.0
C297 C 0.26874 0.77341 0.96685 0.0
C298 C 0.22417 0.76677 0.93426 0.0
C299 C 0.21403 0.76838 0.84398 0.0
H300 H 0.48639 0.93887 0.93499 0.0
C301 C 0.51061 0.94425 0.88381 0.0
H302 H 0.55379 0.98246 0.8203 0.0
H303 H 0.45085 0.10313 0.92604 0.0
H304 H 0.42869 0.09965 0.77084 0.0
H305 H 0.44716 0.05265 0.68431 0.0
H306 H 0.48773 1.0087 0.7526 0.0
C307 C 0.52977 0.9762 0.87121 0.0
C308 C 0.51823 1.00431 0.92473 0.0
C309 C 0.49507 1.03011 0.88373 0.0
C310 C 0.48494 0.0575 0.93347 0.0
C311 C 0.46048 0.08226 0.89111 0.0
C312 C 0.44727 0.08045 0.80211 0.0
C313 C 0.45763 0.05396 0.7534 0.0
C314 C 0.48106 1.02896 0.79341 0.0
H315 H 0.53765 0.1225 0.01028 0.0
C316 C 0.51292 0.1196 0.06098 0.0
H317 H 0.46592 0.08479 0.12698 0.0
H318 H 0.56641 0.96079 0.0232 0.0
H319 H 0.58801 0.96416 0.17846 0.0
H320 H 0.56871 1.01085 0.26516 0.0
H321 H 0.52792 0.05465 0.19671 0.0
C322 C 0.49009 0.08894 0.07569 0.0
C323 C 0.49865 0.05944 0.02407 0.0
C324 C 0.52127 1.03344 0.06539 0.0
C325 C 0.53161 1.0061 0.0156 0.0
C326 C 0.55632 0.98151 0.05803 0.0
C327 C 0.56928 0.98327 0.14716 0.0
C328 C 0.55847 1.00958 0.19595 0.0
C329 C 0.53496 1.03453 0.15585 0.0
H330 H 0.05913 0.95277 0.61412 0.0
C331 C 0.0465 0.94337 0.55029 0.0
H332 H 0.0282 0.95549 0.41843 0.0
H333 H 0.94601 0.08687 0.49508 0.0
H334 H 0.87878 0.04682 0.50883 0.0
H335 H 0.88396 0.98575 0.51654 0.0
H336 H 0.95649 0.96443 0.51038 0.0
C337 C 0.04017 0.9651 0.48234 0.0
C338 C 0.0392 1.00179 0.49334 0.0
C339 C 0.99665 1.01395 0.49884 0.0
C340 C 0.9938 0.04918 0.49574 0.0
C341 C 0.95052 0.06045 0.49888 0.0
C342 C 0.91148 0.0377 0.50637 0.0
C343 C 0.91438 1.00333 0.51054 0.0
C344 C 0.9563 0.99145 0.50669 0.0
H345 H 0.05189 0.12092 0.35952 0.0
C346 C 0.03638 0.12961 0.41616 0.0
H347 H 1.01473 0.11834 0.54431 0.0
H348 H 0.12571 0.98673 0.48343 0.0
H349 H 0.19386 1.02676 0.47457 0.0
H350 H 0.18946 0.08793 0.47434 0.0
H351 H 0.11698 0.10956 0.4818 0.0
C352 C 0.02953 0.10911 0.48758 0.0
C353 C 0.03361 0.07234 0.4879 0.0
C354 C 0.07639 0.06018 0.48521 0.0
C355 C 0.07909 1.02482 0.48718 0.0
C356 C 0.12197 1.0133 0.48259 0.0
C357 C 0.16126 0.03599 0.4777 0.0
C358 C 0.15877 0.07045 0.47748 0.0
C359 C 0.11694 0.08255 0.4814 0.0
H360 H 1.02096 0.25161 0.06358 0.0
C361 C 0.03228 0.2767 0.0873 0.0
H362 H 0.0559 0.32721 0.05277 0.0
H363 H 0.09071 0.24042 0.70265 0.0
H364 H 0.14638 0.21491 0.79654 0.0
H365 H 0.15571 0.22686 0.95472 0.0
H366 H 0.10969 0.26445 0.01962 0.0
C367 C 0.04516 0.30186 0.03043 0.0
C368 C 0.04189 0.29615 0.93504 0.0
C369 C 0.0698 0.27449 0.89836 0.0
C370 C 0.06485 0.26795 0.8073 0.0
C371 C 0.09302 0.24624 0.7717 0.0
C372 C 0.12516 0.23144 0.8248 0.0
C373 C 0.13033 0.23809 0.91385 0.0
C374 C 0.10333 0.25952 0.95044 0.0
H375 H 0.05624 0.32894 0.62781 0.0
C376 C 0.04444 0.30416 0.6026 0.0
H377 H 1.01915 0.25363 0.63394 0.0
H378 H 0.98299 0.33867 -0.01391 0.0
H379 H 0.9264 0.36327 0.89251 0.0
H380 H 0.91678 0.35091 0.73458 0.0
H381 H 0.96397 0.31413 0.66932 0.0
C382 C 0.03032 0.27871 0.65781 0.0
C383 C 0.03272 0.28359 0.75351 0.0
C384 C 1.00433 0.30481 0.79039 0.0
C385 C 1.00934 0.31144 0.88139 0.0
C386 C 0.98073 0.3328 0.91706 0.0
C387 C 0.948 0.34704 0.86415 0.0
C388 C 0.94262 0.34012 0.77525 0.0
C389 C 0.97021 0.31916 0.73849 0.0
H390 H 0.03713 0.81997 0.8865 0.0
C391 C 0.03649 0.79454 0.86316 0.0
H392 H 0.03294 0.74269 0.89851 0.0
H393 H 0.10464 0.81567 0.27281 0.0
H394 H 0.17566 0.83118 0.2019 0.0
H395 H 0.18229 0.81998 0.04514 0.0
H396 H 0.11797 0.79316 0.95844 0.0
C397 C 0.03539 0.76839 0.9207 0.0
C398 C 0.03251 0.77359 0.01552 0.0
C399 C 0.0707 0.78892 0.06499 0.0
C400 C 0.06702 0.79503 0.1553 0.0
C401 C 0.10556 0.81043 0.20375 0.0
C402 C 0.14656 0.81943 0.16392 0.0
C403 C 0.15028 0.81314 0.07565 0.0
C404 C 0.11298 0.79793 0.02651 0.0
H405 H 1.02248 0.73857 0.32426 0.0
C406 C 1.02264 0.7639 0.34796 0.0
H407 H 1.0245 0.81573 0.31329 0.0
H408 H 0.95304 0.74373 0.93793 0.0
H409 H 0.88192 0.72857 0.00864 0.0
H410 H 0.87536 0.73969 0.16549 0.0
H411 H 0.94002 0.76584 0.25266 0.0
C412 C 1.02272 0.79011 0.29072 0.0
C413 C 1.02546 0.78521 0.19568 0.0
C414 C 0.98722 0.77001 0.1461 0.0
C415 C 0.99087 0.76395 0.05575 0.0
C416 C 0.95221 0.74881 0.00711 0.0
C417 C 0.91115 0.74001 0.04684 0.0
C418 C 0.90746 0.74627 0.13513 0.0
C419 C 0.9449 0.76115 0.1845 0.0
H420 H 0.54532 0.83039 0.12708 0.0
C421 C 0.54516 0.80506 0.10339 0.0
H422 H 0.54341 0.75324 0.13809 0.0
H423 H 0.61556 0.82505 0.51314 0.0
H424 H 0.68657 0.84013 0.44199 0.0
H425 H 0.6928 0.82908 0.285 0.0
H426 H 0.62792 0.80306 0.19815 0.0
C427 C 0.54516 0.77885 0.16063 0.0
C428 C 0.54258 0.78377 0.25569 0.0
C429 C 0.58093 0.7989 0.30506 0.0
C430 C 0.57747 0.80494 0.39547 0.0
C431 C 0.61624 0.81999 0.44392 0.0
C432 C 0.65724 0.82875 0.40394 0.0
C433 C 0.66075 0.82252 0.31557 0.0
C434 C 0.62319 0.80772 0.26639 0.0
H435 H 0.53145 0.74895 0.56494 0.0
C436 C 0.53213 0.77437 0.58831 0.0
H437 H 0.53563 0.82623 0.55301 0.0
H438 H 0.46322 0.75341 0.17898 0.0
H439 H 0.39233 0.73796 0.25035 0.0
H440 H 0.38601 0.74911 0.40723 0.0
H441 H 0.45051 0.77586 0.49358 0.0
C442 C 0.53318 0.80053 0.53081 0.0
C443 C 0.53589 0.79534 0.43595 0.0
C444 C 0.49759 0.78007 0.38669 0.0
C445 C 0.50109 0.77399 0.29632 0.0
C446 C 0.46244 0.75864 0.24808 0.0
C447 C 0.42151 0.74967 0.28818 0.0
C448 C 0.41796 0.75594 0.37651 0.0
C449 C 0.45536 0.7711 0.42545 0.0
H450 H 0.53965 0.31687 0.38773 0.0
C451 C 0.53751 0.29146 0.36356 0.0
H452 H 0.53381 0.23947 0.39712 0.0
H453 H 0.60633 0.31887 0.76589 0.0
H454 H 0.67583 0.33596 0.69148 0.0
H455 H 0.68221 0.32246 0.53611 0.0
H456 H 0.619 0.29192 0.45438 0.0
C457 C 0.53672 0.26505 0.42031 0.0
C458 C 0.53512 0.26995 0.51563 0.0
C459 C 0.57253 0.28772 0.56225 0.0
C460 C 0.56902 0.29506 0.65185 0.0
C461 C 0.60697 0.31267 0.69744 0.0
C462 C 0.64718 0.32258 0.65559 0.0
C463 C 0.65074 0.31504 0.56812 0.0
C464 C 0.61404 0.29772 0.52175 0.0
H465 H 0.51927 0.23843 0.82489 0.0
C466 C 0.52296 0.26413 0.84756 0.0
H467 H 0.53089 0.31587 0.81114 0.0
H468 H 0.4589 0.23249 0.44612 0.0
H469 H 0.39004 0.214 0.52127 0.0
H470 H 0.38229 0.2294 0.67469 0.0
H471 H 0.44389 0.2625 0.75446 0.0
C472 C 0.52623 0.29006 0.7893 0.0
C473 C 0.52839 0.28412 0.69445 0.0
C474 C 0.49112 0.26601 0.6479 0.0
C475 C 0.49495 0.25821 0.55873 0.0
C476 C 0.45783 0.23926 0.51406 0.0
C477 C 0.41803 0.22849 0.55637 0.0
C478 C 0.41369 0.23713 0.64272 0.0
C479 C 0.44952 0.2559 0.68804 0.0
loop_
_geom_bond_atom_site_label_1
_geom_bond_atom_site_label_2
_geom_bond_distance
_geom_bond_site_symmetry_2
_ccdc_geom_bond_type
Co0 N5 2.055 . S
Co0 O17 2.020 . S
Co0 O20 2.034 1_655 S
Co0 O24 2.116 1_655 S
Co0 O25 2.047 . S
C1 O21 1.259 . S
C1 O24 1.258 . S
Co2 N11 2.057 . S
Co2 O18 2.117 . S
Co2 O19 2.020 . S
Co2 O21 2.021 . S
Co2 O26 2.062 1_455 S
C3 N5 1.311 1_455 S
C3 N6 1.350 . S
C3 H8 0.933 . S
C4 N5 1.375 . S
C4 C7 1.350 . S
C4 H9 0.930 . S
N5 Co0 2.055 . S
N5 C3 1.311 1_655 S
N5 C4 1.375 . S
N6 C3 1.350 . S
N6 C7 1.373 1_455 S
C7 C4 1.350 . S
C7 N6 1.373 1_655 S
C7 H28 0.931 . S
H8 C3 0.933 . S
H9 C4 0.930 . S
C10 O17 1.259 1_455 S
C10 O18 1.258 . S
N11 Co2 2.057 . S
N11 C12 1.316 . S
N11 C13 1.375 . S
C12 N11 1.316 . S
C12 N14 1.347 . S
C12 H23 0.931 . S
C13 N11 1.375 . S
C13 C15 1.350 . S
C13 H22 0.930 . S
N14 C12 1.347 . S
N14 C15 1.373 . S
C15 C13 1.350 . S
C15 N14 1.373 . S
C15 H29 0.931 . S
C16 O19 1.256 . S
C16 O20 1.255 . S
O17 Co0 2.020 . S
O17 C10 1.259 1_655 S
O18 Co2 2.117 . S
O18 C10 1.258 . S
O19 Co2 2.020 . S
O19 C16 1.256 . S
O20 Co0 2.034 1_455 S
O20 C16 1.255 . S
O21 C1 1.259 . S
O21 Co2 2.021 . S
H22 C13 0.930 . S
H23 C12 0.931 . S
O24 Co0 2.116 1_455 S
O24 C1 1.258 . S
O25 Co0 2.047 . S
O25 C27 1.256 . S
O26 Co2 2.062 1_655 S
O26 C27 1.255 . S
C27 O25 1.256 . S
C27 O26 1.255 . S
H28 C7 0.931 . S
H29 C15 0.931 . S
Co30 N35 2.057 . S
Co30 O47 2.021 . S
Co30 O50 2.062 1_655 S
Co30 O54 2.117 1_655 S
Co30 O55 2.020 . S
C31 O51 1.259 . S
C31 O54 1.258 . S
Co32 N41 2.057 . S
Co32 O48 2.117 . S
Co32 O49 2.020 . S
Co32 O51 2.021 . S
Co32 O56 2.062 1_455 S
C33 N35 1.316 . S
C33 N36 1.347 1_655 S
C33 H38 0.928 1_655 S
C34 N35 1.375 . S
C34 C37 1.350 . S
C34 H39 0.930 . S
N35 Co30 2.057 . S
N35 C33 1.316 . S
N35 C34 1.375 . S
N36 C33 1.347 1_455 S
N36 C37 1.374 1_455 S
C37 C34 1.350 . S
C37 N36 1.374 1_655 S
C37 H58 0.931 . S
H38 C33 0.928 1_455 S
H39 C34 0.930 . S
C40 O47 1.259 1_455 S
C40 O48 1.258 . S
N41 Co32 2.057 . S
N41 C42 1.316 . S
N41 C43 1.375 . S
C42 N41 1.316 . S
C42 N44 1.347 . S
C42 H53 0.931 . S
C43 N41 1.375 . S
C43 C45 1.350 . S
C43 H52 0.930 . S
N44 C42 1.347 . S
N44 C45 1.373 . S
C45 C43 1.350 . S
C45 N44 1.373 . S
C45 H59 0.931 . S
C46 O49 1.256 . S
C46 O50 1.255 . S
O47 Co30 2.021 . S
O47 C40 1.259 1_655 S
O48 Co32 2.117 . S
O48 C40 1.258 . S
O49 Co32 2.020 . S
O49 C46 1.256 . S
O50 Co30 2.062 1_455 S
O50 C46 1.255 . S
O51 C31 1.259 . S
O51 Co32 2.021 . S
H52 C43 0.930 . S
H53 C42 0.931 . S
O54 Co30 2.117 1_455 S
O54 C31 1.258 . S
O55 Co30 2.020 . S
O55 C57 1.256 . S
O56 Co32 2.062 1_655 S
O56 C57 1.255 . S
C57 O55 1.256 . S
C57 O56 1.255 . S
H58 C37 0.931 . S
H59 C45 0.931 . S
Co60 N65 2.057 . S
Co60 O77 2.021 . S
Co60 O80 2.062 . S
Co60 O84 2.117 1_556 S
Co60 O85 2.020 . S
C61 O81 1.259 . S
C61 O84 1.258 . S
Co62 N71 2.057 . S
Co62 O78 2.117 . S
Co62 O79 2.020 . S
Co62 O81 2.021 1_556 S
Co62 O86 2.062 . S
C63 N65 1.316 . S
C63 N66 1.347 . S
C63 H68 0.931 . S
C64 N65 1.375 . S
C64 C67 1.350 . S
C64 H69 0.930 1_556 S
N65 Co60 2.057 . S
N65 C63 1.316 . S
N65 C64 1.375 . S
N66 C63 1.347 . S
N66 C67 1.373 . S
C67 C64 1.350 . S
C67 N66 1.373 . S
C67 H88 0.931 1_556 S
H68 C63 0.931 . S
H69 C64 0.930 1_554 S
C70 O77 1.259 . S
C70 O78 1.258 . S
N71 Co62 2.057 . S
N71 C72 1.316 . S
N71 C73 1.375 . S
C72 N71 1.316 . S
C72 N74 1.347 . S
C72 H83 0.931 . S
C73 N71 1.375 . S
C73 C75 1.350 . S
C73 H82 0.930 . S
N74 C72 1.347 . S
N74 C75 1.373 . S
C75 C73 1.350 . S
C75 N74 1.373 . S
C75 H89 0.931 . S
C76 O79 1.256 . S
C76 O80 1.255 . S
O77 Co60 2.021 . S
O77 C70 1.259 . S
O78 Co62 2.117 . S
O78 C70 1.258 . S
O79 Co62 2.020 . S
O79 C76 1.256 . S
O80 Co60 2.062 . S
O80 C76 1.255 . S
O81 C61 1.259 . S
O81 Co62 2.021 1_554 S
H82 C73 0.930 . S
H83 C72 0.931 . S
O84 Co60 2.117 1_554 S
O84 C61 1.258 . S
O85 Co60 2.020 . S
O85 C87 1.256 . S
O86 Co62 2.062 . S
O86 C87 1.255 . S
C87 O85 1.256 . S
C87 O86 1.255 . S
H88 C67 0.931 1_554 S
H89 C75 0.931 . S
Co90 N95 2.057 . S
Co90 O107 2.021 1_554 S
Co90 O110 2.062 . S
Co90 O114 2.117 . S
Co90 O115 2.020 . S
C91 O111 1.259 . S
C91 O114 1.258 . S
Co92 N101 2.057 . S
Co92 O108 2.117 1_554 S
Co92 O109 2.020 . S
Co92 O111 2.021 . S
Co92 O116 2.062 . S
C93 N95 1.316 . S
C93 N96 1.347 . S
C93 H98 0.931 . S
C94 N95 1.375 . S
C94 C97 1.350 . S
C94 H99 0.930 . S
N95 Co90 2.057 . S
N95 C93 1.316 . S
N95 C94 1.375 . S
N96 C93 1.347 . S
N96 C97 1.373 . S
C97 C94 1.350 . S
C97 N96 1.373 . S
C97 H118 0.931 . S
H98 C93 0.931 . S
H99 C94 0.930 . S
C100 O107 1.259 . S
C100 O108 1.258 . S
N101 Co92 2.057 . S
N101 C102 1.316 . S
N101 C103 1.375 . S
C102 N101 1.316 . S
C102 N104 1.347 . S
C102 H113 0.931 . S
C103 N101 1.375 . S
C103 C105 1.350 . S
C103 H112 0.930 1_554 S
N104 C102 1.347 . S
N104 C105 1.373 . S
C105 C103 1.350 . S
C105 N104 1.373 . S
C105 H119 0.931 1_554 S
C106 O109 1.256 . S
C106 O110 1.255 . S
O107 Co90 2.021 1_556 S
O107 C100 1.259 . S
O108 Co92 2.117 1_556 S
O108 C100 1.258 . S
O109 Co92 2.020 . S
O109 C106 1.256 . S
O110 Co90 2.062 . S
O110 C106 1.255 . S
O111 C91 1.259 . S
O111 Co92 2.021 . S
H112 C103 0.930 1_556 S
H113 C102 0.931 . S
O114 Co90 2.117 . S
O114 C91 1.258 . S
O115 Co90 2.020 . S
O115 C117 1.256 . S
O116 Co92 2.062 . S
O116 C117 1.255 . S
C117 O115 1.256 . S
C117 O116 1.255 . S
H118 C97 0.931 . S
H119 C105 0.931 1_556 S
H120 C121 0.951 . S
C121 H120 0.951 . S
C121 C127 1.265 1_455 S
H122 C127 0.950 . S
H123 C131 0.949 . S
H124 C132 0.950 . S
H125 C133 0.951 . S
H126 C134 0.951 . S
C127 C121 1.265 1_655 S
C127 H122 0.950 . S
C127 C128 1.478 . S
C128 C127 1.478 . S
C128 C129 1.397 . S
C128 C145 1.394 1_655 S
C129 C128 1.397 . S
C129 C130 1.438 . S
C129 C134 1.429 . S
C130 C129 1.438 . S
C130 C131 1.428 . S
C130 C143 1.394 1_655 S
C131 H123 0.949 . S
C131 C130 1.428 . S
C131 C132 1.345 . S
C132 H124 0.950 . S
C132 C131 1.345 . S
C132 C133 1.424 . S
C133 H125 0.951 . S
C133 C132 1.424 . S
C133 C134 1.347 . S
C134 H126 0.951 . S
C134 C129 1.429 . S
C134 C133 1.347 . S
H135 C136 0.957 . S
C136 H135 0.957 . S
C136 C142 1.259 1_655 S
H137 C142 0.950 . S
H138 C146 0.949 . S
H139 C147 0.950 . S
H140 C148 0.951 . S
H141 C149 0.951 . S
C142 C136 1.259 1_455 S
C142 H137 0.950 . S
C142 C143 1.478 . S
C143 C130 1.394 1_455 S
C143 C142 1.478 . S
C143 C144 1.397 . S
C144 C143 1.397 . S
C144 C145 1.438 . S
C144 C149 1.429 . S
C145 C128 1.394 1_455 S
C145 C144 1.438 . S
C145 C146 1.428 . S
C146 H138 0.949 . S
C146 C145 1.428 . S
C146 C147 1.345 . S
C147 H139 0.950 . S
C147 C146 1.345 . S
C147 C148 1.424 . S
C148 H140 0.951 . S
C148 C147 1.424 . S
C148 C149 1.347 . S
C149 H141 0.951 . S
C149 C144 1.429 . S
C149 C148 1.347 . S
H150 C151 0.951 . S
C151 H150 0.951 . S
C151 C157 1.265 . S
H152 C157 0.950 . S
H153 C161 0.949 . S
H154 C162 0.950 . S
H155 C163 0.951 . S
H156 C164 0.951 . S
C157 C151 1.265 . S
C157 H152 0.950 . S
C157 C158 1.478 . S
C158 C157 1.478 . S
C158 C159 1.397 . S
C158 C175 1.394 . S
C159 C158 1.397 . S
C159 C160 1.438 . S
C159 C164 1.429 . S
C160 C159 1.438 . S
C160 C161 1.428 . S
C160 C173 1.394 . S
C161 H153 0.949 . S
C161 C160 1.428 . S
C161 C162 1.345 . S
C162 H154 0.950 . S
C162 C161 1.345 . S
C162 C163 1.424 . S
C163 H155 0.951 . S
C163 C162 1.424 . S
C163 C164 1.347 . S
C164 H156 0.951 . S
C164 C159 1.429 . S
C164 C163 1.347 . S
H165 C166 0.951 . S
C166 H165 0.951 . S
C166 C172 1.265 . S
H167 C172 0.950 . S
H168 C176 0.949 . S
H169 C177 0.950 1_554 S
H170 C178 0.951 1_554 S
H171 C179 0.951 . S
C172 C166 1.265 . S
C172 H167 0.950 . S
C172 C173 1.478 . S
C173 C160 1.394 . S
C173 C172 1.478 . S
C173 C174 1.397 . S
C174 C173 1.397 . S
C174 C175 1.438 . S
C174 C179 1.429 . S
C175 C158 1.394 . S
C175 C174 1.438 . S
C175 C176 1.428 . S
C176 H168 0.949 . S
C176 C175 1.428 . S
C176 C177 1.345 . S
C177 H169 0.950 1_556 S
C177 C176 1.345 . S
C177 C178 1.424 . S
C178 H170 0.951 1_556 S
C178 C177 1.424 . S
C178 C179 1.347 . S
C179 H171 0.951 . S
C179 C174 1.429 . S
C179 C178 1.347 . S
H180 C181 0.951 . S
C181 H180 0.951 . S
C181 C187 1.265 . S
H182 C187 0.950 . S
H183 C191 0.949 . S
H184 C192 0.950 . S
H185 C193 0.951 . S
H186 C194 0.951 . S
C187 C181 1.265 . S
C187 H182 0.950 . S
C187 C188 1.478 . S
C188 C187 1.478 . S
C188 C189 1.397 . S
C188 C205 1.394 1_554 S
C189 C188 1.397 . S
C189 C190 1.438 . S
C189 C194 1.429 . S
C190 C189 1.438 . S
C190 C191 1.428 . S
C190 C203 1.394 1_554 S
C191 H183 0.949 . S
C191 C190 1.428 . S
C191 C192 1.345 . S
C192 H184 0.950 . S
C192 C191 1.345 . S
C192 C193 1.424 . S
C193 H185 0.951 . S
C193 C192 1.424 . S
C193 C194 1.347 . S
C194 H186 0.951 . S
C194 C189 1.429 . S
C194 C193 1.347 . S
H195 C196 0.951 . S
C196 H195 0.951 . S
C196 C202 1.265 . S
H197 C202 0.950 . S
H198 C206 0.949 . S
H199 C207 0.950 . S
H200 C208 0.951 . S
H201 C209 0.951 . S
C202 C196 1.265 . S
C202 H197 0.950 . S
C202 C203 1.478 . S
C203 C190 1.394 1_556 S
C203 C202 1.478 . S
C203 C204 1.397 . S
C204 C203 1.397 . S
C204 C205 1.438 . S
C204 C209 1.429 . S
C205 C188 1.394 1_556 S
C205 C204 1.438 . S
C205 C206 1.428 . S
C206 H198 0.949 . S
C206 C205 1.428 . S
C206 C207 1.345 . S
C207 H199 0.950 . S
C207 C206 1.345 . S
C207 C208 1.424 . S
C208 H200 0.951 . S
C208 C207 1.424 . S
C208 C209 1.347 . S
C209 H201 0.951 . S
C209 C204 1.429 . S
C209 C208 1.347 . S
H210 C211 0.951 . S
C211 H210 0.951 . S
C211 C217 1.265 . S
H212 C217 0.950 . S
H213 C221 0.949 . S
H214 C222 0.950 . S
H215 C223 0.951 . S
H216 C224 0.951 . S
C217 C211 1.265 . S
C217 H212 0.950 . S
C217 C218 1.478 . S
C218 C217 1.478 . S
C218 C219 1.397 . S
C218 C235 1.394 . S
C219 C218 1.397 . S
C219 C220 1.438 . S
C219 C224 1.429 . S
C220 C219 1.438 . S
C220 C221 1.428 . S
C220 C233 1.394 . S
C221 H213 0.949 . S
C221 C220 1.428 . S
C221 C222 1.345 . S
C222 H214 0.950 . S
C222 C221 1.345 . S
C222 C223 1.424 . S
C223 H215 0.951 . S
C223 C222 1.424 . S
C223 C224 1.347 . S
C224 H216 0.951 . S
C224 C219 1.429 . S
C224 C223 1.347 . S
H225 C226 0.951 . S
C226 H225 0.951 . S
C226 C232 1.265 . S
H227 C232 0.950 . S
H228 C236 0.949 . S
H229 C237 0.950 . S
H230 C238 0.951 . S
H231 C239 0.951 . S
C232 C226 1.265 . S
C232 H227 0.950 . S
C232 C233 1.478 . S
C233 C220 1.394 . S
C233 C232 1.478 . S
C233 C234 1.397 . S
C234 C233 1.397 . S
C234 C235 1.438 . S
C234 C239 1.429 . S
C235 C218 1.394 . S
C235 C234 1.438 . S
C235 C236 1.428 . S
C236 H228 0.949 . S
C236 C235 1.428 . S
C236 C237 1.345 . S
C237 H229 0.950 . S
C237 C236 1.345 . S
C237 C238 1.424 . S
C238 H230 0.951 . S
C238 C237 1.424 . S
C238 C239 1.347 . S
C239 H231 0.951 . S
C239 C234 1.429 . S
C239 C238 1.347 . S
H240 C241 0.951 . S
C241 H240 0.951 . S
C241 C247 1.265 . S
H242 C247 0.950 . S
H243 C251 0.949 . S
H244 C252 0.950 . S
H245 C253 0.951 . S
H246 C254 0.951 . S
C247 C241 1.265 . S
C247 H242 0.950 . S
C247 C248 1.478 . S
C248 C247 1.478 . S
C248 C249 1.397 . S
C248 C265 1.394 . S
C249 C248 1.397 . S
C249 C250 1.438 . S
C249 C254 1.429 . S
C250 C249 1.438 . S
C250 C251 1.428 . S
C250 C263 1.394 . S
C251 H243 0.949 . S
C251 C250 1.428 . S
C251 C252 1.345 . S
C252 H244 0.950 . S
C252 C251 1.345 . S
C252 C253 1.424 . S
C253 H245 0.951 . S
C253 C252 1.424 . S
C253 C254 1.347 . S
C254 H246 0.951 . S
C254 C249 1.429 . S
C254 C253 1.347 . S
H255 C256 0.951 . S
C256 H255 0.951 . S
C256 C262 1.265 . S
H257 C262 0.950 . S
H258 C266 0.949 . S
H259 C267 0.950 . S
H260 C268 0.951 . S
H261 C269 0.951 . S
C262 C256 1.265 . S
C262 H257 0.950 . S
C262 C263 1.478 . S
C263 C250 1.394 . S
C263 C262 1.478 . S
C263 C264 1.397 . S
C264 C263 1.397 . S
C264 C265 1.438 . S
C264 C269 1.429 . S
C265 C248 1.394 . S
C265 C264 1.438 . S
C265 C266 1.428 . S
C266 H258 0.949 . S
C266 C265 1.428 . S
C266 C267 1.345 . S
C267 H259 0.950 . S
C267 C266 1.345 . S
C267 C268 1.424 . S
C268 H260 0.951 . S
C268 C267 1.424 . S
C268 C269 1.347 . S
C269 H261 0.951 . S
C269 C264 1.429 . S
C269 C268 1.347 . S
H270 C271 0.951 . S
C271 H270 0.951 . S
C271 C277 1.265 . S
H272 C277 0.950 . S
H273 C281 0.949 . S
H274 C282 0.950 . S
H275 C283 0.951 . S
H276 C284 0.951 . S
C277 C271 1.265 . S
C277 H272 0.950 . S
C277 C278 1.478 . S
C278 C277 1.478 . S
C278 C279 1.397 . S
C278 C295 1.394 . S
C279 C278 1.397 . S
C279 C280 1.438 . S
C279 C284 1.429 . S
C280 C279 1.438 . S
C280 C281 1.428 . S
C280 C293 1.394 . S
C281 H273 0.949 . S
C281 C280 1.428 . S
C281 C282 1.345 . S
C282 H274 0.950 . S
C282 C281 1.345 . S
C282 C283 1.424 . S
C283 H275 0.951 . S
C283 C282 1.424 . S
C283 C284 1.347 . S
C284 H276 0.951 . S
C284 C279 1.429 . S
C284 C283 1.347 . S
H285 C286 0.951 . S
C286 H285 0.951 . S
C286 C292 1.265 . S
H287 C292 0.950 . S
H288 C296 0.949 . S
H289 C297 0.950 . S
H290 C298 0.951 . S
H291 C299 0.951 . S
C292 C286 1.265 . S
C292 H287 0.950 . S
C292 C293 1.478 . S
C293 C280 1.394 . S
C293 C292 1.478 . S
C293 C294 1.397 . S
C294 C293 1.397 . S
C294 C295 1.438 . S
C294 C299 1.429 . S
C295 C278 1.394 . S
C295 C294 1.438 . S
C295 C296 1.428 . S
C296 H288 0.949 . S
C296 C295 1.428 . S
C296 C297 1.345 . S
C297 H289 0.950 . S
C297 C296 1.345 . S
C297 C298 1.424 . S
C298 H290 0.951 . S
C298 C297 1.424 . S
C298 C299 1.347 . S
C299 H291 0.951 . S
C299 C294 1.429 . S
C299 C298 1.347 . S
H300 C301 0.951 . S
C301 H300 0.951 . S
C301 C307 1.265 . S
H302 C307 0.950 . S
H303 C311 0.949 . S
H304 C312 0.950 . S
H305 C313 0.951 . S
H306 C314 0.951 1_565 S
C307 C301 1.265 . S
C307 H302 0.950 . S
C307 C308 1.478 . S
C308 C307 1.478 . S
C308 C309 1.365 1_565 S
C308 C325 1.394 1_556 S
C309 C308 1.365 1_545 S
C309 C310 1.472 . S
C309 C314 1.429 . S
C310 C309 1.472 . S
C310 C311 1.428 . S
C310 C323 1.394 1_556 S
C311 H303 0.949 . S
C311 C310 1.428 . S
C311 C312 1.345 . S
C312 H304 0.950 . S
C312 C311 1.345 . S
C312 C313 1.424 . S
C313 H305 0.951 . S
C313 C312 1.424 . S
C313 C314 1.347 . S
C314 H306 0.951 1_545 S
C314 C309 1.429 . S
C314 C313 1.347 . S
H315 C316 0.951 . S
C316 H315 0.951 . S
C316 C322 1.265 . S
H317 C322 0.950 . S
H318 C326 0.949 . S
H319 C327 0.950 . S
H320 C328 0.951 . S
H321 C329 0.951 1_545 S
C322 C316 1.265 . S
C322 H317 0.950 . S
C322 C323 1.478 . S
C323 C310 1.394 1_554 S
C323 C322 1.478 . S
C323 C324 1.365 1_545 S
C324 C323 1.365 1_565 S
C324 C325 1.472 . S
C324 C329 1.429 . S
C325 C308 1.394 1_554 S
C325 C324 1.472 . S
C325 C326 1.428 . S
C326 H318 0.949 . S
C326 C325 1.428 . S
C326 C327 1.345 . S
C327 H319 0.950 . S
C327 C326 1.345 . S
C327 C328 1.424 . S
C328 H320 0.951 . S
C328 C327 1.424 . S
C328 C329 1.347 . S
C329 H321 0.951 1_565 S
C329 C324 1.429 . S
C329 C328 1.347 . S
H330 C331 0.951 . S
C331 H330 0.951 . S
C331 C337 1.265 1_455 S
H332 C337 0.950 . S
H333 C341 0.949 . S
H334 C342 0.950 . S
H335 C343 0.951 . S
H336 C344 0.951 . S
C337 C331 1.265 1_655 S
C337 H332 0.950 . S
C337 C338 1.478 . S
C338 C337 1.478 . S
C338 C339 1.397 . S
C338 C355 1.394 1_655 S
C339 C338 1.397 . S
C339 C340 1.438 1_665 S
C339 C344 1.429 . S
C340 C339 1.438 1_445 S
C340 C341 1.428 . S
C340 C353 1.394 . S
C341 H333 0.949 . S
C341 C340 1.428 . S
C341 C342 1.345 1_455 S
C342 H334 0.950 . S
C342 C341 1.345 1_655 S
C342 C343 1.424 . S
C343 H335 0.951 . S
C343 C342 1.424 . S
C343 C344 1.347 1_545 S
C344 H336 0.951 . S
C344 C339 1.429 . S
C344 C343 1.347 1_565 S
H345 C346 0.951 1_655 S
C346 H345 0.951 1_455 S
C346 C352 1.265 . S
H347 C352 0.950 . S
H348 C356 0.946 1_655 S
H349 C357 0.950 . S
H350 C358 0.951 . S
H351 C359 0.951 . S
C352 C346 1.265 . S
C352 H347 0.950 . S
C352 C353 1.478 . S
C353 C340 1.394 . S
C353 C352 1.478 . S
C353 C354 1.397 . S
C354 C353 1.397 . S
C354 C355 1.438 1_545 S
C354 C359 1.429 . S
C355 C338 1.394 1_455 S
C355 C354 1.438 1_565 S
C355 C356 1.428 . S
C356 H348 0.946 1_455 S
C356 C355 1.428 . S
C356 C357 1.345 . S
C357 H349 0.950 . S
C357 C356 1.345 . S
C357 C358 1.424 . S
C358 H350 0.951 . S
C358 C357 1.424 . S
C358 C359 1.347 1_565 S
C359 H351 0.951 . S
C359 C354 1.429 . S
C359 C358 1.347 1_545 S
H360 C361 0.951 1_655 S
C361 H360 0.951 1_455 S
C361 C367 1.265 . S
H362 C367 0.950 . S
H363 C371 0.949 . S
H364 C372 0.950 . S
H365 C373 0.951 . S
H366 C374 0.951 1_554 S
C367 C361 1.265 . S
C367 H362 0.950 . S
C367 C368 1.478 1_554 S
C368 C367 1.478 1_556 S
C368 C369 1.397 . S
C368 C385 1.394 . S
C369 C368 1.397 . S
C369 C370 1.438 . S
C369 C374 1.429 . S
C370 C369 1.438 . S
C370 C371 1.428 . S
C370 C383 1.394 1_455 S
C371 H363 0.949 . S
C371 C370 1.428 . S
C371 C372 1.345 . S
C372 H364 0.950 . S
C372 C371 1.345 . S
C372 C373 1.424 . S
C373 H365 0.951 . S
C373 C372 1.424 . S
C373 C374 1.347 . S
C374 H366 0.951 1_556 S
C374 C369 1.429 . S
C374 C373 1.347 . S
H375 C376 0.951 . S
C376 H375 0.951 . S
C376 C382 1.265 1_455 S
H377 C382 0.950 . S
H378 C386 0.949 1_454 S
H379 C387 0.950 . S
H380 C388 0.951 . S
H381 C389 0.951 . S
C382 C376 1.265 1_655 S
C382 H377 0.950 . S
C382 C383 1.478 . S
C383 C370 1.394 1_655 S
C383 C382 1.478 . S
C383 C384 1.397 . S
C384 C383 1.397 . S
C384 C385 1.438 1_655 S
C384 C389 1.429 . S
C385 C368 1.394 . S
C385 C384 1.438 1_455 S
C385 C386 1.428 1_455 S
C386 H378 0.949 1_656 S
C386 C385 1.428 1_655 S
C386 C387 1.345 . S
C387 H379 0.950 . S
C387 C386 1.345 . S
C387 C388 1.424 . S
C388 H380 0.951 . S
C388 C387 1.424 . S
C388 C389 1.347 . S
C389 H381 0.951 . S
C389 C384 1.429 . S
C389 C388 1.347 . S
H390 C391 0.968 . S
C391 H390 0.968 . S
C391 C397 1.254 1_655 S
H392 C397 0.950 . S
H393 C401 0.949 . S
H394 C402 0.950 . S
H395 C403 0.951 . S
H396 C404 0.951 1_556 S
C397 C391 1.254 1_455 S
C397 H392 0.950 . S
C397 C398 1.478 1_556 S
C398 C397 1.478 1_554 S
C398 C399 1.397 . S
C398 C415 1.394 1_455 S
C399 C398 1.397 . S
C399 C400 1.438 . S
C399 C404 1.429 . S
C400 C399 1.438 . S
C400 C401 1.428 . S
C400 C413 1.394 1_455 S
C401 H393 0.949 . S
C401 C400 1.428 . S
C401 C402 1.345 . S
C402 H394 0.950 . S
C402 C401 1.345 . S
C402 C403 1.424 . S
C403 H395 0.951 . S
C403 C402 1.424 . S
C403 C404 1.347 . S
C404 H396 0.951 1_554 S
C404 C399 1.429 . S
C404 C403 1.347 . S
H405 C406 0.951 . S
C406 H405 0.951 . S
C406 C412 1.265 1_455 S
H407 C412 0.950 . S
H408 C416 0.949 1_556 S
H409 C417 0.950 . S
H410 C418 0.951 . S
H411 C419 0.951 . S
C412 C406 1.265 1_655 S
C412 H407 0.950 . S
C412 C413 1.478 . S
C413 C400 1.394 1_655 S
C413 C412 1.478 . S
C413 C414 1.397 . S
C414 C413 1.397 . S
C414 C415 1.438 . S
C414 C419 1.429 . S
C415 C398 1.394 1_655 S
C415 C414 1.438 . S
C415 C416 1.428 . S
C416 H408 0.949 1_554 S
C416 C415 1.428 . S
C416 C417 1.345 . S
C417 H409 0.950 . S
C417 C416 1.345 . S
C417 C418 1.424 . S
C418 H410 0.951 . S
C418 C417 1.424 . S
C418 C419 1.347 . S
C419 H411 0.951 . S
C419 C414 1.429 . S
C419 C418 1.347 . S
H420 C421 0.951 . S
C421 H420 0.951 . S
C421 C427 1.265 . S
H422 C427 0.950 . S
H423 C431 0.949 . S
H424 C432 0.950 . S
H425 C433 0.951 . S
H426 C434 0.951 . S
C427 C421 1.265 . S
C427 H422 0.950 . S
C427 C428 1.478 . S
C428 C427 1.478 . S
C428 C429 1.397 . S
C428 C445 1.394 . S
C429 C428 1.397 . S
C429 C430 1.438 . S
C429 C434 1.429 . S
C430 C429 1.438 . S
C430 C431 1.428 . S
C430 C443 1.394 . S
C431 H423 0.949 . S
C431 C430 1.428 . S
C431 C432 1.345 . S
C432 H424 0.950 . S
C432 C431 1.345 . S
C432 C433 1.424 . S
C433 H425 0.951 . S
C433 C432 1.424 . S
C433 C434 1.347 . S
C434 H426 0.951 . S
C434 C429 1.429 . S
C434 C433 1.347 . S
H435 C436 0.951 . S
C436 H435 0.951 . S
C436 C442 1.265 . S
H437 C442 0.950 . S
H438 C446 0.949 . S
H439 C447 0.950 . S
H440 C448 0.951 . S
H441 C449 0.951 . S
C442 C436 1.265 . S
C442 H437 0.950 . S
C442 C443 1.478 . S
C443 C430 1.394 . S
C443 C442 1.478 . S
C443 C444 1.397 . S
C444 C443 1.397 . S
C444 C445 1.438 . S
C444 C449 1.429 . S
C445 C428 1.394 . S
C445 C444 1.438 . S
C445 C446 1.428 . S
C446 H438 0.949 . S
C446 C445 1.428 . S
C446 C447 1.345 . S
C447 H439 0.950 . S
C447 C446 1.345 . S
C447 C448 1.424 . S
C448 H440 0.951 . S
C448 C447 1.424 . S
C448 C449 1.347 . S
C449 H441 0.951 . S
C449 C444 1.429 . S
C449 C448 1.347 . S
H450 C451 0.951 . S
C451 H450 0.951 . S
C451 C457 1.265 . S
H452 C457 0.950 . S
H453 C461 0.949 . S
H454 C462 0.950 . S
H455 C463 0.951 . S
H456 C464 0.951 . S
C457 C451 1.265 . S
C457 H452 0.950 . S
C457 C458 1.478 . S
C458 C457 1.478 . S
C458 C459 1.397 . S
C458 C475 1.394 . S
C459 C458 1.397 . S
C459 C460 1.438 . S
C459 C464 1.429 . S
C460 C459 1.438 . S
C460 C461 1.428 . S
C460 C473 1.394 . S
C461 H453 0.949 . S
C461 C460 1.428 . S
C461 C462 1.345 . S
C462 H454 0.950 . S
C462 C461 1.345 . S
C462 C463 1.424 . S
C463 H455 0.951 . S
C463 C462 1.424 . S
C463 C464 1.347 . S
C464 H456 0.951 . S
C464 C459 1.429 . S
C464 C463 1.347 . S
H465 C466 0.951 . S
C466 H465 0.951 . S
C466 C472 1.265 . S
H467 C472 0.950 . S
H468 C476 0.949 . S
H469 C477 0.950 . S
H470 C478 0.951 . S
H471 C479 0.951 . S
C472 C466 1.265 . S
C472 H467 0.950 . S
C472 C473 1.478 . S
C473 C460 1.394 . S
C473 C472 1.478 . S
C473 C474 1.397 . S
C474 C473 1.397 . S
C474 C475 1.438 . S
C474 C479 1.429 . S
C475 C458 1.394 . S
C475 C474 1.438 . S
C475 C476 1.428 . S
C476 H468 0.949 . S
C476 C475 1.428 . S
C476 C477 1.345 . S
C477 H469 0.950 . S
C477 C476 1.345 . S
C477 C478 1.424 . S
C478 H470 0.951 . S
C478 C477 1.424 . S
C478 C479 1.347 . S
C479 H471 0.951 . S
C479 C474 1.429 . S
C479 C478 1.347 . S
C121 N14 1.815 . S
C136 N36 1.816 1_655 S
C151 C76 1.811 . S
C166 C57 1.811 . S
C181 N104 1.575 . S
C196 N66 1.575 . S
C211 C27 1.718 . S
C226 C106 1.718 . S
C241 C117 1.769 . S
C256 C16 1.769 . S
C271 C87 1.666 . S
C286 C46 1.666 . S
C301 N74 1.844 . S
C316 N96 1.844 . S
C331 N44 1.575 . S
C346 N6 1.575 . S
C361 C10 0.867 . S
C376 C1 0.867 . S
C391 C31 0.882 1_655 S
C406 C40 0.887 . S
C421 C61 0.887 . S
C436 C70 0.887 . S
C451 C91 0.881 . S
C466 C100 0.881 . S
