# Generated by pormake.
# Topology uoo, (4)-cn, num edge types: 1
# Building blocks:
#     Node 0, Type 0, BuildingBlock: CEKHIL_clean_sbu_0, # of connection points: 4
#     Node 1, Type 0, BuildingBlock: CEKHIL_clean_sbu_0, # of connection points: 4
#     Node 2, Type 0, BuildingBlock: CEKHIL_clean_sbu_0, # of connection points: 4
#     Node 3, Type 0, BuildingBlock: CEKHIL_clean_sbu_0, # of connection points: 4
#     Node 4, Type 0, BuildingBlock: CEKHIL_clean_sbu_0, # of connection points: 4
#     Node 5, Type 0, BuildingBlock: CEKHIL_clean_sbu_0, # of connection points: 4
#     Edge 6, Type (0, 0), BuildingBlock: XUDNAN_clean_linker_2, # of connection points: 2
#     Edge 7, Type (0, 0), BuildingBlock: XUDNAN_clean_linker_2, # of connection points: 2
#     Edge 8, Type (0, 0), BuildingBlock: XUDNAN_clean_linker_2, # of connection points: 2
#     Edge 9, Type (0, 0), BuildingBlock: XUDNAN_clean_linker_2, # of connection points: 2
#     Edge 10, Type (0, 0), BuildingBlock: XUDNAN_clean_linker_2, # of connection points: 2
#     Edge 11, Type (0, 0), BuildingBlock: XUDNAN_clean_linker_2, # of connection points: 2
#     Edge 12, Type (0, 0), BuildingBlock: XUDNAN_clean_linker_2, # of connection points: 2
#     Edge 13, Type (0, 0), BuildingBlock: XUDNAN_clean_linker_2, # of connection points: 2
#     Edge 14, Type (0, 0), BuildingBlock: XUDNAN_clean_linker_2, # of connection points: 2
#     Edge 15, Type (0, 0), BuildingBlock: XUDNAN_clean_linker_2, # of connection points: 2
#     Edge 16, Type (0, 0), BuildingBlock: XUDNAN_clean_linker_2, # of connection points: 2
#     Edge 17, Type (0, 0), BuildingBlock: XUDNAN_clean_linker_2, # of connection points: 2
# Relax obj value: 0.250
# Max RMSD: 0.172
# Mean RMSD: 0.172
data_MOF--net-uoo--node1-CEKHIL_clean_sbu_0--edge1-XUDNAN_clean_linker_2
_symmetry_space_group_name_H-M    P1
_symmetry_Int_Tables_number       1
_symmetry_cell_setting            triclinic
loop_
_symmetry_equiv_pos_as_xyz
'x, y, z'
_cell_length_a     24.267882
_cell_length_b     24.23266
_cell_length_c     38.258864
_cell_angle_alpha  90.009066
_cell_angle_beta   89.978667
_cell_angle_gamma 119.99121
loop_
_atom_site_label
_atom_site_type_symbol
_atom_site_fract_x
_atom_site_fract_y
_atom_site_fract_z
_atom_type_partial_charge
Co0 Co 0.17703 0.31443 0.01253 0.0
O1 O 0.10437 0.32698 0.01115 0.0
O2 O 0.20213 0.39898 0.02741 0.0
C3 C 0.16189 0.26752 0.95994 0.0
O4 O 0.26471 0.32549 0.01607 0.0
Co5 Co 0.17635 0.18782 0.01148 0.0
O6 O 0.26655 0.24006 0.996 0.0
C7 C 0.14095 0.22882 0.0764 0.0
C8 C 0.14382 0.38465 0.02186 0.0
C9 C 0.29482 0.29894 0.00384 0.0
O10 O 0.1556 0.28234 0.06195 0.0
O11 O 0.14364 0.18378 0.06039 0.0
O12 O 0.18934 0.32918 0.96244 0.0
O13 O 0.14118 0.23583 0.98883 0.0
Co14 Co 0.83309 0.16114 0.33357 0.0
O15 O 0.76724 0.07475 0.3249 0.0
O16 O 0.75212 0.157 0.33278 0.0
C17 C 0.90048 0.16632 0.29185 0.0
O18 O 0.8863 0.25602 0.34139 0.0
Co19 Co 0.96646 0.19745 0.35948 0.0
O20 O 0.98897 0.28279 0.34035 0.0
C21 C 0.85924 0.13972 0.40885 0.0
C22 C 0.72796 0.09645 0.32696 0.0
C23 C 0.94541 0.29732 0.33828 0.0
O24 O 0.82426 0.1441 0.38511 0.0
O25 O 0.91729 0.15496 0.4035 0.0
O26 O 0.85314 0.17493 0.28422 0.0
O27 O 0.90275 0.14947 0.32375 0.0
Co28 Co 0.67441 0.83589 0.67259 0.0
O29 O 0.68853 0.77229 0.65016 0.0
O30 O 0.60469 0.75318 0.68238 0.0
C31 C 0.70023 0.90194 0.62684 0.0
O32 O 0.6376 0.88236 0.69855 0.0
Co33 Co 0.77247 0.97398 0.68801 0.0
O34 O 0.69765 0.98702 0.69067 0.0
C35 C 0.77093 0.87286 0.73121 0.0
C36 C 0.63382 0.73112 0.66364 0.0
C37 C 0.64463 0.93827 0.69835 0.0
O38 O 0.7205 0.83211 0.71506 0.0
O39 O 0.80092 0.93242 0.72398 0.0
O40 O 0.64393 0.8519 0.62933 0.0
O41 O 0.74095 0.90926 0.65095 0.0
Co42 Co 0.8797 0.68384 0.99524 0.0
O43 O 0.96852 0.70779 -0.00088 0.0
O44 O 0.88579 0.61399 0.01335 0.0
C45 C 0.88254 0.72061 0.94116 0.0
O46 O 0.78402 0.63675 0.99353 0.0
Co47 Co 0.828 0.77565 0.98931 0.0
O48 O 0.74334 0.69905 0.98032 0.0
C49 C 0.88169 0.76522 0.05605 0.0
C50 C 0.94687 0.64981 0.01045 0.0
C51 C 0.73704 0.64433 0.9856 0.0
O52 O 0.88192 0.71605 0.04375 0.0
O53 O 0.86592 0.79934 0.0377 0.0
O54 O 0.88029 0.66648 0.94615 0.0
O55 O 0.88915 0.75418 0.96895 0.0
Co56 Co 0.15753 0.84818 0.32595 0.0
O57 O 0.24038 0.92332 0.3196 0.0
O58 O 0.2221 0.82643 0.33283 0.0
C59 C 0.10929 0.85832 0.27857 0.0
O60 O 0.08438 0.75905 0.33237 0.0
Co61 Co 0.03239 0.84625 0.34049 0.0
O62 O 0.9914 0.75576 0.32444 0.0
C63 C 0.12763 0.88511 0.39658 0.0
C64 C 0.26283 0.88539 0.3259 0.0
C65 C 0.02475 0.72872 0.32579 0.0
O66 O 0.15937 0.86806 0.3769 0.0
O67 O 0.07679 0.88397 0.38636 0.0
O68 O 0.14761 0.83559 0.27614 0.0
O69 O 0.10602 0.88046 0.30895 0.0
Co70 Co 0.30654 0.16188 0.6711 0.0
O71 O 0.31443 0.24292 0.65853 0.0
O72 O 0.3851 0.22944 0.68861 0.0
C73 C 0.2773 0.11528 0.61834 0.0
O74 O 0.32164 0.09141 0.68725 0.0
Co75 Co 0.18395 0.03117 0.66903 0.0
O76 O 0.24087 0.99454 0.67411 0.0
C77 C 0.20528 0.11908 0.72787 0.0
C78 C 0.37005 0.26786 0.67343 0.0
C79 C 0.29769 0.03105 0.6844 0.0
O80 O 0.26097 0.15856 0.7159 0.0
O81 O 0.1663 0.0676 0.71198 0.0
O82 O 0.3365 0.15542 0.62527 0.0
O83 O 0.23642 0.10851 0.64219 0.0
H84 H 0.26189 0.23084 0.76594 0.0
H85 H 0.10551 0.03532 0.76851 0.0
H86 H 0.07662 0.05304 0.82743 0.0
H87 H 0.30729 0.24064 0.85514 0.0
H88 H 0.32488 0.32164 0.86106 0.0
H89 H 0.33269 0.29461 0.81848 0.0
H90 H 0.25594 0.32919 0.79264 0.0
H91 H 0.24807 0.3566 0.83513 0.0
H92 H 0.17821 0.29926 0.81176 0.0
H93 H 0.06904 0.08897 0.88753 0.0
H94 H 0.07809 0.14407 0.9434 0.0
H95 H 0.23526 0.31784 0.9012 0.0
C96 C 0.22134 0.19185 0.77878 0.0
C97 C 0.18612 0.13162 0.76248 0.0
C98 C 0.1332 0.08198 0.78025 0.0
C99 C 0.11645 0.09147 0.81384 0.0
C100 C 0.15256 0.15106 0.82926 0.0
C101 C 0.20342 0.20069 0.81223 0.0
C102 C 0.23417 0.26009 0.83479 0.0
C103 C 0.30388 0.28041 0.84284 0.0
C104 C 0.22874 0.31449 0.81755 0.0
C105 C 0.19311 0.23575 0.86729 0.0
C106 C 0.14661 0.17258 0.86359 0.0
C107 C 0.10476 0.13865 0.89062 0.0
C108 C 0.11039 0.17024 0.92226 0.0
C109 C 0.15692 0.23522 0.92642 0.0
C110 C 0.19862 0.26836 0.89851 0.0
H111 H 0.93302 0.24055 0.23358 0.0
H112 H 0.97439 0.11044 0.29013 0.0
H113 H 0.04642 0.11689 0.24238 0.0
H114 H 0.92858 0.18257 0.1495 0.0
H115 H 0.96692 0.25942 0.12846 0.0
H116 H 0.9223 0.24763 0.16803 0.0
H117 H 0.02112 0.34134 0.19734 0.0
H118 H 0.06596 0.35366 0.15769 0.0
H119 H 0.09509 0.34077 0.19844 0.0
H120 H 0.10344 0.12802 0.18512 0.0
H121 H 0.14924 0.15089 0.12549 0.0
H122 H 0.0764 0.27983 0.10875 0.0
C123 C 0.95785 0.214 0.23606 0.0
C124 C 0.94807 0.17467 0.2653 0.0
C125 C 0.98157 0.14097 0.26789 0.0
C126 C 0.02239 0.14428 0.24091 0.0
C127 C 0.0301 0.18264 0.21202 0.0
C128 C -0.00036 0.21783 0.20978 0.0
C129 C 0.01518 0.25473 0.17584 0.0
C130 C 0.95465 0.23486 0.15419 0.0
C131 C 0.05151 0.32691 0.18275 0.0
C132 C 0.05753 0.23324 0.15877 0.0
C133 C 0.06549 0.19154 0.17997 0.0
C134 C 0.09864 0.16162 0.1686 0.0
C135 C 0.12422 0.17466 0.13468 0.0
C136 C 0.1171 0.21776 0.11275 0.0
C137 C 0.08387 0.2478 0.12523 0.0
H138 H 0.9093 0.10872 0.46568 0.0
H139 H 0.74012 0.11041 0.42989 0.0
H140 H 0.68537 0.05887 0.48441 0.0
H141 H 0.83019 0.95773 0.50417 0.0
H142 H 0.88269 0.97736 0.54117 0.0
H143 H 0.91192 0.02065 0.50087 0.0
H144 H 0.94818 0.12687 0.53365 0.0
H145 H 0.91915 0.08384 0.57415 0.0
H146 H 0.8915 0.13654 0.55956 0.0
H147 H 0.64411 0.99659 0.5388 0.0
H148 H 0.62049 0.93023 0.59175 0.0
H149 H 0.81616 0.97156 0.5948 0.0
C150 C 0.86119 0.09938 0.46959 0.0
C151 C 0.82926 0.11382 0.44332 0.0
C152 C 0.76591 0.09998 0.44943 0.0
C153 C 0.73425 0.07079 0.48044 0.0
C154 C 0.76653 0.05612 0.50541 0.0
C155 C 0.82873 0.07033 0.50061 0.0
C156 C 0.85091 0.04609 0.53101 0.0
C157 C 0.87003 0.99757 0.51855 0.0
C158 C 0.90568 0.10166 0.55076 0.0
C159 C 0.79081 0.01446 0.55297 0.0
C160 C 0.74289 0.02118 0.53771 0.0
C161 C 0.6815 0.99195 0.55142 0.0
C162 C 0.66846 0.95423 0.58136 0.0
C163 C 0.71668 0.94658 0.59741 0.0
C164 C 0.77889 0.97796 0.5834 0.0
H165 H 0.88053 0.82937 0.92127 0.0
H166 H 0.86441 0.65413 0.88119 0.0
H167 H 0.84375 0.68018 0.82241 0.0
H168 H 0.75686 0.82474 0.87155 0.0
H169 H 0.79544 0.90911 0.86302 0.0
H170 H 0.81509 0.88048 0.90178 0.0
H171 H 0.93412 0.9408 0.88411 0.0
H172 H 0.91482 0.96974 0.84526 0.0
H173 H 0.95728 0.92661 0.84177 0.0
H174 H 0.81345 0.71701 0.77025 0.0
H175 H 0.77875 0.76629 0.72558 0.0
H176 H 0.81861 0.92149 0.7966 0.0
C177 C 0.87359 0.7971 0.89997 0.0
C178 C 0.87405 0.73968 0.90582 0.0
C179 C 0.86429 0.69835 0.87739 0.0
C180 C 0.85271 0.71279 0.84382 0.0
C181 C 0.8517 0.76911 0.83894 0.0
C182 C 0.86239 0.81109 0.86599 0.0
C183 C 0.85558 0.8669 0.8535 0.0
C184 C 0.80258 0.87048 0.87366 0.0
C185 C 0.91924 0.92973 0.85633 0.0
C186 C 0.83721 0.84827 0.81558 0.0
C187 C 0.83571 0.79178 0.8079 0.0
C188 C 0.8155 0.76184 0.77565 0.0
C189 C 0.79562 0.78997 0.75054 0.0
C190 C 0.79664 0.84776 0.75767 0.0
C191 C 0.81869 0.87793 0.79039 0.0
H192 H 0.0789 0.77803 0.22356 0.0
H193 H 0.04404 0.92275 0.26747 0.0
H194 H 0.97662 0.91224 0.21618 0.0
H195 H 0.09088 0.82303 0.13544 0.0
H196 H 0.05092 0.74248 0.11911 0.0
H197 H 0.09399 0.76084 0.15967 0.0
H198 H 0.99257 0.67503 0.19134 0.0
H199 H 0.9492 0.65635 0.15077 0.0
H200 H 0.92017 0.6784 0.18858 0.0
H201 H 0.91914 0.88978 0.15685 0.0
H202 H 0.87354 0.85435 0.0976 0.0
H203 H 0.94371 0.72096 0.09636 0.0
C204 C 0.05696 0.80746 0.22254 0.0
C205 C 0.06695 0.85158 0.24924 0.0
C206 C 0.03689 0.88869 0.24714 0.0
C207 C -0.00138 0.883 0.21816 0.0
C208 C 0.99024 0.83918 0.19204 0.0
C209 C 0.01814 0.80162 0.19433 0.0
C210 C 0.00247 0.75823 0.16311 0.0
C211 C 0.06317 0.77202 0.14316 0.0
C212 C 0.96379 0.68784 0.17412 0.0
C213 C 0.96249 0.7781 0.14227 0.0
C214 C 0.95576 0.82481 0.15916 0.0
C215 C 0.92344 0.85261 0.14366 0.0
C216 C 0.8978 0.83228 0.10999 0.0
C217 C 0.90443 0.78442 0.09239 0.0
C218 C 0.93671 0.75686 0.10916 0.0
H219 H 0.16863 0.06702 0.57843 0.0
H220 H 0.34799 0.06984 0.58903 0.0
H221 H 0.32352 0.00301 0.53635 0.0
H222 H 0.07456 0.90415 0.54282 0.0
H223 H 0.03202 0.92595 0.51235 0.0
H224 H 0.05971 0.96816 0.55316 0.0
H225 H 0.12041 0.07496 0.51958 0.0
H226 H 0.09291 0.03313 0.47873 0.0
H227 H 0.17694 0.08406 0.48627 0.0
H228 H 0.28358 0.94133 0.48198 0.0
H229 H 0.23389 0.89319 0.42594 0.0
H230 H 0.08133 0.93333 0.44732 0.0
C231 C 0.20201 0.0525 0.56984 0.0
C232 C 0.25999 0.07305 0.58773 0.0
C233 C 0.30341 0.05458 0.57553 0.0
C234 C 0.28976 0.01635 0.5458 0.0
C235 C 0.23275 0.99755 0.52836 0.0
C236 C 0.18965 0.01523 0.53963 0.0
C237 C 0.13455 0.9928 0.51416 0.0
C238 C 0.07147 0.94491 0.53168 0.0
C239 C 0.13104 0.04963 0.49878 0.0
C240 C 0.15409 0.96067 0.48667 0.0
C241 C 0.2104 0.96327 0.49584 0.0
C242 C 0.2393 0.93866 0.47452 0.0
C243 C 0.21052 0.9114 0.44262 0.0
C244 C 0.15352 0.90937 0.43198 0.0
C245 C 0.12461 0.93375 0.45466 0.0
H246 H 0.3643 0.42753 0.01264 0.0
H247 H 0.3821 0.26425 0.9824 0.0
H248 H 0.4973 0.33636 0.97193 0.0
H249 H 0.47208 0.53624 0.94914 0.0
H250 H 0.50316 0.60371 0.97825 0.0
H251 H 0.42267 0.53924 0.98343 0.0
H252 H 0.44601 0.52489 0.04786 0.0
H253 H 0.52639 0.58959 0.04302 0.0
H254 H 0.51185 0.51275 0.05767 0.0
H255 H 0.61052 0.42631 0.9666 0.0
H256 H 0.71356 0.52649 0.96685 0.0
H257 H 0.61935 0.63059 0.99865 0.0
C258 C 0.39212 0.40642 0.00396 0.0
C259 C 0.36414 0.33997 0.99857 0.0
C260 C 0.40254 0.31489 0.98689 0.0
C261 C 0.46785 0.35549 0.98078 0.0
C262 C 0.49352 0.42079 0.98623 0.0
C263 C 0.45674 0.44599 0.99753 0.0
C264 C 0.49544 0.51763 0.00163 0.0
C265 C 0.47193 0.55116 0.97661 0.0
C266 C 0.49489 0.53735 0.03981 0.0
C267 C 0.56032 0.52915 0.99109 0.0
C268 C 0.55818 0.47265 0.98234 0.0
C269 C 0.61264 0.47078 0.97317 0.0
C270 C 0.67088 0.52791 0.97348 0.0
C271 C 0.67421 0.58623 0.98268 0.0
C272 C 0.61801 0.58688 0.99103 0.0
H273 H 0.90678 0.36979 0.37331 0.0
H274 H 0.01892 0.37074 0.28486 0.0
H275 H 0.03561 0.47627 0.26694 0.0
H276 H 0.83281 0.45209 0.3329 0.0
H277 H 0.83984 0.49835 0.37127 0.0
H278 H 0.83203 0.42069 0.37573 0.0
H279 H 0.93633 0.46886 0.41183 0.0
H280 H 0.94341 0.54616 0.40822 0.0
H281 H 0.00787 0.5347 0.39409 0.0
H282 H 0.04049 0.58028 0.259 0.0
H283 H 0.05329 0.68686 0.26786 0.0
H284 H 0.94388 0.62253 0.36361 0.0
C285 C 0.93499 0.39261 0.35025 0.0
C286 C 0.96182 0.36291 0.33035 0.0
C287 C -0.00119 0.39362 0.30052 0.0
C288 C 0.00764 0.45287 0.28993 0.0
C289 C 0.97969 0.48065 0.3098 0.0
C290 C 0.94554 0.4524 0.33983 0.0
C291 C 0.92616 0.49533 0.35841 0.0
C292 C 0.85338 0.46477 0.35963 0.0
C293 C 0.9552 0.51229 0.39531 0.0
C294 C 0.95556 0.55267 0.33437 0.0
C295 C 0.98458 0.54221 0.30597 0.0
C296 C 0.01759 0.58889 0.28092 0.0
C297 C 0.02412 0.64898 0.28598 0.0
C298 C -0.0017 0.66188 0.31595 0.0
C299 C 0.962 0.61282 0.33992 0.0
H300 H 0.42688 0.09573 0.68322 0.0
H301 H 0.2642 0.90788 0.70187 0.0
H302 H 0.33743 0.86656 0.71372 0.0
H303 H 0.51679 0.04298 0.63693 0.0
H304 H 0.59237 0.1035 0.65393 0.0
H305 H 0.52739 0.11897 0.65045 0.0
H306 H 0.53771 0.14673 0.71644 0.0
H307 H 0.60261 0.13096 0.72018 0.0
H308 H 0.53386 0.08969 0.74802 0.0
H309 H 0.42803 0.84586 0.72153 0.0
H310 H 0.52766 0.84304 0.71891 0.0
H311 H 0.63116 0.04444 0.69255 0.0
C312 C 0.40646 0.04606 0.6904 0.0
C313 C 0.33984 0.00505 0.69216 0.0
C314 C 0.31509 0.94006 0.70061 0.0
C315 C 0.35629 0.9164 0.70756 0.0
C316 C 0.42179 0.95837 0.70567 0.0
C317 C 0.44666 0.02166 0.69694 0.0
C318 C 0.51845 0.05575 0.6938 0.0
C319 C 0.53998 0.08179 0.65657 0.0
C320 C 0.55 0.10893 0.72125 0.0
C321 C 0.5303 0.00143 0.70162 0.0
C322 C 0.47399 0.94601 0.70899 0.0
C323 C 0.47238 0.88898 0.71594 0.0
C324 C 0.52948 0.88804 0.71438 0.0
C325 C 0.58754 0.94365 0.70546 0.0
C326 C 0.5879 0.00137 0.69977 0.0
H327 H 0.35279 0.37149 0.67532 0.0
H328 H 0.49563 0.31547 0.66254 0.0
H329 H 0.57828 0.42795 0.65396 0.0
H330 H 0.41694 0.5032 0.61421 0.0
H331 H 0.39981 0.55318 0.64172 0.0
H332 H 0.35082 0.46778 0.64421 0.0
H333 H 0.37247 0.47173 0.7108 0.0
H334 H 0.42112 0.55711 0.70852 0.0
H335 H 0.45344 0.51037 0.72628 0.0
H336 H 0.64538 0.54647 0.6464 0.0
H337 H 0.69412 0.66406 0.64777 0.0
H338 H 0.50896 0.64253 0.66978 0.0
C339 C 0.40142 0.38317 0.67045 0.0
C340 C 0.41813 0.33534 0.66934 0.0
C341 C 0.48224 0.35191 0.66359 0.0
C342 C 0.52935 0.41546 0.65843 0.0
C343 C 0.51162 0.46182 0.65972 0.0
C344 C 0.44945 0.44667 0.66618 0.0
C345 C 0.44412 0.50602 0.66913 0.0
C346 C 0.40033 0.50761 0.64061 0.0
C347 C 0.42147 0.51162 0.70586 0.0
C348 C 0.51277 0.55661 0.66305 0.0
C349 C 0.55086 0.53024 0.65716 0.0
C350 C 0.61611 0.56781 0.65104 0.0
C351 C 0.64333 0.63434 0.6517 0.0
C352 C 0.60527 0.66197 0.65898 0.0
C353 C 0.53919 0.62252 0.66428 0.0
H354 H 0.91079 0.52478 0.01203 0.0
H355 H 0.07571 0.71352 0.02339 0.0
H356 H 0.14354 0.66482 0.03241 0.0
H357 H 0.95616 0.44146 0.07467 0.0
H358 H 0.9254 0.37106 0.04783 0.0
H359 H 0.88975 0.42076 0.04594 0.0
H360 H 0.90805 0.43266 0.97894 0.0
H361 H 0.9438 0.38316 0.98059 0.0
H362 H 0.98712 0.46185 0.96189 0.0
H363 H 0.19276 0.59494 0.0377 0.0
H364 H 0.22183 0.51105 0.03514 0.0
H365 H 0.02399 0.36883 0.01737 0.0
C366 C 0.96102 0.556 0.01704 0.0
C367 C 0.98819 0.62284 0.01743 0.0
C368 C 0.05422 0.66215 0.02316 0.0
C369 C 0.09284 0.6349 0.02843 0.0
C370 C 0.06441 0.56859 0.02754 0.0
C371 C 3e-05 0.52977 0.02177 0.0
C372 C 0.98162 0.46037 0.01919 0.0
C373 C 0.93552 0.42111 0.04867 0.0
C374 C 0.95352 0.43294 0.983 0.0
C375 C 0.04592 0.46598 0.02408 0.0
C376 C 0.0929 0.52864 0.02934 0.0
C377 C 0.15636 0.54576 0.03374 0.0
C378 C 0.1723 0.4977 0.03224 0.0
C379 C 0.12505 0.43345 0.02599 0.0
C380 C 0.06103 0.41747 0.02223 0.0
H381 H 0.63643 0.13076 0.32482 0.0
H382 H 0.66333 0.96654 0.32301 0.0
H383 H 0.54689 0.89525 0.32111 0.0
H384 H 0.50064 0.06402 0.3799 0.0
H385 H 0.46137 0.09996 0.35723 0.0
H386 H 0.54689 0.13844 0.35707 0.0
H387 H 0.54709 0.13944 0.28932 0.0
H388 H 0.46153 0.10118 0.28926 0.0
H389 H 0.50063 0.06581 0.26585 0.0
H390 H 0.42911 0.8423 0.32257 0.0
H391 H 0.31556 0.80964 0.32466 0.0
H392 H 0.36419 0.0082 0.32403 0.0
C393 C 0.61784 0.0798 0.32377 0.0
C394 C 0.65874 0.05401 0.32407 0.0
C395 C 0.63274 0.98719 0.3227 0.0
C396 C 0.56677 0.94638 0.32166 0.0
C397 C 0.52778 0.97334 0.32174 0.0
C398 C 0.55219 0.03844 0.3225 0.0
C399 C 0.49967 0.05497 0.3228 0.0
C400 C 0.50232 0.0915 0.35624 0.0
C401 C 0.5024 0.09256 0.28984 0.0
C402 C 0.44183 0.98885 0.32254 0.0
C403 C 0.45933 0.9426 0.32197 0.0
C404 C 0.41472 0.87798 0.32274 0.0
C405 C 0.35036 0.86001 0.32405 0.0
C406 C 0.33117 0.90648 0.32442 0.0
C407 C 0.37756 0.97174 0.3235 0.0
loop_
_geom_bond_atom_site_label_1
_geom_bond_atom_site_label_2
_geom_bond_distance
_geom_bond_site_symmetry_2
_ccdc_geom_bond_type
Co0 O1 2.216 1_554 S
Co0 O2 2.091 1_554 S
Co0 O4 2.004 . S
Co0 O10 2.021 . S
Co0 O12 2.137 1_554 S
Co0 O13 2.244 1_554 S
O1 Co0 2.216 1_556 S
O1 C8 1.247 . S
O2 Co0 2.091 1_556 S
O2 C8 1.261 . S
C3 O12 1.247 . S
C3 O13 1.272 . S
O4 Co0 2.004 . S
O4 C9 1.259 . S
Co5 O6 2.061 . S
Co5 O11 2.052 . S
Co5 O13 2.135 1_554 S
O6 Co5 2.061 . S
O6 C9 1.235 . S
C7 O10 1.238 . S
C7 O11 1.241 . S
C8 O1 1.247 . S
C8 O2 1.261 . S
C9 O4 1.259 . S
C9 O6 1.235 . S
O10 Co0 2.021 . S
O10 C7 1.238 . S
O11 Co5 2.052 . S
O11 C7 1.241 . S
O12 Co0 2.137 1_556 S
O12 C3 1.247 . S
O13 Co0 2.244 1_556 S
O13 C3 1.272 . S
O13 Co5 2.135 1_556 S
Co14 O15 2.216 . S
Co14 O16 2.091 . S
Co14 O18 2.004 . S
Co14 O24 2.021 . S
Co14 O26 2.137 . S
Co14 O27 2.244 . S
O15 Co14 2.216 . S
O15 C22 1.247 . S
O16 Co14 2.091 . S
O16 C22 1.261 . S
C17 O26 1.247 . S
C17 O27 1.272 . S
O18 Co14 2.004 . S
O18 C23 1.259 . S
Co19 O20 2.061 . S
Co19 O25 2.052 . S
Co19 O27 2.135 . S
O20 Co19 2.061 . S
O20 C23 1.235 . S
C21 O24 1.238 . S
C21 O25 1.241 . S
C22 O15 1.247 . S
C22 O16 1.261 . S
C23 O18 1.259 . S
C23 O20 1.235 . S
O24 Co14 2.021 . S
O24 C21 1.238 . S
O25 Co19 2.052 . S
O25 C21 1.241 . S
O26 Co14 2.137 . S
O26 C17 1.247 . S
O27 Co14 2.244 . S
O27 C17 1.272 . S
O27 Co19 2.135 . S
Co28 O29 2.216 . S
Co28 O30 2.091 . S
Co28 O32 2.004 . S
Co28 O38 2.021 . S
Co28 O40 2.137 . S
Co28 O41 2.244 . S
O29 Co28 2.216 . S
O29 C36 1.247 . S
O30 Co28 2.091 . S
O30 C36 1.261 . S
C31 O40 1.247 . S
C31 O41 1.272 . S
O32 Co28 2.004 . S
O32 C37 1.259 . S
Co33 O34 2.061 . S
Co33 O39 2.052 . S
Co33 O41 2.135 . S
O34 Co33 2.061 . S
O34 C37 1.235 . S
C35 O38 1.238 . S
C35 O39 1.241 . S
C36 O29 1.247 . S
C36 O30 1.261 . S
C37 O32 1.259 . S
C37 O34 1.235 . S
O38 Co28 2.021 . S
O38 C35 1.238 . S
O39 Co33 2.052 . S
O39 C35 1.241 . S
O40 Co28 2.137 . S
O40 C31 1.247 . S
O41 Co28 2.244 . S
O41 C31 1.272 . S
O41 Co33 2.135 . S
Co42 O43 2.216 1_554 S
Co42 O44 2.091 1_554 S
Co42 O46 2.004 . S
Co42 O52 2.021 . S
Co42 O54 2.137 1_554 S
Co42 O55 2.244 1_554 S
O43 Co42 2.216 1_556 S
O43 C50 1.247 . S
O44 Co42 2.091 1_556 S
O44 C50 1.261 . S
C45 O54 1.247 . S
C45 O55 1.272 . S
O46 Co42 2.004 . S
O46 C51 1.259 . S
Co47 O48 2.061 . S
Co47 O53 2.052 . S
Co47 O55 2.135 1_554 S
O48 Co47 2.061 . S
O48 C51 1.235 . S
C49 O52 1.238 . S
C49 O53 1.241 . S
C50 O43 1.247 . S
C50 O44 1.261 . S
C51 O46 1.259 . S
C51 O48 1.235 . S
O52 Co42 2.021 . S
O52 C49 1.238 . S
O53 Co47 2.052 . S
O53 C49 1.241 . S
O54 Co42 2.137 1_556 S
O54 C45 1.247 . S
O55 Co42 2.244 1_556 S
O55 C45 1.272 . S
O55 Co47 2.135 1_556 S
Co56 O57 2.216 . S
Co56 O58 2.091 . S
Co56 O60 2.004 . S
Co56 O66 2.021 . S
Co56 O68 2.137 . S
Co56 O69 2.244 . S
O57 Co56 2.216 . S
O57 C64 1.247 . S
O58 Co56 2.091 . S
O58 C64 1.261 . S
C59 O68 1.247 . S
C59 O69 1.272 . S
O60 Co56 2.004 . S
O60 C65 1.259 . S
Co61 O62 2.061 . S
Co61 O67 2.052 . S
Co61 O69 2.135 . S
O62 Co61 2.061 . S
O62 C65 1.235 . S
C63 O66 1.238 . S
C63 O67 1.241 . S
C64 O57 1.247 . S
C64 O58 1.261 . S
C65 O60 1.259 . S
C65 O62 1.235 . S
O66 Co56 2.021 . S
O66 C63 1.238 . S
O67 Co61 2.052 . S
O67 C63 1.241 . S
O68 Co56 2.137 . S
O68 C59 1.247 . S
O69 Co56 2.244 . S
O69 C59 1.272 . S
O69 Co61 2.135 . S
Co70 O71 2.216 . S
Co70 O72 2.091 . S
Co70 O74 2.004 . S
Co70 O80 2.021 . S
Co70 O82 2.137 . S
Co70 O83 2.244 . S
O71 Co70 2.216 . S
O71 C78 1.247 . S
O72 Co70 2.091 . S
O72 C78 1.261 . S
C73 O82 1.247 . S
C73 O83 1.272 . S
O74 Co70 2.004 . S
O74 C79 1.259 . S
Co75 O76 2.061 . S
Co75 O81 2.052 . S
Co75 O83 2.135 . S
O76 Co75 2.061 . S
O76 C79 1.235 . S
C77 O80 1.238 . S
C77 O81 1.241 . S
C78 O71 1.247 . S
C78 O72 1.261 . S
C79 O74 1.259 . S
C79 O76 1.235 . S
O80 Co70 2.021 . S
O80 C77 1.238 . S
O81 Co75 2.052 . S
O81 C77 1.241 . S
O82 Co70 2.137 . S
O82 C73 1.247 . S
O83 Co70 2.244 . S
O83 C73 1.272 . S
O83 Co75 2.135 . S
H84 C96 0.930 . S
H85 C98 0.930 . S
H86 C99 0.930 . S
H87 C103 0.959 . S
H88 C103 0.959 . S
H89 C103 0.961 . S
H90 C104 0.960 . S
H91 C104 0.961 . S
H92 C104 0.959 . S
H93 C107 0.929 . S
H94 C108 0.931 . S
H95 C110 0.930 . S
C96 H84 0.930 . S
C96 C97 1.399 . S
C96 C101 1.399 . S
C97 C96 1.399 . S
C97 C98 1.376 . S
C98 H85 0.930 . S
C98 C97 1.376 . S
C98 C99 1.388 . S
C99 H86 0.930 . S
C99 C98 1.388 . S
C99 C100 1.390 . S
C100 C99 1.390 . S
C100 C101 1.394 . S
C100 C106 1.465 . S
C101 C96 1.399 . S
C101 C100 1.394 . S
C101 C102 1.516 . S
C102 C101 1.516 . S
C102 C103 1.502 . S
C102 C104 1.561 . S
C102 C105 1.526 . S
C103 H87 0.959 . S
C103 H88 0.959 . S
C103 H89 0.961 . S
C103 C102 1.502 . S
C104 H90 0.960 . S
C104 H91 0.961 . S
C104 H92 0.959 . S
C104 C102 1.561 . S
C105 C102 1.526 . S
C105 C106 1.396 . S
C105 C110 1.390 . S
C106 C100 1.465 . S
C106 C105 1.396 . S
C106 C107 1.399 . S
C107 H93 0.929 . S
C107 C106 1.399 . S
C107 C108 1.385 . S
C108 H94 0.931 . S
C108 C107 1.385 . S
C108 C109 1.389 . S
C109 C108 1.389 . S
C109 C110 1.387 . S
C110 H95 0.930 . S
C110 C105 1.390 . S
C110 C109 1.387 . S
H111 C123 0.930 . S
H112 C125 0.930 . S
H113 C126 0.930 . S
H114 C130 0.959 . S
H115 C130 0.959 1_455 S
H116 C130 0.961 . S
H117 C131 0.960 . S
H118 C131 0.961 . S
H119 C131 0.959 . S
H120 C134 0.929 . S
H121 C135 0.931 . S
H122 C137 0.930 . S
C123 H111 0.930 . S
C123 C124 1.399 . S
C123 C128 1.399 . S
C124 C123 1.399 . S
C124 C125 1.376 . S
C125 H112 0.930 . S
C125 C124 1.376 . S
C125 C126 1.388 . S
C126 H113 0.930 . S
C126 C125 1.388 . S
C126 C127 1.390 . S
C127 C126 1.390 . S
C127 C128 1.394 . S
C127 C133 1.465 1_655 S
C128 C123 1.399 . S
C128 C127 1.394 . S
C128 C129 1.516 1_655 S
C129 C128 1.516 1_455 S
C129 C130 1.502 1_455 S
C129 C131 1.561 . S
C129 C132 1.526 . S
C130 H114 0.959 . S
C130 H115 0.959 1_655 S
C130 H116 0.961 . S
C130 C129 1.502 1_655 S
C131 H117 0.960 . S
C131 H118 0.961 . S
C131 H119 0.959 . S
C131 C129 1.561 . S
C132 C129 1.526 . S
C132 C133 1.396 . S
C132 C137 1.390 . S
C133 C127 1.465 1_455 S
C133 C132 1.396 . S
C133 C134 1.399 . S
C134 H120 0.929 . S
C134 C133 1.399 . S
C134 C135 1.385 . S
C135 H121 0.931 . S
C135 C134 1.385 . S
C135 C136 1.389 . S
C136 C135 1.389 . S
C136 C137 1.387 . S
C137 H122 0.930 . S
C137 C132 1.390 . S
C137 C136 1.387 . S
H138 C150 0.930 . S
H139 C152 0.930 . S
H140 C153 0.930 1_565 S
H141 C157 0.959 1_565 S
H142 C157 0.959 . S
H143 C157 0.961 . S
H144 C158 0.960 . S
H145 C158 0.961 . S
H146 C158 0.959 . S
H147 C161 0.929 . S
H148 C162 0.931 . S
H149 C164 0.930 . S
C150 H138 0.930 . S
C150 C151 1.399 . S
C150 C155 1.399 . S
C151 C150 1.399 . S
C151 C152 1.376 . S
C152 H139 0.930 . S
C152 C151 1.376 . S
C152 C153 1.388 . S
C153 H140 0.930 1_545 S
C153 C152 1.388 . S
C153 C154 1.390 . S
C154 C153 1.390 . S
C154 C155 1.394 . S
C154 C160 1.465 1_545 S
C155 C150 1.399 . S
C155 C154 1.394 . S
C155 C156 1.516 . S
C156 C155 1.516 . S
C156 C157 1.502 . S
C156 C158 1.561 . S
C156 C159 1.526 1_545 S
C157 H141 0.959 1_545 S
C157 H142 0.959 . S
C157 H143 0.961 . S
C157 C156 1.502 . S
C158 H144 0.960 . S
C158 H145 0.961 . S
C158 H146 0.959 . S
C158 C156 1.561 . S
C159 C156 1.526 1_565 S
C159 C160 1.396 . S
C159 C164 1.390 . S
C160 C154 1.465 1_565 S
C160 C159 1.396 . S
C160 C161 1.399 . S
C161 H147 0.929 . S
C161 C160 1.399 . S
C161 C162 1.385 . S
C162 H148 0.931 . S
C162 C161 1.385 . S
C162 C163 1.389 . S
C163 C162 1.389 . S
C163 C164 1.387 . S
C164 H149 0.930 . S
C164 C159 1.390 . S
C164 C163 1.387 . S
H165 C177 0.930 . S
H166 C179 0.930 . S
H167 C180 0.930 . S
H168 C184 0.959 . S
H169 C184 0.959 . S
H170 C184 0.961 . S
H171 C185 0.960 . S
H172 C185 0.961 . S
H173 C185 0.959 . S
H174 C188 0.929 . S
H175 C189 0.931 . S
H176 C191 0.930 . S
C177 H165 0.930 . S
C177 C178 1.399 . S
C177 C182 1.399 . S
C178 C177 1.399 . S
C178 C179 1.376 . S
C179 H166 0.930 . S
C179 C178 1.376 . S
C179 C180 1.388 . S
C180 H167 0.930 . S
C180 C179 1.388 . S
C180 C181 1.390 . S
C181 C180 1.390 . S
C181 C182 1.394 . S
C181 C187 1.465 . S
C182 C177 1.399 . S
C182 C181 1.394 . S
C182 C183 1.516 . S
C183 C182 1.516 . S
C183 C184 1.502 . S
C183 C185 1.561 . S
C183 C186 1.526 . S
C184 H168 0.959 . S
C184 H169 0.959 . S
C184 H170 0.961 . S
C184 C183 1.502 . S
C185 H171 0.960 . S
C185 H172 0.961 . S
C185 H173 0.959 . S
C185 C183 1.561 . S
C186 C183 1.526 . S
C186 C187 1.396 . S
C186 C191 1.390 . S
C187 C181 1.465 . S
C187 C186 1.396 . S
C187 C188 1.399 . S
C188 H174 0.929 . S
C188 C187 1.399 . S
C188 C189 1.385 . S
C189 H175 0.931 . S
C189 C188 1.385 . S
C189 C190 1.389 . S
C190 C189 1.389 . S
C190 C191 1.387 . S
C191 H176 0.930 . S
C191 C186 1.390 . S
C191 C190 1.387 . S
H192 C204 0.930 . S
H193 C206 0.930 . S
H194 C207 0.930 . S
H195 C211 0.959 . S
H196 C211 0.959 1_655 S
H197 C211 0.961 . S
H198 C212 0.960 . S
H199 C212 0.961 . S
H200 C212 0.959 . S
H201 C215 0.929 . S
H202 C216 0.931 . S
H203 C218 0.930 . S
C204 H192 0.930 . S
C204 C205 1.399 . S
C204 C209 1.399 . S
C205 C204 1.399 . S
C205 C206 1.376 . S
C206 H193 0.930 . S
C206 C205 1.376 . S
C206 C207 1.388 . S
C207 H194 0.930 . S
C207 C206 1.388 . S
C207 C208 1.390 . S
C208 C207 1.390 . S
C208 C209 1.394 . S
C208 C214 1.465 1_455 S
C209 C204 1.399 . S
C209 C208 1.394 . S
C209 C210 1.516 1_455 S
C210 C209 1.516 1_655 S
C210 C211 1.502 1_655 S
C210 C212 1.561 . S
C210 C213 1.526 . S
C211 H195 0.959 . S
C211 H196 0.959 1_455 S
C211 H197 0.961 . S
C211 C210 1.502 1_455 S
C212 H198 0.960 . S
C212 H199 0.961 . S
C212 H200 0.959 . S
C212 C210 1.561 . S
C213 C210 1.526 . S
C213 C214 1.396 . S
C213 C218 1.390 . S
C214 C208 1.465 1_655 S
C214 C213 1.396 . S
C214 C215 1.399 . S
C215 H201 0.929 . S
C215 C214 1.399 . S
C215 C216 1.385 . S
C216 H202 0.931 . S
C216 C215 1.385 . S
C216 C217 1.389 . S
C217 C216 1.389 . S
C217 C218 1.387 . S
C218 H203 0.930 . S
C218 C213 1.390 . S
C218 C217 1.387 . S
H219 C231 0.930 . S
H220 C233 0.930 . S
H221 C234 0.930 . S
H222 C238 0.959 . S
H223 C238 0.959 . S
H224 C238 0.961 . S
H225 C239 0.960 . S
H226 C239 0.961 . S
H227 C239 0.959 . S
H228 C242 0.929 . S
H229 C243 0.931 . S
H230 C245 0.930 . S
C231 H219 0.930 . S
C231 C232 1.399 . S
C231 C236 1.399 . S
C232 C231 1.399 . S
C232 C233 1.376 . S
C233 H220 0.930 . S
C233 C232 1.376 . S
C233 C234 1.388 1_545 S
C234 H221 0.930 . S
C234 C233 1.388 1_565 S
C234 C235 1.390 . S
C235 C234 1.390 . S
C235 C236 1.394 1_565 S
C235 C241 1.465 . S
C236 C231 1.399 . S
C236 C235 1.394 1_545 S
C236 C237 1.516 . S
C237 C236 1.516 . S
C237 C238 1.502 . S
C237 C239 1.561 . S
C237 C240 1.526 1_545 S
C238 H222 0.959 . S
C238 H223 0.959 . S
C238 H224 0.961 . S
C238 C237 1.502 . S
C239 H225 0.960 . S
C239 H226 0.961 . S
C239 H227 0.959 . S
C239 C237 1.561 . S
C240 C237 1.526 1_565 S
C240 C241 1.396 . S
C240 C245 1.390 . S
C241 C235 1.465 . S
C241 C240 1.396 . S
C241 C242 1.399 . S
C242 H228 0.929 . S
C242 C241 1.399 . S
C242 C243 1.385 . S
C243 H229 0.931 . S
C243 C242 1.385 . S
C243 C244 1.389 . S
C244 C243 1.389 . S
C244 C245 1.387 . S
C245 H230 0.930 . S
C245 C240 1.390 . S
C245 C244 1.387 . S
H246 C258 0.930 . S
H247 C260 0.930 . S
H248 C261 0.930 . S
H249 C265 0.959 . S
H250 C265 0.959 . S
H251 C265 0.961 . S
H252 C266 0.960 . S
H253 C266 0.961 . S
H254 C266 0.959 . S
H255 C269 0.929 . S
H256 C270 0.931 . S
H257 C272 0.930 . S
C258 H246 0.930 . S
C258 C259 1.399 . S
C258 C263 1.399 . S
C259 C258 1.399 . S
C259 C260 1.376 1_554 S
C260 H247 0.930 . S
C260 C259 1.376 1_556 S
C260 C261 1.388 . S
C261 H248 0.930 . S
C261 C260 1.388 . S
C261 C262 1.390 1_556 S
C262 C261 1.390 1_554 S
C262 C263 1.394 . S
C262 C268 1.465 . S
C263 C258 1.399 . S
C263 C262 1.394 . S
C263 C264 1.516 . S
C264 C263 1.516 . S
C264 C265 1.502 . S
C264 C266 1.561 . S
C264 C267 1.526 . S
C265 H249 0.959 . S
C265 H250 0.959 . S
C265 H251 0.961 . S
C265 C264 1.502 . S
C266 H252 0.960 . S
C266 H253 0.961 . S
C266 H254 0.959 . S
C266 C264 1.561 . S
C267 C264 1.526 . S
C267 C268 1.396 . S
C267 C272 1.390 . S
C268 C262 1.465 . S
C268 C267 1.396 . S
C268 C269 1.399 1_554 S
C269 H255 0.929 . S
C269 C268 1.399 1_556 S
C269 C270 1.385 . S
C270 H256 0.931 . S
C270 C269 1.385 . S
C270 C271 1.389 1_556 S
C271 C270 1.389 1_554 S
C271 C272 1.387 . S
C272 H257 0.930 . S
C272 C267 1.390 . S
C272 C271 1.387 . S
H273 C285 0.930 . S
H274 C287 0.930 1_455 S
H275 C288 0.930 . S
H276 C292 0.959 . S
H277 C292 0.959 . S
H278 C292 0.961 . S
H279 C293 0.960 . S
H280 C293 0.961 . S
H281 C293 0.959 . S
H282 C296 0.929 . S
H283 C297 0.931 . S
H284 C299 0.930 . S
C285 H273 0.930 . S
C285 C286 1.399 . S
C285 C290 1.399 . S
C286 C285 1.399 . S
C286 C287 1.376 . S
C287 H274 0.930 1_655 S
C287 C286 1.376 . S
C287 C288 1.388 1_655 S
C288 H275 0.930 . S
C288 C287 1.388 1_455 S
C288 C289 1.390 . S
C289 C288 1.390 . S
C289 C290 1.394 1_455 S
C289 C295 1.465 . S
C290 C285 1.399 . S
C290 C289 1.394 1_655 S
C290 C291 1.516 . S
C291 C290 1.516 . S
C291 C292 1.502 . S
C291 C293 1.561 1_655 S
C291 C294 1.526 1_655 S
C292 H276 0.959 . S
C292 H277 0.959 . S
C292 H278 0.961 . S
C292 C291 1.502 . S
C293 H279 0.960 . S
C293 H280 0.961 . S
C293 H281 0.959 . S
C293 C291 1.561 1_455 S
C294 C291 1.526 1_455 S
C294 C295 1.396 . S
C294 C299 1.390 . S
C295 C289 1.465 . S
C295 C294 1.396 . S
C295 C296 1.399 . S
C296 H282 0.929 . S
C296 C295 1.399 . S
C296 C297 1.385 . S
C297 H283 0.931 . S
C297 C296 1.385 . S
C297 C298 1.389 . S
C298 C297 1.389 . S
C298 C299 1.387 . S
C299 H284 0.930 . S
C299 C294 1.390 . S
C299 C298 1.387 . S
H300 C312 0.930 . S
H301 C314 0.930 1_565 S
H302 C315 0.930 . S
H303 C319 0.959 . S
H304 C319 0.959 . S
H305 C319 0.961 . S
H306 C320 0.960 . S
H307 C320 0.961 . S
H308 C320 0.959 . S
H309 C323 0.929 . S
H310 C324 0.931 . S
H311 C326 0.930 . S
C312 H300 0.930 . S
C312 C313 1.399 . S
C312 C317 1.399 . S
C313 C312 1.399 . S
C313 C314 1.376 . S
C314 H301 0.930 1_545 S
C314 C313 1.376 . S
C314 C315 1.388 1_545 S
C315 H302 0.930 . S
C315 C314 1.388 1_565 S
C315 C316 1.390 . S
C316 C315 1.390 . S
C316 C317 1.394 1_565 S
C316 C322 1.465 . S
C317 C312 1.399 . S
C317 C316 1.394 1_545 S
C317 C318 1.516 . S
C318 C317 1.516 . S
C318 C319 1.502 . S
C318 C320 1.561 1_545 S
C318 C321 1.526 1_545 S
C319 H303 0.959 . S
C319 H304 0.959 . S
C319 H305 0.961 . S
C319 C318 1.502 . S
C320 H306 0.960 . S
C320 H307 0.961 . S
C320 H308 0.959 . S
C320 C318 1.561 1_565 S
C321 C318 1.526 1_565 S
C321 C322 1.396 . S
C321 C326 1.390 . S
C322 C316 1.465 . S
C322 C321 1.396 . S
C322 C323 1.399 . S
C323 H309 0.929 . S
C323 C322 1.399 . S
C323 C324 1.385 . S
C324 H310 0.931 . S
C324 C323 1.385 . S
C324 C325 1.389 . S
C325 C324 1.389 . S
C325 C326 1.387 . S
C326 H311 0.930 . S
C326 C321 1.390 . S
C326 C325 1.387 . S
H327 C339 0.930 . S
H328 C341 0.930 . S
H329 C342 0.930 . S
H330 C346 0.959 . S
H331 C346 0.959 . S
H332 C346 0.961 . S
H333 C347 0.960 . S
H334 C347 0.961 . S
H335 C347 0.959 . S
H336 C350 0.929 . S
H337 C351 0.931 . S
H338 C353 0.930 . S
C339 H327 0.930 . S
C339 C340 1.399 . S
C339 C344 1.399 . S
C340 C339 1.399 . S
C340 C341 1.376 . S
C341 H328 0.930 . S
C341 C340 1.376 . S
C341 C342 1.388 . S
C342 H329 0.930 . S
C342 C341 1.388 . S
C342 C343 1.390 . S
C343 C342 1.390 . S
C343 C344 1.394 . S
C343 C349 1.465 . S
C344 C339 1.399 . S
C344 C343 1.394 . S
C344 C345 1.516 . S
C345 C344 1.516 . S
C345 C346 1.502 . S
C345 C347 1.561 . S
C345 C348 1.526 . S
C346 H330 0.959 . S
C346 H331 0.959 . S
C346 H332 0.961 . S
C346 C345 1.502 . S
C347 H333 0.960 . S
C347 H334 0.961 . S
C347 H335 0.959 . S
C347 C345 1.561 . S
C348 C345 1.526 . S
C348 C349 1.396 . S
C348 C353 1.390 . S
C349 C343 1.465 . S
C349 C348 1.396 . S
C349 C350 1.399 . S
C350 H336 0.929 . S
C350 C349 1.399 . S
C350 C351 1.385 . S
C351 H337 0.931 . S
C351 C350 1.385 . S
C351 C352 1.389 . S
C352 C351 1.389 . S
C352 C353 1.387 . S
C353 H338 0.930 . S
C353 C348 1.390 . S
C353 C352 1.387 . S
H354 C366 0.930 . S
H355 C368 0.930 . S
H356 C369 0.930 . S
H357 C373 0.959 . S
H358 C373 0.959 . S
H359 C373 0.961 . S
H360 C374 0.960 . S
H361 C374 0.961 . S
H362 C374 0.959 . S
H363 C377 0.929 . S
H364 C378 0.931 . S
H365 C380 0.930 . S
C366 H354 0.930 . S
C366 C367 1.399 . S
C366 C371 1.399 . S
C367 C366 1.399 . S
C367 C368 1.376 1_556 S
C368 H355 0.930 . S
C368 C367 1.376 1_554 S
C368 C369 1.388 1_655 S
C369 H356 0.930 . S
C369 C368 1.388 1_455 S
C369 C370 1.390 . S
C370 C369 1.390 . S
C370 C371 1.394 1_454 S
C370 C376 1.465 . S
C371 C366 1.399 . S
C371 C370 1.394 1_656 S
C371 C372 1.516 . S
C372 C371 1.516 . S
C372 C373 1.502 . S
C372 C374 1.561 1_655 S
C372 C375 1.526 1_655 S
C373 H357 0.959 . S
C373 H358 0.959 . S
C373 H359 0.961 . S
C373 C372 1.502 . S
C374 H360 0.960 . S
C374 H361 0.961 . S
C374 H362 0.959 . S
C374 C372 1.561 1_455 S
C375 C372 1.526 1_455 S
C375 C376 1.396 1_556 S
C375 C380 1.390 . S
C376 C370 1.465 . S
C376 C375 1.396 1_554 S
C376 C377 1.399 . S
C377 H363 0.929 . S
C377 C376 1.399 . S
C377 C378 1.385 . S
C378 H364 0.931 . S
C378 C377 1.385 . S
C378 C379 1.389 1_554 S
C379 C378 1.389 1_556 S
C379 C380 1.387 . S
C380 H365 0.930 . S
C380 C375 1.390 . S
C380 C379 1.387 . S
H381 C393 0.930 . S
H382 C395 0.930 . S
H383 C396 0.930 . S
H384 C400 0.959 . S
H385 C400 0.959 . S
H386 C400 0.961 . S
H387 C401 0.960 1_545 S
H388 C401 0.961 . S
H389 C401 0.959 . S
H390 C404 0.929 . S
H391 C405 0.931 . S
H392 C407 0.930 1_545 S
C393 H381 0.930 . S
C393 C394 1.399 . S
C393 C398 1.399 . S
C394 C393 1.399 . S
C394 C395 1.376 1_545 S
C395 H382 0.930 . S
C395 C394 1.376 1_565 S
C395 C396 1.388 . S
C396 H383 0.930 . S
C396 C395 1.388 . S
C396 C397 1.390 . S
C397 C396 1.390 . S
C397 C398 1.394 1_565 S
C397 C403 1.465 . S
C398 C393 1.399 . S
C398 C397 1.394 1_545 S
C398 C399 1.516 . S
C399 C398 1.516 . S
C399 C400 1.502 . S
C399 C401 1.561 1_545 S
C399 C402 1.526 1_545 S
C400 H384 0.959 . S
C400 H385 0.959 . S
C400 H386 0.961 . S
C400 C399 1.502 . S
C401 H387 0.960 1_565 S
C401 H388 0.961 . S
C401 H389 0.959 . S
C401 C399 1.561 1_565 S
C402 C399 1.526 1_565 S
C402 C403 1.396 . S
C402 C407 1.390 . S
C403 C397 1.465 . S
C403 C402 1.396 . S
C403 C404 1.399 . S
C404 H390 0.929 . S
C404 C403 1.399 . S
C404 C405 1.385 . S
C405 H391 0.931 . S
C405 C404 1.385 . S
C405 C406 1.389 . S
C406 C405 1.389 . S
C406 C407 1.387 . S
C407 H392 0.930 1_565 S
C407 C402 1.390 . S
C407 C406 1.387 . S
C97 C77 1.257 . S
C109 C3 1.273 . S
C124 C17 1.273 . S
C136 C7 1.256 . S
C151 C21 1.266 . S
C163 C31 1.215 . S
C178 C45 1.235 . S
C190 C35 1.267 . S
C205 C59 1.273 . S
C217 C49 1.256 . S
C232 C73 1.217 . S
C244 C63 1.262 . S
C259 C9 1.466 . S
C271 C51 1.455 . S
C286 C23 1.467 . S
C298 C65 1.455 . S
C313 C79 1.467 . S
C325 C37 1.455 . S
C340 C78 1.370 . S
C352 C36 1.415 . S
C367 C50 1.403 . S
C379 C8 1.373 . S
C394 C22 1.414 . S
C406 C64 1.363 . S
