# Generated by pormake.
# Topology vbk, (5)-cn, num edge types: 1
# Building blocks:
#     Node 0, Type 0, BuildingBlock: BEQFEK_clean_sbu_0, # of connection points: 5
#     Node 1, Type 0, BuildingBlock: BEQFEK_clean_sbu_0, # of connection points: 5
#     Node 2, Type 0, BuildingBlock: BEQFEK_clean_sbu_0, # of connection points: 5
#     Node 3, Type 0, BuildingBlock: BEQFEK_clean_sbu_0, # of connection points: 5
#     Node 4, Type 0, BuildingBlock: BEQFEK_clean_sbu_0, # of connection points: 5
#     Node 5, Type 0, BuildingBlock: BEQFEK_clean_sbu_0, # of connection points: 5
#     Node 6, Type 0, BuildingBlock: BEQFEK_clean_sbu_0, # of connection points: 5
#     Node 7, Type 0, BuildingBlock: BEQFEK_clean_sbu_0, # of connection points: 5
#     Node 8, Type 0, BuildingBlock: BEQFEK_clean_sbu_0, # of connection points: 5
#     Node 9, Type 0, BuildingBlock: BEQFEK_clean_sbu_0, # of connection points: 5
#     Node 10, Type 0, BuildingBlock: BEQFEK_clean_sbu_0, # of connection points: 5
#     Node 11, Type 0, BuildingBlock: BEQFEK_clean_sbu_0, # of connection points: 5
#     Node 12, Type 0, BuildingBlock: BEQFEK_clean_sbu_0, # of connection points: 5
#     Node 13, Type 0, BuildingBlock: BEQFEK_clean_sbu_0, # of connection points: 5
#     Node 14, Type 0, BuildingBlock: BEQFEK_clean_sbu_0, # of connection points: 5
#     Node 15, Type 0, BuildingBlock: BEQFEK_clean_sbu_0, # of connection points: 5
#     Edge 16, Type (0, 0), BuildingBlock: XUDNAN_clean_linker_2, # of connection points: 2
#     Edge 17, Type (0, 0), BuildingBlock: XUDNAN_clean_linker_2, # of connection points: 2
#     Edge 18, Type (0, 0), BuildingBlock: XUDNAN_clean_linker_2, # of connection points: 2
#     Edge 19, Type (0, 0), BuildingBlock: XUDNAN_clean_linker_2, # of connection points: 2
#     Edge 20, Type (0, 0), BuildingBlock: XUDNAN_clean_linker_2, # of connection points: 2
#     Edge 21, Type (0, 0), BuildingBlock: XUDNAN_clean_linker_2, # of connection points: 2
#     Edge 22, Type (0, 0), BuildingBlock: XUDNAN_clean_linker_2, # of connection points: 2
#     Edge 23, Type (0, 0), BuildingBlock: XUDNAN_clean_linker_2, # of connection points: 2
#     Edge 24, Type (0, 0), BuildingBlock: XUDNAN_clean_linker_2, # of connection points: 2
#     Edge 25, Type (0, 0), BuildingBlock: XUDNAN_clean_linker_2, # of connection points: 2
#     Edge 26, Type (0, 0), BuildingBlock: XUDNAN_clean_linker_2, # of connection points: 2
#     Edge 27, Type (0, 0), BuildingBlock: XUDNAN_clean_linker_2, # of connection points: 2
#     Edge 28, Type (0, 0), BuildingBlock: XUDNAN_clean_linker_2, # of connection points: 2
#     Edge 29, Type (0, 0), BuildingBlock: XUDNAN_clean_linker_2, # of connection points: 2
#     Edge 30, Type (0, 0), BuildingBlock: XUDNAN_clean_linker_2, # of connection points: 2
#     Edge 31, Type (0, 0), BuildingBlock: XUDNAN_clean_linker_2, # of connection points: 2
#     Edge 32, Type (0, 0), BuildingBlock: XUDNAN_clean_linker_2, # of connection points: 2
#     Edge 33, Type (0, 0), BuildingBlock: XUDNAN_clean_linker_2, # of connection points: 2
#     Edge 34, Type (0, 0), BuildingBlock: XUDNAN_clean_linker_2, # of connection points: 2
#     Edge 35, Type (0, 0), BuildingBlock: XUDNAN_clean_linker_2, # of connection points: 2
#     Edge 36, Type (0, 0), BuildingBlock: XUDNAN_clean_linker_2, # of connection points: 2
#     Edge 37, Type (0, 0), BuildingBlock: XUDNAN_clean_linker_2, # of connection points: 2
#     Edge 38, Type (0, 0), BuildingBlock: XUDNAN_clean_linker_2, # of connection points: 2
#     Edge 39, Type (0, 0), BuildingBlock: XUDNAN_clean_linker_2, # of connection points: 2
#     Edge 40, Type (0, 0), BuildingBlock: XUDNAN_clean_linker_2, # of connection points: 2
#     Edge 41, Type (0, 0), BuildingBlock: XUDNAN_clean_linker_2, # of connection points: 2
#     Edge 42, Type (0, 0), BuildingBlock: XUDNAN_clean_linker_2, # of connection points: 2
#     Edge 43, Type (0, 0), BuildingBlock: XUDNAN_clean_linker_2, # of connection points: 2
#     Edge 44, Type (0, 0), BuildingBlock: XUDNAN_clean_linker_2, # of connection points: 2
#     Edge 45, Type (0, 0), BuildingBlock: XUDNAN_clean_linker_2, # of connection points: 2
#     Edge 46, Type (0, 0), BuildingBlock: XUDNAN_clean_linker_2, # of connection points: 2
#     Edge 47, Type (0, 0), BuildingBlock: XUDNAN_clean_linker_2, # of connection points: 2
#     Edge 48, Type (0, 0), BuildingBlock: XUDNAN_clean_linker_2, # of connection points: 2
#     Edge 49, Type (0, 0), BuildingBlock: XUDNAN_clean_linker_2, # of connection points: 2
#     Edge 50, Type (0, 0), BuildingBlock: XUDNAN_clean_linker_2, # of connection points: 2
#     Edge 51, Type (0, 0), BuildingBlock: XUDNAN_clean_linker_2, # of connection points: 2
#     Edge 52, Type (0, 0), BuildingBlock: XUDNAN_clean_linker_2, # of connection points: 2
#     Edge 53, Type (0, 0), BuildingBlock: XUDNAN_clean_linker_2, # of connection points: 2
#     Edge 54, Type (0, 0), BuildingBlock: XUDNAN_clean_linker_2, # of connection points: 2
#     Edge 55, Type (0, 0), BuildingBlock: XUDNAN_clean_linker_2, # of connection points: 2
# Relax obj value: 0.034
# Max RMSD: 0.067
# Mean RMSD: 0.067
data_MOF--net-vbk--node1-BEQFEK_clean_sbu_0--edge1-XUDNAN_clean_linker_2
_symmetry_space_group_name_H-M    P1
_symmetry_Int_Tables_number       1
_symmetry_cell_setting            triclinic
loop_
_symmetry_equiv_pos_as_xyz
'x, y, z'
_cell_length_a     76.484531
_cell_length_b     42.045363
_cell_length_c     26.811436
_cell_angle_alpha  90.023939
_cell_angle_beta   89.965676
_cell_angle_gamma 90.054015
loop_
_atom_site_label
_atom_site_type_symbol
_atom_site_fract_x
_atom_site_fract_y
_atom_site_fract_z
_atom_type_partial_charge
Co0 Co 0.11054 0.14851 0.15067 0.0
Co1 Co 0.15139 0.13655 0.15018 0.0
C2 C 0.12801 0.0855 0.11918 0.0
O3 O 0.11527 0.10457 0.12631 0.0
O4 O 0.14372 0.0936 0.129 0.0
C5 C 0.07504 0.12905 0.17087 0.0
O6 O 0.08162 0.10026 0.16877 0.0
C7 C 0.18895 0.1221 0.1749 0.0
C8 C 0.20047 0.16884 0.1563 0.0
C9 C 0.20453 0.1394 0.1763 0.0
N10 N 0.17632 0.14093 0.1559 0.0
N11 N 0.18346 0.16854 0.14407 0.0
C12 C 0.18567 0.08954 0.19528 0.0
H13 H 0.17144 0.08537 0.2002 0.0
H14 H 0.19255 0.08644 0.23138 0.0
H15 H 0.19082 0.07163 0.16866 0.0
C16 C 0.11918 0.17429 0.24977 0.0
N17 N 0.12355 0.15791 0.20844 0.0
N18 N 0.14027 0.15067 0.21002 0.0
C19 C 0.14692 0.16123 0.25352 0.0
C20 C 0.13389 0.17707 0.27989 0.0
C21 C 0.10196 0.19076 0.25624 0.0
H22 H 0.09678 0.19826 0.21947 0.0
H23 H 0.0925 0.17394 0.27325 0.0
H24 H 0.10314 0.21198 0.2806 0.0
O25 O 0.117 0.17796 0.09659 0.0
O26 O 0.1452 0.16562 0.09446 0.0
H27 H 0.17409 0.17296 0.24813 0.0
H28 H 0.16718 0.16103 0.30987 0.0
C29 C 0.1655 0.15657 0.26937 0.0
H30 H 0.16949 0.13182 0.2614 0.0
H31 H 0.17652 0.18777 0.12951 0.0
O32 O 0.08504 0.1529 0.16451 0.0
C33 C 0.1321 0.18064 0.07708 0.0
Co34 Co 0.40636 0.83578 0.6436 0.0
Co35 Co 0.36585 0.84955 0.65239 0.0
C36 C 0.38794 0.8943 0.59868 0.0
O37 O 0.40068 0.87544 0.60675 0.0
O38 O 0.37285 0.88909 0.61719 0.0
C39 C 0.44197 0.8579 0.6492 0.0
O40 O 0.43467 0.88592 0.64347 0.0
C41 C 0.3289 0.86875 0.67672 0.0
C42 C 0.31691 0.82093 0.67771 0.0
C43 C 0.31312 0.85284 0.68451 0.0
N44 N 0.34133 0.84698 0.66626 0.0
N45 N 0.33397 0.81855 0.66681 0.0
C46 C 0.33208 0.90385 0.67755 0.0
H47 H 0.3436 0.91002 0.65442 0.0
H48 H 0.33474 0.91147 0.71643 0.0
H49 H 0.32041 0.91684 0.66383 0.0
C50 C 0.40184 0.82648 0.7522 0.0
N51 N 0.39562 0.83519 0.70726 0.0
N52 N 0.37892 0.84215 0.7114 0.0
C53 C 0.37401 0.83837 0.75934 0.0
C54 C 0.38833 0.82819 0.78683 0.0
C55 C 0.41985 0.81354 0.76021 0.0
H56 H 0.42374 0.79866 0.72788 0.0
H57 H 0.4292 0.83365 0.763 0.0
H58 H 0.42063 0.79909 0.79474 0.0
O59 O 0.39783 0.80018 0.60158 0.0
O60 O 0.36994 0.81441 0.60455 0.0
H61 H 0.34735 0.82394 0.76689 0.0
H62 H 0.35564 0.84606 0.81959 0.0
C63 C 0.35588 0.84401 0.77833 0.0
H64 H 0.35062 0.86619 0.76191 0.0
H65 H 0.34068 0.79739 0.66006 0.0
O66 O 0.43234 0.8332 0.65043 0.0
C67 C 0.38203 0.79658 0.5877 0.0
Co68 Co 0.10182 0.84098 0.85975 0.0
Co69 Co 0.14244 0.85163 0.84808 0.0
C70 C 0.12154 0.90064 0.89596 0.0
O71 O 0.10835 0.88239 0.8904 0.0
O72 O 0.13653 0.89306 0.87891 0.0
C73 C 0.06943 0.86512 0.83085 0.0
O74 O 0.08015 0.88658 0.81251 0.0
C75 C 0.17904 0.8688 0.81938 0.0
C76 C 0.19033 0.82051 0.81476 0.0
C77 C 0.19423 0.85232 0.80735 0.0
N78 N 0.16672 0.84748 0.83272 0.0
N79 N 0.17369 0.81878 0.83049 0.0
C80 C 0.17576 0.90368 0.81404 0.0
H81 H 0.16158 0.90834 0.80914 0.0
H82 H 0.1832 0.91345 0.78193 0.0
H83 H 0.18022 0.91597 0.84839 0.0
C84 C 0.10554 0.82627 0.75222 0.0
N85 N 0.11215 0.83637 0.79601 0.0
N86 N 0.12889 0.84267 0.79036 0.0
C87 C 0.13338 0.83738 0.74241 0.0
C88 C 0.11876 0.8267 0.71668 0.0
C89 C 0.08746 0.81322 0.74603 0.0
H90 H 0.08278 0.80277 0.78158 0.0
H91 H 0.07852 0.8328 0.73519 0.0
H92 H 0.08708 0.79477 0.71645 0.0
O93 O 0.1098 0.80709 0.9055 0.0
O94 O 0.13804 0.81889 0.89971 0.0
H95 H 0.15989 0.82261 0.73274 0.0
H96 H 0.15104 0.84407 0.68023 0.0
C97 C 0.1513 0.84261 0.72154 0.0
H98 H 0.15682 0.86498 0.73662 0.0
H99 H 0.16688 0.79785 0.83825 0.0
O100 O 0.07584 0.84143 0.85393 0.0
C101 C 0.12561 0.80286 0.91893 0.0
Co102 Co 0.41407 0.13727 0.35889 0.0
Co103 Co 0.37294 0.14454 0.36494 0.0
C104 C 0.39116 0.08211 0.38358 0.0
O105 O 0.40598 0.09437 0.37422 0.0
O106 O 0.37719 0.09857 0.38167 0.0
C107 C 0.44668 0.10987 0.3298 0.0
O108 O 0.4363 0.08649 0.31637 0.0
C109 C 0.33726 0.13364 0.32771 0.0
C110 C 0.32207 0.16932 0.36978 0.0
C111 C 0.32038 0.14541 0.33438 0.0
N112 N 0.3482 0.14981 0.35777 0.0
N113 N 0.33901 0.17098 0.38301 0.0
C114 C 0.34331 0.10903 0.29131 0.0
H115 H 0.35756 0.11152 0.28434 0.0
H116 H 0.33604 0.11115 0.25566 0.0
H117 H 0.34092 0.08504 0.30715 0.0
C118 C 0.40826 0.16834 0.26228 0.0
N119 N 0.40201 0.1541 0.30346 0.0
N120 N 0.38501 0.15864 0.30625 0.0
C121 C 0.38001 0.17704 0.26748 0.0
C122 C 0.39462 0.18387 0.23828 0.0
C123 C 0.42714 0.16794 0.24755 0.0
H124 H 0.43216 0.14328 0.24977 0.0
H125 H 0.42909 0.17678 0.20897 0.0
H126 H 0.43476 0.18281 0.27396 0.0
O127 O 0.40977 0.16384 0.41877 0.0
O128 O 0.3809 0.17052 0.42256 0.0
H129 H 0.35742 0.19883 0.30038 0.0
H130 H 0.36239 0.21294 0.23844 0.0
C131 C 0.36225 0.19174 0.26301 0.0
H132 H 0.35306 0.17396 0.24727 0.0
H133 H 0.34434 0.18676 0.40894 0.0
O134 O 0.43995 0.13509 0.34772 0.0
C135 C 0.39621 0.17539 0.43976 0.0
Co136 Co 0.90863 0.84009 0.86756 0.0
Co137 Co 0.86805 0.85234 0.85718 0.0
C138 C 0.88929 0.9008 0.90331 0.0
O139 O 0.90199 0.88147 0.89785 0.0
O140 O 0.87419 0.89457 0.88559 0.0
C141 C 0.94069 0.86423 0.83582 0.0
O142 O 0.92971 0.88513 0.81725 0.0
C143 C 0.83074 0.86653 0.82877 0.0
C144 C 0.82097 0.81717 0.82459 0.0
C145 C 0.81595 0.84844 0.81658 0.0
N146 N 0.84372 0.84654 0.8421 0.0
N147 N 0.83764 0.81719 0.84002 0.0
C148 C 0.83266 0.90193 0.82872 0.0
H149 H 0.84377 0.90927 0.8526 0.0
H150 H 0.83531 0.9102 0.79016 0.0
H151 H 0.82051 0.91336 0.84247 0.0
C152 C 0.90434 0.82366 0.7614 0.0
N153 N 0.89801 0.83478 0.80486 0.0
N154 N 0.88141 0.84204 0.79941 0.0
C155 C 0.87676 0.83655 0.75164 0.0
C156 C 0.89111 0.82454 0.72599 0.0
C157 C 0.92213 0.80925 0.75567 0.0
H158 H 0.92678 0.79977 0.79189 0.0
H159 H 0.9314 0.82782 0.7428 0.0
H160 H 0.92197 0.78976 0.72776 0.0
O161 O 0.90086 0.80708 0.91464 0.0
O162 O 0.87291 0.82157 0.91207 0.0
H163 H 0.85005 0.8234 0.74059 0.0
H164 H 0.85944 0.84555 0.68956 0.0
C165 C 0.859 0.8432 0.73076 0.0
H166 H 0.85379 0.8655 0.747 0.0
H167 H 0.84508 0.79702 0.84787 0.0
O168 O 0.93458 0.84086 0.86038 0.0
C169 C 0.88525 0.80506 0.93081 0.0
Co170 Co 0.60656 0.15247 0.36219 0.0
Co171 Co 0.64736 0.16474 0.35534 0.0
C172 C 0.63238 0.10781 0.40853 0.0
O173 O 0.61672 0.11562 0.39808 0.0
O174 O 0.6453 0.12455 0.3939 0.0
C175 C 0.57532 0.11702 0.34549 0.0
O176 O 0.58672 0.09392 0.34004 0.0
C177 C 0.68369 0.15235 0.32235 0.0
C178 C 0.69616 0.19892 0.33588 0.0
C179 C 0.69953 0.16864 0.31765 0.0
N180 N 0.67173 0.17221 0.34209 0.0
N181 N 0.67934 0.19991 0.35046 0.0
C182 C 0.67942 0.11937 0.3053 0.0
H183 H 0.66508 0.11655 0.30065 0.0
H184 H 0.68615 0.11401 0.26958 0.0
H185 H 0.68388 0.10212 0.33388 0.0
C186 C 0.61014 0.16063 0.25224 0.0
N187 N 0.61713 0.15814 0.29827 0.0
N188 N 0.63409 0.1634 0.29546 0.0
C189 C 0.63836 0.16979 0.2477 0.0
C190 C 0.62338 0.16789 0.21864 0.0
C191 C 0.59111 0.15645 0.24097 0.0
H192 H 0.58721 0.13175 0.25021 0.0
H193 H 0.58812 0.16074 0.2011 0.0
H194 H 0.58331 0.17284 0.26456 0.0
O195 O 0.61012 0.19092 0.40449 0.0
O196 O 0.63869 0.20017 0.39732 0.0
H197 H 0.65524 0.1939 0.19473 0.0
H198 H 0.66502 0.16124 0.22795 0.0
C199 C 0.65592 0.18163 0.23129 0.0
H200 H 0.6612 0.19853 0.25919 0.0
H201 H 0.67296 0.21969 0.36535 0.0
O202 O 0.58087 0.14488 0.35514 0.0
C203 C 0.62368 0.2074 0.41453 0.0
Co204 Co 0.91055 0.14173 0.16351 0.0
Co205 Co 0.86983 0.14863 0.1458 0.0
C206 C 0.88977 0.08777 0.12361 0.0
O207 O 0.90399 0.09963 0.13984 0.0
O208 O 0.87557 0.1038 0.12335 0.0
C209 C 0.94687 0.12216 0.17281 0.0
O210 O 0.94172 0.09561 0.15155 0.0
C211 C 0.83257 0.1383 0.17259 0.0
C212 C 0.81997 0.17811 0.13281 0.0
C213 C 0.81645 0.15318 0.1652 0.0
N214 N 0.84485 0.15407 0.14628 0.0
N215 N 0.83715 0.17754 0.12209 0.0
C216 C 0.83672 0.11133 0.20696 0.0
H217 H 0.85097 0.11037 0.2146 0.0
H218 H 0.82939 0.1138 0.24249 0.0
H219 H 0.83281 0.08864 0.18901 0.0
C220 C 0.90073 0.16216 0.26376 0.0
N221 N 0.89634 0.15396 0.21699 0.0
N222 N 0.87947 0.15844 0.21018 0.0
C223 C 0.87271 0.17086 0.2525 0.0
C224 C 0.88595 0.17332 0.28785 0.0
C225 C 0.91876 0.15874 0.28482 0.0
H226 H 0.92711 0.17835 0.27062 0.0
H227 H 0.92453 0.13588 0.27239 0.0
H228 H 0.91865 0.15941 0.32619 0.0
O229 O 0.90808 0.17131 0.10751 0.0
O230 O 0.87963 0.1787 0.09538 0.0
H231 H 0.84998 0.19323 0.22105 0.0
H232 H 0.85405 0.20316 0.28546 0.0
C233 C 0.85456 0.18381 0.25732 0.0
H234 H 0.84564 0.16458 0.26965 0.0
H235 H 0.84372 0.19386 0.09951 0.0
O236 O 0.9357 0.14374 0.18204 0.0
C237 C 0.89553 0.18436 0.0842 0.0
Co238 Co 0.60745 0.85938 0.63406 0.0
Co239 Co 0.64831 0.84919 0.62779 0.0
C240 C 0.63128 0.91318 0.60974 0.0
O241 O 0.6158 0.90333 0.61871 0.0
O242 O 0.64441 0.89461 0.61238 0.0
C243 C 0.57009 0.87814 0.63758 0.0
O244 O 0.57457 0.90562 0.61803 0.0
C245 C 0.68497 0.86057 0.65659 0.0
C246 C 0.69745 0.81526 0.6349 0.0
C247 C 0.70074 0.84427 0.65758 0.0
N248 N 0.6729 0.84194 0.6346 0.0
N249 N 0.68053 0.8151 0.62103 0.0
C250 C 0.68092 0.89167 0.68105 0.0
H251 H 0.66679 0.89321 0.69015 0.0
H252 H 0.68879 0.89472 0.71549 0.0
H253 H 0.68428 0.91125 0.65502 0.0
C254 C 0.61305 0.82491 0.72903 0.0
N255 N 0.61931 0.84055 0.68885 0.0
N256 N 0.63637 0.83688 0.68676 0.0
C257 C 0.64155 0.81932 0.72608 0.0
C258 C 0.62695 0.81071 0.75381 0.0
C259 C 0.59397 0.81961 0.73848 0.0
H260 H 0.58813 0.80733 0.70585 0.0
H261 H 0.58736 0.84293 0.74267 0.0
H262 H 0.59161 0.80508 0.7723 0.0
O263 O 0.61127 0.83353 0.57372 0.0
O264 O 0.63978 0.82354 0.57017 0.0
H265 H 0.6642 0.79245 0.70589 0.0
H266 H 0.66153 0.7978 0.7724 0.0
C267 C 0.66003 0.80929 0.73541 0.0
H268 H 0.66868 0.83039 0.73426 0.0
H269 H 0.67403 0.7962 0.60389 0.0
O270 O 0.58182 0.85758 0.64684 0.0
C271 C 0.62437 0.82055 0.55268 0.0
Co272 Co 0.60455 0.63913 0.12906 0.0
Co273 Co 0.64561 0.64598 0.13016 0.0
C274 C 0.62782 0.58303 0.11255 0.0
O275 O 0.61248 0.59484 0.11485 0.0
O276 O 0.64136 0.6001 0.11975 0.0
C277 C 0.56732 0.62116 0.12505 0.0
O278 O 0.57217 0.59655 0.09819 0.0
C279 C 0.68123 0.63928 0.171 0.0
C280 C 0.69667 0.6664 0.11581 0.0
C281 C 0.69813 0.64801 0.15838 0.0
N282 N 0.67022 0.65204 0.13741 0.0
N283 N 0.67955 0.66842 0.10476 0.0
C284 C 0.67578 0.61695 0.2115 0.0
H285 H 0.66137 0.61376 0.21167 0.0
H286 H 0.68012 0.62635 0.24813 0.0
H287 H 0.68226 0.59361 0.20587 0.0
C288 C 0.60903 0.67045 0.22679 0.0
N289 N 0.61592 0.65676 0.18591 0.0
N290 N 0.63287 0.66204 0.18514 0.0
C291 C 0.6372 0.68043 0.22453 0.0
C292 C 0.6222 0.68638 0.25236 0.0
C293 C 0.59011 0.66841 0.24071 0.0
H294 H 0.58518 0.644 0.23367 0.0
H295 H 0.58803 0.6743 0.28062 0.0
H296 H 0.58253 0.68521 0.2173 0.0
O297 O 0.60939 0.66561 0.06876 0.0
O298 O 0.63848 0.66767 0.06848 0.0
H299 H 0.66112 0.69961 0.19483 0.0
H300 H 0.6537 0.71857 0.25136 0.0
C301 C 0.65478 0.69552 0.23144 0.0
H302 H 0.66315 0.67945 0.25384 0.0
H303 H 0.67426 0.6803 0.07412 0.0
O304 O 0.57881 0.64069 0.14048 0.0
C305 C 0.62377 0.67424 0.04894 0.0
Co306 Co 0.91163 0.3496 0.6475 0.0
Co307 Co 0.87085 0.33934 0.66494 0.0
C308 C 0.88515 0.39836 0.61623 0.0
O309 O 0.90095 0.38893 0.61956 0.0
O310 O 0.87252 0.38172 0.63315 0.0
C311 C 0.94477 0.38114 0.65933 0.0
O312 O 0.9345 0.40561 0.66771 0.0
C313 C 0.83439 0.34915 0.70126 0.0
C314 C 0.82375 0.30056 0.6931 0.0
C315 C 0.81936 0.33097 0.70848 0.0
N316 N 0.84702 0.33019 0.68275 0.0
N317 N 0.84046 0.30129 0.67756 0.0
C318 C 0.83707 0.38344 0.71386 0.0
H319 H 0.8511 0.38816 0.72145 0.0
H320 H 0.82902 0.39028 0.74662 0.0
H321 H 0.83302 0.39821 0.68157 0.0
C322 C 0.91155 0.33321 0.75531 0.0
N323 N 0.90295 0.34096 0.71321 0.0
N324 N 0.88616 0.33538 0.7198 0.0
C325 C 0.88363 0.32265 0.76534 0.0
C326 C 0.89969 0.32082 0.78964 0.0
C327 C 0.93091 0.33657 0.76167 0.0
H328 H 0.93772 0.3199 0.73613 0.0
H329 H 0.93484 0.36112 0.75179 0.0
H330 H 0.93503 0.332 0.80067 0.0
O331 O 0.90579 0.31338 0.60156 0.0
O332 O 0.87734 0.30725 0.61576 0.0
H333 H 0.86268 0.29042 0.75068 0.0
H334 H 0.86781 0.29332 0.81544 0.0
C335 C 0.8668 0.30708 0.78044 0.0
H336 H 0.85653 0.3255 0.78465 0.0
H337 H 0.84748 0.28188 0.66386 0.0
O338 O 0.93783 0.35439 0.64917 0.0
C339 C 0.89132 0.29912 0.59357 0.0
Co340 Co 0.60395 0.34399 0.86236 0.0
Co341 Co 0.64495 0.33308 0.85603 0.0
C342 C 0.62935 0.38833 0.91191 0.0
O343 O 0.61379 0.38056 0.90008 0.0
O344 O 0.64243 0.37206 0.89726 0.0
C345 C 0.57269 0.37902 0.84518 0.0
O346 O 0.5841 0.40213 0.83965 0.0
C347 C 0.68221 0.34537 0.82837 0.0
C348 C 0.69306 0.2969 0.83415 0.0
C349 C 0.69764 0.32792 0.82213 0.0
N350 N 0.66934 0.32535 0.84265 0.0
N351 N 0.67601 0.29649 0.84627 0.0
C352 C 0.6796 0.38042 0.82241 0.0
H353 H 0.66739 0.3882 0.8409 0.0
H354 H 0.67849 0.38621 0.78218 0.0
H355 H 0.69086 0.39364 0.83832 0.0
C356 C 0.608 0.33695 0.75222 0.0
N357 N 0.61479 0.33957 0.7985 0.0
N358 N 0.63184 0.33544 0.796 0.0
C359 C 0.63641 0.32995 0.74822 0.0
C360 C 0.62149 0.33097 0.71877 0.0
C361 C 0.58891 0.33946 0.74064 0.0
H362 H 0.58147 0.32268 0.76452 0.0
H363 H 0.58442 0.36389 0.7493 0.0
H364 H 0.5861 0.33454 0.70082 0.0
O365 O 0.60764 0.30499 0.90335 0.0
O366 O 0.63628 0.29681 0.89588 0.0
H367 H 0.65885 0.30011 0.75689 0.0
H368 H 0.65454 0.31084 0.69329 0.0
C369 C 0.65429 0.31956 0.73228 0.0
H370 H 0.66348 0.33984 0.73583 0.0
H371 H 0.66886 0.2764 0.85661 0.0
O372 O 0.57823 0.3512 0.85496 0.0
C373 C 0.62134 0.28878 0.91271 0.0
Co374 Co 0.9015 0.6418 0.36305 0.0
Co375 Co 0.86046 0.64887 0.37073 0.0
C376 C 0.87922 0.59062 0.40773 0.0
O377 O 0.89434 0.6004 0.39462 0.0
O378 O 0.86564 0.6073 0.39996 0.0
C379 C 0.93806 0.62028 0.35675 0.0
O380 O 0.93297 0.5943 0.37977 0.0
C381 C 0.82427 0.63232 0.3439 0.0
C382 C 0.81019 0.67674 0.36155 0.0
C383 C 0.80802 0.64695 0.34027 0.0
N384 N 0.83559 0.65294 0.36472 0.0
N385 N 0.82697 0.67916 0.37625 0.0
C386 C 0.82914 0.59943 0.32744 0.0
H387 H 0.83806 0.58848 0.35498 0.0
H388 H 0.83619 0.60059 0.29135 0.0
H389 H 0.81738 0.58418 0.32322 0.0
C390 C 0.89403 0.66458 0.26117 0.0
N391 N 0.88856 0.65193 0.30473 0.0
N392 N 0.87141 0.65402 0.30742 0.0
C393 C 0.8654 0.66716 0.26494 0.0
C394 C 0.87951 0.67496 0.23455 0.0
C395 C 0.9128 0.67206 0.25032 0.0
H396 H 0.91822 0.68667 0.28113 0.0
H397 H 0.92036 0.64957 0.2487 0.0
H398 H 0.91448 0.68512 0.21476 0.0
O399 O 0.89799 0.67671 0.41133 0.0
O400 O 0.86911 0.6822 0.41739 0.0
H401 H 0.84198 0.69269 0.28284 0.0
H402 H 0.84445 0.68402 0.21703 0.0
C403 C 0.84657 0.67487 0.25532 0.0
H404 H 0.83862 0.65309 0.25929 0.0
H405 H 0.83273 0.69926 0.39216 0.0
O406 O 0.92692 0.64177 0.34678 0.0
C407 C 0.88459 0.69049 0.42945 0.0
Co408 Co 0.41122 0.35863 0.85961 0.0
Co409 Co 0.37007 0.34935 0.86399 0.0
C410 C 0.38746 0.41301 0.8808 0.0
O411 O 0.4025 0.40132 0.87266 0.0
O412 O 0.37371 0.39584 0.8792 0.0
C413 C 0.44397 0.38676 0.83229 0.0
O414 O 0.43362 0.41017 0.8189 0.0
C415 C 0.3343 0.35903 0.82578 0.0
C416 C 0.3195 0.32156 0.8651 0.0
C417 C 0.31757 0.3462 0.8311 0.0
N418 N 0.34538 0.3428 0.85531 0.0
N419 N 0.33642 0.32052 0.87885 0.0
C420 C 0.3401 0.3848 0.79107 0.0
H421 H 0.35435 0.38287 0.78373 0.0
H422 H 0.33277 0.38351 0.75541 0.0
H423 H 0.33757 0.40825 0.80865 0.0
C424 C 0.40639 0.32663 0.76351 0.0
N425 N 0.3997 0.34062 0.8043 0.0
N426 N 0.38275 0.33523 0.80633 0.0
C427 C 0.37825 0.31651 0.76738 0.0
C428 C 0.39314 0.31034 0.73898 0.0
C429 C 0.42531 0.32832 0.74933 0.0
H430 H 0.43311 0.3139 0.77586 0.0
H431 H 0.42985 0.3533 0.75184 0.0
H432 H 0.42757 0.31972 0.71075 0.0
O433 O 0.4068 0.33274 0.92001 0.0
O434 O 0.37805 0.3244 0.923 0.0
H435 H 0.35582 0.29336 0.79876 0.0
H436 H 0.36108 0.2805 0.73631 0.0
C437 C 0.36067 0.30126 0.76181 0.0
H438 H 0.35133 0.319 0.74676 0.0
H439 H 0.34188 0.30443 0.90404 0.0
O440 O 0.43718 0.36142 0.84965 0.0
C441 C 0.39336 0.32067 0.9409 0.0
Co442 Co 0.1017 0.65155 0.35042 0.0
Co443 Co 0.14281 0.64752 0.36233 0.0
C444 C 0.12076 0.59672 0.40287 0.0
O445 O 0.10734 0.61184 0.3876 0.0
O446 O 0.13617 0.60695 0.39444 0.0
C447 C 0.06623 0.62765 0.33959 0.0
O448 O 0.0728 0.60097 0.3567 0.0
C449 C 0.18049 0.63207 0.34445 0.0
C450 C 0.19158 0.68055 0.34794 0.0
C451 C 0.1958 0.64934 0.33672 0.0
N452 N 0.16776 0.65247 0.35818 0.0
N453 N 0.17467 0.68121 0.3615 0.0
C454 C 0.17751 0.59759 0.33352 0.0
H455 H 0.16332 0.5924 0.33043 0.0
H456 H 0.18431 0.59066 0.29858 0.0
H457 H 0.18303 0.58318 0.36438 0.0
C458 C 0.11216 0.66962 0.24847 0.0
N459 N 0.11581 0.65696 0.29346 0.0
N460 N 0.13274 0.65203 0.29709 0.0
C461 C 0.14024 0.65943 0.25309 0.0
C462 C 0.1276 0.67179 0.22118 0.0
C463 C 0.09487 0.68423 0.23581 0.0
H464 H 0.08788 0.69142 0.27022 0.0
H465 H 0.08678 0.66646 0.21569 0.0
H466 H 0.09651 0.70544 0.21165 0.0
O467 O 0.10589 0.68743 0.39497 0.0
O468 O 0.13457 0.68316 0.40686 0.0
H469 H 0.16713 0.67301 0.25985 0.0
H470 H 0.16162 0.65526 0.20054 0.0
C471 C 0.15916 0.65443 0.24132 0.0
H472 H 0.16325 0.63081 0.25502 0.0
H473 H 0.16756 0.70166 0.3701 0.0
O474 O 0.07627 0.65145 0.33305 0.0
C475 C 0.11997 0.6968 0.41549 0.0
Co476 Co 0.40328 0.65444 0.14889 0.0
Co477 Co 0.36205 0.64952 0.14083 0.0
C478 C 0.38354 0.60178 0.09189 0.0
O479 O 0.39699 0.61696 0.10687 0.0
O480 O 0.36819 0.61036 0.10423 0.0
C481 C 0.43908 0.63186 0.14556 0.0
O482 O 0.43242 0.60895 0.1182 0.0
C483 C 0.32435 0.6329 0.15847 0.0
C484 C 0.3134 0.68135 0.16405 0.0
C485 C 0.30901 0.64954 0.16948 0.0
N486 N 0.33716 0.65415 0.1488 0.0
N487 N 0.33036 0.68296 0.15127 0.0
C488 C 0.32677 0.59761 0.15576 0.0
H489 H 0.33725 0.59159 0.12883 0.0
H490 H 0.33065 0.58834 0.19282 0.0
H491 H 0.31442 0.58579 0.14429 0.0
C492 C 0.39379 0.66845 0.25353 0.0
N493 N 0.38987 0.65718 0.20777 0.0
N494 N 0.37299 0.65143 0.2052 0.0
C495 C 0.36588 0.65659 0.25046 0.0
C496 C 0.37863 0.66869 0.28241 0.0
C497 C 0.41096 0.68364 0.26598 0.0
H498 H 0.41803 0.69047 0.23152 0.0
H499 H 0.41909 0.66643 0.28709 0.0
H500 H 0.40906 0.70514 0.28935 0.0
O501 O 0.39852 0.69213 0.10913 0.0
O502 O 0.36981 0.68688 0.09833 0.0
H503 H 0.33865 0.6685 0.24952 0.0
H504 H 0.3455 0.64684 0.30426 0.0
C505 C 0.34727 0.64926 0.26335 0.0
H506 H 0.34338 0.62665 0.24549 0.0
H507 H 0.3375 0.70387 0.14627 0.0
O508 O 0.42898 0.65312 0.16329 0.0
C509 C 0.3842 0.70148 0.0901 0.0
Co510 Co 0.10592 0.34574 0.6478 0.0
Co511 Co 0.147 0.35802 0.65254 0.0
C512 C 0.12439 0.40901 0.62003 0.0
O513 O 0.11166 0.38962 0.62473 0.0
O514 O 0.13995 0.40114 0.6318 0.0
C515 C 0.07356 0.36868 0.68209 0.0
O516 O 0.08449 0.38943 0.7014 0.0
C517 C 0.18472 0.37124 0.6794 0.0
C518 C 0.19582 0.32424 0.66071 0.0
C519 C 0.2002 0.35353 0.68081 0.0
N520 N 0.17192 0.35278 0.66023 0.0
N521 N 0.17882 0.32497 0.6485 0.0
C522 C 0.1817 0.40398 0.69942 0.0
H523 H 0.1675 0.40853 0.70414 0.0
H524 H 0.18855 0.40705 0.7356 0.0
H525 H 0.18702 0.42164 0.67266 0.0
C526 C 0.1137 0.31889 0.74773 0.0
N527 N 0.11825 0.33605 0.70726 0.0
N528 N 0.1349 0.3438 0.71052 0.0
C529 C 0.14126 0.33283 0.754 0.0
C530 C 0.12822 0.31598 0.77857 0.0
C531 C 0.09654 0.30211 0.75311 0.0
H532 H 0.09055 0.29804 0.71599 0.0
H533 H 0.08759 0.31721 0.77548 0.0
H534 H 0.09817 0.27905 0.77267 0.0
O535 O 0.11304 0.31613 0.59397 0.0
O536 O 0.14115 0.32938 0.5963 0.0
H537 H 0.16849 0.32132 0.75052 0.0
H538 H 0.16099 0.33284 0.81178 0.0
C539 C 0.15968 0.33757 0.77123 0.0
H540 H 0.16372 0.3624 0.76389 0.0
H541 H 0.17174 0.30598 0.63364 0.0
O542 O 0.07983 0.34529 0.6578 0.0
C543 C 0.12853 0.31404 0.57673 0.0
H544 H 0.22569 0.18042 0.22563 0.0
H545 H 0.22218 0.08175 0.17945 0.0
H546 H 0.25137 0.07162 0.21627 0.0
H547 H 0.27052 0.19134 0.19846 0.0
H548 H 0.27453 0.21672 0.25144 0.0
H549 H 0.25312 0.21537 0.22372 0.0
H550 H 0.23958 0.2005 0.30928 0.0
H551 H 0.26095 0.20197 0.33737 0.0
H552 H 0.24784 0.1665 0.34272 0.0
H553 H 0.28182 0.07343 0.25699 0.0
H554 H 0.30974 0.08645 0.2985 0.0
H555 H 0.29292 0.18443 0.31472 0.0
C556 C 0.23099 0.15658 0.22333 0.0
C557 C 0.22155 0.13179 0.20006 0.0
C558 C 0.22896 0.10096 0.19804 0.0
C559 C 0.24561 0.09508 0.21852 0.0
C560 C 0.2546 0.12026 0.24092 0.0
C561 C 0.24743 0.15035 0.24358 0.0
C562 C 0.25964 0.17359 0.26892 0.0
C563 C 0.26475 0.20085 0.23351 0.0
C564 C 0.25152 0.18638 0.31745 0.0
C565 C 0.275 0.15209 0.27955 0.0
C566 C 0.27191 0.12138 0.26337 0.0
C567 C 0.28437 0.09748 0.26941 0.0
C568 C 0.30035 0.10523 0.29251 0.0
C569 C 0.30378 0.13669 0.30889 0.0
C570 C 0.29079 0.16018 0.30247 0.0
H571 H 0.21289 0.82526 0.73321 0.0
H572 H 0.21355 0.90461 0.83628 0.0
H573 H 0.24352 0.91852 0.80803 0.0
H574 H 0.25481 0.80024 0.75332 0.0
H575 H 0.25922 0.78889 0.68971 0.0
H576 H 0.23715 0.78861 0.71266 0.0
H577 H 0.22771 0.82643 0.64122 0.0
H578 H 0.24981 0.82673 0.61782 0.0
H579 H 0.23903 0.86366 0.63261 0.0
H580 H 0.27522 0.91802 0.77687 0.0
H581 H 0.30456 0.90433 0.74479 0.0
H582 H 0.28201 0.82667 0.6599 0.0
C583 C 0.21919 0.84603 0.74902 0.0
C584 C 0.21093 0.86405 0.78655 0.0
C585 C 0.21958 0.89088 0.80675 0.0
C586 C 0.2366 0.89884 0.79104 0.0
C587 C 0.24458 0.87999 0.75462 0.0
C588 C 0.23598 0.85439 0.73344 0.0
C589 C 0.24762 0.83633 0.69783 0.0
C590 C 0.24983 0.80148 0.7144 0.0
C591 C 0.24062 0.83843 0.64419 0.0
C592 C 0.2644 0.85489 0.70363 0.0
C593 C 0.26246 0.88021 0.73606 0.0
C594 C 0.27674 0.89883 0.75033 0.0
C595 C 0.2934 0.89103 0.73152 0.0
C596 C 0.29558 0.86486 0.69879 0.0
C597 C 0.28077 0.84711 0.68424 0.0
H598 H 0.72066 0.80756 0.71833 0.0
H599 H 0.71818 0.90123 0.65144 0.0
H600 H 0.74684 0.91475 0.6893 0.0
H601 H 0.74092 0.83322 0.83549 0.0
H602 H 0.75394 0.79765 0.84039 0.0
H603 H 0.73301 0.79633 0.80966 0.0
H604 H 0.74769 0.77319 0.73037 0.0
H605 H 0.76863 0.77445 0.76082 0.0
H606 H 0.76562 0.79437 0.70195 0.0
H607 H 0.77745 0.91516 0.72762 0.0
H608 H 0.80583 0.90416 0.76658 0.0
H609 H 0.78659 0.81196 0.81507 0.0
C610 C 0.72611 0.83101 0.71201 0.0
C611 C 0.71729 0.85342 0.68214 0.0
C612 C 0.72471 0.8839 0.67473 0.0
C613 C 0.74098 0.8917 0.69595 0.0
C614 C 0.74943 0.86891 0.7251 0.0
C615 C 0.74208 0.83934 0.73367 0.0
C616 C 0.75377 0.8189 0.76585 0.0
C617 C 0.74488 0.81108 0.81581 0.0
C618 C 0.75925 0.78844 0.73807 0.0
C619 C 0.76909 0.8412 0.77304 0.0
C620 C 0.76643 0.8699 0.74927 0.0
C621 C 0.77945 0.89311 0.74763 0.0
C622 C 0.7956 0.88673 0.77066 0.0
C623 C 0.79854 0.85753 0.79582 0.0
C624 C 0.78487 0.83479 0.79708 0.0
H625 H 0.72365 0.20611 0.27149 0.0
H626 H 0.71447 0.10834 0.31618 0.0
H627 H 0.74299 0.09301 0.28041 0.0
H628 H 0.74572 0.18962 0.15587 0.0
H629 H 0.76098 0.22198 0.16304 0.0
H630 H 0.73953 0.22464 0.19042 0.0
H631 H 0.75344 0.23518 0.27702 0.0
H632 H 0.77494 0.23249 0.24993 0.0
H633 H 0.7691 0.2073 0.30172 0.0
H634 H 0.77324 0.08879 0.23941 0.0
H635 H 0.80191 0.0963 0.19859 0.0
H636 H 0.79143 0.19737 0.18537 0.0
C637 C 0.72755 0.1814 0.27367 0.0
C638 C 0.7165 0.15834 0.29565 0.0
C639 C 0.72227 0.12634 0.29798 0.0
C640 C 0.73861 0.11744 0.27821 0.0
C641 C 0.74911 0.14084 0.25657 0.0
C642 C 0.74377 0.17219 0.25437 0.0
C643 C 0.75751 0.19305 0.23026 0.0
C644 C 0.75051 0.2082 0.18203 0.0
C645 C 0.76414 0.2185 0.26693 0.0
C646 C 0.7715 0.16861 0.21924 0.0
C647 C 0.76647 0.13859 0.23455 0.0
C648 C 0.77734 0.11229 0.22779 0.0
C649 C 0.79375 0.11686 0.20502 0.0
C650 C 0.79922 0.14756 0.18965 0.0
C651 C 0.78776 0.17357 0.19673 0.0
H652 H 0.70856 0.65812 0.25471 0.0
H653 H 0.72529 0.61843 0.11344 0.0
H654 H 0.75449 0.60741 0.14894 0.0
H655 H 0.74709 0.69929 0.27761 0.0
H656 H 0.74726 0.69346 0.34421 0.0
H657 H 0.72686 0.69328 0.31086 0.0
H658 H 0.71966 0.63748 0.34633 0.0
H659 H 0.74005 0.63753 0.38004 0.0
H660 H 0.73502 0.60542 0.33786 0.0
H661 H 0.78243 0.60612 0.19591 0.0
H662 H 0.80776 0.61655 0.24988 0.0
H663 H 0.77357 0.65816 0.36129 0.0
C664 C 0.71825 0.64615 0.232 0.0
C665 C 0.71471 0.6384 0.1818 0.0
C666 C 0.72781 0.62407 0.1522 0.0
C667 C 0.74437 0.61765 0.17209 0.0
C668 C 0.74763 0.62603 0.22151 0.0
C669 C 0.73498 0.64006 0.25112 0.0
C670 C 0.74249 0.64999 0.3011 0.0
C671 C 0.74083 0.68615 0.30887 0.0
C672 C 0.73379 0.63149 0.34387 0.0
C673 C 0.76141 0.64011 0.29441 0.0
C674 C 0.76399 0.62582 0.24857 0.0
C675 C 0.78052 0.61651 0.23244 0.0
C676 C 0.79485 0.62223 0.26371 0.0
C677 C 0.79258 0.63709 0.31069 0.0
C678 C 0.77561 0.64603 0.32613 0.0
H679 H 0.79859 0.29677 0.77066 0.0
H680 H 0.80045 0.3851 0.68757 0.0
H681 H 0.76987 0.39648 0.71226 0.0
H682 H 0.75617 0.27503 0.73853 0.0
H683 H 0.75059 0.25846 0.79846 0.0
H684 H 0.77302 0.25902 0.77823 0.0
H685 H 0.78187 0.28964 0.85827 0.0
H686 H 0.75946 0.28897 0.87899 0.0
H687 H 0.77092 0.3263 0.87369 0.0
H688 H 0.7377 0.39424 0.73772 0.0
H689 H 0.70808 0.38101 0.76615 0.0
H690 H 0.72807 0.29575 0.83745 0.0
C691 C 0.79266 0.31882 0.75845 0.0
C692 C 0.80194 0.34027 0.72776 0.0
C693 C 0.79372 0.36871 0.71208 0.0
C694 C 0.7763 0.37523 0.72563 0.0
C695 C 0.76741 0.35325 0.75536 0.0
C696 C 0.77545 0.32584 0.77216 0.0
C697 C 0.76298 0.30545 0.80218 0.0
C698 C 0.76055 0.27256 0.77788 0.0
C699 C 0.76918 0.30242 0.85651 0.0
C700 C 0.74649 0.32517 0.79859 0.0
C701 C 0.74925 0.35265 0.77151 0.0
C702 C 0.73554 0.37327 0.76029 0.0
C703 C 0.71864 0.36565 0.7773 0.0
C704 C 0.71555 0.33781 0.80593 0.0
C705 C 0.72984 0.31753 0.81651 0.0
H706 H 0.22247 0.31145 0.72383 0.0
H707 H 0.21767 0.41156 0.68718 0.0
H708 H 0.24713 0.42123 0.72227 0.0
H709 H 0.24567 0.32113 0.83946 0.0
H710 H 0.25914 0.28657 0.82939 0.0
H711 H 0.23752 0.28829 0.80297 0.0
H712 H 0.25047 0.27779 0.71512 0.0
H713 H 0.27213 0.27621 0.7412 0.0
H714 H 0.26735 0.30363 0.69139 0.0
H715 H 0.27791 0.4191 0.76101 0.0
H716 H 0.30617 0.40575 0.80029 0.0
H717 H 0.29058 0.30665 0.80787 0.0
C718 C 0.22752 0.33551 0.7232 0.0
C719 C 0.21754 0.36082 0.70331 0.0
C720 C 0.22476 0.39188 0.70335 0.0
C721 C 0.2416 0.39753 0.72279 0.0
C722 C 0.25107 0.37189 0.74193 0.0
C723 C 0.24419 0.34151 0.7423 0.0
C724 C 0.2569 0.31779 0.76431 0.0
C725 C 0.24935 0.30256 0.81186 0.0
C726 C 0.26201 0.29237 0.72569 0.0
C727 C 0.27212 0.33945 0.77618 0.0
C728 C 0.26859 0.37058 0.76307 0.0
C729 C 0.28082 0.39473 0.77094 0.0
C730 C 0.29698 0.38682 0.79277 0.0
C731 C 0.30086 0.35497 0.8062 0.0
C732 C 0.28812 0.33119 0.79784 0.0
H733 H 0.21268 0.68136 0.26357 0.0
H734 H 0.21587 0.59576 0.35302 0.0
H735 H 0.24435 0.58273 0.31335 0.0
H736 H 0.2328 0.64804 0.1503 0.0
H737 H 0.24382 0.68483 0.13596 0.0
H738 H 0.2232 0.68544 0.16847 0.0
H739 H 0.23726 0.71815 0.23999 0.0
H740 H 0.25788 0.71768 0.20775 0.0
H741 H 0.25648 0.70301 0.27079 0.0
H742 H 0.27433 0.5833 0.27036 0.0
H743 H 0.30193 0.59613 0.22752 0.0
H744 H 0.27772 0.67965 0.16247 0.0
C745 C 0.21928 0.65966 0.27446 0.0
C746 C 0.21212 0.63951 0.31127 0.0
C747 C 0.22107 0.6113 0.32444 0.0
C748 C 0.23725 0.60381 0.30217 0.0
C749 C 0.24406 0.62452 0.26629 0.0
C750 C 0.23519 0.65169 0.25221 0.0
C751 C 0.24544 0.67084 0.21446 0.0
C752 C 0.23574 0.67236 0.16432 0.0
C753 C 0.24951 0.70439 0.23447 0.0
C754 C 0.2618 0.65085 0.21053 0.0
C755 C 0.2608 0.62412 0.24039 0.0
C756 C 0.27503 0.60366 0.24577 0.0
C757 C 0.29068 0.61098 0.2206 0.0
C758 C 0.29197 0.63841 0.19001 0.0
C759 C 0.27715 0.65815 0.18464 0.0
H760 H 0.97431 0.08093 0.15928 0.0
H761 H 0.96205 0.17725 0.2061 0.0
H762 H 0.99354 0.18884 0.21447 0.0
H763 H 0.0121 0.07028 0.24196 0.0
H764 H 0.02408 0.04759 0.19628 0.0
H765 H 1.00053 0.04635 0.19694 0.0
H766 H 0.99997 0.06381 0.10427 0.0
H767 H 0.02348 0.06527 0.10338 0.0
H768 H 0.01101 0.09989 0.08602 0.0
H769 H 0.0264 0.19132 0.21087 0.0
H770 H 0.05822 0.18343 0.20017 0.0
H771 H 0.04899 0.08507 0.15856 0.0
C772 C 0.97822 0.10434 0.17192 0.0
C773 C 0.96569 0.12819 0.18193 0.0
C774 C 0.97139 0.15856 0.19824 0.0
C775 C 0.98926 0.16539 0.2031 0.0
C776 C 1.00127 0.14153 0.19204 0.0
C777 C 0.996 0.11151 0.17732 0.0
C778 C 0.01156 0.09035 0.16646 0.0
C779 C 0.0121 0.06197 0.20257 0.0
C780 C 0.01149 0.07919 0.11179 0.0
C781 C 0.0264 0.11334 0.17643 0.0
C782 C 0.0202 0.14275 0.19113 0.0
C783 C 0.03142 0.16828 0.19999 0.0
C784 C 0.04945 0.16362 0.19363 0.0
C785 C 0.05607 0.13361 0.17885 0.0
C786 C 0.04434 0.10817 0.17055 0.0
H787 H 0.54113 0.91626 0.62424 0.0
H788 H 0.55678 0.82138 0.67001 0.0
H789 H 0.52584 0.80645 0.68031 0.0
H790 H 0.50404 0.92285 0.70968 0.0
H791 H 0.49076 0.94418 0.66542 0.0
H792 H 0.51422 0.94789 0.66344 0.0
H793 H 0.51413 0.93034 0.57078 0.0
H794 H 0.49069 0.92648 0.57252 0.0
H795 H 0.50398 0.89318 0.55372 0.0
H796 H 0.49317 0.80072 0.68132 0.0
H797 H 0.46103 0.80543 0.67594 0.0
H798 H 0.46652 0.90421 0.63136 0.0
C799 C 0.53807 0.89242 0.63681 0.0
C800 C 0.55145 0.87002 0.64623 0.0
C801 C 0.54682 0.83904 0.66258 0.0
C802 C 0.52926 0.83028 0.66854 0.0
C803 C 0.51641 0.85279 0.6584 0.0
C804 C 0.52057 0.88329 0.64325 0.0
C805 C 0.50421 0.90276 0.63416 0.0
C806 C 0.50325 0.9311 0.67034 0.0
C807 C 0.5032 0.91383 0.57955 0.0
C808 C 0.49023 0.87827 0.64575 0.0
C809 C 0.49755 0.84961 0.65972 0.0
C810 C 0.48728 0.82312 0.67079 0.0
C811 C 0.46903 0.82599 0.66749 0.0
C812 C 0.46124 0.85518 0.65336 0.0
C813 C 0.47205 0.88163 0.64264 0.0
H814 H 0.96766 0.82748 0.87286 0.0
H815 H 0.95686 0.91006 0.78058 0.0
H816 H 0.98843 0.91803 0.76786 0.0
H817 H 1.00545 0.85952 0.93345 0.0
H818 H 0.01728 0.82246 0.93438 0.0
H819 H 0.99373 0.8223 0.9351 0.0
H820 H 0.99342 0.78633 0.85662 0.0
H821 H 0.01697 0.78636 0.85568 0.0
H822 H 1.00494 0.79891 0.80135 0.0
H823 H 0.02092 0.91829 0.76665 0.0
H824 H 0.05263 0.91074 0.77692 0.0
H825 H 0.04292 0.82795 0.86981 0.0
C826 C 0.97194 0.84713 0.84977 0.0
C827 C 0.95974 0.86815 0.82773 0.0
C828 C 0.9659 0.89364 0.79793 0.0
C829 C 0.98383 0.89837 0.79039 0.0
C830 C 0.99549 0.87741 0.81282 0.0
C831 C 0.98986 0.85226 0.84184 0.0
C832 C 1.00525 0.83366 0.86238 0.0
C833 C 1.00543 0.83455 0.91973 0.0
C834 C 1.00513 0.79927 0.84283 0.0
C835 C 0.02038 0.85247 0.84063 0.0
C836 C 0.0144 0.87754 0.81207 0.0
C837 C 0.02578 0.89868 0.78877 0.0
C838 C 0.04379 0.89419 0.79493 0.0
C839 C 0.0503 0.86876 0.82417 0.0
C840 C 0.03837 0.84755 0.84709 0.0
H841 H 0.54757 0.15753 0.36271 0.0
H842 H 0.56023 0.06217 0.312 0.0
H843 H 0.52889 0.05101 0.29981 0.0
H844 H 0.50912 0.13584 0.43121 0.0
H845 H 0.49711 0.1712 0.41489 0.0
H846 H 0.52063 0.17231 0.41794 0.0
H847 H 0.52187 0.19315 0.32708 0.0
H848 H 0.49835 0.19205 0.32372 0.0
H849 H 0.51124 0.17092 0.27822 0.0
H850 H 0.49636 0.04969 0.29389 0.0
H851 H 0.46449 0.05757 0.29738 0.0
H852 H 0.47246 0.15349 0.35324 0.0
C853 C 0.54376 0.13435 0.34884 0.0
C854 C 0.55641 0.11073 0.33824 0.0
C855 C 0.55083 0.08065 0.32045 0.0
C856 C 0.53304 0.07409 0.31326 0.0
C857 C 0.52093 0.09781 0.32413 0.0
C858 C 0.526 0.1273 0.3417 0.0
C859 C 0.51022 0.14821 0.3518 0.0
C860 C 0.50922 0.15742 0.40726 0.0
C861 C 0.51044 0.17784 0.31819 0.0
C862 C 0.49552 0.12575 0.33747 0.0
C863 C 0.50204 0.0969 0.32129 0.0
C864 C 0.49109 0.07219 0.30642 0.0
C865 C 0.47297 0.07694 0.30853 0.0
C866 C 0.46591 0.10614 0.32561 0.0
C867 C 0.47741 0.13091 0.33995 0.0
H868 H 0.46424 0.59184 0.10831 0.0
H869 H 0.45742 0.67688 0.19821 0.0
H870 H 0.48949 0.68209 0.20548 0.0
H871 H 0.50242 0.56123 0.17474 0.0
H872 H 0.51258 0.54651 0.11863 0.0
H873 H 0.4891 0.54847 0.12302 0.0
H874 H 0.48813 0.58259 0.04261 0.0
H875 H 0.51159 0.58086 0.03808 0.0
H876 H 0.5007 0.61885 0.03953 0.0
H877 H 0.52228 0.67961 0.19922 0.0
H878 H 0.55336 0.66935 0.18108 0.0
H879 H 0.53884 0.58575 0.09534 0.0
C880 C 0.46945 0.61139 0.13002 0.0
C881 C 0.45827 0.63396 0.15273 0.0
C882 C 0.46569 0.65927 0.18053 0.0
C883 C 0.4839 0.66242 0.18489 0.0
C884 C 0.49452 0.64 0.16145 0.0
C885 C 0.48758 0.61489 0.13477 0.0
C886 C 0.50186 0.59459 0.11188 0.0
C887 C 0.50146 0.56069 0.13336 0.0
C888 C 0.50049 0.59422 0.05464 0.0
C889 C 0.51794 0.61254 0.12911 0.0
C890 C 0.51342 0.63855 0.15789 0.0
C891 C 0.52598 0.65919 0.17704 0.0
C892 C 0.54363 0.65314 0.16644 0.0
C893 C 0.54861 0.62668 0.13684 0.0
C894 C 0.53551 0.60609 0.11823 0.0
H895 H 0.04623 0.33029 0.64947 0.0
H896 H 0.05742 0.42061 0.7215 0.0
H897 H 0.02603 0.43296 0.72327 0.0
H898 H 0.01125 0.35795 0.57212 0.0
H899 H 0.99804 0.32269 0.57883 0.0
H900 H 0.02148 0.32008 0.58391 0.0
H901 H 0.0184 0.29416 0.67109 0.0
H902 H 0.99494 0.29654 0.66616 0.0
H903 H 1.00594 0.31417 0.7188 0.0
H904 H 0.99382 0.43723 0.7141 0.0
H905 H 0.96222 0.43158 0.6994 0.0
H906 H 0.97086 0.33787 0.63578 0.0
C907 C 0.04205 0.35255 0.66591 0.0
C908 C 0.0544 0.37448 0.68529 0.0
C909 C 0.04833 0.40334 0.70647 0.0
C910 C 0.03047 0.41066 0.70758 0.0
C911 C 0.0187 0.38882 0.68774 0.0
C912 C 0.02415 0.3602 0.66774 0.0
C913 C 0.00859 0.34103 0.64911 0.0
C914 C 0.00993 0.3351 0.59264 0.0
C915 C 0.00687 0.30961 0.67802 0.0
C916 C 0.99365 0.36356 0.66135 0.0
C917 C 0.99986 0.39101 0.68343 0.0
C918 C 0.98877 0.41575 0.69714 0.0
C919 C 0.9708 0.41234 0.68843 0.0
C920 C 0.96397 0.38428 0.66649 0.0
C921 C 0.97563 0.35957 0.6528 0.0
H922 H 0.4697 0.34296 0.855 0.0
H923 H 0.46185 0.43919 0.80062 0.0
H924 H 0.49373 0.44693 0.79655 0.0
H925 H 0.50652 0.36007 0.93234 0.0
H926 H 0.51786 0.32356 0.91851 0.0
H927 H 0.49435 0.32489 0.91568 0.0
H928 H 0.49524 0.30454 0.8245 0.0
H929 H 0.51877 0.30306 0.8271 0.0
H930 H 0.50809 0.32569 0.77887 0.0
H931 H 0.52626 0.44535 0.80135 0.0
H932 H 0.55761 0.43399 0.81248 0.0
H933 H 0.54488 0.33849 0.86255 0.0
C934 C 0.47469 0.36558 0.84195 0.0
C935 C 0.46321 0.39048 0.82816 0.0
C936 C 0.47031 0.41973 0.81136 0.0
C937 C 0.48843 0.42439 0.80891 0.0
C938 C 0.49936 0.39955 0.82316 0.0
C939 C 0.49281 0.37065 0.8391 0.0
C940 C 0.50752 0.34805 0.85278 0.0
C941 C 0.5065 0.3386 0.90811 0.0
C942 C 0.50739 0.31859 0.81877 0.0
C943 C 0.52331 0.36893 0.84252 0.0
C944 C 0.51826 0.39852 0.82545 0.0
C945 C 0.5304 0.42221 0.81444 0.0
C946 C 0.54819 0.41552 0.821 0.0
C947 C 0.55376 0.38534 0.83832 0.0
C948 C 0.54108 0.36174 0.84903 0.0
H949 H 0.96593 0.58083 0.37645 0.0
H950 H 0.9526 0.67175 0.30979 0.0
H951 H 0.98382 0.68204 0.29346 0.0
H952 H 1.00403 0.60655 0.43838 0.0
H953 H 0.01621 0.57053 0.42751 0.0
H954 H 0.99272 0.56921 0.43078 0.0
H955 H 0.99157 0.54283 0.34347 0.0
H956 H 0.01509 0.54404 0.33995 0.0
H957 H 1.00215 0.56203 0.29144 0.0
H958 H 0.01663 0.68415 0.28934 0.0
H959 H 0.04861 0.67753 0.29711 0.0
H960 H 0.04058 0.58501 0.36534 0.0
C961 C 0.96954 0.60274 0.3579 0.0
C962 C 0.95677 0.62547 0.34445 0.0
C963 C 0.9621 0.65394 0.32048 0.0
C964 C 0.97983 0.66 0.31093 0.0
C965 C 0.99209 0.6373 0.32523 0.0
C966 C 0.98718 0.60917 0.34795 0.0
C967 C 1.00302 0.58925 0.36121 0.0
C968 C 1.00405 0.58357 0.41783 0.0
C969 C 1.00295 0.55767 0.33228 0.0
C970 C 0.01759 0.61091 0.34343 0.0
C971 C 0.011 0.63842 0.32249 0.0
C972 C 0.02194 0.66257 0.30523 0.0
C973 C 0.04009 0.65861 0.30989 0.0
C974 C 0.04713 0.63072 0.33167 0.0
C975 C 0.03565 0.60648 0.34807 0.0
H976 H 0.15124 0.04576 0.07076 0.0
H977 H 0.09624 0.05713 0.10719 0.0
H978 H 0.08895 0.01196 0.05298 0.0
H979 H 0.14533 0.02721 0.9437 0.0
H980 H 0.16235 0.99767 0.94033 0.0
H981 H 0.16385 0.02949 0.98513 0.0
H982 H 0.16673 0.98871 0.05705 0.0
H983 H 0.16559 0.95676 0.01236 0.0
H984 H 0.15046 0.95795 0.0639 0.0
H985 H 0.08706 0.96898 0.99065 0.0
H986 H 0.09095 0.92561 0.93028 0.0
H987 H 0.1472 0.94049 0.93346 0.0
C988 C 0.13773 0.03826 0.06827 0.0
C989 C 0.12432 0.05507 0.09338 0.0
C990 C 0.10676 0.04475 0.08844 0.0
C991 C 0.10245 0.01913 0.05755 0.0
C992 C 0.11584 0.00389 0.03191 0.0
C993 C 0.13315 0.01261 0.0374 0.0
C994 C 0.14489 0.99236 0.00455 0.0
C995 C 0.15468 0.01292 0.96616 0.0
C996 C 0.15767 0.97278 0.03637 0.0
C997 C 0.1314 0.97124 0.97949 0.0
C998 C 0.11475 0.97851 0.99582 0.0
C999 C 0.10004 0.96278 0.97789 0.0
C1000 C 0.10241 0.93823 0.94339 0.0
C1001 C 0.11939 0.92946 0.92717 0.0
C1002 C 0.13405 0.94664 0.94493 0.0
H1003 H 0.36615 0.94533 0.57759 0.0
H1004 H 0.41578 0.90215 0.53678 0.0
H1005 H 0.4198 0.94215 0.47134 0.0
H1006 H 0.35278 0.96831 0.45238 0.0
H1007 H 0.34375 0.00598 0.47146 0.0
H1008 H 0.3439 0.97293 0.51427 0.0
H1009 H 0.36066 0.00686 0.57928 0.0
H1010 H 0.36029 0.0401 0.53701 0.0
H1011 H 0.38082 0.02601 0.56145 0.0
H1012 H 0.419 0.9859 0.41108 0.0
H1013 H 0.41545 0.03647 0.36632 0.0
H1014 H 0.36692 0.05393 0.44589 0.0
C1015 C 0.37785 0.94435 0.55486 0.0
C1016 C 0.39059 0.92041 0.56235 0.0
C1017 C 0.40581 0.92016 0.53206 0.0
C1018 C 0.40817 0.94265 0.49435 0.0
C1019 C 0.3953 0.9655 0.48738 0.0
C1020 C 0.38057 0.96701 0.51716 0.0
C1021 C 0.36942 0.99558 0.50346 0.0
C1022 C 0.35139 0.98506 0.48425 0.0
C1023 C 0.36771 0.01849 0.54794 0.0
C1024 C 0.38036 0.00996 0.46184 0.0
C1025 C 0.39505 0.99174 0.4528 0.0
C1026 C 0.40754 0.00039 0.41764 0.0
C1027 C 0.40539 0.02915 0.39234 0.0
C1028 C 0.39091 0.04912 0.40253 0.0
C1029 C 0.37795 0.0389 0.43669 0.0
H1030 H 0.86641 0.95035 0.92591 0.0
H1031 H 0.91848 0.91388 0.95723 0.0
H1032 H 0.92259 0.95499 0.02061 0.0
H1033 H 0.8787 0.03401 0.93955 0.0
H1034 H 0.85824 0.04534 0.9678 0.0
H1035 H 0.85898 0.01251 0.92467 0.0
H1036 H 0.84487 0.97615 0.9915 0.0
H1037 H 0.84438 0.00876 0.03513 0.0
H1038 H 0.85517 0.97216 0.05163 0.0
H1039 H 0.92108 0.99699 0.08304 0.0
H1040 H 0.91616 0.04507 0.13266 0.0
H1041 H 0.86589 0.05866 0.06007 0.0
C1042 C 0.87871 0.95125 0.9458 0.0
C1043 C 0.89204 0.92857 0.93659 0.0
C1044 C 0.908 0.93074 0.96336 0.0
C1045 C 0.91047 0.95394 0.99987 0.0
C1046 C 0.89699 0.97524 0.00902 0.0
C1047 C 0.88158 0.97479 0.9822 0.0
C1048 C 0.86968 0.00182 0.99856 0.0
C1049 C 0.8662 0.02478 0.95506 0.0
C1050 C 0.8525 0.98894 0.0205 0.0
C1051 C 0.88089 0.0173 0.03865 0.0
C1052 C 0.89643 0.00103 0.04434 0.0
C1053 C 0.90905 0.0102 0.07872 0.0
C1054 C 0.90607 0.03759 0.10683 0.0
C1055 C 0.8907 0.05592 0.10007 0.0
C1056 C 0.87772 0.04511 0.06634 0.0
H1057 H 0.60825 0.06491 0.4445 0.0
H1058 H 0.6637 0.0875 0.44646 0.0
H1059 H 0.66885 0.04281 0.50408 0.0
H1060 H 0.60458 0.04158 0.574 0.0
H1061 H 0.58954 0.00952 0.5615 0.0
H1062 H 0.58996 0.04391 0.52141 0.0
H1063 H 0.59529 0.00779 0.44456 0.0
H1064 H 0.59465 0.97332 0.4843 0.0
H1065 H 0.61339 0.98035 0.445 0.0
H1066 H 0.66818 0.99543 0.56006 0.0
H1067 H 0.66215 0.94564 0.60532 0.0
H1068 H 0.60714 0.95347 0.56738 0.0
C1069 C 0.62149 0.06052 0.45702 0.0
C1070 C 0.63556 0.07987 0.44098 0.0
C1071 C 0.65269 0.07309 0.45812 0.0
C1072 C 0.65574 0.04785 0.49112 0.0
C1073 C 0.64156 0.02957 0.50666 0.0
C1074 C 0.62479 0.03536 0.48989 0.0
C1075 C 0.61197 0.01128 0.51082 0.0
C1076 C 0.5982 0.02756 0.5439 0.0
C1077 C 0.60332 0.99205 0.46866 0.0
C1078 C 0.6242 0.99082 0.54155 0.0
C1079 C 0.64117 0.00202 0.53896 0.0
C1080 C 0.65493 0.9865 0.56257 0.0
C1081 C 0.65136 0.95824 0.58828 0.0
C1082 C 0.63416 0.94568 0.59012 0.0
C1083 C 0.62036 0.96269 0.56738 0.0
H1084 H 0.60381 0.54434 0.06597 0.0
H1085 H 0.65778 0.54775 0.11601 0.0
H1086 H 0.66364 0.49718 0.07271 0.0
H1087 H 0.5988 0.45635 0.07284 0.0
H1088 H 0.58548 0.45519 0.01743 0.0
H1089 H 0.58501 0.48967 0.05737 0.0
H1090 H 0.59293 0.52524 0.9818 0.0
H1091 H 0.59374 0.49088 0.94183 0.0
H1092 H 0.61245 0.51683 0.94643 0.0
H1093 H 0.66463 0.44991 0.01647 0.0
H1094 H 0.65997 0.40598 0.95703 0.0
H1095 H 0.6053 0.43265 0.94375 0.0
C1096 C 0.61672 0.53398 0.06911 0.0
C1097 C 0.63032 0.55001 0.09458 0.0
C1098 C 0.64714 0.53593 0.09684 0.0
C1099 C 0.65061 0.50721 0.07229 0.0
C1100 C 0.63713 0.49271 0.04585 0.0
C1101 C 0.62044 0.5053 0.04468 0.0
C1102 C 0.60856 0.48579 0.01128 0.0
C1103 C 0.59358 0.47086 0.04155 0.0
C1104 C 0.60151 0.50589 0.96777 0.0
C1105 C 0.62128 0.46072 0.99308 0.0
C1106 C 0.63767 0.46515 0.01355 0.0
C1107 C 0.65179 0.4459 1.00072 0.0
C1108 C 0.64902 0.42111 0.96664 0.0
C1109 C 0.63225 0.4157 0.9458 0.0
C1110 C 0.61825 0.43595 0.95924 0.0
H1111 H 0.90826 0.43974 0.57075 0.0
H1112 H 0.85291 0.42382 0.5982 0.0
H1113 H 0.84577 0.47007 0.54597 0.0
H1114 H 0.9061 0.5263 0.57271 0.0
H1115 H 0.92208 0.531 0.52384 0.0
H1116 H 0.92298 0.49688 0.56437 0.0
H1117 H 0.92199 0.45976 0.48729 0.0
H1118 H 0.92087 0.49376 0.44655 0.0
H1119 H 0.90426 0.46339 0.44339 0.0
H1120 H 0.84432 0.51604 0.4889 0.0
H1121 H 0.84855 0.56273 0.43552 0.0
H1122 H 0.9049 0.55055 0.4448 0.0
C1123 C 0.89464 0.44614 0.56618 0.0
C1124 C 0.88115 0.42799 0.58859 0.0
C1125 C 0.8635 0.43723 0.58153 0.0
C1126 C 0.85929 0.46343 0.55175 0.0
C1127 C 0.87285 0.48032 0.52942 0.0
C1128 C 0.89017 0.47239 0.53663 0.0
C1129 C 0.90216 0.49487 0.50836 0.0
C1130 C 0.91403 0.51336 0.54448 0.0
C1131 C 0.91296 0.47686 0.46907 0.0
C1132 C 0.88881 0.51654 0.48403 0.0
C1133 C 0.87201 0.50747 0.4966 0.0
C1134 C 0.8574 0.52351 0.47894 0.0
C1135 C 0.85999 0.55003 0.44842 0.0
C1136 C 0.87708 0.56049 0.43584 0.0
C1137 C 0.89168 0.54315 0.45348 0.0
H1138 H 0.36291 0.44131 0.94181 0.0
H1139 H 0.41096 0.45951 0.8603 0.0
H1140 H 0.41397 0.51107 0.9026 0.0
H1141 H 0.34782 0.52695 0.94535 0.0
H1142 H 0.33913 0.52258 0.00747 0.0
H1143 H 0.3392 0.48913 0.96537 0.0
H1144 H 0.35611 0.45616 0.03106 0.0
H1145 H 0.35643 0.48963 0.07291 0.0
H1146 H 0.37665 0.47091 0.0547 0.0
H1147 H 0.41471 0.55534 0.96211 0.0
H1148 H 0.41086 0.5952 0.02823 0.0
H1149 H 0.36166 0.55112 0.07067 0.0
C1150 C 0.37367 0.45673 0.93154 0.0
C1151 C 0.3867 0.44642 0.89772 0.0
C1152 C 0.40085 0.4669 0.88612 0.0
C1153 C 0.40269 0.49624 0.90997 0.0
C1154 C 0.39017 0.50501 0.94497 0.0
C1155 C 0.37571 0.48634 0.95509 0.0
C1156 C 0.36484 0.50079 0.99676 0.0
C1157 C 0.34667 0.51044 0.97758 0.0
C1158 C 0.36344 0.47801 0.04149 0.0
C1159 C 0.37582 0.52978 0.00945 0.0
C1160 C 0.39036 0.53157 0.979 0.0
C1161 C 0.40319 0.55465 0.98554 0.0
C1162 C 0.40097 0.57698 0.02363 0.0
C1163 C 0.38595 0.57631 0.05454 0.0
C1164 C 0.37319 0.55237 0.04726 0.0
H1165 H 0.14581 0.55712 0.4435 0.0
H1166 H 0.08968 0.57259 0.43597 0.0
H1167 H 0.085 0.52867 0.49481 0.0
H1168 H 0.14357 0.47131 0.44966 0.0
H1169 H 0.16166 0.4679 0.49237 0.0
H1170 H 0.16068 0.50083 0.44955 0.0
H1171 H 0.16322 0.54004 0.52378 0.0
H1172 H 0.16394 0.50721 0.5669 0.0
H1173 H 0.14762 0.53778 0.57411 0.0
H1174 H 0.08608 0.48406 0.55479 0.0
H1175 H 0.09273 0.43738 0.60669 0.0
H1176 H 0.14812 0.44974 0.57608 0.0
C1177 C 0.13253 0.55116 0.45397 0.0
C1178 C 0.11813 0.56842 0.43493 0.0
C1179 C 0.10096 0.55976 0.44968 0.0
C1180 C 0.09814 0.53494 0.48344 0.0
C1181 C 0.11259 0.51887 0.50217 0.0
C1182 C 0.12944 0.52629 0.48766 0.0
C1183 C 0.14259 0.50454 0.5127 0.0
C1184 C 0.15272 0.48498 0.47375 0.0
C1185 C 0.15508 0.52354 0.54637 0.0
C1186 C 0.13045 0.48371 0.54328 0.0
C1187 C 0.11322 0.49267 0.53688 0.0
C1188 C 0.09952 0.47676 0.56016 0.0
C1189 C 0.10345 0.45029 0.58966 0.0
C1190 C 0.12095 0.43989 0.59552 0.0
C1191 C 0.13464 0.45732 0.57284 0.0
H1192 H 0.10797 0.30643 0.86259 0.0
H1193 H 0.15421 0.27243 0.78538 0.0
H1194 H 0.16054 0.23613 0.85483 0.0
H1195 H 0.12492 0.30276 0.98727 0.0
H1196 H 0.10503 0.28791 0.01491 0.0
H1197 H 0.10407 0.31217 0.95961 0.0
H1198 H 0.08669 0.26805 0.91383 0.0
H1199 H 0.08747 0.24376 0.96913 0.0
H1200 H 0.09554 0.22837 0.91074 0.0
H1201 H 0.16287 0.20567 0.93267 0.0
H1202 H 0.15927 0.17713 0.01194 0.0
H1203 H 0.11027 0.22674 0.03808 0.0
C1204 C 0.11936 0.29121 0.86046 0.0
C1205 C 0.13094 0.29293 0.81948 0.0
C1206 C 0.14556 0.27235 0.81736 0.0
C1207 C 0.1492 0.25148 0.85642 0.0
C1208 C 0.13787 0.25091 0.89692 0.0
C1209 C 0.12307 0.2697 0.89903 0.0
C1210 C 0.11281 0.26327 0.94645 0.0
C1211 C 0.11165 0.29332 0.97898 0.0
C1212 C 0.09454 0.25007 0.9343 0.0
C1213 C 0.12428 0.23816 0.97054 0.0
C1214 C 0.13874 0.23177 0.94136 0.0
C1215 C 0.15154 0.21019 0.95578 0.0
C1216 C 0.14939 0.19422 0.00104 0.0
C1217 C 0.13446 0.19959 0.03116 0.0
C1218 C 0.12177 0.222 0.0157 0.0
H1219 H 0.40293 0.75038 0.5437 0.0
H1220 H 0.35099 0.79227 0.53893 0.0
H1221 H 0.34422 0.76124 0.46414 0.0
H1222 H 0.41081 0.74951 0.41592 0.0
H1223 H 0.4214 0.71127 0.41328 0.0
H1224 H 0.42213 0.73432 0.46985 0.0
H1225 H 0.40871 0.68734 0.51926 0.0
H1226 H 0.40815 0.66394 0.46291 0.0
H1227 H 0.38843 0.66991 0.49853 0.0
H1228 H 0.34485 0.73495 0.38302 0.0
H1229 H 0.35075 0.7064 0.30555 0.0
H1230 H 0.40017 0.67306 0.36564 0.0
C1231 C 0.39001 0.75245 0.52752 0.0
C1232 C 0.37755 0.77398 0.54723 0.0
C1233 C 0.36081 0.77605 0.5248 0.0
C1234 C 0.35679 0.75852 0.48212 0.0
C1235 C 0.36948 0.73838 0.46276 0.0
C1236 C 0.38559 0.73447 0.48517 0.0
C1237 C 0.39685 0.71149 0.45539 0.0
C1238 C 0.4138 0.72762 0.43757 0.0
C1239 C 0.40076 0.68138 0.48584 0.0
C1240 C 0.38473 0.70427 0.41193 0.0
C1241 C 0.36911 0.72036 0.41709 0.0
C1242 C 0.35664 0.72092 0.3795 0.0
C1243 C 0.36005 0.70416 0.33566 0.0
C1244 C 0.37551 0.68592 0.33011 0.0
C1245 C 0.38805 0.68612 0.36898 0.0
H1246 H 0.1054 0.75461 0.95954 0.0
H1247 H 0.15512 0.80384 0.97494 0.0
H1248 H 0.16134 0.77356 0.05098 0.0
H1249 H 0.0946 0.7514 0.08673 0.0
H1250 H 0.08562 0.71176 0.086 0.0
H1251 H 0.08514 0.73564 0.03029 0.0
H1252 H 0.10153 0.6915 0.98174 0.0
H1253 H 0.1019 0.6673 0.03722 0.0
H1254 H 0.12202 0.67668 0.00539 0.0
H1255 H 0.16028 0.74538 0.13072 0.0
H1256 H 0.15425 0.71366 0.20528 0.0
H1257 H 0.10749 0.6755 0.13551 0.0
C1258 C 0.1177 0.75859 0.97856 0.0
C1259 C 0.12974 0.78168 0.96128 0.0
C1260 C 0.1457 0.78622 0.98717 0.0
C1261 C 0.14937 0.7692 0.03057 0.0
C1262 C 0.13713 0.74719 0.04717 0.0
C1263 C 0.1218 0.74118 0.02163 0.0
C1264 C 0.11095 0.71618 0.04844 0.0
C1265 C 0.09302 0.72956 0.06376 0.0
C1266 C 0.10899 0.68613 0.01627 0.0
C1267 C 0.12238 0.71 0.09366 0.0
C1268 C 0.13731 0.72847 0.0921 0.0
C1269 C 0.14903 0.72975 0.13159 0.0
C1270 C 0.14558 0.71127 0.17367 0.0
C1271 C 0.13084 0.69085 0.17549 0.0
C1272 C 0.11906 0.69034 0.13484 0.0
H1273 H 0.37372 0.30269 0.65318 0.0
H1274 H 0.41739 0.26327 0.73569 0.0
H1275 H 0.42308 0.2255 0.66738 0.0
H1276 H 0.35872 0.22584 0.60445 0.0
H1277 H 0.35205 0.24212 0.54526 0.0
H1278 H 0.35148 0.26656 0.60047 0.0
H1279 H 0.37113 0.30827 0.55659 0.0
H1280 H 0.37188 0.28384 0.50142 0.0
H1281 H 0.39191 0.29616 0.53114 0.0
H1282 H 0.42539 0.19474 0.58895 0.0
H1283 H 0.42203 0.16755 0.50808 0.0
H1284 H 0.37523 0.2227 0.47817 0.0
C1285 C 0.38436 0.28588 0.65685 0.0
C1286 C 0.39541 0.28637 0.69904 0.0
C1287 C 0.40912 0.26391 0.70294 0.0
C1288 C 0.41239 0.24224 0.66452 0.0
C1289 C 0.40156 0.24282 0.62289 0.0
C1290 C 0.38761 0.26355 0.61907 0.0
C1291 C 0.37776 0.25838 0.57062 0.0
C1292 C 0.35889 0.24757 0.58082 0.0
C1293 C 0.3782 0.28846 0.53802 0.0
C1294 C 0.38853 0.23182 0.54772 0.0
C1295 C 0.4023 0.22354 0.57841 0.0
C1296 C 0.41455 0.20069 0.56476 0.0
C1297 C 0.41259 0.18554 0.51865 0.0
C1298 C 0.39834 0.19294 0.48706 0.0
C1299 C 0.38615 0.21638 0.50187 0.0
H1300 H 0.89528 0.67082 0.14199 0.0
H1301 H 0.86376 0.73266 0.2353 0.0
H1302 H 0.86072 0.77044 0.16586 0.0
H1303 H 0.91908 0.73687 0.08359 0.0
H1304 H 0.92075 0.71739 0.02388 0.0
H1305 H 0.91982 0.69407 0.08019 0.0
H1306 H 0.89317 0.66331 0.04506 0.0
H1307 H 0.89389 0.68679 0.9889 0.0
H1308 H 0.87409 0.68503 0.02527 0.0
H1309 H 0.85906 0.79919 0.08632 0.0
H1310 H 0.86342 0.82372 0.00401 0.0
H1311 H 0.89939 0.74814 0.96343 0.0
C1312 C 0.88785 0.69243 0.14764 0.0
C1313 C 0.87921 0.69835 0.19333 0.0
C1314 C 0.86989 0.72712 0.19993 0.0
C1315 C 0.86817 0.7488 0.16085 0.0
C1316 C 0.87635 0.7419 0.11586 0.0
C1317 C 0.88644 0.71498 0.10927 0.0
C1318 C 0.89474 0.71471 0.05779 0.0
C1319 C 0.91479 0.71584 0.0616 0.0
C1320 C 0.8886 0.68573 0.02747 0.0
C1321 C 0.88747 0.74543 0.0365 0.0
C1322 C 0.87664 0.76026 0.07057 0.0
C1323 C 0.86768 0.78811 0.05943 0.0
C1324 C 0.87014 0.80169 0.01246 0.0
C1325 C 0.88174 0.78781 0.97755 0.0
C1326 C 0.89051 0.75925 0.98965 0.0
H1327 H 0.60259 0.21183 0.49637 0.0
H1328 H 0.64256 0.26243 0.41353 0.0
H1329 H 0.64287 0.30454 0.47791 0.0
H1330 H 0.57981 0.28252 0.55106 0.0
H1331 H 0.57666 0.26279 0.61006 0.0
H1332 H 0.57706 0.23995 0.55314 0.0
H1333 H 0.60184 0.20478 0.58908 0.0
H1334 H 0.60152 0.22743 0.64593 0.0
H1335 H 0.62161 0.22336 0.61134 0.0
H1336 H 0.64121 0.33784 0.55493 0.0
H1337 H 0.63929 0.35775 0.64167 0.0
H1338 H 0.60187 0.28368 0.67685 0.0
C1339 C 0.61095 0.23235 0.49105 0.0
C1340 C 0.62232 0.23429 0.44967 0.0
C1341 C 0.63363 0.26077 0.4448 0.0
C1342 C 0.63382 0.28483 0.48102 0.0
C1343 C 0.62275 0.28188 0.52208 0.0
C1344 C 0.61157 0.25622 0.52743 0.0
C1345 C 0.60276 0.25648 0.57808 0.0
C1346 C 0.58289 0.26069 0.57274 0.0
C1347 C 0.60721 0.22623 0.60784 0.0
C1348 C 0.61112 0.28571 0.60092 0.0
C1349 C 0.62229 0.30045 0.56757 0.0
C1350 C 0.63232 0.32678 0.58112 0.0
C1351 C 0.63117 0.3379 0.63031 0.0
C1352 C 0.62031 0.32241 0.66541 0.0
C1353 C 0.60993 0.29639 0.65025 0.0
H1354 H 0.87781 0.23677 0.04863 0.0
H1355 H 0.923 0.17672 0.02189 0.0
H1356 H 0.93026 0.20797 0.94706 0.0
H1357 H 0.86543 0.24795 0.92292 0.0
H1358 H 0.85952 0.28922 0.92952 0.0
H1359 H 0.85806 0.26294 0.98235 0.0
H1360 H 0.87824 0.3005 0.03304 0.0
H1361 H 0.87976 0.32691 0.98026 0.0
H1362 H 0.89936 0.31122 0.00827 0.0
H1363 H 0.93042 0.24034 0.87035 0.0
H1364 H 0.92507 0.27578 0.7991 0.0
H1365 H 0.88273 0.32107 0.8801 0.0
C1366 C 0.88927 0.23046 0.02709 0.0
C1367 C 0.89983 0.20435 0.04081 0.0
C1368 C 0.9148 0.19678 0.01209 0.0
C1369 C 0.91904 0.21433 0.96954 0.0
C1370 C 0.9084 0.23987 0.95686 0.0
C1371 C 0.894 0.24835 0.98506 0.0
C1372 C 0.88482 0.27692 0.96265 0.0
C1373 C 0.86584 0.26875 0.94853 0.0
C1374 C 0.8856 0.30559 0.99818 0.0
C1375 C 0.896 0.28237 0.91672 0.0
C1376 C 0.90944 0.26052 0.91407 0.0
C1377 C 0.92033 0.25832 0.87264 0.0
C1378 C 0.9173 0.27879 0.83251 0.0
C1379 C 0.90378 0.30174 0.83457 0.0
C1380 C 0.89328 0.30397 0.87779 0.0
H1381 H 0.64456 0.77297 0.51117 0.0
H1382 H 0.59758 0.82895 0.48768 0.0
H1383 H 0.59244 0.80125 0.40816 0.0
H1384 H 0.65845 0.76928 0.38256 0.0
H1385 H 0.66573 0.72858 0.38595 0.0
H1386 H 0.66621 0.75328 0.44087 0.0
H1387 H 0.64728 0.71202 0.48825 0.0
H1388 H 0.6468 0.68715 0.43354 0.0
H1389 H 0.62663 0.6997 0.46221 0.0
H1390 H 0.5928 0.76968 0.33042 0.0
H1391 H 0.59732 0.7323 0.26091 0.0
H1392 H 0.6426 0.69303 0.33633 0.0
C1393 C 0.63324 0.77941 0.48913 0.0
C1394 C 0.62149 0.80318 0.5055 0.0
C1395 C 0.60671 0.81072 0.47599 0.0
C1396 C 0.6037 0.79524 0.43065 0.0
C1397 C 0.61548 0.77197 0.41555 0.0
C1398 C 0.62985 0.76373 0.44397 0.0
C1399 C 0.64004 0.73696 0.41956 0.0
C1400 C 0.65871 0.74768 0.40646 0.0
C1401 C 0.64019 0.70719 0.45288 0.0
C1402 C 0.62918 0.73168 0.37297 0.0
C1403 C 0.61519 0.75241 0.37136 0.0
C1404 C 0.60353 0.75294 0.33156 0.0
C1405 C 0.60612 0.73142 0.29249 0.0
C1406 C 0.62003 0.70926 0.29389 0.0
C1407 C 0.63179 0.7096 0.33451 0.0
H1408 H 0.60901 0.73097 0.02043 0.0
H1409 H 0.63915 0.65068 0.96683 0.0
H1410 H 0.64101 0.67532 0.88337 0.0
H1411 H 0.5853 0.74827 0.90356 0.0
H1412 H 0.58703 0.79075 0.91115 0.0
H1413 H 0.58617 0.76533 0.96522 0.0
H1414 H 0.61521 0.78967 0.9972 0.0
H1415 H 0.61615 0.81513 0.9433 0.0
H1416 H 0.63422 0.78916 0.95742 0.0
H1417 H 0.6405 0.70856 0.80758 0.0
H1418 H 0.63977 0.751 0.74417 0.0
H1419 H 0.6121 0.81247 0.84735 0.0
C1420 C 0.61567 0.71849 0.99065 0.0
C1421 C 0.62374 0.68883 0.99929 0.0
C1422 C 0.63281 0.67335 0.96034 0.0
C1423 C 0.63387 0.68707 0.91295 0.0
C1424 C 0.62599 0.7165 0.90548 0.0
C1425 C 0.6172 0.73227 0.94319 0.0
C1426 C 0.61131 0.76495 0.92606 0.0
C1427 C 0.59126 0.76746 0.92653 0.0
C1428 C 0.61973 0.79128 0.95789 0.0
C1429 C 0.61838 0.76514 0.87319 0.0
C1430 C 0.62651 0.73667 0.86201 0.0
C1431 C 0.63422 0.73101 0.81585 0.0
C1432 C 0.63384 0.75527 0.78025 0.0
C1433 C 0.6261 0.785 0.79131 0.0
C1434 C 0.61807 0.78987 0.83813 0.0
H1435 H 0.90719 0.2184 0.32915 0.0
H1436 H 0.86214 0.15892 0.35999 0.0
H1437 H 0.86026 0.18165 0.44504 0.0
H1438 H 0.92662 0.2138 0.45385 0.0
H1439 H 0.93388 0.2546 0.45279 0.0
H1440 H 0.93219 0.23245 0.39542 0.0
H1441 H 0.91178 0.27574 0.35886 0.0
H1442 H 0.91347 0.29805 0.41594 0.0
H1443 H 0.89227 0.28675 0.39245 0.0
H1444 H 0.86241 0.21253 0.52408 0.0
H1445 H 0.86749 0.2512 0.59156 0.0
H1446 H 0.91179 0.28993 0.51043 0.0
C1447 C 0.89712 0.20984 0.35419 0.0
C1448 C 0.88487 0.1868 0.33854 0.0
C1449 C 0.87159 0.17665 0.37157 0.0
C1450 C 0.87052 0.18923 0.41989 0.0
C1451 C 0.8829 0.21178 0.43437 0.0
C1452 C 0.89592 0.22207 0.40252 0.0
C1453 C 0.90706 0.24768 0.42647 0.0
C1454 C 0.92606 0.23645 0.43249 0.0
C1455 C 0.90607 0.2789 0.39666 0.0
C1456 C 0.89803 0.25067 0.47651 0.0
C1457 C 0.88422 0.22953 0.48034 0.0
C1458 C 0.87328 0.22895 0.52177 0.0
C1459 C 0.87627 0.25105 0.55983 0.0
C1460 C 0.89009 0.27342 0.55627 0.0
C1461 C 0.90134 0.27272 0.51453 0.0
H1462 H 0.60224 0.21269 0.17624 0.0
H1463 H 0.642 0.14274 0.14187 0.0
H1464 H 0.64282 0.16161 0.05448 0.0
H1465 H 0.57962 0.21008 0.05122 0.0
H1466 H 0.57556 0.25229 0.05264 0.0
H1467 H 0.57617 0.22994 0.11 0.0
H1468 H 0.59994 0.26806 0.14425 0.0
H1469 H 0.59949 0.29034 0.08709 0.0
H1470 H 0.61981 0.27386 0.10917 0.0
H1471 H 0.64282 0.19353 0.97622 0.0
H1472 H 0.64119 0.23503 0.91117 0.0
H1473 H 0.60023 0.28266 0.99429 0.0
C1474 C 0.6106 0.20059 0.1497 0.0
C1475 C 0.62189 0.17601 0.16521 0.0
C1476 C 0.63316 0.16144 0.13024 0.0
C1477 C 0.63366 0.17193 0.08064 0.0
C1478 C 0.62264 0.19675 0.06663 0.0
C1479 C 0.61114 0.21065 0.09997 0.0
C1480 C 0.60185 0.23877 0.07668 0.0
C1481 C 0.58213 0.23238 0.07237 0.0
C1482 C 0.60551 0.26956 0.10604 0.0
C1483 C 0.61047 0.23938 0.02581 0.0
C1484 C 0.62231 0.21475 0.02062 0.0
C1485 C 0.63326 0.2124 0.97922 0.0
C1486 C 0.63229 0.23609 0.94257 0.0
C1487 C 0.62037 0.26163 0.9474 0.0
C1488 C 0.60906 0.26282 0.98897 0.0
H1489 H 0.86307 0.70763 0.50659 0.0
H1490 H 0.91239 0.73086 0.43532 0.0
H1491 H 0.91796 0.77188 0.49933 0.0
H1492 H 0.85191 0.78847 0.55017 0.0
H1493 H 0.84328 0.77421 0.6086 0.0
H1494 H 0.84203 0.74958 0.55366 0.0
H1495 H 0.85813 0.70428 0.60035 0.0
H1496 H 0.85939 0.7287 0.65533 0.0
H1497 H 0.87905 0.71224 0.62873 0.0
H1498 H 0.91906 0.80793 0.57353 0.0
H1499 H 0.91641 0.83417 0.65578 0.0
H1500 H 0.86741 0.78489 0.68146 0.0
C1501 C 0.87484 0.72187 0.50391 0.0
C1502 C 0.88723 0.71637 0.46584 0.0
C1503 C 0.90272 0.73481 0.46421 0.0
C1504 C 0.90595 0.75825 0.50019 0.0
C1505 C 0.89362 0.76278 0.53775 0.0
C1506 C 0.87841 0.745 0.54006 0.0
C1507 C 0.86813 0.75243 0.58691 0.0
C1508 C 0.85028 0.76705 0.57405 0.0
C1509 C 0.86607 0.72264 0.61976 0.0
C1510 C 0.88008 0.77672 0.61096 0.0
C1511 C 0.89456 0.78276 0.58159 0.0
C1512 C 0.90773 0.80352 0.59675 0.0
C1513 C 0.90618 0.81816 0.64353 0.0
C1514 C 0.8917 0.81159 0.67472 0.0
C1515 C 0.87842 0.79088 0.65789 0.0
H1516 H 0.37327 0.27208 0.97993 0.0
H1517 H 0.4189 0.33067 0.0093 0.0
H1518 H 0.4232 0.30333 0.08955 0.0
H1519 H 0.35751 0.26681 0.10738 0.0
H1520 H 0.3511 0.22567 0.10247 0.0
H1521 H 0.35088 0.25074 0.04797 0.0
H1522 H 0.37123 0.21117 0.00199 0.0
H1523 H 0.37146 0.18592 0.05624 0.0
H1524 H 0.39174 0.20006 0.03009 0.0
H1525 H 0.42229 0.2714 0.16687 0.0
H1526 H 0.41801 0.23246 0.23437 0.0
H1527 H 0.37456 0.1907 0.15351 0.0
C1528 C 0.38409 0.2792 0.00349 0.0
C1529 C 0.39572 0.30359 0.98856 0.0
C1530 C 0.40988 0.31199 0.01994 0.0
C1531 C 0.41238 0.29673 0.06571 0.0
C1532 C 0.40075 0.2728 0.07935 0.0
C1533 C 0.38701 0.26371 0.04908 0.0
C1534 C 0.37704 0.23605 0.07188 0.0
C1535 C 0.358 0.24539 0.08308 0.0
C1536 C 0.37793 0.20655 0.03803 0.0
C1537 C 0.38735 0.23115 0.1196 0.0
C1538 C 0.40081 0.25297 0.12326 0.0
C1539 C 0.41197 0.25387 0.16417 0.0
C1540 C 0.40951 0.23152 0.20212 0.0
C1541 C 0.39625 0.20812 0.19848 0.0
C1542 C 0.38488 0.20821 0.15695 0.0
H1543 H 0.14068 0.78417 0.67164 0.0
H1544 H 0.09439 0.84127 0.64622 0.0
H1545 H 0.09128 0.81762 0.56214 0.0
H1546 H 0.15748 0.78726 0.54163 0.0
H1547 H 0.16518 0.74679 0.54405 0.0
H1548 H 0.16469 0.77056 0.60001 0.0
H1549 H 0.1458 0.72754 0.64356 0.0
H1550 H 0.14617 0.70375 0.58781 0.0
H1551 H 0.12556 0.71508 0.61516 0.0
H1552 H 0.09153 0.78407 0.48536 0.0
H1553 H 0.0952 0.74327 0.42007 0.0
H1554 H 0.14206 0.70915 0.49382 0.0
C1555 C 0.13019 0.79232 0.64775 0.0
C1556 C 0.11783 0.81468 0.66495 0.0
C1557 C 0.10395 0.82411 0.63347 0.0
C1558 C 0.10216 0.81096 0.58569 0.0
C1559 C 0.11445 0.78864 0.56999 0.0
C1560 C 0.12828 0.77953 0.5999 0.0
C1561 C 0.13902 0.7536 0.5754 0.0
C1562 C 0.1577 0.76526 0.56463 0.0
C1563 C 0.13913 0.7232 0.60739 0.0
C1564 C 0.12879 0.7489 0.52763 0.0
C1565 C 0.11474 0.76952 0.52514 0.0
C1566 C 0.10264 0.76816 0.48645 0.0
C1567 C 0.1048 0.74483 0.44966 0.0
C1568 C 0.11899 0.72323 0.45171 0.0
C1569 C 0.1313 0.72574 0.49076 0.0
H1570 H 0.36614 0.78559 0.83046 0.0
H1571 H 0.41139 0.84473 0.85992 0.0
H1572 H 0.41313 0.82286 0.94555 0.0
H1573 H 0.34693 0.78999 0.95774 0.0
H1574 H 0.33978 0.74914 0.9558 0.0
H1575 H 0.341 0.77204 0.89906 0.0
H1576 H 0.36119 0.72929 0.85996 0.0
H1577 H 0.36005 0.70634 0.91645 0.0
H1578 H 0.38101 0.71817 0.89185 0.0
H1579 H 0.41177 0.79069 0.02376 0.0
H1580 H 0.40774 0.7501 0.08917 0.0
H1581 H 0.3627 0.71274 0.01013 0.0
C1582 C 0.3761 0.79453 0.8555 0.0
C1583 C 0.38855 0.81702 0.8391 0.0
C1584 C 0.40175 0.82752 0.87212 0.0
C1585 C 0.40275 0.81538 0.92075 0.0
C1586 C 0.39037 0.79295 0.93571 0.0
C1587 C 0.37724 0.78271 0.90415 0.0
C1588 C 0.36638 0.75668 0.92805 0.0
C1589 C 0.34739 0.76763 0.93562 0.0
C1590 C 0.36722 0.7258 0.89725 0.0
C1591 C 0.37577 0.75317 0.97746 0.0
C1592 C 0.38946 0.77455 0.98127 0.0
C1593 C 0.40091 0.77422 0.02161 0.0
C1594 C 0.39854 0.75104 0.05851 0.0
C1595 C 0.3848 0.72852 0.05494 0.0
C1596 C 0.37305 0.73014 0.01443 0.0
H1597 H 0.11246 0.18412 0.3619 0.0
H1598 H 0.16015 0.21978 0.29412 0.0
H1599 H 0.16445 0.25602 0.36498 0.0
H1600 H 0.0979 0.26099 0.40367 0.0
H1601 H 0.08823 0.24647 0.46061 0.0
H1602 H 0.08956 0.22093 0.40677 0.0
H1603 H 0.10612 0.17881 0.45901 0.0
H1604 H 0.10487 0.20424 0.51301 0.0
H1605 H 0.1258 0.19005 0.49158 0.0
H1606 H 0.16379 0.28823 0.44138 0.0
H1607 H 0.15718 0.31842 0.51738 0.0
H1608 H 0.10841 0.26633 0.53418 0.0
C1609 C 0.12383 0.19948 0.36226 0.0
C1610 C 0.13626 0.19846 0.32326 0.0
C1611 C 0.15083 0.21923 0.32451 0.0
C1612 C 0.15331 0.24013 0.36438 0.0
C1613 C 0.14089 0.2405 0.40227 0.0
C1614 C 0.12631 0.2211 0.40145 0.0
C1615 C 0.11447 0.22792 0.44563 0.0
C1616 C 0.09647 0.23979 0.42811 0.0
C1617 C 0.11272 0.1985 0.4793 0.0
C1618 C 0.12473 0.25417 0.47123 0.0
C1619 C 0.14001 0.26064 0.44566 0.0
C1620 C 0.15185 0.28351 0.46175 0.0
C1621 C 0.14796 0.30048 0.50511 0.0
C1622 C 0.13224 0.29482 0.53175 0.0
C1623 C 0.12047 0.2713 0.51449 0.0
loop_
_geom_bond_atom_site_label_1
_geom_bond_atom_site_label_2
_geom_bond_distance
_geom_bond_site_symmetry_2
_ccdc_geom_bond_type
Co0 O3 1.970 . S
Co0 N17 1.989 . S
Co0 O25 1.967 . S
Co0 O32 1.920 . S
Co1 O4 1.966 . S
Co1 N10 2.022 . S
Co1 N18 1.993 . S
Co1 O26 1.941 . S
C2 O3 1.258 . S
C2 O4 1.263 . S
O3 Co0 1.970 . S
O3 C2 1.258 . S
O4 Co1 1.966 . S
O4 C2 1.263 . S
C5 O6 1.235 . S
C5 O32 1.289 . S
O6 C5 1.235 . S
C7 C9 1.400 . S
C7 N10 1.351 . S
C7 C12 1.501 . S
C8 C9 1.387 . S
C8 N11 1.341 . S
C9 C7 1.400 . S
C9 C8 1.387 . S
N10 Co1 2.022 . S
N10 C7 1.351 . S
N10 N11 1.365 . S
N11 C8 1.341 . S
N11 N10 1.365 . S
N11 H31 0.862 . S
C12 C7 1.501 . S
C12 H13 0.961 . S
C12 H14 0.961 . S
C12 H15 0.960 . S
H13 C12 0.961 . S
H14 C12 0.961 . S
H15 C12 0.960 . S
C16 N17 1.342 . S
C16 C20 1.401 . S
C16 C21 1.499 . S
N17 Co0 1.989 . S
N17 C16 1.342 . S
N17 N18 1.388 . S
N18 Co1 1.993 . S
N18 N17 1.388 . S
N18 C19 1.346 . S
C19 N18 1.346 . S
C19 C20 1.396 . S
C19 C29 1.510 . S
C20 C16 1.401 . S
C20 C19 1.396 . S
C21 C16 1.499 . S
C21 H22 0.959 . S
C21 H23 0.960 . S
C21 H24 0.961 . S
H22 C21 0.959 . S
H23 C21 0.960 . S
H24 C21 0.961 . S
O25 Co0 1.967 . S
O25 C33 1.258 . S
O26 Co1 1.941 . S
O26 C33 1.266 . S
H27 C29 0.959 . S
H28 C29 0.961 . S
C29 C19 1.510 . S
C29 H27 0.959 . S
C29 H28 0.961 . S
C29 H30 0.960 . S
H30 C29 0.960 . S
H31 N11 0.862 . S
O32 Co0 1.920 . S
O32 C5 1.289 . S
C33 O25 1.258 . S
C33 O26 1.266 . S
Co34 O37 1.970 . S
Co34 N51 1.989 . S
Co34 O59 1.967 . S
Co34 O66 1.920 . S
Co35 O38 1.966 . S
Co35 N44 2.022 . S
Co35 N52 1.993 . S
Co35 O60 1.941 . S
C36 O37 1.258 . S
C36 O38 1.263 . S
O37 Co34 1.970 . S
O37 C36 1.258 . S
O38 Co35 1.966 . S
O38 C36 1.263 . S
C39 O40 1.235 . S
C39 O66 1.289 . S
O40 C39 1.235 . S
C41 C43 1.400 . S
C41 N44 1.351 . S
C41 C46 1.501 . S
C42 C43 1.387 . S
C42 N45 1.341 . S
C43 C41 1.400 . S
C43 C42 1.387 . S
N44 Co35 2.022 . S
N44 C41 1.351 . S
N44 N45 1.365 . S
N45 C42 1.341 . S
N45 N44 1.365 . S
N45 H65 0.862 . S
C46 C41 1.501 . S
C46 H47 0.961 . S
C46 H48 0.961 . S
C46 H49 0.960 . S
H47 C46 0.961 . S
H48 C46 0.961 . S
H49 C46 0.960 . S
C50 N51 1.342 . S
C50 C54 1.401 . S
C50 C55 1.499 . S
N51 Co34 1.989 . S
N51 C50 1.342 . S
N51 N52 1.388 . S
N52 Co35 1.993 . S
N52 N51 1.388 . S
N52 C53 1.346 . S
C53 N52 1.346 . S
C53 C54 1.396 . S
C53 C63 1.510 . S
C54 C50 1.401 . S
C54 C53 1.396 . S
C55 C50 1.499 . S
C55 H56 0.959 . S
C55 H57 0.960 . S
C55 H58 0.961 . S
H56 C55 0.959 . S
H57 C55 0.960 . S
H58 C55 0.961 . S
O59 Co34 1.967 . S
O59 C67 1.258 . S
O60 Co35 1.941 . S
O60 C67 1.266 . S
H61 C63 0.959 . S
H62 C63 0.961 . S
C63 C53 1.510 . S
C63 H61 0.959 . S
C63 H62 0.961 . S
C63 H64 0.960 . S
H64 C63 0.960 . S
H65 N45 0.862 . S
O66 Co34 1.920 . S
O66 C39 1.289 . S
C67 O59 1.258 . S
C67 O60 1.266 . S
Co68 O71 1.970 . S
Co68 N85 1.989 . S
Co68 O93 1.967 . S
Co68 O100 1.920 . S
Co69 O72 1.966 . S
Co69 N78 2.022 . S
Co69 N86 1.993 . S
Co69 O94 1.941 . S
C70 O71 1.258 . S
C70 O72 1.263 . S
O71 Co68 1.970 . S
O71 C70 1.258 . S
O72 Co69 1.966 . S
O72 C70 1.263 . S
C73 O74 1.235 . S
C73 O100 1.289 . S
O74 C73 1.235 . S
C75 C77 1.400 . S
C75 N78 1.351 . S
C75 C80 1.501 . S
C76 C77 1.387 . S
C76 N79 1.341 . S
C77 C75 1.400 . S
C77 C76 1.387 . S
N78 Co69 2.022 . S
N78 C75 1.351 . S
N78 N79 1.365 . S
N79 C76 1.341 . S
N79 N78 1.365 . S
N79 H99 0.862 . S
C80 C75 1.501 . S
C80 H81 0.961 . S
C80 H82 0.961 . S
C80 H83 0.960 . S
H81 C80 0.961 . S
H82 C80 0.961 . S
H83 C80 0.960 . S
C84 N85 1.342 . S
C84 C88 1.401 . S
C84 C89 1.499 . S
N85 Co68 1.989 . S
N85 C84 1.342 . S
N85 N86 1.388 . S
N86 Co69 1.993 . S
N86 N85 1.388 . S
N86 C87 1.346 . S
C87 N86 1.346 . S
C87 C88 1.396 . S
C87 C97 1.510 . S
C88 C84 1.401 . S
C88 C87 1.396 . S
C89 C84 1.499 . S
C89 H90 0.959 . S
C89 H91 0.960 . S
C89 H92 0.961 . S
H90 C89 0.959 . S
H91 C89 0.960 . S
H92 C89 0.961 . S
O93 Co68 1.967 . S
O93 C101 1.258 . S
O94 Co69 1.941 . S
O94 C101 1.266 . S
H95 C97 0.959 . S
H96 C97 0.961 . S
C97 C87 1.510 . S
C97 H95 0.959 . S
C97 H96 0.961 . S
C97 H98 0.960 . S
H98 C97 0.960 . S
H99 N79 0.862 . S
O100 Co68 1.920 . S
O100 C73 1.289 . S
C101 O93 1.258 . S
C101 O94 1.266 . S
Co102 O105 1.970 . S
Co102 N119 1.989 . S
Co102 O127 1.967 . S
Co102 O134 1.920 . S
Co103 O106 1.966 . S
Co103 N112 2.022 . S
Co103 N120 1.993 . S
Co103 O128 1.941 . S
C104 O105 1.258 . S
C104 O106 1.263 . S
O105 Co102 1.970 . S
O105 C104 1.258 . S
O106 Co103 1.966 . S
O106 C104 1.263 . S
C107 O108 1.235 . S
C107 O134 1.289 . S
O108 C107 1.235 . S
C109 C111 1.400 . S
C109 N112 1.351 . S
C109 C114 1.501 . S
C110 C111 1.387 . S
C110 N113 1.341 . S
C111 C109 1.400 . S
C111 C110 1.387 . S
N112 Co103 2.022 . S
N112 C109 1.351 . S
N112 N113 1.365 . S
N113 C110 1.341 . S
N113 N112 1.365 . S
N113 H133 0.862 . S
C114 C109 1.501 . S
C114 H115 0.961 . S
C114 H116 0.961 . S
C114 H117 0.960 . S
H115 C114 0.961 . S
H116 C114 0.961 . S
H117 C114 0.960 . S
C118 N119 1.342 . S
C118 C122 1.401 . S
C118 C123 1.499 . S
N119 Co102 1.989 . S
N119 C118 1.342 . S
N119 N120 1.388 . S
N120 Co103 1.993 . S
N120 N119 1.388 . S
N120 C121 1.346 . S
C121 N120 1.346 . S
C121 C122 1.396 . S
C121 C131 1.510 . S
C122 C118 1.401 . S
C122 C121 1.396 . S
C123 C118 1.499 . S
C123 H124 0.959 . S
C123 H125 0.960 . S
C123 H126 0.961 . S
H124 C123 0.959 . S
H125 C123 0.960 . S
H126 C123 0.961 . S
O127 Co102 1.967 . S
O127 C135 1.258 . S
O128 Co103 1.941 . S
O128 C135 1.266 . S
H129 C131 0.959 . S
H130 C131 0.961 . S
C131 C121 1.510 . S
C131 H129 0.959 . S
C131 H130 0.961 . S
C131 H132 0.960 . S
H132 C131 0.960 . S
H133 N113 0.862 . S
O134 Co102 1.920 . S
O134 C107 1.289 . S
C135 O127 1.258 . S
C135 O128 1.266 . S
Co136 O139 1.970 . S
Co136 N153 1.989 . S
Co136 O161 1.967 . S
Co136 O168 1.920 . S
Co137 O140 1.966 . S
Co137 N146 2.022 . S
Co137 N154 1.993 . S
Co137 O162 1.941 . S
C138 O139 1.258 . S
C138 O140 1.263 . S
O139 Co136 1.970 . S
O139 C138 1.258 . S
O140 Co137 1.966 . S
O140 C138 1.263 . S
C141 O142 1.235 . S
C141 O168 1.289 . S
O142 C141 1.235 . S
C143 C145 1.400 . S
C143 N146 1.351 . S
C143 C148 1.501 . S
C144 C145 1.387 . S
C144 N147 1.341 . S
C145 C143 1.400 . S
C145 C144 1.387 . S
N146 Co137 2.022 . S
N146 C143 1.351 . S
N146 N147 1.365 . S
N147 C144 1.341 . S
N147 N146 1.365 . S
N147 H167 0.862 . S
C148 C143 1.501 . S
C148 H149 0.961 . S
C148 H150 0.961 . S
C148 H151 0.960 . S
H149 C148 0.961 . S
H150 C148 0.961 . S
H151 C148 0.960 . S
C152 N153 1.342 . S
C152 C156 1.401 . S
C152 C157 1.499 . S
N153 Co136 1.989 . S
N153 C152 1.342 . S
N153 N154 1.388 . S
N154 Co137 1.993 . S
N154 N153 1.388 . S
N154 C155 1.346 . S
C155 N154 1.346 . S
C155 C156 1.396 . S
C155 C165 1.510 . S
C156 C152 1.401 . S
C156 C155 1.396 . S
C157 C152 1.499 . S
C157 H158 0.959 . S
C157 H159 0.960 . S
C157 H160 0.961 . S
H158 C157 0.959 . S
H159 C157 0.960 . S
H160 C157 0.961 . S
O161 Co136 1.967 . S
O161 C169 1.258 . S
O162 Co137 1.941 . S
O162 C169 1.266 . S
H163 C165 0.959 . S
H164 C165 0.961 . S
C165 C155 1.510 . S
C165 H163 0.959 . S
C165 H164 0.961 . S
C165 H166 0.960 . S
H166 C165 0.960 . S
H167 N147 0.862 . S
O168 Co136 1.920 . S
O168 C141 1.289 . S
C169 O161 1.258 . S
C169 O162 1.266 . S
Co170 O173 1.970 . S
Co170 N187 1.989 . S
Co170 O195 1.967 . S
Co170 O202 1.920 . S
Co171 O174 1.966 . S
Co171 N180 2.022 . S
Co171 N188 1.993 . S
Co171 O196 1.941 . S
C172 O173 1.258 . S
C172 O174 1.263 . S
O173 Co170 1.970 . S
O173 C172 1.258 . S
O174 Co171 1.966 . S
O174 C172 1.263 . S
C175 O176 1.235 . S
C175 O202 1.289 . S
O176 C175 1.235 . S
C177 C179 1.400 . S
C177 N180 1.351 . S
C177 C182 1.501 . S
C178 C179 1.387 . S
C178 N181 1.341 . S
C179 C177 1.400 . S
C179 C178 1.387 . S
N180 Co171 2.022 . S
N180 C177 1.351 . S
N180 N181 1.365 . S
N181 C178 1.341 . S
N181 N180 1.365 . S
N181 H201 0.862 . S
C182 C177 1.501 . S
C182 H183 0.961 . S
C182 H184 0.961 . S
C182 H185 0.960 . S
H183 C182 0.961 . S
H184 C182 0.961 . S
H185 C182 0.960 . S
C186 N187 1.342 . S
C186 C190 1.401 . S
C186 C191 1.499 . S
N187 Co170 1.989 . S
N187 C186 1.342 . S
N187 N188 1.388 . S
N188 Co171 1.993 . S
N188 N187 1.388 . S
N188 C189 1.346 . S
C189 N188 1.346 . S
C189 C190 1.396 . S
C189 C199 1.510 . S
C190 C186 1.401 . S
C190 C189 1.396 . S
C191 C186 1.499 . S
C191 H192 0.959 . S
C191 H193 0.960 . S
C191 H194 0.961 . S
H192 C191 0.959 . S
H193 C191 0.960 . S
H194 C191 0.961 . S
O195 Co170 1.967 . S
O195 C203 1.258 . S
O196 Co171 1.941 . S
O196 C203 1.266 . S
H197 C199 0.959 . S
H198 C199 0.961 . S
C199 C189 1.510 . S
C199 H197 0.959 . S
C199 H198 0.961 . S
C199 H200 0.960 . S
H200 C199 0.960 . S
H201 N181 0.862 . S
O202 Co170 1.920 . S
O202 C175 1.289 . S
C203 O195 1.258 . S
C203 O196 1.266 . S
Co204 O207 1.970 . S
Co204 N221 1.989 . S
Co204 O229 1.967 . S
Co204 O236 1.920 . S
Co205 O208 1.966 . S
Co205 N214 2.022 . S
Co205 N222 1.993 . S
Co205 O230 1.941 . S
C206 O207 1.258 . S
C206 O208 1.263 . S
O207 Co204 1.970 . S
O207 C206 1.258 . S
O208 Co205 1.966 . S
O208 C206 1.263 . S
C209 O210 1.235 . S
C209 O236 1.289 . S
O210 C209 1.235 . S
C211 C213 1.400 . S
C211 N214 1.351 . S
C211 C216 1.501 . S
C212 C213 1.387 . S
C212 N215 1.341 . S
C213 C211 1.400 . S
C213 C212 1.387 . S
N214 Co205 2.022 . S
N214 C211 1.351 . S
N214 N215 1.365 . S
N215 C212 1.341 . S
N215 N214 1.365 . S
N215 H235 0.862 . S
C216 C211 1.501 . S
C216 H217 0.961 . S
C216 H218 0.961 . S
C216 H219 0.960 . S
H217 C216 0.961 . S
H218 C216 0.961 . S
H219 C216 0.960 . S
C220 N221 1.342 . S
C220 C224 1.401 . S
C220 C225 1.499 . S
N221 Co204 1.989 . S
N221 C220 1.342 . S
N221 N222 1.388 . S
N222 Co205 1.993 . S
N222 N221 1.388 . S
N222 C223 1.346 . S
C223 N222 1.346 . S
C223 C224 1.396 . S
C223 C233 1.510 . S
C224 C220 1.401 . S
C224 C223 1.396 . S
C225 C220 1.499 . S
C225 H226 0.959 . S
C225 H227 0.960 . S
C225 H228 0.961 . S
H226 C225 0.959 . S
H227 C225 0.960 . S
H228 C225 0.961 . S
O229 Co204 1.967 . S
O229 C237 1.258 . S
O230 Co205 1.941 . S
O230 C237 1.266 . S
H231 C233 0.959 . S
H232 C233 0.961 . S
C233 C223 1.510 . S
C233 H231 0.959 . S
C233 H232 0.961 . S
C233 H234 0.960 . S
H234 C233 0.960 . S
H235 N215 0.862 . S
O236 Co204 1.920 . S
O236 C209 1.289 . S
C237 O229 1.258 . S
C237 O230 1.266 . S
Co238 O241 1.970 . S
Co238 N255 1.989 . S
Co238 O263 1.967 . S
Co238 O270 1.920 . S
Co239 O242 1.966 . S
Co239 N248 2.022 . S
Co239 N256 1.993 . S
Co239 O264 1.941 . S
C240 O241 1.258 . S
C240 O242 1.263 . S
O241 Co238 1.970 . S
O241 C240 1.258 . S
O242 Co239 1.966 . S
O242 C240 1.263 . S
C243 O244 1.235 . S
C243 O270 1.289 . S
O244 C243 1.235 . S
C245 C247 1.400 . S
C245 N248 1.351 . S
C245 C250 1.501 . S
C246 C247 1.387 . S
C246 N249 1.341 . S
C247 C245 1.400 . S
C247 C246 1.387 . S
N248 Co239 2.022 . S
N248 C245 1.351 . S
N248 N249 1.365 . S
N249 C246 1.341 . S
N249 N248 1.365 . S
N249 H269 0.862 . S
C250 C245 1.501 . S
C250 H251 0.961 . S
C250 H252 0.961 . S
C250 H253 0.960 . S
H251 C250 0.961 . S
H252 C250 0.961 . S
H253 C250 0.960 . S
C254 N255 1.342 . S
C254 C258 1.401 . S
C254 C259 1.499 . S
N255 Co238 1.989 . S
N255 C254 1.342 . S
N255 N256 1.388 . S
N256 Co239 1.993 . S
N256 N255 1.388 . S
N256 C257 1.346 . S
C257 N256 1.346 . S
C257 C258 1.396 . S
C257 C267 1.510 . S
C258 C254 1.401 . S
C258 C257 1.396 . S
C259 C254 1.499 . S
C259 H260 0.959 . S
C259 H261 0.960 . S
C259 H262 0.961 . S
H260 C259 0.959 . S
H261 C259 0.960 . S
H262 C259 0.961 . S
O263 Co238 1.967 . S
O263 C271 1.258 . S
O264 Co239 1.941 . S
O264 C271 1.266 . S
H265 C267 0.959 . S
H266 C267 0.961 . S
C267 C257 1.510 . S
C267 H265 0.959 . S
C267 H266 0.961 . S
C267 H268 0.960 . S
H268 C267 0.960 . S
H269 N249 0.862 . S
O270 Co238 1.920 . S
O270 C243 1.289 . S
C271 O263 1.258 . S
C271 O264 1.266 . S
Co272 O275 1.970 . S
Co272 N289 1.989 . S
Co272 O297 1.967 . S
Co272 O304 1.920 . S
Co273 O276 1.966 . S
Co273 N282 2.022 . S
Co273 N290 1.993 . S
Co273 O298 1.941 . S
C274 O275 1.258 . S
C274 O276 1.263 . S
O275 Co272 1.970 . S
O275 C274 1.258 . S
O276 Co273 1.966 . S
O276 C274 1.263 . S
C277 O278 1.235 . S
C277 O304 1.289 . S
O278 C277 1.235 . S
C279 C281 1.400 . S
C279 N282 1.351 . S
C279 C284 1.501 . S
C280 C281 1.387 . S
C280 N283 1.341 . S
C281 C279 1.400 . S
C281 C280 1.387 . S
N282 Co273 2.022 . S
N282 C279 1.351 . S
N282 N283 1.365 . S
N283 C280 1.341 . S
N283 N282 1.365 . S
N283 H303 0.862 . S
C284 C279 1.501 . S
C284 H285 0.961 . S
C284 H286 0.961 . S
C284 H287 0.960 . S
H285 C284 0.961 . S
H286 C284 0.961 . S
H287 C284 0.960 . S
C288 N289 1.342 . S
C288 C292 1.401 . S
C288 C293 1.499 . S
N289 Co272 1.989 . S
N289 C288 1.342 . S
N289 N290 1.388 . S
N290 Co273 1.993 . S
N290 N289 1.388 . S
N290 C291 1.346 . S
C291 N290 1.346 . S
C291 C292 1.396 . S
C291 C301 1.510 . S
C292 C288 1.401 . S
C292 C291 1.396 . S
C293 C288 1.499 . S
C293 H294 0.959 . S
C293 H295 0.960 . S
C293 H296 0.961 . S
H294 C293 0.959 . S
H295 C293 0.960 . S
H296 C293 0.961 . S
O297 Co272 1.967 . S
O297 C305 1.258 . S
O298 Co273 1.941 . S
O298 C305 1.266 . S
H299 C301 0.959 . S
H300 C301 0.961 . S
C301 C291 1.510 . S
C301 H299 0.959 . S
C301 H300 0.961 . S
C301 H302 0.960 . S
H302 C301 0.960 . S
H303 N283 0.862 . S
O304 Co272 1.920 . S
O304 C277 1.289 . S
C305 O297 1.258 . S
C305 O298 1.266 . S
Co306 O309 1.970 . S
Co306 N323 1.989 . S
Co306 O331 1.967 . S
Co306 O338 1.920 . S
Co307 O310 1.966 . S
Co307 N316 2.022 . S
Co307 N324 1.993 . S
Co307 O332 1.941 . S
C308 O309 1.258 . S
C308 O310 1.263 . S
O309 Co306 1.970 . S
O309 C308 1.258 . S
O310 Co307 1.966 . S
O310 C308 1.263 . S
C311 O312 1.235 . S
C311 O338 1.289 . S
O312 C311 1.235 . S
C313 C315 1.400 . S
C313 N316 1.351 . S
C313 C318 1.501 . S
C314 C315 1.387 . S
C314 N317 1.341 . S
C315 C313 1.400 . S
C315 C314 1.387 . S
N316 Co307 2.022 . S
N316 C313 1.351 . S
N316 N317 1.365 . S
N317 C314 1.341 . S
N317 N316 1.365 . S
N317 H337 0.862 . S
C318 C313 1.501 . S
C318 H319 0.961 . S
C318 H320 0.961 . S
C318 H321 0.960 . S
H319 C318 0.961 . S
H320 C318 0.961 . S
H321 C318 0.960 . S
C322 N323 1.342 . S
C322 C326 1.401 . S
C322 C327 1.499 . S
N323 Co306 1.989 . S
N323 C322 1.342 . S
N323 N324 1.388 . S
N324 Co307 1.993 . S
N324 N323 1.388 . S
N324 C325 1.346 . S
C325 N324 1.346 . S
C325 C326 1.396 . S
C325 C335 1.510 . S
C326 C322 1.401 . S
C326 C325 1.396 . S
C327 C322 1.499 . S
C327 H328 0.959 . S
C327 H329 0.960 . S
C327 H330 0.961 . S
H328 C327 0.959 . S
H329 C327 0.960 . S
H330 C327 0.961 . S
O331 Co306 1.967 . S
O331 C339 1.258 . S
O332 Co307 1.941 . S
O332 C339 1.266 . S
H333 C335 0.959 . S
H334 C335 0.961 . S
C335 C325 1.510 . S
C335 H333 0.959 . S
C335 H334 0.961 . S
C335 H336 0.960 . S
H336 C335 0.960 . S
H337 N317 0.862 . S
O338 Co306 1.920 . S
O338 C311 1.289 . S
C339 O331 1.258 . S
C339 O332 1.266 . S
Co340 O343 1.970 . S
Co340 N357 1.989 . S
Co340 O365 1.967 . S
Co340 O372 1.920 . S
Co341 O344 1.966 . S
Co341 N350 2.022 . S
Co341 N358 1.993 . S
Co341 O366 1.941 . S
C342 O343 1.258 . S
C342 O344 1.263 . S
O343 Co340 1.970 . S
O343 C342 1.258 . S
O344 Co341 1.966 . S
O344 C342 1.263 . S
C345 O346 1.235 . S
C345 O372 1.289 . S
O346 C345 1.235 . S
C347 C349 1.400 . S
C347 N350 1.351 . S
C347 C352 1.501 . S
C348 C349 1.387 . S
C348 N351 1.341 . S
C349 C347 1.400 . S
C349 C348 1.387 . S
N350 Co341 2.022 . S
N350 C347 1.351 . S
N350 N351 1.365 . S
N351 C348 1.341 . S
N351 N350 1.365 . S
N351 H371 0.862 . S
C352 C347 1.501 . S
C352 H353 0.961 . S
C352 H354 0.961 . S
C352 H355 0.960 . S
H353 C352 0.961 . S
H354 C352 0.961 . S
H355 C352 0.960 . S
C356 N357 1.342 . S
C356 C360 1.401 . S
C356 C361 1.499 . S
N357 Co340 1.989 . S
N357 C356 1.342 . S
N357 N358 1.388 . S
N358 Co341 1.993 . S
N358 N357 1.388 . S
N358 C359 1.346 . S
C359 N358 1.346 . S
C359 C360 1.396 . S
C359 C369 1.510 . S
C360 C356 1.401 . S
C360 C359 1.396 . S
C361 C356 1.499 . S
C361 H362 0.959 . S
C361 H363 0.960 . S
C361 H364 0.961 . S
H362 C361 0.959 . S
H363 C361 0.960 . S
H364 C361 0.961 . S
O365 Co340 1.967 . S
O365 C373 1.258 . S
O366 Co341 1.941 . S
O366 C373 1.266 . S
H367 C369 0.959 . S
H368 C369 0.961 . S
C369 C359 1.510 . S
C369 H367 0.959 . S
C369 H368 0.961 . S
C369 H370 0.960 . S
H370 C369 0.960 . S
H371 N351 0.862 . S
O372 Co340 1.920 . S
O372 C345 1.289 . S
C373 O365 1.258 . S
C373 O366 1.266 . S
Co374 O377 1.970 . S
Co374 N391 1.989 . S
Co374 O399 1.967 . S
Co374 O406 1.920 . S
Co375 O378 1.966 . S
Co375 N384 2.022 . S
Co375 N392 1.993 . S
Co375 O400 1.941 . S
C376 O377 1.258 . S
C376 O378 1.263 . S
O377 Co374 1.970 . S
O377 C376 1.258 . S
O378 Co375 1.966 . S
O378 C376 1.263 . S
C379 O380 1.235 . S
C379 O406 1.289 . S
O380 C379 1.235 . S
C381 C383 1.400 . S
C381 N384 1.351 . S
C381 C386 1.501 . S
C382 C383 1.387 . S
C382 N385 1.341 . S
C383 C381 1.400 . S
C383 C382 1.387 . S
N384 Co375 2.022 . S
N384 C381 1.351 . S
N384 N385 1.365 . S
N385 C382 1.341 . S
N385 N384 1.365 . S
N385 H405 0.862 . S
C386 C381 1.501 . S
C386 H387 0.961 . S
C386 H388 0.961 . S
C386 H389 0.960 . S
H387 C386 0.961 . S
H388 C386 0.961 . S
H389 C386 0.960 . S
C390 N391 1.342 . S
C390 C394 1.401 . S
C390 C395 1.499 . S
N391 Co374 1.989 . S
N391 C390 1.342 . S
N391 N392 1.388 . S
N392 Co375 1.993 . S
N392 N391 1.388 . S
N392 C393 1.346 . S
C393 N392 1.346 . S
C393 C394 1.396 . S
C393 C403 1.510 . S
C394 C390 1.401 . S
C394 C393 1.396 . S
C395 C390 1.499 . S
C395 H396 0.959 . S
C395 H397 0.960 . S
C395 H398 0.961 . S
H396 C395 0.959 . S
H397 C395 0.960 . S
H398 C395 0.961 . S
O399 Co374 1.967 . S
O399 C407 1.258 . S
O400 Co375 1.941 . S
O400 C407 1.266 . S
H401 C403 0.959 . S
H402 C403 0.961 . S
C403 C393 1.510 . S
C403 H401 0.959 . S
C403 H402 0.961 . S
C403 H404 0.960 . S
H404 C403 0.960 . S
H405 N385 0.862 . S
O406 Co374 1.920 . S
O406 C379 1.289 . S
C407 O399 1.258 . S
C407 O400 1.266 . S
Co408 O411 1.970 . S
Co408 N425 1.989 . S
Co408 O433 1.967 . S
Co408 O440 1.920 . S
Co409 O412 1.966 . S
Co409 N418 2.022 . S
Co409 N426 1.993 . S
Co409 O434 1.941 . S
C410 O411 1.258 . S
C410 O412 1.263 . S
O411 Co408 1.970 . S
O411 C410 1.258 . S
O412 Co409 1.966 . S
O412 C410 1.263 . S
C413 O414 1.235 . S
C413 O440 1.289 . S
O414 C413 1.235 . S
C415 C417 1.400 . S
C415 N418 1.351 . S
C415 C420 1.501 . S
C416 C417 1.387 . S
C416 N419 1.341 . S
C417 C415 1.400 . S
C417 C416 1.387 . S
N418 Co409 2.022 . S
N418 C415 1.351 . S
N418 N419 1.365 . S
N419 C416 1.341 . S
N419 N418 1.365 . S
N419 H439 0.862 . S
C420 C415 1.501 . S
C420 H421 0.961 . S
C420 H422 0.961 . S
C420 H423 0.960 . S
H421 C420 0.961 . S
H422 C420 0.961 . S
H423 C420 0.960 . S
C424 N425 1.342 . S
C424 C428 1.401 . S
C424 C429 1.499 . S
N425 Co408 1.989 . S
N425 C424 1.342 . S
N425 N426 1.388 . S
N426 Co409 1.993 . S
N426 N425 1.388 . S
N426 C427 1.346 . S
C427 N426 1.346 . S
C427 C428 1.396 . S
C427 C437 1.510 . S
C428 C424 1.401 . S
C428 C427 1.396 . S
C429 C424 1.499 . S
C429 H430 0.959 . S
C429 H431 0.960 . S
C429 H432 0.961 . S
H430 C429 0.959 . S
H431 C429 0.960 . S
H432 C429 0.961 . S
O433 Co408 1.967 . S
O433 C441 1.258 . S
O434 Co409 1.941 . S
O434 C441 1.266 . S
H435 C437 0.959 . S
H436 C437 0.961 . S
C437 C427 1.510 . S
C437 H435 0.959 . S
C437 H436 0.961 . S
C437 H438 0.960 . S
H438 C437 0.960 . S
H439 N419 0.862 . S
O440 Co408 1.920 . S
O440 C413 1.289 . S
C441 O433 1.258 . S
C441 O434 1.266 . S
Co442 O445 1.970 . S
Co442 N459 1.989 . S
Co442 O467 1.967 . S
Co442 O474 1.920 . S
Co443 O446 1.966 . S
Co443 N452 2.022 . S
Co443 N460 1.993 . S
Co443 O468 1.941 . S
C444 O445 1.258 . S
C444 O446 1.263 . S
O445 Co442 1.970 . S
O445 C444 1.258 . S
O446 Co443 1.966 . S
O446 C444 1.263 . S
C447 O448 1.235 . S
C447 O474 1.289 . S
O448 C447 1.235 . S
C449 C451 1.400 . S
C449 N452 1.351 . S
C449 C454 1.501 . S
C450 C451 1.387 . S
C450 N453 1.341 . S
C451 C449 1.400 . S
C451 C450 1.387 . S
N452 Co443 2.022 . S
N452 C449 1.351 . S
N452 N453 1.365 . S
N453 C450 1.341 . S
N453 N452 1.365 . S
N453 H473 0.862 . S
C454 C449 1.501 . S
C454 H455 0.961 . S
C454 H456 0.961 . S
C454 H457 0.960 . S
H455 C454 0.961 . S
H456 C454 0.961 . S
H457 C454 0.960 . S
C458 N459 1.342 . S
C458 C462 1.401 . S
C458 C463 1.499 . S
N459 Co442 1.989 . S
N459 C458 1.342 . S
N459 N460 1.388 . S
N460 Co443 1.993 . S
N460 N459 1.388 . S
N460 C461 1.346 . S
C461 N460 1.346 . S
C461 C462 1.396 . S
C461 C471 1.510 . S
C462 C458 1.401 . S
C462 C461 1.396 . S
C463 C458 1.499 . S
C463 H464 0.959 . S
C463 H465 0.960 . S
C463 H466 0.961 . S
H464 C463 0.959 . S
H465 C463 0.960 . S
H466 C463 0.961 . S
O467 Co442 1.967 . S
O467 C475 1.258 . S
O468 Co443 1.941 . S
O468 C475 1.266 . S
H469 C471 0.959 . S
H470 C471 0.961 . S
C471 C461 1.510 . S
C471 H469 0.959 . S
C471 H470 0.961 . S
C471 H472 0.960 . S
H472 C471 0.960 . S
H473 N453 0.862 . S
O474 Co442 1.920 . S
O474 C447 1.289 . S
C475 O467 1.258 . S
C475 O468 1.266 . S
Co476 O479 1.970 . S
Co476 N493 1.989 . S
Co476 O501 1.967 . S
Co476 O508 1.920 . S
Co477 O480 1.966 . S
Co477 N486 2.022 . S
Co477 N494 1.993 . S
Co477 O502 1.941 . S
C478 O479 1.258 . S
C478 O480 1.263 . S
O479 Co476 1.970 . S
O479 C478 1.258 . S
O480 Co477 1.966 . S
O480 C478 1.263 . S
C481 O482 1.235 . S
C481 O508 1.289 . S
O482 C481 1.235 . S
C483 C485 1.400 . S
C483 N486 1.351 . S
C483 C488 1.501 . S
C484 C485 1.387 . S
C484 N487 1.341 . S
C485 C483 1.400 . S
C485 C484 1.387 . S
N486 Co477 2.022 . S
N486 C483 1.351 . S
N486 N487 1.365 . S
N487 C484 1.341 . S
N487 N486 1.365 . S
N487 H507 0.862 . S
C488 C483 1.501 . S
C488 H489 0.961 . S
C488 H490 0.961 . S
C488 H491 0.960 . S
H489 C488 0.961 . S
H490 C488 0.961 . S
H491 C488 0.960 . S
C492 N493 1.342 . S
C492 C496 1.401 . S
C492 C497 1.499 . S
N493 Co476 1.989 . S
N493 C492 1.342 . S
N493 N494 1.388 . S
N494 Co477 1.993 . S
N494 N493 1.388 . S
N494 C495 1.346 . S
C495 N494 1.346 . S
C495 C496 1.396 . S
C495 C505 1.510 . S
C496 C492 1.401 . S
C496 C495 1.396 . S
C497 C492 1.499 . S
C497 H498 0.959 . S
C497 H499 0.960 . S
C497 H500 0.961 . S
H498 C497 0.959 . S
H499 C497 0.960 . S
H500 C497 0.961 . S
O501 Co476 1.967 . S
O501 C509 1.258 . S
O502 Co477 1.941 . S
O502 C509 1.266 . S
H503 C505 0.959 . S
H504 C505 0.961 . S
C505 C495 1.510 . S
C505 H503 0.959 . S
C505 H504 0.961 . S
C505 H506 0.960 . S
H506 C505 0.960 . S
H507 N487 0.862 . S
O508 Co476 1.920 . S
O508 C481 1.289 . S
C509 O501 1.258 . S
C509 O502 1.266 . S
Co510 O513 1.970 . S
Co510 N527 1.989 . S
Co510 O535 1.967 . S
Co510 O542 1.920 . S
Co511 O514 1.966 . S
Co511 N520 2.022 . S
Co511 N528 1.993 . S
Co511 O536 1.941 . S
C512 O513 1.258 . S
C512 O514 1.263 . S
O513 Co510 1.970 . S
O513 C512 1.258 . S
O514 Co511 1.966 . S
O514 C512 1.263 . S
C515 O516 1.235 . S
C515 O542 1.289 . S
O516 C515 1.235 . S
C517 C519 1.400 . S
C517 N520 1.351 . S
C517 C522 1.501 . S
C518 C519 1.387 . S
C518 N521 1.341 . S
C519 C517 1.400 . S
C519 C518 1.387 . S
N520 Co511 2.022 . S
N520 C517 1.351 . S
N520 N521 1.365 . S
N521 C518 1.341 . S
N521 N520 1.365 . S
N521 H541 0.862 . S
C522 C517 1.501 . S
C522 H523 0.961 . S
C522 H524 0.961 . S
C522 H525 0.960 . S
H523 C522 0.961 . S
H524 C522 0.961 . S
H525 C522 0.960 . S
C526 N527 1.342 . S
C526 C530 1.401 . S
C526 C531 1.499 . S
N527 Co510 1.989 . S
N527 C526 1.342 . S
N527 N528 1.388 . S
N528 Co511 1.993 . S
N528 N527 1.388 . S
N528 C529 1.346 . S
C529 N528 1.346 . S
C529 C530 1.396 . S
C529 C539 1.510 . S
C530 C526 1.401 . S
C530 C529 1.396 . S
C531 C526 1.499 . S
C531 H532 0.959 . S
C531 H533 0.960 . S
C531 H534 0.961 . S
H532 C531 0.959 . S
H533 C531 0.960 . S
H534 C531 0.961 . S
O535 Co510 1.967 . S
O535 C543 1.258 . S
O536 Co511 1.941 . S
O536 C543 1.266 . S
H537 C539 0.959 . S
H538 C539 0.961 . S
C539 C529 1.510 . S
C539 H537 0.959 . S
C539 H538 0.961 . S
C539 H540 0.960 . S
H540 C539 0.960 . S
H541 N521 0.862 . S
O542 Co510 1.920 . S
O542 C515 1.289 . S
C543 O535 1.258 . S
C543 O536 1.266 . S
H544 C556 0.930 . S
H545 C558 0.930 . S
H546 C559 0.930 . S
H547 C563 0.959 . S
H548 C563 0.959 . S
H549 C563 0.961 . S
H550 C564 0.960 . S
H551 C564 0.961 . S
H552 C564 0.959 . S
H553 C567 0.929 . S
H554 C568 0.931 . S
H555 C570 0.930 . S
C556 H544 0.930 . S
C556 C557 1.399 . S
C556 C561 1.399 . S
C557 C556 1.399 . S
C557 C558 1.376 . S
C558 H545 0.930 . S
C558 C557 1.376 . S
C558 C559 1.388 . S
C559 H546 0.930 . S
C559 C558 1.388 . S
C559 C560 1.390 . S
C560 C559 1.390 . S
C560 C561 1.394 . S
C560 C566 1.465 . S
C561 C556 1.399 . S
C561 C560 1.394 . S
C561 C562 1.516 . S
C562 C561 1.516 . S
C562 C563 1.502 . S
C562 C564 1.561 . S
C562 C565 1.526 . S
C563 H547 0.959 . S
C563 H548 0.959 . S
C563 H549 0.961 . S
C563 C562 1.502 . S
C564 H550 0.960 . S
C564 H551 0.961 . S
C564 H552 0.959 . S
C564 C562 1.561 . S
C565 C562 1.526 . S
C565 C566 1.396 . S
C565 C570 1.390 . S
C566 C560 1.465 . S
C566 C565 1.396 . S
C566 C567 1.399 . S
C567 H553 0.929 . S
C567 C566 1.399 . S
C567 C568 1.385 . S
C568 H554 0.931 . S
C568 C567 1.385 . S
C568 C569 1.389 . S
C569 C568 1.389 . S
C569 C570 1.387 . S
C570 H555 0.930 . S
C570 C565 1.390 . S
C570 C569 1.387 . S
H571 C583 0.930 . S
H572 C585 0.930 . S
H573 C586 0.930 . S
H574 C590 0.959 . S
H575 C590 0.959 . S
H576 C590 0.961 . S
H577 C591 0.960 . S
H578 C591 0.961 . S
H579 C591 0.959 . S
H580 C594 0.929 . S
H581 C595 0.931 . S
H582 C597 0.930 . S
C583 H571 0.930 . S
C583 C584 1.399 . S
C583 C588 1.399 . S
C584 C583 1.399 . S
C584 C585 1.376 . S
C585 H572 0.930 . S
C585 C584 1.376 . S
C585 C586 1.388 . S
C586 H573 0.930 . S
C586 C585 1.388 . S
C586 C587 1.390 . S
C587 C586 1.390 . S
C587 C588 1.394 . S
C587 C593 1.465 . S
C588 C583 1.399 . S
C588 C587 1.394 . S
C588 C589 1.516 . S
C589 C588 1.516 . S
C589 C590 1.502 . S
C589 C591 1.561 . S
C589 C592 1.526 . S
C590 H574 0.959 . S
C590 H575 0.959 . S
C590 H576 0.961 . S
C590 C589 1.502 . S
C591 H577 0.960 . S
C591 H578 0.961 . S
C591 H579 0.959 . S
C591 C589 1.561 . S
C592 C589 1.526 . S
C592 C593 1.396 . S
C592 C597 1.390 . S
C593 C587 1.465 . S
C593 C592 1.396 . S
C593 C594 1.399 . S
C594 H580 0.929 . S
C594 C593 1.399 . S
C594 C595 1.385 . S
C595 H581 0.931 . S
C595 C594 1.385 . S
C595 C596 1.389 . S
C596 C595 1.389 . S
C596 C597 1.387 . S
C597 H582 0.930 . S
C597 C592 1.390 . S
C597 C596 1.387 . S
H598 C610 0.930 . S
H599 C612 0.930 . S
H600 C613 0.930 . S
H601 C617 0.959 . S
H602 C617 0.959 . S
H603 C617 0.961 . S
H604 C618 0.960 . S
H605 C618 0.961 . S
H606 C618 0.959 . S
H607 C621 0.929 . S
H608 C622 0.931 . S
H609 C624 0.930 . S
C610 H598 0.930 . S
C610 C611 1.399 . S
C610 C615 1.399 . S
C611 C610 1.399 . S
C611 C612 1.376 . S
C612 H599 0.930 . S
C612 C611 1.376 . S
C612 C613 1.388 . S
C613 H600 0.930 . S
C613 C612 1.388 . S
C613 C614 1.390 . S
C614 C613 1.390 . S
C614 C615 1.394 . S
C614 C620 1.465 . S
C615 C610 1.399 . S
C615 C614 1.394 . S
C615 C616 1.516 . S
C616 C615 1.516 . S
C616 C617 1.502 . S
C616 C618 1.561 . S
C616 C619 1.526 . S
C617 H601 0.959 . S
C617 H602 0.959 . S
C617 H603 0.961 . S
C617 C616 1.502 . S
C618 H604 0.960 . S
C618 H605 0.961 . S
C618 H606 0.959 . S
C618 C616 1.561 . S
C619 C616 1.526 . S
C619 C620 1.396 . S
C619 C624 1.390 . S
C620 C614 1.465 . S
C620 C619 1.396 . S
C620 C621 1.399 . S
C621 H607 0.929 . S
C621 C620 1.399 . S
C621 C622 1.385 . S
C622 H608 0.931 . S
C622 C621 1.385 . S
C622 C623 1.389 . S
C623 C622 1.389 . S
C623 C624 1.387 . S
C624 H609 0.930 . S
C624 C619 1.390 . S
C624 C623 1.387 . S
H625 C637 0.930 . S
H626 C639 0.930 . S
H627 C640 0.930 . S
H628 C644 0.959 . S
H629 C644 0.959 . S
H630 C644 0.961 . S
H631 C645 0.960 . S
H632 C645 0.961 . S
H633 C645 0.959 . S
H634 C648 0.929 . S
H635 C649 0.931 . S
H636 C651 0.930 . S
C637 H625 0.930 . S
C637 C638 1.399 . S
C637 C642 1.399 . S
C638 C637 1.399 . S
C638 C639 1.376 . S
C639 H626 0.930 . S
C639 C638 1.376 . S
C639 C640 1.388 . S
C640 H627 0.930 . S
C640 C639 1.388 . S
C640 C641 1.390 . S
C641 C640 1.390 . S
C641 C642 1.394 . S
C641 C647 1.465 . S
C642 C637 1.399 . S
C642 C641 1.394 . S
C642 C643 1.516 . S
C643 C642 1.516 . S
C643 C644 1.502 . S
C643 C645 1.561 . S
C643 C646 1.526 . S
C644 H628 0.959 . S
C644 H629 0.959 . S
C644 H630 0.961 . S
C644 C643 1.502 . S
C645 H631 0.960 . S
C645 H632 0.961 . S
C645 H633 0.959 . S
C645 C643 1.561 . S
C646 C643 1.526 . S
C646 C647 1.396 . S
C646 C651 1.390 . S
C647 C641 1.465 . S
C647 C646 1.396 . S
C647 C648 1.399 . S
C648 H634 0.929 . S
C648 C647 1.399 . S
C648 C649 1.385 . S
C649 H635 0.931 . S
C649 C648 1.385 . S
C649 C650 1.389 . S
C650 C649 1.389 . S
C650 C651 1.387 . S
C651 H636 0.930 . S
C651 C646 1.390 . S
C651 C650 1.387 . S
H652 C664 0.930 . S
H653 C666 0.930 . S
H654 C667 0.930 . S
H655 C671 0.959 . S
H656 C671 0.959 . S
H657 C671 0.961 . S
H658 C672 0.960 . S
H659 C672 0.961 . S
H660 C672 0.959 . S
H661 C675 0.929 . S
H662 C676 0.931 . S
H663 C678 0.930 . S
C664 H652 0.930 . S
C664 C665 1.399 . S
C664 C669 1.399 . S
C665 C664 1.399 . S
C665 C666 1.376 . S
C666 H653 0.930 . S
C666 C665 1.376 . S
C666 C667 1.388 . S
C667 H654 0.930 . S
C667 C666 1.388 . S
C667 C668 1.390 . S
C668 C667 1.390 . S
C668 C669 1.394 . S
C668 C674 1.465 . S
C669 C664 1.399 . S
C669 C668 1.394 . S
C669 C670 1.516 . S
C670 C669 1.516 . S
C670 C671 1.502 . S
C670 C672 1.561 . S
C670 C673 1.526 . S
C671 H655 0.959 . S
C671 H656 0.959 . S
C671 H657 0.961 . S
C671 C670 1.502 . S
C672 H658 0.960 . S
C672 H659 0.961 . S
C672 H660 0.959 . S
C672 C670 1.561 . S
C673 C670 1.526 . S
C673 C674 1.396 . S
C673 C678 1.390 . S
C674 C668 1.465 . S
C674 C673 1.396 . S
C674 C675 1.399 . S
C675 H661 0.929 . S
C675 C674 1.399 . S
C675 C676 1.385 . S
C676 H662 0.931 . S
C676 C675 1.385 . S
C676 C677 1.389 . S
C677 C676 1.389 . S
C677 C678 1.387 . S
C678 H663 0.930 . S
C678 C673 1.390 . S
C678 C677 1.387 . S
H679 C691 0.930 . S
H680 C693 0.930 . S
H681 C694 0.930 . S
H682 C698 0.959 . S
H683 C698 0.959 . S
H684 C698 0.961 . S
H685 C699 0.960 . S
H686 C699 0.961 . S
H687 C699 0.959 . S
H688 C702 0.929 . S
H689 C703 0.931 . S
H690 C705 0.930 . S
C691 H679 0.930 . S
C691 C692 1.399 . S
C691 C696 1.399 . S
C692 C691 1.399 . S
C692 C693 1.376 . S
C693 H680 0.930 . S
C693 C692 1.376 . S
C693 C694 1.388 . S
C694 H681 0.930 . S
C694 C693 1.388 . S
C694 C695 1.390 . S
C695 C694 1.390 . S
C695 C696 1.394 . S
C695 C701 1.465 . S
C696 C691 1.399 . S
C696 C695 1.394 . S
C696 C697 1.516 . S
C697 C696 1.516 . S
C697 C698 1.502 . S
C697 C699 1.561 . S
C697 C700 1.526 . S
C698 H682 0.959 . S
C698 H683 0.959 . S
C698 H684 0.961 . S
C698 C697 1.502 . S
C699 H685 0.960 . S
C699 H686 0.961 . S
C699 H687 0.959 . S
C699 C697 1.561 . S
C700 C697 1.526 . S
C700 C701 1.396 . S
C700 C705 1.390 . S
C701 C695 1.465 . S
C701 C700 1.396 . S
C701 C702 1.399 . S
C702 H688 0.929 . S
C702 C701 1.399 . S
C702 C703 1.385 . S
C703 H689 0.931 . S
C703 C702 1.385 . S
C703 C704 1.389 . S
C704 C703 1.389 . S
C704 C705 1.387 . S
C705 H690 0.930 . S
C705 C700 1.390 . S
C705 C704 1.387 . S
H706 C718 0.930 . S
H707 C720 0.930 . S
H708 C721 0.930 . S
H709 C725 0.959 . S
H710 C725 0.959 . S
H711 C725 0.961 . S
H712 C726 0.960 . S
H713 C726 0.961 . S
H714 C726 0.959 . S
H715 C729 0.929 . S
H716 C730 0.931 . S
H717 C732 0.930 . S
C718 H706 0.930 . S
C718 C719 1.399 . S
C718 C723 1.399 . S
C719 C718 1.399 . S
C719 C720 1.376 . S
C720 H707 0.930 . S
C720 C719 1.376 . S
C720 C721 1.388 . S
C721 H708 0.930 . S
C721 C720 1.388 . S
C721 C722 1.390 . S
C722 C721 1.390 . S
C722 C723 1.394 . S
C722 C728 1.465 . S
C723 C718 1.399 . S
C723 C722 1.394 . S
C723 C724 1.516 . S
C724 C723 1.516 . S
C724 C725 1.502 . S
C724 C726 1.561 . S
C724 C727 1.526 . S
C725 H709 0.959 . S
C725 H710 0.959 . S
C725 H711 0.961 . S
C725 C724 1.502 . S
C726 H712 0.960 . S
C726 H713 0.961 . S
C726 H714 0.959 . S
C726 C724 1.561 . S
C727 C724 1.526 . S
C727 C728 1.396 . S
C727 C732 1.390 . S
C728 C722 1.465 . S
C728 C727 1.396 . S
C728 C729 1.399 . S
C729 H715 0.929 . S
C729 C728 1.399 . S
C729 C730 1.385 . S
C730 H716 0.931 . S
C730 C729 1.385 . S
C730 C731 1.389 . S
C731 C730 1.389 . S
C731 C732 1.387 . S
C732 H717 0.930 . S
C732 C727 1.390 . S
C732 C731 1.387 . S
H733 C745 0.930 . S
H734 C747 0.930 . S
H735 C748 0.930 . S
H736 C752 0.959 . S
H737 C752 0.959 . S
H738 C752 0.961 . S
H739 C753 0.960 . S
H740 C753 0.961 . S
H741 C753 0.959 . S
H742 C756 0.929 . S
H743 C757 0.931 . S
H744 C759 0.930 . S
C745 H733 0.930 . S
C745 C746 1.399 . S
C745 C750 1.399 . S
C746 C745 1.399 . S
C746 C747 1.376 . S
C747 H734 0.930 . S
C747 C746 1.376 . S
C747 C748 1.388 . S
C748 H735 0.930 . S
C748 C747 1.388 . S
C748 C749 1.390 . S
C749 C748 1.390 . S
C749 C750 1.394 . S
C749 C755 1.465 . S
C750 C745 1.399 . S
C750 C749 1.394 . S
C750 C751 1.516 . S
C751 C750 1.516 . S
C751 C752 1.502 . S
C751 C753 1.561 . S
C751 C754 1.526 . S
C752 H736 0.959 . S
C752 H737 0.959 . S
C752 H738 0.961 . S
C752 C751 1.502 . S
C753 H739 0.960 . S
C753 H740 0.961 . S
C753 H741 0.959 . S
C753 C751 1.561 . S
C754 C751 1.526 . S
C754 C755 1.396 . S
C754 C759 1.390 . S
C755 C749 1.465 . S
C755 C754 1.396 . S
C755 C756 1.399 . S
C756 H742 0.929 . S
C756 C755 1.399 . S
C756 C757 1.385 . S
C757 H743 0.931 . S
C757 C756 1.385 . S
C757 C758 1.389 . S
C758 C757 1.389 . S
C758 C759 1.387 . S
C759 H744 0.930 . S
C759 C754 1.390 . S
C759 C758 1.387 . S
H760 C772 0.930 . S
H761 C774 0.930 . S
H762 C775 0.930 . S
H763 C779 0.962 . S
H764 C779 0.977 . S
H765 C779 0.941 1_655 S
H766 C780 0.959 1_655 S
H767 C780 0.962 . S
H768 C780 0.959 . S
H769 C783 0.929 . S
H770 C784 0.931 . S
H771 C786 0.930 . S
C772 H760 0.930 . S
C772 C773 1.399 . S
C772 C777 1.399 . S
C773 C772 1.399 . S
C773 C774 1.376 . S
C774 H761 0.930 . S
C774 C773 1.376 . S
C774 C775 1.388 . S
C775 H762 0.930 . S
C775 C774 1.388 . S
C775 C776 1.390 . S
C776 C775 1.390 . S
C776 C777 1.394 . S
C776 C782 1.465 1_655 S
C777 C772 1.399 . S
C777 C776 1.394 . S
C777 C778 1.519 1_655 S
C778 C777 1.519 1_455 S
C778 C779 1.502 . S
C778 C780 1.561 . S
C778 C781 1.523 . S
C779 H763 0.962 . S
C779 H764 0.977 . S
C779 H765 0.941 1_455 S
C779 C778 1.502 . S
C780 H766 0.959 1_455 S
C780 H767 0.962 . S
C780 H768 0.959 . S
C780 C778 1.561 . S
C781 C778 1.523 . S
C781 C782 1.396 . S
C781 C786 1.390 . S
C782 C776 1.465 1_455 S
C782 C781 1.396 . S
C782 C783 1.399 . S
C783 H769 0.929 . S
C783 C782 1.399 . S
C783 C784 1.385 . S
C784 H770 0.931 . S
C784 C783 1.385 . S
C784 C785 1.389 . S
C785 C784 1.389 . S
C785 C786 1.387 . S
C786 H771 0.930 . S
C786 C781 1.390 . S
C786 C785 1.387 . S
H787 C799 0.930 . S
H788 C801 0.930 . S
H789 C802 0.930 . S
H790 C806 0.959 . S
H791 C806 0.959 . S
H792 C806 0.961 . S
H793 C807 0.960 . S
H794 C807 0.961 . S
H795 C807 0.959 . S
H796 C810 0.929 . S
H797 C811 0.931 . S
H798 C813 0.930 . S
C799 H787 0.930 . S
C799 C800 1.399 . S
C799 C804 1.399 . S
C800 C799 1.399 . S
C800 C801 1.376 . S
C801 H788 0.930 . S
C801 C800 1.376 . S
C801 C802 1.388 . S
C802 H789 0.930 . S
C802 C801 1.388 . S
C802 C803 1.390 . S
C803 C802 1.390 . S
C803 C804 1.394 . S
C803 C809 1.465 . S
C804 C799 1.399 . S
C804 C803 1.394 . S
C804 C805 1.516 . S
C805 C804 1.516 . S
C805 C806 1.502 . S
C805 C807 1.561 . S
C805 C808 1.526 . S
C806 H790 0.959 . S
C806 H791 0.959 . S
C806 H792 0.961 . S
C806 C805 1.502 . S
C807 H793 0.960 . S
C807 H794 0.961 . S
C807 H795 0.959 . S
C807 C805 1.561 . S
C808 C805 1.526 . S
C808 C809 1.396 . S
C808 C813 1.390 . S
C809 C803 1.465 . S
C809 C808 1.396 . S
C809 C810 1.399 . S
C810 H796 0.929 . S
C810 C809 1.399 . S
C810 C811 1.385 . S
C811 H797 0.931 . S
C811 C810 1.385 . S
C811 C812 1.389 . S
C812 C811 1.389 . S
C812 C813 1.387 . S
C813 H798 0.930 . S
C813 C808 1.390 . S
C813 C812 1.387 . S
H814 C826 0.930 . S
H815 C828 0.930 . S
H816 C829 0.930 . S
H817 C833 0.962 . S
H818 C833 0.977 . S
H819 C833 0.941 1_655 S
H820 C834 0.959 1_655 S
H821 C834 0.962 . S
H822 C834 0.959 . S
H823 C837 0.929 . S
H824 C838 0.931 . S
H825 C840 0.930 . S
C826 H814 0.930 . S
C826 C827 1.399 . S
C826 C831 1.399 . S
C827 C826 1.399 . S
C827 C828 1.376 . S
C828 H815 0.930 . S
C828 C827 1.376 . S
C828 C829 1.388 . S
C829 H816 0.930 . S
C829 C828 1.388 . S
C829 C830 1.390 . S
C830 C829 1.390 . S
C830 C831 1.394 . S
C830 C836 1.465 1_655 S
C831 C826 1.399 . S
C831 C830 1.394 . S
C831 C832 1.519 1_655 S
C832 C831 1.519 1_455 S
C832 C833 1.502 . S
C832 C834 1.561 . S
C832 C835 1.523 . S
C833 H817 0.962 . S
C833 H818 0.977 . S
C833 H819 0.941 1_455 S
C833 C832 1.502 . S
C834 H820 0.959 1_455 S
C834 H821 0.962 . S
C834 H822 0.959 . S
C834 C832 1.561 . S
C835 C832 1.523 . S
C835 C836 1.396 . S
C835 C840 1.390 . S
C836 C830 1.465 1_455 S
C836 C835 1.396 . S
C836 C837 1.399 . S
C837 H823 0.929 . S
C837 C836 1.399 . S
C837 C838 1.385 . S
C838 H824 0.931 . S
C838 C837 1.385 . S
C838 C839 1.389 . S
C839 C838 1.389 . S
C839 C840 1.387 . S
C840 H825 0.930 . S
C840 C835 1.390 . S
C840 C839 1.387 . S
H841 C853 0.930 . S
H842 C855 0.930 . S
H843 C856 0.930 . S
H844 C860 0.959 . S
H845 C860 0.959 . S
H846 C860 0.961 . S
H847 C861 0.960 . S
H848 C861 0.961 . S
H849 C861 0.959 . S
H850 C864 0.929 . S
H851 C865 0.931 . S
H852 C867 0.930 . S
C853 H841 0.930 . S
C853 C854 1.399 . S
C853 C858 1.399 . S
C854 C853 1.399 . S
C854 C855 1.376 . S
C855 H842 0.930 . S
C855 C854 1.376 . S
C855 C856 1.388 . S
C856 H843 0.930 . S
C856 C855 1.388 . S
C856 C857 1.390 . S
C857 C856 1.390 . S
C857 C858 1.394 . S
C857 C863 1.465 . S
C858 C853 1.399 . S
C858 C857 1.394 . S
C858 C859 1.516 . S
C859 C858 1.516 . S
C859 C860 1.502 . S
C859 C861 1.561 . S
C859 C862 1.526 . S
C860 H844 0.959 . S
C860 H845 0.959 . S
C860 H846 0.961 . S
C860 C859 1.502 . S
C861 H847 0.960 . S
C861 H848 0.961 . S
C861 H849 0.959 . S
C861 C859 1.561 . S
C862 C859 1.526 . S
C862 C863 1.396 . S
C862 C867 1.390 . S
C863 C857 1.465 . S
C863 C862 1.396 . S
C863 C864 1.399 . S
C864 H850 0.929 . S
C864 C863 1.399 . S
C864 C865 1.385 . S
C865 H851 0.931 . S
C865 C864 1.385 . S
C865 C866 1.389 . S
C866 C865 1.389 . S
C866 C867 1.387 . S
C867 H852 0.930 . S
C867 C862 1.390 . S
C867 C866 1.387 . S
H868 C880 0.930 . S
H869 C882 0.930 . S
H870 C883 0.930 . S
H871 C887 0.959 . S
H872 C887 0.959 . S
H873 C887 0.961 . S
H874 C888 0.960 . S
H875 C888 0.961 . S
H876 C888 0.959 . S
H877 C891 0.929 . S
H878 C892 0.931 . S
H879 C894 0.930 . S
C880 H868 0.930 . S
C880 C881 1.399 . S
C880 C885 1.399 . S
C881 C880 1.399 . S
C881 C882 1.376 . S
C882 H869 0.930 . S
C882 C881 1.376 . S
C882 C883 1.388 . S
C883 H870 0.930 . S
C883 C882 1.388 . S
C883 C884 1.390 . S
C884 C883 1.390 . S
C884 C885 1.394 . S
C884 C890 1.465 . S
C885 C880 1.399 . S
C885 C884 1.394 . S
C885 C886 1.516 . S
C886 C885 1.516 . S
C886 C887 1.502 . S
C886 C888 1.561 . S
C886 C889 1.526 . S
C887 H871 0.959 . S
C887 H872 0.959 . S
C887 H873 0.961 . S
C887 C886 1.502 . S
C888 H874 0.960 . S
C888 H875 0.961 . S
C888 H876 0.959 . S
C888 C886 1.561 . S
C889 C886 1.526 . S
C889 C890 1.396 . S
C889 C894 1.390 . S
C890 C884 1.465 . S
C890 C889 1.396 . S
C890 C891 1.399 . S
C891 H877 0.929 . S
C891 C890 1.399 . S
C891 C892 1.385 . S
C892 H878 0.931 . S
C892 C891 1.385 . S
C892 C893 1.389 . S
C893 C892 1.389 . S
C893 C894 1.387 . S
C894 H879 0.930 . S
C894 C889 1.390 . S
C894 C893 1.387 . S
H895 C907 0.930 . S
H896 C909 0.930 . S
H897 C910 0.930 . S
H898 C914 0.962 . S
H899 C914 0.977 . S
H900 C914 0.941 1_455 S
H901 C915 0.959 1_455 S
H902 C915 0.962 . S
H903 C915 0.959 . S
H904 C918 0.929 . S
H905 C919 0.931 . S
H906 C921 0.930 . S
C907 H895 0.930 . S
C907 C908 1.399 . S
C907 C912 1.399 . S
C908 C907 1.399 . S
C908 C909 1.376 . S
C909 H896 0.930 . S
C909 C908 1.376 . S
C909 C910 1.388 . S
C910 H897 0.930 . S
C910 C909 1.388 . S
C910 C911 1.390 . S
C911 C910 1.390 . S
C911 C912 1.394 . S
C911 C917 1.465 1_455 S
C912 C907 1.399 . S
C912 C911 1.394 . S
C912 C913 1.519 1_455 S
C913 C912 1.519 1_655 S
C913 C914 1.502 . S
C913 C915 1.561 . S
C913 C916 1.523 . S
C914 H898 0.962 . S
C914 H899 0.977 . S
C914 H900 0.941 1_655 S
C914 C913 1.502 . S
C915 H901 0.959 1_655 S
C915 H902 0.962 . S
C915 H903 0.959 . S
C915 C913 1.561 . S
C916 C913 1.523 . S
C916 C917 1.396 . S
C916 C921 1.390 . S
C917 C911 1.465 1_655 S
C917 C916 1.396 . S
C917 C918 1.399 . S
C918 H904 0.929 . S
C918 C917 1.399 . S
C918 C919 1.385 . S
C919 H905 0.931 . S
C919 C918 1.385 . S
C919 C920 1.389 . S
C920 C919 1.389 . S
C920 C921 1.387 . S
C921 H906 0.930 . S
C921 C916 1.390 . S
C921 C920 1.387 . S
H922 C934 0.930 . S
H923 C936 0.930 . S
H924 C937 0.930 . S
H925 C941 0.959 . S
H926 C941 0.959 . S
H927 C941 0.961 . S
H928 C942 0.960 . S
H929 C942 0.961 . S
H930 C942 0.959 . S
H931 C945 0.929 . S
H932 C946 0.931 . S
H933 C948 0.930 . S
C934 H922 0.930 . S
C934 C935 1.399 . S
C934 C939 1.399 . S
C935 C934 1.399 . S
C935 C936 1.376 . S
C936 H923 0.930 . S
C936 C935 1.376 . S
C936 C937 1.388 . S
C937 H924 0.930 . S
C937 C936 1.388 . S
C937 C938 1.390 . S
C938 C937 1.390 . S
C938 C939 1.394 . S
C938 C944 1.465 . S
C939 C934 1.399 . S
C939 C938 1.394 . S
C939 C940 1.516 . S
C940 C939 1.516 . S
C940 C941 1.502 . S
C940 C942 1.561 . S
C940 C943 1.526 . S
C941 H925 0.959 . S
C941 H926 0.959 . S
C941 H927 0.961 . S
C941 C940 1.502 . S
C942 H928 0.960 . S
C942 H929 0.961 . S
C942 H930 0.959 . S
C942 C940 1.561 . S
C943 C940 1.526 . S
C943 C944 1.396 . S
C943 C948 1.390 . S
C944 C938 1.465 . S
C944 C943 1.396 . S
C944 C945 1.399 . S
C945 H931 0.929 . S
C945 C944 1.399 . S
C945 C946 1.385 . S
C946 H932 0.931 . S
C946 C945 1.385 . S
C946 C947 1.389 . S
C947 C946 1.389 . S
C947 C948 1.387 . S
C948 H933 0.930 . S
C948 C943 1.390 . S
C948 C947 1.387 . S
H949 C961 0.930 . S
H950 C963 0.930 . S
H951 C964 0.930 . S
H952 C968 0.962 . S
H953 C968 0.977 . S
H954 C968 0.941 1_655 S
H955 C969 0.959 1_655 S
H956 C969 0.962 . S
H957 C969 0.959 . S
H958 C972 0.929 . S
H959 C973 0.931 . S
H960 C975 0.930 . S
C961 H949 0.930 . S
C961 C962 1.399 . S
C961 C966 1.399 . S
C962 C961 1.399 . S
C962 C963 1.376 . S
C963 H950 0.930 . S
C963 C962 1.376 . S
C963 C964 1.388 . S
C964 H951 0.930 . S
C964 C963 1.388 . S
C964 C965 1.390 . S
C965 C964 1.390 . S
C965 C966 1.394 . S
C965 C971 1.465 1_655 S
C966 C961 1.399 . S
C966 C965 1.394 . S
C966 C967 1.519 1_655 S
C967 C966 1.519 1_455 S
C967 C968 1.502 . S
C967 C969 1.561 . S
C967 C970 1.523 . S
C968 H952 0.962 . S
C968 H953 0.977 . S
C968 H954 0.941 1_455 S
C968 C967 1.502 . S
C969 H955 0.959 1_455 S
C969 H956 0.962 . S
C969 H957 0.959 . S
C969 C967 1.561 . S
C970 C967 1.523 . S
C970 C971 1.396 . S
C970 C975 1.390 . S
C971 C965 1.465 1_455 S
C971 C970 1.396 . S
C971 C972 1.399 . S
C972 H958 0.929 . S
C972 C971 1.399 . S
C972 C973 1.385 . S
C973 H959 0.931 . S
C973 C972 1.385 . S
C973 C974 1.389 . S
C974 C973 1.389 . S
C974 C975 1.387 . S
C975 H960 0.930 . S
C975 C970 1.390 . S
C975 C974 1.387 . S
H976 C988 0.930 . S
H977 C990 0.930 . S
H978 C991 0.930 . S
H979 C995 0.959 . S
H980 C995 0.959 . S
H981 C995 0.961 . S
H982 C996 0.960 . S
H983 C996 0.961 . S
H984 C996 0.959 . S
H985 C999 0.929 1_545 S
H986 C1000 0.931 . S
H987 C1002 0.930 . S
C988 H976 0.930 . S
C988 C989 1.399 . S
C988 C993 1.399 . S
C989 C988 1.399 . S
C989 C990 1.376 . S
C990 H977 0.930 . S
C990 C989 1.376 . S
C990 C991 1.388 1_554 S
C991 H978 0.930 . S
C991 C990 1.388 1_556 S
C991 C992 1.390 1_556 S
C992 C991 1.390 1_554 S
C992 C993 1.393 . S
C992 C998 1.466 1_544 S
C993 C988 1.399 . S
C993 C992 1.393 . S
C993 C994 1.516 1_545 S
C994 C993 1.516 1_565 S
C994 C995 1.502 . S
C994 C996 1.561 . S
C994 C997 1.526 1_554 S
C995 H979 0.959 . S
C995 H980 0.959 . S
C995 H981 0.961 . S
C995 C994 1.502 . S
C996 H982 0.960 . S
C996 H983 0.961 . S
C996 H984 0.959 . S
C996 C994 1.561 . S
C997 C994 1.526 1_556 S
C997 C998 1.396 . S
C997 C1002 1.390 . S
C998 C992 1.466 1_566 S
C998 C997 1.396 . S
C998 C999 1.399 . S
C999 H985 0.929 1_565 S
C999 C998 1.399 . S
C999 C1000 1.385 . S
C1000 H986 0.931 . S
C1000 C999 1.385 . S
C1000 C1001 1.389 . S
C1001 C1000 1.389 . S
C1001 C1002 1.387 . S
C1002 H987 0.930 . S
C1002 C997 1.390 . S
C1002 C1001 1.387 . S
H1003 C1015 0.930 . S
H1004 C1017 0.930 . S
H1005 C1018 0.930 . S
H1006 C1022 0.959 . S
H1007 C1022 0.959 . S
H1008 C1022 0.961 . S
H1009 C1023 0.960 . S
H1010 C1023 0.961 . S
H1011 C1023 0.959 . S
H1012 C1026 0.929 1_565 S
H1013 C1027 0.931 . S
H1014 C1029 0.930 . S
C1015 H1003 0.930 . S
C1015 C1016 1.399 . S
C1015 C1020 1.399 . S
C1016 C1015 1.399 . S
C1016 C1017 1.376 . S
C1017 H1004 0.930 . S
C1017 C1016 1.376 . S
C1017 C1018 1.388 . S
C1018 H1005 0.930 . S
C1018 C1017 1.388 . S
C1018 C1019 1.390 . S
C1019 C1018 1.390 . S
C1019 C1020 1.394 . S
C1019 C1025 1.465 1_565 S
C1020 C1015 1.399 . S
C1020 C1019 1.394 . S
C1020 C1021 1.516 1_565 S
C1021 C1020 1.516 1_545 S
C1021 C1022 1.502 . S
C1021 C1023 1.561 . S
C1021 C1024 1.526 . S
C1022 H1006 0.959 . S
C1022 H1007 0.959 . S
C1022 H1008 0.961 . S
C1022 C1021 1.502 . S
C1023 H1009 0.960 . S
C1023 H1010 0.961 . S
C1023 H1011 0.959 . S
C1023 C1021 1.561 . S
C1024 C1021 1.526 . S
C1024 C1025 1.396 . S
C1024 C1029 1.390 . S
C1025 C1019 1.465 1_545 S
C1025 C1024 1.396 . S
C1025 C1026 1.399 . S
C1026 H1012 0.929 1_545 S
C1026 C1025 1.399 . S
C1026 C1027 1.385 . S
C1027 H1013 0.931 . S
C1027 C1026 1.385 . S
C1027 C1028 1.389 . S
C1028 C1027 1.389 . S
C1028 C1029 1.387 . S
C1029 H1014 0.930 . S
C1029 C1024 1.390 . S
C1029 C1028 1.387 . S
H1030 C1042 0.930 . S
H1031 C1044 0.930 . S
H1032 C1045 0.930 1_554 S
H1033 C1049 0.959 . S
H1034 C1049 0.959 . S
H1035 C1049 0.961 . S
H1036 C1050 0.961 1_565 S
H1037 C1050 0.978 1_554 S
H1038 C1050 0.926 1_564 S
H1039 C1053 0.921 1_565 S
H1040 C1054 0.931 . S
H1041 C1056 0.930 . S
C1042 H1030 0.930 . S
C1042 C1043 1.399 . S
C1042 C1047 1.399 . S
C1043 C1042 1.399 . S
C1043 C1044 1.376 . S
C1044 H1031 0.930 . S
C1044 C1043 1.376 . S
C1044 C1045 1.388 . S
C1045 H1032 0.930 1_556 S
C1045 C1044 1.388 . S
C1045 C1046 1.390 . S
C1046 C1045 1.390 . S
C1046 C1047 1.394 . S
C1046 C1052 1.465 1_566 S
C1047 C1042 1.399 . S
C1047 C1046 1.394 . S
C1047 C1048 1.516 1_565 S
C1048 C1047 1.516 1_545 S
C1048 C1049 1.502 . S
C1048 C1050 1.577 . S
C1048 C1051 1.526 1_556 S
C1049 H1033 0.959 . S
C1049 H1034 0.959 . S
C1049 H1035 0.961 . S
C1049 C1048 1.502 . S
C1050 H1036 0.961 1_545 S
C1050 H1037 0.978 1_556 S
C1050 H1038 0.926 1_546 S
C1050 C1048 1.577 . S
C1051 C1048 1.526 1_554 S
C1051 C1052 1.396 . S
C1051 C1056 1.390 . S
C1052 C1046 1.465 1_544 S
C1052 C1051 1.396 . S
C1052 C1053 1.399 . S
C1053 H1039 0.921 1_545 S
C1053 C1052 1.399 . S
C1053 C1054 1.385 . S
C1054 H1040 0.931 . S
C1054 C1053 1.385 . S
C1054 C1055 1.389 . S
C1055 C1054 1.389 . S
C1055 C1056 1.387 . S
C1056 H1041 0.930 . S
C1056 C1051 1.390 . S
C1056 C1055 1.387 . S
H1057 C1069 0.930 . S
H1058 C1071 0.930 . S
H1059 C1072 0.930 . S
H1060 C1076 0.959 . S
H1061 C1076 0.959 . S
H1062 C1076 0.961 . S
H1063 C1077 0.960 . S
H1064 C1077 0.961 . S
H1065 C1077 0.959 . S
H1066 C1080 0.929 1_545 S
H1067 C1081 0.931 . S
H1068 C1083 0.930 . S
C1069 H1057 0.930 . S
C1069 C1070 1.399 . S
C1069 C1074 1.399 . S
C1070 C1069 1.399 . S
C1070 C1071 1.376 . S
C1071 H1058 0.930 . S
C1071 C1070 1.376 . S
C1071 C1072 1.388 . S
C1072 H1059 0.930 . S
C1072 C1071 1.388 . S
C1072 C1073 1.390 . S
C1073 C1072 1.390 . S
C1073 C1074 1.394 . S
C1073 C1079 1.465 1_545 S
C1074 C1069 1.399 . S
C1074 C1073 1.394 . S
C1074 C1075 1.516 1_545 S
C1075 C1074 1.516 1_565 S
C1075 C1076 1.502 . S
C1075 C1077 1.561 . S
C1075 C1078 1.526 . S
C1076 H1060 0.959 . S
C1076 H1061 0.959 . S
C1076 H1062 0.961 . S
C1076 C1075 1.502 . S
C1077 H1063 0.960 . S
C1077 H1064 0.961 . S
C1077 H1065 0.959 . S
C1077 C1075 1.561 . S
C1078 C1075 1.526 . S
C1078 C1079 1.396 . S
C1078 C1083 1.390 . S
C1079 C1073 1.465 1_565 S
C1079 C1078 1.396 . S
C1079 C1080 1.399 . S
C1080 H1066 0.929 1_565 S
C1080 C1079 1.399 . S
C1080 C1081 1.385 . S
C1081 H1067 0.931 . S
C1081 C1080 1.385 . S
C1081 C1082 1.389 . S
C1082 C1081 1.389 . S
C1082 C1083 1.387 . S
C1083 H1068 0.930 . S
C1083 C1078 1.390 . S
C1083 C1082 1.387 . S
H1084 C1096 0.930 . S
H1085 C1098 0.930 . S
H1086 C1099 0.941 . S
H1087 C1103 0.959 . S
H1088 C1103 0.959 . S
H1089 C1103 0.961 . S
H1090 C1104 0.960 1_554 S
H1091 C1104 0.961 . S
H1092 C1104 0.959 . S
H1093 C1107 0.929 . S
H1094 C1108 0.931 . S
H1095 C1110 0.930 . S
C1096 H1084 0.930 . S
C1096 C1097 1.399 . S
C1096 C1101 1.399 . S
C1097 C1096 1.399 . S
C1097 C1098 1.376 . S
C1098 H1085 0.930 . S
C1098 C1097 1.376 . S
C1098 C1099 1.388 . S
C1099 H1086 0.941 . S
C1099 C1098 1.388 . S
C1099 C1100 1.390 . S
C1100 C1099 1.390 . S
C1100 C1101 1.394 . S
C1100 C1106 1.465 1_554 S
C1101 C1096 1.399 . S
C1101 C1100 1.394 . S
C1101 C1102 1.516 . S
C1102 C1101 1.516 . S
C1102 C1103 1.502 . S
C1102 C1104 1.561 1_554 S
C1102 C1105 1.526 1_554 S
C1103 H1087 0.959 . S
C1103 H1088 0.959 . S
C1103 H1089 0.961 . S
C1103 C1102 1.502 . S
C1104 H1090 0.960 1_556 S
C1104 H1091 0.961 . S
C1104 H1092 0.959 . S
C1104 C1102 1.561 1_556 S
C1105 C1102 1.526 1_556 S
C1105 C1106 1.396 . S
C1105 C1110 1.390 . S
C1106 C1100 1.465 1_556 S
C1106 C1105 1.396 . S
C1106 C1107 1.399 . S
C1107 H1093 0.929 . S
C1107 C1106 1.399 . S
C1107 C1108 1.385 . S
C1108 H1094 0.931 . S
C1108 C1107 1.385 . S
C1108 C1109 1.389 . S
C1109 C1108 1.389 . S
C1109 C1110 1.387 . S
C1110 H1095 0.930 . S
C1110 C1105 1.390 . S
C1110 C1109 1.387 . S
H1111 C1123 0.930 . S
H1112 C1125 0.930 . S
H1113 C1126 0.930 . S
H1114 C1130 0.959 . S
H1115 C1130 0.959 . S
H1116 C1130 0.961 . S
H1117 C1131 0.960 . S
H1118 C1131 0.961 . S
H1119 C1131 0.959 . S
H1120 C1134 0.929 . S
H1121 C1135 0.931 . S
H1122 C1137 0.930 . S
C1123 H1111 0.930 . S
C1123 C1124 1.399 . S
C1123 C1128 1.399 . S
C1124 C1123 1.399 . S
C1124 C1125 1.376 . S
C1125 H1112 0.930 . S
C1125 C1124 1.376 . S
C1125 C1126 1.388 . S
C1126 H1113 0.930 . S
C1126 C1125 1.388 . S
C1126 C1127 1.390 . S
C1127 C1126 1.390 . S
C1127 C1128 1.394 . S
C1127 C1133 1.465 . S
C1128 C1123 1.399 . S
C1128 C1127 1.394 . S
C1128 C1129 1.516 . S
C1129 C1128 1.516 . S
C1129 C1130 1.502 . S
C1129 C1131 1.561 . S
C1129 C1132 1.526 . S
C1130 H1114 0.959 . S
C1130 H1115 0.959 . S
C1130 H1116 0.961 . S
C1130 C1129 1.502 . S
C1131 H1117 0.960 . S
C1131 H1118 0.961 . S
C1131 H1119 0.959 . S
C1131 C1129 1.561 . S
C1132 C1129 1.526 . S
C1132 C1133 1.396 . S
C1132 C1137 1.390 . S
C1133 C1127 1.465 . S
C1133 C1132 1.396 . S
C1133 C1134 1.399 . S
C1134 H1120 0.929 . S
C1134 C1133 1.399 . S
C1134 C1135 1.385 . S
C1135 H1121 0.931 . S
C1135 C1134 1.385 . S
C1135 C1136 1.389 . S
C1136 C1135 1.389 . S
C1136 C1137 1.387 . S
C1137 H1122 0.930 . S
C1137 C1132 1.390 . S
C1137 C1136 1.387 . S
H1138 C1150 0.930 . S
H1139 C1152 0.930 . S
H1140 C1153 0.930 . S
H1141 C1157 0.959 . S
H1142 C1157 0.959 . S
H1143 C1157 0.961 . S
H1144 C1158 0.960 . S
H1145 C1158 0.961 . S
H1146 C1158 0.959 . S
H1147 C1161 0.929 . S
H1148 C1162 0.931 . S
H1149 C1164 0.930 . S
C1150 H1138 0.930 . S
C1150 C1151 1.399 . S
C1150 C1155 1.399 . S
C1151 C1150 1.399 . S
C1151 C1152 1.376 . S
C1152 H1139 0.930 . S
C1152 C1151 1.376 . S
C1152 C1153 1.388 . S
C1153 H1140 0.930 . S
C1153 C1152 1.388 . S
C1153 C1154 1.390 . S
C1154 C1153 1.390 . S
C1154 C1155 1.394 . S
C1154 C1160 1.477 . S
C1155 C1150 1.399 . S
C1155 C1154 1.394 . S
C1155 C1156 1.516 1_556 S
C1156 C1155 1.516 1_554 S
C1156 C1157 1.502 . S
C1156 C1158 1.561 . S
C1156 C1159 1.526 . S
C1157 H1141 0.959 . S
C1157 H1142 0.959 . S
C1157 H1143 0.961 . S
C1157 C1156 1.502 . S
C1158 H1144 0.960 . S
C1158 H1145 0.961 . S
C1158 H1146 0.959 . S
C1158 C1156 1.561 . S
C1159 C1156 1.526 . S
C1159 C1160 1.379 1_554 S
C1159 C1164 1.390 . S
C1160 C1154 1.477 . S
C1160 C1159 1.379 1_556 S
C1160 C1161 1.402 . S
C1161 H1147 0.929 . S
C1161 C1160 1.402 . S
C1161 C1162 1.385 1_556 S
C1162 H1148 0.931 . S
C1162 C1161 1.385 1_554 S
C1162 C1163 1.389 . S
C1163 C1162 1.389 . S
C1163 C1164 1.387 . S
C1164 H1149 0.930 . S
C1164 C1159 1.390 . S
C1164 C1163 1.387 . S
H1165 C1177 0.930 . S
H1166 C1179 0.930 . S
H1167 C1180 0.930 . S
H1168 C1184 0.959 . S
H1169 C1184 0.959 . S
H1170 C1184 0.961 . S
H1171 C1185 0.960 . S
H1172 C1185 0.961 . S
H1173 C1185 0.959 . S
H1174 C1188 0.929 . S
H1175 C1189 0.931 . S
H1176 C1191 0.930 . S
C1177 H1165 0.930 . S
C1177 C1178 1.399 . S
C1177 C1182 1.399 . S
C1178 C1177 1.399 . S
C1178 C1179 1.376 . S
C1179 H1166 0.930 . S
C1179 C1178 1.376 . S
C1179 C1180 1.388 . S
C1180 H1167 0.930 . S
C1180 C1179 1.388 . S
C1180 C1181 1.390 . S
C1181 C1180 1.390 . S
C1181 C1182 1.394 . S
C1181 C1187 1.465 . S
C1182 C1177 1.399 . S
C1182 C1181 1.394 . S
C1182 C1183 1.516 . S
C1183 C1182 1.516 . S
C1183 C1184 1.502 . S
C1183 C1185 1.561 . S
C1183 C1186 1.526 . S
C1184 H1168 0.959 . S
C1184 H1169 0.959 . S
C1184 H1170 0.961 . S
C1184 C1183 1.502 . S
C1185 H1171 0.960 . S
C1185 H1172 0.961 . S
C1185 H1173 0.959 . S
C1185 C1183 1.561 . S
C1186 C1183 1.526 . S
C1186 C1187 1.396 . S
C1186 C1191 1.390 . S
C1187 C1181 1.465 . S
C1187 C1186 1.396 . S
C1187 C1188 1.399 . S
C1188 H1174 0.929 . S
C1188 C1187 1.399 . S
C1188 C1189 1.385 . S
C1189 H1175 0.931 . S
C1189 C1188 1.385 . S
C1189 C1190 1.389 . S
C1190 C1189 1.389 . S
C1190 C1191 1.387 . S
C1191 H1176 0.930 . S
C1191 C1186 1.390 . S
C1191 C1190 1.387 . S
H1192 C1204 0.930 . S
H1193 C1206 0.930 . S
H1194 C1207 0.930 . S
H1195 C1211 0.959 . S
H1196 C1211 0.959 1_554 S
H1197 C1211 0.961 . S
H1198 C1212 0.960 . S
H1199 C1212 0.961 . S
H1200 C1212 0.959 . S
H1201 C1215 0.929 . S
H1202 C1216 0.931 . S
H1203 C1218 0.930 . S
C1204 H1192 0.930 . S
C1204 C1205 1.399 . S
C1204 C1209 1.399 . S
C1205 C1204 1.399 . S
C1205 C1206 1.376 . S
C1206 H1193 0.930 . S
C1206 C1205 1.376 . S
C1206 C1207 1.388 . S
C1207 H1194 0.930 . S
C1207 C1206 1.388 . S
C1207 C1208 1.390 . S
C1208 C1207 1.390 . S
C1208 C1209 1.394 . S
C1208 C1214 1.465 . S
C1209 C1204 1.399 . S
C1209 C1208 1.394 . S
C1209 C1210 1.516 . S
C1210 C1209 1.516 . S
C1210 C1211 1.502 . S
C1210 C1212 1.561 . S
C1210 C1213 1.526 . S
C1211 H1195 0.959 . S
C1211 H1196 0.959 1_556 S
C1211 H1197 0.961 . S
C1211 C1210 1.502 . S
C1212 H1198 0.960 . S
C1212 H1199 0.961 . S
C1212 H1200 0.959 . S
C1212 C1210 1.561 . S
C1213 C1210 1.526 . S
C1213 C1214 1.396 . S
C1213 C1218 1.390 1_556 S
C1214 C1208 1.465 . S
C1214 C1213 1.396 . S
C1214 C1215 1.399 . S
C1215 H1201 0.929 . S
C1215 C1214 1.399 . S
C1215 C1216 1.385 . S
C1216 H1202 0.931 . S
C1216 C1215 1.385 . S
C1216 C1217 1.389 1_556 S
C1217 C1216 1.389 1_554 S
C1217 C1218 1.387 . S
C1218 H1203 0.930 . S
C1218 C1213 1.390 1_554 S
C1218 C1217 1.387 . S
H1219 C1231 0.930 . S
H1220 C1233 0.930 . S
H1221 C1234 0.930 . S
H1222 C1238 0.959 . S
H1223 C1238 0.959 . S
H1224 C1238 0.961 . S
H1225 C1239 0.960 . S
H1226 C1239 0.961 . S
H1227 C1239 0.959 . S
H1228 C1242 0.929 . S
H1229 C1243 0.931 . S
H1230 C1245 0.930 . S
C1231 H1219 0.930 . S
C1231 C1232 1.399 . S
C1231 C1236 1.399 . S
C1232 C1231 1.399 . S
C1232 C1233 1.376 . S
C1233 H1220 0.930 . S
C1233 C1232 1.376 . S
C1233 C1234 1.388 . S
C1234 H1221 0.930 . S
C1234 C1233 1.388 . S
C1234 C1235 1.390 . S
C1235 C1234 1.390 . S
C1235 C1236 1.394 . S
C1235 C1241 1.465 . S
C1236 C1231 1.399 . S
C1236 C1235 1.394 . S
C1236 C1237 1.516 . S
C1237 C1236 1.516 . S
C1237 C1238 1.502 . S
C1237 C1239 1.561 . S
C1237 C1240 1.526 . S
C1238 H1222 0.959 . S
C1238 H1223 0.959 . S
C1238 H1224 0.961 . S
C1238 C1237 1.502 . S
C1239 H1225 0.960 . S
C1239 H1226 0.961 . S
C1239 H1227 0.959 . S
C1239 C1237 1.561 . S
C1240 C1237 1.526 . S
C1240 C1241 1.396 . S
C1240 C1245 1.390 . S
C1241 C1235 1.465 . S
C1241 C1240 1.396 . S
C1241 C1242 1.399 . S
C1242 H1228 0.929 . S
C1242 C1241 1.399 . S
C1242 C1243 1.385 . S
C1243 H1229 0.931 . S
C1243 C1242 1.385 . S
C1243 C1244 1.389 . S
C1244 C1243 1.389 . S
C1244 C1245 1.387 . S
C1245 H1230 0.930 . S
C1245 C1240 1.390 . S
C1245 C1244 1.387 . S
H1246 C1258 0.930 . S
H1247 C1260 0.930 . S
H1248 C1261 0.930 . S
H1249 C1265 0.959 . S
H1250 C1265 0.959 . S
H1251 C1265 0.961 1_556 S
H1252 C1266 0.960 1_556 S
H1253 C1266 0.961 . S
H1254 C1266 0.959 . S
H1255 C1269 0.929 . S
H1256 C1270 0.931 . S
H1257 C1272 0.930 . S
C1258 H1246 0.930 . S
C1258 C1259 1.399 . S
C1258 C1263 1.399 1_556 S
C1259 C1258 1.399 . S
C1259 C1260 1.376 1_556 S
C1260 H1247 0.930 . S
C1260 C1259 1.376 1_554 S
C1260 C1261 1.388 . S
C1261 H1248 0.930 . S
C1261 C1260 1.388 . S
C1261 C1262 1.390 . S
C1262 C1261 1.390 . S
C1262 C1263 1.394 . S
C1262 C1268 1.465 . S
C1263 C1258 1.399 1_554 S
C1263 C1262 1.394 . S
C1263 C1264 1.516 . S
C1264 C1263 1.516 . S
C1264 C1265 1.502 . S
C1264 C1266 1.561 . S
C1264 C1267 1.526 . S
C1265 H1249 0.959 . S
C1265 H1250 0.959 . S
C1265 H1251 0.961 1_554 S
C1265 C1264 1.502 . S
C1266 H1252 0.960 1_554 S
C1266 H1253 0.961 . S
C1266 H1254 0.959 . S
C1266 C1264 1.561 . S
C1267 C1264 1.526 . S
C1267 C1268 1.396 . S
C1267 C1272 1.390 . S
C1268 C1262 1.465 . S
C1268 C1267 1.396 . S
C1268 C1269 1.399 . S
C1269 H1255 0.929 . S
C1269 C1268 1.399 . S
C1269 C1270 1.385 . S
C1270 H1256 0.931 . S
C1270 C1269 1.385 . S
C1270 C1271 1.389 . S
C1271 C1270 1.389 . S
C1271 C1272 1.387 . S
C1272 H1257 0.930 . S
C1272 C1267 1.390 . S
C1272 C1271 1.387 . S
H1273 C1285 0.930 . S
H1274 C1287 0.930 . S
H1275 C1288 0.930 . S
H1276 C1292 0.959 . S
H1277 C1292 0.959 . S
H1278 C1292 0.961 . S
H1279 C1293 0.960 . S
H1280 C1293 0.961 . S
H1281 C1293 0.959 . S
H1282 C1296 0.929 . S
H1283 C1297 0.931 . S
H1284 C1299 0.930 . S
C1285 H1273 0.930 . S
C1285 C1286 1.399 . S
C1285 C1290 1.399 . S
C1286 C1285 1.399 . S
C1286 C1287 1.376 . S
C1287 H1274 0.930 . S
C1287 C1286 1.376 . S
C1287 C1288 1.388 . S
C1288 H1275 0.930 . S
C1288 C1287 1.388 . S
C1288 C1289 1.390 . S
C1289 C1288 1.390 . S
C1289 C1290 1.394 . S
C1289 C1295 1.465 . S
C1290 C1285 1.399 . S
C1290 C1289 1.394 . S
C1290 C1291 1.516 . S
C1291 C1290 1.516 . S
C1291 C1292 1.502 . S
C1291 C1293 1.561 . S
C1291 C1294 1.526 . S
C1292 H1276 0.959 . S
C1292 H1277 0.959 . S
C1292 H1278 0.961 . S
C1292 C1291 1.502 . S
C1293 H1279 0.960 . S
C1293 H1280 0.961 . S
C1293 H1281 0.959 . S
C1293 C1291 1.561 . S
C1294 C1291 1.526 . S
C1294 C1295 1.396 . S
C1294 C1299 1.390 . S
C1295 C1289 1.465 . S
C1295 C1294 1.396 . S
C1295 C1296 1.399 . S
C1296 H1282 0.929 . S
C1296 C1295 1.399 . S
C1296 C1297 1.385 . S
C1297 H1283 0.931 . S
C1297 C1296 1.385 . S
C1297 C1298 1.389 . S
C1298 C1297 1.389 . S
C1298 C1299 1.387 . S
C1299 H1284 0.930 . S
C1299 C1294 1.390 . S
C1299 C1298 1.387 . S
H1300 C1312 0.930 . S
H1301 C1314 0.930 . S
H1302 C1315 0.930 . S
H1303 C1319 0.959 . S
H1304 C1319 0.959 1_556 S
H1305 C1319 0.961 . S
H1306 C1320 0.960 . S
H1307 C1320 0.961 1_556 S
H1308 C1320 0.959 . S
H1309 C1323 0.929 . S
H1310 C1324 0.931 . S
H1311 C1326 0.930 . S
C1312 H1300 0.930 . S
C1312 C1313 1.399 . S
C1312 C1317 1.399 . S
C1313 C1312 1.399 . S
C1313 C1314 1.376 . S
C1314 H1301 0.930 . S
C1314 C1313 1.376 . S
C1314 C1315 1.388 . S
C1315 H1302 0.930 . S
C1315 C1314 1.388 . S
C1315 C1316 1.390 . S
C1316 C1315 1.390 . S
C1316 C1317 1.394 . S
C1316 C1322 1.465 . S
C1317 C1312 1.399 . S
C1317 C1316 1.394 . S
C1317 C1318 1.516 . S
C1318 C1317 1.516 . S
C1318 C1319 1.502 . S
C1318 C1320 1.561 . S
C1318 C1321 1.526 . S
C1319 H1303 0.959 . S
C1319 H1304 0.959 1_554 S
C1319 H1305 0.961 . S
C1319 C1318 1.502 . S
C1320 H1306 0.960 . S
C1320 H1307 0.961 1_554 S
C1320 H1308 0.959 . S
C1320 C1318 1.561 . S
C1321 C1318 1.526 . S
C1321 C1322 1.396 . S
C1321 C1326 1.390 1_554 S
C1322 C1316 1.465 . S
C1322 C1321 1.396 . S
C1322 C1323 1.399 . S
C1323 H1309 0.929 . S
C1323 C1322 1.399 . S
C1323 C1324 1.385 . S
C1324 H1310 0.931 . S
C1324 C1323 1.385 . S
C1324 C1325 1.389 1_554 S
C1325 C1324 1.389 1_556 S
C1325 C1326 1.387 . S
C1326 H1311 0.930 . S
C1326 C1321 1.390 1_556 S
C1326 C1325 1.387 . S
H1327 C1339 0.930 . S
H1328 C1341 0.930 . S
H1329 C1342 0.930 . S
H1330 C1346 0.959 . S
H1331 C1346 0.959 . S
H1332 C1346 0.961 . S
H1333 C1347 0.960 . S
H1334 C1347 0.961 . S
H1335 C1347 0.959 . S
H1336 C1350 0.929 . S
H1337 C1351 0.931 . S
H1338 C1353 0.930 . S
C1339 H1327 0.930 . S
C1339 C1340 1.399 . S
C1339 C1344 1.399 . S
C1340 C1339 1.399 . S
C1340 C1341 1.376 . S
C1341 H1328 0.930 . S
C1341 C1340 1.376 . S
C1341 C1342 1.388 . S
C1342 H1329 0.930 . S
C1342 C1341 1.388 . S
C1342 C1343 1.390 . S
C1343 C1342 1.390 . S
C1343 C1344 1.394 . S
C1343 C1349 1.465 . S
C1344 C1339 1.399 . S
C1344 C1343 1.394 . S
C1344 C1345 1.516 . S
C1345 C1344 1.516 . S
C1345 C1346 1.502 . S
C1345 C1347 1.561 . S
C1345 C1348 1.526 . S
C1346 H1330 0.959 . S
C1346 H1331 0.959 . S
C1346 H1332 0.961 . S
C1346 C1345 1.502 . S
C1347 H1333 0.960 . S
C1347 H1334 0.961 . S
C1347 H1335 0.959 . S
C1347 C1345 1.561 . S
C1348 C1345 1.526 . S
C1348 C1349 1.396 . S
C1348 C1353 1.390 . S
C1349 C1343 1.465 . S
C1349 C1348 1.396 . S
C1349 C1350 1.399 . S
C1350 H1336 0.929 . S
C1350 C1349 1.399 . S
C1350 C1351 1.385 . S
C1351 H1337 0.931 . S
C1351 C1350 1.385 . S
C1351 C1352 1.389 . S
C1352 C1351 1.389 . S
C1352 C1353 1.387 . S
C1353 H1338 0.930 . S
C1353 C1348 1.390 . S
C1353 C1352 1.387 . S
H1354 C1366 0.930 . S
H1355 C1368 0.930 . S
H1356 C1369 0.930 . S
H1357 C1373 0.959 . S
H1358 C1373 0.959 . S
H1359 C1373 0.956 1_554 S
H1360 C1374 0.960 1_554 S
H1361 C1374 0.961 . S
H1362 C1374 0.959 . S
H1363 C1377 0.929 . S
H1364 C1378 0.931 . S
H1365 C1380 0.930 . S
C1366 H1354 0.930 . S
C1366 C1367 1.399 . S
C1366 C1371 1.399 1_554 S
C1367 C1366 1.399 . S
C1367 C1368 1.376 1_554 S
C1368 H1355 0.930 . S
C1368 C1367 1.376 1_556 S
C1368 C1369 1.388 . S
C1369 H1356 0.930 . S
C1369 C1368 1.388 . S
C1369 C1370 1.390 . S
C1370 C1369 1.390 . S
C1370 C1371 1.394 . S
C1370 C1376 1.465 . S
C1371 C1366 1.399 1_556 S
C1371 C1370 1.394 . S
C1371 C1372 1.516 . S
C1372 C1371 1.516 . S
C1372 C1373 1.502 . S
C1372 C1374 1.561 . S
C1372 C1375 1.526 . S
C1373 H1357 0.959 . S
C1373 H1358 0.959 . S
C1373 H1359 0.956 1_556 S
C1373 C1372 1.502 . S
C1374 H1360 0.960 1_556 S
C1374 H1361 0.961 . S
C1374 H1362 0.959 . S
C1374 C1372 1.561 . S
C1375 C1372 1.526 . S
C1375 C1376 1.396 . S
C1375 C1380 1.390 . S
C1376 C1370 1.465 . S
C1376 C1375 1.396 . S
C1376 C1377 1.399 . S
C1377 H1363 0.929 . S
C1377 C1376 1.399 . S
C1377 C1378 1.385 . S
C1378 H1364 0.931 . S
C1378 C1377 1.385 . S
C1378 C1379 1.389 . S
C1379 C1378 1.389 . S
C1379 C1380 1.387 . S
C1380 H1365 0.930 . S
C1380 C1375 1.390 . S
C1380 C1379 1.387 . S
H1381 C1393 0.930 . S
H1382 C1395 0.930 . S
H1383 C1396 0.930 . S
H1384 C1400 0.959 . S
H1385 C1400 0.959 . S
H1386 C1400 0.961 . S
H1387 C1401 0.960 . S
H1388 C1401 0.961 . S
H1389 C1401 0.959 . S
H1390 C1404 0.929 . S
H1391 C1405 0.931 . S
H1392 C1407 0.930 . S
C1393 H1381 0.930 . S
C1393 C1394 1.399 . S
C1393 C1398 1.399 . S
C1394 C1393 1.399 . S
C1394 C1395 1.376 . S
C1395 H1382 0.930 . S
C1395 C1394 1.376 . S
C1395 C1396 1.388 . S
C1396 H1383 0.930 . S
C1396 C1395 1.388 . S
C1396 C1397 1.390 . S
C1397 C1396 1.390 . S
C1397 C1398 1.394 . S
C1397 C1403 1.465 . S
C1398 C1393 1.399 . S
C1398 C1397 1.394 . S
C1398 C1399 1.516 . S
C1399 C1398 1.516 . S
C1399 C1400 1.502 . S
C1399 C1401 1.561 . S
C1399 C1402 1.526 . S
C1400 H1384 0.959 . S
C1400 H1385 0.959 . S
C1400 H1386 0.961 . S
C1400 C1399 1.502 . S
C1401 H1387 0.960 . S
C1401 H1388 0.961 . S
C1401 H1389 0.959 . S
C1401 C1399 1.561 . S
C1402 C1399 1.526 . S
C1402 C1403 1.396 . S
C1402 C1407 1.390 . S
C1403 C1397 1.465 . S
C1403 C1402 1.396 . S
C1403 C1404 1.399 . S
C1404 H1390 0.929 . S
C1404 C1403 1.399 . S
C1404 C1405 1.385 . S
C1405 H1391 0.931 . S
C1405 C1404 1.385 . S
C1405 C1406 1.389 . S
C1406 C1405 1.389 . S
C1406 C1407 1.387 . S
C1407 H1392 0.930 . S
C1407 C1402 1.390 . S
C1407 C1406 1.387 . S
H1408 C1420 0.930 . S
H1409 C1422 0.930 . S
H1410 C1423 0.930 . S
H1411 C1427 0.959 . S
H1412 C1427 0.959 . S
H1413 C1427 0.961 . S
H1414 C1428 0.960 . S
H1415 C1428 0.961 . S
H1416 C1428 0.959 . S
H1417 C1431 0.929 . S
H1418 C1432 0.931 . S
H1419 C1434 0.930 . S
C1420 H1408 0.930 . S
C1420 C1421 1.399 . S
C1420 C1425 1.399 1_554 S
C1421 C1420 1.399 . S
C1421 C1422 1.376 . S
C1422 H1409 0.930 . S
C1422 C1421 1.376 . S
C1422 C1423 1.388 1_554 S
C1423 H1410 0.930 . S
C1423 C1422 1.388 1_556 S
C1423 C1424 1.390 . S
C1424 C1423 1.390 . S
C1424 C1425 1.394 . S
C1424 C1430 1.465 . S
C1425 C1420 1.399 1_556 S
C1425 C1424 1.394 . S
C1425 C1426 1.516 . S
C1426 C1425 1.516 . S
C1426 C1427 1.502 . S
C1426 C1428 1.561 . S
C1426 C1429 1.526 . S
C1427 H1411 0.959 . S
C1427 H1412 0.959 . S
C1427 H1413 0.961 . S
C1427 C1426 1.502 . S
C1428 H1414 0.960 . S
C1428 H1415 0.961 . S
C1428 H1416 0.959 . S
C1428 C1426 1.561 . S
C1429 C1426 1.526 . S
C1429 C1430 1.396 . S
C1429 C1434 1.390 . S
C1430 C1424 1.465 . S
C1430 C1429 1.396 . S
C1430 C1431 1.399 . S
C1431 H1417 0.929 . S
C1431 C1430 1.399 . S
C1431 C1432 1.385 . S
C1432 H1418 0.931 . S
C1432 C1431 1.385 . S
C1432 C1433 1.389 . S
C1433 C1432 1.389 . S
C1433 C1434 1.387 . S
C1434 H1419 0.930 . S
C1434 C1429 1.390 . S
C1434 C1433 1.387 . S
H1435 C1447 0.930 . S
H1436 C1449 0.930 . S
H1437 C1450 0.930 . S
H1438 C1454 0.959 . S
H1439 C1454 0.959 . S
H1440 C1454 0.961 . S
H1441 C1455 0.960 . S
H1442 C1455 0.961 . S
H1443 C1455 0.959 . S
H1444 C1458 0.929 . S
H1445 C1459 0.931 . S
H1446 C1461 0.930 . S
C1447 H1435 0.930 . S
C1447 C1448 1.399 . S
C1447 C1452 1.399 . S
C1448 C1447 1.399 . S
C1448 C1449 1.376 . S
C1449 H1436 0.930 . S
C1449 C1448 1.376 . S
C1449 C1450 1.388 . S
C1450 H1437 0.930 . S
C1450 C1449 1.388 . S
C1450 C1451 1.390 . S
C1451 C1450 1.390 . S
C1451 C1452 1.394 . S
C1451 C1457 1.465 . S
C1452 C1447 1.399 . S
C1452 C1451 1.394 . S
C1452 C1453 1.516 . S
C1453 C1452 1.516 . S
C1453 C1454 1.502 . S
C1453 C1455 1.561 . S
C1453 C1456 1.526 . S
C1454 H1438 0.959 . S
C1454 H1439 0.959 . S
C1454 H1440 0.961 . S
C1454 C1453 1.502 . S
C1455 H1441 0.960 . S
C1455 H1442 0.961 . S
C1455 H1443 0.959 . S
C1455 C1453 1.561 . S
C1456 C1453 1.526 . S
C1456 C1457 1.396 . S
C1456 C1461 1.390 . S
C1457 C1451 1.465 . S
C1457 C1456 1.396 . S
C1457 C1458 1.399 . S
C1458 H1444 0.929 . S
C1458 C1457 1.399 . S
C1458 C1459 1.385 . S
C1459 H1445 0.931 . S
C1459 C1458 1.385 . S
C1459 C1460 1.389 . S
C1460 C1459 1.389 . S
C1460 C1461 1.387 . S
C1461 H1446 0.930 . S
C1461 C1456 1.390 . S
C1461 C1460 1.387 . S
H1462 C1474 0.930 . S
H1463 C1476 0.930 . S
H1464 C1477 0.930 . S
H1465 C1481 0.959 . S
H1466 C1481 0.959 . S
H1467 C1481 0.961 . S
H1468 C1482 0.960 . S
H1469 C1482 0.961 . S
H1470 C1482 0.959 . S
H1471 C1485 0.929 . S
H1472 C1486 0.931 . S
H1473 C1488 0.930 . S
C1474 H1462 0.930 . S
C1474 C1475 1.399 . S
C1474 C1479 1.399 . S
C1475 C1474 1.399 . S
C1475 C1476 1.376 . S
C1476 H1463 0.930 . S
C1476 C1475 1.376 . S
C1476 C1477 1.388 . S
C1477 H1464 0.930 . S
C1477 C1476 1.388 . S
C1477 C1478 1.390 . S
C1478 C1477 1.390 . S
C1478 C1479 1.394 . S
C1478 C1484 1.465 . S
C1479 C1474 1.399 . S
C1479 C1478 1.394 . S
C1479 C1480 1.516 . S
C1480 C1479 1.516 . S
C1480 C1481 1.502 . S
C1480 C1482 1.561 . S
C1480 C1483 1.526 . S
C1481 H1465 0.959 . S
C1481 H1466 0.959 . S
C1481 H1467 0.961 . S
C1481 C1480 1.502 . S
C1482 H1468 0.960 . S
C1482 H1469 0.961 . S
C1482 H1470 0.959 . S
C1482 C1480 1.561 . S
C1483 C1480 1.526 . S
C1483 C1484 1.396 . S
C1483 C1488 1.390 . S
C1484 C1478 1.465 . S
C1484 C1483 1.396 . S
C1484 C1485 1.399 . S
C1485 H1471 0.929 . S
C1485 C1484 1.399 . S
C1485 C1486 1.385 1_554 S
C1486 H1472 0.931 . S
C1486 C1485 1.385 1_556 S
C1486 C1487 1.389 . S
C1487 C1486 1.389 . S
C1487 C1488 1.387 1_556 S
C1488 H1473 0.930 . S
C1488 C1483 1.390 . S
C1488 C1487 1.387 1_554 S
H1489 C1501 0.930 . S
H1490 C1503 0.930 . S
H1491 C1504 0.930 . S
H1492 C1508 0.959 . S
H1493 C1508 0.959 . S
H1494 C1508 0.961 . S
H1495 C1509 0.960 . S
H1496 C1509 0.961 . S
H1497 C1509 0.959 . S
H1498 C1512 0.929 . S
H1499 C1513 0.931 . S
H1500 C1515 0.930 . S
C1501 H1489 0.930 . S
C1501 C1502 1.399 . S
C1501 C1506 1.399 . S
C1502 C1501 1.399 . S
C1502 C1503 1.376 . S
C1503 H1490 0.930 . S
C1503 C1502 1.376 . S
C1503 C1504 1.388 . S
C1504 H1491 0.930 . S
C1504 C1503 1.388 . S
C1504 C1505 1.390 . S
C1505 C1504 1.390 . S
C1505 C1506 1.394 . S
C1505 C1511 1.465 . S
C1506 C1501 1.399 . S
C1506 C1505 1.394 . S
C1506 C1507 1.516 . S
C1507 C1506 1.516 . S
C1507 C1508 1.502 . S
C1507 C1509 1.561 . S
C1507 C1510 1.526 . S
C1508 H1492 0.959 . S
C1508 H1493 0.959 . S
C1508 H1494 0.961 . S
C1508 C1507 1.502 . S
C1509 H1495 0.960 . S
C1509 H1496 0.961 . S
C1509 H1497 0.959 . S
C1509 C1507 1.561 . S
C1510 C1507 1.526 . S
C1510 C1511 1.396 . S
C1510 C1515 1.390 . S
C1511 C1505 1.465 . S
C1511 C1510 1.396 . S
C1511 C1512 1.399 . S
C1512 H1498 0.929 . S
C1512 C1511 1.399 . S
C1512 C1513 1.385 . S
C1513 H1499 0.931 . S
C1513 C1512 1.385 . S
C1513 C1514 1.389 . S
C1514 C1513 1.389 . S
C1514 C1515 1.387 . S
C1515 H1500 0.930 . S
C1515 C1510 1.390 . S
C1515 C1514 1.387 . S
H1516 C1528 0.930 . S
H1517 C1530 0.930 . S
H1518 C1531 0.930 . S
H1519 C1535 0.959 . S
H1520 C1535 0.959 . S
H1521 C1535 0.961 . S
H1522 C1536 0.960 1_556 S
H1523 C1536 0.961 . S
H1524 C1536 0.959 . S
H1525 C1539 0.929 . S
H1526 C1540 0.931 . S
H1527 C1542 0.930 . S
C1528 H1516 0.930 . S
C1528 C1529 1.399 . S
C1528 C1533 1.399 1_556 S
C1529 C1528 1.399 . S
C1529 C1530 1.376 1_556 S
C1530 H1517 0.930 . S
C1530 C1529 1.376 1_554 S
C1530 C1531 1.388 . S
C1531 H1518 0.930 . S
C1531 C1530 1.388 . S
C1531 C1532 1.390 . S
C1532 C1531 1.390 . S
C1532 C1533 1.394 . S
C1532 C1538 1.465 . S
C1533 C1528 1.399 1_554 S
C1533 C1532 1.394 . S
C1533 C1534 1.516 . S
C1534 C1533 1.516 . S
C1534 C1535 1.502 . S
C1534 C1536 1.561 . S
C1534 C1537 1.526 . S
C1535 H1519 0.959 . S
C1535 H1520 0.959 . S
C1535 H1521 0.961 . S
C1535 C1534 1.502 . S
C1536 H1522 0.960 1_554 S
C1536 H1523 0.961 . S
C1536 H1524 0.959 . S
C1536 C1534 1.561 . S
C1537 C1534 1.526 . S
C1537 C1538 1.396 . S
C1537 C1542 1.390 . S
C1538 C1532 1.465 . S
C1538 C1537 1.396 . S
C1538 C1539 1.399 . S
C1539 H1525 0.929 . S
C1539 C1538 1.399 . S
C1539 C1540 1.385 . S
C1540 H1526 0.931 . S
C1540 C1539 1.385 . S
C1540 C1541 1.389 . S
C1541 C1540 1.389 . S
C1541 C1542 1.387 . S
C1542 H1527 0.930 . S
C1542 C1537 1.390 . S
C1542 C1541 1.387 . S
H1543 C1555 0.930 . S
H1544 C1557 0.930 . S
H1545 C1558 0.930 . S
H1546 C1562 0.959 . S
H1547 C1562 0.959 . S
H1548 C1562 0.961 . S
H1549 C1563 0.960 . S
H1550 C1563 0.961 . S
H1551 C1563 0.959 . S
H1552 C1566 0.929 . S
H1553 C1567 0.931 . S
H1554 C1569 0.930 . S
C1555 H1543 0.930 . S
C1555 C1556 1.399 . S
C1555 C1560 1.399 . S
C1556 C1555 1.399 . S
C1556 C1557 1.376 . S
C1557 H1544 0.930 . S
C1557 C1556 1.376 . S
C1557 C1558 1.388 . S
C1558 H1545 0.930 . S
C1558 C1557 1.388 . S
C1558 C1559 1.390 . S
C1559 C1558 1.390 . S
C1559 C1560 1.394 . S
C1559 C1565 1.465 . S
C1560 C1555 1.399 . S
C1560 C1559 1.394 . S
C1560 C1561 1.516 . S
C1561 C1560 1.516 . S
C1561 C1562 1.502 . S
C1561 C1563 1.561 . S
C1561 C1564 1.526 . S
C1562 H1546 0.959 . S
C1562 H1547 0.959 . S
C1562 H1548 0.961 . S
C1562 C1561 1.502 . S
C1563 H1549 0.960 . S
C1563 H1550 0.961 . S
C1563 H1551 0.959 . S
C1563 C1561 1.561 . S
C1564 C1561 1.526 . S
C1564 C1565 1.396 . S
C1564 C1569 1.390 . S
C1565 C1559 1.465 . S
C1565 C1564 1.396 . S
C1565 C1566 1.399 . S
C1566 H1552 0.929 . S
C1566 C1565 1.399 . S
C1566 C1567 1.385 . S
C1567 H1553 0.931 . S
C1567 C1566 1.385 . S
C1567 C1568 1.389 . S
C1568 C1567 1.389 . S
C1568 C1569 1.387 . S
C1569 H1554 0.930 . S
C1569 C1564 1.390 . S
C1569 C1568 1.387 . S
H1570 C1582 0.930 . S
H1571 C1584 0.930 . S
H1572 C1585 0.930 . S
H1573 C1589 0.959 . S
H1574 C1589 0.959 . S
H1575 C1589 0.961 . S
H1576 C1590 0.960 . S
H1577 C1590 0.961 . S
H1578 C1590 0.959 . S
H1579 C1593 0.929 . S
H1580 C1594 0.931 . S
H1581 C1596 0.930 . S
C1582 H1570 0.930 . S
C1582 C1583 1.399 . S
C1582 C1587 1.399 . S
C1583 C1582 1.399 . S
C1583 C1584 1.376 . S
C1584 H1571 0.930 . S
C1584 C1583 1.376 . S
C1584 C1585 1.388 . S
C1585 H1572 0.930 . S
C1585 C1584 1.388 . S
C1585 C1586 1.390 . S
C1586 C1585 1.390 . S
C1586 C1587 1.394 . S
C1586 C1592 1.465 . S
C1587 C1582 1.399 . S
C1587 C1586 1.394 . S
C1587 C1588 1.516 . S
C1588 C1587 1.516 . S
C1588 C1589 1.502 . S
C1588 C1590 1.561 . S
C1588 C1591 1.526 . S
C1589 H1573 0.959 . S
C1589 H1574 0.959 . S
C1589 H1575 0.961 . S
C1589 C1588 1.502 . S
C1590 H1576 0.960 . S
C1590 H1577 0.961 . S
C1590 H1578 0.959 . S
C1590 C1588 1.561 . S
C1591 C1588 1.526 . S
C1591 C1592 1.396 . S
C1591 C1596 1.390 . S
C1592 C1586 1.465 . S
C1592 C1591 1.396 . S
C1592 C1593 1.399 1_556 S
C1593 H1579 0.929 . S
C1593 C1592 1.399 1_554 S
C1593 C1594 1.385 . S
C1594 H1580 0.931 . S
C1594 C1593 1.385 . S
C1594 C1595 1.389 . S
C1595 C1594 1.389 . S
C1595 C1596 1.387 1_554 S
C1596 H1581 0.930 . S
C1596 C1591 1.390 . S
C1596 C1595 1.387 1_556 S
H1597 C1609 0.930 . S
H1598 C1611 0.930 . S
H1599 C1612 0.930 . S
H1600 C1616 0.959 . S
H1601 C1616 0.959 . S
H1602 C1616 0.961 . S
H1603 C1617 0.960 . S
H1604 C1617 0.961 . S
H1605 C1617 0.959 . S
H1606 C1620 0.929 . S
H1607 C1621 0.931 . S
H1608 C1623 0.930 . S
C1609 H1597 0.930 . S
C1609 C1610 1.399 . S
C1609 C1614 1.399 . S
C1610 C1609 1.399 . S
C1610 C1611 1.376 . S
C1611 H1598 0.930 . S
C1611 C1610 1.376 . S
C1611 C1612 1.388 . S
C1612 H1599 0.930 . S
C1612 C1611 1.388 . S
C1612 C1613 1.390 . S
C1613 C1612 1.390 . S
C1613 C1614 1.394 . S
C1613 C1619 1.465 . S
C1614 C1609 1.399 . S
C1614 C1613 1.394 . S
C1614 C1615 1.516 . S
C1615 C1614 1.516 . S
C1615 C1616 1.502 . S
C1615 C1617 1.561 . S
C1615 C1618 1.526 . S
C1616 H1600 0.959 . S
C1616 H1601 0.959 . S
C1616 H1602 0.961 . S
C1616 C1615 1.502 . S
C1617 H1603 0.960 . S
C1617 H1604 0.961 . S
C1617 H1605 0.959 . S
C1617 C1615 1.561 . S
C1618 C1615 1.526 . S
C1618 C1619 1.396 . S
C1618 C1623 1.390 . S
C1619 C1613 1.465 . S
C1619 C1618 1.396 . S
C1619 C1620 1.399 . S
C1620 H1606 0.929 . S
C1620 C1619 1.399 . S
C1620 C1621 1.385 . S
C1621 H1607 0.931 . S
C1621 C1620 1.385 . S
C1621 C1622 1.389 . S
C1622 C1621 1.389 . S
C1622 C1623 1.387 . S
C1623 H1608 0.930 . S
C1623 C1618 1.390 . S
C1623 C1622 1.387 . S
C557 C9 1.425 . S
C569 C111 1.433 . S
C584 C77 1.456 . S
C596 C43 1.469 . S
C611 C247 1.479 . S
C623 C145 1.504 . S
C638 C179 1.479 . S
C650 C213 1.504 . S
C665 C281 1.421 . S
C677 C383 1.427 . S
C692 C315 1.491 . S
C704 C349 1.499 . S
C719 C519 1.445 . S
C731 C417 1.483 . S
C746 C451 1.424 . S
C758 C485 1.426 . S
C773 C209 1.498 . S
C785 C5 1.501 . S
C800 C243 1.502 . S
C812 C39 1.503 . S
C827 C141 1.483 . S
C839 C73 1.478 . S
C854 C175 1.482 . S
C866 C107 1.478 . S
C881 C481 1.503 . S
C893 C277 1.502 . S
C908 C515 1.486 . S
C920 C311 1.481 . S
C935 C413 1.479 . S
C947 C345 1.484 . S
C962 C379 1.502 . S
C974 C447 1.500 . S
C989 C2 1.519 . S
C1001 C70 1.550 . S
C1016 C36 1.521 . S
C1028 C104 1.547 . S
C1043 C138 1.518 . S
C1055 C206 1.544 . S
C1070 C172 1.524 . S
C1082 C240 1.555 . S
C1097 C274 1.528 . S
C1109 C342 1.550 . S
C1124 C308 1.553 . S
C1136 C376 1.524 . S
C1151 C410 1.547 . S
C1163 C478 1.518 . S
C1178 C444 1.541 . S
C1190 C512 1.519 . S
C1205 C530 1.350 . S
C1217 C33 1.354 . S
C1232 C67 1.351 . S
C1244 C496 1.350 . S
C1259 C101 1.352 . S
C1271 C462 1.350 . S
C1286 C428 1.353 . S
C1298 C135 1.357 . S
C1313 C394 1.350 . S
C1325 C169 1.353 . S
C1340 C203 1.352 . S
C1352 C360 1.357 . S
C1367 C237 1.359 . S
C1379 C326 1.352 . S
C1394 C271 1.359 . S
C1406 C292 1.353 . S
C1421 C305 1.352 . S
C1433 C258 1.354 . S
C1448 C224 1.355 . S
C1460 C339 1.353 . S
C1475 C190 1.354 . S
C1487 C373 1.352 . S
C1502 C407 1.360 . S
C1514 C156 1.361 . S
C1529 C441 1.359 . S
C1541 C122 1.353 . S
C1556 C88 1.361 . S
C1568 C475 1.358 . S
C1583 C54 1.360 . S
C1595 C509 1.359 . S
C1610 C20 1.350 . S
C1622 C543 1.354 . S
