# Generated by pormake.
# Topology unc, (4)-cn, num edge types: 1
# Building blocks:
#     Node 0, Type 0, BuildingBlock: UXUYUI_clean_sbu_0, # of connection points: 4
#     Node 1, Type 0, BuildingBlock: UXUYUI_clean_sbu_0, # of connection points: 4
#     Node 2, Type 0, BuildingBlock: UXUYUI_clean_sbu_0, # of connection points: 4
#     Node 3, Type 0, BuildingBlock: UXUYUI_clean_sbu_0, # of connection points: 4
#     Edge 4, Type (0, 0), BuildingBlock: FUNLAD_clean_linker_1, # of connection points: 2
#     Edge 5, Type (0, 0), BuildingBlock: FUNLAD_clean_linker_1, # of connection points: 2
#     Edge 6, Type (0, 0), BuildingBlock: FUNLAD_clean_linker_1, # of connection points: 2
#     Edge 7, Type (0, 0), BuildingBlock: FUNLAD_clean_linker_1, # of connection points: 2
#     Edge 8, Type (0, 0), BuildingBlock: FUNLAD_clean_linker_1, # of connection points: 2
#     Edge 9, Type (0, 0), BuildingBlock: FUNLAD_clean_linker_1, # of connection points: 2
#     Edge 10, Type (0, 0), BuildingBlock: FUNLAD_clean_linker_1, # of connection points: 2
#     Edge 11, Type (0, 0), BuildingBlock: FUNLAD_clean_linker_1, # of connection points: 2
# Relax obj value: 0.184
# Max RMSD: 0.213
# Mean RMSD: 0.213
data_MOF--net-unc--node1-UXUYUI_clean_sbu_0--edge1-FUNLAD_clean_linker_1
_symmetry_space_group_name_H-M    P1
_symmetry_Int_Tables_number       1
_symmetry_cell_setting            triclinic
loop_
_symmetry_equiv_pos_as_xyz
'x, y, z'
_cell_length_a     44.387817
_cell_length_b     44.354212
_cell_length_c     33.498907
_cell_angle_alpha  90.006737
_cell_angle_beta   89.994723
_cell_angle_gamma 89.997464
loop_
_atom_site_label
_atom_site_type_symbol
_atom_site_fract_x
_atom_site_fract_y
_atom_site_fract_z
_atom_type_partial_charge
Li0 Li 0.02448 0.68419 0.00982 0.0
Li1 Li 0.98774 0.64597 0.02962 0.0
Li2 Li 0.00952 0.64724 0.96059 0.0
Li3 Li 0.97201 0.68488 0.98078 0.0
C4 C 0.05872 0.63603 0.02664 0.0
N5 N 0.11648 0.62978 0.05631 0.0
C6 C 0.06333 0.62427 0.06486 0.0
C7 C 0.08351 0.64419 0.00331 0.0
C8 C 0.0927 0.62139 0.07938 0.0
C9 C 0.11252 0.641 0.01889 0.0
C10 C 0.97045 0.6993 0.07083 0.0
C11 C 0.92458 0.71253 0.10532 0.0
N12 N 0.94076 0.71816 0.13898 0.0
C13 C 0.98665 0.70574 0.10557 0.0
C14 C 0.93919 0.70317 0.07052 0.0
C15 C 0.97123 0.71501 0.13979 0.0
C16 C 0.06393 0.73372 0.00613 0.0
N17 N 0.0557 0.70979 0.02898 0.0
C18 C 0.0892 0.7253 0.08096 0.0
C19 C 0.06783 0.70526 0.06576 0.0
C20 C 0.09805 0.75037 0.05804 0.0
C21 C 0.08512 0.7544 0.0202 0.0
H22 H 0.05351 0.73712 0.9773 0.0
H23 H 0.06035 0.6865 0.08377 0.0
C24 C 0.95892 0.59514 0.06413 0.0
N25 N 0.97542 0.62024 0.07225 0.0
C26 C 0.95105 0.57525 0.0947 0.0
C27 C 0.97806 0.60686 0.1413 0.0
C28 C 0.98503 0.62636 0.10993 0.0
C29 C 0.96111 0.58073 0.13367 0.0
H30 H 0.95239 0.59015 0.03379 0.0
H31 H 0.99891 0.6459 0.11545 0.0
C32 C 0.02064 0.69584 0.91546 0.0
N33 N 0.0391 0.70319 0.83728 0.0
C34 C -0.00054 0.70132 0.88545 0.0
C35 C 0.05124 0.69456 0.90579 0.0
C36 C 0.00923 0.70485 0.84608 0.0
C37 C 0.06011 0.6982 0.86607 0.0
C38 C 0.93764 0.63163 0.97278 0.0
C39 C 0.92847 0.61647 0.93826 0.0
C40 C 0.91666 0.63761 0.00285 0.0
C41 C 0.89831 0.60801 0.93415 0.0
C42 C 0.88672 0.62877 0.99765 0.0
N43 N 0.87822 0.61432 0.96366 0.0
C44 C 0.04502 0.60358 0.91951 0.0
C45 C 0.00437 0.62444 0.88295 0.0
C46 C 0.05204 0.58428 0.88785 0.0
N47 N 0.0214 0.62296 0.91657 0.0
C48 C 0.01061 0.60568 0.8506 0.0
C49 C 0.03429 0.58483 0.85303 0.0
H50 H 0.05803 0.60262 0.94673 0.0
H51 H 0.98544 0.63973 0.88162 0.0
C52 C 0.94116 0.73965 0.97625 0.0
N53 N 0.94067 0.71076 0.96277 0.0
C54 C 0.92002 0.76051 0.96248 0.0
C55 C 0.89819 0.72147 0.92127 0.0
C56 C 0.9199 0.70144 0.93561 0.0
C57 C 0.8981 0.75148 0.93482 0.0
H58 H 0.9583 0.74657 0.9973 0.0
H59 H 0.9207 0.67876 0.92403 0.0
O60 O 0.03011 0.63935 0.01208 0.0
O61 O 0.98527 0.69049 0.0369 0.0
O62 O 0.01146 0.69204 0.95413 0.0
O63 O 0.96704 0.64039 0.97704 0.0
H64 H 0.04447 0.61749 0.08317 0.0
H65 H 0.08036 0.65298 0.97354 0.0
H66 H 0.09658 0.61247 0.10899 0.0
H67 H 0.13189 0.64741 0.00123 0.0
H68 H 0.90039 0.71547 0.1055 0.0
H69 H 0.01086 0.70335 0.10627 0.0
H70 H 0.9263 0.69931 0.04365 0.0
H71 H 0.98349 0.71977 0.16698 0.0
H72 H 0.09767 0.72162 0.11082 0.0
H73 H 0.0911 0.7736 0.00184 0.0
H74 H 0.93807 0.55524 0.08773 0.0
H75 H 0.98592 0.6122 0.17106 0.0
H76 H 0.97571 0.70252 0.89237 0.0
H77 H 0.06798 0.69091 0.9287 0.0
H78 H 0.99306 0.70887 0.82251 0.0
H79 H 0.08371 0.69713 0.85816 0.0
H80 H 0.94442 0.61136 0.91483 0.0
H81 H 0.92353 0.64851 0.03017 0.0
H82 H 0.89087 0.59641 0.90751 0.0
H83 H 0.87027 0.63328 0.02071 0.0
H84 H 0.07099 0.56915 0.89099 0.0
H85 H 0.99643 0.60687 0.82432 0.0
H86 H 0.92089 0.78354 0.97319 0.0
H87 H 0.8825 0.71371 0.8988 0.0
Li88 Li 0.35486 0.98871 0.28288 0.0
Li89 Li 0.31461 0.02353 0.2606 0.0
Li90 Li 0.31674 0.97206 0.2345 0.0
Li91 Li 0.35368 0.00823 0.2164 0.0
C92 C 0.29699 0.99047 0.32625 0.0
N93 N 0.26936 0.00321 0.39819 0.0
C94 C 0.30896 0.0125 0.35152 0.0
C95 C 0.27095 0.97494 0.33751 0.0
C96 C 0.29465 0.01863 0.38775 0.0
C97 C 0.25734 0.98167 0.37405 0.0
C98 C 0.37534 0.05475 0.25333 0.0
C99 C 0.38029 0.1009 0.21581 0.0
N100 N 0.41046 0.10076 0.22291 0.0
C101 C 0.40636 0.05515 0.26043 0.0
C102 C 0.36214 0.07785 0.23097 0.0
C103 C 0.42374 0.07857 0.24473 0.0
C104 C 0.41067 0.97754 0.31734 0.0
N105 N 0.38067 0.97631 0.32514 0.0
C106 C 0.39028 0.95902 0.39147 0.0
C107 C 0.37017 0.96635 0.36091 0.0
C108 C 0.42141 0.96167 0.38506 0.0
C109 C 0.43158 0.97025 0.3469 0.0
H110 H 0.41834 0.98427 0.28803 0.0
H111 H 0.34626 0.96421 0.36595 0.0
C112 C 0.25831 0.05217 0.27157 0.0
N113 N 0.2884 0.05462 0.27826 0.0
C114 C 0.23856 0.07416 0.28609 0.0
C115 C 0.28128 0.10082 0.31362 0.0
C116 C 0.30013 0.07828 0.29881 0.0
C117 C 0.25006 0.09878 0.30781 0.0
H118 H 0.24966 0.03301 0.25519 0.0
H119 H 0.32411 0.07944 0.30417 0.0
C120 C 0.36853 0.93703 0.24188 0.0
N121 N 0.38334 0.87819 0.26061 0.0
C122 C 0.39184 0.92244 0.22156 0.0
C123 C 0.35278 0.92171 0.27183 0.0
C124 C 0.39897 0.89268 0.23143 0.0
C125 C 0.36061 0.89197 0.28082 0.0
C126 C 0.3038 0.00338 0.16564 0.0
C127 C 0.32158 0.98246 0.14514 0.0
C128 C 0.27961 0.01714 0.14617 0.0
C129 C 0.31483 0.97567 0.10543 0.0
C130 C 0.27359 0.00975 0.10641 0.0
N131 N 0.29117 0.98934 0.08704 0.0
C132 C 0.263 0.93887 0.22622 0.0
C133 C 0.30489 0.91742 0.1928 0.0
C134 C 0.24429 0.91574 0.2125 0.0
N135 N 0.29267 0.93923 0.2163 0.0
C136 C 0.28711 0.8938 0.17868 0.0
C137 C 0.25636 0.8929 0.1881 0.0
H138 H 0.25383 0.95671 0.24457 0.0
H139 H 0.32838 0.91847 0.18453 0.0
C140 C 0.40775 0.0086 0.17392 0.0
N141 N 0.37968 0.02075 0.17429 0.0
C142 C 0.4276 0.01509 0.14281 0.0
C143 C 0.38938 0.04691 0.11331 0.0
C144 C 0.37031 0.03992 0.14516 0.0
C145 C 0.41839 0.03439 0.11178 0.0
H146 H 0.41449 0.99336 0.1975 0.0
H147 H 0.34787 0.04937 0.1463 0.0
O148 O 0.31027 0.98456 0.29025 0.0
O149 O 0.358 0.03163 0.26756 0.0
O150 O 0.36154 0.96624 0.23247 0.0
O151 O 0.30979 0.01045 0.20461 0.0
H152 H 0.3291 0.02474 0.34319 0.0
H153 H 0.26141 0.95781 0.3183 0.0
H154 H 0.30364 0.03565 0.40758 0.0
H155 H 0.23722 0.96979 0.3832 0.0
H156 H 0.37041 0.1188 0.19823 0.0
H157 H 0.41694 0.03755 0.27778 0.0
H158 H 0.3382 0.07771 0.22484 0.0
H159 H 0.44779 0.0791 0.24986 0.0
H160 H 0.38152 0.95189 0.42014 0.0
H161 H 0.45526 0.97141 0.33958 0.0
H162 H 0.21475 0.0719 0.27991 0.0
H163 H 0.291 0.11945 0.33011 0.0
H164 H 0.40426 0.934 0.19833 0.0
H165 H 0.33469 0.93252 0.28795 0.0
H166 H 0.41694 0.88111 0.2159 0.0
H167 H 0.3486 0.87985 0.30389 0.0
H168 H 0.34045 0.97162 0.15961 0.0
H169 H 0.26562 0.03337 0.16166 0.0
H170 H 0.32841 0.95954 0.08921 0.0
H171 H 0.25493 0.02024 0.09097 0.0
H172 H 0.22086 0.9157 0.22138 0.0
H173 H 0.29721 0.87664 0.15994 0.0
H174 H 0.44935 0.00411 0.14255 0.0
H175 H 0.38141 0.06168 0.08982 0.0
Li176 Li 0.01263 0.35496 0.53268 0.0
Li177 Li 0.97338 0.32006 0.51785 0.0
Li178 Li 0.02664 0.31388 0.49019 0.0
Li179 Li 0.99261 0.35636 0.46779 0.0
C180 C 0.01693 0.30879 0.58552 0.0
N181 N 0.02759 0.30466 0.66653 0.0
C182 C 0.99628 0.32085 0.61265 0.0
C183 C 0.04289 0.29444 0.5995 0.0
C184 C 0.00212 0.3186 0.65352 0.0
C185 C 0.04789 0.29262 0.64061 0.0
C186 C 0.94106 0.37245 0.51052 0.0
C187 C 0.89594 0.36688 0.47103 0.0
N188 N 0.8817 0.38721 0.49487 0.0
C189 C 0.92595 0.39325 0.53466 0.0
C190 C 0.9259 0.35911 0.47849 0.0
C191 C 0.89597 0.40043 0.52625 0.0
C192 C 0.0113 0.40645 0.58021 0.0
N193 N 0.02732 0.38078 0.57412 0.0
C194 C 0.06106 0.39364 0.62709 0.0
C195 C 0.05217 0.37433 0.59628 0.0
C196 C 0.04421 0.41973 0.63508 0.0
C197 C 0.0194 0.4264 0.61049 0.0
H198 H 0.99221 0.4115 0.56136 0.0
H199 H 0.06505 0.35418 0.59016 0.0
C200 C 0.93795 0.26803 0.52568 0.0
N201 N 0.94025 0.29733 0.5371 0.0
C202 C 0.91513 0.24979 0.5412 0.0
C203 C 0.89723 0.29242 0.57943 0.0
C204 C 0.92047 0.30976 0.56335 0.0
C205 C 0.89467 0.26191 0.569 0.0
H206 H 0.95412 0.25875 0.50487 0.0
H207 H 0.92308 0.33298 0.57248 0.0
C208 C 0.05594 0.37883 0.49145 0.0
N209 N 0.09594 0.42347 0.5136 0.0
C210 C 0.0479 0.40916 0.48764 0.0
C211 C 0.08435 0.37117 0.50624 0.0
C212 C 0.06843 0.43141 0.4991 0.0
C213 C 0.10426 0.39409 0.51733 0.0
C214 C 0.98041 0.29895 0.42636 0.0
C215 C 0.00328 0.29521 0.39812 0.0
C216 C 0.95135 0.2886 0.41788 0.0
C217 C 0.99658 0.28168 0.36152 0.0
C218 C 0.94555 0.27519 0.38094 0.0
N219 N 0.96809 0.27205 0.35374 0.0
C220 C 0.04934 0.25533 0.48181 0.0
C221 C 0.07957 0.29316 0.45192 0.0
C222 C 0.0686 0.23283 0.46771 0.0
N223 N 0.05505 0.28473 0.47347 0.0
C224 C 0.09943 0.27141 0.4372 0.0
C225 C 0.09375 0.24066 0.44451 0.0
H226 H 0.02953 0.24937 0.4989 0.0
H227 H 0.08341 0.31676 0.4456 0.0
C228 C 0.96804 0.40758 0.42752 0.0
N229 N 0.98414 0.3817 0.42289 0.0
C230 C 0.96427 0.42741 0.39554 0.0
C231 C 0.99461 0.39425 0.35487 0.0
C232 C 0.99757 0.37495 0.38755 0.0
C233 C 0.97772 0.42081 0.35858 0.0
H234 H 0.95902 0.41355 0.45637 0.0
H235 H 0.01156 0.35516 0.38508 0.0
O236 O 0.01182 0.31105 0.54542 0.0
O237 O 0.97031 0.36493 0.51893 0.0
O238 O 0.03587 0.35677 0.48131 0.0
O239 O 0.98664 0.3116 0.46272 0.0
H240 H 0.97622 0.33224 0.60223 0.0
H241 H 0.05906 0.285 0.57877 0.0
H242 H 0.98645 0.32802 0.67488 0.0
H243 H 0.06793 0.28168 0.65191 0.0
H244 H 0.88401 0.35678 0.44625 0.0
H245 H 0.9372 0.40361 0.55981 0.0
H246 H 0.93719 0.34321 0.45935 0.0
H247 H 0.88402 0.41646 0.54473 0.0
H248 H 0.08063 0.388 0.6449 0.0
H249 H 0.00642 0.44684 0.61413 0.0
H250 H 0.91361 0.22662 0.53133 0.0
H251 H 0.88184 0.30257 0.60065 0.0
H252 H 0.02591 0.41542 0.47642 0.0
H253 H 0.09079 0.34777 0.50966 0.0
H254 H 0.06247 0.45498 0.49658 0.0
H255 H 0.12627 0.38851 0.52907 0.0
H256 H 0.02592 0.30289 0.40422 0.0
H257 H 0.93346 0.2908 0.43963 0.0
H258 H 0.01404 0.27883 0.33931 0.0
H259 H 0.92315 0.26718 0.37394 0.0
H260 H 0.06355 0.20944 0.47424 0.0
H261 H 0.11891 0.27882 0.42049 0.0
H262 H 0.95215 0.44824 0.40048 0.0
H263 H 0.00589 0.38874 0.32713 0.0
Li264 Li 0.64461 0.01464 0.78258 0.0
Li265 Li 0.68038 0.97469 0.76599 0.0
Li266 Li 0.68688 0.026 0.74066 0.0
Li267 Li 0.64698 0.99347 0.71521 0.0
C268 C 0.71257 0.02635 0.81054 0.0
N269 N 0.76425 0.05594 0.83451 0.0
C270 C 0.7397 0.01057 0.81404 0.0
C271 C 0.71167 0.05713 0.81944 0.0
C272 C 0.76559 0.02595 0.8262 0.0
C273 C 0.73807 0.0717 0.83142 0.0
C274 C 0.62967 0.94615 0.78299 0.0
C275 C 0.62934 0.89178 0.78223 0.0
N276 N 0.61977 0.89168 0.82081 0.0
C277 C 0.61973 0.94553 0.82259 0.0
C278 C 0.63439 0.91908 0.76256 0.0
C279 C 0.61488 0.91775 0.84119 0.0
C280 C 0.58803 0.02418 0.81814 0.0
N281 N 0.61811 0.0284 0.82317 0.0
C282 C 0.61022 0.04745 0.88901 0.0
C283 C 0.62946 0.04011 0.85749 0.0
C284 C 0.57913 0.04238 0.88531 0.0
C285 C 0.56798 0.03134 0.84879 0.0
H286 H 0.57971 0.01453 0.79063 0.0
H287 H 0.65351 0.04289 0.86085 0.0
C288 C 0.72029 0.92479 0.76351 0.0
N289 N 0.70101 0.94069 0.78696 0.0
C290 C 0.73664 0.90074 0.77944 0.0
C291 C 0.71255 0.90959 0.84312 0.0
C292 C 0.69704 0.93374 0.82613 0.0
C293 C 0.73301 0.89312 0.81991 0.0
H294 H 0.7233 0.93107 0.7326 0.0
H295 H 0.68207 0.94723 0.84428 0.0
C296 C 0.62153 0.05627 0.73669 0.0
N297 N 0.57408 0.09505 0.75126 0.0
C298 C 0.59324 0.05061 0.71997 0.0
C299 C 0.62574 0.08172 0.76066 0.0
C300 C 0.56953 0.07049 0.7277 0.0
C301 C 0.60144 0.10102 0.76775 0.0
C302 C 0.69465 0.97885 0.67296 0.0
C303 C 0.70407 -0.00014 0.64448 0.0
C304 C 0.68769 0.94944 0.66115 0.0
C305 C 0.70618 0.99111 0.60451 0.0
C306 C 0.69003 0.94159 0.62088 0.0
N307 N 0.69915 0.96242 0.59363 0.0
C308 C 0.74502 0.04617 0.72095 0.0
C309 C 0.70696 0.08332 0.71457 0.0
C310 C 0.7666 0.06609 0.70609 0.0
N311 N 0.71589 0.05507 0.72479 0.0
C312 C 0.72778 0.10399 0.69949 0.0
C313 C 0.75813 0.09538 0.69491 0.0
H314 H 0.75132 0.02331 0.7285 0.0
H315 H 0.6835 0.08954 0.71701 0.0
C316 C 0.60474 0.96093 0.66759 0.0
N317 N 0.62423 0.98454 0.66875 0.0
C318 C 0.58716 0.95587 0.63362 0.0
C319 C 0.61051 0.99922 0.60266 0.0
C320 C 0.62739 0.00357 0.63726 0.0
C321 C 0.5897 0.9755 0.60078 0.0
H322 H 0.60252 0.94629 0.6932 0.0
H323 H 0.64274 0.02244 0.63933 0.0
O324 O 0.6871 0.01185 0.79796 0.0
O325 O 0.63489 0.9731 0.7644 0.0
O326 O 0.64491 0.03683 0.73001 0.0
O327 O 0.69192 0.98711 0.71214 0.0
H328 H 0.74084 0.98678 0.80713 0.0
H329 H 0.69089 0.0697 0.81664 0.0
H330 H 0.78677 0.01407 0.82888 0.0
H331 H 0.73775 0.09555 0.83815 0.0
H332 H 0.63308 0.87066 0.76686 0.0
H333 H 0.6161 0.96622 0.83895 0.0
H334 H 0.64217 0.91915 0.73197 0.0
H335 H 0.60732 0.91693 0.87187 0.0
H336 H 0.6197 0.05603 0.91656 0.0
H337 H 0.54418 0.02781 0.84377 0.0
H338 H 0.75176 0.88823 0.76024 0.0
H339 H 0.70923 0.90435 0.87441 0.0
H340 H 0.58951 0.03094 0.70154 0.0
H341 H 0.64743 0.08631 0.77406 0.0
H342 H 0.54749 0.06633 0.71509 0.0
H343 H 0.60432 0.1207 0.78644 0.0
H344 H 0.70936 0.02277 0.65301 0.0
H345 H 0.68029 0.93294 0.68279 0.0
H346 H 0.7133 0.00717 0.58211 0.0
H347 H 0.68455 0.91896 0.61129 0.0
H348 H 0.78965 0.05846 0.70266 0.0
H349 H 0.71972 0.12592 0.69038 0.0
H350 H 0.5719 0.93686 0.63326 0.0
H351 H 0.61309 0.01481 0.57799 0.0
H352 H 0.93344 0.54558 0.16298 0.0
C353 C 0.95414 0.55857 0.16543 0.0
H354 H 0.99475 0.56438 0.19749 0.0
H355 H 0.95479 0.51044 0.36153 0.0
H356 H 0.9592 0.56345 0.37792 0.0
H357 H 0.96655 0.60149 0.32509 0.0
H358 H 0.96981 0.58668 0.25556 0.0
C359 C 0.97362 0.55218 0.19497 0.0
C360 C 0.96686 0.52916 0.22604 0.0
C361 C 0.96435 0.53826 0.26648 0.0
C362 C 0.95953 0.51639 0.29685 0.0
C363 C 0.958 0.52607 0.33712 0.0
C364 C 0.96054 0.55647 0.347 0.0
C365 C 0.96471 0.57788 0.31727 0.0
C366 C 0.96662 0.56903 0.27746 0.0
H367 H 0.99516 0.44122 0.30307 0.0
C368 C 0.97681 0.4422 0.32457 0.0
H369 H 0.93584 0.46389 0.33952 0.0
H370 H 0.97359 0.50326 0.15195 0.0
H371 H 0.96573 0.45077 0.13515 0.0
H372 H 0.95198 0.41377 0.18703 0.0
H373 H 0.94685 0.42903 0.25624 0.0
C374 C 0.95472 0.46253 0.31901 0.0
C375 C 0.95688 0.48547 0.28667 0.0
C376 C 0.95787 0.47653 0.24602 0.0
C377 C 0.9639 0.49823 0.21579 0.0
C378 C 0.96741 0.48816 0.1759 0.0
C379 C 0.96322 0.45798 0.16585 0.0
C380 C 0.95562 0.43712 0.19507 0.0
C381 C 0.95297 0.44615 0.23473 0.0
H382 H 0.43298 0.94543 0.44567 0.0
C383 C 0.44223 0.95595 0.41901 0.0
H384 H 0.48065 0.97796 0.39527 0.0
H385 H 0.52974 0.01699 0.56365 0.0
H386 H 0.51164 0.06463 0.53775 0.0
H387 H 0.48307 0.06679 0.47467 0.0
H388 H 0.47223 0.02128 0.43735 0.0
C389 C 0.47102 0.96542 0.41993 0.0
C390 C 0.48906 0.96373 0.45724 0.0
C391 C 0.49578 0.99066 0.47821 0.0
C392 C 0.51277 0.98949 0.51413 0.0
C393 C 0.5179 0.01661 0.53545 0.0
C394 C 0.50739 0.04414 0.52111 0.0
C395 C 0.49127 0.04535 0.48564 0.0
C396 C 0.48531 0.01901 0.46444 0.0
H397 H 0.57867 0.98336 0.53732 0.0
C398 C 0.57075 0.97257 0.56454 0.0
H399 H 0.53383 0.94983 0.59124 0.0
H400 H 0.48116 0.90804 0.42342 0.0
H401 H 0.499 0.86028 0.44964 0.0
H402 H 0.52827 0.85823 0.51219 0.0
H403 H 0.53999 0.90397 0.54884 0.0
C404 C 0.54306 0.96028 0.56464 0.0
C405 C 0.52375 0.96142 0.52837 0.0
C406 C 0.51663 0.93445 0.50776 0.0
C407 C 0.49943 0.9356 0.47196 0.0
C408 C 0.49354 0.90841 0.45123 0.0
C409 C 0.5038 0.88085 0.46583 0.0
C410 C 0.52031 0.8797 0.50102 0.0
C411 C 0.52683 0.90612 0.52179 0.0
H412 H 0.02736 0.56879 0.79128 0.0
C413 C 0.03885 0.56366 0.81918 0.0
H414 H 0.06376 0.53014 0.84994 0.0
H415 H 0.00897 0.42665 0.74191 0.0
H416 H 0.98775 0.41491 0.80684 0.0
H417 H 0.9957 0.44889 0.86419 0.0
H418 H 0.02501 0.49467 0.85707 0.0
C419 C 0.05369 0.5373 0.82201 0.0
C420 C 0.05225 0.51511 0.78874 0.0
C421 C 0.03526 0.4883 0.79361 0.0
C422 C 0.0303 0.46894 0.76045 0.0
C423 C 0.01309 0.44237 0.76601 0.0
C424 C 0.00085 0.43531 0.80314 0.0
C425 C 0.00535 0.45442 0.83543 0.0
C426 C 0.02228 0.48065 0.83091 0.0
H427 H 0.076 0.43793 0.68023 0.0
C428 C 0.0531 0.43954 0.66887 0.0
H429 H 0.00997 0.45843 0.67889 0.0
H430 H 0.0902 0.56183 0.77121 0.0
H431 H 0.11142 0.57368 0.70624 0.0
H432 H 0.10065 0.54159 0.6478 0.0
H433 H 0.06902 0.49728 0.65401 0.0
C434 C 0.03359 0.45816 0.6872 0.0
C435 C 0.04229 0.47645 0.72252 0.0
C436 C 0.06047 0.50253 0.71805 0.0
C437 C 0.06584 0.52163 0.75141 0.0
C438 C 0.08467 0.54711 0.74651 0.0
C439 C 0.09712 0.55407 0.70947 0.0
C440 C 0.09112 0.53595 0.67659 0.0
C441 C 0.07299 0.51049 0.68062 0.0
H442 H 0.42609 0.04565 0.04827 0.0
C443 C 0.43739 0.03982 0.07603 0.0
H444 H 0.47967 0.03158 0.10321 0.0
H445 H 0.53952 0.9802 0.94697 0.0
H446 H 0.53444 0.93495 0.98693 0.0
H447 H 0.50642 0.93576 0.05051 0.0
H448 H 0.48349 0.98186 0.07463 0.0
C449 C 0.46755 0.03699 0.07601 0.0
C450 C 0.48487 0.03715 0.03802 0.0
C451 C 0.49801 0.00993 0.02427 0.0
C452 C 0.51372 0.00935 0.98733 0.0
C453 C 0.52692 0.98189 0.97453 0.0
C454 C 0.52426 0.95572 0.99723 0.0
C455 C 0.50852 0.95619 0.03304 0.0
C456 C 0.4955 0.98287 0.04655 0.0
H457 H 0.56878 0.06049 0.94541 0.0
C458 C 0.55952 0.04761 0.92064 0.0
H459 H 0.52317 0.01981 0.90264 0.0
H460 H 0.46503 0.09369 0.05774 0.0
H461 H 0.46906 0.13877 0.01703 0.0
H462 H 0.49389 0.13715 0.95116 0.0
H463 H 0.51522 0.09055 0.92585 0.0
C464 C 0.5323 0.03474 0.92524 0.0
C465 C 0.51617 0.03597 0.96411 0.0
C466 C 0.50313 0.06324 0.9779 0.0
C467 C 0.48785 0.06394 0.01523 0.0
C468 C 0.47604 0.09169 0.02904 0.0
C469 C 0.47833 0.11777 0.00607 0.0
C470 C 0.49239 0.11687 0.96904 0.0
C471 C 0.50467 0.09 0.95494 0.0
H472 H 0.24947 0.84712 0.16356 0.0
C473 C 0.23788 0.86772 0.17226 0.0
H474 H 0.19563 0.88996 0.17353 0.0
H475 H 0.1756 0.77795 0.04364 0.0
H476 H 0.2113 0.80465 0.00179 0.0
H477 H 0.23701 0.85036 0.02631 0.0
H478 H 0.22764 0.86923 0.09306 0.0
C479 C 0.20804 0.86969 0.1659 0.0
C480 C 0.19075 0.84376 0.1495 0.0
C481 C 0.19554 0.83386 0.1097 0.0
C482 C 0.17956 0.80843 0.09482 0.0
C483 C 0.18611 0.79792 0.05584 0.0
C484 C 0.20672 0.81291 0.03159 0.0
C485 C 0.22128 0.83857 0.04545 0.0
C486 C 0.21583 0.84904 0.08398 0.0
H487 H 0.11814 0.79595 0.05979 0.0
C488 C 0.11904 0.77371 0.07343 0.0
H489 H 0.14103 0.74695 0.11703 0.0
H490 H 0.17649 0.85677 0.22713 0.0
H491 H 0.13949 0.83111 0.26817 0.0
H492 H 0.11016 0.78841 0.2414 0.0
H493 H 0.11778 0.77097 0.17356 0.0
C494 C 0.1391 0.76885 0.10284 0.0
C495 C 0.15768 0.79397 0.11904 0.0
C496 C 0.15281 0.80396 0.15873 0.0
C497 C 0.16941 0.82884 0.17399 0.0
C498 C 0.16428 0.83818 0.21386 0.0
C499 C 0.14313 0.82363 0.23778 0.0
C500 C 0.12664 0.79958 0.22273 0.0
C501 C 0.13129 0.78978 0.1837 0.0
H502 H 0.24106 0.14441 0.33158 0.0
C503 C 0.23055 0.12292 0.32444 0.0
H504 H 0.18981 0.09801 0.3273 0.0
H505 H 0.17056 0.21158 0.45543 0.0
H506 H 0.20896 0.18689 0.49511 0.0
H507 H 0.23509 0.14161 0.46999 0.0
H508 H 0.22339 0.12116 0.40471 0.0
C509 C 0.20123 0.11915 0.3333 0.0
C510 C 0.18318 0.14426 0.3506 0.0
C511 C 0.18937 0.15509 0.38962 0.0
C512 C 0.17326 0.18031 0.40491 0.0
C513 C 0.18118 0.19176 0.44297 0.0
C514 C 0.20334 0.17792 0.46599 0.0
C515 C 0.21813 0.1525 0.45179 0.0
C516 C 0.21132 0.14111 0.41411 0.0
H517 H 0.11125 0.19394 0.44219 0.0
C518 C 0.11337 0.21619 0.42882 0.0
H519 H 0.13368 0.24078 0.38173 0.0
H520 H 0.16524 0.12857 0.27523 0.0
H521 H 0.12523 0.15183 0.2367 0.0
H522 H 0.09586 0.19421 0.26427 0.0
H523 H 0.10641 0.21373 0.33042 0.0
C524 C 0.13245 0.21965 0.39794 0.0
C525 C 0.14999 0.19371 0.38192 0.0
C526 C 0.14334 0.1824 0.34331 0.0
C527 C 0.15999 0.15769 0.32762 0.0
C528 C 0.15311 0.14711 0.28877 0.0
C529 C 0.13022 0.16026 0.2663 0.0
C530 C 0.1137 0.18414 0.2818 0.0
C531 C 0.12005 0.19517 0.31982 0.0
H532 H 0.80209 0.10496 0.66654 0.0
C533 C 0.78113 0.11531 0.67636 0.0
H534 H 0.75808 0.15705 0.68202 0.0
H535 H 0.87991 0.23131 0.666 0.0
H536 H 0.86976 0.23715 0.73667 0.0
H537 H 0.82814 0.2094 0.76878 0.0
H538 H 0.79654 0.17546 0.73039 0.0
C539 C 0.7776 0.14512 0.67067 0.0
C540 C 0.80144 0.16314 0.65062 0.0
C541 C 0.81919 0.18344 0.67326 0.0
C542 C 0.84285 0.19983 0.65458 0.0
C543 C 0.86109 0.21895 0.67832 0.0
C544 C 0.85564 0.22236 0.71903 0.0
C545 C 0.83224 0.20671 0.73712 0.0
C546 C 0.81424 0.18734 0.71471 0.0
H547 H 0.8511 0.25531 0.59993 0.0
C548 C 0.87058 0.24356 0.58781 0.0
H549 H 0.89197 0.20102 0.58222 0.0
H550 H 0.76982 0.12805 0.59783 0.0
H551 H 0.77983 0.1223 0.5271 0.0
H552 H 0.82126 0.15026 0.49485 0.0
H553 H 0.85284 0.18426 0.53315 0.0
C554 C 0.87266 0.21359 0.59308 0.0
C555 C 0.84821 0.19635 0.61307 0.0
C556 C 0.83034 0.17617 0.59039 0.0
C557 C 0.80674 0.15974 0.60909 0.0
C558 C 0.78855 0.14052 0.58542 0.0
C559 C 0.79392 0.13715 0.54469 0.0
C560 C 0.81722 0.15291 0.52653 0.0
C561 C 0.83522 0.17231 0.5489 0.0
H562 H 0.74006 0.85645 0.86369 0.0
C563 C 0.7503 0.86837 0.83877 0.0
H564 H 0.78983 0.87389 0.80431 0.0
H565 H 0.83507 0.79928 0.96692 0.0
H566 H 0.8197 0.8435 0.0043 0.0
H567 H 0.79499 0.88631 0.97056 0.0
H568 H 0.78476 0.88477 0.89959 0.0
C569 C 0.77885 0.86187 0.82851 0.0
C570 C 0.79612 0.83748 0.84871 0.0
C571 C 0.8034 0.83958 0.88991 0.0
C572 C 0.81939 0.81578 0.90889 0.0
C573 C 0.82441 0.81741 0.9506 0.0
C574 C 0.81549 0.84256 0.97249 0.0
C575 C 0.80145 0.86659 0.95354 0.0
C576 C 0.79547 0.86528 0.91276 0.0
H577 H 0.8839 0.79776 0.9193 0.0
C578 C 0.87684 0.77427 0.91886 0.0
H579 H 0.84139 0.74429 0.90432 0.0
H580 H 0.78525 0.82602 0.76965 0.0
H581 H 0.80271 0.78286 0.73175 0.0
H582 H 0.83315 0.74311 0.76377 0.0
H583 H 0.84606 0.74612 0.83393 0.0
C584 C 0.84934 0.76743 0.90464 0.0
C585 C 0.8299 0.79094 0.88611 0.0
C586 C 0.82276 0.78892 0.84493 0.0
C587 C 0.8057 0.81212 0.82629 0.0
C588 C 0.79853 0.8093 0.78523 0.0
C589 C 0.80835 0.78459 0.76311 0.0
C590 C 0.82545 0.7622 0.78114 0.0
C591 C 0.83266 0.76421 0.82152 0.0
loop_
_geom_bond_atom_site_label_1
_geom_bond_atom_site_label_2
_geom_bond_distance
_geom_bond_site_symmetry_2
_ccdc_geom_bond_type
Li0 N17 1.990 . S
Li0 O60 1.956 . S
Li0 O61 1.970 1_455 S
Li0 O62 1.961 1_554 S
Li1 N25 1.990 . S
Li1 O60 1.970 1_655 S
Li1 O61 1.956 . S
Li1 O63 1.961 1_554 S
Li2 N47 1.990 . S
Li2 O60 1.961 1_556 S
Li2 O62 1.956 . S
Li2 O63 1.970 1_455 S
Li3 N53 1.990 . S
Li3 O61 1.961 1_556 S
Li3 O62 1.970 1_655 S
Li3 O63 1.956 . S
C4 C6 1.348 . S
C4 C7 1.356 1_554 S
C4 O60 1.325 . S
N5 C8 1.314 . S
N5 C9 1.279 . S
C6 C4 1.348 . S
C6 C8 1.353 . S
C6 H64 0.929 . S
C7 C4 1.356 1_556 S
C7 C9 1.358 1_556 S
C7 H65 0.930 . S
C8 N5 1.314 . S
C8 C6 1.353 . S
C8 H66 0.930 . S
C9 N5 1.279 . S
C9 C7 1.358 1_554 S
C9 H67 0.930 1_554 S
C10 C13 1.348 1_655 S
C10 C14 1.356 . S
C10 O61 1.325 . S
C11 N12 1.279 . S
C11 C14 1.358 . S
C11 H68 0.930 . S
N12 C11 1.279 . S
N12 C15 1.314 . S
C13 C10 1.348 1_455 S
C13 C15 1.353 1_455 S
C13 H69 0.929 . S
C14 C10 1.356 . S
C14 C11 1.358 . S
C14 H70 0.930 . S
C15 N12 1.314 . S
C15 C13 1.353 1_655 S
C15 H71 0.930 1_655 S
C16 N17 1.314 . S
C16 C21 1.353 . S
C16 H22 0.930 1_554 S
N17 Li0 1.990 . S
N17 C16 1.314 . S
N17 C19 1.279 . S
C18 C19 1.358 . S
C18 C20 1.356 . S
C18 H72 0.930 . S
C19 N17 1.279 . S
C19 C18 1.358 . S
C19 H23 0.930 . S
C20 C18 1.356 . S
C20 C21 1.348 . S
C21 C16 1.353 . S
C21 C20 1.348 . S
C21 H73 0.929 . S
H22 C16 0.930 1_556 S
H23 C19 0.930 . S
C24 N25 1.314 . S
C24 C26 1.353 . S
C24 H30 0.930 . S
N25 Li1 1.990 . S
N25 C24 1.314 . S
N25 C28 1.279 . S
C26 C24 1.353 . S
C26 C29 1.348 . S
C26 H74 0.929 . S
C27 C28 1.358 . S
C27 C29 1.356 . S
C27 H75 0.930 . S
C28 N25 1.279 . S
C28 C27 1.358 . S
C28 H31 0.930 . S
C29 C26 1.348 . S
C29 C27 1.356 . S
H30 C24 0.930 . S
H31 C28 0.930 . S
C32 C34 1.348 1_455 S
C32 C35 1.356 . S
C32 O62 1.325 . S
N33 C36 1.314 . S
N33 C37 1.279 . S
C34 C32 1.348 1_655 S
C34 C36 1.353 1_655 S
C34 H76 0.929 . S
C35 C32 1.356 . S
C35 C37 1.358 . S
C35 H77 0.930 . S
C36 N33 1.314 . S
C36 C34 1.353 1_455 S
C36 H78 0.930 1_455 S
C37 N33 1.279 . S
C37 C35 1.358 . S
C37 H79 0.930 . S
C38 C39 1.348 . S
C38 C40 1.356 1_556 S
C38 O63 1.325 . S
C39 C38 1.348 . S
C39 C41 1.353 . S
C39 H80 0.929 . S
C40 C38 1.356 1_554 S
C40 C42 1.358 1_554 S
C40 H81 0.930 . S
C41 C39 1.353 . S
C41 N43 1.314 . S
C41 H82 0.930 . S
C42 C40 1.358 1_556 S
C42 N43 1.279 . S
C42 H83 0.930 1_556 S
N43 C41 1.314 . S
N43 C42 1.279 . S
C44 C46 1.353 . S
C44 N47 1.314 . S
C44 H50 0.930 . S
C45 N47 1.279 . S
C45 C48 1.358 . S
C45 H51 0.930 . S
C46 C44 1.353 . S
C46 C49 1.348 . S
C46 H84 0.929 . S
N47 Li2 1.990 . S
N47 C44 1.314 . S
N47 C45 1.279 . S
C48 C45 1.358 . S
C48 C49 1.356 . S
C48 H85 0.930 . S
C49 C46 1.348 . S
C49 C48 1.356 . S
H50 C44 0.930 . S
H51 C45 0.930 . S
C52 N53 1.314 . S
C52 C54 1.353 . S
C52 H58 0.930 1_556 S
N53 Li3 1.990 . S
N53 C52 1.314 . S
N53 C56 1.279 . S
C54 C52 1.353 . S
C54 C57 1.348 . S
C54 H86 0.929 . S
C55 C56 1.358 . S
C55 C57 1.356 . S
C55 H87 0.930 . S
C56 N53 1.279 . S
C56 C55 1.358 . S
C56 H59 0.930 . S
C57 C54 1.348 . S
C57 C55 1.356 . S
H58 C52 0.930 1_554 S
H59 C56 0.930 . S
O60 Li0 1.956 . S
O60 Li1 1.970 1_455 S
O60 Li2 1.961 1_554 S
O60 C4 1.325 . S
O61 Li0 1.970 1_655 S
O61 Li1 1.956 . S
O61 Li3 1.961 1_554 S
O61 C10 1.325 . S
O62 Li0 1.961 1_556 S
O62 Li2 1.956 . S
O62 Li3 1.970 1_455 S
O62 C32 1.325 . S
O63 Li1 1.961 1_556 S
O63 Li2 1.970 1_655 S
O63 Li3 1.956 . S
O63 C38 1.325 . S
H64 C6 0.929 . S
H65 C7 0.930 . S
H66 C8 0.930 . S
H67 C9 0.930 1_556 S
H68 C11 0.930 . S
H69 C13 0.929 . S
H70 C14 0.930 . S
H71 C15 0.930 1_455 S
H72 C18 0.930 . S
H73 C21 0.929 . S
H74 C26 0.929 . S
H75 C27 0.930 . S
H76 C34 0.929 . S
H77 C35 0.930 . S
H78 C36 0.930 1_655 S
H79 C37 0.930 . S
H80 C39 0.929 . S
H81 C40 0.930 . S
H82 C41 0.930 . S
H83 C42 0.930 1_554 S
H84 C46 0.929 . S
H85 C48 0.930 . S
H86 C54 0.929 . S
H87 C55 0.930 . S
Li88 N105 1.990 . S
Li88 O148 1.956 . S
Li88 O149 1.970 1_565 S
Li88 O150 1.961 . S
Li89 N113 1.990 . S
Li89 O148 1.970 1_545 S
Li89 O149 1.956 . S
Li89 O151 1.961 . S
Li90 N135 1.990 . S
Li90 O148 1.961 . S
Li90 O150 1.956 . S
Li90 O151 1.970 1_565 S
Li91 N141 1.990 . S
Li91 O149 1.961 . S
Li91 O150 1.970 1_545 S
Li91 O151 1.956 . S
C92 C94 1.348 1_565 S
C92 C95 1.356 . S
C92 O148 1.325 . S
N93 C96 1.314 . S
N93 C97 1.279 . S
C94 C92 1.348 1_545 S
C94 C96 1.353 1_545 S
C94 H152 0.929 . S
C95 C92 1.356 . S
C95 C97 1.358 . S
C95 H153 0.930 . S
C96 N93 1.314 . S
C96 C94 1.353 1_565 S
C96 H154 0.930 1_565 S
C97 N93 1.279 . S
C97 C95 1.358 . S
C97 H155 0.930 . S
C98 C101 1.348 . S
C98 C102 1.356 . S
C98 O149 1.325 . S
C99 N100 1.279 . S
C99 C102 1.358 . S
C99 H156 0.930 . S
N100 C99 1.279 . S
N100 C103 1.314 . S
C101 C98 1.348 . S
C101 C103 1.353 . S
C101 H157 0.929 . S
C102 C98 1.356 . S
C102 C99 1.358 . S
C102 H158 0.930 . S
C103 N100 1.314 . S
C103 C101 1.353 . S
C103 H159 0.930 . S
C104 N105 1.314 . S
C104 C109 1.353 . S
C104 H110 0.930 . S
N105 Li88 1.990 . S
N105 C104 1.314 . S
N105 C107 1.279 . S
C106 C107 1.358 . S
C106 C108 1.356 . S
C106 H160 0.930 . S
C107 N105 1.279 . S
C107 C106 1.358 . S
C107 H111 0.930 . S
C108 C106 1.356 . S
C108 C109 1.348 . S
C109 C104 1.353 . S
C109 C108 1.348 . S
C109 H161 0.929 . S
H110 C104 0.930 . S
H111 C107 0.930 . S
C112 N113 1.314 . S
C112 C114 1.353 . S
C112 H118 0.930 . S
N113 Li89 1.990 . S
N113 C112 1.314 . S
N113 C116 1.279 . S
C114 C112 1.353 . S
C114 C117 1.348 . S
C114 H162 0.929 . S
C115 C116 1.358 . S
C115 C117 1.356 . S
C115 H163 0.930 . S
C116 N113 1.279 . S
C116 C115 1.358 . S
C116 H119 0.930 . S
C117 C114 1.348 . S
C117 C115 1.356 . S
H118 C112 0.930 . S
H119 C116 0.930 . S
C120 C122 1.348 . S
C120 C123 1.356 . S
C120 O150 1.325 . S
N121 C124 1.314 . S
N121 C125 1.279 . S
C122 C120 1.348 . S
C122 C124 1.353 . S
C122 H164 0.929 . S
C123 C120 1.356 . S
C123 C125 1.358 . S
C123 H165 0.930 . S
C124 N121 1.314 . S
C124 C122 1.353 . S
C124 H166 0.930 . S
C125 N121 1.279 . S
C125 C123 1.358 . S
C125 H167 0.930 . S
C126 C127 1.348 1_545 S
C126 C128 1.356 . S
C126 O151 1.325 . S
C127 C126 1.348 1_565 S
C127 C129 1.353 1_565 S
C127 H168 0.929 . S
C128 C126 1.356 . S
C128 C130 1.358 . S
C128 H169 0.930 . S
C129 C127 1.353 1_545 S
C129 N131 1.314 . S
C129 H170 0.930 1_545 S
C130 C128 1.358 . S
C130 N131 1.279 . S
C130 H171 0.930 . S
N131 C129 1.314 . S
N131 C130 1.279 . S
C132 C134 1.353 . S
C132 N135 1.314 . S
C132 H138 0.930 . S
C133 N135 1.279 . S
C133 C136 1.358 . S
C133 H139 0.930 . S
C134 C132 1.353 . S
C134 C137 1.348 . S
C134 H172 0.929 . S
N135 Li90 1.990 . S
N135 C132 1.314 . S
N135 C133 1.279 . S
C136 C133 1.358 . S
C136 C137 1.356 . S
C136 H173 0.930 . S
C137 C134 1.348 . S
C137 C136 1.356 . S
H138 C132 0.930 . S
H139 C133 0.930 . S
C140 N141 1.314 . S
C140 C142 1.353 . S
C140 H146 0.930 . S
N141 Li91 1.990 . S
N141 C140 1.314 . S
N141 C144 1.279 . S
C142 C140 1.353 . S
C142 C145 1.348 . S
C142 H174 0.929 . S
C143 C144 1.358 . S
C143 C145 1.356 . S
C143 H175 0.930 . S
C144 N141 1.279 . S
C144 C143 1.358 . S
C144 H147 0.930 . S
C145 C142 1.348 . S
C145 C143 1.356 . S
H146 C140 0.930 . S
H147 C144 0.930 . S
O148 Li88 1.956 . S
O148 Li89 1.970 1_565 S
O148 Li90 1.961 . S
O148 C92 1.325 . S
O149 Li88 1.970 1_545 S
O149 Li89 1.956 . S
O149 Li91 1.961 . S
O149 C98 1.325 . S
O150 Li88 1.961 . S
O150 Li90 1.956 . S
O150 Li91 1.970 1_565 S
O150 C120 1.325 . S
O151 Li89 1.961 . S
O151 Li90 1.970 1_545 S
O151 Li91 1.956 . S
O151 C126 1.325 . S
H152 C94 0.929 . S
H153 C95 0.930 . S
H154 C96 0.930 1_545 S
H155 C97 0.930 . S
H156 C99 0.930 . S
H157 C101 0.929 . S
H158 C102 0.930 . S
H159 C103 0.930 . S
H160 C106 0.930 . S
H161 C109 0.929 . S
H162 C114 0.929 . S
H163 C115 0.930 . S
H164 C122 0.929 . S
H165 C123 0.930 . S
H166 C124 0.930 . S
H167 C125 0.930 . S
H168 C127 0.929 . S
H169 C128 0.930 . S
H170 C129 0.930 1_565 S
H171 C130 0.930 . S
H172 C134 0.929 . S
H173 C136 0.930 . S
H174 C142 0.929 . S
H175 C143 0.930 . S
Li176 N193 1.990 . S
Li176 O236 1.956 . S
Li176 O237 1.970 1_455 S
Li176 O238 1.961 . S
Li177 N201 1.990 . S
Li177 O236 1.970 1_655 S
Li177 O237 1.956 . S
Li177 O239 1.961 . S
Li178 N223 1.990 . S
Li178 O236 1.961 . S
Li178 O238 1.956 . S
Li178 O239 1.970 1_455 S
Li179 N229 1.990 . S
Li179 O237 1.961 . S
Li179 O238 1.970 1_655 S
Li179 O239 1.956 . S
C180 C182 1.348 1_455 S
C180 C183 1.356 . S
C180 O236 1.325 . S
N181 C184 1.314 . S
N181 C185 1.279 . S
C182 C180 1.348 1_655 S
C182 C184 1.353 1_655 S
C182 H240 0.929 . S
C183 C180 1.356 . S
C183 C185 1.358 . S
C183 H241 0.930 . S
C184 N181 1.314 . S
C184 C182 1.353 1_455 S
C184 H242 0.930 1_455 S
C185 N181 1.279 . S
C185 C183 1.358 . S
C185 H243 0.930 . S
C186 C189 1.348 . S
C186 C190 1.356 . S
C186 O237 1.325 . S
C187 N188 1.279 . S
C187 C190 1.358 . S
C187 H244 0.930 . S
N188 C187 1.279 . S
N188 C191 1.314 . S
C189 C186 1.348 . S
C189 C191 1.353 . S
C189 H245 0.929 . S
C190 C186 1.356 . S
C190 C187 1.358 . S
C190 H246 0.930 . S
C191 N188 1.314 . S
C191 C189 1.353 . S
C191 H247 0.930 . S
C192 N193 1.314 . S
C192 C197 1.353 . S
C192 H198 0.930 . S
N193 Li176 1.990 . S
N193 C192 1.314 . S
N193 C195 1.279 . S
C194 C195 1.358 . S
C194 C196 1.356 . S
C194 H248 0.930 . S
C195 N193 1.279 . S
C195 C194 1.358 . S
C195 H199 0.930 . S
C196 C194 1.356 . S
C196 C197 1.348 . S
C197 C192 1.353 . S
C197 C196 1.348 . S
C197 H249 0.929 . S
H198 C192 0.930 . S
H199 C195 0.930 . S
C200 N201 1.314 . S
C200 C202 1.353 . S
C200 H206 0.930 . S
N201 Li177 1.990 . S
N201 C200 1.314 . S
N201 C204 1.279 . S
C202 C200 1.353 . S
C202 C205 1.348 . S
C202 H250 0.929 . S
C203 C204 1.358 . S
C203 C205 1.356 . S
C203 H251 0.930 . S
C204 N201 1.279 . S
C204 C203 1.358 . S
C204 H207 0.930 . S
C205 C202 1.348 . S
C205 C203 1.356 . S
H206 C200 0.930 . S
H207 C204 0.930 . S
C208 C210 1.348 . S
C208 C211 1.356 . S
C208 O238 1.325 . S
N209 C212 1.314 . S
N209 C213 1.279 . S
C210 C208 1.348 . S
C210 C212 1.353 . S
C210 H252 0.929 . S
C211 C208 1.356 . S
C211 C213 1.358 . S
C211 H253 0.930 . S
C212 N209 1.314 . S
C212 C210 1.353 . S
C212 H254 0.930 . S
C213 N209 1.279 . S
C213 C211 1.358 . S
C213 H255 0.930 . S
C214 C215 1.348 1_655 S
C214 C216 1.356 . S
C214 O239 1.325 . S
C215 C214 1.348 1_455 S
C215 C217 1.353 1_455 S
C215 H256 0.929 . S
C216 C214 1.356 . S
C216 C218 1.358 . S
C216 H257 0.930 . S
C217 C215 1.353 1_655 S
C217 N219 1.314 . S
C217 H258 0.930 1_655 S
C218 C216 1.358 . S
C218 N219 1.279 . S
C218 H259 0.930 . S
N219 C217 1.314 . S
N219 C218 1.279 . S
C220 C222 1.353 . S
C220 N223 1.314 . S
C220 H226 0.930 . S
C221 N223 1.279 . S
C221 C224 1.358 . S
C221 H227 0.930 . S
C222 C220 1.353 . S
C222 C225 1.348 . S
C222 H260 0.929 . S
N223 Li178 1.990 . S
N223 C220 1.314 . S
N223 C221 1.279 . S
C224 C221 1.358 . S
C224 C225 1.356 . S
C224 H261 0.930 . S
C225 C222 1.348 . S
C225 C224 1.356 . S
H226 C220 0.930 . S
H227 C221 0.930 . S
C228 N229 1.314 . S
C228 C230 1.353 . S
C228 H234 0.930 . S
N229 Li179 1.990 . S
N229 C228 1.314 . S
N229 C232 1.279 . S
C230 C228 1.353 . S
C230 C233 1.348 . S
C230 H262 0.929 . S
C231 C232 1.358 . S
C231 C233 1.356 . S
C231 H263 0.930 . S
C232 N229 1.279 . S
C232 C231 1.358 . S
C232 H235 0.930 . S
C233 C230 1.348 . S
C233 C231 1.356 . S
H234 C228 0.930 . S
H235 C232 0.930 . S
O236 Li176 1.956 . S
O236 Li177 1.970 1_455 S
O236 Li178 1.961 . S
O236 C180 1.325 . S
O237 Li176 1.970 1_655 S
O237 Li177 1.956 . S
O237 Li179 1.961 . S
O237 C186 1.325 . S
O238 Li176 1.961 . S
O238 Li178 1.956 . S
O238 Li179 1.970 1_455 S
O238 C208 1.325 . S
O239 Li177 1.961 . S
O239 Li178 1.970 1_655 S
O239 Li179 1.956 . S
O239 C214 1.325 . S
H240 C182 0.929 . S
H241 C183 0.930 . S
H242 C184 0.930 1_655 S
H243 C185 0.930 . S
H244 C187 0.930 . S
H245 C189 0.929 . S
H246 C190 0.930 . S
H247 C191 0.930 . S
H248 C194 0.930 . S
H249 C197 0.929 . S
H250 C202 0.929 . S
H251 C203 0.930 . S
H252 C210 0.929 . S
H253 C211 0.930 . S
H254 C212 0.930 . S
H255 C213 0.930 . S
H256 C215 0.929 . S
H257 C216 0.930 . S
H258 C217 0.930 1_455 S
H259 C218 0.930 . S
H260 C222 0.929 . S
H261 C224 0.930 . S
H262 C230 0.929 . S
H263 C231 0.930 . S
Li264 N281 1.990 . S
Li264 O324 1.956 . S
Li264 O325 1.970 1_545 S
Li264 O326 1.961 . S
Li265 N289 1.990 . S
Li265 O324 1.970 1_565 S
Li265 O325 1.956 . S
Li265 O327 1.961 . S
Li266 N311 1.990 . S
Li266 O324 1.961 . S
Li266 O326 1.956 . S
Li266 O327 1.970 1_545 S
Li267 N317 1.990 . S
Li267 O325 1.961 . S
Li267 O326 1.970 1_565 S
Li267 O327 1.956 . S
C268 C270 1.348 1_545 S
C268 C271 1.356 . S
C268 O324 1.325 . S
N269 C272 1.314 . S
N269 C273 1.279 . S
C270 C268 1.348 1_565 S
C270 C272 1.353 1_565 S
C270 H328 0.929 . S
C271 C268 1.356 . S
C271 C273 1.358 . S
C271 H329 0.930 . S
C272 N269 1.314 . S
C272 C270 1.353 1_545 S
C272 H330 0.930 1_545 S
C273 N269 1.279 . S
C273 C271 1.358 . S
C273 H331 0.930 . S
C274 C277 1.348 . S
C274 C278 1.356 . S
C274 O325 1.325 . S
C275 N276 1.279 . S
C275 C278 1.358 . S
C275 H332 0.930 . S
N276 C275 1.279 . S
N276 C279 1.314 . S
C277 C274 1.348 . S
C277 C279 1.353 . S
C277 H333 0.929 . S
C278 C274 1.356 . S
C278 C275 1.358 . S
C278 H334 0.930 . S
C279 N276 1.314 . S
C279 C277 1.353 . S
C279 H335 0.930 . S
C280 N281 1.314 . S
C280 C285 1.353 . S
C280 H286 0.930 . S
N281 Li264 1.990 . S
N281 C280 1.314 . S
N281 C283 1.279 . S
C282 C283 1.358 . S
C282 C284 1.356 . S
C282 H336 0.930 . S
C283 N281 1.279 . S
C283 C282 1.358 . S
C283 H287 0.930 . S
C284 C282 1.356 . S
C284 C285 1.348 . S
C285 C280 1.353 . S
C285 C284 1.348 . S
C285 H337 0.929 . S
H286 C280 0.930 . S
H287 C283 0.930 . S
C288 N289 1.314 . S
C288 C290 1.353 . S
C288 H294 0.930 . S
N289 Li265 1.990 . S
N289 C288 1.314 . S
N289 C292 1.279 . S
C290 C288 1.353 . S
C290 C293 1.348 . S
C290 H338 0.929 . S
C291 C292 1.358 . S
C291 C293 1.356 . S
C291 H339 0.930 . S
C292 N289 1.279 . S
C292 C291 1.358 . S
C292 H295 0.930 . S
C293 C290 1.348 . S
C293 C291 1.356 . S
H294 C288 0.930 . S
H295 C292 0.930 . S
C296 C298 1.348 . S
C296 C299 1.356 . S
C296 O326 1.325 . S
N297 C300 1.314 . S
N297 C301 1.279 . S
C298 C296 1.348 . S
C298 C300 1.353 . S
C298 H340 0.929 . S
C299 C296 1.356 . S
C299 C301 1.358 . S
C299 H341 0.930 . S
C300 N297 1.314 . S
C300 C298 1.353 . S
C300 H342 0.930 . S
C301 N297 1.279 . S
C301 C299 1.358 . S
C301 H343 0.930 . S
C302 C303 1.348 1_565 S
C302 C304 1.356 . S
C302 O327 1.325 . S
C303 C302 1.348 1_545 S
C303 C305 1.353 1_545 S
C303 H344 0.929 . S
C304 C302 1.356 . S
C304 C306 1.358 . S
C304 H345 0.930 . S
C305 C303 1.353 1_565 S
C305 N307 1.314 . S
C305 H346 0.930 1_565 S
C306 C304 1.358 . S
C306 N307 1.279 . S
C306 H347 0.930 . S
N307 C305 1.314 . S
N307 C306 1.279 . S
C308 C310 1.353 . S
C308 N311 1.314 . S
C308 H314 0.930 . S
C309 N311 1.279 . S
C309 C312 1.358 . S
C309 H315 0.930 . S
C310 C308 1.353 . S
C310 C313 1.348 . S
C310 H348 0.929 . S
N311 Li266 1.990 . S
N311 C308 1.314 . S
N311 C309 1.279 . S
C312 C309 1.358 . S
C312 C313 1.356 . S
C312 H349 0.930 . S
C313 C310 1.348 . S
C313 C312 1.356 . S
H314 C308 0.930 . S
H315 C309 0.930 . S
C316 N317 1.314 . S
C316 C318 1.353 . S
C316 H322 0.930 . S
N317 Li267 1.990 . S
N317 C316 1.314 . S
N317 C320 1.279 . S
C318 C316 1.353 . S
C318 C321 1.348 . S
C318 H350 0.929 . S
C319 C320 1.358 . S
C319 C321 1.356 . S
C319 H351 0.930 . S
C320 N317 1.279 . S
C320 C319 1.358 . S
C320 H323 0.930 . S
C321 C318 1.348 . S
C321 C319 1.356 . S
H322 C316 0.930 . S
H323 C320 0.930 . S
O324 Li264 1.956 . S
O324 Li265 1.970 1_545 S
O324 Li266 1.961 . S
O324 C268 1.325 . S
O325 Li264 1.970 1_565 S
O325 Li265 1.956 . S
O325 Li267 1.961 . S
O325 C274 1.325 . S
O326 Li264 1.961 . S
O326 Li266 1.956 . S
O326 Li267 1.970 1_545 S
O326 C296 1.325 . S
O327 Li265 1.961 . S
O327 Li266 1.970 1_565 S
O327 Li267 1.956 . S
O327 C302 1.325 . S
H328 C270 0.929 . S
H329 C271 0.930 . S
H330 C272 0.930 1_565 S
H331 C273 0.930 . S
H332 C275 0.930 . S
H333 C277 0.929 . S
H334 C278 0.930 . S
H335 C279 0.930 . S
H336 C282 0.930 . S
H337 C285 0.929 . S
H338 C290 0.929 . S
H339 C291 0.930 . S
H340 C298 0.929 . S
H341 C299 0.930 . S
H342 C300 0.930 . S
H343 C301 0.930 . S
H344 C303 0.929 . S
H345 C304 0.930 . S
H346 C305 0.930 1_545 S
H347 C306 0.930 . S
H348 C310 0.929 . S
H349 C312 0.930 . S
H350 C318 0.929 . S
H351 C319 0.930 . S
H352 C353 0.951 . S
C353 H352 0.951 . S
C353 C359 1.265 . S
H354 C359 0.922 1_455 S
H355 C363 0.949 . S
H356 C364 0.950 . S
H357 C365 0.951 . S
H358 C366 0.951 . S
C359 C353 1.265 . S
C359 H354 0.922 1_655 S
C359 C360 1.478 . S
C360 C359 1.478 . S
C360 C361 1.397 . S
C360 C377 1.394 . S
C361 C360 1.397 . S
C361 C362 1.438 . S
C361 C366 1.429 . S
C362 C361 1.438 . S
C362 C363 1.428 . S
C362 C375 1.394 . S
C363 H355 0.949 . S
C363 C362 1.428 . S
C363 C364 1.345 . S
C364 H356 0.950 . S
C364 C363 1.345 . S
C364 C365 1.424 . S
C365 H357 0.951 . S
C365 C364 1.424 . S
C365 C366 1.347 . S
C366 H358 0.951 . S
C366 C361 1.429 . S
C366 C365 1.347 . S
H367 C368 0.951 . S
C368 H367 0.951 . S
C368 C374 1.265 . S
H369 C374 0.950 . S
H370 C378 0.949 . S
H371 C379 0.950 . S
H372 C380 0.951 . S
H373 C381 0.951 . S
C374 C368 1.265 . S
C374 H369 0.950 . S
C374 C375 1.478 . S
C375 C362 1.394 . S
C375 C374 1.478 . S
C375 C376 1.397 . S
C376 C375 1.397 . S
C376 C377 1.438 . S
C376 C381 1.429 . S
C377 C360 1.394 . S
C377 C376 1.438 . S
C377 C378 1.428 . S
C378 H370 0.949 . S
C378 C377 1.428 . S
C378 C379 1.345 . S
C379 H371 0.950 . S
C379 C378 1.345 . S
C379 C380 1.424 . S
C380 H372 0.951 . S
C380 C379 1.424 . S
C380 C381 1.347 . S
C381 H373 0.951 . S
C381 C376 1.429 . S
C381 C380 1.347 . S
H382 C383 0.951 . S
C383 H382 0.951 . S
C383 C389 1.265 . S
H384 C389 0.950 . S
H385 C393 0.949 . S
H386 C394 0.950 . S
H387 C395 0.951 . S
H388 C396 0.951 . S
C389 C383 1.265 . S
C389 H384 0.950 . S
C389 C390 1.478 . S
C390 C389 1.478 . S
C390 C391 1.397 . S
C390 C407 1.394 . S
C391 C390 1.397 . S
C391 C392 1.438 . S
C391 C396 1.429 1_565 S
C392 C391 1.438 . S
C392 C393 1.428 1_565 S
C392 C405 1.394 . S
C393 H385 0.949 . S
C393 C392 1.428 1_545 S
C393 C394 1.345 . S
C394 H386 0.950 . S
C394 C393 1.345 . S
C394 C395 1.424 . S
C395 H387 0.951 . S
C395 C394 1.424 . S
C395 C396 1.347 . S
C396 H388 0.951 . S
C396 C391 1.429 1_545 S
C396 C395 1.347 . S
H397 C398 0.951 . S
C398 H397 0.951 . S
C398 C404 1.265 . S
H399 C404 0.950 . S
H400 C408 0.949 . S
H401 C409 0.950 . S
H402 C410 0.951 . S
H403 C411 0.951 . S
C404 C398 1.265 . S
C404 H399 0.950 . S
C404 C405 1.478 . S
C405 C392 1.394 . S
C405 C404 1.478 . S
C405 C406 1.397 . S
C406 C405 1.397 . S
C406 C407 1.438 . S
C406 C411 1.429 . S
C407 C390 1.394 . S
C407 C406 1.438 . S
C407 C408 1.428 . S
C408 H400 0.949 . S
C408 C407 1.428 . S
C408 C409 1.345 . S
C409 H401 0.950 . S
C409 C408 1.345 . S
C409 C410 1.424 . S
C410 H402 0.951 . S
C410 C409 1.424 . S
C410 C411 1.347 . S
C411 H403 0.951 . S
C411 C406 1.429 . S
C411 C410 1.347 . S
H412 C413 0.951 . S
C413 H412 0.951 . S
C413 C419 1.265 . S
H414 C419 0.950 . S
H415 C423 0.949 . S
H416 C424 0.950 . S
H417 C425 0.951 . S
H418 C426 0.951 . S
C419 C413 1.265 . S
C419 H414 0.950 . S
C419 C420 1.478 . S
C420 C419 1.478 . S
C420 C421 1.397 . S
C420 C437 1.394 . S
C421 C420 1.397 . S
C421 C422 1.438 . S
C421 C426 1.429 . S
C422 C421 1.438 . S
C422 C423 1.428 1_455 S
C422 C435 1.394 . S
C423 H415 0.949 . S
C423 C422 1.428 1_655 S
C423 C424 1.345 . S
C424 H416 0.950 . S
C424 C423 1.345 . S
C424 C425 1.424 . S
C425 H417 0.951 . S
C425 C424 1.424 . S
C425 C426 1.347 1_655 S
C426 H418 0.951 . S
C426 C421 1.429 . S
C426 C425 1.347 1_455 S
H427 C428 0.951 . S
C428 H427 0.951 . S
C428 C434 1.265 . S
H429 C434 0.950 . S
H430 C438 0.949 . S
H431 C439 0.950 . S
H432 C440 0.951 . S
H433 C441 0.951 . S
C434 C428 1.265 . S
C434 H429 0.950 . S
C434 C435 1.478 . S
C435 C422 1.394 . S
C435 C434 1.478 . S
C435 C436 1.397 . S
C436 C435 1.397 . S
C436 C437 1.438 . S
C436 C441 1.429 . S
C437 C420 1.394 . S
C437 C436 1.438 . S
C437 C438 1.428 . S
C438 H430 0.949 . S
C438 C437 1.428 . S
C438 C439 1.345 . S
C439 H431 0.950 . S
C439 C438 1.345 . S
C439 C440 1.424 . S
C440 H432 0.951 . S
C440 C439 1.424 . S
C440 C441 1.347 . S
C441 H433 0.951 . S
C441 C436 1.429 . S
C441 C440 1.347 . S
H442 C443 0.951 . S
C443 H442 0.951 . S
C443 C449 1.265 . S
H444 C449 0.950 . S
H445 C453 0.949 . S
H446 C454 0.950 . S
H447 C455 0.951 . S
H448 C456 0.951 . S
C449 C443 1.265 . S
C449 H444 0.950 . S
C449 C450 1.478 . S
C450 C449 1.478 . S
C450 C451 1.397 . S
C450 C467 1.394 . S
C451 C450 1.397 . S
C451 C452 1.438 1_554 S
C451 C456 1.429 1_545 S
C452 C451 1.438 1_556 S
C452 C453 1.428 1_545 S
C452 C465 1.394 . S
C453 H445 0.949 . S
C453 C452 1.428 1_565 S
C453 C454 1.345 . S
C454 H446 0.950 . S
C454 C453 1.345 . S
C454 C455 1.424 1_556 S
C455 H447 0.951 . S
C455 C454 1.424 1_554 S
C455 C456 1.347 . S
C456 H448 0.951 . S
C456 C451 1.429 1_565 S
C456 C455 1.347 . S
H457 C458 0.951 . S
C458 H457 0.951 . S
C458 C464 1.265 . S
H459 C464 0.950 . S
H460 C468 0.949 . S
H461 C469 0.950 . S
H462 C470 0.951 . S
H463 C471 0.951 . S
C464 C458 1.265 . S
C464 H459 0.950 . S
C464 C465 1.478 . S
C465 C452 1.394 . S
C465 C464 1.478 . S
C465 C466 1.397 . S
C466 C465 1.397 . S
C466 C467 1.438 1_556 S
C466 C471 1.429 . S
C467 C450 1.394 . S
C467 C466 1.438 1_554 S
C467 C468 1.428 . S
C468 H460 0.949 . S
C468 C467 1.428 . S
C468 C469 1.345 . S
C469 H461 0.950 . S
C469 C468 1.345 . S
C469 C470 1.424 1_554 S
C470 H462 0.951 . S
C470 C469 1.424 1_556 S
C470 C471 1.347 . S
C471 H463 0.951 . S
C471 C466 1.429 . S
C471 C470 1.347 . S
H472 C473 0.951 . S
C473 H472 0.951 . S
C473 C479 1.265 . S
H474 C479 0.950 . S
H475 C483 0.949 . S
H476 C484 0.944 1_556 S
H477 C485 0.951 . S
H478 C486 0.951 . S
C479 C473 1.265 . S
C479 H474 0.950 . S
C479 C480 1.478 . S
C480 C479 1.478 . S
C480 C481 1.397 . S
C480 C497 1.394 . S
C481 C480 1.397 . S
C481 C482 1.438 . S
C481 C486 1.429 . S
C482 C481 1.438 . S
C482 C483 1.428 . S
C482 C495 1.394 . S
C483 H475 0.949 . S
C483 C482 1.428 . S
C483 C484 1.345 . S
C484 H476 0.944 1_554 S
C484 C483 1.345 . S
C484 C485 1.424 . S
C485 H477 0.951 . S
C485 C484 1.424 . S
C485 C486 1.347 . S
C486 H478 0.951 . S
C486 C481 1.429 . S
C486 C485 1.347 . S
H487 C488 0.951 . S
C488 H487 0.951 . S
C488 C494 1.265 . S
H489 C494 0.950 . S
H490 C498 0.949 . S
H491 C499 0.950 . S
H492 C500 0.951 . S
H493 C501 0.951 . S
C494 C488 1.265 . S
C494 H489 0.950 . S
C494 C495 1.478 . S
C495 C482 1.394 . S
C495 C494 1.478 . S
C495 C496 1.397 . S
C496 C495 1.397 . S
C496 C497 1.438 . S
C496 C501 1.429 . S
C497 C480 1.394 . S
C497 C496 1.438 . S
C497 C498 1.428 . S
C498 H490 0.949 . S
C498 C497 1.428 . S
C498 C499 1.345 . S
C499 H491 0.950 . S
C499 C498 1.345 . S
C499 C500 1.424 . S
C500 H492 0.951 . S
C500 C499 1.424 . S
C500 C501 1.347 . S
C501 H493 0.951 . S
C501 C496 1.429 . S
C501 C500 1.347 . S
H502 C503 0.951 . S
C503 H502 0.951 . S
C503 C509 1.265 . S
H504 C509 0.950 . S
H505 C513 0.949 . S
H506 C514 0.950 . S
H507 C515 0.951 . S
H508 C516 0.951 . S
C509 C503 1.265 . S
C509 H504 0.950 . S
C509 C510 1.478 . S
C510 C509 1.478 . S
C510 C511 1.397 . S
C510 C527 1.394 . S
C511 C510 1.397 . S
C511 C512 1.438 . S
C511 C516 1.429 . S
C512 C511 1.438 . S
C512 C513 1.428 . S
C512 C525 1.394 . S
C513 H505 0.949 . S
C513 C512 1.428 . S
C513 C514 1.345 . S
C514 H506 0.950 . S
C514 C513 1.345 . S
C514 C515 1.424 . S
C515 H507 0.951 . S
C515 C514 1.424 . S
C515 C516 1.347 . S
C516 H508 0.951 . S
C516 C511 1.429 . S
C516 C515 1.347 . S
H517 C518 0.951 . S
C518 H517 0.951 . S
C518 C524 1.265 . S
H519 C524 0.950 . S
H520 C528 0.949 . S
H521 C529 0.950 . S
H522 C530 0.951 . S
H523 C531 0.951 . S
C524 C518 1.265 . S
C524 H519 0.950 . S
C524 C525 1.478 . S
C525 C512 1.394 . S
C525 C524 1.478 . S
C525 C526 1.397 . S
C526 C525 1.397 . S
C526 C527 1.438 . S
C526 C531 1.429 . S
C527 C510 1.394 . S
C527 C526 1.438 . S
C527 C528 1.428 . S
C528 H520 0.949 . S
C528 C527 1.428 . S
C528 C529 1.345 . S
C529 H521 0.950 . S
C529 C528 1.345 . S
C529 C530 1.424 . S
C530 H522 0.951 . S
C530 C529 1.424 . S
C530 C531 1.347 . S
C531 H523 0.951 . S
C531 C526 1.429 . S
C531 C530 1.347 . S
H532 C533 0.951 . S
C533 H532 0.951 . S
C533 C539 1.265 . S
H534 C539 0.950 . S
H535 C543 0.949 . S
H536 C544 0.950 . S
H537 C545 0.951 . S
H538 C546 0.951 . S
C539 C533 1.265 . S
C539 H534 0.950 . S
C539 C540 1.478 . S
C540 C539 1.478 . S
C540 C541 1.397 . S
C540 C557 1.394 . S
C541 C540 1.397 . S
C541 C542 1.438 . S
C541 C546 1.429 . S
C542 C541 1.438 . S
C542 C543 1.428 . S
C542 C555 1.394 . S
C543 H535 0.949 . S
C543 C542 1.428 . S
C543 C544 1.345 . S
C544 H536 0.950 . S
C544 C543 1.345 . S
C544 C545 1.424 . S
C545 H537 0.951 . S
C545 C544 1.424 . S
C545 C546 1.347 . S
C546 H538 0.951 . S
C546 C541 1.429 . S
C546 C545 1.347 . S
H547 C548 0.951 . S
C548 H547 0.951 . S
C548 C554 1.265 . S
H549 C554 0.950 . S
H550 C558 0.949 . S
H551 C559 0.950 . S
H552 C560 0.951 . S
H553 C561 0.951 . S
C554 C548 1.265 . S
C554 H549 0.950 . S
C554 C555 1.478 . S
C555 C542 1.394 . S
C555 C554 1.478 . S
C555 C556 1.397 . S
C556 C555 1.397 . S
C556 C557 1.438 . S
C556 C561 1.429 . S
C557 C540 1.394 . S
C557 C556 1.438 . S
C557 C558 1.428 . S
C558 H550 0.949 . S
C558 C557 1.428 . S
C558 C559 1.345 . S
C559 H551 0.950 . S
C559 C558 1.345 . S
C559 C560 1.424 . S
C560 H552 0.951 . S
C560 C559 1.424 . S
C560 C561 1.347 . S
C561 H553 0.951 . S
C561 C556 1.429 . S
C561 C560 1.347 . S
H562 C563 0.951 . S
C563 H562 0.951 . S
C563 C569 1.265 . S
H564 C569 0.950 . S
H565 C573 0.949 . S
H566 C574 0.950 . S
H567 C575 0.951 . S
H568 C576 0.951 . S
C569 C563 1.265 . S
C569 H564 0.950 . S
C569 C570 1.478 . S
C570 C569 1.478 . S
C570 C571 1.397 . S
C570 C587 1.394 . S
C571 C570 1.397 . S
C571 C572 1.438 . S
C571 C576 1.429 . S
C572 C571 1.438 . S
C572 C573 1.428 . S
C572 C585 1.394 . S
C573 H565 0.949 . S
C573 C572 1.428 . S
C573 C574 1.345 . S
C574 H566 0.950 . S
C574 C573 1.345 . S
C574 C575 1.424 . S
C575 H567 0.951 . S
C575 C574 1.424 . S
C575 C576 1.347 . S
C576 H568 0.951 . S
C576 C571 1.429 . S
C576 C575 1.347 . S
H577 C578 0.951 . S
C578 H577 0.951 . S
C578 C584 1.265 . S
H579 C584 0.950 . S
H580 C588 0.949 . S
H581 C589 0.950 . S
H582 C590 0.951 . S
H583 C591 0.951 . S
C584 C578 1.265 . S
C584 H579 0.950 . S
C584 C585 1.478 . S
C585 C572 1.394 . S
C585 C584 1.478 . S
C585 C586 1.397 . S
C586 C585 1.397 . S
C586 C587 1.438 . S
C586 C591 1.429 . S
C587 C570 1.394 . S
C587 C586 1.438 . S
C587 C588 1.428 . S
C588 H580 0.949 . S
C588 C587 1.428 . S
C588 C589 1.345 . S
C589 H581 0.950 . S
C589 C588 1.345 . S
C589 C590 1.424 . S
C590 H582 0.951 . S
C590 C589 1.424 . S
C590 C591 1.347 . S
C591 H583 0.951 . S
C591 C586 1.429 . S
C591 C590 1.347 . S
C353 C29 0.863 . S
C368 C233 0.807 . S
C383 C108 0.866 . S
C398 C321 0.861 . S
C413 C49 0.846 . S
C428 C196 0.877 . S
C443 C145 0.866 . S
C458 C284 0.860 . S
C473 C137 1.657 . S
C488 C20 1.642 . S
C503 C117 1.656 . S
C518 C225 1.636 . S
C533 C313 1.619 . S
C548 C205 1.638 . S
C563 C293 1.636 . S
C578 C57 1.624 . S
