# Generated by pormake.
# Topology uoe, (4)-cn, num edge types: 1
# Building blocks:
#     Node 0, Type 0, BuildingBlock: GALJAG_clean_sbu_0, # of connection points: 4
#     Node 1, Type 0, BuildingBlock: GALJAG_clean_sbu_0, # of connection points: 4
#     Node 2, Type 0, BuildingBlock: GALJAG_clean_sbu_0, # of connection points: 4
#     Node 3, Type 0, BuildingBlock: GALJAG_clean_sbu_0, # of connection points: 4
#     Node 4, Type 0, BuildingBlock: GALJAG_clean_sbu_0, # of connection points: 4
#     Node 5, Type 0, BuildingBlock: GALJAG_clean_sbu_0, # of connection points: 4
#     Node 6, Type 0, BuildingBlock: GALJAG_clean_sbu_0, # of connection points: 4
#     Node 7, Type 0, BuildingBlock: GALJAG_clean_sbu_0, # of connection points: 4
#     Node 8, Type 0, BuildingBlock: GALJAG_clean_sbu_0, # of connection points: 4
#     Node 9, Type 0, BuildingBlock: GALJAG_clean_sbu_0, # of connection points: 4
#     Node 10, Type 0, BuildingBlock: GALJAG_clean_sbu_0, # of connection points: 4
#     Node 11, Type 0, BuildingBlock: GALJAG_clean_sbu_0, # of connection points: 4
#     Node 12, Type 0, BuildingBlock: GALJAG_clean_sbu_0, # of connection points: 4
#     Node 13, Type 0, BuildingBlock: GALJAG_clean_sbu_0, # of connection points: 4
#     Node 14, Type 0, BuildingBlock: GALJAG_clean_sbu_0, # of connection points: 4
#     Node 15, Type 0, BuildingBlock: GALJAG_clean_sbu_0, # of connection points: 4
#     Node 16, Type 0, BuildingBlock: GALJAG_clean_sbu_0, # of connection points: 4
#     Node 17, Type 0, BuildingBlock: GALJAG_clean_sbu_0, # of connection points: 4
#     Node 18, Type 0, BuildingBlock: GALJAG_clean_sbu_0, # of connection points: 4
#     Node 19, Type 0, BuildingBlock: GALJAG_clean_sbu_0, # of connection points: 4
#     Node 20, Type 0, BuildingBlock: GALJAG_clean_sbu_0, # of connection points: 4
#     Node 21, Type 0, BuildingBlock: GALJAG_clean_sbu_0, # of connection points: 4
#     Node 22, Type 0, BuildingBlock: GALJAG_clean_sbu_0, # of connection points: 4
#     Node 23, Type 0, BuildingBlock: GALJAG_clean_sbu_0, # of connection points: 4
#     Node 24, Type 0, BuildingBlock: GALJAG_clean_sbu_0, # of connection points: 4
#     Node 25, Type 0, BuildingBlock: GALJAG_clean_sbu_0, # of connection points: 4
#     Node 26, Type 0, BuildingBlock: GALJAG_clean_sbu_0, # of connection points: 4
#     Node 27, Type 0, BuildingBlock: GALJAG_clean_sbu_0, # of connection points: 4
#     Node 28, Type 0, BuildingBlock: GALJAG_clean_sbu_0, # of connection points: 4
#     Node 29, Type 0, BuildingBlock: GALJAG_clean_sbu_0, # of connection points: 4
#     Node 30, Type 0, BuildingBlock: GALJAG_clean_sbu_0, # of connection points: 4
#     Node 31, Type 0, BuildingBlock: GALJAG_clean_sbu_0, # of connection points: 4
#     Edge 32, Type (0, 0), BuildingBlock: XUDNAN_clean_linker_2, # of connection points: 2
#     Edge 33, Type (0, 0), BuildingBlock: XUDNAN_clean_linker_2, # of connection points: 2
#     Edge 34, Type (0, 0), BuildingBlock: XUDNAN_clean_linker_2, # of connection points: 2
#     Edge 35, Type (0, 0), BuildingBlock: XUDNAN_clean_linker_2, # of connection points: 2
#     Edge 36, Type (0, 0), BuildingBlock: XUDNAN_clean_linker_2, # of connection points: 2
#     Edge 37, Type (0, 0), BuildingBlock: XUDNAN_clean_linker_2, # of connection points: 2
#     Edge 38, Type (0, 0), BuildingBlock: XUDNAN_clean_linker_2, # of connection points: 2
#     Edge 39, Type (0, 0), BuildingBlock: XUDNAN_clean_linker_2, # of connection points: 2
#     Edge 40, Type (0, 0), BuildingBlock: XUDNAN_clean_linker_2, # of connection points: 2
#     Edge 41, Type (0, 0), BuildingBlock: XUDNAN_clean_linker_2, # of connection points: 2
#     Edge 42, Type (0, 0), BuildingBlock: XUDNAN_clean_linker_2, # of connection points: 2
#     Edge 43, Type (0, 0), BuildingBlock: XUDNAN_clean_linker_2, # of connection points: 2
#     Edge 44, Type (0, 0), BuildingBlock: XUDNAN_clean_linker_2, # of connection points: 2
#     Edge 45, Type (0, 0), BuildingBlock: XUDNAN_clean_linker_2, # of connection points: 2
#     Edge 46, Type (0, 0), BuildingBlock: XUDNAN_clean_linker_2, # of connection points: 2
#     Edge 47, Type (0, 0), BuildingBlock: XUDNAN_clean_linker_2, # of connection points: 2
#     Edge 48, Type (0, 0), BuildingBlock: XUDNAN_clean_linker_2, # of connection points: 2
#     Edge 49, Type (0, 0), BuildingBlock: XUDNAN_clean_linker_2, # of connection points: 2
#     Edge 50, Type (0, 0), BuildingBlock: XUDNAN_clean_linker_2, # of connection points: 2
#     Edge 51, Type (0, 0), BuildingBlock: XUDNAN_clean_linker_2, # of connection points: 2
#     Edge 52, Type (0, 0), BuildingBlock: XUDNAN_clean_linker_2, # of connection points: 2
#     Edge 53, Type (0, 0), BuildingBlock: XUDNAN_clean_linker_2, # of connection points: 2
#     Edge 54, Type (0, 0), BuildingBlock: XUDNAN_clean_linker_2, # of connection points: 2
#     Edge 55, Type (0, 0), BuildingBlock: XUDNAN_clean_linker_2, # of connection points: 2
#     Edge 56, Type (0, 0), BuildingBlock: XUDNAN_clean_linker_2, # of connection points: 2
#     Edge 57, Type (0, 0), BuildingBlock: XUDNAN_clean_linker_2, # of connection points: 2
#     Edge 58, Type (0, 0), BuildingBlock: XUDNAN_clean_linker_2, # of connection points: 2
#     Edge 59, Type (0, 0), BuildingBlock: XUDNAN_clean_linker_2, # of connection points: 2
#     Edge 60, Type (0, 0), BuildingBlock: XUDNAN_clean_linker_2, # of connection points: 2
#     Edge 61, Type (0, 0), BuildingBlock: XUDNAN_clean_linker_2, # of connection points: 2
#     Edge 62, Type (0, 0), BuildingBlock: XUDNAN_clean_linker_2, # of connection points: 2
#     Edge 63, Type (0, 0), BuildingBlock: XUDNAN_clean_linker_2, # of connection points: 2
#     Edge 64, Type (0, 0), BuildingBlock: XUDNAN_clean_linker_2, # of connection points: 2
#     Edge 65, Type (0, 0), BuildingBlock: XUDNAN_clean_linker_2, # of connection points: 2
#     Edge 66, Type (0, 0), BuildingBlock: XUDNAN_clean_linker_2, # of connection points: 2
#     Edge 67, Type (0, 0), BuildingBlock: XUDNAN_clean_linker_2, # of connection points: 2
#     Edge 68, Type (0, 0), BuildingBlock: XUDNAN_clean_linker_2, # of connection points: 2
#     Edge 69, Type (0, 0), BuildingBlock: XUDNAN_clean_linker_2, # of connection points: 2
#     Edge 70, Type (0, 0), BuildingBlock: XUDNAN_clean_linker_2, # of connection points: 2
#     Edge 71, Type (0, 0), BuildingBlock: XUDNAN_clean_linker_2, # of connection points: 2
#     Edge 72, Type (0, 0), BuildingBlock: XUDNAN_clean_linker_2, # of connection points: 2
#     Edge 73, Type (0, 0), BuildingBlock: XUDNAN_clean_linker_2, # of connection points: 2
#     Edge 74, Type (0, 0), BuildingBlock: XUDNAN_clean_linker_2, # of connection points: 2
#     Edge 75, Type (0, 0), BuildingBlock: XUDNAN_clean_linker_2, # of connection points: 2
#     Edge 76, Type (0, 0), BuildingBlock: XUDNAN_clean_linker_2, # of connection points: 2
#     Edge 77, Type (0, 0), BuildingBlock: XUDNAN_clean_linker_2, # of connection points: 2
#     Edge 78, Type (0, 0), BuildingBlock: XUDNAN_clean_linker_2, # of connection points: 2
#     Edge 79, Type (0, 0), BuildingBlock: XUDNAN_clean_linker_2, # of connection points: 2
#     Edge 80, Type (0, 0), BuildingBlock: XUDNAN_clean_linker_2, # of connection points: 2
#     Edge 81, Type (0, 0), BuildingBlock: XUDNAN_clean_linker_2, # of connection points: 2
#     Edge 82, Type (0, 0), BuildingBlock: XUDNAN_clean_linker_2, # of connection points: 2
#     Edge 83, Type (0, 0), BuildingBlock: XUDNAN_clean_linker_2, # of connection points: 2
#     Edge 84, Type (0, 0), BuildingBlock: XUDNAN_clean_linker_2, # of connection points: 2
#     Edge 85, Type (0, 0), BuildingBlock: XUDNAN_clean_linker_2, # of connection points: 2
#     Edge 86, Type (0, 0), BuildingBlock: XUDNAN_clean_linker_2, # of connection points: 2
#     Edge 87, Type (0, 0), BuildingBlock: XUDNAN_clean_linker_2, # of connection points: 2
#     Edge 88, Type (0, 0), BuildingBlock: XUDNAN_clean_linker_2, # of connection points: 2
#     Edge 89, Type (0, 0), BuildingBlock: XUDNAN_clean_linker_2, # of connection points: 2
#     Edge 90, Type (0, 0), BuildingBlock: XUDNAN_clean_linker_2, # of connection points: 2
#     Edge 91, Type (0, 0), BuildingBlock: XUDNAN_clean_linker_2, # of connection points: 2
#     Edge 92, Type (0, 0), BuildingBlock: XUDNAN_clean_linker_2, # of connection points: 2
#     Edge 93, Type (0, 0), BuildingBlock: XUDNAN_clean_linker_2, # of connection points: 2
#     Edge 94, Type (0, 0), BuildingBlock: XUDNAN_clean_linker_2, # of connection points: 2
#     Edge 95, Type (0, 0), BuildingBlock: XUDNAN_clean_linker_2, # of connection points: 2
# Relax obj value: 0.106
# Max RMSD: 0.167
# Mean RMSD: 0.167
data_MOF--net-uoe--node1-GALJAG_clean_sbu_0--edge1-XUDNAN_clean_linker_2
_symmetry_space_group_name_H-M    P1
_symmetry_Int_Tables_number       1
_symmetry_cell_setting            triclinic
loop_
_symmetry_equiv_pos_as_xyz
'x, y, z'
_cell_length_a     73.707666
_cell_length_b     73.716773
_cell_length_c     27.829214
_cell_angle_alpha  89.973776
_cell_angle_beta   89.991602
_cell_angle_gamma 89.981761
loop_
_atom_site_label
_atom_site_type_symbol
_atom_site_fract_x
_atom_site_fract_y
_atom_site_fract_z
_atom_type_partial_charge
In0 In 0.0978 0.46893 0.0769 0.0
O1 O 0.09596 0.43848 0.09441 0.0
O2 O 0.11992 0.44841 0.06091 0.0
C3 C 0.06355 0.48182 0.07595 0.0
C4 C 0.10862 0.47744 0.16617 0.0
C5 C 0.10768 0.48422 0.99323 0.0
O6 O 0.06702 0.46562 0.06373 0.0
O7 O 0.07718 0.49101 0.08827 0.0
O8 O 0.11269 0.49049 0.03344 0.0
O9 O 0.09818 0.46995 0.9954 0.0
C10 C 0.1118 0.43511 0.07953 0.0
O11 O 0.11745 0.48272 0.12974 0.0
O12 O 0.09464 0.46825 0.15696 0.0
In13 In 0.78704 0.83775 0.28639 0.0
O14 O 0.76807 0.85677 0.32771 0.0
O15 O 0.77356 0.83065 0.35691 0.0
C16 C 0.78123 0.84862 0.19487 0.0
C17 C 0.81609 0.85422 0.32596 0.0
C18 C 0.78289 0.80152 0.28112 0.0
O19 O 0.7688 0.84781 0.2259 0.0
O20 O 0.79674 0.84425 0.2101 0.0
O21 O 0.79817 0.80879 0.28877 0.0
O22 O 0.77001 0.81256 0.27479 0.0
C23 C 0.76578 0.84575 0.36195 0.0
O24 O 0.80127 0.86209 0.31751 0.0
O25 O 0.81692 0.83797 0.31151 0.0
In26 In 0.39492 0.51866 0.57037 0.0
O27 O 0.37274 0.50286 0.6111 0.0
O28 O 0.3946 0.5148 0.65003 0.0
C29 C 0.38392 0.5139 0.47907 0.0
C30 C 0.38446 0.55207 0.59737 0.0
C31 C 0.42867 0.5044 0.56788 0.0
O32 O 0.38291 0.50141 0.51 0.0
O33 O 0.39032 0.52871 0.49416 0.0
O34 O 0.42589 0.52128 0.56377 0.0
O35 O 0.41453 0.49499 0.57313 0.0
C36 C 0.37964 0.50655 0.65156 0.0
O37 O 0.40109 0.54775 0.5954 0.0
O38 O 0.37366 0.54014 0.58184 0.0
In39 In 0.71946 0.14996 0.83088 0.0
O40 O 0.74165 0.1389 0.87984 0.0
O41 O 0.71609 0.12589 0.8821 0.0
C42 C 0.72525 0.14061 0.73812 0.0
C43 C 0.68452 0.15166 0.86018 0.0
C44 C 0.73813 0.18117 0.84249 0.0
O45 O 0.72659 0.12935 0.77198 0.0
O46 O 0.72051 0.1563 0.75082 0.0
O47 O 0.72135 0.18111 0.83279 0.0
O48 O 0.74517 0.16566 0.84667 0.0
C49 C 0.73183 0.12702 0.89937 0.0
O50 O 0.69703 0.16069 0.87989 0.0
O51 O 0.68942 0.14295 0.82333 0.0
In52 In 0.09371 0.53574 0.57124 0.0
O53 O 0.11605 0.55248 0.53772 0.0
O54 O 0.09041 0.56536 0.54509 0.0
C55 C 0.05758 0.52973 0.57273 0.0
C56 C 0.10558 0.51473 0.4987 0.0
C57 C 0.10404 0.52995 0.66362 0.0
O58 O 0.06418 0.54554 0.56998 0.0
O59 O 0.06918 0.51719 0.57552 0.0
O60 O 0.10262 0.51747 0.63305 0.0
O61 O 0.10064 0.54558 0.64759 0.0
C62 C 0.10651 0.56631 0.52951 0.0
O63 O 0.08921 0.51935 0.50354 0.0
O64 O 0.11605 0.52017 0.53155 0.0
In65 In 0.71677 0.84312 0.78707 0.0
O66 O 0.68626 0.84548 0.76999 0.0
O67 O 0.70109 0.86951 0.78483 0.0
C68 C 0.71963 0.80707 0.80145 0.0
C69 C 0.72938 0.84892 0.69784 0.0
C70 C 0.734 0.85339 0.86806 0.0
O71 O 0.70517 0.81568 0.81075 0.0
O72 O 0.73234 0.81663 0.78472 0.0
O73 O 0.74162 0.85335 0.82744 0.0
O74 O 0.71751 0.84874 0.86761 0.0
C75 C 0.68622 0.86261 0.77198 0.0
O76 O 0.73316 0.8594 0.7323 0.0
O77 O 0.71982 0.83537 0.70886 0.0
In78 In 0.39141 0.48195 0.04555 0.0
O79 O 0.3977 0.46452 0.98062 0.0
O80 O 0.38742 0.45099 0.04231 0.0
C81 C 0.42425 0.49842 0.04209 0.0
C82 C 0.36689 0.49514 0.98325 0.0
C83 C 0.37989 0.48695 0.13697 0.0
O84 O 0.40949 0.50654 0.03486 0.0
O85 O 0.4226 0.48176 0.05181 0.0
O86 O 0.37399 0.49589 0.10176 0.0
O87 O 0.3913 0.47486 0.12613 0.0
C88 C 0.39228 0.44986 0.99884 0.0
O89 O 0.36393 0.48095 0.00751 0.0
O90 O 0.38149 0.50321 0.99352 0.0
In91 In 0.77523 0.14723 0.31263 0.0
O92 O 0.75583 0.12928 0.26923 0.0
O93 O 0.77548 0.1452 0.23202 0.0
C94 C 0.76603 0.13838 0.40328 0.0
C95 C 0.80862 0.13355 0.29754 0.0
C96 C 0.76174 0.18118 0.30648 0.0
O97 O 0.76049 0.1295 0.36739 0.0
O98 O 0.7765 0.15142 0.39354 0.0
O99 O 0.77837 0.17819 0.31478 0.0
O100 O 0.75218 0.16713 0.30123 0.0
C101 C 0.76295 0.1336 0.22944 0.0
O102 O 0.80576 0.15046 0.29631 0.0
O103 O 0.79522 0.12417 0.31068 0.0
In104 In 0.89853 0.51933 0.04429 0.0
O105 O 0.88222 0.4986 0.00031 0.0
O106 O 0.90195 0.51492 0.96487 0.0
C107 C 0.88616 0.50837 0.13121 0.0
C108 C 0.88272 0.55037 0.01488 0.0
C109 C 0.93489 0.51662 0.05489 0.0
O110 O 0.89269 0.49754 0.10077 0.0
O111 O 0.88548 0.52466 0.11758 0.0
O112 O 0.92626 0.53093 0.06514 0.0
O113 O 0.9252 0.50386 0.03916 0.0
C114 C 0.88959 0.50319 0.96111 0.0
O115 O 0.89921 0.5499 0.02755 0.0
O116 O 0.87421 0.53567 0.02045 0.0
In117 In 0.22951 0.15456 0.75629 0.0
O118 O 0.24226 0.13371 0.70523 0.0
O119 O 0.22754 0.1561 0.67621 0.0
C120 C 0.24303 0.14464 0.84207 0.0
C121 C 0.19538 0.14225 0.74791 0.0
C122 C 0.24407 0.18799 0.75038 0.0
O123 O 0.25053 0.14031 0.80287 0.0
O124 O 0.22842 0.15347 0.83787 0.0
O125 O 0.22795 0.18557 0.76489 0.0
O126 O 0.25248 0.17369 0.73934 0.0
C127 C 0.23603 0.14156 0.66826 0.0
O128 O 0.19891 0.15906 0.74629 0.0
O129 O 0.20868 0.13228 0.75885 0.0
In130 In 0.59436 0.47268 0.54651 0.0
O131 O 0.60788 0.49583 0.50521 0.0
O132 O 0.58501 0.48263 0.47394 0.0
C133 C 0.60458 0.47976 0.63775 0.0
C134 C 0.6163 0.44801 0.50484 0.0
C135 C 0.55805 0.47247 0.55741 0.0
O136 O 0.60263 0.49198 0.60644 0.0
O137 O 0.60194 0.46382 0.62269 0.0
O138 O 0.56698 0.4579 0.55222 0.0
O139 O 0.5675 0.48673 0.55768 0.0
C140 C 0.59732 0.4944 0.46961 0.0
O141 O 0.60023 0.44393 0.51676 0.0
O142 O 0.62132 0.46365 0.51722 0.0
In143 In 0.28624 0.84968 0.29937 0.0
O144 O 0.27379 0.87013 0.24657 0.0
O145 O 0.27769 0.84284 0.22405 0.0
C146 C 0.27058 0.86354 0.37882 0.0
C147 C 0.32016 0.8602 0.2748 0.0
C148 C 0.27912 0.81452 0.3189 0.0
O149 O 0.26277 0.86318 0.33847 0.0
O150 O 0.28668 0.85765 0.37867 0.0
O151 O 0.29403 0.82187 0.33018 0.0
O152 O 0.26806 0.82486 0.29784 0.0
C153 C 0.27273 0.85865 0.213 0.0
O154 O 0.31417 0.84446 0.26698 0.0
O155 O 0.30959 0.87021 0.29869 0.0
In156 In 0.90194 0.46225 0.55246 0.0
O157 O 0.90952 0.44128 0.6089 0.0
O158 O 0.89698 0.43162 0.54515 0.0
C159 C 0.93407 0.48005 0.54973 0.0
C160 C 0.88182 0.47528 0.62556 0.0
C161 C 0.88791 0.46795 0.46394 0.0
O162 O 0.93329 0.46292 0.55124 0.0
O163 O 0.91886 0.48782 0.54885 0.0
O164 O 0.88074 0.47412 0.50171 0.0
O165 O 0.90178 0.45825 0.47091 0.0
C166 C 0.9028 0.42797 0.58675 0.0
O167 O 0.87675 0.46185 0.60091 0.0
O168 O 0.89621 0.48271 0.61107 0.0
In169 In 0.28231 0.1533 0.27433 0.0
O170 O 0.29896 0.13126 0.30923 0.0
O171 O 0.31203 0.15668 0.29932 0.0
C172 C 0.27619 0.18908 0.28909 0.0
C173 C 0.25876 0.13701 0.33467 0.0
C174 C 0.27998 0.14612 0.17921 0.0
O175 O 0.28873 0.18047 0.30996 0.0
O176 O 0.26714 0.17981 0.2595 0.0
O177 O 0.26663 0.14539 0.20731 0.0
O178 O 0.2948 0.1503 0.19899 0.0
C179 C 0.31289 0.14078 0.31635 0.0
O180 O 0.26913 0.12814 0.30745 0.0
O181 O 0.25948 0.15395 0.32908 0.0
In182 In 0.58689 0.54426 0.0453 0.0
O183 O 0.58648 0.57446 0.06643 0.0
O184 O 0.61143 0.5627 0.04473 0.0
C185 C 0.55091 0.53983 0.03379 0.0
C186 C 0.59461 0.53149 0.13362 0.0
C187 C 0.59813 0.52755 0.96428 0.0
O188 O 0.55863 0.55486 0.02546 0.0
O189 O 0.56138 0.52725 0.04716 0.0
O190 O 0.59871 0.52009 0.00507 0.0
O191 O 0.59214 0.54361 0.96438 0.0
C192 C 0.6034 0.57641 0.06144 0.0
O193 O 0.60599 0.53094 0.09979 0.0
O194 O 0.57932 0.53781 0.12236 0.0
In195 In 0.22056 0.8483 0.7966 0.0
O196 O 0.19102 0.8439 0.82211 0.0
O197 O 0.20159 0.87074 0.81783 0.0
C198 C 0.2351 0.81492 0.78757 0.0
C199 C 0.2381 0.8585 0.87642 0.0
C200 C 0.22466 0.85995 0.70561 0.0
O201 O 0.21822 0.81705 0.7946 0.0
O202 O 0.24403 0.82945 0.78397 0.0
O203 O 0.2362 0.86306 0.73811 0.0
O204 O 0.21078 0.8513 0.71919 0.0
C205 C 0.18851 0.86068 0.82975 0.0
O206 O 0.23685 0.86899 0.84061 0.0
O207 O 0.23089 0.84313 0.8712 0.0
In208 In 0.60671 0.98918 0.5755 0.0
O209 O 0.60091 0.95934 0.59421 0.0
O210 O 0.62836 0.96852 0.59147 0.0
C211 C 0.57315 0.00403 0.57668 0.0
C212 C 0.62148 0.00211 0.65651 0.0
C213 C 0.61752 0.99434 0.48391 0.0
O214 O 0.57547 0.98709 0.57265 0.0
O215 O 0.58758 0.0131 0.57957 0.0
O216 O 0.61919 0.00638 0.51576 0.0
O217 O 0.61063 0.97964 0.49822 0.0
C218 C 0.61753 0.95573 0.60095 0.0
O219 O 0.62786 0.00637 0.61581 0.0
O220 O 0.60749 0.99227 0.65553 0.0
In221 In 0.29147 0.34944 0.7875 0.0
O222 O 0.32237 0.35032 0.79407 0.0
O223 O 0.30779 0.37517 0.79958 0.0
C224 C 0.28535 0.31451 0.76483 0.0
C225 C 0.28425 0.34841 0.88244 0.0
C226 C 0.27519 0.36406 0.7095 0.0
O227 O 0.3005 0.32209 0.75723 0.0
O228 O 0.27339 0.32464 0.78313 0.0
O229 O 0.26761 0.3638 0.75037 0.0
O230 O 0.29109 0.35766 0.70883 0.0
C231 C 0.32292 0.36718 0.80231 0.0
O232 O 0.27626 0.35968 0.85523 0.0
O233 O 0.29496 0.33778 0.86122 0.0
In234 In 0.89206 0.02405 0.05475 0.0
O235 O 0.89909 0.05013 0.09716 0.0
O236 O 0.87303 0.04765 0.06539 0.0
C237 C 0.92683 0.01499 0.07462 0.0
C238 C 0.87064 0.00387 0.11274 0.0
C239 C 0.88573 0.01886 0.95973 0.0
O240 O 0.91358 0.01076 0.10082 0.0
O241 O 0.9228 0.02481 0.0389 0.0
O242 O 0.88521 0.00608 0.98979 0.0
O243 O 0.88941 0.03413 0.97742 0.0
C244 C 0.88345 0.05687 0.09167 0.0
O245 O 0.86618 0.01941 0.09815 0.0
O246 O 0.88505 0.99783 0.09419 0.0
In247 In 0.21575 0.65756 0.33178 0.0
O248 O 0.23363 0.641 0.38328 0.0
O249 O 0.20962 0.6536 0.41017 0.0
C250 C 0.22842 0.64797 0.24462 0.0
C251 C 0.1812 0.64574 0.33471 0.0
C252 C 0.23089 0.6906 0.34253 0.0
O253 O 0.23056 0.63806 0.28126 0.0
O254 O 0.21964 0.66243 0.25182 0.0
O255 O 0.21489 0.68872 0.32657 0.0
O256 O 0.23882 0.67598 0.35315 0.0
C257 C 0.2232 0.64376 0.41872 0.0
O258 O 0.18514 0.66223 0.34218 0.0
O259 O 0.19437 0.63609 0.32104 0.0
In260 In 0.60562 0.03935 0.05982 0.0
O261 O 0.63163 0.04106 0.01467 0.0
O262 O 0.61253 0.02033 0.99883 0.0
C263 C 0.61852 0.03058 0.14778 0.0
C264 C 0.60565 0.07432 0.03108 0.0
C265 C 0.57268 0.02304 0.05754 0.0
O266 O 0.6246 0.02374 0.10957 0.0
O267 O 0.60636 0.0424 0.14169 0.0
O268 O 0.57431 0.03994 0.06385 0.0
O269 O 0.58746 0.01471 0.05266 0.0
C270 C 0.62721 0.02804 0.98772 0.0
O271 O 0.59876 0.06171 0.00645 0.0
O272 O 0.61136 0.06951 0.07197 0.0
In273 In 0.22722 0.34916 0.29438 0.0
O274 O 0.19666 0.34773 0.27441 0.0
O275 O 0.2132 0.36827 0.24325 0.0
C276 C 0.23238 0.31409 0.31914 0.0
C277 C 0.25155 0.35154 0.22198 0.0
C278 C 0.23127 0.36616 0.38019 0.0
O279 O 0.22017 0.31872 0.28952 0.0
O280 O 0.24122 0.3271 0.33684 0.0
O281 O 0.2439 0.3649 0.34976 0.0
O282 O 0.21623 0.35992 0.36609 0.0
C283 C 0.19782 0.36093 0.24543 0.0
O284 O 0.24521 0.36551 0.24221 0.0
O285 O 0.24631 0.33673 0.23961 0.0
In286 In 0.89611 0.97201 0.53284 0.0
O287 O 0.90277 0.94204 0.51906 0.0
O288 O 0.8756 0.94939 0.53616 0.0
C289 C 0.92876 0.98844 0.52858 0.0
C290 C 0.88157 0.97949 0.44651 0.0
C291 C 0.88579 0.98341 0.62072 0.0
O292 O 0.92715 0.97197 0.54076 0.0
O293 O 0.91405 0.99629 0.5185 0.0
O294 O 0.8805 0.99099 0.58245 0.0
O295 O 0.89585 0.96973 0.61459 0.0
C296 C 0.8864 0.93706 0.52302 0.0
O297 O 0.8743 0.98504 0.48501 0.0
O298 O 0.8963 0.97103 0.45198 0.0
In299 In 0.28445 0.65319 0.82418 0.0
O300 O 0.31509 0.65157 0.80737 0.0
O301 O 0.2999 0.62715 0.81173 0.0
C302 C 0.27892 0.6893 0.81791 0.0
C303 C 0.26608 0.64387 0.74463 0.0
C304 C 0.27615 0.64473 0.91617 0.0
O305 O 0.29463 0.68242 0.82001 0.0
O306 O 0.26608 0.67798 0.81967 0.0
O307 O 0.27061 0.63552 0.88096 0.0
O308 O 0.28619 0.65795 0.90523 0.0
C309 C 0.31486 0.63455 0.80192 0.0
O310 O 0.25923 0.64208 0.78603 0.0
O311 O 0.28173 0.65072 0.74383 0.0
In312 In 0.40905 0.0452 0.57253 0.0
O313 O 0.40849 0.07488 0.54718 0.0
O314 O 0.38358 0.06043 0.5517 0.0
C315 C 0.44525 0.0419 0.58362 0.0
C316 C 0.40254 0.02745 0.48988 0.0
C317 C 0.3976 0.03648 0.66197 0.0
O318 O 0.43736 0.05715 0.58467 0.0
O319 O 0.43483 0.0285 0.57791 0.0
O320 O 0.3999 0.02476 0.6295 0.0
O321 O 0.40071 0.0526 0.6491 0.0
C322 C 0.39157 0.07484 0.53949 0.0
O323 O 0.39255 0.02527 0.52639 0.0
O324 O 0.41596 0.03775 0.49625 0.0
In325 In 0.71969 0.6449 0.31567 0.0
O326 O 0.69233 0.65444 0.28344 0.0
O327 O 0.6993 0.62644 0.28105 0.0
C328 C 0.73611 0.67758 0.31745 0.0
C329 C 0.73909 0.62754 0.24823 0.0
C330 C 0.71962 0.635 0.40898 0.0
O331 O 0.71946 0.67596 0.30702 0.0
O332 O 0.74402 0.66292 0.32779 0.0
O333 O 0.73242 0.63142 0.38061 0.0
O334 O 0.7064 0.64324 0.39016 0.0
C335 C 0.68826 0.63867 0.26912 0.0
O336 O 0.73055 0.619 0.28037 0.0
O337 O 0.7383 0.64457 0.25139 0.0
In338 In 0.08806 0.96439 0.05421 0.0
O339 O 0.08625 0.96812 0.97387 0.0
O340 O 0.10144 0.98776 0.01331 0.0
C341 C 0.10021 0.97344 0.14297 0.0
C342 C 0.10561 0.93441 0.02384 0.0
C343 C 0.05182 0.96906 0.06414 0.0
O344 O 0.09791 0.98502 0.11014 0.0
O345 O 0.09685 0.95733 0.1307 0.0
O346 O 0.06213 0.98062 0.04531 0.0
O347 O 0.05965 0.9547 0.07772 0.0
C348 C 0.09582 0.9823 0.9728 0.0
O349 O 0.08861 0.93449 0.03046 0.0
O350 O 0.11356 0.94896 0.03519 0.0
In351 In 0.79989 0.33832 0.82277 0.0
O352 O 0.78812 0.36176 0.77776 0.0
O353 O 0.78173 0.33473 0.75795 0.0
C354 C 0.7938 0.35022 0.91344 0.0
C355 C 0.83215 0.34683 0.78201 0.0
C356 C 0.79229 0.30289 0.83654 0.0
O357 O 0.78187 0.351 0.88097 0.0
O358 O 0.8089 0.34401 0.89982 0.0
O359 O 0.80839 0.30885 0.83728 0.0
O360 O 0.7803 0.31479 0.82929 0.0
C361 C 0.78036 0.35134 0.74823 0.0
O362 O 0.82417 0.33197 0.77424 0.0
O363 O 0.82441 0.35687 0.8125 0.0
In364 In 0.41024 0.97581 0.07228 0.0
O365 O 0.40913 0.95324 0.12781 0.0
O366 O 0.39648 0.94804 0.0607 0.0
C367 C 0.44648 0.98009 0.0612 0.0
C368 C 0.39892 0.99353 0.15117 0.0
C369 C 0.39636 0.98902 0.98911 0.0
O370 O 0.43908 0.96464 0.06099 0.0
O371 O 0.43563 0.99313 0.06643 0.0
O372 O 0.39354 0.99636 0.02935 0.0
O373 O 0.40552 0.97459 0.99102 0.0
C374 C 0.39987 0.9425 0.10271 0.0
O375 O 0.38797 0.98512 0.12421 0.0
O376 O 0.41511 0.99383 0.13648 0.0
In377 In 0.77029 0.64527 0.82871 0.0
O378 O 0.75644 0.62468 0.87826 0.0
O379 O 0.77232 0.64589 0.90901 0.0
C380 C 0.75577 0.63484 0.74474 0.0
C381 C 0.80427 0.63212 0.83551 0.0
C382 C 0.75707 0.67945 0.83153 0.0
O383 O 0.74813 0.63182 0.78457 0.0
O384 O 0.77096 0.64272 0.74738 0.0
O385 O 0.77281 0.6761 0.81558 0.0
O386 O 0.74848 0.66574 0.84613 0.0
C387 C 0.76299 0.63179 0.91581 0.0
O388 O 0.80094 0.64887 0.84062 0.0
O389 O 0.79083 0.62271 0.82267 0.0
In390 In 0.09041 0.0375 0.55167 0.0
O391 O 0.09381 0.06834 0.55767 0.0
O392 O 0.11735 0.05161 0.56128 0.0
C393 C 0.05426 0.03297 0.54266 0.0
C394 C 0.09523 0.02769 0.64376 0.0
C395 C 0.10225 0.02223 0.4691 0.0
O396 O 0.06191 0.0479 0.53313 0.0
O397 O 0.0648 0.02062 0.55679 0.0
O398 O 0.10463 0.01494 0.50973 0.0
O399 O 0.09445 0.03747 0.47035 0.0
C400 C 0.11074 0.06736 0.565 0.0
O401 O 0.09939 0.01716 0.60955 0.0
O402 O 0.08818 0.04254 0.63136 0.0
In403 In 0.72933 0.34713 0.32469 0.0
O404 O 0.69953 0.35159 0.34666 0.0
O405 O 0.71366 0.3733 0.31343 0.0
C406 C 0.73033 0.31074 0.31469 0.0
C407 C 0.74248 0.35438 0.41315 0.0
C408 C 0.74689 0.35496 0.24204 0.0
O409 O 0.71607 0.3198 0.30665 0.0
O410 O 0.74382 0.32004 0.3277 0.0
O411 O 0.75437 0.35619 0.28279 0.0
O412 O 0.73044 0.35016 0.24311 0.0
C413 C 0.69924 0.36794 0.33316 0.0
O414 O 0.74686 0.36375 0.37695 0.0
O415 O 0.73199 0.34133 0.40425 0.0
H416 H 0.95597 0.4868 0.03606 0.0
H417 H 0.9586 0.54228 0.08783 0.0
H418 H 0.99172 0.53916 0.09881 0.0
H419 H 0.98927 0.46835 0.11707 0.0
H420 H 0.99881 0.45306 0.0733 0.0
H421 H 0.97532 0.45963 0.06915 0.0
H422 H 0.98058 0.47096 0.98212 0.0
H423 H 0.00408 0.4644 0.98596 0.0
H424 H 0.99814 0.4874 0.9705 0.0
H425 H 0.02425 0.53013 0.10424 0.0
H426 H 0.05445 0.51593 0.10377 0.0
H427 H 0.03107 0.46605 0.0486 0.0
C428 C 0.96352 0.4983 0.04966 0.0
C429 C 0.95473 0.51481 0.06109 0.0
C430 C 0.96506 0.52953 0.07883 0.0
C431 C 0.98386 0.52787 0.0852 0.0
C432 C 0.9921 0.51141 0.07366 0.0
C433 C 0.9823 0.49688 0.05625 0.0
C434 C 0.99451 0.48069 0.04669 0.0
C435 C 0.98916 0.46448 0.07846 0.0
C436 C 0.99431 0.47557 0.99313 0.0
C437 C 0.01274 0.48841 0.06146 0.0
C438 C 0.01097 0.50616 0.07687 0.0
C439 C 0.0258 0.51625 0.09226 0.0
C440 C 0.04292 0.50803 0.09183 0.0
C441 C 0.04514 0.48986 0.07615 0.0
C442 C 0.0298 0.47993 0.06082 0.0
H443 H 0.75076 0.78349 0.26969 0.0
H444 H 0.80787 0.77501 0.30036 0.0
H445 H 0.802 0.7423 0.31253 0.0
H446 H 0.73365 0.75312 0.35714 0.0
H447 H 0.71515 0.74502 0.32065 0.0
H448 H 0.72393 0.76756 0.31162 0.0
H449 H 0.72981 0.76042 0.2218 0.0
H450 H 0.72087 0.73791 0.23039 0.0
H451 H 0.7433 0.74093 0.20586 0.0
H452 H 0.78967 0.71101 0.32537 0.0
H453 H 0.77214 0.68273 0.33371 0.0
H454 H 0.72292 0.71148 0.2943 0.0
C455 C 0.76209 0.77472 0.27834 0.0
C456 C 0.7798 0.78175 0.28395 0.0
C457 C 0.79422 0.76987 0.29567 0.0
C458 C 0.791 0.7513 0.30277 0.0
C459 C 0.77331 0.74488 0.29787 0.0
C460 C 0.75911 0.75618 0.28552 0.0
C461 C 0.74131 0.74591 0.28339 0.0
C462 C 0.72771 0.75335 0.32041 0.0
C463 C 0.73336 0.74631 0.23232 0.0
C464 C 0.74769 0.72705 0.29687 0.0
C465 C 0.76619 0.72679 0.30512 0.0
C466 C 0.7752 0.71103 0.31875 0.0
C467 C 0.76509 0.69504 0.32355 0.0
C468 C 0.74615 0.69491 0.31466 0.0
C469 C 0.73736 0.71118 0.30136 0.0
H470 H 0.46169 0.52167 0.56408 0.0
H471 H 0.4369 0.46832 0.5697 0.0
H472 H 0.46725 0.45416 0.56852 0.0
H473 H 0.4982 0.50989 0.48431 0.0
H474 H 0.51456 0.52415 0.51413 0.0
H475 H 0.49085 0.53005 0.51539 0.0
H476 H 0.49171 0.53084 0.6085 0.0
H477 H 0.51541 0.5249 0.6075 0.0
H478 H 0.4996 0.5112 0.64103 0.0
H479 H 0.5005 0.44574 0.56567 0.0
H480 H 0.53406 0.44397 0.56207 0.0
H481 H 0.53686 0.50277 0.55986 0.0
C482 C 0.46266 0.50702 0.56501 0.0
C483 C 0.44694 0.4961 0.56691 0.0
C484 C 0.44877 0.47696 0.56824 0.0
C485 C 0.46595 0.46878 0.56758 0.0
C486 C 0.48119 0.47991 0.56578 0.0
C487 C 0.47971 0.49862 0.5646 0.0
C488 C 0.49822 0.50749 0.5629 0.0
C489 C 0.50059 0.51854 0.51641 0.0
C490 C 0.50142 0.5193 0.60765 0.0
C491 C 0.5103 0.49087 0.56314 0.0
C492 C 0.50026 0.47508 0.56475 0.0
C493 C 0.50852 0.45803 0.56457 0.0
C494 C 0.52755 0.45714 0.56254 0.0
C495 C 0.53805 0.4732 0.56088 0.0
C496 C 0.52922 0.49023 0.56138 0.0
H497 H 0.72699 0.21653 0.83047 0.0
H498 H 0.77407 0.18358 0.86457 0.0
H499 H 0.79295 0.21114 0.86907 0.0
H500 H 0.74996 0.24817 0.75534 0.0
H501 H 0.7371 0.26755 0.77539 0.0
H502 H 0.72706 0.24529 0.77684 0.0
H503 H 0.7203 0.24903 0.8677 0.0
H504 H 0.73028 0.27134 0.86648 0.0
H505 H 0.73855 0.25457 0.90826 0.0
H506 H 0.80708 0.24221 0.8665 0.0
H507 H 0.81512 0.27469 0.85856 0.0
H508 H 0.75884 0.28734 0.82713 0.0
C509 C 0.74123 0.21515 0.83929 0.0
C510 C 0.74905 0.19791 0.84721 0.0
C511 C 0.76777 0.19665 0.85838 0.0
C512 C 0.77863 0.21223 0.86104 0.0
C513 C 0.77056 0.229 0.8526 0.0
C514 C 0.75228 0.23059 0.84215 0.0
C515 C 0.74707 0.2502 0.83363 0.0
C516 C 0.73988 0.25296 0.78225 0.0
C517 C 0.73323 0.25666 0.87127 0.0
C518 C 0.7653 0.25935 0.84051 0.0
C519 C 0.77867 0.2469 0.85148 0.0
C520 C 0.79669 0.25211 0.85823 0.0
C521 C 0.80114 0.27056 0.8536 0.0
C522 C 0.78762 0.28352 0.84243 0.0
C523 C 0.76948 0.27776 0.83602 0.0
H524 H 0.04095 0.49653 0.5742 0.0
H525 H 0.0298 0.55425 0.56496 0.0
H526 H 0.99703 0.54766 0.55731 0.0
H527 H 0.00781 0.48234 0.48809 0.0
H528 H 0.00172 0.46199 0.52023 0.0
H529 H 0.02424 0.47122 0.52602 0.0
H530 H 0.02045 0.47259 0.61852 0.0
H531 H 0.99796 0.46327 0.61306 0.0
H532 H 0.00135 0.48451 0.64383 0.0
H533 H 0.96568 0.5348 0.54959 0.0
H534 H 0.93764 0.51672 0.54436 0.0
H535 H 0.9691 0.46719 0.55831 0.0
C536 C 0.03161 0.50781 0.57085 0.0
C537 C 0.0379 0.52593 0.57027 0.0
C538 C 0.02526 0.54028 0.56561 0.0
C539 C 0.00664 0.53666 0.56116 0.0
C540 C 0.00092 0.51863 0.56144 0.0
C541 C 0.01301 0.50443 0.56632 0.0
C542 C 0.00333 0.48628 0.56532 0.0
C543 C 0.00965 0.47478 0.52235 0.0
C544 C 0.00593 0.47607 0.61303 0.0
C545 C 0.98387 0.49248 0.55907 0.0
C546 C 0.98282 0.51119 0.55687 0.0
C547 C 0.96634 0.52015 0.5513 0.0
C548 C 0.95049 0.50974 0.54831 0.0
C549 C 0.95118 0.49054 0.55086 0.0
C550 C 0.96814 0.48183 0.55607 0.0
H551 H 0.77159 0.71176 0.79902 0.0
H552 H 0.72366 0.68846 0.86549 0.0
H553 H 0.70892 0.71844 0.86514 0.0
H554 H 0.77015 0.75458 0.86315 0.0
H555 H 0.77757 0.76774 0.81222 0.0
H556 H 0.78455 0.74443 0.81822 0.0
H557 H 0.77142 0.73739 0.73389 0.0
H558 H 0.76434 0.76067 0.72772 0.0
H559 H 0.748 0.74265 0.72126 0.0
H560 H 0.699 0.75079 0.85639 0.0
H561 H 0.695 0.78362 0.8412 0.0
H562 H 0.74926 0.78606 0.7809 0.0
C563 C 0.75804 0.71301 0.81369 0.0
C564 C 0.74879 0.69776 0.8323 0.0
C565 C 0.73104 0.69994 0.85105 0.0
C566 C 0.72252 0.71692 0.85101 0.0
C567 C 0.73192 0.73166 0.83216 0.0
C568 C 0.7493 0.72993 0.81398 0.0
C569 C 0.7563 0.74798 0.79563 0.0
C570 C 0.77314 0.75403 0.82401 0.0
C571 C 0.76024 0.74711 0.74141 0.0
C572 C 0.74012 0.76004 0.80624 0.0
C573 C 0.72619 0.75036 0.82727 0.0
C574 C 0.70982 0.75855 0.84003 0.0
C575 C 0.70765 0.77717 0.83122 0.0
C576 C 0.72179 0.78737 0.80993 0.0
C577 C 0.7382 0.77862 0.79729 0.0
H578 H 0.53207 0.50858 0.05087 0.0
H579 H 0.525 0.56488 0.00914 0.0
H580 H 0.49174 0.5603 0.00635 0.0
H581 H 0.49633 0.49013 0.97661 0.0
H582 H 0.4896 0.47351 0.02067 0.0
H583 H 0.51277 0.48121 0.01836 0.0
H584 H 0.51101 0.49043 0.10808 0.0
H585 H 0.48781 0.48283 0.11065 0.0
H586 H 0.49342 0.50575 0.12764 0.0
H587 H 0.45932 0.54968 0.01003 0.0
H588 H 0.43004 0.53378 0.01801 0.0
H589 H 0.45836 0.4843 0.0572 0.0
C590 C 0.52355 0.51994 0.04087 0.0
C591 C 0.53109 0.5371 0.03013 0.0
C592 C 0.51949 0.55162 0.01738 0.0
C593 C 0.50061 0.54914 0.01577 0.0
C594 C 0.49361 0.53207 0.02694 0.0
C595 C 0.50473 0.5177 0.03907 0.0
C596 C 0.49382 0.50077 0.04992 0.0
C597 C 0.4984 0.48551 0.01425 0.0
C598 C 0.49669 0.49459 0.10218 0.0
C599 C 0.47476 0.50785 0.04219 0.0
C600 C 0.47496 0.52594 0.02897 0.0
C601 C 0.45902 0.53552 0.02023 0.0
C602 C 0.44245 0.52636 0.02494 0.0
C603 C 0.44192 0.5078 0.03823 0.0
C604 C 0.45833 0.49848 0.04698 0.0
H605 H 0.76004 0.28918 0.32848 0.0
H606 H 0.70306 0.28726 0.28962 0.0
H607 H 0.70503 0.25385 0.28214 0.0
H608 H 0.77506 0.25388 0.24809 0.0
H609 H 0.7915 0.24493 0.28981 0.0
H610 H 0.78557 0.26863 0.29162 0.0
H611 H 0.77697 0.26557 0.38156 0.0
H612 H 0.78287 0.24187 0.38005 0.0
H613 H 0.76057 0.24873 0.39952 0.0
H614 H 0.71321 0.22066 0.28033 0.0
H615 H 0.72687 0.19011 0.28374 0.0
H616 H 0.77866 0.21383 0.3232 0.0
C617 C 0.74797 0.28175 0.3183 0.0
C618 C 0.73137 0.2908 0.30963 0.0
C619 C 0.7159 0.28059 0.2964 0.0
C620 C 0.7169 0.26163 0.29207 0.0
C621 C 0.73348 0.25314 0.30098 0.0
C622 C 0.74875 0.26288 0.31374 0.0
C623 C 0.7649 0.25051 0.32166 0.0
C624 C 0.78016 0.25474 0.28564 0.0
C625 C 0.77172 0.25175 0.3738 0.0
C626 C 0.75634 0.23225 0.31155 0.0
C627 C 0.73822 0.23407 0.29968 0.0
C628 C 0.72739 0.21908 0.28945 0.0
C629 C 0.73529 0.20179 0.29151 0.0
C630 C 0.75383 0.1996 0.30365 0.0
C631 C 0.76447 0.21508 0.31363 0.0
H632 H 0.25455 0.29516 0.78442 0.0
H633 H 0.30864 0.28998 0.72427 0.0
H634 H 0.30344 0.25719 0.71178 0.0
H635 H 0.25466 0.25352 0.84862 0.0
H636 H 0.23111 0.24851 0.8374 0.0
H637 H 0.23869 0.27171 0.8393 0.0
H638 H 0.22553 0.27716 0.75416 0.0
H639 H 0.21785 0.25398 0.75205 0.0
H640 H 0.23242 0.26264 0.70534 0.0
H641 H 0.29286 0.22498 0.70883 0.0
H642 H 0.27763 0.19533 0.71477 0.0
H643 H 0.23027 0.22129 0.77707 0.0
C644 C 0.26524 0.28716 0.76818 0.0
C645 C 0.282 0.2951 0.75514 0.0
C646 C 0.2957 0.28417 0.73438 0.0
C647 C 0.29286 0.26555 0.72716 0.0
C648 C 0.27625 0.25813 0.74085 0.0
C649 C 0.26265 0.26857 0.7608 0.0
C650 C 0.24624 0.25714 0.77361 0.0
C651 C 0.24246 0.25776 0.82796 0.0
C652 C 0.22952 0.26309 0.74455 0.0
C653 C 0.25281 0.23857 0.75814 0.0
C654 C 0.27014 0.23949 0.73921 0.0
C655 C 0.27927 0.2241 0.72335 0.0
C656 C 0.27049 0.20732 0.72697 0.0
C657 C 0.25275 0.206 0.74633 0.0
C658 C 0.2438 0.22189 0.76193 0.0
H659 H 0.24817 0.79613 0.29504 0.0
H660 H 0.30024 0.78956 0.36575 0.0
H661 H 0.29292 0.7574 0.38217 0.0
H662 H 0.22235 0.76708 0.37479 0.0
H663 H 0.20844 0.758 0.3273 0.0
H664 H 0.21756 0.78059 0.32228 0.0
H665 H 0.23245 0.77214 0.24096 0.0
H666 H 0.22334 0.74954 0.24566 0.0
H667 H 0.2474 0.75281 0.23785 0.0
H668 H 0.28029 0.72593 0.3889 0.0
H669 H 0.26353 0.69705 0.38477 0.0
H670 H 0.21948 0.72403 0.30983 0.0
C671 C 0.25801 0.78795 0.31418 0.0
C672 C 0.27479 0.79532 0.32922 0.0
C673 C 0.28732 0.78417 0.35396 0.0
C674 C 0.28326 0.76592 0.36349 0.0
C675 C 0.26661 0.75907 0.34809 0.0
C676 C 0.25418 0.76973 0.32395 0.0
C677 C 0.23743 0.75895 0.31034 0.0
C678 C 0.22044 0.76662 0.33517 0.0
C679 C 0.23502 0.75832 0.25545 0.0
C680 C 0.24243 0.74049 0.33029 0.0
C681 C 0.25929 0.74091 0.35205 0.0
C682 C 0.26705 0.72546 0.37215 0.0
C683 C 0.25741 0.70911 0.36958 0.0
C684 C 0.24017 0.7083 0.34709 0.0
C685 C 0.23255 0.72427 0.32758 0.0
H686 H 0.2511 0.21117 0.24529 0.0
H687 H 0.29039 0.20962 0.36139 0.0
H688 H 0.28134 0.24053 0.38562 0.0
H689 H 0.25838 0.2578 0.21374 0.0
H690 H 0.23489 0.26215 0.19987 0.0
H691 H 0.24401 0.23965 0.19287 0.0
H692 H 0.21891 0.22709 0.24896 0.0
H693 H 0.20985 0.24962 0.25662 0.0
H694 H 0.21631 0.23644 0.30843 0.0
H695 H 0.2685 0.27151 0.39673 0.0
H696 H 0.25463 0.30182 0.38979 0.0
H697 H 0.2237 0.28376 0.26606 0.0
C698 C 0.2578 0.21736 0.27578 0.0
C699 C 0.27145 0.208 0.30152 0.0
C700 C 0.27995 0.21656 0.34108 0.0
C701 C 0.27482 0.23406 0.35531 0.0
C702 C 0.26119 0.24284 0.32954 0.0
C703 C 0.25291 0.23489 0.29032 0.0
C704 C 0.23918 0.24763 0.26766 0.0
C705 C 0.24444 0.25207 0.21545 0.0
C706 C 0.21992 0.23972 0.27061 0.0
C707 C 0.24119 0.26406 0.29999 0.0
C708 C 0.25382 0.26088 0.33575 0.0
C709 C 0.25853 0.27415 0.36904 0.0
C710 C 0.25054 0.29131 0.36485 0.0
C711 C 0.23801 0.29511 0.32758 0.0
C712 C 0.23299 0.28116 0.29539 0.0
H713 H 0.24631 0.70736 0.81963 0.0
H714 H 0.30428 0.71571 0.80319 0.0
H715 H 0.299 0.74848 0.79106 0.0
H716 H 0.2319 0.74 0.73104 0.0
H717 H 0.21257 0.74762 0.76519 0.0
H718 H 0.22077 0.72474 0.77221 0.0
H719 H 0.22418 0.72979 0.86388 0.0
H720 H 0.2159 0.75264 0.8572 0.0
H721 H 0.23754 0.74859 0.88541 0.0
H722 H 0.28761 0.77997 0.77982 0.0
H723 H 0.2711 0.80889 0.77483 0.0
H724 H 0.22027 0.78069 0.80021 0.0
C725 C 0.25789 0.7161 0.81351 0.0
C726 C 0.27573 0.709 0.81223 0.0
C727 C 0.29053 0.72086 0.80434 0.0
C728 C 0.28765 0.73947 0.79727 0.0
C729 C 0.26991 0.74601 0.7984 0.0
C730 C 0.25527 0.73475 0.80666 0.0
C731 C 0.23762 0.74538 0.80705 0.0
C732 C 0.22497 0.73906 0.76645 0.0
C733 C 0.22826 0.74402 0.85632 0.0
C734 C 0.24464 0.7644 0.79777 0.0
C735 C 0.2633 0.76436 0.79259 0.0
C736 C 0.27301 0.78019 0.78387 0.0
C737 C 0.26347 0.79656 0.781 0.0
C738 C 0.24437 0.79708 0.78708 0.0
C739 C 0.23483 0.78072 0.7952 0.0
H740 H 0.46477 0.01036 0.5785 0.0
H741 H 0.47072 0.06864 0.59404 0.0
H742 H 0.50408 0.06512 0.59457 0.0
H743 H 0.50256 0.99766 0.65494 0.0
H744 H 0.50909 0.97874 0.61774 0.0
H745 H 0.48571 0.98583 0.61999 0.0
H746 H 0.48551 0.98941 0.52736 0.0
H747 H 0.5089 0.98242 0.52483 0.0
H748 H 0.50214 0.0038 0.499 0.0
H749 H 0.53662 0.05536 0.59121 0.0
H750 H 0.5663 0.04012 0.58606 0.0
H751 H 0.53933 0.98801 0.57256 0.0
C752 C 0.47309 0.02238 0.58239 0.0
C753 C 0.46517 0.0398 0.58636 0.0
C754 C 0.4765 0.05519 0.5911 0.0
C755 C 0.49545 0.05331 0.59137 0.0
C756 C 0.50281 0.03596 0.58692 0.0
C757 C 0.492 0.02075 0.58269 0.0
C758 C 0.50334 0.00368 0.57776 0.0
C759 C 0.49997 0.99072 0.62014 0.0
C760 C 0.49976 0.99428 0.52936 0.0
C761 C 0.52226 0.01167 0.57964 0.0
C762 C 0.52161 0.03032 0.58496 0.0
C763 C 0.53729 0.04078 0.5872 0.0
C764 C 0.55409 0.03197 0.58417 0.0
C765 C 0.55514 0.01287 0.57892 0.0
C766 C 0.53897 0.00262 0.57657 0.0
H767 H 0.95856 0.02231 0.02583 0.0
H768 H 0.93613 0.98959 0.14117 0.0
H769 H 0.96544 0.97387 0.15013 0.0
H770 H 0.98561 0.98786 0.97255 0.0
H771 H 0.00448 0.00252 0.95874 0.0
H772 H 0.98186 0.01169 0.96194 0.0
H773 H 0.99237 0.0351 0.02559 0.0
H774 H 0.01507 0.02613 0.02213 0.0
H775 H 0.00361 0.02728 0.07928 0.0
H776 H 0.99658 0.96021 0.1431 0.0
H777 H 0.0286 0.95211 0.12653 0.0
H778 H 0.0312 0.99456 0.01874 0.0
C779 C 0.95991 0.012 0.05333 0.0
C780 C 0.94506 0.00717 0.08274 0.0
C781 C 0.94733 0.99357 0.11828 0.0
C782 C 0.96391 0.98448 0.12354 0.0
C783 C 0.97817 0.98927 0.09336 0.0
C784 C 0.97646 0.0029 0.05948 0.0
C785 C 0.994 0.00551 0.03197 0.0
C786 C 0.99132 0.00166 0.97811 0.0
C787 C 0.00172 0.02464 0.04026 0.0
C788 C 0.00574 0.99113 0.05541 0.0
C789 C 0.99631 0.98179 0.09042 0.0
C790 C 0.00417 0.96754 0.11606 0.0
C791 C 0.02229 0.96295 0.10625 0.0
C792 C 0.03233 0.97275 0.07157 0.0
C793 C 0.02386 0.98691 0.0457 0.0
H794 H 0.53835 0.03752 0.06618 0.0
H795 H 0.56724 0.98684 0.04472 0.0
H796 H 0.53816 0.97038 0.04178 0.0
H797 H 0.50349 0.01949 0.14262 0.0
H798 H 0.48576 0.03347 0.11777 0.0
H799 H 0.50887 0.04138 0.11745 0.0
H800 H 0.50719 0.04599 0.02521 0.0
H801 H 0.48407 0.03808 0.02527 0.0
H802 H 0.50068 0.02725 0.98735 0.0
H803 H 0.50597 0.95923 0.04251 0.0
H804 H 0.47279 0.95437 0.04687 0.0
H805 H 0.46485 0.01221 0.06712 0.0
C806 C 0.53853 0.02297 0.0608 0.0
C807 C 0.55506 0.01347 0.05571 0.0
C808 C 0.55474 0.99442 0.04873 0.0
C809 C 0.53829 0.98493 0.04696 0.0
C810 C 0.52224 0.99467 0.05214 0.0
C811 C 0.52219 0.01326 0.05887 0.0
C812 C 0.50302 0.02041 0.06383 0.0
C813 C 0.50012 0.0292 0.11337 0.0
C814 C 0.49847 0.03372 0.02297 0.0
C815 C 0.49235 0.00294 0.05906 0.0
C816 C 0.50368 0.98824 0.0523 0.0
C817 C 0.49694 0.97065 0.04764 0.0
C818 C 0.4781 0.968 0.05016 0.0
C819 C 0.46627 0.98289 0.05719 0.0
C820 C 0.47355 0.00056 0.06149 0.0
H821 H 0.0356 0.00171 0.5609 0.0
H822 H 0.02847 0.05721 0.51233 0.0
H823 H 0.99553 0.05171 0.50291 0.0
H824 H 0.00327 0.98141 0.4808 0.0
H825 H 0.99536 0.96512 0.52434 0.0
H826 H 0.01829 0.97348 0.52741 0.0
H827 H 0.01296 0.98376 0.61533 0.0
H828 H 0.99003 0.9754 0.61258 0.0
H829 H 0.99427 0.99869 0.62885 0.0
H830 H 0.96351 0.0401 0.49894 0.0
H831 H 0.93452 0.02343 0.50105 0.0
H832 H 0.96261 0.97537 0.55209 0.0
C833 C 0.02711 0.01273 0.54831 0.0
C834 C 0.03455 0.02991 0.53734 0.0
C835 C 0.02302 0.04396 0.52095 0.0
C836 C 0.00433 0.04095 0.51548 0.0
C837 C 0.99745 0.02383 0.52654 0.0
C838 C 0.00848 0.00996 0.54264 0.0
C839 C 0.99771 0.99281 0.55211 0.0
C840 C 0.00404 0.97729 0.51919 0.0
C841 C 0.99881 0.98735 0.60538 0.0
C842 C 0.97885 0.9992 0.53885 0.0
C843 C 0.97901 0.01712 0.52417 0.0
C844 C 0.96322 0.02607 0.51033 0.0
C845 C 0.94683 0.01647 0.51165 0.0
C846 C 0.94632 0.9981 0.52669 0.0
C847 C 0.96259 0.98938 0.54033 0.0
H848 H 0.10288 0.47091 0.90249 0.0
H849 H 0.12025 0.51882 0.98031 0.0
H850 H 0.12309 0.53553 0.90354 0.0
H851 H 0.13272 0.47768 0.79753 0.0
H852 H 0.11589 0.46923 0.75622 0.0
H853 H 0.1166 0.46082 0.817 0.0
H854 H 0.08287 0.46982 0.82842 0.0
H855 H 0.08209 0.47835 0.76788 0.0
H856 H 0.07599 0.49292 0.81731 0.0
H857 H 0.12065 0.54787 0.81873 0.0
H858 H 0.11541 0.55407 0.7323 0.0
H859 H 0.10127 0.49758 0.71029 0.0
C860 C 0.10758 0.48483 0.90331 0.0
C861 C 0.11136 0.49359 0.94728 0.0
C862 C 0.11739 0.51183 0.94695 0.0
C863 C 0.11901 0.52143 0.90355 0.0
C864 C 0.11481 0.51249 0.86082 0.0
C865 C 0.10948 0.4945 0.86036 0.0
C866 C 0.10525 0.48815 0.80989 0.0
C867 C 0.1184 0.47308 0.79424 0.0
C868 C 0.08537 0.48195 0.80565 0.0
C869 C 0.10857 0.50548 0.78211 0.0
C870 C 0.11405 0.5194 0.81204 0.0
C871 C 0.11669 0.53699 0.79484 0.0
C872 C 0.11364 0.54041 0.74581 0.0
C873 C 0.10817 0.52627 0.71464 0.0
C874 C 0.10579 0.50859 0.73312 0.0
H875 H 0.72054 0.85344 0.95969 0.0
H876 H 0.77015 0.8608 0.87804 0.0
H877 H 0.78751 0.86319 0.95371 0.0
H878 H 0.7327 0.8841 0.06046 0.0
H879 H 0.72206 0.86957 0.10427 0.0
H880 H 0.71335 0.87055 0.0438 0.0
H881 H 0.71681 0.83567 0.03645 0.0
H882 H 0.72561 0.83458 0.09665 0.0
H883 H 0.73863 0.8254 0.0475 0.0
H884 H 0.79987 0.8611 0.03786 0.0
H885 H 0.80602 0.85596 0.12421 0.0
H886 H 0.74825 0.85079 0.15068 0.0
C887 C 0.735 0.85596 0.95774 0.0
C888 C 0.744 0.857 0.91305 0.0
C889 C 0.76297 0.86007 0.91194 0.0
C890 C 0.77294 0.86145 0.95472 0.0
C891 C 0.76371 0.85992 0.99824 0.0
C892 C 0.74513 0.85745 5e-05 0.0
C893 C 0.73861 0.85514 0.05128 0.0
C894 C 0.72593 0.87078 0.0658 0.0
C895 C 0.72938 0.8366 0.05836 0.0
C896 C 0.75648 0.85616 0.07789 0.0
C897 C 0.7708 0.85903 0.04674 0.0
C898 C 0.78873 0.85918 0.0627 0.0
C899 C 0.79211 0.85619 0.11172 0.0
C900 C 0.77761 0.85315 0.14408 0.0
C901 C 0.75959 0.85339 0.12689 0.0
H902 H 0.38919 0.46892 0.22007 0.0
H903 H 0.36056 0.51628 0.16669 0.0
H904 H 0.3561 0.52696 0.24969 0.0
H905 H 0.36081 0.46318 0.33059 0.0
H906 H 0.37999 0.4561 0.36611 0.0
H907 H 0.37931 0.45114 0.30271 0.0
H908 H 0.41029 0.4672 0.29163 0.0
H909 H 0.41101 0.47232 0.3548 0.0
H910 H 0.41288 0.49036 0.31132 0.0
H911 H 0.359 0.53496 0.33606 0.0
H912 H 0.3662 0.53805 0.42251 0.0
H913 H 0.39054 0.48453 0.422 0.0
C914 C 0.38162 0.48131 0.226 0.0
C915 C 0.37522 0.49177 0.18698 0.0
C916 C 0.36552 0.508 0.19606 0.0
C917 C 0.36291 0.5142 0.24308 0.0
C918 C 0.36979 0.50384 0.28072 0.0
C919 C 0.37864 0.48756 0.27291 0.0
C920 C 0.38535 0.47949 0.31978 0.0
C921 C 0.37579 0.4614 0.33042 0.0
C922 C 0.40611 0.47722 0.31933 0.0
C923 C 0.37949 0.49411 0.35479 0.0
C924 C 0.37056 0.50805 0.33141 0.0
C925 C 0.36551 0.52393 0.35508 0.0
C926 C 0.36971 0.52561 0.40398 0.0
C927 C 0.37855 0.51138 0.42868 0.0
C928 C 0.38328 0.49535 0.40399 0.0
H929 H 0.7374 0.16407 0.67009 0.0
H930 H 0.72458 0.10739 0.6941 0.0
H931 H 0.73355 0.10036 0.61022 0.0
H932 H 0.72284 0.1672 0.5472 0.0
H933 H 0.74133 0.18178 0.52967 0.0
H934 H 0.73304 0.18224 0.59053 0.0
H935 H 0.76546 0.17546 0.62191 0.0
H936 H 0.77383 0.17489 0.56114 0.0
H937 H 0.77737 0.15572 0.60027 0.0
H938 H 0.74294 0.10006 0.52226 0.0
H939 H 0.7542 0.10601 0.43978 0.0
H940 H 0.76338 0.16235 0.47719 0.0
C941 C 0.7363 0.15021 0.6575 0.0
C942 C 0.73008 0.13627 0.68807 0.0
C943 C 0.72923 0.11823 0.6709 0.0
C944 C 0.73427 0.11415 0.62343 0.0
C945 C 0.74045 0.12823 0.59417 0.0
C946 C 0.74168 0.14585 0.6108 0.0
C947 C 0.74954 0.15839 0.57314 0.0
C948 C 0.73587 0.17328 0.55932 0.0
C949 C 0.76762 0.16659 0.59014 0.0
C950 C 0.7524 0.14512 0.53244 0.0
C951 C 0.74689 0.12783 0.54496 0.0
C952 C 0.74749 0.1135 0.51228 0.0
C953 C 0.75387 0.11699 0.46562 0.0
C954 C 0.75986 0.13455 0.45259 0.0
C955 C 0.7592 0.14871 0.48657 0.0
H956 H 0.89909 0.47936 0.18154 0.0
H957 H 0.86239 0.52515 0.19188 0.0
H958 H 0.85582 0.51714 0.27647 0.0
H959 H 0.87462 0.44811 0.26366 0.0
H960 H 0.8954 0.43965 0.28945 0.0
H961 H 0.89499 0.44723 0.22786 0.0
H962 H 0.92127 0.46957 0.24578 0.0
H963 H 0.92176 0.46208 0.30727 0.0
H964 H 0.91881 0.48582 0.29376 0.0
H965 H 0.85506 0.50557 0.36121 0.0
H966 H 0.86203 0.49306 0.44139 0.0
H967 H 0.90064 0.45584 0.37706 0.0
C968 C 0.8893 0.48738 0.2013 0.0
C969 C 0.88099 0.50269 0.18017 0.0
C970 C 0.86874 0.51327 0.20745 0.0
C971 C 0.86488 0.50877 0.25538 0.0
C972 C 0.87353 0.49375 0.2755 0.0
C973 C 0.88558 0.48328 0.24942 0.0
C974 C 0.89462 0.46915 0.28092 0.0
C975 C 0.8896 0.44989 0.26449 0.0
C976 C 0.91534 0.47183 0.28199 0.0
C977 C 0.8861 0.47357 0.32902 0.0
C978 C 0.87368 0.48755 0.32491 0.0
C979 C 0.86463 0.49452 0.36479 0.0
C980 C 0.86866 0.4873 0.41019 0.0
C981 C 0.88184 0.47345 0.41542 0.0
C982 C 0.89039 0.46631 0.37412 0.0
H983 H 0.22717 0.1473 0.93051 0.0
H984 H 0.27804 0.13438 0.85995 0.0
H985 H 0.29303 0.13181 0.93918 0.0
H986 H 0.24498 0.17454 0.02162 0.0
H987 H 0.22975 0.1667 0.06786 0.0
H988 H 0.22278 0.16617 0.00593 0.0
H989 H 0.21609 0.13174 0.01277 0.0
H990 H 0.22292 0.13219 0.07493 0.0
H991 H 0.23361 0.11662 0.03379 0.0
H992 H 0.30308 0.13405 0.026 0.0
H993 H 0.30669 0.13819 0.11389 0.0
H994 H 0.24886 0.14787 0.12697 0.0
C995 C 0.24139 0.14364 0.93178 0.0
C996 C 0.25147 0.14104 0.88922 0.0
C997 C 0.27006 0.13632 0.89223 0.0
C998 C 0.27869 0.13488 0.93703 0.0
C999 C 0.26845 0.13791 0.97836 0.0
C1000 C 0.25014 0.14189 0.97611 0.0
C1001 C 0.24226 0.14493 0.02565 0.0
C1002 C 0.23449 0.16423 0.03052 0.0
C1003 C 0.22787 0.13051 0.03747 0.0
C1004 C 0.25909 0.14249 0.05606 0.0
C1005 C 0.27409 0.13849 0.02823 0.0
C1006 C 0.29137 0.13685 0.04825 0.0
C1007 C 0.29332 0.13928 0.09805 0.0
C1008 C 0.27803 0.14313 0.12709 0.0
C1009 C 0.26074 0.14461 0.10571 0.0
H1010 H 0.59771 0.54072 0.8722 0.0
H1011 H 0.60916 0.4923 0.95558 0.0
H1012 H 0.61483 0.47527 0.88064 0.0
H1013 H 0.57365 0.51933 0.7803 0.0
H1014 H 0.5823 0.5334 0.73253 0.0
H1015 H 0.58096 0.54219 0.79271 0.0
H1016 H 0.61529 0.54981 0.79057 0.0
H1017 H 0.61673 0.54105 0.73024 0.0
H1018 H 0.63142 0.53222 0.77644 0.0
H1019 H 0.61612 0.46279 0.79654 0.0
H1020 H 0.61364 0.45608 0.70968 0.0
H1021 H 0.60224 0.51283 0.68142 0.0
C1022 C 0.60172 0.52662 0.87471 0.0
C1023 C 0.60305 0.51784 0.91968 0.0
C1024 C 0.60814 0.49932 0.92149 0.0
C1025 C 0.61141 0.48954 0.87913 0.0
C1026 C 0.60969 0.49852 0.83529 0.0
C1027 C 0.60511 0.51669 0.83281 0.0
C1028 C 0.60321 0.5229 0.78119 0.0
C1029 C 0.58389 0.52986 0.77111 0.0
C1030 C 0.61752 0.53735 0.7689 0.0
C1031 C 0.60695 0.50529 0.75506 0.0
C1032 C 0.61076 0.49139 0.78685 0.0
C1033 C 0.61345 0.47362 0.77125 0.0
C1034 C 0.61199 0.46993 0.72191 0.0
C1035 C 0.60795 0.48396 0.68887 0.0
C1036 C 0.60569 0.50188 0.70575 0.0
H1037 H 0.25734 0.86426 0.66159 0.0
H1038 H 0.19939 0.86531 0.63515 0.0
H1039 H 0.20515 0.87067 0.54863 0.0
H1040 H 0.27126 0.8976 0.56888 0.0
H1041 H 0.29119 0.88472 0.55315 0.0
H1042 H 0.28252 0.88398 0.61369 0.0
H1043 H 0.28054 0.84892 0.60888 0.0
H1044 H 0.2892 0.84955 0.5485 0.0
H1045 H 0.26784 0.83858 0.56077 0.0
H1046 H 0.21725 0.87349 0.46464 0.0
H1047 H 0.23444 0.87072 0.38889 0.0
H1048 H 0.28452 0.86595 0.46987 0.0
C1049 C 0.24588 0.86614 0.63773 0.0
C1050 C 0.22792 0.86471 0.65491 0.0
C1051 C 0.21324 0.86655 0.62256 0.0
C1052 C 0.21639 0.86968 0.5735 0.0
C1053 C 0.2343 0.87073 0.55749 0.0
C1054 C 0.2488 0.86887 0.58862 0.0
C1055 C 0.26665 0.86833 0.56171 0.0
C1056 C 0.27861 0.88463 0.57516 0.0
C1057 C 0.27663 0.85027 0.57048 0.0
C1058 C 0.25993 0.86978 0.51046 0.0
C1059 C 0.24127 0.87155 0.50886 0.0
C1060 C 0.23188 0.87229 0.46547 0.0
C1061 C 0.24177 0.87074 0.42262 0.0
C1062 C 0.26082 0.86817 0.42354 0.0
C1063 C 0.27 0.86807 0.46806 0.0
H1064 H 0.61245 0.04664 0.23514 0.0
H1065 H 0.63554 0.99873 0.16842 0.0
H1066 H 0.6402 0.98505 0.24846 0.0
H1067 H 0.64307 0.04634 0.34211 0.0
H1068 H 0.62528 0.05418 0.38141 0.0
H1069 H 0.62542 0.06088 0.31911 0.0
H1070 H 0.59283 0.04824 0.30923 0.0
H1071 H 0.59264 0.04138 0.37126 0.0
H1072 H 0.58827 0.02493 0.32477 0.0
H1073 H 0.63771 0.97473 0.33402 0.0
H1074 H 0.6317 0.96999 0.4207 0.0
H1075 H 0.61295 0.02551 0.4329 0.0
C1076 C 0.61887 0.03345 0.23752 0.0
C1077 C 0.62365 0.02372 0.19571 0.0
C1078 C 0.63191 0.00646 0.20008 0.0
C1079 C 0.63457 0.99856 0.24536 0.0
C1080 C 0.62927 0.0083 0.2859 0.0
C1081 C 0.62196 0.02553 0.28252 0.0
C1082 C 0.61686 0.03283 0.33157 0.0
C1083 C 0.62835 0.04955 0.3443 0.0
C1084 C 0.59644 0.03708 0.33434 0.0
C1085 C 0.6218 0.01675 0.36282 0.0
C1086 C 0.62888 0.0027 0.33575 0.0
C1087 C 0.63267 0.98579 0.35584 0.0
C1088 C 0.62916 0.98318 0.4049 0.0
C1089 C 0.62224 0.9975 0.43326 0.0
C1090 C 0.61875 0.01453 0.41209 0.0
H1091 H 0.26389 0.36861 0.42619 0.0
H1092 H 0.20602 0.37457 0.44907 0.0
H1093 H 0.2114 0.37864 0.53621 0.0
H1094 H 0.27143 0.34142 0.52472 0.0
H1095 H 0.29344 0.35048 0.53952 0.0
H1096 H 0.28541 0.35139 0.47857 0.0
H1097 H 0.29008 0.38622 0.47724 0.0
H1098 H 0.29826 0.38542 0.53826 0.0
H1099 H 0.27954 0.40005 0.52281 0.0
H1100 H 0.22293 0.37858 0.62208 0.0
H1101 H 0.23936 0.37344 0.69847 0.0
H1102 H 0.2895 0.36639 0.61902 0.0
C1103 C 0.2524 0.3714 0.44929 0.0
C1104 C 0.23455 0.37159 0.43075 0.0
C1105 C 0.21982 0.37462 0.46243 0.0
C1106 C 0.22276 0.37696 0.51198 0.0
C1107 C 0.24051 0.37615 0.52933 0.0
C1108 C 0.25509 0.37349 0.49882 0.0
C1109 C 0.27258 0.37116 0.52676 0.0
C1110 C 0.28121 0.35251 0.5168 0.0
C1111 C 0.2859 0.38664 0.5156 0.0
C1112 C 0.26555 0.37243 0.57779 0.0
C1113 C 0.24707 0.37562 0.57862 0.0
C1114 C 0.23744 0.37633 0.62179 0.0
C1115 C 0.24688 0.3734 0.66504 0.0
C1116 C 0.26572 0.36961 0.66478 0.0
C1117 C 0.27513 0.36945 0.62051 0.0
H1118 H 0.89114 0.98798 0.90696 0.0
H1119 H 0.87369 0.044 0.89556 0.0
H1120 H 0.86927 0.04012 0.80808 0.0
H1121 H 0.9172 0.98831 0.8 0.0
H1122 H 0.91194 0.96526 0.78351 0.0
H1123 H 0.91184 0.97185 0.84577 0.0
H1124 H 0.87877 0.96031 0.85414 0.0
H1125 H 0.87877 0.95372 0.79179 0.0
H1126 H 0.86154 0.96889 0.81415 0.0
H1127 H 0.86752 0.03042 0.72184 0.0
H1128 H 0.87125 0.01652 0.64171 0.0
H1129 H 0.89177 0.96739 0.70832 0.0
C1130 C 0.88611 0.99931 0.88607 0.0
C1131 C 0.88253 0.01623 0.90788 0.0
C1132 C 0.87642 0.03091 0.87939 0.0
C1133 C 0.8738 0.02881 0.8298 0.0
C1134 C 0.87758 0.012 0.80922 0.0
C1135 C 0.88378 0.99755 0.83633 0.0
C1136 C 0.8883 0.98141 0.80477 0.0
C1137 C 0.90852 0.97642 0.80875 0.0
C1138 C 0.87611 0.96512 0.81695 0.0
C1139 C 0.88381 0.9891 0.75569 0.0
C1140 C 0.87735 0.00665 0.75916 0.0
C1141 C 0.87252 0.01667 0.71866 0.0
C1142 C 0.87465 0.00865 0.67332 0.0
C1143 C 0.8818 0.9909 0.66884 0.0
C1144 C 0.88623 0.98097 0.71067 0.0
H1145 H 0.27011 0.66953 0.98675 0.0
H1146 H 0.26825 0.61189 0.9566 0.0
H1147 H 0.25706 0.60609 0.03924 0.0
H1148 H 0.28297 0.66705 0.11263 0.0
H1149 H 0.26833 0.68553 0.1299 0.0
H1150 H 0.27779 0.68481 0.07023 0.0
H1151 H 0.24545 0.6869 0.03406 0.0
H1152 H 0.2359 0.68755 0.09357 0.0
H1153 H 0.22856 0.67048 0.0515 0.0
H1154 H 0.24641 0.60681 0.12612 0.0
H1155 H 0.23419 0.6142 0.20685 0.0
H1156 H 0.24006 0.67154 0.176 0.0
C1157 C 0.26762 0.65567 0.99792 0.0
C1158 C 0.27031 0.64109 0.96589 0.0
C1159 C 0.2664 0.62319 0.981 0.0
C1160 C 0.2601 0.61979 0.02778 0.0
C1161 C 0.25743 0.6345 0.0585 0.0
C1162 C 0.26085 0.65211 0.04391 0.0
C1163 C 0.25553 0.66564 0.0823 0.0
C1164 C 0.27215 0.67639 0.0998 0.0
C1165 C 0.24046 0.67839 0.06427 0.0
C1166 C 0.24859 0.65293 0.12082 0.0
C1167 C 0.2501 0.635 0.10685 0.0
C1168 C 0.24504 0.62081 0.13725 0.0
C1169 C 0.23816 0.6251 0.18295 0.0
C1170 C 0.23603 0.6434 0.19716 0.0
C1171 C 0.24132 0.65743 0.16564 0.0
H1172 H 0.40116 0.97575 0.89794 0.0
H1173 H 0.38072 0.0223 0.97647 0.0
H1174 H 0.37618 0.03868 0.89997 0.0
H1175 H 0.42618 0.99964 0.81379 0.0
H1176 H 0.42126 0.98499 0.76363 0.0
H1177 H 0.42082 0.97608 0.82379 0.0
H1178 H 0.38783 0.96494 0.81117 0.0
H1179 H 0.3882 0.97371 0.7507 0.0
H1180 H 0.37069 0.98079 0.79184 0.0
H1181 H 0.3778 0.0514 0.81632 0.0
H1182 H 0.38353 0.05876 0.73093 0.0
H1183 H 0.40163 0.00357 0.7062 0.0
C1184 C 0.39531 0.98922 0.89895 0.0
C1185 C 0.39123 0.99774 0.94314 0.0
C1186 C 0.38382 0.01547 0.94302 0.0
C1187 C 0.38121 0.02489 0.89974 0.0
C1188 C 0.38584 0.0163 0.85684 0.0
C1189 C 0.39248 0.99876 0.85604 0.0
C1190 C 0.39733 0.99299 0.80536 0.0
C1191 C 0.4176 0.98815 0.80144 0.0
C1192 C 0.38529 0.97717 0.7888 0.0
C1193 C 0.39295 0.01022 0.77802 0.0
C1194 C 0.38628 0.02349 0.80834 0.0
C1195 C 0.38265 0.04101 0.79205 0.0
C1196 C 0.386 0.04508 0.74358 0.0
C1197 C 0.39279 0.03167 0.71194 0.0
C1198 C 0.39606 0.01397 0.72937 0.0
H1199 H 0.75052 0.63128 0.46065 0.0
H1200 H 0.69193 0.63167 0.47422 0.0
H1201 H 0.6949 0.62802 0.56248 0.0
H1202 H 0.76092 0.5997 0.55946 0.0
H1203 H 0.78057 0.61251 0.5777 0.0
H1204 H 0.77371 0.61233 0.51554 0.0
H1205 H 0.77227 0.64747 0.51581 0.0
H1206 H 0.77909 0.64776 0.57784 0.0
H1207 H 0.75838 0.65885 0.5598 0.0
H1208 H 0.70452 0.62604 0.64949 0.0
H1209 H 0.71973 0.62896 0.72834 0.0
H1210 H 0.77191 0.63229 0.65682 0.0
C1211 C 0.73831 0.63013 0.48209 0.0
C1212 C 0.72099 0.63142 0.46086 0.0
C1213 C 0.70531 0.63051 0.49004 0.0
C1214 C 0.70688 0.62837 0.54002 0.0
C1215 C 0.72422 0.62739 0.55998 0.0
C1216 C 0.73965 0.62841 0.53187 0.0
C1217 C 0.75667 0.62913 0.56218 0.0
C1218 C 0.76867 0.61242 0.55318 0.0
C1219 C 0.76721 0.64686 0.55338 0.0
C1220 C 0.74842 0.62869 0.61187 0.0
C1221 C 0.72973 0.62727 0.60993 0.0
C1222 C 0.71915 0.62705 0.65143 0.0
C1223 C 0.7279 0.62867 0.69599 0.0
C1224 C 0.74696 0.63086 0.69845 0.0
C1225 C 0.75732 0.63061 0.65588 0.0
H1226 H 0.09763 0.03508 0.37742 0.0
H1227 H 0.1164 0.9882 0.45759 0.0
H1228 H 0.1206 0.97141 0.38157 0.0
H1229 H 0.07205 0.01142 0.29313 0.0
H1230 H 0.07751 0.02586 0.24288 0.0
H1231 H 0.07792 0.03488 0.30292 0.0
H1232 H 0.1112 0.04523 0.29087 0.0
H1233 H 0.11087 0.03631 0.23058 0.0
H1234 H 0.12805 0.02894 0.27235 0.0
H1235 H 0.11925 0.95859 0.298 0.0
H1236 H 0.11374 0.95115 0.21262 0.0
H1237 H 0.09691 0.00664 0.18626 0.0
C1238 C 0.10299 0.02141 0.37892 0.0
C1239 C 0.10676 0.01296 0.42343 0.0
C1240 C 0.11353 0.99498 0.42391 0.0
C1241 C 0.11596 0.98534 0.3809 0.0
C1242 C 0.11174 0.99393 0.33768 0.0
C1243 C 0.10559 0.01163 0.33631 0.0
C1244 C 0.10107 0.01739 0.28538 0.0
C1245 C 0.08094 0.02269 0.28084 0.0
C1246 C 0.11354 0.03289 0.26882 0.0
C1247 C 0.10515 0.99999 0.25848 0.0
C1248 C 0.11136 0.98664 0.28928 0.0
C1249 C 0.11473 0.96903 0.2734 0.0
C1250 C 0.11152 0.96491 0.2249 0.0
C1251 C 0.10513 0.97837 0.19279 0.0
C1252 C 0.10217 0.99619 0.20978 0.0
H1253 H 0.73334 0.35406 0.15025 0.0
H1254 H 0.78311 0.36181 0.23091 0.0
H1255 H 0.8003 0.36394 0.15488 0.0
H1256 H 0.75155 0.32605 0.0608 0.0
H1257 H 0.73828 0.33536 0.0123 0.0
H1258 H 0.72968 0.33604 0.07279 0.0
H1259 H 0.72583 0.3709 0.0665 0.0
H1260 H 0.73439 0.37033 0.00586 0.0
H1261 H 0.745 0.38474 0.04996 0.0
H1262 H 0.81245 0.36205 0.07058 0.0
H1263 H 0.81847 0.35747 0.98401 0.0
H1264 H 0.76071 0.35221 0.95786 0.0
C1265 C 0.74781 0.35651 0.1519 0.0
C1266 C 0.75689 0.35781 0.1965 0.0
C1267 C 0.77586 0.36085 0.19715 0.0
C1268 C 0.78574 0.36208 0.15415 0.0
C1269 C 0.77642 0.36045 0.11078 0.0
C1270 C 0.75785 0.3579 0.1093 0.0
C1271 C 0.75122 0.3558 0.05804 0.0
C1272 C 0.74216 0.33721 0.05057 0.0
C1273 C 0.73835 0.37137 0.04429 0.0
C1274 C 0.76901 0.35712 0.03098 0.0
C1275 C 0.78338 0.35984 0.06206 0.0
C1276 C 0.80128 0.36023 0.04583 0.0
C1277 C 0.80457 0.35759 0.99665 0.0
C1278 C 0.79005 0.35473 0.96424 0.0
C1279 C 0.77204 0.35477 0.98167 0.0
H1280 H 0.08633 0.4927 0.44012 0.0
H1281 H 0.13889 0.51825 0.45649 0.0
H1282 H 0.14707 0.50897 0.37369 0.0
H1283 H 0.10217 0.45409 0.36258 0.0
H1284 H 0.08145 0.45468 0.32821 0.0
H1285 H 0.08123 0.46087 0.39085 0.0
H1286 H 0.06666 0.49176 0.36853 0.0
H1287 H 0.06712 0.48585 0.30593 0.0
H1288 H 0.07798 0.50638 0.32608 0.0
H1289 H 0.14708 0.50133 0.28435 0.0
H1290 H 0.14007 0.49328 0.19972 0.0
H1291 H 0.08801 0.47188 0.24516 0.0
C1292 C 0.09979 0.49579 0.42678 0.0
C1293 C 0.11205 0.50603 0.45443 0.0
C1294 C 0.12945 0.51012 0.43587 0.0
C1295 C 0.13416 0.50499 0.38888 0.0
C1296 C 0.12143 0.49547 0.36167 0.0
C1297 C 0.10475 0.49055 0.38048 0.0
C1298 C 0.09295 0.48145 0.34333 0.0
C1299 C 0.08924 0.46159 0.35706 0.0
C1300 C 0.07514 0.492 0.33552 0.0
C1301 C 0.10522 0.48272 0.30006 0.0
C1302 C 0.12164 0.49074 0.31109 0.0
C1303 C 0.13444 0.49465 0.27556 0.0
C1304 C 0.13032 0.49016 0.22765 0.0
C1305 C 0.11358 0.48186 0.2161 0.0
C1306 C 0.10104 0.47798 0.25296 0.0
H1307 H 0.73126 0.82458 0.62483 0.0
H1308 H 0.73952 0.88142 0.65848 0.0
H1309 H 0.74676 0.88754 0.57301 0.0
H1310 H 0.76821 0.82102 0.54316 0.0
H1311 H 0.75669 0.80533 0.50401 0.0
H1312 H 0.75111 0.80601 0.56692 0.0
H1313 H 0.71733 0.81148 0.54514 0.0
H1314 H 0.72288 0.81111 0.48209 0.0
H1315 H 0.71133 0.83043 0.50737 0.0
H1316 H 0.75311 0.88718 0.48346 0.0
H1317 H 0.76215 0.87971 0.40004 0.0
H1318 H 0.75095 0.82291 0.42745 0.0
C1319 C 0.73454 0.83833 0.61415 0.0
C1320 C 0.73477 0.85257 0.6479 0.0
C1321 C 0.73934 0.87034 0.63294 0.0
C1322 C 0.7433 0.87395 0.58452 0.0
C1323 C 0.74275 0.8596 0.55193 0.0
C1324 C 0.73875 0.8421 0.56634 0.0
C1325 C 0.74028 0.82882 0.52522 0.0
C1326 C 0.75495 0.81446 0.53544 0.0
C1327 C 0.72185 0.81994 0.51432 0.0
C1328 C 0.74593 0.84153 0.48537 0.0
C1329 C 0.74696 0.85928 0.50112 0.0
C1330 C 0.75228 0.87334 0.47069 0.0
C1331 C 0.75725 0.86901 0.42336 0.0
C1332 C 0.75712 0.85077 0.40757 0.0
C1333 C 0.75103 0.83698 0.43867 0.0
H1334 H 0.38244 0.52851 0.72775 0.0
H1335 H 0.35536 0.47982 0.67849 0.0
H1336 H 0.34191 0.47578 0.75979 0.0
H1337 H 0.39636 0.51264 0.8338 0.0
H1338 H 0.39337 0.53346 0.86686 0.0
H1339 H 0.39713 0.53423 0.80333 0.0
H1340 H 0.36729 0.5526 0.79261 0.0
H1341 H 0.36353 0.5517 0.85659 0.0
H1342 H 0.3463 0.54361 0.816 0.0
H1343 H 0.33641 0.47438 0.84929 0.0
H1344 H 0.34194 0.47387 0.93698 0.0
H1345 H 0.37176 0.52426 0.92564 0.0
C1346 C 0.37337 0.51717 0.73382 0.0
C1347 C 0.37003 0.50433 0.69745 0.0
C1348 C 0.35803 0.48977 0.70623 0.0
C1349 C 0.35024 0.4875 0.75206 0.0
C1350 C 0.35421 0.50027 0.78775 0.0
C1351 C 0.36539 0.51493 0.77871 0.0
C1352 C 0.36968 0.52544 0.82383 0.0
C1353 C 0.39034 0.52647 0.83245 0.0
C1354 C 0.36119 0.54447 0.82212 0.0
C1355 C 0.36031 0.51367 0.86059 0.0
C1356 C 0.35095 0.49952 0.83918 0.0
C1357 C 0.34336 0.48557 0.86642 0.0
C1358 C 0.34649 0.48543 0.91621 0.0
C1359 C 0.3574 0.49897 0.93775 0.0
C1360 C 0.36322 0.51386 0.91009 0.0
H1361 H 0.78045 0.13716 0.1444 0.0
H1362 H 0.73306 0.11255 0.20976 0.0
H1363 H 0.72302 0.10188 0.12964 0.0
H1364 H 0.75915 0.15511 0.04814 0.0
H1365 H 0.77732 0.15145 0.00587 0.0
H1366 H 0.78231 0.15367 0.06866 0.0
H1367 H 0.79876 0.1227 0.06681 0.0
H1368 H 0.79349 0.12002 0.00397 0.0
H1369 H 0.78688 0.10276 0.04644 0.0
H1370 H 0.71568 0.09876 0.04197 0.0
H1371 H 0.71082 0.10501 0.95579 0.0
H1372 H 0.76343 0.13112 0.94832 0.0
C1373 C 0.76815 0.12918 0.14203 0.0
C1374 C 0.75746 0.12571 0.18305 0.0
C1375 C 0.74144 0.1153 0.17862 0.0
C1376 C 0.73572 0.10909 0.13336 0.0
C1377 C 0.74639 0.11315 0.09329 0.0
C1378 C 0.76235 0.12287 0.0974 0.0
C1379 C 0.77026 0.12745 0.0488 0.0
C1380 C 0.77236 0.14814 0.04252 0.0
C1381 C 0.78842 0.11763 0.04105 0.0
C1382 C 0.75566 0.11984 0.01645 0.0
C1383 C 0.74223 0.1112 0.04263 0.0
C1384 C 0.72631 0.10508 0.021 0.0
C1385 C 0.72367 0.10866 0.97196 0.0
C1386 C 0.73681 0.11847 0.94544 0.0
C1387 C 0.75333 0.12329 0.96752 0.0
H1388 H 0.88829 0.50534 0.6786 0.0
H1389 H 0.85983 0.45392 0.68128 0.0
H1390 H 0.8551 0.45721 0.76882 0.0
H1391 H 0.91327 0.49828 0.77565 0.0
H1392 H 0.91297 0.52105 0.79925 0.0
H1393 H 0.90989 0.51736 0.73605 0.0
H1394 H 0.87923 0.5346 0.73798 0.0
H1395 H 0.88242 0.53882 0.80123 0.0
H1396 H 0.862 0.52794 0.78044 0.0
H1397 H 0.85861 0.46358 0.85817 0.0
H1398 H 0.86863 0.47332 0.93941 0.0
H1399 H 0.89589 0.51962 0.87602 0.0
C1400 C 0.88034 0.49518 0.69725 0.0
C1401 C 0.87428 0.47949 0.67329 0.0
C1402 C 0.86429 0.46624 0.69892 0.0
C1403 C 0.86163 0.46795 0.7487 0.0
C1404 C 0.86881 0.48311 0.7719 0.0
C1405 C 0.87764 0.49669 0.74669 0.0
C1406 C 0.88611 0.51045 0.78004 0.0
C1407 C 0.90677 0.51184 0.77227 0.0
C1408 C 0.87688 0.52905 0.77459 0.0
C1409 C 0.88166 0.50195 0.82791 0.0
C1410 C 0.8713 0.48645 0.82287 0.0
C1411 C 0.86645 0.47587 0.86252 0.0
C1412 C 0.87229 0.4814 0.90838 0.0
C1413 C 0.88317 0.49707 0.91371 0.0
C1414 C 0.88771 0.50747 0.87295 0.0
H1415 H 0.22124 0.15579 0.58783 0.0
H1416 H 0.25464 0.1112 0.63792 0.0
H1417 H 0.25822 0.10064 0.55383 0.0
H1418 H 0.1997 0.13161 0.48387 0.0
H1419 H 0.20047 0.15188 0.44766 0.0
H1420 H 0.19761 0.15356 0.51187 0.0
H1421 H 0.22574 0.17464 0.51725 0.0
H1422 H 0.22846 0.17323 0.45336 0.0
H1423 H 0.24702 0.1671 0.4923 0.0
H1424 H 0.26187 0.098 0.4642 0.0
H1425 H 0.268 0.10533 0.37921 0.0
H1426 H 0.23213 0.15174 0.38898 0.0
C1427 C 0.22902 0.14358 0.58132 0.0
C1428 C 0.23771 0.1343 0.61918 0.0
C1429 C 0.24788 0.11847 0.60924 0.0
C1430 C 0.24982 0.11231 0.56172 0.0
C1431 C 0.24126 0.122 0.52499 0.0
C1432 C 0.23104 0.13731 0.53448 0.0
C1433 C 0.22522 0.14681 0.48896 0.0
C1434 C 0.20452 0.1459 0.48273 0.0
C1435 C 0.23203 0.16659 0.48792 0.0
C1436 C 0.23474 0.13517 0.45217 0.0
C1437 C 0.24342 0.12055 0.47336 0.0
C1438 C 0.25478 0.10912 0.44708 0.0
C1439 C 0.2581 0.11333 0.3987 0.0
C1440 C 0.2504 0.12904 0.37774 0.0
C1441 C 0.23789 0.13948 0.40409 0.0
H1442 H 0.5709 0.52173 0.20365 0.0
H1443 H 0.62815 0.5302 0.17562 0.0
H1444 H 0.63497 0.52421 0.2614 0.0
H1445 H 0.56924 0.54165 0.32119 0.0
H1446 H 0.55369 0.525 0.34471 0.0
H1447 H 0.55332 0.5306 0.2817 0.0
H1448 H 0.55805 0.49674 0.25964 0.0
H1449 H 0.55812 0.49102 0.32251 0.0
H1450 H 0.57699 0.48456 0.28499 0.0
H1451 H 0.63519 0.51786 0.35103 0.0
H1452 H 0.62939 0.5073 0.43419 0.0
H1453 H 0.5722 0.50165 0.40101 0.0
C1454 C 0.58487 0.5223 0.2156 0.0
C1455 C 0.59902 0.52646 0.18338 0.0
C1456 C 0.61716 0.52692 0.19996 0.0
C1457 C 0.62112 0.52371 0.24857 0.0
C1458 C 0.60678 0.51989 0.27968 0.0
C1459 C 0.58907 0.51886 0.2636 0.0
C1460 C 0.57622 0.5135 0.30345 0.0
C1461 C 0.5623 0.52859 0.31333 0.0
C1462 C 0.5668 0.49538 0.29196 0.0
C1463 C 0.58946 0.51158 0.34454 0.0
C1464 C 0.60699 0.51564 0.33047 0.0
C1465 C 0.62152 0.51465 0.36244 0.0
C1466 C 0.6181 0.50881 0.4096 0.0
C1467 C 0.60036 0.50377 0.42373 0.0
C1468 C 0.58588 0.50551 0.39103 0.0
H1469 H 0.2542 0.83622 0.94002 0.0
H1470 H 0.23907 0.89237 0.91732 0.0
H1471 H 0.24754 0.89943 0.00168 0.0
H1472 H 0.23663 0.8313 0.05292 0.0
H1473 H 0.25458 0.81715 0.076 0.0
H1474 H 0.24967 0.81721 0.01274 0.0
H1475 H 0.28299 0.82587 0.99346 0.0
H1476 H 0.28814 0.82546 0.05674 0.0
H1477 H 0.29294 0.84548 0.02178 0.0
H1478 H 0.25458 0.89903 0.09205 0.0
H1479 H 0.26189 0.89181 0.17706 0.0
H1480 H 0.27211 0.83587 0.13689 0.0
C1481 C 0.25309 0.8501 0.9525 0.0
C1482 C 0.24609 0.86379 0.92259 0.0
C1483 C 0.24469 0.88178 0.93986 0.0
C1484 C 0.24936 0.88586 0.98766 0.0
C1485 C 0.25565 0.87181 0.01692 0.0
C1486 C 0.25785 0.85437 0.99951 0.0
C1487 C 0.26408 0.84143 0.0381 0.0
C1488 C 0.25042 0.82587 0.04535 0.0
C1489 C 0.28317 0.83414 0.02685 0.0
C1490 C 0.26435 0.85408 0.08059 0.0
C1491 C 0.25964 0.8716 0.06796 0.0
C1492 C 0.2585 0.8854 0.10215 0.0
C1493 C 0.26254 0.88117 0.15028 0.0
C1494 C 0.2675 0.86329 0.16342 0.0
C1495 C 0.26833 0.84967 0.12801 0.0
H1496 H 0.61951 0.98308 0.73862 0.0
H1497 H 0.64228 0.03213 0.67774 0.0
H1498 H 0.65284 0.04141 0.75888 0.0
H1499 H 0.60091 0.00163 0.8361 0.0
H1500 H 0.60547 0.9831 0.87667 0.0
H1501 H 0.60361 0.97886 0.81347 0.0
H1502 H 0.63557 0.96415 0.81357 0.0
H1503 H 0.6376 0.96846 0.87713 0.0
H1504 H 0.65469 0.97673 0.8363 0.0
H1505 H 0.65522 0.04777 0.84799 0.0
H1506 H 0.6484 0.05101 0.93456 0.0
H1507 H 0.62469 0.99726 0.93557 0.0
C1508 C 0.62711 0.99559 0.74222 0.0
C1509 C 0.63001 0.007 0.70242 0.0
C1510 C 0.64002 0.02321 0.7081 0.0
C1511 C 0.64611 0.0285 0.75392 0.0
C1512 C 0.64247 0.01714 0.793 0.0
C1513 C 0.63339 0.00087 0.78724 0.0
C1514 C 0.62913 0.99202 0.83483 0.0
C1515 C 0.60857 0.98874 0.84058 0.0
C1516 C 0.63989 0.97429 0.84081 0.0
C1517 C 0.63594 0.00649 0.86868 0.0
C1518 C 0.6441 0.02066 0.84415 0.0
C1519 C 0.64937 0.03653 0.86765 0.0
C1520 C 0.64551 0.03824 0.91689 0.0
C1521 C 0.63618 0.02427 0.94155 0.0
C1522 C 0.63212 0.00797 0.91758 0.0
H1523 H 0.24642 0.37381 0.14451 0.0
H1524 H 0.27889 0.329 0.19723 0.0
H1525 H 0.29228 0.32511 0.11661 0.0
H1526 H 0.23486 0.35346 0.03685 0.0
H1527 H 0.23548 0.37361 0.0002 0.0
H1528 H 0.23075 0.37536 0.06348 0.0
H1529 H 0.25751 0.39777 0.07407 0.0
H1530 H 0.26216 0.39634 0.01058 0.0
H1531 H 0.27981 0.39142 0.05348 0.0
H1532 H 0.29938 0.32358 0.03056 0.0
H1533 H 0.30109 0.32503 0.94266 0.0
H1534 H 0.26328 0.37026 0.94209 0.0
C1535 C 0.25693 0.36373 0.13931 0.0
C1536 C 0.26205 0.35197 0.17709 0.0
C1537 C 0.27513 0.33831 0.16879 0.0
C1538 C 0.28274 0.33599 0.12316 0.0
C1539 C 0.27696 0.34733 0.08615 0.0
C1540 C 0.26446 0.36102 0.09354 0.0
C1541 C 0.25931 0.37004 0.04632 0.0
C1542 C 0.23889 0.36799 0.03613 0.0
C1543 C 0.26504 0.39008 0.04611 0.0
C1544 C 0.27059 0.35899 0.01127 0.0
C1545 C 0.28075 0.34611 0.03536 0.0
C1546 C 0.29169 0.33375 0.01128 0.0
C1547 C 0.29247 0.33465 0.96121 0.0
C1548 C 0.28233 0.34778 0.93538 0.0
C1549 C 0.27121 0.36012 0.96084 0.0
H1550 H 0.89298 0.96431 0.36307 0.0
H1551 H 0.85215 0.00047 0.42148 0.0
H1552 H 0.84019 0.00567 0.33936 0.0
H1553 H 0.90381 0.98976 0.26508 0.0
H1554 H 0.90743 0.97091 0.225 0.0
H1555 H 0.91039 0.96792 0.28849 0.0
H1556 H 0.88715 0.94148 0.2871 0.0
H1557 H 0.88394 0.94462 0.2234 0.0
H1558 H 0.86471 0.94529 0.2634 0.0
H1559 H 0.83609 0.01054 0.25048 0.0
H1560 H 0.84149 0.01618 0.16425 0.0
H1561 H 0.88422 0.97576 0.16462 0.0
C1562 C 0.88129 0.97307 0.35875 0.0
C1563 C 0.87349 0.98204 0.39847 0.0
C1564 C 0.85829 0.99346 0.3914 0.0
C1565 C 0.85135 0.99637 0.34498 0.0
C1566 C 0.85957 0.98748 0.30637 0.0
C1567 C 0.87417 0.97598 0.31297 0.0
C1568 C 0.8819 0.96957 0.26561 0.0
C1569 C 0.90206 0.97487 0.26078 0.0
C1570 C 0.87926 0.94902 0.25953 0.0
C1571 C 0.87005 0.98006 0.23106 0.0
C1572 C 0.85696 0.99001 0.25511 0.0
C1573 C 0.84596 0.00247 0.23118 0.0
C1574 C 0.84907 0.00554 0.18208 0.0
C1575 C 0.86318 0.99628 0.15769 0.0
C1576 C 0.87306 0.98271 0.18201 0.0
H1577 H 0.28085 0.64146 0.65547 0.0
H1578 H 0.23026 0.6348 0.73317 0.0
H1579 H 0.21438 0.62885 0.65641 0.0
H1580 H 0.26392 0.6657 0.56128 0.0
H1581 H 0.278 0.65561 0.51556 0.0
H1582 H 0.28574 0.65629 0.57673 0.0
H1583 H 0.29008 0.62138 0.57609 0.0
H1584 H 0.28235 0.6206 0.51465 0.0
H1585 H 0.27133 0.60695 0.55979 0.0
H1586 H 0.20345 0.62884 0.57175 0.0
H1587 H 0.19819 0.63435 0.48537 0.0
H1588 H 0.25609 0.63968 0.46244 0.0
C1589 C 0.26649 0.63838 0.65643 0.0
C1590 C 0.25671 0.63862 0.70005 0.0
C1591 C 0.23796 0.63462 0.70002 0.0
C1592 C 0.22888 0.63115 0.65668 0.0
C1593 C 0.23886 0.63142 0.61407 0.0
C1594 C 0.2573 0.63475 0.61369 0.0
C1595 C 0.26464 0.63592 0.56298 0.0
C1596 C 0.27358 0.65448 0.55362 0.0
C1597 C 0.27788 0.62028 0.55278 0.0
C1598 C 0.24726 0.63375 0.53469 0.0
C1599 C 0.23258 0.63089 0.56487 0.0
C1600 C 0.21485 0.63059 0.54769 0.0
C1601 C 0.21199 0.63379 0.4987 0.0
C1602 C 0.22679 0.63715 0.46756 0.0
C1603 C 0.24465 0.63658 0.48544 0.0
H1604 H 0.42037 0.01259 0.21214 0.0
H1605 H 0.36717 0.98782 0.20077 0.0
H1606 H 0.36181 0.99389 0.28722 0.0
H1607 H 0.43158 0.99415 0.32331 0.0
H1608 H 0.44353 0.01387 0.34481 0.0
H1609 H 0.44233 0.00938 0.28134 0.0
H1610 H 0.42828 0.04114 0.26633 0.0
H1611 H 0.4298 0.0459 0.32967 0.0
H1612 H 0.4083 0.04785 0.29923 0.0
H1613 H 0.36362 0.0007 0.37738 0.0
H1614 H 0.37149 0.00984 0.46065 0.0
H1615 H 0.42369 0.02927 0.41035 0.0
C1616 C 0.4074 0.00881 0.22748 0.0
C1617 C 0.39413 0.99987 0.19979 0.0
C1618 C 0.37743 0.99491 0.22132 0.0
C1619 C 0.37433 0.99819 0.27042 0.0
C1620 C 0.38803 0.00647 0.29713 0.0
C1621 C 0.40414 0.01191 0.27611 0.0
C1622 C 0.41707 0.01984 0.31254 0.0
C1623 C 0.43466 0.00863 0.31567 0.0
C1624 C 0.42109 0.03987 0.30127 0.0
C1625 C 0.40585 0.01788 0.35758 0.0
C1626 C 0.38913 0.01016 0.34827 0.0
C1627 C 0.37664 0.00685 0.38495 0.0
C1628 C 0.38125 0.01195 0.43211 0.0
C1629 C 0.3982 0.02021 0.44185 0.0
C1630 C 0.41063 0.02297 0.40406 0.0
H1631 H 0.76723 0.63924 0.19514 0.0
H1632 H 0.72577 0.59778 0.20211 0.0
H1633 H 0.73127 0.59023 0.11678 0.0
H1634 H 0.75495 0.65699 0.09352 0.0
H1635 H 0.777 0.662 0.0688 0.0
H1636 H 0.77418 0.66034 0.13261 0.0
H1637 H 0.799 0.63552 0.13746 0.0
H1638 H 0.80235 0.63742 0.07346 0.0
H1639 H 0.79735 0.61567 0.09992 0.0
H1640 H 0.73578 0.59285 0.02736 0.0
H1641 H 0.74093 0.60355 0.94396 0.0
H1642 H 0.77942 0.64324 0.99702 0.0
C1643 C 0.76007 0.6279 0.17925 0.0
C1644 C 0.7463 0.61892 0.20483 0.0
C1645 C 0.73671 0.60449 0.1831 0.0
C1646 C 0.73968 0.60019 0.13461 0.0
C1647 C 0.75258 0.61019 0.10916 0.0
C1648 C 0.76299 0.62343 0.13123 0.0
C1649 C 0.77401 0.63407 0.0952 0.0
C1650 C 0.76976 0.65454 0.0977 0.0
C1651 C 0.79439 0.63044 0.10191 0.0
C1652 C 0.76714 0.62575 0.04918 0.0
C1653 C 0.75511 0.61174 0.05767 0.0
C1654 C 0.74559 0.60344 0.02027 0.0
C1655 C 0.74846 0.60968 0.97315 0.0
C1656 C 0.76052 0.62422 0.96429 0.0
C1657 C 0.77017 0.63203 0.00274 0.0
H1658 H 0.0932 0.96854 0.88234 0.0
H1659 H 0.10671 0.01751 0.96092 0.0
H1660 H 0.11032 0.03401 0.88397 0.0
H1661 H 0.12491 0.97644 0.78144 0.0
H1662 H 0.10945 0.96694 0.73805 0.0
H1663 H 0.10936 0.95878 0.79912 0.0
H1664 H 0.07502 0.96596 0.80546 0.0
H1665 H 0.075 0.97422 0.74462 0.0
H1666 H 0.06712 0.9886 0.79266 0.0
H1667 H 0.10866 0.04583 0.79965 0.0
H1668 H 0.10425 0.05178 0.71307 0.0
H1669 H 0.09383 0.99463 0.6888 0.0
C1670 C 0.09715 0.98269 0.8833 0.0
C1671 C 0.09961 0.99184 0.92738 0.0
C1672 C 0.10483 0.01029 0.9274 0.0
C1673 C 0.1069 0.01974 0.88395 0.0
C1674 C 0.10403 0.01039 0.84104 0.0
C1675 C 0.09956 0.9922 0.84036 0.0
C1676 C 0.0967 0.98543 0.78953 0.0
C1677 C 0.11096 0.97105 0.77626 0.0
C1678 C 0.07731 0.97813 0.78269 0.0
C1679 C 0.09964 0.00282 0.7617 0.0
C1680 C 0.10386 0.01705 0.79215 0.0
C1681 C 0.10571 0.03474 0.77539 0.0
C1682 C 0.10309 0.038 0.7263 0.0
C1683 C 0.09887 0.0236 0.69456 0.0
C1684 C 0.0974 0.00576 0.71234 0.0
H1685 H 0.7586 0.33206 0.68847 0.0
H1686 H 0.78558 0.38402 0.703 0.0
H1687 H 0.77747 0.39151 0.61888 0.0
H1688 H 0.77334 0.32235 0.57422 0.0
H1689 H 0.75264 0.31181 0.55403 0.0
H1690 H 0.75836 0.31161 0.61684 0.0
H1691 H 0.72771 0.32693 0.6378 0.0
H1692 H 0.72171 0.32688 0.57504 0.0
H1693 H 0.72146 0.34782 0.60843 0.0
H1694 H 0.76972 0.39131 0.52951 0.0
H1695 H 0.76041 0.38471 0.44567 0.0
H1696 H 0.73825 0.33309 0.49208 0.0
C1697 C 0.76237 0.34523 0.6744 0.0
C1698 C 0.77262 0.35751 0.70216 0.0
C1699 C 0.77751 0.37452 0.68241 0.0
C1700 C 0.77305 0.37884 0.63463 0.0
C1701 C 0.76351 0.36607 0.60756 0.0
C1702 C 0.75794 0.34976 0.62715 0.0
C1703 C 0.74868 0.33792 0.59023 0.0
C1704 C 0.75887 0.31987 0.58345 0.0
C1705 C 0.7287 0.33471 0.60368 0.0
C1706 C 0.75035 0.34987 0.54636 0.0
C1707 C 0.75889 0.36607 0.55685 0.0
C1708 C 0.76276 0.37879 0.5211 0.0
C1709 C 0.75754 0.37489 0.47361 0.0
C1710 C 0.74856 0.35844 0.46253 0.0
C1711 C 0.74496 0.34586 0.49952 0.0
H1712 H 0.1108 0.41564 0.16286 0.0
H1713 H 0.13622 0.41793 0.02269 0.0
H1714 H 0.158 0.39429 0.04757 0.0
H1715 H 0.14994 0.41469 0.22565 0.0
H1716 H 0.14283 0.39963 0.27309 0.0
H1717 H 0.12628 0.41296 0.24143 0.0
H1718 H 0.10851 0.38388 0.21906 0.0
H1719 H 0.12492 0.3704 0.25126 0.0
H1720 H 0.12005 0.36552 0.18912 0.0
H1721 H 0.18025 0.37574 0.09091 0.0
H1722 H 0.20157 0.36274 0.14983 0.0
H1723 H 0.1627 0.37202 0.26401 0.0
C1724 C 0.12036 0.4104 0.13677 0.0
C1725 C 0.12158 0.41815 0.0904 0.0
C1726 C 0.13488 0.41182 0.05794 0.0
C1727 C 0.14728 0.39841 0.07182 0.0
C1728 C 0.14629 0.39156 0.11847 0.0
C1729 C 0.13311 0.39721 0.1505 0.0
C1730 C 0.13676 0.38974 0.20053 0.0
C1731 C 0.13909 0.40518 0.23731 0.0
C1732 C 0.12166 0.3766 0.21589 0.0
C1733 C 0.15448 0.37974 0.19206 0.0
C1734 C 0.15951 0.38074 0.14419 0.0
C1735 C 0.17623 0.37439 0.12815 0.0
C1736 C 0.18827 0.36709 0.16185 0.0
C1737 C 0.18354 0.36606 0.21102 0.0
C1738 C 0.1663 0.37211 0.22628 0.0
H1739 H 0.85122 0.92774 0.51001 0.0
H1740 H 0.90603 0.90813 0.48756 0.0
H1741 H 0.89395 0.88274 0.43863 0.0
H1742 H 0.82743 0.88342 0.51025 0.0
H1743 H 0.8085 0.8928 0.47763 0.0
H1744 H 0.82136 0.90693 0.51798 0.0
H1745 H 0.827 0.92969 0.4485 0.0
H1746 H 0.81453 0.9155 0.4077 0.0
H1747 H 0.83756 0.92185 0.39388 0.0
H1748 H 0.87538 0.86098 0.38517 0.0
H1749 H 0.85254 0.84572 0.33319 0.0
H1750 H 0.8111 0.88214 0.38721 0.0
C1751 C 0.86069 0.91776 0.49635 0.0
C1752 C 0.87955 0.91975 0.5032 0.0
C1753 C 0.89149 0.90669 0.48338 0.0
C1754 C 0.88475 0.89227 0.45539 0.0
C1755 C 0.86606 0.89123 0.44749 0.0
C1756 C 0.85424 0.90364 0.46775 0.0
C1757 C 0.83507 0.90102 0.44993 0.0
C1758 C 0.82234 0.89572 0.49142 0.0
C1759 C 0.82815 0.91802 0.42343 0.0
C1760 C 0.83791 0.88541 0.41573 0.0
C1761 C 0.85575 0.87964 0.41517 0.0
C1762 C 0.86137 0.86539 0.38555 0.0
C1763 C 0.84838 0.85685 0.35606 0.0
C1764 C 0.83017 0.86294 0.35577 0.0
C1765 C 0.82499 0.87735 0.38611 0.0
H1766 H 0.34976 0.55831 0.62485 0.0
H1767 H 0.40383 0.58129 0.63256 0.0
H1768 H 0.39224 0.60552 0.68649 0.0
H1769 H 0.32419 0.60055 0.62921 0.0
H1770 H 0.30665 0.59066 0.66591 0.0
H1771 H 0.31912 0.5767 0.62435 0.0
H1772 H 0.32788 0.55505 0.69427 0.0
H1773 H 0.31563 0.56909 0.73607 0.0
H1774 H 0.33925 0.56415 0.74623 0.0
H1775 H 0.37388 0.62726 0.74132 0.0
H1776 H 0.35112 0.64339 0.79169 0.0
H1777 H 0.31067 0.60346 0.75187 0.0
C1778 C 0.35916 0.56866 0.63687 0.0
C1779 C 0.37765 0.5681 0.62388 0.0
C1780 C 0.38954 0.58163 0.64155 0.0
C1781 C 0.38308 0.59538 0.67233 0.0
C1782 C 0.36478 0.59521 0.68541 0.0
C1783 C 0.35305 0.58213 0.66805 0.0
C1784 C 0.33428 0.58406 0.68924 0.0
C1785 C 0.32024 0.58824 0.64984 0.0
C1786 C 0.32895 0.56707 0.71815 0.0
C1787 C 0.33722 0.60019 0.72169 0.0
C1788 C 0.35476 0.6067 0.7187 0.0
C1789 C 0.36017 0.62212 0.7442 0.0
C1790 C 0.34723 0.63114 0.77285 0.0
C1791 C 0.32928 0.62444 0.77647 0.0
C1792 C 0.32441 0.60866 0.75089 0.0
H1793 H 0.65844 0.12731 0.83392 0.0
H1794 H 0.67217 0.16652 0.94408 0.0
H1795 H 0.64791 0.15427 0.99581 0.0
H1796 H 0.60756 0.1245 0.8619 0.0
H1797 H 0.60763 0.10046 0.85005 0.0
H1798 H 0.62263 0.11527 0.81713 0.0
H1799 H 0.65009 0.09567 0.84361 0.0
H1800 H 0.63525 0.08097 0.87667 0.0
H1801 H 0.65397 0.09182 0.90678 0.0
H1802 H 0.62819 0.13315 0.04246 0.0
H1803 H 0.61323 0.10618 0.07756 0.0
H1804 H 0.61103 0.0814 0.93658 0.0
C1805 C 0.65575 0.1339 0.86795 0.0
C1806 C 0.66709 0.14797 0.8848 0.0
C1807 C 0.66352 0.15587 0.93019 0.0
C1808 C 0.64975 0.14898 0.95987 0.0
C1809 C 0.63949 0.13436 0.94337 0.0
C1810 C 0.64208 0.12713 0.89799 0.0
C1811 C 0.63105 0.10997 0.89122 0.0
C1812 C 0.61634 0.11272 0.8528 0.0
C1813 C 0.64333 0.09367 0.87889 0.0
C1814 C 0.62275 0.10806 0.94074 0.0
C1815 C 0.62755 0.12239 0.97018 0.0
C1816 C 0.62377 0.1222 0.01936 0.0
C1817 C 0.61529 0.10684 0.03906 0.0
C1818 C 0.61059 0.09195 0.00957 0.0
C1819 C 0.61383 0.0929 0.95962 0.0
H1820 H 0.17444 0.60975 0.34249 0.0
H1821 H 0.15087 0.66241 0.37274 0.0
H1822 H 0.12682 0.64753 0.42106 0.0
H1823 H 0.13201 0.58233 0.34241 0.0
H1824 H 0.14327 0.5638 0.37239 0.0
H1825 H 0.15584 0.57833 0.33233 0.0
H1826 H 0.17885 0.58483 0.40061 0.0
H1827 H 0.16619 0.57071 0.44118 0.0
H1828 H 0.17082 0.59398 0.45679 0.0
H1829 H 0.10717 0.62647 0.47385 0.0
H1830 H 0.09467 0.60186 0.52533 0.0
H1831 H 0.13366 0.5643 0.46455 0.0
C1832 C 0.16383 0.61816 0.3576 0.0
C1833 C 0.16437 0.63723 0.35316 0.0
C1834 C 0.15054 0.64774 0.37495 0.0
C1835 C 0.13688 0.6394 0.40265 0.0
C1836 C 0.13734 0.62057 0.40833 0.0
C1837 C 0.15047 0.61012 0.38604 0.0
C1838 C 0.14961 0.59056 0.40212 0.0
C1839 C 0.14489 0.57802 0.35979 0.0
C1840 C 0.16742 0.5847 0.42663 0.0
C1841 C 0.13421 0.5916 0.43775 0.0
C1842 C 0.12698 0.60887 0.4404 0.0
C1843 C 0.11272 0.6129 0.47178 0.0
C1844 C 0.10574 0.59891 0.50098 0.0
C1845 C 0.11338 0.5813 0.49929 0.0
C1846 C 0.12771 0.57771 0.4671 0.0
H1847 H 0.64846 0.95201 0.65201 0.0
H1848 H 0.60082 0.92223 0.60616 0.0
H1849 H 0.61198 0.89504 0.65016 0.0
H1850 H 0.68048 0.91651 0.64411 0.0
H1851 H 0.69268 0.92343 0.69715 0.0
H1852 H 0.68061 0.94 0.66211 0.0
H1853 H 0.66265 0.94977 0.73813 0.0
H1854 H 0.6746 0.93307 0.77327 0.0
H1855 H 0.65015 0.93298 0.77162 0.0
H1856 H 0.63003 0.87055 0.69618 0.0
H1857 H 0.6526 0.85167 0.73956 0.0
H1858 H 0.68662 0.8991 0.75883 0.0
C1859 C 0.64041 0.93973 0.6508 0.0
C1860 C 0.62394 0.93906 0.62504 0.0
C1861 C 0.61357 0.92291 0.62537 0.0
C1862 C 0.61978 0.90747 0.65039 0.0
C1863 C 0.63613 0.90865 0.67567 0.0
C1864 C 0.64616 0.92449 0.67626 0.0
C1865 C 0.66314 0.92258 0.7062 0.0
C1866 C 0.68023 0.92581 0.67555 0.0
C1867 C 0.66259 0.93535 0.74989 0.0
C1868 C 0.6615 0.90297 0.72135 0.0
C1869 C 0.64584 0.89509 0.70366 0.0
C1870 C 0.64217 0.87669 0.71075 0.0
C1871 C 0.65502 0.86608 0.73555 0.0
C1872 C 0.67126 0.87395 0.75307 0.0
C1873 C 0.67421 0.89271 0.74668 0.0
H1874 H 0.32995 0.40346 0.80462 0.0
H1875 H 0.35138 0.35136 0.84927 0.0
H1876 H 0.37409 0.36691 0.90008 0.0
H1877 H 0.37414 0.42889 0.80468 0.0
H1878 H 0.36328 0.44901 0.8277 0.0
H1879 H 0.35087 0.43372 0.7894 0.0
H1880 H 0.32605 0.43121 0.85435 0.0
H1881 H 0.33846 0.44564 0.89456 0.0
H1882 H 0.33193 0.4233 0.91369 0.0
H1883 H 0.39002 0.38821 0.95853 0.0
H1884 H 0.40091 0.4137 0.00958 0.0
H1885 H 0.37095 0.45156 0.92098 0.0
C1886 C 0.3399 0.39535 0.8236 0.0
C1887 C 0.33902 0.37624 0.82279 0.0
C1888 C 0.352 0.36604 0.84886 0.0
C1889 C 0.36489 0.37476 0.87803 0.0
C1890 C 0.36488 0.39367 0.87974 0.0
C1891 C 0.35304 0.40383 0.85205 0.0
C1892 C 0.35474 0.42385 0.86294 0.0
C1893 C 0.36115 0.43449 0.81853 0.0
C1894 C 0.33673 0.43143 0.88252 0.0
C1895 C 0.36917 0.42339 0.90152 0.0
C1896 C 0.37474 0.40587 0.91136 0.0
C1897 C 0.38625 0.40203 0.95001 0.0
C1898 C 0.39232 0.41649 0.97889 0.0
C1899 C 0.38715 0.43449 0.96808 0.0
C1900 C 0.37559 0.43792 0.92876 0.0
H1901 H 0.80571 0.10588 0.23612 0.0
H1902 H 0.84521 0.14252 0.29808 0.0
H1903 H 0.86955 0.12766 0.24973 0.0
H1904 H 0.83274 0.06621 0.22839 0.0
H1905 H 0.82336 0.05949 0.1713 0.0
H1906 H 0.80993 0.0727 0.2124 0.0
H1907 H 0.80491 0.09704 0.14612 0.0
H1908 H 0.81842 0.0839 0.10494 0.0
H1909 H 0.82431 0.10716 0.1172 0.0
H1910 H 0.88966 0.10639 0.19664 0.0
H1911 H 0.90259 0.08323 0.14129 0.0
H1912 H 0.84826 0.06413 0.10978 0.0
C1913 C 0.81954 0.11063 0.24014 0.0
C1914 C 0.82378 0.12494 0.27167 0.0
C1915 C 0.84185 0.13131 0.27459 0.0
C1916 C 0.85567 0.12299 0.24721 0.0
C1917 C 0.85095 0.10879 0.21624 0.0
C1918 C 0.83319 0.10295 0.21225 0.0
C1919 C 0.83113 0.08817 0.17522 0.0
C1920 C 0.82387 0.07061 0.19822 0.0
C1921 C 0.81898 0.09445 0.13341 0.0
C1922 C 0.8506 0.08614 0.15952 0.0
C1923 C 0.86198 0.09796 0.1836 0.0
C1924 C 0.88078 0.09735 0.17701 0.0
C1925 C 0.88801 0.08421 0.14551 0.0
C1926 C 0.8764 0.07216 0.12055 0.0
C1927 C 0.85749 0.07345 0.1273 0.0
H1928 H 0.85416 0.54908 0.95397 0.0
H1929 H 0.89312 0.58633 0.01612 0.0
H1930 H 0.87925 0.61164 0.96979 0.0
H1931 H 0.85399 0.56943 0.83501 0.0
H1932 H 0.83019 0.56499 0.82604 0.0
H1933 H 0.84351 0.55012 0.86341 0.0
H1934 H 0.82119 0.55515 0.93435 0.0
H1935 H 0.8077 0.56978 0.897 0.0
H1936 H 0.8162 0.57796 0.95372 0.0
H1937 H 0.85897 0.63314 0.9205 0.0
H1938 H 0.83455 0.64843 0.87445 0.0
H1939 H 0.8111 0.596 0.8409 0.0
C1940 C 0.85975 0.56258 0.95811 0.0
C1941 C 0.87451 0.56586 0.98915 0.0
C1942 C 0.88169 0.58362 0.99276 0.0
C1943 C 0.87396 0.598 0.96642 0.0
C1944 C 0.85939 0.59424 0.93588 0.0
C1945 C 0.85251 0.57688 0.93145 0.0
C1946 C 0.83676 0.5762 0.8968 0.0
C1947 C 0.8414 0.56449 0.85271 0.0
C1948 C 0.81945 0.56938 0.92198 0.0
C1949 C 0.83533 0.59602 0.88352 0.0
C1950 C 0.84851 0.60629 0.90607 0.0
C1951 C 0.84881 0.62517 0.90203 0.0
C1952 C 0.83494 0.63375 0.87561 0.0
C1953 C 0.82105 0.62341 0.85357 0.0
C1954 C 0.8217 0.6043 0.85647 0.0
H1955 H 0.14348 0.0648 0.60883 0.0
H1956 H 0.10137 0.10349 0.57215 0.0
H1957 H 0.11759 0.12722 0.61862 0.0
H1958 H 0.14868 0.07901 0.72897 0.0
H1959 H 0.17284 0.07522 0.73041 0.0
H1960 H 0.15873 0.06192 0.69107 0.0
H1961 H 0.178 0.07175 0.61745 0.0
H1962 H 0.19243 0.08469 0.65673 0.0
H1963 H 0.18166 0.09556 0.60621 0.0
H1964 H 0.13922 0.1467 0.67021 0.0
H1965 H 0.16413 0.15983 0.71915 0.0
H1966 H 0.18966 0.10688 0.72627 0.0
C1967 C 0.13781 0.07835 0.6096 0.0
C1968 C 0.12131 0.0824 0.58625 0.0
C1969 C 0.11414 0.10019 0.58928 0.0
C1970 C 0.1232 0.11369 0.61584 0.0
C1971 C 0.13923 0.10905 0.63962 0.0
C1972 C 0.14642 0.09177 0.63655 0.0
C1973 C 0.16336 0.08982 0.66659 0.0
C1974 C 0.16073 0.07566 0.70663 0.0
C1975 C 0.17983 0.08519 0.63485 0.0
C1976 C 0.16476 0.10874 0.68697 0.0
C1977 C 0.15083 0.11976 0.67098 0.0
C1978 C 0.15005 0.13811 0.68329 0.0
C1979 C 0.16417 0.14543 0.71137 0.0
C1980 C 0.17868 0.13433 0.72719 0.0
C1981 C 0.17859 0.11568 0.71571 0.0
H1982 H 0.67166 0.36349 0.39908 0.0
H1983 H 0.69396 0.40149 0.29559 0.0
H1984 H 0.6729 0.42502 0.32431 0.0
H1985 H 0.62364 0.38114 0.39467 0.0
H1986 H 0.62045 0.37775 0.45826 0.0
H1987 H 0.63533 0.36295 0.42498 0.0
H1988 H 0.66143 0.37043 0.48396 0.0
H1989 H 0.64675 0.38543 0.51703 0.0
H1990 H 0.6679 0.39376 0.49315 0.0
H1991 H 0.65354 0.44548 0.3711 0.0
H1992 H 0.63442 0.46161 0.42962 0.0
H1993 H 0.62291 0.41088 0.50257 0.0
C1994 C 0.67164 0.37658 0.38143 0.0
C1995 C 0.68435 0.38065 0.34483 0.0
C1996 C 0.68428 0.39806 0.32346 0.0
C1997 C 0.67237 0.41152 0.33953 0.0
C1998 C 0.66048 0.40734 0.37681 0.0
C1999 C 0.65976 0.39026 0.39715 0.0
C2000 C 0.64656 0.3899 0.43918 0.0
C2001 C 0.63054 0.37718 0.42862 0.0
C2002 C 0.65625 0.38457 0.48609 0.0
C2003 C 0.64051 0.4096 0.44021 0.0
C2004 C 0.64875 0.41931 0.40367 0.0
C2005 C 0.64671 0.43799 0.39921 0.0
C2006 C 0.63595 0.44703 0.43286 0.0
C2007 C 0.62718 0.43744 0.47031 0.0
C2008 C 0.62927 0.41843 0.47374 0.0
H2009 H 0.38621 0.93927 0.19246 0.0
H2010 H 0.39346 0.90968 0.0594 0.0
H2011 H 0.37738 0.88325 0.09478 0.0
H2012 H 0.38862 0.90094 0.27738 0.0
H2013 H 0.37063 0.90988 0.31435 0.0
H2014 H 0.38523 0.92511 0.28156 0.0
H2015 H 0.35718 0.93974 0.24092 0.0
H2016 H 0.34252 0.92466 0.27369 0.0
H2017 H 0.34133 0.92553 0.20903 0.0
H2018 H 0.35936 0.86074 0.14389 0.0
H2019 H 0.33694 0.84575 0.19647 0.0
H2020 H 0.33891 0.89152 0.29419 0.0
C2021 C 0.38484 0.92701 0.1713 0.0
C2022 C 0.39143 0.92621 0.12372 0.0
C2023 C 0.38871 0.91034 0.09619 0.0
C2024 C 0.3797 0.8953 0.1161 0.0
C2025 C 0.37322 0.89657 0.16317 0.0
C2026 C 0.37542 0.91216 0.19009 0.0
C2027 C 0.36512 0.91108 0.23714 0.0
C2028 C 0.37818 0.91179 0.28015 0.0
C2029 C 0.35069 0.92614 0.24035 0.0
C2030 C 0.35653 0.89252 0.23234 0.0
C2031 C 0.36177 0.88417 0.19004 0.0
C2032 C 0.35524 0.86712 0.17716 0.0
C2033 C 0.34258 0.85867 0.20744 0.0
C2034 C 0.33626 0.86745 0.24952 0.0
C2035 C 0.34364 0.88442 0.26251 0.0
H2036 H 0.85303 0.37703 0.79648 0.0
H2037 H 0.84521 0.33181 0.6991 0.0
H2038 H 0.86659 0.34578 0.6416 0.0
H2039 H 0.85308 0.41063 0.71231 0.0
H2040 H 0.87036 0.42446 0.73983 0.0
H2041 H 0.85688 0.40954 0.77626 0.0
H2042 H 0.88613 0.39419 0.8084 0.0
H2043 H 0.89968 0.40918 0.77189 0.0
H2044 H 0.90236 0.38496 0.76657 0.0
H2045 H 0.8837 0.3676 0.58846 0.0
H2046 H 0.89721 0.39425 0.54756 0.0
H2047 H 0.89593 0.42401 0.68173 0.0
C2048 C 0.8563 0.36978 0.76377 0.0
C2049 C 0.84754 0.35329 0.75236 0.0
C2050 C 0.85191 0.34435 0.70884 0.0
C2051 C 0.86403 0.35221 0.67589 0.0
C2052 C 0.87195 0.36882 0.68744 0.0
C2053 C 0.86853 0.37732 0.73083 0.0
C2054 C 0.87765 0.39571 0.73312 0.0
C2055 C 0.86365 0.41097 0.7408 0.0
C2056 C 0.89233 0.39602 0.77232 0.0
C2057 C 0.886 0.39661 0.68345 0.0
C2058 C 0.88264 0.38096 0.65759 0.0
C2059 C 0.88696 0.37966 0.60883 0.0
C2060 C 0.89462 0.39483 0.58584 0.0
C2061 C 0.89809 0.41095 0.61182 0.0
C2062 C 0.89412 0.4116 0.66144 0.0
H2063 H 0.35681 0.07408 0.50716 0.0
H2064 H 0.40537 0.10727 0.50632 0.0
H2065 H 0.3905 0.12863 0.44975 0.0
H2066 H 0.34788 0.07751 0.38453 0.0
H2067 H 0.32355 0.07798 0.39088 0.0
H2068 H 0.33722 0.06665 0.43526 0.0
H2069 H 0.32304 0.08645 0.50252 0.0
H2070 H 0.30909 0.09765 0.45842 0.0
H2071 H 0.3236 0.11081 0.49716 0.0
H2072 H 0.37013 0.14561 0.38929 0.0
H2073 H 0.34641 0.15641 0.3326 0.0
H2074 H 0.31266 0.11052 0.37168 0.0
C2075 C 0.36421 0.08605 0.49605 0.0
C2076 C 0.38218 0.08913 0.51156 0.0
C2077 C 0.39151 0.10477 0.49528 0.0
C2078 C 0.38319 0.11692 0.46304 0.0
C2079 C 0.36559 0.11316 0.44736 0.0
C2080 C 0.35623 0.09811 0.46366 0.0
C2081 C 0.33794 0.09636 0.43962 0.0
C2082 C 0.33658 0.07857 0.41087 0.0
C2083 C 0.32251 0.09792 0.47663 0.0
C2084 C 0.33846 0.11265 0.40676 0.0
C2085 C 0.35438 0.12235 0.41183 0.0
C2086 C 0.35763 0.13808 0.3851 0.0
C2087 C 0.34415 0.14407 0.35287 0.0
C2088 C 0.32781 0.1342 0.34733 0.0
C2089 C 0.32511 0.11826 0.37454 0.0
H2090 H 0.63977 0.57833 0.07406 0.0
H2091 H 0.59003 0.60805 0.10072 0.0
H2092 H 0.6071 0.62993 0.15108 0.0
H2093 H 0.65461 0.5797 0.18961 0.0
H2094 H 0.67842 0.58154 0.17568 0.0
H2095 H 0.6633 0.5708 0.13383 0.0
H2096 H 0.67335 0.59309 0.06681 0.0
H2097 H 0.68878 0.60373 0.10836 0.0
H2098 H 0.67207 0.61719 0.07726 0.0
H2099 H 0.6297 0.64674 0.20606 0.0
H2100 H 0.65487 0.65561 0.26099 0.0
H2101 H 0.68813 0.61265 0.20151 0.0
C2102 C 0.63253 0.58982 0.08893 0.0
C2103 C 0.61362 0.59167 0.08286 0.0
C2104 C 0.60458 0.60656 0.10432 0.0
C2105 C 0.61417 0.61902 0.13304 0.0
C2106 C 0.63274 0.61631 0.14001 0.0
C2107 C 0.64178 0.60205 0.11825 0.0
C2108 C 0.66111 0.60051 0.13579 0.0
C2109 C 0.66454 0.58205 0.16018 0.0
C2110 C 0.67462 0.60384 0.0946 0.0
C2111 C 0.66149 0.61581 0.17174 0.0
C2112 C 0.64521 0.62511 0.17319 0.0
C2113 C 0.64252 0.63958 0.20492 0.0
C2114 C 0.6568 0.64451 0.23601 0.0
C2115 C 0.67325 0.63464 0.23576 0.0
C2116 C 0.67557 0.62029 0.20287 0.0
H2117 H 0.18525 0.89476 0.8647 0.0
H2118 H 0.15658 0.84351 0.85607 0.0
H2119 H 0.13174 0.85643 0.90598 0.0
H2120 H 0.17521 0.90353 0.98657 0.0
H2121 H 0.17324 0.92771 0.97829 0.0
H2122 H 0.18781 0.91468 0.93953 0.0
H2123 H 0.17074 0.9269 0.86467 0.0
H2124 H 0.15626 0.94014 0.90318 0.0
H2125 H 0.14645 0.92439 0.86102 0.0
H2126 H 0.10984 0.87599 0.95755 0.0
H2127 H 0.09389 0.89948 0.00574 0.0
H2128 H 0.13894 0.93631 0.9831 0.0
C2129 C 0.17365 0.88625 0.8726 0.0
C2130 C 0.17273 0.86819 0.856 0.0
C2131 C 0.15746 0.85745 0.86806 0.0
C2132 C 0.14334 0.86467 0.89646 0.0
C2133 C 0.14488 0.88254 0.91284 0.0
C2134 C 0.15974 0.8931 0.90125 0.0
C2135 C 0.15878 0.9116 0.92436 0.0
C2136 C 0.1747 0.91454 0.95925 0.0
C2137 C 0.15801 0.92664 0.88602 0.0
C2138 C 0.14101 0.90996 0.95091 0.0
C2139 C 0.13301 0.89321 0.94372 0.0
C2140 C 0.1161 0.88906 0.96363 0.0
C2141 C 0.10717 0.90243 0.99103 0.0
C2142 C 0.1153 0.9196 0.99873 0.0
C2143 C 0.1325 0.92321 0.97868 0.0
loop_
_geom_bond_atom_site_label_1
_geom_bond_atom_site_label_2
_geom_bond_distance
_geom_bond_site_symmetry_2
_ccdc_geom_bond_type
In0 O1 2.294 . S
In0 O2 2.326 . S
In0 O6 2.266 . S
In0 O7 2.326 . S
In0 O8 2.266 . S
In0 O9 2.326 1_554 S
In0 O11 2.294 . S
In0 O12 2.326 . S
O1 In0 2.294 . S
O1 C10 1.240 . S
O2 In0 2.326 . S
O2 C10 1.252 . S
C3 O6 1.252 . S
C3 O7 1.260 . S
C4 O11 1.240 . S
C4 O12 1.252 . S
C5 O8 1.252 1_556 S
C5 O9 1.260 . S
O6 In0 2.266 . S
O6 C3 1.252 . S
O7 In0 2.326 . S
O7 C3 1.260 . S
O8 In0 2.266 . S
O8 C5 1.252 1_554 S
O9 In0 2.326 1_556 S
O9 C5 1.260 . S
C10 O1 1.240 . S
C10 O2 1.252 . S
O11 In0 2.294 . S
O11 C4 1.240 . S
O12 In0 2.326 . S
O12 C4 1.252 . S
In13 O14 2.294 . S
In13 O15 2.326 . S
In13 O19 2.266 . S
In13 O20 2.326 . S
In13 O21 2.266 . S
In13 O22 2.326 . S
In13 O24 2.294 . S
In13 O25 2.326 . S
O14 In13 2.294 . S
O14 C23 1.240 . S
O15 In13 2.326 . S
O15 C23 1.252 . S
C16 O19 1.252 . S
C16 O20 1.260 . S
C17 O24 1.240 . S
C17 O25 1.252 . S
C18 O21 1.252 . S
C18 O22 1.260 . S
O19 In13 2.266 . S
O19 C16 1.252 . S
O20 In13 2.326 . S
O20 C16 1.260 . S
O21 In13 2.266 . S
O21 C18 1.252 . S
O22 In13 2.326 . S
O22 C18 1.260 . S
C23 O14 1.240 . S
C23 O15 1.252 . S
O24 In13 2.294 . S
O24 C17 1.240 . S
O25 In13 2.326 . S
O25 C17 1.252 . S
In26 O27 2.294 . S
In26 O28 2.326 . S
In26 O32 2.266 . S
In26 O33 2.326 . S
In26 O34 2.266 . S
In26 O35 2.326 . S
In26 O37 2.294 . S
In26 O38 2.326 . S
O27 In26 2.294 . S
O27 C36 1.240 . S
O28 In26 2.326 . S
O28 C36 1.252 . S
C29 O32 1.252 . S
C29 O33 1.260 . S
C30 O37 1.240 . S
C30 O38 1.252 . S
C31 O34 1.252 . S
C31 O35 1.260 . S
O32 In26 2.266 . S
O32 C29 1.252 . S
O33 In26 2.326 . S
O33 C29 1.260 . S
O34 In26 2.266 . S
O34 C31 1.252 . S
O35 In26 2.326 . S
O35 C31 1.260 . S
C36 O27 1.240 . S
C36 O28 1.252 . S
O37 In26 2.294 . S
O37 C30 1.240 . S
O38 In26 2.326 . S
O38 C30 1.252 . S
In39 O40 2.294 . S
In39 O41 2.326 . S
In39 O45 2.266 . S
In39 O46 2.326 . S
In39 O47 2.266 . S
In39 O48 2.326 . S
In39 O50 2.294 . S
In39 O51 2.326 . S
O40 In39 2.294 . S
O40 C49 1.240 . S
O41 In39 2.326 . S
O41 C49 1.252 . S
C42 O45 1.252 . S
C42 O46 1.260 . S
C43 O50 1.240 . S
C43 O51 1.252 . S
C44 O47 1.252 . S
C44 O48 1.260 . S
O45 In39 2.266 . S
O45 C42 1.252 . S
O46 In39 2.326 . S
O46 C42 1.260 . S
O47 In39 2.266 . S
O47 C44 1.252 . S
O48 In39 2.326 . S
O48 C44 1.260 . S
C49 O40 1.240 . S
C49 O41 1.252 . S
O50 In39 2.294 . S
O50 C43 1.240 . S
O51 In39 2.326 . S
O51 C43 1.252 . S
In52 O53 2.294 . S
In52 O54 2.326 . S
In52 O58 2.266 . S
In52 O59 2.326 . S
In52 O60 2.266 . S
In52 O61 2.326 . S
In52 O63 2.294 . S
In52 O64 2.326 . S
O53 In52 2.294 . S
O53 C62 1.240 . S
O54 In52 2.326 . S
O54 C62 1.252 . S
C55 O58 1.252 . S
C55 O59 1.260 . S
C56 O63 1.240 . S
C56 O64 1.252 . S
C57 O60 1.252 . S
C57 O61 1.260 . S
O58 In52 2.266 . S
O58 C55 1.252 . S
O59 In52 2.326 . S
O59 C55 1.260 . S
O60 In52 2.266 . S
O60 C57 1.252 . S
O61 In52 2.326 . S
O61 C57 1.260 . S
C62 O53 1.240 . S
C62 O54 1.252 . S
O63 In52 2.294 . S
O63 C56 1.240 . S
O64 In52 2.326 . S
O64 C56 1.252 . S
In65 O66 2.294 . S
In65 O67 2.326 . S
In65 O71 2.266 . S
In65 O72 2.326 . S
In65 O73 2.266 . S
In65 O74 2.326 . S
In65 O76 2.294 . S
In65 O77 2.326 . S
O66 In65 2.294 . S
O66 C75 1.240 . S
O67 In65 2.326 . S
O67 C75 1.252 . S
C68 O71 1.252 . S
C68 O72 1.260 . S
C69 O76 1.240 . S
C69 O77 1.252 . S
C70 O73 1.252 . S
C70 O74 1.260 . S
O71 In65 2.266 . S
O71 C68 1.252 . S
O72 In65 2.326 . S
O72 C68 1.260 . S
O73 In65 2.266 . S
O73 C70 1.252 . S
O74 In65 2.326 . S
O74 C70 1.260 . S
C75 O66 1.240 . S
C75 O67 1.252 . S
O76 In65 2.294 . S
O76 C69 1.240 . S
O77 In65 2.326 . S
O77 C69 1.252 . S
In78 O79 2.294 . S
In78 O80 2.326 . S
In78 O84 2.266 . S
In78 O85 2.326 . S
In78 O86 2.266 . S
In78 O87 2.326 . S
In78 O89 2.294 1_554 S
In78 O90 2.326 1_554 S
O79 In78 2.294 . S
O79 C88 1.240 . S
O80 In78 2.326 . S
O80 C88 1.252 . S
C81 O84 1.252 . S
C81 O85 1.260 . S
C82 O89 1.240 . S
C82 O90 1.252 . S
C83 O86 1.252 . S
C83 O87 1.260 . S
O84 In78 2.266 . S
O84 C81 1.252 . S
O85 In78 2.326 . S
O85 C81 1.260 . S
O86 In78 2.266 . S
O86 C83 1.252 . S
O87 In78 2.326 . S
O87 C83 1.260 . S
C88 O79 1.240 . S
C88 O80 1.252 . S
O89 In78 2.294 1_556 S
O89 C82 1.240 . S
O90 In78 2.326 1_556 S
O90 C82 1.252 . S
In91 O92 2.294 . S
In91 O93 2.326 . S
In91 O97 2.266 . S
In91 O98 2.326 . S
In91 O99 2.266 . S
In91 O100 2.326 . S
In91 O102 2.294 . S
In91 O103 2.326 . S
O92 In91 2.294 . S
O92 C101 1.240 . S
O93 In91 2.326 . S
O93 C101 1.252 . S
C94 O97 1.252 . S
C94 O98 1.260 . S
C95 O102 1.240 . S
C95 O103 1.252 . S
C96 O99 1.252 . S
C96 O100 1.260 . S
O97 In91 2.266 . S
O97 C94 1.252 . S
O98 In91 2.326 . S
O98 C94 1.260 . S
O99 In91 2.266 . S
O99 C96 1.252 . S
O100 In91 2.326 . S
O100 C96 1.260 . S
C101 O92 1.240 . S
C101 O93 1.252 . S
O102 In91 2.294 . S
O102 C95 1.240 . S
O103 In91 2.326 . S
O103 C95 1.252 . S
In104 O105 2.294 1_554 S
In104 O106 2.326 1_554 S
In104 O110 2.266 . S
In104 O111 2.326 . S
In104 O112 2.266 . S
In104 O113 2.326 . S
In104 O115 2.294 . S
In104 O116 2.326 . S
O105 In104 2.294 1_556 S
O105 C114 1.240 . S
O106 In104 2.326 1_556 S
O106 C114 1.252 . S
C107 O110 1.252 . S
C107 O111 1.260 . S
C108 O115 1.240 . S
C108 O116 1.252 . S
C109 O112 1.252 . S
C109 O113 1.260 . S
O110 In104 2.266 . S
O110 C107 1.252 . S
O111 In104 2.326 . S
O111 C107 1.260 . S
O112 In104 2.266 . S
O112 C109 1.252 . S
O113 In104 2.326 . S
O113 C109 1.260 . S
C114 O105 1.240 . S
C114 O106 1.252 . S
O115 In104 2.294 . S
O115 C108 1.240 . S
O116 In104 2.326 . S
O116 C108 1.252 . S
In117 O118 2.294 . S
In117 O119 2.326 . S
In117 O123 2.266 . S
In117 O124 2.326 . S
In117 O125 2.266 . S
In117 O126 2.326 . S
In117 O128 2.294 . S
In117 O129 2.326 . S
O118 In117 2.294 . S
O118 C127 1.240 . S
O119 In117 2.326 . S
O119 C127 1.252 . S
C120 O123 1.252 . S
C120 O124 1.260 . S
C121 O128 1.240 . S
C121 O129 1.252 . S
C122 O125 1.252 . S
C122 O126 1.260 . S
O123 In117 2.266 . S
O123 C120 1.252 . S
O124 In117 2.326 . S
O124 C120 1.260 . S
O125 In117 2.266 . S
O125 C122 1.252 . S
O126 In117 2.326 . S
O126 C122 1.260 . S
C127 O118 1.240 . S
C127 O119 1.252 . S
O128 In117 2.294 . S
O128 C121 1.240 . S
O129 In117 2.326 . S
O129 C121 1.252 . S
In130 O131 2.294 . S
In130 O132 2.326 . S
In130 O136 2.266 . S
In130 O137 2.326 . S
In130 O138 2.266 . S
In130 O139 2.326 . S
In130 O141 2.294 . S
In130 O142 2.326 . S
O131 In130 2.294 . S
O131 C140 1.240 . S
O132 In130 2.326 . S
O132 C140 1.252 . S
C133 O136 1.252 . S
C133 O137 1.260 . S
C134 O141 1.240 . S
C134 O142 1.252 . S
C135 O138 1.252 . S
C135 O139 1.260 . S
O136 In130 2.266 . S
O136 C133 1.252 . S
O137 In130 2.326 . S
O137 C133 1.260 . S
O138 In130 2.266 . S
O138 C135 1.252 . S
O139 In130 2.326 . S
O139 C135 1.260 . S
C140 O131 1.240 . S
C140 O132 1.252 . S
O141 In130 2.294 . S
O141 C134 1.240 . S
O142 In130 2.326 . S
O142 C134 1.252 . S
In143 O144 2.294 . S
In143 O145 2.326 . S
In143 O149 2.266 . S
In143 O150 2.326 . S
In143 O151 2.266 . S
In143 O152 2.326 . S
In143 O154 2.294 . S
In143 O155 2.326 . S
O144 In143 2.294 . S
O144 C153 1.240 . S
O145 In143 2.326 . S
O145 C153 1.252 . S
C146 O149 1.252 . S
C146 O150 1.260 . S
C147 O154 1.240 . S
C147 O155 1.252 . S
C148 O151 1.252 . S
C148 O152 1.260 . S
O149 In143 2.266 . S
O149 C146 1.252 . S
O150 In143 2.326 . S
O150 C146 1.260 . S
O151 In143 2.266 . S
O151 C148 1.252 . S
O152 In143 2.326 . S
O152 C148 1.260 . S
C153 O144 1.240 . S
C153 O145 1.252 . S
O154 In143 2.294 . S
O154 C147 1.240 . S
O155 In143 2.326 . S
O155 C147 1.252 . S
In156 O157 2.294 . S
In156 O158 2.326 . S
In156 O162 2.266 . S
In156 O163 2.326 . S
In156 O164 2.266 . S
In156 O165 2.326 . S
In156 O167 2.294 . S
In156 O168 2.326 . S
O157 In156 2.294 . S
O157 C166 1.240 . S
O158 In156 2.326 . S
O158 C166 1.252 . S
C159 O162 1.252 . S
C159 O163 1.260 . S
C160 O167 1.240 . S
C160 O168 1.252 . S
C161 O164 1.252 . S
C161 O165 1.260 . S
O162 In156 2.266 . S
O162 C159 1.252 . S
O163 In156 2.326 . S
O163 C159 1.260 . S
O164 In156 2.266 . S
O164 C161 1.252 . S
O165 In156 2.326 . S
O165 C161 1.260 . S
C166 O157 1.240 . S
C166 O158 1.252 . S
O167 In156 2.294 . S
O167 C160 1.240 . S
O168 In156 2.326 . S
O168 C160 1.252 . S
In169 O170 2.294 . S
In169 O171 2.326 . S
In169 O175 2.266 . S
In169 O176 2.326 . S
In169 O177 2.266 . S
In169 O178 2.326 . S
In169 O180 2.294 . S
In169 O181 2.326 . S
O170 In169 2.294 . S
O170 C179 1.240 . S
O171 In169 2.326 . S
O171 C179 1.252 . S
C172 O175 1.252 . S
C172 O176 1.260 . S
C173 O180 1.240 . S
C173 O181 1.252 . S
C174 O177 1.252 . S
C174 O178 1.260 . S
O175 In169 2.266 . S
O175 C172 1.252 . S
O176 In169 2.326 . S
O176 C172 1.260 . S
O177 In169 2.266 . S
O177 C174 1.252 . S
O178 In169 2.326 . S
O178 C174 1.260 . S
C179 O170 1.240 . S
C179 O171 1.252 . S
O180 In169 2.294 . S
O180 C173 1.240 . S
O181 In169 2.326 . S
O181 C173 1.252 . S
In182 O183 2.294 . S
In182 O184 2.326 . S
In182 O188 2.266 . S
In182 O189 2.326 . S
In182 O190 2.266 . S
In182 O191 2.326 1_554 S
In182 O193 2.294 . S
In182 O194 2.326 . S
O183 In182 2.294 . S
O183 C192 1.240 . S
O184 In182 2.326 . S
O184 C192 1.252 . S
C185 O188 1.252 . S
C185 O189 1.260 . S
C186 O193 1.240 . S
C186 O194 1.252 . S
C187 O190 1.252 1_556 S
C187 O191 1.260 . S
O188 In182 2.266 . S
O188 C185 1.252 . S
O189 In182 2.326 . S
O189 C185 1.260 . S
O190 In182 2.266 . S
O190 C187 1.252 1_554 S
O191 In182 2.326 1_556 S
O191 C187 1.260 . S
C192 O183 1.240 . S
C192 O184 1.252 . S
O193 In182 2.294 . S
O193 C186 1.240 . S
O194 In182 2.326 . S
O194 C186 1.252 . S
In195 O196 2.294 . S
In195 O197 2.326 . S
In195 O201 2.266 . S
In195 O202 2.326 . S
In195 O203 2.266 . S
In195 O204 2.326 . S
In195 O206 2.294 . S
In195 O207 2.326 . S
O196 In195 2.294 . S
O196 C205 1.240 . S
O197 In195 2.326 . S
O197 C205 1.252 . S
C198 O201 1.252 . S
C198 O202 1.260 . S
C199 O206 1.240 . S
C199 O207 1.252 . S
C200 O203 1.252 . S
C200 O204 1.260 . S
O201 In195 2.266 . S
O201 C198 1.252 . S
O202 In195 2.326 . S
O202 C198 1.260 . S
O203 In195 2.266 . S
O203 C200 1.252 . S
O204 In195 2.326 . S
O204 C200 1.260 . S
C205 O196 1.240 . S
C205 O197 1.252 . S
O206 In195 2.294 . S
O206 C199 1.240 . S
O207 In195 2.326 . S
O207 C199 1.252 . S
In208 O209 2.294 . S
In208 O210 2.326 . S
In208 O214 2.266 . S
In208 O215 2.294 1_565 S
In208 O216 2.266 1_565 S
In208 O217 2.326 . S
In208 O219 2.294 1_565 S
In208 O220 2.326 . S
O209 In208 2.294 . S
O209 C218 1.240 . S
O210 In208 2.326 . S
O210 C218 1.252 . S
C211 O214 1.252 . S
C211 O215 1.210 1_565 S
C212 O219 1.240 1_565 S
C212 O220 1.252 . S
C213 O216 1.252 1_565 S
C213 O217 1.260 . S
O214 In208 2.266 . S
O214 C211 1.252 . S
O215 In208 2.294 1_545 S
O215 C211 1.210 1_545 S
O216 In208 2.266 1_545 S
O216 C213 1.252 1_545 S
O217 In208 2.326 . S
O217 C213 1.260 . S
C218 O209 1.240 . S
C218 O210 1.252 . S
O219 In208 2.294 1_545 S
O219 C212 1.240 1_545 S
O220 In208 2.326 . S
O220 C212 1.252 . S
In221 O222 2.294 . S
In221 O223 2.326 . S
In221 O227 2.266 . S
In221 O228 2.326 . S
In221 O229 2.266 . S
In221 O230 2.326 . S
In221 O232 2.294 . S
In221 O233 2.326 . S
O222 In221 2.294 . S
O222 C231 1.240 . S
O223 In221 2.326 . S
O223 C231 1.252 . S
C224 O227 1.252 . S
C224 O228 1.260 . S
C225 O232 1.240 . S
C225 O233 1.252 . S
C226 O229 1.252 . S
C226 O230 1.260 . S
O227 In221 2.266 . S
O227 C224 1.252 . S
O228 In221 2.326 . S
O228 C224 1.260 . S
O229 In221 2.266 . S
O229 C226 1.252 . S
O230 In221 2.326 . S
O230 C226 1.260 . S
C231 O222 1.240 . S
C231 O223 1.252 . S
O232 In221 2.294 . S
O232 C225 1.240 . S
O233 In221 2.326 . S
O233 C225 1.252 . S
In234 O235 2.294 . S
In234 O236 2.326 . S
In234 O240 2.266 . S
In234 O241 2.295 1_545 S
In234 O242 2.266 1_545 S
In234 O243 2.326 1_554 S
In234 O245 2.294 1_545 S
In234 O246 2.326 . S
O235 In234 2.294 . S
O235 C244 1.240 . S
O236 In234 2.326 . S
O236 C244 1.252 . S
C237 O240 1.252 . S
C237 O241 1.212 1_545 S
C238 O245 1.240 1_545 S
C238 O246 1.252 . S
C239 O242 1.252 1_546 S
C239 O243 1.260 . S
O240 In234 2.266 . S
O240 C237 1.252 . S
O241 In234 2.295 1_565 S
O241 C237 1.212 1_565 S
O242 In234 2.266 1_565 S
O242 C239 1.252 1_564 S
O243 In234 2.326 1_556 S
O243 C239 1.260 . S
C244 O235 1.240 . S
C244 O236 1.252 . S
O245 In234 2.294 1_565 S
O245 C238 1.240 1_565 S
O246 In234 2.326 . S
O246 C238 1.252 . S
In247 O248 2.294 . S
In247 O249 2.326 . S
In247 O253 2.266 . S
In247 O254 2.326 . S
In247 O255 2.266 . S
In247 O256 2.326 . S
In247 O258 2.294 . S
In247 O259 2.326 . S
O248 In247 2.294 . S
O248 C257 1.240 . S
O249 In247 2.326 . S
O249 C257 1.252 . S
C250 O253 1.252 . S
C250 O254 1.260 . S
C251 O258 1.240 . S
C251 O259 1.252 . S
C252 O255 1.252 . S
C252 O256 1.260 . S
O253 In247 2.266 . S
O253 C250 1.252 . S
O254 In247 2.326 . S
O254 C250 1.260 . S
O255 In247 2.266 . S
O255 C252 1.252 . S
O256 In247 2.326 . S
O256 C252 1.260 . S
C257 O248 1.240 . S
C257 O249 1.252 . S
O258 In247 2.294 . S
O258 C251 1.240 . S
O259 In247 2.326 . S
O259 C251 1.252 . S
In260 O261 2.294 1_544 S
In260 O262 2.326 1_554 S
In260 O266 2.266 1_545 S
In260 O267 2.326 . S
In260 O268 2.266 . S
In260 O269 2.293 1_545 S
In260 O271 2.294 . S
In260 O272 2.326 . S
O261 In260 2.294 1_566 S
O261 C270 1.240 1_565 S
O262 In260 2.326 1_556 S
O262 C270 1.252 . S
C263 O266 1.252 1_545 S
C263 O267 1.260 . S
C264 O271 1.240 . S
C264 O272 1.252 . S
C265 O268 1.252 . S
C265 O269 1.210 1_545 S
O266 In260 2.266 1_565 S
O266 C263 1.252 1_565 S
O267 In260 2.326 . S
O267 C263 1.260 . S
O268 In260 2.266 . S
O268 C265 1.252 . S
O269 In260 2.293 1_565 S
O269 C265 1.210 1_565 S
C270 O261 1.240 1_545 S
C270 O262 1.252 . S
O271 In260 2.294 . S
O271 C264 1.240 . S
O272 In260 2.326 . S
O272 C264 1.252 . S
In273 O274 2.294 . S
In273 O275 2.326 . S
In273 O279 2.266 . S
In273 O280 2.326 . S
In273 O281 2.266 . S
In273 O282 2.326 . S
In273 O284 2.294 . S
In273 O285 2.326 . S
O274 In273 2.294 . S
O274 C283 1.240 . S
O275 In273 2.326 . S
O275 C283 1.252 . S
C276 O279 1.252 . S
C276 O280 1.260 . S
C277 O284 1.240 . S
C277 O285 1.252 . S
C278 O281 1.252 . S
C278 O282 1.260 . S
O279 In273 2.266 . S
O279 C276 1.252 . S
O280 In273 2.326 . S
O280 C276 1.260 . S
O281 In273 2.266 . S
O281 C278 1.252 . S
O282 In273 2.326 . S
O282 C278 1.260 . S
C283 O274 1.240 . S
C283 O275 1.252 . S
O284 In273 2.294 . S
O284 C277 1.240 . S
O285 In273 2.326 . S
O285 C277 1.252 . S
In286 O287 2.294 . S
In286 O288 2.326 . S
In286 O292 2.266 . S
In286 O293 2.293 1_565 S
In286 O294 2.266 1_565 S
In286 O295 2.326 . S
In286 O297 2.294 1_565 S
In286 O298 2.326 . S
O287 In286 2.294 . S
O287 C296 1.240 . S
O288 In286 2.326 . S
O288 C296 1.252 . S
C289 O292 1.252 . S
C289 O293 1.209 1_565 S
C290 O297 1.240 1_565 S
C290 O298 1.252 . S
C291 O294 1.252 1_565 S
C291 O295 1.260 . S
O292 In286 2.266 . S
O292 C289 1.252 . S
O293 In286 2.293 1_545 S
O293 C289 1.209 1_545 S
O294 In286 2.266 1_545 S
O294 C291 1.252 1_545 S
O295 In286 2.326 . S
O295 C291 1.260 . S
C296 O287 1.240 . S
C296 O288 1.252 . S
O297 In286 2.294 1_545 S
O297 C290 1.240 1_545 S
O298 In286 2.326 . S
O298 C290 1.252 . S
In299 O300 2.294 . S
In299 O301 2.326 . S
In299 O305 2.266 . S
In299 O306 2.326 . S
In299 O307 2.266 . S
In299 O308 2.326 . S
In299 O310 2.294 . S
In299 O311 2.326 . S
O300 In299 2.294 . S
O300 C309 1.240 . S
O301 In299 2.326 . S
O301 C309 1.252 . S
C302 O305 1.252 . S
C302 O306 1.260 . S
C303 O310 1.240 . S
C303 O311 1.252 . S
C304 O307 1.252 . S
C304 O308 1.260 . S
O305 In299 2.266 . S
O305 C302 1.252 . S
O306 In299 2.326 . S
O306 C302 1.260 . S
O307 In299 2.266 . S
O307 C304 1.252 . S
O308 In299 2.326 . S
O308 C304 1.260 . S
C309 O300 1.240 . S
C309 O301 1.252 . S
O310 In299 2.294 . S
O310 C303 1.240 . S
O311 In299 2.326 . S
O311 C303 1.252 . S
In312 O313 2.294 . S
In312 O314 2.326 . S
In312 O318 2.266 . S
In312 O319 2.293 1_545 S
In312 O320 2.266 1_545 S
In312 O321 2.326 . S
In312 O323 2.294 1_545 S
In312 O324 2.326 . S
O313 In312 2.294 . S
O313 C322 1.240 . S
O314 In312 2.326 . S
O314 C322 1.252 . S
C315 O318 1.252 . S
C315 O319 1.209 1_545 S
C316 O323 1.240 1_545 S
C316 O324 1.252 . S
C317 O320 1.252 1_545 S
C317 O321 1.260 . S
O318 In312 2.266 . S
O318 C315 1.252 . S
O319 In312 2.293 1_565 S
O319 C315 1.209 1_565 S
O320 In312 2.266 1_565 S
O320 C317 1.252 1_565 S
O321 In312 2.326 . S
O321 C317 1.260 . S
C322 O313 1.240 . S
C322 O314 1.252 . S
O323 In312 2.294 1_565 S
O323 C316 1.240 1_565 S
O324 In312 2.326 . S
O324 C316 1.252 . S
In325 O326 2.294 . S
In325 O327 2.326 . S
In325 O331 2.266 . S
In325 O332 2.326 . S
In325 O333 2.266 . S
In325 O334 2.326 . S
In325 O336 2.294 . S
In325 O337 2.326 . S
O326 In325 2.294 . S
O326 C335 1.240 . S
O327 In325 2.326 . S
O327 C335 1.252 . S
C328 O331 1.252 . S
C328 O332 1.260 . S
C329 O336 1.240 . S
C329 O337 1.252 . S
C330 O333 1.252 . S
C330 O334 1.260 . S
O331 In325 2.266 . S
O331 C328 1.252 . S
O332 In325 2.326 . S
O332 C328 1.260 . S
O333 In325 2.266 . S
O333 C330 1.252 . S
O334 In325 2.326 . S
O334 C330 1.260 . S
C335 O326 1.240 . S
C335 O327 1.252 . S
O336 In325 2.294 . S
O336 C329 1.240 . S
O337 In325 2.326 . S
O337 C329 1.252 . S
In338 O339 2.294 1_564 S
In338 O340 2.326 1_554 S
In338 O344 2.266 1_565 S
In338 O345 2.326 . S
In338 O346 2.266 . S
In338 O347 2.293 1_565 S
In338 O349 2.294 . S
In338 O350 2.326 . S
O339 In338 2.294 1_546 S
O339 C348 1.240 1_545 S
O340 In338 2.326 1_556 S
O340 C348 1.252 . S
C341 O344 1.252 1_565 S
C341 O345 1.260 . S
C342 O349 1.240 . S
C342 O350 1.252 . S
C343 O346 1.252 . S
C343 O347 1.210 1_565 S
O344 In338 2.266 1_545 S
O344 C341 1.252 1_545 S
O345 In338 2.326 . S
O345 C341 1.260 . S
O346 In338 2.266 . S
O346 C343 1.252 . S
O347 In338 2.293 1_545 S
O347 C343 1.210 1_545 S
C348 O339 1.240 1_565 S
C348 O340 1.252 . S
O349 In338 2.294 . S
O349 C342 1.240 . S
O350 In338 2.326 . S
O350 C342 1.252 . S
In351 O352 2.294 . S
In351 O353 2.326 . S
In351 O357 2.266 . S
In351 O358 2.326 . S
In351 O359 2.266 . S
In351 O360 2.326 . S
In351 O362 2.294 . S
In351 O363 2.326 . S
O352 In351 2.294 . S
O352 C361 1.240 . S
O353 In351 2.326 . S
O353 C361 1.252 . S
C354 O357 1.252 . S
C354 O358 1.260 . S
C355 O362 1.240 . S
C355 O363 1.252 . S
C356 O359 1.252 . S
C356 O360 1.260 . S
O357 In351 2.266 . S
O357 C354 1.252 . S
O358 In351 2.326 . S
O358 C354 1.260 . S
O359 In351 2.266 . S
O359 C356 1.252 . S
O360 In351 2.326 . S
O360 C356 1.260 . S
C361 O352 1.240 . S
C361 O353 1.252 . S
O362 In351 2.294 . S
O362 C355 1.240 . S
O363 In351 2.326 . S
O363 C355 1.252 . S
In364 O365 2.294 . S
In364 O366 2.326 . S
In364 O370 2.266 . S
In364 O371 2.295 1_565 S
In364 O372 2.266 1_565 S
In364 O373 2.326 1_554 S
In364 O375 2.294 1_565 S
In364 O376 2.326 . S
O365 In364 2.294 . S
O365 C374 1.240 . S
O366 In364 2.326 . S
O366 C374 1.252 . S
C367 O370 1.252 . S
C367 O371 1.212 1_565 S
C368 O375 1.240 1_565 S
C368 O376 1.252 . S
C369 O372 1.252 1_566 S
C369 O373 1.260 . S
O370 In364 2.266 . S
O370 C367 1.252 . S
O371 In364 2.295 1_545 S
O371 C367 1.212 1_545 S
O372 In364 2.266 1_545 S
O372 C369 1.252 1_544 S
O373 In364 2.326 1_556 S
O373 C369 1.260 . S
C374 O365 1.240 . S
C374 O366 1.252 . S
O375 In364 2.294 1_545 S
O375 C368 1.240 1_545 S
O376 In364 2.326 . S
O376 C368 1.252 . S
In377 O378 2.294 . S
In377 O379 2.326 . S
In377 O383 2.266 . S
In377 O384 2.326 . S
In377 O385 2.266 . S
In377 O386 2.326 . S
In377 O388 2.294 . S
In377 O389 2.326 . S
O378 In377 2.294 . S
O378 C387 1.240 . S
O379 In377 2.326 . S
O379 C387 1.252 . S
C380 O383 1.252 . S
C380 O384 1.260 . S
C381 O388 1.240 . S
C381 O389 1.252 . S
C382 O385 1.252 . S
C382 O386 1.260 . S
O383 In377 2.266 . S
O383 C380 1.252 . S
O384 In377 2.326 . S
O384 C380 1.260 . S
O385 In377 2.266 . S
O385 C382 1.252 . S
O386 In377 2.326 . S
O386 C382 1.260 . S
C387 O378 1.240 . S
C387 O379 1.252 . S
O388 In377 2.294 . S
O388 C381 1.240 . S
O389 In377 2.326 . S
O389 C381 1.252 . S
In390 O391 2.294 . S
In390 O392 2.326 . S
In390 O396 2.266 . S
In390 O397 2.294 1_545 S
In390 O398 2.266 1_545 S
In390 O399 2.326 . S
In390 O401 2.294 1_545 S
In390 O402 2.326 . S
O391 In390 2.294 . S
O391 C400 1.240 . S
O392 In390 2.326 . S
O392 C400 1.252 . S
C393 O396 1.252 . S
C393 O397 1.210 1_545 S
C394 O401 1.240 1_545 S
C394 O402 1.252 . S
C395 O398 1.252 1_545 S
C395 O399 1.260 . S
O396 In390 2.266 . S
O396 C393 1.252 . S
O397 In390 2.294 1_565 S
O397 C393 1.210 1_565 S
O398 In390 2.266 1_565 S
O398 C395 1.252 1_565 S
O399 In390 2.326 . S
O399 C395 1.260 . S
C400 O391 1.240 . S
C400 O392 1.252 . S
O401 In390 2.294 1_565 S
O401 C394 1.240 1_565 S
O402 In390 2.326 . S
O402 C394 1.252 . S
In403 O404 2.294 . S
In403 O405 2.326 . S
In403 O409 2.266 . S
In403 O410 2.326 . S
In403 O411 2.266 . S
In403 O412 2.326 . S
In403 O414 2.294 . S
In403 O415 2.326 . S
O404 In403 2.294 . S
O404 C413 1.240 . S
O405 In403 2.326 . S
O405 C413 1.252 . S
C406 O409 1.252 . S
C406 O410 1.260 . S
C407 O414 1.240 . S
C407 O415 1.252 . S
C408 O411 1.252 . S
C408 O412 1.260 . S
O409 In403 2.266 . S
O409 C406 1.252 . S
O410 In403 2.326 . S
O410 C406 1.260 . S
O411 In403 2.266 . S
O411 C408 1.252 . S
O412 In403 2.326 . S
O412 C408 1.260 . S
C413 O404 1.240 . S
C413 O405 1.252 . S
O414 In403 2.294 . S
O414 C407 1.240 . S
O415 In403 2.326 . S
O415 C407 1.252 . S
H416 C428 0.930 . S
H417 C430 0.930 . S
H418 C431 0.930 . S
H419 C435 0.959 1_554 S
H420 C435 0.959 1_455 S
H421 C435 0.961 . S
H422 C436 0.958 1_655 S
H423 C436 0.963 . S
H424 C436 0.960 . S
H425 C439 0.929 . S
H426 C440 0.931 . S
H427 C442 0.930 1_556 S
C428 H416 0.930 . S
C428 C429 1.399 . S
C428 C433 1.399 . S
C429 C428 1.399 . S
C429 C430 1.376 . S
C430 H417 0.930 . S
C430 C429 1.376 . S
C430 C431 1.388 . S
C431 H418 0.930 . S
C431 C430 1.388 . S
C431 C432 1.390 . S
C432 C431 1.390 . S
C432 C433 1.394 . S
C432 C438 1.465 1_655 S
C433 C428 1.399 . S
C433 C432 1.394 . S
C433 C434 1.516 . S
C434 C433 1.516 . S
C434 C435 1.502 1_554 S
C434 C436 1.561 1_654 S
C434 C437 1.526 1_655 S
C435 H419 0.959 1_556 S
C435 H420 0.959 1_655 S
C435 H421 0.961 . S
C435 C434 1.502 1_556 S
C436 H422 0.958 1_455 S
C436 H423 0.963 . S
C436 H424 0.960 . S
C436 C434 1.561 1_456 S
C437 C434 1.526 1_455 S
C437 C438 1.396 . S
C437 C442 1.390 . S
C438 C432 1.465 1_455 S
C438 C437 1.396 . S
C438 C439 1.399 . S
C439 H425 0.929 . S
C439 C438 1.399 . S
C439 C440 1.385 . S
C440 H426 0.931 . S
C440 C439 1.385 . S
C440 C441 1.389 . S
C441 C440 1.389 . S
C441 C442 1.387 . S
C442 H427 0.930 1_554 S
C442 C437 1.390 . S
C442 C441 1.387 . S
H443 C455 0.930 . S
H444 C457 0.930 . S
H445 C458 0.930 . S
H446 C462 0.959 . S
H447 C462 0.959 . S
H448 C462 0.961 . S
H449 C463 0.960 . S
H450 C463 0.961 . S
H451 C463 0.959 . S
H452 C466 0.929 . S
H453 C467 0.931 . S
H454 C469 0.930 . S
C455 H443 0.930 . S
C455 C456 1.399 . S
C455 C460 1.399 . S
C456 C455 1.399 . S
C456 C457 1.376 . S
C457 H444 0.930 . S
C457 C456 1.376 . S
C457 C458 1.388 . S
C458 H445 0.930 . S
C458 C457 1.388 . S
C458 C459 1.390 . S
C459 C458 1.390 . S
C459 C460 1.394 . S
C459 C465 1.465 . S
C460 C455 1.399 . S
C460 C459 1.394 . S
C460 C461 1.516 . S
C461 C460 1.516 . S
C461 C462 1.502 . S
C461 C463 1.561 . S
C461 C464 1.526 . S
C462 H446 0.959 . S
C462 H447 0.959 . S
C462 H448 0.961 . S
C462 C461 1.502 . S
C463 H449 0.960 . S
C463 H450 0.961 . S
C463 H451 0.959 . S
C463 C461 1.561 . S
C464 C461 1.526 . S
C464 C465 1.396 . S
C464 C469 1.390 . S
C465 C459 1.465 . S
C465 C464 1.396 . S
C465 C466 1.399 . S
C466 H452 0.929 . S
C466 C465 1.399 . S
C466 C467 1.385 . S
C467 H453 0.931 . S
C467 C466 1.385 . S
C467 C468 1.389 . S
C468 C467 1.389 . S
C468 C469 1.387 . S
C469 H454 0.930 . S
C469 C464 1.390 . S
C469 C468 1.387 . S
H470 C482 0.930 . S
H471 C484 0.930 . S
H472 C485 0.930 . S
H473 C489 0.959 . S
H474 C489 0.959 . S
H475 C489 0.961 . S
H476 C490 0.960 . S
H477 C490 0.961 . S
H478 C490 0.959 . S
H479 C493 0.929 . S
H480 C494 0.931 . S
H481 C496 0.930 . S
C482 H470 0.930 . S
C482 C483 1.399 . S
C482 C487 1.399 . S
C483 C482 1.399 . S
C483 C484 1.376 . S
C484 H471 0.930 . S
C484 C483 1.376 . S
C484 C485 1.388 . S
C485 H472 0.930 . S
C485 C484 1.388 . S
C485 C486 1.390 . S
C486 C485 1.390 . S
C486 C487 1.394 . S
C486 C492 1.465 . S
C487 C482 1.399 . S
C487 C486 1.394 . S
C487 C488 1.516 . S
C488 C487 1.516 . S
C488 C489 1.502 . S
C488 C490 1.561 . S
C488 C491 1.526 . S
C489 H473 0.959 . S
C489 H474 0.959 . S
C489 H475 0.961 . S
C489 C488 1.502 . S
C490 H476 0.960 . S
C490 H477 0.961 . S
C490 H478 0.959 . S
C490 C488 1.561 . S
C491 C488 1.526 . S
C491 C492 1.396 . S
C491 C496 1.390 . S
C492 C486 1.465 . S
C492 C491 1.396 . S
C492 C493 1.399 . S
C493 H479 0.929 . S
C493 C492 1.399 . S
C493 C494 1.385 . S
C494 H480 0.931 . S
C494 C493 1.385 . S
C494 C495 1.389 . S
C495 C494 1.389 . S
C495 C496 1.387 . S
C496 H481 0.930 . S
C496 C491 1.390 . S
C496 C495 1.387 . S
H497 C509 0.930 . S
H498 C511 0.930 . S
H499 C512 0.930 . S
H500 C516 0.959 . S
H501 C516 0.959 . S
H502 C516 0.961 . S
H503 C517 0.960 . S
H504 C517 0.961 . S
H505 C517 0.959 . S
H506 C520 0.929 . S
H507 C521 0.931 . S
H508 C523 0.930 . S
C509 H497 0.930 . S
C509 C510 1.399 . S
C509 C514 1.399 . S
C510 C509 1.399 . S
C510 C511 1.376 . S
C511 H498 0.930 . S
C511 C510 1.376 . S
C511 C512 1.388 . S
C512 H499 0.930 . S
C512 C511 1.388 . S
C512 C513 1.390 . S
C513 C512 1.390 . S
C513 C514 1.394 . S
C513 C519 1.465 . S
C514 C509 1.399 . S
C514 C513 1.394 . S
C514 C515 1.516 . S
C515 C514 1.516 . S
C515 C516 1.502 . S
C515 C517 1.561 . S
C515 C518 1.526 . S
C516 H500 0.959 . S
C516 H501 0.959 . S
C516 H502 0.961 . S
C516 C515 1.502 . S
C517 H503 0.960 . S
C517 H504 0.961 . S
C517 H505 0.959 . S
C517 C515 1.561 . S
C518 C515 1.526 . S
C518 C519 1.396 . S
C518 C523 1.390 . S
C519 C513 1.465 . S
C519 C518 1.396 . S
C519 C520 1.399 . S
C520 H506 0.929 . S
C520 C519 1.399 . S
C520 C521 1.385 . S
C521 H507 0.931 . S
C521 C520 1.385 . S
C521 C522 1.389 . S
C522 C521 1.389 . S
C522 C523 1.387 . S
C523 H508 0.930 . S
C523 C518 1.390 . S
C523 C522 1.387 . S
H524 C536 0.930 . S
H525 C538 0.930 . S
H526 C539 0.930 . S
H527 C543 0.959 . S
H528 C543 0.959 1_655 S
H529 C543 0.961 . S
H530 C544 0.960 1_455 S
H531 C544 0.961 . S
H532 C544 0.959 . S
H533 C547 0.929 . S
H534 C548 0.931 . S
H535 C550 0.930 . S
C536 H524 0.930 . S
C536 C537 1.399 . S
C536 C541 1.399 . S
C537 C536 1.399 . S
C537 C538 1.376 . S
C538 H525 0.930 . S
C538 C537 1.376 . S
C538 C539 1.388 . S
C539 H526 0.930 . S
C539 C538 1.388 . S
C539 C540 1.390 . S
C540 C539 1.390 . S
C540 C541 1.394 . S
C540 C546 1.465 1_455 S
C541 C536 1.399 . S
C541 C540 1.394 . S
C541 C542 1.558 . S
C542 C541 1.558 . S
C542 C543 1.514 . S
C542 C544 1.553 1_455 S
C542 C545 1.481 1_455 S
C543 H527 0.959 . S
C543 H528 0.959 1_455 S
C543 H529 0.961 . S
C543 C542 1.514 . S
C544 H530 0.960 1_655 S
C544 H531 0.961 . S
C544 H532 0.959 . S
C544 C542 1.553 1_655 S
C545 C542 1.481 1_655 S
C545 C546 1.396 . S
C545 C550 1.390 . S
C546 C540 1.465 1_655 S
C546 C545 1.396 . S
C546 C547 1.399 . S
C547 H533 0.929 . S
C547 C546 1.399 . S
C547 C548 1.385 . S
C548 H534 0.931 . S
C548 C547 1.385 . S
C548 C549 1.389 . S
C549 C548 1.389 . S
C549 C550 1.387 . S
C550 H535 0.930 . S
C550 C545 1.390 . S
C550 C549 1.387 . S
H551 C563 0.930 . S
H552 C565 0.930 . S
H553 C566 0.930 . S
H554 C570 0.959 . S
H555 C570 0.959 . S
H556 C570 0.961 . S
H557 C571 0.960 . S
H558 C571 0.961 . S
H559 C571 0.959 . S
H560 C574 0.929 . S
H561 C575 0.931 . S
H562 C577 0.930 . S
C563 H551 0.930 . S
C563 C564 1.399 . S
C563 C568 1.399 . S
C564 C563 1.399 . S
C564 C565 1.376 . S
C565 H552 0.930 . S
C565 C564 1.376 . S
C565 C566 1.388 . S
C566 H553 0.930 . S
C566 C565 1.388 . S
C566 C567 1.390 . S
C567 C566 1.390 . S
C567 C568 1.394 . S
C567 C573 1.465 . S
C568 C563 1.399 . S
C568 C567 1.394 . S
C568 C569 1.516 . S
C569 C568 1.516 . S
C569 C570 1.502 . S
C569 C571 1.561 . S
C569 C572 1.526 . S
C570 H554 0.959 . S
C570 H555 0.959 . S
C570 H556 0.961 . S
C570 C569 1.502 . S
C571 H557 0.960 . S
C571 H558 0.961 . S
C571 H559 0.959 . S
C571 C569 1.561 . S
C572 C569 1.526 . S
C572 C573 1.396 . S
C572 C577 1.390 . S
C573 C567 1.465 . S
C573 C572 1.396 . S
C573 C574 1.399 . S
C574 H560 0.929 . S
C574 C573 1.399 . S
C574 C575 1.385 . S
C575 H561 0.931 . S
C575 C574 1.385 . S
C575 C576 1.389 . S
C576 C575 1.389 . S
C576 C577 1.387 . S
C577 H562 0.930 . S
C577 C572 1.390 . S
C577 C576 1.387 . S
H578 C590 0.930 . S
H579 C592 0.930 1_556 S
H580 C593 0.930 . S
H581 C597 0.959 . S
H582 C597 0.959 . S
H583 C597 0.961 . S
H584 C598 0.960 . S
H585 C598 0.961 . S
H586 C598 0.959 . S
H587 C601 0.946 . S
H588 C602 0.931 1_556 S
H589 C604 0.930 . S
C590 H578 0.930 . S
C590 C591 1.399 . S
C590 C595 1.399 . S
C591 C590 1.399 . S
C591 C592 1.376 . S
C592 H579 0.930 1_554 S
C592 C591 1.376 . S
C592 C593 1.388 1_554 S
C593 H580 0.930 . S
C593 C592 1.388 1_556 S
C593 C594 1.390 1_556 S
C594 C593 1.390 1_554 S
C594 C595 1.394 . S
C594 C600 1.465 . S
C595 C590 1.399 . S
C595 C594 1.394 . S
C595 C596 1.516 . S
C596 C595 1.516 . S
C596 C597 1.502 . S
C596 C598 1.561 . S
C596 C599 1.526 . S
C597 H581 0.959 . S
C597 H582 0.959 . S
C597 H583 0.961 . S
C597 C596 1.502 . S
C598 H584 0.960 . S
C598 H585 0.961 . S
C598 H586 0.959 . S
C598 C596 1.561 . S
C599 C596 1.526 . S
C599 C600 1.396 . S
C599 C604 1.390 . S
C600 C594 1.465 . S
C600 C599 1.396 . S
C600 C601 1.385 1_554 S
C601 H587 0.946 . S
C601 C600 1.385 1_556 S
C601 C602 1.381 1_556 S
C602 H588 0.931 1_554 S
C602 C601 1.381 1_554 S
C602 C603 1.389 . S
C603 C602 1.389 . S
C603 C604 1.387 . S
C604 H589 0.930 . S
C604 C599 1.390 . S
C604 C603 1.387 . S
H605 C617 0.930 . S
H606 C619 0.930 . S
H607 C620 0.930 . S
H608 C624 0.959 . S
H609 C624 0.959 . S
H610 C624 0.961 . S
H611 C625 0.960 . S
H612 C625 0.961 . S
H613 C625 0.959 . S
H614 C628 0.929 . S
H615 C629 0.931 . S
H616 C631 0.930 . S
C617 H605 0.930 . S
C617 C618 1.399 . S
C617 C622 1.399 . S
C618 C617 1.399 . S
C618 C619 1.376 . S
C619 H606 0.930 . S
C619 C618 1.376 . S
C619 C620 1.388 . S
C620 H607 0.930 . S
C620 C619 1.388 . S
C620 C621 1.390 . S
C621 C620 1.390 . S
C621 C622 1.394 . S
C621 C627 1.465 . S
C622 C617 1.399 . S
C622 C621 1.394 . S
C622 C623 1.516 . S
C623 C622 1.516 . S
C623 C624 1.502 . S
C623 C625 1.561 . S
C623 C626 1.526 . S
C624 H608 0.959 . S
C624 H609 0.959 . S
C624 H610 0.961 . S
C624 C623 1.502 . S
C625 H611 0.960 . S
C625 H612 0.961 . S
C625 H613 0.959 . S
C625 C623 1.561 . S
C626 C623 1.526 . S
C626 C627 1.396 . S
C626 C631 1.390 . S
C627 C621 1.465 . S
C627 C626 1.396 . S
C627 C628 1.399 . S
C628 H614 0.929 . S
C628 C627 1.399 . S
C628 C629 1.385 . S
C629 H615 0.931 . S
C629 C628 1.385 . S
C629 C630 1.389 . S
C630 C629 1.389 . S
C630 C631 1.387 . S
C631 H616 0.930 . S
C631 C626 1.390 . S
C631 C630 1.387 . S
H632 C644 0.930 . S
H633 C646 0.930 . S
H634 C647 0.930 . S
H635 C651 0.959 . S
H636 C651 0.959 . S
H637 C651 0.961 . S
H638 C652 0.960 . S
H639 C652 0.961 . S
H640 C652 0.959 . S
H641 C655 0.929 . S
H642 C656 0.931 . S
H643 C658 0.930 . S
C644 H632 0.930 . S
C644 C645 1.399 . S
C644 C649 1.399 . S
C645 C644 1.399 . S
C645 C646 1.376 . S
C646 H633 0.930 . S
C646 C645 1.376 . S
C646 C647 1.388 . S
C647 H634 0.930 . S
C647 C646 1.388 . S
C647 C648 1.390 . S
C648 C647 1.390 . S
C648 C649 1.394 . S
C648 C654 1.465 . S
C649 C644 1.399 . S
C649 C648 1.394 . S
C649 C650 1.516 . S
C650 C649 1.516 . S
C650 C651 1.502 . S
C650 C652 1.561 . S
C650 C653 1.526 . S
C651 H635 0.959 . S
C651 H636 0.959 . S
C651 H637 0.961 . S
C651 C650 1.502 . S
C652 H638 0.960 . S
C652 H639 0.961 . S
C652 H640 0.959 . S
C652 C650 1.561 . S
C653 C650 1.526 . S
C653 C654 1.396 . S
C653 C658 1.390 . S
C654 C648 1.465 . S
C654 C653 1.396 . S
C654 C655 1.399 . S
C655 H641 0.929 . S
C655 C654 1.399 . S
C655 C656 1.385 . S
C656 H642 0.931 . S
C656 C655 1.385 . S
C656 C657 1.389 . S
C657 C656 1.389 . S
C657 C658 1.387 . S
C658 H643 0.930 . S
C658 C653 1.390 . S
C658 C657 1.387 . S
H659 C671 0.930 . S
H660 C673 0.930 . S
H661 C674 0.930 . S
H662 C678 0.959 . S
H663 C678 0.959 . S
H664 C678 0.961 . S
H665 C679 0.960 . S
H666 C679 0.961 . S
H667 C679 0.959 . S
H668 C682 0.929 . S
H669 C683 0.931 . S
H670 C685 0.930 . S
C671 H659 0.930 . S
C671 C672 1.399 . S
C671 C676 1.399 . S
C672 C671 1.399 . S
C672 C673 1.376 . S
C673 H660 0.930 . S
C673 C672 1.376 . S
C673 C674 1.388 . S
C674 H661 0.930 . S
C674 C673 1.388 . S
C674 C675 1.390 . S
C675 C674 1.390 . S
C675 C676 1.394 . S
C675 C681 1.465 . S
C676 C671 1.399 . S
C676 C675 1.394 . S
C676 C677 1.516 . S
C677 C676 1.516 . S
C677 C678 1.502 . S
C677 C679 1.561 . S
C677 C680 1.526 . S
C678 H662 0.959 . S
C678 H663 0.959 . S
C678 H664 0.961 . S
C678 C677 1.502 . S
C679 H665 0.960 . S
C679 H666 0.961 . S
C679 H667 0.959 . S
C679 C677 1.561 . S
C680 C677 1.526 . S
C680 C681 1.396 . S
C680 C685 1.390 . S
C681 C675 1.465 . S
C681 C680 1.396 . S
C681 C682 1.399 . S
C682 H668 0.929 . S
C682 C681 1.399 . S
C682 C683 1.385 . S
C683 H669 0.931 . S
C683 C682 1.385 . S
C683 C684 1.389 . S
C684 C683 1.389 . S
C684 C685 1.387 . S
C685 H670 0.930 . S
C685 C680 1.390 . S
C685 C684 1.387 . S
H686 C698 0.930 . S
H687 C700 0.930 . S
H688 C701 0.930 . S
H689 C705 0.959 . S
H690 C705 0.959 . S
H691 C705 0.961 . S
H692 C706 0.960 . S
H693 C706 0.961 . S
H694 C706 0.959 . S
H695 C709 0.929 . S
H696 C710 0.931 . S
H697 C712 0.930 . S
C698 H686 0.930 . S
C698 C699 1.399 . S
C698 C703 1.399 . S
C699 C698 1.399 . S
C699 C700 1.376 . S
C700 H687 0.930 . S
C700 C699 1.376 . S
C700 C701 1.388 . S
C701 H688 0.930 . S
C701 C700 1.388 . S
C701 C702 1.390 . S
C702 C701 1.390 . S
C702 C703 1.394 . S
C702 C708 1.465 . S
C703 C698 1.399 . S
C703 C702 1.394 . S
C703 C704 1.516 . S
C704 C703 1.516 . S
C704 C705 1.502 . S
C704 C706 1.561 . S
C704 C707 1.526 . S
C705 H689 0.959 . S
C705 H690 0.959 . S
C705 H691 0.961 . S
C705 C704 1.502 . S
C706 H692 0.960 . S
C706 H693 0.961 . S
C706 H694 0.959 . S
C706 C704 1.561 . S
C707 C704 1.526 . S
C707 C708 1.396 . S
C707 C712 1.390 . S
C708 C702 1.465 . S
C708 C707 1.396 . S
C708 C709 1.399 . S
C709 H695 0.929 . S
C709 C708 1.399 . S
C709 C710 1.385 . S
C710 H696 0.931 . S
C710 C709 1.385 . S
C710 C711 1.389 . S
C711 C710 1.389 . S
C711 C712 1.387 . S
C712 H697 0.930 . S
C712 C707 1.390 . S
C712 C711 1.387 . S
H713 C725 0.930 . S
H714 C727 0.930 . S
H715 C728 0.930 . S
H716 C732 0.959 . S
H717 C732 0.959 . S
H718 C732 0.961 . S
H719 C733 0.960 . S
H720 C733 0.961 . S
H721 C733 0.959 . S
H722 C736 0.929 . S
H723 C737 0.931 . S
H724 C739 0.930 . S
C725 H713 0.930 . S
C725 C726 1.399 . S
C725 C730 1.399 . S
C726 C725 1.399 . S
C726 C727 1.376 . S
C727 H714 0.930 . S
C727 C726 1.376 . S
C727 C728 1.388 . S
C728 H715 0.930 . S
C728 C727 1.388 . S
C728 C729 1.390 . S
C729 C728 1.390 . S
C729 C730 1.394 . S
C729 C735 1.465 . S
C730 C725 1.399 . S
C730 C729 1.394 . S
C730 C731 1.516 . S
C731 C730 1.516 . S
C731 C732 1.502 . S
C731 C733 1.561 . S
C731 C734 1.526 . S
C732 H716 0.959 . S
C732 H717 0.959 . S
C732 H718 0.961 . S
C732 C731 1.502 . S
C733 H719 0.960 . S
C733 H720 0.961 . S
C733 H721 0.959 . S
C733 C731 1.561 . S
C734 C731 1.526 . S
C734 C735 1.396 . S
C734 C739 1.390 . S
C735 C729 1.465 . S
C735 C734 1.396 . S
C735 C736 1.399 . S
C736 H722 0.929 . S
C736 C735 1.399 . S
C736 C737 1.385 . S
C737 H723 0.931 . S
C737 C736 1.385 . S
C737 C738 1.389 . S
C738 C737 1.389 . S
C738 C739 1.387 . S
C739 H724 0.930 . S
C739 C734 1.390 . S
C739 C738 1.387 . S
H740 C752 0.930 . S
H741 C754 0.930 . S
H742 C755 0.930 . S
H743 C759 0.959 . S
H744 C759 0.959 . S
H745 C759 0.961 . S
H746 C760 0.960 . S
H747 C760 0.961 . S
H748 C760 0.959 . S
H749 C763 0.929 . S
H750 C764 0.931 . S
H751 C766 0.930 . S
C752 H740 0.930 . S
C752 C753 1.399 1_565 S
C752 C757 1.399 . S
C753 C752 1.399 1_545 S
C753 C754 1.376 . S
C754 H741 0.930 . S
C754 C753 1.376 . S
C754 C755 1.388 . S
C755 H742 0.930 . S
C755 C754 1.388 . S
C755 C756 1.390 . S
C756 C755 1.390 . S
C756 C757 1.394 1_545 S
C756 C762 1.465 . S
C757 C752 1.399 . S
C757 C756 1.394 1_565 S
C757 C758 1.516 . S
C758 C757 1.516 . S
C758 C759 1.502 . S
C758 C760 1.561 . S
C758 C761 1.526 . S
C759 H743 0.959 . S
C759 H744 0.959 . S
C759 H745 0.961 . S
C759 C758 1.502 . S
C760 H746 0.960 . S
C760 H747 0.961 . S
C760 H748 0.959 . S
C760 C758 1.561 . S
C761 C758 1.526 . S
C761 C762 1.396 1_565 S
C761 C766 1.390 . S
C762 C756 1.465 . S
C762 C761 1.396 1_545 S
C762 C763 1.399 . S
C763 H749 0.929 . S
C763 C762 1.399 . S
C763 C764 1.385 . S
C764 H750 0.931 . S
C764 C763 1.385 . S
C764 C765 1.389 1_545 S
C765 C764 1.389 1_565 S
C765 C766 1.387 . S
C766 H751 0.930 . S
C766 C761 1.390 . S
C766 C765 1.387 . S
H767 C779 0.930 1_556 S
H768 C781 0.930 . S
H769 C782 0.930 . S
H770 C786 0.959 . S
H771 C786 0.959 1_455 S
H772 C786 0.961 . S
H773 C787 0.960 1_655 S
H774 C787 0.961 . S
H775 C787 0.959 . S
H776 C790 0.930 1_545 S
H777 C791 0.931 . S
H778 C793 0.930 1_556 S
C779 H767 0.930 1_554 S
C779 C780 1.399 . S
C779 C784 1.399 . S
C780 C779 1.399 . S
C780 C781 1.376 . S
C781 H768 0.930 . S
C781 C780 1.376 . S
C781 C782 1.388 . S
C782 H769 0.930 . S
C782 C781 1.388 . S
C782 C783 1.390 . S
C783 C782 1.390 . S
C783 C784 1.394 . S
C783 C789 1.478 1_655 S
C784 C779 1.399 . S
C784 C783 1.394 . S
C784 C785 1.499 1_644 S
C785 C784 1.499 1_466 S
C785 C786 1.547 1_455 S
C785 C787 1.518 1_565 S
C785 C788 1.539 1_556 S
C786 H770 0.959 . S
C786 H771 0.959 1_655 S
C786 H772 0.961 . S
C786 C785 1.547 1_655 S
C787 H773 0.960 1_455 S
C787 H774 0.961 . S
C787 H775 0.959 . S
C787 C785 1.518 1_545 S
C788 C785 1.539 1_554 S
C788 C789 1.386 1_565 S
C788 C793 1.390 . S
C789 C783 1.478 1_455 S
C789 C788 1.386 1_545 S
C789 C790 1.397 1_545 S
C790 H776 0.930 1_565 S
C790 C789 1.397 1_565 S
C790 C791 1.384 . S
C791 H777 0.931 . S
C791 C790 1.384 . S
C791 C792 1.389 . S
C792 C791 1.389 . S
C792 C793 1.387 . S
C793 H778 0.930 1_554 S
C793 C788 1.390 . S
C793 C792 1.387 . S
H794 C806 0.930 . S
H795 C808 0.930 . S
H796 C809 0.930 . S
H797 C813 0.959 1_554 S
H798 C813 0.959 . S
H799 C813 0.961 . S
H800 C814 0.960 1_545 S
H801 C814 0.961 . S
H802 C814 0.959 . S
H803 C817 0.929 . S
H804 C818 0.931 . S
H805 C820 0.922 1_546 S
C806 H794 0.930 . S
C806 C807 1.399 . S
C806 C811 1.399 . S
C807 C806 1.399 . S
C807 C808 1.376 1_545 S
C808 H795 0.930 . S
C808 C807 1.376 1_565 S
C808 C809 1.388 . S
C809 H796 0.930 . S
C809 C808 1.388 . S
C809 C810 1.390 . S
C810 C809 1.390 . S
C810 C811 1.394 1_565 S
C810 C816 1.465 . S
C811 C806 1.399 . S
C811 C810 1.394 1_545 S
C811 C812 1.516 . S
C812 C811 1.516 . S
C812 C813 1.502 1_554 S
C812 C814 1.561 1_544 S
C812 C815 1.509 1_545 S
C813 H797 0.959 1_556 S
C813 H798 0.959 . S
C813 H799 0.961 . S
C813 C812 1.502 1_556 S
C814 H800 0.960 1_565 S
C814 H801 0.961 . S
C814 H802 0.959 . S
C814 C812 1.561 1_566 S
C815 C812 1.509 1_565 S
C815 C816 1.412 . S
C815 C820 1.393 . S
C816 C810 1.465 . S
C816 C815 1.412 . S
C816 C817 1.399 . S
C817 H803 0.929 . S
C817 C816 1.399 . S
C817 C818 1.385 . S
C818 H804 0.931 . S
C818 C817 1.385 . S
C818 C819 1.389 . S
C819 C818 1.389 . S
C819 C820 1.387 . S
C820 H805 0.922 1_564 S
C820 C815 1.393 . S
C820 C819 1.387 . S
H821 C833 0.930 . S
H822 C835 0.930 . S
H823 C836 0.930 . S
H824 C840 0.959 . S
H825 C840 0.959 1_655 S
H826 C840 0.961 . S
H827 C841 0.960 . S
H828 C841 0.982 . S
H829 C841 0.959 . S
H830 C844 0.929 . S
H831 C845 0.931 . S
H832 C847 0.930 . S
C833 H821 0.930 . S
C833 C834 1.399 1_565 S
C833 C838 1.399 . S
C834 C833 1.399 1_545 S
C834 C835 1.376 . S
C835 H822 0.930 . S
C835 C834 1.376 . S
C835 C836 1.388 . S
C836 H823 0.930 . S
C836 C835 1.388 . S
C836 C837 1.390 . S
C837 C836 1.390 . S
C837 C838 1.394 1_545 S
C837 C843 1.465 1_455 S
C838 C833 1.399 . S
C838 C837 1.394 1_565 S
C838 C839 1.516 . S
C839 C838 1.516 . S
C839 C840 1.502 . S
C839 C841 1.561 . S
C839 C842 1.526 1_455 S
C840 H824 0.959 . S
C840 H825 0.959 1_455 S
C840 H826 0.961 . S
C840 C839 1.502 . S
C841 H827 0.960 . S
C841 H828 0.982 . S
C841 H829 0.959 . S
C841 C839 1.561 . S
C842 C839 1.526 1_655 S
C842 C843 1.396 1_565 S
C842 C847 1.390 . S
C843 C837 1.465 1_655 S
C843 C842 1.396 1_545 S
C843 C844 1.399 . S
C844 H830 0.929 . S
C844 C843 1.399 . S
C844 C845 1.385 . S
C845 H831 0.931 . S
C845 C844 1.385 . S
C845 C846 1.389 1_545 S
C846 C845 1.389 1_565 S
C846 C847 1.387 . S
C847 H832 0.930 . S
C847 C842 1.390 . S
C847 C846 1.387 . S
H848 C860 0.930 . S
H849 C862 0.930 . S
H850 C863 0.930 . S
H851 C867 0.959 . S
H852 C867 0.959 . S
H853 C867 0.961 . S
H854 C868 0.960 . S
H855 C868 0.961 . S
H856 C868 0.959 . S
H857 C871 0.929 . S
H858 C872 0.931 . S
H859 C874 0.930 . S
C860 H848 0.930 . S
C860 C861 1.399 . S
C860 C865 1.399 . S
C861 C860 1.399 . S
C861 C862 1.376 . S
C862 H849 0.930 . S
C862 C861 1.376 . S
C862 C863 1.388 . S
C863 H850 0.930 . S
C863 C862 1.388 . S
C863 C864 1.390 . S
C864 C863 1.390 . S
C864 C865 1.394 . S
C864 C870 1.465 . S
C865 C860 1.399 . S
C865 C864 1.394 . S
C865 C866 1.516 . S
C866 C865 1.516 . S
C866 C867 1.502 . S
C866 C868 1.561 . S
C866 C869 1.526 . S
C867 H851 0.959 . S
C867 H852 0.959 . S
C867 H853 0.961 . S
C867 C866 1.502 . S
C868 H854 0.960 . S
C868 H855 0.961 . S
C868 H856 0.959 . S
C868 C866 1.561 . S
C869 C866 1.526 . S
C869 C870 1.396 . S
C869 C874 1.390 . S
C870 C864 1.465 . S
C870 C869 1.396 . S
C870 C871 1.399 . S
C871 H857 0.929 . S
C871 C870 1.399 . S
C871 C872 1.385 . S
C872 H858 0.931 . S
C872 C871 1.385 . S
C872 C873 1.389 . S
C873 C872 1.389 . S
C873 C874 1.387 . S
C874 H859 0.930 . S
C874 C869 1.390 . S
C874 C873 1.387 . S
H875 C887 0.930 . S
H876 C889 0.930 . S
H877 C890 0.930 1_554 S
H878 C894 0.959 . S
H879 C894 0.959 . S
H880 C894 0.961 . S
H881 C895 0.960 . S
H882 C895 0.961 . S
H883 C895 0.959 . S
H884 C898 0.929 . S
H885 C899 0.931 . S
H886 C901 0.930 . S
C887 H875 0.930 . S
C887 C888 1.399 . S
C887 C892 1.399 1_556 S
C888 C887 1.399 . S
C888 C889 1.376 . S
C889 H876 0.930 . S
C889 C888 1.376 . S
C889 C890 1.388 . S
C890 H877 0.930 1_556 S
C890 C889 1.388 . S
C890 C891 1.390 1_556 S
C891 C890 1.390 1_554 S
C891 C892 1.394 . S
C891 C897 1.465 . S
C892 C887 1.399 1_554 S
C892 C891 1.394 . S
C892 C893 1.516 . S
C893 C892 1.516 . S
C893 C894 1.502 . S
C893 C895 1.561 . S
C893 C896 1.526 . S
C894 H878 0.959 . S
C894 H879 0.959 . S
C894 H880 0.961 . S
C894 C893 1.502 . S
C895 H881 0.960 . S
C895 H882 0.961 . S
C895 H883 0.959 . S
C895 C893 1.561 . S
C896 C893 1.526 . S
C896 C897 1.396 . S
C896 C901 1.390 . S
C897 C891 1.465 . S
C897 C896 1.396 . S
C897 C898 1.399 . S
C898 H884 0.929 . S
C898 C897 1.399 . S
C898 C899 1.385 . S
C899 H885 0.931 . S
C899 C898 1.385 . S
C899 C900 1.389 . S
C900 C899 1.389 . S
C900 C901 1.387 . S
C901 H886 0.930 . S
C901 C896 1.390 . S
C901 C900 1.387 . S
H902 C914 0.930 . S
H903 C916 0.930 . S
H904 C917 0.930 . S
H905 C921 0.959 . S
H906 C921 0.959 . S
H907 C921 0.961 . S
H908 C922 0.960 . S
H909 C922 0.961 . S
H910 C922 0.959 . S
H911 C925 0.929 . S
H912 C926 0.931 . S
H913 C928 0.930 . S
C914 H902 0.930 . S
C914 C915 1.399 . S
C914 C919 1.399 . S
C915 C914 1.399 . S
C915 C916 1.376 . S
C916 H903 0.930 . S
C916 C915 1.376 . S
C916 C917 1.388 . S
C917 H904 0.930 . S
C917 C916 1.388 . S
C917 C918 1.390 . S
C918 C917 1.390 . S
C918 C919 1.394 . S
C918 C924 1.465 . S
C919 C914 1.399 . S
C919 C918 1.394 . S
C919 C920 1.516 . S
C920 C919 1.516 . S
C920 C921 1.502 . S
C920 C922 1.561 . S
C920 C923 1.526 . S
C921 H905 0.959 . S
C921 H906 0.959 . S
C921 H907 0.961 . S
C921 C920 1.502 . S
C922 H908 0.960 . S
C922 H909 0.961 . S
C922 H910 0.959 . S
C922 C920 1.561 . S
C923 C920 1.526 . S
C923 C924 1.396 . S
C923 C928 1.390 . S
C924 C918 1.465 . S
C924 C923 1.396 . S
C924 C925 1.399 . S
C925 H911 0.929 . S
C925 C924 1.399 . S
C925 C926 1.385 . S
C926 H912 0.931 . S
C926 C925 1.385 . S
C926 C927 1.389 . S
C927 C926 1.389 . S
C927 C928 1.387 . S
C928 H913 0.930 . S
C928 C923 1.390 . S
C928 C927 1.387 . S
H929 C941 0.930 . S
H930 C943 0.930 . S
H931 C944 0.930 . S
H932 C948 0.959 . S
H933 C948 0.959 . S
H934 C948 0.961 . S
H935 C949 0.960 . S
H936 C949 0.961 . S
H937 C949 0.959 . S
H938 C952 0.929 . S
H939 C953 0.931 . S
H940 C955 0.930 . S
C941 H929 0.930 . S
C941 C942 1.399 . S
C941 C946 1.399 . S
C942 C941 1.399 . S
C942 C943 1.376 . S
C943 H930 0.930 . S
C943 C942 1.376 . S
C943 C944 1.388 . S
C944 H931 0.930 . S
C944 C943 1.388 . S
C944 C945 1.390 . S
C945 C944 1.390 . S
C945 C946 1.394 . S
C945 C951 1.465 . S
C946 C941 1.399 . S
C946 C945 1.394 . S
C946 C947 1.516 . S
C947 C946 1.516 . S
C947 C948 1.502 . S
C947 C949 1.561 . S
C947 C950 1.526 . S
C948 H932 0.959 . S
C948 H933 0.959 . S
C948 H934 0.961 . S
C948 C947 1.502 . S
C949 H935 0.960 . S
C949 H936 0.961 . S
C949 H937 0.959 . S
C949 C947 1.561 . S
C950 C947 1.526 . S
C950 C951 1.396 . S
C950 C955 1.390 . S
C951 C945 1.465 . S
C951 C950 1.396 . S
C951 C952 1.399 . S
C952 H938 0.929 . S
C952 C951 1.399 . S
C952 C953 1.385 . S
C953 H939 0.931 . S
C953 C952 1.385 . S
C953 C954 1.389 . S
C954 C953 1.389 . S
C954 C955 1.387 . S
C955 H940 0.930 . S
C955 C950 1.390 . S
C955 C954 1.387 . S
H956 C968 0.930 . S
H957 C970 0.930 . S
H958 C971 0.930 . S
H959 C975 0.959 . S
H960 C975 0.959 . S
H961 C975 0.961 . S
H962 C976 0.960 . S
H963 C976 0.961 . S
H964 C976 0.959 . S
H965 C979 0.929 . S
H966 C980 0.931 . S
H967 C982 0.930 . S
C968 H956 0.930 . S
C968 C969 1.399 . S
C968 C973 1.399 . S
C969 C968 1.399 . S
C969 C970 1.376 . S
C970 H957 0.930 . S
C970 C969 1.376 . S
C970 C971 1.388 . S
C971 H958 0.930 . S
C971 C970 1.388 . S
C971 C972 1.390 . S
C972 C971 1.390 . S
C972 C973 1.394 . S
C972 C978 1.465 . S
C973 C968 1.399 . S
C973 C972 1.394 . S
C973 C974 1.516 . S
C974 C973 1.516 . S
C974 C975 1.502 . S
C974 C976 1.561 . S
C974 C977 1.526 . S
C975 H959 0.959 . S
C975 H960 0.959 . S
C975 H961 0.961 . S
C975 C974 1.502 . S
C976 H962 0.960 . S
C976 H963 0.961 . S
C976 H964 0.959 . S
C976 C974 1.561 . S
C977 C974 1.526 . S
C977 C978 1.396 . S
C977 C982 1.390 . S
C978 C972 1.465 . S
C978 C977 1.396 . S
C978 C979 1.399 . S
C979 H965 0.929 . S
C979 C978 1.399 . S
C979 C980 1.385 . S
C980 H966 0.931 . S
C980 C979 1.385 . S
C980 C981 1.389 . S
C981 C980 1.389 . S
C981 C982 1.387 . S
C982 H967 0.930 . S
C982 C977 1.390 . S
C982 C981 1.387 . S
H983 C995 0.930 . S
H984 C997 0.930 . S
H985 C998 0.930 1_554 S
H986 C1002 0.959 . S
H987 C1002 0.959 . S
H988 C1002 0.961 . S
H989 C1003 0.960 . S
H990 C1003 0.961 . S
H991 C1003 0.959 . S
H992 C1006 0.929 . S
H993 C1007 0.931 . S
H994 C1009 0.930 . S
C995 H983 0.930 . S
C995 C996 1.399 . S
C995 C1000 1.399 1_556 S
C996 C995 1.399 . S
C996 C997 1.376 . S
C997 H984 0.930 . S
C997 C996 1.376 . S
C997 C998 1.388 . S
C998 H985 0.930 1_556 S
C998 C997 1.388 . S
C998 C999 1.390 1_556 S
C999 C998 1.390 1_554 S
C999 C1000 1.394 . S
C999 C1005 1.465 . S
C1000 C995 1.399 1_554 S
C1000 C999 1.394 . S
C1000 C1001 1.516 . S
C1001 C1000 1.516 . S
C1001 C1002 1.502 . S
C1001 C1003 1.561 . S
C1001 C1004 1.526 . S
C1002 H986 0.959 . S
C1002 H987 0.959 . S
C1002 H988 0.961 . S
C1002 C1001 1.502 . S
C1003 H989 0.960 . S
C1003 H990 0.961 . S
C1003 H991 0.959 . S
C1003 C1001 1.561 . S
C1004 C1001 1.526 . S
C1004 C1005 1.396 . S
C1004 C1009 1.390 . S
C1005 C999 1.465 . S
C1005 C1004 1.396 . S
C1005 C1006 1.399 . S
C1006 H992 0.929 . S
C1006 C1005 1.399 . S
C1006 C1007 1.385 . S
C1007 H993 0.931 . S
C1007 C1006 1.385 . S
C1007 C1008 1.389 . S
C1008 C1007 1.389 . S
C1008 C1009 1.387 . S
C1009 H994 0.930 . S
C1009 C1004 1.390 . S
C1009 C1008 1.387 . S
H1010 C1022 0.930 . S
H1011 C1024 0.930 . S
H1012 C1025 0.930 . S
H1013 C1029 0.959 . S
H1014 C1029 0.959 . S
H1015 C1029 0.961 . S
H1016 C1030 0.960 . S
H1017 C1030 0.961 . S
H1018 C1030 0.959 . S
H1019 C1033 0.929 . S
H1020 C1034 0.931 . S
H1021 C1036 0.930 . S
C1022 H1010 0.930 . S
C1022 C1023 1.399 . S
C1022 C1027 1.399 . S
C1023 C1022 1.399 . S
C1023 C1024 1.376 . S
C1024 H1011 0.930 . S
C1024 C1023 1.376 . S
C1024 C1025 1.388 . S
C1025 H1012 0.930 . S
C1025 C1024 1.388 . S
C1025 C1026 1.390 . S
C1026 C1025 1.390 . S
C1026 C1027 1.394 . S
C1026 C1032 1.465 . S
C1027 C1022 1.399 . S
C1027 C1026 1.394 . S
C1027 C1028 1.516 . S
C1028 C1027 1.516 . S
C1028 C1029 1.502 . S
C1028 C1030 1.561 . S
C1028 C1031 1.526 . S
C1029 H1013 0.959 . S
C1029 H1014 0.959 . S
C1029 H1015 0.961 . S
C1029 C1028 1.502 . S
C1030 H1016 0.960 . S
C1030 H1017 0.961 . S
C1030 H1018 0.959 . S
C1030 C1028 1.561 . S
C1031 C1028 1.526 . S
C1031 C1032 1.396 . S
C1031 C1036 1.390 . S
C1032 C1026 1.465 . S
C1032 C1031 1.396 . S
C1032 C1033 1.399 . S
C1033 H1019 0.929 . S
C1033 C1032 1.399 . S
C1033 C1034 1.385 . S
C1034 H1020 0.931 . S
C1034 C1033 1.385 . S
C1034 C1035 1.389 . S
C1035 C1034 1.389 . S
C1035 C1036 1.387 . S
C1036 H1021 0.930 . S
C1036 C1031 1.390 . S
C1036 C1035 1.387 . S
H1037 C1049 0.930 . S
H1038 C1051 0.930 . S
H1039 C1052 0.930 . S
H1040 C1056 0.959 . S
H1041 C1056 0.959 . S
H1042 C1056 0.961 . S
H1043 C1057 0.960 . S
H1044 C1057 0.961 . S
H1045 C1057 0.959 . S
H1046 C1060 0.929 . S
H1047 C1061 0.931 . S
H1048 C1063 0.930 . S
C1049 H1037 0.930 . S
C1049 C1050 1.399 . S
C1049 C1054 1.399 . S
C1050 C1049 1.399 . S
C1050 C1051 1.376 . S
C1051 H1038 0.930 . S
C1051 C1050 1.376 . S
C1051 C1052 1.388 . S
C1052 H1039 0.930 . S
C1052 C1051 1.388 . S
C1052 C1053 1.390 . S
C1053 C1052 1.390 . S
C1053 C1054 1.394 . S
C1053 C1059 1.465 . S
C1054 C1049 1.399 . S
C1054 C1053 1.394 . S
C1054 C1055 1.516 . S
C1055 C1054 1.516 . S
C1055 C1056 1.502 . S
C1055 C1057 1.561 . S
C1055 C1058 1.526 . S
C1056 H1040 0.959 . S
C1056 H1041 0.959 . S
C1056 H1042 0.961 . S
C1056 C1055 1.502 . S
C1057 H1043 0.960 . S
C1057 H1044 0.961 . S
C1057 H1045 0.959 . S
C1057 C1055 1.561 . S
C1058 C1055 1.526 . S
C1058 C1059 1.396 . S
C1058 C1063 1.390 . S
C1059 C1053 1.465 . S
C1059 C1058 1.396 . S
C1059 C1060 1.399 . S
C1060 H1046 0.929 . S
C1060 C1059 1.399 . S
C1060 C1061 1.385 . S
C1061 H1047 0.931 . S
C1061 C1060 1.385 . S
C1061 C1062 1.389 . S
C1062 C1061 1.389 . S
C1062 C1063 1.387 . S
C1063 H1048 0.930 . S
C1063 C1058 1.390 . S
C1063 C1062 1.387 . S
H1064 C1076 0.930 . S
H1065 C1078 0.930 . S
H1066 C1079 0.930 . S
H1067 C1083 0.959 . S
H1068 C1083 0.959 . S
H1069 C1083 0.961 . S
H1070 C1084 0.960 . S
H1071 C1084 0.961 . S
H1072 C1084 0.959 . S
H1073 C1087 0.929 . S
H1074 C1088 0.931 . S
H1075 C1090 0.930 . S
C1076 H1064 0.930 . S
C1076 C1077 1.443 . S
C1076 C1081 1.399 . S
C1077 C1076 1.443 . S
C1077 C1078 1.318 1_545 S
C1078 H1065 0.930 . S
C1078 C1077 1.318 1_565 S
C1078 C1079 1.388 . S
C1079 H1066 0.930 . S
C1079 C1078 1.388 . S
C1079 C1080 1.390 . S
C1080 C1079 1.390 . S
C1080 C1081 1.394 1_565 S
C1080 C1086 1.465 . S
C1081 C1076 1.399 . S
C1081 C1080 1.394 1_545 S
C1081 C1082 1.516 . S
C1082 C1081 1.516 . S
C1082 C1083 1.502 . S
C1082 C1084 1.561 . S
C1082 C1085 1.526 . S
C1083 H1067 0.959 . S
C1083 H1068 0.959 . S
C1083 H1069 0.961 . S
C1083 C1082 1.502 . S
C1084 H1070 0.960 . S
C1084 H1071 0.961 . S
C1084 H1072 0.959 . S
C1084 C1082 1.561 . S
C1085 C1082 1.526 . S
C1085 C1086 1.396 1_545 S
C1085 C1090 1.390 . S
C1086 C1080 1.465 . S
C1086 C1085 1.396 1_565 S
C1086 C1087 1.399 . S
C1087 H1073 0.929 . S
C1087 C1086 1.399 . S
C1087 C1088 1.385 . S
C1088 H1074 0.931 . S
C1088 C1087 1.385 . S
C1088 C1089 1.389 . S
C1089 C1088 1.389 . S
C1089 C1090 1.387 1_565 S
C1090 H1075 0.930 . S
C1090 C1085 1.390 . S
C1090 C1089 1.387 1_545 S
H1091 C1103 0.930 . S
H1092 C1105 0.930 . S
H1093 C1106 0.930 . S
H1094 C1110 0.959 . S
H1095 C1110 0.959 . S
H1096 C1110 0.961 . S
H1097 C1111 0.960 . S
H1098 C1111 0.961 . S
H1099 C1111 0.959 . S
H1100 C1114 0.929 . S
H1101 C1115 0.931 . S
H1102 C1117 0.930 . S
C1103 H1091 0.930 . S
C1103 C1104 1.399 . S
C1103 C1108 1.399 . S
C1104 C1103 1.399 . S
C1104 C1105 1.376 . S
C1105 H1092 0.930 . S
C1105 C1104 1.376 . S
C1105 C1106 1.388 . S
C1106 H1093 0.930 . S
C1106 C1105 1.388 . S
C1106 C1107 1.390 . S
C1107 C1106 1.390 . S
C1107 C1108 1.394 . S
C1107 C1113 1.465 . S
C1108 C1103 1.399 . S
C1108 C1107 1.394 . S
C1108 C1109 1.516 . S
C1109 C1108 1.516 . S
C1109 C1110 1.502 . S
C1109 C1111 1.561 . S
C1109 C1112 1.526 . S
C1110 H1094 0.959 . S
C1110 H1095 0.959 . S
C1110 H1096 0.961 . S
C1110 C1109 1.502 . S
C1111 H1097 0.960 . S
C1111 H1098 0.961 . S
C1111 H1099 0.959 . S
C1111 C1109 1.561 . S
C1112 C1109 1.526 . S
C1112 C1113 1.396 . S
C1112 C1117 1.390 . S
C1113 C1107 1.465 . S
C1113 C1112 1.396 . S
C1113 C1114 1.399 . S
C1114 H1100 0.929 . S
C1114 C1113 1.399 . S
C1114 C1115 1.385 . S
C1115 H1101 0.931 . S
C1115 C1114 1.385 . S
C1115 C1116 1.389 . S
C1116 C1115 1.389 . S
C1116 C1117 1.387 . S
C1117 H1102 0.930 . S
C1117 C1112 1.390 . S
C1117 C1116 1.387 . S
H1118 C1130 0.930 . S
H1119 C1132 0.930 . S
H1120 C1133 0.930 . S
H1121 C1137 0.982 . S
H1122 C1137 0.951 1_565 S
H1123 C1137 0.958 1_565 S
H1124 C1138 0.960 . S
H1125 C1138 0.961 . S
H1126 C1138 0.959 . S
H1127 C1141 0.929 . S
H1128 C1142 0.931 . S
H1129 C1144 0.930 . S
C1130 H1118 0.930 . S
C1130 C1131 1.399 1_565 S
C1130 C1135 1.399 . S
C1131 C1130 1.399 1_545 S
C1131 C1132 1.376 . S
C1132 H1119 0.930 . S
C1132 C1131 1.376 . S
C1132 C1133 1.388 . S
C1133 H1120 0.930 . S
C1133 C1132 1.388 . S
C1133 C1134 1.390 . S
C1134 C1133 1.390 . S
C1134 C1135 1.394 1_545 S
C1134 C1140 1.468 . S
C1135 C1130 1.399 . S
C1135 C1134 1.394 1_565 S
C1135 C1136 1.516 . S
C1136 C1135 1.516 . S
C1136 C1137 1.491 1_565 S
C1136 C1138 1.561 . S
C1136 C1139 1.526 . S
C1137 H1121 0.982 . S
C1137 H1122 0.951 1_545 S
C1137 H1123 0.958 1_545 S
C1137 C1136 1.491 1_545 S
C1138 H1124 0.960 . S
C1138 H1125 0.961 . S
C1138 H1126 0.959 . S
C1138 C1136 1.561 . S
C1139 C1136 1.526 . S
C1139 C1140 1.383 1_565 S
C1139 C1144 1.390 . S
C1140 C1134 1.468 . S
C1140 C1139 1.383 1_545 S
C1140 C1141 1.408 . S
C1141 H1127 0.929 . S
C1141 C1140 1.408 . S
C1141 C1142 1.385 . S
C1142 H1128 0.931 . S
C1142 C1141 1.385 . S
C1142 C1143 1.389 1_545 S
C1143 C1142 1.389 1_565 S
C1143 C1144 1.387 . S
C1144 H1129 0.930 . S
C1144 C1139 1.390 . S
C1144 C1143 1.387 . S
H1145 C1157 0.930 . S
H1146 C1159 0.930 . S
H1147 C1160 0.930 1_554 S
H1148 C1164 0.959 . S
H1149 C1164 0.959 . S
H1150 C1164 0.961 . S
H1151 C1165 0.960 . S
H1152 C1165 0.961 . S
H1153 C1165 0.959 . S
H1154 C1168 0.929 . S
H1155 C1169 0.931 . S
H1156 C1171 0.930 . S
C1157 H1145 0.930 . S
C1157 C1158 1.399 . S
C1157 C1162 1.399 1_556 S
C1158 C1157 1.399 . S
C1158 C1159 1.376 . S
C1159 H1146 0.930 . S
C1159 C1158 1.376 . S
C1159 C1160 1.388 . S
C1160 H1147 0.930 1_556 S
C1160 C1159 1.388 . S
C1160 C1161 1.390 1_556 S
C1161 C1160 1.390 1_554 S
C1161 C1162 1.394 . S
C1161 C1167 1.465 . S
C1162 C1157 1.399 1_554 S
C1162 C1161 1.394 . S
C1162 C1163 1.516 . S
C1163 C1162 1.516 . S
C1163 C1164 1.502 . S
C1163 C1165 1.561 . S
C1163 C1166 1.526 . S
C1164 H1148 0.959 . S
C1164 H1149 0.959 . S
C1164 H1150 0.961 . S
C1164 C1163 1.502 . S
C1165 H1151 0.960 . S
C1165 H1152 0.961 . S
C1165 H1153 0.959 . S
C1165 C1163 1.561 . S
C1166 C1163 1.526 . S
C1166 C1167 1.396 . S
C1166 C1171 1.390 . S
C1167 C1161 1.465 . S
C1167 C1166 1.396 . S
C1167 C1168 1.399 . S
C1168 H1154 0.929 . S
C1168 C1167 1.399 . S
C1168 C1169 1.385 . S
C1169 H1155 0.931 . S
C1169 C1168 1.385 . S
C1169 C1170 1.389 . S
C1170 C1169 1.389 . S
C1170 C1171 1.387 . S
C1171 H1156 0.930 . S
C1171 C1166 1.390 . S
C1171 C1170 1.387 . S
H1172 C1184 0.930 . S
H1173 C1186 0.930 . S
H1174 C1187 0.930 . S
H1175 C1191 0.959 . S
H1176 C1191 0.959 . S
H1177 C1191 0.961 . S
H1178 C1192 0.960 . S
H1179 C1192 0.961 . S
H1180 C1192 0.959 . S
H1181 C1195 0.929 . S
H1182 C1196 0.931 . S
H1183 C1198 0.930 . S
C1184 H1172 0.930 . S
C1184 C1185 1.399 . S
C1184 C1189 1.399 . S
C1185 C1184 1.399 . S
C1185 C1186 1.376 1_565 S
C1186 H1173 0.930 . S
C1186 C1185 1.376 1_545 S
C1186 C1187 1.388 . S
C1187 H1174 0.930 . S
C1187 C1186 1.388 . S
C1187 C1188 1.390 . S
C1188 C1187 1.390 . S
C1188 C1189 1.394 1_545 S
C1188 C1194 1.465 . S
C1189 C1184 1.399 . S
C1189 C1188 1.394 1_565 S
C1189 C1190 1.516 . S
C1190 C1189 1.516 . S
C1190 C1191 1.502 . S
C1190 C1192 1.561 . S
C1190 C1193 1.526 . S
C1191 H1175 0.959 . S
C1191 H1176 0.959 . S
C1191 H1177 0.961 . S
C1191 C1190 1.502 . S
C1192 H1178 0.960 . S
C1192 H1179 0.961 . S
C1192 H1180 0.959 . S
C1192 C1190 1.561 . S
C1193 C1190 1.526 . S
C1193 C1194 1.396 1_565 S
C1193 C1198 1.390 . S
C1194 C1188 1.465 . S
C1194 C1193 1.396 1_545 S
C1194 C1195 1.399 . S
C1195 H1181 0.929 . S
C1195 C1194 1.399 . S
C1195 C1196 1.385 . S
C1196 H1182 0.931 . S
C1196 C1195 1.385 . S
C1196 C1197 1.389 . S
C1197 C1196 1.389 . S
C1197 C1198 1.387 1_545 S
C1198 H1183 0.930 . S
C1198 C1193 1.390 . S
C1198 C1197 1.387 1_565 S
H1199 C1211 0.930 . S
H1200 C1213 0.930 . S
H1201 C1214 0.930 . S
H1202 C1218 0.959 . S
H1203 C1218 0.959 . S
H1204 C1218 0.961 . S
H1205 C1219 0.960 . S
H1206 C1219 0.961 . S
H1207 C1219 0.959 . S
H1208 C1222 0.929 . S
H1209 C1223 0.931 . S
H1210 C1225 0.930 . S
C1211 H1199 0.930 . S
C1211 C1212 1.399 . S
C1211 C1216 1.399 . S
C1212 C1211 1.399 . S
C1212 C1213 1.376 . S
C1213 H1200 0.930 . S
C1213 C1212 1.376 . S
C1213 C1214 1.388 . S
C1214 H1201 0.930 . S
C1214 C1213 1.388 . S
C1214 C1215 1.390 . S
C1215 C1214 1.390 . S
C1215 C1216 1.394 . S
C1215 C1221 1.465 . S
C1216 C1211 1.399 . S
C1216 C1215 1.394 . S
C1216 C1217 1.516 . S
C1217 C1216 1.516 . S
C1217 C1218 1.502 . S
C1217 C1219 1.561 . S
C1217 C1220 1.526 . S
C1218 H1202 0.959 . S
C1218 H1203 0.959 . S
C1218 H1204 0.961 . S
C1218 C1217 1.502 . S
C1219 H1205 0.960 . S
C1219 H1206 0.961 . S
C1219 H1207 0.959 . S
C1219 C1217 1.561 . S
C1220 C1217 1.526 . S
C1220 C1221 1.396 . S
C1220 C1225 1.390 . S
C1221 C1215 1.465 . S
C1221 C1220 1.396 . S
C1221 C1222 1.399 . S
C1222 H1208 0.929 . S
C1222 C1221 1.399 . S
C1222 C1223 1.385 . S
C1223 H1209 0.931 . S
C1223 C1222 1.385 . S
C1223 C1224 1.389 . S
C1224 C1223 1.389 . S
C1224 C1225 1.387 . S
C1225 H1210 0.930 . S
C1225 C1220 1.390 . S
C1225 C1224 1.387 . S
H1226 C1238 0.930 . S
H1227 C1240 0.930 . S
H1228 C1241 0.930 . S
H1229 C1245 0.959 . S
H1230 C1245 0.959 . S
H1231 C1245 0.961 . S
H1232 C1246 0.960 . S
H1233 C1246 0.961 . S
H1234 C1246 0.959 . S
H1235 C1249 0.929 . S
H1236 C1250 0.931 . S
H1237 C1252 0.930 . S
C1238 H1226 0.930 . S
C1238 C1239 1.399 . S
C1238 C1243 1.399 . S
C1239 C1238 1.399 . S
C1239 C1240 1.376 1_545 S
C1240 H1227 0.930 . S
C1240 C1239 1.376 1_565 S
C1240 C1241 1.388 . S
C1241 H1228 0.930 . S
C1241 C1240 1.388 . S
C1241 C1242 1.390 . S
C1242 C1241 1.390 . S
C1242 C1243 1.394 1_565 S
C1242 C1248 1.465 . S
C1243 C1238 1.399 . S
C1243 C1242 1.394 1_545 S
C1243 C1244 1.516 . S
C1244 C1243 1.516 . S
C1244 C1245 1.502 . S
C1244 C1246 1.561 . S
C1244 C1247 1.526 . S
C1245 H1229 0.959 . S
C1245 H1230 0.959 . S
C1245 H1231 0.961 . S
C1245 C1244 1.502 . S
C1246 H1232 0.960 . S
C1246 H1233 0.961 . S
C1246 H1234 0.959 . S
C1246 C1244 1.561 . S
C1247 C1244 1.526 . S
C1247 C1248 1.396 1_545 S
C1247 C1252 1.390 . S
C1248 C1242 1.465 . S
C1248 C1247 1.396 1_565 S
C1248 C1249 1.399 . S
C1249 H1235 0.929 . S
C1249 C1248 1.399 . S
C1249 C1250 1.385 . S
C1250 H1236 0.931 . S
C1250 C1249 1.385 . S
C1250 C1251 1.389 . S
C1251 C1250 1.389 . S
C1251 C1252 1.387 1_565 S
C1252 H1237 0.930 . S
C1252 C1247 1.390 . S
C1252 C1251 1.387 1_545 S
H1253 C1265 0.930 . S
H1254 C1267 0.930 . S
H1255 C1268 0.930 . S
H1256 C1272 0.959 . S
H1257 C1272 0.959 . S
H1258 C1272 0.961 . S
H1259 C1273 0.960 . S
H1260 C1273 0.961 . S
H1261 C1273 0.959 . S
H1262 C1276 0.930 . S
H1263 C1277 0.931 . S
H1264 C1279 0.930 . S
C1265 H1253 0.930 . S
C1265 C1266 1.399 . S
C1265 C1270 1.399 . S
C1266 C1265 1.399 . S
C1266 C1267 1.376 . S
C1267 H1254 0.930 . S
C1267 C1266 1.376 . S
C1267 C1268 1.388 . S
C1268 H1255 0.930 . S
C1268 C1267 1.388 . S
C1268 C1269 1.390 . S
C1269 C1268 1.390 . S
C1269 C1270 1.394 . S
C1269 C1275 1.465 . S
C1270 C1265 1.399 . S
C1270 C1269 1.394 . S
C1270 C1271 1.516 . S
C1271 C1270 1.516 . S
C1271 C1272 1.502 . S
C1271 C1273 1.561 . S
C1271 C1274 1.526 . S
C1272 H1256 0.959 . S
C1272 H1257 0.959 . S
C1272 H1258 0.961 . S
C1272 C1271 1.502 . S
C1273 H1259 0.960 . S
C1273 H1260 0.961 . S
C1273 H1261 0.959 . S
C1273 C1271 1.561 . S
C1274 C1271 1.526 . S
C1274 C1275 1.396 . S
C1274 C1279 1.390 1_554 S
C1275 C1269 1.465 . S
C1275 C1274 1.396 . S
C1275 C1276 1.399 . S
C1276 H1262 0.930 . S
C1276 C1275 1.399 . S
C1276 C1277 1.384 1_554 S
C1277 H1263 0.931 . S
C1277 C1276 1.384 1_556 S
C1277 C1278 1.389 . S
C1278 C1277 1.389 . S
C1278 C1279 1.387 . S
C1279 H1264 0.930 . S
C1279 C1274 1.390 1_556 S
C1279 C1278 1.387 . S
H1280 C1292 0.930 . S
H1281 C1294 0.930 . S
H1282 C1295 0.930 . S
H1283 C1299 0.959 . S
H1284 C1299 0.959 . S
H1285 C1299 0.961 . S
H1286 C1300 0.960 . S
H1287 C1300 0.961 . S
H1288 C1300 0.959 . S
H1289 C1303 0.929 . S
H1290 C1304 0.931 . S
H1291 C1306 0.930 . S
C1292 H1280 0.930 . S
C1292 C1293 1.399 . S
C1292 C1297 1.399 . S
C1293 C1292 1.399 . S
C1293 C1294 1.376 . S
C1294 H1281 0.930 . S
C1294 C1293 1.376 . S
C1294 C1295 1.388 . S
C1295 H1282 0.930 . S
C1295 C1294 1.388 . S
C1295 C1296 1.390 . S
C1296 C1295 1.390 . S
C1296 C1297 1.394 . S
C1296 C1302 1.465 . S
C1297 C1292 1.399 . S
C1297 C1296 1.394 . S
C1297 C1298 1.516 . S
C1298 C1297 1.516 . S
C1298 C1299 1.502 . S
C1298 C1300 1.561 . S
C1298 C1301 1.526 . S
C1299 H1283 0.959 . S
C1299 H1284 0.959 . S
C1299 H1285 0.961 . S
C1299 C1298 1.502 . S
C1300 H1286 0.960 . S
C1300 H1287 0.961 . S
C1300 H1288 0.959 . S
C1300 C1298 1.561 . S
C1301 C1298 1.526 . S
C1301 C1302 1.396 . S
C1301 C1306 1.390 . S
C1302 C1296 1.465 . S
C1302 C1301 1.396 . S
C1302 C1303 1.399 . S
C1303 H1289 0.929 . S
C1303 C1302 1.399 . S
C1303 C1304 1.385 . S
C1304 H1290 0.931 . S
C1304 C1303 1.385 . S
C1304 C1305 1.389 . S
C1305 C1304 1.389 . S
C1305 C1306 1.387 . S
C1306 H1291 0.930 . S
C1306 C1301 1.390 . S
C1306 C1305 1.387 . S
H1307 C1319 0.930 . S
H1308 C1321 0.930 . S
H1309 C1322 0.930 . S
H1310 C1326 0.959 . S
H1311 C1326 0.959 . S
H1312 C1326 0.961 . S
H1313 C1327 0.960 . S
H1314 C1327 0.961 . S
H1315 C1327 0.959 . S
H1316 C1330 0.929 . S
H1317 C1331 0.931 . S
H1318 C1333 0.930 . S
C1319 H1307 0.930 . S
C1319 C1320 1.399 . S
C1319 C1324 1.399 . S
C1320 C1319 1.399 . S
C1320 C1321 1.376 . S
C1321 H1308 0.930 . S
C1321 C1320 1.376 . S
C1321 C1322 1.388 . S
C1322 H1309 0.930 . S
C1322 C1321 1.388 . S
C1322 C1323 1.390 . S
C1323 C1322 1.390 . S
C1323 C1324 1.394 . S
C1323 C1329 1.465 . S
C1324 C1319 1.399 . S
C1324 C1323 1.394 . S
C1324 C1325 1.516 . S
C1325 C1324 1.516 . S
C1325 C1326 1.502 . S
C1325 C1327 1.561 . S
C1325 C1328 1.526 . S
C1326 H1310 0.959 . S
C1326 H1311 0.959 . S
C1326 H1312 0.961 . S
C1326 C1325 1.502 . S
C1327 H1313 0.960 . S
C1327 H1314 0.961 . S
C1327 H1315 0.959 . S
C1327 C1325 1.561 . S
C1328 C1325 1.526 . S
C1328 C1329 1.396 . S
C1328 C1333 1.390 . S
C1329 C1323 1.465 . S
C1329 C1328 1.396 . S
C1329 C1330 1.399 . S
C1330 H1316 0.929 . S
C1330 C1329 1.399 . S
C1330 C1331 1.385 . S
C1331 H1317 0.931 . S
C1331 C1330 1.385 . S
C1331 C1332 1.389 . S
C1332 C1331 1.389 . S
C1332 C1333 1.387 . S
C1333 H1318 0.930 . S
C1333 C1328 1.390 . S
C1333 C1332 1.387 . S
H1334 C1346 0.930 . S
H1335 C1348 0.930 . S
H1336 C1349 0.930 . S
H1337 C1353 0.959 . S
H1338 C1353 0.959 . S
H1339 C1353 0.961 . S
H1340 C1354 0.960 . S
H1341 C1354 0.961 . S
H1342 C1354 0.959 . S
H1343 C1357 0.929 . S
H1344 C1358 0.931 . S
H1345 C1360 0.930 . S
C1346 H1334 0.930 . S
C1346 C1347 1.399 . S
C1346 C1351 1.399 . S
C1347 C1346 1.399 . S
C1347 C1348 1.376 . S
C1348 H1335 0.930 . S
C1348 C1347 1.376 . S
C1348 C1349 1.388 . S
C1349 H1336 0.930 . S
C1349 C1348 1.388 . S
C1349 C1350 1.390 . S
C1350 C1349 1.390 . S
C1350 C1351 1.394 . S
C1350 C1356 1.465 . S
C1351 C1346 1.399 . S
C1351 C1350 1.394 . S
C1351 C1352 1.516 . S
C1352 C1351 1.516 . S
C1352 C1353 1.502 . S
C1352 C1354 1.561 . S
C1352 C1355 1.526 . S
C1353 H1337 0.959 . S
C1353 H1338 0.959 . S
C1353 H1339 0.961 . S
C1353 C1352 1.502 . S
C1354 H1340 0.960 . S
C1354 H1341 0.961 . S
C1354 H1342 0.959 . S
C1354 C1352 1.561 . S
C1355 C1352 1.526 . S
C1355 C1356 1.396 . S
C1355 C1360 1.390 . S
C1356 C1350 1.465 . S
C1356 C1355 1.396 . S
C1356 C1357 1.399 . S
C1357 H1343 0.929 . S
C1357 C1356 1.399 . S
C1357 C1358 1.385 . S
C1358 H1344 0.931 . S
C1358 C1357 1.385 . S
C1358 C1359 1.389 . S
C1359 C1358 1.389 . S
C1359 C1360 1.387 . S
C1360 H1345 0.930 . S
C1360 C1355 1.390 . S
C1360 C1359 1.387 . S
H1361 C1373 0.930 . S
H1362 C1375 0.930 . S
H1363 C1376 0.930 . S
H1364 C1380 0.959 . S
H1365 C1380 0.959 . S
H1366 C1380 0.961 . S
H1367 C1381 0.960 . S
H1368 C1381 0.961 . S
H1369 C1381 0.959 . S
H1370 C1384 0.929 1_554 S
H1371 C1385 0.931 . S
H1372 C1387 0.930 . S
C1373 H1361 0.930 . S
C1373 C1374 1.399 . S
C1373 C1378 1.399 . S
C1374 C1373 1.399 . S
C1374 C1375 1.376 . S
C1375 H1362 0.930 . S
C1375 C1374 1.376 . S
C1375 C1376 1.388 . S
C1376 H1363 0.930 . S
C1376 C1375 1.388 . S
C1376 C1377 1.390 . S
C1377 C1376 1.390 . S
C1377 C1378 1.394 . S
C1377 C1383 1.465 . S
C1378 C1373 1.399 . S
C1378 C1377 1.394 . S
C1378 C1379 1.516 . S
C1379 C1378 1.516 . S
C1379 C1380 1.502 . S
C1379 C1381 1.561 . S
C1379 C1382 1.526 . S
C1380 H1364 0.959 . S
C1380 H1365 0.959 . S
C1380 H1366 0.961 . S
C1380 C1379 1.502 . S
C1381 H1367 0.960 . S
C1381 H1368 0.961 . S
C1381 H1369 0.959 . S
C1381 C1379 1.561 . S
C1382 C1379 1.526 . S
C1382 C1383 1.396 . S
C1382 C1387 1.390 1_554 S
C1383 C1377 1.465 . S
C1383 C1382 1.396 . S
C1383 C1384 1.399 1_554 S
C1384 H1370 0.929 1_556 S
C1384 C1383 1.399 1_556 S
C1384 C1385 1.385 . S
C1385 H1371 0.931 . S
C1385 C1384 1.385 . S
C1385 C1386 1.389 . S
C1386 C1385 1.389 . S
C1386 C1387 1.387 . S
C1387 H1372 0.930 . S
C1387 C1382 1.390 1_556 S
C1387 C1386 1.387 . S
H1388 C1400 0.930 . S
H1389 C1402 0.930 . S
H1390 C1403 0.930 . S
H1391 C1407 0.959 . S
H1392 C1407 0.959 . S
H1393 C1407 0.961 . S
H1394 C1408 0.960 . S
H1395 C1408 0.961 . S
H1396 C1408 0.959 . S
H1397 C1411 0.929 . S
H1398 C1412 0.931 . S
H1399 C1414 0.930 . S
C1400 H1388 0.930 . S
C1400 C1401 1.399 . S
C1400 C1405 1.399 . S
C1401 C1400 1.399 . S
C1401 C1402 1.376 . S
C1402 H1389 0.930 . S
C1402 C1401 1.376 . S
C1402 C1403 1.388 . S
C1403 H1390 0.930 . S
C1403 C1402 1.388 . S
C1403 C1404 1.390 . S
C1404 C1403 1.390 . S
C1404 C1405 1.394 . S
C1404 C1410 1.465 . S
C1405 C1400 1.399 . S
C1405 C1404 1.394 . S
C1405 C1406 1.516 . S
C1406 C1405 1.516 . S
C1406 C1407 1.502 . S
C1406 C1408 1.561 . S
C1406 C1409 1.526 . S
C1407 H1391 0.959 . S
C1407 H1392 0.959 . S
C1407 H1393 0.961 . S
C1407 C1406 1.502 . S
C1408 H1394 0.960 . S
C1408 H1395 0.961 . S
C1408 H1396 0.959 . S
C1408 C1406 1.561 . S
C1409 C1406 1.526 . S
C1409 C1410 1.396 . S
C1409 C1414 1.390 . S
C1410 C1404 1.465 . S
C1410 C1409 1.396 . S
C1410 C1411 1.399 . S
C1411 H1397 0.929 . S
C1411 C1410 1.399 . S
C1411 C1412 1.385 . S
C1412 H1398 0.931 . S
C1412 C1411 1.385 . S
C1412 C1413 1.389 . S
C1413 C1412 1.389 . S
C1413 C1414 1.387 . S
C1414 H1399 0.930 . S
C1414 C1409 1.390 . S
C1414 C1413 1.387 . S
H1415 C1427 0.930 . S
H1416 C1429 0.930 . S
H1417 C1430 0.930 . S
H1418 C1434 0.959 . S
H1419 C1434 0.959 . S
H1420 C1434 0.961 . S
H1421 C1435 0.960 . S
H1422 C1435 0.961 . S
H1423 C1435 0.959 . S
H1424 C1438 0.929 . S
H1425 C1439 0.931 . S
H1426 C1441 0.930 . S
C1427 H1415 0.930 . S
C1427 C1428 1.399 . S
C1427 C1432 1.399 . S
C1428 C1427 1.399 . S
C1428 C1429 1.376 . S
C1429 H1416 0.930 . S
C1429 C1428 1.376 . S
C1429 C1430 1.388 . S
C1430 H1417 0.930 . S
C1430 C1429 1.388 . S
C1430 C1431 1.390 . S
C1431 C1430 1.390 . S
C1431 C1432 1.394 . S
C1431 C1437 1.465 . S
C1432 C1427 1.399 . S
C1432 C1431 1.394 . S
C1432 C1433 1.516 . S
C1433 C1432 1.516 . S
C1433 C1434 1.502 . S
C1433 C1435 1.561 . S
C1433 C1436 1.526 . S
C1434 H1418 0.959 . S
C1434 H1419 0.959 . S
C1434 H1420 0.961 . S
C1434 C1433 1.502 . S
C1435 H1421 0.960 . S
C1435 H1422 0.961 . S
C1435 H1423 0.959 . S
C1435 C1433 1.561 . S
C1436 C1433 1.526 . S
C1436 C1437 1.396 . S
C1436 C1441 1.390 . S
C1437 C1431 1.465 . S
C1437 C1436 1.396 . S
C1437 C1438 1.399 . S
C1438 H1424 0.929 . S
C1438 C1437 1.399 . S
C1438 C1439 1.385 . S
C1439 H1425 0.931 . S
C1439 C1438 1.385 . S
C1439 C1440 1.389 . S
C1440 C1439 1.389 . S
C1440 C1441 1.387 . S
C1441 H1426 0.930 . S
C1441 C1436 1.390 . S
C1441 C1440 1.387 . S
H1442 C1454 0.930 . S
H1443 C1456 0.930 . S
H1444 C1457 0.930 . S
H1445 C1461 0.959 . S
H1446 C1461 0.959 . S
H1447 C1461 0.961 . S
H1448 C1462 0.960 . S
H1449 C1462 0.961 . S
H1450 C1462 0.959 . S
H1451 C1465 0.929 . S
H1452 C1466 0.931 . S
H1453 C1468 0.930 . S
C1454 H1442 0.930 . S
C1454 C1455 1.399 . S
C1454 C1459 1.399 . S
C1455 C1454 1.399 . S
C1455 C1456 1.376 . S
C1456 H1443 0.930 . S
C1456 C1455 1.376 . S
C1456 C1457 1.388 . S
C1457 H1444 0.930 . S
C1457 C1456 1.388 . S
C1457 C1458 1.390 . S
C1458 C1457 1.390 . S
C1458 C1459 1.394 . S
C1458 C1464 1.465 . S
C1459 C1454 1.399 . S
C1459 C1458 1.394 . S
C1459 C1460 1.516 . S
C1460 C1459 1.516 . S
C1460 C1461 1.502 . S
C1460 C1462 1.561 . S
C1460 C1463 1.526 . S
C1461 H1445 0.959 . S
C1461 H1446 0.959 . S
C1461 H1447 0.961 . S
C1461 C1460 1.502 . S
C1462 H1448 0.960 . S
C1462 H1449 0.961 . S
C1462 H1450 0.959 . S
C1462 C1460 1.561 . S
C1463 C1460 1.526 . S
C1463 C1464 1.396 . S
C1463 C1468 1.390 . S
C1464 C1458 1.465 . S
C1464 C1463 1.396 . S
C1464 C1465 1.399 . S
C1465 H1451 0.929 . S
C1465 C1464 1.399 . S
C1465 C1466 1.385 . S
C1466 H1452 0.931 . S
C1466 C1465 1.385 . S
C1466 C1467 1.389 . S
C1467 C1466 1.389 . S
C1467 C1468 1.387 . S
C1468 H1453 0.930 . S
C1468 C1463 1.390 . S
C1468 C1467 1.387 . S
H1469 C1481 0.930 . S
H1470 C1483 0.930 . S
H1471 C1484 0.930 1_554 S
H1472 C1488 0.959 . S
H1473 C1488 0.959 . S
H1474 C1488 0.961 . S
H1475 C1489 0.960 . S
H1476 C1489 0.961 . S
H1477 C1489 0.959 . S
H1478 C1492 0.929 . S
H1479 C1493 0.931 . S
H1480 C1495 0.930 . S
C1481 H1469 0.930 . S
C1481 C1482 1.399 . S
C1481 C1486 1.399 1_556 S
C1482 C1481 1.399 . S
C1482 C1483 1.376 . S
C1483 H1470 0.930 . S
C1483 C1482 1.376 . S
C1483 C1484 1.388 . S
C1484 H1471 0.930 1_556 S
C1484 C1483 1.388 . S
C1484 C1485 1.390 1_556 S
C1485 C1484 1.390 1_554 S
C1485 C1486 1.394 . S
C1485 C1491 1.465 . S
C1486 C1481 1.399 1_554 S
C1486 C1485 1.394 . S
C1486 C1487 1.516 . S
C1487 C1486 1.516 . S
C1487 C1488 1.502 . S
C1487 C1489 1.561 . S
C1487 C1490 1.526 . S
C1488 H1472 0.959 . S
C1488 H1473 0.959 . S
C1488 H1474 0.961 . S
C1488 C1487 1.502 . S
C1489 H1475 0.960 . S
C1489 H1476 0.961 . S
C1489 H1477 0.959 . S
C1489 C1487 1.561 . S
C1490 C1487 1.526 . S
C1490 C1491 1.396 . S
C1490 C1495 1.390 . S
C1491 C1485 1.465 . S
C1491 C1490 1.396 . S
C1491 C1492 1.399 . S
C1492 H1478 0.929 . S
C1492 C1491 1.399 . S
C1492 C1493 1.385 . S
C1493 H1479 0.931 . S
C1493 C1492 1.385 . S
C1493 C1494 1.389 . S
C1494 C1493 1.389 . S
C1494 C1495 1.387 . S
C1495 H1480 0.930 . S
C1495 C1490 1.390 . S
C1495 C1494 1.387 . S
H1496 C1508 0.930 . S
H1497 C1510 0.930 . S
H1498 C1511 0.930 . S
H1499 C1515 0.951 1_545 S
H1500 C1515 0.959 . S
H1501 C1515 0.961 . S
H1502 C1516 0.960 . S
H1503 C1516 0.961 . S
H1504 C1516 0.959 . S
H1505 C1519 0.929 . S
H1506 C1520 0.931 . S
H1507 C1522 0.930 . S
C1508 H1496 0.930 . S
C1508 C1509 1.399 1_565 S
C1508 C1513 1.399 . S
C1509 C1508 1.399 1_545 S
C1509 C1510 1.376 . S
C1510 H1497 0.930 . S
C1510 C1509 1.376 . S
C1510 C1511 1.388 . S
C1511 H1498 0.930 . S
C1511 C1510 1.388 . S
C1511 C1512 1.390 . S
C1512 C1511 1.390 . S
C1512 C1513 1.394 1_545 S
C1512 C1518 1.465 . S
C1513 C1508 1.399 . S
C1513 C1512 1.394 1_565 S
C1513 C1514 1.516 . S
C1514 C1513 1.516 . S
C1514 C1515 1.502 . S
C1514 C1516 1.561 . S
C1514 C1517 1.526 . S
C1515 H1499 0.951 1_565 S
C1515 H1500 0.959 . S
C1515 H1501 0.961 . S
C1515 C1514 1.502 . S
C1516 H1502 0.960 . S
C1516 H1503 0.961 . S
C1516 H1504 0.959 . S
C1516 C1514 1.561 . S
C1517 C1514 1.526 . S
C1517 C1518 1.396 1_565 S
C1517 C1522 1.390 . S
C1518 C1512 1.465 . S
C1518 C1517 1.396 1_545 S
C1518 C1519 1.399 . S
C1519 H1505 0.929 . S
C1519 C1518 1.399 . S
C1519 C1520 1.385 . S
C1520 H1506 0.931 . S
C1520 C1519 1.385 . S
C1520 C1521 1.389 1_545 S
C1521 C1520 1.389 1_565 S
C1521 C1522 1.387 . S
C1522 H1507 0.930 . S
C1522 C1517 1.390 . S
C1522 C1521 1.387 . S
H1523 C1535 0.930 . S
H1524 C1537 0.930 . S
H1525 C1538 0.930 . S
H1526 C1542 0.959 . S
H1527 C1542 0.959 . S
H1528 C1542 0.961 . S
H1529 C1543 0.960 . S
H1530 C1543 0.961 . S
H1531 C1543 0.959 . S
H1532 C1546 0.929 1_554 S
H1533 C1547 0.931 . S
H1534 C1549 0.930 . S
C1535 H1523 0.930 . S
C1535 C1536 1.399 . S
C1535 C1540 1.399 . S
C1536 C1535 1.399 . S
C1536 C1537 1.376 . S
C1537 H1524 0.930 . S
C1537 C1536 1.376 . S
C1537 C1538 1.388 . S
C1538 H1525 0.930 . S
C1538 C1537 1.388 . S
C1538 C1539 1.390 . S
C1539 C1538 1.390 . S
C1539 C1540 1.394 . S
C1539 C1545 1.465 . S
C1540 C1535 1.399 . S
C1540 C1539 1.394 . S
C1540 C1541 1.516 . S
C1541 C1540 1.516 . S
C1541 C1542 1.502 . S
C1541 C1543 1.561 . S
C1541 C1544 1.526 . S
C1542 H1526 0.959 . S
C1542 H1527 0.959 . S
C1542 H1528 0.961 . S
C1542 C1541 1.502 . S
C1543 H1529 0.960 . S
C1543 H1530 0.961 . S
C1543 H1531 0.959 . S
C1543 C1541 1.561 . S
C1544 C1541 1.526 . S
C1544 C1545 1.396 . S
C1544 C1549 1.390 1_554 S
C1545 C1539 1.465 . S
C1545 C1544 1.396 . S
C1545 C1546 1.399 1_554 S
C1546 H1532 0.929 1_556 S
C1546 C1545 1.399 1_556 S
C1546 C1547 1.385 . S
C1547 H1533 0.931 . S
C1547 C1546 1.385 . S
C1547 C1548 1.389 . S
C1548 C1547 1.389 . S
C1548 C1549 1.387 . S
C1549 H1534 0.930 . S
C1549 C1544 1.390 1_556 S
C1549 C1548 1.387 . S
H1550 C1562 0.930 . S
H1551 C1564 0.930 . S
H1552 C1565 0.930 . S
H1553 C1569 0.959 . S
H1554 C1569 0.959 . S
H1555 C1569 0.961 . S
H1556 C1570 0.960 . S
H1557 C1570 0.961 . S
H1558 C1570 0.959 . S
H1559 C1573 0.929 . S
H1560 C1574 0.931 . S
H1561 C1576 0.930 . S
C1562 H1550 0.930 . S
C1562 C1563 1.399 1_565 S
C1562 C1567 1.399 . S
C1563 C1562 1.399 1_545 S
C1563 C1564 1.376 . S
C1564 H1551 0.930 . S
C1564 C1563 1.376 . S
C1564 C1565 1.388 . S
C1565 H1552 0.930 . S
C1565 C1564 1.388 . S
C1565 C1566 1.390 . S
C1566 C1565 1.390 . S
C1566 C1567 1.394 1_545 S
C1566 C1572 1.465 . S
C1567 C1562 1.399 . S
C1567 C1566 1.394 1_565 S
C1567 C1568 1.516 . S
C1568 C1567 1.516 . S
C1568 C1569 1.502 . S
C1568 C1570 1.561 . S
C1568 C1571 1.526 . S
C1569 H1553 0.959 . S
C1569 H1554 0.959 . S
C1569 H1555 0.961 . S
C1569 C1568 1.502 . S
C1570 H1556 0.960 . S
C1570 H1557 0.961 . S
C1570 H1558 0.959 . S
C1570 C1568 1.561 . S
C1571 C1568 1.526 . S
C1571 C1572 1.396 1_565 S
C1571 C1576 1.390 . S
C1572 C1566 1.465 . S
C1572 C1571 1.396 1_545 S
C1572 C1573 1.399 . S
C1573 H1559 0.929 . S
C1573 C1572 1.399 . S
C1573 C1574 1.385 . S
C1574 H1560 0.931 . S
C1574 C1573 1.385 . S
C1574 C1575 1.346 1_545 S
C1575 C1574 1.346 1_565 S
C1575 C1576 1.421 . S
C1576 H1561 0.930 . S
C1576 C1571 1.390 . S
C1576 C1575 1.421 . S
H1577 C1589 0.930 . S
H1578 C1591 0.930 . S
H1579 C1592 0.930 . S
H1580 C1596 0.959 . S
H1581 C1596 0.959 . S
H1582 C1596 0.961 . S
H1583 C1597 0.960 . S
H1584 C1597 0.961 . S
H1585 C1597 0.959 . S
H1586 C1600 0.929 . S
H1587 C1601 0.931 . S
H1588 C1603 0.930 . S
C1589 H1577 0.930 . S
C1589 C1590 1.399 . S
C1589 C1594 1.399 . S
C1590 C1589 1.399 . S
C1590 C1591 1.376 . S
C1591 H1578 0.930 . S
C1591 C1590 1.376 . S
C1591 C1592 1.388 . S
C1592 H1579 0.930 . S
C1592 C1591 1.388 . S
C1592 C1593 1.390 . S
C1593 C1592 1.390 . S
C1593 C1594 1.394 . S
C1593 C1599 1.465 . S
C1594 C1589 1.399 . S
C1594 C1593 1.394 . S
C1594 C1595 1.516 . S
C1595 C1594 1.516 . S
C1595 C1596 1.502 . S
C1595 C1597 1.561 . S
C1595 C1598 1.526 . S
C1596 H1580 0.959 . S
C1596 H1581 0.959 . S
C1596 H1582 0.961 . S
C1596 C1595 1.502 . S
C1597 H1583 0.960 . S
C1597 H1584 0.961 . S
C1597 H1585 0.959 . S
C1597 C1595 1.561 . S
C1598 C1595 1.526 . S
C1598 C1599 1.396 . S
C1598 C1603 1.390 . S
C1599 C1593 1.465 . S
C1599 C1598 1.396 . S
C1599 C1600 1.399 . S
C1600 H1586 0.929 . S
C1600 C1599 1.399 . S
C1600 C1601 1.385 . S
C1601 H1587 0.931 . S
C1601 C1600 1.385 . S
C1601 C1602 1.389 . S
C1602 C1601 1.389 . S
C1602 C1603 1.387 . S
C1603 H1588 0.930 . S
C1603 C1598 1.390 . S
C1603 C1602 1.387 . S
H1604 C1616 0.930 . S
H1605 C1618 0.930 . S
H1606 C1619 0.930 . S
H1607 C1623 0.959 . S
H1608 C1623 0.959 . S
H1609 C1623 0.961 . S
H1610 C1624 0.960 . S
H1611 C1624 0.961 . S
H1612 C1624 0.959 . S
H1613 C1627 0.929 . S
H1614 C1628 0.931 . S
H1615 C1630 0.930 . S
C1616 H1604 0.930 . S
C1616 C1617 1.399 . S
C1616 C1621 1.399 . S
C1617 C1616 1.399 . S
C1617 C1618 1.376 1_545 S
C1618 H1605 0.930 . S
C1618 C1617 1.376 1_565 S
C1618 C1619 1.388 . S
C1619 H1606 0.930 . S
C1619 C1618 1.388 . S
C1619 C1620 1.390 . S
C1620 C1619 1.390 . S
C1620 C1621 1.394 1_565 S
C1620 C1626 1.465 . S
C1621 C1616 1.399 . S
C1621 C1620 1.394 1_545 S
C1621 C1622 1.516 . S
C1622 C1621 1.516 . S
C1622 C1623 1.502 . S
C1622 C1624 1.561 . S
C1622 C1625 1.526 . S
C1623 H1607 0.959 . S
C1623 H1608 0.959 . S
C1623 H1609 0.961 . S
C1623 C1622 1.502 . S
C1624 H1610 0.960 . S
C1624 H1611 0.961 . S
C1624 H1612 0.959 . S
C1624 C1622 1.561 . S
C1625 C1622 1.526 . S
C1625 C1626 1.396 1_545 S
C1625 C1630 1.390 . S
C1626 C1620 1.465 . S
C1626 C1625 1.396 1_565 S
C1626 C1627 1.399 . S
C1627 H1613 0.929 . S
C1627 C1626 1.399 . S
C1627 C1628 1.385 . S
C1628 H1614 0.931 . S
C1628 C1627 1.385 . S
C1628 C1629 1.389 . S
C1629 C1628 1.389 . S
C1629 C1630 1.387 1_565 S
C1630 H1615 0.930 . S
C1630 C1625 1.390 . S
C1630 C1629 1.387 1_545 S
H1631 C1643 0.930 . S
H1632 C1645 0.930 . S
H1633 C1646 0.930 . S
H1634 C1650 0.959 . S
H1635 C1650 0.959 . S
H1636 C1650 0.961 . S
H1637 C1651 0.960 . S
H1638 C1651 0.961 . S
H1639 C1651 0.959 . S
H1640 C1654 0.927 1_554 S
H1641 C1655 0.931 . S
H1642 C1657 0.930 . S
C1643 H1631 0.930 . S
C1643 C1644 1.399 . S
C1643 C1648 1.399 . S
C1644 C1643 1.399 . S
C1644 C1645 1.376 . S
C1645 H1632 0.930 . S
C1645 C1644 1.376 . S
C1645 C1646 1.388 . S
C1646 H1633 0.930 . S
C1646 C1645 1.388 . S
C1646 C1647 1.390 . S
C1647 C1646 1.390 . S
C1647 C1648 1.394 . S
C1647 C1653 1.465 . S
C1648 C1643 1.399 . S
C1648 C1647 1.394 . S
C1648 C1649 1.516 . S
C1649 C1648 1.516 . S
C1649 C1650 1.502 . S
C1649 C1651 1.561 . S
C1649 C1652 1.526 . S
C1650 H1634 0.959 . S
C1650 H1635 0.959 . S
C1650 H1636 0.961 . S
C1650 C1649 1.502 . S
C1651 H1637 0.960 . S
C1651 H1638 0.961 . S
C1651 H1639 0.959 . S
C1651 C1649 1.561 . S
C1652 C1649 1.526 . S
C1652 C1653 1.396 . S
C1652 C1657 1.390 1_554 S
C1653 C1647 1.465 . S
C1653 C1652 1.396 . S
C1653 C1654 1.394 1_554 S
C1654 H1640 0.927 1_556 S
C1654 C1653 1.394 1_556 S
C1654 C1655 1.393 . S
C1655 H1641 0.931 . S
C1655 C1654 1.393 . S
C1655 C1656 1.389 . S
C1656 C1655 1.389 . S
C1656 C1657 1.387 . S
C1657 H1642 0.930 . S
C1657 C1652 1.390 1_556 S
C1657 C1656 1.387 . S
H1658 C1670 0.930 . S
H1659 C1672 0.930 . S
H1660 C1673 0.930 . S
H1661 C1677 0.959 . S
H1662 C1677 0.959 . S
H1663 C1677 0.961 . S
H1664 C1678 0.960 . S
H1665 C1678 0.961 . S
H1666 C1678 0.959 . S
H1667 C1681 0.929 . S
H1668 C1682 0.931 . S
H1669 C1684 0.930 . S
C1670 H1658 0.930 . S
C1670 C1671 1.399 1_565 S
C1670 C1675 1.399 . S
C1671 C1670 1.399 1_545 S
C1671 C1672 1.376 . S
C1672 H1659 0.930 . S
C1672 C1671 1.376 . S
C1672 C1673 1.388 . S
C1673 H1660 0.930 . S
C1673 C1672 1.388 . S
C1673 C1674 1.390 . S
C1674 C1673 1.390 . S
C1674 C1675 1.394 1_545 S
C1674 C1680 1.465 . S
C1675 C1670 1.399 . S
C1675 C1674 1.394 1_565 S
C1675 C1676 1.516 . S
C1676 C1675 1.516 . S
C1676 C1677 1.502 . S
C1676 C1678 1.561 . S
C1676 C1679 1.526 . S
C1677 H1661 0.959 . S
C1677 H1662 0.959 . S
C1677 H1663 0.961 . S
C1677 C1676 1.502 . S
C1678 H1664 0.960 . S
C1678 H1665 0.961 . S
C1678 H1666 0.959 . S
C1678 C1676 1.561 . S
C1679 C1676 1.526 . S
C1679 C1680 1.396 1_565 S
C1679 C1684 1.390 . S
C1680 C1674 1.465 . S
C1680 C1679 1.396 1_545 S
C1680 C1681 1.399 . S
C1681 H1667 0.929 . S
C1681 C1680 1.399 . S
C1681 C1682 1.385 . S
C1682 H1668 0.931 . S
C1682 C1681 1.385 . S
C1682 C1683 1.348 1_545 S
C1683 C1682 1.348 1_565 S
C1683 C1684 1.419 . S
C1684 H1669 0.930 . S
C1684 C1679 1.390 . S
C1684 C1683 1.419 . S
H1685 C1697 0.930 . S
H1686 C1699 0.930 . S
H1687 C1700 0.930 . S
H1688 C1704 0.959 . S
H1689 C1704 0.959 . S
H1690 C1704 0.961 . S
H1691 C1705 0.960 . S
H1692 C1705 0.961 . S
H1693 C1705 0.959 . S
H1694 C1708 0.929 . S
H1695 C1709 0.931 . S
H1696 C1711 0.930 . S
C1697 H1685 0.930 . S
C1697 C1698 1.399 . S
C1697 C1702 1.399 . S
C1698 C1697 1.399 . S
C1698 C1699 1.376 . S
C1699 H1686 0.930 . S
C1699 C1698 1.376 . S
C1699 C1700 1.388 . S
C1700 H1687 0.930 . S
C1700 C1699 1.388 . S
C1700 C1701 1.390 . S
C1701 C1700 1.390 . S
C1701 C1702 1.394 . S
C1701 C1707 1.465 . S
C1702 C1697 1.399 . S
C1702 C1701 1.394 . S
C1702 C1703 1.516 . S
C1703 C1702 1.516 . S
C1703 C1704 1.502 . S
C1703 C1705 1.561 . S
C1703 C1706 1.526 . S
C1704 H1688 0.959 . S
C1704 H1689 0.959 . S
C1704 H1690 0.961 . S
C1704 C1703 1.502 . S
C1705 H1691 0.960 . S
C1705 H1692 0.961 . S
C1705 H1693 0.959 . S
C1705 C1703 1.561 . S
C1706 C1703 1.526 . S
C1706 C1707 1.396 . S
C1706 C1711 1.390 . S
C1707 C1701 1.465 . S
C1707 C1706 1.396 . S
C1707 C1708 1.399 . S
C1708 H1694 0.929 . S
C1708 C1707 1.399 . S
C1708 C1709 1.385 . S
C1709 H1695 0.931 . S
C1709 C1708 1.385 . S
C1709 C1710 1.389 . S
C1710 C1709 1.389 . S
C1710 C1711 1.387 . S
C1711 H1696 0.930 . S
C1711 C1706 1.390 . S
C1711 C1710 1.387 . S
H1712 C1724 0.930 . S
H1713 C1726 0.930 . S
H1714 C1727 0.930 . S
H1715 C1731 0.959 . S
H1716 C1731 0.959 . S
H1717 C1731 0.961 . S
H1718 C1732 0.960 . S
H1719 C1732 0.961 . S
H1720 C1732 0.959 . S
H1721 C1735 0.929 . S
H1722 C1736 0.931 . S
H1723 C1738 0.930 . S
C1724 H1712 0.930 . S
C1724 C1725 1.399 . S
C1724 C1729 1.399 . S
C1725 C1724 1.399 . S
C1725 C1726 1.376 . S
C1726 H1713 0.930 . S
C1726 C1725 1.376 . S
C1726 C1727 1.388 . S
C1727 H1714 0.930 . S
C1727 C1726 1.388 . S
C1727 C1728 1.390 . S
C1728 C1727 1.390 . S
C1728 C1729 1.394 . S
C1728 C1734 1.465 . S
C1729 C1724 1.399 . S
C1729 C1728 1.394 . S
C1729 C1730 1.516 . S
C1730 C1729 1.516 . S
C1730 C1731 1.502 . S
C1730 C1732 1.561 . S
C1730 C1733 1.526 . S
C1731 H1715 0.959 . S
C1731 H1716 0.959 . S
C1731 H1717 0.961 . S
C1731 C1730 1.502 . S
C1732 H1718 0.960 . S
C1732 H1719 0.961 . S
C1732 H1720 0.959 . S
C1732 C1730 1.561 . S
C1733 C1730 1.526 . S
C1733 C1734 1.396 . S
C1733 C1738 1.390 . S
C1734 C1728 1.465 . S
C1734 C1733 1.396 . S
C1734 C1735 1.399 . S
C1735 H1721 0.929 . S
C1735 C1734 1.399 . S
C1735 C1736 1.385 . S
C1736 H1722 0.931 . S
C1736 C1735 1.385 . S
C1736 C1737 1.389 . S
C1737 C1736 1.389 . S
C1737 C1738 1.387 . S
C1738 H1723 0.930 . S
C1738 C1733 1.390 . S
C1738 C1737 1.387 . S
H1739 C1751 0.930 . S
H1740 C1753 0.930 . S
H1741 C1754 0.930 . S
H1742 C1758 0.959 . S
H1743 C1758 0.959 . S
H1744 C1758 0.961 . S
H1745 C1759 0.960 . S
H1746 C1759 0.961 . S
H1747 C1759 0.959 . S
H1748 C1762 0.929 . S
H1749 C1763 0.931 . S
H1750 C1765 0.930 . S
C1751 H1739 0.930 . S
C1751 C1752 1.399 . S
C1751 C1756 1.399 . S
C1752 C1751 1.399 . S
C1752 C1753 1.376 . S
C1753 H1740 0.930 . S
C1753 C1752 1.376 . S
C1753 C1754 1.388 . S
C1754 H1741 0.930 . S
C1754 C1753 1.388 . S
C1754 C1755 1.390 . S
C1755 C1754 1.390 . S
C1755 C1756 1.394 . S
C1755 C1761 1.465 . S
C1756 C1751 1.399 . S
C1756 C1755 1.394 . S
C1756 C1757 1.516 . S
C1757 C1756 1.516 . S
C1757 C1758 1.502 . S
C1757 C1759 1.561 . S
C1757 C1760 1.526 . S
C1758 H1742 0.959 . S
C1758 H1743 0.959 . S
C1758 H1744 0.961 . S
C1758 C1757 1.502 . S
C1759 H1745 0.960 . S
C1759 H1746 0.961 . S
C1759 H1747 0.959 . S
C1759 C1757 1.561 . S
C1760 C1757 1.526 . S
C1760 C1761 1.396 . S
C1760 C1765 1.390 . S
C1761 C1755 1.465 . S
C1761 C1760 1.396 . S
C1761 C1762 1.399 . S
C1762 H1748 0.929 . S
C1762 C1761 1.399 . S
C1762 C1763 1.385 . S
C1763 H1749 0.931 . S
C1763 C1762 1.385 . S
C1763 C1764 1.389 . S
C1764 C1763 1.389 . S
C1764 C1765 1.387 . S
C1765 H1750 0.930 . S
C1765 C1760 1.390 . S
C1765 C1764 1.387 . S
H1766 C1778 0.930 . S
H1767 C1780 0.930 . S
H1768 C1781 0.930 . S
H1769 C1785 0.959 . S
H1770 C1785 0.959 . S
H1771 C1785 0.961 . S
H1772 C1786 0.960 . S
H1773 C1786 0.961 . S
H1774 C1786 0.959 . S
H1775 C1789 0.929 . S
H1776 C1790 0.931 . S
H1777 C1792 0.930 . S
C1778 H1766 0.930 . S
C1778 C1779 1.399 . S
C1778 C1783 1.399 . S
C1779 C1778 1.399 . S
C1779 C1780 1.376 . S
C1780 H1767 0.930 . S
C1780 C1779 1.376 . S
C1780 C1781 1.388 . S
C1781 H1768 0.930 . S
C1781 C1780 1.388 . S
C1781 C1782 1.390 . S
C1782 C1781 1.390 . S
C1782 C1783 1.394 . S
C1782 C1788 1.465 . S
C1783 C1778 1.399 . S
C1783 C1782 1.394 . S
C1783 C1784 1.516 . S
C1784 C1783 1.516 . S
C1784 C1785 1.502 . S
C1784 C1786 1.561 . S
C1784 C1787 1.526 . S
C1785 H1769 0.959 . S
C1785 H1770 0.959 . S
C1785 H1771 0.961 . S
C1785 C1784 1.502 . S
C1786 H1772 0.960 . S
C1786 H1773 0.961 . S
C1786 H1774 0.959 . S
C1786 C1784 1.561 . S
C1787 C1784 1.526 . S
C1787 C1788 1.396 . S
C1787 C1792 1.390 . S
C1788 C1782 1.465 . S
C1788 C1787 1.396 . S
C1788 C1789 1.399 . S
C1789 H1775 0.929 . S
C1789 C1788 1.399 . S
C1789 C1790 1.385 . S
C1790 H1776 0.931 . S
C1790 C1789 1.385 . S
C1790 C1791 1.389 . S
C1791 C1790 1.389 . S
C1791 C1792 1.387 . S
C1792 H1777 0.930 . S
C1792 C1787 1.390 . S
C1792 C1791 1.387 . S
H1793 C1805 0.930 . S
H1794 C1807 0.930 . S
H1795 C1808 0.930 . S
H1796 C1812 0.959 . S
H1797 C1812 0.959 . S
H1798 C1812 0.961 . S
H1799 C1813 0.960 . S
H1800 C1813 0.961 . S
H1801 C1813 0.959 . S
H1802 C1816 0.929 . S
H1803 C1817 0.931 . S
H1804 C1819 0.930 . S
C1805 H1793 0.930 . S
C1805 C1806 1.399 . S
C1805 C1810 1.399 . S
C1806 C1805 1.399 . S
C1806 C1807 1.376 . S
C1807 H1794 0.930 . S
C1807 C1806 1.376 . S
C1807 C1808 1.388 . S
C1808 H1795 0.930 . S
C1808 C1807 1.388 . S
C1808 C1809 1.390 . S
C1809 C1808 1.390 . S
C1809 C1810 1.394 . S
C1809 C1815 1.465 . S
C1810 C1805 1.399 . S
C1810 C1809 1.394 . S
C1810 C1811 1.516 . S
C1811 C1810 1.516 . S
C1811 C1812 1.502 . S
C1811 C1813 1.561 . S
C1811 C1814 1.526 . S
C1812 H1796 0.959 . S
C1812 H1797 0.959 . S
C1812 H1798 0.961 . S
C1812 C1811 1.502 . S
C1813 H1799 0.960 . S
C1813 H1800 0.961 . S
C1813 H1801 0.959 . S
C1813 C1811 1.561 . S
C1814 C1811 1.526 . S
C1814 C1815 1.396 . S
C1814 C1819 1.390 . S
C1815 C1809 1.465 . S
C1815 C1814 1.396 . S
C1815 C1816 1.399 1_556 S
C1816 H1802 0.929 . S
C1816 C1815 1.399 1_554 S
C1816 C1817 1.385 . S
C1817 H1803 0.931 . S
C1817 C1816 1.385 . S
C1817 C1818 1.389 1_554 S
C1818 C1817 1.389 1_556 S
C1818 C1819 1.387 . S
C1819 H1804 0.930 . S
C1819 C1814 1.390 . S
C1819 C1818 1.387 . S
H1820 C1832 0.930 . S
H1821 C1834 0.930 . S
H1822 C1835 0.930 . S
H1823 C1839 0.959 . S
H1824 C1839 0.959 . S
H1825 C1839 0.961 . S
H1826 C1840 0.960 . S
H1827 C1840 0.961 . S
H1828 C1840 0.959 . S
H1829 C1843 0.929 . S
H1830 C1844 0.931 . S
H1831 C1846 0.930 . S
C1832 H1820 0.930 . S
C1832 C1833 1.399 . S
C1832 C1837 1.399 . S
C1833 C1832 1.399 . S
C1833 C1834 1.376 . S
C1834 H1821 0.930 . S
C1834 C1833 1.376 . S
C1834 C1835 1.388 . S
C1835 H1822 0.930 . S
C1835 C1834 1.388 . S
C1835 C1836 1.390 . S
C1836 C1835 1.390 . S
C1836 C1837 1.394 . S
C1836 C1842 1.465 . S
C1837 C1832 1.399 . S
C1837 C1836 1.394 . S
C1837 C1838 1.516 . S
C1838 C1837 1.516 . S
C1838 C1839 1.502 . S
C1838 C1840 1.561 . S
C1838 C1841 1.526 . S
C1839 H1823 0.959 . S
C1839 H1824 0.959 . S
C1839 H1825 0.961 . S
C1839 C1838 1.502 . S
C1840 H1826 0.960 . S
C1840 H1827 0.961 . S
C1840 H1828 0.959 . S
C1840 C1838 1.561 . S
C1841 C1838 1.526 . S
C1841 C1842 1.396 . S
C1841 C1846 1.390 . S
C1842 C1836 1.465 . S
C1842 C1841 1.396 . S
C1842 C1843 1.399 . S
C1843 H1829 0.929 . S
C1843 C1842 1.399 . S
C1843 C1844 1.385 . S
C1844 H1830 0.931 . S
C1844 C1843 1.385 . S
C1844 C1845 1.389 . S
C1845 C1844 1.389 . S
C1845 C1846 1.387 . S
C1846 H1831 0.930 . S
C1846 C1841 1.390 . S
C1846 C1845 1.387 . S
H1847 C1859 0.930 . S
H1848 C1861 0.930 . S
H1849 C1862 0.930 . S
H1850 C1866 0.959 . S
H1851 C1866 0.959 . S
H1852 C1866 0.961 . S
H1853 C1867 0.960 . S
H1854 C1867 0.961 . S
H1855 C1867 0.959 . S
H1856 C1870 0.929 . S
H1857 C1871 0.931 . S
H1858 C1873 0.930 . S
C1859 H1847 0.930 . S
C1859 C1860 1.399 . S
C1859 C1864 1.399 . S
C1860 C1859 1.399 . S
C1860 C1861 1.376 . S
C1861 H1848 0.930 . S
C1861 C1860 1.376 . S
C1861 C1862 1.388 . S
C1862 H1849 0.930 . S
C1862 C1861 1.388 . S
C1862 C1863 1.390 . S
C1863 C1862 1.390 . S
C1863 C1864 1.394 . S
C1863 C1869 1.465 . S
C1864 C1859 1.399 . S
C1864 C1863 1.394 . S
C1864 C1865 1.516 . S
C1865 C1864 1.516 . S
C1865 C1866 1.502 . S
C1865 C1867 1.561 . S
C1865 C1868 1.526 . S
C1866 H1850 0.959 . S
C1866 H1851 0.959 . S
C1866 H1852 0.961 . S
C1866 C1865 1.502 . S
C1867 H1853 0.960 . S
C1867 H1854 0.961 . S
C1867 H1855 0.959 . S
C1867 C1865 1.561 . S
C1868 C1865 1.526 . S
C1868 C1869 1.396 . S
C1868 C1873 1.390 . S
C1869 C1863 1.465 . S
C1869 C1868 1.396 . S
C1869 C1870 1.399 . S
C1870 H1856 0.929 . S
C1870 C1869 1.399 . S
C1870 C1871 1.385 . S
C1871 H1857 0.931 . S
C1871 C1870 1.385 . S
C1871 C1872 1.389 . S
C1872 C1871 1.389 . S
C1872 C1873 1.387 . S
C1873 H1858 0.930 . S
C1873 C1868 1.390 . S
C1873 C1872 1.387 . S
H1874 C1886 0.930 . S
H1875 C1888 0.930 . S
H1876 C1889 0.930 . S
H1877 C1893 0.959 . S
H1878 C1893 0.959 . S
H1879 C1893 0.961 . S
H1880 C1894 0.960 . S
H1881 C1894 0.961 . S
H1882 C1894 0.959 . S
H1883 C1897 0.929 . S
H1884 C1898 0.931 . S
H1885 C1900 0.930 . S
C1886 H1874 0.930 . S
C1886 C1887 1.399 . S
C1886 C1891 1.399 . S
C1887 C1886 1.399 . S
C1887 C1888 1.376 . S
C1888 H1875 0.930 . S
C1888 C1887 1.376 . S
C1888 C1889 1.388 . S
C1889 H1876 0.930 . S
C1889 C1888 1.388 . S
C1889 C1890 1.390 . S
C1890 C1889 1.390 . S
C1890 C1891 1.394 . S
C1890 C1896 1.465 . S
C1891 C1886 1.399 . S
C1891 C1890 1.394 . S
C1891 C1892 1.516 . S
C1892 C1891 1.516 . S
C1892 C1893 1.502 . S
C1892 C1894 1.561 . S
C1892 C1895 1.526 . S
C1893 H1877 0.959 . S
C1893 H1878 0.959 . S
C1893 H1879 0.961 . S
C1893 C1892 1.502 . S
C1894 H1880 0.960 . S
C1894 H1881 0.961 . S
C1894 H1882 0.959 . S
C1894 C1892 1.561 . S
C1895 C1892 1.526 . S
C1895 C1896 1.396 . S
C1895 C1900 1.390 . S
C1896 C1890 1.465 . S
C1896 C1895 1.396 . S
C1896 C1897 1.399 1_556 S
C1897 H1883 0.929 . S
C1897 C1896 1.399 1_554 S
C1897 C1898 1.385 . S
C1898 H1884 0.931 . S
C1898 C1897 1.385 . S
C1898 C1899 1.389 1_554 S
C1899 C1898 1.389 1_556 S
C1899 C1900 1.387 . S
C1900 H1885 0.930 . S
C1900 C1895 1.390 . S
C1900 C1899 1.387 . S
H1901 C1913 0.930 . S
H1902 C1915 0.930 . S
H1903 C1916 0.930 . S
H1904 C1920 0.959 . S
H1905 C1920 0.959 . S
H1906 C1920 0.961 . S
H1907 C1921 0.960 . S
H1908 C1921 0.961 . S
H1909 C1921 0.959 . S
H1910 C1924 0.929 . S
H1911 C1925 0.931 . S
H1912 C1927 0.930 . S
C1913 H1901 0.930 . S
C1913 C1914 1.399 . S
C1913 C1918 1.399 . S
C1914 C1913 1.399 . S
C1914 C1915 1.376 . S
C1915 H1902 0.930 . S
C1915 C1914 1.376 . S
C1915 C1916 1.388 . S
C1916 H1903 0.930 . S
C1916 C1915 1.388 . S
C1916 C1917 1.390 . S
C1917 C1916 1.390 . S
C1917 C1918 1.394 . S
C1917 C1923 1.465 . S
C1918 C1913 1.399 . S
C1918 C1917 1.394 . S
C1918 C1919 1.516 . S
C1919 C1918 1.516 . S
C1919 C1920 1.502 . S
C1919 C1921 1.561 . S
C1919 C1922 1.526 . S
C1920 H1904 0.959 . S
C1920 H1905 0.959 . S
C1920 H1906 0.961 . S
C1920 C1919 1.502 . S
C1921 H1907 0.960 . S
C1921 H1908 0.961 . S
C1921 H1909 0.959 . S
C1921 C1919 1.561 . S
C1922 C1919 1.526 . S
C1922 C1923 1.396 . S
C1922 C1927 1.390 . S
C1923 C1917 1.465 . S
C1923 C1922 1.396 . S
C1923 C1924 1.399 . S
C1924 H1910 0.929 . S
C1924 C1923 1.399 . S
C1924 C1925 1.385 . S
C1925 H1911 0.931 . S
C1925 C1924 1.385 . S
C1925 C1926 1.389 . S
C1926 C1925 1.389 . S
C1926 C1927 1.387 . S
C1927 H1912 0.930 . S
C1927 C1922 1.390 . S
C1927 C1926 1.387 . S
H1928 C1940 0.930 . S
H1929 C1942 0.930 1_554 S
H1930 C1943 0.930 . S
H1931 C1947 0.959 . S
H1932 C1947 0.959 . S
H1933 C1947 0.961 . S
H1934 C1948 0.960 . S
H1935 C1948 0.961 . S
H1936 C1948 0.959 . S
H1937 C1951 0.929 . S
H1938 C1952 0.931 . S
H1939 C1954 0.930 . S
C1940 H1928 0.930 . S
C1940 C1941 1.399 . S
C1940 C1945 1.399 . S
C1941 C1940 1.399 . S
C1941 C1942 1.376 . S
C1942 H1929 0.930 1_556 S
C1942 C1941 1.376 . S
C1942 C1943 1.388 . S
C1943 H1930 0.930 . S
C1943 C1942 1.388 . S
C1943 C1944 1.390 . S
C1944 C1943 1.390 . S
C1944 C1945 1.394 . S
C1944 C1950 1.465 . S
C1945 C1940 1.399 . S
C1945 C1944 1.394 . S
C1945 C1946 1.516 . S
C1946 C1945 1.516 . S
C1946 C1947 1.502 . S
C1946 C1948 1.561 . S
C1946 C1949 1.526 . S
C1947 H1931 0.959 . S
C1947 H1932 0.959 . S
C1947 H1933 0.961 . S
C1947 C1946 1.502 . S
C1948 H1934 0.960 . S
C1948 H1935 0.961 . S
C1948 H1936 0.959 . S
C1948 C1946 1.561 . S
C1949 C1946 1.526 . S
C1949 C1950 1.396 . S
C1949 C1954 1.390 . S
C1950 C1944 1.465 . S
C1950 C1949 1.396 . S
C1950 C1951 1.399 . S
C1951 H1937 0.929 . S
C1951 C1950 1.399 . S
C1951 C1952 1.385 . S
C1952 H1938 0.931 . S
C1952 C1951 1.385 . S
C1952 C1953 1.389 . S
C1953 C1952 1.389 . S
C1953 C1954 1.387 . S
C1954 H1939 0.930 . S
C1954 C1949 1.390 . S
C1954 C1953 1.387 . S
H1955 C1967 0.930 . S
H1956 C1969 0.930 . S
H1957 C1970 0.930 . S
H1958 C1974 0.959 . S
H1959 C1974 0.959 . S
H1960 C1974 0.961 . S
H1961 C1975 0.960 . S
H1962 C1975 0.961 . S
H1963 C1975 0.959 . S
H1964 C1978 0.929 . S
H1965 C1979 0.931 . S
H1966 C1981 0.930 . S
C1967 H1955 0.930 . S
C1967 C1968 1.399 . S
C1967 C1972 1.399 . S
C1968 C1967 1.399 . S
C1968 C1969 1.376 . S
C1969 H1956 0.930 . S
C1969 C1968 1.376 . S
C1969 C1970 1.388 . S
C1970 H1957 0.930 . S
C1970 C1969 1.388 . S
C1970 C1971 1.390 . S
C1971 C1970 1.390 . S
C1971 C1972 1.394 . S
C1971 C1977 1.465 . S
C1972 C1967 1.399 . S
C1972 C1971 1.394 . S
C1972 C1973 1.516 . S
C1973 C1972 1.516 . S
C1973 C1974 1.502 . S
C1973 C1975 1.561 . S
C1973 C1976 1.526 . S
C1974 H1958 0.959 . S
C1974 H1959 0.959 . S
C1974 H1960 0.961 . S
C1974 C1973 1.502 . S
C1975 H1961 0.960 . S
C1975 H1962 0.961 . S
C1975 H1963 0.959 . S
C1975 C1973 1.561 . S
C1976 C1973 1.526 . S
C1976 C1977 1.396 . S
C1976 C1981 1.390 . S
C1977 C1971 1.465 . S
C1977 C1976 1.396 . S
C1977 C1978 1.399 . S
C1978 H1964 0.929 . S
C1978 C1977 1.399 . S
C1978 C1979 1.385 . S
C1979 H1965 0.931 . S
C1979 C1978 1.385 . S
C1979 C1980 1.389 . S
C1980 C1979 1.389 . S
C1980 C1981 1.387 . S
C1981 H1966 0.930 . S
C1981 C1976 1.390 . S
C1981 C1980 1.387 . S
H1982 C1994 0.930 . S
H1983 C1996 0.930 . S
H1984 C1997 0.930 . S
H1985 C2001 0.959 . S
H1986 C2001 0.959 . S
H1987 C2001 0.961 . S
H1988 C2002 0.960 . S
H1989 C2002 0.961 . S
H1990 C2002 0.959 . S
H1991 C2005 0.929 . S
H1992 C2006 0.931 . S
H1993 C2008 0.930 . S
C1994 H1982 0.930 . S
C1994 C1995 1.399 . S
C1994 C1999 1.399 . S
C1995 C1994 1.399 . S
C1995 C1996 1.376 . S
C1996 H1983 0.930 . S
C1996 C1995 1.376 . S
C1996 C1997 1.388 . S
C1997 H1984 0.930 . S
C1997 C1996 1.388 . S
C1997 C1998 1.390 . S
C1998 C1997 1.390 . S
C1998 C1999 1.394 . S
C1998 C2004 1.465 . S
C1999 C1994 1.399 . S
C1999 C1998 1.394 . S
C1999 C2000 1.516 . S
C2000 C1999 1.516 . S
C2000 C2001 1.502 . S
C2000 C2002 1.561 . S
C2000 C2003 1.526 . S
C2001 H1985 0.959 . S
C2001 H1986 0.959 . S
C2001 H1987 0.961 . S
C2001 C2000 1.502 . S
C2002 H1988 0.960 . S
C2002 H1989 0.961 . S
C2002 H1990 0.959 . S
C2002 C2000 1.561 . S
C2003 C2000 1.526 . S
C2003 C2004 1.396 . S
C2003 C2008 1.390 . S
C2004 C1998 1.465 . S
C2004 C2003 1.396 . S
C2004 C2005 1.399 . S
C2005 H1991 0.929 . S
C2005 C2004 1.399 . S
C2005 C2006 1.385 . S
C2006 H1992 0.931 . S
C2006 C2005 1.385 . S
C2006 C2007 1.389 . S
C2007 C2006 1.389 . S
C2007 C2008 1.387 . S
C2008 H1993 0.930 . S
C2008 C2003 1.390 . S
C2008 C2007 1.387 . S
H2009 C2021 0.930 . S
H2010 C2023 0.930 . S
H2011 C2024 0.930 . S
H2012 C2028 0.959 . S
H2013 C2028 0.959 . S
H2014 C2028 0.961 . S
H2015 C2029 0.960 . S
H2016 C2029 0.961 . S
H2017 C2029 0.959 . S
H2018 C2032 0.929 . S
H2019 C2033 0.931 . S
H2020 C2035 0.930 . S
C2021 H2009 0.930 . S
C2021 C2022 1.399 . S
C2021 C2026 1.399 . S
C2022 C2021 1.399 . S
C2022 C2023 1.376 . S
C2023 H2010 0.930 . S
C2023 C2022 1.376 . S
C2023 C2024 1.388 . S
C2024 H2011 0.930 . S
C2024 C2023 1.388 . S
C2024 C2025 1.390 . S
C2025 C2024 1.390 . S
C2025 C2026 1.394 . S
C2025 C2031 1.465 . S
C2026 C2021 1.399 . S
C2026 C2025 1.394 . S
C2026 C2027 1.516 . S
C2027 C2026 1.516 . S
C2027 C2028 1.502 . S
C2027 C2029 1.561 . S
C2027 C2030 1.526 . S
C2028 H2012 0.959 . S
C2028 H2013 0.959 . S
C2028 H2014 0.961 . S
C2028 C2027 1.502 . S
C2029 H2015 0.960 . S
C2029 H2016 0.961 . S
C2029 H2017 0.959 . S
C2029 C2027 1.561 . S
C2030 C2027 1.526 . S
C2030 C2031 1.396 . S
C2030 C2035 1.390 . S
C2031 C2025 1.465 . S
C2031 C2030 1.396 . S
C2031 C2032 1.399 . S
C2032 H2018 0.929 . S
C2032 C2031 1.399 . S
C2032 C2033 1.385 . S
C2033 H2019 0.931 . S
C2033 C2032 1.385 . S
C2033 C2034 1.389 . S
C2034 C2033 1.389 . S
C2034 C2035 1.387 . S
C2035 H2020 0.930 . S
C2035 C2030 1.390 . S
C2035 C2034 1.387 . S
H2036 C2048 0.930 . S
H2037 C2050 0.930 . S
H2038 C2051 0.930 . S
H2039 C2055 0.959 . S
H2040 C2055 0.959 . S
H2041 C2055 0.961 . S
H2042 C2056 0.960 . S
H2043 C2056 0.961 . S
H2044 C2056 0.959 . S
H2045 C2059 0.929 . S
H2046 C2060 0.931 . S
H2047 C2062 0.930 . S
C2048 H2036 0.930 . S
C2048 C2049 1.399 . S
C2048 C2053 1.399 . S
C2049 C2048 1.399 . S
C2049 C2050 1.376 . S
C2050 H2037 0.930 . S
C2050 C2049 1.376 . S
C2050 C2051 1.388 . S
C2051 H2038 0.930 . S
C2051 C2050 1.388 . S
C2051 C2052 1.390 . S
C2052 C2051 1.390 . S
C2052 C2053 1.394 . S
C2052 C2058 1.465 . S
C2053 C2048 1.399 . S
C2053 C2052 1.394 . S
C2053 C2054 1.516 . S
C2054 C2053 1.516 . S
C2054 C2055 1.502 . S
C2054 C2056 1.561 . S
C2054 C2057 1.526 . S
C2055 H2039 0.959 . S
C2055 H2040 0.959 . S
C2055 H2041 0.961 . S
C2055 C2054 1.502 . S
C2056 H2042 0.960 . S
C2056 H2043 0.961 . S
C2056 H2044 0.959 . S
C2056 C2054 1.561 . S
C2057 C2054 1.526 . S
C2057 C2058 1.396 . S
C2057 C2062 1.390 . S
C2058 C2052 1.465 . S
C2058 C2057 1.396 . S
C2058 C2059 1.399 . S
C2059 H2045 0.929 . S
C2059 C2058 1.399 . S
C2059 C2060 1.385 . S
C2060 H2046 0.931 . S
C2060 C2059 1.385 . S
C2060 C2061 1.389 . S
C2061 C2060 1.389 . S
C2061 C2062 1.387 . S
C2062 H2047 0.930 . S
C2062 C2057 1.390 . S
C2062 C2061 1.387 . S
H2063 C2075 0.930 . S
H2064 C2077 0.930 . S
H2065 C2078 0.930 . S
H2066 C2082 0.959 . S
H2067 C2082 0.959 . S
H2068 C2082 0.961 . S
H2069 C2083 0.960 . S
H2070 C2083 0.961 . S
H2071 C2083 0.959 . S
H2072 C2086 0.929 . S
H2073 C2087 0.931 . S
H2074 C2089 0.930 . S
C2075 H2063 0.930 . S
C2075 C2076 1.399 . S
C2075 C2080 1.399 . S
C2076 C2075 1.399 . S
C2076 C2077 1.376 . S
C2077 H2064 0.930 . S
C2077 C2076 1.376 . S
C2077 C2078 1.388 . S
C2078 H2065 0.930 . S
C2078 C2077 1.388 . S
C2078 C2079 1.390 . S
C2079 C2078 1.390 . S
C2079 C2080 1.394 . S
C2079 C2085 1.465 . S
C2080 C2075 1.399 . S
C2080 C2079 1.394 . S
C2080 C2081 1.516 . S
C2081 C2080 1.516 . S
C2081 C2082 1.502 . S
C2081 C2083 1.561 . S
C2081 C2084 1.526 . S
C2082 H2066 0.959 . S
C2082 H2067 0.959 . S
C2082 H2068 0.961 . S
C2082 C2081 1.502 . S
C2083 H2069 0.960 . S
C2083 H2070 0.961 . S
C2083 H2071 0.959 . S
C2083 C2081 1.561 . S
C2084 C2081 1.526 . S
C2084 C2085 1.396 . S
C2084 C2089 1.390 . S
C2085 C2079 1.465 . S
C2085 C2084 1.396 . S
C2085 C2086 1.399 . S
C2086 H2072 0.929 . S
C2086 C2085 1.399 . S
C2086 C2087 1.385 . S
C2087 H2073 0.931 . S
C2087 C2086 1.385 . S
C2087 C2088 1.389 . S
C2088 C2087 1.389 . S
C2088 C2089 1.387 . S
C2089 H2074 0.930 . S
C2089 C2084 1.390 . S
C2089 C2088 1.387 . S
H2090 C2102 0.930 . S
H2091 C2104 0.930 . S
H2092 C2105 0.930 . S
H2093 C2109 0.959 . S
H2094 C2109 0.959 . S
H2095 C2109 0.961 . S
H2096 C2110 0.960 . S
H2097 C2110 0.961 . S
H2098 C2110 0.959 . S
H2099 C2113 0.929 . S
H2100 C2114 0.931 . S
H2101 C2116 0.930 . S
C2102 H2090 0.930 . S
C2102 C2103 1.399 . S
C2102 C2107 1.399 . S
C2103 C2102 1.399 . S
C2103 C2104 1.376 . S
C2104 H2091 0.930 . S
C2104 C2103 1.376 . S
C2104 C2105 1.388 . S
C2105 H2092 0.930 . S
C2105 C2104 1.388 . S
C2105 C2106 1.390 . S
C2106 C2105 1.390 . S
C2106 C2107 1.394 . S
C2106 C2112 1.465 . S
C2107 C2102 1.399 . S
C2107 C2106 1.394 . S
C2107 C2108 1.516 . S
C2108 C2107 1.516 . S
C2108 C2109 1.502 . S
C2108 C2110 1.561 . S
C2108 C2111 1.526 . S
C2109 H2093 0.959 . S
C2109 H2094 0.959 . S
C2109 H2095 0.961 . S
C2109 C2108 1.502 . S
C2110 H2096 0.960 . S
C2110 H2097 0.961 . S
C2110 H2098 0.959 . S
C2110 C2108 1.561 . S
C2111 C2108 1.526 . S
C2111 C2112 1.396 . S
C2111 C2116 1.390 . S
C2112 C2106 1.465 . S
C2112 C2111 1.396 . S
C2112 C2113 1.399 . S
C2113 H2099 0.929 . S
C2113 C2112 1.399 . S
C2113 C2114 1.385 . S
C2114 H2100 0.931 . S
C2114 C2113 1.385 . S
C2114 C2115 1.389 . S
C2115 C2114 1.389 . S
C2115 C2116 1.387 . S
C2116 H2101 0.930 . S
C2116 C2111 1.390 . S
C2116 C2115 1.387 . S
H2117 C2129 0.930 . S
H2118 C2131 0.930 . S
H2119 C2132 0.930 . S
H2120 C2136 0.959 . S
H2121 C2136 0.959 . S
H2122 C2136 0.961 . S
H2123 C2137 0.960 . S
H2124 C2137 0.961 . S
H2125 C2137 0.959 . S
H2126 C2140 0.929 1_554 S
H2127 C2141 0.931 . S
H2128 C2143 0.930 . S
C2129 H2117 0.930 . S
C2129 C2130 1.399 . S
C2129 C2134 1.399 . S
C2130 C2129 1.399 . S
C2130 C2131 1.376 . S
C2131 H2118 0.930 . S
C2131 C2130 1.376 . S
C2131 C2132 1.388 . S
C2132 H2119 0.930 . S
C2132 C2131 1.388 . S
C2132 C2133 1.390 . S
C2133 C2132 1.390 . S
C2133 C2134 1.394 . S
C2133 C2139 1.465 . S
C2134 C2129 1.399 . S
C2134 C2133 1.394 . S
C2134 C2135 1.516 . S
C2135 C2134 1.516 . S
C2135 C2136 1.502 . S
C2135 C2137 1.561 . S
C2135 C2138 1.526 . S
C2136 H2120 0.959 . S
C2136 H2121 0.959 . S
C2136 H2122 0.961 . S
C2136 C2135 1.502 . S
C2137 H2123 0.960 . S
C2137 H2124 0.961 . S
C2137 H2125 0.959 . S
C2137 C2135 1.561 . S
C2138 C2135 1.526 . S
C2138 C2139 1.396 . S
C2138 C2143 1.390 . S
C2139 C2133 1.465 . S
C2139 C2138 1.396 . S
C2139 C2140 1.399 . S
C2140 H2126 0.929 1_556 S
C2140 C2139 1.399 . S
C2140 C2141 1.385 1_556 S
C2141 H2127 0.931 . S
C2141 C2140 1.385 1_554 S
C2141 C2142 1.389 1_554 S
C2142 C2141 1.389 1_556 S
C2142 C2143 1.387 . S
C2143 H2128 0.930 . S
C2143 C2138 1.390 . S
C2143 C2142 1.387 . S
C429 C109 1.511 . S
C441 C3 1.472 . S
C456 C18 1.501 . S
C468 C328 1.488 . S
C483 C31 1.481 . S
C495 C135 1.506 . S
C510 C44 1.478 . S
C522 C356 1.499 . S
C537 C55 1.493 . S
C549 C159 1.496 . S
C564 C382 1.480 . S
C576 C68 1.507 . S
C591 C185 1.511 . S
C603 C81 1.473 . S
C618 C406 1.497 . S
C630 C96 1.480 . S
C645 C224 1.492 . S
C657 C122 1.497 . S
C672 C148 1.511 . S
C684 C252 1.473 . S
C699 C172 1.473 . S
C711 C276 1.506 . S
C726 C302 1.507 . S
C738 C198 1.473 . S
C753 C315 1.502 . S
C765 C211 1.476 . S
C780 C237 1.489 . S
C792 C343 1.500 . S
C807 C265 1.486 . S
C819 C367 1.491 . S
C834 C393 1.491 . S
C846 C289 1.485 . S
C861 C5 1.593 . S
C873 C57 1.574 . S
C888 C70 1.615 . S
C900 C16 1.597 . S
C915 C83 1.591 . S
C927 C29 1.574 . S
C942 C42 1.615 . S
C954 C94 1.601 . S
C969 C107 1.584 . S
C981 C161 1.585 . S
C996 C120 1.599 . S
C1008 C174 1.575 . S
C1023 C187 1.614 . S
C1035 C133 1.578 . S
C1050 C200 1.577 . S
C1062 C146 1.614 . S
C1077 C263 1.622 . S
C1089 C213 1.577 . S
C1104 C278 1.573 . S
C1116 C226 1.597 . S
C1131 C239 1.609 . S
C1143 C291 1.610 . S
C1158 C304 1.614 . S
C1170 C250 1.602 . S
C1185 C369 1.614 . S
C1197 C317 1.591 . S
C1212 C330 1.589 . S
C1224 C380 1.614 . S
C1239 C395 1.615 . S
C1251 C341 1.583 . S
C1266 C408 1.602 . S
C1278 C354 1.574 . S
C1293 C56 0.578 . S
C1305 C4 0.699 . S
C1320 C69 0.604 . S
C1332 C23 0.704 . S
C1347 C36 0.724 . S
C1359 C82 0.575 . S
C1374 C101 0.689 . S
C1386 C49 0.589 . S
C1401 C160 0.610 . S
C1413 C114 0.725 . S
C1428 C127 0.722 . S
C1440 C173 0.624 . S
C1455 C186 0.611 . S
C1467 C140 0.724 . S
C1482 C199 0.572 . S
C1494 C153 0.662 . S
C1509 C212 0.688 1_545 S
C1521 C270 0.626 1_565 S
C1536 C277 0.675 . S
C1548 C225 0.603 . S
C1563 C290 0.716 1_545 S
C1575 C238 0.573 1_565 S
C1590 C303 0.671 . S
C1602 C257 0.607 . S
C1617 C368 0.623 1_545 S
C1629 C316 0.721 1_565 S
C1644 C329 0.565 . S
C1656 C387 0.675 . S
C1671 C348 0.692 1_545 S
C1683 C394 0.545 1_565 S
C1698 C361 0.562 . S
C1710 C407 0.717 . S
C1725 C10 1.484 . S
C1737 C283 1.502 . S
C1752 C296 1.475 . S
C1764 C17 1.511 . S
C1779 C30 1.512 . S
C1791 C309 1.481 . S
C1806 C43 1.469 . S
C1818 C264 1.519 1_556 S
C1833 C251 1.468 . S
C1845 C62 1.520 . S
C1860 C218 1.501 . S
C1872 C75 1.492 . S
C1887 C231 1.469 . S
C1899 C88 1.518 1_556 S
C1914 C95 1.502 . S
C1926 C244 1.491 . S
C1941 C108 1.513 1_556 S
C1953 C381 1.494 . S
C1968 C400 1.473 . S
C1980 C121 1.520 . S
C1995 C413 1.494 . S
C2007 C134 1.478 . S
C2022 C374 1.476 . S
C2034 C147 1.495 . S
C2049 C355 1.472 . S
C2061 C166 1.520 . S
C2076 C322 1.474 . S
C2088 C179 1.520 . S
C2103 C192 1.470 . S
C2115 C335 1.519 . S
C2130 C205 1.491 . S
C2142 C342 1.514 1_556 S
