# Generated by pormake.
# Topology ukf, (4)-cn, num edge types: 1
# Building blocks:
#     Node 0, Type 0, BuildingBlock: UXUYUI_clean_sbu_0, # of connection points: 4
#     Node 1, Type 0, BuildingBlock: UXUYUI_clean_sbu_0, # of connection points: 4
#     Node 2, Type 0, BuildingBlock: UXUYUI_clean_sbu_0, # of connection points: 4
#     Node 3, Type 0, BuildingBlock: UXUYUI_clean_sbu_0, # of connection points: 4
#     Node 4, Type 0, BuildingBlock: UXUYUI_clean_sbu_0, # of connection points: 4
#     Node 5, Type 0, BuildingBlock: UXUYUI_clean_sbu_0, # of connection points: 4
#     Node 6, Type 0, BuildingBlock: UXUYUI_clean_sbu_0, # of connection points: 4
#     Node 7, Type 0, BuildingBlock: UXUYUI_clean_sbu_0, # of connection points: 4
#     Node 8, Type 0, BuildingBlock: UXUYUI_clean_sbu_0, # of connection points: 4
#     Node 9, Type 0, BuildingBlock: UXUYUI_clean_sbu_0, # of connection points: 4
#     Node 10, Type 0, BuildingBlock: UXUYUI_clean_sbu_0, # of connection points: 4
#     Node 11, Type 0, BuildingBlock: UXUYUI_clean_sbu_0, # of connection points: 4
#     Edge 12, Type (0, 0), BuildingBlock: KIFKEQ_clean_linker_1, # of connection points: 2
#     Edge 13, Type (0, 0), BuildingBlock: KIFKEQ_clean_linker_1, # of connection points: 2
#     Edge 14, Type (0, 0), BuildingBlock: KIFKEQ_clean_linker_1, # of connection points: 2
#     Edge 15, Type (0, 0), BuildingBlock: KIFKEQ_clean_linker_1, # of connection points: 2
#     Edge 16, Type (0, 0), BuildingBlock: KIFKEQ_clean_linker_1, # of connection points: 2
#     Edge 17, Type (0, 0), BuildingBlock: KIFKEQ_clean_linker_1, # of connection points: 2
#     Edge 18, Type (0, 0), BuildingBlock: KIFKEQ_clean_linker_1, # of connection points: 2
#     Edge 19, Type (0, 0), BuildingBlock: KIFKEQ_clean_linker_1, # of connection points: 2
#     Edge 20, Type (0, 0), BuildingBlock: KIFKEQ_clean_linker_1, # of connection points: 2
#     Edge 21, Type (0, 0), BuildingBlock: KIFKEQ_clean_linker_1, # of connection points: 2
#     Edge 22, Type (0, 0), BuildingBlock: KIFKEQ_clean_linker_1, # of connection points: 2
#     Edge 23, Type (0, 0), BuildingBlock: KIFKEQ_clean_linker_1, # of connection points: 2
#     Edge 24, Type (0, 0), BuildingBlock: KIFKEQ_clean_linker_1, # of connection points: 2
#     Edge 25, Type (0, 0), BuildingBlock: KIFKEQ_clean_linker_1, # of connection points: 2
#     Edge 26, Type (0, 0), BuildingBlock: KIFKEQ_clean_linker_1, # of connection points: 2
#     Edge 27, Type (0, 0), BuildingBlock: KIFKEQ_clean_linker_1, # of connection points: 2
#     Edge 28, Type (0, 0), BuildingBlock: KIFKEQ_clean_linker_1, # of connection points: 2
#     Edge 29, Type (0, 0), BuildingBlock: KIFKEQ_clean_linker_1, # of connection points: 2
#     Edge 30, Type (0, 0), BuildingBlock: KIFKEQ_clean_linker_1, # of connection points: 2
#     Edge 31, Type (0, 0), BuildingBlock: KIFKEQ_clean_linker_1, # of connection points: 2
#     Edge 32, Type (0, 0), BuildingBlock: KIFKEQ_clean_linker_1, # of connection points: 2
#     Edge 33, Type (0, 0), BuildingBlock: KIFKEQ_clean_linker_1, # of connection points: 2
#     Edge 34, Type (0, 0), BuildingBlock: KIFKEQ_clean_linker_1, # of connection points: 2
#     Edge 35, Type (0, 0), BuildingBlock: KIFKEQ_clean_linker_1, # of connection points: 2
# Relax obj value: 0.271
# Max RMSD: 0.213
# Mean RMSD: 0.213
data_MOF--net-ukf--node1-UXUYUI_clean_sbu_0--edge1-KIFKEQ_clean_linker_1
_symmetry_space_group_name_H-M    P1
_symmetry_Int_Tables_number       1
_symmetry_cell_setting            triclinic
loop_
_symmetry_equiv_pos_as_xyz
'x, y, z'
_cell_length_a     46.957374
_cell_length_b     46.96968
_cell_length_c     93.622114
_cell_angle_alpha  89.999229
_cell_angle_beta   90.002032
_cell_angle_gamma 119.98784
loop_
_atom_site_label
_atom_site_type_symbol
_atom_site_fract_x
_atom_site_fract_y
_atom_site_fract_z
_atom_type_partial_charge
Li0 Li 0.39286 0.223 0.06371 0.0
Li1 Li 0.36669 0.20556 0.03945 0.0
Li2 Li 0.42389 0.22837 0.04226 0.0
Li3 Li 0.40227 0.26463 0.04435 0.0
C4 C 0.40228 0.16791 0.04958 0.0
N5 N 0.4319 0.13036 0.04576 0.0
C6 C 0.3973 0.15022 0.03693 0.0
C7 C 0.42214 0.16639 0.06032 0.0
C8 C 0.41256 0.13142 0.03519 0.0
C9 C 0.43693 0.14727 0.05818 0.0
C10 C 0.32944 0.22379 0.05852 0.0
C11 C 0.28206 0.23099 0.05858 0.0
N12 N 0.2664 0.20484 0.06754 0.0
C13 C 0.31305 0.19727 0.06787 0.0
C14 C 0.314 0.24106 0.05396 0.0
C15 C 0.28112 0.18795 0.07225 0.0
C16 C 0.39915 0.24158 0.09251 0.0
N17 N 0.38871 0.21539 0.08362 0.0
C18 C 0.37419 0.17869 0.10343 0.0
C19 C 0.37625 0.18433 0.08872 0.0
C20 C 0.38513 0.20531 0.11293 0.0
C21 C 0.39757 0.23709 0.10729 0.0
H22 H 0.40909 0.26602 0.08809 0.0
H23 H 0.368 0.16397 0.08136 0.0
C24 C 0.33224 0.16702 0.01549 0.0
N25 N 0.32966 0.17078 0.02975 0.0
C26 C 0.30907 0.1386 0.0085 0.0
C27 C 0.28058 0.11817 0.03091 0.0
C28 C 0.30428 0.14718 0.03747 0.0
C29 C 0.28337 0.11323 0.0163 0.0
H30 H 0.35333 0.18506 0.00962 0.0
H31 H 0.30353 0.1498 0.04889 0.0
C32 C 0.46669 0.28391 0.05782 0.0
N33 N 0.53321 0.32879 0.05876 0.0
C34 C 0.48314 0.30102 0.0455 0.0
C35 C 0.48404 0.28949 0.0706 0.0
C36 C 0.51678 0.32364 0.0462 0.0
C37 C 0.51768 0.31233 0.07087 0.0
C38 C 0.38886 0.24842 0.01602 0.0
C39 C 0.405 0.25746 0.00285 0.0
C40 C 0.35934 0.24846 0.01782 0.0
C41 C 0.39129 0.26637 0.99169 0.0
C42 C 0.3464 0.25749 0.0064 0.0
N43 N 0.36251 0.2662 0.99368 0.0
C44 C 0.46094 0.22111 0.02086 0.0
C45 C 0.48559 0.22977 0.04373 0.0
C46 C 0.48752 0.22047 0.01459 0.0
N47 N 0.46063 0.22607 0.03513 0.0
C48 C 0.51276 0.22937 0.03791 0.0
C49 C 0.5141 0.22502 0.02312 0.0
H50 H 0.44048 0.21772 0.01433 0.0
H51 H 0.48455 0.23335 0.05509 0.0
C52 C 0.4043 0.32341 0.05245 0.0
N53 N 0.41197 0.30867 0.04183 0.0
C54 C 0.41599 0.35722 0.05198 0.0
C55 C 0.44223 0.35969 0.02943 0.0
C56 C 0.43005 0.32592 0.03034 0.0
C57 C 0.43589 0.37594 0.0405 0.0
H58 H 0.3902 0.3091 0.06154 0.0
H59 H 0.43647 0.31383 0.02219 0.0
O60 O 0.3883 0.18715 0.05131 0.0
O61 O 0.36093 0.23369 0.0543 0.0
O62 O 0.43387 0.26132 0.05735 0.0
O63 O 0.40229 0.23997 0.02707 0.0
H64 H 0.38212 0.1513 0.02849 0.0
H65 H 0.42648 0.1802 0.07011 0.0
H66 H 0.40909 0.11774 0.02543 0.0
H67 H 0.45255 0.14602 0.06635 0.0
H68 H 0.26976 0.24404 0.05508 0.0
H69 H 0.32471 0.18378 0.07158 0.0
H70 H 0.3266 0.26212 0.04697 0.0
H71 H 0.26805 0.16729 0.07939 0.0
H72 H 0.36402 0.15375 0.10731 0.0
H73 H 0.40665 0.25835 0.11421 0.0
H74 H 0.31211 0.13594 0.9972 0.0
H75 H 0.26158 0.099 0.0374 0.0
H76 H 0.47019 0.29639 0.03546 0.0
H77 H 0.47166 0.27624 0.08021 0.0
H78 H 0.52987 0.33697 0.03673 0.0
H79 H 0.53144 0.31692 0.08069 0.0
H80 H 0.42798 0.25775 0.00129 0.0
H81 H 0.3464 0.2413 0.02786 0.0
H82 H 0.40354 0.27346 0.98144 0.0
H83 H 0.32352 0.25753 0.00765 0.0
H84 H 0.48721 0.21636 0.0032 0.0
H85 H 0.53279 0.23316 0.04486 0.0
H86 H 0.41021 0.36869 0.06067 0.0
H87 H 0.45788 0.37313 0.02051 0.0
Li88 Li 0.14017 0.40424 0.37538 0.0
Li89 Li 0.19915 0.42388 0.37411 0.0
Li90 Li 0.1583 0.3648 0.37325 0.0
Li91 Li 0.16887 0.39589 0.39551 0.0
C92 C 0.15295 0.40644 0.34771 0.0
N93 N 0.12676 0.42204 0.32461 0.0
C94 C 0.17095 0.43701 0.34104 0.0
C95 C 0.12181 0.38366 0.34255 0.0
C96 C 0.15723 0.44447 0.32939 0.0
C97 C 0.10894 0.39206 0.33089 0.0
C98 C 0.17838 0.45612 0.39895 0.0
C99 C 0.2091 0.48947 0.41904 0.0
N100 N 0.18233 0.49131 0.42324 0.0
C101 C 0.15121 0.45844 0.40342 0.0
C102 C 0.20763 0.47188 0.40676 0.0
C103 C 0.1537 0.47633 0.41574 0.0
C104 C 0.07685 0.39906 0.37424 0.0
N105 N 0.10915 0.41747 0.37069 0.0
C106 C 0.10154 0.4617 0.36299 0.0
C107 C 0.12169 0.44815 0.36512 0.0
C108 C 0.06832 0.44379 0.36696 0.0
C109 C 0.05584 0.4119 0.37249 0.0
H110 H 0.06772 0.37499 0.37892 0.0
H111 H 0.14771 0.46262 0.36287 0.0
C112 C 0.25795 0.45176 0.35762 0.0
N113 N 0.23935 0.45824 0.36672 0.0
C114 C 0.28702 0.47743 0.35199 0.0
C115 C 0.27637 0.51595 0.36469 0.0
C116 C 0.24786 0.48954 0.37025 0.0
C117 C 0.29656 0.51015 0.35545 0.0
H118 H 0.2501 0.42667 0.35466 0.0
H119 H 0.23212 0.49404 0.37717 0.0
C120 C 0.10404 0.33159 0.38856 0.0
N121 N 0.06177 0.26477 0.39125 0.0
C122 C 0.10543 0.31495 0.40068 0.0
C123 C 0.08095 0.31437 0.37789 0.0
C124 C 0.08389 0.28112 0.40182 0.0
C125 C 0.05987 0.28056 0.37942 0.0
C126 C 0.23109 0.39393 0.38329 0.0
C127 C 0.2388 0.3756 0.3739 0.0
C128 C 0.25614 0.41963 0.39108 0.0
C129 C 0.27154 0.38345 0.37242 0.0
C130 C 0.28858 0.42675 0.38927 0.0
N131 N 0.29554 0.40867 0.38006 0.0
C132 C 0.15209 0.32038 0.35138 0.0
C133 C 0.15342 0.30302 0.37502 0.0
C134 C 0.15557 0.29466 0.34582 0.0
N135 N 0.15192 0.32447 0.36574 0.0
C136 C 0.15661 0.27684 0.36994 0.0
C137 C 0.15906 0.27313 0.35517 0.0
H138 H 0.15177 0.33833 0.34425 0.0
H139 H 0.15434 0.30748 0.38638 0.0
C140 C 0.14965 0.39634 0.42427 0.0
N141 N 0.17156 0.3936 0.41572 0.0
C142 C 0.15193 0.39503 0.43911 0.0
C143 C 0.19846 0.38685 0.43601 0.0
C144 C 0.19545 0.38861 0.42126 0.0
C145 C 0.17661 0.39023 0.44514 0.0
H146 H 0.13037 0.39947 0.41956 0.0
H147 H 0.21215 0.38586 0.41423 0.0
O148 O 0.16574 0.39887 0.35925 0.0
O149 O 0.17634 0.43837 0.38702 0.0
O150 O 0.12509 0.36462 0.38719 0.0
O151 O 0.19921 0.38679 0.38483 0.0
H152 H 0.19512 0.4549 0.34489 0.0
H153 H 0.10768 0.35984 0.34756 0.0
H154 H 0.17078 0.4681 0.32417 0.0
H155 H 0.08479 0.37475 0.32683 0.0
H156 H 0.23152 0.50166 0.42524 0.0
H157 H 0.12834 0.4463 0.39754 0.0
H158 H 0.22889 0.47039 0.40343 0.0
H159 H 0.13282 0.47821 0.41936 0.0
H160 H 0.11224 0.48658 0.35897 0.0
H161 H 0.03034 0.39738 0.37569 0.0
H162 H 0.3018 0.47161 0.34502 0.0
H163 H 0.28204 0.54066 0.36737 0.0
H164 H 0.12314 0.32794 0.40905 0.0
H165 H 0.07944 0.32697 0.3685 0.0
H166 H 0.0848 0.26787 0.41109 0.0
H167 H 0.04198 0.26686 0.37121 0.0
H168 H 0.21982 0.35572 0.36773 0.0
H169 H 0.25062 0.43408 0.39836 0.0
H170 H 0.27787 0.36955 0.36517 0.0
H171 H 0.30822 0.44668 0.39518 0.0
H172 H 0.1578 0.29311 0.33437 0.0
H173 H 0.15881 0.26066 0.37754 0.0
H174 H 0.1343 0.39726 0.44578 0.0
H175 H 0.21794 0.38329 0.44022 0.0
Li176 Li 0.76808 0.19972 0.71007 0.0
Li177 Li 0.734 0.13763 0.71141 0.0
Li178 Li 0.77225 0.17134 0.73185 0.0
Li179 Li 0.79269 0.16698 0.70921 0.0
C180 C 0.70665 0.17575 0.72656 0.0
N181 N 0.65234 0.18247 0.73177 0.0
C182 C 0.68147 0.16516 0.71645 0.0
C183 C 0.70409 0.18964 0.73937 0.0
C184 C 0.65425 0.16879 0.71926 0.0
C185 C 0.67649 0.19289 0.74178 0.0
C186 C 0.77395 0.16506 0.68288 0.0
C187 C 0.77964 0.13422 0.66361 0.0
N188 N 0.80376 0.16271 0.65783 0.0
C189 C 0.79865 0.19405 0.67673 0.0
C190 C 0.76425 0.13489 0.67627 0.0
C191 C 0.81349 0.19233 0.66407 0.0
C192 C 0.79875 0.26582 0.70077 0.0
N193 N 0.76913 0.2379 0.70225 0.0
C194 C 0.74208 0.26351 0.69089 0.0
C195 C 0.74111 0.23618 0.6973 0.0
C196 C 0.77227 0.29293 0.68948 0.0
C197 C 0.80083 0.29382 0.6946 0.0
H198 H 0.82096 0.26633 0.7042 0.0
H199 H 0.71811 0.21339 0.69794 0.0
C200 C 0.67291 0.08686 0.71987 0.0
N201 N 0.69112 0.10179 0.70807 0.0
C202 C 0.63928 0.06466 0.71865 0.0
C203 C 0.64407 0.07252 0.69306 0.0
C204 C 0.67761 0.09483 0.69479 0.0
C205 C 0.62422 0.05767 0.70512 0.0
H206 H 0.68423 0.09358 0.73031 0.0
H207 H 0.69247 0.10775 0.68563 0.0
C208 C 0.81943 0.23559 0.7289 0.0
N209 N 0.84214 0.29145 0.74557 0.0
C210 C 0.85296 0.25481 0.73202 0.0
C211 C 0.79751 0.24484 0.73436 0.0
C212 C 0.86394 0.28294 0.74044 0.0
C213 C 0.80944 0.27314 0.74272 0.0
C214 C 0.78022 0.11171 0.72216 0.0
C215 C 0.81016 0.12236 0.72916 0.0
C216 C 0.7656 0.08204 0.71465 0.0
C217 C 0.82528 0.10326 0.72834 0.0
C218 C 0.78146 0.06359 0.71413 0.0
N219 N 0.81074 0.07452 0.7209 0.0
C220 C 0.75102 0.16032 0.76076 0.0
C221 C 0.80869 0.18813 0.75725 0.0
C222 C 0.75528 0.16288 0.77558 0.0
N223 N 0.77759 0.1733 0.75198 0.0
C224 C 0.81412 0.19155 0.77195 0.0
C225 C 0.78722 0.17897 0.78137 0.0
H226 H 0.72653 0.14806 0.75626 0.0
H227 H 0.82938 0.19758 0.75002 0.0
C228 C 0.85854 0.19624 0.70217 0.0
N229 N 0.83018 0.16712 0.70057 0.0
C230 C 0.88798 0.20064 0.69668 0.0
C231 C 0.8587 0.14542 0.68725 0.0
C232 C 0.82968 0.14183 0.69322 0.0
C233 C 0.88832 0.17508 0.68916 0.0
H234 H 0.85834 0.21636 0.70756 0.0
H235 H 0.80685 0.11901 0.69184 0.0
O236 O 0.73313 0.17158 0.72419 0.0
O237 O 0.75953 0.16622 0.69538 0.0
O238 O 0.80832 0.20754 0.72087 0.0
O239 O 0.76505 0.13002 0.72281 0.0
H240 H 0.68308 0.15461 0.70643 0.0
H241 H 0.72321 0.19786 0.74737 0.0
H242 H 0.63466 0.16077 0.7115 0.0
H243 H 0.67424 0.20365 0.75164 0.0
H244 H 0.77256 0.11104 0.65842 0.0
H245 H 0.80649 0.21757 0.68175 0.0
H246 H 0.74549 0.11219 0.68101 0.0
H247 H 0.83279 0.21454 0.65923 0.0
H248 H 0.71952 0.26125 0.68675 0.0
H249 H 0.82465 0.3159 0.69385 0.0
H250 H 0.62504 0.0544 0.72828 0.0
H251 H 0.63369 0.06764 0.68241 0.0
H252 H 0.87038 0.24794 0.72814 0.0
H253 H 0.77163 0.23064 0.73206 0.0
H254 H 0.8898 0.29793 0.74293 0.0
H255 H 0.79269 0.28056 0.74694 0.0
H256 H 0.8217 0.14527 0.73504 0.0
H257 H 0.74235 0.07348 0.70923 0.0
H258 H 0.84858 0.11128 0.73361 0.0
H259 H 0.77054 0.04064 0.7083 0.0
H260 H 0.73378 0.15217 0.78239 0.0
H261 H 0.83918 0.20445 0.77583 0.0
H262 H 0.91026 0.22412 0.69808 0.0
H263 H 0.85811 0.12528 0.68137 0.0
Li264 Li 0.6309 0.79352 0.04213 0.0
Li265 Li 0.60559 0.77726 0.0651 0.0
Li266 Li 0.59821 0.73543 0.04592 0.0
Li267 Li 0.57353 0.77222 0.04317 0.0
C268 C 0.67092 0.77882 0.0579 0.0
N269 N 0.73779 0.80365 0.06052 0.0
C270 C 0.69046 0.80896 0.06469 0.0
C271 C 0.68524 0.76112 0.05256 0.0
C272 C 0.72428 0.82117 0.06586 0.0
C273 C 0.71914 0.77414 0.05397 0.0
C274 C 0.59521 0.82902 0.05986 0.0
C275 C 0.55175 0.82887 0.07364 0.0
N276 N 0.56961 0.86221 0.07454 0.0
C277 C 0.61314 0.86328 0.0609 0.0
C278 C 0.56428 0.81166 0.06628 0.0
C279 C 0.59978 0.87961 0.06837 0.0
C280 C 0.66245 0.85302 0.02876 0.0
N281 N 0.66817 0.82837 0.03252 0.0
C282 C 0.72221 0.85754 0.02238 0.0
C283 C 0.69716 0.82981 0.02927 0.0
C284 C 0.71673 0.88327 0.0186 0.0
C285 C 0.68643 0.88074 0.02173 0.0
H286 H 0.63897 0.85098 0.03113 0.0
H287 H 0.7009 0.80956 0.0319 0.0
C288 C 0.59332 0.75861 0.09401 0.0
N289 N 0.60896 0.78473 0.08507 0.0
C290 C 0.59433 0.76345 0.10875 0.0
C291 C 0.62837 0.82193 0.1048 0.0
C292 C 0.62665 0.81594 0.09014 0.0
C293 C 0.61186 0.7955 0.11432 0.0
H294 H 0.57979 0.73402 0.08966 0.0
H295 H 0.63938 0.83621 0.08279 0.0
C296 C 0.61361 0.77065 0.01656 0.0
N297 N 0.64946 0.79437 0.99168 0.0
C298 C 0.60847 0.79155 0.00767 0.0
C299 C 0.63677 0.76158 0.01277 0.0
C300 C 0.62691 0.80335 0.99515 0.0
C301 C 0.65469 0.77388 0.00015 0.0
C302 C 0.53343 0.71455 0.06145 0.0
C303 C 0.51715 0.68664 0.05281 0.0
C304 C 0.51779 0.71719 0.07368 0.0
C305 C 0.48545 0.662 0.05647 0.0
C306 C 0.48606 0.69202 0.07697 0.0
N307 N 0.47068 0.66517 0.06838 0.0
C308 C 0.58664 0.67416 0.05527 0.0
C309 C 0.58003 0.6774 0.03031 0.0
C310 C 0.57349 0.6402 0.05438 0.0
N311 N 0.58901 0.69177 0.04338 0.0
C312 C 0.56668 0.64348 0.02893 0.0
C313 C 0.5625 0.62432 0.04113 0.0
H314 H 0.59333 0.68628 0.06556 0.0
H315 H 0.58159 0.692 0.0211 0.0
C316 C 0.54154 0.80493 0.03208 0.0
N317 N 0.53746 0.77486 0.03526 0.0
C318 C 0.51581 0.80772 0.0261 0.0
C319 C 0.48253 0.74848 0.02624 0.0
C320 C 0.50887 0.74688 0.03225 0.0
C321 C 0.48573 0.77922 0.02314 0.0
H322 H 0.56487 0.82683 0.03411 0.0
H323 H 0.50663 0.72327 0.03424 0.0
O324 O 0.63779 0.76627 0.05676 0.0
O325 O 0.60828 0.81278 0.05272 0.0
O326 O 0.59652 0.75961 0.02905 0.0
O327 O 0.56488 0.73859 0.05825 0.0
H328 H 0.67966 0.82288 0.0689 0.0
H329 H 0.67031 0.73765 0.04734 0.0
H330 H 0.73978 0.84456 0.07101 0.0
H331 H 0.73062 0.7608 0.04984 0.0
H332 H 0.52779 0.81571 0.07863 0.0
H333 H 0.6372 0.87708 0.05604 0.0
H334 H 0.54998 0.78526 0.06546 0.0
H335 H 0.6134 0.90611 0.06928 0.0
H336 H 0.74535 0.85879 0.01994 0.0
H337 H 0.68148 0.9002 0.01884 0.0
H338 H 0.58104 0.74237 0.11568 0.0
H339 H 0.64269 0.84696 0.10863 0.0
H340 H 0.59069 0.79886 0.01051 0.0
H341 H 0.64118 0.7456 0.01962 0.0
H342 H 0.62337 0.81974 0.9882 0.0
H343 H 0.67287 0.76727 0.99712 0.0
H344 H 0.52859 0.68423 0.04323 0.0
H345 H 0.52999 0.73837 0.08061 0.0
H346 H 0.47256 0.64038 0.04982 0.0
H347 H 0.47369 0.6938 0.08639 0.0
H348 H 0.57032 0.62635 0.06408 0.0
H349 H 0.5588 0.63224 0.01851 0.0
H350 H 0.5194 0.83193 0.0239 0.0
H351 H 0.46014 0.72583 0.02376 0.0
Li352 Li 0.83778 0.63057 0.3732 0.0
Li353 Li 0.83183 0.60502 0.3968 0.0
Li354 Li 0.86349 0.59726 0.37648 0.0
Li355 Li 0.80408 0.57261 0.37546 0.0
C356 C 0.89522 0.6702 0.38435 0.0
N357 N 0.93749 0.73563 0.3782 0.0
C358 C 0.89759 0.69456 0.39364 0.0
C359 C 0.9144 0.679 0.37198 0.0
C360 C 0.91911 0.72755 0.39033 0.0
C361 C 0.93561 0.71225 0.36905 0.0
C362 C 0.7657 0.59686 0.38472 0.0
C363 C 0.7107 0.56256 0.3937 0.0
N364 N 0.6991 0.57492 0.38357 0.0
C365 C 0.7533 0.60946 0.37447 0.0
C366 C 0.74431 0.57345 0.3945 0.0
C367 C 0.71953 0.59797 0.37404 0.0
C368 C 0.84163 0.67123 0.35011 0.0
N369 N 0.83965 0.66805 0.36455 0.0
C370 C 0.82959 0.71298 0.36672 0.0
C371 C 0.83434 0.68861 0.37291 0.0
C372 C 0.8298 0.71577 0.35178 0.0
C373 C 0.83675 0.69507 0.34346 0.0
H374 H 0.84546 0.65427 0.34373 0.0
H375 H 0.83213 0.68496 0.38436 0.0
C376 C 0.84456 0.59862 0.42572 0.0
N377 N 0.82945 0.60963 0.41673 0.0
C378 C 0.8416 0.60051 0.44048 0.0
C379 C 0.80832 0.62579 0.43639 0.0
C380 C 0.81178 0.62324 0.42171 0.0
C381 C 0.82313 0.61408 0.44598 0.0
H382 H 0.85852 0.58799 0.4214 0.0
H383 H 0.80004 0.63174 0.41426 0.0
C384 C 0.83597 0.57557 0.34984 0.0
N385 N 0.83582 0.53263 0.3296 0.0
C386 C 0.82969 0.54431 0.35386 0.0
C387 C 0.84212 0.58496 0.33549 0.0
C388 C 0.82971 0.52295 0.34349 0.0
C389 C 0.84196 0.56292 0.32543 0.0
C390 C 0.818 0.53511 0.39665 0.0
C391 C 0.82857 0.51309 0.39283 0.0
C392 C 0.79503 0.52684 0.40764 0.0
C393 C 0.81578 0.48308 0.39999 0.0
C394 C 0.78285 0.4966 0.41455 0.0
N395 N 0.79337 0.47552 0.41061 0.0
C396 C 0.90759 0.57836 0.38512 0.0
C397 C 0.91238 0.59063 0.36039 0.0
C398 C 0.92933 0.56643 0.38392 0.0
N399 N 0.89883 0.5892 0.3734 0.0
C400 C 0.93449 0.57909 0.3587 0.0
C401 C 0.94264 0.56602 0.37052 0.0
H402 H 0.89636 0.57749 0.39532 0.0
H403 H 0.90526 0.59969 0.35124 0.0
C404 C 0.74827 0.54316 0.3581 0.0
N405 N 0.76415 0.53599 0.36838 0.0
C406 C 0.71909 0.51841 0.35216 0.0
C407 C 0.72402 0.47887 0.36685 0.0
C408 C 0.75267 0.50451 0.37276 0.0
C409 C 0.70656 0.48558 0.35644 0.0
H410 H 0.7584 0.56823 0.35448 0.0
H411 H 0.76591 0.49894 0.38061 0.0
O412 O 0.8738 0.63784 0.38721 0.0
O413 O 0.79864 0.60753 0.38521 0.0
O414 O 0.83645 0.59714 0.35982 0.0
O415 O 0.83039 0.56471 0.38979 0.0
H416 H 0.88276 0.68804 0.40324 0.0
H417 H 0.91266 0.66034 0.36466 0.0
H418 H 0.92113 0.74672 0.39738 0.0
H419 H 0.95051 0.71948 0.35948 0.0
H420 H 0.69384 0.5443 0.40115 0.0
H421 H 0.76951 0.62762 0.36682 0.0
H422 H 0.75352 0.56372 0.40258 0.0
H423 H 0.70956 0.60732 0.3661 0.0
H424 H 0.82386 0.72811 0.37351 0.0
H425 H 0.83732 0.69658 0.33191 0.0
H426 H 0.8537 0.59154 0.44752 0.0
H427 H 0.7936 0.6361 0.44017 0.0
H428 H 0.82487 0.53658 0.36485 0.0
H429 H 0.84714 0.60908 0.33216 0.0
H430 H 0.82491 0.4987 0.34648 0.0
H431 H 0.84677 0.56992 0.3143 0.0
H432 H 0.84633 0.51895 0.38436 0.0
H433 H 0.7867 0.54355 0.41082 0.0
H434 H 0.82367 0.4658 0.39709 0.0
H435 H 0.76504 0.4899 0.42306 0.0
H436 H 0.93439 0.55625 0.39331 0.0
H437 H 0.94458 0.57985 0.34822 0.0
H438 H 0.70655 0.52512 0.34431 0.0
H439 H 0.71613 0.45399 0.37025 0.0
Li440 Li 0.20531 0.84 0.7062 0.0
Li441 Li 0.22314 0.82673 0.72858 0.0
Li442 Li 0.26219 0.85691 0.70886 0.0
Li443 Li 0.2223 0.79776 0.70624 0.0
C444 C 0.22416 0.89179 0.72197 0.0
N445 N 0.19657 0.93162 0.72378 0.0
C446 C 0.20148 0.88664 0.73275 0.0
C447 C 0.23307 0.91736 0.71221 0.0
C448 C 0.18775 0.90701 0.73346 0.0
C449 C 0.21877 0.93718 0.71327 0.0
C450 C 0.15973 0.76643 0.71862 0.0
C451 C 0.13656 0.71329 0.7299 0.0
N452 N 0.10846 0.70292 0.72224 0.0
C453 C 0.13059 0.7553 0.71089 0.0
C454 C 0.16275 0.74533 0.72823 0.0
C455 C 0.10496 0.72309 0.71286 0.0
C456 C 0.17281 0.85554 0.68455 0.0
N457 N 0.17217 0.84747 0.69853 0.0
C458 C 0.11709 0.8369 0.70098 0.0
C459 C 0.14544 0.83915 0.70686 0.0
C460 C 0.1162 0.84308 0.68635 0.0
C461 C 0.14497 0.85368 0.67822 0.0
H462 H 0.19421 0.86158 0.67812 0.0
H463 H 0.14538 0.83207 0.71786 0.0
C464 C 0.24303 0.83523 0.75763 0.0
N465 N 0.2167 0.82186 0.7487 0.0
C466 C 0.23851 0.83135 0.77239 0.0
C467 C 0.17977 0.8012 0.76853 0.0
C468 C 0.18546 0.80552 0.75385 0.0
C469 C 0.20651 0.81399 0.77804 0.0
H470 H 0.26757 0.84903 0.75332 0.0
H471 H 0.16489 0.79607 0.74655 0.0
C472 C 0.2537 0.84752 0.68091 0.0
N473 N 0.29715 0.8766 0.65853 0.0
C474 C 0.26433 0.82937 0.67297 0.0
C475 C 0.26482 0.88032 0.67736 0.0
C476 C 0.28638 0.84455 0.66172 0.0
C477 C 0.28689 0.89463 0.66604 0.0
C478 C 0.27422 0.81127 0.72973 0.0
C479 C 0.30482 0.83537 0.7349 0.0
C480 C 0.2608 0.77882 0.73441 0.0
C481 C 0.32126 0.82666 0.74487 0.0
C482 C 0.27801 0.7711 0.7444 0.0
N483 N 0.30761 0.79498 0.74939 0.0
C484 C 0.32269 0.91852 0.70979 0.0
C485 C 0.32431 0.87368 0.69903 0.0
C486 C 0.35687 0.93813 0.70854 0.0
N487 N 0.30731 0.88686 0.70518 0.0
C488 C 0.35829 0.89243 0.6974 0.0
C489 C 0.37524 0.92493 0.70249 0.0
H490 H 0.30859 0.92812 0.71492 0.0
H491 H 0.3115 0.84817 0.69578 0.0
C492 C 0.1881 0.73388 0.69332 0.0
N493 N 0.21732 0.7583 0.69838 0.0
C494 C 0.18609 0.70582 0.6872 0.0
C495 C 0.2445 0.72921 0.69109 0.0
C496 C 0.24524 0.75648 0.69739 0.0
C497 C 0.21463 0.70349 0.68594 0.0
H498 H 0.16648 0.73634 0.69379 0.0
H499 H 0.26825 0.77656 0.70127 0.0
O500 O 0.2373 0.87166 0.72091 0.0
O501 O 0.18514 0.79784 0.71675 0.0
O502 O 0.23249 0.83322 0.6921 0.0
O503 O 0.25779 0.81934 0.71995 0.0
H504 H 0.19431 0.86694 0.74039 0.0
H505 H 0.25077 0.92181 0.70388 0.0
H506 H 0.17001 0.90319 0.74169 0.0
H507 H 0.22532 0.95698 0.70575 0.0
H508 H 0.13857 0.69669 0.73729 0.0
H509 H 0.12792 0.77124 0.70333 0.0
H510 H 0.185 0.75366 0.73438 0.0
H511 H 0.08232 0.71409 0.70691 0.0
H512 H 0.09542 0.82814 0.70762 0.0
H513 H 0.14549 0.85902 0.66694 0.0
H514 H 0.25989 0.84156 0.77928 0.0
H515 H 0.15467 0.78836 0.77239 0.0
H516 H 0.25575 0.80389 0.6755 0.0
H517 H 0.25672 0.89464 0.68336 0.0
H518 H 0.29495 0.83086 0.65553 0.0
H519 H 0.29589 0.92006 0.66324 0.0
H520 H 0.31561 0.8606 0.73136 0.0
H521 H 0.23746 0.75976 0.73032 0.0
H522 H 0.34486 0.84509 0.74904 0.0
H523 H 0.26787 0.7461 0.74815 0.0
H524 H 0.36882 0.96285 0.71281 0.0
H525 H 0.37116 0.88128 0.69243 0.0
H526 H 0.16273 0.68656 0.68315 0.0
H527 H 0.26697 0.72817 0.69029 0.0
Li528 Li 0.77741 0.60993 0.60187 0.0
Li529 Li 0.79699 0.63614 0.62606 0.0
Li530 Li 0.77543 0.57874 0.62289 0.0
Li531 Li 0.73753 0.59884 0.62251 0.0
C532 C 0.83403 0.60078 0.61321 0.0
N533 N 0.87057 0.5695 0.61348 0.0
C534 C 0.85544 0.60587 0.62453 0.0
C535 C 0.83127 0.57993 0.60199 0.0
C536 C 0.87368 0.58978 0.62448 0.0
C537 C 0.84996 0.56431 0.60233 0.0
C538 C 0.76934 0.66999 0.60896 0.0
C539 C 0.75328 0.71093 0.61233 0.0
N540 N 0.77462 0.72954 0.60188 0.0
C541 C 0.79077 0.68928 0.59812 0.0
C542 C 0.75011 0.68065 0.61601 0.0
C543 C 0.79323 0.71941 0.59475 0.0
C544 C 0.75586 0.60311 0.57343 0.0
N545 N 0.78293 0.61501 0.58189 0.0
C546 C 0.81817 0.63149 0.5615 0.0
C547 C 0.81371 0.62935 0.57629 0.0
C548 C 0.79063 0.61867 0.55245 0.0
C549 C 0.75915 0.60464 0.55859 0.0
H550 H 0.73169 0.59193 0.57825 0.0
H551 H 0.83476 0.63858 0.58332 0.0
C552 C 0.84252 0.66895 0.64779 0.0
N553 N 0.83117 0.67411 0.63527 0.0
C554 C 0.87099 0.69413 0.65404 0.0
C555 C 0.87498 0.72993 0.63467 0.0
C556 C 0.84646 0.70398 0.62877 0.0
C557 C 0.88812 0.72495 0.6473 0.0
H558 H 0.83037 0.64474 0.65256 0.0
H559 H 0.83749 0.70736 0.61868 0.0
C560 C 0.71993 0.53563 0.60672 0.0
N561 N 0.67853 0.46908 0.60262 0.0
C562 C 0.69972 0.51616 0.61783 0.0
C563 C 0.71907 0.52133 0.59352 0.0
C564 C 0.67895 0.48253 0.61555 0.0
C565 C 0.69798 0.48761 0.59166 0.0
C566 C 0.75806 0.61138 0.65085 0.0
C567 C 0.74973 0.5929 0.66342 0.0
C568 C 0.75875 0.64145 0.65068 0.0
C569 C 0.742 0.60477 0.67564 0.0
C570 C 0.75093 0.65251 0.66312 0.0
N571 N 0.74275 0.63409 0.67523 0.0
C572 C 0.78913 0.54421 0.64333 0.0
C573 C 0.77273 0.51616 0.62116 0.0
C574 C 0.79089 0.51808 0.64948 0.0
N575 N 0.77966 0.54258 0.62949 0.0
C576 C 0.77357 0.48919 0.62695 0.0
C577 C 0.78242 0.48991 0.64132 0.0
H578 H 0.79494 0.56572 0.64965 0.0
H579 H 0.76625 0.5158 0.61008 0.0
C580 C 0.67696 0.5923 0.6151 0.0
N581 N 0.69331 0.58749 0.62594 0.0
C582 C 0.64295 0.57908 0.61587 0.0
C583 C 0.64349 0.55724 0.63918 0.0
C584 C 0.67745 0.57076 0.63793 0.0
C585 C 0.62563 0.56059 0.6279 0.0
H586 H 0.69017 0.60508 0.60556 0.0
H587 H 0.69083 0.56648 0.64623 0.0
O588 O 0.81522 0.61549 0.61327 0.0
O589 O 0.76626 0.64022 0.61227 0.0
O590 O 0.74047 0.56857 0.60869 0.0
O591 O 0.76555 0.59988 0.63883 0.0
H592 H 0.85769 0.6218 0.63333 0.0
H593 H 0.8145 0.57544 0.59323 0.0
H594 H 0.89023 0.59333 0.63321 0.0
H595 H 0.84793 0.54793 0.59377 0.0
H596 H 0.73868 0.71957 0.61774 0.0
H597 H 0.80559 0.68122 0.59246 0.0
H598 H 0.73277 0.66564 0.62418 0.0
H599 H 0.80991 0.73473 0.58646 0.0
H600 H 0.84283 0.64218 0.55723 0.0
H601 H 0.73731 0.59485 0.552 0.0
H602 H 0.88043 0.68884 0.66362 0.0
H603 H 0.88718 0.75332 0.62916 0.0
H604 H 0.70036 0.52684 0.62815 0.0
H605 H 0.73471 0.53608 0.58484 0.0
H606 H 0.66323 0.46711 0.62406 0.0
H607 H 0.69712 0.47618 0.58152 0.0
H608 H 0.74904 0.56953 0.66372 0.0
H609 H 0.76557 0.65622 0.64112 0.0
H610 H 0.7354 0.59068 0.68543 0.0
H611 H 0.75141 0.67579 0.66314 0.0
H612 H 0.7978 0.51946 0.6606 0.0
H613 H 0.76734 0.46801 0.62029 0.0
H614 H 0.63022 0.58192 0.60682 0.0
H615 H 0.63126 0.54352 0.64872 0.0
Li616 Li 0.19944 0.77339 0.95553 0.0
Li617 Li 0.14071 0.73443 0.95471 0.0
Li618 Li 0.16863 0.77146 0.93458 0.0
Li619 Li 0.15909 0.792 0.95702 0.0
C620 C 0.17672 0.72067 0.93031 0.0
N621 N 0.17738 0.69015 0.90518 0.0
C622 C 0.14884 0.69154 0.92605 0.0
C623 C 0.20497 0.73421 0.92181 0.0
C624 C 0.14968 0.67648 0.91331 0.0
C625 C 0.20479 0.71845 0.90913 0.0
C626 C 0.15424 0.74423 0.98207 0.0
C627 C 0.11174 0.71597 0.99967 0.0
N628 N 0.12808 0.70092 0.00467 0.0
C629 C 0.17074 0.72866 0.98743 0.0
C630 C 0.12461 0.73803 0.98827 0.0
C631 C 0.15707 0.70679 0.99885 0.0
C632 C 0.25444 0.80019 0.97396 0.0
N633 N 0.2396 0.77916 0.96289 0.0
C634 C 0.27948 0.76185 0.96363 0.0
C635 C 0.25153 0.76022 0.95763 0.0
C636 C 0.29519 0.78308 0.97518 0.0
C637 C 0.28261 0.80277 0.98023 0.0
H638 H 0.2439 0.81436 0.97813 0.0
H639 H 0.23887 0.74324 0.94902 0.0
C640 C 0.07676 0.67805 0.95938 0.0
N641 N 0.10982 0.69052 0.95985 0.0
C642 C 0.05545 0.6446 0.96199 0.0
C643 C 0.10273 0.63795 0.96581 0.0
C644 C 0.12301 0.67135 0.96311 0.0
C645 C 0.06844 0.62399 0.96507 0.0
H646 H 0.06698 0.69385 0.95663 0.0
H647 H 0.14943 0.68192 0.96317 0.0
C648 C 0.2317 0.83463 0.9473 0.0
N649 N 0.2966 0.88171 0.95203 0.0
C650 C 0.23962 0.85938 0.95741 0.0
C651 C 0.25678 0.83395 0.93953 0.0
C652 C 0.27258 0.88295 0.95965 0.0
C653 C 0.28944 0.85792 0.94211 0.0
C654 C 0.10366 0.77053 0.94228 0.0
C655 C 0.10274 0.78673 0.92992 0.0
C656 C 0.08232 0.7659 0.95357 0.0
C657 C 0.08065 0.79842 0.92913 0.0
C658 C 0.06062 0.778 0.95238 0.0
N659 N 0.06025 0.79388 0.9403 0.0
C660 C 0.14707 0.75244 0.90603 0.0
C661 C 0.1954 0.80432 0.90864 0.0
C662 C 0.149 0.75556 0.89117 0.0
N663 N 0.1704 0.77644 0.91438 0.0
C664 C 0.1981 0.80862 0.89386 0.0
C665 C 0.17483 0.78393 0.88493 0.0
H666 H 0.12708 0.73082 0.91091 0.0
H667 H 0.21333 0.82322 0.91553 0.0
C668 C 0.15681 0.8317 0.97917 0.0
N669 N 0.15315 0.82595 0.96488 0.0
C670 C 0.16112 0.86126 0.98468 0.0
C671 C 0.15531 0.87717 0.96078 0.0
C672 C 0.15171 0.84763 0.95572 0.0
C673 C 0.16164 0.88504 0.97536 0.0
H674 H 0.15885 0.81447 0.98615 0.0
H675 H 0.14997 0.84301 0.94436 0.0
O676 O 0.17625 0.7361 0.94263 0.0
O677 O 0.16685 0.76519 0.97071 0.0
O678 O 0.19961 0.81098 0.94511 0.0
O679 O 0.12522 0.75907 0.94327 0.0
H680 H 0.12663 0.68086 0.93239 0.0
H681 H 0.22669 0.75685 0.92489 0.0
H682 H 0.12824 0.65401 0.90986 0.0
H683 H 0.22642 0.72877 0.90241 0.0
H684 H 0.08874 0.71079 0.00453 0.0
H685 H 0.19366 0.73313 0.98272 0.0
H686 H 0.11163 0.74999 0.98427 0.0
H687 H 0.16945 0.6944 0.00306 0.0
H688 H 0.28853 0.74642 0.95936 0.0
H689 H 0.29372 0.81909 0.98925 0.0
H690 H 0.02916 0.6349 0.96141 0.0
H691 H 0.11389 0.62299 0.96786 0.0
H692 H 0.22062 0.86032 0.96355 0.0
H693 H 0.25111 0.81488 0.93172 0.0
H694 H 0.27907 0.90217 0.96748 0.0
H695 H 0.3091 0.85755 0.93624 0.0
H696 H 0.11907 0.79048 0.92107 0.0
H697 H 0.08267 0.75331 0.96318 0.0
H698 H 0.07976 0.81116 0.91967 0.0
H699 H 0.04408 0.77477 0.96107 0.0
H700 H 0.13032 0.73617 0.88465 0.0
H701 H 0.21849 0.83078 0.88947 0.0
H702 H 0.16641 0.86632 0.99594 0.0
H703 H 0.15498 0.89443 0.95321 0.0
Li704 Li 0.39861 0.13561 0.28908 0.0
Li705 Li 0.42334 0.19457 0.29077 0.0
Li706 Li 0.36445 0.16057 0.29275 0.0
Li707 Li 0.39245 0.16738 0.26928 0.0
C708 C 0.41776 0.16133 0.31656 0.0
N709 N 0.4572 0.15983 0.3381 0.0
C710 C 0.44975 0.16831 0.31355 0.0
C711 C 0.4058 0.15358 0.33052 0.0
C712 C 0.46932 0.16745 0.32459 0.0
C713 C 0.42612 0.15294 0.34127 0.0
C714 C 0.46193 0.18028 0.27 0.0
C715 C 0.50153 0.21362 0.25206 0.0
N716 N 0.52206 0.203 0.25674 0.0
C717 C 0.4834 0.16962 0.2746 0.0
C718 C 0.47103 0.2024 0.25862 0.0
C719 C 0.51369 0.18143 0.26777 0.0
C720 C 0.41741 0.09148 0.28038 0.0
N721 N 0.40636 0.10001 0.2921 0.0
C722 C 0.41669 0.06447 0.30676 0.0
C723 C 0.40484 0.08632 0.30508 0.0
C724 C 0.43018 0.05674 0.29497 0.0
C725 C 0.42966 0.07001 0.28158 0.0
H726 H 0.41833 0.10281 0.2702 0.0
H727 H 0.39555 0.09319 0.31423 0.0
C728 C 0.45259 0.24953 0.30881 0.0
N729 N 0.4597 0.23409 0.2983 0.0
C730 C 0.47744 0.27839 0.31496 0.0
C731 C 0.51683 0.27411 0.29987 0.0
C732 C 0.49113 0.24578 0.29381 0.0
C733 C 0.51024 0.29108 0.31056 0.0
H734 H 0.42748 0.23938 0.31242 0.0
H735 H 0.49661 0.23303 0.2857 0.0
C736 C 0.33216 0.09588 0.28293 0.0
N737 N 0.28084 0.03605 0.29185 0.0
C738 C 0.30978 0.07387 0.27299 0.0
C739 C 0.32844 0.08749 0.29741 0.0
C740 C 0.28399 0.04374 0.27771 0.0
C741 C 0.30234 0.05712 0.3017 0.0
C742 C 0.40069 0.23342 0.28157 0.0
C743 C 0.3874 0.24615 0.29132 0.0
C744 C 0.42641 0.25472 0.27263 0.0
C745 C 0.40046 0.28015 0.29211 0.0
C746 C 0.43883 0.28856 0.27376 0.0
N747 N 0.42573 0.30047 0.2834 0.0
C748 C 0.32884 0.16731 0.31521 0.0
C749 C 0.29991 0.1505 0.29325 0.0
C750 C 0.30355 0.17055 0.32137 0.0
N751 N 0.32676 0.15793 0.30135 0.0
C752 C 0.27402 0.15347 0.29897 0.0
C753 C 0.27597 0.1643 0.31313 0.0
H754 H 0.35085 0.17375 0.32127 0.0
H755 H 0.29919 0.14346 0.2822 0.0
C756 C 0.397 0.15183 0.24067 0.0
N757 N 0.38918 0.1702 0.24928 0.0
C758 C 0.39578 0.15427 0.22585 0.0
C759 C 0.37803 0.19413 0.22908 0.0
C760 C 0.37968 0.19098 0.24384 0.0
C761 C 0.38628 0.17573 0.21987 0.0
H762 H 0.40445 0.13551 0.24535 0.0
H763 H 0.37366 0.20531 0.25098 0.0
O764 O 0.39793 0.16167 0.30593 0.0
O765 O 0.43208 0.16887 0.27654 0.0
O766 O 0.35743 0.1255 0.27843 0.0
O767 O 0.38862 0.20026 0.28082 0.0
H768 H 0.45936 0.17428 0.30283 0.0
H769 H 0.381 0.14791 0.33302 0.0
H770 H 0.49414 0.17279 0.3224 0.0
H771 H 0.41716 0.14691 0.35212 0.0
H772 H 0.50888 0.23076 0.24325 0.0
H773 H 0.47689 0.15253 0.28339 0.0
H774 H 0.45479 0.21088 0.25487 0.0
H775 H 0.53056 0.17345 0.27125 0.0
H776 H 0.41594 0.05435 0.31724 0.0
H777 H 0.44012 0.06523 0.2722 0.0
H778 H 0.47086 0.29061 0.32301 0.0
H779 H 0.54167 0.28216 0.29636 0.0
H780 H 0.31233 0.08005 0.26175 0.0
H781 H 0.34543 0.10418 0.30527 0.0
H782 H 0.26648 0.02646 0.27014 0.0
H783 H 0.29916 0.0503 0.31287 0.0
H784 H 0.3674 0.22998 0.29828 0.0
H785 H 0.43685 0.24525 0.26499 0.0
H786 H 0.39057 0.29038 0.29966 0.0
H787 H 0.4589 0.30536 0.26698 0.0
H788 H 0.30642 0.17954 0.33222 0.0
H789 H 0.25313 0.14819 0.29229 0.0
H790 H 0.40197 0.13936 0.21914 0.0
H791 H 0.37097 0.21124 0.22494 0.0
Li792 Li 0.22868 0.42362 0.62255 0.0
Li793 Li 0.26534 0.4023 0.62063 0.0
Li794 Li 0.22541 0.39282 0.60116 0.0
Li795 Li 0.20674 0.3659 0.62502 0.0
C796 C 0.29084 0.46464 0.60941 0.0
N797 N 0.34851 0.52385 0.6127 0.0
C798 C 0.30092 0.47847 0.62299 0.0
C799 C 0.31009 0.4809 0.59751 0.0
C800 C 0.33014 0.50842 0.62443 0.0
C801 C 0.33916 0.51083 0.59939 0.0
C802 C 0.24728 0.38892 0.64927 0.0
C803 C 0.2644 0.35265 0.6594 0.0
N804 N 0.26422 0.36455 0.67263 0.0
C805 C 0.24742 0.40091 0.66295 0.0
C806 C 0.25597 0.3647 0.64746 0.0
C807 C 0.25598 0.38822 0.67463 0.0
C808 C 0.20932 0.45492 0.64243 0.0
N809 N 0.22388 0.459 0.62948 0.0
C810 C 0.23207 0.51327 0.62752 0.0
C811 C 0.23478 0.48721 0.62188 0.0
C812 C 0.21738 0.51 0.64098 0.0
C813 C 0.20548 0.48005 0.64834 0.0
H814 H 0.20057 0.43201 0.64813 0.0
H815 H 0.24599 0.48964 0.61153 0.0
C816 C 0.32566 0.40852 0.61234 0.0
N817 N 0.30979 0.41306 0.62347 0.0
C818 C 0.3596 0.42103 0.61294 0.0
C819 C 0.35996 0.44164 0.63664 0.0
C820 C 0.32612 0.42898 0.63554 0.0
C821 C 0.37724 0.43832 0.62512 0.0
H822 H 0.31212 0.39633 0.60277 0.0
H823 H 0.31322 0.43331 0.64405 0.0
C824 C 0.16839 0.40041 0.61384 0.0
N825 N 0.12841 0.42777 0.61588 0.0
C826 C 0.1461 0.39174 0.62513 0.0
C827 C 0.17028 0.42284 0.60355 0.0
C828 C 0.12611 0.40588 0.62598 0.0
C829 C 0.14987 0.43645 0.60478 0.0
C830 C 0.22258 0.32821 0.60713 0.0
C831 C 0.19448 0.31257 0.59859 0.0
C832 C 0.23736 0.31055 0.61202 0.0
C833 C 0.18128 0.27933 0.59525 0.0
C834 C 0.22345 0.27735 0.60845 0.0
N835 N 0.19591 0.26255 0.60022 0.0
C836 C 0.24432 0.40098 0.57227 0.0
C837 C 0.18689 0.37602 0.57615 0.0
C838 C 0.23973 0.40013 0.5575 0.0
N839 N 0.21807 0.38919 0.58121 0.0
C840 C 0.18113 0.37451 0.56147 0.0
C841 C 0.20778 0.3869 0.55191 0.0
H842 H 0.26886 0.41146 0.57664 0.0
H843 H 0.16648 0.36684 0.58354 0.0
C844 C 0.17014 0.32007 0.64781 0.0
N845 N 0.17092 0.32753 0.63371 0.0
C846 C 0.141 0.29607 0.6541 0.0
C847 C 0.11405 0.28675 0.63123 0.0
C848 C 0.14372 0.31099 0.62537 0.0
C849 C 0.1122 0.27975 0.64588 0.0
H850 H 0.1914 0.33369 0.65446 0.0
H851 H 0.1445 0.31803 0.61433 0.0
O852 O 0.26271 0.43494 0.60776 0.0
O853 O 0.23974 0.40177 0.63774 0.0
O854 O 0.18879 0.38755 0.61303 0.0
O855 O 0.23591 0.36074 0.61051 0.0
H856 H 0.28649 0.4661 0.63235 0.0
H857 H 0.3027 0.47045 0.58694 0.0
H858 H 0.33827 0.51936 0.63488 0.0
H859 H 0.35433 0.52367 0.59028 0.0
H860 H 0.27112 0.33387 0.65816 0.0
H861 H 0.24106 0.4199 0.6645 0.0
H862 H 0.25624 0.35538 0.63697 0.0
H863 H 0.25616 0.39725 0.68528 0.0
H864 H 0.24204 0.53591 0.62149 0.0
H865 H 0.19325 0.47592 0.65855 0.0
H866 H 0.37201 0.41781 0.60386 0.0
H867 H 0.37269 0.45531 0.64611 0.0
H868 H 0.14454 0.37457 0.63323 0.0
H869 H 0.18763 0.42999 0.59481 0.0
H870 H 0.10885 0.39954 0.63469 0.0
H871 H 0.15119 0.454 0.59695 0.0
H872 H 0.18282 0.32587 0.59466 0.0
H873 H 0.25948 0.32239 0.61844 0.0
H874 H 0.15941 0.26688 0.58872 0.0
H875 H 0.23459 0.26338 0.61218 0.0
H876 H 0.26105 0.41038 0.55057 0.0
H877 H 0.15607 0.36364 0.55766 0.0
H878 H 0.14069 0.29128 0.66543 0.0
H879 H 0.09234 0.27518 0.62454 0.0
Li880 Li 0.86213 0.26527 0.95734 0.0
Li881 Li 0.8033 0.23022 0.9582 0.0
Li882 Li 0.83855 0.20582 0.9612 0.0
Li883 Li 0.83212 0.22491 0.93795 0.0
C884 C 0.85492 0.24467 0.98548 0.0
N885 N 0.89433 0.25703 0.00923 0.0
C886 C 0.84399 0.2481 0.9989 0.0
C887 C 0.8859 0.24753 0.98412 0.0
C888 C 0.86428 0.25436 0.01079 0.0
C889 C 0.90544 0.25377 0.99626 0.0
C890 C 0.81003 0.27749 0.94127 0.0
C891 C 0.76531 0.2779 0.92879 0.0
N892 N 0.76955 0.30371 0.93694 0.0
C893 C 0.81417 0.30421 0.94942 0.0
C894 C 0.78561 0.26438 0.93078 0.0
C895 C 0.79338 0.31704 0.94711 0.0
C896 C 0.92145 0.32454 0.95238 0.0
N897 N 0.89556 0.30877 0.96142 0.0
C898 C 0.91152 0.35848 0.97424 0.0
C899 C 0.89057 0.32479 0.97236 0.0
C900 C 0.93779 0.37585 0.96472 0.0
C901 C 0.94313 0.35825 0.95389 0.0
H902 H 0.92445 0.31122 0.94363 0.0
H903 H 0.86928 0.31173 0.97917 0.0
C904 C 0.73433 0.20648 0.96108 0.0
N905 N 0.76506 0.22946 0.96529 0.0
C906 C 0.70686 0.20613 0.96699 0.0
C907 C 0.74323 0.25295 0.9815 0.0
C908 C 0.76995 0.25239 0.97531 0.0
C909 C 0.71113 0.22949 0.9774 0.0
H910 H 0.73103 0.18808 0.95335 0.0
H911 H 0.79472 0.27019 0.97854 0.0
C912 C 0.89023 0.22081 0.94097 0.0
N913 N 0.92231 0.19261 0.9274 0.0
C914 C 0.8728 0.18796 0.9367 0.0
C915 C 0.924 0.23935 0.93838 0.0
C916 C 0.88942 0.17413 0.92984 0.0
C917 C 0.93979 0.22465 0.9315 0.0
C918 C 0.77702 0.16319 0.94164 0.0
C919 C 0.77695 0.13345 0.94275 0.0
C920 C 0.75578 0.16587 0.93198 0.0
C921 C 0.75577 0.10699 0.93412 0.0
C922 C 0.73498 0.13885 0.92353 0.0
N923 N 0.73541 0.11021 0.92476 0.0
C924 C 0.81085 0.15274 0.97853 0.0
C925 C 0.86248 0.16188 0.97025 0.0
C926 C 0.80343 0.12241 0.98417 0.0
N927 N 0.83929 0.17109 0.97124 0.0
C928 C 0.85599 0.13146 0.97574 0.0
C929 C 0.82551 0.11079 0.98227 0.0
H930 H 0.79302 0.16088 0.97919 0.0
H931 H 0.88522 0.17723 0.96464 0.0
C932 C 0.83921 0.24548 0.90942 0.0
N933 N 0.83072 0.2186 0.91767 0.0
C934 C 0.83697 0.24271 0.89455 0.0
C935 C 0.818 0.18473 0.8969 0.0
C936 C 0.82096 0.18872 0.91169 0.0
C937 C 0.82574 0.21188 0.88809 0.0
H938 H 0.84738 0.26909 0.91441 0.0
H939 H 0.81479 0.16768 0.91833 0.0
O940 O 0.83529 0.23873 0.97377 0.0
O941 O 0.82969 0.26413 0.94358 0.0
O942 O 0.87451 0.23491 0.94771 0.0
O943 O 0.79772 0.18942 0.94999 0.0
H944 H 0.82009 0.24601 0.00011 0.0
H945 H 0.89484 0.245 0.97383 0.0
H946 H 0.85615 0.2571 0.02125 0.0
H947 H 0.92946 0.25604 0.99537 0.0
H948 H 0.74621 0.2679 0.92075 0.0
H949 H 0.83299 0.3147 0.95756 0.0
H950 H 0.78238 0.24403 0.92423 0.0
H951 H 0.79613 0.33756 0.95343 0.0
H952 H 0.90611 0.37103 0.98259 0.0
H953 H 0.96329 0.37055 0.94642 0.0
H954 H 0.68254 0.18727 0.96369 0.0
H955 H 0.74765 0.2716 0.98938 0.0
H956 H 0.84683 0.17318 0.93887 0.0
H957 H 0.9379 0.26481 0.94168 0.0
H958 H 0.87621 0.14867 0.92651 0.0
H959 H 0.96593 0.23869 0.92944 0.0
H960 H 0.79323 0.13081 0.9501 0.0
H961 H 0.75556 0.18864 0.93091 0.0
H962 H 0.75557 0.0839 0.93484 0.0
H963 H 0.71855 0.14067 0.91597 0.0
H964 H 0.78 0.10757 0.98944 0.0
H965 H 0.87374 0.12343 0.97416 0.0
H966 H 0.84394 0.26451 0.88822 0.0
H967 H 0.8089 0.1604 0.89249 0.0
Li968 Li 0.57552 0.80362 0.29164 0.0
Li969 Li 0.59536 0.86264 0.29068 0.0
Li970 Li 0.6043 0.8344 0.27059 0.0
Li971 Li 0.63471 0.84403 0.29307 0.0
C972 C 0.54505 0.82607 0.26655 0.0
N973 N 0.51288 0.82474 0.24163 0.0
C974 C 0.54437 0.85411 0.26206 0.0
C975 C 0.52917 0.7973 0.25843 0.0
C976 C 0.52799 0.85294 0.24942 0.0
C977 C 0.51312 0.79715 0.24584 0.0
C978 C 0.59286 0.8491 0.31841 0.0
C979 C 0.60848 0.89222 0.33582 0.0
N980 N 0.5782 0.87501 0.34189 0.0
C981 C 0.56199 0.83168 0.32489 0.0
C982 C 0.61641 0.87948 0.32396 0.0
C983 C 0.55502 0.84526 0.33673 0.0
C984 C 0.54785 0.74576 0.30847 0.0
N985 N 0.54111 0.76347 0.29896 0.0
C986 C 0.48349 0.72583 0.30092 0.0
C987 C 0.50974 0.75416 0.29512 0.0
C988 C 0.48974 0.70689 0.31065 0.0
C989 C 0.52238 0.7169 0.31433 0.0
H990 H 0.57298 0.75431 0.31165 0.0
H991 H 0.50507 0.76909 0.28777 0.0
C992 C 0.60058 0.92601 0.29198 0.0
N993 N 0.58219 0.89366 0.29544 0.0
C994 C 0.58759 0.9469 0.29369 0.0
C995 C 0.53769 0.90099 0.30299 0.0
C996 C 0.55139 0.88097 0.30089 0.0
C997 C 0.55557 0.93426 0.2991 0.0
H998 H 0.62474 0.93526 0.28736 0.0
H999 H 0.53691 0.85491 0.30305 0.0
C1000 C 0.60517 0.77149 0.2827 0.0
N1001 N 0.58901 0.70665 0.28602 0.0
C1002 C 0.62363 0.76338 0.29182 0.0
C1003 C 0.57865 0.74663 0.27519 0.0
C1004 C 0.61504 0.73045 0.29336 0.0
C1005 C 0.57081 0.714 0.27705 0.0
C1006 C 0.66833 0.8998 0.27796 0.0
C1007 C 0.68533 0.8999 0.26569 0.0
C1008 C 0.68492 0.92258 0.28881 0.0
C1009 C 0.71889 0.92261 0.26457 0.0
C1010 C 0.7185 0.94487 0.2873 0.0
N1011 N 0.73465 0.94441 0.27532 0.0
C1012 C 0.60709 0.85597 0.24201 0.0
C1013 C 0.6098 0.8072 0.24471 0.0
C1014 C 0.6087 0.85414 0.22716 0.0
N1015 N 0.60727 0.83244 0.25041 0.0
C1016 C 0.61166 0.80451 0.22995 0.0
C1017 C 0.611 0.82811 0.22097 0.0
H1018 H 0.60571 0.87614 0.24686 0.0
H1019 H 0.61041 0.78912 0.25162 0.0
C1020 C 0.67444 0.8431 0.31529 0.0
N1021 N 0.67427 0.84943 0.30114 0.0
C1022 C 0.69894 0.83777 0.32093 0.0
C1023 C 0.72397 0.84812 0.29755 0.0
C1024 C 0.69866 0.8526 0.29231 0.0
C1025 C 0.72357 0.83909 0.31191 0.0
H1026 H 0.65419 0.83968 0.32197 0.0
H1027 H 0.69731 0.85636 0.28101 0.0
O1028 O 0.56147 0.82687 0.27874 0.0
O1029 O 0.59999 0.83647 0.30669 0.0
O1030 O 0.61295 0.80356 0.28116 0.0
O1031 O 0.6355 0.87776 0.27926 0.0
H1032 H 0.55665 0.87665 0.26816 0.0
H1033 H 0.52944 0.77539 0.26176 0.0
H1034 H 0.5274 0.8745 0.24578 0.0
H1035 H 0.5009 0.77511 0.2394 0.0
H1036 H 0.6264 0.9158 0.34018 0.0
H1037 H 0.54351 0.80809 0.32073 0.0
H1038 H 0.6405 0.89309 0.31913 0.0
H1039 H 0.53116 0.83217 0.3418 0.0
H1040 H 0.45858 0.71881 0.29787 0.0
H1041 H 0.52802 0.7031 0.32197 0.0
H1042 H 0.60209 0.97244 0.29054 0.0
H1043 H 0.5127 0.89015 0.30691 0.0
H1044 H 0.64426 0.78221 0.2977 0.0
H1045 H 0.56406 0.75245 0.26812 0.0
H1046 H 0.62904 0.72381 0.30041 0.0
H1047 H 0.55022 0.69451 0.27137 0.0
H1048 H 0.67283 0.88247 0.25717 0.0
H1049 H 0.67201 0.923 0.29831 0.0
H1050 H 0.73243 0.92287 0.25518 0.0
H1051 H 0.73171 0.96255 0.29565 0.0
H1052 H 0.60857 0.87309 0.22061 0.0
H1053 H 0.61314 0.78391 0.22562 0.0
H1054 H 0.69709 0.83037 0.33199 0.0
H1055 H 0.74266 0.85002 0.29022 0.0
H1056 H 0.20097 0.94247 0.96118 0.0
H1057 H 0.14942 0.90529 0.00117 0.0
H1058 H 0.22577 0.99806 0.97026 0.0
H1059 H 0.17603 0.96131 0.01058 0.0
H1060 H 0.21675 0.07164 0.01969 0.0
H1061 H 0.18294 0.01698 0.00914 0.0
H1062 H 0.2687 0.02665 0.98759 0.0
H1063 H 0.30209 0.08062 0.99801 0.0
C1064 C 0.19433 0.94607 0.97182 0.0
C1065 C 0.17317 0.91917 0.98044 0.0
C1066 C 0.20905 0.97806 0.97711 0.0
C1067 C 0.20337 0.9841 0.99123 0.0
C1068 C 0.1809 0.9575 0.99964 0.0
C1069 C 0.16594 0.92535 0.9943 0.0
C1070 C 0.22824 0.06203 0.01265 0.0
C1071 C 0.26203 0.08068 0.00954 0.0
C1072 C 0.20892 0.03076 0.00663 0.0
C1073 C 0.22304 0.01761 0.99739 0.0
C1074 C 0.2568 0.03634 0.99434 0.0
C1075 C 0.276 0.06739 0.00032 0.0
H1076 H 0.13819 0.23511 0.33083 0.0
H1077 H 0.20397 0.2592 0.36682 0.0
H1078 H 0.16032 0.20222 0.32062 0.0
H1079 H 0.22568 0.22642 0.35675 0.0
H1080 H 0.24905 0.15179 0.33998 0.0
H1081 H 0.21459 0.17168 0.35041 0.0
H1082 H 0.21288 0.21482 0.3099 0.0
H1083 H 0.24717 0.19492 0.29949 0.0
C1084 C 0.15709 0.23315 0.33663 0.0
C1085 C 0.16923 0.24981 0.34966 0.0
C1086 C 0.16975 0.21431 0.33079 0.0
C1087 C 0.19477 0.21168 0.33787 0.0
C1088 C 0.20599 0.22735 0.35113 0.0
C1089 C 0.19345 0.24619 0.35693 0.0
C1090 C 0.24103 0.16524 0.33327 0.0
C1091 C 0.25112 0.17202 0.31894 0.0
C1092 C 0.22129 0.17663 0.33925 0.0
C1093 C 0.21124 0.19513 0.33103 0.0
C1094 C 0.21984 0.20034 0.31649 0.0
C1095 C 0.23955 0.18892 0.31052 0.0
H1096 H 0.94468 0.19234 0.70355 0.0
H1097 H 0.90277 0.17116 0.66125 0.0
H1098 H 0.99919 0.21159 0.6935 0.0
H1099 H 0.95757 0.19171 0.65099 0.0
H1100 H 0.0612 0.22046 0.63665 0.0
H1101 H 0.00664 0.18829 0.64745 0.0
H1102 H 0.0357 0.26038 0.6812 0.0
H1103 H 0.08979 0.2918 0.67061 0.0
C1104 C 0.94721 0.19139 0.69208 0.0
C1105 C 0.91974 0.18051 0.68314 0.0
C1106 C 0.97842 0.20267 0.68629 0.0
C1107 C 0.98295 0.20391 0.6714 0.0
C1108 C 0.95504 0.19098 0.6625 0.0
C1109 C 0.92365 0.17923 0.66834 0.0
C1110 C 0.05588 0.22914 0.64645 0.0
C1111 C 0.07989 0.25852 0.65284 0.0
C1112 C 0.02464 0.21079 0.65262 0.0
C1113 C 0.01674 0.22157 0.66526 0.0
C1114 C 0.04103 0.25076 0.67169 0.0
C1115 C 0.07216 0.26889 0.66559 0.0
H1116 H 0.76869 0.93574 0.03092 0.0
H1117 H 0.71989 0.89846 0.99059 0.0
H1118 H 0.80104 0.99065 0.0205 0.0
H1119 H 0.75284 0.95291 0.97992 0.0
H1120 H 0.76687 0.05672 0.97647 0.0
H1121 H 0.74729 0.00046 0.98375 0.0
H1122 H 0.84135 0.02961 0.00329 0.0
H1123 H 0.86078 0.08682 0.99627 0.0
C1124 C 0.76597 0.93917 0.01966 0.0
C1125 C 0.74204 0.91321 0.01149 0.0
C1126 C 0.78444 0.97052 0.01368 0.0
C1127 C 0.77914 0.97627 0.99943 0.0
C1128 C 0.75705 0.94943 0.99099 0.0
C1129 C 0.73844 0.91824 0.99701 0.0
C1130 C 0.78342 0.05121 0.98235 0.0
C1131 C 0.81516 0.07628 0.98603 0.0
C1132 C 0.77237 0.01879 0.98632 0.0
C1133 C 0.7928 0.01042 0.99404 0.0
C1134 C 0.82498 0.03532 0.9974 0.0
C1135 C 0.83614 0.06798 0.99335 0.0
H1136 H 0.74639 0.80456 0.29679 0.0
H1137 H 0.75103 0.84569 0.33864 0.0
H1138 H 0.77746 0.77978 0.30551 0.0
H1139 H 0.78002 0.81852 0.34765 0.0
H1140 H 0.84879 0.77975 0.3585 0.0
H1141 H 0.82832 0.81396 0.34814 0.0
H1142 H 0.76552 0.73421 0.31986 0.0
H1143 H 0.7866 0.70078 0.32989 0.0
C1144 C 0.75441 0.80883 0.30782 0.0
C1145 C 0.74593 0.82717 0.317 0.0
C1146 C 0.7718 0.794 0.3129 0.0
C1147 C 0.78077 0.79653 0.32736 0.0
C1148 C 0.77365 0.81607 0.33643 0.0
C1149 C 0.75658 0.83132 0.33129 0.0
C1150 C 0.83083 0.76979 0.34997 0.0
C1151 C 0.81949 0.73769 0.34493 0.0
C1152 C 0.81898 0.78929 0.34407 0.0
C1153 C 0.79529 0.77698 0.33311 0.0
C1154 C 0.78432 0.74495 0.32802 0.0
C1155 C 0.79636 0.72566 0.3338 0.0
H1156 H 0.94285 0.76537 0.6316 0.0
H1157 H 0.90819 0.74162 0.67511 0.0
H1158 H 0.99842 0.8014 0.64024 0.0
H1159 H 0.96414 0.77644 0.68374 0.0
H1160 H 0.06677 0.85315 0.69628 0.0
H1161 H 0.01157 0.83112 0.68632 0.0
H1162 H 0.03842 0.79029 0.65092 0.0
H1163 H 0.09314 0.81215 0.66078 0.0
C1164 C 0.94691 0.76828 0.64302 0.0
C1165 C 0.92101 0.75032 0.65265 0.0
C1166 C 0.97892 0.78866 0.64797 0.0
C1167 C 0.98587 0.7915 0.66268 0.0
C1168 C 0.95969 0.775 0.67234 0.0
C1169 C 0.92763 0.75469 0.66739 0.0
C1170 C 0.06093 0.83978 0.68628 0.0
C1171 C 0.0844 0.83437 0.67936 0.0
C1172 C 0.02931 0.82713 0.68059 0.0
C1173 C 0.02047 0.80879 0.66785 0.0
C1174 C 0.04445 0.80474 0.66062 0.0
C1175 C 0.07597 0.81736 0.66629 0.0
H1176 H 0.65464 0.2195 0.96445 0.0
H1177 H 0.70238 0.2382 0.0056 0.0
H1178 H 0.60687 0.21777 0.97562 0.0
H1179 H 0.65508 0.23759 0.01669 0.0
H1180 H 0.54954 0.19739 0.03324 0.0
H1181 H 0.59724 0.19853 0.02224 0.0
H1182 H 0.59208 0.25544 0.98712 0.0
H1183 H 0.54459 0.25445 0.99811 0.0
C1184 C 0.65492 0.22321 0.97588 0.0
C1185 C 0.68229 0.229 0.98414 0.0
C1186 C 0.62771 0.22256 0.98225 0.0
C1187 C 0.62723 0.22759 0.99704 0.0
C1188 C 0.65458 0.23332 0.0053 0.0
C1189 C 0.68182 0.23405 0.99892 0.0
C1190 C 0.55877 0.21038 0.02323 0.0
C1191 C 0.5432 0.22573 0.01653 0.0
C1192 C 0.58607 0.21102 0.01693 0.0
C1193 C 0.59836 0.227 0.00379 0.0
C1194 C 0.58286 0.24245 0.99712 0.0
C1195 C 0.55563 0.24185 0.00342 0.0
H1196 H 0.33929 0.5692 0.36803 0.0
H1197 H 0.32252 0.51485 0.32864 0.0
H1198 H 0.38638 0.61644 0.35719 0.0
H1199 H 0.37073 0.56173 0.31818 0.0
H1200 H 0.48117 0.64508 0.31221 0.0
H1201 H 0.43522 0.59639 0.32329 0.0
H1202 H 0.39104 0.65434 0.33537 0.0
H1203 H 0.4366 0.70276 0.32415 0.0
C1204 C 0.34552 0.56722 0.35709 0.0
C1205 C 0.32676 0.53816 0.3492 0.0
C1206 C 0.37264 0.59425 0.35094 0.0
C1207 C 0.38201 0.59263 0.33687 0.0
C1208 C 0.36408 0.56341 0.3291 0.0
C1209 C 0.33657 0.53653 0.33515 0.0
C1210 C 0.46159 0.64728 0.31725 0.0
C1211 C 0.46224 0.6775 0.31732 0.0
C1212 C 0.43536 0.61952 0.32351 0.0
C1213 C 0.40978 0.62179 0.33019 0.0
C1214 C 0.41063 0.65209 0.33037 0.0
C1215 C 0.43649 0.67964 0.32388 0.0
H1216 H 0.82091 0.33773 0.67193 0.0
H1217 H 0.7277 0.3145 0.69087 0.0
H1218 H 0.82393 0.38571 0.66043 0.0
H1219 H 0.73032 0.36182 0.67882 0.0
H1220 H 0.73242 0.4265 0.64065 0.0
H1221 H 0.73006 0.37881 0.65242 0.0
H1222 H 0.82825 0.44056 0.66875 0.0
H1223 H 0.83049 0.48834 0.65706 0.0
C1224 C 0.80118 0.34291 0.67376 0.0
C1225 C 0.77408 0.32217 0.6824 0.0
C1226 C 0.80289 0.37033 0.6671 0.0
C1227 C 0.77734 0.37734 0.66873 0.0
C1228 C 0.75018 0.35668 0.67727 0.0
C1229 C 0.74865 0.32951 0.68411 0.0
C1230 C 0.75354 0.42976 0.64667 0.0
C1231 C 0.78166 0.46097 0.64795 0.0
C1232 C 0.75209 0.40261 0.65348 0.0
C1233 C 0.77895 0.40611 0.66149 0.0
C1234 C 0.80729 0.43724 0.66258 0.0
C1235 C 0.80852 0.46451 0.65596 0.0
H1236 H 0.35254 0.83656 0.98412 0.0
H1237 H 0.30174 0.73048 0.98246 0.0
H1238 H 0.3988 0.83676 0.99626 0.0
H1239 H 0.34811 0.73071 0.99426 0.0
H1240 H 0.42025 0.74223 0.02944 0.0
H1241 H 0.37452 0.74407 0.01806 0.0
H1242 H 0.44265 0.82309 0.99081 0.0
H1243 H 0.48847 0.82104 0.00206 0.0
C1244 C 0.35128 0.81333 0.98636 0.0
C1245 C 0.32359 0.78351 0.98231 0.0
C1246 C 0.37783 0.81345 0.99319 0.0
C1247 C 0.37703 0.78375 0.99623 0.0
C1248 C 0.34929 0.75397 0.9922 0.0
C1249 C 0.32291 0.75386 0.9853 0.0
C1250 C 0.42549 0.75986 0.02096 0.0
C1251 C 0.45802 0.78136 0.01661 0.0
C1252 C 0.39929 0.76094 0.01446 0.0
C1253 C 0.40501 0.78363 0.00351 0.0
C1254 C 0.43753 0.80558 0.99934 0.0
C1255 C 0.46376 0.80442 0.0058 0.0
H1256 H 0.56732 0.33843 0.29799 0.0
H1257 H 0.51531 0.31268 0.33829 0.0
H1258 H 0.61349 0.38498 0.3092 0.0
H1259 H 0.56008 0.36132 0.34913 0.0
H1260 H 0.65979 0.42797 0.36894 0.0
H1261 H 0.61263 0.38222 0.3578 0.0
H1262 H 0.63459 0.43702 0.3183 0.0
H1263 H 0.68375 0.48127 0.32898 0.0
C1264 C 0.56554 0.3427 0.30923 0.0
C1265 C 0.53751 0.3213 0.31722 0.0
C1266 C 0.59193 0.36998 0.31563 0.0
C1267 C 0.59079 0.37717 0.33014 0.0
C1268 C 0.56231 0.35637 0.33802 0.0
C1269 C 0.5362 0.32865 0.33169 0.0
C1270 C 0.655 0.43014 0.3578 0.0
C1271 C 0.67608 0.45844 0.34988 0.0
C1272 C 0.62739 0.40399 0.35145 0.0
C1273 C 0.61955 0.40565 0.33708 0.0
C1274 C 0.64003 0.43438 0.3293 0.0
C1275 C 0.66807 0.46021 0.33555 0.0
H1276 H 0.22222 0.527 0.66932 0.0
H1277 H 0.20769 0.55646 0.62738 0.0
H1278 H 0.21905 0.57271 0.67988 0.0
H1279 H 0.20647 0.60325 0.63804 0.0
H1280 H 0.25244 0.70343 0.66397 0.0
H1281 H 0.25128 0.65575 0.65272 0.0
H1282 H 0.17349 0.59117 0.68131 0.0
H1283 H 0.17423 0.63888 0.6924 0.0
C1284 C 0.21802 0.54289 0.66233 0.0
C1285 C 0.21514 0.5378 0.64745 0.0
C1286 C 0.21642 0.56919 0.66841 0.0
C1287 C 0.21255 0.59136 0.65975 0.0
C1288 C 0.20972 0.58653 0.64491 0.0
C1289 C 0.21067 0.55985 0.63883 0.0
C1290 C 0.23507 0.67901 0.66779 0.0
C1291 C 0.21346 0.67467 0.67903 0.0
C1292 C 0.23428 0.65183 0.66132 0.0
C1293 C 0.2123 0.61994 0.66618 0.0
C1294 C 0.1907 0.61559 0.67743 0.0
C1295 C 0.19103 0.64274 0.68371 0.0
H1296 H 0.40038 0.16421 0.12752 0.0
H1297 H 0.36783 0.2346 0.13385 0.0
H1298 H 0.39935 0.15592 0.15324 0.0
H1299 H 0.36805 0.22725 0.15963 0.0
H1300 H 0.3397 0.18025 0.20402 0.0
H1301 H 0.33862 0.18668 0.1782 0.0
H1302 H 0.42982 0.18573 0.17435 0.0
H1303 H 0.43085 0.17922 0.20013 0.0
C1304 C 0.39286 0.17781 0.13439 0.0
C1305 C 0.38415 0.20005 0.12862 0.0
C1306 C 0.39266 0.17335 0.14915 0.0
C1307 C 0.38373 0.191 0.1585 0.0
C1308 C 0.37476 0.21305 0.15272 0.0
C1309 C 0.375 0.21753 0.13796 0.0
C1310 C 0.35962 0.18162 0.19766 0.0
C1311 C 0.38535 0.1792 0.20413 0.0
C1312 C 0.35901 0.18532 0.18287 0.0
C1313 C 0.38413 0.18671 0.17421 0.0
C1314 C 0.40981 0.1842 0.18068 0.0
C1315 C 0.4104 0.18048 0.19546 0.0
H1316 H 0.18693 0.34667 0.46042 0.0
H1317 H 0.17334 0.43052 0.46533 0.0
H1318 H 0.19343 0.34501 0.48618 0.0
H1319 H 0.1804 0.42931 0.4911 0.0
H1320 H 0.16364 0.39886 0.53784 0.0
H1321 H 0.15456 0.39809 0.51221 0.0
H1322 H 0.23177 0.37521 0.5048 0.0
H1323 H 0.23962 0.37421 0.53045 0.0
C1324 C 0.18556 0.36489 0.46701 0.0
C1325 C 0.1797 0.38876 0.46086 0.0
C1326 C 0.18936 0.364 0.48178 0.0
C1327 C 0.18758 0.3871 0.49073 0.0
C1328 C 0.18144 0.41083 0.48456 0.0
C1329 C 0.17744 0.41158 0.46979 0.0
C1330 C 0.17836 0.39318 0.53076 0.0
C1331 C 0.20232 0.38651 0.53624 0.0
C1332 C 0.17345 0.39319 0.51604 0.0
C1333 C 0.19247 0.38666 0.50642 0.0
C1334 C 0.21639 0.37995 0.51189 0.0
C1335 C 0.22121 0.37981 0.52662 0.0
H1336 H 0.80446 0.24296 0.86976 0.0
H1337 H 0.83671 0.17138 0.8706 0.0
H1338 H 0.79631 0.23565 0.84411 0.0
H1339 H 0.82622 0.1623 0.84514 0.0
H1340 H 0.83523 0.17649 0.79713 0.0
H1341 H 0.8458 0.18603 0.82256 0.0
H1342 H 0.76066 0.19791 0.82693 0.0
H1343 H 0.75152 0.19078 0.80131 0.0
C1344 C 0.80993 0.22572 0.8645 0.0
C1345 C 0.8213 0.2078 0.87232 0.0
C1346 C 0.8047 0.2211 0.84978 0.0
C1347 C 0.81035 0.19819 0.84251 0.0
C1348 C 0.82191 0.18042 0.85031 0.0
C1349 C 0.82749 0.18529 0.865 0.0
C1350 C 0.81899 0.18159 0.80346 0.0
C1351 C 0.7926 0.18303 0.79709 0.0
C1352 C 0.82479 0.1866 0.81813 0.0
C1353 C 0.80412 0.19278 0.82687 0.0
C1354 C 0.77744 0.19374 0.82053 0.0
C1355 C 0.77185 0.18909 0.80583 0.0
H1356 H 0.61792 0.75951 0.13588 0.0
H1357 H 0.60771 0.84467 0.12815 0.0
H1358 H 0.61796 0.76827 0.16152 0.0
H1359 H 0.60922 0.85428 0.15379 0.0
H1360 H 0.57456 0.83738 0.20065 0.0
H1361 H 0.57549 0.83037 0.17486 0.0
H1362 H 0.65213 0.80577 0.18 0.0
H1363 H 0.65096 0.8125 0.20576 0.0
C1364 C 0.6157 0.78011 0.13965 0.0
C1365 C 0.61275 0.80134 0.12996 0.0
C1366 C 0.61613 0.78538 0.15435 0.0
C1367 C 0.61368 0.81204 0.15971 0.0
C1368 C 0.61084 0.83334 0.15002 0.0
C1369 C 0.61038 0.82805 0.13531 0.0
C1370 C 0.59184 0.83082 0.19624 0.0
C1371 C 0.61257 0.82534 0.20523 0.0
C1372 C 0.5924 0.82682 0.18146 0.0
C1373 C 0.61378 0.81735 0.17537 0.0
C1374 C 0.63492 0.81246 0.18437 0.0
C1375 C 0.63429 0.81636 0.19912 0.0
H1376 H 0.75419 0.56926 0.53358 0.0
H1377 H 0.83643 0.66842 0.53575 0.0
H1378 H 0.76174 0.56881 0.50784 0.0
H1379 H 0.84456 0.6676 0.51002 0.0
H1380 H 0.82613 0.66482 0.46156 0.0
H1381 H 0.81747 0.66632 0.48721 0.0
H1382 H 0.80223 0.56807 0.49139 0.0
H1383 H 0.81001 0.56624 0.46572 0.0
C1384 C 0.77374 0.59105 0.52855 0.0
C1385 C 0.7947 0.61889 0.53671 0.0
C1386 C 0.7783 0.59064 0.51382 0.0
C1387 C 0.80385 0.61811 0.50691 0.0
C1388 C 0.82452 0.64614 0.51503 0.0
C1389 C 0.82005 0.64649 0.52978 0.0
C1390 C 0.82073 0.64349 0.46795 0.0
C1391 C 0.81874 0.61541 0.46162 0.0
C1392 C 0.81607 0.64446 0.48265 0.0
C1393 C 0.80912 0.6173 0.49132 0.0
C1394 C 0.8072 0.58926 0.48498 0.0
C1395 C 0.81203 0.58835 0.4703 0.0
H1396 H 0.16818 0.73834 0.8651 0.0
H1397 H 0.18828 0.83826 0.86926 0.0
H1398 H 0.17533 0.74543 0.83928 0.0
H1399 H 0.1948 0.84526 0.84345 0.0
H1400 H 0.24035 0.85825 0.79931 0.0
H1401 H 0.23222 0.85035 0.82498 0.0
H1402 H 0.15098 0.75211 0.81797 0.0
H1403 H 0.16029 0.75937 0.79231 0.0
C1404 C 0.1737 0.76168 0.86045 0.0
C1405 C 0.17778 0.78778 0.86919 0.0
C1406 C 0.17775 0.76576 0.84566 0.0
C1407 C 0.18576 0.79597 0.83927 0.0
C1408 C 0.18928 0.82188 0.84802 0.0
C1409 C 0.18546 0.81786 0.86281 0.0
C1410 C 0.22101 0.83481 0.80324 0.0
C1411 C 0.20105 0.80942 0.79372 0.0
C1412 C 0.21603 0.83043 0.81797 0.0
C1413 C 0.19087 0.80062 0.82357 0.0
C1414 C 0.17082 0.77527 0.81405 0.0
C1415 C 0.17589 0.77959 0.79931 0.0
H1416 H 0.57734 0.58151 0.05453 0.0
H1417 H 0.50665 0.58472 0.02603 0.0
H1418 H 0.54575 0.52157 0.05426 0.0
H1419 H 0.475 0.52487 0.02581 0.0
H1420 H 0.44544 0.41692 0.01789 0.0
H1421 H 0.47675 0.47683 0.01761 0.0
H1422 H 0.49372 0.47739 0.063 0.0
H1423 H 0.46369 0.41756 0.06316 0.0
C1424 C 0.55504 0.56941 0.04822 0.0
C1425 C 0.54456 0.58787 0.04028 0.0
C1426 C 0.53687 0.53507 0.0481 0.0
C1427 C 0.50773 0.51841 0.04008 0.0
C1428 C 0.49753 0.5369 0.03196 0.0
C1429 C 0.51573 0.57122 0.03206 0.0
C1430 C 0.45591 0.42984 0.0278 0.0
C1431 C 0.4521 0.41241 0.04054 0.0
C1432 C 0.47363 0.46419 0.02767 0.0
C1433 C 0.48794 0.48192 0.04027 0.0
C1434 C 0.48346 0.46449 0.05306 0.0
C1435 C 0.46578 0.43017 0.05319 0.0
H1436 H 0.98846 0.56752 0.38917 0.0
H1437 H 0.94319 0.52828 0.34822 0.0
H1438 H 0.01743 0.53669 0.38771 0.0
H1439 H 0.97319 0.49836 0.34662 0.0
H1440 H 0.06229 0.47885 0.34499 0.0
H1441 H 0.03259 0.5094 0.34514 0.0
H1442 H 0.99913 0.47555 0.38805 0.0
H1443 H 0.02879 0.44514 0.38791 0.0
C1444 C 0.98468 0.5524 0.37985 0.0
C1445 C 0.96318 0.55021 0.36888 0.0
C1446 C 0.00134 0.53478 0.37901 0.0
C1447 C 0.99726 0.51488 0.36712 0.0
C1448 C 0.97686 0.51363 0.35588 0.0
C1449 C 0.95985 0.53097 0.35678 0.0
C1450 C 0.04836 0.47778 0.35439 0.0
C1451 C 0.04778 0.4596 0.36643 0.0
C1452 C 0.03131 0.49513 0.35446 0.0
C1453 C 0.01382 0.49504 0.36665 0.0
C1454 C 0.01273 0.47634 0.37857 0.0
C1455 C 0.02938 0.45865 0.37843 0.0
H1456 H 0.58273 0.00249 0.72051 0.0
H1457 H 0.58299 0.06557 0.68683 0.0
H1458 H 0.52306 0.97119 0.7197 0.0
H1459 H 0.5234 0.03286 0.68536 0.0
H1460 H 0.41552 0.99116 0.69765 0.0
H1461 H 0.47538 0.02245 0.69805 0.0
H1462 H 0.47783 0.93309 0.70611 0.0
H1463 H 0.41826 0.90231 0.7067 0.0
C1464 C 0.57012 0.00958 0.71285 0.0
C1465 C 0.58784 0.0367 0.70377 0.0
C1466 C 0.53581 0.99131 0.71226 0.0
C1467 C 0.51824 0.99943 0.70247 0.0
C1468 C 0.53599 0.02613 0.69318 0.0
C1469 C 0.57031 0.04459 0.69386 0.0
C1470 C 0.42881 0.97824 0.69965 0.0
C1471 C 0.41188 0.94413 0.70212 0.0
C1472 C 0.46322 0.99613 0.69968 0.0
C1473 C 0.48159 0.98036 0.70209 0.0
C1474 C 0.46462 0.94622 0.7044 0.0
C1475 C 0.4303 0.92842 0.70451 0.0
H1476 H 0.58463 0.58244 0.61831 0.0
H1477 H 0.58371 0.49872 0.63799 0.0
H1478 H 0.52464 0.5522 0.61765 0.0
H1479 H 0.52385 0.46883 0.6375 0.0
H1480 H 0.41627 0.44002 0.6472 0.0
H1481 H 0.4763 0.47012 0.64831 0.0
H1482 H 0.48043 0.50376 0.60502 0.0
H1483 H 0.42047 0.47427 0.60402 0.0
C1484 C 0.57168 0.55761 0.62248 0.0
C1485 C 0.58906 0.54308 0.62823 0.0
C1486 C 0.53732 0.54029 0.62209 0.0
C1487 C 0.51954 0.5081 0.62749 0.0
C1488 C 0.53685 0.49374 0.63342 0.0
C1489 C 0.57119 0.51097 0.63375 0.0
C1490 C 0.43004 0.45385 0.63794 0.0
C1491 C 0.41367 0.45473 0.62552 0.0
C1492 C 0.46438 0.47091 0.63854 0.0
C1493 C 0.48308 0.48942 0.62677 0.0
C1494 C 0.46669 0.49002 0.61431 0.0
C1495 C 0.43237 0.47279 0.61368 0.0
H1496 H 0.07412 0.5825 0.98396 0.0
H1497 H 0.01404 0.58355 0.94923 0.0
H1498 H 0.04272 0.5226 0.98426 0.0
H1499 H 0.98175 0.52379 0.94996 0.0
H1500 H 0.95986 0.41925 0.94244 0.0
H1501 H 0.99031 0.47893 0.94342 0.0
H1502 H 0.98961 0.47509 0.98953 0.0
H1503 H 0.96036 0.41513 0.98855 0.0
C1504 C 0.054 0.56996 0.97649 0.0
C1505 C 0.04678 0.58783 0.9665 0.0
C1506 C 0.0358 0.53563 0.97675 0.0
C1507 C 0.00993 0.51837 0.96703 0.0
C1508 C 0.00191 0.5363 0.95742 0.0
C1509 C 0.02012 0.57061 0.95714 0.0
C1510 C 0.96668 0.43105 0.9528 0.0
C1511 C 0.95777 0.41232 0.96542 0.0
C1512 C 0.98367 0.46534 0.95336 0.0
C1513 C 0.99211 0.48183 0.96655 0.0
C1514 C 0.98362 0.46316 0.97919 0.0
C1515 C 0.96662 0.4288 0.97863 0.0
H1516 H 0.55427 0.97374 0.27811 0.0
H1517 H 0.52 0.93989 0.32095 0.0
H1518 H 0.52326 0.00281 0.27781 0.0
H1519 H 0.48887 0.96899 0.32063 0.0
H1520 H 0.46803 0.05693 0.31738 0.0
H1521 H 0.49894 0.02796 0.31911 0.0
H1522 H 0.46191 0.98366 0.2779 0.0
H1523 H 0.43008 0.0116 0.27631 0.0
C1524 C 0.54053 0.97297 0.28754 0.0
C1525 C 0.53957 0.95461 0.29956 0.0
C1526 C 0.5225 0.98927 0.28731 0.0
C1527 C 0.50344 0.98788 0.29915 0.0
C1528 C 0.50339 0.9705 0.31137 0.0
C1529 C 0.52109 0.9538 0.31153 0.0
C1530 C 0.46584 0.04047 0.30882 0.0
C1531 C 0.44663 0.0368 0.29666 0.0
C1532 C 0.48375 0.02405 0.30978 0.0
C1533 C 0.48314 0.00393 0.29856 0.0
C1534 C 0.46332 0.99956 0.28659 0.0
C1535 C 0.44513 0.01561 0.28569 0.0
loop_
_geom_bond_atom_site_label_1
_geom_bond_atom_site_label_2
_geom_bond_distance
_geom_bond_site_symmetry_2
_ccdc_geom_bond_type
Li0 N17 1.990 . S
Li0 O60 1.956 . S
Li0 O61 1.970 . S
Li0 O62 1.961 . S
Li1 N25 1.990 . S
Li1 O60 1.970 . S
Li1 O61 1.956 . S
Li1 O63 1.961 . S
Li2 N47 1.990 . S
Li2 O60 1.961 . S
Li2 O62 1.956 . S
Li2 O63 1.970 . S
Li3 N53 1.990 . S
Li3 O61 1.961 . S
Li3 O62 1.970 . S
Li3 O63 1.956 . S
C4 C6 1.348 . S
C4 C7 1.356 . S
C4 O60 1.325 . S
N5 C8 1.314 . S
N5 C9 1.279 . S
C6 C4 1.348 . S
C6 C8 1.353 . S
C6 H64 0.929 . S
C7 C4 1.356 . S
C7 C9 1.358 . S
C7 H65 0.930 . S
C8 N5 1.314 . S
C8 C6 1.353 . S
C8 H66 0.930 . S
C9 N5 1.279 . S
C9 C7 1.358 . S
C9 H67 0.930 . S
C10 C13 1.348 . S
C10 C14 1.356 . S
C10 O61 1.325 . S
C11 N12 1.279 . S
C11 C14 1.358 . S
C11 H68 0.930 . S
N12 C11 1.279 . S
N12 C15 1.314 . S
C13 C10 1.348 . S
C13 C15 1.353 . S
C13 H69 0.929 . S
C14 C10 1.356 . S
C14 C11 1.358 . S
C14 H70 0.930 . S
C15 N12 1.314 . S
C15 C13 1.353 . S
C15 H71 0.930 . S
C16 N17 1.314 . S
C16 C21 1.353 . S
C16 H22 0.930 . S
N17 Li0 1.990 . S
N17 C16 1.314 . S
N17 C19 1.279 . S
C18 C19 1.358 . S
C18 C20 1.356 . S
C18 H72 0.930 . S
C19 N17 1.279 . S
C19 C18 1.358 . S
C19 H23 0.930 . S
C20 C18 1.356 . S
C20 C21 1.348 . S
C21 C16 1.353 . S
C21 C20 1.348 . S
C21 H73 0.929 . S
H22 C16 0.930 . S
H23 C19 0.930 . S
C24 N25 1.314 . S
C24 C26 1.353 . S
C24 H30 0.930 . S
N25 Li1 1.990 . S
N25 C24 1.314 . S
N25 C28 1.279 . S
C26 C24 1.353 . S
C26 C29 1.348 . S
C26 H74 0.929 1_554 S
C27 C28 1.358 . S
C27 C29 1.356 . S
C27 H75 0.930 . S
C28 N25 1.279 . S
C28 C27 1.358 . S
C28 H31 0.930 . S
C29 C26 1.348 . S
C29 C27 1.356 . S
H30 C24 0.930 . S
H31 C28 0.930 . S
C32 C34 1.348 . S
C32 C35 1.356 . S
C32 O62 1.325 . S
N33 C36 1.314 . S
N33 C37 1.279 . S
C34 C32 1.348 . S
C34 C36 1.353 . S
C34 H76 0.929 . S
C35 C32 1.356 . S
C35 C37 1.358 . S
C35 H77 0.930 . S
C36 N33 1.314 . S
C36 C34 1.353 . S
C36 H78 0.930 . S
C37 N33 1.279 . S
C37 C35 1.358 . S
C37 H79 0.930 . S
C38 C39 1.348 . S
C38 C40 1.356 . S
C38 O63 1.325 . S
C39 C38 1.348 . S
C39 C41 1.353 1_554 S
C39 H80 0.929 . S
C40 C38 1.356 . S
C40 C42 1.358 1_554 S
C40 H81 0.930 . S
C41 C39 1.353 1_556 S
C41 N43 1.314 . S
C41 H82 0.930 . S
C42 C40 1.358 1_556 S
C42 N43 1.279 . S
C42 H83 0.930 . S
N43 C41 1.314 . S
N43 C42 1.279 . S
C44 C46 1.353 . S
C44 N47 1.314 . S
C44 H50 0.930 . S
C45 N47 1.279 . S
C45 C48 1.358 . S
C45 H51 0.930 . S
C46 C44 1.353 . S
C46 C49 1.348 . S
C46 H84 0.929 . S
N47 Li2 1.990 . S
N47 C44 1.314 . S
N47 C45 1.279 . S
C48 C45 1.358 . S
C48 C49 1.356 . S
C48 H85 0.930 . S
C49 C46 1.348 . S
C49 C48 1.356 . S
H50 C44 0.930 . S
H51 C45 0.930 . S
C52 N53 1.314 . S
C52 C54 1.353 . S
C52 H58 0.930 . S
N53 Li3 1.990 . S
N53 C52 1.314 . S
N53 C56 1.279 . S
C54 C52 1.353 . S
C54 C57 1.348 . S
C54 H86 0.929 . S
C55 C56 1.358 . S
C55 C57 1.356 . S
C55 H87 0.930 . S
C56 N53 1.279 . S
C56 C55 1.358 . S
C56 H59 0.930 . S
C57 C54 1.348 . S
C57 C55 1.356 . S
H58 C52 0.930 . S
H59 C56 0.930 . S
O60 Li0 1.956 . S
O60 Li1 1.970 . S
O60 Li2 1.961 . S
O60 C4 1.325 . S
O61 Li0 1.970 . S
O61 Li1 1.956 . S
O61 Li3 1.961 . S
O61 C10 1.325 . S
O62 Li0 1.961 . S
O62 Li2 1.956 . S
O62 Li3 1.970 . S
O62 C32 1.325 . S
O63 Li1 1.961 . S
O63 Li2 1.970 . S
O63 Li3 1.956 . S
O63 C38 1.325 . S
H64 C6 0.929 . S
H65 C7 0.930 . S
H66 C8 0.930 . S
H67 C9 0.930 . S
H68 C11 0.930 . S
H69 C13 0.929 . S
H70 C14 0.930 . S
H71 C15 0.930 . S
H72 C18 0.930 . S
H73 C21 0.929 . S
H74 C26 0.929 1_556 S
H75 C27 0.930 . S
H76 C34 0.929 . S
H77 C35 0.930 . S
H78 C36 0.930 . S
H79 C37 0.930 . S
H80 C39 0.929 . S
H81 C40 0.930 . S
H82 C41 0.930 . S
H83 C42 0.930 . S
H84 C46 0.929 . S
H85 C48 0.930 . S
H86 C54 0.929 . S
H87 C55 0.930 . S
Li88 N105 1.990 . S
Li88 O148 1.956 . S
Li88 O149 1.970 . S
Li88 O150 1.961 . S
Li89 N113 1.990 . S
Li89 O148 1.970 . S
Li89 O149 1.956 . S
Li89 O151 1.961 . S
Li90 N135 1.990 . S
Li90 O148 1.961 . S
Li90 O150 1.956 . S
Li90 O151 1.970 . S
Li91 N141 1.990 . S
Li91 O149 1.961 . S
Li91 O150 1.970 . S
Li91 O151 1.956 . S
C92 C94 1.348 . S
C92 C95 1.356 . S
C92 O148 1.325 . S
N93 C96 1.314 . S
N93 C97 1.279 . S
C94 C92 1.348 . S
C94 C96 1.353 . S
C94 H152 0.929 . S
C95 C92 1.356 . S
C95 C97 1.358 . S
C95 H153 0.930 . S
C96 N93 1.314 . S
C96 C94 1.353 . S
C96 H154 0.930 . S
C97 N93 1.279 . S
C97 C95 1.358 . S
C97 H155 0.930 . S
C98 C101 1.348 . S
C98 C102 1.356 . S
C98 O149 1.325 . S
C99 N100 1.279 . S
C99 C102 1.358 . S
C99 H156 0.930 . S
N100 C99 1.279 . S
N100 C103 1.314 . S
C101 C98 1.348 . S
C101 C103 1.353 . S
C101 H157 0.929 . S
C102 C98 1.356 . S
C102 C99 1.358 . S
C102 H158 0.930 . S
C103 N100 1.314 . S
C103 C101 1.353 . S
C103 H159 0.930 . S
C104 N105 1.314 . S
C104 C109 1.353 . S
C104 H110 0.930 . S
N105 Li88 1.990 . S
N105 C104 1.314 . S
N105 C107 1.279 . S
C106 C107 1.358 . S
C106 C108 1.356 . S
C106 H160 0.930 . S
C107 N105 1.279 . S
C107 C106 1.358 . S
C107 H111 0.930 . S
C108 C106 1.356 . S
C108 C109 1.348 . S
C109 C104 1.353 . S
C109 C108 1.348 . S
C109 H161 0.929 . S
H110 C104 0.930 . S
H111 C107 0.930 . S
C112 N113 1.314 . S
C112 C114 1.353 . S
C112 H118 0.930 . S
N113 Li89 1.990 . S
N113 C112 1.314 . S
N113 C116 1.279 . S
C114 C112 1.353 . S
C114 C117 1.348 . S
C114 H162 0.929 . S
C115 C116 1.358 . S
C115 C117 1.356 . S
C115 H163 0.930 . S
C116 N113 1.279 . S
C116 C115 1.358 . S
C116 H119 0.930 . S
C117 C114 1.348 . S
C117 C115 1.356 . S
H118 C112 0.930 . S
H119 C116 0.930 . S
C120 C122 1.348 . S
C120 C123 1.356 . S
C120 O150 1.325 . S
N121 C124 1.314 . S
N121 C125 1.279 . S
C122 C120 1.348 . S
C122 C124 1.353 . S
C122 H164 0.929 . S
C123 C120 1.356 . S
C123 C125 1.358 . S
C123 H165 0.930 . S
C124 N121 1.314 . S
C124 C122 1.353 . S
C124 H166 0.930 . S
C125 N121 1.279 . S
C125 C123 1.358 . S
C125 H167 0.930 . S
C126 C127 1.348 . S
C126 C128 1.356 . S
C126 O151 1.325 . S
C127 C126 1.348 . S
C127 C129 1.353 . S
C127 H168 0.929 . S
C128 C126 1.356 . S
C128 C130 1.358 . S
C128 H169 0.930 . S
C129 C127 1.353 . S
C129 N131 1.314 . S
C129 H170 0.930 . S
C130 C128 1.358 . S
C130 N131 1.279 . S
C130 H171 0.930 . S
N131 C129 1.314 . S
N131 C130 1.279 . S
C132 C134 1.353 . S
C132 N135 1.314 . S
C132 H138 0.930 . S
C133 N135 1.279 . S
C133 C136 1.358 . S
C133 H139 0.930 . S
C134 C132 1.353 . S
C134 C137 1.348 . S
C134 H172 0.929 . S
N135 Li90 1.990 . S
N135 C132 1.314 . S
N135 C133 1.279 . S
C136 C133 1.358 . S
C136 C137 1.356 . S
C136 H173 0.930 . S
C137 C134 1.348 . S
C137 C136 1.356 . S
H138 C132 0.930 . S
H139 C133 0.930 . S
C140 N141 1.314 . S
C140 C142 1.353 . S
C140 H146 0.930 . S
N141 Li91 1.990 . S
N141 C140 1.314 . S
N141 C144 1.279 . S
C142 C140 1.353 . S
C142 C145 1.348 . S
C142 H174 0.929 . S
C143 C144 1.358 . S
C143 C145 1.356 . S
C143 H175 0.930 . S
C144 N141 1.279 . S
C144 C143 1.358 . S
C144 H147 0.930 . S
C145 C142 1.348 . S
C145 C143 1.356 . S
H146 C140 0.930 . S
H147 C144 0.930 . S
O148 Li88 1.956 . S
O148 Li89 1.970 . S
O148 Li90 1.961 . S
O148 C92 1.325 . S
O149 Li88 1.970 . S
O149 Li89 1.956 . S
O149 Li91 1.961 . S
O149 C98 1.325 . S
O150 Li88 1.961 . S
O150 Li90 1.956 . S
O150 Li91 1.970 . S
O150 C120 1.325 . S
O151 Li89 1.961 . S
O151 Li90 1.970 . S
O151 Li91 1.956 . S
O151 C126 1.325 . S
H152 C94 0.929 . S
H153 C95 0.930 . S
H154 C96 0.930 . S
H155 C97 0.930 . S
H156 C99 0.930 . S
H157 C101 0.929 . S
H158 C102 0.930 . S
H159 C103 0.930 . S
H160 C106 0.930 . S
H161 C109 0.929 . S
H162 C114 0.929 . S
H163 C115 0.930 . S
H164 C122 0.929 . S
H165 C123 0.930 . S
H166 C124 0.930 . S
H167 C125 0.930 . S
H168 C127 0.929 . S
H169 C128 0.930 . S
H170 C129 0.930 . S
H171 C130 0.930 . S
H172 C134 0.929 . S
H173 C136 0.930 . S
H174 C142 0.929 . S
H175 C143 0.930 . S
Li176 N193 1.990 . S
Li176 O236 1.956 . S
Li176 O237 1.970 . S
Li176 O238 1.961 . S
Li177 N201 1.990 . S
Li177 O236 1.970 . S
Li177 O237 1.956 . S
Li177 O239 1.961 . S
Li178 N223 1.990 . S
Li178 O236 1.961 . S
Li178 O238 1.956 . S
Li178 O239 1.970 . S
Li179 N229 1.990 . S
Li179 O237 1.961 . S
Li179 O238 1.970 . S
Li179 O239 1.956 . S
C180 C182 1.348 . S
C180 C183 1.356 . S
C180 O236 1.325 . S
N181 C184 1.314 . S
N181 C185 1.279 . S
C182 C180 1.348 . S
C182 C184 1.353 . S
C182 H240 0.929 . S
C183 C180 1.356 . S
C183 C185 1.358 . S
C183 H241 0.930 . S
C184 N181 1.314 . S
C184 C182 1.353 . S
C184 H242 0.930 . S
C185 N181 1.279 . S
C185 C183 1.358 . S
C185 H243 0.930 . S
C186 C189 1.348 . S
C186 C190 1.356 . S
C186 O237 1.325 . S
C187 N188 1.279 . S
C187 C190 1.358 . S
C187 H244 0.930 . S
N188 C187 1.279 . S
N188 C191 1.314 . S
C189 C186 1.348 . S
C189 C191 1.353 . S
C189 H245 0.929 . S
C190 C186 1.356 . S
C190 C187 1.358 . S
C190 H246 0.930 . S
C191 N188 1.314 . S
C191 C189 1.353 . S
C191 H247 0.930 . S
C192 N193 1.314 . S
C192 C197 1.353 . S
C192 H198 0.930 . S
N193 Li176 1.990 . S
N193 C192 1.314 . S
N193 C195 1.279 . S
C194 C195 1.358 . S
C194 C196 1.356 . S
C194 H248 0.930 . S
C195 N193 1.279 . S
C195 C194 1.358 . S
C195 H199 0.930 . S
C196 C194 1.356 . S
C196 C197 1.348 . S
C197 C192 1.353 . S
C197 C196 1.348 . S
C197 H249 0.929 . S
H198 C192 0.930 . S
H199 C195 0.930 . S
C200 N201 1.314 . S
C200 C202 1.353 . S
C200 H206 0.930 . S
N201 Li177 1.990 . S
N201 C200 1.314 . S
N201 C204 1.279 . S
C202 C200 1.353 . S
C202 C205 1.348 . S
C202 H250 0.929 . S
C203 C204 1.358 . S
C203 C205 1.356 . S
C203 H251 0.930 . S
C204 N201 1.279 . S
C204 C203 1.358 . S
C204 H207 0.930 . S
C205 C202 1.348 . S
C205 C203 1.356 . S
H206 C200 0.930 . S
H207 C204 0.930 . S
C208 C210 1.348 . S
C208 C211 1.356 . S
C208 O238 1.325 . S
N209 C212 1.314 . S
N209 C213 1.279 . S
C210 C208 1.348 . S
C210 C212 1.353 . S
C210 H252 0.929 . S
C211 C208 1.356 . S
C211 C213 1.358 . S
C211 H253 0.930 . S
C212 N209 1.314 . S
C212 C210 1.353 . S
C212 H254 0.930 . S
C213 N209 1.279 . S
C213 C211 1.358 . S
C213 H255 0.930 . S
C214 C215 1.348 . S
C214 C216 1.356 . S
C214 O239 1.325 . S
C215 C214 1.348 . S
C215 C217 1.353 . S
C215 H256 0.929 . S
C216 C214 1.356 . S
C216 C218 1.358 . S
C216 H257 0.930 . S
C217 C215 1.353 . S
C217 N219 1.314 . S
C217 H258 0.930 . S
C218 C216 1.358 . S
C218 N219 1.279 . S
C218 H259 0.930 . S
N219 C217 1.314 . S
N219 C218 1.279 . S
C220 C222 1.353 . S
C220 N223 1.314 . S
C220 H226 0.930 . S
C221 N223 1.279 . S
C221 C224 1.358 . S
C221 H227 0.930 . S
C222 C220 1.353 . S
C222 C225 1.348 . S
C222 H260 0.929 . S
N223 Li178 1.990 . S
N223 C220 1.314 . S
N223 C221 1.279 . S
C224 C221 1.358 . S
C224 C225 1.356 . S
C224 H261 0.930 . S
C225 C222 1.348 . S
C225 C224 1.356 . S
H226 C220 0.930 . S
H227 C221 0.930 . S
C228 N229 1.314 . S
C228 C230 1.353 . S
C228 H234 0.930 . S
N229 Li179 1.990 . S
N229 C228 1.314 . S
N229 C232 1.279 . S
C230 C228 1.353 . S
C230 C233 1.348 . S
C230 H262 0.929 . S
C231 C232 1.358 . S
C231 C233 1.356 . S
C231 H263 0.930 . S
C232 N229 1.279 . S
C232 C231 1.358 . S
C232 H235 0.930 . S
C233 C230 1.348 . S
C233 C231 1.356 . S
H234 C228 0.930 . S
H235 C232 0.930 . S
O236 Li176 1.956 . S
O236 Li177 1.970 . S
O236 Li178 1.961 . S
O236 C180 1.325 . S
O237 Li176 1.970 . S
O237 Li177 1.956 . S
O237 Li179 1.961 . S
O237 C186 1.325 . S
O238 Li176 1.961 . S
O238 Li178 1.956 . S
O238 Li179 1.970 . S
O238 C208 1.325 . S
O239 Li177 1.961 . S
O239 Li178 1.970 . S
O239 Li179 1.956 . S
O239 C214 1.325 . S
H240 C182 0.929 . S
H241 C183 0.930 . S
H242 C184 0.930 . S
H243 C185 0.930 . S
H244 C187 0.930 . S
H245 C189 0.929 . S
H246 C190 0.930 . S
H247 C191 0.930 . S
H248 C194 0.930 . S
H249 C197 0.929 . S
H250 C202 0.929 . S
H251 C203 0.930 . S
H252 C210 0.929 . S
H253 C211 0.930 . S
H254 C212 0.930 . S
H255 C213 0.930 . S
H256 C215 0.929 . S
H257 C216 0.930 . S
H258 C217 0.930 . S
H259 C218 0.930 . S
H260 C222 0.929 . S
H261 C224 0.930 . S
H262 C230 0.929 . S
H263 C231 0.930 . S
Li264 N281 1.990 . S
Li264 O324 1.956 . S
Li264 O325 1.970 . S
Li264 O326 1.961 . S
Li265 N289 1.990 . S
Li265 O324 1.970 . S
Li265 O325 1.956 . S
Li265 O327 1.961 . S
Li266 N311 1.990 . S
Li266 O324 1.961 . S
Li266 O326 1.956 . S
Li266 O327 1.970 . S
Li267 N317 1.990 . S
Li267 O325 1.961 . S
Li267 O326 1.970 . S
Li267 O327 1.956 . S
C268 C270 1.348 . S
C268 C271 1.356 . S
C268 O324 1.325 . S
N269 C272 1.314 . S
N269 C273 1.279 . S
C270 C268 1.348 . S
C270 C272 1.353 . S
C270 H328 0.929 . S
C271 C268 1.356 . S
C271 C273 1.358 . S
C271 H329 0.930 . S
C272 N269 1.314 . S
C272 C270 1.353 . S
C272 H330 0.930 . S
C273 N269 1.279 . S
C273 C271 1.358 . S
C273 H331 0.930 . S
C274 C277 1.348 . S
C274 C278 1.356 . S
C274 O325 1.325 . S
C275 N276 1.279 . S
C275 C278 1.358 . S
C275 H332 0.930 . S
N276 C275 1.279 . S
N276 C279 1.314 . S
C277 C274 1.348 . S
C277 C279 1.353 . S
C277 H333 0.929 . S
C278 C274 1.356 . S
C278 C275 1.358 . S
C278 H334 0.930 . S
C279 N276 1.314 . S
C279 C277 1.353 . S
C279 H335 0.930 . S
C280 N281 1.314 . S
C280 C285 1.353 . S
C280 H286 0.930 . S
N281 Li264 1.990 . S
N281 C280 1.314 . S
N281 C283 1.279 . S
C282 C283 1.358 . S
C282 C284 1.356 . S
C282 H336 0.930 . S
C283 N281 1.279 . S
C283 C282 1.358 . S
C283 H287 0.930 . S
C284 C282 1.356 . S
C284 C285 1.348 . S
C285 C280 1.353 . S
C285 C284 1.348 . S
C285 H337 0.929 1_554 S
H286 C280 0.930 . S
H287 C283 0.930 . S
C288 N289 1.314 . S
C288 C290 1.353 . S
C288 H294 0.930 . S
N289 Li265 1.990 . S
N289 C288 1.314 . S
N289 C292 1.279 . S
C290 C288 1.353 . S
C290 C293 1.348 . S
C290 H338 0.929 . S
C291 C292 1.358 . S
C291 C293 1.356 . S
C291 H339 0.930 . S
C292 N289 1.279 . S
C292 C291 1.358 . S
C292 H295 0.930 . S
C293 C290 1.348 . S
C293 C291 1.356 . S
H294 C288 0.930 . S
H295 C292 0.930 . S
C296 C298 1.348 . S
C296 C299 1.356 . S
C296 O326 1.325 . S
N297 C300 1.314 . S
N297 C301 1.279 . S
C298 C296 1.348 . S
C298 C300 1.353 1_554 S
C298 H340 0.929 . S
C299 C296 1.356 . S
C299 C301 1.358 1_554 S
C299 H341 0.930 . S
C300 N297 1.314 . S
C300 C298 1.353 1_556 S
C300 H342 0.930 . S
C301 N297 1.279 . S
C301 C299 1.358 1_556 S
C301 H343 0.930 . S
C302 C303 1.348 . S
C302 C304 1.356 . S
C302 O327 1.325 . S
C303 C302 1.348 . S
C303 C305 1.353 . S
C303 H344 0.929 . S
C304 C302 1.356 . S
C304 C306 1.358 . S
C304 H345 0.930 . S
C305 C303 1.353 . S
C305 N307 1.314 . S
C305 H346 0.930 . S
C306 C304 1.358 . S
C306 N307 1.279 . S
C306 H347 0.930 . S
N307 C305 1.314 . S
N307 C306 1.279 . S
C308 C310 1.353 . S
C308 N311 1.314 . S
C308 H314 0.930 . S
C309 N311 1.279 . S
C309 C312 1.358 . S
C309 H315 0.930 . S
C310 C308 1.353 . S
C310 C313 1.348 . S
C310 H348 0.929 . S
N311 Li266 1.990 . S
N311 C308 1.314 . S
N311 C309 1.279 . S
C312 C309 1.358 . S
C312 C313 1.356 . S
C312 H349 0.930 . S
C313 C310 1.348 . S
C313 C312 1.356 . S
H314 C308 0.930 . S
H315 C309 0.930 . S
C316 N317 1.314 . S
C316 C318 1.353 . S
C316 H322 0.930 . S
N317 Li267 1.990 . S
N317 C316 1.314 . S
N317 C320 1.279 . S
C318 C316 1.353 . S
C318 C321 1.348 . S
C318 H350 0.929 . S
C319 C320 1.358 . S
C319 C321 1.356 . S
C319 H351 0.930 . S
C320 N317 1.279 . S
C320 C319 1.358 . S
C320 H323 0.930 . S
C321 C318 1.348 . S
C321 C319 1.356 . S
H322 C316 0.930 . S
H323 C320 0.930 . S
O324 Li264 1.956 . S
O324 Li265 1.970 . S
O324 Li266 1.961 . S
O324 C268 1.325 . S
O325 Li264 1.970 . S
O325 Li265 1.956 . S
O325 Li267 1.961 . S
O325 C274 1.325 . S
O326 Li264 1.961 . S
O326 Li266 1.956 . S
O326 Li267 1.970 . S
O326 C296 1.325 . S
O327 Li265 1.961 . S
O327 Li266 1.970 . S
O327 Li267 1.956 . S
O327 C302 1.325 . S
H328 C270 0.929 . S
H329 C271 0.930 . S
H330 C272 0.930 . S
H331 C273 0.930 . S
H332 C275 0.930 . S
H333 C277 0.929 . S
H334 C278 0.930 . S
H335 C279 0.930 . S
H336 C282 0.930 . S
H337 C285 0.929 1_556 S
H338 C290 0.929 . S
H339 C291 0.930 . S
H340 C298 0.929 . S
H341 C299 0.930 . S
H342 C300 0.930 . S
H343 C301 0.930 . S
H344 C303 0.929 . S
H345 C304 0.930 . S
H346 C305 0.930 . S
H347 C306 0.930 . S
H348 C310 0.929 . S
H349 C312 0.930 . S
H350 C318 0.929 . S
H351 C319 0.930 . S
Li352 N369 1.990 . S
Li352 O412 1.956 . S
Li352 O413 1.970 . S
Li352 O414 1.961 . S
Li353 N377 1.990 . S
Li353 O412 1.970 . S
Li353 O413 1.956 . S
Li353 O415 1.961 . S
Li354 N399 1.990 . S
Li354 O412 1.961 . S
Li354 O414 1.956 . S
Li354 O415 1.970 . S
Li355 N405 1.990 . S
Li355 O413 1.961 . S
Li355 O414 1.970 . S
Li355 O415 1.956 . S
C356 C358 1.348 . S
C356 C359 1.356 . S
C356 O412 1.325 . S
N357 C360 1.314 . S
N357 C361 1.279 . S
C358 C356 1.348 . S
C358 C360 1.353 . S
C358 H416 0.929 . S
C359 C356 1.356 . S
C359 C361 1.358 . S
C359 H417 0.930 . S
C360 N357 1.314 . S
C360 C358 1.353 . S
C360 H418 0.930 . S
C361 N357 1.279 . S
C361 C359 1.358 . S
C361 H419 0.930 . S
C362 C365 1.348 . S
C362 C366 1.356 . S
C362 O413 1.325 . S
C363 N364 1.279 . S
C363 C366 1.358 . S
C363 H420 0.930 . S
N364 C363 1.279 . S
N364 C367 1.314 . S
C365 C362 1.348 . S
C365 C367 1.353 . S
C365 H421 0.929 . S
C366 C362 1.356 . S
C366 C363 1.358 . S
C366 H422 0.930 . S
C367 N364 1.314 . S
C367 C365 1.353 . S
C367 H423 0.930 . S
C368 N369 1.314 . S
C368 C373 1.353 . S
C368 H374 0.930 . S
N369 Li352 1.990 . S
N369 C368 1.314 . S
N369 C371 1.279 . S
C370 C371 1.358 . S
C370 C372 1.356 . S
C370 H424 0.930 . S
C371 N369 1.279 . S
C371 C370 1.358 . S
C371 H375 0.930 . S
C372 C370 1.356 . S
C372 C373 1.348 . S
C373 C368 1.353 . S
C373 C372 1.348 . S
C373 H425 0.929 . S
H374 C368 0.930 . S
H375 C371 0.930 . S
C376 N377 1.314 . S
C376 C378 1.353 . S
C376 H382 0.930 . S
N377 Li353 1.990 . S
N377 C376 1.314 . S
N377 C380 1.279 . S
C378 C376 1.353 . S
C378 C381 1.348 . S
C378 H426 0.929 . S
C379 C380 1.358 . S
C379 C381 1.356 . S
C379 H427 0.930 . S
C380 N377 1.279 . S
C380 C379 1.358 . S
C380 H383 0.930 . S
C381 C378 1.348 . S
C381 C379 1.356 . S
H382 C376 0.930 . S
H383 C380 0.930 . S
C384 C386 1.348 . S
C384 C387 1.356 . S
C384 O414 1.325 . S
N385 C388 1.314 . S
N385 C389 1.279 . S
C386 C384 1.348 . S
C386 C388 1.353 . S
C386 H428 0.929 . S
C387 C384 1.356 . S
C387 C389 1.358 . S
C387 H429 0.930 . S
C388 N385 1.314 . S
C388 C386 1.353 . S
C388 H430 0.930 . S
C389 N385 1.279 . S
C389 C387 1.358 . S
C389 H431 0.930 . S
C390 C391 1.348 . S
C390 C392 1.356 . S
C390 O415 1.325 . S
C391 C390 1.348 . S
C391 C393 1.353 . S
C391 H432 0.929 . S
C392 C390 1.356 . S
C392 C394 1.358 . S
C392 H433 0.930 . S
C393 C391 1.353 . S
C393 N395 1.314 . S
C393 H434 0.930 . S
C394 C392 1.358 . S
C394 N395 1.279 . S
C394 H435 0.930 . S
N395 C393 1.314 . S
N395 C394 1.279 . S
C396 C398 1.353 . S
C396 N399 1.314 . S
C396 H402 0.930 . S
C397 N399 1.279 . S
C397 C400 1.358 . S
C397 H403 0.930 . S
C398 C396 1.353 . S
C398 C401 1.348 . S
C398 H436 0.929 . S
N399 Li354 1.990 . S
N399 C396 1.314 . S
N399 C397 1.279 . S
C400 C397 1.358 . S
C400 C401 1.356 . S
C400 H437 0.930 . S
C401 C398 1.348 . S
C401 C400 1.356 . S
H402 C396 0.930 . S
H403 C397 0.930 . S
C404 N405 1.314 . S
C404 C406 1.353 . S
C404 H410 0.930 . S
N405 Li355 1.990 . S
N405 C404 1.314 . S
N405 C408 1.279 . S
C406 C404 1.353 . S
C406 C409 1.348 . S
C406 H438 0.929 . S
C407 C408 1.358 . S
C407 C409 1.356 . S
C407 H439 0.930 . S
C408 N405 1.279 . S
C408 C407 1.358 . S
C408 H411 0.930 . S
C409 C406 1.348 . S
C409 C407 1.356 . S
H410 C404 0.930 . S
H411 C408 0.930 . S
O412 Li352 1.956 . S
O412 Li353 1.970 . S
O412 Li354 1.961 . S
O412 C356 1.325 . S
O413 Li352 1.970 . S
O413 Li353 1.956 . S
O413 Li355 1.961 . S
O413 C362 1.325 . S
O414 Li352 1.961 . S
O414 Li354 1.956 . S
O414 Li355 1.970 . S
O414 C384 1.325 . S
O415 Li353 1.961 . S
O415 Li354 1.970 . S
O415 Li355 1.956 . S
O415 C390 1.325 . S
H416 C358 0.929 . S
H417 C359 0.930 . S
H418 C360 0.930 . S
H419 C361 0.930 . S
H420 C363 0.930 . S
H421 C365 0.929 . S
H422 C366 0.930 . S
H423 C367 0.930 . S
H424 C370 0.930 . S
H425 C373 0.929 . S
H426 C378 0.929 . S
H427 C379 0.930 . S
H428 C386 0.929 . S
H429 C387 0.930 . S
H430 C388 0.930 . S
H431 C389 0.930 . S
H432 C391 0.929 . S
H433 C392 0.930 . S
H434 C393 0.930 . S
H435 C394 0.930 . S
H436 C398 0.929 . S
H437 C400 0.930 . S
H438 C406 0.929 . S
H439 C407 0.930 . S
Li440 N457 1.990 . S
Li440 O500 1.956 . S
Li440 O501 1.970 . S
Li440 O502 1.961 . S
Li441 N465 1.990 . S
Li441 O500 1.970 . S
Li441 O501 1.956 . S
Li441 O503 1.961 . S
Li442 N487 1.990 . S
Li442 O500 1.961 . S
Li442 O502 1.956 . S
Li442 O503 1.970 . S
Li443 N493 1.990 . S
Li443 O501 1.961 . S
Li443 O502 1.970 . S
Li443 O503 1.956 . S
C444 C446 1.348 . S
C444 C447 1.356 . S
C444 O500 1.325 . S
N445 C448 1.314 . S
N445 C449 1.279 . S
C446 C444 1.348 . S
C446 C448 1.353 . S
C446 H504 0.929 . S
C447 C444 1.356 . S
C447 C449 1.358 . S
C447 H505 0.930 . S
C448 N445 1.314 . S
C448 C446 1.353 . S
C448 H506 0.930 . S
C449 N445 1.279 . S
C449 C447 1.358 . S
C449 H507 0.930 . S
C450 C453 1.348 . S
C450 C454 1.356 . S
C450 O501 1.325 . S
C451 N452 1.279 . S
C451 C454 1.358 . S
C451 H508 0.930 . S
N452 C451 1.279 . S
N452 C455 1.314 . S
C453 C450 1.348 . S
C453 C455 1.353 . S
C453 H509 0.929 . S
C454 C450 1.356 . S
C454 C451 1.358 . S
C454 H510 0.930 . S
C455 N452 1.314 . S
C455 C453 1.353 . S
C455 H511 0.930 . S
C456 N457 1.314 . S
C456 C461 1.353 . S
C456 H462 0.930 . S
N457 Li440 1.990 . S
N457 C456 1.314 . S
N457 C459 1.279 . S
C458 C459 1.358 . S
C458 C460 1.356 . S
C458 H512 0.930 . S
C459 N457 1.279 . S
C459 C458 1.358 . S
C459 H463 0.930 . S
C460 C458 1.356 . S
C460 C461 1.348 . S
C461 C456 1.353 . S
C461 C460 1.348 . S
C461 H513 0.929 . S
H462 C456 0.930 . S
H463 C459 0.930 . S
C464 N465 1.314 . S
C464 C466 1.353 . S
C464 H470 0.930 . S
N465 Li441 1.990 . S
N465 C464 1.314 . S
N465 C468 1.279 . S
C466 C464 1.353 . S
C466 C469 1.348 . S
C466 H514 0.929 . S
C467 C468 1.358 . S
C467 C469 1.356 . S
C467 H515 0.930 . S
C468 N465 1.279 . S
C468 C467 1.358 . S
C468 H471 0.930 . S
C469 C466 1.348 . S
C469 C467 1.356 . S
H470 C464 0.930 . S
H471 C468 0.930 . S
C472 C474 1.348 . S
C472 C475 1.356 . S
C472 O502 1.325 . S
N473 C476 1.314 . S
N473 C477 1.279 . S
C474 C472 1.348 . S
C474 C476 1.353 . S
C474 H516 0.929 . S
C475 C472 1.356 . S
C475 C477 1.358 . S
C475 H517 0.930 . S
C476 N473 1.314 . S
C476 C474 1.353 . S
C476 H518 0.930 . S
C477 N473 1.279 . S
C477 C475 1.358 . S
C477 H519 0.930 . S
C478 C479 1.348 . S
C478 C480 1.356 . S
C478 O503 1.325 . S
C479 C478 1.348 . S
C479 C481 1.353 . S
C479 H520 0.929 . S
C480 C478 1.356 . S
C480 C482 1.358 . S
C480 H521 0.930 . S
C481 C479 1.353 . S
C481 N483 1.314 . S
C481 H522 0.930 . S
C482 C480 1.358 . S
C482 N483 1.279 . S
C482 H523 0.930 . S
N483 C481 1.314 . S
N483 C482 1.279 . S
C484 C486 1.353 . S
C484 N487 1.314 . S
C484 H490 0.930 . S
C485 N487 1.279 . S
C485 C488 1.358 . S
C485 H491 0.930 . S
C486 C484 1.353 . S
C486 C489 1.348 . S
C486 H524 0.929 . S
N487 Li442 1.990 . S
N487 C484 1.314 . S
N487 C485 1.279 . S
C488 C485 1.358 . S
C488 C489 1.356 . S
C488 H525 0.930 . S
C489 C486 1.348 . S
C489 C488 1.356 . S
H490 C484 0.930 . S
H491 C485 0.930 . S
C492 N493 1.314 . S
C492 C494 1.353 . S
C492 H498 0.930 . S
N493 Li443 1.990 . S
N493 C492 1.314 . S
N493 C496 1.279 . S
C494 C492 1.353 . S
C494 C497 1.348 . S
C494 H526 0.929 . S
C495 C496 1.358 . S
C495 C497 1.356 . S
C495 H527 0.930 . S
C496 N493 1.279 . S
C496 C495 1.358 . S
C496 H499 0.930 . S
C497 C494 1.348 . S
C497 C495 1.356 . S
H498 C492 0.930 . S
H499 C496 0.930 . S
O500 Li440 1.956 . S
O500 Li441 1.970 . S
O500 Li442 1.961 . S
O500 C444 1.325 . S
O501 Li440 1.970 . S
O501 Li441 1.956 . S
O501 Li443 1.961 . S
O501 C450 1.325 . S
O502 Li440 1.961 . S
O502 Li442 1.956 . S
O502 Li443 1.970 . S
O502 C472 1.325 . S
O503 Li441 1.961 . S
O503 Li442 1.970 . S
O503 Li443 1.956 . S
O503 C478 1.325 . S
H504 C446 0.929 . S
H505 C447 0.930 . S
H506 C448 0.930 . S
H507 C449 0.930 . S
H508 C451 0.930 . S
H509 C453 0.929 . S
H510 C454 0.930 . S
H511 C455 0.930 . S
H512 C458 0.930 . S
H513 C461 0.929 . S
H514 C466 0.929 . S
H515 C467 0.930 . S
H516 C474 0.929 . S
H517 C475 0.930 . S
H518 C476 0.930 . S
H519 C477 0.930 . S
H520 C479 0.929 . S
H521 C480 0.930 . S
H522 C481 0.930 . S
H523 C482 0.930 . S
H524 C486 0.929 . S
H525 C488 0.930 . S
H526 C494 0.929 . S
H527 C495 0.930 . S
Li528 N545 1.990 . S
Li528 O588 1.956 . S
Li528 O589 1.970 . S
Li528 O590 1.961 . S
Li529 N553 1.990 . S
Li529 O588 1.970 . S
Li529 O589 1.956 . S
Li529 O591 1.961 . S
Li530 N575 1.990 . S
Li530 O588 1.961 . S
Li530 O590 1.956 . S
Li530 O591 1.970 . S
Li531 N581 1.990 . S
Li531 O589 1.961 . S
Li531 O590 1.970 . S
Li531 O591 1.956 . S
C532 C534 1.348 . S
C532 C535 1.356 . S
C532 O588 1.325 . S
N533 C536 1.314 . S
N533 C537 1.279 . S
C534 C532 1.348 . S
C534 C536 1.353 . S
C534 H592 0.929 . S
C535 C532 1.356 . S
C535 C537 1.358 . S
C535 H593 0.930 . S
C536 N533 1.314 . S
C536 C534 1.353 . S
C536 H594 0.930 . S
C537 N533 1.279 . S
C537 C535 1.358 . S
C537 H595 0.930 . S
C538 C541 1.348 . S
C538 C542 1.356 . S
C538 O589 1.325 . S
C539 N540 1.279 . S
C539 C542 1.358 . S
C539 H596 0.930 . S
N540 C539 1.279 . S
N540 C543 1.314 . S
C541 C538 1.348 . S
C541 C543 1.353 . S
C541 H597 0.929 . S
C542 C538 1.356 . S
C542 C539 1.358 . S
C542 H598 0.930 . S
C543 N540 1.314 . S
C543 C541 1.353 . S
C543 H599 0.930 . S
C544 N545 1.314 . S
C544 C549 1.353 . S
C544 H550 0.930 . S
N545 Li528 1.990 . S
N545 C544 1.314 . S
N545 C547 1.279 . S
C546 C547 1.358 . S
C546 C548 1.356 . S
C546 H600 0.930 . S
C547 N545 1.279 . S
C547 C546 1.358 . S
C547 H551 0.930 . S
C548 C546 1.356 . S
C548 C549 1.348 . S
C549 C544 1.353 . S
C549 C548 1.348 . S
C549 H601 0.929 . S
H550 C544 0.930 . S
H551 C547 0.930 . S
C552 N553 1.314 . S
C552 C554 1.353 . S
C552 H558 0.930 . S
N553 Li529 1.990 . S
N553 C552 1.314 . S
N553 C556 1.279 . S
C554 C552 1.353 . S
C554 C557 1.348 . S
C554 H602 0.929 . S
C555 C556 1.358 . S
C555 C557 1.356 . S
C555 H603 0.930 . S
C556 N553 1.279 . S
C556 C555 1.358 . S
C556 H559 0.930 . S
C557 C554 1.348 . S
C557 C555 1.356 . S
H558 C552 0.930 . S
H559 C556 0.930 . S
C560 C562 1.348 . S
C560 C563 1.356 . S
C560 O590 1.325 . S
N561 C564 1.314 . S
N561 C565 1.279 . S
C562 C560 1.348 . S
C562 C564 1.353 . S
C562 H604 0.929 . S
C563 C560 1.356 . S
C563 C565 1.358 . S
C563 H605 0.930 . S
C564 N561 1.314 . S
C564 C562 1.353 . S
C564 H606 0.930 . S
C565 N561 1.279 . S
C565 C563 1.358 . S
C565 H607 0.930 . S
C566 C567 1.348 . S
C566 C568 1.356 . S
C566 O591 1.325 . S
C567 C566 1.348 . S
C567 C569 1.353 . S
C567 H608 0.929 . S
C568 C566 1.356 . S
C568 C570 1.358 . S
C568 H609 0.930 . S
C569 C567 1.353 . S
C569 N571 1.314 . S
C569 H610 0.930 . S
C570 C568 1.358 . S
C570 N571 1.279 . S
C570 H611 0.930 . S
N571 C569 1.314 . S
N571 C570 1.279 . S
C572 C574 1.353 . S
C572 N575 1.314 . S
C572 H578 0.930 . S
C573 N575 1.279 . S
C573 C576 1.358 . S
C573 H579 0.930 . S
C574 C572 1.353 . S
C574 C577 1.348 . S
C574 H612 0.929 . S
N575 Li530 1.990 . S
N575 C572 1.314 . S
N575 C573 1.279 . S
C576 C573 1.358 . S
C576 C577 1.356 . S
C576 H613 0.930 . S
C577 C574 1.348 . S
C577 C576 1.356 . S
H578 C572 0.930 . S
H579 C573 0.930 . S
C580 N581 1.314 . S
C580 C582 1.353 . S
C580 H586 0.930 . S
N581 Li531 1.990 . S
N581 C580 1.314 . S
N581 C584 1.279 . S
C582 C580 1.353 . S
C582 C585 1.348 . S
C582 H614 0.929 . S
C583 C584 1.358 . S
C583 C585 1.356 . S
C583 H615 0.930 . S
C584 N581 1.279 . S
C584 C583 1.358 . S
C584 H587 0.930 . S
C585 C582 1.348 . S
C585 C583 1.356 . S
H586 C580 0.930 . S
H587 C584 0.930 . S
O588 Li528 1.956 . S
O588 Li529 1.970 . S
O588 Li530 1.961 . S
O588 C532 1.325 . S
O589 Li528 1.970 . S
O589 Li529 1.956 . S
O589 Li531 1.961 . S
O589 C538 1.325 . S
O590 Li528 1.961 . S
O590 Li530 1.956 . S
O590 Li531 1.970 . S
O590 C560 1.325 . S
O591 Li529 1.961 . S
O591 Li530 1.970 . S
O591 Li531 1.956 . S
O591 C566 1.325 . S
H592 C534 0.929 . S
H593 C535 0.930 . S
H594 C536 0.930 . S
H595 C537 0.930 . S
H596 C539 0.930 . S
H597 C541 0.929 . S
H598 C542 0.930 . S
H599 C543 0.930 . S
H600 C546 0.930 . S
H601 C549 0.929 . S
H602 C554 0.929 . S
H603 C555 0.930 . S
H604 C562 0.929 . S
H605 C563 0.930 . S
H606 C564 0.930 . S
H607 C565 0.930 . S
H608 C567 0.929 . S
H609 C568 0.930 . S
H610 C569 0.930 . S
H611 C570 0.930 . S
H612 C574 0.929 . S
H613 C576 0.930 . S
H614 C582 0.929 . S
H615 C583 0.930 . S
Li616 N633 1.990 . S
Li616 O676 1.956 . S
Li616 O677 1.970 . S
Li616 O678 1.961 . S
Li617 N641 1.990 . S
Li617 O676 1.970 . S
Li617 O677 1.956 . S
Li617 O679 1.961 . S
Li618 N663 1.990 . S
Li618 O676 1.961 . S
Li618 O678 1.956 . S
Li618 O679 1.970 . S
Li619 N669 1.990 . S
Li619 O677 1.961 . S
Li619 O678 1.970 . S
Li619 O679 1.956 . S
C620 C622 1.348 . S
C620 C623 1.356 . S
C620 O676 1.325 . S
N621 C624 1.314 . S
N621 C625 1.279 . S
C622 C620 1.348 . S
C622 C624 1.353 . S
C622 H680 0.929 . S
C623 C620 1.356 . S
C623 C625 1.358 . S
C623 H681 0.930 . S
C624 N621 1.314 . S
C624 C622 1.353 . S
C624 H682 0.930 . S
C625 N621 1.279 . S
C625 C623 1.358 . S
C625 H683 0.930 . S
C626 C629 1.348 . S
C626 C630 1.356 . S
C626 O677 1.325 . S
C627 N628 1.279 . S
C627 C630 1.358 1_554 S
C627 H684 0.930 . S
N628 C627 1.279 . S
N628 C631 1.314 . S
C629 C626 1.348 . S
C629 C631 1.353 1_556 S
C629 H685 0.929 . S
C630 C626 1.356 . S
C630 C627 1.358 1_556 S
C630 H686 0.930 . S
C631 N628 1.314 . S
C631 C629 1.353 1_554 S
C631 H687 0.930 . S
C632 N633 1.314 . S
C632 C637 1.353 . S
C632 H638 0.930 . S
N633 Li616 1.990 . S
N633 C632 1.314 . S
N633 C635 1.279 . S
C634 C635 1.358 . S
C634 C636 1.356 . S
C634 H688 0.930 . S
C635 N633 1.279 . S
C635 C634 1.358 . S
C635 H639 0.930 . S
C636 C634 1.356 . S
C636 C637 1.348 . S
C637 C632 1.353 . S
C637 C636 1.348 . S
C637 H689 0.929 . S
H638 C632 0.930 . S
H639 C635 0.930 . S
C640 N641 1.314 . S
C640 C642 1.353 . S
C640 H646 0.930 . S
N641 Li617 1.990 . S
N641 C640 1.314 . S
N641 C644 1.279 . S
C642 C640 1.353 . S
C642 C645 1.348 . S
C642 H690 0.929 . S
C643 C644 1.358 . S
C643 C645 1.356 . S
C643 H691 0.930 . S
C644 N641 1.279 . S
C644 C643 1.358 . S
C644 H647 0.930 . S
C645 C642 1.348 . S
C645 C643 1.356 . S
H646 C640 0.930 . S
H647 C644 0.930 . S
C648 C650 1.348 . S
C648 C651 1.356 . S
C648 O678 1.325 . S
N649 C652 1.314 . S
N649 C653 1.279 . S
C650 C648 1.348 . S
C650 C652 1.353 . S
C650 H692 0.929 . S
C651 C648 1.356 . S
C651 C653 1.358 . S
C651 H693 0.930 . S
C652 N649 1.314 . S
C652 C650 1.353 . S
C652 H694 0.930 . S
C653 N649 1.279 . S
C653 C651 1.358 . S
C653 H695 0.930 . S
C654 C655 1.348 . S
C654 C656 1.356 . S
C654 O679 1.325 . S
C655 C654 1.348 . S
C655 C657 1.353 . S
C655 H696 0.929 . S
C656 C654 1.356 . S
C656 C658 1.358 . S
C656 H697 0.930 . S
C657 C655 1.353 . S
C657 N659 1.314 . S
C657 H698 0.930 . S
C658 C656 1.358 . S
C658 N659 1.279 . S
C658 H699 0.930 . S
N659 C657 1.314 . S
N659 C658 1.279 . S
C660 C662 1.353 . S
C660 N663 1.314 . S
C660 H666 0.930 . S
C661 N663 1.279 . S
C661 C664 1.358 . S
C661 H667 0.930 . S
C662 C660 1.353 . S
C662 C665 1.348 . S
C662 H700 0.929 . S
N663 Li618 1.990 . S
N663 C660 1.314 . S
N663 C661 1.279 . S
C664 C661 1.358 . S
C664 C665 1.356 . S
C664 H701 0.930 . S
C665 C662 1.348 . S
C665 C664 1.356 . S
H666 C660 0.930 . S
H667 C661 0.930 . S
C668 N669 1.314 . S
C668 C670 1.353 . S
C668 H674 0.930 . S
N669 Li619 1.990 . S
N669 C668 1.314 . S
N669 C672 1.279 . S
C670 C668 1.353 . S
C670 C673 1.348 . S
C670 H702 0.929 1_556 S
C671 C672 1.358 . S
C671 C673 1.356 . S
C671 H703 0.930 . S
C672 N669 1.279 . S
C672 C671 1.358 . S
C672 H675 0.930 . S
C673 C670 1.348 . S
C673 C671 1.356 . S
H674 C668 0.930 . S
H675 C672 0.930 . S
O676 Li616 1.956 . S
O676 Li617 1.970 . S
O676 Li618 1.961 . S
O676 C620 1.325 . S
O677 Li616 1.970 . S
O677 Li617 1.956 . S
O677 Li619 1.961 . S
O677 C626 1.325 . S
O678 Li616 1.961 . S
O678 Li618 1.956 . S
O678 Li619 1.970 . S
O678 C648 1.325 . S
O679 Li617 1.961 . S
O679 Li618 1.970 . S
O679 Li619 1.956 . S
O679 C654 1.325 . S
H680 C622 0.929 . S
H681 C623 0.930 . S
H682 C624 0.930 . S
H683 C625 0.930 . S
H684 C627 0.930 . S
H685 C629 0.929 . S
H686 C630 0.930 . S
H687 C631 0.930 . S
H688 C634 0.930 . S
H689 C637 0.929 . S
H690 C642 0.929 . S
H691 C643 0.930 . S
H692 C650 0.929 . S
H693 C651 0.930 . S
H694 C652 0.930 . S
H695 C653 0.930 . S
H696 C655 0.929 . S
H697 C656 0.930 . S
H698 C657 0.930 . S
H699 C658 0.930 . S
H700 C662 0.929 . S
H701 C664 0.930 . S
H702 C670 0.929 1_554 S
H703 C671 0.930 . S
Li704 N721 1.990 . S
Li704 O764 1.956 . S
Li704 O765 1.970 . S
Li704 O766 1.961 . S
Li705 N729 1.990 . S
Li705 O764 1.970 . S
Li705 O765 1.956 . S
Li705 O767 1.961 . S
Li706 N751 1.990 . S
Li706 O764 1.961 . S
Li706 O766 1.956 . S
Li706 O767 1.970 . S
Li707 N757 1.990 . S
Li707 O765 1.961 . S
Li707 O766 1.970 . S
Li707 O767 1.956 . S
C708 C710 1.348 . S
C708 C711 1.356 . S
C708 O764 1.325 . S
N709 C712 1.314 . S
N709 C713 1.279 . S
C710 C708 1.348 . S
C710 C712 1.353 . S
C710 H768 0.929 . S
C711 C708 1.356 . S
C711 C713 1.358 . S
C711 H769 0.930 . S
C712 N709 1.314 . S
C712 C710 1.353 . S
C712 H770 0.930 . S
C713 N709 1.279 . S
C713 C711 1.358 . S
C713 H771 0.930 . S
C714 C717 1.348 . S
C714 C718 1.356 . S
C714 O765 1.325 . S
C715 N716 1.279 . S
C715 C718 1.358 . S
C715 H772 0.930 . S
N716 C715 1.279 . S
N716 C719 1.314 . S
C717 C714 1.348 . S
C717 C719 1.353 . S
C717 H773 0.929 . S
C718 C714 1.356 . S
C718 C715 1.358 . S
C718 H774 0.930 . S
C719 N716 1.314 . S
C719 C717 1.353 . S
C719 H775 0.930 . S
C720 N721 1.314 . S
C720 C725 1.353 . S
C720 H726 0.930 . S
N721 Li704 1.990 . S
N721 C720 1.314 . S
N721 C723 1.279 . S
C722 C723 1.358 . S
C722 C724 1.356 . S
C722 H776 0.930 . S
C723 N721 1.279 . S
C723 C722 1.358 . S
C723 H727 0.930 . S
C724 C722 1.356 . S
C724 C725 1.348 . S
C725 C720 1.353 . S
C725 C724 1.348 . S
C725 H777 0.929 . S
H726 C720 0.930 . S
H727 C723 0.930 . S
C728 N729 1.314 . S
C728 C730 1.353 . S
C728 H734 0.930 . S
N729 Li705 1.990 . S
N729 C728 1.314 . S
N729 C732 1.279 . S
C730 C728 1.353 . S
C730 C733 1.348 . S
C730 H778 0.929 . S
C731 C732 1.358 . S
C731 C733 1.356 . S
C731 H779 0.930 . S
C732 N729 1.279 . S
C732 C731 1.358 . S
C732 H735 0.930 . S
C733 C730 1.348 . S
C733 C731 1.356 . S
H734 C728 0.930 . S
H735 C732 0.930 . S
C736 C738 1.348 . S
C736 C739 1.356 . S
C736 O766 1.325 . S
N737 C740 1.314 . S
N737 C741 1.279 . S
C738 C736 1.348 . S
C738 C740 1.353 . S
C738 H780 0.929 . S
C739 C736 1.356 . S
C739 C741 1.358 . S
C739 H781 0.930 . S
C740 N737 1.314 . S
C740 C738 1.353 . S
C740 H782 0.930 . S
C741 N737 1.279 . S
C741 C739 1.358 . S
C741 H783 0.930 . S
C742 C743 1.348 . S
C742 C744 1.356 . S
C742 O767 1.325 . S
C743 C742 1.348 . S
C743 C745 1.353 . S
C743 H784 0.929 . S
C744 C742 1.356 . S
C744 C746 1.358 . S
C744 H785 0.930 . S
C745 C743 1.353 . S
C745 N747 1.314 . S
C745 H786 0.930 . S
C746 C744 1.358 . S
C746 N747 1.279 . S
C746 H787 0.930 . S
N747 C745 1.314 . S
N747 C746 1.279 . S
C748 C750 1.353 . S
C748 N751 1.314 . S
C748 H754 0.930 . S
C749 N751 1.279 . S
C749 C752 1.358 . S
C749 H755 0.930 . S
C750 C748 1.353 . S
C750 C753 1.348 . S
C750 H788 0.929 . S
N751 Li706 1.990 . S
N751 C748 1.314 . S
N751 C749 1.279 . S
C752 C749 1.358 . S
C752 C753 1.356 . S
C752 H789 0.930 . S
C753 C750 1.348 . S
C753 C752 1.356 . S
H754 C748 0.930 . S
H755 C749 0.930 . S
C756 N757 1.314 . S
C756 C758 1.353 . S
C756 H762 0.930 . S
N757 Li707 1.990 . S
N757 C756 1.314 . S
N757 C760 1.279 . S
C758 C756 1.353 . S
C758 C761 1.348 . S
C758 H790 0.929 . S
C759 C760 1.358 . S
C759 C761 1.356 . S
C759 H791 0.930 . S
C760 N757 1.279 . S
C760 C759 1.358 . S
C760 H763 0.930 . S
C761 C758 1.348 . S
C761 C759 1.356 . S
H762 C756 0.930 . S
H763 C760 0.930 . S
O764 Li704 1.956 . S
O764 Li705 1.970 . S
O764 Li706 1.961 . S
O764 C708 1.325 . S
O765 Li704 1.970 . S
O765 Li705 1.956 . S
O765 Li707 1.961 . S
O765 C714 1.325 . S
O766 Li704 1.961 . S
O766 Li706 1.956 . S
O766 Li707 1.970 . S
O766 C736 1.325 . S
O767 Li705 1.961 . S
O767 Li706 1.970 . S
O767 Li707 1.956 . S
O767 C742 1.325 . S
H768 C710 0.929 . S
H769 C711 0.930 . S
H770 C712 0.930 . S
H771 C713 0.930 . S
H772 C715 0.930 . S
H773 C717 0.929 . S
H774 C718 0.930 . S
H775 C719 0.930 . S
H776 C722 0.930 . S
H777 C725 0.929 . S
H778 C730 0.929 . S
H779 C731 0.930 . S
H780 C738 0.929 . S
H781 C739 0.930 . S
H782 C740 0.930 . S
H783 C741 0.930 . S
H784 C743 0.929 . S
H785 C744 0.930 . S
H786 C745 0.930 . S
H787 C746 0.930 . S
H788 C750 0.929 . S
H789 C752 0.930 . S
H790 C758 0.929 . S
H791 C759 0.930 . S
Li792 N809 1.990 . S
Li792 O852 1.956 . S
Li792 O853 1.970 . S
Li792 O854 1.961 . S
Li793 N817 1.990 . S
Li793 O852 1.970 . S
Li793 O853 1.956 . S
Li793 O855 1.961 . S
Li794 N839 1.990 . S
Li794 O852 1.961 . S
Li794 O854 1.956 . S
Li794 O855 1.970 . S
Li795 N845 1.990 . S
Li795 O853 1.961 . S
Li795 O854 1.970 . S
Li795 O855 1.956 . S
C796 C798 1.348 . S
C796 C799 1.356 . S
C796 O852 1.325 . S
N797 C800 1.314 . S
N797 C801 1.279 . S
C798 C796 1.348 . S
C798 C800 1.353 . S
C798 H856 0.929 . S
C799 C796 1.356 . S
C799 C801 1.358 . S
C799 H857 0.930 . S
C800 N797 1.314 . S
C800 C798 1.353 . S
C800 H858 0.930 . S
C801 N797 1.279 . S
C801 C799 1.358 . S
C801 H859 0.930 . S
C802 C805 1.348 . S
C802 C806 1.356 . S
C802 O853 1.325 . S
C803 N804 1.279 . S
C803 C806 1.358 . S
C803 H860 0.930 . S
N804 C803 1.279 . S
N804 C807 1.314 . S
C805 C802 1.348 . S
C805 C807 1.353 . S
C805 H861 0.929 . S
C806 C802 1.356 . S
C806 C803 1.358 . S
C806 H862 0.930 . S
C807 N804 1.314 . S
C807 C805 1.353 . S
C807 H863 0.930 . S
C808 N809 1.314 . S
C808 C813 1.353 . S
C808 H814 0.930 . S
N809 Li792 1.990 . S
N809 C808 1.314 . S
N809 C811 1.279 . S
C810 C811 1.358 . S
C810 C812 1.356 . S
C810 H864 0.930 . S
C811 N809 1.279 . S
C811 C810 1.358 . S
C811 H815 0.930 . S
C812 C810 1.356 . S
C812 C813 1.348 . S
C813 C808 1.353 . S
C813 C812 1.348 . S
C813 H865 0.929 . S
H814 C808 0.930 . S
H815 C811 0.930 . S
C816 N817 1.314 . S
C816 C818 1.353 . S
C816 H822 0.930 . S
N817 Li793 1.990 . S
N817 C816 1.314 . S
N817 C820 1.279 . S
C818 C816 1.353 . S
C818 C821 1.348 . S
C818 H866 0.929 . S
C819 C820 1.358 . S
C819 C821 1.356 . S
C819 H867 0.930 . S
C820 N817 1.279 . S
C820 C819 1.358 . S
C820 H823 0.930 . S
C821 C818 1.348 . S
C821 C819 1.356 . S
H822 C816 0.930 . S
H823 C820 0.930 . S
C824 C826 1.348 . S
C824 C827 1.356 . S
C824 O854 1.325 . S
N825 C828 1.314 . S
N825 C829 1.279 . S
C826 C824 1.348 . S
C826 C828 1.353 . S
C826 H868 0.929 . S
C827 C824 1.356 . S
C827 C829 1.358 . S
C827 H869 0.930 . S
C828 N825 1.314 . S
C828 C826 1.353 . S
C828 H870 0.930 . S
C829 N825 1.279 . S
C829 C827 1.358 . S
C829 H871 0.930 . S
C830 C831 1.348 . S
C830 C832 1.356 . S
C830 O855 1.325 . S
C831 C830 1.348 . S
C831 C833 1.353 . S
C831 H872 0.929 . S
C832 C830 1.356 . S
C832 C834 1.358 . S
C832 H873 0.930 . S
C833 C831 1.353 . S
C833 N835 1.314 . S
C833 H874 0.930 . S
C834 C832 1.358 . S
C834 N835 1.279 . S
C834 H875 0.930 . S
N835 C833 1.314 . S
N835 C834 1.279 . S
C836 C838 1.353 . S
C836 N839 1.314 . S
C836 H842 0.930 . S
C837 N839 1.279 . S
C837 C840 1.358 . S
C837 H843 0.930 . S
C838 C836 1.353 . S
C838 C841 1.348 . S
C838 H876 0.929 . S
N839 Li794 1.990 . S
N839 C836 1.314 . S
N839 C837 1.279 . S
C840 C837 1.358 . S
C840 C841 1.356 . S
C840 H877 0.930 . S
C841 C838 1.348 . S
C841 C840 1.356 . S
H842 C836 0.930 . S
H843 C837 0.930 . S
C844 N845 1.314 . S
C844 C846 1.353 . S
C844 H850 0.930 . S
N845 Li795 1.990 . S
N845 C844 1.314 . S
N845 C848 1.279 . S
C846 C844 1.353 . S
C846 C849 1.348 . S
C846 H878 0.929 . S
C847 C848 1.358 . S
C847 C849 1.356 . S
C847 H879 0.930 . S
C848 N845 1.279 . S
C848 C847 1.358 . S
C848 H851 0.930 . S
C849 C846 1.348 . S
C849 C847 1.356 . S
H850 C844 0.930 . S
H851 C848 0.930 . S
O852 Li792 1.956 . S
O852 Li793 1.970 . S
O852 Li794 1.961 . S
O852 C796 1.325 . S
O853 Li792 1.970 . S
O853 Li793 1.956 . S
O853 Li795 1.961 . S
O853 C802 1.325 . S
O854 Li792 1.961 . S
O854 Li794 1.956 . S
O854 Li795 1.970 . S
O854 C824 1.325 . S
O855 Li793 1.961 . S
O855 Li794 1.970 . S
O855 Li795 1.956 . S
O855 C830 1.325 . S
H856 C798 0.929 . S
H857 C799 0.930 . S
H858 C800 0.930 . S
H859 C801 0.930 . S
H860 C803 0.930 . S
H861 C805 0.929 . S
H862 C806 0.930 . S
H863 C807 0.930 . S
H864 C810 0.930 . S
H865 C813 0.929 . S
H866 C818 0.929 . S
H867 C819 0.930 . S
H868 C826 0.929 . S
H869 C827 0.930 . S
H870 C828 0.930 . S
H871 C829 0.930 . S
H872 C831 0.929 . S
H873 C832 0.930 . S
H874 C833 0.930 . S
H875 C834 0.930 . S
H876 C838 0.929 . S
H877 C840 0.930 . S
H878 C846 0.929 . S
H879 C847 0.930 . S
Li880 N897 1.990 . S
Li880 O940 1.956 . S
Li880 O941 1.970 . S
Li880 O942 1.961 . S
Li881 N905 1.990 . S
Li881 O940 1.970 . S
Li881 O941 1.956 . S
Li881 O943 1.961 . S
Li882 N927 1.990 . S
Li882 O940 1.961 . S
Li882 O942 1.956 . S
Li882 O943 1.970 . S
Li883 N933 1.990 . S
Li883 O941 1.961 . S
Li883 O942 1.970 . S
Li883 O943 1.956 . S
C884 C886 1.348 . S
C884 C887 1.356 . S
C884 O940 1.325 . S
N885 C888 1.314 . S
N885 C889 1.279 . S
C886 C884 1.348 . S
C886 C888 1.353 1_556 S
C886 H944 0.929 . S
C887 C884 1.356 . S
C887 C889 1.358 1_556 S
C887 H945 0.930 . S
C888 N885 1.314 . S
C888 C886 1.353 1_554 S
C888 H946 0.930 . S
C889 N885 1.279 . S
C889 C887 1.358 1_554 S
C889 H947 0.930 . S
C890 C893 1.348 . S
C890 C894 1.356 . S
C890 O941 1.325 . S
C891 N892 1.279 . S
C891 C894 1.358 . S
C891 H948 0.930 . S
N892 C891 1.279 . S
N892 C895 1.314 . S
C893 C890 1.348 . S
C893 C895 1.353 . S
C893 H949 0.929 . S
C894 C890 1.356 . S
C894 C891 1.358 . S
C894 H950 0.930 . S
C895 N892 1.314 . S
C895 C893 1.353 . S
C895 H951 0.930 . S
C896 N897 1.314 . S
C896 C901 1.353 . S
C896 H902 0.930 . S
N897 Li880 1.990 . S
N897 C896 1.314 . S
N897 C899 1.279 . S
C898 C899 1.358 . S
C898 C900 1.356 . S
C898 H952 0.930 . S
C899 N897 1.279 . S
C899 C898 1.358 . S
C899 H903 0.930 . S
C900 C898 1.356 . S
C900 C901 1.348 . S
C901 C896 1.353 . S
C901 C900 1.348 . S
C901 H953 0.929 . S
H902 C896 0.930 . S
H903 C899 0.930 . S
C904 N905 1.314 . S
C904 C906 1.353 . S
C904 H910 0.930 . S
N905 Li881 1.990 . S
N905 C904 1.314 . S
N905 C908 1.279 . S
C906 C904 1.353 . S
C906 C909 1.348 . S
C906 H954 0.929 . S
C907 C908 1.358 . S
C907 C909 1.356 . S
C907 H955 0.930 . S
C908 N905 1.279 . S
C908 C907 1.358 . S
C908 H911 0.930 . S
C909 C906 1.348 . S
C909 C907 1.356 . S
H910 C904 0.930 . S
H911 C908 0.930 . S
C912 C914 1.348 . S
C912 C915 1.356 . S
C912 O942 1.325 . S
N913 C916 1.314 . S
N913 C917 1.279 . S
C914 C912 1.348 . S
C914 C916 1.353 . S
C914 H956 0.929 . S
C915 C912 1.356 . S
C915 C917 1.358 . S
C915 H957 0.930 . S
C916 N913 1.314 . S
C916 C914 1.353 . S
C916 H958 0.930 . S
C917 N913 1.279 . S
C917 C915 1.358 . S
C917 H959 0.930 . S
C918 C919 1.348 . S
C918 C920 1.356 . S
C918 O943 1.325 . S
C919 C918 1.348 . S
C919 C921 1.353 . S
C919 H960 0.929 . S
C920 C918 1.356 . S
C920 C922 1.358 . S
C920 H961 0.930 . S
C921 C919 1.353 . S
C921 N923 1.314 . S
C921 H962 0.930 . S
C922 C920 1.358 . S
C922 N923 1.279 . S
C922 H963 0.930 . S
N923 C921 1.314 . S
N923 C922 1.279 . S
C924 C926 1.353 . S
C924 N927 1.314 . S
C924 H930 0.930 . S
C925 N927 1.279 . S
C925 C928 1.358 . S
C925 H931 0.930 . S
C926 C924 1.353 . S
C926 C929 1.348 . S
C926 H964 0.929 1_556 S
N927 Li882 1.990 . S
N927 C924 1.314 . S
N927 C925 1.279 . S
C928 C925 1.358 . S
C928 C929 1.356 . S
C928 H965 0.930 . S
C929 C926 1.348 . S
C929 C928 1.356 . S
H930 C924 0.930 . S
H931 C925 0.930 . S
C932 N933 1.314 . S
C932 C934 1.353 . S
C932 H938 0.930 . S
N933 Li883 1.990 . S
N933 C932 1.314 . S
N933 C936 1.279 . S
C934 C932 1.353 . S
C934 C937 1.348 . S
C934 H966 0.929 . S
C935 C936 1.358 . S
C935 C937 1.356 . S
C935 H967 0.930 . S
C936 N933 1.279 . S
C936 C935 1.358 . S
C936 H939 0.930 . S
C937 C934 1.348 . S
C937 C935 1.356 . S
H938 C932 0.930 . S
H939 C936 0.930 . S
O940 Li880 1.956 . S
O940 Li881 1.970 . S
O940 Li882 1.961 . S
O940 C884 1.325 . S
O941 Li880 1.970 . S
O941 Li881 1.956 . S
O941 Li883 1.961 . S
O941 C890 1.325 . S
O942 Li880 1.961 . S
O942 Li882 1.956 . S
O942 Li883 1.970 . S
O942 C912 1.325 . S
O943 Li881 1.961 . S
O943 Li882 1.970 . S
O943 Li883 1.956 . S
O943 C918 1.325 . S
H944 C886 0.929 . S
H945 C887 0.930 . S
H946 C888 0.930 . S
H947 C889 0.930 . S
H948 C891 0.930 . S
H949 C893 0.929 . S
H950 C894 0.930 . S
H951 C895 0.930 . S
H952 C898 0.930 . S
H953 C901 0.929 . S
H954 C906 0.929 . S
H955 C907 0.930 . S
H956 C914 0.929 . S
H957 C915 0.930 . S
H958 C916 0.930 . S
H959 C917 0.930 . S
H960 C919 0.929 . S
H961 C920 0.930 . S
H962 C921 0.930 . S
H963 C922 0.930 . S
H964 C926 0.929 1_554 S
H965 C928 0.930 . S
H966 C934 0.929 . S
H967 C935 0.930 . S
Li968 N985 1.990 . S
Li968 O1028 1.956 . S
Li968 O1029 1.970 . S
Li968 O1030 1.961 . S
Li969 N993 1.990 . S
Li969 O1028 1.970 . S
Li969 O1029 1.956 . S
Li969 O1031 1.961 . S
Li970 N1015 1.990 . S
Li970 O1028 1.961 . S
Li970 O1030 1.956 . S
Li970 O1031 1.970 . S
Li971 N1021 1.990 . S
Li971 O1029 1.961 . S
Li971 O1030 1.970 . S
Li971 O1031 1.956 . S
C972 C974 1.348 . S
C972 C975 1.356 . S
C972 O1028 1.325 . S
N973 C976 1.314 . S
N973 C977 1.279 . S
C974 C972 1.348 . S
C974 C976 1.353 . S
C974 H1032 0.929 . S
C975 C972 1.356 . S
C975 C977 1.358 . S
C975 H1033 0.930 . S
C976 N973 1.314 . S
C976 C974 1.353 . S
C976 H1034 0.930 . S
C977 N973 1.279 . S
C977 C975 1.358 . S
C977 H1035 0.930 . S
C978 C981 1.348 . S
C978 C982 1.356 . S
C978 O1029 1.325 . S
C979 N980 1.279 . S
C979 C982 1.358 . S
C979 H1036 0.930 . S
N980 C979 1.279 . S
N980 C983 1.314 . S
C981 C978 1.348 . S
C981 C983 1.353 . S
C981 H1037 0.929 . S
C982 C978 1.356 . S
C982 C979 1.358 . S
C982 H1038 0.930 . S
C983 N980 1.314 . S
C983 C981 1.353 . S
C983 H1039 0.930 . S
C984 N985 1.314 . S
C984 C989 1.353 . S
C984 H990 0.930 . S
N985 Li968 1.990 . S
N985 C984 1.314 . S
N985 C987 1.279 . S
C986 C987 1.358 . S
C986 C988 1.356 . S
C986 H1040 0.930 . S
C987 N985 1.279 . S
C987 C986 1.358 . S
C987 H991 0.930 . S
C988 C986 1.356 . S
C988 C989 1.348 . S
C989 C984 1.353 . S
C989 C988 1.348 . S
C989 H1041 0.929 . S
H990 C984 0.930 . S
H991 C987 0.930 . S
C992 N993 1.314 . S
C992 C994 1.353 . S
C992 H998 0.930 . S
N993 Li969 1.990 . S
N993 C992 1.314 . S
N993 C996 1.279 . S
C994 C992 1.353 . S
C994 C997 1.348 . S
C994 H1042 0.929 . S
C995 C996 1.358 . S
C995 C997 1.356 . S
C995 H1043 0.930 . S
C996 N993 1.279 . S
C996 C995 1.358 . S
C996 H999 0.930 . S
C997 C994 1.348 . S
C997 C995 1.356 . S
H998 C992 0.930 . S
H999 C996 0.930 . S
C1000 C1002 1.348 . S
C1000 C1003 1.356 . S
C1000 O1030 1.325 . S
N1001 C1004 1.314 . S
N1001 C1005 1.279 . S
C1002 C1000 1.348 . S
C1002 C1004 1.353 . S
C1002 H1044 0.929 . S
C1003 C1000 1.356 . S
C1003 C1005 1.358 . S
C1003 H1045 0.930 . S
C1004 N1001 1.314 . S
C1004 C1002 1.353 . S
C1004 H1046 0.930 . S
C1005 N1001 1.279 . S
C1005 C1003 1.358 . S
C1005 H1047 0.930 . S
C1006 C1007 1.348 . S
C1006 C1008 1.356 . S
C1006 O1031 1.325 . S
C1007 C1006 1.348 . S
C1007 C1009 1.353 . S
C1007 H1048 0.929 . S
C1008 C1006 1.356 . S
C1008 C1010 1.358 . S
C1008 H1049 0.930 . S
C1009 C1007 1.353 . S
C1009 N1011 1.314 . S
C1009 H1050 0.930 . S
C1010 C1008 1.358 . S
C1010 N1011 1.279 . S
C1010 H1051 0.930 . S
N1011 C1009 1.314 . S
N1011 C1010 1.279 . S
C1012 C1014 1.353 . S
C1012 N1015 1.314 . S
C1012 H1018 0.930 . S
C1013 N1015 1.279 . S
C1013 C1016 1.358 . S
C1013 H1019 0.930 . S
C1014 C1012 1.353 . S
C1014 C1017 1.348 . S
C1014 H1052 0.929 . S
N1015 Li970 1.990 . S
N1015 C1012 1.314 . S
N1015 C1013 1.279 . S
C1016 C1013 1.358 . S
C1016 C1017 1.356 . S
C1016 H1053 0.930 . S
C1017 C1014 1.348 . S
C1017 C1016 1.356 . S
H1018 C1012 0.930 . S
H1019 C1013 0.930 . S
C1020 N1021 1.314 . S
C1020 C1022 1.353 . S
C1020 H1026 0.930 . S
N1021 Li971 1.990 . S
N1021 C1020 1.314 . S
N1021 C1024 1.279 . S
C1022 C1020 1.353 . S
C1022 C1025 1.348 . S
C1022 H1054 0.929 . S
C1023 C1024 1.358 . S
C1023 C1025 1.356 . S
C1023 H1055 0.930 . S
C1024 N1021 1.279 . S
C1024 C1023 1.358 . S
C1024 H1027 0.930 . S
C1025 C1022 1.348 . S
C1025 C1023 1.356 . S
H1026 C1020 0.930 . S
H1027 C1024 0.930 . S
O1028 Li968 1.956 . S
O1028 Li969 1.970 . S
O1028 Li970 1.961 . S
O1028 C972 1.325 . S
O1029 Li968 1.970 . S
O1029 Li969 1.956 . S
O1029 Li971 1.961 . S
O1029 C978 1.325 . S
O1030 Li968 1.961 . S
O1030 Li970 1.956 . S
O1030 Li971 1.970 . S
O1030 C1000 1.325 . S
O1031 Li969 1.961 . S
O1031 Li970 1.970 . S
O1031 Li971 1.956 . S
O1031 C1006 1.325 . S
H1032 C974 0.929 . S
H1033 C975 0.930 . S
H1034 C976 0.930 . S
H1035 C977 0.930 . S
H1036 C979 0.930 . S
H1037 C981 0.929 . S
H1038 C982 0.930 . S
H1039 C983 0.930 . S
H1040 C986 0.930 . S
H1041 C989 0.929 . S
H1042 C994 0.929 . S
H1043 C995 0.930 . S
H1044 C1002 0.929 . S
H1045 C1003 0.930 . S
H1046 C1004 0.930 . S
H1047 C1005 0.930 . S
H1048 C1007 0.929 . S
H1049 C1008 0.930 . S
H1050 C1009 0.930 . S
H1051 C1010 0.930 . S
H1052 C1014 0.929 . S
H1053 C1016 0.930 . S
H1054 C1022 0.929 . S
H1055 C1023 0.930 . S
H1056 C1064 0.950 . S
H1057 C1069 0.950 . S
H1058 C1066 0.950 . S
H1059 C1068 0.959 . S
H1060 C1070 0.950 . S
H1061 C1072 0.950 . S
H1062 C1074 0.959 . S
H1063 C1075 0.950 . S
C1064 H1056 0.950 . S
C1064 C1065 1.386 . S
C1064 C1066 1.391 . S
C1065 C1064 1.386 . S
C1065 C1069 1.393 . S
C1066 H1058 0.950 . S
C1066 C1064 1.391 . S
C1066 C1067 1.400 . S
C1067 C1066 1.400 . S
C1067 C1068 1.398 . S
C1067 C1073 1.491 1_566 S
C1068 H1059 0.959 . S
C1068 C1067 1.398 . S
C1068 C1069 1.391 . S
C1069 H1057 0.950 . S
C1069 C1065 1.393 . S
C1069 C1068 1.391 . S
C1070 H1060 0.950 . S
C1070 C1071 1.386 . S
C1070 C1072 1.391 . S
C1071 C1070 1.386 . S
C1071 C1075 1.393 . S
C1072 H1061 0.950 . S
C1072 C1070 1.391 . S
C1072 C1073 1.400 . S
C1073 C1067 1.491 1_544 S
C1073 C1072 1.400 . S
C1073 C1074 1.398 . S
C1074 H1062 0.959 . S
C1074 C1073 1.398 . S
C1074 C1075 1.391 . S
C1075 H1063 0.950 . S
C1075 C1071 1.393 . S
C1075 C1074 1.391 . S
H1076 C1084 0.950 . S
H1077 C1089 0.950 . S
H1078 C1086 0.950 . S
H1079 C1088 0.950 . S
H1080 C1090 0.950 . S
H1081 C1092 0.950 . S
H1082 C1094 0.950 . S
H1083 C1095 0.950 . S
C1084 H1076 0.950 . S
C1084 C1085 1.386 . S
C1084 C1086 1.391 . S
C1085 C1084 1.386 . S
C1085 C1089 1.393 . S
C1086 H1078 0.950 . S
C1086 C1084 1.391 . S
C1086 C1087 1.400 . S
C1087 C1086 1.400 . S
C1087 C1088 1.398 . S
C1087 C1093 1.491 . S
C1088 H1079 0.950 . S
C1088 C1087 1.398 . S
C1088 C1089 1.391 . S
C1089 H1077 0.950 . S
C1089 C1085 1.393 . S
C1089 C1088 1.391 . S
C1090 H1080 0.950 . S
C1090 C1091 1.386 . S
C1090 C1092 1.391 . S
C1091 C1090 1.386 . S
C1091 C1095 1.393 . S
C1092 H1081 0.950 . S
C1092 C1090 1.391 . S
C1092 C1093 1.400 . S
C1093 C1087 1.491 . S
C1093 C1092 1.400 . S
C1093 C1094 1.398 . S
C1094 H1082 0.950 . S
C1094 C1093 1.398 . S
C1094 C1095 1.391 . S
C1095 H1083 0.950 . S
C1095 C1091 1.393 . S
C1095 C1094 1.391 . S
H1096 C1104 0.950 . S
H1097 C1109 0.950 . S
H1098 C1106 0.950 . S
H1099 C1108 0.950 . S
H1100 C1110 0.950 . S
H1101 C1112 0.950 . S
H1102 C1114 0.950 . S
H1103 C1115 0.950 . S
C1104 H1096 0.950 . S
C1104 C1105 1.386 . S
C1104 C1106 1.391 . S
C1105 C1104 1.386 . S
C1105 C1109 1.393 . S
C1106 H1098 0.950 . S
C1106 C1104 1.391 . S
C1106 C1107 1.400 . S
C1107 C1106 1.400 . S
C1107 C1108 1.398 . S
C1107 C1113 1.491 1_655 S
C1108 H1099 0.950 . S
C1108 C1107 1.398 . S
C1108 C1109 1.391 . S
C1109 H1097 0.950 . S
C1109 C1105 1.393 . S
C1109 C1108 1.391 . S
C1110 H1100 0.950 . S
C1110 C1111 1.386 . S
C1110 C1112 1.391 . S
C1111 C1110 1.386 . S
C1111 C1115 1.393 . S
C1112 H1101 0.950 . S
C1112 C1110 1.391 . S
C1112 C1113 1.400 . S
C1113 C1107 1.491 1_455 S
C1113 C1112 1.400 . S
C1113 C1114 1.398 . S
C1114 H1102 0.950 . S
C1114 C1113 1.398 . S
C1114 C1115 1.391 . S
C1115 H1103 0.950 . S
C1115 C1111 1.393 . S
C1115 C1114 1.391 . S
H1116 C1124 0.950 . S
H1117 C1129 0.950 . S
H1118 C1126 0.950 . S
H1119 C1128 0.950 . S
H1120 C1130 0.950 . S
H1121 C1132 0.950 . S
H1122 C1134 0.950 . S
H1123 C1135 0.950 . S
C1124 H1116 0.950 . S
C1124 C1125 1.386 . S
C1124 C1126 1.391 . S
C1125 C1124 1.386 . S
C1125 C1129 1.393 1_554 S
C1126 H1118 0.950 . S
C1126 C1124 1.391 . S
C1126 C1127 1.400 . S
C1127 C1126 1.400 . S
C1127 C1128 1.398 1_554 S
C1127 C1133 1.491 1_564 S
C1128 H1119 0.950 . S
C1128 C1127 1.398 1_556 S
C1128 C1129 1.391 . S
C1129 H1117 0.950 . S
C1129 C1125 1.393 1_556 S
C1129 C1128 1.391 . S
C1130 H1120 0.950 . S
C1130 C1131 1.386 . S
C1130 C1132 1.391 . S
C1131 C1130 1.386 . S
C1131 C1135 1.393 1_556 S
C1132 H1121 0.950 . S
C1132 C1130 1.391 . S
C1132 C1133 1.400 . S
C1133 C1127 1.491 1_546 S
C1133 C1132 1.400 . S
C1133 C1134 1.398 1_556 S
C1134 H1122 0.950 . S
C1134 C1133 1.398 1_554 S
C1134 C1135 1.391 . S
C1135 H1123 0.950 . S
C1135 C1131 1.393 1_554 S
C1135 C1134 1.391 . S
H1136 C1144 0.950 . S
H1137 C1149 0.950 . S
H1138 C1146 0.950 . S
H1139 C1148 0.950 . S
H1140 C1150 0.950 . S
H1141 C1152 0.950 . S
H1142 C1154 0.950 . S
H1143 C1155 0.950 . S
C1144 H1136 0.950 . S
C1144 C1145 1.386 . S
C1144 C1146 1.391 . S
C1145 C1144 1.386 . S
C1145 C1149 1.393 . S
C1146 H1138 0.950 . S
C1146 C1144 1.391 . S
C1146 C1147 1.400 . S
C1147 C1146 1.400 . S
C1147 C1148 1.398 . S
C1147 C1153 1.491 . S
C1148 H1139 0.950 . S
C1148 C1147 1.398 . S
C1148 C1149 1.391 . S
C1149 H1137 0.950 . S
C1149 C1145 1.393 . S
C1149 C1148 1.391 . S
C1150 H1140 0.950 . S
C1150 C1151 1.386 . S
C1150 C1152 1.391 . S
C1151 C1150 1.386 . S
C1151 C1155 1.393 . S
C1152 H1141 0.950 . S
C1152 C1150 1.391 . S
C1152 C1153 1.400 . S
C1153 C1147 1.491 . S
C1153 C1152 1.400 . S
C1153 C1154 1.398 . S
C1154 H1142 0.950 . S
C1154 C1153 1.398 . S
C1154 C1155 1.391 . S
C1155 H1143 0.950 . S
C1155 C1151 1.393 . S
C1155 C1154 1.391 . S
H1156 C1164 0.950 . S
H1157 C1169 0.950 . S
H1158 C1166 0.950 . S
H1159 C1168 0.950 . S
H1160 C1170 0.950 . S
H1161 C1172 0.950 . S
H1162 C1174 0.950 . S
H1163 C1175 0.950 . S
C1164 H1156 0.950 . S
C1164 C1165 1.386 . S
C1164 C1166 1.391 . S
C1165 C1164 1.386 . S
C1165 C1169 1.393 . S
C1166 H1158 0.950 . S
C1166 C1164 1.391 . S
C1166 C1167 1.400 . S
C1167 C1166 1.400 . S
C1167 C1168 1.398 . S
C1167 C1173 1.491 1_655 S
C1168 H1159 0.950 . S
C1168 C1167 1.398 . S
C1168 C1169 1.391 . S
C1169 H1157 0.950 . S
C1169 C1165 1.393 . S
C1169 C1168 1.391 . S
C1170 H1160 0.950 . S
C1170 C1171 1.386 . S
C1170 C1172 1.391 . S
C1171 C1170 1.386 . S
C1171 C1175 1.393 . S
C1172 H1161 0.950 . S
C1172 C1170 1.391 . S
C1172 C1173 1.400 . S
C1173 C1167 1.491 1_455 S
C1173 C1172 1.400 . S
C1173 C1174 1.398 . S
C1174 H1162 0.950 . S
C1174 C1173 1.398 . S
C1174 C1175 1.391 . S
C1175 H1163 0.950 . S
C1175 C1171 1.393 . S
C1175 C1174 1.391 . S
H1176 C1184 0.950 . S
H1177 C1189 0.950 1_554 S
H1178 C1186 0.950 . S
H1179 C1188 0.950 . S
H1180 C1190 0.950 . S
H1181 C1192 0.950 . S
H1182 C1194 0.950 . S
H1183 C1195 0.950 1_556 S
C1184 H1176 0.950 . S
C1184 C1185 1.386 . S
C1184 C1186 1.391 . S
C1185 C1184 1.386 . S
C1185 C1189 1.393 . S
C1186 H1178 0.950 . S
C1186 C1184 1.391 . S
C1186 C1187 1.400 . S
C1187 C1186 1.400 . S
C1187 C1188 1.398 1_556 S
C1187 C1193 1.491 1_556 S
C1188 H1179 0.950 . S
C1188 C1187 1.398 1_554 S
C1188 C1189 1.391 1_554 S
C1189 H1177 0.950 1_556 S
C1189 C1185 1.393 . S
C1189 C1188 1.391 1_556 S
C1190 H1180 0.950 . S
C1190 C1191 1.386 . S
C1190 C1192 1.391 . S
C1191 C1190 1.386 . S
C1191 C1195 1.393 . S
C1192 H1181 0.950 . S
C1192 C1190 1.391 . S
C1192 C1193 1.400 . S
C1193 C1187 1.491 1_554 S
C1193 C1192 1.400 . S
C1193 C1194 1.398 1_554 S
C1194 H1182 0.950 . S
C1194 C1193 1.398 1_556 S
C1194 C1195 1.391 1_556 S
C1195 H1183 0.950 1_554 S
C1195 C1191 1.393 . S
C1195 C1194 1.391 1_554 S
H1196 C1204 0.950 . S
H1197 C1209 0.950 . S
H1198 C1206 0.950 . S
H1199 C1208 0.950 . S
H1200 C1210 0.950 . S
H1201 C1212 0.950 . S
H1202 C1214 0.950 . S
H1203 C1215 0.950 . S
C1204 H1196 0.950 . S
C1204 C1205 1.386 . S
C1204 C1206 1.391 . S
C1205 C1204 1.386 . S
C1205 C1209 1.393 . S
C1206 H1198 0.950 . S
C1206 C1204 1.391 . S
C1206 C1207 1.400 . S
C1207 C1206 1.400 . S
C1207 C1208 1.398 . S
C1207 C1213 1.491 . S
C1208 H1199 0.950 . S
C1208 C1207 1.398 . S
C1208 C1209 1.391 . S
C1209 H1197 0.950 . S
C1209 C1205 1.393 . S
C1209 C1208 1.391 . S
C1210 H1200 0.950 . S
C1210 C1211 1.386 . S
C1210 C1212 1.391 . S
C1211 C1210 1.386 . S
C1211 C1215 1.393 . S
C1212 H1201 0.950 . S
C1212 C1210 1.391 . S
C1212 C1213 1.400 . S
C1213 C1207 1.491 . S
C1213 C1212 1.400 . S
C1213 C1214 1.398 . S
C1214 H1202 0.950 . S
C1214 C1213 1.398 . S
C1214 C1215 1.391 . S
C1215 H1203 0.950 . S
C1215 C1211 1.393 . S
C1215 C1214 1.391 . S
H1216 C1224 0.950 . S
H1217 C1229 0.950 . S
H1218 C1226 0.950 . S
H1219 C1228 0.950 . S
H1220 C1230 0.950 . S
H1221 C1232 0.950 . S
H1222 C1234 0.950 . S
H1223 C1235 0.950 . S
C1224 H1216 0.950 . S
C1224 C1225 1.386 . S
C1224 C1226 1.391 . S
C1225 C1224 1.386 . S
C1225 C1229 1.393 . S
C1226 H1218 0.950 . S
C1226 C1224 1.391 . S
C1226 C1227 1.400 . S
C1227 C1226 1.400 . S
C1227 C1228 1.398 . S
C1227 C1233 1.491 . S
C1228 H1219 0.950 . S
C1228 C1227 1.398 . S
C1228 C1229 1.391 . S
C1229 H1217 0.950 . S
C1229 C1225 1.393 . S
C1229 C1228 1.391 . S
C1230 H1220 0.950 . S
C1230 C1231 1.386 . S
C1230 C1232 1.391 . S
C1231 C1230 1.386 . S
C1231 C1235 1.393 . S
C1232 H1221 0.950 . S
C1232 C1230 1.391 . S
C1232 C1233 1.400 . S
C1233 C1227 1.491 . S
C1233 C1232 1.400 . S
C1233 C1234 1.398 . S
C1234 H1222 0.950 . S
C1234 C1233 1.398 . S
C1234 C1235 1.391 . S
C1235 H1223 0.950 . S
C1235 C1231 1.393 . S
C1235 C1234 1.391 . S
H1236 C1244 0.950 . S
H1237 C1249 0.950 . S
H1238 C1246 0.950 . S
H1239 C1248 0.982 . S
H1240 C1250 0.950 . S
H1241 C1252 0.950 . S
H1242 C1254 0.982 . S
H1243 C1255 0.950 . S
C1244 H1236 0.950 . S
C1244 C1245 1.386 . S
C1244 C1246 1.391 . S
C1245 C1244 1.386 . S
C1245 C1249 1.393 . S
C1246 H1238 0.950 . S
C1246 C1244 1.391 . S
C1246 C1247 1.400 . S
C1247 C1246 1.400 . S
C1247 C1248 1.388 1_556 S
C1247 C1253 1.491 1_556 S
C1248 H1239 0.982 . S
C1248 C1247 1.388 1_554 S
C1248 C1249 1.372 1_554 S
C1249 H1237 0.950 . S
C1249 C1245 1.393 . S
C1249 C1248 1.372 1_556 S
C1250 H1240 0.950 . S
C1250 C1251 1.386 . S
C1250 C1252 1.391 . S
C1251 C1250 1.386 . S
C1251 C1255 1.393 . S
C1252 H1241 0.950 . S
C1252 C1250 1.391 . S
C1252 C1253 1.400 . S
C1253 C1247 1.491 1_554 S
C1253 C1252 1.400 . S
C1253 C1254 1.387 1_554 S
C1254 H1242 0.982 . S
C1254 C1253 1.387 1_556 S
C1254 C1255 1.372 1_556 S
C1255 H1243 0.950 . S
C1255 C1251 1.393 . S
C1255 C1254 1.372 1_554 S
H1256 C1264 0.950 . S
H1257 C1269 0.950 . S
H1258 C1266 0.950 . S
H1259 C1268 0.950 . S
H1260 C1270 0.950 . S
H1261 C1272 0.950 . S
H1262 C1274 0.950 . S
H1263 C1275 0.950 . S
C1264 H1256 0.950 . S
C1264 C1265 1.386 . S
C1264 C1266 1.391 . S
C1265 C1264 1.386 . S
C1265 C1269 1.393 . S
C1266 H1258 0.950 . S
C1266 C1264 1.391 . S
C1266 C1267 1.400 . S
C1267 C1266 1.400 . S
C1267 C1268 1.398 . S
C1267 C1273 1.491 . S
C1268 H1259 0.950 . S
C1268 C1267 1.398 . S
C1268 C1269 1.391 . S
C1269 H1257 0.950 . S
C1269 C1265 1.393 . S
C1269 C1268 1.391 . S
C1270 H1260 0.950 . S
C1270 C1271 1.386 . S
C1270 C1272 1.391 . S
C1271 C1270 1.386 . S
C1271 C1275 1.393 . S
C1272 H1261 0.950 . S
C1272 C1270 1.391 . S
C1272 C1273 1.400 . S
C1273 C1267 1.491 . S
C1273 C1272 1.400 . S
C1273 C1274 1.398 . S
C1274 H1262 0.950 . S
C1274 C1273 1.398 . S
C1274 C1275 1.391 . S
C1275 H1263 0.950 . S
C1275 C1271 1.393 . S
C1275 C1274 1.391 . S
H1276 C1284 0.950 . S
H1277 C1289 0.950 . S
H1278 C1286 0.950 . S
H1279 C1288 0.950 . S
H1280 C1290 0.950 . S
H1281 C1292 0.950 . S
H1282 C1294 0.950 . S
H1283 C1295 0.950 . S
C1284 H1276 0.950 . S
C1284 C1285 1.386 . S
C1284 C1286 1.391 . S
C1285 C1284 1.386 . S
C1285 C1289 1.393 . S
C1286 H1278 0.950 . S
C1286 C1284 1.391 . S
C1286 C1287 1.400 . S
C1287 C1286 1.400 . S
C1287 C1288 1.398 . S
C1287 C1293 1.491 . S
C1288 H1279 0.950 . S
C1288 C1287 1.398 . S
C1288 C1289 1.391 . S
C1289 H1277 0.950 . S
C1289 C1285 1.393 . S
C1289 C1288 1.391 . S
C1290 H1280 0.950 . S
C1290 C1291 1.386 . S
C1290 C1292 1.391 . S
C1291 C1290 1.386 . S
C1291 C1295 1.393 . S
C1292 H1281 0.950 . S
C1292 C1290 1.391 . S
C1292 C1293 1.400 . S
C1293 C1287 1.491 . S
C1293 C1292 1.400 . S
C1293 C1294 1.398 . S
C1294 H1282 0.950 . S
C1294 C1293 1.398 . S
C1294 C1295 1.391 . S
C1295 H1283 0.950 . S
C1295 C1291 1.393 . S
C1295 C1294 1.391 . S
H1296 C1304 0.950 . S
H1297 C1309 0.950 . S
H1298 C1306 0.950 . S
H1299 C1308 0.950 . S
H1300 C1310 0.950 . S
H1301 C1312 0.950 . S
H1302 C1314 0.950 . S
H1303 C1315 0.950 . S
C1304 H1296 0.950 . S
C1304 C1305 1.386 . S
C1304 C1306 1.391 . S
C1305 C1304 1.386 . S
C1305 C1309 1.393 . S
C1306 H1298 0.950 . S
C1306 C1304 1.391 . S
C1306 C1307 1.400 . S
C1307 C1306 1.400 . S
C1307 C1308 1.398 . S
C1307 C1313 1.491 . S
C1308 H1299 0.950 . S
C1308 C1307 1.398 . S
C1308 C1309 1.391 . S
C1309 H1297 0.950 . S
C1309 C1305 1.393 . S
C1309 C1308 1.391 . S
C1310 H1300 0.950 . S
C1310 C1311 1.386 . S
C1310 C1312 1.391 . S
C1311 C1310 1.386 . S
C1311 C1315 1.393 . S
C1312 H1301 0.950 . S
C1312 C1310 1.391 . S
C1312 C1313 1.400 . S
C1313 C1307 1.491 . S
C1313 C1312 1.400 . S
C1313 C1314 1.398 . S
C1314 H1302 0.950 . S
C1314 C1313 1.398 . S
C1314 C1315 1.391 . S
C1315 H1303 0.950 . S
C1315 C1311 1.393 . S
C1315 C1314 1.391 . S
H1316 C1324 0.950 . S
H1317 C1329 0.950 . S
H1318 C1326 0.950 . S
H1319 C1328 0.950 . S
H1320 C1330 0.950 . S
H1321 C1332 0.950 . S
H1322 C1334 0.950 . S
H1323 C1335 0.950 . S
C1324 H1316 0.950 . S
C1324 C1325 1.386 . S
C1324 C1326 1.391 . S
C1325 C1324 1.386 . S
C1325 C1329 1.393 . S
C1326 H1318 0.950 . S
C1326 C1324 1.391 . S
C1326 C1327 1.400 . S
C1327 C1326 1.400 . S
C1327 C1328 1.398 . S
C1327 C1333 1.491 . S
C1328 H1319 0.950 . S
C1328 C1327 1.398 . S
C1328 C1329 1.391 . S
C1329 H1317 0.950 . S
C1329 C1325 1.393 . S
C1329 C1328 1.391 . S
C1330 H1320 0.950 . S
C1330 C1331 1.386 . S
C1330 C1332 1.391 . S
C1331 C1330 1.386 . S
C1331 C1335 1.393 . S
C1332 H1321 0.950 . S
C1332 C1330 1.391 . S
C1332 C1333 1.400 . S
C1333 C1327 1.491 . S
C1333 C1332 1.400 . S
C1333 C1334 1.398 . S
C1334 H1322 0.950 . S
C1334 C1333 1.398 . S
C1334 C1335 1.391 . S
C1335 H1323 0.950 . S
C1335 C1331 1.393 . S
C1335 C1334 1.391 . S
H1336 C1344 0.950 . S
H1337 C1349 0.950 . S
H1338 C1346 0.950 . S
H1339 C1348 0.950 . S
H1340 C1350 0.950 . S
H1341 C1352 0.950 . S
H1342 C1354 0.950 . S
H1343 C1355 0.950 . S
C1344 H1336 0.950 . S
C1344 C1345 1.386 . S
C1344 C1346 1.391 . S
C1345 C1344 1.386 . S
C1345 C1349 1.393 . S
C1346 H1338 0.950 . S
C1346 C1344 1.391 . S
C1346 C1347 1.400 . S
C1347 C1346 1.400 . S
C1347 C1348 1.398 . S
C1347 C1353 1.491 . S
C1348 H1339 0.950 . S
C1348 C1347 1.398 . S
C1348 C1349 1.391 . S
C1349 H1337 0.950 . S
C1349 C1345 1.393 . S
C1349 C1348 1.391 . S
C1350 H1340 0.950 . S
C1350 C1351 1.386 . S
C1350 C1352 1.391 . S
C1351 C1350 1.386 . S
C1351 C1355 1.393 . S
C1352 H1341 0.950 . S
C1352 C1350 1.391 . S
C1352 C1353 1.400 . S
C1353 C1347 1.491 . S
C1353 C1352 1.400 . S
C1353 C1354 1.398 . S
C1354 H1342 0.950 . S
C1354 C1353 1.398 . S
C1354 C1355 1.391 . S
C1355 H1343 0.950 . S
C1355 C1351 1.393 . S
C1355 C1354 1.391 . S
H1356 C1364 0.950 . S
H1357 C1369 0.950 . S
H1358 C1366 0.950 . S
H1359 C1368 0.950 . S
H1360 C1370 0.950 . S
H1361 C1372 0.950 . S
H1362 C1374 0.950 . S
H1363 C1375 0.950 . S
C1364 H1356 0.950 . S
C1364 C1365 1.386 . S
C1364 C1366 1.391 . S
C1365 C1364 1.386 . S
C1365 C1369 1.393 . S
C1366 H1358 0.950 . S
C1366 C1364 1.391 . S
C1366 C1367 1.400 . S
C1367 C1366 1.400 . S
C1367 C1368 1.398 . S
C1367 C1373 1.491 . S
C1368 H1359 0.950 . S
C1368 C1367 1.398 . S
C1368 C1369 1.391 . S
C1369 H1357 0.950 . S
C1369 C1365 1.393 . S
C1369 C1368 1.391 . S
C1370 H1360 0.950 . S
C1370 C1371 1.386 . S
C1370 C1372 1.391 . S
C1371 C1370 1.386 . S
C1371 C1375 1.393 . S
C1372 H1361 0.950 . S
C1372 C1370 1.391 . S
C1372 C1373 1.400 . S
C1373 C1367 1.491 . S
C1373 C1372 1.400 . S
C1373 C1374 1.398 . S
C1374 H1362 0.950 . S
C1374 C1373 1.398 . S
C1374 C1375 1.391 . S
C1375 H1363 0.950 . S
C1375 C1371 1.393 . S
C1375 C1374 1.391 . S
H1376 C1384 0.950 . S
H1377 C1389 0.950 . S
H1378 C1386 0.950 . S
H1379 C1388 0.950 . S
H1380 C1390 0.950 . S
H1381 C1392 0.950 . S
H1382 C1394 0.950 . S
H1383 C1395 0.950 . S
C1384 H1376 0.950 . S
C1384 C1385 1.386 . S
C1384 C1386 1.391 . S
C1385 C1384 1.386 . S
C1385 C1389 1.393 . S
C1386 H1378 0.950 . S
C1386 C1384 1.391 . S
C1386 C1387 1.400 . S
C1387 C1386 1.400 . S
C1387 C1388 1.398 . S
C1387 C1393 1.491 . S
C1388 H1379 0.950 . S
C1388 C1387 1.398 . S
C1388 C1389 1.391 . S
C1389 H1377 0.950 . S
C1389 C1385 1.393 . S
C1389 C1388 1.391 . S
C1390 H1380 0.950 . S
C1390 C1391 1.386 . S
C1390 C1392 1.391 . S
C1391 C1390 1.386 . S
C1391 C1395 1.393 . S
C1392 H1381 0.950 . S
C1392 C1390 1.391 . S
C1392 C1393 1.400 . S
C1393 C1387 1.491 . S
C1393 C1392 1.400 . S
C1393 C1394 1.398 . S
C1394 H1382 0.950 . S
C1394 C1393 1.398 . S
C1394 C1395 1.391 . S
C1395 H1383 0.950 . S
C1395 C1391 1.393 . S
C1395 C1394 1.391 . S
H1396 C1404 0.950 . S
H1397 C1409 0.950 . S
H1398 C1406 0.950 . S
H1399 C1408 0.950 . S
H1400 C1410 0.950 . S
H1401 C1412 0.950 . S
H1402 C1414 0.950 . S
H1403 C1415 0.950 . S
C1404 H1396 0.950 . S
C1404 C1405 1.386 . S
C1404 C1406 1.391 . S
C1405 C1404 1.386 . S
C1405 C1409 1.393 . S
C1406 H1398 0.950 . S
C1406 C1404 1.391 . S
C1406 C1407 1.400 . S
C1407 C1406 1.400 . S
C1407 C1408 1.398 . S
C1407 C1413 1.491 . S
C1408 H1399 0.950 . S
C1408 C1407 1.398 . S
C1408 C1409 1.391 . S
C1409 H1397 0.950 . S
C1409 C1405 1.393 . S
C1409 C1408 1.391 . S
C1410 H1400 0.950 . S
C1410 C1411 1.386 . S
C1410 C1412 1.391 . S
C1411 C1410 1.386 . S
C1411 C1415 1.393 . S
C1412 H1401 0.950 . S
C1412 C1410 1.391 . S
C1412 C1413 1.400 . S
C1413 C1407 1.491 . S
C1413 C1412 1.400 . S
C1413 C1414 1.398 . S
C1414 H1402 0.950 . S
C1414 C1413 1.398 . S
C1414 C1415 1.391 . S
C1415 H1403 0.950 . S
C1415 C1411 1.393 . S
C1415 C1414 1.391 . S
H1416 C1424 0.950 . S
H1417 C1429 0.950 . S
H1418 C1426 0.950 . S
H1419 C1428 0.950 . S
H1420 C1430 0.950 . S
H1421 C1432 0.950 . S
H1422 C1434 0.950 . S
H1423 C1435 0.950 . S
C1424 H1416 0.950 . S
C1424 C1425 1.386 . S
C1424 C1426 1.391 . S
C1425 C1424 1.386 . S
C1425 C1429 1.393 . S
C1426 H1418 0.950 . S
C1426 C1424 1.391 . S
C1426 C1427 1.400 . S
C1427 C1426 1.400 . S
C1427 C1428 1.398 . S
C1427 C1433 1.491 . S
C1428 H1419 0.950 . S
C1428 C1427 1.398 . S
C1428 C1429 1.391 . S
C1429 H1417 0.950 . S
C1429 C1425 1.393 . S
C1429 C1428 1.391 . S
C1430 H1420 0.950 . S
C1430 C1431 1.386 . S
C1430 C1432 1.391 . S
C1431 C1430 1.386 . S
C1431 C1435 1.393 . S
C1432 H1421 0.950 . S
C1432 C1430 1.391 . S
C1432 C1433 1.400 . S
C1433 C1427 1.491 . S
C1433 C1432 1.400 . S
C1433 C1434 1.398 . S
C1434 H1422 0.950 . S
C1434 C1433 1.398 . S
C1434 C1435 1.391 . S
C1435 H1423 0.950 . S
C1435 C1431 1.393 . S
C1435 C1434 1.391 . S
H1436 C1444 0.950 . S
H1437 C1449 0.950 . S
H1438 C1446 0.950 . S
H1439 C1448 0.950 . S
H1440 C1450 0.950 . S
H1441 C1452 0.950 . S
H1442 C1454 0.950 . S
H1443 C1455 0.950 . S
C1444 H1436 0.950 . S
C1444 C1445 1.386 1_455 S
C1444 C1446 1.391 . S
C1445 C1444 1.386 1_655 S
C1445 C1449 1.393 . S
C1446 H1438 0.950 . S
C1446 C1444 1.391 . S
C1446 C1447 1.400 1_455 S
C1447 C1446 1.400 1_655 S
C1447 C1448 1.398 . S
C1447 C1453 1.491 1_655 S
C1448 H1439 0.950 . S
C1448 C1447 1.398 . S
C1448 C1449 1.391 . S
C1449 H1437 0.950 . S
C1449 C1445 1.393 . S
C1449 C1448 1.391 . S
C1450 H1440 0.950 . S
C1450 C1451 1.386 1_655 S
C1450 C1452 1.391 . S
C1451 C1450 1.386 1_455 S
C1451 C1455 1.393 . S
C1452 H1441 0.950 . S
C1452 C1450 1.391 . S
C1452 C1453 1.400 1_655 S
C1453 C1447 1.491 1_455 S
C1453 C1452 1.400 1_455 S
C1453 C1454 1.398 . S
C1454 H1442 0.950 . S
C1454 C1453 1.398 . S
C1454 C1455 1.391 . S
C1455 H1443 0.950 . S
C1455 C1451 1.393 . S
C1455 C1454 1.391 . S
H1456 C1464 0.950 . S
H1457 C1469 0.950 . S
H1458 C1466 0.950 . S
H1459 C1468 0.950 . S
H1460 C1470 0.950 . S
H1461 C1472 0.950 . S
H1462 C1474 0.950 . S
H1463 C1475 0.950 . S
C1464 H1456 0.950 . S
C1464 C1465 1.386 1_565 S
C1464 C1466 1.391 . S
C1465 C1464 1.386 1_545 S
C1465 C1469 1.393 . S
C1466 H1458 0.950 . S
C1466 C1464 1.391 . S
C1466 C1467 1.400 1_565 S
C1467 C1466 1.400 1_545 S
C1467 C1468 1.398 . S
C1467 C1473 1.491 1_545 S
C1468 H1459 0.950 . S
C1468 C1467 1.398 . S
C1468 C1469 1.391 . S
C1469 H1457 0.950 . S
C1469 C1465 1.393 . S
C1469 C1468 1.391 . S
C1470 H1460 0.950 . S
C1470 C1471 1.386 1_545 S
C1470 C1472 1.391 . S
C1471 C1470 1.386 1_565 S
C1471 C1475 1.393 . S
C1472 H1461 0.950 . S
C1472 C1470 1.391 . S
C1472 C1473 1.400 1_545 S
C1473 C1467 1.491 1_565 S
C1473 C1472 1.400 1_565 S
C1473 C1474 1.398 . S
C1474 H1462 0.950 . S
C1474 C1473 1.398 . S
C1474 C1475 1.391 . S
C1475 H1463 0.950 . S
C1475 C1471 1.393 . S
C1475 C1474 1.391 . S
H1476 C1484 0.950 . S
H1477 C1489 0.950 . S
H1478 C1486 0.950 . S
H1479 C1488 0.950 . S
H1480 C1490 0.950 . S
H1481 C1492 0.950 . S
H1482 C1494 0.950 . S
H1483 C1495 0.950 . S
C1484 H1476 0.950 . S
C1484 C1485 1.386 . S
C1484 C1486 1.391 . S
C1485 C1484 1.386 . S
C1485 C1489 1.393 . S
C1486 H1478 0.950 . S
C1486 C1484 1.391 . S
C1486 C1487 1.400 . S
C1487 C1486 1.400 . S
C1487 C1488 1.398 . S
C1487 C1493 1.491 . S
C1488 H1479 0.950 . S
C1488 C1487 1.398 . S
C1488 C1489 1.391 . S
C1489 H1477 0.950 . S
C1489 C1485 1.393 . S
C1489 C1488 1.391 . S
C1490 H1480 0.950 . S
C1490 C1491 1.386 . S
C1490 C1492 1.391 . S
C1491 C1490 1.386 . S
C1491 C1495 1.393 . S
C1492 H1481 0.950 . S
C1492 C1490 1.391 . S
C1492 C1493 1.400 . S
C1493 C1487 1.491 . S
C1493 C1492 1.400 . S
C1493 C1494 1.398 . S
C1494 H1482 0.950 . S
C1494 C1493 1.398 . S
C1494 C1495 1.391 . S
C1495 H1483 0.950 . S
C1495 C1491 1.393 . S
C1495 C1494 1.391 . S
H1496 C1504 0.950 . S
H1497 C1509 0.950 . S
H1498 C1506 0.950 . S
H1499 C1508 0.953 1_655 S
H1500 C1510 0.950 . S
H1501 C1512 0.950 . S
H1502 C1514 0.953 1_455 S
H1503 C1515 0.950 . S
C1504 H1496 0.950 . S
C1504 C1505 1.386 . S
C1504 C1506 1.391 . S
C1505 C1504 1.386 . S
C1505 C1509 1.393 . S
C1506 H1498 0.950 . S
C1506 C1504 1.391 . S
C1506 C1507 1.400 . S
C1507 C1506 1.400 . S
C1507 C1508 1.398 . S
C1507 C1513 1.491 1_455 S
C1508 H1499 0.953 1_455 S
C1508 C1507 1.398 . S
C1508 C1509 1.391 . S
C1509 H1497 0.950 . S
C1509 C1505 1.393 . S
C1509 C1508 1.391 . S
C1510 H1500 0.950 . S
C1510 C1511 1.386 . S
C1510 C1512 1.391 . S
C1511 C1510 1.386 . S
C1511 C1515 1.393 . S
C1512 H1501 0.950 . S
C1512 C1510 1.391 . S
C1512 C1513 1.400 . S
C1513 C1507 1.491 1_655 S
C1513 C1512 1.400 . S
C1513 C1514 1.398 . S
C1514 H1502 0.953 1_655 S
C1514 C1513 1.398 . S
C1514 C1515 1.391 . S
C1515 H1503 0.950 . S
C1515 C1511 1.393 . S
C1515 C1514 1.391 . S
H1516 C1524 0.950 . S
H1517 C1529 0.950 . S
H1518 C1526 0.950 . S
H1519 C1528 0.950 . S
H1520 C1530 0.950 . S
H1521 C1532 0.950 . S
H1522 C1534 0.950 . S
H1523 C1535 0.950 . S
C1524 H1516 0.950 . S
C1524 C1525 1.386 . S
C1524 C1526 1.391 . S
C1525 C1524 1.386 . S
C1525 C1529 1.393 1_565 S
C1526 H1518 0.950 . S
C1526 C1524 1.391 . S
C1526 C1527 1.400 . S
C1527 C1526 1.400 . S
C1527 C1528 1.398 1_565 S
C1527 C1533 1.491 1_565 S
C1528 H1519 0.950 . S
C1528 C1527 1.398 1_545 S
C1528 C1529 1.391 . S
C1529 H1517 0.950 . S
C1529 C1525 1.393 1_545 S
C1529 C1528 1.391 . S
C1530 H1520 0.950 . S
C1530 C1531 1.386 . S
C1530 C1532 1.391 . S
C1531 C1530 1.386 . S
C1531 C1535 1.393 1_545 S
C1532 H1521 0.950 . S
C1532 C1530 1.391 . S
C1532 C1533 1.400 . S
C1533 C1527 1.491 1_545 S
C1533 C1532 1.400 . S
C1533 C1534 1.398 1_545 S
C1534 H1522 0.950 . S
C1534 C1533 1.398 1_565 S
C1534 C1535 1.391 . S
C1535 H1523 0.950 . S
C1535 C1531 1.393 1_565 S
C1535 C1534 1.391 . S
C1065 C673 1.464 . S
C1071 C29 1.459 . S
C1085 C137 1.462 . S
C1091 C753 1.481 . S
C1105 C233 1.465 . S
C1111 C849 1.459 . S
C1125 C284 1.480 . S
C1131 C929 1.469 . S
C1145 C1025 1.471 . S
C1151 C372 1.456 . S
C1165 C557 1.471 . S
C1171 C460 1.456 . S
C1185 C909 0.940 . S
C1191 C49 0.944 . S
C1205 C117 0.943 . S
C1211 C988 0.947 . S
C1225 C196 0.944 . S
C1231 C577 0.940 . S
C1245 C636 0.940 . S
C1251 C321 0.942 . S
C1265 C733 0.941 . S
C1271 C409 0.946 . S
C1285 C812 0.945 . S
C1291 C497 0.940 . S
C1305 C20 1.661 . S
C1311 C761 1.665 . S
C1325 C145 1.660 . S
C1331 C841 1.663 . S
C1345 C937 1.664 . S
C1351 C225 1.663 . S
C1365 C293 1.664 . S
C1371 C1017 1.660 . S
C1385 C548 1.665 . S
C1391 C381 1.663 . S
C1405 C665 1.665 . S
C1411 C469 1.662 . S
C1425 C313 1.821 . S
C1431 C57 1.826 . S
C1445 C401 1.820 . S
C1451 C108 1.824 . S
C1465 C205 1.823 . S
C1471 C489 1.829 . S
C1485 C585 1.822 . S
C1491 C821 1.827 . S
C1505 C645 1.849 . S
C1511 C900 1.850 . S
C1525 C997 1.829 . S
C1531 C724 1.823 . S
