# Generated by pormake.
# Topology une, (4)-cn, num edge types: 1
# Building blocks:
#     Node 0, Type 0, BuildingBlock: ICAMEG_clean_sbu_1, # of connection points: 4
#     Node 1, Type 0, BuildingBlock: ICAMEG_clean_sbu_1, # of connection points: 4
#     Node 2, Type 0, BuildingBlock: ICAMEG_clean_sbu_1, # of connection points: 4
#     Node 3, Type 0, BuildingBlock: ICAMEG_clean_sbu_1, # of connection points: 4
#     Node 4, Type 0, BuildingBlock: ICAMEG_clean_sbu_1, # of connection points: 4
#     Node 5, Type 0, BuildingBlock: ICAMEG_clean_sbu_1, # of connection points: 4
#     Node 6, Type 0, BuildingBlock: ICAMEG_clean_sbu_1, # of connection points: 4
#     Node 7, Type 0, BuildingBlock: ICAMEG_clean_sbu_1, # of connection points: 4
#     Node 8, Type 0, BuildingBlock: ICAMEG_clean_sbu_1, # of connection points: 4
#     Node 9, Type 0, BuildingBlock: ICAMEG_clean_sbu_1, # of connection points: 4
#     Node 10, Type 0, BuildingBlock: ICAMEG_clean_sbu_1, # of connection points: 4
#     Node 11, Type 0, BuildingBlock: ICAMEG_clean_sbu_1, # of connection points: 4
#     Node 12, Type 0, BuildingBlock: ICAMEG_clean_sbu_1, # of connection points: 4
#     Node 13, Type 0, BuildingBlock: ICAMEG_clean_sbu_1, # of connection points: 4
#     Node 14, Type 0, BuildingBlock: ICAMEG_clean_sbu_1, # of connection points: 4
#     Node 15, Type 0, BuildingBlock: ICAMEG_clean_sbu_1, # of connection points: 4
#     Node 16, Type 0, BuildingBlock: ICAMEG_clean_sbu_1, # of connection points: 4
#     Node 17, Type 0, BuildingBlock: ICAMEG_clean_sbu_1, # of connection points: 4
#     Edge 18, Type (0, 0), BuildingBlock: XIVTED_clean_linker_0, # of connection points: 2
#     Edge 19, Type (0, 0), BuildingBlock: XIVTED_clean_linker_0, # of connection points: 2
#     Edge 20, Type (0, 0), BuildingBlock: XIVTED_clean_linker_0, # of connection points: 2
#     Edge 21, Type (0, 0), BuildingBlock: XIVTED_clean_linker_0, # of connection points: 2
#     Edge 22, Type (0, 0), BuildingBlock: XIVTED_clean_linker_0, # of connection points: 2
#     Edge 23, Type (0, 0), BuildingBlock: XIVTED_clean_linker_0, # of connection points: 2
#     Edge 24, Type (0, 0), BuildingBlock: XIVTED_clean_linker_0, # of connection points: 2
#     Edge 25, Type (0, 0), BuildingBlock: XIVTED_clean_linker_0, # of connection points: 2
#     Edge 26, Type (0, 0), BuildingBlock: XIVTED_clean_linker_0, # of connection points: 2
#     Edge 27, Type (0, 0), BuildingBlock: XIVTED_clean_linker_0, # of connection points: 2
#     Edge 28, Type (0, 0), BuildingBlock: XIVTED_clean_linker_0, # of connection points: 2
#     Edge 29, Type (0, 0), BuildingBlock: XIVTED_clean_linker_0, # of connection points: 2
#     Edge 30, Type (0, 0), BuildingBlock: XIVTED_clean_linker_0, # of connection points: 2
#     Edge 31, Type (0, 0), BuildingBlock: XIVTED_clean_linker_0, # of connection points: 2
#     Edge 32, Type (0, 0), BuildingBlock: XIVTED_clean_linker_0, # of connection points: 2
#     Edge 33, Type (0, 0), BuildingBlock: XIVTED_clean_linker_0, # of connection points: 2
#     Edge 34, Type (0, 0), BuildingBlock: XIVTED_clean_linker_0, # of connection points: 2
#     Edge 35, Type (0, 0), BuildingBlock: XIVTED_clean_linker_0, # of connection points: 2
#     Edge 36, Type (0, 0), BuildingBlock: XIVTED_clean_linker_0, # of connection points: 2
#     Edge 37, Type (0, 0), BuildingBlock: XIVTED_clean_linker_0, # of connection points: 2
#     Edge 38, Type (0, 0), BuildingBlock: XIVTED_clean_linker_0, # of connection points: 2
#     Edge 39, Type (0, 0), BuildingBlock: XIVTED_clean_linker_0, # of connection points: 2
#     Edge 40, Type (0, 0), BuildingBlock: XIVTED_clean_linker_0, # of connection points: 2
#     Edge 41, Type (0, 0), BuildingBlock: XIVTED_clean_linker_0, # of connection points: 2
#     Edge 42, Type (0, 0), BuildingBlock: XIVTED_clean_linker_0, # of connection points: 2
#     Edge 43, Type (0, 0), BuildingBlock: XIVTED_clean_linker_0, # of connection points: 2
#     Edge 44, Type (0, 0), BuildingBlock: XIVTED_clean_linker_0, # of connection points: 2
#     Edge 45, Type (0, 0), BuildingBlock: XIVTED_clean_linker_0, # of connection points: 2
#     Edge 46, Type (0, 0), BuildingBlock: XIVTED_clean_linker_0, # of connection points: 2
#     Edge 47, Type (0, 0), BuildingBlock: XIVTED_clean_linker_0, # of connection points: 2
#     Edge 48, Type (0, 0), BuildingBlock: XIVTED_clean_linker_0, # of connection points: 2
#     Edge 49, Type (0, 0), BuildingBlock: XIVTED_clean_linker_0, # of connection points: 2
#     Edge 50, Type (0, 0), BuildingBlock: XIVTED_clean_linker_0, # of connection points: 2
#     Edge 51, Type (0, 0), BuildingBlock: XIVTED_clean_linker_0, # of connection points: 2
#     Edge 52, Type (0, 0), BuildingBlock: XIVTED_clean_linker_0, # of connection points: 2
#     Edge 53, Type (0, 0), BuildingBlock: XIVTED_clean_linker_0, # of connection points: 2
# Relax obj value: 0.324
# Max RMSD: 0.226
# Mean RMSD: 0.209
data_MOF--net-une--node1-ICAMEG_clean_sbu_1--edge1-XIVTED_clean_linker_0
_symmetry_space_group_name_H-M    P1
_symmetry_Int_Tables_number       1
_symmetry_cell_setting            triclinic
loop_
_symmetry_equiv_pos_as_xyz
'x, y, z'
_cell_length_a     38.618055
_cell_length_b     39.886537
_cell_length_c     57.617948
_cell_angle_alpha  89.534583
_cell_angle_beta   89.207888
_cell_angle_gamma 119.475506
loop_
_atom_site_label
_atom_site_type_symbol
_atom_site_fract_x
_atom_site_fract_y
_atom_site_fract_z
_atom_type_partial_charge
Co0 Co 0.39867 0.07079 0.0464 0.0
Co1 Co 0.35417 1.0022 0.08907 0.0
O2 O 0.37548 0.05495 0.07742 0.0
C3 C 0.34257 0.10061 0.05006 0.0
O4 O 0.31451 0.06532 0.05504 0.0
C5 C 0.38386 0.05732 0.1293 0.0
O6 O 0.41234 0.08392 0.11623 0.0
O7 O 0.4076 1.00484 0.08245 0.0
O8 O 0.41999 0.03413 0.0474 0.0
H9 H 0.33232 0.86709 0.08773 0.0
H10 H 0.41788 0.13293 0.08043 0.0
O11 O 0.37771 0.10757 0.04506 0.0
H12 H 0.54689 0.14494 0.05713 0.0
H13 H 0.4694 0.167 0.98149 0.0
H14 H 0.40302 0.02972 1.00471 0.0
H15 H 0.48464 0.09461 0.0405 0.0
H16 H 0.44134 0.14629 0.0211 0.0
O17 O 0.36613 0.02233 0.12242 0.0
H18 H 0.35711 0.93316 0.07275 0.0
H19 H 0.30696 0.95891 0.13136 0.0
H20 H 0.43091 0.04918 0.96499 0.0
H21 H 0.47948 0.18408 0.09718 0.0
H22 H 0.46442 0.11828 0.95316 0.0
H23 H 0.54459 0.19023 0.08563 0.0
O24 O 0.34886 0.02965 0.03297 0.0
H25 H 0.25881 0.04941 0.11165 0.0
H26 H 0.27135 0.94198 0.07895 0.0
H27 H 0.20497 0.93576 0.08364 0.0
H28 H 0.19828 0.98957 0.10031 0.0
H29 H 0.32448 0.05484 0.10614 0.0
H30 H 0.28193 0.8932 0.14707 0.0
H31 H 0.29444 0.84669 0.12517 0.0
O32 O 0.33845 0.981 0.05713 0.0
C33 C 0.42457 0.01247 0.06207 0.0
C34 C 0.32672 0.8871 0.09745 0.0
C35 C 0.29852 0.90178 0.13077 0.0
N36 N 0.33379 0.95009 0.1012 0.0
C37 C 0.34071 0.92461 0.08905 0.0
C38 C 0.31302 0.93908 0.12185 0.0
C39 C 0.3055 0.87569 0.11846 0.0
C40 C 0.44608 0.13555 0.07516 0.0
N41 N 0.44755 0.11058 0.0596 0.0
C42 C 0.48088 0.16451 0.08478 0.0
C43 C 0.51739 0.16792 0.07832 0.0
C44 C 0.51869 0.14247 0.06237 0.0
C45 C 0.48328 0.11384 0.05312 0.0
C46 C 0.45495 0.13682 0.98646 0.0
C47 C 0.41773 0.05986 0.99974 0.0
C48 C 0.43895 0.12491 1.00885 0.0
N49 N 0.42088 0.08686 1.01527 0.0
C50 C 0.43339 0.0707 0.9772 0.0
C51 C 0.45215 0.10947 0.97057 0.0
C52 C 0.33267 0.99389 0.03807 0.0
C53 C 0.26124 0.02548 0.10474 0.0
C54 C 0.26881 0.96549 0.08639 0.0
C55 C 0.23107 0.9618 0.08894 0.0
C56 C 0.22733 0.99198 0.09829 0.0
N57 N 0.30201 0.99815 0.09318 0.0
C58 C 0.2985 0.02814 0.10192 0.0
Co59 Co 0.88593 0.28411 1.00076 0.0
Co60 Co 0.90315 0.31036 0.05729 0.0
O61 O 0.8726 0.27259 0.03373 0.0
C62 C 0.87567 0.20563 1.00672 0.0
O63 O 0.90128 0.21812 0.02357 0.0
C64 C 0.82107 0.25416 0.07849 0.0
O65 O 0.80528 0.24328 0.05801 0.0
O66 O 0.88932 0.3487 0.04184 0.0
O67 O 0.9034 0.3399 1.00506 0.0
H68 H 0.99919 0.44316 0.08495 0.0
H69 H 0.80511 0.22122 1.01387 0.0
O70 O 0.86793 0.22866 0.9955 0.0
H71 H 0.78378 0.31451 0.9684 0.0
H72 H 0.8657 0.25753 0.91529 0.0
H73 H 0.95388 0.34627 0.97424 0.0
H74 H 0.85163 0.32605 0.97513 0.0
H75 H 0.84801 0.24445 0.95694 0.0
O76 O 0.85484 0.2853 0.08009 0.0
H77 H 0.96169 0.39394 0.05599 0.0
H78 H 0.90808 0.30878 0.10921 0.0
H79 H 0.97256 0.36061 0.93277 0.0
H80 H 0.7367 0.20833 1.00734 0.0
H81 H 0.9283 0.31606 0.90296 0.0
H82 H 0.72569 0.25524 0.98451 0.0
O83 O 0.94065 0.29425 1.00704 0.0
H84 H 0.88538 0.18084 0.08225 0.0
H85 H 0.97952 0.32005 0.07512 0.0
H86 H 1.00204 0.27712 0.09154 0.0
H87 H 0.95473 0.20697 0.09549 0.0
H88 H 0.86441 0.22442 0.06537 0.0
H89 H 0.94449 0.35698 0.13884 0.0
H90 H 0.99069 0.42481 0.12679 0.0
O91 O 0.9526 0.33341 0.0371 0.0
C92 C 0.89859 0.36023 1.02038 0.0
C93 C 0.97911 0.41372 0.09044 0.0
C94 C 0.94836 0.3654 0.12067 0.0
N95 N 0.93242 0.34843 0.08076 0.0
C96 C 0.95777 0.3857 0.07407 0.0
C97 C 0.92752 0.3382 0.10378 0.0
C98 C 0.97431 0.40342 0.1139 0.0
C99 C 0.80058 0.24173 1.00388 0.0
N100 N 0.83238 0.27447 0.99506 0.0
C101 C 0.76176 0.23429 1.00025 0.0
C102 C 0.75561 0.26063 0.98745 0.0
C103 C 0.78818 0.2939 0.97843 0.0
C104 C 0.82656 0.30037 0.98241 0.0
C105 C 0.88521 0.27718 0.92811 0.0
C106 C 0.93438 0.32684 0.96138 0.0
C107 C 0.8754 0.26988 0.95172 0.0
N108 N 0.89979 0.2947 0.968 0.0
C109 C 0.94516 0.33506 0.93792 0.0
C110 C 0.92033 0.31004 0.9212 0.0
C111 C 0.96442 0.31915 0.02114 0.0
C112 C 0.90608 0.21146 0.08107 0.0
C113 C 0.95847 0.28966 0.07696 0.0
C114 C 0.97153 0.26543 0.08621 0.0
C115 C 0.94502 0.2261 0.0884 0.0
N116 N 0.91989 0.27533 0.07033 0.0
C117 C 0.89412 0.23656 0.07185 0.0
Co118 Co 0.75124 0.6171 0.10025 0.0
Co119 Co 0.75075 0.69172 0.13069 0.0
O120 O 0.76943 0.65469 0.1252 0.0
C121 C 0.83761 0.66009 0.09173 0.0
O122 O 0.83531 0.69145 0.095 0.0
C123 C 0.77 0.66935 0.17732 0.0
O124 O 0.76424 0.63642 0.16922 0.0
O125 O 0.69197 0.64895 0.12892 0.0
O126 O 0.69578 0.60718 0.10434 0.0
H127 H 0.66658 0.75305 0.11463 0.0
H128 H 0.79984 0.60859 0.13679 0.0
O129 O 0.80677 0.62719 0.0946 0.0
H130 H 0.67034 0.48892 0.14123 0.0
H131 H 0.74805 0.50861 0.05451 0.0
H132 H 0.69509 0.59822 0.06141 0.0
H133 H 0.68272 0.53968 0.11228 0.0
H134 H 0.76975 0.55584 0.08597 0.0
O135 O 0.75581 0.68778 0.16615 0.0
H136 H 0.69187 0.70789 0.10813 0.0
H137 H 0.76981 0.75475 0.16478 0.0
H138 H 0.67232 0.55124 0.02983 0.0
H139 H 0.78908 0.55831 0.16574 0.0
H140 H 0.69887 0.50601 0.02621 0.0
H141 H 0.72384 0.49803 0.16818 0.0
O142 O 0.76059 0.65745 0.07671 0.0
H143 H 0.89772 0.75343 0.14713 0.0
H144 H 0.79314 0.77137 0.11076 0.0
H145 H 0.86226 0.82446 0.1095 0.0
H146 H 0.91518 0.81592 0.12799 0.0
H147 H 0.82874 0.70087 0.14743 0.0
H148 H 0.74503 0.80005 0.17205 0.0
H149 H 0.69314 0.79954 0.14683 0.0
O150 O 0.7499 0.70008 0.09655 0.0
C151 C 0.67574 0.62016 0.11492 0.0
C152 C 0.68909 0.75345 0.12581 0.0
C153 C 0.73304 0.77977 0.15805 0.0
N154 N 0.73191 0.72818 0.13622 0.0
C155 C 0.70349 0.72788 0.12223 0.0
C156 C 0.74671 0.75374 0.15397 0.0
C157 C 0.70399 0.77952 0.14387 0.0
C158 C 0.77148 0.58232 0.13763 0.0
N159 N 0.74178 0.57725 0.12303 0.0
C160 C 0.76551 0.55401 0.15412 0.0
C161 C 0.72888 0.52023 0.1555 0.0
C162 C 0.69882 0.51514 0.14043 0.0
C163 C 0.70587 0.54412 0.12419 0.0
C164 C 0.73625 0.52816 0.05591 0.0
C165 C 0.70668 0.57856 0.06003 0.0
C166 C 0.74851 0.55504 0.07365 0.0
N167 N 0.73363 0.57972 0.07558 0.0
C168 C 0.69372 0.55205 0.04207 0.0
C169 C 0.70865 0.5267 0.04004 0.0
C170 C 0.75688 0.68739 0.07783 0.0
C171 C 0.87483 0.7578 0.13939 0.0
C172 C 0.81575 0.76734 0.11908 0.0
C173 C 0.85497 0.79758 0.11822 0.0
C174 C 0.88464 0.79277 0.12857 0.0
N175 N 0.80603 0.73329 0.13019 0.0
C176 C 0.8353 0.72818 0.13987 0.0
Co177 Co 0.61579 0.85106 0.99691 0.0
Co178 Co 0.61608 0.88863 0.94358 0.0
O179 O 0.61786 0.84963 0.9633 0.0
C180 C 0.68654 0.84186 0.98839 0.0
O181 O 0.70425 0.87528 0.97742 0.0
C182 C 0.58362 0.81357 0.91742 0.0
O183 O 0.56963 0.79277 0.93651 0.0
O184 O 0.56316 0.87697 0.95894 0.0
O185 O 0.57869 0.87269 0.996 0.0
H186 H 0.59402 1.00066 0.9271 0.0
H187 H 0.59845 0.7773 0.97508 0.0
O188 O 0.65232 0.82914 0.99792 0.0
H189 H 0.47838 0.74745 0.02167 0.0
H190 H 0.61223 0.80022 0.07768 0.0
H191 H 0.61833 0.90736 0.03111 0.0
H192 H 0.53604 0.81308 1.02063 0.0
H193 H 0.61249 0.7983 0.03489 0.0
O194 O 0.59244 0.84913 0.91752 0.0
H195 H 0.59887 0.95245 0.95171 0.0
H196 H 0.6274 0.90723 0.89256 0.0
H197 H 0.61775 0.91031 0.07385 0.0
H198 H 0.5418 0.71108 0.97594 0.0
H199 H 0.6147 0.85646 0.09743 0.0
H200 H 0.48108 0.69581 0.99928 0.0
O201 O 0.66199 0.90423 0.99617 0.0
H202 H 0.72429 0.86219 0.91466 0.0
H203 H 0.6886 0.96269 0.9306 0.0
H204 H 0.7553 0.98131 0.91491 0.0
H205 H 0.7735 0.93089 0.90658 0.0
H206 H 0.65838 0.84487 0.93077 0.0
H207 H 0.62251 0.95472 0.86729 0.0
H208 H 0.60584 1.00202 0.88454 0.0
O209 O 0.64307 0.92926 0.96739 0.0
C210 C 0.55788 0.87851 0.98109 0.0
C211 C 0.60118 0.98013 0.91936 0.0
C212 C 0.61709 0.9543 0.8858 0.0
N213 N 0.61297 0.92663 0.92364 0.0
C214 C 0.60392 0.95267 0.93322 0.0
C215 C 0.61951 0.92722 0.90021 0.0
C216 C 0.6078 0.98087 0.89549 0.0
C217 C 0.57227 0.77089 0.98539 0.0
N218 N 0.57047 0.79921 0.9976 0.0
C219 C 0.54021 0.73333 0.98575 0.0
C220 C 0.50615 0.72479 0.99881 0.0
C221 C 0.50458 0.75377 1.01134 0.0
C222 C 0.53722 0.79099 1.01054 0.0
C223 C 0.61348 0.82382 0.06759 0.0
C224 C 0.61673 0.88371 0.04125 0.0
C225 C 0.61372 0.82293 0.04336 0.0
N226 N 0.61509 0.85255 0.03053 0.0
C227 C 0.61653 0.88559 0.06545 0.0
C228 C 0.61486 0.85538 0.07866 0.0
C229 C 0.66551 0.93291 0.98435 0.0
C230 C 0.71652 0.88441 0.91784 0.0
C231 C 0.69594 0.94042 0.92684 0.0
C232 C 0.73394 0.95122 0.91803 0.0
C233 C 0.74415 0.92294 0.91338 0.0
N234 N 0.66854 0.90246 0.9307 0.0
C235 C 0.67884 0.87471 0.92672 0.0
Co236 Co 0.09633 0.6894 0.94507 0.0
Co237 Co 0.01706 0.67999 0.91356 0.0
O238 O 0.07414 0.70415 0.9194 0.0
C239 C 0.13207 0.77317 0.95071 0.0
O240 O 0.09612 0.76851 0.94899 0.0
C241 C 0.06282 0.7043 0.86738 0.0
O242 O 0.09037 0.69786 0.87584 0.0
O243 O 0.01143 0.62602 0.91406 0.0
O244 O 0.0548 0.63423 0.94213 0.0
H245 H 0.87217 0.58369 0.92663 0.0
H246 H 0.15252 0.738 0.90752 0.0
O247 O 0.13768 0.74439 0.94904 0.0
H248 H 0.15935 0.61778 0.9083 0.0
H249 H 0.20745 0.69534 0.99275 0.0
H250 H 0.06199 0.63577 0.98555 0.0
H251 H 0.11543 0.6267 0.93599 0.0
H252 H 0.17872 0.71296 0.96003 0.0
O253 O 0.02935 0.69088 0.87842 0.0
H254 H 0.94385 0.61454 0.93431 0.0
H255 H 0.96853 0.69575 0.87969 0.0
H256 H 0.08946 0.61703 1.01839 0.0
H257 H 0.1975 0.7307 0.87983 0.0
H258 H 0.1627 0.6469 0.02216 0.0
H259 H 0.20094 0.67012 0.88 0.0
O260 O 0.06091 0.69616 0.96749 0.0
H261 H 0.07995 0.82331 0.89857 0.0
H262 H 0.96864 0.70965 0.93686 0.0
H263 H 0.97266 0.77297 0.94021 0.0
H264 H 0.02844 0.83036 0.92083 0.0
H265 H 0.07539 0.75988 0.89611 0.0
H266 H 0.89717 0.66565 0.8713 0.0
H267 H 0.84835 0.60922 0.89487 0.0
O268 O 1.00408 0.67194 0.94769 0.0
C269 C 0.02473 0.61244 0.93002 0.0
C270 C 0.89315 0.6081 0.91613 0.0
C271 C 0.90719 0.65406 0.88506 0.0
N272 N 0.96059 0.65642 0.90721 0.0
C273 C 0.93385 0.6256 0.92036 0.0
C274 C 0.94767 0.67078 0.88978 0.0
C275 C 0.87981 0.62244 0.89832 0.0
C276 C 0.15408 0.71169 0.90785 0.0
N277 N 0.131 0.68261 0.92321 0.0
C278 C 0.1795 0.70765 0.89205 0.0
C279 C 0.18136 0.67364 0.89213 0.0
C280 C 0.15795 0.64422 0.90796 0.0
C281 C 0.13285 0.64927 0.92348 0.0
C282 C 0.17549 0.68207 0.99128 0.0
C283 C 0.09389 0.64874 0.98697 0.0
C284 C 0.15905 0.692 0.97282 0.0
N285 N 0.11871 0.67521 0.97078 0.0
C286 C 0.10927 0.63808 1.00565 0.0
C287 C 0.15036 0.65488 1.00777 0.0
C288 C 0.0235 0.68283 0.96646 0.0
C289 C 0.05516 0.79842 0.90681 0.0
C290 C 0.99293 0.73437 0.92823 0.0
C291 C 0.99506 0.77021 0.93024 0.0
C292 C 0.02635 0.80239 0.91937 0.0
N293 N 0.02094 0.73049 0.91556 0.0
C294 C 0.05207 0.76213 0.90519 0.0
Co295 Co 0.33866 0.4707 1.01366 0.0
Co296 Co 0.31186 0.37914 0.99512 0.0
O297 O 0.34645 0.42566 1.01205 0.0
C298 C 0.42849 0.49965 1.01567 0.0
O299 O 0.4234 0.46872 1.00497 0.0
C300 C 0.29031 0.31803 0.0304 0.0
O301 O 0.25317 0.30903 0.02709 0.0
O302 O 0.26487 0.37529 1.01181 0.0
O303 O 0.27923 0.437 1.01321 0.0
H304 H 0.19107 0.29277 0.94923 0.0
H305 H 0.38329 0.45278 0.0495 0.0
O306 O 0.39959 0.50702 1.0164 0.0
H307 H 0.28155 0.46819 0.09312 0.0
H308 H 0.3696 0.60174 0.0419 0.0
H309 H 0.28499 0.49431 0.99124 0.0
H310 H 0.28634 0.47492 0.05051 0.0
H311 H 0.37727 0.54408 0.04017 0.0
O312 O 0.31841 0.34733 1.01994 0.0
H313 H 0.23552 0.35114 0.97071 0.0
H314 H 0.31401 0.30724 0.98336 0.0
H315 H 0.27592 0.55121 0.99259 0.0
H316 H 0.37988 0.44643 0.092 0.0
H317 H 0.31854 0.60558 1.01806 0.0
H318 H 0.32876 0.45416 0.11421 0.0
O319 O 0.33642 0.47311 0.97803 0.0
H320 H 0.44878 0.39411 0.98868 0.0
H321 H 0.33299 0.37879 0.94515 0.0
H322 H 0.39161 0.38486 0.9238 0.0
H323 H 0.45001 0.3924 0.9456 0.0
H324 H 0.38985 0.38874 1.0093 0.0
H325 H 0.27025 0.24827 0.96211 0.0
H326 H 0.2083 0.24076 0.94484 0.0
O327 O 0.304 0.40956 0.97049 0.0
C328 C 0.25465 0.40088 1.01455 0.0
C329 C 0.21797 0.29567 0.9567 0.0
C330 C 0.2624 0.27071 0.96392 0.0
N331 N 0.27732 0.33262 0.97835 0.0
C332 C 0.24328 0.32869 0.96888 0.0
C333 C 0.28704 0.30415 0.97596 0.0
C334 C 0.22765 0.26652 0.95424 0.0
C335 C 0.36154 0.45714 0.05888 0.0
N336 N 0.33607 0.46574 0.04739 0.0
C337 C 0.35949 0.45308 0.08304 0.0
C338 C 0.33074 0.45731 0.09549 0.0
C339 C 0.30428 0.46521 0.08367 0.0
C340 C 0.30724 0.4691 0.05951 0.0
C341 C 0.35099 0.57833 0.03064 0.0
C342 C 0.30366 0.51777 1.00226 0.0
C343 C 0.35539 0.54566 0.02943 0.0
N344 N 0.33188 0.51585 1.01533 0.0
C345 C 0.29839 0.54997 1.00301 0.0
C346 C 0.3223 0.58045 1.01729 0.0
C347 C 0.31482 0.44425 0.96482 0.0
C348 C 0.42353 0.39084 0.97898 0.0
C349 C 0.35851 0.38269 0.95475 0.0
C350 C 0.39151 0.3858 0.94257 0.0
C351 C 0.42422 0.38995 0.95481 0.0
N352 N 0.35809 0.38372 0.97846 0.0
C353 C 0.38999 0.38762 0.99057 0.0
Co354 Co 0.07022 0.40045 0.38149 0.0
Co355 Co 0.01559 0.33269 0.42375 0.0
O356 O 0.04314 0.38564 0.41167 0.0
C357 C 0.01647 0.43298 0.38087 0.0
O358 O 0.98721 0.39803 0.38529 0.0
C359 C 0.04445 0.38741 0.46454 0.0
O360 O 0.07311 0.41439 0.45177 0.0
O361 O 0.06621 0.32875 0.41908 0.0
O362 O 0.08896 0.36195 0.38513 0.0
H363 H 0.97374 0.19156 0.42408 0.0
H364 H 0.08715 0.46256 0.41515 0.0
O365 O 0.05175 0.43894 0.37774 0.0
H366 H 0.21677 0.47143 0.39768 0.0
H367 H 0.15102 0.49469 0.31754 0.0
H368 H 0.07885 0.35787 0.34191 0.0
H369 H 0.15592 0.42277 0.37885 0.0
H370 H 0.11769 0.47534 0.35603 0.0
O371 O 0.02677 0.35262 0.45725 0.0
H372 H 0.00691 0.25803 0.40847 0.0
H373 H 0.9637 0.29404 0.4656 0.0
H374 H 0.11207 0.37599 0.30337 0.0
H375 H 0.14728 0.51222 0.43403 0.0
H376 H 0.14848 0.44484 0.29096 0.0
H377 H 0.21267 0.51672 0.42547 0.0
O378 O 0.02171 0.36085 0.36612 0.0
H379 H 0.93137 0.39478 0.44091 0.0
H380 H 0.93154 0.27903 0.41179 0.0
H381 H 0.86864 0.28056 0.41389 0.0
H382 H 0.86813 0.33858 0.42876 0.0
H383 H 0.99354 0.39253 0.43797 0.0
H384 H 0.93022 0.22815 0.48198 0.0
H385 H 0.93505 0.17625 0.46119 0.0
O386 O 1.00091 0.31173 0.39177 0.0
C387 C 0.08779 0.33763 0.40018 0.0
C388 C 0.97174 0.21399 0.43344 0.0
C389 C 0.94738 0.23452 0.46594 0.0
N390 N 0.98847 0.2803 0.43636 0.0
C391 C 0.99076 0.25176 0.42472 0.0
C392 C 0.96683 0.27196 0.45668 0.0
C393 C 0.95002 0.2054 0.45424 0.0
C394 C 0.11548 0.46434 0.41129 0.0
N395 N 0.11788 0.43916 0.39631 0.0
C396 C 0.14943 0.49252 0.42206 0.0
C397 C 0.1861 0.495 0.41727 0.0
C398 C 0.18841 0.46953 0.40174 0.0
C399 C 0.1538 0.44173 0.39133 0.0
C400 C 0.1353 0.46461 0.32277 0.0
C401 C 0.09484 0.38792 0.3367 0.0
C402 C 0.11628 0.45346 0.34451 0.0
N403 N 0.09659 0.41554 0.35127 0.0
C404 C 0.11349 0.39799 0.31482 0.0
C405 C 0.13388 0.43662 0.30787 0.0
C406 C 1.0009 0.32535 0.37167 0.0
C407 C 0.93104 0.36902 0.43484 0.0
C408 C 0.93168 0.30431 0.41852 0.0
C409 C 0.89589 0.30503 0.41958 0.0
C410 C 0.89562 0.33757 0.42791 0.0
N411 N 0.96628 0.33493 0.42583 0.0
C412 C 0.96625 0.36727 0.43352 0.0
Co413 Co 0.55548 0.61767 0.3344 0.0
Co414 Co 0.57274 0.64351 0.39104 0.0
O415 O 0.54196 0.60609 0.36737 0.0
C416 C 0.54437 0.53885 0.34017 0.0
O417 O 0.57008 0.55099 0.35698 0.0
C418 C 0.49061 0.58743 0.41234 0.0
O419 O 0.4748 0.57602 0.39192 0.0
O420 O 0.55973 0.68249 0.3756 0.0
O421 O 0.57344 0.67355 0.33876 0.0
H422 H 0.67041 0.77561 0.41898 0.0
H423 H 0.47437 0.55542 0.34754 0.0
O424 O 0.53693 0.56217 0.32906 0.0
H425 H 0.45434 0.64924 0.30174 0.0
H426 H 0.53554 0.5915 0.24887 0.0
H427 H 0.6239 0.67952 0.30803 0.0
H428 H 0.52194 0.6601 0.30858 0.0
H429 H 0.51753 0.5784 0.29049 0.0
O430 O 0.52425 0.61881 0.41377 0.0
H431 H 0.63256 0.72665 0.38997 0.0
H432 H 0.57714 0.64173 0.44303 0.0
H433 H 0.64291 0.69388 0.2666 0.0
H434 H 0.40621 0.5432 0.34093 0.0
H435 H 0.59857 0.64969 0.23669 0.0
H436 H 0.39586 0.59038 0.31794 0.0
O437 O 0.60996 0.62718 0.34073 0.0
H438 H 0.55326 0.51313 0.41553 0.0
H439 H 0.6485 0.65215 0.40918 0.0
H440 H 0.67014 0.60856 0.42563 0.0
H441 H 0.62226 0.5385 0.42921 0.0
H442 H 0.53317 0.55734 0.39863 0.0
H443 H 0.61383 0.68957 0.47276 0.0
H444 H 0.66112 0.75717 0.46082 0.0
O445 O 0.62229 0.66611 0.37095 0.0
C446 C 0.56889 0.69398 0.35412 0.0
C447 C 0.64982 0.74628 0.42444 0.0
C448 C 0.61802 0.69804 0.45459 0.0
N449 N 0.60227 0.68131 0.41463 0.0
C450 C 0.62826 0.71844 0.40801 0.0
C451 C 0.597 0.67103 0.43765 0.0
C452 C 0.64459 0.73593 0.44789 0.0
C453 C 0.47012 0.57606 0.3375 0.0
N454 N 0.50214 0.60858 0.32864 0.0
C455 C 0.43145 0.56899 0.33382 0.0
C456 C 0.42566 0.59548 0.32093 0.0
C457 C 0.45846 0.62852 0.31186 0.0
C458 C 0.49669 0.63462 0.31589 0.0
C459 C 0.55509 0.611 0.26173 0.0
C460 C 0.60436 0.66025 0.29512 0.0
C461 C 0.54509 0.60368 0.28533 0.0
N462 N 0.56953 0.6283 0.30167 0.0
C463 C 0.61532 0.66848 0.27168 0.0
C464 C 0.59044 0.64366 0.25491 0.0
C465 C 0.63387 0.6517 0.35495 0.0
C466 C 0.57418 0.54371 0.41454 0.0
C467 C 0.62719 0.6218 0.41088 0.0
C468 C 0.63976 0.59721 0.42013 0.0
C469 C 0.61293 0.55792 0.42211 0.0
N470 N 0.58876 0.6079 0.40404 0.0
C471 C 0.56272 0.56917 0.40531 0.0
Co472 Co 0.41836 0.95014 0.43201 0.0
Co473 Co 0.41859 0.02449 0.4632 0.0
O474 O 0.4372 0.98758 0.45705 0.0
C475 C 0.50452 0.9937 0.42262 0.0
O476 O 0.50202 0.02494 0.42601 0.0
C477 C 0.43912 1.00193 0.50946 0.0
O478 O 0.43388 0.9694 0.50097 0.0
O479 O 0.35983 0.98164 0.46189 0.0
O480 O 0.36288 0.93979 0.43698 0.0
H481 H 0.33402 0.08602 0.44909 0.0
H482 H 0.46844 0.94193 0.46771 0.0
O483 O 0.47386 0.96069 0.42557 0.0
H484 H 0.33967 0.82153 0.47282 0.0
H485 H 0.41467 0.84246 0.38514 0.0
H486 H 0.36045 0.93075 0.39409 0.0
H487 H 0.35074 0.87236 0.44423 0.0
H488 H 0.43719 0.88956 0.41668 0.0
O489 O 0.42474 0.02042 0.49854 0.0
H490 H 0.35905 0.04087 0.44174 0.0
H491 H 0.43896 0.08745 0.49751 0.0
H492 H 0.33683 0.88388 0.36245 0.0
H493 H 0.459 0.89159 0.49628 0.0
H494 H 0.36402 0.83931 0.3578 0.0
H495 H 0.39414 0.83095 0.49907 0.0
O496 O 0.42648 0.99044 0.40871 0.0
H497 H 0.56609 0.08648 0.4781 0.0
H498 H 0.46029 0.1039 0.44296 0.0
H499 H 0.5294 0.15699 0.44095 0.0
H500 H 0.58293 0.1487 0.45881 0.0
H501 H 0.49707 0.03392 0.47917 0.0
H502 H 0.41453 0.13278 0.50562 0.0
H503 H 0.36176 0.1324 0.48128 0.0
O504 O 0.41648 0.0329 0.42921 0.0
C505 C 0.34321 0.95276 0.44797 0.0
C506 C 0.35688 0.08635 0.4599 0.0
C507 C 0.40199 0.11253 0.49165 0.0
N508 N 0.39996 0.06093 0.46939 0.0
C509 C 0.37109 0.06074 0.45585 0.0
C510 C 0.41546 0.08648 0.4871 0.0
C511 C 0.37244 0.11235 0.47796 0.0
C512 C 0.44023 0.91551 0.46871 0.0
N513 N 0.40999 0.91027 0.45451 0.0
C514 C 0.43501 0.88716 0.48498 0.0
C515 C 0.39859 0.85317 0.48655 0.0
C516 C 0.36799 0.84792 0.47188 0.0
C517 C 0.37429 0.87693 0.45585 0.0
C518 C 0.4026 0.86173 0.38698 0.0
C519 C 0.37234 0.9114 0.39225 0.0
C520 C 0.41533 0.88855 0.40477 0.0
N521 N 0.40011 0.91288 0.40727 0.0
C522 C 0.35889 0.88494 0.37427 0.0
C523 C 0.37417 0.85996 0.37166 0.0
C524 C 0.42258 0.02024 0.41023 0.0
C525 C 0.54294 0.09074 0.47063 0.0
C526 C 0.48319 0.1 0.45102 0.0
C527 C 0.52239 0.13023 0.44973 0.0
C528 C 0.5524 0.12556 0.45973 0.0
N529 N 0.47383 0.0661 0.46221 0.0
C530 C 0.50341 0.06112 0.47155 0.0
Co531 Co 0.2779 0.18826 0.32919 0.0
Co532 Co 0.28143 0.22258 0.27442 0.0
O533 O 0.28118 0.18431 0.29574 0.0
C534 C 0.34689 0.17569 0.32326 0.0
O535 O 0.36557 0.20822 0.31141 0.0
C536 C 0.25083 0.14659 0.24918 0.0
O537 O 0.23822 0.12639 0.26857 0.0
O538 O 0.22812 0.21244 0.28847 0.0
O539 O 0.24275 0.21178 0.32621 0.0
H540 H 0.26091 0.33387 0.25258 0.0
H541 H 0.25813 0.11188 0.31028 0.0
O542 O 0.3126 0.16451 0.33234 0.0
H543 H 0.13748 0.09093 0.35307 0.0
H544 H 0.26894 0.14217 0.41179 0.0
H545 H 0.28207 0.24815 0.36105 0.0
H546 H 0.19721 0.15521 0.35135 0.0
H547 H 0.27063 0.13719 0.36918 0.0
O548 O 0.25845 0.18184 0.24891 0.0
H549 H 0.26335 0.28644 0.27912 0.0
H550 H 0.29709 0.23927 0.22333 0.0
H551 H 0.28019 0.25422 0.40356 0.0
H552 H 0.19926 0.04699 0.31185 0.0
H553 H 0.27358 0.20096 0.42923 0.0
H554 H 0.13828 0.0362 0.3333 0.0
O555 O 0.32534 0.24054 0.32767 0.0
H556 H 0.38956 0.19265 0.25042 0.0
H557 H 0.3553 0.29533 0.26131 0.0
H558 H 0.42245 0.31222 0.2473 0.0
H559 H 0.43994 0.26067 0.24148 0.0
H560 H 0.32327 0.1771 0.26491 0.0
H561 H 0.29459 0.28577 0.19605 0.0
H562 H 0.27658 0.33374 0.21063 0.0
O563 O 0.30787 0.26451 0.29762 0.0
C564 C 0.22234 0.21592 0.31034 0.0
C565 C 0.26874 0.31309 0.24598 0.0
C566 C 0.28755 0.28605 0.21427 0.0
N567 N 0.2801 0.25983 0.25289 0.0
C568 C 0.27015 0.28612 0.26098 0.0
C569 C 0.28862 0.25952 0.2298 0.0
C570 C 0.27751 0.31299 0.22246 0.0
C571 C 0.23183 0.10741 0.31975 0.0
N572 N 0.23112 0.1374 0.33058 0.0
C573 C 0.19852 0.0706 0.32053 0.0
C574 C 0.16431 0.06457 0.33255 0.0
C575 C 0.16382 0.09527 0.34361 0.0
C576 C 0.19769 0.13168 0.34246 0.0
C577 C 0.27174 0.16554 0.40078 0.0
C578 C 0.27894 0.22476 0.3721 0.0
C579 C 0.27279 0.16291 0.37665 0.0
N580 N 0.27612 0.19223 0.36265 0.0
C581 C 0.27801 0.22841 0.39616 0.0
C582 C 0.27434 0.19853 0.41056 0.0
C583 C 0.32983 0.26873 0.31495 0.0
C584 C 0.38211 0.21533 0.25246 0.0
C585 C 0.36234 0.27256 0.25864 0.0
C586 C 0.40058 0.28239 0.25077 0.0
C587 C 0.41039 0.25348 0.24754 0.0
N588 N 0.33428 0.23493 0.26291 0.0
C589 C 0.34419 0.20661 0.26037 0.0
Co590 Co 0.76535 0.02205 0.27761 0.0
Co591 Co 0.68627 0.01299 0.24614 0.0
O592 O 0.7434 0.03695 0.25187 0.0
C593 C 0.80282 0.10614 0.28293 0.0
O594 O 0.76723 0.10239 0.28129 0.0
C595 C 0.7317 0.03751 0.19984 0.0
O596 O 0.75959 0.03152 0.20825 0.0
O597 O 0.68042 0.95894 0.24659 0.0
O598 O 0.7232 0.96711 0.27498 0.0
H599 H 0.54143 0.91676 0.25942 0.0
H600 H 0.82173 0.06953 0.23984 0.0
O601 O 0.80749 0.0768 0.2813 0.0
H602 H 0.82589 0.94795 0.24117 0.0
H603 H 0.87589 0.02653 0.3252 0.0
H604 H 0.7306 0.96932 0.31844 0.0
H605 H 0.78282 0.95817 0.26881 0.0
H606 H 0.84754 0.04436 0.29239 0.0
O607 O 0.69827 0.02379 0.21096 0.0
H608 H 0.61315 0.94749 0.26694 0.0
H609 H 0.63758 0.02898 0.2125 0.0
H610 H 0.75768 0.95039 0.3514 0.0
H611 H 0.86587 0.06089 0.21217 0.0
H612 H 0.83084 0.97908 0.35494 0.0
H613 H 0.86797 0.99963 0.21262 0.0
O614 O 0.73047 0.02984 0.29997 0.0
H615 H 0.74967 0.15639 0.23128 0.0
H616 H 0.6381 0.04288 0.2695 0.0
H617 H 0.64237 0.10629 0.27289 0.0
H618 H 0.69827 0.16361 0.25353 0.0
H619 H 0.74487 0.09287 0.22878 0.0
H620 H 0.56617 0.99898 0.20427 0.0
H621 H 0.51746 0.94247 0.22783 0.0
O622 O 0.6735 0.00502 0.28028 0.0
C623 C 0.69327 0.94532 0.26278 0.0
C624 C 0.56236 0.94123 0.24893 0.0
C625 C 0.57626 0.98732 0.21797 0.0
N626 N 0.62977 0.98955 0.23993 0.0
C627 C 0.60308 0.95868 0.25307 0.0
C628 C 0.61677 1.004 0.2226 0.0
C629 C 0.54894 0.95567 0.23122 0.0
C630 C 0.82271 0.04291 0.24029 0.0
N631 N 0.79937 0.01421 0.25579 0.0
C632 C 0.84765 0.03813 0.2245 0.0
C633 C 0.84877 1.00374 0.22474 0.0
C634 C 0.82509 0.97469 0.24071 0.0
C635 C 0.80048 0.9805 0.25621 0.0
C636 C 0.84397 0.01378 0.32383 0.0
C637 C 0.76246 0.98178 0.31978 0.0
C638 C 0.82774 0.02384 0.30531 0.0
N639 N 0.78744 0.0077 0.3034 0.0
C640 C 0.77763 0.97102 0.33852 0.0
C641 C 0.81867 0.98715 0.34051 0.0
C642 C 0.69303 0.01634 0.29899 0.0
C643 C 0.72483 0.13154 0.2395 0.0
C644 C 0.66244 0.06756 0.26088 0.0
C645 C 0.66472 0.10346 0.26292 0.0
C646 C 0.69608 0.1356 0.25206 0.0
N647 N 0.69038 0.06358 0.24819 0.0
C648 C 0.7216 0.09519 0.23785 0.0
Co649 Co 0.00736 0.80173 0.34563 0.0
Co650 Co 0.98068 0.71118 0.32526 0.0
O651 O 0.01547 0.75702 0.3427 0.0
C652 C 0.09726 0.83108 0.34846 0.0
O653 O 0.09245 0.79948 0.33879 0.0
C654 C 0.96061 0.64879 0.3594 0.0
O655 O 0.9233 0.63975 0.35678 0.0
O656 O 0.93393 0.70622 0.34286 0.0
O657 O 0.948 0.76774 0.34544 0.0
H658 H 0.859 0.62631 0.27961 0.0
H659 H 0.0517 0.78103 0.38038 0.0
O660 O 0.06833 0.83847 0.34815 0.0
H661 H 0.95166 0.79626 0.42595 0.0
H662 H 0.03782 0.93123 0.37647 0.0
H663 H 0.95283 0.82569 0.32476 0.0
H664 H 0.95593 0.80482 0.38347 0.0
H665 H 0.04597 0.87398 0.37324 0.0
O666 O 0.98827 0.67851 0.34902 0.0
H667 H 0.90364 0.68377 0.30174 0.0
H668 H 0.98311 0.64016 0.31154 0.0
H669 H 0.94326 0.88217 0.32763 0.0
H670 H 0.04883 0.7729 0.42272 0.0
H671 H 0.98606 0.93559 0.35363 0.0
H672 H 0.99859 0.78055 0.44594 0.0
O673 O 1.00445 0.80565 0.31012 0.0
H674 H 0.11807 0.72799 0.31614 0.0
H675 H 1.00042 0.71298 0.27486 0.0
H676 H 0.05871 0.72067 0.25237 0.0
H677 H 0.11806 0.72808 0.27303 0.0
H678 H 0.0594 0.72094 0.33793 0.0
H679 H 0.93916 0.58209 0.28962 0.0
H680 H 0.87661 0.5749 0.27344 0.0
O681 O 0.9719 0.74245 0.30167 0.0
C682 C 0.92359 0.73157 0.34642 0.0
C683 C 0.88614 0.62907 0.28659 0.0
C684 C 0.93113 0.60426 0.2922 0.0
N685 N 0.94594 0.66534 0.308 0.0
C686 C 0.91158 0.66157 0.29914 0.0
C687 C 0.95588 0.63719 0.30464 0.0
C688 C 0.89605 0.60025 0.28314 0.0
C689 C 0.03045 0.78554 0.39018 0.0
N690 N 1.00528 0.79525 0.3793 0.0
C691 C 0.02865 0.78039 0.41426 0.0
C692 C 1.00038 0.78455 0.42727 0.0
C693 C 0.97409 0.79341 0.41607 0.0
C694 C 0.97679 0.79838 0.39197 0.0
C695 C 0.01912 0.90824 0.36498 0.0
C696 C 0.97159 0.84874 0.336 0.0
C697 C 0.0238 0.87582 0.36292 0.0
N698 N 1.00017 0.84653 0.34853 0.0
C699 C 0.96603 0.8807 0.33761 0.0
C700 C 0.99004 0.91065 0.35219 0.0
C701 C 0.98257 0.77732 0.29663 0.0
C702 C 0.09241 0.72482 0.30693 0.0
C703 C 0.02634 0.71682 0.28398 0.0
C704 C 0.05916 0.72086 0.27115 0.0
C705 C 0.09241 0.72493 0.28275 0.0
N706 N 0.02662 0.7169 0.3077 0.0
C707 C 0.05904 0.7207 0.31919 0.0
Co708 Co 0.7305 0.73731 0.7145 0.0
Co709 Co 0.68555 0.66857 0.75703 0.0
O710 O 0.70722 0.72141 0.74548 0.0
C711 C 0.67499 0.76787 0.71828 0.0
O712 O 0.64654 0.73265 0.723 0.0
C713 C 0.71552 0.7235 0.79733 0.0
O714 O 0.74421 0.74998 0.78431 0.0
O715 O 0.73882 0.67088 0.7504 0.0
O716 O 0.7514 0.70029 0.71538 0.0
H717 H 0.66278 0.53315 0.75543 0.0
H718 H 0.75017 0.79934 0.74869 0.0
O719 O 0.71001 0.77446 0.71331 0.0
H720 H 0.87874 0.81041 0.7253 0.0
H721 H 0.80188 0.83376 0.6498 0.0
H722 H 0.73453 0.6963 0.67269 0.0
H723 H 0.81631 0.76051 0.70859 0.0
H724 H 0.7737 0.81293 0.68937 0.0
O725 O 0.69755 0.68853 0.7904 0.0
H726 H 0.68803 0.59936 0.74057 0.0
H727 H 0.63809 0.62525 0.79923 0.0
H728 H 0.76253 0.71588 0.633 0.0
H729 H 0.81195 0.85007 0.7655 0.0
H730 H 0.79653 0.78507 0.62133 0.0
H731 H 0.87684 0.85575 0.75392 0.0
O732 O 0.68055 0.69648 0.701 0.0
H733 H 0.59085 0.71651 0.77968 0.0
H734 H 0.60261 0.60877 0.7468 0.0
H735 H 0.5364 0.60297 0.75148 0.0
H736 H 0.5301 0.65692 0.76825 0.0
H737 H 0.65634 0.72153 0.77417 0.0
H738 H 0.61261 0.55939 0.81481 0.0
H739 H 0.62478 0.51274 0.79283 0.0
O740 O 0.66984 0.6476 0.72504 0.0
C741 C 0.75579 0.67847 0.73002 0.0
C742 C 0.65732 0.55322 0.76519 0.0
C743 C 0.62924 0.56797 0.79853 0.0
N744 N 0.66483 0.61636 0.76905 0.0
C745 C 0.67157 0.59081 0.75686 0.0
C746 C 0.64399 0.60535 0.78968 0.0
C747 C 0.63603 0.5418 0.78618 0.0
C748 C 0.77828 0.80176 0.74339 0.0
N749 N 0.77951 0.77676 0.72777 0.0
C750 C 0.81318 0.83048 0.75305 0.0
C751 C 0.84956 0.83362 0.74657 0.0
C752 C 0.85063 0.80814 0.73055 0.0
C753 C 0.81513 0.77976 0.72127 0.0
C754 C 0.78722 0.80353 0.65469 0.0
C755 C 0.74945 0.72648 0.66779 0.0
C756 C 0.77114 0.79156 0.67706 0.0
N757 N 0.7528 0.75347 0.6834 0.0
C758 C 0.76517 0.73738 0.64527 0.0
C759 C 0.78421 0.7762 0.63873 0.0
C760 C 0.66424 0.66066 0.70599 0.0
C761 C 0.59311 0.69251 0.77273 0.0
C762 C 0.60024 0.63234 0.75427 0.0
C763 C 0.56259 0.62889 0.75682 0.0
C764 C 0.55907 0.65916 0.76622 0.0
N765 N 0.63354 0.66485 0.76112 0.0
C766 C 0.63026 0.69495 0.7699 0.0
Co767 Co 0.21821 0.95031 0.66793 0.0
Co768 Co 0.23679 0.97643 0.72443 0.0
O769 O 0.20538 0.93893 0.70096 0.0
C770 C 0.20672 0.87134 0.67368 0.0
O771 O 0.23275 0.88355 0.69032 0.0
C772 C 0.15469 0.92129 0.74601 0.0
O773 O 0.1385 0.91063 0.72561 0.0
O774 O 0.22366 0.01545 0.70923 0.0
O775 O 0.23667 0.00629 0.6723 0.0
H776 H 0.3351 0.1086 0.75192 0.0
H777 H 0.13716 0.8883 0.68146 0.0
O778 O 0.19921 0.89467 0.66262 0.0
H779 H 0.11698 0.98278 0.63648 0.0
H780 H 0.1961 0.9238 0.58255 0.0
H781 H 0.28625 0.0118 0.64111 0.0
H782 H 0.18456 0.9932 0.64271 0.0
H783 H 0.17908 0.91094 0.62429 0.0
O784 O 0.18881 0.95205 0.74749 0.0
H785 H 0.29651 0.05966 0.72305 0.0
H786 H 0.24245 0.97466 0.7763 0.0
H787 H 0.30428 0.0259 0.59955 0.0
H788 H 0.06901 0.87652 0.67543 0.0
H789 H 0.25903 0.98173 0.56994 0.0
H790 H 0.05858 0.92403 0.65285 0.0
O791 O 0.27275 0.95958 0.67381 0.0
H792 H 0.2168 0.84594 0.74899 0.0
H793 H 0.31287 0.98467 0.74175 0.0
H794 H 0.33448 0.94082 0.75784 0.0
H795 H 0.28621 0.87091 0.76185 0.0
H796 H 0.19672 0.8904 0.73245 0.0
H797 H 0.27995 0.02258 0.80585 0.0
H798 H 0.32693 0.09018 0.79375 0.0
O799 O 0.28592 0.99876 0.70398 0.0
C800 C 0.23262 0.0269 0.68774 0.0
C801 C 0.31468 0.07926 0.75744 0.0
C802 C 0.28369 0.03103 0.78769 0.0
N803 N 0.26694 0.01426 0.74784 0.0
C804 C 0.29272 0.05141 0.74111 0.0
C805 C 0.26223 1.004 0.77085 0.0
C806 C 0.31007 0.06892 0.78089 0.0
C807 C 0.13288 0.90907 0.67158 0.0
N808 N 0.16486 0.94153 0.66262 0.0
C809 C 0.09421 0.90226 0.66823 0.0
C810 C 0.08838 0.92893 0.65558 0.0
C811 C 0.12113 0.96191 0.64641 0.0
C812 C 0.15936 0.96775 0.6501 0.0
C813 C 0.21604 0.94329 0.59528 0.0
C814 C 0.26633 0.99253 0.62833 0.0
C815 C 0.20661 0.93611 0.61894 0.0
N816 N 0.23155 0.96072 0.63512 0.0
C817 C 0.27673 1.00062 0.60482 0.0
C818 C 0.25135 0.97581 0.58822 0.0
C819 C 0.29706 0.98422 0.68783 0.0
C820 C 0.23793 0.87645 0.74779 0.0
C821 C 0.29141 0.95438 0.74363 0.0
C822 C 0.30396 0.92964 0.75268 0.0
C823 C 0.2769 0.89044 0.7549 0.0
N824 N 0.25281 0.9407 0.73721 0.0
C825 C 0.22649 0.90206 0.73876 0.0
Co826 Co 0.08265 0.28251 0.76652 0.0
Co827 Co 0.08439 0.35773 0.79755 0.0
O828 O 0.10192 0.31994 0.79159 0.0
C829 C 0.16888 0.32455 0.75732 0.0
O830 O 0.16721 0.35621 0.76072 0.0
C831 C 0.10442 0.33517 0.84395 0.0
O832 O 0.09931 0.30262 0.83558 0.0
O833 O 0.02529 0.31567 0.79601 0.0
O834 O 0.02753 0.27324 0.77126 0.0
H835 H 1.00217 0.42154 0.78279 0.0
H836 H 0.13146 0.27307 0.80254 0.0
O837 O 0.13778 0.29188 0.7603 0.0
H838 H 1.00139 0.15405 0.80709 0.0
H839 H 0.07687 0.17382 0.71975 0.0
H840 H 0.02551 0.26447 0.72831 0.0
H841 H 0.0139 0.20525 0.77844 0.0
H842 H 0.09986 0.22077 0.75139 0.0
O843 O 0.08983 0.35342 0.83296 0.0
H844 H 0.02612 0.37549 0.77571 0.0
H845 H 0.10534 0.42082 0.83188 0.0
H846 H 1.00145 0.21777 0.69659 0.0
H847 H 0.12058 0.22233 0.83119 0.0
H848 H 0.02719 0.17201 0.69213 0.0
H849 H 0.05505 0.16239 0.83368 0.0
O850 O 0.09199 0.32316 0.7432 0.0
H851 H 0.23156 0.41685 0.81283 0.0
H852 H 0.12771 0.43755 0.77792 0.0
H853 H 0.19725 0.48974 0.77633 0.0
H854 H 0.24981 0.47982 0.7941 0.0
H855 H 0.16215 0.36519 0.81347 0.0
H856 H 0.08192 0.46701 0.83975 0.0
H857 H 0.03007 0.46772 0.81507 0.0
O858 O 0.08312 0.36647 0.76351 0.0
C859 C 0.00829 0.28676 0.78215 0.0
C860 C 0.02465 0.4214 0.79375 0.0
C861 C 0.06934 0.44685 0.82574 0.0
N862 N 0.06666 0.39491 0.80354 0.0
C863 C 0.03827 0.3953 0.78984 0.0
C864 C 0.08222 0.42032 0.82132 0.0
C865 C 0.0403 0.44729 0.81185 0.0
C866 C 0.10296 0.24696 0.80343 0.0
N867 N 0.07316 0.24232 0.78904 0.0
C868 C 0.09693 0.21838 0.81973 0.0
C869 C 0.06014 0.18479 0.82115 0.0
C870 C 0.02999 0.18014 0.80628 0.0
C871 C 0.0371 0.20936 0.79022 0.0
C872 C 0.06542 0.1936 0.72152 0.0
C873 C 0.03676 0.24458 0.72656 0.0
C874 C 0.07842 0.22033 0.73935 0.0
N875 N 0.06399 0.24531 0.74174 0.0
C876 C 0.02306 0.21823 0.70853 0.0
C877 C 0.03754 0.19259 0.70603 0.0
C878 C 0.08912 0.35353 0.74459 0.0
C879 C 0.20884 0.42182 0.80542 0.0
C880 C 0.15016 0.43291 0.78592 0.0
C881 C 0.18962 0.46265 0.78488 0.0
C882 C 0.21909 0.45706 0.79482 0.0
N883 N 0.14001 0.39859 0.79683 0.0
C884 C 0.16907 0.39272 0.80609 0.0
Co885 Co 0.94641 0.5167 0.66438 0.0
Co886 Co 0.9461 0.55401 0.61106 0.0
O887 O 0.94821 0.51516 0.63077 0.0
C888 C 0.01723 0.50769 0.65567 0.0
O889 O 0.03477 0.54106 0.64464 0.0
C890 C 0.91418 0.47901 0.58482 0.0
O891 O 0.90097 0.45811 0.60393 0.0
O892 O 0.89327 0.54224 0.6266 0.0
O893 O 0.90921 0.53821 0.66361 0.0
H894 H 0.92342 0.66573 0.59484 0.0
H895 H 0.92908 0.44285 0.64266 0.0
O896 O 0.98307 0.49491 0.66528 0.0
H897 H 0.80927 0.41301 0.68951 0.0
H898 H 0.94364 0.46619 0.74514 0.0
H899 H 0.94914 0.57307 0.69859 0.0
H900 H 0.86683 0.47869 0.6883 0.0
H901 H 0.94354 0.46412 0.70235 0.0
O902 O 0.92224 0.51437 0.58505 0.0
H903 H 0.92874 0.61769 0.61935 0.0
H904 H 0.95683 0.57251 0.56003 0.0
H905 H 0.94891 0.57616 0.74133 0.0
H906 H 0.87253 0.37658 0.64368 0.0
H907 H 0.94616 0.52244 0.7649 0.0
H908 H 0.81194 0.36131 0.66716 0.0
O909 O 0.99252 0.56991 0.66351 0.0
H910 H 0.0544 0.52801 0.58169 0.0
H911 H 0.01828 0.62815 0.59783 0.0
H912 H 0.08484 0.64697 0.58182 0.0
H913 H 0.10324 0.59673 0.57337 0.0
H914 H 0.98867 0.51049 0.59815 0.0
H915 H 0.95146 0.61982 0.53485 0.0
H916 H 0.93478 0.66702 0.55223 0.0
O917 O 0.97326 0.59475 0.6348 0.0
C918 C 0.88821 0.54389 0.64877 0.0
C919 C 0.93058 0.64524 0.58704 0.0
C920 C 0.94623 0.61943 0.55338 0.0
N921 N 0.94263 0.59188 0.59118 0.0
C922 C 0.93358 0.61787 0.60084 0.0
C923 C 0.94892 0.59244 0.56773 0.0
C924 C 0.93694 0.64594 0.56314 0.0
C925 C 0.90295 0.43645 0.65301 0.0
N926 N 0.90117 0.46481 0.66521 0.0
C927 C 0.87095 0.39886 0.65347 0.0
C928 C 0.83695 0.39032 0.66662 0.0
C929 C 0.8354 0.41933 0.67912 0.0
C930 C 0.86799 0.45658 0.67822 0.0
C931 C 0.94476 0.48973 0.73506 0.0
C932 C 0.94767 0.54947 0.70873 0.0
C933 C 0.9448 0.48876 0.71083 0.0
N934 N 0.946 0.5183 0.698 0.0
C935 C 0.94767 0.55144 0.73292 0.0
C936 C 0.94616 0.5213 0.74613 0.0
C937 C 0.99586 0.59852 0.65169 0.0
C938 C 0.04653 0.55015 0.58491 0.0
C939 C 0.02571 0.60595 0.59402 0.0
C940 C 0.06362 0.61687 0.58502 0.0
C941 C 0.07395 0.58869 0.58032 0.0
N942 N 0.99848 0.56796 0.59799 0.0
C943 C 0.00893 0.54033 0.59397 0.0
Co944 Co 0.43081 0.35653 0.61206 0.0
Co945 Co 0.35145 0.34638 0.58033 0.0
O946 O 0.40854 0.3708 0.58621 0.0
C947 C 0.46621 0.44035 0.61731 0.0
O948 O 0.43019 0.43548 0.61545 0.0
C949 C 0.39725 0.37079 0.5341 0.0
O950 O 0.4255 0.36558 0.54274 0.0
O951 O 0.34605 0.29251 0.58119 0.0
O952 O 0.38941 0.30126 0.60937 0.0
H953 H 0.20671 0.24969 0.59351 0.0
H954 H 0.48711 0.40477 0.57445 0.0
O955 O 0.47201 0.41166 0.61581 0.0
H956 H 0.49418 0.28467 0.57605 0.0
H957 H 0.54205 0.3636 0.66013 0.0
H958 H 0.39656 0.3035 0.6528 0.0
H959 H 0.45008 0.29382 0.60347 0.0
H960 H 0.51324 0.38058 0.62716 0.0
O961 O 0.36369 0.35671 0.54512 0.0
H962 H 0.27841 0.28097 0.60124 0.0
H963 H 0.30273 0.36139 0.54619 0.0
H964 H 0.42411 0.28541 0.6859 0.0
H965 H 0.53227 0.39723 0.54701 0.0
H966 H 0.49736 0.31556 0.68973 0.0
H967 H 0.53583 0.33672 0.5476 0.0
O968 O 0.39528 0.36348 0.63428 0.0
H969 H 0.41391 0.48951 0.56465 0.0
H970 H 0.30264 0.37606 0.60311 0.0
H971 H 0.30629 0.43927 0.60598 0.0
H972 H 0.36205 0.49655 0.5865 0.0
H973 H 0.40974 0.42622 0.56269 0.0
H974 H 0.23137 0.33085 0.53774 0.0
H975 H 0.18272 0.2746 0.5615 0.0
O976 O 0.33844 0.33885 0.61447 0.0
C977 C 0.35939 0.27921 0.59729 0.0
C978 C 0.22762 0.27403 0.58292 0.0
C979 C 0.24147 0.31953 0.55161 0.0
N980 N 0.29497 0.32249 0.57394 0.0
C981 C 0.26832 0.29177 0.58718 0.0
C982 C 0.28195 0.33651 0.55637 0.0
C983 C 0.21418 0.28802 0.56497 0.0
C984 C 0.48871 0.37847 0.57495 0.0
N985 N 0.46559 0.34956 0.59039 0.0
C986 C 0.51423 0.37431 0.5593 0.0
C987 C 0.51617 0.34034 0.55961 0.0
C988 C 0.49273 0.31109 0.57553 0.0
C989 C 0.46752 0.31626 0.59089 0.0
C990 C 0.51008 0.35022 0.65863 0.0
C991 C 0.42847 0.31658 0.65425 0.0
C992 C 0.49359 0.35978 0.64003 0.0
N993 N 0.45325 0.34284 0.63796 0.0
C994 C 0.44389 0.3063 0.67308 0.0
C995 C 0.48499 0.32325 0.67523 0.0
C996 C 0.35788 0.35013 0.63322 0.0
C997 C 0.38913 0.46466 0.57291 0.0
C998 C 0.32692 0.40072 0.59443 0.0
C999 C 0.32884 0.43651 0.59617 0.0
C1000 C 0.36012 0.46863 0.58525 0.0
N1001 N 0.35511 0.39682 0.58197 0.0
C1002 C 0.38624 0.42843 0.57156 0.0
Co1003 Co 0.67218 0.13658 0.6803 0.0
Co1004 Co 0.64469 0.04393 0.66318 0.0
O1005 O 0.67919 0.09103 0.67964 0.0
C1006 C 0.76176 0.16451 0.68316 0.0
O1007 O 0.75625 0.13233 0.674 0.0
C1008 C 0.62099 0.984 0.69956 0.0
O1009 O 0.58412 0.97549 0.69575 0.0
O1010 O 0.59728 0.04131 0.67862 0.0
O1011 O 0.61275 0.10332 0.68032 0.0
H1012 H 0.52527 0.95685 0.61654 0.0
H1013 H 0.71605 0.11858 0.71677 0.0
O1014 O 0.73332 0.17257 0.68251 0.0
H1015 H 0.61718 0.13955 0.75949 0.0
H1016 H 0.70629 0.27011 0.70535 0.0
H1017 H 0.61699 0.15888 0.65856 0.0
H1018 H 0.62135 0.144 0.71681 0.0
H1019 H 0.71307 0.21193 0.70482 0.0
O1020 O 0.64964 0.01278 0.68907 0.0
H1021 H 0.56957 0.01592 0.63748 0.0
H1022 H 0.64591 0.97084 0.65362 0.0
H1023 H 0.60882 0.21634 0.6587 0.0
H1024 H 0.71325 0.1145 0.75932 0.0
H1025 H 0.65382 0.27264 0.6822 0.0
H1026 H 0.6636 0.12506 0.78109 0.0
O1027 O 0.66933 0.13748 0.64458 0.0
H1028 H 0.78091 0.05673 0.6603 0.0
H1029 H 0.66737 0.0402 0.61398 0.0
H1030 H 0.72639 0.04439 0.59416 0.0
H1031 H 0.78367 0.05253 0.61738 0.0
H1032 H 0.72164 0.05329 0.67933 0.0
H1033 H 0.60223 0.91116 0.63296 0.0
H1034 H 0.54143 0.90389 0.61421 0.0
O1035 O 0.6385 0.07378 0.6375 0.0
C1036 C 0.58768 0.06734 0.6814 0.0
C1037 C 0.55165 0.95965 0.62466 0.0
C1038 C 0.59485 0.93401 0.63387 0.0
N1039 N 0.61029 0.99687 0.64683 0.0
C1040 C 0.5769 0.99307 0.63654 0.0
C1041 C 0.61944 0.96786 0.64557 0.0
C1042 C 0.56074 0.92996 0.62335 0.0
C1043 C 0.69502 0.12426 0.72591 0.0
N1044 N 0.67009 0.13324 0.71411 0.0
C1045 C 0.69327 0.12144 0.75012 0.0
C1046 C 0.66534 0.12724 0.76233 0.0
C1047 C 0.63933 0.13541 0.75022 0.0
C1048 C 0.64197 0.13804 0.72601 0.0
C1049 C 0.68674 0.24592 0.69485 0.0
C1050 C 0.63689 0.18329 0.66857 0.0
C1051 C 0.69068 0.21295 0.69429 0.0
N1052 N 0.66604 0.18218 0.68112 0.0
C1053 C 0.63203 0.21575 0.6687 0.0
C1054 C 0.65726 0.2473 0.6819 0.0
C1055 C 0.64877 0.10821 0.6314 0.0
C1056 C 0.75619 0.05327 0.64998 0.0
C1057 C 0.69247 0.04456 0.62415 0.0
C1058 C 0.72567 0.04652 0.61285 0.0
C1059 C 0.75774 0.05098 0.6259 0.0
N1060 N 0.69125 0.04707 0.64775 0.0
C1061 C 0.72247 0.05117 0.66066 0.0
H1062 H 0.43051 0.94948 0.07987 0.0
H1063 H 0.52804 0.9231 0.96091 0.0
H1064 H 0.46764 0.0287 0.02138 0.0
H1065 H 0.52661 0.86665 0.02537 0.0
H1066 H 0.49623 0.95514 0.98143 0.0
H1067 H 0.45842 0.91349 0.05951 0.0
C1068 C 0.44477 0.95968 0.063 0.0
C1069 C 0.44629 0.99243 0.05255 0.0
C1070 C 0.50257 0.93538 0.99101 0.0
C1071 C 0.47742 0.95046 0.02868 0.0
C1072 C 0.52052 0.91676 0.97918 0.0
C1073 C 0.53061 0.89207 0.99123 0.0
C1074 C 0.49387 0.92895 1.01508 0.0
C1075 C 0.51973 0.88533 1.0151 0.0
C1076 C 0.46045 0.93887 0.05124 0.0
C1077 C 0.46512 1.00366 0.03037 0.0
N1078 N 0.50226 0.90356 0.02611 0.0
N1079 N 0.4794 0.98276 1.01927 0.0
H1080 H 0.85576 0.38926 0.99805 0.0
H1081 H 0.05741 0.57254 0.94983 0.0
H1082 H 0.97387 0.42083 1.01973 0.0
H1083 H 0.94275 0.55672 0.93107 0.0
H1084 H 0.02499 0.51417 0.97334 0.0
H1085 H 0.8839 0.44838 0.97353 0.0
C1086 C 0.88735 0.40948 0.99861 0.0
C1087 C 0.91203 0.40081 1.01231 0.0
C1088 C 0.00658 0.52305 0.96406 0.0
C1089 C 0.94504 0.46766 0.98284 0.0
C1090 C 0.02525 0.55653 0.95019 0.0
C1091 C 1.00327 0.57068 0.93828 0.0
C1092 C 0.96493 0.50239 0.96645 0.0
C1093 C 0.9614 0.54775 0.93988 0.0
C1094 C 0.90353 0.44294 0.9842 0.0
C1095 C 0.95313 0.42705 1.01087 0.0
N1096 N 0.94368 0.51511 0.95382 0.0
N1097 N 0.96808 0.45875 0.99652 0.0
H1098 H 0.48876 0.48321 0.02235 0.0
H1099 H 0.62654 0.65327 0.10824 0.0
H1100 H 0.45195 0.56426 0.04415 0.0
H1101 H 0.62738 0.54619 0.10149 0.0
H1102 H 0.56589 0.62639 0.08457 0.0
H1103 H 0.54387 0.5119 0.04897 0.0
C1104 C 0.49229 0.50737 0.03252 0.0
C1105 C 0.46502 0.52104 0.03061 0.0
C1106 C 0.57909 0.60864 0.08863 0.0
C1107 C 0.52962 0.5547 0.06201 0.0
C1108 C 0.61366 0.62388 0.10247 0.0
C1109 C 0.63285 0.60225 0.10718 0.0
C1110 C 0.56363 0.57158 0.07909 0.0
C1111 C 0.61436 0.5644 0.09856 0.0
C1112 C 0.52396 0.5237 0.04802 0.0
C1113 C 0.47195 0.55257 0.04473 0.0
N1114 N 0.58171 0.55079 0.08492 0.0
N1115 N 0.50344 0.56831 0.05968 0.0
H1116 H 0.16472 0.37027 0.38444 0.0
H1117 H 0.14568 0.17731 0.32833 0.0
H1118 H 0.0619 0.25889 0.3966 0.0
H1119 H 0.24422 0.29126 0.31611 0.0
H1120 H 0.11348 0.20498 0.35293 0.0
H1121 H 0.19462 0.3404 0.36081 0.0
C1122 C 0.1486 0.33935 0.38263 0.0
C1123 C 0.11043 0.31744 0.39285 0.0
C1124 C 0.14168 0.22407 0.34436 0.0
C1125 C 0.14454 0.28241 0.36471 0.0
C1126 C 0.15972 0.2083 0.3299 0.0
C1127 C 0.19676 0.23209 0.31879 0.0
C1128 C 0.1612 0.26402 0.34836 0.0
C1129 C 0.21466 0.27187 0.32292 0.0
C1130 C 0.16564 0.32222 0.36881 0.0
C1131 C 0.09133 0.27729 0.3895 0.0
N1132 N 0.19691 0.28637 0.33723 0.0
N1133 N 0.1083 0.26122 0.37563 0.0
H1134 H 0.64353 0.75562 0.35546 0.0
H1135 H 0.61154 0.88912 0.26177 0.0
H1136 H 0.52723 0.72219 0.32964 0.0
H1137 H 0.72458 0.90614 0.28507 0.0
H1138 H 0.57815 0.82978 0.2861 0.0
H1139 H 0.67109 0.81408 0.33183 0.0
C1140 C 0.62318 0.76149 0.3459 0.0
C1141 C 0.5823 0.73456 0.34601 0.0
C1142 C 0.61031 0.84647 0.28567 0.0
C1143 C 0.61486 0.80132 0.31652 0.0
C1144 C 0.62953 0.88038 0.27153 0.0
C1145 C 0.67135 0.90368 0.27128 0.0
C1146 C 0.63295 0.83557 0.29973 0.0
C1147 C 0.69248 0.88992 0.28449 0.0
C1148 C 0.63929 0.79467 0.33164 0.0
C1149 C 0.55856 0.74279 0.33109 0.0
N1150 N 0.67329 0.85756 0.29811 0.0
N1151 N 0.57504 0.7752 0.31702 0.0
H1152 H 0.12222 0.89963 0.37322 0.0
H1153 H 0.2923 0.87705 0.43959 0.0
H1154 H 0.15428 0.8121 0.35986 0.0
H1155 H 0.29629 0.9868 0.43737 0.0
H1156 H 0.23293 0.84992 0.41614 0.0
H1157 H 0.17812 0.92984 0.40048 0.0
C1158 C 0.14096 0.88682 0.37577 0.0
C1159 C 0.1331 0.85309 0.3638 0.0
C1160 C 0.24625 0.87985 0.42098 0.0
C1161 C 0.19692 0.88722 0.39578 0.0
C1162 C 0.28018 0.89541 0.43477 0.0
C1163 C 0.30005 0.93458 0.44086 0.0
C1164 C 0.23091 0.90316 0.41285 0.0
C1165 C 0.28229 0.95649 0.43357 0.0
C1166 C 0.1729 0.90411 0.39147 0.0
C1167 C 0.1587 0.83803 0.36828 0.0
N1168 N 0.24912 0.94066 0.41989 0.0
N1169 N 0.18874 0.85483 0.38381 0.0
H1170 H 0.85795 0.58817 0.62864 0.0
H1171 H 0.76146 0.6153 0.74779 0.0
H1172 H 0.85744 0.53234 0.69317 0.0
H1173 H 0.79861 0.69443 0.68924 0.0
H1174 H 0.7891 0.5791 0.72739 0.0
H1175 H 0.8263 0.62029 0.64922 0.0
C1176 C 0.85067 0.58199 0.64694 0.0
C1177 C 0.86099 0.55745 0.65898 0.0
C1178 C 0.79118 0.60451 0.71911 0.0
C1179 C 0.8244 0.59441 0.68291 0.0
C1180 C 0.77565 0.62543 0.73089 0.0
C1181 C 0.77727 0.65823 0.72045 0.0
C1182 C 0.80807 0.61602 0.69653 0.0
C1183 C 0.79602 0.66936 0.69824 0.0
C1184 C 0.8328 0.60065 0.6588 0.0
C1185 C 0.85039 0.5509 0.6829 0.0
N1186 N 0.81013 0.64835 0.68712 0.0
N1187 N 0.83298 0.56916 0.69395 0.0
H1188 H 0.39216 0.23992 0.61781 0.0
H1189 H 0.19015 0.05628 0.66541 0.0
H1190 H 0.27755 0.2231 0.59802 0.0
H1191 H 0.30811 0.08733 0.68712 0.0
H1192 H 0.21853 0.11543 0.64093 0.0
H1193 H 0.35967 0.18156 0.64134 0.0
C1194 C 0.36 0.2237 0.61795 0.0
C1195 C 0.33804 0.23754 0.60572 0.0
C1196 C 0.23808 0.10987 0.65159 0.0
C1197 C 0.29962 0.16927 0.63391 0.0
C1198 C 0.22176 0.07639 0.66599 0.0
C1199 C 0.24632 0.06755 0.67969 0.0
C1200 C 0.27961 0.13448 0.65026 0.0
C1201 C 0.28746 0.09367 0.67827 0.0
C1202 C 0.34129 0.19022 0.63182 0.0
C1203 C 0.29618 0.21435 0.60706 0.0
N1204 N 0.30253 0.12542 0.66395 0.0
N1205 N 0.27842 0.18173 0.62102 0.0
H1206 H 0.78849 0.23459 0.7065 0.0
H1207 H 0.95589 0.21088 0.77529 0.0
H1208 H 0.81736 0.14424 0.69573 0.0
H1209 H 0.96301 0.32183 0.77014 0.0
H1210 H 0.89638 0.18358 0.75191 0.0
H1211 H 0.84459 0.26515 0.73359 0.0
C1212 C 0.80657 0.22122 0.70958 0.0
C1213 C 0.79777 0.1866 0.69837 0.0
C1214 C 0.91041 0.21383 0.7561 0.0
C1215 C 0.86182 0.22117 0.73018 0.0
C1216 C 0.94442 0.22951 0.76985 0.0
C1217 C 0.96515 0.269 0.77512 0.0
C1218 C 0.89591 0.23738 0.74719 0.0
C1219 C 0.94825 0.29125 0.76704 0.0
C1220 C 0.83863 0.23871 0.72519 0.0
C1221 C 0.82255 0.17087 0.70354 0.0
N1222 N 0.915 0.27531 0.75342 0.0
N1223 N 0.85272 0.1879 0.71896 0.0
H1224 H 0.40454 0.13093 0.14247 0.0
H1225 H 0.23622 0.07227 0.24246 0.0
H1226 H 0.32053 0.01246 0.15976 0.0
H1227 H 0.30154 0.18615 0.21188 0.0
H1228 H 0.26821 0.04979 0.21425 0.0
H1229 H 0.37039 0.15146 0.17011 0.0
C1230 C 0.37926 0.10905 0.15228 0.0
C1231 C 0.36587 0.06966 0.14864 0.0
C1232 C 0.27528 0.07963 0.21356 0.0
C1233 C 0.32581 0.09349 0.18065 0.0
C1234 C 0.25681 0.09257 0.22965 0.0
C1235 C 0.26566 0.13137 0.22969 0.0
C1236 C 0.30362 0.10564 0.19739 0.0
C1237 C 0.29309 0.15603 0.21261 0.0
C1238 C 0.35945 0.12094 0.16801 0.0
C1239 C 0.33239 0.04308 0.16193 0.0
N1240 N 0.31119 0.14292 0.19746 0.0
N1241 N 0.3137 0.05541 0.17726 0.0
H1242 H 0.74498 0.19261 0.08505 0.0
H1243 H 0.80623 0.08813 0.18232 0.0
H1244 H 0.85983 0.24674 0.11684 0.0
H1245 H 0.68347 0.05796 0.17429 0.0
H1246 H 0.82598 0.14145 0.15461 0.0
H1247 H 0.72151 0.13992 0.11411 0.0
C1248 C 0.76521 0.19393 0.09831 0.0
C1249 C 0.80458 0.225 0.09839 0.0
C1250 C 0.79467 0.12314 0.15877 0.0
C1251 C 0.77794 0.16333 0.13152 0.0
C1252 C 0.78316 0.0922 0.17453 0.0
C1253 C 0.74284 0.06776 0.18079 0.0
C1254 C 0.76586 0.12998 0.14851 0.0
C1255 C 0.71483 0.07555 0.17006 0.0
C1256 C 0.75172 0.16358 0.11488 0.0
C1257 C 0.82919 0.22427 0.11602 0.0
N1258 N 0.72678 0.10562 0.15443 0.0
N1259 N 0.81574 0.19397 0.13149 0.0
H1260 H 0.99445 0.76366 0.25177 0.0
H1261 H 0.82318 0.64815 0.19318 0.0
H1262 H 0.91928 0.79107 0.29393 0.0
H1263 H 0.79124 0.73674 0.20243 0.0
H1264 H 0.87885 0.68227 0.21906 0.0
H1265 H 0.94353 0.73939 0.22195 0.0
C1266 C 0.96819 0.7665 0.25434 0.0
C1267 C 0.96238 0.78098 0.27538 0.0
C1268 C 0.85991 0.69452 0.2154 0.0
C1269 C 0.902 0.75084 0.24136 0.0
C1270 C 0.82747 0.67465 0.20076 0.0
C1271 C 0.80179 0.6892 0.19537 0.0
C1272 C 0.86724 0.72943 0.22535 0.0
C1273 C 0.80988 0.72413 0.20592 0.0
C1274 C 0.93851 0.75166 0.23747 0.0
C1275 C 0.92642 0.78202 0.27781 0.0
N1276 N 0.84149 0.74275 0.22051 0.0
N1277 N 0.89771 0.76702 0.26122 0.0
H1278 H 0.56884 0.73921 0.91068 0.0
H1279 H 0.73655 0.79722 0.81042 0.0
H1280 H 0.63395 0.85306 0.87998 0.0
H1281 H 0.65218 0.6789 0.82783 0.0
H1282 H 0.70264 0.81803 0.83808 0.0
H1283 H 0.60054 0.71662 0.88237 0.0
C1284 C 0.58933 0.75948 0.89782 0.0
C1285 C 0.59826 0.79829 0.89788 0.0
C1286 C 0.69158 0.78749 0.836 0.0
C1287 C 0.63589 0.77244 0.86545 0.0
C1288 C 0.71124 0.77543 0.82026 0.0
C1289 C 0.69767 0.73601 0.81666 0.0
C1290 C 0.65791 0.76014 0.84867 0.0
C1291 C 0.66417 0.70954 0.82997 0.0
C1292 C 0.60766 0.74648 0.88168 0.0
C1293 C 0.62555 0.82291 0.88072 0.0
N1294 N 0.64563 0.72203 0.8453 0.0
N1295 N 0.64352 0.80973 0.8655 0.0
H1296 H 0.1376 0.75416 0.84984 0.0
H1297 H 0.07813 0.86069 0.75288 0.0
H1298 H 0.01533 0.72571 0.84186 0.0
H1299 H 0.19342 0.91298 0.78409 0.0
H1300 H 0.05413 0.80797 0.78193 0.0
H1301 H 0.15806 0.80762 0.82213 0.0
C1302 C 0.11479 0.75864 0.84207 0.0
C1303 C 0.07439 0.73463 0.84833 0.0
C1304 C 0.08456 0.83124 0.78259 0.0
C1305 C 0.09823 0.79702 0.81606 0.0
C1306 C 0.09836 0.8616 0.76601 0.0
C1307 C 0.13801 0.89217 0.76594 0.0
C1308 C 0.11073 0.83044 0.79907 0.0
C1309 C 0.1626 0.89091 0.78341 0.0
C1310 C 0.1267 0.78965 0.8263 0.0
C1311 C 0.04673 0.74293 0.83762 0.0
N1312 N 0.14881 0.8606 0.79889 0.0
N1313 N 0.05906 0.77307 0.82199 0.0
H1314 H 0.32706 0.42846 0.92049 0.0
H1315 H 0.15759 0.31412 0.86005 0.0
H1316 H 0.25198 0.45841 0.96078 0.0
H1317 H 0.12496 0.40223 0.86929 0.0
H1318 H 0.21274 0.34807 0.88624 0.0
H1319 H 0.27686 0.40389 0.89026 0.0
C1320 C 0.30097 0.43174 0.92256 0.0
C1321 C 0.29501 0.44712 0.94317 0.0
C1322 C 0.19382 0.36031 0.8825 0.0
C1323 C 0.23533 0.41649 0.90875 0.0
C1324 C 0.16165 0.34051 0.86767 0.0
C1325 C 0.13591 0.35495 0.86217 0.0
C1326 C 0.20088 0.3951 0.89252 0.0
C1327 C 0.14367 0.38971 0.87283 0.0
C1328 C 0.27167 0.4167 0.90546 0.0
C1329 C 0.25927 0.44868 0.94498 0.0
N1330 N 0.17505 0.40829 0.88758 0.0
N1331 N 0.2309 0.43345 0.92822 0.0
H1332 H 0.98332 0.34174 0.49606 0.0
H1333 H 0.9624 0.51905 0.54682 0.0
H1334 H 0.06215 0.46062 0.47686 0.0
H1335 H 0.90188 0.4054 0.57809 0.0
H1336 H 0.99406 0.49648 0.51862 0.0
H1337 H 0.94958 0.36278 0.52413 0.0
C1338 C 0.99389 0.37223 0.49781 0.0
C1339 C 0.02608 0.39925 0.48393 0.0
C1340 C 0.9736 0.47632 0.53151 0.0
C1341 C 0.98663 0.42373 0.516 0.0
C1342 C 0.95505 0.48917 0.54759 0.0
C1343 C 0.929 0.46428 0.56507 0.0
C1344 C 0.96599 0.43796 0.53249 0.0
C1345 C 0.92151 0.42586 0.56504 0.0
C1346 C 0.97442 0.38427 0.51386 0.0
C1347 C 0.03788 0.43847 0.48714 0.0
N1348 N 0.93977 0.414 0.54915 0.0
N1349 N 0.01817 0.44934 0.50257 0.0
H1350 H 0.52991 0.581 0.45069 0.0
H1351 H 0.34822 0.38944 0.50807 0.0
H1352 H 0.41468 0.5255 0.41939 0.0
H1353 H 0.4716 0.42243 0.51671 0.0
H1354 H 0.36889 0.44268 0.47944 0.0
H1355 H 0.50608 0.52849 0.47934 0.0
C1356 C 0.49929 0.55848 0.45007 0.0
C1357 C 0.47443 0.55857 0.43243 0.0
C1358 C 0.39136 0.43805 0.48753 0.0
C1359 C 0.44656 0.49692 0.46565 0.0
C1360 C 0.37955 0.40747 0.50387 0.0
C1361 C 0.40799 0.40067 0.51486 0.0
C1362 C 0.43207 0.46293 0.48242 0.0
C1363 C 0.44827 0.42578 0.5087 0.0
C1364 C 0.48576 0.52793 0.46639 0.0
C1365 C 0.43512 0.5272 0.43259 0.0
N1366 N 0.45894 0.45562 0.49324 0.0
N1367 N 0.42246 0.49796 0.44884 0.0
H1368 H 0.59687 0.13674 0.62331 0.0
H1369 H 0.49155 0.9801 0.52579 0.0
H1370 H 0.65162 0.07833 0.58949 0.0
H1371 H 0.46015 0.06912 0.53471 0.0
H1372 H 0.54651 0.01358 0.55218 0.0
H1373 H 0.546 0.11369 0.5933 0.0
C1374 C 0.59955 0.12061 0.60915 0.0
C1375 C 0.6296 0.11019 0.60914 0.0
C1376 C 0.52768 0.02593 0.54848 0.0
C1377 C 0.56917 0.08136 0.57505 0.0
C1378 C 0.49571 0.00649 0.53347 0.0
C1379 C 0.47039 0.02133 0.52783 0.0
C1380 C 0.53482 0.06065 0.55863 0.0
C1381 C 0.47843 0.05621 0.53844 0.0
C1382 C 0.56975 0.10672 0.59212 0.0
C1383 C 0.62963 0.08761 0.59041 0.0
N1384 N 0.50958 0.07442 0.55338 0.0
N1385 N 0.59983 0.07354 0.57462 0.0
H1386 H 0.32756 0.92486 0.03032 0.0
H1387 H 0.13188 0.84109 0.9582 0.0
H1388 H 0.28179 0.9983 1.00697 0.0
H1389 H 0.20831 0.79046 0.95924 0.0
H1390 H 0.18527 0.89941 0.97539 0.0
H1391 H 0.2828 0.87504 1.00432 0.0
C1392 C 0.30811 0.93049 1.01958 0.0
C1393 C 0.30798 0.96547 1.02086 0.0
C1394 C 0.19043 0.87569 0.97147 0.0
C1395 C 0.2564 0.90847 0.99119 0.0
C1396 C 0.16 0.8424 0.96173 0.0
C1397 C 0.1654 0.81059 0.95768 0.0
C1398 C 0.22611 0.8768 0.9774 0.0
C1399 C 0.20255 0.814 0.96237 0.0
C1400 C 0.28276 0.90216 1.00462 0.0
C1401 C 0.28262 0.97158 1.0064 0.0
N1402 N 0.23122 0.84625 0.9723 0.0
N1403 N 0.25722 0.94299 0.99235 0.0
H1404 H 0.02528 0.38509 0.03837 0.0
H1405 H 0.19159 0.32805 1.00965 0.0
H1406 H 1.00151 0.28387 0.99976 0.0
H1407 H 0.21961 0.44453 0.02494 0.0
H1408 H 0.12104 0.3087 1.01047 0.0
H1409 H 0.09603 0.40499 0.03745 0.0
C1410 C 0.03497 0.36712 0.02958 0.0
C1411 C 0.00747 0.33275 1.01908 0.0
C1412 C 0.14267 0.33846 1.01367 0.0
C1413 C 0.08833 0.35518 1.01828 0.0
C1414 C 0.183 0.34955 1.01337 0.0
C1415 C 0.21173 0.38808 1.01717 0.0
C1416 C 0.13085 0.36591 1.01812 0.0
C1417 C 0.1986 0.41455 0.02187 0.0
C1418 C 0.07536 0.37855 0.02906 0.0
C1419 C 0.02173 0.31069 1.00793 0.0
N1420 N 0.1591 0.40294 0.02226 0.0
N1421 N 0.06121 0.32213 1.00798 0.0
H1422 H 0.71688 0.65837 0.03781 0.0
H1423 H 0.76552 0.86793 0.99567 0.0
H1424 H 0.80234 0.76406 0.06935 0.0
H1425 H 0.65292 0.76423 0.98796 0.0
H1426 H 0.79429 0.82855 1.00936 0.0
H1427 H 0.70955 0.6961 1.0063 0.0
C1428 C 0.73492 0.68945 0.0377 0.0
C1429 C 0.75942 0.7084 0.05634 0.0
C1430 C 0.76359 0.81447 1.00401 0.0
C1431 C 0.75146 0.75134 1.0207 0.0
C1432 C 0.74727 0.83684 0.9962 0.0
C1433 C 0.7067 0.81916 0.99128 0.0
C1434 C 0.73913 0.77438 1.00652 0.0
C1435 C 0.68417 0.77887 0.99213 0.0
C1436 C 0.73071 0.71091 1.01982 0.0
C1437 C 0.78231 0.74863 0.05552 0.0
N1438 N 0.70056 0.7578 0.99994 0.0
N1439 N 0.77739 0.7689 0.03813 0.0
H1440 H 0.72492 0.95575 1.01668 0.0
H1441 H 0.83256 0.17265 0.96851 0.0
H1442 H 0.67918 1.00014 0.96379 0.0
H1443 H 0.86178 0.14413 0.0352 0.0
H1444 H 0.78333 0.10549 0.96369 0.0
H1445 H 0.78042 0.02146 0.02199 0.0
C1446 C 0.72634 0.97918 1.00631 0.0
C1447 C 0.6974 0.97227 0.98965 0.0
C1448 C 0.80057 0.11374 0.97937 0.0
C1449 C 0.76086 0.04685 0.99534 0.0
C1450 C 0.82889 0.15212 0.98208 0.0
C1451 C 0.85099 0.16407 1.00241 0.0
C1452 C 0.79399 0.08684 0.99711 0.0
C1453 C 0.84527 0.13605 1.01926 0.0
C1454 C 0.75804 0.01654 1.0093 0.0
C1455 C 0.70079 1.00375 0.97671 0.0
N1456 N 0.81693 0.09858 1.01635 0.0
N1457 N 0.73196 0.03943 0.97974 0.0
H1458 H 0.9089 0.72482 0.08133 0.0
H1459 H 0.95018 0.62408 0.97774 0.0
H1460 H 0.84632 0.60117 0.07422 0.0
H1461 H 0.04548 0.72952 1.00433 0.0
H1462 H 0.91087 0.61665 1.01285 0.0
H1463 H 0.96008 0.72903 0.05394 0.0
C1464 C 0.90631 0.69852 0.0744 0.0
C1465 C 0.87286 0.66266 0.0797 0.0
C1466 C 0.94053 0.64123 1.01115 0.0
C1467 C 0.93073 0.66742 0.04825 0.0
C1468 C 0.96277 0.64567 0.99104 0.0
C1469 C 1.00082 0.67767 0.98813 0.0
C1470 C 0.95606 0.66947 0.02826 0.0
C1471 C 0.01612 0.70451 1.00601 0.0
C1472 C 0.93552 0.70098 0.05881 0.0
C1473 C 0.87123 0.62951 0.07039 0.0
N1474 N 0.99334 0.70019 0.02524 0.0
N1475 N 0.8993 0.63277 0.05474 0.0
H1476 H 0.36316 0.32433 0.03758 0.0
H1477 H 0.27123 0.09794 0.05908 0.0
H1478 H 0.23725 0.24546 0.04651 0.0
H1479 H 0.39545 0.17718 0.04419 0.0
H1480 H 0.25888 0.15255 0.06021 0.0
H1481 H 0.37629 0.27196 0.0468 0.0
C1482 C 0.33829 0.29617 0.04189 0.0
C1483 C 0.299 0.28914 0.04088 0.0
C1484 C 0.28885 0.15792 0.05681 0.0
C1485 C 0.31381 0.22886 0.05108 0.0
C1486 C 0.29588 0.12677 0.05607 0.0
C1487 C 0.3343 0.13296 0.05119 0.0
C1488 C 0.3205 0.19543 0.05272 0.0
C1489 C 0.36523 0.17095 0.04771 0.0
C1490 C 0.3458 0.26618 0.04704 0.0
C1491 C 0.268 0.25211 0.04683 0.0
N1492 N 0.3576 0.20067 0.04843 0.0
N1493 N 0.27604 0.22318 0.05135 0.0
H1494 H 0.95561 0.33381 0.33836 0.0
H1495 H 0.87831 0.12122 0.2917 0.0
H1496 H 0.99146 0.25441 0.36502 0.0
H1497 H 0.80508 0.17531 0.29006 0.0
H1498 H 0.93125 0.17896 0.30889 0.0
H1499 H 0.91064 0.28383 0.31159 0.0
C1500 C 0.95437 0.30608 0.3383 0.0
C1501 C 0.97672 0.29782 0.35397 0.0
C1502 C 0.90374 0.17832 0.30452 0.0
C1503 C 0.92652 0.24147 0.3235 0.0
C1504 C 0.87348 0.14541 0.29466 0.0
C1505 C 0.83685 0.14313 0.28988 0.0
C1506 C 0.89755 0.20933 0.30951 0.0
C1507 C 0.83264 0.17566 0.29382 0.0
C1508 C 0.92875 0.2777 0.32317 0.0
C1509 C 0.9742 0.2616 0.35339 0.0
N1510 N 0.86257 0.20743 0.30366 0.0
N1511 N 0.94954 0.23476 0.3384 0.0
H1512 H 0.86034 0.659 0.34077 0.0
H1513 H 0.69524 0.71634 0.37306 0.0
H1514 H 0.88886 0.77462 0.35882 0.0
H1515 H 0.67022 0.61632 0.33281 0.0
H1516 H 0.76573 0.73537 0.37196 0.0
H1517 H 0.78977 0.63978 0.34236 0.0
C1518 C 0.85185 0.68031 0.34527 0.0
C1519 C 0.88072 0.71859 0.34958 0.0
C1520 C 0.74485 0.70937 0.36327 0.0
C1521 C 0.79989 0.6966 0.35142 0.0
C1522 C 0.70459 0.69844 0.36389 0.0
C1523 C 0.6768 0.66469 0.35295 0.0
C1524 C 0.75744 0.68615 0.35192 0.0
C1525 C 0.69067 0.64268 0.34133 0.0
C1526 C 0.81153 0.66931 0.34601 0.0
C1527 C 0.86775 0.74485 0.3553 0.0
N1528 N 0.73005 0.65366 0.34125 0.0
N1529 N 0.82829 0.73334 0.35608 0.0
H1530 H 0.42604 0.19955 0.32798 0.0
H1531 H 0.37764 0.99062 0.37197 0.0
H1532 H 0.31023 0.09789 0.32714 0.0
H1533 H 0.4682 0.09656 0.40074 0.0
H1534 H 0.3668 0.02799 0.34172 0.0
H1535 H 0.45437 0.15951 0.3412 0.0
C1536 C 0.40684 0.16872 0.33003 0.0
C1537 C 0.36573 0.15195 0.32705 0.0
C1538 C 0.38983 0.04291 0.35429 0.0
C1539 C 0.3977 0.10638 0.34158 0.0
C1540 C 0.39609 0.02166 0.37142 0.0
C1541 C 0.42323 0.04082 0.38896 0.0
C1542 C 0.41118 0.08334 0.35479 0.0
C1543 C 0.44639 0.08101 0.38769 0.0
C1544 C 0.42294 0.146 0.33753 0.0
C1545 C 0.342 0.11194 0.32978 0.0
N1546 N 0.4395 0.1011 0.37104 0.0
N1547 N 0.35828 0.09051 0.33711 0.0
H1548 H 0.52976 0.47705 0.36855 0.0
H1549 H 0.34519 0.3354 0.29286 0.0
H1550 H 0.5005 0.5064 0.30212 0.0
H1551 H 0.38798 0.29212 0.34803 0.0
H1552 H 0.40061 0.3993 0.29849 0.0
H1553 H 0.47836 0.40958 0.36299 0.0
C1554 C 0.51311 0.4692 0.35265 0.0
C1555 C 0.5191 0.49738 0.33586 0.0
C1556 C 0.39809 0.37592 0.30938 0.0
C1557 C 0.46024 0.42099 0.32966 0.0
C1558 C 0.36621 0.33927 0.30624 0.0
C1559 C 0.36197 0.30812 0.31987 0.0
C1560 C 0.42608 0.38192 0.32642 0.0
C1561 C 0.39014 0.3153 0.33709 0.0
C1562 C 0.48368 0.43084 0.34957 0.0
C1563 C 0.49658 0.48577 0.31566 0.0
N1564 N 0.42112 0.35157 0.33991 0.0
N1565 N 0.46799 0.44863 0.31326 0.0
H1566 H 0.62075 0.95652 0.3107 0.0
H1567 H 0.57543 0.05876 0.412 0.0
H1568 H 0.71383 0.06421 0.33631 0.0
H1569 H 0.51418 0.93499 0.40572 0.0
H1570 H 0.62736 0.06307 0.3852 0.0
H1571 H 0.58076 0.94932 0.34545 0.0
C1572 C 0.63272 0.97863 0.32373 0.0
C1573 C 0.6703 0.0112 0.32063 0.0
C1574 C 0.60292 0.03499 0.39011 0.0
C1575 C 0.62474 1.00331 0.36034 0.0
C1576 C 0.57326 0.03247 0.40537 0.0
C1577 C 0.54 0.99651 0.41074 0.0
C1578 C 0.59879 1.00137 0.37997 0.0
C1579 C 0.53894 0.96338 0.40182 0.0
C1580 C 0.6101 0.97435 0.34364 0.0
C1581 C 0.68483 0.03874 0.33815 0.0
N1582 N 0.56747 0.96668 0.38651 0.0
N1583 N 0.66165 0.03454 0.35717 0.0
H1584 H 0.90859 0.57772 0.37794 0.0
H1585 H 0.07077 0.50898 0.37367 0.0
H1586 H 0.03347 0.65332 0.36261 0.0
H1587 H 0.94585 0.43234 0.38825 0.0
H1588 H 0.0585 0.5633 0.37349 0.0
H1589 H 0.92282 0.52578 0.38665 0.0
C1590 C 0.93911 0.58363 0.37679 0.0
C1591 C 0.9698 0.61981 0.36921 0.0
C1592 C 0.03376 0.53464 0.3768 0.0
C1593 C 0.98616 0.56032 0.37885 0.0
C1594 C 0.0407 0.50354 0.37681 0.0
C1595 C 0.00917 0.46597 0.38069 0.0
C1596 C 0.99497 0.52822 0.38066 0.0
C1597 C 0.97095 0.46077 0.38492 0.0
C1598 C 0.94717 0.55387 0.38166 0.0
C1599 C 0.00879 0.62581 0.36818 0.0
N1600 N 0.96488 0.49156 0.38466 0.0
N1601 N 0.01576 0.59622 0.37265 0.0
H1602 H 0.46538 0.50796 0.62478 0.0
H1603 H 0.65988 0.59205 0.69798 0.0
H1604 H 0.54253 0.45814 0.6261 0.0
H1605 H 0.61353 0.66505 0.67472 0.0
H1606 H 0.61589 0.54247 0.6716 0.0
H1607 H 0.51819 0.56629 0.64229 0.0
C1608 C 0.49355 0.50947 0.62842 0.0
C1609 C 0.49929 0.47785 0.62437 0.0
C1610 C 0.61554 0.56945 0.67201 0.0
C1611 C 0.55936 0.54408 0.64446 0.0
C1612 C 0.64045 0.59763 0.68718 0.0
C1613 C 0.63993 0.63241 0.6886 0.0
C1614 C 0.58923 0.57568 0.65848 0.0
C1615 C 0.61464 0.63848 0.67406 0.0
C1616 C 0.52365 0.54277 0.63835 0.0
C1617 C 0.53649 0.48152 0.62923 0.0
N1618 N 0.58967 0.61001 0.65979 0.0
N1619 N 0.56484 0.51376 0.63933 0.0
H1620 H 0.55401 0.11185 0.69264 0.0
H1621 H 0.3328 0.9487 0.6652 0.0
H1622 H 0.52369 0.99542 0.67543 0.0
H1623 H 0.35894 0.04911 0.70536 0.0
H1624 H 0.40388 0.96888 0.6641 0.0
H1625 H 0.48325 0.09221 0.69348 0.0
C1626 C 0.53255 0.08213 0.68918 0.0
C1627 C 0.54492 0.05527 0.68396 0.0
C1628 C 0.39396 0.98646 0.6731 0.0
C1629 C 0.46398 0.03286 0.68451 0.0
C1630 C 0.3535 0.97514 0.67358 0.0
C1631 C 0.33996 0.99722 0.68541 0.0
C1632 C 0.42101 0.02032 0.68427 0.0
C1633 C 0.36805 0.0311 0.69613 0.0
C1634 C 0.49217 0.07098 0.68963 0.0
C1635 C 0.51564 0.01715 0.67957 0.0
N1636 N 0.40725 0.04165 0.69525 0.0
N1637 N 0.47656 0.00717 0.67977 0.0
H1638 H 0.04922 0.3247 0.7045 0.0
H1639 H 0.09628 0.53407 0.66288 0.0
H1640 H 0.13383 0.4304 0.73641 0.0
H1641 H 0.98392 0.43008 0.65525 0.0
H1642 H 0.12537 0.49493 0.6765 0.0
H1643 H 0.04144 0.36246 0.6732 0.0
C1644 C 0.06698 0.35581 0.70452 0.0
C1645 C 0.09135 0.37471 0.72323 0.0
C1646 C 0.09466 0.48074 0.67119 0.0
C1647 C 0.08291 0.41769 0.68778 0.0
C1648 C 0.07815 0.50297 0.66341 0.0
C1649 C 0.03756 0.48513 0.65853 0.0
C1650 C 0.07035 0.44063 0.67369 0.0
C1651 C 0.01518 0.44484 0.65939 0.0
C1652 C 0.06251 0.37728 0.68676 0.0
C1653 C 0.11388 0.41498 0.72255 0.0
N1654 N 0.03176 0.4239 0.66715 0.0
N1655 N 0.10873 0.43526 0.70526 0.0
H1656 H 0.16175 0.83872 0.63601 0.0
H1657 H 0.05571 0.62153 0.68372 0.0
H1658 H 0.19347 0.80956 0.70172 0.0
H1659 H 0.00899 0.66568 0.63128 0.0
H1660 H 0.1111 0.68732 0.68894 0.0
H1661 H 0.11218 0.77167 0.6313 0.0
C1662 C 0.15854 0.81808 0.64939 0.0
C1663 C 0.18149 0.82983 0.66941 0.0
C1664 C 0.08854 0.68235 0.67637 0.0
C1665 C 0.12411 0.75267 0.66424 0.0
C1666 C 0.05689 0.64493 0.67344 0.0
C1667 C 0.02771 0.63793 0.65693 0.0
C1668 C 0.09103 0.71263 0.66253 0.0
C1669 C 0.03079 0.66937 0.64408 0.0
C1670 C 0.13002 0.77975 0.64674 0.0
C1671 C 0.17631 0.80165 0.68602 0.0
N1672 N 0.0619 0.70511 0.64707 0.0
N1673 N 0.1478 0.76424 0.68318 0.0
H1674 H 0.17636 0.26497 0.73975 0.0
H1675 H 0.3807 0.39713 0.67094 0.0
H1676 H 0.24077 0.3886 0.74695 0.0
H1677 H 0.28399 0.29232 0.64466 0.0
H1678 H 0.34006 0.38962 0.706 0.0
H1679 H 0.22786 0.26997 0.71272 0.0
C1680 C 0.2017 0.29312 0.73604 0.0
C1681 C 0.20383 0.32655 0.74524 0.0
C1682 C 0.32808 0.36821 0.69258 0.0
C1683 C 0.26275 0.33226 0.71433 0.0
C1684 C 0.35111 0.37243 0.67269 0.0
C1685 C 0.33528 0.34556 0.65486 0.0
C1686 C 0.2896 0.3364 0.69475 0.0
C1687 C 0.29694 0.314 0.65786 0.0
C1688 C 0.23096 0.2959 0.72052 0.0
C1689 C 0.23766 0.36217 0.73995 0.0
N1690 N 0.27541 0.31025 0.67744 0.0
N1691 N 0.26569 0.36419 0.72458 0.0
H1692 H 0.72929 0.84438 0.71476 0.0
H1693 H 0.56667 0.91188 0.71582 0.0
H1694 H 0.60368 0.76612 0.72573 0.0
H1695 H 0.69306 0.98897 0.7074 0.0
H1696 H 0.57993 0.85943 0.72498 0.0
H1697 H 0.71676 0.89837 0.71652 0.0
C1698 C 0.69899 0.83851 0.71752 0.0
C1699 C 0.66736 0.8006 0.71974 0.0
C1700 C 0.60478 0.88796 0.72149 0.0
C1701 C 0.65283 0.86256 0.72188 0.0
C1702 C 0.59726 0.91802 0.71638 0.0
C1703 C 0.62878 0.95476 0.71042 0.0
C1704 C 0.64405 0.89473 0.72055 0.0
C1705 C 0.66779 0.96101 0.71157 0.0
C1706 C 0.69189 0.86944 0.71866 0.0
C1707 C 0.62886 0.79487 0.72365 0.0
N1708 N 0.67426 0.93116 0.71616 0.0
N1709 N 0.62261 0.82555 0.72439 0.0
loop_
_geom_bond_atom_site_label_1
_geom_bond_atom_site_label_2
_geom_bond_distance
_geom_bond_site_symmetry_2
_ccdc_geom_bond_type
Co0 O2 2.143 . S
Co0 O8 2.074 . S
Co0 O11 2.093 . S
Co0 O24 2.097 . S
Co0 N41 2.151 . S
Co0 N49 2.214 1_554 S
Co1 O2 2.160 . S
Co1 O7 2.058 . S
Co1 O17 2.057 . S
Co1 O32 2.037 1_545 S
Co1 N36 2.145 1_545 S
Co1 N57 2.257 . S
O2 Co0 2.143 . S
O2 Co1 2.160 . S
C3 O4 1.278 . S
C3 O11 1.224 . S
O4 C3 1.278 . S
C5 O6 1.245 . S
C5 O17 1.232 . S
O6 C5 1.245 . S
O7 Co1 2.058 . S
O7 C33 1.269 . S
O8 Co0 2.074 . S
O8 C33 1.257 . S
H9 C34 0.930 . S
H10 C40 0.930 . S
O11 Co0 2.093 . S
O11 C3 1.224 . S
H12 C44 0.929 . S
H13 C46 0.930 . S
H14 C47 0.930 1_565 S
H15 C45 0.929 . S
H16 C48 0.928 . S
O17 Co1 2.057 . S
O17 C5 1.232 . S
H18 C37 0.929 . S
H19 C38 0.929 . S
H20 C50 0.931 1_565 S
H21 C42 0.929 . S
H22 C51 0.930 . S
H23 C43 0.931 . S
O24 Co0 2.097 . S
O24 C52 1.214 1_545 S
H25 C53 0.929 . S
H26 C54 0.929 . S
H27 C55 0.930 . S
H28 C56 0.916 . S
H29 C58 0.930 . S
H30 C35 0.930 . S
H31 C39 0.930 . S
O32 Co1 2.037 1_565 S
O32 C52 1.234 . S
C33 O7 1.269 . S
C33 O8 1.257 . S
C34 H9 0.930 . S
C34 C37 1.388 . S
C34 C39 1.418 . S
C35 H30 0.930 . S
C35 C38 1.404 . S
C35 C39 1.353 . S
N36 Co1 2.145 1_565 S
N36 C37 1.397 . S
N36 C38 1.334 . S
C37 H18 0.929 . S
C37 C34 1.388 . S
C37 N36 1.397 . S
C38 H19 0.929 . S
C38 C35 1.404 . S
C38 N36 1.334 . S
C39 H31 0.930 . S
C39 C34 1.418 . S
C39 C35 1.353 . S
C40 H10 0.930 . S
C40 N41 1.330 . S
C40 C42 1.446 . S
N41 Co0 2.151 . S
N41 C40 1.330 . S
N41 C45 1.418 . S
C42 H21 0.929 . S
C42 C40 1.446 . S
C42 C43 1.332 . S
C43 H23 0.931 . S
C43 C42 1.332 . S
C43 C44 1.267 . S
C44 H12 0.929 . S
C44 C43 1.267 . S
C44 C45 1.251 . S
C45 H15 0.929 . S
C45 N41 1.418 . S
C45 C44 1.251 . S
C46 H13 0.930 . S
C46 C48 1.406 . S
C46 C51 1.261 . S
C47 H14 0.930 1_545 S
C47 N49 1.325 . S
C47 C50 1.357 . S
C48 H16 0.928 . S
C48 C46 1.406 . S
C48 N49 1.261 . S
N49 Co0 2.214 1_556 S
N49 C47 1.325 . S
N49 C48 1.261 . S
C50 H20 0.931 1_545 S
C50 C47 1.357 . S
C50 C51 1.312 . S
C51 H22 0.930 . S
C51 C46 1.261 . S
C51 C50 1.312 . S
C52 O24 1.214 1_565 S
C52 O32 1.234 . S
C53 H25 0.929 . S
C53 C56 1.376 1_545 S
C53 C58 1.391 . S
C54 H26 0.929 . S
C54 C55 1.390 . S
C54 N57 1.391 1_565 S
C55 H27 0.930 . S
C55 C54 1.390 . S
C55 C56 1.421 . S
C56 H28 0.916 . S
C56 C53 1.376 1_565 S
C56 C55 1.421 . S
N57 Co1 2.257 . S
N57 C54 1.391 1_545 S
N57 C58 1.388 . S
C58 H29 0.930 . S
C58 C53 1.391 . S
C58 N57 1.388 . S
Co59 O61 2.143 1_556 S
Co59 O67 2.074 1_556 S
Co59 O70 2.093 . S
Co59 O83 2.097 . S
Co59 N100 2.151 . S
Co59 N108 2.214 . S
Co60 O61 2.160 . S
Co60 O66 2.058 . S
Co60 O76 2.057 . S
Co60 O91 2.037 . S
Co60 N95 2.145 . S
Co60 N116 2.257 . S
O61 Co59 2.143 1_554 S
O61 Co60 2.160 . S
C62 O63 1.282 . S
C62 O70 1.221 1_554 S
O63 C62 1.282 . S
C64 O65 1.245 . S
C64 O76 1.232 . S
O65 C64 1.245 . S
O66 Co60 2.058 . S
O66 C92 1.269 . S
O67 Co59 2.074 1_554 S
O67 C92 1.257 . S
H68 C93 0.930 . S
H69 C99 0.930 . S
O70 Co59 2.093 . S
O70 C62 1.221 1_556 S
H71 C103 0.929 . S
H72 C105 0.930 . S
H73 C106 0.930 . S
H74 C104 0.929 . S
H75 C107 0.928 . S
O76 Co60 2.057 . S
O76 C64 1.232 . S
H77 C96 0.929 . S
H78 C97 0.929 . S
H79 C109 0.931 . S
H80 C101 0.929 . S
H81 C110 0.930 . S
H82 C102 0.931 . S
O83 Co59 2.097 . S
O83 C111 1.214 1_556 S
H84 C112 0.929 . S
H85 C113 0.929 1_455 S
H86 C114 0.930 1_455 S
H87 C115 0.929 . S
H88 C117 0.930 . S
H89 C94 0.930 . S
H90 C98 0.930 . S
O91 Co60 2.037 . S
O91 C111 1.234 . S
C92 O66 1.269 . S
C92 O67 1.257 . S
C93 H68 0.930 . S
C93 C96 1.388 . S
C93 C98 1.418 . S
C94 H89 0.930 . S
C94 C97 1.404 1_455 S
C94 C98 1.353 . S
N95 Co60 2.145 . S
N95 C96 1.397 1_655 S
N95 C97 1.334 . S
C96 H77 0.929 . S
C96 C93 1.388 . S
C96 N95 1.397 1_455 S
C97 H78 0.929 . S
C97 C94 1.404 1_655 S
C97 N95 1.334 . S
C98 H90 0.930 . S
C98 C93 1.418 . S
C98 C94 1.353 . S
C99 H69 0.930 . S
C99 N100 1.330 1_554 S
C99 C101 1.446 . S
N100 Co59 2.151 . S
N100 C99 1.330 1_556 S
N100 C104 1.418 . S
C101 H80 0.929 . S
C101 C99 1.446 . S
C101 C102 1.332 1_554 S
C102 H82 0.931 . S
C102 C101 1.332 1_556 S
C102 C103 1.267 . S
C103 H71 0.929 . S
C103 C102 1.267 . S
C103 C104 1.251 . S
C104 H74 0.929 . S
C104 N100 1.418 . S
C104 C103 1.251 . S
C105 H72 0.930 . S
C105 C107 1.406 . S
C105 C110 1.261 . S
C106 H73 0.930 . S
C106 N108 1.325 . S
C106 C109 1.357 . S
C107 H75 0.928 . S
C107 C105 1.406 . S
C107 N108 1.261 . S
N108 Co59 2.214 . S
N108 C106 1.325 . S
N108 C107 1.261 . S
C109 H79 0.931 . S
C109 C106 1.357 . S
C109 C110 1.312 . S
C110 H81 0.930 . S
C110 C105 1.261 . S
C110 C109 1.312 . S
C111 O83 1.214 1_554 S
C111 O91 1.234 . S
C112 H84 0.929 . S
C112 C115 1.391 . S
C112 C117 1.391 . S
C113 H85 0.929 1_655 S
C113 C114 1.390 . S
C113 N116 1.391 . S
C114 H86 0.930 1_655 S
C114 C113 1.390 . S
C114 C115 1.392 . S
C115 H87 0.929 . S
C115 C112 1.391 . S
C115 C114 1.392 . S
N116 Co60 2.257 . S
N116 C113 1.391 . S
N116 C117 1.388 . S
C117 H88 0.930 . S
C117 C112 1.391 . S
C117 N116 1.388 . S
Co118 O120 2.143 . S
Co118 O126 2.074 . S
Co118 O129 2.093 . S
Co118 O142 2.097 . S
Co118 N159 2.151 . S
Co118 N167 2.181 1_554 S
Co119 O120 2.160 . S
Co119 O125 2.058 . S
Co119 O135 2.057 . S
Co119 O150 2.037 . S
Co119 N154 2.145 . S
Co119 N175 2.257 . S
O120 Co118 2.143 . S
O120 Co119 2.160 . S
C121 O122 1.278 . S
C121 O129 1.224 . S
O122 C121 1.278 . S
C123 O124 1.245 . S
C123 O135 1.232 . S
O124 C123 1.245 . S
O125 Co119 2.058 . S
O125 C151 1.269 . S
O126 Co118 2.074 . S
O126 C151 1.257 . S
H127 C152 0.930 . S
H128 C158 0.930 . S
O129 Co118 2.093 . S
O129 C121 1.224 . S
H130 C162 0.929 . S
H131 C164 0.930 . S
H132 C165 0.930 1_554 S
H133 C163 0.929 . S
H134 C166 0.928 . S
O135 Co119 2.057 . S
O135 C123 1.232 . S
H136 C155 0.929 . S
H137 C156 0.929 . S
H138 C168 0.931 . S
H139 C160 0.929 . S
H140 C169 0.930 . S
H141 C161 0.931 . S
O142 Co118 2.097 . S
O142 C170 1.214 . S
H143 C171 0.929 . S
H144 C172 0.929 . S
H145 C173 0.930 . S
H146 C174 0.929 . S
H147 C176 0.930 . S
H148 C153 0.930 . S
H149 C157 0.930 . S
O150 Co119 2.037 . S
O150 C170 1.234 . S
C151 O125 1.269 . S
C151 O126 1.257 . S
C152 H127 0.930 . S
C152 C155 1.388 . S
C152 C157 1.418 . S
C153 H148 0.930 . S
C153 C156 1.404 . S
C153 C157 1.353 . S
N154 Co119 2.145 . S
N154 C155 1.397 . S
N154 C156 1.334 . S
C155 H136 0.929 . S
C155 C152 1.388 . S
C155 N154 1.397 . S
C156 H137 0.929 . S
C156 C153 1.404 . S
C156 N154 1.334 . S
C157 H149 0.930 . S
C157 C152 1.418 . S
C157 C153 1.353 . S
C158 H128 0.930 . S
C158 N159 1.330 . S
C158 C160 1.446 . S
N159 Co118 2.151 . S
N159 C158 1.330 . S
N159 C163 1.418 . S
C160 H139 0.929 . S
C160 C158 1.446 . S
C160 C161 1.332 . S
C161 H141 0.931 . S
C161 C160 1.332 . S
C161 C162 1.267 . S
C162 H130 0.929 . S
C162 C161 1.267 . S
C162 C163 1.251 . S
C163 H133 0.929 . S
C163 N159 1.418 . S
C163 C162 1.251 . S
C164 H131 0.930 . S
C164 C166 1.406 . S
C164 C169 1.261 . S
C165 H132 0.930 1_556 S
C165 N167 1.335 . S
C165 C168 1.357 . S
C166 H134 0.928 . S
C166 C164 1.406 . S
C166 N167 1.286 . S
N167 Co118 2.181 1_556 S
N167 C165 1.335 . S
N167 C166 1.286 . S
C168 H138 0.931 . S
C168 C165 1.357 . S
C168 C169 1.312 . S
C169 H140 0.930 . S
C169 C164 1.261 . S
C169 C168 1.312 . S
C170 O142 1.214 . S
C170 O150 1.234 . S
C171 H143 0.929 . S
C171 C174 1.391 . S
C171 C176 1.391 . S
C172 H144 0.929 . S
C172 C173 1.390 . S
C172 N175 1.391 . S
C173 H145 0.930 . S
C173 C172 1.390 . S
C173 C174 1.392 . S
C174 H146 0.929 . S
C174 C171 1.391 . S
C174 C173 1.392 . S
N175 Co119 2.257 . S
N175 C172 1.391 . S
N175 C176 1.388 . S
C176 H147 0.930 . S
C176 C171 1.391 . S
C176 N175 1.388 . S
Co177 O179 2.143 . S
Co177 O185 2.074 . S
Co177 O188 2.093 . S
Co177 O201 2.097 . S
Co177 N218 2.151 . S
Co177 N226 2.214 1_556 S
Co178 O179 2.160 . S
Co178 O184 2.058 . S
Co178 O194 2.057 . S
Co178 O209 2.037 . S
Co178 N213 2.145 . S
Co178 N234 2.257 . S
O179 Co177 2.143 . S
O179 Co178 2.160 . S
C180 O181 1.278 . S
C180 O188 1.224 . S
O181 C180 1.278 . S
C182 O183 1.245 . S
C182 O194 1.232 . S
O183 C182 1.245 . S
O184 Co178 2.058 . S
O184 C210 1.269 . S
O185 Co177 2.074 . S
O185 C210 1.257 . S
H186 C211 0.930 . S
H187 C217 0.930 . S
O188 Co177 2.093 . S
O188 C180 1.224 . S
H189 C221 0.929 1_554 S
H190 C223 0.930 . S
H191 C224 0.930 . S
H192 C222 0.925 1_554 S
H193 C225 0.928 . S
O194 Co178 2.057 . S
O194 C182 1.232 . S
H195 C214 0.929 . S
H196 C215 0.929 . S
H197 C227 0.931 . S
H198 C219 0.929 . S
H199 C228 0.930 . S
H200 C220 0.931 . S
O201 Co177 2.097 . S
O201 C229 1.214 . S
H202 C230 0.929 . S
H203 C231 0.929 . S
H204 C232 0.929 1_545 S
H205 C233 0.929 . S
H206 C235 0.930 . S
H207 C212 0.930 1_565 S
H208 C216 0.930 . S
O209 Co178 2.037 . S
O209 C229 1.234 . S
C210 O184 1.269 . S
C210 O185 1.257 . S
C211 H186 0.930 . S
C211 C214 1.388 . S
C211 C216 1.418 . S
C212 H207 0.930 1_545 S
C212 C215 1.404 1_545 S
C212 C216 1.353 . S
N213 Co178 2.145 . S
N213 C214 1.397 1_565 S
N213 C215 1.334 . S
C214 H195 0.929 . S
C214 C211 1.388 . S
C214 N213 1.397 1_545 S
C215 H196 0.929 . S
C215 C212 1.404 1_565 S
C215 N213 1.334 . S
C216 H208 0.930 . S
C216 C211 1.418 . S
C216 C212 1.353 . S
C217 H187 0.930 . S
C217 N218 1.330 . S
C217 C219 1.446 . S
N218 Co177 2.151 . S
N218 C217 1.330 . S
N218 C222 1.418 . S
C219 H198 0.929 . S
C219 C217 1.446 . S
C219 C220 1.332 . S
C220 H200 0.931 . S
C220 C219 1.332 . S
C220 C221 1.267 . S
C221 H189 0.929 1_556 S
C221 C220 1.267 . S
C221 C222 1.251 . S
C222 H192 0.925 1_556 S
C222 N218 1.418 . S
C222 C221 1.251 . S
C223 H190 0.930 . S
C223 C225 1.406 . S
C223 C228 1.261 . S
C224 H191 0.930 . S
C224 N226 1.325 . S
C224 C227 1.357 . S
C225 H193 0.928 . S
C225 C223 1.406 . S
C225 N226 1.261 . S
N226 Co177 2.214 1_554 S
N226 C224 1.325 . S
N226 C225 1.261 . S
C227 H197 0.931 . S
C227 C224 1.357 . S
C227 C228 1.312 . S
C228 H199 0.930 . S
C228 C223 1.261 . S
C228 C227 1.312 . S
C229 O201 1.214 . S
C229 O209 1.234 . S
C230 H202 0.929 . S
C230 C233 1.391 . S
C230 C235 1.391 . S
C231 H203 0.929 . S
C231 C232 1.390 . S
C231 N234 1.391 . S
C232 H204 0.929 1_565 S
C232 C231 1.390 . S
C232 C233 1.392 . S
C233 H205 0.929 . S
C233 C230 1.391 . S
C233 C232 1.392 . S
N234 Co178 2.257 . S
N234 C231 1.391 . S
N234 C235 1.388 . S
C235 H206 0.930 . S
C235 C230 1.391 . S
C235 N234 1.388 . S
Co236 O238 2.143 . S
Co236 O244 2.074 . S
Co236 O247 2.093 . S
Co236 O260 2.097 . S
Co236 N277 2.151 . S
Co236 N285 2.214 1_556 S
Co237 O238 2.160 . S
Co237 O243 2.058 . S
Co237 O253 2.057 . S
Co237 O268 2.037 . S
Co237 N272 2.145 1_455 S
Co237 N293 2.257 . S
O238 Co236 2.143 . S
O238 Co237 2.160 . S
C239 O240 1.278 . S
C239 O247 1.224 . S
O240 C239 1.278 . S
C241 O242 1.245 . S
C241 O253 1.232 . S
O242 C241 1.245 . S
O243 Co237 2.058 . S
O243 C269 1.269 . S
O244 Co236 2.074 . S
O244 C269 1.257 . S
H245 C270 0.930 . S
H246 C276 0.930 . S
O247 Co236 2.093 . S
O247 C239 1.224 . S
H248 C280 0.929 . S
H249 C282 0.930 . S
H250 C283 0.930 . S
H251 C281 0.929 . S
H252 C284 0.928 . S
O253 Co237 2.057 . S
O253 C241 1.232 . S
H254 C273 0.929 . S
H255 C274 0.929 1_455 S
H256 C286 0.931 . S
H257 C278 0.929 . S
H258 C287 0.930 . S
H259 C279 0.931 . S
O260 Co236 2.097 . S
O260 C288 1.214 . S
H261 C289 0.929 . S
H262 C290 0.929 1_655 S
H263 C291 0.930 1_655 S
H264 C292 0.929 . S
H265 C294 0.930 . S
H266 C271 0.930 . S
H267 C275 0.930 . S
O268 Co237 2.037 . S
O268 C288 1.234 . S
C269 O243 1.269 . S
C269 O244 1.257 . S
C270 H245 0.930 . S
C270 C273 1.388 . S
C270 C275 1.418 . S
C271 H266 0.930 . S
C271 C274 1.404 . S
C271 C275 1.353 . S
N272 Co237 2.145 1_655 S
N272 C273 1.397 . S
N272 C274 1.334 . S
C273 H254 0.929 . S
C273 C270 1.388 . S
C273 N272 1.397 . S
C274 H255 0.929 1_655 S
C274 C271 1.404 . S
C274 N272 1.334 . S
C275 H267 0.930 . S
C275 C270 1.418 . S
C275 C271 1.353 . S
C276 H246 0.930 . S
C276 N277 1.330 . S
C276 C278 1.446 . S
N277 Co236 2.151 . S
N277 C276 1.330 . S
N277 C281 1.418 . S
C278 H257 0.929 . S
C278 C276 1.446 . S
C278 C279 1.332 . S
C279 H259 0.931 . S
C279 C278 1.332 . S
C279 C280 1.267 . S
C280 H248 0.929 . S
C280 C279 1.267 . S
C280 C281 1.251 . S
C281 H251 0.929 . S
C281 N277 1.418 . S
C281 C280 1.251 . S
C282 H249 0.930 . S
C282 C284 1.406 . S
C282 C287 1.261 . S
C283 H250 0.930 . S
C283 N285 1.325 . S
C283 C286 1.357 . S
C284 H252 0.928 . S
C284 C282 1.406 . S
C284 N285 1.261 . S
N285 Co236 2.214 1_554 S
N285 C283 1.325 . S
N285 C284 1.261 . S
C286 H256 0.931 . S
C286 C283 1.357 . S
C286 C287 1.312 . S
C287 H258 0.930 . S
C287 C282 1.261 . S
C287 C286 1.312 . S
C288 O260 1.214 . S
C288 O268 1.234 . S
C289 H261 0.929 . S
C289 C292 1.391 . S
C289 C294 1.391 . S
C290 H262 0.929 1_455 S
C290 C291 1.390 . S
C290 N293 1.391 . S
C291 H263 0.930 1_455 S
C291 C290 1.390 . S
C291 C292 1.392 . S
C292 H264 0.929 . S
C292 C289 1.391 . S
C292 C291 1.392 . S
N293 Co237 2.257 . S
N293 C290 1.391 . S
N293 C294 1.388 . S
C294 H265 0.930 . S
C294 C289 1.391 . S
C294 N293 1.388 . S
Co295 O297 2.143 . S
Co295 O303 2.074 . S
Co295 O306 2.093 . S
Co295 O319 2.097 . S
Co295 N336 2.151 1_556 S
Co295 N344 2.214 . S
Co296 O297 2.160 . S
Co296 O302 2.058 . S
Co296 O312 2.057 . S
Co296 O327 2.037 . S
Co296 N331 2.145 . S
Co296 N352 2.257 . S
O297 Co295 2.143 . S
O297 Co296 2.160 . S
C298 O299 1.278 . S
C298 O306 1.224 . S
O299 C298 1.278 . S
C300 O301 1.245 . S
C300 O312 1.232 . S
O301 C300 1.245 . S
O302 Co296 2.058 . S
O302 C328 1.269 . S
O303 Co295 2.074 . S
O303 C328 1.257 . S
H304 C329 0.930 . S
H305 C335 0.930 . S
O306 Co295 2.093 . S
O306 C298 1.224 . S
H307 C339 0.929 . S
H308 C341 0.930 . S
H309 C342 0.930 . S
H310 C340 0.929 . S
H311 C343 0.928 . S
O312 Co296 2.057 . S
O312 C300 1.232 . S
H313 C332 0.929 . S
H314 C333 0.929 . S
H315 C345 0.931 . S
H316 C337 0.929 . S
H317 C346 0.930 . S
H318 C338 0.931 . S
O319 Co295 2.097 . S
O319 C347 1.214 . S
H320 C348 0.929 . S
H321 C349 0.929 . S
H322 C350 0.930 . S
H323 C351 0.929 . S
H324 C353 0.930 . S
H325 C330 0.930 . S
H326 C334 0.930 . S
O327 Co296 2.037 . S
O327 C347 1.234 . S
C328 O302 1.269 . S
C328 O303 1.257 . S
C329 H304 0.930 . S
C329 C332 1.388 . S
C329 C334 1.418 . S
C330 H325 0.930 . S
C330 C333 1.404 . S
C330 C334 1.353 . S
N331 Co296 2.145 . S
N331 C332 1.397 . S
N331 C333 1.334 . S
C332 H313 0.929 . S
C332 C329 1.388 . S
C332 N331 1.397 . S
C333 H314 0.929 . S
C333 C330 1.404 . S
C333 N331 1.334 . S
C334 H326 0.930 . S
C334 C329 1.418 . S
C334 C330 1.353 . S
C335 H305 0.930 . S
C335 N336 1.330 . S
C335 C337 1.446 . S
N336 Co295 2.151 1_554 S
N336 C335 1.330 . S
N336 C340 1.418 . S
C337 H316 0.929 . S
C337 C335 1.446 . S
C337 C338 1.332 . S
C338 H318 0.931 . S
C338 C337 1.332 . S
C338 C339 1.267 . S
C339 H307 0.929 . S
C339 C338 1.267 . S
C339 C340 1.251 . S
C340 H310 0.929 . S
C340 N336 1.418 . S
C340 C339 1.251 . S
C341 H308 0.930 . S
C341 C343 1.406 . S
C341 C346 1.261 . S
C342 H309 0.930 . S
C342 N344 1.325 . S
C342 C345 1.357 . S
C343 H311 0.928 . S
C343 C341 1.406 . S
C343 N344 1.261 . S
N344 Co295 2.214 . S
N344 C342 1.325 . S
N344 C343 1.261 . S
C345 H315 0.931 . S
C345 C342 1.357 . S
C345 C346 1.312 . S
C346 H317 0.930 . S
C346 C341 1.261 . S
C346 C345 1.312 . S
C347 O319 1.214 . S
C347 O327 1.234 . S
C348 H320 0.929 . S
C348 C351 1.391 . S
C348 C353 1.391 . S
C349 H321 0.929 . S
C349 C350 1.390 . S
C349 N352 1.391 . S
C350 H322 0.930 . S
C350 C349 1.390 . S
C350 C351 1.392 . S
C351 H323 0.929 . S
C351 C348 1.391 . S
C351 C350 1.392 . S
N352 Co296 2.257 . S
N352 C349 1.391 . S
N352 C353 1.388 . S
C353 H324 0.930 . S
C353 C348 1.391 . S
C353 N352 1.388 . S
Co354 O356 2.143 . S
Co354 O362 2.074 . S
Co354 O365 2.093 1_455 S
Co354 O378 2.097 1_455 S
Co354 N395 2.151 . S
Co354 N403 2.214 . S
Co355 O356 2.160 1_655 S
Co355 O361 2.058 1_655 S
Co355 O371 2.057 1_655 S
Co355 O386 2.037 . S
Co355 N390 2.145 . S
Co355 N411 2.257 . S
O356 Co354 2.143 . S
O356 Co355 2.160 1_455 S
C357 O358 1.278 . S
C357 O365 1.224 . S
O358 C357 1.278 . S
C359 O360 1.245 . S
C359 O371 1.232 . S
O360 C359 1.245 . S
O361 Co355 2.058 1_455 S
O361 C387 1.269 . S
O362 Co354 2.074 . S
O362 C387 1.257 . S
H363 C388 0.930 . S
H364 C394 0.930 . S
O365 Co354 2.093 1_655 S
O365 C357 1.224 . S
H366 C398 0.929 . S
H367 C400 0.930 . S
H368 C401 0.930 . S
H369 C399 0.929 . S
H370 C402 0.928 . S
O371 Co355 2.057 1_455 S
O371 C359 1.232 . S
H372 C391 0.929 . S
H373 C392 0.929 . S
H374 C404 0.931 . S
H375 C396 0.929 . S
H376 C405 0.930 . S
H377 C397 0.931 . S
O378 Co354 2.097 1_655 S
O378 C406 1.214 . S
H379 C407 0.929 . S
H380 C408 0.929 . S
H381 C409 0.930 . S
H382 C410 0.929 . S
H383 C412 0.930 . S
H384 C389 0.930 . S
H385 C393 0.930 . S
O386 Co355 2.037 . S
O386 C406 1.234 . S
C387 O361 1.269 . S
C387 O362 1.257 . S
C388 H363 0.930 . S
C388 C391 1.388 . S
C388 C393 1.418 . S
C389 H384 0.930 . S
C389 C392 1.404 . S
C389 C393 1.353 . S
N390 Co355 2.145 . S
N390 C391 1.397 . S
N390 C392 1.334 . S
C391 H372 0.929 . S
C391 C388 1.388 . S
C391 N390 1.397 . S
C392 H373 0.929 . S
C392 C389 1.404 . S
C392 N390 1.334 . S
C393 H385 0.930 . S
C393 C388 1.418 . S
C393 C389 1.353 . S
C394 H364 0.930 . S
C394 N395 1.330 . S
C394 C396 1.446 . S
N395 Co354 2.151 . S
N395 C394 1.330 . S
N395 C399 1.418 . S
C396 H375 0.929 . S
C396 C394 1.446 . S
C396 C397 1.332 . S
C397 H377 0.931 . S
C397 C396 1.332 . S
C397 C398 1.267 . S
C398 H366 0.929 . S
C398 C397 1.267 . S
C398 C399 1.251 . S
C399 H369 0.929 . S
C399 N395 1.418 . S
C399 C398 1.251 . S
C400 H367 0.930 . S
C400 C402 1.406 . S
C400 C405 1.261 . S
C401 H368 0.930 . S
C401 N403 1.325 . S
C401 C404 1.357 . S
C402 H370 0.928 . S
C402 C400 1.406 . S
C402 N403 1.261 . S
N403 Co354 2.214 . S
N403 C401 1.325 . S
N403 C402 1.261 . S
C404 H374 0.931 . S
C404 C401 1.357 . S
C404 C405 1.312 . S
C405 H376 0.930 . S
C405 C400 1.261 . S
C405 C404 1.312 . S
C406 O378 1.214 . S
C406 O386 1.234 . S
C407 H379 0.929 . S
C407 C410 1.391 . S
C407 C412 1.391 . S
C408 H380 0.929 . S
C408 C409 1.390 . S
C408 N411 1.391 . S
C409 H381 0.930 . S
C409 C408 1.390 . S
C409 C410 1.392 . S
C410 H382 0.929 . S
C410 C407 1.391 . S
C410 C409 1.392 . S
N411 Co355 2.257 . S
N411 C408 1.391 . S
N411 C412 1.388 . S
C412 H383 0.930 . S
C412 C407 1.391 . S
C412 N411 1.388 . S
Co413 O415 2.143 . S
Co413 O421 2.074 . S
Co413 O424 2.093 . S
Co413 O437 2.097 . S
Co413 N454 2.151 . S
Co413 N462 2.214 . S
Co414 O415 2.160 . S
Co414 O420 2.058 . S
Co414 O430 2.057 . S
Co414 O445 2.037 . S
Co414 N449 2.145 . S
Co414 N470 2.257 . S
O415 Co413 2.143 . S
O415 Co414 2.160 . S
C416 O417 1.278 . S
C416 O424 1.224 . S
O417 C416 1.278 . S
C418 O419 1.245 . S
C418 O430 1.232 . S
O419 C418 1.245 . S
O420 Co414 2.058 . S
O420 C446 1.269 . S
O421 Co413 2.074 . S
O421 C446 1.257 . S
H422 C447 0.930 . S
H423 C453 0.930 . S
O424 Co413 2.093 . S
O424 C416 1.224 . S
H425 C457 0.929 . S
H426 C459 0.930 . S
H427 C460 0.930 . S
H428 C458 0.929 . S
H429 C461 0.928 . S
O430 Co414 2.057 . S
O430 C418 1.232 . S
H431 C450 0.929 . S
H432 C451 0.929 . S
H433 C463 0.931 . S
H434 C455 0.929 . S
H435 C464 0.930 . S
H436 C456 0.931 . S
O437 Co413 2.097 . S
O437 C465 1.214 . S
H438 C466 0.929 . S
H439 C467 0.929 . S
H440 C468 0.930 . S
H441 C469 0.929 . S
H442 C471 0.930 . S
H443 C448 0.930 . S
H444 C452 0.930 . S
O445 Co414 2.037 . S
O445 C465 1.234 . S
C446 O420 1.269 . S
C446 O421 1.257 . S
C447 H422 0.930 . S
C447 C450 1.388 . S
C447 C452 1.418 . S
C448 H443 0.930 . S
C448 C451 1.404 . S
C448 C452 1.353 . S
N449 Co414 2.145 . S
N449 C450 1.397 . S
N449 C451 1.334 . S
C450 H431 0.929 . S
C450 C447 1.388 . S
C450 N449 1.397 . S
C451 H432 0.929 . S
C451 C448 1.404 . S
C451 N449 1.334 . S
C452 H444 0.930 . S
C452 C447 1.418 . S
C452 C448 1.353 . S
C453 H423 0.930 . S
C453 N454 1.330 . S
C453 C455 1.446 . S
N454 Co413 2.151 . S
N454 C453 1.330 . S
N454 C458 1.418 . S
C455 H434 0.929 . S
C455 C453 1.446 . S
C455 C456 1.332 . S
C456 H436 0.931 . S
C456 C455 1.332 . S
C456 C457 1.267 . S
C457 H425 0.929 . S
C457 C456 1.267 . S
C457 C458 1.251 . S
C458 H428 0.929 . S
C458 N454 1.418 . S
C458 C457 1.251 . S
C459 H426 0.930 . S
C459 C461 1.406 . S
C459 C464 1.261 . S
C460 H427 0.930 . S
C460 N462 1.325 . S
C460 C463 1.357 . S
C461 H429 0.928 . S
C461 C459 1.406 . S
C461 N462 1.261 . S
N462 Co413 2.214 . S
N462 C460 1.325 . S
N462 C461 1.261 . S
C463 H433 0.931 . S
C463 C460 1.357 . S
C463 C464 1.312 . S
C464 H435 0.930 . S
C464 C459 1.261 . S
C464 C463 1.312 . S
C465 O437 1.214 . S
C465 O445 1.234 . S
C466 H438 0.929 . S
C466 C469 1.391 . S
C466 C471 1.391 . S
C467 H439 0.929 . S
C467 C468 1.390 . S
C467 N470 1.391 . S
C468 H440 0.930 . S
C468 C467 1.390 . S
C468 C469 1.392 . S
C469 H441 0.929 . S
C469 C466 1.391 . S
C469 C468 1.392 . S
N470 Co414 2.257 . S
N470 C467 1.391 . S
N470 C471 1.388 . S
C471 H442 0.930 . S
C471 C466 1.391 . S
C471 N470 1.388 . S
Co472 O474 2.143 . S
Co472 O480 2.074 . S
Co472 O483 2.093 1_565 S
Co472 O496 2.097 1_565 S
Co472 N513 2.151 . S
Co472 N521 2.214 . S
Co473 O474 2.160 1_545 S
Co473 O479 2.058 1_545 S
Co473 O489 2.057 1_545 S
Co473 O504 2.037 . S
Co473 N508 2.145 . S
Co473 N529 2.257 . S
O474 Co472 2.143 . S
O474 Co473 2.160 1_565 S
C475 O476 1.278 . S
C475 O483 1.224 . S
O476 C475 1.278 . S
C477 O478 1.245 . S
C477 O489 1.232 . S
O478 C477 1.245 . S
O479 Co473 2.058 1_565 S
O479 C505 1.269 . S
O480 Co472 2.074 . S
O480 C505 1.257 . S
H481 C506 0.930 . S
H482 C512 0.930 . S
O483 Co472 2.093 1_545 S
O483 C475 1.224 . S
H484 C516 0.929 . S
H485 C518 0.930 . S
H486 C519 0.930 . S
H487 C517 0.929 . S
H488 C520 0.928 . S
O489 Co473 2.057 1_565 S
O489 C477 1.232 . S
H490 C509 0.929 . S
H491 C510 0.929 . S
H492 C522 0.931 . S
H493 C514 0.929 . S
H494 C523 0.930 . S
H495 C515 0.931 . S
O496 Co472 2.097 1_545 S
O496 C524 1.214 . S
H497 C525 0.929 . S
H498 C526 0.929 . S
H499 C527 0.930 . S
H500 C528 0.929 . S
H501 C530 0.930 . S
H502 C507 0.930 . S
H503 C511 0.930 . S
O504 Co473 2.037 . S
O504 C524 1.234 . S
C505 O479 1.269 . S
C505 O480 1.257 . S
C506 H481 0.930 . S
C506 C509 1.388 . S
C506 C511 1.418 . S
C507 H502 0.930 . S
C507 C510 1.404 . S
C507 C511 1.353 . S
N508 Co473 2.145 . S
N508 C509 1.397 . S
N508 C510 1.334 . S
C509 H490 0.929 . S
C509 C506 1.388 . S
C509 N508 1.397 . S
C510 H491 0.929 . S
C510 C507 1.404 . S
C510 N508 1.334 . S
C511 H503 0.930 . S
C511 C506 1.418 . S
C511 C507 1.353 . S
C512 H482 0.930 . S
C512 N513 1.330 . S
C512 C514 1.446 . S
N513 Co472 2.151 . S
N513 C512 1.330 . S
N513 C517 1.418 . S
C514 H493 0.929 . S
C514 C512 1.446 . S
C514 C515 1.332 . S
C515 H495 0.931 . S
C515 C514 1.332 . S
C515 C516 1.267 . S
C516 H484 0.929 . S
C516 C515 1.267 . S
C516 C517 1.251 . S
C517 H487 0.929 . S
C517 N513 1.418 . S
C517 C516 1.251 . S
C518 H485 0.930 . S
C518 C520 1.406 . S
C518 C523 1.261 . S
C519 H486 0.930 . S
C519 N521 1.325 . S
C519 C522 1.357 . S
C520 H488 0.928 . S
C520 C518 1.406 . S
C520 N521 1.261 . S
N521 Co472 2.214 . S
N521 C519 1.325 . S
N521 C520 1.261 . S
C522 H492 0.931 . S
C522 C519 1.357 . S
C522 C523 1.312 . S
C523 H494 0.930 . S
C523 C518 1.261 . S
C523 C522 1.312 . S
C524 O496 1.214 . S
C524 O504 1.234 . S
C525 H497 0.929 . S
C525 C528 1.391 . S
C525 C530 1.391 . S
C526 H498 0.929 . S
C526 C527 1.390 . S
C526 N529 1.391 . S
C527 H499 0.930 . S
C527 C526 1.390 . S
C527 C528 1.392 . S
C528 H500 0.929 . S
C528 C525 1.391 . S
C528 C527 1.392 . S
N529 Co473 2.257 . S
N529 C526 1.391 . S
N529 C530 1.388 . S
C530 H501 0.930 . S
C530 C525 1.391 . S
C530 N529 1.388 . S
Co531 O533 2.143 . S
Co531 O539 2.074 . S
Co531 O542 2.093 . S
Co531 O555 2.097 . S
Co531 N572 2.151 . S
Co531 N580 2.214 . S
Co532 O533 2.160 . S
Co532 O538 2.058 . S
Co532 O548 2.057 . S
Co532 O563 2.037 . S
Co532 N567 2.145 . S
Co532 N588 2.257 . S
O533 Co531 2.143 . S
O533 Co532 2.160 . S
C534 O535 1.278 . S
C534 O542 1.224 . S
O535 C534 1.278 . S
C536 O537 1.245 . S
C536 O548 1.232 . S
O537 C536 1.245 . S
O538 Co532 2.058 . S
O538 C564 1.269 . S
O539 Co531 2.074 . S
O539 C564 1.257 . S
H540 C565 0.930 . S
H541 C571 0.930 . S
O542 Co531 2.093 . S
O542 C534 1.224 . S
H543 C575 0.929 . S
H544 C577 0.930 . S
H545 C578 0.930 . S
H546 C576 0.929 . S
H547 C579 0.928 . S
O548 Co532 2.057 . S
O548 C536 1.232 . S
H549 C568 0.929 . S
H550 C569 0.929 . S
H551 C581 0.931 . S
H552 C573 0.929 . S
H553 C582 0.930 . S
H554 C574 0.931 . S
O555 Co531 2.097 . S
O555 C583 1.214 . S
H556 C584 0.929 . S
H557 C585 0.929 . S
H558 C586 0.930 . S
H559 C587 0.929 . S
H560 C589 0.930 . S
H561 C566 0.930 . S
H562 C570 0.930 . S
O563 Co532 2.037 . S
O563 C583 1.234 . S
C564 O538 1.269 . S
C564 O539 1.257 . S
C565 H540 0.930 . S
C565 C568 1.388 . S
C565 C570 1.418 . S
C566 H561 0.930 . S
C566 C569 1.404 . S
C566 C570 1.353 . S
N567 Co532 2.145 . S
N567 C568 1.397 . S
N567 C569 1.334 . S
C568 H549 0.929 . S
C568 C565 1.388 . S
C568 N567 1.397 . S
C569 H550 0.929 . S
C569 C566 1.404 . S
C569 N567 1.334 . S
C570 H562 0.930 . S
C570 C565 1.418 . S
C570 C566 1.353 . S
C571 H541 0.930 . S
C571 N572 1.330 . S
C571 C573 1.446 . S
N572 Co531 2.151 . S
N572 C571 1.330 . S
N572 C576 1.418 . S
C573 H552 0.929 . S
C573 C571 1.446 . S
C573 C574 1.332 . S
C574 H554 0.931 . S
C574 C573 1.332 . S
C574 C575 1.267 . S
C575 H543 0.929 . S
C575 C574 1.267 . S
C575 C576 1.251 . S
C576 H546 0.929 . S
C576 N572 1.418 . S
C576 C575 1.251 . S
C577 H544 0.930 . S
C577 C579 1.406 . S
C577 C582 1.261 . S
C578 H545 0.930 . S
C578 N580 1.325 . S
C578 C581 1.357 . S
C579 H547 0.928 . S
C579 C577 1.406 . S
C579 N580 1.261 . S
N580 Co531 2.214 . S
N580 C578 1.325 . S
N580 C579 1.261 . S
C581 H551 0.931 . S
C581 C578 1.357 . S
C581 C582 1.312 . S
C582 H553 0.930 . S
C582 C577 1.261 . S
C582 C581 1.312 . S
C583 O555 1.214 . S
C583 O563 1.234 . S
C584 H556 0.929 . S
C584 C587 1.391 . S
C584 C589 1.391 . S
C585 H557 0.929 . S
C585 C586 1.390 . S
C585 N588 1.391 . S
C586 H558 0.930 . S
C586 C585 1.390 . S
C586 C587 1.392 . S
C587 H559 0.929 . S
C587 C584 1.391 . S
C587 C586 1.392 . S
N588 Co532 2.257 . S
N588 C585 1.391 . S
N588 C589 1.388 . S
C589 H560 0.930 . S
C589 C584 1.391 . S
C589 N588 1.388 . S
Co590 O592 2.143 . S
Co590 O598 2.074 1_545 S
Co590 O601 2.093 . S
Co590 O614 2.097 . S
Co590 N631 2.151 . S
Co590 N639 2.214 . S
Co591 O592 2.160 . S
Co591 O597 2.058 1_545 S
Co591 O607 2.057 . S
Co591 O622 2.037 . S
Co591 N626 2.145 . S
Co591 N647 2.257 . S
O592 Co590 2.143 . S
O592 Co591 2.160 . S
C593 O594 1.278 . S
C593 O601 1.224 . S
O594 C593 1.278 . S
C595 O596 1.245 . S
C595 O607 1.232 . S
O596 C595 1.245 . S
O597 Co591 2.058 1_565 S
O597 C623 1.269 . S
O598 Co590 2.074 1_565 S
O598 C623 1.257 . S
H599 C624 0.930 . S
H600 C630 0.930 . S
O601 Co590 2.093 . S
O601 C593 1.224 . S
H602 C634 0.929 1_565 S
H603 C636 0.930 . S
H604 C637 0.930 . S
H605 C635 0.929 1_565 S
H606 C638 0.928 . S
O607 Co591 2.057 . S
O607 C595 1.232 . S
H608 C627 0.929 . S
H609 C628 0.929 . S
H610 C640 0.931 . S
H611 C632 0.929 . S
H612 C641 0.930 . S
H613 C633 0.931 . S
O614 Co590 2.097 . S
O614 C642 1.214 . S
H615 C643 0.929 . S
H616 C644 0.929 . S
H617 C645 0.930 . S
H618 C646 0.929 . S
H619 C648 0.930 . S
H620 C625 0.930 . S
H621 C629 0.930 . S
O622 Co591 2.037 . S
O622 C642 1.234 . S
C623 O597 1.269 . S
C623 O598 1.257 . S
C624 H599 0.930 . S
C624 C627 1.388 . S
C624 C629 1.418 . S
C625 H620 0.930 . S
C625 C628 1.404 1_565 S
C625 C629 1.353 . S
N626 Co591 2.145 . S
N626 C627 1.397 1_545 S
N626 C628 1.334 . S
C627 H608 0.929 . S
C627 C624 1.388 . S
C627 N626 1.397 1_565 S
C628 H609 0.929 . S
C628 C625 1.404 1_545 S
C628 N626 1.334 . S
C629 H621 0.930 . S
C629 C624 1.418 . S
C629 C625 1.353 . S
C630 H600 0.930 . S
C630 N631 1.330 . S
C630 C632 1.446 . S
N631 Co590 2.151 . S
N631 C630 1.330 . S
N631 C635 1.418 . S
C632 H611 0.929 . S
C632 C630 1.446 . S
C632 C633 1.332 . S
C633 H613 0.931 . S
C633 C632 1.332 . S
C633 C634 1.267 . S
C634 H602 0.929 1_545 S
C634 C633 1.267 . S
C634 C635 1.251 . S
C635 H605 0.929 1_545 S
C635 N631 1.418 . S
C635 C634 1.251 . S
C636 H603 0.930 . S
C636 C638 1.406 . S
C636 C641 1.261 1_545 S
C637 H604 0.930 . S
C637 N639 1.325 1_565 S
C637 C640 1.357 . S
C638 H606 0.928 . S
C638 C636 1.406 . S
C638 N639 1.261 . S
N639 Co590 2.214 . S
N639 C637 1.325 1_545 S
N639 C638 1.261 . S
C640 H610 0.931 . S
C640 C637 1.357 . S
C640 C641 1.312 . S
C641 H612 0.930 . S
C641 C636 1.261 1_565 S
C641 C640 1.312 . S
C642 O614 1.214 . S
C642 O622 1.234 . S
C643 H615 0.929 . S
C643 C646 1.391 . S
C643 C648 1.391 . S
C644 H616 0.929 . S
C644 C645 1.390 . S
C644 N647 1.391 . S
C645 H617 0.930 . S
C645 C644 1.390 . S
C645 C646 1.392 . S
C646 H618 0.929 . S
C646 C643 1.391 . S
C646 C645 1.392 . S
N647 Co591 2.257 . S
N647 C644 1.391 . S
N647 C648 1.388 . S
C648 H619 0.930 . S
C648 C643 1.391 . S
C648 N647 1.388 . S
Co649 O651 2.143 . S
Co649 O657 2.074 . S
Co649 O660 2.093 1_655 S
Co649 O673 2.097 . S
Co649 N690 2.151 . S
Co649 N698 2.214 . S
Co650 O651 2.160 . S
Co650 O656 2.058 . S
Co650 O666 2.057 . S
Co650 O681 2.037 . S
Co650 N685 2.145 . S
Co650 N706 2.257 . S
O651 Co649 2.143 . S
O651 Co650 2.160 . S
C652 O653 1.278 . S
C652 O660 1.224 . S
O653 C652 1.278 . S
C654 O655 1.245 . S
C654 O666 1.232 . S
O655 C654 1.245 . S
O656 Co650 2.058 . S
O656 C682 1.269 . S
O657 Co649 2.074 . S
O657 C682 1.257 . S
H658 C683 0.930 . S
H659 C689 0.930 1_455 S
O660 Co649 2.093 1_455 S
O660 C652 1.224 . S
H661 C693 0.929 . S
H662 C695 0.930 . S
H663 C696 0.930 . S
H664 C694 0.929 . S
H665 C697 0.928 . S
O666 Co650 2.057 . S
O666 C654 1.232 . S
H667 C686 0.929 . S
H668 C687 0.929 . S
H669 C699 0.931 . S
H670 C691 0.913 1_455 S
H671 C700 0.930 . S
H672 C692 0.931 . S
O673 Co649 2.097 . S
O673 C701 1.214 . S
H674 C702 0.929 . S
H675 C703 0.929 . S
H676 C704 0.930 . S
H677 C705 0.929 . S
H678 C707 0.930 . S
H679 C684 0.930 . S
H680 C688 0.930 . S
O681 Co650 2.037 . S
O681 C701 1.234 . S
C682 O656 1.269 . S
C682 O657 1.257 . S
C683 H658 0.930 . S
C683 C686 1.388 . S
C683 C688 1.418 . S
C684 H679 0.930 . S
C684 C687 1.404 . S
C684 C688 1.353 . S
N685 Co650 2.145 . S
N685 C686 1.397 . S
N685 C687 1.334 . S
C686 H667 0.929 . S
C686 C683 1.388 . S
C686 N685 1.397 . S
C687 H668 0.929 . S
C687 C684 1.404 . S
C687 N685 1.334 . S
C688 H680 0.930 . S
C688 C683 1.418 . S
C688 C684 1.353 . S
C689 H659 0.930 1_655 S
C689 N690 1.330 . S
C689 C691 1.446 . S
N690 Co649 2.151 . S
N690 C689 1.330 . S
N690 C694 1.418 . S
C691 H670 0.913 1_655 S
C691 C689 1.446 . S
C691 C692 1.349 . S
C692 H672 0.931 . S
C692 C691 1.349 . S
C692 C693 1.267 . S
C693 H661 0.929 . S
C693 C692 1.267 . S
C693 C694 1.251 . S
C694 H664 0.929 . S
C694 N690 1.418 . S
C694 C693 1.251 . S
C695 H662 0.930 . S
C695 C697 1.406 . S
C695 C700 1.261 . S
C696 H663 0.930 . S
C696 N698 1.325 . S
C696 C699 1.357 . S
C697 H665 0.928 . S
C697 C695 1.406 . S
C697 N698 1.261 . S
N698 Co649 2.214 . S
N698 C696 1.325 . S
N698 C697 1.261 . S
C699 H669 0.931 . S
C699 C696 1.357 . S
C699 C700 1.312 . S
C700 H671 0.930 . S
C700 C695 1.261 . S
C700 C699 1.312 . S
C701 O673 1.214 . S
C701 O681 1.234 . S
C702 H674 0.929 . S
C702 C705 1.391 . S
C702 C707 1.391 . S
C703 H675 0.929 . S
C703 C704 1.390 1_655 S
C703 N706 1.391 . S
C704 H676 0.930 . S
C704 C703 1.390 1_455 S
C704 C705 1.392 . S
C705 H677 0.929 . S
C705 C702 1.391 . S
C705 C704 1.392 . S
N706 Co650 2.257 . S
N706 C703 1.391 . S
N706 C707 1.388 1_655 S
C707 H678 0.930 . S
C707 C702 1.391 . S
C707 N706 1.388 1_455 S
Co708 O710 2.143 . S
Co708 O716 2.074 . S
Co708 O719 2.093 . S
Co708 O732 2.097 . S
Co708 N749 2.151 . S
Co708 N757 2.214 . S
Co709 O710 2.160 . S
Co709 O715 2.058 . S
Co709 O725 2.057 . S
Co709 O740 2.037 . S
Co709 N744 2.145 . S
Co709 N765 2.257 . S
O710 Co708 2.143 . S
O710 Co709 2.160 . S
C711 O712 1.278 . S
C711 O719 1.224 . S
O712 C711 1.278 . S
C713 O714 1.245 . S
C713 O725 1.232 . S
O714 C713 1.245 . S
O715 Co709 2.058 . S
O715 C741 1.269 . S
O716 Co708 2.074 . S
O716 C741 1.257 . S
H717 C742 0.930 . S
H718 C748 0.930 . S
O719 Co708 2.093 . S
O719 C711 1.224 . S
H720 C752 0.929 . S
H721 C754 0.930 . S
H722 C755 0.930 . S
H723 C753 0.929 . S
H724 C756 0.928 . S
O725 Co709 2.057 . S
O725 C713 1.232 . S
H726 C745 0.929 . S
H727 C746 0.929 . S
H728 C758 0.931 . S
H729 C750 0.929 . S
H730 C759 0.930 . S
H731 C751 0.931 . S
O732 Co708 2.097 . S
O732 C760 1.214 . S
H733 C761 0.929 . S
H734 C762 0.929 . S
H735 C763 0.930 . S
H736 C764 0.929 . S
H737 C766 0.930 . S
H738 C743 0.930 . S
H739 C747 0.930 . S
O740 Co709 2.037 . S
O740 C760 1.234 . S
C741 O715 1.269 . S
C741 O716 1.257 . S
C742 H717 0.930 . S
C742 C745 1.388 . S
C742 C747 1.418 . S
C743 H738 0.930 . S
C743 C746 1.404 . S
C743 C747 1.353 . S
N744 Co709 2.145 . S
N744 C745 1.397 . S
N744 C746 1.334 . S
C745 H726 0.929 . S
C745 C742 1.388 . S
C745 N744 1.397 . S
C746 H727 0.929 . S
C746 C743 1.404 . S
C746 N744 1.334 . S
C747 H739 0.930 . S
C747 C742 1.418 . S
C747 C743 1.353 . S
C748 H718 0.930 . S
C748 N749 1.330 . S
C748 C750 1.446 . S
N749 Co708 2.151 . S
N749 C748 1.330 . S
N749 C753 1.418 . S
C750 H729 0.929 . S
C750 C748 1.446 . S
C750 C751 1.332 . S
C751 H731 0.931 . S
C751 C750 1.332 . S
C751 C752 1.267 . S
C752 H720 0.929 . S
C752 C751 1.267 . S
C752 C753 1.251 . S
C753 H723 0.929 . S
C753 N749 1.418 . S
C753 C752 1.251 . S
C754 H721 0.930 . S
C754 C756 1.406 . S
C754 C759 1.261 . S
C755 H722 0.930 . S
C755 N757 1.325 . S
C755 C758 1.357 . S
C756 H724 0.928 . S
C756 C754 1.406 . S
C756 N757 1.261 . S
N757 Co708 2.214 . S
N757 C755 1.325 . S
N757 C756 1.261 . S
C758 H728 0.931 . S
C758 C755 1.357 . S
C758 C759 1.312 . S
C759 H730 0.930 . S
C759 C754 1.261 . S
C759 C758 1.312 . S
C760 O732 1.214 . S
C760 O740 1.234 . S
C761 H733 0.929 . S
C761 C764 1.391 . S
C761 C766 1.391 . S
C762 H734 0.929 . S
C762 C763 1.390 . S
C762 N765 1.391 . S
C763 H735 0.930 . S
C763 C762 1.390 . S
C763 C764 1.392 . S
C764 H736 0.929 . S
C764 C761 1.391 . S
C764 C763 1.392 . S
N765 Co709 2.257 . S
N765 C762 1.391 . S
N765 C766 1.388 . S
C766 H737 0.930 . S
C766 C761 1.391 . S
C766 N765 1.388 . S
Co767 O769 2.143 . S
Co767 O775 2.074 . S
Co767 O778 2.093 . S
Co767 O791 2.097 . S
Co767 N808 2.151 . S
Co767 N816 2.214 . S
Co768 O769 2.160 . S
Co768 O774 2.058 . S
Co768 O784 2.057 . S
Co768 O799 2.037 . S
Co768 N803 2.145 . S
Co768 N824 2.257 . S
O769 Co767 2.143 . S
O769 Co768 2.160 . S
C770 O771 1.278 . S
C770 O778 1.224 . S
O771 C770 1.278 . S
C772 O773 1.245 . S
C772 O784 1.232 . S
O773 C772 1.245 . S
O774 Co768 2.058 . S
O774 C800 1.269 1_565 S
O775 Co767 2.074 . S
O775 C800 1.257 1_565 S
H776 C801 0.930 . S
H777 C807 0.930 . S
O778 Co767 2.093 . S
O778 C770 1.224 . S
H779 C811 0.929 . S
H780 C813 0.930 . S
H781 C814 0.930 . S
H782 C812 0.929 . S
H783 C815 0.928 . S
O784 Co768 2.057 . S
O784 C772 1.232 . S
H785 C804 0.929 . S
H786 C805 0.929 . S
H787 C817 0.931 1_545 S
H788 C809 0.929 . S
H789 C818 0.930 . S
H790 C810 0.931 . S
O791 Co767 2.097 . S
O791 C819 1.214 . S
H792 C820 0.929 . S
H793 C821 0.929 . S
H794 C822 0.930 . S
H795 C823 0.929 . S
H796 C825 0.930 . S
H797 C802 0.930 . S
H798 C806 0.930 . S
O799 Co768 2.037 . S
O799 C819 1.234 . S
C800 O774 1.269 1_545 S
C800 O775 1.257 1_545 S
C801 H776 0.930 . S
C801 C804 1.388 . S
C801 C806 1.418 . S
C802 H797 0.930 . S
C802 C805 1.404 . S
C802 C806 1.353 1_565 S
N803 Co768 2.145 . S
N803 C804 1.397 1_565 S
N803 C805 1.334 . S
C804 H785 0.929 . S
C804 C801 1.388 . S
C804 N803 1.397 1_545 S
C805 H786 0.929 . S
C805 C802 1.404 . S
C805 N803 1.334 . S
C806 H798 0.930 . S
C806 C801 1.418 . S
C806 C802 1.353 1_545 S
C807 H777 0.930 . S
C807 N808 1.330 . S
C807 C809 1.446 . S
N808 Co767 2.151 . S
N808 C807 1.330 . S
N808 C812 1.418 . S
C809 H788 0.929 . S
C809 C807 1.446 . S
C809 C810 1.332 . S
C810 H790 0.931 . S
C810 C809 1.332 . S
C810 C811 1.267 . S
C811 H779 0.929 . S
C811 C810 1.267 . S
C811 C812 1.251 . S
C812 H782 0.929 . S
C812 N808 1.418 . S
C812 C811 1.251 . S
C813 H780 0.930 . S
C813 C815 1.406 . S
C813 C818 1.261 . S
C814 H781 0.930 . S
C814 N816 1.325 . S
C814 C817 1.357 . S
C815 H783 0.928 . S
C815 C813 1.406 . S
C815 N816 1.261 . S
N816 Co767 2.214 . S
N816 C814 1.325 . S
N816 C815 1.261 . S
C817 H787 0.931 1_565 S
C817 C814 1.357 . S
C817 C818 1.312 . S
C818 H789 0.930 . S
C818 C813 1.261 . S
C818 C817 1.312 . S
C819 O791 1.214 . S
C819 O799 1.234 . S
C820 H792 0.929 . S
C820 C823 1.391 . S
C820 C825 1.391 . S
C821 H793 0.929 . S
C821 C822 1.390 . S
C821 N824 1.391 . S
C822 H794 0.930 . S
C822 C821 1.390 . S
C822 C823 1.392 . S
C823 H795 0.929 . S
C823 C820 1.391 . S
C823 C822 1.392 . S
N824 Co768 2.257 . S
N824 C821 1.391 . S
N824 C825 1.388 . S
C825 H796 0.930 . S
C825 C820 1.391 . S
C825 N824 1.388 . S
Co826 O828 2.143 . S
Co826 O834 2.074 . S
Co826 O837 2.093 . S
Co826 O850 2.097 . S
Co826 N867 2.151 . S
Co826 N875 2.214 . S
Co827 O828 2.160 . S
Co827 O833 2.058 . S
Co827 O843 2.057 . S
Co827 O858 2.037 . S
Co827 N862 2.145 . S
Co827 N883 2.257 . S
O828 Co826 2.143 . S
O828 Co827 2.160 . S
C829 O830 1.278 . S
C829 O837 1.224 . S
O830 C829 1.278 . S
C831 O832 1.245 . S
C831 O843 1.232 . S
O832 C831 1.245 . S
O833 Co827 2.058 . S
O833 C859 1.269 1_455 S
O834 Co826 2.074 . S
O834 C859 1.257 1_455 S
H835 C860 0.930 . S
H836 C866 0.930 . S
O837 Co826 2.093 . S
O837 C829 1.224 . S
H838 C870 0.929 . S
H839 C872 0.930 . S
H840 C873 0.930 . S
H841 C871 0.929 . S
H842 C874 0.928 . S
O843 Co827 2.057 . S
O843 C831 1.232 . S
H844 C863 0.929 . S
H845 C864 0.929 . S
H846 C876 0.931 1_655 S
H847 C868 0.929 . S
H848 C877 0.930 . S
H849 C869 0.931 . S
O850 Co826 2.097 . S
O850 C878 1.214 . S
H851 C879 0.929 . S
H852 C880 0.929 . S
H853 C881 0.930 . S
H854 C882 0.929 . S
H855 C884 0.930 . S
H856 C861 0.930 . S
H857 C865 0.930 . S
O858 Co827 2.037 . S
O858 C878 1.234 . S
C859 O833 1.269 1_655 S
C859 O834 1.257 1_655 S
C860 H835 0.930 . S
C860 C863 1.388 . S
C860 C865 1.418 . S
C861 H856 0.930 . S
C861 C864 1.404 . S
C861 C865 1.353 1_455 S
N862 Co827 2.145 . S
N862 C863 1.397 1_455 S
N862 C864 1.334 . S
C863 H844 0.929 . S
C863 C860 1.388 . S
C863 N862 1.397 1_655 S
C864 H845 0.929 . S
C864 C861 1.404 . S
C864 N862 1.334 . S
C865 H857 0.930 . S
C865 C860 1.418 . S
C865 C861 1.353 1_655 S
C866 H836 0.930 . S
C866 N867 1.330 . S
C866 C868 1.446 . S
N867 Co826 2.151 . S
N867 C866 1.330 . S
N867 C871 1.418 . S
C868 H847 0.929 . S
C868 C866 1.446 . S
C868 C869 1.332 . S
C869 H849 0.931 . S
C869 C868 1.332 . S
C869 C870 1.267 . S
C870 H838 0.929 . S
C870 C869 1.267 . S
C870 C871 1.251 . S
C871 H841 0.929 . S
C871 N867 1.418 . S
C871 C870 1.251 . S
C872 H839 0.930 . S
C872 C874 1.406 . S
C872 C877 1.261 . S
C873 H840 0.930 . S
C873 N875 1.325 . S
C873 C876 1.357 . S
C874 H842 0.928 . S
C874 C872 1.406 . S
C874 N875 1.261 . S
N875 Co826 2.214 . S
N875 C873 1.325 . S
N875 C874 1.261 . S
C876 H846 0.931 1_455 S
C876 C873 1.357 . S
C876 C877 1.312 . S
C877 H848 0.930 . S
C877 C872 1.261 . S
C877 C876 1.312 . S
C878 O850 1.214 . S
C878 O858 1.234 . S
C879 H851 0.929 . S
C879 C882 1.391 . S
C879 C884 1.391 . S
C880 H852 0.929 . S
C880 C881 1.390 . S
C880 N883 1.391 . S
C881 H853 0.930 . S
C881 C880 1.390 . S
C881 C882 1.392 . S
C882 H854 0.929 . S
C882 C879 1.391 . S
C882 C881 1.392 . S
N883 Co827 2.257 . S
N883 C880 1.391 . S
N883 C884 1.388 . S
C884 H855 0.930 . S
C884 C879 1.391 . S
C884 N883 1.388 . S
Co885 O887 2.143 . S
Co885 O893 2.074 . S
Co885 O896 2.093 . S
Co885 O909 2.097 1_655 S
Co885 N926 2.151 . S
Co885 N934 2.214 . S
Co886 O887 2.160 . S
Co886 O892 2.058 . S
Co886 O902 2.057 . S
Co886 O917 2.037 1_655 S
Co886 N921 2.145 1_655 S
Co886 N942 2.257 1_655 S
O887 Co885 2.143 . S
O887 Co886 2.160 . S
C888 O889 1.278 . S
C888 O896 1.224 1_455 S
O889 C888 1.278 . S
C890 O891 1.245 . S
C890 O902 1.232 . S
O891 C890 1.245 . S
O892 Co886 2.058 . S
O892 C918 1.269 . S
O893 Co885 2.074 . S
O893 C918 1.257 . S
H894 C919 0.930 . S
H895 C925 0.930 . S
O896 Co885 2.093 . S
O896 C888 1.224 1_655 S
H897 C929 0.929 . S
H898 C931 0.930 . S
H899 C932 0.930 . S
H900 C930 0.929 . S
H901 C933 0.928 . S
O902 Co886 2.057 . S
O902 C890 1.232 . S
H903 C922 0.929 . S
H904 C923 0.929 . S
H905 C935 0.931 . S
H906 C927 0.929 . S
H907 C936 0.930 . S
H908 C928 0.931 . S
O909 Co885 2.097 1_455 S
O909 C937 1.214 . S
H910 C938 0.929 . S
H911 C939 0.929 . S
H912 C940 0.930 . S
H913 C941 0.929 . S
H914 C943 0.930 . S
H915 C920 0.930 . S
H916 C924 0.930 . S
O917 Co886 2.037 1_455 S
O917 C937 1.234 . S
C918 O892 1.269 . S
C918 O893 1.257 . S
C919 H894 0.930 . S
C919 C922 1.388 . S
C919 C924 1.418 . S
C920 H915 0.930 . S
C920 C923 1.404 . S
C920 C924 1.353 . S
N921 Co886 2.145 1_455 S
N921 C922 1.397 . S
N921 C923 1.334 . S
C922 H903 0.929 . S
C922 C919 1.388 . S
C922 N921 1.397 . S
C923 H904 0.929 . S
C923 C920 1.404 . S
C923 N921 1.334 . S
C924 H916 0.930 . S
C924 C919 1.418 . S
C924 C920 1.353 . S
C925 H895 0.930 . S
C925 N926 1.330 . S
C925 C927 1.446 . S
N926 Co885 2.151 . S
N926 C925 1.330 . S
N926 C930 1.418 . S
C927 H906 0.929 . S
C927 C925 1.446 . S
C927 C928 1.332 . S
C928 H908 0.931 . S
C928 C927 1.332 . S
C928 C929 1.267 . S
C929 H897 0.929 . S
C929 C928 1.267 . S
C929 C930 1.251 . S
C930 H900 0.929 . S
C930 N926 1.418 . S
C930 C929 1.251 . S
C931 H898 0.930 . S
C931 C933 1.406 . S
C931 C936 1.261 . S
C932 H899 0.930 . S
C932 N934 1.325 . S
C932 C935 1.357 . S
C933 H901 0.928 . S
C933 C931 1.406 . S
C933 N934 1.261 . S
N934 Co885 2.214 . S
N934 C932 1.325 . S
N934 C933 1.261 . S
C935 H905 0.931 . S
C935 C932 1.357 . S
C935 C936 1.312 . S
C936 H907 0.930 . S
C936 C931 1.261 . S
C936 C935 1.312 . S
C937 O909 1.214 . S
C937 O917 1.234 . S
C938 H910 0.929 . S
C938 C941 1.391 . S
C938 C943 1.391 . S
C939 H911 0.929 . S
C939 C940 1.390 . S
C939 N942 1.391 . S
C940 H912 0.930 . S
C940 C939 1.390 . S
C940 C941 1.392 . S
C941 H913 0.929 . S
C941 C938 1.391 . S
C941 C940 1.392 . S
N942 Co886 2.257 1_455 S
N942 C939 1.391 . S
N942 C943 1.388 . S
C943 H914 0.930 . S
C943 C938 1.391 . S
C943 N942 1.388 . S
Co944 O946 2.143 . S
Co944 O952 2.074 . S
Co944 O955 2.093 . S
Co944 O968 2.097 . S
Co944 N985 2.151 . S
Co944 N993 2.214 . S
Co945 O946 2.160 . S
Co945 O951 2.058 . S
Co945 O961 2.057 . S
Co945 O976 2.037 . S
Co945 N980 2.145 . S
Co945 N1001 2.257 . S
O946 Co944 2.143 . S
O946 Co945 2.160 . S
C947 O948 1.278 . S
C947 O955 1.224 . S
O948 C947 1.278 . S
C949 O950 1.245 . S
C949 O961 1.232 . S
O950 C949 1.245 . S
O951 Co945 2.058 . S
O951 C977 1.269 . S
O952 Co944 2.074 . S
O952 C977 1.257 . S
H953 C978 0.930 . S
H954 C984 0.930 . S
O955 Co944 2.093 . S
O955 C947 1.224 . S
H956 C988 0.929 . S
H957 C990 0.930 . S
H958 C991 0.930 . S
H959 C989 0.929 . S
H960 C992 0.928 . S
O961 Co945 2.057 . S
O961 C949 1.232 . S
H962 C981 0.929 . S
H963 C982 0.929 . S
H964 C994 0.931 . S
H965 C986 0.929 . S
H966 C995 0.930 . S
H967 C987 0.931 . S
O968 Co944 2.097 . S
O968 C996 1.214 . S
H969 C997 0.929 . S
H970 C998 0.929 . S
H971 C999 0.930 . S
H972 C1000 0.929 . S
H973 C1002 0.930 . S
H974 C979 0.930 . S
H975 C983 0.930 . S
O976 Co945 2.037 . S
O976 C996 1.234 . S
C977 O951 1.269 . S
C977 O952 1.257 . S
C978 H953 0.930 . S
C978 C981 1.388 . S
C978 C983 1.418 . S
C979 H974 0.930 . S
C979 C982 1.404 . S
C979 C983 1.353 . S
N980 Co945 2.145 . S
N980 C981 1.397 . S
N980 C982 1.334 . S
C981 H962 0.929 . S
C981 C978 1.388 . S
C981 N980 1.397 . S
C982 H963 0.929 . S
C982 C979 1.404 . S
C982 N980 1.334 . S
C983 H975 0.930 . S
C983 C978 1.418 . S
C983 C979 1.353 . S
C984 H954 0.930 . S
C984 N985 1.330 . S
C984 C986 1.446 . S
N985 Co944 2.151 . S
N985 C984 1.330 . S
N985 C989 1.418 . S
C986 H965 0.929 . S
C986 C984 1.446 . S
C986 C987 1.332 . S
C987 H967 0.931 . S
C987 C986 1.332 . S
C987 C988 1.267 . S
C988 H956 0.929 . S
C988 C987 1.267 . S
C988 C989 1.251 . S
C989 H959 0.929 . S
C989 N985 1.418 . S
C989 C988 1.251 . S
C990 H957 0.930 . S
C990 C992 1.406 . S
C990 C995 1.261 . S
C991 H958 0.930 . S
C991 N993 1.325 . S
C991 C994 1.357 . S
C992 H960 0.928 . S
C992 C990 1.406 . S
C992 N993 1.261 . S
N993 Co944 2.214 . S
N993 C991 1.325 . S
N993 C992 1.261 . S
C994 H964 0.931 . S
C994 C991 1.357 . S
C994 C995 1.312 . S
C995 H966 0.930 . S
C995 C990 1.261 . S
C995 C994 1.312 . S
C996 O968 1.214 . S
C996 O976 1.234 . S
C997 H969 0.929 . S
C997 C1000 1.391 . S
C997 C1002 1.391 . S
C998 H970 0.929 . S
C998 C999 1.390 . S
C998 N1001 1.391 . S
C999 H971 0.930 . S
C999 C998 1.390 . S
C999 C1000 1.392 . S
C1000 H972 0.929 . S
C1000 C997 1.391 . S
C1000 C999 1.392 . S
N1001 Co945 2.257 . S
N1001 C998 1.391 . S
N1001 C1002 1.388 . S
C1002 H973 0.930 . S
C1002 C997 1.391 . S
C1002 N1001 1.388 . S
Co1003 O1005 2.143 . S
Co1003 O1011 2.074 . S
Co1003 O1014 2.093 . S
Co1003 O1027 2.097 . S
Co1003 N1044 2.151 . S
Co1003 N1052 2.214 . S
Co1004 O1005 2.160 1_565 S
Co1004 O1010 2.058 . S
Co1004 O1020 2.057 . S
Co1004 O1035 2.037 1_565 S
Co1004 N1039 2.145 . S
Co1004 N1060 2.257 . S
O1005 Co1003 2.143 . S
O1005 Co1004 2.160 1_545 S
C1006 O1007 1.278 . S
C1006 O1014 1.224 . S
O1007 C1006 1.278 . S
C1008 O1009 1.245 . S
C1008 O1020 1.232 . S
O1009 C1008 1.245 . S
O1010 Co1004 2.058 . S
O1010 C1036 1.269 . S
O1011 Co1003 2.074 . S
O1011 C1036 1.257 1_545 S
H1012 C1037 0.930 . S
H1013 C1043 0.930 . S
O1014 Co1003 2.093 . S
O1014 C1006 1.224 . S
H1015 C1047 0.929 . S
H1016 C1049 0.930 . S
H1017 C1050 0.930 . S
H1018 C1048 0.929 . S
H1019 C1051 0.928 . S
O1020 Co1004 2.057 . S
O1020 C1008 1.232 . S
H1021 C1040 0.929 . S
H1022 C1041 0.929 . S
H1023 C1053 0.931 . S
H1024 C1045 0.929 . S
H1025 C1054 0.930 . S
H1026 C1046 0.931 . S
O1027 Co1003 2.097 . S
O1027 C1055 1.214 . S
H1028 C1056 0.929 . S
H1029 C1057 0.929 . S
H1030 C1058 0.930 . S
H1031 C1059 0.929 . S
H1032 C1061 0.930 . S
H1033 C1038 0.930 . S
H1034 C1042 0.930 . S
O1035 Co1004 2.037 1_545 S
O1035 C1055 1.234 . S
C1036 O1010 1.269 . S
C1036 O1011 1.257 1_565 S
C1037 H1012 0.930 . S
C1037 C1040 1.388 . S
C1037 C1042 1.418 . S
C1038 H1033 0.930 . S
C1038 C1041 1.404 . S
C1038 C1042 1.353 . S
N1039 Co1004 2.145 . S
N1039 C1040 1.397 . S
N1039 C1041 1.334 . S
C1040 H1021 0.929 . S
C1040 C1037 1.388 . S
C1040 N1039 1.397 . S
C1041 H1022 0.929 . S
C1041 C1038 1.404 . S
C1041 N1039 1.334 . S
C1042 H1034 0.930 . S
C1042 C1037 1.418 . S
C1042 C1038 1.353 . S
C1043 H1013 0.930 . S
C1043 N1044 1.330 . S
C1043 C1045 1.446 . S
N1044 Co1003 2.151 . S
N1044 C1043 1.330 . S
N1044 C1048 1.418 . S
C1045 H1024 0.929 . S
C1045 C1043 1.446 . S
C1045 C1046 1.332 . S
C1046 H1026 0.931 . S
C1046 C1045 1.332 . S
C1046 C1047 1.267 . S
C1047 H1015 0.929 . S
C1047 C1046 1.267 . S
C1047 C1048 1.251 . S
C1048 H1018 0.929 . S
C1048 N1044 1.418 . S
C1048 C1047 1.251 . S
C1049 H1016 0.930 . S
C1049 C1051 1.406 . S
C1049 C1054 1.261 . S
C1050 H1017 0.930 . S
C1050 N1052 1.325 . S
C1050 C1053 1.357 . S
C1051 H1019 0.928 . S
C1051 C1049 1.406 . S
C1051 N1052 1.261 . S
N1052 Co1003 2.214 . S
N1052 C1050 1.325 . S
N1052 C1051 1.261 . S
C1053 H1023 0.931 . S
C1053 C1050 1.357 . S
C1053 C1054 1.312 . S
C1054 H1025 0.930 . S
C1054 C1049 1.261 . S
C1054 C1053 1.312 . S
C1055 O1027 1.214 . S
C1055 O1035 1.234 . S
C1056 H1028 0.929 . S
C1056 C1059 1.391 . S
C1056 C1061 1.391 . S
C1057 H1029 0.929 . S
C1057 C1058 1.390 . S
C1057 N1060 1.391 . S
C1058 H1030 0.930 . S
C1058 C1057 1.390 . S
C1058 C1059 1.392 . S
C1059 H1031 0.929 . S
C1059 C1056 1.391 . S
C1059 C1058 1.392 . S
N1060 Co1004 2.257 . S
N1060 C1057 1.391 . S
N1060 C1061 1.388 . S
C1061 H1032 0.930 . S
C1061 C1056 1.391 . S
C1061 N1060 1.388 . S
H1062 C1068 0.930 . S
H1063 C1072 0.930 . S
H1064 C1077 0.929 . S
H1065 C1075 0.929 . S
H1066 C1070 0.907 1_544 S
H1067 C1076 0.928 . S
C1068 H1062 0.930 . S
C1068 C1069 1.367 . S
C1068 C1076 1.378 . S
C1069 C1068 1.367 . S
C1069 C1077 1.433 1_565 S
C1070 H1066 0.907 1_566 S
C1070 C1072 1.378 . S
C1070 C1074 1.350 . S
C1071 C1074 1.463 1_554 S
C1071 C1076 1.350 . S
C1071 N1079 1.427 1_565 S
C1072 H1063 0.930 . S
C1072 C1070 1.378 . S
C1072 C1073 1.367 . S
C1073 C1072 1.367 . S
C1073 C1075 1.433 . S
C1074 C1070 1.350 . S
C1074 C1071 1.463 1_556 S
C1074 N1078 1.427 . S
C1075 H1065 0.929 . S
C1075 C1073 1.433 . S
C1075 N1078 1.384 . S
C1076 H1067 0.928 . S
C1076 C1068 1.378 . S
C1076 C1071 1.350 . S
C1077 H1064 0.929 . S
C1077 C1069 1.433 1_545 S
C1077 N1079 1.384 . S
N1078 C1074 1.427 . S
N1078 C1075 1.384 . S
N1079 C1071 1.427 1_545 S
N1079 C1077 1.384 . S
H1080 C1086 0.930 . S
H1081 C1090 0.930 . S
H1082 C1095 0.929 1_455 S
H1083 C1093 0.929 . S
H1084 C1088 0.929 . S
H1085 C1094 0.929 . S
C1086 H1080 0.930 . S
C1086 C1087 1.367 1_556 S
C1086 C1094 1.378 . S
C1087 C1086 1.367 1_554 S
C1087 C1095 1.433 . S
C1088 H1084 0.929 . S
C1088 C1090 1.378 . S
C1088 C1092 1.350 . S
C1089 C1092 1.463 1_655 S
C1089 C1094 1.350 . S
C1089 N1097 1.427 1_656 S
C1090 H1081 0.930 . S
C1090 C1088 1.378 . S
C1090 C1091 1.367 . S
C1091 C1090 1.367 . S
C1091 C1093 1.433 1_455 S
C1092 C1088 1.350 . S
C1092 C1089 1.463 1_455 S
C1092 N1096 1.427 1_455 S
C1093 H1083 0.929 . S
C1093 C1091 1.433 1_655 S
C1093 N1096 1.384 . S
C1094 H1085 0.929 . S
C1094 C1086 1.378 . S
C1094 C1089 1.350 . S
C1095 H1082 0.929 1_655 S
C1095 C1087 1.433 . S
C1095 N1097 1.384 1_655 S
N1096 C1092 1.427 1_655 S
N1096 C1093 1.384 . S
N1097 C1089 1.427 1_454 S
N1097 C1095 1.384 1_455 S
H1098 C1104 0.930 . S
H1099 C1108 0.930 . S
H1100 C1113 0.929 . S
H1101 C1111 0.929 . S
H1102 C1106 0.929 1_556 S
H1103 C1112 0.929 . S
C1104 H1098 0.930 . S
C1104 C1105 1.367 1_554 S
C1104 C1112 1.378 . S
C1105 C1104 1.367 1_556 S
C1105 C1113 1.433 . S
C1106 H1102 0.929 1_554 S
C1106 C1108 1.378 . S
C1106 C1110 1.350 . S
C1107 C1110 1.463 . S
C1107 C1112 1.350 . S
C1107 N1115 1.427 1_554 S
C1108 H1099 0.930 . S
C1108 C1106 1.378 . S
C1108 C1109 1.367 . S
C1109 C1108 1.367 . S
C1109 C1111 1.433 . S
C1110 C1106 1.350 . S
C1110 C1107 1.463 . S
C1110 N1114 1.427 . S
C1111 H1101 0.929 . S
C1111 C1109 1.433 . S
C1111 N1114 1.384 . S
C1112 H1103 0.929 . S
C1112 C1104 1.378 . S
C1112 C1107 1.350 . S
C1113 H1100 0.929 . S
C1113 C1105 1.433 . S
C1113 N1115 1.384 . S
N1114 C1110 1.427 . S
N1114 C1111 1.384 . S
N1115 C1107 1.427 1_556 S
N1115 C1113 1.384 . S
H1116 C1122 0.930 . S
H1117 C1126 0.930 . S
H1118 C1131 0.929 . S
H1119 C1129 0.929 . S
H1120 C1124 0.929 . S
H1121 C1130 0.929 . S
C1122 H1116 0.930 . S
C1122 C1123 1.367 . S
C1122 C1130 1.378 . S
C1123 C1122 1.367 . S
C1123 C1131 1.433 . S
C1124 H1120 0.929 . S
C1124 C1126 1.378 . S
C1124 C1128 1.350 . S
C1125 C1128 1.463 . S
C1125 C1130 1.350 . S
C1125 N1133 1.427 . S
C1126 H1117 0.930 . S
C1126 C1124 1.378 . S
C1126 C1127 1.367 . S
C1127 C1126 1.367 . S
C1127 C1129 1.433 . S
C1128 C1124 1.350 . S
C1128 C1125 1.463 . S
C1128 N1132 1.427 . S
C1129 H1119 0.929 . S
C1129 C1127 1.433 . S
C1129 N1132 1.384 . S
C1130 H1121 0.929 . S
C1130 C1122 1.378 . S
C1130 C1125 1.350 . S
C1131 H1118 0.929 . S
C1131 C1123 1.433 . S
C1131 N1133 1.384 . S
N1132 C1128 1.427 . S
N1132 C1129 1.384 . S
N1133 C1125 1.427 . S
N1133 C1131 1.384 . S
H1134 C1140 0.930 . S
H1135 C1144 0.930 . S
H1136 C1149 0.929 . S
H1137 C1147 0.929 . S
H1138 C1142 0.929 . S
H1139 C1148 0.929 . S
C1140 H1134 0.930 . S
C1140 C1141 1.367 . S
C1140 C1148 1.378 . S
C1141 C1140 1.367 . S
C1141 C1149 1.433 . S
C1142 H1138 0.929 . S
C1142 C1144 1.378 . S
C1142 C1146 1.350 . S
C1143 C1146 1.463 . S
C1143 C1148 1.350 . S
C1143 N1151 1.427 . S
C1144 H1135 0.930 . S
C1144 C1142 1.378 . S
C1144 C1145 1.367 . S
C1145 C1144 1.367 . S
C1145 C1147 1.433 . S
C1146 C1142 1.350 . S
C1146 C1143 1.463 . S
C1146 N1150 1.427 . S
C1147 H1137 0.929 . S
C1147 C1145 1.433 . S
C1147 N1150 1.384 . S
C1148 H1139 0.929 . S
C1148 C1140 1.378 . S
C1148 C1143 1.350 . S
C1149 H1136 0.929 . S
C1149 C1141 1.433 . S
C1149 N1151 1.384 . S
N1150 C1146 1.427 . S
N1150 C1147 1.384 . S
N1151 C1143 1.427 . S
N1151 C1149 1.384 . S
H1152 C1158 0.930 . S
H1153 C1162 0.930 . S
H1154 C1167 0.929 . S
H1155 C1165 0.929 . S
H1156 C1160 0.929 . S
H1157 C1166 0.929 . S
C1158 H1152 0.930 . S
C1158 C1159 1.367 . S
C1158 C1166 1.378 . S
C1159 C1158 1.367 . S
C1159 C1167 1.433 . S
C1160 H1156 0.929 . S
C1160 C1162 1.378 . S
C1160 C1164 1.350 . S
C1161 C1164 1.463 . S
C1161 C1166 1.350 . S
C1161 N1169 1.427 . S
C1162 H1153 0.930 . S
C1162 C1160 1.378 . S
C1162 C1163 1.367 . S
C1163 C1162 1.367 . S
C1163 C1165 1.433 . S
C1164 C1160 1.350 . S
C1164 C1161 1.463 . S
C1164 N1168 1.427 . S
C1165 H1155 0.929 . S
C1165 C1163 1.433 . S
C1165 N1168 1.384 . S
C1166 H1157 0.929 . S
C1166 C1158 1.378 . S
C1166 C1161 1.350 . S
C1167 H1154 0.929 . S
C1167 C1159 1.433 . S
C1167 N1169 1.384 . S
N1168 C1164 1.427 . S
N1168 C1165 1.384 . S
N1169 C1161 1.427 . S
N1169 C1167 1.384 . S
H1170 C1176 0.930 . S
H1171 C1180 0.930 . S
H1172 C1185 0.929 . S
H1173 C1183 0.929 . S
H1174 C1178 0.929 . S
H1175 C1184 0.929 . S
C1176 H1170 0.930 . S
C1176 C1177 1.367 . S
C1176 C1184 1.378 . S
C1177 C1176 1.367 . S
C1177 C1185 1.433 . S
C1178 H1174 0.929 . S
C1178 C1180 1.378 . S
C1178 C1182 1.350 . S
C1179 C1182 1.463 . S
C1179 C1184 1.350 . S
C1179 N1187 1.427 . S
C1180 H1171 0.930 . S
C1180 C1178 1.378 . S
C1180 C1181 1.367 . S
C1181 C1180 1.367 . S
C1181 C1183 1.433 . S
C1182 C1178 1.350 . S
C1182 C1179 1.463 . S
C1182 N1186 1.427 . S
C1183 H1173 0.929 . S
C1183 C1181 1.433 . S
C1183 N1186 1.384 . S
C1184 H1175 0.929 . S
C1184 C1176 1.378 . S
C1184 C1179 1.350 . S
C1185 H1172 0.929 . S
C1185 C1177 1.433 . S
C1185 N1187 1.384 . S
N1186 C1182 1.427 . S
N1186 C1183 1.384 . S
N1187 C1179 1.427 . S
N1187 C1185 1.384 . S
H1188 C1194 0.930 . S
H1189 C1198 0.930 . S
H1190 C1203 0.929 . S
H1191 C1201 0.929 . S
H1192 C1196 0.929 . S
H1193 C1202 0.929 . S
C1194 H1188 0.930 . S
C1194 C1195 1.367 . S
C1194 C1202 1.378 . S
C1195 C1194 1.367 . S
C1195 C1203 1.433 . S
C1196 H1192 0.929 . S
C1196 C1198 1.378 . S
C1196 C1200 1.350 . S
C1197 C1200 1.463 . S
C1197 C1202 1.350 . S
C1197 N1205 1.427 . S
C1198 H1189 0.930 . S
C1198 C1196 1.378 . S
C1198 C1199 1.367 . S
C1199 C1198 1.367 . S
C1199 C1201 1.433 . S
C1200 C1196 1.350 . S
C1200 C1197 1.463 . S
C1200 N1204 1.427 . S
C1201 H1191 0.929 . S
C1201 C1199 1.433 . S
C1201 N1204 1.384 . S
C1202 H1193 0.929 . S
C1202 C1194 1.378 . S
C1202 C1197 1.350 . S
C1203 H1190 0.929 . S
C1203 C1195 1.433 . S
C1203 N1205 1.384 . S
N1204 C1200 1.427 . S
N1204 C1201 1.384 . S
N1205 C1197 1.427 . S
N1205 C1203 1.384 . S
H1206 C1212 0.930 . S
H1207 C1216 0.930 . S
H1208 C1221 0.929 . S
H1209 C1219 0.929 . S
H1210 C1214 0.929 . S
H1211 C1220 0.929 . S
C1212 H1206 0.930 . S
C1212 C1213 1.367 . S
C1212 C1220 1.378 . S
C1213 C1212 1.367 . S
C1213 C1221 1.433 . S
C1214 H1210 0.929 . S
C1214 C1216 1.378 . S
C1214 C1218 1.350 . S
C1215 C1218 1.463 . S
C1215 C1220 1.350 . S
C1215 N1223 1.427 . S
C1216 H1207 0.930 . S
C1216 C1214 1.378 . S
C1216 C1217 1.367 . S
C1217 C1216 1.367 . S
C1217 C1219 1.433 . S
C1218 C1214 1.350 . S
C1218 C1215 1.463 . S
C1218 N1222 1.427 . S
C1219 H1209 0.929 . S
C1219 C1217 1.433 . S
C1219 N1222 1.384 . S
C1220 H1211 0.929 . S
C1220 C1212 1.378 . S
C1220 C1215 1.350 . S
C1221 H1208 0.929 . S
C1221 C1213 1.433 . S
C1221 N1223 1.384 . S
N1222 C1218 1.427 . S
N1222 C1219 1.384 . S
N1223 C1215 1.427 . S
N1223 C1221 1.384 . S
H1224 C1230 0.930 . S
H1225 C1234 0.930 . S
H1226 C1239 0.929 . S
H1227 C1237 0.929 . S
H1228 C1232 0.929 . S
H1229 C1238 0.929 . S
C1230 H1224 0.930 . S
C1230 C1231 1.367 . S
C1230 C1238 1.378 . S
C1231 C1230 1.367 . S
C1231 C1239 1.433 . S
C1232 H1228 0.929 . S
C1232 C1234 1.378 . S
C1232 C1236 1.350 . S
C1233 C1236 1.463 . S
C1233 C1238 1.350 . S
C1233 N1241 1.427 . S
C1234 H1225 0.930 . S
C1234 C1232 1.378 . S
C1234 C1235 1.367 . S
C1235 C1234 1.367 . S
C1235 C1237 1.433 . S
C1236 C1232 1.350 . S
C1236 C1233 1.463 . S
C1236 N1240 1.427 . S
C1237 H1227 0.929 . S
C1237 C1235 1.433 . S
C1237 N1240 1.384 . S
C1238 H1229 0.929 . S
C1238 C1230 1.378 . S
C1238 C1233 1.350 . S
C1239 H1226 0.929 . S
C1239 C1231 1.433 . S
C1239 N1241 1.384 . S
N1240 C1236 1.427 . S
N1240 C1237 1.384 . S
N1241 C1233 1.427 . S
N1241 C1239 1.384 . S
H1242 C1248 0.930 . S
H1243 C1252 0.930 . S
H1244 C1257 0.929 . S
H1245 C1255 0.929 . S
H1246 C1250 0.929 . S
H1247 C1256 0.929 . S
C1248 H1242 0.930 . S
C1248 C1249 1.367 . S
C1248 C1256 1.378 . S
C1249 C1248 1.367 . S
C1249 C1257 1.433 . S
C1250 H1246 0.929 . S
C1250 C1252 1.378 . S
C1250 C1254 1.350 . S
C1251 C1254 1.463 . S
C1251 C1256 1.350 . S
C1251 N1259 1.427 . S
C1252 H1243 0.930 . S
C1252 C1250 1.378 . S
C1252 C1253 1.367 . S
C1253 C1252 1.367 . S
C1253 C1255 1.433 . S
C1254 C1250 1.350 . S
C1254 C1251 1.463 . S
C1254 N1258 1.427 . S
C1255 H1245 0.929 . S
C1255 C1253 1.433 . S
C1255 N1258 1.384 . S
C1256 H1247 0.929 . S
C1256 C1248 1.378 . S
C1256 C1251 1.350 . S
C1257 H1244 0.929 . S
C1257 C1249 1.433 . S
C1257 N1259 1.384 . S
N1258 C1254 1.427 . S
N1258 C1255 1.384 . S
N1259 C1251 1.427 . S
N1259 C1257 1.384 . S
H1260 C1266 0.930 . S
H1261 C1270 0.930 . S
H1262 C1275 0.929 . S
H1263 C1273 0.929 . S
H1264 C1268 0.929 . S
H1265 C1274 0.929 . S
C1266 H1260 0.930 . S
C1266 C1267 1.367 . S
C1266 C1274 1.378 . S
C1267 C1266 1.367 . S
C1267 C1275 1.433 . S
C1268 H1264 0.929 . S
C1268 C1270 1.378 . S
C1268 C1272 1.350 . S
C1269 C1272 1.463 . S
C1269 C1274 1.350 . S
C1269 N1277 1.427 . S
C1270 H1261 0.930 . S
C1270 C1268 1.378 . S
C1270 C1271 1.367 . S
C1271 C1270 1.367 . S
C1271 C1273 1.433 . S
C1272 C1268 1.350 . S
C1272 C1269 1.463 . S
C1272 N1276 1.427 . S
C1273 H1263 0.929 . S
C1273 C1271 1.433 . S
C1273 N1276 1.384 . S
C1274 H1265 0.929 . S
C1274 C1266 1.378 . S
C1274 C1269 1.350 . S
C1275 H1262 0.929 . S
C1275 C1267 1.433 . S
C1275 N1277 1.384 . S
N1276 C1272 1.427 . S
N1276 C1273 1.384 . S
N1277 C1269 1.427 . S
N1277 C1275 1.384 . S
H1278 C1284 0.930 . S
H1279 C1288 0.930 . S
H1280 C1293 0.929 . S
H1281 C1291 0.929 . S
H1282 C1286 0.929 . S
H1283 C1292 0.929 . S
C1284 H1278 0.930 . S
C1284 C1285 1.367 . S
C1284 C1292 1.378 . S
C1285 C1284 1.367 . S
C1285 C1293 1.433 . S
C1286 H1282 0.929 . S
C1286 C1288 1.378 . S
C1286 C1290 1.350 . S
C1287 C1290 1.463 . S
C1287 C1292 1.350 . S
C1287 N1295 1.427 . S
C1288 H1279 0.930 . S
C1288 C1286 1.378 . S
C1288 C1289 1.367 . S
C1289 C1288 1.367 . S
C1289 C1291 1.433 . S
C1290 C1286 1.350 . S
C1290 C1287 1.463 . S
C1290 N1294 1.427 . S
C1291 H1281 0.929 . S
C1291 C1289 1.433 . S
C1291 N1294 1.384 . S
C1292 H1283 0.929 . S
C1292 C1284 1.378 . S
C1292 C1287 1.350 . S
C1293 H1280 0.929 . S
C1293 C1285 1.433 . S
C1293 N1295 1.384 . S
N1294 C1290 1.427 . S
N1294 C1291 1.384 . S
N1295 C1287 1.427 . S
N1295 C1293 1.384 . S
H1296 C1302 0.930 . S
H1297 C1306 0.930 . S
H1298 C1311 0.929 . S
H1299 C1309 0.929 . S
H1300 C1304 0.929 . S
H1301 C1310 0.929 . S
C1302 H1296 0.930 . S
C1302 C1303 1.367 . S
C1302 C1310 1.378 . S
C1303 C1302 1.367 . S
C1303 C1311 1.433 . S
C1304 H1300 0.929 . S
C1304 C1306 1.378 . S
C1304 C1308 1.350 . S
C1305 C1308 1.463 . S
C1305 C1310 1.350 . S
C1305 N1313 1.427 . S
C1306 H1297 0.930 . S
C1306 C1304 1.378 . S
C1306 C1307 1.367 . S
C1307 C1306 1.367 . S
C1307 C1309 1.433 . S
C1308 C1304 1.350 . S
C1308 C1305 1.463 . S
C1308 N1312 1.427 . S
C1309 H1299 0.929 . S
C1309 C1307 1.433 . S
C1309 N1312 1.384 . S
C1310 H1301 0.929 . S
C1310 C1302 1.378 . S
C1310 C1305 1.350 . S
C1311 H1298 0.929 . S
C1311 C1303 1.433 . S
C1311 N1313 1.384 . S
N1312 C1308 1.427 . S
N1312 C1309 1.384 . S
N1313 C1305 1.427 . S
N1313 C1311 1.384 . S
H1314 C1320 0.930 . S
H1315 C1324 0.930 . S
H1316 C1329 0.929 . S
H1317 C1327 0.929 . S
H1318 C1322 0.929 . S
H1319 C1328 0.929 . S
C1320 H1314 0.930 . S
C1320 C1321 1.367 . S
C1320 C1328 1.378 . S
C1321 C1320 1.367 . S
C1321 C1329 1.433 . S
C1322 H1318 0.929 . S
C1322 C1324 1.378 . S
C1322 C1326 1.350 . S
C1323 C1326 1.463 . S
C1323 C1328 1.350 . S
C1323 N1331 1.427 . S
C1324 H1315 0.930 . S
C1324 C1322 1.378 . S
C1324 C1325 1.367 . S
C1325 C1324 1.367 . S
C1325 C1327 1.433 . S
C1326 C1322 1.350 . S
C1326 C1323 1.463 . S
C1326 N1330 1.427 . S
C1327 H1317 0.929 . S
C1327 C1325 1.433 . S
C1327 N1330 1.384 . S
C1328 H1319 0.929 . S
C1328 C1320 1.378 . S
C1328 C1323 1.350 . S
C1329 H1316 0.929 . S
C1329 C1321 1.433 . S
C1329 N1331 1.384 . S
N1330 C1326 1.427 . S
N1330 C1327 1.384 . S
N1331 C1323 1.427 . S
N1331 C1329 1.384 . S
H1332 C1338 0.930 . S
H1333 C1342 0.930 . S
H1334 C1347 0.929 . S
H1335 C1345 0.929 . S
H1336 C1340 0.929 . S
H1337 C1346 0.929 . S
C1338 H1332 0.930 . S
C1338 C1339 1.367 . S
C1338 C1346 1.378 . S
C1339 C1338 1.367 . S
C1339 C1347 1.433 1_455 S
C1340 H1336 0.929 . S
C1340 C1342 1.378 . S
C1340 C1344 1.350 . S
C1341 C1344 1.463 . S
C1341 C1346 1.350 1_655 S
C1341 N1349 1.427 . S
C1342 H1333 0.930 . S
C1342 C1340 1.378 . S
C1342 C1343 1.367 . S
C1343 C1342 1.367 . S
C1343 C1345 1.433 . S
C1344 C1340 1.350 . S
C1344 C1341 1.463 . S
C1344 N1348 1.427 . S
C1345 H1335 0.929 . S
C1345 C1343 1.433 . S
C1345 N1348 1.384 . S
C1346 H1337 0.929 . S
C1346 C1338 1.378 . S
C1346 C1341 1.350 1_455 S
C1347 H1334 0.929 . S
C1347 C1339 1.433 1_655 S
C1347 N1349 1.384 . S
N1348 C1344 1.427 . S
N1348 C1345 1.384 . S
N1349 C1341 1.427 . S
N1349 C1347 1.384 . S
H1350 C1356 0.930 . S
H1351 C1360 0.930 . S
H1352 C1365 0.929 . S
H1353 C1363 0.929 . S
H1354 C1358 0.929 . S
H1355 C1364 0.929 . S
C1356 H1350 0.930 . S
C1356 C1357 1.367 . S
C1356 C1364 1.378 . S
C1357 C1356 1.367 . S
C1357 C1365 1.433 . S
C1358 H1354 0.929 . S
C1358 C1360 1.378 . S
C1358 C1362 1.350 . S
C1359 C1362 1.463 . S
C1359 C1364 1.350 . S
C1359 N1367 1.427 . S
C1360 H1351 0.930 . S
C1360 C1358 1.378 . S
C1360 C1361 1.367 . S
C1361 C1360 1.367 . S
C1361 C1363 1.433 . S
C1362 C1358 1.350 . S
C1362 C1359 1.463 . S
C1362 N1366 1.427 . S
C1363 H1353 0.929 . S
C1363 C1361 1.433 . S
C1363 N1366 1.384 . S
C1364 H1355 0.929 . S
C1364 C1356 1.378 . S
C1364 C1359 1.350 . S
C1365 H1352 0.929 . S
C1365 C1357 1.433 . S
C1365 N1367 1.384 . S
N1366 C1362 1.427 . S
N1366 C1363 1.384 . S
N1367 C1359 1.427 . S
N1367 C1365 1.384 . S
H1368 C1374 0.930 . S
H1369 C1378 0.930 . S
H1370 C1383 0.929 . S
H1371 C1381 0.929 . S
H1372 C1376 0.929 . S
H1373 C1382 0.929 . S
C1374 H1368 0.930 . S
C1374 C1375 1.367 . S
C1374 C1382 1.378 . S
C1375 C1374 1.367 . S
C1375 C1383 1.433 1_545 S
C1376 H1372 0.929 . S
C1376 C1378 1.378 . S
C1376 C1380 1.340 1_565 S
C1377 C1380 1.463 . S
C1377 C1382 1.350 . S
C1377 N1385 1.427 1_545 S
C1378 H1369 0.930 . S
C1378 C1376 1.378 . S
C1378 C1379 1.367 . S
C1379 C1378 1.367 . S
C1379 C1381 1.433 1_565 S
C1380 C1376 1.340 1_545 S
C1380 C1377 1.463 . S
C1380 N1384 1.438 . S
C1381 H1371 0.929 . S
C1381 C1379 1.433 1_545 S
C1381 N1384 1.384 . S
C1382 H1373 0.929 . S
C1382 C1374 1.378 . S
C1382 C1377 1.350 . S
C1383 H1370 0.929 . S
C1383 C1375 1.433 1_565 S
C1383 N1385 1.384 . S
N1384 C1380 1.438 . S
N1384 C1381 1.384 . S
N1385 C1377 1.427 1_565 S
N1385 C1383 1.384 . S
H1386 C1392 0.930 . S
H1387 C1396 0.930 . S
H1388 C1401 0.914 1_556 S
H1389 C1399 0.929 1_554 S
H1390 C1394 0.929 . S
H1391 C1400 0.929 . S
C1392 H1386 0.930 . S
C1392 C1393 1.367 . S
C1392 C1400 1.378 . S
C1393 C1392 1.367 . S
C1393 C1401 1.462 . S
C1394 H1390 0.929 . S
C1394 C1396 1.378 . S
C1394 C1398 1.350 . S
C1395 C1398 1.463 1_554 S
C1395 C1400 1.350 . S
C1395 N1403 1.427 1_554 S
C1396 H1387 0.930 . S
C1396 C1394 1.378 . S
C1396 C1397 1.367 . S
C1397 C1396 1.367 . S
C1397 C1399 1.433 . S
C1398 C1394 1.350 . S
C1398 C1395 1.463 1_556 S
C1398 N1402 1.427 1_556 S
C1399 H1389 0.929 1_556 S
C1399 C1397 1.433 . S
C1399 N1402 1.384 1_556 S
C1400 H1391 0.929 . S
C1400 C1392 1.378 . S
C1400 C1395 1.350 . S
C1401 H1388 0.914 1_554 S
C1401 C1393 1.462 . S
C1401 N1403 1.371 1_554 S
N1402 C1398 1.427 1_554 S
N1402 C1399 1.384 1_554 S
N1403 C1395 1.427 1_556 S
N1403 C1401 1.371 1_556 S
H1404 C1410 0.930 . S
H1405 C1414 0.930 . S
H1406 C1419 0.929 1_655 S
H1407 C1417 0.929 . S
H1408 C1412 0.929 . S
H1409 C1418 0.931 . S
C1410 H1404 0.930 . S
C1410 C1411 1.366 1_554 S
C1410 C1418 1.380 . S
C1411 C1410 1.366 1_556 S
C1411 C1419 1.434 . S
C1412 H1408 0.929 . S
C1412 C1414 1.378 . S
C1412 C1416 1.350 . S
C1413 C1416 1.463 . S
C1413 C1418 1.346 1_556 S
C1413 N1421 1.427 . S
C1414 H1405 0.930 . S
C1414 C1412 1.378 . S
C1414 C1415 1.367 . S
C1415 C1414 1.367 . S
C1415 C1417 1.433 . S
C1416 C1412 1.350 . S
C1416 C1413 1.463 . S
C1416 N1420 1.427 . S
C1417 H1407 0.929 . S
C1417 C1415 1.433 . S
C1417 N1420 1.384 . S
C1418 H1409 0.931 . S
C1418 C1410 1.380 . S
C1418 C1413 1.346 1_554 S
C1419 H1406 0.929 1_455 S
C1419 C1411 1.434 . S
C1419 N1421 1.384 . S
N1420 C1416 1.427 . S
N1420 C1417 1.384 . S
N1421 C1413 1.427 . S
N1421 C1419 1.384 . S
H1422 C1428 0.930 . S
H1423 C1432 0.930 . S
H1424 C1437 0.929 . S
H1425 C1435 0.929 . S
H1426 C1430 0.929 . S
H1427 C1436 0.929 . S
C1428 H1422 0.930 . S
C1428 C1429 1.367 . S
C1428 C1436 1.378 . S
C1429 C1428 1.367 . S
C1429 C1437 1.433 . S
C1430 H1426 0.929 . S
C1430 C1432 1.378 . S
C1430 C1434 1.350 1_556 S
C1431 C1434 1.463 . S
C1431 C1436 1.350 . S
C1431 N1439 1.427 . S
C1432 H1423 0.930 . S
C1432 C1430 1.378 . S
C1432 C1433 1.367 . S
C1433 C1432 1.367 . S
C1433 C1435 1.433 1_556 S
C1434 C1430 1.350 1_554 S
C1434 C1431 1.463 . S
C1434 N1438 1.427 . S
C1435 H1425 0.929 . S
C1435 C1433 1.433 1_554 S
C1435 N1438 1.384 . S
C1436 H1427 0.929 . S
C1436 C1428 1.378 . S
C1436 C1431 1.350 . S
C1437 H1424 0.929 . S
C1437 C1429 1.433 . S
C1437 N1439 1.384 . S
N1438 C1434 1.427 . S
N1438 C1435 1.384 . S
N1439 C1431 1.427 . S
N1439 C1437 1.384 . S
H1440 C1446 0.930 1_554 S
H1441 C1450 0.930 . S
H1442 C1455 0.929 . S
H1443 C1453 0.929 . S
H1444 C1448 0.929 . S
H1445 C1454 0.912 1_554 S
C1446 H1440 0.930 1_556 S
C1446 C1447 1.367 . S
C1446 C1454 1.382 1_565 S
C1447 C1446 1.367 . S
C1447 C1455 1.433 1_565 S
C1448 H1444 0.929 . S
C1448 C1450 1.378 . S
C1448 C1452 1.350 . S
C1449 C1452 1.463 . S
C1449 C1454 1.362 . S
C1449 N1457 1.427 . S
C1450 H1441 0.930 . S
C1450 C1448 1.378 . S
C1450 C1451 1.367 . S
C1451 C1450 1.367 . S
C1451 C1453 1.433 1_556 S
C1452 C1448 1.350 . S
C1452 C1449 1.463 . S
C1452 N1456 1.427 1_556 S
C1453 H1443 0.929 . S
C1453 C1451 1.433 1_554 S
C1453 N1456 1.384 . S
C1454 H1445 0.912 1_556 S
C1454 C1446 1.382 1_545 S
C1454 C1449 1.362 . S
C1455 H1442 0.929 . S
C1455 C1447 1.433 1_545 S
C1455 N1457 1.384 . S
N1456 C1452 1.427 1_554 S
N1456 C1453 1.384 . S
N1457 C1449 1.427 . S
N1457 C1455 1.384 . S
H1458 C1464 0.930 . S
H1459 C1468 0.930 . S
H1460 C1473 0.929 . S
H1461 C1471 0.929 1_554 S
H1462 C1466 0.929 . S
H1463 C1472 0.929 . S
C1464 H1458 0.930 . S
C1464 C1465 1.367 . S
C1464 C1472 1.378 . S
C1465 C1464 1.367 . S
C1465 C1473 1.433 . S
C1466 H1462 0.929 . S
C1466 C1468 1.378 . S
C1466 C1470 1.350 . S
C1467 C1470 1.463 1_554 S
C1467 C1472 1.350 . S
C1467 N1475 1.413 1_554 S
C1468 H1459 0.930 . S
C1468 C1466 1.378 . S
C1468 C1469 1.367 . S
C1469 C1468 1.367 . S
C1469 C1471 1.433 1_655 S
C1470 C1466 1.350 . S
C1470 C1467 1.463 1_556 S
C1470 N1474 1.427 1_556 S
C1471 H1461 0.929 1_556 S
C1471 C1469 1.433 1_455 S
C1471 N1474 1.384 1_456 S
C1472 H1463 0.929 . S
C1472 C1464 1.378 . S
C1472 C1467 1.350 . S
C1473 H1460 0.929 . S
C1473 C1465 1.433 . S
C1473 N1475 1.370 1_554 S
N1474 C1470 1.427 1_554 S
N1474 C1471 1.384 1_654 S
N1475 C1467 1.413 1_556 S
N1475 C1473 1.370 1_556 S
H1476 C1482 0.930 . S
H1477 C1486 0.930 . S
H1478 C1491 0.929 . S
H1479 C1489 0.929 . S
H1480 C1484 0.929 . S
H1481 C1490 0.929 . S
C1482 H1476 0.930 . S
C1482 C1483 1.367 . S
C1482 C1490 1.378 . S
C1483 C1482 1.367 . S
C1483 C1491 1.433 1_556 S
C1484 H1480 0.929 . S
C1484 C1486 1.378 . S
C1484 C1488 1.350 . S
C1485 C1488 1.479 . S
C1485 C1490 1.304 1_554 S
C1485 N1493 1.462 . S
C1486 H1477 0.930 . S
C1486 C1484 1.378 . S
C1486 C1487 1.367 . S
C1487 C1486 1.367 . S
C1487 C1489 1.433 1_554 S
C1488 C1484 1.350 . S
C1488 C1485 1.479 . S
C1488 N1492 1.427 1_554 S
C1489 H1479 0.929 . S
C1489 C1487 1.433 1_556 S
C1489 N1492 1.384 . S
C1490 H1481 0.929 . S
C1490 C1482 1.378 . S
C1490 C1485 1.304 1_556 S
C1491 H1478 0.929 . S
C1491 C1483 1.433 1_554 S
C1491 N1493 1.384 . S
N1492 C1488 1.427 1_556 S
N1492 C1489 1.384 . S
N1493 C1485 1.462 . S
N1493 C1491 1.384 . S
H1494 C1500 0.930 . S
H1495 C1504 0.930 . S
H1496 C1509 0.929 . S
H1497 C1507 0.929 . S
H1498 C1502 0.929 . S
H1499 C1508 0.929 . S
C1500 H1494 0.930 . S
C1500 C1501 1.367 . S
C1500 C1508 1.378 . S
C1501 C1500 1.367 . S
C1501 C1509 1.433 . S
C1502 H1498 0.929 . S
C1502 C1504 1.378 . S
C1502 C1506 1.350 . S
C1503 C1506 1.463 . S
C1503 C1508 1.350 . S
C1503 N1511 1.427 . S
C1504 H1495 0.930 . S
C1504 C1502 1.378 . S
C1504 C1505 1.367 . S
C1505 C1504 1.367 . S
C1505 C1507 1.433 . S
C1506 C1502 1.350 . S
C1506 C1503 1.463 . S
C1506 N1510 1.427 . S
C1507 H1497 0.929 . S
C1507 C1505 1.433 . S
C1507 N1510 1.384 . S
C1508 H1499 0.929 . S
C1508 C1500 1.378 . S
C1508 C1503 1.350 . S
C1509 H1496 0.929 . S
C1509 C1501 1.433 . S
C1509 N1511 1.384 . S
N1510 C1506 1.427 . S
N1510 C1507 1.384 . S
N1511 C1503 1.427 . S
N1511 C1509 1.384 . S
H1512 C1518 0.930 . S
H1513 C1522 0.930 . S
H1514 C1527 0.929 . S
H1515 C1525 0.929 . S
H1516 C1520 0.929 . S
H1517 C1526 0.929 . S
C1518 H1512 0.930 . S
C1518 C1519 1.367 . S
C1518 C1526 1.378 . S
C1519 C1518 1.367 . S
C1519 C1527 1.433 . S
C1520 H1516 0.929 . S
C1520 C1522 1.378 . S
C1520 C1524 1.350 . S
C1521 C1524 1.463 . S
C1521 C1526 1.350 . S
C1521 N1529 1.427 . S
C1522 H1513 0.930 . S
C1522 C1520 1.378 . S
C1522 C1523 1.367 . S
C1523 C1522 1.367 . S
C1523 C1525 1.433 . S
C1524 C1520 1.350 . S
C1524 C1521 1.463 . S
C1524 N1528 1.427 . S
C1525 H1515 0.929 . S
C1525 C1523 1.433 . S
C1525 N1528 1.384 . S
C1526 H1517 0.929 . S
C1526 C1518 1.378 . S
C1526 C1521 1.350 . S
C1527 H1514 0.929 . S
C1527 C1519 1.433 . S
C1527 N1529 1.384 . S
N1528 C1524 1.427 . S
N1528 C1525 1.384 . S
N1529 C1521 1.427 . S
N1529 C1527 1.384 . S
H1530 C1536 0.930 . S
H1531 C1540 0.930 . S
H1532 C1545 0.929 . S
H1533 C1543 0.929 . S
H1534 C1538 0.929 . S
H1535 C1544 0.929 . S
C1536 H1530 0.930 . S
C1536 C1537 1.367 . S
C1536 C1544 1.378 . S
C1537 C1536 1.367 . S
C1537 C1545 1.433 . S
C1538 H1534 0.929 . S
C1538 C1540 1.378 . S
C1538 C1542 1.350 . S
C1539 C1542 1.463 . S
C1539 C1544 1.350 . S
C1539 N1547 1.427 . S
C1540 H1531 0.930 . S
C1540 C1538 1.378 . S
C1540 C1541 1.367 . S
C1541 C1540 1.367 . S
C1541 C1543 1.433 . S
C1542 C1538 1.350 . S
C1542 C1539 1.463 . S
C1542 N1546 1.427 . S
C1543 H1533 0.929 . S
C1543 C1541 1.433 . S
C1543 N1546 1.384 . S
C1544 H1535 0.929 . S
C1544 C1536 1.378 . S
C1544 C1539 1.350 . S
C1545 H1532 0.929 . S
C1545 C1537 1.433 . S
C1545 N1547 1.384 . S
N1546 C1542 1.427 . S
N1546 C1543 1.384 . S
N1547 C1539 1.427 . S
N1547 C1545 1.384 . S
H1548 C1554 0.930 . S
H1549 C1558 0.930 . S
H1550 C1563 0.929 . S
H1551 C1561 0.929 . S
H1552 C1556 0.929 . S
H1553 C1562 0.929 . S
C1554 H1548 0.930 . S
C1554 C1555 1.367 . S
C1554 C1562 1.378 . S
C1555 C1554 1.367 . S
C1555 C1563 1.433 . S
C1556 H1552 0.929 . S
C1556 C1558 1.378 . S
C1556 C1560 1.350 . S
C1557 C1560 1.463 . S
C1557 C1562 1.350 . S
C1557 N1565 1.427 . S
C1558 H1549 0.930 . S
C1558 C1556 1.378 . S
C1558 C1559 1.367 . S
C1559 C1558 1.367 . S
C1559 C1561 1.433 . S
C1560 C1556 1.350 . S
C1560 C1557 1.463 . S
C1560 N1564 1.427 . S
C1561 H1551 0.929 . S
C1561 C1559 1.433 . S
C1561 N1564 1.384 . S
C1562 H1553 0.929 . S
C1562 C1554 1.378 . S
C1562 C1557 1.350 . S
C1563 H1550 0.929 . S
C1563 C1555 1.433 . S
C1563 N1565 1.384 . S
N1564 C1560 1.427 . S
N1564 C1561 1.384 . S
N1565 C1557 1.427 . S
N1565 C1563 1.384 . S
H1566 C1572 0.930 . S
H1567 C1576 0.930 . S
H1568 C1581 0.929 . S
H1569 C1579 0.929 . S
H1570 C1574 0.929 . S
H1571 C1580 0.929 . S
C1572 H1566 0.930 . S
C1572 C1573 1.367 . S
C1572 C1580 1.378 . S
C1573 C1572 1.367 . S
C1573 C1581 1.433 . S
C1574 H1570 0.929 . S
C1574 C1576 1.378 . S
C1574 C1578 1.350 . S
C1575 C1578 1.463 . S
C1575 C1580 1.350 . S
C1575 N1583 1.427 . S
C1576 H1567 0.930 . S
C1576 C1574 1.378 . S
C1576 C1577 1.367 . S
C1577 C1576 1.367 . S
C1577 C1579 1.433 . S
C1578 C1574 1.350 . S
C1578 C1575 1.463 . S
C1578 N1582 1.427 . S
C1579 H1569 0.929 . S
C1579 C1577 1.433 . S
C1579 N1582 1.384 . S
C1580 H1571 0.929 . S
C1580 C1572 1.378 . S
C1580 C1575 1.350 . S
C1581 H1568 0.929 . S
C1581 C1573 1.433 . S
C1581 N1583 1.384 . S
N1582 C1578 1.427 . S
N1582 C1579 1.384 . S
N1583 C1575 1.427 . S
N1583 C1581 1.384 . S
H1584 C1590 0.930 . S
H1585 C1594 0.930 . S
H1586 C1599 0.929 . S
H1587 C1597 0.929 . S
H1588 C1592 0.929 . S
H1589 C1598 0.929 . S
C1590 H1584 0.930 . S
C1590 C1591 1.367 . S
C1590 C1598 1.378 . S
C1591 C1590 1.367 . S
C1591 C1599 1.433 . S
C1592 H1588 0.929 . S
C1592 C1594 1.378 . S
C1592 C1596 1.350 . S
C1593 C1596 1.463 . S
C1593 C1598 1.350 . S
C1593 N1601 1.427 . S
C1594 H1585 0.930 . S
C1594 C1592 1.378 . S
C1594 C1595 1.367 . S
C1595 C1594 1.367 . S
C1595 C1597 1.433 . S
C1596 C1592 1.350 . S
C1596 C1593 1.463 . S
C1596 N1600 1.427 . S
C1597 H1587 0.929 . S
C1597 C1595 1.433 . S
C1597 N1600 1.384 . S
C1598 H1589 0.929 . S
C1598 C1590 1.378 . S
C1598 C1593 1.350 . S
C1599 H1586 0.929 . S
C1599 C1591 1.433 . S
C1599 N1601 1.384 . S
N1600 C1596 1.427 . S
N1600 C1597 1.384 . S
N1601 C1593 1.427 . S
N1601 C1599 1.384 . S
H1602 C1608 0.930 . S
H1603 C1612 0.930 . S
H1604 C1617 0.929 . S
H1605 C1615 0.929 . S
H1606 C1610 0.929 . S
H1607 C1616 0.929 . S
C1608 H1602 0.930 . S
C1608 C1609 1.367 . S
C1608 C1616 1.378 . S
C1609 C1608 1.367 . S
C1609 C1617 1.433 . S
C1610 H1606 0.929 . S
C1610 C1612 1.378 . S
C1610 C1614 1.350 . S
C1611 C1614 1.463 . S
C1611 C1616 1.350 . S
C1611 N1619 1.427 . S
C1612 H1603 0.930 . S
C1612 C1610 1.378 . S
C1612 C1613 1.367 . S
C1613 C1612 1.367 . S
C1613 C1615 1.433 . S
C1614 C1610 1.350 . S
C1614 C1611 1.463 . S
C1614 N1618 1.427 . S
C1615 H1605 0.929 . S
C1615 C1613 1.433 . S
C1615 N1618 1.384 . S
C1616 H1607 0.929 . S
C1616 C1608 1.378 . S
C1616 C1611 1.350 . S
C1617 H1604 0.929 . S
C1617 C1609 1.433 . S
C1617 N1619 1.384 . S
N1618 C1614 1.427 . S
N1618 C1615 1.384 . S
N1619 C1611 1.427 . S
N1619 C1617 1.384 . S
H1620 C1626 0.930 . S
H1621 C1630 0.930 . S
H1622 C1635 0.929 . S
H1623 C1633 0.929 1_545 S
H1624 C1628 0.929 . S
H1625 C1634 0.929 . S
C1626 H1620 0.930 . S
C1626 C1627 1.367 1_545 S
C1626 C1634 1.378 . S
C1627 C1626 1.367 1_565 S
C1627 C1635 1.433 . S
C1628 H1624 0.929 . S
C1628 C1630 1.378 . S
C1628 C1632 1.350 . S
C1629 C1632 1.463 . S
C1629 C1634 1.350 1_565 S
C1629 N1637 1.427 . S
C1630 H1621 0.930 . S
C1630 C1628 1.378 . S
C1630 C1631 1.367 . S
C1631 C1630 1.367 . S
C1631 C1633 1.433 . S
C1632 C1628 1.350 . S
C1632 C1629 1.463 . S
C1632 N1636 1.427 . S
C1633 H1623 0.929 1_565 S
C1633 C1631 1.433 . S
C1633 N1636 1.384 . S
C1634 H1625 0.929 . S
C1634 C1626 1.378 . S
C1634 C1629 1.350 1_545 S
C1635 H1622 0.929 . S
C1635 C1627 1.433 . S
C1635 N1637 1.384 . S
N1636 C1632 1.427 . S
N1636 C1633 1.384 . S
N1637 C1629 1.427 . S
N1637 C1635 1.384 . S
H1638 C1644 0.930 . S
H1639 C1648 0.930 . S
H1640 C1653 0.929 . S
H1641 C1651 0.929 . S
H1642 C1646 0.929 . S
H1643 C1652 0.929 1_655 S
C1644 H1638 0.930 . S
C1644 C1645 1.367 . S
C1644 C1652 1.378 . S
C1645 C1644 1.367 . S
C1645 C1653 1.433 . S
C1646 H1642 0.929 . S
C1646 C1648 1.378 . S
C1646 C1650 1.350 . S
C1647 C1650 1.463 . S
C1647 C1652 1.350 . S
C1647 N1655 1.427 . S
C1648 H1639 0.930 . S
C1648 C1646 1.378 . S
C1648 C1649 1.367 . S
C1649 C1648 1.367 . S
C1649 C1651 1.433 1_455 S
C1650 C1646 1.350 . S
C1650 C1647 1.463 . S
C1650 N1654 1.434 . S
C1651 H1641 0.929 . S
C1651 C1649 1.433 1_655 S
C1651 N1654 1.378 1_655 S
C1652 H1643 0.929 1_455 S
C1652 C1644 1.378 . S
C1652 C1647 1.350 . S
C1653 H1640 0.929 . S
C1653 C1645 1.433 . S
C1653 N1655 1.384 . S
N1654 C1650 1.434 . S
N1654 C1651 1.378 1_455 S
N1655 C1647 1.427 . S
N1655 C1653 1.384 . S
H1656 C1662 0.930 . S
H1657 C1666 0.930 . S
H1658 C1671 0.929 . S
H1659 C1669 0.929 . S
H1660 C1664 0.929 . S
H1661 C1670 0.929 . S
C1662 H1656 0.930 . S
C1662 C1663 1.367 . S
C1662 C1670 1.378 . S
C1663 C1662 1.367 . S
C1663 C1671 1.433 . S
C1664 H1660 0.929 . S
C1664 C1666 1.378 . S
C1664 C1668 1.350 . S
C1665 C1668 1.463 . S
C1665 C1670 1.350 . S
C1665 N1673 1.427 . S
C1666 H1657 0.930 . S
C1666 C1664 1.378 . S
C1666 C1667 1.367 . S
C1667 C1666 1.367 . S
C1667 C1669 1.433 . S
C1668 C1664 1.350 . S
C1668 C1665 1.463 . S
C1668 N1672 1.427 . S
C1669 H1659 0.929 . S
C1669 C1667 1.433 . S
C1669 N1672 1.384 . S
C1670 H1661 0.929 . S
C1670 C1662 1.378 . S
C1670 C1665 1.350 . S
C1671 H1658 0.929 . S
C1671 C1663 1.433 . S
C1671 N1673 1.384 . S
N1672 C1668 1.427 . S
N1672 C1669 1.384 . S
N1673 C1665 1.427 . S
N1673 C1671 1.384 . S
H1674 C1680 0.930 . S
H1675 C1684 0.930 . S
H1676 C1689 0.929 . S
H1677 C1687 0.929 . S
H1678 C1682 0.929 . S
H1679 C1688 0.929 . S
C1680 H1674 0.930 . S
C1680 C1681 1.367 . S
C1680 C1688 1.378 . S
C1681 C1680 1.367 . S
C1681 C1689 1.433 . S
C1682 H1678 0.929 . S
C1682 C1684 1.378 . S
C1682 C1686 1.350 . S
C1683 C1686 1.463 . S
C1683 C1688 1.350 . S
C1683 N1691 1.427 . S
C1684 H1675 0.930 . S
C1684 C1682 1.378 . S
C1684 C1685 1.367 . S
C1685 C1684 1.367 . S
C1685 C1687 1.433 . S
C1686 C1682 1.350 . S
C1686 C1683 1.463 . S
C1686 N1690 1.427 . S
C1687 H1677 0.929 . S
C1687 C1685 1.433 . S
C1687 N1690 1.384 . S
C1688 H1679 0.929 . S
C1688 C1680 1.378 . S
C1688 C1683 1.350 . S
C1689 H1676 0.929 . S
C1689 C1681 1.433 . S
C1689 N1691 1.384 . S
N1690 C1686 1.427 . S
N1690 C1687 1.384 . S
N1691 C1683 1.427 . S
N1691 C1689 1.384 . S
H1692 C1698 0.930 . S
H1693 C1702 0.930 . S
H1694 C1707 0.929 . S
H1695 C1705 0.929 . S
H1696 C1700 0.929 . S
H1697 C1706 0.929 . S
C1698 H1692 0.930 . S
C1698 C1699 1.367 . S
C1698 C1706 1.378 . S
C1699 C1698 1.367 . S
C1699 C1707 1.433 . S
C1700 H1696 0.929 . S
C1700 C1702 1.378 . S
C1700 C1704 1.350 . S
C1701 C1704 1.463 . S
C1701 C1706 1.350 . S
C1701 N1709 1.427 . S
C1702 H1693 0.930 . S
C1702 C1700 1.378 . S
C1702 C1703 1.367 . S
C1703 C1702 1.367 . S
C1703 C1705 1.433 . S
C1704 C1700 1.350 . S
C1704 C1701 1.463 . S
C1704 N1708 1.427 . S
C1705 H1695 0.929 . S
C1705 C1703 1.433 . S
C1705 N1708 1.384 . S
C1706 H1697 0.929 . S
C1706 C1698 1.378 . S
C1706 C1701 1.350 . S
C1707 H1694 0.929 . S
C1707 C1699 1.433 . S
C1707 N1709 1.384 . S
N1708 C1704 1.427 . S
N1708 C1705 1.384 . S
N1709 C1701 1.427 . S
N1709 C1707 1.384 . S
C1069 C33 2.258 1_565 S
C1073 C210 2.254 . S
C1087 C92 2.316 . S
C1091 C269 2.309 . S
C1105 C298 2.364 . S
C1109 C151 2.311 . S
C1123 C387 2.261 . S
C1127 C564 2.259 . S
C1141 C446 2.314 . S
C1145 C623 2.307 . S
C1159 C652 2.366 . S
C1163 C505 2.315 . S
C1177 C918 2.255 . S
C1181 C741 2.259 . S
C1195 C977 2.314 . S
C1199 C800 2.320 . S
C1213 C1006 2.364 . S
C1217 C859 2.312 . S
C1231 C5 1.704 . S
C1235 C536 1.713 . S
C1249 C64 1.888 . S
C1253 C595 1.900 . S
C1267 C701 1.812 . S
C1271 C123 1.818 . S
C1285 C182 1.712 . S
C1289 C713 1.703 . S
C1303 C241 1.906 . S
C1307 C772 1.895 . S
C1321 C347 1.812 . S
C1325 C831 1.818 . S
C1339 C359 1.711 . S
C1343 C890 1.718 . S
C1357 C418 1.890 . S
C1361 C949 1.902 . S
C1375 C1055 1.810 . S
C1379 C477 1.816 . S
C1393 C52 0.305 . S
C1397 C239 0.340 . S
C1411 C111 0.745 1_456 S
C1415 C328 0.746 . S
C1429 C170 0.302 . S
C1433 C180 0.313 . S
C1447 C229 0.514 . S
C1451 C62 0.502 1_556 S
C1465 C121 0.594 . S
C1469 C288 0.588 1_655 S
C1483 C300 0.447 . S
C1487 C3 0.448 . S
C1501 C406 0.315 . S
C1505 C593 0.315 . S
C1519 C682 0.745 . S
C1523 C465 0.743 . S
C1537 C534 0.292 . S
C1541 C524 0.301 . S
C1555 C416 0.497 . S
C1559 C583 0.513 . S
C1573 C642 0.588 . S
C1577 C475 0.594 . S
C1591 C654 0.458 . S
C1595 C357 0.447 . S
C1609 C947 0.324 . S
C1613 C760 0.315 . S
C1627 C1036 0.743 . S
C1631 C819 0.742 . S
C1645 C878 0.305 . S
C1649 C888 0.296 . S
C1663 C770 0.501 . S
C1667 C937 0.518 . S
C1681 C829 0.577 . S
C1685 C996 0.582 . S
C1699 C711 0.448 . S
C1703 C1008 0.459 . S
