# Generated by pormake.
# Topology nfb, (4)-cn, num edge types: 1
# Building blocks:
#     Node 0, Type 0, BuildingBlock: ICAMEG_clean_sbu_1, # of connection points: 4
#     Node 1, Type 0, BuildingBlock: ICAMEG_clean_sbu_1, # of connection points: 4
#     Node 2, Type 0, BuildingBlock: ICAMEG_clean_sbu_1, # of connection points: 4
#     Node 3, Type 0, BuildingBlock: ICAMEG_clean_sbu_1, # of connection points: 4
#     Node 4, Type 0, BuildingBlock: ICAMEG_clean_sbu_1, # of connection points: 4
#     Node 5, Type 0, BuildingBlock: ICAMEG_clean_sbu_1, # of connection points: 4
#     Node 6, Type 0, BuildingBlock: ICAMEG_clean_sbu_1, # of connection points: 4
#     Node 7, Type 0, BuildingBlock: ICAMEG_clean_sbu_1, # of connection points: 4
#     Node 8, Type 0, BuildingBlock: ICAMEG_clean_sbu_1, # of connection points: 4
#     Node 9, Type 0, BuildingBlock: ICAMEG_clean_sbu_1, # of connection points: 4
#     Node 10, Type 0, BuildingBlock: ICAMEG_clean_sbu_1, # of connection points: 4
#     Node 11, Type 0, BuildingBlock: ICAMEG_clean_sbu_1, # of connection points: 4
#     Node 12, Type 0, BuildingBlock: ICAMEG_clean_sbu_1, # of connection points: 4
#     Node 13, Type 0, BuildingBlock: ICAMEG_clean_sbu_1, # of connection points: 4
#     Node 14, Type 0, BuildingBlock: ICAMEG_clean_sbu_1, # of connection points: 4
#     Node 15, Type 0, BuildingBlock: ICAMEG_clean_sbu_1, # of connection points: 4
#     Node 16, Type 0, BuildingBlock: ICAMEG_clean_sbu_1, # of connection points: 4
#     Node 17, Type 0, BuildingBlock: ICAMEG_clean_sbu_1, # of connection points: 4
#     Node 18, Type 0, BuildingBlock: ICAMEG_clean_sbu_1, # of connection points: 4
#     Node 19, Type 0, BuildingBlock: ICAMEG_clean_sbu_1, # of connection points: 4
#     Node 20, Type 0, BuildingBlock: ICAMEG_clean_sbu_1, # of connection points: 4
#     Node 21, Type 0, BuildingBlock: ICAMEG_clean_sbu_1, # of connection points: 4
#     Node 22, Type 0, BuildingBlock: ICAMEG_clean_sbu_1, # of connection points: 4
#     Node 23, Type 0, BuildingBlock: ICAMEG_clean_sbu_1, # of connection points: 4
#     Node 24, Type 0, BuildingBlock: ICAMEG_clean_sbu_1, # of connection points: 4
#     Node 25, Type 0, BuildingBlock: ICAMEG_clean_sbu_1, # of connection points: 4
#     Node 26, Type 0, BuildingBlock: ICAMEG_clean_sbu_1, # of connection points: 4
#     Node 27, Type 0, BuildingBlock: ICAMEG_clean_sbu_1, # of connection points: 4
#     Node 28, Type 0, BuildingBlock: ICAMEG_clean_sbu_1, # of connection points: 4
#     Node 29, Type 0, BuildingBlock: ICAMEG_clean_sbu_1, # of connection points: 4
#     Node 30, Type 0, BuildingBlock: ICAMEG_clean_sbu_1, # of connection points: 4
#     Node 31, Type 0, BuildingBlock: ICAMEG_clean_sbu_1, # of connection points: 4
#     Node 32, Type 0, BuildingBlock: ICAMEG_clean_sbu_1, # of connection points: 4
#     Node 33, Type 0, BuildingBlock: ICAMEG_clean_sbu_1, # of connection points: 4
#     Node 34, Type 0, BuildingBlock: ICAMEG_clean_sbu_1, # of connection points: 4
#     Node 35, Type 0, BuildingBlock: ICAMEG_clean_sbu_1, # of connection points: 4
#     Node 36, Type 0, BuildingBlock: ICAMEG_clean_sbu_1, # of connection points: 4
#     Node 37, Type 0, BuildingBlock: ICAMEG_clean_sbu_1, # of connection points: 4
#     Node 38, Type 0, BuildingBlock: ICAMEG_clean_sbu_1, # of connection points: 4
#     Node 39, Type 0, BuildingBlock: ICAMEG_clean_sbu_1, # of connection points: 4
#     Node 40, Type 0, BuildingBlock: ICAMEG_clean_sbu_1, # of connection points: 4
#     Node 41, Type 0, BuildingBlock: ICAMEG_clean_sbu_1, # of connection points: 4
#     Node 42, Type 0, BuildingBlock: ICAMEG_clean_sbu_1, # of connection points: 4
#     Node 43, Type 0, BuildingBlock: ICAMEG_clean_sbu_1, # of connection points: 4
#     Node 44, Type 0, BuildingBlock: ICAMEG_clean_sbu_1, # of connection points: 4
#     Node 45, Type 0, BuildingBlock: ICAMEG_clean_sbu_1, # of connection points: 4
#     Node 46, Type 0, BuildingBlock: ICAMEG_clean_sbu_1, # of connection points: 4
#     Node 47, Type 0, BuildingBlock: ICAMEG_clean_sbu_1, # of connection points: 4
#     Edge 48, Type (0, 0), BuildingBlock: UVAHIK_clean_linker_0, # of connection points: 2
#     Edge 49, Type (0, 0), BuildingBlock: UVAHIK_clean_linker_0, # of connection points: 2
#     Edge 50, Type (0, 0), BuildingBlock: UVAHIK_clean_linker_0, # of connection points: 2
#     Edge 51, Type (0, 0), BuildingBlock: UVAHIK_clean_linker_0, # of connection points: 2
#     Edge 52, Type (0, 0), BuildingBlock: UVAHIK_clean_linker_0, # of connection points: 2
#     Edge 53, Type (0, 0), BuildingBlock: UVAHIK_clean_linker_0, # of connection points: 2
#     Edge 54, Type (0, 0), BuildingBlock: UVAHIK_clean_linker_0, # of connection points: 2
#     Edge 55, Type (0, 0), BuildingBlock: UVAHIK_clean_linker_0, # of connection points: 2
#     Edge 56, Type (0, 0), BuildingBlock: UVAHIK_clean_linker_0, # of connection points: 2
#     Edge 57, Type (0, 0), BuildingBlock: UVAHIK_clean_linker_0, # of connection points: 2
#     Edge 58, Type (0, 0), BuildingBlock: UVAHIK_clean_linker_0, # of connection points: 2
#     Edge 59, Type (0, 0), BuildingBlock: UVAHIK_clean_linker_0, # of connection points: 2
#     Edge 60, Type (0, 0), BuildingBlock: UVAHIK_clean_linker_0, # of connection points: 2
#     Edge 61, Type (0, 0), BuildingBlock: UVAHIK_clean_linker_0, # of connection points: 2
#     Edge 62, Type (0, 0), BuildingBlock: UVAHIK_clean_linker_0, # of connection points: 2
#     Edge 63, Type (0, 0), BuildingBlock: UVAHIK_clean_linker_0, # of connection points: 2
#     Edge 64, Type (0, 0), BuildingBlock: UVAHIK_clean_linker_0, # of connection points: 2
#     Edge 65, Type (0, 0), BuildingBlock: UVAHIK_clean_linker_0, # of connection points: 2
#     Edge 66, Type (0, 0), BuildingBlock: UVAHIK_clean_linker_0, # of connection points: 2
#     Edge 67, Type (0, 0), BuildingBlock: UVAHIK_clean_linker_0, # of connection points: 2
#     Edge 68, Type (0, 0), BuildingBlock: UVAHIK_clean_linker_0, # of connection points: 2
#     Edge 69, Type (0, 0), BuildingBlock: UVAHIK_clean_linker_0, # of connection points: 2
#     Edge 70, Type (0, 0), BuildingBlock: UVAHIK_clean_linker_0, # of connection points: 2
#     Edge 71, Type (0, 0), BuildingBlock: UVAHIK_clean_linker_0, # of connection points: 2
#     Edge 72, Type (0, 0), BuildingBlock: UVAHIK_clean_linker_0, # of connection points: 2
#     Edge 73, Type (0, 0), BuildingBlock: UVAHIK_clean_linker_0, # of connection points: 2
#     Edge 74, Type (0, 0), BuildingBlock: UVAHIK_clean_linker_0, # of connection points: 2
#     Edge 75, Type (0, 0), BuildingBlock: UVAHIK_clean_linker_0, # of connection points: 2
#     Edge 76, Type (0, 0), BuildingBlock: UVAHIK_clean_linker_0, # of connection points: 2
#     Edge 77, Type (0, 0), BuildingBlock: UVAHIK_clean_linker_0, # of connection points: 2
#     Edge 78, Type (0, 0), BuildingBlock: UVAHIK_clean_linker_0, # of connection points: 2
#     Edge 79, Type (0, 0), BuildingBlock: UVAHIK_clean_linker_0, # of connection points: 2
#     Edge 80, Type (0, 0), BuildingBlock: UVAHIK_clean_linker_0, # of connection points: 2
#     Edge 81, Type (0, 0), BuildingBlock: UVAHIK_clean_linker_0, # of connection points: 2
#     Edge 82, Type (0, 0), BuildingBlock: UVAHIK_clean_linker_0, # of connection points: 2
#     Edge 83, Type (0, 0), BuildingBlock: UVAHIK_clean_linker_0, # of connection points: 2
#     Edge 84, Type (0, 0), BuildingBlock: UVAHIK_clean_linker_0, # of connection points: 2
#     Edge 85, Type (0, 0), BuildingBlock: UVAHIK_clean_linker_0, # of connection points: 2
#     Edge 86, Type (0, 0), BuildingBlock: UVAHIK_clean_linker_0, # of connection points: 2
#     Edge 87, Type (0, 0), BuildingBlock: UVAHIK_clean_linker_0, # of connection points: 2
#     Edge 88, Type (0, 0), BuildingBlock: UVAHIK_clean_linker_0, # of connection points: 2
#     Edge 89, Type (0, 0), BuildingBlock: UVAHIK_clean_linker_0, # of connection points: 2
#     Edge 90, Type (0, 0), BuildingBlock: UVAHIK_clean_linker_0, # of connection points: 2
#     Edge 91, Type (0, 0), BuildingBlock: UVAHIK_clean_linker_0, # of connection points: 2
#     Edge 92, Type (0, 0), BuildingBlock: UVAHIK_clean_linker_0, # of connection points: 2
#     Edge 93, Type (0, 0), BuildingBlock: UVAHIK_clean_linker_0, # of connection points: 2
#     Edge 94, Type (0, 0), BuildingBlock: UVAHIK_clean_linker_0, # of connection points: 2
#     Edge 95, Type (0, 0), BuildingBlock: UVAHIK_clean_linker_0, # of connection points: 2
#     Edge 96, Type (0, 0), BuildingBlock: UVAHIK_clean_linker_0, # of connection points: 2
#     Edge 97, Type (0, 0), BuildingBlock: UVAHIK_clean_linker_0, # of connection points: 2
#     Edge 98, Type (0, 0), BuildingBlock: UVAHIK_clean_linker_0, # of connection points: 2
#     Edge 99, Type (0, 0), BuildingBlock: UVAHIK_clean_linker_0, # of connection points: 2
#     Edge 100, Type (0, 0), BuildingBlock: UVAHIK_clean_linker_0, # of connection points: 2
#     Edge 101, Type (0, 0), BuildingBlock: UVAHIK_clean_linker_0, # of connection points: 2
#     Edge 102, Type (0, 0), BuildingBlock: UVAHIK_clean_linker_0, # of connection points: 2
#     Edge 103, Type (0, 0), BuildingBlock: UVAHIK_clean_linker_0, # of connection points: 2
#     Edge 104, Type (0, 0), BuildingBlock: UVAHIK_clean_linker_0, # of connection points: 2
#     Edge 105, Type (0, 0), BuildingBlock: UVAHIK_clean_linker_0, # of connection points: 2
#     Edge 106, Type (0, 0), BuildingBlock: UVAHIK_clean_linker_0, # of connection points: 2
#     Edge 107, Type (0, 0), BuildingBlock: UVAHIK_clean_linker_0, # of connection points: 2
#     Edge 108, Type (0, 0), BuildingBlock: UVAHIK_clean_linker_0, # of connection points: 2
#     Edge 109, Type (0, 0), BuildingBlock: UVAHIK_clean_linker_0, # of connection points: 2
#     Edge 110, Type (0, 0), BuildingBlock: UVAHIK_clean_linker_0, # of connection points: 2
#     Edge 111, Type (0, 0), BuildingBlock: UVAHIK_clean_linker_0, # of connection points: 2
#     Edge 112, Type (0, 0), BuildingBlock: UVAHIK_clean_linker_0, # of connection points: 2
#     Edge 113, Type (0, 0), BuildingBlock: UVAHIK_clean_linker_0, # of connection points: 2
#     Edge 114, Type (0, 0), BuildingBlock: UVAHIK_clean_linker_0, # of connection points: 2
#     Edge 115, Type (0, 0), BuildingBlock: UVAHIK_clean_linker_0, # of connection points: 2
#     Edge 116, Type (0, 0), BuildingBlock: UVAHIK_clean_linker_0, # of connection points: 2
#     Edge 117, Type (0, 0), BuildingBlock: UVAHIK_clean_linker_0, # of connection points: 2
#     Edge 118, Type (0, 0), BuildingBlock: UVAHIK_clean_linker_0, # of connection points: 2
#     Edge 119, Type (0, 0), BuildingBlock: UVAHIK_clean_linker_0, # of connection points: 2
#     Edge 120, Type (0, 0), BuildingBlock: UVAHIK_clean_linker_0, # of connection points: 2
#     Edge 121, Type (0, 0), BuildingBlock: UVAHIK_clean_linker_0, # of connection points: 2
#     Edge 122, Type (0, 0), BuildingBlock: UVAHIK_clean_linker_0, # of connection points: 2
#     Edge 123, Type (0, 0), BuildingBlock: UVAHIK_clean_linker_0, # of connection points: 2
#     Edge 124, Type (0, 0), BuildingBlock: UVAHIK_clean_linker_0, # of connection points: 2
#     Edge 125, Type (0, 0), BuildingBlock: UVAHIK_clean_linker_0, # of connection points: 2
#     Edge 126, Type (0, 0), BuildingBlock: UVAHIK_clean_linker_0, # of connection points: 2
#     Edge 127, Type (0, 0), BuildingBlock: UVAHIK_clean_linker_0, # of connection points: 2
#     Edge 128, Type (0, 0), BuildingBlock: UVAHIK_clean_linker_0, # of connection points: 2
#     Edge 129, Type (0, 0), BuildingBlock: UVAHIK_clean_linker_0, # of connection points: 2
#     Edge 130, Type (0, 0), BuildingBlock: UVAHIK_clean_linker_0, # of connection points: 2
#     Edge 131, Type (0, 0), BuildingBlock: UVAHIK_clean_linker_0, # of connection points: 2
#     Edge 132, Type (0, 0), BuildingBlock: UVAHIK_clean_linker_0, # of connection points: 2
#     Edge 133, Type (0, 0), BuildingBlock: UVAHIK_clean_linker_0, # of connection points: 2
#     Edge 134, Type (0, 0), BuildingBlock: UVAHIK_clean_linker_0, # of connection points: 2
#     Edge 135, Type (0, 0), BuildingBlock: UVAHIK_clean_linker_0, # of connection points: 2
#     Edge 136, Type (0, 0), BuildingBlock: UVAHIK_clean_linker_0, # of connection points: 2
#     Edge 137, Type (0, 0), BuildingBlock: UVAHIK_clean_linker_0, # of connection points: 2
#     Edge 138, Type (0, 0), BuildingBlock: UVAHIK_clean_linker_0, # of connection points: 2
#     Edge 139, Type (0, 0), BuildingBlock: UVAHIK_clean_linker_0, # of connection points: 2
#     Edge 140, Type (0, 0), BuildingBlock: UVAHIK_clean_linker_0, # of connection points: 2
#     Edge 141, Type (0, 0), BuildingBlock: UVAHIK_clean_linker_0, # of connection points: 2
#     Edge 142, Type (0, 0), BuildingBlock: UVAHIK_clean_linker_0, # of connection points: 2
#     Edge 143, Type (0, 0), BuildingBlock: UVAHIK_clean_linker_0, # of connection points: 2
# Relax obj value: 0.318
# Max RMSD: 0.137
# Mean RMSD: 0.108
data_MOF--net-nfb--node1-ICAMEG_clean_sbu_1--edge1-UVAHIK_clean_linker_0
_symmetry_space_group_name_H-M    P1
_symmetry_Int_Tables_number       1
_symmetry_cell_setting            triclinic
loop_
_symmetry_equiv_pos_as_xyz
'x, y, z'
_cell_length_a     80.080144
_cell_length_b     80.244264
_cell_length_c     80.212735
_cell_angle_alpha  90.478173
_cell_angle_beta   91.527254
_cell_angle_gamma 92.949762
loop_
_atom_site_label
_atom_site_type_symbol
_atom_site_fract_x
_atom_site_fract_y
_atom_site_fract_z
_atom_type_partial_charge
Co0 Co 0.12327 0.10926 0.39026 0.0
Co1 Co 0.11174 0.13806 0.41915 0.0
O2 O 0.12618 0.13085 0.40167 0.0
C3 C 0.15805 0.11132 0.40349 0.0
O4 O 0.15141 0.11528 0.41767 0.0
C5 C 0.1125 0.16629 0.39562 0.0
O6 O 0.10937 0.15545 0.38344 0.0
O7 O 0.09176 0.13329 0.40453 0.0
O8 O 0.09791 0.11046 0.38988 0.0
H9 H 0.06145 0.13382 0.45534 0.0
H10 H 0.14587 0.13581 0.37638 0.0
O11 O 0.14851 0.1079 0.39074 0.0
H12 H 0.10285 0.12301 0.33236 0.0
H13 H 0.13865 0.06598 0.34842 0.0
H14 H 0.10025 0.07933 0.39312 0.0
H15 H 0.10232 0.10783 0.35896 0.0
H16 H 0.1414 0.09323 0.36301 0.0
O17 O 0.1138 0.16136 0.41061 0.0
H18 H 0.08017 0.12454 0.43359 0.0
H19 H 0.11213 0.16792 0.44157 0.0
H20 H 0.09694 0.05199 0.37877 0.0
H21 H 0.14696 0.1512 0.3499 0.0
H22 H 0.11623 0.04518 0.35625 0.0
H23 H 0.12531 0.14485 0.32769 0.0
O24 O 0.1223 0.09719 0.41186 0.0
H25 H 0.16992 0.16163 0.43267 0.0
H26 H 0.12118 0.12928 0.45412 0.0
H27 H 0.14638 0.13423 0.47217 0.0
H28 H 0.17097 0.15054 0.46148 0.0
H29 H 0.14455 0.15619 0.41496 0.0
H30 H 0.09369 0.17775 0.46334 0.0
H31 H 0.06817 0.16062 0.47039 0.0
O32 O 0.10924 0.11502 0.42816 0.0
C33 C 0.08748 0.12086 0.39505 0.0
C34 C 0.07256 0.14137 0.45243 0.0
C35 C 0.09064 0.16604 0.45689 0.0
N36 N 0.09729 0.14561 0.4364 0.0
C37 C 0.08324 0.13615 0.44015 0.0
C38 C 0.10102 0.16043 0.44453 0.0
C39 C 0.07633 0.15642 0.46085 0.0
C40 C 0.1365 0.13287 0.36671 0.0
N41 N 0.12409 0.12088 0.36918 0.0
C42 C 0.13714 0.14167 0.35177 0.0
C43 C 0.12498 0.13812 0.33932 0.0
C44 C 0.11236 0.12588 0.34194 0.0
C45 C 0.1121 0.11735 0.35704 0.0
C46 C 0.13014 0.06882 0.3582 0.0
C47 C 0.10862 0.07649 0.38326 0.0
C48 C 0.13167 0.0842 0.36652 0.0
N49 N 0.12091 0.08789 0.3788 0.0
C50 C 0.10672 0.06097 0.37522 0.0
C51 C 0.11756 0.05715 0.36259 0.0
C52 C 0.11472 0.10072 0.42509 0.0
C53 C 0.15926 0.15456 0.4375 0.0
C54 C 0.13185 0.13634 0.44935 0.0
C55 C 0.14607 0.13914 0.45965 0.0
C56 C 0.15985 0.14831 0.45365 0.0
N57 N 0.13136 0.14251 0.43352 0.0
C58 C 0.14483 0.15152 0.42755 0.0
Co59 Co 0.37541 0.64964 0.90743 0.0
Co60 Co 0.37979 0.63956 0.86609 0.0
O61 O 0.38496 0.63669 0.88979 0.0
C62 C 0.40609 0.6614 0.92637 0.0
O63 O 0.40173 0.67669 0.92353 0.0
C64 C 0.37208 0.60387 0.87262 0.0
O65 O 0.36324 0.60931 0.88489 0.0
O66 O 0.3554 0.63797 0.87004 0.0
O67 O 0.35336 0.65023 0.89511 0.0
H68 H 0.35033 0.66355 0.81642 0.0
H69 H 0.39141 0.61819 0.91602 0.0
O70 O 0.3973 0.64905 0.92016 0.0
H71 H 0.33311 0.61016 0.93384 0.0
H72 H 0.36508 0.66466 0.96729 0.0
H73 H 0.35508 0.67944 0.90844 0.0
H74 H 0.343 0.63663 0.92115 0.0
H75 H 0.3764 0.64796 0.94466 0.0
O76 O 0.37956 0.61439 0.86311 0.0
H77 H 0.35719 0.66046 0.84637 0.0
H78 H 0.39126 0.62335 0.8352 0.0
H79 H 0.34347 0.69644 0.93067 0.0
H80 H 0.38209 0.59162 0.92888 0.0
H81 H 0.34845 0.68908 0.96034 0.0
H82 H 0.35273 0.58745 0.93781 0.0
O83 O 0.38308 0.67054 0.89636 0.0
H84 H 0.43892 0.62183 0.87199 0.0
H85 H 0.40218 0.66305 0.84731 0.0
H86 H 0.4325 0.66556 0.8425 0.0
H87 H 0.45108 0.64481 0.85485 0.0
H88 H 0.40855 0.61988 0.8766 0.0
H89 H 0.38467 0.62593 0.80513 0.0
H90 H 0.36412 0.6462 0.79557 0.0
O91 O 0.37985 0.66477 0.86889 0.0
C92 C 0.34687 0.64418 0.88153 0.0
C93 C 0.35935 0.65472 0.82042 0.0
C94 C 0.37861 0.63359 0.81409 0.0
N95 N 0.37473 0.64186 0.84249 0.0
C96 C 0.36333 0.65296 0.83735 0.0
C97 C 0.38227 0.63216 0.83112 0.0
C98 C 0.36708 0.64497 0.80873 0.0
C99 C 0.37868 0.61656 0.92009 0.0
N100 N 0.36781 0.629 0.91793 0.0
C101 C 0.37345 0.60146 0.92728 0.0
C102 C 0.35696 0.59911 0.93226 0.0
C103 C 0.34594 0.61184 0.93001 0.0
C104 C 0.35161 0.62678 0.92277 0.0
C105 C 0.36279 0.66798 0.95441 0.0
C106 C 0.35725 0.67612 0.92132 0.0
C107 C 0.36917 0.65857 0.94154 0.0
N108 N 0.36633 0.66268 0.92524 0.0
C109 C 0.35066 0.68581 0.93385 0.0
C110 C 0.35347 0.68168 0.9505 0.0
C111 C 0.38249 0.67503 0.88115 0.0
C112 C 0.43095 0.63092 0.86651 0.0
C113 C 0.4102 0.65402 0.85278 0.0
C114 C 0.42735 0.65548 0.84998 0.0
C115 C 0.43777 0.64383 0.8569 0.0
N116 N 0.4036 0.64128 0.86215 0.0
C117 C 0.41374 0.62985 0.86904 0.0
Co118 Co 0.88015 0.89794 0.39013 0.0
Co119 Co 0.89151 0.86785 0.41786 0.0
O120 O 0.87702 0.87601 0.40026 0.0
C121 C 0.84568 0.89609 0.40228 0.0
O122 O 0.85255 0.89132 0.41637 0.0
C123 C 0.89083 0.84038 0.39285 0.0
O124 O 0.89583 0.85123 0.38164 0.0
O125 O 0.91142 0.87289 0.40433 0.0
O126 O 0.90543 0.89614 0.39033 0.0
H127 H 0.94219 0.86963 0.45628 0.0
H128 H 0.85678 0.87224 0.3743 0.0
O129 O 0.85498 0.89987 0.39001 0.0
H130 H 0.89883 0.88588 0.33204 0.0
H131 H 0.86481 0.94308 0.35025 0.0
H132 H 0.90392 0.92723 0.39521 0.0
H133 H 0.9003 0.90013 0.35944 0.0
H134 H 0.86176 0.91538 0.36328 0.0
O135 O 0.88872 0.84498 0.40784 0.0
H136 H 0.92341 0.88021 0.43439 0.0
H137 H 0.8909 0.83698 0.43833 0.0
H138 H 0.90754 0.955 0.38243 0.0
H139 H 0.85476 0.85777 0.34701 0.0
H140 H 0.88788 0.96308 0.35978 0.0
H141 H 0.87591 0.86455 0.32567 0.0
O142 O 0.88187 0.90922 0.41238 0.0
H143 H 0.83315 0.84472 0.42789 0.0
H144 H 0.88269 0.87538 0.45295 0.0
H145 H 0.85769 0.87012 0.46979 0.0
H146 H 0.8327 0.85464 0.45728 0.0
H147 H 0.85831 0.8505 0.4114 0.0
H148 H 0.90939 0.82589 0.46019 0.0
H149 H 0.93521 0.84229 0.46935 0.0
O150 O 0.89453 0.89044 0.42832 0.0
C151 C 0.91573 0.88539 0.39539 0.0
C152 C 0.93094 0.8624 0.45244 0.0
C153 C 0.91254 0.83783 0.45462 0.0
N154 N 0.90601 0.85929 0.43518 0.0
C155 C 0.92024 0.86834 0.44008 0.0
C156 C 0.90214 0.84417 0.44221 0.0
C157 C 0.92703 0.84704 0.45975 0.0
C158 C 0.86594 0.87536 0.36502 0.0
N159 N 0.87858 0.88708 0.36842 0.0
C160 C 0.86477 0.86708 0.34962 0.0
C161 C 0.87666 0.87087 0.33766 0.0
C162 C 0.88952 0.88283 0.34122 0.0
C163 C 0.89031 0.89084 0.35677 0.0
C164 C 0.87347 0.9397 0.36008 0.0
C165 C 0.89539 0.93062 0.38529 0.0
C166 C 0.87178 0.92405 0.36753 0.0
N167 N 0.88273 0.91967 0.37989 0.0
C168 C 0.89747 0.94638 0.37813 0.0
C169 C 0.88642 0.95091 0.36543 0.0
C170 C 0.88936 0.90495 0.42575 0.0
C171 C 0.84399 0.85141 0.4335 0.0
C172 C 0.87185 0.8687 0.44738 0.0
C173 C 0.85774 0.86571 0.457 0.0
C174 C 0.84373 0.85701 0.44998 0.0
N175 N 0.872 0.86318 0.43122 0.0
C176 C 0.85831 0.85464 0.42425 0.0
Co177 Co 0.65163 0.36392 0.91698 0.0
Co178 Co 0.64438 0.3728 0.8757 0.0
O179 O 0.64087 0.37623 0.89937 0.0
C180 C 0.61577 0.35917 0.92572 0.0
O181 O 0.61246 0.35162 0.91133 0.0
C182 C 0.65274 0.40846 0.88231 0.0
O183 O 0.6626 0.40296 0.89414 0.0
O184 O 0.66911 0.37437 0.87918 0.0
O185 O 0.67293 0.36343 0.90459 0.0
H186 H 0.66995 0.34749 0.82553 0.0
H187 H 0.63563 0.39542 0.92513 0.0
O188 O 0.63061 0.36443 0.9298 0.0
H189 H 0.69474 0.40462 0.94325 0.0
H190 H 0.66432 0.35004 0.97693 0.0
H191 H 0.67316 0.33495 0.91821 0.0
H192 H 0.68451 0.37767 0.93082 0.0
H193 H 0.65166 0.36598 0.95411 0.0
O194 O 0.64444 0.39795 0.87281 0.0
H195 H 0.6654 0.35133 0.85559 0.0
H196 H 0.63076 0.38841 0.84505 0.0
H197 H 0.68617 0.31876 0.94064 0.0
H198 H 0.6453 0.42249 0.93768 0.0
H199 H 0.68177 0.32629 0.97025 0.0
H200 H 0.67506 0.42725 0.94677 0.0
O201 O 0.64384 0.34251 0.90621 0.0
H202 H 0.58572 0.3905 0.88306 0.0
H203 H 0.62061 0.34891 0.85742 0.0
H204 H 0.58993 0.34614 0.85349 0.0
H205 H 0.57227 0.36706 0.86633 0.0
H206 H 0.61643 0.39273 0.88676 0.0
H207 H 0.63504 0.38509 0.81487 0.0
H208 H 0.6547 0.36445 0.80494 0.0
O209 O 0.64447 0.34763 0.87863 0.0
C210 C 0.67845 0.36885 0.89078 0.0
C211 C 0.66131 0.35648 0.8297 0.0
C212 C 0.64173 0.3776 0.82372 0.0
N213 N 0.64771 0.36996 0.85203 0.0
C214 C 0.65864 0.35866 0.8467 0.0
C215 C 0.63938 0.37945 0.84081 0.0
C216 C 0.65276 0.36601 0.81815 0.0
C217 C 0.64855 0.39731 0.92926 0.0
N218 N 0.65946 0.38493 0.92734 0.0
C219 C 0.65397 0.4127 0.93628 0.0
C220 C 0.67068 0.41537 0.94135 0.0
C221 C 0.68173 0.40268 0.93936 0.0
C222 C 0.67587 0.38746 0.93228 0.0
C223 C 0.66637 0.34667 0.96408 0.0
C224 C 0.6713 0.33837 0.93107 0.0
C225 C 0.65921 0.35563 0.95111 0.0
N226 N 0.66182 0.3515 0.93485 0.0
C227 C 0.67865 0.32913 0.94371 0.0
C228 C 0.67616 0.33335 0.96032 0.0
C229 C 0.64317 0.33763 0.89101 0.0
C230 C 0.59328 0.38134 0.87735 0.0
C231 C 0.613 0.35804 0.86307 0.0
C232 C 0.59564 0.35643 0.86078 0.0
C233 C 0.58575 0.36817 0.86798 0.0
N234 N 0.6203 0.37103 0.87222 0.0
C235 C 0.61068 0.38257 0.87936 0.0
Co236 Co 0.13707 0.86926 0.64171 0.0
Co237 Co 0.14324 0.86526 0.59965 0.0
O238 O 0.13225 0.87475 0.61851 0.0
C239 C 0.10093 0.86148 0.63666 0.0
O240 O 0.10539 0.85217 0.62418 0.0
C241 C 0.15437 0.89563 0.58172 0.0
O242 O 0.16952 0.89017 0.58299 0.0
O243 O 0.16537 0.87202 0.61 0.0
O244 O 0.16195 0.86915 0.63764 0.0
H245 H 0.18683 0.83266 0.57186 0.0
H246 H 0.11679 0.89823 0.63364 0.0
O247 O 0.1122 0.86925 0.64576 0.0
H248 H 0.1656 0.92141 0.66654 0.0
H249 H 0.12855 0.87368 0.70347 0.0
H250 H 0.1594 0.84642 0.65932 0.0
H251 H 0.16236 0.89123 0.66036 0.0
H252 H 0.1235 0.88048 0.67387 0.0
O253 O 0.14224 0.88743 0.58833 0.0
H254 H 0.17228 0.84427 0.59571 0.0
H255 H 0.13809 0.86692 0.56265 0.0
H256 H 0.16495 0.83935 0.68876 0.0
H257 H 0.11946 0.92846 0.63965 0.0
H258 H 0.14947 0.85303 0.71107 0.0
H259 H 0.14402 0.94023 0.6562 0.0
O260 O 0.13499 0.84491 0.63668 0.0
H261 H 0.08347 0.87391 0.58267 0.0
H262 H 0.12793 0.83361 0.58477 0.0
H263 H 0.09994 0.82468 0.57343 0.0
H264 H 0.07748 0.8449 0.57232 0.0
H265 H 0.11159 0.88228 0.59405 0.0
H266 H 0.15229 0.8556 0.53844 0.0
H267 H 0.17684 0.83832 0.54297 0.0
O268 O 0.14424 0.84304 0.61058 0.0
C269 C 0.17118 0.8714 0.62494 0.0
C270 C 0.17612 0.84014 0.56972 0.0
C271 C 0.15674 0.85302 0.55096 0.0
N272 N 0.1543 0.85617 0.58058 0.0
C273 C 0.16782 0.84673 0.58318 0.0
C274 C 0.14874 0.85938 0.56472 0.0
C275 C 0.17052 0.84333 0.55352 0.0
C276 C 0.12746 0.90324 0.64094 0.0
N277 N 0.13936 0.89297 0.64672 0.0
C278 C 0.12893 0.92038 0.64426 0.0
C279 C 0.14272 0.92698 0.65353 0.0
C280 C 0.15484 0.91643 0.65933 0.0
C281 C 0.15296 0.89936 0.65576 0.0
C282 C 0.13541 0.86767 0.69387 0.0
C283 C 0.1527 0.85251 0.66897 0.0
C284 C 0.13257 0.87144 0.67709 0.0
N285 N 0.14126 0.86396 0.66492 0.0
C286 C 0.15586 0.84841 0.68561 0.0
C287 C 0.14715 0.85608 0.69812 0.0
C288 C 0.13969 0.83647 0.62427 0.0
C289 C 0.09318 0.865 0.58302 0.0
C290 C 0.11823 0.84249 0.58434 0.0
C291 C 0.10241 0.83736 0.57788 0.0
C292 C 0.08981 0.84872 0.57725 0.0
N293 N 0.12144 0.8585 0.58996 0.0
C294 C 0.10915 0.8697 0.58936 0.0
Co295 Co 0.64109 0.60844 0.08615 0.0
Co296 Co 0.61275 0.61884 0.11575 0.0
O297 O 0.63405 0.62221 0.10454 0.0
C298 C 0.66935 0.60818 0.11072 0.0
O299 O 0.65839 0.606 0.12249 0.0
C300 C 0.61359 0.65354 0.10355 0.0
O301 O 0.61803 0.64708 0.08936 0.0
O302 O 0.59992 0.61727 0.09411 0.0
O303 O 0.61801 0.60693 0.07623 0.0
H304 H 0.55647 0.59096 0.12635 0.0
H305 H 0.65979 0.64058 0.09368 0.0
O306 O 0.66449 0.60951 0.09557 0.0
H307 H 0.63786 0.64561 0.03601 0.0
H308 H 0.68043 0.59173 0.04177 0.0
H309 H 0.62691 0.57796 0.06875 0.0
H310 H 0.63254 0.61968 0.05172 0.0
H311 H 0.67097 0.60929 0.06471 0.0
O312 O 0.61049 0.64395 0.11587 0.0
H313 H 0.58334 0.59495 0.11219 0.0
H314 H 0.59695 0.63672 0.1434 0.0
H315 H 0.63583 0.56013 0.04577 0.0
H316 H 0.66559 0.66667 0.07835 0.0
H317 H 0.66277 0.56699 0.03211 0.0
H318 H 0.65452 0.66933 0.04932 0.0
O319 O 0.63601 0.5879 0.09895 0.0
H320 H 0.65528 0.64436 0.15689 0.0
H321 H 0.61299 0.59831 0.14654 0.0
H322 H 0.62905 0.59968 0.17323 0.0
H323 H 0.65035 0.62285 0.17855 0.0
H324 H 0.63904 0.64242 0.13031 0.0
H325 H 0.57016 0.63329 0.15781 0.0
H326 H 0.54974 0.61023 0.14934 0.0
O327 O 0.61476 0.59367 0.11553 0.0
C328 C 0.60351 0.61122 0.08001 0.0
C329 C 0.56528 0.60102 0.13019 0.0
C330 C 0.57296 0.6248 0.14783 0.0
N331 N 0.59173 0.61597 0.12707 0.0
C332 C 0.58054 0.60331 0.12226 0.0
C333 C 0.58809 0.6267 0.13961 0.0
C334 C 0.56151 0.61185 0.14308 0.0
C335 C 0.65513 0.64156 0.08098 0.0
N336 N 0.64593 0.62859 0.07358 0.0
C337 C 0.65838 0.6564 0.07239 0.0
C338 C 0.65213 0.65789 0.05612 0.0
C339 C 0.64277 0.64459 0.04864 0.0
C340 C 0.63977 0.62995 0.05762 0.0
C341 C 0.66865 0.58864 0.04759 0.0
C342 C 0.6386 0.58108 0.0628 0.0
C343 C 0.66325 0.59851 0.06061 0.0
N344 N 0.64835 0.59472 0.06797 0.0
C345 C 0.64361 0.57091 0.04983 0.0
C346 C 0.65873 0.57475 0.04218 0.0
C347 C 0.62465 0.58344 0.1091 0.0
C348 C 0.646 0.63423 0.15474 0.0
C349 C 0.62228 0.6084 0.14874 0.0
C350 C 0.6313 0.60914 0.1639 0.0
C351 C 0.64324 0.62215 0.16687 0.0
N352 N 0.62504 0.62032 0.13691 0.0
C353 C 0.63671 0.63311 0.13974 0.0
Co354 Co 0.87531 0.12245 0.64156 0.0
Co355 Co 0.86383 0.1243 0.59999 0.0
O356 O 0.87742 0.11602 0.61823 0.0
C357 C 0.91043 0.13087 0.63366 0.0
O358 O 0.90405 0.13902 0.6211 0.0
C359 C 0.8517 0.09269 0.58337 0.0
O360 O 0.83641 0.09695 0.58618 0.0
O361 O 0.84323 0.11746 0.61195 0.0
O362 O 0.85002 0.12157 0.63918 0.0
H363 H 0.81606 0.1545 0.57468 0.0
H364 H 0.89562 0.09388 0.63279 0.0
O365 O 0.90064 0.12355 0.64394 0.0
H366 H 0.85182 0.07068 0.66932 0.0
H367 H 0.89157 0.12131 0.70255 0.0
H368 H 0.8544 0.14535 0.66012 0.0
H369 H 0.85317 0.10058 0.66229 0.0
H370 H 0.89318 0.11324 0.6729 0.0
O371 O 0.86414 0.10177 0.58904 0.0
H372 H 0.83388 0.14444 0.59764 0.0
H373 H 0.86433 0.12094 0.56284 0.0
H374 H 0.85226 0.15367 0.68964 0.0
H375 H 0.89482 0.06394 0.63962 0.0
H376 H 0.87094 0.14162 0.71108 0.0
H377 H 0.87279 0.05216 0.65799 0.0
O378 O 0.87583 0.14653 0.63593 0.0
H379 H 0.92147 0.11632 0.57896 0.0
H380 H 0.87625 0.15546 0.58314 0.0
H381 H 0.90238 0.16446 0.56952 0.0
H382 H 0.92521 0.14481 0.56732 0.0
H383 H 0.89522 0.10791 0.5927 0.0
H384 H 0.8468 0.13069 0.53951 0.0
H385 H 0.82248 0.14762 0.54536 0.0
O386 O 0.86358 0.14697 0.61046 0.0
C387 C 0.8393 0.11861 0.62722 0.0
C388 C 0.82664 0.14716 0.57197 0.0
C389 C 0.84389 0.13379 0.55222 0.0
N390 N 0.85016 0.13217 0.58159 0.0
C391 C 0.83678 0.14144 0.58492 0.0
C392 C 0.85376 0.1283 0.56549 0.0
C393 C 0.83024 0.14329 0.55552 0.0
C394 C 0.88606 0.08887 0.64088 0.0
N395 N 0.87452 0.09898 0.64722 0.0
C396 C 0.88564 0.07189 0.64466 0.0
C397 C 0.87327 0.06529 0.65496 0.0
C398 C 0.86149 0.07567 0.66131 0.0
C399 C 0.86229 0.09258 0.65726 0.0
C400 C 0.88333 0.12662 0.69333 0.0
C401 C 0.86248 0.13996 0.6694 0.0
C402 C 0.88421 0.12212 0.67653 0.0
N403 N 0.87378 0.1287 0.66484 0.0
C404 C 0.86125 0.14476 0.68608 0.0
C405 C 0.87175 0.13801 0.69811 0.0
C406 C 0.86942 0.15426 0.62371 0.0
C407 C 0.91158 0.12497 0.57978 0.0
C408 C 0.88614 0.14686 0.58232 0.0
C409 C 0.90089 0.15201 0.57453 0.0
C410 C 0.91369 0.14097 0.57328 0.0
N411 N 0.88416 0.13114 0.58866 0.0
C412 C 0.89665 0.12025 0.58748 0.0
Co413 Co 0.36252 0.39599 0.0974 0.0
Co414 Co 0.39522 0.37983 0.1189 0.0
O415 O 0.37158 0.37886 0.11171 0.0
C416 C 0.33489 0.38623 0.12114 0.0
O417 O 0.34451 0.37671 0.12996 0.0
C418 C 0.3886 0.34545 0.10565 0.0
O419 O 0.38192 0.35259 0.0926 0.0
O420 O 0.4022 0.38086 0.09537 0.0
O421 O 0.38418 0.39911 0.0856 0.0
H422 H 0.45514 0.40174 0.11902 0.0
H423 H 0.34442 0.36268 0.09918 0.0
O424 O 0.34036 0.394 0.10845 0.0
H425 H 0.35677 0.3705 0.03982 0.0
H426 H 0.31834 0.42222 0.0619 0.0
H427 H 0.37566 0.42905 0.08585 0.0
H428 H 0.36531 0.39232 0.06057 0.0
H429 H 0.32996 0.40016 0.07926 0.0
O430 O 0.39489 0.35452 0.11766 0.0
H431 H 0.4253 0.40085 0.11042 0.0
H432 H 0.41536 0.35966 0.1422 0.0
H433 H 0.36457 0.45135 0.06847 0.0
H434 H 0.33541 0.34069 0.07883 0.0
H435 H 0.33571 0.44801 0.05635 0.0
H436 H 0.34164 0.34448 0.04889 0.0
O437 O 0.37007 0.41323 0.11405 0.0
H438 H 0.36277 0.35623 0.16682 0.0
H439 H 0.40437 0.39974 0.14966 0.0
H440 H 0.39566 0.3988 0.1789 0.0
H441 H 0.37474 0.3769 0.18766 0.0
H442 H 0.37167 0.35776 0.13765 0.0
H443 H 0.44512 0.36001 0.15106 0.0
H444 H 0.46522 0.38121 0.13948 0.0
O445 O 0.39602 0.40533 0.12004 0.0
C446 C 0.39748 0.39115 0.08448 0.0
C447 C 0.44649 0.39248 0.12419 0.0
C448 C 0.44087 0.36904 0.14216 0.0
N449 N 0.41859 0.38031 0.12591 0.0
C450 C 0.42958 0.39195 0.11941 0.0
C451 C 0.42405 0.36888 0.13708 0.0
C452 C 0.45215 0.38095 0.13566 0.0
C453 C 0.3469 0.36461 0.08618 0.0
N454 N 0.35519 0.37891 0.0811 0.0
C455 C 0.34189 0.35203 0.0747 0.0
C456 C 0.34543 0.35414 0.05791 0.0
C457 C 0.35392 0.36873 0.05282 0.0
C458 C 0.35876 0.38103 0.06465 0.0
C459 C 0.33094 0.4238 0.06708 0.0
C460 C 0.36312 0.42745 0.08056 0.0
C461 C 0.33758 0.41137 0.07695 0.0
N462 N 0.35352 0.41325 0.08348 0.0
C463 C 0.35689 0.44015 0.07075 0.0
C464 C 0.34069 0.43827 0.06397 0.0
C465 C 0.38494 0.41636 0.1196 0.0
C466 C 0.37189 0.36584 0.16316 0.0
C467 C 0.39513 0.39028 0.15333 0.0
C468 C 0.39031 0.38975 0.16993 0.0
C469 C 0.3786 0.37745 0.17484 0.0
N470 N 0.38845 0.37887 0.14193 0.0
C471 C 0.37701 0.36674 0.14667 0.0
Co472 Co 0.40253 0.11896 0.13983 0.0
Co473 Co 0.3806 0.12955 0.10431 0.0
O474 O 0.38716 0.13296 0.12785 0.0
C475 C 0.37596 0.12722 0.16436 0.0
O476 O 0.36774 0.13573 0.15327 0.0
C477 C 0.39346 0.16468 0.10733 0.0
O478 O 0.40663 0.15848 0.11456 0.0
O479 O 0.40435 0.12913 0.09773 0.0
O480 O 0.41619 0.11658 0.11959 0.0
H481 H 0.38163 0.10265 0.04759 0.0
H482 H 0.39581 0.15276 0.15342 0.0
O483 O 0.38943 0.12036 0.16077 0.0
H484 H 0.45679 0.15316 0.14677 0.0
H485 H 0.43741 0.10157 0.18927 0.0
H486 H 0.41855 0.08751 0.13161 0.0
H487 H 0.43902 0.12807 0.13942 0.0
H488 H 0.41854 0.11972 0.17389 0.0
O489 O 0.38159 0.15476 0.10163 0.0
H490 H 0.38974 0.10651 0.07731 0.0
H491 H 0.35755 0.14672 0.08122 0.0
H492 H 0.43752 0.06909 0.14647 0.0
H493 H 0.4131 0.17795 0.16116 0.0
H494 H 0.44709 0.07608 0.17553 0.0
H495 H 0.44385 0.17833 0.1578 0.0
O496 O 0.3886 0.09888 0.13309 0.0
H497 H 0.33133 0.15331 0.13199 0.0
H498 H 0.35028 0.10721 0.0974 0.0
H499 H 0.3207 0.1073 0.10516 0.0
H500 H 0.31104 0.1305 0.12253 0.0
H501 H 0.36084 0.15259 0.12417 0.0
H502 H 0.34919 0.14339 0.0515 0.0
H503 H 0.36121 0.12117 0.0345 0.0
O504 O 0.37979 0.1042 0.1069 0.0
C505 C 0.41644 0.1219 0.10467 0.0
C506 C 0.37626 0.11233 0.05488 0.0
C507 C 0.35807 0.13522 0.05707 0.0
N508 N 0.37401 0.12673 0.081 0.0
C509 C 0.38077 0.11455 0.07172 0.0
C510 C 0.36287 0.13706 0.07388 0.0
C511 C 0.36482 0.12274 0.04754 0.0
C512 C 0.40916 0.1526 0.15226 0.0
N513 N 0.41634 0.13875 0.14628 0.0
C514 C 0.41891 0.16701 0.15652 0.0
C515 C 0.43615 0.16723 0.15458 0.0
C516 C 0.44341 0.15312 0.14839 0.0
C517 C 0.43326 0.13894 0.14424 0.0
C518 C 0.43337 0.09842 0.1766 0.0
C519 C 0.42276 0.09071 0.14419 0.0
C520 C 0.42267 0.10863 0.16784 0.0
N521 N 0.4176 0.10478 0.15179 0.0
C522 C 0.43346 0.0802 0.15257 0.0
C523 C 0.4388 0.08412 0.16888 0.0
C524 C 0.38224 0.09411 0.11899 0.0
C525 C 0.33539 0.14312 0.12442 0.0
C526 C 0.34623 0.11724 0.10514 0.0
C527 C 0.32944 0.11728 0.10941 0.0
C528 C 0.32402 0.13031 0.11913 0.0
N529 N 0.35733 0.12982 0.11044 0.0
C530 C 0.35209 0.14268 0.1199 0.0
Co531 Co 0.38634 0.8633 0.62957 0.0
Co532 Co 0.37599 0.90409 0.63221 0.0
O533 O 0.3896 0.88674 0.6237 0.0
C534 C 0.42185 0.87215 0.63747 0.0
O535 O 0.41615 0.88455 0.64604 0.0
C536 C 0.36666 0.92123 0.60113 0.0
O537 O 0.35098 0.91836 0.60514 0.0
O538 O 0.35561 0.89147 0.6237 0.0
O539 O 0.36107 0.8648 0.62921 0.0
H540 H 0.32662 0.92634 0.6609 0.0
H541 H 0.4071 0.87289 0.60076 0.0
O542 O 0.41152 0.86167 0.63011 0.0
H543 H 0.3618 0.83482 0.5777 0.0
H544 H 0.39967 0.80275 0.62688 0.0
H545 H 0.36442 0.84403 0.65252 0.0
H546 H 0.36337 0.84178 0.60774 0.0
H547 H 0.40277 0.8325 0.61939 0.0
O548 O 0.37834 0.91567 0.61028 0.0
H549 H 0.34444 0.90447 0.65068 0.0
H550 H 0.37809 0.94137 0.63085 0.0
H551 H 0.3608 0.8144 0.66027 0.0
H552 H 0.40609 0.86616 0.57067 0.0
H553 H 0.37851 0.79354 0.64742 0.0
H554 H 0.3833 0.84701 0.55896 0.0
O555 O 0.38714 0.86904 0.65371 0.0
H556 H 0.4348 0.92851 0.6282 0.0
H557 H 0.38672 0.91996 0.66487 0.0
H558 H 0.41261 0.93453 0.67586 0.0
H559 H 0.43687 0.93892 0.65746 0.0
H560 H 0.40877 0.91379 0.61777 0.0
H561 H 0.3606 0.96363 0.64081 0.0
H562 H 0.33467 0.95616 0.65597 0.0
O563 O 0.37352 0.89282 0.65427 0.0
C564 C 0.35096 0.87616 0.6254 0.0
C565 C 0.33791 0.92975 0.65434 0.0
C566 C 0.35698 0.95068 0.64306 0.0
N567 N 0.36233 0.92164 0.64025 0.0
C568 C 0.34806 0.91743 0.64854 0.0
C569 C 0.36683 0.93803 0.63746 0.0
C570 C 0.34243 0.94648 0.65156 0.0
C571 C 0.39721 0.86446 0.59577 0.0
N572 N 0.38537 0.85766 0.606 0.0
C573 C 0.39668 0.86074 0.57872 0.0
C574 C 0.38388 0.85 0.57216 0.0
C575 C 0.3718 0.84317 0.58266 0.0
C576 C 0.37273 0.84719 0.59965 0.0
C577 C 0.39186 0.81172 0.63254 0.0
C578 C 0.37209 0.835 0.64678 0.0
C579 C 0.39358 0.82857 0.62837 0.0
N580 N 0.38368 0.83994 0.6354 0.0
C581 C 0.37002 0.81825 0.65127 0.0
C582 C 0.37998 0.80656 0.64406 0.0
C583 C 0.37974 0.88034 0.66144 0.0
C584 C 0.42429 0.92674 0.63631 0.0
C585 C 0.39724 0.92175 0.6568 0.0
C586 C 0.41185 0.93006 0.66308 0.0
C587 C 0.42546 0.93254 0.65274 0.0
N588 N 0.39618 0.91609 0.64066 0.0
C589 C 0.40948 0.91849 0.63045 0.0
Co590 Co 0.58473 0.87884 0.13726 0.0
Co591 Co 0.6117 0.8686 0.10674 0.0
O592 O 0.60188 0.86515 0.12854 0.0
C593 C 0.61007 0.87847 0.1648 0.0
O594 O 0.62162 0.88228 0.15395 0.0
C595 C 0.59971 0.83316 0.10737 0.0
O596 O 0.5855 0.8389 0.11203 0.0
O597 O 0.58913 0.86835 0.09556 0.0
O598 O 0.57421 0.88123 0.11466 0.0
H599 H 0.61832 0.89516 0.05065 0.0
H600 H 0.59023 0.84613 0.15291 0.0
O601 O 0.59476 0.87679 0.16014 0.0
H602 H 0.53147 0.84269 0.1326 0.0
H603 H 0.54293 0.89495 0.17954 0.0
H604 H 0.56932 0.90996 0.12651 0.0
H605 H 0.54918 0.86836 0.12882 0.0
H606 H 0.56416 0.87739 0.16772 0.0
O607 O 0.61186 0.84344 0.10394 0.0
H608 H 0.60604 0.8912 0.07832 0.0
H609 H 0.63831 0.85198 0.08861 0.0
H610 H 0.54807 0.92781 0.13781 0.0
H611 H 0.57289 0.82031 0.15718 0.0
H612 H 0.53471 0.92034 0.16452 0.0
H613 H 0.54331 0.81844 0.14692 0.0
O614 O 0.599 0.89925 0.13354 0.0
H615 H 0.65577 0.84746 0.1458 0.0
H616 H 0.64242 0.8911 0.10536 0.0
H617 H 0.67018 0.89208 0.11951 0.0
H618 H 0.67701 0.87013 0.13987 0.0
H619 H 0.62811 0.84704 0.13148 0.0
H620 H 0.65085 0.85539 0.06099 0.0
H621 H 0.6409 0.87716 0.04184 0.0
O622 O 0.61156 0.8939 0.10946 0.0
C623 C 0.57615 0.87561 0.09998 0.0
C624 C 0.6228 0.88566 0.05891 0.0
C625 C 0.64104 0.86333 0.0647 0.0
N626 N 0.62155 0.87147 0.08509 0.0
C627 C 0.61593 0.8834 0.0746 0.0
C628 C 0.63387 0.86142 0.0803 0.0
C629 C 0.63546 0.87555 0.05396 0.0
C630 C 0.5773 0.8455 0.14861 0.0
N631 N 0.57071 0.85877 0.1407 0.0
C632 C 0.56757 0.83081 0.15098 0.0
C633 C 0.55098 0.82976 0.14519 0.0
C634 C 0.54434 0.84335 0.13714 0.0
C635 C 0.55445 0.85784 0.13498 0.0
C636 C 0.54863 0.89832 0.16787 0.0
C637 C 0.56348 0.90656 0.13807 0.0
C638 C 0.56068 0.88844 0.16114 0.0
N639 N 0.56787 0.89257 0.14636 0.0
C640 C 0.5515 0.91675 0.14444 0.0
C641 C 0.54402 0.91256 0.15943 0.0
C642 C 0.6073 0.90401 0.12093 0.0
C643 C 0.65296 0.85706 0.13691 0.0
C644 C 0.64528 0.88153 0.11424 0.0
C645 C 0.66103 0.88213 0.12219 0.0
C646 C 0.66486 0.8698 0.1336 0.0
N647 N 0.63368 0.86898 0.11754 0.0
C648 C 0.63734 0.85685 0.12871 0.0
Co649 Co 0.62564 0.13364 0.63426 0.0
Co650 Co 0.6324 0.09188 0.63885 0.0
O651 O 0.62063 0.11009 0.62899 0.0
C652 C 0.5901 0.12737 0.64173 0.0
O653 O 0.59541 0.11507 0.65079 0.0
C654 C 0.64198 0.07341 0.60896 0.0
O655 O 0.65744 0.0754 0.61479 0.0
O656 O 0.65402 0.10276 0.63235 0.0
O657 O 0.65061 0.13041 0.63441 0.0
H658 H 0.67831 0.06662 0.67254 0.0
H659 H 0.60315 0.12398 0.60539 0.0
O660 O 0.6007 0.13691 0.63425 0.0
H661 H 0.64989 0.15776 0.58191 0.0
H662 H 0.6162 0.19492 0.62924 0.0
H663 H 0.64965 0.15269 0.6569 0.0
H664 H 0.64907 0.15244 0.61213 0.0
H665 H 0.61089 0.16498 0.62272 0.0
O666 O 0.6302 0.07985 0.61677 0.0
H667 H 0.66281 0.08958 0.6604 0.0
H668 H 0.62749 0.05468 0.6375 0.0
H669 H 0.65549 0.18251 0.66371 0.0
H670 H 0.60339 0.12911 0.57512 0.0
H671 H 0.63869 0.20385 0.64983 0.0
H672 H 0.6269 0.1461 0.56319 0.0
O673 O 0.62549 0.12936 0.65864 0.0
H674 H 0.5723 0.07222 0.62914 0.0
H675 H 0.61909 0.07751 0.6704 0.0
H676 H 0.59176 0.06531 0.67886 0.0
H677 H 0.56814 0.06258 0.65815 0.0
H678 H 0.59979 0.08451 0.62125 0.0
H679 H 0.64262 0.03134 0.64935 0.0
H680 H 0.66822 0.03725 0.66703 0.0
O681 O 0.63466 0.1035 0.661 0.0
C682 C 0.65974 0.11789 0.63252 0.0
C683 C 0.66715 0.06388 0.66489 0.0
C684 C 0.64712 0.04408 0.65188 0.0
N685 N 0.64421 0.07349 0.64834 0.0
C686 C 0.65831 0.07684 0.658 0.0
C687 C 0.6386 0.05735 0.64521 0.0
C688 C 0.66149 0.04741 0.66179 0.0
C689 C 0.61337 0.13147 0.60031 0.0
N690 N 0.62603 0.13798 0.61052 0.0
C691 C 0.61346 0.13429 0.58315 0.0
C692 C 0.62666 0.14381 0.57646 0.0
C693 C 0.63957 0.15035 0.58696 0.0
C694 C 0.63906 0.14726 0.60405 0.0
C695 C 0.62363 0.18574 0.63535 0.0
C696 C 0.64238 0.16192 0.65073 0.0
C697 C 0.62066 0.16878 0.63172 0.0
N698 N 0.63006 0.15714 0.63932 0.0
C699 C 0.6457 0.17878 0.65467 0.0
C700 C 0.63626 0.19074 0.64689 0.0
C701 C 0.63068 0.11734 0.6673 0.0
C702 C 0.58252 0.07327 0.63826 0.0
C703 C 0.60887 0.0764 0.66131 0.0
C704 C 0.59343 0.06945 0.66617 0.0
C705 C 0.58018 0.0679 0.65454 0.0
N706 N 0.61108 0.08162 0.6453 0.0
C707 C 0.59814 0.08014 0.63384 0.0
Co708 Co 0.41347 0.88071 0.86392 0.0
Co709 Co 0.37377 0.88953 0.87463 0.0
O710 O 0.39792 0.89396 0.87581 0.0
C711 C 0.42829 0.88111 0.89837 0.0
O712 O 0.41423 0.8744 0.90391 0.0
C713 C 0.37914 0.92488 0.86559 0.0
O714 O 0.38962 0.91927 0.85484 0.0
O715 O 0.37372 0.88962 0.84985 0.0
O716 O 0.39746 0.87705 0.8445 0.0
H717 H 0.31985 0.86078 0.85397 0.0
H718 H 0.42486 0.91433 0.87666 0.0
O719 O 0.4299 0.88419 0.88293 0.0
H720 H 0.43204 0.91646 0.81583 0.0
H721 H 0.47062 0.86673 0.84512 0.0
H722 H 0.4107 0.84906 0.84443 0.0
H723 H 0.42135 0.89057 0.82907 0.0
H724 H 0.45032 0.88369 0.85928 0.0
O725 O 0.371 0.91454 0.87477 0.0
H726 H 0.35049 0.86597 0.85569 0.0
H727 H 0.34535 0.90501 0.89096 0.0
H728 H 0.43055 0.83178 0.83002 0.0
H729 H 0.4358 0.94041 0.86395 0.0
H730 H 0.46075 0.8406 0.83031 0.0
H731 H 0.43937 0.94161 0.83331 0.0
O732 O 0.40399 0.86015 0.87426 0.0
H733 H 0.38988 0.91152 0.93197 0.0
H734 H 0.35883 0.86666 0.89994 0.0
H735 H 0.35941 0.86588 0.93069 0.0
H736 H 0.375 0.88845 0.94691 0.0
H737 H 0.38906 0.91174 0.9012 0.0
H738 H 0.31464 0.90035 0.88953 0.0
H739 H 0.30171 0.87805 0.87098 0.0
O740 O 0.3764 0.86441 0.87434 0.0
C741 C 0.38339 0.8825 0.84 0.0
C742 C 0.32533 0.87049 0.86215 0.0
C743 C 0.32241 0.89272 0.88209 0.0
N744 N 0.34968 0.88567 0.87353 0.0
C745 C 0.34267 0.87345 0.86321 0.0
C746 C 0.3398 0.89532 0.88282 0.0
C747 C 0.31516 0.8802 0.87168 0.0
C748 C 0.42659 0.91468 0.86335 0.0
N749 N 0.42253 0.90091 0.85364 0.0
C750 C 0.43271 0.92951 0.85621 0.0
C751 C 0.43468 0.93019 0.83901 0.0
C752 C 0.43055 0.91609 0.8292 0.0
C753 C 0.42446 0.90147 0.83677 0.0
C754 C 0.45748 0.86278 0.84488 0.0
C755 C 0.42381 0.85303 0.84453 0.0
C756 C 0.44593 0.87232 0.85289 0.0
N757 N 0.42932 0.86744 0.85256 0.0
C758 C 0.43499 0.84318 0.83638 0.0
C759 C 0.45194 0.84812 0.83656 0.0
C760 C 0.38879 0.8549 0.8756 0.0
C761 C 0.383 0.90165 0.92504 0.0
C762 C 0.36567 0.87651 0.90692 0.0
C763 C 0.36593 0.87602 0.92432 0.0
C764 C 0.37467 0.88869 0.93342 0.0
N765 N 0.37382 0.88929 0.8988 0.0
C766 C 0.38245 0.90174 0.90762 0.0
Co767 Co 0.62994 0.88984 0.39747 0.0
Co768 Co 0.61953 0.9186 0.36791 0.0
O769 O 0.63322 0.90099 0.37619 0.0
C770 C 0.66508 0.90276 0.39782 0.0
O771 O 0.65884 0.91698 0.3936 0.0
C772 C 0.61963 0.89415 0.34023 0.0
O773 O 0.61627 0.88242 0.35114 0.0
O774 O 0.599 0.90446 0.37133 0.0
O775 O 0.60459 0.88961 0.39432 0.0
H776 H 0.571 0.95585 0.36847 0.0
H777 H 0.65203 0.87541 0.37259 0.0
O778 O 0.65519 0.89014 0.40068 0.0
H779 H 0.60759 0.83188 0.38184 0.0
H780 H 0.64405 0.8484 0.44173 0.0
H781 H 0.60712 0.89325 0.42567 0.0
H782 H 0.60798 0.8587 0.39713 0.0
H783 H 0.64721 0.86264 0.41476 0.0
O784 O 0.62102 0.90939 0.34482 0.0
H785 H 0.58885 0.93398 0.37921 0.0
H786 H 0.62056 0.94025 0.33788 0.0
H787 H 0.6034 0.87925 0.45269 0.0
H788 H 0.6522 0.84871 0.35715 0.0
H789 H 0.62196 0.85665 0.46087 0.0
H790 H 0.62984 0.82674 0.3617 0.0
O791 O 0.62974 0.9116 0.40955 0.0
H792 H 0.67793 0.93059 0.34816 0.0
H793 H 0.6306 0.95362 0.37718 0.0
H794 H 0.65648 0.97113 0.37385 0.0
H795 H 0.68036 0.95964 0.3592 0.0
H796 H 0.65193 0.9134 0.35203 0.0
H797 H 0.603 0.96212 0.32663 0.0
H798 H 0.57804 0.97009 0.342 0.0
O799 O 0.61776 0.92823 0.39075 0.0
C800 C 0.59439 0.89491 0.38317 0.0
C801 C 0.58187 0.95253 0.36169 0.0
C802 C 0.59982 0.95603 0.3382 0.0
N803 N 0.6058 0.93594 0.35926 0.0
C804 C 0.59205 0.94019 0.36774 0.0
C805 C 0.6097 0.94362 0.34461 0.0
C806 C 0.58582 0.9605 0.34683 0.0
C807 C 0.64235 0.86584 0.37478 0.0
N808 N 0.63005 0.86858 0.38581 0.0
C809 C 0.64248 0.85078 0.36594 0.0
C810 C 0.6299 0.83847 0.36847 0.0
C811 C 0.61741 0.84135 0.37976 0.0
C812 C 0.61767 0.85657 0.38835 0.0
C813 C 0.63586 0.85821 0.4383 0.0
C814 C 0.61516 0.88335 0.42911 0.0
C815 C 0.63762 0.86634 0.42306 0.0
N816 N 0.62727 0.87866 0.41862 0.0
C817 C 0.61304 0.8755 0.44444 0.0
C818 C 0.62346 0.86284 0.44902 0.0
C819 C 0.62304 0.92507 0.40544 0.0
C820 C 0.66758 0.93576 0.35449 0.0
C821 C 0.64096 0.94849 0.37086 0.0
C822 C 0.65557 0.95849 0.36897 0.0
C823 C 0.66895 0.95205 0.36073 0.0
N824 N 0.63971 0.93252 0.36473 0.0
C825 C 0.65279 0.92611 0.35665 0.0
Co826 Co 0.60595 0.13272 0.87412 0.0
Co827 Co 0.64683 0.12235 0.87986 0.0
O828 O 0.62302 0.11948 0.88442 0.0
C829 C 0.58853 0.14409 0.90387 0.0
O830 O 0.59248 0.15942 0.89923 0.0
C831 C 0.63776 0.08684 0.87259 0.0
O832 O 0.6256 0.09254 0.86332 0.0
O833 O 0.6422 0.12138 0.8554 0.0
O834 O 0.61775 0.13366 0.85244 0.0
H835 H 0.69747 0.14689 0.8515 0.0
H836 H 0.59572 0.10099 0.89058 0.0
O837 O 0.59369 0.1318 0.89563 0.0
H838 H 0.57593 0.09408 0.83208 0.0
H839 H 0.54671 0.14822 0.86181 0.0
H840 H 0.60638 0.16294 0.85314 0.0
H841 H 0.59053 0.12036 0.84169 0.0
H842 H 0.56857 0.13119 0.87411 0.0
O843 O 0.64815 0.09715 0.88012 0.0
H844 H 0.66743 0.14377 0.85754 0.0
H845 H 0.67698 0.10564 0.8924 0.0
H846 H 0.58493 0.18028 0.84054 0.0
H847 H 0.58097 0.07459 0.88153 0.0
H848 H 0.55485 0.17295 0.84486 0.0
H849 H 0.57103 0.07098 0.85207 0.0
O850 O 0.61861 0.15343 0.88161 0.0
H851 H 0.64115 0.10313 0.939 0.0
H852 H 0.66775 0.14517 0.90235 0.0
H853 H 0.67344 0.14689 0.93271 0.0
H854 H 0.66014 0.12572 0.95124 0.0
H855 H 0.63569 0.10198 0.90858 0.0
H856 H 0.70712 0.10825 0.88664 0.0
H857 H 0.71754 0.12905 0.8661 0.0
O858 O 0.64569 0.1476 0.87947 0.0
C859 C 0.63082 0.12773 0.84645 0.0
C860 C 0.69309 0.13783 0.86052 0.0
C861 C 0.69851 0.11612 0.88023 0.0
N862 N 0.6705 0.12465 0.87542 0.0
C863 C 0.67611 0.13604 0.86403 0.0
C864 C 0.68143 0.11468 0.88341 0.0
C865 C 0.70434 0.1278 0.8687 0.0
C866 C 0.59123 0.09961 0.8778 0.0
N867 N 0.5939 0.11225 0.86672 0.0
C868 C 0.58297 0.08459 0.87272 0.0
C869 C 0.57743 0.08256 0.85618 0.0
C870 C 0.58019 0.09551 0.84495 0.0
C871 C 0.58851 0.11035 0.85047 0.0
C872 C 0.55977 0.15152 0.85981 0.0
C873 C 0.59331 0.15963 0.85501 0.0
C874 C 0.5722 0.14193 0.86674 0.0
N875 N 0.58873 0.14602 0.86427 0.0
C876 C 0.58122 0.16951 0.84787 0.0
C877 C 0.56435 0.1654 0.8503 0.0
C878 C 0.63412 0.15785 0.88155 0.0
C879 C 0.64705 0.1124 0.93104 0.0
C880 C 0.66185 0.13596 0.91035 0.0
C881 C 0.66516 0.13697 0.92752 0.0
C882 C 0.65769 0.12509 0.93791 0.0
N883 N 0.65146 0.12344 0.9037 0.0
C884 C 0.64405 0.11178 0.91381 0.0
Co885 Co 0.37399 0.12327 0.40205 0.0
Co886 Co 0.38455 0.10081 0.36742 0.0
O887 O 0.37055 0.11634 0.37867 0.0
C888 C 0.33894 0.11015 0.39885 0.0
O889 O 0.34522 0.09711 0.39186 0.0
C890 C 0.37661 0.12721 0.34205 0.0
O891 O 0.36829 0.13565 0.35282 0.0
O892 O 0.40472 0.11466 0.37418 0.0
O893 O 0.39933 0.12421 0.39983 0.0
H894 H 0.43434 0.06555 0.36289 0.0
H895 H 0.35061 0.14248 0.38124 0.0
O896 O 0.34878 0.1221 0.40444 0.0
H897 H 0.39581 0.18312 0.39951 0.0
H898 H 0.36011 0.1553 0.45362 0.0
H899 H 0.39726 0.11473 0.42971 0.0
H900 H 0.39619 0.15376 0.40823 0.0
H901 H 0.3567 0.14649 0.42412 0.0
O902 O 0.38327 0.11368 0.34608 0.0
H903 H 0.41592 0.08471 0.37682 0.0
H904 H 0.38383 0.08453 0.33378 0.0
H905 H 0.4012 0.1233 0.45922 0.0
H906 H 0.34959 0.17178 0.37245 0.0
H907 H 0.38254 0.14373 0.47135 0.0
H908 H 0.37236 0.19232 0.38152 0.0
O909 O 0.37459 0.09973 0.40945 0.0
H910 H 0.32556 0.09039 0.34481 0.0
H911 H 0.37517 0.06447 0.36872 0.0
H912 H 0.34998 0.04682 0.36119 0.0
H913 H 0.32495 0.05975 0.34906 0.0
H914 H 0.35084 0.10758 0.35277 0.0
H915 H 0.40198 0.06547 0.31934 0.0
H916 H 0.42741 0.0558 0.33394 0.0
O917 O 0.38679 0.08736 0.38812 0.0
C918 C 0.40944 0.12144 0.38807 0.0
C919 C 0.42325 0.06961 0.35642 0.0
C920 C 0.40511 0.06959 0.33197 0.0
N921 N 0.39871 0.08559 0.3562 0.0
C922 C 0.41274 0.08041 0.36427 0.0
C923 C 0.39489 0.0804 0.34021 0.0
C924 C 0.41937 0.06416 0.34017 0.0
C925 C 0.3605 0.15135 0.38535 0.0
N926 N 0.3735 0.14637 0.39514 0.0
C927 C 0.35989 0.16793 0.38028 0.0
C928 C 0.37267 0.17944 0.38535 0.0
C929 C 0.38585 0.17428 0.39542 0.0
C930 C 0.38605 0.1576 0.40023 0.0
C931 C 0.36834 0.14642 0.44846 0.0
C932 C 0.38916 0.12371 0.43488 0.0
C933 C 0.36645 0.14136 0.43179 0.0
N934 N 0.37686 0.13022 0.42519 0.0
C935 C 0.39142 0.12848 0.45161 0.0
C936 C 0.38093 0.13993 0.45841 0.0
C937 C 0.3816 0.08745 0.403 0.0
C938 C 0.33644 0.08458 0.34993 0.0
C939 C 0.36435 0.07023 0.36345 0.0
C940 C 0.35012 0.06015 0.35919 0.0
C941 C 0.33608 0.0674 0.35237 0.0
N942 N 0.36467 0.08708 0.36091 0.0
C943 C 0.3509 0.09427 0.35433 0.0
Co944 Co 0.12974 0.42099 0.11475 0.0
Co945 Co 0.09914 0.39231 0.12621 0.0
O946 O 0.12105 0.40381 0.12958 0.0
C947 C 0.15732 0.39801 0.1183 0.0
O948 O 0.14624 0.3855 0.11608 0.0
C949 C 0.09953 0.40538 0.16078 0.0
O950 O 0.10357 0.41988 0.15414 0.0
O951 O 0.08804 0.41391 0.12463 0.0
O952 O 0.10702 0.42956 0.11079 0.0
H953 H 0.04249 0.38093 0.09883 0.0
H954 H 0.14524 0.41801 0.14848 0.0
O955 O 0.15276 0.41297 0.11823 0.0
H956 H 0.12476 0.47489 0.14643 0.0
H957 H 0.17183 0.46549 0.09653 0.0
H958 H 0.11886 0.43402 0.08194 0.0
H959 H 0.12134 0.45612 0.12194 0.0
H960 H 0.16015 0.4441 0.11548 0.0
O961 O 0.09665 0.3926 0.1513 0.0
H962 H 0.07034 0.39531 0.10259 0.0
H963 H 0.08106 0.36487 0.14418 0.0
H964 H 0.13001 0.45539 0.06269 0.0
H965 H 0.14907 0.43643 0.17322 0.0
H966 H 0.15668 0.4713 0.06995 0.0
H967 H 0.13872 0.46507 0.1723 0.0
O968 O 0.12606 0.40562 0.09546 0.0
H969 H 0.13805 0.35173 0.15156 0.0
H970 H 0.09753 0.36112 0.10565 0.0
H971 H 0.11153 0.33448 0.10697 0.0
H972 H 0.13193 0.32964 0.13007 0.0
H973 H 0.12391 0.37826 0.14967 0.0
H974 H 0.05327 0.35025 0.14097 0.0
H975 H 0.0338 0.35823 0.11811 0.0
O976 O 0.10156 0.39205 0.10096 0.0
C977 C 0.09239 0.42684 0.1164 0.0
C978 C 0.05089 0.3773 0.1088 0.0
C979 C 0.05692 0.3601 0.13247 0.0
N980 N 0.07735 0.38081 0.12349 0.0
C981 C 0.06669 0.38536 0.11095 0.0
C982 C 0.07263 0.36843 0.13424 0.0
C983 C 0.04601 0.36458 0.11963 0.0
C984 C 0.1409 0.43053 0.14793 0.0
N985 N 0.13316 0.436 0.13376 0.0
C986 C 0.14302 0.44087 0.16199 0.0
C987 C 0.13718 0.45693 0.16148 0.0
C988 C 0.12934 0.46244 0.14698 0.0
C989 C 0.12741 0.45174 0.13316 0.0
C990 C 0.16017 0.45867 0.09324 0.0
C991 C 0.13042 0.44097 0.08524 0.0
C992 C 0.15352 0.44652 0.10391 0.0
N993 N 0.13876 0.43793 0.09989 0.0
C994 C 0.1367 0.45302 0.07426 0.0
C995 C 0.15167 0.46192 0.07833 0.0
C996 C 0.11323 0.39644 0.09097 0.0
C997 C 0.12915 0.35367 0.14147 0.0
C998 C 0.10645 0.35914 0.1157 0.0
C999 C 0.1143 0.34401 0.11641 0.0
C1000 C 0.12573 0.34129 0.12939 0.0
N1001 N 0.10986 0.37122 0.1276 0.0
C1002 C 0.12104 0.36864 0.14037 0.0
Co1003 Co 0.14128 0.59666 0.86382 0.0
Co1004 Co 0.13331 0.63752 0.872 0.0
O1005 O 0.13003 0.61368 0.87582 0.0
C1006 C 0.1056 0.5846 0.85917 0.0
O1007 O 0.10235 0.5983 0.85115 0.0
C1008 C 0.1411 0.63276 0.90768 0.0
O1009 O 0.15124 0.62172 0.90226 0.0
O1010 O 0.15805 0.63632 0.87346 0.0
O1011 O 0.1625 0.61088 0.86311 0.0
H1012 H 0.15879 0.68915 0.84581 0.0
H1013 H 0.12459 0.58822 0.89547 0.0
O1014 O 0.12034 0.58205 0.86458 0.0
H1015 H 0.18364 0.57542 0.90489 0.0
H1016 H 0.15484 0.53742 0.85097 0.0
H1017 H 0.16361 0.59635 0.83492 0.0
H1018 H 0.17396 0.58609 0.87776 0.0
H1019 H 0.14157 0.55964 0.8665 0.0
O1020 O 0.13283 0.64117 0.89711 0.0
H1021 H 0.15452 0.65883 0.85012 0.0
H1022 H 0.11898 0.66737 0.8872 0.0
H1023 H 0.17722 0.57455 0.81913 0.0
H1024 H 0.1337 0.57739 0.92273 0.0
H1025 H 0.17286 0.54484 0.82714 0.0
H1026 H 0.16344 0.57099 0.9276 0.0
O1027 O 0.13393 0.60605 0.84223 0.0
H1028 H 0.07436 0.62545 0.89013 0.0
H1029 H 0.10978 0.65288 0.84796 0.0
H1030 H 0.07909 0.65397 0.8453 0.0
H1031 H 0.06117 0.64021 0.8665 0.0
H1032 H 0.10509 0.62457 0.89225 0.0
H1033 H 0.12296 0.6978 0.88341 0.0
H1034 H 0.14294 0.70885 0.86254 0.0
O1035 O 0.13397 0.63381 0.84689 0.0
C1036 C 0.1677 0.62539 0.86818 0.0
C1037 C 0.15001 0.68448 0.8549 0.0
C1038 C 0.12991 0.68934 0.87602 0.0
N1039 N 0.1364 0.66137 0.86878 0.0
C1040 C 0.14749 0.66734 0.85735 0.0
C1041 C 0.12773 0.67211 0.87814 0.0
C1042 C 0.14112 0.69553 0.8643 0.0
C1043 C 0.1375 0.58524 0.89741 0.0
N1044 N 0.14869 0.58767 0.88499 0.0
C1045 C 0.14261 0.5792 0.91291 0.0
C1046 C 0.1593 0.57564 0.91564 0.0
C1047 C 0.17065 0.57814 0.90291 0.0
C1048 C 0.16509 0.58422 0.88758 0.0
C1049 C 0.15687 0.55033 0.84739 0.0
C1050 C 0.16176 0.58346 0.83855 0.0
C1051 C 0.14937 0.56296 0.85612 0.0
N1052 N 0.15196 0.57929 0.85172 0.0
C1053 C 0.16945 0.57117 0.82953 0.0
C1054 C 0.16698 0.5545 0.83402 0.0
C1055 C 0.13314 0.62102 0.83711 0.0
C1056 C 0.08204 0.63154 0.88084 0.0
C1057 C 0.10206 0.64684 0.85722 0.0
C1058 C 0.0847 0.64752 0.85566 0.0
C1059 C 0.07465 0.63981 0.86757 0.0
N1060 N 0.10921 0.63877 0.87031 0.0
C1061 C 0.09945 0.63113 0.88201 0.0
Co1062 Co 0.91916 0.63834 0.37032 0.0
Co1063 Co 0.87875 0.62851 0.3813 0.0
O1064 O 0.90287 0.6267 0.38419 0.0
C1065 C 0.9398 0.61038 0.3607 0.0
O1066 O 0.9356 0.61327 0.3451 0.0
C1067 C 0.88635 0.63713 0.41665 0.0
O1068 O 0.89779 0.64767 0.41082 0.0
O1069 O 0.88133 0.65326 0.38177 0.0
O1070 O 0.90523 0.65828 0.36828 0.0
H1071 H 0.82624 0.65077 0.35641 0.0
H1072 H 0.93037 0.62493 0.40287 0.0
O1073 O 0.93356 0.61871 0.3724 0.0
H1074 H 0.94425 0.68546 0.40631 0.0
H1075 H 0.97741 0.65693 0.35371 0.0
H1076 H 0.91726 0.65757 0.33901 0.0
H1077 H 0.93109 0.67287 0.38075 0.0
H1078 H 0.95646 0.64297 0.37157 0.0
O1079 O 0.87689 0.6284 0.40647 0.0
H1080 H 0.85672 0.64812 0.35957 0.0
H1081 H 0.84932 0.61295 0.39829 0.0
H1082 H 0.93779 0.67175 0.32083 0.0
H1083 H 0.94376 0.63698 0.42858 0.0
H1084 H 0.96811 0.67147 0.32815 0.0
H1085 H 0.95072 0.66747 0.43044 0.0
O1086 O 0.90768 0.62839 0.35013 0.0
H1087 H 0.88917 0.57077 0.40155 0.0
H1088 H 0.86024 0.6036 0.35898 0.0
H1089 H 0.85723 0.57286 0.35785 0.0
H1090 H 0.87171 0.55624 0.37928 0.0
H1091 H 0.89196 0.60153 0.40212 0.0
H1092 H 0.81876 0.61532 0.39566 0.0
H1093 H 0.80704 0.63429 0.37455 0.0
O1094 O 0.88038 0.62868 0.35605 0.0
C1095 C 0.8918 0.66309 0.37456 0.0
C1096 C 0.83119 0.64242 0.36561 0.0
C1097 C 0.82699 0.62254 0.38766 0.0
N1098 N 0.85476 0.63028 0.37898 0.0
C1099 C 0.84843 0.64082 0.36742 0.0
C1100 C 0.8443 0.62127 0.38911 0.0
C1101 C 0.82042 0.63318 0.37581 0.0
C1102 C 0.93357 0.63817 0.40349 0.0
N1103 N 0.93003 0.64815 0.39027 0.0
C1104 C 0.94107 0.64494 0.41812 0.0
C1105 C 0.94494 0.66205 0.41917 0.0
C1106 C 0.94129 0.67215 0.40564 0.0
C1107 C 0.93378 0.66496 0.39122 0.0
C1108 C 0.96424 0.65716 0.35041 0.0
C1109 C 0.93043 0.65745 0.34231 0.0
C1110 C 0.95231 0.64928 0.36047 0.0
N1111 N 0.93564 0.64952 0.35637 0.0
C1112 C 0.942 0.66548 0.33196 0.0
C1113 C 0.95901 0.66531 0.33606 0.0
C1114 C 0.89224 0.62718 0.34579 0.0
C1115 C 0.88276 0.57788 0.39217 0.0
C1116 C 0.86664 0.59645 0.36831 0.0
C1117 C 0.86485 0.57905 0.36763 0.0
C1118 C 0.87298 0.56973 0.37966 0.0
N1119 N 0.8762 0.60435 0.38066 0.0
C1120 C 0.88425 0.5953 0.39246 0.0
Co1121 Co 0.8864 0.41336 0.88327 0.0
Co1122 Co 0.89096 0.37239 0.89399 0.0
O1123 O 0.89599 0.39626 0.89695 0.0
C1124 C 0.91701 0.43234 0.87314 0.0
O1125 O 0.9118 0.42972 0.85763 0.0
C1126 C 0.88234 0.38006 0.92864 0.0
O1127 O 0.87352 0.39167 0.92184 0.0
O1128 O 0.86653 0.37555 0.89304 0.0
O1129 O 0.86417 0.40075 0.88149 0.0
H1130 H 0.86236 0.32098 0.86797 0.0
H1131 H 0.90316 0.42295 0.91563 0.0
O1132 O 0.90853 0.42621 0.88505 0.0
H1133 H 0.84518 0.44005 0.92016 0.0
H1134 H 0.87655 0.47272 0.86719 0.0
H1135 H 0.86544 0.41336 0.85227 0.0
H1136 H 0.85443 0.42701 0.89429 0.0
H1137 H 0.88793 0.45064 0.88472 0.0
O1138 O 0.89021 0.37036 0.91922 0.0
H1139 H 0.86898 0.35123 0.87117 0.0
H1140 H 0.90217 0.34248 0.91197 0.0
H1141 H 0.85376 0.43502 0.83441 0.0
H1142 H 0.89447 0.43611 0.94167 0.0
H1143 H 0.85931 0.46495 0.84184 0.0
H1144 H 0.86526 0.4447 0.94408 0.0
O1145 O 0.89351 0.40187 0.86288 0.0
H1146 H 0.94963 0.38071 0.91748 0.0
H1147 H 0.91388 0.35361 0.87304 0.0
H1148 H 0.94424 0.3497 0.87359 0.0
H1149 H 0.96233 0.36326 0.89597 0.0
H1150 H 0.91923 0.3844 0.91636 0.0
H1151 H 0.89582 0.31213 0.9093 0.0
H1152 H 0.87583 0.30121 0.88713 0.0
O1153 O 0.89147 0.37441 0.86875 0.0
C1154 C 0.85786 0.38686 0.88662 0.0
C1155 C 0.87114 0.32558 0.87764 0.0
C1156 C 0.8899 0.32062 0.90085 0.0
N1157 N 0.88606 0.34857 0.89163 0.0
C1158 C 0.87498 0.34269 0.87947 0.0
C1159 C 0.89343 0.3378 0.90232 0.0
C1160 C 0.87869 0.3145 0.88841 0.0
C1161 C 0.89049 0.42685 0.91649 0.0
N1162 N 0.87936 0.4243 0.9034 0.0
C1163 C 0.88562 0.43422 0.9313 0.0
C1164 C 0.86922 0.439 0.93266 0.0
C1165 C 0.85794 0.43638 0.91926 0.0
C1166 C 0.86325 0.42895 0.90464 0.0
C1167 C 0.87402 0.45972 0.86384 0.0
C1168 C 0.86785 0.42635 0.85561 0.0
C1169 C 0.88042 0.44717 0.87372 0.0
N1170 N 0.87727 0.43073 0.86956 0.0
C1171 C 0.86123 0.43856 0.84544 0.0
C1172 C 0.86435 0.45535 0.84961 0.0
C1173 C 0.89354 0.38655 0.85857 0.0
C1174 C 0.94188 0.3747 0.90769 0.0
C1175 C 0.92168 0.35961 0.88277 0.0
C1176 C 0.93886 0.35731 0.88304 0.0
C1177 C 0.949 0.36492 0.89561 0.0
N1178 N 0.91479 0.36915 0.89471 0.0
C1179 C 0.92465 0.37671 0.90703 0.0
Co1180 Co 0.07445 0.3695 0.38499 0.0
Co1181 Co 0.10633 0.39845 0.3763 0.0
O1182 O 0.09372 0.37726 0.37248 0.0
C1183 C 0.09772 0.34221 0.38731 0.0
O1184 O 0.10966 0.35359 0.39096 0.0
C1185 C 0.09428 0.39893 0.34125 0.0
O1186 O 0.07957 0.39514 0.3474 0.0
O1187 O 0.08553 0.41106 0.37682 0.0
O1188 O 0.06577 0.39228 0.38534 0.0
H1189 H 0.12063 0.45382 0.40423 0.0
H1190 H 0.08231 0.35216 0.35356 0.0
O1191 O 0.08276 0.34644 0.38481 0.0
H1192 H 0.02583 0.37263 0.34422 0.0
H1193 H 0.02731 0.32856 0.39913 0.0
H1194 H 0.05648 0.38253 0.41379 0.0
H1195 H 0.04077 0.37731 0.37126 0.0
H1196 H 0.05151 0.33904 0.38315 0.0
O1197 O 0.10698 0.40131 0.35118 0.0
H1198 H 0.10455 0.42702 0.3998 0.0
H1199 H 0.13538 0.41502 0.3596 0.0
H1200 H 0.03227 0.37258 0.43003 0.0
H1201 H 0.06775 0.34709 0.32637 0.0
H1202 H 0.01751 0.34541 0.42272 0.0
H1203 H 0.03933 0.35742 0.32154 0.0
O1204 O 0.08675 0.37443 0.4064 0.0
H1205 H 0.14493 0.357 0.35336 0.0
H1206 H 0.1368 0.39778 0.39837 0.0
H1207 H 0.16239 0.38193 0.39857 0.0
H1208 H 0.16658 0.36137 0.37594 0.0
H1209 H 0.11947 0.37301 0.35371 0.0
H1210 H 0.15171 0.44176 0.36349 0.0
H1211 H 0.14439 0.46134 0.38599 0.0
O1212 O 0.10547 0.39562 0.40141 0.0
C1213 C 0.07082 0.40703 0.38156 0.0
C1214 C 0.12397 0.44538 0.39442 0.0
C1215 C 0.1414 0.43862 0.37154 0.0
N1216 N 0.11913 0.41943 0.37955 0.0
C1217 C 0.11495 0.43016 0.39189 0.0
C1218 C 0.13209 0.42352 0.36937 0.0
C1219 C 0.13729 0.44959 0.38417 0.0
C1220 C 0.06986 0.3565 0.35163 0.0
N1221 N 0.06236 0.36492 0.36403 0.0
C1222 C 0.06171 0.35367 0.33618 0.0
C1223 C 0.04578 0.3595 0.33347 0.0
C1224 C 0.0382 0.36804 0.34618 0.0
C1225 C 0.04673 0.37066 0.36147 0.0
C1226 C 0.03362 0.34043 0.40241 0.0
C1227 C 0.05006 0.37074 0.41048 0.0
C1228 C 0.04735 0.34641 0.39344 0.0
N1229 N 0.05532 0.36143 0.39747 0.0
C1230 C 0.03639 0.36515 0.41974 0.0
C1231 C 0.02813 0.34989 0.41565 0.0
C1232 C 0.09774 0.38561 0.41135 0.0
C1233 C 0.14327 0.36596 0.36326 0.0
C1234 C 0.13852 0.38884 0.3885 0.0
C1235 C 0.15305 0.37992 0.38866 0.0
C1236 C 0.1554 0.3684 0.37595 0.0
N1237 N 0.12669 0.38638 0.376 0.0
C1238 C 0.12892 0.37512 0.36349 0.0
Co1239 Co 0.87705 0.58849 0.14034 0.0
Co1240 Co 0.88061 0.63037 0.13105 0.0
O1241 O 0.88659 0.60727 0.12805 0.0
C1242 C 0.90727 0.57303 0.15347 0.0
O1243 O 0.90111 0.575 0.16832 0.0
C1244 C 0.87359 0.6224 0.09551 0.0
O1245 O 0.86492 0.60941 0.10112 0.0
O1246 O 0.85626 0.62395 0.1299 0.0
O1247 O 0.85445 0.59793 0.13997 0.0
H1248 H 0.84972 0.67718 0.15574 0.0
H1249 H 0.89576 0.58223 0.10969 0.0
O1250 O 0.89959 0.57858 0.14071 0.0
H1251 H 0.83912 0.55685 0.0986 0.0
H1252 H 0.86829 0.5275 0.15408 0.0
H1253 H 0.85469 0.58488 0.16906 0.0
H1254 H 0.84642 0.57052 0.12564 0.0
H1255 H 0.87978 0.55148 0.13824 0.0
O1256 O 0.88058 0.63293 0.10588 0.0
H1257 H 0.85736 0.64797 0.15242 0.0
H1258 H 0.89132 0.66218 0.1147 0.0
H1259 H 0.84288 0.56126 0.1852 0.0
H1260 H 0.88906 0.56849 0.08256 0.0
H1261 H 0.84968 0.53232 0.17774 0.0
H1262 H 0.86054 0.55574 0.07684 0.0
O1263 O 0.88264 0.6005 0.16169 0.0
H1264 H 0.94005 0.63055 0.1124 0.0
H1265 H 0.90224 0.65172 0.15428 0.0
H1266 H 0.93238 0.65974 0.15637 0.0
H1267 H 0.9515 0.64917 0.13529 0.0
H1268 H 0.90985 0.62272 0.11087 0.0
H1269 H 0.88396 0.69154 0.11751 0.0
H1270 H 0.86306 0.6992 0.1382 0.0
O1271 O 0.88053 0.62783 0.15619 0.0
C1272 C 0.84781 0.61117 0.13498 0.0
C1273 C 0.85889 0.67401 0.14673 0.0
C1274 C 0.87809 0.68207 0.12525 0.0
N1275 N 0.87488 0.65342 0.13349 0.0
C1276 C 0.8633 0.6575 0.14483 0.0
C1277 C 0.88218 0.66543 0.12369 0.0
C1278 C 0.86636 0.68636 0.13687 0.0
C1279 C 0.88338 0.57653 0.10739 0.0
N1280 N 0.87152 0.57711 0.11929 0.0
C1281 C 0.87964 0.56883 0.09196 0.0
C1282 C 0.86363 0.56171 0.08875 0.0
C1283 C 0.8516 0.56235 0.10095 0.0
C1284 C 0.85578 0.57017 0.11622 0.0
C1285 C 0.86521 0.54005 0.15744 0.0
C1286 C 0.85765 0.57232 0.1657 0.0
C1287 C 0.87167 0.55367 0.14851 0.0
N1288 N 0.86785 0.56957 0.15268 0.0
C1289 C 0.85095 0.559 0.1749 0.0
C1290 C 0.85478 0.54276 0.17071 0.0
C1291 C 0.88236 0.61574 0.16632 0.0
C1292 C 0.93184 0.63527 0.12163 0.0
C1293 C 0.91049 0.64702 0.14511 0.0
C1294 C 0.92754 0.65163 0.14633 0.0
C1295 C 0.93826 0.64571 0.13449 0.0
N1296 N 0.90428 0.63684 0.13241 0.0
C1297 C 0.91472 0.63092 0.1208 0.0
Co1298 Co 0.91183 0.36242 0.63055 0.0
Co1299 Co 0.88163 0.38808 0.64373 0.0
O1300 O 0.89379 0.36769 0.64511 0.0
C1301 C 0.88849 0.33283 0.62827 0.0
O1302 O 0.8763 0.34306 0.62658 0.0
C1303 C 0.89477 0.3875 0.67853 0.0
O1304 O 0.90943 0.38604 0.67188 0.0
O1305 O 0.90287 0.40223 0.64392 0.0
O1306 O 0.92048 0.38611 0.63057 0.0
H1307 H 0.86822 0.44449 0.62188 0.0
H1308 H 0.90686 0.34313 0.66155 0.0
O1309 O 0.90357 0.33851 0.63005 0.0
H1310 H 0.96383 0.36931 0.66715 0.0
H1311 H 0.95737 0.32701 0.61021 0.0
H1312 H 0.92712 0.37826 0.60093 0.0
H1313 H 0.94651 0.37343 0.64179 0.0
H1314 H 0.93477 0.33439 0.62878 0.0
O1315 O 0.8818 0.38881 0.66905 0.0
H1316 H 0.8836 0.41864 0.62318 0.0
H1317 H 0.85357 0.40097 0.66282 0.0
H1318 H 0.94972 0.37142 0.58213 0.0
H1319 H 0.92382 0.33855 0.68706 0.0
H1320 H 0.96502 0.34563 0.58673 0.0
H1321 H 0.95251 0.35175 0.69001 0.0
O1322 O 0.89772 0.36672 0.61062 0.0
H1323 H 0.84239 0.34205 0.66375 0.0
H1324 H 0.85043 0.38684 0.62255 0.0
H1325 H 0.8243 0.36914 0.62161 0.0
H1326 H 0.82015 0.34657 0.64233 0.0
H1327 H 0.86839 0.35992 0.66413 0.0
H1328 H 0.83795 0.42669 0.66206 0.0
H1329 H 0.84521 0.44863 0.64143 0.0
O1330 O 0.88151 0.3874 0.61833 0.0
C1331 C 0.91665 0.39999 0.63683 0.0
C1332 C 0.86491 0.435 0.63089 0.0
C1333 C 0.84793 0.42502 0.65346 0.0
N1334 N 0.86938 0.40828 0.64297 0.0
C1335 C 0.87353 0.42032 0.63165 0.0
C1336 C 0.85684 0.4105 0.65386 0.0
C1337 C 0.85201 0.43732 0.64188 0.0
C1338 C 0.9194 0.34875 0.66266 0.0
N1339 N 0.92572 0.35844 0.65015 0.0
C1340 C 0.92892 0.34618 0.67717 0.0
C1341 C 0.945 0.35361 0.67882 0.0
C1342 C 0.95136 0.36347 0.666 0.0
C1343 C 0.94148 0.36578 0.65168 0.0
C1344 C 0.95082 0.33829 0.6081 0.0
C1345 C 0.93379 0.36707 0.60307 0.0
C1346 C 0.93799 0.34252 0.61855 0.0
N1347 N 0.92972 0.3568 0.61601 0.0
C1348 C 0.94654 0.36324 0.59236 0.0
C1349 C 0.95511 0.34875 0.59493 0.0
C1350 C 0.88754 0.378 0.60718 0.0
C1351 C 0.84403 0.35188 0.65468 0.0
C1352 C 0.84874 0.377 0.63157 0.0
C1353 C 0.8339 0.36705 0.63101 0.0
C1354 C 0.83157 0.3544 0.64265 0.0
N1355 N 0.8609 0.37445 0.64342 0.0
C1356 C 0.8587 0.36209 0.65489 0.0
Co1357 Co 0.10423 0.62703 0.63121 0.0
Co1358 Co 0.14581 0.62482 0.62212 0.0
O1359 O 0.1222 0.61787 0.61872 0.0
C1360 C 0.08635 0.59647 0.64295 0.0
O1361 O 0.08899 0.60249 0.65812 0.0
C1362 C 0.13838 0.62952 0.58621 0.0
O1363 O 0.12529 0.6372 0.59116 0.0
O1364 O 0.14079 0.64872 0.62043 0.0
O1365 O 0.11563 0.64983 0.63193 0.0
H1366 H 0.19459 0.65892 0.64737 0.0
H1367 H 0.09554 0.60825 0.59989 0.0
O1368 O 0.09242 0.60434 0.63058 0.0
H1369 H 0.07545 0.66461 0.59079 0.0
H1370 H 0.04391 0.63453 0.64467 0.0
H1371 H 0.10273 0.64911 0.66087 0.0
H1372 H 0.08914 0.65753 0.61751 0.0
H1373 H 0.06687 0.62361 0.6286 0.0
O1374 O 0.14858 0.62386 0.59704 0.0
H1375 H 0.16482 0.64985 0.64353 0.0
H1376 H 0.17715 0.6146 0.60665 0.0
H1377 H 0.08015 0.66036 0.67725 0.0
H1378 H 0.08162 0.61472 0.5731 0.0
H1379 H 0.0505 0.65307 0.66918 0.0
H1380 H 0.07155 0.6431 0.56838 0.0
O1381 O 0.11592 0.62156 0.6524 0.0
H1382 H 0.14221 0.56458 0.60412 0.0
H1383 H 0.1659 0.60516 0.64597 0.0
H1384 H 0.17204 0.57547 0.64852 0.0
H1385 H 0.16019 0.55496 0.62745 0.0
H1386 H 0.13628 0.59438 0.60213 0.0
H1387 H 0.20705 0.62337 0.60999 0.0
H1388 H 0.21594 0.64565 0.63052 0.0
O1389 O 0.1433 0.62596 0.64726 0.0
C1390 C 0.12896 0.65682 0.6263 0.0
C1391 C 0.19088 0.64916 0.63843 0.0
C1392 C 0.19787 0.62923 0.61743 0.0
N1393 N 0.16929 0.63161 0.625 0.0
C1394 C 0.17405 0.64394 0.63625 0.0
C1395 C 0.18093 0.62433 0.61557 0.0
C1396 C 0.20285 0.64172 0.62896 0.0
C1397 C 0.09098 0.62056 0.59803 0.0
N1398 N 0.09308 0.63246 0.6103 0.0
C1399 C 0.08319 0.62418 0.5828 0.0
C1400 C 0.07758 0.64012 0.58014 0.0
C1401 C 0.07978 0.65219 0.5927 0.0
C1402 C 0.08761 0.64813 0.60779 0.0
C1403 C 0.05678 0.63783 0.64829 0.0
C1404 C 0.08985 0.64594 0.65724 0.0
C1405 C 0.06984 0.63169 0.63924 0.0
N1406 N 0.08613 0.63579 0.64375 0.0
C1407 C 0.07713 0.65232 0.66657 0.0
C1408 C 0.06049 0.64822 0.66204 0.0
C1409 C 0.13121 0.62322 0.65722 0.0
C1410 C 0.14748 0.5734 0.61335 0.0
C1411 C 0.16064 0.5963 0.6368 0.0
C1412 C 0.1642 0.57951 0.63829 0.0
C1413 C 0.15755 0.56801 0.62646 0.0
N1414 N 0.15081 0.6015 0.62387 0.0
C1415 C 0.1442 0.5903 0.61226 0.0
Co1416 Co 0.88733 0.87629 0.64395 0.0
Co1417 Co 0.90054 0.86823 0.60438 0.0
O1418 O 0.88561 0.87867 0.6197 0.0
C1419 C 0.85232 0.86534 0.63545 0.0
O1420 O 0.85864 0.85488 0.62497 0.0
C1421 C 0.89483 0.90256 0.59051 0.0
O1422 O 0.88538 0.90651 0.60287 0.0
O1423 O 0.92009 0.8785 0.61678 0.0
O1424 O 0.91276 0.87721 0.64363 0.0
H1425 H 0.95071 0.83641 0.58995 0.0
H1426 H 0.86598 0.9027 0.63083 0.0
O1427 O 0.86204 0.87511 0.64443 0.0
H1428 H 0.91027 0.93234 0.66514 0.0
H1429 H 0.86996 0.88729 0.70268 0.0
H1430 H 0.90803 0.85705 0.66735 0.0
H1431 H 0.90948 0.90171 0.66221 0.0
H1432 H 0.86878 0.89026 0.67208 0.0
O1433 O 0.90094 0.88824 0.58951 0.0
H1434 H 0.93114 0.84927 0.60884 0.0
H1435 H 0.90253 0.86569 0.56734 0.0
H1436 H 0.90973 0.85381 0.6979 0.0
H1437 H 0.86614 0.93332 0.63365 0.0
H1438 H 0.8906 0.86901 0.71578 0.0
H1439 H 0.88845 0.94836 0.65083 0.0
O1440 O 0.88692 0.85163 0.64185 0.0
H1441 H 0.84313 0.8676 0.57705 0.0
H1442 H 0.89122 0.83403 0.59142 0.0
H1443 H 0.86652 0.82067 0.57682 0.0
H1444 H 0.84226 0.8375 0.56948 0.0
H1445 H 0.86794 0.88039 0.59182 0.0
H1446 H 0.92186 0.85311 0.548 0.0
H1447 H 0.94612 0.83829 0.55929 0.0
O1448 O 0.9012 0.84784 0.61853 0.0
C1449 C 0.92367 0.87943 0.63233 0.0
C1450 C 0.94015 0.84278 0.58488 0.0
C1451 C 0.92397 0.85218 0.56134 0.0
N1452 N 0.91562 0.85808 0.58921 0.0
C1453 C 0.929 0.85004 0.59552 0.0
C1454 C 0.91309 0.8593 0.57235 0.0
C1455 C 0.93758 0.84386 0.56768 0.0
C1456 C 0.87567 0.90913 0.63843 0.0
N1457 N 0.88778 0.90041 0.64624 0.0
C1458 C 0.87572 0.92648 0.63993 0.0
C1459 C 0.88826 0.93492 0.64955 0.0
C1460 C 0.90052 0.92594 0.65756 0.0
C1461 C 0.90007 0.90859 0.65576 0.0
C1462 C 0.87839 0.88064 0.69503 0.0
C1463 C 0.89974 0.86379 0.67506 0.0
C1464 C 0.87776 0.88225 0.6777 0.0
N1465 N 0.88843 0.87396 0.66798 0.0
C1466 C 0.90073 0.86187 0.69235 0.0
C1467 C 0.88998 0.87038 0.70237 0.0
C1468 C 0.89435 0.84246 0.63172 0.0
C1469 C 0.85368 0.86017 0.58006 0.0
C1470 C 0.88074 0.84147 0.58825 0.0
C1471 C 0.86679 0.83382 0.57997 0.0
C1472 C 0.85318 0.84327 0.57585 0.0
N1473 N 0.88121 0.8581 0.59224 0.0
C1474 C 0.86786 0.8674 0.58833 0.0
Co1475 Co 0.63615 0.36123 0.08876 0.0
Co1476 Co 0.60624 0.36857 0.11791 0.0
O1477 O 0.62825 0.3726 0.10832 0.0
C1478 C 0.66157 0.35536 0.11516 0.0
O1479 O 0.64932 0.35178 0.1253 0.0
C1480 C 0.60857 0.40413 0.10868 0.0
O1481 O 0.61345 0.39857 0.09428 0.0
O1482 O 0.59461 0.36892 0.09557 0.0
O1483 O 0.61417 0.36298 0.07708 0.0
H1484 H 0.54912 0.34049 0.12313 0.0
H1485 H 0.65576 0.39071 0.10269 0.0
O1486 O 0.65843 0.35929 0.1001 0.0
H1487 H 0.64045 0.40579 0.04501 0.0
H1488 H 0.67861 0.34855 0.04588 0.0
H1489 H 0.62184 0.33481 0.06576 0.0
H1490 H 0.63194 0.37811 0.05601 0.0
H1491 H 0.66805 0.36311 0.07036 0.0
O1492 O 0.60439 0.3937 0.12002 0.0
H1493 H 0.57688 0.34532 0.11087 0.0
H1494 H 0.58896 0.38434 0.1459 0.0
H1495 H 0.63184 0.32003 0.04114 0.0
H1496 H 0.6647 0.41845 0.09214 0.0
H1497 H 0.66042 0.32689 0.03105 0.0
H1498 H 0.65698 0.42617 0.06312 0.0
O1499 O 0.62867 0.33924 0.09773 0.0
H1500 H 0.64689 0.38971 0.16301 0.0
H1501 H 0.60428 0.34556 0.14683 0.0
H1502 H 0.61885 0.34434 0.17425 0.0
H1503 H 0.64032 0.36653 0.18249 0.0
H1504 H 0.63211 0.39039 0.13568 0.0
H1505 H 0.56127 0.38005 0.15844 0.0
H1506 H 0.54117 0.35794 0.14708 0.0
O1507 O 0.60813 0.34351 0.11572 0.0
C1508 C 0.59929 0.36605 0.08081 0.0
C1509 C 0.55779 0.35013 0.12822 0.0
C1510 C 0.5646 0.37235 0.14803 0.0
N1511 N 0.58454 0.36501 0.12775 0.0
C1512 C 0.57353 0.35288 0.12137 0.0
C1513 C 0.58023 0.37475 0.14085 0.0
C1514 C 0.55333 0.35994 0.14165 0.0
C1515 C 0.65253 0.3939 0.08999 0.0
N1516 N 0.64345 0.38276 0.07995 0.0
C1517 C 0.65756 0.40965 0.0841 0.0
C1518 C 0.6532 0.41398 0.06783 0.0
C1519 C 0.64392 0.40256 0.05767 0.0
C1520 C 0.63911 0.38692 0.06397 0.0
C1521 C 0.66612 0.34548 0.05014 0.0
C1522 C 0.63425 0.33792 0.06137 0.0
C1523 C 0.66009 0.35365 0.06401 0.0
N1524 N 0.6443 0.34989 0.06939 0.0
C1525 C 0.63986 0.32948 0.04746 0.0
C1526 C 0.6559 0.33333 0.04182 0.0
C1527 C 0.61749 0.33388 0.1077 0.0
C1528 C 0.63752 0.38 0.15958 0.0
C1529 C 0.61362 0.35526 0.15032 0.0
C1530 C 0.62181 0.35451 0.16587 0.0
C1531 C 0.63385 0.36698 0.1705 0.0
N1532 N 0.61728 0.36808 0.1397 0.0
C1533 C 0.62906 0.38035 0.14415 0.0
Co1534 Co 0.12569 0.12933 0.63869 0.0
Co1535 Co 0.11517 0.13581 0.59726 0.0
O1536 O 0.12764 0.12502 0.61486 0.0
C1537 C 0.16062 0.1386 0.63072 0.0
O1538 O 0.15404 0.14685 0.61836 0.0
C1539 C 0.09881 0.1064 0.57991 0.0
O1540 O 0.08445 0.11311 0.58237 0.0
O1541 O 0.09402 0.13125 0.60916 0.0
O1542 O 0.1004 0.12803 0.63642 0.0
H1543 H 0.0722 0.17339 0.57395 0.0
H1544 H 0.14646 0.10214 0.62712 0.0
O1545 O 0.15103 0.13084 0.64091 0.0
H1546 H 0.10332 0.07475 0.66177 0.0
H1547 H 0.14246 0.12304 0.69911 0.0
H1548 H 0.10435 0.14982 0.65945 0.0
H1549 H 0.1041 0.10519 0.65754 0.0
H1550 H 0.14403 0.11777 0.66884 0.0
O1551 O 0.11235 0.11363 0.58557 0.0
H1552 H 0.08853 0.16011 0.59621 0.0
H1553 H 0.11478 0.13363 0.56003 0.0
H1554 H 0.10224 0.15535 0.68961 0.0
H1555 H 0.14623 0.07168 0.63113 0.0
H1556 H 0.1214 0.14191 0.70966 0.0
H1557 H 0.12453 0.05779 0.64855 0.0
O1558 O 0.1259 0.1539 0.6354 0.0
H1559 H 0.17042 0.12106 0.57443 0.0
H1560 H 0.13145 0.166 0.58179 0.0
H1561 H 0.15812 0.17207 0.56785 0.0
H1562 H 0.1778 0.14949 0.56404 0.0
H1563 H 0.14373 0.11558 0.58852 0.0
H1564 H 0.0987 0.14657 0.53738 0.0
H1565 H 0.07724 0.16663 0.54428 0.0
O1566 O 0.118 0.15795 0.60874 0.0
C1567 C 0.0898 0.12888 0.62422 0.0
C1568 C 0.08153 0.1647 0.57078 0.0
C1569 C 0.0964 0.14964 0.55025 0.0
N1570 N 0.10264 0.14617 0.57943 0.0
C1571 C 0.09083 0.15716 0.58333 0.0
C1572 C 0.10547 0.14235 0.56313 0.0
C1573 C 0.08436 0.16089 0.55414 0.0
C1574 C 0.13704 0.0962 0.6348 0.0
N1575 N 0.12536 0.10543 0.64216 0.0
C1576 C 0.13695 0.07894 0.63699 0.0
C1577 C 0.12476 0.07115 0.64675 0.0
C1578 C 0.11284 0.08066 0.65416 0.0
C1579 C 0.11332 0.09788 0.65169 0.0
C1580 C 0.13402 0.12894 0.6905 0.0
C1581 C 0.11264 0.14384 0.66812 0.0
C1582 C 0.13488 0.12603 0.67336 0.0
N1583 N 0.1242 0.13338 0.66243 0.0
C1584 C 0.11143 0.14706 0.68517 0.0
C1585 C 0.12219 0.13953 0.69641 0.0
C1586 C 0.12229 0.16337 0.6233 0.0
C1587 C 0.16192 0.13098 0.57595 0.0
C1588 C 0.13997 0.15612 0.58025 0.0
C1589 C 0.15504 0.15962 0.5723 0.0
C1590 C 0.16606 0.14694 0.57014 0.0
N1591 N 0.13597 0.14042 0.58587 0.0
C1592 C 0.14675 0.12793 0.58385 0.0
Co1593 Co 0.36841 0.63496 0.08174 0.0
Co1594 Co 0.39528 0.63081 0.1157 0.0
O1595 O 0.37488 0.62484 0.1027 0.0
C1596 C 0.33995 0.64109 0.10329 0.0
O1597 O 0.35081 0.64674 0.11479 0.0
C1598 C 0.39814 0.59495 0.10744 0.0
O1599 O 0.3959 0.59929 0.09184 0.0
O1600 O 0.40943 0.63074 0.0955 0.0
O1601 O 0.39159 0.6343 0.07378 0.0
H1602 H 0.4494 0.66304 0.12953 0.0
H1603 H 0.34959 0.60472 0.09352 0.0
O1604 O 0.34492 0.63575 0.08937 0.0
H1605 H 0.37169 0.58889 0.03914 0.0
H1606 H 0.33004 0.64317 0.03207 0.0
H1607 H 0.38345 0.6613 0.06029 0.0
H1608 H 0.37703 0.6174 0.05043 0.0
H1609 H 0.33879 0.63033 0.05852 0.0
O1610 O 0.3985 0.60606 0.119 0.0
H1611 H 0.42366 0.65579 0.11288 0.0
H1612 H 0.41023 0.61739 0.14686 0.0
H1613 H 0.37526 0.67438 0.03378 0.0
H1614 H 0.34384 0.5761 0.08262 0.0
H1615 H 0.34838 0.66531 0.01949 0.0
H1616 H 0.35496 0.56802 0.05527 0.0
O1617 O 0.3735 0.65778 0.09104 0.0
H1618 H 0.35127 0.60835 0.15428 0.0
H1619 H 0.39229 0.65481 0.14387 0.0
H1620 H 0.37465 0.65587 0.16856 0.0
H1621 H 0.35397 0.63251 0.1739 0.0
H1622 H 0.36907 0.60786 0.12968 0.0
H1623 H 0.4359 0.62412 0.16381 0.0
H1624 H 0.45565 0.64714 0.1552 0.0
O1625 O 0.39203 0.65544 0.11239 0.0
C1626 C 0.40618 0.63258 0.07999 0.0
C1627 C 0.44087 0.65301 0.13344 0.0
C1628 C 0.4333 0.63115 0.15266 0.0
N1629 N 0.41542 0.63626 0.12897 0.0
C1630 C 0.42626 0.64888 0.12409 0.0
C1631 C 0.41882 0.62737 0.143 0.0
C1632 C 0.44438 0.64408 0.14783 0.0
C1633 C 0.35434 0.60133 0.08153 0.0
N1634 N 0.36355 0.61274 0.07258 0.0
C1635 C 0.3511 0.5851 0.07546 0.0
C1636 C 0.35737 0.58056 0.06012 0.0
C1637 C 0.36675 0.59227 0.05106 0.0
C1638 C 0.36976 0.60839 0.05753 0.0
C1639 C 0.3418 0.6472 0.03816 0.0
C1640 C 0.37178 0.65722 0.05409 0.0
C1641 C 0.3468 0.64001 0.05316 0.0
N1642 N 0.36167 0.64498 0.06086 0.0
C1643 C 0.36719 0.66471 0.03911 0.0
C1644 C 0.35209 0.65962 0.0311 0.0
C1645 C 0.38314 0.66417 0.10259 0.0
C1646 C 0.36027 0.61858 0.15212 0.0
C1647 C 0.3833 0.64461 0.1461 0.0
C1648 C 0.37337 0.64527 0.16011 0.0
C1649 C 0.36178 0.63215 0.16311 0.0
N1650 N 0.38178 0.63124 0.1354 0.0
C1651 C 0.37043 0.61834 0.13824 0.0
Co1652 Co 0.87256 0.1027 0.38881 0.0
Co1653 Co 0.86939 0.13423 0.41797 0.0
O1654 O 0.87842 0.12486 0.39798 0.0
C1655 C 0.90845 0.10334 0.39784 0.0
O1656 O 0.9036 0.10904 0.41218 0.0
C1657 C 0.8595 0.15914 0.39277 0.0
O1658 O 0.85059 0.14746 0.38453 0.0
O1659 O 0.84625 0.12695 0.41052 0.0
O1660 O 0.84791 0.10634 0.39141 0.0
H1661 H 0.8328 0.13455 0.46788 0.0
H1662 H 0.89499 0.12633 0.37046 0.0
O1663 O 0.89743 0.09923 0.38648 0.0
H1664 H 0.84632 0.11393 0.33261 0.0
H1665 H 0.87922 0.05507 0.34878 0.0
H1666 H 0.84777 0.07522 0.39632 0.0
H1667 H 0.84801 0.1008 0.36026 0.0
H1668 H 0.88585 0.08305 0.36096 0.0
O1669 O 0.86754 0.15593 0.40617 0.0
H1670 H 0.84481 0.1224 0.44282 0.0
H1671 H 0.87416 0.16718 0.43535 0.0
H1672 H 0.84062 0.0472 0.38445 0.0
H1673 H 0.89389 0.13963 0.34287 0.0
H1674 H 0.85641 0.03697 0.36051 0.0
H1675 H 0.8694 0.13347 0.32374 0.0
O1676 O 0.87312 0.09204 0.41125 0.0
H1677 H 0.92742 0.15951 0.41062 0.0
H1678 H 0.88901 0.13162 0.44989 0.0
H1679 H 0.91801 0.13945 0.45912 0.0
H1680 H 0.93743 0.15352 0.43942 0.0
H1681 H 0.89838 0.15133 0.40186 0.0
H1682 H 0.86236 0.17987 0.46026 0.0
H1683 H 0.84157 0.16349 0.47674 0.0
O1684 O 0.87133 0.11285 0.43001 0.0
C1685 C 0.83949 0.11604 0.4004 0.0
C1686 C 0.84189 0.14179 0.46084 0.0
C1687 C 0.85847 0.16723 0.45654 0.0
N1688 N 0.86028 0.14402 0.43772 0.0
C1689 C 0.84878 0.13496 0.44667 0.0
C1690 C 0.86508 0.16 0.44243 0.0
C1691 C 0.84681 0.15803 0.46579 0.0
C1692 C 0.88436 0.12348 0.36215 0.0
N1693 N 0.87163 0.11272 0.36691 0.0
C1694 C 0.88378 0.1311 0.34657 0.0
C1695 C 0.87003 0.12765 0.33585 0.0
C1696 C 0.85707 0.1167 0.34082 0.0
C1697 C 0.85807 0.10933 0.3565 0.0
C1698 C 0.87224 0.05939 0.3592 0.0
C1699 C 0.85462 0.07088 0.38584 0.0
C1700 C 0.87596 0.0752 0.36617 0.0
N1701 N 0.86713 0.08077 0.37926 0.0
C1702 C 0.85055 0.05499 0.3792 0.0
C1703 C 0.85943 0.04925 0.36578 0.0
C1704 C 0.87242 0.09752 0.42616 0.0
C1705 C 0.91906 0.15345 0.41934 0.0
C1706 C 0.89739 0.13773 0.44125 0.0
C1707 C 0.91379 0.14216 0.44655 0.0
C1708 C 0.92467 0.15006 0.43549 0.0
N1709 N 0.89198 0.1411 0.42538 0.0
C1710 C 0.90258 0.14885 0.41447 0.0
Co1711 Co 0.36176 0.39941 0.90216 0.0
Co1712 Co 0.37218 0.38899 0.86197 0.0
O1713 O 0.3737 0.38631 0.8862 0.0
C1714 C 0.3968 0.397 0.91681 0.0
O1715 O 0.4019 0.38891 0.9038 0.0
C1716 C 0.36136 0.35386 0.86807 0.0
O1717 O 0.35103 0.36007 0.87863 0.0
O1718 O 0.34729 0.38881 0.86198 0.0
O1719 O 0.34141 0.3986 0.88731 0.0
H1720 H 0.35242 0.41401 0.8082 0.0
H1721 H 0.3774 0.36816 0.91295 0.0
O1722 O 0.38174 0.40124 0.91779 0.0
H1723 H 0.31761 0.3597 0.92515 0.0
H1724 H 0.34423 0.41635 0.95945 0.0
H1725 H 0.34005 0.42813 0.89928 0.0
H1726 H 0.32842 0.38609 0.913 0.0
H1727 H 0.35879 0.39938 0.93917 0.0
O1728 O 0.37079 0.36374 0.85958 0.0
H1729 H 0.35434 0.41101 0.83878 0.0
H1730 H 0.387 0.37135 0.83358 0.0
H1731 H 0.32516 0.44532 0.9191 0.0
H1732 H 0.36717 0.3417 0.92524 0.0
H1733 H 0.3272 0.43946 0.94943 0.0
H1734 H 0.33704 0.33728 0.93139 0.0
O1735 O 0.36996 0.42027 0.89154 0.0
H1736 H 0.42862 0.36668 0.87479 0.0
H1737 H 0.39856 0.41148 0.84732 0.0
H1738 H 0.42933 0.41196 0.84663 0.0
H1739 H 0.44457 0.38941 0.86038 0.0
H1740 H 0.39787 0.36685 0.87546 0.0
H1741 H 0.38534 0.37382 0.80295 0.0
H1742 H 0.368 0.39533 0.79008 0.0
O1743 O 0.3734 0.41431 0.8644 0.0
C1744 C 0.33708 0.39386 0.87258 0.0
C1745 C 0.36006 0.40463 0.81366 0.0
C1746 C 0.37852 0.38206 0.81071 0.0
N1747 N 0.37088 0.39111 0.83793 0.0
C1748 C 0.36124 0.40291 0.83096 0.0
C1749 C 0.37939 0.38069 0.82806 0.0
C1750 C 0.36879 0.39413 0.8035 0.0
C1751 C 0.36437 0.36653 0.91585 0.0
N1752 N 0.35362 0.37884 0.91251 0.0
C1753 C 0.3586 0.35143 0.92271 0.0
C1754 C 0.34169 0.34894 0.92611 0.0
C1755 C 0.33078 0.36151 0.92261 0.0
C1756 C 0.33699 0.37643 0.91573 0.0
C1757 C 0.34318 0.41898 0.94626 0.0
C1758 C 0.34086 0.42541 0.91244 0.0
C1759 C 0.35141 0.40942 0.93472 0.0
N1760 N 0.35006 0.41261 0.91804 0.0
C1761 C 0.33247 0.43523 0.92361 0.0
C1762 C 0.33363 0.43194 0.94063 0.0
C1763 C 0.37299 0.4247 0.87665 0.0
C1764 C 0.42212 0.37658 0.86875 0.0
C1765 C 0.4051 0.40174 0.85353 0.0
C1766 C 0.42253 0.40202 0.853 0.0
C1767 C 0.43107 0.38935 0.86069 0.0
N1768 N 0.39641 0.38921 0.86152 0.0
C1769 C 0.40469 0.3767 0.86902 0.0
Co1770 Co 0.13058 0.90668 0.38681 0.0
Co1771 Co 0.13891 0.87408 0.4131 0.0
O1772 O 0.1269 0.88382 0.39452 0.0
C1773 C 0.0952 0.90319 0.39604 0.0
O1774 O 0.10114 0.89715 0.41001 0.0
C1775 C 0.14514 0.85143 0.38507 0.0
O1776 O 0.14946 0.86467 0.37638 0.0
O1777 O 0.16059 0.88229 0.40429 0.0
O1778 O 0.15581 0.90489 0.38873 0.0
H1779 H 0.18208 0.87336 0.4597 0.0
H1780 H 0.10868 0.88247 0.36705 0.0
O1781 O 0.10536 0.90842 0.38496 0.0
H1782 H 0.15398 0.90024 0.32964 0.0
H1783 H 0.11791 0.95537 0.3503 0.0
H1784 H 0.15374 0.93546 0.39617 0.0
H1785 H 0.15312 0.91187 0.35815 0.0
H1786 H 0.11409 0.92652 0.36049 0.0
O1787 O 0.14022 0.85297 0.39995 0.0
H1788 H 0.1665 0.88585 0.43641 0.0
H1789 H 0.13732 0.84057 0.4289 0.0
H1790 H 0.1581 0.96436 0.38627 0.0
H1791 H 0.10898 0.87063 0.33859 0.0
H1792 H 0.1401 0.97447 0.36318 0.0
H1793 H 0.13178 0.87948 0.31969 0.0
O1794 O 0.13046 0.91597 0.40999 0.0
H1795 H 0.08135 0.84609 0.40909 0.0
H1796 H 0.12326 0.87554 0.44638 0.0
H1797 H 0.09592 0.86615 0.45741 0.0
H1798 H 0.07476 0.85128 0.43871 0.0
H1799 H 0.10877 0.85586 0.39854 0.0
H1800 H 0.15267 0.82755 0.45203 0.0
H1801 H 0.17518 0.84401 0.46765 0.0
O1802 O 0.13812 0.89496 0.42648 0.0
C1803 C 0.16568 0.89464 0.39554 0.0
C1804 C 0.17224 0.86609 0.45304 0.0
C1805 C 0.15575 0.84037 0.44871 0.0
N1806 N 0.1509 0.86401 0.43143 0.0
C1807 C 0.16334 0.87311 0.43988 0.0
C1808 C 0.14712 0.8478 0.43562 0.0
C1809 C 0.16838 0.84961 0.45748 0.0
C1810 C 0.11855 0.8865 0.35885 0.0
N1811 N 0.13081 0.89792 0.36422 0.0
C1812 C 0.1187 0.8797 0.34277 0.0
C1813 C 0.13151 0.88466 0.33218 0.0
C1814 C 0.14397 0.8963 0.33775 0.0
C1815 C 0.14344 0.90281 0.35392 0.0
C1816 C 0.12585 0.9511 0.36035 0.0
C1817 C 0.14593 0.93975 0.38604 0.0
C1818 C 0.12372 0.9348 0.3662 0.0
N1819 N 0.13376 0.92931 0.37882 0.0
C1820 C 0.14843 0.95614 0.38053 0.0
C1821 C 0.13831 0.96181 0.36758 0.0
C1822 C 0.13451 0.91004 0.42413 0.0
C1823 C 0.09049 0.85249 0.41738 0.0
C1824 C 0.1141 0.86911 0.43816 0.0
C1825 C 0.09866 0.86379 0.44449 0.0
C1826 C 0.0868 0.85543 0.43399 0.0
N1827 N 0.11763 0.86616 0.42186 0.0
C1828 C 0.10606 0.85799 0.41149 0.0
Co1829 Co 0.64786 0.61494 0.91627 0.0
Co1830 Co 0.63935 0.62215 0.87465 0.0
O1831 O 0.63593 0.62569 0.89832 0.0
C1832 C 0.61248 0.60537 0.92432 0.0
O1833 O 0.61036 0.59737 0.91002 0.0
C1834 C 0.64777 0.65785 0.88101 0.0
O1835 O 0.65718 0.65247 0.89325 0.0
O1836 O 0.66416 0.62373 0.87769 0.0
O1837 O 0.6694 0.6175 0.90449 0.0
H1838 H 0.66424 0.59623 0.82442 0.0
H1839 H 0.62735 0.64384 0.92325 0.0
O1840 O 0.62652 0.61254 0.92854 0.0
H1841 H 0.68434 0.66085 0.94374 0.0
H1842 H 0.66074 0.60272 0.97659 0.0
H1843 H 0.67368 0.58977 0.91827 0.0
H1844 H 0.6782 0.63285 0.93149 0.0
H1845 H 0.64646 0.61667 0.95336 0.0
O1846 O 0.63951 0.64727 0.87154 0.0
H1847 H 0.65999 0.60034 0.8545 0.0
H1848 H 0.6255 0.63757 0.844 0.0
H1849 H 0.68835 0.57563 0.94112 0.0
H1850 H 0.6329 0.67191 0.93555 0.0
H1851 H 0.68191 0.58208 0.97053 0.0
H1852 H 0.66159 0.6806 0.94582 0.0
O1853 O 0.64344 0.5927 0.90542 0.0
H1854 H 0.58082 0.64014 0.88223 0.0
H1855 H 0.61537 0.59808 0.85691 0.0
H1856 H 0.58467 0.59534 0.85325 0.0
H1857 H 0.56718 0.6165 0.86594 0.0
H1858 H 0.61156 0.64233 0.88568 0.0
H1859 H 0.62946 0.63397 0.81379 0.0
H1860 H 0.64891 0.61312 0.80384 0.0
O1861 O 0.63947 0.59715 0.87789 0.0
C1862 C 0.6742 0.62111 0.88988 0.0
C1863 C 0.65569 0.60531 0.8286 0.0
C1864 C 0.63619 0.62651 0.82264 0.0
N1865 N 0.64241 0.61908 0.85096 0.0
C1866 C 0.6532 0.60765 0.84561 0.0
C1867 C 0.63403 0.62852 0.83974 0.0
C1868 C 0.6471 0.61481 0.81706 0.0
C1869 C 0.63983 0.64745 0.92786 0.0
N1870 N 0.65243 0.63668 0.9267 0.0
C1871 C 0.64291 0.6634 0.93475 0.0
C1872 C 0.65901 0.66828 0.94049 0.0
C1873 C 0.67179 0.6572 0.93931 0.0
C1874 C 0.66825 0.64137 0.93232 0.0
C1875 C 0.66368 0.59982 0.96383 0.0
C1876 C 0.67089 0.59272 0.93104 0.0
C1877 C 0.65561 0.60765 0.95062 0.0
N1878 N 0.65932 0.60412 0.93448 0.0
C1879 C 0.6792 0.58464 0.94392 0.0
C1880 C 0.67556 0.58825 0.96042 0.0
C1881 C 0.64106 0.58743 0.89041 0.0
C1882 C 0.5883 0.63087 0.8766 0.0
C1883 C 0.60784 0.60731 0.8625 0.0
C1884 C 0.59046 0.60571 0.86036 0.0
C1885 C 0.58066 0.61759 0.86748 0.0
N1886 N 0.61524 0.6204 0.87142 0.0
C1887 C 0.60572 0.63208 0.87847 0.0
Co1888 Co 0.60302 0.88003 0.86423 0.0
Co1889 Co 0.6427 0.87239 0.87859 0.0
O1890 O 0.61859 0.86779 0.87772 0.0
C1891 C 0.58874 0.88195 0.89797 0.0
O1892 O 0.60313 0.88846 0.90379 0.0
C1893 C 0.63773 0.83719 0.86796 0.0
O1894 O 0.62761 0.84296 0.85651 0.0
O1895 O 0.64375 0.87266 0.85381 0.0
O1896 O 0.61891 0.88198 0.84556 0.0
H1897 H 0.69706 0.90186 0.86367 0.0
H1898 H 0.5919 0.84751 0.87863 0.0
O1899 O 0.5867 0.87818 0.88257 0.0
H1900 H 0.58427 0.84023 0.81775 0.0
H1901 H 0.54581 0.89221 0.8414 0.0
H1902 H 0.60569 0.91004 0.84294 0.0
H1903 H 0.59484 0.86726 0.82977 0.0
H1904 H 0.56616 0.87655 0.85779 0.0
O1905 O 0.64553 0.84739 0.87817 0.0
H1906 H 0.66643 0.89647 0.86255 0.0
H1907 H 0.67063 0.85672 0.89676 0.0
H1908 H 0.5858 0.92598 0.82629 0.0
H1909 H 0.58116 0.82031 0.86714 0.0
H1910 H 0.55561 0.91707 0.82544 0.0
H1911 H 0.57736 0.81652 0.83649 0.0
O1912 O 0.61257 0.90149 0.87358 0.0
H1913 H 0.62502 0.84938 0.93384 0.0
H1914 H 0.65654 0.89499 0.9058 0.0
H1915 H 0.65496 0.89532 0.93647 0.0
H1916 H 0.63913 0.87237 0.95069 0.0
H1917 H 0.62681 0.84961 0.90319 0.0
H1918 H 0.70132 0.86157 0.89815 0.0
H1919 H 0.71472 0.88433 0.88157 0.0
O1920 O 0.63983 0.89742 0.87884 0.0
C1921 C 0.63371 0.87787 0.84266 0.0
C1922 C 0.69137 0.89194 0.87099 0.0
C1923 C 0.69376 0.86931 0.89033 0.0
N1924 N 0.66677 0.87639 0.87969 0.0
C1925 C 0.67403 0.88887 0.87044 0.0
C1926 C 0.67639 0.8666 0.88946 0.0
C1927 C 0.70127 0.88209 0.88103 0.0
C1928 C 0.59007 0.84602 0.86529 0.0
N1929 N 0.5939 0.85899 0.8549 0.0
C1930 C 0.58407 0.83057 0.85885 0.0
C1931 C 0.58197 0.82844 0.84165 0.0
C1932 C 0.58586 0.84174 0.83113 0.0
C1933 C 0.59186 0.85701 0.83801 0.0
C1934 C 0.55894 0.89618 0.84163 0.0
C1935 C 0.5926 0.90601 0.84253 0.0
C1936 C 0.57051 0.88738 0.8509 0.0
N1937 N 0.58712 0.89228 0.85117 0.0
C1938 C 0.58138 0.91512 0.83313 0.0
C1939 C 0.56444 0.91013 0.83268 0.0
C1940 C 0.62745 0.90693 0.87747 0.0
C1941 C 0.63199 0.85942 0.92779 0.0
C1942 C 0.6496 0.88499 0.91189 0.0
C1943 C 0.64877 0.88522 0.92926 0.0
C1944 C 0.6399 0.87234 0.93724 0.0
N1945 N 0.64185 0.87225 0.90273 0.0
C1946 C 0.6331 0.85959 0.91045 0.0
Co1947 Co 0.62461 0.12411 0.39813 0.0
Co1948 Co 0.62978 0.0984 0.36418 0.0
O1949 O 0.61967 0.11686 0.37521 0.0
C1950 C 0.58842 0.11545 0.39634 0.0
O1951 O 0.59293 0.10149 0.38958 0.0
C1952 C 0.6377 0.12627 0.34128 0.0
O1953 O 0.64516 0.13444 0.35387 0.0
O1954 O 0.65243 0.10726 0.37116 0.0
O1955 O 0.6495 0.12156 0.39512 0.0
H1956 H 0.66951 0.05227 0.35891 0.0
H1957 H 0.60429 0.14475 0.37569 0.0
O1958 O 0.5997 0.12644 0.40119 0.0
H1959 H 0.65368 0.18081 0.39253 0.0
H1960 H 0.6168 0.16008 0.44871 0.0
H1961 H 0.64731 0.11373 0.42552 0.0
H1962 H 0.65017 0.15212 0.40318 0.0
H1963 H 0.61135 0.15047 0.41966 0.0
O1964 O 0.6308 0.11178 0.34326 0.0
H1965 H 0.65631 0.07533 0.37318 0.0
H1966 H 0.62528 0.0828 0.33042 0.0
H1967 H 0.65327 0.12302 0.45457 0.0
H1968 H 0.60724 0.17339 0.36484 0.0
H1969 H 0.63795 0.14635 0.46634 0.0
H1970 H 0.6321 0.19162 0.37324 0.0
O1971 O 0.62237 0.10083 0.40656 0.0
H1972 H 0.57127 0.10218 0.34077 0.0
H1973 H 0.61189 0.06496 0.36592 0.0
H1974 H 0.58339 0.05378 0.35839 0.0
H1975 H 0.56287 0.07244 0.3457 0.0
H1976 H 0.59985 0.11288 0.34863 0.0
H1977 H 0.63823 0.0599 0.31561 0.0
H1978 H 0.66047 0.04442 0.32991 0.0
O1979 O 0.62907 0.08478 0.38484 0.0
C1980 C 0.65854 0.1152 0.38395 0.0
C1981 C 0.65977 0.05887 0.35257 0.0
C1982 C 0.64224 0.06317 0.32827 0.0
N1983 N 0.63989 0.08025 0.35272 0.0
C1984 C 0.65221 0.07189 0.36062 0.0
C1985 C 0.63496 0.07613 0.3367 0.0
C1986 C 0.65471 0.05448 0.3363 0.0
C1987 C 0.61507 0.15266 0.37951 0.0
N1988 N 0.62698 0.14682 0.39013 0.0
C1989 C 0.6167 0.16884 0.37328 0.0
C1990 C 0.63066 0.17906 0.37798 0.0
C1991 C 0.64279 0.17299 0.3888 0.0
C1992 C 0.64074 0.15673 0.39476 0.0
C1993 C 0.62358 0.14992 0.44371 0.0
C1994 C 0.64068 0.12396 0.43053 0.0
C1995 C 0.62052 0.1444 0.4273 0.0
N1996 N 0.6291 0.13164 0.4209 0.0
C1997 C 0.64407 0.12913 0.447 0.0
C1998 C 0.63545 0.14222 0.4536 0.0
C1999 C 0.62563 0.08684 0.40012 0.0
C2000 C 0.58013 0.09391 0.34622 0.0
C2001 C 0.60302 0.07316 0.36043 0.0
C2002 C 0.58692 0.06675 0.35616 0.0
C2003 C 0.57541 0.07723 0.34902 0.0
N2004 N 0.60756 0.08953 0.35763 0.0
C2005 C 0.59635 0.09988 0.35063 0.0
Co2006 Co 0.41177 0.13239 0.86882 0.0
Co2007 Co 0.37007 0.13923 0.87498 0.0
O2008 O 0.39394 0.1433 0.87993 0.0
C2009 C 0.42906 0.1168 0.8972 0.0
O2010 O 0.42619 0.10247 0.88934 0.0
C2011 C 0.37746 0.17459 0.86661 0.0
O2012 O 0.39012 0.16895 0.85863 0.0
O2013 O 0.37339 0.13895 0.85041 0.0
O2014 O 0.40051 0.13466 0.84663 0.0
H2015 H 0.31929 0.11059 0.84722 0.0
H2016 H 0.41996 0.16125 0.89143 0.0
O2017 O 0.42338 0.13007 0.89109 0.0
H2018 H 0.44129 0.17831 0.83671 0.0
H2019 H 0.47198 0.12103 0.85853 0.0
H2020 H 0.41314 0.10645 0.84243 0.0
H2021 H 0.4278 0.15032 0.84043 0.0
H2022 H 0.4491 0.13499 0.87204 0.0
O2023 O 0.36757 0.1643 0.87413 0.0
H2024 H 0.3495 0.1155 0.85343 0.0
H2025 H 0.33963 0.15524 0.88644 0.0
H2026 H 0.43564 0.09223 0.82855 0.0
H2027 H 0.43352 0.1893 0.88831 0.0
H2028 H 0.46531 0.09949 0.8366 0.0
H2029 H 0.44423 0.19802 0.86078 0.0
O2030 O 0.3998 0.11027 0.87136 0.0
H2031 H 0.37715 0.16222 0.93335 0.0
H2032 H 0.35133 0.11675 0.8981 0.0
H2033 H 0.34697 0.11656 0.92843 0.0
H2034 H 0.35988 0.13945 0.94626 0.0
H2035 H 0.38131 0.16184 0.90299 0.0
H2036 H 0.30932 0.15086 0.8805 0.0
H2037 H 0.29898 0.12835 0.86081 0.0
O2038 O 0.37258 0.11426 0.87556 0.0
C2039 C 0.38577 0.13693 0.84105 0.0
C2040 C 0.32364 0.1204 0.85587 0.0
C2041 C 0.31804 0.14302 0.87453 0.0
N2042 N 0.34628 0.13555 0.87038 0.0
C2043 C 0.34072 0.1232 0.85947 0.0
C2044 C 0.33521 0.14547 0.87782 0.0
C2045 C 0.31225 0.13038 0.86348 0.0
C2046 C 0.42476 0.16488 0.87946 0.0
N2047 N 0.42316 0.15411 0.86615 0.0
C2048 C 0.43236 0.18081 0.87775 0.0
C2049 C 0.43834 0.1857 0.86229 0.0
C2050 C 0.43668 0.17465 0.84878 0.0
C2051 C 0.429 0.15883 0.85095 0.0
C2052 C 0.45911 0.11776 0.85491 0.0
C2053 C 0.42602 0.10971 0.84596 0.0
C2054 C 0.44609 0.12562 0.86251 0.0
N2055 N 0.42979 0.12154 0.85801 0.0
C2056 C 0.43871 0.10161 0.83808 0.0
C2057 C 0.45535 0.10568 0.84261 0.0
C2058 C 0.38482 0.10476 0.87377 0.0
C2059 C 0.37142 0.1522 0.92571 0.0
C2060 C 0.35706 0.12671 0.9058 0.0
C2061 C 0.35451 0.12656 0.92295 0.0
C2062 C 0.36175 0.13941 0.93295 0.0
N2063 N 0.3665 0.13933 0.89879 0.0
C2064 C 0.3737 0.15194 0.90851 0.0
Co2065 Co 0.37955 0.89059 0.38901 0.0
Co2066 Co 0.37426 0.92136 0.35959 0.0
O2067 O 0.38357 0.90075 0.36728 0.0
C2068 C 0.41598 0.89799 0.38784 0.0
O2069 O 0.41188 0.91268 0.38254 0.0
C2070 C 0.36326 0.89643 0.33356 0.0
O2071 O 0.3595 0.88582 0.34541 0.0
O2072 O 0.35164 0.91372 0.3668 0.0
O2073 O 0.35479 0.89418 0.38649 0.0
H2074 H 0.3397 0.97158 0.36448 0.0
H2075 H 0.39823 0.87265 0.36356 0.0
O2076 O 0.40446 0.88715 0.39164 0.0
H2077 H 0.3485 0.83602 0.37466 0.0
H2078 H 0.38847 0.84781 0.43343 0.0
H2079 H 0.35846 0.89775 0.41779 0.0
H2080 H 0.35341 0.86283 0.38971 0.0
H2081 H 0.39292 0.86115 0.40618 0.0
O2082 O 0.36927 0.91106 0.33716 0.0
H2083 H 0.35193 0.94564 0.37411 0.0
H2084 H 0.37637 0.9408 0.32811 0.0
H2085 H 0.35352 0.88473 0.4451 0.0
H2086 H 0.39386 0.8459 0.34831 0.0
H2087 H 0.36859 0.85957 0.45306 0.0
H2088 H 0.36882 0.8274 0.35379 0.0
O2089 O 0.38287 0.91243 0.40107 0.0
H2090 H 0.42887 0.91484 0.33143 0.0
H2091 H 0.39561 0.95275 0.36419 0.0
H2092 H 0.42404 0.96203 0.35598 0.0
H2093 H 0.44086 0.94302 0.33945 0.0
H2094 H 0.40046 0.90599 0.34007 0.0
H2095 H 0.36431 0.96662 0.31793 0.0
H2096 H 0.34587 0.98223 0.3362 0.0
O2097 O 0.3791 0.93211 0.38169 0.0
C2098 C 0.34568 0.90343 0.37744 0.0
C2099 C 0.34775 0.96492 0.35643 0.0
C2100 C 0.36155 0.96212 0.33029 0.0
N2101 N 0.36495 0.9418 0.35174 0.0
C2102 C 0.35475 0.95026 0.36183 0.0
C2103 C 0.36831 0.94749 0.33611 0.0
C2104 C 0.35121 0.97088 0.34055 0.0
C2105 C 0.38739 0.86459 0.36614 0.0
N2106 N 0.37614 0.86924 0.37758 0.0
C2107 C 0.38494 0.84949 0.35741 0.0
C2108 C 0.37088 0.83913 0.36047 0.0
C2109 C 0.35946 0.84396 0.37217 0.0
C2110 C 0.3623 0.85917 0.38064 0.0
C2111 C 0.38181 0.85875 0.43009 0.0
C2112 C 0.36498 0.88674 0.42113 0.0
C2113 C 0.38431 0.86637 0.4147 0.0
N2114 N 0.37587 0.88013 0.41038 0.0
C2115 C 0.36217 0.87945 0.43663 0.0
C2116 C 0.37065 0.86535 0.4411 0.0
C2117 C 0.38211 0.92756 0.39658 0.0
C2118 C 0.42164 0.92326 0.33857 0.0
C2119 C 0.40287 0.94439 0.35703 0.0
C2120 C 0.41894 0.94973 0.35239 0.0
C2121 C 0.42837 0.93906 0.3431 0.0
N2122 N 0.39636 0.92887 0.35254 0.0
C2123 C 0.40552 0.91834 0.34344 0.0
Co2124 Co 0.59278 0.12557 0.14688 0.0
Co2125 Co 0.61788 0.11954 0.11315 0.0
O2126 O 0.61153 0.11586 0.13622 0.0
C2127 C 0.62081 0.13855 0.16937 0.0
O2128 O 0.62772 0.14633 0.15677 0.0
C2129 C 0.60895 0.08358 0.11579 0.0
O2130 O 0.59563 0.08868 0.12303 0.0
O2131 O 0.59423 0.1174 0.10459 0.0
O2132 O 0.57815 0.12119 0.12674 0.0
H2133 H 0.61522 0.14572 0.05651 0.0
H2134 H 0.61077 0.09873 0.1637 0.0
O2135 O 0.60711 0.12988 0.16744 0.0
H2136 H 0.55216 0.07707 0.15749 0.0
H2137 H 0.55611 0.13669 0.19535 0.0
H2138 H 0.56676 0.14854 0.13624 0.0
H2139 H 0.56055 0.10527 0.14776 0.0
H2140 H 0.57936 0.12396 0.1812 0.0
O2141 O 0.6197 0.09442 0.1103 0.0
H2142 H 0.60689 0.14122 0.08559 0.0
H2143 H 0.64321 0.10487 0.09174 0.0
H2144 H 0.54331 0.16144 0.14987 0.0
H2145 H 0.60289 0.07052 0.17376 0.0
H2146 H 0.53786 0.15553 0.17964 0.0
H2147 H 0.57341 0.05949 0.17062 0.0
O2148 O 0.59943 0.14801 0.13814 0.0
H2149 H 0.6683 0.10289 0.14645 0.0
H2150 H 0.64606 0.14445 0.10796 0.0
H2151 H 0.67526 0.148 0.1185 0.0
H2152 H 0.68656 0.1271 0.13786 0.0
H2153 H 0.63914 0.0999 0.1357 0.0
H2154 H 0.65185 0.10886 0.06267 0.0
H2155 H 0.63785 0.12946 0.04488 0.0
O2156 O 0.61571 0.14444 0.11601 0.0
C2157 C 0.58007 0.11848 0.11127 0.0
C2158 C 0.62145 0.13674 0.06416 0.0
C2159 C 0.64199 0.11603 0.0676 0.0
N2160 N 0.62464 0.12288 0.09036 0.0
C2161 C 0.61681 0.13418 0.08064 0.0
C2162 C 0.63702 0.1138 0.08403 0.0
C2163 C 0.63414 0.1276 0.05763 0.0
C2164 C 0.59788 0.09409 0.16245 0.0
N2165 N 0.58612 0.10366 0.15522 0.0
C2166 C 0.5935 0.07808 0.16811 0.0
C2167 C 0.57696 0.07189 0.16632 0.0
C2168 C 0.56504 0.08174 0.15894 0.0
C2169 C 0.56987 0.09768 0.15343 0.0
C2170 C 0.55834 0.13933 0.18237 0.0
C2171 C 0.5644 0.14582 0.14917 0.0
C2172 C 0.5715 0.13218 0.17429 0.0
N2173 N 0.57432 0.13539 0.15787 0.0
C2174 C 0.55113 0.1532 0.15683 0.0
C2175 C 0.5481 0.1499 0.17354 0.0
C2176 C 0.60805 0.15374 0.12608 0.0
C2177 C 0.66353 0.11205 0.13798 0.0
C2178 C 0.65088 0.13533 0.11641 0.0
C2179 C 0.66743 0.13739 0.12231 0.0
C2180 C 0.67377 0.12565 0.13317 0.0
N2181 N 0.64095 0.12193 0.12113 0.0
C2182 C 0.64705 0.11039 0.13181 0.0
Co2183 Co 0.37548 0.1366 0.62885 0.0
Co2184 Co 0.38258 0.09515 0.63659 0.0
O2185 O 0.37165 0.11268 0.6245 0.0
C2186 C 0.34005 0.12859 0.63596 0.0
O2187 O 0.34568 0.11575 0.64395 0.0
C2188 C 0.39899 0.07843 0.6088 0.0
O2189 O 0.41336 0.08218 0.61655 0.0
O2190 O 0.4046 0.10736 0.63451 0.0
O2191 O 0.40053 0.13434 0.62898 0.0
H2192 H 0.42252 0.07237 0.67897 0.0
H2193 H 0.35315 0.12488 0.60056 0.0
O2194 O 0.35034 0.1389 0.62901 0.0
H2195 H 0.39842 0.15931 0.57533 0.0
H2196 H 0.36333 0.19701 0.62126 0.0
H2197 H 0.39889 0.15753 0.65045 0.0
H2198 H 0.39803 0.15527 0.60578 0.0
H2199 H 0.35926 0.16669 0.61606 0.0
O2200 O 0.38546 0.08337 0.61476 0.0
H2201 H 0.4081 0.09444 0.66398 0.0
H2202 H 0.38078 0.05792 0.63417 0.0
H2203 H 0.40349 0.18775 0.65594 0.0
H2204 H 0.35298 0.12871 0.57007 0.0
H2205 H 0.38563 0.20771 0.64128 0.0
H2206 H 0.37575 0.14601 0.55727 0.0
O2207 O 0.37549 0.13355 0.65346 0.0
H2208 H 0.3264 0.07188 0.61553 0.0
H2209 H 0.36435 0.07917 0.66477 0.0
H2210 H 0.33657 0.06494 0.66776 0.0
H2211 H 0.3174 0.06118 0.64301 0.0
H2212 H 0.3542 0.08623 0.61314 0.0
H2213 H 0.39496 0.03546 0.64876 0.0
H2214 H 0.41597 0.04263 0.67136 0.0
O2215 O 0.37969 0.10657 0.65838 0.0
C2216 C 0.41009 0.12224 0.63161 0.0
C2217 C 0.41336 0.06908 0.66916 0.0
C2218 C 0.3979 0.04836 0.65221 0.0
N2219 N 0.39356 0.07747 0.64827 0.0
C2220 C 0.40513 0.08152 0.66066 0.0
C2221 C 0.38992 0.06114 0.64398 0.0
C2222 C 0.40969 0.0524 0.66489 0.0
C2223 C 0.36304 0.13252 0.59509 0.0
N2224 N 0.37554 0.13992 0.60493 0.0
C2225 C 0.3629 0.1346 0.57781 0.0
C2226 C 0.37569 0.14429 0.57064 0.0
C2227 C 0.38843 0.15175 0.58076 0.0
C2228 C 0.38816 0.14938 0.59799 0.0
C2229 C 0.37122 0.18844 0.62769 0.0
C2230 C 0.39115 0.16616 0.64395 0.0
C2231 C 0.36895 0.17127 0.62482 0.0
N2232 N 0.37892 0.16039 0.63285 0.0
C2233 C 0.39377 0.18324 0.64714 0.0
C2234 C 0.38373 0.19443 0.63893 0.0
C2235 C 0.37725 0.12136 0.66332 0.0
C2236 C 0.33467 0.07338 0.62639 0.0
C2237 C 0.35606 0.07764 0.65395 0.0
C2238 C 0.34036 0.06953 0.65571 0.0
C2239 C 0.32962 0.06741 0.64182 0.0
N2240 N 0.36094 0.08344 0.63877 0.0
C2241 C 0.35046 0.08143 0.6251 0.0
Co2242 Co 0.4119 0.8736 0.13548 0.0
Co2243 Co 0.38073 0.87922 0.1056 0.0
O2244 O 0.39151 0.88353 0.12751 0.0
C2245 C 0.38722 0.86468 0.16128 0.0
O2246 O 0.37603 0.86113 0.14935 0.0
C2247 C 0.3891 0.91559 0.10726 0.0
O2248 O 0.40384 0.91135 0.11277 0.0
O2249 O 0.40243 0.88155 0.09391 0.0
O2250 O 0.4223 0.87709 0.11351 0.0
H2251 H 0.37287 0.8519 0.04915 0.0
H2252 H 0.39826 0.90115 0.15488 0.0
O2253 O 0.40199 0.86989 0.1578 0.0
H2254 H 0.4548 0.92171 0.13946 0.0
H2255 H 0.45779 0.86329 0.1777 0.0
H2256 H 0.43476 0.84962 0.12132 0.0
H2257 H 0.44404 0.89343 0.13112 0.0
H2258 H 0.43225 0.87608 0.16719 0.0
O2259 O 0.37796 0.90418 0.10314 0.0
H2260 H 0.38662 0.85717 0.07673 0.0
H2261 H 0.35131 0.89302 0.0881 0.0
H2262 H 0.46041 0.83664 0.13128 0.0
H2263 H 0.4086 0.92944 0.16365 0.0
H2264 H 0.47208 0.84346 0.15967 0.0
H2265 H 0.43704 0.93991 0.15588 0.0
O2266 O 0.40305 0.85106 0.12824 0.0
H2267 H 0.33735 0.89603 0.14574 0.0
H2268 H 0.35211 0.85396 0.10422 0.0
H2269 H 0.32545 0.85032 0.1188 0.0
H2270 H 0.31792 0.87146 0.13972 0.0
H2271 H 0.36393 0.89912 0.13095 0.0
H2272 H 0.33726 0.88826 0.06059 0.0
H2273 H 0.348 0.86752 0.04093 0.0
O2274 O 0.38355 0.85435 0.10794 0.0
C2275 C 0.4176 0.88007 0.09861 0.0
C2276 C 0.36804 0.86093 0.05763 0.0
C2277 C 0.34807 0.88136 0.06403 0.0
N2278 N 0.36969 0.87529 0.08403 0.0
C2279 C 0.37574 0.86393 0.07327 0.0
C2280 C 0.35609 0.88403 0.07957 0.0
C2281 C 0.3541 0.86972 0.05302 0.0
C2282 C 0.41072 0.90555 0.15162 0.0
N2283 N 0.42057 0.89562 0.14259 0.0
C2284 C 0.41649 0.9216 0.15656 0.0
C2285 C 0.43243 0.92748 0.15217 0.0
C2286 C 0.4424 0.91728 0.14295 0.0
C2287 C 0.43622 0.90129 0.13823 0.0
C2288 C 0.45284 0.86024 0.1653 0.0
C2289 C 0.43983 0.85272 0.13365 0.0
C2290 C 0.43837 0.86742 0.15929 0.0
N2291 N 0.43211 0.86369 0.14361 0.0
C2292 C 0.45432 0.8453 0.13924 0.0
C2293 C 0.46086 0.84912 0.15517 0.0
C2294 C 0.39243 0.84516 0.1173 0.0
C2295 C 0.34047 0.88676 0.13661 0.0
C2296 C 0.34893 0.8632 0.11332 0.0
C2297 C 0.3338 0.86109 0.12151 0.0
C2298 C 0.32958 0.87296 0.13324 0.0
N2299 N 0.35952 0.87679 0.11667 0.0
C2300 C 0.35547 0.88848 0.12815 0.0
Co2301 Co 0.63625 0.86587 0.63175 0.0
Co2302 Co 0.63018 0.90736 0.63961 0.0
O2303 O 0.64095 0.8896 0.62819 0.0
C2304 C 0.67197 0.87148 0.64104 0.0
O2305 O 0.66698 0.88316 0.651 0.0
C2306 C 0.62164 0.91704 0.60453 0.0
O2307 O 0.61178 0.90356 0.60248 0.0
O2308 O 0.60777 0.89656 0.63445 0.0
O2309 O 0.61132 0.86901 0.63161 0.0
H2310 H 0.58909 0.93154 0.67816 0.0
H2311 H 0.65782 0.87721 0.60408 0.0
O2312 O 0.66125 0.86283 0.63203 0.0
H2313 H 0.61031 0.84482 0.57722 0.0
H2314 H 0.64586 0.80508 0.62242 0.0
H2315 H 0.61292 0.84548 0.65236 0.0
H2316 H 0.61218 0.84826 0.60781 0.0
H2317 H 0.65087 0.83535 0.61828 0.0
O2318 O 0.6296 0.92006 0.61827 0.0
H2319 H 0.60321 0.90892 0.66413 0.0
H2320 H 0.63375 0.9445 0.6384 0.0
H2321 H 0.60739 0.81532 0.65677 0.0
H2322 H 0.65652 0.87396 0.57346 0.0
H2323 H 0.62393 0.7949 0.64174 0.0
H2324 H 0.63262 0.85769 0.55984 0.0
O2325 O 0.63722 0.86871 0.65651 0.0
H2326 H 0.68893 0.92735 0.62685 0.0
H2327 H 0.64693 0.92166 0.67058 0.0
H2328 H 0.67509 0.93396 0.67773 0.0
H2329 H 0.69631 0.93689 0.65578 0.0
H2330 H 0.66066 0.91499 0.62027 0.0
H2331 H 0.61986 0.96751 0.65204 0.0
H2332 H 0.59741 0.96109 0.67214 0.0
O2333 O 0.63088 0.89525 0.6611 0.0
C2334 C 0.60201 0.88152 0.63239 0.0
C2335 C 0.5989 0.9345 0.66948 0.0
C2336 C 0.61616 0.95469 0.6548 0.0
N2337 N 0.61939 0.92539 0.65058 0.0
C2338 C 0.60698 0.92175 0.66153 0.0
C2339 C 0.62395 0.94161 0.64709 0.0
C2340 C 0.60356 0.95108 0.66608 0.0
C2341 C 0.64744 0.87001 0.59825 0.0
N2342 N 0.63513 0.86286 0.60772 0.0
C2343 C 0.64674 0.86826 0.5809 0.0
C2344 C 0.63332 0.85914 0.57327 0.0
C2345 C 0.6208 0.85192 0.58301 0.0
C2346 C 0.6219 0.85395 0.60033 0.0
C2347 C 0.63855 0.81385 0.62902 0.0
C2348 C 0.62009 0.83665 0.6457 0.0
C2349 C 0.64136 0.831 0.62675 0.0
N2350 N 0.63211 0.84213 0.63498 0.0
C2351 C 0.61694 0.8196 0.64828 0.0
C2352 C 0.62624 0.80815 0.63986 0.0
C2353 C 0.63421 0.88078 0.66624 0.0
C2354 C 0.67977 0.92619 0.63652 0.0
C2355 C 0.6561 0.92288 0.66096 0.0
C2356 C 0.67202 0.92988 0.66508 0.0
C2357 C 0.68392 0.93152 0.65275 0.0
N2358 N 0.65212 0.91771 0.64499 0.0
C2359 C 0.66372 0.91928 0.63284 0.0
Co2360 Co 0.8781 0.59138 0.88855 0.0
Co2361 Co 0.88667 0.63326 0.88165 0.0
O2362 O 0.88995 0.60973 0.87766 0.0
C2363 C 0.91353 0.58417 0.89699 0.0
O2364 O 0.91557 0.5983 0.90534 0.0
C2365 C 0.87778 0.6271 0.84618 0.0
O2366 O 0.86833 0.61468 0.85181 0.0
O2367 O 0.86186 0.62968 0.88092 0.0
O2368 O 0.85654 0.60266 0.88687 0.0
H2369 H 0.86227 0.68262 0.90913 0.0
H2370 H 0.89832 0.58529 0.85884 0.0
O2371 O 0.8995 0.57967 0.89007 0.0
H2372 H 0.84119 0.56362 0.84352 0.0
H2373 H 0.86535 0.5306 0.90041 0.0
H2374 H 0.8526 0.58841 0.91465 0.0
H2375 H 0.8476 0.57566 0.87148 0.0
H2376 H 0.87948 0.55437 0.88627 0.0
O2377 O 0.88624 0.63663 0.85654 0.0
H2378 H 0.86634 0.65268 0.90447 0.0
H2379 H 0.90043 0.66437 0.86611 0.0
H2380 H 0.83809 0.56501 0.92901 0.0
H2381 H 0.89251 0.57321 0.83079 0.0
H2382 H 0.84444 0.53586 0.92191 0.0
H2383 H 0.86374 0.56235 0.82294 0.0
O2384 O 0.88273 0.60204 0.91077 0.0
H2385 H 0.94494 0.62716 0.86149 0.0
H2386 H 0.91094 0.65119 0.90512 0.0
H2387 H 0.94167 0.65546 0.90684 0.0
H2388 H 0.95888 0.64342 0.88489 0.0
H2389 H 0.91419 0.62309 0.86033 0.0
H2390 H 0.89664 0.69445 0.87026 0.0
H2391 H 0.87749 0.70373 0.89194 0.0
O2392 O 0.8868 0.6297 0.90665 0.0
C2393 C 0.85179 0.61724 0.88366 0.0
C2394 C 0.87069 0.67873 0.89968 0.0
C2395 C 0.88997 0.68537 0.87784 0.0
N2396 N 0.88372 0.65683 0.88513 0.0
C2397 C 0.87309 0.66181 0.89702 0.0
C2398 C 0.89204 0.66834 0.87553 0.0
C2399 C 0.87922 0.69057 0.89002 0.0
C2400 C 0.88582 0.5804 0.8556 0.0
N2401 N 0.87333 0.58112 0.86683 0.0
C2402 C 0.88258 0.57365 0.83966 0.0
C2403 C 0.86644 0.56758 0.83526 0.0
C2404 C 0.85378 0.56831 0.84679 0.0
C2405 C 0.85747 0.57517 0.8626 0.0
C2406 C 0.86245 0.54325 0.90359 0.0
C2407 C 0.85535 0.57575 0.91142 0.0
C2408 C 0.87043 0.55675 0.89565 0.0
N2409 N 0.86676 0.57275 0.89954 0.0
C2410 C 0.84713 0.56256 0.91963 0.0
C2411 C 0.85071 0.54621 0.91565 0.0
C2412 C 0.88526 0.617 0.91622 0.0
C2413 C 0.93758 0.6325 0.8711 0.0
C2414 C 0.91835 0.64588 0.89555 0.0
C2415 C 0.93574 0.64837 0.89657 0.0
C2416 C 0.94539 0.64161 0.88424 0.0
N2417 N 0.91079 0.63698 0.88258 0.0
C2418 C 0.92016 0.63029 0.87047 0.0
Co2419 Co 0.86309 0.41478 0.15166 0.0
Co2420 Co 0.88897 0.38255 0.14426 0.0
O2421 O 0.86871 0.39451 0.14008 0.0
C2422 C 0.83418 0.39139 0.1567 0.0
O2423 O 0.84491 0.38022 0.16087 0.0
C2424 C 0.88911 0.39128 0.1086 0.0
O2425 O 0.88638 0.40638 0.11391 0.0
O2426 O 0.90343 0.40355 0.14344 0.0
O2427 O 0.88668 0.42377 0.15119 0.0
H2428 H 0.94413 0.37163 0.17231 0.0
H2429 H 0.8435 0.40382 0.12129 0.0
O2430 O 0.83933 0.40602 0.15257 0.0
H2431 H 0.86843 0.45948 0.10818 0.0
H2432 H 0.82659 0.46239 0.16383 0.0
H2433 H 0.87882 0.43561 0.17912 0.0
H2434 H 0.87329 0.44709 0.13582 0.0
H2435 H 0.8344 0.43691 0.14914 0.0
O2436 O 0.89107 0.37967 0.11921 0.0
H2437 H 0.91847 0.38684 0.1673 0.0
H2438 H 0.90256 0.35234 0.12897 0.0
H2439 H 0.87158 0.46114 0.19403 0.0
H2440 H 0.8382 0.4158 0.09354 0.0
H2441 H 0.84529 0.47471 0.1864 0.0
H2442 H 0.85076 0.4438 0.08683 0.0
O2443 O 0.86783 0.40465 0.17352 0.0
H2444 H 0.84307 0.3417 0.12398 0.0
H2445 H 0.8865 0.35397 0.16772 0.0
H2446 H 0.8683 0.32833 0.16945 0.0
H2447 H 0.8464 0.32206 0.14746 0.0
H2448 H 0.86146 0.36725 0.1228 0.0
H2449 H 0.9281 0.33683 0.13344 0.0
H2450 H 0.94906 0.34643 0.1553 0.0
O2451 O 0.88689 0.38545 0.16935 0.0
C2452 C 0.90089 0.41859 0.14745 0.0
C2453 C 0.93506 0.36729 0.16278 0.0
C2454 C 0.92608 0.34777 0.14095 0.0
N2455 N 0.909 0.37039 0.14795 0.0
C2456 C 0.9205 0.37582 0.15993 0.0
C2457 C 0.91167 0.35662 0.13845 0.0
C2458 C 0.93783 0.35317 0.15322 0.0
C2459 C 0.84884 0.41609 0.11852 0.0
N2460 N 0.8586 0.42479 0.13019 0.0
C2461 C 0.84586 0.42278 0.10277 0.0
C2462 C 0.85294 0.43848 0.099 0.0
C2463 C 0.86286 0.44728 0.11097 0.0
C2464 C 0.86559 0.44019 0.12659 0.0
C2465 C 0.83809 0.45661 0.16724 0.0
C2466 C 0.86742 0.44151 0.17565 0.0
C2467 C 0.84256 0.44217 0.15899 0.0
N2468 N 0.85712 0.43487 0.16318 0.0
C2469 C 0.86336 0.45593 0.18418 0.0
C2470 C 0.84859 0.46352 0.1799 0.0
C2471 C 0.8779 0.39401 0.17892 0.0
C2472 C 0.8526 0.34427 0.1336 0.0
C2473 C 0.87699 0.35134 0.15812 0.0
C2474 C 0.86674 0.33678 0.15914 0.0
C2475 C 0.85446 0.33327 0.1468 0.0
N2476 N 0.8751 0.36206 0.14513 0.0
C2477 C 0.8631 0.35868 0.13297 0.0
Co2478 Co 0.08894 0.36799 0.63893 0.0
Co2479 Co 0.11382 0.40143 0.62628 0.0
O2480 O 0.10551 0.37816 0.62437 0.0
C2481 C 0.10572 0.33801 0.64993 0.0
O2482 O 0.10345 0.34322 0.66523 0.0
C2483 C 0.10144 0.39722 0.59144 0.0
O2484 O 0.08767 0.39103 0.59805 0.0
O2485 O 0.09067 0.40931 0.62634 0.0
O2486 O 0.07691 0.38913 0.64059 0.0
H2487 H 0.11665 0.45989 0.64951 0.0
H2488 H 0.09556 0.35108 0.60694 0.0
O2489 O 0.10087 0.34663 0.63758 0.0
H2490 H 0.03586 0.36334 0.60368 0.0
H2491 H 0.04893 0.32176 0.65766 0.0
H2492 H 0.07335 0.37829 0.67024 0.0
H2493 H 0.05303 0.37091 0.62884 0.0
H2494 H 0.06958 0.33514 0.63907 0.0
O2495 O 0.1136 0.40261 0.601 0.0
H2496 H 0.10635 0.43041 0.64752 0.0
H2497 H 0.13898 0.42207 0.60776 0.0
H2498 H 0.05272 0.36539 0.68915 0.0
H2499 H 0.07879 0.3431 0.58163 0.0
H2500 H 0.04037 0.33693 0.6829 0.0
H2501 H 0.04873 0.3493 0.57986 0.0
O2502 O 0.10299 0.37516 0.65861 0.0
H2503 H 0.16025 0.36765 0.60545 0.0
H2504 H 0.14449 0.40879 0.64747 0.0
H2505 H 0.1732 0.39899 0.64797 0.0
H2506 H 0.18124 0.37831 0.62681 0.0
H2507 H 0.13164 0.37768 0.60549 0.0
H2508 H 0.14954 0.4515 0.60921 0.0
H2509 H 0.1384 0.47061 0.63025 0.0
O2510 O 0.11399 0.40046 0.65163 0.0
C2511 C 0.07807 0.40364 0.63426 0.0
C2512 C 0.12165 0.45167 0.64033 0.0
C2513 C 0.14009 0.44697 0.61769 0.0
N2514 N 0.12217 0.42452 0.62764 0.0
C2515 C 0.1159 0.43496 0.63918 0.0
C2516 C 0.13404 0.43034 0.61691 0.0
C2517 C 0.13384 0.45768 0.62951 0.0
C2518 C 0.08243 0.35361 0.60637 0.0
N2519 N 0.07527 0.36135 0.61941 0.0
C2520 C 0.07302 0.34914 0.59196 0.0
C2521 C 0.05616 0.35266 0.59096 0.0
C2522 C 0.04894 0.36055 0.60432 0.0
C2523 C 0.05874 0.36485 0.61852 0.0
C2524 C 0.0542 0.33418 0.6605 0.0
C2525 C 0.06799 0.36592 0.66741 0.0
C2526 C 0.06589 0.34182 0.65001 0.0
N2527 N 0.07259 0.35752 0.65352 0.0
C2528 C 0.05633 0.35867 0.67817 0.0
C2529 C 0.04941 0.3427 0.67466 0.0
C2530 C 0.11064 0.38906 0.66235 0.0
C2531 C 0.1569 0.37669 0.6147 0.0
C2532 C 0.14788 0.39973 0.63826 0.0
C2533 C 0.16416 0.39426 0.63859 0.0
C2534 C 0.16867 0.38267 0.62671 0.0
N2535 N 0.13644 0.39387 0.6264 0.0
C2536 C 0.14074 0.38246 0.61476 0.0
Co2537 Co 0.13704 0.59347 0.10946 0.0
Co2538 Co 0.12794 0.6332 0.12201 0.0
O2539 O 0.12544 0.60891 0.12335 0.0
C2540 C 0.10106 0.58248 0.10604 0.0
O2541 O 0.09696 0.59807 0.10692 0.0
C2542 C 0.13785 0.62514 0.15664 0.0
O2543 O 0.14751 0.61445 0.14976 0.0
O2544 O 0.15279 0.63287 0.12191 0.0
O2545 O 0.15809 0.60778 0.11126 0.0
H2546 H 0.15025 0.68809 0.09984 0.0
H2547 H 0.11909 0.58077 0.13897 0.0
O2548 O 0.11628 0.57865 0.10702 0.0
H2549 H 0.17796 0.56757 0.14897 0.0
H2550 H 0.15192 0.53653 0.08969 0.0
H2551 H 0.16027 0.59717 0.08139 0.0
H2552 H 0.16928 0.58144 0.12306 0.0
H2553 H 0.1378 0.55638 0.10747 0.0
O2554 O 0.12898 0.6343 0.14732 0.0
H2555 H 0.14712 0.65738 0.10118 0.0
H2556 H 0.1138 0.6608 0.14124 0.0
H2557 H 0.17474 0.57777 0.06341 0.0
H2558 H 0.1272 0.56678 0.16501 0.0
H2559 H 0.1706 0.5472 0.06751 0.0
H2560 H 0.15684 0.56015 0.17016 0.0
O2561 O 0.13034 0.60544 0.08909 0.0
H2562 H 0.07066 0.61836 0.14331 0.0
H2563 H 0.10252 0.64972 0.10097 0.0
H2564 H 0.07175 0.65029 0.10063 0.0
H2565 H 0.05561 0.63456 0.12194 0.0
H2566 H 0.10143 0.61796 0.14307 0.0
H2567 H 0.11668 0.69155 0.14043 0.0
H2568 H 0.13496 0.70538 0.11957 0.0
O2569 O 0.12717 0.63216 0.09664 0.0
C2570 C 0.1628 0.62233 0.11656 0.0
C2571 C 0.1422 0.68221 0.10895 0.0
C2572 C 0.12338 0.68415 0.13175 0.0
N2573 N 0.13018 0.65734 0.12118 0.0
C2574 C 0.14034 0.66483 0.10973 0.0
C2575 C 0.12183 0.66674 0.13217 0.0
C2576 C 0.13363 0.69191 0.12003 0.0
C2577 C 0.13197 0.57774 0.14104 0.0
N2578 N 0.14367 0.58181 0.12946 0.0
C2579 C 0.1365 0.56989 0.15584 0.0
C2580 C 0.15314 0.56621 0.15874 0.0
C2581 C 0.165 0.57037 0.14686 0.0
C2582 C 0.16001 0.57825 0.13221 0.0
C2583 C 0.15387 0.54982 0.08781 0.0
C2584 C 0.15852 0.58389 0.08334 0.0
C2585 C 0.14589 0.56112 0.09783 0.0
N2586 N 0.14837 0.57793 0.09559 0.0
C2587 C 0.1667 0.57297 0.07308 0.0
C2588 C 0.16435 0.55582 0.07538 0.0
C2589 C 0.12787 0.6206 0.08555 0.0
C2590 C 0.07756 0.6253 0.13399 0.0
C2591 C 0.09558 0.64276 0.11022 0.0
C2592 C 0.07816 0.64318 0.11 0.0
C2593 C 0.06912 0.63437 0.12198 0.0
N2594 N 0.10376 0.63384 0.12205 0.0
C2595 C 0.09499 0.62519 0.13385 0.0
Co2596 Co 0.92251 0.63911 0.62282 0.0
Co2597 Co 0.88137 0.62879 0.63122 0.0
O2598 O 0.90528 0.62696 0.63499 0.0
C2599 C 0.93184 0.60402 0.61786 0.0
O2600 O 0.91742 0.60057 0.61012 0.0
C2601 C 0.88796 0.63839 0.66641 0.0
O2602 O 0.89955 0.64864 0.66042 0.0
O2603 O 0.88368 0.65361 0.63146 0.0
O2604 O 0.90958 0.6597 0.62231 0.0
H2605 H 0.82958 0.65002 0.6038 0.0
H2606 H 0.93128 0.62204 0.65432 0.0
O2607 O 0.9358 0.61869 0.62331 0.0
H2608 H 0.94808 0.68138 0.66402 0.0
H2609 H 0.98223 0.65516 0.6095 0.0
H2610 H 0.923 0.66223 0.59414 0.0
H2611 H 0.93581 0.67185 0.63684 0.0
H2612 H 0.95976 0.64067 0.62511 0.0
O2613 O 0.87877 0.62919 0.65635 0.0
H2614 H 0.86 0.64773 0.6082 0.0
H2615 H 0.85145 0.61349 0.64751 0.0
H2616 H 0.94506 0.67705 0.57828 0.0
H2617 H 0.94364 0.63101 0.68162 0.0
H2618 H 0.97493 0.67356 0.58594 0.0
H2619 H 0.95206 0.66089 0.68663 0.0
O2620 O 0.91164 0.63199 0.60128 0.0
H2621 H 0.89155 0.57141 0.65261 0.0
H2622 H 0.86392 0.60351 0.60858 0.0
H2623 H 0.86135 0.57274 0.60765 0.0
H2624 H 0.87521 0.55649 0.62979 0.0
H2625 H 0.89389 0.60219 0.65299 0.0
H2626 H 0.82094 0.61551 0.64366 0.0
H2627 H 0.80983 0.63383 0.62162 0.0
O2628 O 0.88407 0.62862 0.60608 0.0
C2629 C 0.89519 0.66388 0.62666 0.0
C2630 C 0.83427 0.64195 0.61341 0.0
C2631 C 0.82941 0.6226 0.6358 0.0
N2632 N 0.85745 0.63038 0.628 0.0
C2633 C 0.85146 0.64057 0.61592 0.0
C2634 C 0.84669 0.62154 0.63795 0.0
C2635 C 0.82319 0.63288 0.62342 0.0
C2636 C 0.93513 0.63502 0.65632 0.0
N2637 N 0.93294 0.64638 0.64395 0.0
C2638 C 0.94204 0.64004 0.67184 0.0
C2639 C 0.94673 0.65682 0.67465 0.0
C2640 C 0.94449 0.66832 0.66197 0.0
C2641 C 0.93751 0.66285 0.64662 0.0
C2642 C 0.96926 0.65682 0.60607 0.0
C2643 C 0.93596 0.66074 0.59762 0.0
C2644 C 0.95649 0.64862 0.61484 0.0
N2645 N 0.94009 0.65073 0.61063 0.0
C2646 C 0.9484 0.66912 0.58856 0.0
C2647 C 0.96516 0.66714 0.59285 0.0
C2648 C 0.89647 0.62943 0.59621 0.0
C2649 C 0.88542 0.57836 0.64291 0.0
C2650 C 0.87001 0.59652 0.61824 0.0
C2651 C 0.86849 0.5791 0.61766 0.0
C2652 C 0.87626 0.56999 0.6301 0.0
N2653 N 0.87897 0.60462 0.63088 0.0
C2654 C 0.88665 0.59578 0.6431 0.0
Co2655 Co 0.1335 0.42817 0.87073 0.0
Co2656 Co 0.10473 0.39514 0.87603 0.0
O2657 O 0.12597 0.40743 0.88114 0.0
C2658 C 0.16075 0.4058 0.86366 0.0
O2659 O 0.14932 0.39442 0.85863 0.0
C2660 C 0.10381 0.40428 0.91169 0.0
O2661 O 0.10796 0.41938 0.90657 0.0
O2662 O 0.09186 0.41582 0.87633 0.0
O2663 O 0.11084 0.43692 0.87206 0.0
H2664 H 0.04971 0.38285 0.84569 0.0
H2665 H 0.15192 0.41608 0.90041 0.0
O2666 O 0.1565 0.41985 0.86918 0.0
H2667 H 0.13265 0.47111 0.9168 0.0
H2668 H 0.17433 0.47673 0.86105 0.0
H2669 H 0.11955 0.4498 0.84461 0.0
H2670 H 0.1267 0.45988 0.88842 0.0
H2671 H 0.16427 0.45061 0.87435 0.0
O2672 O 0.10146 0.39245 0.90095 0.0
H2673 H 0.07645 0.39863 0.85188 0.0
H2674 H 0.08799 0.36479 0.89042 0.0
H2675 H 0.12906 0.47598 0.83108 0.0
H2676 H 0.15825 0.42689 0.92889 0.0
H2677 H 0.15664 0.48963 0.83931 0.0
H2678 H 0.14851 0.45456 0.93726 0.0
O2679 O 0.12776 0.41875 0.84822 0.0
H2680 H 0.1462 0.35508 0.89771 0.0
H2681 H 0.1058 0.36651 0.85228 0.0
H2682 H 0.12176 0.34107 0.85102 0.0
H2683 H 0.14211 0.33521 0.87387 0.0
H2684 H 0.13007 0.38044 0.89841 0.0
H2685 H 0.0613 0.34871 0.88476 0.0
H2686 H 0.04199 0.3577 0.86221 0.0
O2687 O 0.10802 0.398 0.85125 0.0
C2688 C 0.09595 0.4312 0.87422 0.0
C2689 C 0.05804 0.37878 0.85552 0.0
C2690 C 0.06454 0.35963 0.87747 0.0
N2691 N 0.0838 0.38255 0.87141 0.0
C2692 C 0.07322 0.38764 0.85904 0.0
C2693 C 0.0796 0.3688 0.88064 0.0
C2694 C 0.05371 0.36468 0.8648 0.0
C2695 C 0.14782 0.42821 0.90391 0.0
N2696 N 0.13904 0.43737 0.89275 0.0
C2697 C 0.15137 0.43424 0.92007 0.0
C2698 C 0.14588 0.44975 0.92476 0.0
C2699 C 0.13697 0.45904 0.91329 0.0
C2700 C 0.13363 0.45261 0.89725 0.0
C2701 C 0.16228 0.47092 0.85739 0.0
C2702 C 0.13152 0.45572 0.84831 0.0
C2703 C 0.15654 0.45611 0.86485 0.0
N2704 N 0.14128 0.44877 0.86035 0.0
C2705 C 0.13686 0.47051 0.84058 0.0
C2706 C 0.15234 0.47815 0.84519 0.0
C2707 C 0.11749 0.4074 0.84222 0.0
C2708 C 0.13733 0.35747 0.88771 0.0
C2709 C 0.11466 0.36406 0.86225 0.0
C2710 C 0.12364 0.34962 0.86149 0.0
C2711 C 0.13505 0.34634 0.87431 0.0
N2712 N 0.11693 0.37489 0.87545 0.0
C2713 C 0.12811 0.37178 0.88807 0.0
Co2714 Co 0.12013 0.65579 0.36468 0.0
Co2715 Co 0.14356 0.62135 0.3717 0.0
O2716 O 0.13908 0.6449 0.37465 0.0
C2717 C 0.1366 0.68195 0.34435 0.0
O2718 O 0.12725 0.67609 0.33171 0.0
C2719 C 0.13746 0.62619 0.40763 0.0
O2720 O 0.12508 0.63511 0.40259 0.0
O2721 O 0.11944 0.614 0.37329 0.0
O2722 O 0.10455 0.63688 0.3707 0.0
H2723 H 0.13532 0.56396 0.34634 0.0
H2724 H 0.14222 0.67433 0.38948 0.0
O2725 O 0.13575 0.67495 0.35854 0.0
H2726 H 0.08614 0.67225 0.41357 0.0
H2727 H 0.08486 0.70478 0.35261 0.0
H2728 H 0.09144 0.6448 0.34249 0.0
H2729 H 0.09052 0.6596 0.38602 0.0
H2730 H 0.10856 0.69065 0.36544 0.0
O2731 O 0.14635 0.6191 0.39688 0.0
H2732 H 0.1295 0.59364 0.35008 0.0
H2733 H 0.16789 0.5991 0.38757 0.0
H2734 H 0.06752 0.65842 0.32944 0.0
H2735 H 0.13834 0.68736 0.41697 0.0
H2736 H 0.06413 0.68863 0.33446 0.0
H2737 H 0.11016 0.6863 0.42922 0.0
O2738 O 0.12384 0.64493 0.34278 0.0
H2739 H 0.19711 0.65253 0.38982 0.0
H2740 H 0.1702 0.61379 0.34797 0.0
H2741 H 0.20001 0.62255 0.3455 0.0
H2742 H 0.21367 0.64202 0.36656 0.0
H2743 H 0.1673 0.64356 0.39173 0.0
H2744 H 0.17404 0.56945 0.38434 0.0
H2745 H 0.15773 0.55169 0.36355 0.0
O2746 O 0.14062 0.62355 0.34671 0.0
C2747 C 0.10569 0.62132 0.37308 0.0
C2748 C 0.14254 0.57158 0.3554 0.0
C2749 C 0.16426 0.57466 0.37675 0.0
N2750 N 0.14842 0.59809 0.36895 0.0
C2751 C 0.13934 0.5884 0.35754 0.0
C2752 C 0.1607 0.59142 0.37856 0.0
C2753 C 0.15511 0.5647 0.36508 0.0
C2754 C 0.12987 0.67399 0.39464 0.0
N2755 N 0.1166 0.66629 0.3861 0.0
C2756 C 0.12777 0.68133 0.41024 0.0
C2757 C 0.11196 0.6807 0.41712 0.0
C2758 C 0.09848 0.67281 0.40836 0.0
C2759 C 0.10105 0.66562 0.39278 0.0
C2760 C 0.08618 0.6916 0.35035 0.0
C2761 C 0.09001 0.65793 0.34478 0.0
C2762 C 0.09957 0.68353 0.35759 0.0
N2763 N 0.10134 0.6669 0.35476 0.0
C2764 C 0.07646 0.66558 0.33734 0.0
C2765 C 0.07456 0.68254 0.34016 0.0
C2766 C 0.13222 0.63306 0.33725 0.0
C2767 C 0.19131 0.64401 0.38059 0.0
C2768 C 0.17604 0.62232 0.35714 0.0
C2769 C 0.19293 0.6272 0.3557 0.0
C2770 C 0.20059 0.63812 0.36753 0.0
N2771 N 0.16705 0.62809 0.37004 0.0
C2772 C 0.17445 0.63884 0.38164 0.0
Co2773 Co 0.90179 0.36209 0.38636 0.0
Co2774 Co 0.87536 0.39372 0.39357 0.0
O2775 O 0.8836 0.37174 0.39788 0.0
C2776 C 0.87468 0.33594 0.38057 0.0
O2777 O 0.86588 0.34685 0.37258 0.0
C2778 C 0.88585 0.39381 0.42898 0.0
O2779 O 0.89998 0.38885 0.42325 0.0
O2780 O 0.89843 0.40439 0.39415 0.0
O2781 O 0.91462 0.384 0.38571 0.0
H2782 H 0.87311 0.44921 0.36526 0.0
H2783 H 0.8897 0.34678 0.41766 0.0
O2784 O 0.88915 0.33996 0.38676 0.0
H2785 H 0.94926 0.36274 0.42883 0.0
H2786 H 0.94136 0.31684 0.37502 0.0
H2787 H 0.92285 0.37194 0.35782 0.0
H2788 H 0.93614 0.36777 0.40128 0.0
H2789 H 0.91882 0.3301 0.38981 0.0
O2790 O 0.87406 0.39717 0.41865 0.0
H2791 H 0.88368 0.4213 0.37032 0.0
H2792 H 0.84898 0.41313 0.4089 0.0
H2793 H 0.94552 0.35921 0.34278 0.0
H2794 H 0.90236 0.3414 0.44533 0.0
H2795 H 0.95492 0.33146 0.35137 0.0
H2796 H 0.93234 0.34946 0.45108 0.0
O2797 O 0.89136 0.36716 0.36449 0.0
H2798 H 0.82808 0.3564 0.4141 0.0
H2799 H 0.84608 0.39539 0.37008 0.0
H2800 H 0.81764 0.38201 0.36851 0.0
H2801 H 0.80847 0.36239 0.39065 0.0
H2802 H 0.85644 0.36996 0.41512 0.0
H2803 H 0.83812 0.44102 0.40437 0.0
H2804 H 0.85017 0.45923 0.38236 0.0
O2805 O 0.8769 0.39017 0.36851 0.0
C2806 C 0.91234 0.39915 0.38949 0.0
C2807 C 0.86772 0.44137 0.37485 0.0
C2808 C 0.8481 0.43678 0.39682 0.0
N2809 N 0.86686 0.41558 0.3898 0.0
C2810 C 0.87362 0.42554 0.37774 0.0
C2811 C 0.85432 0.42103 0.39936 0.0
C2812 C 0.85486 0.44699 0.38446 0.0
C2813 C 0.90281 0.35013 0.42 0.0
N2814 N 0.9122 0.35747 0.40783 0.0
C2815 C 0.90988 0.34712 0.43572 0.0
C2816 C 0.9267 0.35168 0.43894 0.0
C2817 C 0.9362 0.35915 0.42647 0.0
C2818 C 0.92869 0.36199 0.4109 0.0
C2819 C 0.93742 0.32897 0.3712 0.0
C2820 C 0.92698 0.35994 0.36173 0.0
C2821 C 0.92465 0.33653 0.37951 0.0
N2822 N 0.91968 0.35188 0.37481 0.0
C2823 C 0.93977 0.35276 0.35312 0.0
C2824 C 0.94502 0.33718 0.35793 0.0
C2825 C 0.88292 0.37911 0.35901 0.0
C2826 C 0.83191 0.36497 0.4044 0.0
C2827 C 0.84219 0.38684 0.37975 0.0
C2828 C 0.82606 0.37932 0.3788 0.0
C2829 C 0.82092 0.36832 0.39123 0.0
N2830 N 0.85287 0.38354 0.39274 0.0
C2831 C 0.84794 0.37273 0.40495 0.0
C2832 C 0.08841 0.31218 0.38373 0.0
C2833 C 0.10151 0.32443 0.38579 0.0
C2834 C 0.09179 0.29535 0.38236 0.0
C2835 C 0.12405 0.2658 0.39278 0.0
H2836 H 0.0953 0.23579 0.36526 0.0
C2837 C 0.11673 0.19579 0.4056 0.0
C2838 C 0.11408 0.1844 0.39226 0.0
C2839 C 0.11752 0.21292 0.40279 0.0
C2840 C 0.10365 0.24399 0.37281 0.0
H2841 H 0.12847 0.32864 0.38766 0.0
H2842 H 0.13439 0.29917 0.38507 0.0
H2843 H 0.09244 0.26578 0.36344 0.0
H2844 H 0.1107 0.18211 0.36541 0.0
H2845 H 0.11225 0.21218 0.36046 0.0
H2846 H 0.13531 0.24402 0.40209 0.0
C2847 C 0.12148 0.3026 0.38478 0.0
C2848 C 0.10185 0.26119 0.37194 0.0
C2849 C 0.11809 0.31948 0.38624 0.0
C2850 C 0.11264 0.19056 0.37596 0.0
C2851 C 0.11347 0.20778 0.37314 0.0
C2852 C 0.12591 0.24861 0.39359 0.0
C2853 C 0.10835 0.29033 0.38289 0.0
C2854 C 0.11171 0.27227 0.38225 0.0
C2855 C 0.11578 0.21916 0.38656 0.0
C2856 C 0.11542 0.23747 0.38396 0.0
H2857 H 0.07548 0.31554 0.38338 0.0
H2858 H 0.08135 0.28625 0.38126 0.0
H2859 H 0.13182 0.27394 0.40095 0.0
H2860 H 0.1179 0.19151 0.41833 0.0
H2861 H 0.119 0.22128 0.41346 0.0
C2862 C 0.3189 0.65369 0.88973 0.0
C2863 C 0.32847 0.64413 0.87918 0.0
C2864 C 0.3015 0.65334 0.88781 0.0
C2865 C 0.26648 0.64063 0.85812 0.0
H2866 H 0.24018 0.64084 0.89803 0.0
C2867 C 0.19655 0.61947 0.85932 0.0
C2868 C 0.18594 0.62945 0.86833 0.0
C2869 C 0.21384 0.62281 0.85993 0.0
C2870 C 0.24737 0.64098 0.88678 0.0
H2871 H 0.32722 0.6267 0.8583 0.0
H2872 H 0.29688 0.62567 0.85529 0.0
H2873 H 0.27059 0.6435 0.90052 0.0
H2874 H 0.1852 0.65088 0.88493 0.0
H2875 H 0.21551 0.65654 0.88617 0.0
H2876 H 0.24313 0.63747 0.84448 0.0
C2877 C 0.30282 0.6338 0.86479 0.0
C2878 C 0.2648 0.64255 0.88817 0.0
C2879 C 0.32024 0.6343 0.86659 0.0
C2880 C 0.19301 0.64297 0.87782 0.0
C2881 C 0.21035 0.64617 0.87861 0.0
C2882 C 0.24904 0.63886 0.85675 0.0
C2883 C 0.29321 0.64326 0.87542 0.0
C2884 C 0.2746 0.64228 0.87387 0.0
C2885 C 0.22092 0.63607 0.86972 0.0
C2886 C 0.23933 0.63891 0.87107 0.0
H2887 H 0.32484 0.66152 0.89948 0.0
H2888 H 0.29457 0.66104 0.89603 0.0
H2889 H 0.27357 0.64071 0.84682 0.0
H2890 H 0.19153 0.60898 0.85185 0.0
H2891 H 0.22171 0.61474 0.85308 0.0
C2892 C 0.89573 0.8155 0.3748 0.0
C2893 C 0.88801 0.82252 0.3885 0.0
C2894 C 0.89417 0.79826 0.37182 0.0
C2895 C 0.88418 0.75893 0.39431 0.0
H2896 H 0.88371 0.73906 0.35007 0.0
C2897 C 0.87657 0.68787 0.38403 0.0
C2898 C 0.88872 0.68111 0.374 0.0
C2899 C 0.87472 0.70509 0.38454 0.0
C2900 C 0.88385 0.74447 0.36249 0.0
H2901 H 0.87172 0.81725 0.4092 0.0
H2902 H 0.86849 0.78745 0.40369 0.0
H2903 H 0.88351 0.76939 0.35317 0.0
H2904 H 0.90793 0.68711 0.35608 0.0
H2905 H 0.90458 0.71711 0.35694 0.0
H2906 H 0.88445 0.73404 0.40361 0.0
C2907 C 0.87629 0.79503 0.39558 0.0
C2908 C 0.88382 0.76184 0.36428 0.0
C2909 C 0.87806 0.81215 0.39868 0.0
C2910 C 0.89851 0.6919 0.36401 0.0
C2911 C 0.89652 0.70908 0.3644 0.0
C2912 C 0.88403 0.74162 0.39251 0.0
C2913 C 0.88466 0.78777 0.38238 0.0
C2914 C 0.88408 0.76929 0.38024 0.0
C2915 C 0.88484 0.71588 0.37491 0.0
C2916 C 0.88398 0.73422 0.3766 0.0
H2917 H 0.90349 0.82321 0.36676 0.0
H2918 H 0.90091 0.79311 0.36162 0.0
H2919 H 0.8848 0.76418 0.4068 0.0
H2920 H 0.86881 0.67993 0.39186 0.0
H2921 H 0.86551 0.71001 0.39265 0.0
C2922 C 0.83158 0.3706 0.89406 0.0
C2923 C 0.83945 0.38395 0.88553 0.0
C2924 C 0.81418 0.36828 0.89364 0.0
C2925 C 0.7761 0.37765 0.86991 0.0
H2926 H 0.75448 0.37153 0.91225 0.0
C2927 C 0.70435 0.37965 0.8766 0.0
C2928 C 0.69674 0.36924 0.88852 0.0
C2929 C 0.72176 0.38083 0.87541 0.0
C2930 C 0.76027 0.37292 0.90026 0.0
H2931 H 0.83514 0.40506 0.86948 0.0
H2932 H 0.80472 0.40084 0.86865 0.0
H2933 H 0.78483 0.37442 0.91155 0.0
H2934 H 0.70141 0.35131 0.90799 0.0
H2935 H 0.73159 0.35292 0.90553 0.0
H2936 H 0.75157 0.37591 0.85856 0.0
C2937 C 0.81208 0.39223 0.87568 0.0
C2938 C 0.77769 0.37465 0.8999 0.0
C2939 C 0.8295 0.39468 0.87625 0.0
C2940 C 0.70687 0.35962 0.89881 0.0
C2941 C 0.72422 0.36063 0.89747 0.0
C2942 C 0.75865 0.37573 0.87024 0.0
C2943 C 0.80426 0.37912 0.88453 0.0
C2944 C 0.78577 0.37706 0.88474 0.0
C2945 C 0.73194 0.37148 0.88598 0.0
C2946 C 0.75051 0.37335 0.88544 0.0
H2947 H 0.83884 0.36208 0.90131 0.0
H2948 H 0.80845 0.35798 0.90045 0.0
H2949 H 0.78205 0.37937 0.85803 0.0
H2950 H 0.69689 0.38728 0.86854 0.0
H2951 H 0.72725 0.38945 0.86653 0.0
C2952 C 0.14305 0.6838 0.61734 0.0
C2953 C 0.1307 0.67528 0.62662 0.0
C2954 C 0.14447 0.70124 0.61749 0.0
C2955 C 0.13525 0.73807 0.64211 0.0
H2956 H 0.13721 0.76126 0.59994 0.0
C2957 C 0.14845 0.80879 0.61411 0.0
C2958 C 0.13955 0.81808 0.62549 0.0
C2959 C 0.14794 0.7914 0.61479 0.0
C2960 C 0.13697 0.75503 0.61186 0.0
H2961 H 0.11035 0.67842 0.64355 0.0
H2962 H 0.11304 0.70884 0.64393 0.0
H2963 H 0.13568 0.73088 0.60018 0.0
H2964 H 0.12319 0.81638 0.64659 0.0
H2965 H 0.12185 0.78599 0.64745 0.0
H2966 H 0.13688 0.76215 0.65386 0.0
C2967 C 0.12155 0.70199 0.63653 0.0
C2968 C 0.13602 0.7376 0.61196 0.0
C2969 C 0.11997 0.68458 0.63621 0.0
C2970 C 0.13026 0.80959 0.63769 0.0
C2971 C 0.12957 0.79214 0.63823 0.0
C2972 C 0.13642 0.75552 0.64203 0.0
C2973 C 0.13375 0.71049 0.6271 0.0
C2974 C 0.13509 0.72896 0.62707 0.0
C2975 C 0.13832 0.78282 0.62671 0.0
C2976 C 0.13725 0.76423 0.6269 0.0
H2977 H 0.15151 0.67703 0.60982 0.0
H2978 H 0.15405 0.7075 0.61019 0.0
H2979 H 0.13471 0.73169 0.65394 0.0
H2980 H 0.15588 0.81494 0.60465 0.0
H2981 H 0.15516 0.78471 0.60596 0.0
C2982 C 0.69363 0.61136 0.13122 0.0
C2983 C 0.6875 0.60879 0.11477 0.0
C2984 C 0.71088 0.61195 0.13478 0.0
C2985 C 0.74992 0.59715 0.11898 0.0
H2986 H 0.77216 0.63347 0.14457 0.0
C2987 C 0.81954 0.59687 0.13835 0.0
C2988 C 0.82929 0.61141 0.13468 0.0
C2989 C 0.80211 0.59675 0.13734 0.0
C2990 C 0.76608 0.62326 0.13741 0.0
H2991 H 0.69463 0.60479 0.08917 0.0
H2992 H 0.72455 0.60556 0.09544 0.0
H2993 H 0.74169 0.63272 0.14011 0.0
H2994 H 0.82823 0.63743 0.12771 0.0
H2995 H 0.79769 0.63718 0.12607 0.0
H2996 H 0.77419 0.58771 0.11615 0.0
C2997 C 0.71607 0.60715 0.10556 0.0
C2998 C 0.74868 0.62277 0.13498 0.0
C2999 C 0.69892 0.6068 0.10198 0.0
C3000 C 0.82113 0.62598 0.1305 0.0
C3001 C 0.80364 0.62589 0.12966 0.0
C3002 C 0.76723 0.59752 0.12159 0.0
C3003 C 0.72223 0.6097 0.12198 0.0
C3004 C 0.74048 0.6098 0.12556 0.0
C3005 C 0.79398 0.6112 0.13283 0.0
C3006 C 0.77551 0.61065 0.1307 0.0
H3007 H 0.68513 0.61302 0.14132 0.0
H3008 H 0.71534 0.61388 0.14755 0.0
H3009 H 0.74389 0.58696 0.11176 0.0
H3010 H 0.82533 0.58545 0.14179 0.0
H3011 H 0.79497 0.58531 0.14004 0.0
C3012 C 0.86402 0.18177 0.61064 0.0
C3013 C 0.86908 0.17268 0.62466 0.0
C3014 C 0.86444 0.19917 0.61118 0.0
C3015 C 0.86498 0.23561 0.63909 0.0
H3016 H 0.88802 0.25831 0.60315 0.0
C3017 C 0.86868 0.30771 0.63029 0.0
C3018 C 0.88493 0.3146 0.62791 0.0
C3019 C 0.86556 0.29038 0.63004 0.0
C3020 C 0.88153 0.25212 0.61324 0.0
H3021 H 0.87787 0.1748 0.65047 0.0
H3022 H 0.87847 0.20527 0.65138 0.0
H3023 H 0.88443 0.22791 0.60268 0.0
H3024 H 0.9106 0.30879 0.62331 0.0
H3025 H 0.90505 0.27867 0.6226 0.0
H3026 H 0.86222 0.25993 0.64967 0.0
C3027 C 0.87426 0.19884 0.63999 0.0
C3028 C 0.87938 0.23477 0.61292 0.0
C3029 C 0.87402 0.18141 0.63941 0.0
C3030 C 0.89794 0.30387 0.6252 0.0
C3031 C 0.89477 0.28664 0.62471 0.0
C3032 C 0.86694 0.25303 0.63929 0.0
C3033 C 0.86972 0.20787 0.62579 0.0
C3034 C 0.87124 0.22633 0.62591 0.0
C3035 C 0.87858 0.27972 0.62712 0.0
C3036 C 0.87543 0.26141 0.62646 0.0
H3037 H 0.85995 0.17551 0.59912 0.0
H3038 H 0.86069 0.20584 0.60012 0.0
H3039 H 0.85858 0.22938 0.6492 0.0
H3040 H 0.85843 0.31568 0.63249 0.0
H3041 H 0.85295 0.28531 0.63188 0.0
C3042 C 0.30798 0.37329 0.13165 0.0
C3043 C 0.3169 0.38681 0.12445 0.0
C3044 C 0.29048 0.3731 0.1323 0.0
C3045 C 0.255 0.39229 0.11068 0.0
H3046 H 0.22864 0.3755 0.14737 0.0
C3047 C 0.18718 0.40834 0.11829 0.0
C3048 C 0.17532 0.39503 0.12023 0.0
C3049 C 0.20422 0.40573 0.11947 0.0
C3050 C 0.2359 0.38004 0.13699 0.0
H3051 H 0.31476 0.41124 0.11347 0.0
H3052 H 0.28456 0.4112 0.11516 0.0
H3053 H 0.25924 0.3744 0.14889 0.0
H3054 H 0.17203 0.3686 0.12545 0.0
H3055 H 0.20214 0.3641 0.1278 0.0
H3056 H 0.23182 0.39843 0.09903 0.0
C3057 C 0.29085 0.40043 0.11971 0.0
C3058 C 0.25337 0.37941 0.13783 0.0
C3059 C 0.30819 0.40053 0.11887 0.0
C3060 C 0.1809 0.37907 0.12379 0.0
C3061 C 0.19806 0.3765 0.12523 0.0
C3062 C 0.23768 0.39307 0.10993 0.0
C3063 C 0.28171 0.3865 0.12589 0.0
C3064 C 0.26313 0.38589 0.12481 0.0
C3065 C 0.20983 0.3898 0.12282 0.0
C3066 C 0.22799 0.38726 0.12318 0.0
H3067 H 0.31441 0.36253 0.136 0.0
H3068 H 0.28382 0.36218 0.13715 0.0
H3069 H 0.26206 0.3969 0.10018 0.0
H3070 H 0.18334 0.4208 0.11555 0.0
H3071 H 0.21307 0.41621 0.11773 0.0
C3072 C 0.37295 0.1133 0.19166 0.0
C3073 C 0.37136 0.12759 0.18195 0.0
C3074 C 0.37132 0.11413 0.2089 0.0
C3075 C 0.36023 0.14202 0.24427 0.0
H3076 H 0.39041 0.11399 0.26831 0.0
C3077 C 0.36132 0.13612 0.3164 0.0
C3078 C 0.37625 0.13171 0.32433 0.0
C3079 C 0.36027 0.13731 0.29901 0.0
C3080 C 0.38212 0.12219 0.26189 0.0
H3081 H 0.36637 0.15383 0.18236 0.0
H3082 H 0.36441 0.15561 0.21264 0.0
H3083 H 0.38869 0.11248 0.23835 0.0
H3084 H 0.4021 0.12633 0.32072 0.0
H3085 H 0.40075 0.1296 0.2906 0.0
H3086 H 0.35449 0.15245 0.26797 0.0
C3087 C 0.3663 0.14357 0.207 0.0
C3088 C 0.38081 0.121 0.24457 0.0
C3089 C 0.36745 0.1426 0.18964 0.0
C3090 C 0.39041 0.12962 0.31481 0.0
C3091 C 0.38952 0.13128 0.29752 0.0
C3092 C 0.36181 0.14347 0.26167 0.0
C3093 C 0.3687 0.12943 0.21691 0.0
C3094 C 0.36974 0.13077 0.23548 0.0
C3095 C 0.37426 0.13445 0.28929 0.0
C3096 C 0.37278 0.13353 0.27072 0.0
H3097 H 0.37586 0.10156 0.18593 0.0
H3098 H 0.37263 0.10282 0.21597 0.0
H3099 H 0.35146 0.14968 0.23777 0.0
H3100 H 0.35018 0.13761 0.32354 0.0
H3101 H 0.34827 0.13964 0.2932 0.0
C3102 C 0.36381 0.88405 0.68734 0.0
C3103 C 0.37827 0.87906 0.67963 0.0
C3104 C 0.36247 0.88316 0.70464 0.0
C3105 C 0.3832 0.86577 0.74273 0.0
H3106 H 0.35748 0.89846 0.76505 0.0
C3107 C 0.37918 0.8656 0.81406 0.0
C3108 C 0.37869 0.88104 0.82225 0.0
C3109 C 0.37676 0.86447 0.79678 0.0
C3110 C 0.36492 0.88935 0.75911 0.0
H3111 H 0.40278 0.86947 0.68377 0.0
H3112 H 0.40103 0.86891 0.71399 0.0
H3113 H 0.35895 0.89868 0.73499 0.0
H3114 H 0.37529 0.90739 0.81918 0.0
H3115 H 0.37213 0.90577 0.78892 0.0
H3116 H 0.3904 0.85736 0.76685 0.0
C3117 C 0.39031 0.87278 0.7068 0.0
C3118 C 0.3655 0.88925 0.74171 0.0
C3119 C 0.39142 0.87322 0.68946 0.0
C3120 C 0.37545 0.89531 0.81304 0.0
C3121 C 0.37356 0.8943 0.79569 0.0
C3122 C 0.38302 0.86617 0.76013 0.0
C3123 C 0.37579 0.87772 0.71468 0.0
C3124 C 0.37471 0.8775 0.73324 0.0
C3125 C 0.37445 0.87889 0.78725 0.0
C3126 C 0.37392 0.878 0.76862 0.0
H3127 H 0.35342 0.88845 0.67996 0.0
H3128 H 0.35091 0.88667 0.71006 0.0
H3129 H 0.39013 0.85624 0.73679 0.0
H3130 H 0.38164 0.85444 0.82103 0.0
H3131 H 0.377 0.85229 0.79094 0.0
C3132 C 0.6311 0.87867 0.18869 0.0
C3133 C 0.61449 0.87642 0.18266 0.0
C3134 C 0.63485 0.87745 0.20578 0.0
C3135 C 0.61662 0.86303 0.24585 0.0
H3136 H 0.64546 0.89868 0.26534 0.0
C3137 C 0.62275 0.87317 0.31724 0.0
C3138 C 0.62207 0.88986 0.32253 0.0
C3139 C 0.62497 0.86935 0.30041 0.0
C3140 C 0.63737 0.88863 0.2601 0.0
H3141 H 0.58887 0.87063 0.1898 0.0
H3142 H 0.59532 0.8689 0.21933 0.0
H3143 H 0.64328 0.89548 0.23515 0.0
H3144 H 0.62336 0.91561 0.31435 0.0
H3145 H 0.62674 0.90895 0.28516 0.0
H3146 H 0.60984 0.85688 0.27073 0.0
C3147 C 0.60554 0.8713 0.21097 0.0
C3148 C 0.6363 0.88665 0.24278 0.0
C3149 C 0.60181 0.87249 0.19398 0.0
C3150 C 0.62385 0.90261 0.31072 0.0
C3151 C 0.62598 0.8988 0.29395 0.0
C3152 C 0.6176 0.86509 0.26316 0.0
C3153 C 0.62206 0.87393 0.21713 0.0
C3154 C 0.62548 0.87418 0.23544 0.0
C3155 C 0.6265 0.88213 0.28855 0.0
C3156 C 0.62756 0.87827 0.27046 0.0
H3157 H 0.64116 0.8816 0.18026 0.0
H3158 H 0.64773 0.87941 0.21012 0.0
H3159 H 0.60843 0.85307 0.2406 0.0
H3160 H 0.62157 0.86307 0.32608 0.0
H3161 H 0.62546 0.85638 0.29669 0.0
C3162 C 0.62221 0.13761 0.81811 0.0
C3163 C 0.6325 0.12785 0.82812 0.0
C3164 C 0.62327 0.13724 0.80076 0.0
C3165 C 0.63439 0.11025 0.76655 0.0
H3166 H 0.63573 0.15074 0.74045 0.0
C3167 C 0.62402 0.13219 0.69379 0.0
C3168 C 0.63197 0.11931 0.68567 0.0
C3169 C 0.62487 0.13365 0.71118 0.0
C3170 C 0.63513 0.1393 0.74752 0.0
H3171 H 0.65212 0.11017 0.82771 0.0
H3172 H 0.65376 0.10938 0.79734 0.0
H3173 H 0.6358 0.15259 0.77084 0.0
H3174 H 0.64745 0.09817 0.68945 0.0
H3175 H 0.64937 0.10105 0.71961 0.0
H3176 H 0.63317 0.09687 0.74339 0.0
C3177 C 0.64491 0.11732 0.803 0.0
C3178 C 0.63526 0.14039 0.76492 0.0
C3179 C 0.64402 0.11785 0.82038 0.0
C3180 C 0.64104 0.10814 0.6953 0.0
C3181 C 0.64205 0.10973 0.71264 0.0
C3182 C 0.63406 0.10914 0.74916 0.0
C3183 C 0.63449 0.12695 0.79303 0.0
C3184 C 0.63488 0.12587 0.7746 0.0
C3185 C 0.63384 0.1224 0.72084 0.0
C3186 C 0.63442 0.12365 0.73939 0.0
H3187 H 0.61323 0.14549 0.82365 0.0
H3188 H 0.61499 0.14468 0.79337 0.0
H3189 H 0.63384 0.09885 0.77371 0.0
H3190 H 0.61687 0.14095 0.68674 0.0
H3191 H 0.61818 0.14341 0.71704 0.0
C3192 C 0.90902 0.81599 0.63304 0.0
C3193 C 0.89427 0.82444 0.63465 0.0
C3194 C 0.90867 0.79862 0.63388 0.0
C3195 C 0.88079 0.76081 0.64298 0.0
H3196 H 0.91276 0.73959 0.61552 0.0
C3197 C 0.88615 0.68911 0.6415 0.0
C3198 C 0.8923 0.68178 0.62713 0.0
C3199 C 0.88556 0.70646 0.64278 0.0
C3200 C 0.90347 0.7452 0.623 0.0
H3201 H 0.86765 0.8217 0.63848 0.0
H3202 H 0.86671 0.79131 0.63885 0.0
H3203 H 0.91327 0.76954 0.61727 0.0
H3204 H 0.90174 0.68642 0.60251 0.0
H3205 H 0.89949 0.7165 0.60408 0.0
H3206 H 0.87017 0.73638 0.64763 0.0
C3207 C 0.87874 0.79793 0.63771 0.0
C3208 C 0.90405 0.76255 0.62438 0.0
C3209 C 0.87921 0.81536 0.63743 0.0
C3210 C 0.89707 0.69189 0.61376 0.0
C3211 C 0.89597 0.70916 0.6148 0.0
C3212 C 0.8799 0.74342 0.64122 0.0
C3213 C 0.89344 0.78926 0.63566 0.0
C3214 C 0.89281 0.77065 0.63448 0.0
C3215 C 0.8907 0.71677 0.62953 0.0
C3216 C 0.89127 0.73534 0.63123 0.0
H3217 H 0.92079 0.82283 0.63098 0.0
H3218 H 0.92037 0.79257 0.63284 0.0
H3219 H 0.87204 0.76646 0.65108 0.0
H3220 H 0.88261 0.68149 0.65205 0.0
H3221 H 0.88167 0.71173 0.65442 0.0
C3222 C 0.80459 0.39945 0.15389 0.0
C3223 C 0.81606 0.38691 0.15593 0.0
C3224 C 0.78755 0.3953 0.15183 0.0
C3225 C 0.75467 0.36154 0.15575 0.0
H3226 H 0.73354 0.38516 0.11956 0.0
C3227 C 0.68324 0.3564 0.13843 0.0
C3228 C 0.67914 0.3561 0.12127 0.0
C3229 C 0.69993 0.35889 0.14395 0.0
C3230 C 0.73926 0.37838 0.12964 0.0
H3231 H 0.81862 0.36023 0.1581 0.0
H3232 H 0.78874 0.35295 0.15417 0.0
H3233 H 0.76253 0.39221 0.12736 0.0
H3234 H 0.68935 0.35709 0.09647 0.0
H3235 H 0.71828 0.36123 0.10607 0.0
H3236 H 0.73126 0.34746 0.15768 0.0
C3237 C 0.79296 0.366 0.15438 0.0
C3238 C 0.75583 0.38257 0.13426 0.0
C3239 C 0.81007 0.37016 0.15653 0.0
C3240 C 0.69206 0.35752 0.10978 0.0
C3241 C 0.70864 0.35994 0.11527 0.0
C3242 C 0.73797 0.35736 0.15113 0.0
C3243 C 0.78158 0.37853 0.15163 0.0
C3244 C 0.76375 0.37419 0.14732 0.0
C3245 C 0.71273 0.3611 0.13239 0.0
C3246 C 0.73019 0.36564 0.1379 0.0
H3247 H 0.80878 0.41249 0.15361 0.0
H3248 H 0.77905 0.40526 0.15008 0.0
H3249 H 0.76044 0.35494 0.16592 0.0
H3250 H 0.67354 0.35534 0.14757 0.0
H3251 H 0.70274 0.35977 0.15722 0.0
C3252 C 0.1275 0.18834 0.64213 0.0
C3253 C 0.1233 0.18166 0.6262 0.0
C3254 C 0.12807 0.20557 0.64492 0.0
C3255 C 0.1309 0.2462 0.62344 0.0
H3256 H 0.10921 0.26219 0.66269 0.0
C3257 C 0.1109 0.31391 0.63104 0.0
C3258 C 0.11173 0.32114 0.64708 0.0
C3259 C 0.11477 0.29728 0.62869 0.0
C3260 C 0.1156 0.25797 0.65182 0.0
H3261 H 0.11661 0.18797 0.60068 0.0
H3262 H 0.11748 0.21796 0.60564 0.0
H3263 H 0.11127 0.23235 0.65831 0.0
H3264 H 0.11816 0.31687 0.67309 0.0
H3265 H 0.12515 0.28797 0.66894 0.0
H3266 H 0.135 0.27187 0.61685 0.0
C3267 C 0.12053 0.20987 0.61591 0.0
C3268 C 0.11675 0.24084 0.6493 0.0
C3269 C 0.11991 0.19265 0.61311 0.0
C3270 C 0.11724 0.31163 0.66059 0.0
C3271 C 0.12116 0.29503 0.65823 0.0
C3272 C 0.12978 0.26336 0.62598 0.0
C3273 C 0.12449 0.21651 0.63187 0.0
C3274 C 0.12425 0.23475 0.63499 0.0
C3275 C 0.1196 0.28755 0.64232 0.0
C3276 C 0.12195 0.26943 0.64012 0.0
H3277 H 0.13024 0.18028 0.6525 0.0
H3278 H 0.13133 0.21033 0.65732 0.0
H3279 H 0.13697 0.24189 0.61241 0.0
H3280 H 0.10668 0.32089 0.62036 0.0
H3281 H 0.11328 0.29187 0.61629 0.0
C3282 C 0.19124 0.6184 0.10576 0.0
C3283 C 0.18086 0.62707 0.1163 0.0
C3284 C 0.20826 0.62276 0.1052 0.0
C3285 C 0.24384 0.6395 0.12899 0.0
H3286 H 0.2633 0.64646 0.08568 0.0
C3287 C 0.31555 0.64959 0.1199 0.0
C3288 C 0.3218 0.64125 0.10609 0.0
C3289 C 0.29827 0.65019 0.12195 0.0
C3290 C 0.2581 0.64444 0.09787 0.0
H3291 H 0.18029 0.64696 0.13473 0.0
H3292 H 0.21044 0.6543 0.13403 0.0
H3293 H 0.23301 0.64337 0.08786 0.0
H3294 H 0.31484 0.62657 0.08389 0.0
H3295 H 0.28497 0.62726 0.08765 0.0
H3296 H 0.26896 0.63969 0.13891 0.0
C3297 C 0.20516 0.64428 0.12609 0.0
C3298 C 0.24077 0.6428 0.0991 0.0
C3299 C 0.18797 0.64012 0.12643 0.0
C3300 C 0.31046 0.63327 0.09458 0.0
C3301 C 0.29329 0.63378 0.09667 0.0
C3302 C 0.26126 0.64094 0.12774 0.0
C3303 C 0.21538 0.6357 0.11535 0.0
C3304 C 0.23351 0.6399 0.1146 0.0
C3305 C 0.28695 0.64241 0.11024 0.0
C3306 C 0.26857 0.64296 0.11207 0.0
H3307 H 0.1862 0.60831 0.09778 0.0
H3308 H 0.21594 0.61586 0.09695 0.0
H3309 H 0.23847 0.63719 0.14107 0.0
H3310 H 0.32398 0.65587 0.12898 0.0
H3311 H 0.29379 0.65698 0.13251 0.0
C3312 C 0.87499 0.1859 0.38731 0.0
C3313 C 0.85979 0.17647 0.38715 0.0
C3314 C 0.87527 0.20299 0.38439 0.0
C3315 C 0.84891 0.23829 0.37191 0.0
H3316 H 0.88238 0.26302 0.39928 0.0
C3317 C 0.86174 0.30998 0.36738 0.0
C3318 C 0.86851 0.31846 0.38155 0.0
C3319 C 0.85867 0.29266 0.36768 0.0
C3320 C 0.8727 0.25642 0.39177 0.0
H3321 H 0.833 0.1771 0.38327 0.0
H3322 H 0.83326 0.20727 0.3791 0.0
H3323 H 0.88115 0.23303 0.39973 0.0
H3324 H 0.87606 0.31607 0.40748 0.0
H3325 H 0.8696 0.28616 0.40846 0.0
H3326 H 0.83989 0.26194 0.36477 0.0
C3327 C 0.84507 0.20147 0.3809 0.0
C3328 C 0.87227 0.23907 0.3917 0.0
C3329 C 0.84487 0.18421 0.38333 0.0
C3330 C 0.87102 0.30969 0.39634 0.0
C3331 C 0.8675 0.29252 0.3968 0.0
C3332 C 0.84914 0.25576 0.37224 0.0
C3333 C 0.86026 0.21115 0.38189 0.0
C3334 C 0.86051 0.22972 0.38165 0.0
C3335 C 0.86199 0.28364 0.38229 0.0
C3336 C 0.86108 0.26505 0.38218 0.0
H3337 H 0.88666 0.18008 0.39005 0.0
H3338 H 0.88726 0.20986 0.38461 0.0
H3339 H 0.83973 0.23154 0.36393 0.0
H3340 H 0.85982 0.31657 0.3558 0.0
H3341 H 0.85454 0.28631 0.35623 0.0
C3342 C 0.18417 0.38877 0.85381 0.0
C3343 C 0.17874 0.40286 0.86225 0.0
C3344 C 0.20127 0.38673 0.8518 0.0
C3345 C 0.24189 0.41119 0.85296 0.0
H3346 H 0.26145 0.3687 0.86119 0.0
C3347 C 0.30913 0.40542 0.87601 0.0
C3348 C 0.31917 0.39427 0.86781 0.0
C3349 C 0.29212 0.40576 0.87206 0.0
C3350 C 0.25609 0.38055 0.85855 0.0
H3351 H 0.18702 0.42555 0.87565 0.0
H3352 H 0.21659 0.42184 0.87245 0.0
H3353 H 0.23097 0.3704 0.86079 0.0
H3354 H 0.31926 0.37464 0.84907 0.0
H3355 H 0.28909 0.37494 0.84246 0.0
H3356 H 0.267 0.42149 0.85163 0.0
C3357 C 0.20773 0.41258 0.86697 0.0
C3358 C 0.23867 0.38154 0.85832 0.0
C3359 C 0.19073 0.41464 0.86892 0.0
C3360 C 0.31181 0.38342 0.85551 0.0
C3361 C 0.29461 0.38353 0.85178 0.0
C3362 C 0.25922 0.41022 0.85335 0.0
C3363 C 0.21323 0.39874 0.85819 0.0
C3364 C 0.23143 0.397 0.85606 0.0
C3365 C 0.28468 0.39477 0.86001 0.0
C3366 C 0.26647 0.39501 0.85663 0.0
H3367 H 0.17522 0.37949 0.84851 0.0
H3368 H 0.20512 0.37594 0.84497 0.0
H3369 H 0.23669 0.42319 0.85072 0.0
H3370 H 0.3144 0.41396 0.8855 0.0
H3371 H 0.28468 0.41442 0.8787 0.0
C3372 C 0.15637 0.83202 0.3639 0.0
C3373 C 0.14695 0.83453 0.37816 0.0
C3374 C 0.15907 0.81583 0.35829 0.0
C3375 C 0.15788 0.77225 0.37338 0.0
H3376 H 0.15503 0.76019 0.32647 0.0
C3377 C 0.1575 0.70382 0.35509 0.0
C3378 C 0.14479 0.69877 0.34347 0.0
C3379 C 0.16267 0.72064 0.35674 0.0
C3380 C 0.15587 0.76335 0.33963 0.0
H3381 H 0.13238 0.82214 0.39729 0.0
H3382 H 0.13664 0.79412 0.3873 0.0
H3383 H 0.15313 0.78931 0.33487 0.0
H3384 H 0.12842 0.70708 0.32361 0.0
H3385 H 0.13682 0.73641 0.32696 0.0
H3386 H 0.15937 0.74639 0.37838 0.0
C3387 C 0.14244 0.80453 0.38073 0.0
C3388 C 0.15496 0.78008 0.34443 0.0
C3389 C 0.13987 0.82062 0.38638 0.0
C3390 C 0.13828 0.71062 0.33266 0.0
C3391 C 0.14319 0.72749 0.33455 0.0
C3392 C 0.15859 0.75558 0.36863 0.0
C3393 C 0.15233 0.80191 0.36681 0.0
C3394 C 0.15542 0.78462 0.3614 0.0
C3395 C 0.15492 0.7328 0.34712 0.0
C3396 C 0.15714 0.75081 0.35172 0.0
H3397 H 0.16201 0.84252 0.35733 0.0
H3398 H 0.16676 0.81423 0.34755 0.0
H3399 H 0.15872 0.77538 0.38655 0.0
H3400 H 0.16287 0.69486 0.36344 0.0
H3401 H 0.17213 0.72419 0.36619 0.0
C3402 C 0.82216 0.60566 0.88238 0.0
C3403 C 0.83358 0.61957 0.88236 0.0
C3404 C 0.805 0.60771 0.88094 0.0
C3405 C 0.77338 0.63712 0.88961 0.0
H3406 H 0.74494 0.60762 0.86119 0.0
C3407 C 0.70373 0.62307 0.90096 0.0
C3408 C 0.69243 0.62286 0.88722 0.0
C3409 C 0.72091 0.62474 0.89864 0.0
C3410 C 0.75274 0.61609 0.86901 0.0
H3411 H 0.83585 0.6466 0.8809 0.0
H3412 H 0.80573 0.65015 0.87867 0.0
H3413 H 0.77536 0.60665 0.85993 0.0
H3414 H 0.69041 0.62416 0.86022 0.0
H3415 H 0.72062 0.62676 0.8562 0.0
H3416 H 0.75076 0.64619 0.89907 0.0
C3417 C 0.81018 0.63767 0.87968 0.0
C3418 C 0.7701 0.61544 0.86839 0.0
C3419 C 0.82741 0.63561 0.88093 0.0
C3420 C 0.69876 0.62432 0.87108 0.0
C3421 C 0.71603 0.62577 0.86875 0.0
C3422 C 0.75602 0.63764 0.89036 0.0
C3423 C 0.79884 0.62372 0.87962 0.0
C3424 C 0.78057 0.62572 0.87892 0.0
C3425 C 0.72724 0.62604 0.88254 0.0
C3426 C 0.74554 0.6269 0.8803 0.0
H3427 H 0.82642 0.59312 0.88353 0.0
H3428 H 0.79652 0.59676 0.8812 0.0
H3429 H 0.78116 0.64512 0.89791 0.0
H3430 H 0.69936 0.6219 0.91357 0.0
H3431 H 0.72928 0.62463 0.90947 0.0
C3432 C 0.64956 0.86671 0.81883 0.0
C3433 C 0.63893 0.87848 0.82519 0.0
C3434 C 0.6527 0.86618 0.80174 0.0
C3435 C 0.65144 0.89111 0.76361 0.0
H3436 H 0.6386 0.84973 0.74019 0.0
C3437 C 0.64374 0.86476 0.69131 0.0
C3438 C 0.63594 0.87857 0.68449 0.0
C3439 C 0.64671 0.86376 0.70856 0.0
C3440 C 0.64255 0.86128 0.74654 0.0
H3441 H 0.62389 0.89937 0.81893 0.0
H3442 H 0.62968 0.89871 0.78932 0.0
H3443 H 0.64049 0.85021 0.77071 0.0
H3444 H 0.6245 0.90176 0.69056 0.0
H3445 H 0.62936 0.89982 0.72037 0.0
H3446 H 0.65318 0.90232 0.73963 0.0
C3447 C 0.63549 0.88982 0.79743 0.0
C3448 C 0.64365 0.86155 0.76399 0.0
C3449 C 0.6321 0.89014 0.81436 0.0
C3450 C 0.63071 0.89103 0.69531 0.0
C3451 C 0.63363 0.89 0.71244 0.0
C3452 C 0.65046 0.89082 0.74624 0.0
C3453 C 0.64556 0.87767 0.7909 0.0
C3454 C 0.64755 0.8766 0.77265 0.0
C3455 C 0.64194 0.87654 0.71926 0.0
C3456 C 0.6454 0.87606 0.73752 0.0
H3457 H 0.65486 0.85749 0.82692 0.0
H3458 H 0.66051 0.85671 0.79696 0.0
H3459 H 0.65469 0.90281 0.77001 0.0
H3460 H 0.64797 0.85498 0.68331 0.0
H3461 H 0.65312 0.85322 0.71346 0.0
C3462 C 0.63512 0.15597 0.19203 0.0
C3463 C 0.62823 0.14045 0.18628 0.0
C3464 C 0.63986 0.15821 0.20886 0.0
C3465 C 0.65324 0.13836 0.24657 0.0
H3466 H 0.62102 0.1625 0.27128 0.0
C3467 C 0.65215 0.14285 0.31913 0.0
C3468 C 0.63812 0.13325 0.32437 0.0
C3469 C 0.65332 0.14763 0.30244 0.0
C3470 C 0.63032 0.15607 0.2645 0.0
H3471 H 0.62173 0.11493 0.19316 0.0
H3472 H 0.63069 0.11869 0.22239 0.0
H3473 H 0.62046 0.16336 0.24068 0.0
H3474 H 0.61398 0.12186 0.31669 0.0
H3475 H 0.61576 0.1308 0.28769 0.0
H3476 H 0.66271 0.13056 0.27037 0.0
C3477 C 0.63218 0.12912 0.21398 0.0
C3478 C 0.63004 0.15659 0.24709 0.0
C3479 C 0.62702 0.127 0.19733 0.0
C3480 C 0.62493 0.12924 0.31293 0.0
C3481 C 0.62591 0.1344 0.29641 0.0
C3482 C 0.65378 0.13815 0.26399 0.0
C3483 C 0.63825 0.14481 0.21994 0.0
C3484 C 0.64113 0.14729 0.23802 0.0
C3485 C 0.64025 0.1433 0.29097 0.0
C3486 C 0.64195 0.14654 0.27303 0.0
H3487 H 0.63602 0.16654 0.18373 0.0
H3488 H 0.64441 0.17044 0.21332 0.0
H3489 H 0.66177 0.13097 0.23975 0.0
H3490 H 0.66252 0.14598 0.32773 0.0
H3491 H 0.66452 0.15442 0.2984 0.0
C3492 C 0.37575 0.11101 0.69266 0.0
C3493 C 0.37604 0.12442 0.68147 0.0
C3494 C 0.37476 0.11386 0.70978 0.0
C3495 C 0.38489 0.14547 0.74187 0.0
H3496 H 0.3569 0.11667 0.7694 0.0
C3497 C 0.39685 0.13797 0.8122 0.0
C3498 C 0.38308 0.13748 0.82274 0.0
C3499 C 0.39447 0.13811 0.79493 0.0
C3500 C 0.36462 0.12494 0.76186 0.0
H3501 H 0.37543 0.15137 0.67958 0.0
H3502 H 0.37385 0.15629 0.70955 0.0
H3503 H 0.3551 0.11355 0.73905 0.0
H3504 H 0.35596 0.13681 0.8233 0.0
H3505 H 0.35185 0.13685 0.79298 0.0
H3506 H 0.39465 0.15664 0.76468 0.0
C3507 C 0.37438 0.14359 0.70499 0.0
C3508 C 0.36371 0.12305 0.74452 0.0
C3509 C 0.37524 0.14075 0.68783 0.0
C3510 C 0.36684 0.13722 0.81556 0.0
C3511 C 0.36447 0.13718 0.79821 0.0
C3512 C 0.3859 0.14727 0.7592 0.0
C3513 C 0.37416 0.13017 0.71613 0.0
C3514 C 0.37402 0.13313 0.73438 0.0
C3515 C 0.37828 0.1376 0.78775 0.0
C3516 C 0.37597 0.13684 0.76937 0.0
H3517 H 0.37638 0.09828 0.68824 0.0
H3518 H 0.37485 0.10329 0.71809 0.0
H3519 H 0.39306 0.15334 0.73438 0.0
H3520 H 0.40953 0.13813 0.81725 0.0
H3521 H 0.40535 0.13819 0.78717 0.0
C3522 C 0.39551 0.86378 0.19135 0.0
C3523 C 0.38274 0.86368 0.17899 0.0
C3524 C 0.39174 0.86482 0.20815 0.0
C3525 C 0.35843 0.86139 0.23901 0.0
H3526 H 0.38681 0.89523 0.26217 0.0
C3527 C 0.35985 0.87447 0.31099 0.0
C3528 C 0.36168 0.89137 0.31581 0.0
C3529 C 0.36032 0.8699 0.29411 0.0
C3530 C 0.3787 0.88582 0.25588 0.0
H3531 H 0.3559 0.86362 0.17457 0.0
H3532 H 0.34929 0.86572 0.20419 0.0
H3533 H 0.39181 0.88871 0.23322 0.0
H3534 H 0.36418 0.91675 0.30669 0.0
H3535 H 0.36486 0.9088 0.27746 0.0
H3536 H 0.34522 0.85875 0.26191 0.0
C3537 C 0.36222 0.86485 0.20077 0.0
C3538 C 0.38169 0.88193 0.23933 0.0
C3539 C 0.366 0.86371 0.18384 0.0
C3540 C 0.36303 0.9036 0.30343 0.0
C3541 C 0.36345 0.89906 0.28667 0.0
C3542 C 0.35547 0.86524 0.25573 0.0
C3543 C 0.37512 0.86592 0.21303 0.0
C3544 C 0.37164 0.86967 0.2307 0.0
C3545 C 0.36261 0.88217 0.28185 0.0
C3546 C 0.36553 0.8776 0.26426 0.0
H3547 H 0.40851 0.86346 0.18803 0.0
H3548 H 0.40192 0.86523 0.21734 0.0
H3549 H 0.35052 0.85185 0.23265 0.0
H3550 H 0.35875 0.86477 0.32027 0.0
H3551 H 0.35967 0.85678 0.29073 0.0
C3552 C 0.11508 0.08537 0.56497 0.0
C3553 C 0.09986 0.09292 0.56736 0.0
C3554 C 0.11735 0.07572 0.5507 0.0
C3555 C 0.09576 0.05956 0.51115 0.0
H3556 H 0.13592 0.07867 0.49135 0.0
C3557 C 0.0979 0.08734 0.44718 0.0
C3558 C 0.11272 0.08819 0.43823 0.0
C3559 C 0.09704 0.07862 0.46209 0.0
C3560 C 0.12488 0.07271 0.49668 0.0
H3561 H 0.07453 0.09482 0.55759 0.0
H3562 H 0.07858 0.07855 0.53258 0.0
H3563 H 0.13303 0.0802 0.52121 0.0
H3564 H 0.13784 0.07959 0.43698 0.0
H3565 H 0.1365 0.0645 0.46347 0.0
H3566 H 0.08708 0.0535 0.48621 0.0
C3567 C 0.08876 0.07978 0.54173 0.0
C3568 C 0.12319 0.07358 0.51393 0.0
C3569 C 0.08645 0.08927 0.55608 0.0
C3570 C 0.12626 0.07902 0.44369 0.0
C3571 C 0.1255 0.07047 0.45883 0.0
C3572 C 0.09742 0.0588 0.49385 0.0
C3573 C 0.10451 0.0736 0.53845 0.0
C3574 C 0.1082 0.06792 0.52127 0.0
C3575 C 0.1111 0.07079 0.4685 0.0
C3576 C 0.11159 0.06625 0.48639 0.0
H3577 H 0.12558 0.08772 0.57361 0.0
H3578 H 0.1295 0.0708 0.54879 0.0
H3579 H 0.08424 0.05467 0.51644 0.0
H3580 H 0.08728 0.09427 0.44314 0.0
H3581 H 0.08583 0.07931 0.46928 0.0
C3582 C 0.4199 0.64224 0.94623 0.0
C3583 C 0.41863 0.65835 0.93975 0.0
C3584 C 0.42868 0.63982 0.9612 0.0
C3585 C 0.43795 0.66361 0.99964 0.0
H3586 H 0.45214 0.62059 0.01449 0.0
C3587 C 0.43106 0.64663 0.06739 0.0
C3588 C 0.41974 0.63275 0.06809 0.0
C3589 C 0.44009 0.64967 0.05291 0.0
C3590 C 0.4485 0.63279 0.01054 0.0
H3591 H 0.42725 0.68428 0.94286 0.0
H3592 H 0.44295 0.68001 0.9688 0.0
H3593 H 0.45167 0.62696 0.98476 0.0
H3594 H 0.40998 0.61039 0.05526 0.0
H3595 H 0.42585 0.61543 0.03019 0.0
H3596 H 0.43389 0.66911 0.02524 0.0
C3597 C 0.4367 0.6693 0.9626 0.0
C3598 C 0.44812 0.63641 0.9935 0.0
C3599 C 0.42776 0.67175 0.94767 0.0
C3600 C 0.4188 0.62108 0.05497 0.0
C3601 C 0.42795 0.62398 0.04064 0.0
C3602 C 0.43849 0.66005 0.01663 0.0
C3603 C 0.43655 0.65345 0.96999 0.0
C3604 C 0.44187 0.65148 0.98779 0.0
C3605 C 0.43795 0.63878 0.03908 0.0
C3606 C 0.44283 0.64425 0.02218 0.0
H3607 H 0.41313 0.6316 0.9404 0.0
H3608 H 0.42811 0.62744 0.96648 0.0
H3609 H 0.43295 0.67531 0.99582 0.0
H3610 H 0.43175 0.65588 0.07734 0.0
H3611 H 0.44774 0.66114 0.05206 0.0
C3612 C 0.90775 0.92063 0.44615 0.0
C3613 C 0.89158 0.9168 0.43969 0.0
C3614 C 0.91007 0.92737 0.46217 0.0
C3615 C 0.88845 0.94168 0.50006 0.0
H3616 H 0.91887 0.91225 0.5219 0.0
C3617 C 0.8824 0.91942 0.5679 0.0
C3618 C 0.89659 0.91356 0.57609 0.0
C3619 C 0.88365 0.92614 0.5519 0.0
C3620 C 0.91067 0.921 0.51616 0.0
H3621 H 0.86514 0.91792 0.44409 0.0
H3622 H 0.86911 0.92926 0.4724 0.0
H3623 H 0.91774 0.9135 0.49197 0.0
H3624 H 0.92338 0.91161 0.5751 0.0
H3625 H 0.92584 0.92432 0.54774 0.0
H3626 H 0.88094 0.94859 0.52454 0.0
C3627 C 0.88003 0.92756 0.46502 0.0
C3628 C 0.91001 0.9217 0.49884 0.0
C3629 C 0.87772 0.92107 0.44882 0.0
C3630 C 0.91226 0.91596 0.56888 0.0
C3631 C 0.9136 0.92309 0.55316 0.0
C3632 C 0.88919 0.94106 0.51753 0.0
C3633 C 0.89624 0.9299 0.47217 0.0
C3634 C 0.89864 0.93172 0.49054 0.0
C3635 C 0.89919 0.92734 0.54404 0.0
C3636 C 0.90004 0.93037 0.52578 0.0
H3637 H 0.91858 0.91731 0.43927 0.0
H3638 H 0.92271 0.92937 0.4672 0.0
H3639 H 0.8796 0.94959 0.49401 0.0
H3640 H 0.87017 0.91753 0.57323 0.0
H3641 H 0.87227 0.92917 0.54528 0.0
C3642 C 0.60375 0.37485 0.94887 0.0
C3643 C 0.60259 0.36109 0.93793 0.0
C3644 C 0.59316 0.37563 0.96231 0.0
C3645 C 0.57495 0.34746 0.99159 0.0
H3646 H 0.56188 0.38874 0.01174 0.0
C3647 C 0.57666 0.35378 0.06204 0.0
C3648 C 0.58743 0.36742 0.06677 0.0
C3649 C 0.5692 0.35307 0.04604 0.0
C3650 C 0.56522 0.37703 0.00626 0.0
H3651 H 0.58884 0.33781 0.93177 0.0
H3652 H 0.5705 0.33889 0.95581 0.0
H3653 H 0.56589 0.38727 0.9817 0.0
H3654 H 0.59813 0.3914 0.05934 0.0
H3655 H 0.58519 0.39033 0.03159 0.0
H3656 H 0.57585 0.33763 0.01622 0.0
C3657 C 0.57949 0.34918 0.95378 0.0
C3658 C 0.56747 0.37618 0.98907 0.0
C3659 C 0.58994 0.34856 0.94005 0.0
C3660 C 0.58961 0.38091 0.05596 0.0
C3661 C 0.58212 0.38026 0.04007 0.0
C3662 C 0.5728 0.34833 0.0088 0.0
C3663 C 0.58134 0.36252 0.96529 0.0
C3664 C 0.57336 0.36171 0.98175 0.0
C3665 C 0.57249 0.36598 0.03461 0.0
C3666 C 0.56897 0.36345 0.01644 0.0
H3667 H 0.61335 0.38472 0.94744 0.0
H3668 H 0.5951 0.38596 0.97105 0.0
H3669 H 0.57955 0.33615 0.98634 0.0
H3670 H 0.57507 0.34315 0.07019 0.0
H3671 H 0.56177 0.34196 0.04225 0.0
C3672 C 0.16336 0.91496 0.55904 0.0
C3673 C 0.15076 0.90879 0.56952 0.0
C3674 C 0.15934 0.92433 0.54506 0.0
C3675 C 0.12385 0.92645 0.5158 0.0
H3676 H 0.15637 0.95355 0.49163 0.0
C3677 C 0.1204 0.92747 0.44482 0.0
C3678 C 0.13504 0.92088 0.43894 0.0
C3679 C 0.12021 0.93416 0.461 0.0
C3680 C 0.14699 0.94625 0.49829 0.0
H3681 H 0.12433 0.90929 0.57469 0.0
H3682 H 0.11736 0.926 0.55048 0.0
H3683 H 0.15968 0.95085 0.52183 0.0
H3684 H 0.16115 0.91715 0.44443 0.0
H3685 H 0.161 0.9291 0.47242 0.0
H3686 H 0.11169 0.92113 0.49219 0.0
C3687 C 0.13029 0.92316 0.55276 0.0
C3688 C 0.14893 0.9446 0.51556 0.0
C3689 C 0.1343 0.91364 0.5667 0.0
C3690 C 0.14977 0.92228 0.44877 0.0
C3691 C 0.14967 0.92922 0.46473 0.0
C3692 C 0.12183 0.92824 0.49858 0.0
C3693 C 0.14263 0.9279 0.54131 0.0
C3694 C 0.13795 0.93385 0.52436 0.0
C3695 C 0.13473 0.93456 0.4713 0.0
C3696 C 0.13392 0.93736 0.48954 0.0
H3697 H 0.17619 0.91158 0.56092 0.0
H3698 H 0.16921 0.92761 0.53653 0.0
H3699 H 0.11516 0.91798 0.52204 0.0
H3700 H 0.10887 0.9263 0.43742 0.0
H3701 H 0.10852 0.93816 0.46578 0.0
C3702 C 0.59788 0.61931 0.94695 0.0
C3703 C 0.59909 0.60533 0.93652 0.0
C3704 C 0.5879 0.61843 0.9609 0.0
C3705 C 0.5782 0.58804 0.99167 0.0
H3706 H 0.55825 0.62544 0.01297 0.0
C3707 C 0.58383 0.59419 0.06177 0.0
C3708 C 0.59073 0.60992 0.06665 0.0
C3709 C 0.57566 0.59201 0.04623 0.0
C3710 C 0.56367 0.6148 0.00722 0.0
H3711 H 0.58992 0.57986 0.93164 0.0
H3712 H 0.57268 0.57811 0.95651 0.0
H3713 H 0.56028 0.62461 0.98265 0.0
H3714 H 0.59394 0.63587 0.0599 0.0
H3715 H 0.58018 0.63216 0.03262 0.0
H3716 H 0.58311 0.57894 0.01606 0.0
C3717 C 0.57933 0.58981 0.95373 0.0
C3718 C 0.56472 0.61429 0.98985 0.0
C3719 C 0.58913 0.59081 0.93952 0.0
C3720 C 0.58837 0.62369 0.05643 0.0
C3721 C 0.58042 0.6215 0.0408 0.0
C3722 C 0.5773 0.58863 0.00901 0.0
C3723 C 0.57914 0.60344 0.96488 0.0
C3724 C 0.57286 0.60136 0.982 0.0
C3725 C 0.5747 0.60547 0.03516 0.0
C3726 C 0.5709 0.6025 0.01706 0.0
H3727 H 0.6054 0.63068 0.94483 0.0
H3728 H 0.58821 0.62908 0.96931 0.0
H3729 H 0.58464 0.57797 0.98603 0.0
H3730 H 0.58573 0.58339 0.06949 0.0
H3731 H 0.57114 0.57956 0.04244 0.0
C3732 C 0.86091 0.07242 0.4409 0.0
C3733 C 0.87293 0.08572 0.44001 0.0
C3734 C 0.85907 0.06359 0.45578 0.0
C3735 C 0.87795 0.05621 0.49746 0.0
H3736 H 0.83496 0.06735 0.51425 0.0
C3737 C 0.87047 0.07973 0.56316 0.0
C3738 C 0.85455 0.0804 0.57001 0.0
C3739 C 0.87247 0.07176 0.54789 0.0
C3740 C 0.84684 0.06351 0.50985 0.0
H3741 H 0.8933 0.09941 0.45312 0.0
H3742 H 0.89047 0.0837 0.47889 0.0
H3743 H 0.83964 0.06852 0.4846 0.0
H3744 H 0.82866 0.07125 0.56734 0.0
H3745 H 0.83226 0.05673 0.54095 0.0
H3746 H 0.88539 0.05175 0.52276 0.0
C3747 C 0.88241 0.08011 0.46827 0.0
C3748 C 0.84952 0.06425 0.49274 0.0
C3749 C 0.88396 0.08918 0.4536 0.0
C3750 C 0.84104 0.07123 0.56223 0.0
C3751 C 0.8431 0.06301 0.54702 0.0
C3752 C 0.87518 0.05515 0.51457 0.0
C3753 C 0.86952 0.0677 0.46973 0.0
C3754 C 0.86537 0.06155 0.48653 0.0
C3755 C 0.85864 0.06402 0.53917 0.0
C3756 C 0.85994 0.05985 0.5211 0.0
H3757 H 0.8522 0.06969 0.43055 0.0
H3758 H 0.84898 0.05414 0.45667 0.0
H3759 H 0.89024 0.05392 0.49291 0.0
H3760 H 0.88121 0.08652 0.56887 0.0
H3761 H 0.88464 0.07298 0.54235 0.0
C3762 C 0.40867 0.41473 0.93994 0.0
C3763 C 0.40751 0.39918 0.93184 0.0
C3764 C 0.4149 0.41615 0.9563 0.0
C3765 C 0.43255 0.39266 0.99233 0.0
H3766 H 0.40078 0.4179 0.01638 0.0
C3767 C 0.41293 0.38044 0.06033 0.0
C3768 C 0.40727 0.39394 0.06944 0.0
C3769 C 0.41866 0.38284 0.04414 0.0
C3770 C 0.41008 0.41111 0.00997 0.0
H3771 H 0.41288 0.37312 0.93376 0.0
H3772 H 0.42311 0.37534 0.96273 0.0
H3773 H 0.401 0.41921 0.98643 0.0
H3774 H 0.40479 0.42067 0.0698 0.0
H3775 H 0.41543 0.42502 0.04192 0.0
H3776 H 0.44094 0.38394 0.01621 0.0
C3777 C 0.41974 0.38659 0.95638 0.0
C3778 C 0.41023 0.41189 0.99268 0.0
C3779 C 0.41386 0.38527 0.9398 0.0
C3780 C 0.4089 0.41005 0.06287 0.0
C3781 C 0.41491 0.4125 0.04689 0.0
C3782 C 0.43237 0.39186 0.00978 0.0
C3783 C 0.41951 0.4019 0.96506 0.0
C3784 C 0.42127 0.40251 0.98357 0.0
C3785 C 0.41898 0.39882 0.037 0.0
C3786 C 0.42095 0.40092 0.01876 0.0
H3787 H 0.40385 0.42561 0.93394 0.0
H3788 H 0.41503 0.42822 0.96245 0.0
H3789 H 0.44126 0.38535 0.98569 0.0
H3790 H 0.4117 0.36789 0.06519 0.0
H3791 H 0.42163 0.37203 0.03684 0.0
C3792 C 0.56234 0.12571 0.08656 0.0
C3793 C 0.56484 0.11599 0.10079 0.0
C3794 C 0.54666 0.12519 0.07833 0.0
C3795 C 0.50611 0.10129 0.07427 0.0
H3796 H 0.48578 0.14375 0.07966 0.0
C3797 C 0.44202 0.10656 0.09975 0.0
C3798 C 0.43182 0.11963 0.09537 0.0
C3799 C 0.45754 0.10523 0.09262 0.0
C3800 C 0.49125 0.13189 0.07749 0.0
H3801 H 0.55367 0.09736 0.11698 0.0
H3802 H 0.52653 0.09605 0.10243 0.0
H3803 H 0.51616 0.14266 0.08084 0.0
H3804 H 0.42946 0.14109 0.07942 0.0
H3805 H 0.45702 0.13894 0.06705 0.0
H3806 H 0.48122 0.09034 0.07201 0.0
C3807 C 0.53649 0.10415 0.09763 0.0
C3808 C 0.50867 0.13127 0.07819 0.0
C3809 C 0.55195 0.10498 0.10605 0.0
C3810 C 0.43711 0.1309 0.08303 0.0
C3811 C 0.45285 0.1297 0.07599 0.0
C3812 C 0.48873 0.10192 0.07343 0.0
C3813 C 0.53353 0.11459 0.08401 0.0
C3814 C 0.51616 0.11584 0.07761 0.0
C3815 C 0.46335 0.11701 0.08099 0.0
C3816 C 0.48111 0.11708 0.07614 0.0
H3817 H 0.57217 0.13437 0.08241 0.0
H3818 H 0.54461 0.13343 0.06793 0.0
H3819 H 0.51164 0.08926 0.0736 0.0
H3820 H 0.43823 0.09757 0.1091 0.0
H3821 H 0.46538 0.09547 0.09699 0.0
C3822 C 0.35928 0.94605 0.58442 0.0
C3823 C 0.37105 0.93444 0.58904 0.0
C3824 C 0.36444 0.96105 0.57696 0.0
C3825 C 0.4018 0.98875 0.57971 0.0
H3826 H 0.37321 0.01854 0.55586 0.0
C3827 C 0.41258 0.05815 0.59026 0.0
C3828 C 0.39799 0.06526 0.59573 0.0
C3829 C 0.41155 0.04316 0.5812 0.0
C3830 C 0.38144 0.01036 0.56241 0.0
H3831 H 0.39703 0.92833 0.58739 0.0
H3832 H 0.40595 0.95429 0.57394 0.0
H3833 H 0.36701 0.98842 0.55425 0.0
H3834 H 0.37085 0.06326 0.5943 0.0
H3835 H 0.36907 0.03705 0.579 0.0
H3836 H 0.41558 0.0105 0.58878 0.0
C3837 C 0.39284 0.95211 0.57661 0.0
C3838 C 0.37788 0.99311 0.5615 0.0
C3839 C 0.38771 0.9372 0.58425 0.0
C3840 C 0.38236 0.05803 0.59045 0.0
C3841 C 0.38133 0.043 0.58151 0.0
C3842 C 0.40534 0.00592 0.58061 0.0
C3843 C 0.38145 0.96464 0.57381 0.0
C3844 C 0.38755 0.98216 0.57082 0.0
C3845 C 0.39592 0.03494 0.57755 0.0
C3846 C 0.39474 0.01699 0.57266 0.0
H3847 H 0.34632 0.94427 0.58785 0.0
H3848 H 0.35529 0.97038 0.57506 0.0
H3849 H 0.40945 0.98081 0.58724 0.0
H3850 H 0.42483 0.06357 0.59387 0.0
H3851 H 0.42303 0.03747 0.57799 0.0
C3852 C 0.43316 0.86954 0.07461 0.0
C3853 C 0.43085 0.88211 0.08646 0.0
C3854 C 0.44825 0.86921 0.0662 0.0
C3855 C 0.48853 0.8931 0.05909 0.0
H3856 H 0.50867 0.85201 0.07178 0.0
C3857 C 0.55255 0.89145 0.08908 0.0
C3858 C 0.56212 0.87736 0.08797 0.0
C3859 C 0.53738 0.89207 0.08029 0.0
C3860 C 0.50327 0.8634 0.06758 0.0
H3861 H 0.44161 0.90468 0.09815 0.0
H3862 H 0.46772 0.90442 0.08327 0.0
H3863 H 0.47843 0.85336 0.07136 0.0
H3864 H 0.56404 0.85331 0.07593 0.0
H3865 H 0.53715 0.85424 0.06056 0.0
H3866 H 0.51347 0.90347 0.05645 0.0
C3867 C 0.45803 0.89486 0.0803 0.0
C3868 C 0.48588 0.86417 0.06736 0.0
C3869 C 0.44313 0.89501 0.08887 0.0
C3870 C 0.55686 0.86433 0.07695 0.0
C3871 C 0.54147 0.86484 0.06824 0.0
C3872 C 0.50592 0.8923 0.05922 0.0
C3873 C 0.46106 0.88158 0.06942 0.0
C3874 C 0.47841 0.87933 0.06412 0.0
C3875 C 0.53132 0.87851 0.07027 0.0
C3876 C 0.5135 0.87775 0.06452 0.0
H3877 H 0.42386 0.85935 0.07281 0.0
H3878 H 0.45027 0.85883 0.05791 0.0
H3879 H 0.48307 0.90487 0.05629 0.0
H3880 H 0.5564 0.90172 0.09741 0.0
H3881 H 0.52986 0.90269 0.08237 0.0
C3882 C 0.65018 0.05015 0.59053 0.0
C3883 C 0.63781 0.06055 0.59596 0.0
C3884 C 0.64578 0.03558 0.58149 0.0
C3885 C 0.61012 0.0053 0.57936 0.0
H3886 H 0.642 0.98006 0.55545 0.0
C3887 C 0.6072 0.93473 0.58372 0.0
C3888 C 0.62199 0.93026 0.59193 0.0
C3889 C 0.60675 0.94997 0.57537 0.0
C3890 C 0.63278 0.987 0.56182 0.0
H3891 H 0.61131 0.06495 0.59438 0.0
H3892 H 0.60366 0.03973 0.57818 0.0
H3893 H 0.64518 0.01049 0.55636 0.0
H3894 H 0.64824 0.93711 0.59643 0.0
H3895 H 0.64759 0.9634 0.58164 0.0
H3896 H 0.59824 0.98181 0.58555 0.0
C3897 C 0.61673 0.04251 0.5814 0.0
C3898 C 0.63466 0.00442 0.56247 0.0
C3899 C 0.62112 0.05703 0.59062 0.0
C3900 C 0.63667 0.94033 0.59022 0.0
C3901 C 0.63631 0.95534 0.58164 0.0
C3902 C 0.60813 0.98794 0.57853 0.0
C3903 C 0.62889 0.03115 0.57751 0.0
C3904 C 0.62399 0.0137 0.57218 0.0
C3905 C 0.62117 0.96072 0.57486 0.0
C3906 C 0.62003 0.97858 0.57063 0.0
H3907 H 0.66318 0.05256 0.59428 0.0
H3908 H 0.65555 0.02718 0.57887 0.0
H3909 H 0.60166 0.0119 0.58703 0.0
H3910 H 0.5957 0.92717 0.58495 0.0
H3911 H 0.59493 0.95383 0.57024 0.0
C3912 C 0.45575 0.89572 0.905 0.0
C3913 C 0.44311 0.88401 0.90954 0.0
C3914 C 0.47115 0.89661 0.9135 0.0
C3915 C 0.50312 0.89811 0.9338 0.0
H3916 H 0.52026 0.85384 0.93278 0.0
C3917 C 0.57255 0.88982 0.92302 0.0
C3918 C 0.57423 0.87972 0.90884 0.0
C3919 C 0.55743 0.88938 0.93147 0.0
C3920 C 0.51567 0.8663 0.93341 0.0
H3921 H 0.43613 0.86493 0.92737 0.0
H3922 H 0.46335 0.86632 0.94224 0.0
H3923 H 0.49021 0.85694 0.9327 0.0
H3924 H 0.56209 0.86021 0.89326 0.0
H3925 H 0.53598 0.85943 0.9078 0.0
H3926 H 0.52853 0.90746 0.93272 0.0
C3927 C 0.46128 0.8748 0.93205 0.0
C3928 C 0.49842 0.86808 0.93354 0.0
C3929 C 0.44571 0.87404 0.92359 0.0
C3930 C 0.56109 0.86828 0.90405 0.0
C3931 C 0.54615 0.86769 0.91255 0.0
C3932 C 0.52037 0.89632 0.93354 0.0
C3933 C 0.47436 0.88571 0.9267 0.0
C3934 C 0.49195 0.88401 0.93259 0.0
C3935 C 0.5439 0.87862 0.926 0.0
C3936 C 0.52675 0.88039 0.9322 0.0
H3937 H 0.45403 0.90368 0.8943 0.0
H3938 H 0.48093 0.90502 0.90885 0.0
H3939 H 0.4985 0.91056 0.93346 0.0
H3940 H 0.58252 0.89872 0.92699 0.0
H3941 H 0.55608 0.89789 0.94183 0.0
C3942 C 0.60744 0.94413 0.42294 0.0
C3943 C 0.62277 0.93873 0.41759 0.0
C3944 C 0.60659 0.95983 0.43045 0.0
C3945 C 0.63298 0.99858 0.44264 0.0
H3946 H 0.59622 0.02028 0.42092 0.0
C3947 C 0.63795 0.06061 0.40919 0.0
C3948 C 0.62535 0.07198 0.4107 0.0
C3949 C 0.63694 0.0455 0.41761 0.0
C3950 C 0.60634 0.01442 0.42747 0.0
H3951 H 0.64931 0.94475 0.41641 0.0
H3952 H 0.64792 0.97236 0.42873 0.0
H3953 H 0.59538 0.99015 0.42245 0.0
H3954 H 0.60214 0.07696 0.42258 0.0
H3955 H 0.59992 0.04992 0.43684 0.0
H3956 H 0.64463 0.02311 0.44593 0.0
C3957 C 0.63654 0.96448 0.42792 0.0
C3958 C 0.60588 0.99706 0.42843 0.0
C3959 C 0.63741 0.94863 0.42079 0.0
C3960 C 0.61202 0.06835 0.42132 0.0
C3961 C 0.61077 0.05297 0.42945 0.0
C3962 C 0.63357 0.01596 0.44136 0.0
C3963 C 0.62099 0.97062 0.43212 0.0
C3964 C 0.61957 0.98884 0.43528 0.0
C3965 C 0.6231 0.04132 0.42742 0.0
C3966 C 0.62057 0.02394 0.43312 0.0
H3967 H 0.59599 0.93663 0.42041 0.0
H3968 H 0.59447 0.9639 0.43392 0.0
H3969 H 0.64352 0.99276 0.44846 0.0
H3970 H 0.64839 0.06322 0.40113 0.0
H3971 H 0.64647 0.03664 0.41564 0.0
C3972 C 0.45352 0.10564 0.91264 0.0
C3973 C 0.44238 0.11844 0.91033 0.0
C3974 C 0.46862 0.10872 0.92152 0.0
C3975 C 0.4978 0.14456 0.92802 0.0
H3976 H 0.52595 0.11107 0.94654 0.0
C3977 C 0.56789 0.15455 0.92386 0.0
C3978 C 0.57486 0.14109 0.9157 0.0
C3979 C 0.55252 0.15237 0.9316 0.0
C3980 C 0.51823 0.12063 0.94153 0.0
H3981 H 0.43726 0.14378 0.91739 0.0
H3982 H 0.4634 0.14902 0.93327 0.0
H3983 H 0.49559 0.1059 0.94537 0.0
H3984 H 0.57209 0.11441 0.91095 0.0
H3985 H 0.54522 0.1107 0.92399 0.0
H3986 H 0.52026 0.15885 0.92318 0.0
C3987 C 0.46076 0.13678 0.92774 0.0
C3988 C 0.50084 0.11766 0.94084 0.0
C3989 C 0.44574 0.13375 0.9187 0.0
C3990 C 0.56701 0.12509 0.91697 0.0
C3991 C 0.55159 0.12293 0.92459 0.0
C3992 C 0.5151 0.14751 0.92872 0.0
C3993 C 0.4728 0.12462 0.92841 0.0
C3994 C 0.49049 0.12928 0.93335 0.0
C3995 C 0.54375 0.13671 0.93122 0.0
C3996 C 0.52559 0.13527 0.93475 0.0
H3997 H 0.45128 0.09366 0.90644 0.0
H3998 H 0.47756 0.09905 0.9217 0.0
H3999 H 0.49033 0.15374 0.92196 0.0
H4000 H 0.57377 0.16699 0.92336 0.0
H4001 H 0.547 0.16316 0.93695 0.0
C4002 C 0.37422 0.94336 0.42178 0.0
C4003 C 0.38542 0.94092 0.40894 0.0
C4004 C 0.37508 0.95841 0.43083 0.0
C4005 C 0.40054 0.99826 0.43753 0.0
H4006 H 0.35859 0.01906 0.42884 0.0
C4007 C 0.39662 0.0618 0.40924 0.0
C4008 C 0.38364 0.07223 0.41289 0.0
C4009 C 0.39768 0.04644 0.41701 0.0
C4010 C 0.37029 0.01346 0.4319 0.0
H4011 H 0.40694 0.95132 0.39619 0.0
H4012 H 0.40871 0.97734 0.41205 0.0
H4013 H 0.35929 0.9888 0.42838 0.0
H4014 H 0.36203 0.07519 0.42815 0.0
H4015 H 0.36365 0.04788 0.44155 0.0
H4016 H 0.41175 0.023 0.43968 0.0
C4017 C 0.39931 0.96782 0.41531 0.0
C4018 C 0.37069 0.99607 0.43166 0.0
C4019 C 0.39826 0.95298 0.40614 0.0
C4020 C 0.37217 0.06736 0.42511 0.0
C4021 C 0.37308 0.05177 0.43275 0.0
C4022 C 0.40013 0.01563 0.43778 0.0
C4023 C 0.3873 0.97101 0.42726 0.0
C4024 C 0.38601 0.98836 0.4334 0.0
C4025 C 0.38567 0.04103 0.42851 0.0
C4026 C 0.38519 0.02338 0.4339 0.0
H4027 H 0.36412 0.9342 0.42397 0.0
H4028 H 0.36567 0.96056 0.43995 0.0
H4029 H 0.41247 0.99262 0.4392 0.0
H4030 H 0.40573 0.06529 0.39999 0.0
H4031 H 0.40737 0.03838 0.41324 0.0
C4032 C 0.06963 0.44454 0.12624 0.0
C4033 C 0.0805 0.44003 0.11371 0.0
C4034 C 0.06119 0.45938 0.12496 0.0
C4035 C 0.0534 0.49493 0.09618 0.0
H4036 H 0.06752 0.52219 0.13463 0.0
C4037 C 0.09033 0.5559 0.09308 0.0
C4038 C 0.08816 0.56886 0.10449 0.0
C4039 C 0.08014 0.54133 0.09346 0.0
C4040 C 0.06294 0.51478 0.12395 0.0
H4041 H 0.08985 0.44643 0.08937 0.0
H4042 H 0.07531 0.47204 0.08708 0.0
H4043 H 0.06575 0.49198 0.13703 0.0
H4044 H 0.07335 0.57729 0.1248 0.0
H4045 H 0.05581 0.55121 0.126 0.0
H4046 H 0.05241 0.5178 0.08268 0.0
C4047 C 0.07312 0.46433 0.0979 0.0
C4048 C 0.0619 0.49741 0.12532 0.0
C4049 C 0.08164 0.44971 0.09928 0.0
C4050 C 0.07507 0.56744 0.11578 0.0
C4051 C 0.06511 0.55259 0.11648 0.0
C4052 C 0.0546 0.51228 0.09478 0.0
C4053 C 0.06335 0.46974 0.11102 0.0
C4054 C 0.05827 0.4873 0.11114 0.0
C4055 C 0.06785 0.53926 0.10556 0.0
C4056 C 0.06044 0.52227 0.10838 0.0
H4057 H 0.06857 0.43726 0.13752 0.0
H4058 H 0.0537 0.46318 0.13523 0.0
H4059 H 0.05016 0.48747 0.08514 0.0
H4060 H 0.10042 0.55675 0.08434 0.0
H4061 H 0.08275 0.53118 0.08508 0.0
C4062 C 0.08029 0.56731 0.84911 0.0
C4063 C 0.09244 0.57142 0.86162 0.0
C4064 C 0.06998 0.55273 0.85037 0.0
C4065 C 0.05776 0.51814 0.87913 0.0
H4066 H 0.06856 0.48941 0.84232 0.0
C4067 C 0.08457 0.45576 0.88754 0.0
C4068 C 0.08316 0.44354 0.87496 0.0
C4069 C 0.07585 0.47028 0.88606 0.0
C4070 C 0.06482 0.49719 0.85253 0.0
H4071 H 0.1024 0.56457 0.88584 0.0
H4072 H 0.0844 0.5395 0.88819 0.0
H4073 H 0.07097 0.51946 0.83909 0.0
H4074 H 0.07087 0.4361 0.85155 0.0
H4075 H 0.05558 0.46174 0.84878 0.0
H4076 H 0.05297 0.49581 0.89301 0.0
C4077 C 0.08273 0.54732 0.87738 0.0
C4078 C 0.06623 0.5145 0.85066 0.0
C4079 C 0.09319 0.5616 0.87597 0.0
C4080 C 0.07192 0.44536 0.86148 0.0
C4081 C 0.06329 0.46004 0.85987 0.0
C4082 C 0.0563 0.50083 0.88099 0.0
C4083 C 0.07146 0.54235 0.86433 0.0
C4084 C 0.06385 0.5251 0.86432 0.0
C4085 C 0.06577 0.47297 0.8718 0.0
C4086 C 0.06099 0.49022 0.86808 0.0
H4087 H 0.07952 0.5747 0.83791 0.0
H4088 H 0.06142 0.54916 0.84012 0.0
H4089 H 0.05555 0.52606 0.88977 0.0
H4090 H 0.09336 0.45461 0.89793 0.0
H4091 H 0.07829 0.48001 0.89537 0.0
C4092 C 0.07762 0.61769 0.38534 0.0
C4093 C 0.09004 0.61135 0.37543 0.0
C4094 C 0.06182 0.60959 0.38577 0.0
C4095 C 0.03256 0.58957 0.35809 0.0
H4096 H 0.00615 0.58142 0.39728 0.0
C4097 C 0.96164 0.59098 0.35213 0.0
C4098 C 0.95466 0.60074 0.3645 0.0
C4099 C 0.97755 0.58483 0.35462 0.0
C4100 C 0.0133 0.58366 0.38618 0.0
H4101 H 0.09606 0.59136 0.35868 0.0
H4102 H 0.06793 0.57751 0.35883 0.0
H4103 H 0.03657 0.58495 0.40015 0.0
H4104 H 0.95828 0.61053 0.38971 0.0
H4105 H 0.98601 0.60062 0.39376 0.0
H4106 H 0.00955 0.59013 0.34425 0.0
C4107 C 0.07065 0.5885 0.36656 0.0
C4108 C 0.03072 0.58549 0.38785 0.0
C4109 C 0.08666 0.59638 0.36649 0.0
C4110 C 0.96329 0.60308 0.37988 0.0
C4111 C 0.97927 0.59723 0.38225 0.0
C4112 C 0.01515 0.58814 0.35645 0.0
C4113 C 0.05804 0.59524 0.37599 0.0
C4114 C 0.04042 0.58907 0.37389 0.0
C4115 C 0.98693 0.5886 0.3694 0.0
C4116 C 0.00523 0.58591 0.37059 0.0
H4117 H 0.07999 0.6292 0.39236 0.0
H4118 H 0.05223 0.61514 0.39296 0.0
H4119 H 0.0398 0.5925 0.34717 0.0
H4120 H 0.95517 0.58875 0.34022 0.0
H4121 H 0.9828 0.57782 0.34461 0.0
C4122 C 0.93629 0.56849 0.91058 0.0
C4123 C 0.92708 0.57255 0.89618 0.0
C4124 C 0.94608 0.5545 0.91052 0.0
C4125 C 0.96174 0.521 0.88341 0.0
H4126 H 0.9395 0.49132 0.91458 0.0
C4127 C 0.93484 0.45718 0.86487 0.0
C4128 C 0.93017 0.4455 0.87704 0.0
C4129 C 0.94383 0.47196 0.86942 0.0
C4130 C 0.94639 0.49929 0.90607 0.0
H4131 H 0.92211 0.56654 0.87011 0.0
H4132 H 0.93934 0.54251 0.86986 0.0
H4133 H 0.93925 0.52112 0.91889 0.0
H4134 H 0.93318 0.43903 0.90311 0.0
H4135 H 0.94934 0.46459 0.91097 0.0
H4136 H 0.96804 0.49911 0.87003 0.0
C4137 C 0.93908 0.54989 0.88121 0.0
C4138 C 0.94623 0.51651 0.90858 0.0
C4139 C 0.92907 0.56357 0.88137 0.0
C4140 C 0.93632 0.44798 0.8935 0.0
C4141 C 0.94553 0.46267 0.89801 0.0
C4142 C 0.96209 0.50374 0.88099 0.0
C4143 C 0.94702 0.5447 0.89597 0.0
C4144 C 0.95289 0.5275 0.89667 0.0
C4145 C 0.94852 0.47529 0.88622 0.0
C4146 C 0.95337 0.49272 0.89164 0.0
H4147 H 0.93486 0.57525 0.92215 0.0
H4148 H 0.95206 0.55075 0.92207 0.0
H4149 H 0.96721 0.52924 0.87417 0.0
H4150 H 0.93039 0.4556 0.85206 0.0
H4151 H 0.94575 0.48133 0.85994 0.0
C4152 C 0.04703 0.42008 0.36785 0.0
C4153 C 0.0582 0.41955 0.38151 0.0
C4154 C 0.032 0.42794 0.36931 0.0
C4155 C 1.00249 0.43391 0.40219 0.0
H4156 H 0.97514 0.44694 0.36438 0.0
C4157 C 0.93122 0.42232 0.40145 0.0
C4158 C 0.92686 0.41102 0.38841 0.0
C4159 C 0.94657 0.43154 0.40139 0.0
C4160 C 0.98265 0.44365 0.37518 0.0
H4161 H 0.06331 0.42753 0.40701 0.0
H4162 H 0.03713 0.44176 0.40958 0.0
H4163 H 0.00558 0.44959 0.36294 0.0
H4164 H 0.93419 0.40136 0.36457 0.0
H4165 H 0.96068 0.41758 0.36426 0.0
H4166 H 0.97956 0.42707 0.41402 0.0
C4167 C 0.03984 0.43602 0.39775 0.0
C4168 C 1.00007 0.44507 0.37433 0.0
C4169 C 0.05487 0.42805 0.39627 0.0
C4170 C 0.93738 0.40993 0.3748 0.0
C4171 C 0.95245 0.41936 0.37456 0.0
C4172 C 0.98508 0.43267 0.40309 0.0
C4173 C 0.02785 0.43532 0.38455 0.0
C4174 C 0.01017 0.43918 0.38741 0.0
C4175 C 0.95747 0.42984 0.38808 0.0
C4176 C 0.97504 0.43655 0.3892 0.0
H4177 H 0.04929 0.41326 0.35647 0.0
H4178 H 0.02306 0.42686 0.35895 0.0
H4179 H 0.00979 0.42917 0.4125 0.0
H4180 H 0.92327 0.42328 0.4121 0.0
H4181 H 0.95023 0.43947 0.412 0.0
C4182 C 0.9175 0.44204 0.16083 0.0
C4183 C 0.91474 0.43126 0.1471 0.0
C4184 C 0.92744 0.45669 0.15939 0.0
C4185 C 0.933 0.4875 0.12834 0.0
H4186 H 0.95738 0.51136 0.16431 0.0
C4187 C 0.92536 0.55671 0.13499 0.0
C4188 C 0.92014 0.56069 0.15108 0.0
C4189 C 0.93397 0.54225 0.13223 0.0
C4190 C 0.95069 0.50491 0.15406 0.0
H4191 H 0.92089 0.42654 0.12144 0.0
H4192 H 0.93803 0.45262 0.11871 0.0
H4193 H 0.9559 0.48089 0.16385 0.0
H4194 H 0.92163 0.55375 0.17713 0.0
H4195 H 0.93599 0.52847 0.17233 0.0
H4196 H 0.92626 0.5112 0.1194 0.0
C4197 C 0.93277 0.44956 0.13067 0.0
C4198 C 0.94997 0.48746 0.15374 0.0
C4199 C 0.92304 0.43466 0.13223 0.0
C4200 C 0.92528 0.55095 0.16455 0.0
C4201 C 0.93371 0.53644 0.16177 0.0
C4202 C 0.93355 0.50491 0.12875 0.0
C4203 C 0.93449 0.46102 0.14406 0.0
C4204 C 0.94029 0.47861 0.14141 0.0
C4205 C 0.93735 0.53141 0.14546 0.0
C4206 C 0.94152 0.5138 0.14219 0.0
H4207 H 0.91111 0.43964 0.17237 0.0
H4208 H 0.92831 0.46534 0.16987 0.0
H4209 H 0.92536 0.48106 0.11872 0.0
H4210 H 0.92185 0.56413 0.12436 0.0
H4211 H 0.93698 0.53901 0.11956 0.0
C4212 C 0.93504 0.42113 0.65229 0.0
C4213 C 0.92993 0.41332 0.63717 0.0
C4214 C 0.95083 0.42943 0.65381 0.0
C4215 C 0.98907 0.44274 0.63081 0.0
H4216 H 0.01147 0.41674 0.66427 0.0
C4217 C 0.05453 0.41911 0.6223 0.0
C4218 C 0.06379 0.41411 0.63625 0.0
C4219 C 0.03905 0.4261 0.62433 0.0
C4220 C 0.00562 0.4246 0.65516 0.0
H4221 H 0.93613 0.40957 0.61136 0.0
H4222 H 0.96342 0.42427 0.61386 0.0
H4223 H 0.98147 0.41809 0.66445 0.0
H4224 H 0.06524 0.41364 0.66319 0.0
H4225 H 0.03879 0.42681 0.6669 0.0
H4226 H 0.01327 0.44874 0.62113 0.0
C4227 C 0.95546 0.42403 0.62458 0.0
C4228 C 0.98828 0.42536 0.65529 0.0
C4229 C 0.93987 0.41554 0.62314 0.0
C4230 C 0.05813 0.41735 0.65227 0.0
C4231 C 0.04292 0.42474 0.65434 0.0
C4232 C 0.00651 0.44219 0.6308 0.0
C4233 C 0.96151 0.43019 0.64016 0.0
C4234 C 0.97975 0.43377 0.64267 0.0
C4235 C 0.03277 0.42847 0.6404 0.0
C4236 C 0.01494 0.43243 0.64251 0.0
H4237 H 0.92761 0.41944 0.6633 0.0
H4238 H 0.95518 0.43413 0.66595 0.0
H4239 H 0.98279 0.44943 0.62099 0.0
H4240 H 0.05868 0.41654 0.60983 0.0
H4241 H 0.0316 0.42856 0.61326 0.0
C4242 C 0.06944 0.5772 0.62357 0.0
C4243 C 0.07273 0.58359 0.63976 0.0
C4244 C 0.05417 0.56867 0.61957 0.0
C4245 C 0.0127 0.55519 0.63783 0.0
H4246 H 0.99562 0.57709 0.5985 0.0
C4247 C 0.95406 0.59098 0.6345 0.0
C4248 C 0.9442 0.59121 0.6198 0.0
C4249 C 0.9678 0.58105 0.63554 0.0
C4250 C 1.00015 0.57042 0.60926 0.0
H4251 H 0.06342 0.58437 0.66488 0.0
H4252 H 0.03677 0.57029 0.65789 0.0
H4253 H 0.02548 0.57544 0.60277 0.0
H4254 H 0.94024 0.58066 0.595 0.0
H4255 H 0.96495 0.5637 0.59655 0.0
H4256 H 0.98716 0.55196 0.64507 0.0
C4257 C 0.04589 0.57148 0.64821 0.0
C4258 C 0.01738 0.56942 0.61175 0.0
C4259 C 0.06124 0.57974 0.65224 0.0
C4260 C 0.94767 0.58059 0.60648 0.0
C4261 C 0.96175 0.57092 0.60737 0.0
C4262 C 0.99546 0.55647 0.63546 0.0
C4263 C 0.04177 0.56666 0.63162 0.0
C4264 C 0.02393 0.56271 0.62657 0.0
C4265 C 0.97219 0.57146 0.62176 0.0
C4266 C 0.98913 0.56493 0.6216 0.0
H4267 H 0.0782 0.57971 0.61373 0.0
H4268 H 0.05167 0.56468 0.60678 0.0
H4269 H 0.01725 0.54944 0.64912 0.0
H4270 H 0.95157 0.59905 0.64494 0.0
H4271 H 0.97575 0.58191 0.6467 0.0
C4272 C 0.93326 0.09544 0.3808 0.0
C4273 C 0.92675 0.10284 0.39505 0.0
C4274 C 0.95069 0.09524 0.3788 0.0
C4275 C 0.99084 0.10067 0.40378 0.0
H4276 H 0.01153 0.10942 0.36135 0.0
C4277 C 0.05769 0.12789 0.39907 0.0
C4278 C 0.06919 0.11783 0.39129 0.0
C4279 C 0.0405 0.12421 0.39747 0.0
C4280 C 0.00588 0.10673 0.37322 0.0
H4281 H 0.93361 0.11629 0.41804 0.0
H4282 H 0.96338 0.1163 0.41439 0.0
H4283 H 0.98088 0.1063 0.3627 0.0
H4284 H 0.07127 0.09637 0.37498 0.0
H4285 H 0.04086 0.09022 0.37185 0.0
H4286 H 0.0157 0.102 0.41442 0.0
C4287 C 0.95527 0.11013 0.40497 0.0
C4288 C 0.98833 0.10491 0.37401 0.0
C4289 C 0.93804 0.11023 0.40701 0.0
C4290 C 0.06284 0.10439 0.38116 0.0
C4291 C 0.04546 0.10086 0.37934 0.0
C4292 C 0.00823 0.10271 0.403 0.0
C4293 C 0.96194 0.10246 0.39098 0.0
C4294 C 0.98056 0.10231 0.38942 0.0
C4295 C 0.03419 0.11055 0.38783 0.0
C4296 C 0.01592 0.10611 0.38781 0.0
H4297 H 0.92492 0.08971 0.37131 0.0
H4298 H 0.95534 0.08921 0.36785 0.0
H4299 H 0.98543 0.09818 0.41579 0.0
H4300 H 0.06193 0.13839 0.40693 0.0
H4301 H 0.03208 0.13193 0.40406 0.0
C4302 C 0.3745 0.45416 0.88741 0.0
C4303 C 0.37548 0.44305 0.87381 0.0
C4304 C 0.37607 0.47139 0.88526 0.0
C4305 C 0.37278 0.50495 0.85404 0.0
H4306 H 0.39353 0.53149 0.89034 0.0
C4307 C 0.3798 0.57857 0.85591 0.0
C4308 C 0.3739 0.58558 0.87065 0.0
C4309 C 0.38139 0.56123 0.85446 0.0
C4310 C 0.38771 0.52427 0.88008 0.0
H4311 H 0.37896 0.44172 0.84713 0.0
H4312 H 0.38199 0.4721 0.84339 0.0
H4313 H 0.39453 0.50125 0.89084 0.0
H4314 H 0.36516 0.57978 0.89542 0.0
H4315 H 0.36829 0.54988 0.89302 0.0
H4316 H 0.36605 0.52828 0.84336 0.0
C4317 C 0.37982 0.46727 0.85575 0.0
C4318 C 0.38819 0.50689 0.88038 0.0
C4319 C 0.37819 0.44984 0.85791 0.0
C4320 C 0.36972 0.57488 0.88387 0.0
C4321 C 0.37159 0.5577 0.88254 0.0
C4322 C 0.37248 0.52246 0.85365 0.0
C4323 C 0.37883 0.47828 0.86946 0.0
C4324 C 0.38027 0.49689 0.86767 0.0
C4325 C 0.37746 0.55064 0.86786 0.0
C4326 C 0.37953 0.53227 0.86693 0.0
H4327 H 0.37227 0.44961 0.89987 0.0
H4328 H 0.37477 0.47933 0.89608 0.0
H4329 H 0.3665 0.49772 0.84405 0.0
H4330 H 0.38309 0.58646 0.84548 0.0
H4331 H 0.38597 0.55614 0.84301 0.0
C4332 C 0.06647 0.89213 0.40288 0.0
C4333 C 0.07675 0.9026 0.39304 0.0
C4334 C 0.04914 0.89099 0.40021 0.0
C4335 C 0.01316 0.91291 0.38569 0.0
H4336 H 0.9917 0.86855 0.38222 0.0
C4337 C 0.94027 0.90136 0.38237 0.0
C4338 C 0.93388 0.88774 0.39165 0.0
C4339 C 0.95758 0.90371 0.37993 0.0
C4340 C 0.9974 0.88106 0.38333 0.0
H4341 H 0.07671 0.9203 0.37278 0.0
H4342 H 0.04608 0.91865 0.36845 0.0
H4343 H 0.02208 0.87195 0.38313 0.0
H4344 H 0.94097 0.86595 0.40556 0.0
H4345 H 0.97062 0.87021 0.40165 0.0
H4346 H 0.98845 0.92199 0.38673 0.0
C4347 C 0.05165 0.91121 0.37811 0.0
C4348 C 0.01486 0.88298 0.38373 0.0
C4349 C 0.06916 0.9121 0.38055 0.0
C4350 C 0.94525 0.87653 0.39822 0.0
C4351 C 0.9624 0.87891 0.39586 0.0
C4352 C 0.9956 0.91098 0.38552 0.0
C4353 C 0.04149 0.90048 0.38783 0.0
C4354 C 0.02297 0.89888 0.38527 0.0
C4355 C 0.96891 0.89251 0.38669 0.0
C4356 C 0.98747 0.89496 0.38477 0.0
H4357 H 0.07182 0.8846 0.41259 0.0
H4358 H 0.04166 0.88274 0.40801 0.0
H4359 H 0.01907 0.92532 0.38694 0.0
H4360 H 0.93194 0.91028 0.37715 0.0
H4361 H 0.96207 0.91428 0.3727 0.0
C4362 C 0.6581 0.43754 0.89333 0.0
C4363 C 0.65094 0.42679 0.88086 0.0
C4364 C 0.65663 0.45478 0.89245 0.0
C4365 C 0.63237 0.48795 0.87233 0.0
H4366 H 0.66958 0.51611 0.89007 0.0
C4367 C 0.63608 0.56162 0.87204 0.0
C4368 C 0.64089 0.569 0.88756 0.0
C4369 C 0.63675 0.54428 0.86954 0.0
C4370 C 0.65906 0.50843 0.88509 0.0
H4371 H 0.63641 0.42589 0.85767 0.0
H4372 H 0.63413 0.45623 0.85589 0.0
H4373 H 0.67209 0.48609 0.88835 0.0
H4374 H 0.65003 0.56366 0.91261 0.0
H4375 H 0.65142 0.53384 0.90812 0.0
H4376 H 0.61949 0.51063 0.86895 0.0
C4377 C 0.64074 0.45121 0.86651 0.0
C4378 C 0.66044 0.49115 0.88418 0.0
C4379 C 0.64212 0.43381 0.86747 0.0
C4380 C 0.64621 0.55856 0.90047 0.0
C4381 C 0.64711 0.5414 0.8979 0.0
C4382 C 0.63107 0.50536 0.87307 0.0
C4383 C 0.64809 0.46196 0.87897 0.0
C4384 C 0.64698 0.48056 0.87822 0.0
C4385 C 0.64254 0.53402 0.88239 0.0
C4386 C 0.64427 0.51575 0.87984 0.0
H4387 H 0.66481 0.43266 0.90397 0.0
H4388 H 0.66207 0.46246 0.90256 0.0
H4389 H 0.6217 0.48027 0.86772 0.0
H4390 H 0.63191 0.56922 0.86181 0.0
H4391 H 0.63316 0.53895 0.85744 0.0
C4392 C 0.94865 0.87368 0.65081 0.0
C4393 C 0.9417 0.88177 0.63698 0.0
C4394 C 0.9661 0.87312 0.65293 0.0
C4395 C 0.00463 0.87799 0.65692 0.0
H4396 H 0.02652 0.87077 0.61512 0.0
C4397 C 0.07727 0.87527 0.65076 0.0
C4398 C 0.08283 0.86361 0.63921 0.0
C4399 C 0.06012 0.87788 0.65204 0.0
C4400 C 0.02065 0.87265 0.62695 0.0
H4401 H 0.94757 0.89681 0.61539 0.0
H4402 H 0.97772 0.89634 0.61936 0.0
H4403 H 0.99681 0.87512 0.61497 0.0
H4404 H 0.07459 0.84515 0.62042 0.0
H4405 H 0.045 0.84949 0.62283 0.0
H4406 H 0.02864 0.87502 0.66885 0.0
C4407 C 0.96985 0.8899 0.62827 0.0
C4408 C 0.00358 0.87541 0.62686 0.0
C4409 C 0.95252 0.89029 0.62607 0.0
C4410 C 0.07084 0.85433 0.62937 0.0
C4411 C 0.0538 0.8569 0.63067 0.0
C4412 C 0.02183 0.87522 0.65701 0.0
C4413 C 0.97691 0.88074 0.64131 0.0
C4414 C 0.99528 0.87814 0.64181 0.0
C4415 C 0.04819 0.86891 0.64178 0.0
C4416 C 0.03003 0.87239 0.64201 0.0
H4417 H 0.94063 0.8669 0.65937 0.0
H4418 H 0.97107 0.86594 0.66312 0.0
H4419 H 0.99869 0.88011 0.66867 0.0
H4420 H 0.08617 0.88265 0.65852 0.0
H4421 H 0.05626 0.88729 0.66068 0.0
C4422 C 0.60076 0.42975 0.12494 0.0
C4423 C 0.60924 0.42249 0.11178 0.0
C4424 C 0.60168 0.44718 0.12741 0.0
C4425 C 0.62896 0.48433 0.11977 0.0
H4426 H 0.58947 0.5103 0.12024 0.0
C4427 C 0.63315 0.55405 0.10507 0.0
C4428 C 0.62268 0.56521 0.11278 0.0
C4429 C 0.63113 0.53687 0.1075 0.0
C4430 C 0.60065 0.50327 0.12046 0.0
H4431 H 0.62544 0.42797 0.09104 0.0
H4432 H 0.62736 0.45797 0.09562 0.0
H4433 H 0.58648 0.47971 0.12012 0.0
H4434 H 0.60182 0.56673 0.12932 0.0
H4435 H 0.59845 0.53653 0.13383 0.0
H4436 H 0.64322 0.50757 0.12016 0.0
C4437 C 0.61989 0.45029 0.10394 0.0
C4438 C 0.59891 0.48572 0.12036 0.0
C4439 C 0.61871 0.43304 0.10129 0.0
C4440 C 0.61016 0.55857 0.12321 0.0
C4441 C 0.60816 0.54122 0.1257 0.0
C4442 C 0.63071 0.50176 0.12009 0.0
C4443 C 0.61142 0.45761 0.11701 0.0
C4444 C 0.61305 0.47608 0.11952 0.0
C4445 C 0.61864 0.53011 0.11785 0.0
C4446 C 0.61659 0.51154 0.11989 0.0
H4447 H 0.59334 0.42198 0.13323 0.0
H4448 H 0.59503 0.45248 0.13759 0.0
H4449 H 0.64011 0.47725 0.11941 0.0
H4450 H 0.64287 0.55851 0.09683 0.0
H4451 H 0.63921 0.52884 0.10087 0.0
C4452 C 0.93882 0.13448 0.62152 0.0
C4453 C 0.92889 0.12946 0.63497 0.0
C4454 C 0.9561 0.13282 0.62213 0.0
C4455 C 0.99291 0.13006 0.64982 0.0
H4456 H 0.01242 0.11175 0.61038 0.0
C4457 C 0.06516 0.12339 0.64313 0.0
C4458 C 0.07148 0.12747 0.62737 0.0
C4459 C 0.04779 0.12217 0.64559 0.0
C4460 C 0.00726 0.11704 0.62147 0.0
H4461 H 0.92951 0.119 0.6598 0.0
H4462 H 0.96 0.11638 0.66097 0.0
H4463 H 0.98219 0.11256 0.61194 0.0
H4464 H 0.06422 0.13392 0.60201 0.0
H4465 H 0.03451 0.13204 0.60633 0.0
H4466 H 0.01811 0.13504 0.6591 0.0
C4467 C 0.95423 0.12152 0.64991 0.0
C4468 C 0.98988 0.11744 0.62237 0.0
C4469 C 0.93679 0.12297 0.64922 0.0
C4470 C 0.05999 0.13048 0.61428 0.0
C4471 C 0.04279 0.12931 0.61674 0.0
C4472 C 0.01041 0.1298 0.64886 0.0
C4473 C 0.96404 0.12625 0.63626 0.0
C4474 C 0.98248 0.12428 0.63637 0.0
C4475 C 0.03637 0.12499 0.63235 0.0
C4476 C 0.01782 0.12365 0.63447 0.0
H4477 H 0.93324 0.13954 0.61033 0.0
H4478 H 0.9633 0.13679 0.61149 0.0
H4479 H 0.98758 0.13544 0.66077 0.0
H4480 H 0.0736 0.12105 0.65352 0.0
H4481 H 0.04331 0.11879 0.65779 0.0
C4482 C 0.4071 0.56655 0.09982 0.0
C4483 C 0.39967 0.57699 0.11129 0.0
C4484 C 0.40755 0.54936 0.10253 0.0
C4485 C 0.39867 0.51581 0.13453 0.0
H4486 H 0.39834 0.48722 0.0953 0.0
C4487 C 0.37847 0.44454 0.13063 0.0
C4488 C 0.38983 0.43417 0.12314 0.0
C4489 C 0.3815 0.4619 0.13117 0.0
C4490 C 0.3986 0.49505 0.10638 0.0
H4491 H 0.38685 0.57759 0.13467 0.0
H4492 H 0.38669 0.5475 0.13902 0.0
H4493 H 0.39928 0.51731 0.09206 0.0
H4494 H 0.41336 0.43388 0.11049 0.0
H4495 H 0.41839 0.46436 0.11094 0.0
H4496 H 0.39679 0.49311 0.14864 0.0
C4497 C 0.39284 0.55253 0.12818 0.0
C4498 C 0.39927 0.51243 0.10459 0.0
C4499 C 0.39283 0.56986 0.12568 0.0
C4500 C 0.40454 0.44152 0.11662 0.0
C4501 C 0.40734 0.45895 0.11674 0.0
C4502 C 0.39756 0.49837 0.13627 0.0
C4503 C 0.40006 0.5419 0.11654 0.0
C4504 C 0.39941 0.5232 0.11863 0.0
C4505 C 0.39571 0.46933 0.12379 0.0
C4506 C 0.3976 0.48782 0.12221 0.0
H4507 H 0.41263 0.5717 0.08868 0.0
H4508 H 0.41379 0.54197 0.09348 0.0
H4509 H 0.39905 0.52343 0.14574 0.0
H4510 H 0.36693 0.43923 0.13558 0.0
H4511 H 0.37227 0.46959 0.13657 0.0
C4512 C 0.38328 0.0648 0.12947 0.0
C4513 C 0.37889 0.0757 0.11658 0.0
C4514 C 0.38169 0.04751 0.12729 0.0
C4515 C 0.37758 0.01387 0.09473 0.0
H4516 H 0.37036 0.98642 0.13372 0.0
C4517 C 0.37289 0.9398 0.09647 0.0
C4518 C 0.38543 0.9336 0.107 0.0
C4519 C 0.37 0.95698 0.09632 0.0
C4520 C 0.37229 0.99391 0.12269 0.0
H4521 H 0.369 0.07657 0.0912 0.0
H4522 H 0.36567 0.04616 0.08752 0.0
H4523 H 0.36808 0.01648 0.13583 0.0
H4524 H 0.40451 0.94062 0.12583 0.0
H4525 H 0.39902 0.97022 0.12601 0.0
H4526 H 0.3815 0.99089 0.08165 0.0
C4527 C 0.37071 0.05115 0.0993 0.0
C4528 C 0.37116 0.01123 0.1239 0.0
C4529 C 0.37248 0.06863 0.10145 0.0
C4530 C 0.3948 0.94492 0.11751 0.0
C4531 C 0.39164 0.9619 0.11766 0.0
C4532 C 0.37839 0.99642 0.09346 0.0
C4533 C 0.37538 0.0403 0.1122 0.0
C4534 C 0.37434 0.0216 0.1101 0.0
C4535 C 0.37929 0.96816 0.10704 0.0
C4536 C 0.37619 0.98632 0.10756 0.0
H4537 H 0.38842 0.06957 0.1413 0.0
H4538 H 0.3859 0.03981 0.13742 0.0
H4539 H 0.38021 0.0213 0.08382 0.0
H4540 H 0.36548 0.93142 0.0882 0.0
H4541 H 0.36036 0.96148 0.08804 0.0
C4542 C 0.44727 0.85684 0.62924 0.0
C4543 C 0.44022 0.87115 0.63575 0.0
C4544 C 0.46468 0.85634 0.62756 0.0
C4545 C 0.50226 0.88408 0.62284 0.0
H4546 H 0.52755 0.84791 0.6404 0.0
C4547 C 0.57319 0.8922 0.63378 0.0
C4548 C 0.58344 0.87873 0.63117 0.0
C4549 C 0.55579 0.88995 0.633 0.0
C4550 C 0.52068 0.85798 0.63516 0.0
H4551 H 0.44603 0.89614 0.64554 0.0
H4552 H 0.47607 0.89533 0.64238 0.0
H4553 H 0.49694 0.8462 0.64133 0.0
H4554 H 0.58315 0.8522 0.62569 0.0
H4555 H 0.55258 0.84833 0.62401 0.0
H4556 H 0.52573 0.8959 0.61655 0.0
C4557 C 0.46822 0.88448 0.6386 0.0
C4558 C 0.50313 0.85701 0.63573 0.0
C4559 C 0.45096 0.8849 0.6405 0.0
C4560 C 0.57569 0.86288 0.62775 0.0
C4561 C 0.55814 0.86064 0.62688 0.0
C4562 C 0.5197 0.88499 0.6221 0.0
C4563 C 0.47532 0.87025 0.63207 0.0
C4564 C 0.49377 0.87025 0.62994 0.0
C4565 C 0.54795 0.87419 0.62943 0.0
C4566 C 0.52924 0.87217 0.62865 0.0
H4567 H 0.43936 0.84604 0.62548 0.0
H4568 H 0.46978 0.84521 0.62245 0.0
H4569 H 0.4954 0.89435 0.61797 0.0
H4570 H 0.57857 0.90459 0.63663 0.0
H4571 H 0.54847 0.90064 0.63547 0.0
C4572 C 0.623 0.0583 0.10436 0.0
C4573 C 0.61122 0.06527 0.11473 0.0
C4574 C 0.62412 0.04084 0.10324 0.0
C4575 C 0.59889 1.00148 0.11207 0.0
H4576 H 0.6409 0.9797 0.10981 0.0
C4577 C 0.60406 0.93344 0.13064 0.0
C4578 C 0.61078 0.92239 0.11914 0.0
C4579 C 0.60555 0.95068 0.12844 0.0
C4580 C 0.62907 0.98564 0.11024 0.0
H4581 H 0.59199 0.05927 0.1326 0.0
H4582 H 0.59423 0.02943 0.13101 0.0
H4583 H 0.64077 0.01033 0.10909 0.0
H4584 H 0.62506 0.9212 0.09659 0.0
H4585 H 0.62798 0.95167 0.09298 0.0
H4586 H 0.58725 0.97696 0.11387 0.0
C4587 C 0.60223 0.03718 0.12324 0.0
C4588 C 0.62897 1.00319 0.1098 0.0
C4589 C 0.60102 0.05444 0.12425 0.0
C4590 C 0.6197 0.92927 0.10569 0.0
C4591 C 0.6214 0.9467 0.10362 0.0
C4592 C 0.59902 0.98409 0.1127 0.0
C4593 C 0.61354 0.03002 0.11251 0.0
C4594 C 0.61388 0.01137 0.11114 0.0
C4595 C 0.61398 0.95755 0.1148 0.0
C4596 C 0.61411 0.97595 0.11216 0.0
H4597 H 0.63108 0.06629 0.0969 0.0
H4598 H 0.633 0.03583 0.09483 0.0
H4599 H 0.58695 0.00718 0.11258 0.0
H4600 H 0.59717 0.9288 0.14123 0.0
H4601 H 0.59989 0.9587 0.13738 0.0
C4602 C 0.56057 0.11656 0.64523 0.0
C4603 C 0.57177 0.12919 0.63953 0.0
C4604 C 0.54333 0.11759 0.6428 0.0
C4605 C 0.50953 0.14605 0.6359 0.0
H4606 H 0.48503 0.10566 0.6205 0.0
C4607 C 0.43635 0.14028 0.62601 0.0
C4608 C 0.42864 0.1252 0.63148 0.0
C4609 C 0.45392 0.14234 0.62559 0.0
C4610 C 0.49162 0.11703 0.62493 0.0
H4611 H 0.57349 0.15305 0.62703 0.0
H4612 H 0.54309 0.15496 0.62299 0.0
H4613 H 0.5154 0.10643 0.62246 0.0
H4614 H 0.43361 0.10077 0.64144 0.0
H4615 H 0.46367 0.10443 0.64086 0.0
H4616 H 0.48556 0.15646 0.63882 0.0
C4617 C 0.54782 0.14422 0.62929 0.0
C4618 C 0.50907 0.11748 0.62601 0.0
C4619 C 0.56521 0.14309 0.63155 0.0
C4620 C 0.43894 0.11247 0.63685 0.0
C4621 C 0.45631 0.11453 0.63645 0.0
C4622 C 0.49195 0.14557 0.63492 0.0
C4623 C 0.53671 0.13134 0.63471 0.0
C4624 C 0.51825 0.13182 0.63188 0.0
C4625 C 0.4641 0.12936 0.6306 0.0
C4626 C 0.48276 0.13088 0.62984 0.0
H4627 H 0.5651 0.10566 0.65143 0.0
H4628 H 0.53513 0.10757 0.64734 0.0
H4629 H 0.51626 0.15729 0.64048 0.0
H4630 H 0.42885 0.15038 0.62185 0.0
H4631 H 0.4595 0.15395 0.62103 0.0
C4632 C 0.36683 0.07854 0.8796 0.0
C4633 C 0.38174 0.08625 0.87375 0.0
C4634 C 0.36432 0.06103 0.87922 0.0
C4635 C 0.37744 0.02411 0.85661 0.0
H4636 H 0.36628 0.9983 0.89577 0.0
C4637 C 0.38854 0.9542 0.85878 0.0
C4638 C 0.37741 0.94323 0.86712 0.0
C4639 C 0.38721 0.97146 0.85986 0.0
C4640 C 0.36912 0.00528 0.88462 0.0
H4641 H 0.40561 0.08137 0.8629 0.0
H4642 H 0.40106 0.05129 0.86199 0.0
H4643 H 0.36678 0.02887 0.89711 0.0
H4644 H 0.35618 0.94196 0.88334 0.0
H4645 H 0.35361 0.97227 0.88498 0.0
H4646 H 0.37971 1.00083 0.844 0.0
C4647 C 0.39135 0.05869 0.86692 0.0
C4648 C 0.36942 0.02282 0.88542 0.0
C4649 C 0.39397 0.07602 0.86754 0.0
C4650 C 0.36495 0.95005 0.87674 0.0
C4651 C 0.36353 0.96744 0.87773 0.0
C4652 C 0.37696 0.00669 0.85575 0.0
C4653 C 0.37651 0.05095 0.87268 0.0
C4654 C 0.37402 0.03242 0.87152 0.0
C4655 C 0.37459 0.9784 0.86918 0.0
C4656 C 0.37326 0.99697 0.86985 0.0
H4657 H 0.35716 0.086 0.88449 0.0
H4658 H 0.35274 0.0554 0.88373 0.0
H4659 H 0.38073 0.03114 0.84559 0.0
H4660 H 0.39846 0.94948 0.85144 0.0
H4661 H 0.39628 0.97938 0.85347 0.0
C4662 C 0.56908 0.8818 0.39757 0.0
C4663 C 0.57603 0.89076 0.38418 0.0
C4664 C 0.5516 0.87921 0.39869 0.0
C4665 C 0.51191 0.88159 0.37296 0.0
H4666 H 0.4908 0.88733 0.41542 0.0
C4667 C 0.44522 0.90339 0.37846 0.0
C4668 C 0.43394 0.89407 0.3883 0.0
C4669 C 0.46218 0.90012 0.3786 0.0
C4670 C 0.49654 0.88546 0.40352 0.0
H4671 H 0.56978 0.90382 0.36138 0.0
H4672 H 0.53993 0.89964 0.3635 0.0
H4673 H 0.52135 0.88667 0.41444 0.0
H4674 H 0.43174 0.87405 0.4062 0.0
H4675 H 0.4618 0.86866 0.40684 0.0
H4676 H 0.48721 0.88131 0.36197 0.0
C4677 C 0.54777 0.89424 0.37301 0.0
C4678 C 0.51405 0.88503 0.40293 0.0
C4679 C 0.56507 0.89677 0.37187 0.0
C4680 C 0.44011 0.88141 0.39844 0.0
C4681 C 0.45729 0.87837 0.39886 0.0
C4682 C 0.49452 0.88226 0.37353 0.0
C4683 C 0.5407 0.88547 0.38641 0.0
C4684 C 0.52202 0.88356 0.38756 0.0
C4685 C 0.46846 0.88764 0.38882 0.0
C4686 C 0.48665 0.88459 0.38875 0.0
H4687 H 0.57709 0.87702 0.40731 0.0
H4688 H 0.54665 0.8723 0.40916 0.0
H4689 H 0.51746 0.87992 0.36093 0.0
H4690 H 0.44093 0.9132 0.37047 0.0
H4691 H 0.47049 0.90754 0.37082 0.0
C4692 C 0.62479 0.05783 0.86997 0.0
C4693 C 0.63862 0.06848 0.87479 0.0
C4694 C 0.62511 0.04059 0.87216 0.0
C4695 C 0.65252 0.00557 0.87597 0.0
H4696 H 0.61338 0.98298 0.89448 0.0
C4697 C 0.64618 0.93293 0.88358 0.0
C4698 C 0.63026 0.92539 0.87969 0.0
C4699 C 0.64852 0.95043 0.88477 0.0
C4700 C 0.62437 0.989 0.88912 0.0
H4701 H 0.66377 0.06918 0.88553 0.0
H4702 H 0.66444 0.03879 0.88906 0.0
H4703 H 0.61507 0.01327 0.89284 0.0
H4704 H 0.60437 0.93062 0.87399 0.0
H4705 H 0.60849 0.96058 0.87572 0.0
H4706 H 0.66155 0.9812 0.87168 0.0
C4707 C 0.65331 0.04396 0.88367 0.0
C4708 C 0.62535 0.00642 0.88826 0.0
C4709 C 0.6529 0.06135 0.88171 0.0
C4710 C 0.61682 0.93581 0.87715 0.0
C4711 C 0.61916 0.95315 0.87827 0.0
C4712 C 0.65146 0.98804 0.87666 0.0
C4713 C 0.63934 0.03339 0.87905 0.0
C4714 C 0.63927 0.01494 0.88138 0.0
C4715 C 0.63501 0.96079 0.88211 0.0
C4716 C 0.63718 0.97948 0.88292 0.0
H4717 H 0.61356 0.06282 0.86461 0.0
H4718 H 0.61421 0.03282 0.86829 0.0
H4719 H 0.6634 0.01176 0.87055 0.0
H4720 H 0.65685 0.92536 0.88558 0.0
H4721 H 0.6609 0.95581 0.88786 0.0
C4722 C 0.43888 0.11956 0.37858 0.0
C4723 C 0.42787 0.12467 0.39084 0.0
C4724 C 0.45616 0.12045 0.38151 0.0
C4725 C 0.49196 0.1404 0.40125 0.0
H4726 H 0.51083 0.09686 0.40073 0.0
C4727 C 0.56421 0.13121 0.40727 0.0
C4728 C 0.57023 0.11822 0.39758 0.0
C4729 C 0.54688 0.13311 0.40846 0.0
C4730 C 0.50588 0.10916 0.40075 0.0
H4731 H 0.4268 0.13552 0.41563 0.0
H4732 H 0.45737 0.13747 0.42055 0.0
H4733 H 0.48062 0.09895 0.39901 0.0
H4734 H 0.56266 0.09745 0.38109 0.0
H4735 H 0.53298 0.10102 0.38272 0.0
H4736 H 0.51728 0.15069 0.40205 0.0
C4737 C 0.45231 0.13261 0.40873 0.0
C4738 C 0.48852 0.11031 0.39995 0.0
C4739 C 0.43483 0.13148 0.4059 0.0
C4740 C 0.55856 0.10746 0.38888 0.0
C4741 C 0.54141 0.10944 0.38994 0.0
C4742 C 0.50945 0.13927 0.40181 0.0
C4743 C 0.46306 0.12673 0.39666 0.0
C4744 C 0.48137 0.1259 0.39989 0.0
C4745 C 0.53522 0.12212 0.39992 0.0
C4746 C 0.51667 0.12361 0.40115 0.0
H4747 H 0.43419 0.1143 0.36678 0.0
H4748 H 0.46418 0.1159 0.37199 0.0
H4749 H 0.48673 0.15258 0.40111 0.0
H4750 H 0.57285 0.13974 0.41411 0.0
H4751 H 0.54265 0.143 0.41631 0.0
C4752 C 0.10049 0.38516 0.93656 0.0
C4753 C 0.10288 0.40129 0.92997 0.0
C4754 C 0.10072 0.38271 0.95393 0.0
C4755 C 0.11685 0.40362 0.99305 0.0
H4756 H 0.08685 0.37225 0.01547 0.0
C4757 C 0.09571 0.38945 0.06488 0.0
C4758 C 0.11149 0.39212 0.07289 0.0
C4759 C 0.09428 0.38835 0.04737 0.0
C4760 C 0.09528 0.38112 0.00941 0.0
H4761 H 0.10685 0.42751 0.93662 0.0
H4762 H 0.10701 0.42329 0.96648 0.0
H4763 H 0.08465 0.37504 0.98507 0.0
H4764 H 0.13817 0.3944 0.06878 0.0
H4765 H 0.13572 0.39201 0.03862 0.0
H4766 H 0.12722 0.41011 0.01716 0.0
C4767 C 0.1053 0.41245 0.95837 0.0
C4768 C 0.09413 0.3826 0.99195 0.0
C4769 C 0.10508 0.41487 0.94115 0.0
C4770 C 0.12579 0.39258 0.06306 0.0
C4771 C 0.12437 0.39134 0.04569 0.0
C4772 C 0.11801 0.40214 0.01038 0.0
C4773 C 0.1034 0.39634 0.96506 0.0
C4774 C 0.10482 0.394 0.98355 0.0
C4775 C 0.1086 0.38979 0.03752 0.0
C4776 C 0.10726 0.39089 0.01888 0.0
H4777 H 0.09878 0.37441 0.92832 0.0
H4778 H 0.09929 0.37012 0.95862 0.0
H4779 H 0.12548 0.41237 0.98708 0.0
H4780 H 0.08444 0.38912 0.07206 0.0
H4781 H 0.08191 0.3872 0.04156 0.0
C4782 C 0.1464 0.6232 0.93684 0.0
C4783 C 0.13896 0.63454 0.92601 0.0
C4784 C 0.14464 0.62437 0.95407 0.0
C4785 C 0.1191 0.64216 0.98731 0.0
H4786 H 0.15644 0.62893 0.01508 0.0
C4787 C 0.1236 0.64082 0.06165 0.0
C4788 C 0.12706 0.62477 0.06741 0.0
C4789 C 0.1242 0.64451 0.0445 0.0
C4790 C 0.14594 0.63277 0.00751 0.0
H4791 H 0.12362 0.65599 0.925 0.0
H4792 H 0.1208 0.65829 0.95535 0.0
H4793 H 0.15957 0.63119 0.98509 0.0
H4794 H 0.13348 0.59999 0.0593 0.0
H4795 H 0.13488 0.6066 0.02998 0.0
H4796 H 0.10559 0.64372 0.01011 0.0
C4797 C 0.12788 0.64833 0.95037 0.0
C4798 C 0.14765 0.63392 0.99026 0.0
C4799 C 0.12957 0.64708 0.93297 0.0
C4800 C 0.13077 0.61252 0.05555 0.0
C4801 C 0.13164 0.61628 0.03864 0.0
C4802 C 0.11747 0.64121 0.00472 0.0
C4803 C 0.13553 0.63704 0.96119 0.0
C4804 C 0.13411 0.63808 0.97979 0.0
C4805 C 0.12856 0.63231 0.03291 0.0
C4806 C 0.13075 0.63604 0.01491 0.0
H4807 H 0.15355 0.61321 0.93203 0.0
H4808 H 0.15032 0.61511 0.96181 0.0
H4809 H 0.10838 0.64537 0.97972 0.0
H4810 H 0.1207 0.65056 0.07037 0.0
H4811 H 0.12177 0.65699 0.04038 0.0
C4812 C 0.87133 0.62676 0.44225 0.0
C4813 C 0.88534 0.63484 0.43501 0.0
C4814 C 0.87078 0.62466 0.45963 0.0
C4815 C 0.89835 0.62111 0.49652 0.0
H4816 H 0.86198 0.63617 0.52279 0.0
C4817 C 0.90686 0.63099 0.56703 0.0
C4818 C 0.89344 0.62795 0.57778 0.0
C4819 C 0.90446 0.63027 0.54975 0.0
C4820 C 0.87211 0.6316 0.51566 0.0
H4821 H 0.90977 0.64694 0.44043 0.0
H4822 H 0.90895 0.64291 0.47044 0.0
H4823 H 0.86018 0.63763 0.49228 0.0
H4824 H 0.86681 0.62169 0.57844 0.0
H4825 H 0.86264 0.62002 0.54804 0.0
H4826 H 0.91029 0.61486 0.51958 0.0
C4827 C 0.89834 0.63831 0.46275 0.0
C4828 C 0.87108 0.6325 0.49816 0.0
C4829 C 0.89876 0.64069 0.44552 0.0
C4830 C 0.87745 0.62407 0.5706 0.0
C4831 C 0.87506 0.62322 0.55314 0.0
C4832 C 0.89929 0.61999 0.5139 0.0
C4833 C 0.88439 0.63026 0.47004 0.0
C4834 C 0.8844 0.62766 0.48844 0.0
C4835 C 0.88858 0.62628 0.54246 0.0
C4836 C 0.88642 0.62567 0.52381 0.0
H4837 H 0.86078 0.62214 0.43451 0.0
H4838 H 0.85988 0.61836 0.46489 0.0
H4839 H 0.90868 0.617 0.48936 0.0
H4840 H 0.91936 0.63421 0.57193 0.0
H4841 H 0.91513 0.63317 0.54209 0.0
C4842 C 0.87623 0.39121 0.95694 0.0
C4843 C 0.88338 0.37894 0.94718 0.0
C4844 C 0.87696 0.39058 0.97434 0.0
C4845 C 0.89934 0.37227 0.0105 0.0
H4846 H 0.86133 0.38769 0.03409 0.0
C4847 C 0.89423 0.37286 0.08359 0.0
C4848 C 0.8889 0.3879 0.0903 0.0
C4849 C 0.89373 0.37004 0.06623 0.0
C4850 C 0.87208 0.38339 0.02772 0.0
H4851 H 0.89712 0.35639 0.94827 0.0
H4852 H 0.89817 0.3551 0.97885 0.0
H4853 H 0.86001 0.38561 0.00383 0.0
H4854 H 0.8788 0.41169 0.08389 0.0
H4855 H 0.87776 0.40669 0.05399 0.0
H4856 H 0.91132 0.37003 0.03465 0.0
C4857 C 0.89211 0.36534 0.97293 0.0
C4858 C 0.87137 0.38225 0.0103 0.0
C4859 C 0.89144 0.36602 0.95539 0.0
C4860 C 0.88304 0.39996 0.07925 0.0
C4861 C 0.88233 0.39706 0.06204 0.0
C4862 C 0.9 0.37328 0.02802 0.0
C4863 C 0.88476 0.37758 0.98266 0.0
C4864 C 0.88513 0.37709 1.00136 0.0
C4865 C 0.88761 0.38207 0.05526 0.0
C4866 C 0.8865 0.37923 0.03681 0.0
H4867 H 0.87009 0.40149 0.95115 0.0
H4868 H 0.87153 0.40049 0.98128 0.0
H4869 H 0.91022 0.36831 0.00411 0.0
H4870 H 0.89882 0.36332 0.09173 0.0
H4871 H 0.89784 0.35833 0.0614 0.0
C4872 C 0.09025 0.38885 0.56297 0.0
C4873 C 0.10271 0.39735 0.57293 0.0
C4874 C 0.09104 0.3888 0.54558 0.0
C4875 C 0.11965 0.3966 0.5102 0.0
H4876 H 0.07759 0.39666 0.48512 0.0
C4877 C 0.11276 0.39907 0.43677 0.0
C4878 C 0.10069 0.38746 0.42977 0.0
C4879 C 0.11438 0.40131 0.45419 0.0
C4880 C 0.08945 0.39658 0.49192 0.0
H4881 H 0.12596 0.41236 0.57226 0.0
H4882 H 0.12719 0.4126 0.54174 0.0
H4883 H 0.07772 0.39907 0.51534 0.0
H4884 H 0.08117 0.36885 0.43592 0.0
H4885 H 0.0839 0.37291 0.46584 0.0
H4886 H 0.13128 0.39426 0.48646 0.0
C4887 C 0.11687 0.40576 0.54746 0.0
C4888 C 0.08954 0.39788 0.50932 0.0
C4889 C 0.11613 0.40571 0.56497 0.0
C4890 C 0.09058 0.37797 0.44068 0.0
C4891 C 0.09206 0.38035 0.45793 0.0
C4892 C 0.11956 0.39546 0.49268 0.0
C4893 C 0.10424 0.3974 0.5375 0.0
C4894 C 0.10458 0.3975 0.51879 0.0
C4895 C 0.1038 0.39218 0.46493 0.0
C4896 C 0.1044 0.39506 0.48337 0.0
H4897 H 0.07983 0.38206 0.5686 0.0
H4898 H 0.0813 0.38182 0.53849 0.0
H4899 H 0.13148 0.39619 0.517 0.0
H4900 H 0.12077 0.4066 0.4288 0.0
H4901 H 0.12355 0.41054 0.45922 0.0
C4902 C 0.88287 0.60568 0.94518 0.0
C4903 C 0.88605 0.61943 0.93472 0.0
C4904 C 0.88306 0.60759 0.9625 0.0
C4905 C 0.88008 0.63884 0.99668 0.0
H4906 H 0.89548 0.60234 0.02342 0.0
C4907 C 0.88297 0.63859 0.07011 0.0
C4908 C 0.87597 0.62393 0.07721 0.0
C4909 C 0.88534 0.63952 0.05281 0.0
C4910 C 0.8911 0.61264 0.01614 0.0
H4911 H 0.89195 0.64611 0.9346 0.0
H4912 H 0.8926 0.64941 0.96503 0.0
H4913 H 0.89811 0.60143 0.9933 0.0
H4914 H 0.866 0.59878 0.07158 0.0
H4915 H 0.87036 0.60034 0.04176 0.0
H4916 H 0.87318 0.65001 0.01981 0.0
C4917 C 0.88975 0.63713 0.95969 0.0
C4918 C 0.89253 0.6121 0.99881 0.0
C4919 C 0.88948 0.63522 0.94221 0.0
C4920 C 0.87142 0.61029 0.06662 0.0
C4921 C 0.87401 0.61113 0.04948 0.0
C4922 C 0.8788 0.63945 0.01413 0.0
C4923 C 0.88658 0.6233 0.97009 0.0
C4924 C 0.88664 0.62496 0.98874 0.0
C4925 C 0.88105 0.62571 0.04233 0.0
C4926 C 0.88393 0.62614 0.02402 0.0
H4927 H 0.88 0.59332 0.94001 0.0
H4928 H 0.88013 0.59669 0.96995 0.0
H4929 H 0.87532 0.64895 0.98939 0.0
H4930 H 0.88661 0.64933 0.0779 0.0
H4931 H 0.89083 0.65091 0.04768 0.0
C4932 C 0.86952 0.40068 0.45468 0.0
C4933 C 0.88377 0.39447 0.44739 0.0
C4934 C 0.86806 0.401 0.47215 0.0
C4935 C 0.89434 0.39849 0.51129 0.0
H4936 H 0.8527 0.38611 0.53266 0.0
C4937 C 0.89267 0.37228 0.57703 0.0
C4938 C 0.88383 0.38086 0.58909 0.0
C4939 C 0.89079 0.37576 0.5601 0.0
C4940 C 0.86434 0.38982 0.52684 0.0
H4941 H 0.90741 0.38331 0.45288 0.0
H4942 H 0.90472 0.38351 0.48277 0.0
H4943 H 0.85314 0.38889 0.50217 0.0
H4944 H 0.86544 0.39945 0.59243 0.0
H4945 H 0.86184 0.40523 0.56243 0.0
H4946 H 0.90569 0.39858 0.53577 0.0
C4947 C 0.89485 0.38864 0.47524 0.0
C4948 C 0.86462 0.39144 0.50938 0.0
C4949 C 0.89634 0.38842 0.45795 0.0
C4950 C 0.87247 0.39261 0.58355 0.0
C4951 C 0.87038 0.39591 0.5664 0.0
C4952 C 0.89409 0.39667 0.52859 0.0
C4953 C 0.88081 0.39509 0.48268 0.0
C4954 C 0.87975 0.39535 0.50132 0.0
C4955 C 0.87983 0.38774 0.55457 0.0
C4956 C 0.8792 0.39195 0.53653 0.0
H4957 H 0.85957 0.40537 0.44692 0.0
H4958 H 0.85706 0.40608 0.4774 0.0
H4959 H 0.90614 0.40201 0.50568 0.0
H4960 H 0.90149 0.36309 0.58063 0.0
H4961 H 0.89812 0.36916 0.55126 0.0
C4962 C 0.15666 0.62544 0.56145 0.0
C4963 C 0.1407 0.62703 0.56804 0.0
C4964 C 0.15858 0.6239 0.54414 0.0
C4965 C 0.13727 0.60986 0.50532 0.0
H4966 H 0.16366 0.6442 0.48269 0.0
C4967 C 0.14749 0.61084 0.43311 0.0
C4968 C 0.14121 0.6252 0.42582 0.0
C4969 C 0.14953 0.60979 0.45054 0.0
C4970 C 0.15643 0.63441 0.48887 0.0
H4971 H 0.11426 0.62769 0.56167 0.0
H4972 H 0.1176 0.62437 0.53166 0.0
H4973 H 0.16326 0.64412 0.5133 0.0
H4974 H 0.13285 0.64993 0.43103 0.0
H4975 H 0.13707 0.64834 0.46121 0.0
H4976 H 0.13036 0.6002 0.48089 0.0
C4977 C 0.12861 0.62459 0.53982 0.0
C4978 C 0.15624 0.63434 0.50636 0.0
C4979 C 0.12673 0.62657 0.55701 0.0
C4980 C 0.13765 0.63867 0.43625 0.0
C4981 C 0.14012 0.6378 0.45354 0.0
C4982 C 0.13779 0.60968 0.48785 0.0
C4983 C 0.14455 0.62341 0.53316 0.0
C4984 C 0.14637 0.62228 0.51475 0.0
C4985 C 0.14584 0.62328 0.46092 0.0
C4986 C 0.14709 0.62216 0.47943 0.0
H4987 H 0.16766 0.62579 0.56963 0.0
H4988 H 0.17102 0.62302 0.53932 0.0
H4989 H 0.12955 0.60043 0.51148 0.0
H4990 H 0.15027 0.60024 0.42539 0.0
H4991 H 0.15395 0.59844 0.45594 0.0
C4992 C 0.31004 0.10031 0.38918 0.0
C4993 C 0.32044 0.11109 0.39934 0.0
C4994 C 0.29263 0.10103 0.38932 0.0
C4995 C 0.25818 0.11275 0.41536 0.0
H4996 H 0.23237 0.1128 0.37377 0.0
C4997 C 0.18669 0.1198 0.41488 0.0
C4998 C 0.17659 0.11159 0.40242 0.0
C4999 C 0.20415 0.12021 0.4142 0.0
C5000 C 0.23928 0.11251 0.38553 0.0
H5001 H 0.32055 0.13109 0.41767 0.0
H5002 H 0.28997 0.13206 0.41822 0.0
H5003 H 0.2628 0.11273 0.3733 0.0
H5004 H 0.17702 0.09732 0.37943 0.0
H5005 H 0.20751 0.09741 0.37851 0.0
H5006 H 0.23482 0.1119 0.42768 0.0
C5007 C 0.29542 0.12312 0.41007 0.0
C5008 C 0.25679 0.11259 0.38524 0.0
C5009 C 0.31292 0.1226 0.40971 0.0
C5010 C 0.18443 0.10379 0.3892 0.0
C5011 C 0.20196 0.10397 0.38864 0.0
C5012 C 0.24067 0.11241 0.41568 0.0
C5013 C 0.28507 0.11237 0.39981 0.0
C5014 C 0.26646 0.11274 0.40015 0.0
C5015 C 0.21213 0.11217 0.40116 0.0
C5016 C 0.2309 0.11234 0.40077 0.0
H5017 H 0.31536 0.09133 0.38098 0.0
H5018 H 0.28504 0.09249 0.38139 0.0
H5019 H 0.26524 0.1126 0.42706 0.0
H5020 H 0.18111 0.12612 0.42516 0.0
H5021 H 0.21135 0.12703 0.42387 0.0
C5022 C 0.37354 0.70076 0.86626 0.0
C5023 C 0.38395 0.69325 0.87807 0.0
C5024 C 0.37307 0.71824 0.86552 0.0
C5025 C 0.38435 0.75624 0.89188 0.0
H5026 H 0.37599 0.78029 0.85105 0.0
C5027 C 0.39786 0.82722 0.88553 0.0
C5028 C 0.38566 0.83661 0.87759 0.0
C5029 C 0.39611 0.8098 0.88585 0.0
C5030 C 0.37815 0.77371 0.86257 0.0
H5031 H 0.40286 0.69815 0.89752 0.0
H5032 H 0.40273 0.72832 0.89575 0.0
H5033 H 0.37685 0.74985 0.85022 0.0
H5034 H 0.36197 0.83501 0.86383 0.0
H5035 H 0.35907 0.80435 0.86412 0.0
H5036 H 0.38626 0.78015 0.90408 0.0
C5037 C 0.39429 0.72092 0.88753 0.0
C5038 C 0.37863 0.75622 0.86213 0.0
C5039 C 0.39452 0.70355 0.88845 0.0
C5040 C 0.37149 0.82814 0.8702 0.0
C5041 C 0.36991 0.8106 0.87022 0.0
C5042 C 0.38412 0.77366 0.89226 0.0
C5043 C 0.38319 0.7286 0.87644 0.0
C5044 C 0.38197 0.74722 0.87676 0.0
C5045 C 0.38228 0.80125 0.87797 0.0
C5046 C 0.38118 0.78263 0.87761 0.0
H5047 H 0.36513 0.69314 0.8582 0.0
H5048 H 0.3643 0.72358 0.85684 0.0
H5049 H 0.38641 0.74986 0.90353 0.0
H5050 H 0.40894 0.83336 0.8913 0.0
H5051 H 0.4059 0.80297 0.89183 0.0
C5052 C 0.69129 0.88825 0.40612 0.0
C5053 C 0.68355 0.90142 0.39809 0.0
C5054 C 0.70878 0.88738 0.40627 0.0
C5055 C 0.74543 0.88337 0.39853 0.0
H5056 H 0.7731 0.92446 0.39759 0.0
C5057 C 0.81715 0.88722 0.41201 0.0
C5058 C 0.82715 0.89635 0.40075 0.0
C5059 C 0.79969 0.88738 0.41093 0.0
C5060 C 0.76553 0.91287 0.39769 0.0
H5061 H 0.68816 0.92374 0.3835 0.0
H5062 H 0.71821 0.92183 0.38304 0.0
H5063 H 0.74281 0.92565 0.39806 0.0
H5064 H 0.82656 0.91282 0.37951 0.0
H5065 H 0.79592 0.9135 0.37794 0.0
H5066 H 0.76844 0.87073 0.39893 0.0
C5067 C 0.71105 0.91248 0.38986 0.0
C5068 C 0.74809 0.9135 0.39789 0.0
C5069 C 0.69367 0.91351 0.38999 0.0
C5070 C 0.81923 0.90566 0.38836 0.0
C5071 C 0.8017 0.90609 0.3875 0.0
C5072 C 0.76291 0.88277 0.39865 0.0
C5073 C 0.71897 0.8995 0.39813 0.0
C5074 C 0.7377 0.89876 0.39822 0.0
C5075 C 0.79175 0.89692 0.39877 0.0
C5076 C 0.77316 0.89751 0.39817 0.0
H5077 H 0.68385 0.87875 0.41251 0.0
H5078 H 0.71428 0.87731 0.41301 0.0
H5079 H 0.73802 0.8717 0.39847 0.0
H5080 H 0.82281 0.87986 0.42168 0.0
H5081 H 0.79239 0.88029 0.41986 0.0
C5082 C 0.62946 0.18562 0.89434 0.0
C5083 C 0.63847 0.17598 0.88336 0.0
C5084 C 0.63178 0.20301 0.89479 0.0
C5085 C 0.64309 0.23887 0.86909 0.0
H5086 H 0.64728 0.26265 0.91135 0.0
C5087 C 0.64864 0.31187 0.87403 0.0
C5088 C 0.64166 0.31928 0.88801 0.0
C5089 C 0.64913 0.29441 0.87268 0.0
C5090 C 0.64584 0.25629 0.89941 0.0
H5091 H 0.65714 0.17702 0.86432 0.0
H5092 H 0.66102 0.20768 0.86488 0.0
H5093 H 0.64728 0.23235 0.91085 0.0
H5094 H 0.62879 0.31407 0.91097 0.0
H5095 H 0.62893 0.28396 0.9083 0.0
H5096 H 0.641 0.26277 0.85765 0.0
C5097 C 0.65225 0.20165 0.87324 0.0
C5098 C 0.646 0.23886 0.89915 0.0
C5099 C 0.65016 0.18413 0.87303 0.0
C5100 C 0.63446 0.30882 0.90013 0.0
C5101 C 0.63473 0.29147 0.89868 0.0
C5102 C 0.64269 0.25636 0.86935 0.0
C5103 C 0.64297 0.21128 0.88406 0.0
C5104 C 0.64441 0.2299 0.88402 0.0
C5105 C 0.64246 0.28394 0.88519 0.0
C5106 C 0.64378 0.26534 0.88456 0.0
H5107 H 0.62039 0.17971 0.90246 0.0
H5108 H 0.62438 0.21003 0.9032 0.0
H5109 H 0.6417 0.2323 0.85724 0.0
H5110 H 0.65439 0.31957 0.86452 0.0
H5111 H 0.65525 0.28918 0.86212 0.0
C5112 C 0.32251 0.88148 0.61379 0.0
C5113 C 0.33271 0.872 0.62415 0.0
C5114 C 0.30509 0.87939 0.61413 0.0
C5115 C 0.27097 0.86739 0.64154 0.0
H5116 H 0.24411 0.86658 0.6006 0.0
C5117 C 0.19768 0.8637 0.6401 0.0
C5118 C 0.18969 0.87228 0.62718 0.0
C5119 C 0.21516 0.86265 0.64053 0.0
C5120 C 0.25137 0.86703 0.61219 0.0
H5121 H 0.3326 0.85267 0.64285 0.0
H5122 H 0.30194 0.84914 0.6436 0.0
H5123 H 0.27436 0.8657 0.59932 0.0
H5124 H 0.19393 0.88744 0.60532 0.0
H5125 H 0.2241 0.88613 0.60636 0.0
H5126 H 0.24799 0.86927 0.65442 0.0
C5127 C 0.30754 0.85813 0.63515 0.0
C5128 C 0.26874 0.86639 0.61143 0.0
C5129 C 0.32506 0.86002 0.63459 0.0
C5130 C 0.19961 0.88048 0.61527 0.0
C5131 C 0.21698 0.87959 0.6158 0.0
C5132 C 0.25353 0.8682 0.64232 0.0
C5133 C 0.29737 0.86793 0.62502 0.0
C5134 C 0.27879 0.86683 0.62606 0.0
C5135 C 0.22502 0.87028 0.62813 0.0
C5136 C 0.2435 0.86834 0.62762 0.0
H5137 H 0.328 0.89082 0.60563 0.0
H5138 H 0.29765 0.88722 0.60626 0.0
H5139 H 0.27839 0.86788 0.65304 0.0
H5140 H 0.19039 0.85716 0.64942 0.0
H5141 H 0.22085 0.85534 0.65022 0.0
C5142 C 0.6035 0.67935 0.1176 0.0
C5143 C 0.61271 0.67198 0.10506 0.0
C5144 C 0.60236 0.69676 0.11839 0.0
C5145 C 0.62362 0.73653 0.10635 0.0
H5146 H 0.57987 0.75474 0.10861 0.0
C5147 C 0.61475 0.80765 0.09871 0.0
C5148 C 0.6017 0.8148 0.10717 0.0
C5149 C 0.61631 0.79028 0.09864 0.0
C5150 C 0.59227 0.75 0.1083 0.0
H5151 H 0.6283 0.67724 0.08383 0.0
H5152 H 0.62663 0.70747 0.08551 0.0
H5153 H 0.58238 0.72465 0.10913 0.0
H5154 H 0.58035 0.80925 0.12263 0.0
H5155 H 0.58345 0.77938 0.12318 0.0
H5156 H 0.63366 0.76176 0.10599 0.0
C5157 C 0.62016 0.69982 0.09461 0.0
C5158 C 0.59366 0.73265 0.10853 0.0
C5159 C 0.62103 0.68246 0.09361 0.0
C5160 C 0.59044 0.80419 0.11578 0.0
C5161 C 0.59216 0.78693 0.11598 0.0
C5162 C 0.62228 0.7539 0.10642 0.0
C5163 C 0.6107 0.7072 0.10691 0.0
C5164 C 0.60933 0.72569 0.10744 0.0
C5165 C 0.60503 0.7796 0.1073 0.0
C5166 C 0.60656 0.76097 0.10732 0.0
H5167 H 0.59694 0.67165 0.1266 0.0
H5168 H 0.59504 0.70208 0.12807 0.0
H5169 H 0.63591 0.73156 0.10562 0.0
H5170 H 0.62362 0.81546 0.09192 0.0
H5171 H 0.62624 0.78525 0.09157 0.0
C5172 C 0.80999 0.1081 0.62019 0.0
C5173 C 0.82118 0.11751 0.63079 0.0
C5174 C 0.79272 0.10846 0.62211 0.0
C5175 C 0.7602 0.13487 0.63678 0.0
H5176 H 0.73229 0.09401 0.6335 0.0
C5177 C 0.68715 0.13289 0.64099 0.0
C5178 C 0.67814 0.1206 0.63132 0.0
C5179 C 0.70474 0.13339 0.64179 0.0
C5180 C 0.73983 0.1056 0.6342 0.0
H5181 H 0.82294 0.13454 0.65195 0.0
H5182 H 0.79256 0.13535 0.6552 0.0
H5183 H 0.76256 0.09266 0.63412 0.0
H5184 H 0.6805 0.10012 0.61396 0.0
H5185 H 0.71084 0.10131 0.61483 0.0
H5186 H 0.73742 0.14785 0.63634 0.0
C5187 C 0.79728 0.12763 0.64542 0.0
C5188 C 0.75723 0.10479 0.63468 0.0
C5189 C 0.81465 0.12704 0.64367 0.0
C5190 C 0.68705 0.10952 0.62177 0.0
C5191 C 0.70451 0.11013 0.6224 0.0
C5192 C 0.74272 0.13571 0.63613 0.0
C5193 C 0.78612 0.11843 0.63456 0.0
C5194 C 0.76764 0.1194 0.63572 0.0
C5195 C 0.71364 0.12171 0.63281 0.0
C5196 C 0.73228 0.12107 0.63452 0.0
H5197 H 0.81456 0.10061 0.61018 0.0
H5198 H 0.78449 0.10132 0.61347 0.0
H5199 H 0.76791 0.14636 0.63747 0.0
H5200 H 0.68061 0.14154 0.64857 0.0
H5201 H 0.71129 0.14249 0.64996 0.0
C5202 C 0.40369 0.19356 0.11628 0.0
C5203 C 0.39226 0.18316 0.10681 0.0
C5204 C 0.40263 0.21092 0.11629 0.0
C5205 C 0.38702 0.24578 0.09176 0.0
H5206 H 0.39215 0.27035 0.13357 0.0
C5207 C 0.37864 0.31708 0.09482 0.0
C5208 C 0.38858 0.32687 0.10627 0.0
C5209 C 0.3786 0.29962 0.0951 0.0
C5210 C 0.39094 0.26379 0.12172 0.0
H5211 H 0.37075 0.18306 0.08983 0.0
H5212 H 0.36908 0.21352 0.08961 0.0
H5213 H 0.39289 0.24003 0.13347 0.0
H5214 H 0.40634 0.32584 0.12704 0.0
H5215 H 0.40672 0.29543 0.12724 0.0
H5216 H 0.38552 0.26946 0.0799 0.0
C5217 C 0.37886 0.20813 0.09707 0.0
C5218 C 0.39129 0.24632 0.12168 0.0
C5219 C 0.37977 0.19067 0.09724 0.0
C5220 C 0.39847 0.3187 0.11808 0.0
C5221 C 0.39859 0.3012 0.11824 0.0
C5222 C 0.38686 0.26327 0.09176 0.0
C5223 C 0.39024 0.21848 0.10668 0.0
C5224 C 0.38935 0.23707 0.10671 0.0
C5225 C 0.38867 0.29134 0.10672 0.0
C5226 C 0.38883 0.27259 0.10674 0.0
H5227 H 0.41345 0.18828 0.12386 0.0
H5228 H 0.41172 0.21846 0.12368 0.0
H5229 H 0.38572 0.2391 0.07998 0.0
H5230 H 0.37071 0.3229 0.08565 0.0
H5231 H 0.37049 0.29263 0.08626 0.0
C5232 C 0.10192 0.41828 0.18942 0.0
C5233 C 0.0992 0.40395 0.17928 0.0
C5234 C 0.10215 0.41714 0.20682 0.0
C5235 C 0.08888 0.38932 0.24147 0.0
H5236 H 0.119 0.41908 0.26782 0.0
C5237 C 0.11151 0.40197 0.31534 0.0
C5238 C 0.09588 0.39961 0.3228 0.0
C5239 C 0.11269 0.40197 0.29788 0.0
C5240 C 0.11062 0.41054 0.2607 0.0
H5241 H 0.09466 0.3771 0.17964 0.0
H5242 H 0.09525 0.37504 0.21004 0.0
H5243 H 0.11987 0.41962 0.23749 0.0
H5244 H 0.06922 0.39558 0.31762 0.0
H5245 H 0.07124 0.39596 0.28753 0.0
H5246 H 0.07987 0.37998 0.26466 0.0
C5247 C 0.09696 0.38725 0.20452 0.0
C5248 C 0.11095 0.411 0.24323 0.0
C5249 C 0.09668 0.38841 0.18705 0.0
C5250 C 0.0815 0.3974 0.31239 0.0
C5251 C 0.08267 0.39745 0.29502 0.0
C5252 C 0.08858 0.38882 0.25892 0.0
C5253 C 0.09975 0.40161 0.21467 0.0
C5254 C 0.09995 0.40053 0.23334 0.0
C5255 C 0.09827 0.39963 0.28746 0.0
C5256 C 0.0993 0.39956 0.26882 0.0
H5257 H 0.1039 0.43048 0.18392 0.0
H5258 H 0.10401 0.42852 0.21412 0.0
H5259 H 0.08012 0.38114 0.23437 0.0
H5260 H 0.12285 0.40362 0.32297 0.0
H5261 H 0.12495 0.40354 0.29255 0.0
C5262 C 0.14612 0.63387 0.68361 0.0
C5263 C 0.13463 0.62248 0.67548 0.0
C5264 C 0.14741 0.63449 0.70114 0.0
C5265 C 0.13926 0.60956 0.73871 0.0
H5266 H 0.13374 0.65157 0.76163 0.0
C5267 C 0.12523 0.61028 0.80847 0.0
C5268 C 0.13214 0.6233 0.81872 0.0
C5269 C 0.12607 0.61114 0.79111 0.0
C5270 C 0.13557 0.63976 0.75551 0.0
H5271 H 0.11607 0.60238 0.6793 0.0
H5272 H 0.11869 0.60308 0.70964 0.0
H5273 H 0.13567 0.65093 0.73122 0.0
H5274 H 0.145 0.64771 0.81864 0.0
H5275 H 0.14689 0.64908 0.78825 0.0
H5276 H 0.13948 0.5983 0.76272 0.0
C5277 C 0.12654 0.61169 0.70258 0.0
C5278 C 0.13666 0.63941 0.73804 0.0
C5279 C 0.125 0.61132 0.68518 0.0
C5280 C 0.13944 0.63751 0.8111 0.0
C5281 C 0.14052 0.63828 0.79363 0.0
C5282 C 0.1384 0.60992 0.7561 0.0
C5283 C 0.13753 0.62345 0.71081 0.0
C5284 C 0.13819 0.62425 0.72942 0.0
C5285 C 0.13415 0.62491 0.78338 0.0
C5286 C 0.13615 0.62495 0.7648 0.0
H5287 H 0.15358 0.64273 0.67645 0.0
H5288 H 0.15606 0.64363 0.70713 0.0
H5289 H 0.14067 0.59771 0.73246 0.0
H5290 H 0.11934 0.59922 0.8139 0.0
H5291 H 0.12047 0.60083 0.78377 0.0
C5292 C 0.89321 0.60901 0.19483 0.0
C5293 C 0.88359 0.61913 0.18456 0.0
C5294 C 0.89297 0.61051 0.21218 0.0
C5295 C 0.88028 0.63753 0.24737 0.0
H5296 H 0.88358 0.59626 0.2718 0.0
C5297 C 0.87482 0.63267 0.31994 0.0
C5298 C 0.88824 0.62483 0.32771 0.0
C5299 C 0.87257 0.63209 0.30249 0.0
C5300 C 0.88265 0.6079 0.26517 0.0
H5301 H 0.86656 0.63922 0.18451 0.0
H5302 H 0.86577 0.64165 0.21498 0.0
H5303 H 0.88313 0.59565 0.24148 0.0
H5304 H 0.90934 0.60967 0.32332 0.0
H5305 H 0.90516 0.60827 0.29314 0.0
H5306 H 0.87957 0.64964 0.27134 0.0
C5307 C 0.87373 0.63266 0.20958 0.0
C5308 C 0.88253 0.6076 0.24773 0.0
C5309 C 0.87417 0.63129 0.1921 0.0
C5310 C 0.89892 0.61589 0.31774 0.0
C5311 C 0.89649 0.61504 0.30043 0.0
C5312 C 0.88018 0.63779 0.26489 0.0
C5313 C 0.88287 0.62201 0.21989 0.0
C5314 C 0.88175 0.62245 0.23853 0.0
C5315 C 0.88346 0.62333 0.29255 0.0
C5316 C 0.88171 0.623 0.27398 0.0
H5317 H 0.90089 0.59978 0.18944 0.0
H5318 H 0.90067 0.60249 0.21955 0.0
H5319 H 0.87974 0.64924 0.24081 0.0
H5320 H 0.86647 0.63978 0.32728 0.0
H5321 H 0.86236 0.63853 0.29677 0.0
C5322 C 0.88336 0.37261 0.83174 0.0
C5323 C 0.89514 0.38315 0.84051 0.0
C5324 C 0.88297 0.37214 0.8142 0.0
C5325 C 0.89837 0.39762 0.77799 0.0
H5326 H 0.88215 0.35904 0.75178 0.0
C5327 C 0.90785 0.39143 0.70707 0.0
C5328 C 0.89359 0.38721 0.697 0.0
C5329 C 0.90722 0.39071 0.72446 0.0
C5330 C 0.88659 0.36994 0.75898 0.0
H5331 H 0.91636 0.40062 0.83794 0.0
H5332 H 0.91652 0.39902 0.80768 0.0
H5333 H 0.88359 0.35731 0.78223 0.0
H5334 H 0.86749 0.37867 0.69737 0.0
H5335 H 0.86652 0.37697 0.72796 0.0
H5336 H 0.90198 0.40996 0.75465 0.0
C5337 C 0.90697 0.3917 0.81405 0.0
C5338 C 0.88739 0.369 0.77647 0.0
C5339 C 0.90708 0.39245 0.83148 0.0
C5340 C 0.87865 0.38213 0.70479 0.0
C5341 C 0.87813 0.38104 0.72226 0.0
C5342 C 0.89788 0.39842 0.76056 0.0
C5343 C 0.89455 0.38201 0.80504 0.0
C5344 C 0.89342 0.38281 0.7863 0.0
C5345 C 0.89241 0.3854 0.73228 0.0
C5346 C 0.89206 0.3846 0.75084 0.0
H5347 H 0.87383 0.36551 0.8384 0.0
H5348 H 0.87312 0.3646 0.80787 0.0
H5349 H 0.90256 0.40876 0.78491 0.0
H5350 H 0.91957 0.39538 0.7015 0.0
H5351 H 0.91845 0.39406 0.73184 0.0
C5352 C 0.70032 0.87197 0.65462 0.0
C5353 C 0.69011 0.86889 0.64033 0.0
C5354 C 0.71766 0.87092 0.65402 0.0
C5355 C 0.75199 0.85672 0.62703 0.0
H5356 H 0.77911 0.88532 0.65735 0.0
C5357 C 0.82369 0.85155 0.6322 0.0
C5358 C 0.8339 0.86577 0.63653 0.0
C5359 C 0.80626 0.85187 0.63272 0.0
C5360 C 0.77185 0.8774 0.64856 0.0
H5361 H 0.68999 0.86222 0.61415 0.0
H5362 H 0.72037 0.86119 0.61274 0.0
H5363 H 0.74903 0.88629 0.65738 0.0
H5364 H 0.83385 0.89158 0.64455 0.0
H5365 H 0.80347 0.89252 0.64462 0.0
H5366 H 0.77488 0.8487 0.6174 0.0
C5367 C 0.71504 0.86386 0.62466 0.0
C5368 C 0.7544 0.87769 0.64883 0.0
C5369 C 0.69757 0.8645 0.6254 0.0
C5370 C 0.82629 0.88037 0.64132 0.0
C5371 C 0.80881 0.88083 0.64144 0.0
C5372 C 0.76947 0.85671 0.62649 0.0
C5373 C 0.7254 0.86723 0.63895 0.0
C5374 C 0.74413 0.8672 0.63822 0.0
C5375 C 0.79847 0.86656 0.63717 0.0
C5376 C 0.77973 0.86692 0.63738 0.0
H5377 H 0.69489 0.87522 0.66637 0.0
H5378 H 0.72494 0.87304 0.66546 0.0
H5379 H 0.7447 0.8483 0.61874 0.0
H5380 H 0.82919 0.84005 0.62858 0.0
H5381 H 0.79895 0.84045 0.62977 0.0
C5382 C 0.60019 0.18247 0.1346 0.0
C5383 C 0.60912 0.17225 0.12401 0.0
C5384 C 0.60086 0.19981 0.13284 0.0
C5385 C 0.61127 0.23357 0.1028 0.0
H5386 H 0.61181 0.26187 0.14228 0.0
C5387 C 0.62472 0.30483 0.09976 0.0
C5388 C 0.61559 0.3154 0.10982 0.0
C5389 C 0.62337 0.28751 0.10153 0.0
C5390 C 0.61144 0.25416 0.13111 0.0
H5391 H 0.62584 0.17256 0.10318 0.0
H5392 H 0.6272 0.20292 0.10023 0.0
H5393 H 0.61124 0.23162 0.14522 0.0
H5394 H 0.59778 0.31573 0.12968 0.0
H5395 H 0.5954 0.28533 0.13279 0.0
H5396 H 0.6116 0.25614 0.08871 0.0
C5397 C 0.61947 0.19741 0.10981 0.0
C5398 C 0.61113 0.23676 0.13278 0.0
C5399 C 0.61878 0.17997 0.11156 0.0
C5400 C 0.60501 0.30804 0.12173 0.0
C5401 C 0.60372 0.2906 0.12356 0.0
C5402 C 0.61162 0.25096 0.10114 0.0
C5403 C 0.61051 0.20759 0.12045 0.0
C5404 C 0.61107 0.22619 0.11865 0.0
C5405 C 0.61287 0.2801 0.11344 0.0
C5406 C 0.61177 0.26152 0.11527 0.0
H5407 H 0.5925 0.17709 0.1443 0.0
H5408 H 0.59354 0.20711 0.14107 0.0
H5409 H 0.6109 0.2259 0.09161 0.0
H5410 H 0.63303 0.30991 0.09042 0.0
H5411 H 0.63082 0.27993 0.09369 0.0
C5412 C 0.18864 0.14098 0.61775 0.0
C5413 C 0.17909 0.13773 0.63195 0.0
C5414 C 0.20602 0.14018 0.61846 0.0
C5415 C 0.24293 0.14526 0.64533 0.0
H5416 H 0.2637 0.11655 0.61364 0.0
C5417 C 0.31487 0.1461 0.6328 0.0
C5418 C 0.32172 0.13044 0.63481 0.0
C5419 C 0.29744 0.14752 0.63266 0.0
C5420 C 0.25807 0.12466 0.62251 0.0
H5421 H 0.18039 0.13129 0.65811 0.0
H5422 H 0.21109 0.13042 0.65947 0.0
H5423 H 0.23319 0.11775 0.61351 0.0
H5424 H 0.31569 0.10398 0.63783 0.0
H5425 H 0.28545 0.10643 0.63695 0.0
H5426 H 0.26792 0.15243 0.65407 0.0
C5427 C 0.20493 0.13339 0.64776 0.0
C5428 C 0.24064 0.12535 0.62244 0.0
C5429 C 0.1874 0.13382 0.64697 0.0
C5430 C 0.31082 0.11624 0.63631 0.0
C5431 C 0.2935 0.11761 0.63577 0.0
C5432 C 0.26043 0.14486 0.64515 0.0
C5433 C 0.21438 0.13645 0.63345 0.0
C5434 C 0.23288 0.13557 0.6339 0.0
C5435 C 0.28661 0.13326 0.63409 0.0
C5436 C 0.26815 0.13447 0.6338 0.0
H5437 H 0.18266 0.144 0.60597 0.0
H5438 H 0.21299 0.14265 0.60727 0.0
H5439 H 0.23725 0.15333 0.65421 0.0
H5440 H 0.32296 0.15725 0.63168 0.0
H5441 H 0.29242 0.15973 0.63127 0.0
C5442 C 0.40022 0.8165 0.12606 0.0
C5443 C 0.39067 0.82657 0.11556 0.0
C5444 C 0.39909 0.79911 0.12452 0.0
C5445 C 0.37224 0.76345 0.10757 0.0
H5446 H 0.41279 0.73947 0.11335 0.0
C5447 C 0.37404 0.69248 0.09394 0.0
C5448 C 0.38387 0.68275 0.10452 0.0
C5449 C 0.37469 0.7099 0.0954 0.0
C5450 C 0.40129 0.74591 0.11192 0.0
H5451 H 0.37228 0.82591 0.0952 0.0
H5452 H 0.3704 0.79543 0.09243 0.0
H5453 H 0.41415 0.76982 0.11512 0.0
H5454 H 0.4021 0.68401 0.12503 0.0
H5455 H 0.40315 0.71444 0.12765 0.0
H5456 H 0.35939 0.7395 0.10433 0.0
C5457 C 0.37869 0.80111 0.10199 0.0
C5458 C 0.40207 0.76339 0.11291 0.0
C5459 C 0.37981 0.81863 0.10353 0.0
C5460 C 0.39436 0.69102 0.11664 0.0
C5461 C 0.39503 0.70852 0.11808 0.0
C5462 C 0.37146 0.74595 0.10656 0.0
C5463 C 0.38841 0.79111 0.11242 0.0
C5464 C 0.38755 0.77244 0.11082 0.0
C5465 C 0.3852 0.71822 0.10746 0.0
C5466 C 0.38598 0.73691 0.10875 0.0
H5467 H 0.40868 0.82203 0.13557 0.0
H5468 H 0.40654 0.79191 0.13301 0.0
H5469 H 0.36075 0.76991 0.10613 0.0
H5470 H 0.36583 0.68667 0.08438 0.0
H5471 H 0.36713 0.71688 0.08681 0.0
C5472 C 0.68694 0.10877 0.37391 0.0
C5473 C 0.67717 0.11646 0.38583 0.0
C5474 C 0.70435 0.10904 0.37567 0.0
C5475 C 0.73925 0.1152 0.40689 0.0
H5476 H 0.76621 0.11839 0.36746 0.0
C5477 C 0.8115 0.124 0.41038 0.0
C5478 C 0.82085 0.11518 0.39892 0.0
C5479 C 0.79405 0.12388 0.40895 0.0
C5480 C 0.75887 0.11728 0.37858 0.0
H5481 H 0.67838 0.13066 0.40898 0.0
H5482 H 0.70894 0.13142 0.41192 0.0
H5483 H 0.73594 0.11979 0.36475 0.0
H5484 H 0.81891 0.09915 0.37699 0.0
H5485 H 0.78834 0.09899 0.37446 0.0
H5486 H 0.76229 0.11288 0.42071 0.0
C5487 C 0.70298 0.12494 0.40128 0.0
C5488 C 0.74146 0.1181 0.37705 0.0
C5489 C 0.68544 0.12461 0.39954 0.0
C5490 C 0.81217 0.10609 0.38603 0.0
C5491 C 0.79464 0.10609 0.38453 0.0
C5492 C 0.75669 0.11447 0.40843 0.0
C5493 C 0.71269 0.1171 0.38936 0.0
C5494 C 0.73136 0.11698 0.39117 0.0
C5495 C 0.78536 0.11503 0.39596 0.0
C5496 C 0.76674 0.11545 0.39428 0.0
H5497 H 0.68116 0.10224 0.3632 0.0
H5498 H 0.71125 0.10258 0.36639 0.0
H5499 H 0.73194 0.11401 0.41802 0.0
H5500 H 0.81764 0.13114 0.42051 0.0
H5501 H 0.78739 0.13107 0.41786 0.0
C5502 C 0.35164 0.32486 0.87611 0.0
C5503 C 0.36248 0.33541 0.86691 0.0
C5504 C 0.35291 0.30754 0.87573 0.0
C5505 C 0.35241 0.27069 0.86598 0.0
H5506 H 0.39645 0.25283 0.86823 0.0
C5507 C 0.36214 0.19986 0.87559 0.0
C5508 C 0.37511 0.19289 0.86681 0.0
C5509 C 0.36034 0.2172 0.87566 0.0
C5510 C 0.38403 0.25755 0.86738 0.0
H5511 H 0.38317 0.33584 0.85002 0.0
H5512 H 0.38537 0.30552 0.8493 0.0
H5513 H 0.39381 0.28292 0.86754 0.0
H5514 H 0.39627 0.19882 0.85115 0.0
H5515 H 0.39295 0.22867 0.85105 0.0
H5516 H 0.34263 0.24531 0.86573 0.0
C5517 C 0.37592 0.31073 0.85691 0.0
C5518 C 0.38253 0.27486 0.86698 0.0
C5519 C 0.37459 0.32812 0.85722 0.0
C5520 C 0.38615 0.20367 0.85811 0.0
C5521 C 0.38433 0.22091 0.85815 0.0
C5522 C 0.35392 0.25335 0.86632 0.0
C5523 C 0.36512 0.3002 0.86621 0.0
C5524 C 0.3667 0.28169 0.86627 0.0
C5525 C 0.37146 0.22798 0.86697 0.0
C5526 C 0.36975 0.24651 0.86699 0.0
H5527 H 0.3422 0.32999 0.8838 0.0
H5528 H 0.34453 0.2999 0.88323 0.0
H5529 H 0.34002 0.27546 0.86523 0.0
H5530 H 0.35345 0.19195 0.88247 0.0
H5531 H 0.35037 0.22217 0.88275 0.0
C5532 C 0.19483 0.88634 0.40224 0.0
C5533 C 0.18412 0.89666 0.39328 0.0
C5534 C 0.21208 0.88748 0.40012 0.0
C5535 C 0.24695 0.91497 0.38509 0.0
H5536 H 0.27032 0.8738 0.38505 0.0
C5537 C 0.31712 0.9131 0.36983 0.0
C5538 C 0.32715 0.90247 0.37922 0.0
C5539 C 0.29975 0.91254 0.3714 0.0
C5540 C 0.26405 0.88544 0.38524 0.0
H5541 H 0.18349 0.91654 0.37518 0.0
H5542 H 0.21383 0.91846 0.37135 0.0
H5543 H 0.24003 0.87281 0.38739 0.0
H5544 H 0.32651 0.8829 0.3977 0.0
H5545 H 0.29613 0.88196 0.40048 0.0
H5546 H 0.27103 0.92758 0.3829 0.0
C5547 C 0.20871 0.90952 0.38014 0.0
C5548 C 0.24663 0.88488 0.38656 0.0
C5549 C 0.1913 0.90839 0.38228 0.0
C5550 C 0.31924 0.89123 0.39023 0.0
C5551 C 0.30179 0.89064 0.39176 0.0
C5552 C 0.2644 0.91553 0.38374 0.0
C5553 C 0.21931 0.89894 0.38894 0.0
C5554 C 0.23782 0.89964 0.38664 0.0
C5555 C 0.29181 0.90133 0.38238 0.0
C5556 C 0.27321 0.90076 0.38388 0.0
H5557 H 0.18993 0.87725 0.41099 0.0
H5558 H 0.2198 0.87941 0.40743 0.0
H5559 H 0.24066 0.9266 0.38533 0.0
H5560 H 0.32266 0.92194 0.36119 0.0
H5561 H 0.29252 0.92077 0.36378 0.0
C5562 C 0.65563 0.68725 0.88993 0.0
C5563 C 0.64668 0.67618 0.87884 0.0
C5564 C 0.65476 0.70451 0.88832 0.0
C5565 C 0.62883 0.73709 0.87026 0.0
H5566 H 0.66898 0.76552 0.87809 0.0
C5567 C 0.63024 0.80804 0.85791 0.0
C5568 C 0.63936 0.81884 0.86913 0.0
C5569 C 0.63128 0.79073 0.85895 0.0
C5570 C 0.65759 0.7578 0.87607 0.0
H5571 H 0.62969 0.67472 0.85733 0.0
H5572 H 0.62825 0.70501 0.85442 0.0
H5573 H 0.67045 0.7353 0.87964 0.0
H5574 H 0.65676 0.81976 0.89032 0.0
H5575 H 0.65849 0.78946 0.89224 0.0
H5576 H 0.61596 0.75959 0.86677 0.0
C5577 C 0.63587 0.70024 0.86448 0.0
C5578 C 0.65844 0.74043 0.87692 0.0
C5579 C 0.63676 0.68288 0.86608 0.0
C5580 C 0.64962 0.81183 0.88143 0.0
C5581 C 0.65066 0.79445 0.88247 0.0
C5582 C 0.62798 0.75447 0.86943 0.0
C5583 C 0.64491 0.7113 0.87557 0.0
C5584 C 0.64406 0.72981 0.87408 0.0
C5585 C 0.64144 0.78365 0.87127 0.0
C5586 C 0.64235 0.76509 0.87234 0.0
H5587 H 0.66331 0.68262 0.90002 0.0
H5588 H 0.66165 0.71256 0.89729 0.0
H5589 H 0.61745 0.72936 0.86827 0.0
H5590 H 0.6222 0.81292 0.84824 0.0
H5591 H 0.62421 0.7829 0.84992 0.0
C5592 C 0.8894 0.64166 0.82077 0.0
C5593 C 0.8787 0.62935 0.82781 0.0
C5594 C 0.89027 0.64316 0.80336 0.0
C5595 C 0.8667 0.63172 0.76387 0.0
H5596 H 0.90975 0.63885 0.74345 0.0
C5597 C 0.87473 0.62608 0.69215 0.0
C5598 C 0.88619 0.63748 0.68482 0.0
C5599 C 0.87362 0.62526 0.70959 0.0
C5600 C 0.89758 0.63706 0.74891 0.0
H5601 H 0.86056 0.60894 0.82194 0.0
H5602 H 0.86212 0.61154 0.79192 0.0
H5603 H 0.90822 0.63783 0.77374 0.0
H5604 H 0.90538 0.65706 0.69018 0.0
H5605 H 0.90323 0.65582 0.72025 0.0
H5606 H 0.85603 0.63097 0.73907 0.0
C5607 C 0.86969 0.62021 0.79974 0.0
C5608 C 0.89672 0.63649 0.76633 0.0
C5609 C 0.86888 0.61866 0.81704 0.0
C5610 C 0.89641 0.64807 0.69533 0.0
C5611 C 0.89529 0.64728 0.71267 0.0
C5612 C 0.86755 0.63233 0.74645 0.0
C5613 C 0.88038 0.63245 0.79261 0.0
C5614 C 0.88128 0.63374 0.77406 0.0
C5615 C 0.88395 0.63582 0.7201 0.0
C5616 C 0.88301 0.63498 0.7387 0.0
H5617 H 0.89716 0.65007 0.82869 0.0
H5618 H 0.89856 0.65282 0.79831 0.0
H5619 H 0.85455 0.62981 0.76936 0.0
H5620 H 0.86672 0.6177 0.68445 0.0
H5621 H 0.86486 0.61615 0.71483 0.0
C5622 C 0.88726 0.36789 0.33023 0.0
C5623 C 0.88079 0.38022 0.34051 0.0
C5624 C 0.88654 0.36915 0.31288 0.0
C5625 C 0.88212 0.39986 0.27897 0.0
H5626 H 0.87535 0.36016 0.25116 0.0
C5627 C 0.87118 0.40326 0.20779 0.0
C5628 C 0.87898 0.39192 0.19739 0.0
C5629 C 0.87174 0.40162 0.2251 0.0
C5630 C 0.87747 0.37134 0.25874 0.0
H5631 H 0.86812 0.40345 0.34028 0.0
H5632 H 0.8666 0.40553 0.30983 0.0
H5633 H 0.87442 0.3578 0.28143 0.0
H5634 H 0.89357 0.3699 0.19732 0.0
H5635 H 0.89447 0.36699 0.22779 0.0
H5636 H 0.88499 0.4134 0.25624 0.0
C5637 C 0.8725 0.39497 0.31534 0.0
C5638 C 0.87691 0.37001 0.27614 0.0
C5639 C 0.87324 0.39372 0.33282 0.0
C5640 C 0.88742 0.37886 0.2049 0.0
C5641 C 0.88786 0.37714 0.22235 0.0
C5642 C 0.8826 0.40119 0.26158 0.0
C5643 C 0.87927 0.38275 0.30513 0.0
C5644 C 0.87924 0.38425 0.28653 0.0
C5645 C 0.88005 0.38857 0.23266 0.0
C5646 C 0.88026 0.38696 0.25122 0.0
H5647 H 0.89322 0.35728 0.33557 0.0
H5648 H 0.89214 0.35962 0.30556 0.0
H5649 H 0.88431 0.41106 0.28649 0.0
H5650 H 0.86455 0.41352 0.2026 0.0
H5651 H 0.86537 0.4105 0.23257 0.0
C5652 C 0.10355 0.39622 0.81542 0.0
C5653 C 0.11688 0.4052 0.82374 0.0
C5654 C 0.10295 0.39492 0.79793 0.0
C5655 C 0.12162 0.41439 0.75982 0.0
H5656 H 0.10362 0.37378 0.73822 0.0
C5657 C 0.11275 0.40806 0.68756 0.0
C5658 C 0.11442 0.39224 0.68036 0.0
C5659 C 0.11345 0.41016 0.70499 0.0
C5660 C 0.1089 0.38517 0.74399 0.0
H5661 H 0.14029 0.41941 0.82004 0.0
H5662 H 0.1395 0.4167 0.78994 0.0
H5663 H 0.10395 0.37599 0.76844 0.0
H5664 H 0.11924 0.36649 0.6857 0.0
H5665 H 0.12115 0.37021 0.71578 0.0
H5666 H 0.12718 0.4233 0.73539 0.0
C5667 C 0.12918 0.41111 0.79675 0.0
C5668 C 0.10882 0.38654 0.76142 0.0
C5669 C 0.1297 0.41255 0.81413 0.0
C5670 C 0.11769 0.3788 0.69087 0.0
C5671 C 0.1186 0.38092 0.70819 0.0
C5672 C 0.12184 0.41296 0.74239 0.0
C5673 C 0.11574 0.40241 0.78831 0.0
C5674 C 0.11528 0.40113 0.76963 0.0
C5675 C 0.11602 0.39651 0.71558 0.0
C5676 C 0.11559 0.39827 0.7342 0.0
H5677 H 0.09342 0.39047 0.82239 0.0
H5678 H 0.09228 0.38826 0.79195 0.0
H5679 H 0.12643 0.42597 0.76558 0.0
H5680 H 0.11002 0.41862 0.6798 0.0
H5681 H 0.11129 0.42236 0.71013 0.0
C5682 C 0.14333 0.62012 0.31106 0.0
C5683 C 0.13235 0.63078 0.31875 0.0
C5684 C 0.14389 0.61903 0.29357 0.0
C5685 C 0.13323 0.64279 0.2554 0.0
H5686 H 0.13744 0.60062 0.23243 0.0
C5687 C 0.12651 0.63674 0.18323 0.0
C5688 C 0.13713 0.62601 0.17517 0.0
C5689 C 0.12586 0.63716 0.20071 0.0
C5690 C 0.13646 0.61256 0.23862 0.0
H5691 H 0.11286 0.64811 0.31381 0.0
H5692 H 0.11383 0.64614 0.28371 0.0
H5693 H 0.13678 0.60137 0.26282 0.0
H5694 H 0.15542 0.60731 0.17934 0.0
H5695 H 0.1545 0.60828 0.20956 0.0
H5696 H 0.13301 0.65403 0.23127 0.0
C5697 C 0.12228 0.63889 0.2911 0.0
C5698 C 0.13608 0.61297 0.2561 0.0
C5699 C 0.12169 0.63995 0.30847 0.0
C5700 C 0.14707 0.61575 0.18505 0.0
C5701 C 0.14644 0.61619 0.20247 0.0
C5702 C 0.13365 0.64239 0.23794 0.0
C5703 C 0.13351 0.62859 0.28336 0.0
C5704 C 0.13439 0.62809 0.26474 0.0
C5705 C 0.13581 0.62687 0.2106 0.0
C5706 C 0.13523 0.62727 0.22927 0.0
H5707 H 0.15172 0.61287 0.31852 0.0
H5708 H 0.15275 0.61101 0.28805 0.0
H5709 H 0.13221 0.65472 0.2616 0.0
H5710 H 0.11862 0.64474 0.17604 0.0
H5711 H 0.11736 0.64541 0.20647 0.0
loop_
_geom_bond_atom_site_label_1
_geom_bond_atom_site_label_2
_geom_bond_distance
_geom_bond_site_symmetry_2
_ccdc_geom_bond_type
Co0 O2 2.143 . S
Co0 O8 2.074 . S
Co0 O11 2.093 . S
Co0 O24 2.097 . S
Co0 N41 2.151 . S
Co0 N49 2.214 . S
Co1 O2 2.160 . S
Co1 O7 2.058 . S
Co1 O17 2.057 . S
Co1 O32 2.037 . S
Co1 N36 2.145 . S
Co1 N57 2.257 . S
O2 Co0 2.143 . S
O2 Co1 2.160 . S
C3 O4 1.278 . S
C3 O11 1.224 . S
O4 C3 1.278 . S
C5 O6 1.245 . S
C5 O17 1.232 . S
O6 C5 1.245 . S
O7 Co1 2.058 . S
O7 C33 1.269 . S
O8 Co0 2.074 . S
O8 C33 1.257 . S
H9 C34 0.930 . S
H10 C40 0.930 . S
O11 Co0 2.093 . S
O11 C3 1.224 . S
H12 C44 0.929 . S
H13 C46 0.930 . S
H14 C47 0.930 . S
H15 C45 0.929 . S
H16 C48 0.928 . S
O17 Co1 2.057 . S
O17 C5 1.232 . S
H18 C37 0.929 . S
H19 C38 0.929 . S
H20 C50 0.931 . S
H21 C42 0.929 . S
H22 C51 0.930 . S
H23 C43 0.931 . S
O24 Co0 2.097 . S
O24 C52 1.214 . S
H25 C53 0.929 . S
H26 C54 0.929 . S
H27 C55 0.930 . S
H28 C56 0.929 . S
H29 C58 0.930 . S
H30 C35 0.930 . S
H31 C39 0.930 . S
O32 Co1 2.037 . S
O32 C52 1.234 . S
C33 O7 1.269 . S
C33 O8 1.257 . S
C34 H9 0.930 . S
C34 C37 1.388 . S
C34 C39 1.418 . S
C35 H30 0.930 . S
C35 C38 1.404 . S
C35 C39 1.353 . S
N36 Co1 2.145 . S
N36 C37 1.397 . S
N36 C38 1.334 . S
C37 H18 0.929 . S
C37 C34 1.388 . S
C37 N36 1.397 . S
C38 H19 0.929 . S
C38 C35 1.404 . S
C38 N36 1.334 . S
C39 H31 0.930 . S
C39 C34 1.418 . S
C39 C35 1.353 . S
C40 H10 0.930 . S
C40 N41 1.330 . S
C40 C42 1.446 . S
N41 Co0 2.151 . S
N41 C40 1.330 . S
N41 C45 1.418 . S
C42 H21 0.929 . S
C42 C40 1.446 . S
C42 C43 1.332 . S
C43 H23 0.931 . S
C43 C42 1.332 . S
C43 C44 1.267 . S
C44 H12 0.929 . S
C44 C43 1.267 . S
C44 C45 1.251 . S
C45 H15 0.929 . S
C45 N41 1.418 . S
C45 C44 1.251 . S
C46 H13 0.930 . S
C46 C48 1.406 . S
C46 C51 1.261 . S
C47 H14 0.930 . S
C47 N49 1.325 . S
C47 C50 1.357 . S
C48 H16 0.928 . S
C48 C46 1.406 . S
C48 N49 1.261 . S
N49 Co0 2.214 . S
N49 C47 1.325 . S
N49 C48 1.261 . S
C50 H20 0.931 . S
C50 C47 1.357 . S
C50 C51 1.312 . S
C51 H22 0.930 . S
C51 C46 1.261 . S
C51 C50 1.312 . S
C52 O24 1.214 . S
C52 O32 1.234 . S
C53 H25 0.929 . S
C53 C56 1.391 . S
C53 C58 1.391 . S
C54 H26 0.929 . S
C54 C55 1.390 . S
C54 N57 1.391 . S
C55 H27 0.930 . S
C55 C54 1.390 . S
C55 C56 1.392 . S
C56 H28 0.929 . S
C56 C53 1.391 . S
C56 C55 1.392 . S
N57 Co1 2.257 . S
N57 C54 1.391 . S
N57 C58 1.388 . S
C58 H29 0.930 . S
C58 C53 1.391 . S
C58 N57 1.388 . S
Co59 O61 2.143 . S
Co59 O67 2.074 . S
Co59 O70 2.093 . S
Co59 O83 2.097 . S
Co59 N100 2.151 . S
Co59 N108 2.214 . S
Co60 O61 2.160 . S
Co60 O66 2.058 . S
Co60 O76 2.057 . S
Co60 O91 2.037 . S
Co60 N95 2.145 . S
Co60 N116 2.257 . S
O61 Co59 2.143 . S
O61 Co60 2.160 . S
C62 O63 1.278 . S
C62 O70 1.224 . S
O63 C62 1.278 . S
C64 O65 1.245 . S
C64 O76 1.232 . S
O65 C64 1.245 . S
O66 Co60 2.058 . S
O66 C92 1.269 . S
O67 Co59 2.074 . S
O67 C92 1.257 . S
H68 C93 0.930 . S
H69 C99 0.930 . S
O70 Co59 2.093 . S
O70 C62 1.224 . S
H71 C103 0.929 . S
H72 C105 0.930 . S
H73 C106 0.930 . S
H74 C104 0.929 . S
H75 C107 0.928 . S
O76 Co60 2.057 . S
O76 C64 1.232 . S
H77 C96 0.929 . S
H78 C97 0.929 . S
H79 C109 0.931 . S
H80 C101 0.929 . S
H81 C110 0.930 . S
H82 C102 0.931 . S
O83 Co59 2.097 . S
O83 C111 1.214 . S
H84 C112 0.929 . S
H85 C113 0.929 . S
H86 C114 0.930 . S
H87 C115 0.929 . S
H88 C117 0.930 . S
H89 C94 0.930 . S
H90 C98 0.930 . S
O91 Co60 2.037 . S
O91 C111 1.234 . S
C92 O66 1.269 . S
C92 O67 1.257 . S
C93 H68 0.930 . S
C93 C96 1.388 . S
C93 C98 1.418 . S
C94 H89 0.930 . S
C94 C97 1.404 . S
C94 C98 1.353 . S
N95 Co60 2.145 . S
N95 C96 1.397 . S
N95 C97 1.334 . S
C96 H77 0.929 . S
C96 C93 1.388 . S
C96 N95 1.397 . S
C97 H78 0.929 . S
C97 C94 1.404 . S
C97 N95 1.334 . S
C98 H90 0.930 . S
C98 C93 1.418 . S
C98 C94 1.353 . S
C99 H69 0.930 . S
C99 N100 1.330 . S
C99 C101 1.446 . S
N100 Co59 2.151 . S
N100 C99 1.330 . S
N100 C104 1.418 . S
C101 H80 0.929 . S
C101 C99 1.446 . S
C101 C102 1.332 . S
C102 H82 0.931 . S
C102 C101 1.332 . S
C102 C103 1.267 . S
C103 H71 0.929 . S
C103 C102 1.267 . S
C103 C104 1.251 . S
C104 H74 0.929 . S
C104 N100 1.418 . S
C104 C103 1.251 . S
C105 H72 0.930 . S
C105 C107 1.406 . S
C105 C110 1.261 . S
C106 H73 0.930 . S
C106 N108 1.325 . S
C106 C109 1.357 . S
C107 H75 0.928 . S
C107 C105 1.406 . S
C107 N108 1.261 . S
N108 Co59 2.214 . S
N108 C106 1.325 . S
N108 C107 1.261 . S
C109 H79 0.931 . S
C109 C106 1.357 . S
C109 C110 1.312 . S
C110 H81 0.930 . S
C110 C105 1.261 . S
C110 C109 1.312 . S
C111 O83 1.214 . S
C111 O91 1.234 . S
C112 H84 0.929 . S
C112 C115 1.391 . S
C112 C117 1.391 . S
C113 H85 0.929 . S
C113 C114 1.390 . S
C113 N116 1.391 . S
C114 H86 0.930 . S
C114 C113 1.390 . S
C114 C115 1.392 . S
C115 H87 0.929 . S
C115 C112 1.391 . S
C115 C114 1.392 . S
N116 Co60 2.257 . S
N116 C113 1.391 . S
N116 C117 1.388 . S
C117 H88 0.930 . S
C117 C112 1.391 . S
C117 N116 1.388 . S
Co118 O120 2.143 . S
Co118 O126 2.074 . S
Co118 O129 2.093 . S
Co118 O142 2.097 . S
Co118 N159 2.151 . S
Co118 N167 2.214 . S
Co119 O120 2.160 . S
Co119 O125 2.058 . S
Co119 O135 2.057 . S
Co119 O150 2.037 . S
Co119 N154 2.145 . S
Co119 N175 2.257 . S
O120 Co118 2.143 . S
O120 Co119 2.160 . S
C121 O122 1.278 . S
C121 O129 1.224 . S
O122 C121 1.278 . S
C123 O124 1.245 . S
C123 O135 1.232 . S
O124 C123 1.245 . S
O125 Co119 2.058 . S
O125 C151 1.269 . S
O126 Co118 2.074 . S
O126 C151 1.257 . S
H127 C152 0.930 . S
H128 C158 0.930 . S
O129 Co118 2.093 . S
O129 C121 1.224 . S
H130 C162 0.929 . S
H131 C164 0.930 . S
H132 C165 0.930 . S
H133 C163 0.929 . S
H134 C166 0.928 . S
O135 Co119 2.057 . S
O135 C123 1.232 . S
H136 C155 0.929 . S
H137 C156 0.929 . S
H138 C168 0.931 . S
H139 C160 0.929 . S
H140 C169 0.930 . S
H141 C161 0.931 . S
O142 Co118 2.097 . S
O142 C170 1.214 . S
H143 C171 0.929 . S
H144 C172 0.929 . S
H145 C173 0.930 . S
H146 C174 0.929 . S
H147 C176 0.930 . S
H148 C153 0.930 . S
H149 C157 0.930 . S
O150 Co119 2.037 . S
O150 C170 1.234 . S
C151 O125 1.269 . S
C151 O126 1.257 . S
C152 H127 0.930 . S
C152 C155 1.388 . S
C152 C157 1.418 . S
C153 H148 0.930 . S
C153 C156 1.404 . S
C153 C157 1.353 . S
N154 Co119 2.145 . S
N154 C155 1.397 . S
N154 C156 1.334 . S
C155 H136 0.929 . S
C155 C152 1.388 . S
C155 N154 1.397 . S
C156 H137 0.929 . S
C156 C153 1.404 . S
C156 N154 1.334 . S
C157 H149 0.930 . S
C157 C152 1.418 . S
C157 C153 1.353 . S
C158 H128 0.930 . S
C158 N159 1.330 . S
C158 C160 1.446 . S
N159 Co118 2.151 . S
N159 C158 1.330 . S
N159 C163 1.418 . S
C160 H139 0.929 . S
C160 C158 1.446 . S
C160 C161 1.332 . S
C161 H141 0.931 . S
C161 C160 1.332 . S
C161 C162 1.267 . S
C162 H130 0.929 . S
C162 C161 1.267 . S
C162 C163 1.251 . S
C163 H133 0.929 . S
C163 N159 1.418 . S
C163 C162 1.251 . S
C164 H131 0.930 . S
C164 C166 1.406 . S
C164 C169 1.261 . S
C165 H132 0.930 . S
C165 N167 1.325 . S
C165 C168 1.357 . S
C166 H134 0.928 . S
C166 C164 1.406 . S
C166 N167 1.261 . S
N167 Co118 2.214 . S
N167 C165 1.325 . S
N167 C166 1.261 . S
C168 H138 0.931 . S
C168 C165 1.357 . S
C168 C169 1.312 . S
C169 H140 0.930 . S
C169 C164 1.261 . S
C169 C168 1.312 . S
C170 O142 1.214 . S
C170 O150 1.234 . S
C171 H143 0.929 . S
C171 C174 1.391 . S
C171 C176 1.391 . S
C172 H144 0.929 . S
C172 C173 1.390 . S
C172 N175 1.391 . S
C173 H145 0.930 . S
C173 C172 1.390 . S
C173 C174 1.392 . S
C174 H146 0.929 . S
C174 C171 1.391 . S
C174 C173 1.392 . S
N175 Co119 2.257 . S
N175 C172 1.391 . S
N175 C176 1.388 . S
C176 H147 0.930 . S
C176 C171 1.391 . S
C176 N175 1.388 . S
Co177 O179 2.143 . S
Co177 O185 2.074 . S
Co177 O188 2.093 . S
Co177 O201 2.097 . S
Co177 N218 2.151 . S
Co177 N226 2.214 . S
Co178 O179 2.160 . S
Co178 O184 2.058 . S
Co178 O194 2.057 . S
Co178 O209 2.037 . S
Co178 N213 2.145 . S
Co178 N234 2.257 . S
O179 Co177 2.143 . S
O179 Co178 2.160 . S
C180 O181 1.278 . S
C180 O188 1.224 . S
O181 C180 1.278 . S
C182 O183 1.245 . S
C182 O194 1.232 . S
O183 C182 1.245 . S
O184 Co178 2.058 . S
O184 C210 1.269 . S
O185 Co177 2.074 . S
O185 C210 1.257 . S
H186 C211 0.930 . S
H187 C217 0.930 . S
O188 Co177 2.093 . S
O188 C180 1.224 . S
H189 C221 0.929 . S
H190 C223 0.930 . S
H191 C224 0.930 . S
H192 C222 0.929 . S
H193 C225 0.928 . S
O194 Co178 2.057 . S
O194 C182 1.232 . S
H195 C214 0.929 . S
H196 C215 0.929 . S
H197 C227 0.931 . S
H198 C219 0.929 . S
H199 C228 0.930 . S
H200 C220 0.931 . S
O201 Co177 2.097 . S
O201 C229 1.214 . S
H202 C230 0.929 . S
H203 C231 0.929 . S
H204 C232 0.930 . S
H205 C233 0.929 . S
H206 C235 0.930 . S
H207 C212 0.930 . S
H208 C216 0.930 . S
O209 Co178 2.037 . S
O209 C229 1.234 . S
C210 O184 1.269 . S
C210 O185 1.257 . S
C211 H186 0.930 . S
C211 C214 1.388 . S
C211 C216 1.418 . S
C212 H207 0.930 . S
C212 C215 1.404 . S
C212 C216 1.353 . S
N213 Co178 2.145 . S
N213 C214 1.397 . S
N213 C215 1.334 . S
C214 H195 0.929 . S
C214 C211 1.388 . S
C214 N213 1.397 . S
C215 H196 0.929 . S
C215 C212 1.404 . S
C215 N213 1.334 . S
C216 H208 0.930 . S
C216 C211 1.418 . S
C216 C212 1.353 . S
C217 H187 0.930 . S
C217 N218 1.330 . S
C217 C219 1.446 . S
N218 Co177 2.151 . S
N218 C217 1.330 . S
N218 C222 1.418 . S
C219 H198 0.929 . S
C219 C217 1.446 . S
C219 C220 1.332 . S
C220 H200 0.931 . S
C220 C219 1.332 . S
C220 C221 1.267 . S
C221 H189 0.929 . S
C221 C220 1.267 . S
C221 C222 1.251 . S
C222 H192 0.929 . S
C222 N218 1.418 . S
C222 C221 1.251 . S
C223 H190 0.930 . S
C223 C225 1.406 . S
C223 C228 1.261 . S
C224 H191 0.930 . S
C224 N226 1.325 . S
C224 C227 1.357 . S
C225 H193 0.928 . S
C225 C223 1.406 . S
C225 N226 1.261 . S
N226 Co177 2.214 . S
N226 C224 1.325 . S
N226 C225 1.261 . S
C227 H197 0.931 . S
C227 C224 1.357 . S
C227 C228 1.312 . S
C228 H199 0.930 . S
C228 C223 1.261 . S
C228 C227 1.312 . S
C229 O201 1.214 . S
C229 O209 1.234 . S
C230 H202 0.929 . S
C230 C233 1.391 . S
C230 C235 1.391 . S
C231 H203 0.929 . S
C231 C232 1.390 . S
C231 N234 1.391 . S
C232 H204 0.930 . S
C232 C231 1.390 . S
C232 C233 1.392 . S
C233 H205 0.929 . S
C233 C230 1.391 . S
C233 C232 1.392 . S
N234 Co178 2.257 . S
N234 C231 1.391 . S
N234 C235 1.388 . S
C235 H206 0.930 . S
C235 C230 1.391 . S
C235 N234 1.388 . S
Co236 O238 2.143 . S
Co236 O244 2.074 . S
Co236 O247 2.093 . S
Co236 O260 2.097 . S
Co236 N277 2.151 . S
Co236 N285 2.214 . S
Co237 O238 2.160 . S
Co237 O243 2.058 . S
Co237 O253 2.057 . S
Co237 O268 2.037 . S
Co237 N272 2.145 . S
Co237 N293 2.257 . S
O238 Co236 2.143 . S
O238 Co237 2.160 . S
C239 O240 1.278 . S
C239 O247 1.224 . S
O240 C239 1.278 . S
C241 O242 1.245 . S
C241 O253 1.232 . S
O242 C241 1.245 . S
O243 Co237 2.058 . S
O243 C269 1.269 . S
O244 Co236 2.074 . S
O244 C269 1.257 . S
H245 C270 0.930 . S
H246 C276 0.930 . S
O247 Co236 2.093 . S
O247 C239 1.224 . S
H248 C280 0.929 . S
H249 C282 0.930 . S
H250 C283 0.930 . S
H251 C281 0.929 . S
H252 C284 0.928 . S
O253 Co237 2.057 . S
O253 C241 1.232 . S
H254 C273 0.929 . S
H255 C274 0.929 . S
H256 C286 0.931 . S
H257 C278 0.929 . S
H258 C287 0.930 . S
H259 C279 0.931 . S
O260 Co236 2.097 . S
O260 C288 1.214 . S
H261 C289 0.929 . S
H262 C290 0.929 . S
H263 C291 0.930 . S
H264 C292 0.929 . S
H265 C294 0.930 . S
H266 C271 0.930 . S
H267 C275 0.930 . S
O268 Co237 2.037 . S
O268 C288 1.234 . S
C269 O243 1.269 . S
C269 O244 1.257 . S
C270 H245 0.930 . S
C270 C273 1.388 . S
C270 C275 1.418 . S
C271 H266 0.930 . S
C271 C274 1.404 . S
C271 C275 1.353 . S
N272 Co237 2.145 . S
N272 C273 1.397 . S
N272 C274 1.334 . S
C273 H254 0.929 . S
C273 C270 1.388 . S
C273 N272 1.397 . S
C274 H255 0.929 . S
C274 C271 1.404 . S
C274 N272 1.334 . S
C275 H267 0.930 . S
C275 C270 1.418 . S
C275 C271 1.353 . S
C276 H246 0.930 . S
C276 N277 1.330 . S
C276 C278 1.446 . S
N277 Co236 2.151 . S
N277 C276 1.330 . S
N277 C281 1.418 . S
C278 H257 0.929 . S
C278 C276 1.446 . S
C278 C279 1.332 . S
C279 H259 0.931 . S
C279 C278 1.332 . S
C279 C280 1.267 . S
C280 H248 0.929 . S
C280 C279 1.267 . S
C280 C281 1.251 . S
C281 H251 0.929 . S
C281 N277 1.418 . S
C281 C280 1.251 . S
C282 H249 0.930 . S
C282 C284 1.406 . S
C282 C287 1.261 . S
C283 H250 0.930 . S
C283 N285 1.325 . S
C283 C286 1.357 . S
C284 H252 0.928 . S
C284 C282 1.406 . S
C284 N285 1.261 . S
N285 Co236 2.214 . S
N285 C283 1.325 . S
N285 C284 1.261 . S
C286 H256 0.931 . S
C286 C283 1.357 . S
C286 C287 1.312 . S
C287 H258 0.930 . S
C287 C282 1.261 . S
C287 C286 1.312 . S
C288 O260 1.214 . S
C288 O268 1.234 . S
C289 H261 0.929 . S
C289 C292 1.391 . S
C289 C294 1.391 . S
C290 H262 0.929 . S
C290 C291 1.390 . S
C290 N293 1.391 . S
C291 H263 0.930 . S
C291 C290 1.390 . S
C291 C292 1.392 . S
C292 H264 0.929 . S
C292 C289 1.391 . S
C292 C291 1.392 . S
N293 Co237 2.257 . S
N293 C290 1.391 . S
N293 C294 1.388 . S
C294 H265 0.930 . S
C294 C289 1.391 . S
C294 N293 1.388 . S
Co295 O297 2.143 . S
Co295 O303 2.074 . S
Co295 O306 2.093 . S
Co295 O319 2.097 . S
Co295 N336 2.151 . S
Co295 N344 2.214 . S
Co296 O297 2.160 . S
Co296 O302 2.058 . S
Co296 O312 2.057 . S
Co296 O327 2.037 . S
Co296 N331 2.145 . S
Co296 N352 2.257 . S
O297 Co295 2.143 . S
O297 Co296 2.160 . S
C298 O299 1.278 . S
C298 O306 1.224 . S
O299 C298 1.278 . S
C300 O301 1.245 . S
C300 O312 1.232 . S
O301 C300 1.245 . S
O302 Co296 2.058 . S
O302 C328 1.269 . S
O303 Co295 2.074 . S
O303 C328 1.257 . S
H304 C329 0.930 . S
H305 C335 0.930 . S
O306 Co295 2.093 . S
O306 C298 1.224 . S
H307 C339 0.929 . S
H308 C341 0.930 . S
H309 C342 0.930 . S
H310 C340 0.929 . S
H311 C343 0.928 . S
O312 Co296 2.057 . S
O312 C300 1.232 . S
H313 C332 0.929 . S
H314 C333 0.929 . S
H315 C345 0.931 . S
H316 C337 0.929 . S
H317 C346 0.930 . S
H318 C338 0.931 . S
O319 Co295 2.097 . S
O319 C347 1.214 . S
H320 C348 0.929 . S
H321 C349 0.929 . S
H322 C350 0.930 . S
H323 C351 0.929 . S
H324 C353 0.930 . S
H325 C330 0.930 . S
H326 C334 0.930 . S
O327 Co296 2.037 . S
O327 C347 1.234 . S
C328 O302 1.269 . S
C328 O303 1.257 . S
C329 H304 0.930 . S
C329 C332 1.388 . S
C329 C334 1.418 . S
C330 H325 0.930 . S
C330 C333 1.404 . S
C330 C334 1.353 . S
N331 Co296 2.145 . S
N331 C332 1.397 . S
N331 C333 1.334 . S
C332 H313 0.929 . S
C332 C329 1.388 . S
C332 N331 1.397 . S
C333 H314 0.929 . S
C333 C330 1.404 . S
C333 N331 1.334 . S
C334 H326 0.930 . S
C334 C329 1.418 . S
C334 C330 1.353 . S
C335 H305 0.930 . S
C335 N336 1.330 . S
C335 C337 1.446 . S
N336 Co295 2.151 . S
N336 C335 1.330 . S
N336 C340 1.418 . S
C337 H316 0.929 . S
C337 C335 1.446 . S
C337 C338 1.332 . S
C338 H318 0.931 . S
C338 C337 1.332 . S
C338 C339 1.267 . S
C339 H307 0.929 . S
C339 C338 1.267 . S
C339 C340 1.251 . S
C340 H310 0.929 . S
C340 N336 1.418 . S
C340 C339 1.251 . S
C341 H308 0.930 . S
C341 C343 1.406 . S
C341 C346 1.261 . S
C342 H309 0.930 . S
C342 N344 1.325 . S
C342 C345 1.357 . S
C343 H311 0.928 . S
C343 C341 1.406 . S
C343 N344 1.261 . S
N344 Co295 2.214 . S
N344 C342 1.325 . S
N344 C343 1.261 . S
C345 H315 0.931 . S
C345 C342 1.357 . S
C345 C346 1.312 . S
C346 H317 0.930 . S
C346 C341 1.261 . S
C346 C345 1.312 . S
C347 O319 1.214 . S
C347 O327 1.234 . S
C348 H320 0.929 . S
C348 C351 1.391 . S
C348 C353 1.391 . S
C349 H321 0.929 . S
C349 C350 1.390 . S
C349 N352 1.391 . S
C350 H322 0.930 . S
C350 C349 1.390 . S
C350 C351 1.392 . S
C351 H323 0.929 . S
C351 C348 1.391 . S
C351 C350 1.392 . S
N352 Co296 2.257 . S
N352 C349 1.391 . S
N352 C353 1.388 . S
C353 H324 0.930 . S
C353 C348 1.391 . S
C353 N352 1.388 . S
Co354 O356 2.143 . S
Co354 O362 2.074 . S
Co354 O365 2.093 . S
Co354 O378 2.097 . S
Co354 N395 2.151 . S
Co354 N403 2.214 . S
Co355 O356 2.160 . S
Co355 O361 2.058 . S
Co355 O371 2.057 . S
Co355 O386 2.037 . S
Co355 N390 2.145 . S
Co355 N411 2.257 . S
O356 Co354 2.143 . S
O356 Co355 2.160 . S
C357 O358 1.278 . S
C357 O365 1.224 . S
O358 C357 1.278 . S
C359 O360 1.245 . S
C359 O371 1.232 . S
O360 C359 1.245 . S
O361 Co355 2.058 . S
O361 C387 1.269 . S
O362 Co354 2.074 . S
O362 C387 1.257 . S
H363 C388 0.930 . S
H364 C394 0.930 . S
O365 Co354 2.093 . S
O365 C357 1.224 . S
H366 C398 0.929 . S
H367 C400 0.930 . S
H368 C401 0.930 . S
H369 C399 0.929 . S
H370 C402 0.928 . S
O371 Co355 2.057 . S
O371 C359 1.232 . S
H372 C391 0.929 . S
H373 C392 0.929 . S
H374 C404 0.931 . S
H375 C396 0.929 . S
H376 C405 0.930 . S
H377 C397 0.931 . S
O378 Co354 2.097 . S
O378 C406 1.214 . S
H379 C407 0.929 . S
H380 C408 0.929 . S
H381 C409 0.930 . S
H382 C410 0.929 . S
H383 C412 0.930 . S
H384 C389 0.930 . S
H385 C393 0.930 . S
O386 Co355 2.037 . S
O386 C406 1.234 . S
C387 O361 1.269 . S
C387 O362 1.257 . S
C388 H363 0.930 . S
C388 C391 1.388 . S
C388 C393 1.418 . S
C389 H384 0.930 . S
C389 C392 1.404 . S
C389 C393 1.353 . S
N390 Co355 2.145 . S
N390 C391 1.397 . S
N390 C392 1.334 . S
C391 H372 0.929 . S
C391 C388 1.388 . S
C391 N390 1.397 . S
C392 H373 0.929 . S
C392 C389 1.404 . S
C392 N390 1.334 . S
C393 H385 0.930 . S
C393 C388 1.418 . S
C393 C389 1.353 . S
C394 H364 0.930 . S
C394 N395 1.330 . S
C394 C396 1.446 . S
N395 Co354 2.151 . S
N395 C394 1.330 . S
N395 C399 1.418 . S
C396 H375 0.929 . S
C396 C394 1.446 . S
C396 C397 1.332 . S
C397 H377 0.931 . S
C397 C396 1.332 . S
C397 C398 1.267 . S
C398 H366 0.929 . S
C398 C397 1.267 . S
C398 C399 1.251 . S
C399 H369 0.929 . S
C399 N395 1.418 . S
C399 C398 1.251 . S
C400 H367 0.930 . S
C400 C402 1.406 . S
C400 C405 1.261 . S
C401 H368 0.930 . S
C401 N403 1.325 . S
C401 C404 1.357 . S
C402 H370 0.928 . S
C402 C400 1.406 . S
C402 N403 1.261 . S
N403 Co354 2.214 . S
N403 C401 1.325 . S
N403 C402 1.261 . S
C404 H374 0.931 . S
C404 C401 1.357 . S
C404 C405 1.312 . S
C405 H376 0.930 . S
C405 C400 1.261 . S
C405 C404 1.312 . S
C406 O378 1.214 . S
C406 O386 1.234 . S
C407 H379 0.929 . S
C407 C410 1.391 . S
C407 C412 1.391 . S
C408 H380 0.929 . S
C408 C409 1.390 . S
C408 N411 1.391 . S
C409 H381 0.930 . S
C409 C408 1.390 . S
C409 C410 1.392 . S
C410 H382 0.929 . S
C410 C407 1.391 . S
C410 C409 1.392 . S
N411 Co355 2.257 . S
N411 C408 1.391 . S
N411 C412 1.388 . S
C412 H383 0.930 . S
C412 C407 1.391 . S
C412 N411 1.388 . S
Co413 O415 2.143 . S
Co413 O421 2.074 . S
Co413 O424 2.093 . S
Co413 O437 2.097 . S
Co413 N454 2.151 . S
Co413 N462 2.214 . S
Co414 O415 2.160 . S
Co414 O420 2.058 . S
Co414 O430 2.057 . S
Co414 O445 2.037 . S
Co414 N449 2.145 . S
Co414 N470 2.257 . S
O415 Co413 2.143 . S
O415 Co414 2.160 . S
C416 O417 1.278 . S
C416 O424 1.224 . S
O417 C416 1.278 . S
C418 O419 1.245 . S
C418 O430 1.232 . S
O419 C418 1.245 . S
O420 Co414 2.058 . S
O420 C446 1.269 . S
O421 Co413 2.074 . S
O421 C446 1.257 . S
H422 C447 0.930 . S
H423 C453 0.930 . S
O424 Co413 2.093 . S
O424 C416 1.224 . S
H425 C457 0.929 . S
H426 C459 0.930 . S
H427 C460 0.930 . S
H428 C458 0.929 . S
H429 C461 0.928 . S
O430 Co414 2.057 . S
O430 C418 1.232 . S
H431 C450 0.929 . S
H432 C451 0.929 . S
H433 C463 0.931 . S
H434 C455 0.929 . S
H435 C464 0.930 . S
H436 C456 0.931 . S
O437 Co413 2.097 . S
O437 C465 1.214 . S
H438 C466 0.929 . S
H439 C467 0.929 . S
H440 C468 0.930 . S
H441 C469 0.929 . S
H442 C471 0.930 . S
H443 C448 0.930 . S
H444 C452 0.930 . S
O445 Co414 2.037 . S
O445 C465 1.234 . S
C446 O420 1.269 . S
C446 O421 1.257 . S
C447 H422 0.930 . S
C447 C450 1.388 . S
C447 C452 1.418 . S
C448 H443 0.930 . S
C448 C451 1.404 . S
C448 C452 1.353 . S
N449 Co414 2.145 . S
N449 C450 1.397 . S
N449 C451 1.334 . S
C450 H431 0.929 . S
C450 C447 1.388 . S
C450 N449 1.397 . S
C451 H432 0.929 . S
C451 C448 1.404 . S
C451 N449 1.334 . S
C452 H444 0.930 . S
C452 C447 1.418 . S
C452 C448 1.353 . S
C453 H423 0.930 . S
C453 N454 1.330 . S
C453 C455 1.446 . S
N454 Co413 2.151 . S
N454 C453 1.330 . S
N454 C458 1.418 . S
C455 H434 0.929 . S
C455 C453 1.446 . S
C455 C456 1.332 . S
C456 H436 0.931 . S
C456 C455 1.332 . S
C456 C457 1.267 . S
C457 H425 0.929 . S
C457 C456 1.267 . S
C457 C458 1.251 . S
C458 H428 0.929 . S
C458 N454 1.418 . S
C458 C457 1.251 . S
C459 H426 0.930 . S
C459 C461 1.406 . S
C459 C464 1.261 . S
C460 H427 0.930 . S
C460 N462 1.325 . S
C460 C463 1.357 . S
C461 H429 0.928 . S
C461 C459 1.406 . S
C461 N462 1.261 . S
N462 Co413 2.214 . S
N462 C460 1.325 . S
N462 C461 1.261 . S
C463 H433 0.931 . S
C463 C460 1.357 . S
C463 C464 1.312 . S
C464 H435 0.930 . S
C464 C459 1.261 . S
C464 C463 1.312 . S
C465 O437 1.214 . S
C465 O445 1.234 . S
C466 H438 0.929 . S
C466 C469 1.391 . S
C466 C471 1.391 . S
C467 H439 0.929 . S
C467 C468 1.390 . S
C467 N470 1.391 . S
C468 H440 0.930 . S
C468 C467 1.390 . S
C468 C469 1.392 . S
C469 H441 0.929 . S
C469 C466 1.391 . S
C469 C468 1.392 . S
N470 Co414 2.257 . S
N470 C467 1.391 . S
N470 C471 1.388 . S
C471 H442 0.930 . S
C471 C466 1.391 . S
C471 N470 1.388 . S
Co472 O474 2.143 . S
Co472 O480 2.074 . S
Co472 O483 2.093 . S
Co472 O496 2.097 . S
Co472 N513 2.151 . S
Co472 N521 2.214 . S
Co473 O474 2.160 . S
Co473 O479 2.058 . S
Co473 O489 2.057 . S
Co473 O504 2.037 . S
Co473 N508 2.145 . S
Co473 N529 2.257 . S
O474 Co472 2.143 . S
O474 Co473 2.160 . S
C475 O476 1.278 . S
C475 O483 1.224 . S
O476 C475 1.278 . S
C477 O478 1.245 . S
C477 O489 1.232 . S
O478 C477 1.245 . S
O479 Co473 2.058 . S
O479 C505 1.269 . S
O480 Co472 2.074 . S
O480 C505 1.257 . S
H481 C506 0.930 . S
H482 C512 0.930 . S
O483 Co472 2.093 . S
O483 C475 1.224 . S
H484 C516 0.929 . S
H485 C518 0.930 . S
H486 C519 0.930 . S
H487 C517 0.929 . S
H488 C520 0.928 . S
O489 Co473 2.057 . S
O489 C477 1.232 . S
H490 C509 0.929 . S
H491 C510 0.929 . S
H492 C522 0.931 . S
H493 C514 0.929 . S
H494 C523 0.930 . S
H495 C515 0.931 . S
O496 Co472 2.097 . S
O496 C524 1.214 . S
H497 C525 0.929 . S
H498 C526 0.929 . S
H499 C527 0.930 . S
H500 C528 0.929 . S
H501 C530 0.930 . S
H502 C507 0.930 . S
H503 C511 0.930 . S
O504 Co473 2.037 . S
O504 C524 1.234 . S
C505 O479 1.269 . S
C505 O480 1.257 . S
C506 H481 0.930 . S
C506 C509 1.388 . S
C506 C511 1.418 . S
C507 H502 0.930 . S
C507 C510 1.404 . S
C507 C511 1.353 . S
N508 Co473 2.145 . S
N508 C509 1.397 . S
N508 C510 1.334 . S
C509 H490 0.929 . S
C509 C506 1.388 . S
C509 N508 1.397 . S
C510 H491 0.929 . S
C510 C507 1.404 . S
C510 N508 1.334 . S
C511 H503 0.930 . S
C511 C506 1.418 . S
C511 C507 1.353 . S
C512 H482 0.930 . S
C512 N513 1.330 . S
C512 C514 1.446 . S
N513 Co472 2.151 . S
N513 C512 1.330 . S
N513 C517 1.418 . S
C514 H493 0.929 . S
C514 C512 1.446 . S
C514 C515 1.332 . S
C515 H495 0.931 . S
C515 C514 1.332 . S
C515 C516 1.267 . S
C516 H484 0.929 . S
C516 C515 1.267 . S
C516 C517 1.251 . S
C517 H487 0.929 . S
C517 N513 1.418 . S
C517 C516 1.251 . S
C518 H485 0.930 . S
C518 C520 1.406 . S
C518 C523 1.261 . S
C519 H486 0.930 . S
C519 N521 1.325 . S
C519 C522 1.357 . S
C520 H488 0.928 . S
C520 C518 1.406 . S
C520 N521 1.261 . S
N521 Co472 2.214 . S
N521 C519 1.325 . S
N521 C520 1.261 . S
C522 H492 0.931 . S
C522 C519 1.357 . S
C522 C523 1.312 . S
C523 H494 0.930 . S
C523 C518 1.261 . S
C523 C522 1.312 . S
C524 O496 1.214 . S
C524 O504 1.234 . S
C525 H497 0.929 . S
C525 C528 1.391 . S
C525 C530 1.391 . S
C526 H498 0.929 . S
C526 C527 1.390 . S
C526 N529 1.391 . S
C527 H499 0.930 . S
C527 C526 1.390 . S
C527 C528 1.392 . S
C528 H500 0.929 . S
C528 C525 1.391 . S
C528 C527 1.392 . S
N529 Co473 2.257 . S
N529 C526 1.391 . S
N529 C530 1.388 . S
C530 H501 0.930 . S
C530 C525 1.391 . S
C530 N529 1.388 . S
Co531 O533 2.143 . S
Co531 O539 2.074 . S
Co531 O542 2.093 . S
Co531 O555 2.097 . S
Co531 N572 2.151 . S
Co531 N580 2.214 . S
Co532 O533 2.160 . S
Co532 O538 2.058 . S
Co532 O548 2.057 . S
Co532 O563 2.037 . S
Co532 N567 2.145 . S
Co532 N588 2.257 . S
O533 Co531 2.143 . S
O533 Co532 2.160 . S
C534 O535 1.278 . S
C534 O542 1.224 . S
O535 C534 1.278 . S
C536 O537 1.245 . S
C536 O548 1.232 . S
O537 C536 1.245 . S
O538 Co532 2.058 . S
O538 C564 1.269 . S
O539 Co531 2.074 . S
O539 C564 1.257 . S
H540 C565 0.930 . S
H541 C571 0.930 . S
O542 Co531 2.093 . S
O542 C534 1.224 . S
H543 C575 0.929 . S
H544 C577 0.930 . S
H545 C578 0.930 . S
H546 C576 0.929 . S
H547 C579 0.928 . S
O548 Co532 2.057 . S
O548 C536 1.232 . S
H549 C568 0.929 . S
H550 C569 0.929 . S
H551 C581 0.931 . S
H552 C573 0.929 . S
H553 C582 0.930 . S
H554 C574 0.931 . S
O555 Co531 2.097 . S
O555 C583 1.214 . S
H556 C584 0.929 . S
H557 C585 0.929 . S
H558 C586 0.930 . S
H559 C587 0.929 . S
H560 C589 0.930 . S
H561 C566 0.930 . S
H562 C570 0.930 . S
O563 Co532 2.037 . S
O563 C583 1.234 . S
C564 O538 1.269 . S
C564 O539 1.257 . S
C565 H540 0.930 . S
C565 C568 1.388 . S
C565 C570 1.418 . S
C566 H561 0.930 . S
C566 C569 1.404 . S
C566 C570 1.353 . S
N567 Co532 2.145 . S
N567 C568 1.397 . S
N567 C569 1.334 . S
C568 H549 0.929 . S
C568 C565 1.388 . S
C568 N567 1.397 . S
C569 H550 0.929 . S
C569 C566 1.404 . S
C569 N567 1.334 . S
C570 H562 0.930 . S
C570 C565 1.418 . S
C570 C566 1.353 . S
C571 H541 0.930 . S
C571 N572 1.330 . S
C571 C573 1.446 . S
N572 Co531 2.151 . S
N572 C571 1.330 . S
N572 C576 1.418 . S
C573 H552 0.929 . S
C573 C571 1.446 . S
C573 C574 1.332 . S
C574 H554 0.931 . S
C574 C573 1.332 . S
C574 C575 1.267 . S
C575 H543 0.929 . S
C575 C574 1.267 . S
C575 C576 1.251 . S
C576 H546 0.929 . S
C576 N572 1.418 . S
C576 C575 1.251 . S
C577 H544 0.930 . S
C577 C579 1.406 . S
C577 C582 1.261 . S
C578 H545 0.930 . S
C578 N580 1.325 . S
C578 C581 1.357 . S
C579 H547 0.928 . S
C579 C577 1.406 . S
C579 N580 1.261 . S
N580 Co531 2.214 . S
N580 C578 1.325 . S
N580 C579 1.261 . S
C581 H551 0.931 . S
C581 C578 1.357 . S
C581 C582 1.312 . S
C582 H553 0.930 . S
C582 C577 1.261 . S
C582 C581 1.312 . S
C583 O555 1.214 . S
C583 O563 1.234 . S
C584 H556 0.929 . S
C584 C587 1.391 . S
C584 C589 1.391 . S
C585 H557 0.929 . S
C585 C586 1.390 . S
C585 N588 1.391 . S
C586 H558 0.930 . S
C586 C585 1.390 . S
C586 C587 1.392 . S
C587 H559 0.929 . S
C587 C584 1.391 . S
C587 C586 1.392 . S
N588 Co532 2.257 . S
N588 C585 1.391 . S
N588 C589 1.388 . S
C589 H560 0.930 . S
C589 C584 1.391 . S
C589 N588 1.388 . S
Co590 O592 2.143 . S
Co590 O598 2.074 . S
Co590 O601 2.093 . S
Co590 O614 2.097 . S
Co590 N631 2.151 . S
Co590 N639 2.214 . S
Co591 O592 2.160 . S
Co591 O597 2.058 . S
Co591 O607 2.057 . S
Co591 O622 2.037 . S
Co591 N626 2.145 . S
Co591 N647 2.257 . S
O592 Co590 2.143 . S
O592 Co591 2.160 . S
C593 O594 1.278 . S
C593 O601 1.224 . S
O594 C593 1.278 . S
C595 O596 1.245 . S
C595 O607 1.232 . S
O596 C595 1.245 . S
O597 Co591 2.058 . S
O597 C623 1.269 . S
O598 Co590 2.074 . S
O598 C623 1.257 . S
H599 C624 0.930 . S
H600 C630 0.930 . S
O601 Co590 2.093 . S
O601 C593 1.224 . S
H602 C634 0.929 . S
H603 C636 0.930 . S
H604 C637 0.930 . S
H605 C635 0.929 . S
H606 C638 0.928 . S
O607 Co591 2.057 . S
O607 C595 1.232 . S
H608 C627 0.929 . S
H609 C628 0.929 . S
H610 C640 0.931 . S
H611 C632 0.929 . S
H612 C641 0.930 . S
H613 C633 0.931 . S
O614 Co590 2.097 . S
O614 C642 1.214 . S
H615 C643 0.929 . S
H616 C644 0.929 . S
H617 C645 0.930 . S
H618 C646 0.929 . S
H619 C648 0.930 . S
H620 C625 0.930 . S
H621 C629 0.930 . S
O622 Co591 2.037 . S
O622 C642 1.234 . S
C623 O597 1.269 . S
C623 O598 1.257 . S
C624 H599 0.930 . S
C624 C627 1.388 . S
C624 C629 1.418 . S
C625 H620 0.930 . S
C625 C628 1.404 . S
C625 C629 1.353 . S
N626 Co591 2.145 . S
N626 C627 1.397 . S
N626 C628 1.334 . S
C627 H608 0.929 . S
C627 C624 1.388 . S
C627 N626 1.397 . S
C628 H609 0.929 . S
C628 C625 1.404 . S
C628 N626 1.334 . S
C629 H621 0.930 . S
C629 C624 1.418 . S
C629 C625 1.353 . S
C630 H600 0.930 . S
C630 N631 1.330 . S
C630 C632 1.446 . S
N631 Co590 2.151 . S
N631 C630 1.330 . S
N631 C635 1.418 . S
C632 H611 0.929 . S
C632 C630 1.446 . S
C632 C633 1.332 . S
C633 H613 0.931 . S
C633 C632 1.332 . S
C633 C634 1.267 . S
C634 H602 0.929 . S
C634 C633 1.267 . S
C634 C635 1.251 . S
C635 H605 0.929 . S
C635 N631 1.418 . S
C635 C634 1.251 . S
C636 H603 0.930 . S
C636 C638 1.406 . S
C636 C641 1.261 . S
C637 H604 0.930 . S
C637 N639 1.325 . S
C637 C640 1.357 . S
C638 H606 0.928 . S
C638 C636 1.406 . S
C638 N639 1.261 . S
N639 Co590 2.214 . S
N639 C637 1.325 . S
N639 C638 1.261 . S
C640 H610 0.931 . S
C640 C637 1.357 . S
C640 C641 1.312 . S
C641 H612 0.930 . S
C641 C636 1.261 . S
C641 C640 1.312 . S
C642 O614 1.214 . S
C642 O622 1.234 . S
C643 H615 0.929 . S
C643 C646 1.391 . S
C643 C648 1.391 . S
C644 H616 0.929 . S
C644 C645 1.390 . S
C644 N647 1.391 . S
C645 H617 0.930 . S
C645 C644 1.390 . S
C645 C646 1.392 . S
C646 H618 0.929 . S
C646 C643 1.391 . S
C646 C645 1.392 . S
N647 Co591 2.257 . S
N647 C644 1.391 . S
N647 C648 1.388 . S
C648 H619 0.930 . S
C648 C643 1.391 . S
C648 N647 1.388 . S
Co649 O651 2.143 . S
Co649 O657 2.074 . S
Co649 O660 2.093 . S
Co649 O673 2.097 . S
Co649 N690 2.151 . S
Co649 N698 2.214 . S
Co650 O651 2.160 . S
Co650 O656 2.058 . S
Co650 O666 2.057 . S
Co650 O681 2.037 . S
Co650 N685 2.145 . S
Co650 N706 2.257 . S
O651 Co649 2.143 . S
O651 Co650 2.160 . S
C652 O653 1.278 . S
C652 O660 1.224 . S
O653 C652 1.278 . S
C654 O655 1.245 . S
C654 O666 1.232 . S
O655 C654 1.245 . S
O656 Co650 2.058 . S
O656 C682 1.269 . S
O657 Co649 2.074 . S
O657 C682 1.257 . S
H658 C683 0.930 . S
H659 C689 0.930 . S
O660 Co649 2.093 . S
O660 C652 1.224 . S
H661 C693 0.929 . S
H662 C695 0.930 . S
H663 C696 0.930 . S
H664 C694 0.929 . S
H665 C697 0.928 . S
O666 Co650 2.057 . S
O666 C654 1.232 . S
H667 C686 0.929 . S
H668 C687 0.929 . S
H669 C699 0.931 . S
H670 C691 0.929 . S
H671 C700 0.930 . S
H672 C692 0.931 . S
O673 Co649 2.097 . S
O673 C701 1.214 . S
H674 C702 0.929 . S
H675 C703 0.929 . S
H676 C704 0.930 . S
H677 C705 0.929 . S
H678 C707 0.930 . S
H679 C684 0.930 . S
H680 C688 0.930 . S
O681 Co650 2.037 . S
O681 C701 1.234 . S
C682 O656 1.269 . S
C682 O657 1.257 . S
C683 H658 0.930 . S
C683 C686 1.388 . S
C683 C688 1.418 . S
C684 H679 0.930 . S
C684 C687 1.404 . S
C684 C688 1.353 . S
N685 Co650 2.145 . S
N685 C686 1.397 . S
N685 C687 1.334 . S
C686 H667 0.929 . S
C686 C683 1.388 . S
C686 N685 1.397 . S
C687 H668 0.929 . S
C687 C684 1.404 . S
C687 N685 1.334 . S
C688 H680 0.930 . S
C688 C683 1.418 . S
C688 C684 1.353 . S
C689 H659 0.930 . S
C689 N690 1.330 . S
C689 C691 1.446 . S
N690 Co649 2.151 . S
N690 C689 1.330 . S
N690 C694 1.418 . S
C691 H670 0.929 . S
C691 C689 1.446 . S
C691 C692 1.332 . S
C692 H672 0.931 . S
C692 C691 1.332 . S
C692 C693 1.267 . S
C693 H661 0.929 . S
C693 C692 1.267 . S
C693 C694 1.251 . S
C694 H664 0.929 . S
C694 N690 1.418 . S
C694 C693 1.251 . S
C695 H662 0.930 . S
C695 C697 1.406 . S
C695 C700 1.261 . S
C696 H663 0.930 . S
C696 N698 1.325 . S
C696 C699 1.357 . S
C697 H665 0.928 . S
C697 C695 1.406 . S
C697 N698 1.261 . S
N698 Co649 2.214 . S
N698 C696 1.325 . S
N698 C697 1.261 . S
C699 H669 0.931 . S
C699 C696 1.357 . S
C699 C700 1.312 . S
C700 H671 0.930 . S
C700 C695 1.261 . S
C700 C699 1.312 . S
C701 O673 1.214 . S
C701 O681 1.234 . S
C702 H674 0.929 . S
C702 C705 1.391 . S
C702 C707 1.391 . S
C703 H675 0.929 . S
C703 C704 1.390 . S
C703 N706 1.391 . S
C704 H676 0.930 . S
C704 C703 1.390 . S
C704 C705 1.392 . S
C705 H677 0.929 . S
C705 C702 1.391 . S
C705 C704 1.392 . S
N706 Co650 2.257 . S
N706 C703 1.391 . S
N706 C707 1.388 . S
C707 H678 0.930 . S
C707 C702 1.391 . S
C707 N706 1.388 . S
Co708 O710 2.143 . S
Co708 O716 2.074 . S
Co708 O719 2.093 . S
Co708 O732 2.097 . S
Co708 N749 2.151 . S
Co708 N757 2.214 . S
Co709 O710 2.160 . S
Co709 O715 2.058 . S
Co709 O725 2.057 . S
Co709 O740 2.037 . S
Co709 N744 2.145 . S
Co709 N765 2.257 . S
O710 Co708 2.143 . S
O710 Co709 2.160 . S
C711 O712 1.278 . S
C711 O719 1.224 . S
O712 C711 1.278 . S
C713 O714 1.245 . S
C713 O725 1.232 . S
O714 C713 1.245 . S
O715 Co709 2.058 . S
O715 C741 1.269 . S
O716 Co708 2.074 . S
O716 C741 1.257 . S
H717 C742 0.930 . S
H718 C748 0.930 . S
O719 Co708 2.093 . S
O719 C711 1.224 . S
H720 C752 0.929 . S
H721 C754 0.930 . S
H722 C755 0.930 . S
H723 C753 0.929 . S
H724 C756 0.928 . S
O725 Co709 2.057 . S
O725 C713 1.232 . S
H726 C745 0.929 . S
H727 C746 0.929 . S
H728 C758 0.931 . S
H729 C750 0.929 . S
H730 C759 0.930 . S
H731 C751 0.931 . S
O732 Co708 2.097 . S
O732 C760 1.214 . S
H733 C761 0.929 . S
H734 C762 0.929 . S
H735 C763 0.930 . S
H736 C764 0.929 . S
H737 C766 0.930 . S
H738 C743 0.930 . S
H739 C747 0.930 . S
O740 Co709 2.037 . S
O740 C760 1.234 . S
C741 O715 1.269 . S
C741 O716 1.257 . S
C742 H717 0.930 . S
C742 C745 1.388 . S
C742 C747 1.418 . S
C743 H738 0.930 . S
C743 C746 1.404 . S
C743 C747 1.353 . S
N744 Co709 2.145 . S
N744 C745 1.397 . S
N744 C746 1.334 . S
C745 H726 0.929 . S
C745 C742 1.388 . S
C745 N744 1.397 . S
C746 H727 0.929 . S
C746 C743 1.404 . S
C746 N744 1.334 . S
C747 H739 0.930 . S
C747 C742 1.418 . S
C747 C743 1.353 . S
C748 H718 0.930 . S
C748 N749 1.330 . S
C748 C750 1.446 . S
N749 Co708 2.151 . S
N749 C748 1.330 . S
N749 C753 1.418 . S
C750 H729 0.929 . S
C750 C748 1.446 . S
C750 C751 1.332 . S
C751 H731 0.931 . S
C751 C750 1.332 . S
C751 C752 1.267 . S
C752 H720 0.929 . S
C752 C751 1.267 . S
C752 C753 1.251 . S
C753 H723 0.929 . S
C753 N749 1.418 . S
C753 C752 1.251 . S
C754 H721 0.930 . S
C754 C756 1.406 . S
C754 C759 1.261 . S
C755 H722 0.930 . S
C755 N757 1.325 . S
C755 C758 1.357 . S
C756 H724 0.928 . S
C756 C754 1.406 . S
C756 N757 1.261 . S
N757 Co708 2.214 . S
N757 C755 1.325 . S
N757 C756 1.261 . S
C758 H728 0.931 . S
C758 C755 1.357 . S
C758 C759 1.312 . S
C759 H730 0.930 . S
C759 C754 1.261 . S
C759 C758 1.312 . S
C760 O732 1.214 . S
C760 O740 1.234 . S
C761 H733 0.929 . S
C761 C764 1.391 . S
C761 C766 1.391 . S
C762 H734 0.929 . S
C762 C763 1.390 . S
C762 N765 1.391 . S
C763 H735 0.930 . S
C763 C762 1.390 . S
C763 C764 1.392 . S
C764 H736 0.929 . S
C764 C761 1.391 . S
C764 C763 1.392 . S
N765 Co709 2.257 . S
N765 C762 1.391 . S
N765 C766 1.388 . S
C766 H737 0.930 . S
C766 C761 1.391 . S
C766 N765 1.388 . S
Co767 O769 2.143 . S
Co767 O775 2.074 . S
Co767 O778 2.093 . S
Co767 O791 2.097 . S
Co767 N808 2.151 . S
Co767 N816 2.214 . S
Co768 O769 2.160 . S
Co768 O774 2.058 . S
Co768 O784 2.057 . S
Co768 O799 2.037 . S
Co768 N803 2.145 . S
Co768 N824 2.257 . S
O769 Co767 2.143 . S
O769 Co768 2.160 . S
C770 O771 1.278 . S
C770 O778 1.224 . S
O771 C770 1.278 . S
C772 O773 1.245 . S
C772 O784 1.232 . S
O773 C772 1.245 . S
O774 Co768 2.058 . S
O774 C800 1.269 . S
O775 Co767 2.074 . S
O775 C800 1.257 . S
H776 C801 0.930 . S
H777 C807 0.930 . S
O778 Co767 2.093 . S
O778 C770 1.224 . S
H779 C811 0.929 . S
H780 C813 0.930 . S
H781 C814 0.930 . S
H782 C812 0.929 . S
H783 C815 0.928 . S
O784 Co768 2.057 . S
O784 C772 1.232 . S
H785 C804 0.929 . S
H786 C805 0.929 . S
H787 C817 0.931 . S
H788 C809 0.929 . S
H789 C818 0.930 . S
H790 C810 0.931 . S
O791 Co767 2.097 . S
O791 C819 1.214 . S
H792 C820 0.929 . S
H793 C821 0.929 . S
H794 C822 0.930 . S
H795 C823 0.929 . S
H796 C825 0.930 . S
H797 C802 0.930 . S
H798 C806 0.930 . S
O799 Co768 2.037 . S
O799 C819 1.234 . S
C800 O774 1.269 . S
C800 O775 1.257 . S
C801 H776 0.930 . S
C801 C804 1.388 . S
C801 C806 1.418 . S
C802 H797 0.930 . S
C802 C805 1.404 . S
C802 C806 1.353 . S
N803 Co768 2.145 . S
N803 C804 1.397 . S
N803 C805 1.334 . S
C804 H785 0.929 . S
C804 C801 1.388 . S
C804 N803 1.397 . S
C805 H786 0.929 . S
C805 C802 1.404 . S
C805 N803 1.334 . S
C806 H798 0.930 . S
C806 C801 1.418 . S
C806 C802 1.353 . S
C807 H777 0.930 . S
C807 N808 1.330 . S
C807 C809 1.446 . S
N808 Co767 2.151 . S
N808 C807 1.330 . S
N808 C812 1.418 . S
C809 H788 0.929 . S
C809 C807 1.446 . S
C809 C810 1.332 . S
C810 H790 0.931 . S
C810 C809 1.332 . S
C810 C811 1.267 . S
C811 H779 0.929 . S
C811 C810 1.267 . S
C811 C812 1.251 . S
C812 H782 0.929 . S
C812 N808 1.418 . S
C812 C811 1.251 . S
C813 H780 0.930 . S
C813 C815 1.406 . S
C813 C818 1.261 . S
C814 H781 0.930 . S
C814 N816 1.325 . S
C814 C817 1.357 . S
C815 H783 0.928 . S
C815 C813 1.406 . S
C815 N816 1.261 . S
N816 Co767 2.214 . S
N816 C814 1.325 . S
N816 C815 1.261 . S
C817 H787 0.931 . S
C817 C814 1.357 . S
C817 C818 1.312 . S
C818 H789 0.930 . S
C818 C813 1.261 . S
C818 C817 1.312 . S
C819 O791 1.214 . S
C819 O799 1.234 . S
C820 H792 0.929 . S
C820 C823 1.391 . S
C820 C825 1.391 . S
C821 H793 0.929 . S
C821 C822 1.390 . S
C821 N824 1.391 . S
C822 H794 0.930 . S
C822 C821 1.390 . S
C822 C823 1.392 . S
C823 H795 0.929 . S
C823 C820 1.391 . S
C823 C822 1.392 . S
N824 Co768 2.257 . S
N824 C821 1.391 . S
N824 C825 1.388 . S
C825 H796 0.930 . S
C825 C820 1.391 . S
C825 N824 1.388 . S
Co826 O828 2.143 . S
Co826 O834 2.074 . S
Co826 O837 2.093 . S
Co826 O850 2.097 . S
Co826 N867 2.151 . S
Co826 N875 2.214 . S
Co827 O828 2.160 . S
Co827 O833 2.058 . S
Co827 O843 2.057 . S
Co827 O858 2.037 . S
Co827 N862 2.145 . S
Co827 N883 2.257 . S
O828 Co826 2.143 . S
O828 Co827 2.160 . S
C829 O830 1.278 . S
C829 O837 1.224 . S
O830 C829 1.278 . S
C831 O832 1.245 . S
C831 O843 1.232 . S
O832 C831 1.245 . S
O833 Co827 2.058 . S
O833 C859 1.269 . S
O834 Co826 2.074 . S
O834 C859 1.257 . S
H835 C860 0.930 . S
H836 C866 0.930 . S
O837 Co826 2.093 . S
O837 C829 1.224 . S
H838 C870 0.929 . S
H839 C872 0.930 . S
H840 C873 0.930 . S
H841 C871 0.929 . S
H842 C874 0.928 . S
O843 Co827 2.057 . S
O843 C831 1.232 . S
H844 C863 0.929 . S
H845 C864 0.929 . S
H846 C876 0.931 . S
H847 C868 0.929 . S
H848 C877 0.930 . S
H849 C869 0.931 . S
O850 Co826 2.097 . S
O850 C878 1.214 . S
H851 C879 0.929 . S
H852 C880 0.929 . S
H853 C881 0.930 . S
H854 C882 0.929 . S
H855 C884 0.930 . S
H856 C861 0.930 . S
H857 C865 0.930 . S
O858 Co827 2.037 . S
O858 C878 1.234 . S
C859 O833 1.269 . S
C859 O834 1.257 . S
C860 H835 0.930 . S
C860 C863 1.388 . S
C860 C865 1.418 . S
C861 H856 0.930 . S
C861 C864 1.404 . S
C861 C865 1.353 . S
N862 Co827 2.145 . S
N862 C863 1.397 . S
N862 C864 1.334 . S
C863 H844 0.929 . S
C863 C860 1.388 . S
C863 N862 1.397 . S
C864 H845 0.929 . S
C864 C861 1.404 . S
C864 N862 1.334 . S
C865 H857 0.930 . S
C865 C860 1.418 . S
C865 C861 1.353 . S
C866 H836 0.930 . S
C866 N867 1.330 . S
C866 C868 1.446 . S
N867 Co826 2.151 . S
N867 C866 1.330 . S
N867 C871 1.418 . S
C868 H847 0.929 . S
C868 C866 1.446 . S
C868 C869 1.332 . S
C869 H849 0.931 . S
C869 C868 1.332 . S
C869 C870 1.267 . S
C870 H838 0.929 . S
C870 C869 1.267 . S
C870 C871 1.251 . S
C871 H841 0.929 . S
C871 N867 1.418 . S
C871 C870 1.251 . S
C872 H839 0.930 . S
C872 C874 1.406 . S
C872 C877 1.261 . S
C873 H840 0.930 . S
C873 N875 1.325 . S
C873 C876 1.357 . S
C874 H842 0.928 . S
C874 C872 1.406 . S
C874 N875 1.261 . S
N875 Co826 2.214 . S
N875 C873 1.325 . S
N875 C874 1.261 . S
C876 H846 0.931 . S
C876 C873 1.357 . S
C876 C877 1.312 . S
C877 H848 0.930 . S
C877 C872 1.261 . S
C877 C876 1.312 . S
C878 O850 1.214 . S
C878 O858 1.234 . S
C879 H851 0.929 . S
C879 C882 1.391 . S
C879 C884 1.391 . S
C880 H852 0.929 . S
C880 C881 1.390 . S
C880 N883 1.391 . S
C881 H853 0.930 . S
C881 C880 1.390 . S
C881 C882 1.392 . S
C882 H854 0.929 . S
C882 C879 1.391 . S
C882 C881 1.392 . S
N883 Co827 2.257 . S
N883 C880 1.391 . S
N883 C884 1.388 . S
C884 H855 0.930 . S
C884 C879 1.391 . S
C884 N883 1.388 . S
Co885 O887 2.143 . S
Co885 O893 2.074 . S
Co885 O896 2.093 . S
Co885 O909 2.097 . S
Co885 N926 2.151 . S
Co885 N934 2.214 . S
Co886 O887 2.160 . S
Co886 O892 2.058 . S
Co886 O902 2.057 . S
Co886 O917 2.037 . S
Co886 N921 2.145 . S
Co886 N942 2.257 . S
O887 Co885 2.143 . S
O887 Co886 2.160 . S
C888 O889 1.278 . S
C888 O896 1.224 . S
O889 C888 1.278 . S
C890 O891 1.245 . S
C890 O902 1.232 . S
O891 C890 1.245 . S
O892 Co886 2.058 . S
O892 C918 1.269 . S
O893 Co885 2.074 . S
O893 C918 1.257 . S
H894 C919 0.930 . S
H895 C925 0.930 . S
O896 Co885 2.093 . S
O896 C888 1.224 . S
H897 C929 0.929 . S
H898 C931 0.930 . S
H899 C932 0.930 . S
H900 C930 0.929 . S
H901 C933 0.928 . S
O902 Co886 2.057 . S
O902 C890 1.232 . S
H903 C922 0.929 . S
H904 C923 0.929 . S
H905 C935 0.931 . S
H906 C927 0.929 . S
H907 C936 0.930 . S
H908 C928 0.931 . S
O909 Co885 2.097 . S
O909 C937 1.214 . S
H910 C938 0.929 . S
H911 C939 0.929 . S
H912 C940 0.930 . S
H913 C941 0.929 . S
H914 C943 0.930 . S
H915 C920 0.930 . S
H916 C924 0.930 . S
O917 Co886 2.037 . S
O917 C937 1.234 . S
C918 O892 1.269 . S
C918 O893 1.257 . S
C919 H894 0.930 . S
C919 C922 1.388 . S
C919 C924 1.418 . S
C920 H915 0.930 . S
C920 C923 1.404 . S
C920 C924 1.353 . S
N921 Co886 2.145 . S
N921 C922 1.397 . S
N921 C923 1.334 . S
C922 H903 0.929 . S
C922 C919 1.388 . S
C922 N921 1.397 . S
C923 H904 0.929 . S
C923 C920 1.404 . S
C923 N921 1.334 . S
C924 H916 0.930 . S
C924 C919 1.418 . S
C924 C920 1.353 . S
C925 H895 0.930 . S
C925 N926 1.330 . S
C925 C927 1.446 . S
N926 Co885 2.151 . S
N926 C925 1.330 . S
N926 C930 1.418 . S
C927 H906 0.929 . S
C927 C925 1.446 . S
C927 C928 1.332 . S
C928 H908 0.931 . S
C928 C927 1.332 . S
C928 C929 1.267 . S
C929 H897 0.929 . S
C929 C928 1.267 . S
C929 C930 1.251 . S
C930 H900 0.929 . S
C930 N926 1.418 . S
C930 C929 1.251 . S
C931 H898 0.930 . S
C931 C933 1.406 . S
C931 C936 1.261 . S
C932 H899 0.930 . S
C932 N934 1.325 . S
C932 C935 1.357 . S
C933 H901 0.928 . S
C933 C931 1.406 . S
C933 N934 1.261 . S
N934 Co885 2.214 . S
N934 C932 1.325 . S
N934 C933 1.261 . S
C935 H905 0.931 . S
C935 C932 1.357 . S
C935 C936 1.312 . S
C936 H907 0.930 . S
C936 C931 1.261 . S
C936 C935 1.312 . S
C937 O909 1.214 . S
C937 O917 1.234 . S
C938 H910 0.929 . S
C938 C941 1.391 . S
C938 C943 1.391 . S
C939 H911 0.929 . S
C939 C940 1.390 . S
C939 N942 1.391 . S
C940 H912 0.930 . S
C940 C939 1.390 . S
C940 C941 1.392 . S
C941 H913 0.929 . S
C941 C938 1.391 . S
C941 C940 1.392 . S
N942 Co886 2.257 . S
N942 C939 1.391 . S
N942 C943 1.388 . S
C943 H914 0.930 . S
C943 C938 1.391 . S
C943 N942 1.388 . S
Co944 O946 2.143 . S
Co944 O952 2.074 . S
Co944 O955 2.093 . S
Co944 O968 2.097 . S
Co944 N985 2.151 . S
Co944 N993 2.214 . S
Co945 O946 2.160 . S
Co945 O951 2.058 . S
Co945 O961 2.057 . S
Co945 O976 2.037 . S
Co945 N980 2.145 . S
Co945 N1001 2.257 . S
O946 Co944 2.143 . S
O946 Co945 2.160 . S
C947 O948 1.278 . S
C947 O955 1.224 . S
O948 C947 1.278 . S
C949 O950 1.245 . S
C949 O961 1.232 . S
O950 C949 1.245 . S
O951 Co945 2.058 . S
O951 C977 1.269 . S
O952 Co944 2.074 . S
O952 C977 1.257 . S
H953 C978 0.930 . S
H954 C984 0.930 . S
O955 Co944 2.093 . S
O955 C947 1.224 . S
H956 C988 0.929 . S
H957 C990 0.930 . S
H958 C991 0.930 . S
H959 C989 0.929 . S
H960 C992 0.928 . S
O961 Co945 2.057 . S
O961 C949 1.232 . S
H962 C981 0.929 . S
H963 C982 0.929 . S
H964 C994 0.931 . S
H965 C986 0.929 . S
H966 C995 0.930 . S
H967 C987 0.931 . S
O968 Co944 2.097 . S
O968 C996 1.214 . S
H969 C997 0.929 . S
H970 C998 0.929 . S
H971 C999 0.930 . S
H972 C1000 0.929 . S
H973 C1002 0.930 . S
H974 C979 0.930 . S
H975 C983 0.930 . S
O976 Co945 2.037 . S
O976 C996 1.234 . S
C977 O951 1.269 . S
C977 O952 1.257 . S
C978 H953 0.930 . S
C978 C981 1.388 . S
C978 C983 1.418 . S
C979 H974 0.930 . S
C979 C982 1.404 . S
C979 C983 1.353 . S
N980 Co945 2.145 . S
N980 C981 1.397 . S
N980 C982 1.334 . S
C981 H962 0.929 . S
C981 C978 1.388 . S
C981 N980 1.397 . S
C982 H963 0.929 . S
C982 C979 1.404 . S
C982 N980 1.334 . S
C983 H975 0.930 . S
C983 C978 1.418 . S
C983 C979 1.353 . S
C984 H954 0.930 . S
C984 N985 1.330 . S
C984 C986 1.446 . S
N985 Co944 2.151 . S
N985 C984 1.330 . S
N985 C989 1.418 . S
C986 H965 0.929 . S
C986 C984 1.446 . S
C986 C987 1.332 . S
C987 H967 0.931 . S
C987 C986 1.332 . S
C987 C988 1.267 . S
C988 H956 0.929 . S
C988 C987 1.267 . S
C988 C989 1.251 . S
C989 H959 0.929 . S
C989 N985 1.418 . S
C989 C988 1.251 . S
C990 H957 0.930 . S
C990 C992 1.406 . S
C990 C995 1.261 . S
C991 H958 0.930 . S
C991 N993 1.325 . S
C991 C994 1.357 . S
C992 H960 0.928 . S
C992 C990 1.406 . S
C992 N993 1.261 . S
N993 Co944 2.214 . S
N993 C991 1.325 . S
N993 C992 1.261 . S
C994 H964 0.931 . S
C994 C991 1.357 . S
C994 C995 1.312 . S
C995 H966 0.930 . S
C995 C990 1.261 . S
C995 C994 1.312 . S
C996 O968 1.214 . S
C996 O976 1.234 . S
C997 H969 0.929 . S
C997 C1000 1.391 . S
C997 C1002 1.391 . S
C998 H970 0.929 . S
C998 C999 1.390 . S
C998 N1001 1.391 . S
C999 H971 0.930 . S
C999 C998 1.390 . S
C999 C1000 1.392 . S
C1000 H972 0.929 . S
C1000 C997 1.391 . S
C1000 C999 1.392 . S
N1001 Co945 2.257 . S
N1001 C998 1.391 . S
N1001 C1002 1.388 . S
C1002 H973 0.930 . S
C1002 C997 1.391 . S
C1002 N1001 1.388 . S
Co1003 O1005 2.143 . S
Co1003 O1011 2.074 . S
Co1003 O1014 2.093 . S
Co1003 O1027 2.097 . S
Co1003 N1044 2.151 . S
Co1003 N1052 2.214 . S
Co1004 O1005 2.160 . S
Co1004 O1010 2.058 . S
Co1004 O1020 2.057 . S
Co1004 O1035 2.037 . S
Co1004 N1039 2.145 . S
Co1004 N1060 2.257 . S
O1005 Co1003 2.143 . S
O1005 Co1004 2.160 . S
C1006 O1007 1.278 . S
C1006 O1014 1.224 . S
O1007 C1006 1.278 . S
C1008 O1009 1.245 . S
C1008 O1020 1.232 . S
O1009 C1008 1.245 . S
O1010 Co1004 2.058 . S
O1010 C1036 1.269 . S
O1011 Co1003 2.074 . S
O1011 C1036 1.257 . S
H1012 C1037 0.930 . S
H1013 C1043 0.930 . S
O1014 Co1003 2.093 . S
O1014 C1006 1.224 . S
H1015 C1047 0.929 . S
H1016 C1049 0.930 . S
H1017 C1050 0.930 . S
H1018 C1048 0.929 . S
H1019 C1051 0.928 . S
O1020 Co1004 2.057 . S
O1020 C1008 1.232 . S
H1021 C1040 0.929 . S
H1022 C1041 0.929 . S
H1023 C1053 0.931 . S
H1024 C1045 0.929 . S
H1025 C1054 0.930 . S
H1026 C1046 0.931 . S
O1027 Co1003 2.097 . S
O1027 C1055 1.214 . S
H1028 C1056 0.929 . S
H1029 C1057 0.929 . S
H1030 C1058 0.930 . S
H1031 C1059 0.929 . S
H1032 C1061 0.930 . S
H1033 C1038 0.930 . S
H1034 C1042 0.930 . S
O1035 Co1004 2.037 . S
O1035 C1055 1.234 . S
C1036 O1010 1.269 . S
C1036 O1011 1.257 . S
C1037 H1012 0.930 . S
C1037 C1040 1.388 . S
C1037 C1042 1.418 . S
C1038 H1033 0.930 . S
C1038 C1041 1.404 . S
C1038 C1042 1.353 . S
N1039 Co1004 2.145 . S
N1039 C1040 1.397 . S
N1039 C1041 1.334 . S
C1040 H1021 0.929 . S
C1040 C1037 1.388 . S
C1040 N1039 1.397 . S
C1041 H1022 0.929 . S
C1041 C1038 1.404 . S
C1041 N1039 1.334 . S
C1042 H1034 0.930 . S
C1042 C1037 1.418 . S
C1042 C1038 1.353 . S
C1043 H1013 0.930 . S
C1043 N1044 1.330 . S
C1043 C1045 1.446 . S
N1044 Co1003 2.151 . S
N1044 C1043 1.330 . S
N1044 C1048 1.418 . S
C1045 H1024 0.929 . S
C1045 C1043 1.446 . S
C1045 C1046 1.332 . S
C1046 H1026 0.931 . S
C1046 C1045 1.332 . S
C1046 C1047 1.267 . S
C1047 H1015 0.929 . S
C1047 C1046 1.267 . S
C1047 C1048 1.251 . S
C1048 H1018 0.929 . S
C1048 N1044 1.418 . S
C1048 C1047 1.251 . S
C1049 H1016 0.930 . S
C1049 C1051 1.406 . S
C1049 C1054 1.261 . S
C1050 H1017 0.930 . S
C1050 N1052 1.325 . S
C1050 C1053 1.357 . S
C1051 H1019 0.928 . S
C1051 C1049 1.406 . S
C1051 N1052 1.261 . S
N1052 Co1003 2.214 . S
N1052 C1050 1.325 . S
N1052 C1051 1.261 . S
C1053 H1023 0.931 . S
C1053 C1050 1.357 . S
C1053 C1054 1.312 . S
C1054 H1025 0.930 . S
C1054 C1049 1.261 . S
C1054 C1053 1.312 . S
C1055 O1027 1.214 . S
C1055 O1035 1.234 . S
C1056 H1028 0.929 . S
C1056 C1059 1.391 . S
C1056 C1061 1.391 . S
C1057 H1029 0.929 . S
C1057 C1058 1.390 . S
C1057 N1060 1.391 . S
C1058 H1030 0.930 . S
C1058 C1057 1.390 . S
C1058 C1059 1.392 . S
C1059 H1031 0.929 . S
C1059 C1056 1.391 . S
C1059 C1058 1.392 . S
N1060 Co1004 2.257 . S
N1060 C1057 1.391 . S
N1060 C1061 1.388 . S
C1061 H1032 0.930 . S
C1061 C1056 1.391 . S
C1061 N1060 1.388 . S
Co1062 O1064 2.143 . S
Co1062 O1070 2.074 . S
Co1062 O1073 2.093 . S
Co1062 O1086 2.097 . S
Co1062 N1103 2.151 . S
Co1062 N1111 2.214 . S
Co1063 O1064 2.160 . S
Co1063 O1069 2.058 . S
Co1063 O1079 2.057 . S
Co1063 O1094 2.037 . S
Co1063 N1098 2.145 . S
Co1063 N1119 2.257 . S
O1064 Co1062 2.143 . S
O1064 Co1063 2.160 . S
C1065 O1066 1.278 . S
C1065 O1073 1.224 . S
O1066 C1065 1.278 . S
C1067 O1068 1.245 . S
C1067 O1079 1.232 . S
O1068 C1067 1.245 . S
O1069 Co1063 2.058 . S
O1069 C1095 1.269 . S
O1070 Co1062 2.074 . S
O1070 C1095 1.257 . S
H1071 C1096 0.930 . S
H1072 C1102 0.930 . S
O1073 Co1062 2.093 . S
O1073 C1065 1.224 . S
H1074 C1106 0.929 . S
H1075 C1108 0.930 . S
H1076 C1109 0.930 . S
H1077 C1107 0.929 . S
H1078 C1110 0.928 . S
O1079 Co1063 2.057 . S
O1079 C1067 1.232 . S
H1080 C1099 0.929 . S
H1081 C1100 0.929 . S
H1082 C1112 0.931 . S
H1083 C1104 0.929 . S
H1084 C1113 0.930 . S
H1085 C1105 0.931 . S
O1086 Co1062 2.097 . S
O1086 C1114 1.214 . S
H1087 C1115 0.929 . S
H1088 C1116 0.929 . S
H1089 C1117 0.930 . S
H1090 C1118 0.929 . S
H1091 C1120 0.930 . S
H1092 C1097 0.930 . S
H1093 C1101 0.930 . S
O1094 Co1063 2.037 . S
O1094 C1114 1.234 . S
C1095 O1069 1.269 . S
C1095 O1070 1.257 . S
C1096 H1071 0.930 . S
C1096 C1099 1.388 . S
C1096 C1101 1.418 . S
C1097 H1092 0.930 . S
C1097 C1100 1.404 . S
C1097 C1101 1.353 . S
N1098 Co1063 2.145 . S
N1098 C1099 1.397 . S
N1098 C1100 1.334 . S
C1099 H1080 0.929 . S
C1099 C1096 1.388 . S
C1099 N1098 1.397 . S
C1100 H1081 0.929 . S
C1100 C1097 1.404 . S
C1100 N1098 1.334 . S
C1101 H1093 0.930 . S
C1101 C1096 1.418 . S
C1101 C1097 1.353 . S
C1102 H1072 0.930 . S
C1102 N1103 1.330 . S
C1102 C1104 1.446 . S
N1103 Co1062 2.151 . S
N1103 C1102 1.330 . S
N1103 C1107 1.418 . S
C1104 H1083 0.929 . S
C1104 C1102 1.446 . S
C1104 C1105 1.332 . S
C1105 H1085 0.931 . S
C1105 C1104 1.332 . S
C1105 C1106 1.267 . S
C1106 H1074 0.929 . S
C1106 C1105 1.267 . S
C1106 C1107 1.251 . S
C1107 H1077 0.929 . S
C1107 N1103 1.418 . S
C1107 C1106 1.251 . S
C1108 H1075 0.930 . S
C1108 C1110 1.406 . S
C1108 C1113 1.261 . S
C1109 H1076 0.930 . S
C1109 N1111 1.325 . S
C1109 C1112 1.357 . S
C1110 H1078 0.928 . S
C1110 C1108 1.406 . S
C1110 N1111 1.261 . S
N1111 Co1062 2.214 . S
N1111 C1109 1.325 . S
N1111 C1110 1.261 . S
C1112 H1082 0.931 . S
C1112 C1109 1.357 . S
C1112 C1113 1.312 . S
C1113 H1084 0.930 . S
C1113 C1108 1.261 . S
C1113 C1112 1.312 . S
C1114 O1086 1.214 . S
C1114 O1094 1.234 . S
C1115 H1087 0.929 . S
C1115 C1118 1.391 . S
C1115 C1120 1.391 . S
C1116 H1088 0.929 . S
C1116 C1117 1.390 . S
C1116 N1119 1.391 . S
C1117 H1089 0.930 . S
C1117 C1116 1.390 . S
C1117 C1118 1.392 . S
C1118 H1090 0.929 . S
C1118 C1115 1.391 . S
C1118 C1117 1.392 . S
N1119 Co1063 2.257 . S
N1119 C1116 1.391 . S
N1119 C1120 1.388 . S
C1120 H1091 0.930 . S
C1120 C1115 1.391 . S
C1120 N1119 1.388 . S
Co1121 O1123 2.143 . S
Co1121 O1129 2.074 . S
Co1121 O1132 2.093 . S
Co1121 O1145 2.097 . S
Co1121 N1162 2.151 . S
Co1121 N1170 2.214 . S
Co1122 O1123 2.160 . S
Co1122 O1128 2.058 . S
Co1122 O1138 2.057 . S
Co1122 O1153 2.037 . S
Co1122 N1157 2.145 . S
Co1122 N1178 2.257 . S
O1123 Co1121 2.143 . S
O1123 Co1122 2.160 . S
C1124 O1125 1.278 . S
C1124 O1132 1.224 . S
O1125 C1124 1.278 . S
C1126 O1127 1.245 . S
C1126 O1138 1.232 . S
O1127 C1126 1.245 . S
O1128 Co1122 2.058 . S
O1128 C1154 1.269 . S
O1129 Co1121 2.074 . S
O1129 C1154 1.257 . S
H1130 C1155 0.930 . S
H1131 C1161 0.930 . S
O1132 Co1121 2.093 . S
O1132 C1124 1.224 . S
H1133 C1165 0.929 . S
H1134 C1167 0.930 . S
H1135 C1168 0.930 . S
H1136 C1166 0.929 . S
H1137 C1169 0.928 . S
O1138 Co1122 2.057 . S
O1138 C1126 1.232 . S
H1139 C1158 0.929 . S
H1140 C1159 0.929 . S
H1141 C1171 0.931 . S
H1142 C1163 0.929 . S
H1143 C1172 0.930 . S
H1144 C1164 0.931 . S
O1145 Co1121 2.097 . S
O1145 C1173 1.214 . S
H1146 C1174 0.929 . S
H1147 C1175 0.929 . S
H1148 C1176 0.930 . S
H1149 C1177 0.929 . S
H1150 C1179 0.930 . S
H1151 C1156 0.930 . S
H1152 C1160 0.930 . S
O1153 Co1122 2.037 . S
O1153 C1173 1.234 . S
C1154 O1128 1.269 . S
C1154 O1129 1.257 . S
C1155 H1130 0.930 . S
C1155 C1158 1.388 . S
C1155 C1160 1.418 . S
C1156 H1151 0.930 . S
C1156 C1159 1.404 . S
C1156 C1160 1.353 . S
N1157 Co1122 2.145 . S
N1157 C1158 1.397 . S
N1157 C1159 1.334 . S
C1158 H1139 0.929 . S
C1158 C1155 1.388 . S
C1158 N1157 1.397 . S
C1159 H1140 0.929 . S
C1159 C1156 1.404 . S
C1159 N1157 1.334 . S
C1160 H1152 0.930 . S
C1160 C1155 1.418 . S
C1160 C1156 1.353 . S
C1161 H1131 0.930 . S
C1161 N1162 1.330 . S
C1161 C1163 1.446 . S
N1162 Co1121 2.151 . S
N1162 C1161 1.330 . S
N1162 C1166 1.418 . S
C1163 H1142 0.929 . S
C1163 C1161 1.446 . S
C1163 C1164 1.332 . S
C1164 H1144 0.931 . S
C1164 C1163 1.332 . S
C1164 C1165 1.267 . S
C1165 H1133 0.929 . S
C1165 C1164 1.267 . S
C1165 C1166 1.251 . S
C1166 H1136 0.929 . S
C1166 N1162 1.418 . S
C1166 C1165 1.251 . S
C1167 H1134 0.930 . S
C1167 C1169 1.406 . S
C1167 C1172 1.261 . S
C1168 H1135 0.930 . S
C1168 N1170 1.325 . S
C1168 C1171 1.357 . S
C1169 H1137 0.928 . S
C1169 C1167 1.406 . S
C1169 N1170 1.261 . S
N1170 Co1121 2.214 . S
N1170 C1168 1.325 . S
N1170 C1169 1.261 . S
C1171 H1141 0.931 . S
C1171 C1168 1.357 . S
C1171 C1172 1.312 . S
C1172 H1143 0.930 . S
C1172 C1167 1.261 . S
C1172 C1171 1.312 . S
C1173 O1145 1.214 . S
C1173 O1153 1.234 . S
C1174 H1146 0.929 . S
C1174 C1177 1.391 . S
C1174 C1179 1.391 . S
C1175 H1147 0.929 . S
C1175 C1176 1.390 . S
C1175 N1178 1.391 . S
C1176 H1148 0.930 . S
C1176 C1175 1.390 . S
C1176 C1177 1.392 . S
C1177 H1149 0.929 . S
C1177 C1174 1.391 . S
C1177 C1176 1.392 . S
N1178 Co1122 2.257 . S
N1178 C1175 1.391 . S
N1178 C1179 1.388 . S
C1179 H1150 0.930 . S
C1179 C1174 1.391 . S
C1179 N1178 1.388 . S
Co1180 O1182 2.143 . S
Co1180 O1188 2.074 . S
Co1180 O1191 2.093 . S
Co1180 O1204 2.097 . S
Co1180 N1221 2.151 . S
Co1180 N1229 2.214 . S
Co1181 O1182 2.160 . S
Co1181 O1187 2.058 . S
Co1181 O1197 2.057 . S
Co1181 O1212 2.037 . S
Co1181 N1216 2.145 . S
Co1181 N1237 2.257 . S
O1182 Co1180 2.143 . S
O1182 Co1181 2.160 . S
C1183 O1184 1.278 . S
C1183 O1191 1.224 . S
O1184 C1183 1.278 . S
C1185 O1186 1.245 . S
C1185 O1197 1.232 . S
O1186 C1185 1.245 . S
O1187 Co1181 2.058 . S
O1187 C1213 1.269 . S
O1188 Co1180 2.074 . S
O1188 C1213 1.257 . S
H1189 C1214 0.930 . S
H1190 C1220 0.930 . S
O1191 Co1180 2.093 . S
O1191 C1183 1.224 . S
H1192 C1224 0.929 . S
H1193 C1226 0.930 . S
H1194 C1227 0.930 . S
H1195 C1225 0.929 . S
H1196 C1228 0.928 . S
O1197 Co1181 2.057 . S
O1197 C1185 1.232 . S
H1198 C1217 0.929 . S
H1199 C1218 0.929 . S
H1200 C1230 0.931 . S
H1201 C1222 0.929 . S
H1202 C1231 0.930 . S
H1203 C1223 0.931 . S
O1204 Co1180 2.097 . S
O1204 C1232 1.214 . S
H1205 C1233 0.929 . S
H1206 C1234 0.929 . S
H1207 C1235 0.930 . S
H1208 C1236 0.929 . S
H1209 C1238 0.930 . S
H1210 C1215 0.930 . S
H1211 C1219 0.930 . S
O1212 Co1181 2.037 . S
O1212 C1232 1.234 . S
C1213 O1187 1.269 . S
C1213 O1188 1.257 . S
C1214 H1189 0.930 . S
C1214 C1217 1.388 . S
C1214 C1219 1.418 . S
C1215 H1210 0.930 . S
C1215 C1218 1.404 . S
C1215 C1219 1.353 . S
N1216 Co1181 2.145 . S
N1216 C1217 1.397 . S
N1216 C1218 1.334 . S
C1217 H1198 0.929 . S
C1217 C1214 1.388 . S
C1217 N1216 1.397 . S
C1218 H1199 0.929 . S
C1218 C1215 1.404 . S
C1218 N1216 1.334 . S
C1219 H1211 0.930 . S
C1219 C1214 1.418 . S
C1219 C1215 1.353 . S
C1220 H1190 0.930 . S
C1220 N1221 1.330 . S
C1220 C1222 1.446 . S
N1221 Co1180 2.151 . S
N1221 C1220 1.330 . S
N1221 C1225 1.418 . S
C1222 H1201 0.929 . S
C1222 C1220 1.446 . S
C1222 C1223 1.332 . S
C1223 H1203 0.931 . S
C1223 C1222 1.332 . S
C1223 C1224 1.267 . S
C1224 H1192 0.929 . S
C1224 C1223 1.267 . S
C1224 C1225 1.251 . S
C1225 H1195 0.929 . S
C1225 N1221 1.418 . S
C1225 C1224 1.251 . S
C1226 H1193 0.930 . S
C1226 C1228 1.406 . S
C1226 C1231 1.261 . S
C1227 H1194 0.930 . S
C1227 N1229 1.325 . S
C1227 C1230 1.357 . S
C1228 H1196 0.928 . S
C1228 C1226 1.406 . S
C1228 N1229 1.261 . S
N1229 Co1180 2.214 . S
N1229 C1227 1.325 . S
N1229 C1228 1.261 . S
C1230 H1200 0.931 . S
C1230 C1227 1.357 . S
C1230 C1231 1.312 . S
C1231 H1202 0.930 . S
C1231 C1226 1.261 . S
C1231 C1230 1.312 . S
C1232 O1204 1.214 . S
C1232 O1212 1.234 . S
C1233 H1205 0.929 . S
C1233 C1236 1.391 . S
C1233 C1238 1.391 . S
C1234 H1206 0.929 . S
C1234 C1235 1.390 . S
C1234 N1237 1.391 . S
C1235 H1207 0.930 . S
C1235 C1234 1.390 . S
C1235 C1236 1.392 . S
C1236 H1208 0.929 . S
C1236 C1233 1.391 . S
C1236 C1235 1.392 . S
N1237 Co1181 2.257 . S
N1237 C1234 1.391 . S
N1237 C1238 1.388 . S
C1238 H1209 0.930 . S
C1238 C1233 1.391 . S
C1238 N1237 1.388 . S
Co1239 O1241 2.143 . S
Co1239 O1247 2.074 . S
Co1239 O1250 2.093 . S
Co1239 O1263 2.097 . S
Co1239 N1280 2.151 . S
Co1239 N1288 2.214 . S
Co1240 O1241 2.160 . S
Co1240 O1246 2.058 . S
Co1240 O1256 2.057 . S
Co1240 O1271 2.037 . S
Co1240 N1275 2.145 . S
Co1240 N1296 2.257 . S
O1241 Co1239 2.143 . S
O1241 Co1240 2.160 . S
C1242 O1243 1.278 . S
C1242 O1250 1.224 . S
O1243 C1242 1.278 . S
C1244 O1245 1.245 . S
C1244 O1256 1.232 . S
O1245 C1244 1.245 . S
O1246 Co1240 2.058 . S
O1246 C1272 1.269 . S
O1247 Co1239 2.074 . S
O1247 C1272 1.257 . S
H1248 C1273 0.930 . S
H1249 C1279 0.930 . S
O1250 Co1239 2.093 . S
O1250 C1242 1.224 . S
H1251 C1283 0.929 . S
H1252 C1285 0.930 . S
H1253 C1286 0.930 . S
H1254 C1284 0.929 . S
H1255 C1287 0.928 . S
O1256 Co1240 2.057 . S
O1256 C1244 1.232 . S
H1257 C1276 0.929 . S
H1258 C1277 0.929 . S
H1259 C1289 0.931 . S
H1260 C1281 0.929 . S
H1261 C1290 0.930 . S
H1262 C1282 0.931 . S
O1263 Co1239 2.097 . S
O1263 C1291 1.214 . S
H1264 C1292 0.929 . S
H1265 C1293 0.929 . S
H1266 C1294 0.930 . S
H1267 C1295 0.929 . S
H1268 C1297 0.930 . S
H1269 C1274 0.930 . S
H1270 C1278 0.930 . S
O1271 Co1240 2.037 . S
O1271 C1291 1.234 . S
C1272 O1246 1.269 . S
C1272 O1247 1.257 . S
C1273 H1248 0.930 . S
C1273 C1276 1.388 . S
C1273 C1278 1.418 . S
C1274 H1269 0.930 . S
C1274 C1277 1.404 . S
C1274 C1278 1.353 . S
N1275 Co1240 2.145 . S
N1275 C1276 1.397 . S
N1275 C1277 1.334 . S
C1276 H1257 0.929 . S
C1276 C1273 1.388 . S
C1276 N1275 1.397 . S
C1277 H1258 0.929 . S
C1277 C1274 1.404 . S
C1277 N1275 1.334 . S
C1278 H1270 0.930 . S
C1278 C1273 1.418 . S
C1278 C1274 1.353 . S
C1279 H1249 0.930 . S
C1279 N1280 1.330 . S
C1279 C1281 1.446 . S
N1280 Co1239 2.151 . S
N1280 C1279 1.330 . S
N1280 C1284 1.418 . S
C1281 H1260 0.929 . S
C1281 C1279 1.446 . S
C1281 C1282 1.332 . S
C1282 H1262 0.931 . S
C1282 C1281 1.332 . S
C1282 C1283 1.267 . S
C1283 H1251 0.929 . S
C1283 C1282 1.267 . S
C1283 C1284 1.251 . S
C1284 H1254 0.929 . S
C1284 N1280 1.418 . S
C1284 C1283 1.251 . S
C1285 H1252 0.930 . S
C1285 C1287 1.406 . S
C1285 C1290 1.261 . S
C1286 H1253 0.930 . S
C1286 N1288 1.325 . S
C1286 C1289 1.357 . S
C1287 H1255 0.928 . S
C1287 C1285 1.406 . S
C1287 N1288 1.261 . S
N1288 Co1239 2.214 . S
N1288 C1286 1.325 . S
N1288 C1287 1.261 . S
C1289 H1259 0.931 . S
C1289 C1286 1.357 . S
C1289 C1290 1.312 . S
C1290 H1261 0.930 . S
C1290 C1285 1.261 . S
C1290 C1289 1.312 . S
C1291 O1263 1.214 . S
C1291 O1271 1.234 . S
C1292 H1264 0.929 . S
C1292 C1295 1.391 . S
C1292 C1297 1.391 . S
C1293 H1265 0.929 . S
C1293 C1294 1.390 . S
C1293 N1296 1.391 . S
C1294 H1266 0.930 . S
C1294 C1293 1.390 . S
C1294 C1295 1.392 . S
C1295 H1267 0.929 . S
C1295 C1292 1.391 . S
C1295 C1294 1.392 . S
N1296 Co1240 2.257 . S
N1296 C1293 1.391 . S
N1296 C1297 1.388 . S
C1297 H1268 0.930 . S
C1297 C1292 1.391 . S
C1297 N1296 1.388 . S
Co1298 O1300 2.143 . S
Co1298 O1306 2.074 . S
Co1298 O1309 2.093 . S
Co1298 O1322 2.097 . S
Co1298 N1339 2.151 . S
Co1298 N1347 2.214 . S
Co1299 O1300 2.160 . S
Co1299 O1305 2.058 . S
Co1299 O1315 2.057 . S
Co1299 O1330 2.037 . S
Co1299 N1334 2.145 . S
Co1299 N1355 2.257 . S
O1300 Co1298 2.143 . S
O1300 Co1299 2.160 . S
C1301 O1302 1.278 . S
C1301 O1309 1.224 . S
O1302 C1301 1.278 . S
C1303 O1304 1.245 . S
C1303 O1315 1.232 . S
O1304 C1303 1.245 . S
O1305 Co1299 2.058 . S
O1305 C1331 1.269 . S
O1306 Co1298 2.074 . S
O1306 C1331 1.257 . S
H1307 C1332 0.930 . S
H1308 C1338 0.930 . S
O1309 Co1298 2.093 . S
O1309 C1301 1.224 . S
H1310 C1342 0.929 . S
H1311 C1344 0.930 . S
H1312 C1345 0.930 . S
H1313 C1343 0.929 . S
H1314 C1346 0.928 . S
O1315 Co1299 2.057 . S
O1315 C1303 1.232 . S
H1316 C1335 0.929 . S
H1317 C1336 0.929 . S
H1318 C1348 0.931 . S
H1319 C1340 0.929 . S
H1320 C1349 0.930 . S
H1321 C1341 0.931 . S
O1322 Co1298 2.097 . S
O1322 C1350 1.214 . S
H1323 C1351 0.929 . S
H1324 C1352 0.929 . S
H1325 C1353 0.930 . S
H1326 C1354 0.929 . S
H1327 C1356 0.930 . S
H1328 C1333 0.930 . S
H1329 C1337 0.930 . S
O1330 Co1299 2.037 . S
O1330 C1350 1.234 . S
C1331 O1305 1.269 . S
C1331 O1306 1.257 . S
C1332 H1307 0.930 . S
C1332 C1335 1.388 . S
C1332 C1337 1.418 . S
C1333 H1328 0.930 . S
C1333 C1336 1.404 . S
C1333 C1337 1.353 . S
N1334 Co1299 2.145 . S
N1334 C1335 1.397 . S
N1334 C1336 1.334 . S
C1335 H1316 0.929 . S
C1335 C1332 1.388 . S
C1335 N1334 1.397 . S
C1336 H1317 0.929 . S
C1336 C1333 1.404 . S
C1336 N1334 1.334 . S
C1337 H1329 0.930 . S
C1337 C1332 1.418 . S
C1337 C1333 1.353 . S
C1338 H1308 0.930 . S
C1338 N1339 1.330 . S
C1338 C1340 1.446 . S
N1339 Co1298 2.151 . S
N1339 C1338 1.330 . S
N1339 C1343 1.418 . S
C1340 H1319 0.929 . S
C1340 C1338 1.446 . S
C1340 C1341 1.332 . S
C1341 H1321 0.931 . S
C1341 C1340 1.332 . S
C1341 C1342 1.267 . S
C1342 H1310 0.929 . S
C1342 C1341 1.267 . S
C1342 C1343 1.251 . S
C1343 H1313 0.929 . S
C1343 N1339 1.418 . S
C1343 C1342 1.251 . S
C1344 H1311 0.930 . S
C1344 C1346 1.406 . S
C1344 C1349 1.261 . S
C1345 H1312 0.930 . S
C1345 N1347 1.325 . S
C1345 C1348 1.357 . S
C1346 H1314 0.928 . S
C1346 C1344 1.406 . S
C1346 N1347 1.261 . S
N1347 Co1298 2.214 . S
N1347 C1345 1.325 . S
N1347 C1346 1.261 . S
C1348 H1318 0.931 . S
C1348 C1345 1.357 . S
C1348 C1349 1.312 . S
C1349 H1320 0.930 . S
C1349 C1344 1.261 . S
C1349 C1348 1.312 . S
C1350 O1322 1.214 . S
C1350 O1330 1.234 . S
C1351 H1323 0.929 . S
C1351 C1354 1.391 . S
C1351 C1356 1.391 . S
C1352 H1324 0.929 . S
C1352 C1353 1.390 . S
C1352 N1355 1.391 . S
C1353 H1325 0.930 . S
C1353 C1352 1.390 . S
C1353 C1354 1.392 . S
C1354 H1326 0.929 . S
C1354 C1351 1.391 . S
C1354 C1353 1.392 . S
N1355 Co1299 2.257 . S
N1355 C1352 1.391 . S
N1355 C1356 1.388 . S
C1356 H1327 0.930 . S
C1356 C1351 1.391 . S
C1356 N1355 1.388 . S
Co1357 O1359 2.143 . S
Co1357 O1365 2.074 . S
Co1357 O1368 2.093 . S
Co1357 O1381 2.097 . S
Co1357 N1398 2.151 . S
Co1357 N1406 2.214 . S
Co1358 O1359 2.160 . S
Co1358 O1364 2.058 . S
Co1358 O1374 2.057 . S
Co1358 O1389 2.037 . S
Co1358 N1393 2.145 . S
Co1358 N1414 2.257 . S
O1359 Co1357 2.143 . S
O1359 Co1358 2.160 . S
C1360 O1361 1.278 . S
C1360 O1368 1.224 . S
O1361 C1360 1.278 . S
C1362 O1363 1.245 . S
C1362 O1374 1.232 . S
O1363 C1362 1.245 . S
O1364 Co1358 2.058 . S
O1364 C1390 1.269 . S
O1365 Co1357 2.074 . S
O1365 C1390 1.257 . S
H1366 C1391 0.930 . S
H1367 C1397 0.930 . S
O1368 Co1357 2.093 . S
O1368 C1360 1.224 . S
H1369 C1401 0.929 . S
H1370 C1403 0.930 . S
H1371 C1404 0.930 . S
H1372 C1402 0.929 . S
H1373 C1405 0.928 . S
O1374 Co1358 2.057 . S
O1374 C1362 1.232 . S
H1375 C1394 0.929 . S
H1376 C1395 0.929 . S
H1377 C1407 0.931 . S
H1378 C1399 0.929 . S
H1379 C1408 0.930 . S
H1380 C1400 0.931 . S
O1381 Co1357 2.097 . S
O1381 C1409 1.214 . S
H1382 C1410 0.929 . S
H1383 C1411 0.929 . S
H1384 C1412 0.930 . S
H1385 C1413 0.929 . S
H1386 C1415 0.930 . S
H1387 C1392 0.930 . S
H1388 C1396 0.930 . S
O1389 Co1358 2.037 . S
O1389 C1409 1.234 . S
C1390 O1364 1.269 . S
C1390 O1365 1.257 . S
C1391 H1366 0.930 . S
C1391 C1394 1.388 . S
C1391 C1396 1.418 . S
C1392 H1387 0.930 . S
C1392 C1395 1.404 . S
C1392 C1396 1.353 . S
N1393 Co1358 2.145 . S
N1393 C1394 1.397 . S
N1393 C1395 1.334 . S
C1394 H1375 0.929 . S
C1394 C1391 1.388 . S
C1394 N1393 1.397 . S
C1395 H1376 0.929 . S
C1395 C1392 1.404 . S
C1395 N1393 1.334 . S
C1396 H1388 0.930 . S
C1396 C1391 1.418 . S
C1396 C1392 1.353 . S
C1397 H1367 0.930 . S
C1397 N1398 1.330 . S
C1397 C1399 1.446 . S
N1398 Co1357 2.151 . S
N1398 C1397 1.330 . S
N1398 C1402 1.418 . S
C1399 H1378 0.929 . S
C1399 C1397 1.446 . S
C1399 C1400 1.332 . S
C1400 H1380 0.931 . S
C1400 C1399 1.332 . S
C1400 C1401 1.267 . S
C1401 H1369 0.929 . S
C1401 C1400 1.267 . S
C1401 C1402 1.251 . S
C1402 H1372 0.929 . S
C1402 N1398 1.418 . S
C1402 C1401 1.251 . S
C1403 H1370 0.930 . S
C1403 C1405 1.406 . S
C1403 C1408 1.261 . S
C1404 H1371 0.930 . S
C1404 N1406 1.325 . S
C1404 C1407 1.357 . S
C1405 H1373 0.928 . S
C1405 C1403 1.406 . S
C1405 N1406 1.261 . S
N1406 Co1357 2.214 . S
N1406 C1404 1.325 . S
N1406 C1405 1.261 . S
C1407 H1377 0.931 . S
C1407 C1404 1.357 . S
C1407 C1408 1.312 . S
C1408 H1379 0.930 . S
C1408 C1403 1.261 . S
C1408 C1407 1.312 . S
C1409 O1381 1.214 . S
C1409 O1389 1.234 . S
C1410 H1382 0.929 . S
C1410 C1413 1.391 . S
C1410 C1415 1.391 . S
C1411 H1383 0.929 . S
C1411 C1412 1.390 . S
C1411 N1414 1.391 . S
C1412 H1384 0.930 . S
C1412 C1411 1.390 . S
C1412 C1413 1.392 . S
C1413 H1385 0.929 . S
C1413 C1410 1.391 . S
C1413 C1412 1.392 . S
N1414 Co1358 2.257 . S
N1414 C1411 1.391 . S
N1414 C1415 1.388 . S
C1415 H1386 0.930 . S
C1415 C1410 1.391 . S
C1415 N1414 1.388 . S
Co1416 O1418 2.143 . S
Co1416 O1424 2.074 . S
Co1416 O1427 2.093 . S
Co1416 O1440 2.097 . S
Co1416 N1457 2.151 . S
Co1416 N1465 2.214 . S
Co1417 O1418 2.160 . S
Co1417 O1423 2.058 . S
Co1417 O1433 2.057 . S
Co1417 O1448 2.037 . S
Co1417 N1452 2.145 . S
Co1417 N1473 2.257 . S
O1418 Co1416 2.143 . S
O1418 Co1417 2.160 . S
C1419 O1420 1.278 . S
C1419 O1427 1.224 . S
O1420 C1419 1.278 . S
C1421 O1422 1.245 . S
C1421 O1433 1.232 . S
O1422 C1421 1.245 . S
O1423 Co1417 2.058 . S
O1423 C1449 1.269 . S
O1424 Co1416 2.074 . S
O1424 C1449 1.257 . S
H1425 C1450 0.930 . S
H1426 C1456 0.930 . S
O1427 Co1416 2.093 . S
O1427 C1419 1.224 . S
H1428 C1460 0.929 . S
H1429 C1462 0.930 . S
H1430 C1463 0.930 . S
H1431 C1461 0.929 . S
H1432 C1464 0.928 . S
O1433 Co1417 2.057 . S
O1433 C1421 1.232 . S
H1434 C1453 0.929 . S
H1435 C1454 0.929 . S
H1436 C1466 0.931 . S
H1437 C1458 0.929 . S
H1438 C1467 0.930 . S
H1439 C1459 0.931 . S
O1440 Co1416 2.097 . S
O1440 C1468 1.214 . S
H1441 C1469 0.929 . S
H1442 C1470 0.929 . S
H1443 C1471 0.930 . S
H1444 C1472 0.929 . S
H1445 C1474 0.930 . S
H1446 C1451 0.930 . S
H1447 C1455 0.930 . S
O1448 Co1417 2.037 . S
O1448 C1468 1.234 . S
C1449 O1423 1.269 . S
C1449 O1424 1.257 . S
C1450 H1425 0.930 . S
C1450 C1453 1.388 . S
C1450 C1455 1.418 . S
C1451 H1446 0.930 . S
C1451 C1454 1.404 . S
C1451 C1455 1.353 . S
N1452 Co1417 2.145 . S
N1452 C1453 1.397 . S
N1452 C1454 1.334 . S
C1453 H1434 0.929 . S
C1453 C1450 1.388 . S
C1453 N1452 1.397 . S
C1454 H1435 0.929 . S
C1454 C1451 1.404 . S
C1454 N1452 1.334 . S
C1455 H1447 0.930 . S
C1455 C1450 1.418 . S
C1455 C1451 1.353 . S
C1456 H1426 0.930 . S
C1456 N1457 1.330 . S
C1456 C1458 1.446 . S
N1457 Co1416 2.151 . S
N1457 C1456 1.330 . S
N1457 C1461 1.418 . S
C1458 H1437 0.929 . S
C1458 C1456 1.446 . S
C1458 C1459 1.332 . S
C1459 H1439 0.931 . S
C1459 C1458 1.332 . S
C1459 C1460 1.267 . S
C1460 H1428 0.929 . S
C1460 C1459 1.267 . S
C1460 C1461 1.251 . S
C1461 H1431 0.929 . S
C1461 N1457 1.418 . S
C1461 C1460 1.251 . S
C1462 H1429 0.930 . S
C1462 C1464 1.406 . S
C1462 C1467 1.261 . S
C1463 H1430 0.930 . S
C1463 N1465 1.325 . S
C1463 C1466 1.357 . S
C1464 H1432 0.928 . S
C1464 C1462 1.406 . S
C1464 N1465 1.261 . S
N1465 Co1416 2.214 . S
N1465 C1463 1.325 . S
N1465 C1464 1.261 . S
C1466 H1436 0.931 . S
C1466 C1463 1.357 . S
C1466 C1467 1.312 . S
C1467 H1438 0.930 . S
C1467 C1462 1.261 . S
C1467 C1466 1.312 . S
C1468 O1440 1.214 . S
C1468 O1448 1.234 . S
C1469 H1441 0.929 . S
C1469 C1472 1.391 . S
C1469 C1474 1.391 . S
C1470 H1442 0.929 . S
C1470 C1471 1.390 . S
C1470 N1473 1.391 . S
C1471 H1443 0.930 . S
C1471 C1470 1.390 . S
C1471 C1472 1.392 . S
C1472 H1444 0.929 . S
C1472 C1469 1.391 . S
C1472 C1471 1.392 . S
N1473 Co1417 2.257 . S
N1473 C1470 1.391 . S
N1473 C1474 1.388 . S
C1474 H1445 0.930 . S
C1474 C1469 1.391 . S
C1474 N1473 1.388 . S
Co1475 O1477 2.143 . S
Co1475 O1483 2.074 . S
Co1475 O1486 2.093 . S
Co1475 O1499 2.097 . S
Co1475 N1516 2.151 . S
Co1475 N1524 2.214 . S
Co1476 O1477 2.160 . S
Co1476 O1482 2.058 . S
Co1476 O1492 2.057 . S
Co1476 O1507 2.037 . S
Co1476 N1511 2.145 . S
Co1476 N1532 2.257 . S
O1477 Co1475 2.143 . S
O1477 Co1476 2.160 . S
C1478 O1479 1.278 . S
C1478 O1486 1.224 . S
O1479 C1478 1.278 . S
C1480 O1481 1.245 . S
C1480 O1492 1.232 . S
O1481 C1480 1.245 . S
O1482 Co1476 2.058 . S
O1482 C1508 1.269 . S
O1483 Co1475 2.074 . S
O1483 C1508 1.257 . S
H1484 C1509 0.930 . S
H1485 C1515 0.930 . S
O1486 Co1475 2.093 . S
O1486 C1478 1.224 . S
H1487 C1519 0.929 . S
H1488 C1521 0.930 . S
H1489 C1522 0.930 . S
H1490 C1520 0.929 . S
H1491 C1523 0.928 . S
O1492 Co1476 2.057 . S
O1492 C1480 1.232 . S
H1493 C1512 0.929 . S
H1494 C1513 0.929 . S
H1495 C1525 0.931 . S
H1496 C1517 0.929 . S
H1497 C1526 0.930 . S
H1498 C1518 0.931 . S
O1499 Co1475 2.097 . S
O1499 C1527 1.214 . S
H1500 C1528 0.929 . S
H1501 C1529 0.929 . S
H1502 C1530 0.930 . S
H1503 C1531 0.929 . S
H1504 C1533 0.930 . S
H1505 C1510 0.930 . S
H1506 C1514 0.930 . S
O1507 Co1476 2.037 . S
O1507 C1527 1.234 . S
C1508 O1482 1.269 . S
C1508 O1483 1.257 . S
C1509 H1484 0.930 . S
C1509 C1512 1.388 . S
C1509 C1514 1.418 . S
C1510 H1505 0.930 . S
C1510 C1513 1.404 . S
C1510 C1514 1.353 . S
N1511 Co1476 2.145 . S
N1511 C1512 1.397 . S
N1511 C1513 1.334 . S
C1512 H1493 0.929 . S
C1512 C1509 1.388 . S
C1512 N1511 1.397 . S
C1513 H1494 0.929 . S
C1513 C1510 1.404 . S
C1513 N1511 1.334 . S
C1514 H1506 0.930 . S
C1514 C1509 1.418 . S
C1514 C1510 1.353 . S
C1515 H1485 0.930 . S
C1515 N1516 1.330 . S
C1515 C1517 1.446 . S
N1516 Co1475 2.151 . S
N1516 C1515 1.330 . S
N1516 C1520 1.418 . S
C1517 H1496 0.929 . S
C1517 C1515 1.446 . S
C1517 C1518 1.332 . S
C1518 H1498 0.931 . S
C1518 C1517 1.332 . S
C1518 C1519 1.267 . S
C1519 H1487 0.929 . S
C1519 C1518 1.267 . S
C1519 C1520 1.251 . S
C1520 H1490 0.929 . S
C1520 N1516 1.418 . S
C1520 C1519 1.251 . S
C1521 H1488 0.930 . S
C1521 C1523 1.406 . S
C1521 C1526 1.261 . S
C1522 H1489 0.930 . S
C1522 N1524 1.325 . S
C1522 C1525 1.357 . S
C1523 H1491 0.928 . S
C1523 C1521 1.406 . S
C1523 N1524 1.261 . S
N1524 Co1475 2.214 . S
N1524 C1522 1.325 . S
N1524 C1523 1.261 . S
C1525 H1495 0.931 . S
C1525 C1522 1.357 . S
C1525 C1526 1.312 . S
C1526 H1497 0.930 . S
C1526 C1521 1.261 . S
C1526 C1525 1.312 . S
C1527 O1499 1.214 . S
C1527 O1507 1.234 . S
C1528 H1500 0.929 . S
C1528 C1531 1.391 . S
C1528 C1533 1.391 . S
C1529 H1501 0.929 . S
C1529 C1530 1.390 . S
C1529 N1532 1.391 . S
C1530 H1502 0.930 . S
C1530 C1529 1.390 . S
C1530 C1531 1.392 . S
C1531 H1503 0.929 . S
C1531 C1528 1.391 . S
C1531 C1530 1.392 . S
N1532 Co1476 2.257 . S
N1532 C1529 1.391 . S
N1532 C1533 1.388 . S
C1533 H1504 0.930 . S
C1533 C1528 1.391 . S
C1533 N1532 1.388 . S
Co1534 O1536 2.143 . S
Co1534 O1542 2.074 . S
Co1534 O1545 2.093 . S
Co1534 O1558 2.097 . S
Co1534 N1575 2.151 . S
Co1534 N1583 2.214 . S
Co1535 O1536 2.160 . S
Co1535 O1541 2.058 . S
Co1535 O1551 2.057 . S
Co1535 O1566 2.037 . S
Co1535 N1570 2.145 . S
Co1535 N1591 2.257 . S
O1536 Co1534 2.143 . S
O1536 Co1535 2.160 . S
C1537 O1538 1.278 . S
C1537 O1545 1.224 . S
O1538 C1537 1.278 . S
C1539 O1540 1.245 . S
C1539 O1551 1.232 . S
O1540 C1539 1.245 . S
O1541 Co1535 2.058 . S
O1541 C1567 1.269 . S
O1542 Co1534 2.074 . S
O1542 C1567 1.257 . S
H1543 C1568 0.930 . S
H1544 C1574 0.930 . S
O1545 Co1534 2.093 . S
O1545 C1537 1.224 . S
H1546 C1578 0.929 . S
H1547 C1580 0.930 . S
H1548 C1581 0.930 . S
H1549 C1579 0.929 . S
H1550 C1582 0.928 . S
O1551 Co1535 2.057 . S
O1551 C1539 1.232 . S
H1552 C1571 0.929 . S
H1553 C1572 0.929 . S
H1554 C1584 0.931 . S
H1555 C1576 0.929 . S
H1556 C1585 0.930 . S
H1557 C1577 0.931 . S
O1558 Co1534 2.097 . S
O1558 C1586 1.214 . S
H1559 C1587 0.929 . S
H1560 C1588 0.929 . S
H1561 C1589 0.930 . S
H1562 C1590 0.929 . S
H1563 C1592 0.930 . S
H1564 C1569 0.930 . S
H1565 C1573 0.930 . S
O1566 Co1535 2.037 . S
O1566 C1586 1.234 . S
C1567 O1541 1.269 . S
C1567 O1542 1.257 . S
C1568 H1543 0.930 . S
C1568 C1571 1.388 . S
C1568 C1573 1.418 . S
C1569 H1564 0.930 . S
C1569 C1572 1.404 . S
C1569 C1573 1.353 . S
N1570 Co1535 2.145 . S
N1570 C1571 1.397 . S
N1570 C1572 1.334 . S
C1571 H1552 0.929 . S
C1571 C1568 1.388 . S
C1571 N1570 1.397 . S
C1572 H1553 0.929 . S
C1572 C1569 1.404 . S
C1572 N1570 1.334 . S
C1573 H1565 0.930 . S
C1573 C1568 1.418 . S
C1573 C1569 1.353 . S
C1574 H1544 0.930 . S
C1574 N1575 1.330 . S
C1574 C1576 1.446 . S
N1575 Co1534 2.151 . S
N1575 C1574 1.330 . S
N1575 C1579 1.418 . S
C1576 H1555 0.929 . S
C1576 C1574 1.446 . S
C1576 C1577 1.332 . S
C1577 H1557 0.931 . S
C1577 C1576 1.332 . S
C1577 C1578 1.267 . S
C1578 H1546 0.929 . S
C1578 C1577 1.267 . S
C1578 C1579 1.251 . S
C1579 H1549 0.929 . S
C1579 N1575 1.418 . S
C1579 C1578 1.251 . S
C1580 H1547 0.930 . S
C1580 C1582 1.406 . S
C1580 C1585 1.261 . S
C1581 H1548 0.930 . S
C1581 N1583 1.325 . S
C1581 C1584 1.357 . S
C1582 H1550 0.928 . S
C1582 C1580 1.406 . S
C1582 N1583 1.261 . S
N1583 Co1534 2.214 . S
N1583 C1581 1.325 . S
N1583 C1582 1.261 . S
C1584 H1554 0.931 . S
C1584 C1581 1.357 . S
C1584 C1585 1.312 . S
C1585 H1556 0.930 . S
C1585 C1580 1.261 . S
C1585 C1584 1.312 . S
C1586 O1558 1.214 . S
C1586 O1566 1.234 . S
C1587 H1559 0.929 . S
C1587 C1590 1.391 . S
C1587 C1592 1.391 . S
C1588 H1560 0.929 . S
C1588 C1589 1.390 . S
C1588 N1591 1.391 . S
C1589 H1561 0.930 . S
C1589 C1588 1.390 . S
C1589 C1590 1.392 . S
C1590 H1562 0.929 . S
C1590 C1587 1.391 . S
C1590 C1589 1.392 . S
N1591 Co1535 2.257 . S
N1591 C1588 1.391 . S
N1591 C1592 1.388 . S
C1592 H1563 0.930 . S
C1592 C1587 1.391 . S
C1592 N1591 1.388 . S
Co1593 O1595 2.143 . S
Co1593 O1601 2.074 . S
Co1593 O1604 2.093 . S
Co1593 O1617 2.097 . S
Co1593 N1634 2.151 . S
Co1593 N1642 2.214 . S
Co1594 O1595 2.160 . S
Co1594 O1600 2.058 . S
Co1594 O1610 2.057 . S
Co1594 O1625 2.037 . S
Co1594 N1629 2.145 . S
Co1594 N1650 2.257 . S
O1595 Co1593 2.143 . S
O1595 Co1594 2.160 . S
C1596 O1597 1.278 . S
C1596 O1604 1.224 . S
O1597 C1596 1.278 . S
C1598 O1599 1.245 . S
C1598 O1610 1.232 . S
O1599 C1598 1.245 . S
O1600 Co1594 2.058 . S
O1600 C1626 1.269 . S
O1601 Co1593 2.074 . S
O1601 C1626 1.257 . S
H1602 C1627 0.930 . S
H1603 C1633 0.930 . S
O1604 Co1593 2.093 . S
O1604 C1596 1.224 . S
H1605 C1637 0.929 . S
H1606 C1639 0.930 . S
H1607 C1640 0.930 . S
H1608 C1638 0.929 . S
H1609 C1641 0.928 . S
O1610 Co1594 2.057 . S
O1610 C1598 1.232 . S
H1611 C1630 0.929 . S
H1612 C1631 0.929 . S
H1613 C1643 0.931 . S
H1614 C1635 0.929 . S
H1615 C1644 0.930 . S
H1616 C1636 0.931 . S
O1617 Co1593 2.097 . S
O1617 C1645 1.214 . S
H1618 C1646 0.929 . S
H1619 C1647 0.929 . S
H1620 C1648 0.930 . S
H1621 C1649 0.929 . S
H1622 C1651 0.930 . S
H1623 C1628 0.930 . S
H1624 C1632 0.930 . S
O1625 Co1594 2.037 . S
O1625 C1645 1.234 . S
C1626 O1600 1.269 . S
C1626 O1601 1.257 . S
C1627 H1602 0.930 . S
C1627 C1630 1.388 . S
C1627 C1632 1.418 . S
C1628 H1623 0.930 . S
C1628 C1631 1.404 . S
C1628 C1632 1.353 . S
N1629 Co1594 2.145 . S
N1629 C1630 1.397 . S
N1629 C1631 1.334 . S
C1630 H1611 0.929 . S
C1630 C1627 1.388 . S
C1630 N1629 1.397 . S
C1631 H1612 0.929 . S
C1631 C1628 1.404 . S
C1631 N1629 1.334 . S
C1632 H1624 0.930 . S
C1632 C1627 1.418 . S
C1632 C1628 1.353 . S
C1633 H1603 0.930 . S
C1633 N1634 1.330 . S
C1633 C1635 1.446 . S
N1634 Co1593 2.151 . S
N1634 C1633 1.330 . S
N1634 C1638 1.418 . S
C1635 H1614 0.929 . S
C1635 C1633 1.446 . S
C1635 C1636 1.332 . S
C1636 H1616 0.931 . S
C1636 C1635 1.332 . S
C1636 C1637 1.267 . S
C1637 H1605 0.929 . S
C1637 C1636 1.267 . S
C1637 C1638 1.251 . S
C1638 H1608 0.929 . S
C1638 N1634 1.418 . S
C1638 C1637 1.251 . S
C1639 H1606 0.930 . S
C1639 C1641 1.406 . S
C1639 C1644 1.261 . S
C1640 H1607 0.930 . S
C1640 N1642 1.325 . S
C1640 C1643 1.357 . S
C1641 H1609 0.928 . S
C1641 C1639 1.406 . S
C1641 N1642 1.261 . S
N1642 Co1593 2.214 . S
N1642 C1640 1.325 . S
N1642 C1641 1.261 . S
C1643 H1613 0.931 . S
C1643 C1640 1.357 . S
C1643 C1644 1.312 . S
C1644 H1615 0.930 . S
C1644 C1639 1.261 . S
C1644 C1643 1.312 . S
C1645 O1617 1.214 . S
C1645 O1625 1.234 . S
C1646 H1618 0.929 . S
C1646 C1649 1.391 . S
C1646 C1651 1.391 . S
C1647 H1619 0.929 . S
C1647 C1648 1.390 . S
C1647 N1650 1.391 . S
C1648 H1620 0.930 . S
C1648 C1647 1.390 . S
C1648 C1649 1.392 . S
C1649 H1621 0.929 . S
C1649 C1646 1.391 . S
C1649 C1648 1.392 . S
N1650 Co1594 2.257 . S
N1650 C1647 1.391 . S
N1650 C1651 1.388 . S
C1651 H1622 0.930 . S
C1651 C1646 1.391 . S
C1651 N1650 1.388 . S
Co1652 O1654 2.143 . S
Co1652 O1660 2.074 . S
Co1652 O1663 2.093 . S
Co1652 O1676 2.097 . S
Co1652 N1693 2.151 . S
Co1652 N1701 2.214 . S
Co1653 O1654 2.160 . S
Co1653 O1659 2.058 . S
Co1653 O1669 2.057 . S
Co1653 O1684 2.037 . S
Co1653 N1688 2.145 . S
Co1653 N1709 2.257 . S
O1654 Co1652 2.143 . S
O1654 Co1653 2.160 . S
C1655 O1656 1.278 . S
C1655 O1663 1.224 . S
O1656 C1655 1.278 . S
C1657 O1658 1.245 . S
C1657 O1669 1.232 . S
O1658 C1657 1.245 . S
O1659 Co1653 2.058 . S
O1659 C1685 1.269 . S
O1660 Co1652 2.074 . S
O1660 C1685 1.257 . S
H1661 C1686 0.930 . S
H1662 C1692 0.930 . S
O1663 Co1652 2.093 . S
O1663 C1655 1.224 . S
H1664 C1696 0.929 . S
H1665 C1698 0.930 . S
H1666 C1699 0.930 . S
H1667 C1697 0.929 . S
H1668 C1700 0.928 . S
O1669 Co1653 2.057 . S
O1669 C1657 1.232 . S
H1670 C1689 0.929 . S
H1671 C1690 0.929 . S
H1672 C1702 0.931 . S
H1673 C1694 0.929 . S
H1674 C1703 0.930 . S
H1675 C1695 0.931 . S
O1676 Co1652 2.097 . S
O1676 C1704 1.214 . S
H1677 C1705 0.929 . S
H1678 C1706 0.929 . S
H1679 C1707 0.930 . S
H1680 C1708 0.929 . S
H1681 C1710 0.930 . S
H1682 C1687 0.930 . S
H1683 C1691 0.930 . S
O1684 Co1653 2.037 . S
O1684 C1704 1.234 . S
C1685 O1659 1.269 . S
C1685 O1660 1.257 . S
C1686 H1661 0.930 . S
C1686 C1689 1.388 . S
C1686 C1691 1.418 . S
C1687 H1682 0.930 . S
C1687 C1690 1.404 . S
C1687 C1691 1.353 . S
N1688 Co1653 2.145 . S
N1688 C1689 1.397 . S
N1688 C1690 1.334 . S
C1689 H1670 0.929 . S
C1689 C1686 1.388 . S
C1689 N1688 1.397 . S
C1690 H1671 0.929 . S
C1690 C1687 1.404 . S
C1690 N1688 1.334 . S
C1691 H1683 0.930 . S
C1691 C1686 1.418 . S
C1691 C1687 1.353 . S
C1692 H1662 0.930 . S
C1692 N1693 1.330 . S
C1692 C1694 1.446 . S
N1693 Co1652 2.151 . S
N1693 C1692 1.330 . S
N1693 C1697 1.418 . S
C1694 H1673 0.929 . S
C1694 C1692 1.446 . S
C1694 C1695 1.332 . S
C1695 H1675 0.931 . S
C1695 C1694 1.332 . S
C1695 C1696 1.267 . S
C1696 H1664 0.929 . S
C1696 C1695 1.267 . S
C1696 C1697 1.251 . S
C1697 H1667 0.929 . S
C1697 N1693 1.418 . S
C1697 C1696 1.251 . S
C1698 H1665 0.930 . S
C1698 C1700 1.406 . S
C1698 C1703 1.261 . S
C1699 H1666 0.930 . S
C1699 N1701 1.325 . S
C1699 C1702 1.357 . S
C1700 H1668 0.928 . S
C1700 C1698 1.406 . S
C1700 N1701 1.261 . S
N1701 Co1652 2.214 . S
N1701 C1699 1.325 . S
N1701 C1700 1.261 . S
C1702 H1672 0.931 . S
C1702 C1699 1.357 . S
C1702 C1703 1.312 . S
C1703 H1674 0.930 . S
C1703 C1698 1.261 . S
C1703 C1702 1.312 . S
C1704 O1676 1.214 . S
C1704 O1684 1.234 . S
C1705 H1677 0.929 . S
C1705 C1708 1.391 . S
C1705 C1710 1.391 . S
C1706 H1678 0.929 . S
C1706 C1707 1.390 . S
C1706 N1709 1.391 . S
C1707 H1679 0.930 . S
C1707 C1706 1.390 . S
C1707 C1708 1.392 . S
C1708 H1680 0.929 . S
C1708 C1705 1.391 . S
C1708 C1707 1.392 . S
N1709 Co1653 2.257 . S
N1709 C1706 1.391 . S
N1709 C1710 1.388 . S
C1710 H1681 0.930 . S
C1710 C1705 1.391 . S
C1710 N1709 1.388 . S
Co1711 O1713 2.143 . S
Co1711 O1719 2.074 . S
Co1711 O1722 2.093 . S
Co1711 O1735 2.097 . S
Co1711 N1752 2.151 . S
Co1711 N1760 2.214 . S
Co1712 O1713 2.160 . S
Co1712 O1718 2.058 . S
Co1712 O1728 2.057 . S
Co1712 O1743 2.037 . S
Co1712 N1747 2.145 . S
Co1712 N1768 2.257 . S
O1713 Co1711 2.143 . S
O1713 Co1712 2.160 . S
C1714 O1715 1.278 . S
C1714 O1722 1.224 . S
O1715 C1714 1.278 . S
C1716 O1717 1.245 . S
C1716 O1728 1.232 . S
O1717 C1716 1.245 . S
O1718 Co1712 2.058 . S
O1718 C1744 1.269 . S
O1719 Co1711 2.074 . S
O1719 C1744 1.257 . S
H1720 C1745 0.930 . S
H1721 C1751 0.930 . S
O1722 Co1711 2.093 . S
O1722 C1714 1.224 . S
H1723 C1755 0.929 . S
H1724 C1757 0.930 . S
H1725 C1758 0.930 . S
H1726 C1756 0.929 . S
H1727 C1759 0.928 . S
O1728 Co1712 2.057 . S
O1728 C1716 1.232 . S
H1729 C1748 0.929 . S
H1730 C1749 0.929 . S
H1731 C1761 0.931 . S
H1732 C1753 0.929 . S
H1733 C1762 0.930 . S
H1734 C1754 0.931 . S
O1735 Co1711 2.097 . S
O1735 C1763 1.214 . S
H1736 C1764 0.929 . S
H1737 C1765 0.929 . S
H1738 C1766 0.930 . S
H1739 C1767 0.929 . S
H1740 C1769 0.930 . S
H1741 C1746 0.930 . S
H1742 C1750 0.930 . S
O1743 Co1712 2.037 . S
O1743 C1763 1.234 . S
C1744 O1718 1.269 . S
C1744 O1719 1.257 . S
C1745 H1720 0.930 . S
C1745 C1748 1.388 . S
C1745 C1750 1.418 . S
C1746 H1741 0.930 . S
C1746 C1749 1.404 . S
C1746 C1750 1.353 . S
N1747 Co1712 2.145 . S
N1747 C1748 1.397 . S
N1747 C1749 1.334 . S
C1748 H1729 0.929 . S
C1748 C1745 1.388 . S
C1748 N1747 1.397 . S
C1749 H1730 0.929 . S
C1749 C1746 1.404 . S
C1749 N1747 1.334 . S
C1750 H1742 0.930 . S
C1750 C1745 1.418 . S
C1750 C1746 1.353 . S
C1751 H1721 0.930 . S
C1751 N1752 1.330 . S
C1751 C1753 1.446 . S
N1752 Co1711 2.151 . S
N1752 C1751 1.330 . S
N1752 C1756 1.418 . S
C1753 H1732 0.929 . S
C1753 C1751 1.446 . S
C1753 C1754 1.332 . S
C1754 H1734 0.931 . S
C1754 C1753 1.332 . S
C1754 C1755 1.267 . S
C1755 H1723 0.929 . S
C1755 C1754 1.267 . S
C1755 C1756 1.251 . S
C1756 H1726 0.929 . S
C1756 N1752 1.418 . S
C1756 C1755 1.251 . S
C1757 H1724 0.930 . S
C1757 C1759 1.406 . S
C1757 C1762 1.261 . S
C1758 H1725 0.930 . S
C1758 N1760 1.325 . S
C1758 C1761 1.357 . S
C1759 H1727 0.928 . S
C1759 C1757 1.406 . S
C1759 N1760 1.261 . S
N1760 Co1711 2.214 . S
N1760 C1758 1.325 . S
N1760 C1759 1.261 . S
C1761 H1731 0.931 . S
C1761 C1758 1.357 . S
C1761 C1762 1.312 . S
C1762 H1733 0.930 . S
C1762 C1757 1.261 . S
C1762 C1761 1.312 . S
C1763 O1735 1.214 . S
C1763 O1743 1.234 . S
C1764 H1736 0.929 . S
C1764 C1767 1.391 . S
C1764 C1769 1.391 . S
C1765 H1737 0.929 . S
C1765 C1766 1.390 . S
C1765 N1768 1.391 . S
C1766 H1738 0.930 . S
C1766 C1765 1.390 . S
C1766 C1767 1.392 . S
C1767 H1739 0.929 . S
C1767 C1764 1.391 . S
C1767 C1766 1.392 . S
N1768 Co1712 2.257 . S
N1768 C1765 1.391 . S
N1768 C1769 1.388 . S
C1769 H1740 0.930 . S
C1769 C1764 1.391 . S
C1769 N1768 1.388 . S
Co1770 O1772 2.143 . S
Co1770 O1778 2.074 . S
Co1770 O1781 2.093 . S
Co1770 O1794 2.097 . S
Co1770 N1811 2.151 . S
Co1770 N1819 2.214 . S
Co1771 O1772 2.160 . S
Co1771 O1777 2.058 . S
Co1771 O1787 2.057 . S
Co1771 O1802 2.037 . S
Co1771 N1806 2.145 . S
Co1771 N1827 2.257 . S
O1772 Co1770 2.143 . S
O1772 Co1771 2.160 . S
C1773 O1774 1.278 . S
C1773 O1781 1.224 . S
O1774 C1773 1.278 . S
C1775 O1776 1.245 . S
C1775 O1787 1.232 . S
O1776 C1775 1.245 . S
O1777 Co1771 2.058 . S
O1777 C1803 1.269 . S
O1778 Co1770 2.074 . S
O1778 C1803 1.257 . S
H1779 C1804 0.930 . S
H1780 C1810 0.930 . S
O1781 Co1770 2.093 . S
O1781 C1773 1.224 . S
H1782 C1814 0.929 . S
H1783 C1816 0.930 . S
H1784 C1817 0.930 . S
H1785 C1815 0.929 . S
H1786 C1818 0.928 . S
O1787 Co1771 2.057 . S
O1787 C1775 1.232 . S
H1788 C1807 0.929 . S
H1789 C1808 0.929 . S
H1790 C1820 0.931 . S
H1791 C1812 0.929 . S
H1792 C1821 0.930 . S
H1793 C1813 0.931 . S
O1794 Co1770 2.097 . S
O1794 C1822 1.214 . S
H1795 C1823 0.929 . S
H1796 C1824 0.929 . S
H1797 C1825 0.930 . S
H1798 C1826 0.929 . S
H1799 C1828 0.930 . S
H1800 C1805 0.930 . S
H1801 C1809 0.930 . S
O1802 Co1771 2.037 . S
O1802 C1822 1.234 . S
C1803 O1777 1.269 . S
C1803 O1778 1.257 . S
C1804 H1779 0.930 . S
C1804 C1807 1.388 . S
C1804 C1809 1.418 . S
C1805 H1800 0.930 . S
C1805 C1808 1.404 . S
C1805 C1809 1.353 . S
N1806 Co1771 2.145 . S
N1806 C1807 1.397 . S
N1806 C1808 1.334 . S
C1807 H1788 0.929 . S
C1807 C1804 1.388 . S
C1807 N1806 1.397 . S
C1808 H1789 0.929 . S
C1808 C1805 1.404 . S
C1808 N1806 1.334 . S
C1809 H1801 0.930 . S
C1809 C1804 1.418 . S
C1809 C1805 1.353 . S
C1810 H1780 0.930 . S
C1810 N1811 1.330 . S
C1810 C1812 1.446 . S
N1811 Co1770 2.151 . S
N1811 C1810 1.330 . S
N1811 C1815 1.418 . S
C1812 H1791 0.929 . S
C1812 C1810 1.446 . S
C1812 C1813 1.332 . S
C1813 H1793 0.931 . S
C1813 C1812 1.332 . S
C1813 C1814 1.267 . S
C1814 H1782 0.929 . S
C1814 C1813 1.267 . S
C1814 C1815 1.251 . S
C1815 H1785 0.929 . S
C1815 N1811 1.418 . S
C1815 C1814 1.251 . S
C1816 H1783 0.930 . S
C1816 C1818 1.406 . S
C1816 C1821 1.261 . S
C1817 H1784 0.930 . S
C1817 N1819 1.325 . S
C1817 C1820 1.357 . S
C1818 H1786 0.928 . S
C1818 C1816 1.406 . S
C1818 N1819 1.261 . S
N1819 Co1770 2.214 . S
N1819 C1817 1.325 . S
N1819 C1818 1.261 . S
C1820 H1790 0.931 . S
C1820 C1817 1.357 . S
C1820 C1821 1.312 . S
C1821 H1792 0.930 . S
C1821 C1816 1.261 . S
C1821 C1820 1.312 . S
C1822 O1794 1.214 . S
C1822 O1802 1.234 . S
C1823 H1795 0.929 . S
C1823 C1826 1.391 . S
C1823 C1828 1.391 . S
C1824 H1796 0.929 . S
C1824 C1825 1.390 . S
C1824 N1827 1.391 . S
C1825 H1797 0.930 . S
C1825 C1824 1.390 . S
C1825 C1826 1.392 . S
C1826 H1798 0.929 . S
C1826 C1823 1.391 . S
C1826 C1825 1.392 . S
N1827 Co1771 2.257 . S
N1827 C1824 1.391 . S
N1827 C1828 1.388 . S
C1828 H1799 0.930 . S
C1828 C1823 1.391 . S
C1828 N1827 1.388 . S
Co1829 O1831 2.143 . S
Co1829 O1837 2.074 . S
Co1829 O1840 2.093 . S
Co1829 O1853 2.097 . S
Co1829 N1870 2.151 . S
Co1829 N1878 2.214 . S
Co1830 O1831 2.160 . S
Co1830 O1836 2.058 . S
Co1830 O1846 2.057 . S
Co1830 O1861 2.037 . S
Co1830 N1865 2.145 . S
Co1830 N1886 2.257 . S
O1831 Co1829 2.143 . S
O1831 Co1830 2.160 . S
C1832 O1833 1.278 . S
C1832 O1840 1.224 . S
O1833 C1832 1.278 . S
C1834 O1835 1.245 . S
C1834 O1846 1.232 . S
O1835 C1834 1.245 . S
O1836 Co1830 2.058 . S
O1836 C1862 1.269 . S
O1837 Co1829 2.074 . S
O1837 C1862 1.257 . S
H1838 C1863 0.930 . S
H1839 C1869 0.930 . S
O1840 Co1829 2.093 . S
O1840 C1832 1.224 . S
H1841 C1873 0.929 . S
H1842 C1875 0.930 . S
H1843 C1876 0.930 . S
H1844 C1874 0.929 . S
H1845 C1877 0.928 . S
O1846 Co1830 2.057 . S
O1846 C1834 1.232 . S
H1847 C1866 0.929 . S
H1848 C1867 0.929 . S
H1849 C1879 0.931 . S
H1850 C1871 0.929 . S
H1851 C1880 0.930 . S
H1852 C1872 0.931 . S
O1853 Co1829 2.097 . S
O1853 C1881 1.214 . S
H1854 C1882 0.929 . S
H1855 C1883 0.929 . S
H1856 C1884 0.930 . S
H1857 C1885 0.929 . S
H1858 C1887 0.930 . S
H1859 C1864 0.930 . S
H1860 C1868 0.930 . S
O1861 Co1830 2.037 . S
O1861 C1881 1.234 . S
C1862 O1836 1.269 . S
C1862 O1837 1.257 . S
C1863 H1838 0.930 . S
C1863 C1866 1.388 . S
C1863 C1868 1.418 . S
C1864 H1859 0.930 . S
C1864 C1867 1.404 . S
C1864 C1868 1.353 . S
N1865 Co1830 2.145 . S
N1865 C1866 1.397 . S
N1865 C1867 1.334 . S
C1866 H1847 0.929 . S
C1866 C1863 1.388 . S
C1866 N1865 1.397 . S
C1867 H1848 0.929 . S
C1867 C1864 1.404 . S
C1867 N1865 1.334 . S
C1868 H1860 0.930 . S
C1868 C1863 1.418 . S
C1868 C1864 1.353 . S
C1869 H1839 0.930 . S
C1869 N1870 1.330 . S
C1869 C1871 1.446 . S
N1870 Co1829 2.151 . S
N1870 C1869 1.330 . S
N1870 C1874 1.418 . S
C1871 H1850 0.929 . S
C1871 C1869 1.446 . S
C1871 C1872 1.332 . S
C1872 H1852 0.931 . S
C1872 C1871 1.332 . S
C1872 C1873 1.267 . S
C1873 H1841 0.929 . S
C1873 C1872 1.267 . S
C1873 C1874 1.251 . S
C1874 H1844 0.929 . S
C1874 N1870 1.418 . S
C1874 C1873 1.251 . S
C1875 H1842 0.930 . S
C1875 C1877 1.406 . S
C1875 C1880 1.261 . S
C1876 H1843 0.930 . S
C1876 N1878 1.325 . S
C1876 C1879 1.357 . S
C1877 H1845 0.928 . S
C1877 C1875 1.406 . S
C1877 N1878 1.261 . S
N1878 Co1829 2.214 . S
N1878 C1876 1.325 . S
N1878 C1877 1.261 . S
C1879 H1849 0.931 . S
C1879 C1876 1.357 . S
C1879 C1880 1.312 . S
C1880 H1851 0.930 . S
C1880 C1875 1.261 . S
C1880 C1879 1.312 . S
C1881 O1853 1.214 . S
C1881 O1861 1.234 . S
C1882 H1854 0.929 . S
C1882 C1885 1.391 . S
C1882 C1887 1.391 . S
C1883 H1855 0.929 . S
C1883 C1884 1.390 . S
C1883 N1886 1.391 . S
C1884 H1856 0.930 . S
C1884 C1883 1.390 . S
C1884 C1885 1.392 . S
C1885 H1857 0.929 . S
C1885 C1882 1.391 . S
C1885 C1884 1.392 . S
N1886 Co1830 2.257 . S
N1886 C1883 1.391 . S
N1886 C1887 1.388 . S
C1887 H1858 0.930 . S
C1887 C1882 1.391 . S
C1887 N1886 1.388 . S
Co1888 O1890 2.143 . S
Co1888 O1896 2.074 . S
Co1888 O1899 2.093 . S
Co1888 O1912 2.097 . S
Co1888 N1929 2.151 . S
Co1888 N1937 2.214 . S
Co1889 O1890 2.160 . S
Co1889 O1895 2.058 . S
Co1889 O1905 2.057 . S
Co1889 O1920 2.037 . S
Co1889 N1924 2.145 . S
Co1889 N1945 2.257 . S
O1890 Co1888 2.143 . S
O1890 Co1889 2.160 . S
C1891 O1892 1.278 . S
C1891 O1899 1.224 . S
O1892 C1891 1.278 . S
C1893 O1894 1.245 . S
C1893 O1905 1.232 . S
O1894 C1893 1.245 . S
O1895 Co1889 2.058 . S
O1895 C1921 1.269 . S
O1896 Co1888 2.074 . S
O1896 C1921 1.257 . S
H1897 C1922 0.930 . S
H1898 C1928 0.930 . S
O1899 Co1888 2.093 . S
O1899 C1891 1.224 . S
H1900 C1932 0.929 . S
H1901 C1934 0.930 . S
H1902 C1935 0.930 . S
H1903 C1933 0.929 . S
H1904 C1936 0.928 . S
O1905 Co1889 2.057 . S
O1905 C1893 1.232 . S
H1906 C1925 0.929 . S
H1907 C1926 0.929 . S
H1908 C1938 0.931 . S
H1909 C1930 0.929 . S
H1910 C1939 0.930 . S
H1911 C1931 0.931 . S
O1912 Co1888 2.097 . S
O1912 C1940 1.214 . S
H1913 C1941 0.929 . S
H1914 C1942 0.929 . S
H1915 C1943 0.930 . S
H1916 C1944 0.929 . S
H1917 C1946 0.930 . S
H1918 C1923 0.930 . S
H1919 C1927 0.930 . S
O1920 Co1889 2.037 . S
O1920 C1940 1.234 . S
C1921 O1895 1.269 . S
C1921 O1896 1.257 . S
C1922 H1897 0.930 . S
C1922 C1925 1.388 . S
C1922 C1927 1.418 . S
C1923 H1918 0.930 . S
C1923 C1926 1.404 . S
C1923 C1927 1.353 . S
N1924 Co1889 2.145 . S
N1924 C1925 1.397 . S
N1924 C1926 1.334 . S
C1925 H1906 0.929 . S
C1925 C1922 1.388 . S
C1925 N1924 1.397 . S
C1926 H1907 0.929 . S
C1926 C1923 1.404 . S
C1926 N1924 1.334 . S
C1927 H1919 0.930 . S
C1927 C1922 1.418 . S
C1927 C1923 1.353 . S
C1928 H1898 0.930 . S
C1928 N1929 1.330 . S
C1928 C1930 1.446 . S
N1929 Co1888 2.151 . S
N1929 C1928 1.330 . S
N1929 C1933 1.418 . S
C1930 H1909 0.929 . S
C1930 C1928 1.446 . S
C1930 C1931 1.332 . S
C1931 H1911 0.931 . S
C1931 C1930 1.332 . S
C1931 C1932 1.267 . S
C1932 H1900 0.929 . S
C1932 C1931 1.267 . S
C1932 C1933 1.251 . S
C1933 H1903 0.929 . S
C1933 N1929 1.418 . S
C1933 C1932 1.251 . S
C1934 H1901 0.930 . S
C1934 C1936 1.406 . S
C1934 C1939 1.261 . S
C1935 H1902 0.930 . S
C1935 N1937 1.325 . S
C1935 C1938 1.357 . S
C1936 H1904 0.928 . S
C1936 C1934 1.406 . S
C1936 N1937 1.261 . S
N1937 Co1888 2.214 . S
N1937 C1935 1.325 . S
N1937 C1936 1.261 . S
C1938 H1908 0.931 . S
C1938 C1935 1.357 . S
C1938 C1939 1.312 . S
C1939 H1910 0.930 . S
C1939 C1934 1.261 . S
C1939 C1938 1.312 . S
C1940 O1912 1.214 . S
C1940 O1920 1.234 . S
C1941 H1913 0.929 . S
C1941 C1944 1.391 . S
C1941 C1946 1.391 . S
C1942 H1914 0.929 . S
C1942 C1943 1.390 . S
C1942 N1945 1.391 . S
C1943 H1915 0.930 . S
C1943 C1942 1.390 . S
C1943 C1944 1.392 . S
C1944 H1916 0.929 . S
C1944 C1941 1.391 . S
C1944 C1943 1.392 . S
N1945 Co1889 2.257 . S
N1945 C1942 1.391 . S
N1945 C1946 1.388 . S
C1946 H1917 0.930 . S
C1946 C1941 1.391 . S
C1946 N1945 1.388 . S
Co1947 O1949 2.143 . S
Co1947 O1955 2.074 . S
Co1947 O1958 2.093 . S
Co1947 O1971 2.097 . S
Co1947 N1988 2.151 . S
Co1947 N1996 2.214 . S
Co1948 O1949 2.160 . S
Co1948 O1954 2.058 . S
Co1948 O1964 2.057 . S
Co1948 O1979 2.037 . S
Co1948 N1983 2.145 . S
Co1948 N2004 2.257 . S
O1949 Co1947 2.143 . S
O1949 Co1948 2.160 . S
C1950 O1951 1.278 . S
C1950 O1958 1.224 . S
O1951 C1950 1.278 . S
C1952 O1953 1.245 . S
C1952 O1964 1.232 . S
O1953 C1952 1.245 . S
O1954 Co1948 2.058 . S
O1954 C1980 1.269 . S
O1955 Co1947 2.074 . S
O1955 C1980 1.257 . S
H1956 C1981 0.930 . S
H1957 C1987 0.930 . S
O1958 Co1947 2.093 . S
O1958 C1950 1.224 . S
H1959 C1991 0.929 . S
H1960 C1993 0.930 . S
H1961 C1994 0.930 . S
H1962 C1992 0.929 . S
H1963 C1995 0.928 . S
O1964 Co1948 2.057 . S
O1964 C1952 1.232 . S
H1965 C1984 0.929 . S
H1966 C1985 0.929 . S
H1967 C1997 0.931 . S
H1968 C1989 0.929 . S
H1969 C1998 0.930 . S
H1970 C1990 0.931 . S
O1971 Co1947 2.097 . S
O1971 C1999 1.214 . S
H1972 C2000 0.929 . S
H1973 C2001 0.929 . S
H1974 C2002 0.930 . S
H1975 C2003 0.929 . S
H1976 C2005 0.930 . S
H1977 C1982 0.930 . S
H1978 C1986 0.930 . S
O1979 Co1948 2.037 . S
O1979 C1999 1.234 . S
C1980 O1954 1.269 . S
C1980 O1955 1.257 . S
C1981 H1956 0.930 . S
C1981 C1984 1.388 . S
C1981 C1986 1.418 . S
C1982 H1977 0.930 . S
C1982 C1985 1.404 . S
C1982 C1986 1.353 . S
N1983 Co1948 2.145 . S
N1983 C1984 1.397 . S
N1983 C1985 1.334 . S
C1984 H1965 0.929 . S
C1984 C1981 1.388 . S
C1984 N1983 1.397 . S
C1985 H1966 0.929 . S
C1985 C1982 1.404 . S
C1985 N1983 1.334 . S
C1986 H1978 0.930 . S
C1986 C1981 1.418 . S
C1986 C1982 1.353 . S
C1987 H1957 0.930 . S
C1987 N1988 1.330 . S
C1987 C1989 1.446 . S
N1988 Co1947 2.151 . S
N1988 C1987 1.330 . S
N1988 C1992 1.418 . S
C1989 H1968 0.929 . S
C1989 C1987 1.446 . S
C1989 C1990 1.332 . S
C1990 H1970 0.931 . S
C1990 C1989 1.332 . S
C1990 C1991 1.267 . S
C1991 H1959 0.929 . S
C1991 C1990 1.267 . S
C1991 C1992 1.251 . S
C1992 H1962 0.929 . S
C1992 N1988 1.418 . S
C1992 C1991 1.251 . S
C1993 H1960 0.930 . S
C1993 C1995 1.406 . S
C1993 C1998 1.261 . S
C1994 H1961 0.930 . S
C1994 N1996 1.325 . S
C1994 C1997 1.357 . S
C1995 H1963 0.928 . S
C1995 C1993 1.406 . S
C1995 N1996 1.261 . S
N1996 Co1947 2.214 . S
N1996 C1994 1.325 . S
N1996 C1995 1.261 . S
C1997 H1967 0.931 . S
C1997 C1994 1.357 . S
C1997 C1998 1.312 . S
C1998 H1969 0.930 . S
C1998 C1993 1.261 . S
C1998 C1997 1.312 . S
C1999 O1971 1.214 . S
C1999 O1979 1.234 . S
C2000 H1972 0.929 . S
C2000 C2003 1.391 . S
C2000 C2005 1.391 . S
C2001 H1973 0.929 . S
C2001 C2002 1.390 . S
C2001 N2004 1.391 . S
C2002 H1974 0.930 . S
C2002 C2001 1.390 . S
C2002 C2003 1.392 . S
C2003 H1975 0.929 . S
C2003 C2000 1.391 . S
C2003 C2002 1.392 . S
N2004 Co1948 2.257 . S
N2004 C2001 1.391 . S
N2004 C2005 1.388 . S
C2005 H1976 0.930 . S
C2005 C2000 1.391 . S
C2005 N2004 1.388 . S
Co2006 O2008 2.143 . S
Co2006 O2014 2.074 . S
Co2006 O2017 2.093 . S
Co2006 O2030 2.097 . S
Co2006 N2047 2.151 . S
Co2006 N2055 2.214 . S
Co2007 O2008 2.160 . S
Co2007 O2013 2.058 . S
Co2007 O2023 2.057 . S
Co2007 O2038 2.037 . S
Co2007 N2042 2.145 . S
Co2007 N2063 2.257 . S
O2008 Co2006 2.143 . S
O2008 Co2007 2.160 . S
C2009 O2010 1.278 . S
C2009 O2017 1.224 . S
O2010 C2009 1.278 . S
C2011 O2012 1.245 . S
C2011 O2023 1.232 . S
O2012 C2011 1.245 . S
O2013 Co2007 2.058 . S
O2013 C2039 1.269 . S
O2014 Co2006 2.074 . S
O2014 C2039 1.257 . S
H2015 C2040 0.930 . S
H2016 C2046 0.930 . S
O2017 Co2006 2.093 . S
O2017 C2009 1.224 . S
H2018 C2050 0.929 . S
H2019 C2052 0.930 . S
H2020 C2053 0.930 . S
H2021 C2051 0.929 . S
H2022 C2054 0.928 . S
O2023 Co2007 2.057 . S
O2023 C2011 1.232 . S
H2024 C2043 0.929 . S
H2025 C2044 0.929 . S
H2026 C2056 0.931 . S
H2027 C2048 0.929 . S
H2028 C2057 0.930 . S
H2029 C2049 0.931 . S
O2030 Co2006 2.097 . S
O2030 C2058 1.214 . S
H2031 C2059 0.929 . S
H2032 C2060 0.929 . S
H2033 C2061 0.930 . S
H2034 C2062 0.929 . S
H2035 C2064 0.930 . S
H2036 C2041 0.930 . S
H2037 C2045 0.930 . S
O2038 Co2007 2.037 . S
O2038 C2058 1.234 . S
C2039 O2013 1.269 . S
C2039 O2014 1.257 . S
C2040 H2015 0.930 . S
C2040 C2043 1.388 . S
C2040 C2045 1.418 . S
C2041 H2036 0.930 . S
C2041 C2044 1.404 . S
C2041 C2045 1.353 . S
N2042 Co2007 2.145 . S
N2042 C2043 1.397 . S
N2042 C2044 1.334 . S
C2043 H2024 0.929 . S
C2043 C2040 1.388 . S
C2043 N2042 1.397 . S
C2044 H2025 0.929 . S
C2044 C2041 1.404 . S
C2044 N2042 1.334 . S
C2045 H2037 0.930 . S
C2045 C2040 1.418 . S
C2045 C2041 1.353 . S
C2046 H2016 0.930 . S
C2046 N2047 1.330 . S
C2046 C2048 1.446 . S
N2047 Co2006 2.151 . S
N2047 C2046 1.330 . S
N2047 C2051 1.418 . S
C2048 H2027 0.929 . S
C2048 C2046 1.446 . S
C2048 C2049 1.332 . S
C2049 H2029 0.931 . S
C2049 C2048 1.332 . S
C2049 C2050 1.267 . S
C2050 H2018 0.929 . S
C2050 C2049 1.267 . S
C2050 C2051 1.251 . S
C2051 H2021 0.929 . S
C2051 N2047 1.418 . S
C2051 C2050 1.251 . S
C2052 H2019 0.930 . S
C2052 C2054 1.406 . S
C2052 C2057 1.261 . S
C2053 H2020 0.930 . S
C2053 N2055 1.325 . S
C2053 C2056 1.357 . S
C2054 H2022 0.928 . S
C2054 C2052 1.406 . S
C2054 N2055 1.261 . S
N2055 Co2006 2.214 . S
N2055 C2053 1.325 . S
N2055 C2054 1.261 . S
C2056 H2026 0.931 . S
C2056 C2053 1.357 . S
C2056 C2057 1.312 . S
C2057 H2028 0.930 . S
C2057 C2052 1.261 . S
C2057 C2056 1.312 . S
C2058 O2030 1.214 . S
C2058 O2038 1.234 . S
C2059 H2031 0.929 . S
C2059 C2062 1.391 . S
C2059 C2064 1.391 . S
C2060 H2032 0.929 . S
C2060 C2061 1.390 . S
C2060 N2063 1.391 . S
C2061 H2033 0.930 . S
C2061 C2060 1.390 . S
C2061 C2062 1.392 . S
C2062 H2034 0.929 . S
C2062 C2059 1.391 . S
C2062 C2061 1.392 . S
N2063 Co2007 2.257 . S
N2063 C2060 1.391 . S
N2063 C2064 1.388 . S
C2064 H2035 0.930 . S
C2064 C2059 1.391 . S
C2064 N2063 1.388 . S
Co2065 O2067 2.143 . S
Co2065 O2073 2.074 . S
Co2065 O2076 2.093 . S
Co2065 O2089 2.097 . S
Co2065 N2106 2.151 . S
Co2065 N2114 2.214 . S
Co2066 O2067 2.160 . S
Co2066 O2072 2.058 . S
Co2066 O2082 2.057 . S
Co2066 O2097 2.037 . S
Co2066 N2101 2.145 . S
Co2066 N2122 2.257 . S
O2067 Co2065 2.143 . S
O2067 Co2066 2.160 . S
C2068 O2069 1.278 . S
C2068 O2076 1.224 . S
O2069 C2068 1.278 . S
C2070 O2071 1.245 . S
C2070 O2082 1.232 . S
O2071 C2070 1.245 . S
O2072 Co2066 2.058 . S
O2072 C2098 1.269 . S
O2073 Co2065 2.074 . S
O2073 C2098 1.257 . S
H2074 C2099 0.930 . S
H2075 C2105 0.930 . S
O2076 Co2065 2.093 . S
O2076 C2068 1.224 . S
H2077 C2109 0.929 . S
H2078 C2111 0.930 . S
H2079 C2112 0.930 . S
H2080 C2110 0.929 . S
H2081 C2113 0.928 . S
O2082 Co2066 2.057 . S
O2082 C2070 1.232 . S
H2083 C2102 0.929 . S
H2084 C2103 0.929 . S
H2085 C2115 0.931 . S
H2086 C2107 0.929 . S
H2087 C2116 0.930 . S
H2088 C2108 0.931 . S
O2089 Co2065 2.097 . S
O2089 C2117 1.214 . S
H2090 C2118 0.929 . S
H2091 C2119 0.929 . S
H2092 C2120 0.930 . S
H2093 C2121 0.929 . S
H2094 C2123 0.930 . S
H2095 C2100 0.930 . S
H2096 C2104 0.930 . S
O2097 Co2066 2.037 . S
O2097 C2117 1.234 . S
C2098 O2072 1.269 . S
C2098 O2073 1.257 . S
C2099 H2074 0.930 . S
C2099 C2102 1.388 . S
C2099 C2104 1.418 . S
C2100 H2095 0.930 . S
C2100 C2103 1.404 . S
C2100 C2104 1.353 . S
N2101 Co2066 2.145 . S
N2101 C2102 1.397 . S
N2101 C2103 1.334 . S
C2102 H2083 0.929 . S
C2102 C2099 1.388 . S
C2102 N2101 1.397 . S
C2103 H2084 0.929 . S
C2103 C2100 1.404 . S
C2103 N2101 1.334 . S
C2104 H2096 0.930 . S
C2104 C2099 1.418 . S
C2104 C2100 1.353 . S
C2105 H2075 0.930 . S
C2105 N2106 1.330 . S
C2105 C2107 1.446 . S
N2106 Co2065 2.151 . S
N2106 C2105 1.330 . S
N2106 C2110 1.418 . S
C2107 H2086 0.929 . S
C2107 C2105 1.446 . S
C2107 C2108 1.332 . S
C2108 H2088 0.931 . S
C2108 C2107 1.332 . S
C2108 C2109 1.267 . S
C2109 H2077 0.929 . S
C2109 C2108 1.267 . S
C2109 C2110 1.251 . S
C2110 H2080 0.929 . S
C2110 N2106 1.418 . S
C2110 C2109 1.251 . S
C2111 H2078 0.930 . S
C2111 C2113 1.406 . S
C2111 C2116 1.261 . S
C2112 H2079 0.930 . S
C2112 N2114 1.325 . S
C2112 C2115 1.357 . S
C2113 H2081 0.928 . S
C2113 C2111 1.406 . S
C2113 N2114 1.261 . S
N2114 Co2065 2.214 . S
N2114 C2112 1.325 . S
N2114 C2113 1.261 . S
C2115 H2085 0.931 . S
C2115 C2112 1.357 . S
C2115 C2116 1.312 . S
C2116 H2087 0.930 . S
C2116 C2111 1.261 . S
C2116 C2115 1.312 . S
C2117 O2089 1.214 . S
C2117 O2097 1.234 . S
C2118 H2090 0.929 . S
C2118 C2121 1.391 . S
C2118 C2123 1.391 . S
C2119 H2091 0.929 . S
C2119 C2120 1.390 . S
C2119 N2122 1.391 . S
C2120 H2092 0.930 . S
C2120 C2119 1.390 . S
C2120 C2121 1.392 . S
C2121 H2093 0.929 . S
C2121 C2118 1.391 . S
C2121 C2120 1.392 . S
N2122 Co2066 2.257 . S
N2122 C2119 1.391 . S
N2122 C2123 1.388 . S
C2123 H2094 0.930 . S
C2123 C2118 1.391 . S
C2123 N2122 1.388 . S
Co2124 O2126 2.143 . S
Co2124 O2132 2.074 . S
Co2124 O2135 2.093 . S
Co2124 O2148 2.097 . S
Co2124 N2165 2.151 . S
Co2124 N2173 2.214 . S
Co2125 O2126 2.160 . S
Co2125 O2131 2.058 . S
Co2125 O2141 2.057 . S
Co2125 O2156 2.037 . S
Co2125 N2160 2.145 . S
Co2125 N2181 2.257 . S
O2126 Co2124 2.143 . S
O2126 Co2125 2.160 . S
C2127 O2128 1.278 . S
C2127 O2135 1.224 . S
O2128 C2127 1.278 . S
C2129 O2130 1.245 . S
C2129 O2141 1.232 . S
O2130 C2129 1.245 . S
O2131 Co2125 2.058 . S
O2131 C2157 1.269 . S
O2132 Co2124 2.074 . S
O2132 C2157 1.257 . S
H2133 C2158 0.930 . S
H2134 C2164 0.930 . S
O2135 Co2124 2.093 . S
O2135 C2127 1.224 . S
H2136 C2168 0.929 . S
H2137 C2170 0.930 . S
H2138 C2171 0.930 . S
H2139 C2169 0.929 . S
H2140 C2172 0.928 . S
O2141 Co2125 2.057 . S
O2141 C2129 1.232 . S
H2142 C2161 0.929 . S
H2143 C2162 0.929 . S
H2144 C2174 0.931 . S
H2145 C2166 0.929 . S
H2146 C2175 0.930 . S
H2147 C2167 0.931 . S
O2148 Co2124 2.097 . S
O2148 C2176 1.214 . S
H2149 C2177 0.929 . S
H2150 C2178 0.929 . S
H2151 C2179 0.930 . S
H2152 C2180 0.929 . S
H2153 C2182 0.930 . S
H2154 C2159 0.930 . S
H2155 C2163 0.930 . S
O2156 Co2125 2.037 . S
O2156 C2176 1.234 . S
C2157 O2131 1.269 . S
C2157 O2132 1.257 . S
C2158 H2133 0.930 . S
C2158 C2161 1.388 . S
C2158 C2163 1.418 . S
C2159 H2154 0.930 . S
C2159 C2162 1.404 . S
C2159 C2163 1.353 . S
N2160 Co2125 2.145 . S
N2160 C2161 1.397 . S
N2160 C2162 1.334 . S
C2161 H2142 0.929 . S
C2161 C2158 1.388 . S
C2161 N2160 1.397 . S
C2162 H2143 0.929 . S
C2162 C2159 1.404 . S
C2162 N2160 1.334 . S
C2163 H2155 0.930 . S
C2163 C2158 1.418 . S
C2163 C2159 1.353 . S
C2164 H2134 0.930 . S
C2164 N2165 1.330 . S
C2164 C2166 1.446 . S
N2165 Co2124 2.151 . S
N2165 C2164 1.330 . S
N2165 C2169 1.418 . S
C2166 H2145 0.929 . S
C2166 C2164 1.446 . S
C2166 C2167 1.332 . S
C2167 H2147 0.931 . S
C2167 C2166 1.332 . S
C2167 C2168 1.267 . S
C2168 H2136 0.929 . S
C2168 C2167 1.267 . S
C2168 C2169 1.251 . S
C2169 H2139 0.929 . S
C2169 N2165 1.418 . S
C2169 C2168 1.251 . S
C2170 H2137 0.930 . S
C2170 C2172 1.406 . S
C2170 C2175 1.261 . S
C2171 H2138 0.930 . S
C2171 N2173 1.325 . S
C2171 C2174 1.357 . S
C2172 H2140 0.928 . S
C2172 C2170 1.406 . S
C2172 N2173 1.261 . S
N2173 Co2124 2.214 . S
N2173 C2171 1.325 . S
N2173 C2172 1.261 . S
C2174 H2144 0.931 . S
C2174 C2171 1.357 . S
C2174 C2175 1.312 . S
C2175 H2146 0.930 . S
C2175 C2170 1.261 . S
C2175 C2174 1.312 . S
C2176 O2148 1.214 . S
C2176 O2156 1.234 . S
C2177 H2149 0.929 . S
C2177 C2180 1.391 . S
C2177 C2182 1.391 . S
C2178 H2150 0.929 . S
C2178 C2179 1.390 . S
C2178 N2181 1.391 . S
C2179 H2151 0.930 . S
C2179 C2178 1.390 . S
C2179 C2180 1.392 . S
C2180 H2152 0.929 . S
C2180 C2177 1.391 . S
C2180 C2179 1.392 . S
N2181 Co2125 2.257 . S
N2181 C2178 1.391 . S
N2181 C2182 1.388 . S
C2182 H2153 0.930 . S
C2182 C2177 1.391 . S
C2182 N2181 1.388 . S
Co2183 O2185 2.143 . S
Co2183 O2191 2.074 . S
Co2183 O2194 2.093 . S
Co2183 O2207 2.097 . S
Co2183 N2224 2.151 . S
Co2183 N2232 2.214 . S
Co2184 O2185 2.160 . S
Co2184 O2190 2.058 . S
Co2184 O2200 2.057 . S
Co2184 O2215 2.037 . S
Co2184 N2219 2.145 . S
Co2184 N2240 2.257 . S
O2185 Co2183 2.143 . S
O2185 Co2184 2.160 . S
C2186 O2187 1.278 . S
C2186 O2194 1.224 . S
O2187 C2186 1.278 . S
C2188 O2189 1.245 . S
C2188 O2200 1.232 . S
O2189 C2188 1.245 . S
O2190 Co2184 2.058 . S
O2190 C2216 1.269 . S
O2191 Co2183 2.074 . S
O2191 C2216 1.257 . S
H2192 C2217 0.930 . S
H2193 C2223 0.930 . S
O2194 Co2183 2.093 . S
O2194 C2186 1.224 . S
H2195 C2227 0.929 . S
H2196 C2229 0.930 . S
H2197 C2230 0.930 . S
H2198 C2228 0.929 . S
H2199 C2231 0.928 . S
O2200 Co2184 2.057 . S
O2200 C2188 1.232 . S
H2201 C2220 0.929 . S
H2202 C2221 0.929 . S
H2203 C2233 0.931 . S
H2204 C2225 0.929 . S
H2205 C2234 0.930 . S
H2206 C2226 0.931 . S
O2207 Co2183 2.097 . S
O2207 C2235 1.214 . S
H2208 C2236 0.929 . S
H2209 C2237 0.929 . S
H2210 C2238 0.930 . S
H2211 C2239 0.929 . S
H2212 C2241 0.930 . S
H2213 C2218 0.930 . S
H2214 C2222 0.930 . S
O2215 Co2184 2.037 . S
O2215 C2235 1.234 . S
C2216 O2190 1.269 . S
C2216 O2191 1.257 . S
C2217 H2192 0.930 . S
C2217 C2220 1.388 . S
C2217 C2222 1.418 . S
C2218 H2213 0.930 . S
C2218 C2221 1.404 . S
C2218 C2222 1.353 . S
N2219 Co2184 2.145 . S
N2219 C2220 1.397 . S
N2219 C2221 1.334 . S
C2220 H2201 0.929 . S
C2220 C2217 1.388 . S
C2220 N2219 1.397 . S
C2221 H2202 0.929 . S
C2221 C2218 1.404 . S
C2221 N2219 1.334 . S
C2222 H2214 0.930 . S
C2222 C2217 1.418 . S
C2222 C2218 1.353 . S
C2223 H2193 0.930 . S
C2223 N2224 1.330 . S
C2223 C2225 1.446 . S
N2224 Co2183 2.151 . S
N2224 C2223 1.330 . S
N2224 C2228 1.418 . S
C2225 H2204 0.929 . S
C2225 C2223 1.446 . S
C2225 C2226 1.332 . S
C2226 H2206 0.931 . S
C2226 C2225 1.332 . S
C2226 C2227 1.267 . S
C2227 H2195 0.929 . S
C2227 C2226 1.267 . S
C2227 C2228 1.251 . S
C2228 H2198 0.929 . S
C2228 N2224 1.418 . S
C2228 C2227 1.251 . S
C2229 H2196 0.930 . S
C2229 C2231 1.406 . S
C2229 C2234 1.261 . S
C2230 H2197 0.930 . S
C2230 N2232 1.325 . S
C2230 C2233 1.357 . S
C2231 H2199 0.928 . S
C2231 C2229 1.406 . S
C2231 N2232 1.261 . S
N2232 Co2183 2.214 . S
N2232 C2230 1.325 . S
N2232 C2231 1.261 . S
C2233 H2203 0.931 . S
C2233 C2230 1.357 . S
C2233 C2234 1.312 . S
C2234 H2205 0.930 . S
C2234 C2229 1.261 . S
C2234 C2233 1.312 . S
C2235 O2207 1.214 . S
C2235 O2215 1.234 . S
C2236 H2208 0.929 . S
C2236 C2239 1.391 . S
C2236 C2241 1.391 . S
C2237 H2209 0.929 . S
C2237 C2238 1.390 . S
C2237 N2240 1.391 . S
C2238 H2210 0.930 . S
C2238 C2237 1.390 . S
C2238 C2239 1.392 . S
C2239 H2211 0.929 . S
C2239 C2236 1.391 . S
C2239 C2238 1.392 . S
N2240 Co2184 2.257 . S
N2240 C2237 1.391 . S
N2240 C2241 1.388 . S
C2241 H2212 0.930 . S
C2241 C2236 1.391 . S
C2241 N2240 1.388 . S
Co2242 O2244 2.143 . S
Co2242 O2250 2.074 . S
Co2242 O2253 2.093 . S
Co2242 O2266 2.097 . S
Co2242 N2283 2.151 . S
Co2242 N2291 2.214 . S
Co2243 O2244 2.160 . S
Co2243 O2249 2.058 . S
Co2243 O2259 2.057 . S
Co2243 O2274 2.037 . S
Co2243 N2278 2.145 . S
Co2243 N2299 2.257 . S
O2244 Co2242 2.143 . S
O2244 Co2243 2.160 . S
C2245 O2246 1.278 . S
C2245 O2253 1.224 . S
O2246 C2245 1.278 . S
C2247 O2248 1.245 . S
C2247 O2259 1.232 . S
O2248 C2247 1.245 . S
O2249 Co2243 2.058 . S
O2249 C2275 1.269 . S
O2250 Co2242 2.074 . S
O2250 C2275 1.257 . S
H2251 C2276 0.930 . S
H2252 C2282 0.930 . S
O2253 Co2242 2.093 . S
O2253 C2245 1.224 . S
H2254 C2286 0.929 . S
H2255 C2288 0.930 . S
H2256 C2289 0.930 . S
H2257 C2287 0.929 . S
H2258 C2290 0.928 . S
O2259 Co2243 2.057 . S
O2259 C2247 1.232 . S
H2260 C2279 0.929 . S
H2261 C2280 0.929 . S
H2262 C2292 0.931 . S
H2263 C2284 0.929 . S
H2264 C2293 0.930 . S
H2265 C2285 0.931 . S
O2266 Co2242 2.097 . S
O2266 C2294 1.214 . S
H2267 C2295 0.929 . S
H2268 C2296 0.929 . S
H2269 C2297 0.930 . S
H2270 C2298 0.929 . S
H2271 C2300 0.930 . S
H2272 C2277 0.930 . S
H2273 C2281 0.930 . S
O2274 Co2243 2.037 . S
O2274 C2294 1.234 . S
C2275 O2249 1.269 . S
C2275 O2250 1.257 . S
C2276 H2251 0.930 . S
C2276 C2279 1.388 . S
C2276 C2281 1.418 . S
C2277 H2272 0.930 . S
C2277 C2280 1.404 . S
C2277 C2281 1.353 . S
N2278 Co2243 2.145 . S
N2278 C2279 1.397 . S
N2278 C2280 1.334 . S
C2279 H2260 0.929 . S
C2279 C2276 1.388 . S
C2279 N2278 1.397 . S
C2280 H2261 0.929 . S
C2280 C2277 1.404 . S
C2280 N2278 1.334 . S
C2281 H2273 0.930 . S
C2281 C2276 1.418 . S
C2281 C2277 1.353 . S
C2282 H2252 0.930 . S
C2282 N2283 1.330 . S
C2282 C2284 1.446 . S
N2283 Co2242 2.151 . S
N2283 C2282 1.330 . S
N2283 C2287 1.418 . S
C2284 H2263 0.929 . S
C2284 C2282 1.446 . S
C2284 C2285 1.332 . S
C2285 H2265 0.931 . S
C2285 C2284 1.332 . S
C2285 C2286 1.267 . S
C2286 H2254 0.929 . S
C2286 C2285 1.267 . S
C2286 C2287 1.251 . S
C2287 H2257 0.929 . S
C2287 N2283 1.418 . S
C2287 C2286 1.251 . S
C2288 H2255 0.930 . S
C2288 C2290 1.406 . S
C2288 C2293 1.261 . S
C2289 H2256 0.930 . S
C2289 N2291 1.325 . S
C2289 C2292 1.357 . S
C2290 H2258 0.928 . S
C2290 C2288 1.406 . S
C2290 N2291 1.261 . S
N2291 Co2242 2.214 . S
N2291 C2289 1.325 . S
N2291 C2290 1.261 . S
C2292 H2262 0.931 . S
C2292 C2289 1.357 . S
C2292 C2293 1.312 . S
C2293 H2264 0.930 . S
C2293 C2288 1.261 . S
C2293 C2292 1.312 . S
C2294 O2266 1.214 . S
C2294 O2274 1.234 . S
C2295 H2267 0.929 . S
C2295 C2298 1.391 . S
C2295 C2300 1.391 . S
C2296 H2268 0.929 . S
C2296 C2297 1.390 . S
C2296 N2299 1.391 . S
C2297 H2269 0.930 . S
C2297 C2296 1.390 . S
C2297 C2298 1.392 . S
C2298 H2270 0.929 . S
C2298 C2295 1.391 . S
C2298 C2297 1.392 . S
N2299 Co2243 2.257 . S
N2299 C2296 1.391 . S
N2299 C2300 1.388 . S
C2300 H2271 0.930 . S
C2300 C2295 1.391 . S
C2300 N2299 1.388 . S
Co2301 O2303 2.143 . S
Co2301 O2309 2.074 . S
Co2301 O2312 2.093 . S
Co2301 O2325 2.097 . S
Co2301 N2342 2.151 . S
Co2301 N2350 2.214 . S
Co2302 O2303 2.160 . S
Co2302 O2308 2.058 . S
Co2302 O2318 2.057 . S
Co2302 O2333 2.037 . S
Co2302 N2337 2.145 . S
Co2302 N2358 2.257 . S
O2303 Co2301 2.143 . S
O2303 Co2302 2.160 . S
C2304 O2305 1.278 . S
C2304 O2312 1.224 . S
O2305 C2304 1.278 . S
C2306 O2307 1.245 . S
C2306 O2318 1.232 . S
O2307 C2306 1.245 . S
O2308 Co2302 2.058 . S
O2308 C2334 1.269 . S
O2309 Co2301 2.074 . S
O2309 C2334 1.257 . S
H2310 C2335 0.930 . S
H2311 C2341 0.930 . S
O2312 Co2301 2.093 . S
O2312 C2304 1.224 . S
H2313 C2345 0.929 . S
H2314 C2347 0.930 . S
H2315 C2348 0.930 . S
H2316 C2346 0.929 . S
H2317 C2349 0.928 . S
O2318 Co2302 2.057 . S
O2318 C2306 1.232 . S
H2319 C2338 0.929 . S
H2320 C2339 0.929 . S
H2321 C2351 0.931 . S
H2322 C2343 0.929 . S
H2323 C2352 0.930 . S
H2324 C2344 0.931 . S
O2325 Co2301 2.097 . S
O2325 C2353 1.214 . S
H2326 C2354 0.929 . S
H2327 C2355 0.929 . S
H2328 C2356 0.930 . S
H2329 C2357 0.929 . S
H2330 C2359 0.930 . S
H2331 C2336 0.930 . S
H2332 C2340 0.930 . S
O2333 Co2302 2.037 . S
O2333 C2353 1.234 . S
C2334 O2308 1.269 . S
C2334 O2309 1.257 . S
C2335 H2310 0.930 . S
C2335 C2338 1.388 . S
C2335 C2340 1.418 . S
C2336 H2331 0.930 . S
C2336 C2339 1.404 . S
C2336 C2340 1.353 . S
N2337 Co2302 2.145 . S
N2337 C2338 1.397 . S
N2337 C2339 1.334 . S
C2338 H2319 0.929 . S
C2338 C2335 1.388 . S
C2338 N2337 1.397 . S
C2339 H2320 0.929 . S
C2339 C2336 1.404 . S
C2339 N2337 1.334 . S
C2340 H2332 0.930 . S
C2340 C2335 1.418 . S
C2340 C2336 1.353 . S
C2341 H2311 0.930 . S
C2341 N2342 1.330 . S
C2341 C2343 1.446 . S
N2342 Co2301 2.151 . S
N2342 C2341 1.330 . S
N2342 C2346 1.418 . S
C2343 H2322 0.929 . S
C2343 C2341 1.446 . S
C2343 C2344 1.332 . S
C2344 H2324 0.931 . S
C2344 C2343 1.332 . S
C2344 C2345 1.267 . S
C2345 H2313 0.929 . S
C2345 C2344 1.267 . S
C2345 C2346 1.251 . S
C2346 H2316 0.929 . S
C2346 N2342 1.418 . S
C2346 C2345 1.251 . S
C2347 H2314 0.930 . S
C2347 C2349 1.406 . S
C2347 C2352 1.261 . S
C2348 H2315 0.930 . S
C2348 N2350 1.325 . S
C2348 C2351 1.357 . S
C2349 H2317 0.928 . S
C2349 C2347 1.406 . S
C2349 N2350 1.261 . S
N2350 Co2301 2.214 . S
N2350 C2348 1.325 . S
N2350 C2349 1.261 . S
C2351 H2321 0.931 . S
C2351 C2348 1.357 . S
C2351 C2352 1.312 . S
C2352 H2323 0.930 . S
C2352 C2347 1.261 . S
C2352 C2351 1.312 . S
C2353 O2325 1.214 . S
C2353 O2333 1.234 . S
C2354 H2326 0.929 . S
C2354 C2357 1.391 . S
C2354 C2359 1.391 . S
C2355 H2327 0.929 . S
C2355 C2356 1.390 . S
C2355 N2358 1.391 . S
C2356 H2328 0.930 . S
C2356 C2355 1.390 . S
C2356 C2357 1.392 . S
C2357 H2329 0.929 . S
C2357 C2354 1.391 . S
C2357 C2356 1.392 . S
N2358 Co2302 2.257 . S
N2358 C2355 1.391 . S
N2358 C2359 1.388 . S
C2359 H2330 0.930 . S
C2359 C2354 1.391 . S
C2359 N2358 1.388 . S
Co2360 O2362 2.143 . S
Co2360 O2368 2.074 . S
Co2360 O2371 2.093 . S
Co2360 O2384 2.097 . S
Co2360 N2401 2.151 . S
Co2360 N2409 2.214 . S
Co2361 O2362 2.160 . S
Co2361 O2367 2.058 . S
Co2361 O2377 2.057 . S
Co2361 O2392 2.037 . S
Co2361 N2396 2.145 . S
Co2361 N2417 2.257 . S
O2362 Co2360 2.143 . S
O2362 Co2361 2.160 . S
C2363 O2364 1.278 . S
C2363 O2371 1.224 . S
O2364 C2363 1.278 . S
C2365 O2366 1.245 . S
C2365 O2377 1.232 . S
O2366 C2365 1.245 . S
O2367 Co2361 2.058 . S
O2367 C2393 1.269 . S
O2368 Co2360 2.074 . S
O2368 C2393 1.257 . S
H2369 C2394 0.930 . S
H2370 C2400 0.930 . S
O2371 Co2360 2.093 . S
O2371 C2363 1.224 . S
H2372 C2404 0.929 . S
H2373 C2406 0.930 . S
H2374 C2407 0.930 . S
H2375 C2405 0.929 . S
H2376 C2408 0.928 . S
O2377 Co2361 2.057 . S
O2377 C2365 1.232 . S
H2378 C2397 0.929 . S
H2379 C2398 0.929 . S
H2380 C2410 0.931 . S
H2381 C2402 0.929 . S
H2382 C2411 0.930 . S
H2383 C2403 0.931 . S
O2384 Co2360 2.097 . S
O2384 C2412 1.214 . S
H2385 C2413 0.929 . S
H2386 C2414 0.929 . S
H2387 C2415 0.930 . S
H2388 C2416 0.929 . S
H2389 C2418 0.930 . S
H2390 C2395 0.930 . S
H2391 C2399 0.930 . S
O2392 Co2361 2.037 . S
O2392 C2412 1.234 . S
C2393 O2367 1.269 . S
C2393 O2368 1.257 . S
C2394 H2369 0.930 . S
C2394 C2397 1.388 . S
C2394 C2399 1.418 . S
C2395 H2390 0.930 . S
C2395 C2398 1.404 . S
C2395 C2399 1.353 . S
N2396 Co2361 2.145 . S
N2396 C2397 1.397 . S
N2396 C2398 1.334 . S
C2397 H2378 0.929 . S
C2397 C2394 1.388 . S
C2397 N2396 1.397 . S
C2398 H2379 0.929 . S
C2398 C2395 1.404 . S
C2398 N2396 1.334 . S
C2399 H2391 0.930 . S
C2399 C2394 1.418 . S
C2399 C2395 1.353 . S
C2400 H2370 0.930 . S
C2400 N2401 1.330 . S
C2400 C2402 1.446 . S
N2401 Co2360 2.151 . S
N2401 C2400 1.330 . S
N2401 C2405 1.418 . S
C2402 H2381 0.929 . S
C2402 C2400 1.446 . S
C2402 C2403 1.332 . S
C2403 H2383 0.931 . S
C2403 C2402 1.332 . S
C2403 C2404 1.267 . S
C2404 H2372 0.929 . S
C2404 C2403 1.267 . S
C2404 C2405 1.251 . S
C2405 H2375 0.929 . S
C2405 N2401 1.418 . S
C2405 C2404 1.251 . S
C2406 H2373 0.930 . S
C2406 C2408 1.406 . S
C2406 C2411 1.261 . S
C2407 H2374 0.930 . S
C2407 N2409 1.325 . S
C2407 C2410 1.357 . S
C2408 H2376 0.928 . S
C2408 C2406 1.406 . S
C2408 N2409 1.261 . S
N2409 Co2360 2.214 . S
N2409 C2407 1.325 . S
N2409 C2408 1.261 . S
C2410 H2380 0.931 . S
C2410 C2407 1.357 . S
C2410 C2411 1.312 . S
C2411 H2382 0.930 . S
C2411 C2406 1.261 . S
C2411 C2410 1.312 . S
C2412 O2384 1.214 . S
C2412 O2392 1.234 . S
C2413 H2385 0.929 . S
C2413 C2416 1.391 . S
C2413 C2418 1.391 . S
C2414 H2386 0.929 . S
C2414 C2415 1.390 . S
C2414 N2417 1.391 . S
C2415 H2387 0.930 . S
C2415 C2414 1.390 . S
C2415 C2416 1.392 . S
C2416 H2388 0.929 . S
C2416 C2413 1.391 . S
C2416 C2415 1.392 . S
N2417 Co2361 2.257 . S
N2417 C2414 1.391 . S
N2417 C2418 1.388 . S
C2418 H2389 0.930 . S
C2418 C2413 1.391 . S
C2418 N2417 1.388 . S
Co2419 O2421 2.143 . S
Co2419 O2427 2.074 . S
Co2419 O2430 2.093 . S
Co2419 O2443 2.097 . S
Co2419 N2460 2.151 . S
Co2419 N2468 2.214 . S
Co2420 O2421 2.160 . S
Co2420 O2426 2.058 . S
Co2420 O2436 2.057 . S
Co2420 O2451 2.037 . S
Co2420 N2455 2.145 . S
Co2420 N2476 2.257 . S
O2421 Co2419 2.143 . S
O2421 Co2420 2.160 . S
C2422 O2423 1.278 . S
C2422 O2430 1.224 . S
O2423 C2422 1.278 . S
C2424 O2425 1.245 . S
C2424 O2436 1.232 . S
O2425 C2424 1.245 . S
O2426 Co2420 2.058 . S
O2426 C2452 1.269 . S
O2427 Co2419 2.074 . S
O2427 C2452 1.257 . S
H2428 C2453 0.930 . S
H2429 C2459 0.930 . S
O2430 Co2419 2.093 . S
O2430 C2422 1.224 . S
H2431 C2463 0.929 . S
H2432 C2465 0.930 . S
H2433 C2466 0.930 . S
H2434 C2464 0.929 . S
H2435 C2467 0.928 . S
O2436 Co2420 2.057 . S
O2436 C2424 1.232 . S
H2437 C2456 0.929 . S
H2438 C2457 0.929 . S
H2439 C2469 0.931 . S
H2440 C2461 0.929 . S
H2441 C2470 0.930 . S
H2442 C2462 0.931 . S
O2443 Co2419 2.097 . S
O2443 C2471 1.214 . S
H2444 C2472 0.929 . S
H2445 C2473 0.929 . S
H2446 C2474 0.930 . S
H2447 C2475 0.929 . S
H2448 C2477 0.930 . S
H2449 C2454 0.930 . S
H2450 C2458 0.930 . S
O2451 Co2420 2.037 . S
O2451 C2471 1.234 . S
C2452 O2426 1.269 . S
C2452 O2427 1.257 . S
C2453 H2428 0.930 . S
C2453 C2456 1.388 . S
C2453 C2458 1.418 . S
C2454 H2449 0.930 . S
C2454 C2457 1.404 . S
C2454 C2458 1.353 . S
N2455 Co2420 2.145 . S
N2455 C2456 1.397 . S
N2455 C2457 1.334 . S
C2456 H2437 0.929 . S
C2456 C2453 1.388 . S
C2456 N2455 1.397 . S
C2457 H2438 0.929 . S
C2457 C2454 1.404 . S
C2457 N2455 1.334 . S
C2458 H2450 0.930 . S
C2458 C2453 1.418 . S
C2458 C2454 1.353 . S
C2459 H2429 0.930 . S
C2459 N2460 1.330 . S
C2459 C2461 1.446 . S
N2460 Co2419 2.151 . S
N2460 C2459 1.330 . S
N2460 C2464 1.418 . S
C2461 H2440 0.929 . S
C2461 C2459 1.446 . S
C2461 C2462 1.332 . S
C2462 H2442 0.931 . S
C2462 C2461 1.332 . S
C2462 C2463 1.267 . S
C2463 H2431 0.929 . S
C2463 C2462 1.267 . S
C2463 C2464 1.251 . S
C2464 H2434 0.929 . S
C2464 N2460 1.418 . S
C2464 C2463 1.251 . S
C2465 H2432 0.930 . S
C2465 C2467 1.406 . S
C2465 C2470 1.261 . S
C2466 H2433 0.930 . S
C2466 N2468 1.325 . S
C2466 C2469 1.357 . S
C2467 H2435 0.928 . S
C2467 C2465 1.406 . S
C2467 N2468 1.261 . S
N2468 Co2419 2.214 . S
N2468 C2466 1.325 . S
N2468 C2467 1.261 . S
C2469 H2439 0.931 . S
C2469 C2466 1.357 . S
C2469 C2470 1.312 . S
C2470 H2441 0.930 . S
C2470 C2465 1.261 . S
C2470 C2469 1.312 . S
C2471 O2443 1.214 . S
C2471 O2451 1.234 . S
C2472 H2444 0.929 . S
C2472 C2475 1.391 . S
C2472 C2477 1.391 . S
C2473 H2445 0.929 . S
C2473 C2474 1.390 . S
C2473 N2476 1.391 . S
C2474 H2446 0.930 . S
C2474 C2473 1.390 . S
C2474 C2475 1.392 . S
C2475 H2447 0.929 . S
C2475 C2472 1.391 . S
C2475 C2474 1.392 . S
N2476 Co2420 2.257 . S
N2476 C2473 1.391 . S
N2476 C2477 1.388 . S
C2477 H2448 0.930 . S
C2477 C2472 1.391 . S
C2477 N2476 1.388 . S
Co2478 O2480 2.143 . S
Co2478 O2486 2.074 . S
Co2478 O2489 2.093 . S
Co2478 O2502 2.097 . S
Co2478 N2519 2.151 . S
Co2478 N2527 2.214 . S
Co2479 O2480 2.160 . S
Co2479 O2485 2.058 . S
Co2479 O2495 2.057 . S
Co2479 O2510 2.037 . S
Co2479 N2514 2.145 . S
Co2479 N2535 2.257 . S
O2480 Co2478 2.143 . S
O2480 Co2479 2.160 . S
C2481 O2482 1.278 . S
C2481 O2489 1.224 . S
O2482 C2481 1.278 . S
C2483 O2484 1.245 . S
C2483 O2495 1.232 . S
O2484 C2483 1.245 . S
O2485 Co2479 2.058 . S
O2485 C2511 1.269 . S
O2486 Co2478 2.074 . S
O2486 C2511 1.257 . S
H2487 C2512 0.930 . S
H2488 C2518 0.930 . S
O2489 Co2478 2.093 . S
O2489 C2481 1.224 . S
H2490 C2522 0.929 . S
H2491 C2524 0.930 . S
H2492 C2525 0.930 . S
H2493 C2523 0.929 . S
H2494 C2526 0.928 . S
O2495 Co2479 2.057 . S
O2495 C2483 1.232 . S
H2496 C2515 0.929 . S
H2497 C2516 0.929 . S
H2498 C2528 0.931 . S
H2499 C2520 0.929 . S
H2500 C2529 0.930 . S
H2501 C2521 0.931 . S
O2502 Co2478 2.097 . S
O2502 C2530 1.214 . S
H2503 C2531 0.929 . S
H2504 C2532 0.929 . S
H2505 C2533 0.930 . S
H2506 C2534 0.929 . S
H2507 C2536 0.930 . S
H2508 C2513 0.930 . S
H2509 C2517 0.930 . S
O2510 Co2479 2.037 . S
O2510 C2530 1.234 . S
C2511 O2485 1.269 . S
C2511 O2486 1.257 . S
C2512 H2487 0.930 . S
C2512 C2515 1.388 . S
C2512 C2517 1.418 . S
C2513 H2508 0.930 . S
C2513 C2516 1.404 . S
C2513 C2517 1.353 . S
N2514 Co2479 2.145 . S
N2514 C2515 1.397 . S
N2514 C2516 1.334 . S
C2515 H2496 0.929 . S
C2515 C2512 1.388 . S
C2515 N2514 1.397 . S
C2516 H2497 0.929 . S
C2516 C2513 1.404 . S
C2516 N2514 1.334 . S
C2517 H2509 0.930 . S
C2517 C2512 1.418 . S
C2517 C2513 1.353 . S
C2518 H2488 0.930 . S
C2518 N2519 1.330 . S
C2518 C2520 1.446 . S
N2519 Co2478 2.151 . S
N2519 C2518 1.330 . S
N2519 C2523 1.418 . S
C2520 H2499 0.929 . S
C2520 C2518 1.446 . S
C2520 C2521 1.332 . S
C2521 H2501 0.931 . S
C2521 C2520 1.332 . S
C2521 C2522 1.267 . S
C2522 H2490 0.929 . S
C2522 C2521 1.267 . S
C2522 C2523 1.251 . S
C2523 H2493 0.929 . S
C2523 N2519 1.418 . S
C2523 C2522 1.251 . S
C2524 H2491 0.930 . S
C2524 C2526 1.406 . S
C2524 C2529 1.261 . S
C2525 H2492 0.930 . S
C2525 N2527 1.325 . S
C2525 C2528 1.357 . S
C2526 H2494 0.928 . S
C2526 C2524 1.406 . S
C2526 N2527 1.261 . S
N2527 Co2478 2.214 . S
N2527 C2525 1.325 . S
N2527 C2526 1.261 . S
C2528 H2498 0.931 . S
C2528 C2525 1.357 . S
C2528 C2529 1.312 . S
C2529 H2500 0.930 . S
C2529 C2524 1.261 . S
C2529 C2528 1.312 . S
C2530 O2502 1.214 . S
C2530 O2510 1.234 . S
C2531 H2503 0.929 . S
C2531 C2534 1.391 . S
C2531 C2536 1.391 . S
C2532 H2504 0.929 . S
C2532 C2533 1.390 . S
C2532 N2535 1.391 . S
C2533 H2505 0.930 . S
C2533 C2532 1.390 . S
C2533 C2534 1.392 . S
C2534 H2506 0.929 . S
C2534 C2531 1.391 . S
C2534 C2533 1.392 . S
N2535 Co2479 2.257 . S
N2535 C2532 1.391 . S
N2535 C2536 1.388 . S
C2536 H2507 0.930 . S
C2536 C2531 1.391 . S
C2536 N2535 1.388 . S
Co2537 O2539 2.143 . S
Co2537 O2545 2.074 . S
Co2537 O2548 2.093 . S
Co2537 O2561 2.097 . S
Co2537 N2578 2.151 . S
Co2537 N2586 2.214 . S
Co2538 O2539 2.160 . S
Co2538 O2544 2.058 . S
Co2538 O2554 2.057 . S
Co2538 O2569 2.037 . S
Co2538 N2573 2.145 . S
Co2538 N2594 2.257 . S
O2539 Co2537 2.143 . S
O2539 Co2538 2.160 . S
C2540 O2541 1.278 . S
C2540 O2548 1.224 . S
O2541 C2540 1.278 . S
C2542 O2543 1.245 . S
C2542 O2554 1.232 . S
O2543 C2542 1.245 . S
O2544 Co2538 2.058 . S
O2544 C2570 1.269 . S
O2545 Co2537 2.074 . S
O2545 C2570 1.257 . S
H2546 C2571 0.930 . S
H2547 C2577 0.930 . S
O2548 Co2537 2.093 . S
O2548 C2540 1.224 . S
H2549 C2581 0.929 . S
H2550 C2583 0.930 . S
H2551 C2584 0.930 . S
H2552 C2582 0.929 . S
H2553 C2585 0.928 . S
O2554 Co2538 2.057 . S
O2554 C2542 1.232 . S
H2555 C2574 0.929 . S
H2556 C2575 0.929 . S
H2557 C2587 0.931 . S
H2558 C2579 0.929 . S
H2559 C2588 0.930 . S
H2560 C2580 0.931 . S
O2561 Co2537 2.097 . S
O2561 C2589 1.214 . S
H2562 C2590 0.929 . S
H2563 C2591 0.929 . S
H2564 C2592 0.930 . S
H2565 C2593 0.929 . S
H2566 C2595 0.930 . S
H2567 C2572 0.930 . S
H2568 C2576 0.930 . S
O2569 Co2538 2.037 . S
O2569 C2589 1.234 . S
C2570 O2544 1.269 . S
C2570 O2545 1.257 . S
C2571 H2546 0.930 . S
C2571 C2574 1.388 . S
C2571 C2576 1.418 . S
C2572 H2567 0.930 . S
C2572 C2575 1.404 . S
C2572 C2576 1.353 . S
N2573 Co2538 2.145 . S
N2573 C2574 1.397 . S
N2573 C2575 1.334 . S
C2574 H2555 0.929 . S
C2574 C2571 1.388 . S
C2574 N2573 1.397 . S
C2575 H2556 0.929 . S
C2575 C2572 1.404 . S
C2575 N2573 1.334 . S
C2576 H2568 0.930 . S
C2576 C2571 1.418 . S
C2576 C2572 1.353 . S
C2577 H2547 0.930 . S
C2577 N2578 1.330 . S
C2577 C2579 1.446 . S
N2578 Co2537 2.151 . S
N2578 C2577 1.330 . S
N2578 C2582 1.418 . S
C2579 H2558 0.929 . S
C2579 C2577 1.446 . S
C2579 C2580 1.332 . S
C2580 H2560 0.931 . S
C2580 C2579 1.332 . S
C2580 C2581 1.267 . S
C2581 H2549 0.929 . S
C2581 C2580 1.267 . S
C2581 C2582 1.251 . S
C2582 H2552 0.929 . S
C2582 N2578 1.418 . S
C2582 C2581 1.251 . S
C2583 H2550 0.930 . S
C2583 C2585 1.406 . S
C2583 C2588 1.261 . S
C2584 H2551 0.930 . S
C2584 N2586 1.325 . S
C2584 C2587 1.357 . S
C2585 H2553 0.928 . S
C2585 C2583 1.406 . S
C2585 N2586 1.261 . S
N2586 Co2537 2.214 . S
N2586 C2584 1.325 . S
N2586 C2585 1.261 . S
C2587 H2557 0.931 . S
C2587 C2584 1.357 . S
C2587 C2588 1.312 . S
C2588 H2559 0.930 . S
C2588 C2583 1.261 . S
C2588 C2587 1.312 . S
C2589 O2561 1.214 . S
C2589 O2569 1.234 . S
C2590 H2562 0.929 . S
C2590 C2593 1.391 . S
C2590 C2595 1.391 . S
C2591 H2563 0.929 . S
C2591 C2592 1.390 . S
C2591 N2594 1.391 . S
C2592 H2564 0.930 . S
C2592 C2591 1.390 . S
C2592 C2593 1.392 . S
C2593 H2565 0.929 . S
C2593 C2590 1.391 . S
C2593 C2592 1.392 . S
N2594 Co2538 2.257 . S
N2594 C2591 1.391 . S
N2594 C2595 1.388 . S
C2595 H2566 0.930 . S
C2595 C2590 1.391 . S
C2595 N2594 1.388 . S
Co2596 O2598 2.143 . S
Co2596 O2604 2.074 . S
Co2596 O2607 2.093 . S
Co2596 O2620 2.097 . S
Co2596 N2637 2.151 . S
Co2596 N2645 2.214 . S
Co2597 O2598 2.160 . S
Co2597 O2603 2.058 . S
Co2597 O2613 2.057 . S
Co2597 O2628 2.037 . S
Co2597 N2632 2.145 . S
Co2597 N2653 2.257 . S
O2598 Co2596 2.143 . S
O2598 Co2597 2.160 . S
C2599 O2600 1.278 . S
C2599 O2607 1.224 . S
O2600 C2599 1.278 . S
C2601 O2602 1.245 . S
C2601 O2613 1.232 . S
O2602 C2601 1.245 . S
O2603 Co2597 2.058 . S
O2603 C2629 1.269 . S
O2604 Co2596 2.074 . S
O2604 C2629 1.257 . S
H2605 C2630 0.930 . S
H2606 C2636 0.930 . S
O2607 Co2596 2.093 . S
O2607 C2599 1.224 . S
H2608 C2640 0.929 . S
H2609 C2642 0.930 . S
H2610 C2643 0.930 . S
H2611 C2641 0.929 . S
H2612 C2644 0.928 . S
O2613 Co2597 2.057 . S
O2613 C2601 1.232 . S
H2614 C2633 0.929 . S
H2615 C2634 0.929 . S
H2616 C2646 0.931 . S
H2617 C2638 0.929 . S
H2618 C2647 0.930 . S
H2619 C2639 0.931 . S
O2620 Co2596 2.097 . S
O2620 C2648 1.214 . S
H2621 C2649 0.929 . S
H2622 C2650 0.929 . S
H2623 C2651 0.930 . S
H2624 C2652 0.929 . S
H2625 C2654 0.930 . S
H2626 C2631 0.930 . S
H2627 C2635 0.930 . S
O2628 Co2597 2.037 . S
O2628 C2648 1.234 . S
C2629 O2603 1.269 . S
C2629 O2604 1.257 . S
C2630 H2605 0.930 . S
C2630 C2633 1.388 . S
C2630 C2635 1.418 . S
C2631 H2626 0.930 . S
C2631 C2634 1.404 . S
C2631 C2635 1.353 . S
N2632 Co2597 2.145 . S
N2632 C2633 1.397 . S
N2632 C2634 1.334 . S
C2633 H2614 0.929 . S
C2633 C2630 1.388 . S
C2633 N2632 1.397 . S
C2634 H2615 0.929 . S
C2634 C2631 1.404 . S
C2634 N2632 1.334 . S
C2635 H2627 0.930 . S
C2635 C2630 1.418 . S
C2635 C2631 1.353 . S
C2636 H2606 0.930 . S
C2636 N2637 1.330 . S
C2636 C2638 1.446 . S
N2637 Co2596 2.151 . S
N2637 C2636 1.330 . S
N2637 C2641 1.418 . S
C2638 H2617 0.929 . S
C2638 C2636 1.446 . S
C2638 C2639 1.332 . S
C2639 H2619 0.931 . S
C2639 C2638 1.332 . S
C2639 C2640 1.267 . S
C2640 H2608 0.929 . S
C2640 C2639 1.267 . S
C2640 C2641 1.251 . S
C2641 H2611 0.929 . S
C2641 N2637 1.418 . S
C2641 C2640 1.251 . S
C2642 H2609 0.930 . S
C2642 C2644 1.406 . S
C2642 C2647 1.261 . S
C2643 H2610 0.930 . S
C2643 N2645 1.325 . S
C2643 C2646 1.357 . S
C2644 H2612 0.928 . S
C2644 C2642 1.406 . S
C2644 N2645 1.261 . S
N2645 Co2596 2.214 . S
N2645 C2643 1.325 . S
N2645 C2644 1.261 . S
C2646 H2616 0.931 . S
C2646 C2643 1.357 . S
C2646 C2647 1.312 . S
C2647 H2618 0.930 . S
C2647 C2642 1.261 . S
C2647 C2646 1.312 . S
C2648 O2620 1.214 . S
C2648 O2628 1.234 . S
C2649 H2621 0.929 . S
C2649 C2652 1.391 . S
C2649 C2654 1.391 . S
C2650 H2622 0.929 . S
C2650 C2651 1.390 . S
C2650 N2653 1.391 . S
C2651 H2623 0.930 . S
C2651 C2650 1.390 . S
C2651 C2652 1.392 . S
C2652 H2624 0.929 . S
C2652 C2649 1.391 . S
C2652 C2651 1.392 . S
N2653 Co2597 2.257 . S
N2653 C2650 1.391 . S
N2653 C2654 1.388 . S
C2654 H2625 0.930 . S
C2654 C2649 1.391 . S
C2654 N2653 1.388 . S
Co2655 O2657 2.143 . S
Co2655 O2663 2.074 . S
Co2655 O2666 2.093 . S
Co2655 O2679 2.097 . S
Co2655 N2696 2.151 . S
Co2655 N2704 2.214 . S
Co2656 O2657 2.160 . S
Co2656 O2662 2.058 . S
Co2656 O2672 2.057 . S
Co2656 O2687 2.037 . S
Co2656 N2691 2.145 . S
Co2656 N2712 2.257 . S
O2657 Co2655 2.143 . S
O2657 Co2656 2.160 . S
C2658 O2659 1.278 . S
C2658 O2666 1.224 . S
O2659 C2658 1.278 . S
C2660 O2661 1.245 . S
C2660 O2672 1.232 . S
O2661 C2660 1.245 . S
O2662 Co2656 2.058 . S
O2662 C2688 1.269 . S
O2663 Co2655 2.074 . S
O2663 C2688 1.257 . S
H2664 C2689 0.930 . S
H2665 C2695 0.930 . S
O2666 Co2655 2.093 . S
O2666 C2658 1.224 . S
H2667 C2699 0.929 . S
H2668 C2701 0.930 . S
H2669 C2702 0.930 . S
H2670 C2700 0.929 . S
H2671 C2703 0.928 . S
O2672 Co2656 2.057 . S
O2672 C2660 1.232 . S
H2673 C2692 0.929 . S
H2674 C2693 0.929 . S
H2675 C2705 0.931 . S
H2676 C2697 0.929 . S
H2677 C2706 0.930 . S
H2678 C2698 0.931 . S
O2679 Co2655 2.097 . S
O2679 C2707 1.214 . S
H2680 C2708 0.929 . S
H2681 C2709 0.929 . S
H2682 C2710 0.930 . S
H2683 C2711 0.929 . S
H2684 C2713 0.930 . S
H2685 C2690 0.930 . S
H2686 C2694 0.930 . S
O2687 Co2656 2.037 . S
O2687 C2707 1.234 . S
C2688 O2662 1.269 . S
C2688 O2663 1.257 . S
C2689 H2664 0.930 . S
C2689 C2692 1.388 . S
C2689 C2694 1.418 . S
C2690 H2685 0.930 . S
C2690 C2693 1.404 . S
C2690 C2694 1.353 . S
N2691 Co2656 2.145 . S
N2691 C2692 1.397 . S
N2691 C2693 1.334 . S
C2692 H2673 0.929 . S
C2692 C2689 1.388 . S
C2692 N2691 1.397 . S
C2693 H2674 0.929 . S
C2693 C2690 1.404 . S
C2693 N2691 1.334 . S
C2694 H2686 0.930 . S
C2694 C2689 1.418 . S
C2694 C2690 1.353 . S
C2695 H2665 0.930 . S
C2695 N2696 1.330 . S
C2695 C2697 1.446 . S
N2696 Co2655 2.151 . S
N2696 C2695 1.330 . S
N2696 C2700 1.418 . S
C2697 H2676 0.929 . S
C2697 C2695 1.446 . S
C2697 C2698 1.332 . S
C2698 H2678 0.931 . S
C2698 C2697 1.332 . S
C2698 C2699 1.267 . S
C2699 H2667 0.929 . S
C2699 C2698 1.267 . S
C2699 C2700 1.251 . S
C2700 H2670 0.929 . S
C2700 N2696 1.418 . S
C2700 C2699 1.251 . S
C2701 H2668 0.930 . S
C2701 C2703 1.406 . S
C2701 C2706 1.261 . S
C2702 H2669 0.930 . S
C2702 N2704 1.325 . S
C2702 C2705 1.357 . S
C2703 H2671 0.928 . S
C2703 C2701 1.406 . S
C2703 N2704 1.261 . S
N2704 Co2655 2.214 . S
N2704 C2702 1.325 . S
N2704 C2703 1.261 . S
C2705 H2675 0.931 . S
C2705 C2702 1.357 . S
C2705 C2706 1.312 . S
C2706 H2677 0.930 . S
C2706 C2701 1.261 . S
C2706 C2705 1.312 . S
C2707 O2679 1.214 . S
C2707 O2687 1.234 . S
C2708 H2680 0.929 . S
C2708 C2711 1.391 . S
C2708 C2713 1.391 . S
C2709 H2681 0.929 . S
C2709 C2710 1.390 . S
C2709 N2712 1.391 . S
C2710 H2682 0.930 . S
C2710 C2709 1.390 . S
C2710 C2711 1.392 . S
C2711 H2683 0.929 . S
C2711 C2708 1.391 . S
C2711 C2710 1.392 . S
N2712 Co2656 2.257 . S
N2712 C2709 1.391 . S
N2712 C2713 1.388 . S
C2713 H2684 0.930 . S
C2713 C2708 1.391 . S
C2713 N2712 1.388 . S
Co2714 O2716 2.143 . S
Co2714 O2722 2.074 . S
Co2714 O2725 2.093 . S
Co2714 O2738 2.097 . S
Co2714 N2755 2.151 . S
Co2714 N2763 2.214 . S
Co2715 O2716 2.160 . S
Co2715 O2721 2.058 . S
Co2715 O2731 2.057 . S
Co2715 O2746 2.037 . S
Co2715 N2750 2.145 . S
Co2715 N2771 2.257 . S
O2716 Co2714 2.143 . S
O2716 Co2715 2.160 . S
C2717 O2718 1.278 . S
C2717 O2725 1.224 . S
O2718 C2717 1.278 . S
C2719 O2720 1.245 . S
C2719 O2731 1.232 . S
O2720 C2719 1.245 . S
O2721 Co2715 2.058 . S
O2721 C2747 1.269 . S
O2722 Co2714 2.074 . S
O2722 C2747 1.257 . S
H2723 C2748 0.930 . S
H2724 C2754 0.930 . S
O2725 Co2714 2.093 . S
O2725 C2717 1.224 . S
H2726 C2758 0.929 . S
H2727 C2760 0.930 . S
H2728 C2761 0.930 . S
H2729 C2759 0.929 . S
H2730 C2762 0.928 . S
O2731 Co2715 2.057 . S
O2731 C2719 1.232 . S
H2732 C2751 0.929 . S
H2733 C2752 0.929 . S
H2734 C2764 0.931 . S
H2735 C2756 0.929 . S
H2736 C2765 0.930 . S
H2737 C2757 0.931 . S
O2738 Co2714 2.097 . S
O2738 C2766 1.214 . S
H2739 C2767 0.929 . S
H2740 C2768 0.929 . S
H2741 C2769 0.930 . S
H2742 C2770 0.929 . S
H2743 C2772 0.930 . S
H2744 C2749 0.930 . S
H2745 C2753 0.930 . S
O2746 Co2715 2.037 . S
O2746 C2766 1.234 . S
C2747 O2721 1.269 . S
C2747 O2722 1.257 . S
C2748 H2723 0.930 . S
C2748 C2751 1.388 . S
C2748 C2753 1.418 . S
C2749 H2744 0.930 . S
C2749 C2752 1.404 . S
C2749 C2753 1.353 . S
N2750 Co2715 2.145 . S
N2750 C2751 1.397 . S
N2750 C2752 1.334 . S
C2751 H2732 0.929 . S
C2751 C2748 1.388 . S
C2751 N2750 1.397 . S
C2752 H2733 0.929 . S
C2752 C2749 1.404 . S
C2752 N2750 1.334 . S
C2753 H2745 0.930 . S
C2753 C2748 1.418 . S
C2753 C2749 1.353 . S
C2754 H2724 0.930 . S
C2754 N2755 1.330 . S
C2754 C2756 1.446 . S
N2755 Co2714 2.151 . S
N2755 C2754 1.330 . S
N2755 C2759 1.418 . S
C2756 H2735 0.929 . S
C2756 C2754 1.446 . S
C2756 C2757 1.332 . S
C2757 H2737 0.931 . S
C2757 C2756 1.332 . S
C2757 C2758 1.267 . S
C2758 H2726 0.929 . S
C2758 C2757 1.267 . S
C2758 C2759 1.251 . S
C2759 H2729 0.929 . S
C2759 N2755 1.418 . S
C2759 C2758 1.251 . S
C2760 H2727 0.930 . S
C2760 C2762 1.406 . S
C2760 C2765 1.261 . S
C2761 H2728 0.930 . S
C2761 N2763 1.325 . S
C2761 C2764 1.357 . S
C2762 H2730 0.928 . S
C2762 C2760 1.406 . S
C2762 N2763 1.261 . S
N2763 Co2714 2.214 . S
N2763 C2761 1.325 . S
N2763 C2762 1.261 . S
C2764 H2734 0.931 . S
C2764 C2761 1.357 . S
C2764 C2765 1.312 . S
C2765 H2736 0.930 . S
C2765 C2760 1.261 . S
C2765 C2764 1.312 . S
C2766 O2738 1.214 . S
C2766 O2746 1.234 . S
C2767 H2739 0.929 . S
C2767 C2770 1.391 . S
C2767 C2772 1.391 . S
C2768 H2740 0.929 . S
C2768 C2769 1.390 . S
C2768 N2771 1.391 . S
C2769 H2741 0.930 . S
C2769 C2768 1.390 . S
C2769 C2770 1.392 . S
C2770 H2742 0.929 . S
C2770 C2767 1.391 . S
C2770 C2769 1.392 . S
N2771 Co2715 2.257 . S
N2771 C2768 1.391 . S
N2771 C2772 1.388 . S
C2772 H2743 0.930 . S
C2772 C2767 1.391 . S
C2772 N2771 1.388 . S
Co2773 O2775 2.143 . S
Co2773 O2781 2.074 . S
Co2773 O2784 2.093 . S
Co2773 O2797 2.097 . S
Co2773 N2814 2.151 . S
Co2773 N2822 2.214 . S
Co2774 O2775 2.160 . S
Co2774 O2780 2.058 . S
Co2774 O2790 2.057 . S
Co2774 O2805 2.037 . S
Co2774 N2809 2.145 . S
Co2774 N2830 2.257 . S
O2775 Co2773 2.143 . S
O2775 Co2774 2.160 . S
C2776 O2777 1.278 . S
C2776 O2784 1.224 . S
O2777 C2776 1.278 . S
C2778 O2779 1.245 . S
C2778 O2790 1.232 . S
O2779 C2778 1.245 . S
O2780 Co2774 2.058 . S
O2780 C2806 1.269 . S
O2781 Co2773 2.074 . S
O2781 C2806 1.257 . S
H2782 C2807 0.930 . S
H2783 C2813 0.930 . S
O2784 Co2773 2.093 . S
O2784 C2776 1.224 . S
H2785 C2817 0.929 . S
H2786 C2819 0.930 . S
H2787 C2820 0.930 . S
H2788 C2818 0.929 . S
H2789 C2821 0.928 . S
O2790 Co2774 2.057 . S
O2790 C2778 1.232 . S
H2791 C2810 0.929 . S
H2792 C2811 0.929 . S
H2793 C2823 0.931 . S
H2794 C2815 0.929 . S
H2795 C2824 0.930 . S
H2796 C2816 0.931 . S
O2797 Co2773 2.097 . S
O2797 C2825 1.214 . S
H2798 C2826 0.929 . S
H2799 C2827 0.929 . S
H2800 C2828 0.930 . S
H2801 C2829 0.929 . S
H2802 C2831 0.930 . S
H2803 C2808 0.930 . S
H2804 C2812 0.930 . S
O2805 Co2774 2.037 . S
O2805 C2825 1.234 . S
C2806 O2780 1.269 . S
C2806 O2781 1.257 . S
C2807 H2782 0.930 . S
C2807 C2810 1.388 . S
C2807 C2812 1.418 . S
C2808 H2803 0.930 . S
C2808 C2811 1.404 . S
C2808 C2812 1.353 . S
N2809 Co2774 2.145 . S
N2809 C2810 1.397 . S
N2809 C2811 1.334 . S
C2810 H2791 0.929 . S
C2810 C2807 1.388 . S
C2810 N2809 1.397 . S
C2811 H2792 0.929 . S
C2811 C2808 1.404 . S
C2811 N2809 1.334 . S
C2812 H2804 0.930 . S
C2812 C2807 1.418 . S
C2812 C2808 1.353 . S
C2813 H2783 0.930 . S
C2813 N2814 1.330 . S
C2813 C2815 1.446 . S
N2814 Co2773 2.151 . S
N2814 C2813 1.330 . S
N2814 C2818 1.418 . S
C2815 H2794 0.929 . S
C2815 C2813 1.446 . S
C2815 C2816 1.332 . S
C2816 H2796 0.931 . S
C2816 C2815 1.332 . S
C2816 C2817 1.267 . S
C2817 H2785 0.929 . S
C2817 C2816 1.267 . S
C2817 C2818 1.251 . S
C2818 H2788 0.929 . S
C2818 N2814 1.418 . S
C2818 C2817 1.251 . S
C2819 H2786 0.930 . S
C2819 C2821 1.406 . S
C2819 C2824 1.261 . S
C2820 H2787 0.930 . S
C2820 N2822 1.325 . S
C2820 C2823 1.357 . S
C2821 H2789 0.928 . S
C2821 C2819 1.406 . S
C2821 N2822 1.261 . S
N2822 Co2773 2.214 . S
N2822 C2820 1.325 . S
N2822 C2821 1.261 . S
C2823 H2793 0.931 . S
C2823 C2820 1.357 . S
C2823 C2824 1.312 . S
C2824 H2795 0.930 . S
C2824 C2819 1.261 . S
C2824 C2823 1.312 . S
C2825 O2797 1.214 . S
C2825 O2805 1.234 . S
C2826 H2798 0.929 . S
C2826 C2829 1.391 . S
C2826 C2831 1.391 . S
C2827 H2799 0.929 . S
C2827 C2828 1.390 . S
C2827 N2830 1.391 . S
C2828 H2800 0.930 . S
C2828 C2827 1.390 . S
C2828 C2829 1.392 . S
C2829 H2801 0.929 . S
C2829 C2826 1.391 . S
C2829 C2828 1.392 . S
N2830 Co2774 2.257 . S
N2830 C2827 1.391 . S
N2830 C2831 1.388 . S
C2831 H2802 0.930 . S
C2831 C2826 1.391 . S
C2831 N2830 1.388 . S
C2832 C2833 1.349 . S
C2832 C2834 1.327 . S
C2832 H2857 0.950 . S
C2833 C2832 1.349 . S
C2833 C2849 1.349 . S
C2834 C2832 1.327 . S
C2834 C2853 1.429 . S
C2834 H2858 0.950 . S
C2835 C2852 1.574 . S
C2835 C2854 1.368 . S
C2835 H2859 0.949 . S
H2836 C2840 0.949 . S
C2837 C2838 1.349 . S
C2837 C2839 1.327 . S
C2837 H2860 0.950 . S
C2838 C2837 1.349 . S
C2838 C2850 1.349 . S
C2839 C2837 1.327 . S
C2839 C2855 1.429 . S
C2839 H2861 0.950 . S
C2840 H2836 0.949 . S
C2840 C2848 1.574 . S
C2840 C2856 1.368 . S
H2841 C2849 0.950 . S
H2842 C2847 0.950 . S
H2843 C2848 0.949 . S
H2844 C2850 0.950 . S
H2845 C2851 0.950 . S
H2846 C2852 0.949 . S
C2847 H2842 0.950 . S
C2847 C2849 1.327 . S
C2847 C2853 1.429 . S
C2848 C2840 1.574 . S
C2848 H2843 0.949 . S
C2848 C2854 1.368 . S
C2849 C2833 1.349 . S
C2849 H2841 0.950 . S
C2849 C2847 1.327 . S
C2850 C2838 1.349 . S
C2850 H2844 0.950 . S
C2850 C2851 1.327 . S
C2851 H2845 0.950 . S
C2851 C2850 1.327 . S
C2851 C2855 1.429 . S
C2852 C2835 1.574 . S
C2852 H2846 0.949 . S
C2852 C2856 1.368 . S
C2853 C2834 1.429 . S
C2853 C2847 1.429 . S
C2853 C2854 1.523 . S
C2854 C2835 1.368 . S
C2854 C2848 1.368 . S
C2854 C2853 1.523 . S
C2855 C2839 1.429 . S
C2855 C2851 1.429 . S
C2855 C2856 1.523 . S
C2856 C2840 1.368 . S
C2856 C2852 1.368 . S
C2856 C2855 1.523 . S
H2857 C2832 0.950 . S
H2858 C2834 0.950 . S
H2859 C2835 0.949 . S
H2860 C2837 0.950 . S
H2861 C2839 0.950 . S
C2862 C2863 1.349 . S
C2862 C2864 1.327 . S
C2862 H2887 0.950 . S
C2863 C2862 1.349 . S
C2863 C2879 1.349 . S
C2864 C2862 1.327 . S
C2864 C2883 1.429 . S
C2864 H2888 0.950 . S
C2865 C2882 1.574 . S
C2865 C2884 1.368 . S
C2865 H2889 0.949 . S
H2866 C2870 0.949 . S
C2867 C2868 1.349 . S
C2867 C2869 1.327 . S
C2867 H2890 0.950 . S
C2868 C2867 1.349 . S
C2868 C2880 1.349 . S
C2869 C2867 1.327 . S
C2869 C2885 1.429 . S
C2869 H2891 0.950 . S
C2870 H2866 0.949 . S
C2870 C2878 1.574 . S
C2870 C2886 1.368 . S
H2871 C2879 0.950 . S
H2872 C2877 0.950 . S
H2873 C2878 0.949 . S
H2874 C2880 0.950 . S
H2875 C2881 0.950 . S
H2876 C2882 0.949 . S
C2877 H2872 0.950 . S
C2877 C2879 1.327 . S
C2877 C2883 1.429 . S
C2878 C2870 1.574 . S
C2878 H2873 0.949 . S
C2878 C2884 1.368 . S
C2879 C2863 1.349 . S
C2879 H2871 0.950 . S
C2879 C2877 1.327 . S
C2880 C2868 1.349 . S
C2880 H2874 0.950 . S
C2880 C2881 1.327 . S
C2881 H2875 0.950 . S
C2881 C2880 1.327 . S
C2881 C2885 1.429 . S
C2882 C2865 1.574 . S
C2882 H2876 0.949 . S
C2882 C2886 1.368 . S
C2883 C2864 1.429 . S
C2883 C2877 1.429 . S
C2883 C2884 1.523 . S
C2884 C2865 1.368 . S
C2884 C2878 1.368 . S
C2884 C2883 1.523 . S
C2885 C2869 1.429 . S
C2885 C2881 1.429 . S
C2885 C2886 1.523 . S
C2886 C2870 1.368 . S
C2886 C2882 1.368 . S
C2886 C2885 1.523 . S
H2887 C2862 0.950 . S
H2888 C2864 0.950 . S
H2889 C2865 0.949 . S
H2890 C2867 0.950 . S
H2891 C2869 0.950 . S
C2892 C2893 1.349 . S
C2892 C2894 1.327 . S
C2892 H2917 0.950 . S
C2893 C2892 1.349 . S
C2893 C2909 1.349 . S
C2894 C2892 1.327 . S
C2894 C2913 1.429 . S
C2894 H2918 0.950 . S
C2895 C2912 1.574 . S
C2895 C2914 1.368 . S
C2895 H2919 0.949 . S
H2896 C2900 0.949 . S
C2897 C2898 1.349 . S
C2897 C2899 1.327 . S
C2897 H2920 0.950 . S
C2898 C2897 1.349 . S
C2898 C2910 1.349 . S
C2899 C2897 1.327 . S
C2899 C2915 1.429 . S
C2899 H2921 0.950 . S
C2900 H2896 0.949 . S
C2900 C2908 1.574 . S
C2900 C2916 1.368 . S
H2901 C2909 0.950 . S
H2902 C2907 0.950 . S
H2903 C2908 0.949 . S
H2904 C2910 0.950 . S
H2905 C2911 0.950 . S
H2906 C2912 0.949 . S
C2907 H2902 0.950 . S
C2907 C2909 1.327 . S
C2907 C2913 1.429 . S
C2908 C2900 1.574 . S
C2908 H2903 0.949 . S
C2908 C2914 1.368 . S
C2909 C2893 1.349 . S
C2909 H2901 0.950 . S
C2909 C2907 1.327 . S
C2910 C2898 1.349 . S
C2910 H2904 0.950 . S
C2910 C2911 1.327 . S
C2911 H2905 0.950 . S
C2911 C2910 1.327 . S
C2911 C2915 1.429 . S
C2912 C2895 1.574 . S
C2912 H2906 0.949 . S
C2912 C2916 1.368 . S
C2913 C2894 1.429 . S
C2913 C2907 1.429 . S
C2913 C2914 1.523 . S
C2914 C2895 1.368 . S
C2914 C2908 1.368 . S
C2914 C2913 1.523 . S
C2915 C2899 1.429 . S
C2915 C2911 1.429 . S
C2915 C2916 1.523 . S
C2916 C2900 1.368 . S
C2916 C2912 1.368 . S
C2916 C2915 1.523 . S
H2917 C2892 0.950 . S
H2918 C2894 0.950 . S
H2919 C2895 0.949 . S
H2920 C2897 0.950 . S
H2921 C2899 0.950 . S
C2922 C2923 1.349 . S
C2922 C2924 1.327 . S
C2922 H2947 0.950 . S
C2923 C2922 1.349 . S
C2923 C2939 1.349 . S
C2924 C2922 1.327 . S
C2924 C2943 1.429 . S
C2924 H2948 0.950 . S
C2925 C2942 1.574 . S
C2925 C2944 1.368 . S
C2925 H2949 0.949 . S
H2926 C2930 0.949 . S
C2927 C2928 1.349 . S
C2927 C2929 1.327 . S
C2927 H2950 0.950 . S
C2928 C2927 1.349 . S
C2928 C2940 1.349 . S
C2929 C2927 1.327 . S
C2929 C2945 1.429 . S
C2929 H2951 0.950 . S
C2930 H2926 0.949 . S
C2930 C2938 1.574 . S
C2930 C2946 1.368 . S
H2931 C2939 0.950 . S
H2932 C2937 0.950 . S
H2933 C2938 0.949 . S
H2934 C2940 0.950 . S
H2935 C2941 0.950 . S
H2936 C2942 0.949 . S
C2937 H2932 0.950 . S
C2937 C2939 1.327 . S
C2937 C2943 1.429 . S
C2938 C2930 1.574 . S
C2938 H2933 0.949 . S
C2938 C2944 1.368 . S
C2939 C2923 1.349 . S
C2939 H2931 0.950 . S
C2939 C2937 1.327 . S
C2940 C2928 1.349 . S
C2940 H2934 0.950 . S
C2940 C2941 1.327 . S
C2941 H2935 0.950 . S
C2941 C2940 1.327 . S
C2941 C2945 1.429 . S
C2942 C2925 1.574 . S
C2942 H2936 0.949 . S
C2942 C2946 1.368 . S
C2943 C2924 1.429 . S
C2943 C2937 1.429 . S
C2943 C2944 1.523 . S
C2944 C2925 1.368 . S
C2944 C2938 1.368 . S
C2944 C2943 1.523 . S
C2945 C2929 1.429 . S
C2945 C2941 1.429 . S
C2945 C2946 1.523 . S
C2946 C2930 1.368 . S
C2946 C2942 1.368 . S
C2946 C2945 1.523 . S
H2947 C2922 0.950 . S
H2948 C2924 0.950 . S
H2949 C2925 0.949 . S
H2950 C2927 0.950 . S
H2951 C2929 0.950 . S
C2952 C2953 1.349 . S
C2952 C2954 1.327 . S
C2952 H2977 0.950 . S
C2953 C2952 1.349 . S
C2953 C2969 1.349 . S
C2954 C2952 1.327 . S
C2954 C2973 1.429 . S
C2954 H2978 0.950 . S
C2955 C2972 1.574 . S
C2955 C2974 1.368 . S
C2955 H2979 0.949 . S
H2956 C2960 0.949 . S
C2957 C2958 1.349 . S
C2957 C2959 1.327 . S
C2957 H2980 0.950 . S
C2958 C2957 1.349 . S
C2958 C2970 1.349 . S
C2959 C2957 1.327 . S
C2959 C2975 1.429 . S
C2959 H2981 0.950 . S
C2960 H2956 0.949 . S
C2960 C2968 1.574 . S
C2960 C2976 1.368 . S
H2961 C2969 0.950 . S
H2962 C2967 0.950 . S
H2963 C2968 0.949 . S
H2964 C2970 0.950 . S
H2965 C2971 0.950 . S
H2966 C2972 0.949 . S
C2967 H2962 0.950 . S
C2967 C2969 1.327 . S
C2967 C2973 1.429 . S
C2968 C2960 1.574 . S
C2968 H2963 0.949 . S
C2968 C2974 1.368 . S
C2969 C2953 1.349 . S
C2969 H2961 0.950 . S
C2969 C2967 1.327 . S
C2970 C2958 1.349 . S
C2970 H2964 0.950 . S
C2970 C2971 1.327 . S
C2971 H2965 0.950 . S
C2971 C2970 1.327 . S
C2971 C2975 1.429 . S
C2972 C2955 1.574 . S
C2972 H2966 0.949 . S
C2972 C2976 1.368 . S
C2973 C2954 1.429 . S
C2973 C2967 1.429 . S
C2973 C2974 1.523 . S
C2974 C2955 1.368 . S
C2974 C2968 1.368 . S
C2974 C2973 1.523 . S
C2975 C2959 1.429 . S
C2975 C2971 1.429 . S
C2975 C2976 1.523 . S
C2976 C2960 1.368 . S
C2976 C2972 1.368 . S
C2976 C2975 1.523 . S
H2977 C2952 0.950 . S
H2978 C2954 0.950 . S
H2979 C2955 0.949 . S
H2980 C2957 0.950 . S
H2981 C2959 0.950 . S
C2982 C2983 1.349 . S
C2982 C2984 1.327 . S
C2982 H3007 0.950 . S
C2983 C2982 1.349 . S
C2983 C2999 1.349 . S
C2984 C2982 1.327 . S
C2984 C3003 1.429 . S
C2984 H3008 0.950 . S
C2985 C3002 1.574 . S
C2985 C3004 1.368 . S
C2985 H3009 0.949 . S
H2986 C2990 0.949 . S
C2987 C2988 1.349 . S
C2987 C2989 1.327 . S
C2987 H3010 0.950 . S
C2988 C2987 1.349 . S
C2988 C3000 1.349 . S
C2989 C2987 1.327 . S
C2989 C3005 1.429 . S
C2989 H3011 0.950 . S
C2990 H2986 0.949 . S
C2990 C2998 1.574 . S
C2990 C3006 1.368 . S
H2991 C2999 0.950 . S
H2992 C2997 0.950 . S
H2993 C2998 0.949 . S
H2994 C3000 0.950 . S
H2995 C3001 0.950 . S
H2996 C3002 0.949 . S
C2997 H2992 0.950 . S
C2997 C2999 1.327 . S
C2997 C3003 1.429 . S
C2998 C2990 1.574 . S
C2998 H2993 0.949 . S
C2998 C3004 1.368 . S
C2999 C2983 1.349 . S
C2999 H2991 0.950 . S
C2999 C2997 1.327 . S
C3000 C2988 1.349 . S
C3000 H2994 0.950 . S
C3000 C3001 1.327 . S
C3001 H2995 0.950 . S
C3001 C3000 1.327 . S
C3001 C3005 1.429 . S
C3002 C2985 1.574 . S
C3002 H2996 0.949 . S
C3002 C3006 1.368 . S
C3003 C2984 1.429 . S
C3003 C2997 1.429 . S
C3003 C3004 1.523 . S
C3004 C2985 1.368 . S
C3004 C2998 1.368 . S
C3004 C3003 1.523 . S
C3005 C2989 1.429 . S
C3005 C3001 1.429 . S
C3005 C3006 1.523 . S
C3006 C2990 1.368 . S
C3006 C3002 1.368 . S
C3006 C3005 1.523 . S
H3007 C2982 0.950 . S
H3008 C2984 0.950 . S
H3009 C2985 0.949 . S
H3010 C2987 0.950 . S
H3011 C2989 0.950 . S
C3012 C3013 1.349 . S
C3012 C3014 1.327 . S
C3012 H3037 0.950 . S
C3013 C3012 1.349 . S
C3013 C3029 1.349 . S
C3014 C3012 1.327 . S
C3014 C3033 1.429 . S
C3014 H3038 0.950 . S
C3015 C3032 1.574 . S
C3015 C3034 1.368 . S
C3015 H3039 0.949 . S
H3016 C3020 0.949 . S
C3017 C3018 1.349 . S
C3017 C3019 1.327 . S
C3017 H3040 0.950 . S
C3018 C3017 1.349 . S
C3018 C3030 1.349 . S
C3019 C3017 1.327 . S
C3019 C3035 1.429 . S
C3019 H3041 0.950 . S
C3020 H3016 0.949 . S
C3020 C3028 1.574 . S
C3020 C3036 1.368 . S
H3021 C3029 0.950 . S
H3022 C3027 0.950 . S
H3023 C3028 0.949 . S
H3024 C3030 0.950 . S
H3025 C3031 0.950 . S
H3026 C3032 0.949 . S
C3027 H3022 0.950 . S
C3027 C3029 1.327 . S
C3027 C3033 1.429 . S
C3028 C3020 1.574 . S
C3028 H3023 0.949 . S
C3028 C3034 1.368 . S
C3029 C3013 1.349 . S
C3029 H3021 0.950 . S
C3029 C3027 1.327 . S
C3030 C3018 1.349 . S
C3030 H3024 0.950 . S
C3030 C3031 1.327 . S
C3031 H3025 0.950 . S
C3031 C3030 1.327 . S
C3031 C3035 1.429 . S
C3032 C3015 1.574 . S
C3032 H3026 0.949 . S
C3032 C3036 1.368 . S
C3033 C3014 1.429 . S
C3033 C3027 1.429 . S
C3033 C3034 1.523 . S
C3034 C3015 1.368 . S
C3034 C3028 1.368 . S
C3034 C3033 1.523 . S
C3035 C3019 1.429 . S
C3035 C3031 1.429 . S
C3035 C3036 1.523 . S
C3036 C3020 1.368 . S
C3036 C3032 1.368 . S
C3036 C3035 1.523 . S
H3037 C3012 0.950 . S
H3038 C3014 0.950 . S
H3039 C3015 0.949 . S
H3040 C3017 0.950 . S
H3041 C3019 0.950 . S
C3042 C3043 1.349 . S
C3042 C3044 1.327 . S
C3042 H3067 0.950 . S
C3043 C3042 1.349 . S
C3043 C3059 1.349 . S
C3044 C3042 1.327 . S
C3044 C3063 1.429 . S
C3044 H3068 0.950 . S
C3045 C3062 1.574 . S
C3045 C3064 1.368 . S
C3045 H3069 0.949 . S
H3046 C3050 0.949 . S
C3047 C3048 1.349 . S
C3047 C3049 1.327 . S
C3047 H3070 0.950 . S
C3048 C3047 1.349 . S
C3048 C3060 1.349 . S
C3049 C3047 1.327 . S
C3049 C3065 1.429 . S
C3049 H3071 0.950 . S
C3050 H3046 0.949 . S
C3050 C3058 1.574 . S
C3050 C3066 1.368 . S
H3051 C3059 0.950 . S
H3052 C3057 0.950 . S
H3053 C3058 0.949 . S
H3054 C3060 0.950 . S
H3055 C3061 0.950 . S
H3056 C3062 0.949 . S
C3057 H3052 0.950 . S
C3057 C3059 1.327 . S
C3057 C3063 1.429 . S
C3058 C3050 1.574 . S
C3058 H3053 0.949 . S
C3058 C3064 1.368 . S
C3059 C3043 1.349 . S
C3059 H3051 0.950 . S
C3059 C3057 1.327 . S
C3060 C3048 1.349 . S
C3060 H3054 0.950 . S
C3060 C3061 1.327 . S
C3061 H3055 0.950 . S
C3061 C3060 1.327 . S
C3061 C3065 1.429 . S
C3062 C3045 1.574 . S
C3062 H3056 0.949 . S
C3062 C3066 1.368 . S
C3063 C3044 1.429 . S
C3063 C3057 1.429 . S
C3063 C3064 1.523 . S
C3064 C3045 1.368 . S
C3064 C3058 1.368 . S
C3064 C3063 1.523 . S
C3065 C3049 1.429 . S
C3065 C3061 1.429 . S
C3065 C3066 1.523 . S
C3066 C3050 1.368 . S
C3066 C3062 1.368 . S
C3066 C3065 1.523 . S
H3067 C3042 0.950 . S
H3068 C3044 0.950 . S
H3069 C3045 0.949 . S
H3070 C3047 0.950 . S
H3071 C3049 0.950 . S
C3072 C3073 1.349 . S
C3072 C3074 1.327 . S
C3072 H3097 0.950 . S
C3073 C3072 1.349 . S
C3073 C3089 1.349 . S
C3074 C3072 1.327 . S
C3074 C3093 1.429 . S
C3074 H3098 0.950 . S
C3075 C3092 1.574 . S
C3075 C3094 1.368 . S
C3075 H3099 0.949 . S
H3076 C3080 0.949 . S
C3077 C3078 1.349 . S
C3077 C3079 1.327 . S
C3077 H3100 0.950 . S
C3078 C3077 1.349 . S
C3078 C3090 1.349 . S
C3079 C3077 1.327 . S
C3079 C3095 1.429 . S
C3079 H3101 0.950 . S
C3080 H3076 0.949 . S
C3080 C3088 1.574 . S
C3080 C3096 1.368 . S
H3081 C3089 0.950 . S
H3082 C3087 0.950 . S
H3083 C3088 0.949 . S
H3084 C3090 0.950 . S
H3085 C3091 0.950 . S
H3086 C3092 0.949 . S
C3087 H3082 0.950 . S
C3087 C3089 1.327 . S
C3087 C3093 1.429 . S
C3088 C3080 1.574 . S
C3088 H3083 0.949 . S
C3088 C3094 1.368 . S
C3089 C3073 1.349 . S
C3089 H3081 0.950 . S
C3089 C3087 1.327 . S
C3090 C3078 1.349 . S
C3090 H3084 0.950 . S
C3090 C3091 1.327 . S
C3091 H3085 0.950 . S
C3091 C3090 1.327 . S
C3091 C3095 1.429 . S
C3092 C3075 1.574 . S
C3092 H3086 0.949 . S
C3092 C3096 1.368 . S
C3093 C3074 1.429 . S
C3093 C3087 1.429 . S
C3093 C3094 1.523 . S
C3094 C3075 1.368 . S
C3094 C3088 1.368 . S
C3094 C3093 1.523 . S
C3095 C3079 1.429 . S
C3095 C3091 1.429 . S
C3095 C3096 1.523 . S
C3096 C3080 1.368 . S
C3096 C3092 1.368 . S
C3096 C3095 1.523 . S
H3097 C3072 0.950 . S
H3098 C3074 0.950 . S
H3099 C3075 0.949 . S
H3100 C3077 0.950 . S
H3101 C3079 0.950 . S
C3102 C3103 1.349 . S
C3102 C3104 1.327 . S
C3102 H3127 0.950 . S
C3103 C3102 1.349 . S
C3103 C3119 1.349 . S
C3104 C3102 1.327 . S
C3104 C3123 1.429 . S
C3104 H3128 0.950 . S
C3105 C3122 1.574 . S
C3105 C3124 1.368 . S
C3105 H3129 0.949 . S
H3106 C3110 0.949 . S
C3107 C3108 1.349 . S
C3107 C3109 1.327 . S
C3107 H3130 0.950 . S
C3108 C3107 1.349 . S
C3108 C3120 1.349 . S
C3109 C3107 1.327 . S
C3109 C3125 1.429 . S
C3109 H3131 0.950 . S
C3110 H3106 0.949 . S
C3110 C3118 1.574 . S
C3110 C3126 1.368 . S
H3111 C3119 0.950 . S
H3112 C3117 0.950 . S
H3113 C3118 0.949 . S
H3114 C3120 0.950 . S
H3115 C3121 0.950 . S
H3116 C3122 0.949 . S
C3117 H3112 0.950 . S
C3117 C3119 1.327 . S
C3117 C3123 1.429 . S
C3118 C3110 1.574 . S
C3118 H3113 0.949 . S
C3118 C3124 1.368 . S
C3119 C3103 1.349 . S
C3119 H3111 0.950 . S
C3119 C3117 1.327 . S
C3120 C3108 1.349 . S
C3120 H3114 0.950 . S
C3120 C3121 1.327 . S
C3121 H3115 0.950 . S
C3121 C3120 1.327 . S
C3121 C3125 1.429 . S
C3122 C3105 1.574 . S
C3122 H3116 0.949 . S
C3122 C3126 1.368 . S
C3123 C3104 1.429 . S
C3123 C3117 1.429 . S
C3123 C3124 1.523 . S
C3124 C3105 1.368 . S
C3124 C3118 1.368 . S
C3124 C3123 1.523 . S
C3125 C3109 1.429 . S
C3125 C3121 1.429 . S
C3125 C3126 1.523 . S
C3126 C3110 1.368 . S
C3126 C3122 1.368 . S
C3126 C3125 1.523 . S
H3127 C3102 0.950 . S
H3128 C3104 0.950 . S
H3129 C3105 0.949 . S
H3130 C3107 0.950 . S
H3131 C3109 0.950 . S
C3132 C3133 1.349 . S
C3132 C3134 1.327 . S
C3132 H3157 0.950 . S
C3133 C3132 1.349 . S
C3133 C3149 1.349 . S
C3134 C3132 1.327 . S
C3134 C3153 1.429 . S
C3134 H3158 0.950 . S
C3135 C3152 1.574 . S
C3135 C3154 1.368 . S
C3135 H3159 0.949 . S
H3136 C3140 0.949 . S
C3137 C3138 1.349 . S
C3137 C3139 1.327 . S
C3137 H3160 0.950 . S
C3138 C3137 1.349 . S
C3138 C3150 1.349 . S
C3139 C3137 1.327 . S
C3139 C3155 1.429 . S
C3139 H3161 0.950 . S
C3140 H3136 0.949 . S
C3140 C3148 1.574 . S
C3140 C3156 1.368 . S
H3141 C3149 0.950 . S
H3142 C3147 0.950 . S
H3143 C3148 0.949 . S
H3144 C3150 0.950 . S
H3145 C3151 0.950 . S
H3146 C3152 0.949 . S
C3147 H3142 0.950 . S
C3147 C3149 1.327 . S
C3147 C3153 1.429 . S
C3148 C3140 1.574 . S
C3148 H3143 0.949 . S
C3148 C3154 1.368 . S
C3149 C3133 1.349 . S
C3149 H3141 0.950 . S
C3149 C3147 1.327 . S
C3150 C3138 1.349 . S
C3150 H3144 0.950 . S
C3150 C3151 1.327 . S
C3151 H3145 0.950 . S
C3151 C3150 1.327 . S
C3151 C3155 1.429 . S
C3152 C3135 1.574 . S
C3152 H3146 0.949 . S
C3152 C3156 1.368 . S
C3153 C3134 1.429 . S
C3153 C3147 1.429 . S
C3153 C3154 1.523 . S
C3154 C3135 1.368 . S
C3154 C3148 1.368 . S
C3154 C3153 1.523 . S
C3155 C3139 1.429 . S
C3155 C3151 1.429 . S
C3155 C3156 1.523 . S
C3156 C3140 1.368 . S
C3156 C3152 1.368 . S
C3156 C3155 1.523 . S
H3157 C3132 0.950 . S
H3158 C3134 0.950 . S
H3159 C3135 0.949 . S
H3160 C3137 0.950 . S
H3161 C3139 0.950 . S
C3162 C3163 1.349 . S
C3162 C3164 1.327 . S
C3162 H3187 0.950 . S
C3163 C3162 1.349 . S
C3163 C3179 1.349 . S
C3164 C3162 1.327 . S
C3164 C3183 1.429 . S
C3164 H3188 0.950 . S
C3165 C3182 1.574 . S
C3165 C3184 1.368 . S
C3165 H3189 0.949 . S
H3166 C3170 0.949 . S
C3167 C3168 1.349 . S
C3167 C3169 1.327 . S
C3167 H3190 0.950 . S
C3168 C3167 1.349 . S
C3168 C3180 1.349 . S
C3169 C3167 1.327 . S
C3169 C3185 1.429 . S
C3169 H3191 0.950 . S
C3170 H3166 0.949 . S
C3170 C3178 1.574 . S
C3170 C3186 1.368 . S
H3171 C3179 0.950 . S
H3172 C3177 0.950 . S
H3173 C3178 0.949 . S
H3174 C3180 0.950 . S
H3175 C3181 0.950 . S
H3176 C3182 0.949 . S
C3177 H3172 0.950 . S
C3177 C3179 1.327 . S
C3177 C3183 1.429 . S
C3178 C3170 1.574 . S
C3178 H3173 0.949 . S
C3178 C3184 1.368 . S
C3179 C3163 1.349 . S
C3179 H3171 0.950 . S
C3179 C3177 1.327 . S
C3180 C3168 1.349 . S
C3180 H3174 0.950 . S
C3180 C3181 1.327 . S
C3181 H3175 0.950 . S
C3181 C3180 1.327 . S
C3181 C3185 1.429 . S
C3182 C3165 1.574 . S
C3182 H3176 0.949 . S
C3182 C3186 1.368 . S
C3183 C3164 1.429 . S
C3183 C3177 1.429 . S
C3183 C3184 1.523 . S
C3184 C3165 1.368 . S
C3184 C3178 1.368 . S
C3184 C3183 1.523 . S
C3185 C3169 1.429 . S
C3185 C3181 1.429 . S
C3185 C3186 1.523 . S
C3186 C3170 1.368 . S
C3186 C3182 1.368 . S
C3186 C3185 1.523 . S
H3187 C3162 0.950 . S
H3188 C3164 0.950 . S
H3189 C3165 0.949 . S
H3190 C3167 0.950 . S
H3191 C3169 0.950 . S
C3192 C3193 1.349 . S
C3192 C3194 1.327 . S
C3192 H3217 0.950 . S
C3193 C3192 1.349 . S
C3193 C3209 1.349 . S
C3194 C3192 1.327 . S
C3194 C3213 1.429 . S
C3194 H3218 0.950 . S
C3195 C3212 1.574 . S
C3195 C3214 1.368 . S
C3195 H3219 0.949 . S
H3196 C3200 0.949 . S
C3197 C3198 1.349 . S
C3197 C3199 1.327 . S
C3197 H3220 0.950 . S
C3198 C3197 1.349 . S
C3198 C3210 1.349 . S
C3199 C3197 1.327 . S
C3199 C3215 1.429 . S
C3199 H3221 0.950 . S
C3200 H3196 0.949 . S
C3200 C3208 1.574 . S
C3200 C3216 1.368 . S
H3201 C3209 0.950 . S
H3202 C3207 0.950 . S
H3203 C3208 0.949 . S
H3204 C3210 0.950 . S
H3205 C3211 0.950 . S
H3206 C3212 0.949 . S
C3207 H3202 0.950 . S
C3207 C3209 1.327 . S
C3207 C3213 1.429 . S
C3208 C3200 1.574 . S
C3208 H3203 0.949 . S
C3208 C3214 1.368 . S
C3209 C3193 1.349 . S
C3209 H3201 0.950 . S
C3209 C3207 1.327 . S
C3210 C3198 1.349 . S
C3210 H3204 0.950 . S
C3210 C3211 1.327 . S
C3211 H3205 0.950 . S
C3211 C3210 1.327 . S
C3211 C3215 1.429 . S
C3212 C3195 1.574 . S
C3212 H3206 0.949 . S
C3212 C3216 1.368 . S
C3213 C3194 1.429 . S
C3213 C3207 1.429 . S
C3213 C3214 1.523 . S
C3214 C3195 1.368 . S
C3214 C3208 1.368 . S
C3214 C3213 1.523 . S
C3215 C3199 1.429 . S
C3215 C3211 1.429 . S
C3215 C3216 1.523 . S
C3216 C3200 1.368 . S
C3216 C3212 1.368 . S
C3216 C3215 1.523 . S
H3217 C3192 0.950 . S
H3218 C3194 0.950 . S
H3219 C3195 0.949 . S
H3220 C3197 0.950 . S
H3221 C3199 0.950 . S
C3222 C3223 1.349 . S
C3222 C3224 1.327 . S
C3222 H3247 0.950 . S
C3223 C3222 1.349 . S
C3223 C3239 1.349 . S
C3224 C3222 1.327 . S
C3224 C3243 1.429 . S
C3224 H3248 0.950 . S
C3225 C3242 1.574 . S
C3225 C3244 1.368 . S
C3225 H3249 0.949 . S
H3226 C3230 0.949 . S
C3227 C3228 1.349 . S
C3227 C3229 1.327 . S
C3227 H3250 0.950 . S
C3228 C3227 1.349 . S
C3228 C3240 1.349 . S
C3229 C3227 1.327 . S
C3229 C3245 1.429 . S
C3229 H3251 0.950 . S
C3230 H3226 0.949 . S
C3230 C3238 1.574 . S
C3230 C3246 1.368 . S
H3231 C3239 0.950 . S
H3232 C3237 0.950 . S
H3233 C3238 0.949 . S
H3234 C3240 0.950 . S
H3235 C3241 0.950 . S
H3236 C3242 0.949 . S
C3237 H3232 0.950 . S
C3237 C3239 1.327 . S
C3237 C3243 1.429 . S
C3238 C3230 1.574 . S
C3238 H3233 0.949 . S
C3238 C3244 1.368 . S
C3239 C3223 1.349 . S
C3239 H3231 0.950 . S
C3239 C3237 1.327 . S
C3240 C3228 1.349 . S
C3240 H3234 0.950 . S
C3240 C3241 1.327 . S
C3241 H3235 0.950 . S
C3241 C3240 1.327 . S
C3241 C3245 1.429 . S
C3242 C3225 1.574 . S
C3242 H3236 0.949 . S
C3242 C3246 1.368 . S
C3243 C3224 1.429 . S
C3243 C3237 1.429 . S
C3243 C3244 1.523 . S
C3244 C3225 1.368 . S
C3244 C3238 1.368 . S
C3244 C3243 1.523 . S
C3245 C3229 1.429 . S
C3245 C3241 1.429 . S
C3245 C3246 1.523 . S
C3246 C3230 1.368 . S
C3246 C3242 1.368 . S
C3246 C3245 1.523 . S
H3247 C3222 0.950 . S
H3248 C3224 0.950 . S
H3249 C3225 0.949 . S
H3250 C3227 0.950 . S
H3251 C3229 0.950 . S
C3252 C3253 1.349 . S
C3252 C3254 1.327 . S
C3252 H3277 0.950 . S
C3253 C3252 1.349 . S
C3253 C3269 1.349 . S
C3254 C3252 1.327 . S
C3254 C3273 1.429 . S
C3254 H3278 0.950 . S
C3255 C3272 1.574 . S
C3255 C3274 1.368 . S
C3255 H3279 0.949 . S
H3256 C3260 0.949 . S
C3257 C3258 1.349 . S
C3257 C3259 1.327 . S
C3257 H3280 0.950 . S
C3258 C3257 1.349 . S
C3258 C3270 1.349 . S
C3259 C3257 1.327 . S
C3259 C3275 1.429 . S
C3259 H3281 0.950 . S
C3260 H3256 0.949 . S
C3260 C3268 1.574 . S
C3260 C3276 1.368 . S
H3261 C3269 0.950 . S
H3262 C3267 0.950 . S
H3263 C3268 0.949 . S
H3264 C3270 0.950 . S
H3265 C3271 0.950 . S
H3266 C3272 0.949 . S
C3267 H3262 0.950 . S
C3267 C3269 1.327 . S
C3267 C3273 1.429 . S
C3268 C3260 1.574 . S
C3268 H3263 0.949 . S
C3268 C3274 1.368 . S
C3269 C3253 1.349 . S
C3269 H3261 0.950 . S
C3269 C3267 1.327 . S
C3270 C3258 1.349 . S
C3270 H3264 0.950 . S
C3270 C3271 1.327 . S
C3271 H3265 0.950 . S
C3271 C3270 1.327 . S
C3271 C3275 1.429 . S
C3272 C3255 1.574 . S
C3272 H3266 0.949 . S
C3272 C3276 1.368 . S
C3273 C3254 1.429 . S
C3273 C3267 1.429 . S
C3273 C3274 1.523 . S
C3274 C3255 1.368 . S
C3274 C3268 1.368 . S
C3274 C3273 1.523 . S
C3275 C3259 1.429 . S
C3275 C3271 1.429 . S
C3275 C3276 1.523 . S
C3276 C3260 1.368 . S
C3276 C3272 1.368 . S
C3276 C3275 1.523 . S
H3277 C3252 0.950 . S
H3278 C3254 0.950 . S
H3279 C3255 0.949 . S
H3280 C3257 0.950 . S
H3281 C3259 0.950 . S
C3282 C3283 1.349 . S
C3282 C3284 1.327 . S
C3282 H3307 0.950 . S
C3283 C3282 1.349 . S
C3283 C3299 1.349 . S
C3284 C3282 1.327 . S
C3284 C3303 1.429 . S
C3284 H3308 0.950 . S
C3285 C3302 1.574 . S
C3285 C3304 1.368 . S
C3285 H3309 0.949 . S
H3286 C3290 0.949 . S
C3287 C3288 1.349 . S
C3287 C3289 1.327 . S
C3287 H3310 0.950 . S
C3288 C3287 1.349 . S
C3288 C3300 1.349 . S
C3289 C3287 1.327 . S
C3289 C3305 1.429 . S
C3289 H3311 0.950 . S
C3290 H3286 0.949 . S
C3290 C3298 1.574 . S
C3290 C3306 1.368 . S
H3291 C3299 0.950 . S
H3292 C3297 0.950 . S
H3293 C3298 0.949 . S
H3294 C3300 0.950 . S
H3295 C3301 0.950 . S
H3296 C3302 0.949 . S
C3297 H3292 0.950 . S
C3297 C3299 1.327 . S
C3297 C3303 1.429 . S
C3298 C3290 1.574 . S
C3298 H3293 0.949 . S
C3298 C3304 1.368 . S
C3299 C3283 1.349 . S
C3299 H3291 0.950 . S
C3299 C3297 1.327 . S
C3300 C3288 1.349 . S
C3300 H3294 0.950 . S
C3300 C3301 1.327 . S
C3301 H3295 0.950 . S
C3301 C3300 1.327 . S
C3301 C3305 1.429 . S
C3302 C3285 1.574 . S
C3302 H3296 0.949 . S
C3302 C3306 1.368 . S
C3303 C3284 1.429 . S
C3303 C3297 1.429 . S
C3303 C3304 1.523 . S
C3304 C3285 1.368 . S
C3304 C3298 1.368 . S
C3304 C3303 1.523 . S
C3305 C3289 1.429 . S
C3305 C3301 1.429 . S
C3305 C3306 1.523 . S
C3306 C3290 1.368 . S
C3306 C3302 1.368 . S
C3306 C3305 1.523 . S
H3307 C3282 0.950 . S
H3308 C3284 0.950 . S
H3309 C3285 0.949 . S
H3310 C3287 0.950 . S
H3311 C3289 0.950 . S
C3312 C3313 1.349 . S
C3312 C3314 1.327 . S
C3312 H3337 0.950 . S
C3313 C3312 1.349 . S
C3313 C3329 1.349 . S
C3314 C3312 1.327 . S
C3314 C3333 1.429 . S
C3314 H3338 0.950 . S
C3315 C3332 1.574 . S
C3315 C3334 1.368 . S
C3315 H3339 0.949 . S
H3316 C3320 0.949 . S
C3317 C3318 1.349 . S
C3317 C3319 1.327 . S
C3317 H3340 0.950 . S
C3318 C3317 1.349 . S
C3318 C3330 1.349 . S
C3319 C3317 1.327 . S
C3319 C3335 1.429 . S
C3319 H3341 0.950 . S
C3320 H3316 0.949 . S
C3320 C3328 1.574 . S
C3320 C3336 1.368 . S
H3321 C3329 0.950 . S
H3322 C3327 0.950 . S
H3323 C3328 0.949 . S
H3324 C3330 0.950 . S
H3325 C3331 0.950 . S
H3326 C3332 0.949 . S
C3327 H3322 0.950 . S
C3327 C3329 1.327 . S
C3327 C3333 1.429 . S
C3328 C3320 1.574 . S
C3328 H3323 0.949 . S
C3328 C3334 1.368 . S
C3329 C3313 1.349 . S
C3329 H3321 0.950 . S
C3329 C3327 1.327 . S
C3330 C3318 1.349 . S
C3330 H3324 0.950 . S
C3330 C3331 1.327 . S
C3331 H3325 0.950 . S
C3331 C3330 1.327 . S
C3331 C3335 1.429 . S
C3332 C3315 1.574 . S
C3332 H3326 0.949 . S
C3332 C3336 1.368 . S
C3333 C3314 1.429 . S
C3333 C3327 1.429 . S
C3333 C3334 1.523 . S
C3334 C3315 1.368 . S
C3334 C3328 1.368 . S
C3334 C3333 1.523 . S
C3335 C3319 1.429 . S
C3335 C3331 1.429 . S
C3335 C3336 1.523 . S
C3336 C3320 1.368 . S
C3336 C3332 1.368 . S
C3336 C3335 1.523 . S
H3337 C3312 0.950 . S
H3338 C3314 0.950 . S
H3339 C3315 0.949 . S
H3340 C3317 0.950 . S
H3341 C3319 0.950 . S
C3342 C3343 1.349 . S
C3342 C3344 1.327 . S
C3342 H3367 0.950 . S
C3343 C3342 1.349 . S
C3343 C3359 1.349 . S
C3344 C3342 1.327 . S
C3344 C3363 1.429 . S
C3344 H3368 0.950 . S
C3345 C3362 1.574 . S
C3345 C3364 1.368 . S
C3345 H3369 0.949 . S
H3346 C3350 0.949 . S
C3347 C3348 1.349 . S
C3347 C3349 1.327 . S
C3347 H3370 0.950 . S
C3348 C3347 1.349 . S
C3348 C3360 1.349 . S
C3349 C3347 1.327 . S
C3349 C3365 1.429 . S
C3349 H3371 0.950 . S
C3350 H3346 0.949 . S
C3350 C3358 1.574 . S
C3350 C3366 1.368 . S
H3351 C3359 0.950 . S
H3352 C3357 0.950 . S
H3353 C3358 0.949 . S
H3354 C3360 0.950 . S
H3355 C3361 0.950 . S
H3356 C3362 0.949 . S
C3357 H3352 0.950 . S
C3357 C3359 1.327 . S
C3357 C3363 1.429 . S
C3358 C3350 1.574 . S
C3358 H3353 0.949 . S
C3358 C3364 1.368 . S
C3359 C3343 1.349 . S
C3359 H3351 0.950 . S
C3359 C3357 1.327 . S
C3360 C3348 1.349 . S
C3360 H3354 0.950 . S
C3360 C3361 1.327 . S
C3361 H3355 0.950 . S
C3361 C3360 1.327 . S
C3361 C3365 1.429 . S
C3362 C3345 1.574 . S
C3362 H3356 0.949 . S
C3362 C3366 1.368 . S
C3363 C3344 1.429 . S
C3363 C3357 1.429 . S
C3363 C3364 1.523 . S
C3364 C3345 1.368 . S
C3364 C3358 1.368 . S
C3364 C3363 1.523 . S
C3365 C3349 1.429 . S
C3365 C3361 1.429 . S
C3365 C3366 1.523 . S
C3366 C3350 1.368 . S
C3366 C3362 1.368 . S
C3366 C3365 1.523 . S
H3367 C3342 0.950 . S
H3368 C3344 0.950 . S
H3369 C3345 0.949 . S
H3370 C3347 0.950 . S
H3371 C3349 0.950 . S
C3372 C3373 1.349 . S
C3372 C3374 1.327 . S
C3372 H3397 0.950 . S
C3373 C3372 1.349 . S
C3373 C3389 1.349 . S
C3374 C3372 1.327 . S
C3374 C3393 1.429 . S
C3374 H3398 0.950 . S
C3375 C3392 1.574 . S
C3375 C3394 1.368 . S
C3375 H3399 0.949 . S
H3376 C3380 0.949 . S
C3377 C3378 1.349 . S
C3377 C3379 1.327 . S
C3377 H3400 0.950 . S
C3378 C3377 1.349 . S
C3378 C3390 1.349 . S
C3379 C3377 1.327 . S
C3379 C3395 1.429 . S
C3379 H3401 0.950 . S
C3380 H3376 0.949 . S
C3380 C3388 1.574 . S
C3380 C3396 1.368 . S
H3381 C3389 0.950 . S
H3382 C3387 0.950 . S
H3383 C3388 0.949 . S
H3384 C3390 0.950 . S
H3385 C3391 0.950 . S
H3386 C3392 0.949 . S
C3387 H3382 0.950 . S
C3387 C3389 1.327 . S
C3387 C3393 1.429 . S
C3388 C3380 1.574 . S
C3388 H3383 0.949 . S
C3388 C3394 1.368 . S
C3389 C3373 1.349 . S
C3389 H3381 0.950 . S
C3389 C3387 1.327 . S
C3390 C3378 1.349 . S
C3390 H3384 0.950 . S
C3390 C3391 1.327 . S
C3391 H3385 0.950 . S
C3391 C3390 1.327 . S
C3391 C3395 1.429 . S
C3392 C3375 1.574 . S
C3392 H3386 0.949 . S
C3392 C3396 1.368 . S
C3393 C3374 1.429 . S
C3393 C3387 1.429 . S
C3393 C3394 1.523 . S
C3394 C3375 1.368 . S
C3394 C3388 1.368 . S
C3394 C3393 1.523 . S
C3395 C3379 1.429 . S
C3395 C3391 1.429 . S
C3395 C3396 1.523 . S
C3396 C3380 1.368 . S
C3396 C3392 1.368 . S
C3396 C3395 1.523 . S
H3397 C3372 0.950 . S
H3398 C3374 0.950 . S
H3399 C3375 0.949 . S
H3400 C3377 0.950 . S
H3401 C3379 0.950 . S
C3402 C3403 1.349 . S
C3402 C3404 1.327 . S
C3402 H3427 0.950 . S
C3403 C3402 1.349 . S
C3403 C3419 1.349 . S
C3404 C3402 1.327 . S
C3404 C3423 1.429 . S
C3404 H3428 0.950 . S
C3405 C3422 1.574 . S
C3405 C3424 1.368 . S
C3405 H3429 0.949 . S
H3406 C3410 0.949 . S
C3407 C3408 1.349 . S
C3407 C3409 1.327 . S
C3407 H3430 0.950 . S
C3408 C3407 1.349 . S
C3408 C3420 1.349 . S
C3409 C3407 1.327 . S
C3409 C3425 1.429 . S
C3409 H3431 0.950 . S
C3410 H3406 0.949 . S
C3410 C3418 1.574 . S
C3410 C3426 1.368 . S
H3411 C3419 0.950 . S
H3412 C3417 0.950 . S
H3413 C3418 0.949 . S
H3414 C3420 0.950 . S
H3415 C3421 0.950 . S
H3416 C3422 0.949 . S
C3417 H3412 0.950 . S
C3417 C3419 1.327 . S
C3417 C3423 1.429 . S
C3418 C3410 1.574 . S
C3418 H3413 0.949 . S
C3418 C3424 1.368 . S
C3419 C3403 1.349 . S
C3419 H3411 0.950 . S
C3419 C3417 1.327 . S
C3420 C3408 1.349 . S
C3420 H3414 0.950 . S
C3420 C3421 1.327 . S
C3421 H3415 0.950 . S
C3421 C3420 1.327 . S
C3421 C3425 1.429 . S
C3422 C3405 1.574 . S
C3422 H3416 0.949 . S
C3422 C3426 1.368 . S
C3423 C3404 1.429 . S
C3423 C3417 1.429 . S
C3423 C3424 1.523 . S
C3424 C3405 1.368 . S
C3424 C3418 1.368 . S
C3424 C3423 1.523 . S
C3425 C3409 1.429 . S
C3425 C3421 1.429 . S
C3425 C3426 1.523 . S
C3426 C3410 1.368 . S
C3426 C3422 1.368 . S
C3426 C3425 1.523 . S
H3427 C3402 0.950 . S
H3428 C3404 0.950 . S
H3429 C3405 0.949 . S
H3430 C3407 0.950 . S
H3431 C3409 0.950 . S
C3432 C3433 1.349 . S
C3432 C3434 1.327 . S
C3432 H3457 0.950 . S
C3433 C3432 1.349 . S
C3433 C3449 1.349 . S
C3434 C3432 1.327 . S
C3434 C3453 1.429 . S
C3434 H3458 0.950 . S
C3435 C3452 1.574 . S
C3435 C3454 1.368 . S
C3435 H3459 0.949 . S
H3436 C3440 0.949 . S
C3437 C3438 1.349 . S
C3437 C3439 1.327 . S
C3437 H3460 0.950 . S
C3438 C3437 1.349 . S
C3438 C3450 1.349 . S
C3439 C3437 1.327 . S
C3439 C3455 1.429 . S
C3439 H3461 0.950 . S
C3440 H3436 0.949 . S
C3440 C3448 1.574 . S
C3440 C3456 1.368 . S
H3441 C3449 0.950 . S
H3442 C3447 0.950 . S
H3443 C3448 0.949 . S
H3444 C3450 0.950 . S
H3445 C3451 0.950 . S
H3446 C3452 0.949 . S
C3447 H3442 0.950 . S
C3447 C3449 1.327 . S
C3447 C3453 1.429 . S
C3448 C3440 1.574 . S
C3448 H3443 0.949 . S
C3448 C3454 1.368 . S
C3449 C3433 1.349 . S
C3449 H3441 0.950 . S
C3449 C3447 1.327 . S
C3450 C3438 1.349 . S
C3450 H3444 0.950 . S
C3450 C3451 1.327 . S
C3451 H3445 0.950 . S
C3451 C3450 1.327 . S
C3451 C3455 1.429 . S
C3452 C3435 1.574 . S
C3452 H3446 0.949 . S
C3452 C3456 1.368 . S
C3453 C3434 1.429 . S
C3453 C3447 1.429 . S
C3453 C3454 1.523 . S
C3454 C3435 1.368 . S
C3454 C3448 1.368 . S
C3454 C3453 1.523 . S
C3455 C3439 1.429 . S
C3455 C3451 1.429 . S
C3455 C3456 1.523 . S
C3456 C3440 1.368 . S
C3456 C3452 1.368 . S
C3456 C3455 1.523 . S
H3457 C3432 0.950 . S
H3458 C3434 0.950 . S
H3459 C3435 0.949 . S
H3460 C3437 0.950 . S
H3461 C3439 0.950 . S
C3462 C3463 1.349 . S
C3462 C3464 1.327 . S
C3462 H3487 0.950 . S
C3463 C3462 1.349 . S
C3463 C3479 1.349 . S
C3464 C3462 1.327 . S
C3464 C3483 1.429 . S
C3464 H3488 0.950 . S
C3465 C3482 1.574 . S
C3465 C3484 1.368 . S
C3465 H3489 0.949 . S
H3466 C3470 0.949 . S
C3467 C3468 1.349 . S
C3467 C3469 1.327 . S
C3467 H3490 0.950 . S
C3468 C3467 1.349 . S
C3468 C3480 1.349 . S
C3469 C3467 1.327 . S
C3469 C3485 1.429 . S
C3469 H3491 0.950 . S
C3470 H3466 0.949 . S
C3470 C3478 1.574 . S
C3470 C3486 1.368 . S
H3471 C3479 0.950 . S
H3472 C3477 0.950 . S
H3473 C3478 0.949 . S
H3474 C3480 0.950 . S
H3475 C3481 0.950 . S
H3476 C3482 0.949 . S
C3477 H3472 0.950 . S
C3477 C3479 1.327 . S
C3477 C3483 1.429 . S
C3478 C3470 1.574 . S
C3478 H3473 0.949 . S
C3478 C3484 1.368 . S
C3479 C3463 1.349 . S
C3479 H3471 0.950 . S
C3479 C3477 1.327 . S
C3480 C3468 1.349 . S
C3480 H3474 0.950 . S
C3480 C3481 1.327 . S
C3481 H3475 0.950 . S
C3481 C3480 1.327 . S
C3481 C3485 1.429 . S
C3482 C3465 1.574 . S
C3482 H3476 0.949 . S
C3482 C3486 1.368 . S
C3483 C3464 1.429 . S
C3483 C3477 1.429 . S
C3483 C3484 1.523 . S
C3484 C3465 1.368 . S
C3484 C3478 1.368 . S
C3484 C3483 1.523 . S
C3485 C3469 1.429 . S
C3485 C3481 1.429 . S
C3485 C3486 1.523 . S
C3486 C3470 1.368 . S
C3486 C3482 1.368 . S
C3486 C3485 1.523 . S
H3487 C3462 0.950 . S
H3488 C3464 0.950 . S
H3489 C3465 0.949 . S
H3490 C3467 0.950 . S
H3491 C3469 0.950 . S
C3492 C3493 1.349 . S
C3492 C3494 1.327 . S
C3492 H3517 0.950 . S
C3493 C3492 1.349 . S
C3493 C3509 1.349 . S
C3494 C3492 1.327 . S
C3494 C3513 1.429 . S
C3494 H3518 0.950 . S
C3495 C3512 1.574 . S
C3495 C3514 1.368 . S
C3495 H3519 0.949 . S
H3496 C3500 0.949 . S
C3497 C3498 1.349 . S
C3497 C3499 1.327 . S
C3497 H3520 0.950 . S
C3498 C3497 1.349 . S
C3498 C3510 1.349 . S
C3499 C3497 1.327 . S
C3499 C3515 1.429 . S
C3499 H3521 0.950 . S
C3500 H3496 0.949 . S
C3500 C3508 1.574 . S
C3500 C3516 1.368 . S
H3501 C3509 0.950 . S
H3502 C3507 0.950 . S
H3503 C3508 0.949 . S
H3504 C3510 0.950 . S
H3505 C3511 0.950 . S
H3506 C3512 0.949 . S
C3507 H3502 0.950 . S
C3507 C3509 1.327 . S
C3507 C3513 1.429 . S
C3508 C3500 1.574 . S
C3508 H3503 0.949 . S
C3508 C3514 1.368 . S
C3509 C3493 1.349 . S
C3509 H3501 0.950 . S
C3509 C3507 1.327 . S
C3510 C3498 1.349 . S
C3510 H3504 0.950 . S
C3510 C3511 1.327 . S
C3511 H3505 0.950 . S
C3511 C3510 1.327 . S
C3511 C3515 1.429 . S
C3512 C3495 1.574 . S
C3512 H3506 0.949 . S
C3512 C3516 1.368 . S
C3513 C3494 1.429 . S
C3513 C3507 1.429 . S
C3513 C3514 1.523 . S
C3514 C3495 1.368 . S
C3514 C3508 1.368 . S
C3514 C3513 1.523 . S
C3515 C3499 1.429 . S
C3515 C3511 1.429 . S
C3515 C3516 1.523 . S
C3516 C3500 1.368 . S
C3516 C3512 1.368 . S
C3516 C3515 1.523 . S
H3517 C3492 0.950 . S
H3518 C3494 0.950 . S
H3519 C3495 0.949 . S
H3520 C3497 0.950 . S
H3521 C3499 0.950 . S
C3522 C3523 1.349 . S
C3522 C3524 1.327 . S
C3522 H3547 0.950 . S
C3523 C3522 1.349 . S
C3523 C3539 1.349 . S
C3524 C3522 1.327 . S
C3524 C3543 1.429 . S
C3524 H3548 0.950 . S
C3525 C3542 1.574 . S
C3525 C3544 1.368 . S
C3525 H3549 0.949 . S
H3526 C3530 0.949 . S
C3527 C3528 1.349 . S
C3527 C3529 1.327 . S
C3527 H3550 0.950 . S
C3528 C3527 1.349 . S
C3528 C3540 1.349 . S
C3529 C3527 1.327 . S
C3529 C3545 1.429 . S
C3529 H3551 0.950 . S
C3530 H3526 0.949 . S
C3530 C3538 1.574 . S
C3530 C3546 1.368 . S
H3531 C3539 0.950 . S
H3532 C3537 0.950 . S
H3533 C3538 0.949 . S
H3534 C3540 0.950 . S
H3535 C3541 0.950 . S
H3536 C3542 0.949 . S
C3537 H3532 0.950 . S
C3537 C3539 1.327 . S
C3537 C3543 1.429 . S
C3538 C3530 1.574 . S
C3538 H3533 0.949 . S
C3538 C3544 1.368 . S
C3539 C3523 1.349 . S
C3539 H3531 0.950 . S
C3539 C3537 1.327 . S
C3540 C3528 1.349 . S
C3540 H3534 0.950 . S
C3540 C3541 1.327 . S
C3541 H3535 0.950 . S
C3541 C3540 1.327 . S
C3541 C3545 1.429 . S
C3542 C3525 1.574 . S
C3542 H3536 0.949 . S
C3542 C3546 1.368 . S
C3543 C3524 1.429 . S
C3543 C3537 1.429 . S
C3543 C3544 1.523 . S
C3544 C3525 1.368 . S
C3544 C3538 1.368 . S
C3544 C3543 1.523 . S
C3545 C3529 1.429 . S
C3545 C3541 1.429 . S
C3545 C3546 1.523 . S
C3546 C3530 1.368 . S
C3546 C3542 1.368 . S
C3546 C3545 1.523 . S
H3547 C3522 0.950 . S
H3548 C3524 0.950 . S
H3549 C3525 0.949 . S
H3550 C3527 0.950 . S
H3551 C3529 0.950 . S
C3552 C3553 1.349 . S
C3552 C3554 1.327 . S
C3552 H3577 0.950 . S
C3553 C3552 1.349 . S
C3553 C3569 1.349 . S
C3554 C3552 1.327 . S
C3554 C3573 1.429 . S
C3554 H3578 0.950 . S
C3555 C3572 1.574 . S
C3555 C3574 1.368 . S
C3555 H3579 0.949 . S
H3556 C3560 0.949 . S
C3557 C3558 1.349 . S
C3557 C3559 1.327 . S
C3557 H3580 0.950 . S
C3558 C3557 1.349 . S
C3558 C3570 1.349 . S
C3559 C3557 1.327 . S
C3559 C3575 1.429 . S
C3559 H3581 0.950 . S
C3560 H3556 0.949 . S
C3560 C3568 1.574 . S
C3560 C3576 1.368 . S
H3561 C3569 0.950 . S
H3562 C3567 0.950 . S
H3563 C3568 0.949 . S
H3564 C3570 0.950 . S
H3565 C3571 0.950 . S
H3566 C3572 0.949 . S
C3567 H3562 0.950 . S
C3567 C3569 1.327 . S
C3567 C3573 1.429 . S
C3568 C3560 1.574 . S
C3568 H3563 0.949 . S
C3568 C3574 1.368 . S
C3569 C3553 1.349 . S
C3569 H3561 0.950 . S
C3569 C3567 1.327 . S
C3570 C3558 1.349 . S
C3570 H3564 0.950 . S
C3570 C3571 1.327 . S
C3571 H3565 0.950 . S
C3571 C3570 1.327 . S
C3571 C3575 1.429 . S
C3572 C3555 1.574 . S
C3572 H3566 0.949 . S
C3572 C3576 1.368 . S
C3573 C3554 1.429 . S
C3573 C3567 1.429 . S
C3573 C3574 1.523 . S
C3574 C3555 1.368 . S
C3574 C3568 1.368 . S
C3574 C3573 1.523 . S
C3575 C3559 1.429 . S
C3575 C3571 1.429 . S
C3575 C3576 1.523 . S
C3576 C3560 1.368 . S
C3576 C3572 1.368 . S
C3576 C3575 1.523 . S
H3577 C3552 0.950 . S
H3578 C3554 0.950 . S
H3579 C3555 0.949 . S
H3580 C3557 0.950 . S
H3581 C3559 0.950 . S
C3582 C3583 1.349 . S
C3582 C3584 1.327 . S
C3582 H3607 0.950 . S
C3583 C3582 1.349 . S
C3583 C3599 1.349 . S
C3584 C3582 1.327 . S
C3584 C3603 1.429 . S
C3584 H3608 0.950 . S
C3585 C3602 1.574 . S
C3585 C3604 1.368 . S
C3585 H3609 0.949 . S
H3586 C3590 0.922 1_554 S
C3587 C3588 1.349 . S
C3587 C3589 1.327 . S
C3587 H3610 0.950 . S
C3588 C3587 1.349 . S
C3588 C3600 1.349 . S
C3589 C3587 1.327 . S
C3589 C3605 1.429 . S
C3589 H3611 0.950 . S
C3590 H3586 0.922 1_556 S
C3590 C3598 1.623 . S
C3590 C3606 1.351 1_556 S
H3591 C3599 0.950 . S
H3592 C3597 0.950 . S
H3593 C3598 0.949 . S
H3594 C3600 0.950 . S
H3595 C3601 0.950 . S
H3596 C3602 0.949 1_554 S
C3597 H3592 0.950 . S
C3597 C3599 1.327 . S
C3597 C3603 1.429 . S
C3598 C3590 1.623 . S
C3598 H3593 0.949 . S
C3598 C3604 1.368 . S
C3599 C3583 1.349 . S
C3599 H3591 0.950 . S
C3599 C3597 1.327 . S
C3600 C3588 1.349 . S
C3600 H3594 0.950 . S
C3600 C3601 1.327 . S
C3601 H3595 0.950 . S
C3601 C3600 1.327 . S
C3601 C3605 1.429 . S
C3602 C3585 1.574 . S
C3602 H3596 0.949 1_556 S
C3602 C3606 1.368 1_556 S
C3603 C3584 1.429 . S
C3603 C3597 1.429 . S
C3603 C3604 1.523 . S
C3604 C3585 1.368 . S
C3604 C3598 1.368 . S
C3604 C3603 1.523 . S
C3605 C3589 1.429 . S
C3605 C3601 1.429 . S
C3605 C3606 1.523 . S
C3606 C3590 1.351 1_554 S
C3606 C3602 1.368 1_554 S
C3606 C3605 1.523 . S
H3607 C3582 0.950 . S
H3608 C3584 0.950 . S
H3609 C3585 0.949 . S
H3610 C3587 0.950 . S
H3611 C3589 0.950 . S
C3612 C3613 1.349 . S
C3612 C3614 1.327 . S
C3612 H3637 0.950 . S
C3613 C3612 1.349 . S
C3613 C3629 1.349 . S
C3614 C3612 1.327 . S
C3614 C3633 1.429 . S
C3614 H3638 0.950 . S
C3615 C3632 1.574 . S
C3615 C3634 1.368 . S
C3615 H3639 0.949 . S
H3616 C3620 0.949 . S
C3617 C3618 1.349 . S
C3617 C3619 1.327 . S
C3617 H3640 0.950 . S
C3618 C3617 1.349 . S
C3618 C3630 1.349 . S
C3619 C3617 1.327 . S
C3619 C3635 1.429 . S
C3619 H3641 0.950 . S
C3620 H3616 0.949 . S
C3620 C3628 1.574 . S
C3620 C3636 1.368 . S
H3621 C3629 0.950 . S
H3622 C3627 0.950 . S
H3623 C3628 0.949 . S
H3624 C3630 0.950 . S
H3625 C3631 0.950 . S
H3626 C3632 0.949 . S
C3627 H3622 0.950 . S
C3627 C3629 1.327 . S
C3627 C3633 1.429 . S
C3628 C3620 1.574 . S
C3628 H3623 0.949 . S
C3628 C3634 1.368 . S
C3629 C3613 1.349 . S
C3629 H3621 0.950 . S
C3629 C3627 1.327 . S
C3630 C3618 1.349 . S
C3630 H3624 0.950 . S
C3630 C3631 1.327 . S
C3631 H3625 0.950 . S
C3631 C3630 1.327 . S
C3631 C3635 1.429 . S
C3632 C3615 1.574 . S
C3632 H3626 0.949 . S
C3632 C3636 1.368 . S
C3633 C3614 1.429 . S
C3633 C3627 1.429 . S
C3633 C3634 1.523 . S
C3634 C3615 1.368 . S
C3634 C3628 1.368 . S
C3634 C3633 1.523 . S
C3635 C3619 1.429 . S
C3635 C3631 1.429 . S
C3635 C3636 1.523 . S
C3636 C3620 1.368 . S
C3636 C3632 1.368 . S
C3636 C3635 1.523 . S
H3637 C3612 0.950 . S
H3638 C3614 0.950 . S
H3639 C3615 0.949 . S
H3640 C3617 0.950 . S
H3641 C3619 0.950 . S
C3642 C3643 1.349 . S
C3642 C3644 1.327 . S
C3642 H3667 0.950 . S
C3643 C3642 1.349 . S
C3643 C3659 1.349 . S
C3644 C3642 1.327 . S
C3644 C3663 1.429 . S
C3644 H3668 0.950 . S
C3645 C3662 1.574 1_556 S
C3645 C3664 1.368 . S
C3645 H3669 0.949 . S
H3646 C3650 0.949 . S
C3647 C3648 1.349 . S
C3647 C3649 1.327 . S
C3647 H3670 0.950 . S
C3648 C3647 1.349 . S
C3648 C3660 1.349 . S
C3649 C3647 1.327 . S
C3649 C3665 1.429 . S
C3649 H3671 0.950 . S
C3650 H3646 0.949 . S
C3650 C3658 1.574 1_554 S
C3650 C3666 1.368 . S
H3651 C3659 0.950 . S
H3652 C3657 0.950 . S
H3653 C3658 0.949 . S
H3654 C3660 0.950 . S
H3655 C3661 0.950 . S
H3656 C3662 0.949 . S
C3657 H3652 0.950 . S
C3657 C3659 1.327 . S
C3657 C3663 1.429 . S
C3658 C3650 1.574 1_556 S
C3658 H3653 0.949 . S
C3658 C3664 1.368 . S
C3659 C3643 1.349 . S
C3659 H3651 0.950 . S
C3659 C3657 1.327 . S
C3660 C3648 1.349 . S
C3660 H3654 0.950 . S
C3660 C3661 1.327 . S
C3661 H3655 0.950 . S
C3661 C3660 1.327 . S
C3661 C3665 1.429 . S
C3662 C3645 1.574 1_554 S
C3662 H3656 0.949 . S
C3662 C3666 1.368 . S
C3663 C3644 1.429 . S
C3663 C3657 1.429 . S
C3663 C3664 1.523 . S
C3664 C3645 1.368 . S
C3664 C3658 1.368 . S
C3664 C3663 1.523 . S
C3665 C3649 1.429 . S
C3665 C3661 1.429 . S
C3665 C3666 1.523 . S
C3666 C3650 1.368 . S
C3666 C3662 1.368 . S
C3666 C3665 1.523 . S
H3667 C3642 0.950 . S
H3668 C3644 0.950 . S
H3669 C3645 0.949 . S
H3670 C3647 0.950 . S
H3671 C3649 0.950 . S
C3672 C3673 1.349 . S
C3672 C3674 1.327 . S
C3672 H3697 0.950 . S
C3673 C3672 1.349 . S
C3673 C3689 1.349 . S
C3674 C3672 1.327 . S
C3674 C3693 1.429 . S
C3674 H3698 0.950 . S
C3675 C3692 1.574 . S
C3675 C3694 1.368 . S
C3675 H3699 0.949 . S
H3676 C3680 0.949 . S
C3677 C3678 1.349 . S
C3677 C3679 1.327 . S
C3677 H3700 0.950 . S
C3678 C3677 1.349 . S
C3678 C3690 1.349 . S
C3679 C3677 1.327 . S
C3679 C3695 1.429 . S
C3679 H3701 0.950 . S
C3680 H3676 0.949 . S
C3680 C3688 1.574 . S
C3680 C3696 1.368 . S
H3681 C3689 0.950 . S
H3682 C3687 0.950 . S
H3683 C3688 0.949 . S
H3684 C3690 0.950 . S
H3685 C3691 0.950 . S
H3686 C3692 0.949 . S
C3687 H3682 0.950 . S
C3687 C3689 1.327 . S
C3687 C3693 1.429 . S
C3688 C3680 1.574 . S
C3688 H3683 0.949 . S
C3688 C3694 1.368 . S
C3689 C3673 1.349 . S
C3689 H3681 0.950 . S
C3689 C3687 1.327 . S
C3690 C3678 1.349 . S
C3690 H3684 0.950 . S
C3690 C3691 1.327 . S
C3691 H3685 0.950 . S
C3691 C3690 1.327 . S
C3691 C3695 1.429 . S
C3692 C3675 1.574 . S
C3692 H3686 0.949 . S
C3692 C3696 1.368 . S
C3693 C3674 1.429 . S
C3693 C3687 1.429 . S
C3693 C3694 1.523 . S
C3694 C3675 1.368 . S
C3694 C3688 1.368 . S
C3694 C3693 1.523 . S
C3695 C3679 1.429 . S
C3695 C3691 1.429 . S
C3695 C3696 1.523 . S
C3696 C3680 1.368 . S
C3696 C3692 1.368 . S
C3696 C3695 1.523 . S
H3697 C3672 0.950 . S
H3698 C3674 0.950 . S
H3699 C3675 0.949 . S
H3700 C3677 0.950 . S
H3701 C3679 0.950 . S
C3702 C3703 1.349 . S
C3702 C3704 1.327 . S
C3702 H3727 0.950 . S
C3703 C3702 1.349 . S
C3703 C3719 1.349 . S
C3704 C3702 1.327 . S
C3704 C3723 1.429 . S
C3704 H3728 0.950 . S
C3705 C3722 1.574 . S
C3705 C3724 1.368 1_554 S
C3705 H3729 0.949 1_554 S
H3706 C3710 0.949 . S
C3707 C3708 1.349 . S
C3707 C3709 1.327 . S
C3707 H3730 0.950 . S
C3708 C3707 1.349 . S
C3708 C3720 1.349 . S
C3709 C3707 1.327 . S
C3709 C3725 1.429 . S
C3709 H3731 0.950 . S
C3710 H3706 0.949 . S
C3710 C3718 1.574 . S
C3710 C3726 1.368 . S
H3711 C3719 0.950 . S
H3712 C3717 0.950 . S
H3713 C3718 0.949 1_556 S
H3714 C3720 0.950 . S
H3715 C3721 0.950 . S
H3716 C3722 0.949 . S
C3717 H3712 0.950 . S
C3717 C3719 1.327 . S
C3717 C3723 1.429 . S
C3718 C3710 1.574 . S
C3718 H3713 0.949 1_554 S
C3718 C3724 1.368 1_554 S
C3719 C3703 1.349 . S
C3719 H3711 0.950 . S
C3719 C3717 1.327 . S
C3720 C3708 1.349 . S
C3720 H3714 0.950 . S
C3720 C3721 1.327 . S
C3721 H3715 0.950 . S
C3721 C3720 1.327 . S
C3721 C3725 1.429 . S
C3722 C3705 1.574 . S
C3722 H3716 0.949 . S
C3722 C3726 1.368 . S
C3723 C3704 1.429 . S
C3723 C3717 1.429 . S
C3723 C3724 1.523 . S
C3724 C3705 1.368 1_556 S
C3724 C3718 1.368 1_556 S
C3724 C3723 1.523 . S
C3725 C3709 1.429 . S
C3725 C3721 1.429 . S
C3725 C3726 1.523 . S
C3726 C3710 1.368 . S
C3726 C3722 1.368 . S
C3726 C3725 1.523 . S
H3727 C3702 0.950 . S
H3728 C3704 0.950 . S
H3729 C3705 0.949 1_556 S
H3730 C3707 0.950 . S
H3731 C3709 0.950 . S
C3732 C3733 1.349 . S
C3732 C3734 1.327 . S
C3732 H3757 0.950 . S
C3733 C3732 1.349 . S
C3733 C3749 1.349 . S
C3734 C3732 1.327 . S
C3734 C3753 1.429 . S
C3734 H3758 0.950 . S
C3735 C3752 1.574 . S
C3735 C3754 1.368 . S
C3735 H3759 0.949 . S
H3736 C3740 0.949 . S
C3737 C3738 1.349 . S
C3737 C3739 1.327 . S
C3737 H3760 0.950 . S
C3738 C3737 1.349 . S
C3738 C3750 1.349 . S
C3739 C3737 1.327 . S
C3739 C3755 1.429 . S
C3739 H3761 0.950 . S
C3740 H3736 0.949 . S
C3740 C3748 1.574 . S
C3740 C3756 1.368 . S
H3741 C3749 0.950 . S
H3742 C3747 0.950 . S
H3743 C3748 0.949 . S
H3744 C3750 0.950 . S
H3745 C3751 0.950 . S
H3746 C3752 0.949 . S
C3747 H3742 0.950 . S
C3747 C3749 1.327 . S
C3747 C3753 1.429 . S
C3748 C3740 1.574 . S
C3748 H3743 0.949 . S
C3748 C3754 1.368 . S
C3749 C3733 1.349 . S
C3749 H3741 0.950 . S
C3749 C3747 1.327 . S
C3750 C3738 1.349 . S
C3750 H3744 0.950 . S
C3750 C3751 1.327 . S
C3751 H3745 0.950 . S
C3751 C3750 1.327 . S
C3751 C3755 1.429 . S
C3752 C3735 1.574 . S
C3752 H3746 0.949 . S
C3752 C3756 1.368 . S
C3753 C3734 1.429 . S
C3753 C3747 1.429 . S
C3753 C3754 1.523 . S
C3754 C3735 1.368 . S
C3754 C3748 1.368 . S
C3754 C3753 1.523 . S
C3755 C3739 1.429 . S
C3755 C3751 1.429 . S
C3755 C3756 1.523 . S
C3756 C3740 1.368 . S
C3756 C3752 1.368 . S
C3756 C3755 1.523 . S
H3757 C3732 0.950 . S
H3758 C3734 0.950 . S
H3759 C3735 0.949 . S
H3760 C3737 0.950 . S
H3761 C3739 0.950 . S
C3762 C3763 1.349 . S
C3762 C3764 1.327 . S
C3762 H3787 0.950 . S
C3763 C3762 1.349 . S
C3763 C3779 1.349 . S
C3764 C3762 1.327 . S
C3764 C3783 1.429 . S
C3764 H3788 0.950 . S
C3765 C3782 1.574 1_556 S
C3765 C3784 1.368 . S
C3765 H3789 0.949 . S
H3766 C3770 0.949 . S
C3767 C3768 1.349 . S
C3767 C3769 1.327 . S
C3767 H3790 0.950 . S
C3768 C3767 1.349 . S
C3768 C3780 1.349 . S
C3769 C3767 1.327 . S
C3769 C3785 1.429 . S
C3769 H3791 0.950 . S
C3770 H3766 0.949 . S
C3770 C3778 1.574 1_554 S
C3770 C3786 1.368 . S
H3771 C3779 0.950 . S
H3772 C3777 0.950 . S
H3773 C3778 0.949 . S
H3774 C3780 0.950 . S
H3775 C3781 0.950 . S
H3776 C3782 0.949 . S
C3777 H3772 0.950 . S
C3777 C3779 1.327 . S
C3777 C3783 1.429 . S
C3778 C3770 1.574 1_556 S
C3778 H3773 0.949 . S
C3778 C3784 1.368 . S
C3779 C3763 1.349 . S
C3779 H3771 0.950 . S
C3779 C3777 1.327 . S
C3780 C3768 1.349 . S
C3780 H3774 0.950 . S
C3780 C3781 1.327 . S
C3781 H3775 0.950 . S
C3781 C3780 1.327 . S
C3781 C3785 1.429 . S
C3782 C3765 1.574 1_554 S
C3782 H3776 0.949 . S
C3782 C3786 1.368 . S
C3783 C3764 1.429 . S
C3783 C3777 1.429 . S
C3783 C3784 1.523 . S
C3784 C3765 1.368 . S
C3784 C3778 1.368 . S
C3784 C3783 1.523 . S
C3785 C3769 1.429 . S
C3785 C3781 1.429 . S
C3785 C3786 1.523 . S
C3786 C3770 1.368 . S
C3786 C3782 1.368 . S
C3786 C3785 1.523 . S
H3787 C3762 0.950 . S
H3788 C3764 0.950 . S
H3789 C3765 0.949 . S
H3790 C3767 0.950 . S
H3791 C3769 0.950 . S
C3792 C3793 1.349 . S
C3792 C3794 1.327 . S
C3792 H3817 0.950 . S
C3793 C3792 1.349 . S
C3793 C3809 1.349 . S
C3794 C3792 1.327 . S
C3794 C3813 1.429 . S
C3794 H3818 0.950 . S
C3795 C3812 1.574 . S
C3795 C3814 1.368 . S
C3795 H3819 0.949 . S
H3796 C3800 0.949 . S
C3797 C3798 1.349 . S
C3797 C3799 1.327 . S
C3797 H3820 0.950 . S
C3798 C3797 1.349 . S
C3798 C3810 1.349 . S
C3799 C3797 1.327 . S
C3799 C3815 1.429 . S
C3799 H3821 0.950 . S
C3800 H3796 0.949 . S
C3800 C3808 1.574 . S
C3800 C3816 1.368 . S
H3801 C3809 0.950 . S
H3802 C3807 0.950 . S
H3803 C3808 0.949 . S
H3804 C3810 0.950 . S
H3805 C3811 0.950 . S
H3806 C3812 0.949 . S
C3807 H3802 0.950 . S
C3807 C3809 1.327 . S
C3807 C3813 1.429 . S
C3808 C3800 1.574 . S
C3808 H3803 0.949 . S
C3808 C3814 1.368 . S
C3809 C3793 1.349 . S
C3809 H3801 0.950 . S
C3809 C3807 1.327 . S
C3810 C3798 1.349 . S
C3810 H3804 0.950 . S
C3810 C3811 1.327 . S
C3811 H3805 0.950 . S
C3811 C3810 1.327 . S
C3811 C3815 1.429 . S
C3812 C3795 1.574 . S
C3812 H3806 0.949 . S
C3812 C3816 1.368 . S
C3813 C3794 1.429 . S
C3813 C3807 1.429 . S
C3813 C3814 1.523 . S
C3814 C3795 1.368 . S
C3814 C3808 1.368 . S
C3814 C3813 1.523 . S
C3815 C3799 1.429 . S
C3815 C3811 1.429 . S
C3815 C3816 1.523 . S
C3816 C3800 1.368 . S
C3816 C3812 1.368 . S
C3816 C3815 1.523 . S
H3817 C3792 0.950 . S
H3818 C3794 0.950 . S
H3819 C3795 0.949 . S
H3820 C3797 0.950 . S
H3821 C3799 0.950 . S
C3822 C3823 1.349 . S
C3822 C3824 1.327 . S
C3822 H3847 0.950 . S
C3823 C3822 1.349 . S
C3823 C3839 1.349 . S
C3824 C3822 1.327 . S
C3824 C3843 1.429 . S
C3824 H3848 0.950 . S
C3825 C3842 1.570 . S
C3825 C3844 1.368 . S
C3825 H3849 0.949 . S
H3826 C3830 0.949 1_545 S
C3827 C3828 1.349 . S
C3827 C3829 1.327 . S
C3827 H3850 0.950 . S
C3828 C3827 1.349 . S
C3828 C3840 1.349 . S
C3829 C3827 1.327 . S
C3829 C3845 1.429 . S
C3829 H3851 0.950 . S
C3830 H3826 0.949 1_565 S
C3830 C3838 1.574 . S
C3830 C3846 1.368 1_565 S
H3831 C3839 0.950 . S
H3832 C3837 0.950 . S
H3833 C3838 0.949 . S
H3834 C3840 0.950 . S
H3835 C3841 0.950 . S
H3836 C3842 0.951 1_545 S
C3837 H3832 0.950 . S
C3837 C3839 1.327 . S
C3837 C3843 1.429 . S
C3838 C3830 1.574 . S
C3838 H3833 0.949 . S
C3838 C3844 1.368 . S
C3839 C3823 1.349 . S
C3839 H3831 0.950 . S
C3839 C3837 1.327 . S
C3840 C3828 1.349 . S
C3840 H3834 0.950 . S
C3840 C3841 1.327 . S
C3841 H3835 0.950 . S
C3841 C3840 1.327 . S
C3841 C3845 1.429 . S
C3842 C3825 1.570 . S
C3842 H3836 0.951 1_565 S
C3842 C3846 1.370 1_565 S
C3843 C3824 1.429 . S
C3843 C3837 1.429 . S
C3843 C3844 1.523 . S
C3844 C3825 1.368 . S
C3844 C3838 1.368 . S
C3844 C3843 1.523 . S
C3845 C3829 1.429 . S
C3845 C3841 1.429 . S
C3845 C3846 1.523 . S
C3846 C3830 1.368 1_545 S
C3846 C3842 1.370 1_545 S
C3846 C3845 1.523 . S
H3847 C3822 0.950 . S
H3848 C3824 0.950 . S
H3849 C3825 0.949 . S
H3850 C3827 0.950 . S
H3851 C3829 0.950 . S
C3852 C3853 1.349 . S
C3852 C3854 1.327 . S
C3852 H3877 0.950 . S
C3853 C3852 1.349 . S
C3853 C3869 1.349 . S
C3854 C3852 1.327 . S
C3854 C3873 1.429 . S
C3854 H3878 0.950 . S
C3855 C3872 1.574 . S
C3855 C3874 1.368 . S
C3855 H3879 0.949 . S
H3856 C3860 0.949 . S
C3857 C3858 1.349 . S
C3857 C3859 1.327 . S
C3857 H3880 0.950 . S
C3858 C3857 1.349 . S
C3858 C3870 1.349 . S
C3859 C3857 1.327 . S
C3859 C3875 1.429 . S
C3859 H3881 0.950 . S
C3860 H3856 0.949 . S
C3860 C3868 1.574 . S
C3860 C3876 1.368 . S
H3861 C3869 0.950 . S
H3862 C3867 0.950 . S
H3863 C3868 0.949 . S
H3864 C3870 0.950 . S
H3865 C3871 0.950 . S
H3866 C3872 0.949 . S
C3867 H3862 0.950 . S
C3867 C3869 1.327 . S
C3867 C3873 1.429 . S
C3868 C3860 1.574 . S
C3868 H3863 0.949 . S
C3868 C3874 1.368 . S
C3869 C3853 1.349 . S
C3869 H3861 0.950 . S
C3869 C3867 1.327 . S
C3870 C3858 1.349 . S
C3870 H3864 0.950 . S
C3870 C3871 1.327 . S
C3871 H3865 0.950 . S
C3871 C3870 1.327 . S
C3871 C3875 1.429 . S
C3872 C3855 1.574 . S
C3872 H3866 0.949 . S
C3872 C3876 1.368 . S
C3873 C3854 1.429 . S
C3873 C3867 1.429 . S
C3873 C3874 1.523 . S
C3874 C3855 1.368 . S
C3874 C3868 1.368 . S
C3874 C3873 1.523 . S
C3875 C3859 1.429 . S
C3875 C3871 1.429 . S
C3875 C3876 1.523 . S
C3876 C3860 1.368 . S
C3876 C3872 1.368 . S
C3876 C3875 1.523 . S
H3877 C3852 0.950 . S
H3878 C3854 0.950 . S
H3879 C3855 0.949 . S
H3880 C3857 0.950 . S
H3881 C3859 0.950 . S
C3882 C3883 1.349 . S
C3882 C3884 1.327 . S
C3882 H3907 0.950 . S
C3883 C3882 1.349 . S
C3883 C3899 1.349 . S
C3884 C3882 1.327 . S
C3884 C3903 1.429 . S
C3884 H3908 0.950 . S
C3885 C3902 1.574 1_545 S
C3885 C3904 1.368 . S
C3885 H3909 0.949 . S
H3886 C3890 0.949 . S
C3887 C3888 1.349 . S
C3887 C3889 1.327 . S
C3887 H3910 0.950 . S
C3888 C3887 1.349 . S
C3888 C3900 1.349 . S
C3889 C3887 1.327 . S
C3889 C3905 1.429 . S
C3889 H3911 0.950 . S
C3890 H3886 0.949 . S
C3890 C3898 1.574 1_565 S
C3890 C3906 1.368 . S
H3891 C3899 0.950 . S
H3892 C3897 0.950 . S
H3893 C3898 0.949 . S
H3894 C3900 0.950 . S
H3895 C3901 0.950 . S
H3896 C3902 0.949 . S
C3897 H3892 0.950 . S
C3897 C3899 1.327 . S
C3897 C3903 1.429 . S
C3898 C3890 1.574 1_545 S
C3898 H3893 0.949 . S
C3898 C3904 1.368 . S
C3899 C3883 1.349 . S
C3899 H3891 0.950 . S
C3899 C3897 1.327 . S
C3900 C3888 1.349 . S
C3900 H3894 0.950 . S
C3900 C3901 1.327 . S
C3901 H3895 0.950 . S
C3901 C3900 1.327 . S
C3901 C3905 1.429 . S
C3902 C3885 1.574 1_565 S
C3902 H3896 0.949 . S
C3902 C3906 1.368 . S
C3903 C3884 1.429 . S
C3903 C3897 1.429 . S
C3903 C3904 1.523 . S
C3904 C3885 1.368 . S
C3904 C3898 1.368 . S
C3904 C3903 1.523 . S
C3905 C3889 1.429 . S
C3905 C3901 1.429 . S
C3905 C3906 1.523 . S
C3906 C3890 1.368 . S
C3906 C3902 1.368 . S
C3906 C3905 1.523 . S
H3907 C3882 0.950 . S
H3908 C3884 0.950 . S
H3909 C3885 0.949 . S
H3910 C3887 0.950 . S
H3911 C3889 0.950 . S
C3912 C3913 1.349 . S
C3912 C3914 1.327 . S
C3912 H3937 0.950 . S
C3913 C3912 1.349 . S
C3913 C3929 1.349 . S
C3914 C3912 1.327 . S
C3914 C3933 1.429 . S
C3914 H3938 0.950 . S
C3915 C3932 1.574 . S
C3915 C3934 1.368 . S
C3915 H3939 0.949 . S
H3916 C3920 0.949 . S
C3917 C3918 1.349 . S
C3917 C3919 1.327 . S
C3917 H3940 0.950 . S
C3918 C3917 1.349 . S
C3918 C3930 1.349 . S
C3919 C3917 1.327 . S
C3919 C3935 1.429 . S
C3919 H3941 0.950 . S
C3920 H3916 0.949 . S
C3920 C3928 1.574 . S
C3920 C3936 1.368 . S
H3921 C3929 0.950 . S
H3922 C3927 0.950 . S
H3923 C3928 0.949 . S
H3924 C3930 0.950 . S
H3925 C3931 0.950 . S
H3926 C3932 0.949 . S
C3927 H3922 0.950 . S
C3927 C3929 1.327 . S
C3927 C3933 1.429 . S
C3928 C3920 1.574 . S
C3928 H3923 0.949 . S
C3928 C3934 1.368 . S
C3929 C3913 1.349 . S
C3929 H3921 0.950 . S
C3929 C3927 1.327 . S
C3930 C3918 1.349 . S
C3930 H3924 0.950 . S
C3930 C3931 1.327 . S
C3931 H3925 0.950 . S
C3931 C3930 1.327 . S
C3931 C3935 1.429 . S
C3932 C3915 1.574 . S
C3932 H3926 0.949 . S
C3932 C3936 1.368 . S
C3933 C3914 1.429 . S
C3933 C3927 1.429 . S
C3933 C3934 1.523 . S
C3934 C3915 1.368 . S
C3934 C3928 1.368 . S
C3934 C3933 1.523 . S
C3935 C3919 1.429 . S
C3935 C3931 1.429 . S
C3935 C3936 1.523 . S
C3936 C3920 1.368 . S
C3936 C3932 1.368 . S
C3936 C3935 1.523 . S
H3937 C3912 0.950 . S
H3938 C3914 0.950 . S
H3939 C3915 0.949 . S
H3940 C3917 0.950 . S
H3941 C3919 0.950 . S
C3942 C3943 1.349 . S
C3942 C3944 1.327 . S
C3942 H3967 0.950 . S
C3943 C3942 1.349 . S
C3943 C3959 1.349 . S
C3944 C3942 1.327 . S
C3944 C3963 1.429 . S
C3944 H3968 0.950 . S
C3945 C3962 1.574 1_565 S
C3945 C3964 1.368 . S
C3945 H3969 0.949 . S
H3946 C3950 0.949 . S
C3947 C3948 1.349 . S
C3947 C3949 1.327 . S
C3947 H3970 0.950 . S
C3948 C3947 1.349 . S
C3948 C3960 1.349 . S
C3949 C3947 1.327 . S
C3949 C3965 1.429 . S
C3949 H3971 0.950 . S
C3950 H3946 0.949 . S
C3950 C3958 1.574 1_545 S
C3950 C3966 1.368 . S
H3951 C3959 0.950 . S
H3952 C3957 0.950 . S
H3953 C3958 0.949 . S
H3954 C3960 0.950 . S
H3955 C3961 0.950 . S
H3956 C3962 0.949 . S
C3957 H3952 0.950 . S
C3957 C3959 1.327 . S
C3957 C3963 1.429 . S
C3958 C3950 1.574 1_565 S
C3958 H3953 0.949 . S
C3958 C3964 1.368 . S
C3959 C3943 1.349 . S
C3959 H3951 0.950 . S
C3959 C3957 1.327 . S
C3960 C3948 1.349 . S
C3960 H3954 0.950 . S
C3960 C3961 1.327 . S
C3961 H3955 0.950 . S
C3961 C3960 1.327 . S
C3961 C3965 1.429 . S
C3962 C3945 1.574 1_545 S
C3962 H3956 0.949 . S
C3962 C3966 1.368 . S
C3963 C3944 1.429 . S
C3963 C3957 1.429 . S
C3963 C3964 1.523 . S
C3964 C3945 1.368 . S
C3964 C3958 1.368 . S
C3964 C3963 1.523 . S
C3965 C3949 1.429 . S
C3965 C3961 1.429 . S
C3965 C3966 1.523 . S
C3966 C3950 1.368 . S
C3966 C3962 1.368 . S
C3966 C3965 1.523 . S
H3967 C3942 0.950 . S
H3968 C3944 0.950 . S
H3969 C3945 0.949 . S
H3970 C3947 0.950 . S
H3971 C3949 0.950 . S
C3972 C3973 1.349 . S
C3972 C3974 1.327 . S
C3972 H3997 0.950 . S
C3973 C3972 1.349 . S
C3973 C3989 1.349 . S
C3974 C3972 1.327 . S
C3974 C3993 1.429 . S
C3974 H3998 0.950 . S
C3975 C3992 1.574 . S
C3975 C3994 1.368 . S
C3975 H3999 0.949 . S
H3976 C3980 0.949 . S
C3977 C3978 1.349 . S
C3977 C3979 1.327 . S
C3977 H4000 0.950 . S
C3978 C3977 1.349 . S
C3978 C3990 1.349 . S
C3979 C3977 1.327 . S
C3979 C3995 1.429 . S
C3979 H4001 0.950 . S
C3980 H3976 0.949 . S
C3980 C3988 1.574 . S
C3980 C3996 1.368 . S
H3981 C3989 0.950 . S
H3982 C3987 0.950 . S
H3983 C3988 0.949 . S
H3984 C3990 0.950 . S
H3985 C3991 0.950 . S
H3986 C3992 0.949 . S
C3987 H3982 0.950 . S
C3987 C3989 1.327 . S
C3987 C3993 1.429 . S
C3988 C3980 1.574 . S
C3988 H3983 0.949 . S
C3988 C3994 1.368 . S
C3989 C3973 1.349 . S
C3989 H3981 0.950 . S
C3989 C3987 1.327 . S
C3990 C3978 1.349 . S
C3990 H3984 0.950 . S
C3990 C3991 1.327 . S
C3991 H3985 0.950 . S
C3991 C3990 1.327 . S
C3991 C3995 1.429 . S
C3992 C3975 1.574 . S
C3992 H3986 0.949 . S
C3992 C3996 1.368 . S
C3993 C3974 1.429 . S
C3993 C3987 1.429 . S
C3993 C3994 1.523 . S
C3994 C3975 1.368 . S
C3994 C3988 1.368 . S
C3994 C3993 1.523 . S
C3995 C3979 1.429 . S
C3995 C3991 1.429 . S
C3995 C3996 1.523 . S
C3996 C3980 1.368 . S
C3996 C3992 1.368 . S
C3996 C3995 1.523 . S
H3997 C3972 0.950 . S
H3998 C3974 0.950 . S
H3999 C3975 0.949 . S
H4000 C3977 0.950 . S
H4001 C3979 0.950 . S
C4002 C4003 1.349 . S
C4002 C4004 1.327 . S
C4002 H4027 0.950 . S
C4003 C4002 1.349 . S
C4003 C4019 1.349 . S
C4004 C4002 1.327 . S
C4004 C4023 1.429 . S
C4004 H4028 0.950 . S
C4005 C4022 1.574 1_565 S
C4005 C4024 1.368 . S
C4005 H4029 0.949 . S
H4006 C4010 0.949 . S
C4007 C4008 1.349 . S
C4007 C4009 1.327 . S
C4007 H4030 0.950 . S
C4008 C4007 1.349 . S
C4008 C4020 1.349 . S
C4009 C4007 1.327 . S
C4009 C4025 1.429 . S
C4009 H4031 0.950 . S
C4010 H4006 0.949 . S
C4010 C4018 1.574 1_545 S
C4010 C4026 1.368 . S
H4011 C4019 0.950 . S
H4012 C4017 0.950 . S
H4013 C4018 0.949 . S
H4014 C4020 0.950 . S
H4015 C4021 0.950 . S
H4016 C4022 0.949 . S
C4017 H4012 0.950 . S
C4017 C4019 1.327 . S
C4017 C4023 1.429 . S
C4018 C4010 1.574 1_565 S
C4018 H4013 0.949 . S
C4018 C4024 1.368 . S
C4019 C4003 1.349 . S
C4019 H4011 0.950 . S
C4019 C4017 1.327 . S
C4020 C4008 1.349 . S
C4020 H4014 0.950 . S
C4020 C4021 1.327 . S
C4021 H4015 0.950 . S
C4021 C4020 1.327 . S
C4021 C4025 1.429 . S
C4022 C4005 1.574 1_545 S
C4022 H4016 0.949 . S
C4022 C4026 1.368 . S
C4023 C4004 1.429 . S
C4023 C4017 1.429 . S
C4023 C4024 1.523 . S
C4024 C4005 1.368 . S
C4024 C4018 1.368 . S
C4024 C4023 1.523 . S
C4025 C4009 1.429 . S
C4025 C4021 1.429 . S
C4025 C4026 1.523 . S
C4026 C4010 1.368 . S
C4026 C4022 1.368 . S
C4026 C4025 1.523 . S
H4027 C4002 0.950 . S
H4028 C4004 0.950 . S
H4029 C4005 0.949 . S
H4030 C4007 0.950 . S
H4031 C4009 0.950 . S
C4032 C4033 1.349 . S
C4032 C4034 1.327 . S
C4032 H4057 0.950 . S
C4033 C4032 1.349 . S
C4033 C4049 1.349 . S
C4034 C4032 1.327 . S
C4034 C4053 1.429 . S
C4034 H4058 0.950 . S
C4035 C4052 1.574 . S
C4035 C4054 1.368 . S
C4035 H4059 0.949 . S
H4036 C4040 0.949 . S
C4037 C4038 1.349 . S
C4037 C4039 1.327 . S
C4037 H4060 0.950 . S
C4038 C4037 1.349 . S
C4038 C4050 1.349 . S
C4039 C4037 1.327 . S
C4039 C4055 1.429 . S
C4039 H4061 0.950 . S
C4040 H4036 0.949 . S
C4040 C4048 1.574 . S
C4040 C4056 1.368 . S
H4041 C4049 0.950 . S
H4042 C4047 0.950 . S
H4043 C4048 0.949 . S
H4044 C4050 0.950 . S
H4045 C4051 0.950 . S
H4046 C4052 0.949 . S
C4047 H4042 0.950 . S
C4047 C4049 1.327 . S
C4047 C4053 1.429 . S
C4048 C4040 1.574 . S
C4048 H4043 0.949 . S
C4048 C4054 1.368 . S
C4049 C4033 1.349 . S
C4049 H4041 0.950 . S
C4049 C4047 1.327 . S
C4050 C4038 1.349 . S
C4050 H4044 0.950 . S
C4050 C4051 1.327 . S
C4051 H4045 0.950 . S
C4051 C4050 1.327 . S
C4051 C4055 1.429 . S
C4052 C4035 1.574 . S
C4052 H4046 0.949 . S
C4052 C4056 1.368 . S
C4053 C4034 1.429 . S
C4053 C4047 1.429 . S
C4053 C4054 1.523 . S
C4054 C4035 1.368 . S
C4054 C4048 1.368 . S
C4054 C4053 1.523 . S
C4055 C4039 1.429 . S
C4055 C4051 1.429 . S
C4055 C4056 1.523 . S
C4056 C4040 1.368 . S
C4056 C4052 1.368 . S
C4056 C4055 1.523 . S
H4057 C4032 0.950 . S
H4058 C4034 0.950 . S
H4059 C4035 0.949 . S
H4060 C4037 0.950 . S
H4061 C4039 0.950 . S
C4062 C4063 1.349 . S
C4062 C4064 1.327 . S
C4062 H4087 0.950 . S
C4063 C4062 1.349 . S
C4063 C4079 1.349 . S
C4064 C4062 1.327 . S
C4064 C4083 1.429 . S
C4064 H4088 0.950 . S
C4065 C4082 1.574 . S
C4065 C4084 1.368 . S
C4065 H4089 0.949 . S
H4066 C4070 0.949 . S
C4067 C4068 1.349 . S
C4067 C4069 1.327 . S
C4067 H4090 0.950 . S
C4068 C4067 1.349 . S
C4068 C4080 1.349 . S
C4069 C4067 1.327 . S
C4069 C4085 1.429 . S
C4069 H4091 0.950 . S
C4070 H4066 0.949 . S
C4070 C4078 1.574 . S
C4070 C4086 1.368 . S
H4071 C4079 0.950 . S
H4072 C4077 0.950 . S
H4073 C4078 0.949 . S
H4074 C4080 0.950 . S
H4075 C4081 0.950 . S
H4076 C4082 0.949 . S
C4077 H4072 0.950 . S
C4077 C4079 1.327 . S
C4077 C4083 1.429 . S
C4078 C4070 1.574 . S
C4078 H4073 0.949 . S
C4078 C4084 1.368 . S
C4079 C4063 1.349 . S
C4079 H4071 0.950 . S
C4079 C4077 1.327 . S
C4080 C4068 1.349 . S
C4080 H4074 0.950 . S
C4080 C4081 1.327 . S
C4081 H4075 0.950 . S
C4081 C4080 1.327 . S
C4081 C4085 1.429 . S
C4082 C4065 1.574 . S
C4082 H4076 0.949 . S
C4082 C4086 1.368 . S
C4083 C4064 1.429 . S
C4083 C4077 1.429 . S
C4083 C4084 1.523 . S
C4084 C4065 1.368 . S
C4084 C4078 1.368 . S
C4084 C4083 1.523 . S
C4085 C4069 1.429 . S
C4085 C4081 1.429 . S
C4085 C4086 1.523 . S
C4086 C4070 1.368 . S
C4086 C4082 1.368 . S
C4086 C4085 1.523 . S
H4087 C4062 0.950 . S
H4088 C4064 0.950 . S
H4089 C4065 0.949 . S
H4090 C4067 0.950 . S
H4091 C4069 0.950 . S
C4092 C4093 1.349 . S
C4092 C4094 1.327 . S
C4092 H4117 0.950 . S
C4093 C4092 1.349 . S
C4093 C4109 1.349 . S
C4094 C4092 1.327 . S
C4094 C4113 1.429 . S
C4094 H4118 0.950 . S
C4095 C4112 1.574 . S
C4095 C4114 1.368 . S
C4095 H4119 0.949 . S
H4096 C4100 0.949 . S
C4097 C4098 1.349 . S
C4097 C4099 1.327 . S
C4097 H4120 0.950 . S
C4098 C4097 1.349 . S
C4098 C4110 1.349 . S
C4099 C4097 1.327 . S
C4099 C4115 1.429 . S
C4099 H4121 0.950 . S
C4100 H4096 0.949 . S
C4100 C4108 1.574 . S
C4100 C4116 1.368 . S
H4101 C4109 0.950 . S
H4102 C4107 0.950 . S
H4103 C4108 0.949 . S
H4104 C4110 0.950 . S
H4105 C4111 0.950 . S
H4106 C4112 0.949 . S
C4107 H4102 0.950 . S
C4107 C4109 1.327 . S
C4107 C4113 1.429 . S
C4108 C4100 1.574 . S
C4108 H4103 0.949 . S
C4108 C4114 1.368 . S
C4109 C4093 1.349 . S
C4109 H4101 0.950 . S
C4109 C4107 1.327 . S
C4110 C4098 1.349 . S
C4110 H4104 0.950 . S
C4110 C4111 1.327 . S
C4111 H4105 0.950 . S
C4111 C4110 1.327 . S
C4111 C4115 1.429 . S
C4112 C4095 1.574 . S
C4112 H4106 0.949 . S
C4112 C4116 1.368 . S
C4113 C4094 1.429 . S
C4113 C4107 1.429 . S
C4113 C4114 1.523 . S
C4114 C4095 1.368 . S
C4114 C4108 1.368 . S
C4114 C4113 1.523 . S
C4115 C4099 1.429 . S
C4115 C4111 1.429 . S
C4115 C4116 1.523 1_655 S
C4116 C4100 1.368 . S
C4116 C4112 1.368 . S
C4116 C4115 1.523 1_455 S
H4117 C4092 0.950 . S
H4118 C4094 0.950 . S
H4119 C4095 0.949 . S
H4120 C4097 0.950 . S
H4121 C4099 0.950 . S
C4122 C4123 1.349 . S
C4122 C4124 1.327 . S
C4122 H4147 0.950 . S
C4123 C4122 1.349 . S
C4123 C4139 1.349 . S
C4124 C4122 1.327 . S
C4124 C4143 1.429 . S
C4124 H4148 0.950 . S
C4125 C4142 1.574 . S
C4125 C4144 1.368 . S
C4125 H4149 0.949 . S
H4126 C4130 0.949 . S
C4127 C4128 1.349 . S
C4127 C4129 1.327 . S
C4127 H4150 0.950 . S
C4128 C4127 1.349 . S
C4128 C4140 1.349 . S
C4129 C4127 1.327 . S
C4129 C4145 1.429 . S
C4129 H4151 0.950 . S
C4130 H4126 0.949 . S
C4130 C4138 1.574 . S
C4130 C4146 1.368 . S
H4131 C4139 0.950 . S
H4132 C4137 0.950 . S
H4133 C4138 0.949 . S
H4134 C4140 0.950 . S
H4135 C4141 0.950 . S
H4136 C4142 0.949 . S
C4137 H4132 0.950 . S
C4137 C4139 1.327 . S
C4137 C4143 1.429 . S
C4138 C4130 1.574 . S
C4138 H4133 0.949 . S
C4138 C4144 1.368 . S
C4139 C4123 1.349 . S
C4139 H4131 0.950 . S
C4139 C4137 1.327 . S
C4140 C4128 1.349 . S
C4140 H4134 0.950 . S
C4140 C4141 1.327 . S
C4141 H4135 0.950 . S
C4141 C4140 1.327 . S
C4141 C4145 1.429 . S
C4142 C4125 1.574 . S
C4142 H4136 0.949 . S
C4142 C4146 1.368 . S
C4143 C4124 1.429 . S
C4143 C4137 1.429 . S
C4143 C4144 1.523 . S
C4144 C4125 1.368 . S
C4144 C4138 1.368 . S
C4144 C4143 1.523 . S
C4145 C4129 1.429 . S
C4145 C4141 1.429 . S
C4145 C4146 1.523 . S
C4146 C4130 1.368 . S
C4146 C4142 1.368 . S
C4146 C4145 1.523 . S
H4147 C4122 0.950 . S
H4148 C4124 0.950 . S
H4149 C4125 0.949 . S
H4150 C4127 0.950 . S
H4151 C4129 0.950 . S
C4152 C4153 1.349 . S
C4152 C4154 1.327 . S
C4152 H4177 0.950 . S
C4153 C4152 1.349 . S
C4153 C4169 1.349 . S
C4154 C4152 1.327 . S
C4154 C4173 1.429 . S
C4154 H4178 0.950 . S
C4155 C4172 1.574 . S
C4155 C4174 1.368 . S
C4155 H4179 0.949 1_655 S
H4156 C4160 0.949 . S
C4157 C4158 1.349 . S
C4157 C4159 1.327 . S
C4157 H4180 0.950 . S
C4158 C4157 1.349 . S
C4158 C4170 1.349 . S
C4159 C4157 1.327 . S
C4159 C4175 1.429 . S
C4159 H4181 0.950 . S
C4160 H4156 0.949 . S
C4160 C4168 1.574 . S
C4160 C4176 1.368 . S
H4161 C4169 0.950 . S
H4162 C4167 0.950 . S
H4163 C4168 0.949 . S
H4164 C4170 0.950 . S
H4165 C4171 0.950 . S
H4166 C4172 0.949 . S
C4167 H4162 0.950 . S
C4167 C4169 1.327 . S
C4167 C4173 1.429 . S
C4168 C4160 1.574 . S
C4168 H4163 0.949 . S
C4168 C4174 1.367 . S
C4169 C4153 1.349 . S
C4169 H4161 0.950 . S
C4169 C4167 1.327 . S
C4170 C4158 1.349 . S
C4170 H4164 0.950 . S
C4170 C4171 1.327 . S
C4171 H4165 0.950 . S
C4171 C4170 1.327 . S
C4171 C4175 1.429 . S
C4172 C4155 1.574 . S
C4172 H4166 0.949 . S
C4172 C4176 1.368 . S
C4173 C4154 1.429 . S
C4173 C4167 1.429 . S
C4173 C4174 1.525 1_455 S
C4174 C4155 1.368 . S
C4174 C4168 1.367 . S
C4174 C4173 1.525 1_655 S
C4175 C4159 1.429 . S
C4175 C4171 1.429 . S
C4175 C4176 1.523 . S
C4176 C4160 1.368 . S
C4176 C4172 1.368 . S
C4176 C4175 1.523 . S
H4177 C4152 0.950 . S
H4178 C4154 0.950 . S
H4179 C4155 0.949 1_455 S
H4180 C4157 0.950 . S
H4181 C4159 0.950 . S
C4182 C4183 1.349 . S
C4182 C4184 1.327 . S
C4182 H4207 0.950 . S
C4183 C4182 1.349 . S
C4183 C4199 1.349 . S
C4184 C4182 1.327 . S
C4184 C4203 1.429 . S
C4184 H4208 0.950 . S
C4185 C4202 1.574 . S
C4185 C4204 1.368 . S
C4185 H4209 0.949 . S
H4186 C4190 0.949 . S
C4187 C4188 1.349 . S
C4187 C4189 1.327 . S
C4187 H4210 0.950 . S
C4188 C4187 1.349 . S
C4188 C4200 1.349 . S
C4189 C4187 1.327 . S
C4189 C4205 1.429 . S
C4189 H4211 0.950 . S
C4190 H4186 0.949 . S
C4190 C4198 1.574 . S
C4190 C4206 1.368 . S
H4191 C4199 0.950 . S
H4192 C4197 0.950 . S
H4193 C4198 0.949 . S
H4194 C4200 0.950 . S
H4195 C4201 0.950 . S
H4196 C4202 0.949 . S
C4197 H4192 0.950 . S
C4197 C4199 1.327 . S
C4197 C4203 1.429 . S
C4198 C4190 1.574 . S
C4198 H4193 0.949 . S
C4198 C4204 1.368 . S
C4199 C4183 1.349 . S
C4199 H4191 0.950 . S
C4199 C4197 1.327 . S
C4200 C4188 1.349 . S
C4200 H4194 0.950 . S
C4200 C4201 1.327 . S
C4201 H4195 0.950 . S
C4201 C4200 1.327 . S
C4201 C4205 1.429 . S
C4202 C4185 1.574 . S
C4202 H4196 0.949 . S
C4202 C4206 1.368 . S
C4203 C4184 1.429 . S
C4203 C4197 1.429 . S
C4203 C4204 1.523 . S
C4204 C4185 1.368 . S
C4204 C4198 1.368 . S
C4204 C4203 1.523 . S
C4205 C4189 1.429 . S
C4205 C4201 1.429 . S
C4205 C4206 1.523 . S
C4206 C4190 1.368 . S
C4206 C4202 1.368 . S
C4206 C4205 1.523 . S
H4207 C4182 0.950 . S
H4208 C4184 0.950 . S
H4209 C4185 0.949 . S
H4210 C4187 0.950 . S
H4211 C4189 0.950 . S
C4212 C4213 1.349 . S
C4212 C4214 1.327 . S
C4212 H4237 0.950 . S
C4213 C4212 1.349 . S
C4213 C4229 1.349 . S
C4214 C4212 1.327 . S
C4214 C4233 1.429 . S
C4214 H4238 0.950 . S
C4215 C4232 1.574 . S
C4215 C4234 1.368 . S
C4215 H4239 0.949 . S
H4216 C4220 0.940 1_455 S
C4217 C4218 1.349 . S
C4217 C4219 1.327 . S
C4217 H4240 0.950 . S
C4218 C4217 1.349 . S
C4218 C4230 1.349 . S
C4219 C4217 1.327 . S
C4219 C4235 1.429 . S
C4219 H4241 0.950 . S
C4220 H4216 0.940 1_655 S
C4220 C4228 1.574 . S
C4220 C4236 1.388 . S
H4221 C4229 0.950 . S
H4222 C4227 0.950 . S
H4223 C4228 0.949 . S
H4224 C4230 0.950 . S
H4225 C4231 0.950 . S
H4226 C4232 0.949 . S
C4227 H4222 0.950 . S
C4227 C4229 1.327 . S
C4227 C4233 1.429 . S
C4228 C4220 1.574 . S
C4228 H4223 0.949 . S
C4228 C4234 1.368 . S
C4229 C4213 1.349 . S
C4229 H4221 0.950 . S
C4229 C4227 1.327 . S
C4230 C4218 1.349 . S
C4230 H4224 0.950 . S
C4230 C4231 1.327 . S
C4231 H4225 0.950 . S
C4231 C4230 1.327 . S
C4231 C4235 1.429 . S
C4232 C4215 1.574 . S
C4232 H4226 0.949 . S
C4232 C4236 1.397 . S
C4233 C4214 1.429 . S
C4233 C4227 1.429 . S
C4233 C4234 1.523 . S
C4234 C4215 1.368 . S
C4234 C4228 1.368 . S
C4234 C4233 1.523 . S
C4235 C4219 1.429 . S
C4235 C4231 1.429 . S
C4235 C4236 1.463 1_455 S
C4236 C4220 1.388 . S
C4236 C4232 1.397 . S
C4236 C4235 1.463 1_655 S
H4237 C4212 0.950 . S
H4238 C4214 0.950 . S
H4239 C4215 0.949 . S
H4240 C4217 0.950 . S
H4241 C4219 0.950 . S
C4242 C4243 1.349 . S
C4242 C4244 1.327 . S
C4242 H4267 0.950 . S
C4243 C4242 1.349 . S
C4243 C4259 1.349 . S
C4244 C4242 1.327 . S
C4244 C4263 1.429 . S
C4244 H4268 0.950 . S
C4245 C4262 1.574 . S
C4245 C4264 1.368 . S
C4245 H4269 0.949 . S
H4246 C4250 0.949 . S
C4247 C4248 1.349 . S
C4247 C4249 1.327 . S
C4247 H4270 0.950 . S
C4248 C4247 1.349 . S
C4248 C4260 1.349 . S
C4249 C4247 1.327 . S
C4249 C4265 1.429 . S
C4249 H4271 0.950 . S
C4250 H4246 0.949 . S
C4250 C4258 1.574 . S
C4250 C4266 1.368 . S
H4251 C4259 0.950 . S
H4252 C4257 0.950 . S
H4253 C4258 0.949 . S
H4254 C4260 0.950 . S
H4255 C4261 0.950 . S
H4256 C4262 0.949 . S
C4257 H4252 0.950 . S
C4257 C4259 1.327 . S
C4257 C4263 1.429 . S
C4258 C4250 1.574 . S
C4258 H4253 0.949 . S
C4258 C4264 1.368 . S
C4259 C4243 1.349 . S
C4259 H4251 0.950 . S
C4259 C4257 1.327 . S
C4260 C4248 1.349 . S
C4260 H4254 0.950 . S
C4260 C4261 1.327 . S
C4261 H4255 0.950 . S
C4261 C4260 1.327 . S
C4261 C4265 1.429 . S
C4262 C4245 1.574 . S
C4262 H4256 0.949 . S
C4262 C4266 1.368 . S
C4263 C4244 1.429 . S
C4263 C4257 1.429 . S
C4263 C4264 1.523 . S
C4264 C4245 1.368 . S
C4264 C4258 1.368 . S
C4264 C4263 1.523 . S
C4265 C4249 1.429 . S
C4265 C4261 1.429 . S
C4265 C4266 1.523 1_655 S
C4266 C4250 1.368 . S
C4266 C4262 1.368 . S
C4266 C4265 1.523 1_455 S
H4267 C4242 0.950 . S
H4268 C4244 0.950 . S
H4269 C4245 0.949 . S
H4270 C4247 0.950 . S
H4271 C4249 0.950 . S
C4272 C4273 1.349 . S
C4272 C4274 1.327 . S
C4272 H4297 0.950 . S
C4273 C4272 1.349 . S
C4273 C4289 1.349 . S
C4274 C4272 1.327 . S
C4274 C4293 1.429 . S
C4274 H4298 0.950 . S
C4275 C4292 1.603 . S
C4275 C4294 1.368 . S
C4275 H4299 0.949 . S
H4276 C4280 0.949 1_455 S
C4277 C4278 1.349 . S
C4277 C4279 1.327 . S
C4277 H4300 0.950 . S
C4278 C4277 1.349 . S
C4278 C4290 1.349 . S
C4279 C4277 1.327 . S
C4279 C4295 1.429 . S
C4279 H4301 0.950 . S
C4280 H4276 0.949 1_655 S
C4280 C4288 1.574 . S
C4280 C4296 1.368 1_655 S
H4281 C4289 0.950 . S
H4282 C4287 0.950 . S
H4283 C4288 0.949 . S
H4284 C4290 0.950 . S
H4285 C4291 0.950 . S
H4286 C4292 0.933 1_455 S
C4287 H4282 0.950 . S
C4287 C4289 1.327 . S
C4287 C4293 1.429 . S
C4288 C4280 1.574 . S
C4288 H4283 0.949 . S
C4288 C4294 1.368 . S
C4289 C4273 1.349 . S
C4289 H4281 0.950 . S
C4289 C4287 1.327 . S
C4290 C4278 1.349 . S
C4290 H4284 0.950 . S
C4290 C4291 1.327 . S
C4291 H4285 0.950 . S
C4291 C4290 1.327 . S
C4291 C4295 1.429 . S
C4292 C4275 1.603 . S
C4292 H4286 0.933 1_655 S
C4292 C4296 1.357 1_655 S
C4293 C4274 1.429 . S
C4293 C4287 1.429 . S
C4293 C4294 1.523 . S
C4294 C4275 1.368 . S
C4294 C4288 1.368 . S
C4294 C4293 1.523 . S
C4295 C4279 1.429 . S
C4295 C4291 1.429 . S
C4295 C4296 1.523 . S
C4296 C4280 1.368 1_455 S
C4296 C4292 1.357 1_455 S
C4296 C4295 1.523 . S
H4297 C4272 0.950 . S
H4298 C4274 0.950 . S
H4299 C4275 0.949 . S
H4300 C4277 0.950 . S
H4301 C4279 0.950 . S
C4302 C4303 1.349 . S
C4302 C4304 1.327 . S
C4302 H4327 0.950 . S
C4303 C4302 1.349 . S
C4303 C4319 1.349 . S
C4304 C4302 1.327 . S
C4304 C4323 1.429 . S
C4304 H4328 0.950 . S
C4305 C4322 1.574 . S
C4305 C4324 1.368 . S
C4305 H4329 0.949 . S
H4306 C4310 0.949 . S
C4307 C4308 1.349 . S
C4307 C4309 1.327 . S
C4307 H4330 0.950 . S
C4308 C4307 1.349 . S
C4308 C4320 1.349 . S
C4309 C4307 1.327 . S
C4309 C4325 1.429 . S
C4309 H4331 0.950 . S
C4310 H4306 0.949 . S
C4310 C4318 1.574 . S
C4310 C4326 1.368 . S
H4311 C4319 0.950 . S
H4312 C4317 0.950 . S
H4313 C4318 0.949 . S
H4314 C4320 0.950 . S
H4315 C4321 0.950 . S
H4316 C4322 0.949 . S
C4317 H4312 0.950 . S
C4317 C4319 1.327 . S
C4317 C4323 1.429 . S
C4318 C4310 1.574 . S
C4318 H4313 0.949 . S
C4318 C4324 1.368 . S
C4319 C4303 1.349 . S
C4319 H4311 0.950 . S
C4319 C4317 1.327 . S
C4320 C4308 1.349 . S
C4320 H4314 0.950 . S
C4320 C4321 1.327 . S
C4321 H4315 0.950 . S
C4321 C4320 1.327 . S
C4321 C4325 1.429 . S
C4322 C4305 1.574 . S
C4322 H4316 0.949 . S
C4322 C4326 1.368 . S
C4323 C4304 1.429 . S
C4323 C4317 1.429 . S
C4323 C4324 1.523 . S
C4324 C4305 1.368 . S
C4324 C4318 1.368 . S
C4324 C4323 1.523 . S
C4325 C4309 1.429 . S
C4325 C4321 1.429 . S
C4325 C4326 1.523 . S
C4326 C4310 1.368 . S
C4326 C4322 1.368 . S
C4326 C4325 1.523 . S
H4327 C4302 0.950 . S
H4328 C4304 0.950 . S
H4329 C4305 0.949 . S
H4330 C4307 0.950 . S
H4331 C4309 0.950 . S
C4332 C4333 1.349 . S
C4332 C4334 1.327 . S
C4332 H4357 0.950 . S
C4333 C4332 1.349 . S
C4333 C4349 1.349 . S
C4334 C4332 1.327 . S
C4334 C4353 1.429 . S
C4334 H4358 0.950 . S
C4335 C4352 1.574 1_455 S
C4335 C4354 1.368 . S
C4335 H4359 0.949 . S
H4336 C4340 0.949 . S
C4337 C4338 1.349 . S
C4337 C4339 1.327 . S
C4337 H4360 0.950 . S
C4338 C4337 1.349 . S
C4338 C4350 1.349 . S
C4339 C4337 1.327 . S
C4339 C4355 1.429 . S
C4339 H4361 0.950 . S
C4340 H4336 0.949 . S
C4340 C4348 1.574 1_655 S
C4340 C4356 1.368 . S
H4341 C4349 0.950 . S
H4342 C4347 0.950 . S
H4343 C4348 0.949 . S
H4344 C4350 0.950 . S
H4345 C4351 0.950 . S
H4346 C4352 0.949 . S
C4347 H4342 0.950 . S
C4347 C4349 1.327 . S
C4347 C4353 1.429 . S
C4348 C4340 1.574 1_455 S
C4348 H4343 0.949 . S
C4348 C4354 1.368 . S
C4349 C4333 1.349 . S
C4349 H4341 0.950 . S
C4349 C4347 1.327 . S
C4350 C4338 1.349 . S
C4350 H4344 0.950 . S
C4350 C4351 1.327 . S
C4351 H4345 0.950 . S
C4351 C4350 1.327 . S
C4351 C4355 1.429 . S
C4352 C4335 1.574 1_655 S
C4352 H4346 0.949 . S
C4352 C4356 1.368 . S
C4353 C4334 1.429 . S
C4353 C4347 1.429 . S
C4353 C4354 1.523 . S
C4354 C4335 1.368 . S
C4354 C4348 1.368 . S
C4354 C4353 1.523 . S
C4355 C4339 1.429 . S
C4355 C4351 1.429 . S
C4355 C4356 1.523 . S
C4356 C4340 1.368 . S
C4356 C4352 1.368 . S
C4356 C4355 1.523 . S
H4357 C4332 0.950 . S
H4358 C4334 0.950 . S
H4359 C4335 0.949 . S
H4360 C4337 0.950 . S
H4361 C4339 0.950 . S
C4362 C4363 1.349 . S
C4362 C4364 1.327 . S
C4362 H4387 0.950 . S
C4363 C4362 1.349 . S
C4363 C4379 1.349 . S
C4364 C4362 1.327 . S
C4364 C4383 1.429 . S
C4364 H4388 0.950 . S
C4365 C4382 1.574 . S
C4365 C4384 1.368 . S
C4365 H4389 0.949 . S
H4366 C4370 0.949 . S
C4367 C4368 1.349 . S
C4367 C4369 1.327 . S
C4367 H4390 0.950 . S
C4368 C4367 1.349 . S
C4368 C4380 1.349 . S
C4369 C4367 1.327 . S
C4369 C4385 1.429 . S
C4369 H4391 0.950 . S
C4370 H4366 0.949 . S
C4370 C4378 1.574 . S
C4370 C4386 1.368 . S
H4371 C4379 0.950 . S
H4372 C4377 0.950 . S
H4373 C4378 0.949 . S
H4374 C4380 0.950 . S
H4375 C4381 0.950 . S
H4376 C4382 0.949 . S
C4377 H4372 0.950 . S
C4377 C4379 1.327 . S
C4377 C4383 1.429 . S
C4378 C4370 1.574 . S
C4378 H4373 0.949 . S
C4378 C4384 1.368 . S
C4379 C4363 1.349 . S
C4379 H4371 0.950 . S
C4379 C4377 1.327 . S
C4380 C4368 1.349 . S
C4380 H4374 0.950 . S
C4380 C4381 1.327 . S
C4381 H4375 0.950 . S
C4381 C4380 1.327 . S
C4381 C4385 1.429 . S
C4382 C4365 1.574 . S
C4382 H4376 0.949 . S
C4382 C4386 1.368 . S
C4383 C4364 1.429 . S
C4383 C4377 1.429 . S
C4383 C4384 1.523 . S
C4384 C4365 1.368 . S
C4384 C4378 1.368 . S
C4384 C4383 1.523 . S
C4385 C4369 1.429 . S
C4385 C4381 1.429 . S
C4385 C4386 1.523 . S
C4386 C4370 1.368 . S
C4386 C4382 1.368 . S
C4386 C4385 1.523 . S
H4387 C4362 0.950 . S
H4388 C4364 0.950 . S
H4389 C4365 0.949 . S
H4390 C4367 0.950 . S
H4391 C4369 0.950 . S
C4392 C4393 1.349 . S
C4392 C4394 1.327 . S
C4392 H4417 0.950 . S
C4393 C4392 1.349 . S
C4393 C4409 1.349 . S
C4394 C4392 1.327 . S
C4394 C4413 1.429 . S
C4394 H4418 0.950 . S
C4395 C4412 1.574 . S
C4395 C4414 1.368 1_455 S
C4395 H4419 0.949 1_455 S
H4396 C4400 0.949 . S
C4397 C4398 1.349 . S
C4397 C4399 1.327 . S
C4397 H4420 0.950 . S
C4398 C4397 1.349 . S
C4398 C4410 1.349 . S
C4399 C4397 1.327 . S
C4399 C4415 1.429 . S
C4399 H4421 0.950 . S
C4400 H4396 0.949 . S
C4400 C4408 1.574 . S
C4400 C4416 1.368 . S
H4401 C4409 0.950 . S
H4402 C4407 0.950 . S
H4403 C4408 0.949 1_655 S
H4404 C4410 0.950 . S
H4405 C4411 0.950 . S
H4406 C4412 0.949 . S
C4407 H4402 0.950 . S
C4407 C4409 1.327 . S
C4407 C4413 1.429 . S
C4408 C4400 1.574 . S
C4408 H4403 0.949 1_455 S
C4408 C4414 1.368 1_455 S
C4409 C4393 1.349 . S
C4409 H4401 0.950 . S
C4409 C4407 1.327 . S
C4410 C4398 1.349 . S
C4410 H4404 0.950 . S
C4410 C4411 1.327 . S
C4411 H4405 0.950 . S
C4411 C4410 1.327 . S
C4411 C4415 1.429 . S
C4412 C4395 1.574 . S
C4412 H4406 0.949 . S
C4412 C4416 1.368 . S
C4413 C4394 1.429 . S
C4413 C4407 1.429 . S
C4413 C4414 1.523 . S
C4414 C4395 1.368 1_655 S
C4414 C4408 1.368 1_655 S
C4414 C4413 1.523 . S
C4415 C4399 1.429 . S
C4415 C4411 1.429 . S
C4415 C4416 1.523 . S
C4416 C4400 1.368 . S
C4416 C4412 1.368 . S
C4416 C4415 1.523 . S
H4417 C4392 0.950 . S
H4418 C4394 0.950 . S
H4419 C4395 0.949 1_655 S
H4420 C4397 0.950 . S
H4421 C4399 0.950 . S
C4422 C4423 1.349 . S
C4422 C4424 1.327 . S
C4422 H4447 0.950 . S
C4423 C4422 1.349 . S
C4423 C4439 1.349 . S
C4424 C4422 1.327 . S
C4424 C4443 1.429 . S
C4424 H4448 0.950 . S
C4425 C4442 1.574 . S
C4425 C4444 1.368 . S
C4425 H4449 0.949 . S
H4426 C4430 0.949 . S
C4427 C4428 1.349 . S
C4427 C4429 1.327 . S
C4427 H4450 0.950 . S
C4428 C4427 1.349 . S
C4428 C4440 1.349 . S
C4429 C4427 1.327 . S
C4429 C4445 1.429 . S
C4429 H4451 0.950 . S
C4430 H4426 0.949 . S
C4430 C4438 1.574 . S
C4430 C4446 1.368 . S
H4431 C4439 0.950 . S
H4432 C4437 0.950 . S
H4433 C4438 0.949 . S
H4434 C4440 0.950 . S
H4435 C4441 0.950 . S
H4436 C4442 0.949 . S
C4437 H4432 0.950 . S
C4437 C4439 1.327 . S
C4437 C4443 1.429 . S
C4438 C4430 1.574 . S
C4438 H4433 0.949 . S
C4438 C4444 1.368 . S
C4439 C4423 1.349 . S
C4439 H4431 0.950 . S
C4439 C4437 1.327 . S
C4440 C4428 1.349 . S
C4440 H4434 0.950 . S
C4440 C4441 1.327 . S
C4441 H4435 0.950 . S
C4441 C4440 1.327 . S
C4441 C4445 1.429 . S
C4442 C4425 1.574 . S
C4442 H4436 0.949 . S
C4442 C4446 1.368 . S
C4443 C4424 1.429 . S
C4443 C4437 1.429 . S
C4443 C4444 1.523 . S
C4444 C4425 1.368 . S
C4444 C4438 1.368 . S
C4444 C4443 1.523 . S
C4445 C4429 1.429 . S
C4445 C4441 1.429 . S
C4445 C4446 1.523 . S
C4446 C4430 1.368 . S
C4446 C4442 1.368 . S
C4446 C4445 1.523 . S
H4447 C4422 0.950 . S
H4448 C4424 0.950 . S
H4449 C4425 0.949 . S
H4450 C4427 0.950 . S
H4451 C4429 0.950 . S
C4452 C4453 1.349 . S
C4452 C4454 1.327 . S
C4452 H4477 0.950 . S
C4453 C4452 1.349 . S
C4453 C4469 1.349 . S
C4454 C4452 1.327 . S
C4454 C4473 1.429 . S
C4454 H4478 0.950 . S
C4455 C4472 1.574 1_655 S
C4455 C4474 1.368 . S
C4455 H4479 0.949 . S
H4456 C4460 0.949 . S
C4457 C4458 1.349 . S
C4457 C4459 1.327 . S
C4457 H4480 0.950 . S
C4458 C4457 1.349 . S
C4458 C4470 1.349 . S
C4459 C4457 1.327 . S
C4459 C4475 1.429 . S
C4459 H4481 0.950 . S
C4460 H4456 0.949 . S
C4460 C4468 1.574 1_455 S
C4460 C4476 1.368 . S
H4461 C4469 0.950 . S
H4462 C4467 0.950 . S
H4463 C4468 0.949 . S
H4464 C4470 0.950 . S
H4465 C4471 0.950 . S
H4466 C4472 0.949 . S
C4467 H4462 0.950 . S
C4467 C4469 1.327 . S
C4467 C4473 1.429 . S
C4468 C4460 1.574 1_655 S
C4468 H4463 0.949 . S
C4468 C4474 1.368 . S
C4469 C4453 1.349 . S
C4469 H4461 0.950 . S
C4469 C4467 1.327 . S
C4470 C4458 1.349 . S
C4470 H4464 0.950 . S
C4470 C4471 1.327 . S
C4471 H4465 0.950 . S
C4471 C4470 1.327 . S
C4471 C4475 1.429 . S
C4472 C4455 1.574 1_455 S
C4472 H4466 0.949 . S
C4472 C4476 1.368 . S
C4473 C4454 1.429 . S
C4473 C4467 1.429 . S
C4473 C4474 1.523 . S
C4474 C4455 1.368 . S
C4474 C4468 1.368 . S
C4474 C4473 1.523 . S
C4475 C4459 1.429 . S
C4475 C4471 1.429 . S
C4475 C4476 1.523 . S
C4476 C4460 1.368 . S
C4476 C4472 1.368 . S
C4476 C4475 1.523 . S
H4477 C4452 0.950 . S
H4478 C4454 0.950 . S
H4479 C4455 0.949 . S
H4480 C4457 0.950 . S
H4481 C4459 0.950 . S
C4482 C4483 1.349 . S
C4482 C4484 1.327 . S
C4482 H4507 0.950 . S
C4483 C4482 1.349 . S
C4483 C4499 1.349 . S
C4484 C4482 1.327 . S
C4484 C4503 1.429 . S
C4484 H4508 0.950 . S
C4485 C4502 1.574 . S
C4485 C4504 1.368 . S
C4485 H4509 0.949 . S
H4486 C4490 0.949 . S
C4487 C4488 1.349 . S
C4487 C4489 1.327 . S
C4487 H4510 0.950 . S
C4488 C4487 1.349 . S
C4488 C4500 1.349 . S
C4489 C4487 1.327 . S
C4489 C4505 1.429 . S
C4489 H4511 0.950 . S
C4490 H4486 0.949 . S
C4490 C4498 1.574 . S
C4490 C4506 1.368 . S
H4491 C4499 0.950 . S
H4492 C4497 0.950 . S
H4493 C4498 0.949 . S
H4494 C4500 0.950 . S
H4495 C4501 0.950 . S
H4496 C4502 0.949 . S
C4497 H4492 0.950 . S
C4497 C4499 1.327 . S
C4497 C4503 1.429 . S
C4498 C4490 1.574 . S
C4498 H4493 0.949 . S
C4498 C4504 1.368 . S
C4499 C4483 1.349 . S
C4499 H4491 0.950 . S
C4499 C4497 1.327 . S
C4500 C4488 1.349 . S
C4500 H4494 0.950 . S
C4500 C4501 1.327 . S
C4501 H4495 0.950 . S
C4501 C4500 1.327 . S
C4501 C4505 1.429 . S
C4502 C4485 1.574 . S
C4502 H4496 0.949 . S
C4502 C4506 1.368 . S
C4503 C4484 1.429 . S
C4503 C4497 1.429 . S
C4503 C4504 1.523 . S
C4504 C4485 1.368 . S
C4504 C4498 1.368 . S
C4504 C4503 1.523 . S
C4505 C4489 1.429 . S
C4505 C4501 1.429 . S
C4505 C4506 1.523 . S
C4506 C4490 1.368 . S
C4506 C4502 1.368 . S
C4506 C4505 1.523 . S
H4507 C4482 0.950 . S
H4508 C4484 0.950 . S
H4509 C4485 0.949 . S
H4510 C4487 0.950 . S
H4511 C4489 0.950 . S
C4512 C4513 1.349 . S
C4512 C4514 1.327 . S
C4512 H4537 0.950 . S
C4513 C4512 1.349 . S
C4513 C4529 1.349 . S
C4514 C4512 1.327 . S
C4514 C4533 1.429 . S
C4514 H4538 0.950 . S
C4515 C4532 1.590 . S
C4515 C4534 1.368 . S
C4515 H4539 0.949 . S
H4516 C4520 0.978 . S
C4517 C4518 1.349 . S
C4517 C4519 1.327 . S
C4517 H4540 0.950 . S
C4518 C4517 1.349 . S
C4518 C4530 1.349 . S
C4519 C4517 1.327 . S
C4519 C4535 1.429 . S
C4519 H4541 0.950 . S
C4520 H4516 0.978 . S
C4520 C4528 1.523 1_565 S
C4520 C4536 1.388 . S
H4521 C4529 0.950 . S
H4522 C4527 0.950 . S
H4523 C4528 0.949 . S
H4524 C4530 0.950 . S
H4525 C4531 0.950 . S
H4526 C4532 0.941 1_565 S
C4527 H4522 0.950 . S
C4527 C4529 1.327 . S
C4527 C4533 1.429 . S
C4528 C4520 1.523 1_545 S
C4528 H4523 0.949 . S
C4528 C4534 1.368 . S
C4529 C4513 1.349 . S
C4529 H4521 0.950 . S
C4529 C4527 1.327 . S
C4530 C4518 1.349 . S
C4530 H4524 0.950 . S
C4530 C4531 1.327 . S
C4531 H4525 0.950 . S
C4531 C4530 1.327 . S
C4531 C4535 1.429 . S
C4532 C4515 1.590 . S
C4532 H4526 0.941 1_545 S
C4532 C4536 1.362 1_545 S
C4533 C4514 1.429 . S
C4533 C4527 1.429 . S
C4533 C4534 1.523 . S
C4534 C4515 1.368 . S
C4534 C4528 1.368 . S
C4534 C4533 1.523 . S
C4535 C4519 1.429 . S
C4535 C4531 1.429 . S
C4535 C4536 1.523 . S
C4536 C4520 1.388 . S
C4536 C4532 1.362 1_565 S
C4536 C4535 1.523 . S
H4537 C4512 0.950 . S
H4538 C4514 0.950 . S
H4539 C4515 0.949 . S
H4540 C4517 0.950 . S
H4541 C4519 0.950 . S
C4542 C4543 1.349 . S
C4542 C4544 1.327 . S
C4542 H4567 0.950 . S
C4543 C4542 1.349 . S
C4543 C4559 1.349 . S
C4544 C4542 1.327 . S
C4544 C4563 1.429 . S
C4544 H4568 0.950 . S
C4545 C4562 1.574 . S
C4545 C4564 1.368 . S
C4545 H4569 0.949 . S
H4546 C4550 0.949 . S
C4547 C4548 1.349 . S
C4547 C4549 1.327 . S
C4547 H4570 0.950 . S
C4548 C4547 1.349 . S
C4548 C4560 1.349 . S
C4549 C4547 1.327 . S
C4549 C4565 1.429 . S
C4549 H4571 0.950 . S
C4550 H4546 0.949 . S
C4550 C4558 1.574 . S
C4550 C4566 1.368 . S
H4551 C4559 0.950 . S
H4552 C4557 0.950 . S
H4553 C4558 0.949 . S
H4554 C4560 0.950 . S
H4555 C4561 0.950 . S
H4556 C4562 0.949 . S
C4557 H4552 0.950 . S
C4557 C4559 1.327 . S
C4557 C4563 1.429 . S
C4558 C4550 1.574 . S
C4558 H4553 0.949 . S
C4558 C4564 1.368 . S
C4559 C4543 1.349 . S
C4559 H4551 0.950 . S
C4559 C4557 1.327 . S
C4560 C4548 1.349 . S
C4560 H4554 0.950 . S
C4560 C4561 1.327 . S
C4561 H4555 0.950 . S
C4561 C4560 1.327 . S
C4561 C4565 1.429 . S
C4562 C4545 1.574 . S
C4562 H4556 0.949 . S
C4562 C4566 1.368 . S
C4563 C4544 1.429 . S
C4563 C4557 1.429 . S
C4563 C4564 1.523 . S
C4564 C4545 1.368 . S
C4564 C4558 1.368 . S
C4564 C4563 1.523 . S
C4565 C4549 1.429 . S
C4565 C4561 1.429 . S
C4565 C4566 1.523 . S
C4566 C4550 1.368 . S
C4566 C4562 1.368 . S
C4566 C4565 1.523 . S
H4567 C4542 0.950 . S
H4568 C4544 0.950 . S
H4569 C4545 0.949 . S
H4570 C4547 0.950 . S
H4571 C4549 0.950 . S
C4572 C4573 1.349 . S
C4572 C4574 1.327 . S
C4572 H4597 0.950 . S
C4573 C4572 1.349 . S
C4573 C4589 1.349 . S
C4574 C4572 1.327 . S
C4574 C4593 1.429 . S
C4574 H4598 0.950 . S
C4575 C4592 1.625 . S
C4575 C4594 1.351 1_565 S
C4575 H4599 0.920 1_565 S
H4576 C4580 0.949 . S
C4577 C4578 1.349 . S
C4577 C4579 1.327 . S
C4577 H4600 0.950 . S
C4578 C4577 1.349 . S
C4578 C4590 1.349 . S
C4579 C4577 1.327 . S
C4579 C4595 1.429 . S
C4579 H4601 0.950 . S
C4580 H4576 0.949 . S
C4580 C4588 1.574 . S
C4580 C4596 1.368 . S
H4581 C4589 0.950 . S
H4582 C4587 0.950 . S
H4583 C4588 0.949 1_545 S
H4584 C4590 0.950 . S
H4585 C4591 0.950 . S
H4586 C4592 0.949 . S
C4587 H4582 0.950 . S
C4587 C4589 1.327 . S
C4587 C4593 1.429 . S
C4588 C4580 1.574 . S
C4588 H4583 0.949 1_565 S
C4588 C4594 1.368 1_565 S
C4589 C4573 1.349 . S
C4589 H4581 0.950 . S
C4589 C4587 1.327 . S
C4590 C4578 1.349 . S
C4590 H4584 0.950 . S
C4590 C4591 1.327 . S
C4591 H4585 0.950 . S
C4591 C4590 1.327 . S
C4591 C4595 1.429 . S
C4592 C4575 1.625 . S
C4592 H4586 0.949 . S
C4592 C4596 1.368 . S
C4593 C4574 1.429 . S
C4593 C4587 1.429 . S
C4593 C4594 1.523 . S
C4594 C4575 1.351 1_545 S
C4594 C4588 1.368 1_545 S
C4594 C4593 1.523 . S
C4595 C4579 1.429 . S
C4595 C4591 1.429 . S
C4595 C4596 1.523 . S
C4596 C4580 1.368 . S
C4596 C4592 1.368 . S
C4596 C4595 1.523 . S
H4597 C4572 0.950 . S
H4598 C4574 0.950 . S
H4599 C4575 0.920 1_545 S
H4600 C4577 0.950 . S
H4601 C4579 0.950 . S
C4602 C4603 1.349 . S
C4602 C4604 1.327 . S
C4602 H4627 0.950 . S
C4603 C4602 1.349 . S
C4603 C4619 1.349 . S
C4604 C4602 1.327 . S
C4604 C4623 1.429 . S
C4604 H4628 0.950 . S
C4605 C4622 1.574 . S
C4605 C4624 1.368 . S
C4605 H4629 0.949 . S
H4606 C4610 0.949 . S
C4607 C4608 1.349 . S
C4607 C4609 1.327 . S
C4607 H4630 0.950 . S
C4608 C4607 1.349 . S
C4608 C4620 1.349 . S
C4609 C4607 1.327 . S
C4609 C4625 1.429 . S
C4609 H4631 0.950 . S
C4610 H4606 0.949 . S
C4610 C4618 1.574 . S
C4610 C4626 1.368 . S
H4611 C4619 0.950 . S
H4612 C4617 0.950 . S
H4613 C4618 0.949 . S
H4614 C4620 0.950 . S
H4615 C4621 0.950 . S
H4616 C4622 0.949 . S
C4617 H4612 0.950 . S
C4617 C4619 1.327 . S
C4617 C4623 1.429 . S
C4618 C4610 1.574 . S
C4618 H4613 0.949 . S
C4618 C4624 1.368 . S
C4619 C4603 1.349 . S
C4619 H4611 0.950 . S
C4619 C4617 1.327 . S
C4620 C4608 1.349 . S
C4620 H4614 0.950 . S
C4620 C4621 1.327 . S
C4621 H4615 0.950 . S
C4621 C4620 1.327 . S
C4621 C4625 1.429 . S
C4622 C4605 1.574 . S
C4622 H4616 0.949 . S
C4622 C4626 1.368 . S
C4623 C4604 1.429 . S
C4623 C4617 1.429 . S
C4623 C4624 1.523 . S
C4624 C4605 1.368 . S
C4624 C4618 1.368 . S
C4624 C4623 1.523 . S
C4625 C4609 1.429 . S
C4625 C4621 1.429 . S
C4625 C4626 1.523 . S
C4626 C4610 1.368 . S
C4626 C4622 1.368 . S
C4626 C4625 1.523 . S
H4627 C4602 0.950 . S
H4628 C4604 0.950 . S
H4629 C4605 0.949 . S
H4630 C4607 0.950 . S
H4631 C4609 0.950 . S
C4632 C4633 1.349 . S
C4632 C4634 1.327 . S
C4632 H4657 0.950 . S
C4633 C4632 1.349 . S
C4633 C4649 1.349 . S
C4634 C4632 1.327 . S
C4634 C4653 1.429 . S
C4634 H4658 0.950 . S
C4635 C4652 1.574 1_545 S
C4635 C4654 1.368 . S
C4635 H4659 0.949 . S
H4636 C4640 0.972 . S
C4637 C4638 1.349 . S
C4637 C4639 1.327 . S
C4637 H4660 0.950 . S
C4638 C4637 1.349 . S
C4638 C4650 1.349 . S
C4639 C4637 1.327 . S
C4639 C4655 1.429 . S
C4639 H4661 0.950 . S
C4640 H4636 0.972 . S
C4640 C4648 1.530 1_565 S
C4640 C4656 1.389 . S
H4641 C4649 0.950 . S
H4642 C4647 0.950 . S
H4643 C4648 0.949 . S
H4644 C4650 0.950 . S
H4645 C4651 0.950 . S
H4646 C4652 0.949 . S
C4647 H4642 0.950 . S
C4647 C4649 1.327 . S
C4647 C4653 1.429 . S
C4648 C4640 1.530 1_545 S
C4648 H4643 0.949 . S
C4648 C4654 1.368 . S
C4649 C4633 1.349 . S
C4649 H4641 0.950 . S
C4649 C4647 1.327 . S
C4650 C4638 1.349 . S
C4650 H4644 0.950 . S
C4650 C4651 1.327 . S
C4651 H4645 0.950 . S
C4651 C4650 1.327 . S
C4651 C4655 1.429 . S
C4652 C4635 1.574 1_565 S
C4652 H4646 0.949 . S
C4652 C4656 1.368 . S
C4653 C4634 1.429 . S
C4653 C4647 1.429 . S
C4653 C4654 1.523 . S
C4654 C4635 1.368 . S
C4654 C4648 1.368 . S
C4654 C4653 1.523 . S
C4655 C4639 1.429 . S
C4655 C4651 1.429 . S
C4655 C4656 1.523 . S
C4656 C4640 1.389 . S
C4656 C4652 1.368 . S
C4656 C4655 1.523 . S
H4657 C4632 0.950 . S
H4658 C4634 0.950 . S
H4659 C4635 0.949 . S
H4660 C4637 0.950 . S
H4661 C4639 0.950 . S
C4662 C4663 1.349 . S
C4662 C4664 1.327 . S
C4662 H4687 0.950 . S
C4663 C4662 1.349 . S
C4663 C4679 1.349 . S
C4664 C4662 1.327 . S
C4664 C4683 1.429 . S
C4664 H4688 0.950 . S
C4665 C4682 1.574 . S
C4665 C4684 1.368 . S
C4665 H4689 0.949 . S
H4666 C4670 0.949 . S
C4667 C4668 1.349 . S
C4667 C4669 1.327 . S
C4667 H4690 0.950 . S
C4668 C4667 1.349 . S
C4668 C4680 1.349 . S
C4669 C4667 1.327 . S
C4669 C4685 1.429 . S
C4669 H4691 0.950 . S
C4670 H4666 0.949 . S
C4670 C4678 1.574 . S
C4670 C4686 1.368 . S
H4671 C4679 0.950 . S
H4672 C4677 0.950 . S
H4673 C4678 0.949 . S
H4674 C4680 0.950 . S
H4675 C4681 0.950 . S
H4676 C4682 0.949 . S
C4677 H4672 0.950 . S
C4677 C4679 1.327 . S
C4677 C4683 1.429 . S
C4678 C4670 1.574 . S
C4678 H4673 0.949 . S
C4678 C4684 1.368 . S
C4679 C4663 1.349 . S
C4679 H4671 0.950 . S
C4679 C4677 1.327 . S
C4680 C4668 1.349 . S
C4680 H4674 0.950 . S
C4680 C4681 1.327 . S
C4681 H4675 0.950 . S
C4681 C4680 1.327 . S
C4681 C4685 1.429 . S
C4682 C4665 1.574 . S
C4682 H4676 0.949 . S
C4682 C4686 1.368 . S
C4683 C4664 1.429 . S
C4683 C4677 1.429 . S
C4683 C4684 1.523 . S
C4684 C4665 1.368 . S
C4684 C4678 1.368 . S
C4684 C4683 1.523 . S
C4685 C4669 1.429 . S
C4685 C4681 1.429 . S
C4685 C4686 1.523 . S
C4686 C4670 1.368 . S
C4686 C4682 1.368 . S
C4686 C4685 1.523 . S
H4687 C4662 0.950 . S
H4688 C4664 0.950 . S
H4689 C4665 0.949 . S
H4690 C4667 0.950 . S
H4691 C4669 0.950 . S
C4692 C4693 1.349 . S
C4692 C4694 1.327 . S
C4692 H4717 0.950 . S
C4693 C4692 1.349 . S
C4693 C4709 1.349 . S
C4694 C4692 1.327 . S
C4694 C4713 1.429 . S
C4694 H4718 0.950 . S
C4695 C4712 1.574 1_545 S
C4695 C4714 1.368 . S
C4695 H4719 0.949 . S
H4696 C4700 0.949 . S
C4697 C4698 1.349 . S
C4697 C4699 1.327 . S
C4697 H4720 0.950 . S
C4698 C4697 1.349 . S
C4698 C4710 1.349 . S
C4699 C4697 1.327 . S
C4699 C4715 1.429 . S
C4699 H4721 0.950 . S
C4700 H4696 0.949 . S
C4700 C4708 1.574 1_565 S
C4700 C4716 1.368 . S
H4701 C4709 0.950 . S
H4702 C4707 0.950 . S
H4703 C4708 0.949 . S
H4704 C4710 0.950 . S
H4705 C4711 0.950 . S
H4706 C4712 0.949 . S
C4707 H4702 0.950 . S
C4707 C4709 1.327 . S
C4707 C4713 1.429 . S
C4708 C4700 1.574 1_545 S
C4708 H4703 0.949 . S
C4708 C4714 1.368 . S
C4709 C4693 1.349 . S
C4709 H4701 0.950 . S
C4709 C4707 1.327 . S
C4710 C4698 1.349 . S
C4710 H4704 0.950 . S
C4710 C4711 1.327 . S
C4711 H4705 0.950 . S
C4711 C4710 1.327 . S
C4711 C4715 1.429 . S
C4712 C4695 1.574 1_565 S
C4712 H4706 0.949 . S
C4712 C4716 1.368 . S
C4713 C4694 1.429 . S
C4713 C4707 1.429 . S
C4713 C4714 1.523 . S
C4714 C4695 1.368 . S
C4714 C4708 1.368 . S
C4714 C4713 1.523 . S
C4715 C4699 1.429 . S
C4715 C4711 1.429 . S
C4715 C4716 1.523 . S
C4716 C4700 1.368 . S
C4716 C4712 1.368 . S
C4716 C4715 1.523 . S
H4717 C4692 0.950 . S
H4718 C4694 0.950 . S
H4719 C4695 0.949 . S
H4720 C4697 0.950 . S
H4721 C4699 0.950 . S
C4722 C4723 1.349 . S
C4722 C4724 1.327 . S
C4722 H4747 0.950 . S
C4723 C4722 1.349 . S
C4723 C4739 1.349 . S
C4724 C4722 1.327 . S
C4724 C4743 1.429 . S
C4724 H4748 0.950 . S
C4725 C4742 1.574 . S
C4725 C4744 1.368 . S
C4725 H4749 0.949 . S
H4726 C4730 0.949 . S
C4727 C4728 1.349 . S
C4727 C4729 1.327 . S
C4727 H4750 0.950 . S
C4728 C4727 1.349 . S
C4728 C4740 1.349 . S
C4729 C4727 1.327 . S
C4729 C4745 1.429 . S
C4729 H4751 0.950 . S
C4730 H4726 0.949 . S
C4730 C4738 1.574 . S
C4730 C4746 1.368 . S
H4731 C4739 0.950 . S
H4732 C4737 0.950 . S
H4733 C4738 0.949 . S
H4734 C4740 0.950 . S
H4735 C4741 0.950 . S
H4736 C4742 0.949 . S
C4737 H4732 0.950 . S
C4737 C4739 1.327 . S
C4737 C4743 1.429 . S
C4738 C4730 1.574 . S
C4738 H4733 0.949 . S
C4738 C4744 1.368 . S
C4739 C4723 1.349 . S
C4739 H4731 0.950 . S
C4739 C4737 1.327 . S
C4740 C4728 1.349 . S
C4740 H4734 0.950 . S
C4740 C4741 1.327 . S
C4741 H4735 0.950 . S
C4741 C4740 1.327 . S
C4741 C4745 1.429 . S
C4742 C4725 1.574 . S
C4742 H4736 0.949 . S
C4742 C4746 1.368 . S
C4743 C4724 1.429 . S
C4743 C4737 1.429 . S
C4743 C4744 1.523 . S
C4744 C4725 1.368 . S
C4744 C4738 1.368 . S
C4744 C4743 1.523 . S
C4745 C4729 1.429 . S
C4745 C4741 1.429 . S
C4745 C4746 1.523 . S
C4746 C4730 1.368 . S
C4746 C4742 1.368 . S
C4746 C4745 1.523 . S
H4747 C4722 0.950 . S
H4748 C4724 0.950 . S
H4749 C4725 0.949 . S
H4750 C4727 0.950 . S
H4751 C4729 0.950 . S
C4752 C4753 1.349 . S
C4752 C4754 1.327 . S
C4752 H4777 0.950 . S
C4753 C4752 1.349 . S
C4753 C4769 1.349 . S
C4754 C4752 1.327 . S
C4754 C4773 1.429 . S
C4754 H4778 0.950 . S
C4755 C4772 1.574 1_556 S
C4755 C4774 1.368 . S
C4755 H4779 0.949 . S
H4756 C4760 0.949 . S
C4757 C4758 1.349 . S
C4757 C4759 1.327 . S
C4757 H4780 0.950 . S
C4758 C4757 1.349 . S
C4758 C4770 1.349 . S
C4759 C4757 1.327 . S
C4759 C4775 1.429 . S
C4759 H4781 0.950 . S
C4760 H4756 0.949 . S
C4760 C4768 1.574 1_554 S
C4760 C4776 1.368 . S
H4761 C4769 0.950 . S
H4762 C4767 0.950 . S
H4763 C4768 0.949 . S
H4764 C4770 0.950 . S
H4765 C4771 0.950 . S
H4766 C4772 0.949 . S
C4767 H4762 0.950 . S
C4767 C4769 1.327 . S
C4767 C4773 1.429 . S
C4768 C4760 1.574 1_556 S
C4768 H4763 0.949 . S
C4768 C4774 1.368 . S
C4769 C4753 1.349 . S
C4769 H4761 0.950 . S
C4769 C4767 1.327 . S
C4770 C4758 1.349 . S
C4770 H4764 0.950 . S
C4770 C4771 1.327 . S
C4771 H4765 0.950 . S
C4771 C4770 1.327 . S
C4771 C4775 1.429 . S
C4772 C4755 1.574 1_554 S
C4772 H4766 0.949 . S
C4772 C4776 1.368 . S
C4773 C4754 1.429 . S
C4773 C4767 1.429 . S
C4773 C4774 1.523 . S
C4774 C4755 1.368 . S
C4774 C4768 1.368 . S
C4774 C4773 1.523 . S
C4775 C4759 1.429 . S
C4775 C4771 1.429 . S
C4775 C4776 1.523 . S
C4776 C4760 1.368 . S
C4776 C4772 1.368 . S
C4776 C4775 1.523 . S
H4777 C4752 0.950 . S
H4778 C4754 0.950 . S
H4779 C4755 0.949 . S
H4780 C4757 0.950 . S
H4781 C4759 0.950 . S
C4782 C4783 1.349 . S
C4782 C4784 1.327 . S
C4782 H4807 0.950 . S
C4783 C4782 1.349 . S
C4783 C4799 1.349 . S
C4784 C4782 1.327 . S
C4784 C4803 1.429 . S
C4784 H4808 0.950 . S
C4785 C4802 1.574 1_556 S
C4785 C4804 1.368 . S
C4785 H4809 0.949 . S
H4786 C4790 0.949 . S
C4787 C4788 1.349 . S
C4787 C4789 1.327 . S
C4787 H4810 0.950 . S
C4788 C4787 1.349 . S
C4788 C4800 1.349 . S
C4789 C4787 1.327 . S
C4789 C4805 1.429 . S
C4789 H4811 0.950 . S
C4790 H4786 0.949 . S
C4790 C4798 1.574 1_554 S
C4790 C4806 1.368 . S
H4791 C4799 0.950 . S
H4792 C4797 0.950 . S
H4793 C4798 0.949 . S
H4794 C4800 0.950 . S
H4795 C4801 0.950 . S
H4796 C4802 0.949 . S
C4797 H4792 0.950 . S
C4797 C4799 1.327 . S
C4797 C4803 1.429 . S
C4798 C4790 1.574 1_556 S
C4798 H4793 0.949 . S
C4798 C4804 1.368 . S
C4799 C4783 1.349 . S
C4799 H4791 0.950 . S
C4799 C4797 1.327 . S
C4800 C4788 1.349 . S
C4800 H4794 0.950 . S
C4800 C4801 1.327 . S
C4801 H4795 0.950 . S
C4801 C4800 1.327 . S
C4801 C4805 1.429 . S
C4802 C4785 1.574 1_554 S
C4802 H4796 0.949 . S
C4802 C4806 1.368 . S
C4803 C4784 1.429 . S
C4803 C4797 1.429 . S
C4803 C4804 1.523 . S
C4804 C4785 1.368 . S
C4804 C4798 1.368 . S
C4804 C4803 1.523 . S
C4805 C4789 1.429 . S
C4805 C4801 1.429 . S
C4805 C4806 1.523 . S
C4806 C4790 1.368 . S
C4806 C4802 1.368 . S
C4806 C4805 1.523 . S
H4807 C4782 0.950 . S
H4808 C4784 0.950 . S
H4809 C4785 0.949 . S
H4810 C4787 0.950 . S
H4811 C4789 0.950 . S
C4812 C4813 1.349 . S
C4812 C4814 1.327 . S
C4812 H4837 0.950 . S
C4813 C4812 1.349 . S
C4813 C4829 1.349 . S
C4814 C4812 1.327 . S
C4814 C4833 1.429 . S
C4814 H4838 0.950 . S
C4815 C4832 1.574 . S
C4815 C4834 1.368 . S
C4815 H4839 0.949 . S
H4816 C4820 0.949 . S
C4817 C4818 1.349 . S
C4817 C4819 1.327 . S
C4817 H4840 0.950 . S
C4818 C4817 1.349 . S
C4818 C4830 1.349 . S
C4819 C4817 1.327 . S
C4819 C4835 1.429 . S
C4819 H4841 0.950 . S
C4820 H4816 0.949 . S
C4820 C4828 1.574 . S
C4820 C4836 1.368 . S
H4821 C4829 0.950 . S
H4822 C4827 0.950 . S
H4823 C4828 0.949 . S
H4824 C4830 0.950 . S
H4825 C4831 0.950 . S
H4826 C4832 0.949 . S
C4827 H4822 0.950 . S
C4827 C4829 1.327 . S
C4827 C4833 1.429 . S
C4828 C4820 1.574 . S
C4828 H4823 0.949 . S
C4828 C4834 1.368 . S
C4829 C4813 1.349 . S
C4829 H4821 0.950 . S
C4829 C4827 1.327 . S
C4830 C4818 1.349 . S
C4830 H4824 0.950 . S
C4830 C4831 1.327 . S
C4831 H4825 0.950 . S
C4831 C4830 1.327 . S
C4831 C4835 1.429 . S
C4832 C4815 1.574 . S
C4832 H4826 0.949 . S
C4832 C4836 1.368 . S
C4833 C4814 1.429 . S
C4833 C4827 1.429 . S
C4833 C4834 1.523 . S
C4834 C4815 1.368 . S
C4834 C4828 1.368 . S
C4834 C4833 1.523 . S
C4835 C4819 1.429 . S
C4835 C4831 1.429 . S
C4835 C4836 1.523 . S
C4836 C4820 1.368 . S
C4836 C4832 1.368 . S
C4836 C4835 1.523 . S
H4837 C4812 0.950 . S
H4838 C4814 0.950 . S
H4839 C4815 0.949 . S
H4840 C4817 0.950 . S
H4841 C4819 0.950 . S
C4842 C4843 1.349 . S
C4842 C4844 1.327 . S
C4842 H4867 0.950 . S
C4843 C4842 1.349 . S
C4843 C4859 1.349 . S
C4844 C4842 1.327 . S
C4844 C4863 1.429 . S
C4844 H4868 0.950 . S
C4845 C4862 1.574 . S
C4845 C4864 1.368 . S
C4845 H4869 0.949 . S
H4846 C4850 0.949 . S
C4847 C4848 1.349 . S
C4847 C4849 1.327 . S
C4847 H4870 0.950 . S
C4848 C4847 1.349 . S
C4848 C4860 1.349 . S
C4849 C4847 1.327 . S
C4849 C4865 1.429 . S
C4849 H4871 0.950 . S
C4850 H4846 0.949 . S
C4850 C4858 1.574 . S
C4850 C4866 1.368 . S
H4851 C4859 0.950 . S
H4852 C4857 0.950 . S
H4853 C4858 0.949 . S
H4854 C4860 0.950 . S
H4855 C4861 0.950 . S
H4856 C4862 0.949 . S
C4857 H4852 0.950 . S
C4857 C4859 1.327 . S
C4857 C4863 1.429 . S
C4858 C4850 1.574 . S
C4858 H4853 0.949 . S
C4858 C4864 1.368 . S
C4859 C4843 1.349 . S
C4859 H4851 0.950 . S
C4859 C4857 1.327 . S
C4860 C4848 1.349 . S
C4860 H4854 0.950 . S
C4860 C4861 1.327 . S
C4861 H4855 0.950 . S
C4861 C4860 1.327 . S
C4861 C4865 1.429 . S
C4862 C4845 1.574 . S
C4862 H4856 0.949 . S
C4862 C4866 1.368 . S
C4863 C4844 1.429 . S
C4863 C4857 1.429 . S
C4863 C4864 1.523 1_556 S
C4864 C4845 1.368 . S
C4864 C4858 1.368 . S
C4864 C4863 1.523 1_554 S
C4865 C4849 1.429 . S
C4865 C4861 1.429 . S
C4865 C4866 1.523 . S
C4866 C4850 1.368 . S
C4866 C4862 1.368 . S
C4866 C4865 1.523 . S
H4867 C4842 0.950 . S
H4868 C4844 0.950 . S
H4869 C4845 0.949 . S
H4870 C4847 0.950 . S
H4871 C4849 0.950 . S
C4872 C4873 1.349 . S
C4872 C4874 1.327 . S
C4872 H4897 0.950 . S
C4873 C4872 1.349 . S
C4873 C4889 1.349 . S
C4874 C4872 1.327 . S
C4874 C4893 1.429 . S
C4874 H4898 0.950 . S
C4875 C4892 1.574 . S
C4875 C4894 1.368 . S
C4875 H4899 0.949 . S
H4876 C4880 0.949 . S
C4877 C4878 1.349 . S
C4877 C4879 1.327 . S
C4877 H4900 0.950 . S
C4878 C4877 1.349 . S
C4878 C4890 1.349 . S
C4879 C4877 1.327 . S
C4879 C4895 1.429 . S
C4879 H4901 0.950 . S
C4880 H4876 0.949 . S
C4880 C4888 1.574 . S
C4880 C4896 1.368 . S
H4881 C4889 0.950 . S
H4882 C4887 0.950 . S
H4883 C4888 0.949 . S
H4884 C4890 0.950 . S
H4885 C4891 0.950 . S
H4886 C4892 0.949 . S
C4887 H4882 0.950 . S
C4887 C4889 1.327 . S
C4887 C4893 1.429 . S
C4888 C4880 1.574 . S
C4888 H4883 0.949 . S
C4888 C4894 1.368 . S
C4889 C4873 1.349 . S
C4889 H4881 0.950 . S
C4889 C4887 1.327 . S
C4890 C4878 1.349 . S
C4890 H4884 0.950 . S
C4890 C4891 1.327 . S
C4891 H4885 0.950 . S
C4891 C4890 1.327 . S
C4891 C4895 1.429 . S
C4892 C4875 1.574 . S
C4892 H4886 0.949 . S
C4892 C4896 1.368 . S
C4893 C4874 1.429 . S
C4893 C4887 1.429 . S
C4893 C4894 1.523 . S
C4894 C4875 1.368 . S
C4894 C4888 1.368 . S
C4894 C4893 1.523 . S
C4895 C4879 1.429 . S
C4895 C4891 1.429 . S
C4895 C4896 1.523 . S
C4896 C4880 1.368 . S
C4896 C4892 1.368 . S
C4896 C4895 1.523 . S
H4897 C4872 0.950 . S
H4898 C4874 0.950 . S
H4899 C4875 0.949 . S
H4900 C4877 0.950 . S
H4901 C4879 0.950 . S
C4902 C4903 1.349 . S
C4902 C4904 1.327 . S
C4902 H4927 0.950 . S
C4903 C4902 1.349 . S
C4903 C4919 1.349 . S
C4904 C4902 1.327 . S
C4904 C4923 1.429 . S
C4904 H4928 0.950 . S
C4905 C4922 1.574 1_556 S
C4905 C4924 1.368 . S
C4905 H4929 0.949 . S
H4906 C4910 0.949 . S
C4907 C4908 1.349 . S
C4907 C4909 1.327 . S
C4907 H4930 0.950 . S
C4908 C4907 1.349 . S
C4908 C4920 1.349 . S
C4909 C4907 1.327 . S
C4909 C4925 1.429 . S
C4909 H4931 0.950 . S
C4910 H4906 0.949 . S
C4910 C4918 1.574 1_554 S
C4910 C4926 1.368 . S
H4911 C4919 0.950 . S
H4912 C4917 0.950 . S
H4913 C4918 0.949 . S
H4914 C4920 0.950 . S
H4915 C4921 0.950 . S
H4916 C4922 0.949 . S
C4917 H4912 0.950 . S
C4917 C4919 1.327 . S
C4917 C4923 1.429 . S
C4918 C4910 1.574 1_556 S
C4918 H4913 0.949 . S
C4918 C4924 1.368 . S
C4919 C4903 1.349 . S
C4919 H4911 0.950 . S
C4919 C4917 1.327 . S
C4920 C4908 1.349 . S
C4920 H4914 0.950 . S
C4920 C4921 1.327 . S
C4921 H4915 0.950 . S
C4921 C4920 1.327 . S
C4921 C4925 1.429 . S
C4922 C4905 1.574 1_554 S
C4922 H4916 0.949 . S
C4922 C4926 1.368 . S
C4923 C4904 1.429 . S
C4923 C4917 1.429 . S
C4923 C4924 1.523 . S
C4924 C4905 1.368 . S
C4924 C4918 1.368 . S
C4924 C4923 1.523 . S
C4925 C4909 1.429 . S
C4925 C4921 1.429 . S
C4925 C4926 1.523 . S
C4926 C4910 1.368 . S
C4926 C4922 1.368 . S
C4926 C4925 1.523 . S
H4927 C4902 0.950 . S
H4928 C4904 0.950 . S
H4929 C4905 0.949 . S
H4930 C4907 0.950 . S
H4931 C4909 0.950 . S
C4932 C4933 1.349 . S
C4932 C4934 1.327 . S
C4932 H4957 0.950 . S
C4933 C4932 1.349 . S
C4933 C4949 1.349 . S
C4934 C4932 1.327 . S
C4934 C4953 1.429 . S
C4934 H4958 0.950 . S
C4935 C4952 1.574 . S
C4935 C4954 1.368 . S
C4935 H4959 0.949 . S
H4936 C4940 0.949 . S
C4937 C4938 1.349 . S
C4937 C4939 1.327 . S
C4937 H4960 0.950 . S
C4938 C4937 1.349 . S
C4938 C4950 1.349 . S
C4939 C4937 1.327 . S
C4939 C4955 1.429 . S
C4939 H4961 0.950 . S
C4940 H4936 0.949 . S
C4940 C4948 1.574 . S
C4940 C4956 1.368 . S
H4941 C4949 0.950 . S
H4942 C4947 0.950 . S
H4943 C4948 0.949 . S
H4944 C4950 0.950 . S
H4945 C4951 0.950 . S
H4946 C4952 0.949 . S
C4947 H4942 0.950 . S
C4947 C4949 1.327 . S
C4947 C4953 1.429 . S
C4948 C4940 1.574 . S
C4948 H4943 0.949 . S
C4948 C4954 1.368 . S
C4949 C4933 1.349 . S
C4949 H4941 0.950 . S
C4949 C4947 1.327 . S
C4950 C4938 1.349 . S
C4950 H4944 0.950 . S
C4950 C4951 1.327 . S
C4951 H4945 0.950 . S
C4951 C4950 1.327 . S
C4951 C4955 1.429 . S
C4952 C4935 1.574 . S
C4952 H4946 0.949 . S
C4952 C4956 1.368 . S
C4953 C4934 1.429 . S
C4953 C4947 1.429 . S
C4953 C4954 1.523 . S
C4954 C4935 1.368 . S
C4954 C4948 1.368 . S
C4954 C4953 1.523 . S
C4955 C4939 1.429 . S
C4955 C4951 1.429 . S
C4955 C4956 1.523 . S
C4956 C4940 1.368 . S
C4956 C4952 1.368 . S
C4956 C4955 1.523 . S
H4957 C4932 0.950 . S
H4958 C4934 0.950 . S
H4959 C4935 0.949 . S
H4960 C4937 0.950 . S
H4961 C4939 0.950 . S
C4962 C4963 1.349 . S
C4962 C4964 1.327 . S
C4962 H4987 0.950 . S
C4963 C4962 1.349 . S
C4963 C4979 1.349 . S
C4964 C4962 1.327 . S
C4964 C4983 1.429 . S
C4964 H4988 0.950 . S
C4965 C4982 1.574 . S
C4965 C4984 1.368 . S
C4965 H4989 0.949 . S
H4966 C4970 0.949 . S
C4967 C4968 1.349 . S
C4967 C4969 1.327 . S
C4967 H4990 0.950 . S
C4968 C4967 1.349 . S
C4968 C4980 1.349 . S
C4969 C4967 1.327 . S
C4969 C4985 1.429 . S
C4969 H4991 0.950 . S
C4970 H4966 0.949 . S
C4970 C4978 1.574 . S
C4970 C4986 1.368 . S
H4971 C4979 0.950 . S
H4972 C4977 0.950 . S
H4973 C4978 0.949 . S
H4974 C4980 0.950 . S
H4975 C4981 0.950 . S
H4976 C4982 0.949 . S
C4977 H4972 0.950 . S
C4977 C4979 1.327 . S
C4977 C4983 1.429 . S
C4978 C4970 1.574 . S
C4978 H4973 0.949 . S
C4978 C4984 1.368 . S
C4979 C4963 1.349 . S
C4979 H4971 0.950 . S
C4979 C4977 1.327 . S
C4980 C4968 1.349 . S
C4980 H4974 0.950 . S
C4980 C4981 1.327 . S
C4981 H4975 0.950 . S
C4981 C4980 1.327 . S
C4981 C4985 1.429 . S
C4982 C4965 1.574 . S
C4982 H4976 0.949 . S
C4982 C4986 1.368 . S
C4983 C4964 1.429 . S
C4983 C4977 1.429 . S
C4983 C4984 1.523 . S
C4984 C4965 1.368 . S
C4984 C4978 1.368 . S
C4984 C4983 1.523 . S
C4985 C4969 1.429 . S
C4985 C4981 1.429 . S
C4985 C4986 1.523 . S
C4986 C4970 1.368 . S
C4986 C4982 1.368 . S
C4986 C4985 1.523 . S
H4987 C4962 0.950 . S
H4988 C4964 0.950 . S
H4989 C4965 0.949 . S
H4990 C4967 0.950 . S
H4991 C4969 0.950 . S
C4992 C4993 1.349 . S
C4992 C4994 1.327 . S
C4992 H5017 0.950 . S
C4993 C4992 1.349 . S
C4993 C5009 1.349 . S
C4994 C4992 1.327 . S
C4994 C5013 1.429 . S
C4994 H5018 0.950 . S
C4995 C5012 1.574 . S
C4995 C5014 1.368 . S
C4995 H5019 0.949 . S
H4996 C5000 0.949 . S
C4997 C4998 1.349 . S
C4997 C4999 1.327 . S
C4997 H5020 0.950 . S
C4998 C4997 1.349 . S
C4998 C5010 1.349 . S
C4999 C4997 1.327 . S
C4999 C5015 1.429 . S
C4999 H5021 0.950 . S
C5000 H4996 0.949 . S
C5000 C5008 1.574 . S
C5000 C5016 1.368 . S
H5001 C5009 0.950 . S
H5002 C5007 0.950 . S
H5003 C5008 0.949 . S
H5004 C5010 0.950 . S
H5005 C5011 0.950 . S
H5006 C5012 0.949 . S
C5007 H5002 0.950 . S
C5007 C5009 1.327 . S
C5007 C5013 1.429 . S
C5008 C5000 1.574 . S
C5008 H5003 0.949 . S
C5008 C5014 1.368 . S
C5009 C4993 1.349 . S
C5009 H5001 0.950 . S
C5009 C5007 1.327 . S
C5010 C4998 1.349 . S
C5010 H5004 0.950 . S
C5010 C5011 1.327 . S
C5011 H5005 0.950 . S
C5011 C5010 1.327 . S
C5011 C5015 1.429 . S
C5012 C4995 1.574 . S
C5012 H5006 0.949 . S
C5012 C5016 1.368 . S
C5013 C4994 1.429 . S
C5013 C5007 1.429 . S
C5013 C5014 1.523 . S
C5014 C4995 1.368 . S
C5014 C5008 1.368 . S
C5014 C5013 1.523 . S
C5015 C4999 1.429 . S
C5015 C5011 1.429 . S
C5015 C5016 1.523 . S
C5016 C5000 1.368 . S
C5016 C5012 1.368 . S
C5016 C5015 1.523 . S
H5017 C4992 0.950 . S
H5018 C4994 0.950 . S
H5019 C4995 0.949 . S
H5020 C4997 0.950 . S
H5021 C4999 0.950 . S
C5022 C5023 1.349 . S
C5022 C5024 1.327 . S
C5022 H5047 0.950 . S
C5023 C5022 1.349 . S
C5023 C5039 1.349 . S
C5024 C5022 1.327 . S
C5024 C5043 1.429 . S
C5024 H5048 0.950 . S
C5025 C5042 1.574 . S
C5025 C5044 1.368 . S
C5025 H5049 0.949 . S
H5026 C5030 0.949 . S
C5027 C5028 1.349 . S
C5027 C5029 1.327 . S
C5027 H5050 0.950 . S
C5028 C5027 1.349 . S
C5028 C5040 1.349 . S
C5029 C5027 1.327 . S
C5029 C5045 1.429 . S
C5029 H5051 0.950 . S
C5030 H5026 0.949 . S
C5030 C5038 1.574 . S
C5030 C5046 1.368 . S
H5031 C5039 0.950 . S
H5032 C5037 0.950 . S
H5033 C5038 0.949 . S
H5034 C5040 0.950 . S
H5035 C5041 0.950 . S
H5036 C5042 0.949 . S
C5037 H5032 0.950 . S
C5037 C5039 1.327 . S
C5037 C5043 1.429 . S
C5038 C5030 1.574 . S
C5038 H5033 0.949 . S
C5038 C5044 1.368 . S
C5039 C5023 1.349 . S
C5039 H5031 0.950 . S
C5039 C5037 1.327 . S
C5040 C5028 1.349 . S
C5040 H5034 0.950 . S
C5040 C5041 1.327 . S
C5041 H5035 0.950 . S
C5041 C5040 1.327 . S
C5041 C5045 1.429 . S
C5042 C5025 1.574 . S
C5042 H5036 0.949 . S
C5042 C5046 1.368 . S
C5043 C5024 1.429 . S
C5043 C5037 1.429 . S
C5043 C5044 1.523 . S
C5044 C5025 1.368 . S
C5044 C5038 1.368 . S
C5044 C5043 1.523 . S
C5045 C5029 1.429 . S
C5045 C5041 1.429 . S
C5045 C5046 1.523 . S
C5046 C5030 1.368 . S
C5046 C5042 1.368 . S
C5046 C5045 1.523 . S
H5047 C5022 0.950 . S
H5048 C5024 0.950 . S
H5049 C5025 0.949 . S
H5050 C5027 0.950 . S
H5051 C5029 0.950 . S
C5052 C5053 1.349 . S
C5052 C5054 1.327 . S
C5052 H5077 0.950 . S
C5053 C5052 1.349 . S
C5053 C5069 1.349 . S
C5054 C5052 1.327 . S
C5054 C5073 1.429 . S
C5054 H5078 0.950 . S
C5055 C5072 1.574 . S
C5055 C5074 1.368 . S
C5055 H5079 0.949 . S
H5056 C5060 0.949 . S
C5057 C5058 1.349 . S
C5057 C5059 1.327 . S
C5057 H5080 0.950 . S
C5058 C5057 1.349 . S
C5058 C5070 1.349 . S
C5059 C5057 1.327 . S
C5059 C5075 1.429 . S
C5059 H5081 0.950 . S
C5060 H5056 0.949 . S
C5060 C5068 1.574 . S
C5060 C5076 1.368 . S
H5061 C5069 0.950 . S
H5062 C5067 0.950 . S
H5063 C5068 0.949 . S
H5064 C5070 0.950 . S
H5065 C5071 0.950 . S
H5066 C5072 0.949 . S
C5067 H5062 0.950 . S
C5067 C5069 1.327 . S
C5067 C5073 1.429 . S
C5068 C5060 1.574 . S
C5068 H5063 0.949 . S
C5068 C5074 1.368 . S
C5069 C5053 1.349 . S
C5069 H5061 0.950 . S
C5069 C5067 1.327 . S
C5070 C5058 1.349 . S
C5070 H5064 0.950 . S
C5070 C5071 1.327 . S
C5071 H5065 0.950 . S
C5071 C5070 1.327 . S
C5071 C5075 1.429 . S
C5072 C5055 1.574 . S
C5072 H5066 0.949 . S
C5072 C5076 1.368 . S
C5073 C5054 1.429 . S
C5073 C5067 1.429 . S
C5073 C5074 1.523 . S
C5074 C5055 1.368 . S
C5074 C5068 1.368 . S
C5074 C5073 1.523 . S
C5075 C5059 1.429 . S
C5075 C5071 1.429 . S
C5075 C5076 1.523 . S
C5076 C5060 1.368 . S
C5076 C5072 1.368 . S
C5076 C5075 1.523 . S
H5077 C5052 0.950 . S
H5078 C5054 0.950 . S
H5079 C5055 0.949 . S
H5080 C5057 0.950 . S
H5081 C5059 0.950 . S
C5082 C5083 1.349 . S
C5082 C5084 1.327 . S
C5082 H5107 0.950 . S
C5083 C5082 1.349 . S
C5083 C5099 1.349 . S
C5084 C5082 1.327 . S
C5084 C5103 1.429 . S
C5084 H5108 0.950 . S
C5085 C5102 1.574 . S
C5085 C5104 1.368 . S
C5085 H5109 0.949 . S
H5086 C5090 0.949 . S
C5087 C5088 1.349 . S
C5087 C5089 1.327 . S
C5087 H5110 0.950 . S
C5088 C5087 1.349 . S
C5088 C5100 1.349 . S
C5089 C5087 1.327 . S
C5089 C5105 1.429 . S
C5089 H5111 0.950 . S
C5090 H5086 0.949 . S
C5090 C5098 1.574 . S
C5090 C5106 1.368 . S
H5091 C5099 0.950 . S
H5092 C5097 0.950 . S
H5093 C5098 0.949 . S
H5094 C5100 0.950 . S
H5095 C5101 0.950 . S
H5096 C5102 0.949 . S
C5097 H5092 0.950 . S
C5097 C5099 1.327 . S
C5097 C5103 1.429 . S
C5098 C5090 1.574 . S
C5098 H5093 0.949 . S
C5098 C5104 1.368 . S
C5099 C5083 1.349 . S
C5099 H5091 0.950 . S
C5099 C5097 1.327 . S
C5100 C5088 1.349 . S
C5100 H5094 0.950 . S
C5100 C5101 1.327 . S
C5101 H5095 0.950 . S
C5101 C5100 1.327 . S
C5101 C5105 1.429 . S
C5102 C5085 1.574 . S
C5102 H5096 0.949 . S
C5102 C5106 1.368 . S
C5103 C5084 1.429 . S
C5103 C5097 1.429 . S
C5103 C5104 1.523 . S
C5104 C5085 1.368 . S
C5104 C5098 1.368 . S
C5104 C5103 1.523 . S
C5105 C5089 1.429 . S
C5105 C5101 1.429 . S
C5105 C5106 1.523 . S
C5106 C5090 1.368 . S
C5106 C5102 1.368 . S
C5106 C5105 1.523 . S
H5107 C5082 0.950 . S
H5108 C5084 0.950 . S
H5109 C5085 0.949 . S
H5110 C5087 0.950 . S
H5111 C5089 0.950 . S
C5112 C5113 1.349 . S
C5112 C5114 1.327 . S
C5112 H5137 0.950 . S
C5113 C5112 1.349 . S
C5113 C5129 1.349 . S
C5114 C5112 1.327 . S
C5114 C5133 1.429 . S
C5114 H5138 0.950 . S
C5115 C5132 1.574 . S
C5115 C5134 1.368 . S
C5115 H5139 0.949 . S
H5116 C5120 0.949 . S
C5117 C5118 1.349 . S
C5117 C5119 1.327 . S
C5117 H5140 0.950 . S
C5118 C5117 1.349 . S
C5118 C5130 1.349 . S
C5119 C5117 1.327 . S
C5119 C5135 1.429 . S
C5119 H5141 0.950 . S
C5120 H5116 0.949 . S
C5120 C5128 1.574 . S
C5120 C5136 1.368 . S
H5121 C5129 0.950 . S
H5122 C5127 0.950 . S
H5123 C5128 0.949 . S
H5124 C5130 0.950 . S
H5125 C5131 0.950 . S
H5126 C5132 0.949 . S
C5127 H5122 0.950 . S
C5127 C5129 1.327 . S
C5127 C5133 1.429 . S
C5128 C5120 1.574 . S
C5128 H5123 0.949 . S
C5128 C5134 1.368 . S
C5129 C5113 1.349 . S
C5129 H5121 0.950 . S
C5129 C5127 1.327 . S
C5130 C5118 1.349 . S
C5130 H5124 0.950 . S
C5130 C5131 1.327 . S
C5131 H5125 0.950 . S
C5131 C5130 1.327 . S
C5131 C5135 1.429 . S
C5132 C5115 1.574 . S
C5132 H5126 0.949 . S
C5132 C5136 1.368 . S
C5133 C5114 1.429 . S
C5133 C5127 1.429 . S
C5133 C5134 1.523 . S
C5134 C5115 1.368 . S
C5134 C5128 1.368 . S
C5134 C5133 1.523 . S
C5135 C5119 1.429 . S
C5135 C5131 1.429 . S
C5135 C5136 1.523 . S
C5136 C5120 1.368 . S
C5136 C5132 1.368 . S
C5136 C5135 1.523 . S
H5137 C5112 0.950 . S
H5138 C5114 0.950 . S
H5139 C5115 0.949 . S
H5140 C5117 0.950 . S
H5141 C5119 0.950 . S
C5142 C5143 1.349 . S
C5142 C5144 1.327 . S
C5142 H5167 0.950 . S
C5143 C5142 1.349 . S
C5143 C5159 1.349 . S
C5144 C5142 1.327 . S
C5144 C5163 1.429 . S
C5144 H5168 0.950 . S
C5145 C5162 1.574 . S
C5145 C5164 1.368 . S
C5145 H5169 0.949 . S
H5146 C5150 0.949 . S
C5147 C5148 1.349 . S
C5147 C5149 1.327 . S
C5147 H5170 0.950 . S
C5148 C5147 1.349 . S
C5148 C5160 1.349 . S
C5149 C5147 1.327 . S
C5149 C5165 1.429 . S
C5149 H5171 0.950 . S
C5150 H5146 0.949 . S
C5150 C5158 1.574 . S
C5150 C5166 1.368 . S
H5151 C5159 0.950 . S
H5152 C5157 0.950 . S
H5153 C5158 0.949 . S
H5154 C5160 0.950 . S
H5155 C5161 0.950 . S
H5156 C5162 0.949 . S
C5157 H5152 0.950 . S
C5157 C5159 1.327 . S
C5157 C5163 1.429 . S
C5158 C5150 1.574 . S
C5158 H5153 0.949 . S
C5158 C5164 1.368 . S
C5159 C5143 1.349 . S
C5159 H5151 0.950 . S
C5159 C5157 1.327 . S
C5160 C5148 1.349 . S
C5160 H5154 0.950 . S
C5160 C5161 1.327 . S
C5161 H5155 0.950 . S
C5161 C5160 1.327 . S
C5161 C5165 1.429 . S
C5162 C5145 1.574 . S
C5162 H5156 0.949 . S
C5162 C5166 1.368 . S
C5163 C5144 1.429 . S
C5163 C5157 1.429 . S
C5163 C5164 1.523 . S
C5164 C5145 1.368 . S
C5164 C5158 1.368 . S
C5164 C5163 1.523 . S
C5165 C5149 1.429 . S
C5165 C5161 1.429 . S
C5165 C5166 1.523 . S
C5166 C5150 1.368 . S
C5166 C5162 1.368 . S
C5166 C5165 1.523 . S
H5167 C5142 0.950 . S
H5168 C5144 0.950 . S
H5169 C5145 0.949 . S
H5170 C5147 0.950 . S
H5171 C5149 0.950 . S
C5172 C5173 1.349 . S
C5172 C5174 1.327 . S
C5172 H5197 0.950 . S
C5173 C5172 1.349 . S
C5173 C5189 1.349 . S
C5174 C5172 1.327 . S
C5174 C5193 1.429 . S
C5174 H5198 0.950 . S
C5175 C5192 1.574 . S
C5175 C5194 1.368 . S
C5175 H5199 0.949 . S
H5176 C5180 0.949 . S
C5177 C5178 1.349 . S
C5177 C5179 1.327 . S
C5177 H5200 0.950 . S
C5178 C5177 1.349 . S
C5178 C5190 1.349 . S
C5179 C5177 1.327 . S
C5179 C5195 1.429 . S
C5179 H5201 0.950 . S
C5180 H5176 0.949 . S
C5180 C5188 1.574 . S
C5180 C5196 1.368 . S
H5181 C5189 0.950 . S
H5182 C5187 0.950 . S
H5183 C5188 0.949 . S
H5184 C5190 0.950 . S
H5185 C5191 0.950 . S
H5186 C5192 0.949 . S
C5187 H5182 0.950 . S
C5187 C5189 1.327 . S
C5187 C5193 1.429 . S
C5188 C5180 1.574 . S
C5188 H5183 0.949 . S
C5188 C5194 1.368 . S
C5189 C5173 1.349 . S
C5189 H5181 0.950 . S
C5189 C5187 1.327 . S
C5190 C5178 1.349 . S
C5190 H5184 0.950 . S
C5190 C5191 1.327 . S
C5191 H5185 0.950 . S
C5191 C5190 1.327 . S
C5191 C5195 1.429 . S
C5192 C5175 1.574 . S
C5192 H5186 0.949 . S
C5192 C5196 1.368 . S
C5193 C5174 1.429 . S
C5193 C5187 1.429 . S
C5193 C5194 1.523 . S
C5194 C5175 1.368 . S
C5194 C5188 1.368 . S
C5194 C5193 1.523 . S
C5195 C5179 1.429 . S
C5195 C5191 1.429 . S
C5195 C5196 1.523 . S
C5196 C5180 1.368 . S
C5196 C5192 1.368 . S
C5196 C5195 1.523 . S
H5197 C5172 0.950 . S
H5198 C5174 0.950 . S
H5199 C5175 0.949 . S
H5200 C5177 0.950 . S
H5201 C5179 0.950 . S
C5202 C5203 1.349 . S
C5202 C5204 1.327 . S
C5202 H5227 0.950 . S
C5203 C5202 1.349 . S
C5203 C5219 1.349 . S
C5204 C5202 1.327 . S
C5204 C5223 1.429 . S
C5204 H5228 0.950 . S
C5205 C5222 1.574 . S
C5205 C5224 1.368 . S
C5205 H5229 0.949 . S
H5206 C5210 0.949 . S
C5207 C5208 1.349 . S
C5207 C5209 1.327 . S
C5207 H5230 0.950 . S
C5208 C5207 1.349 . S
C5208 C5220 1.349 . S
C5209 C5207 1.327 . S
C5209 C5225 1.429 . S
C5209 H5231 0.950 . S
C5210 H5206 0.949 . S
C5210 C5218 1.574 . S
C5210 C5226 1.368 . S
H5211 C5219 0.950 . S
H5212 C5217 0.950 . S
H5213 C5218 0.949 . S
H5214 C5220 0.950 . S
H5215 C5221 0.950 . S
H5216 C5222 0.949 . S
C5217 H5212 0.950 . S
C5217 C5219 1.327 . S
C5217 C5223 1.429 . S
C5218 C5210 1.574 . S
C5218 H5213 0.949 . S
C5218 C5224 1.368 . S
C5219 C5203 1.349 . S
C5219 H5211 0.950 . S
C5219 C5217 1.327 . S
C5220 C5208 1.349 . S
C5220 H5214 0.950 . S
C5220 C5221 1.327 . S
C5221 H5215 0.950 . S
C5221 C5220 1.327 . S
C5221 C5225 1.429 . S
C5222 C5205 1.574 . S
C5222 H5216 0.949 . S
C5222 C5226 1.368 . S
C5223 C5204 1.429 . S
C5223 C5217 1.429 . S
C5223 C5224 1.523 . S
C5224 C5205 1.368 . S
C5224 C5218 1.368 . S
C5224 C5223 1.523 . S
C5225 C5209 1.429 . S
C5225 C5221 1.429 . S
C5225 C5226 1.523 . S
C5226 C5210 1.368 . S
C5226 C5222 1.368 . S
C5226 C5225 1.523 . S
H5227 C5202 0.950 . S
H5228 C5204 0.950 . S
H5229 C5205 0.949 . S
H5230 C5207 0.950 . S
H5231 C5209 0.950 . S
C5232 C5233 1.349 . S
C5232 C5234 1.327 . S
C5232 H5257 0.950 . S
C5233 C5232 1.349 . S
C5233 C5249 1.349 . S
C5234 C5232 1.327 . S
C5234 C5253 1.429 . S
C5234 H5258 0.950 . S
C5235 C5252 1.574 . S
C5235 C5254 1.368 . S
C5235 H5259 0.949 . S
H5236 C5240 0.949 . S
C5237 C5238 1.349 . S
C5237 C5239 1.327 . S
C5237 H5260 0.950 . S
C5238 C5237 1.349 . S
C5238 C5250 1.349 . S
C5239 C5237 1.327 . S
C5239 C5255 1.429 . S
C5239 H5261 0.950 . S
C5240 H5236 0.949 . S
C5240 C5248 1.574 . S
C5240 C5256 1.368 . S
H5241 C5249 0.950 . S
H5242 C5247 0.950 . S
H5243 C5248 0.949 . S
H5244 C5250 0.950 . S
H5245 C5251 0.950 . S
H5246 C5252 0.949 . S
C5247 H5242 0.950 . S
C5247 C5249 1.327 . S
C5247 C5253 1.429 . S
C5248 C5240 1.574 . S
C5248 H5243 0.949 . S
C5248 C5254 1.368 . S
C5249 C5233 1.349 . S
C5249 H5241 0.950 . S
C5249 C5247 1.327 . S
C5250 C5238 1.349 . S
C5250 H5244 0.950 . S
C5250 C5251 1.327 . S
C5251 H5245 0.950 . S
C5251 C5250 1.327 . S
C5251 C5255 1.429 . S
C5252 C5235 1.574 . S
C5252 H5246 0.949 . S
C5252 C5256 1.368 . S
C5253 C5234 1.429 . S
C5253 C5247 1.429 . S
C5253 C5254 1.523 . S
C5254 C5235 1.368 . S
C5254 C5248 1.368 . S
C5254 C5253 1.523 . S
C5255 C5239 1.429 . S
C5255 C5251 1.429 . S
C5255 C5256 1.523 . S
C5256 C5240 1.368 . S
C5256 C5252 1.368 . S
C5256 C5255 1.523 . S
H5257 C5232 0.950 . S
H5258 C5234 0.950 . S
H5259 C5235 0.949 . S
H5260 C5237 0.950 . S
H5261 C5239 0.950 . S
C5262 C5263 1.349 . S
C5262 C5264 1.327 . S
C5262 H5287 0.950 . S
C5263 C5262 1.349 . S
C5263 C5279 1.349 . S
C5264 C5262 1.327 . S
C5264 C5283 1.429 . S
C5264 H5288 0.950 . S
C5265 C5282 1.574 . S
C5265 C5284 1.368 . S
C5265 H5289 0.949 . S
H5266 C5270 0.949 . S
C5267 C5268 1.349 . S
C5267 C5269 1.327 . S
C5267 H5290 0.950 . S
C5268 C5267 1.349 . S
C5268 C5280 1.349 . S
C5269 C5267 1.327 . S
C5269 C5285 1.429 . S
C5269 H5291 0.950 . S
C5270 H5266 0.949 . S
C5270 C5278 1.574 . S
C5270 C5286 1.368 . S
H5271 C5279 0.950 . S
H5272 C5277 0.950 . S
H5273 C5278 0.949 . S
H5274 C5280 0.950 . S
H5275 C5281 0.950 . S
H5276 C5282 0.949 . S
C5277 H5272 0.950 . S
C5277 C5279 1.327 . S
C5277 C5283 1.429 . S
C5278 C5270 1.574 . S
C5278 H5273 0.949 . S
C5278 C5284 1.368 . S
C5279 C5263 1.349 . S
C5279 H5271 0.950 . S
C5279 C5277 1.327 . S
C5280 C5268 1.349 . S
C5280 H5274 0.950 . S
C5280 C5281 1.327 . S
C5281 H5275 0.950 . S
C5281 C5280 1.327 . S
C5281 C5285 1.429 . S
C5282 C5265 1.574 . S
C5282 H5276 0.949 . S
C5282 C5286 1.368 . S
C5283 C5264 1.429 . S
C5283 C5277 1.429 . S
C5283 C5284 1.523 . S
C5284 C5265 1.368 . S
C5284 C5278 1.368 . S
C5284 C5283 1.523 . S
C5285 C5269 1.429 . S
C5285 C5281 1.429 . S
C5285 C5286 1.523 . S
C5286 C5270 1.368 . S
C5286 C5282 1.368 . S
C5286 C5285 1.523 . S
H5287 C5262 0.950 . S
H5288 C5264 0.950 . S
H5289 C5265 0.949 . S
H5290 C5267 0.950 . S
H5291 C5269 0.950 . S
C5292 C5293 1.349 . S
C5292 C5294 1.327 . S
C5292 H5317 0.950 . S
C5293 C5292 1.349 . S
C5293 C5309 1.349 . S
C5294 C5292 1.327 . S
C5294 C5313 1.429 . S
C5294 H5318 0.950 . S
C5295 C5312 1.574 . S
C5295 C5314 1.368 . S
C5295 H5319 0.949 . S
H5296 C5300 0.949 . S
C5297 C5298 1.349 . S
C5297 C5299 1.327 . S
C5297 H5320 0.950 . S
C5298 C5297 1.349 . S
C5298 C5310 1.349 . S
C5299 C5297 1.327 . S
C5299 C5315 1.429 . S
C5299 H5321 0.950 . S
C5300 H5296 0.949 . S
C5300 C5308 1.574 . S
C5300 C5316 1.368 . S
H5301 C5309 0.950 . S
H5302 C5307 0.950 . S
H5303 C5308 0.949 . S
H5304 C5310 0.950 . S
H5305 C5311 0.950 . S
H5306 C5312 0.949 . S
C5307 H5302 0.950 . S
C5307 C5309 1.327 . S
C5307 C5313 1.429 . S
C5308 C5300 1.574 . S
C5308 H5303 0.949 . S
C5308 C5314 1.368 . S
C5309 C5293 1.349 . S
C5309 H5301 0.950 . S
C5309 C5307 1.327 . S
C5310 C5298 1.349 . S
C5310 H5304 0.950 . S
C5310 C5311 1.327 . S
C5311 H5305 0.950 . S
C5311 C5310 1.327 . S
C5311 C5315 1.429 . S
C5312 C5295 1.574 . S
C5312 H5306 0.949 . S
C5312 C5316 1.368 . S
C5313 C5294 1.429 . S
C5313 C5307 1.429 . S
C5313 C5314 1.523 . S
C5314 C5295 1.368 . S
C5314 C5308 1.368 . S
C5314 C5313 1.523 . S
C5315 C5299 1.429 . S
C5315 C5311 1.429 . S
C5315 C5316 1.523 . S
C5316 C5300 1.368 . S
C5316 C5312 1.368 . S
C5316 C5315 1.523 . S
H5317 C5292 0.950 . S
H5318 C5294 0.950 . S
H5319 C5295 0.949 . S
H5320 C5297 0.950 . S
H5321 C5299 0.950 . S
C5322 C5323 1.349 . S
C5322 C5324 1.327 . S
C5322 H5347 0.950 . S
C5323 C5322 1.349 . S
C5323 C5339 1.349 . S
C5324 C5322 1.327 . S
C5324 C5343 1.429 . S
C5324 H5348 0.950 . S
C5325 C5342 1.574 . S
C5325 C5344 1.368 . S
C5325 H5349 0.949 . S
H5326 C5330 0.949 . S
C5327 C5328 1.349 . S
C5327 C5329 1.327 . S
C5327 H5350 0.950 . S
C5328 C5327 1.349 . S
C5328 C5340 1.349 . S
C5329 C5327 1.327 . S
C5329 C5345 1.429 . S
C5329 H5351 0.950 . S
C5330 H5326 0.949 . S
C5330 C5338 1.574 . S
C5330 C5346 1.368 . S
H5331 C5339 0.950 . S
H5332 C5337 0.950 . S
H5333 C5338 0.949 . S
H5334 C5340 0.950 . S
H5335 C5341 0.950 . S
H5336 C5342 0.949 . S
C5337 H5332 0.950 . S
C5337 C5339 1.327 . S
C5337 C5343 1.429 . S
C5338 C5330 1.574 . S
C5338 H5333 0.949 . S
C5338 C5344 1.368 . S
C5339 C5323 1.349 . S
C5339 H5331 0.950 . S
C5339 C5337 1.327 . S
C5340 C5328 1.349 . S
C5340 H5334 0.950 . S
C5340 C5341 1.327 . S
C5341 H5335 0.950 . S
C5341 C5340 1.327 . S
C5341 C5345 1.429 . S
C5342 C5325 1.574 . S
C5342 H5336 0.949 . S
C5342 C5346 1.368 . S
C5343 C5324 1.429 . S
C5343 C5337 1.429 . S
C5343 C5344 1.523 . S
C5344 C5325 1.368 . S
C5344 C5338 1.368 . S
C5344 C5343 1.523 . S
C5345 C5329 1.429 . S
C5345 C5341 1.429 . S
C5345 C5346 1.523 . S
C5346 C5330 1.368 . S
C5346 C5342 1.368 . S
C5346 C5345 1.523 . S
H5347 C5322 0.950 . S
H5348 C5324 0.950 . S
H5349 C5325 0.949 . S
H5350 C5327 0.950 . S
H5351 C5329 0.950 . S
C5352 C5353 1.349 . S
C5352 C5354 1.327 . S
C5352 H5377 0.950 . S
C5353 C5352 1.349 . S
C5353 C5369 1.349 . S
C5354 C5352 1.327 . S
C5354 C5373 1.429 . S
C5354 H5378 0.950 . S
C5355 C5372 1.574 . S
C5355 C5374 1.368 . S
C5355 H5379 0.949 . S
H5356 C5360 0.949 . S
C5357 C5358 1.349 . S
C5357 C5359 1.327 . S
C5357 H5380 0.950 . S
C5358 C5357 1.349 . S
C5358 C5370 1.349 . S
C5359 C5357 1.327 . S
C5359 C5375 1.429 . S
C5359 H5381 0.950 . S
C5360 H5356 0.949 . S
C5360 C5368 1.574 . S
C5360 C5376 1.368 . S
H5361 C5369 0.950 . S
H5362 C5367 0.950 . S
H5363 C5368 0.949 . S
H5364 C5370 0.950 . S
H5365 C5371 0.950 . S
H5366 C5372 0.949 . S
C5367 H5362 0.950 . S
C5367 C5369 1.327 . S
C5367 C5373 1.429 . S
C5368 C5360 1.574 . S
C5368 H5363 0.949 . S
C5368 C5374 1.368 . S
C5369 C5353 1.349 . S
C5369 H5361 0.950 . S
C5369 C5367 1.327 . S
C5370 C5358 1.349 . S
C5370 H5364 0.950 . S
C5370 C5371 1.327 . S
C5371 H5365 0.950 . S
C5371 C5370 1.327 . S
C5371 C5375 1.429 . S
C5372 C5355 1.574 . S
C5372 H5366 0.949 . S
C5372 C5376 1.368 . S
C5373 C5354 1.429 . S
C5373 C5367 1.429 . S
C5373 C5374 1.523 . S
C5374 C5355 1.368 . S
C5374 C5368 1.368 . S
C5374 C5373 1.523 . S
C5375 C5359 1.429 . S
C5375 C5371 1.429 . S
C5375 C5376 1.523 . S
C5376 C5360 1.368 . S
C5376 C5372 1.368 . S
C5376 C5375 1.523 . S
H5377 C5352 0.950 . S
H5378 C5354 0.950 . S
H5379 C5355 0.949 . S
H5380 C5357 0.950 . S
H5381 C5359 0.950 . S
C5382 C5383 1.349 . S
C5382 C5384 1.327 . S
C5382 H5407 0.950 . S
C5383 C5382 1.349 . S
C5383 C5399 1.349 . S
C5384 C5382 1.327 . S
C5384 C5403 1.429 . S
C5384 H5408 0.950 . S
C5385 C5402 1.574 . S
C5385 C5404 1.368 . S
C5385 H5409 0.949 . S
H5386 C5390 0.949 . S
C5387 C5388 1.349 . S
C5387 C5389 1.327 . S
C5387 H5410 0.950 . S
C5388 C5387 1.349 . S
C5388 C5400 1.349 . S
C5389 C5387 1.327 . S
C5389 C5405 1.429 . S
C5389 H5411 0.950 . S
C5390 H5386 0.949 . S
C5390 C5398 1.574 . S
C5390 C5406 1.368 . S
H5391 C5399 0.950 . S
H5392 C5397 0.950 . S
H5393 C5398 0.949 . S
H5394 C5400 0.950 . S
H5395 C5401 0.950 . S
H5396 C5402 0.949 . S
C5397 H5392 0.950 . S
C5397 C5399 1.327 . S
C5397 C5403 1.429 . S
C5398 C5390 1.574 . S
C5398 H5393 0.949 . S
C5398 C5404 1.368 . S
C5399 C5383 1.349 . S
C5399 H5391 0.950 . S
C5399 C5397 1.327 . S
C5400 C5388 1.349 . S
C5400 H5394 0.950 . S
C5400 C5401 1.327 . S
C5401 H5395 0.950 . S
C5401 C5400 1.327 . S
C5401 C5405 1.429 . S
C5402 C5385 1.574 . S
C5402 H5396 0.949 . S
C5402 C5406 1.368 . S
C5403 C5384 1.429 . S
C5403 C5397 1.429 . S
C5403 C5404 1.523 . S
C5404 C5385 1.368 . S
C5404 C5398 1.368 . S
C5404 C5403 1.523 . S
C5405 C5389 1.429 . S
C5405 C5401 1.429 . S
C5405 C5406 1.523 . S
C5406 C5390 1.368 . S
C5406 C5402 1.368 . S
C5406 C5405 1.523 . S
H5407 C5382 0.950 . S
H5408 C5384 0.950 . S
H5409 C5385 0.949 . S
H5410 C5387 0.950 . S
H5411 C5389 0.950 . S
C5412 C5413 1.349 . S
C5412 C5414 1.327 . S
C5412 H5437 0.950 . S
C5413 C5412 1.349 . S
C5413 C5429 1.349 . S
C5414 C5412 1.327 . S
C5414 C5433 1.429 . S
C5414 H5438 0.950 . S
C5415 C5432 1.574 . S
C5415 C5434 1.368 . S
C5415 H5439 0.949 . S
H5416 C5420 0.949 . S
C5417 C5418 1.349 . S
C5417 C5419 1.327 . S
C5417 H5440 0.950 . S
C5418 C5417 1.349 . S
C5418 C5430 1.349 . S
C5419 C5417 1.327 . S
C5419 C5435 1.429 . S
C5419 H5441 0.950 . S
C5420 H5416 0.949 . S
C5420 C5428 1.574 . S
C5420 C5436 1.368 . S
H5421 C5429 0.950 . S
H5422 C5427 0.950 . S
H5423 C5428 0.949 . S
H5424 C5430 0.950 . S
H5425 C5431 0.950 . S
H5426 C5432 0.949 . S
C5427 H5422 0.950 . S
C5427 C5429 1.327 . S
C5427 C5433 1.429 . S
C5428 C5420 1.574 . S
C5428 H5423 0.949 . S
C5428 C5434 1.368 . S
C5429 C5413 1.349 . S
C5429 H5421 0.950 . S
C5429 C5427 1.327 . S
C5430 C5418 1.349 . S
C5430 H5424 0.950 . S
C5430 C5431 1.327 . S
C5431 H5425 0.950 . S
C5431 C5430 1.327 . S
C5431 C5435 1.429 . S
C5432 C5415 1.574 . S
C5432 H5426 0.949 . S
C5432 C5436 1.368 . S
C5433 C5414 1.429 . S
C5433 C5427 1.429 . S
C5433 C5434 1.523 . S
C5434 C5415 1.368 . S
C5434 C5428 1.368 . S
C5434 C5433 1.523 . S
C5435 C5419 1.429 . S
C5435 C5431 1.429 . S
C5435 C5436 1.523 . S
C5436 C5420 1.368 . S
C5436 C5432 1.368 . S
C5436 C5435 1.523 . S
H5437 C5412 0.950 . S
H5438 C5414 0.950 . S
H5439 C5415 0.949 . S
H5440 C5417 0.950 . S
H5441 C5419 0.950 . S
C5442 C5443 1.349 . S
C5442 C5444 1.327 . S
C5442 H5467 0.950 . S
C5443 C5442 1.349 . S
C5443 C5459 1.349 . S
C5444 C5442 1.327 . S
C5444 C5463 1.429 . S
C5444 H5468 0.950 . S
C5445 C5462 1.574 . S
C5445 C5464 1.368 . S
C5445 H5469 0.949 . S
H5446 C5450 0.949 . S
C5447 C5448 1.349 . S
C5447 C5449 1.327 . S
C5447 H5470 0.950 . S
C5448 C5447 1.349 . S
C5448 C5460 1.349 . S
C5449 C5447 1.327 . S
C5449 C5465 1.429 . S
C5449 H5471 0.950 . S
C5450 H5446 0.949 . S
C5450 C5458 1.574 . S
C5450 C5466 1.368 . S
H5451 C5459 0.950 . S
H5452 C5457 0.950 . S
H5453 C5458 0.949 . S
H5454 C5460 0.950 . S
H5455 C5461 0.950 . S
H5456 C5462 0.949 . S
C5457 H5452 0.950 . S
C5457 C5459 1.327 . S
C5457 C5463 1.429 . S
C5458 C5450 1.574 . S
C5458 H5453 0.949 . S
C5458 C5464 1.368 . S
C5459 C5443 1.349 . S
C5459 H5451 0.950 . S
C5459 C5457 1.327 . S
C5460 C5448 1.349 . S
C5460 H5454 0.950 . S
C5460 C5461 1.327 . S
C5461 H5455 0.950 . S
C5461 C5460 1.327 . S
C5461 C5465 1.429 . S
C5462 C5445 1.574 . S
C5462 H5456 0.949 . S
C5462 C5466 1.368 . S
C5463 C5444 1.429 . S
C5463 C5457 1.429 . S
C5463 C5464 1.523 . S
C5464 C5445 1.368 . S
C5464 C5458 1.368 . S
C5464 C5463 1.523 . S
C5465 C5449 1.429 . S
C5465 C5461 1.429 . S
C5465 C5466 1.523 . S
C5466 C5450 1.368 . S
C5466 C5462 1.368 . S
C5466 C5465 1.523 . S
H5467 C5442 0.950 . S
H5468 C5444 0.950 . S
H5469 C5445 0.949 . S
H5470 C5447 0.950 . S
H5471 C5449 0.950 . S
C5472 C5473 1.349 . S
C5472 C5474 1.327 . S
C5472 H5497 0.950 . S
C5473 C5472 1.349 . S
C5473 C5489 1.349 . S
C5474 C5472 1.327 . S
C5474 C5493 1.429 . S
C5474 H5498 0.950 . S
C5475 C5492 1.574 . S
C5475 C5494 1.368 . S
C5475 H5499 0.949 . S
H5476 C5480 0.949 . S
C5477 C5478 1.349 . S
C5477 C5479 1.327 . S
C5477 H5500 0.950 . S
C5478 C5477 1.349 . S
C5478 C5490 1.349 . S
C5479 C5477 1.327 . S
C5479 C5495 1.429 . S
C5479 H5501 0.950 . S
C5480 H5476 0.949 . S
C5480 C5488 1.574 . S
C5480 C5496 1.368 . S
H5481 C5489 0.950 . S
H5482 C5487 0.950 . S
H5483 C5488 0.949 . S
H5484 C5490 0.950 . S
H5485 C5491 0.950 . S
H5486 C5492 0.949 . S
C5487 H5482 0.950 . S
C5487 C5489 1.327 . S
C5487 C5493 1.429 . S
C5488 C5480 1.574 . S
C5488 H5483 0.949 . S
C5488 C5494 1.368 . S
C5489 C5473 1.349 . S
C5489 H5481 0.950 . S
C5489 C5487 1.327 . S
C5490 C5478 1.349 . S
C5490 H5484 0.950 . S
C5490 C5491 1.327 . S
C5491 H5485 0.950 . S
C5491 C5490 1.327 . S
C5491 C5495 1.429 . S
C5492 C5475 1.574 . S
C5492 H5486 0.949 . S
C5492 C5496 1.368 . S
C5493 C5474 1.429 . S
C5493 C5487 1.429 . S
C5493 C5494 1.523 . S
C5494 C5475 1.368 . S
C5494 C5488 1.368 . S
C5494 C5493 1.523 . S
C5495 C5479 1.429 . S
C5495 C5491 1.429 . S
C5495 C5496 1.523 . S
C5496 C5480 1.368 . S
C5496 C5492 1.368 . S
C5496 C5495 1.523 . S
H5497 C5472 0.950 . S
H5498 C5474 0.950 . S
H5499 C5475 0.949 . S
H5500 C5477 0.950 . S
H5501 C5479 0.950 . S
C5502 C5503 1.349 . S
C5502 C5504 1.327 . S
C5502 H5527 0.950 . S
C5503 C5502 1.349 . S
C5503 C5519 1.349 . S
C5504 C5502 1.327 . S
C5504 C5523 1.429 . S
C5504 H5528 0.950 . S
C5505 C5522 1.574 . S
C5505 C5524 1.368 . S
C5505 H5529 0.949 . S
H5506 C5510 0.949 . S
C5507 C5508 1.349 . S
C5507 C5509 1.327 . S
C5507 H5530 0.950 . S
C5508 C5507 1.349 . S
C5508 C5520 1.349 . S
C5509 C5507 1.327 . S
C5509 C5525 1.429 . S
C5509 H5531 0.950 . S
C5510 H5506 0.949 . S
C5510 C5518 1.574 . S
C5510 C5526 1.368 . S
H5511 C5519 0.950 . S
H5512 C5517 0.950 . S
H5513 C5518 0.949 . S
H5514 C5520 0.950 . S
H5515 C5521 0.950 . S
H5516 C5522 0.949 . S
C5517 H5512 0.950 . S
C5517 C5519 1.327 . S
C5517 C5523 1.429 . S
C5518 C5510 1.574 . S
C5518 H5513 0.949 . S
C5518 C5524 1.368 . S
C5519 C5503 1.349 . S
C5519 H5511 0.950 . S
C5519 C5517 1.327 . S
C5520 C5508 1.349 . S
C5520 H5514 0.950 . S
C5520 C5521 1.327 . S
C5521 H5515 0.950 . S
C5521 C5520 1.327 . S
C5521 C5525 1.429 . S
C5522 C5505 1.574 . S
C5522 H5516 0.949 . S
C5522 C5526 1.368 . S
C5523 C5504 1.429 . S
C5523 C5517 1.429 . S
C5523 C5524 1.523 . S
C5524 C5505 1.368 . S
C5524 C5518 1.368 . S
C5524 C5523 1.523 . S
C5525 C5509 1.429 . S
C5525 C5521 1.429 . S
C5525 C5526 1.523 . S
C5526 C5510 1.368 . S
C5526 C5522 1.368 . S
C5526 C5525 1.523 . S
H5527 C5502 0.950 . S
H5528 C5504 0.950 . S
H5529 C5505 0.949 . S
H5530 C5507 0.950 . S
H5531 C5509 0.950 . S
C5532 C5533 1.349 . S
C5532 C5534 1.327 . S
C5532 H5557 0.950 . S
C5533 C5532 1.349 . S
C5533 C5549 1.349 . S
C5534 C5532 1.327 . S
C5534 C5553 1.429 . S
C5534 H5558 0.950 . S
C5535 C5552 1.574 . S
C5535 C5554 1.368 . S
C5535 H5559 0.949 . S
H5536 C5540 0.949 . S
C5537 C5538 1.349 . S
C5537 C5539 1.327 . S
C5537 H5560 0.950 . S
C5538 C5537 1.349 . S
C5538 C5550 1.349 . S
C5539 C5537 1.327 . S
C5539 C5555 1.429 . S
C5539 H5561 0.950 . S
C5540 H5536 0.949 . S
C5540 C5548 1.574 . S
C5540 C5556 1.368 . S
H5541 C5549 0.950 . S
H5542 C5547 0.950 . S
H5543 C5548 0.949 . S
H5544 C5550 0.950 . S
H5545 C5551 0.950 . S
H5546 C5552 0.949 . S
C5547 H5542 0.950 . S
C5547 C5549 1.327 . S
C5547 C5553 1.429 . S
C5548 C5540 1.574 . S
C5548 H5543 0.949 . S
C5548 C5554 1.368 . S
C5549 C5533 1.349 . S
C5549 H5541 0.950 . S
C5549 C5547 1.327 . S
C5550 C5538 1.349 . S
C5550 H5544 0.950 . S
C5550 C5551 1.327 . S
C5551 H5545 0.950 . S
C5551 C5550 1.327 . S
C5551 C5555 1.429 . S
C5552 C5535 1.574 . S
C5552 H5546 0.949 . S
C5552 C5556 1.368 . S
C5553 C5534 1.429 . S
C5553 C5547 1.429 . S
C5553 C5554 1.523 . S
C5554 C5535 1.368 . S
C5554 C5548 1.368 . S
C5554 C5553 1.523 . S
C5555 C5539 1.429 . S
C5555 C5551 1.429 . S
C5555 C5556 1.523 . S
C5556 C5540 1.368 . S
C5556 C5552 1.368 . S
C5556 C5555 1.523 . S
H5557 C5532 0.950 . S
H5558 C5534 0.950 . S
H5559 C5535 0.949 . S
H5560 C5537 0.950 . S
H5561 C5539 0.950 . S
C5562 C5563 1.349 . S
C5562 C5564 1.327 . S
C5562 H5587 0.950 . S
C5563 C5562 1.349 . S
C5563 C5579 1.349 . S
C5564 C5562 1.327 . S
C5564 C5583 1.429 . S
C5564 H5588 0.950 . S
C5565 C5582 1.574 . S
C5565 C5584 1.368 . S
C5565 H5589 0.949 . S
H5566 C5570 0.949 . S
C5567 C5568 1.349 . S
C5567 C5569 1.327 . S
C5567 H5590 0.950 . S
C5568 C5567 1.349 . S
C5568 C5580 1.349 . S
C5569 C5567 1.327 . S
C5569 C5585 1.429 . S
C5569 H5591 0.950 . S
C5570 H5566 0.949 . S
C5570 C5578 1.574 . S
C5570 C5586 1.368 . S
H5571 C5579 0.950 . S
H5572 C5577 0.950 . S
H5573 C5578 0.949 . S
H5574 C5580 0.950 . S
H5575 C5581 0.950 . S
H5576 C5582 0.949 . S
C5577 H5572 0.950 . S
C5577 C5579 1.327 . S
C5577 C5583 1.429 . S
C5578 C5570 1.574 . S
C5578 H5573 0.949 . S
C5578 C5584 1.368 . S
C5579 C5563 1.349 . S
C5579 H5571 0.950 . S
C5579 C5577 1.327 . S
C5580 C5568 1.349 . S
C5580 H5574 0.950 . S
C5580 C5581 1.327 . S
C5581 H5575 0.950 . S
C5581 C5580 1.327 . S
C5581 C5585 1.429 . S
C5582 C5565 1.574 . S
C5582 H5576 0.949 . S
C5582 C5586 1.368 . S
C5583 C5564 1.429 . S
C5583 C5577 1.429 . S
C5583 C5584 1.523 . S
C5584 C5565 1.368 . S
C5584 C5578 1.368 . S
C5584 C5583 1.523 . S
C5585 C5569 1.429 . S
C5585 C5581 1.429 . S
C5585 C5586 1.523 . S
C5586 C5570 1.368 . S
C5586 C5582 1.368 . S
C5586 C5585 1.523 . S
H5587 C5562 0.950 . S
H5588 C5564 0.950 . S
H5589 C5565 0.949 . S
H5590 C5567 0.950 . S
H5591 C5569 0.950 . S
C5592 C5593 1.349 . S
C5592 C5594 1.327 . S
C5592 H5617 0.950 . S
C5593 C5592 1.349 . S
C5593 C5609 1.349 . S
C5594 C5592 1.327 . S
C5594 C5613 1.429 . S
C5594 H5618 0.950 . S
C5595 C5612 1.574 . S
C5595 C5614 1.368 . S
C5595 H5619 0.949 . S
H5596 C5600 0.949 . S
C5597 C5598 1.349 . S
C5597 C5599 1.327 . S
C5597 H5620 0.950 . S
C5598 C5597 1.349 . S
C5598 C5610 1.349 . S
C5599 C5597 1.327 . S
C5599 C5615 1.429 . S
C5599 H5621 0.950 . S
C5600 H5596 0.949 . S
C5600 C5608 1.574 . S
C5600 C5616 1.368 . S
H5601 C5609 0.950 . S
H5602 C5607 0.950 . S
H5603 C5608 0.949 . S
H5604 C5610 0.950 . S
H5605 C5611 0.950 . S
H5606 C5612 0.949 . S
C5607 H5602 0.950 . S
C5607 C5609 1.327 . S
C5607 C5613 1.429 . S
C5608 C5600 1.574 . S
C5608 H5603 0.949 . S
C5608 C5614 1.368 . S
C5609 C5593 1.349 . S
C5609 H5601 0.950 . S
C5609 C5607 1.327 . S
C5610 C5598 1.349 . S
C5610 H5604 0.950 . S
C5610 C5611 1.327 . S
C5611 H5605 0.950 . S
C5611 C5610 1.327 . S
C5611 C5615 1.429 . S
C5612 C5595 1.574 . S
C5612 H5606 0.949 . S
C5612 C5616 1.368 . S
C5613 C5594 1.429 . S
C5613 C5607 1.429 . S
C5613 C5614 1.523 . S
C5614 C5595 1.368 . S
C5614 C5608 1.368 . S
C5614 C5613 1.523 . S
C5615 C5599 1.429 . S
C5615 C5611 1.429 . S
C5615 C5616 1.523 . S
C5616 C5600 1.368 . S
C5616 C5612 1.368 . S
C5616 C5615 1.523 . S
H5617 C5592 0.950 . S
H5618 C5594 0.950 . S
H5619 C5595 0.949 . S
H5620 C5597 0.950 . S
H5621 C5599 0.950 . S
C5622 C5623 1.349 . S
C5622 C5624 1.327 . S
C5622 H5647 0.950 . S
C5623 C5622 1.349 . S
C5623 C5639 1.349 . S
C5624 C5622 1.327 . S
C5624 C5643 1.429 . S
C5624 H5648 0.950 . S
C5625 C5642 1.574 . S
C5625 C5644 1.368 . S
C5625 H5649 0.949 . S
H5626 C5630 0.949 . S
C5627 C5628 1.349 . S
C5627 C5629 1.327 . S
C5627 H5650 0.950 . S
C5628 C5627 1.349 . S
C5628 C5640 1.349 . S
C5629 C5627 1.327 . S
C5629 C5645 1.429 . S
C5629 H5651 0.950 . S
C5630 H5626 0.949 . S
C5630 C5638 1.574 . S
C5630 C5646 1.368 . S
H5631 C5639 0.950 . S
H5632 C5637 0.950 . S
H5633 C5638 0.949 . S
H5634 C5640 0.950 . S
H5635 C5641 0.950 . S
H5636 C5642 0.949 . S
C5637 H5632 0.950 . S
C5637 C5639 1.327 . S
C5637 C5643 1.429 . S
C5638 C5630 1.574 . S
C5638 H5633 0.949 . S
C5638 C5644 1.368 . S
C5639 C5623 1.349 . S
C5639 H5631 0.950 . S
C5639 C5637 1.327 . S
C5640 C5628 1.349 . S
C5640 H5634 0.950 . S
C5640 C5641 1.327 . S
C5641 H5635 0.950 . S
C5641 C5640 1.327 . S
C5641 C5645 1.429 . S
C5642 C5625 1.574 . S
C5642 H5636 0.949 . S
C5642 C5646 1.368 . S
C5643 C5624 1.429 . S
C5643 C5637 1.429 . S
C5643 C5644 1.523 . S
C5644 C5625 1.368 . S
C5644 C5638 1.368 . S
C5644 C5643 1.523 . S
C5645 C5629 1.429 . S
C5645 C5641 1.429 . S
C5645 C5646 1.523 . S
C5646 C5630 1.368 . S
C5646 C5642 1.368 . S
C5646 C5645 1.523 . S
H5647 C5622 0.950 . S
H5648 C5624 0.950 . S
H5649 C5625 0.949 . S
H5650 C5627 0.950 . S
H5651 C5629 0.950 . S
C5652 C5653 1.349 . S
C5652 C5654 1.327 . S
C5652 H5677 0.950 . S
C5653 C5652 1.349 . S
C5653 C5669 1.349 . S
C5654 C5652 1.327 . S
C5654 C5673 1.429 . S
C5654 H5678 0.950 . S
C5655 C5672 1.574 . S
C5655 C5674 1.368 . S
C5655 H5679 0.949 . S
H5656 C5660 0.949 . S
C5657 C5658 1.349 . S
C5657 C5659 1.327 . S
C5657 H5680 0.950 . S
C5658 C5657 1.349 . S
C5658 C5670 1.349 . S
C5659 C5657 1.327 . S
C5659 C5675 1.429 . S
C5659 H5681 0.950 . S
C5660 H5656 0.949 . S
C5660 C5668 1.574 . S
C5660 C5676 1.368 . S
H5661 C5669 0.950 . S
H5662 C5667 0.950 . S
H5663 C5668 0.949 . S
H5664 C5670 0.950 . S
H5665 C5671 0.950 . S
H5666 C5672 0.949 . S
C5667 H5662 0.950 . S
C5667 C5669 1.327 . S
C5667 C5673 1.429 . S
C5668 C5660 1.574 . S
C5668 H5663 0.949 . S
C5668 C5674 1.368 . S
C5669 C5653 1.349 . S
C5669 H5661 0.950 . S
C5669 C5667 1.327 . S
C5670 C5658 1.349 . S
C5670 H5664 0.950 . S
C5670 C5671 1.327 . S
C5671 H5665 0.950 . S
C5671 C5670 1.327 . S
C5671 C5675 1.429 . S
C5672 C5655 1.574 . S
C5672 H5666 0.949 . S
C5672 C5676 1.368 . S
C5673 C5654 1.429 . S
C5673 C5667 1.429 . S
C5673 C5674 1.523 . S
C5674 C5655 1.368 . S
C5674 C5668 1.368 . S
C5674 C5673 1.523 . S
C5675 C5659 1.429 . S
C5675 C5671 1.429 . S
C5675 C5676 1.523 . S
C5676 C5660 1.368 . S
C5676 C5672 1.368 . S
C5676 C5675 1.523 . S
H5677 C5652 0.950 . S
H5678 C5654 0.950 . S
H5679 C5655 0.949 . S
H5680 C5657 0.950 . S
H5681 C5659 0.950 . S
C5682 C5683 1.349 . S
C5682 C5684 1.327 . S
C5682 H5707 0.950 . S
C5683 C5682 1.349 . S
C5683 C5699 1.349 . S
C5684 C5682 1.327 . S
C5684 C5703 1.429 . S
C5684 H5708 0.950 . S
C5685 C5702 1.574 . S
C5685 C5704 1.368 . S
C5685 H5709 0.949 . S
H5686 C5690 0.949 . S
C5687 C5688 1.349 . S
C5687 C5689 1.327 . S
C5687 H5710 0.950 . S
C5688 C5687 1.349 . S
C5688 C5700 1.349 . S
C5689 C5687 1.327 . S
C5689 C5705 1.429 . S
C5689 H5711 0.950 . S
C5690 H5686 0.949 . S
C5690 C5698 1.574 . S
C5690 C5706 1.368 . S
H5691 C5699 0.950 . S
H5692 C5697 0.950 . S
H5693 C5698 0.949 . S
H5694 C5700 0.950 . S
H5695 C5701 0.950 . S
H5696 C5702 0.949 . S
C5697 H5692 0.950 . S
C5697 C5699 1.327 . S
C5697 C5703 1.429 . S
C5698 C5690 1.574 . S
C5698 H5693 0.949 . S
C5698 C5704 1.368 . S
C5699 C5683 1.349 . S
C5699 H5691 0.950 . S
C5699 C5697 1.327 . S
C5700 C5688 1.349 . S
C5700 H5694 0.950 . S
C5700 C5701 1.327 . S
C5701 H5695 0.950 . S
C5701 C5700 1.327 . S
C5701 C5705 1.429 . S
C5702 C5685 1.574 . S
C5702 H5696 0.949 . S
C5702 C5706 1.368 . S
C5703 C5684 1.429 . S
C5703 C5697 1.429 . S
C5703 C5704 1.523 . S
C5704 C5685 1.368 . S
C5704 C5698 1.368 . S
C5704 C5703 1.523 . S
C5705 C5689 1.429 . S
C5705 C5701 1.429 . S
C5705 C5706 1.523 . S
C5706 C5690 1.368 . S
C5706 C5702 1.368 . S
C5706 C5705 1.523 . S
H5707 C5682 0.950 . S
H5708 C5684 0.950 . S
H5709 C5685 0.949 . S
H5710 C5687 0.950 . S
H5711 C5689 0.950 . S
C2833 C1183 1.650 . S
C2838 C5 1.649 . S
C2863 C92 1.691 . S
C2868 C1036 1.695 . S
C2893 C123 1.724 . S
C2898 C1095 1.727 . S
C2923 C1154 1.838 . S
C2928 C210 1.841 . S
C2953 C1390 1.811 . S
C2958 C288 1.814 . S
C2983 C298 1.752 . S
C2988 C1272 1.765 . S
C3013 C406 1.629 . S
C3018 C1301 1.630 . S
C3043 C416 1.665 . S
C3048 C947 1.665 . S
C3073 C475 1.660 . S
C3078 C890 1.667 . S
C3103 C583 1.648 . S
C3108 C741 1.661 . S
C3133 C593 1.563 . S
C3138 C772 1.569 . S
C3163 C859 1.702 . S
C3168 C701 1.690 . S
C3193 C1468 1.903 . S
C3198 C2629 1.918 . S
C3223 C2422 1.483 . S
C3228 C1478 1.485 . S
C3253 C1586 1.866 . S
C3258 C2481 1.877 . S
C3283 C2570 1.762 . S
C3288 C1596 1.753 . S
C3313 C1657 1.564 . S
C3318 C2776 1.550 . S
C3343 C2658 1.818 . S
C3348 C1744 1.822 . S
C3373 C1775 1.385 . S
C3378 C2717 1.370 . S
C3403 C2393 1.941 . S
C3408 C1862 1.944 . S
C3433 C1921 1.775 . S
C3438 C2353 1.759 . S
C3463 C2127 1.684 . S
C3468 C1952 1.696 . S
C3493 C2235 1.690 . S
C3498 C2039 1.707 . S
C3523 C2245 1.731 . S
C3528 C2070 1.744 . S
C3553 C1539 1.053 . S
C3558 C52 1.048 . S
C3583 C62 0.961 . S
C3588 C1626 0.966 . S
C3613 C170 1.060 . S
C3618 C1421 1.070 . S
C3643 C180 1.168 . S
C3648 C1508 1.160 . S
C3673 C241 1.229 . S
C3678 C1822 1.203 . S
C3703 C1832 1.069 . S
C3708 C328 1.072 . S
C3733 C1704 1.024 . S
C3738 C359 1.036 . S
C3763 C1714 1.049 . S
C3768 C446 1.058 . S
C3793 C2157 1.148 . S
C3798 C505 1.153 . S
C3823 C536 0.960 . S
C3828 C2188 0.961 . S
C3853 C2275 1.141 . S
C3858 C623 1.145 . S
C3883 C654 0.950 . S
C3888 C2306 0.951 . S
C3913 C711 0.999 . S
C3918 C1891 0.998 . S
C3943 C819 1.095 . S
C3948 C1999 1.090 . S
C3973 C2009 1.011 . S
C3978 C829 1.013 . S
C4003 C2117 1.095 . S
C4008 C937 1.101 . S
C4033 C977 1.122 . S
C4038 C2540 1.107 . S
C4063 C1006 1.050 . S
C4068 C2688 1.054 . S
C4093 C2747 1.183 . S
C4098 C1065 1.176 . S
C4123 C2363 0.868 . S
C4128 C1124 0.864 . S
C4153 C1213 1.113 . S
C4158 C2806 1.106 . S
C4183 C2452 1.222 . S
C4188 C1242 1.221 . S
C4213 C1331 1.173 . S
C4218 C2511 1.171 . S
C4243 C1360 0.881 . S
C4248 C2599 0.884 . S
C4273 C1655 1.865 . S
C4278 C33 1.875 . S
C4303 C1763 1.936 . S
C4308 C64 1.910 . S
C4333 C1773 1.971 . S
C4338 C151 1.992 . S
C4363 C182 1.915 . S
C4368 C1881 1.943 . S
C4393 C1449 1.957 . S
C4398 C239 1.925 . S
C4423 C1480 1.972 . S
C4428 C347 1.992 . S
C4453 C357 1.862 . S
C4458 C1567 1.897 . S
C4483 C1598 1.921 . S
C4488 C465 1.927 . S
C4513 C524 1.885 . S
C4518 C2247 1.874 . S
C4543 C534 1.967 . S
C4548 C2334 1.996 . S
C4573 C2129 1.885 . S
C4578 C642 1.898 . S
C4603 C652 1.994 . S
C4608 C2216 2.016 . S
C4633 C2058 2.032 . S
C4638 C713 2.003 . S
C4663 C800 1.858 . S
C4668 C2068 1.852 . S
C4693 C831 2.000 . S
C4698 C1940 2.027 . S
C4723 C918 1.869 . S
C4728 C1950 1.861 . S
C4753 C2660 1.913 . S
C4758 C996 1.912 . S
C4783 C1008 2.053 . S
C4788 C2589 2.076 . S
C4813 C1067 1.968 . S
C4818 C2648 1.984 . S
C4843 C1126 1.795 . S
C4848 C2424 1.802 . S
C4873 C2483 1.869 . S
C4878 C1232 1.875 . S
C4903 C2412 2.006 . S
C4908 C1244 1.997 . S
C4933 C2778 2.054 . S
C4938 C1350 2.075 . S
C4963 C1362 1.819 . S
C4968 C2719 1.833 . S
C4993 C888 1.335 . S
C4998 C3 1.327 . S
C5023 C111 1.252 . S
C5028 C760 1.246 . S
C5053 C770 1.297 . S
C5058 C121 1.281 . S
C5083 C878 1.235 . S
C5088 C229 1.243 . S
C5113 C564 1.181 . S
C5118 C269 1.185 . S
C5143 C300 1.317 . S
C5148 C595 1.324 . S
C5173 C387 1.233 . S
C5178 C682 1.229 . S
C5203 C477 1.321 . S
C5208 C418 1.315 . S
C5233 C949 1.272 . S
C5238 C1185 1.278 . S
C5263 C1409 1.351 . S
C5268 C1055 1.363 . S
C5293 C1291 1.116 . S
C5298 C1114 1.114 . S
C5323 C1173 1.363 . S
C5328 C1303 1.356 . S
C5353 C2304 1.324 . S
C5358 C1419 1.326 . S
C5383 C2176 1.361 . S
C5388 C1527 1.360 . S
C5413 C1537 1.354 . S
C5418 C2186 1.342 . S
C5443 C2294 1.353 . S
C5448 C1645 1.351 . S
C5473 C1980 1.308 . S
C5478 C1685 1.309 . S
C5503 C1716 1.358 . S
C5508 C2011 1.362 . S
C5533 C1803 1.330 . S
C5538 C2098 1.337 . S
C5563 C1834 1.340 . S
C5568 C1893 1.342 . S
C5593 C2365 1.332 . S
C5598 C2601 1.334 . S
C5623 C2825 1.424 . S
C5628 C2471 1.434 . S
C5653 C2707 1.363 . S
C5658 C2530 1.361 . S
C5683 C2766 1.470 . S
C5688 C2542 1.444 . S
