# Generated by pormake.
# Topology gan, (5)-cn, num edge types: 1
# Building blocks:
#     Node 0, Type 0, BuildingBlock: XOMCOT_clean_sbu_1, # of connection points: 5
#     Node 1, Type 0, BuildingBlock: XOMCOT_clean_sbu_1, # of connection points: 5
#     Node 2, Type 0, BuildingBlock: XOMCOT_clean_sbu_1, # of connection points: 5
#     Node 3, Type 0, BuildingBlock: XOMCOT_clean_sbu_1, # of connection points: 5
#     Node 4, Type 0, BuildingBlock: XOMCOT_clean_sbu_1, # of connection points: 5
#     Node 5, Type 0, BuildingBlock: XOMCOT_clean_sbu_1, # of connection points: 5
#     Node 6, Type 0, BuildingBlock: XOMCOT_clean_sbu_1, # of connection points: 5
#     Node 7, Type 0, BuildingBlock: XOMCOT_clean_sbu_1, # of connection points: 5
#     Node 8, Type 0, BuildingBlock: XOMCOT_clean_sbu_1, # of connection points: 5
#     Node 9, Type 0, BuildingBlock: XOMCOT_clean_sbu_1, # of connection points: 5
#     Node 10, Type 0, BuildingBlock: XOMCOT_clean_sbu_1, # of connection points: 5
#     Node 11, Type 0, BuildingBlock: XOMCOT_clean_sbu_1, # of connection points: 5
#     Node 12, Type 0, BuildingBlock: XOMCOT_clean_sbu_1, # of connection points: 5
#     Node 13, Type 0, BuildingBlock: XOMCOT_clean_sbu_1, # of connection points: 5
#     Node 14, Type 0, BuildingBlock: XOMCOT_clean_sbu_1, # of connection points: 5
#     Node 15, Type 0, BuildingBlock: XOMCOT_clean_sbu_1, # of connection points: 5
#     Edge 16, Type (0, 0), BuildingBlock: CIFDUS_clean_linker_0, # of connection points: 2
#     Edge 17, Type (0, 0), BuildingBlock: CIFDUS_clean_linker_0, # of connection points: 2
#     Edge 18, Type (0, 0), BuildingBlock: CIFDUS_clean_linker_0, # of connection points: 2
#     Edge 19, Type (0, 0), BuildingBlock: CIFDUS_clean_linker_0, # of connection points: 2
#     Edge 20, Type (0, 0), BuildingBlock: CIFDUS_clean_linker_0, # of connection points: 2
#     Edge 21, Type (0, 0), BuildingBlock: CIFDUS_clean_linker_0, # of connection points: 2
#     Edge 22, Type (0, 0), BuildingBlock: CIFDUS_clean_linker_0, # of connection points: 2
#     Edge 23, Type (0, 0), BuildingBlock: CIFDUS_clean_linker_0, # of connection points: 2
#     Edge 24, Type (0, 0), BuildingBlock: CIFDUS_clean_linker_0, # of connection points: 2
#     Edge 25, Type (0, 0), BuildingBlock: CIFDUS_clean_linker_0, # of connection points: 2
#     Edge 26, Type (0, 0), BuildingBlock: CIFDUS_clean_linker_0, # of connection points: 2
#     Edge 27, Type (0, 0), BuildingBlock: CIFDUS_clean_linker_0, # of connection points: 2
#     Edge 28, Type (0, 0), BuildingBlock: CIFDUS_clean_linker_0, # of connection points: 2
#     Edge 29, Type (0, 0), BuildingBlock: CIFDUS_clean_linker_0, # of connection points: 2
#     Edge 30, Type (0, 0), BuildingBlock: CIFDUS_clean_linker_0, # of connection points: 2
#     Edge 31, Type (0, 0), BuildingBlock: CIFDUS_clean_linker_0, # of connection points: 2
#     Edge 32, Type (0, 0), BuildingBlock: CIFDUS_clean_linker_0, # of connection points: 2
#     Edge 33, Type (0, 0), BuildingBlock: CIFDUS_clean_linker_0, # of connection points: 2
#     Edge 34, Type (0, 0), BuildingBlock: CIFDUS_clean_linker_0, # of connection points: 2
#     Edge 35, Type (0, 0), BuildingBlock: CIFDUS_clean_linker_0, # of connection points: 2
#     Edge 36, Type (0, 0), BuildingBlock: CIFDUS_clean_linker_0, # of connection points: 2
#     Edge 37, Type (0, 0), BuildingBlock: CIFDUS_clean_linker_0, # of connection points: 2
#     Edge 38, Type (0, 0), BuildingBlock: CIFDUS_clean_linker_0, # of connection points: 2
#     Edge 39, Type (0, 0), BuildingBlock: CIFDUS_clean_linker_0, # of connection points: 2
#     Edge 40, Type (0, 0), BuildingBlock: CIFDUS_clean_linker_0, # of connection points: 2
#     Edge 41, Type (0, 0), BuildingBlock: CIFDUS_clean_linker_0, # of connection points: 2
#     Edge 42, Type (0, 0), BuildingBlock: CIFDUS_clean_linker_0, # of connection points: 2
#     Edge 43, Type (0, 0), BuildingBlock: CIFDUS_clean_linker_0, # of connection points: 2
#     Edge 44, Type (0, 0), BuildingBlock: CIFDUS_clean_linker_0, # of connection points: 2
#     Edge 45, Type (0, 0), BuildingBlock: CIFDUS_clean_linker_0, # of connection points: 2
#     Edge 46, Type (0, 0), BuildingBlock: CIFDUS_clean_linker_0, # of connection points: 2
#     Edge 47, Type (0, 0), BuildingBlock: CIFDUS_clean_linker_0, # of connection points: 2
#     Edge 48, Type (0, 0), BuildingBlock: CIFDUS_clean_linker_0, # of connection points: 2
#     Edge 49, Type (0, 0), BuildingBlock: CIFDUS_clean_linker_0, # of connection points: 2
#     Edge 50, Type (0, 0), BuildingBlock: CIFDUS_clean_linker_0, # of connection points: 2
#     Edge 51, Type (0, 0), BuildingBlock: CIFDUS_clean_linker_0, # of connection points: 2
#     Edge 52, Type (0, 0), BuildingBlock: CIFDUS_clean_linker_0, # of connection points: 2
#     Edge 53, Type (0, 0), BuildingBlock: CIFDUS_clean_linker_0, # of connection points: 2
#     Edge 54, Type (0, 0), BuildingBlock: CIFDUS_clean_linker_0, # of connection points: 2
#     Edge 55, Type (0, 0), BuildingBlock: CIFDUS_clean_linker_0, # of connection points: 2
# Relax obj value: 0.078
# Max RMSD: 0.107
# Mean RMSD: 0.095
data_MOF--net-gan--node1-XOMCOT_clean_sbu_1--edge1-CIFDUS_clean_linker_0
_symmetry_space_group_name_H-M    P1
_symmetry_Int_Tables_number       1
_symmetry_cell_setting            triclinic
loop_
_symmetry_equiv_pos_as_xyz
'x, y, z'
_cell_length_a     38.037249
_cell_length_b     38.02698
_cell_length_c     36.780783
_cell_angle_alpha  90.634874
_cell_angle_beta   90.035496
_cell_angle_gamma 90.798041
loop_
_atom_site_label
_atom_site_type_symbol
_atom_site_fract_x
_atom_site_fract_y
_atom_site_fract_z
_atom_type_partial_charge
C0 C 0.14182 0.16103 0.20665 0.0
C1 C 0.11848 0.14031 0.18709 0.0
N2 N 0.11893 0.15046 0.15205 0.0
N3 N 0.1575 0.18436 0.18443 0.0
C4 C 0.14283 0.17747 0.15128 0.0
H5 H 0.14664 0.15959 0.23557 0.0
Co6 Co 0.1903 0.21889 0.20149 0.0
C7 C 0.23829 0.23071 0.13878 0.0
O8 O 0.26554 0.23176 0.16074 0.0
N9 N 0.22231 0.25464 0.21971 0.0
C10 C 0.24865 0.30736 0.22439 0.0
C11 C 0.22723 0.28595 0.20338 0.0
C12 C 0.24068 0.2583 0.25141 0.0
N13 N 0.25721 0.29024 0.25499 0.0
O14 O 0.1563 0.25364 0.19347 0.0
H15 H 0.21537 0.29315 0.17784 0.0
H16 H 0.24088 0.23849 0.27215 0.0
O17 O 0.20744 0.22546 0.15159 0.0
C18 C 0.13495 0.26043 0.2191 0.0
O19 O 0.13956 0.24558 0.25081 0.0
N20 N 0.22219 0.18265 0.21087 0.0
C21 C 0.24933 0.1167 0.22754 0.0
C22 C 0.25163 0.13006 0.19224 0.0
C23 C 0.23592 0.16178 0.18415 0.0
C24 C 0.22267 0.17173 0.24604 0.0
C25 C 0.23589 0.13876 0.255 0.0
H26 H 0.23165 0.16706 0.15594 0.0
H27 H 0.20909 0.18679 0.26664 0.0
H28 H 0.14944 0.19213 0.12714 0.0
H29 H 0.10166 0.11999 0.19831 0.0
H30 H 0.25694 0.33373 0.21739 0.0
H31 H 0.26218 0.11461 0.17001 0.0
H32 H 0.2325 0.12962 0.28255 0.0
C33 C 0.20023 0.83708 0.26658 0.0
C34 C 0.2216 0.8148 0.24722 0.0
N35 N 0.24993 0.80709 0.26758 0.0
N36 N 0.21426 0.84396 0.29959 0.0
C37 C 0.24467 0.82519 0.29947 0.0
H38 H 0.17552 0.84742 0.25721 0.0
Co39 Co 0.19057 0.87423 0.33411 0.0
C40 C 0.2044 0.84639 0.4056 0.0
O41 O 0.17028 0.84541 0.41126 0.0
N42 N 0.16704 0.90592 0.36917 0.0
C43 C 0.16558 0.94514 0.41523 0.0
C44 C 0.18667 0.92564 0.39262 0.0
C45 C 0.13332 0.91483 0.37848 0.0
N46 N 0.13175 0.93854 0.40665 0.0
O47 O 0.22643 0.9089 0.32832 0.0
H48 H 0.21508 0.92558 0.3938 0.0
H49 H 0.11011 0.90393 0.36552 0.0
O50 O 0.21625 0.85446 0.37422 0.0
C51 C 0.2204 0.92597 0.29958 0.0
O52 O 0.19339 0.91635 0.27932 0.0
N53 N 0.15451 0.84105 0.3362 0.0
C54 C 0.10101 0.793 0.3188 0.0
C55 C 0.13229 0.78174 0.3351 0.0
C56 C 0.15894 0.80623 0.34332 0.0
C57 C 0.12496 0.85215 0.3193 0.0
C58 C 0.09747 0.8289 0.31146 0.0
H59 H 0.18382 0.79696 0.35338 0.0
H60 H 0.12341 0.87905 0.3103 0.0
H61 H 0.2626 0.82494 0.32231 0.0
H62 H 0.21598 0.80454 0.22028 0.0
H63 H 0.17473 0.96334 0.43611 0.0
H64 H 0.1368 0.75419 0.34016 0.0
H65 H 0.07393 0.83913 0.29914 0.0
C66 C 0.34286 0.8008 0.68447 0.0
C67 C 0.32122 0.77857 0.70374 0.0
N68 N 0.32051 0.78949 0.73858 0.0
N69 N 0.35566 0.82666 0.70644 0.0
C70 C 0.34198 0.81856 0.73974 0.0
H71 H 0.34904 0.79792 0.65596 0.0
Co72 Co 0.38563 0.86367 0.68776 0.0
C73 C 0.35823 0.92905 0.71924 0.0
O74 O 0.35947 0.94271 0.6866 0.0
N75 N 0.41703 0.9005 0.66841 0.0
C76 C 0.45996 0.9416 0.66901 0.0
C77 C 0.4388 0.92006 0.68987 0.0
C78 C 0.42591 0.91121 0.63415 0.0
N79 N 0.45199 0.93615 0.63374 0.0
O80 O 0.42182 0.85088 0.7203 0.0
H81 H 0.43956 0.91855 0.71921 0.0
H82 H 0.41436 0.90056 0.60957 0.0
O83 O 0.36716 0.89712 0.72389 0.0
C84 C 0.44238 0.83199 0.70137 0.0
O85 O 0.43301 0.82355 0.66796 0.0
N86 N 0.35138 0.87298 0.65311 0.0
C87 C 0.30469 0.86928 0.59472 0.0
C88 C 0.29396 0.88302 0.62858 0.0
C89 C 0.31759 0.88382 0.65788 0.0
C90 C 0.36159 0.8586 0.62088 0.0
C91 C 0.33897 0.8567 0.59143 0.0
H92 H 0.3083 0.89175 0.68442 0.0
H93 H 0.38715 0.84672 0.61864 0.0
H94 H 0.34745 0.8337 0.76423 0.0
H95 H 0.30778 0.75535 0.69311 0.0
H96 H 0.47949 0.96018 0.67922 0.0
H97 H 0.26746 0.89228 0.63267 0.0
H98 H 0.34802 0.84395 0.56676 0.0
C99 C 0.39899 0.14912 0.92485 0.0
C100 C 0.42085 0.12977 0.94645 0.0
N101 N 0.40764 0.09683 0.94951 0.0
N102 N 0.37154 0.12914 0.9134 0.0
C103 C 0.37737 0.09727 0.9292 0.0
H104 H 0.40268 0.17655 0.91819 0.0
Co105 Co 0.33581 0.15038 0.88337 0.0
C106 C 0.31015 0.09684 0.83187 0.0
O107 O 0.3096 0.12243 0.80821 0.0
N108 N 0.29899 0.17399 0.85441 0.0
C109 C 0.24418 0.18547 0.83567 0.0
C110 C 0.26482 0.16397 0.85647 0.0
C111 C 0.2978 0.20259 0.83193 0.0
N112 N 0.26465 0.21021 0.81996 0.0
O113 O 0.30432 0.14803 0.92372 0.0
H114 H 0.25525 0.14203 0.87229 0.0
H115 H 0.32063 0.21809 0.8248 0.0
O116 O 0.32 0.10339 0.8647 0.0
C117 C 0.29845 0.17747 0.93934 0.0
O118 O 0.31072 0.20642 0.92452 0.0
N119 N 0.36922 0.15415 0.8461 0.0
C120 C 0.43361 0.1631 0.81158 0.0
C121 C 0.41941 0.12945 0.81604 0.0
C122 C 0.38725 0.12546 0.83371 0.0
C123 C 0.38258 0.18715 0.84115 0.0
C124 C 0.41447 0.19229 0.8232 0.0
H125 H 0.37924 0.09916 0.84094 0.0
H126 H 0.37058 0.20928 0.8547 0.0
H127 H 0.3597 0.07491 0.92595 0.0
H128 H 0.44432 0.13985 0.95978 0.0
H129 H 0.21604 0.18261 0.83244 0.0
H130 H 0.43448 0.1064 0.80892 0.0
H131 H 0.42577 0.21856 0.82175 0.0
C132 C 0.71096 0.35026 0.76854 0.0
C133 C 0.73499 0.33116 0.74899 0.0
N134 N 0.74864 0.30634 0.77046 0.0
N135 N 0.70902 0.33851 0.80296 0.0
C136 C 0.73256 0.31159 0.80333 0.0
H137 H 0.69486 0.37073 0.75753 0.0
Co138 Co 0.67315 0.35542 0.83586 0.0
C139 C 0.69581 0.34173 0.91031 0.0
O140 O 0.66413 0.32973 0.91771 0.0
N141 N 0.63559 0.37319 0.86828 0.0
C142 C 0.58603 0.37653 0.90125 0.0
C143 C 0.60558 0.35605 0.878 0.0
C144 C 0.63276 0.40483 0.88626 0.0
N145 N 0.60287 0.40744 0.90662 0.0
O146 O 0.69047 0.40206 0.8304 0.0
H147 H 0.59803 0.32976 0.86966 0.0
H148 H 0.65242 0.42559 0.88474 0.0
O149 O 0.70387 0.34999 0.87771 0.0
C150 C 0.67134 0.41779 0.80753 0.0
O151 O 0.64339 0.40117 0.79459 0.0
N152 N 0.65499 0.31006 0.837 0.0
C153 C 0.61766 0.24743 0.82619 0.0
C154 C 0.6464 0.24902 0.85032 0.0
C155 C 0.66524 0.2807 0.85497 0.0
C156 C 0.62953 0.30802 0.81113 0.0
C157 C 0.61011 0.27735 0.80576 0.0
H158 H 0.68776 0.28145 0.87283 0.0
H159 H 0.62312 0.3312 0.79583 0.0
H160 H 0.73665 0.29515 0.82672 0.0
H161 H 0.7415 0.33525 0.72071 0.0
H162 H 0.56077 0.36936 0.91273 0.0
H163 H 0.65391 0.22626 0.8658 0.0
H164 H 0.58812 0.27802 0.78712 0.0
C165 C 0.83892 0.30198 0.18089 0.0
C166 C 0.81743 0.279 0.19934 0.0
N167 N 0.81823 0.28749 0.23489 0.0
N168 N 0.85315 0.32605 0.20408 0.0
C169 C 0.84047 0.31598 0.23724 0.0
H170 H 0.84412 0.30075 0.15206 0.0
Co171 Co 0.88425 0.36285 0.18656 0.0
C172 C 0.85896 0.42864 0.21918 0.0
O173 O 0.86107 0.44238 0.18662 0.0
N174 N 0.91689 0.39914 0.16839 0.0
C175 C 0.96104 0.43891 0.17042 0.0
C176 C 0.93901 0.41755 0.19053 0.0
C177 C 0.92652 0.41027 0.13451 0.0
N178 N 0.95329 0.43444 0.13496 0.0
O179 O 0.92005 0.34801 0.21872 0.0
H180 H 0.93941 0.41538 0.21983 0.0
H181 H 0.91504 0.40047 0.10956 0.0
O182 O 0.86665 0.39628 0.22368 0.0
C183 C 0.94014 0.32904 0.19928 0.0
O184 O 0.93047 0.32158 0.16572 0.0
N185 N 0.85019 0.37435 0.15214 0.0
C186 C 0.80231 0.37435 0.09465 0.0
C187 C 0.79246 0.3864 0.12945 0.0
C188 C 0.81667 0.38547 0.15816 0.0
C189 C 0.85961 0.3617 0.11887 0.0
C190 C 0.83647 0.36196 0.08973 0.0
H191 H 0.80793 0.39203 0.18529 0.0
H192 H 0.88478 0.34922 0.11549 0.0
H193 H 0.84732 0.32922 0.26251 0.0
H194 H 0.80312 0.25683 0.18759 0.0
H195 H 0.98099 0.45669 0.18125 0.0
H196 H 0.76604 0.39538 0.13472 0.0
H197 H 0.84479 0.35057 0.06408 0.0
C198 C 0.88928 0.65026 0.43598 0.0
C199 C 0.91174 0.63113 0.45713 0.0
N200 N 0.90185 0.59695 0.45588 0.0
N201 N 0.86482 0.6289 0.42057 0.0
C202 C 0.87296 0.59637 0.43354 0.0
H203 H 0.89052 0.67843 0.43229 0.0
Co204 Co 0.82943 0.64934 0.38966 0.0
C205 C 0.81158 0.59763 0.3329 0.0
O206 O 0.81128 0.62459 0.31089 0.0
N207 N 0.79284 0.67214 0.35959 0.0
C208 C 0.73894 0.68172 0.33707 0.0
C209 C 0.75916 0.66033 0.35853 0.0
C210 C 0.79174 0.70154 0.33822 0.0
N211 N 0.7592 0.70808 0.32402 0.0
O212 O 0.79583 0.64184 0.42751 0.0
H213 H 0.74969 0.63722 0.37257 0.0
H214 H 0.81419 0.71834 0.33331 0.0
O215 O 0.81857 0.60266 0.36674 0.0
C216 C 0.78905 0.66995 0.44524 0.0
O217 O 0.8011 0.70007 0.43284 0.0
N218 N 0.86463 0.65856 0.35562 0.0
C219 C 0.93013 0.67675 0.32782 0.0
C220 C 0.91913 0.64157 0.32806 0.0
C221 C 0.88618 0.63292 0.34225 0.0
C222 C 0.87508 0.69292 0.35514 0.0
C223 C 0.90731 0.70274 0.3403 0.0
H224 H 0.88 0.60544 0.34608 0.0
H225 H 0.86013 0.71238 0.36986 0.0
H226 H 0.85803 0.57278 0.42671 0.0
H227 H 0.93324 0.64202 0.47311 0.0
H228 H 0.71126 0.67768 0.33152 0.0
H229 H 0.93686 0.62085 0.31999 0.0
H230 H 0.91584 0.73002 0.34214 0.0
C231 C 0.88709 0.90422 0.96766 0.0
C232 C 0.8676 0.88099 0.94643 0.0
N233 N 0.86514 0.89393 0.9125 0.0
N234 N 0.89723 0.93192 0.94753 0.0
C235 C 0.88335 0.92496 0.91407 0.0
H236 H 0.89356 0.9011 0.99607 0.0
Co237 Co 0.92384 0.97096 0.96566 0.0
C238 C 0.95613 1.00037 0.89951 0.0
O239 O 0.9865 1.00471 0.91613 0.0
N240 N 0.9504 1.01132 0.98445 0.0
C241 C 0.96696 0.0675 0.99336 0.0
C242 C 0.94525 0.0448 0.97391 0.0
C243 C 0.97524 1.01487 1.01107 0.0
N244 N 0.98597 0.04872 1.01696 0.0
O245 O 0.88148 0.99606 0.96975 0.0
H246 H 0.92641 0.0524 0.95352 0.0
H247 H 0.98529 0.99328 1.02638 0.0
O248 O 0.92979 0.98759 0.9165 0.0
C249 C 0.87082 0.9982 1.0024 0.0
O250 O 0.8923 0.98935 0.02865 0.0
N251 N 0.96396 0.94354 0.96383 0.0
C252 C 1.01786 0.89527 0.96999 0.0
C253 C 1.00587 0.90557 0.93568 0.0
C254 C 0.97826 0.9291 0.93318 0.0
C255 C 0.9738 0.93211 0.99721 0.0
C256 C 1.00145 0.9089 1.00106 0.0
H257 H 0.96731 0.93398 0.9067 0.0
H258 H 0.95929 0.94034 1.02102 0.0
H259 H 0.88614 0.94257 0.89135 0.0
H260 H 0.85662 0.85616 0.95537 0.0
H261 H 0.96775 0.09583 0.99094 0.0
H262 H 1.01627 0.89397 0.91097 0.0
H263 H 1.00906 0.90083 0.02805 0.0
C264 C 0.9355 0.14637 0.6695 0.0
C265 C 0.91509 0.16768 0.69137 0.0
N266 N 0.88567 0.17622 0.67313 0.0
N267 N 0.91943 0.14092 0.63723 0.0
C268 C 0.88917 0.15962 0.64023 0.0
H269 H 0.96068 0.13554 0.6767 0.0
Co270 Co 0.93814 0.11245 0.59838 0.0
C271 C 0.87372 0.09003 0.55847 0.0
O272 O 0.88443 0.05735 0.55639 0.0
N273 N 0.95746 0.08428 0.55823 0.0
C274 C 0.96934 0.07014 0.50025 0.0
C275 C 0.94964 0.09089 0.52312 0.0
C276 C 0.98318 0.05951 0.55544 0.0
N277 N 0.99078 0.05023 0.52032 0.0
O278 O 0.95282 0.15423 0.57456 0.0
H279 H 0.9316 0.11083 0.51439 0.0
H280 H 0.99698 0.04919 0.57857 0.0
O281 O 0.89279 0.11346 0.57433 0.0
C282 C 0.98598 0.15771 0.57819 0.0
O283 O 1.00354 0.13227 0.59344 0.0
N284 N 0.92691 0.07266 0.62513 0.0
C285 C 0.92147 0.03518 0.68988 0.0
C286 C 0.89126 0.04351 0.66973 0.0
C287 C 0.89448 0.0634 0.63811 0.0
C288 C 0.95645 0.06201 0.64237 0.0
C289 C 0.95442 0.04347 0.67465 0.0
H290 H 0.87091 0.07424 0.62677 0.0
H291 H 0.98175 0.07219 0.6339 0.0
H292 H 0.86989 0.16082 0.61869 0.0
H293 H 0.92198 0.17668 0.71849 0.0
H294 H 0.96913 0.07116 0.47086 0.0
H295 H 0.86516 0.03736 0.67963 0.0
H296 H 0.97874 0.0392 0.68904 0.0
C297 C 0.55775 0.08923 0.44165 0.0
C298 C 0.53672 0.07103 0.46557 0.0
N299 N 0.55702 0.05032 0.48608 0.0
N300 N 0.59168 0.08049 0.44641 0.0
C301 C 0.59045 0.05674 0.474 0.0
H302 H 0.54868 0.10747 0.42148 0.0
Co303 Co 0.62831 0.0987 0.41528 0.0
C304 C 0.68847 0.11379 0.46232 0.0
O305 O 0.68999 0.14502 0.44741 0.0
N306 N 0.66584 0.1169 0.38311 0.0
C307 C 0.72014 0.12032 0.35914 0.0
C308 C 0.69675 0.10006 0.37892 0.0
C309 C 0.67125 0.14719 0.36383 0.0
N310 N 0.70416 0.15012 0.34961 0.0
O311 O 0.63573 0.05232 0.39651 0.0
H312 H 0.70262 0.07497 0.39092 0.0
H313 H 0.65223 0.16766 0.36078 0.0
O314 O 0.66378 0.09212 0.45332 0.0
C315 C 0.61072 0.04431 0.37467 0.0
O316 O 0.58624 0.06766 0.36898 0.0
N317 N 0.61735 0.14375 0.43089 0.0
C318 C 0.59771 0.21329 0.44071 0.0
C319 C 0.61025 0.19375 0.4702 0.0
C320 C 0.61939 0.15851 0.46483 0.0
C321 C 0.60099 0.16078 0.40361 0.0
C322 C 0.59257 0.19589 0.40723 0.0
H323 H 0.62845 0.14336 0.4876 0.0
H324 H 0.59628 0.14729 0.37797 0.0
H325 H 0.61346 0.04378 0.4844 0.0
H326 H 0.50847 0.07323 0.46785 0.0
H327 H 0.74688 0.11355 0.3522 0.0
H328 H 0.61284 0.20538 0.49708 0.0
H329 H 0.58302 0.20919 0.38342 0.0
C330 C 0.67037 0.89627 0.15435 0.0
C331 C 0.69047 0.87433 0.17534 0.0
N332 N 0.66918 0.8529 0.19473 0.0
N333 N 0.63586 0.88925 0.15947 0.0
C334 C 0.63612 0.86293 0.1847 0.0
H335 H 0.68075 0.91624 0.13651 0.0
Co336 Co 0.5958 0.91352 0.13702 0.0
C337 C 0.5883 0.83889 0.11201 0.0
O338 O 0.62239 0.83393 0.11313 0.0
N339 N 0.55512 0.93696 0.11517 0.0
C340 C 0.49833 0.94681 0.10277 0.0
C341 C 0.52163 0.92771 0.12323 0.0
C342 C 0.55091 0.96218 0.08914 0.0
N343 N 0.51652 0.96873 0.08096 0.0
O344 O 0.57173 0.91014 0.18261 0.0
H345 H 0.51436 0.90772 0.14263 0.0
H346 H 0.57257 0.9751 0.07562 0.0
O347 O 0.57575 0.8689 0.12021 0.0
C348 C 0.58721 0.93403 0.20157 0.0
O349 O 0.61095 0.95412 0.18583 0.0
N350 N 0.62179 0.92168 0.09476 0.0
C351 C 0.67426 0.94716 0.04873 0.0
C352 C 0.65975 0.91318 0.04339 0.0
C353 C 0.6328 0.90107 0.06645 0.0
C354 C 0.63379 0.95541 0.09829 0.0
C355 C 0.65891 0.96902 0.07495 0.0
H356 H 0.62234 0.87494 0.06223 0.0
H357 H 0.62432 0.97176 0.12029 0.0
H358 H 0.61221 0.85123 0.19524 0.0
H359 H 0.71887 0.87444 0.17584 0.0
H360 H 0.46999 0.94465 0.10426 0.0
H361 H 0.67029 0.89543 1.02308 0.0
H362 H 0.66763 0.996 0.07902 0.0
C363 C 0.43838 0.64289 0.17564 0.0
C364 C 0.41826 0.66545 0.19641 0.0
N365 N 0.3909 0.67654 0.17634 0.0
N366 N 0.42419 0.63916 0.14223 0.0
C367 C 0.39535 0.66011 0.14346 0.0
H368 H 0.46204 0.62997 0.18439 0.0
Co369 Co 0.44335 0.61013 0.104 0.0
C370 C 0.38122 0.58961 0.06081 0.0
O371 O 0.39214 0.55699 0.05923 0.0
N372 N 0.4632 0.58167 0.06421 0.0
C373 C 0.48031 0.5719 1.00667 0.0
C374 C 0.46163 0.59341 0.02966 0.0
C375 C 0.48316 0.55203 0.06089 0.0
N376 N 0.49413 0.54572 1.02607 0.0
O377 O 0.46098 0.65166 0.08163 0.0
H378 H 0.44807 0.61687 1.02155 0.0
H379 H 0.49052 0.53579 0.08347 0.0
O380 O 0.39944 0.61306 0.07768 0.0
C381 C 0.49404 0.65416 0.0867 0.0
O382 O 0.51015 0.62808 0.10254 0.0
N383 N 0.42875 0.57054 0.12967 0.0
C384 C 0.41877 0.53683 0.19554 0.0
C385 C 0.38981 0.54853 0.17579 0.0
C386 C 0.39539 0.56584 0.14288 0.0
C387 C 0.45668 0.55635 0.14708 0.0
C388 C 0.45223 0.53899 0.17989 0.0
H389 H 0.37352 0.57951 0.13118 0.0
H390 H 0.48307 0.56297 0.13847 0.0
H391 H 0.37782 0.66304 0.1206 0.0
H392 H 0.42396 0.67335 0.22415 0.0
H393 H 0.48324 0.57521 0.97763 0.0
H394 H 0.36374 0.54808 0.18766 0.0
H395 H 0.47523 0.53084 0.19483 0.0
C396 C 0.06274 0.58975 0.94793 0.0
C397 C 0.04154 0.5709 0.97106 0.0
N398 N 0.06165 0.54938 0.99085 0.0
N399 N 0.09658 0.58063 0.95241 0.0
C400 C 0.09517 0.55598 0.97914 0.0
H401 H 0.05392 0.60901 0.92865 0.0
Co402 Co 0.13235 0.60135 0.92216 0.0
C403 C 0.19444 0.61206 0.96713 0.0
O404 O 0.19458 0.64444 0.95497 0.0
N405 N 0.16856 0.62208 0.89026 0.0
C406 C 0.22148 0.62585 0.86336 0.0
C407 C 0.19886 0.60497 0.88322 0.0
C408 C 0.17342 0.65331 0.87251 0.0
N409 N 0.20559 0.65639 0.85655 0.0
O410 O 0.13842 0.55706 0.89815 0.0
H411 H 0.20478 0.579 0.89305 0.0
H412 H 0.15447 0.67408 0.87163 0.0
O413 O 0.16969 0.59061 0.95752 0.0
C414 C 0.11332 0.54989 0.87619 0.0
O415 O 0.08782 0.57259 0.87292 0.0
N416 N 0.12301 0.64456 0.94411 0.0
C417 C 0.10258 0.7097 0.9703 0.0
C418 C 0.11559 0.68464 0.99424 0.0
C419 C 0.12508 0.65169 0.98059 0.0
C420 C 0.10682 0.66725 0.92152 0.0
C421 C 0.09739 0.70044 0.93373 0.0
H422 H 0.1339 0.63193 0.99928 0.0
H423 H 0.10095 0.65929 0.89384 0.0
H424 H 0.11811 0.54275 0.98934 0.0
H425 H 1.01332 0.57335 0.97347 0.0
H426 H 0.24757 0.61894 0.85426 0.0
H427 H 0.11829 0.69043 1.02301 0.0
H428 H 0.08528 0.7184 0.91495 0.0
C429 C 0.17032 0.39354 0.64822 0.0
C430 C 0.19107 0.37187 0.66875 0.0
N431 N 0.17059 0.35288 0.69142 0.0
N432 N 0.13609 0.38881 0.65689 0.0
C433 C 0.13731 0.36409 0.68377 0.0
H434 H 0.18017 0.41159 0.62811 0.0
Co435 Co 0.0954 0.41345 0.6359 0.0
C436 C 0.08356 0.33795 0.61635 0.0
O437 O 0.1175 0.33206 0.61516 0.0
N438 N 0.05457 0.43721 0.61567 0.0
C439 C 0.99764 0.44683 0.60422 0.0
C440 C 1.02127 0.42762 0.62409 0.0
C441 C 0.05 0.46294 0.59032 0.0
N442 N 1.01546 0.46922 0.58261 0.0
O443 O 0.07452 0.41426 0.68319 0.0
H444 H 1.01442 0.40735 0.64333 0.0
H445 H 0.07153 0.47638 0.57703 0.0
O446 O 0.0724 0.3687 0.62383 0.0
C447 C 0.09222 0.438 0.70017 0.0
O448 O 0.11667 0.45552 0.68245 0.0
N449 N 0.11813 0.41731 0.59108 0.0
C450 C 0.16878 0.43273 0.53935 0.0
C451 C 0.14955 0.40105 0.53717 0.0
C452 C 0.12326 0.3942 0.56294 0.0
C453 C 0.13439 0.44946 0.59122 0.0
C454 C 0.15953 0.45792 0.56533 0.0
H455 H 0.10875 0.3698 0.56094 0.0
H456 H 0.12953 0.46777 0.61326 0.0
H457 H 0.11391 0.35428 0.69713 0.0
H458 H 0.21933 0.37037 0.66656 0.0
H459 H 0.96931 0.44452 0.60599 0.0
H460 H 0.15617 0.38109 0.51718 0.0
H461 H 0.17415 0.48248 0.56796 0.0
C462 C 0.63653 0.65467 0.71811 0.0
C463 C 0.61262 0.63456 0.69855 0.0
N464 N 0.61103 0.64687 0.66439 0.0
N465 N 0.65071 0.67957 0.69655 0.0
C466 C 0.63426 0.67441 0.66398 0.0
H467 H 0.64316 0.65131 0.74644 0.0
Co468 Co 0.68575 0.71284 0.71208 0.0
C469 C 0.73519 0.71247 0.64922 0.0
O470 O 0.76247 0.70948 0.67084 0.0
N471 N 0.72018 0.74744 0.7283 0.0
C472 C 0.7525 0.79704 0.72895 0.0
C473 C 0.73163 0.77478 0.70815 0.0
C474 C 0.73398 0.75463 0.76186 0.0
N475 N 0.75411 0.78452 0.76303 0.0
O476 O 0.65506 0.74936 0.7003 0.0
H477 H 0.724 0.77931 0.68029 0.0
H478 H 0.72844 0.73911 0.7855 0.0
O479 O 0.70419 0.71395 0.6624 0.0
C480 C 0.63466 0.7594 0.72559 0.0
O481 O 0.63871 0.74643 0.75827 0.0
N482 N 0.71432 0.67527 0.72568 0.0
C483 C 0.73346 0.60996 0.75228 0.0
C484 C 0.73474 0.61666 0.71494 0.0
C485 C 0.72406 0.64911 0.7021 0.0
C486 C 0.7149 0.66966 0.76222 0.0
C487 C 0.72508 0.63742 0.7762 0.0
H488 H 0.71973 0.65126 0.67328 0.0
H489 H 0.70283 0.6883 0.78045 0.0
H490 H 0.63943 0.69036 0.64034 0.0
H491 H 0.59699 0.61293 0.70902 0.0
H492 H 0.76412 0.82152 0.71984 0.0
H493 H 0.7401 0.59571 0.69559 0.0
H494 H 0.72219 0.63277 0.80506 0.0
C495 C 0.41591 0.39552 0.44774 0.0
C496 C 0.39745 0.37331 0.42463 0.0
N497 N 0.37738 0.39267 0.40239 0.0
N498 N 0.4083 0.42919 0.44027 0.0
C499 C 0.38447 0.42658 0.41271 0.0
H500 H 0.43366 0.38745 0.46892 0.0
Co501 Co 0.42687 0.46916 0.46624 0.0
C502 C 0.43964 0.52249 0.40971 0.0
O503 O 0.46736 0.53451 0.42748 0.0
N504 N 0.44508 0.50939 0.49356 0.0
C505 C 0.44879 0.56353 0.51804 0.0
C506 C 0.42918 0.54091 0.49618 0.0
C507 C 0.47412 0.51367 0.51506 0.0
N508 N 0.47713 0.54635 0.53009 0.0
O509 O 0.38054 0.47989 0.48061 0.0
H510 H 0.40475 0.54719 0.48284 0.0
H511 H 0.4931 0.49349 0.51985 0.0
O512 O 0.42154 0.49708 0.4227 0.0
C513 C 0.37274 0.46107 0.50787 0.0
O514 O 0.39813 0.44388 0.52382 0.0
N515 N 0.47198 0.45524 0.45346 0.0
C516 C 0.5244 0.4074 0.43793 0.0
C517 C 0.51101 0.42868 0.41046 0.0
C518 C 0.4842 0.45209 0.41866 0.0
C519 C 0.48698 0.4369 0.48086 0.0
C520 C 0.5138 0.41337 0.47386 0.0
H521 H 0.47076 0.46387 0.3962 0.0
H522 H 0.47511 0.43723 0.50757 0.0
H523 H 0.37199 0.44919 0.40107 0.0
H524 H 0.39912 0.34495 0.42432 0.0
H525 H 0.44214 0.5903 0.52527 0.0
H526 H 0.51823 0.42432 0.38229 0.0
H527 H 0.52263 0.39673 0.49568 0.0
H528 H 0.27839 0.35846 0.268 0.0
H529 H 0.28553 0.25357 0.31118 0.0
H530 H 0.32204 0.27617 0.36088 0.0
H531 H 0.35278 0.32528 0.39194 0.0
H532 H 0.34809 0.42961 0.347 0.0
H533 H 0.30989 0.40739 0.29847 0.0
C534 C 0.28797 0.34018 0.28788 0.0
C535 C 0.27874 0.30393 0.2851 0.0
C536 C 0.30957 0.35333 0.31644 0.0
C537 C 0.29149 0.28144 0.31216 0.0
C538 C 0.31269 0.29441 0.34073 0.0
C539 C 0.34384 0.34338 0.37154 0.0
C540 C 0.35387 0.37943 0.37372 0.0
C541 C 0.32206 0.33027 0.34311 0.0
C542 C 0.34096 0.40199 0.34682 0.0
C543 C 0.3191 0.38917 0.31871 0.0
H544 H 0.9923 1.01613 0.45452 0.0
H545 H 0.05214 0.032 0.55316 0.0
H546 H 0.10016 0.99765 0.52734 0.0
H547 H 0.12669 0.9652 0.47571 0.0
H548 H 0.06721 0.94965 0.37683 0.0
H549 H 1.01787 0.9814 0.40378 0.0
C550 C 1.01581 1.01223 0.47051 0.0
C551 C 1.01824 0.02725 0.50601 0.0
C552 C 0.04367 0.99239 0.45529 0.0
C553 C 0.04897 0.0209 0.52613 0.0
C554 C 0.07671 1.00133 0.51116 0.0
C555 C 0.10305 0.96875 0.45983 0.0
C556 C 0.10125 0.95501 0.42378 0.0
C557 C 0.0746 0.98729 0.4756 0.0
C558 C 0.06971 0.9595 0.40443 0.0
C559 C 0.04142 0.97796 0.41988 0.0
H560 H 0.27079 0.68601 0.86203 0.0
H561 H 0.17353 0.69153 0.80262 0.0
H562 H 0.19992 0.7351 0.76169 0.0
H563 H 0.25238 0.76849 0.73984 0.0
H564 H 0.34833 0.7666 0.80171 0.0
H565 H 0.32102 0.72541 0.84474 0.0
C566 C 0.25531 0.6971 0.84035 0.0
C567 C 0.22016 0.68521 0.83527 0.0
C568 C 0.27057 0.72287 0.81733 0.0
C569 C 0.20041 0.70019 0.80726 0.0
C570 C 0.21563 0.72502 0.78373 0.0
C571 C 0.26702 0.75959 0.76322 0.0
C572 C 0.30244 0.77079 0.76757 0.0
C573 C 0.25086 0.73618 0.7881 0.0
C574 C 0.32105 0.75888 0.79795 0.0
C575 C 0.30545 0.73501 0.82236 0.0
H576 H 0.47572 0.09114 0.97307 0.0
H577 H 0.37474 0.03822 0.97677 0.0
H578 H 0.39942 0.99374 1.01681 0.0
H579 H 0.44938 0.97046 0.05258 0.0
H580 H 0.54975 0.02487 0.04952 0.0
H581 H 0.52548 0.0677 1.00789 0.0
C582 C 0.45874 0.07015 0.98267 0.0
C583 C 0.42285 0.06882 0.97163 0.0
C584 C 0.47314 0.0446 1.00616 0.0
C585 C 0.40221 0.04039 0.9842 0.0
C586 C 0.4164 1.01487 1.00746 0.0
C587 C 0.46615 0.99168 0.04316 0.0
C588 C 0.50184 0.99385 0.05498 0.0
C589 C 0.4518 1.01681 1.01897 0.0
C590 C 0.52258 0.02172 0.04129 0.0
C591 C 0.50854 0.04657 1.01737 0.0
H592 H 0.37483 0.69951 0.24562 0.0
H593 H 0.3439 0.7105 0.13328 0.0
H594 H 0.29865 0.7517 0.15156 0.0
H595 H 0.26777 0.78544 0.19882 0.0
H596 H 0.29779 0.77486 0.31132 0.0
H597 H 0.34381 0.73384 0.29324 0.0
C598 C 0.35854 0.71091 0.22485 0.0
C599 C 0.36348 0.7012 0.18771 0.0
C600 C 0.33225 0.73518 0.23559 0.0
C601 C 0.34116 0.71658 0.16191 0.0
C602 C 0.31513 0.74055 0.1724 0.0
C603 C 0.28395 0.77411 0.21973 0.0
C604 C 0.27851 0.7836 0.25678 0.0
C605 C 0.31035 0.75008 0.20912 0.0
C606 C 0.30095 0.76868 0.28274 0.0
C607 C 0.32733 0.74488 0.27234 0.0
H608 H 0.51835 0.96417 0.62771 0.0
H609 H 0.42113 0.94921 0.56875 0.0
H610 H 0.44556 0.98183 0.51753 0.0
H611 H 0.49366 1.01658 0.48987 0.0
H612 H 0.59135 0.03139 0.5478 0.0
H613 H 0.56787 0.99681 0.5985 0.0
C614 C 0.50241 0.96805 0.60372 0.0
C615 C 0.46758 0.95411 0.60257 0.0
C616 C 0.51682 0.98691 0.57396 0.0
C617 C 0.44788 0.95914 0.57068 0.0
C618 C 0.46186 0.97806 0.5413 0.0
C619 C 0.50992 1.01237 0.51356 0.0
C620 C 0.54436 0.02714 0.51484 0.0
C621 C 0.49616 0.99236 0.5427 0.0
C622 C 0.565 1.02045 0.54571 0.0
C623 C 0.5514 1.00077 0.5749 0.0
H624 H 0.19684 0.23118 0.80556 0.0
H625 H 0.30511 0.25438 0.77827 0.0
H626 H 0.28581 0.30032 0.73737 0.0
H627 H 0.23856 0.33381 0.70825 0.0
H628 H 0.13017 0.30971 0.73436 0.0
H629 H 0.1495 0.26462 0.77622 0.0
C630 C 0.21656 0.24587 0.79071 0.0
C631 C 0.25288 0.23839 0.7957 0.0
C632 C 0.20519 0.27251 0.76659 0.0
C633 C 0.27722 0.25891 0.77587 0.0
C634 C 0.26608 0.2854 0.75208 0.0
C635 C 0.21875 0.31892 0.72275 0.0
C636 C 0.18241 0.32602 0.71724 0.0
C637 C 0.23012 0.29244 0.74705 0.0
C638 C 0.15809 0.30571 0.73734 0.0
C639 C 0.16924 0.27956 0.76153 0.0
H640 H 0.08707 0.08597 0.14868 0.0
H641 H 0.10069 0.18193 0.08847 0.0
H642 H 0.06153 0.15869 0.04092 0.0
H643 H 1.02184 0.11159 1.01696 0.0
H644 H 1.00725 1.01674 0.079 0.0
H645 H 0.04805 0.03919 0.1249 0.0
C646 C 0.0814 0.10212 0.12541 0.0
C647 C 0.09697 0.13604 0.12275 0.0
C648 C 0.05845 0.0887 0.0982 0.0
C649 C 0.08957 0.15579 0.09155 0.0
C650 C 0.06688 0.14253 0.0643 0.0
C651 C 0.02731 0.09579 0.04056 0.0
C652 C 1.01103 0.06221 0.044 0.0
C653 C 0.05087 0.1091 0.06743 0.0
C654 C 1.01931 0.04228 0.07485 0.0
C655 C 0.04265 0.05528 0.10146 0.0
H656 H 0.86983 0.19561 0.74344 0.0
H657 H 0.83684 0.20974 0.63223 0.0
H658 H 0.79116 0.2496 0.65272 0.0
H659 H 0.76105 0.28191 0.70159 0.0
H660 H 0.79404 0.26958 0.81289 0.0
H661 H 0.83869 0.22763 0.79292 0.0
C662 C 0.85291 0.20744 0.72347 0.0
C663 C 0.8575 0.19925 0.68592 0.0
C664 C 0.82639 0.23088 0.73553 0.0
C665 C 0.83435 0.21482 0.66109 0.0
C666 C 0.8081 0.23797 0.67287 0.0
C667 C 0.77807 0.27047 0.72172 0.0
C668 C 0.77399 0.27971 0.759 0.0
C669 C 0.80399 0.24644 0.70994 0.0
C670 C 0.7961 0.26329 0.78422 0.0
C671 C 0.82191 0.23931 0.77268 0.0
H672 H 0.99815 0.51605 0.99302 0.0
H673 H 0.09523 0.52878 0.05246 0.0
H674 H 0.07068 0.49363 0.10225 0.0
H675 H 1.02025 0.46134 0.13031 0.0
H676 H 0.92354 0.44902 0.06984 0.0
H677 H 0.94922 0.48179 1.01945 0.0
C678 C 1.01406 0.51126 1.01685 0.0
C679 C 0.04861 0.5256 1.01886 0.0
C680 C 0.99964 0.49106 0.04545 0.0
C681 C 0.0688 0.51815 0.04983 0.0
C682 C 0.05457 0.49818 0.0785 0.0
C683 C 1.00469 0.46583 0.10617 0.0
C684 C 0.96963 0.45257 0.10433 0.0
C685 C 1.01981 0.48486 0.07689 0.0
C686 C 0.95044 0.45839 0.07228 0.0
C687 C 0.96514 0.4774 0.04337 0.0
H688 H 0.69176 0.72635 0.30428 0.0
H689 H 0.80066 0.75605 0.28817 0.0
H690 H 0.78259 0.80303 0.24806 0.0
H691 H 0.73637 0.83586 0.21654 0.0
H692 H 0.62745 0.80558 0.23138 0.0
H693 H 0.64538 0.75918 0.27239 0.0
C694 C 0.71188 0.74273 0.29206 0.0
C695 C 0.74801 0.73673 0.30002 0.0
C696 C 0.70126 0.77007 0.26836 0.0
C697 C 0.77285 0.75935 0.28349 0.0
C698 C 0.76245 0.78648 0.26014 0.0
C699 C 0.71617 0.81935 0.22839 0.0
C700 C 0.68011 0.82514 0.21998 0.0
C701 C 0.72673 0.79213 0.25222 0.0
C702 C 0.6552 0.80267 0.23667 0.0
C703 C 0.66554 0.77576 0.26037 0.0
H704 H 0.96957 0.59452 0.48084 0.0
H705 H 0.87252 0.53453 0.4776 0.0
H706 H 0.89917 0.48946 0.51557 0.0
H707 H 0.94952 0.46778 0.55181 0.0
H708 H 0.04614 0.52861 0.5553 0.0
H709 H 1.02016 0.5722 0.51545 0.0
C710 C 0.95394 0.57177 0.48845 0.0
C711 C 0.91852 0.5686 0.47621 0.0
C712 C 0.9695 0.54585 0.51065 0.0
C713 C 0.8996 0.53807 0.48609 0.0
C714 C 0.9149 0.51224 0.50814 0.0
C715 C 0.96505 0.49058 0.54416 0.0
C716 C 1.00015 0.49449 0.55731 0.0
C717 C 0.94974 0.51596 0.52099 0.0
C718 C 1.01946 0.52427 0.54592 0.0
C719 C 1.00442 0.54949 0.52308 0.0
H720 H 0.56336 0.40511 0.96834 0.0
H721 H 0.61116 0.47716 0.89279 0.0
H722 H 0.58283 0.52658 0.92397 0.0
H723 H 0.54141 0.54921 0.97063 0.0
H724 H 0.49507 0.4775 0.04742 0.0
H725 H 0.52585 0.42841 1.01821 0.0
C726 C 0.56776 0.43164 0.95874 0.0
C727 C 0.58937 0.43711 0.92778 0.0
C728 C 0.55141 0.46012 0.97709 0.0
C729 C 0.59503 0.47193 0.91641 0.0
C730 C 0.57855 0.50025 0.93419 0.0
C731 C 0.5381 0.52286 0.98113 0.0
C732 C 0.51544 0.51725 1.01124 0.0
C733 C 0.55621 0.49467 0.96422 0.0
C734 C 0.51224 0.48285 1.02462 0.0
C735 C 0.52975 0.45467 1.00767 0.0
H736 H 0.80587 0.83509 0.76266 0.0
H737 H 0.74237 0.77218 0.83517 0.0
H738 H 0.77096 0.80032 0.88732 0.0
H739 H 0.81336 0.84349 0.91302 0.0
H740 H 0.87658 0.90671 0.84064 0.0
H741 H 0.84798 0.87854 0.78833 0.0
C742 C 0.79788 0.82756 0.78975 0.0
C743 C 0.77162 0.80115 0.79431 0.0
C744 C 0.8143 0.84425 0.82003 0.0
C745 C 0.76252 0.79184 0.83013 0.0
C746 C 0.77882 0.8082 0.86026 0.0
C747 C 0.82123 0.85107 0.8859 0.0
C748 C 0.84744 0.87749 0.8813 0.0
C749 C 0.80474 0.83447 0.85561 0.0
C750 C 0.85644 0.88697 0.84553 0.0
C751 C 0.84016 0.8706 0.81539 0.0
H752 H 0.76962 0.17972 0.35538 0.0
H753 H 0.67277 0.18501 0.29512 0.0
H754 H 0.69889 0.22959 0.25533 0.0
H755 H 0.75065 0.26472 0.2351 0.0
H756 H 0.84633 0.263 0.29744 0.0
H757 H 0.81953 0.22011 0.33908 0.0
C758 C 0.75421 0.19082 0.33365 0.0
C759 C 0.71919 0.1786 0.3281 0.0
C760 C 0.7693 0.21727 0.31126 0.0
C761 C 0.69955 0.1938 0.30011 0.0
C762 C 0.71461 0.21927 0.27725 0.0
C763 C 0.76541 0.2554 0.2582 0.0
C764 C 0.80057 0.26724 0.26309 0.0
C765 C 0.74958 0.23095 0.28223 0.0
C766 C 0.81924 0.25482 0.29323 0.0
C767 C 0.80394 0.22996 0.31683 0.0
H768 H 0.50211 0.61353 0.53785 0.0
H769 H 0.5126 0.50889 0.58012 0.0
H770 H 0.55567 0.53056 0.62458 0.0
H771 H 0.58935 0.57948 0.65302 0.0
H772 H 0.58051 0.68407 0.6104 0.0
H773 H 0.53832 0.66232 0.56465 0.0
C774 C 0.51378 0.59548 0.55682 0.0
C775 C 0.50379 0.55947 0.55548 0.0
C776 C 0.53899 0.60818 0.58237 0.0
C777 C 0.51978 0.53652 0.58007 0.0
C778 C 0.54438 0.549 0.60574 0.0
C779 C 0.5782 0.59758 0.63376 0.0
C780 C 0.58808 0.63356 0.63551 0.0
C781 C 0.55404 0.58479 0.60735 0.0
C782 C 0.57371 0.65633 0.60971 0.0
C783 C 0.54935 0.64387 0.58363 0.0
H784 H 0.27012 0.08288 0.28998 0.0
H785 H 0.23669 0.0628 0.17897 0.0
H786 H 0.23294 1.00088 0.1905 0.0
H787 H 0.2281 0.95367 0.23372 0.0
H788 H 0.25408 0.97215 0.34641 0.0
H789 H 0.27155 0.03298 0.33267 0.0
C790 C 0.26226 0.065 0.26822 0.0
C791 C 0.25368 0.07823 0.23367 0.0
C792 C 0.25819 0.02889 0.27544 0.0
C793 C 0.24435 0.05415 0.2057 0.0
C794 C 0.24159 1.01836 0.21232 0.0
C795 C 0.23826 0.97083 0.25517 0.0
C796 C 0.23928 0.95887 0.29101 0.0
C797 C 0.24692 1.00573 0.24733 0.0
C798 C 0.25302 0.98097 0.31853 0.0
C799 C 0.26268 1.01579 0.31072 0.0
H800 H 0.1873 0.83817 0.47676 0.0
H801 H 0.2753 0.85843 0.40537 0.0
H802 H 0.31311 0.86987 0.45778 0.0
H803 H 0.32052 0.87686 0.52322 0.0
H804 H 0.23398 0.85299 0.59528 0.0
H805 H 0.19571 0.84206 0.54291 0.0
C806 C 0.21487 0.84461 0.47262 0.0
C807 C 0.2284 0.84747 0.43715 0.0
C808 C 0.23644 0.85148 0.50287 0.0
C809 C 0.26418 0.85591 0.43234 0.0
C810 C 0.28577 0.86277 0.46228 0.0
C811 C 0.29342 0.86879 0.52765 0.0
C812 C 0.28031 0.86561 0.56327 0.0
C813 C 0.27203 0.86111 0.49758 0.0
C814 C 0.24477 0.85619 0.56826 0.0
C815 C 0.22296 0.84943 0.53831 0.0
H816 H 0.30396 0.97344 0.72046 0.0
H817 H 0.3885 0.93551 0.78656 0.0
H818 H 0.37716 0.98161 0.83227 0.0
H819 H 0.34873 0.03843 0.84814 0.0
H820 H 0.26428 0.07501 0.78067 0.0
H821 H 0.26915 0.02323 0.74156 0.0
C822 C 0.31937 0.97485 0.74529 0.0
C823 C 0.34723 0.95156 0.75007 0.0
C824 C 0.31264 1.00125 0.77124 0.0
C825 C 0.36686 0.95326 0.78241 0.0
C826 C 0.36049 0.97973 0.80841 0.0
C827 C 0.3306 0.03432 0.82567 0.0
C828 C 0.30635 0.06065 0.81708 0.0
C829 C 0.33417 1.00467 0.80252 0.0
C830 C 0.28323 0.05517 0.78769 0.0
C831 C 0.2862 0.02571 0.7651 0.0
H832 H 0.25972 0.22977 0.96882 0.0
H833 H 0.30583 0.12977 0.99322 0.0
H834 H 0.29157 0.13788 0.05759 0.0
H835 H 0.2704 0.17565 0.10734 0.0
H836 H 0.21917 0.27295 0.08308 0.0
H837 H 0.23148 0.26412 1.01801 0.0
C838 C 0.26605 0.20953 0.98822 0.0
C839 C 0.28389 0.17929 0.97646 0.0
C840 C 0.25743 0.21423 1.02509 0.0
C841 C 0.29182 0.1531 1.00165 0.0
C842 C 0.284 0.1579 0.03847 0.0
C843 C 0.26156 0.19468 0.08772 0.0
C844 C 0.24427 0.22509 0.09968 0.0
C845 C 0.26754 0.1887 0.05055 0.0
C846 C 0.23277 0.24953 0.07421 0.0
C847 C 0.23974 0.24441 0.03716 0.0
H848 H 0.0825 0.27717 0.2666 0.0
H849 H 0.11376 0.28631 0.15411 0.0
H850 H 0.05651 0.30988 0.13898 0.0
H851 H 0.99644 0.32325 0.15634 0.0
H852 H 0.96395 0.31558 0.26827 0.0
H853 H 0.02311 0.29614 0.28515 0.0
C854 C 0.07693 0.28474 0.23887 0.0
C855 C 0.10227 0.27956 0.21145 0.0
C856 C 0.04374 0.29814 0.23023 0.0
C857 C 0.09474 0.28981 0.17572 0.0
C858 C 0.06194 0.30317 0.16698 0.0
C859 C 1.00229 0.31734 0.18449 0.0
C860 C 0.97588 0.32005 0.21098 0.0
C861 C 0.03606 0.30658 0.1938 0.0
C862 C 0.98395 0.31333 0.24744 0.0
C863 C 1.01766 0.30221 0.257 0.0
H864 H 0.58103 0.22093 0.76784 0.0
H865 H 0.59704 0.20577 0.88289 0.0
H866 H 0.54336 0.17044 0.88577 0.0
H867 H 0.48557 0.15653 0.85929 0.0
H868 H 0.4646 0.18134 0.74751 0.0
H869 H 0.52584 0.20111 0.73962 0.0
C870 C 0.57296 0.20967 0.79353 0.0
C871 C 0.5925 0.21715 0.82533 0.0
C872 C 0.54056 0.19189 0.79567 0.0
C873 C 0.58257 0.20081 0.85795 0.0
C874 C 0.55149 0.18099 0.85978 0.0
C875 C 0.49491 0.16537 0.833 0.0
C876 C 0.4712 0.16766 0.80394 0.0
C877 C 0.52932 0.17831 0.82939 0.0
C878 C 0.48282 0.17943 0.77003 0.0
C879 C 0.51765 0.19078 0.76567 0.0
H880 H 0.95787 0.71943 0.27676 0.0
H881 H 0.98458 0.65641 0.36908 0.0
H882 H 0.04266 0.68462 0.37241 0.0
H883 H 0.08093 0.73399 0.35545 0.0
H884 H 0.05593 0.79476 0.26048 0.0
H885 H 1.0019 0.76074 0.25195 0.0
C886 C 0.97698 0.7112 0.29674 0.0
C887 C 0.96733 0.68618 0.32267 0.0
C888 C 1.01009 0.7277 0.29865 0.0
C889 C 0.99188 0.67552 0.34868 0.0
C890 C 0.02484 0.69189 0.35084 0.0
C891 C 0.06433 0.73924 0.33223 0.0
C892 C 0.07195 0.7679 0.30957 0.0
C893 C 0.03361 0.71907 0.32691 0.0
C894 C 0.04997 0.77399 0.2795 0.0
C895 C 1.01918 0.7543 0.27428 0.0
H896 H 0.58314 0.78068 0.77201 0.0
H897 H 0.61497 0.78343 0.65929 0.0
H898 H 0.55862 0.80822 0.64272 0.0
H899 H 0.49883 0.82374 0.65908 0.0
H900 H 0.46567 0.82168 0.77112 0.0
H901 H 0.52437 0.80206 0.78932 0.0
C902 C 0.57794 0.78718 0.7439 0.0
C903 C 0.60307 0.77977 0.71686 0.0
C904 C 0.54523 0.80111 0.73444 0.0
C905 C 0.59605 0.78864 0.68061 0.0
C906 C 0.56377 0.80268 0.67106 0.0
C907 C 0.50445 0.81906 0.68754 0.0
C908 C 0.47796 0.82333 0.71373 0.0
C909 C 0.53791 0.80804 0.69757 0.0
C910 C 0.48573 0.8182 0.75055 0.0
C911 C 0.51917 0.80697 0.76086 0.0
H912 H 0.96962 0.99807 0.72948 0.0
H913 H 0.86794 0.04706 0.7393 0.0
H914 H 0.8687 0.03768 0.80425 0.0
H915 H 0.90086 0.02184 0.85968 0.0
H916 H 1.00661 0.98339 0.85061 0.0
H917 H 1.00246 0.98448 0.78429 0.0
C918 C 0.94773 1.00737 0.74555 0.0
C919 C 0.91907 0.02381 0.72869 0.0
C920 C 0.94948 1.00473 0.78349 0.0
C921 C 0.89034 0.03382 0.75059 0.0
C922 C 0.89093 0.02908 0.78818 0.0
C923 C 0.92297 1.01388 0.84304 0.0
C924 C 0.95411 1.00299 0.85975 0.0
C925 C 0.92081 1.01563 0.80502 0.0
C926 C 0.98262 0.99255 0.83819 0.0
C927 C 0.98013 0.99283 0.80034 0.0
H928 H 0.8206 0.04601 0.53577 0.0
H929 H 0.84865 0.1559 0.54886 0.0
H930 H 0.79224 0.17258 0.52348 0.0
H931 H 0.73665 0.15631 0.49457 0.0
H932 H 0.70768 0.04689 0.48057 0.0
H933 H 0.76249 0.02966 0.51011 0.0
C934 C 0.81434 0.07359 0.53309 0.0
C935 C 0.839 0.09966 0.54384 0.0
C936 C 0.78165 0.08309 0.51855 0.0
C937 C 0.83027 0.13529 0.54066 0.0
C938 C 0.79798 0.14488 0.52617 0.0
C939 C 0.74211 0.12864 0.49826 0.0
C940 C 0.7183 0.1029 0.48513 0.0
C941 C 0.77371 0.11904 0.51466 0.0
C942 C 0.72556 0.06722 0.49053 0.0
C943 C 0.75702 0.05737 0.50713 0.0
H944 H 0.55409 1.01282 0.34358 0.0
H945 H 0.66641 1.0033 0.3553 0.0
H946 H 0.66701 0.95942 0.30609 0.0
H947 H 0.63748 0.9345 0.25203 0.0
H948 H 0.52605 0.94733 0.23765 0.0
H949 H 0.52276 0.97842 0.29635 0.0
C950 C 0.5786 1.00052 0.33589 0.0
C951 C 0.61033 1.01181 0.35234 0.0
C952 C 0.57877 0.97607 0.30706 0.0
C953 C 0.64175 0.99521 0.34281 0.0
C954 C 0.64209 0.97031 0.31454 0.0
C955 C 0.61227 0.94292 0.26259 0.0
C956 C 0.58203 0.93899 0.2408 0.0
C957 C 0.61105 0.962 0.29535 0.0
C958 C 0.54949 0.94986 0.25428 0.0
C959 C 0.5478 0.9681 0.28751 0.0
H960 H 0.72629 0.98725 0.0787 0.0
H961 H 0.69835 0.93225 0.97919 0.0
H962 H 0.75591 0.94776 0.95354 0.0
H963 H 0.81601 0.97269 0.96206 0.0
H964 H 0.84193 0.02691 0.06242 0.0
H965 H 0.78205 1.0177 0.08432 0.0
C966 C 0.73191 0.97956 0.05087 0.0
C967 C 0.70761 0.95874 0.0309 0.0
C968 C 0.7646 0.98882 0.03632 0.0
C969 C 0.71654 0.94797 0.99541 0.0
C970 C 0.74937 0.95706 0.98063 0.0
C971 C 0.80809 0.98348 0.98818 0.0
C972 C 0.83314 1.0006 1.01066 0.0
C973 C 0.77385 0.97698 1.00114 0.0
C974 C 0.82296 1.01379 0.04473 0.0
C975 C 0.78887 1.00825 0.05735 0.0
H976 H 0.1215 0.77196 0.94186 0.0
H977 H 0.05881 0.72517 1.02659 0.0
H978 H 0.03021 0.78148 0.03796 0.0
H979 H 1.0161 0.84011 1.0161 0.0
H980 H 0.07767 0.88653 0.93 0.0
H981 H 0.11372 0.83395 0.92661 0.0
C982 C 0.10208 0.77445 0.96332 0.0
C983 C 0.09173 0.74469 0.98304 0.0
C984 C 0.08522 0.80647 0.96892 0.0
C985 C 0.06704 0.74792 1.01114 0.0
C986 C 0.05052 0.77996 1.01737 0.0
C987 C 0.0381 0.83929 0.9974 0.0
C988 C 0.04389 0.86692 0.97293 0.0
C989 C 0.05836 0.80891 0.99533 0.0
C990 C 0.07228 0.86522 0.94858 0.0
C991 C 0.09292 0.83526 0.94669 0.0
H992 H 0.47081 0.72129 0.09331 0.0
H993 H 0.56221 0.66004 0.06743 0.0
H994 H 0.59922 0.71292 0.06977 0.0
H995 H 0.60672 0.77479 0.0863 0.0
H996 H 0.51628 0.83641 0.11521 0.0
H997 H 0.47778 0.78529 0.10443 0.0
C998 C 0.49865 0.71982 0.0872 0.0
C999 C 0.51388 0.68697 0.08024 0.0
C1000 C 0.52003 0.75024 0.08983 0.0
C1001 C 0.55003 0.68514 0.07292 0.0
C1002 C 0.57122 0.7153 0.07446 0.0
C1003 C 0.57856 0.77721 0.08997 0.0
C1004 C 0.56449 0.80922 0.10206 0.0
C1005 C 0.5567 0.74772 0.08414 0.0
C1006 C 0.52786 0.81196 0.10619 0.0
C1007 C 0.50581 0.78273 0.10004 0.0
H1008 H 0.96355 0.22322 0.59567 0.0
H1009 H 0.05065 0.1665 0.54994 0.0
H1010 H 0.08825 0.21882 0.55537 0.0
H1011 H 0.09835 0.2777 0.58034 0.0
H1012 H 1.01253 0.33465 0.62859 0.0
H1013 H 0.97239 0.28529 0.61507 0.0
C1014 C 0.99041 0.22285 0.58577 0.0
C1015 C 1.00443 0.19132 0.57225 0.0
C1016 C 1.01229 0.25271 0.59034 0.0
C1017 C 0.03942 0.19068 0.56025 0.0
C1018 C 0.06098 0.22043 0.56368 0.0
C1019 C 0.07082 0.27944 0.58777 0.0
C1020 C 0.05856 0.30947 0.60604 0.0
C1021 C 0.04806 0.25109 0.58 0.0
C1022 C 0.02268 0.31161 0.6148 0.0
C1023 C 0.99972 0.28343 0.60704 0.0
H1024 H 0.58083 0.37664 0.47001 0.0
H1025 H 0.50196 0.36099 0.38665 0.0
H1026 H 0.51715 0.29943 0.38123 0.0
H1027 H 0.54715 0.24925 0.40498 0.0
H1028 H 0.6301 0.26356 0.48439 0.0
H1029 H 0.61718 0.32625 0.48831 0.0
C1030 C 0.56767 0.35983 0.45009 0.0
C1031 C 0.54049 0.37338 0.42867 0.0
C1032 C 0.57615 0.32409 0.44744 0.0
C1033 C 0.52348 0.35144 0.40296 0.0
C1034 C 0.53168 0.31604 0.40027 0.0
C1035 C 0.5634 0.26592 0.42239 0.0
C1036 C 0.58974 0.25136 0.44418 0.0
C1037 C 0.5572 0.30197 0.4231 0.0
C1038 C 0.60917 0.2737 0.46772 0.0
C1039 C 0.60218 0.3097 0.4696 0.0
H1040 H 0.7208 0.46483 0.83339 0.0
H1041 H 0.64462 0.44775 0.74755 0.0
H1042 H 0.66014 0.50405 0.72131 0.0
H1043 H 0.69258 0.55907 0.72398 0.0
H1044 H 0.76673 0.57982 0.81048 0.0
H1045 H 0.755 0.52098 0.83519 0.0
C1046 C 0.70777 0.47349 0.80891 0.0
C1047 C 0.68148 0.45223 0.79259 0.0
C1048 C 0.71654 0.50637 0.79399 0.0
C1049 C 0.66469 0.46372 0.76091 0.0
C1050 C 0.67364 0.49587 0.7457 0.0
C1051 C 0.70694 0.55041 0.74769 0.0
C1052 C 0.73102 0.57329 0.76499 0.0
C1053 C 0.69928 0.51742 0.76212 0.0
C1054 C 0.74839 0.5623 0.79652 0.0
C1055 C 0.74153 0.52885 0.81069 0.0
H1056 H 0.68258 0.33579 0.98231 0.0
H1057 H 0.76398 0.36569 0.90643 0.0
H1058 H 0.80302 0.38144 0.95708 0.0
H1059 H 0.814 0.38616 1.02272 0.0
H1060 H 0.73309 0.35398 0.09819 0.0
H1061 H 0.69329 0.34108 0.04764 0.0
C1062 C 0.70894 0.34553 0.97672 0.0
C1063 C 0.72045 0.34926 0.94059 0.0
C1064 C 0.73105 0.35477 1.00587 0.0
C1065 C 0.75455 0.36231 0.93397 0.0
C1066 C 0.77681 0.3715 0.96291 0.0
C1067 C 0.78767 0.37626 0.02815 0.0
C1068 C 0.77667 0.37095 0.06428 0.0
C1069 C 0.7653 0.3678 0.99894 0.0
C1070 C 0.74218 0.35883 0.07078 0.0
C1071 C 0.71953 0.35097 0.04185 0.0
H1072 H 0.80715 0.47574 0.21842 0.0
H1073 H 0.88675 0.43345 0.28802 0.0
H1074 H 0.87569 0.47997 0.33344 0.0
H1075 H 0.84874 0.53791 0.34882 0.0
H1076 H 0.76925 0.57856 0.27758 0.0
H1077 H 0.77421 0.52723 0.23792 0.0
C1078 C 0.82156 0.47631 0.2439 0.0
C1079 C 0.8479 0.45153 0.2498 0.0
C1080 C 0.81509 0.50302 0.26959 0.0
C1081 C 0.86623 0.45226 0.28299 0.0
C1082 C 0.86005 0.47901 0.30881 0.0
C1083 C 0.83175 0.53484 0.32528 0.0
C1084 C 0.80879 0.56214 0.316 0.0
C1085 C 0.83526 0.50527 0.3019 0.0
C1086 C 0.78723 0.55803 0.28517 0.0
C1087 C 0.79018 0.52876 0.26232 0.0
H1088 H 0.76352 0.65733 0.61355 0.0
H1089 H 0.71592 0.75798 0.59686 0.0
H1090 H 0.72576 0.75243 0.53111 0.0
H1091 H 0.75153 0.72047 0.47915 0.0
H1092 H 0.79565 0.61797 0.49526 0.0
H1093 H 0.78277 0.62211 0.56039 0.0
C1094 C 0.75529 0.67791 0.59534 0.0
C1095 C 0.73975 0.70836 0.6097 0.0
C1096 C 0.7601 0.67398 0.55762 0.0
C1097 C 0.72831 0.73457 0.58615 0.0
C1098 C 0.73387 0.73133 0.54868 0.0
C1099 C 0.75769 0.69877 0.49686 0.0
C1100 C 0.77459 0.66901 0.48252 0.0
C1101 C 0.75016 0.70136 0.53418 0.0
C1102 C 0.78231 0.64099 0.50563 0.0
C1103 C 0.77532 0.64353 0.54292 0.0
H1104 H 0.4505 0.57398 0.24843 0.0
H1105 H 0.37928 0.48645 0.23042 0.0
H1106 H 0.3769 0.47597 0.2963 0.0
H1107 H 0.39838 0.48996 0.35822 0.0
H1108 H 0.46987 0.57792 0.37496 0.0
H1109 H 0.4685 0.59038 0.31013 0.0
C1110 C 0.43456 0.55253 0.25903 0.0
C1111 C 0.41572 0.53044 0.23492 0.0
C1112 C 0.43327 0.54697 0.29652 0.0
C1113 C 0.39431 0.50339 0.2487 0.0
C1114 C 0.39297 0.49751 0.28622 0.0
C1115 C 0.41324 0.51217 0.34782 0.0
C1116 C 0.43444 0.53282 0.37145 0.0
C1117 C 0.41274 0.5189 0.31034 0.0
C1118 C 0.45355 0.56147 0.35741 0.0
C1119 C 0.45288 0.56856 0.32032 0.0
H1120 H 0.24189 0.65416 1.00065 0.0
H1121 H 0.21628 0.54473 0.98078 0.0
H1122 H 0.27214 0.52787 1.00866 0.0
H1123 H 0.32982 0.54492 0.03517 0.0
H1124 H 0.35437 0.65501 0.05339 0.0
H1125 H 0.29731 0.67091 0.02912 0.0
C1126 C 0.24831 0.62653 1.00258 0.0
C1127 C 0.22512 0.60072 0.98842 0.0
C1128 C 0.28047 0.61722 1.01789 0.0
C1129 C 0.23367 0.56508 0.99159 0.0
C1130 C 0.26571 0.55549 1.00724 0.0
C1131 C 0.32269 0.57238 0.03376 0.0
C1132 C 0.3465 0.59875 0.04582 0.0
C1133 C 0.28962 0.58143 1.01982 0.0
C1134 C 0.33667 0.63418 0.04421 0.0
C1135 C 0.304 0.64333 0.03039 0.0
H1136 H 0.05771 0.51851 0.84268 0.0
H1137 H 0.1704 0.51253 0.85393 0.0
H1138 H 0.17248 0.47048 0.80317 0.0
H1139 H 0.14349 0.44443 0.74941 0.0
H1140 H 0.03127 0.4517 0.73666 0.0
H1141 H 0.02742 0.48364 0.7949 0.0
C1142 C 0.08264 0.50745 0.83444 0.0
C1143 C 0.11398 0.5191 0.85142 0.0
C1144 C 0.08362 0.48371 0.80499 0.0
C1145 C 0.14601 0.50412 0.84109 0.0
C1146 C 0.1472 0.48024 0.81197 0.0
C1147 C 0.11808 0.45209 0.76007 0.0
C1148 C 0.0877 0.44617 0.73898 0.0
C1149 C 0.11637 0.47112 0.79283 0.0
C1150 C 0.05486 0.45587 0.75274 0.0
C1151 C 0.05281 0.47449 0.78573 0.0
H1152 H 0.31292 0.48595 0.47622 0.0
H1153 H 0.34967 0.41573 0.55921 0.0
H1154 H 0.28969 0.39675 0.57152 0.0
H1155 H 0.22675 0.40158 0.56097 0.0
H1156 H 0.18818 0.47505 0.48281 0.0
H1157 H 0.24885 0.49064 0.46546 0.0
C1158 C 0.30773 0.46668 0.49714 0.0
C1159 C 0.3358 0.45246 0.51687 0.0
C1160 C 0.27292 0.45593 0.50438 0.0
C1161 C 0.32864 0.42735 0.54375 0.0
C1162 C 0.29433 0.41622 0.55068 0.0
C1163 C 0.23179 0.42022 0.53937 0.0
C1164 C 0.2035 0.43645 0.5223 0.0
C1165 C 0.26635 0.43031 0.53122 0.0
C1166 C 0.20988 0.46163 0.49543 0.0
C1167 C 0.24444 0.47084 0.48599 0.0
loop_
_geom_bond_atom_site_label_1
_geom_bond_atom_site_label_2
_geom_bond_distance
_geom_bond_site_symmetry_2
_ccdc_geom_bond_type
C0 C1 1.351 . S
C0 N3 1.368 . S
C0 H5 0.931 . S
C1 C0 1.351 . S
C1 N2 1.373 . S
C1 H29 0.930 . S
N2 C1 1.373 . S
N2 C4 1.340 . S
N3 C0 1.368 . S
N3 C4 1.321 . S
N3 Co6 2.135 . S
C4 N2 1.340 . S
C4 N3 1.321 . S
C4 H28 0.930 . S
H5 C0 0.931 . S
Co6 N3 2.135 . S
Co6 N9 2.121 . S
Co6 O14 2.055 . S
Co6 O17 2.039 . S
Co6 N20 2.140 . S
C7 O8 1.227 . S
C7 O17 1.265 . S
O8 C7 1.227 . S
N9 Co6 2.121 . S
N9 C11 1.375 . S
N9 C12 1.313 . S
C10 C11 1.338 . S
C10 N13 1.377 . S
C10 H30 0.930 . S
C11 N9 1.375 . S
C11 C10 1.338 . S
C11 H15 0.931 . S
C12 N9 1.313 . S
C12 N13 1.344 . S
C12 H16 0.930 . S
N13 C10 1.377 . S
N13 C12 1.344 . S
O14 Co6 2.055 . S
O14 C18 1.253 . S
H15 C11 0.931 . S
H16 C12 0.930 . S
O17 Co6 2.039 . S
O17 C7 1.265 . S
C18 O14 1.253 . S
C18 O19 1.227 . S
O19 C18 1.227 . S
N20 Co6 2.140 . S
N20 C23 1.346 . S
N20 C24 1.345 . S
C21 C22 1.387 . S
C21 C25 1.391 . S
C22 C21 1.387 . S
C22 C23 1.369 . S
C22 H31 0.929 . S
C23 N20 1.346 . S
C23 C22 1.369 . S
C23 H26 0.928 . S
C24 N20 1.345 . S
C24 C25 1.371 . S
C24 H27 0.931 . S
C25 C21 1.391 . S
C25 C24 1.371 . S
C25 H32 0.930 . S
H26 C23 0.928 . S
H27 C24 0.931 . S
H28 C4 0.930 . S
H29 C1 0.930 . S
H30 C10 0.930 . S
H31 C22 0.929 . S
H32 C25 0.930 . S
C33 C34 1.351 . S
C33 N36 1.368 . S
C33 H38 0.931 . S
C34 C33 1.351 . S
C34 N35 1.373 . S
C34 H62 0.930 . S
N35 C34 1.373 . S
N35 C37 1.340 . S
N36 C33 1.368 . S
N36 C37 1.321 . S
N36 Co39 2.135 . S
C37 N35 1.340 . S
C37 N36 1.321 . S
C37 H61 0.930 . S
H38 C33 0.931 . S
Co39 N36 2.135 . S
Co39 N42 2.121 . S
Co39 O47 2.055 . S
Co39 O50 2.039 . S
Co39 N53 2.140 . S
C40 O41 1.227 . S
C40 O50 1.265 . S
O41 C40 1.227 . S
N42 Co39 2.121 . S
N42 C44 1.375 . S
N42 C45 1.313 . S
C43 C44 1.338 . S
C43 N46 1.377 . S
C43 H63 0.930 . S
C44 N42 1.375 . S
C44 C43 1.338 . S
C44 H48 0.931 . S
C45 N42 1.313 . S
C45 N46 1.344 . S
C45 H49 0.930 . S
N46 C43 1.377 . S
N46 C45 1.344 . S
O47 Co39 2.055 . S
O47 C51 1.253 . S
H48 C44 0.931 . S
H49 C45 0.930 . S
O50 Co39 2.039 . S
O50 C40 1.265 . S
C51 O47 1.253 . S
C51 O52 1.227 . S
O52 C51 1.227 . S
N53 Co39 2.140 . S
N53 C56 1.346 . S
N53 C57 1.345 . S
C54 C55 1.387 . S
C54 C58 1.391 . S
C55 C54 1.387 . S
C55 C56 1.369 . S
C55 H64 0.929 . S
C56 N53 1.346 . S
C56 C55 1.369 . S
C56 H59 0.928 . S
C57 N53 1.345 . S
C57 C58 1.371 . S
C57 H60 0.931 . S
C58 C54 1.391 . S
C58 C57 1.371 . S
C58 H65 0.930 . S
H59 C56 0.928 . S
H60 C57 0.931 . S
H61 C37 0.930 . S
H62 C34 0.930 . S
H63 C43 0.930 . S
H64 C55 0.929 . S
H65 C58 0.930 . S
C66 C67 1.351 . S
C66 N69 1.368 . S
C66 H71 0.931 . S
C67 C66 1.351 . S
C67 N68 1.373 . S
C67 H95 0.930 . S
N68 C67 1.373 . S
N68 C70 1.340 . S
N69 C66 1.368 . S
N69 C70 1.321 . S
N69 Co72 2.135 . S
C70 N68 1.340 . S
C70 N69 1.321 . S
C70 H94 0.930 . S
H71 C66 0.931 . S
Co72 N69 2.135 . S
Co72 N75 2.121 . S
Co72 O80 2.055 . S
Co72 O83 2.039 . S
Co72 N86 2.140 . S
C73 O74 1.227 . S
C73 O83 1.265 . S
O74 C73 1.227 . S
N75 Co72 2.121 . S
N75 C77 1.375 . S
N75 C78 1.313 . S
C76 C77 1.338 . S
C76 N79 1.377 . S
C76 H96 0.930 . S
C77 N75 1.375 . S
C77 C76 1.338 . S
C77 H81 0.931 . S
C78 N75 1.313 . S
C78 N79 1.344 . S
C78 H82 0.930 . S
N79 C76 1.377 . S
N79 C78 1.344 . S
O80 Co72 2.055 . S
O80 C84 1.253 . S
H81 C77 0.931 . S
H82 C78 0.930 . S
O83 Co72 2.039 . S
O83 C73 1.265 . S
C84 O80 1.253 . S
C84 O85 1.227 . S
O85 C84 1.227 . S
N86 Co72 2.140 . S
N86 C89 1.346 . S
N86 C90 1.345 . S
C87 C88 1.387 . S
C87 C91 1.391 . S
C88 C87 1.387 . S
C88 C89 1.369 . S
C88 H97 0.929 . S
C89 N86 1.346 . S
C89 C88 1.369 . S
C89 H92 0.928 . S
C90 N86 1.345 . S
C90 C91 1.371 . S
C90 H93 0.931 . S
C91 C87 1.391 . S
C91 C90 1.371 . S
C91 H98 0.930 . S
H92 C89 0.928 . S
H93 C90 0.931 . S
H94 C70 0.930 . S
H95 C67 0.930 . S
H96 C76 0.930 . S
H97 C88 0.929 . S
H98 C91 0.930 . S
C99 C100 1.351 . S
C99 N102 1.368 . S
C99 H104 0.931 . S
C100 C99 1.351 . S
C100 N101 1.373 . S
C100 H128 0.930 . S
N101 C100 1.373 . S
N101 C103 1.340 . S
N102 C99 1.368 . S
N102 C103 1.321 . S
N102 Co105 2.135 . S
C103 N101 1.340 . S
C103 N102 1.321 . S
C103 H127 0.930 . S
H104 C99 0.931 . S
Co105 N102 2.135 . S
Co105 N108 2.121 . S
Co105 O113 2.055 . S
Co105 O116 2.039 . S
Co105 N119 2.140 . S
C106 O107 1.227 . S
C106 O116 1.265 . S
O107 C106 1.227 . S
N108 Co105 2.121 . S
N108 C110 1.375 . S
N108 C111 1.313 . S
C109 C110 1.338 . S
C109 N112 1.377 . S
C109 H129 0.930 . S
C110 N108 1.375 . S
C110 C109 1.338 . S
C110 H114 0.931 . S
C111 N108 1.313 . S
C111 N112 1.344 . S
C111 H115 0.930 . S
N112 C109 1.377 . S
N112 C111 1.344 . S
O113 Co105 2.055 . S
O113 C117 1.253 . S
H114 C110 0.931 . S
H115 C111 0.930 . S
O116 Co105 2.039 . S
O116 C106 1.265 . S
C117 O113 1.253 . S
C117 O118 1.227 . S
O118 C117 1.227 . S
N119 Co105 2.140 . S
N119 C122 1.346 . S
N119 C123 1.345 . S
C120 C121 1.387 . S
C120 C124 1.391 . S
C121 C120 1.387 . S
C121 C122 1.369 . S
C121 H130 0.929 . S
C122 N119 1.346 . S
C122 C121 1.369 . S
C122 H125 0.928 . S
C123 N119 1.345 . S
C123 C124 1.371 . S
C123 H126 0.931 . S
C124 C120 1.391 . S
C124 C123 1.371 . S
C124 H131 0.930 . S
H125 C122 0.928 . S
H126 C123 0.931 . S
H127 C103 0.930 . S
H128 C100 0.930 . S
H129 C109 0.930 . S
H130 C121 0.929 . S
H131 C124 0.930 . S
C132 C133 1.351 . S
C132 N135 1.368 . S
C132 H137 0.931 . S
C133 C132 1.351 . S
C133 N134 1.373 . S
C133 H161 0.930 . S
N134 C133 1.373 . S
N134 C136 1.340 . S
N135 C132 1.368 . S
N135 C136 1.321 . S
N135 Co138 2.135 . S
C136 N134 1.340 . S
C136 N135 1.321 . S
C136 H160 0.930 . S
H137 C132 0.931 . S
Co138 N135 2.135 . S
Co138 N141 2.121 . S
Co138 O146 2.055 . S
Co138 O149 2.039 . S
Co138 N152 2.140 . S
C139 O140 1.227 . S
C139 O149 1.265 . S
O140 C139 1.227 . S
N141 Co138 2.121 . S
N141 C143 1.375 . S
N141 C144 1.313 . S
C142 C143 1.338 . S
C142 N145 1.377 . S
C142 H162 0.930 . S
C143 N141 1.375 . S
C143 C142 1.338 . S
C143 H147 0.931 . S
C144 N141 1.313 . S
C144 N145 1.344 . S
C144 H148 0.930 . S
N145 C142 1.377 . S
N145 C144 1.344 . S
O146 Co138 2.055 . S
O146 C150 1.253 . S
H147 C143 0.931 . S
H148 C144 0.930 . S
O149 Co138 2.039 . S
O149 C139 1.265 . S
C150 O146 1.253 . S
C150 O151 1.227 . S
O151 C150 1.227 . S
N152 Co138 2.140 . S
N152 C155 1.346 . S
N152 C156 1.345 . S
C153 C154 1.387 . S
C153 C157 1.391 . S
C154 C153 1.387 . S
C154 C155 1.369 . S
C154 H163 0.929 . S
C155 N152 1.346 . S
C155 C154 1.369 . S
C155 H158 0.928 . S
C156 N152 1.345 . S
C156 C157 1.371 . S
C156 H159 0.931 . S
C157 C153 1.391 . S
C157 C156 1.371 . S
C157 H164 0.930 . S
H158 C155 0.928 . S
H159 C156 0.931 . S
H160 C136 0.930 . S
H161 C133 0.930 . S
H162 C142 0.930 . S
H163 C154 0.929 . S
H164 C157 0.930 . S
C165 C166 1.351 . S
C165 N168 1.368 . S
C165 H170 0.931 . S
C166 C165 1.351 . S
C166 N167 1.373 . S
C166 H194 0.930 . S
N167 C166 1.373 . S
N167 C169 1.340 . S
N168 C165 1.368 . S
N168 C169 1.321 . S
N168 Co171 2.135 . S
C169 N167 1.340 . S
C169 N168 1.321 . S
C169 H193 0.930 . S
H170 C165 0.931 . S
Co171 N168 2.135 . S
Co171 N174 2.121 . S
Co171 O179 2.055 . S
Co171 O182 2.039 . S
Co171 N185 2.140 . S
C172 O173 1.227 . S
C172 O182 1.265 . S
O173 C172 1.227 . S
N174 Co171 2.121 . S
N174 C176 1.375 . S
N174 C177 1.313 . S
C175 C176 1.338 . S
C175 N178 1.377 . S
C175 H195 0.930 . S
C176 N174 1.375 . S
C176 C175 1.338 . S
C176 H180 0.931 . S
C177 N174 1.313 . S
C177 N178 1.344 . S
C177 H181 0.930 . S
N178 C175 1.377 . S
N178 C177 1.344 . S
O179 Co171 2.055 . S
O179 C183 1.253 . S
H180 C176 0.931 . S
H181 C177 0.930 . S
O182 Co171 2.039 . S
O182 C172 1.265 . S
C183 O179 1.253 . S
C183 O184 1.227 . S
O184 C183 1.227 . S
N185 Co171 2.140 . S
N185 C188 1.346 . S
N185 C189 1.345 . S
C186 C187 1.387 . S
C186 C190 1.391 . S
C187 C186 1.387 . S
C187 C188 1.369 . S
C187 H196 0.929 . S
C188 N185 1.346 . S
C188 C187 1.369 . S
C188 H191 0.928 . S
C189 N185 1.345 . S
C189 C190 1.371 . S
C189 H192 0.931 . S
C190 C186 1.391 . S
C190 C189 1.371 . S
C190 H197 0.930 . S
H191 C188 0.928 . S
H192 C189 0.931 . S
H193 C169 0.930 . S
H194 C166 0.930 . S
H195 C175 0.930 . S
H196 C187 0.929 . S
H197 C190 0.930 . S
C198 C199 1.351 . S
C198 N201 1.368 . S
C198 H203 0.931 . S
C199 C198 1.351 . S
C199 N200 1.373 . S
C199 H227 0.930 . S
N200 C199 1.373 . S
N200 C202 1.340 . S
N201 C198 1.368 . S
N201 C202 1.321 . S
N201 Co204 2.135 . S
C202 N200 1.340 . S
C202 N201 1.321 . S
C202 H226 0.930 . S
H203 C198 0.931 . S
Co204 N201 2.135 . S
Co204 N207 2.121 . S
Co204 O212 2.055 . S
Co204 O215 2.039 . S
Co204 N218 2.140 . S
C205 O206 1.227 . S
C205 O215 1.265 . S
O206 C205 1.227 . S
N207 Co204 2.121 . S
N207 C209 1.375 . S
N207 C210 1.313 . S
C208 C209 1.338 . S
C208 N211 1.377 . S
C208 H228 0.930 . S
C209 N207 1.375 . S
C209 C208 1.338 . S
C209 H213 0.931 . S
C210 N207 1.313 . S
C210 N211 1.344 . S
C210 H214 0.930 . S
N211 C208 1.377 . S
N211 C210 1.344 . S
O212 Co204 2.055 . S
O212 C216 1.253 . S
H213 C209 0.931 . S
H214 C210 0.930 . S
O215 Co204 2.039 . S
O215 C205 1.265 . S
C216 O212 1.253 . S
C216 O217 1.227 . S
O217 C216 1.227 . S
N218 Co204 2.140 . S
N218 C221 1.346 . S
N218 C222 1.345 . S
C219 C220 1.387 . S
C219 C223 1.391 . S
C220 C219 1.387 . S
C220 C221 1.369 . S
C220 H229 0.929 . S
C221 N218 1.346 . S
C221 C220 1.369 . S
C221 H224 0.928 . S
C222 N218 1.345 . S
C222 C223 1.371 . S
C222 H225 0.931 . S
C223 C219 1.391 . S
C223 C222 1.371 . S
C223 H230 0.930 . S
H224 C221 0.928 . S
H225 C222 0.931 . S
H226 C202 0.930 . S
H227 C199 0.930 . S
H228 C208 0.930 . S
H229 C220 0.929 . S
H230 C223 0.930 . S
C231 C232 1.351 . S
C231 N234 1.368 . S
C231 H236 0.931 . S
C232 C231 1.351 . S
C232 N233 1.373 . S
C232 H260 0.930 . S
N233 C232 1.373 . S
N233 C235 1.340 . S
N234 C231 1.368 . S
N234 C235 1.321 . S
N234 Co237 2.135 . S
C235 N233 1.340 . S
C235 N234 1.321 . S
C235 H259 0.930 . S
H236 C231 0.931 . S
Co237 N234 2.135 . S
Co237 N240 2.121 . S
Co237 O245 2.055 . S
Co237 O248 2.039 . S
Co237 N251 2.140 . S
C238 O239 1.227 . S
C238 O248 1.265 . S
O239 C238 1.227 . S
N240 Co237 2.121 . S
N240 C242 1.375 . S
N240 C243 1.313 . S
C241 C242 1.338 . S
C241 N244 1.377 . S
C241 H261 0.930 . S
C242 N240 1.375 . S
C242 C241 1.338 . S
C242 H246 0.931 . S
C243 N240 1.313 . S
C243 N244 1.344 . S
C243 H247 0.930 . S
N244 C241 1.377 . S
N244 C243 1.344 . S
O245 Co237 2.055 . S
O245 C249 1.253 . S
H246 C242 0.931 . S
H247 C243 0.930 . S
O248 Co237 2.039 . S
O248 C238 1.265 . S
C249 O245 1.253 . S
C249 O250 1.227 . S
O250 C249 1.227 . S
N251 Co237 2.140 . S
N251 C254 1.346 . S
N251 C255 1.345 . S
C252 C253 1.387 . S
C252 C256 1.391 . S
C253 C252 1.387 . S
C253 C254 1.369 . S
C253 H262 0.929 . S
C254 N251 1.346 . S
C254 C253 1.369 . S
C254 H257 0.928 . S
C255 N251 1.345 . S
C255 C256 1.371 . S
C255 H258 0.931 . S
C256 C252 1.391 . S
C256 C255 1.371 . S
C256 H263 0.930 . S
H257 C254 0.928 . S
H258 C255 0.931 . S
H259 C235 0.930 . S
H260 C232 0.930 . S
H261 C241 0.930 . S
H262 C253 0.929 . S
H263 C256 0.930 . S
C264 C265 1.351 . S
C264 N267 1.368 . S
C264 H269 0.931 . S
C265 C264 1.351 . S
C265 N266 1.373 . S
C265 H293 0.930 . S
N266 C265 1.373 . S
N266 C268 1.340 . S
N267 C264 1.368 . S
N267 C268 1.321 . S
N267 Co270 2.135 . S
C268 N266 1.340 . S
C268 N267 1.321 . S
C268 H292 0.930 . S
H269 C264 0.931 . S
Co270 N267 2.135 . S
Co270 N273 2.121 . S
Co270 O278 2.055 . S
Co270 O281 2.039 . S
Co270 N284 2.140 . S
C271 O272 1.227 . S
C271 O281 1.265 . S
O272 C271 1.227 . S
N273 Co270 2.121 . S
N273 C275 1.375 . S
N273 C276 1.313 . S
C274 C275 1.338 . S
C274 N277 1.377 . S
C274 H294 0.930 . S
C275 N273 1.375 . S
C275 C274 1.338 . S
C275 H279 0.931 . S
C276 N273 1.313 . S
C276 N277 1.344 . S
C276 H280 0.930 . S
N277 C274 1.377 . S
N277 C276 1.344 . S
O278 Co270 2.055 . S
O278 C282 1.253 . S
H279 C275 0.931 . S
H280 C276 0.930 . S
O281 Co270 2.039 . S
O281 C271 1.265 . S
C282 O278 1.253 . S
C282 O283 1.227 . S
O283 C282 1.227 . S
N284 Co270 2.140 . S
N284 C287 1.346 . S
N284 C288 1.345 . S
C285 C286 1.387 . S
C285 C289 1.391 . S
C286 C285 1.387 . S
C286 C287 1.369 . S
C286 H295 0.929 . S
C287 N284 1.346 . S
C287 C286 1.369 . S
C287 H290 0.928 . S
C288 N284 1.345 . S
C288 C289 1.371 . S
C288 H291 0.931 . S
C289 C285 1.391 . S
C289 C288 1.371 . S
C289 H296 0.930 . S
H290 C287 0.928 . S
H291 C288 0.931 . S
H292 C268 0.930 . S
H293 C265 0.930 . S
H294 C274 0.930 . S
H295 C286 0.929 . S
H296 C289 0.930 . S
C297 C298 1.351 . S
C297 N300 1.368 . S
C297 H302 0.931 . S
C298 C297 1.351 . S
C298 N299 1.373 . S
C298 H326 0.930 . S
N299 C298 1.373 . S
N299 C301 1.340 . S
N300 C297 1.368 . S
N300 C301 1.321 . S
N300 Co303 2.135 . S
C301 N299 1.340 . S
C301 N300 1.321 . S
C301 H325 0.930 . S
H302 C297 0.931 . S
Co303 N300 2.135 . S
Co303 N306 2.121 . S
Co303 O311 2.055 . S
Co303 O314 2.039 . S
Co303 N317 2.140 . S
C304 O305 1.227 . S
C304 O314 1.265 . S
O305 C304 1.227 . S
N306 Co303 2.121 . S
N306 C308 1.375 . S
N306 C309 1.313 . S
C307 C308 1.338 . S
C307 N310 1.377 . S
C307 H327 0.930 . S
C308 N306 1.375 . S
C308 C307 1.338 . S
C308 H312 0.931 . S
C309 N306 1.313 . S
C309 N310 1.344 . S
C309 H313 0.930 . S
N310 C307 1.377 . S
N310 C309 1.344 . S
O311 Co303 2.055 . S
O311 C315 1.253 . S
H312 C308 0.931 . S
H313 C309 0.930 . S
O314 Co303 2.039 . S
O314 C304 1.265 . S
C315 O311 1.253 . S
C315 O316 1.227 . S
O316 C315 1.227 . S
N317 Co303 2.140 . S
N317 C320 1.346 . S
N317 C321 1.345 . S
C318 C319 1.387 . S
C318 C322 1.391 . S
C319 C318 1.387 . S
C319 C320 1.369 . S
C319 H328 0.929 . S
C320 N317 1.346 . S
C320 C319 1.369 . S
C320 H323 0.928 . S
C321 N317 1.345 . S
C321 C322 1.371 . S
C321 H324 0.931 . S
C322 C318 1.391 . S
C322 C321 1.371 . S
C322 H329 0.930 . S
H323 C320 0.928 . S
H324 C321 0.931 . S
H325 C301 0.930 . S
H326 C298 0.930 . S
H327 C307 0.930 . S
H328 C319 0.929 . S
H329 C322 0.930 . S
C330 C331 1.351 . S
C330 N333 1.368 . S
C330 H335 0.931 . S
C331 C330 1.351 . S
C331 N332 1.373 . S
C331 H359 0.930 . S
N332 C331 1.373 . S
N332 C334 1.340 . S
N333 C330 1.368 . S
N333 C334 1.321 . S
N333 Co336 2.135 . S
C334 N332 1.340 . S
C334 N333 1.321 . S
C334 H358 0.930 . S
H335 C330 0.931 . S
Co336 N333 2.135 . S
Co336 N339 2.121 . S
Co336 O344 2.055 . S
Co336 O347 2.039 . S
Co336 N350 2.140 . S
C337 O338 1.227 . S
C337 O347 1.265 . S
O338 C337 1.227 . S
N339 Co336 2.121 . S
N339 C341 1.375 . S
N339 C342 1.313 . S
C340 C341 1.338 . S
C340 N343 1.377 . S
C340 H360 0.930 . S
C341 N339 1.375 . S
C341 C340 1.338 . S
C341 H345 0.931 . S
C342 N339 1.313 . S
C342 N343 1.344 . S
C342 H346 0.930 . S
N343 C340 1.377 . S
N343 C342 1.344 . S
O344 Co336 2.055 . S
O344 C348 1.253 . S
H345 C341 0.931 . S
H346 C342 0.930 . S
O347 Co336 2.039 . S
O347 C337 1.265 . S
C348 O344 1.253 . S
C348 O349 1.227 . S
O349 C348 1.227 . S
N350 Co336 2.140 . S
N350 C353 1.346 . S
N350 C354 1.345 . S
C351 C352 1.387 . S
C351 C355 1.391 . S
C352 C351 1.387 . S
C352 C353 1.369 . S
C352 H361 0.929 . S
C353 N350 1.346 . S
C353 C352 1.369 . S
C353 H356 0.928 . S
C354 N350 1.345 . S
C354 C355 1.371 . S
C354 H357 0.931 . S
C355 C351 1.391 . S
C355 C354 1.371 . S
C355 H362 0.930 . S
H356 C353 0.928 . S
H357 C354 0.931 . S
H358 C334 0.930 . S
H359 C331 0.930 . S
H360 C340 0.930 . S
H361 C352 0.929 . S
H362 C355 0.930 . S
C363 C364 1.351 . S
C363 N366 1.368 . S
C363 H368 0.931 . S
C364 C363 1.351 . S
C364 N365 1.373 . S
C364 H392 0.930 . S
N365 C364 1.373 . S
N365 C367 1.340 . S
N366 C363 1.368 . S
N366 C367 1.321 . S
N366 Co369 2.135 . S
C367 N365 1.340 . S
C367 N366 1.321 . S
C367 H391 0.930 . S
H368 C363 0.931 . S
Co369 N366 2.135 . S
Co369 N372 2.121 . S
Co369 O377 2.055 . S
Co369 O380 2.039 . S
Co369 N383 2.140 . S
C370 O371 1.227 . S
C370 O380 1.265 . S
O371 C370 1.227 . S
N372 Co369 2.121 . S
N372 C374 1.375 . S
N372 C375 1.313 . S
C373 C374 1.338 . S
C373 N376 1.377 . S
C373 H393 0.930 . S
C374 N372 1.375 . S
C374 C373 1.338 . S
C374 H378 0.931 . S
C375 N372 1.313 . S
C375 N376 1.344 . S
C375 H379 0.930 . S
N376 C373 1.377 . S
N376 C375 1.344 . S
O377 Co369 2.055 . S
O377 C381 1.253 . S
H378 C374 0.931 . S
H379 C375 0.930 . S
O380 Co369 2.039 . S
O380 C370 1.265 . S
C381 O377 1.253 . S
C381 O382 1.227 . S
O382 C381 1.227 . S
N383 Co369 2.140 . S
N383 C386 1.346 . S
N383 C387 1.345 . S
C384 C385 1.387 . S
C384 C388 1.391 . S
C385 C384 1.387 . S
C385 C386 1.369 . S
C385 H394 0.929 . S
C386 N383 1.346 . S
C386 C385 1.369 . S
C386 H389 0.928 . S
C387 N383 1.345 . S
C387 C388 1.371 . S
C387 H390 0.931 . S
C388 C384 1.391 . S
C388 C387 1.371 . S
C388 H395 0.930 . S
H389 C386 0.928 . S
H390 C387 0.931 . S
H391 C367 0.930 . S
H392 C364 0.930 . S
H393 C373 0.930 . S
H394 C385 0.929 . S
H395 C388 0.930 . S
C396 C397 1.351 . S
C396 N399 1.368 . S
C396 H401 0.931 . S
C397 C396 1.351 . S
C397 N398 1.373 . S
C397 H425 0.930 . S
N398 C397 1.373 . S
N398 C400 1.340 . S
N399 C396 1.368 . S
N399 C400 1.321 . S
N399 Co402 2.135 . S
C400 N398 1.340 . S
C400 N399 1.321 . S
C400 H424 0.930 . S
H401 C396 0.931 . S
Co402 N399 2.135 . S
Co402 N405 2.121 . S
Co402 O410 2.055 . S
Co402 O413 2.039 . S
Co402 N416 2.140 . S
C403 O404 1.227 . S
C403 O413 1.265 . S
O404 C403 1.227 . S
N405 Co402 2.121 . S
N405 C407 1.375 . S
N405 C408 1.313 . S
C406 C407 1.338 . S
C406 N409 1.377 . S
C406 H426 0.930 . S
C407 N405 1.375 . S
C407 C406 1.338 . S
C407 H411 0.931 . S
C408 N405 1.313 . S
C408 N409 1.344 . S
C408 H412 0.930 . S
N409 C406 1.377 . S
N409 C408 1.344 . S
O410 Co402 2.055 . S
O410 C414 1.253 . S
H411 C407 0.931 . S
H412 C408 0.930 . S
O413 Co402 2.039 . S
O413 C403 1.265 . S
C414 O410 1.253 . S
C414 O415 1.227 . S
O415 C414 1.227 . S
N416 Co402 2.140 . S
N416 C419 1.346 . S
N416 C420 1.345 . S
C417 C418 1.387 . S
C417 C421 1.391 . S
C418 C417 1.387 . S
C418 C419 1.369 . S
C418 H427 0.929 . S
C419 N416 1.346 . S
C419 C418 1.369 . S
C419 H422 0.928 . S
C420 N416 1.345 . S
C420 C421 1.371 . S
C420 H423 0.931 . S
C421 C417 1.391 . S
C421 C420 1.371 . S
C421 H428 0.930 . S
H422 C419 0.928 . S
H423 C420 0.931 . S
H424 C400 0.930 . S
H425 C397 0.930 . S
H426 C406 0.930 . S
H427 C418 0.929 . S
H428 C421 0.930 . S
C429 C430 1.351 . S
C429 N432 1.368 . S
C429 H434 0.931 . S
C430 C429 1.351 . S
C430 N431 1.373 . S
C430 H458 0.930 . S
N431 C430 1.373 . S
N431 C433 1.340 . S
N432 C429 1.368 . S
N432 C433 1.321 . S
N432 Co435 2.135 . S
C433 N431 1.340 . S
C433 N432 1.321 . S
C433 H457 0.930 . S
H434 C429 0.931 . S
Co435 N432 2.135 . S
Co435 N438 2.121 . S
Co435 O443 2.055 . S
Co435 O446 2.039 . S
Co435 N449 2.140 . S
C436 O437 1.227 . S
C436 O446 1.265 . S
O437 C436 1.227 . S
N438 Co435 2.121 . S
N438 C440 1.375 . S
N438 C441 1.313 . S
C439 C440 1.338 . S
C439 N442 1.377 . S
C439 H459 0.930 . S
C440 N438 1.375 . S
C440 C439 1.338 . S
C440 H444 0.931 . S
C441 N438 1.313 . S
C441 N442 1.344 . S
C441 H445 0.930 . S
N442 C439 1.377 . S
N442 C441 1.344 . S
O443 Co435 2.055 . S
O443 C447 1.253 . S
H444 C440 0.931 . S
H445 C441 0.930 . S
O446 Co435 2.039 . S
O446 C436 1.265 . S
C447 O443 1.253 . S
C447 O448 1.227 . S
O448 C447 1.227 . S
N449 Co435 2.140 . S
N449 C452 1.346 . S
N449 C453 1.345 . S
C450 C451 1.387 . S
C450 C454 1.391 . S
C451 C450 1.387 . S
C451 C452 1.369 . S
C451 H460 0.929 . S
C452 N449 1.346 . S
C452 C451 1.369 . S
C452 H455 0.928 . S
C453 N449 1.345 . S
C453 C454 1.371 . S
C453 H456 0.931 . S
C454 C450 1.391 . S
C454 C453 1.371 . S
C454 H461 0.930 . S
H455 C452 0.928 . S
H456 C453 0.931 . S
H457 C433 0.930 . S
H458 C430 0.930 . S
H459 C439 0.930 . S
H460 C451 0.929 . S
H461 C454 0.930 . S
C462 C463 1.351 . S
C462 N465 1.368 . S
C462 H467 0.931 . S
C463 C462 1.351 . S
C463 N464 1.373 . S
C463 H491 0.930 . S
N464 C463 1.373 . S
N464 C466 1.340 . S
N465 C462 1.368 . S
N465 C466 1.321 . S
N465 Co468 2.135 . S
C466 N464 1.340 . S
C466 N465 1.321 . S
C466 H490 0.930 . S
H467 C462 0.931 . S
Co468 N465 2.135 . S
Co468 N471 2.121 . S
Co468 O476 2.055 . S
Co468 O479 2.039 . S
Co468 N482 2.140 . S
C469 O470 1.227 . S
C469 O479 1.265 . S
O470 C469 1.227 . S
N471 Co468 2.121 . S
N471 C473 1.375 . S
N471 C474 1.313 . S
C472 C473 1.338 . S
C472 N475 1.377 . S
C472 H492 0.930 . S
C473 N471 1.375 . S
C473 C472 1.338 . S
C473 H477 0.931 . S
C474 N471 1.313 . S
C474 N475 1.344 . S
C474 H478 0.930 . S
N475 C472 1.377 . S
N475 C474 1.344 . S
O476 Co468 2.055 . S
O476 C480 1.253 . S
H477 C473 0.931 . S
H478 C474 0.930 . S
O479 Co468 2.039 . S
O479 C469 1.265 . S
C480 O476 1.253 . S
C480 O481 1.227 . S
O481 C480 1.227 . S
N482 Co468 2.140 . S
N482 C485 1.346 . S
N482 C486 1.345 . S
C483 C484 1.387 . S
C483 C487 1.391 . S
C484 C483 1.387 . S
C484 C485 1.369 . S
C484 H493 0.929 . S
C485 N482 1.346 . S
C485 C484 1.369 . S
C485 H488 0.928 . S
C486 N482 1.345 . S
C486 C487 1.371 . S
C486 H489 0.931 . S
C487 C483 1.391 . S
C487 C486 1.371 . S
C487 H494 0.930 . S
H488 C485 0.928 . S
H489 C486 0.931 . S
H490 C466 0.930 . S
H491 C463 0.930 . S
H492 C472 0.930 . S
H493 C484 0.929 . S
H494 C487 0.930 . S
C495 C496 1.351 . S
C495 N498 1.368 . S
C495 H500 0.931 . S
C496 C495 1.351 . S
C496 N497 1.373 . S
C496 H524 0.930 . S
N497 C496 1.373 . S
N497 C499 1.340 . S
N498 C495 1.368 . S
N498 C499 1.321 . S
N498 Co501 2.135 . S
C499 N497 1.340 . S
C499 N498 1.321 . S
C499 H523 0.930 . S
H500 C495 0.931 . S
Co501 N498 2.135 . S
Co501 N504 2.121 . S
Co501 O509 2.055 . S
Co501 O512 2.039 . S
Co501 N515 2.140 . S
C502 O503 1.227 . S
C502 O512 1.265 . S
O503 C502 1.227 . S
N504 Co501 2.121 . S
N504 C506 1.375 . S
N504 C507 1.313 . S
C505 C506 1.338 . S
C505 N508 1.377 . S
C505 H525 0.930 . S
C506 N504 1.375 . S
C506 C505 1.338 . S
C506 H510 0.931 . S
C507 N504 1.313 . S
C507 N508 1.344 . S
C507 H511 0.930 . S
N508 C505 1.377 . S
N508 C507 1.344 . S
O509 Co501 2.055 . S
O509 C513 1.253 . S
H510 C506 0.931 . S
H511 C507 0.930 . S
O512 Co501 2.039 . S
O512 C502 1.265 . S
C513 O509 1.253 . S
C513 O514 1.227 . S
O514 C513 1.227 . S
N515 Co501 2.140 . S
N515 C518 1.346 . S
N515 C519 1.345 . S
C516 C517 1.387 . S
C516 C520 1.391 . S
C517 C516 1.387 . S
C517 C518 1.369 . S
C517 H526 0.929 . S
C518 N515 1.346 . S
C518 C517 1.369 . S
C518 H521 0.928 . S
C519 N515 1.345 . S
C519 C520 1.371 . S
C519 H522 0.931 . S
C520 C516 1.391 . S
C520 C519 1.371 . S
C520 H527 0.930 . S
H521 C518 0.928 . S
H522 C519 0.931 . S
H523 C499 0.930 . S
H524 C496 0.930 . S
H525 C505 0.930 . S
H526 C517 0.929 . S
H527 C520 0.930 . S
H528 C534 0.930 . S
H529 C537 0.930 . S
H530 C538 0.930 . S
H531 C539 0.930 . S
H532 C542 0.930 . S
H533 C543 0.930 . S
C534 H528 0.930 . S
C534 C535 1.355 . S
C534 C536 1.415 . S
C535 C534 1.355 . S
C535 C537 1.419 . S
C536 C534 1.415 . S
C536 C541 1.425 . S
C536 C543 1.409 . S
C537 H529 0.930 . S
C537 C535 1.419 . S
C537 C538 1.362 . S
C538 H530 0.930 . S
C538 C537 1.362 . S
C538 C541 1.409 . S
C539 H531 0.930 . S
C539 C540 1.355 . S
C539 C541 1.415 . S
C540 C539 1.355 . S
C540 C542 1.419 . S
C541 C536 1.425 . S
C541 C538 1.409 . S
C541 C539 1.415 . S
C542 H532 0.930 . S
C542 C540 1.419 . S
C542 C543 1.362 . S
C543 H533 0.930 . S
C543 C536 1.409 . S
C543 C542 1.362 . S
H544 C550 0.930 . S
H545 C553 0.930 . S
H546 C554 0.930 . S
H547 C555 0.930 . S
H548 C558 0.930 . S
H549 C559 0.930 . S
C550 H544 0.930 . S
C550 C551 1.355 . S
C550 C552 1.418 . S
C551 C550 1.355 . S
C551 C553 1.419 1_655 S
C552 C550 1.418 . S
C552 C557 1.421 1_655 S
C552 C559 1.410 1_545 S
C553 H545 0.930 . S
C553 C551 1.419 1_455 S
C553 C554 1.362 . S
C554 H546 0.930 . S
C554 C553 1.362 . S
C554 C557 1.409 . S
C555 H547 0.930 . S
C555 C556 1.355 1_545 S
C555 C557 1.415 . S
C556 C555 1.355 1_565 S
C556 C558 1.419 . S
C557 C552 1.421 1_455 S
C557 C554 1.409 . S
C557 C555 1.415 . S
C558 H548 0.930 . S
C558 C556 1.419 . S
C558 C559 1.362 1_455 S
C559 H549 0.930 . S
C559 C552 1.410 1_565 S
C559 C558 1.362 1_655 S
H560 C566 0.930 . S
H561 C569 0.930 . S
H562 C570 0.930 . S
H563 C571 0.930 . S
H564 C574 0.930 . S
H565 C575 0.930 . S
C566 H560 0.930 . S
C566 C567 1.355 . S
C566 C568 1.415 . S
C567 C566 1.355 . S
C567 C569 1.419 . S
C568 C566 1.415 . S
C568 C573 1.425 . S
C568 C575 1.409 . S
C569 H561 0.930 . S
C569 C567 1.419 . S
C569 C570 1.362 . S
C570 H562 0.930 . S
C570 C569 1.362 . S
C570 C573 1.409 . S
C571 H563 0.930 . S
C571 C572 1.355 . S
C571 C573 1.415 . S
C572 C571 1.355 . S
C572 C574 1.419 . S
C573 C568 1.425 . S
C573 C570 1.409 . S
C573 C571 1.415 . S
C574 H564 0.930 . S
C574 C572 1.419 . S
C574 C575 1.362 . S
C575 H565 0.930 . S
C575 C568 1.409 . S
C575 C574 1.362 . S
H576 C582 0.930 . S
H577 C585 0.929 1_554 S
H578 C586 0.930 . S
H579 C587 0.930 . S
H580 C590 0.930 . S
H581 C591 0.930 1_545 S
C582 H576 0.930 . S
C582 C583 1.355 . S
C582 C584 1.415 1_545 S
C583 C582 1.355 . S
C583 C585 1.428 1_545 S
C584 C582 1.415 1_565 S
C584 C589 1.425 1_556 S
C584 C591 1.409 . S
C585 H577 0.929 1_556 S
C585 C583 1.428 1_565 S
C585 C586 1.354 1_556 S
C586 H578 0.930 . S
C586 C585 1.354 1_554 S
C586 C589 1.409 . S
C587 H579 0.930 . S
C587 C588 1.355 . S
C587 C589 1.415 . S
C588 C587 1.355 . S
C588 C590 1.419 . S
C589 C584 1.425 1_554 S
C589 C586 1.409 . S
C589 C587 1.415 . S
C590 H580 0.930 . S
C590 C588 1.419 . S
C590 C591 1.362 1_554 S
C591 H581 0.930 1_565 S
C591 C584 1.409 . S
C591 C590 1.362 1_556 S
H592 C598 0.930 . S
H593 C601 0.930 . S
H594 C602 0.930 . S
H595 C603 0.930 . S
H596 C606 0.930 . S
H597 C607 0.930 . S
C598 H592 0.930 . S
C598 C599 1.355 . S
C598 C600 1.415 . S
C599 C598 1.355 . S
C599 C601 1.419 . S
C600 C598 1.415 . S
C600 C605 1.425 . S
C600 C607 1.409 . S
C601 H593 0.930 . S
C601 C599 1.419 . S
C601 C602 1.362 . S
C602 H594 0.930 . S
C602 C601 1.362 . S
C602 C605 1.409 . S
C603 H595 0.930 . S
C603 C604 1.355 . S
C603 C605 1.415 . S
C604 C603 1.355 . S
C604 C606 1.419 . S
C605 C600 1.425 . S
C605 C602 1.409 . S
C605 C603 1.415 . S
C606 H596 0.930 . S
C606 C604 1.419 . S
C606 C607 1.362 . S
C607 H597 0.930 . S
C607 C600 1.409 . S
C607 C606 1.362 . S
H608 C614 0.930 . S
H609 C617 0.930 . S
H610 C618 0.930 . S
H611 C619 0.930 . S
H612 C622 0.930 . S
H613 C623 0.930 . S
C614 H608 0.930 . S
C614 C615 1.355 . S
C614 C616 1.415 . S
C615 C614 1.355 . S
C615 C617 1.419 . S
C616 C614 1.415 . S
C616 C621 1.425 . S
C616 C623 1.409 1_565 S
C617 H609 0.930 . S
C617 C615 1.419 . S
C617 C618 1.362 . S
C618 H610 0.930 . S
C618 C617 1.362 . S
C618 C621 1.409 . S
C619 H611 0.930 . S
C619 C620 1.355 . S
C619 C621 1.415 1_545 S
C620 C619 1.355 . S
C620 C622 1.419 . S
C621 C616 1.425 . S
C621 C618 1.409 . S
C621 C619 1.415 1_565 S
C622 H612 0.930 . S
C622 C620 1.419 . S
C622 C623 1.362 . S
C623 H613 0.930 . S
C623 C616 1.409 1_545 S
C623 C622 1.362 . S
H624 C630 0.930 . S
H625 C633 0.930 . S
H626 C634 0.930 . S
H627 C635 0.930 . S
H628 C638 0.930 . S
H629 C639 0.930 . S
C630 H624 0.930 . S
C630 C631 1.355 . S
C630 C632 1.415 . S
C631 C630 1.355 . S
C631 C633 1.419 . S
C632 C630 1.415 . S
C632 C637 1.425 . S
C632 C639 1.409 . S
C633 H625 0.930 . S
C633 C631 1.419 . S
C633 C634 1.362 . S
C634 H626 0.930 . S
C634 C633 1.362 . S
C634 C637 1.409 . S
C635 H627 0.930 . S
C635 C636 1.355 . S
C635 C637 1.415 . S
C636 C635 1.355 . S
C636 C638 1.419 . S
C637 C632 1.425 . S
C637 C634 1.409 . S
C637 C635 1.415 . S
C638 H628 0.930 . S
C638 C636 1.419 . S
C638 C639 1.362 . S
C639 H629 0.930 . S
C639 C632 1.409 . S
C639 C638 1.362 . S
H640 C646 0.932 1_655 S
H641 C649 0.930 . S
H642 C650 0.930 1_565 S
H643 C651 0.930 . S
H644 C654 0.930 . S
H645 C655 0.930 . S
C646 H640 0.932 1_455 S
C646 C647 1.355 . S
C646 C648 1.415 1_454 S
C647 C646 1.355 . S
C647 C649 1.419 . S
C648 C646 1.415 1_656 S
C648 C653 1.425 . S
C648 C655 1.409 . S
C649 H641 0.930 . S
C649 C647 1.419 . S
C649 C650 1.362 . S
C650 H642 0.930 1_545 S
C650 C649 1.362 . S
C650 C653 1.409 1_454 S
C651 H643 0.930 . S
C651 C652 1.355 . S
C651 C653 1.415 1_565 S
C652 C651 1.355 . S
C652 C654 1.419 1_565 S
C653 C648 1.425 . S
C653 C650 1.409 1_656 S
C653 C651 1.415 1_545 S
C654 H644 0.930 . S
C654 C652 1.419 1_545 S
C654 C655 1.362 . S
C655 H645 0.930 . S
C655 C648 1.409 . S
C655 C654 1.362 . S
H656 C662 0.930 . S
H657 C665 0.930 . S
H658 C666 0.930 . S
H659 C667 0.930 . S
H660 C670 0.930 . S
H661 C671 0.930 . S
C662 H656 0.930 . S
C662 C663 1.355 . S
C662 C664 1.415 . S
C663 C662 1.355 . S
C663 C665 1.419 . S
C664 C662 1.415 . S
C664 C669 1.425 . S
C664 C671 1.409 . S
C665 H657 0.930 . S
C665 C663 1.419 . S
C665 C666 1.362 . S
C666 H658 0.930 . S
C666 C665 1.362 . S
C666 C669 1.409 . S
C667 H659 0.930 . S
C667 C668 1.355 . S
C667 C669 1.415 . S
C668 C667 1.355 . S
C668 C670 1.419 . S
C669 C664 1.425 . S
C669 C666 1.409 . S
C669 C667 1.415 . S
C670 H660 0.930 . S
C670 C668 1.419 . S
C670 C671 1.362 . S
C671 H661 0.930 . S
C671 C664 1.409 . S
C671 C670 1.362 . S
H672 C678 0.930 . S
H673 C681 0.930 . S
H674 C682 0.930 . S
H675 C683 0.930 . S
H676 C686 0.930 . S
H677 C687 0.930 . S
C678 H672 0.930 . S
C678 C679 1.355 . S
C678 C680 1.415 . S
C679 C678 1.355 . S
C679 C681 1.419 1_556 S
C680 C678 1.415 . S
C680 C685 1.425 1_556 S
C680 C687 1.409 1_455 S
C681 H673 0.930 . S
C681 C679 1.419 1_554 S
C681 C682 1.362 . S
C682 H674 0.930 . S
C682 C681 1.362 . S
C682 C685 1.409 . S
C683 H675 0.930 . S
C683 C684 1.355 1_455 S
C683 C685 1.415 . S
C684 C683 1.355 1_655 S
C684 C686 1.419 . S
C685 C680 1.425 1_554 S
C685 C682 1.409 . S
C685 C683 1.415 . S
C686 H676 0.930 . S
C686 C684 1.419 . S
C686 C687 1.362 1_554 S
C687 H677 0.930 . S
C687 C680 1.409 1_655 S
C687 C686 1.362 1_556 S
H688 C694 0.930 . S
H689 C697 0.930 . S
H690 C698 0.930 . S
H691 C699 0.930 . S
H692 C702 0.930 . S
H693 C703 0.930 . S
C694 H688 0.930 . S
C694 C695 1.355 . S
C694 C696 1.415 . S
C695 C694 1.355 . S
C695 C697 1.419 . S
C696 C694 1.415 . S
C696 C701 1.425 . S
C696 C703 1.409 . S
C697 H689 0.930 . S
C697 C695 1.419 . S
C697 C698 1.362 . S
C698 H690 0.930 . S
C698 C697 1.362 . S
C698 C701 1.409 . S
C699 H691 0.930 . S
C699 C700 1.355 . S
C699 C701 1.415 . S
C700 C699 1.355 . S
C700 C702 1.419 . S
C701 C696 1.425 . S
C701 C698 1.409 . S
C701 C699 1.415 . S
C702 H692 0.930 . S
C702 C700 1.419 . S
C702 C703 1.362 . S
C703 H693 0.930 . S
C703 C696 1.409 . S
C703 C702 1.362 . S
H704 C710 0.930 . S
H705 C713 0.930 . S
H706 C714 0.930 . S
H707 C715 0.928 1_655 S
H708 C718 0.930 . S
H709 C719 0.930 . S
C710 H704 0.930 . S
C710 C711 1.355 . S
C710 C712 1.415 . S
C711 C710 1.355 . S
C711 C713 1.419 . S
C712 C710 1.415 . S
C712 C717 1.425 . S
C712 C719 1.409 1_655 S
C713 H705 0.930 . S
C713 C711 1.419 . S
C713 C714 1.362 . S
C714 H706 0.930 . S
C714 C713 1.362 . S
C714 C717 1.409 . S
C715 H707 0.928 1_455 S
C715 C716 1.359 . S
C715 C717 1.412 1_455 S
C716 C715 1.359 . S
C716 C718 1.419 . S
C717 C712 1.425 . S
C717 C714 1.409 . S
C717 C715 1.412 1_655 S
C718 H708 0.930 . S
C718 C716 1.419 . S
C718 C719 1.362 . S
C719 H709 0.930 . S
C719 C712 1.409 1_455 S
C719 C718 1.362 . S
H720 C726 0.930 . S
H721 C729 0.930 . S
H722 C730 0.930 . S
H723 C731 0.930 . S
H724 C734 0.930 . S
H725 C735 0.930 . S
C726 H720 0.930 . S
C726 C727 1.355 . S
C726 C728 1.415 . S
C727 C726 1.355 . S
C727 C729 1.419 . S
C728 C726 1.415 . S
C728 C733 1.425 . S
C728 C735 1.409 1_556 S
C729 H721 0.930 . S
C729 C727 1.419 . S
C729 C730 1.362 . S
C730 H722 0.930 . S
C730 C729 1.362 . S
C730 C733 1.409 . S
C731 H723 0.930 . S
C731 C732 1.355 1_556 S
C731 C733 1.415 . S
C732 C731 1.355 1_554 S
C732 C734 1.419 . S
C733 C728 1.425 . S
C733 C730 1.409 . S
C733 C731 1.415 . S
C734 H724 0.930 . S
C734 C732 1.419 . S
C734 C735 1.362 . S
C735 H725 0.930 . S
C735 C728 1.409 1_554 S
C735 C734 1.362 . S
H736 C742 0.930 . S
H737 C745 0.930 . S
H738 C746 0.930 . S
H739 C747 0.930 . S
H740 C750 0.930 . S
H741 C751 0.930 . S
C742 H736 0.930 . S
C742 C743 1.355 . S
C742 C744 1.415 . S
C743 C742 1.355 . S
C743 C745 1.419 . S
C744 C742 1.415 . S
C744 C749 1.425 . S
C744 C751 1.409 . S
C745 H737 0.930 . S
C745 C743 1.419 . S
C745 C746 1.362 . S
C746 H738 0.930 . S
C746 C745 1.362 . S
C746 C749 1.409 . S
C747 H739 0.930 . S
C747 C748 1.355 . S
C747 C749 1.415 . S
C748 C747 1.355 . S
C748 C750 1.419 . S
C749 C744 1.425 . S
C749 C746 1.409 . S
C749 C747 1.415 . S
C750 H740 0.930 . S
C750 C748 1.419 . S
C750 C751 1.362 . S
C751 H741 0.930 . S
C751 C744 1.409 . S
C751 C750 1.362 . S
H752 C758 0.930 . S
H753 C761 0.930 . S
H754 C762 0.930 . S
H755 C763 0.930 . S
H756 C766 0.930 . S
H757 C767 0.930 . S
C758 H752 0.930 . S
C758 C759 1.355 . S
C758 C760 1.415 . S
C759 C758 1.355 . S
C759 C761 1.419 . S
C760 C758 1.415 . S
C760 C765 1.425 . S
C760 C767 1.409 . S
C761 H753 0.930 . S
C761 C759 1.419 . S
C761 C762 1.362 . S
C762 H754 0.930 . S
C762 C761 1.362 . S
C762 C765 1.409 . S
C763 H755 0.930 . S
C763 C764 1.355 . S
C763 C765 1.415 . S
C764 C763 1.355 . S
C764 C766 1.419 . S
C765 C760 1.425 . S
C765 C762 1.409 . S
C765 C763 1.415 . S
C766 H756 0.930 . S
C766 C764 1.419 . S
C766 C767 1.362 . S
C767 H757 0.930 . S
C767 C760 1.409 . S
C767 C766 1.362 . S
H768 C774 0.930 . S
H769 C777 0.930 . S
H770 C778 0.930 . S
H771 C779 0.930 . S
H772 C782 0.930 . S
H773 C783 0.930 . S
C774 H768 0.930 . S
C774 C775 1.355 . S
C774 C776 1.415 . S
C775 C774 1.355 . S
C775 C777 1.419 . S
C776 C774 1.415 . S
C776 C781 1.425 . S
C776 C783 1.409 . S
C777 H769 0.930 . S
C777 C775 1.419 . S
C777 C778 1.362 . S
C778 H770 0.930 . S
C778 C777 1.362 . S
C778 C781 1.409 . S
C779 H771 0.930 . S
C779 C780 1.355 . S
C779 C781 1.415 . S
C780 C779 1.355 . S
C780 C782 1.419 . S
C781 C776 1.425 . S
C781 C778 1.409 . S
C781 C779 1.415 . S
C782 H772 0.930 . S
C782 C780 1.419 . S
C782 C783 1.362 . S
C783 H773 0.930 . S
C783 C776 1.409 . S
C783 C782 1.362 . S
H784 C790 0.930 . S
H785 C793 0.930 . S
H786 C794 0.930 . S
H787 C795 0.930 . S
H788 C798 0.930 . S
H789 C799 0.930 . S
C790 H784 0.930 . S
C790 C791 1.355 . S
C790 C792 1.415 . S
C791 C790 1.355 . S
C791 C793 1.419 . S
C792 C790 1.415 . S
C792 C797 1.425 1_545 S
C792 C799 1.409 . S
C793 H785 0.930 . S
C793 C791 1.419 . S
C793 C794 1.362 1_545 S
C794 H786 0.930 . S
C794 C793 1.362 1_565 S
C794 C797 1.409 . S
C795 H787 0.930 . S
C795 C796 1.355 . S
C795 C797 1.415 . S
C796 C795 1.355 . S
C796 C798 1.419 . S
C797 C792 1.425 1_565 S
C797 C794 1.409 . S
C797 C795 1.415 . S
C798 H788 0.930 . S
C798 C796 1.419 . S
C798 C799 1.362 1_565 S
C799 H789 0.930 . S
C799 C792 1.409 . S
C799 C798 1.362 1_545 S
H800 C806 0.930 . S
H801 C809 0.930 . S
H802 C810 0.930 . S
H803 C811 0.930 . S
H804 C814 0.930 . S
H805 C815 0.930 . S
C806 H800 0.930 . S
C806 C807 1.355 . S
C806 C808 1.415 . S
C807 C806 1.355 . S
C807 C809 1.419 . S
C808 C806 1.415 . S
C808 C813 1.425 . S
C808 C815 1.409 . S
C809 H801 0.930 . S
C809 C807 1.419 . S
C809 C810 1.362 . S
C810 H802 0.930 . S
C810 C809 1.362 . S
C810 C813 1.409 . S
C811 H803 0.930 . S
C811 C812 1.355 . S
C811 C813 1.415 . S
C812 C811 1.355 . S
C812 C814 1.419 . S
C813 C808 1.425 . S
C813 C810 1.409 . S
C813 C811 1.415 . S
C814 H804 0.930 . S
C814 C812 1.419 . S
C814 C815 1.362 . S
C815 H805 0.930 . S
C815 C808 1.409 . S
C815 C814 1.362 . S
H816 C822 0.930 . S
H817 C825 0.930 . S
H818 C826 0.930 1_545 S
H819 C827 0.930 . S
H820 C830 0.930 . S
H821 C831 0.930 . S
C822 H816 0.930 . S
C822 C823 1.355 . S
C822 C824 1.415 . S
C823 C822 1.355 . S
C823 C825 1.419 . S
C824 C822 1.415 . S
C824 C829 1.425 . S
C824 C831 1.409 . S
C825 H817 0.930 . S
C825 C823 1.419 . S
C825 C826 1.362 . S
C826 H818 0.930 1_565 S
C826 C825 1.362 . S
C826 C829 1.409 . S
C827 H819 0.930 . S
C827 C828 1.355 . S
C827 C829 1.415 1_545 S
C828 C827 1.355 . S
C828 C830 1.419 1_545 S
C829 C824 1.425 . S
C829 C826 1.409 . S
C829 C827 1.415 1_565 S
C830 H820 0.930 . S
C830 C828 1.419 1_565 S
C830 C831 1.362 . S
C831 H821 0.930 . S
C831 C824 1.409 . S
C831 C830 1.362 . S
H832 C838 0.930 . S
H833 C841 0.930 . S
H834 C842 0.930 . S
H835 C843 0.930 . S
H836 C846 0.930 . S
H837 C847 0.930 . S
C838 H832 0.930 . S
C838 C839 1.355 . S
C838 C840 1.415 . S
C839 C838 1.355 . S
C839 C841 1.419 . S
C840 C838 1.415 . S
C840 C845 1.425 1_556 S
C840 C847 1.409 . S
C841 H833 0.930 . S
C841 C839 1.419 . S
C841 C842 1.362 1_556 S
C842 H834 0.930 . S
C842 C841 1.362 1_554 S
C842 C845 1.409 . S
C843 H835 0.930 . S
C843 C844 1.355 . S
C843 C845 1.415 . S
C844 C843 1.355 . S
C844 C846 1.419 . S
C845 C840 1.425 1_554 S
C845 C842 1.409 . S
C845 C843 1.415 . S
C846 H836 0.930 . S
C846 C844 1.419 . S
C846 C847 1.362 1_554 S
C847 H837 0.930 . S
C847 C840 1.409 . S
C847 C846 1.362 1_556 S
H848 C854 0.930 . S
H849 C857 0.930 . S
H850 C858 0.930 . S
H851 C859 0.929 1_455 S
H852 C862 0.930 . S
H853 C863 0.930 . S
C854 H848 0.930 . S
C854 C855 1.355 . S
C854 C856 1.415 . S
C855 C854 1.355 . S
C855 C857 1.419 . S
C856 C854 1.415 . S
C856 C861 1.425 . S
C856 C863 1.409 1_455 S
C857 H849 0.930 . S
C857 C855 1.419 . S
C857 C858 1.362 . S
C858 H850 0.930 . S
C858 C857 1.362 . S
C858 C861 1.409 . S
C859 H851 0.929 1_655 S
C859 C860 1.356 . S
C859 C861 1.414 1_655 S
C860 C859 1.356 . S
C860 C862 1.419 . S
C861 C856 1.425 . S
C861 C858 1.409 . S
C861 C859 1.414 1_455 S
C862 H852 0.930 . S
C862 C860 1.419 . S
C862 C863 1.362 . S
C863 H853 0.930 . S
C863 C856 1.409 1_655 S
C863 C862 1.362 . S
H864 C870 0.930 . S
H865 C873 0.930 . S
H866 C874 0.930 . S
H867 C875 0.930 . S
H868 C878 0.930 . S
H869 C879 0.930 . S
C870 H864 0.930 . S
C870 C871 1.355 . S
C870 C872 1.415 . S
C871 C870 1.355 . S
C871 C873 1.419 . S
C872 C870 1.415 . S
C872 C877 1.425 . S
C872 C879 1.409 . S
C873 H865 0.930 . S
C873 C871 1.419 . S
C873 C874 1.362 . S
C874 H866 0.930 . S
C874 C873 1.362 . S
C874 C877 1.409 . S
C875 H867 0.930 . S
C875 C876 1.355 . S
C875 C877 1.415 . S
C876 C875 1.355 . S
C876 C878 1.419 . S
C877 C872 1.425 . S
C877 C874 1.409 . S
C877 C875 1.415 . S
C878 H868 0.930 . S
C878 C876 1.419 . S
C878 C879 1.362 . S
C879 H869 0.930 . S
C879 C872 1.409 . S
C879 C878 1.362 . S
H880 C886 0.930 . S
H881 C889 0.930 . S
H882 C890 0.930 . S
H883 C891 0.930 . S
H884 C894 0.930 . S
H885 C895 0.930 . S
C886 H880 0.930 . S
C886 C887 1.355 . S
C886 C888 1.415 1_655 S
C887 C886 1.355 . S
C887 C889 1.419 . S
C888 C886 1.415 1_455 S
C888 C893 1.425 1_455 S
C888 C895 1.409 . S
C889 H881 0.930 . S
C889 C887 1.419 . S
C889 C890 1.362 . S
C890 H882 0.930 . S
C890 C889 1.362 . S
C890 C893 1.409 . S
C891 H883 0.930 . S
C891 C892 1.355 . S
C891 C893 1.415 1_455 S
C892 C891 1.355 . S
C892 C894 1.419 . S
C893 C888 1.425 1_655 S
C893 C890 1.409 . S
C893 C891 1.415 1_655 S
C894 H884 0.930 . S
C894 C892 1.419 . S
C894 C895 1.362 . S
C895 H885 0.930 . S
C895 C888 1.409 . S
C895 C894 1.362 . S
H896 C902 0.930 . S
H897 C905 0.930 . S
H898 C906 0.930 . S
H899 C907 0.930 . S
H900 C910 0.930 . S
H901 C911 0.930 . S
C902 H896 0.930 . S
C902 C903 1.355 . S
C902 C904 1.415 . S
C903 C902 1.355 . S
C903 C905 1.419 . S
C904 C902 1.415 . S
C904 C909 1.425 . S
C904 C911 1.409 . S
C905 H897 0.930 . S
C905 C903 1.419 . S
C905 C906 1.362 . S
C906 H898 0.930 . S
C906 C905 1.362 . S
C906 C909 1.409 . S
C907 H899 0.930 . S
C907 C908 1.355 . S
C907 C909 1.415 . S
C908 C907 1.355 . S
C908 C910 1.419 . S
C909 C904 1.425 . S
C909 C906 1.409 . S
C909 C907 1.415 . S
C910 H900 0.930 . S
C910 C908 1.419 . S
C910 C911 1.362 . S
C911 H901 0.930 . S
C911 C904 1.409 . S
C911 C910 1.362 . S
H912 C918 0.930 . S
H913 C921 0.930 . S
H914 C922 0.930 . S
H915 C923 0.930 . S
H916 C926 0.930 . S
H917 C927 0.930 . S
C918 H912 0.930 . S
C918 C919 1.355 . S
C918 C920 1.415 1_545 S
C919 C918 1.355 . S
C919 C921 1.419 . S
C920 C918 1.415 1_565 S
C920 C925 1.425 . S
C920 C927 1.409 . S
C921 H913 0.930 . S
C921 C919 1.419 . S
C921 C922 1.362 . S
C922 H914 0.930 . S
C922 C921 1.362 . S
C922 C925 1.409 1_545 S
C923 H915 0.930 . S
C923 C924 1.355 . S
C923 C925 1.415 . S
C924 C923 1.355 . S
C924 C926 1.419 . S
C925 C920 1.425 . S
C925 C922 1.409 1_565 S
C925 C923 1.415 . S
C926 H916 0.930 . S
C926 C924 1.419 . S
C926 C927 1.362 . S
C927 H917 0.930 . S
C927 C920 1.409 . S
C927 C926 1.362 . S
H928 C934 0.930 . S
H929 C937 0.930 . S
H930 C938 0.930 . S
H931 C939 0.930 . S
H932 C942 0.930 . S
H933 C943 0.930 . S
C934 H928 0.930 . S
C934 C935 1.355 . S
C934 C936 1.415 . S
C935 C934 1.355 . S
C935 C937 1.419 . S
C936 C934 1.415 . S
C936 C941 1.425 . S
C936 C943 1.409 . S
C937 H929 0.930 . S
C937 C935 1.419 . S
C937 C938 1.362 . S
C938 H930 0.930 . S
C938 C937 1.362 . S
C938 C941 1.409 . S
C939 H931 0.930 . S
C939 C940 1.355 . S
C939 C941 1.415 . S
C940 C939 1.355 . S
C940 C942 1.419 . S
C941 C936 1.425 . S
C941 C938 1.409 . S
C941 C939 1.415 . S
C942 H932 0.930 . S
C942 C940 1.419 . S
C942 C943 1.362 . S
C943 H933 0.930 . S
C943 C936 1.409 . S
C943 C942 1.362 . S
H944 C950 0.930 . S
H945 C953 0.930 . S
H946 C954 0.930 . S
H947 C955 0.930 . S
H948 C958 0.930 . S
H949 C959 0.930 . S
C950 H944 0.930 . S
C950 C951 1.355 . S
C950 C952 1.415 . S
C951 C950 1.355 . S
C951 C953 1.419 . S
C952 C950 1.415 . S
C952 C957 1.425 1_545 S
C952 C959 1.409 1_545 S
C953 H945 0.930 . S
C953 C951 1.419 . S
C953 C954 1.362 . S
C954 H946 0.930 . S
C954 C953 1.362 . S
C954 C957 1.409 1_545 S
C955 H947 0.930 . S
C955 C956 1.355 . S
C955 C957 1.415 . S
C956 C955 1.355 . S
C956 C958 1.419 . S
C957 C952 1.425 1_565 S
C957 C954 1.409 1_565 S
C957 C955 1.415 . S
C958 H948 0.930 . S
C958 C956 1.419 . S
C958 C959 1.362 . S
C959 H949 0.930 . S
C959 C952 1.409 1_565 S
C959 C958 1.362 . S
H960 C966 0.930 . S
H961 C969 0.931 . S
H962 C970 0.930 . S
H963 C971 0.930 . S
H964 C974 0.930 . S
H965 C975 0.930 . S
C966 H960 0.930 . S
C966 C967 1.355 . S
C966 C968 1.415 . S
C967 C966 1.355 . S
C967 C969 1.410 1_554 S
C968 C966 1.415 . S
C968 C973 1.425 1_554 S
C968 C975 1.409 . S
C969 H961 0.931 . S
C969 C967 1.410 1_556 S
C969 C970 1.370 . S
C970 H962 0.930 . S
C970 C969 1.370 . S
C970 C973 1.409 . S
C971 H963 0.930 . S
C971 C972 1.355 . S
C971 C973 1.415 . S
C972 C971 1.355 . S
C972 C974 1.419 . S
C973 C968 1.425 1_556 S
C973 C970 1.409 . S
C973 C971 1.415 . S
C974 H964 0.930 . S
C974 C972 1.419 . S
C974 C975 1.362 1_556 S
C975 H965 0.930 . S
C975 C968 1.409 . S
C975 C974 1.362 1_554 S
H976 C982 0.930 . S
H977 C985 0.930 . S
H978 C986 0.930 . S
H979 C987 0.930 . S
H980 C990 0.930 . S
H981 C991 0.930 . S
C982 H976 0.930 . S
C982 C983 1.355 . S
C982 C984 1.415 . S
C983 C982 1.355 . S
C983 C985 1.419 . S
C984 C982 1.415 . S
C984 C989 1.425 1_455 S
C984 C991 1.409 . S
C985 H977 0.930 . S
C985 C983 1.419 . S
C985 C986 1.362 1_455 S
C986 H978 0.930 . S
C986 C985 1.362 1_655 S
C986 C989 1.409 . S
C987 H979 0.930 . S
C987 C988 1.355 . S
C987 C989 1.415 . S
C988 C987 1.355 . S
C988 C990 1.419 . S
C989 C984 1.425 1_655 S
C989 C986 1.409 . S
C989 C987 1.415 . S
C990 H980 0.930 . S
C990 C988 1.419 . S
C990 C991 1.362 1_655 S
C991 H981 0.930 . S
C991 C984 1.409 . S
C991 C990 1.362 1_455 S
H992 C998 0.930 . S
H993 C1001 0.930 . S
H994 C1002 0.930 . S
H995 C1003 0.930 . S
H996 C1006 0.930 . S
H997 C1007 0.930 . S
C998 H992 0.930 . S
C998 C999 1.355 . S
C998 C1000 1.415 . S
C999 C998 1.355 . S
C999 C1001 1.419 . S
C1000 C998 1.415 . S
C1000 C1005 1.425 . S
C1000 C1007 1.409 . S
C1001 H993 0.930 . S
C1001 C999 1.419 . S
C1001 C1002 1.362 . S
C1002 H994 0.930 . S
C1002 C1001 1.362 . S
C1002 C1005 1.409 . S
C1003 H995 0.930 . S
C1003 C1004 1.355 . S
C1003 C1005 1.415 . S
C1004 C1003 1.355 . S
C1004 C1006 1.419 . S
C1005 C1000 1.425 . S
C1005 C1002 1.409 . S
C1005 C1003 1.415 . S
C1006 H996 0.930 . S
C1006 C1004 1.419 . S
C1006 C1007 1.362 . S
C1007 H997 0.930 . S
C1007 C1000 1.409 . S
C1007 C1006 1.362 . S
H1008 C1014 0.930 . S
H1009 C1017 0.931 . S
H1010 C1018 0.930 . S
H1011 C1019 0.930 . S
H1012 C1022 0.930 . S
H1013 C1023 0.930 . S
C1014 H1008 0.930 . S
C1014 C1015 1.355 . S
C1014 C1016 1.415 . S
C1015 C1014 1.355 . S
C1015 C1017 1.411 1_655 S
C1016 C1014 1.415 . S
C1016 C1021 1.425 1_655 S
C1016 C1023 1.409 . S
C1017 H1009 0.931 . S
C1017 C1015 1.411 1_455 S
C1017 C1018 1.370 . S
C1018 H1010 0.930 . S
C1018 C1017 1.370 . S
C1018 C1021 1.409 . S
C1019 H1011 0.930 . S
C1019 C1020 1.355 . S
C1019 C1021 1.415 . S
C1020 C1019 1.355 . S
C1020 C1022 1.419 . S
C1021 C1016 1.425 1_455 S
C1021 C1018 1.409 . S
C1021 C1019 1.415 . S
C1022 H1012 0.930 . S
C1022 C1020 1.419 . S
C1022 C1023 1.362 1_455 S
C1023 H1013 0.930 . S
C1023 C1016 1.409 . S
C1023 C1022 1.362 1_655 S
H1024 C1030 0.930 . S
H1025 C1033 0.930 . S
H1026 C1034 0.930 . S
H1027 C1035 0.930 . S
H1028 C1038 0.930 . S
H1029 C1039 0.930 . S
C1030 H1024 0.930 . S
C1030 C1031 1.355 . S
C1030 C1032 1.415 . S
C1031 C1030 1.355 . S
C1031 C1033 1.419 . S
C1032 C1030 1.415 . S
C1032 C1037 1.425 . S
C1032 C1039 1.409 . S
C1033 H1025 0.930 . S
C1033 C1031 1.419 . S
C1033 C1034 1.362 . S
C1034 H1026 0.930 . S
C1034 C1033 1.362 . S
C1034 C1037 1.409 . S
C1035 H1027 0.930 . S
C1035 C1036 1.355 . S
C1035 C1037 1.415 . S
C1036 C1035 1.355 . S
C1036 C1038 1.419 . S
C1037 C1032 1.425 . S
C1037 C1034 1.409 . S
C1037 C1035 1.415 . S
C1038 H1028 0.930 . S
C1038 C1036 1.419 . S
C1038 C1039 1.362 . S
C1039 H1029 0.930 . S
C1039 C1032 1.409 . S
C1039 C1038 1.362 . S
H1040 C1046 0.930 . S
H1041 C1049 0.930 . S
H1042 C1050 0.930 . S
H1043 C1051 0.930 . S
H1044 C1054 0.930 . S
H1045 C1055 0.930 . S
C1046 H1040 0.930 . S
C1046 C1047 1.355 . S
C1046 C1048 1.415 . S
C1047 C1046 1.355 . S
C1047 C1049 1.419 . S
C1048 C1046 1.415 . S
C1048 C1053 1.425 . S
C1048 C1055 1.409 . S
C1049 H1041 0.930 . S
C1049 C1047 1.419 . S
C1049 C1050 1.362 . S
C1050 H1042 0.930 . S
C1050 C1049 1.362 . S
C1050 C1053 1.409 . S
C1051 H1043 0.930 . S
C1051 C1052 1.355 . S
C1051 C1053 1.415 . S
C1052 C1051 1.355 . S
C1052 C1054 1.419 . S
C1053 C1048 1.425 . S
C1053 C1050 1.409 . S
C1053 C1051 1.415 . S
C1054 H1044 0.930 . S
C1054 C1052 1.419 . S
C1054 C1055 1.362 . S
C1055 H1045 0.930 . S
C1055 C1048 1.409 . S
C1055 C1054 1.362 . S
H1056 C1062 0.930 . S
H1057 C1065 0.930 . S
H1058 C1066 0.930 . S
H1059 C1067 0.930 . S
H1060 C1070 0.930 . S
H1061 C1071 0.930 . S
C1062 H1056 0.930 . S
C1062 C1063 1.355 . S
C1062 C1064 1.415 . S
C1063 C1062 1.355 . S
C1063 C1065 1.419 . S
C1064 C1062 1.415 . S
C1064 C1069 1.425 1_556 S
C1064 C1071 1.409 . S
C1065 H1057 0.930 . S
C1065 C1063 1.419 . S
C1065 C1066 1.362 1_556 S
C1066 H1058 0.930 . S
C1066 C1065 1.362 1_554 S
C1066 C1069 1.409 . S
C1067 H1059 0.930 . S
C1067 C1068 1.355 . S
C1067 C1069 1.415 . S
C1068 C1067 1.355 . S
C1068 C1070 1.419 . S
C1069 C1064 1.425 1_554 S
C1069 C1066 1.409 . S
C1069 C1067 1.415 . S
C1070 H1060 0.930 . S
C1070 C1068 1.419 . S
C1070 C1071 1.362 1_554 S
C1071 H1061 0.930 . S
C1071 C1064 1.409 . S
C1071 C1070 1.362 1_556 S
H1072 C1078 0.930 . S
H1073 C1081 0.930 . S
H1074 C1082 0.930 . S
H1075 C1083 0.930 . S
H1076 C1086 0.930 . S
H1077 C1087 0.930 . S
C1078 H1072 0.930 . S
C1078 C1079 1.355 . S
C1078 C1080 1.415 . S
C1079 C1078 1.355 . S
C1079 C1081 1.419 . S
C1080 C1078 1.415 . S
C1080 C1085 1.425 . S
C1080 C1087 1.409 . S
C1081 H1073 0.930 . S
C1081 C1079 1.419 . S
C1081 C1082 1.362 . S
C1082 H1074 0.930 . S
C1082 C1081 1.362 . S
C1082 C1085 1.409 . S
C1083 H1075 0.930 . S
C1083 C1084 1.355 . S
C1083 C1085 1.415 . S
C1084 C1083 1.355 . S
C1084 C1086 1.419 . S
C1085 C1080 1.425 . S
C1085 C1082 1.409 . S
C1085 C1083 1.415 . S
C1086 H1076 0.930 . S
C1086 C1084 1.419 . S
C1086 C1087 1.362 . S
C1087 H1077 0.930 . S
C1087 C1080 1.409 . S
C1087 C1086 1.362 . S
H1088 C1094 0.930 . S
H1089 C1097 0.930 . S
H1090 C1098 0.930 . S
H1091 C1099 0.930 . S
H1092 C1102 0.930 . S
H1093 C1103 0.930 . S
C1094 H1088 0.930 . S
C1094 C1095 1.355 . S
C1094 C1096 1.415 . S
C1095 C1094 1.355 . S
C1095 C1097 1.419 . S
C1096 C1094 1.415 . S
C1096 C1101 1.425 . S
C1096 C1103 1.409 . S
C1097 H1089 0.930 . S
C1097 C1095 1.419 . S
C1097 C1098 1.362 . S
C1098 H1090 0.930 . S
C1098 C1097 1.362 . S
C1098 C1101 1.409 . S
C1099 H1091 0.930 . S
C1099 C1100 1.355 . S
C1099 C1101 1.415 . S
C1100 C1099 1.355 . S
C1100 C1102 1.419 . S
C1101 C1096 1.425 . S
C1101 C1098 1.409 . S
C1101 C1099 1.415 . S
C1102 H1092 0.930 . S
C1102 C1100 1.419 . S
C1102 C1103 1.362 . S
C1103 H1093 0.930 . S
C1103 C1096 1.409 . S
C1103 C1102 1.362 . S
H1104 C1110 0.930 . S
H1105 C1113 0.930 . S
H1106 C1114 0.930 . S
H1107 C1115 0.930 . S
H1108 C1118 0.930 . S
H1109 C1119 0.930 . S
C1110 H1104 0.930 . S
C1110 C1111 1.355 . S
C1110 C1112 1.415 . S
C1111 C1110 1.355 . S
C1111 C1113 1.419 . S
C1112 C1110 1.415 . S
C1112 C1117 1.425 . S
C1112 C1119 1.409 . S
C1113 H1105 0.930 . S
C1113 C1111 1.419 . S
C1113 C1114 1.362 . S
C1114 H1106 0.930 . S
C1114 C1113 1.362 . S
C1114 C1117 1.409 . S
C1115 H1107 0.930 . S
C1115 C1116 1.355 . S
C1115 C1117 1.415 . S
C1116 C1115 1.355 . S
C1116 C1118 1.419 . S
C1117 C1112 1.425 . S
C1117 C1114 1.409 . S
C1117 C1115 1.415 . S
C1118 H1108 0.930 . S
C1118 C1116 1.419 . S
C1118 C1119 1.362 . S
C1119 H1109 0.930 . S
C1119 C1112 1.409 . S
C1119 C1118 1.362 . S
H1120 C1126 0.930 . S
H1121 C1129 0.933 . S
H1122 C1130 0.930 . S
H1123 C1131 0.930 . S
H1124 C1134 0.930 . S
H1125 C1135 0.930 . S
C1126 H1120 0.930 . S
C1126 C1127 1.355 . S
C1126 C1128 1.415 . S
C1127 C1126 1.355 . S
C1127 C1129 1.419 . S
C1128 C1126 1.415 . S
C1128 C1133 1.425 1_556 S
C1128 C1135 1.409 . S
C1129 H1121 0.933 . S
C1129 C1127 1.419 . S
C1129 C1130 1.362 1_556 S
C1130 H1122 0.930 . S
C1130 C1129 1.362 1_554 S
C1130 C1133 1.409 . S
C1131 H1123 0.930 . S
C1131 C1132 1.355 . S
C1131 C1133 1.415 . S
C1132 C1131 1.355 . S
C1132 C1134 1.419 . S
C1133 C1128 1.425 1_554 S
C1133 C1130 1.409 . S
C1133 C1131 1.415 . S
C1134 H1124 0.930 . S
C1134 C1132 1.419 . S
C1134 C1135 1.362 1_554 S
C1135 H1125 0.930 . S
C1135 C1128 1.409 . S
C1135 C1134 1.362 1_556 S
H1136 C1142 0.930 . S
H1137 C1145 0.930 . S
H1138 C1146 0.930 . S
H1139 C1147 0.930 . S
H1140 C1150 0.930 . S
H1141 C1151 0.930 . S
C1142 H1136 0.930 . S
C1142 C1143 1.355 . S
C1142 C1144 1.415 . S
C1143 C1142 1.355 . S
C1143 C1145 1.419 . S
C1144 C1142 1.415 . S
C1144 C1149 1.425 . S
C1144 C1151 1.409 . S
C1145 H1137 0.930 . S
C1145 C1143 1.419 . S
C1145 C1146 1.362 . S
C1146 H1138 0.930 . S
C1146 C1145 1.362 . S
C1146 C1149 1.409 . S
C1147 H1139 0.930 . S
C1147 C1148 1.355 . S
C1147 C1149 1.415 . S
C1148 C1147 1.355 . S
C1148 C1150 1.419 . S
C1149 C1144 1.425 . S
C1149 C1146 1.409 . S
C1149 C1147 1.415 . S
C1150 H1140 0.930 . S
C1150 C1148 1.419 . S
C1150 C1151 1.362 . S
C1151 H1141 0.930 . S
C1151 C1144 1.409 . S
C1151 C1150 1.362 . S
H1152 C1158 0.930 . S
H1153 C1161 0.930 . S
H1154 C1162 0.930 . S
H1155 C1163 0.930 . S
H1156 C1166 0.930 . S
H1157 C1167 0.930 . S
C1158 H1152 0.930 . S
C1158 C1159 1.355 . S
C1158 C1160 1.415 . S
C1159 C1158 1.355 . S
C1159 C1161 1.419 . S
C1160 C1158 1.415 . S
C1160 C1165 1.425 . S
C1160 C1167 1.409 . S
C1161 H1153 0.930 . S
C1161 C1159 1.419 . S
C1161 C1162 1.362 . S
C1162 H1154 0.930 . S
C1162 C1161 1.362 . S
C1162 C1165 1.409 . S
C1163 H1155 0.930 . S
C1163 C1164 1.355 . S
C1163 C1165 1.415 . S
C1164 C1163 1.355 . S
C1164 C1166 1.419 . S
C1165 C1160 1.425 . S
C1165 C1162 1.409 . S
C1165 C1163 1.415 . S
C1166 H1156 0.930 . S
C1166 C1164 1.419 . S
C1166 C1167 1.362 . S
C1167 H1157 0.930 . S
C1167 C1160 1.409 . S
C1167 C1166 1.362 . S
C535 N13 1.508 . S
C540 N497 1.492 . S
C551 N277 1.979 . S
C556 N46 1.980 . S
C567 N409 1.728 . S
C572 N68 1.717 . S
C583 N101 1.916 . S
C588 N343 1.896 . S
C599 N365 2.008 . S
C604 N35 1.999 . S
C615 N79 1.776 . S
C620 N299 1.756 . S
C631 N112 1.829 . S
C636 N431 1.876 . S
C647 N2 1.541 . S
C652 N244 1.485 . S
C663 N266 2.008 . S
C668 N134 1.995 . S
C679 N398 1.784 . S
C684 N178 1.757 . S
C695 N211 1.838 . S
C700 N332 1.891 . S
C711 N200 1.937 . S
C716 N442 1.910 . S
C727 N145 1.986 . S
C732 N376 1.964 . S
C743 N475 1.544 . S
C748 N233 1.544 . S
C759 N310 1.697 . S
C764 N167 1.704 . S
C775 N508 1.522 . S
C780 N464 1.566 . S
C791 C21 1.083 . S
C796 C51 1.085 . S
C807 C40 1.113 . S
C812 C87 1.106 . S
C823 C73 1.346 . S
C828 C106 1.343 . S
C839 C117 1.314 . S
C844 C7 1.302 . S
C855 C18 0.883 . S
C860 C183 0.870 . S
C871 C153 0.782 . S
C876 C120 0.776 . S
C887 C219 0.785 . S
C892 C54 0.792 . S
C903 C480 0.883 . S
C908 C84 0.870 . S
C919 C285 0.764 . S
C924 C238 0.754 . S
C935 C271 1.173 . S
C940 C304 1.191 . S
C951 C315 1.410 . S
C956 C348 1.411 . S
C967 C351 0.929 . S
C972 C249 0.929 . S
C983 C417 0.914 . S
C988 C252 0.915 . S
C999 C381 1.216 . S
C1004 C337 1.220 . S
C1015 C282 1.218 . S
C1020 C436 1.221 . S
C1031 C516 0.893 . S
C1036 C318 0.895 . S
C1047 C150 1.081 . S
C1052 C483 1.080 . S
C1063 C139 1.103 . S
C1068 C186 1.102 . S
C1079 C172 1.354 . S
C1084 C205 1.354 . S
C1095 C469 1.335 . S
C1100 C216 1.335 . S
C1111 C384 0.754 . S
C1116 C502 0.760 . S
C1127 C403 1.182 . S
C1132 C370 1.195 . S
C1143 C414 1.398 . S
C1148 C447 1.400 . S
C1159 C513 0.934 . S
C1164 C450 0.933 . S
