# Generated by pormake.
# Topology wio, (6)-cn, num edge types: 1
# Building blocks:
#     Node 0, Type 0, BuildingBlock: MIFKUJ_clean_sbu_0, # of connection points: 6
#     Node 1, Type 0, BuildingBlock: MIFKUJ_clean_sbu_0, # of connection points: 6
#     Node 2, Type 0, BuildingBlock: MIFKUJ_clean_sbu_0, # of connection points: 6
#     Node 3, Type 0, BuildingBlock: MIFKUJ_clean_sbu_0, # of connection points: 6
#     Node 4, Type 0, BuildingBlock: MIFKUJ_clean_sbu_0, # of connection points: 6
#     Node 5, Type 0, BuildingBlock: MIFKUJ_clean_sbu_0, # of connection points: 6
#     Node 6, Type 0, BuildingBlock: MIFKUJ_clean_sbu_0, # of connection points: 6
#     Node 7, Type 0, BuildingBlock: MIFKUJ_clean_sbu_0, # of connection points: 6
#     Node 8, Type 0, BuildingBlock: MIFKUJ_clean_sbu_0, # of connection points: 6
#     Node 9, Type 0, BuildingBlock: MIFKUJ_clean_sbu_0, # of connection points: 6
#     Node 10, Type 0, BuildingBlock: MIFKUJ_clean_sbu_0, # of connection points: 6
#     Node 11, Type 0, BuildingBlock: MIFKUJ_clean_sbu_0, # of connection points: 6
#     Node 12, Type 0, BuildingBlock: MIFKUJ_clean_sbu_0, # of connection points: 6
#     Node 13, Type 0, BuildingBlock: MIFKUJ_clean_sbu_0, # of connection points: 6
#     Node 14, Type 0, BuildingBlock: MIFKUJ_clean_sbu_0, # of connection points: 6
#     Node 15, Type 0, BuildingBlock: MIFKUJ_clean_sbu_0, # of connection points: 6
#     Node 16, Type 0, BuildingBlock: MIFKUJ_clean_sbu_0, # of connection points: 6
#     Node 17, Type 0, BuildingBlock: MIFKUJ_clean_sbu_0, # of connection points: 6
#     Node 18, Type 0, BuildingBlock: MIFKUJ_clean_sbu_0, # of connection points: 6
#     Node 19, Type 0, BuildingBlock: MIFKUJ_clean_sbu_0, # of connection points: 6
#     Node 20, Type 0, BuildingBlock: MIFKUJ_clean_sbu_0, # of connection points: 6
#     Node 21, Type 0, BuildingBlock: MIFKUJ_clean_sbu_0, # of connection points: 6
#     Node 22, Type 0, BuildingBlock: MIFKUJ_clean_sbu_0, # of connection points: 6
#     Node 23, Type 0, BuildingBlock: MIFKUJ_clean_sbu_0, # of connection points: 6
#     Node 24, Type 0, BuildingBlock: MIFKUJ_clean_sbu_0, # of connection points: 6
#     Node 25, Type 0, BuildingBlock: MIFKUJ_clean_sbu_0, # of connection points: 6
#     Node 26, Type 0, BuildingBlock: MIFKUJ_clean_sbu_0, # of connection points: 6
#     Node 27, Type 0, BuildingBlock: MIFKUJ_clean_sbu_0, # of connection points: 6
#     Node 28, Type 0, BuildingBlock: MIFKUJ_clean_sbu_0, # of connection points: 6
#     Node 29, Type 0, BuildingBlock: MIFKUJ_clean_sbu_0, # of connection points: 6
#     Node 30, Type 0, BuildingBlock: MIFKUJ_clean_sbu_0, # of connection points: 6
#     Node 31, Type 0, BuildingBlock: MIFKUJ_clean_sbu_0, # of connection points: 6
#     Edge 32, Type (0, 0), BuildingBlock: XIVTED_clean_linker_0, # of connection points: 2
#     Edge 33, Type (0, 0), BuildingBlock: XIVTED_clean_linker_0, # of connection points: 2
#     Edge 34, Type (0, 0), BuildingBlock: XIVTED_clean_linker_0, # of connection points: 2
#     Edge 35, Type (0, 0), BuildingBlock: XIVTED_clean_linker_0, # of connection points: 2
#     Edge 36, Type (0, 0), BuildingBlock: XIVTED_clean_linker_0, # of connection points: 2
#     Edge 37, Type (0, 0), BuildingBlock: XIVTED_clean_linker_0, # of connection points: 2
#     Edge 38, Type (0, 0), BuildingBlock: XIVTED_clean_linker_0, # of connection points: 2
#     Edge 39, Type (0, 0), BuildingBlock: XIVTED_clean_linker_0, # of connection points: 2
#     Edge 40, Type (0, 0), BuildingBlock: XIVTED_clean_linker_0, # of connection points: 2
#     Edge 41, Type (0, 0), BuildingBlock: XIVTED_clean_linker_0, # of connection points: 2
#     Edge 42, Type (0, 0), BuildingBlock: XIVTED_clean_linker_0, # of connection points: 2
#     Edge 43, Type (0, 0), BuildingBlock: XIVTED_clean_linker_0, # of connection points: 2
#     Edge 44, Type (0, 0), BuildingBlock: XIVTED_clean_linker_0, # of connection points: 2
#     Edge 45, Type (0, 0), BuildingBlock: XIVTED_clean_linker_0, # of connection points: 2
#     Edge 46, Type (0, 0), BuildingBlock: XIVTED_clean_linker_0, # of connection points: 2
#     Edge 47, Type (0, 0), BuildingBlock: XIVTED_clean_linker_0, # of connection points: 2
#     Edge 48, Type (0, 0), BuildingBlock: XIVTED_clean_linker_0, # of connection points: 2
#     Edge 49, Type (0, 0), BuildingBlock: XIVTED_clean_linker_0, # of connection points: 2
#     Edge 50, Type (0, 0), BuildingBlock: XIVTED_clean_linker_0, # of connection points: 2
#     Edge 51, Type (0, 0), BuildingBlock: XIVTED_clean_linker_0, # of connection points: 2
#     Edge 52, Type (0, 0), BuildingBlock: XIVTED_clean_linker_0, # of connection points: 2
#     Edge 53, Type (0, 0), BuildingBlock: XIVTED_clean_linker_0, # of connection points: 2
#     Edge 54, Type (0, 0), BuildingBlock: XIVTED_clean_linker_0, # of connection points: 2
#     Edge 55, Type (0, 0), BuildingBlock: XIVTED_clean_linker_0, # of connection points: 2
#     Edge 56, Type (0, 0), BuildingBlock: XIVTED_clean_linker_0, # of connection points: 2
#     Edge 57, Type (0, 0), BuildingBlock: XIVTED_clean_linker_0, # of connection points: 2
#     Edge 58, Type (0, 0), BuildingBlock: XIVTED_clean_linker_0, # of connection points: 2
#     Edge 59, Type (0, 0), BuildingBlock: XIVTED_clean_linker_0, # of connection points: 2
#     Edge 60, Type (0, 0), BuildingBlock: XIVTED_clean_linker_0, # of connection points: 2
#     Edge 61, Type (0, 0), BuildingBlock: XIVTED_clean_linker_0, # of connection points: 2
#     Edge 62, Type (0, 0), BuildingBlock: XIVTED_clean_linker_0, # of connection points: 2
#     Edge 63, Type (0, 0), BuildingBlock: XIVTED_clean_linker_0, # of connection points: 2
#     Edge 64, Type (0, 0), BuildingBlock: XIVTED_clean_linker_0, # of connection points: 2
#     Edge 65, Type (0, 0), BuildingBlock: XIVTED_clean_linker_0, # of connection points: 2
#     Edge 66, Type (0, 0), BuildingBlock: XIVTED_clean_linker_0, # of connection points: 2
#     Edge 67, Type (0, 0), BuildingBlock: XIVTED_clean_linker_0, # of connection points: 2
#     Edge 68, Type (0, 0), BuildingBlock: XIVTED_clean_linker_0, # of connection points: 2
#     Edge 69, Type (0, 0), BuildingBlock: XIVTED_clean_linker_0, # of connection points: 2
#     Edge 70, Type (0, 0), BuildingBlock: XIVTED_clean_linker_0, # of connection points: 2
#     Edge 71, Type (0, 0), BuildingBlock: XIVTED_clean_linker_0, # of connection points: 2
#     Edge 72, Type (0, 0), BuildingBlock: XIVTED_clean_linker_0, # of connection points: 2
#     Edge 73, Type (0, 0), BuildingBlock: XIVTED_clean_linker_0, # of connection points: 2
#     Edge 74, Type (0, 0), BuildingBlock: XIVTED_clean_linker_0, # of connection points: 2
#     Edge 75, Type (0, 0), BuildingBlock: XIVTED_clean_linker_0, # of connection points: 2
#     Edge 76, Type (0, 0), BuildingBlock: XIVTED_clean_linker_0, # of connection points: 2
#     Edge 77, Type (0, 0), BuildingBlock: XIVTED_clean_linker_0, # of connection points: 2
#     Edge 78, Type (0, 0), BuildingBlock: XIVTED_clean_linker_0, # of connection points: 2
#     Edge 79, Type (0, 0), BuildingBlock: XIVTED_clean_linker_0, # of connection points: 2
#     Edge 80, Type (0, 0), BuildingBlock: XIVTED_clean_linker_0, # of connection points: 2
#     Edge 81, Type (0, 0), BuildingBlock: XIVTED_clean_linker_0, # of connection points: 2
#     Edge 82, Type (0, 0), BuildingBlock: XIVTED_clean_linker_0, # of connection points: 2
#     Edge 83, Type (0, 0), BuildingBlock: XIVTED_clean_linker_0, # of connection points: 2
#     Edge 84, Type (0, 0), BuildingBlock: XIVTED_clean_linker_0, # of connection points: 2
#     Edge 85, Type (0, 0), BuildingBlock: XIVTED_clean_linker_0, # of connection points: 2
#     Edge 86, Type (0, 0), BuildingBlock: XIVTED_clean_linker_0, # of connection points: 2
#     Edge 87, Type (0, 0), BuildingBlock: XIVTED_clean_linker_0, # of connection points: 2
#     Edge 88, Type (0, 0), BuildingBlock: XIVTED_clean_linker_0, # of connection points: 2
#     Edge 89, Type (0, 0), BuildingBlock: XIVTED_clean_linker_0, # of connection points: 2
#     Edge 90, Type (0, 0), BuildingBlock: XIVTED_clean_linker_0, # of connection points: 2
#     Edge 91, Type (0, 0), BuildingBlock: XIVTED_clean_linker_0, # of connection points: 2
#     Edge 92, Type (0, 0), BuildingBlock: XIVTED_clean_linker_0, # of connection points: 2
#     Edge 93, Type (0, 0), BuildingBlock: XIVTED_clean_linker_0, # of connection points: 2
#     Edge 94, Type (0, 0), BuildingBlock: XIVTED_clean_linker_0, # of connection points: 2
#     Edge 95, Type (0, 0), BuildingBlock: XIVTED_clean_linker_0, # of connection points: 2
#     Edge 96, Type (0, 0), BuildingBlock: XIVTED_clean_linker_0, # of connection points: 2
#     Edge 97, Type (0, 0), BuildingBlock: XIVTED_clean_linker_0, # of connection points: 2
#     Edge 98, Type (0, 0), BuildingBlock: XIVTED_clean_linker_0, # of connection points: 2
#     Edge 99, Type (0, 0), BuildingBlock: XIVTED_clean_linker_0, # of connection points: 2
#     Edge 100, Type (0, 0), BuildingBlock: XIVTED_clean_linker_0, # of connection points: 2
#     Edge 101, Type (0, 0), BuildingBlock: XIVTED_clean_linker_0, # of connection points: 2
#     Edge 102, Type (0, 0), BuildingBlock: XIVTED_clean_linker_0, # of connection points: 2
#     Edge 103, Type (0, 0), BuildingBlock: XIVTED_clean_linker_0, # of connection points: 2
#     Edge 104, Type (0, 0), BuildingBlock: XIVTED_clean_linker_0, # of connection points: 2
#     Edge 105, Type (0, 0), BuildingBlock: XIVTED_clean_linker_0, # of connection points: 2
#     Edge 106, Type (0, 0), BuildingBlock: XIVTED_clean_linker_0, # of connection points: 2
#     Edge 107, Type (0, 0), BuildingBlock: XIVTED_clean_linker_0, # of connection points: 2
#     Edge 108, Type (0, 0), BuildingBlock: XIVTED_clean_linker_0, # of connection points: 2
#     Edge 109, Type (0, 0), BuildingBlock: XIVTED_clean_linker_0, # of connection points: 2
#     Edge 110, Type (0, 0), BuildingBlock: XIVTED_clean_linker_0, # of connection points: 2
#     Edge 111, Type (0, 0), BuildingBlock: XIVTED_clean_linker_0, # of connection points: 2
#     Edge 112, Type (0, 0), BuildingBlock: XIVTED_clean_linker_0, # of connection points: 2
#     Edge 113, Type (0, 0), BuildingBlock: XIVTED_clean_linker_0, # of connection points: 2
#     Edge 114, Type (0, 0), BuildingBlock: XIVTED_clean_linker_0, # of connection points: 2
#     Edge 115, Type (0, 0), BuildingBlock: XIVTED_clean_linker_0, # of connection points: 2
#     Edge 116, Type (0, 0), BuildingBlock: XIVTED_clean_linker_0, # of connection points: 2
#     Edge 117, Type (0, 0), BuildingBlock: XIVTED_clean_linker_0, # of connection points: 2
#     Edge 118, Type (0, 0), BuildingBlock: XIVTED_clean_linker_0, # of connection points: 2
#     Edge 119, Type (0, 0), BuildingBlock: XIVTED_clean_linker_0, # of connection points: 2
#     Edge 120, Type (0, 0), BuildingBlock: XIVTED_clean_linker_0, # of connection points: 2
#     Edge 121, Type (0, 0), BuildingBlock: XIVTED_clean_linker_0, # of connection points: 2
#     Edge 122, Type (0, 0), BuildingBlock: XIVTED_clean_linker_0, # of connection points: 2
#     Edge 123, Type (0, 0), BuildingBlock: XIVTED_clean_linker_0, # of connection points: 2
#     Edge 124, Type (0, 0), BuildingBlock: XIVTED_clean_linker_0, # of connection points: 2
#     Edge 125, Type (0, 0), BuildingBlock: XIVTED_clean_linker_0, # of connection points: 2
#     Edge 126, Type (0, 0), BuildingBlock: XIVTED_clean_linker_0, # of connection points: 2
#     Edge 127, Type (0, 0), BuildingBlock: XIVTED_clean_linker_0, # of connection points: 2
# Relax obj value: 0.180
# Max RMSD: 0.211
# Mean RMSD: 0.211
data_MOF--net-wio--node1-MIFKUJ_clean_sbu_0--edge1-XIVTED_clean_linker_0
_symmetry_space_group_name_H-M    P1
_symmetry_Int_Tables_number       1
_symmetry_cell_setting            triclinic
loop_
_symmetry_equiv_pos_as_xyz
'x, y, z'
_cell_length_a     53.301927
_cell_length_b     53.222975
_cell_length_c     50.221267
_cell_angle_alpha  89.919271
_cell_angle_beta   90.074405
_cell_angle_gamma 89.924085
loop_
_atom_site_label
_atom_site_type_symbol
_atom_site_fract_x
_atom_site_fract_y
_atom_site_fract_z
_atom_type_partial_charge
Zn0 Zn 0.11647 0.11779 0.32976 0.0
Zn1 Zn 0.16427 0.12154 0.26581 0.0
C2 C 0.12393 0.08079 0.3677 0.0
O3 O 0.10423 0.07249 0.35471 0.0
C4 C 0.13003 0.13493 0.22091 0.0
O5 O 0.12002 0.15256 0.23578 0.0
O6 O 0.08371 0.13261 0.34147 0.0
O7 O 0.13868 0.1388 0.30856 0.0
O8 O 0.16297 0.15751 0.28099 0.0
C9 C 0.08095 0.1357 0.36635 0.0
O10 O 0.10074 0.13465 0.3819 0.0
O11 O 0.13393 0.10143 0.36082 0.0
C12 C 0.20616 0.09135 0.24906 0.0
O13 O 0.1896 0.07328 0.25095 0.0
O14 O 0.20032 0.11327 0.25694 0.0
O15 O 0.1484 0.0939 0.28961 0.0
O16 O 0.10953 0.09058 0.30374 0.0
O17 O 0.14721 0.12095 0.23037 0.0
C18 C 0.14887 0.1589 0.30119 0.0
C19 C 0.12663 0.08395 0.28753 0.0
Zn20 Zn 0.12052 0.85234 0.56643 0.0
Zn21 Zn 0.11846 0.91426 0.52434 0.0
C22 C 0.14785 0.85438 0.6129 0.0
O23 O 0.15177 0.83157 0.60384 0.0
C24 C 0.10067 0.88572 0.47535 0.0
O25 O 0.08454 0.87266 0.48942 0.0
O26 O 0.10705 0.81819 0.57631 0.0
O27 O 0.09863 0.87436 0.54463 0.0
O28 O 0.08478 0.91246 0.54411 0.0
C29 C 0.09612 0.81683 0.59878 0.0
O30 O 0.09037 0.83778 0.61118 0.0
O31 O 0.13345 0.86901 0.59988 0.0
C32 C 0.14785 0.95183 0.50222 0.0
O33 O 0.1573 0.93111 0.49225 0.0
O34 O 0.13066 0.94997 0.51967 0.0
O35 O 0.14376 0.89199 0.54451 0.0
O36 O 0.15058 0.85132 0.54289 0.0
O37 O 0.11469 0.90179 0.48665 0.0
C38 C 0.08263 0.89008 0.55258 0.0
C39 C 0.15568 0.8734 0.53463 0.0
Zn40 Zn 0.38193 0.87583 0.81763 0.0
Zn41 Zn 0.33209 0.86405 0.75802 0.0
C42 C 0.38112 0.90128 0.86672 0.0
O43 O 0.40505 0.90266 0.86072 0.0
C44 C 0.34762 0.84569 0.7067 0.0
O45 O 0.33006 0.82903 0.71165 0.0
O46 O 0.41643 0.86224 0.82532 0.0
O47 O 0.3601 0.85389 0.79876 0.0
O48 O 0.33492 0.82999 0.77788 0.0
C49 C 0.41926 0.8499 0.84682 0.0
O50 O 0.39925 0.84357 0.86053 0.0
O51 O 0.36633 0.88971 0.85111 0.0
C52 C 0.28615 0.88647 0.73638 0.0
O53 O 0.30018 0.90643 0.73297 0.0
O54 O 0.29567 0.86695 0.747 0.0
O55 O 0.34242 0.89724 0.77826 0.0
O56 O 0.38176 0.90398 0.79211 0.0
O57 O 0.35238 0.86237 0.72409 0.0
C58 C 0.35103 0.83241 0.79605 0.0
C59 C 0.36255 0.91054 0.77849 0.0
Zn60 Zn 0.36595 0.13428 0.0707 0.0
Zn61 Zn 0.37603 0.08268 0.01356 0.0
C62 C 0.3244 0.11987 0.10291 0.0
O63 O 0.31229 0.13205 0.08412 0.0
C64 C 0.39317 0.10043 0.96228 0.0
O65 O 0.41105 0.08375 0.96599 0.0
O66 O 0.37775 0.16817 0.08249 0.0
O67 O 0.39298 0.11262 0.057 0.0
O68 O 0.41033 0.08443 0.03192 0.0
C69 C 0.38571 0.16984 0.10628 0.0
O70 O 0.38796 0.14926 0.12057 0.0
O71 O 0.34815 0.11794 0.10166 0.0
C72 C 0.35148 0.04271 0.98573 0.0
O73 O 0.33803 0.06151 0.97652 0.0
O74 O 0.36871 0.04713 0.00263 0.0
O75 O 0.34744 0.09623 0.03626 0.0
O76 O 0.34161 0.13675 0.04085 0.0
O77 O 0.37675 0.10354 0.98027 0.0
C78 C 0.41232 0.10031 0.05063 0.0
C79 C 0.33622 0.11631 0.0291 0.0
Zn80 Zn 0.11157 0.87711 0.17434 0.0
Zn81 Zn 0.16433 0.87239 0.23562 0.0
C82 C 0.11205 0.89584 0.12093 0.0
O83 O 0.08771 0.89353 0.124 0.0
C84 C 0.13181 0.85978 0.28117 0.0
O85 O 0.12838 0.83799 0.26947 0.0
O86 O 0.0756 0.86594 0.16956 0.0
O87 O 0.13393 0.85403 0.19425 0.0
O88 O 0.16042 0.83625 0.221 0.0
C89 C 0.06843 0.84905 0.15339 0.0
O90 O 0.08536 0.83529 0.14125 0.0
O91 O 0.12659 0.88886 0.13962 0.0
C92 C 0.20771 0.89611 0.26021 0.0
O93 O 0.19059 0.91181 0.26903 0.0
O94 O 0.20106 0.87854 0.24451 0.0
O95 O 0.15063 0.89805 0.20864 0.0
O96 O 0.11155 0.90695 0.19814 0.0
O97 O 0.1454 0.87631 0.26998 0.0
C98 C 0.14529 0.83437 0.20152 0.0
C99 C 0.13085 0.91113 0.21239 0.0
Zn100 Zn 0.36703 0.85459 0.43226 0.0
Zn101 Zn 0.37507 0.90638 0.47501 0.0
C102 C 0.34532 0.86046 0.38182 0.0
O103 O 0.33778 0.83807 0.38928 0.0
C104 C 0.39816 0.88568 0.52195 0.0
O105 O 0.41335 0.90475 0.51798 0.0
O106 O 0.37053 0.8176 0.42396 0.0
O107 O 0.39764 0.86551 0.45162 0.0
O108 O 0.40155 0.90577 0.44613 0.0
C109 C 0.38519 0.81076 0.40534 0.0
O110 O 0.39907 0.82776 0.39344 0.0
O111 O 0.35992 0.87278 0.39712 0.0
C112 C 0.36099 0.95648 0.49744 0.0
O113 O 0.34066 0.95614 0.48265 0.0
O114 O 0.37708 0.93893 0.49537 0.0
O115 O 0.33921 0.90154 0.46278 0.0
O116 O 0.33582 0.86074 0.45314 0.0
O117 O 0.38152 0.88088 0.50447 0.0
C118 C 0.40914 0.88373 0.44113 0.0
C119 C 0.32601 0.88184 0.4591 0.0
Zn120 Zn 0.38941 0.11648 0.68285 0.0
Zn121 Zn 0.33082 0.13251 0.72752 0.0
C122 C 0.38912 0.07594 0.6487 0.0
O123 O 0.40579 0.0696 0.66681 0.0
C124 C 0.34141 0.15006 0.78058 0.0
O125 O 0.32078 0.16313 0.77676 0.0
O126 O 0.42498 0.12676 0.67692 0.0
O127 O 0.36577 0.14312 0.6907 0.0
O128 O 0.33475 0.16479 0.70561 0.0
C129 C 0.42956 0.13859 0.6555 0.0
O130 O 0.41068 0.14668 0.64099 0.0
O131 O 0.37835 0.09716 0.6506 0.0
C132 C 0.28799 0.10876 0.75075 0.0
O133 O 0.30464 0.09127 0.75624 0.0
O134 O 0.29471 0.12783 0.73729 0.0
O135 O 0.34455 0.10037 0.71012 0.0
O136 O 0.38522 0.09347 0.71347 0.0
O137 O 0.34967 0.13632 0.76188 0.0
C138 C 0.35409 0.16361 0.6911 0.0
C139 C 0.36292 0.08883 0.72104 0.0
Zn140 Zn 0.12494 0.13648 0.92732 0.0
Zn141 Zn 0.11721 0.08168 0.98018 0.0
C142 C 0.15671 0.13829 0.88431 0.0
O143 O 0.15981 0.1603 0.89569 0.0
C144 C 0.09951 0.11233 0.02632 0.0
O145 O 0.07791 0.11554 0.01415 0.0
O146 O 0.11103 0.17056 0.91848 0.0
O147 O 0.10218 0.11258 0.94276 0.0
O148 O 0.08216 0.08336 0.9627 0.0
C149 C 0.10224 0.17263 0.89502 0.0
O150 O 0.09835 0.15215 0.88104 0.0
O151 O 0.14144 0.12276 0.89456 0.0
C152 C 0.14187 0.04023 0.00535 0.0
O153 O 0.15594 0.05844 0.01473 0.0
O154 O 0.12431 0.04558 0.98914 0.0
O155 O 0.14722 0.09602 0.95844 0.0
O156 O 0.15191 0.13708 0.95425 0.0
O157 O 0.11682 0.09975 0.01512 0.0
C158 C 0.08186 0.1012 0.94611 0.0
C159 C 0.15906 0.11622 0.96427 0.0
Zn160 Zn 0.83402 0.86733 0.73646 0.0
Zn161 Zn 0.8854 0.87352 0.67561 0.0
C162 C 0.86511 0.85884 0.78518 0.0
O163 O 0.87491 0.83944 0.77281 0.0
C164 C 0.87724 0.90796 0.63535 0.0
O165 O 0.89447 0.9187 0.65015 0.0
O166 O 0.79691 0.87291 0.74069 0.0
O167 O 0.84684 0.89427 0.71021 0.0
O168 O 0.88596 0.90274 0.70034 0.0
C169 C 0.7897 0.8922 0.75349 0.0
O170 O 0.80665 0.90777 0.76285 0.0
O171 O 0.849 0.87246 0.77321 0.0
C172 C 0.92652 0.85061 0.64811 0.0
O173 O 0.9087 0.8436 0.63164 0.0
O174 O 0.92065 0.86236 0.66918 0.0
O175 O 0.86453 0.84975 0.69572 0.0
O176 O 0.8398 0.83098 0.72319 0.0
O177 O 0.86961 0.88608 0.64145 0.0
C178 C 0.86624 0.90793 0.71348 0.0
C179 C 0.85479 0.82953 0.70365 0.0
Zn180 Zn 0.87528 0.07274 0.47471 0.0
Zn181 Zn 0.8674 0.13201 0.43132 0.0
C182 C 0.88779 0.10805 0.52029 0.0
O183 O 0.89467 0.12582 0.50366 0.0
C184 C 0.82493 0.12896 0.39889 0.0
O185 O 0.81718 0.1448 0.41716 0.0
O186 O 0.86615 0.03689 0.48349 0.0
O187 O 0.84409 0.08897 0.45751 0.0
O188 O 0.84484 0.13007 0.46254 0.0
C189 C 0.84773 0.03537 0.49952 0.0
O190 O 0.83561 0.05605 0.50575 0.0
O191 O 0.88005 0.08712 0.51138 0.0
C192 C 0.88769 0.17168 0.40066 0.0
O193 O 0.89259 0.15277 0.38469 0.0
O194 O 0.87819 0.16725 0.42339 0.0
O195 O 0.89479 0.10853 0.43679 0.0
O196 O 0.90885 0.07425 0.45492 0.0
O197 O 0.84718 0.12051 0.40004 0.0
C198 C 0.83421 0.10906 0.46665 0.0
C199 C 0.91259 0.09332 0.44031 0.0
Zn200 Zn 0.6621 0.12462 0.22857 0.0
Zn201 Zn 0.61412 0.11838 0.16831 0.0
C202 C 0.64191 0.14294 0.27665 0.0
O203 O 0.66042 0.15885 0.27296 0.0
C204 C 0.61362 0.0885 0.12377 0.0
O205 O 0.59122 0.08521 0.13408 0.0
O206 O 0.69509 0.1157 0.24522 0.0
O207 O 0.65166 0.09629 0.2031 0.0
O208 O 0.61189 0.08974 0.19387 0.0
C209 C 0.69447 0.09901 0.26334 0.0
O210 O 0.67314 0.08767 0.26848 0.0
O211 O 0.63763 0.12646 0.25894 0.0
C212 C 0.57673 0.14048 0.13596 0.0
O213 O 0.59648 0.14377 0.12075 0.0
O214 O 0.57984 0.13227 0.15952 0.0
O215 O 0.63706 0.14187 0.18583 0.0
O216 O 0.66382 0.15969 0.21172 0.0
O217 O 0.62892 0.1032 0.13529 0.0
C218 C 0.63169 0.08348 0.20647 0.0
C219 C 0.64879 0.16147 0.19228 0.0
Zn220 Zn 0.61448 0.90411 0.98025 0.0
Zn221 Zn 0.6315 0.86168 0.91187 0.0
C222 C 0.59821 0.88889 0.03132 0.0
O223 O 0.58087 0.90577 0.02613 0.0
C224 C 0.63763 0.87247 0.8557 0.0
O225 O 0.62464 0.85174 0.85248 0.0
O226 O 0.62159 0.9405 0.9883 0.0
O227 O 0.63883 0.8888 0.95593 0.0
O228 O 0.66216 0.86198 0.93589 0.0
C229 C 0.63703 0.94552 0.00689 0.0
O230 O 0.64821 0.92695 0.01943 0.0
O231 O 0.6149 0.88442 0.014 0.0
C232 C 0.60656 0.81203 0.904 0.0
O233 O 0.58507 0.82168 0.91162 0.0
O234 O 0.62609 0.82563 0.90295 0.0
O235 O 0.60111 0.87723 0.93047 0.0
O236 O 0.58097 0.89856 0.96127 0.0
O237 O 0.64121 0.88082 0.87908 0.0
C238 C 0.65888 0.87626 0.95565 0.0
C239 C 0.58061 0.8857 0.93979 0.0
Zn240 Zn 0.83279 0.12364 0.76187 0.0
Zn241 Zn 0.87858 0.1111 0.82862 0.0
C242 C 0.86187 0.13738 0.7146 0.0
O243 O 0.86067 0.16027 0.72427 0.0
C244 C 0.87023 0.0776 0.86905 0.0
O245 O 0.8881 0.06731 0.85476 0.0
O246 O 0.79622 0.12079 0.75252 0.0
O247 O 0.84225 0.0962 0.78831 0.0
O248 O 0.87845 0.0826 0.80297 0.0
C249 C 0.7888 0.10294 0.73768 0.0
O250 O 0.80514 0.0861 0.72961 0.0
O251 O 0.85225 0.11934 0.72769 0.0
C252 C 0.92475 0.13702 0.84712 0.0
O253 O 0.91084 0.15627 0.85407 0.0
O254 O 0.91466 0.11813 0.83609 0.0
O255 O 0.86092 0.13783 0.80815 0.0
O256 O 0.83944 0.15839 0.77848 0.0
O257 O 0.8616 0.09895 0.86223 0.0
C258 C 0.86086 0.08136 0.78596 0.0
C259 C 0.85252 0.15856 0.79968 0.0
Zn260 Zn 0.61701 0.08306 0.51353 0.0
Zn261 Zn 0.6244 0.1378 0.56908 0.0
C262 C 0.59996 0.0968 0.46155 0.0
O263 O 0.58383 0.07872 0.46644 0.0
C264 C 0.64667 0.13958 0.62077 0.0
O265 O 0.64641 0.16374 0.61544 0.0
O266 O 0.62473 0.04714 0.50479 0.0
O267 O 0.64514 0.09769 0.53708 0.0
O268 O 0.65328 0.13761 0.54405 0.0
C269 C 0.64189 0.04177 0.4882 0.0
O270 O 0.65506 0.06003 0.47753 0.0
O271 O 0.61605 0.10246 0.47923 0.0
C272 C 0.59658 0.17853 0.59219 0.0
O273 O 0.58694 0.1606 0.60698 0.0
O274 O 0.61103 0.17261 0.57312 0.0
O275 O 0.60181 0.11402 0.55194 0.0
O276 O 0.58194 0.08509 0.53097 0.0
O277 O 0.63739 0.12433 0.60399 0.0
C278 C 0.65778 0.11736 0.53142 0.0
C279 C 0.5815 0.10274 0.54783 0.0
Zn280 Zn 0.66544 0.86836 0.26447 0.0
Zn281 Zn 0.61223 0.87583 0.32276 0.0
C282 C 0.64598 0.84957 0.21607 0.0
O283 O 0.66258 0.83196 0.22129 0.0
C284 C 0.61079 0.8996 0.37323 0.0
O285 O 0.58725 0.90243 0.36609 0.0
O286 O 0.70072 0.87426 0.25111 0.0
O287 O 0.65362 0.89735 0.28876 0.0
O288 O 0.61391 0.90497 0.29812 0.0
C289 C 0.7055 0.89121 0.23395 0.0
O290 O 0.68736 0.90623 0.22609 0.0
O291 O 0.64322 0.86752 0.23243 0.0
C292 C 0.56728 0.85346 0.34575 0.0
O293 O 0.58273 0.84629 0.36468 0.0
O294 O 0.57583 0.86513 0.32562 0.0
O295 O 0.63568 0.85221 0.30548 0.0
O296 O 0.66377 0.83339 0.28207 0.0
O297 O 0.62571 0.88791 0.35791 0.0
C298 C 0.6336 0.91012 0.28484 0.0
C299 C 0.64737 0.83218 0.30026 0.0
Zn300 Zn 0.86685 0.90649 0.03117 0.0
Zn301 Zn 0.86488 0.8531 0.05705 0.0
C302 C 0.89033 0.88611 0.98126 0.0
O303 O 0.91234 0.89234 0.99098 0.0
C304 C 0.83683 0.86064 0.1024 0.0
O305 O 0.82791 0.83989 0.09193 0.0
O306 O 0.86374 0.94297 0.02005 0.0
O307 O 0.83276 0.89667 0.04547 0.0
O308 O 0.83543 0.85713 0.03282 0.0
C309 C 0.84546 0.9468 0.00418 0.0
O310 O 0.83032 0.92801 -0.00119 0.0
O311 O 0.87073 0.889 0.9954 0.0
C312 C 0.88009 0.81393 0.09076 0.0
O313 O 0.89154 0.83328 0.10151 0.0
O314 O 0.86802 0.81705 0.06913 0.0
O315 O 0.89856 0.86235 0.04288 0.0
O316 O 0.89676 0.90137 0.05602 0.0
O317 O 0.8547 0.87203 0.09067 0.0
C318 C 0.8222 0.87644 0.03796 0.0
C319 C 0.90884 0.88085 0.05428 0.0
Zn320 Zn 0.59971 0.61856 0.81703 0.0
Zn321 Zn 0.65176 0.62499 0.75832 0.0
C322 C 0.60029 0.59545 0.86766 0.0
O323 O 0.57633 0.59392 0.86177 0.0
C324 C 0.63855 0.63998 0.70553 0.0
O325 O 0.65516 0.65741 0.71116 0.0
O326 O 0.565 0.63154 0.82291 0.0
O327 O 0.62192 0.64067 0.79721 0.0
O328 O 0.64929 0.6607 0.77431 0.0
C329 C 0.56054 0.64573 0.84266 0.0
O330 O 0.57948 0.65472 0.85642 0.0
O331 O 0.61498 0.6065 0.85153 0.0
C332 C 0.69416 0.5995 0.73605 0.0
O333 O 0.67661 0.58474 0.72648 0.0
O334 O 0.68791 0.61796 0.75063 0.0
O335 O 0.6388 0.59731 0.78385 0.0
O336 O 0.59944 0.58879 0.79338 0.0
O337 O 0.63311 0.62379 0.72325 0.0
C338 C 0.63265 0.6611 0.79224 0.0
C339 C 0.61931 0.58379 0.78031 0.0
Zn340 Zn 0.6236 0.36346 0.07614 0.0
Zn341 Zn 0.61393 0.41043 0.01139 0.0
C342 C 0.65341 0.36595 0.12029 0.0
O343 O 0.65754 0.34348 0.1104 0.0
C344 C 0.59928 0.39409 0.95968 0.0
O345 O 0.58157 0.41083 0.96382 0.0
O346 O 0.61113 0.32921 0.087 0.0
O347 O 0.59903 0.38342 0.05581 0.0
O348 O 0.57857 0.40617 0.02768 0.0
C349 C 0.60295 0.32619 0.11057 0.0
O350 O 0.5991 0.34606 0.12551 0.0
O351 O 0.63828 0.3806 0.10831 0.0
C352 C 0.63579 0.4536 0.98537 0.0
O353 O 0.65123 0.43661 0.97581 0.0
O354 O 0.61882 0.44683 0.00163 0.0
O355 O 0.6418 0.39834 0.03677 0.0
O356 O 0.65161 0.36025 0.04993 0.0
O357 O 0.61553 0.3902 0.97775 0.0
C358 C 0.57828 0.39224 0.04819 0.0
C359 C 0.65484 0.37841 0.03373 0.0
Zn360 Zn 0.88731 0.37573 0.31659 0.0
Zn361 Zn 0.82996 0.36456 0.26875 0.0
C362 C 0.88162 0.41725 0.34921 0.0
O363 O 0.89922 0.42455 0.33263 0.0
C364 C 0.86133 0.34998 0.22158 0.0
O365 O 0.87172 0.33185 0.23556 0.0
O366 O 0.92119 0.36421 0.32856 0.0
O367 O 0.86463 0.3491 0.30592 0.0
O368 O 0.83392 0.33004 0.28665 0.0
C369 C 0.92105 0.35673 0.3526 0.0
O370 O 0.89943 0.35359 0.36467 0.0
O371 O 0.87251 0.39534 0.34692 0.0
C372 C 0.78803 0.39054 0.24777 0.0
O373 O 0.80629 0.40475 0.23879 0.0
O374 O 0.79343 0.372 0.26274 0.0
O375 O 0.84626 0.39407 0.28856 0.0
O376 O 0.88702 0.39943 0.2861 0.0
O377 O 0.84487 0.36405 0.23215 0.0
C378 C 0.85257 0.32915 0.30226 0.0
C379 C 0.86503 0.40561 0.2786 0.0
Zn380 Zn 0.87058 0.62918 0.58202 0.0
Zn381 Zn 0.87756 0.58486 0.51529 0.0
C382 C 0.84088 0.62493 0.62631 0.0
O383 O 0.83809 0.64845 0.61887 0.0
C384 C 0.89624 0.60945 0.46844 0.0
O385 O 0.91633 0.59611 0.47404 0.0
O386 O 0.88419 0.66254 0.59477 0.0
O387 O 0.8951 0.6087 0.5613 0.0
O388 O 0.91287 0.58492 0.53179 0.0
C389 C 0.89275 0.66449 0.61835 0.0
O390 O 0.89584 0.64403 0.63265 0.0
O391 O 0.85531 0.61071 0.61298 0.0
C392 C 0.85292 0.5511 0.48076 0.0
O393 O 0.84297 0.57258 0.47336 0.0
O394 O 0.8683 0.55089 0.50017 0.0
O395 O 0.8522 0.59695 0.54267 0.0
O396 O 0.84206 0.63455 0.55639 0.0
O397 O 0.87771 0.60885 0.48433 0.0
C398 C 0.9148 0.59837 0.55259 0.0
C399 C 0.83888 0.61666 0.53996 0.0
Zn400 Zn 0.6079 0.37695 0.67175 0.0
Zn401 Zn 0.66264 0.36663 0.72546 0.0
C402 C 0.60582 0.41497 0.63464 0.0
O403 O 0.5879 0.42043 0.65164 0.0
C404 C 0.64703 0.34735 0.77642 0.0
O405 O 0.66584 0.33181 0.77252 0.0
O406 O 0.57334 0.36359 0.66761 0.0
O407 O 0.63273 0.35383 0.68577 0.0
O408 O 0.66189 0.33291 0.70524 0.0
C409 C 0.56742 0.35112 0.64705 0.0
O410 O 0.58522 0.34363 0.6308 0.0
O411 O 0.61834 0.39486 0.63806 0.0
C412 C 0.70132 0.391 0.75465 0.0
O413 O 0.68206 0.40372 0.76384 0.0
O414 O 0.69766 0.37406 0.73726 0.0
O415 O 0.64913 0.3973 0.70481 0.0
O416 O 0.60835 0.40266 0.70005 0.0
O417 O 0.64169 0.36338 0.75852 0.0
C418 C 0.64412 0.33335 0.68855 0.0
C419 C 0.62885 0.40843 0.71154 0.0
Zn420 Zn 0.86506 0.35576 0.92288 0.0
Zn421 Zn 0.86718 0.40956 0.97939 0.0
C422 C 0.84184 0.35774 0.87232 0.0
O423 O 0.8406 0.33344 0.87666 0.0
C424 C 0.88217 0.37828 0.02576 0.0
O425 O 0.90296 0.37288 0.01296 0.0
O426 O 0.87931 0.32145 0.91482 0.0
O427 O 0.88728 0.37928 0.94109 0.0
O428 O 0.90342 0.4084 0.96524 0.0
C429 C 0.89181 0.31835 0.89351 0.0
O430 O 0.89823 0.3382 0.87951 0.0
O431 O 0.85237 0.37178 0.88939 0.0
C432 C 0.84135 0.45055 0.00427 0.0
O433 O 0.82761 0.43208 0.01363 0.0
O434 O 0.8588 0.44557 0.98783 0.0
O435 O 0.84071 0.39469 0.95368 0.0
O436 O 0.83513 0.35431 0.94664 0.0
O437 O 0.86552 0.39181 0.01459 0.0
C438 C 0.90643 0.39161 0.9477 0.0
C439 C 0.82817 0.37462 0.95788 0.0
Zn440 Zn 0.87158 0.61713 0.17457 0.0
Zn441 Zn 0.8209 0.62668 0.23567 0.0
C442 C 0.8725 0.59101 0.12568 0.0
O443 O 0.89632 0.59013 0.13231 0.0
C444 C 0.86115 0.63448 0.27683 0.0
O445 O 0.87772 0.63788 0.25783 0.0
O446 O 0.90738 0.62812 0.16966 0.0
O447 O 0.84876 0.64005 0.19265 0.0
O448 O 0.82291 0.66109 0.21655 0.0
C449 C 0.91515 0.64122 0.15022 0.0
O450 O 0.89882 0.65155 0.13396 0.0
O451 O 0.8572 0.60255 0.14075 0.0
C452 C 0.78083 0.60227 0.26245 0.0
O453 O 0.79975 0.58821 0.27026 0.0
O454 O 0.78497 0.62008 0.2461 0.0
O455 O 0.83347 0.5956 0.21417 0.0
O456 O 0.87246 0.58961 0.20081 0.0
O457 O 0.83851 0.62955 0.27092 0.0
C458 C 0.83801 0.66065 0.19713 0.0
C459 C 0.85435 0.58383 0.21616 0.0
Zn460 Zn 0.62483 0.63882 0.441 0.0
Zn461 Zn 0.62227 0.58746 0.46654 0.0
C462 C 0.65315 0.62952 0.39609 0.0
O463 O 0.66204 0.65077 0.40538 0.0
C464 C 0.5989 0.60027 0.51662 0.0
O465 O 0.58533 0.5804 0.5109 0.0
O466 O 0.62113 0.67431 0.42727 0.0
O467 O 0.59102 0.62941 0.45459 0.0
O468 O 0.59422 0.59142 0.43894 0.0
C469 C 0.61014 0.67664 0.40488 0.0
O470 O 0.60027 0.65672 0.39357 0.0
O471 O 0.63549 0.61856 0.40855 0.0
C472 C 0.63854 0.55001 0.50097 0.0
O473 O 0.65224 0.56954 0.5076 0.0
O474 O 0.62376 0.55191 0.48112 0.0
O475 O 0.65777 0.59638 0.45564 0.0
O476 O 0.65398 0.63641 0.46607 0.0
O477 O 0.61472 0.60814 0.49958 0.0
C478 C 0.58148 0.61148 0.44156 0.0
C479 C 0.66764 0.61697 0.46319 0.0
Zn480 Zn 0.33334 0.3657 0.23584 0.0
Zn481 Zn 0.38257 0.37173 0.17251 0.0
C482 C 0.36886 0.35873 0.2805 0.0
O483 O 0.38602 0.35338 0.26262 0.0
C484 C 0.38139 0.40432 0.13027 0.0
O485 O 0.40437 0.40623 0.13958 0.0
O486 O 0.29637 0.37314 0.23997 0.0
O487 O 0.35023 0.39423 0.21358 0.0
O488 O 0.38904 0.39849 0.19926 0.0
C489 C 0.28924 0.39265 0.25247 0.0
O490 O 0.30616 0.40868 0.26078 0.0
O491 O 0.34686 0.36471 0.27307 0.0
C492 C 0.4166 0.34866 0.13607 0.0
O493 O 0.39608 0.34768 0.12159 0.0
O494 O 0.41501 0.35593 0.16014 0.0
O495 O 0.36004 0.35059 0.19316 0.0
O496 O 0.33656 0.33009 0.22007 0.0
O497 O 0.36621 0.38936 0.14163 0.0
C498 C 0.37177 0.4047 0.21558 0.0
C499 C 0.35081 0.32987 0.19997 0.0
Zn500 Zn 0.37136 0.58462 0.97943 0.0
Zn501 Zn 0.36462 0.6394 0.92113 0.0
C502 C 0.38374 0.61529 0.02651 0.0
O503 O 0.40537 0.6199 0.015 0.0
C504 C 0.3456 0.64018 0.86821 0.0
O505 O 0.34511 0.66432 0.87351 0.0
O506 O 0.36555 0.54782 0.98649 0.0
O507 O 0.34651 0.5999 0.95311 0.0
O508 O 0.33425 0.63835 0.94442 0.0
C509 C 0.34927 0.54138 0.00369 0.0
O510 O 0.33503 0.55876 0.01445 0.0
O511 O 0.3675 0.60197 0.01455 0.0
C512 C 0.39313 0.68129 0.90069 0.0
O513 O 0.40528 0.6637 0.88764 0.0
O514 O 0.37645 0.67489 0.9174 0.0
O515 O 0.38838 0.61744 0.94063 0.0
O516 O 0.40724 0.58982 0.96523 0.0
O517 O 0.35432 0.6251 0.88558 0.0
C518 C 0.33204 0.61834 0.95812 0.0
C519 C 0.40852 0.60702 0.94772 0.0
Zn520 Zn 0.15556 0.62808 0.74026 0.0
Zn521 Zn 0.11469 0.62049 0.67041 0.0
C522 C 0.12208 0.63446 0.78735 0.0
O523 O 0.10659 0.64659 0.77152 0.0
C524 C 0.12011 0.5902 0.62704 0.0
O525 O 0.09656 0.58753 0.63418 0.0
O526 O 0.19315 0.62448 0.74399 0.0
O527 O 0.1427 0.59811 0.71653 0.0
O528 O 0.10676 0.59256 0.69546 0.0
C529 C 0.2029 0.60535 0.75516 0.0
O530 O 0.18825 0.58704 0.76311 0.0
O531 O 0.14227 0.62535 0.7779 0.0
C532 C 0.08048 0.64231 0.63234 0.0
O533 O 0.1008 0.64357 0.61762 0.0
O534 O 0.08242 0.63553 0.65657 0.0
O535 O 0.13374 0.64109 0.69496 0.0
O536 O 0.14972 0.66411 0.72523 0.0
O537 O 0.13418 0.60474 0.64044 0.0
C538 C 0.12161 0.58669 0.71447 0.0
C539 C 0.139 0.66282 0.70281 0.0
Zn540 Zn 0.11969 0.40876 0.48161 0.0
Zn541 Zn 0.12515 0.3601 0.41901 0.0
C542 C 0.10451 0.38054 0.52881 0.0
O543 O 0.08167 0.38429 0.51979 0.0
C544 C 0.15123 0.36324 0.37175 0.0
O545 O 0.15631 0.34045 0.38029 0.0
O546 O 0.12699 0.44456 0.49145 0.0
O547 O 0.14563 0.39704 0.45403 0.0
O548 O 0.15535 0.35859 0.44236 0.0
C549 C 0.14472 0.44937 0.50763 0.0
O550 O 0.15837 0.43078 0.51701 0.0
O551 O 0.12311 0.38835 0.5153 0.0
C552 C 0.10375 0.32152 0.38702 0.0
O553 O 0.09817 0.34104 0.37208 0.0
O554 O 0.11332 0.32514 0.40991 0.0
O555 O 0.10164 0.38085 0.44004 0.0
O556 O 0.08338 0.40602 0.46746 0.0
O557 O 0.137 0.37727 0.38556 0.0
C558 C 0.15982 0.37787 0.45658 0.0
C559 C 0.08156 0.39073 0.44821 0.0
Zn560 Zn 0.32328 0.62192 0.26681 0.0
Zn561 Zn 0.3834 0.61641 0.31508 0.0
C562 C 0.35738 0.63802 0.22195 0.0
O563 O 0.36837 0.65479 0.23716 0.0
C564 C 0.38747 0.59209 0.36597 0.0
O565 O 0.41142 0.5918 0.35985 0.0
O566 O 0.28751 0.61313 0.25636 0.0
O567 O 0.34018 0.5923 0.28726 0.0
O568 O 0.38152 0.58869 0.28911 0.0
C569 C 0.28573 0.59474 0.24027 0.0
O570 O 0.30597 0.58146 0.2352 0.0
O571 O 0.34013 0.6242 0.23137 0.0
C572 C 0.42464 0.64304 0.33806 0.0
O573 O 0.40667 0.65198 0.35324 0.0
O574 O 0.41873 0.62946 0.31824 0.0
O575 O 0.35718 0.63815 0.30137 0.0
O576 O 0.32484 0.65669 0.28529 0.0
O577 O 0.37192 0.60212 0.34999 0.0
C578 C 0.36049 0.58162 0.27962 0.0
C579 C 0.34429 0.65785 0.29972 0.0
Zn580 Zn 0.11775 0.58621 0.03169 0.0
Zn581 Zn 0.12548 0.63725 0.06341 0.0
C582 C 0.09534 0.60714 0.98268 0.0
O583 O 0.07521 0.59437 0.98931 0.0
C584 C 0.15845 0.62373 0.10251 0.0
O585 O 0.16904 0.64236 0.08956 0.0
O586 O 0.11628 0.55103 0.01665 0.0
O587 O 0.15337 0.59198 0.04422 0.0
O588 O 0.15238 0.63274 0.03617 0.0
C589 C 0.13371 0.54446 0.00078 0.0
O590 O 0.1525 0.55994 0.99666 0.0
O591 O 0.11386 0.60781 -0.00133 0.0
C592 C 0.11509 0.67536 0.10032 0.0
O593 O 0.10471 0.65584 0.11194 0.0
O594 O 0.12522 0.67263 0.07756 0.0
O595 O 0.09073 0.63128 0.05067 0.0
O596 O 0.08944 0.59097 0.05866 0.0
O597 O 0.13677 0.6163 0.09528 0.0
C598 C 0.16457 0.61222 0.03776 0.0
C599 C 0.07928 0.61252 0.06012 0.0
Zn600 Zn 0.16364 0.37092 0.76938 0.0
Zn601 Zn 0.10667 0.37929 0.82101 0.0
C602 C 0.12971 0.35777 0.72371 0.0
O603 O 0.11315 0.34875 0.74053 0.0
C604 C 0.10513 0.41708 0.85913 0.0
O605 O 0.08342 0.41952 0.84696 0.0
O606 O 0.19959 0.38068 0.76245 0.0
O607 O 0.14508 0.39937 0.78883 0.0
O608 O 0.10414 0.40282 0.79042 0.0
C609 C 0.2019 0.39914 0.74653 0.0
O610 O 0.18173 0.41203 0.74012 0.0
O611 O 0.14997 0.36729 0.73237 0.0
C612 C 0.07038 0.36169 0.8569 0.0
O613 O 0.09047 0.36207 0.87205 0.0
O614 O 0.07268 0.36615 0.83216 0.0
O615 O 0.13097 0.3536 0.80951 0.0
O616 O 0.16171 0.33661 0.7879 0.0
O617 O 0.12027 0.40019 0.85124 0.0
C618 C 0.12489 0.40928 0.77999 0.0
C619 C 0.14438 0.33452 0.80505 0.0
Zn620 Zn 0.376 0.41566 0.51925 0.0
Zn621 Zn 0.36508 0.35906 0.57021 0.0
C622 C 0.39702 0.38992 0.47247 0.0
O623 O 0.41913 0.3964 0.48175 0.0
C624 C 0.32639 0.36298 0.60724 0.0
O625 O 0.3166 0.34818 0.5891 0.0
O626 O 0.37093 0.45164 0.50906 0.0
O627 O 0.34476 0.4025 0.5393 0.0
O628 O 0.33924 0.36145 0.54208 0.0
C629 C 0.35309 0.45785 0.4936 0.0
O630 O 0.33715 0.44057 0.48574 0.0
O631 O 0.37737 0.39595 0.48527 0.0
C632 C 0.39211 0.31781 0.59227 0.0
O633 O 0.40115 0.3354 0.6079 0.0
O634 O 0.37756 0.32402 0.57337 0.0
O635 O 0.38904 0.38317 0.55709 0.0
O636 O 0.41 0.41273 0.5386 0.0
O637 O 0.34893 0.37029 0.60452 0.0
C638 C 0.33338 0.38255 0.53181 0.0
C639 C 0.40962 0.39425 0.55439 0.0
H640 H 0.20942 0.06115 0.20564 0.0
H641 H 0.34052 0.11399 0.15435 0.0
H642 H 0.25158 0.11527 0.25127 0.0
H643 H 0.27634 0.1032 0.1032 0.0
H644 H 0.31473 0.1014 0.19278 0.0
H645 H 0.24145 0.06294 0.17082 0.0
C646 C 0.22581 0.07282 0.20872 0.0
C647 C 0.22786 0.08825 0.23124 0.0
C648 C 0.30655 0.10148 0.17303 0.0
C649 C 0.26443 0.09016 0.19169 0.0
C650 C 0.32117 0.10853 0.15118 0.0
C651 C 0.31039 0.10975 0.12572 0.0
C652 C 0.28131 0.09503 0.16908 0.0
C653 C 0.28525 0.10268 0.12259 0.0
C654 C 0.24392 0.07393 0.18877 0.0
C655 C 0.24931 0.10325 0.23406 0.0
N656 N 0.27153 0.09558 0.14404 0.0
N657 N 0.2668 0.10394 0.21439 0.0
H658 H 0.13954 0.03292 0.36374 0.0
H659 H 0.12628 -0.00176 0.51111 0.0
H660 H 0.13129 0.09355 0.41982 0.0
H661 H 0.18007 0.96009 0.46116 0.0
H662 H 0.12689 0.03394 0.48006 0.0
H663 H 0.15266 0.00521 0.40007 0.0
C664 C 0.14092 0.0404 0.38375 0.0
C665 C 0.13463 0.06539 0.38901 0.0
C666 C 0.13899 0.01796 0.47638 0.0
C667 C 0.14884 0.03387 0.4306 0.0
C668 C 0.13866 -0.0024 0.49404 0.0
C669 C 0.15263 0.97587 0.48834 0.0
C670 C 0.15302 0.01621 0.45282 0.0
C671 C 0.16853 0.97618 0.46606 0.0
C672 C 0.14847 0.0247 0.4044 0.0
C673 C 0.13635 0.07434 0.41518 0.0
N674 N 0.16779 0.99573 0.44875 0.0
N675 N 0.14283 0.05838 0.43528 0.0
H676 H 0.25091 0.84965 0.74258 0.0
H677 H 0.16322 0.90216 0.62576 0.0
H678 H 0.26319 0.92099 0.70375 0.0
H679 H 0.16424 0.82551 0.65375 0.0
H680 H 0.1926 0.91349 0.66161 0.0
H681 H 0.21173 0.84511 0.71793 0.0
C682 C 0.24525 0.8645 0.72907 0.0
C683 C 0.26064 0.88545 0.72478 0.0
C684 C 0.18602 0.8943 0.66011 0.0
C685 C 0.21586 0.88028 0.69629 0.0
C686 C 0.1692 0.88788 0.6398 0.0
C687 C 0.16166 0.86281 0.63667 0.0
C688 C 0.195 0.87552 0.67742 0.0
C689 C 0.16994 0.84498 0.65526 0.0
C690 C 0.22286 0.8619 0.71499 0.0
C691 C 0.25208 0.90433 0.70739 0.0
N692 N 0.18629 0.85163 0.67469 0.0
N693 N 0.23042 0.90112 0.69344 0.0
H694 H 0.40557 0.91138 0.91282 0.0
H695 H 0.32057 0.02781 0.94498 0.0
H696 H 0.3354 0.92426 0.87218 0.0
H697 H 0.3774 5e-05 -0.00112 0.0
H698 H 0.32268 0.98819 0.92049 0.0
H699 H 0.39305 0.94136 0.94702 0.0
C700 C 0.38732 0.92028 0.91139 0.0
C701 C 0.37159 0.91562 0.8896 0.0
C702 C 0.33433 0.99059 0.93798 0.0
C703 C 0.35733 0.95039 0.92826 0.0
C704 C 0.33319 0.01324 0.95195 0.0
C705 C 0.34926 0.01747 0.97366 0.0
C706 C 0.35184 0.9722 0.94564 0.0
C707 C 0.36501 -0.00219 0.98195 0.0
C708 C 0.38013 0.93736 0.93092 0.0
C709 C 0.34806 0.92743 0.88871 0.0
N710 N 0.3662 0.97621 0.96767 0.0
N711 N 0.34183 0.94474 0.9075 0.0
H712 H 0.32799 0.90864 0.37456 0.0
H713 H 0.24747 0.86542 0.24803 0.0
H714 H 0.33494 0.83698 0.33541 0.0
H715 H 0.22663 0.9273 0.2989 0.0
H716 H 0.28705 0.86164 0.27231 0.0
H717 H 0.29865 0.92226 0.33946 0.0
C718 C 0.324 0.89613 0.3581 0.0
C719 C 0.33369 0.87161 0.35788 0.0
C720 C 0.27395 0.87626 0.27795 0.0
C721 C 0.30014 0.88683 0.31806 0.0
C722 C 0.25133 0.87845 0.26406 0.0
C723 C 0.23341 0.89638 0.27174 0.0
C724 C 0.27877 0.89205 0.29978 0.0
C725 C 0.2397 0.91296 0.29249 0.0
C726 C 0.30709 0.90378 0.33825 0.0
C727 C 0.3277 0.85598 0.33635 0.0
N728 N 0.26169 0.91018 0.30602 0.0
N729 N 0.31115 0.86374 0.31747 0.0
H730 H 0.33754 0.00241 0.50339 0.0
H731 H 0.40414 0.0274 0.64396 0.0
H732 H 0.3905 0.95242 0.54136 0.0
H733 H 0.36043 0.08437 0.60381 0.0
H734 H 0.39569 -0.00139 0.60761 0.0
H735 H 0.34257 0.0319 0.54075 0.0
C736 C 0.35023 -0.00232 0.5195 0.0
C737 C 0.36387 0.97509 0.51909 0.0
C738 C 0.38794 0.0174 0.60661 0.0
C739 C 0.36937 0.00835 0.56185 0.0
C740 C 0.39278 0.0339 0.62742 0.0
C741 C 0.38318 0.05841 0.62681 0.0
C742 C 0.37346 0.0254 0.5848 0.0
C743 C 0.36828 0.06563 0.60499 0.0
C744 C 0.35306 0.01447 0.54078 0.0
C745 C 0.37992 0.96979 0.54054 0.0
N746 N 0.36395 0.0492 0.58472 0.0
N747 N 0.38214 0.98622 0.56098 0.0
H748 H 0.17687 0.17083 0.84881 0.0
H749 H 0.26865 0.07321 0.78466 0.0
H750 H 0.16956 0.09163 0.86549 0.0
H751 H 0.25144 0.1447 0.74815 0.0
H752 H 0.23191 0.07809 0.81344 0.0
H753 H 0.20416 0.16094 0.81141 0.0
C754 C 0.1809 0.15131 0.84443 0.0
C755 C 0.17119 0.13201 0.86032 0.0
C756 C 0.23595 0.09244 0.79875 0.0
C757 C 0.20256 0.12052 0.81766 0.0
C758 C 0.25692 0.0897 0.78233 0.0
C759 C 0.26343 0.10884 0.76435 0.0
C760 C 0.22169 0.11459 0.79732 0.0
C761 C 0.24741 0.12966 0.76202 0.0
C762 C 0.19634 0.14565 0.82297 0.0
C763 C 0.17677 0.10703 0.85366 0.0
N764 N 0.22755 0.13219 0.77866 0.0
N765 N 0.1925 0.10197 0.83302 0.0
H766 H 0.0885 0.90558 0.0739 0.0
H767 H 0.17346 0.02348 0.0447 0.0
H768 H 0.15722 0.92012 0.11666 0.0
H769 H 0.11441 -0.00135 0.99206 0.0
H770 H 0.17116 0.98332 0.06818 0.0
H771 H 0.10074 0.93654 0.04057 0.0
C772 C 0.1064 0.915 0.07601 0.0
C773 C 0.1217 0.91057 0.09825 0.0
C774 C 0.15901 0.98647 0.05119 0.0
C775 C 0.13566 0.9464 0.06043 0.0
C776 C 0.1603 0.00943 0.03777 0.0
C777 C 0.14375 0.01464 0.0167 0.0
C778 C 0.14092 0.9687 0.0436 0.0
C779 C 0.12724 0.99564 0.00848 0.0
C780 C 0.1134 0.93269 0.05696 0.0
C781 C 0.14479 0.92311 0.09988 0.0
N782 N 0.12598 0.97368 0.0222 0.0
N783 N 0.15087 0.94085 0.08148 0.0
H784 H 0.74943 0.86411 0.73717 0.0
H785 H 0.66516 0.91582 0.85487 0.0
H786 H 0.76913 0.92739 0.7866 0.0
H787 H 0.64563 0.85177 0.80649 0.0
H788 H 0.69813 0.92648 0.82321 0.0
H789 H 0.70697 0.86533 0.75539 0.0
C790 C 0.74475 0.87846 0.75161 0.0
C791 C 0.76304 0.89527 0.76088 0.0
C792 C 0.68636 0.91034 0.81923 0.0
C793 C 0.71453 0.89666 0.78195 0.0
C794 C 0.66747 0.90427 0.8373 0.0
C795 C 0.65303 0.8825 0.83367 0.0
C796 C 0.69103 0.89438 0.79754 0.0
C797 C 0.65658 0.86849 0.81032 0.0
C798 C 0.72048 0.87918 0.76198 0.0
C799 C 0.75578 0.91376 0.77923 0.0
N800 N 0.67558 0.87438 0.79341 0.0
N801 N 0.73222 0.91369 0.7895 0.0
H802 H 0.81923 0.03063 0.54423 0.0
H803 H 0.86787 0.89366 0.58371 0.0
H804 H 0.86704 0.9879 0.49169 0.0
H805 H 0.86075 0.95563 0.63836 0.0
H806 H 0.85383 0.92158 0.54719 0.0
H807 H 0.81977 0.99579 0.57578 0.0
C808 C 0.82938 0.01371 0.53898 0.0
C809 C 0.84362 0.01239 0.51552 0.0
C810 C 0.85495 0.92878 0.56732 0.0
C811 C 0.84405 0.97243 0.55155 0.0
C812 C 0.86281 0.91294 0.58804 0.0
C813 C 0.86558 0.92259 0.61383 0.0
C814 C 0.84925 0.95402 0.57286 0.0
C815 C 0.85903 0.94765 0.61861 0.0
C816 C 0.8297 0.99387 0.55707 0.0
C817 C 0.85621 0.98984 0.50978 0.0
N818 N 0.85117 0.96252 0.59832 0.0
N819 N 0.85639 0.97076 0.52788 0.0
H820 H 0.69341 0.0813 0.31418 0.0
H821 H 0.83589 0.11289 0.34844 0.0
H822 H 0.74382 0.11076 0.25463 0.0
H823 H 0.77439 0.12501 0.40274 0.0
H824 H 0.80558 0.09993 0.31405 0.0
H825 H 0.72708 0.08399 0.34711 0.0
C826 C 0.71172 0.08781 0.30788 0.0
C827 C 0.7158 0.09621 0.28176 0.0
C828 C 0.79889 0.10526 0.3336 0.0
C829 C 0.75421 0.09918 0.31925 0.0
C830 C 0.81606 0.1126 0.35313 0.0
C831 C 0.80747 0.12023 0.37825 0.0
C832 C 0.7732 0.10499 0.33963 0.0
C833 C 0.78168 0.11956 0.38347 0.0
C834 C 0.73082 0.08946 0.32671 0.0
C835 C 0.73988 0.10447 0.2747 0.0
N836 N 0.76543 0.11199 0.36433 0.0
N837 N 0.75824 0.10591 0.29344 0.0
H838 H 0.67078 0.9632 0.04341 0.0
H839 H 0.58315 0.07275 0.08406 0.0
H840 H 0.60884 0.98679 0.99381 0.0
H841 H 0.66025 0.07107 0.11017 0.0
H842 H 0.59341 0.0429 0.04894 0.0
H843 H 0.66937 0.00377 0.06612 0.0
C844 C 0.65716 0.97707 0.03697 0.0
C845 C 0.63951 0.97141 0.0171 0.0
C846 C 0.60825 0.04941 0.06196 0.0
C847 C 0.63771 0.01767 0.04312 0.0
C848 C 0.60236 0.06634 0.08207 0.0
C849 C 0.62085 0.07404 0.10011 0.0
C850 C 0.63264 0.03956 0.06038 0.0
C851 C 0.64548 0.06542 0.09662 0.0
C852 C 0.65647 0.00026 0.04986 0.0
C853 C 0.62254 0.99021 0.00931 0.0
N854 N 0.65059 0.04811 0.07747 0.0
N855 N 0.62171 0.01232 0.02273 0.0
H856 H 0.76805 0.07033 0.70164 0.0
H857 H 0.65986 0.16565 0.66523 0.0
H858 H 0.7509 0.13621 0.7483 0.0
H859 H 0.66648 0.0926 0.62874 0.0
H860 H 0.68979 0.15268 0.69936 0.0
H861 H 0.72811 0.07529 0.67828 0.0
C862 C 0.75573 0.08562 0.70727 0.0
C863 C 0.76308 0.10321 0.72657 0.0
C864 C 0.68443 0.1393 0.68416 0.0
C865 C 0.71742 0.10906 0.69979 0.0
C866 C 0.66736 0.14673 0.66464 0.0
C867 C 0.66102 0.13031 0.64391 0.0
C868 C 0.69564 0.11544 0.68265 0.0
C869 C 0.67103 0.10591 0.64429 0.0
C870 C 0.73289 0.08841 0.69394 0.0
C871 C 0.74622 0.12246 0.73323 0.0
N872 N 0.68825 0.09935 0.66306 0.0
N873 N 0.72437 0.12509 0.71958 0.0
H874 H 0.67363 0.02417 0.4495 0.0
H875 H 0.58486 0.91214 0.41779 0.0
H876 H 0.61523 0.00029 0.50337 0.0
H877 H 0.65792 0.91837 0.38157 0.0
H878 H 0.59794 0.94167 0.45221 0.0
H879 H 0.6712 0.98348 0.42715 0.0
C880 C 0.66062 0.01023 0.45695 0.0
C881 C 0.64414 0.01587 0.4779 0.0
C882 C 0.61134 0.93623 0.43708 0.0
C883 C 0.64118 0.96942 0.45233 0.0
C884 C 0.60383 0.91943 0.41741 0.0
C885 C 0.62023 0.91317 0.39668 0.0
C886 C 0.63517 0.94738 0.43557 0.0
C887 C 0.64468 0.92289 0.39719 0.0
C888 C 0.6593 0.98696 0.44423 0.0
C889 C 0.62791 -0.00304 0.48692 0.0
N890 N 0.65126 0.94002 0.41599 0.0
N891 N 0.62649 0.97476 0.47375 0.0
H892 H 0.82029 0.90836 0.11337 0.0
H893 H 0.7454 0.85951 0.24149 0.0
H894 H 0.82585 0.83376 0.14629 0.0
H895 H 0.72172 0.9235 0.19484 0.0
H896 H 0.783 0.85624 0.21405 0.0
H897 H 0.79221 0.92016 0.15033 0.0
C898 C 0.81621 0.89478 0.12885 0.0
C899 C 0.82522 0.87009 0.12695 0.0
C900 C 0.76972 0.8712 0.21002 0.0
C901 C 0.79331 0.88321 0.16878 0.0
C902 C 0.74824 0.87312 0.22572 0.0
C903 C 0.7301 0.89153 0.22018 0.0
C904 C 0.7732 0.88781 0.18859 0.0
C905 C 0.73502 0.90878 0.19961 0.0
C906 C 0.80006 0.90139 0.14972 0.0
C907 C 0.81914 0.85296 0.14711 0.0
N908 N 0.75597 0.90633 0.18434 0.0
N909 N 0.80347 0.85979 0.16709 0.0
H910 H 0.84736 0.03292 0.86431 0.0
H911 H 0.87109 0.99139 0.01089 0.0
H912 H 0.8693 0.0881 0.92248 0.0
H913 H 0.8151 0.95578 0.96158 0.0
H914 H 0.87121 0.0274 0.98015 0.0
H915 H 0.83576 0.00424 0.90024 0.0
C916 C 0.84916 0.03913 0.88477 0.0
C917 C 0.85902 0.06282 0.89062 0.0
C918 C 0.8586 0.01185 0.97643 0.0
C919 C 0.8467 0.02993 0.93182 0.0
C920 C 0.8586 0.99128 0.99387 0.0
C921 C 0.84337 0.97035 0.98858 0.0
C922 C 0.84367 0.01114 0.95337 0.0
C923 C 0.82737 0.97132 0.96636 0.0
C924 C 0.84258 0.02281 0.90526 0.0
C925 C 0.86146 0.06999 0.91735 0.0
N926 N 0.8283 0.99111 0.94934 0.0
N927 N 0.85578 0.05336 0.93711 0.0
H928 H 0.73485 0.62673 0.75217 0.0
H929 H 0.82083 0.57791 0.63295 0.0
H930 H 0.71333 0.56648 0.69939 0.0
H931 H 0.82659 0.6507 0.67006 0.0
H932 H 0.78905 0.56599 0.66614 0.0
H933 H 0.77618 0.62747 0.73143 0.0
C934 C 0.73891 0.61341 0.73646 0.0
C935 C 0.72039 0.59697 0.727 0.0
C936 C 0.7977 0.58436 0.66728 0.0
C937 C 0.76764 0.59782 0.70315 0.0
C938 C 0.81586 0.59109 0.64849 0.0
C939 C 0.82591 0.61542 0.64867 0.0
C940 C 0.79001 0.60202 0.68639 0.0
C941 C 0.8189 0.63189 0.66907 0.0
C942 C 0.76252 0.61385 0.72464 0.0
C943 C 0.72691 0.5798 0.70695 0.0
N944 N 0.80123 0.62497 0.68699 0.0
N945 N 0.74992 0.58094 0.69535 0.0
H946 H 0.64799 0.57735 0.87541 0.0
H947 H 0.6044 0.49247 -0.00173 0.0
H948 H 0.57476 0.58058 0.91177 0.0
H949 H 0.66678 0.47365 0.94725 0.0
H950 H 0.5999 0.53238 0.97473 0.0
H951 H 0.66114 0.54698 0.90953 0.0
C952 C 0.63488 0.57211 0.89092 0.0
C953 C 0.61013 0.58116 0.8906 0.0
C954 C 0.61477 0.51964 0.96892 0.0
C955 C 0.625 0.54661 0.92948 0.0
C956 C 0.61739 0.49685 0.98236 0.0
C957 C 0.63564 0.47942 0.97434 0.0
C958 C 0.63052 0.52509 0.94729 0.0
C959 C 0.65217 0.48634 0.95384 0.0
C960 C 0.64235 0.55471 0.91026 0.0
C961 C 0.59389 0.57376 0.91109 0.0
N962 N 0.64901 0.50852 0.94076 0.0
N963 N 0.60154 0.55676 0.92956 0.0
H964 H 0.66652 0.3358 0.1613 0.0
H965 H 0.77085 0.42612 0.21267 0.0
H966 H 0.67023 0.41275 0.13464 0.0
H967 H 0.74725 0.36039 0.25642 0.0
H968 H 0.73208 0.42421 0.18671 0.0
H969 H 0.69375 0.3462 0.19866 0.0
C970 C 0.67288 0.35502 0.16358 0.0
C971 C 0.66649 0.37341 0.1448 0.0
C972 C 0.73514 0.41055 0.2024 0.0
C973 C 0.69799 0.38542 0.18724 0.0
C974 C 0.7573 0.41158 0.21721 0.0
C975 C 0.76259 0.39298 0.23629 0.0
C976 C 0.71837 0.39062 0.20652 0.0
C977 C 0.7442 0.37483 0.24155 0.0
C978 C 0.68831 0.36099 0.18498 0.0
C979 C 0.6749 0.39806 0.14875 0.0
N980 N 0.72314 0.3738 0.22637 0.0
N981 N 0.69074 0.40328 0.16929 0.0
H982 H 0.83298 0.54959 0.4309 0.0
H983 H 0.86333 0.40652 0.39901 0.0
H984 H 0.86594 0.50194 0.49125 0.0
H985 H 0.8789 0.46782 0.34523 0.0
H986 H 0.85061 0.43731 0.43318 0.0
H987 H 0.83486 0.51473 0.39953 0.0
C988 C 0.84015 0.53166 0.43777 0.0
C989 C 0.84983 0.5288 0.4636 0.0
C990 C 0.8566 0.44382 0.41376 0.0
C991 C 0.85171 0.48888 0.42779 0.0
C992 C 0.86375 0.42639 0.39434 0.0
C993 C 0.8723 0.4348 0.36947 0.0
C994 C 0.85739 0.46955 0.40774 0.0
C995 C 0.87265 0.46064 0.36429 0.0
C996 C 0.84126 0.51184 0.41979 0.0
C997 C 0.85871 0.50502 0.47136 0.0
N998 N 0.8652 0.47712 0.38324 0.0
N999 N 0.85965 0.48591 0.45339 0.0
H1000 H 0.71425 0.41888 0.79845 0.0
H1001 H 0.8336 0.33684 0.82391 0.0
H1002 H 0.74527 0.36903 0.73922 0.0
H1003 H 0.81782 0.40304 0.87042 0.0
H1004 H 0.80382 0.35129 0.79027 0.0
H1005 H 0.75385 0.41678 0.82296 0.0
C1006 C 0.72953 0.40788 0.79033 0.0
C1007 C 0.72628 0.39363 0.76707 0.0
C1008 C 0.80718 0.36296 0.80755 0.0
C1009 C 0.77149 0.39108 0.79503 0.0
C1010 C 0.82412 0.35466 0.82675 0.0
C1011 C 0.82784 0.36866 0.84996 0.0
C1012 C 0.79334 0.38503 0.81204 0.0
C1013 C 0.81534 0.39171 0.85272 0.0
C1014 C 0.75216 0.40674 0.80431 0.0
C1015 C 0.74677 0.37989 0.75736 0.0
N1016 N 0.79815 0.39895 0.83422 0.0
N1017 N 0.76836 0.37862 0.77162 0.0
H1018 H 0.89905 0.5782 0.0817 0.0
H1019 H 0.80971 0.46657 0.04386 0.0
H1020 H 0.82621 0.56969 0.11787 0.0
H1021 H 0.8697 0.49204 0.99288 0.0
H1022 H 0.81311 0.50556 0.06933 0.0
H1023 H 0.88695 0.54833 0.04725 0.0
C1024 C 0.88034 0.57027 0.08213 0.0
C1025 C 0.86367 0.57621 0.10273 0.0
C1026 C 0.82518 0.50282 0.05225 0.0
C1027 C 0.8498 0.54162 0.06364 0.0
C1028 C 0.82328 0.48054 0.03769 0.0
C1029 C 0.83979 0.4758 0.0165 0.0
C1030 C 0.8439 0.52031 0.04571 0.0
C1031 C 0.85685 0.49468 0.00931 0.0
C1032 C 0.8734 0.55326 0.06242 0.0
C1033 C 0.83961 0.56555 0.1023 0.0
N1034 N 0.85874 0.51589 0.02416 0.0
N1035 N 0.83353 0.54835 0.08332 0.0
H1036 H 0.73818 0.62977 0.25328 0.0
H1037 H 0.67124 0.58216 0.38652 0.0
H1038 H 0.76732 0.56976 0.30236 0.0
H1039 H 0.66022 0.65475 0.35026 0.0
H1040 H 0.69768 0.56989 0.34841 0.0
H1041 H 0.70059 0.63097 0.28102 0.0
C1042 C 0.73653 0.61658 0.26963 0.0
C1043 C 0.7562 0.60006 0.27587 0.0
C1044 C 0.68892 0.58826 0.34854 0.0
C1045 C 0.71327 0.60145 0.30778 0.0
C1046 C 0.67375 0.59515 0.3701 0.0
C1047 C 0.66377 0.61948 0.37135 0.0
C1048 C 0.69368 0.6058 0.32817 0.0
C1049 C 0.66774 0.63585 0.34994 0.0
C1050 C 0.71507 0.6173 0.28548 0.0
C1051 C 0.7528 0.58312 0.29708 0.0
N1052 N 0.68251 0.62878 0.32931 0.0
N1053 N 0.73193 0.58451 0.31256 0.0
H1054 H 0.6304 0.40675 0.58707 0.0
H1055 H 0.64504 0.55123 0.55436 0.0
H1056 H 0.59611 0.4649 0.63459 0.0
H1057 H 0.62768 0.50037 0.4901 0.0
H1058 H 0.63888 0.51704 0.58612 0.0
H1059 H 0.64038 0.43862 0.55286 0.0
C1060 C 0.62504 0.42615 0.5903 0.0
C1061 C 0.61231 0.43323 0.61359 0.0
C1062 C 0.63669 0.51332 0.56504 0.0
C1063 C 0.62406 0.46939 0.57521 0.0
C1064 C 0.64033 0.53273 0.54689 0.0
C1065 C 0.63679 0.52858 0.51957 0.0
C1066 C 0.63 0.48941 0.55585 0.0
C1067 C 0.63041 0.50429 0.51104 0.0
C1068 C 0.63063 0.44418 0.57082 0.0
C1069 C 0.60577 0.45857 0.61687 0.0
N1070 N 0.62729 0.48546 0.52918 0.0
N1071 N 0.61193 0.47575 0.59803 0.0
H1072 H 0.16177 0.33632 0.32758 0.0
H1073 H 0.26957 0.42784 0.28632 0.0
H1074 H 0.16894 0.41048 0.36112 0.0
H1075 H 0.24939 0.36207 0.24089 0.0
H1076 H 0.22935 0.42552 0.30934 0.0
H1077 H 0.18951 0.34856 0.29129 0.0
C1078 C 0.16891 0.35537 0.32696 0.0
C1079 C 0.16348 0.37234 0.34743 0.0
C1080 C 0.23346 0.41193 0.29392 0.0
C1081 C 0.19573 0.38635 0.30641 0.0
C1082 C 0.25647 0.41321 0.28075 0.0
C1083 C 0.26313 0.39471 0.26212 0.0
C1084 C 0.21712 0.3919 0.28854 0.0
C1085 C 0.24528 0.3764 0.25553 0.0
C1086 C 0.18471 0.3624 0.30623 0.0
C1087 C 0.17287 0.39686 0.34567 0.0
N1088 N 0.22329 0.37519 0.26908 0.0
N1089 N 0.18909 0.403 0.32581 0.0
H1090 H 0.33386 0.41856 0.11534 0.0
H1091 H 0.38484 0.50486 0.99673 0.0
H1092 H 0.41173 0.42512 0.09299 0.0
H1093 H 0.31558 0.52021 0.03816 0.0
H1094 H 0.39014 0.4669 0.02352 0.0
H1095 H 0.32278 0.44784 0.07922 0.0
C1096 C 0.34853 0.42588 0.10261 0.0
C1097 C 0.37375 0.41972 0.10726 0.0
C1098 C 0.37359 0.4784 0.02643 0.0
C1099 C 0.36127 0.45269 0.06605 0.0
C1100 C 0.37047 0.49999 0.01105 0.0
C1101 C 0.34997 0.51597 0.01557 0.0
C1102 C 0.35601 0.47264 0.04631 0.0
C1103 C 0.33188 0.50861 0.03434 0.0
C1104 C 0.34222 0.44257 0.08212 0.0
C1105 C 0.39208 0.42967 0.09027 0.0
N1106 N 0.33545 0.48758 0.04927 0.0
N1107 N 0.38548 0.44571 0.07047 0.0
H1108 H 0.23866 0.64043 0.74288 0.0
H1109 H 0.32965 0.59208 0.85804 0.0
H1110 H 0.22798 0.57116 0.78621 0.0
H1111 H 0.33063 0.66683 0.82463 0.0
H1112 H 0.30009 0.57929 0.82324 0.0
H1113 H 0.27981 0.64498 0.76372 0.0
C1114 C 0.24511 0.62598 0.75647 0.0
C1115 C 0.22956 0.60574 0.76336 0.0
C1116 C 0.30715 0.59836 0.82327 0.0
C1117 C 0.27655 0.61095 0.78745 0.0
C1118 C 0.32409 0.60565 0.84306 0.0
C1119 C 0.33216 0.6307 0.84454 0.0
C1120 C 0.29837 0.61625 0.80487 0.0
C1121 C 0.32448 0.64745 0.82453 0.0
C1122 C 0.26861 0.62859 0.76838 0.0
C1123 C 0.23913 0.58733 0.7807 0.0
N1124 N 0.30776 0.64001 0.80574 0.0
N1125 N 0.26184 0.5906 0.79252 0.0
H1126 H 0.16674 0.56936 0.61999 0.0
H1127 H 0.11877 0.4918 0.49378 0.0
H1128 H 0.09447 0.57825 0.58243 0.0
H1129 H 0.17702 0.46527 0.54668 0.0
H1130 H 0.11826 0.53168 0.51768 0.0
H1131 H 0.17851 0.53913 0.58506 0.0
C1132 C 0.15364 0.56538 0.60404 0.0
C1133 C 0.12951 0.57587 0.60415 0.0
C1134 C 0.13139 0.51724 0.52381 0.0
C1135 C 0.14275 0.54183 0.56443 0.0
C1136 C 0.13171 0.49446 0.51018 0.0
C1137 C 0.14748 0.47493 0.5187 0.0
C1138 C 0.14691 0.52049 0.54615 0.0
C1139 C 0.1642 0.47966 0.53976 0.0
C1140 C 0.16029 0.54813 0.58426 0.0
C1141 C 0.11313 0.57018 0.5832 0.0
N1142 N 0.1632 0.50186 0.55308 0.0
N1143 N 0.11998 0.55341 0.56428 0.0
H1144 H 0.14432 0.61423 0.15419 0.0
H1145 H 0.28208 0.56808 0.19419 0.0
H1146 H 0.20577 0.60665 0.0991 0.0
H1147 H 0.23828 0.61478 0.24684 0.0
H1148 H 0.24781 0.56893 0.16202 0.0
H1149 H 0.17277 0.60157 0.19081 0.0
C1150 C 0.16357 0.60918 0.14977 0.0
C1151 C 0.17286 0.61134 0.12376 0.0
C1152 C 0.24553 0.5786 0.18083 0.0
C1153 C 0.20507 0.59698 0.16499 0.0
C1154 C 0.26505 0.57808 0.1993 0.0
C1155 C 0.26322 0.59169 0.22316 0.0
C1156 C 0.22379 0.59251 0.1863 0.0
C1157 C 0.2406 0.60429 0.22855 0.0
C1158 C 0.17976 0.60224 0.17059 0.0
C1159 C 0.19798 0.60512 0.11895 0.0
N1160 N 0.22176 0.60456 0.21014 0.0
N1161 N 0.21321 0.59824 0.13935 0.0
H1162 H 0.15121 0.42768 0.88099 0.0
H1163 H 0.09327 0.51293 0.99676 0.0
H1164 H 0.07208 0.44244 0.89028 0.0
H1165 H 0.16836 0.52399 0.96682 0.0
H1166 H 0.08752 0.47888 0.96469 0.0
H1167 H 0.15975 0.45569 0.91887 0.0
C1168 C 0.13567 0.43666 0.89111 0.0
C1169 C 0.11093 0.43296 0.88239 0.0
C1170 C 0.10532 0.48866 0.96533 0.0
C1171 C 0.12048 0.46446 0.92571 0.0
C1172 C 0.10867 0.50801 0.98371 0.0
C1173 C 0.13121 0.52158 0.98424 0.0
C1174 C 0.12469 0.48268 0.9475 0.0
C1175 C 0.15056 0.51422 0.96691 0.0
C1176 C 0.14055 0.45262 0.91262 0.0
C1177 C 0.09145 0.445 0.89616 0.0
N1178 N 0.14682 0.49535 0.94911 0.0
N1179 N 0.09664 0.46015 0.91715 0.0
H1180 H 0.27627 0.37045 0.60558 0.0
H1181 H 0.24911 0.37981 0.75571 0.0
H1182 H 0.34015 0.37726 0.65792 0.0
H1183 H 0.20617 0.42298 0.69878 0.0
H1184 H 0.28287 0.37583 0.72258 0.0
H1185 H 0.24914 0.38536 0.6413 0.0
C1186 C 0.28458 0.37511 0.62464 0.0
C1187 C 0.31043 0.37256 0.6289 0.0
C1188 C 0.26624 0.38663 0.71771 0.0
C1189 C 0.27945 0.3894 0.66989 0.0
C1190 C 0.247 0.38888 0.73651 0.0
C1191 C 0.22463 0.40138 0.72984 0.0
C1192 C 0.26263 0.39635 0.69201 0.0
C1193 C 0.22295 0.41296 0.70476 0.0
C1194 C 0.26913 0.38382 0.64491 0.0
C1195 C 0.32026 0.37903 0.65393 0.0
N1196 N 0.2414 0.40961 0.68653 0.0
N1197 N 0.30464 0.3868 0.67378 0.0
H1198 H 0.3848 0.49708 0.50361 0.0
H1199 H 0.34011 0.5746 0.37586 0.0
H1200 H 0.32149 0.47588 0.45487 0.0
H1201 H 0.41454 0.57804 0.40961 0.0
H1202 H 0.32742 0.54658 0.41216 0.0
H1203 H 0.38954 0.53519 0.47701 0.0
C1204 C 0.37165 0.5006 0.48758 0.0
C1205 C 0.35307 0.48298 0.48106 0.0
C1206 C 0.34641 0.5538 0.41178 0.0
C1207 C 0.3585 0.5265 0.45055 0.0
C1208 C 0.35365 0.56983 0.39116 0.0
C1209 C 0.37853 0.5783 0.38957 0.0
C1210 C 0.36411 0.54651 0.43102 0.0
C1211 C 0.39529 0.57159 0.4099 0.0
C1212 C 0.37442 0.52234 0.47238 0.0
C1213 C 0.33632 0.48876 0.46033 0.0
N1214 N 0.38782 0.55594 0.4297 0.0
N1215 N 0.33965 0.5099 0.44554 0.0
H1216 H 0.10629 0.27577 0.41191 0.0
H1217 H 0.15624 0.20653 0.28208 0.0
H1218 H 0.1071 0.31063 0.33425 0.0
H1219 H 0.12771 0.16576 0.34986 0.0
H1220 H 0.14293 0.24589 0.30307 0.0
H1221 H 0.11712 0.23552 0.39112 0.0
C1222 C 0.10837 0.27484 0.39048 0.0
C1223 C 0.10579 0.29649 0.37476 0.0
C1224 C 0.13951 0.22828 0.31327 0.0
C1225 C 0.11884 0.25096 0.35108 0.0
C1226 C 0.14727 0.20589 0.30142 0.0
C1227 C 0.14276 0.18291 0.31418 0.0
C1228 C 0.1275 0.22762 0.33815 0.0
C1229 C 0.13115 0.18309 0.33923 0.0
C1230 C 0.11463 0.25196 0.37866 0.0
C1231 C 0.10874 0.29435 0.34709 0.0
N1232 N 0.12393 0.20512 0.35046 0.0
N1233 N 0.11545 0.27205 0.33616 0.0
H1234 H 0.05933 0.91762 0.59152 0.0
H1235 H 0.94699 0.82408 0.60687 0.0
H1236 H 0.06033 0.84463 0.55433 0.0
H1237 H 0.96594 0.87682 0.66897 0.0
H1238 H 0.98833 0.83085 0.58705 0.0
H1239 H 0.02433 0.90367 0.6197 0.0
C1240 C 0.05223 0.89866 0.58945 0.0
C1241 C 0.06257 0.88221 0.57073 0.0
C1242 C 0.98357 0.84058 0.60529 0.0
C1243 C 0.0227 0.86631 0.60232 0.0
C1244 C 0.96 0.83672 0.61659 0.0
C1245 C 0.95288 0.85024 0.63931 0.0
C1246 C -0.0002 0.85844 0.61651 0.0
C1247 C 0.97056 0.86622 0.65126 0.0
C1248 C 0.03248 0.89064 0.60559 0.0
C1249 C 0.05285 0.85781 0.5687 0.0
N1250 N 0.99304 0.8703 0.63938 0.0
N1251 N 0.03321 0.85067 0.58407 0.0
H1252 H 0.32191 0.80455 0.82913 0.0
H1253 H 0.42284 0.70198 0.86174 0.0
H1254 H 0.39799 0.81378 0.80201 0.0
H1255 H 0.363 0.72003 0.91641 0.0
H1256 H 0.41487 0.74164 0.83832 0.0
H1257 H 0.33605 0.77095 0.85918 0.0
C1258 C 0.34156 0.79931 0.82948 0.0
C1259 C 0.35889 0.81162 0.81323 0.0
C1260 C 0.40385 0.73704 0.85576 0.0
C1261 C 0.37514 0.77351 0.84712 0.0
C1262 C 0.40841 0.71448 0.86917 0.0
C1263 C 0.39318 0.70741 0.89069 0.0
C1264 C 0.38368 0.75225 0.86371 0.0
C1265 C 0.37492 0.72446 0.89962 0.0
C1266 C 0.34967 0.78043 0.84675 0.0
C1267 C 0.38419 0.80452 0.81439 0.0
N1268 N 0.37029 0.74583 0.88572 0.0
N1269 N 0.39159 0.78564 0.83088 0.0
H1270 H 0.45689 0.0746 0.04583 0.0
H1271 H 0.53038 0.15141 0.15661 0.0
H1272 H 0.42292 0.1379 0.08544 0.0
H1273 H 0.56725 0.12126 0.08721 0.0
H1274 H 0.48954 0.14111 0.13634 0.0
H1275 H 0.49699 0.08511 0.06724 0.0
C1276 C 0.45781 0.09061 0.05908 0.0
C1277 C 0.43651 0.10539 0.06396 0.0
C1278 C 0.50665 0.13695 0.12558 0.0
C1279 C 0.48201 0.11736 0.08841 0.0
C1280 C 0.5298 0.1429 0.13704 0.0
C1281 C 0.55203 0.13749 0.12334 0.0
C1282 C 0.50597 0.12478 0.10077 0.0
C1283 C 0.55046 0.12616 0.09818 0.0
C1284 C 0.48064 0.09661 0.0712 0.0
C1285 C 0.43874 0.12584 0.08143 0.0
N1286 N 0.52782 0.11988 0.08783 0.0
N1287 N 0.46106 0.13123 0.09309 0.0
H1288 H 0.14758 0.78628 0.22127 0.0
H1289 H 0.12098 0.72259 0.07983 0.0
H1290 H 0.13421 0.82851 0.14933 0.0
H1291 H 0.11492 0.68222 0.15409 0.0
H1292 H 0.12781 0.76147 0.10481 0.0
H1293 H 0.13865 0.74732 0.19677 0.0
C1294 C 0.14281 0.78729 0.20032 0.0
C1295 C 0.14124 0.81054 0.18729 0.0
C1296 C 0.12492 0.74411 0.11565 0.0
C1297 C 0.13114 0.76638 0.15925 0.0
C1298 C 0.12106 0.72196 0.10139 0.0
C1299 C 0.1175 0.69923 0.11494 0.0
C1300 C 0.12573 0.7434 0.14362 0.0
C1301 C 0.11752 0.69942 0.1429 0.0
C1302 C 0.13756 0.76515 0.1864 0.0
C1303 C 0.13506 0.81093 0.16017 0.0
N1304 N 0.12185 0.72113 0.15634 0.0
N1305 N 0.13027 0.7892 0.14702 0.0
H1306 H 0.54064 0.81892 0.37364 0.0
H1307 H 0.43134 0.91584 0.40501 0.0
H1308 H 0.53294 0.88933 0.33183 0.0
H1309 H 0.43422 0.83985 0.43504 0.0
H1310 H 0.46645 0.90591 0.37511 0.0
H1311 H 0.49873 0.82459 0.3921 0.0
C1312 C 0.52984 0.83533 0.36795 0.0
C1313 C 0.54023 0.85377 0.35146 0.0
C1314 C 0.45914 0.89137 0.38805 0.0
C1315 C 0.49269 0.86098 0.37323 0.0
C1316 C 0.43929 0.8971 0.40524 0.0
C1317 C 0.42996 0.87867 0.42258 0.0
C1318 C 0.46977 0.86716 0.38852 0.0
C1319 C 0.44081 0.85465 0.42201 0.0
C1320 C 0.50596 0.83867 0.37856 0.0
C1321 C 0.5255 0.87467 0.34453 0.0
N1322 N 0.46015 0.84966 0.40539 0.0
N1323 N 0.50262 0.87801 0.35593 0.0
H1324 H 0.36482 0.27869 0.57251 0.0
H1325 H 0.40151 0.18098 0.68571 0.0
H1326 H 0.42121 0.29651 0.63138 0.0
H1327 H 0.32561 0.19344 0.659 0.0
H1328 H 0.41566 0.21557 0.65689 0.0
H1329 H 0.35833 0.23817 0.59413 0.0
C1330 C 0.37629 0.27388 0.58959 0.0
C1331 C 0.3931 0.29128 0.60066 0.0
C1332 C 0.39597 0.21056 0.65729 0.0
C1333 C 0.38574 0.24502 0.62521 0.0
C1334 C 0.38791 0.19099 0.67363 0.0
C1335 C 0.36242 0.18465 0.67461 0.0
C1336 C 0.3784 0.22331 0.64151 0.0
C1337 C 0.34539 0.19805 0.65885 0.0
C1338 C 0.37242 0.25083 0.60196 0.0
C1339 C 0.40768 0.28383 0.62258 0.0
N1340 N 0.35373 0.21673 0.64273 0.0
N1341 N 0.40345 0.26125 0.63443 0.0
H1342 H 0.06636 0.14796 0.93227 0.0
H1343 H 0.95693 0.09802 0.83876 0.0
H1344 H 0.04691 0.0697 0.92486 0.0
H1345 H 0.95218 0.17054 0.87701 0.0
H1346 H -0.00326 0.09051 0.8612 0.0
H1347 H 0.03017 0.15905 0.90429 0.0
C1348 C 0.0545 0.13316 0.92455 0.0
C1349 C 0.05953 0.10792 0.93059 0.0
C1350 C 0.98705 0.10813 0.86449 0.0
C1351 C 0.01863 0.12033 0.89865 0.0
C1352 C 0.96439 0.11255 0.8516 0.0
C1353 C 0.9509 0.13474 0.85651 0.0
C1354 C -0.00352 0.12611 0.88218 0.0
C1355 C 0.96178 0.15302 0.87299 0.0
C1356 C 0.03391 0.13948 0.90877 0.0
C1357 C 0.0435 0.08938 0.92067 0.0
N1358 N 0.98394 0.14821 0.88548 0.0
N1359 N 0.02381 0.09595 0.90495 0.0
H1360 H 0.87086 0.82199 0.65315 0.0
H1361 H 0.89277 0.67431 0.67175 0.0
H1362 H 0.85383 0.78226 0.72567 0.0
H1363 H 0.89174 0.7111 0.59509 0.0
H1364 H 0.88508 0.7148 0.69311 0.0
H1365 H 0.88423 0.78247 0.63277 0.0
C1366 C 0.87022 0.80491 0.66483 0.0
C1367 C 0.86162 0.80539 0.69117 0.0
C1368 C 0.88678 0.71404 0.67164 0.0
C1369 C 0.87653 0.76004 0.66801 0.0
C1370 C 0.89141 0.69097 0.65941 0.0
C1371 C 0.89271 0.6893 0.63154 0.0
C1372 C 0.88366 0.73564 0.65592 0.0
C1373 C 0.89067 0.71151 0.61661 0.0
C1374 C 0.87766 0.78236 0.65316 0.0
C1375 C 0.86036 0.78267 0.70527 0.0
N1376 N 0.88613 0.73375 0.62898 0.0
N1377 N 0.86785 0.76088 0.69354 0.0
H1378 H 0.07018 0.102 0.40468 0.0
H1379 H 0.92685 0.13666 0.41644 0.0
H1380 H 0.03577 0.15681 0.35287 0.0
H1381 H 0.9544 0.06284 0.43679 0.0
H1382 H 0.96717 0.14673 0.39668 0.0
H1383 H 0.02866 0.08998 0.42089 0.0
C1384 C 0.05382 0.11184 0.39715 0.0
C1385 C 0.05622 0.13073 0.37785 0.0
C1386 C 0.96432 0.12822 0.40514 0.0
C1387 C 0.0089 0.117 0.39612 0.0
C1388 C 0.94124 0.12236 0.4163 0.0
C1389 C 0.93708 0.09871 0.42792 0.0
C1390 C 0.98371 0.11053 0.40612 0.0
C1391 C 0.9568 0.08128 0.42804 0.0
C1392 C 0.03019 0.10473 0.40611 0.0
C1393 C 0.03454 0.14237 0.36802 0.0
N1394 N 0.97941 0.08761 0.41744 0.0
N1395 N 0.01167 0.13549 0.37752 0.0
H1396 H 0.60689 0.31551 0.16354 0.0
H1397 H 0.63195 0.16899 0.14194 0.0
H1398 H 0.60488 0.28022 0.08622 0.0
H1399 H 0.65287 0.20873 0.21323 0.0
H1400 H 0.61772 0.20859 0.12215 0.0
H1401 H 0.61821 0.2752 0.18344 0.0
C1402 C 0.60831 0.29917 0.15079 0.0
C1403 C 0.60504 0.30122 0.12314 0.0
C1404 C 0.62547 0.20869 0.14209 0.0
C1405 C 0.61831 0.25513 0.14579 0.0
C1406 C 0.63346 0.18612 0.15338 0.0
C1407 C 0.64321 0.18564 0.17928 0.0
C1408 C 0.62712 0.23093 0.15696 0.0
C1409 C 0.64546 0.20835 0.19315 0.0
C1410 C 0.61507 0.27623 0.16215 0.0
C1411 C 0.60738 0.27946 0.1076 0.0
N1412 N 0.63727 0.23011 0.18188 0.0
N1413 N 0.61396 0.25731 0.11914 0.0
H1414 H 0.46532 0.85508 0.8234 0.0
H1415 H 0.53304 0.88667 0.96038 0.0
H1416 H 0.4297 0.84465 0.89974 0.0
H1417 H 0.57417 0.87087 0.88833 0.0
H1418 H 0.49422 0.87426 0.93775 0.0
H1419 H 0.50529 0.86231 0.84622 0.0
C1420 C 0.46601 0.85391 0.84492 0.0
C1421 C 0.44416 0.84939 0.8597 0.0
C1422 C 0.51178 0.87342 0.92697 0.0
C1423 C 0.48953 0.85828 0.88589 0.0
C1424 C 0.53387 0.88071 0.93979 0.0
C1425 C 0.55681 0.87971 0.92622 0.0
C1426 C 0.51267 0.86544 0.90032 0.0
C1427 C 0.55686 0.87178 0.89956 0.0
C1428 C 0.48877 0.85811 0.85793 0.0
C1429 C 0.44608 0.84804 0.88755 0.0
N1430 N 0.53512 0.86503 0.88745 0.0
N1431 N 0.4683 0.85287 0.89978 0.0
H1432 H 0.88267 0.27277 0.91692 0.0
H1433 H 0.86151 0.20463 0.77739 0.0
H1434 H 0.90168 0.3068 0.84153 0.0
H1435 H 0.85904 0.16572 0.85268 0.0
H1436 H 0.87556 0.24268 0.80059 0.0
H1437 H 0.87499 0.23305 0.894 0.0
C1438 C 0.88564 0.27178 0.89562 0.0
C1439 C 0.89251 0.29321 0.88108 0.0
C1440 C 0.87203 0.22578 0.81202 0.0
C1441 C 0.88318 0.24801 0.85465 0.0
C1442 C 0.86379 0.20421 0.79883 0.0
C1443 C 0.85931 0.1821 0.81322 0.0
C1444 C 0.87538 0.22526 0.83981 0.0
C1445 C 0.86259 0.1824 0.8409 0.0
C1446 C 0.88114 0.24912 0.88251 0.0
C1447 C 0.89625 0.29079 0.85353 0.0
N1448 N 0.87036 0.20365 0.85333 0.0
N1449 N 0.89115 0.26871 0.84114 0.0
H1450 H 0.4673 0.10594 0.66799 0.0
H1451 H 0.56156 0.14902 0.55468 0.0
H1452 H 0.44887 0.16752 0.6154 0.0
H1453 H 0.55113 0.07129 0.57602 0.0
H1454 H 0.52602 0.16046 0.58341 0.0
H1455 H 0.50525 0.09813 0.64199 0.0
C1456 C 0.47151 0.11819 0.65135 0.0
C1457 C 0.45481 0.13727 0.64364 0.0
C1458 C 0.53151 0.14093 0.5817 0.0
C1459 C 0.49803 0.1283 0.61392 0.0
C1460 C 0.55165 0.13441 0.56541 0.0
C1461 C 0.55903 0.10924 0.56313 0.0
C1462 C 0.5192 0.12213 0.59623 0.0
C1463 C 0.54576 0.09089 0.57722 0.0
C1464 C 0.493 0.11351 0.63639 0.0
C1465 C 0.46118 0.15248 0.62183 0.0
N1466 N 0.52658 0.09773 0.59348 0.0
N1467 N 0.48233 0.14763 0.60762 0.0
H1468 H 0.66627 0.78454 0.29158 0.0
H1469 H 0.60871 0.72511 0.42266 0.0
H1470 H 0.61726 0.82655 0.34286 0.0
H1471 H 0.61933 0.68056 0.35191 0.0
H1472 H 0.61737 0.76317 0.39645 0.0
H1473 H 0.65591 0.7462 0.31675 0.0
C1474 C 0.65319 0.78569 0.30802 0.0
C1475 C 0.64218 0.80871 0.31506 0.0
C1476 C 0.6177 0.74503 0.38671 0.0
C1477 C 0.63041 0.76525 0.34373 0.0
C1478 C 0.61278 0.72343 0.40161 0.0
C1479 C 0.61325 0.69984 0.38932 0.0
C1480 C 0.62394 0.74282 0.35963 0.0
C1481 C 0.61862 0.6985 0.362 0.0
C1482 C 0.64722 0.76385 0.32223 0.0
C1483 C 0.62561 0.80914 0.33665 0.0
N1484 N 0.62412 0.7197 0.34809 0.0
N1485 N 0.62024 0.78783 0.3503 0.0
H1486 H 0.93119 0.91129 0.09164 0.0
H1487 H 0.04647 0.81788 0.11672 0.0
H1488 H 0.93986 0.84016 0.05143 0.0
H1489 H 0.03132 0.88273 0.16574 0.0
H1490 H 0.00676 0.82494 0.0935 0.0
H1491 H 0.96816 0.9014 0.11876 0.0
C1492 C 0.94098 0.89373 0.08833 0.0
C1493 C 0.93245 0.87659 0.06917 0.0
C1494 C 0.01201 0.83748 0.10952 0.0
C1495 C 0.97454 0.865 0.10031 0.0
C1496 C 0.03464 0.83337 0.1229 0.0
C1497 C 0.04244 0.84992 0.14299 0.0
C1498 C -0.00281 0.85843 0.1161 0.0
C1499 C 0.02621 0.86959 0.15023 0.0
C1500 C 0.96194 0.88797 0.10399 0.0
C1501 C 0.94577 0.85399 0.06594 0.0
N1502 N 0.00454 0.8735 0.13656 0.0
N1503 N 0.96612 0.84888 0.0813 0.0
H1504 H 0.58729 0.67985 0.80619 0.0
H1505 H 0.64753 0.78198 0.90335 0.0
H1506 H 0.66666 0.69208 0.81566 0.0
H1507 H 0.56954 0.78392 0.88032 0.0
H1508 H 0.65301 0.74354 0.87779 0.0
H1509 H 0.57898 0.71398 0.83784 0.0
C1510 C 0.60291 0.68986 0.81497 0.0
C1511 C 0.62763 0.68329 0.80859 0.0
C1512 C 0.63464 0.75224 0.87841 0.0
C1513 C 0.61845 0.72184 0.84475 0.0
C1514 C 0.63147 0.77409 0.8931 0.0
C1515 C 0.60819 0.78636 0.8934 0.0
C1516 C 0.61444 0.74267 0.8637 0.0
C1517 C 0.58785 0.7751 0.88034 0.0
C1518 C 0.59819 0.70923 0.83297 0.0
C1519 C 0.64733 0.69681 0.82004 0.0
N1520 N 0.59153 0.75398 0.86559 0.0
N1521 N 0.64231 0.71537 0.83776 0.0
H1522 H 0.5721 0.37756 0.09945 0.0
H1523 H 0.42621 0.34634 0.08263 0.0
H1524 H 0.53104 0.38948 0.02659 0.0
H1525 H 0.46329 0.35126 0.15894 0.0
H1526 H 0.46612 0.355 0.06071 0.0
H1527 H 0.53377 0.36206 0.12058 0.0
C1528 C 0.55499 0.3767 0.0879 0.0
C1529 C 0.55474 0.38454 0.06126 0.0
C1530 C 0.46556 0.35394 0.08224 0.0
C1531 C 0.51078 0.367 0.08518 0.0
C1532 C 0.44282 0.34877 0.09481 0.0
C1533 C 0.44132 0.34843 0.12273 0.0
C1534 C 0.48701 0.35862 0.09767 0.0
C1535 C 0.46352 0.35162 0.13739 0.0
C1536 C 0.53312 0.36798 0.09995 0.0
C1537 C 0.53199 0.38369 0.04724 0.0
N1538 N 0.48542 0.3568 0.12468 0.0
N1539 N 0.5109 0.37497 0.05935 0.0
H1540 H 0.8997 0.31188 0.3112 0.0
H1541 H 0.86059 0.21172 0.41847 0.0
H1542 H 0.82189 0.29508 0.32635 0.0
H1543 H 0.91398 0.19007 0.35806 0.0
H1544 H 0.85376 0.25144 0.39491 0.0
H1545 H 0.91185 0.27468 0.33743 0.0
C1546 C 0.88524 0.30029 0.32005 0.0
C1547 C 0.85979 0.30622 0.31657 0.0
C1548 C 0.86723 0.23806 0.38715 0.0
C1549 C 0.8735 0.26478 0.34709 0.0
C1550 C 0.87133 0.21555 0.40062 0.0
C1551 C 0.88762 0.19747 0.38995 0.0
C1552 C 0.87995 0.24271 0.36328 0.0
C1553 C 0.90103 0.20344 0.36674 0.0
C1554 C 0.89217 0.27925 0.33492 0.0
C1555 C 0.84168 0.29085 0.3284 0.0
N1556 N 0.89684 0.22563 0.35403 0.0
N1557 N 0.84891 0.27091 0.3435 0.0
H1558 H 0.92351 0.61535 0.60261 0.0
H1559 H 0.07027 0.63673 0.57932 0.0
H1560 H 0.96163 0.59471 0.53023 0.0
H1561 H 0.03426 0.6442 0.65586 0.0
H1562 H 0.02976 0.62625 0.5595 0.0
H1563 H 0.96333 0.62945 0.62138 0.0
C1564 C 0.94033 0.61379 0.59072 0.0
C1565 C 0.93928 0.6041 0.56482 0.0
C1566 C 0.03069 0.63042 0.58057 0.0
C1567 C 0.98495 0.62022 0.58603 0.0
C1568 C 0.05376 0.6367 0.59188 0.0
C1569 C 0.05566 0.64118 0.61936 0.0
C1570 C 0.00935 0.62882 0.59682 0.0
C1571 C 0.03366 0.64069 0.63464 0.0
C1572 C 0.96305 0.6218 0.60141 0.0
C1573 C 0.96166 0.60203 0.55033 0.0
N1574 N 0.01143 0.63445 0.62319 0.0
N1575 N 0.98362 0.6102 0.56109 0.0
H1576 H 0.67304 0.30053 0.66043 0.0
H1577 H 0.57024 0.19899 0.63387 0.0
H1578 H 0.59678 0.3158 0.68388 0.0
H1579 H 0.62615 0.21689 0.5746 0.0
H1580 H 0.58028 0.23845 0.65682 0.0
H1581 H 0.65804 0.26468 0.63397 0.0
C1582 C 0.6532 0.29616 0.66007 0.0
C1583 C 0.636 0.31101 0.67396 0.0
C1584 C 0.58997 0.23378 0.63853 0.0
C1585 C 0.61889 0.27038 0.64437 0.0
C1586 C 0.58421 0.2114 0.62539 0.0
C1587 C 0.59763 0.20446 0.60251 0.0
C1588 C 0.60959 0.24883 0.62897 0.0
C1589 C 0.6155 0.2213 0.59233 0.0
C1590 C 0.64464 0.27598 0.64489 0.0
C1591 C 0.61046 0.30479 0.67303 0.0
N1592 N 0.62136 0.24244 0.60597 0.0
N1593 N 0.6026 0.28472 0.65861 0.0
H1594 H 0.94498 0.425 0.94106 0.0
H1595 H 0.02586 0.33825 0.8446 0.0
H1596 H 0.92305 0.34875 0.92439 0.0
H1597 H 0.05915 0.39277 0.89728 0.0
H1598 H 0.98494 0.34561 0.86631 0.0
H1599 H 0.98455 0.41756 0.91736 0.0
C1600 C 0.94851 0.40671 0.9324 0.0
C1601 C 0.93066 0.3875 0.93427 0.0
C1602 C 0.00129 0.35587 0.87303 0.0
C1603 C 0.97551 0.37897 0.90712 0.0
C1604 C 0.02448 0.35169 0.86071 0.0
C1605 C 0.04575 0.36469 0.86954 0.0
C1606 C -0.00051 0.37374 0.89355 0.0
C1607 C 0.04317 0.38208 0.89029 0.0
C1608 C 0.97097 0.4025 0.91885 0.0
C1609 C 0.93605 0.3642 0.92257 0.0
N1610 N 0.02042 0.38628 0.90145 0.0
N1611 N 0.95798 0.36055 0.90938 0.0
H1612 H 0.88126 0.80902 0.14468 0.0
H1613 H 0.85208 0.66204 0.1453 0.0
H1614 H 0.87034 0.76645 0.07255 0.0
H1615 H 0.83651 0.7101 0.21226 0.0
H1616 H 0.86439 0.69896 0.11923 0.0
H1617 H 0.87098 0.77161 0.17078 0.0
C1618 C 0.8771 0.79166 0.13434 0.0
C1619 C 0.87666 0.79074 0.10642 0.0
C1620 C 0.85824 0.70145 0.1396 0.0
C1621 C 0.86483 0.74798 0.13615 0.0
C1622 C 0.8514 0.68042 0.1545 0.0
C1623 C 0.84362 0.68308 0.18098 0.0
C1624 C 0.85744 0.72532 0.15138 0.0
C1625 C 0.84242 0.7073 0.19186 0.0
C1626 C 0.871 0.77041 0.14925 0.0
C1627 C 0.8708 0.7679 0.09405 0.0
N1628 N 0.84946 0.72752 0.17706 0.0
N1629 N 0.86518 0.74736 0.10902 0.0
H1630 H 0.55096 0.65241 0.44443 0.0
H1631 H 0.46312 0.61198 0.32275 0.0
H1632 H 0.56018 0.58254 0.40193 0.0
H1633 H 0.44514 0.67172 0.37758 0.0
H1634 H 0.50251 0.60491 0.34666 0.0
H1635 H 0.51536 0.66273 0.41611 0.0
C1636 C 0.54539 0.63909 0.42925 0.0
C1637 C 0.55855 0.61645 0.42569 0.0
C1638 C 0.49006 0.61974 0.35326 0.0
C1639 C 0.51771 0.6284 0.39288 0.0
C1640 C 0.46767 0.62399 0.33946 0.0
C1641 C 0.45064 0.64232 0.34838 0.0
C1642 C 0.49555 0.63406 0.37597 0.0
C1643 C 0.45757 0.65723 0.37017 0.0
C1644 C 0.52507 0.64509 0.41299 0.0
C1645 C 0.55048 0.60009 0.40553 0.0
N1646 N 0.47939 0.65265 0.38333 0.0
N1647 N 0.53057 0.60641 0.38983 0.0
H1648 H 0.38203 0.21638 0.08315 0.0
H1649 H 0.35588 0.28308 0.22181 0.0
H1650 H 0.39329 0.17973 0.15901 0.0
H1651 H 0.36246 0.32382 0.148 0.0
H1652 H 0.36992 0.24486 0.19904 0.0
H1653 H 0.37686 0.25639 0.1063 0.0
C1654 C 0.38378 0.2168 0.10464 0.0
C1655 C 0.38757 0.19462 0.11923 0.0
C1656 C 0.36853 0.26222 0.18785 0.0
C1657 C 0.38127 0.24017 0.14581 0.0
C1658 C 0.3603 0.2839 0.20078 0.0
C1659 C 0.3583 0.30651 0.18665 0.0
C1660 C 0.37431 0.26318 0.16055 0.0
C1661 C 0.36433 0.30675 0.15954 0.0
C1662 C 0.38078 0.23964 0.11785 0.0
C1663 C 0.39001 0.19631 0.14699 0.0
N1664 N 0.37192 0.28537 0.14726 0.0
N1665 N 0.38639 0.21864 0.15943 0.0
H1666 H 0.54206 0.67572 0.88243 0.0
H1667 H 0.44077 0.57548 0.92263 0.0
H1668 H 0.52202 0.61401 0.83087 0.0
H1669 H 0.42841 0.65343 0.94176 0.0
H1670 H 0.47633 0.58784 0.89445 0.0
H1671 H 0.50408 0.66764 0.90874 0.0
C1672 C 0.52947 0.66083 0.87636 0.0
C1673 C 0.53534 0.64531 0.85467 0.0
C1674 C 0.46588 0.60219 0.90497 0.0
C1675 C 0.49275 0.63557 0.88498 0.0
C1676 C 0.44593 0.59513 0.92123 0.0
C1677 C 0.43194 0.61355 0.93434 0.0
C1678 C 0.47204 0.62774 0.90243 0.0
C1679 C 0.43895 0.63881 0.93179 0.0
C1680 C 0.50795 0.65619 0.89141 0.0
C1681 C 0.51835 0.62634 0.84755 0.0
N1682 N 0.4587 0.64525 0.91617 0.0
N1683 N 0.49808 0.62165 0.86302 0.0
H1684 H 0.08862 0.81002 0.65213 0.0
H1685 H 0.13139 0.66596 0.64976 0.0
H1686 H 0.10561 0.7694 0.58001 0.0
H1687 H 0.12906 0.71045 0.72128 0.0
H1688 H 0.11673 0.70222 0.62415 0.0
H1689 H 0.0973 0.77207 0.67792 0.0
C1690 C 0.0937 0.79299 0.64163 0.0
C1691 C 0.09658 0.79294 0.61383 0.0
C1692 C 0.11928 0.70409 0.64545 0.0
C1693 C 0.10677 0.7495 0.64335 0.0
C1694 C 0.12743 0.68336 0.66006 0.0
C1695 C 0.13095 0.68515 0.68763 0.0
C1696 C 0.11463 0.72689 0.65854 0.0
C1697 C 0.12648 0.70831 0.70002 0.0
C1698 C 0.09887 0.77139 0.65644 0.0
C1699 C 0.10331 0.77034 0.6014 0.0
N1700 N 0.11845 0.72831 0.68537 0.0
N1701 N 0.10832 0.74956 0.61626 0.0
H1702 H 0.92534 0.37372 0.40321 0.0
H1703 H 0.07229 0.35317 0.41351 0.0
H1704 H 0.96896 0.34472 0.33779 0.0
H1705 H 0.03535 0.41327 0.45525 0.0
H1706 H 0.0331 0.34316 0.39089 0.0
H1707 H 0.96416 0.38156 0.42795 0.0
C1708 C 0.94311 0.36853 0.3943 0.0
C1709 C 0.9441 0.35842 0.36853 0.0
C1710 C 0.03358 0.35862 0.40488 0.0
C1711 C 0.98829 0.3673 0.39665 0.0
C1712 C 0.05597 0.36442 0.41765 0.0
C1713 C 0.05728 0.38439 0.43571 0.0
C1714 C 0.01206 0.37267 0.41059 0.0
C1715 C 0.03523 0.39782 0.44126 0.0
C1716 C 0.96517 0.37327 0.4083 0.0
C1717 C 0.96752 0.35251 0.35764 0.0
N1718 N 0.01342 0.3917 0.42869 0.0
N1719 N 0.98878 0.35691 0.37185 0.0
H1720 H 0.41484 0.78888 0.36733 0.0
H1721 H 0.31293 0.68654 0.33004 0.0
H1722 H 0.3493 0.77539 0.41569 0.0
H1723 H 0.39011 0.67892 0.30594 0.0
H1724 H 0.32492 0.72181 0.35887 0.0
H1725 H 0.40593 0.75024 0.34264 0.0
C1726 C 0.39878 0.77763 0.373 0.0
C1727 C 0.38262 0.78552 0.39341 0.0
C1728 C 0.33923 0.71237 0.34731 0.0
C1729 C 0.37209 0.74171 0.36493 0.0
C1730 C 0.33234 0.69249 0.33072 0.0
C1731 C 0.35063 0.67997 0.3158 0.0
C1732 C 0.36445 0.72005 0.34838 0.0
C1733 C 0.37558 0.68812 0.3174 0.0
C1734 C 0.39371 0.75562 0.35888 0.0
C1735 C 0.36217 0.77014 0.4 0.0
N1736 N 0.38178 0.70781 0.33328 0.0
N1737 N 0.35726 0.74917 0.38552 0.0
H1738 H 0.05666 0.65745 0.06956 0.0
H1739 H 0.94781 0.60312 0.16156 0.0
H1740 H 0.04875 0.57807 0.08554 0.0
H1741 H 0.94218 0.67349 0.11916 0.0
H1742 H 0.98903 0.59604 0.14146 0.0
H1743 H 0.01881 0.66552 0.09504 0.0
C1744 C 0.04688 0.64161 0.07826 0.0
C1745 C 0.05578 0.61693 0.07507 0.0
C1746 C 0.97888 0.61314 0.13684 0.0
C1747 C 0.01234 0.62628 0.10458 0.0
C1748 C 0.9555 0.61736 0.14848 0.0
C1749 C 0.94158 0.63895 0.14193 0.0
C1750 C 0.98855 0.63085 0.11891 0.0
C1751 C 0.95227 0.65657 0.12463 0.0
C1752 C 0.02527 0.64632 0.09289 0.0
C1753 C 0.04245 0.59734 0.08728 0.0
N1754 N 0.97515 0.65213 0.11369 0.0
N1755 N 0.02131 0.60243 0.10152 0.0
H1756 H 0.15909 0.28692 0.79063 0.0
H1757 H 0.09826 0.21965 0.91652 0.0
H1758 H 0.1169 0.32746 0.84986 0.0
H1759 H 0.11196 0.1808 0.84258 0.0
H1760 H 0.10841 0.25948 0.89439 0.0
H1761 H 0.14668 0.24732 0.81204 0.0
C1762 C 0.14735 0.28749 0.80821 0.0
C1763 C 0.13883 0.31047 0.81845 0.0
C1764 C 0.10891 0.24223 0.88298 0.0
C1765 C 0.1246 0.26552 0.84287 0.0
C1766 C 0.10303 0.2196 0.89555 0.0
C1767 C 0.10412 0.19702 0.8813 0.0
C1768 C 0.11652 0.24212 0.85621 0.0
C1769 C 0.11058 0.19786 0.85421 0.0
C1770 C 0.14011 0.26495 0.82025 0.0
C1771 C 0.12362 0.31016 0.84121 0.0
N1772 N 0.11688 0.22002 0.84261 0.0
N1773 N 0.11704 0.28807 0.85272 0.0
H1774 H 0.52883 0.37859 0.66758 0.0
H1775 H 0.42829 0.34698 0.55626 0.0
H1776 H 0.54623 0.32538 0.60537 0.0
H1777 H 0.44118 0.42211 0.58504 0.0
H1778 H 0.46492 0.33232 0.58186 0.0
H1779 H 0.48865 0.3871 0.64611 0.0
C1780 C 0.524 0.36823 0.64975 0.0
C1781 C 0.54112 0.35158 0.63793 0.0
C1782 C 0.45963 0.35196 0.58255 0.0
C1783 C 0.4952 0.36129 0.61349 0.0
C1784 C 0.43887 0.3603 0.56808 0.0
C1785 C 0.43195 0.3857 0.56876 0.0
C1786 C 0.47299 0.36913 0.59819 0.0
C1787 C 0.44613 0.4024 0.58405 0.0
C1788 C 0.50116 0.3733 0.63744 0.0
C1789 C 0.5337 0.33862 0.6149 0.0
N1790 N 0.46594 0.39376 0.59844 0.0
N1791 N 0.51126 0.34389 0.60324 0.0
H1792 H 0.10212 0.04323 0.30787 0.0
H1793 H 0.1692 0.94493 0.21461 0.0
H1794 H 0.14505 0.06742 0.23986 0.0
H1795 H 0.09403 0.93142 0.24282 0.0
H1796 H 0.1668 0.9879 0.23232 0.0
H1797 H 0.10336 0.00014 0.29104 0.0
C1798 C 0.1118 0.03949 0.28935 0.0
C1799 C 0.12444 0.05872 0.27568 0.0
C1800 C 0.15099 0.97536 0.23482 0.0
C1801 C 0.12639 0.00952 0.25688 0.0
C1802 C 0.15247 0.95084 0.22511 0.0
C1803 C 0.13178 0.93477 0.22738 0.0
C1804 C 0.12892 0.98347 0.24738 0.0
C1805 C 0.11035 0.94337 0.24075 0.0
C1806 C 0.1126 0.01491 0.2799 0.0
C1807 C 0.13645 0.05284 0.25172 0.0
N1808 N 0.10947 0.96718 0.25039 0.0
N1809 N 0.1375 0.02862 0.24321 0.0
H1810 H 0.18665 0.91389 0.53507 0.0
H1811 H 0.29039 0.84679 0.44642 0.0
H1812 H 0.17553 0.84209 0.49716 0.0
H1813 H 0.29943 0.91996 0.48226 0.0
H1814 H 0.24621 0.84725 0.45924 0.0
H1815 H 0.22578 0.91895 0.51059 0.0
C1816 C 0.19229 0.89938 0.5212 0.0
C1817 C 0.17788 0.87762 0.51794 0.0
C1818 C 0.25782 0.8633 0.46408 0.0
C1819 C 0.22293 0.8829 0.49041 0.0
C1820 C 0.28306 0.86302 0.45684 0.0
C1821 C 0.29875 0.88313 0.46381 0.0
C1822 C 0.24831 0.88372 0.4786 0.0
C1823 C 0.28813 0.9039 0.47678 0.0
C1824 C 0.21467 0.90222 0.50729 0.0
C1825 C 0.18622 0.85914 0.50018 0.0
N1826 N 0.26364 0.90349 0.48407 0.0
N1827 N 0.20835 0.86211 0.48719 0.0
H1828 H 0.33935 0.93147 0.73552 0.0
H1829 H 0.39094 0.06832 0.76059 0.0
H1830 H 0.38183 0.9505 0.8057 0.0
H1831 H 0.32603 0.05445 0.71144 0.0
H1832 H 0.38853 0.02515 0.77724 0.0
H1833 H 0.33517 0.97628 0.72514 0.0
C1834 C 0.34731 0.94512 0.74897 0.0
C1835 C 0.36054 0.93736 0.77161 0.0
C1836 C 0.37458 0.03166 0.76312 0.0
C1837 C 0.35655 0.98841 0.75969 0.0
C1838 C 0.37594 0.05623 0.75368 0.0
C1839 C 0.35873 0.06476 0.73462 0.0
C1840 C 0.35623 0.01541 0.75289 0.0
C1841 C 0.3396 0.04852 0.72623 0.0
C1842 C 0.3451 0.97063 0.74301 0.0
C1843 C 0.37159 0.95571 0.78788 0.0
N1844 N 0.33911 0.0244 0.73509 0.0
N1845 N 0.36944 0.9804 0.78153 0.0
H1846 H 0.18786 0.07413 0.97376 0.0
H1847 H 0.31072 0.15487 0.00587 0.0
H1848 H 0.18993 0.15519 0.97717 0.0
H1849 H 0.30657 0.07498 0.02006 0.0
H1850 H 0.26781 0.1541 0.98904 0.0
H1851 H 0.23225 0.07304 0.98649 0.0
C1852 C 0.19753 0.09167 0.97743 0.0
C1853 C 0.18512 0.11479 0.97435 0.0
C1854 C 0.27631 0.13668 0.99566 0.0
C1855 C 0.23593 0.11365 0.98834 0.0
C1856 C 0.30087 0.1371 0.00512 0.0
C1857 C 0.31214 0.11501 0.0146 0.0
C1858 C 0.26284 0.11403 0.99572 0.0
C1859 C 0.29859 0.09245 0.01293 0.0
C1860 C 0.2229 0.09102 0.9845 0.0
C1861 C 0.1987 0.13692 0.97914 0.0
N1862 N 0.27451 0.09257 0.00391 0.0
N1863 N 0.22334 0.13578 0.98576 0.0
H1864 H 0.90038 0.05852 0.76259 0.0
H1865 H 0.82327 0.93553 0.72182 0.0
H1866 H 0.82002 0.05354 0.77061 0.0
H1867 H 0.90395 0.93955 0.72767 0.0
H1868 H 0.8207 0.97979 0.73506 0.0
H1869 H 0.90092 0.01677 0.74271 0.0
C1870 C 0.88276 0.04877 0.75959 0.0
C1871 C 0.86015 0.05937 0.76826 0.0
C1872 C 0.83893 0.9709 0.73355 0.0
C1873 C 0.86062 0.01125 0.74629 0.0
C1874 C 0.8404 0.94556 0.72637 0.0
C1875 C 0.86385 0.93372 0.72404 0.0
C1876 C 0.86109 0.98448 0.7382 0.0
C1877 C 0.88547 0.94787 0.72932 0.0
C1878 C 0.88308 0.02486 0.74847 0.0
C1879 C 0.83783 0.04605 0.76394 0.0
N1880 N 0.88355 0.97245 0.7361 0.0
N1881 N 0.83864 0.02244 0.75356 0.0
H1882 H 0.68483 0.15566 0.50992 0.0
H1883 H 0.80107 0.06952 0.46753 0.0
H1884 H 0.68483 0.07501 0.51899 0.0
H1885 H 0.80585 0.14937 0.48198 0.0
H1886 H 0.75647 0.07097 0.47905 0.0
H1887 H 0.72693 0.1533 0.49104 0.0
C1888 C 0.69358 0.13741 0.50762 0.0
C1889 C 0.68139 0.11551 0.51621 0.0
C1890 C 0.76735 0.08812 0.47966 0.0
C1891 C 0.72966 0.1127 0.49483 0.0
C1892 C 0.79283 0.08732 0.47326 0.0
C1893 C 0.80735 0.1093 0.47409 0.0
C1894 C 0.75628 0.11112 0.48667 0.0
C1895 C 0.7955 0.1319 0.48119 0.0
C1896 C 0.71763 0.13609 0.49693 0.0
C1897 C 0.69349 0.09234 0.5125 0.0
N1898 N 0.77069 0.13221 0.48718 0.0
N1899 N 0.7171 0.09155 0.50228 0.0
H1900 H 0.67355 0.0567 0.2216 0.0
H1901 H 0.59374 0.93638 0.26582 0.0
H1902 H 0.59272 0.05234 0.21876 0.0
H1903 H 0.67453 0.93896 0.27083 0.0
H1904 H 0.59369 0.97832 0.24654 0.0
H1905 H 0.67489 0.01365 0.23886 0.0
C1906 C 0.65608 0.0468 0.22482 0.0
C1907 C 0.63297 0.0582 0.21877 0.0
C1908 C 0.61149 0.96976 0.25171 0.0
C1909 C 0.63442 0.00882 0.23811 0.0
C1910 C 0.61153 0.94574 0.26268 0.0
C1911 C 0.63416 0.93421 0.27013 0.0
C1912 C 0.63425 0.98258 0.24822 0.0
C1913 C 0.65665 0.94715 0.26534 0.0
C1914 C 0.65688 0.02216 0.2345 0.0
C1915 C 0.61097 0.04435 0.22308 0.0
N1916 N 0.65612 0.97077 0.25486 0.0
N1917 N 0.61225 0.02044 0.23243 0.0
H1918 H 0.67802 0.83497 0.9801 0.0
H1919 H 0.7888 0.91522 0.04318 0.0
H1920 H 0.68022 0.91585 0.98075 0.0
H1921 H 0.79278 0.83578 0.02631 0.0
H1922 H 0.74399 0.91448 0.03296 0.0
H1923 H 0.71434 0.83403 0.01 0.0
C1924 C 0.68583 0.85252 0.98719 0.0
C1925 C 0.67631 0.87554 0.97817 0.0
C1926 C 0.75463 0.89716 0.03183 0.0
C1927 C 0.71803 0.87468 0.01152 0.0
C1928 C 0.78022 0.89756 0.03758 0.0
C1929 C 0.79468 0.87565 0.03485 0.0
C1930 C 0.74346 0.8747 0.0233 0.0
C1931 C 0.78247 0.85323 0.02805 0.0
C1932 C 0.70653 0.85201 0.00415 0.0
C1933 C 0.6869 0.89779 0.98774 0.0
N1934 N 0.75761 0.85341 0.02216 0.0
N1935 N 0.70754 0.89684 0.00361 0.0
H1936 H 0.58155 0.55287 0.7649 0.0
H1937 H 0.66964 0.43881 0.72143 0.0
H1938 H 0.6623 0.55682 0.77022 0.0
H1939 H 0.58968 0.43325 0.73371 0.0
H1940 H 0.66837 0.48192 0.73866 0.0
H1941 H 0.58495 0.50931 0.7508 0.0
C1942 C 0.60003 0.5446 0.76288 0.0
C1943 C 0.62166 0.55849 0.76869 0.0
C1944 C 0.65119 0.47112 0.73778 0.0
C1945 C 0.62573 0.50843 0.75282 0.0
C1946 C 0.65192 0.44649 0.72813 0.0
C1947 C 0.62966 0.4326 0.72579 0.0
C1948 C 0.62802 0.48177 0.74493 0.0
C1949 C 0.60723 0.44344 0.73475 0.0
C1950 C 0.60197 0.51966 0.75499 0.0
C1951 C 0.64515 0.54685 0.76563 0.0
N1952 N 0.60696 0.46743 0.74365 0.0
N1953 N 0.64658 0.5224 0.75794 0.0
H1954 H 0.80036 0.41678 0.96954 0.0
H1955 H 0.67948 0.33785 0.01375 0.0
H1956 H 0.79655 0.33577 0.96963 0.0
H1957 H 0.68261 0.41877 0.01664 0.0
H1958 H 0.72102 0.33724 0.99337 0.0
H1959 H 0.75661 0.41837 0.98425 0.0
C1960 C 0.79044 0.39932 0.97292 0.0
C1961 C 0.80227 0.37609 0.96855 0.0
C1962 C 0.71259 0.35518 -0.0018 0.0
C1963 C 0.75199 0.3778 0.98486 0.0
C1964 C 0.6888 0.35553 0.00972 0.0
C1965 C 0.67765 0.37838 0.01702 0.0
C1966 C 0.72553 0.37785 0.9942 0.0
C1967 C 0.69048 0.40074 0.0112 0.0
C1968 C 0.76537 0.40026 0.98107 0.0
C1969 C 0.78828 0.35411 0.97279 0.0
N1970 N 0.71389 0.39991 0.00042 0.0
N1971 N 0.76395 0.35552 0.98069 0.0
H1972 H 0.89584 0.55561 0.22587 0.0
H1973 H 0.82276 0.43513 0.27928 0.0
H1974 H 0.81511 0.5538 0.23272 0.0
H1975 H 0.89969 0.43411 0.25251 0.0
H1976 H 0.8193 0.47889 0.26479 0.0
H1977 H 0.89758 0.51187 0.23969 0.0
C1978 C 0.87844 0.54606 0.2305 0.0
C1979 C 0.85526 0.55839 0.22796 0.0
C1980 C 0.83684 0.46899 0.26187 0.0
C1981 C 0.85717 0.50807 0.24378 0.0
C1982 C 0.83879 0.44394 0.26993 0.0
C1983 C 0.86156 0.4309 0.26702 0.0
C1984 C 0.85787 0.48112 0.25113 0.0
C1985 C 0.88182 0.44345 0.25523 0.0
C1986 C 0.87946 0.521 0.23827 0.0
C1987 C 0.83339 0.54509 0.23452 0.0
N1988 N 0.87955 0.46789 0.24789 0.0
N1989 N 0.83486 0.52055 0.24206 0.0
H1990 H 0.69596 0.65829 0.47576 0.0
H1991 H 0.8146 0.57662 0.51799 0.0
H1992 H 0.7014 0.57818 0.46356 0.0
H1993 H 0.81309 0.65757 0.52146 0.0
H1994 H 0.77507 0.57728 0.49345 0.0
H1995 H 0.74022 0.659 0.48845 0.0
C1996 C 0.70648 0.64086 0.47562 0.0
C1997 C 0.69483 0.61807 0.469 0.0
C1998 C 0.78355 0.59495 0.49916 0.0
C1999 C 0.74552 0.61875 0.48354 0.0
C2000 C 0.80626 0.59458 0.51297 0.0
C2001 C 0.8172 0.61708 0.52163 0.0
C2002 C 0.77142 0.61799 0.49439 0.0
C2003 C 0.80522 0.63978 0.51521 0.0
C2004 C 0.73179 0.6413 0.48278 0.0
C2005 C 0.7095 0.59614 0.46881 0.0
N2006 N 0.78283 0.63965 0.50223 0.0
N2007 N 0.73399 0.59699 0.47626 0.0
H2008 H 0.32517 0.54462 0.28591 0.0
H2009 H 0.39656 0.44527 0.19509 0.0
H2010 H 0.39495 0.56147 0.24634 0.0
H2011 H 0.34988 0.42265 0.26083 0.0
H2012 H 0.39277 0.4889 0.2094 0.0
H2013 H 0.32889 0.5008 0.27102 0.0
C2014 C 0.34099 0.53919 0.27368 0.0
C2015 C 0.35985 0.55654 0.26736 0.0
C2016 C 0.38331 0.47439 0.22071 0.0
C2017 C 0.36428 0.50678 0.25059 0.0
C2018 C 0.38563 0.44945 0.21271 0.0
C2019 C 0.37282 0.4304 0.22647 0.0
C2020 C 0.36796 0.48036 0.24247 0.0
C2021 C 0.35894 0.43697 0.24906 0.0
C2022 C 0.34326 0.51419 0.2655 0.0
C2023 C 0.3801 0.54855 0.2517 0.0
N2024 N 0.35659 0.46148 0.25626 0.0
N2025 N 0.38179 0.52424 0.24383 0.0
H2026 H 0.31122 0.65635 0.9868 0.0
H2027 H 0.19595 0.57159 0.03337 0.0
H2028 H 0.30696 0.57637 0.97403 0.0
H2029 H 0.19546 0.65271 0.03164 0.0
H2030 H 0.24046 0.57213 0.02153 0.0
H2031 H 0.27301 0.6542 0.01353 0.0
C2032 C 0.30246 0.63825 0.9901 0.0
C2033 C 0.31212 0.61649 0.97823 0.0
C2034 C 0.23063 0.58979 0.02399 0.0
C2035 C 0.26827 0.61393 0.00828 0.0
C2036 C 0.20523 0.58951 0.0307 0.0
C2037 C 0.19185 0.61214 0.03288 0.0
C2038 C 0.24268 0.61286 0.01955 0.0
C2039 C 0.2049 0.6348 0.0296 0.0
C2040 C 0.28066 0.63703 0.0053 0.0
C2041 C 0.3002 0.59351 0.98314 0.0
N2042 N 0.22954 0.63458 0.02287 0.0
N2043 N 0.27865 0.59285 0.99753 0.0
H2044 H 0.16203 0.44446 0.78346 0.0
H2045 H 0.09066 0.54844 0.69783 0.0
H2046 H 0.08922 0.4312 0.7486 0.0
H2047 H 0.14713 0.56616 0.7564 0.0
H2048 H 0.09176 0.50465 0.71238 0.0
H2049 H 0.16003 0.48803 0.76818 0.0
C2050 C 0.14583 0.45059 0.77213 0.0
C2051 C 0.12575 0.43423 0.76722 0.0
C2052 C 0.10387 0.51816 0.72208 0.0
C2053 C 0.12321 0.4841 0.75005 0.0
C2054 C 0.10321 0.54323 0.7139 0.0
C2055 C 0.1194 0.56097 0.72553 0.0
C2056 C 0.1209 0.51075 0.74191 0.0
C2057 C 0.13504 0.553 0.74633 0.0
C2058 C 0.14456 0.47554 0.76372 0.0
C2059 C 0.10506 0.44329 0.75279 0.0
N2060 N 0.13563 0.52844 0.75369 0.0
N2061 N 0.10431 0.46766 0.74468 0.0
H2062 H 0.1847 0.42068 0.47212 0.0
H2063 H 0.31082 0.34514 0.50432 0.0
H2064 H 0.19192 0.33995 0.46936 0.0
H2065 H 0.3011 0.42283 0.52658 0.0
H2066 H 0.26853 0.34489 0.48607 0.0
H2067 H 0.22788 0.42343 0.48886 0.0
C2068 C 0.19517 0.40353 0.47551 0.0
C2069 C 0.18462 0.38002 0.46956 0.0
C2070 C 0.27559 0.36206 0.49486 0.0
C2071 C 0.23414 0.38311 0.48777 0.0
C2072 C 0.2998 0.36225 0.50517 0.0
C2073 C 0.30935 0.38395 0.51726 0.0
C2074 C 0.26066 0.38372 0.49665 0.0
C2075 C 0.2944 0.40569 0.51745 0.0
C2076 C 0.21988 0.40514 0.48477 0.0
C2077 C 0.19927 0.35846 0.47366 0.0
N2078 N 0.27062 0.40498 0.50749 0.0
N2079 N 0.22327 0.36055 0.48236 0.0
H2080 H 0.06535 0.13413 0.06074 0.0
H2081 H 0.15087 0.10305 0.18504 0.0
H2082 H 0.14224 0.10884 0.05558 0.0
H2083 H 0.09451 0.16113 0.19166 0.0
H2084 H 0.14279 0.10059 0.13767 0.0
H2085 H 0.07153 0.14169 0.10873 0.0
C2086 C 0.08354 0.13045 0.06956 0.0
C2087 C 0.10318 0.12041 0.05421 0.0
C2088 C 0.1322 0.11395 0.14941 0.0
C2089 C 0.11012 0.12864 0.10866 0.0
C2090 C 0.13669 0.11528 0.17658 0.0
C2091 C 0.12349 0.13249 0.1924 0.0
C2092 C 0.11419 0.12972 0.13775 0.0
C2093 C 0.10519 0.14769 0.18015 0.0
C2094 C 0.08701 0.13476 0.09686 0.0
C2095 C 0.1264 0.11616 0.06661 0.0
N2096 N 0.10099 0.14594 0.15341 0.0
N2097 N 0.12908 0.11999 0.09308 0.0
H2098 H 0.12582 0.91553 0.44035 0.0
H2099 H 0.1069 0.82706 0.31438 0.0
H2100 H 0.07984 0.84885 0.44377 0.0
H2101 H 0.13573 0.90276 0.3104 0.0
H2102 H 0.09638 0.83388 0.36137 0.0
H2103 H 0.12991 0.91014 0.39257 0.0
C2104 C 0.11652 0.89971 0.43105 0.0
C2105 C 0.10254 0.88253 0.44616 0.0
C2106 C 0.10476 0.84904 0.35007 0.0
C2107 C 0.10722 0.87623 0.3911 0.0
C2108 C 0.11077 0.84518 0.32326 0.0
C2109 C 0.12252 0.86426 0.30851 0.0
C2110 C 0.11073 0.87206 0.36215 0.0
C2111 C 0.12698 0.88739 0.32103 0.0
C2112 C 0.11878 0.89672 0.40365 0.0
C2113 C 0.09082 0.86251 0.43287 0.0
N2114 N 0.12131 0.89052 0.34713 0.0
N2115 N 0.09359 0.85978 0.40606 0.0
H2116 H 0.33789 0.81631 0.66313 0.0
H2117 H 0.42545 0.89741 0.56653 0.0
H2118 H 0.38514 0.87716 0.6897 0.0
H2119 H 0.36738 0.8474 0.53874 0.0
H2120 H 0.41743 0.88352 0.61209 0.0
H2121 H 0.35484 0.82121 0.61822 0.0
C2122 C 0.35202 0.83054 0.65962 0.0
C2123 C 0.35982 0.8466 0.68018 0.0
C2124 C 0.40666 0.87535 0.59599 0.0
C2125 C 0.37931 0.85228 0.62871 0.0
C2126 C 0.4113 0.88317 0.56989 0.0
C2127 C 0.39679 0.87385 0.54872 0.0
C2128 C 0.3874 0.85801 0.60103 0.0
C2129 C 0.37883 0.85533 0.55442 0.0
C2130 C 0.36166 0.83333 0.63393 0.0
C2131 C 0.37834 0.86454 0.67442 0.0
N2132 N 0.37447 0.84822 0.58004 0.0
N2133 N 0.38729 0.86703 0.6492 0.0
H2134 H 0.32545 0.17232 0.82674 0.0
H2135 H 0.42163 0.09456 0.91724 0.0
H2136 H 0.38377 0.12443 0.79536 0.0
H2137 H 0.35778 0.1352 0.94796 0.0
H2138 H 0.41278 0.11163 0.87299 0.0
H2139 H 0.34184 0.16516 0.87158 0.0
C2140 C 0.34189 0.16056 0.82922 0.0
C2141 C 0.35304 0.14867 0.80729 0.0
C2142 C 0.40087 0.117 0.88948 0.0
C2143 C 0.37181 0.14031 0.85858 0.0
C2144 C 0.40594 0.10729 0.91477 0.0
C2145 C 0.39019 0.11314 0.93626 0.0
C2146 C 0.3799 0.13264 0.88566 0.0
C2147 C 0.37025 0.12992 0.93191 0.0
C2148 C 0.35121 0.15644 0.85485 0.0
C2149 C 0.3744 0.13376 0.81172 0.0
N2150 N 0.36553 0.13887 0.90706 0.0
N2151 N 0.38294 0.1298 0.83688 0.0
H2152 H 0.84388 0.89399 0.81776 0.0
H2153 H 0.92507 0.86497 0.9474 0.0
H2154 H 0.89919 0.83463 0.81774 0.0
H2155 H 0.84952 0.89406 0.94974 0.0
H2156 H 0.92036 0.8581 0.89911 0.0
H2157 H 0.85091 0.8998 0.86534 0.0
C2158 C 0.85763 0.88223 0.82769 0.0
C2159 C 0.87082 0.86363 0.81368 0.0
C2160 C 0.90484 0.86585 0.91033 0.0
C2161 C 0.87895 0.87029 0.86838 0.0
C2162 C 0.9075 0.86977 0.9378 0.0
C2163 C 0.8876 0.87995 0.95263 0.0
C2164 C 0.88239 0.87284 0.8976 0.0
C2165 C 0.86525 0.88591 0.9392 0.0
C2166 C 0.86152 0.8855 0.85492 0.0
C2167 C 0.8885 0.84911 0.82775 0.0
N2168 N 0.86337 0.88253 0.91248 0.0
N2169 N 0.89208 0.85274 0.85436 0.0
H2170 H 0.88045 0.17191 0.67893 0.0
H2171 H 0.87709 0.0738 0.55898 0.0
H2172 H 0.86442 0.09284 0.68769 0.0
H2173 H 0.89915 0.15121 0.54831 0.0
H2174 H 0.87524 0.08046 0.6067 0.0
H2175 H 0.89068 0.16469 0.63199 0.0
C2176 C 0.87934 0.153 0.6711 0.0
C2177 C 0.87123 0.133 0.68723 0.0
C2178 C 0.88066 0.09601 0.59405 0.0
C2179 C 0.88273 0.12468 0.63353 0.0
C2180 C 0.88168 0.09224 0.56666 0.0
C2181 C 0.8881 0.11205 0.54948 0.0
C2182 C 0.88591 0.11984 0.60459 0.0
C2183 C 0.89397 0.13545 0.56078 0.0
C2184 C 0.88515 0.14891 0.64428 0.0
C2185 C 0.87032 0.10888 0.67601 0.0
N2186 N 0.89255 0.13877 0.58765 0.0
N2187 N 0.87574 0.10548 0.64987 0.0
H2188 H 0.62902 0.13641 0.44558 0.0
H2189 H 0.60399 0.11133 0.292 0.0
H2190 H 0.57352 0.08403 0.41677 0.0
H2191 H 0.65172 0.17069 0.32125 0.0
H2192 H 0.58888 0.10434 0.33731 0.0
H2193 H 0.63416 0.15235 0.40032 0.0
C2194 C 0.61773 0.12842 0.42978 0.0
C2195 C 0.60109 0.1086 0.43491 0.0
C2196 C 0.6024 0.11913 0.33377 0.0
C2197 C 0.60701 0.12664 0.38297 0.0
C2198 C 0.61102 0.12315 0.30788 0.0
C2199 C 0.62946 0.14134 0.30289 0.0
C2200 C 0.61248 0.13324 0.35485 0.0
C2201 C 0.63772 0.15624 0.3242 0.0
C2202 C 0.62063 0.13757 0.40392 0.0
C2203 C 0.58676 0.09916 0.41369 0.0
N2204 N 0.62945 0.15161 0.3493 0.0
N2205 N 0.59029 0.10804 0.38859 0.0
H2206 H 0.62989 0.85141 0.04768 0.0
H2207 H 0.60852 0.88136 0.20003 0.0
H2208 H 0.57133 0.90076 0.07587 0.0
H2209 H 0.65441 0.81967 0.17273 0.0
H2210 H 0.59201 0.88629 0.15498 0.0
H2211 H 0.63672 0.83697 0.09327 0.0
C2212 C 0.61825 0.85898 0.06342 0.0
C2213 C 0.60024 0.87758 0.05805 0.0
C2214 C 0.60542 0.87143 0.15891 0.0
C2215 C 0.60812 0.86131 0.11026 0.0
C2216 C 0.6149 0.86865 0.18462 0.0
C2217 C 0.63318 0.85035 0.19002 0.0
C2218 C 0.61455 0.85604 0.13839 0.0
C2219 C 0.64055 0.83422 0.16938 0.0
C2220 C 0.62212 0.85069 0.08944 0.0
C2221 C 0.58556 0.88656 0.07915 0.0
N2222 N 0.6315 0.8377 0.14435 0.0
N2223 N 0.59008 0.87861 0.10441 0.0
H2224 H 0.64897 0.66962 0.66234 0.0
H2225 H 0.57351 0.58255 0.56017 0.0
H2226 H 0.60485 0.60547 0.68619 0.0
H2227 H 0.62566 0.64025 0.53612 0.0
H2228 H 0.57927 0.59515 0.60653 0.0
H2229 H 0.63523 0.66338 0.61643 0.0
C2230 C 0.63621 0.65434 0.658 0.0
C2231 C 0.62829 0.63786 0.67816 0.0
C2232 C 0.58925 0.60524 0.59109 0.0
C2233 C 0.61251 0.63059 0.62547 0.0
C2234 C 0.58589 0.59813 0.56456 0.0
C2235 C 0.5993 0.61021 0.54418 0.0
C2236 C 0.60613 0.62459 0.59736 0.0
C2237 C 0.61506 0.63028 0.55116 0.0
C2238 C 0.62839 0.65078 0.63172 0.0
C2239 C 0.61161 0.61851 0.67128 0.0
N2240 N 0.61819 0.63669 0.57716 0.0
N2241 N 0.60443 0.6153 0.6455 0.0
H2242 H 0.60683 0.37639 0.79077 0.0
H2243 H 0.63163 0.35647 0.94534 0.0
H2244 H 0.65899 0.32164 0.82204 0.0
H2245 H 0.57268 0.40383 0.91414 0.0
H2246 H 0.63876 0.34002 0.9006 0.0
H2247 H 0.59075 0.38311 0.83567 0.0
C2248 C 0.6147 0.36554 0.80703 0.0
C2249 C 0.6346 0.34874 0.80269 0.0
C2250 C 0.62407 0.3538 0.90357 0.0
C2251 C 0.61643 0.35655 0.85425 0.0
C2252 C 0.62002 0.36325 0.92912 0.0
C2253 C 0.60179 0.38185 0.93341 0.0
C2254 C 0.60999 0.36324 0.88209 0.0
C2255 C 0.58712 0.3897 0.91171 0.0
C2256 C 0.60549 0.36939 0.8327 0.0
C2257 C 0.64385 0.33501 0.82449 0.0
N2258 N 0.59176 0.38061 0.88693 0.0
N2259 N 0.63494 0.33949 0.84938 0.0
H2260 H 0.84542 0.3941 0.05927 0.0
H2261 H 0.89115 0.32079 0.1888 0.0
H2262 H 0.9122 0.34805 0.0573 0.0
H2263 H 0.84495 0.38753 0.18926 0.0
H2264 H 0.89731 0.32635 0.14053 0.0
H2265 H 0.84208 0.38668 0.10673 0.0
C2266 C 0.85933 0.38222 0.06876 0.0
C2267 C 0.8792 0.37177 0.05422 0.0
C2268 C 0.88599 0.33977 0.15139 0.0
C2269 C 0.87549 0.36327 0.10901 0.0
C2270 C 0.88247 0.33664 0.17886 0.0
C2271 C 0.86726 0.35355 0.19305 0.0
C2272 C 0.874 0.35977 0.13821 0.0
C2273 C 0.85655 0.3738 0.17919 0.0
C2274 C 0.85749 0.37813 0.09599 0.0
C2275 C 0.89663 0.35655 0.06779 0.0
N2276 N 0.85998 0.3762 0.15262 0.0
N2277 N 0.89438 0.35271 0.09454 0.0
H2278 H 0.9085 0.63665 0.299 0.0
H2279 H 0.85437 0.63174 0.44754 0.0
H2280 H 0.82986 0.63653 0.31955 0.0
H2281 H 0.93102 0.61274 0.42832 0.0
H2282 H 0.84733 0.64333 0.40118 0.0
H2283 H 0.91892 0.63672 0.34672 0.0
C2284 C 0.89346 0.63683 0.31348 0.0
C2285 C 0.86828 0.63622 0.30526 0.0
C2286 C 0.86579 0.6369 0.40714 0.0
C2287 C 0.88002 0.63656 0.35961 0.0
C2288 C 0.86987 0.63039 0.43368 0.0
C2289 C 0.89321 0.62083 0.44175 0.0
C2290 C 0.88516 0.63386 0.38848 0.0
C2291 C 0.91262 0.61969 0.42287 0.0
C2292 C 0.89941 0.63687 0.34066 0.0
C2293 C 0.84954 0.63665 0.32489 0.0
N2294 N 0.90808 0.62583 0.397 0.0
N2295 N 0.8558 0.63668 0.35106 0.0
H2296 H 0.4151 0.35645 0.30499 0.0
H2297 H 0.35467 0.37067 0.44991 0.0
H2298 H 0.33568 0.35869 0.32162 0.0
H2299 H 0.43339 0.38279 0.43438 0.0
H2300 H 0.34905 0.3574 0.40395 0.0
H2301 H 0.4235 0.35805 0.35309 0.0
C2302 C 0.39946 0.35708 0.31872 0.0
C2303 C 0.37467 0.35788 0.30928 0.0
C2304 C 0.36762 0.36276 0.41059 0.0
C2305 C 0.3841 0.35946 0.36407 0.0
C2306 C 0.37086 0.37034 0.43688 0.0
C2307 C 0.39445 0.37837 0.44586 0.0
C2308 C 0.38806 0.36336 0.39299 0.0
C2309 C 0.41481 0.37707 0.42818 0.0
C2310 C 0.40426 0.35799 0.34612 0.0
C2311 C 0.35511 0.35848 0.32794 0.0
N2312 N 0.41108 0.37004 0.40242 0.0
N2313 N 0.36026 0.35938 0.35436 0.0
H2314 H 0.3918 0.66495 0.19222 0.0
H2315 H 0.34189 0.60637 0.05601 0.0
H2316 H 0.33583 0.60658 0.18607 0.0
H2317 H 0.41524 0.64052 0.06088 0.0
H2318 H 0.3362 0.61361 0.10333 0.0
H2319 H 0.3984 0.66208 0.14376 0.0
C2320 C 0.38101 0.65152 0.18079 0.0
C2321 C 0.36315 0.63608 0.19324 0.0
C2322 C 0.35354 0.61961 0.09408 0.0
C2323 C 0.37032 0.63304 0.13818 0.0
C2324 C 0.35678 0.61558 0.06698 0.0
C2325 C 0.37924 0.62253 0.0545 0.0
C2326 C 0.37281 0.6308 0.10896 0.0
C2327 C 0.39771 0.63467 0.06979 0.0
C2328 C 0.38477 0.64993 0.15322 0.0
C2329 C 0.3497 0.61899 0.17746 0.0
N2330 N 0.39415 0.63833 0.09636 0.0
N2331 N 0.35347 0.61807 0.15085 0.0
H2332 H 0.07923 0.64759 0.81474 0.0
H2333 H 0.13924 0.61792 0.95722 0.0
H2334 H 0.15341 0.61671 0.82615 0.0
H2335 H 0.05916 0.61597 0.94456 0.0
H2336 H 0.14517 0.62659 0.90995 0.0
H2337 H 0.07198 0.64412 0.86298 0.0
C2338 C 0.09397 0.64009 0.82732 0.0
C2339 C 0.11694 0.63233 0.81631 0.0
C2340 C 0.12628 0.6245 0.91755 0.0
C2341 C 0.10888 0.62872 0.87137 0.0
C2342 C 0.12284 0.61975 0.94461 0.0
C2343 C 0.09864 0.61606 0.9549 0.0
C2344 C 0.10539 0.62594 0.90056 0.0
C2345 C 0.07814 0.61851 0.93743 0.0
C2346 C 0.08979 0.63812 0.8548 0.0
C2347 C 0.13538 0.62284 0.83363 0.0
N2348 N 0.08197 0.62328 0.91107 0.0
N2349 N 0.13098 0.62141 0.86022 0.0
H2350 H 0.08703 0.34373 0.69637 0.0
H2351 H 0.14911 0.37339 0.55463 0.0
H2352 H 0.16298 0.36962 0.68459 0.0
H2353 H 0.06911 0.3659 0.56544 0.0
H2354 H 0.15527 0.36348 0.60154 0.0
H2355 H 0.08088 0.34422 0.64784 0.0
C2356 C 0.1024 0.34939 0.68364 0.0
C2357 C 0.12546 0.35687 0.69459 0.0
C2358 C 0.13635 0.36381 0.59364 0.0
C2359 C 0.11865 0.35724 0.63931 0.0
C2360 C 0.13283 0.36938 0.56678 0.0
C2361 C 0.10852 0.37089 0.55615 0.0
C2362 C 0.11546 0.35971 0.61009 0.0
C2363 C 0.08817 0.36523 0.57288 0.0
C2364 C 0.09888 0.34966 0.65599 0.0
C2365 C 0.14479 0.3639 0.67714 0.0
N2366 N 0.09207 0.36013 0.59913 0.0
N2367 N 0.14091 0.36395 0.65046 0.0
loop_
_geom_bond_atom_site_label_1
_geom_bond_atom_site_label_2
_geom_bond_distance
_geom_bond_site_symmetry_2
_ccdc_geom_bond_type
Zn0 O6 1.969 . S
Zn0 O7 1.965 . S
Zn0 O11 2.024 . S
Zn0 O16 1.969 . S
Zn1 O8 1.969 . S
Zn1 O14 1.969 . S
Zn1 O15 1.965 . S
Zn1 O17 2.024 . S
C2 O3 1.229 . S
C2 O11 1.058 . S
O3 C2 1.229 . S
C4 O5 1.229 . S
C4 O17 1.058 . S
O5 C4 1.229 . S
O6 Zn0 1.969 . S
O6 C9 1.267 . S
O7 Zn0 1.965 . S
O7 C18 1.260 . S
O8 Zn1 1.969 . S
O8 C18 1.258 . S
C9 O6 1.267 . S
C9 O10 1.228 . S
O10 C9 1.228 . S
O11 Zn0 2.024 . S
O11 C2 1.058 . S
C12 O13 1.228 . S
C12 O14 1.267 . S
O13 C12 1.228 . S
O14 Zn1 1.969 . S
O14 C12 1.267 . S
O15 Zn1 1.965 . S
O15 C19 1.260 . S
O16 Zn0 1.969 . S
O16 C19 1.258 . S
O17 Zn1 2.024 . S
O17 C4 1.058 . S
C18 O7 1.260 . S
C18 O8 1.258 . S
C19 O15 1.260 . S
C19 O16 1.258 . S
Zn20 O26 1.969 . S
Zn20 O27 1.965 . S
Zn20 O31 2.024 . S
Zn20 O36 1.969 . S
Zn21 O28 1.969 . S
Zn21 O34 1.969 . S
Zn21 O35 1.965 . S
Zn21 O37 2.024 . S
C22 O23 1.229 . S
C22 O31 1.058 . S
O23 C22 1.229 . S
C24 O25 1.229 . S
C24 O37 1.058 . S
O25 C24 1.229 . S
O26 Zn20 1.969 . S
O26 C29 1.267 . S
O27 Zn20 1.965 . S
O27 C38 1.260 . S
O28 Zn21 1.969 . S
O28 C38 1.258 . S
C29 O26 1.267 . S
C29 O30 1.228 . S
O30 C29 1.228 . S
O31 Zn20 2.024 . S
O31 C22 1.058 . S
C32 O33 1.228 . S
C32 O34 1.267 . S
O33 C32 1.228 . S
O34 Zn21 1.969 . S
O34 C32 1.267 . S
O35 Zn21 1.965 . S
O35 C39 1.260 . S
O36 Zn20 1.969 . S
O36 C39 1.258 . S
O37 Zn21 2.024 . S
O37 C24 1.058 . S
C38 O27 1.260 . S
C38 O28 1.258 . S
C39 O35 1.260 . S
C39 O36 1.258 . S
Zn40 O46 1.969 . S
Zn40 O47 1.965 . S
Zn40 O51 2.024 . S
Zn40 O56 1.969 . S
Zn41 O48 1.969 . S
Zn41 O54 1.969 . S
Zn41 O55 1.965 . S
Zn41 O57 2.024 . S
C42 O43 1.229 . S
C42 O51 1.058 . S
O43 C42 1.229 . S
C44 O45 1.229 . S
C44 O57 1.058 . S
O45 C44 1.229 . S
O46 Zn40 1.969 . S
O46 C49 1.267 . S
O47 Zn40 1.965 . S
O47 C58 1.260 . S
O48 Zn41 1.969 . S
O48 C58 1.258 . S
C49 O46 1.267 . S
C49 O50 1.228 . S
O50 C49 1.228 . S
O51 Zn40 2.024 . S
O51 C42 1.058 . S
C52 O53 1.228 . S
C52 O54 1.267 . S
O53 C52 1.228 . S
O54 Zn41 1.969 . S
O54 C52 1.267 . S
O55 Zn41 1.965 . S
O55 C59 1.260 . S
O56 Zn40 1.969 . S
O56 C59 1.258 . S
O57 Zn41 2.024 . S
O57 C44 1.058 . S
C58 O47 1.260 . S
C58 O48 1.258 . S
C59 O55 1.260 . S
C59 O56 1.258 . S
Zn60 O66 1.969 . S
Zn60 O67 1.965 . S
Zn60 O71 2.024 . S
Zn60 O76 1.969 . S
Zn61 O68 1.969 . S
Zn61 O74 1.969 . S
Zn61 O75 1.965 . S
Zn61 O77 2.024 1_554 S
C62 O63 1.229 . S
C62 O71 1.058 . S
O63 C62 1.229 . S
C64 O65 1.229 . S
C64 O77 1.058 . S
O65 C64 1.229 . S
O66 Zn60 1.969 . S
O66 C69 1.267 . S
O67 Zn60 1.965 . S
O67 C78 1.260 . S
O68 Zn61 1.969 . S
O68 C78 1.258 . S
C69 O66 1.267 . S
C69 O70 1.228 . S
O70 C69 1.228 . S
O71 Zn60 2.024 . S
O71 C62 1.058 . S
C72 O73 1.228 . S
C72 O74 1.267 1_556 S
O73 C72 1.228 . S
O74 Zn61 1.969 . S
O74 C72 1.267 1_554 S
O75 Zn61 1.965 . S
O75 C79 1.260 . S
O76 Zn60 1.969 . S
O76 C79 1.258 . S
O77 Zn61 2.024 1_556 S
O77 C64 1.058 . S
C78 O67 1.260 . S
C78 O68 1.258 . S
C79 O75 1.260 . S
C79 O76 1.258 . S
Zn80 O86 1.969 . S
Zn80 O87 1.965 . S
Zn80 O91 2.024 . S
Zn80 O96 1.969 . S
Zn81 O88 1.969 . S
Zn81 O94 1.969 . S
Zn81 O95 1.965 . S
Zn81 O97 2.024 . S
C82 O83 1.229 . S
C82 O91 1.058 . S
O83 C82 1.229 . S
C84 O85 1.229 . S
C84 O97 1.058 . S
O85 C84 1.229 . S
O86 Zn80 1.969 . S
O86 C89 1.267 . S
O87 Zn80 1.965 . S
O87 C98 1.260 . S
O88 Zn81 1.969 . S
O88 C98 1.258 . S
C89 O86 1.267 . S
C89 O90 1.228 . S
O90 C89 1.228 . S
O91 Zn80 2.024 . S
O91 C82 1.058 . S
C92 O93 1.228 . S
C92 O94 1.267 . S
O93 C92 1.228 . S
O94 Zn81 1.969 . S
O94 C92 1.267 . S
O95 Zn81 1.965 . S
O95 C99 1.260 . S
O96 Zn80 1.969 . S
O96 C99 1.258 . S
O97 Zn81 2.024 . S
O97 C84 1.058 . S
C98 O87 1.260 . S
C98 O88 1.258 . S
C99 O95 1.260 . S
C99 O96 1.258 . S
Zn100 O106 1.969 . S
Zn100 O107 1.965 . S
Zn100 O111 2.024 . S
Zn100 O116 1.969 . S
Zn101 O108 1.969 . S
Zn101 O114 1.969 . S
Zn101 O115 1.965 . S
Zn101 O117 2.024 . S
C102 O103 1.229 . S
C102 O111 1.058 . S
O103 C102 1.229 . S
C104 O105 1.229 . S
C104 O117 1.058 . S
O105 C104 1.229 . S
O106 Zn100 1.969 . S
O106 C109 1.267 . S
O107 Zn100 1.965 . S
O107 C118 1.260 . S
O108 Zn101 1.969 . S
O108 C118 1.258 . S
C109 O106 1.267 . S
C109 O110 1.228 . S
O110 C109 1.228 . S
O111 Zn100 2.024 . S
O111 C102 1.058 . S
C112 O113 1.228 . S
C112 O114 1.267 . S
O113 C112 1.228 . S
O114 Zn101 1.969 . S
O114 C112 1.267 . S
O115 Zn101 1.965 . S
O115 C119 1.260 . S
O116 Zn100 1.969 . S
O116 C119 1.258 . S
O117 Zn101 2.024 . S
O117 C104 1.058 . S
C118 O107 1.260 . S
C118 O108 1.258 . S
C119 O115 1.260 . S
C119 O116 1.258 . S
Zn120 O126 1.969 . S
Zn120 O127 1.965 . S
Zn120 O131 2.024 . S
Zn120 O136 1.969 . S
Zn121 O128 1.969 . S
Zn121 O134 1.969 . S
Zn121 O135 1.965 . S
Zn121 O137 2.024 . S
C122 O123 1.229 . S
C122 O131 1.058 . S
O123 C122 1.229 . S
C124 O125 1.229 . S
C124 O137 1.058 . S
O125 C124 1.229 . S
O126 Zn120 1.969 . S
O126 C129 1.267 . S
O127 Zn120 1.965 . S
O127 C138 1.260 . S
O128 Zn121 1.969 . S
O128 C138 1.258 . S
C129 O126 1.267 . S
C129 O130 1.228 . S
O130 C129 1.228 . S
O131 Zn120 2.024 . S
O131 C122 1.058 . S
C132 O133 1.228 . S
C132 O134 1.267 . S
O133 C132 1.228 . S
O134 Zn121 1.969 . S
O134 C132 1.267 . S
O135 Zn121 1.965 . S
O135 C139 1.260 . S
O136 Zn120 1.969 . S
O136 C139 1.258 . S
O137 Zn121 2.024 . S
O137 C124 1.058 . S
C138 O127 1.260 . S
C138 O128 1.258 . S
C139 O135 1.260 . S
C139 O136 1.258 . S
Zn140 O146 1.969 . S
Zn140 O147 1.965 . S
Zn140 O151 2.024 . S
Zn140 O156 1.969 . S
Zn141 O148 1.969 . S
Zn141 O154 1.969 . S
Zn141 O155 1.965 . S
Zn141 O157 2.024 1_556 S
C142 O143 1.229 . S
C142 O151 1.058 . S
O143 C142 1.229 . S
C144 O145 1.229 . S
C144 O157 1.058 . S
O145 C144 1.229 . S
O146 Zn140 1.969 . S
O146 C149 1.267 . S
O147 Zn140 1.965 . S
O147 C158 1.260 . S
O148 Zn141 1.969 . S
O148 C158 1.258 . S
C149 O146 1.267 . S
C149 O150 1.228 . S
O150 C149 1.228 . S
O151 Zn140 2.024 . S
O151 C142 1.058 . S
C152 O153 1.228 . S
C152 O154 1.267 1_554 S
O153 C152 1.228 . S
O154 Zn141 1.969 . S
O154 C152 1.267 1_556 S
O155 Zn141 1.965 . S
O155 C159 1.260 . S
O156 Zn140 1.969 . S
O156 C159 1.258 . S
O157 Zn141 2.024 1_554 S
O157 C144 1.058 . S
C158 O147 1.260 . S
C158 O148 1.258 . S
C159 O155 1.260 . S
C159 O156 1.258 . S
Zn160 O166 1.969 . S
Zn160 O167 1.965 . S
Zn160 O171 2.024 . S
Zn160 O176 1.969 . S
Zn161 O168 1.969 . S
Zn161 O174 1.969 . S
Zn161 O175 1.965 . S
Zn161 O177 2.024 . S
C162 O163 1.229 . S
C162 O171 1.058 . S
O163 C162 1.229 . S
C164 O165 1.229 . S
C164 O177 1.058 . S
O165 C164 1.229 . S
O166 Zn160 1.969 . S
O166 C169 1.267 . S
O167 Zn160 1.965 . S
O167 C178 1.260 . S
O168 Zn161 1.969 . S
O168 C178 1.258 . S
C169 O166 1.267 . S
C169 O170 1.228 . S
O170 C169 1.228 . S
O171 Zn160 2.024 . S
O171 C162 1.058 . S
C172 O173 1.228 . S
C172 O174 1.267 . S
O173 C172 1.228 . S
O174 Zn161 1.969 . S
O174 C172 1.267 . S
O175 Zn161 1.965 . S
O175 C179 1.260 . S
O176 Zn160 1.969 . S
O176 C179 1.258 . S
O177 Zn161 2.024 . S
O177 C164 1.058 . S
C178 O167 1.260 . S
C178 O168 1.258 . S
C179 O175 1.260 . S
C179 O176 1.258 . S
Zn180 O186 1.969 . S
Zn180 O187 1.965 . S
Zn180 O191 2.024 . S
Zn180 O196 1.969 . S
Zn181 O188 1.969 . S
Zn181 O194 1.969 . S
Zn181 O195 1.965 . S
Zn181 O197 2.024 . S
C182 O183 1.229 . S
C182 O191 1.058 . S
O183 C182 1.229 . S
C184 O185 1.229 . S
C184 O197 1.058 . S
O185 C184 1.229 . S
O186 Zn180 1.969 . S
O186 C189 1.267 . S
O187 Zn180 1.965 . S
O187 C198 1.260 . S
O188 Zn181 1.969 . S
O188 C198 1.258 . S
C189 O186 1.267 . S
C189 O190 1.228 . S
O190 C189 1.228 . S
O191 Zn180 2.024 . S
O191 C182 1.058 . S
C192 O193 1.228 . S
C192 O194 1.267 . S
O193 C192 1.228 . S
O194 Zn181 1.969 . S
O194 C192 1.267 . S
O195 Zn181 1.965 . S
O195 C199 1.260 . S
O196 Zn180 1.969 . S
O196 C199 1.258 . S
O197 Zn181 2.024 . S
O197 C184 1.058 . S
C198 O187 1.260 . S
C198 O188 1.258 . S
C199 O195 1.260 . S
C199 O196 1.258 . S
Zn200 O206 1.969 . S
Zn200 O207 1.965 . S
Zn200 O211 2.024 . S
Zn200 O216 1.969 . S
Zn201 O208 1.969 . S
Zn201 O214 1.969 . S
Zn201 O215 1.965 . S
Zn201 O217 2.024 . S
C202 O203 1.229 . S
C202 O211 1.058 . S
O203 C202 1.229 . S
C204 O205 1.229 . S
C204 O217 1.058 . S
O205 C204 1.229 . S
O206 Zn200 1.969 . S
O206 C209 1.267 . S
O207 Zn200 1.965 . S
O207 C218 1.260 . S
O208 Zn201 1.969 . S
O208 C218 1.258 . S
C209 O206 1.267 . S
C209 O210 1.228 . S
O210 C209 1.228 . S
O211 Zn200 2.024 . S
O211 C202 1.058 . S
C212 O213 1.228 . S
C212 O214 1.267 . S
O213 C212 1.228 . S
O214 Zn201 1.969 . S
O214 C212 1.267 . S
O215 Zn201 1.965 . S
O215 C219 1.260 . S
O216 Zn200 1.969 . S
O216 C219 1.258 . S
O217 Zn201 2.024 . S
O217 C204 1.058 . S
C218 O207 1.260 . S
C218 O208 1.258 . S
C219 O215 1.260 . S
C219 O216 1.258 . S
Zn220 O226 1.969 . S
Zn220 O227 1.965 . S
Zn220 O231 2.024 1_556 S
Zn220 O236 1.969 . S
Zn221 O228 1.969 . S
Zn221 O234 1.969 . S
Zn221 O235 1.965 . S
Zn221 O237 2.024 . S
C222 O223 1.229 . S
C222 O231 1.058 . S
O223 C222 1.229 . S
C224 O225 1.229 . S
C224 O237 1.058 . S
O225 C224 1.229 . S
O226 Zn220 1.969 . S
O226 C229 1.267 1_556 S
O227 Zn220 1.965 . S
O227 C238 1.260 . S
O228 Zn221 1.969 . S
O228 C238 1.258 . S
C229 O226 1.267 1_554 S
C229 O230 1.228 . S
O230 C229 1.228 . S
O231 Zn220 2.024 1_554 S
O231 C222 1.058 . S
C232 O233 1.228 . S
C232 O234 1.267 . S
O233 C232 1.228 . S
O234 Zn221 1.969 . S
O234 C232 1.267 . S
O235 Zn221 1.965 . S
O235 C239 1.260 . S
O236 Zn220 1.969 . S
O236 C239 1.258 . S
O237 Zn221 2.024 . S
O237 C224 1.058 . S
C238 O227 1.260 . S
C238 O228 1.258 . S
C239 O235 1.260 . S
C239 O236 1.258 . S
Zn240 O246 1.969 . S
Zn240 O247 1.965 . S
Zn240 O251 2.024 . S
Zn240 O256 1.969 . S
Zn241 O248 1.969 . S
Zn241 O254 1.969 . S
Zn241 O255 1.965 . S
Zn241 O257 2.024 . S
C242 O243 1.229 . S
C242 O251 1.058 . S
O243 C242 1.229 . S
C244 O245 1.229 . S
C244 O257 1.058 . S
O245 C244 1.229 . S
O246 Zn240 1.969 . S
O246 C249 1.267 . S
O247 Zn240 1.965 . S
O247 C258 1.260 . S
O248 Zn241 1.969 . S
O248 C258 1.258 . S
C249 O246 1.267 . S
C249 O250 1.228 . S
O250 C249 1.228 . S
O251 Zn240 2.024 . S
O251 C242 1.058 . S
C252 O253 1.228 . S
C252 O254 1.267 . S
O253 C252 1.228 . S
O254 Zn241 1.969 . S
O254 C252 1.267 . S
O255 Zn241 1.965 . S
O255 C259 1.260 . S
O256 Zn240 1.969 . S
O256 C259 1.258 . S
O257 Zn241 2.024 . S
O257 C244 1.058 . S
C258 O247 1.260 . S
C258 O248 1.258 . S
C259 O255 1.260 . S
C259 O256 1.258 . S
Zn260 O266 1.969 . S
Zn260 O267 1.965 . S
Zn260 O271 2.024 . S
Zn260 O276 1.969 . S
Zn261 O268 1.969 . S
Zn261 O274 1.969 . S
Zn261 O275 1.965 . S
Zn261 O277 2.024 . S
C262 O263 1.229 . S
C262 O271 1.058 . S
O263 C262 1.229 . S
C264 O265 1.229 . S
C264 O277 1.058 . S
O265 C264 1.229 . S
O266 Zn260 1.969 . S
O266 C269 1.267 . S
O267 Zn260 1.965 . S
O267 C278 1.260 . S
O268 Zn261 1.969 . S
O268 C278 1.258 . S
C269 O266 1.267 . S
C269 O270 1.228 . S
O270 C269 1.228 . S
O271 Zn260 2.024 . S
O271 C262 1.058 . S
C272 O273 1.228 . S
C272 O274 1.267 . S
O273 C272 1.228 . S
O274 Zn261 1.969 . S
O274 C272 1.267 . S
O275 Zn261 1.965 . S
O275 C279 1.260 . S
O276 Zn260 1.969 . S
O276 C279 1.258 . S
O277 Zn261 2.024 . S
O277 C264 1.058 . S
C278 O267 1.260 . S
C278 O268 1.258 . S
C279 O275 1.260 . S
C279 O276 1.258 . S
Zn280 O286 1.969 . S
Zn280 O287 1.965 . S
Zn280 O291 2.024 . S
Zn280 O296 1.969 . S
Zn281 O288 1.969 . S
Zn281 O294 1.969 . S
Zn281 O295 1.965 . S
Zn281 O297 2.024 . S
C282 O283 1.229 . S
C282 O291 1.058 . S
O283 C282 1.229 . S
C284 O285 1.229 . S
C284 O297 1.058 . S
O285 C284 1.229 . S
O286 Zn280 1.969 . S
O286 C289 1.267 . S
O287 Zn280 1.965 . S
O287 C298 1.260 . S
O288 Zn281 1.969 . S
O288 C298 1.258 . S
C289 O286 1.267 . S
C289 O290 1.228 . S
O290 C289 1.228 . S
O291 Zn280 2.024 . S
O291 C282 1.058 . S
C292 O293 1.228 . S
C292 O294 1.267 . S
O293 C292 1.228 . S
O294 Zn281 1.969 . S
O294 C292 1.267 . S
O295 Zn281 1.965 . S
O295 C299 1.260 . S
O296 Zn280 1.969 . S
O296 C299 1.258 . S
O297 Zn281 2.024 . S
O297 C284 1.058 . S
C298 O287 1.260 . S
C298 O288 1.258 . S
C299 O295 1.260 . S
C299 O296 1.258 . S
Zn300 O306 1.969 . S
Zn300 O307 1.965 . S
Zn300 O311 2.024 1_554 S
Zn300 O316 1.969 . S
Zn301 O308 1.969 . S
Zn301 O314 1.969 . S
Zn301 O315 1.965 . S
Zn301 O317 2.024 . S
C302 O303 1.229 . S
C302 O311 1.058 . S
O303 C302 1.229 . S
C304 O305 1.229 . S
C304 O317 1.058 . S
O305 C304 1.229 . S
O306 Zn300 1.969 . S
O306 C309 1.267 1_554 S
O307 Zn300 1.965 . S
O307 C318 1.260 . S
O308 Zn301 1.969 . S
O308 C318 1.258 . S
C309 O306 1.267 1_556 S
C309 O310 1.228 . S
O310 C309 1.228 . S
O311 Zn300 2.024 1_556 S
O311 C302 1.058 . S
C312 O313 1.228 . S
C312 O314 1.267 . S
O313 C312 1.228 . S
O314 Zn301 1.969 . S
O314 C312 1.267 . S
O315 Zn301 1.965 . S
O315 C319 1.260 . S
O316 Zn300 1.969 . S
O316 C319 1.258 . S
O317 Zn301 2.024 . S
O317 C304 1.058 . S
C318 O307 1.260 . S
C318 O308 1.258 . S
C319 O315 1.260 . S
C319 O316 1.258 . S
Zn320 O326 1.969 . S
Zn320 O327 1.965 . S
Zn320 O331 2.024 . S
Zn320 O336 1.969 . S
Zn321 O328 1.969 . S
Zn321 O334 1.969 . S
Zn321 O335 1.965 . S
Zn321 O337 2.024 . S
C322 O323 1.229 . S
C322 O331 1.058 . S
O323 C322 1.229 . S
C324 O325 1.229 . S
C324 O337 1.058 . S
O325 C324 1.229 . S
O326 Zn320 1.969 . S
O326 C329 1.267 . S
O327 Zn320 1.965 . S
O327 C338 1.260 . S
O328 Zn321 1.969 . S
O328 C338 1.258 . S
C329 O326 1.267 . S
C329 O330 1.228 . S
O330 C329 1.228 . S
O331 Zn320 2.024 . S
O331 C322 1.058 . S
C332 O333 1.228 . S
C332 O334 1.267 . S
O333 C332 1.228 . S
O334 Zn321 1.969 . S
O334 C332 1.267 . S
O335 Zn321 1.965 . S
O335 C339 1.260 . S
O336 Zn320 1.969 . S
O336 C339 1.258 . S
O337 Zn321 2.024 . S
O337 C324 1.058 . S
C338 O327 1.260 . S
C338 O328 1.258 . S
C339 O335 1.260 . S
C339 O336 1.258 . S
Zn340 O346 1.969 . S
Zn340 O347 1.965 . S
Zn340 O351 2.024 . S
Zn340 O356 1.969 . S
Zn341 O348 1.969 . S
Zn341 O354 1.969 . S
Zn341 O355 1.965 . S
Zn341 O357 2.024 1_554 S
C342 O343 1.229 . S
C342 O351 1.058 . S
O343 C342 1.229 . S
C344 O345 1.229 . S
C344 O357 1.058 . S
O345 C344 1.229 . S
O346 Zn340 1.969 . S
O346 C349 1.267 . S
O347 Zn340 1.965 . S
O347 C358 1.260 . S
O348 Zn341 1.969 . S
O348 C358 1.258 . S
C349 O346 1.267 . S
C349 O350 1.228 . S
O350 C349 1.228 . S
O351 Zn340 2.024 . S
O351 C342 1.058 . S
C352 O353 1.228 . S
C352 O354 1.267 1_556 S
O353 C352 1.228 . S
O354 Zn341 1.969 . S
O354 C352 1.267 1_554 S
O355 Zn341 1.965 . S
O355 C359 1.260 . S
O356 Zn340 1.969 . S
O356 C359 1.258 . S
O357 Zn341 2.024 1_556 S
O357 C344 1.058 . S
C358 O347 1.260 . S
C358 O348 1.258 . S
C359 O355 1.260 . S
C359 O356 1.258 . S
Zn360 O366 1.969 . S
Zn360 O367 1.965 . S
Zn360 O371 2.024 . S
Zn360 O376 1.969 . S
Zn361 O368 1.969 . S
Zn361 O374 1.969 . S
Zn361 O375 1.965 . S
Zn361 O377 2.024 . S
C362 O363 1.229 . S
C362 O371 1.058 . S
O363 C362 1.229 . S
C364 O365 1.229 . S
C364 O377 1.058 . S
O365 C364 1.229 . S
O366 Zn360 1.969 . S
O366 C369 1.267 . S
O367 Zn360 1.965 . S
O367 C378 1.260 . S
O368 Zn361 1.969 . S
O368 C378 1.258 . S
C369 O366 1.267 . S
C369 O370 1.228 . S
O370 C369 1.228 . S
O371 Zn360 2.024 . S
O371 C362 1.058 . S
C372 O373 1.228 . S
C372 O374 1.267 . S
O373 C372 1.228 . S
O374 Zn361 1.969 . S
O374 C372 1.267 . S
O375 Zn361 1.965 . S
O375 C379 1.260 . S
O376 Zn360 1.969 . S
O376 C379 1.258 . S
O377 Zn361 2.024 . S
O377 C364 1.058 . S
C378 O367 1.260 . S
C378 O368 1.258 . S
C379 O375 1.260 . S
C379 O376 1.258 . S
Zn380 O386 1.969 . S
Zn380 O387 1.965 . S
Zn380 O391 2.024 . S
Zn380 O396 1.969 . S
Zn381 O388 1.969 . S
Zn381 O394 1.969 . S
Zn381 O395 1.965 . S
Zn381 O397 2.024 . S
C382 O383 1.229 . S
C382 O391 1.058 . S
O383 C382 1.229 . S
C384 O385 1.229 . S
C384 O397 1.058 . S
O385 C384 1.229 . S
O386 Zn380 1.969 . S
O386 C389 1.267 . S
O387 Zn380 1.965 . S
O387 C398 1.260 . S
O388 Zn381 1.969 . S
O388 C398 1.258 . S
C389 O386 1.267 . S
C389 O390 1.228 . S
O390 C389 1.228 . S
O391 Zn380 2.024 . S
O391 C382 1.058 . S
C392 O393 1.228 . S
C392 O394 1.267 . S
O393 C392 1.228 . S
O394 Zn381 1.969 . S
O394 C392 1.267 . S
O395 Zn381 1.965 . S
O395 C399 1.260 . S
O396 Zn380 1.969 . S
O396 C399 1.258 . S
O397 Zn381 2.024 . S
O397 C384 1.058 . S
C398 O387 1.260 . S
C398 O388 1.258 . S
C399 O395 1.260 . S
C399 O396 1.258 . S
Zn400 O406 1.969 . S
Zn400 O407 1.965 . S
Zn400 O411 2.024 . S
Zn400 O416 1.969 . S
Zn401 O408 1.969 . S
Zn401 O414 1.969 . S
Zn401 O415 1.965 . S
Zn401 O417 2.024 . S
C402 O403 1.229 . S
C402 O411 1.058 . S
O403 C402 1.229 . S
C404 O405 1.229 . S
C404 O417 1.058 . S
O405 C404 1.229 . S
O406 Zn400 1.969 . S
O406 C409 1.267 . S
O407 Zn400 1.965 . S
O407 C418 1.260 . S
O408 Zn401 1.969 . S
O408 C418 1.258 . S
C409 O406 1.267 . S
C409 O410 1.228 . S
O410 C409 1.228 . S
O411 Zn400 2.024 . S
O411 C402 1.058 . S
C412 O413 1.228 . S
C412 O414 1.267 . S
O413 C412 1.228 . S
O414 Zn401 1.969 . S
O414 C412 1.267 . S
O415 Zn401 1.965 . S
O415 C419 1.260 . S
O416 Zn400 1.969 . S
O416 C419 1.258 . S
O417 Zn401 2.024 . S
O417 C404 1.058 . S
C418 O407 1.260 . S
C418 O408 1.258 . S
C419 O415 1.260 . S
C419 O416 1.258 . S
Zn420 O426 1.969 . S
Zn420 O427 1.965 . S
Zn420 O431 2.024 . S
Zn420 O436 1.969 . S
Zn421 O428 1.969 . S
Zn421 O434 1.969 . S
Zn421 O435 1.965 . S
Zn421 O437 2.024 1_556 S
C422 O423 1.229 . S
C422 O431 1.058 . S
O423 C422 1.229 . S
C424 O425 1.229 . S
C424 O437 1.058 . S
O425 C424 1.229 . S
O426 Zn420 1.969 . S
O426 C429 1.267 . S
O427 Zn420 1.965 . S
O427 C438 1.260 . S
O428 Zn421 1.969 . S
O428 C438 1.258 . S
C429 O426 1.267 . S
C429 O430 1.228 . S
O430 C429 1.228 . S
O431 Zn420 2.024 . S
O431 C422 1.058 . S
C432 O433 1.228 . S
C432 O434 1.267 1_554 S
O433 C432 1.228 . S
O434 Zn421 1.969 . S
O434 C432 1.267 1_556 S
O435 Zn421 1.965 . S
O435 C439 1.260 . S
O436 Zn420 1.969 . S
O436 C439 1.258 . S
O437 Zn421 2.024 1_554 S
O437 C424 1.058 . S
C438 O427 1.260 . S
C438 O428 1.258 . S
C439 O435 1.260 . S
C439 O436 1.258 . S
Zn440 O446 1.969 . S
Zn440 O447 1.965 . S
Zn440 O451 2.024 . S
Zn440 O456 1.969 . S
Zn441 O448 1.969 . S
Zn441 O454 1.969 . S
Zn441 O455 1.965 . S
Zn441 O457 2.024 . S
C442 O443 1.229 . S
C442 O451 1.058 . S
O443 C442 1.229 . S
C444 O445 1.229 . S
C444 O457 1.058 . S
O445 C444 1.229 . S
O446 Zn440 1.969 . S
O446 C449 1.267 . S
O447 Zn440 1.965 . S
O447 C458 1.260 . S
O448 Zn441 1.969 . S
O448 C458 1.258 . S
C449 O446 1.267 . S
C449 O450 1.228 . S
O450 C449 1.228 . S
O451 Zn440 2.024 . S
O451 C442 1.058 . S
C452 O453 1.228 . S
C452 O454 1.267 . S
O453 C452 1.228 . S
O454 Zn441 1.969 . S
O454 C452 1.267 . S
O455 Zn441 1.965 . S
O455 C459 1.260 . S
O456 Zn440 1.969 . S
O456 C459 1.258 . S
O457 Zn441 2.024 . S
O457 C444 1.058 . S
C458 O447 1.260 . S
C458 O448 1.258 . S
C459 O455 1.260 . S
C459 O456 1.258 . S
Zn460 O466 1.969 . S
Zn460 O467 1.965 . S
Zn460 O471 2.024 . S
Zn460 O476 1.969 . S
Zn461 O468 1.969 . S
Zn461 O474 1.969 . S
Zn461 O475 1.965 . S
Zn461 O477 2.024 . S
C462 O463 1.229 . S
C462 O471 1.058 . S
O463 C462 1.229 . S
C464 O465 1.229 . S
C464 O477 1.058 . S
O465 C464 1.229 . S
O466 Zn460 1.969 . S
O466 C469 1.267 . S
O467 Zn460 1.965 . S
O467 C478 1.260 . S
O468 Zn461 1.969 . S
O468 C478 1.258 . S
C469 O466 1.267 . S
C469 O470 1.228 . S
O470 C469 1.228 . S
O471 Zn460 2.024 . S
O471 C462 1.058 . S
C472 O473 1.228 . S
C472 O474 1.267 . S
O473 C472 1.228 . S
O474 Zn461 1.969 . S
O474 C472 1.267 . S
O475 Zn461 1.965 . S
O475 C479 1.260 . S
O476 Zn460 1.969 . S
O476 C479 1.258 . S
O477 Zn461 2.024 . S
O477 C464 1.058 . S
C478 O467 1.260 . S
C478 O468 1.258 . S
C479 O475 1.260 . S
C479 O476 1.258 . S
Zn480 O486 1.969 . S
Zn480 O487 1.965 . S
Zn480 O491 2.024 . S
Zn480 O496 1.969 . S
Zn481 O488 1.969 . S
Zn481 O494 1.969 . S
Zn481 O495 1.965 . S
Zn481 O497 2.024 . S
C482 O483 1.229 . S
C482 O491 1.058 . S
O483 C482 1.229 . S
C484 O485 1.229 . S
C484 O497 1.058 . S
O485 C484 1.229 . S
O486 Zn480 1.969 . S
O486 C489 1.267 . S
O487 Zn480 1.965 . S
O487 C498 1.260 . S
O488 Zn481 1.969 . S
O488 C498 1.258 . S
C489 O486 1.267 . S
C489 O490 1.228 . S
O490 C489 1.228 . S
O491 Zn480 2.024 . S
O491 C482 1.058 . S
C492 O493 1.228 . S
C492 O494 1.267 . S
O493 C492 1.228 . S
O494 Zn481 1.969 . S
O494 C492 1.267 . S
O495 Zn481 1.965 . S
O495 C499 1.260 . S
O496 Zn480 1.969 . S
O496 C499 1.258 . S
O497 Zn481 2.024 . S
O497 C484 1.058 . S
C498 O487 1.260 . S
C498 O488 1.258 . S
C499 O495 1.260 . S
C499 O496 1.258 . S
Zn500 O506 1.969 . S
Zn500 O507 1.965 . S
Zn500 O511 2.024 1_556 S
Zn500 O516 1.969 . S
Zn501 O508 1.969 . S
Zn501 O514 1.969 . S
Zn501 O515 1.965 . S
Zn501 O517 2.024 . S
C502 O503 1.229 . S
C502 O511 1.058 . S
O503 C502 1.229 . S
C504 O505 1.229 . S
C504 O517 1.058 . S
O505 C504 1.229 . S
O506 Zn500 1.969 . S
O506 C509 1.267 1_556 S
O507 Zn500 1.965 . S
O507 C518 1.260 . S
O508 Zn501 1.969 . S
O508 C518 1.258 . S
C509 O506 1.267 1_554 S
C509 O510 1.228 . S
O510 C509 1.228 . S
O511 Zn500 2.024 1_554 S
O511 C502 1.058 . S
C512 O513 1.228 . S
C512 O514 1.267 . S
O513 C512 1.228 . S
O514 Zn501 1.969 . S
O514 C512 1.267 . S
O515 Zn501 1.965 . S
O515 C519 1.260 . S
O516 Zn500 1.969 . S
O516 C519 1.258 . S
O517 Zn501 2.024 . S
O517 C504 1.058 . S
C518 O507 1.260 . S
C518 O508 1.258 . S
C519 O515 1.260 . S
C519 O516 1.258 . S
Zn520 O526 1.969 . S
Zn520 O527 1.965 . S
Zn520 O531 2.024 . S
Zn520 O536 1.969 . S
Zn521 O528 1.969 . S
Zn521 O534 1.969 . S
Zn521 O535 1.965 . S
Zn521 O537 2.024 . S
C522 O523 1.229 . S
C522 O531 1.058 . S
O523 C522 1.229 . S
C524 O525 1.229 . S
C524 O537 1.058 . S
O525 C524 1.229 . S
O526 Zn520 1.969 . S
O526 C529 1.267 . S
O527 Zn520 1.965 . S
O527 C538 1.260 . S
O528 Zn521 1.969 . S
O528 C538 1.258 . S
C529 O526 1.267 . S
C529 O530 1.228 . S
O530 C529 1.228 . S
O531 Zn520 2.024 . S
O531 C522 1.058 . S
C532 O533 1.228 . S
C532 O534 1.267 . S
O533 C532 1.228 . S
O534 Zn521 1.969 . S
O534 C532 1.267 . S
O535 Zn521 1.965 . S
O535 C539 1.260 . S
O536 Zn520 1.969 . S
O536 C539 1.258 . S
O537 Zn521 2.024 . S
O537 C524 1.058 . S
C538 O527 1.260 . S
C538 O528 1.258 . S
C539 O535 1.260 . S
C539 O536 1.258 . S
Zn540 O546 1.969 . S
Zn540 O547 1.965 . S
Zn540 O551 2.024 . S
Zn540 O556 1.969 . S
Zn541 O548 1.969 . S
Zn541 O554 1.969 . S
Zn541 O555 1.965 . S
Zn541 O557 2.024 . S
C542 O543 1.229 . S
C542 O551 1.058 . S
O543 C542 1.229 . S
C544 O545 1.229 . S
C544 O557 1.058 . S
O545 C544 1.229 . S
O546 Zn540 1.969 . S
O546 C549 1.267 . S
O547 Zn540 1.965 . S
O547 C558 1.260 . S
O548 Zn541 1.969 . S
O548 C558 1.258 . S
C549 O546 1.267 . S
C549 O550 1.228 . S
O550 C549 1.228 . S
O551 Zn540 2.024 . S
O551 C542 1.058 . S
C552 O553 1.228 . S
C552 O554 1.267 . S
O553 C552 1.228 . S
O554 Zn541 1.969 . S
O554 C552 1.267 . S
O555 Zn541 1.965 . S
O555 C559 1.260 . S
O556 Zn540 1.969 . S
O556 C559 1.258 . S
O557 Zn541 2.024 . S
O557 C544 1.058 . S
C558 O547 1.260 . S
C558 O548 1.258 . S
C559 O555 1.260 . S
C559 O556 1.258 . S
Zn560 O566 1.969 . S
Zn560 O567 1.965 . S
Zn560 O571 2.024 . S
Zn560 O576 1.969 . S
Zn561 O568 1.969 . S
Zn561 O574 1.969 . S
Zn561 O575 1.965 . S
Zn561 O577 2.024 . S
C562 O563 1.229 . S
C562 O571 1.058 . S
O563 C562 1.229 . S
C564 O565 1.229 . S
C564 O577 1.058 . S
O565 C564 1.229 . S
O566 Zn560 1.969 . S
O566 C569 1.267 . S
O567 Zn560 1.965 . S
O567 C578 1.260 . S
O568 Zn561 1.969 . S
O568 C578 1.258 . S
C569 O566 1.267 . S
C569 O570 1.228 . S
O570 C569 1.228 . S
O571 Zn560 2.024 . S
O571 C562 1.058 . S
C572 O573 1.228 . S
C572 O574 1.267 . S
O573 C572 1.228 . S
O574 Zn561 1.969 . S
O574 C572 1.267 . S
O575 Zn561 1.965 . S
O575 C579 1.260 . S
O576 Zn560 1.969 . S
O576 C579 1.258 . S
O577 Zn561 2.024 . S
O577 C564 1.058 . S
C578 O567 1.260 . S
C578 O568 1.258 . S
C579 O575 1.260 . S
C579 O576 1.258 . S
Zn580 O586 1.969 . S
Zn580 O587 1.965 . S
Zn580 O591 2.024 1_554 S
Zn580 O596 1.969 . S
Zn581 O588 1.969 . S
Zn581 O594 1.969 . S
Zn581 O595 1.965 . S
Zn581 O597 2.024 . S
C582 O583 1.229 . S
C582 O591 1.058 . S
O583 C582 1.229 . S
C584 O585 1.229 . S
C584 O597 1.058 . S
O585 C584 1.229 . S
O586 Zn580 1.969 . S
O586 C589 1.267 1_554 S
O587 Zn580 1.965 . S
O587 C598 1.260 . S
O588 Zn581 1.969 . S
O588 C598 1.258 . S
C589 O586 1.267 1_556 S
C589 O590 1.228 . S
O590 C589 1.228 . S
O591 Zn580 2.024 1_556 S
O591 C582 1.058 . S
C592 O593 1.228 . S
C592 O594 1.267 . S
O593 C592 1.228 . S
O594 Zn581 1.969 . S
O594 C592 1.267 . S
O595 Zn581 1.965 . S
O595 C599 1.260 . S
O596 Zn580 1.969 . S
O596 C599 1.258 . S
O597 Zn581 2.024 . S
O597 C584 1.058 . S
C598 O587 1.260 . S
C598 O588 1.258 . S
C599 O595 1.260 . S
C599 O596 1.258 . S
Zn600 O606 1.969 . S
Zn600 O607 1.965 . S
Zn600 O611 2.024 . S
Zn600 O616 1.969 . S
Zn601 O608 1.969 . S
Zn601 O614 1.969 . S
Zn601 O615 1.965 . S
Zn601 O617 2.024 . S
C602 O603 1.229 . S
C602 O611 1.058 . S
O603 C602 1.229 . S
C604 O605 1.229 . S
C604 O617 1.058 . S
O605 C604 1.229 . S
O606 Zn600 1.969 . S
O606 C609 1.267 . S
O607 Zn600 1.965 . S
O607 C618 1.260 . S
O608 Zn601 1.969 . S
O608 C618 1.258 . S
C609 O606 1.267 . S
C609 O610 1.228 . S
O610 C609 1.228 . S
O611 Zn600 2.024 . S
O611 C602 1.058 . S
C612 O613 1.228 . S
C612 O614 1.267 . S
O613 C612 1.228 . S
O614 Zn601 1.969 . S
O614 C612 1.267 . S
O615 Zn601 1.965 . S
O615 C619 1.260 . S
O616 Zn600 1.969 . S
O616 C619 1.258 . S
O617 Zn601 2.024 . S
O617 C604 1.058 . S
C618 O607 1.260 . S
C618 O608 1.258 . S
C619 O615 1.260 . S
C619 O616 1.258 . S
Zn620 O626 1.969 . S
Zn620 O627 1.965 . S
Zn620 O631 2.024 . S
Zn620 O636 1.969 . S
Zn621 O628 1.969 . S
Zn621 O634 1.969 . S
Zn621 O635 1.965 . S
Zn621 O637 2.024 . S
C622 O623 1.229 . S
C622 O631 1.058 . S
O623 C622 1.229 . S
C624 O625 1.229 . S
C624 O637 1.058 . S
O625 C624 1.229 . S
O626 Zn620 1.969 . S
O626 C629 1.267 . S
O627 Zn620 1.965 . S
O627 C638 1.260 . S
O628 Zn621 1.969 . S
O628 C638 1.258 . S
C629 O626 1.267 . S
C629 O630 1.228 . S
O630 C629 1.228 . S
O631 Zn620 2.024 . S
O631 C622 1.058 . S
C632 O633 1.228 . S
C632 O634 1.267 . S
O633 C632 1.228 . S
O634 Zn621 1.969 . S
O634 C632 1.267 . S
O635 Zn621 1.965 . S
O635 C639 1.260 . S
O636 Zn620 1.969 . S
O636 C639 1.258 . S
O637 Zn621 2.024 . S
O637 C624 1.058 . S
C638 O627 1.260 . S
C638 O628 1.258 . S
C639 O635 1.260 . S
C639 O636 1.258 . S
H640 C646 0.930 . S
H641 C650 0.930 . S
H642 C655 0.929 . S
H643 C653 0.929 . S
H644 C648 0.929 . S
H645 C654 0.929 . S
C646 H640 0.930 . S
C646 C647 1.367 . S
C646 C654 1.378 . S
C647 C646 1.367 . S
C647 C655 1.433 . S
C648 H644 0.929 . S
C648 C650 1.378 . S
C648 C652 1.350 . S
C649 C652 1.463 . S
C649 C654 1.350 . S
C649 N657 1.427 . S
C650 H641 0.930 . S
C650 C648 1.378 . S
C650 C651 1.367 . S
C651 C650 1.367 . S
C651 C653 1.433 . S
C652 C648 1.350 . S
C652 C649 1.463 . S
C652 N656 1.427 . S
C653 H643 0.929 . S
C653 C651 1.433 . S
C653 N656 1.384 . S
C654 H645 0.929 . S
C654 C646 1.378 . S
C654 C649 1.350 . S
C655 H642 0.929 . S
C655 C647 1.433 . S
C655 N657 1.384 . S
N656 C652 1.427 . S
N656 C653 1.384 . S
N657 C649 1.427 . S
N657 C655 1.384 . S
H658 C664 0.930 . S
H659 C668 0.930 . S
H660 C673 0.929 . S
H661 C671 0.929 . S
H662 C666 0.929 . S
H663 C672 0.929 . S
C664 H658 0.930 . S
C664 C665 1.367 . S
C664 C672 1.378 . S
C665 C664 1.367 . S
C665 C673 1.433 . S
C666 H662 0.929 . S
C666 C668 1.378 1_545 S
C666 C670 1.357 . S
C667 C670 1.494 . S
C667 C672 1.350 . S
C667 N675 1.427 . S
C668 H659 0.930 . S
C668 C666 1.378 1_565 S
C668 C669 1.367 . S
C669 C668 1.367 . S
C669 C671 1.433 . S
C670 C666 1.357 . S
C670 C667 1.494 . S
C670 N674 1.390 1_545 S
C671 H661 0.929 . S
C671 C669 1.433 . S
C671 N674 1.384 . S
C672 H663 0.929 . S
C672 C664 1.378 . S
C672 C667 1.350 . S
C673 H660 0.929 . S
C673 C665 1.433 . S
C673 N675 1.384 . S
N674 C670 1.390 1_565 S
N674 C671 1.384 . S
N675 C667 1.427 . S
N675 C673 1.384 . S
H676 C682 0.930 . S
H677 C686 0.930 . S
H678 C691 0.929 . S
H679 C689 0.929 . S
H680 C684 0.929 . S
H681 C690 0.929 . S
C682 H676 0.930 . S
C682 C683 1.367 . S
C682 C690 1.378 . S
C683 C682 1.367 . S
C683 C691 1.433 . S
C684 H680 0.929 . S
C684 C686 1.378 . S
C684 C688 1.350 . S
C685 C688 1.463 . S
C685 C690 1.350 . S
C685 N693 1.427 . S
C686 H677 0.930 . S
C686 C684 1.378 . S
C686 C687 1.367 . S
C687 C686 1.367 . S
C687 C689 1.433 . S
C688 C684 1.350 . S
C688 C685 1.463 . S
C688 N692 1.427 . S
C689 H679 0.929 . S
C689 C687 1.433 . S
C689 N692 1.384 . S
C690 H681 0.929 . S
C690 C682 1.378 . S
C690 C685 1.350 . S
C691 H678 0.929 . S
C691 C683 1.433 . S
C691 N693 1.384 . S
N692 C688 1.427 . S
N692 C689 1.384 . S
N693 C685 1.427 . S
N693 C691 1.384 . S
H694 C700 0.930 . S
H695 C704 0.930 . S
H696 C709 0.929 . S
H697 C707 0.929 1_554 S
H698 C702 0.929 . S
H699 C708 0.929 . S
C700 H694 0.930 . S
C700 C701 1.367 . S
C700 C708 1.378 . S
C701 C700 1.367 . S
C701 C709 1.433 . S
C702 H698 0.929 . S
C702 C704 1.378 . S
C702 C706 1.351 1_545 S
C703 C706 1.461 . S
C703 C708 1.350 . S
C703 N711 1.427 . S
C704 H695 0.930 . S
C704 C702 1.378 . S
C704 C705 1.367 . S
C705 C704 1.367 . S
C705 C707 1.433 . S
C706 C702 1.351 1_565 S
C706 C703 1.461 . S
C706 N710 1.427 . S
C707 H697 0.929 1_556 S
C707 C705 1.433 . S
C707 N710 1.384 1_545 S
C708 H699 0.929 . S
C708 C700 1.378 . S
C708 C703 1.350 . S
C709 H696 0.929 . S
C709 C701 1.433 . S
C709 N711 1.384 . S
N710 C706 1.427 . S
N710 C707 1.384 1_565 S
N711 C703 1.427 . S
N711 C709 1.384 . S
H712 C718 0.930 . S
H713 C722 0.930 . S
H714 C727 0.929 . S
H715 C725 0.929 . S
H716 C720 0.929 . S
H717 C726 0.929 . S
C718 H712 0.930 . S
C718 C719 1.367 . S
C718 C726 1.378 . S
C719 C718 1.367 . S
C719 C727 1.433 . S
C720 H716 0.929 . S
C720 C722 1.378 . S
C720 C724 1.350 . S
C721 C724 1.463 . S
C721 C726 1.350 . S
C721 N729 1.427 . S
C722 H713 0.930 . S
C722 C720 1.378 . S
C722 C723 1.367 . S
C723 C722 1.367 . S
C723 C725 1.433 . S
C724 C720 1.350 . S
C724 C721 1.463 . S
C724 N728 1.427 . S
C725 H715 0.929 . S
C725 C723 1.433 . S
C725 N728 1.384 . S
C726 H717 0.929 . S
C726 C718 1.378 . S
C726 C721 1.350 . S
C727 H714 0.929 . S
C727 C719 1.433 . S
C727 N729 1.384 . S
N728 C724 1.427 . S
N728 C725 1.384 . S
N729 C721 1.427 . S
N729 C727 1.384 . S
H730 C736 0.930 . S
H731 C740 0.930 . S
H732 C745 0.929 . S
H733 C743 0.929 . S
H734 C738 0.929 . S
H735 C744 0.929 . S
C736 H730 0.930 . S
C736 C737 1.367 . S
C736 C744 1.378 1_565 S
C737 C736 1.367 . S
C737 C745 1.433 . S
C738 H734 0.929 . S
C738 C740 1.378 . S
C738 C742 1.350 . S
C739 C742 1.494 . S
C739 C744 1.356 . S
C739 N747 1.391 1_545 S
C740 H731 0.930 . S
C740 C738 1.378 . S
C740 C741 1.367 . S
C741 C740 1.367 . S
C741 C743 1.433 . S
C742 C738 1.350 . S
C742 C739 1.494 . S
C742 N746 1.427 . S
C743 H733 0.929 . S
C743 C741 1.433 . S
C743 N746 1.384 . S
C744 H735 0.929 . S
C744 C736 1.378 1_545 S
C744 C739 1.356 . S
C745 H732 0.929 . S
C745 C737 1.433 . S
C745 N747 1.384 . S
N746 C742 1.427 . S
N746 C743 1.384 . S
N747 C739 1.391 1_565 S
N747 C745 1.384 . S
H748 C754 0.930 . S
H749 C758 0.930 . S
H750 C763 0.929 . S
H751 C761 0.929 . S
H752 C756 0.929 . S
H753 C762 0.929 . S
C754 H748 0.930 . S
C754 C755 1.367 . S
C754 C762 1.378 . S
C755 C754 1.367 . S
C755 C763 1.433 . S
C756 H752 0.929 . S
C756 C758 1.378 . S
C756 C760 1.350 . S
C757 C760 1.463 . S
C757 C762 1.350 . S
C757 N765 1.427 . S
C758 H749 0.930 . S
C758 C756 1.378 . S
C758 C759 1.367 . S
C759 C758 1.367 . S
C759 C761 1.433 . S
C760 C756 1.350 . S
C760 C757 1.463 . S
C760 N764 1.427 . S
C761 H751 0.929 . S
C761 C759 1.433 . S
C761 N764 1.384 . S
C762 H753 0.929 . S
C762 C754 1.378 . S
C762 C757 1.350 . S
C763 H750 0.929 . S
C763 C755 1.433 . S
C763 N765 1.384 . S
N764 C760 1.427 . S
N764 C761 1.384 . S
N765 C757 1.427 . S
N765 C763 1.384 . S
H766 C772 0.930 . S
H767 C776 0.930 . S
H768 C781 0.929 . S
H769 C779 0.929 1_556 S
H770 C774 0.929 . S
H771 C780 0.929 . S
C772 H766 0.930 . S
C772 C773 1.367 . S
C772 C780 1.378 . S
C773 C772 1.367 . S
C773 C781 1.433 . S
C774 H770 0.929 . S
C774 C776 1.378 . S
C774 C778 1.351 1_545 S
C775 C778 1.461 . S
C775 C780 1.350 . S
C775 N783 1.427 . S
C776 H767 0.930 . S
C776 C774 1.378 . S
C776 C777 1.367 . S
C777 C776 1.367 . S
C777 C779 1.433 . S
C778 C774 1.351 1_565 S
C778 C775 1.461 . S
C778 N782 1.427 . S
C779 H769 0.929 1_554 S
C779 C777 1.433 . S
C779 N782 1.384 1_545 S
C780 H771 0.929 . S
C780 C772 1.378 . S
C780 C775 1.350 . S
C781 H768 0.929 . S
C781 C773 1.433 . S
C781 N783 1.384 . S
N782 C778 1.427 . S
N782 C779 1.384 1_565 S
N783 C775 1.427 . S
N783 C781 1.384 . S
H784 C790 0.930 . S
H785 C794 0.930 . S
H786 C799 0.929 . S
H787 C797 0.929 . S
H788 C792 0.929 . S
H789 C798 0.929 . S
C790 H784 0.930 . S
C790 C791 1.367 . S
C790 C798 1.378 . S
C791 C790 1.367 . S
C791 C799 1.433 . S
C792 H788 0.929 . S
C792 C794 1.378 . S
C792 C796 1.350 . S
C793 C796 1.463 . S
C793 C798 1.350 . S
C793 N801 1.427 . S
C794 H785 0.930 . S
C794 C792 1.378 . S
C794 C795 1.367 . S
C795 C794 1.367 . S
C795 C797 1.433 . S
C796 C792 1.350 . S
C796 C793 1.463 . S
C796 N800 1.427 . S
C797 H787 0.929 . S
C797 C795 1.433 . S
C797 N800 1.384 . S
C798 H789 0.929 . S
C798 C790 1.378 . S
C798 C793 1.350 . S
C799 H786 0.929 . S
C799 C791 1.433 . S
C799 N801 1.384 . S
N800 C796 1.427 . S
N800 C797 1.384 . S
N801 C793 1.427 . S
N801 C799 1.384 . S
H802 C808 0.930 . S
H803 C812 0.930 . S
H804 C817 0.929 . S
H805 C815 0.929 . S
H806 C810 0.929 . S
H807 C816 0.929 . S
C808 H802 0.930 . S
C808 C809 1.367 . S
C808 C816 1.378 . S
C809 C808 1.367 . S
C809 C817 1.433 . S
C810 H806 0.929 . S
C810 C812 1.378 . S
C810 C814 1.350 . S
C811 C814 1.466 1_545 S
C811 C816 1.346 . S
C811 N819 1.428 1_545 S
C812 H803 0.930 . S
C812 C810 1.378 . S
C812 C813 1.367 . S
C813 C812 1.367 . S
C813 C815 1.433 . S
C814 C810 1.350 . S
C814 C811 1.466 1_565 S
C814 N818 1.427 . S
C815 H805 0.929 . S
C815 C813 1.433 . S
C815 N818 1.384 . S
C816 H807 0.929 . S
C816 C808 1.378 . S
C816 C811 1.346 . S
C817 H804 0.929 . S
C817 C809 1.433 . S
C817 N819 1.384 1_545 S
N818 C814 1.427 . S
N818 C815 1.384 . S
N819 C811 1.428 1_565 S
N819 C817 1.384 1_565 S
H820 C826 0.930 . S
H821 C830 0.930 . S
H822 C835 0.929 . S
H823 C833 0.929 . S
H824 C828 0.929 . S
H825 C834 0.929 . S
C826 H820 0.930 . S
C826 C827 1.367 . S
C826 C834 1.378 . S
C827 C826 1.367 . S
C827 C835 1.433 . S
C828 H824 0.929 . S
C828 C830 1.378 . S
C828 C832 1.350 . S
C829 C832 1.463 . S
C829 C834 1.350 . S
C829 N837 1.427 . S
C830 H821 0.930 . S
C830 C828 1.378 . S
C830 C831 1.367 . S
C831 C830 1.367 . S
C831 C833 1.433 . S
C832 C828 1.350 . S
C832 C829 1.463 . S
C832 N836 1.427 . S
C833 H823 0.929 . S
C833 C831 1.433 . S
C833 N836 1.384 . S
C834 H825 0.929 . S
C834 C826 1.378 . S
C834 C829 1.350 . S
C835 H822 0.929 . S
C835 C827 1.433 . S
C835 N837 1.384 . S
N836 C832 1.427 . S
N836 C833 1.384 . S
N837 C829 1.427 . S
N837 C835 1.384 . S
H838 C844 0.930 . S
H839 C848 0.930 . S
H840 C853 0.929 . S
H841 C851 0.929 . S
H842 C846 0.929 . S
H843 C852 0.929 . S
C844 H838 0.930 . S
C844 C845 1.367 . S
C844 C852 1.378 . S
C845 C844 1.367 . S
C845 C853 1.433 . S
C846 H842 0.929 . S
C846 C848 1.378 . S
C846 C850 1.350 . S
C847 C850 1.469 . S
C847 C852 1.345 1_545 S
C847 N855 1.427 1_545 S
C848 H839 0.930 . S
C848 C846 1.378 . S
C848 C849 1.367 . S
C849 C848 1.367 . S
C849 C851 1.433 . S
C850 C846 1.350 . S
C850 C847 1.469 . S
C850 N854 1.427 . S
C851 H841 0.929 . S
C851 C849 1.433 . S
C851 N854 1.384 . S
C852 H843 0.929 . S
C852 C844 1.378 . S
C852 C847 1.345 1_565 S
C853 H840 0.929 . S
C853 C845 1.433 . S
C853 N855 1.384 . S
N854 C850 1.427 . S
N854 C851 1.384 . S
N855 C847 1.427 1_565 S
N855 C853 1.384 . S
H856 C862 0.930 . S
H857 C866 0.930 . S
H858 C871 0.929 . S
H859 C869 0.929 . S
H860 C864 0.929 . S
H861 C870 0.929 . S
C862 H856 0.930 . S
C862 C863 1.367 . S
C862 C870 1.378 . S
C863 C862 1.367 . S
C863 C871 1.433 . S
C864 H860 0.929 . S
C864 C866 1.378 . S
C864 C868 1.350 . S
C865 C868 1.463 . S
C865 C870 1.350 . S
C865 N873 1.427 . S
C866 H857 0.930 . S
C866 C864 1.378 . S
C866 C867 1.367 . S
C867 C866 1.367 . S
C867 C869 1.433 . S
C868 C864 1.350 . S
C868 C865 1.463 . S
C868 N872 1.427 . S
C869 H859 0.929 . S
C869 C867 1.433 . S
C869 N872 1.384 . S
C870 H861 0.929 . S
C870 C862 1.378 . S
C870 C865 1.350 . S
C871 H858 0.929 . S
C871 C863 1.433 . S
C871 N873 1.384 . S
N872 C868 1.427 . S
N872 C869 1.384 . S
N873 C865 1.427 . S
N873 C871 1.384 . S
H874 C880 0.930 . S
H875 C884 0.930 . S
H876 C889 0.929 . S
H877 C887 0.929 . S
H878 C882 0.929 . S
H879 C888 0.929 . S
C880 H874 0.930 . S
C880 C881 1.367 . S
C880 C888 1.378 . S
C881 C880 1.367 . S
C881 C889 1.433 . S
C882 H878 0.929 . S
C882 C884 1.378 . S
C882 C886 1.350 . S
C883 C886 1.467 . S
C883 C888 1.346 1_565 S
C883 N891 1.427 1_565 S
C884 H875 0.930 . S
C884 C882 1.378 . S
C884 C885 1.367 . S
C885 C884 1.367 . S
C885 C887 1.433 . S
C886 C882 1.350 . S
C886 C883 1.467 . S
C886 N890 1.427 . S
C887 H877 0.929 . S
C887 C885 1.433 . S
C887 N890 1.384 . S
C888 H879 0.929 . S
C888 C880 1.378 . S
C888 C883 1.346 1_545 S
C889 H876 0.929 . S
C889 C881 1.433 . S
C889 N891 1.383 . S
N890 C886 1.427 . S
N890 C887 1.384 . S
N891 C883 1.427 1_545 S
N891 C889 1.383 . S
H892 C898 0.930 . S
H893 C902 0.930 . S
H894 C907 0.929 . S
H895 C905 0.929 . S
H896 C900 0.929 . S
H897 C906 0.929 . S
C898 H892 0.930 . S
C898 C899 1.367 . S
C898 C906 1.378 . S
C899 C898 1.367 . S
C899 C907 1.433 . S
C900 H896 0.929 . S
C900 C902 1.378 . S
C900 C904 1.350 . S
C901 C904 1.463 . S
C901 C906 1.350 . S
C901 N909 1.427 . S
C902 H893 0.930 . S
C902 C900 1.378 . S
C902 C903 1.367 . S
C903 C902 1.367 . S
C903 C905 1.433 . S
C904 C900 1.350 . S
C904 C901 1.463 . S
C904 N908 1.427 . S
C905 H895 0.929 . S
C905 C903 1.433 . S
C905 N908 1.384 . S
C906 H897 0.929 . S
C906 C898 1.378 . S
C906 C901 1.350 . S
C907 H894 0.929 . S
C907 C899 1.433 . S
C907 N909 1.384 . S
N908 C904 1.427 . S
N908 C905 1.384 . S
N909 C901 1.427 . S
N909 C907 1.384 . S
H910 C916 0.930 . S
H911 C920 0.930 1_554 S
H912 C925 0.929 . S
H913 C923 0.929 . S
H914 C918 0.929 . S
H915 C924 0.929 1_565 S
C916 H910 0.930 . S
C916 C917 1.367 . S
C916 C924 1.378 . S
C917 C916 1.367 . S
C917 C925 1.433 . S
C918 H914 0.929 . S
C918 C920 1.378 1_545 S
C918 C922 1.350 . S
C919 C922 1.463 . S
C919 C924 1.350 . S
C919 N927 1.427 . S
C920 H911 0.930 1_556 S
C920 C918 1.378 1_565 S
C920 C921 1.367 . S
C921 C920 1.367 . S
C921 C923 1.433 . S
C922 C918 1.350 . S
C922 C919 1.463 . S
C922 N926 1.427 1_545 S
C923 H913 0.929 . S
C923 C921 1.433 . S
C923 N926 1.384 . S
C924 H915 0.929 1_545 S
C924 C916 1.378 . S
C924 C919 1.350 . S
C925 H912 0.929 . S
C925 C917 1.433 . S
C925 N927 1.384 . S
N926 C922 1.427 1_565 S
N926 C923 1.384 . S
N927 C919 1.427 . S
N927 C925 1.384 . S
H928 C934 0.930 . S
H929 C938 0.930 . S
H930 C943 0.929 . S
H931 C941 0.929 . S
H932 C936 0.929 . S
H933 C942 0.929 . S
C934 H928 0.930 . S
C934 C935 1.367 . S
C934 C942 1.378 . S
C935 C934 1.367 . S
C935 C943 1.433 . S
C936 H932 0.929 . S
C936 C938 1.378 . S
C936 C940 1.350 . S
C937 C940 1.463 . S
C937 C942 1.350 . S
C937 N945 1.427 . S
C938 H929 0.930 . S
C938 C936 1.378 . S
C938 C939 1.367 . S
C939 C938 1.367 . S
C939 C941 1.433 . S
C940 C936 1.350 . S
C940 C937 1.463 . S
C940 N944 1.427 . S
C941 H931 0.929 . S
C941 C939 1.433 . S
C941 N944 1.384 . S
C942 H933 0.929 . S
C942 C934 1.378 . S
C942 C937 1.350 . S
C943 H930 0.929 . S
C943 C935 1.433 . S
C943 N945 1.384 . S
N944 C940 1.427 . S
N944 C941 1.384 . S
N945 C937 1.427 . S
N945 C943 1.384 . S
H946 C952 0.930 . S
H947 C956 0.930 . S
H948 C961 0.929 . S
H949 C959 0.929 . S
H950 C954 0.929 . S
H951 C960 0.929 . S
C952 H946 0.930 . S
C952 C953 1.367 . S
C952 C960 1.378 . S
C953 C952 1.367 . S
C953 C961 1.433 . S
C954 H950 0.929 . S
C954 C956 1.378 . S
C954 C958 1.350 . S
C955 C958 1.463 . S
C955 C960 1.350 . S
C955 N963 1.427 . S
C956 H947 0.930 . S
C956 C954 1.378 . S
C956 C957 1.367 . S
C957 C956 1.367 . S
C957 C959 1.433 . S
C958 C954 1.350 . S
C958 C955 1.463 . S
C958 N962 1.427 . S
C959 H949 0.929 . S
C959 C957 1.433 . S
C959 N962 1.384 . S
C960 H951 0.929 . S
C960 C952 1.378 . S
C960 C955 1.350 . S
C961 H948 0.929 . S
C961 C953 1.433 . S
C961 N963 1.384 . S
N962 C958 1.427 . S
N962 C959 1.384 . S
N963 C955 1.427 . S
N963 C961 1.384 . S
H964 C970 0.930 . S
H965 C974 0.930 . S
H966 C979 0.929 . S
H967 C977 0.929 . S
H968 C972 0.929 . S
H969 C978 0.929 . S
C970 H964 0.930 . S
C970 C971 1.367 . S
C970 C978 1.378 . S
C971 C970 1.367 . S
C971 C979 1.433 . S
C972 H968 0.929 . S
C972 C974 1.378 . S
C972 C976 1.350 . S
C973 C976 1.463 . S
C973 C978 1.350 . S
C973 N981 1.427 . S
C974 H965 0.930 . S
C974 C972 1.378 . S
C974 C975 1.367 . S
C975 C974 1.367 . S
C975 C977 1.433 . S
C976 C972 1.350 . S
C976 C973 1.463 . S
C976 N980 1.427 . S
C977 H967 0.929 . S
C977 C975 1.433 . S
C977 N980 1.384 . S
C978 H969 0.929 . S
C978 C970 1.378 . S
C978 C973 1.350 . S
C979 H966 0.929 . S
C979 C971 1.433 . S
C979 N981 1.384 . S
N980 C976 1.427 . S
N980 C977 1.384 . S
N981 C973 1.427 . S
N981 C979 1.384 . S
H982 C988 0.930 . S
H983 C992 0.930 . S
H984 C997 0.929 . S
H985 C995 0.929 . S
H986 C990 0.929 . S
H987 C996 0.929 . S
C988 H982 0.930 . S
C988 C989 1.367 . S
C988 C996 1.378 . S
C989 C988 1.367 . S
C989 C997 1.433 . S
C990 H986 0.929 . S
C990 C992 1.378 . S
C990 C994 1.350 . S
C991 C994 1.463 . S
C991 C996 1.350 . S
C991 N999 1.427 . S
C992 H983 0.930 . S
C992 C990 1.378 . S
C992 C993 1.367 . S
C993 C992 1.367 . S
C993 C995 1.433 . S
C994 C990 1.350 . S
C994 C991 1.463 . S
C994 N998 1.427 . S
C995 H985 0.929 . S
C995 C993 1.433 . S
C995 N998 1.384 . S
C996 H987 0.929 . S
C996 C988 1.378 . S
C996 C991 1.350 . S
C997 H984 0.929 . S
C997 C989 1.433 . S
C997 N999 1.384 . S
N998 C994 1.427 . S
N998 C995 1.384 . S
N999 C991 1.427 . S
N999 C997 1.384 . S
H1000 C1006 0.930 . S
H1001 C1010 0.930 . S
H1002 C1015 0.929 . S
H1003 C1013 0.929 . S
H1004 C1008 0.929 . S
H1005 C1014 0.929 . S
C1006 H1000 0.930 . S
C1006 C1007 1.367 . S
C1006 C1014 1.378 . S
C1007 C1006 1.367 . S
C1007 C1015 1.433 . S
C1008 H1004 0.929 . S
C1008 C1010 1.378 . S
C1008 C1012 1.350 . S
C1009 C1012 1.463 . S
C1009 C1014 1.350 . S
C1009 N1017 1.427 . S
C1010 H1001 0.930 . S
C1010 C1008 1.378 . S
C1010 C1011 1.367 . S
C1011 C1010 1.367 . S
C1011 C1013 1.433 . S
C1012 C1008 1.350 . S
C1012 C1009 1.463 . S
C1012 N1016 1.427 . S
C1013 H1003 0.929 . S
C1013 C1011 1.433 . S
C1013 N1016 1.384 . S
C1014 H1005 0.929 . S
C1014 C1006 1.378 . S
C1014 C1009 1.350 . S
C1015 H1002 0.929 . S
C1015 C1007 1.433 . S
C1015 N1017 1.384 . S
N1016 C1012 1.427 . S
N1016 C1013 1.384 . S
N1017 C1009 1.427 . S
N1017 C1015 1.384 . S
H1018 C1024 0.930 . S
H1019 C1028 0.930 . S
H1020 C1033 0.929 . S
H1021 C1031 0.929 1_556 S
H1022 C1026 0.929 . S
H1023 C1032 0.929 . S
C1024 H1018 0.930 . S
C1024 C1025 1.367 . S
C1024 C1032 1.378 . S
C1025 C1024 1.367 . S
C1025 C1033 1.433 . S
C1026 H1022 0.929 . S
C1026 C1028 1.378 . S
C1026 C1030 1.350 . S
C1027 C1030 1.463 . S
C1027 C1032 1.350 . S
C1027 N1035 1.427 . S
C1028 H1019 0.930 . S
C1028 C1026 1.378 . S
C1028 C1029 1.367 . S
C1029 C1028 1.367 . S
C1029 C1031 1.433 . S
C1030 C1026 1.350 . S
C1030 C1027 1.463 . S
C1030 N1034 1.427 . S
C1031 H1021 0.929 1_554 S
C1031 C1029 1.433 . S
C1031 N1034 1.384 . S
C1032 H1023 0.929 . S
C1032 C1024 1.378 . S
C1032 C1027 1.350 . S
C1033 H1020 0.929 . S
C1033 C1025 1.433 . S
C1033 N1035 1.384 . S
N1034 C1030 1.427 . S
N1034 C1031 1.384 . S
N1035 C1027 1.427 . S
N1035 C1033 1.384 . S
H1036 C1042 0.930 . S
H1037 C1046 0.930 . S
H1038 C1051 0.929 . S
H1039 C1049 0.929 . S
H1040 C1044 0.929 . S
H1041 C1050 0.929 . S
C1042 H1036 0.930 . S
C1042 C1043 1.367 . S
C1042 C1050 1.378 . S
C1043 C1042 1.367 . S
C1043 C1051 1.433 . S
C1044 H1040 0.929 . S
C1044 C1046 1.378 . S
C1044 C1048 1.350 . S
C1045 C1048 1.463 . S
C1045 C1050 1.350 . S
C1045 N1053 1.427 . S
C1046 H1037 0.930 . S
C1046 C1044 1.378 . S
C1046 C1047 1.367 . S
C1047 C1046 1.367 . S
C1047 C1049 1.433 . S
C1048 C1044 1.350 . S
C1048 C1045 1.463 . S
C1048 N1052 1.427 . S
C1049 H1039 0.929 . S
C1049 C1047 1.433 . S
C1049 N1052 1.384 . S
C1050 H1041 0.929 . S
C1050 C1042 1.378 . S
C1050 C1045 1.350 . S
C1051 H1038 0.929 . S
C1051 C1043 1.433 . S
C1051 N1053 1.384 . S
N1052 C1048 1.427 . S
N1052 C1049 1.384 . S
N1053 C1045 1.427 . S
N1053 C1051 1.384 . S
H1054 C1060 0.930 . S
H1055 C1064 0.930 . S
H1056 C1069 0.929 . S
H1057 C1067 0.929 . S
H1058 C1062 0.929 . S
H1059 C1068 0.929 . S
C1060 H1054 0.930 . S
C1060 C1061 1.367 . S
C1060 C1068 1.378 . S
C1061 C1060 1.367 . S
C1061 C1069 1.433 . S
C1062 H1058 0.929 . S
C1062 C1064 1.378 . S
C1062 C1066 1.350 . S
C1063 C1066 1.463 . S
C1063 C1068 1.350 . S
C1063 N1071 1.427 . S
C1064 H1055 0.930 . S
C1064 C1062 1.378 . S
C1064 C1065 1.367 . S
C1065 C1064 1.367 . S
C1065 C1067 1.433 . S
C1066 C1062 1.350 . S
C1066 C1063 1.463 . S
C1066 N1070 1.427 . S
C1067 H1057 0.929 . S
C1067 C1065 1.433 . S
C1067 N1070 1.384 . S
C1068 H1059 0.929 . S
C1068 C1060 1.378 . S
C1068 C1063 1.350 . S
C1069 H1056 0.929 . S
C1069 C1061 1.433 . S
C1069 N1071 1.384 . S
N1070 C1066 1.427 . S
N1070 C1067 1.384 . S
N1071 C1063 1.427 . S
N1071 C1069 1.384 . S
H1072 C1078 0.930 . S
H1073 C1082 0.930 . S
H1074 C1087 0.929 . S
H1075 C1085 0.929 . S
H1076 C1080 0.929 . S
H1077 C1086 0.929 . S
C1078 H1072 0.930 . S
C1078 C1079 1.367 . S
C1078 C1086 1.378 . S
C1079 C1078 1.367 . S
C1079 C1087 1.433 . S
C1080 H1076 0.929 . S
C1080 C1082 1.378 . S
C1080 C1084 1.350 . S
C1081 C1084 1.463 . S
C1081 C1086 1.350 . S
C1081 N1089 1.427 . S
C1082 H1073 0.930 . S
C1082 C1080 1.378 . S
C1082 C1083 1.367 . S
C1083 C1082 1.367 . S
C1083 C1085 1.433 . S
C1084 C1080 1.350 . S
C1084 C1081 1.463 . S
C1084 N1088 1.427 . S
C1085 H1075 0.929 . S
C1085 C1083 1.433 . S
C1085 N1088 1.384 . S
C1086 H1077 0.929 . S
C1086 C1078 1.378 . S
C1086 C1081 1.350 . S
C1087 H1074 0.929 . S
C1087 C1079 1.433 . S
C1087 N1089 1.384 . S
N1088 C1084 1.427 . S
N1088 C1085 1.384 . S
N1089 C1081 1.427 . S
N1089 C1087 1.384 . S
H1090 C1096 0.930 . S
H1091 C1100 0.930 . S
H1092 C1105 0.929 . S
H1093 C1103 0.929 . S
H1094 C1098 0.929 . S
H1095 C1104 0.929 . S
C1096 H1090 0.930 . S
C1096 C1097 1.367 . S
C1096 C1104 1.378 . S
C1097 C1096 1.367 . S
C1097 C1105 1.433 . S
C1098 H1094 0.929 . S
C1098 C1100 1.378 . S
C1098 C1102 1.350 . S
C1099 C1102 1.463 . S
C1099 C1104 1.350 . S
C1099 N1107 1.427 . S
C1100 H1091 0.930 . S
C1100 C1098 1.378 . S
C1100 C1101 1.367 . S
C1101 C1100 1.367 . S
C1101 C1103 1.433 . S
C1102 C1098 1.350 . S
C1102 C1099 1.463 . S
C1102 N1106 1.427 . S
C1103 H1093 0.929 . S
C1103 C1101 1.433 . S
C1103 N1106 1.384 . S
C1104 H1095 0.929 . S
C1104 C1096 1.378 . S
C1104 C1099 1.350 . S
C1105 H1092 0.929 . S
C1105 C1097 1.433 . S
C1105 N1107 1.384 . S
N1106 C1102 1.427 . S
N1106 C1103 1.384 . S
N1107 C1099 1.427 . S
N1107 C1105 1.384 . S
H1108 C1114 0.930 . S
H1109 C1118 0.930 . S
H1110 C1123 0.929 . S
H1111 C1121 0.929 . S
H1112 C1116 0.929 . S
H1113 C1122 0.929 . S
C1114 H1108 0.930 . S
C1114 C1115 1.367 . S
C1114 C1122 1.378 . S
C1115 C1114 1.367 . S
C1115 C1123 1.433 . S
C1116 H1112 0.929 . S
C1116 C1118 1.378 . S
C1116 C1120 1.350 . S
C1117 C1120 1.463 . S
C1117 C1122 1.350 . S
C1117 N1125 1.427 . S
C1118 H1109 0.930 . S
C1118 C1116 1.378 . S
C1118 C1119 1.367 . S
C1119 C1118 1.367 . S
C1119 C1121 1.433 . S
C1120 C1116 1.350 . S
C1120 C1117 1.463 . S
C1120 N1124 1.427 . S
C1121 H1111 0.929 . S
C1121 C1119 1.433 . S
C1121 N1124 1.384 . S
C1122 H1113 0.929 . S
C1122 C1114 1.378 . S
C1122 C1117 1.350 . S
C1123 H1110 0.929 . S
C1123 C1115 1.433 . S
C1123 N1125 1.384 . S
N1124 C1120 1.427 . S
N1124 C1121 1.384 . S
N1125 C1117 1.427 . S
N1125 C1123 1.384 . S
H1126 C1132 0.930 . S
H1127 C1136 0.930 . S
H1128 C1141 0.929 . S
H1129 C1139 0.929 . S
H1130 C1134 0.929 . S
H1131 C1140 0.929 . S
C1132 H1126 0.930 . S
C1132 C1133 1.367 . S
C1132 C1140 1.378 . S
C1133 C1132 1.367 . S
C1133 C1141 1.433 . S
C1134 H1130 0.929 . S
C1134 C1136 1.378 . S
C1134 C1138 1.350 . S
C1135 C1138 1.463 . S
C1135 C1140 1.350 . S
C1135 N1143 1.427 . S
C1136 H1127 0.930 . S
C1136 C1134 1.378 . S
C1136 C1137 1.367 . S
C1137 C1136 1.367 . S
C1137 C1139 1.433 . S
C1138 C1134 1.350 . S
C1138 C1135 1.463 . S
C1138 N1142 1.427 . S
C1139 H1129 0.929 . S
C1139 C1137 1.433 . S
C1139 N1142 1.384 . S
C1140 H1131 0.929 . S
C1140 C1132 1.378 . S
C1140 C1135 1.350 . S
C1141 H1128 0.929 . S
C1141 C1133 1.433 . S
C1141 N1143 1.384 . S
N1142 C1138 1.427 . S
N1142 C1139 1.384 . S
N1143 C1135 1.427 . S
N1143 C1141 1.384 . S
H1144 C1150 0.930 . S
H1145 C1154 0.930 . S
H1146 C1159 0.929 . S
H1147 C1157 0.929 . S
H1148 C1152 0.929 . S
H1149 C1158 0.929 . S
C1150 H1144 0.930 . S
C1150 C1151 1.367 . S
C1150 C1158 1.378 . S
C1151 C1150 1.367 . S
C1151 C1159 1.433 . S
C1152 H1148 0.929 . S
C1152 C1154 1.378 . S
C1152 C1156 1.350 . S
C1153 C1156 1.463 . S
C1153 C1158 1.350 . S
C1153 N1161 1.427 . S
C1154 H1145 0.930 . S
C1154 C1152 1.378 . S
C1154 C1155 1.367 . S
C1155 C1154 1.367 . S
C1155 C1157 1.433 . S
C1156 C1152 1.350 . S
C1156 C1153 1.463 . S
C1156 N1160 1.427 . S
C1157 H1147 0.929 . S
C1157 C1155 1.433 . S
C1157 N1160 1.384 . S
C1158 H1149 0.929 . S
C1158 C1150 1.378 . S
C1158 C1153 1.350 . S
C1159 H1146 0.929 . S
C1159 C1151 1.433 . S
C1159 N1161 1.384 . S
N1160 C1156 1.427 . S
N1160 C1157 1.384 . S
N1161 C1153 1.427 . S
N1161 C1159 1.384 . S
H1162 C1168 0.930 . S
H1163 C1172 0.930 . S
H1164 C1177 0.929 . S
H1165 C1175 0.929 . S
H1166 C1170 0.929 . S
H1167 C1176 0.929 . S
C1168 H1162 0.930 . S
C1168 C1169 1.367 . S
C1168 C1176 1.378 . S
C1169 C1168 1.367 . S
C1169 C1177 1.433 . S
C1170 H1166 0.929 . S
C1170 C1172 1.378 . S
C1170 C1174 1.350 . S
C1171 C1174 1.463 . S
C1171 C1176 1.350 . S
C1171 N1179 1.427 . S
C1172 H1163 0.930 . S
C1172 C1170 1.378 . S
C1172 C1173 1.367 . S
C1173 C1172 1.367 . S
C1173 C1175 1.433 . S
C1174 C1170 1.350 . S
C1174 C1171 1.463 . S
C1174 N1178 1.427 . S
C1175 H1165 0.929 . S
C1175 C1173 1.433 . S
C1175 N1178 1.384 . S
C1176 H1167 0.929 . S
C1176 C1168 1.378 . S
C1176 C1171 1.350 . S
C1177 H1164 0.929 . S
C1177 C1169 1.433 . S
C1177 N1179 1.384 . S
N1178 C1174 1.427 . S
N1178 C1175 1.384 . S
N1179 C1171 1.427 . S
N1179 C1177 1.384 . S
H1180 C1186 0.930 . S
H1181 C1190 0.930 . S
H1182 C1195 0.929 . S
H1183 C1193 0.929 . S
H1184 C1188 0.929 . S
H1185 C1194 0.929 . S
C1186 H1180 0.930 . S
C1186 C1187 1.367 . S
C1186 C1194 1.378 . S
C1187 C1186 1.367 . S
C1187 C1195 1.433 . S
C1188 H1184 0.929 . S
C1188 C1190 1.378 . S
C1188 C1192 1.350 . S
C1189 C1192 1.463 . S
C1189 C1194 1.350 . S
C1189 N1197 1.427 . S
C1190 H1181 0.930 . S
C1190 C1188 1.378 . S
C1190 C1191 1.367 . S
C1191 C1190 1.367 . S
C1191 C1193 1.433 . S
C1192 C1188 1.350 . S
C1192 C1189 1.463 . S
C1192 N1196 1.427 . S
C1193 H1183 0.929 . S
C1193 C1191 1.433 . S
C1193 N1196 1.384 . S
C1194 H1185 0.929 . S
C1194 C1186 1.378 . S
C1194 C1189 1.350 . S
C1195 H1182 0.929 . S
C1195 C1187 1.433 . S
C1195 N1197 1.384 . S
N1196 C1192 1.427 . S
N1196 C1193 1.384 . S
N1197 C1189 1.427 . S
N1197 C1195 1.384 . S
H1198 C1204 0.930 . S
H1199 C1208 0.930 . S
H1200 C1213 0.929 . S
H1201 C1211 0.929 . S
H1202 C1206 0.929 . S
H1203 C1212 0.929 . S
C1204 H1198 0.930 . S
C1204 C1205 1.367 . S
C1204 C1212 1.378 . S
C1205 C1204 1.367 . S
C1205 C1213 1.433 . S
C1206 H1202 0.929 . S
C1206 C1208 1.378 . S
C1206 C1210 1.350 . S
C1207 C1210 1.463 . S
C1207 C1212 1.350 . S
C1207 N1215 1.427 . S
C1208 H1199 0.930 . S
C1208 C1206 1.378 . S
C1208 C1209 1.367 . S
C1209 C1208 1.367 . S
C1209 C1211 1.433 . S
C1210 C1206 1.350 . S
C1210 C1207 1.463 . S
C1210 N1214 1.427 . S
C1211 H1201 0.929 . S
C1211 C1209 1.433 . S
C1211 N1214 1.384 . S
C1212 H1203 0.929 . S
C1212 C1204 1.378 . S
C1212 C1207 1.350 . S
C1213 H1200 0.929 . S
C1213 C1205 1.433 . S
C1213 N1215 1.384 . S
N1214 C1210 1.427 . S
N1214 C1211 1.384 . S
N1215 C1207 1.427 . S
N1215 C1213 1.384 . S
H1216 C1222 0.930 . S
H1217 C1226 0.930 . S
H1218 C1231 0.929 . S
H1219 C1229 0.929 . S
H1220 C1224 0.929 . S
H1221 C1230 0.929 . S
C1222 H1216 0.930 . S
C1222 C1223 1.367 . S
C1222 C1230 1.378 . S
C1223 C1222 1.367 . S
C1223 C1231 1.433 . S
C1224 H1220 0.929 . S
C1224 C1226 1.378 . S
C1224 C1228 1.350 . S
C1225 C1228 1.463 . S
C1225 C1230 1.350 . S
C1225 N1233 1.427 . S
C1226 H1217 0.930 . S
C1226 C1224 1.378 . S
C1226 C1227 1.367 . S
C1227 C1226 1.367 . S
C1227 C1229 1.433 . S
C1228 C1224 1.350 . S
C1228 C1225 1.463 . S
C1228 N1232 1.427 . S
C1229 H1219 0.929 . S
C1229 C1227 1.433 . S
C1229 N1232 1.384 . S
C1230 H1221 0.929 . S
C1230 C1222 1.378 . S
C1230 C1225 1.350 . S
C1231 H1218 0.929 . S
C1231 C1223 1.433 . S
C1231 N1233 1.384 . S
N1232 C1228 1.427 . S
N1232 C1229 1.384 . S
N1233 C1225 1.427 . S
N1233 C1231 1.384 . S
H1234 C1240 0.930 . S
H1235 C1244 0.930 . S
H1236 C1249 0.929 . S
H1237 C1247 0.929 . S
H1238 C1242 0.929 . S
H1239 C1248 0.929 . S
C1240 H1234 0.930 . S
C1240 C1241 1.367 . S
C1240 C1248 1.378 . S
C1241 C1240 1.367 . S
C1241 C1249 1.433 . S
C1242 H1238 0.929 . S
C1242 C1244 1.378 . S
C1242 C1246 1.350 1_655 S
C1243 C1246 1.463 . S
C1243 C1248 1.350 . S
C1243 N1251 1.427 . S
C1244 H1235 0.930 . S
C1244 C1242 1.378 . S
C1244 C1245 1.367 . S
C1245 C1244 1.367 . S
C1245 C1247 1.433 . S
C1246 C1242 1.350 1_455 S
C1246 C1243 1.463 . S
C1246 N1250 1.427 . S
C1247 H1237 0.929 . S
C1247 C1245 1.433 . S
C1247 N1250 1.384 1_655 S
C1248 H1239 0.929 . S
C1248 C1240 1.378 . S
C1248 C1243 1.350 . S
C1249 H1236 0.929 . S
C1249 C1241 1.433 . S
C1249 N1251 1.384 . S
N1250 C1246 1.427 . S
N1250 C1247 1.384 1_455 S
N1251 C1243 1.427 . S
N1251 C1249 1.384 . S
H1252 C1258 0.930 . S
H1253 C1262 0.930 . S
H1254 C1267 0.929 . S
H1255 C1265 0.929 . S
H1256 C1260 0.929 . S
H1257 C1266 0.929 . S
C1258 H1252 0.930 . S
C1258 C1259 1.367 . S
C1258 C1266 1.378 . S
C1259 C1258 1.367 . S
C1259 C1267 1.433 . S
C1260 H1256 0.929 . S
C1260 C1262 1.378 . S
C1260 C1264 1.350 . S
C1261 C1264 1.463 . S
C1261 C1266 1.350 . S
C1261 N1269 1.427 . S
C1262 H1253 0.930 . S
C1262 C1260 1.378 . S
C1262 C1263 1.367 . S
C1263 C1262 1.367 . S
C1263 C1265 1.433 . S
C1264 C1260 1.350 . S
C1264 C1261 1.463 . S
C1264 N1268 1.427 . S
C1265 H1255 0.929 . S
C1265 C1263 1.433 . S
C1265 N1268 1.384 . S
C1266 H1257 0.929 . S
C1266 C1258 1.378 . S
C1266 C1261 1.350 . S
C1267 H1254 0.929 . S
C1267 C1259 1.433 . S
C1267 N1269 1.384 . S
N1268 C1264 1.427 . S
N1268 C1265 1.384 . S
N1269 C1261 1.427 . S
N1269 C1267 1.384 . S
H1270 C1276 0.930 . S
H1271 C1280 0.930 . S
H1272 C1285 0.929 . S
H1273 C1283 0.929 . S
H1274 C1278 0.929 . S
H1275 C1284 0.929 . S
C1276 H1270 0.930 . S
C1276 C1277 1.367 . S
C1276 C1284 1.378 . S
C1277 C1276 1.367 . S
C1277 C1285 1.433 . S
C1278 H1274 0.929 . S
C1278 C1280 1.378 . S
C1278 C1282 1.350 . S
C1279 C1282 1.463 . S
C1279 C1284 1.350 . S
C1279 N1287 1.427 . S
C1280 H1271 0.930 . S
C1280 C1278 1.378 . S
C1280 C1281 1.367 . S
C1281 C1280 1.367 . S
C1281 C1283 1.433 . S
C1282 C1278 1.350 . S
C1282 C1279 1.463 . S
C1282 N1286 1.427 . S
C1283 H1273 0.929 . S
C1283 C1281 1.433 . S
C1283 N1286 1.384 . S
C1284 H1275 0.929 . S
C1284 C1276 1.378 . S
C1284 C1279 1.350 . S
C1285 H1272 0.929 . S
C1285 C1277 1.433 . S
C1285 N1287 1.384 . S
N1286 C1282 1.427 . S
N1286 C1283 1.384 . S
N1287 C1279 1.427 . S
N1287 C1285 1.384 . S
H1288 C1294 0.930 . S
H1289 C1298 0.930 . S
H1290 C1303 0.929 . S
H1291 C1301 0.929 . S
H1292 C1296 0.929 . S
H1293 C1302 0.929 . S
C1294 H1288 0.930 . S
C1294 C1295 1.367 . S
C1294 C1302 1.378 . S
C1295 C1294 1.367 . S
C1295 C1303 1.433 . S
C1296 H1292 0.929 . S
C1296 C1298 1.378 . S
C1296 C1300 1.350 . S
C1297 C1300 1.463 . S
C1297 C1302 1.350 . S
C1297 N1305 1.427 . S
C1298 H1289 0.930 . S
C1298 C1296 1.378 . S
C1298 C1299 1.367 . S
C1299 C1298 1.367 . S
C1299 C1301 1.433 . S
C1300 C1296 1.350 . S
C1300 C1297 1.463 . S
C1300 N1304 1.427 . S
C1301 H1291 0.929 . S
C1301 C1299 1.433 . S
C1301 N1304 1.384 . S
C1302 H1293 0.929 . S
C1302 C1294 1.378 . S
C1302 C1297 1.350 . S
C1303 H1290 0.929 . S
C1303 C1295 1.433 . S
C1303 N1305 1.384 . S
N1304 C1300 1.427 . S
N1304 C1301 1.384 . S
N1305 C1297 1.427 . S
N1305 C1303 1.384 . S
H1306 C1312 0.930 . S
H1307 C1316 0.930 . S
H1308 C1321 0.929 . S
H1309 C1319 0.929 . S
H1310 C1314 0.929 . S
H1311 C1320 0.929 . S
C1312 H1306 0.930 . S
C1312 C1313 1.367 . S
C1312 C1320 1.378 . S
C1313 C1312 1.367 . S
C1313 C1321 1.433 . S
C1314 H1310 0.929 . S
C1314 C1316 1.378 . S
C1314 C1318 1.350 . S
C1315 C1318 1.463 . S
C1315 C1320 1.350 . S
C1315 N1323 1.427 . S
C1316 H1307 0.930 . S
C1316 C1314 1.378 . S
C1316 C1317 1.367 . S
C1317 C1316 1.367 . S
C1317 C1319 1.433 . S
C1318 C1314 1.350 . S
C1318 C1315 1.463 . S
C1318 N1322 1.427 . S
C1319 H1309 0.929 . S
C1319 C1317 1.433 . S
C1319 N1322 1.384 . S
C1320 H1311 0.929 . S
C1320 C1312 1.378 . S
C1320 C1315 1.350 . S
C1321 H1308 0.929 . S
C1321 C1313 1.433 . S
C1321 N1323 1.384 . S
N1322 C1318 1.427 . S
N1322 C1319 1.384 . S
N1323 C1315 1.427 . S
N1323 C1321 1.384 . S
H1324 C1330 0.930 . S
H1325 C1334 0.930 . S
H1326 C1339 0.929 . S
H1327 C1337 0.929 . S
H1328 C1332 0.929 . S
H1329 C1338 0.929 . S
C1330 H1324 0.930 . S
C1330 C1331 1.367 . S
C1330 C1338 1.378 . S
C1331 C1330 1.367 . S
C1331 C1339 1.433 . S
C1332 H1328 0.929 . S
C1332 C1334 1.378 . S
C1332 C1336 1.350 . S
C1333 C1336 1.463 . S
C1333 C1338 1.350 . S
C1333 N1341 1.427 . S
C1334 H1325 0.930 . S
C1334 C1332 1.378 . S
C1334 C1335 1.367 . S
C1335 C1334 1.367 . S
C1335 C1337 1.433 . S
C1336 C1332 1.350 . S
C1336 C1333 1.463 . S
C1336 N1340 1.427 . S
C1337 H1327 0.929 . S
C1337 C1335 1.433 . S
C1337 N1340 1.384 . S
C1338 H1329 0.929 . S
C1338 C1330 1.378 . S
C1338 C1333 1.350 . S
C1339 H1326 0.929 . S
C1339 C1331 1.433 . S
C1339 N1341 1.384 . S
N1340 C1336 1.427 . S
N1340 C1337 1.384 . S
N1341 C1333 1.427 . S
N1341 C1339 1.384 . S
H1342 C1348 0.930 . S
H1343 C1352 0.930 . S
H1344 C1357 0.929 . S
H1345 C1355 0.929 . S
H1346 C1350 0.929 . S
H1347 C1356 0.929 . S
C1348 H1342 0.930 . S
C1348 C1349 1.367 . S
C1348 C1356 1.378 . S
C1349 C1348 1.367 . S
C1349 C1357 1.433 . S
C1350 H1346 0.929 . S
C1350 C1352 1.378 1_455 S
C1350 C1354 1.350 . S
C1351 C1354 1.463 . S
C1351 C1356 1.350 . S
C1351 N1359 1.427 . S
C1352 H1343 0.930 . S
C1352 C1350 1.378 1_655 S
C1352 C1353 1.367 . S
C1353 C1352 1.367 . S
C1353 C1355 1.433 . S
C1354 C1350 1.350 . S
C1354 C1351 1.463 . S
C1354 N1358 1.427 . S
C1355 H1345 0.929 . S
C1355 C1353 1.433 . S
C1355 N1358 1.384 1_655 S
C1356 H1347 0.929 . S
C1356 C1348 1.378 . S
C1356 C1351 1.350 . S
C1357 H1344 0.929 . S
C1357 C1349 1.433 . S
C1357 N1359 1.384 . S
N1358 C1354 1.427 . S
N1358 C1355 1.384 1_455 S
N1359 C1351 1.427 . S
N1359 C1357 1.384 . S
H1360 C1366 0.930 . S
H1361 C1370 0.930 . S
H1362 C1375 0.929 . S
H1363 C1373 0.929 . S
H1364 C1368 0.929 . S
H1365 C1374 0.929 . S
C1366 H1360 0.930 . S
C1366 C1367 1.367 . S
C1366 C1374 1.378 . S
C1367 C1366 1.367 . S
C1367 C1375 1.433 . S
C1368 H1364 0.929 . S
C1368 C1370 1.378 . S
C1368 C1372 1.350 . S
C1369 C1372 1.463 . S
C1369 C1374 1.350 . S
C1369 N1377 1.427 . S
C1370 H1361 0.930 . S
C1370 C1368 1.378 . S
C1370 C1371 1.367 . S
C1371 C1370 1.367 . S
C1371 C1373 1.433 . S
C1372 C1368 1.350 . S
C1372 C1369 1.463 . S
C1372 N1376 1.427 . S
C1373 H1363 0.929 . S
C1373 C1371 1.433 . S
C1373 N1376 1.384 . S
C1374 H1365 0.929 . S
C1374 C1366 1.378 . S
C1374 C1369 1.350 . S
C1375 H1362 0.929 . S
C1375 C1367 1.433 . S
C1375 N1377 1.384 . S
N1376 C1372 1.427 . S
N1376 C1373 1.384 . S
N1377 C1369 1.427 . S
N1377 C1375 1.384 . S
H1378 C1384 0.930 . S
H1379 C1388 0.930 . S
H1380 C1393 0.929 . S
H1381 C1391 0.929 . S
H1382 C1386 0.929 . S
H1383 C1392 0.929 . S
C1384 H1378 0.930 . S
C1384 C1385 1.367 . S
C1384 C1392 1.378 1_455 S
C1385 C1384 1.367 . S
C1385 C1393 1.433 . S
C1386 H1382 0.929 . S
C1386 C1388 1.378 . S
C1386 C1390 1.350 . S
C1387 C1390 1.463 . S
C1387 C1392 1.350 . S
C1387 N1395 1.427 . S
C1388 H1379 0.930 . S
C1388 C1386 1.378 . S
C1388 C1389 1.367 . S
C1389 C1388 1.367 . S
C1389 C1391 1.433 . S
C1390 C1386 1.350 . S
C1390 C1387 1.463 . S
C1390 N1394 1.427 . S
C1391 H1381 0.929 . S
C1391 C1389 1.433 . S
C1391 N1394 1.384 . S
C1392 H1383 0.929 . S
C1392 C1384 1.378 1_655 S
C1392 C1387 1.350 . S
C1393 H1380 0.929 . S
C1393 C1385 1.433 . S
C1393 N1395 1.384 1_455 S
N1394 C1390 1.427 . S
N1394 C1391 1.384 . S
N1395 C1387 1.427 . S
N1395 C1393 1.384 1_655 S
H1396 C1402 0.930 . S
H1397 C1406 0.930 . S
H1398 C1411 0.929 . S
H1399 C1409 0.929 . S
H1400 C1404 0.929 . S
H1401 C1410 0.929 . S
C1402 H1396 0.930 . S
C1402 C1403 1.367 . S
C1402 C1410 1.378 . S
C1403 C1402 1.367 . S
C1403 C1411 1.433 . S
C1404 H1400 0.929 . S
C1404 C1406 1.378 . S
C1404 C1408 1.350 . S
C1405 C1408 1.463 . S
C1405 C1410 1.350 . S
C1405 N1413 1.427 . S
C1406 H1397 0.930 . S
C1406 C1404 1.378 . S
C1406 C1407 1.367 . S
C1407 C1406 1.367 . S
C1407 C1409 1.433 . S
C1408 C1404 1.350 . S
C1408 C1405 1.463 . S
C1408 N1412 1.427 . S
C1409 H1399 0.929 . S
C1409 C1407 1.433 . S
C1409 N1412 1.384 . S
C1410 H1401 0.929 . S
C1410 C1402 1.378 . S
C1410 C1405 1.350 . S
C1411 H1398 0.929 . S
C1411 C1403 1.433 . S
C1411 N1413 1.384 . S
N1412 C1408 1.427 . S
N1412 C1409 1.384 . S
N1413 C1405 1.427 . S
N1413 C1411 1.384 . S
H1414 C1420 0.930 . S
H1415 C1424 0.930 . S
H1416 C1429 0.929 . S
H1417 C1427 0.929 . S
H1418 C1422 0.929 . S
H1419 C1428 0.929 . S
C1420 H1414 0.930 . S
C1420 C1421 1.367 . S
C1420 C1428 1.378 . S
C1421 C1420 1.367 . S
C1421 C1429 1.433 . S
C1422 H1418 0.929 . S
C1422 C1424 1.378 . S
C1422 C1426 1.350 . S
C1423 C1426 1.463 . S
C1423 C1428 1.350 . S
C1423 N1431 1.427 . S
C1424 H1415 0.930 . S
C1424 C1422 1.378 . S
C1424 C1425 1.367 . S
C1425 C1424 1.367 . S
C1425 C1427 1.433 . S
C1426 C1422 1.350 . S
C1426 C1423 1.463 . S
C1426 N1430 1.427 . S
C1427 H1417 0.929 . S
C1427 C1425 1.433 . S
C1427 N1430 1.384 . S
C1428 H1419 0.929 . S
C1428 C1420 1.378 . S
C1428 C1423 1.350 . S
C1429 H1416 0.929 . S
C1429 C1421 1.433 . S
C1429 N1431 1.384 . S
N1430 C1426 1.427 . S
N1430 C1427 1.384 . S
N1431 C1423 1.427 . S
N1431 C1429 1.384 . S
H1432 C1438 0.930 . S
H1433 C1442 0.930 . S
H1434 C1447 0.929 . S
H1435 C1445 0.929 . S
H1436 C1440 0.929 . S
H1437 C1446 0.929 . S
C1438 H1432 0.930 . S
C1438 C1439 1.367 . S
C1438 C1446 1.378 . S
C1439 C1438 1.367 . S
C1439 C1447 1.433 . S
C1440 H1436 0.929 . S
C1440 C1442 1.378 . S
C1440 C1444 1.350 . S
C1441 C1444 1.463 . S
C1441 C1446 1.350 . S
C1441 N1449 1.427 . S
C1442 H1433 0.930 . S
C1442 C1440 1.378 . S
C1442 C1443 1.367 . S
C1443 C1442 1.367 . S
C1443 C1445 1.433 . S
C1444 C1440 1.350 . S
C1444 C1441 1.463 . S
C1444 N1448 1.427 . S
C1445 H1435 0.929 . S
C1445 C1443 1.433 . S
C1445 N1448 1.384 . S
C1446 H1437 0.929 . S
C1446 C1438 1.378 . S
C1446 C1441 1.350 . S
C1447 H1434 0.929 . S
C1447 C1439 1.433 . S
C1447 N1449 1.384 . S
N1448 C1444 1.427 . S
N1448 C1445 1.384 . S
N1449 C1441 1.427 . S
N1449 C1447 1.384 . S
H1450 C1456 0.930 . S
H1451 C1460 0.930 . S
H1452 C1465 0.929 . S
H1453 C1463 0.929 . S
H1454 C1458 0.929 . S
H1455 C1464 0.929 . S
C1456 H1450 0.930 . S
C1456 C1457 1.367 . S
C1456 C1464 1.378 . S
C1457 C1456 1.367 . S
C1457 C1465 1.433 . S
C1458 H1454 0.929 . S
C1458 C1460 1.378 . S
C1458 C1462 1.350 . S
C1459 C1462 1.463 . S
C1459 C1464 1.350 . S
C1459 N1467 1.427 . S
C1460 H1451 0.930 . S
C1460 C1458 1.378 . S
C1460 C1461 1.367 . S
C1461 C1460 1.367 . S
C1461 C1463 1.433 . S
C1462 C1458 1.350 . S
C1462 C1459 1.463 . S
C1462 N1466 1.427 . S
C1463 H1453 0.929 . S
C1463 C1461 1.433 . S
C1463 N1466 1.384 . S
C1464 H1455 0.929 . S
C1464 C1456 1.378 . S
C1464 C1459 1.350 . S
C1465 H1452 0.929 . S
C1465 C1457 1.433 . S
C1465 N1467 1.384 . S
N1466 C1462 1.427 . S
N1466 C1463 1.384 . S
N1467 C1459 1.427 . S
N1467 C1465 1.384 . S
H1468 C1474 0.930 . S
H1469 C1478 0.930 . S
H1470 C1483 0.929 . S
H1471 C1481 0.929 . S
H1472 C1476 0.929 . S
H1473 C1482 0.929 . S
C1474 H1468 0.930 . S
C1474 C1475 1.367 . S
C1474 C1482 1.378 . S
C1475 C1474 1.367 . S
C1475 C1483 1.433 . S
C1476 H1472 0.929 . S
C1476 C1478 1.378 . S
C1476 C1480 1.350 . S
C1477 C1480 1.463 . S
C1477 C1482 1.350 . S
C1477 N1485 1.427 . S
C1478 H1469 0.930 . S
C1478 C1476 1.378 . S
C1478 C1479 1.367 . S
C1479 C1478 1.367 . S
C1479 C1481 1.433 . S
C1480 C1476 1.350 . S
C1480 C1477 1.463 . S
C1480 N1484 1.427 . S
C1481 H1471 0.929 . S
C1481 C1479 1.433 . S
C1481 N1484 1.384 . S
C1482 H1473 0.929 . S
C1482 C1474 1.378 . S
C1482 C1477 1.350 . S
C1483 H1470 0.929 . S
C1483 C1475 1.433 . S
C1483 N1485 1.384 . S
N1484 C1480 1.427 . S
N1484 C1481 1.384 . S
N1485 C1477 1.427 . S
N1485 C1483 1.384 . S
H1486 C1492 0.930 . S
H1487 C1496 0.930 . S
H1488 C1501 0.929 . S
H1489 C1499 0.929 . S
H1490 C1494 0.929 1_655 S
H1491 C1500 0.929 . S
C1492 H1486 0.930 . S
C1492 C1493 1.367 . S
C1492 C1500 1.378 . S
C1493 C1492 1.367 . S
C1493 C1501 1.433 . S
C1494 H1490 0.929 1_455 S
C1494 C1496 1.378 . S
C1494 C1498 1.350 1_455 S
C1495 C1498 1.463 . S
C1495 C1500 1.350 . S
C1495 N1503 1.427 . S
C1496 H1487 0.930 . S
C1496 C1494 1.378 . S
C1496 C1497 1.367 . S
C1497 C1496 1.367 . S
C1497 C1499 1.433 . S
C1498 C1494 1.350 1_655 S
C1498 C1495 1.463 . S
C1498 N1502 1.427 . S
C1499 H1489 0.929 . S
C1499 C1497 1.433 . S
C1499 N1502 1.384 1_455 S
C1500 H1491 0.929 . S
C1500 C1492 1.378 . S
C1500 C1495 1.350 . S
C1501 H1488 0.929 . S
C1501 C1493 1.433 . S
C1501 N1503 1.384 . S
N1502 C1498 1.427 . S
N1502 C1499 1.384 1_655 S
N1503 C1495 1.427 . S
N1503 C1501 1.384 . S
H1504 C1510 0.930 . S
H1505 C1514 0.930 . S
H1506 C1519 0.929 . S
H1507 C1517 0.929 . S
H1508 C1512 0.929 . S
H1509 C1518 0.929 . S
C1510 H1504 0.930 . S
C1510 C1511 1.367 . S
C1510 C1518 1.378 . S
C1511 C1510 1.367 . S
C1511 C1519 1.433 . S
C1512 H1508 0.929 . S
C1512 C1514 1.378 . S
C1512 C1516 1.350 . S
C1513 C1516 1.463 . S
C1513 C1518 1.350 . S
C1513 N1521 1.427 . S
C1514 H1505 0.930 . S
C1514 C1512 1.378 . S
C1514 C1515 1.367 . S
C1515 C1514 1.367 . S
C1515 C1517 1.433 . S
C1516 C1512 1.350 . S
C1516 C1513 1.463 . S
C1516 N1520 1.427 . S
C1517 H1507 0.929 . S
C1517 C1515 1.433 . S
C1517 N1520 1.384 . S
C1518 H1509 0.929 . S
C1518 C1510 1.378 . S
C1518 C1513 1.350 . S
C1519 H1506 0.929 . S
C1519 C1511 1.433 . S
C1519 N1521 1.384 . S
N1520 C1516 1.427 . S
N1520 C1517 1.384 . S
N1521 C1513 1.427 . S
N1521 C1519 1.384 . S
H1522 C1528 0.930 . S
H1523 C1532 0.930 . S
H1524 C1537 0.929 . S
H1525 C1535 0.929 . S
H1526 C1530 0.929 . S
H1527 C1536 0.929 . S
C1528 H1522 0.930 . S
C1528 C1529 1.367 . S
C1528 C1536 1.378 . S
C1529 C1528 1.367 . S
C1529 C1537 1.433 . S
C1530 H1526 0.929 . S
C1530 C1532 1.378 . S
C1530 C1534 1.350 . S
C1531 C1534 1.463 . S
C1531 C1536 1.350 . S
C1531 N1539 1.427 . S
C1532 H1523 0.930 . S
C1532 C1530 1.378 . S
C1532 C1533 1.367 . S
C1533 C1532 1.367 . S
C1533 C1535 1.433 . S
C1534 C1530 1.350 . S
C1534 C1531 1.463 . S
C1534 N1538 1.427 . S
C1535 H1525 0.929 . S
C1535 C1533 1.433 . S
C1535 N1538 1.384 . S
C1536 H1527 0.929 . S
C1536 C1528 1.378 . S
C1536 C1531 1.350 . S
C1537 H1524 0.929 . S
C1537 C1529 1.433 . S
C1537 N1539 1.384 . S
N1538 C1534 1.427 . S
N1538 C1535 1.384 . S
N1539 C1531 1.427 . S
N1539 C1537 1.384 . S
H1540 C1546 0.930 . S
H1541 C1550 0.930 . S
H1542 C1555 0.929 . S
H1543 C1553 0.929 . S
H1544 C1548 0.929 . S
H1545 C1554 0.929 . S
C1546 H1540 0.930 . S
C1546 C1547 1.367 . S
C1546 C1554 1.378 . S
C1547 C1546 1.367 . S
C1547 C1555 1.433 . S
C1548 H1544 0.929 . S
C1548 C1550 1.378 . S
C1548 C1552 1.350 . S
C1549 C1552 1.463 . S
C1549 C1554 1.350 . S
C1549 N1557 1.427 . S
C1550 H1541 0.930 . S
C1550 C1548 1.378 . S
C1550 C1551 1.367 . S
C1551 C1550 1.367 . S
C1551 C1553 1.433 . S
C1552 C1548 1.350 . S
C1552 C1549 1.463 . S
C1552 N1556 1.427 . S
C1553 H1543 0.929 . S
C1553 C1551 1.433 . S
C1553 N1556 1.384 . S
C1554 H1545 0.929 . S
C1554 C1546 1.378 . S
C1554 C1549 1.350 . S
C1555 H1542 0.929 . S
C1555 C1547 1.433 . S
C1555 N1557 1.384 . S
N1556 C1552 1.427 . S
N1556 C1553 1.384 . S
N1557 C1549 1.427 . S
N1557 C1555 1.384 . S
H1558 C1564 0.930 . S
H1559 C1568 0.930 . S
H1560 C1573 0.929 . S
H1561 C1571 0.929 . S
H1562 C1566 0.928 1_655 S
H1563 C1572 0.929 . S
C1564 H1558 0.930 . S
C1564 C1565 1.367 . S
C1564 C1572 1.378 . S
C1565 C1564 1.367 . S
C1565 C1573 1.433 . S
C1566 H1562 0.928 1_455 S
C1566 C1568 1.378 . S
C1566 C1570 1.350 1_455 S
C1567 C1570 1.463 . S
C1567 C1572 1.350 . S
C1567 N1575 1.427 . S
C1568 H1559 0.930 . S
C1568 C1566 1.378 . S
C1568 C1569 1.367 . S
C1569 C1568 1.367 . S
C1569 C1571 1.433 . S
C1570 C1566 1.350 1_655 S
C1570 C1567 1.463 . S
C1570 N1574 1.427 . S
C1571 H1561 0.929 . S
C1571 C1569 1.433 . S
C1571 N1574 1.384 1_455 S
C1572 H1563 0.929 . S
C1572 C1564 1.378 . S
C1572 C1567 1.350 . S
C1573 H1560 0.929 . S
C1573 C1565 1.433 . S
C1573 N1575 1.384 . S
N1574 C1570 1.427 . S
N1574 C1571 1.384 1_655 S
N1575 C1567 1.427 . S
N1575 C1573 1.384 . S
H1576 C1582 0.930 . S
H1577 C1586 0.930 . S
H1578 C1591 0.929 . S
H1579 C1589 0.929 . S
H1580 C1584 0.929 . S
H1581 C1590 0.929 . S
C1582 H1576 0.930 . S
C1582 C1583 1.367 . S
C1582 C1590 1.378 . S
C1583 C1582 1.367 . S
C1583 C1591 1.433 . S
C1584 H1580 0.929 . S
C1584 C1586 1.378 . S
C1584 C1588 1.350 . S
C1585 C1588 1.463 . S
C1585 C1590 1.350 . S
C1585 N1593 1.427 . S
C1586 H1577 0.930 . S
C1586 C1584 1.378 . S
C1586 C1587 1.367 . S
C1587 C1586 1.367 . S
C1587 C1589 1.433 . S
C1588 C1584 1.350 . S
C1588 C1585 1.463 . S
C1588 N1592 1.427 . S
C1589 H1579 0.929 . S
C1589 C1587 1.433 . S
C1589 N1592 1.384 . S
C1590 H1581 0.929 . S
C1590 C1582 1.378 . S
C1590 C1585 1.350 . S
C1591 H1578 0.929 . S
C1591 C1583 1.433 . S
C1591 N1593 1.384 . S
N1592 C1588 1.427 . S
N1592 C1589 1.384 . S
N1593 C1585 1.427 . S
N1593 C1591 1.384 . S
H1594 C1600 0.930 . S
H1595 C1604 0.930 . S
H1596 C1609 0.929 . S
H1597 C1607 0.929 . S
H1598 C1602 0.929 . S
H1599 C1608 0.929 . S
C1600 H1594 0.930 . S
C1600 C1601 1.367 . S
C1600 C1608 1.378 . S
C1601 C1600 1.367 . S
C1601 C1609 1.433 . S
C1602 H1598 0.929 . S
C1602 C1604 1.378 1_655 S
C1602 C1606 1.350 . S
C1603 C1606 1.463 . S
C1603 C1608 1.350 . S
C1603 N1611 1.427 . S
C1604 H1595 0.930 . S
C1604 C1602 1.378 1_455 S
C1604 C1605 1.367 . S
C1605 C1604 1.367 . S
C1605 C1607 1.433 . S
C1606 C1602 1.350 . S
C1606 C1603 1.463 . S
C1606 N1610 1.427 . S
C1607 H1597 0.929 . S
C1607 C1605 1.433 . S
C1607 N1610 1.384 1_455 S
C1608 H1599 0.929 . S
C1608 C1600 1.378 . S
C1608 C1603 1.350 . S
C1609 H1596 0.929 . S
C1609 C1601 1.433 . S
C1609 N1611 1.384 . S
N1610 C1606 1.427 . S
N1610 C1607 1.384 1_655 S
N1611 C1603 1.427 . S
N1611 C1609 1.384 . S
H1612 C1618 0.930 . S
H1613 C1622 0.930 . S
H1614 C1627 0.929 . S
H1615 C1625 0.929 . S
H1616 C1620 0.929 . S
H1617 C1626 0.929 . S
C1618 H1612 0.930 . S
C1618 C1619 1.367 . S
C1618 C1626 1.378 . S
C1619 C1618 1.367 . S
C1619 C1627 1.433 . S
C1620 H1616 0.929 . S
C1620 C1622 1.378 . S
C1620 C1624 1.350 . S
C1621 C1624 1.463 . S
C1621 C1626 1.350 . S
C1621 N1629 1.427 . S
C1622 H1613 0.930 . S
C1622 C1620 1.378 . S
C1622 C1623 1.367 . S
C1623 C1622 1.367 . S
C1623 C1625 1.433 . S
C1624 C1620 1.350 . S
C1624 C1621 1.463 . S
C1624 N1628 1.427 . S
C1625 H1615 0.929 . S
C1625 C1623 1.433 . S
C1625 N1628 1.384 . S
C1626 H1617 0.929 . S
C1626 C1618 1.378 . S
C1626 C1621 1.350 . S
C1627 H1614 0.929 . S
C1627 C1619 1.433 . S
C1627 N1629 1.384 . S
N1628 C1624 1.427 . S
N1628 C1625 1.384 . S
N1629 C1621 1.427 . S
N1629 C1627 1.384 . S
H1630 C1636 0.930 . S
H1631 C1640 0.930 . S
H1632 C1645 0.929 . S
H1633 C1643 0.929 . S
H1634 C1638 0.929 . S
H1635 C1644 0.929 . S
C1636 H1630 0.930 . S
C1636 C1637 1.367 . S
C1636 C1644 1.378 . S
C1637 C1636 1.367 . S
C1637 C1645 1.433 . S
C1638 H1634 0.929 . S
C1638 C1640 1.378 . S
C1638 C1642 1.350 . S
C1639 C1642 1.463 . S
C1639 C1644 1.350 . S
C1639 N1647 1.427 . S
C1640 H1631 0.930 . S
C1640 C1638 1.378 . S
C1640 C1641 1.367 . S
C1641 C1640 1.367 . S
C1641 C1643 1.433 . S
C1642 C1638 1.350 . S
C1642 C1639 1.463 . S
C1642 N1646 1.427 . S
C1643 H1633 0.929 . S
C1643 C1641 1.433 . S
C1643 N1646 1.384 . S
C1644 H1635 0.929 . S
C1644 C1636 1.378 . S
C1644 C1639 1.350 . S
C1645 H1632 0.929 . S
C1645 C1637 1.433 . S
C1645 N1647 1.384 . S
N1646 C1642 1.427 . S
N1646 C1643 1.384 . S
N1647 C1639 1.427 . S
N1647 C1645 1.384 . S
H1648 C1654 0.930 . S
H1649 C1658 0.930 . S
H1650 C1663 0.929 . S
H1651 C1661 0.929 . S
H1652 C1656 0.929 . S
H1653 C1662 0.929 . S
C1654 H1648 0.930 . S
C1654 C1655 1.367 . S
C1654 C1662 1.378 . S
C1655 C1654 1.367 . S
C1655 C1663 1.433 . S
C1656 H1652 0.929 . S
C1656 C1658 1.378 . S
C1656 C1660 1.350 . S
C1657 C1660 1.463 . S
C1657 C1662 1.350 . S
C1657 N1665 1.427 . S
C1658 H1649 0.930 . S
C1658 C1656 1.378 . S
C1658 C1659 1.367 . S
C1659 C1658 1.367 . S
C1659 C1661 1.433 . S
C1660 C1656 1.350 . S
C1660 C1657 1.463 . S
C1660 N1664 1.427 . S
C1661 H1651 0.929 . S
C1661 C1659 1.433 . S
C1661 N1664 1.384 . S
C1662 H1653 0.929 . S
C1662 C1654 1.378 . S
C1662 C1657 1.350 . S
C1663 H1650 0.929 . S
C1663 C1655 1.433 . S
C1663 N1665 1.384 . S
N1664 C1660 1.427 . S
N1664 C1661 1.384 . S
N1665 C1657 1.427 . S
N1665 C1663 1.384 . S
H1666 C1672 0.930 . S
H1667 C1676 0.930 . S
H1668 C1681 0.929 . S
H1669 C1679 0.929 . S
H1670 C1674 0.929 . S
H1671 C1680 0.929 . S
C1672 H1666 0.930 . S
C1672 C1673 1.367 . S
C1672 C1680 1.378 . S
C1673 C1672 1.367 . S
C1673 C1681 1.433 . S
C1674 H1670 0.929 . S
C1674 C1676 1.378 . S
C1674 C1678 1.350 . S
C1675 C1678 1.463 . S
C1675 C1680 1.350 . S
C1675 N1683 1.427 . S
C1676 H1667 0.930 . S
C1676 C1674 1.378 . S
C1676 C1677 1.367 . S
C1677 C1676 1.367 . S
C1677 C1679 1.433 . S
C1678 C1674 1.350 . S
C1678 C1675 1.463 . S
C1678 N1682 1.427 . S
C1679 H1669 0.929 . S
C1679 C1677 1.433 . S
C1679 N1682 1.384 . S
C1680 H1671 0.929 . S
C1680 C1672 1.378 . S
C1680 C1675 1.350 . S
C1681 H1668 0.929 . S
C1681 C1673 1.433 . S
C1681 N1683 1.384 . S
N1682 C1678 1.427 . S
N1682 C1679 1.384 . S
N1683 C1675 1.427 . S
N1683 C1681 1.384 . S
H1684 C1690 0.930 . S
H1685 C1694 0.930 . S
H1686 C1699 0.929 . S
H1687 C1697 0.929 . S
H1688 C1692 0.929 . S
H1689 C1698 0.929 . S
C1690 H1684 0.930 . S
C1690 C1691 1.367 . S
C1690 C1698 1.378 . S
C1691 C1690 1.367 . S
C1691 C1699 1.433 . S
C1692 H1688 0.929 . S
C1692 C1694 1.378 . S
C1692 C1696 1.350 . S
C1693 C1696 1.463 . S
C1693 C1698 1.350 . S
C1693 N1701 1.427 . S
C1694 H1685 0.930 . S
C1694 C1692 1.378 . S
C1694 C1695 1.367 . S
C1695 C1694 1.367 . S
C1695 C1697 1.433 . S
C1696 C1692 1.350 . S
C1696 C1693 1.463 . S
C1696 N1700 1.427 . S
C1697 H1687 0.929 . S
C1697 C1695 1.433 . S
C1697 N1700 1.384 . S
C1698 H1689 0.929 . S
C1698 C1690 1.378 . S
C1698 C1693 1.350 . S
C1699 H1686 0.929 . S
C1699 C1691 1.433 . S
C1699 N1701 1.384 . S
N1700 C1696 1.427 . S
N1700 C1697 1.384 . S
N1701 C1693 1.427 . S
N1701 C1699 1.384 . S
H1702 C1708 0.930 . S
H1703 C1712 0.930 . S
H1704 C1717 0.929 . S
H1705 C1715 0.929 . S
H1706 C1710 0.929 . S
H1707 C1716 0.929 . S
C1708 H1702 0.930 . S
C1708 C1709 1.367 . S
C1708 C1716 1.378 1_655 S
C1709 C1708 1.367 . S
C1709 C1717 1.433 . S
C1710 H1706 0.929 . S
C1710 C1712 1.378 . S
C1710 C1714 1.350 . S
C1711 C1714 1.463 . S
C1711 C1716 1.350 . S
C1711 N1719 1.427 . S
C1712 H1703 0.930 . S
C1712 C1710 1.378 . S
C1712 C1713 1.367 . S
C1713 C1712 1.367 . S
C1713 C1715 1.433 . S
C1714 C1710 1.350 . S
C1714 C1711 1.463 . S
C1714 N1718 1.427 . S
C1715 H1705 0.929 . S
C1715 C1713 1.433 . S
C1715 N1718 1.384 . S
C1716 H1707 0.929 . S
C1716 C1708 1.378 1_455 S
C1716 C1711 1.350 . S
C1717 H1704 0.929 . S
C1717 C1709 1.433 . S
C1717 N1719 1.384 1_655 S
N1718 C1714 1.427 . S
N1718 C1715 1.384 . S
N1719 C1711 1.427 . S
N1719 C1717 1.384 1_455 S
H1720 C1726 0.930 . S
H1721 C1730 0.930 . S
H1722 C1735 0.929 . S
H1723 C1733 0.929 . S
H1724 C1728 0.929 . S
H1725 C1734 0.929 . S
C1726 H1720 0.930 . S
C1726 C1727 1.367 . S
C1726 C1734 1.378 . S
C1727 C1726 1.367 . S
C1727 C1735 1.433 . S
C1728 H1724 0.929 . S
C1728 C1730 1.378 . S
C1728 C1732 1.350 . S
C1729 C1732 1.463 . S
C1729 C1734 1.350 . S
C1729 N1737 1.427 . S
C1730 H1721 0.930 . S
C1730 C1728 1.378 . S
C1730 C1731 1.367 . S
C1731 C1730 1.367 . S
C1731 C1733 1.433 . S
C1732 C1728 1.350 . S
C1732 C1729 1.463 . S
C1732 N1736 1.427 . S
C1733 H1723 0.929 . S
C1733 C1731 1.433 . S
C1733 N1736 1.384 . S
C1734 H1725 0.929 . S
C1734 C1726 1.378 . S
C1734 C1729 1.350 . S
C1735 H1722 0.929 . S
C1735 C1727 1.433 . S
C1735 N1737 1.384 . S
N1736 C1732 1.427 . S
N1736 C1733 1.384 . S
N1737 C1729 1.427 . S
N1737 C1735 1.384 . S
H1738 C1744 0.930 . S
H1739 C1748 0.930 . S
H1740 C1753 0.929 . S
H1741 C1751 0.929 . S
H1742 C1746 0.929 . S
H1743 C1752 0.929 . S
C1744 H1738 0.930 . S
C1744 C1745 1.367 . S
C1744 C1752 1.378 . S
C1745 C1744 1.367 . S
C1745 C1753 1.433 . S
C1746 H1742 0.929 . S
C1746 C1748 1.378 1_455 S
C1746 C1750 1.350 . S
C1747 C1750 1.463 . S
C1747 C1752 1.350 . S
C1747 N1755 1.427 . S
C1748 H1739 0.930 . S
C1748 C1746 1.378 1_655 S
C1748 C1749 1.367 . S
C1749 C1748 1.367 . S
C1749 C1751 1.433 . S
C1750 C1746 1.350 . S
C1750 C1747 1.463 . S
C1750 N1754 1.427 . S
C1751 H1741 0.929 . S
C1751 C1749 1.433 . S
C1751 N1754 1.384 1_655 S
C1752 H1743 0.929 . S
C1752 C1744 1.378 . S
C1752 C1747 1.350 . S
C1753 H1740 0.929 . S
C1753 C1745 1.433 . S
C1753 N1755 1.384 . S
N1754 C1750 1.427 . S
N1754 C1751 1.384 1_455 S
N1755 C1747 1.427 . S
N1755 C1753 1.384 . S
H1756 C1762 0.930 . S
H1757 C1766 0.930 . S
H1758 C1771 0.929 . S
H1759 C1769 0.929 . S
H1760 C1764 0.929 . S
H1761 C1770 0.929 . S
C1762 H1756 0.930 . S
C1762 C1763 1.367 . S
C1762 C1770 1.378 . S
C1763 C1762 1.367 . S
C1763 C1771 1.433 . S
C1764 H1760 0.929 . S
C1764 C1766 1.378 . S
C1764 C1768 1.350 . S
C1765 C1768 1.463 . S
C1765 C1770 1.350 . S
C1765 N1773 1.427 . S
C1766 H1757 0.930 . S
C1766 C1764 1.378 . S
C1766 C1767 1.367 . S
C1767 C1766 1.367 . S
C1767 C1769 1.433 . S
C1768 C1764 1.350 . S
C1768 C1765 1.463 . S
C1768 N1772 1.427 . S
C1769 H1759 0.929 . S
C1769 C1767 1.433 . S
C1769 N1772 1.384 . S
C1770 H1761 0.929 . S
C1770 C1762 1.378 . S
C1770 C1765 1.350 . S
C1771 H1758 0.929 . S
C1771 C1763 1.433 . S
C1771 N1773 1.384 . S
N1772 C1768 1.427 . S
N1772 C1769 1.384 . S
N1773 C1765 1.427 . S
N1773 C1771 1.384 . S
H1774 C1780 0.930 . S
H1775 C1784 0.930 . S
H1776 C1789 0.929 . S
H1777 C1787 0.929 . S
H1778 C1782 0.929 . S
H1779 C1788 0.929 . S
C1780 H1774 0.930 . S
C1780 C1781 1.367 . S
C1780 C1788 1.378 . S
C1781 C1780 1.367 . S
C1781 C1789 1.433 . S
C1782 H1778 0.929 . S
C1782 C1784 1.378 . S
C1782 C1786 1.350 . S
C1783 C1786 1.463 . S
C1783 C1788 1.350 . S
C1783 N1791 1.427 . S
C1784 H1775 0.930 . S
C1784 C1782 1.378 . S
C1784 C1785 1.367 . S
C1785 C1784 1.367 . S
C1785 C1787 1.433 . S
C1786 C1782 1.350 . S
C1786 C1783 1.463 . S
C1786 N1790 1.427 . S
C1787 H1777 0.929 . S
C1787 C1785 1.433 . S
C1787 N1790 1.384 . S
C1788 H1779 0.929 . S
C1788 C1780 1.378 . S
C1788 C1783 1.350 . S
C1789 H1776 0.929 . S
C1789 C1781 1.433 . S
C1789 N1791 1.384 . S
N1790 C1786 1.427 . S
N1790 C1787 1.384 . S
N1791 C1783 1.427 . S
N1791 C1789 1.384 . S
H1792 C1798 0.930 . S
H1793 C1802 0.930 . S
H1794 C1807 0.929 . S
H1795 C1805 0.929 . S
H1796 C1800 0.929 . S
H1797 C1806 0.929 . S
C1798 H1792 0.930 . S
C1798 C1799 1.367 . S
C1798 C1806 1.378 . S
C1799 C1798 1.367 . S
C1799 C1807 1.433 . S
C1800 H1796 0.929 . S
C1800 C1802 1.378 . S
C1800 C1804 1.350 . S
C1801 C1804 1.463 1_545 S
C1801 C1806 1.350 . S
C1801 N1809 1.427 . S
C1802 H1793 0.930 . S
C1802 C1800 1.378 . S
C1802 C1803 1.367 . S
C1803 C1802 1.367 . S
C1803 C1805 1.433 . S
C1804 C1800 1.350 . S
C1804 C1801 1.463 1_565 S
C1804 N1808 1.427 . S
C1805 H1795 0.929 . S
C1805 C1803 1.433 . S
C1805 N1808 1.384 . S
C1806 H1797 0.929 . S
C1806 C1798 1.378 . S
C1806 C1801 1.350 . S
C1807 H1794 0.929 . S
C1807 C1799 1.433 . S
C1807 N1809 1.384 . S
N1808 C1804 1.427 . S
N1808 C1805 1.384 . S
N1809 C1801 1.427 . S
N1809 C1807 1.384 . S
H1810 C1816 0.930 . S
H1811 C1820 0.930 . S
H1812 C1825 0.929 . S
H1813 C1823 0.929 . S
H1814 C1818 0.929 . S
H1815 C1824 0.929 . S
C1816 H1810 0.930 . S
C1816 C1817 1.367 . S
C1816 C1824 1.378 . S
C1817 C1816 1.367 . S
C1817 C1825 1.433 . S
C1818 H1814 0.929 . S
C1818 C1820 1.378 . S
C1818 C1822 1.350 . S
C1819 C1822 1.463 . S
C1819 C1824 1.350 . S
C1819 N1827 1.427 . S
C1820 H1811 0.930 . S
C1820 C1818 1.378 . S
C1820 C1821 1.367 . S
C1821 C1820 1.367 . S
C1821 C1823 1.433 . S
C1822 C1818 1.350 . S
C1822 C1819 1.463 . S
C1822 N1826 1.427 . S
C1823 H1813 0.929 . S
C1823 C1821 1.433 . S
C1823 N1826 1.384 . S
C1824 H1815 0.929 . S
C1824 C1816 1.378 . S
C1824 C1819 1.350 . S
C1825 H1812 0.929 . S
C1825 C1817 1.433 . S
C1825 N1827 1.384 . S
N1826 C1822 1.427 . S
N1826 C1823 1.384 . S
N1827 C1819 1.427 . S
N1827 C1825 1.384 . S
H1828 C1834 0.930 . S
H1829 C1838 0.930 . S
H1830 C1843 0.929 . S
H1831 C1841 0.929 . S
H1832 C1836 0.929 . S
H1833 C1842 0.929 . S
C1834 H1828 0.930 . S
C1834 C1835 1.367 . S
C1834 C1842 1.378 . S
C1835 C1834 1.367 . S
C1835 C1843 1.433 . S
C1836 H1832 0.929 . S
C1836 C1838 1.378 . S
C1836 C1840 1.350 . S
C1837 C1840 1.463 1_565 S
C1837 C1842 1.350 . S
C1837 N1845 1.427 . S
C1838 H1829 0.930 . S
C1838 C1836 1.378 . S
C1838 C1839 1.367 . S
C1839 C1838 1.367 . S
C1839 C1841 1.433 . S
C1840 C1836 1.350 . S
C1840 C1837 1.463 1_545 S
C1840 N1844 1.427 . S
C1841 H1831 0.929 . S
C1841 C1839 1.433 . S
C1841 N1844 1.384 . S
C1842 H1833 0.929 . S
C1842 C1834 1.378 . S
C1842 C1837 1.350 . S
C1843 H1830 0.929 . S
C1843 C1835 1.433 . S
C1843 N1845 1.384 . S
N1844 C1840 1.427 . S
N1844 C1841 1.384 . S
N1845 C1837 1.427 . S
N1845 C1843 1.384 . S
H1846 C1852 0.930 . S
H1847 C1856 0.930 . S
H1848 C1861 0.929 . S
H1849 C1859 0.929 . S
H1850 C1854 0.929 . S
H1851 C1860 0.929 . S
C1852 H1846 0.930 . S
C1852 C1853 1.367 . S
C1852 C1860 1.378 1_556 S
C1853 C1852 1.367 . S
C1853 C1861 1.433 . S
C1854 H1850 0.929 . S
C1854 C1856 1.378 1_556 S
C1854 C1858 1.350 1_556 S
C1855 C1858 1.463 1_556 S
C1855 C1860 1.350 1_556 S
C1855 N1863 1.427 . S
C1856 H1847 0.930 . S
C1856 C1854 1.378 1_554 S
C1856 C1857 1.367 . S
C1857 C1856 1.367 . S
C1857 C1859 1.433 . S
C1858 C1854 1.350 1_554 S
C1858 C1855 1.463 1_554 S
C1858 N1862 1.427 . S
C1859 H1849 0.929 . S
C1859 C1857 1.433 . S
C1859 N1862 1.384 . S
C1860 H1851 0.929 . S
C1860 C1852 1.378 1_554 S
C1860 C1855 1.350 1_554 S
C1861 H1848 0.929 . S
C1861 C1853 1.433 . S
C1861 N1863 1.384 . S
N1862 C1858 1.427 . S
N1862 C1859 1.384 . S
N1863 C1855 1.427 . S
N1863 C1861 1.384 . S
H1864 C1870 0.930 . S
H1865 C1874 0.930 . S
H1866 C1879 0.929 . S
H1867 C1877 0.929 . S
H1868 C1872 0.929 . S
H1869 C1878 0.929 . S
C1870 H1864 0.930 . S
C1870 C1871 1.367 . S
C1870 C1878 1.378 . S
C1871 C1870 1.367 . S
C1871 C1879 1.433 . S
C1872 H1868 0.929 . S
C1872 C1874 1.378 . S
C1872 C1876 1.350 . S
C1873 C1876 1.463 1_545 S
C1873 C1878 1.350 . S
C1873 N1881 1.427 . S
C1874 H1865 0.930 . S
C1874 C1872 1.378 . S
C1874 C1875 1.367 . S
C1875 C1874 1.367 . S
C1875 C1877 1.433 . S
C1876 C1872 1.350 . S
C1876 C1873 1.463 1_565 S
C1876 N1880 1.427 . S
C1877 H1867 0.929 . S
C1877 C1875 1.433 . S
C1877 N1880 1.384 . S
C1878 H1869 0.929 . S
C1878 C1870 1.378 . S
C1878 C1873 1.350 . S
C1879 H1866 0.929 . S
C1879 C1871 1.433 . S
C1879 N1881 1.384 . S
N1880 C1876 1.427 . S
N1880 C1877 1.384 . S
N1881 C1873 1.427 . S
N1881 C1879 1.384 . S
H1882 C1888 0.930 . S
H1883 C1892 0.930 . S
H1884 C1897 0.929 . S
H1885 C1895 0.929 . S
H1886 C1890 0.929 . S
H1887 C1896 0.929 . S
C1888 H1882 0.930 . S
C1888 C1889 1.367 . S
C1888 C1896 1.378 . S
C1889 C1888 1.367 . S
C1889 C1897 1.433 . S
C1890 H1886 0.929 . S
C1890 C1892 1.378 . S
C1890 C1894 1.350 . S
C1891 C1894 1.463 . S
C1891 C1896 1.350 . S
C1891 N1899 1.427 . S
C1892 H1883 0.930 . S
C1892 C1890 1.378 . S
C1892 C1893 1.367 . S
C1893 C1892 1.367 . S
C1893 C1895 1.433 . S
C1894 C1890 1.350 . S
C1894 C1891 1.463 . S
C1894 N1898 1.427 . S
C1895 H1885 0.929 . S
C1895 C1893 1.433 . S
C1895 N1898 1.384 . S
C1896 H1887 0.929 . S
C1896 C1888 1.378 . S
C1896 C1891 1.350 . S
C1897 H1884 0.929 . S
C1897 C1889 1.433 . S
C1897 N1899 1.384 . S
N1898 C1894 1.427 . S
N1898 C1895 1.384 . S
N1899 C1891 1.427 . S
N1899 C1897 1.384 . S
H1900 C1906 0.930 . S
H1901 C1910 0.930 . S
H1902 C1915 0.929 . S
H1903 C1913 0.929 . S
H1904 C1908 0.929 . S
H1905 C1914 0.929 . S
C1906 H1900 0.930 . S
C1906 C1907 1.367 . S
C1906 C1914 1.378 . S
C1907 C1906 1.367 . S
C1907 C1915 1.433 . S
C1908 H1904 0.929 . S
C1908 C1910 1.378 . S
C1908 C1912 1.350 . S
C1909 C1912 1.463 1_545 S
C1909 C1914 1.350 . S
C1909 N1917 1.427 . S
C1910 H1901 0.930 . S
C1910 C1908 1.378 . S
C1910 C1911 1.367 . S
C1911 C1910 1.367 . S
C1911 C1913 1.433 . S
C1912 C1908 1.350 . S
C1912 C1909 1.463 1_565 S
C1912 N1916 1.427 . S
C1913 H1903 0.929 . S
C1913 C1911 1.433 . S
C1913 N1916 1.384 . S
C1914 H1905 0.929 . S
C1914 C1906 1.378 . S
C1914 C1909 1.350 . S
C1915 H1902 0.929 . S
C1915 C1907 1.433 . S
C1915 N1917 1.384 . S
N1916 C1912 1.427 . S
N1916 C1913 1.384 . S
N1917 C1909 1.427 . S
N1917 C1915 1.384 . S
H1918 C1924 0.930 . S
H1919 C1928 0.930 . S
H1920 C1933 0.929 . S
H1921 C1931 0.929 . S
H1922 C1926 0.929 . S
H1923 C1932 0.929 . S
C1924 H1918 0.930 . S
C1924 C1925 1.367 . S
C1924 C1932 1.378 . S
C1925 C1924 1.367 . S
C1925 C1933 1.433 . S
C1926 H1922 0.929 . S
C1926 C1928 1.378 . S
C1926 C1930 1.350 . S
C1927 C1930 1.463 1_556 S
C1927 C1932 1.350 . S
C1927 N1935 1.427 . S
C1928 H1919 0.930 . S
C1928 C1926 1.378 . S
C1928 C1929 1.367 . S
C1929 C1928 1.367 . S
C1929 C1931 1.433 . S
C1930 C1926 1.350 . S
C1930 C1927 1.463 1_554 S
C1930 N1934 1.427 . S
C1931 H1921 0.929 . S
C1931 C1929 1.433 . S
C1931 N1934 1.384 . S
C1932 H1923 0.929 . S
C1932 C1924 1.378 . S
C1932 C1927 1.350 . S
C1933 H1920 0.929 . S
C1933 C1925 1.433 . S
C1933 N1935 1.384 . S
N1934 C1930 1.427 . S
N1934 C1931 1.384 . S
N1935 C1927 1.427 . S
N1935 C1933 1.384 . S
H1936 C1942 0.930 . S
H1937 C1946 0.930 . S
H1938 C1951 0.929 . S
H1939 C1949 0.929 . S
H1940 C1944 0.929 . S
H1941 C1950 0.929 . S
C1942 H1936 0.930 . S
C1942 C1943 1.367 . S
C1942 C1950 1.378 . S
C1943 C1942 1.367 . S
C1943 C1951 1.433 . S
C1944 H1940 0.929 . S
C1944 C1946 1.378 . S
C1944 C1948 1.350 . S
C1945 C1948 1.463 . S
C1945 C1950 1.350 . S
C1945 N1953 1.427 . S
C1946 H1937 0.930 . S
C1946 C1944 1.378 . S
C1946 C1947 1.367 . S
C1947 C1946 1.367 . S
C1947 C1949 1.433 . S
C1948 C1944 1.350 . S
C1948 C1945 1.463 . S
C1948 N1952 1.427 . S
C1949 H1939 0.929 . S
C1949 C1947 1.433 . S
C1949 N1952 1.384 . S
C1950 H1941 0.929 . S
C1950 C1942 1.378 . S
C1950 C1945 1.350 . S
C1951 H1938 0.929 . S
C1951 C1943 1.433 . S
C1951 N1953 1.384 . S
N1952 C1948 1.427 . S
N1952 C1949 1.384 . S
N1953 C1945 1.427 . S
N1953 C1951 1.384 . S
H1954 C1960 0.930 1_554 S
H1955 C1964 0.930 1_556 S
H1956 C1969 0.929 . S
H1957 C1967 0.929 . S
H1958 C1962 0.929 . S
H1959 C1968 0.929 . S
C1960 H1954 0.930 1_556 S
C1960 C1961 1.367 . S
C1960 C1968 1.378 1_556 S
C1961 C1960 1.367 . S
C1961 C1969 1.433 . S
C1962 H1958 0.929 . S
C1962 C1964 1.378 1_556 S
C1962 C1966 1.350 1_556 S
C1963 C1966 1.463 1_556 S
C1963 C1968 1.350 1_556 S
C1963 N1971 1.427 . S
C1964 H1955 0.930 1_554 S
C1964 C1962 1.378 1_554 S
C1964 C1965 1.367 . S
C1965 C1964 1.367 . S
C1965 C1967 1.433 . S
C1966 C1962 1.350 1_554 S
C1966 C1963 1.463 1_554 S
C1966 N1970 1.427 . S
C1967 H1957 0.929 . S
C1967 C1965 1.433 . S
C1967 N1970 1.384 . S
C1968 H1959 0.929 . S
C1968 C1960 1.378 1_554 S
C1968 C1963 1.350 1_554 S
C1969 H1956 0.929 . S
C1969 C1961 1.433 . S
C1969 N1971 1.384 . S
N1970 C1966 1.427 . S
N1970 C1967 1.384 . S
N1971 C1963 1.427 . S
N1971 C1969 1.384 . S
H1972 C1978 0.930 . S
H1973 C1982 0.930 . S
H1974 C1987 0.929 . S
H1975 C1985 0.929 . S
H1976 C1980 0.929 . S
H1977 C1986 0.929 . S
C1978 H1972 0.930 . S
C1978 C1979 1.367 . S
C1978 C1986 1.378 . S
C1979 C1978 1.367 . S
C1979 C1987 1.433 . S
C1980 H1976 0.929 . S
C1980 C1982 1.378 . S
C1980 C1984 1.350 . S
C1981 C1984 1.463 . S
C1981 C1986 1.350 . S
C1981 N1989 1.427 . S
C1982 H1973 0.930 . S
C1982 C1980 1.378 . S
C1982 C1983 1.367 . S
C1983 C1982 1.367 . S
C1983 C1985 1.433 . S
C1984 C1980 1.350 . S
C1984 C1981 1.463 . S
C1984 N1988 1.427 . S
C1985 H1975 0.929 . S
C1985 C1983 1.433 . S
C1985 N1988 1.384 . S
C1986 H1977 0.929 . S
C1986 C1978 1.378 . S
C1986 C1981 1.350 . S
C1987 H1974 0.929 . S
C1987 C1979 1.433 . S
C1987 N1989 1.384 . S
N1988 C1984 1.427 . S
N1988 C1985 1.384 . S
N1989 C1981 1.427 . S
N1989 C1987 1.384 . S
H1990 C1996 0.930 . S
H1991 C2000 0.930 . S
H1992 C2005 0.929 . S
H1993 C2003 0.929 . S
H1994 C1998 0.929 . S
H1995 C2004 0.929 . S
C1996 H1990 0.930 . S
C1996 C1997 1.367 . S
C1996 C2004 1.378 . S
C1997 C1996 1.367 . S
C1997 C2005 1.433 . S
C1998 H1994 0.929 . S
C1998 C2000 1.378 . S
C1998 C2002 1.350 . S
C1999 C2002 1.463 . S
C1999 C2004 1.350 . S
C1999 N2007 1.427 . S
C2000 H1991 0.930 . S
C2000 C1998 1.378 . S
C2000 C2001 1.367 . S
C2001 C2000 1.367 . S
C2001 C2003 1.433 . S
C2002 C1998 1.350 . S
C2002 C1999 1.463 . S
C2002 N2006 1.427 . S
C2003 H1993 0.929 . S
C2003 C2001 1.433 . S
C2003 N2006 1.384 . S
C2004 H1995 0.929 . S
C2004 C1996 1.378 . S
C2004 C1999 1.350 . S
C2005 H1992 0.929 . S
C2005 C1997 1.433 . S
C2005 N2007 1.384 . S
N2006 C2002 1.427 . S
N2006 C2003 1.384 . S
N2007 C1999 1.427 . S
N2007 C2005 1.384 . S
H2008 C2014 0.930 . S
H2009 C2018 0.930 . S
H2010 C2023 0.929 . S
H2011 C2021 0.929 . S
H2012 C2016 0.929 . S
H2013 C2022 0.929 . S
C2014 H2008 0.930 . S
C2014 C2015 1.367 . S
C2014 C2022 1.378 . S
C2015 C2014 1.367 . S
C2015 C2023 1.433 . S
C2016 H2012 0.929 . S
C2016 C2018 1.378 . S
C2016 C2020 1.350 . S
C2017 C2020 1.463 . S
C2017 C2022 1.350 . S
C2017 N2025 1.427 . S
C2018 H2009 0.930 . S
C2018 C2016 1.378 . S
C2018 C2019 1.367 . S
C2019 C2018 1.367 . S
C2019 C2021 1.433 . S
C2020 C2016 1.350 . S
C2020 C2017 1.463 . S
C2020 N2024 1.427 . S
C2021 H2011 0.929 . S
C2021 C2019 1.433 . S
C2021 N2024 1.384 . S
C2022 H2013 0.929 . S
C2022 C2014 1.378 . S
C2022 C2017 1.350 . S
C2023 H2010 0.929 . S
C2023 C2015 1.433 . S
C2023 N2025 1.384 . S
N2024 C2020 1.427 . S
N2024 C2021 1.384 . S
N2025 C2017 1.427 . S
N2025 C2023 1.384 . S
H2026 C2032 0.930 . S
H2027 C2036 0.930 . S
H2028 C2041 0.929 . S
H2029 C2039 0.929 . S
H2030 C2034 0.929 1_556 S
H2031 C2040 0.929 1_554 S
C2032 H2026 0.930 . S
C2032 C2033 1.367 . S
C2032 C2040 1.378 . S
C2033 C2032 1.367 . S
C2033 C2041 1.433 . S
C2034 H2030 0.929 1_554 S
C2034 C2036 1.378 . S
C2034 C2038 1.350 . S
C2035 C2038 1.463 1_556 S
C2035 C2040 1.350 . S
C2035 N2043 1.427 . S
C2036 H2027 0.930 . S
C2036 C2034 1.378 . S
C2036 C2037 1.367 . S
C2037 C2036 1.367 . S
C2037 C2039 1.433 . S
C2038 C2034 1.350 . S
C2038 C2035 1.463 1_554 S
C2038 N2042 1.427 . S
C2039 H2029 0.929 . S
C2039 C2037 1.433 . S
C2039 N2042 1.384 . S
C2040 H2031 0.929 1_556 S
C2040 C2032 1.378 . S
C2040 C2035 1.350 . S
C2041 H2028 0.929 . S
C2041 C2033 1.433 . S
C2041 N2043 1.384 . S
N2042 C2038 1.427 . S
N2042 C2039 1.384 . S
N2043 C2035 1.427 . S
N2043 C2041 1.384 . S
H2044 C2050 0.930 . S
H2045 C2054 0.930 . S
H2046 C2059 0.929 . S
H2047 C2057 0.929 . S
H2048 C2052 0.929 . S
H2049 C2058 0.929 . S
C2050 H2044 0.930 . S
C2050 C2051 1.367 . S
C2050 C2058 1.378 . S
C2051 C2050 1.367 . S
C2051 C2059 1.433 . S
C2052 H2048 0.929 . S
C2052 C2054 1.378 . S
C2052 C2056 1.350 . S
C2053 C2056 1.463 . S
C2053 C2058 1.350 . S
C2053 N2061 1.427 . S
C2054 H2045 0.930 . S
C2054 C2052 1.378 . S
C2054 C2055 1.367 . S
C2055 C2054 1.367 . S
C2055 C2057 1.433 . S
C2056 C2052 1.350 . S
C2056 C2053 1.463 . S
C2056 N2060 1.427 . S
C2057 H2047 0.929 . S
C2057 C2055 1.433 . S
C2057 N2060 1.384 . S
C2058 H2049 0.929 . S
C2058 C2050 1.378 . S
C2058 C2053 1.350 . S
C2059 H2046 0.929 . S
C2059 C2051 1.433 . S
C2059 N2061 1.384 . S
N2060 C2056 1.427 . S
N2060 C2057 1.384 . S
N2061 C2053 1.427 . S
N2061 C2059 1.384 . S
H2062 C2068 0.930 . S
H2063 C2072 0.930 . S
H2064 C2077 0.929 . S
H2065 C2075 0.929 . S
H2066 C2070 0.929 . S
H2067 C2076 0.929 . S
C2068 H2062 0.930 . S
C2068 C2069 1.367 . S
C2068 C2076 1.378 . S
C2069 C2068 1.367 . S
C2069 C2077 1.433 . S
C2070 H2066 0.929 . S
C2070 C2072 1.378 . S
C2070 C2074 1.350 . S
C2071 C2074 1.463 . S
C2071 C2076 1.350 . S
C2071 N2079 1.427 . S
C2072 H2063 0.930 . S
C2072 C2070 1.378 . S
C2072 C2073 1.367 . S
C2073 C2072 1.367 . S
C2073 C2075 1.433 . S
C2074 C2070 1.350 . S
C2074 C2071 1.463 . S
C2074 N2078 1.427 . S
C2075 H2065 0.929 . S
C2075 C2073 1.433 . S
C2075 N2078 1.384 . S
C2076 H2067 0.929 . S
C2076 C2068 1.378 . S
C2076 C2071 1.350 . S
C2077 H2064 0.929 . S
C2077 C2069 1.433 . S
C2077 N2079 1.384 . S
N2078 C2074 1.427 . S
N2078 C2075 1.384 . S
N2079 C2071 1.427 . S
N2079 C2077 1.384 . S
H2080 C2086 0.930 . S
H2081 C2090 0.930 . S
H2082 C2095 0.929 . S
H2083 C2093 0.929 . S
H2084 C2088 0.929 . S
H2085 C2094 0.929 . S
C2086 H2080 0.930 . S
C2086 C2087 1.367 . S
C2086 C2094 1.378 . S
C2087 C2086 1.367 . S
C2087 C2095 1.433 . S
C2088 H2084 0.929 . S
C2088 C2090 1.378 . S
C2088 C2092 1.350 . S
C2089 C2092 1.463 . S
C2089 C2094 1.350 . S
C2089 N2097 1.427 . S
C2090 H2081 0.930 . S
C2090 C2088 1.378 . S
C2090 C2091 1.367 . S
C2091 C2090 1.367 . S
C2091 C2093 1.433 . S
C2092 C2088 1.350 . S
C2092 C2089 1.463 . S
C2092 N2096 1.427 . S
C2093 H2083 0.929 . S
C2093 C2091 1.433 . S
C2093 N2096 1.384 . S
C2094 H2085 0.929 . S
C2094 C2086 1.378 . S
C2094 C2089 1.350 . S
C2095 H2082 0.929 . S
C2095 C2087 1.433 . S
C2095 N2097 1.384 . S
N2096 C2092 1.427 . S
N2096 C2093 1.384 . S
N2097 C2089 1.427 . S
N2097 C2095 1.384 . S
H2098 C2104 0.930 . S
H2099 C2108 0.930 . S
H2100 C2113 0.929 . S
H2101 C2111 0.929 . S
H2102 C2106 0.929 . S
H2103 C2112 0.929 . S
C2104 H2098 0.930 . S
C2104 C2105 1.367 . S
C2104 C2112 1.378 . S
C2105 C2104 1.367 . S
C2105 C2113 1.433 . S
C2106 H2102 0.929 . S
C2106 C2108 1.378 . S
C2106 C2110 1.350 . S
C2107 C2110 1.463 . S
C2107 C2112 1.350 . S
C2107 N2115 1.427 . S
C2108 H2099 0.930 . S
C2108 C2106 1.378 . S
C2108 C2109 1.367 . S
C2109 C2108 1.367 . S
C2109 C2111 1.433 . S
C2110 C2106 1.350 . S
C2110 C2107 1.463 . S
C2110 N2114 1.427 . S
C2111 H2101 0.929 . S
C2111 C2109 1.433 . S
C2111 N2114 1.384 . S
C2112 H2103 0.929 . S
C2112 C2104 1.378 . S
C2112 C2107 1.350 . S
C2113 H2100 0.929 . S
C2113 C2105 1.433 . S
C2113 N2115 1.384 . S
N2114 C2110 1.427 . S
N2114 C2111 1.384 . S
N2115 C2107 1.427 . S
N2115 C2113 1.384 . S
H2116 C2122 0.930 . S
H2117 C2126 0.930 . S
H2118 C2131 0.929 . S
H2119 C2129 0.929 . S
H2120 C2124 0.929 . S
H2121 C2130 0.929 . S
C2122 H2116 0.930 . S
C2122 C2123 1.367 . S
C2122 C2130 1.378 . S
C2123 C2122 1.367 . S
C2123 C2131 1.433 . S
C2124 H2120 0.929 . S
C2124 C2126 1.378 . S
C2124 C2128 1.350 . S
C2125 C2128 1.463 . S
C2125 C2130 1.350 . S
C2125 N2133 1.427 . S
C2126 H2117 0.930 . S
C2126 C2124 1.378 . S
C2126 C2127 1.367 . S
C2127 C2126 1.367 . S
C2127 C2129 1.433 . S
C2128 C2124 1.350 . S
C2128 C2125 1.463 . S
C2128 N2132 1.427 . S
C2129 H2119 0.929 . S
C2129 C2127 1.433 . S
C2129 N2132 1.384 . S
C2130 H2121 0.929 . S
C2130 C2122 1.378 . S
C2130 C2125 1.350 . S
C2131 H2118 0.929 . S
C2131 C2123 1.433 . S
C2131 N2133 1.384 . S
N2132 C2128 1.427 . S
N2132 C2129 1.384 . S
N2133 C2125 1.427 . S
N2133 C2131 1.384 . S
H2134 C2140 0.930 . S
H2135 C2144 0.930 . S
H2136 C2149 0.929 . S
H2137 C2147 0.929 . S
H2138 C2142 0.929 . S
H2139 C2148 0.929 . S
C2140 H2134 0.930 . S
C2140 C2141 1.367 . S
C2140 C2148 1.378 . S
C2141 C2140 1.367 . S
C2141 C2149 1.433 . S
C2142 H2138 0.929 . S
C2142 C2144 1.378 . S
C2142 C2146 1.350 . S
C2143 C2146 1.463 . S
C2143 C2148 1.350 . S
C2143 N2151 1.427 . S
C2144 H2135 0.930 . S
C2144 C2142 1.378 . S
C2144 C2145 1.367 . S
C2145 C2144 1.367 . S
C2145 C2147 1.433 . S
C2146 C2142 1.350 . S
C2146 C2143 1.463 . S
C2146 N2150 1.427 . S
C2147 H2137 0.929 . S
C2147 C2145 1.433 . S
C2147 N2150 1.384 . S
C2148 H2139 0.929 . S
C2148 C2140 1.378 . S
C2148 C2143 1.350 . S
C2149 H2136 0.929 . S
C2149 C2141 1.433 . S
C2149 N2151 1.384 . S
N2150 C2146 1.427 . S
N2150 C2147 1.384 . S
N2151 C2143 1.427 . S
N2151 C2149 1.384 . S
H2152 C2158 0.930 . S
H2153 C2162 0.930 . S
H2154 C2167 0.929 . S
H2155 C2165 0.929 . S
H2156 C2160 0.929 . S
H2157 C2166 0.929 . S
C2158 H2152 0.930 . S
C2158 C2159 1.367 . S
C2158 C2166 1.378 . S
C2159 C2158 1.367 . S
C2159 C2167 1.433 . S
C2160 H2156 0.929 . S
C2160 C2162 1.378 . S
C2160 C2164 1.350 . S
C2161 C2164 1.463 . S
C2161 C2166 1.350 . S
C2161 N2169 1.427 . S
C2162 H2153 0.930 . S
C2162 C2160 1.378 . S
C2162 C2163 1.367 . S
C2163 C2162 1.367 . S
C2163 C2165 1.433 . S
C2164 C2160 1.350 . S
C2164 C2161 1.463 . S
C2164 N2168 1.427 . S
C2165 H2155 0.929 . S
C2165 C2163 1.433 . S
C2165 N2168 1.384 . S
C2166 H2157 0.929 . S
C2166 C2158 1.378 . S
C2166 C2161 1.350 . S
C2167 H2154 0.929 . S
C2167 C2159 1.433 . S
C2167 N2169 1.384 . S
N2168 C2164 1.427 . S
N2168 C2165 1.384 . S
N2169 C2161 1.427 . S
N2169 C2167 1.384 . S
H2170 C2176 0.930 . S
H2171 C2180 0.930 . S
H2172 C2185 0.929 . S
H2173 C2183 0.929 . S
H2174 C2178 0.929 . S
H2175 C2184 0.929 . S
C2176 H2170 0.930 . S
C2176 C2177 1.367 . S
C2176 C2184 1.378 . S
C2177 C2176 1.367 . S
C2177 C2185 1.433 . S
C2178 H2174 0.929 . S
C2178 C2180 1.378 . S
C2178 C2182 1.350 . S
C2179 C2182 1.463 . S
C2179 C2184 1.350 . S
C2179 N2187 1.427 . S
C2180 H2171 0.930 . S
C2180 C2178 1.378 . S
C2180 C2181 1.367 . S
C2181 C2180 1.367 . S
C2181 C2183 1.433 . S
C2182 C2178 1.350 . S
C2182 C2179 1.463 . S
C2182 N2186 1.427 . S
C2183 H2173 0.929 . S
C2183 C2181 1.433 . S
C2183 N2186 1.384 . S
C2184 H2175 0.929 . S
C2184 C2176 1.378 . S
C2184 C2179 1.350 . S
C2185 H2172 0.929 . S
C2185 C2177 1.433 . S
C2185 N2187 1.384 . S
N2186 C2182 1.427 . S
N2186 C2183 1.384 . S
N2187 C2179 1.427 . S
N2187 C2185 1.384 . S
H2188 C2194 0.930 . S
H2189 C2198 0.930 . S
H2190 C2203 0.929 . S
H2191 C2201 0.929 . S
H2192 C2196 0.929 . S
H2193 C2202 0.929 . S
C2194 H2188 0.930 . S
C2194 C2195 1.367 . S
C2194 C2202 1.378 . S
C2195 C2194 1.367 . S
C2195 C2203 1.433 . S
C2196 H2192 0.929 . S
C2196 C2198 1.378 . S
C2196 C2200 1.350 . S
C2197 C2200 1.463 . S
C2197 C2202 1.350 . S
C2197 N2205 1.427 . S
C2198 H2189 0.930 . S
C2198 C2196 1.378 . S
C2198 C2199 1.367 . S
C2199 C2198 1.367 . S
C2199 C2201 1.433 . S
C2200 C2196 1.350 . S
C2200 C2197 1.463 . S
C2200 N2204 1.427 . S
C2201 H2191 0.929 . S
C2201 C2199 1.433 . S
C2201 N2204 1.384 . S
C2202 H2193 0.929 . S
C2202 C2194 1.378 . S
C2202 C2197 1.350 . S
C2203 H2190 0.929 . S
C2203 C2195 1.433 . S
C2203 N2205 1.384 . S
N2204 C2200 1.427 . S
N2204 C2201 1.384 . S
N2205 C2197 1.427 . S
N2205 C2203 1.384 . S
H2206 C2212 0.930 . S
H2207 C2216 0.930 . S
H2208 C2221 0.929 . S
H2209 C2219 0.929 . S
H2210 C2214 0.929 . S
H2211 C2220 0.929 . S
C2212 H2206 0.930 . S
C2212 C2213 1.367 . S
C2212 C2220 1.378 . S
C2213 C2212 1.367 . S
C2213 C2221 1.433 . S
C2214 H2210 0.929 . S
C2214 C2216 1.378 . S
C2214 C2218 1.350 . S
C2215 C2218 1.463 . S
C2215 C2220 1.350 . S
C2215 N2223 1.427 . S
C2216 H2207 0.930 . S
C2216 C2214 1.378 . S
C2216 C2217 1.367 . S
C2217 C2216 1.367 . S
C2217 C2219 1.433 . S
C2218 C2214 1.350 . S
C2218 C2215 1.463 . S
C2218 N2222 1.427 . S
C2219 H2209 0.929 . S
C2219 C2217 1.433 . S
C2219 N2222 1.384 . S
C2220 H2211 0.929 . S
C2220 C2212 1.378 . S
C2220 C2215 1.350 . S
C2221 H2208 0.929 . S
C2221 C2213 1.433 . S
C2221 N2223 1.384 . S
N2222 C2218 1.427 . S
N2222 C2219 1.384 . S
N2223 C2215 1.427 . S
N2223 C2221 1.384 . S
H2224 C2230 0.930 . S
H2225 C2234 0.930 . S
H2226 C2239 0.929 . S
H2227 C2237 0.929 . S
H2228 C2232 0.929 . S
H2229 C2238 0.929 . S
C2230 H2224 0.930 . S
C2230 C2231 1.367 . S
C2230 C2238 1.378 . S
C2231 C2230 1.367 . S
C2231 C2239 1.433 . S
C2232 H2228 0.929 . S
C2232 C2234 1.378 . S
C2232 C2236 1.350 . S
C2233 C2236 1.463 . S
C2233 C2238 1.350 . S
C2233 N2241 1.427 . S
C2234 H2225 0.930 . S
C2234 C2232 1.378 . S
C2234 C2235 1.367 . S
C2235 C2234 1.367 . S
C2235 C2237 1.433 . S
C2236 C2232 1.350 . S
C2236 C2233 1.463 . S
C2236 N2240 1.427 . S
C2237 H2227 0.929 . S
C2237 C2235 1.433 . S
C2237 N2240 1.384 . S
C2238 H2229 0.929 . S
C2238 C2230 1.378 . S
C2238 C2233 1.350 . S
C2239 H2226 0.929 . S
C2239 C2231 1.433 . S
C2239 N2241 1.384 . S
N2240 C2236 1.427 . S
N2240 C2237 1.384 . S
N2241 C2233 1.427 . S
N2241 C2239 1.384 . S
H2242 C2248 0.930 . S
H2243 C2252 0.930 . S
H2244 C2257 0.929 . S
H2245 C2255 0.929 . S
H2246 C2250 0.929 . S
H2247 C2256 0.929 . S
C2248 H2242 0.930 . S
C2248 C2249 1.367 . S
C2248 C2256 1.378 . S
C2249 C2248 1.367 . S
C2249 C2257 1.433 . S
C2250 H2246 0.929 . S
C2250 C2252 1.378 . S
C2250 C2254 1.350 . S
C2251 C2254 1.463 . S
C2251 C2256 1.350 . S
C2251 N2259 1.427 . S
C2252 H2243 0.930 . S
C2252 C2250 1.378 . S
C2252 C2253 1.367 . S
C2253 C2252 1.367 . S
C2253 C2255 1.433 . S
C2254 C2250 1.350 . S
C2254 C2251 1.463 . S
C2254 N2258 1.427 . S
C2255 H2245 0.929 . S
C2255 C2253 1.433 . S
C2255 N2258 1.384 . S
C2256 H2247 0.929 . S
C2256 C2248 1.378 . S
C2256 C2251 1.350 . S
C2257 H2244 0.929 . S
C2257 C2249 1.433 . S
C2257 N2259 1.384 . S
N2258 C2254 1.427 . S
N2258 C2255 1.384 . S
N2259 C2251 1.427 . S
N2259 C2257 1.384 . S
H2260 C2266 0.930 . S
H2261 C2270 0.930 . S
H2262 C2275 0.929 . S
H2263 C2273 0.929 . S
H2264 C2268 0.929 . S
H2265 C2274 0.929 . S
C2266 H2260 0.930 . S
C2266 C2267 1.367 . S
C2266 C2274 1.378 . S
C2267 C2266 1.367 . S
C2267 C2275 1.433 . S
C2268 H2264 0.929 . S
C2268 C2270 1.378 . S
C2268 C2272 1.350 . S
C2269 C2272 1.463 . S
C2269 C2274 1.350 . S
C2269 N2277 1.427 . S
C2270 H2261 0.930 . S
C2270 C2268 1.378 . S
C2270 C2271 1.367 . S
C2271 C2270 1.367 . S
C2271 C2273 1.433 . S
C2272 C2268 1.350 . S
C2272 C2269 1.463 . S
C2272 N2276 1.427 . S
C2273 H2263 0.929 . S
C2273 C2271 1.433 . S
C2273 N2276 1.384 . S
C2274 H2265 0.929 . S
C2274 C2266 1.378 . S
C2274 C2269 1.350 . S
C2275 H2262 0.929 . S
C2275 C2267 1.433 . S
C2275 N2277 1.384 . S
N2276 C2272 1.427 . S
N2276 C2273 1.384 . S
N2277 C2269 1.427 . S
N2277 C2275 1.384 . S
H2278 C2284 0.930 . S
H2279 C2288 0.930 . S
H2280 C2293 0.929 . S
H2281 C2291 0.929 . S
H2282 C2286 0.929 . S
H2283 C2292 0.929 . S
C2284 H2278 0.930 . S
C2284 C2285 1.367 . S
C2284 C2292 1.378 . S
C2285 C2284 1.367 . S
C2285 C2293 1.433 . S
C2286 H2282 0.929 . S
C2286 C2288 1.378 . S
C2286 C2290 1.350 . S
C2287 C2290 1.463 . S
C2287 C2292 1.350 . S
C2287 N2295 1.427 . S
C2288 H2279 0.930 . S
C2288 C2286 1.378 . S
C2288 C2289 1.367 . S
C2289 C2288 1.367 . S
C2289 C2291 1.433 . S
C2290 C2286 1.350 . S
C2290 C2287 1.463 . S
C2290 N2294 1.427 . S
C2291 H2281 0.929 . S
C2291 C2289 1.433 . S
C2291 N2294 1.384 . S
C2292 H2283 0.929 . S
C2292 C2284 1.378 . S
C2292 C2287 1.350 . S
C2293 H2280 0.929 . S
C2293 C2285 1.433 . S
C2293 N2295 1.384 . S
N2294 C2290 1.427 . S
N2294 C2291 1.384 . S
N2295 C2287 1.427 . S
N2295 C2293 1.384 . S
H2296 C2302 0.930 . S
H2297 C2306 0.930 . S
H2298 C2311 0.929 . S
H2299 C2309 0.929 . S
H2300 C2304 0.929 . S
H2301 C2310 0.929 . S
C2302 H2296 0.930 . S
C2302 C2303 1.367 . S
C2302 C2310 1.378 . S
C2303 C2302 1.367 . S
C2303 C2311 1.433 . S
C2304 H2300 0.929 . S
C2304 C2306 1.378 . S
C2304 C2308 1.350 . S
C2305 C2308 1.463 . S
C2305 C2310 1.350 . S
C2305 N2313 1.427 . S
C2306 H2297 0.930 . S
C2306 C2304 1.378 . S
C2306 C2307 1.367 . S
C2307 C2306 1.367 . S
C2307 C2309 1.433 . S
C2308 C2304 1.350 . S
C2308 C2305 1.463 . S
C2308 N2312 1.427 . S
C2309 H2299 0.929 . S
C2309 C2307 1.433 . S
C2309 N2312 1.384 . S
C2310 H2301 0.929 . S
C2310 C2302 1.378 . S
C2310 C2305 1.350 . S
C2311 H2298 0.929 . S
C2311 C2303 1.433 . S
C2311 N2313 1.384 . S
N2312 C2308 1.427 . S
N2312 C2309 1.384 . S
N2313 C2305 1.427 . S
N2313 C2311 1.384 . S
H2314 C2320 0.930 . S
H2315 C2324 0.930 . S
H2316 C2329 0.929 . S
H2317 C2327 0.929 . S
H2318 C2322 0.929 . S
H2319 C2328 0.929 . S
C2320 H2314 0.930 . S
C2320 C2321 1.367 . S
C2320 C2328 1.378 . S
C2321 C2320 1.367 . S
C2321 C2329 1.433 . S
C2322 H2318 0.929 . S
C2322 C2324 1.378 . S
C2322 C2326 1.350 . S
C2323 C2326 1.463 . S
C2323 C2328 1.350 . S
C2323 N2331 1.427 . S
C2324 H2315 0.930 . S
C2324 C2322 1.378 . S
C2324 C2325 1.367 . S
C2325 C2324 1.367 . S
C2325 C2327 1.433 . S
C2326 C2322 1.350 . S
C2326 C2323 1.463 . S
C2326 N2330 1.427 . S
C2327 H2317 0.929 . S
C2327 C2325 1.433 . S
C2327 N2330 1.384 . S
C2328 H2319 0.929 . S
C2328 C2320 1.378 . S
C2328 C2323 1.350 . S
C2329 H2316 0.929 . S
C2329 C2321 1.433 . S
C2329 N2331 1.384 . S
N2330 C2326 1.427 . S
N2330 C2327 1.384 . S
N2331 C2323 1.427 . S
N2331 C2329 1.384 . S
H2332 C2338 0.930 . S
H2333 C2342 0.930 . S
H2334 C2347 0.929 . S
H2335 C2345 0.929 . S
H2336 C2340 0.929 . S
H2337 C2346 0.929 . S
C2338 H2332 0.930 . S
C2338 C2339 1.367 . S
C2338 C2346 1.378 . S
C2339 C2338 1.367 . S
C2339 C2347 1.433 . S
C2340 H2336 0.929 . S
C2340 C2342 1.378 . S
C2340 C2344 1.350 . S
C2341 C2344 1.463 . S
C2341 C2346 1.350 . S
C2341 N2349 1.427 . S
C2342 H2333 0.930 . S
C2342 C2340 1.378 . S
C2342 C2343 1.367 . S
C2343 C2342 1.367 . S
C2343 C2345 1.433 . S
C2344 C2340 1.350 . S
C2344 C2341 1.463 . S
C2344 N2348 1.427 . S
C2345 H2335 0.929 . S
C2345 C2343 1.433 . S
C2345 N2348 1.384 . S
C2346 H2337 0.929 . S
C2346 C2338 1.378 . S
C2346 C2341 1.350 . S
C2347 H2334 0.929 . S
C2347 C2339 1.433 . S
C2347 N2349 1.384 . S
N2348 C2344 1.427 . S
N2348 C2345 1.384 . S
N2349 C2341 1.427 . S
N2349 C2347 1.384 . S
H2350 C2356 0.930 . S
H2351 C2360 0.930 . S
H2352 C2365 0.929 . S
H2353 C2363 0.929 . S
H2354 C2358 0.929 . S
H2355 C2364 0.929 . S
C2356 H2350 0.930 . S
C2356 C2357 1.367 . S
C2356 C2364 1.378 . S
C2357 C2356 1.367 . S
C2357 C2365 1.433 . S
C2358 H2354 0.929 . S
C2358 C2360 1.378 . S
C2358 C2362 1.350 . S
C2359 C2362 1.463 . S
C2359 C2364 1.350 . S
C2359 N2367 1.427 . S
C2360 H2351 0.930 . S
C2360 C2358 1.378 . S
C2360 C2361 1.367 . S
C2361 C2360 1.367 . S
C2361 C2363 1.433 . S
C2362 C2358 1.350 . S
C2362 C2359 1.463 . S
C2362 N2366 1.427 . S
C2363 H2353 0.929 . S
C2363 C2361 1.433 . S
C2363 N2366 1.384 . S
C2364 H2355 0.929 . S
C2364 C2356 1.378 . S
C2364 C2359 1.350 . S
C2365 H2352 0.929 . S
C2365 C2357 1.433 . S
C2365 N2367 1.384 . S
N2366 C2362 1.427 . S
N2366 C2363 1.384 . S
N2367 C2359 1.427 . S
N2367 C2365 1.384 . S
C647 C12 1.363 . S
C651 C62 1.356 . S
C665 C2 1.352 . S
C669 C32 1.380 . S
C683 C52 1.369 . S
C687 C22 1.361 . S
C701 C42 1.351 . S
C705 C72 1.365 . S
C719 C102 1.356 . S
C723 C92 1.376 . S
C737 C112 1.381 . S
C741 C122 1.342 . S
C755 C142 1.341 . S
C759 C132 1.378 . S
C773 C82 1.351 . S
C777 C152 1.365 . S
C791 C169 1.374 . S
C795 C224 1.359 . S
C809 C189 1.363 . S
C813 C164 1.357 . S
C827 C209 1.363 . S
C831 C184 1.359 . S
C845 C229 1.369 . S
C849 C204 1.346 . S
C863 C249 1.370 . S
C867 C264 1.345 . S
C881 C269 1.368 . S
C885 C284 1.347 . S
C899 C304 1.361 . S
C903 C289 1.370 . S
C917 C244 1.346 . S
C921 C309 1.382 . S
C935 C332 1.377 . S
C939 C382 1.356 . S
C953 C322 1.361 . S
C957 C352 1.371 . S
C971 C342 1.344 . S
C975 C372 1.372 . S
C989 C392 1.364 . S
C993 C362 1.360 . S
C1007 C412 1.364 . S
C1011 C422 1.353 . S
C1025 C442 1.349 . S
C1029 C432 1.366 . S
C1043 C452 1.380 . S
C1047 C462 1.351 . S
C1061 C402 1.361 . S
C1065 C472 1.364 . S
C1079 C544 1.352 . S
C1083 C489 1.365 . S
C1097 C484 1.362 . S
C1101 C509 1.367 . S
C1115 C529 1.370 . S
C1119 C504 1.361 . S
C1133 C524 1.354 . S
C1137 C549 1.378 . S
C1151 C584 1.359 . S
C1155 C569 1.363 . S
C1169 C604 1.362 . S
C1173 C589 1.366 . S
C1187 C624 1.343 . S
C1191 C609 1.382 . S
C1205 C629 1.375 . S
C1209 C564 1.357 . S
C1223 C552 1.446 . S
C1227 C18 1.457 . S
C1241 C38 1.463 . S
C1245 C172 1.438 . S
C1259 C58 1.463 . S
C1263 C512 1.438 . S
C1277 C78 1.458 . S
C1281 C212 1.444 . S
C1295 C98 1.456 . S
C1299 C592 1.447 . S
C1313 C292 1.444 . S
C1317 C118 1.458 . S
C1331 C632 1.446 . S
C1335 C138 1.459 . S
C1349 C158 1.461 . S
C1353 C252 1.443 . S
C1367 C179 1.463 . S
C1371 C389 1.438 . S
C1385 C9 1.442 . S
C1389 C199 1.461 . S
C1403 C349 1.440 . S
C1407 C219 1.463 . S
C1421 C49 1.449 . S
C1425 C239 1.456 . S
C1439 C429 1.449 . S
C1443 C259 1.456 . S
C1457 C129 1.446 . S
C1461 C279 1.459 . S
C1475 C299 1.458 . S
C1479 C469 1.445 . S
C1493 C319 1.461 . S
C1497 C89 1.440 . S
C1511 C338 1.461 . S
C1515 C232 1.443 . S
C1529 C358 1.463 . S
C1533 C492 1.438 . S
C1547 C378 1.456 . S
C1551 C192 1.449 . S
C1565 C398 1.463 . S
C1569 C532 1.439 . S
C1583 C418 1.463 . S
C1587 C272 1.438 . S
C1601 C438 1.459 . S
C1605 C612 1.443 . S
C1619 C312 1.440 . S
C1623 C458 1.463 . S
C1637 C478 1.457 . S
C1641 C572 1.448 . S
C1655 C69 1.449 . S
C1659 C499 1.456 . S
C1673 C329 1.442 . S
C1677 C519 1.460 . S
C1691 C29 1.438 . S
C1695 C539 1.463 . S
C1709 C369 1.442 . S
C1713 C559 1.462 . S
C1727 C109 1.439 . S
C1731 C579 1.462 . S
C1745 C599 1.460 . S
C1749 C449 1.444 . S
C1763 C619 1.457 . S
C1767 C149 1.447 . S
C1781 C409 1.448 . S
C1785 C639 1.457 . S
C1799 C19 0.565 . S
C1803 C99 0.561 . S
C1817 C39 0.560 . S
C1821 C119 0.562 . S
C1835 C59 0.587 . S
C1839 C139 0.589 . S
C1853 C159 0.579 . S
C1857 C79 0.585 . S
C1871 C258 0.578 . S
C1875 C178 0.570 . S
C1889 C278 0.575 . S
C1893 C198 0.567 . S
C1907 C218 0.569 . S
C1911 C298 0.577 . S
C1925 C238 0.575 . S
C1929 C318 0.568 . S
C1943 C339 0.582 . S
C1947 C419 0.574 . S
C1961 C439 0.582 . S
C1965 C359 0.587 . S
C1979 C459 0.566 . S
C1983 C379 0.561 . S
C1997 C479 0.578 . S
C2001 C399 0.570 . S
C2015 C578 0.561 . S
C2019 C498 0.565 . S
C2033 C518 0.582 . S
C2037 C598 0.574 . S
C2051 C618 0.560 . S
C2055 C538 0.562 . S
C2069 C558 0.580 . S
C2073 C638 0.586 . S
C2087 C144 1.609 . S
C2091 C4 1.591 . S
C2105 C24 1.590 . S
C2109 C84 1.608 . S
C2123 C44 1.598 . S
C2127 C104 1.595 . S
C2141 C124 1.591 . S
C2145 C64 1.605 . S
C2159 C162 1.591 . S
C2163 C302 1.609 . S
C2177 C242 1.607 . S
C2181 C182 1.590 . S
C2195 C262 1.604 . S
C2199 C202 1.602 . S
C2213 C222 1.605 . S
C2217 C282 1.601 . S
C2231 C324 1.598 . S
C2235 C464 1.595 . S
C2249 C404 1.602 . S
C2253 C344 1.604 . S
C2267 C424 1.590 . S
C2271 C364 1.608 . S
C2285 C444 1.609 . S
C2289 C384 1.594 . S
C2303 C482 1.609 . S
C2307 C622 1.594 . S
C2321 C562 1.609 . S
C2325 C502 1.591 . S
C2339 C522 1.609 . S
C2343 C582 1.592 . S
C2357 C602 1.609 . S
C2361 C542 1.591 . S
