# Generated by pormake.
# Topology wib, (6)-cn, num edge types: 1
# Building blocks:
#     Node 0, Type 0, BuildingBlock: VOLQOD_clean_sbu_1, # of connection points: 6
#     Node 1, Type 0, BuildingBlock: VOLQOD_clean_sbu_1, # of connection points: 6
#     Node 2, Type 0, BuildingBlock: VOLQOD_clean_sbu_1, # of connection points: 6
#     Node 3, Type 0, BuildingBlock: VOLQOD_clean_sbu_1, # of connection points: 6
#     Node 4, Type 0, BuildingBlock: VOLQOD_clean_sbu_1, # of connection points: 6
#     Node 5, Type 0, BuildingBlock: VOLQOD_clean_sbu_1, # of connection points: 6
#     Node 6, Type 0, BuildingBlock: VOLQOD_clean_sbu_1, # of connection points: 6
#     Node 7, Type 0, BuildingBlock: VOLQOD_clean_sbu_1, # of connection points: 6
#     Node 8, Type 0, BuildingBlock: VOLQOD_clean_sbu_1, # of connection points: 6
#     Node 9, Type 0, BuildingBlock: VOLQOD_clean_sbu_1, # of connection points: 6
#     Node 10, Type 0, BuildingBlock: VOLQOD_clean_sbu_1, # of connection points: 6
#     Node 11, Type 0, BuildingBlock: VOLQOD_clean_sbu_1, # of connection points: 6
#     Node 12, Type 0, BuildingBlock: VOLQOD_clean_sbu_1, # of connection points: 6
#     Node 13, Type 0, BuildingBlock: VOLQOD_clean_sbu_1, # of connection points: 6
#     Node 14, Type 0, BuildingBlock: VOLQOD_clean_sbu_1, # of connection points: 6
#     Node 15, Type 0, BuildingBlock: VOLQOD_clean_sbu_1, # of connection points: 6
#     Edge 16, Type (0, 0), BuildingBlock: CIFDUS_clean_linker_0, # of connection points: 2
#     Edge 17, Type (0, 0), BuildingBlock: CIFDUS_clean_linker_0, # of connection points: 2
#     Edge 18, Type (0, 0), BuildingBlock: CIFDUS_clean_linker_0, # of connection points: 2
#     Edge 19, Type (0, 0), BuildingBlock: CIFDUS_clean_linker_0, # of connection points: 2
#     Edge 20, Type (0, 0), BuildingBlock: CIFDUS_clean_linker_0, # of connection points: 2
#     Edge 21, Type (0, 0), BuildingBlock: CIFDUS_clean_linker_0, # of connection points: 2
#     Edge 22, Type (0, 0), BuildingBlock: CIFDUS_clean_linker_0, # of connection points: 2
#     Edge 23, Type (0, 0), BuildingBlock: CIFDUS_clean_linker_0, # of connection points: 2
#     Edge 24, Type (0, 0), BuildingBlock: CIFDUS_clean_linker_0, # of connection points: 2
#     Edge 25, Type (0, 0), BuildingBlock: CIFDUS_clean_linker_0, # of connection points: 2
#     Edge 26, Type (0, 0), BuildingBlock: CIFDUS_clean_linker_0, # of connection points: 2
#     Edge 27, Type (0, 0), BuildingBlock: CIFDUS_clean_linker_0, # of connection points: 2
#     Edge 28, Type (0, 0), BuildingBlock: CIFDUS_clean_linker_0, # of connection points: 2
#     Edge 29, Type (0, 0), BuildingBlock: CIFDUS_clean_linker_0, # of connection points: 2
#     Edge 30, Type (0, 0), BuildingBlock: CIFDUS_clean_linker_0, # of connection points: 2
#     Edge 31, Type (0, 0), BuildingBlock: CIFDUS_clean_linker_0, # of connection points: 2
#     Edge 32, Type (0, 0), BuildingBlock: CIFDUS_clean_linker_0, # of connection points: 2
#     Edge 33, Type (0, 0), BuildingBlock: CIFDUS_clean_linker_0, # of connection points: 2
#     Edge 34, Type (0, 0), BuildingBlock: CIFDUS_clean_linker_0, # of connection points: 2
#     Edge 35, Type (0, 0), BuildingBlock: CIFDUS_clean_linker_0, # of connection points: 2
#     Edge 36, Type (0, 0), BuildingBlock: CIFDUS_clean_linker_0, # of connection points: 2
#     Edge 37, Type (0, 0), BuildingBlock: CIFDUS_clean_linker_0, # of connection points: 2
#     Edge 38, Type (0, 0), BuildingBlock: CIFDUS_clean_linker_0, # of connection points: 2
#     Edge 39, Type (0, 0), BuildingBlock: CIFDUS_clean_linker_0, # of connection points: 2
#     Edge 40, Type (0, 0), BuildingBlock: CIFDUS_clean_linker_0, # of connection points: 2
#     Edge 41, Type (0, 0), BuildingBlock: CIFDUS_clean_linker_0, # of connection points: 2
#     Edge 42, Type (0, 0), BuildingBlock: CIFDUS_clean_linker_0, # of connection points: 2
#     Edge 43, Type (0, 0), BuildingBlock: CIFDUS_clean_linker_0, # of connection points: 2
#     Edge 44, Type (0, 0), BuildingBlock: CIFDUS_clean_linker_0, # of connection points: 2
#     Edge 45, Type (0, 0), BuildingBlock: CIFDUS_clean_linker_0, # of connection points: 2
#     Edge 46, Type (0, 0), BuildingBlock: CIFDUS_clean_linker_0, # of connection points: 2
#     Edge 47, Type (0, 0), BuildingBlock: CIFDUS_clean_linker_0, # of connection points: 2
#     Edge 48, Type (0, 0), BuildingBlock: CIFDUS_clean_linker_0, # of connection points: 2
#     Edge 49, Type (0, 0), BuildingBlock: CIFDUS_clean_linker_0, # of connection points: 2
#     Edge 50, Type (0, 0), BuildingBlock: CIFDUS_clean_linker_0, # of connection points: 2
#     Edge 51, Type (0, 0), BuildingBlock: CIFDUS_clean_linker_0, # of connection points: 2
#     Edge 52, Type (0, 0), BuildingBlock: CIFDUS_clean_linker_0, # of connection points: 2
#     Edge 53, Type (0, 0), BuildingBlock: CIFDUS_clean_linker_0, # of connection points: 2
#     Edge 54, Type (0, 0), BuildingBlock: CIFDUS_clean_linker_0, # of connection points: 2
#     Edge 55, Type (0, 0), BuildingBlock: CIFDUS_clean_linker_0, # of connection points: 2
#     Edge 56, Type (0, 0), BuildingBlock: CIFDUS_clean_linker_0, # of connection points: 2
#     Edge 57, Type (0, 0), BuildingBlock: CIFDUS_clean_linker_0, # of connection points: 2
#     Edge 58, Type (0, 0), BuildingBlock: CIFDUS_clean_linker_0, # of connection points: 2
#     Edge 59, Type (0, 0), BuildingBlock: CIFDUS_clean_linker_0, # of connection points: 2
#     Edge 60, Type (0, 0), BuildingBlock: CIFDUS_clean_linker_0, # of connection points: 2
#     Edge 61, Type (0, 0), BuildingBlock: CIFDUS_clean_linker_0, # of connection points: 2
#     Edge 62, Type (0, 0), BuildingBlock: CIFDUS_clean_linker_0, # of connection points: 2
#     Edge 63, Type (0, 0), BuildingBlock: CIFDUS_clean_linker_0, # of connection points: 2
# Relax obj value: 0.536
# Max RMSD: 0.268
# Mean RMSD: 0.267
data_MOF--net-wib--node1-VOLQOD_clean_sbu_1--edge1-CIFDUS_clean_linker_0
_symmetry_space_group_name_H-M    P1
_symmetry_Int_Tables_number       1
_symmetry_cell_setting            triclinic
loop_
_symmetry_equiv_pos_as_xyz
'x, y, z'
_cell_length_a     26.737331
_cell_length_b     26.610139
_cell_length_c     58.299699
_cell_angle_alpha  90.167614
_cell_angle_beta   90.117077
_cell_angle_gamma 89.883323
loop_
_atom_site_label
_atom_site_type_symbol
_atom_site_fract_x
_atom_site_fract_y
_atom_site_fract_z
_atom_type_partial_charge
O0 O 0.0657 0.59866 0.27519 0.0
Zn1 Zn 0.13084 0.56115 0.27411 0.0
O2 O 0.13439 0.51255 0.24927 0.0
Zn3 Zn 0.13388 0.44552 0.2628 0.0
Zn4 Zn 0.07781 0.52713 0.22946 0.0
Zn5 Zn 0.19413 0.52242 0.23148 0.0
O6 O 0.19723 0.40575 0.25347 0.0
O7 O 0.24203 0.46654 0.23718 0.0
O8 O 0.14741 0.53099 0.30462 0.0
O9 O 0.14484 0.44936 0.2972 0.0
O10 O 0.06356 0.41577 0.25742 0.0
O11 O 0.02585 0.47377 0.23555 0.0
O12 O 0.09644 0.53064 0.19555 0.0
O13 O 0.17919 0.61581 0.26799 0.0
O14 O 0.17916 0.52787 0.19807 0.0
O15 O 0.22584 0.58843 0.23912 0.0
C16 C 0.04588 0.61776 0.25737 0.0
C17 C 0.23837 0.42221 0.24514 0.0
C18 C 0.02499 0.43248 0.24671 0.0
C19 C 0.15135 0.4856 0.31119 0.0
C20 C 0.13946 0.5321 0.18617 0.0
C21 C 0.21429 0.62219 0.25366 0.0
O22 O 0.05099 0.59683 0.23779 0.0
O23 O 0.17836 0.317 0.51955 0.0
Zn24 Zn 0.2243 0.37719 0.52262 0.0
O25 O 0.27071 0.38251 0.49677 0.0
Zn26 Zn 0.33916 0.38355 0.50859 0.0
Zn27 Zn 0.25946 0.32694 0.47556 0.0
Zn28 Zn 0.2576 0.44374 0.48028 0.0
O29 O 0.37482 0.44993 0.50076 0.0
O30 O 0.31102 0.49385 0.48644 0.0
O31 O 0.25898 0.3842 0.55337 0.0
O32 O 0.33871 0.38747 0.54299 0.0
O33 O 0.3731 0.31664 0.50096 0.0
O34 O 0.31554 0.27661 0.47994 0.0
O35 O 0.25332 0.34969 0.44211 0.0
O36 O 0.17411 0.4321 0.52136 0.0
O37 O 0.2524 0.43233 0.44675 0.0
O38 O 0.19118 0.47222 0.48908 0.0
C39 C 0.16618 0.29255 0.50152 0.0
C40 C 0.3559 0.49127 0.49362 0.0
C41 C 0.35779 0.27753 0.49022 0.0
C42 C 0.30518 0.38859 0.55841 0.0
C43 C 0.24986 0.39391 0.43382 0.0
C44 C 0.16317 0.46467 0.5063 0.0
O45 O 0.19288 0.29458 0.48341 0.0
O46 O 0.42812 0.41661 0.76837 0.0
Zn47 Zn 0.36995 0.46489 0.77221 0.0
O48 O 0.36556 0.51378 0.7472 0.0
Zn49 Zn 0.36912 0.5817 0.75991 0.0
Zn50 Zn 0.41867 0.49996 0.72517 0.0
Zn51 Zn 0.30264 0.50622 0.73137 0.0
O52 O 0.30409 0.62237 0.7537 0.0
O53 O 0.25643 0.56165 0.73909 0.0
O54 O 0.36579 0.49767 0.80367 0.0
O55 O 0.36763 0.57838 0.79427 0.0
O56 O 0.43778 0.61151 0.75203 0.0
O57 O 0.47268 0.55293 0.72956 0.0
O58 O 0.39267 0.49619 0.69203 0.0
O59 O 0.3138 0.41663 0.76965 0.0
O60 O 0.31104 0.50426 0.69766 0.0
O61 O 0.27047 0.44095 0.73918 0.0
C62 C 0.45024 0.4036 0.7499 0.0
C63 C 0.26155 0.60599 0.74684 0.0
C64 C 0.47513 0.59443 0.74063 0.0
C65 C 0.36506 0.544 0.80933 0.0
C66 C 0.34802 0.49848 0.68427 0.0
C67 C 0.27897 0.40971 0.75515 0.0
O68 O 0.44777 0.43096 0.73198 0.0
O69 O 0.33442 0.70111 0.0221 0.0
Zn70 Zn 0.29758 0.63569 0.02535 0.0
O71 O 0.25271 0.62094 3e-05 0.0
Zn72 Zn 0.18374 0.62432 0.01129 0.0
Zn73 Zn 0.27058 0.66852 0.97644 0.0
Zn74 Zn 0.26621 0.55575 0.98744 0.0
O75 O 0.14715 0.55627 0.00479 0.0
O76 O 0.21305 0.50824 0.99611 0.0
O77 O 0.26347 0.63089 0.05552 0.0
O78 O 0.18317 0.6248 0.04639 0.0
O79 O 0.15433 0.69232 -0.00062 0.0
O80 O 0.21588 0.72051 0.9767 0.0
O81 O 0.27762 0.63639 0.94472 0.0
O82 O 0.35319 0.58634 0.02532 0.0
O83 O 0.27039 0.55578 0.95333 0.0
O84 O 0.33287 0.53196 0.99794 0.0
C85 C 0.35599 0.71378 0.00356 0.0
C86 C 0.16703 0.51301 0.00108 0.0
C87 C 0.17303 0.72596 0.98611 0.0
C88 C 0.21794 0.62621 0.06138 0.0
C89 C 0.27656 0.59033 0.93863 0.0
C90 C 0.36317 0.54815 0.01306 0.0
O91 O 0.3384 0.7 0.98418 0.0
O92 O 0.93319 0.4118 0.7308 0.0
Zn93 Zn 0.87498 0.45864 0.72717 0.0
O94 O 0.87188 0.51041 0.75093 0.0
Zn95 Zn 0.87154 0.57602 0.73567 0.0
Zn96 Zn 0.9284 0.50015 0.77183 0.0
Zn97 Zn 0.81119 0.50336 0.76875 0.0
O98 O 0.8046 0.61363 0.74112 0.0
O99 O 0.76215 0.55732 0.76139 0.0
O100 O 0.871 0.48559 0.69513 0.0
O101 O 0.86936 0.56776 0.70114 0.0
O102 O 0.93851 0.61087 0.74289 0.0
O103 O 0.97784 0.55628 0.76593 0.0
O104 O 0.90722 0.4976 0.80556 0.0
O105 O 0.81899 0.41129 0.73114 0.0
O106 O 0.82465 0.5007 0.80232 0.0
O107 O 0.77852 0.43772 0.76205 0.0
C108 C 0.95991 0.40181 0.74829 0.0
C109 C 0.76411 0.59874 0.75063 0.0
C110 C 0.97709 0.59717 0.75444 0.0
C111 C 0.86842 0.53027 0.68754 0.0
C112 C 0.86381 0.49682 0.81461 0.0
C113 C 0.78542 0.40555 0.74625 0.0
O114 O 0.96064 0.43139 0.76559 0.0
O115 O 0.85614 0.6994 0.47204 0.0
Zn116 Zn 0.81609 0.63522 0.47058 0.0
O117 O 0.77239 0.62562 0.49692 0.0
Zn118 Zn 0.70229 0.62469 0.4866 0.0
Zn119 Zn 0.78855 0.67911 0.51812 0.0
Zn120 Zn 0.78943 0.56442 0.51259 0.0
O121 O 0.66923 0.55632 0.49626 0.0
O122 O 0.73716 0.51316 0.50693 0.0
O123 O 0.7788 0.62858 0.44101 0.0
O124 O 0.69949 0.62042 0.45153 0.0
O125 O 0.67027 0.6937 0.49655 0.0
O126 O 0.73349 0.72978 0.51577 0.0
O127 O 0.79438 0.65595 0.55111 0.0
O128 O 0.87074 0.58414 0.47077 0.0
O129 O 0.79606 0.57341 0.54659 0.0
O130 O 0.85606 0.54002 0.50226 0.0
C131 C 0.87587 0.71701 0.49026 0.0
C132 C 0.69087 0.51497 0.50195 0.0
C133 C 0.68933 0.73125 0.50743 0.0
C134 C 0.73291 0.62205 0.43595 0.0
C135 C 0.79802 0.61196 0.55949 0.0
C136 C 0.88353 0.55084 0.48521 0.0
O137 O 0.85615 0.70898 0.5098 0.0
O138 O 0.55755 0.6073 0.22704 0.0
Zn139 Zn 0.61778 0.56254 0.22282 0.0
O140 O 0.62707 0.51544 0.24823 0.0
Zn141 Zn 0.63015 0.4475 0.23543 0.0
Zn142 Zn 0.57237 0.52471 0.26993 0.0
Zn143 Zn 0.68798 0.53036 0.26452 0.0
O144 O 0.6966 0.41228 0.24397 0.0
O145 O 0.73876 0.47684 0.25887 0.0
O146 O 0.62099 0.52949 0.19171 0.0
O147 O 0.63578 0.45009 0.20086 0.0
O148 O 0.56284 0.41304 0.24205 0.0
O149 O 0.52295 0.46851 0.26446 0.0
O150 O 0.59546 0.52827 0.30349 0.0
O151 O 0.67169 0.61369 0.22323 0.0
O152 O 0.67698 0.53679 0.29814 0.0
O153 O 0.71469 0.59703 0.25488 0.0
C154 C 0.53534 0.61947 0.24557 0.0
C155 C 0.73716 0.4317 0.25163 0.0
C156 C 0.52394 0.42725 0.25318 0.0
C157 C 0.63092 0.4844 0.18586 0.0
C158 C 0.63938 0.53556 0.31142 0.0
C159 C 0.70529 0.62498 0.23775 0.0
O160 O 0.53948 0.59239 0.26352 0.0
O161 O 0.66702 0.30592 0.97478 0.0
Zn162 Zn 0.70464 0.37148 0.97371 0.0
O163 O 0.74978 0.38195 -0.00048 0.0
Zn164 Zn 0.81818 0.38539 0.98766 0.0
Zn165 Zn 0.7368 0.32674 0.0205 0.0
Zn166 Zn 0.73373 0.44296 0.01551 0.0
O167 O 0.85428 0.45016 -0.00067 0.0
O168 O 0.78826 0.49285 0.01239 0.0
O169 O 0.73803 0.38274 0.94356 0.0
O170 O 0.81721 0.39631 0.95297 0.0
O171 O 0.84934 0.31529 0.99365 0.0
O172 O 0.79242 0.27599 0.01536 0.0
O173 O 0.73129 0.34923 0.05407 0.0
O174 O 0.64927 0.42087 0.97554 0.0
O175 O 0.72322 0.43123 0.0488 0.0
O176 O 0.66913 0.47103 0.00458 0.0
C177 C 0.6481 0.28792 0.99302 0.0
C178 C 0.83431 0.49069 0.00707 0.0
C179 C 0.83386 0.2762 0.00441 0.0
C180 C 0.78258 0.39396 0.93794 0.0
C181 C 0.72327 0.39329 0.06198 0.0
C182 C 0.63933 0.45757 0.98873 0.0
O183 O 0.66845 0.2962 0.0125 0.0
O184 O 0.55895 0.0974 0.77228 0.0
Zn185 Zn 0.6236 0.05865 0.77201 0.0
O186 O 0.62939 0.01064 0.74695 0.0
Zn187 Zn 0.62834 0.94236 0.75983 0.0
Zn188 Zn 0.57507 0.02713 0.72609 0.0
Zn189 Zn 0.69054 0.02122 0.73016 0.0
O190 O 0.69577 0.90525 0.7524 0.0
O191 O 0.73936 0.96679 0.73611 0.0
O192 O 0.63614 0.02683 0.80239 0.0
O193 O 0.6334 0.94519 0.79479 0.0
O194 O 0.55916 0.9108 0.75079 0.0
O195 O 0.52488 0.97159 0.72924 0.0
O196 O 0.59705 0.03344 0.6927 0.0
O197 O 0.67362 0.11273 0.7677 0.0
O198 O 0.67928 0.02765 0.69655 0.0
O199 O 0.72117 0.08632 0.73896 0.0
C200 C 0.53846 0.11584 0.75447 0.0
C201 C 0.73689 0.92273 0.74434 0.0
C202 C 0.52256 0.92866 0.73895 0.0
C203 C 0.63856 0.98137 0.80899 0.0
C204 C 0.64078 0.03371 0.68404 0.0
C205 C 0.70965 0.11919 0.75388 0.0
O206 O 0.54467 0.09538 0.73485 0.0
O207 O 0.65599 0.82013 0.01781 0.0
Zn208 Zn 0.70298 0.87899 0.02091 0.0
O209 O 0.75248 0.88291 0.99637 0.0
Zn210 Zn 0.81963 0.88022 0.01028 0.0
Zn211 Zn 0.73896 0.82843 0.97493 0.0
Zn212 Zn 0.74404 0.94472 0.97927 0.0
O213 O 0.85826 0.94647 0.00353 0.0
O214 O 0.79914 0.99199 0.9863 0.0
O215 O 0.7335 0.88538 0.05239 0.0
O216 O 0.81483 0.88535 0.04504 0.0
O217 O 0.85143 0.81063 0.00204 0.0
O218 O 0.79348 0.77737 0.97874 0.0
O219 O 0.73446 0.85106 0.94161 0.0
O220 O 0.65443 0.9345 0.01746 0.0
O221 O 0.73953 0.93366 0.94547 0.0
O222 O 0.67906 0.9775 0.98704 0.0
C223 C 0.64375 0.79611 -0.00029 0.0
C224 C 0.84234 0.9882 0.99527 0.0
C225 C 0.83495 0.77435 0.98954 0.0
C226 C 0.7787 0.88842 0.0592 0.0
C227 C 0.73428 0.89492 0.9329 0.0
C228 C 0.6476 0.96907 0.00284 0.0
O229 O 0.67122 0.79742 0.98186 0.0
O230 O 0.94295 0.91996 0.26838 0.0
Zn231 Zn 0.88385 0.96635 0.272 0.0
O232 O 0.87702 0.0123 0.24592 0.0
Zn233 Zn 0.87567 0.08093 0.25782 0.0
Zn234 Zn 0.93189 1.00108 0.22454 0.0
Zn235 Zn 0.81591 0.99817 0.22954 0.0
O236 O 0.80834 0.11553 0.25089 0.0
O237 O 0.76537 0.05159 0.23595 0.0
O238 O 0.88167 1.00119 0.30281 0.0
O239 O 0.87479 0.08082 0.29229 0.0
O240 O 0.94161 0.11545 0.24977 0.0
O241 O 0.98221 0.05723 0.22922 0.0
O242 O 0.90848 0.99465 0.19109 0.0
O243 O 0.82866 0.91654 0.27194 0.0
O244 O 0.82635 0.99089 0.1958 0.0
O245 O 0.78887 0.93176 0.2393 0.0
C246 C 0.96639 0.90713 0.25026 0.0
C247 C 0.76732 0.09631 0.2437 0.0
C248 C 0.98091 0.09985 0.2394 0.0
C249 C 0.87691 0.04754 0.30786 0.0
C250 C 0.86453 0.9891 0.18285 0.0
C251 C 0.79639 0.90467 0.25689 0.0
O252 O 0.96392 0.93372 0.2321 0.0
O253 O 0.85534 0.1965 0.52331 0.0
Zn254 Zn 0.81648 0.13205 0.52584 0.0
O255 O 0.77287 0.11857 0.49995 0.0
Zn256 Zn 0.70277 0.12316 0.50959 0.0
Zn257 Zn 0.79327 0.16655 0.47697 0.0
Zn258 Zn 0.78593 0.05291 0.48784 0.0
O259 O 0.6638 0.05785 0.49958 0.0
O260 O 0.72936 1.00748 0.49358 0.0
O261 O 0.77915 0.12751 0.55527 0.0
O262 O 0.69966 0.12008 0.54466 0.0
O263 O 0.67739 0.19392 0.49895 0.0
O264 O 0.74109 0.22124 0.47737 0.0
O265 O 0.7999 0.13522 0.44514 0.0
O266 O 0.87115 0.08125 0.52649 0.0
O267 O 0.79585 0.05444 0.45397 0.0
O268 O 0.84849 0.02431 0.50067 0.0
C269 C 0.87884 0.20802 0.5051 0.0
C270 C 0.68267 0.01396 0.4962 0.0
C271 C 0.69817 0.2279 0.48654 0.0
C272 C 0.73318 0.12185 0.56027 0.0
C273 C 0.80109 0.08906 0.43921 0.0
C274 C 0.87916 0.04069 0.51556 0.0
O275 O 0.86205 0.19482 0.48549 0.0
O276 O 0.43097 0.92857 0.22349 0.0
Zn277 Zn 0.3683 0.97059 0.22513 0.0
O278 O 0.36842 0.01667 0.25106 0.0
Zn279 Zn 0.37172 0.08505 0.23941 0.0
Zn280 Zn 0.42459 0.99855 0.27033 0.0
Zn281 Zn 0.30844 0.00838 0.26883 0.0
O282 O 0.30751 0.1248 0.24712 0.0
O283 O 0.26091 0.06387 0.2621 0.0
O284 O 0.3537 1.0057 0.1953 0.0
O285 O 0.36648 0.08522 0.20513 0.0
O286 O 0.44107 0.11374 0.2464 0.0
O287 O 0.47866 0.0507 0.26511 0.0
O288 O 0.40508 0.99387 0.30409 0.0
O289 O 0.3169 0.91816 0.2302 0.0
O290 O 0.32284 1.00446 0.30232 0.0
O291 O 0.27611 0.9427 0.26138 0.0
C292 C 0.45167 0.90831 0.24087 0.0
C293 C 0.26539 0.10817 0.25424 0.0
C294 C 0.47985 0.09409 0.25574 0.0
C295 C 0.35629 0.05208 0.19011 0.0
C296 C 0.36248 0.99658 0.31387 0.0
C297 C 0.28404 0.91082 0.24552 0.0
O298 O 0.44887 0.9287 0.26068 0.0
O299 O 0.34672 0.18397 0.98042 0.0
Zn300 Zn 0.30169 0.12384 0.97636 0.0
O301 O 0.25173 0.11673 0.00037 0.0
Zn302 Zn 0.18444 0.11726 0.98711 0.0
Zn303 Zn 0.26368 0.17025 0.02248 0.0
Zn304 Zn 0.26106 0.05372 0.01565 0.0
O305 O 0.14448 0.05227 0.99552 0.0
O306 O 0.20843 1.00515 0.00738 0.0
O307 O 0.27099 0.11897 0.94501 0.0
O308 O 0.18998 0.1114 0.95258 0.0
O309 O 0.15393 0.18721 0.99397 0.0
O310 O 0.21045 0.2233 0.01712 0.0
O311 O 0.26264 0.14434 0.05539 0.0
O312 O 0.35235 0.06967 0.97918 0.0
O313 O 0.25843 0.06211 0.04929 0.0
O314 O 0.32797 0.02458 0.00901 0.0
C315 C 0.36044 0.20376 -0.00065 0.0
C316 C 0.16304 0.00962 0.0013 0.0
C317 C 0.16972 0.22508 0.0056 0.0
C318 C 0.22603 0.11261 0.93833 0.0
C319 C 0.26037 0.0994 0.06289 0.0
C320 C 0.35985 0.03484 0.99362 0.0
O321 O 0.33354 0.19943 0.01731 0.0
O322 O 0.06296 0.09322 0.72406 0.0
Zn323 Zn 0.12936 0.05751 0.72496 0.0
O324 O 0.13488 0.00897 0.74959 0.0
Zn325 Zn 0.13641 0.94123 0.73649 0.0
Zn326 Zn 0.07845 0.023 0.76956 0.0
Zn327 Zn 0.19477 0.02115 0.76683 0.0
O328 O 0.19995 0.90203 0.74781 0.0
O329 O 0.2435 0.96615 0.76233 0.0
O330 O 0.14775 0.02699 0.69468 0.0
O331 O 0.1504 0.94533 0.70217 0.0
O332 O 0.06471 0.91197 0.74096 0.0
O333 O 0.0265 0.96944 0.76308 0.0
O334 O 0.09795 0.02582 0.80347 0.0
O335 O 0.17587 0.11413 0.73114 0.0
O336 O 0.18045 0.02651 0.80005 0.0
O337 O 0.22521 0.08716 0.75912 0.0
C338 C 0.04451 0.1131 0.74206 0.0
C339 C 0.24065 0.92055 0.75596 0.0
C340 C 0.02576 0.92845 0.75156 0.0
C341 C 0.15523 0.98182 0.68823 0.0
C342 C 0.14145 0.02871 0.81241 0.0
C343 C 0.21179 0.12101 0.74507 0.0
O344 O 0.05119 0.09287 0.76165 0.0
O345 O 0.17438 0.82686 0.48068 0.0
Zn346 Zn 0.21779 0.8882 0.4794 0.0
O347 O 0.27069 0.88917 0.50232 0.0
Zn348 Zn 0.33458 0.88723 0.48611 0.0
Zn349 Zn 0.25968 0.83233 0.52266 0.0
Zn350 Zn 0.26678 0.94999 0.52052 0.0
O351 O 0.37683 0.95004 0.49301 0.0
O352 O 0.32169 0.99676 0.5122 0.0
O353 O 0.24232 0.90157 0.44753 0.0
O354 O 0.32443 0.89619 0.45196 0.0
O355 O 0.36559 0.81758 0.49098 0.0
O356 O 0.31324 0.78047 0.51561 0.0
O357 O 0.25855 0.85307 0.55653 0.0
O358 O 0.16853 0.94035 0.48738 0.0
O359 O 0.26774 0.93565 0.55398 0.0
O360 O 0.20063 0.98426 0.51621 0.0
C361 C 0.16252 0.80211 0.49851 0.0
C362 C 0.36346 0.99187 0.50202 0.0
C363 C 0.35202 0.77941 0.50279 0.0
C364 C 0.2863 0.90334 0.43927 0.0
C365 C 0.26151 0.89633 0.56597 0.0
C366 C 0.16505 0.97469 0.50243 0.0
O367 O 0.19042 0.80281 0.51631 0.0
H368 H 0.31052 0.39553 0.21466 0.0
H369 H 0.27461 0.39609 0.28663 0.0
H370 H 0.3634 0.39005 0.29635 0.0
H371 H 0.45098 0.40403 0.28406 0.0
H372 H 0.48687 0.39801 0.21208 0.0
H373 H 0.3987 0.3856 0.20263 0.0
C374 C 0.32209 0.39168 0.23242 0.0
C375 C 0.28616 0.39627 0.2499 0.0
C376 C 0.37335 0.38834 0.23787 0.0
C377 C 0.30153 0.3919 0.27287 0.0
C378 C 0.35244 0.38929 0.27844 0.0
C379 C 0.43965 0.39792 0.2664 0.0
C380 C 0.47528 0.40244 0.24878 0.0
C381 C 0.38874 0.39034 0.26108 0.0
C382 C 0.46021 0.39443 0.22595 0.0
C383 C 0.40964 0.38786 0.22051 0.0
H384 H 0.37481 0.70491 0.53315 0.0
H385 H 0.3772 0.74172 0.46121 0.0
H386 H 0.38842 0.65312 0.45141 0.0
H387 H 0.3796 0.56445 0.46327 0.0
H388 H 0.38238 0.52751 0.53511 0.0
H389 H 0.3885 0.61665 0.54507 0.0
C390 C 0.37965 0.69362 0.5154 0.0
C391 C 0.37457 0.72966 0.49792 0.0
C392 C 0.38659 0.6425 0.50987 0.0
C393 C 0.38112 0.71471 0.47498 0.0
C394 C 0.38708 0.66393 0.46934 0.0
C395 C 0.38407 0.57591 0.48103 0.0
C396 C 0.38063 0.53965 0.49844 0.0
C397 C 0.38743 0.62731 0.4866 0.0
C398 C 0.38573 0.55477 0.52143 0.0
C399 C 0.38842 0.60584 0.52713 0.0
H400 H 0.19001 0.63768 0.7172 0.0
H401 H 0.22624 0.62771 0.78901 0.0
H402 H 0.1374 0.63139 0.79878 0.0
H403 H 0.05005 0.61751 0.78596 0.0
H404 H 0.01385 0.6317 0.71419 0.0
H405 H 0.10169 0.64736 0.70532 0.0
C406 C 0.17848 0.63916 0.73502 0.0
C407 C 0.21456 0.63256 0.75237 0.0
C408 C 0.12718 0.64071 0.74046 0.0
C409 C 0.19923 0.63361 0.77539 0.0
C410 C 0.14829 0.63476 0.78095 0.0
C411 C 0.0612 0.62596 0.76851 0.0
C412 C 0.02561 0.62279 0.75072 0.0
C413 C 0.11192 0.63532 0.76353 0.0
C414 C 0.04045 0.63403 0.7282 0.0
C415 C 0.09084 0.64254 0.72308 0.0
H416 H 0.1529 0.29798 0.03775 0.0
H417 H 0.13705 0.26568 0.96563 0.0
H418 H 0.12383 0.3549 0.95772 0.0
H419 H 0.13475 0.44296 0.97063 0.0
H420 H 0.14664 0.47518 0.04281 0.0
H421 H 0.14189 0.38546 0.05153 0.0
C422 C 0.14472 0.31034 0.02043 0.0
C423 C 0.14647 0.2753 0.00227 0.0
C424 C 0.13673 0.36185 0.01602 0.0
C425 C 0.1357 0.29178 0.97991 0.0
C426 C 0.12858 0.34296 0.97535 0.0
C427 C 0.13347 0.43042 0.98831 0.0
C428 C 0.14053 0.46566 0.00608 0.0
C429 C 0.13133 0.37856 0.99314 0.0
C430 C 0.14014 0.44889 0.02889 0.0
C431 C 0.13836 0.39743 0.03385 0.0
H432 H 0.55093 0.60704 0.70962 0.0
H433 H 0.51306 0.62877 0.7808 0.0
H434 H 0.60118 0.64104 0.7903 0.0
H435 H 0.68976 0.62915 0.77932 0.0
H436 H 0.7279 0.61388 0.70791 0.0
H437 H 0.6393 0.6169 0.69744 0.0
C438 C 0.56189 0.61619 0.72706 0.0
C439 C 0.52549 0.61646 0.7445 0.0
C440 C 0.61283 0.624 0.73239 0.0
C441 C 0.5402 0.62855 0.76702 0.0
C442 C 0.59075 0.63514 0.77252 0.0
C443 C 0.67871 0.62892 0.76141 0.0
C444 C 0.71532 0.6214 0.74442 0.0
C445 C 0.62756 0.63077 0.75551 0.0
C446 C 0.70051 0.62048 0.72128 0.0
C447 C 0.64971 0.62138 0.71531 0.0
H448 H 0.6594 0.28815 0.52026 0.0
H449 H 0.69113 0.28345 0.44786 0.0
H450 H 0.6791 0.37422 0.44525 0.0
H451 H 0.67699 0.4561 0.46491 0.0
H452 H 0.65373 0.46207 0.53784 0.0
H453 H 0.64372 0.3706 0.53894 0.0
C454 C 0.66166 0.30682 0.50379 0.0
C455 C 0.67599 0.27897 0.48425 0.0
C456 C 0.65678 0.35974 0.5026 0.0
C457 C 0.67999 0.30395 0.46311 0.0
C458 C 0.67345 0.356 0.46164 0.0
C459 C 0.66719 0.43751 0.48082 0.0
C460 C 0.66486 0.46593 0.50118 0.0
C461 C 0.66419 0.38458 0.48144 0.0
C462 C 0.65429 0.44118 0.52186 0.0
C463 C 0.64941 0.38869 0.52252 0.0
H464 H 0.80855 0.40904 0.28318 0.0
H465 H 0.77612 0.40411 0.21084 0.0
H466 H 0.86537 0.39663 0.20228 0.0
H467 H 0.95265 0.40938 0.21543 0.0
H468 H 0.98505 0.40875 0.28784 0.0
H469 H 0.89608 0.3994 0.29642 0.0
C470 C 0.82099 0.40388 0.26563 0.0
C471 C 0.78593 0.40702 0.24766 0.0
C472 C 0.87246 0.39956 0.26086 0.0
C473 C 0.80238 0.40101 0.22495 0.0
C474 C 0.85352 0.3975 0.22005 0.0
C475 C 0.9403 0.40518 0.23303 0.0
C476 C 0.97524 0.41009 0.25099 0.0
C477 C 0.88899 0.39933 0.23783 0.0
C478 C 0.95891 0.4047 0.27373 0.0
C479 C 0.90792 0.39989 0.27866 0.0
H480 H 0.86421 0.54673 0.97114 0.0
H481 H 0.85902 0.5446 0.04487 0.0
H482 H 0.8708 0.63572 0.04613 0.0
H483 H 0.86282 0.71697 0.02598 0.0
H484 H 0.85828 0.7186 0.95216 0.0
H485 H 0.87117 0.62771 0.95105 0.0
C486 C 0.8683 0.56602 0.98745 0.0
C487 C 0.86169 0.53891 0.00789 0.0
C488 C 0.87217 0.61891 0.98796 0.0
C489 C 0.86507 0.56456 0.02894 0.0
C490 C 0.87104 0.61684 0.02964 0.0
C491 C 0.86696 0.69762 0.00969 0.0
C492 C 0.85993 0.72452 0.98917 0.0
C493 C 0.87185 0.64473 0.00923 0.0
C494 C 0.86395 0.69876 0.96816 0.0
C495 C 0.87084 0.64664 0.96753 0.0
H496 H 0.80967 0.89836 0.71368 0.0
H497 H 0.7752 0.89799 0.78578 0.0
H498 H 0.86439 0.89357 0.79508 0.0
H499 H 0.952 0.90719 0.78246 0.0
H500 H 0.9865 0.90204 0.71034 0.0
H501 H 0.89792 0.89034 0.70124 0.0
C502 C 0.82164 0.89473 0.73139 0.0
C503 C 0.78575 0.8982 0.74901 0.0
C504 C 0.8732 0.89236 0.73659 0.0
C505 C 0.80188 0.8944 0.7719 0.0
C506 C 0.85306 0.89277 0.77722 0.0
C507 C 0.94026 0.90162 0.76482 0.0
C508 C 0.97583 0.90578 0.74708 0.0
C509 C 0.8891 0.89428 0.75971 0.0
C510 C 0.96006 0.8986 0.7243 0.0
C511 C 0.90924 0.89239 0.71908 0.0
H512 H 0.87104 0.06157 0.9658 0.0
H513 H 0.86346 0.02429 0.03752 0.0
H514 H 0.86676 0.11347 0.04766 0.0
H515 H 0.85327 0.2017 0.03538 0.0
H516 H 0.86616 0.23895 0.96376 0.0
H517 H 0.88031 0.15053 0.95431 0.0
C518 C 0.87277 0.07294 0.98367 0.0
C519 C 0.86713 0.03638 0.00088 0.0
C520 C 0.87442 0.12445 0.98935 0.0
C521 C 0.86861 0.0516 0.02397 0.0
C522 C 0.8696 0.10275 0.02976 0.0
C523 C 0.86108 0.19061 0.01783 0.0
C524 C 0.85818 0.22678 0.00027 0.0
C525 C 0.86975 0.13954 0.01253 0.0
C526 C 0.86844 0.21195 0.9776 0.0
C527 C 0.87606 0.16123 0.97215 0.0
H528 H 0.55641 0.11059 0.28589 0.0
H529 H 0.51532 0.12358 0.21465 0.0
H530 H 0.60307 0.13427 0.20414 0.0
H531 H 0.69207 0.12302 0.21474 0.0
H532 H 0.73324 0.11685 0.28611 0.0
H533 H 0.64518 0.12179 0.29717 0.0
C534 C 0.56665 0.11765 0.2682 0.0
C535 C 0.52962 0.1159 0.25105 0.0
C536 C 0.61727 0.12458 0.2623 0.0
C537 C 0.54318 0.12508 0.22817 0.0
C538 C 0.59344 0.13073 0.22211 0.0
C539 C 0.68177 0.12522 0.2327 0.0
C540 C 0.71894 0.11971 0.24959 0.0
C541 C 0.63097 0.12829 0.23893 0.0
C542 C 0.70526 0.12185 0.27283 0.0
C543 C 0.65482 0.1239 0.27915 0.0
H544 H 0.65201 0.79141 0.47345 0.0
H545 H 0.67154 0.78206 0.54666 0.0
H546 H 0.65686 0.87225 0.55041 0.0
H547 H 0.6589 0.95521 0.53201 0.0
H548 H 0.64644 0.96595 0.45865 0.0
H549 H 0.63635 0.87476 0.45574 0.0
C550 C 0.65065 0.80884 0.49028 0.0
C551 C 0.66261 0.77998 0.50978 0.0
C552 C 0.64415 0.86151 0.49221 0.0
C553 C 0.66207 0.80336 0.53143 0.0
C554 C 0.65414 0.85512 0.53356 0.0
C555 C 0.65102 0.9378 0.51555 0.0
C556 C 0.65244 0.96747 0.49562 0.0
C557 C 0.64789 0.88496 0.51397 0.0
C558 C 0.64417 0.94416 0.47429 0.0
C559 C 0.6394 0.89176 0.4726 0.0
H560 H 0.05784 0.11757 0.20965 0.0
H561 H 0.01337 0.13548 0.28022 0.0
H562 H 0.10015 0.15007 0.29141 0.0
H563 H 0.1897 0.13907 0.28201 0.0
H564 H 0.23423 0.12749 0.21126 0.0
H565 H 0.14672 0.1306 0.19914 0.0
C566 C 0.06702 0.12663 0.22731 0.0
C567 C 0.02934 0.12486 0.24411 0.0
C568 C 0.11715 0.13569 0.23363 0.0
C569 C 0.04163 0.13681 0.26694 0.0
C570 C 0.09141 0.14469 0.27341 0.0
C571 C 0.18026 0.13996 0.2639 0.0
C572 C 0.21826 0.13314 0.24755 0.0
C573 C 0.12972 0.14173 0.25706 0.0
C574 C 0.20564 0.13354 0.22414 0.0
C575 C 0.15548 0.13444 0.21722 0.0
H576 H 0.1491 0.95248 0.96375 0.0
H577 H 0.12055 0.95834 0.03627 0.0
H578 H 0.11027 0.86698 0.03719 0.0
H579 H 0.12929 0.78492 0.01896 0.0
H580 H 0.16592 0.78029 0.94704 0.0
H581 H 0.15221 0.87072 0.94408 0.0
C582 C 0.13787 0.93392 0.97946 0.0
C583 C 0.13456 0.9622 -0.00019 0.0
C584 C 0.13485 0.88103 0.98004 0.0
C585 C 0.12199 0.93752 0.02028 0.0
C586 C 0.11704 0.88508 0.02086 0.0
C587 C 0.13216 0.80345 0.00247 0.0
C588 C 0.14875 0.77588 0.98326 0.0
C589 C 0.12622 0.85619 0.0011 0.0
C590 C 0.15326 0.80064 0.96208 0.0
C591 C 0.14575 0.85251 0.96041 0.0
H592 H 0.46574 0.89356 0.77429 0.0
H593 H 0.4677 0.91024 0.70084 0.0
H594 H 0.37773 0.89507 0.69908 0.0
H595 H 0.29686 0.89664 0.71917 0.0
H596 H 0.29388 0.8891 0.79283 0.0
H597 H 0.38489 0.87955 0.79388 0.0
C598 C 0.44674 0.89161 0.75786 0.0
C599 C 0.47344 0.90278 0.73771 0.0
C600 C 0.39425 0.88514 0.75709 0.0
C601 C 0.44804 0.90146 0.71657 0.0
C602 C 0.39643 0.89321 0.71557 0.0
C603 C 0.31598 0.89011 0.73532 0.0
C604 C 0.28855 0.89258 0.75587 0.0
C605 C 0.36873 0.88764 0.73581 0.0
C606 C 0.31403 0.88613 0.77677 0.0
C607 C 0.36626 0.88156 0.77738 0.0
H608 H 0.37446 0.20175 0.45949 0.0
H609 H 0.395 0.24321 0.53041 0.0
H610 H 0.40927 0.15537 0.5405 0.0
H611 H 0.39667 0.0661 0.5302 0.0
H612 H 0.38144 0.0245 0.45909 0.0
H613 H 0.38585 0.11281 0.44789 0.0
C614 C 0.38404 0.19167 0.47698 0.0
C615 C 0.38301 0.22875 0.49423 0.0
C616 C 0.39266 0.14095 0.48266 0.0
C617 C 0.39569 0.21537 0.51681 0.0
C618 C 0.40338 0.165 0.52265 0.0
C619 C 0.39695 0.07631 0.5122 0.0
C620 C 0.38859 0.03901 0.4955 0.0
C621 C 0.39934 0.12727 0.50589 0.0
C622 C 0.38848 0.05255 0.47223 0.0
C623 C 0.39016 0.10317 0.46584 0.0
H624 H 0.17643 0.70905 0.27026 0.0
H625 H 0.30013 0.64849 0.23137 0.0
H626 H 0.33038 0.73355 0.22401 0.0
H627 H 0.32097 0.82436 0.22833 0.0
H628 H 0.19781 0.88493 0.26753 0.0
H629 H 0.16699 0.79986 0.27456 0.0
C630 C 0.21044 0.71432 0.26044 0.0
C631 C 0.23631 0.67257 0.25152 0.0
C632 C 0.2269 0.76309 0.25591 0.0
C633 C 0.27977 0.68009 0.23851 0.0
C634 C 0.29683 0.72863 0.23416 0.0
C635 C 0.28688 0.81906 0.23809 0.0
C636 C 0.2613 0.86075 0.24722 0.0
C637 C 0.27032 0.7703 0.24257 0.0
C638 C 0.21786 0.85329 0.26023 0.0
C639 C 0.20051 0.80478 0.26439 0.0
H640 H 0.11078 0.5011 0.47024 0.0
H641 H 0.10146 0.47426 0.54313 0.0
H642 H 0.01247 0.49468 0.54248 0.0
H643 H 0.93735 0.51723 0.5211 0.0
H644 H 0.94609 0.54509 0.44831 0.0
H645 H 0.03556 0.52562 0.44891 0.0
C646 C 0.08952 0.50074 0.48607 0.0
C647 C 0.11262 0.48645 0.50672 0.0
C648 C 0.03822 0.51123 0.48547 0.0
C649 C 0.08445 0.48536 0.52703 0.0
C650 C 0.03355 0.49653 0.52664 0.0
C651 C 0.95859 0.51819 0.50527 0.0
C652 C 0.93516 0.53185 0.48463 0.0
C653 C 0.00995 0.50851 0.50588 0.0
C654 C 0.96338 0.53413 0.46436 0.0
C655 C 0.0145 0.5235 0.46474 0.0
H656 H 0.31757 0.3233 0.77113 0.0
H657 H 0.18965 0.38429 0.73538 0.0
H658 H 0.15868 0.29915 0.72814 0.0
H659 H 0.17006 0.20806 0.73081 0.0
H660 H 0.29939 0.14767 0.7658 0.0
H661 H 0.32874 0.23272 0.77396 0.0
C662 C 0.28237 0.3181 0.76214 0.0
C663 C 0.25555 0.35989 0.75399 0.0
C664 C 0.26594 0.26941 0.75738 0.0
C665 C 0.21065 0.35255 0.74193 0.0
C666 C 0.19326 0.30401 0.73762 0.0
C667 C 0.20507 0.21345 0.73992 0.0
C668 C 0.23285 0.17173 0.7475 0.0
C669 C 0.22116 0.26225 0.7449 0.0
C670 C 0.27758 0.17928 0.75968 0.0
C671 C 0.29414 0.22779 0.7645 0.0
H672 H 0.59239 0.50561 0.02336 0.0
H673 H 0.57137 0.45258 0.95391 0.0
H674 H 0.48223 0.47186 0.95627 0.0
H675 H 0.41059 0.50142 0.97835 0.0
H676 H 0.43146 0.55492 0.0477 0.0
H677 H 0.52081 0.53609 0.04532 0.0
C678 C 0.56853 0.49918 0.00856 0.0
C679 C 0.58833 0.47799 0.98845 0.0
C680 C 0.51734 0.50898 0.01026 0.0
C681 C 0.55687 0.46912 0.96955 0.0
C682 C 0.50593 0.47963 0.97096 0.0
C683 C 0.43449 0.50805 0.99311 0.0
C684 C 0.41458 0.52891 0.01327 0.0
C685 C 0.48572 0.49865 0.99137 0.0
C686 C 0.44608 0.5384 0.03208 0.0
C687 C 0.49711 0.52817 0.03065 0.0
H688 H 0.82064 0.31847 0.72944 0.0
H689 H 0.69828 0.38197 0.76821 0.0
H690 H 0.66581 0.29749 0.77544 0.0
H691 H 0.67343 0.20631 0.77108 0.0
H692 H 0.79713 0.14363 0.73284 0.0
H693 H 0.82902 0.22795 0.72562 0.0
C694 C 0.78635 0.314 0.73915 0.0
C695 C 0.76139 0.35624 0.74804 0.0
C696 C 0.76904 0.26573 0.74379 0.0
C697 C 0.71775 0.34984 0.76104 0.0
C698 C 0.69952 0.30169 0.76532 0.0
C699 C 0.70783 0.21101 0.76148 0.0
C700 C 0.73308 0.16891 0.75257 0.0
C701 C 0.72529 0.25943 0.75701 0.0
C702 C 0.77717 0.17556 0.73991 0.0
C703 C 0.79516 0.22366 0.73562 0.0
H704 H 0.75996 0.85086 0.22129 0.0
H705 H 0.78751 0.84384 0.29422 0.0
H706 H 0.7661 0.75466 0.29423 0.0
H707 H 0.74135 0.6788 0.27339 0.0
H708 H 0.71365 0.68591 0.20049 0.0
H709 H 0.73498 0.77513 0.20048 0.0
C710 C 0.76036 0.83009 0.23727 0.0
C711 C 0.77489 0.85391 0.25775 0.0
C712 C 0.7494 0.77874 0.23704 0.0
C713 C 0.77611 0.8263 0.27826 0.0
C714 C 0.76438 0.77529 0.27824 0.0
C715 C 0.74093 0.69963 0.25742 0.0
C716 C 0.72648 0.67583 0.23693 0.0
C717 C 0.75179 0.75101 0.25766 0.0
C718 C 0.72506 0.70347 0.21644 0.0
C719 C 0.73675 0.75449 0.21647 0.0
H720 H 0.56213 0.93023 0.01915 0.0
H721 H 0.62095 0.05698 0.98184 0.0
H722 H 0.53575 0.08659 0.97426 0.0
H723 H 0.4454 0.07488 0.97756 0.0
H724 H 0.38708 0.94734 0.01451 0.0
H725 H 0.47222 0.91832 0.02229 0.0
C726 C 0.55647 0.96489 0.00971 0.0
C727 C 0.59765 0.99184 0.00128 0.0
C728 C 0.50779 0.98054 0.00482 0.0
C729 C 0.58969 0.03596 0.98865 0.0
C730 C 0.54112 0.05254 0.98414 0.0
C731 C 0.45123 0.04022 0.98696 0.0
C732 C 0.41014 0.01292 0.99528 0.0
C733 C 0.5 0.02461 0.99184 0.0
C734 C 0.41825 0.96871 0.00783 0.0
C735 C 0.46679 0.95243 0.01245 0.0
H736 H 0.07835 0.92738 0.49587 0.0
H737 H 0.1408 0.06709 0.52031 0.0
H738 H 0.05643 0.09786 0.52942 0.0
H739 H 0.96535 0.08558 0.52857 0.0
H740 H 0.90458 0.94499 0.504 0.0
H741 H 0.98892 0.91295 0.49749 0.0
C742 C 0.07354 0.96487 0.50294 0.0
C743 C 0.11528 0.99565 0.50688 0.0
C744 C 0.02566 0.98143 0.50856 0.0
C745 C 0.10885 0.04328 0.51681 0.0
C746 C 0.06085 0.06058 0.52215 0.0
C747 C 0.9706 0.04748 0.52233 0.0
C748 C 0.92896 0.0176 0.51671 0.0
C749 C 0.01903 0.02994 0.518 0.0
C750 C 0.93618 0.96858 0.5084 0.0
C751 C 0.98426 0.95046 0.50449 0.0
H752 H 0.17941 0.39539 0.32995 0.0
H753 H 0.16074 0.55289 0.34619 0.0
H754 H 0.19256 0.53834 0.3847 0.0
H755 H 0.22523 0.48199 0.41371 0.0
H756 H 0.24252 0.3238 0.39897 0.0
H757 H 0.21239 0.33788 0.35974 0.0
C758 C 0.18192 0.42646 0.34197 0.0
C759 C 0.16747 0.47521 0.3351 0.0
C760 C 0.20056 0.41791 0.36424 0.0
C761 C 0.17144 0.51502 0.3509 0.0
C762 C 0.18983 0.5068 0.37296 0.0
C763 C 0.22296 0.45039 0.40195 0.0
C764 C 0.23646 0.40186 0.40934 0.0
C765 C 0.20467 0.45855 0.37975 0.0
C766 C 0.23268 0.36159 0.39376 0.0
C767 C 0.21517 0.3696 0.37136 0.0
H768 H 0.40508 0.44643 0.65328 0.0
H769 H 0.26429 0.52445 0.66074 0.0
H770 H 0.23737 0.4943 0.62325 0.0
H771 H 0.25203 0.44339 0.58891 0.0
H772 H 0.39334 0.36752 0.58017 0.0
H773 H 0.42141 0.39831 0.61768 0.0
C774 C 0.36897 0.45764 0.64648 0.0
C775 C 0.3368 0.48766 0.65985 0.0
C776 C 0.35325 0.43953 0.62491 0.0
C777 C 0.28982 0.50132 0.65086 0.0
C778 C 0.27417 0.48381 0.62947 0.0
C779 C 0.28868 0.43298 0.59538 0.0
C780 C 0.32018 0.40246 0.58202 0.0
C781 C 0.30511 0.4521 0.61655 0.0
C782 C 0.36817 0.3905 0.59031 0.0
C783 C 0.38436 0.4084 0.61166 0.0
H784 H 0.32355 0.4877 0.84322 0.0
H785 H 0.38321 0.63502 0.82931 0.0
H786 H 0.35889 0.66336 0.86757 0.0
H787 H 0.3195 0.64676 0.90492 0.0
H788 H 0.25913 0.49949 0.9185 0.0
H789 H 0.28417 0.47116 0.88043 0.0
C790 C 0.33187 0.52579 0.84867 0.0
C791 C 0.35547 0.55901 0.83344 0.0
C792 C 0.31688 0.54222 0.87056 0.0
C793 C 0.36521 0.60855 0.84069 0.0
C794 C 0.35107 0.62492 0.86255 0.0
C795 C 0.31128 0.60867 0.89945 0.0
C796 C 0.28726 0.57547 0.91458 0.0
C797 C 0.32638 0.59226 0.87755 0.0
C798 C 0.27751 0.52597 0.90725 0.0
C799 C 0.29203 0.50957 0.88548 0.0
H800 H 0.13246 0.58706 0.08037 0.0
H801 H 0.27937 0.64319 0.09767 0.0
H802 H 0.2681 0.61728 0.13722 0.0
H803 H 0.21897 0.57611 0.16654 0.0
H804 H 0.07078 0.52183 0.15104 0.0
H805 H 0.08032 0.54922 0.11107 0.0
C806 C 0.16163 0.59432 0.09288 0.0
C807 C 0.20683 0.61689 0.08593 0.0
C808 C 0.1551 0.5789 0.11581 0.0
C809 C 0.24433 0.62571 0.1024 0.0
C810 C 0.23805 0.61071 0.12507 0.0
C811 C 0.18877 0.56971 0.15443 0.0
C812 C 0.14457 0.54605 0.16168 0.0
C813 C 0.19408 0.58651 0.13184 0.0
C814 C 0.10541 0.53944 0.14583 0.0
C815 C 0.11081 0.5553 0.12302 0.0
H816 H 0.82449 0.52573 0.58121 0.0
H817 H 0.79623 0.6833 0.59357 0.0
H818 H 0.81763 0.67241 0.63406 0.0
H819 H 0.84404 0.61797 0.66596 0.0
H820 H 0.87253 0.46054 0.65312 0.0
H821 H 0.85188 0.4719 0.61274 0.0
C822 C 0.82265 0.55774 0.59274 0.0
C823 C 0.80843 0.60523 0.58431 0.0
C824 C 0.83552 0.55136 0.6159 0.0
C825 C 0.80684 0.64628 0.59955 0.0
C826 C 0.81924 0.64012 0.62271 0.0
C827 C 0.84621 0.5862 0.65431 0.0
C828 C 0.85994 0.53846 0.66266 0.0
C829 C 0.83379 0.59285 0.63106 0.0
C830 C 0.86214 0.49772 0.64726 0.0
C831 C 0.85016 0.50411 0.62413 0.0
H832 H 0.72176 0.57742 0.33011 0.0
H833 H 0.57488 0.52351 0.34802 0.0
H834 H 0.58952 0.54779 0.38816 0.0
H835 H 0.64543 0.58341 0.41825 0.0
H836 H 0.79123 0.6382 0.39865 0.0
H837 H 0.77511 0.61498 0.35902 0.0
C838 C 0.69285 0.5705 0.34273 0.0
C839 C 0.64748 0.548 0.33603 0.0
C840 C 0.70119 0.5852 0.3655 0.0
C841 C 0.61031 0.54039 0.35269 0.0
C842 C 0.61864 0.55443 0.37563 0.0
C843 C 0.6734 0.59078 0.40526 0.0
C844 C 0.71962 0.61243 0.41157 0.0
C845 C 0.66404 0.57693 0.38225 0.0
C846 C 0.75547 0.62143 0.39445 0.0
C847 C 0.74638 0.60803 0.37171 0.0
H848 H 0.68281 0.47719 0.08059 0.0
H849 H 0.73047 0.32704 0.09816 0.0
H850 H 0.70378 0.34109 0.13791 0.0
H851 H 0.66788 0.39687 0.16767 0.0
H852 H 0.61964 0.54639 0.149 0.0
H853 H 0.64512 0.53122 0.10951 0.0
C854 C 0.68779 0.44744 0.09307 0.0
C855 C 0.70922 0.40123 0.08638 0.0
C856 C 0.67178 0.45552 0.11566 0.0
C857 C 0.71445 0.36305 0.10283 0.0
C858 C 0.69903 0.37105 0.12554 0.0
C859 C 0.66243 0.42599 0.15493 0.0
C860 C 0.64181 0.47281 0.16142 0.0
C861 C 0.6776 0.41718 0.13214 0.0
C862 C 0.63534 0.51007 0.14462 0.0
C863 C 0.6501 0.50151 0.122 0.0
H864 H 0.78047 0.46061 0.83449 0.0
H865 H 0.9334 0.50024 0.8497 0.0
H866 H 0.92261 0.47056 0.88925 0.0
H867 H 0.86912 0.43233 0.91936 0.0
H868 H 0.7176 0.39002 0.90207 0.0
H869 H 0.72899 0.42115 0.86338 0.0
C870 C 0.81149 0.46346 0.84644 0.0
C871 C 0.85752 0.48335 0.83916 0.0
C872 C 0.80546 0.44511 0.86875 0.0
C873 C 0.89742 0.48555 0.85488 0.0
C874 C 0.89131 0.46831 0.87745 0.0
C875 C 0.83877 0.42951 0.90706 0.0
C876 C 0.79249 0.40881 0.9138 0.0
C877 C 0.8455 0.44763 0.88455 0.0
C878 C 0.7536 0.40569 0.89756 0.0
C879 C 0.75995 0.42372 0.87536 0.0
H880 H 0.66872 0.89223 0.8283 0.0
H881 H 0.6401 0.04833 0.84429 0.0
H882 H 0.66999 0.03554 0.88323 0.0
H883 H 0.70484 0.9813 0.91263 0.0
H884 H 0.73182 0.82443 0.89817 0.0
H885 H 0.70264 0.83656 0.85865 0.0
C886 C 0.6685 0.92329 0.84038 0.0
C887 C 0.65207 0.97121 0.83326 0.0
C888 C 0.68613 0.91581 0.86292 0.0
C889 C 0.65249 0.01107 0.84917 0.0
C890 C 0.6698 1.00389 0.87148 0.0
C891 C 0.70495 0.94968 0.90084 0.0
C892 C 0.72105 0.90209 0.90836 0.0
C893 C 0.68711 0.95665 0.87846 0.0
C894 C 0.71999 0.86156 0.89283 0.0
C895 C 0.70304 0.86844 0.87026 0.0
H896 H 0.86629 0.92224 0.07826 0.0
H897 H 0.71339 0.88551 0.09503 0.0
H898 H 0.72628 0.91543 0.13411 0.0
H899 H 0.77964 0.95338 0.16328 0.0
H900 H 0.93309 0.98955 0.14757 0.0
H901 H 0.92096 0.95907 0.10822 0.0
C902 C 0.83595 0.92016 0.09054 0.0
C903 C 0.78888 0.90142 0.08361 0.0
C904 C 0.84344 0.93805 0.11308 0.0
C905 C 0.74996 0.89961 0.09977 0.0
C906 C 0.75722 0.91696 0.12215 0.0
C907 C 0.81052 0.95514 0.15127 0.0
C908 C 0.85716 0.97432 0.15842 0.0
C909 C 0.80355 0.93676 0.1289 0.0
C910 C 0.89671 0.97538 0.14256 0.0
C911 C 0.88984 0.9577 0.12008 0.0
H912 H 0.8324 0.14895 0.40392 0.0
H913 H 0.79504 0.99541 0.42043 0.0
H914 H 0.81819 0.96877 0.38195 0.0
H915 H 0.84875 0.98848 0.34349 0.0
H916 H 0.88463 0.14183 0.32629 0.0
H917 H 0.86303 0.16877 0.36513 0.0
C918 C 0.82896 0.10975 0.39905 0.0
C919 C 0.8119 0.07439 0.41514 0.0
C920 C 0.84264 0.0944 0.3768 0.0
C921 C 0.80806 0.02361 0.4085 0.0
C922 C 0.82145 0.00818 0.38646 0.0
C923 C 0.85246 0.02771 0.3483 0.0
C924 C 0.86857 0.06297 0.33201 0.0
C925 C 0.83904 0.04314 0.37051 0.0
C926 C 0.87242 0.11381 0.33849 0.0
C927 C 0.85987 0.12933 0.36068 0.0
H928 H 0.64454 0.08689 0.57802 0.0
H929 H 0.79301 0.13518 0.59746 0.0
H930 H 0.77741 0.11076 0.63686 0.0
H931 H 0.72387 0.07328 0.66556 0.0
H932 H 0.57414 0.0269 0.64794 0.0
H933 H 0.58816 0.05271 0.60803 0.0
C934 C 0.6732 0.09266 0.59095 0.0
C935 C 0.72005 0.11262 0.58463 0.0
C936 C 0.66411 0.07824 0.61382 0.0
C937 C 0.75675 0.11968 0.60166 0.0
C938 C 0.74798 0.10556 0.62426 0.0
C939 C 0.69427 0.06831 0.65301 0.0
C940 C 0.64831 0.04735 0.65965 0.0
C941 C 0.70222 0.0841 0.63043 0.0
C942 C 0.61005 0.04249 0.64322 0.0
C943 C 0.61803 0.0574 0.62044 0.0
H944 H 0.30968 0.15515 0.09495 0.0
H945 H 0.22659 0.01768 0.08571 0.0
H946 H 0.25012 0.99028 0.1241 0.0
H947 H 0.29836 1.00277 0.15932 0.0
H948 H 0.38154 0.13997 0.16906 0.0
H949 H 0.35455 0.16973 0.13137 0.0
C950 C 0.29584 0.11977 0.10158 0.0
C951 C 0.26647 0.08851 0.08754 0.0
C952 C 0.31049 0.10362 0.12353 0.0
C953 C 0.24934 0.04239 0.0962 0.0
C954 C 0.26305 0.0265 0.11809 0.0
C955 C 0.31095 0.03899 0.15311 0.0
C956 C 0.34249 0.06875 0.16679 0.0
C957 C 0.29461 0.05622 0.13166 0.0
C958 C 0.35755 0.11613 0.15874 0.0
C959 C 0.34194 0.1333 0.13725 0.0
H960 H 0.13819 0.08271 0.91829 0.0
H961 H 0.29244 0.11742 0.90305 0.0
H962 H 0.27968 0.09248 0.86331 0.0
H963 H 0.2262 0.05975 0.8332 0.0
H964 H 0.07124 0.02633 0.84704 0.0
H965 H 0.08314 0.05141 0.88722 0.0
C966 C 0.1689 0.08529 0.90623 0.0
C967 C 0.21629 0.10193 0.91375 0.0
C968 C 0.16143 0.07054 0.88328 0.0
C969 C 0.25563 0.10477 0.89785 0.0
C970 C 0.24846 0.09032 0.8751 0.0
C971 C 0.19489 0.05742 0.84495 0.0
C972 C 0.14795 0.0406 0.83711 0.0
C973 C 0.20176 0.07271 0.86772 0.0
C974 C 0.10784 0.03877 0.85263 0.0
C975 C 0.11461 0.05332 0.87557 0.0
H976 H 0.18418 0.8922 0.66865 0.0
H977 H 0.1697 0.051 0.65461 0.0
H978 H 0.20574 0.03857 0.61682 0.0
H979 H 0.23999 0.98368 0.58757 0.0
H980 H 0.25149 0.82408 0.59957 0.0
H981 H 0.219 0.8361 0.63854 0.0
C982 C 0.18859 0.92403 0.65727 0.0
C983 C 0.17395 0.9725 0.66459 0.0
C984 C 0.20947 0.91668 0.63531 0.0
C985 C 0.18032 0.01326 0.64957 0.0
C986 C 0.20122 1.00628 0.62792 0.0
C987 C 0.23617 0.95135 0.59871 0.0
C988 C 0.24864 0.90301 0.5906 0.0
C989 C 0.21601 0.9583 0.62066 0.0
C990 C 0.24258 0.86175 0.60536 0.0
C991 C 0.22364 0.86859 0.62759 0.0
H992 H 0.27678 0.97632 0.33667 0.0
H993 H 0.43661 0.98597 0.34635 0.0
H994 H 0.42734 0.95654 0.38589 0.0
H995 H 0.37366 0.92653 0.4174 0.0
H996 H 0.21413 0.91531 0.4066 0.0
H997 H 0.22381 0.94627 0.36761 0.0
C998 C 0.30972 0.97261 0.34743 0.0
C999 C 0.35735 0.98376 0.33852 0.0
C1000 C 0.30424 0.95466 0.36986 0.0
C1001 C 0.39949 0.97796 0.35275 0.0
C1002 C 0.39422 0.96086 0.37532 0.0
C1003 C 0.34103 0.93043 0.40647 0.0
C1004 C 0.29321 0.91836 0.41499 0.0
C1005 C 0.34678 0.9486 0.38398 0.0
C1006 C 0.25138 0.92412 0.40057 0.0
C1007 C 0.25682 0.94206 0.37826 0.0
H1008 H 0.05094 0.69166 0.22552 0.0
H1009 H 0.99678 0.66009 0.29357 0.0
H1010 H 0.97067 0.74779 0.29804 0.0
H1011 H 0.96332 0.83325 0.28262 0.0
H1012 H 0.01993 0.86547 0.21492 0.0
H1013 H 0.0462 0.77804 0.21059 0.0
C1014 C 0.03264 0.70383 0.24117 0.0
C1015 C 0.02484 0.66919 0.25902 0.0
C1016 C 0.01919 0.75466 0.24389 0.0
C1017 C 1.00255 0.68588 0.27948 0.0
C1018 C 0.98799 0.73609 0.2821 0.0
C1019 C 0.98204 0.82149 0.26702 0.0
C1020 C 0.98958 0.85626 0.24914 0.0
C1021 C 0.99645 0.7709 0.26448 0.0
C1022 C 0.01369 0.83984 0.22902 0.0
C1023 C 0.02839 0.78964 0.22644 0.0
H1024 H 0.08852 0.30154 0.53171 0.0
H1025 H 0.13026 0.22992 0.46799 0.0
H1026 H 0.04467 0.20009 0.46288 0.0
H1027 H 0.95713 0.19639 0.4758 0.0
H1028 H 0.91568 0.2664 0.53983 0.0
H1029 H 1.00164 0.29553 0.54525 0.0
C1030 C 0.07922 0.27874 0.51687 0.0
C1031 C 0.11617 0.26798 0.50031 0.0
C1032 C 0.02958 0.26228 0.51381 0.0
C1033 C 0.10289 0.23877 0.48108 0.0
C1034 C 0.05375 0.22195 0.47803 0.0
C1035 C 0.96674 0.21864 0.49078 0.0
C1036 C 0.92974 0.22992 0.5072 0.0
C1037 C 0.01659 0.23417 0.49409 0.0
C1038 C 0.94324 0.25764 0.52682 0.0
C1039 C 0.9925 0.27403 0.53 0.0
H1040 H 0.44601 0.32694 0.78108 0.0
H1041 H 0.50432 0.36436 0.71427 0.0
H1042 H 0.53269 0.27791 0.70905 0.0
H1043 H 0.54055 0.19117 0.7232 0.0
H1044 H 0.48568 0.1543 0.79054 0.0
H1045 H 0.45545 0.24056 0.79557 0.0
C1046 C 0.4655 0.31647 0.76549 0.0
C1047 C 0.47311 0.35256 0.74816 0.0
C1048 C 0.48147 0.26637 0.76248 0.0
C1049 C 0.49804 0.33775 0.72798 0.0
C1050 C 0.51403 0.2881 0.72489 0.0
C1051 C 0.52119 0.20182 0.73881 0.0
C1052 C 0.51457 0.1661 0.75631 0.0
C1053 C 0.50549 0.25195 0.7419 0.0
C1054 C 0.49071 0.18091 0.77671 0.0
C1055 C 0.47377 0.23033 0.77966 0.0
H1056 H 0.56513 0.80927 0.02893 0.0
H1057 H 0.60739 0.73321 0.96637 0.0
H1058 H 0.52136 0.70453 0.96113 0.0
H1059 H 0.43373 0.7016 0.97406 0.0
H1060 H 0.39204 0.77589 0.03705 0.0
H1061 H 0.47791 0.80568 0.04205 0.0
C1062 C 0.55583 0.78578 0.01431 0.0
C1063 C 0.59309 0.77312 0.99818 0.0
C1064 C 0.50603 0.76998 0.0112 0.0
C1065 C 0.57978 0.74331 0.97916 0.0
C1066 C 0.53042 0.72717 0.97604 0.0
C1067 C 0.44327 0.72501 0.98869 0.0
C1068 C 0.40631 0.7371 0.005 0.0
C1069 C 0.49311 0.74072 0.99182 0.0
C1070 C 0.41963 0.76642 0.02415 0.0
C1071 C 0.46883 0.78314 0.0271 0.0
H1072 H 0.05067 0.1887 0.77344 0.0
H1073 H 0.99203 0.15323 0.70638 0.0
H1074 H 0.96353 0.24009 0.70186 0.0
H1075 H 0.9556 0.3259 0.71681 0.0
H1076 H 0.01622 0.36258 0.78348 0.0
H1077 H 0.04478 0.27581 0.78801 0.0
C1078 C 0.03094 0.19985 0.75799 0.0
C1079 C 0.02262 0.16428 0.74043 0.0
C1080 C 0.016 0.2503 0.75523 0.0
C1081 C 0.99835 0.17968 0.72024 0.0
C1082 C 0.98237 0.22943 0.71759 0.0
C1083 C 0.97558 0.31529 0.73226 0.0
C1084 C 0.98373 0.35116 0.74976 0.0
C1085 C 0.99132 0.26514 0.7349 0.0
C1086 C 0.00955 0.33614 0.76966 0.0
C1087 C 0.02556 0.28631 0.77235 0.0
H1088 H 0.9491 0.71453 0.52263 0.0
H1089 H 0.9173 0.76753 0.45428 0.0
H1090 H 1.00381 0.79606 0.45035 0.0
H1091 H 0.0886 0.80495 0.46612 0.0
H1092 H 0.12116 0.74935 0.53406 0.0
H1093 H 0.03455 0.72185 0.5381 0.0
C1094 C 0.96089 0.73307 0.50701 0.0
C1095 C 0.9265 0.73962 0.4889 0.0
C1096 C 0.01111 0.74796 0.5046 0.0
C1097 C 0.94282 0.7625 0.46855 0.0
C1098 C 0.99238 0.7785 0.46624 0.0
C1099 C 0.07708 0.78627 0.48174 0.0
C1100 C 0.11179 0.77913 0.49972 0.0
C1101 C 0.02699 0.77096 0.48407 0.0
C1102 C 0.09564 0.75514 0.51986 0.0
C1103 C 0.0459 0.73972 0.52227 0.0
H1104 H 0.53289 0.69341 0.21313 0.0
H1105 H 0.486 0.66052 0.28232 0.0
H1106 H 0.45901 0.74753 0.28736 0.0
H1107 H 0.45115 0.83388 0.27265 0.0
H1108 H 0.49554 0.86617 0.20318 0.0
H1109 H 0.52198 0.77878 0.19792 0.0
C1110 C 0.51613 0.70493 0.22924 0.0
C1111 C 0.51159 0.67007 0.24731 0.0
C1112 C 0.50121 0.75532 0.23216 0.0
C1113 C 0.48993 0.68619 0.26806 0.0
C1114 C 0.4748 0.73616 0.27104 0.0
C1115 C 0.46731 0.82194 0.25647 0.0
C1116 C 0.47229 0.85675 0.23846 0.0
C1117 C 0.48106 0.77126 0.25336 0.0
C1118 C 0.4919 0.8403 0.21739 0.0
C1119 C 0.5067 0.79025 0.21433 0.0
H1120 H 0.43579 0.19911 0.96779 0.0
H1121 H 0.40181 0.25511 0.03558 0.0
H1122 H 0.48856 0.28207 0.04034 0.0
H1123 H 0.57444 0.28988 0.02528 0.0
H1124 H 0.60751 0.23586 0.95715 0.0
H1125 H 0.5212 0.20702 0.95276 0.0
C1126 C 0.44703 0.21779 0.98353 0.0
C1127 C 0.41179 0.22541 0.00121 0.0
C1128 C 0.49724 0.23271 0.98628 0.0
C1129 C 0.42771 0.24903 0.02158 0.0
C1130 C 0.47753 0.26418 0.02439 0.0
C1131 C 0.56297 0.27102 0.00962 0.0
C1132 C 0.59769 0.26448 0.99167 0.0
C1133 C 0.51275 0.25588 0.00694 0.0
C1134 C 0.58176 0.24103 0.97129 0.0
C1135 C 0.53227 0.22484 0.96871 0.0
loop_
_geom_bond_atom_site_label_1
_geom_bond_atom_site_label_2
_geom_bond_distance
_geom_bond_site_symmetry_2
_ccdc_geom_bond_type
O0 Zn1 1.953 . S
O0 C16 1.225 . S
Zn1 O0 1.953 . S
Zn1 O2 1.949 . S
Zn1 O8 1.919 . S
Zn1 O13 1.924 . S
O2 Zn1 1.949 . S
O2 Zn3 1.923 . S
O2 Zn4 1.950 . S
O2 Zn5 1.945 . S
Zn3 O2 1.923 . S
Zn3 O6 1.933 . S
Zn3 O9 1.941 . S
Zn3 O10 1.965 . S
Zn4 O2 1.950 . S
Zn4 O11 1.938 . S
Zn4 O12 1.906 . S
Zn4 O22 1.953 . S
Zn5 O2 1.945 . S
Zn5 O7 1.932 . S
Zn5 O14 1.977 . S
Zn5 O15 1.910 . S
O6 Zn3 1.933 . S
O6 C17 1.226 . S
O7 Zn5 1.932 . S
O7 C17 1.307 . S
O8 Zn1 1.919 . S
O8 C19 1.253 . S
O9 Zn3 1.941 . S
O9 C19 1.283 . S
O10 Zn3 1.965 . S
O10 C18 1.303 . S
O11 Zn4 1.938 . S
O11 C18 1.247 . S
O12 Zn4 1.906 . S
O12 C20 1.304 . S
O13 Zn1 1.924 . S
O13 C21 1.311 . S
O14 Zn5 1.977 . S
O14 C20 1.272 . S
O15 Zn5 1.910 . S
O15 C21 1.231 . S
C16 O0 1.225 . S
C16 O22 1.298 . S
C17 O6 1.226 . S
C17 O7 1.307 . S
C18 O10 1.303 . S
C18 O11 1.247 . S
C19 O8 1.253 . S
C19 O9 1.283 . S
C20 O12 1.304 . S
C20 O14 1.272 . S
C21 O13 1.311 . S
C21 O15 1.231 . S
O22 Zn4 1.953 . S
O22 C16 1.298 . S
O23 Zn24 1.953 . S
O23 C39 1.225 . S
Zn24 O23 1.953 . S
Zn24 O25 1.949 . S
Zn24 O31 1.919 . S
Zn24 O36 1.924 . S
O25 Zn24 1.949 . S
O25 Zn26 1.923 . S
O25 Zn27 1.950 . S
O25 Zn28 1.945 . S
Zn26 O25 1.923 . S
Zn26 O29 1.933 . S
Zn26 O32 1.941 . S
Zn26 O33 1.965 . S
Zn27 O25 1.950 . S
Zn27 O34 1.938 . S
Zn27 O35 1.906 . S
Zn27 O45 1.953 . S
Zn28 O25 1.945 . S
Zn28 O30 1.932 . S
Zn28 O37 1.977 . S
Zn28 O38 1.910 . S
O29 Zn26 1.933 . S
O29 C40 1.226 . S
O30 Zn28 1.932 . S
O30 C40 1.307 . S
O31 Zn24 1.919 . S
O31 C42 1.253 . S
O32 Zn26 1.941 . S
O32 C42 1.283 . S
O33 Zn26 1.965 . S
O33 C41 1.303 . S
O34 Zn27 1.938 . S
O34 C41 1.247 . S
O35 Zn27 1.906 . S
O35 C43 1.304 . S
O36 Zn24 1.924 . S
O36 C44 1.311 . S
O37 Zn28 1.977 . S
O37 C43 1.272 . S
O38 Zn28 1.910 . S
O38 C44 1.231 . S
C39 O23 1.225 . S
C39 O45 1.298 . S
C40 O29 1.226 . S
C40 O30 1.307 . S
C41 O33 1.303 . S
C41 O34 1.247 . S
C42 O31 1.253 . S
C42 O32 1.283 . S
C43 O35 1.304 . S
C43 O37 1.272 . S
C44 O36 1.311 . S
C44 O38 1.231 . S
O45 Zn27 1.953 . S
O45 C39 1.298 . S
O46 Zn47 1.953 . S
O46 C62 1.225 . S
Zn47 O46 1.953 . S
Zn47 O48 1.949 . S
Zn47 O54 1.919 . S
Zn47 O59 1.924 . S
O48 Zn47 1.949 . S
O48 Zn49 1.923 . S
O48 Zn50 1.950 . S
O48 Zn51 1.945 . S
Zn49 O48 1.923 . S
Zn49 O52 1.933 . S
Zn49 O55 1.941 . S
Zn49 O56 1.965 . S
Zn50 O48 1.950 . S
Zn50 O57 1.938 . S
Zn50 O58 1.906 . S
Zn50 O68 1.953 . S
Zn51 O48 1.945 . S
Zn51 O53 1.932 . S
Zn51 O60 1.977 . S
Zn51 O61 1.910 . S
O52 Zn49 1.933 . S
O52 C63 1.226 . S
O53 Zn51 1.932 . S
O53 C63 1.307 . S
O54 Zn47 1.919 . S
O54 C65 1.253 . S
O55 Zn49 1.941 . S
O55 C65 1.283 . S
O56 Zn49 1.965 . S
O56 C64 1.303 . S
O57 Zn50 1.938 . S
O57 C64 1.247 . S
O58 Zn50 1.906 . S
O58 C66 1.304 . S
O59 Zn47 1.924 . S
O59 C67 1.311 . S
O60 Zn51 1.977 . S
O60 C66 1.272 . S
O61 Zn51 1.910 . S
O61 C67 1.231 . S
C62 O46 1.225 . S
C62 O68 1.298 . S
C63 O52 1.226 . S
C63 O53 1.307 . S
C64 O56 1.303 . S
C64 O57 1.247 . S
C65 O54 1.253 . S
C65 O55 1.283 . S
C66 O58 1.304 . S
C66 O60 1.272 . S
C67 O59 1.311 . S
C67 O61 1.231 . S
O68 Zn50 1.953 . S
O68 C62 1.298 . S
O69 Zn70 1.953 . S
O69 C85 1.225 . S
Zn70 O69 1.953 . S
Zn70 O71 1.937 1_554 S
Zn70 O77 1.919 . S
Zn70 O82 1.924 . S
O71 Zn70 1.937 1_556 S
O71 Zn72 1.917 1_556 S
O71 Zn73 1.961 . S
O71 Zn74 1.951 . S
Zn72 O71 1.917 1_554 S
Zn72 O75 1.933 . S
Zn72 O78 1.941 . S
Zn72 O79 1.965 . S
Zn73 O71 1.961 . S
Zn73 O80 1.938 . S
Zn73 O81 1.906 . S
Zn73 O91 1.953 . S
Zn74 O71 1.951 . S
Zn74 O76 1.932 . S
Zn74 O83 1.977 . S
Zn74 O84 1.910 . S
O75 Zn72 1.933 . S
O75 C86 1.226 1_554 S
O76 Zn74 1.932 . S
O76 C86 1.307 . S
O77 Zn70 1.919 . S
O77 C88 1.253 . S
O78 Zn72 1.941 . S
O78 C88 1.283 . S
O79 Zn72 1.965 . S
O79 C87 1.303 1_554 S
O80 Zn73 1.938 . S
O80 C87 1.247 . S
O81 Zn73 1.906 . S
O81 C89 1.304 . S
O82 Zn70 1.924 . S
O82 C90 1.311 . S
O83 Zn74 1.977 . S
O83 C89 1.272 . S
O84 Zn74 1.910 . S
O84 C90 1.231 1_556 S
C85 O69 1.225 . S
C85 O91 1.298 1_554 S
C86 O75 1.226 1_556 S
C86 O76 1.307 . S
C87 O79 1.303 1_556 S
C87 O80 1.247 . S
C88 O77 1.253 . S
C88 O78 1.283 . S
C89 O81 1.304 . S
C89 O83 1.272 . S
C90 O82 1.311 . S
C90 O84 1.231 1_554 S
O91 Zn73 1.953 . S
O91 C85 1.298 1_556 S
O92 Zn93 1.953 . S
O92 C108 1.225 . S
Zn93 O92 1.953 . S
Zn93 O94 1.949 . S
Zn93 O100 1.919 . S
Zn93 O105 1.924 . S
O94 Zn93 1.949 . S
O94 Zn95 1.923 . S
O94 Zn96 1.950 . S
O94 Zn97 1.945 . S
Zn95 O94 1.923 . S
Zn95 O98 1.933 . S
Zn95 O101 1.941 . S
Zn95 O102 1.965 . S
Zn96 O94 1.950 . S
Zn96 O103 1.938 . S
Zn96 O104 1.906 . S
Zn96 O114 1.953 . S
Zn97 O94 1.945 . S
Zn97 O99 1.932 . S
Zn97 O106 1.977 . S
Zn97 O107 1.910 . S
O98 Zn95 1.933 . S
O98 C109 1.226 . S
O99 Zn97 1.932 . S
O99 C109 1.307 . S
O100 Zn93 1.919 . S
O100 C111 1.253 . S
O101 Zn95 1.941 . S
O101 C111 1.283 . S
O102 Zn95 1.965 . S
O102 C110 1.303 . S
O103 Zn96 1.938 . S
O103 C110 1.247 . S
O104 Zn96 1.906 . S
O104 C112 1.304 . S
O105 Zn93 1.924 . S
O105 C113 1.311 . S
O106 Zn97 1.977 . S
O106 C112 1.272 . S
O107 Zn97 1.910 . S
O107 C113 1.231 . S
C108 O92 1.225 . S
C108 O114 1.298 . S
C109 O98 1.226 . S
C109 O99 1.307 . S
C110 O102 1.303 . S
C110 O103 1.247 . S
C111 O100 1.253 . S
C111 O101 1.283 . S
C112 O104 1.304 . S
C112 O106 1.272 . S
C113 O105 1.311 . S
C113 O107 1.231 . S
O114 Zn96 1.953 . S
O114 C108 1.298 . S
O115 Zn116 1.953 . S
O115 C131 1.225 . S
Zn116 O115 1.953 . S
Zn116 O117 1.949 . S
Zn116 O123 1.919 . S
Zn116 O128 1.924 . S
O117 Zn116 1.949 . S
O117 Zn118 1.923 . S
O117 Zn119 1.950 . S
O117 Zn120 1.945 . S
Zn118 O117 1.923 . S
Zn118 O121 1.933 . S
Zn118 O124 1.941 . S
Zn118 O125 1.965 . S
Zn119 O117 1.950 . S
Zn119 O126 1.938 . S
Zn119 O127 1.906 . S
Zn119 O137 1.953 . S
Zn120 O117 1.945 . S
Zn120 O122 1.932 . S
Zn120 O129 1.977 . S
Zn120 O130 1.910 . S
O121 Zn118 1.933 . S
O121 C132 1.226 . S
O122 Zn120 1.932 . S
O122 C132 1.307 . S
O123 Zn116 1.919 . S
O123 C134 1.253 . S
O124 Zn118 1.941 . S
O124 C134 1.283 . S
O125 Zn118 1.965 . S
O125 C133 1.303 . S
O126 Zn119 1.938 . S
O126 C133 1.247 . S
O127 Zn119 1.906 . S
O127 C135 1.304 . S
O128 Zn116 1.924 . S
O128 C136 1.311 . S
O129 Zn120 1.977 . S
O129 C135 1.272 . S
O130 Zn120 1.910 . S
O130 C136 1.231 . S
C131 O115 1.225 . S
C131 O137 1.298 . S
C132 O121 1.226 . S
C132 O122 1.307 . S
C133 O125 1.303 . S
C133 O126 1.247 . S
C134 O123 1.253 . S
C134 O124 1.283 . S
C135 O127 1.304 . S
C135 O129 1.272 . S
C136 O128 1.311 . S
C136 O130 1.231 . S
O137 Zn119 1.953 . S
O137 C131 1.298 . S
O138 Zn139 1.953 . S
O138 C154 1.225 . S
Zn139 O138 1.953 . S
Zn139 O140 1.949 . S
Zn139 O146 1.919 . S
Zn139 O151 1.924 . S
O140 Zn139 1.949 . S
O140 Zn141 1.923 . S
O140 Zn142 1.950 . S
O140 Zn143 1.945 . S
Zn141 O140 1.923 . S
Zn141 O144 1.933 . S
Zn141 O147 1.941 . S
Zn141 O148 1.965 . S
Zn142 O140 1.950 . S
Zn142 O149 1.938 . S
Zn142 O150 1.906 . S
Zn142 O160 1.953 . S
Zn143 O140 1.945 . S
Zn143 O145 1.932 . S
Zn143 O152 1.977 . S
Zn143 O153 1.910 . S
O144 Zn141 1.933 . S
O144 C155 1.226 . S
O145 Zn143 1.932 . S
O145 C155 1.307 . S
O146 Zn139 1.919 . S
O146 C157 1.253 . S
O147 Zn141 1.941 . S
O147 C157 1.283 . S
O148 Zn141 1.965 . S
O148 C156 1.303 . S
O149 Zn142 1.938 . S
O149 C156 1.247 . S
O150 Zn142 1.906 . S
O150 C158 1.304 . S
O151 Zn139 1.924 . S
O151 C159 1.311 . S
O152 Zn143 1.977 . S
O152 C158 1.272 . S
O153 Zn143 1.910 . S
O153 C159 1.231 . S
C154 O138 1.225 . S
C154 O160 1.298 . S
C155 O144 1.226 . S
C155 O145 1.307 . S
C156 O148 1.303 . S
C156 O149 1.247 . S
C157 O146 1.253 . S
C157 O147 1.283 . S
C158 O150 1.304 . S
C158 O152 1.272 . S
C159 O151 1.311 . S
C159 O153 1.231 . S
O160 Zn142 1.953 . S
O160 C154 1.298 . S
O161 Zn162 1.953 . S
O161 C177 1.225 . S
Zn162 O161 1.953 . S
Zn162 O163 1.937 1_556 S
Zn162 O169 1.919 . S
Zn162 O174 1.924 . S
O163 Zn162 1.937 1_554 S
O163 Zn164 1.917 1_554 S
O163 Zn165 1.961 . S
O163 Zn166 1.951 . S
Zn164 O163 1.917 1_556 S
Zn164 O167 1.933 . S
Zn164 O170 1.941 . S
Zn164 O171 1.965 . S
Zn165 O163 1.961 . S
Zn165 O172 1.938 . S
Zn165 O173 1.906 . S
Zn165 O183 1.953 . S
Zn166 O163 1.951 . S
Zn166 O168 1.932 . S
Zn166 O175 1.977 . S
Zn166 O176 1.910 . S
O167 Zn164 1.933 . S
O167 C178 1.226 1_556 S
O168 Zn166 1.932 . S
O168 C178 1.307 . S
O169 Zn162 1.919 . S
O169 C180 1.253 . S
O170 Zn164 1.941 . S
O170 C180 1.283 . S
O171 Zn164 1.965 . S
O171 C179 1.303 1_556 S
O172 Zn165 1.938 . S
O172 C179 1.247 . S
O173 Zn165 1.906 . S
O173 C181 1.304 . S
O174 Zn162 1.924 . S
O174 C182 1.311 . S
O175 Zn166 1.977 . S
O175 C181 1.272 . S
O176 Zn166 1.910 . S
O176 C182 1.231 1_554 S
C177 O161 1.225 . S
C177 O183 1.298 1_556 S
C178 O167 1.226 1_554 S
C178 O168 1.307 . S
C179 O171 1.303 1_554 S
C179 O172 1.247 . S
C180 O169 1.253 . S
C180 O170 1.283 . S
C181 O173 1.304 . S
C181 O175 1.272 . S
C182 O174 1.311 . S
C182 O176 1.231 1_556 S
O183 Zn165 1.953 . S
O183 C177 1.298 1_554 S
O184 Zn185 1.953 . S
O184 C200 1.225 . S
Zn185 O184 1.953 . S
Zn185 O186 1.949 . S
Zn185 O192 1.919 . S
Zn185 O197 1.924 . S
O186 Zn185 1.949 . S
O186 Zn187 1.923 1_545 S
O186 Zn188 1.950 . S
O186 Zn189 1.945 . S
Zn187 O186 1.923 1_565 S
Zn187 O190 1.933 . S
Zn187 O193 1.941 . S
Zn187 O194 1.965 . S
Zn188 O186 1.950 . S
Zn188 O195 1.938 1_545 S
Zn188 O196 1.906 . S
Zn188 O206 1.953 . S
Zn189 O186 1.945 . S
Zn189 O191 1.932 1_545 S
Zn189 O198 1.977 . S
Zn189 O199 1.910 . S
O190 Zn187 1.933 . S
O190 C201 1.226 . S
O191 Zn189 1.932 1_565 S
O191 C201 1.307 . S
O192 Zn185 1.919 . S
O192 C203 1.253 . S
O193 Zn187 1.941 . S
O193 C203 1.283 1_565 S
O194 Zn187 1.965 . S
O194 C202 1.303 . S
O195 Zn188 1.938 1_565 S
O195 C202 1.247 . S
O196 Zn188 1.906 . S
O196 C204 1.304 . S
O197 Zn185 1.924 . S
O197 C205 1.311 . S
O198 Zn189 1.977 . S
O198 C204 1.272 . S
O199 Zn189 1.910 . S
O199 C205 1.231 . S
C200 O184 1.225 . S
C200 O206 1.298 . S
C201 O190 1.226 . S
C201 O191 1.307 . S
C202 O194 1.303 . S
C202 O195 1.247 . S
C203 O192 1.253 . S
C203 O193 1.283 1_545 S
C204 O196 1.304 . S
C204 O198 1.272 . S
C205 O197 1.311 . S
C205 O199 1.231 . S
O206 Zn188 1.953 . S
O206 C200 1.298 . S
O207 Zn208 1.953 . S
O207 C223 1.225 . S
Zn208 O207 1.953 . S
Zn208 O209 1.937 1_554 S
Zn208 O215 1.919 . S
Zn208 O220 1.924 . S
O209 Zn208 1.937 1_556 S
O209 Zn210 1.917 1_556 S
O209 Zn211 1.961 . S
O209 Zn212 1.951 . S
Zn210 O209 1.917 1_554 S
Zn210 O213 1.933 . S
Zn210 O216 1.941 . S
Zn210 O217 1.965 . S
Zn211 O209 1.961 . S
Zn211 O218 1.938 . S
Zn211 O219 1.906 . S
Zn211 O229 1.953 . S
Zn212 O209 1.951 . S
Zn212 O214 1.932 1_565 S
Zn212 O221 1.977 . S
Zn212 O222 1.910 1_565 S
O213 Zn210 1.933 . S
O213 C224 1.226 1_564 S
O214 Zn212 1.932 1_545 S
O214 C224 1.307 . S
O215 Zn208 1.919 . S
O215 C226 1.253 . S
O216 Zn210 1.941 . S
O216 C226 1.283 . S
O217 Zn210 1.965 . S
O217 C225 1.303 1_554 S
O218 Zn211 1.938 . S
O218 C225 1.247 . S
O219 Zn211 1.906 . S
O219 C227 1.304 . S
O220 Zn208 1.924 . S
O220 C228 1.311 . S
O221 Zn212 1.977 . S
O221 C227 1.272 . S
O222 Zn212 1.910 1_545 S
O222 C228 1.231 1_546 S
C223 O207 1.225 . S
C223 O229 1.298 1_554 S
C224 O213 1.226 1_546 S
C224 O214 1.307 . S
C225 O217 1.303 1_556 S
C225 O218 1.247 . S
C226 O215 1.253 . S
C226 O216 1.283 . S
C227 O219 1.304 . S
C227 O221 1.272 . S
C228 O220 1.311 . S
C228 O222 1.231 1_564 S
O229 Zn211 1.953 . S
O229 C223 1.298 1_556 S
O230 Zn231 1.953 . S
O230 C246 1.225 . S
Zn231 O230 1.953 . S
Zn231 O232 1.949 . S
Zn231 O238 1.919 . S
Zn231 O243 1.924 . S
O232 Zn231 1.949 . S
O232 Zn233 1.923 1_565 S
O232 Zn234 1.950 . S
O232 Zn235 1.945 . S
Zn233 O232 1.923 1_545 S
Zn233 O236 1.933 . S
Zn233 O239 1.941 . S
Zn233 O240 1.965 . S
Zn234 O232 1.950 . S
Zn234 O241 1.938 1_565 S
Zn234 O242 1.906 . S
Zn234 O252 1.953 . S
Zn235 O232 1.945 . S
Zn235 O237 1.932 1_565 S
Zn235 O244 1.977 . S
Zn235 O245 1.910 . S
O236 Zn233 1.933 . S
O236 C247 1.226 . S
O237 Zn235 1.932 1_545 S
O237 C247 1.307 . S
O238 Zn231 1.919 . S
O238 C249 1.253 . S
O239 Zn233 1.941 . S
O239 C249 1.283 1_545 S
O240 Zn233 1.965 . S
O240 C248 1.303 . S
O241 Zn234 1.938 1_545 S
O241 C248 1.247 . S
O242 Zn234 1.906 . S
O242 C250 1.304 . S
O243 Zn231 1.924 . S
O243 C251 1.311 . S
O244 Zn235 1.977 . S
O244 C250 1.272 . S
O245 Zn235 1.910 . S
O245 C251 1.231 . S
C246 O230 1.225 . S
C246 O252 1.298 . S
C247 O236 1.226 . S
C247 O237 1.307 . S
C248 O240 1.303 . S
C248 O241 1.247 . S
C249 O238 1.253 . S
C249 O239 1.283 1_565 S
C250 O242 1.304 . S
C250 O244 1.272 . S
C251 O243 1.311 . S
C251 O245 1.231 . S
O252 Zn234 1.953 . S
O252 C246 1.298 . S
O253 Zn254 1.953 . S
O253 C269 1.225 . S
Zn254 O253 1.953 . S
Zn254 O255 1.949 . S
Zn254 O261 1.919 . S
Zn254 O266 1.924 . S
O255 Zn254 1.949 . S
O255 Zn256 1.923 . S
O255 Zn257 1.950 . S
O255 Zn258 1.945 . S
Zn256 O255 1.923 . S
Zn256 O259 1.933 . S
Zn256 O262 1.941 . S
Zn256 O263 1.965 . S
Zn257 O255 1.950 . S
Zn257 O264 1.938 . S
Zn257 O265 1.906 . S
Zn257 O275 1.953 . S
Zn258 O255 1.945 . S
Zn258 O260 1.932 1_545 S
Zn258 O267 1.977 . S
Zn258 O268 1.910 1_545 S
O259 Zn256 1.933 . S
O259 C270 1.226 1_545 S
O260 Zn258 1.932 1_565 S
O260 C270 1.307 . S
O261 Zn254 1.919 . S
O261 C272 1.253 . S
O262 Zn256 1.941 . S
O262 C272 1.283 . S
O263 Zn256 1.965 . S
O263 C271 1.303 . S
O264 Zn257 1.938 . S
O264 C271 1.247 . S
O265 Zn257 1.906 . S
O265 C273 1.304 . S
O266 Zn254 1.924 . S
O266 C274 1.311 . S
O267 Zn258 1.977 . S
O267 C273 1.272 . S
O268 Zn258 1.910 1_565 S
O268 C274 1.231 1_565 S
C269 O253 1.225 . S
C269 O275 1.298 . S
C270 O259 1.226 1_565 S
C270 O260 1.307 . S
C271 O263 1.303 . S
C271 O264 1.247 . S
C272 O261 1.253 . S
C272 O262 1.283 . S
C273 O265 1.304 . S
C273 O267 1.272 . S
C274 O266 1.311 . S
C274 O268 1.231 1_545 S
O275 Zn257 1.953 . S
O275 C269 1.298 . S
O276 Zn277 1.953 . S
O276 C292 1.225 . S
Zn277 O276 1.953 . S
Zn277 O278 1.949 . S
Zn277 O284 1.919 . S
Zn277 O289 1.924 . S
O278 Zn277 1.949 . S
O278 Zn279 1.923 1_565 S
O278 Zn280 1.950 . S
O278 Zn281 1.945 . S
Zn279 O278 1.923 1_545 S
Zn279 O282 1.933 . S
Zn279 O285 1.941 . S
Zn279 O286 1.965 . S
Zn280 O278 1.950 . S
Zn280 O287 1.938 1_565 S
Zn280 O288 1.906 . S
Zn280 O298 1.953 . S
Zn281 O278 1.945 . S
Zn281 O283 1.932 1_565 S
Zn281 O290 1.977 . S
Zn281 O291 1.910 . S
O282 Zn279 1.933 . S
O282 C293 1.226 . S
O283 Zn281 1.932 1_545 S
O283 C293 1.307 . S
O284 Zn277 1.919 . S
O284 C295 1.253 . S
O285 Zn279 1.941 . S
O285 C295 1.283 1_545 S
O286 Zn279 1.965 . S
O286 C294 1.303 . S
O287 Zn280 1.938 1_545 S
O287 C294 1.247 . S
O288 Zn280 1.906 . S
O288 C296 1.304 . S
O289 Zn277 1.924 . S
O289 C297 1.311 . S
O290 Zn281 1.977 . S
O290 C296 1.272 . S
O291 Zn281 1.910 . S
O291 C297 1.231 . S
C292 O276 1.225 . S
C292 O298 1.298 . S
C293 O282 1.226 . S
C293 O283 1.307 . S
C294 O286 1.303 . S
C294 O287 1.247 . S
C295 O284 1.253 . S
C295 O285 1.283 1_565 S
C296 O288 1.304 . S
C296 O290 1.272 . S
C297 O289 1.311 . S
C297 O291 1.231 . S
O298 Zn280 1.953 . S
O298 C292 1.298 . S
O299 Zn300 1.953 . S
O299 C315 1.225 . S
Zn300 O299 1.953 . S
Zn300 O301 1.937 1_556 S
Zn300 O307 1.919 . S
Zn300 O312 1.924 . S
O301 Zn300 1.937 1_554 S
O301 Zn302 1.917 1_554 S
O301 Zn303 1.961 . S
O301 Zn304 1.951 . S
Zn302 O301 1.917 1_556 S
Zn302 O305 1.933 . S
Zn302 O308 1.941 . S
Zn302 O309 1.965 . S
Zn303 O301 1.961 . S
Zn303 O310 1.938 . S
Zn303 O311 1.906 . S
Zn303 O321 1.953 . S
Zn304 O301 1.951 . S
Zn304 O306 1.932 1_545 S
Zn304 O313 1.977 . S
Zn304 O314 1.910 1_545 S
O305 Zn302 1.933 . S
O305 C316 1.226 1_546 S
O306 Zn304 1.932 1_565 S
O306 C316 1.307 . S
O307 Zn300 1.919 . S
O307 C318 1.253 . S
O308 Zn302 1.941 . S
O308 C318 1.283 . S
O309 Zn302 1.965 . S
O309 C317 1.303 1_556 S
O310 Zn303 1.938 . S
O310 C317 1.247 . S
O311 Zn303 1.906 . S
O311 C319 1.304 . S
O312 Zn300 1.924 . S
O312 C320 1.311 . S
O313 Zn304 1.977 . S
O313 C319 1.272 . S
O314 Zn304 1.910 1_565 S
O314 C320 1.231 1_564 S
C315 O299 1.225 . S
C315 O321 1.298 1_556 S
C316 O305 1.226 1_564 S
C316 O306 1.307 . S
C317 O309 1.303 1_554 S
C317 O310 1.247 . S
C318 O307 1.253 . S
C318 O308 1.283 . S
C319 O311 1.304 . S
C319 O313 1.272 . S
C320 O312 1.311 . S
C320 O314 1.231 1_546 S
O321 Zn303 1.953 . S
O321 C315 1.298 1_554 S
O322 Zn323 1.953 . S
O322 C338 1.225 . S
Zn323 O322 1.953 . S
Zn323 O324 1.949 . S
Zn323 O330 1.919 . S
Zn323 O335 1.924 . S
O324 Zn323 1.949 . S
O324 Zn325 1.923 1_545 S
O324 Zn326 1.950 . S
O324 Zn327 1.945 . S
Zn325 O324 1.923 1_565 S
Zn325 O328 1.933 . S
Zn325 O331 1.941 . S
Zn325 O332 1.965 . S
Zn326 O324 1.950 . S
Zn326 O333 1.938 1_545 S
Zn326 O334 1.906 . S
Zn326 O344 1.953 . S
Zn327 O324 1.945 . S
Zn327 O329 1.932 1_545 S
Zn327 O336 1.977 . S
Zn327 O337 1.910 . S
O328 Zn325 1.933 . S
O328 C339 1.226 . S
O329 Zn327 1.932 1_565 S
O329 C339 1.307 . S
O330 Zn323 1.919 . S
O330 C341 1.253 . S
O331 Zn325 1.941 . S
O331 C341 1.283 1_565 S
O332 Zn325 1.965 . S
O332 C340 1.303 . S
O333 Zn326 1.938 1_565 S
O333 C340 1.247 . S
O334 Zn326 1.906 . S
O334 C342 1.304 . S
O335 Zn323 1.924 . S
O335 C343 1.311 . S
O336 Zn327 1.977 . S
O336 C342 1.272 . S
O337 Zn327 1.910 . S
O337 C343 1.231 . S
C338 O322 1.225 . S
C338 O344 1.298 . S
C339 O328 1.226 . S
C339 O329 1.307 . S
C340 O332 1.303 . S
C340 O333 1.247 . S
C341 O330 1.253 . S
C341 O331 1.283 1_545 S
C342 O334 1.304 . S
C342 O336 1.272 . S
C343 O335 1.311 . S
C343 O337 1.231 . S
O344 Zn326 1.953 . S
O344 C338 1.298 . S
O345 Zn346 1.953 . S
O345 C361 1.225 . S
Zn346 O345 1.953 . S
Zn346 O347 1.949 . S
Zn346 O353 1.919 . S
Zn346 O358 1.924 . S
O347 Zn346 1.949 . S
O347 Zn348 1.923 . S
O347 Zn349 1.950 . S
O347 Zn350 1.945 . S
Zn348 O347 1.923 . S
Zn348 O351 1.933 . S
Zn348 O354 1.941 . S
Zn348 O355 1.965 . S
Zn349 O347 1.950 . S
Zn349 O356 1.938 . S
Zn349 O357 1.906 . S
Zn349 O367 1.953 . S
Zn350 O347 1.945 . S
Zn350 O352 1.932 1_565 S
Zn350 O359 1.977 . S
Zn350 O360 1.910 1_565 S
O351 Zn348 1.933 . S
O351 C362 1.226 1_565 S
O352 Zn350 1.932 1_545 S
O352 C362 1.307 . S
O353 Zn346 1.919 . S
O353 C364 1.253 . S
O354 Zn348 1.941 . S
O354 C364 1.283 . S
O355 Zn348 1.965 . S
O355 C363 1.303 . S
O356 Zn349 1.938 . S
O356 C363 1.247 . S
O357 Zn349 1.906 . S
O357 C365 1.304 . S
O358 Zn346 1.924 . S
O358 C366 1.311 . S
O359 Zn350 1.977 . S
O359 C365 1.272 . S
O360 Zn350 1.910 1_545 S
O360 C366 1.231 1_545 S
C361 O345 1.225 . S
C361 O367 1.298 . S
C362 O351 1.226 1_545 S
C362 O352 1.307 . S
C363 O355 1.303 . S
C363 O356 1.247 . S
C364 O353 1.253 . S
C364 O354 1.283 . S
C365 O357 1.304 . S
C365 O359 1.272 . S
C366 O358 1.311 . S
C366 O360 1.231 1_565 S
O367 Zn349 1.953 . S
O367 C361 1.298 . S
H368 C374 0.930 . S
H369 C377 0.930 . S
H370 C378 0.930 . S
H371 C379 0.930 . S
H372 C382 0.930 . S
H373 C383 0.930 . S
C374 H368 0.930 . S
C374 C375 1.355 . S
C374 C376 1.415 . S
C375 C374 1.355 . S
C375 C377 1.419 . S
C376 C374 1.415 . S
C376 C381 1.425 . S
C376 C383 1.409 . S
C377 H369 0.930 . S
C377 C375 1.419 . S
C377 C378 1.362 . S
C378 H370 0.930 . S
C378 C377 1.362 . S
C378 C381 1.409 . S
C379 H371 0.930 . S
C379 C380 1.355 . S
C379 C381 1.415 . S
C380 C379 1.355 . S
C380 C382 1.419 . S
C381 C376 1.425 . S
C381 C378 1.409 . S
C381 C379 1.415 . S
C382 H372 0.930 . S
C382 C380 1.419 . S
C382 C383 1.362 . S
C383 H373 0.930 . S
C383 C376 1.409 . S
C383 C382 1.362 . S
H384 C390 0.930 . S
H385 C393 0.930 . S
H386 C394 0.930 . S
H387 C395 0.930 . S
H388 C398 0.930 . S
H389 C399 0.930 . S
C390 H384 0.930 . S
C390 C391 1.355 . S
C390 C392 1.415 . S
C391 C390 1.355 . S
C391 C393 1.419 . S
C392 C390 1.415 . S
C392 C397 1.425 . S
C392 C399 1.409 . S
C393 H385 0.930 . S
C393 C391 1.419 . S
C393 C394 1.362 . S
C394 H386 0.930 . S
C394 C393 1.362 . S
C394 C397 1.409 . S
C395 H387 0.930 . S
C395 C396 1.355 . S
C395 C397 1.415 . S
C396 C395 1.355 . S
C396 C398 1.419 . S
C397 C392 1.425 . S
C397 C394 1.409 . S
C397 C395 1.415 . S
C398 H388 0.930 . S
C398 C396 1.419 . S
C398 C399 1.362 . S
C399 H389 0.930 . S
C399 C392 1.409 . S
C399 C398 1.362 . S
H400 C406 0.930 . S
H401 C409 0.930 . S
H402 C410 0.930 . S
H403 C411 0.930 . S
H404 C414 0.930 1_655 S
H405 C415 0.930 . S
C406 H400 0.930 . S
C406 C407 1.355 . S
C406 C408 1.415 . S
C407 C406 1.355 . S
C407 C409 1.419 . S
C408 C406 1.415 . S
C408 C413 1.425 . S
C408 C415 1.409 . S
C409 H401 0.930 . S
C409 C407 1.419 . S
C409 C410 1.362 . S
C410 H402 0.930 . S
C410 C409 1.362 . S
C410 C413 1.409 . S
C411 H403 0.930 . S
C411 C412 1.355 1_455 S
C411 C413 1.415 . S
C412 C411 1.355 1_655 S
C412 C414 1.419 1_655 S
C413 C408 1.425 . S
C413 C410 1.409 . S
C413 C411 1.415 . S
C414 H404 0.930 1_455 S
C414 C412 1.419 1_455 S
C414 C415 1.362 . S
C415 H405 0.930 . S
C415 C408 1.409 . S
C415 C414 1.362 . S
H416 C422 0.930 . S
H417 C425 0.930 . S
H418 C426 0.929 1_556 S
H419 C427 0.929 . S
H420 C430 0.930 1_556 S
H421 C431 0.930 . S
C422 H416 0.930 . S
C422 C423 1.355 . S
C422 C424 1.415 . S
C423 C422 1.355 . S
C423 C425 1.419 . S
C424 C422 1.415 . S
C424 C429 1.426 . S
C424 C431 1.409 . S
C425 H417 0.930 . S
C425 C423 1.419 . S
C425 C426 1.364 . S
C426 H418 0.929 1_554 S
C426 C425 1.364 . S
C426 C429 1.409 . S
C427 H419 0.929 . S
C427 C428 1.354 1_554 S
C427 C429 1.415 . S
C428 C427 1.354 1_556 S
C428 C430 1.419 1_556 S
C429 C424 1.426 . S
C429 C426 1.409 . S
C429 C427 1.415 . S
C430 H420 0.930 1_554 S
C430 C428 1.419 1_554 S
C430 C431 1.362 . S
C431 H421 0.930 . S
C431 C424 1.409 . S
C431 C430 1.362 . S
H432 C438 0.930 . S
H433 C441 0.930 . S
H434 C442 0.930 . S
H435 C443 0.930 . S
H436 C446 0.930 . S
H437 C447 0.930 . S
C438 H432 0.930 . S
C438 C439 1.355 . S
C438 C440 1.415 . S
C439 C438 1.355 . S
C439 C441 1.419 . S
C440 C438 1.415 . S
C440 C445 1.425 . S
C440 C447 1.409 . S
C441 H433 0.930 . S
C441 C439 1.419 . S
C441 C442 1.362 . S
C442 H434 0.930 . S
C442 C441 1.362 . S
C442 C445 1.409 . S
C443 H435 0.930 . S
C443 C444 1.355 . S
C443 C445 1.415 . S
C444 C443 1.355 . S
C444 C446 1.419 . S
C445 C440 1.425 . S
C445 C442 1.409 . S
C445 C443 1.415 . S
C446 H436 0.930 . S
C446 C444 1.419 . S
C446 C447 1.362 . S
C447 H437 0.930 . S
C447 C440 1.409 . S
C447 C446 1.362 . S
H448 C454 0.930 . S
H449 C457 0.930 . S
H450 C458 0.930 . S
H451 C459 0.930 . S
H452 C462 0.930 . S
H453 C463 0.930 . S
C454 H448 0.930 . S
C454 C455 1.355 . S
C454 C456 1.415 . S
C455 C454 1.355 . S
C455 C457 1.419 . S
C456 C454 1.415 . S
C456 C461 1.425 . S
C456 C463 1.409 . S
C457 H449 0.930 . S
C457 C455 1.419 . S
C457 C458 1.362 . S
C458 H450 0.930 . S
C458 C457 1.362 . S
C458 C461 1.409 . S
C459 H451 0.930 . S
C459 C460 1.355 . S
C459 C461 1.415 . S
C460 C459 1.355 . S
C460 C462 1.419 . S
C461 C456 1.425 . S
C461 C458 1.409 . S
C461 C459 1.415 . S
C462 H452 0.930 . S
C462 C460 1.419 . S
C462 C463 1.362 . S
C463 H453 0.930 . S
C463 C456 1.409 . S
C463 C462 1.362 . S
H464 C470 0.930 . S
H465 C473 0.930 . S
H466 C474 0.930 . S
H467 C475 0.930 . S
H468 C478 0.930 1_455 S
H469 C479 0.930 . S
C470 H464 0.930 . S
C470 C471 1.355 . S
C470 C472 1.415 . S
C471 C470 1.355 . S
C471 C473 1.419 . S
C472 C470 1.415 . S
C472 C477 1.425 . S
C472 C479 1.409 . S
C473 H465 0.930 . S
C473 C471 1.419 . S
C473 C474 1.362 . S
C474 H466 0.930 . S
C474 C473 1.362 . S
C474 C477 1.409 . S
C475 H467 0.930 . S
C475 C476 1.355 1_655 S
C475 C477 1.415 . S
C476 C475 1.355 1_455 S
C476 C478 1.419 1_455 S
C477 C472 1.425 . S
C477 C474 1.409 . S
C477 C475 1.415 . S
C478 H468 0.930 1_655 S
C478 C476 1.419 1_655 S
C478 C479 1.362 . S
C479 H469 0.930 . S
C479 C472 1.409 . S
C479 C478 1.362 . S
H480 C486 0.930 . S
H481 C489 0.930 . S
H482 C490 0.930 . S
H483 C491 0.930 . S
H484 C494 0.930 . S
H485 C495 0.930 . S
C486 H480 0.930 . S
C486 C487 1.355 1_556 S
C486 C488 1.415 . S
C487 C486 1.355 1_554 S
C487 C489 1.419 . S
C488 C486 1.415 . S
C488 C493 1.425 1_556 S
C488 C495 1.409 . S
C489 H481 0.930 . S
C489 C487 1.419 . S
C489 C490 1.362 . S
C490 H482 0.930 . S
C490 C489 1.362 . S
C490 C493 1.409 . S
C491 H483 0.930 . S
C491 C492 1.355 1_554 S
C491 C493 1.415 . S
C492 C491 1.355 1_556 S
C492 C494 1.419 . S
C493 C488 1.425 1_554 S
C493 C490 1.409 . S
C493 C491 1.415 . S
C494 H484 0.930 . S
C494 C492 1.419 . S
C494 C495 1.362 . S
C495 H485 0.930 . S
C495 C488 1.409 . S
C495 C494 1.362 . S
H496 C502 0.930 . S
H497 C505 0.930 . S
H498 C506 0.930 . S
H499 C507 0.930 . S
H500 C510 0.930 1_455 S
H501 C511 0.930 . S
C502 H496 0.930 . S
C502 C503 1.355 . S
C502 C504 1.415 . S
C503 C502 1.355 . S
C503 C505 1.419 . S
C504 C502 1.415 . S
C504 C509 1.425 . S
C504 C511 1.409 . S
C505 H497 0.930 . S
C505 C503 1.419 . S
C505 C506 1.362 . S
C506 H498 0.930 . S
C506 C505 1.362 . S
C506 C509 1.409 . S
C507 H499 0.930 . S
C507 C508 1.355 1_655 S
C507 C509 1.415 . S
C508 C507 1.355 1_455 S
C508 C510 1.419 1_455 S
C509 C504 1.425 . S
C509 C506 1.409 . S
C509 C507 1.415 . S
C510 H500 0.930 1_655 S
C510 C508 1.419 1_655 S
C510 C511 1.362 . S
C511 H501 0.930 . S
C511 C504 1.409 . S
C511 C510 1.362 . S
H512 C518 0.930 . S
H513 C521 0.930 . S
H514 C522 0.930 . S
H515 C523 0.930 . S
H516 C526 0.930 . S
H517 C527 0.930 . S
C518 H512 0.930 . S
C518 C519 1.355 1_556 S
C518 C520 1.415 . S
C519 C518 1.355 1_554 S
C519 C521 1.419 . S
C520 C518 1.415 . S
C520 C525 1.425 1_556 S
C520 C527 1.409 . S
C521 H513 0.930 . S
C521 C519 1.419 . S
C521 C522 1.362 . S
C522 H514 0.930 . S
C522 C521 1.362 . S
C522 C525 1.409 . S
C523 H515 0.930 . S
C523 C524 1.380 . S
C523 C525 1.415 . S
C524 C523 1.380 . S
C524 C526 1.386 1_554 S
C525 C520 1.425 1_554 S
C525 C522 1.409 . S
C525 C523 1.415 . S
C526 H516 0.930 . S
C526 C524 1.386 1_556 S
C526 C527 1.362 . S
C527 H517 0.930 . S
C527 C520 1.409 . S
C527 C526 1.362 . S
H528 C534 0.930 . S
H529 C537 0.930 . S
H530 C538 0.930 . S
H531 C539 0.930 . S
H532 C542 0.930 . S
H533 C543 0.930 . S
C534 H528 0.930 . S
C534 C535 1.355 . S
C534 C536 1.415 . S
C535 C534 1.355 . S
C535 C537 1.419 . S
C536 C534 1.415 . S
C536 C541 1.425 . S
C536 C543 1.409 . S
C537 H529 0.930 . S
C537 C535 1.419 . S
C537 C538 1.362 . S
C538 H530 0.930 . S
C538 C537 1.362 . S
C538 C541 1.409 . S
C539 H531 0.930 . S
C539 C540 1.355 . S
C539 C541 1.415 . S
C540 C539 1.355 . S
C540 C542 1.419 . S
C541 C536 1.425 . S
C541 C538 1.409 . S
C541 C539 1.415 . S
C542 H532 0.930 . S
C542 C540 1.419 . S
C542 C543 1.362 . S
C543 H533 0.930 . S
C543 C536 1.409 . S
C543 C542 1.362 . S
H544 C550 0.930 . S
H545 C553 0.930 . S
H546 C554 0.930 . S
H547 C555 0.930 . S
H548 C558 0.930 . S
H549 C559 0.930 . S
C550 H544 0.930 . S
C550 C551 1.355 . S
C550 C552 1.415 . S
C551 C550 1.355 . S
C551 C553 1.419 . S
C552 C550 1.415 . S
C552 C557 1.425 . S
C552 C559 1.409 . S
C553 H545 0.930 . S
C553 C551 1.419 . S
C553 C554 1.362 . S
C554 H546 0.930 . S
C554 C553 1.362 . S
C554 C557 1.409 . S
C555 H547 0.930 . S
C555 C556 1.355 . S
C555 C557 1.415 . S
C556 C555 1.355 . S
C556 C558 1.419 . S
C557 C552 1.425 . S
C557 C554 1.409 . S
C557 C555 1.415 . S
C558 H548 0.930 . S
C558 C556 1.419 . S
C558 C559 1.362 . S
C559 H549 0.930 . S
C559 C552 1.409 . S
C559 C558 1.362 . S
H560 C566 0.930 . S
H561 C569 0.930 1_655 S
H562 C570 0.930 . S
H563 C571 0.930 . S
H564 C574 0.930 . S
H565 C575 0.930 . S
C566 H560 0.930 . S
C566 C567 1.355 1_455 S
C566 C568 1.415 . S
C567 C566 1.355 1_655 S
C567 C569 1.419 1_655 S
C568 C566 1.415 . S
C568 C573 1.425 . S
C568 C575 1.409 . S
C569 H561 0.930 1_455 S
C569 C567 1.419 1_455 S
C569 C570 1.362 . S
C570 H562 0.930 . S
C570 C569 1.362 . S
C570 C573 1.409 . S
C571 H563 0.930 . S
C571 C572 1.355 . S
C571 C573 1.415 . S
C572 C571 1.355 . S
C572 C574 1.419 . S
C573 C568 1.425 . S
C573 C570 1.409 . S
C573 C571 1.415 . S
C574 H564 0.930 . S
C574 C572 1.419 . S
C574 C575 1.362 . S
C575 H565 0.930 . S
C575 C568 1.409 . S
C575 C574 1.362 . S
H576 C582 0.930 . S
H577 C585 0.930 . S
H578 C586 0.930 . S
H579 C587 0.930 . S
H580 C590 0.930 . S
H581 C591 0.930 . S
C582 H576 0.930 . S
C582 C583 1.355 1_556 S
C582 C584 1.415 . S
C583 C582 1.355 1_554 S
C583 C585 1.419 . S
C584 C582 1.415 . S
C584 C589 1.425 1_556 S
C584 C591 1.409 . S
C585 H577 0.930 . S
C585 C583 1.419 . S
C585 C586 1.362 . S
C586 H578 0.930 . S
C586 C585 1.362 . S
C586 C589 1.409 . S
C587 H579 0.930 . S
C587 C588 1.355 1_554 S
C587 C589 1.415 . S
C588 C587 1.355 1_556 S
C588 C590 1.419 . S
C589 C584 1.425 1_554 S
C589 C586 1.409 . S
C589 C587 1.415 . S
C590 H580 0.930 . S
C590 C588 1.419 . S
C590 C591 1.362 . S
C591 H581 0.930 . S
C591 C584 1.409 . S
C591 C590 1.362 . S
H592 C598 0.930 . S
H593 C601 0.930 . S
H594 C602 0.930 . S
H595 C603 0.930 . S
H596 C606 0.930 . S
H597 C607 0.930 . S
C598 H592 0.930 . S
C598 C599 1.355 . S
C598 C600 1.415 . S
C599 C598 1.355 . S
C599 C601 1.419 . S
C600 C598 1.415 . S
C600 C605 1.425 . S
C600 C607 1.409 . S
C601 H593 0.930 . S
C601 C599 1.419 . S
C601 C602 1.362 . S
C602 H594 0.930 . S
C602 C601 1.362 . S
C602 C605 1.409 . S
C603 H595 0.930 . S
C603 C604 1.355 . S
C603 C605 1.415 . S
C604 C603 1.355 . S
C604 C606 1.419 . S
C605 C600 1.425 . S
C605 C602 1.409 . S
C605 C603 1.415 . S
C606 H596 0.930 . S
C606 C604 1.419 . S
C606 C607 1.362 . S
C607 H597 0.930 . S
C607 C600 1.409 . S
C607 C606 1.362 . S
H608 C614 0.930 . S
H609 C617 0.930 . S
H610 C618 0.930 . S
H611 C619 0.930 . S
H612 C622 0.930 . S
H613 C623 0.930 . S
C614 H608 0.930 . S
C614 C615 1.355 . S
C614 C616 1.415 . S
C615 C614 1.355 . S
C615 C617 1.419 . S
C616 C614 1.415 . S
C616 C621 1.425 . S
C616 C623 1.409 . S
C617 H609 0.930 . S
C617 C615 1.419 . S
C617 C618 1.362 . S
C618 H610 0.930 . S
C618 C617 1.362 . S
C618 C621 1.409 . S
C619 H611 0.930 . S
C619 C620 1.355 . S
C619 C621 1.415 . S
C620 C619 1.355 . S
C620 C622 1.419 . S
C621 C616 1.425 . S
C621 C618 1.409 . S
C621 C619 1.415 . S
C622 H612 0.930 . S
C622 C620 1.419 . S
C622 C623 1.362 . S
C623 H613 0.930 . S
C623 C616 1.409 . S
C623 C622 1.362 . S
H624 C630 0.930 . S
H625 C633 0.930 . S
H626 C634 0.930 . S
H627 C635 0.930 . S
H628 C638 0.930 . S
H629 C639 0.930 . S
C630 H624 0.930 . S
C630 C631 1.355 . S
C630 C632 1.415 . S
C631 C630 1.355 . S
C631 C633 1.419 . S
C632 C630 1.415 . S
C632 C637 1.425 . S
C632 C639 1.409 . S
C633 H625 0.930 . S
C633 C631 1.419 . S
C633 C634 1.362 . S
C634 H626 0.930 . S
C634 C633 1.362 . S
C634 C637 1.409 . S
C635 H627 0.930 . S
C635 C636 1.355 . S
C635 C637 1.415 . S
C636 C635 1.355 . S
C636 C638 1.419 . S
C637 C632 1.425 . S
C637 C634 1.409 . S
C637 C635 1.415 . S
C638 H628 0.930 . S
C638 C636 1.419 . S
C638 C639 1.362 . S
C639 H629 0.930 . S
C639 C632 1.409 . S
C639 C638 1.362 . S
H640 C646 0.930 . S
H641 C649 0.930 . S
H642 C650 0.930 . S
H643 C651 0.930 . S
H644 C654 0.930 . S
H645 C655 0.930 . S
C646 H640 0.930 . S
C646 C647 1.355 . S
C646 C648 1.415 . S
C647 C646 1.355 . S
C647 C649 1.419 . S
C648 C646 1.415 . S
C648 C653 1.425 1_455 S
C648 C655 1.409 1_455 S
C649 H641 0.930 . S
C649 C647 1.419 . S
C649 C650 1.362 . S
C650 H642 0.930 . S
C650 C649 1.362 . S
C650 C653 1.409 1_455 S
C651 H643 0.930 . S
C651 C652 1.355 . S
C651 C653 1.415 . S
C652 C651 1.355 . S
C652 C654 1.419 . S
C653 C648 1.425 1_655 S
C653 C650 1.409 1_655 S
C653 C651 1.415 . S
C654 H644 0.930 . S
C654 C652 1.419 . S
C654 C655 1.362 . S
C655 H645 0.930 . S
C655 C648 1.409 1_655 S
C655 C654 1.362 . S
H656 C662 0.930 . S
H657 C665 0.930 . S
H658 C666 0.930 . S
H659 C667 0.930 . S
H660 C670 0.930 . S
H661 C671 0.930 . S
C662 H656 0.930 . S
C662 C663 1.355 . S
C662 C664 1.415 . S
C663 C662 1.355 . S
C663 C665 1.419 . S
C664 C662 1.415 . S
C664 C669 1.425 . S
C664 C671 1.409 . S
C665 H657 0.930 . S
C665 C663 1.419 . S
C665 C666 1.362 . S
C666 H658 0.930 . S
C666 C665 1.362 . S
C666 C669 1.409 . S
C667 H659 0.930 . S
C667 C668 1.355 . S
C667 C669 1.415 . S
C668 C667 1.355 . S
C668 C670 1.419 . S
C669 C664 1.425 . S
C669 C666 1.409 . S
C669 C667 1.415 . S
C670 H660 0.930 . S
C670 C668 1.419 . S
C670 C671 1.362 . S
C671 H661 0.930 . S
C671 C664 1.409 . S
C671 C670 1.362 . S
H672 C678 0.930 . S
H673 C681 0.930 . S
H674 C682 0.930 . S
H675 C683 0.930 . S
H676 C686 0.930 . S
H677 C687 0.930 . S
C678 H672 0.930 . S
C678 C679 1.355 1_554 S
C678 C680 1.415 . S
C679 C678 1.355 1_556 S
C679 C681 1.419 . S
C680 C678 1.415 . S
C680 C685 1.425 1_554 S
C680 C687 1.409 . S
C681 H673 0.930 . S
C681 C679 1.419 . S
C681 C682 1.362 . S
C682 H674 0.930 . S
C682 C681 1.362 . S
C682 C685 1.409 . S
C683 H675 0.930 . S
C683 C684 1.355 1_556 S
C683 C685 1.415 . S
C684 C683 1.355 1_554 S
C684 C686 1.419 . S
C685 C680 1.425 1_556 S
C685 C682 1.409 . S
C685 C683 1.415 . S
C686 H676 0.930 . S
C686 C684 1.419 . S
C686 C687 1.362 . S
C687 H677 0.930 . S
C687 C680 1.409 . S
C687 C686 1.362 . S
H688 C694 0.930 . S
H689 C697 0.930 . S
H690 C698 0.930 . S
H691 C699 0.930 . S
H692 C702 0.930 . S
H693 C703 0.930 . S
C694 H688 0.930 . S
C694 C695 1.355 . S
C694 C696 1.415 . S
C695 C694 1.355 . S
C695 C697 1.419 . S
C696 C694 1.415 . S
C696 C701 1.425 . S
C696 C703 1.409 . S
C697 H689 0.930 . S
C697 C695 1.419 . S
C697 C698 1.362 . S
C698 H690 0.930 . S
C698 C697 1.362 . S
C698 C701 1.409 . S
C699 H691 0.930 . S
C699 C700 1.355 . S
C699 C701 1.415 . S
C700 C699 1.355 . S
C700 C702 1.419 . S
C701 C696 1.425 . S
C701 C698 1.409 . S
C701 C699 1.415 . S
C702 H692 0.930 . S
C702 C700 1.419 . S
C702 C703 1.362 . S
C703 H693 0.930 . S
C703 C696 1.409 . S
C703 C702 1.362 . S
H704 C710 0.930 . S
H705 C713 0.930 . S
H706 C714 0.930 . S
H707 C715 0.930 . S
H708 C718 0.930 . S
H709 C719 0.930 . S
C710 H704 0.930 . S
C710 C711 1.355 . S
C710 C712 1.415 . S
C711 C710 1.355 . S
C711 C713 1.419 . S
C712 C710 1.415 . S
C712 C717 1.425 . S
C712 C719 1.409 . S
C713 H705 0.930 . S
C713 C711 1.419 . S
C713 C714 1.362 . S
C714 H706 0.930 . S
C714 C713 1.362 . S
C714 C717 1.409 . S
C715 H707 0.930 . S
C715 C716 1.355 . S
C715 C717 1.415 . S
C716 C715 1.355 . S
C716 C718 1.419 . S
C717 C712 1.425 . S
C717 C714 1.409 . S
C717 C715 1.415 . S
C718 H708 0.930 . S
C718 C716 1.419 . S
C718 C719 1.362 . S
C719 H709 0.930 . S
C719 C712 1.409 . S
C719 C718 1.362 . S
H720 C726 0.930 . S
H721 C729 0.930 . S
H722 C730 0.930 . S
H723 C731 0.930 . S
H724 C734 0.930 . S
H725 C735 0.930 . S
C726 H720 0.930 . S
C726 C727 1.355 . S
C726 C728 1.415 . S
C727 C726 1.355 . S
C727 C729 1.419 1_564 S
C728 C726 1.415 . S
C728 C733 1.425 1_564 S
C728 C735 1.409 . S
C729 H721 0.930 . S
C729 C727 1.419 1_546 S
C729 C730 1.362 . S
C730 H722 0.930 . S
C730 C729 1.362 . S
C730 C733 1.409 . S
C731 H723 0.930 . S
C731 C732 1.355 . S
C731 C733 1.415 . S
C732 C731 1.355 . S
C732 C734 1.419 1_546 S
C733 C728 1.425 1_546 S
C733 C730 1.409 . S
C733 C731 1.415 . S
C734 H724 0.930 . S
C734 C732 1.419 1_564 S
C734 C735 1.362 . S
C735 H725 0.930 . S
C735 C728 1.409 . S
C735 C734 1.362 . S
H736 C742 0.930 . S
H737 C745 0.930 . S
H738 C746 0.930 . S
H739 C747 0.930 . S
H740 C750 0.930 . S
H741 C751 0.930 . S
C742 H736 0.930 . S
C742 C743 1.355 1_545 S
C742 C744 1.415 . S
C743 C742 1.355 1_565 S
C743 C745 1.419 . S
C744 C742 1.415 . S
C744 C749 1.425 1_445 S
C744 C751 1.409 1_455 S
C745 H737 0.930 . S
C745 C743 1.419 . S
C745 C746 1.362 . S
C746 H738 0.930 . S
C746 C745 1.362 . S
C746 C749 1.409 1_455 S
C747 H739 0.930 . S
C747 C748 1.355 1_565 S
C747 C749 1.415 . S
C748 C747 1.355 1_545 S
C748 C750 1.419 . S
C749 C744 1.425 1_665 S
C749 C746 1.409 1_655 S
C749 C747 1.415 . S
C750 H740 0.930 . S
C750 C748 1.419 . S
C750 C751 1.362 . S
C751 H741 0.930 . S
C751 C744 1.409 1_655 S
C751 C750 1.362 . S
H752 C758 0.930 . S
H753 C761 0.930 . S
H754 C762 0.930 . S
H755 C763 0.930 . S
H756 C766 0.930 . S
H757 C767 0.930 . S
C758 H752 0.930 . S
C758 C759 1.355 . S
C758 C760 1.415 . S
C759 C758 1.355 . S
C759 C761 1.419 . S
C760 C758 1.415 . S
C760 C765 1.425 . S
C760 C767 1.409 . S
C761 H753 0.930 . S
C761 C759 1.419 . S
C761 C762 1.362 . S
C762 H754 0.930 . S
C762 C761 1.362 . S
C762 C765 1.409 . S
C763 H755 0.930 . S
C763 C764 1.355 . S
C763 C765 1.415 . S
C764 C763 1.355 . S
C764 C766 1.419 . S
C765 C760 1.425 . S
C765 C762 1.409 . S
C765 C763 1.415 . S
C766 H756 0.930 . S
C766 C764 1.419 . S
C766 C767 1.362 . S
C767 H757 0.930 . S
C767 C760 1.409 . S
C767 C766 1.362 . S
H768 C774 0.930 . S
H769 C777 0.930 . S
H770 C778 0.930 . S
H771 C779 0.930 . S
H772 C782 0.930 . S
H773 C783 0.930 . S
C774 H768 0.930 . S
C774 C775 1.355 . S
C774 C776 1.415 . S
C775 C774 1.355 . S
C775 C777 1.419 . S
C776 C774 1.415 . S
C776 C781 1.425 . S
C776 C783 1.409 . S
C777 H769 0.930 . S
C777 C775 1.419 . S
C777 C778 1.362 . S
C778 H770 0.930 . S
C778 C777 1.362 . S
C778 C781 1.409 . S
C779 H771 0.930 . S
C779 C780 1.355 . S
C779 C781 1.415 . S
C780 C779 1.355 . S
C780 C782 1.419 . S
C781 C776 1.425 . S
C781 C778 1.409 . S
C781 C779 1.415 . S
C782 H772 0.930 . S
C782 C780 1.419 . S
C782 C783 1.362 . S
C783 H773 0.930 . S
C783 C776 1.409 . S
C783 C782 1.362 . S
H784 C790 0.930 . S
H785 C793 0.930 . S
H786 C794 0.930 . S
H787 C795 0.930 . S
H788 C798 0.930 . S
H789 C799 0.930 . S
C790 H784 0.930 . S
C790 C791 1.355 . S
C790 C792 1.415 . S
C791 C790 1.355 . S
C791 C793 1.419 . S
C792 C790 1.415 . S
C792 C797 1.425 . S
C792 C799 1.409 . S
C793 H785 0.930 . S
C793 C791 1.419 . S
C793 C794 1.362 . S
C794 H786 0.930 . S
C794 C793 1.362 . S
C794 C797 1.409 . S
C795 H787 0.930 . S
C795 C796 1.355 . S
C795 C797 1.415 . S
C796 C795 1.355 . S
C796 C798 1.419 . S
C797 C792 1.425 . S
C797 C794 1.409 . S
C797 C795 1.415 . S
C798 H788 0.930 . S
C798 C796 1.419 . S
C798 C799 1.362 . S
C799 H789 0.930 . S
C799 C792 1.409 . S
C799 C798 1.362 . S
H800 C806 0.930 . S
H801 C809 0.930 . S
H802 C810 0.930 . S
H803 C811 0.930 . S
H804 C814 0.930 . S
H805 C815 0.930 . S
C806 H800 0.930 . S
C806 C807 1.355 . S
C806 C808 1.415 . S
C807 C806 1.355 . S
C807 C809 1.419 . S
C808 C806 1.415 . S
C808 C813 1.425 . S
C808 C815 1.409 . S
C809 H801 0.930 . S
C809 C807 1.419 . S
C809 C810 1.362 . S
C810 H802 0.930 . S
C810 C809 1.362 . S
C810 C813 1.409 . S
C811 H803 0.930 . S
C811 C812 1.355 . S
C811 C813 1.415 . S
C812 C811 1.355 . S
C812 C814 1.419 . S
C813 C808 1.425 . S
C813 C810 1.409 . S
C813 C811 1.415 . S
C814 H804 0.930 . S
C814 C812 1.419 . S
C814 C815 1.362 . S
C815 H805 0.930 . S
C815 C808 1.409 . S
C815 C814 1.362 . S
H816 C822 0.930 . S
H817 C825 0.930 . S
H818 C826 0.930 . S
H819 C827 0.930 . S
H820 C830 0.930 . S
H821 C831 0.930 . S
C822 H816 0.930 . S
C822 C823 1.355 . S
C822 C824 1.415 . S
C823 C822 1.355 . S
C823 C825 1.419 . S
C824 C822 1.415 . S
C824 C829 1.425 . S
C824 C831 1.409 . S
C825 H817 0.930 . S
C825 C823 1.419 . S
C825 C826 1.362 . S
C826 H818 0.930 . S
C826 C825 1.362 . S
C826 C829 1.409 . S
C827 H819 0.930 . S
C827 C828 1.355 . S
C827 C829 1.415 . S
C828 C827 1.355 . S
C828 C830 1.419 . S
C829 C824 1.425 . S
C829 C826 1.409 . S
C829 C827 1.415 . S
C830 H820 0.930 . S
C830 C828 1.419 . S
C830 C831 1.362 . S
C831 H821 0.930 . S
C831 C824 1.409 . S
C831 C830 1.362 . S
H832 C838 0.930 . S
H833 C841 0.930 . S
H834 C842 0.930 . S
H835 C843 0.930 . S
H836 C846 0.930 . S
H837 C847 0.930 . S
C838 H832 0.930 . S
C838 C839 1.355 . S
C838 C840 1.415 . S
C839 C838 1.355 . S
C839 C841 1.419 . S
C840 C838 1.415 . S
C840 C845 1.425 . S
C840 C847 1.409 . S
C841 H833 0.930 . S
C841 C839 1.419 . S
C841 C842 1.362 . S
C842 H834 0.930 . S
C842 C841 1.362 . S
C842 C845 1.409 . S
C843 H835 0.930 . S
C843 C844 1.355 . S
C843 C845 1.415 . S
C844 C843 1.355 . S
C844 C846 1.419 . S
C845 C840 1.425 . S
C845 C842 1.409 . S
C845 C843 1.415 . S
C846 H836 0.930 . S
C846 C844 1.419 . S
C846 C847 1.362 . S
C847 H837 0.930 . S
C847 C840 1.409 . S
C847 C846 1.362 . S
H848 C854 0.930 . S
H849 C857 0.930 . S
H850 C858 0.930 . S
H851 C859 0.930 . S
H852 C862 0.930 . S
H853 C863 0.930 . S
C854 H848 0.930 . S
C854 C855 1.355 . S
C854 C856 1.415 . S
C855 C854 1.355 . S
C855 C857 1.419 . S
C856 C854 1.415 . S
C856 C861 1.425 . S
C856 C863 1.409 . S
C857 H849 0.930 . S
C857 C855 1.419 . S
C857 C858 1.362 . S
C858 H850 0.930 . S
C858 C857 1.362 . S
C858 C861 1.409 . S
C859 H851 0.930 . S
C859 C860 1.355 . S
C859 C861 1.415 . S
C860 C859 1.355 . S
C860 C862 1.419 . S
C861 C856 1.425 . S
C861 C858 1.409 . S
C861 C859 1.415 . S
C862 H852 0.930 . S
C862 C860 1.419 . S
C862 C863 1.362 . S
C863 H853 0.930 . S
C863 C856 1.409 . S
C863 C862 1.362 . S
H864 C870 0.930 . S
H865 C873 0.930 . S
H866 C874 0.930 . S
H867 C875 0.930 . S
H868 C878 0.930 . S
H869 C879 0.930 . S
C870 H864 0.930 . S
C870 C871 1.355 . S
C870 C872 1.415 . S
C871 C870 1.355 . S
C871 C873 1.419 . S
C872 C870 1.415 . S
C872 C877 1.425 . S
C872 C879 1.409 . S
C873 H865 0.930 . S
C873 C871 1.419 . S
C873 C874 1.362 . S
C874 H866 0.930 . S
C874 C873 1.362 . S
C874 C877 1.409 . S
C875 H867 0.930 . S
C875 C876 1.355 . S
C875 C877 1.415 . S
C876 C875 1.355 . S
C876 C878 1.419 . S
C877 C872 1.425 . S
C877 C874 1.409 . S
C877 C875 1.415 . S
C878 H868 0.930 . S
C878 C876 1.419 . S
C878 C879 1.362 . S
C879 H869 0.930 . S
C879 C872 1.409 . S
C879 C878 1.362 . S
H880 C886 0.930 . S
H881 C889 0.930 . S
H882 C890 0.930 1_545 S
H883 C891 0.930 . S
H884 C894 0.930 . S
H885 C895 0.930 . S
C886 H880 0.930 . S
C886 C887 1.355 . S
C886 C888 1.415 . S
C887 C886 1.355 . S
C887 C889 1.419 1_565 S
C888 C886 1.415 . S
C888 C893 1.425 . S
C888 C895 1.409 . S
C889 H881 0.930 . S
C889 C887 1.419 1_545 S
C889 C890 1.362 1_545 S
C890 H882 0.930 1_565 S
C890 C889 1.362 1_565 S
C890 C893 1.409 . S
C891 H883 0.930 . S
C891 C892 1.355 . S
C891 C893 1.415 . S
C892 C891 1.355 . S
C892 C894 1.419 . S
C893 C888 1.425 . S
C893 C890 1.409 . S
C893 C891 1.415 . S
C894 H884 0.930 . S
C894 C892 1.419 . S
C894 C895 1.362 . S
C895 H885 0.930 . S
C895 C888 1.409 . S
C895 C894 1.362 . S
H896 C902 0.930 . S
H897 C905 0.930 . S
H898 C906 0.930 . S
H899 C907 0.930 . S
H900 C910 0.930 . S
H901 C911 0.930 . S
C902 H896 0.930 . S
C902 C903 1.355 . S
C902 C904 1.415 . S
C903 C902 1.355 . S
C903 C905 1.419 . S
C904 C902 1.415 . S
C904 C909 1.425 . S
C904 C911 1.409 1_565 S
C905 H897 0.930 . S
C905 C903 1.419 . S
C905 C906 1.362 . S
C906 H898 0.930 . S
C906 C905 1.362 . S
C906 C909 1.409 . S
C907 H899 0.930 . S
C907 C908 1.355 . S
C907 C909 1.415 . S
C908 C907 1.355 . S
C908 C910 1.419 1_565 S
C909 C904 1.425 . S
C909 C906 1.409 . S
C909 C907 1.415 . S
C910 H900 0.930 . S
C910 C908 1.419 1_545 S
C910 C911 1.362 . S
C911 H901 0.930 . S
C911 C904 1.409 1_545 S
C911 C910 1.362 . S
H912 C918 0.930 . S
H913 C921 0.929 . S
H914 C922 0.930 . S
H915 C923 0.930 . S
H916 C926 0.930 . S
H917 C927 0.930 . S
C918 H912 0.930 . S
C918 C919 1.355 . S
C918 C920 1.415 . S
C919 C918 1.355 . S
C919 C921 1.420 1_545 S
C920 C918 1.415 . S
C920 C925 1.425 . S
C920 C927 1.409 . S
C921 H913 0.929 . S
C921 C919 1.420 1_565 S
C921 C922 1.362 . S
C922 H914 0.930 . S
C922 C921 1.362 . S
C922 C925 1.409 1_565 S
C923 H915 0.930 . S
C923 C924 1.355 1_565 S
C923 C925 1.415 1_565 S
C924 C923 1.355 1_545 S
C924 C926 1.419 . S
C925 C920 1.425 . S
C925 C922 1.409 1_545 S
C925 C923 1.415 1_545 S
C926 H916 0.930 . S
C926 C924 1.419 . S
C926 C927 1.362 . S
C927 H917 0.930 . S
C927 C920 1.409 . S
C927 C926 1.362 . S
H928 C934 0.930 . S
H929 C937 0.930 . S
H930 C938 0.930 . S
H931 C939 0.930 . S
H932 C942 0.930 . S
H933 C943 0.930 . S
C934 H928 0.930 . S
C934 C935 1.355 . S
C934 C936 1.415 . S
C935 C934 1.355 . S
C935 C937 1.419 . S
C936 C934 1.415 . S
C936 C941 1.425 . S
C936 C943 1.409 . S
C937 H929 0.930 . S
C937 C935 1.419 . S
C937 C938 1.362 . S
C938 H930 0.930 . S
C938 C937 1.362 . S
C938 C941 1.409 . S
C939 H931 0.930 . S
C939 C940 1.355 . S
C939 C941 1.415 . S
C940 C939 1.355 . S
C940 C942 1.419 . S
C941 C936 1.425 . S
C941 C938 1.409 . S
C941 C939 1.415 . S
C942 H932 0.930 . S
C942 C940 1.419 . S
C942 C943 1.362 . S
C943 H933 0.930 . S
C943 C936 1.409 . S
C943 C942 1.362 . S
H944 C950 0.930 . S
H945 C953 0.930 . S
H946 C954 0.930 . S
H947 C955 0.930 . S
H948 C958 0.930 . S
H949 C959 0.930 . S
C950 H944 0.930 . S
C950 C951 1.355 . S
C950 C952 1.415 . S
C951 C950 1.355 . S
C951 C953 1.419 . S
C952 C950 1.415 . S
C952 C957 1.425 . S
C952 C959 1.409 . S
C953 H945 0.930 . S
C953 C951 1.419 . S
C953 C954 1.362 1_545 S
C954 H946 0.930 . S
C954 C953 1.362 1_565 S
C954 C957 1.409 1_565 S
C955 H947 0.930 . S
C955 C956 1.355 1_565 S
C955 C957 1.415 1_565 S
C956 C955 1.355 1_545 S
C956 C958 1.419 . S
C957 C952 1.425 . S
C957 C954 1.409 1_545 S
C957 C955 1.415 1_545 S
C958 H948 0.930 . S
C958 C956 1.419 . S
C958 C959 1.362 . S
C959 H949 0.930 . S
C959 C952 1.409 . S
C959 C958 1.362 . S
H960 C966 0.930 . S
H961 C969 0.930 . S
H962 C970 0.930 1_565 S
H963 C971 0.930 1_565 S
H964 C974 0.930 . S
H965 C975 0.930 . S
C966 H960 0.930 . S
C966 C967 1.355 . S
C966 C968 1.415 . S
C967 C966 1.355 . S
C967 C969 1.419 . S
C968 C966 1.415 . S
C968 C973 1.425 . S
C968 C975 1.409 . S
C969 H961 0.930 . S
C969 C967 1.419 . S
C969 C970 1.362 . S
C970 H962 0.930 1_545 S
C970 C969 1.362 . S
C970 C973 1.409 . S
C971 H963 0.930 1_545 S
C971 C972 1.355 . S
C971 C973 1.415 . S
C972 C971 1.355 . S
C972 C974 1.419 . S
C973 C968 1.425 . S
C973 C970 1.409 . S
C973 C971 1.415 . S
C974 H964 0.930 . S
C974 C972 1.419 . S
C974 C975 1.362 . S
C975 H965 0.930 . S
C975 C968 1.409 . S
C975 C974 1.362 . S
H976 C982 0.930 . S
H977 C985 0.930 . S
H978 C986 0.930 . S
H979 C987 0.930 1_545 S
H980 C990 0.930 . S
H981 C991 0.930 . S
C982 H976 0.930 . S
C982 C983 1.355 . S
C982 C984 1.415 . S
C983 C982 1.355 . S
C983 C985 1.419 1_565 S
C984 C982 1.415 . S
C984 C989 1.425 . S
C984 C991 1.409 . S
C985 H977 0.930 . S
C985 C983 1.419 1_545 S
C985 C986 1.362 . S
C986 H978 0.930 . S
C986 C985 1.362 . S
C986 C989 1.409 1_545 S
C987 H979 0.930 1_565 S
C987 C988 1.355 . S
C987 C989 1.415 . S
C988 C987 1.355 . S
C988 C990 1.419 . S
C989 C984 1.425 . S
C989 C986 1.409 1_565 S
C989 C987 1.415 . S
C990 H980 0.930 . S
C990 C988 1.419 . S
C990 C991 1.362 . S
C991 H981 0.930 . S
C991 C984 1.409 . S
C991 C990 1.362 . S
H992 C998 0.930 1_545 S
H993 C1001 0.930 . S
H994 C1002 0.930 . S
H995 C1003 0.930 . S
H996 C1006 0.930 1_545 S
H997 C1007 0.930 . S
C998 H992 0.930 1_565 S
C998 C999 1.355 . S
C998 C1000 1.415 . S
C999 C998 1.355 . S
C999 C1001 1.419 . S
C1000 C998 1.415 . S
C1000 C1005 1.425 . S
C1000 C1007 1.409 1_565 S
C1001 H993 0.930 . S
C1001 C999 1.419 . S
C1001 C1002 1.362 . S
C1002 H994 0.930 . S
C1002 C1001 1.362 . S
C1002 C1005 1.409 . S
C1003 H995 0.930 . S
C1003 C1004 1.355 . S
C1003 C1005 1.415 . S
C1004 C1003 1.355 . S
C1004 C1006 1.419 . S
C1005 C1000 1.425 . S
C1005 C1002 1.409 . S
C1005 C1003 1.415 . S
C1006 H996 0.930 1_565 S
C1006 C1004 1.419 . S
C1006 C1007 1.362 1_565 S
C1007 H997 0.930 . S
C1007 C1000 1.409 1_545 S
C1007 C1006 1.362 1_545 S
H1008 C1014 0.930 . S
H1009 C1017 0.930 . S
H1010 C1018 0.930 . S
H1011 C1019 0.930 . S
H1012 C1022 0.930 . S
H1013 C1023 0.930 . S
C1014 H1008 0.930 . S
C1014 C1015 1.355 . S
C1014 C1016 1.415 . S
C1015 C1014 1.355 . S
C1015 C1017 1.419 1_455 S
C1016 C1014 1.415 . S
C1016 C1021 1.425 1_455 S
C1016 C1023 1.409 . S
C1017 H1009 0.930 . S
C1017 C1015 1.419 1_655 S
C1017 C1018 1.362 . S
C1018 H1010 0.930 . S
C1018 C1017 1.362 . S
C1018 C1021 1.409 . S
C1019 H1011 0.930 . S
C1019 C1020 1.355 . S
C1019 C1021 1.415 . S
C1020 C1019 1.355 . S
C1020 C1022 1.419 1_655 S
C1021 C1016 1.425 1_655 S
C1021 C1018 1.409 . S
C1021 C1019 1.415 . S
C1022 H1012 0.930 . S
C1022 C1020 1.419 1_455 S
C1022 C1023 1.362 . S
C1023 H1013 0.930 . S
C1023 C1016 1.409 . S
C1023 C1022 1.362 . S
H1024 C1030 0.930 . S
H1025 C1033 0.930 . S
H1026 C1034 0.930 1_655 S
H1027 C1035 0.930 . S
H1028 C1038 0.930 . S
H1029 C1039 0.930 1_455 S
C1030 H1024 0.930 . S
C1030 C1031 1.355 . S
C1030 C1032 1.415 . S
C1031 C1030 1.355 . S
C1031 C1033 1.419 . S
C1032 C1030 1.415 . S
C1032 C1037 1.425 1_455 S
C1032 C1039 1.409 1_455 S
C1033 H1025 0.930 . S
C1033 C1031 1.419 . S
C1033 C1034 1.362 . S
C1034 H1026 0.930 1_455 S
C1034 C1033 1.362 . S
C1034 C1037 1.409 1_455 S
C1035 H1027 0.930 . S
C1035 C1036 1.355 . S
C1035 C1037 1.415 . S
C1036 C1035 1.355 . S
C1036 C1038 1.419 . S
C1037 C1032 1.425 1_655 S
C1037 C1034 1.409 1_655 S
C1037 C1035 1.415 . S
C1038 H1028 0.930 . S
C1038 C1036 1.419 . S
C1038 C1039 1.362 . S
C1039 H1029 0.930 1_655 S
C1039 C1032 1.409 1_655 S
C1039 C1038 1.362 . S
H1040 C1046 0.930 . S
H1041 C1049 0.930 . S
H1042 C1050 0.930 . S
H1043 C1051 0.930 . S
H1044 C1054 0.930 . S
H1045 C1055 0.930 . S
C1046 H1040 0.930 . S
C1046 C1047 1.355 . S
C1046 C1048 1.415 . S
C1047 C1046 1.355 . S
C1047 C1049 1.419 . S
C1048 C1046 1.415 . S
C1048 C1053 1.425 . S
C1048 C1055 1.409 . S
C1049 H1041 0.930 . S
C1049 C1047 1.419 . S
C1049 C1050 1.362 . S
C1050 H1042 0.930 . S
C1050 C1049 1.362 . S
C1050 C1053 1.409 . S
C1051 H1043 0.930 . S
C1051 C1052 1.355 . S
C1051 C1053 1.415 . S
C1052 C1051 1.355 . S
C1052 C1054 1.419 . S
C1053 C1048 1.425 . S
C1053 C1050 1.409 . S
C1053 C1051 1.415 . S
C1054 H1044 0.930 . S
C1054 C1052 1.419 . S
C1054 C1055 1.362 . S
C1055 H1045 0.930 . S
C1055 C1048 1.409 . S
C1055 C1054 1.362 . S
H1056 C1062 0.930 . S
H1057 C1065 0.930 . S
H1058 C1066 0.930 . S
H1059 C1067 0.930 . S
H1060 C1070 0.930 . S
H1061 C1071 0.930 . S
C1062 H1056 0.930 . S
C1062 C1063 1.355 . S
C1062 C1064 1.415 . S
C1063 C1062 1.355 . S
C1063 C1065 1.419 1_554 S
C1064 C1062 1.415 . S
C1064 C1069 1.425 1_554 S
C1064 C1071 1.409 . S
C1065 H1057 0.930 . S
C1065 C1063 1.419 1_556 S
C1065 C1066 1.362 . S
C1066 H1058 0.930 . S
C1066 C1065 1.362 . S
C1066 C1069 1.409 . S
C1067 H1059 0.930 . S
C1067 C1068 1.355 1_556 S
C1067 C1069 1.415 . S
C1068 C1067 1.355 1_554 S
C1068 C1070 1.419 . S
C1069 C1064 1.425 1_556 S
C1069 C1066 1.409 . S
C1069 C1067 1.415 . S
C1070 H1060 0.930 . S
C1070 C1068 1.419 . S
C1070 C1071 1.362 . S
C1071 H1061 0.930 . S
C1071 C1064 1.409 . S
C1071 C1070 1.362 . S
H1072 C1078 0.930 . S
H1073 C1081 0.930 . S
H1074 C1082 0.930 . S
H1075 C1083 0.930 . S
H1076 C1086 0.930 . S
H1077 C1087 0.930 . S
C1078 H1072 0.930 . S
C1078 C1079 1.355 . S
C1078 C1080 1.415 . S
C1079 C1078 1.355 . S
C1079 C1081 1.419 1_455 S
C1080 C1078 1.415 . S
C1080 C1085 1.425 1_455 S
C1080 C1087 1.409 . S
C1081 H1073 0.930 . S
C1081 C1079 1.419 1_655 S
C1081 C1082 1.362 . S
C1082 H1074 0.930 . S
C1082 C1081 1.362 . S
C1082 C1085 1.409 . S
C1083 H1075 0.930 . S
C1083 C1084 1.355 . S
C1083 C1085 1.415 . S
C1084 C1083 1.355 . S
C1084 C1086 1.419 1_655 S
C1085 C1080 1.425 1_655 S
C1085 C1082 1.409 . S
C1085 C1083 1.415 . S
C1086 H1076 0.930 . S
C1086 C1084 1.419 1_455 S
C1086 C1087 1.362 . S
C1087 H1077 0.930 . S
C1087 C1080 1.409 . S
C1087 C1086 1.362 . S
H1088 C1094 0.930 . S
H1089 C1097 0.930 . S
H1090 C1098 0.930 1_455 S
H1091 C1099 0.930 . S
H1092 C1102 0.930 . S
H1093 C1103 0.930 1_655 S
C1094 H1088 0.930 . S
C1094 C1095 1.355 . S
C1094 C1096 1.415 . S
C1095 C1094 1.355 . S
C1095 C1097 1.419 . S
C1096 C1094 1.415 . S
C1096 C1101 1.425 1_655 S
C1096 C1103 1.409 1_655 S
C1097 H1089 0.930 . S
C1097 C1095 1.419 . S
C1097 C1098 1.362 . S
C1098 H1090 0.930 1_655 S
C1098 C1097 1.362 . S
C1098 C1101 1.409 1_655 S
C1099 H1091 0.930 . S
C1099 C1100 1.355 . S
C1099 C1101 1.415 . S
C1100 C1099 1.355 . S
C1100 C1102 1.419 . S
C1101 C1096 1.425 1_455 S
C1101 C1098 1.409 1_455 S
C1101 C1099 1.415 . S
C1102 H1092 0.930 . S
C1102 C1100 1.419 . S
C1102 C1103 1.362 . S
C1103 H1093 0.930 1_455 S
C1103 C1096 1.409 1_455 S
C1103 C1102 1.362 . S
H1104 C1110 0.930 . S
H1105 C1113 0.930 . S
H1106 C1114 0.930 . S
H1107 C1115 0.930 . S
H1108 C1118 0.930 . S
H1109 C1119 0.930 . S
C1110 H1104 0.930 . S
C1110 C1111 1.355 . S
C1110 C1112 1.415 . S
C1111 C1110 1.355 . S
C1111 C1113 1.419 . S
C1112 C1110 1.415 . S
C1112 C1117 1.425 . S
C1112 C1119 1.409 . S
C1113 H1105 0.930 . S
C1113 C1111 1.419 . S
C1113 C1114 1.362 . S
C1114 H1106 0.930 . S
C1114 C1113 1.362 . S
C1114 C1117 1.409 . S
C1115 H1107 0.930 . S
C1115 C1116 1.355 . S
C1115 C1117 1.415 . S
C1116 C1115 1.355 . S
C1116 C1118 1.419 . S
C1117 C1112 1.425 . S
C1117 C1114 1.409 . S
C1117 C1115 1.415 . S
C1118 H1108 0.930 . S
C1118 C1116 1.419 . S
C1118 C1119 1.362 . S
C1119 H1109 0.930 . S
C1119 C1112 1.409 . S
C1119 C1118 1.362 . S
H1120 C1126 0.930 . S
H1121 C1129 0.930 . S
H1122 C1130 0.930 . S
H1123 C1131 0.930 . S
H1124 C1134 0.930 . S
H1125 C1135 0.930 . S
C1126 H1120 0.930 . S
C1126 C1127 1.355 . S
C1126 C1128 1.415 . S
C1127 C1126 1.355 . S
C1127 C1129 1.419 1_556 S
C1128 C1126 1.415 . S
C1128 C1133 1.418 1_556 S
C1128 C1135 1.409 . S
C1129 H1121 0.930 . S
C1129 C1127 1.419 1_554 S
C1129 C1130 1.362 . S
C1130 H1122 0.930 . S
C1130 C1129 1.362 . S
C1130 C1133 1.416 . S
C1131 H1123 0.930 . S
C1131 C1132 1.355 1_554 S
C1131 C1133 1.415 . S
C1132 C1131 1.355 1_556 S
C1132 C1134 1.419 . S
C1133 C1128 1.418 1_554 S
C1133 C1130 1.416 . S
C1133 C1131 1.415 . S
C1134 H1124 0.930 . S
C1134 C1132 1.419 . S
C1134 C1135 1.362 . S
C1135 H1125 0.930 . S
C1135 C1128 1.409 . S
C1135 C1134 1.362 . S
C375 C17 1.668 . S
C380 C156 1.694 . S
C391 C363 1.702 . S
C396 C40 1.631 . S
C407 C63 1.623 . S
C412 C110 1.711 . S
C423 C317 1.631 . S
C428 C86 1.641 . S
C439 C64 1.679 . S
C444 C109 1.684 . S
C455 C271 1.673 . S
C460 C132 1.666 . S
C471 C155 1.623 . S
C476 C18 1.711 . S
C487 C178 1.643 . S
C492 C225 1.621 . S
C503 C201 1.619 . S
C508 C340 1.713 . S
C519 C224 1.597 1_554 S
C524 C179 1.674 . S
C535 C294 1.717 . S
C540 C247 1.633 . S
C551 C133 1.670 . S
C556 C270 1.676 . S
C567 C248 1.698 . S
C572 C293 1.642 . S
C583 C316 1.644 . S
C588 C87 1.622 . S
C599 C202 1.702 . S
C604 C339 1.645 . S
C615 C41 1.682 . S
C620 C362 1.661 . S
C631 C21 0.543 . S
C636 C297 0.543 . S
C647 C44 0.598 . S
C652 C136 0.598 . S
C663 C67 0.622 . S
C668 C343 0.621 . S
C679 C182 0.572 . S
C684 C90 0.570 . S
C695 C113 0.553 . S
C700 C205 0.553 . S
C711 C251 0.594 . S
C716 C159 0.594 . S
C727 C228 0.554 . S
C732 C320 0.558 . S
C743 C366 0.570 . S
C748 C274 0.570 . S
C759 C19 1.503 . S
C764 C43 1.494 . S
C775 C66 1.535 . S
C780 C42 1.539 . S
C791 C65 1.671 . S
C796 C89 1.666 . S
C807 C88 1.356 . S
C812 C20 1.340 . S
C823 C135 1.464 . S
C828 C111 1.514 . S
C839 C158 1.493 . S
C844 C134 1.552 . S
C855 C181 1.664 . S
C860 C157 1.674 . S
C871 C112 1.362 . S
C876 C180 1.345 . S
C887 C203 1.688 1_565 S
C892 C227 1.625 . S
C903 C226 1.352 . S
C908 C250 1.353 . S
C919 C273 1.468 . S
C924 C249 1.513 1_545 S
C935 C272 1.543 . S
C940 C204 1.521 . S
C951 C319 1.612 . S
C956 C295 1.696 1_545 S
C967 C318 1.375 . S
C972 C342 1.289 . S
C983 C341 1.517 1_565 S
C988 C365 1.456 . S
C999 C296 1.477 . S
C1004 C364 1.558 . S
C1015 C16 1.527 . S
C1020 C246 1.529 . S
C1031 C39 1.497 . S
C1036 C269 1.494 . S
C1047 C62 1.511 . S
C1052 C200 1.509 . S
C1063 C223 1.528 . S
C1068 C85 1.528 . S
C1079 C338 1.548 . S
C1084 C108 1.549 . S
C1095 C131 1.478 . S
C1100 C361 1.479 . S
C1111 C154 1.502 . S
C1116 C292 1.500 . S
C1127 C315 1.521 . S
C1132 C177 1.521 . S
