# Generated by pormake.
# Topology wgc, (5)-cn, num edge types: 1
# Building blocks:
#     Node 0, Type 0, BuildingBlock: BEQFEK_clean_sbu_0, # of connection points: 5
#     Node 1, Type 0, BuildingBlock: BEQFEK_clean_sbu_0, # of connection points: 5
#     Node 2, Type 0, BuildingBlock: BEQFEK_clean_sbu_0, # of connection points: 5
#     Node 3, Type 0, BuildingBlock: BEQFEK_clean_sbu_0, # of connection points: 5
#     Node 4, Type 0, BuildingBlock: BEQFEK_clean_sbu_0, # of connection points: 5
#     Node 5, Type 0, BuildingBlock: BEQFEK_clean_sbu_0, # of connection points: 5
#     Node 6, Type 0, BuildingBlock: BEQFEK_clean_sbu_0, # of connection points: 5
#     Node 7, Type 0, BuildingBlock: BEQFEK_clean_sbu_0, # of connection points: 5
#     Node 8, Type 0, BuildingBlock: BEQFEK_clean_sbu_0, # of connection points: 5
#     Node 9, Type 0, BuildingBlock: BEQFEK_clean_sbu_0, # of connection points: 5
#     Node 10, Type 0, BuildingBlock: BEQFEK_clean_sbu_0, # of connection points: 5
#     Node 11, Type 0, BuildingBlock: BEQFEK_clean_sbu_0, # of connection points: 5
#     Node 12, Type 0, BuildingBlock: BEQFEK_clean_sbu_0, # of connection points: 5
#     Node 13, Type 0, BuildingBlock: BEQFEK_clean_sbu_0, # of connection points: 5
#     Node 14, Type 0, BuildingBlock: BEQFEK_clean_sbu_0, # of connection points: 5
#     Node 15, Type 0, BuildingBlock: BEQFEK_clean_sbu_0, # of connection points: 5
#     Edge 16, Type (0, 0), BuildingBlock: ZUJKAS_clean_linker_0, # of connection points: 2
#     Edge 17, Type (0, 0), BuildingBlock: ZUJKAS_clean_linker_0, # of connection points: 2
#     Edge 18, Type (0, 0), BuildingBlock: ZUJKAS_clean_linker_0, # of connection points: 2
#     Edge 19, Type (0, 0), BuildingBlock: ZUJKAS_clean_linker_0, # of connection points: 2
#     Edge 20, Type (0, 0), BuildingBlock: ZUJKAS_clean_linker_0, # of connection points: 2
#     Edge 21, Type (0, 0), BuildingBlock: ZUJKAS_clean_linker_0, # of connection points: 2
#     Edge 22, Type (0, 0), BuildingBlock: ZUJKAS_clean_linker_0, # of connection points: 2
#     Edge 23, Type (0, 0), BuildingBlock: ZUJKAS_clean_linker_0, # of connection points: 2
#     Edge 24, Type (0, 0), BuildingBlock: ZUJKAS_clean_linker_0, # of connection points: 2
#     Edge 25, Type (0, 0), BuildingBlock: ZUJKAS_clean_linker_0, # of connection points: 2
#     Edge 26, Type (0, 0), BuildingBlock: ZUJKAS_clean_linker_0, # of connection points: 2
#     Edge 27, Type (0, 0), BuildingBlock: ZUJKAS_clean_linker_0, # of connection points: 2
#     Edge 28, Type (0, 0), BuildingBlock: ZUJKAS_clean_linker_0, # of connection points: 2
#     Edge 29, Type (0, 0), BuildingBlock: ZUJKAS_clean_linker_0, # of connection points: 2
#     Edge 30, Type (0, 0), BuildingBlock: ZUJKAS_clean_linker_0, # of connection points: 2
#     Edge 31, Type (0, 0), BuildingBlock: ZUJKAS_clean_linker_0, # of connection points: 2
#     Edge 32, Type (0, 0), BuildingBlock: ZUJKAS_clean_linker_0, # of connection points: 2
#     Edge 33, Type (0, 0), BuildingBlock: ZUJKAS_clean_linker_0, # of connection points: 2
#     Edge 34, Type (0, 0), BuildingBlock: ZUJKAS_clean_linker_0, # of connection points: 2
#     Edge 35, Type (0, 0), BuildingBlock: ZUJKAS_clean_linker_0, # of connection points: 2
#     Edge 36, Type (0, 0), BuildingBlock: ZUJKAS_clean_linker_0, # of connection points: 2
#     Edge 37, Type (0, 0), BuildingBlock: ZUJKAS_clean_linker_0, # of connection points: 2
#     Edge 38, Type (0, 0), BuildingBlock: ZUJKAS_clean_linker_0, # of connection points: 2
#     Edge 39, Type (0, 0), BuildingBlock: ZUJKAS_clean_linker_0, # of connection points: 2
#     Edge 40, Type (0, 0), BuildingBlock: ZUJKAS_clean_linker_0, # of connection points: 2
#     Edge 41, Type (0, 0), BuildingBlock: ZUJKAS_clean_linker_0, # of connection points: 2
#     Edge 42, Type (0, 0), BuildingBlock: ZUJKAS_clean_linker_0, # of connection points: 2
#     Edge 43, Type (0, 0), BuildingBlock: ZUJKAS_clean_linker_0, # of connection points: 2
#     Edge 44, Type (0, 0), BuildingBlock: ZUJKAS_clean_linker_0, # of connection points: 2
#     Edge 45, Type (0, 0), BuildingBlock: ZUJKAS_clean_linker_0, # of connection points: 2
#     Edge 46, Type (0, 0), BuildingBlock: ZUJKAS_clean_linker_0, # of connection points: 2
#     Edge 47, Type (0, 0), BuildingBlock: ZUJKAS_clean_linker_0, # of connection points: 2
#     Edge 48, Type (0, 0), BuildingBlock: ZUJKAS_clean_linker_0, # of connection points: 2
#     Edge 49, Type (0, 0), BuildingBlock: ZUJKAS_clean_linker_0, # of connection points: 2
#     Edge 50, Type (0, 0), BuildingBlock: ZUJKAS_clean_linker_0, # of connection points: 2
#     Edge 51, Type (0, 0), BuildingBlock: ZUJKAS_clean_linker_0, # of connection points: 2
#     Edge 52, Type (0, 0), BuildingBlock: ZUJKAS_clean_linker_0, # of connection points: 2
#     Edge 53, Type (0, 0), BuildingBlock: ZUJKAS_clean_linker_0, # of connection points: 2
#     Edge 54, Type (0, 0), BuildingBlock: ZUJKAS_clean_linker_0, # of connection points: 2
#     Edge 55, Type (0, 0), BuildingBlock: ZUJKAS_clean_linker_0, # of connection points: 2
# Relax obj value: 0.138
# Max RMSD: 0.127
# Mean RMSD: 0.127
data_MOF--net-wgc--node1-BEQFEK_clean_sbu_0--edge1-ZUJKAS_clean_linker_0
_symmetry_space_group_name_H-M    P1
_symmetry_Int_Tables_number       1
_symmetry_cell_setting            triclinic
loop_
_symmetry_equiv_pos_as_xyz
'x, y, z'
_cell_length_a     49.845221
_cell_length_b     49.888702
_cell_length_c     71.176738
_cell_angle_alpha  89.989157
_cell_angle_beta   90.000585
_cell_angle_gamma 89.973942
loop_
_atom_site_label
_atom_site_type_symbol
_atom_site_fract_x
_atom_site_fract_y
_atom_site_fract_z
_atom_type_partial_charge
Co0 Co 0.2392 0.11942 0.00957 0.0
Co1 Co 0.29865 0.09957 0.00614 0.0
C2 C 0.27043 0.11794 0.97255 0.0
O3 O 0.24993 0.12148 0.98292 0.0
O4 O 0.29264 0.10988 0.97943 0.0
C5 C 0.20136 0.1598 0.00169 0.0
O6 O 0.22177 0.16946 0.99218 0.0
C7 C 0.35251 0.07676 0.99883 0.0
C8 C 0.36373 0.06499 0.02775 0.0
C9 C 0.37193 0.06333 0.00922 0.0
N10 N 0.33376 0.086 0.01081 0.0
N11 N 0.34073 0.079 0.02804 0.0
C12 C 0.34966 0.07758 0.97792 0.0
H13 H 0.32974 0.06946 0.97391 0.0
H14 H 0.35043 0.09874 0.97315 0.0
H15 H 0.36562 0.0659 0.97079 0.0
C16 C 0.26365 0.15487 0.03799 0.0
N17 N 0.26546 0.13556 0.02487 0.0
N18 N 0.29074 0.12854 0.02279 0.0
C19 C 0.30596 0.14379 0.03427 0.0
C20 C 0.28928 0.16085 0.04437 0.0
C21 C 0.23766 0.16611 0.04499 0.0
H22 H 0.22179 0.15056 0.04446 0.0
H23 H 0.23155 0.18303 0.03582 0.0
H24 H 0.23961 0.17356 0.05961 0.0
O25 O 0.23375 0.08158 0.01611 0.0
O26 O 0.27562 0.06815 0.01168 0.0
H27 H 0.34278 0.12939 0.04587 0.0
H28 H 0.34395 0.16358 0.03806 0.0
C29 C 0.33597 0.14336 0.03473 0.0
H30 H 0.34409 0.13659 0.02102 0.0
H31 H 0.32893 0.08244 0.03991 0.0
O32 O 0.20449 0.13844 0.01118 0.0
C33 C 0.25124 0.06305 0.01558 0.0
Co34 Co 0.12132 0.75358 0.99048 0.0
Co35 Co 0.09906 0.69481 0.99133 0.0
C36 C 0.11773 0.72092 0.02624 0.0
O37 O 0.12356 0.74176 0.01681 0.0
O38 O 0.10778 0.7002 0.01843 0.0
C39 C 0.1608 0.79211 0.99953 0.0
O40 O 0.17018 0.77221 0.00969 0.0
C41 C 0.08269 0.63855 0.99819 0.0
C42 C 0.06471 0.62867 0.97066 0.0
C43 C 0.06918 0.61848 0.98849 0.0
N44 N 0.08585 0.65961 0.98659 0.0
N45 N 0.07507 0.65352 0.97018 0.0
C46 C 0.09291 0.63774 0.01794 0.0
H47 H 0.11262 0.64799 0.01876 0.0
H48 H 0.09511 0.6168 0.02297 0.0
H49 H 0.07867 0.64857 0.02721 0.0
C50 C 0.1557 0.73033 0.96098 0.0
N51 N 0.13684 0.72793 0.97438 0.0
N52 N 0.12877 0.70284 0.97528 0.0
C53 C 0.14287 0.6883 0.96267 0.0
C54 C 0.16016 0.70532 0.95309 0.0
C55 C 0.16921 0.75618 0.95604 0.0
H56 H 0.18178 0.76266 0.96806 0.0
H57 H 0.18223 0.75423 0.94349 0.0
H58 H 0.15384 0.77189 0.95358 0.0
O59 O 0.08334 0.75995 0.98423 0.0
O60 O 0.06816 0.71822 0.98523 0.0
H61 H 0.12183 0.65656 0.94904 0.0
H62 H 0.15681 0.64985 0.95264 0.0
C63 C 0.13872 0.65906 0.95902 0.0
H64 H 0.13381 0.64851 0.97229 0.0
H65 H 0.07417 0.66665 0.95878 0.0
O66 O 0.14031 0.78825 0.98926 0.0
C67 C 0.06422 0.74319 0.98285 0.0
Co68 Co 0.75435 0.8738 0.00645 0.0
Co69 Co 0.69518 0.89464 0.00385 0.0
C70 C 0.72095 0.87201 0.9705 0.0
O71 O 0.74206 0.86921 0.98036 0.0
O72 O 0.69932 0.8812 0.97761 0.0
C73 C 0.79341 0.83391 0.999 0.0
O74 O 0.77334 0.82279 0.98993 0.0
C75 C 0.63977 0.91483 0.9974 0.0
C76 C 0.63296 0.93483 0.02473 0.0
C77 C 0.62168 0.93082 0.0072 0.0
N78 N 0.66073 0.90965 0.00878 0.0
N79 N 0.6564 0.9216 0.02507 0.0
C80 C 0.63909 0.90758 0.97702 0.0
H81 H 0.6576 0.91502 0.97011 0.0
H82 H 0.63893 0.88542 0.97562 0.0
H83 H 0.62134 0.91616 0.9698 0.0
C84 C 0.73125 0.84149 0.03711 0.0
N85 N 0.72886 0.85957 0.02321 0.0
N86 N 0.70374 0.86754 0.02201 0.0
C87 C 0.68918 0.85441 0.03512 0.0
C88 C 0.70623 0.83766 0.04526 0.0
C89 C 0.75694 0.82734 0.04171 0.0
H90 H 0.76309 0.81511 0.02945 0.0
H91 H 0.75502 0.81381 0.05397 0.0
H92 H 0.77295 0.84233 0.04434 0.0
O93 O 0.7606 0.91212 0.01119 0.0
O94 O 0.71898 0.92617 0.00654 0.0
H95 H 0.6575 0.87667 0.04787 0.0
H96 H 0.65035 0.8417 0.04557 0.0
C97 C 0.65991 0.85903 0.03854 0.0
H98 H 0.64947 0.86307 0.02508 0.0
H99 H 0.67012 0.92176 0.03614 0.0
O100 O 0.78939 0.85546 0.00809 0.0
C101 C 0.7436 0.93098 0.00974 0.0
Co102 Co 0.87567 0.24287 0.99185 0.0
Co103 Co 0.89532 0.30247 0.99432 0.0
C104 C 0.87796 0.27451 0.02853 0.0
O105 O 0.87406 0.25378 0.01849 0.0
O106 O 0.88585 0.29647 0.02122 0.0
C107 C 0.83866 0.20233 0.00169 0.0
O108 O 0.83118 0.22047 0.01398 0.0
C109 C 0.91184 0.35877 0.00138 0.0
C110 C 0.92739 0.36943 0.97327 0.0
C111 C 0.92432 0.37919 0.99135 0.0
N112 N 0.90786 0.33794 0.98968 0.0
N113 N 0.91725 0.3445 0.97295 0.0
C114 C 0.90348 0.35898 0.02156 0.0
H115 H 0.88383 0.34878 0.02311 0.0
H116 H 0.90187 0.37975 0.02701 0.0
H117 H 0.91848 0.34777 0.02999 0.0
C118 C 0.84027 0.26613 0.96301 0.0
N119 N 0.85912 0.26867 0.9764 0.0
N120 N 0.86612 0.29401 0.97789 0.0
C121 C 0.85131 0.30856 0.96568 0.0
C122 C 0.83471 0.29129 0.9557 0.0
C123 C 0.82773 0.23998 0.95759 0.0
H124 H 0.84369 0.22537 0.95394 0.0
H125 H 0.81655 0.23188 0.9698 0.0
H126 H 0.81363 0.24216 0.94564 0.0
O127 O 0.9136 0.23783 0.9851 0.0
O128 O 0.92707 0.27986 0.98857 0.0
H129 H 0.86995 0.34199 0.9523 0.0
H130 H 0.83512 0.34699 0.95743 0.0
C131 C 0.85401 0.33815 0.96283 0.0
H132 H 0.85948 0.34809 0.97621 0.0
H133 H 0.91734 0.33163 0.96139 0.0
O134 O 0.85714 0.20787 0.99001 0.0
C135 C 0.93213 0.25535 0.98507 0.0
Co136 Co 0.24444 0.37752 0.23782 0.0
Co137 Co 0.30426 0.39637 0.24026 0.0
C138 C 0.27641 0.37687 0.27412 0.0
O139 O 0.25552 0.37335 0.26417 0.0
O140 O 0.29814 0.38562 0.26692 0.0
C141 C 0.19115 0.36975 0.24681 0.0
O142 O 0.1969 0.39106 0.25689 0.0
C143 C 0.36048 0.41267 0.24792 0.0
C144 C 0.37215 0.42751 0.21982 0.0
C145 C 0.38128 0.42487 0.23809 0.0
N146 N 0.34005 0.40841 0.23592 0.0
N147 N 0.3472 0.41739 0.21919 0.0
C148 C 0.35993 0.40501 0.26823 0.0
H149 H 0.35026 0.38512 0.26986 0.0
H150 H 0.38046 0.40421 0.27423 0.0
H151 H 0.3478 0.41989 0.27612 0.0
C152 C 0.26676 0.3427 0.20839 0.0
N153 N 0.26969 0.36142 0.22181 0.0
N154 N 0.29517 0.36802 0.22326 0.0
C155 C 0.30942 0.35305 0.21097 0.0
C156 C 0.2918 0.3368 0.201 0.0
C157 C 0.24041 0.33032 0.20327 0.0
H158 H 0.22642 0.34623 0.19848 0.0
H159 H 0.23151 0.32087 0.21593 0.0
H160 H 0.24256 0.3149 0.19215 0.0
O161 O 0.23999 0.41587 0.23229 0.0
O162 O 0.28226 0.42883 0.23534 0.0
H163 H 0.3435 0.37067 0.19769 0.0
H164 H 0.34755 0.33583 0.203 0.0
C165 C 0.33913 0.35496 0.20827 0.0
H166 H 0.34908 0.36028 0.22169 0.0
H167 H 0.33467 0.41734 0.20745 0.0
O168 O 0.20913 0.35992 0.2362 0.0
C169 C 0.25767 0.43422 0.23235 0.0
Co170 Co 0.38133 0.75388 0.76164 0.0
Co171 Co 0.39761 0.6935 0.75778 0.0
C172 C 0.37848 0.72281 0.72475 0.0
O173 O 0.37621 0.74351 0.73508 0.0
O174 O 0.38644 0.70045 0.73141 0.0
C175 C 0.34234 0.79405 0.7564 0.0
O176 O 0.32922 0.77385 0.74893 0.0
C177 C 0.41947 0.63977 0.74952 0.0
C178 C 0.42472 0.62395 0.7783 0.0
C179 C 0.42952 0.61805 0.75959 0.0
N180 N 0.40885 0.65735 0.7618 0.0
N181 N 0.4122 0.64777 0.77895 0.0
C182 C 0.42366 0.64582 0.72914 0.0
H183 H 0.42621 0.6677 0.72704 0.0
H184 H 0.40573 0.63925 0.72113 0.0
H185 H 0.44156 0.63526 0.72356 0.0
C186 C 0.34591 0.73167 0.79099 0.0
N187 N 0.36467 0.72874 0.77757 0.0
N188 N 0.36964 0.70308 0.77503 0.0
C189 C 0.3532 0.68878 0.78632 0.0
C190 C 0.33789 0.70643 0.79697 0.0
C191 C 0.33687 0.75819 0.79851 0.0
H192 H 0.35326 0.77312 0.79736 0.0
H193 H 0.31949 0.76535 0.79016 0.0
H194 H 0.33059 0.75646 0.81342 0.0
O195 O 0.41988 0.75688 0.76675 0.0
O196 O 0.43093 0.71433 0.76248 0.0
H197 H 0.36137 0.64953 0.79704 0.0
H198 H 0.32843 0.65355 0.78743 0.0
C199 C 0.34985 0.65899 0.78548 0.0
H200 H 0.35701 0.65106 0.77182 0.0
H201 H 0.4075 0.65827 0.79118 0.0
O202 O 0.36517 0.78984 0.76377 0.0
C203 C 0.43748 0.73848 0.76592 0.0
Co204 Co 0.75576 0.62224 0.24155 0.0
Co205 Co 0.69701 0.59961 0.24117 0.0
C206 C 0.72079 0.62126 0.27622 0.0
O207 O 0.74237 0.62617 0.26735 0.0
O208 O 0.70054 0.61091 0.26801 0.0
C209 C 0.79551 0.66101 0.2507 0.0
O210 O 0.77576 0.67161 0.26042 0.0
C211 C 0.64016 0.58396 0.24684 0.0
C212 C 0.63255 0.56244 0.22023 0.0
C213 C 0.6209 0.56915 0.23725 0.0
N214 N 0.66214 0.58577 0.23593 0.0
N215 N 0.65741 0.57283 0.22008 0.0
C216 C 0.6378 0.59645 0.26586 0.0
H217 H 0.64814 0.61614 0.26598 0.0
H218 H 0.61647 0.59925 0.26988 0.0
H219 H 0.64773 0.5833 0.27634 0.0
C220 C 0.73357 0.65618 0.21123 0.0
N221 N 0.73089 0.63697 0.22436 0.0
N222 N 0.70604 0.62803 0.22427 0.0
C223 C 0.69203 0.6414 0.211 0.0
C224 C 0.70908 0.65959 0.20219 0.0
C225 C 0.7589 0.6717 0.20818 0.0
H226 H 0.76445 0.68193 0.22143 0.0
H227 H 0.7568 0.68712 0.19707 0.0
H228 H 0.77539 0.65769 0.20451 0.0
O229 O 0.76235 0.58386 0.2367 0.0
O230 O 0.72072 0.56839 0.23713 0.0
H231 H 0.66286 0.61647 0.19781 0.0
H232 H 0.6543 0.65126 0.1973 0.0
C233 C 0.66349 0.63535 0.206 0.0
H234 H 0.65148 0.63259 0.21898 0.0
H235 H 0.67148 0.57045 0.20936 0.0
O236 O 0.79101 0.6404 0.2407 0.0
C237 C 0.74583 0.56451 0.2356 0.0
Co238 Co 0.61845 0.24346 0.76302 0.0
Co239 Co 0.60125 0.30359 0.75842 0.0
C240 C 0.61751 0.27266 0.72532 0.0
O241 O 0.62039 0.2525 0.73606 0.0
O242 O 0.61061 0.29543 0.73184 0.0
C243 C 0.65616 0.20351 0.75478 0.0
O244 O 0.6651 0.22265 0.74377 0.0
C245 C 0.58653 0.35961 0.74897 0.0
C246 C 0.57432 0.37442 0.77696 0.0
C247 C 0.57617 0.38182 0.75826 0.0
N248 N 0.59056 0.34002 0.76167 0.0
N249 N 0.58314 0.34905 0.77834 0.0
C250 C 0.59299 0.35703 0.72853 0.0
H251 H 0.57758 0.34431 0.72167 0.0
H252 H 0.61272 0.34703 0.72682 0.0
H253 H 0.59361 0.37688 0.72152 0.0
C254 C 0.65526 0.26735 0.79074 0.0
N255 N 0.63606 0.2696 0.77756 0.0
N256 N 0.63009 0.29506 0.77511 0.0
C257 C 0.64592 0.30992 0.78645 0.0
C258 C 0.66226 0.29284 0.79681 0.0
C259 C 0.6652 0.24111 0.79822 0.0
H260 H 0.64871 0.2262 0.79829 0.0
H261 H 0.68142 0.23356 0.78895 0.0
H262 H 0.67321 0.24325 0.81269 0.0
O263 O 0.5804 0.24038 0.7699 0.0
O264 O 0.56853 0.28263 0.76484 0.0
H265 H 0.63199 0.34733 0.79731 0.0
H266 H 0.66674 0.34727 0.79067 0.0
C267 C 0.64651 0.3399 0.78671 0.0
H268 H 0.64098 0.34803 0.77274 0.0
H269 H 0.58355 0.33761 0.79061 0.0
O270 O 0.63619 0.20811 0.76541 0.0
C271 C 0.56254 0.25859 0.7692 0.0
Co272 Co 0.7414 0.61586 0.51167 0.0
Co273 Co 0.80215 0.60139 0.50587 0.0
C274 C 0.77002 0.6188 0.47371 0.0
O275 O 0.74994 0.62016 0.48473 0.0
O276 O 0.79323 0.6123 0.47974 0.0
C277 C 0.699 0.65276 0.50679 0.0
O278 O 0.71794 0.66615 0.49802 0.0
C279 C 0.85839 0.58588 0.49662 0.0
C280 C 0.87285 0.57526 0.52501 0.0
C281 C 0.88037 0.57549 0.50629 0.0
N282 N 0.83888 0.59135 0.50916 0.0
N283 N 0.84775 0.58492 0.52606 0.0
C284 C 0.85582 0.59073 0.47597 0.0
H285 H 0.84438 0.60945 0.47343 0.0
H286 H 0.87581 0.59238 0.46921 0.0
H287 H 0.84457 0.57389 0.46951 0.0
C288 C 0.76453 0.65262 0.53979 0.0
N289 N 0.76707 0.63374 0.52643 0.0
N290 N 0.79268 0.62895 0.52342 0.0
C291 C 0.80731 0.64535 0.53449 0.0
C292 C 0.78996 0.66074 0.54533 0.0
C293 C 0.73821 0.66158 0.54774 0.0
H294 H 0.72355 0.64488 0.54739 0.0
H295 H 0.73028 0.6783 0.53909 0.0
H296 H 0.74053 0.66868 0.56243 0.0
O297 O 0.7402 0.57756 0.51763 0.0
O298 O 0.78246 0.56747 0.51099 0.0
H299 H 0.84631 0.63443 0.54434 0.0
H300 H 0.84346 0.66873 0.537 0.0
C301 C 0.8372 0.6479 0.53371 0.0
H302 H 0.84476 0.64229 0.51959 0.0
H303 H 0.83626 0.58627 0.53828 0.0
O304 O 0.7049 0.63075 0.51476 0.0
C305 C 0.75888 0.56045 0.51575 0.0
Co306 Co 0.62193 0.25406 0.4912 0.0
Co307 Co 0.60024 0.19517 0.49324 0.0
C308 C 0.61958 0.22112 0.52746 0.0
O309 O 0.62369 0.24207 0.51768 0.0
O310 O 0.61092 0.19959 0.51997 0.0
C311 C 0.66207 0.29137 0.50095 0.0
O312 O 0.66928 0.27174 0.51217 0.0
C313 C 0.58228 0.13902 0.49913 0.0
C314 C 0.56601 0.13012 0.47091 0.0
C315 C 0.56942 0.11932 0.48866 0.0
N316 N 0.58623 0.16045 0.48798 0.0
N317 N 0.57637 0.15497 0.47119 0.0
C318 C 0.59125 0.13746 0.51915 0.0
H319 H 0.61123 0.147 0.52066 0.0
H320 H 0.59238 0.11638 0.52406 0.0
H321 H 0.57685 0.14866 0.52809 0.0
C322 C 0.65575 0.2303 0.46164 0.0
N323 N 0.63701 0.22818 0.47515 0.0
N324 N 0.62919 0.20307 0.47651 0.0
C325 C 0.64339 0.18821 0.46413 0.0
C326 C 0.66042 0.20507 0.45417 0.0
C327 C 0.66925 0.25605 0.45642 0.0
H328 H 0.68199 0.2627 0.46831 0.0
H329 H 0.68211 0.25388 0.4438 0.0
H330 H 0.65388 0.27176 0.45393 0.0
O331 O 0.58407 0.26095 0.48487 0.0
O332 O 0.56926 0.21941 0.48881 0.0
H333 H 0.6585 0.14945 0.45566 0.0
H334 H 0.63451 0.14885 0.47471 0.0
C335 C 0.63994 0.1587 0.46127 0.0
H336 H 0.62368 0.15527 0.45092 0.0
H337 H 0.57633 0.16844 0.45997 0.0
O338 O 0.6423 0.28806 0.4899 0.0
C339 C 0.56494 0.24411 0.48547 0.0
Co340 Co 0.2535 0.37544 0.50891 0.0
Co341 Co 0.19359 0.39463 0.50538 0.0
C342 C 0.22308 0.37808 0.47169 0.0
O343 O 0.24341 0.37441 0.48216 0.0
O344 O 0.20064 0.38553 0.47854 0.0
C345 C 0.29375 0.33829 0.49911 0.0
O346 O 0.2747 0.32997 0.48777 0.0
C347 C 0.13743 0.41154 0.49743 0.0
C348 C 0.12531 0.42519 0.52572 0.0
C349 C 0.11649 0.42353 0.5073 0.0
N350 N 0.15764 0.40663 0.50952 0.0
N351 N 0.15016 0.41482 0.52638 0.0
C352 C 0.13823 0.40431 0.47705 0.0
H353 H 0.14889 0.38499 0.47516 0.0
H354 H 0.1177 0.40256 0.47115 0.0
H355 H 0.14942 0.41999 0.46925 0.0
C356 C 0.22937 0.33872 0.53648 0.0
N357 N 0.22727 0.3583 0.52359 0.0
N358 N 0.20192 0.36521 0.5217 0.0
C359 C 0.18696 0.34965 0.53316 0.0
C360 C 0.20388 0.33243 0.54296 0.0
C361 C 0.25559 0.32776 0.54331 0.0
H362 H 0.271 0.34379 0.54335 0.0
H363 H 0.26233 0.31168 0.53363 0.0
H364 H 0.25376 0.31935 0.55768 0.0
O365 O 0.25769 0.41308 0.51623 0.0
O366 O 0.21579 0.42658 0.5117 0.0
H367 H 0.15067 0.36516 0.54482 0.0
H368 H 0.14893 0.33042 0.53825 0.0
C369 C 0.15699 0.35031 0.5341 0.0
H370 H 0.14847 0.35619 0.52031 0.0
H371 H 0.16239 0.414 0.53827 0.0
O372 O 0.28884 0.35723 0.51055 0.0
C373 C 0.24013 0.43157 0.5159 0.0
Co374 Co 0.37005 0.74343 0.49533 0.0
Co375 Co 0.39869 0.79925 0.4926 0.0
C376 C 0.37452 0.78056 0.52848 0.0
O377 O 0.3664 0.75935 0.52041 0.0
O378 O 0.38788 0.79835 0.51966 0.0
C379 C 0.35013 0.69565 0.50993 0.0
O380 O 0.36627 0.70302 0.52358 0.0
C381 C 0.41718 0.85537 0.49625 0.0
C382 C 0.44111 0.85948 0.47026 0.0
C383 C 0.43355 0.873 0.48641 0.0
N384 N 0.4153 0.83247 0.48636 0.0
N385 N 0.42969 0.8351 0.47087 0.0
C386 C 0.40298 0.86023 0.51444 0.0
H387 H 0.38297 0.85052 0.51417 0.0
H388 H 0.40056 0.882 0.51716 0.0
H389 H 0.41478 0.85115 0.52604 0.0
C390 C 0.33887 0.76605 0.46388 0.0
N391 N 0.35811 0.76801 0.47705 0.0
N392 N 0.36938 0.79181 0.47604 0.0
C393 C 0.35758 0.80584 0.46207 0.0
C394 C 0.33794 0.78987 0.45381 0.0
C395 C 0.32121 0.74201 0.46158 0.0
H396 H 0.31286 0.7362 0.47544 0.0
H397 H 0.30439 0.74589 0.45174 0.0
H398 H 0.3334 0.72496 0.45633 0.0
O399 O 0.40793 0.73276 0.49133 0.0
O400 O 0.42748 0.77252 0.48921 0.0
H401 H 0.38583 0.83128 0.44838 0.0
H402 H 0.35186 0.84266 0.44626 0.0
C403 C 0.36644 0.83312 0.4559 0.0
H404 H 0.36949 0.84614 0.46835 0.0
H405 H 0.43211 0.82 0.46087 0.0
O406 O 0.34829 0.71035 0.4954 0.0
C407 C 0.42883 0.74707 0.48917 0.0
Co408 Co 0.74185 0.87596 0.73783 0.0
Co409 Co 0.80086 0.8969 0.74133 0.0
C410 C 0.77546 0.87286 0.77396 0.0
O411 O 0.75446 0.87052 0.76391 0.0
O412 O 0.79719 0.88226 0.76716 0.0
C413 C 0.70559 0.83365 0.74419 0.0
O414 O 0.72672 0.82353 0.75264 0.0
C415 C 0.8554 0.91922 0.74778 0.0
C416 C 0.86247 0.93735 0.71985 0.0
C417 C 0.87329 0.935 0.73767 0.0
N418 N 0.83497 0.91257 0.73631 0.0
N419 N 0.83947 0.92339 0.71966 0.0
C420 C 0.85577 0.91337 0.76839 0.0
H421 H 0.83639 0.9196 0.77471 0.0
H422 H 0.85781 0.89143 0.77051 0.0
H423 H 0.87245 0.92388 0.77561 0.0
C424 C 0.76549 0.84598 0.70621 0.0
N425 N 0.76752 0.86319 0.72068 0.0
N426 N 0.79272 0.87048 0.72273 0.0
C427 C 0.80773 0.85735 0.70989 0.0
C428 C 0.7909 0.84168 0.69888 0.0
C429 C 0.7398 0.83299 0.70026 0.0
H430 H 0.73445 0.81727 0.71062 0.0
H431 H 0.74149 0.82347 0.68625 0.0
H432 H 0.72343 0.84808 0.70011 0.0
O433 O 0.73476 0.91435 0.73416 0.0
O434 O 0.7763 0.92811 0.7396 0.0
H435 H 0.84195 0.87649 0.69788 0.0
H436 H 0.84656 0.84145 0.70232 0.0
C437 C 0.8375 0.8601 0.70793 0.0
H438 H 0.84672 0.86493 0.72169 0.0
H439 H 0.82613 0.92226 0.70839 0.0
O440 O 0.70767 0.8561 0.73585 0.0
C441 C 0.75168 0.93311 0.73647 0.0
Co442 Co 0.87793 0.25584 0.26371 0.0
Co443 Co 0.89942 0.19704 0.26033 0.0
C444 C 0.87926 0.22473 0.22681 0.0
O445 O 0.87514 0.24523 0.23706 0.0
O446 O 0.88832 0.20295 0.23375 0.0
C447 C 0.83718 0.29447 0.25736 0.0
O448 O 0.82569 0.27441 0.24853 0.0
C449 C 0.92334 0.1435 0.25291 0.0
C450 C 0.93052 0.12993 0.28204 0.0
C451 C 0.93437 0.12271 0.26345 0.0
N452 N 0.91311 0.16182 0.26484 0.0
N453 N 0.91766 0.15358 0.28218 0.0
C454 C 0.92575 0.14786 0.23217 0.0
H455 H 0.92726 0.16958 0.22904 0.0
H456 H 0.90754 0.13991 0.22515 0.0
H457 H 0.94363 0.13747 0.22641 0.0
C458 C 0.84313 0.23097 0.29224 0.0
N459 N 0.86266 0.22951 0.27924 0.0
N460 N 0.87015 0.20439 0.27713 0.0
C461 C 0.85472 0.18888 0.28834 0.0
C462 C 0.83732 0.20524 0.29841 0.0
C463 C 0.83136 0.25671 0.29922 0.0
H464 H 0.8466 0.27288 0.2987 0.0
H465 H 0.81428 0.26246 0.29007 0.0
H466 H 0.82395 0.2546 0.31385 0.0
O467 O 0.91564 0.26174 0.26983 0.0
O468 O 0.93101 0.22058 0.26536 0.0
H469 H 0.86726 0.15124 0.29973 0.0
H470 H 0.8339 0.15123 0.29041 0.0
C471 C 0.85456 0.15888 0.28812 0.0
H472 H 0.8623 0.1512 0.27455 0.0
H473 H 0.91308 0.16473 0.29416 0.0
O474 O 0.85936 0.2906 0.26572 0.0
C475 C 0.93498 0.2452 0.26915 0.0
Co476 Co 0.2586 0.1215 0.73895 0.0
Co477 Co 0.20014 0.09812 0.73973 0.0
C478 C 0.22396 0.11981 0.77425 0.0
O479 O 0.24523 0.12447 0.76494 0.0
O480 O 0.20325 0.1098 0.76642 0.0
C481 C 0.29467 0.16326 0.74796 0.0
O482 O 0.27362 0.17212 0.75717 0.0
C483 C 0.1455 0.07579 0.74537 0.0
C484 C 0.13806 0.05944 0.71696 0.0
C485 C 0.12721 0.06104 0.73482 0.0
N486 N 0.16607 0.08267 0.73409 0.0
N487 N 0.16142 0.07283 0.71717 0.0
C488 C 0.14536 0.08029 0.76615 0.0
H489 H 0.16498 0.07414 0.77211 0.0
H490 H 0.14274 0.102 0.76899 0.0
H491 H 0.12919 0.06884 0.77321 0.0
C492 C 0.23529 0.15371 0.70821 0.0
N493 N 0.2331 0.1352 0.72186 0.0
N494 N 0.2081 0.1268 0.7228 0.0
C495 C 0.19337 0.14043 0.71005 0.0
C496 C 0.2102 0.15768 0.70026 0.0
C497 C 0.26086 0.16788 0.70343 0.0
H498 H 0.27739 0.15308 0.70221 0.0
H499 H 0.26596 0.18188 0.71498 0.0
H500 H 0.25916 0.17954 0.69022 0.0
O501 O 0.26667 0.08354 0.734 0.0
O502 O 0.2252 0.06777 0.73584 0.0
H503 H 0.16114 0.12044 0.69617 0.0
H504 H 0.15446 0.15493 0.70137 0.0
C505 C 0.16398 0.13641 0.70682 0.0
H506 H 0.15394 0.13036 0.72005 0.0
H507 H 0.17478 0.07433 0.70594 0.0
O508 O 0.29256 0.14201 0.7382 0.0
C509 C 0.25026 0.06404 0.73367 0.0
Co510 Co 0.12383 0.74269 0.25866 0.0
Co511 Co 0.09992 0.801 0.25896 0.0
C512 C 0.1188 0.77617 0.22348 0.0
O513 O 0.12547 0.75522 0.23251 0.0
O514 O 0.1083 0.79631 0.23169 0.0
C515 C 0.16332 0.70432 0.24858 0.0
O516 O 0.17183 0.72411 0.23796 0.0
C517 C 0.08348 0.85744 0.25265 0.0
C518 C 0.06552 0.86697 0.28025 0.0
C519 C 0.07038 0.87752 0.26259 0.0
N520 N 0.08621 0.83601 0.26399 0.0
N521 N 0.07531 0.84186 0.28041 0.0
C522 C 0.09376 0.85864 0.23293 0.0
H523 H 0.11371 0.84884 0.23213 0.0
H524 H 0.09544 0.87965 0.22794 0.0
H525 H 0.07983 0.84751 0.22361 0.0
C526 C 0.15869 0.76611 0.28783 0.0
N527 N 0.13915 0.76835 0.2749 0.0
N528 N 0.13013 0.79316 0.27468 0.0
C529 C 0.14407 0.80765 0.28741 0.0
C530 C 0.16244 0.79089 0.29629 0.0
C531 C 0.17373 0.74069 0.29162 0.0
H532 H 0.18456 0.73463 0.27869 0.0
H533 H 0.1886 0.74297 0.30308 0.0
H534 H 0.15934 0.72451 0.29517 0.0
O535 O 0.08593 0.7355 0.26506 0.0
O536 O 0.06967 0.77688 0.26508 0.0
H537 H 0.15587 0.84608 0.29891 0.0
H538 H 0.13358 0.8476 0.27894 0.0
C539 C 0.13854 0.83641 0.29194 0.0
H540 H 0.1212 0.83751 0.30167 0.0
H541 H 0.07415 0.82847 0.29165 0.0
O542 O 0.14341 0.70817 0.25942 0.0
C543 C 0.06643 0.75173 0.26698 0.0
H544 H 0.22825 0.14132 0.95467 0.0
H545 H 0.21986 0.14382 0.92108 0.0
H546 H 0.29644 0.10672 0.9101 0.0
H547 H 0.30496 0.10364 0.94402 0.0
H548 H 0.24731 0.16834 0.8923 0.0
H549 H 0.24305 0.05791 0.88249 0.0
H550 H 0.24256 0.07342 0.90539 0.0
H551 H 0.27361 0.07012 0.89278 0.0
C552 C 0.24347 0.13376 0.94518 0.0
C553 C 0.26721 0.122 0.95207 0.0
C554 C 0.2386 0.13527 0.92595 0.0
C555 C 0.25727 0.12503 0.91313 0.0
C556 C 0.28152 0.11426 0.91982 0.0
H557 H 0.26108 0.14843 0.79377 0.0
H558 H 0.26667 0.15103 0.82764 0.0
C559 C 0.28647 0.11272 0.93918 0.0
C560 C 0.2508 0.12531 0.89282 0.0
H561 H 0.23947 0.08463 0.85509 0.0
C562 C 0.2456 0.15005 0.88415 0.0
C563 C 0.24797 0.10137 0.88236 0.0
C564 C 0.25183 0.07416 0.89122 0.0
C565 C 0.23816 0.15153 0.86517 0.0
C566 C 0.23627 0.12766 0.85454 0.0
C567 C 0.24097 0.10289 0.86329 0.0
C568 C 0.23106 0.12801 0.83406 0.0
C569 C 0.23212 0.17861 0.85672 0.0
C570 C 0.20912 0.11415 0.82638 0.0
C571 C 0.20584 0.11252 0.80686 0.0
C572 C 0.2247 0.12445 0.79479 0.0
C573 C 0.24616 0.13898 0.80263 0.0
C574 C 0.24934 0.14065 0.82204 0.0
H575 H 0.22653 0.19346 0.86768 0.0
H576 H 0.25028 0.18618 0.84943 0.0
H577 H 0.21558 0.17732 0.84631 0.0
H578 H 0.19486 0.10415 0.83548 0.0
H579 H 0.1892 0.10107 0.80127 0.0
H580 H 0.08658 0.69684 0.05302 0.0
H581 H 0.0863 0.70695 0.08678 0.0
H582 H 0.15534 0.75807 0.07952 0.0
H583 H 0.15495 0.74899 0.04584 0.0
H584 H 0.11978 0.70129 0.11528 0.0
H585 H 0.10415 0.80965 0.10326 0.0
H586 H 0.10202 0.78535 0.08457 0.0
H587 H 0.13415 0.79806 0.092 0.0
C588 C 0.1019 0.70991 0.05873 0.0
C589 C 0.12057 0.72241 0.04683 0.0
C590 C 0.10165 0.7158 0.07796 0.0
C591 C 0.12023 0.73403 0.08555 0.0
C592 C 0.14015 0.74481 0.07387 0.0
H593 H 0.15737 0.75105 0.20322 0.0
H594 H 0.15741 0.74244 0.16947 0.0
C595 C 0.14011 0.73935 0.05467 0.0
C596 C 0.11867 0.74215 0.10558 0.0
H597 H 0.11722 0.79693 0.13439 0.0
C598 C 0.11902 0.72219 0.11945 0.0
C599 C 0.11694 0.76943 0.11105 0.0
C600 C 0.11398 0.79181 0.09692 0.0
C601 C 0.11864 0.72875 0.13862 0.0
C602 C 0.11892 0.75608 0.14407 0.0
C603 C 0.11759 0.77602 0.13021 0.0
C604 C 0.12066 0.76427 0.16408 0.0
C605 C 0.11751 0.70624 0.15278 0.0
C606 C 0.10118 0.78123 0.17203 0.0
C607 C 0.1016 0.78689 0.1913 0.0
C608 C 0.12134 0.77541 0.20285 0.0
C609 C 0.14172 0.75987 0.19465 0.0
C610 C 0.14159 0.75468 0.17541 0.0
H611 H 0.10859 0.68784 0.1466 0.0
H612 H 0.13818 0.70122 0.15738 0.0
H613 H 0.10558 0.71198 0.16532 0.0
H614 H 0.08504 0.78917 0.16349 0.0
H615 H 0.08561 0.79885 0.19731 0.0
H616 H 0.76016 0.84371 0.9529 0.0
H617 H 0.76834 0.84014 0.91934 0.0
H618 H 0.69508 0.88329 0.9081 0.0
H619 H 0.68686 0.88748 0.94201 0.0
H620 H 0.74016 0.81887 0.88962 0.0
H621 H 0.75288 0.92912 0.88247 0.0
H622 H 0.75133 0.91263 0.90501 0.0
H623 H 0.72113 0.91862 0.89188 0.0
C624 C 0.74555 0.85226 0.94336 0.0
C625 C 0.72301 0.86624 0.95016 0.0
C626 C 0.75028 0.85011 0.92414 0.0
C627 C 0.73264 0.86192 0.91126 0.0
C628 C 0.70923 0.87452 0.91787 0.0
H629 H 0.73575 0.84455 0.79104 0.0
H630 H 0.72743 0.84002 0.82454 0.0
C631 C 0.70443 0.87668 0.93722 0.0
C632 C 0.73977 0.86199 0.89107 0.0
H633 H 0.75655 0.9034 0.85474 0.0
C634 C 0.74367 0.83734 0.88195 0.0
C635 C 0.745 0.88611 0.88127 0.0
C636 C 0.74264 0.91315 0.89065 0.0
C637 C 0.7523 0.83616 0.8632 0.0
C638 C 0.75673 0.8603 0.85325 0.0
C639 C 0.75315 0.88493 0.86242 0.0
C640 C 0.76366 0.86057 0.83302 0.0
C641 C 0.757 0.8091 0.85432 0.0
C642 C 0.78691 0.87362 0.82661 0.0
C643 C 0.79175 0.8764 0.80731 0.0
C644 C 0.77318 0.86644 0.79419 0.0
C645 C 0.75047 0.85251 0.80074 0.0
C646 C 0.74573 0.84972 0.81993 0.0
H647 H 0.76074 0.79342 0.8651 0.0
H648 H 0.73888 0.80319 0.84627 0.0
H649 H 0.7743 0.80964 0.8445 0.0
H650 H 0.80095 0.88224 0.83653 0.0
H651 H 0.80933 0.88734 0.80272 0.0
H652 H 0.89317 0.30982 0.05634 0.0
H653 H 0.89102 0.30238 0.09045 0.0
H654 H 0.8534 0.22571 0.08116 0.0
H655 H 0.85522 0.2329 0.04743 0.0
H656 H 0.82947 0.25576 0.10994 0.0
H657 H 0.94022 0.24807 0.11803 0.0
H658 H 0.92811 0.27823 0.1071 0.0
H659 H 0.92387 0.24662 0.09542 0.0
C660 C 0.88418 0.29154 0.0616 0.0
C661 C 0.87453 0.2719 0.04913 0.0
C662 C 0.88315 0.28723 0.08105 0.0
C663 C 0.87243 0.26329 0.08826 0.0
C664 C 0.86187 0.24424 0.07588 0.0
H665 H 0.89601 0.19112 0.19849 0.0
H666 H 0.89281 0.19922 0.16453 0.0
C667 C 0.86297 0.24843 0.05655 0.0
C668 C 0.8726 0.25744 0.10865 0.0
H669 H 0.9142 0.24426 0.14563 0.0
C670 C 0.84798 0.25334 0.11778 0.0
C671 C 0.8968 0.25374 0.1187 0.0
C672 C 0.9238 0.25665 0.10934 0.0
C673 C 0.84689 0.2459 0.13678 0.0
C674 C 0.87108 0.24281 0.14694 0.0
C675 C 0.89571 0.24665 0.13778 0.0
C676 C 0.87126 0.23669 0.1673 0.0
C677 C 0.81989 0.241 0.14573 0.0
C678 C 0.86003 0.25494 0.18001 0.0
C679 C 0.86176 0.25038 0.19929 0.0
C680 C 0.87493 0.22749 0.20631 0.0
C681 C 0.88561 0.20883 0.19353 0.0
C682 C 0.88392 0.2135 0.17416 0.0
H683 H 0.8042 0.23684 0.13503 0.0
H684 H 0.82076 0.2239 0.1557 0.0
H685 H 0.81375 0.25914 0.15366 0.0
H686 H 0.85058 0.27317 0.17503 0.0
H687 H 0.8533 0.2652 0.2087 0.0
H688 H 0.31026 0.39405 0.30216 0.0
H689 H 0.30245 0.39113 0.33617 0.0
H690 H 0.22916 0.34752 0.32616 0.0
H691 H 0.23679 0.35007 0.29245 0.0
H692 H 0.2564 0.4123 0.35455 0.0
H693 H 0.26664 0.30299 0.36694 0.0
H694 H 0.2796 0.31926 0.34617 0.0
H695 H 0.2445 0.31138 0.34792 0.0
C696 C 0.2928 0.38337 0.30724 0.0
C697 C 0.27414 0.37234 0.2946 0.0
C698 C 0.28829 0.38183 0.32664 0.0
C699 C 0.26532 0.36893 0.33364 0.0
C700 C 0.2472 0.35719 0.32107 0.0
H701 H 0.18852 0.39207 0.44306 0.0
H702 H 0.19734 0.38937 0.40913 0.0
C703 C 0.25158 0.35881 0.30177 0.0
C704 C 0.25909 0.36923 0.35396 0.0
H705 H 0.24636 0.32849 0.39143 0.0
C706 C 0.25436 0.39401 0.36268 0.0
C707 C 0.25645 0.34532 0.36445 0.0
C708 C 0.26229 0.31823 0.35597 0.0
C709 C 0.24673 0.39551 0.38163 0.0
C710 C 0.24341 0.37155 0.392 0.0
C711 C 0.24849 0.34679 0.38333 0.0
C712 C 0.23684 0.37185 0.41227 0.0
C713 C 0.2428 0.42269 0.39051 0.0
C714 C 0.25571 0.3621 0.42512 0.0
C715 C 0.25074 0.3635 0.44433 0.0
C716 C 0.22665 0.37459 0.45118 0.0
C717 C 0.20726 0.38349 0.43825 0.0
C718 C 0.21235 0.38213 0.4189 0.0
H719 H 0.25129 0.43903 0.38173 0.0
H720 H 0.22102 0.42651 0.39231 0.0
H721 H 0.25233 0.42344 0.40461 0.0
H722 H 0.27467 0.35399 0.42028 0.0
H723 H 0.26612 0.35631 0.45382 0.0
H724 H 0.40322 0.6965 0.69583 0.0
H725 H 0.4012 0.70831 0.6624 0.0
H726 H 0.34085 0.76791 0.67449 0.0
H727 H 0.34371 0.75706 0.70788 0.0
H728 H 0.36442 0.70838 0.636 0.0
H729 H 0.39528 0.81335 0.64852 0.0
H730 H 0.39611 0.78826 0.66674 0.0
H731 H 0.3652 0.80517 0.66106 0.0
C732 C 0.38929 0.71185 0.69127 0.0
C733 C 0.37384 0.72608 0.70442 0.0
C734 C 0.38824 0.71869 0.67221 0.0
C735 C 0.37153 0.73964 0.66603 0.0
C736 C 0.35466 0.75243 0.67901 0.0
H737 H 0.33174 0.76356 0.54873 0.0
H738 H 0.3301 0.7562 0.58266 0.0
C739 C 0.35608 0.74599 0.69805 0.0
C740 C 0.37193 0.74835 0.64608 0.0
H741 H 0.37866 0.80337 0.61784 0.0
C742 C 0.36766 0.72912 0.63203 0.0
C743 C 0.3768 0.77535 0.64086 0.0
C744 C 0.3839 0.79664 0.65508 0.0
C745 C 0.36755 0.73618 0.61295 0.0
C746 C 0.37074 0.76345 0.6078 0.0
C747 C 0.37564 0.78259 0.62182 0.0
C748 C 0.36974 0.77226 0.5879 0.0
C749 C 0.3647 0.71415 0.59854 0.0
C750 C 0.39154 0.78596 0.57983 0.0
C751 C 0.39209 0.79104 0.56049 0.0
C752 C 0.371 0.78219 0.54899 0.0
C753 C 0.34835 0.77037 0.55731 0.0
C754 C 0.34755 0.76584 0.57663 0.0
H755 H 0.37087 0.6944 0.60433 0.0
H756 H 0.34336 0.71254 0.59426 0.0
H757 H 0.37695 0.71833 0.58584 0.0
H758 H 0.40874 0.79141 0.5883 0.0
H759 H 0.40985 0.80004 0.55438 0.0
H760 H 0.72512 0.63941 0.45738 0.0
H761 H 0.71477 0.64241 0.42402 0.0
H762 H 0.79341 0.61195 0.4105 0.0
H763 H 0.80396 0.60844 0.44409 0.0
H764 H 0.73939 0.66996 0.39471 0.0
H765 H 0.74192 0.55972 0.38378 0.0
H766 H 0.7412 0.57472 0.40685 0.0
H767 H 0.77199 0.5736 0.39374 0.0
C768 C 0.74036 0.63344 0.44737 0.0
C769 C 0.76531 0.62339 0.45343 0.0
C770 C 0.73437 0.63524 0.42829 0.0
C771 C 0.75311 0.62694 0.41484 0.0
C772 C 0.77848 0.61796 0.42073 0.0
H773 H 0.75556 0.65204 0.2962 0.0
H774 H 0.76 0.65493 0.33015 0.0
C775 C 0.78455 0.61617 0.4399 0.0
C776 C 0.74566 0.62724 0.39471 0.0
H777 H 0.73639 0.58672 0.35663 0.0
C778 C 0.73867 0.65177 0.38638 0.0
C779 C 0.74414 0.60339 0.38403 0.0
C780 C 0.74995 0.5763 0.39255 0.0
C781 C 0.73094 0.65319 0.36745 0.0
C782 C 0.7305 0.62948 0.35657 0.0
C783 C 0.73678 0.60487 0.36503 0.0
C784 C 0.72555 0.62997 0.33607 0.0
C785 C 0.72321 0.68001 0.35928 0.0
C786 C 0.7046 0.61498 0.32808 0.0
C787 C 0.70197 0.61321 0.30852 0.0
C788 C 0.72056 0.62609 0.29673 0.0
C789 C 0.74092 0.64181 0.30486 0.0
C790 C 0.74342 0.64366 0.3243 0.0
H791 H 0.71675 0.69425 0.3704 0.0
H792 H 0.74085 0.68882 0.35205 0.0
H793 H 0.70676 0.6779 0.34886 0.0
H794 H 0.6907 0.60414 0.33698 0.0
H795 H 0.68617 0.60086 0.30269 0.0
H796 H 0.64555 0.26055 0.54662 0.0
H797 H 0.6479 0.26696 0.58043 0.0
H798 H 0.60472 0.19311 0.58906 0.0
H799 H 0.6021 0.18645 0.55491 0.0
H800 H 0.58331 0.23878 0.60826 0.0
H801 H 0.69267 0.2277 0.62054 0.0
H802 H 0.68432 0.25027 0.60176 0.0
H803 H 0.67629 0.21527 0.59964 0.0
C804 C 0.63685 0.24538 0.55563 0.0
C805 C 0.62359 0.22296 0.54803 0.0
C806 C 0.63835 0.24906 0.575 0.0
C807 C 0.62671 0.23041 0.58722 0.0
C808 C 0.61395 0.20766 0.5798 0.0
H809 H 0.6389 0.22898 0.70797 0.0
H810 H 0.64125 0.21974 0.67446 0.0
C811 C 0.61257 0.20383 0.56032 0.0
C812 C 0.6264 0.23588 0.60765 0.0
H813 H 0.66722 0.24755 0.64526 0.0
C814 C 0.60162 0.24051 0.61642 0.0
C815 C 0.65033 0.23809 0.61819 0.0
C816 C 0.67742 0.23234 0.60962 0.0
C817 C 0.60016 0.24777 0.63544 0.0
C818 C 0.62415 0.25079 0.64583 0.0
C819 C 0.6489 0.24564 0.63715 0.0
C820 C 0.62388 0.25761 0.66606 0.0
C821 C 0.57298 0.25178 0.64434 0.0
C822 C 0.61392 0.28234 0.67245 0.0
C823 C 0.61257 0.28781 0.69173 0.0
C824 C 0.62114 0.26857 0.70487 0.0
C825 C 0.63194 0.24422 0.69829 0.0
C826 C 0.63335 0.23887 0.67911 0.0
H827 H 0.5566 0.24332 0.63557 0.0
H828 H 0.57221 0.24232 0.65845 0.0
H829 H 0.5692 0.27356 0.64609 0.0
H830 H 0.60692 0.29725 0.66253 0.0
H831 H 0.60421 0.30675 0.69634 0.0
H832 H 0.28344 0.01873 0.01615 0.0
H833 H 0.26945 0.97186 0.01554 0.0
H834 H 0.1866 0.99614 0.0192 0.0
H835 H 0.20031 0.04323 0.01994 0.0
H836 H 0.20163 0.95006 0.04206 0.0
H837 H 0.23296 0.94164 0.96728 0.0
H838 H 0.25817 0.9539 0.98316 0.0
H839 H 0.22857 0.97352 0.97888 0.0
C840 C 0.26223 0.01417 0.01706 0.0
C841 C 0.24295 0.03477 0.01785 0.0
C842 C 0.25432 0.98737 0.01665 0.0
C843 C 0.22703 0.98069 0.01697 0.0
C844 C 0.20777 0.00101 0.01882 0.0
H845 H 0.14704 0.83716 0.97994 0.0
H846 H 0.16394 0.88267 0.98465 0.0
C847 C 0.21566 0.02788 0.01924 0.0
C848 C 0.21852 0.95261 0.0143 0.0
H849 H 0.21765 0.90206 0.98201 0.0
C850 C 0.20516 0.93948 0.02898 0.0
C851 C 0.22292 0.93913 0.99709 0.0
C852 C 0.23623 0.95275 0.98061 0.0
C853 C 0.19622 0.91297 0.02695 0.0
C854 C 0.20104 0.89935 0.00985 0.0
C855 C 0.21424 0.91257 0.99514 0.0
C856 C 0.1917 0.87164 0.0067 0.0
C857 C 0.1812 0.89992 0.04292 0.0
C858 C 0.20224 0.85037 0.01725 0.0
C859 C 0.1927 0.82433 0.01457 0.0
C860 C 0.17248 0.81919 0.00126 0.0
C861 C 0.16254 0.84048 0.99035 0.0
C862 C 0.17214 0.86647 0.99301 0.0
H863 H 0.17428 0.91483 0.05345 0.0
H864 H 0.16353 0.88871 0.03759 0.0
H865 H 0.19463 0.88545 0.05012 0.0
H866 H 0.2177 0.85395 0.02764 0.0
H867 H 0.20083 0.80836 0.02316 0.0
H868 H 0.02002 0.71368 0.97362 0.0
H869 H 0.97336 0.72863 0.97317 0.0
H870 H 0.99876 0.80906 0.98653 0.0
H871 H 0.0455 0.79446 0.9865 0.0
H872 H 0.94696 0.74814 0.0029 0.0
H873 H 0.94479 0.82343 0.94575 0.0
H874 H 0.97223 0.80018 0.94869 0.0
H875 H 0.97055 0.83019 0.96268 0.0
C876 C 0.01572 0.73467 0.9761 0.0
C877 C 0.03647 0.75289 0.98013 0.0
C878 C 0.98904 0.74317 0.97585 0.0
C879 C 0.98258 0.77 0.97964 0.0
C880 C 0.00329 0.7884 0.98311 0.0
H881 H 0.84021 0.85597 0.01163 0.0
H882 H 0.88578 0.83915 0.00673 0.0
C883 C 0.03003 0.77998 0.98319 0.0
C884 C 0.95416 0.77815 0.9817 0.0
H885 H 0.90777 0.82415 0.96729 0.0
C886 C 0.9383 0.76454 0.99494 0.0
C887 C 0.94292 0.79958 0.97132 0.0
C888 C 0.95844 0.81401 0.95618 0.0
C889 C 0.91172 0.77224 0.99842 0.0
C890 C 0.9008 0.79407 0.98841 0.0
C891 C 0.91642 0.80749 0.975 0.0
C892 C 0.87322 0.80351 0.99187 0.0
C893 C 0.8956 0.75751 0.01309 0.0
C894 C 0.85123 0.78883 0.98522 0.0
C895 C 0.82517 0.79839 0.98792 0.0
C896 C 0.82076 0.82274 0.99738 0.0
C897 C 0.84291 0.8371 0.00435 0.0
C898 C 0.86895 0.82761 0.00151 0.0
H899 H 0.90802 0.74308 0.0212 0.0
H900 H 0.8863 0.77198 0.023 0.0
H901 H 0.87914 0.74629 0.00613 0.0
H902 H 0.85428 0.77021 0.97768 0.0
H903 H 0.80854 0.78688 0.98237 0.0
H904 H 0.71836 0.9745 0.99508 0.0
H905 H 0.73449 0.02057 0.99406 0.0
H906 H 0.80466 0.99759 0.02576 0.0
H907 H 0.78922 0.95099 0.02597 0.0
H908 H 0.74393 0.05625 0.01953 0.0
H909 H 0.83947 0.03469 0.98273 0.0
H910 H 0.81373 0.0097 0.98574 0.0
H911 H 0.83674 0.01702 0.00457 0.0
C912 C 0.73723 0.97924 0.00186 0.0
C913 C 0.75266 0.95911 0.01047 0.0
C914 C 0.74643 0.0056 0.00126 0.0
C915 C 0.77107 0.01247 0.00948 0.0
C916 C 0.78602 0.99261 0.01878 0.0
H917 H 0.81571 0.17786 0.03174 0.0
H918 H 0.79903 0.13197 0.03367 0.0
C919 C 0.77708 0.96605 0.01904 0.0
C920 C 0.78083 0.04049 0.00826 0.0
H921 H 0.83398 0.07888 0.99456 0.0
C922 C 0.76358 0.0612 0.01398 0.0
C923 C 0.80628 0.04699 0.00069 0.0
C924 C 0.825 0.02595 0.9929 0.0
C925 C 0.77106 0.0882 0.01241 0.0
C926 C 0.79698 0.09463 0.00566 0.0
C927 C 0.81419 0.07394 -0.00013 0.0
C928 C 0.80672 0.12265 0.00444 0.0
C929 C 0.75073 0.10944 0.01748 0.0
C930 C 0.8175 0.13245 0.98753 0.0
C931 C 0.82775 0.15847 0.98654 0.0
C932 C 0.82705 0.17522 0.00238 0.0
C933 C 0.81608 0.1655 0.01923 0.0
C934 C 0.80638 0.13932 0.02032 0.0
H935 H 0.72989 0.10177 0.01616 0.0
H936 H 0.75374 0.11553 0.03233 0.0
H937 H 0.7528 0.12744 0.00843 0.0
H938 H 0.81807 0.11992 0.97511 0.0
H939 H 0.83612 0.16551 0.97339 0.0
H940 H 0.1863 0.20059 0.97837 0.0
H941 H 0.14126 0.21912 0.9741 0.0
H942 H 0.1108 0.16563 0.01663 0.0
H943 H 0.15576 0.14696 0.02105 0.0
H944 H 0.09389 0.18834 0.96387 0.0
H945 H 0.08365 0.24174 0.03204 0.0
H946 H 0.11576 0.23178 0.02255 0.0
H947 H 0.09448 0.20743 0.03364 0.0
C948 C 0.1701 0.19295 0.98697 0.0
C949 C 0.17459 0.17232 8e-05 0.0
C950 C 0.14439 0.2035 0.98445 0.0
C951 C 0.12285 0.19382 0.99513 0.0
C952 C 0.12729 0.17354 0.00841 0.0
H953 H 0.95164 0.20446 0.97997 0.0
H954 H 0.99862 0.19034 0.98037 0.0
C955 C 0.15296 0.16286 0.01088 0.0
C956 C 0.09551 0.20432 0.99196 0.0
H957 H 0.04445 0.23806 0.01333 0.0
C958 C 0.08307 0.19935 0.97461 0.0
C959 C 0.08168 0.21884 0.00597 0.0
C960 C 0.09458 0.22552 0.02456 0.0
C961 C 0.05677 0.20805 0.97107 0.0
C962 C 0.04265 0.22186 0.9853 0.0
C963 C 0.05534 0.22734 0.00248 0.0
C964 C 0.0145 0.23053 0.98288 0.0
C965 C 0.04434 0.20254 0.95214 0.0
C966 C 0.00796 0.2578 0.98403 0.0
C967 C 0.98118 0.26596 0.98384 0.0
C968 C 0.96041 0.24692 0.98267 0.0
C969 C 0.96711 0.21965 0.98084 0.0
C970 C 0.99395 0.21153 0.98099 0.0
H971 H 0.05976 0.19768 0.94139 0.0
H972 H 0.03056 0.18516 0.95333 0.0
H973 H 0.03249 0.22005 0.94723 0.0
H974 H 0.02359 0.27274 0.98553 0.0
H975 H 0.97678 0.28713 0.98523 0.0
H976 H 0.20296 0.68838 0.22452 0.0
H977 H 0.22087 0.64312 0.22033 0.0
H978 H 0.16911 0.61414 0.26441 0.0
H979 H 0.15118 0.65935 0.26884 0.0
H980 H 0.2232 0.59575 0.26646 0.0
H981 H 0.17827 0.58094 0.1957 0.0
H982 H 0.19816 0.61073 0.19846 0.0
H983 H 0.16748 0.60719 0.21145 0.0
C984 C 0.19548 0.67243 0.23341 0.0
C985 C 0.17552 0.67742 0.24694 0.0
C986 C 0.20562 0.64657 0.2309 0.0
C987 C 0.19595 0.6253 0.24185 0.0
C988 C 0.17666 0.63033 0.25575 0.0
H989 H 0.20668 0.45403 0.22857 0.0
H990 H 0.19275 0.501 0.22973 0.0
C991 C 0.16646 0.65616 0.25825 0.0
C992 C 0.20585 0.59771 0.23881 0.0
H993 H 0.20674 0.54653 0.20697 0.0
C994 C 0.21969 0.58498 0.25345 0.0
C995 C 0.20093 0.58372 0.22187 0.0
C996 C 0.18521 0.59618 0.20599 0.0
C997 C 0.22889 0.55855 0.25159 0.0
C998 C 0.22435 0.5447 0.23454 0.0
C999 C 0.21038 0.55737 0.21993 0.0
C1000 C 0.23309 0.51663 0.23199 0.0
C1001 C 0.24282 0.54543 0.26803 0.0
C1002 C 0.26043 0.51003 0.23225 0.0
C1003 C 0.26849 0.48325 0.23158 0.0
C1004 C 0.24931 0.46259 0.2306 0.0
C1005 C 0.22197 0.46941 0.2294 0.0
C1006 C 0.21395 0.49623 0.23006 0.0
H1007 H 0.23959 0.55668 0.28131 0.0
H1008 H 0.23562 0.52455 0.26998 0.0
H1009 H 0.26471 0.54468 0.26526 0.0
H1010 H 0.27549 0.52559 0.2334 0.0
H1011 H 0.28972 0.47874 0.23239 0.0
H1012 H 0.69311 0.78925 0.76485 0.0
H1013 H 0.64878 0.76927 0.76942 0.0
H1014 H 0.6142 0.82796 0.7321 0.0
H1015 H 0.65842 0.84806 0.72736 0.0
H1016 H 0.60285 0.79711 0.78389 0.0
H1017 H 0.58524 0.75503 0.71271 0.0
H1018 H 0.61823 0.76407 0.72108 0.0
H1019 H 0.5955 0.78956 0.71303 0.0
C1020 C 0.67614 0.79772 0.75741 0.0
C1021 C 0.67927 0.82024 0.74573 0.0
C1022 C 0.65085 0.78632 0.7601 0.0
C1023 C 0.62835 0.79704 0.75099 0.0
C1024 C 0.63144 0.81919 0.73905 0.0
H1025 H 0.45948 0.78766 0.77335 0.0
H1026 H 0.50683 0.80014 0.7716 0.0
C1027 C 0.65669 0.83069 0.73641 0.0
C1028 C 0.60139 0.78594 0.75468 0.0
H1029 H 0.54767 0.75661 0.73331 0.0
C1030 C 0.59082 0.78805 0.7729 0.0
C1031 C 0.58596 0.77394 0.74032 0.0
C1032 C 0.59683 0.77025 0.72071 0.0
C1033 C 0.56477 0.77916 0.77701 0.0
C1034 C 0.54898 0.7681 0.76247 0.0
C1035 C 0.55985 0.76526 0.74439 0.0
C1036 C 0.5208 0.76001 0.7655 0.0
C1037 C 0.55434 0.78166 0.79682 0.0
C1038 C 0.51308 0.7333 0.76275 0.0
C1039 C 0.48606 0.72607 0.76373 0.0
C1040 C 0.46625 0.74553 0.76728 0.0
C1041 C 0.4742 0.77217 0.77062 0.0
C1042 C 0.50126 0.77933 0.7697 0.0
H1043 H 0.57088 0.7843 0.80711 0.0
H1044 H 0.541 0.79942 0.79775 0.0
H1045 H 0.54246 0.76371 0.80081 0.0
H1046 H 0.52792 0.71814 0.75943 0.0
H1047 H 0.48067 0.70538 0.76108 0.0
H1048 H 0.8597 0.34106 0.26979 0.0
H1049 H 0.84309 0.38655 0.26518 0.0
H1050 H 0.77268 0.35553 0.23747 0.0
H1051 H 0.78952 0.3098 0.24159 0.0
H1052 H 0.79589 0.39621 0.2178 0.0
H1053 H 0.78398 0.4259 0.29235 0.0
H1054 H 0.81707 0.41382 0.28721 0.0
H1055 H 0.78883 0.3915 0.28527 0.0
C1056 C 0.84052 0.34384 0.26291 0.0
C1057 C 0.82589 0.3218 0.25609 0.0
C1058 C 0.83099 0.36988 0.26037 0.0
C1059 C 0.80647 0.3744 0.25124 0.0
C1060 C 0.79161 0.35244 0.24463 0.0
H1061 H 0.71705 0.51934 0.22761 0.0
H1062 H 0.73241 0.47285 0.22957 0.0
C1063 C 0.80123 0.32635 0.24705 0.0
C1064 C 0.79704 0.4021 0.24779 0.0
H1065 H 0.78274 0.46125 0.26972 0.0
C1066 C 0.79278 0.41037 0.22916 0.0
C1067 C 0.79297 0.42051 0.26265 0.0
C1068 C 0.79568 0.41243 0.283 0.0
C1069 C 0.78514 0.43678 0.22498 0.0
C1070 C 0.78173 0.45524 0.2398 0.0
C1071 C 0.78571 0.44698 0.25841 0.0
C1072 C 0.77338 0.48317 0.2364 0.0
C1073 C 0.78116 0.44503 0.20478 0.0
C1074 C 0.79153 0.5042 0.23933 0.0
C1075 C 0.78292 0.53079 0.2381 0.0
C1076 C 0.75588 0.53669 0.23423 0.0
C1077 C 0.73798 0.51547 0.23068 0.0
C1078 C 0.7467 0.48892 0.23173 0.0
H1079 H 0.78807 0.42936 0.1948 0.0
H1080 H 0.75953 0.44886 0.20223 0.0
H1081 H 0.79216 0.46393 0.20185 0.0
H1082 H 0.8122 0.50001 0.24302 0.0
H1083 H 0.79717 0.54665 0.24098 0.0
H1084 H 0.30736 0.2046 0.77148 0.0
H1085 H 0.35161 0.2244 0.7768 0.0
H1086 H 0.3857 0.17157 0.73522 0.0
H1087 H 0.34155 0.15168 0.72973 0.0
H1088 H 0.39869 0.19574 0.78859 0.0
H1089 H 0.41248 0.24736 0.72013 0.0
H1090 H 0.38003 0.23655 0.72852 0.0
H1091 H 0.40287 0.21273 0.71836 0.0
C1092 C 0.3242 0.19739 0.7633 0.0
C1093 C 0.32095 0.17658 0.75016 0.0
C1094 C 0.34945 0.20867 0.76641 0.0
C1095 C 0.37179 0.19956 0.7563 0.0
C1096 C 0.36858 0.1791 0.74297 0.0
H1097 H 0.54129 0.20886 0.77599 0.0
H1098 H 0.49398 0.19615 0.77515 0.0
C1099 C 0.34337 0.16771 0.7399 0.0
C1100 C 0.3987 0.21067 0.76019 0.0
H1101 H 0.45097 0.24367 0.73972 0.0
C1102 C 0.41008 0.20642 0.77798 0.0
C1103 C 0.4133 0.22482 0.74637 0.0
C1104 C 0.40152 0.2309 0.72731 0.0
C1105 C 0.43615 0.21526 0.78213 0.0
C1106 C 0.45115 0.22845 0.76805 0.0
C1107 C 0.43943 0.23341 0.75045 0.0
C1108 C 0.47938 0.23656 0.77094 0.0
C1109 C 0.4474 0.21045 0.80151 0.0
C1110 C 0.4868 0.26352 0.76899 0.0
C1111 C 0.51381 0.27087 0.7694 0.0
C1112 C 0.53394 0.25132 0.7716 0.0
C1113 C 0.52633 0.22444 0.77431 0.0
C1114 C 0.49928 0.21713 0.77392 0.0
H1115 H 0.43125 0.20678 0.81196 0.0
H1116 H 0.46054 0.19249 0.80118 0.0
H1117 H 0.45964 0.22777 0.80625 0.0
H1118 H 0.4717 0.27879 0.76664 0.0
H1119 H 0.51892 0.29176 0.7673 0.0
H1120 H 0.7859 0.51871 0.49993 0.0
H1121 H 0.77158 0.47199 0.49827 0.0
H1122 H 0.70369 0.49008 0.5337 0.0
H1123 H 0.71718 0.53721 0.53463 0.0
H1124 H 0.7637 0.43268 0.52197 0.0
H1125 H 0.6664 0.459 0.4892 0.0
H1126 H 0.69254 0.48337 0.49286 0.0
H1127 H 0.67045 0.47421 0.51183 0.0
C1128 C 0.76805 0.51269 0.50752 0.0
C1129 C 0.75242 0.53166 0.5172 0.0
C1130 C 0.75988 0.48598 0.50654 0.0
C1131 C 0.73614 0.4777 0.51541 0.0
C1132 C 0.72155 0.49623 0.52619 0.0
H1133 H 0.68924 0.31166 0.53083 0.0
H1134 H 0.70849 0.35639 0.53398 0.0
C1135 C 0.72939 0.52309 0.52685 0.0
C1136 C 0.72629 0.44992 0.51279 0.0
H1137 H 0.6719 0.4137 0.49865 0.0
C1138 C 0.74367 0.42851 0.51679 0.0
C1139 C 0.70037 0.4445 0.50559 0.0
C1140 C 0.68148 0.46649 0.49943 0.0
C1141 C 0.73572 0.40181 0.51403 0.0
C1142 C 0.70931 0.39639 0.50778 0.0
C1143 C 0.69207 0.41783 0.50359 0.0
C1144 C 0.69889 0.36873 0.50558 0.0
C1145 C 0.756 0.37985 0.51739 0.0
C1146 C 0.68636 0.36096 0.48875 0.0
C1147 C 0.67463 0.33565 0.48711 0.0
C1148 C 0.67557 0.31755 0.50219 0.0
C1149 C 0.68856 0.3251 0.51888 0.0
C1150 C 0.69976 0.35061 0.52066 0.0
H1151 H 0.77684 0.38735 0.51568 0.0
H1152 H 0.75394 0.37243 0.53202 0.0
H1153 H 0.75297 0.36277 0.50763 0.0
H1154 H 0.68535 0.37464 0.47694 0.0
H1155 H 0.66478 0.33027 0.47408 0.0
H1156 H 0.52015 0.21909 0.49832 0.0
H1157 H 0.47432 0.23581 0.49824 0.0
H1158 H 0.50002 0.30672 0.46853 0.0
H1159 H 0.54648 0.29062 0.46946 0.0
H1160 H 0.46821 0.32037 0.4955 0.0
H1161 H 0.41958 0.23666 0.45815 0.0
H1162 H 0.437 0.22433 0.47838 0.0
H1163 H 0.45555 0.23982 0.45951 0.0
C1164 C 0.51605 0.23808 0.49153 0.0
C1165 C 0.53691 0.25347 0.48378 0.0
C1166 C 0.48973 0.24755 0.49138 0.0
C1167 C 0.48352 0.27223 0.48297 0.0
C1168 C 0.50428 0.28752 0.47499 0.0
H1169 H 0.31594 0.31678 0.46772 0.0
H1170 H 0.36231 0.30254 0.46312 0.0
C1171 C 0.53079 0.2783 0.47549 0.0
C1172 C 0.45564 0.28268 0.48363 0.0
H1173 H 0.39038 0.26466 0.47667 0.0
C1174 C 0.45121 0.30833 0.49113 0.0
C1175 C 0.43341 0.26723 0.47762 0.0
C1176 C 0.43668 0.24063 0.46777 0.0
C1177 C 0.42519 0.31862 0.49333 0.0
C1178 C 0.4029 0.30233 0.48866 0.0
C1179 C 0.40738 0.27701 0.48062 0.0
C1180 C 0.37477 0.3112 0.49164 0.0
C1181 C 0.42203 0.34702 0.50031 0.0
C1182 C 0.3661 0.32046 0.50929 0.0
C1183 C 0.33968 0.3292 0.51183 0.0
C1184 C 0.32128 0.32797 0.49693 0.0
C1185 C 0.32968 0.31779 0.4795 0.0
C1186 C 0.3562 0.3097 0.47684 0.0
H1187 H 0.44006 0.35927 0.49707 0.0
H1188 H 0.40425 0.35692 0.49397 0.0
H1189 H 0.41957 0.3468 0.5158 0.0
H1190 H 0.37973 0.32092 0.52112 0.0
H1191 H 0.3336 0.33672 0.52546 0.0
H1192 H 0.31835 0.67214 0.48323 0.0
H1193 H 0.29499 0.62906 0.48546 0.0
H1194 H 0.32446 0.61887 0.54198 0.0
H1195 H 0.34766 0.66184 0.53997 0.0
H1196 H 0.31992 0.57979 0.49195 0.0
H1197 H 0.2441 0.60163 0.54688 0.0
H1198 H 0.26158 0.62766 0.53417 0.0
H1199 H 0.27769 0.61074 0.55341 0.0
C1200 C 0.31963 0.66085 0.4962 0.0
C1201 C 0.33492 0.67034 0.5114 0.0
C1202 C 0.30626 0.63629 0.49745 0.0
C1203 C 0.30774 0.62101 0.51397 0.0
C1204 C 0.32264 0.63062 0.52925 0.0
H1205 H 0.28988 0.4501 0.52568 0.0
H1206 H 0.30509 0.49664 0.5261 0.0
C1207 C 0.33607 0.65509 0.528 0.0
C1208 C 0.29547 0.59407 0.51479 0.0
H1209 H 0.25142 0.55542 0.53958 0.0
C1210 C 0.30478 0.5745 0.50225 0.0
C1211 C 0.27557 0.58736 0.52815 0.0
C1212 C 0.26392 0.608 0.54131 0.0
C1213 C 0.29525 0.54811 0.50304 0.0
C1214 C 0.27626 0.54108 0.51696 0.0
C1215 C 0.2663 0.56083 0.52913 0.0
C1216 C 0.26636 0.51329 0.51885 0.0
C1217 C 0.30549 0.52803 0.48889 0.0
C1218 C 0.23927 0.50743 0.51556 0.0
C1219 C 0.23043 0.48087 0.51545 0.0
C1220 C 0.24859 0.45973 0.51865 0.0
C1221 C 0.27543 0.46585 0.52297 0.0
C1222 C 0.2842 0.49241 0.52312 0.0
H1223 H 0.31445 0.53803 0.47643 0.0
H1224 H 0.32126 0.5155 0.49552 0.0
H1225 H 0.28912 0.51459 0.48407 0.0
H1226 H 0.22518 0.52334 0.51237 0.0
H1227 H 0.20959 0.47689 0.51216 0.0
H1228 H 0.44188 0.69473 0.49664 0.0
H1229 H 0.487 0.67533 0.49854 0.0
H1230 H 0.5212 0.75089 0.48156 0.0
H1231 H 0.47638 0.77048 0.4796 0.0
H1232 H 0.54328 0.70187 0.46359 0.0
H1233 H 0.54003 0.69875 0.5418 0.0
H1234 H 0.51236 0.68387 0.52935 0.0
H1235 H 0.51751 0.71942 0.52818 0.0
C1236 C 0.45897 0.70712 0.49306 0.0
C1237 C 0.45555 0.73422 0.48812 0.0
C1238 C 0.4847 0.69604 0.49425 0.0
C1239 C 0.50732 0.71184 0.49043 0.0
C1240 C 0.50393 0.73846 0.48465 0.0
H1241 H 0.67985 0.69939 0.49177 0.0
H1242 H 0.63299 0.71268 0.48788 0.0
C1243 C 0.4783 0.7496 0.48357 0.0
C1244 C 0.53468 0.70114 0.49321 0.0
H1245 H 0.5796 0.68362 0.52725 0.0
C1246 C 0.55125 0.69773 0.47748 0.0
C1247 C 0.54485 0.69577 0.51136 0.0
C1248 C 0.52792 0.69975 0.52871 0.0
C1249 C 0.57788 0.68906 0.47942 0.0
C1250 C 0.58834 0.6844 0.49763 0.0
C1251 C 0.57156 0.68733 0.51333 0.0
C1252 C 0.61674 0.67685 0.50071 0.0
C1253 C 0.59446 0.68469 0.46195 0.0
C1254 C 0.62316 0.65288 0.50999 0.0
C1255 C 0.64994 0.64539 0.51248 0.0
C1256 C 0.67078 0.66179 0.50573 0.0
C1257 C 0.66428 0.68621 0.49699 0.0
C1258 C 0.6375 0.69373 0.4946 0.0
H1259 H 0.5816 0.68142 0.4494 0.0
H1260 H 0.60691 0.70273 0.4593 0.0
H1261 H 0.60805 0.66719 0.46357 0.0
H1262 H 0.60742 0.6397 0.51497 0.0
H1263 H 0.65427 0.62647 0.5193 0.0
H1264 H 0.77605 0.97483 0.754 0.0
H1265 H 0.75969 0.02058 0.75728 0.0
H1266 H 0.69101 0.00128 0.72291 0.0
H1267 H 0.70662 0.95483 0.72046 0.0
H1268 H 0.75169 0.05887 0.73397 0.0
H1269 H 0.65393 0.03407 0.76656 0.0
H1270 H 0.67967 0.00925 0.76288 0.0
H1271 H 0.65774 0.01887 0.74391 0.0
C1272 C 0.75746 0.9803 0.74712 0.0
C1273 C 0.7425 0.96122 0.73707 0.0
C1274 C 0.74811 0.00649 0.74902 0.0
C1275 C 0.72381 0.01429 0.74069 0.0
C1276 C 0.70934 0.99553 0.73 0.0
H1277 H 0.68163 0.18153 0.72483 0.0
H1278 H 0.69822 0.13578 0.7216 0.0
C1279 C 0.7184 0.96907 0.72844 0.0
C1280 C 0.71403 0.04217 0.74314 0.0
H1281 H 0.66006 0.07935 0.75697 0.0
C1282 C 0.73169 0.06333 0.73911 0.0
C1283 C 0.68813 0.04802 0.75021 0.0
C1284 C 0.66889 0.02635 0.75633 0.0
C1285 C 0.72417 0.09013 0.74182 0.0
C1286 C 0.69779 0.09601 0.74793 0.0
C1287 C 0.68019 0.07487 0.75211 0.0
C1288 C 0.68793 0.12392 0.74999 0.0
C1289 C 0.74492 0.11169 0.73861 0.0
C1290 C 0.67565 0.13227 0.76677 0.0
C1291 C 0.66541 0.15825 0.76845 0.0
C1292 C 0.66766 0.17639 0.75346 0.0
C1293 C 0.68008 0.16809 0.73673 0.0
C1294 C 0.68973 0.14198 0.73491 0.0
H1295 H 0.76559 0.10379 0.74051 0.0
H1296 H 0.74328 0.11911 0.72396 0.0
H1297 H 0.74207 0.12885 0.74834 0.0
H1298 H 0.67391 0.11865 0.77857 0.0
H1299 H 0.65587 0.16418 0.78148 0.0
H1300 H 0.17536 0.32129 0.23253 0.0
H1301 H 0.13233 0.29858 0.23755 0.0
H1302 H 0.10483 0.3652 0.27098 0.0
H1303 H 0.14764 0.38802 0.26613 0.0
H1304 H 0.10782 0.28663 0.27544 0.0
H1305 H 0.04613 0.35204 0.22912 0.0
H1306 H 0.0821 0.34919 0.2267 0.0
H1307 H 0.06804 0.36884 0.24539 0.0
C1308 C 0.16008 0.33118 0.24083 0.0
C1309 C 0.16485 0.35648 0.2489 0.0
C1310 C 0.13561 0.31814 0.24374 0.0
C1311 C 0.11551 0.33034 0.25454 0.0
C1312 C 0.1201 0.35562 0.26248 0.0
H1313 H 0.95108 0.29421 0.28197 0.0
H1314 H 0.99608 0.31336 0.28042 0.0
C1315 C 0.14457 0.36859 0.25969 0.0
C1316 C 0.08972 0.3166 0.25776 0.0
H1317 H 0.02297 0.32059 0.24784 0.0
C1318 C 0.08922 0.29389 0.26937 0.0
C1319 C 0.06564 0.32634 0.24987 0.0
C1320 C 0.06534 0.35033 0.23695 0.0
C1321 C 0.065 0.28089 0.27364 0.0
C1322 C 0.04085 0.29063 0.26572 0.0
C1323 C 0.04149 0.31326 0.25399 0.0
C1324 C 0.0146 0.27761 0.26908 0.0
C1325 C 0.0654 0.25734 0.28694 0.0
C1326 C 0.01022 0.25095 0.26362 0.0
C1327 C 0.98454 0.23983 0.26465 0.0
C1328 C 0.96272 0.25537 0.27088 0.0
C1329 C 0.96741 0.28174 0.27702 0.0
C1330 C 0.99311 0.29273 0.27613 0.0
H1331 H 0.08367 0.2574 0.29588 0.0
H1332 H 0.04745 0.25733 0.29618 0.0
H1333 H 0.0654 0.23848 0.27868 0.0
H1334 H 0.02639 0.23909 0.25777 0.0
H1335 H 0.98157 0.21952 0.2597 0.0
H1336 H 0.29341 0.80982 0.74304 0.0
H1337 H 0.2777 0.85575 0.73783 0.0
H1338 H 0.35195 0.88649 0.76016 0.0
H1339 H 0.36786 0.84074 0.76551 0.0
H1340 H 0.27491 0.90007 0.76642 0.0
H1341 H 0.3424 0.92018 0.70574 0.0
H1342 H 0.33376 0.88663 0.71315 0.0
H1343 H 0.35758 0.90586 0.72638 0.0
C1344 C 0.30634 0.82635 0.74696 0.0
C1345 C 0.33192 0.82165 0.75462 0.0
C1346 C 0.29734 0.85252 0.74394 0.0
C1347 C 0.31387 0.87434 0.74837 0.0
C1348 C 0.33911 0.8698 0.75643 0.0
H1349 H 0.30187 0.04647 0.73841 0.0
H1350 H 0.31706 -4e-05 0.74095 0.0
C1351 C 0.34807 0.84367 0.75957 0.0
C1352 C 0.3047 0.90194 0.74461 0.0
H1353 H 0.31655 0.95656 0.71697 0.0
C1354 C 0.28386 0.91244 0.75557 0.0
C1355 C 0.31663 0.91789 0.73049 0.0
C1356 C 0.33873 0.90713 0.71813 0.0
C1357 C 0.27492 0.93884 0.75304 0.0
C1358 C 0.2867 0.95482 0.7388 0.0
C1359 C 0.30751 0.94422 0.7278 0.0
C1360 C 0.27799 0.98277 0.73543 0.0
C1361 C 0.2535 0.9496 0.76601 0.0
C1362 C 0.25125 0.98842 0.73075 0.0
C1363 C 0.24248 0.01491 0.72942 0.0
C1364 C 0.2604 0.03624 0.73248 0.0
C1365 C 0.28756 0.0305 0.736 0.0
C1366 C 0.29626 0.00395 0.7375 0.0
H1367 H 0.25193 0.93756 0.7791 0.0
H1368 H 0.2576 0.97077 0.76989 0.0
H1369 H 0.2338 0.94878 0.75879 0.0
H1370 H 0.23701 0.97233 0.72857 0.0
H1371 H 0.22149 0.01866 0.72644 0.0
H1372 H 0.02202 0.77957 0.27809 0.0
H1373 H 0.97564 0.76383 0.27847 0.0
H1374 H 0.00202 0.68515 0.26138 0.0
H1375 H 0.04853 0.7005 0.2615 0.0
H1376 H 0.94892 0.74674 0.24827 0.0
H1377 H 0.94908 0.66618 0.30182 0.0
H1378 H 0.97616 0.68998 0.29966 0.0
H1379 H 0.97445 0.66138 0.28428 0.0
C1380 C 0.01802 0.75876 0.27479 0.0
C1381 C 0.03896 0.74128 0.26974 0.0
C1382 C 0.99149 0.74981 0.27499 0.0
C1383 C 0.98537 0.72326 0.27011 0.0
C1384 C 0.0063 0.70554 0.26563 0.0
H1385 H 0.84185 0.63943 0.23681 0.0
H1386 H 0.88769 0.65552 0.24173 0.0
C1387 C 0.0329 0.7144 0.26562 0.0
C1388 C 0.95701 0.7149 0.26797 0.0
H1389 H 0.91139 0.6673 0.28091 0.0
C1390 C 0.94065 0.72955 0.25559 0.0
C1391 C 0.94625 0.69243 0.27748 0.0
C1392 C 0.96233 0.67675 0.29169 0.0
C1393 C 0.91402 0.72199 0.25215 0.0
C1394 C 0.90353 0.69924 0.26134 0.0
C1395 C 0.91969 0.68468 0.27384 0.0
C1396 C 0.8758 0.69012 0.25801 0.0
C1397 C 0.89736 0.73795 0.23843 0.0
C1398 C 0.85408 0.70442 0.26549 0.0
C1399 C 0.82788 0.69528 0.26278 0.0
C1400 C 0.82303 0.67171 0.25249 0.0
C1401 C 0.84489 0.6577 0.24475 0.0
C1402 C 0.87108 0.66677 0.24759 0.0
H1403 H 0.90955 0.75287 0.23059 0.0
H1404 H 0.88746 0.72436 0.22821 0.0
H1405 H 0.88136 0.74879 0.24618 0.0
H1406 H 0.85746 0.72245 0.27365 0.0
H1407 H 0.81149 0.7065 0.26894 0.0
H1408 H 0.41245 0.07786 0.98533 0.0
H1409 H 0.45378 0.05252 0.979 0.0
H1410 H 0.4237 0.98678 0.01232 0.0
H1411 H 0.38304 0.01233 0.0191 0.0
H1412 H 0.47116 0.00283 0.02426 0.0
H1413 H 0.47593 0.98897 0.94705 0.0
H1414 H 0.47109 0.02322 0.954 0.0
H1415 H 0.44554 -0.00119 0.95904 0.0
C1416 C 0.4145 0.05772 0.99085 0.0
C1417 C 0.39471 0.04695 0.00267 0.0
C1418 C 0.438 0.0432 0.98716 0.0
C1419 C 0.44174 0.01761 0.99503 0.0
C1420 C 0.42126 0.00644 0.00606 0.0
H1421 H 0.57901 0.90834 0.98865 0.0
H1422 H 0.53497 0.92932 0.98311 0.0
C1423 C 0.39808 0.02104 0.00995 0.0
C1424 C 0.46814 0.00391 0.99406 0.0
H1425 H 0.51638 0.98007 0.96425 0.0
C1426 C 0.48086 0.99765 0.0111 0.0
C1427 C 0.48078 0.99702 0.97692 0.0
C1428 C 0.46754 0.0021 0.95821 0.0
C1429 C 0.50595 0.98512 0.01152 0.0
C1430 C 0.51911 0.97923 0.99442 0.0
C1431 C 0.50629 0.98488 0.97732 0.0
C1432 C 0.54653 0.96788 0.99442 0.0
C1433 C 0.51821 0.97827 0.03033 0.0
C1434 C 0.56767 0.98293 0.00197 0.0
C1435 C 0.59252 0.97102 0.00524 0.0
C1436 C 0.59684 0.94398 0.0007 0.0
C1437 C 0.57623 0.92933 0.99202 0.0
C1438 C 0.55114 0.94125 0.98889 0.0
H1439 H 0.50291 0.97784 0.04168 0.0
H1440 H 0.5284 0.95848 0.02985 0.0
H1441 H 0.53337 0.99367 0.03403 0.0
H1442 H 0.56454 0.00357 0.00616 0.0
H1443 H 0.60816 0.98275 0.01188 0.0
H1444 H 0.06632 0.57198 0.96911 0.0
H1445 H 0.04232 0.53119 0.97791 0.0
H1446 H 0.02279 0.56595 0.03168 0.0
H1447 H 0.0461 0.60724 0.02271 0.0
H1448 H 0.04707 0.49504 0.00832 0.0
H1449 H 0.94928 0.5492 0.008 0.0
H1450 H 0.97944 0.56373 0.99839 0.0
H1451 H 0.97491 0.56189 0.02338 0.0
C1452 C 0.05727 0.57077 0.98293 0.0
C1453 C 0.05837 0.59267 0.99529 0.0
C1454 C 0.04363 0.54745 0.98796 0.0
C1455 C 0.03059 0.54567 0.00537 0.0
C1456 C 0.03256 0.56705 0.01811 0.0
H1457 H 0.95069 0.38991 0.02445 0.0
H1458 H 0.97475 0.43116 0.03256 0.0
C1459 C 0.04625 0.59047 0.01307 0.0
C1460 C 0.01348 0.52208 0.00931 0.0
H1461 H 0.94791 0.5025 0.01127 0.0
C1462 C 0.02542 0.49661 0.00935 0.0
C1463 C 0.98523 0.52432 0.01049 0.0
C1464 C 0.9713 0.55119 0.00996 0.0
C1465 C 0.00978 0.47322 0.0096 0.0
C1466 C 0.98149 0.47546 0.01011 0.0
C1467 C 0.96962 0.50093 0.01102 0.0
C1468 C 0.96397 0.45194 0.00696 0.0
C1469 C 0.02359 0.44637 0.00806 0.0
C1470 C 0.94904 0.45044 0.9903 0.0
C1471 C 0.93502 0.42715 0.98578 0.0
C1472 C 0.93544 0.40498 0.99792 0.0
C1473 C 0.9494 0.4069 0.01504 0.0
C1474 C 0.96349 0.4303 0.01956 0.0
H1475 H 0.04532 0.4484 0.0049 0.0
H1476 H 0.02151 0.43543 0.02156 0.0
H1477 H 0.01414 0.43404 0.99689 0.0
H1478 H 0.94918 0.46692 0.98037 0.0
H1479 H 0.92452 0.42616 0.97247 0.0
H1480 H 0.6071 0.54983 0.27213 0.0
H1481 H 0.56524 0.52714 0.28071 0.0
H1482 H 0.53446 0.54092 0.2249 0.0
H1483 H 0.57586 0.56415 0.21641 0.0
H1484 H 0.49608 0.54862 0.25418 0.0
H1485 H 0.55047 0.45127 0.25949 0.0
H1486 H 0.56223 0.47843 0.27391 0.0
H1487 H 0.56541 0.4805 0.24884 0.0
C1488 C 0.59106 0.54885 0.26191 0.0
C1489 C 0.59458 0.55907 0.24366 0.0
C1490 C 0.56732 0.53554 0.26675 0.0
C1491 C 0.54691 0.53214 0.25337 0.0
C1492 C 0.54997 0.54337 0.23544 0.0
H1493 H 0.42922 0.42418 0.22039 0.0
H1494 H 0.46958 0.44933 0.22867 0.0
C1495 C 0.57362 0.55657 0.23059 0.0
C1496 C 0.52311 0.5153 0.25726 0.0
H1497 H 0.50354 0.44992 0.26093 0.0
C1498 C 0.49762 0.5271 0.25606 0.0
C1499 C 0.52533 0.48721 0.25955 0.0
C1500 C 0.55227 0.47343 0.26042 0.0
C1501 C 0.47425 0.51141 0.25616 0.0
C1502 C 0.47652 0.48322 0.25774 0.0
C1503 C 0.50194 0.47155 0.25987 0.0
C1504 C 0.45321 0.46545 0.25447 0.0
C1505 C 0.44746 0.52495 0.25334 0.0
C1506 C 0.43093 0.46556 0.26652 0.0
C1507 C 0.40778 0.45117 0.26179 0.0
C1508 C 0.40676 0.43633 0.24501 0.0
C1509 C 0.42954 0.43535 0.23344 0.0
C1510 C 0.4526 0.44965 0.23818 0.0
H1511 H 0.4496 0.54647 0.24963 0.0
H1512 H 0.43593 0.51479 0.24205 0.0
H1513 H 0.4356 0.52357 0.2665 0.0
H1514 H 0.43111 0.47752 0.27922 0.0
H1515 H 0.39031 0.45289 0.27074 0.0
H1516 H 0.54571 0.38973 0.72663 0.0
H1517 H 0.52345 0.43141 0.71705 0.0
H1518 H 0.55937 0.47241 0.7641 0.0
H1519 H 0.58197 0.4311 0.77346 0.0
H1520 H 0.48676 0.45727 0.73948 0.0
H1521 H 0.56922 0.52681 0.72209 0.0
H1522 H 0.57377 0.49088 0.72282 0.0
H1523 H 0.57502 0.51034 0.74412 0.0
C1524 C 0.54969 0.4079 0.73446 0.0
C1525 C 0.56599 0.40737 0.75058 0.0
C1526 C 0.53678 0.43162 0.72907 0.0
C1527 C 0.54016 0.45513 0.73965 0.0
C1528 C 0.55705 0.45473 0.75542 0.0
H1529 H 0.47196 0.59552 0.77724 0.0
H1530 H 0.49794 0.55644 0.76766 0.0
C1531 C 0.56979 0.43107 0.76085 0.0
C1532 C 0.5236 0.47922 0.7359 0.0
H1533 H 0.52786 0.54735 0.73319 0.0
C1534 C 0.49562 0.47693 0.73755 0.0
C1535 C 0.53522 0.50479 0.73331 0.0
C1536 C 0.56495 0.50833 0.73029 0.0
C1537 C 0.47918 0.49976 0.73832 0.0
C1538 C 0.49109 0.52543 0.73718 0.0
C1539 C 0.51882 0.52762 0.73415 0.0
C1540 C 0.47585 0.54997 0.7419 0.0
C1541 C 0.4495 0.49637 0.74175 0.0
C1542 C 0.45489 0.55939 0.73049 0.0
C1543 C 0.43986 0.5818 0.73599 0.0
C1544 C 0.44572 0.59508 0.75293 0.0
C1545 C 0.46692 0.58568 0.76414 0.0
C1546 C 0.4819 0.56347 0.75863 0.0
H1547 H 0.44392 0.47512 0.74432 0.0
H1548 H 0.44312 0.50854 0.75403 0.0
H1549 H 0.43819 0.5036 0.72932 0.0
H1550 H 0.44998 0.54924 0.71748 0.0
H1551 H 0.42331 0.5883 0.72725 0.0
H1552 H 0.88847 0.54558 0.47414 0.0
H1553 H 0.92898 0.52065 0.46563 0.0
H1554 H 0.96878 0.55086 0.51508 0.0
H1555 H 0.92896 0.57684 0.52312 0.0
H1556 H 0.00269 0.54835 0.48521 0.0
H1557 H 0.94717 0.45229 0.49349 0.0
H1558 H 0.9345 0.47472 0.47587 0.0
H1559 H 0.93292 0.48408 0.50022 0.0
C1560 C 0.90617 0.54777 0.48279 0.0
C1561 C 0.90562 0.56351 0.49919 0.0
C1562 C 0.92917 0.53307 0.4781 0.0
C1563 C 0.95176 0.53349 0.4899 0.0
C1564 C 0.9516 0.55017 0.50577 0.0
H1565 H 0.06914 0.42529 0.52582 0.0
H1566 H 0.02907 0.45073 0.5175 0.0
C1567 C 0.92879 0.56495 0.51038 0.0
C1568 C 0.97499 0.51539 0.48678 0.0
H1569 H 0.9935 0.44949 0.48846 0.0
C1570 C 0.00071 0.52671 0.48561 0.0
C1571 C 0.9723 0.48714 0.48747 0.0
C1572 C 0.9453 0.47373 0.48947 0.0
C1573 C 0.02388 0.51069 0.48609 0.0
C1574 C 0.02121 0.48248 0.48726 0.0
C1575 C 0.99546 0.47109 0.48745 0.0
C1576 C 0.04461 0.46478 0.49087 0.0
C1577 C 0.05095 0.52424 0.48657 0.0
C1578 C 0.06645 0.46357 0.47842 0.0
C1579 C 0.08959 0.44918 0.48326 0.0
C1580 C 0.09102 0.43538 0.50048 0.0
C1581 C 0.06862 0.43565 0.51244 0.0
C1582 C 0.04566 0.45012 0.50768 0.0
H1583 H 0.04926 0.54611 0.48929 0.0
H1584 H 0.0639 0.51526 0.4976 0.0
H1585 H 0.06105 0.52152 0.47282 0.0
H1586 H 0.06594 0.47443 0.46526 0.0
H1587 H 0.10671 0.45006 0.47395 0.0
H1588 H 0.57056 0.0732 0.4688 0.0
H1589 H 0.54714 0.03135 0.47589 0.0
H1590 H 0.51965 0.06452 0.52842 0.0
H1591 H 0.54283 0.10672 0.52127 0.0
H1592 H 0.54947 0.99534 0.50859 0.0
H1593 H 0.4505 0.04502 0.49744 0.0
H1594 H 0.4815 0.05985 0.48944 0.0
H1595 H 0.47338 0.05994 0.51399 0.0
C1596 C 0.55992 0.07139 0.48202 0.0
C1597 C 0.55875 0.09305 0.49458 0.0
C1598 C 0.54662 0.0475 0.48606 0.0
C1599 C 0.53159 0.04497 0.50261 0.0
C1600 C 0.53113 0.06619 0.51555 0.0
H1601 H 0.45071 0.88967 0.52115 0.0
H1602 H 0.47256 0.93236 0.52879 0.0
C1603 C 0.54462 0.09012 0.51155 0.0
C1604 C 0.51493 0.02078 0.50534 0.0
H1605 H 0.45054 0.99829 0.50102 0.0
C1606 C 0.52779 0.99594 0.50735 0.0
C1607 C 0.48669 0.02178 0.5035 0.0
C1608 C 0.47204 0.04799 0.50087 0.0
C1609 C 0.51319 0.97189 0.50685 0.0
C1610 C 0.48507 0.97287 0.50434 0.0
C1611 C 0.4721 0.99774 0.50308 0.0
C1612 C 0.46937 0.94832 0.50062 0.0
C1613 C 0.52805 0.94558 0.50789 0.0
C1614 C 0.45976 0.9436 0.48241 0.0
C1615 C 0.44719 0.91941 0.47805 0.0
C1616 C 0.44367 0.89968 0.4919 0.0
C1617 C 0.4525 0.90479 0.51031 0.0
C1618 C 0.46526 0.929 0.51465 0.0
H1619 H 0.55017 0.94832 0.50776 0.0
H1620 H 0.52246 0.93499 0.52103 0.0
H1621 H 0.52233 0.93253 0.4959 0.0
H1622 H 0.46282 0.95828 0.4714 0.0
H1623 H 0.44071 0.9159 0.46373 0.0
H1624 H 0.9165 0.91504 0.75692 0.0
H1625 H 0.95951 0.93787 0.76227 0.0
H1626 H 0.92718 0.0101 0.73774 0.0
H1627 H 0.88471 0.98719 0.73197 0.0
H1628 H 0.97206 0.99442 0.72065 0.0
H1629 H 0.9887 0.99493 0.79771 0.0
H1630 H 0.98113 0.96242 0.78826 0.0
H1631 H 0.95625 0.98849 0.78734 0.0
C1632 C 0.91846 0.936 0.75321 0.0
C1633 C 0.89742 0.94944 0.74408 0.0
C1634 C 0.94296 0.94906 0.75631 0.0
C1635 C 0.9465 0.9758 0.75055 0.0
C1636 C 0.9249 0.98952 0.74234 0.0
H1637 H 0.08664 0.08064 0.75701 0.0
H1638 H 0.04294 0.0594 0.76301 0.0
C1639 C 0.90068 0.97642 0.73902 0.0
C1640 C 0.97342 0.98847 0.75062 0.0
H1641 H 0.02636 0.00638 0.77845 0.0
C1642 C 0.9838 0.99719 0.73334 0.0
C1643 C 0.98868 0.9922 0.76718 0.0
C1644 C 0.97806 0.98426 0.78621 0.0
C1645 C 0.00907 0.00924 0.73208 0.0
C1646 C 0.02476 0.01212 0.7485 0.0
C1647 C 0.01432 0.00388 0.76588 0.0
C1648 C 0.05222 0.02327 0.7475 0.0
C1649 C 0.01873 0.01893 0.71315 0.0
C1650 C 0.07201 0.00962 0.73729 0.0
C1651 C 0.09674 0.02167 0.73382 0.0
C1652 C 0.10231 0.04742 0.74076 0.0
C1653 C 0.08299 0.06058 0.75179 0.0
C1654 C 0.05807 0.04853 0.75517 0.0
H1655 H 0.00191 0.02136 0.70305 0.0
H1656 H 0.02938 0.03839 0.71445 0.0
H1657 H 0.03295 0.00405 0.70721 0.0
H1658 H 0.06794 0.99001 0.73141 0.0
H1659 H 0.11134 0.01106 0.72534 0.0
H1660 H 0.92682 0.09121 0.23198 0.0
H1661 H 0.95201 0.05078 0.22326 0.0
H1662 H 0.00067 0.05923 0.27302 0.0
H1663 H 0.97644 0.09991 0.28139 0.0
H1664 H 0.03049 0.04629 0.24111 0.0
H1665 H 0.94235 0.97872 0.24998 0.0
H1666 H 0.93882 0.00591 0.23358 0.0
H1667 H 0.94215 0.01292 0.25821 0.0
C1668 C 0.94329 0.08478 0.24081 0.0
C1669 C 0.94985 0.09894 0.25726 0.0
C1670 C 0.95742 0.06148 0.23594 0.0
C1671 C 0.97807 0.0519 0.24758 0.0
C1672 C 0.98485 0.06629 0.26381 0.0
H1673 H 0.07309 0.92421 0.28174 0.0
H1674 H 0.0525 0.9671 0.2734 0.0
C1675 C 0.97086 0.08946 0.26864 0.0
C1676 C 0.99228 0.02643 0.24359 0.0
H1677 H 0.98415 0.9585 0.24498 0.0
C1678 C 0.02031 0.02709 0.24162 0.0
C1679 C 0.97894 0.00141 0.24418 0.0
C1680 C 0.94894 -0.00052 0.24672 0.0
C1681 C 0.03547 0.0034 0.2412 0.0
C1682 C 0.02227 0.97849 0.24294 0.0
C1683 C 0.99415 0.97771 0.24365 0.0
C1684 C 0.03727 0.95342 0.24659 0.0
C1685 C 0.06558 0.00521 0.23959 0.0
C1686 C 0.03548 0.93154 0.23428 0.0
C1687 C 0.04743 0.90702 0.23898 0.0
C1688 C 0.06099 0.90405 0.25617 0.0
C1689 C 0.063 0.9261 0.26832 0.0
C1690 C 0.05138 0.9506 0.26353 0.0
H1691 H 0.0719 0.02438 0.23298 0.0
H1692 H 0.07454 0.00429 0.25385 0.0
H1693 H 0.07373 0.98827 0.23123 0.0
H1694 H 0.0243 0.93325 0.22128 0.0
H1695 H 0.04496 0.89011 0.2296 0.0
H1696 H 0.27226 0.34163 0.16573 0.0
H1697 H 0.27931 0.31125 0.13912 0.0
H1698 H 0.33173 0.26252 0.1732 0.0
H1699 H 0.32415 0.29264 0.20002 0.0
H1700 H 0.32717 0.29505 0.12065 0.0
H1701 H 0.27414 0.20963 0.15462 0.0
H1702 H 0.27179 0.24348 0.16339 0.0
H1703 H 0.30142 0.22395 0.16772 0.0
C1704 C 0.28535 0.32445 0.16746 0.0
C1705 C 0.29768 0.31933 0.18481 0.0
C1706 C 0.28944 0.30722 0.15229 0.0
C1707 C 0.30582 0.28452 0.15426 0.0
C1708 C 0.31876 0.27976 0.17148 0.0
H1709 H 0.32161 0.15179 0.07458 0.0
H1710 H 0.33047 0.18223 0.10092 0.0
C1711 C 0.31463 0.29703 0.18669 0.0
C1712 C 0.30844 0.26552 0.1384 0.0
H1713 H 0.29105 0.20254 0.12421 0.0
C1714 C 0.31948 0.27474 0.12145 0.0
C1715 C 0.29844 0.23904 0.13953 0.0
C1716 C 0.28558 0.22838 0.15722 0.0
C1717 C 0.32041 0.25828 0.10547 0.0
C1718 C 0.3096 0.23212 0.10643 0.0
C1719 C 0.29937 0.22261 0.12354 0.0
C1720 C 0.30689 0.21488 0.08959 0.0
C1721 C 0.33284 0.26908 0.08769 0.0
C1722 C 0.29087 0.22324 0.07446 0.0
C1723 C 0.28592 0.20597 0.05942 0.0
C1724 C 0.29673 0.17999 0.05933 0.0
C1725 C 0.31332 0.17185 0.07422 0.0
C1726 C 0.31826 0.18914 0.08929 0.0
H1727 H 0.34728 0.28548 0.09073 0.0
H1728 H 0.34339 0.25305 0.07979 0.0
H1729 H 0.3168 0.27739 0.07857 0.0
H1730 H 0.28144 0.2428 0.07457 0.0
H1731 H 0.27318 0.21272 0.04803 0.0
H1732 H 0.28774 0.72724 0.80162 0.0
H1733 H 0.25721 0.72005 0.82813 0.0
H1734 H 0.31289 0.66337 0.85211 0.0
H1735 H 0.34389 0.6712 0.82594 0.0
H1736 H 0.23273 0.67294 0.84265 0.0
H1737 H 0.30304 0.71969 0.89377 0.0
H1738 H 0.30726 0.72291 0.8687 0.0
H1739 H 0.31642 0.69229 0.88033 0.0
C1740 C 0.29344 0.71327 0.81257 0.0
C1741 C 0.31825 0.69999 0.81188 0.0
C1742 C 0.27594 0.70904 0.82761 0.0
C1743 C 0.283 0.6915 0.8422 0.0
C1744 C 0.30727 0.6773 0.84112 0.0
H1745 H 0.20328 0.67179 0.95122 0.0
H1746 H 0.2327 0.66409 0.92398 0.0
C1747 C 0.3248 0.68157 0.82609 0.0
C1748 C 0.26541 0.68905 0.85888 0.0
H1749 H 0.26208 0.70364 0.90568 0.0
C1750 C 0.23917 0.67947 0.85647 0.0
C1751 C 0.27392 0.69755 0.87688 0.0
C1752 C 0.30161 0.7089 0.88016 0.0
C1753 C 0.22107 0.67845 0.87157 0.0
C1754 C 0.22936 0.68768 0.88944 0.0
C1755 C 0.25583 0.69651 0.89197 0.0
C1756 C 0.21042 0.69026 0.90538 0.0
C1757 C 0.19324 0.66757 0.86825 0.0
C1758 C 0.18827 0.70752 0.90392 0.0
C1759 C 0.17159 0.71185 0.91937 0.0
C1760 C 0.17689 0.69914 0.93656 0.0
C1761 C 0.19877 0.68159 0.93801 0.0
C1762 C 0.21554 0.67726 0.92252 0.0
H1763 H 0.19269 0.65402 0.85588 0.0
H1764 H 0.18579 0.65647 0.88073 0.0
H1765 H 0.17935 0.6845 0.86547 0.0
H1766 H 0.18431 0.71823 0.89098 0.0
H1767 H 0.1548 0.72552 0.91802 0.0
H1768 H 0.73051 0.83942 0.07925 0.0
H1769 H 0.72448 0.80874 0.10564 0.0
H1770 H 0.66034 0.76914 0.07578 0.0
H1771 H 0.66826 0.79826 0.0486 0.0
H1772 H 0.68724 0.79817 0.12895 0.0
H1773 H 0.70472 0.7059 0.08723 0.0
H1774 H 0.70939 0.73888 0.0775 0.0
H1775 H 0.67625 0.72467 0.07929 0.0
C1776 C 0.71526 0.82401 0.07832 0.0
C1777 C 0.70004 0.82099 0.06188 0.0
C1778 C 0.71166 0.80661 0.09344 0.0
C1779 C 0.69235 0.78613 0.0926 0.0
C1780 C 0.67596 0.78416 0.07658 0.0
H1781 H 0.66863 0.69632 0.19826 0.0
H1782 H 0.66011 0.72566 0.1713 0.0
C1783 C 0.68011 0.80115 0.06119 0.0
C1784 C 0.6902 0.76667 0.10837 0.0
H1785 H 0.69337 0.70002 0.11907 0.0
C1786 C 0.68858 0.77669 0.12679 0.0
C1787 C 0.69219 0.73861 0.10558 0.0
C1788 C 0.69601 0.72637 0.08636 0.0
C1789 C 0.68993 0.75966 0.14246 0.0
C1790 C 0.69148 0.73158 0.13967 0.0
C1791 C 0.69205 0.72151 0.12124 0.0
C1792 C 0.69483 0.71238 0.1555 0.0
C1793 C 0.69117 0.77219 0.16176 0.0
C1794 C 0.71619 0.69398 0.15518 0.0
C1795 C 0.72025 0.67638 0.17014 0.0
C1796 C 0.70339 0.67714 0.18591 0.0
C1797 C 0.68176 0.69516 0.18617 0.0
C1798 C 0.67721 0.7123 0.17092 0.0
H1799 H 0.69763 0.79348 0.16111 0.0
H1800 H 0.67092 0.77171 0.16821 0.0
H1801 H 0.70527 0.76119 0.17105 0.0
H1802 H 0.73003 0.69349 0.14345 0.0
H1803 H 0.73686 0.6624 0.16951 0.0
H1804 H 0.65364 0.32575 0.82677 0.0
H1805 H 0.68372 0.33371 0.85347 0.0
H1806 H 0.74327 0.2825 0.82803 0.0
H1807 H 0.71352 0.27507 0.80115 0.0
H1808 H 0.70223 0.29356 0.87712 0.0
H1809 H 0.7877 0.34713 0.84456 0.0
H1810 H 0.75535 0.34432 0.83328 0.0
H1811 H 0.77881 0.31694 0.83234 0.0
C1812 C 0.67342 0.31678 0.82669 0.0
C1813 C 0.68134 0.29983 0.81195 0.0
C1814 C 0.6905 0.32121 0.84197 0.0
C1815 C 0.71585 0.30896 0.84263 0.0
C1816 C 0.72403 0.29259 0.82764 0.0
H1817 H 0.8403 0.27202 0.9204 0.0
H1818 H 0.81074 0.27961 0.89339 0.0
C1819 C 0.70695 0.28813 0.8124 0.0
C1820 C 0.73277 0.3112 0.85968 0.0
H1821 H 0.79583 0.32713 0.87468 0.0
C1822 C 0.72255 0.30131 0.87669 0.0
C1823 C 0.75927 0.32126 0.85903 0.0
C1824 C 0.77088 0.33326 0.84136 0.0
C1825 C 0.73856 0.3 0.89289 0.0
C1826 C 0.76534 0.30931 0.8921 0.0
C1827 C 0.77529 0.31999 0.87524 0.0
C1828 C 0.78388 0.30633 0.90824 0.0
C1829 C 0.72708 0.28748 0.91045 0.0
C1830 C 0.77883 0.31922 0.92543 0.0
C1831 C 0.79563 0.31475 0.94088 0.0
C1832 C 0.81774 0.29749 0.93927 0.0
C1833 C 0.82322 0.28528 0.92193 0.0
C1834 C 0.80645 0.28969 0.90654 0.0
H1835 H 0.70821 0.27637 0.90758 0.0
H1836 H 0.74173 0.27349 0.91693 0.0
H1837 H 0.72256 0.30347 0.92081 0.0
H1838 H 0.76173 0.33244 0.92695 0.0
H1839 H 0.79102 0.32427 0.95417 0.0
H1840 H 0.82552 0.65496 0.57414 0.0
H1841 H 0.83388 0.68641 0.59999 0.0
H1842 H 0.77758 0.74214 0.57563 0.0
H1843 H 0.76967 0.71105 0.54956 0.0
H1844 H 0.82661 0.76584 0.58989 0.0
H1845 H 0.77632 0.69839 0.64133 0.0
H1846 H 0.80314 0.68396 0.62781 0.0
H1847 H 0.77279 0.69416 0.61627 0.0
C1848 C 0.81532 0.67413 0.57416 0.0
C1849 C 0.79679 0.68056 0.56 0.0
C1850 C 0.81993 0.69194 0.58898 0.0
C1851 C 0.80604 0.71638 0.58982 0.0
C1852 C 0.78838 0.7233 0.57526 0.0
H1853 H 0.77424 0.84795 0.66297 0.0
H1854 H 0.78217 0.81779 0.6364 0.0
C1855 C 0.78375 0.7055 0.56048 0.0
C1856 C 0.80876 0.73428 0.60629 0.0
H1857 H 0.79258 0.73944 0.65273 0.0
C1858 C 0.81939 0.76004 0.60368 0.0
C1859 C 0.79938 0.72656 0.62424 0.0
C1860 C 0.78707 0.69935 0.62767 0.0
C1861 C 0.82056 0.7785 0.61855 0.0
C1862 C 0.81031 0.7711 0.63635 0.0
C1863 C 0.80047 0.74504 0.63908 0.0
C1864 C 0.80771 0.79056 0.65197 0.0
C1865 C 0.83269 0.80574 0.61505 0.0
C1866 C 0.81911 0.78509 0.66961 0.0
C1867 C 0.81435 0.80219 0.68483 0.0
C1868 C 0.79799 0.82486 0.6826 0.0
C1869 C 0.78701 0.83059 0.66491 0.0
C1870 C 0.79173 0.81352 0.64973 0.0
H1871 H 0.84708 0.80523 0.60313 0.0
H1872 H 0.81649 0.82009 0.61139 0.0
H1873 H 0.84324 0.81333 0.62771 0.0
H1874 H 0.83126 0.76732 0.67168 0.0
H1875 H 0.82272 0.79729 0.69844 0.0
H1876 H 0.84578 0.17239 0.32841 0.0
H1877 H 0.81491 0.16329 0.35448 0.0
H1878 H 0.75469 0.21251 0.32788 0.0
H1879 H 0.78519 0.22096 0.3016 0.0
H1880 H 0.79471 0.20249 0.3777 0.0
H1881 H 0.71131 0.14732 0.34396 0.0
H1882 H 0.74381 0.15103 0.33303 0.0
H1883 H 0.71961 0.17776 0.33186 0.0
C1884 C 0.82569 0.18064 0.32792 0.0
C1885 C 0.81781 0.1974 0.31307 0.0
C1886 C 0.80815 0.17556 0.34284 0.0
C1887 C 0.7824 0.18697 0.34302 0.0
C1888 C 0.77426 0.20306 0.32787 0.0
H1889 H 0.65578 0.22396 0.4187 0.0
H1890 H 0.68602 0.21589 0.39212 0.0
C1891 C 0.79178 0.20813 0.31298 0.0
C1892 C 0.765 0.18437 0.3598 0.0
H1893 H 0.70164 0.16774 0.37381 0.0
C1894 C 0.77452 0.19445 0.37696 0.0
C1895 C 0.73867 0.17393 0.35876 0.0
C1896 C 0.72782 0.16165 0.34095 0.0
C1897 C 0.75796 0.19563 0.39288 0.0
C1898 C 0.73132 0.18603 0.39166 0.0
C1899 C 0.72208 0.17511 0.37468 0.0
C1900 C 0.7122 0.18904 0.40744 0.0
C1901 C 0.76868 0.20836 0.4106 0.0
C1902 C 0.71664 0.17619 0.42473 0.0
C1903 C 0.69945 0.18091 0.43992 0.0
C1904 C 0.67758 0.1984 0.43795 0.0
C1905 C 0.67266 0.21052 0.4205 0.0
C1906 C 0.68981 0.20584 0.40535 0.0
H1907 H 0.78766 0.21946 0.40807 0.0
H1908 H 0.75373 0.22242 0.41668 0.0
H1909 H 0.77274 0.1925 0.42115 0.0
H1910 H 0.73361 0.16288 0.42654 0.0
H1911 H 0.7036 0.17146 0.45331 0.0
H1912 H 0.22974 0.1534 0.66492 0.0
H1913 H 0.22114 0.18323 0.63818 0.0
H1914 H 0.16696 0.22995 0.67229 0.0
H1915 H 0.17599 0.20032 0.69919 0.0
H1916 H 0.17184 0.19737 0.62002 0.0
H1917 H 0.22252 0.28495 0.65301 0.0
H1918 H 0.22655 0.25124 0.66178 0.0
H1919 H 0.19626 0.26951 0.66651 0.0
C1920 C 0.21595 0.17002 0.66662 0.0
C1921 C 0.20357 0.17477 0.684 0.0
C1922 C 0.21098 0.18694 0.65138 0.0
C1923 C 0.19364 0.20893 0.65333 0.0
C1924 C 0.18067 0.21327 0.67058 0.0
H1925 H 0.1722 0.34092 0.57363 0.0
H1926 H 0.16472 0.31034 0.60012 0.0
C1927 C 0.18565 0.1963 0.68585 0.0
C1928 C 0.19 0.22767 0.6374 0.0
H1929 H 0.20473 0.29112 0.62276 0.0
C1930 C 0.17882 0.21794 0.62064 0.0
C1931 C 0.19907 0.2545 0.6383 0.0
C1932 C 0.21197 0.26574 0.65579 0.0
C1933 C 0.17681 0.23426 0.60462 0.0
C1934 C 0.18671 0.26081 0.60532 0.0
C1935 C 0.19711 0.27077 0.62227 0.0
C1936 C 0.18836 0.27802 0.58838 0.0
C1937 C 0.16417 0.22289 0.58709 0.0
C1938 C 0.20389 0.2699 0.57294 0.0
C1939 C 0.208 0.28723 0.5578 0.0
C1940 C 0.19688 0.31309 0.55793 0.0
C1941 C 0.18071 0.32096 0.57311 0.0
C1942 C 0.17657 0.30359 0.58827 0.0
H1943 H 0.15017 0.20625 0.59047 0.0
H1944 H 0.15306 0.23854 0.57918 0.0
H1945 H 0.18014 0.21473 0.57786 0.0
H1946 H 0.21366 0.2505 0.57288 0.0
H1947 H 0.22044 0.28068 0.5462 0.0
H1948 H 0.3336 0.75975 0.42227 0.0
H1949 H 0.30433 0.76738 0.39526 0.0
H1950 H 0.27621 0.841 0.4203 0.0
H1951 H 0.30445 0.83247 0.44793 0.0
H1952 H 0.23561 0.81346 0.40737 0.0
H1953 H 0.31227 0.81665 0.35157 0.0
H1954 H 0.31514 0.78615 0.36469 0.0
H1955 H 0.32095 0.81785 0.37616 0.0
C1956 C 0.32122 0.77759 0.42194 0.0
C1957 C 0.32139 0.79566 0.43705 0.0
C1958 C 0.30477 0.78214 0.4064 0.0
C1959 C 0.28855 0.80514 0.40548 0.0
C1960 C 0.28879 0.82329 0.42058 0.0
H1961 H 0.20164 0.82896 0.29923 0.0
H1962 H 0.23099 0.83745 0.32632 0.0
C1963 C 0.30504 0.81855 0.43627 0.0
C1964 C 0.27007 0.80909 0.38933 0.0
H1965 H 0.2671 0.80614 0.34147 0.0
C1966 C 0.24257 0.81231 0.39296 0.0
C1967 C 0.2791 0.80827 0.37048 0.0
C1968 C 0.30852 0.80736 0.36551 0.0
C1969 C 0.22375 0.81317 0.3783 0.0
C1970 C 0.23258 0.80983 0.35954 0.0
C1971 C 0.26021 0.8082 0.35586 0.0
C1972 C 0.21354 0.80633 0.34367 0.0
C1973 C 0.1946 0.81755 0.38314 0.0
C1974 C 0.19405 0.78603 0.34437 0.0
C1975 C 0.17706 0.78157 0.32911 0.0
C1976 C 0.17959 0.79691 0.31269 0.0
C1977 C 0.19907 0.81717 0.31189 0.0
C1978 C 0.21591 0.82188 0.32728 0.0
H1979 H 0.1925 0.82938 0.39629 0.0
H1980 H 0.18379 0.82814 0.3717 0.0
H1981 H 0.18483 0.79785 0.38552 0.0
H1982 H 0.19233 0.77319 0.35658 0.0
H1983 H 0.16218 0.7658 0.33002 0.0
loop_
_geom_bond_atom_site_label_1
_geom_bond_atom_site_label_2
_geom_bond_distance
_geom_bond_site_symmetry_2
_ccdc_geom_bond_type
Co0 O3 1.970 1_554 S
Co0 N17 1.989 . S
Co0 O25 1.967 . S
Co0 O32 1.920 . S
Co1 O4 1.966 1_554 S
Co1 N10 2.022 . S
Co1 N18 1.993 . S
Co1 O26 1.941 . S
C2 O3 1.258 . S
C2 O4 1.263 . S
O3 Co0 1.970 1_556 S
O3 C2 1.258 . S
O4 Co1 1.966 1_556 S
O4 C2 1.263 . S
C5 O6 1.235 1_554 S
C5 O32 1.289 . S
O6 C5 1.235 1_556 S
C7 C9 1.400 . S
C7 N10 1.351 . S
C7 C12 1.501 1_554 S
C8 C9 1.387 . S
C8 N11 1.341 . S
C9 C7 1.400 . S
C9 C8 1.387 . S
N10 Co1 2.022 . S
N10 C7 1.351 . S
N10 N11 1.365 . S
N11 C8 1.341 . S
N11 N10 1.365 . S
N11 H31 0.862 . S
C12 C7 1.501 1_556 S
C12 H13 0.961 . S
C12 H14 0.961 . S
C12 H15 0.960 . S
H13 C12 0.961 . S
H14 C12 0.961 . S
H15 C12 0.960 . S
C16 N17 1.342 . S
C16 C20 1.401 . S
C16 C21 1.499 . S
N17 Co0 1.989 . S
N17 C16 1.342 . S
N17 N18 1.388 . S
N18 Co1 1.993 . S
N18 N17 1.388 . S
N18 C19 1.346 . S
C19 N18 1.346 . S
C19 C20 1.396 . S
C19 C29 1.510 . S
C20 C16 1.401 . S
C20 C19 1.396 . S
C21 C16 1.499 . S
C21 H22 0.959 . S
C21 H23 0.960 . S
C21 H24 0.961 . S
H22 C21 0.959 . S
H23 C21 0.960 . S
H24 C21 0.961 . S
O25 Co0 1.967 . S
O25 C33 1.258 . S
O26 Co1 1.941 . S
O26 C33 1.266 . S
H27 C29 0.959 . S
H28 C29 0.961 . S
C29 C19 1.510 . S
C29 H27 0.959 . S
C29 H28 0.961 . S
C29 H30 0.960 . S
H30 C29 0.960 . S
H31 N11 0.862 . S
O32 Co0 1.920 . S
O32 C5 1.289 . S
C33 O25 1.258 . S
C33 O26 1.266 . S
Co34 O37 1.970 1_556 S
Co34 N51 1.989 . S
Co34 O59 1.967 . S
Co34 O66 1.920 . S
Co35 O38 1.966 1_556 S
Co35 N44 2.022 . S
Co35 N52 1.993 . S
Co35 O60 1.941 . S
C36 O37 1.258 . S
C36 O38 1.263 . S
O37 Co34 1.970 1_554 S
O37 C36 1.258 . S
O38 Co35 1.966 1_554 S
O38 C36 1.263 . S
C39 O40 1.235 1_556 S
C39 O66 1.289 . S
O40 C39 1.235 1_554 S
C41 C43 1.400 . S
C41 N44 1.351 . S
C41 C46 1.501 1_556 S
C42 C43 1.387 . S
C42 N45 1.341 . S
C43 C41 1.400 . S
C43 C42 1.387 . S
N44 Co35 2.022 . S
N44 C41 1.351 . S
N44 N45 1.365 . S
N45 C42 1.341 . S
N45 N44 1.365 . S
N45 H65 0.862 . S
C46 C41 1.501 1_554 S
C46 H47 0.961 . S
C46 H48 0.961 . S
C46 H49 0.960 . S
H47 C46 0.961 . S
H48 C46 0.961 . S
H49 C46 0.960 . S
C50 N51 1.342 . S
C50 C54 1.401 . S
C50 C55 1.499 . S
N51 Co34 1.989 . S
N51 C50 1.342 . S
N51 N52 1.388 . S
N52 Co35 1.993 . S
N52 N51 1.388 . S
N52 C53 1.346 . S
C53 N52 1.346 . S
C53 C54 1.396 . S
C53 C63 1.510 . S
C54 C50 1.401 . S
C54 C53 1.396 . S
C55 C50 1.499 . S
C55 H56 0.959 . S
C55 H57 0.960 . S
C55 H58 0.961 . S
H56 C55 0.959 . S
H57 C55 0.960 . S
H58 C55 0.961 . S
O59 Co34 1.967 . S
O59 C67 1.258 . S
O60 Co35 1.941 . S
O60 C67 1.266 . S
H61 C63 0.959 . S
H62 C63 0.961 . S
C63 C53 1.510 . S
C63 H61 0.959 . S
C63 H62 0.961 . S
C63 H64 0.960 . S
H64 C63 0.960 . S
H65 N45 0.862 . S
O66 Co34 1.920 . S
O66 C39 1.289 . S
C67 O59 1.258 . S
C67 O60 1.266 . S
Co68 O71 1.970 1_554 S
Co68 N85 1.989 . S
Co68 O93 1.967 . S
Co68 O100 1.920 . S
Co69 O72 1.966 1_554 S
Co69 N78 2.022 . S
Co69 N86 1.993 . S
Co69 O94 1.941 . S
C70 O71 1.258 . S
C70 O72 1.263 . S
O71 Co68 1.970 1_556 S
O71 C70 1.258 . S
O72 Co69 1.966 1_556 S
O72 C70 1.263 . S
C73 O74 1.235 1_554 S
C73 O100 1.289 . S
O74 C73 1.235 1_556 S
C75 C77 1.400 . S
C75 N78 1.351 . S
C75 C80 1.501 1_554 S
C76 C77 1.387 . S
C76 N79 1.341 . S
C77 C75 1.400 . S
C77 C76 1.387 . S
N78 Co69 2.022 . S
N78 C75 1.351 . S
N78 N79 1.365 . S
N79 C76 1.341 . S
N79 N78 1.365 . S
N79 H99 0.862 . S
C80 C75 1.501 1_556 S
C80 H81 0.961 . S
C80 H82 0.961 . S
C80 H83 0.960 . S
H81 C80 0.961 . S
H82 C80 0.961 . S
H83 C80 0.960 . S
C84 N85 1.342 . S
C84 C88 1.401 . S
C84 C89 1.499 . S
N85 Co68 1.989 . S
N85 C84 1.342 . S
N85 N86 1.388 . S
N86 Co69 1.993 . S
N86 N85 1.388 . S
N86 C87 1.346 . S
C87 N86 1.346 . S
C87 C88 1.396 . S
C87 C97 1.510 . S
C88 C84 1.401 . S
C88 C87 1.396 . S
C89 C84 1.499 . S
C89 H90 0.959 . S
C89 H91 0.960 . S
C89 H92 0.961 . S
H90 C89 0.959 . S
H91 C89 0.960 . S
H92 C89 0.961 . S
O93 Co68 1.967 . S
O93 C101 1.258 . S
O94 Co69 1.941 . S
O94 C101 1.266 . S
H95 C97 0.959 . S
H96 C97 0.961 . S
C97 C87 1.510 . S
C97 H95 0.959 . S
C97 H96 0.961 . S
C97 H98 0.960 . S
H98 C97 0.960 . S
H99 N79 0.862 . S
O100 Co68 1.920 . S
O100 C73 1.289 . S
C101 O93 1.258 . S
C101 O94 1.266 . S
Co102 O105 1.970 1_556 S
Co102 N119 1.989 . S
Co102 O127 1.967 . S
Co102 O134 1.920 . S
Co103 O106 1.966 1_556 S
Co103 N112 2.022 . S
Co103 N120 1.993 . S
Co103 O128 1.941 . S
C104 O105 1.258 . S
C104 O106 1.263 . S
O105 Co102 1.970 1_554 S
O105 C104 1.258 . S
O106 Co103 1.966 1_554 S
O106 C104 1.263 . S
C107 O108 1.235 1_556 S
C107 O134 1.289 . S
O108 C107 1.235 1_554 S
C109 C111 1.400 . S
C109 N112 1.351 . S
C109 C114 1.501 1_556 S
C110 C111 1.387 . S
C110 N113 1.341 . S
C111 C109 1.400 . S
C111 C110 1.387 . S
N112 Co103 2.022 . S
N112 C109 1.351 . S
N112 N113 1.365 . S
N113 C110 1.341 . S
N113 N112 1.365 . S
N113 H133 0.862 . S
C114 C109 1.501 1_554 S
C114 H115 0.961 . S
C114 H116 0.961 . S
C114 H117 0.960 . S
H115 C114 0.961 . S
H116 C114 0.961 . S
H117 C114 0.960 . S
C118 N119 1.342 . S
C118 C122 1.401 . S
C118 C123 1.499 . S
N119 Co102 1.989 . S
N119 C118 1.342 . S
N119 N120 1.388 . S
N120 Co103 1.993 . S
N120 N119 1.388 . S
N120 C121 1.346 . S
C121 N120 1.346 . S
C121 C122 1.396 . S
C121 C131 1.510 . S
C122 C118 1.401 . S
C122 C121 1.396 . S
C123 C118 1.499 . S
C123 H124 0.959 . S
C123 H125 0.960 . S
C123 H126 0.961 . S
H124 C123 0.959 . S
H125 C123 0.960 . S
H126 C123 0.961 . S
O127 Co102 1.967 . S
O127 C135 1.258 . S
O128 Co103 1.941 . S
O128 C135 1.266 . S
H129 C131 0.959 . S
H130 C131 0.961 . S
C131 C121 1.510 . S
C131 H129 0.959 . S
C131 H130 0.961 . S
C131 H132 0.960 . S
H132 C131 0.960 . S
H133 N113 0.862 . S
O134 Co102 1.920 . S
O134 C107 1.289 . S
C135 O127 1.258 . S
C135 O128 1.266 . S
Co136 O139 1.970 . S
Co136 N153 1.989 . S
Co136 O161 1.967 . S
Co136 O168 1.920 . S
Co137 O140 1.966 . S
Co137 N146 2.022 . S
Co137 N154 1.993 . S
Co137 O162 1.941 . S
C138 O139 1.258 . S
C138 O140 1.263 . S
O139 Co136 1.970 . S
O139 C138 1.258 . S
O140 Co137 1.966 . S
O140 C138 1.263 . S
C141 O142 1.235 . S
C141 O168 1.289 . S
O142 C141 1.235 . S
C143 C145 1.400 . S
C143 N146 1.351 . S
C143 C148 1.501 . S
C144 C145 1.387 . S
C144 N147 1.341 . S
C145 C143 1.400 . S
C145 C144 1.387 . S
N146 Co137 2.022 . S
N146 C143 1.351 . S
N146 N147 1.365 . S
N147 C144 1.341 . S
N147 N146 1.365 . S
N147 H167 0.862 . S
C148 C143 1.501 . S
C148 H149 0.961 . S
C148 H150 0.961 . S
C148 H151 0.960 . S
H149 C148 0.961 . S
H150 C148 0.961 . S
H151 C148 0.960 . S
C152 N153 1.342 . S
C152 C156 1.401 . S
C152 C157 1.499 . S
N153 Co136 1.989 . S
N153 C152 1.342 . S
N153 N154 1.388 . S
N154 Co137 1.993 . S
N154 N153 1.388 . S
N154 C155 1.346 . S
C155 N154 1.346 . S
C155 C156 1.396 . S
C155 C165 1.510 . S
C156 C152 1.401 . S
C156 C155 1.396 . S
C157 C152 1.499 . S
C157 H158 0.959 . S
C157 H159 0.960 . S
C157 H160 0.961 . S
H158 C157 0.959 . S
H159 C157 0.960 . S
H160 C157 0.961 . S
O161 Co136 1.967 . S
O161 C169 1.258 . S
O162 Co137 1.941 . S
O162 C169 1.266 . S
H163 C165 0.959 . S
H164 C165 0.961 . S
C165 C155 1.510 . S
C165 H163 0.959 . S
C165 H164 0.961 . S
C165 H166 0.960 . S
H166 C165 0.960 . S
H167 N147 0.862 . S
O168 Co136 1.920 . S
O168 C141 1.289 . S
C169 O161 1.258 . S
C169 O162 1.266 . S
Co170 O173 1.970 . S
Co170 N187 1.989 . S
Co170 O195 1.967 . S
Co170 O202 1.920 . S
Co171 O174 1.966 . S
Co171 N180 2.022 . S
Co171 N188 1.993 . S
Co171 O196 1.941 . S
C172 O173 1.258 . S
C172 O174 1.263 . S
O173 Co170 1.970 . S
O173 C172 1.258 . S
O174 Co171 1.966 . S
O174 C172 1.263 . S
C175 O176 1.235 . S
C175 O202 1.289 . S
O176 C175 1.235 . S
C177 C179 1.400 . S
C177 N180 1.351 . S
C177 C182 1.501 . S
C178 C179 1.387 . S
C178 N181 1.341 . S
C179 C177 1.400 . S
C179 C178 1.387 . S
N180 Co171 2.022 . S
N180 C177 1.351 . S
N180 N181 1.365 . S
N181 C178 1.341 . S
N181 N180 1.365 . S
N181 H201 0.862 . S
C182 C177 1.501 . S
C182 H183 0.961 . S
C182 H184 0.961 . S
C182 H185 0.960 . S
H183 C182 0.961 . S
H184 C182 0.961 . S
H185 C182 0.960 . S
C186 N187 1.342 . S
C186 C190 1.401 . S
C186 C191 1.499 . S
N187 Co170 1.989 . S
N187 C186 1.342 . S
N187 N188 1.388 . S
N188 Co171 1.993 . S
N188 N187 1.388 . S
N188 C189 1.346 . S
C189 N188 1.346 . S
C189 C190 1.396 . S
C189 C199 1.510 . S
C190 C186 1.401 . S
C190 C189 1.396 . S
C191 C186 1.499 . S
C191 H192 0.959 . S
C191 H193 0.960 . S
C191 H194 0.961 . S
H192 C191 0.959 . S
H193 C191 0.960 . S
H194 C191 0.961 . S
O195 Co170 1.967 . S
O195 C203 1.258 . S
O196 Co171 1.941 . S
O196 C203 1.266 . S
H197 C199 0.959 . S
H198 C199 0.961 . S
C199 C189 1.510 . S
C199 H197 0.959 . S
C199 H198 0.961 . S
C199 H200 0.960 . S
H200 C199 0.960 . S
H201 N181 0.862 . S
O202 Co170 1.920 . S
O202 C175 1.289 . S
C203 O195 1.258 . S
C203 O196 1.266 . S
Co204 O207 1.970 . S
Co204 N221 1.989 . S
Co204 O229 1.967 . S
Co204 O236 1.920 . S
Co205 O208 1.966 . S
Co205 N214 2.022 . S
Co205 N222 1.993 . S
Co205 O230 1.941 . S
C206 O207 1.258 . S
C206 O208 1.263 . S
O207 Co204 1.970 . S
O207 C206 1.258 . S
O208 Co205 1.966 . S
O208 C206 1.263 . S
C209 O210 1.235 . S
C209 O236 1.289 . S
O210 C209 1.235 . S
C211 C213 1.400 . S
C211 N214 1.351 . S
C211 C216 1.501 . S
C212 C213 1.387 . S
C212 N215 1.341 . S
C213 C211 1.400 . S
C213 C212 1.387 . S
N214 Co205 2.022 . S
N214 C211 1.351 . S
N214 N215 1.365 . S
N215 C212 1.341 . S
N215 N214 1.365 . S
N215 H235 0.862 . S
C216 C211 1.501 . S
C216 H217 0.961 . S
C216 H218 0.961 . S
C216 H219 0.960 . S
H217 C216 0.961 . S
H218 C216 0.961 . S
H219 C216 0.960 . S
C220 N221 1.342 . S
C220 C224 1.401 . S
C220 C225 1.499 . S
N221 Co204 1.989 . S
N221 C220 1.342 . S
N221 N222 1.388 . S
N222 Co205 1.993 . S
N222 N221 1.388 . S
N222 C223 1.346 . S
C223 N222 1.346 . S
C223 C224 1.396 . S
C223 C233 1.510 . S
C224 C220 1.401 . S
C224 C223 1.396 . S
C225 C220 1.499 . S
C225 H226 0.959 . S
C225 H227 0.960 . S
C225 H228 0.961 . S
H226 C225 0.959 . S
H227 C225 0.960 . S
H228 C225 0.961 . S
O229 Co204 1.967 . S
O229 C237 1.258 . S
O230 Co205 1.941 . S
O230 C237 1.266 . S
H231 C233 0.959 . S
H232 C233 0.961 . S
C233 C223 1.510 . S
C233 H231 0.959 . S
C233 H232 0.961 . S
C233 H234 0.960 . S
H234 C233 0.960 . S
H235 N215 0.862 . S
O236 Co204 1.920 . S
O236 C209 1.289 . S
C237 O229 1.258 . S
C237 O230 1.266 . S
Co238 O241 1.970 . S
Co238 N255 1.989 . S
Co238 O263 1.967 . S
Co238 O270 1.920 . S
Co239 O242 1.966 . S
Co239 N248 2.022 . S
Co239 N256 1.993 . S
Co239 O264 1.941 . S
C240 O241 1.258 . S
C240 O242 1.263 . S
O241 Co238 1.970 . S
O241 C240 1.258 . S
O242 Co239 1.966 . S
O242 C240 1.263 . S
C243 O244 1.235 . S
C243 O270 1.289 . S
O244 C243 1.235 . S
C245 C247 1.400 . S
C245 N248 1.351 . S
C245 C250 1.501 . S
C246 C247 1.387 . S
C246 N249 1.341 . S
C247 C245 1.400 . S
C247 C246 1.387 . S
N248 Co239 2.022 . S
N248 C245 1.351 . S
N248 N249 1.365 . S
N249 C246 1.341 . S
N249 N248 1.365 . S
N249 H269 0.862 . S
C250 C245 1.501 . S
C250 H251 0.961 . S
C250 H252 0.961 . S
C250 H253 0.960 . S
H251 C250 0.961 . S
H252 C250 0.961 . S
H253 C250 0.960 . S
C254 N255 1.342 . S
C254 C258 1.401 . S
C254 C259 1.499 . S
N255 Co238 1.989 . S
N255 C254 1.342 . S
N255 N256 1.388 . S
N256 Co239 1.993 . S
N256 N255 1.388 . S
N256 C257 1.346 . S
C257 N256 1.346 . S
C257 C258 1.396 . S
C257 C267 1.510 . S
C258 C254 1.401 . S
C258 C257 1.396 . S
C259 C254 1.499 . S
C259 H260 0.959 . S
C259 H261 0.960 . S
C259 H262 0.961 . S
H260 C259 0.959 . S
H261 C259 0.960 . S
H262 C259 0.961 . S
O263 Co238 1.967 . S
O263 C271 1.258 . S
O264 Co239 1.941 . S
O264 C271 1.266 . S
H265 C267 0.959 . S
H266 C267 0.961 . S
C267 C257 1.510 . S
C267 H265 0.959 . S
C267 H266 0.961 . S
C267 H268 0.960 . S
H268 C267 0.960 . S
H269 N249 0.862 . S
O270 Co238 1.920 . S
O270 C243 1.289 . S
C271 O263 1.258 . S
C271 O264 1.266 . S
Co272 O275 1.970 . S
Co272 N289 1.989 . S
Co272 O297 1.967 . S
Co272 O304 1.920 . S
Co273 O276 1.966 . S
Co273 N282 2.022 . S
Co273 N290 1.993 . S
Co273 O298 1.941 . S
C274 O275 1.258 . S
C274 O276 1.263 . S
O275 Co272 1.970 . S
O275 C274 1.258 . S
O276 Co273 1.966 . S
O276 C274 1.263 . S
C277 O278 1.235 . S
C277 O304 1.289 . S
O278 C277 1.235 . S
C279 C281 1.400 . S
C279 N282 1.351 . S
C279 C284 1.501 . S
C280 C281 1.387 . S
C280 N283 1.341 . S
C281 C279 1.400 . S
C281 C280 1.387 . S
N282 Co273 2.022 . S
N282 C279 1.351 . S
N282 N283 1.365 . S
N283 C280 1.341 . S
N283 N282 1.365 . S
N283 H303 0.862 . S
C284 C279 1.501 . S
C284 H285 0.961 . S
C284 H286 0.961 . S
C284 H287 0.960 . S
H285 C284 0.961 . S
H286 C284 0.961 . S
H287 C284 0.960 . S
C288 N289 1.342 . S
C288 C292 1.401 . S
C288 C293 1.499 . S
N289 Co272 1.989 . S
N289 C288 1.342 . S
N289 N290 1.388 . S
N290 Co273 1.993 . S
N290 N289 1.388 . S
N290 C291 1.346 . S
C291 N290 1.346 . S
C291 C292 1.396 . S
C291 C301 1.510 . S
C292 C288 1.401 . S
C292 C291 1.396 . S
C293 C288 1.499 . S
C293 H294 0.959 . S
C293 H295 0.960 . S
C293 H296 0.961 . S
H294 C293 0.959 . S
H295 C293 0.960 . S
H296 C293 0.961 . S
O297 Co272 1.967 . S
O297 C305 1.258 . S
O298 Co273 1.941 . S
O298 C305 1.266 . S
H299 C301 0.959 . S
H300 C301 0.961 . S
C301 C291 1.510 . S
C301 H299 0.959 . S
C301 H300 0.961 . S
C301 H302 0.960 . S
H302 C301 0.960 . S
H303 N283 0.862 . S
O304 Co272 1.920 . S
O304 C277 1.289 . S
C305 O297 1.258 . S
C305 O298 1.266 . S
Co306 O309 1.970 . S
Co306 N323 1.989 . S
Co306 O331 1.967 . S
Co306 O338 1.920 . S
Co307 O310 1.966 . S
Co307 N316 2.022 . S
Co307 N324 1.993 . S
Co307 O332 1.941 . S
C308 O309 1.258 . S
C308 O310 1.263 . S
O309 Co306 1.970 . S
O309 C308 1.258 . S
O310 Co307 1.966 . S
O310 C308 1.263 . S
C311 O312 1.235 . S
C311 O338 1.289 . S
O312 C311 1.235 . S
C313 C315 1.400 . S
C313 N316 1.351 . S
C313 C318 1.501 . S
C314 C315 1.387 . S
C314 N317 1.341 . S
C315 C313 1.400 . S
C315 C314 1.387 . S
N316 Co307 2.022 . S
N316 C313 1.351 . S
N316 N317 1.365 . S
N317 C314 1.341 . S
N317 N316 1.365 . S
N317 H337 0.862 . S
C318 C313 1.501 . S
C318 H319 0.961 . S
C318 H320 0.961 . S
C318 H321 0.960 . S
H319 C318 0.961 . S
H320 C318 0.961 . S
H321 C318 0.960 . S
C322 N323 1.342 . S
C322 C326 1.401 . S
C322 C327 1.499 . S
N323 Co306 1.989 . S
N323 C322 1.342 . S
N323 N324 1.388 . S
N324 Co307 1.993 . S
N324 N323 1.388 . S
N324 C325 1.346 . S
C325 N324 1.346 . S
C325 C326 1.396 . S
C325 C335 1.510 . S
C326 C322 1.401 . S
C326 C325 1.396 . S
C327 C322 1.499 . S
C327 H328 0.959 . S
C327 H329 0.960 . S
C327 H330 0.961 . S
H328 C327 0.959 . S
H329 C327 0.960 . S
H330 C327 0.961 . S
O331 Co306 1.967 . S
O331 C339 1.258 . S
O332 Co307 1.941 . S
O332 C339 1.266 . S
H333 C335 0.959 . S
H334 C335 0.961 . S
C335 C325 1.510 . S
C335 H333 0.959 . S
C335 H334 0.961 . S
C335 H336 0.960 . S
H336 C335 0.960 . S
H337 N317 0.862 . S
O338 Co306 1.920 . S
O338 C311 1.289 . S
C339 O331 1.258 . S
C339 O332 1.266 . S
Co340 O343 1.970 . S
Co340 N357 1.989 . S
Co340 O365 1.967 . S
Co340 O372 1.920 . S
Co341 O344 1.966 . S
Co341 N350 2.022 . S
Co341 N358 1.993 . S
Co341 O366 1.941 . S
C342 O343 1.258 . S
C342 O344 1.263 . S
O343 Co340 1.970 . S
O343 C342 1.258 . S
O344 Co341 1.966 . S
O344 C342 1.263 . S
C345 O346 1.235 . S
C345 O372 1.289 . S
O346 C345 1.235 . S
C347 C349 1.400 . S
C347 N350 1.351 . S
C347 C352 1.501 . S
C348 C349 1.387 . S
C348 N351 1.341 . S
C349 C347 1.400 . S
C349 C348 1.387 . S
N350 Co341 2.022 . S
N350 C347 1.351 . S
N350 N351 1.365 . S
N351 C348 1.341 . S
N351 N350 1.365 . S
N351 H371 0.862 . S
C352 C347 1.501 . S
C352 H353 0.961 . S
C352 H354 0.961 . S
C352 H355 0.960 . S
H353 C352 0.961 . S
H354 C352 0.961 . S
H355 C352 0.960 . S
C356 N357 1.342 . S
C356 C360 1.401 . S
C356 C361 1.499 . S
N357 Co340 1.989 . S
N357 C356 1.342 . S
N357 N358 1.388 . S
N358 Co341 1.993 . S
N358 N357 1.388 . S
N358 C359 1.346 . S
C359 N358 1.346 . S
C359 C360 1.396 . S
C359 C369 1.510 . S
C360 C356 1.401 . S
C360 C359 1.396 . S
C361 C356 1.499 . S
C361 H362 0.959 . S
C361 H363 0.960 . S
C361 H364 0.961 . S
H362 C361 0.959 . S
H363 C361 0.960 . S
H364 C361 0.961 . S
O365 Co340 1.967 . S
O365 C373 1.258 . S
O366 Co341 1.941 . S
O366 C373 1.266 . S
H367 C369 0.959 . S
H368 C369 0.961 . S
C369 C359 1.510 . S
C369 H367 0.959 . S
C369 H368 0.961 . S
C369 H370 0.960 . S
H370 C369 0.960 . S
H371 N351 0.862 . S
O372 Co340 1.920 . S
O372 C345 1.289 . S
C373 O365 1.258 . S
C373 O366 1.266 . S
Co374 O377 1.970 . S
Co374 N391 1.989 . S
Co374 O399 1.967 . S
Co374 O406 1.920 . S
Co375 O378 1.966 . S
Co375 N384 2.022 . S
Co375 N392 1.993 . S
Co375 O400 1.941 . S
C376 O377 1.258 . S
C376 O378 1.263 . S
O377 Co374 1.970 . S
O377 C376 1.258 . S
O378 Co375 1.966 . S
O378 C376 1.263 . S
C379 O380 1.235 . S
C379 O406 1.289 . S
O380 C379 1.235 . S
C381 C383 1.400 . S
C381 N384 1.351 . S
C381 C386 1.501 . S
C382 C383 1.387 . S
C382 N385 1.341 . S
C383 C381 1.400 . S
C383 C382 1.387 . S
N384 Co375 2.022 . S
N384 C381 1.351 . S
N384 N385 1.365 . S
N385 C382 1.341 . S
N385 N384 1.365 . S
N385 H405 0.862 . S
C386 C381 1.501 . S
C386 H387 0.961 . S
C386 H388 0.961 . S
C386 H389 0.960 . S
H387 C386 0.961 . S
H388 C386 0.961 . S
H389 C386 0.960 . S
C390 N391 1.342 . S
C390 C394 1.401 . S
C390 C395 1.499 . S
N391 Co374 1.989 . S
N391 C390 1.342 . S
N391 N392 1.388 . S
N392 Co375 1.993 . S
N392 N391 1.388 . S
N392 C393 1.346 . S
C393 N392 1.346 . S
C393 C394 1.396 . S
C393 C403 1.510 . S
C394 C390 1.401 . S
C394 C393 1.396 . S
C395 C390 1.499 . S
C395 H396 0.959 . S
C395 H397 0.960 . S
C395 H398 0.961 . S
H396 C395 0.959 . S
H397 C395 0.960 . S
H398 C395 0.961 . S
O399 Co374 1.967 . S
O399 C407 1.258 . S
O400 Co375 1.941 . S
O400 C407 1.266 . S
H401 C403 0.959 . S
H402 C403 0.961 . S
C403 C393 1.510 . S
C403 H401 0.959 . S
C403 H402 0.961 . S
C403 H404 0.960 . S
H404 C403 0.960 . S
H405 N385 0.862 . S
O406 Co374 1.920 . S
O406 C379 1.289 . S
C407 O399 1.258 . S
C407 O400 1.266 . S
Co408 O411 1.970 . S
Co408 N425 1.989 . S
Co408 O433 1.967 . S
Co408 O440 1.920 . S
Co409 O412 1.966 . S
Co409 N418 2.022 . S
Co409 N426 1.993 . S
Co409 O434 1.941 . S
C410 O411 1.258 . S
C410 O412 1.263 . S
O411 Co408 1.970 . S
O411 C410 1.258 . S
O412 Co409 1.966 . S
O412 C410 1.263 . S
C413 O414 1.235 . S
C413 O440 1.289 . S
O414 C413 1.235 . S
C415 C417 1.400 . S
C415 N418 1.351 . S
C415 C420 1.501 . S
C416 C417 1.387 . S
C416 N419 1.341 . S
C417 C415 1.400 . S
C417 C416 1.387 . S
N418 Co409 2.022 . S
N418 C415 1.351 . S
N418 N419 1.365 . S
N419 C416 1.341 . S
N419 N418 1.365 . S
N419 H439 0.862 . S
C420 C415 1.501 . S
C420 H421 0.961 . S
C420 H422 0.961 . S
C420 H423 0.960 . S
H421 C420 0.961 . S
H422 C420 0.961 . S
H423 C420 0.960 . S
C424 N425 1.342 . S
C424 C428 1.401 . S
C424 C429 1.499 . S
N425 Co408 1.989 . S
N425 C424 1.342 . S
N425 N426 1.388 . S
N426 Co409 1.993 . S
N426 N425 1.388 . S
N426 C427 1.346 . S
C427 N426 1.346 . S
C427 C428 1.396 . S
C427 C437 1.510 . S
C428 C424 1.401 . S
C428 C427 1.396 . S
C429 C424 1.499 . S
C429 H430 0.959 . S
C429 H431 0.960 . S
C429 H432 0.961 . S
H430 C429 0.959 . S
H431 C429 0.960 . S
H432 C429 0.961 . S
O433 Co408 1.967 . S
O433 C441 1.258 . S
O434 Co409 1.941 . S
O434 C441 1.266 . S
H435 C437 0.959 . S
H436 C437 0.961 . S
C437 C427 1.510 . S
C437 H435 0.959 . S
C437 H436 0.961 . S
C437 H438 0.960 . S
H438 C437 0.960 . S
H439 N419 0.862 . S
O440 Co408 1.920 . S
O440 C413 1.289 . S
C441 O433 1.258 . S
C441 O434 1.266 . S
Co442 O445 1.970 . S
Co442 N459 1.989 . S
Co442 O467 1.967 . S
Co442 O474 1.920 . S
Co443 O446 1.966 . S
Co443 N452 2.022 . S
Co443 N460 1.993 . S
Co443 O468 1.941 . S
C444 O445 1.258 . S
C444 O446 1.263 . S
O445 Co442 1.970 . S
O445 C444 1.258 . S
O446 Co443 1.966 . S
O446 C444 1.263 . S
C447 O448 1.235 . S
C447 O474 1.289 . S
O448 C447 1.235 . S
C449 C451 1.400 . S
C449 N452 1.351 . S
C449 C454 1.501 . S
C450 C451 1.387 . S
C450 N453 1.341 . S
C451 C449 1.400 . S
C451 C450 1.387 . S
N452 Co443 2.022 . S
N452 C449 1.351 . S
N452 N453 1.365 . S
N453 C450 1.341 . S
N453 N452 1.365 . S
N453 H473 0.862 . S
C454 C449 1.501 . S
C454 H455 0.961 . S
C454 H456 0.961 . S
C454 H457 0.960 . S
H455 C454 0.961 . S
H456 C454 0.961 . S
H457 C454 0.960 . S
C458 N459 1.342 . S
C458 C462 1.401 . S
C458 C463 1.499 . S
N459 Co442 1.989 . S
N459 C458 1.342 . S
N459 N460 1.388 . S
N460 Co443 1.993 . S
N460 N459 1.388 . S
N460 C461 1.346 . S
C461 N460 1.346 . S
C461 C462 1.396 . S
C461 C471 1.510 . S
C462 C458 1.401 . S
C462 C461 1.396 . S
C463 C458 1.499 . S
C463 H464 0.959 . S
C463 H465 0.960 . S
C463 H466 0.961 . S
H464 C463 0.959 . S
H465 C463 0.960 . S
H466 C463 0.961 . S
O467 Co442 1.967 . S
O467 C475 1.258 . S
O468 Co443 1.941 . S
O468 C475 1.266 . S
H469 C471 0.959 . S
H470 C471 0.961 . S
C471 C461 1.510 . S
C471 H469 0.959 . S
C471 H470 0.961 . S
C471 H472 0.960 . S
H472 C471 0.960 . S
H473 N453 0.862 . S
O474 Co442 1.920 . S
O474 C447 1.289 . S
C475 O467 1.258 . S
C475 O468 1.266 . S
Co476 O479 1.970 . S
Co476 N493 1.989 . S
Co476 O501 1.967 . S
Co476 O508 1.920 . S
Co477 O480 1.966 . S
Co477 N486 2.022 . S
Co477 N494 1.993 . S
Co477 O502 1.941 . S
C478 O479 1.258 . S
C478 O480 1.263 . S
O479 Co476 1.970 . S
O479 C478 1.258 . S
O480 Co477 1.966 . S
O480 C478 1.263 . S
C481 O482 1.235 . S
C481 O508 1.289 . S
O482 C481 1.235 . S
C483 C485 1.400 . S
C483 N486 1.351 . S
C483 C488 1.501 . S
C484 C485 1.387 . S
C484 N487 1.341 . S
C485 C483 1.400 . S
C485 C484 1.387 . S
N486 Co477 2.022 . S
N486 C483 1.351 . S
N486 N487 1.365 . S
N487 C484 1.341 . S
N487 N486 1.365 . S
N487 H507 0.862 . S
C488 C483 1.501 . S
C488 H489 0.961 . S
C488 H490 0.961 . S
C488 H491 0.960 . S
H489 C488 0.961 . S
H490 C488 0.961 . S
H491 C488 0.960 . S
C492 N493 1.342 . S
C492 C496 1.401 . S
C492 C497 1.499 . S
N493 Co476 1.989 . S
N493 C492 1.342 . S
N493 N494 1.388 . S
N494 Co477 1.993 . S
N494 N493 1.388 . S
N494 C495 1.346 . S
C495 N494 1.346 . S
C495 C496 1.396 . S
C495 C505 1.510 . S
C496 C492 1.401 . S
C496 C495 1.396 . S
C497 C492 1.499 . S
C497 H498 0.959 . S
C497 H499 0.960 . S
C497 H500 0.961 . S
H498 C497 0.959 . S
H499 C497 0.960 . S
H500 C497 0.961 . S
O501 Co476 1.967 . S
O501 C509 1.258 . S
O502 Co477 1.941 . S
O502 C509 1.266 . S
H503 C505 0.959 . S
H504 C505 0.961 . S
C505 C495 1.510 . S
C505 H503 0.959 . S
C505 H504 0.961 . S
C505 H506 0.960 . S
H506 C505 0.960 . S
H507 N487 0.862 . S
O508 Co476 1.920 . S
O508 C481 1.289 . S
C509 O501 1.258 . S
C509 O502 1.266 . S
Co510 O513 1.970 . S
Co510 N527 1.989 . S
Co510 O535 1.967 . S
Co510 O542 1.920 . S
Co511 O514 1.966 . S
Co511 N520 2.022 . S
Co511 N528 1.993 . S
Co511 O536 1.941 . S
C512 O513 1.258 . S
C512 O514 1.263 . S
O513 Co510 1.970 . S
O513 C512 1.258 . S
O514 Co511 1.966 . S
O514 C512 1.263 . S
C515 O516 1.235 . S
C515 O542 1.289 . S
O516 C515 1.235 . S
C517 C519 1.400 . S
C517 N520 1.351 . S
C517 C522 1.501 . S
C518 C519 1.387 . S
C518 N521 1.341 . S
C519 C517 1.400 . S
C519 C518 1.387 . S
N520 Co511 2.022 . S
N520 C517 1.351 . S
N520 N521 1.365 . S
N521 C518 1.341 . S
N521 N520 1.365 . S
N521 H541 0.862 . S
C522 C517 1.501 . S
C522 H523 0.961 . S
C522 H524 0.961 . S
C522 H525 0.960 . S
H523 C522 0.961 . S
H524 C522 0.961 . S
H525 C522 0.960 . S
C526 N527 1.342 . S
C526 C530 1.401 . S
C526 C531 1.499 . S
N527 Co510 1.989 . S
N527 C526 1.342 . S
N527 N528 1.388 . S
N528 Co511 1.993 . S
N528 N527 1.388 . S
N528 C529 1.346 . S
C529 N528 1.346 . S
C529 C530 1.396 . S
C529 C539 1.510 . S
C530 C526 1.401 . S
C530 C529 1.396 . S
C531 C526 1.499 . S
C531 H532 0.959 . S
C531 H533 0.960 . S
C531 H534 0.961 . S
H532 C531 0.959 . S
H533 C531 0.960 . S
H534 C531 0.961 . S
O535 Co510 1.967 . S
O535 C543 1.258 . S
O536 Co511 1.941 . S
O536 C543 1.266 . S
H537 C539 0.959 . S
H538 C539 0.961 . S
C539 C529 1.510 . S
C539 H537 0.959 . S
C539 H538 0.961 . S
C539 H540 0.960 . S
H540 C539 0.960 . S
H541 N521 0.862 . S
O542 Co510 1.920 . S
O542 C515 1.289 . S
C543 O535 1.258 . S
C543 O536 1.266 . S
H544 C552 0.929 . S
H545 C554 0.930 . S
H546 C556 0.930 . S
H547 C559 0.929 . S
H548 C562 0.930 . S
H549 C564 0.960 . S
H550 C564 0.960 . S
H551 C564 0.960 . S
C552 H544 0.929 . S
C552 C553 1.377 . S
C552 C554 1.384 . S
C553 C552 1.377 . S
C553 C559 1.390 . S
C554 H545 0.930 . S
C554 C552 1.384 . S
C554 C555 1.372 . S
C555 C554 1.372 . S
C555 C556 1.400 . S
C555 C560 1.490 . S
C556 H546 0.930 . S
C556 C555 1.400 . S
C556 C559 1.386 . S
H557 C573 0.930 . S
H558 C574 0.931 . S
C559 H547 0.929 . S
C559 C553 1.390 . S
C559 C556 1.386 . S
C560 C555 1.490 . S
C560 C562 1.395 . S
C560 C563 1.403 . S
H561 C567 0.930 . S
C562 H548 0.930 . S
C562 C560 1.395 . S
C562 C565 1.403 . S
C563 C560 1.403 . S
C563 C564 1.524 . S
C563 C567 1.400 . S
C564 H549 0.960 . S
C564 H550 0.960 . S
C564 H551 0.960 . S
C564 C563 1.524 . S
C565 C562 1.403 . S
C565 C566 1.392 . S
C565 C569 1.495 . S
C566 C565 1.392 . S
C566 C567 1.385 . S
C566 C568 1.478 . S
C567 H561 0.930 . S
C567 C563 1.400 . S
C567 C566 1.385 . S
C568 C566 1.478 . S
C568 C570 1.381 . S
C568 C574 1.383 . S
C569 C565 1.495 . S
C569 H575 0.959 . S
C569 H576 0.961 . S
C569 H577 0.960 . S
C570 C568 1.381 . S
C570 C571 1.394 . S
C570 H578 0.930 . S
C571 C570 1.394 . S
C571 C572 1.383 . S
C571 H579 0.929 . S
C572 C571 1.383 . S
C572 C573 1.377 . S
C573 H557 0.930 . S
C573 C572 1.377 . S
C573 C574 1.379 . S
C574 H558 0.931 . S
C574 C568 1.383 . S
C574 C573 1.379 . S
H575 C569 0.959 . S
H576 C569 0.961 . S
H577 C569 0.960 . S
H578 C570 0.930 . S
H579 C571 0.929 . S
H580 C588 0.929 . S
H581 C590 0.930 . S
H582 C592 0.930 . S
H583 C595 0.929 . S
H584 C598 0.930 . S
H585 C600 0.960 . S
H586 C600 0.960 . S
H587 C600 0.960 . S
C588 H580 0.929 . S
C588 C589 1.377 . S
C588 C590 1.384 . S
C589 C588 1.377 . S
C589 C595 1.390 . S
C590 H581 0.930 . S
C590 C588 1.384 . S
C590 C591 1.372 . S
C591 C590 1.372 . S
C591 C592 1.400 . S
C591 C596 1.490 . S
C592 H582 0.930 . S
C592 C591 1.400 . S
C592 C595 1.386 . S
H593 C609 0.930 . S
H594 C610 0.931 . S
C595 H583 0.929 . S
C595 C589 1.390 . S
C595 C592 1.386 . S
C596 C591 1.490 . S
C596 C598 1.395 . S
C596 C599 1.403 . S
H597 C603 0.930 . S
C598 H584 0.930 . S
C598 C596 1.395 . S
C598 C601 1.403 . S
C599 C596 1.403 . S
C599 C600 1.524 . S
C599 C603 1.400 . S
C600 H585 0.960 . S
C600 H586 0.960 . S
C600 H587 0.960 . S
C600 C599 1.524 . S
C601 C598 1.403 . S
C601 C602 1.392 . S
C601 C605 1.495 . S
C602 C601 1.392 . S
C602 C603 1.385 . S
C602 C604 1.478 . S
C603 H597 0.930 . S
C603 C599 1.400 . S
C603 C602 1.385 . S
C604 C602 1.478 . S
C604 C606 1.381 . S
C604 C610 1.383 . S
C605 C601 1.495 . S
C605 H611 0.959 . S
C605 H612 0.961 . S
C605 H613 0.960 . S
C606 C604 1.381 . S
C606 C607 1.394 . S
C606 H614 0.930 . S
C607 C606 1.394 . S
C607 C608 1.383 . S
C607 H615 0.929 . S
C608 C607 1.383 . S
C608 C609 1.377 . S
C609 H593 0.930 . S
C609 C608 1.377 . S
C609 C610 1.379 . S
C610 H594 0.931 . S
C610 C604 1.383 . S
C610 C609 1.379 . S
H611 C605 0.959 . S
H612 C605 0.961 . S
H613 C605 0.960 . S
H614 C606 0.930 . S
H615 C607 0.929 . S
H616 C624 0.929 . S
H617 C626 0.930 . S
H618 C628 0.930 . S
H619 C631 0.929 . S
H620 C634 0.930 . S
H621 C636 0.960 . S
H622 C636 0.960 . S
H623 C636 0.960 . S
C624 H616 0.929 . S
C624 C625 1.377 . S
C624 C626 1.384 . S
C625 C624 1.377 . S
C625 C631 1.390 . S
C626 H617 0.930 . S
C626 C624 1.384 . S
C626 C627 1.372 . S
C627 C626 1.372 . S
C627 C628 1.400 . S
C627 C632 1.490 . S
C628 H618 0.930 . S
C628 C627 1.400 . S
C628 C631 1.386 . S
H629 C645 0.930 . S
H630 C646 0.931 . S
C631 H619 0.929 . S
C631 C625 1.390 . S
C631 C628 1.386 . S
C632 C627 1.490 . S
C632 C634 1.395 . S
C632 C635 1.403 . S
H633 C639 0.930 . S
C634 H620 0.930 . S
C634 C632 1.395 . S
C634 C637 1.403 . S
C635 C632 1.403 . S
C635 C636 1.524 . S
C635 C639 1.400 . S
C636 H621 0.960 . S
C636 H622 0.960 . S
C636 H623 0.960 . S
C636 C635 1.524 . S
C637 C634 1.403 . S
C637 C638 1.392 . S
C637 C641 1.495 . S
C638 C637 1.392 . S
C638 C639 1.385 . S
C638 C640 1.478 . S
C639 H633 0.930 . S
C639 C635 1.400 . S
C639 C638 1.385 . S
C640 C638 1.478 . S
C640 C642 1.381 . S
C640 C646 1.383 . S
C641 C637 1.495 . S
C641 H647 0.959 . S
C641 H648 0.961 . S
C641 H649 0.960 . S
C642 C640 1.381 . S
C642 C643 1.394 . S
C642 H650 0.930 . S
C643 C642 1.394 . S
C643 C644 1.383 . S
C643 H651 0.929 . S
C644 C643 1.383 . S
C644 C645 1.377 . S
C645 H629 0.930 . S
C645 C644 1.377 . S
C645 C646 1.379 . S
C646 H630 0.931 . S
C646 C640 1.383 . S
C646 C645 1.379 . S
H647 C641 0.959 . S
H648 C641 0.961 . S
H649 C641 0.960 . S
H650 C642 0.930 . S
H651 C643 0.929 . S
H652 C660 0.929 . S
H653 C662 0.930 . S
H654 C664 0.930 . S
H655 C667 0.929 . S
H656 C670 0.930 . S
H657 C672 0.960 . S
H658 C672 0.960 . S
H659 C672 0.960 . S
C660 H652 0.929 . S
C660 C661 1.377 . S
C660 C662 1.384 . S
C661 C660 1.377 . S
C661 C667 1.390 . S
C662 H653 0.930 . S
C662 C660 1.384 . S
C662 C663 1.372 . S
C663 C662 1.372 . S
C663 C664 1.400 . S
C663 C668 1.490 . S
C664 H654 0.930 . S
C664 C663 1.400 . S
C664 C667 1.386 . S
H665 C681 0.930 . S
H666 C682 0.931 . S
C667 H655 0.929 . S
C667 C661 1.390 . S
C667 C664 1.386 . S
C668 C663 1.490 . S
C668 C670 1.395 . S
C668 C671 1.403 . S
H669 C675 0.930 . S
C670 H656 0.930 . S
C670 C668 1.395 . S
C670 C673 1.403 . S
C671 C668 1.403 . S
C671 C672 1.524 . S
C671 C675 1.400 . S
C672 H657 0.960 . S
C672 H658 0.960 . S
C672 H659 0.960 . S
C672 C671 1.524 . S
C673 C670 1.403 . S
C673 C674 1.392 . S
C673 C677 1.495 . S
C674 C673 1.392 . S
C674 C675 1.385 . S
C674 C676 1.478 . S
C675 H669 0.930 . S
C675 C671 1.400 . S
C675 C674 1.385 . S
C676 C674 1.478 . S
C676 C678 1.381 . S
C676 C682 1.383 . S
C677 C673 1.495 . S
C677 H683 0.959 . S
C677 H684 0.961 . S
C677 H685 0.960 . S
C678 C676 1.381 . S
C678 C679 1.394 . S
C678 H686 0.930 . S
C679 C678 1.394 . S
C679 C680 1.383 . S
C679 H687 0.929 . S
C680 C679 1.383 . S
C680 C681 1.377 . S
C681 H665 0.930 . S
C681 C680 1.377 . S
C681 C682 1.379 . S
C682 H666 0.931 . S
C682 C676 1.383 . S
C682 C681 1.379 . S
H683 C677 0.959 . S
H684 C677 0.961 . S
H685 C677 0.960 . S
H686 C678 0.930 . S
H687 C679 0.929 . S
H688 C696 0.929 . S
H689 C698 0.930 . S
H690 C700 0.930 . S
H691 C703 0.929 . S
H692 C706 0.930 . S
H693 C708 0.960 . S
H694 C708 0.960 . S
H695 C708 0.960 . S
C696 H688 0.929 . S
C696 C697 1.377 . S
C696 C698 1.384 . S
C697 C696 1.377 . S
C697 C703 1.390 . S
C698 H689 0.930 . S
C698 C696 1.384 . S
C698 C699 1.372 . S
C699 C698 1.372 . S
C699 C700 1.400 . S
C699 C704 1.490 . S
C700 H690 0.930 . S
C700 C699 1.400 . S
C700 C703 1.386 . S
H701 C717 0.930 . S
H702 C718 0.931 . S
C703 H691 0.929 . S
C703 C697 1.390 . S
C703 C700 1.386 . S
C704 C699 1.490 . S
C704 C706 1.395 . S
C704 C707 1.403 . S
H705 C711 0.930 . S
C706 H692 0.930 . S
C706 C704 1.395 . S
C706 C709 1.403 . S
C707 C704 1.403 . S
C707 C708 1.524 . S
C707 C711 1.400 . S
C708 H693 0.960 . S
C708 H694 0.960 . S
C708 H695 0.960 . S
C708 C707 1.524 . S
C709 C706 1.403 . S
C709 C710 1.392 . S
C709 C713 1.495 . S
C710 C709 1.392 . S
C710 C711 1.385 . S
C710 C712 1.478 . S
C711 H705 0.930 . S
C711 C707 1.400 . S
C711 C710 1.385 . S
C712 C710 1.478 . S
C712 C714 1.381 . S
C712 C718 1.383 . S
C713 C709 1.495 . S
C713 H719 0.959 . S
C713 H720 0.961 . S
C713 H721 0.960 . S
C714 C712 1.381 . S
C714 C715 1.394 . S
C714 H722 0.930 . S
C715 C714 1.394 . S
C715 C716 1.383 . S
C715 H723 0.929 . S
C716 C715 1.383 . S
C716 C717 1.377 . S
C717 H701 0.930 . S
C717 C716 1.377 . S
C717 C718 1.379 . S
C718 H702 0.931 . S
C718 C712 1.383 . S
C718 C717 1.379 . S
H719 C713 0.959 . S
H720 C713 0.961 . S
H721 C713 0.960 . S
H722 C714 0.930 . S
H723 C715 0.929 . S
H724 C732 0.929 . S
H725 C734 0.930 . S
H726 C736 0.930 . S
H727 C739 0.929 . S
H728 C742 0.930 . S
H729 C744 0.960 . S
H730 C744 0.960 . S
H731 C744 0.960 . S
C732 H724 0.929 . S
C732 C733 1.377 . S
C732 C734 1.384 . S
C733 C732 1.377 . S
C733 C739 1.390 . S
C734 H725 0.930 . S
C734 C732 1.384 . S
C734 C735 1.372 . S
C735 C734 1.372 . S
C735 C736 1.400 . S
C735 C740 1.490 . S
C736 H726 0.930 . S
C736 C735 1.400 . S
C736 C739 1.386 . S
H737 C753 0.930 . S
H738 C754 0.931 . S
C739 H727 0.929 . S
C739 C733 1.390 . S
C739 C736 1.386 . S
C740 C735 1.490 . S
C740 C742 1.395 . S
C740 C743 1.403 . S
H741 C747 0.930 . S
C742 H728 0.930 . S
C742 C740 1.395 . S
C742 C745 1.403 . S
C743 C740 1.403 . S
C743 C744 1.524 . S
C743 C747 1.400 . S
C744 H729 0.960 . S
C744 H730 0.960 . S
C744 H731 0.960 . S
C744 C743 1.524 . S
C745 C742 1.403 . S
C745 C746 1.392 . S
C745 C749 1.495 . S
C746 C745 1.392 . S
C746 C747 1.385 . S
C746 C748 1.478 . S
C747 H741 0.930 . S
C747 C743 1.400 . S
C747 C746 1.385 . S
C748 C746 1.478 . S
C748 C750 1.381 . S
C748 C754 1.383 . S
C749 C745 1.495 . S
C749 H755 0.959 . S
C749 H756 0.961 . S
C749 H757 0.960 . S
C750 C748 1.381 . S
C750 C751 1.394 . S
C750 H758 0.930 . S
C751 C750 1.394 . S
C751 C752 1.383 . S
C751 H759 0.929 . S
C752 C751 1.383 . S
C752 C753 1.377 . S
C753 H737 0.930 . S
C753 C752 1.377 . S
C753 C754 1.379 . S
C754 H738 0.931 . S
C754 C748 1.383 . S
C754 C753 1.379 . S
H755 C749 0.959 . S
H756 C749 0.961 . S
H757 C749 0.960 . S
H758 C750 0.930 . S
H759 C751 0.929 . S
H760 C768 0.929 . S
H761 C770 0.930 . S
H762 C772 0.930 . S
H763 C775 0.929 . S
H764 C778 0.930 . S
H765 C780 0.960 . S
H766 C780 0.960 . S
H767 C780 0.960 . S
C768 H760 0.929 . S
C768 C769 1.377 . S
C768 C770 1.384 . S
C769 C768 1.377 . S
C769 C775 1.390 . S
C770 H761 0.930 . S
C770 C768 1.384 . S
C770 C771 1.372 . S
C771 C770 1.372 . S
C771 C772 1.400 . S
C771 C776 1.490 . S
C772 H762 0.930 . S
C772 C771 1.400 . S
C772 C775 1.386 . S
H773 C789 0.930 . S
H774 C790 0.931 . S
C775 H763 0.929 . S
C775 C769 1.390 . S
C775 C772 1.386 . S
C776 C771 1.490 . S
C776 C778 1.395 . S
C776 C779 1.403 . S
H777 C783 0.930 . S
C778 H764 0.930 . S
C778 C776 1.395 . S
C778 C781 1.403 . S
C779 C776 1.403 . S
C779 C780 1.524 . S
C779 C783 1.400 . S
C780 H765 0.960 . S
C780 H766 0.960 . S
C780 H767 0.960 . S
C780 C779 1.524 . S
C781 C778 1.403 . S
C781 C782 1.392 . S
C781 C785 1.495 . S
C782 C781 1.392 . S
C782 C783 1.385 . S
C782 C784 1.478 . S
C783 H777 0.930 . S
C783 C779 1.400 . S
C783 C782 1.385 . S
C784 C782 1.478 . S
C784 C786 1.381 . S
C784 C790 1.383 . S
C785 C781 1.495 . S
C785 H791 0.959 . S
C785 H792 0.961 . S
C785 H793 0.960 . S
C786 C784 1.381 . S
C786 C787 1.394 . S
C786 H794 0.930 . S
C787 C786 1.394 . S
C787 C788 1.383 . S
C787 H795 0.929 . S
C788 C787 1.383 . S
C788 C789 1.377 . S
C789 H773 0.930 . S
C789 C788 1.377 . S
C789 C790 1.379 . S
C790 H774 0.931 . S
C790 C784 1.383 . S
C790 C789 1.379 . S
H791 C785 0.959 . S
H792 C785 0.961 . S
H793 C785 0.960 . S
H794 C786 0.930 . S
H795 C787 0.929 . S
H796 C804 0.929 . S
H797 C806 0.930 . S
H798 C808 0.930 . S
H799 C811 0.929 . S
H800 C814 0.930 . S
H801 C816 0.960 . S
H802 C816 0.960 . S
H803 C816 0.960 . S
C804 H796 0.929 . S
C804 C805 1.377 . S
C804 C806 1.384 . S
C805 C804 1.377 . S
C805 C811 1.390 . S
C806 H797 0.930 . S
C806 C804 1.384 . S
C806 C807 1.372 . S
C807 C806 1.372 . S
C807 C808 1.400 . S
C807 C812 1.490 . S
C808 H798 0.930 . S
C808 C807 1.400 . S
C808 C811 1.386 . S
H809 C825 0.930 . S
H810 C826 0.931 . S
C811 H799 0.929 . S
C811 C805 1.390 . S
C811 C808 1.386 . S
C812 C807 1.490 . S
C812 C814 1.395 . S
C812 C815 1.403 . S
H813 C819 0.930 . S
C814 H800 0.930 . S
C814 C812 1.395 . S
C814 C817 1.403 . S
C815 C812 1.403 . S
C815 C816 1.524 . S
C815 C819 1.400 . S
C816 H801 0.960 . S
C816 H802 0.960 . S
C816 H803 0.960 . S
C816 C815 1.524 . S
C817 C814 1.403 . S
C817 C818 1.392 . S
C817 C821 1.495 . S
C818 C817 1.392 . S
C818 C819 1.385 . S
C818 C820 1.478 . S
C819 H813 0.930 . S
C819 C815 1.400 . S
C819 C818 1.385 . S
C820 C818 1.478 . S
C820 C822 1.381 . S
C820 C826 1.383 . S
C821 C817 1.495 . S
C821 H827 0.959 . S
C821 H828 0.961 . S
C821 H829 0.960 . S
C822 C820 1.381 . S
C822 C823 1.394 . S
C822 H830 0.930 . S
C823 C822 1.394 . S
C823 C824 1.383 . S
C823 H831 0.929 . S
C824 C823 1.383 . S
C824 C825 1.377 . S
C825 H809 0.930 . S
C825 C824 1.377 . S
C825 C826 1.379 . S
C826 H810 0.931 . S
C826 C820 1.383 . S
C826 C825 1.379 . S
H827 C821 0.959 . S
H828 C821 0.961 . S
H829 C821 0.960 . S
H830 C822 0.930 . S
H831 C823 0.929 . S
H832 C840 0.929 . S
H833 C842 0.930 . S
H834 C844 0.930 1_565 S
H835 C847 0.929 . S
H836 C850 0.930 . S
H837 C852 0.960 . S
H838 C852 0.960 . S
H839 C852 0.960 . S
C840 H832 0.929 . S
C840 C841 1.377 . S
C840 C842 1.384 1_545 S
C841 C840 1.377 . S
C841 C847 1.390 1_554 S
C842 H833 0.930 . S
C842 C840 1.384 1_565 S
C842 C843 1.372 . S
C843 C842 1.372 . S
C843 C844 1.399 1_564 S
C843 C848 1.490 . S
C844 H834 0.930 1_545 S
C844 C843 1.399 1_546 S
C844 C847 1.386 . S
H845 C861 0.930 . S
H846 C862 0.931 . S
C847 H835 0.929 . S
C847 C841 1.390 1_556 S
C847 C844 1.386 . S
C848 C843 1.490 . S
C848 C850 1.395 . S
C848 C851 1.403 1_554 S
H849 C855 0.930 . S
C850 H836 0.930 . S
C850 C848 1.395 . S
C850 C853 1.403 . S
C851 C848 1.403 1_556 S
C851 C852 1.524 . S
C851 C855 1.400 . S
C852 H837 0.960 . S
C852 H838 0.960 . S
C852 H839 0.960 . S
C852 C851 1.524 . S
C853 C850 1.403 . S
C853 C854 1.392 . S
C853 C857 1.495 . S
C854 C853 1.392 . S
C854 C855 1.385 1_554 S
C854 C856 1.478 . S
C855 H849 0.930 . S
C855 C851 1.400 . S
C855 C854 1.385 1_556 S
C856 C854 1.478 . S
C856 C858 1.381 . S
C856 C862 1.383 1_554 S
C857 C853 1.495 . S
C857 H863 0.959 . S
C857 H864 0.961 . S
C857 H865 0.960 . S
C858 C856 1.381 . S
C858 C859 1.394 . S
C858 H866 0.930 . S
C859 C858 1.394 . S
C859 C860 1.383 1_554 S
C859 H867 0.929 . S
C860 C859 1.383 1_556 S
C860 C861 1.377 . S
C861 H845 0.930 . S
C861 C860 1.377 . S
C861 C862 1.379 . S
C862 H846 0.931 . S
C862 C856 1.383 1_556 S
C862 C861 1.379 . S
H863 C857 0.959 . S
H864 C857 0.961 . S
H865 C857 0.960 . S
H866 C858 0.930 . S
H867 C859 0.929 . S
H868 C876 0.929 . S
H869 C878 0.930 . S
H870 C880 0.930 1_554 S
H871 C883 0.927 . S
H872 C886 0.930 . S
H873 C888 0.960 . S
H874 C888 0.960 . S
H875 C888 0.960 . S
C876 H868 0.929 . S
C876 C877 1.377 . S
C876 C878 1.384 1_455 S
C877 C876 1.377 . S
C877 C883 1.390 . S
C878 H869 0.930 . S
C878 C876 1.384 1_655 S
C878 C879 1.372 . S
C879 C878 1.372 . S
C879 C880 1.400 1_655 S
C879 C884 1.490 . S
C880 H870 0.930 1_556 S
C880 C879 1.400 1_455 S
C880 C883 1.386 . S
H881 C897 0.930 . S
H882 C898 0.931 . S
C883 H871 0.927 . S
C883 C877 1.390 . S
C883 C880 1.386 . S
C884 C879 1.490 . S
C884 C886 1.395 1_556 S
C884 C887 1.403 . S
H885 C891 0.930 . S
C886 H872 0.930 . S
C886 C884 1.395 1_554 S
C886 C889 1.403 . S
C887 C884 1.403 . S
C887 C888 1.524 . S
C887 C891 1.400 . S
C888 H873 0.960 . S
C888 H874 0.960 . S
C888 H875 0.960 . S
C888 C887 1.524 . S
C889 C886 1.403 . S
C889 C890 1.392 1_554 S
C889 C893 1.495 . S
C890 C889 1.392 1_556 S
C890 C891 1.385 . S
C890 C892 1.478 1_556 S
C891 H885 0.930 . S
C891 C887 1.400 . S
C891 C890 1.385 . S
C892 C890 1.478 1_554 S
C892 C894 1.381 1_554 S
C892 C898 1.383 . S
C893 C889 1.495 . S
C893 H899 0.959 . S
C893 H900 0.961 . S
C893 H901 0.960 . S
C894 C892 1.381 1_556 S
C894 C895 1.394 . S
C894 H902 0.930 . S
C895 C894 1.394 . S
C895 C896 1.383 1_556 S
C895 H903 0.929 . S
C896 C895 1.383 1_554 S
C896 C897 1.377 . S
C897 H881 0.930 . S
C897 C896 1.377 . S
C897 C898 1.379 . S
C898 H882 0.931 . S
C898 C892 1.383 . S
C898 C897 1.379 . S
H899 C893 0.959 . S
H900 C893 0.961 . S
H901 C893 0.960 . S
H902 C894 0.930 . S
H903 C895 0.929 . S
H904 C912 0.929 . S
H905 C914 0.930 . S
H906 C916 0.930 . S
H907 C919 0.929 . S
H908 C922 0.930 . S
H909 C924 0.961 1_556 S
H910 C924 0.960 1_556 S
H911 C924 0.960 . S
C912 H904 0.929 . S
C912 C913 1.377 1_556 S
C912 C914 1.384 1_565 S
C913 C912 1.377 1_554 S
C913 C919 1.390 . S
C914 H905 0.930 . S
C914 C912 1.384 1_545 S
C914 C915 1.372 1_556 S
C915 C914 1.372 1_554 S
C915 C916 1.400 . S
C915 C920 1.490 . S
C916 H906 0.930 . S
C916 C915 1.400 . S
C916 C919 1.386 1_545 S
H917 C933 0.930 . S
H918 C934 0.931 . S
C919 H907 0.929 . S
C919 C913 1.390 . S
C919 C916 1.386 1_565 S
C920 C915 1.490 . S
C920 C922 1.395 . S
C920 C923 1.403 . S
H921 C927 0.934 . S
C922 H908 0.930 . S
C922 C920 1.395 . S
C922 C925 1.403 . S
C923 C920 1.403 . S
C923 C924 1.524 . S
C923 C927 1.400 . S
C924 H909 0.961 1_554 S
C924 H910 0.960 1_554 S
C924 H911 0.960 . S
C924 C923 1.524 . S
C925 C922 1.403 . S
C925 C926 1.392 . S
C925 C929 1.495 . S
C926 C925 1.392 . S
C926 C927 1.385 . S
C926 C928 1.478 . S
C927 H921 0.934 . S
C927 C923 1.400 . S
C927 C926 1.385 . S
C928 C926 1.478 . S
C928 C930 1.381 1_554 S
C928 C934 1.383 . S
C929 C925 1.495 . S
C929 H935 0.959 . S
C929 H936 0.961 . S
C929 H937 0.960 1_554 S
C930 C928 1.381 1_556 S
C930 C931 1.394 . S
C930 H938 0.930 . S
C931 C930 1.394 . S
C931 C932 1.383 . S
C931 H939 0.929 . S
C932 C931 1.383 . S
C932 C933 1.377 1_556 S
C933 H917 0.930 . S
C933 C932 1.377 1_554 S
C933 C934 1.379 . S
C934 H918 0.931 . S
C934 C928 1.383 . S
C934 C933 1.379 . S
H935 C929 0.959 . S
H936 C929 0.961 . S
H937 C929 0.960 1_556 S
H938 C930 0.930 . S
H939 C931 0.929 . S
H940 C948 0.929 . S
H941 C950 0.930 . S
H942 C952 0.930 . S
H943 C955 0.929 . S
H944 C958 0.930 . S
H945 C960 0.960 . S
H946 C960 0.960 . S
H947 C960 0.960 . S
C948 H940 0.929 . S
C948 C949 1.377 1_556 S
C948 C950 1.384 . S
C949 C948 1.377 1_554 S
C949 C955 1.390 . S
C950 H941 0.930 . S
C950 C948 1.384 . S
C950 C951 1.372 . S
C951 C950 1.372 . S
C951 C952 1.400 1_556 S
C951 C956 1.490 . S
C952 H942 0.930 . S
C952 C951 1.400 1_554 S
C952 C955 1.386 . S
H953 C969 0.930 . S
H954 C970 0.932 1_455 S
C955 H943 0.929 . S
C955 C949 1.390 . S
C955 C952 1.386 . S
C956 C951 1.490 . S
C956 C958 1.395 . S
C956 C959 1.403 1_556 S
H957 C963 0.930 . S
C958 H944 0.930 . S
C958 C956 1.395 . S
C958 C961 1.403 . S
C959 C956 1.403 1_554 S
C959 C960 1.524 . S
C959 C963 1.400 . S
C960 H945 0.960 . S
C960 H946 0.960 . S
C960 H947 0.960 . S
C960 C959 1.524 . S
C961 C958 1.403 . S
C961 C962 1.392 . S
C961 C965 1.495 . S
C962 C961 1.392 . S
C962 C963 1.385 1_556 S
C962 C964 1.478 . S
C963 H957 0.930 . S
C963 C959 1.400 . S
C963 C962 1.385 1_554 S
C964 C962 1.478 . S
C964 C966 1.381 . S
C964 C970 1.385 1_456 S
C965 C961 1.495 . S
C965 H971 0.959 . S
C965 H972 0.961 . S
C965 H973 0.960 . S
C966 C964 1.381 . S
C966 C967 1.394 1_455 S
C966 H974 0.930 . S
C967 C966 1.394 1_655 S
C967 C968 1.383 . S
C967 H975 0.929 . S
C968 C967 1.383 . S
C968 C969 1.377 1_556 S
C969 H953 0.930 . S
C969 C968 1.377 1_554 S
C969 C970 1.377 . S
C970 H954 0.932 1_655 S
C970 C964 1.385 1_654 S
C970 C969 1.377 . S
H971 C965 0.959 . S
H972 C965 0.961 . S
H973 C965 0.960 . S
H974 C966 0.930 . S
H975 C967 0.929 . S
H976 C984 0.929 . S
H977 C986 0.930 . S
H978 C988 0.930 . S
H979 C991 0.929 . S
H980 C994 0.930 . S
H981 C996 0.960 . S
H982 C996 0.960 . S
H983 C996 0.960 . S
C984 H976 0.929 . S
C984 C985 1.377 . S
C984 C986 1.384 . S
C985 C984 1.377 . S
C985 C991 1.390 . S
C986 H977 0.930 . S
C986 C984 1.384 . S
C986 C987 1.372 . S
C987 C986 1.372 . S
C987 C988 1.400 . S
C987 C992 1.490 . S
C988 H978 0.930 . S
C988 C987 1.400 . S
C988 C991 1.386 . S
H989 C1005 0.930 . S
H990 C1006 0.931 . S
C991 H979 0.929 . S
C991 C985 1.390 . S
C991 C988 1.386 . S
C992 C987 1.490 . S
C992 C994 1.395 . S
C992 C995 1.403 . S
H993 C999 0.930 . S
C994 H980 0.930 . S
C994 C992 1.395 . S
C994 C997 1.403 . S
C995 C992 1.403 . S
C995 C996 1.524 . S
C995 C999 1.400 . S
C996 H981 0.960 . S
C996 H982 0.960 . S
C996 H983 0.960 . S
C996 C995 1.524 . S
C997 C994 1.403 . S
C997 C998 1.392 . S
C997 C1001 1.495 . S
C998 C997 1.392 . S
C998 C999 1.385 . S
C998 C1000 1.478 . S
C999 H993 0.930 . S
C999 C995 1.400 . S
C999 C998 1.385 . S
C1000 C998 1.478 . S
C1000 C1002 1.381 . S
C1000 C1006 1.383 . S
C1001 C997 1.495 . S
C1001 H1007 0.959 . S
C1001 H1008 0.961 . S
C1001 H1009 0.960 . S
C1002 C1000 1.381 . S
C1002 C1003 1.394 . S
C1002 H1010 0.930 . S
C1003 C1002 1.394 . S
C1003 C1004 1.383 . S
C1003 H1011 0.929 . S
C1004 C1003 1.383 . S
C1004 C1005 1.377 . S
C1005 H989 0.930 . S
C1005 C1004 1.377 . S
C1005 C1006 1.379 . S
C1006 H990 0.931 . S
C1006 C1000 1.383 . S
C1006 C1005 1.379 . S
H1007 C1001 0.959 . S
H1008 C1001 0.961 . S
H1009 C1001 0.960 . S
H1010 C1002 0.930 . S
H1011 C1003 0.929 . S
H1012 C1020 0.929 . S
H1013 C1022 0.930 . S
H1014 C1024 0.930 . S
H1015 C1027 0.929 . S
H1016 C1030 0.930 . S
H1017 C1032 0.960 . S
H1018 C1032 0.960 . S
H1019 C1032 0.960 . S
C1020 H1012 0.929 . S
C1020 C1021 1.377 . S
C1020 C1022 1.384 . S
C1021 C1020 1.377 . S
C1021 C1027 1.390 . S
C1022 H1013 0.930 . S
C1022 C1020 1.384 . S
C1022 C1023 1.372 . S
C1023 C1022 1.372 . S
C1023 C1024 1.400 . S
C1023 C1028 1.490 . S
C1024 H1014 0.930 . S
C1024 C1023 1.400 . S
C1024 C1027 1.386 . S
H1025 C1041 0.930 . S
H1026 C1042 0.931 . S
C1027 H1015 0.929 . S
C1027 C1021 1.390 . S
C1027 C1024 1.386 . S
C1028 C1023 1.490 . S
C1028 C1030 1.395 . S
C1028 C1031 1.403 . S
H1029 C1035 0.930 . S
C1030 H1016 0.930 . S
C1030 C1028 1.395 . S
C1030 C1033 1.403 . S
C1031 C1028 1.403 . S
C1031 C1032 1.524 . S
C1031 C1035 1.400 . S
C1032 H1017 0.960 . S
C1032 H1018 0.960 . S
C1032 H1019 0.960 . S
C1032 C1031 1.524 . S
C1033 C1030 1.403 . S
C1033 C1034 1.392 . S
C1033 C1037 1.495 . S
C1034 C1033 1.392 . S
C1034 C1035 1.385 . S
C1034 C1036 1.478 . S
C1035 H1029 0.930 . S
C1035 C1031 1.400 . S
C1035 C1034 1.385 . S
C1036 C1034 1.478 . S
C1036 C1038 1.381 . S
C1036 C1042 1.383 . S
C1037 C1033 1.495 . S
C1037 H1043 0.959 . S
C1037 H1044 0.961 . S
C1037 H1045 0.960 . S
C1038 C1036 1.381 . S
C1038 C1039 1.394 . S
C1038 H1046 0.930 . S
C1039 C1038 1.394 . S
C1039 C1040 1.383 . S
C1039 H1047 0.929 . S
C1040 C1039 1.383 . S
C1040 C1041 1.377 . S
C1041 H1025 0.930 . S
C1041 C1040 1.377 . S
C1041 C1042 1.379 . S
C1042 H1026 0.931 . S
C1042 C1036 1.383 . S
C1042 C1041 1.379 . S
H1043 C1037 0.959 . S
H1044 C1037 0.961 . S
H1045 C1037 0.960 . S
H1046 C1038 0.930 . S
H1047 C1039 0.929 . S
H1048 C1056 0.929 . S
H1049 C1058 0.930 . S
H1050 C1060 0.930 . S
H1051 C1063 0.929 . S
H1052 C1066 0.930 . S
H1053 C1068 0.960 . S
H1054 C1068 0.960 . S
H1055 C1068 0.960 . S
C1056 H1048 0.929 . S
C1056 C1057 1.377 . S
C1056 C1058 1.384 . S
C1057 C1056 1.377 . S
C1057 C1063 1.390 . S
C1058 H1049 0.930 . S
C1058 C1056 1.384 . S
C1058 C1059 1.372 . S
C1059 C1058 1.372 . S
C1059 C1060 1.400 . S
C1059 C1064 1.490 . S
C1060 H1050 0.930 . S
C1060 C1059 1.400 . S
C1060 C1063 1.386 . S
H1061 C1077 0.930 . S
H1062 C1078 0.931 . S
C1063 H1051 0.929 . S
C1063 C1057 1.390 . S
C1063 C1060 1.386 . S
C1064 C1059 1.490 . S
C1064 C1066 1.395 . S
C1064 C1067 1.403 . S
H1065 C1071 0.930 . S
C1066 H1052 0.930 . S
C1066 C1064 1.395 . S
C1066 C1069 1.403 . S
C1067 C1064 1.403 . S
C1067 C1068 1.524 . S
C1067 C1071 1.400 . S
C1068 H1053 0.960 . S
C1068 H1054 0.960 . S
C1068 H1055 0.960 . S
C1068 C1067 1.524 . S
C1069 C1066 1.403 . S
C1069 C1070 1.392 . S
C1069 C1073 1.495 . S
C1070 C1069 1.392 . S
C1070 C1071 1.385 . S
C1070 C1072 1.478 . S
C1071 H1065 0.930 . S
C1071 C1067 1.400 . S
C1071 C1070 1.385 . S
C1072 C1070 1.478 . S
C1072 C1074 1.381 . S
C1072 C1078 1.383 . S
C1073 C1069 1.495 . S
C1073 H1079 0.959 . S
C1073 H1080 0.961 . S
C1073 H1081 0.960 . S
C1074 C1072 1.381 . S
C1074 C1075 1.394 . S
C1074 H1082 0.930 . S
C1075 C1074 1.394 . S
C1075 C1076 1.383 . S
C1075 H1083 0.929 . S
C1076 C1075 1.383 . S
C1076 C1077 1.377 . S
C1077 H1061 0.930 . S
C1077 C1076 1.377 . S
C1077 C1078 1.379 . S
C1078 H1062 0.931 . S
C1078 C1072 1.383 . S
C1078 C1077 1.379 . S
H1079 C1073 0.959 . S
H1080 C1073 0.961 . S
H1081 C1073 0.960 . S
H1082 C1074 0.930 . S
H1083 C1075 0.929 . S
H1084 C1092 0.929 . S
H1085 C1094 0.930 . S
H1086 C1096 0.930 . S
H1087 C1099 0.929 . S
H1088 C1102 0.930 . S
H1089 C1104 0.960 . S
H1090 C1104 0.960 . S
H1091 C1104 0.960 . S
C1092 H1084 0.929 . S
C1092 C1093 1.377 . S
C1092 C1094 1.384 . S
C1093 C1092 1.377 . S
C1093 C1099 1.390 . S
C1094 H1085 0.930 . S
C1094 C1092 1.384 . S
C1094 C1095 1.372 . S
C1095 C1094 1.372 . S
C1095 C1096 1.400 . S
C1095 C1100 1.490 . S
C1096 H1086 0.930 . S
C1096 C1095 1.400 . S
C1096 C1099 1.386 . S
H1097 C1113 0.930 . S
H1098 C1114 0.931 . S
C1099 H1087 0.929 . S
C1099 C1093 1.390 . S
C1099 C1096 1.386 . S
C1100 C1095 1.490 . S
C1100 C1102 1.395 . S
C1100 C1103 1.403 . S
H1101 C1107 0.930 . S
C1102 H1088 0.930 . S
C1102 C1100 1.395 . S
C1102 C1105 1.403 . S
C1103 C1100 1.403 . S
C1103 C1104 1.524 . S
C1103 C1107 1.400 . S
C1104 H1089 0.960 . S
C1104 H1090 0.960 . S
C1104 H1091 0.960 . S
C1104 C1103 1.524 . S
C1105 C1102 1.403 . S
C1105 C1106 1.392 . S
C1105 C1109 1.495 . S
C1106 C1105 1.392 . S
C1106 C1107 1.385 . S
C1106 C1108 1.478 . S
C1107 H1101 0.930 . S
C1107 C1103 1.400 . S
C1107 C1106 1.385 . S
C1108 C1106 1.478 . S
C1108 C1110 1.381 . S
C1108 C1114 1.383 . S
C1109 C1105 1.495 . S
C1109 H1115 0.959 . S
C1109 H1116 0.961 . S
C1109 H1117 0.960 . S
C1110 C1108 1.381 . S
C1110 C1111 1.394 . S
C1110 H1118 0.930 . S
C1111 C1110 1.394 . S
C1111 C1112 1.383 . S
C1111 H1119 0.929 . S
C1112 C1111 1.383 . S
C1112 C1113 1.377 . S
C1113 H1097 0.930 . S
C1113 C1112 1.377 . S
C1113 C1114 1.379 . S
C1114 H1098 0.931 . S
C1114 C1108 1.383 . S
C1114 C1113 1.379 . S
H1115 C1109 0.959 . S
H1116 C1109 0.961 . S
H1117 C1109 0.960 . S
H1118 C1110 0.930 . S
H1119 C1111 0.929 . S
H1120 C1128 0.929 . S
H1121 C1130 0.930 . S
H1122 C1132 0.930 . S
H1123 C1135 0.929 . S
H1124 C1138 0.930 . S
H1125 C1140 0.960 . S
H1126 C1140 0.960 . S
H1127 C1140 0.960 . S
C1128 H1120 0.929 . S
C1128 C1129 1.377 . S
C1128 C1130 1.384 . S
C1129 C1128 1.377 . S
C1129 C1135 1.390 . S
C1130 H1121 0.930 . S
C1130 C1128 1.384 . S
C1130 C1131 1.372 . S
C1131 C1130 1.372 . S
C1131 C1132 1.400 . S
C1131 C1136 1.490 . S
C1132 H1122 0.930 . S
C1132 C1131 1.400 . S
C1132 C1135 1.386 . S
H1133 C1149 0.930 . S
H1134 C1150 0.931 . S
C1135 H1123 0.929 . S
C1135 C1129 1.390 . S
C1135 C1132 1.386 . S
C1136 C1131 1.490 . S
C1136 C1138 1.395 . S
C1136 C1139 1.403 . S
H1137 C1143 0.930 . S
C1138 H1124 0.930 . S
C1138 C1136 1.395 . S
C1138 C1141 1.403 . S
C1139 C1136 1.403 . S
C1139 C1140 1.524 . S
C1139 C1143 1.400 . S
C1140 H1125 0.960 . S
C1140 H1126 0.960 . S
C1140 H1127 0.960 . S
C1140 C1139 1.524 . S
C1141 C1138 1.403 . S
C1141 C1142 1.392 . S
C1141 C1145 1.495 . S
C1142 C1141 1.392 . S
C1142 C1143 1.385 . S
C1142 C1144 1.478 . S
C1143 H1137 0.930 . S
C1143 C1139 1.400 . S
C1143 C1142 1.385 . S
C1144 C1142 1.478 . S
C1144 C1146 1.381 . S
C1144 C1150 1.383 . S
C1145 C1141 1.495 . S
C1145 H1151 0.959 . S
C1145 H1152 0.961 . S
C1145 H1153 0.960 . S
C1146 C1144 1.381 . S
C1146 C1147 1.394 . S
C1146 H1154 0.930 . S
C1147 C1146 1.394 . S
C1147 C1148 1.383 . S
C1147 H1155 0.929 . S
C1148 C1147 1.383 . S
C1148 C1149 1.377 . S
C1149 H1133 0.930 . S
C1149 C1148 1.377 . S
C1149 C1150 1.379 . S
C1150 H1134 0.931 . S
C1150 C1144 1.383 . S
C1150 C1149 1.379 . S
H1151 C1145 0.959 . S
H1152 C1145 0.961 . S
H1153 C1145 0.960 . S
H1154 C1146 0.930 . S
H1155 C1147 0.929 . S
H1156 C1164 0.929 . S
H1157 C1166 0.930 . S
H1158 C1168 0.930 . S
H1159 C1171 0.929 . S
H1160 C1174 0.930 . S
H1161 C1176 0.960 . S
H1162 C1176 0.960 . S
H1163 C1176 0.960 . S
C1164 H1156 0.929 . S
C1164 C1165 1.377 . S
C1164 C1166 1.384 . S
C1165 C1164 1.377 . S
C1165 C1171 1.390 . S
C1166 H1157 0.930 . S
C1166 C1164 1.384 . S
C1166 C1167 1.372 . S
C1167 C1166 1.372 . S
C1167 C1168 1.400 . S
C1167 C1172 1.490 . S
C1168 H1158 0.930 . S
C1168 C1167 1.400 . S
C1168 C1171 1.386 . S
H1169 C1185 0.930 . S
H1170 C1186 0.931 . S
C1171 H1159 0.929 . S
C1171 C1165 1.390 . S
C1171 C1168 1.386 . S
C1172 C1167 1.490 . S
C1172 C1174 1.395 . S
C1172 C1175 1.403 . S
H1173 C1179 0.930 . S
C1174 H1160 0.930 . S
C1174 C1172 1.395 . S
C1174 C1177 1.403 . S
C1175 C1172 1.403 . S
C1175 C1176 1.524 . S
C1175 C1179 1.400 . S
C1176 H1161 0.960 . S
C1176 H1162 0.960 . S
C1176 H1163 0.960 . S
C1176 C1175 1.524 . S
C1177 C1174 1.403 . S
C1177 C1178 1.392 . S
C1177 C1181 1.495 . S
C1178 C1177 1.392 . S
C1178 C1179 1.385 . S
C1178 C1180 1.478 . S
C1179 H1173 0.930 . S
C1179 C1175 1.400 . S
C1179 C1178 1.385 . S
C1180 C1178 1.478 . S
C1180 C1182 1.381 . S
C1180 C1186 1.383 . S
C1181 C1177 1.495 . S
C1181 H1187 0.959 . S
C1181 H1188 0.961 . S
C1181 H1189 0.960 . S
C1182 C1180 1.381 . S
C1182 C1183 1.394 . S
C1182 H1190 0.930 . S
C1183 C1182 1.394 . S
C1183 C1184 1.383 . S
C1183 H1191 0.929 . S
C1184 C1183 1.383 . S
C1184 C1185 1.377 . S
C1185 H1169 0.930 . S
C1185 C1184 1.377 . S
C1185 C1186 1.379 . S
C1186 H1170 0.931 . S
C1186 C1180 1.383 . S
C1186 C1185 1.379 . S
H1187 C1181 0.959 . S
H1188 C1181 0.961 . S
H1189 C1181 0.960 . S
H1190 C1182 0.930 . S
H1191 C1183 0.929 . S
H1192 C1200 0.929 . S
H1193 C1202 0.930 . S
H1194 C1204 0.930 . S
H1195 C1207 0.929 . S
H1196 C1210 0.930 . S
H1197 C1212 0.960 . S
H1198 C1212 0.960 . S
H1199 C1212 0.960 . S
C1200 H1192 0.929 . S
C1200 C1201 1.377 . S
C1200 C1202 1.384 . S
C1201 C1200 1.377 . S
C1201 C1207 1.390 . S
C1202 H1193 0.930 . S
C1202 C1200 1.384 . S
C1202 C1203 1.372 . S
C1203 C1202 1.372 . S
C1203 C1204 1.400 . S
C1203 C1208 1.490 . S
C1204 H1194 0.930 . S
C1204 C1203 1.400 . S
C1204 C1207 1.386 . S
H1205 C1221 0.930 . S
H1206 C1222 0.931 . S
C1207 H1195 0.929 . S
C1207 C1201 1.390 . S
C1207 C1204 1.386 . S
C1208 C1203 1.490 . S
C1208 C1210 1.395 . S
C1208 C1211 1.403 . S
H1209 C1215 0.930 . S
C1210 H1196 0.930 . S
C1210 C1208 1.395 . S
C1210 C1213 1.403 . S
C1211 C1208 1.403 . S
C1211 C1212 1.524 . S
C1211 C1215 1.400 . S
C1212 H1197 0.960 . S
C1212 H1198 0.960 . S
C1212 H1199 0.960 . S
C1212 C1211 1.524 . S
C1213 C1210 1.403 . S
C1213 C1214 1.392 . S
C1213 C1217 1.495 . S
C1214 C1213 1.392 . S
C1214 C1215 1.385 . S
C1214 C1216 1.478 . S
C1215 H1209 0.930 . S
C1215 C1211 1.400 . S
C1215 C1214 1.385 . S
C1216 C1214 1.478 . S
C1216 C1218 1.381 . S
C1216 C1222 1.383 . S
C1217 C1213 1.495 . S
C1217 H1223 0.959 . S
C1217 H1224 0.961 . S
C1217 H1225 0.960 . S
C1218 C1216 1.381 . S
C1218 C1219 1.394 . S
C1218 H1226 0.930 . S
C1219 C1218 1.394 . S
C1219 C1220 1.383 . S
C1219 H1227 0.929 . S
C1220 C1219 1.383 . S
C1220 C1221 1.377 . S
C1221 H1205 0.930 . S
C1221 C1220 1.377 . S
C1221 C1222 1.379 . S
C1222 H1206 0.931 . S
C1222 C1216 1.383 . S
C1222 C1221 1.379 . S
H1223 C1217 0.959 . S
H1224 C1217 0.961 . S
H1225 C1217 0.960 . S
H1226 C1218 0.930 . S
H1227 C1219 0.929 . S
H1228 C1236 0.929 . S
H1229 C1238 0.930 . S
H1230 C1240 0.930 . S
H1231 C1243 0.929 . S
H1232 C1246 0.930 . S
H1233 C1248 0.960 . S
H1234 C1248 0.960 . S
H1235 C1248 0.960 . S
C1236 H1228 0.929 . S
C1236 C1237 1.377 . S
C1236 C1238 1.384 . S
C1237 C1236 1.377 . S
C1237 C1243 1.390 . S
C1238 H1229 0.930 . S
C1238 C1236 1.384 . S
C1238 C1239 1.372 . S
C1239 C1238 1.372 . S
C1239 C1240 1.400 . S
C1239 C1244 1.490 . S
C1240 H1230 0.930 . S
C1240 C1239 1.400 . S
C1240 C1243 1.386 . S
H1241 C1257 0.930 . S
H1242 C1258 0.931 . S
C1243 H1231 0.929 . S
C1243 C1237 1.390 . S
C1243 C1240 1.386 . S
C1244 C1239 1.490 . S
C1244 C1246 1.395 . S
C1244 C1247 1.403 . S
H1245 C1251 0.930 . S
C1246 H1232 0.930 . S
C1246 C1244 1.395 . S
C1246 C1249 1.403 . S
C1247 C1244 1.403 . S
C1247 C1248 1.524 . S
C1247 C1251 1.400 . S
C1248 H1233 0.960 . S
C1248 H1234 0.960 . S
C1248 H1235 0.960 . S
C1248 C1247 1.524 . S
C1249 C1246 1.403 . S
C1249 C1250 1.392 . S
C1249 C1253 1.495 . S
C1250 C1249 1.392 . S
C1250 C1251 1.385 . S
C1250 C1252 1.478 . S
C1251 H1245 0.930 . S
C1251 C1247 1.400 . S
C1251 C1250 1.385 . S
C1252 C1250 1.478 . S
C1252 C1254 1.381 . S
C1252 C1258 1.383 . S
C1253 C1249 1.495 . S
C1253 H1259 0.959 . S
C1253 H1260 0.961 . S
C1253 H1261 0.960 . S
C1254 C1252 1.381 . S
C1254 C1255 1.394 . S
C1254 H1262 0.930 . S
C1255 C1254 1.394 . S
C1255 C1256 1.383 . S
C1255 H1263 0.929 . S
C1256 C1255 1.383 . S
C1256 C1257 1.377 . S
C1257 H1241 0.930 . S
C1257 C1256 1.377 . S
C1257 C1258 1.379 . S
C1258 H1242 0.931 . S
C1258 C1252 1.383 . S
C1258 C1257 1.379 . S
H1259 C1253 0.959 . S
H1260 C1253 0.961 . S
H1261 C1253 0.960 . S
H1262 C1254 0.930 . S
H1263 C1255 0.929 . S
H1264 C1272 0.929 . S
H1265 C1274 0.930 . S
H1266 C1276 0.930 . S
H1267 C1279 0.929 . S
H1268 C1282 0.930 . S
H1269 C1284 0.960 . S
H1270 C1284 0.960 . S
H1271 C1284 0.960 . S
C1272 H1264 0.929 . S
C1272 C1273 1.377 . S
C1272 C1274 1.384 1_565 S
C1273 C1272 1.377 . S
C1273 C1279 1.390 . S
C1274 H1265 0.930 . S
C1274 C1272 1.384 1_545 S
C1274 C1275 1.372 . S
C1275 C1274 1.372 . S
C1275 C1276 1.400 . S
C1275 C1280 1.490 . S
C1276 H1266 0.930 . S
C1276 C1275 1.400 . S
C1276 C1279 1.386 1_545 S
H1277 C1293 0.930 . S
H1278 C1294 0.931 . S
C1279 H1267 0.929 . S
C1279 C1273 1.390 . S
C1279 C1276 1.386 1_565 S
C1280 C1275 1.490 . S
C1280 C1282 1.395 . S
C1280 C1283 1.403 . S
H1281 C1287 0.930 . S
C1282 H1268 0.930 . S
C1282 C1280 1.395 . S
C1282 C1285 1.403 . S
C1283 C1280 1.403 . S
C1283 C1284 1.524 . S
C1283 C1287 1.400 . S
C1284 H1269 0.960 . S
C1284 H1270 0.960 . S
C1284 H1271 0.960 . S
C1284 C1283 1.524 . S
C1285 C1282 1.403 . S
C1285 C1286 1.392 . S
C1285 C1289 1.495 . S
C1286 C1285 1.392 . S
C1286 C1287 1.385 . S
C1286 C1288 1.478 . S
C1287 H1281 0.930 . S
C1287 C1283 1.400 . S
C1287 C1286 1.385 . S
C1288 C1286 1.478 . S
C1288 C1290 1.381 . S
C1288 C1294 1.383 . S
C1289 C1285 1.495 . S
C1289 H1295 0.959 . S
C1289 H1296 0.961 . S
C1289 H1297 0.960 . S
C1290 C1288 1.381 . S
C1290 C1291 1.394 . S
C1290 H1298 0.930 . S
C1291 C1290 1.394 . S
C1291 C1292 1.383 . S
C1291 H1299 0.929 . S
C1292 C1291 1.383 . S
C1292 C1293 1.377 . S
C1293 H1277 0.930 . S
C1293 C1292 1.377 . S
C1293 C1294 1.379 . S
C1294 H1278 0.931 . S
C1294 C1288 1.383 . S
C1294 C1293 1.379 . S
H1295 C1289 0.959 . S
H1296 C1289 0.961 . S
H1297 C1289 0.960 . S
H1298 C1290 0.930 . S
H1299 C1291 0.929 . S
H1300 C1308 0.929 . S
H1301 C1310 0.930 . S
H1302 C1312 0.930 . S
H1303 C1315 0.929 . S
H1304 C1318 0.930 . S
H1305 C1320 0.960 . S
H1306 C1320 0.960 . S
H1307 C1320 0.960 . S
C1308 H1300 0.929 . S
C1308 C1309 1.377 . S
C1308 C1310 1.384 . S
C1309 C1308 1.377 . S
C1309 C1315 1.390 . S
C1310 H1301 0.930 . S
C1310 C1308 1.384 . S
C1310 C1311 1.372 . S
C1311 C1310 1.372 . S
C1311 C1312 1.400 . S
C1311 C1316 1.490 . S
C1312 H1302 0.930 . S
C1312 C1311 1.400 . S
C1312 C1315 1.386 . S
H1313 C1329 0.930 . S
H1314 C1330 0.931 . S
C1315 H1303 0.929 . S
C1315 C1309 1.390 . S
C1315 C1312 1.386 . S
C1316 C1311 1.490 . S
C1316 C1318 1.395 . S
C1316 C1319 1.403 . S
H1317 C1323 0.930 . S
C1318 H1304 0.930 . S
C1318 C1316 1.395 . S
C1318 C1321 1.403 . S
C1319 C1316 1.403 . S
C1319 C1320 1.524 . S
C1319 C1323 1.400 . S
C1320 H1305 0.960 . S
C1320 H1306 0.960 . S
C1320 H1307 0.960 . S
C1320 C1319 1.524 . S
C1321 C1318 1.403 . S
C1321 C1322 1.392 . S
C1321 C1325 1.495 . S
C1322 C1321 1.392 . S
C1322 C1323 1.385 . S
C1322 C1324 1.478 . S
C1323 H1317 0.930 . S
C1323 C1319 1.400 . S
C1323 C1322 1.385 . S
C1324 C1322 1.478 . S
C1324 C1326 1.381 . S
C1324 C1330 1.383 . S
C1325 C1321 1.495 . S
C1325 H1331 0.959 . S
C1325 H1332 0.961 . S
C1325 H1333 0.960 . S
C1326 C1324 1.381 . S
C1326 C1327 1.394 1_455 S
C1326 H1334 0.930 . S
C1327 C1326 1.394 1_655 S
C1327 C1328 1.383 . S
C1327 H1335 0.929 . S
C1328 C1327 1.383 . S
C1328 C1329 1.377 . S
C1329 H1313 0.930 . S
C1329 C1328 1.377 . S
C1329 C1330 1.379 1_655 S
C1330 H1314 0.931 . S
C1330 C1324 1.383 . S
C1330 C1329 1.379 1_455 S
H1331 C1325 0.959 . S
H1332 C1325 0.961 . S
H1333 C1325 0.960 . S
H1334 C1326 0.930 . S
H1335 C1327 0.929 . S
H1336 C1344 0.929 . S
H1337 C1346 0.930 . S
H1338 C1348 0.930 . S
H1339 C1351 0.929 . S
H1340 C1354 0.930 . S
H1341 C1356 0.960 . S
H1342 C1356 0.960 . S
H1343 C1356 0.960 . S
C1344 H1336 0.929 . S
C1344 C1345 1.377 . S
C1344 C1346 1.384 . S
C1345 C1344 1.377 . S
C1345 C1351 1.390 . S
C1346 H1337 0.930 . S
C1346 C1344 1.384 . S
C1346 C1347 1.372 . S
C1347 C1346 1.372 . S
C1347 C1348 1.400 . S
C1347 C1352 1.490 . S
C1348 H1338 0.930 . S
C1348 C1347 1.400 . S
C1348 C1351 1.386 . S
H1349 C1365 0.930 . S
H1350 C1366 0.929 1_565 S
C1351 H1339 0.929 . S
C1351 C1345 1.390 . S
C1351 C1348 1.386 . S
C1352 C1347 1.490 . S
C1352 C1354 1.395 . S
C1352 C1355 1.403 . S
H1353 C1359 0.930 . S
C1354 H1340 0.930 . S
C1354 C1352 1.395 . S
C1354 C1357 1.403 . S
C1355 C1352 1.403 . S
C1355 C1356 1.524 . S
C1355 C1359 1.400 . S
C1356 H1341 0.960 . S
C1356 H1342 0.960 . S
C1356 H1343 0.960 . S
C1356 C1355 1.524 . S
C1357 C1354 1.403 . S
C1357 C1358 1.392 . S
C1357 C1361 1.495 . S
C1358 C1357 1.392 . S
C1358 C1359 1.385 . S
C1358 C1360 1.478 . S
C1359 H1353 0.930 . S
C1359 C1355 1.400 . S
C1359 C1358 1.385 . S
C1360 C1358 1.478 . S
C1360 C1362 1.381 . S
C1360 C1366 1.383 1_565 S
C1361 C1357 1.495 . S
C1361 H1367 0.959 . S
C1361 H1368 0.961 . S
C1361 H1369 0.960 . S
C1362 C1360 1.381 . S
C1362 C1363 1.394 1_565 S
C1362 H1370 0.930 . S
C1363 C1362 1.394 1_545 S
C1363 C1364 1.383 . S
C1363 H1371 0.929 . S
C1364 C1363 1.383 . S
C1364 C1365 1.377 . S
C1365 H1349 0.930 . S
C1365 C1364 1.377 . S
C1365 C1366 1.379 . S
C1366 H1350 0.929 1_545 S
C1366 C1360 1.383 1_545 S
C1366 C1365 1.379 . S
H1367 C1361 0.959 . S
H1368 C1361 0.961 . S
H1369 C1361 0.960 . S
H1370 C1362 0.930 . S
H1371 C1363 0.929 . S
H1372 C1380 0.929 . S
H1373 C1382 0.930 . S
H1374 C1384 0.926 1_655 S
H1375 C1387 0.929 . S
H1376 C1390 0.930 . S
H1377 C1392 0.960 . S
H1378 C1392 0.960 . S
H1379 C1392 0.960 . S
C1380 H1372 0.929 . S
C1380 C1381 1.377 . S
C1380 C1382 1.384 1_455 S
C1381 C1380 1.377 . S
C1381 C1387 1.390 . S
C1382 H1373 0.930 . S
C1382 C1380 1.384 1_655 S
C1382 C1383 1.372 . S
C1383 C1382 1.372 . S
C1383 C1384 1.384 1_655 S
C1383 C1388 1.490 . S
C1384 H1374 0.926 1_455 S
C1384 C1383 1.384 1_455 S
C1384 C1387 1.406 . S
H1385 C1401 0.930 . S
H1386 C1402 0.931 . S
C1387 H1375 0.929 . S
C1387 C1381 1.390 . S
C1387 C1384 1.406 . S
C1388 C1383 1.490 . S
C1388 C1390 1.395 . S
C1388 C1391 1.403 . S
H1389 C1395 0.930 . S
C1390 H1376 0.930 . S
C1390 C1388 1.395 . S
C1390 C1393 1.403 . S
C1391 C1388 1.403 . S
C1391 C1392 1.524 . S
C1391 C1395 1.400 . S
C1392 H1377 0.960 . S
C1392 H1378 0.960 . S
C1392 H1379 0.960 . S
C1392 C1391 1.524 . S
C1393 C1390 1.403 . S
C1393 C1394 1.392 . S
C1393 C1397 1.495 . S
C1394 C1393 1.392 . S
C1394 C1395 1.385 . S
C1394 C1396 1.478 . S
C1395 H1389 0.930 . S
C1395 C1391 1.400 . S
C1395 C1394 1.385 . S
C1396 C1394 1.478 . S
C1396 C1398 1.381 . S
C1396 C1402 1.383 . S
C1397 C1393 1.495 . S
C1397 H1403 0.959 . S
C1397 H1404 0.961 . S
C1397 H1405 0.960 . S
C1398 C1396 1.381 . S
C1398 C1399 1.394 . S
C1398 H1406 0.930 . S
C1399 C1398 1.394 . S
C1399 C1400 1.383 . S
C1399 H1407 0.929 . S
C1400 C1399 1.383 . S
C1400 C1401 1.377 . S
C1401 H1385 0.930 . S
C1401 C1400 1.377 . S
C1401 C1402 1.379 . S
C1402 H1386 0.931 . S
C1402 C1396 1.383 . S
C1402 C1401 1.379 . S
H1403 C1397 0.959 . S
H1404 C1397 0.961 . S
H1405 C1397 0.960 . S
H1406 C1398 0.930 . S
H1407 C1399 0.929 . S
H1408 C1416 0.929 . S
H1409 C1418 0.930 . S
H1410 C1420 0.934 1_565 S
H1411 C1423 0.929 . S
H1412 C1426 0.930 . S
H1413 C1428 0.960 . S
H1414 C1428 0.960 1_545 S
H1415 C1428 0.960 . S
C1416 H1408 0.929 . S
C1416 C1417 1.377 . S
C1416 C1418 1.384 . S
C1417 C1416 1.377 . S
C1417 C1423 1.390 . S
C1418 H1409 0.930 . S
C1418 C1416 1.384 . S
C1418 C1419 1.372 . S
C1419 C1418 1.372 . S
C1419 C1420 1.400 . S
C1419 C1424 1.490 . S
C1420 H1410 0.934 1_545 S
C1420 C1419 1.400 . S
C1420 C1423 1.386 . S
H1421 C1437 0.930 . S
H1422 C1438 0.931 . S
C1423 H1411 0.929 . S
C1423 C1417 1.390 . S
C1423 C1420 1.386 . S
C1424 C1419 1.490 . S
C1424 C1426 1.395 . S
C1424 C1427 1.401 1_544 S
H1425 C1431 0.926 . S
C1426 H1412 0.930 . S
C1426 C1424 1.395 . S
C1426 C1429 1.403 . S
C1427 C1424 1.401 1_566 S
C1427 C1428 1.524 . S
C1427 C1431 1.400 . S
C1428 H1413 0.960 . S
C1428 H1414 0.960 1_565 S
C1428 H1415 0.960 . S
C1428 C1427 1.524 . S
C1429 C1426 1.403 . S
C1429 C1430 1.392 1_545 S
C1429 C1433 1.495 . S
C1430 C1429 1.392 1_565 S
C1430 C1431 1.390 1_554 S
C1430 C1432 1.478 . S
C1431 H1425 0.926 . S
C1431 C1427 1.400 . S
C1431 C1430 1.390 1_556 S
C1432 C1430 1.478 . S
C1432 C1434 1.381 . S
C1432 C1438 1.383 . S
C1433 C1429 1.495 . S
C1433 H1439 0.959 . S
C1433 H1440 0.961 1_545 S
C1433 H1441 0.960 . S
C1434 C1432 1.381 . S
C1434 C1435 1.394 . S
C1434 H1442 0.930 1_565 S
C1435 C1434 1.394 . S
C1435 C1436 1.383 . S
C1435 H1443 0.929 . S
C1436 C1435 1.383 . S
C1436 C1437 1.377 . S
C1437 H1421 0.930 . S
C1437 C1436 1.377 . S
C1437 C1438 1.379 . S
C1438 H1422 0.931 . S
C1438 C1432 1.383 . S
C1438 C1437 1.379 . S
H1439 C1433 0.959 . S
H1440 C1433 0.961 1_565 S
H1441 C1433 0.960 . S
H1442 C1434 0.930 1_545 S
H1443 C1435 0.929 . S
H1444 C1452 0.929 . S
H1445 C1454 0.930 . S
H1446 C1456 0.930 . S
H1447 C1459 0.929 . S
H1448 C1462 0.930 . S
H1449 C1464 0.956 1_554 S
H1450 C1464 0.970 . S
H1451 C1464 0.950 1_554 S
C1452 H1444 0.929 . S
C1452 C1453 1.377 . S
C1452 C1454 1.384 . S
C1453 C1452 1.377 . S
C1453 C1459 1.390 1_556 S
C1454 H1445 0.930 . S
C1454 C1452 1.384 . S
C1454 C1455 1.372 . S
C1455 C1454 1.372 . S
C1455 C1456 1.400 1_556 S
C1455 C1460 1.490 . S
C1456 H1446 0.930 . S
C1456 C1455 1.400 1_554 S
C1456 C1459 1.386 . S
H1457 C1473 0.930 . S
H1458 C1474 0.931 . S
C1459 H1447 0.929 . S
C1459 C1453 1.390 1_554 S
C1459 C1456 1.386 . S
C1460 C1455 1.490 . S
C1460 C1462 1.395 . S
C1460 C1463 1.403 1_455 S
H1461 C1467 0.930 . S
C1462 H1448 0.930 . S
C1462 C1460 1.395 . S
C1462 C1465 1.403 . S
C1463 C1460 1.403 1_655 S
C1463 C1464 1.528 . S
C1463 C1467 1.400 . S
C1464 H1449 0.956 1_556 S
C1464 H1450 0.970 . S
C1464 H1451 0.950 1_556 S
C1464 C1463 1.528 . S
C1465 C1462 1.403 . S
C1465 C1466 1.392 1_455 S
C1465 C1469 1.495 . S
C1466 C1465 1.392 1_655 S
C1466 C1467 1.385 . S
C1466 C1468 1.478 . S
C1467 H1461 0.930 . S
C1467 C1463 1.400 . S
C1467 C1466 1.385 . S
C1468 C1466 1.478 . S
C1468 C1470 1.381 . S
C1468 C1474 1.383 1_556 S
C1469 C1465 1.495 . S
C1469 H1475 0.959 . S
C1469 H1476 0.961 . S
C1469 H1477 0.960 . S
C1470 C1468 1.381 . S
C1470 C1471 1.394 . S
C1470 H1478 0.930 . S
C1471 C1470 1.394 . S
C1471 C1472 1.383 . S
C1471 H1479 0.929 . S
C1472 C1471 1.383 . S
C1472 C1473 1.377 1_556 S
C1473 H1457 0.930 . S
C1473 C1472 1.377 1_554 S
C1473 C1474 1.379 . S
C1474 H1458 0.931 . S
C1474 C1468 1.383 1_554 S
C1474 C1473 1.379 . S
H1475 C1469 0.959 . S
H1476 C1469 0.961 . S
H1477 C1469 0.960 . S
H1478 C1470 0.930 . S
H1479 C1471 0.929 . S
H1480 C1488 0.929 . S
H1481 C1490 0.930 . S
H1482 C1492 0.930 . S
H1483 C1495 0.929 . S
H1484 C1498 0.930 . S
H1485 C1500 0.960 . S
H1486 C1500 0.960 . S
H1487 C1500 0.960 . S
C1488 H1480 0.929 . S
C1488 C1489 1.377 . S
C1488 C1490 1.384 . S
C1489 C1488 1.377 . S
C1489 C1495 1.390 . S
C1490 H1481 0.930 . S
C1490 C1488 1.384 . S
C1490 C1491 1.372 . S
C1491 C1490 1.372 . S
C1491 C1492 1.400 . S
C1491 C1496 1.490 . S
C1492 H1482 0.930 . S
C1492 C1491 1.400 . S
C1492 C1495 1.386 . S
H1493 C1509 0.930 . S
H1494 C1510 0.931 . S
C1495 H1483 0.929 . S
C1495 C1489 1.390 . S
C1495 C1492 1.386 . S
C1496 C1491 1.490 . S
C1496 C1498 1.395 . S
C1496 C1499 1.403 . S
H1497 C1503 0.930 . S
C1498 H1484 0.930 . S
C1498 C1496 1.395 . S
C1498 C1501 1.403 . S
C1499 C1496 1.403 . S
C1499 C1500 1.524 . S
C1499 C1503 1.400 . S
C1500 H1485 0.960 . S
C1500 H1486 0.960 . S
C1500 H1487 0.960 . S
C1500 C1499 1.524 . S
C1501 C1498 1.403 . S
C1501 C1502 1.392 . S
C1501 C1505 1.495 . S
C1502 C1501 1.392 . S
C1502 C1503 1.385 . S
C1502 C1504 1.478 . S
C1503 H1497 0.930 . S
C1503 C1499 1.400 . S
C1503 C1502 1.385 . S
C1504 C1502 1.478 . S
C1504 C1506 1.381 . S
C1504 C1510 1.383 . S
C1505 C1501 1.495 . S
C1505 H1511 0.959 . S
C1505 H1512 0.961 . S
C1505 H1513 0.960 . S
C1506 C1504 1.381 . S
C1506 C1507 1.394 . S
C1506 H1514 0.930 . S
C1507 C1506 1.394 . S
C1507 C1508 1.383 . S
C1507 H1515 0.929 . S
C1508 C1507 1.383 . S
C1508 C1509 1.377 . S
C1509 H1493 0.930 . S
C1509 C1508 1.377 . S
C1509 C1510 1.379 . S
C1510 H1494 0.931 . S
C1510 C1504 1.383 . S
C1510 C1509 1.379 . S
H1511 C1505 0.959 . S
H1512 C1505 0.961 . S
H1513 C1505 0.960 . S
H1514 C1506 0.930 . S
H1515 C1507 0.929 . S
H1516 C1524 0.929 . S
H1517 C1526 0.930 . S
H1518 C1528 0.930 . S
H1519 C1531 0.929 . S
H1520 C1534 0.930 . S
H1521 C1536 0.960 . S
H1522 C1536 0.960 . S
H1523 C1536 0.960 . S
C1524 H1516 0.929 . S
C1524 C1525 1.377 . S
C1524 C1526 1.384 . S
C1525 C1524 1.377 . S
C1525 C1531 1.390 . S
C1526 H1517 0.930 . S
C1526 C1524 1.384 . S
C1526 C1527 1.372 . S
C1527 C1526 1.372 . S
C1527 C1528 1.400 . S
C1527 C1532 1.490 . S
C1528 H1518 0.930 . S
C1528 C1527 1.400 . S
C1528 C1531 1.386 . S
H1529 C1545 0.930 . S
H1530 C1546 0.931 . S
C1531 H1519 0.929 . S
C1531 C1525 1.390 . S
C1531 C1528 1.386 . S
C1532 C1527 1.490 . S
C1532 C1534 1.395 . S
C1532 C1535 1.403 . S
H1533 C1539 0.930 . S
C1534 H1520 0.930 . S
C1534 C1532 1.395 . S
C1534 C1537 1.403 . S
C1535 C1532 1.403 . S
C1535 C1536 1.524 . S
C1535 C1539 1.400 . S
C1536 H1521 0.960 . S
C1536 H1522 0.960 . S
C1536 H1523 0.960 . S
C1536 C1535 1.524 . S
C1537 C1534 1.403 . S
C1537 C1538 1.392 . S
C1537 C1541 1.495 . S
C1538 C1537 1.392 . S
C1538 C1539 1.385 . S
C1538 C1540 1.478 . S
C1539 H1533 0.930 . S
C1539 C1535 1.400 . S
C1539 C1538 1.385 . S
C1540 C1538 1.478 . S
C1540 C1542 1.381 . S
C1540 C1546 1.383 . S
C1541 C1537 1.495 . S
C1541 H1547 0.959 . S
C1541 H1548 0.961 . S
C1541 H1549 0.960 . S
C1542 C1540 1.381 . S
C1542 C1543 1.394 . S
C1542 H1550 0.930 . S
C1543 C1542 1.394 . S
C1543 C1544 1.383 . S
C1543 H1551 0.929 . S
C1544 C1543 1.383 . S
C1544 C1545 1.377 . S
C1545 H1529 0.930 . S
C1545 C1544 1.377 . S
C1545 C1546 1.379 . S
C1546 H1530 0.931 . S
C1546 C1540 1.383 . S
C1546 C1545 1.379 . S
H1547 C1541 0.959 . S
H1548 C1541 0.961 . S
H1549 C1541 0.960 . S
H1550 C1542 0.930 . S
H1551 C1543 0.929 . S
H1552 C1560 0.929 . S
H1553 C1562 0.930 . S
H1554 C1564 0.930 . S
H1555 C1567 0.929 . S
H1556 C1570 0.931 . S
H1557 C1572 0.960 . S
H1558 C1572 0.960 . S
H1559 C1572 0.960 . S
C1560 H1552 0.929 . S
C1560 C1561 1.377 . S
C1560 C1562 1.384 . S
C1561 C1560 1.377 . S
C1561 C1567 1.390 . S
C1562 H1553 0.930 . S
C1562 C1560 1.384 . S
C1562 C1563 1.372 . S
C1563 C1562 1.372 . S
C1563 C1564 1.400 . S
C1563 C1568 1.490 . S
C1564 H1554 0.930 . S
C1564 C1563 1.400 . S
C1564 C1567 1.386 . S
H1565 C1581 0.930 . S
H1566 C1582 0.931 . S
C1567 H1555 0.929 . S
C1567 C1561 1.390 . S
C1567 C1564 1.386 . S
C1568 C1563 1.490 . S
C1568 C1570 1.395 1_655 S
C1568 C1571 1.403 . S
H1569 C1575 0.930 . S
C1570 H1556 0.931 . S
C1570 C1568 1.395 1_455 S
C1570 C1573 1.403 . S
C1571 C1568 1.403 . S
C1571 C1572 1.524 . S
C1571 C1575 1.400 1_655 S
C1572 H1557 0.960 . S
C1572 H1558 0.960 . S
C1572 H1559 0.960 . S
C1572 C1571 1.524 . S
C1573 C1570 1.403 . S
C1573 C1574 1.392 . S
C1573 C1577 1.495 . S
C1574 C1573 1.392 . S
C1574 C1575 1.385 . S
C1574 C1576 1.478 . S
C1575 H1569 0.930 . S
C1575 C1571 1.400 1_455 S
C1575 C1574 1.385 . S
C1576 C1574 1.478 . S
C1576 C1578 1.381 . S
C1576 C1582 1.383 . S
C1577 C1573 1.495 . S
C1577 H1583 0.959 . S
C1577 H1584 0.961 . S
C1577 H1585 0.960 . S
C1578 C1576 1.381 . S
C1578 C1579 1.394 . S
C1578 H1586 0.930 . S
C1579 C1578 1.394 . S
C1579 C1580 1.383 . S
C1579 H1587 0.929 . S
C1580 C1579 1.383 . S
C1580 C1581 1.377 . S
C1581 H1565 0.930 . S
C1581 C1580 1.377 . S
C1581 C1582 1.379 . S
C1582 H1566 0.931 . S
C1582 C1576 1.383 . S
C1582 C1581 1.379 . S
H1583 C1577 0.959 . S
H1584 C1577 0.961 . S
H1585 C1577 0.960 . S
H1586 C1578 0.930 . S
H1587 C1579 0.929 . S
H1588 C1596 0.929 . S
H1589 C1598 0.930 . S
H1590 C1600 0.930 . S
H1591 C1603 0.929 . S
H1592 C1606 0.930 . S
H1593 C1608 0.960 . S
H1594 C1608 0.960 . S
H1595 C1608 0.960 . S
C1596 H1588 0.929 . S
C1596 C1597 1.377 . S
C1596 C1598 1.384 . S
C1597 C1596 1.377 . S
C1597 C1603 1.390 . S
C1598 H1589 0.930 . S
C1598 C1596 1.384 . S
C1598 C1599 1.372 . S
C1599 C1598 1.372 . S
C1599 C1600 1.400 . S
C1599 C1604 1.490 . S
C1600 H1590 0.930 . S
C1600 C1599 1.400 . S
C1600 C1603 1.386 . S
H1601 C1617 0.930 . S
H1602 C1618 0.931 . S
C1603 H1591 0.929 . S
C1603 C1597 1.390 . S
C1603 C1600 1.386 . S
C1604 C1599 1.490 . S
C1604 C1606 1.395 . S
C1604 C1607 1.403 . S
H1605 C1611 0.930 . S
C1606 H1592 0.930 . S
C1606 C1604 1.395 . S
C1606 C1609 1.403 1_545 S
C1607 C1604 1.403 . S
C1607 C1608 1.524 . S
C1607 C1611 1.400 1_545 S
C1608 H1593 0.960 . S
C1608 H1594 0.960 . S
C1608 H1595 0.960 . S
C1608 C1607 1.524 . S
C1609 C1606 1.403 1_565 S
C1609 C1610 1.392 . S
C1609 C1613 1.495 . S
C1610 C1609 1.392 . S
C1610 C1611 1.385 . S
C1610 C1612 1.478 . S
C1611 H1605 0.930 . S
C1611 C1607 1.400 1_565 S
C1611 C1610 1.385 . S
C1612 C1610 1.478 . S
C1612 C1614 1.381 . S
C1612 C1618 1.383 . S
C1613 C1609 1.495 . S
C1613 H1619 0.959 . S
C1613 H1620 0.961 . S
C1613 H1621 0.960 . S
C1614 C1612 1.381 . S
C1614 C1615 1.394 . S
C1614 H1622 0.930 . S
C1615 C1614 1.394 . S
C1615 C1616 1.383 . S
C1615 H1623 0.929 . S
C1616 C1615 1.383 . S
C1616 C1617 1.377 . S
C1617 H1601 0.930 . S
C1617 C1616 1.377 . S
C1617 C1618 1.379 . S
C1618 H1602 0.931 . S
C1618 C1612 1.383 . S
C1618 C1617 1.379 . S
H1619 C1613 0.959 . S
H1620 C1613 0.961 . S
H1621 C1613 0.960 . S
H1622 C1614 0.930 . S
H1623 C1615 0.929 . S
H1624 C1632 0.929 . S
H1625 C1634 0.930 . S
H1626 C1636 0.930 . S
H1627 C1639 0.929 . S
H1628 C1642 0.930 . S
H1629 C1644 0.960 1_545 S
H1630 C1644 0.960 . S
H1631 C1644 0.946 1_545 S
C1632 H1624 0.929 . S
C1632 C1633 1.377 . S
C1632 C1634 1.384 . S
C1633 C1632 1.377 . S
C1633 C1639 1.390 . S
C1634 H1625 0.930 . S
C1634 C1632 1.384 . S
C1634 C1635 1.372 . S
C1635 C1634 1.372 . S
C1635 C1636 1.400 . S
C1635 C1640 1.490 . S
C1636 H1626 0.930 . S
C1636 C1635 1.400 . S
C1636 C1639 1.386 . S
H1637 C1653 0.930 . S
H1638 C1654 0.931 . S
C1639 H1627 0.929 . S
C1639 C1633 1.390 . S
C1639 C1636 1.386 . S
C1640 C1635 1.490 . S
C1640 C1642 1.395 . S
C1640 C1643 1.403 . S
H1641 C1647 0.930 . S
C1642 H1628 0.930 . S
C1642 C1640 1.395 . S
C1642 C1645 1.394 1_665 S
C1643 C1640 1.403 . S
C1643 C1644 1.524 . S
C1643 C1647 1.400 1_665 S
C1644 H1629 0.960 1_565 S
C1644 H1630 0.960 . S
C1644 H1631 0.946 1_565 S
C1644 C1643 1.524 . S
C1645 C1642 1.394 1_445 S
C1645 C1646 1.400 . S
C1645 C1649 1.496 . S
C1646 C1645 1.400 . S
C1646 C1647 1.385 . S
C1646 C1648 1.478 . S
C1647 H1641 0.930 . S
C1647 C1643 1.400 1_445 S
C1647 C1646 1.385 . S
C1648 C1646 1.478 . S
C1648 C1650 1.381 . S
C1648 C1654 1.383 . S
C1649 C1645 1.496 . S
C1649 H1655 0.959 1_545 S
C1649 H1656 0.961 . S
C1649 H1657 0.960 1_545 S
C1650 C1648 1.381 . S
C1650 C1651 1.394 . S
C1650 H1658 0.910 1_545 S
C1651 C1650 1.394 . S
C1651 C1652 1.383 . S
C1651 H1659 0.929 . S
C1652 C1651 1.383 . S
C1652 C1653 1.377 . S
C1653 H1637 0.930 . S
C1653 C1652 1.377 . S
C1653 C1654 1.379 . S
C1654 H1638 0.931 . S
C1654 C1648 1.383 . S
C1654 C1653 1.379 . S
H1655 C1649 0.959 1_565 S
H1656 C1649 0.961 . S
H1657 C1649 0.960 1_565 S
H1658 C1650 0.910 1_565 S
H1659 C1651 0.929 . S
H1660 C1668 0.929 . S
H1661 C1670 0.930 . S
H1662 C1672 0.930 . S
H1663 C1675 0.929 . S
H1664 C1678 0.930 . S
H1665 C1680 0.960 1_565 S
H1666 C1680 0.960 . S
H1667 C1680 0.960 . S
C1668 H1660 0.929 . S
C1668 C1669 1.377 . S
C1668 C1670 1.384 . S
C1669 C1668 1.377 . S
C1669 C1675 1.390 . S
C1670 H1661 0.930 . S
C1670 C1668 1.384 . S
C1670 C1671 1.372 . S
C1671 C1670 1.372 . S
C1671 C1672 1.400 . S
C1671 C1676 1.490 . S
C1672 H1662 0.930 . S
C1672 C1671 1.400 . S
C1672 C1675 1.386 . S
H1673 C1689 0.930 . S
H1674 C1690 0.931 . S
C1675 H1663 0.929 . S
C1675 C1669 1.390 . S
C1675 C1672 1.386 . S
C1676 C1671 1.490 . S
C1676 C1678 1.395 . S
C1676 C1679 1.403 . S
H1677 C1683 0.930 . S
C1678 H1664 0.930 . S
C1678 C1676 1.395 . S
C1678 C1681 1.403 1_645 S
C1679 C1676 1.403 . S
C1679 C1680 1.524 . S
C1679 C1683 1.400 1_645 S
C1680 H1665 0.960 1_545 S
C1680 H1666 0.960 . S
C1680 H1667 0.960 . S
C1680 C1679 1.524 . S
C1681 C1678 1.403 1_465 S
C1681 C1682 1.392 . S
C1681 C1685 1.495 . S
C1682 C1681 1.392 . S
C1682 C1683 1.385 . S
C1682 C1684 1.478 . S
C1683 H1677 0.930 . S
C1683 C1679 1.400 1_465 S
C1683 C1682 1.385 . S
C1684 C1682 1.478 . S
C1684 C1686 1.381 . S
C1684 C1690 1.383 . S
C1685 C1681 1.495 . S
C1685 H1691 0.986 . S
C1685 H1692 0.961 . S
C1685 H1693 0.960 . S
C1686 C1684 1.381 . S
C1686 C1687 1.394 . S
C1686 H1694 0.930 . S
C1687 C1686 1.394 . S
C1687 C1688 1.383 . S
C1687 H1695 0.929 . S
C1688 C1687 1.383 . S
C1688 C1689 1.377 . S
C1689 H1673 0.930 . S
C1689 C1688 1.377 . S
C1689 C1690 1.379 . S
C1690 H1674 0.931 . S
C1690 C1684 1.383 . S
C1690 C1689 1.379 . S
H1691 C1685 0.986 . S
H1692 C1685 0.961 . S
H1693 C1685 0.960 . S
H1694 C1686 0.930 . S
H1695 C1687 0.929 . S
H1696 C1704 0.929 . S
H1697 C1706 0.930 . S
H1698 C1708 0.930 . S
H1699 C1711 0.929 . S
H1700 C1714 0.930 . S
H1701 C1716 0.960 . S
H1702 C1716 0.960 . S
H1703 C1716 0.960 . S
C1704 H1696 0.929 . S
C1704 C1705 1.377 . S
C1704 C1706 1.384 . S
C1705 C1704 1.377 . S
C1705 C1711 1.390 . S
C1706 H1697 0.930 . S
C1706 C1704 1.384 . S
C1706 C1707 1.372 . S
C1707 C1706 1.372 . S
C1707 C1708 1.400 . S
C1707 C1712 1.490 . S
C1708 H1698 0.930 . S
C1708 C1707 1.400 . S
C1708 C1711 1.386 . S
H1709 C1725 0.930 . S
H1710 C1726 0.931 . S
C1711 H1699 0.929 . S
C1711 C1705 1.390 . S
C1711 C1708 1.386 . S
C1712 C1707 1.490 . S
C1712 C1714 1.395 . S
C1712 C1715 1.403 . S
H1713 C1719 0.930 . S
C1714 H1700 0.930 . S
C1714 C1712 1.395 . S
C1714 C1717 1.403 . S
C1715 C1712 1.403 . S
C1715 C1716 1.524 . S
C1715 C1719 1.400 . S
C1716 H1701 0.960 . S
C1716 H1702 0.960 . S
C1716 H1703 0.960 . S
C1716 C1715 1.524 . S
C1717 C1714 1.403 . S
C1717 C1718 1.392 . S
C1717 C1721 1.495 . S
C1718 C1717 1.392 . S
C1718 C1719 1.385 . S
C1718 C1720 1.478 . S
C1719 H1713 0.930 . S
C1719 C1715 1.400 . S
C1719 C1718 1.385 . S
C1720 C1718 1.478 . S
C1720 C1722 1.381 . S
C1720 C1726 1.383 . S
C1721 C1717 1.495 . S
C1721 H1727 0.959 . S
C1721 H1728 0.961 . S
C1721 H1729 0.960 . S
C1722 C1720 1.381 . S
C1722 C1723 1.394 . S
C1722 H1730 0.930 . S
C1723 C1722 1.394 . S
C1723 C1724 1.383 . S
C1723 H1731 0.929 . S
C1724 C1723 1.383 . S
C1724 C1725 1.377 . S
C1725 H1709 0.930 . S
C1725 C1724 1.377 . S
C1725 C1726 1.379 . S
C1726 H1710 0.931 . S
C1726 C1720 1.383 . S
C1726 C1725 1.379 . S
H1727 C1721 0.959 . S
H1728 C1721 0.961 . S
H1729 C1721 0.960 . S
H1730 C1722 0.930 . S
H1731 C1723 0.929 . S
H1732 C1740 0.929 . S
H1733 C1742 0.930 . S
H1734 C1744 0.930 . S
H1735 C1747 0.929 . S
H1736 C1750 0.930 . S
H1737 C1752 0.960 . S
H1738 C1752 0.960 . S
H1739 C1752 0.960 . S
C1740 H1732 0.929 . S
C1740 C1741 1.377 . S
C1740 C1742 1.384 . S
C1741 C1740 1.377 . S
C1741 C1747 1.390 . S
C1742 H1733 0.930 . S
C1742 C1740 1.384 . S
C1742 C1743 1.372 . S
C1743 C1742 1.372 . S
C1743 C1744 1.400 . S
C1743 C1748 1.490 . S
C1744 H1734 0.930 . S
C1744 C1743 1.400 . S
C1744 C1747 1.386 . S
H1745 C1761 0.930 . S
H1746 C1762 0.931 . S
C1747 H1735 0.929 . S
C1747 C1741 1.390 . S
C1747 C1744 1.386 . S
C1748 C1743 1.490 . S
C1748 C1750 1.395 . S
C1748 C1751 1.403 . S
H1749 C1755 0.930 . S
C1750 H1736 0.930 . S
C1750 C1748 1.395 . S
C1750 C1753 1.403 . S
C1751 C1748 1.403 . S
C1751 C1752 1.524 . S
C1751 C1755 1.400 . S
C1752 H1737 0.960 . S
C1752 H1738 0.960 . S
C1752 H1739 0.960 . S
C1752 C1751 1.524 . S
C1753 C1750 1.403 . S
C1753 C1754 1.392 . S
C1753 C1757 1.495 . S
C1754 C1753 1.392 . S
C1754 C1755 1.385 . S
C1754 C1756 1.478 . S
C1755 H1749 0.930 . S
C1755 C1751 1.400 . S
C1755 C1754 1.385 . S
C1756 C1754 1.478 . S
C1756 C1758 1.381 . S
C1756 C1762 1.383 . S
C1757 C1753 1.495 . S
C1757 H1763 0.959 . S
C1757 H1764 0.961 . S
C1757 H1765 0.960 . S
C1758 C1756 1.381 . S
C1758 C1759 1.394 . S
C1758 H1766 0.930 . S
C1759 C1758 1.394 . S
C1759 C1760 1.383 . S
C1759 H1767 0.929 . S
C1760 C1759 1.383 . S
C1760 C1761 1.377 . S
C1761 H1745 0.930 . S
C1761 C1760 1.377 . S
C1761 C1762 1.379 . S
C1762 H1746 0.931 . S
C1762 C1756 1.383 . S
C1762 C1761 1.379 . S
H1763 C1757 0.959 . S
H1764 C1757 0.961 . S
H1765 C1757 0.960 . S
H1766 C1758 0.930 . S
H1767 C1759 0.929 . S
H1768 C1776 0.929 . S
H1769 C1778 0.930 . S
H1770 C1780 0.930 . S
H1771 C1783 0.929 . S
H1772 C1786 0.930 . S
H1773 C1788 0.960 . S
H1774 C1788 0.960 . S
H1775 C1788 0.960 . S
C1776 H1768 0.929 . S
C1776 C1777 1.377 . S
C1776 C1778 1.384 . S
C1777 C1776 1.377 . S
C1777 C1783 1.390 . S
C1778 H1769 0.930 . S
C1778 C1776 1.384 . S
C1778 C1779 1.372 . S
C1779 C1778 1.372 . S
C1779 C1780 1.400 . S
C1779 C1784 1.490 . S
C1780 H1770 0.930 . S
C1780 C1779 1.400 . S
C1780 C1783 1.386 . S
H1781 C1797 0.930 . S
H1782 C1798 0.931 . S
C1783 H1771 0.929 . S
C1783 C1777 1.390 . S
C1783 C1780 1.386 . S
C1784 C1779 1.490 . S
C1784 C1786 1.395 . S
C1784 C1787 1.403 . S
H1785 C1791 0.930 . S
C1786 H1772 0.930 . S
C1786 C1784 1.395 . S
C1786 C1789 1.403 . S
C1787 C1784 1.403 . S
C1787 C1788 1.524 . S
C1787 C1791 1.400 . S
C1788 H1773 0.960 . S
C1788 H1774 0.960 . S
C1788 H1775 0.960 . S
C1788 C1787 1.524 . S
C1789 C1786 1.403 . S
C1789 C1790 1.392 . S
C1789 C1793 1.495 . S
C1790 C1789 1.392 . S
C1790 C1791 1.385 . S
C1790 C1792 1.478 . S
C1791 H1785 0.930 . S
C1791 C1787 1.400 . S
C1791 C1790 1.385 . S
C1792 C1790 1.478 . S
C1792 C1794 1.381 . S
C1792 C1798 1.383 . S
C1793 C1789 1.495 . S
C1793 H1799 0.959 . S
C1793 H1800 0.961 . S
C1793 H1801 0.960 . S
C1794 C1792 1.381 . S
C1794 C1795 1.394 . S
C1794 H1802 0.930 . S
C1795 C1794 1.394 . S
C1795 C1796 1.383 . S
C1795 H1803 0.929 . S
C1796 C1795 1.383 . S
C1796 C1797 1.377 . S
C1797 H1781 0.930 . S
C1797 C1796 1.377 . S
C1797 C1798 1.379 . S
C1798 H1782 0.931 . S
C1798 C1792 1.383 . S
C1798 C1797 1.379 . S
H1799 C1793 0.959 . S
H1800 C1793 0.961 . S
H1801 C1793 0.960 . S
H1802 C1794 0.930 . S
H1803 C1795 0.929 . S
H1804 C1812 0.929 . S
H1805 C1814 0.930 . S
H1806 C1816 0.930 . S
H1807 C1819 0.929 . S
H1808 C1822 0.930 . S
H1809 C1824 0.960 . S
H1810 C1824 0.960 . S
H1811 C1824 0.960 . S
C1812 H1804 0.929 . S
C1812 C1813 1.377 . S
C1812 C1814 1.384 . S
C1813 C1812 1.377 . S
C1813 C1819 1.390 . S
C1814 H1805 0.930 . S
C1814 C1812 1.384 . S
C1814 C1815 1.372 . S
C1815 C1814 1.372 . S
C1815 C1816 1.400 . S
C1815 C1820 1.490 . S
C1816 H1806 0.930 . S
C1816 C1815 1.400 . S
C1816 C1819 1.386 . S
H1817 C1833 0.930 . S
H1818 C1834 0.931 . S
C1819 H1807 0.929 . S
C1819 C1813 1.390 . S
C1819 C1816 1.386 . S
C1820 C1815 1.490 . S
C1820 C1822 1.395 . S
C1820 C1823 1.403 . S
H1821 C1827 0.930 . S
C1822 H1808 0.930 . S
C1822 C1820 1.395 . S
C1822 C1825 1.403 . S
C1823 C1820 1.403 . S
C1823 C1824 1.524 . S
C1823 C1827 1.400 . S
C1824 H1809 0.960 . S
C1824 H1810 0.960 . S
C1824 H1811 0.960 . S
C1824 C1823 1.524 . S
C1825 C1822 1.403 . S
C1825 C1826 1.392 . S
C1825 C1829 1.495 . S
C1826 C1825 1.392 . S
C1826 C1827 1.385 . S
C1826 C1828 1.478 . S
C1827 H1821 0.930 . S
C1827 C1823 1.400 . S
C1827 C1826 1.385 . S
C1828 C1826 1.478 . S
C1828 C1830 1.381 . S
C1828 C1834 1.383 . S
C1829 C1825 1.495 . S
C1829 H1835 0.959 . S
C1829 H1836 0.961 . S
C1829 H1837 0.960 . S
C1830 C1828 1.381 . S
C1830 C1831 1.394 . S
C1830 H1838 0.930 . S
C1831 C1830 1.394 . S
C1831 C1832 1.383 . S
C1831 H1839 0.929 . S
C1832 C1831 1.383 . S
C1832 C1833 1.377 . S
C1833 H1817 0.930 . S
C1833 C1832 1.377 . S
C1833 C1834 1.379 . S
C1834 H1818 0.931 . S
C1834 C1828 1.383 . S
C1834 C1833 1.379 . S
H1835 C1829 0.959 . S
H1836 C1829 0.961 . S
H1837 C1829 0.960 . S
H1838 C1830 0.930 . S
H1839 C1831 0.929 . S
H1840 C1848 0.929 . S
H1841 C1850 0.930 . S
H1842 C1852 0.930 . S
H1843 C1855 0.929 . S
H1844 C1858 0.930 . S
H1845 C1860 0.960 . S
H1846 C1860 0.960 . S
H1847 C1860 0.960 . S
C1848 H1840 0.929 . S
C1848 C1849 1.377 . S
C1848 C1850 1.384 . S
C1849 C1848 1.377 . S
C1849 C1855 1.390 . S
C1850 H1841 0.930 . S
C1850 C1848 1.384 . S
C1850 C1851 1.372 . S
C1851 C1850 1.372 . S
C1851 C1852 1.400 . S
C1851 C1856 1.490 . S
C1852 H1842 0.930 . S
C1852 C1851 1.400 . S
C1852 C1855 1.386 . S
H1853 C1869 0.930 . S
H1854 C1870 0.931 . S
C1855 H1843 0.929 . S
C1855 C1849 1.390 . S
C1855 C1852 1.386 . S
C1856 C1851 1.490 . S
C1856 C1858 1.395 . S
C1856 C1859 1.403 . S
H1857 C1863 0.930 . S
C1858 H1844 0.930 . S
C1858 C1856 1.395 . S
C1858 C1861 1.403 . S
C1859 C1856 1.403 . S
C1859 C1860 1.524 . S
C1859 C1863 1.400 . S
C1860 H1845 0.960 . S
C1860 H1846 0.960 . S
C1860 H1847 0.960 . S
C1860 C1859 1.524 . S
C1861 C1858 1.403 . S
C1861 C1862 1.392 . S
C1861 C1865 1.495 . S
C1862 C1861 1.392 . S
C1862 C1863 1.385 . S
C1862 C1864 1.478 . S
C1863 H1857 0.930 . S
C1863 C1859 1.400 . S
C1863 C1862 1.385 . S
C1864 C1862 1.478 . S
C1864 C1866 1.381 . S
C1864 C1870 1.383 . S
C1865 C1861 1.495 . S
C1865 H1871 0.959 . S
C1865 H1872 0.961 . S
C1865 H1873 0.960 . S
C1866 C1864 1.381 . S
C1866 C1867 1.394 . S
C1866 H1874 0.930 . S
C1867 C1866 1.394 . S
C1867 C1868 1.383 . S
C1867 H1875 0.929 . S
C1868 C1867 1.383 . S
C1868 C1869 1.377 . S
C1869 H1853 0.930 . S
C1869 C1868 1.377 . S
C1869 C1870 1.379 . S
C1870 H1854 0.931 . S
C1870 C1864 1.383 . S
C1870 C1869 1.379 . S
H1871 C1865 0.959 . S
H1872 C1865 0.961 . S
H1873 C1865 0.960 . S
H1874 C1866 0.930 . S
H1875 C1867 0.929 . S
H1876 C1884 0.929 . S
H1877 C1886 0.930 . S
H1878 C1888 0.930 . S
H1879 C1891 0.929 . S
H1880 C1894 0.930 . S
H1881 C1896 0.960 . S
H1882 C1896 0.960 . S
H1883 C1896 0.960 . S
C1884 H1876 0.929 . S
C1884 C1885 1.377 . S
C1884 C1886 1.384 . S
C1885 C1884 1.377 . S
C1885 C1891 1.390 . S
C1886 H1877 0.930 . S
C1886 C1884 1.384 . S
C1886 C1887 1.372 . S
C1887 C1886 1.372 . S
C1887 C1888 1.400 . S
C1887 C1892 1.490 . S
C1888 H1878 0.930 . S
C1888 C1887 1.400 . S
C1888 C1891 1.386 . S
H1889 C1905 0.930 . S
H1890 C1906 0.931 . S
C1891 H1879 0.929 . S
C1891 C1885 1.390 . S
C1891 C1888 1.386 . S
C1892 C1887 1.490 . S
C1892 C1894 1.395 . S
C1892 C1895 1.403 . S
H1893 C1899 0.930 . S
C1894 H1880 0.930 . S
C1894 C1892 1.395 . S
C1894 C1897 1.403 . S
C1895 C1892 1.403 . S
C1895 C1896 1.524 . S
C1895 C1899 1.400 . S
C1896 H1881 0.960 . S
C1896 H1882 0.960 . S
C1896 H1883 0.960 . S
C1896 C1895 1.524 . S
C1897 C1894 1.403 . S
C1897 C1898 1.392 . S
C1897 C1901 1.495 . S
C1898 C1897 1.392 . S
C1898 C1899 1.385 . S
C1898 C1900 1.478 . S
C1899 H1893 0.930 . S
C1899 C1895 1.400 . S
C1899 C1898 1.385 . S
C1900 C1898 1.478 . S
C1900 C1902 1.381 . S
C1900 C1906 1.383 . S
C1901 C1897 1.495 . S
C1901 H1907 0.959 . S
C1901 H1908 0.961 . S
C1901 H1909 0.960 . S
C1902 C1900 1.381 . S
C1902 C1903 1.394 . S
C1902 H1910 0.930 . S
C1903 C1902 1.394 . S
C1903 C1904 1.383 . S
C1903 H1911 0.929 . S
C1904 C1903 1.383 . S
C1904 C1905 1.377 . S
C1905 H1889 0.930 . S
C1905 C1904 1.377 . S
C1905 C1906 1.379 . S
C1906 H1890 0.931 . S
C1906 C1900 1.383 . S
C1906 C1905 1.379 . S
H1907 C1901 0.959 . S
H1908 C1901 0.961 . S
H1909 C1901 0.960 . S
H1910 C1902 0.930 . S
H1911 C1903 0.929 . S
H1912 C1920 0.929 . S
H1913 C1922 0.930 . S
H1914 C1924 0.930 . S
H1915 C1927 0.929 . S
H1916 C1930 0.930 . S
H1917 C1932 0.960 . S
H1918 C1932 0.960 . S
H1919 C1932 0.960 . S
C1920 H1912 0.929 . S
C1920 C1921 1.377 . S
C1920 C1922 1.384 . S
C1921 C1920 1.377 . S
C1921 C1927 1.390 . S
C1922 H1913 0.930 . S
C1922 C1920 1.384 . S
C1922 C1923 1.372 . S
C1923 C1922 1.372 . S
C1923 C1924 1.400 . S
C1923 C1928 1.490 . S
C1924 H1914 0.930 . S
C1924 C1923 1.400 . S
C1924 C1927 1.386 . S
H1925 C1941 0.930 . S
H1926 C1942 0.931 . S
C1927 H1915 0.929 . S
C1927 C1921 1.390 . S
C1927 C1924 1.386 . S
C1928 C1923 1.490 . S
C1928 C1930 1.395 . S
C1928 C1931 1.403 . S
H1929 C1935 0.930 . S
C1930 H1916 0.930 . S
C1930 C1928 1.395 . S
C1930 C1933 1.403 . S
C1931 C1928 1.403 . S
C1931 C1932 1.524 . S
C1931 C1935 1.400 . S
C1932 H1917 0.960 . S
C1932 H1918 0.960 . S
C1932 H1919 0.960 . S
C1932 C1931 1.524 . S
C1933 C1930 1.403 . S
C1933 C1934 1.392 . S
C1933 C1937 1.495 . S
C1934 C1933 1.392 . S
C1934 C1935 1.385 . S
C1934 C1936 1.478 . S
C1935 H1929 0.930 . S
C1935 C1931 1.400 . S
C1935 C1934 1.385 . S
C1936 C1934 1.478 . S
C1936 C1938 1.381 . S
C1936 C1942 1.383 . S
C1937 C1933 1.495 . S
C1937 H1943 0.959 . S
C1937 H1944 0.961 . S
C1937 H1945 0.960 . S
C1938 C1936 1.381 . S
C1938 C1939 1.394 . S
C1938 H1946 0.930 . S
C1939 C1938 1.394 . S
C1939 C1940 1.383 . S
C1939 H1947 0.929 . S
C1940 C1939 1.383 . S
C1940 C1941 1.377 . S
C1941 H1925 0.930 . S
C1941 C1940 1.377 . S
C1941 C1942 1.379 . S
C1942 H1926 0.931 . S
C1942 C1936 1.383 . S
C1942 C1941 1.379 . S
H1943 C1937 0.959 . S
H1944 C1937 0.961 . S
H1945 C1937 0.960 . S
H1946 C1938 0.930 . S
H1947 C1939 0.929 . S
H1948 C1956 0.929 . S
H1949 C1958 0.930 . S
H1950 C1960 0.930 . S
H1951 C1963 0.929 . S
H1952 C1966 0.930 . S
H1953 C1968 0.960 . S
H1954 C1968 0.960 . S
H1955 C1968 0.960 . S
C1956 H1948 0.929 . S
C1956 C1957 1.377 . S
C1956 C1958 1.384 . S
C1957 C1956 1.377 . S
C1957 C1963 1.390 . S
C1958 H1949 0.930 . S
C1958 C1956 1.384 . S
C1958 C1959 1.372 . S
C1959 C1958 1.372 . S
C1959 C1960 1.400 . S
C1959 C1964 1.490 . S
C1960 H1950 0.930 . S
C1960 C1959 1.400 . S
C1960 C1963 1.386 . S
H1961 C1977 0.930 . S
H1962 C1978 0.931 . S
C1963 H1951 0.929 . S
C1963 C1957 1.390 . S
C1963 C1960 1.386 . S
C1964 C1959 1.490 . S
C1964 C1966 1.395 . S
C1964 C1967 1.403 . S
H1965 C1971 0.930 . S
C1966 H1952 0.930 . S
C1966 C1964 1.395 . S
C1966 C1969 1.403 . S
C1967 C1964 1.403 . S
C1967 C1968 1.524 . S
C1967 C1971 1.400 . S
C1968 H1953 0.960 . S
C1968 H1954 0.960 . S
C1968 H1955 0.960 . S
C1968 C1967 1.524 . S
C1969 C1966 1.403 . S
C1969 C1970 1.392 . S
C1969 C1973 1.495 . S
C1970 C1969 1.392 . S
C1970 C1971 1.385 . S
C1970 C1972 1.478 . S
C1971 H1965 0.930 . S
C1971 C1967 1.400 . S
C1971 C1970 1.385 . S
C1972 C1970 1.478 . S
C1972 C1974 1.381 . S
C1972 C1978 1.383 . S
C1973 C1969 1.495 . S
C1973 H1979 0.959 . S
C1973 H1980 0.961 . S
C1973 H1981 0.960 . S
C1974 C1972 1.381 . S
C1974 C1975 1.394 . S
C1974 H1982 0.930 . S
C1975 C1974 1.394 . S
C1975 C1976 1.383 . S
C1975 H1983 0.929 . S
C1976 C1975 1.383 . S
C1976 C1977 1.377 . S
C1977 H1961 0.930 . S
C1977 C1976 1.377 . S
C1977 C1978 1.379 . S
C1978 H1962 0.931 . S
C1978 C1972 1.383 . S
C1978 C1977 1.379 . S
H1979 C1973 0.959 . S
H1980 C1973 0.961 . S
H1981 C1973 0.960 . S
H1982 C1974 0.930 . S
H1983 C1975 0.929 . S
C553 C2 1.469 . S
C572 C478 1.476 . S
C589 C36 1.468 . S
C608 C512 1.452 . S
C625 C70 1.469 . S
C644 C410 1.478 . S
C661 C104 1.468 . S
C680 C444 1.452 . S
C697 C138 1.470 . S
C716 C342 1.456 . S
C733 C172 1.467 . S
C752 C376 1.454 . S
C769 C274 1.468 . S
C788 C206 1.475 . S
C805 C308 1.467 . S
C824 C240 1.467 . S
C841 C33 0.752 . S
C860 C39 0.752 . S
C877 C67 0.759 . S
C896 C73 0.749 . S
C913 C101 0.750 . S
C932 C107 0.735 . S
C949 C5 0.750 . S
C968 C135 0.778 . S
C985 C515 0.752 . S
C1004 C169 0.736 . S
C1021 C413 0.757 . S
C1040 C203 0.754 . S
C1057 C447 0.758 . S
C1076 C237 0.774 . S
C1093 C481 0.751 . S
C1112 C271 0.780 . S
C1129 C305 0.750 . S
C1148 C311 0.733 . S
C1165 C339 0.749 . S
C1184 C345 0.775 . S
C1201 C379 0.754 . S
C1220 C373 0.763 . S
C1237 C407 0.757 . S
C1256 C277 0.734 . S
C1273 C441 0.753 . S
C1292 C243 0.742 . S
C1309 C141 0.758 . S
C1328 C475 0.744 . S
C1345 C175 0.750 . S
C1364 C509 0.728 . S
C1381 C543 0.760 . S
C1400 C209 0.740 . S
C1417 C9 1.510 . S
C1436 C77 1.476 . S
C1453 C43 1.496 . S
C1472 C111 1.463 . S
C1489 C213 1.501 . S
C1508 C145 1.468 . S
C1525 C247 1.506 . S
C1544 C179 1.523 . S
C1561 C281 1.503 . S
C1580 C349 1.465 . S
C1597 C315 1.495 . S
C1616 C383 1.465 . S
C1633 C417 1.511 . S
C1652 C485 1.482 . S
C1669 C451 1.510 . S
C1688 C519 1.525 . S
C1705 C156 2.068 . S
C1724 C20 2.059 . S
C1741 C190 2.069 . S
C1760 C54 2.077 . S
C1777 C88 2.066 . S
C1796 C224 2.050 . S
C1813 C258 2.071 . S
C1832 C122 2.051 . S
C1849 C292 2.072 . S
C1868 C428 2.079 . S
C1885 C462 2.068 . S
C1904 C326 2.054 . S
C1921 C496 2.068 . S
C1940 C360 2.058 . S
C1957 C394 2.070 . S
C1976 C530 2.074 . S
