# Generated by pormake.
# Topology unw, (4)-cn, num edge types: 1
# Building blocks:
#     Node 0, Type 0, BuildingBlock: QUQFOY_clean_sbu_3, # of connection points: 4
#     Node 1, Type 0, BuildingBlock: QUQFOY_clean_sbu_3, # of connection points: 4
#     Node 2, Type 0, BuildingBlock: QUQFOY_clean_sbu_3, # of connection points: 4
#     Node 3, Type 0, BuildingBlock: QUQFOY_clean_sbu_3, # of connection points: 4
#     Node 4, Type 0, BuildingBlock: QUQFOY_clean_sbu_3, # of connection points: 4
#     Node 5, Type 0, BuildingBlock: QUQFOY_clean_sbu_3, # of connection points: 4
#     Node 6, Type 0, BuildingBlock: QUQFOY_clean_sbu_3, # of connection points: 4
#     Node 7, Type 0, BuildingBlock: QUQFOY_clean_sbu_3, # of connection points: 4
#     Node 8, Type 0, BuildingBlock: QUQFOY_clean_sbu_3, # of connection points: 4
#     Node 9, Type 0, BuildingBlock: QUQFOY_clean_sbu_3, # of connection points: 4
#     Node 10, Type 0, BuildingBlock: QUQFOY_clean_sbu_3, # of connection points: 4
#     Node 11, Type 0, BuildingBlock: QUQFOY_clean_sbu_3, # of connection points: 4
#     Node 12, Type 0, BuildingBlock: QUQFOY_clean_sbu_3, # of connection points: 4
#     Node 13, Type 0, BuildingBlock: QUQFOY_clean_sbu_3, # of connection points: 4
#     Node 14, Type 0, BuildingBlock: QUQFOY_clean_sbu_3, # of connection points: 4
#     Node 15, Type 0, BuildingBlock: QUQFOY_clean_sbu_3, # of connection points: 4
#     Node 16, Type 0, BuildingBlock: QUQFOY_clean_sbu_3, # of connection points: 4
#     Node 17, Type 0, BuildingBlock: QUQFOY_clean_sbu_3, # of connection points: 4
#     Node 18, Type 0, BuildingBlock: QUQFOY_clean_sbu_3, # of connection points: 4
#     Node 19, Type 0, BuildingBlock: QUQFOY_clean_sbu_3, # of connection points: 4
#     Node 20, Type 0, BuildingBlock: QUQFOY_clean_sbu_3, # of connection points: 4
#     Node 21, Type 0, BuildingBlock: QUQFOY_clean_sbu_3, # of connection points: 4
#     Node 22, Type 0, BuildingBlock: QUQFOY_clean_sbu_3, # of connection points: 4
#     Node 23, Type 0, BuildingBlock: QUQFOY_clean_sbu_3, # of connection points: 4
#     Edge 24, Type (0, 0), None
#     Edge 25, Type (0, 0), None
#     Edge 26, Type (0, 0), None
#     Edge 27, Type (0, 0), None
#     Edge 28, Type (0, 0), None
#     Edge 29, Type (0, 0), None
#     Edge 30, Type (0, 0), None
#     Edge 31, Type (0, 0), None
#     Edge 32, Type (0, 0), None
#     Edge 33, Type (0, 0), None
#     Edge 34, Type (0, 0), None
#     Edge 35, Type (0, 0), None
#     Edge 36, Type (0, 0), None
#     Edge 37, Type (0, 0), None
#     Edge 38, Type (0, 0), None
#     Edge 39, Type (0, 0), None
#     Edge 40, Type (0, 0), None
#     Edge 41, Type (0, 0), None
#     Edge 42, Type (0, 0), None
#     Edge 43, Type (0, 0), None
#     Edge 44, Type (0, 0), None
#     Edge 45, Type (0, 0), None
#     Edge 46, Type (0, 0), None
#     Edge 47, Type (0, 0), None
#     Edge 48, Type (0, 0), None
#     Edge 49, Type (0, 0), None
#     Edge 50, Type (0, 0), None
#     Edge 51, Type (0, 0), None
#     Edge 52, Type (0, 0), None
#     Edge 53, Type (0, 0), None
#     Edge 54, Type (0, 0), None
#     Edge 55, Type (0, 0), None
#     Edge 56, Type (0, 0), None
#     Edge 57, Type (0, 0), None
#     Edge 58, Type (0, 0), None
#     Edge 59, Type (0, 0), None
#     Edge 60, Type (0, 0), None
#     Edge 61, Type (0, 0), None
#     Edge 62, Type (0, 0), None
#     Edge 63, Type (0, 0), None
#     Edge 64, Type (0, 0), None
#     Edge 65, Type (0, 0), None
#     Edge 66, Type (0, 0), None
#     Edge 67, Type (0, 0), None
#     Edge 68, Type (0, 0), None
#     Edge 69, Type (0, 0), None
#     Edge 70, Type (0, 0), None
#     Edge 71, Type (0, 0), None
# Relax obj value: 0.350
# Max RMSD: 0.299
# Mean RMSD: 0.277
data_MOF--net-unw--node1-QUQFOY_clean_sbu_3--edge1-none
_symmetry_space_group_name_H-M    P1
_symmetry_Int_Tables_number       1
_symmetry_cell_setting            triclinic
loop_
_symmetry_equiv_pos_as_xyz
'x, y, z'
_cell_length_a     23.538728
_cell_length_b     23.778139
_cell_length_c     23.184674
_cell_angle_alpha  88.832068
_cell_angle_beta   88.573792
_cell_angle_gamma 93.03853
loop_
_atom_site_label
_atom_site_type_symbol
_atom_site_fract_x
_atom_site_fract_y
_atom_site_fract_z
_atom_type_partial_charge
C0 C 0.01373 0.2198 0.2256 0.0
O1 O 0.03799 0.18754 0.19129 0.0
Cd2 Cd 0.13176 0.18247 0.16593 0.0
O3 O 0.04073 0.26378 0.24535 0.0
Cd4 Cd 0.1475 0.30652 0.22645 0.0
C5 C 0.18845 0.20502 0.30442 0.0
O6 O 0.16971 0.26899 0.13393 0.0
O7 O 0.24013 0.27714 0.19023 0.0
O8 O 0.15643 0.39975 0.17919 0.0
C9 C 0.2221 0.26266 0.14155 0.0
O10 O 0.17206 0.18062 0.25904 0.0
C11 C 0.1896 0.41946 0.21714 0.0
O12 O 0.18395 0.25753 0.31061 0.0
O13 O 0.19278 0.39106 0.26387 0.0
C14 C 0.44927 0.06693 0.17618 0.0
O15 O 0.45234 0.09629 0.22113 0.0
Cd16 Cd 0.52575 0.10725 0.29522 0.0
O17 O 0.48768 0.03202 0.16746 0.0
Cd18 Cd 0.56212 0.05107 0.24526 0.0
C19 C 0.54074 0.19806 0.21938 0.0
O20 O 0.63287 0.10939 0.28009 0.0
O21 O 0.6634 0.04849 0.21721 0.0
O22 O 0.55778 0.0265 0.35095 0.0
C23 C 0.67414 0.08706 0.25388 0.0
O24 O 0.52477 0.20477 0.27144 0.0
C25 C 0.57764 -0.02163 0.34247 0.0
O26 O 0.55391 0.14952 0.20268 0.0
O27 O 0.57775 -0.03902 0.2907 0.0
C28 C 0.68034 0.49444 0.24439 0.0
O29 O 0.64172 0.52324 0.26582 0.0
Cd30 Cd 0.63854 0.61212 0.30531 0.0
O31 O 0.73335 0.51021 0.24716 0.0
Cd32 Cd 0.78113 0.60425 0.27889 0.0
C33 C 0.70168 0.65939 0.17882 0.0
O34 O 0.71897 0.63414 0.36061 0.0
O35 O 0.75603 0.69517 0.29833 0.0
O36 O 0.88043 0.62161 0.31947 0.0
C37 C 0.73001 0.68532 0.34595 0.0
O38 O 0.66154 0.66138 0.2164 0.0
C39 C 0.89807 0.65114 0.27532 0.0
O40 O 0.74609 0.63292 0.18811 0.0
O41 O 0.86584 0.64995 0.23222 0.0
C42 C 0.32473 0.91824 0.3205 0.0
O43 O 0.31086 0.93192 0.26973 0.0
Cd44 Cd 0.32121 0.88429 0.17596 0.0
O45 O 0.35764 0.87796 0.32686 0.0
Cd46 Cd 0.3738 0.83889 0.22843 0.0
C47 C 0.21748 0.84133 0.22848 0.0
O48 O 0.33158 0.77965 0.16336 0.0
O49 O 0.37512 0.73897 0.23577 0.0
O50 O 0.44487 0.88038 0.15108 0.0
C51 C 0.34802 0.73515 0.18878 0.0
O52 O 0.217 0.87253 0.18336 0.0
C53 C 0.48398 0.84873 0.16818 0.0
O54 O 0.26534 0.82751 0.2478 0.0
O55 O 0.47354 0.82077 0.21521 0.0
C56 C 0.0073 0.58716 0.62036 0.0
O57 O -0.00912 0.59866 0.67118 0.0
Cd58 Cd 0.04001 0.59284 0.76475 0.0
O59 O 0.05105 0.55847 0.61425 0.0
Cd60 Cd 0.08928 0.5431 0.71272 0.0
C61 C 0.07826 0.69686 0.71152 0.0
O62 O 0.14641 0.5878 0.77797 0.0
O63 O 0.19035 0.54591 0.70608 0.0
O64 O 0.0489 0.47223 0.78988 0.0
C65 C 0.19245 0.57327 0.75295 0.0
O66 O 0.04643 0.69631 0.75662 0.0
C67 C 0.08228 0.43441 0.77319 0.0
O68 O 0.09486 0.65015 0.69269 0.0
O69 O 0.11067 0.44509 0.72622 0.0
C70 C 0.42451 0.23239 0.68717 0.0
O71 O 0.3967 0.26938 0.66202 0.0
Cd72 Cd 0.3072 0.27228 0.62316 0.0
O73 O 0.4082 0.17981 0.6875 0.0
Cd74 Cd 0.31462 0.13043 0.65301 0.0
C75 C 0.26601 0.21286 0.75391 0.0
O76 O 0.28349 0.19102 0.57168 0.0
O77 O 0.2224 0.15589 0.63527 0.0
O78 O 0.29678 0.03059 0.61631 0.0
C79 C 0.23193 0.18165 0.58757 0.0
O80 O 0.2625 0.25159 0.71558 0.0
C81 C 0.26457 0.01574 0.65978 0.0
O82 O 0.29038 0.16763 0.74384 0.0
O83 O 0.26436 0.0497 0.70131 0.0
C84 C 0.84724 0.47787 0.77125 0.0
O85 O 0.81658 0.47378 0.7272 0.0
Cd86 Cd 0.80719 0.40128 0.65259 0.0
O87 O 0.88353 0.44069 0.77903 0.0
Cd88 Cd 0.8649 0.36537 0.70226 0.0
C89 C 0.71568 0.3816 0.72907 0.0
O90 O 0.80815 0.29532 0.6639 0.0
O91 O 0.8685 0.26484 0.72753 0.0
O92 O 0.89144 0.36995 0.59736 0.0
C93 C 0.83123 0.25437 0.68917 0.0
O94 O 0.70893 0.39863 0.67753 0.0
C95 C 0.93965 0.3496 0.60641 0.0
O96 O 0.76505 0.36967 0.74558 0.0
O97 O 0.95656 0.34961 0.65837 0.0
C98 C 0.70676 0.91637 0.709 0.0
O99 O 0.74031 0.89221 0.74192 0.0
Cd100 Cd 0.74542 0.80083 0.77291 0.0
O101 O 0.66101 0.89021 0.69158 0.0
Cd102 Cd 0.6183 0.785 0.71228 0.0
C103 C 0.72223 0.73808 0.63785 0.0
O104 O 0.65681 0.76642 0.80502 0.0
O105 O 0.64508 0.6942 0.75216 0.0
O106 O 0.52398 0.77586 0.75944 0.0
C107 C 0.66115 0.71391 0.7996 0.0
O108 O 0.74747 0.75562 0.68238 0.0
C109 C 0.50447 0.74285 0.72138 0.0
O110 O 0.66952 0.74433 0.6312 0.0
O111 O 0.53322 0.74007 0.67448 0.0
C112 C 0.1217 0.08014 0.45911 0.0
O113 O 0.1736 0.0973 0.46132 0.0
Cd114 Cd 0.25749 0.07867 0.40125 0.0
O115 O 0.10949 0.03759 0.42839 0.0
Cd116 Cd 0.20015 0.01788 0.37115 0.0
C117 C 0.20899 0.16778 0.34861 0.0
O118 O 0.24484 0.06257 0.29381 0.0
O119 O 0.17517 0.00133 0.27135 0.0
O120 O 0.29957 -0.01171 0.38681 0.0
C121 C 0.2149 0.03785 0.25571 0.0
O122 O 0.25607 0.17712 0.37346 0.0
C123 C 0.28834 0.93901 0.36792 0.0
O124 O 0.1868 0.11807 0.34712 0.0
O125 O 0.23546 0.92372 0.36649 0.0
C126 C 0.95297 0.203 0.23776 0.0
O127 O 0.9281 0.17592 0.19818 0.0
Cd128 Cd 0.83547 0.13366 0.1832 0.0
O129 O 0.92883 0.20571 0.28746 0.0
Cd130 Cd 0.82919 0.16223 0.3156 0.0
C131 C 0.77454 0.25164 0.21664 0.0
O132 O 0.77843 0.08596 0.25795 0.0
O133 O 0.73391 0.15555 0.29431 0.0
O134 O 0.84026 0.10486 0.40663 0.0
C135 C 0.73147 0.10967 0.26768 0.0
O136 O 0.78371 0.21612 0.17775 0.0
C137 C 0.80974 0.13521 0.43812 0.0
O138 O 0.79282 0.24576 0.26794 0.0
O139 O 0.79317 0.18007 0.4146 0.0
C140 C 0.80359 0.82875 0.46386 0.0
O141 O 0.7527 0.80962 0.47131 0.0
Cd142 Cd 0.6703 0.83061 0.41546 0.0
O143 O 0.81233 0.87203 0.431 0.0
Cd144 Cd 0.71589 0.88305 0.38258 0.0
C145 C 0.70706 0.73299 0.37472 0.0
O146 O 0.68201 0.84285 0.30442 0.0
O147 O 0.74574 0.91243 0.2843 0.0
O148 O 0.61075 0.90277 0.3986 0.0
C149 C 0.71038 0.87393 0.26726 0.0
O150 O 0.66096 0.73008 0.40472 0.0
C151 C 0.61823 0.95403 0.3826 0.0
O152 O 0.73233 0.78048 0.36282 0.0
O153 O 0.66981 -0.02623 0.37999 0.0
C154 C 0.95159 0.68807 0.27271 0.0
O155 O -0.03636 0.71516 0.22588 0.0
Cd156 Cd 0.05043 0.76928 0.19702 0.0
O157 O -0.01609 0.69481 0.31587 0.0
Cd158 Cd 0.07839 0.75486 0.32462 0.0
C159 C 0.12783 0.66154 0.23045 0.0
O160 O 0.11437 0.83038 0.25138 0.0
O161 O 0.17195 0.77207 0.28929 0.0
O162 O 0.06883 0.81511 0.41179 0.0
C163 C 0.16547 0.81474 0.25712 0.0
O164 O 0.11016 0.69245 0.19005 0.0
C165 C 0.10482 0.78936 0.44114 0.0
O166 O 0.11703 0.67111 0.28358 0.0
O167 O 0.12405 0.74556 0.41887 0.0
C168 C 0.22671 -0.03685 0.66336 0.0
O169 O 0.19826 0.9528 0.70996 0.0
Cd170 Cd 0.14426 0.86663 0.74007 0.0
O171 O 0.22075 0.92975 0.62113 0.0
Cd172 Cd 0.15958 0.83659 0.61413 0.0
C173 C 0.25524 0.79252 0.70895 0.0
O174 O 0.08479 0.79894 0.6881 0.0
O175 O 0.14589 0.74407 0.64963 0.0
O176 O 0.09819 0.84466 0.52752 0.0
C177 C 0.10271 0.74907 0.68236 0.0
O178 O 0.22348 0.80994 0.74918 0.0
C179 C 0.12453 0.80915 0.49806 0.0
O180 O 0.24514 0.80162 0.65572 0.0
O181 O 0.16907 0.79071 0.52005 0.0
C182 C 0.08048 0.12302 0.47603 0.0
O183 O 0.09849 0.17352 0.46616 0.0
Cd184 Cd 0.08662 0.25352 0.52875 0.0
O185 O 0.04078 0.11454 0.51393 0.0
Cd186 Cd 0.03242 0.20919 0.56386 0.0
C187 C 0.18416 0.20826 0.56213 0.0
O188 O 0.07824 0.24013 0.64004 0.0
O189 O 0.00611 0.17982 0.66279 0.0
O190 O 0.01614 0.31428 0.55153 0.0
C191 C 0.04744 0.21276 0.67829 0.0
O192 O 0.18887 0.25485 0.53392 0.0
C193 C -0.03602 0.30842 0.56685 0.0
O194 O 0.13532 0.18629 0.57585 0.0
O195 O 0.94231 0.25794 0.56842 0.0
C196 C 0.72316 -0.02335 0.69749 0.0
O197 O 0.75003 0.0012 0.73742 0.0
Cd198 Cd 0.7907 0.09308 0.75485 0.0
O199 O 0.72022 0.00089 0.64811 0.0
Cd200 Cd 0.7632 0.09996 0.62084 0.0
C201 C 0.66987 0.14972 0.72007 0.0
O202 O 0.83673 0.15179 0.68103 0.0
O203 O 0.76673 0.19443 0.64272 0.0
O204 O 0.82344 0.08978 0.5309 0.0
C205 C 0.81149 0.19757 0.67178 0.0
O206 O 0.70536 0.14089 0.75919 0.0
C207 C 0.7928 0.11909 0.49874 0.0
O208 O 0.67723 0.13321 0.66824 0.0
O209 O 0.74668 0.13485 0.52146 0.0
C210 C 0.84747 0.78894 0.4813 0.0
O211 O 0.83043 0.73739 0.48023 0.0
Cd212 Cd 0.84526 0.65715 0.54487 0.0
O213 O 0.89013 0.80225 0.51187 0.0
Cd214 Cd 0.91043 0.71481 0.57189 0.0
C215 C 0.75873 0.71314 0.59524 0.0
O216 O 0.86411 0.6747 0.65085 0.0
O217 O 0.92861 0.74228 0.67068 0.0
O218 O 0.93564 0.61471 0.557 0.0
C219 C 0.89018 0.70497 0.68775 0.0
O220 O 0.74647 0.66588 0.57255 0.0
C221 C -0.01354 0.6238 0.57368 0.0
O222 O 0.81003 0.73226 0.59576 0.0
O223 O 0.00423 0.67557 0.57417 0.0
C224 C 0.19014 0.12694 -0.01491 0.0
O225 O 0.17622 0.07883 0.00741 0.0
Cd226 Cd 0.25304 0.08429 0.07318 0.0
O227 O 0.23847 0.14951 -0.00121 0.0
Cd228 Cd 0.29001 0.105 0.09489 0.0
C229 C 0.24721 0.21458 0.11537 0.0
O230 O 0.22862 0.0268 0.15297 0.0
O231 O 0.24338 0.10883 0.18871 0.0
O232 O 0.37815 0.04385 0.10234 0.0
C233 C 0.22545 0.05814 0.19636 0.0
O234 O 0.21414 0.17444 0.10061 0.0
C235 C 0.40223 0.07898 0.13616 0.0
O236 O 0.29946 0.20571 0.1183 0.0
O237 O 0.37922 0.12571 0.1407 0.0
C238 C 0.45279 0.70627 0.7319 0.0
O239 O 0.43554 0.67513 0.69138 0.0
Cd240 Cd 0.34533 0.6248 0.68318 0.0
O241 O 0.42732 0.70449 0.78124 0.0
Cd242 Cd 0.33838 0.65359 0.82068 0.0
C243 C 0.29216 0.74781 0.72337 0.0
O244 O 0.29491 0.5784 0.76274 0.0
O245 O 0.24314 0.64007 0.80499 0.0
O246 O 0.35641 0.59687 0.90953 0.0
C247 C 0.24573 0.59612 0.77545 0.0
O248 O 0.29959 0.71136 0.68487 0.0
C249 C 0.32247 0.62393 0.94084 0.0
O250 O 0.30497 0.73946 0.77607 0.0
O251 O 0.30312 0.66808 0.91849 0.0
C252 C 0.15131 0.15283 0.94299 0.0
O253 O 0.11073 0.12128 0.92508 0.0
Cd254 Cd 0.09209 0.1379 0.82764 0.0
O255 O 0.15902 0.20353 0.92228 0.0
Cd256 Cd 0.1081 0.26267 0.84039 0.0
C257 C 0.22144 0.20943 0.79719 0.0
O258 O 0.03558 0.20575 0.78316 0.0
O259 O 0.11532 0.23886 0.74427 0.0
O260 O 0.05676 0.35677 0.84339 0.0
C261 C 0.06538 0.21881 0.73765 0.0
O262 O 0.18799 0.16564 0.79541 0.0
C263 C 0.09125 0.38037 0.80565 0.0
O264 O 0.20522 0.25508 0.81774 0.0
O265 O 0.13489 0.3535 0.79348 0.0
C266 C 0.48023 0.25311 0.70681 0.0
O267 O 0.51046 0.28064 0.66877 0.0
Cd268 Cd 0.60163 0.32397 0.6661 0.0
O269 O 0.49273 0.25366 0.76058 0.0
Cd270 Cd 0.57891 0.29429 0.81714 0.0
C271 C 0.63493 0.19719 0.72888 0.0
O272 O 0.61628 0.36986 0.75241 0.0
O273 O 0.67532 0.33172 0.80851 0.0
O274 O 0.55074 0.34124 0.91012 0.0
C275 C 0.66728 0.3663 0.76786 0.0
O276 O 0.63554 0.23326 0.6875 0.0
C277 C 0.58391 0.31281 0.94062 0.0
O278 O 0.6173 0.20807 0.77987 0.0
O279 O 0.60722 0.27247 0.9157 0.0
C280 C 0.79587 0.74117 0.95781 0.0
O281 O 0.84521 0.75349 0.9363 0.0
Cd282 Cd 0.83841 0.67713 0.87051 0.0
O283 O 0.77185 0.69397 0.94365 0.0
Cd284 Cd 0.81627 0.63962 0.84923 0.0
C285 C 0.70856 0.68805 0.82653 0.0
O286 O 0.89906 0.69524 0.79112 0.0
O287 O 0.81629 0.68374 0.75459 0.0
O288 O 0.87306 0.54891 0.84388 0.0
C289 C 0.86837 0.69844 0.74715 0.0
O290 O 0.75042 0.71959 0.84038 0.0
C291 C 0.83689 0.52605 0.81018 0.0
O292 O 0.715 0.63571 0.82548 0.0
O293 O 0.79109 0.55112 0.80474 0.0
C294 C 0.77029 0.77999 0.00016 0.0
O295 O 0.80326 0.8183 0.02005 0.0
Cd296 Cd 0.7861 0.83348 0.11846 0.0
O297 O 0.71847 0.77373 0.01969 0.0
Cd298 Cd 0.65816 0.8232 0.10192 0.0
C299 C 0.70801 0.70678 0.13955 0.0
O300 O 0.7178 0.88999 0.16292 0.0
O301 O 0.67913 0.81167 0.19817 0.0
O302 O 0.56365 0.87546 0.09946 0.0
C303 C 0.70234 0.85955 0.20707 0.0
O304 O 0.75308 0.73814 0.14493 0.0
C305 C 0.53893 0.84046 0.1358 0.0
O306 O 0.66329 0.72573 0.11885 0.0
O307 O 0.56563 0.79684 0.14701 0.0
C308 C 0.2252 0.47155 0.2071 0.0
O309 O 0.25578 0.48945 0.24787 0.0
Cd310 Cd 0.30168 0.58095 0.25714 0.0
O311 O 0.22617 0.49722 0.15814 0.0
Cd312 Cd 0.27441 0.58723 0.12005 0.0
C313 C 0.17495 0.62705 0.21659 0.0
O314 O 0.34776 0.63375 0.17889 0.0
O315 O 0.28274 0.68162 0.13728 0.0
O316 O 0.33289 0.57244 0.03077 0.0
C317 C 0.3273 0.68132 0.16658 0.0
O318 O 0.21163 0.62161 0.25544 0.0
C319 C 0.30427 0.60511 -2e-05 0.0
O320 O 0.18502 0.61506 0.16389 0.0
O321 O 0.25883 0.62234 0.02274 0.0
C322 C 0.6612 0.43757 0.22853 0.0
O323 O 0.63753 0.40796 0.26937 0.0
Cd324 Cd 0.59866 0.31574 0.27743 0.0
O325 O 0.65846 0.42268 0.17555 0.0
Cd326 Cd 0.62051 0.3334 0.12419 0.0
C327 C 0.72501 0.28443 0.20913 0.0
O328 O 0.54869 0.29625 0.19426 0.0
O329 O 0.58493 0.23767 0.13628 0.0
O330 O 0.56877 0.35811 0.03302 0.0
C331 C 0.55269 0.2456 0.17934 0.0
O332 O 0.69057 0.28457 0.25234 0.0
C333 C 0.59747 0.32581 0.00161 0.0
O334 O 0.71096 0.29946 0.15834 0.0
O335 O 0.63951 0.30397 0.02518 0.0
loop_
_geom_bond_atom_site_label_1
_geom_bond_atom_site_label_2
_geom_bond_distance
_geom_bond_site_symmetry_2
_ccdc_geom_bond_type
C0 O1 1.306 . S
C0 O3 1.160 . S
O1 C0 1.306 . S
O1 Cd2 2.228 . S
Cd2 O1 2.228 . S
Cd2 O6 2.273 . S
Cd2 O10 2.277 . S
O3 C0 1.160 . S
O3 Cd4 2.203 . S
Cd4 O3 2.203 . S
Cd4 O6 2.411 . S
Cd4 O7 2.333 . S
Cd4 O8 2.352 . S
Cd4 O12 2.277 . S
Cd4 O13 2.356 . S
C5 O10 1.209 . S
C5 O12 1.226 . S
O6 Cd2 2.273 . S
O6 Cd4 2.411 . S
O6 C9 1.320 . S
O7 Cd4 2.333 . S
O7 C9 1.214 . S
O8 Cd4 2.352 . S
O8 C11 1.258 . S
C9 O6 1.320 . S
C9 O7 1.214 . S
O10 Cd2 2.277 . S
O10 C5 1.209 . S
C11 O8 1.258 . S
C11 O13 1.282 . S
O12 Cd4 2.277 . S
O12 C5 1.226 . S
O13 Cd4 2.356 . S
O13 C11 1.282 . S
C14 O15 1.306 . S
C14 O17 1.160 . S
O15 C14 1.306 . S
O15 Cd16 2.228 . S
Cd16 O15 2.228 . S
Cd16 O20 2.273 . S
Cd16 O24 2.277 . S
O17 C14 1.160 . S
O17 Cd18 2.203 . S
Cd18 O17 2.203 . S
Cd18 O20 2.411 . S
Cd18 O21 2.333 . S
Cd18 O22 2.352 . S
Cd18 O26 2.277 . S
Cd18 O27 2.356 . S
C19 O24 1.209 . S
C19 O26 1.226 . S
O20 Cd16 2.273 . S
O20 Cd18 2.411 . S
O20 C23 1.320 . S
O21 Cd18 2.333 . S
O21 C23 1.214 . S
O22 Cd18 2.352 . S
O22 C25 1.258 . S
C23 O20 1.320 . S
C23 O21 1.214 . S
O24 Cd16 2.277 . S
O24 C19 1.209 . S
C25 O22 1.258 . S
C25 O27 1.282 . S
O26 Cd18 2.277 . S
O26 C19 1.226 . S
O27 Cd18 2.356 . S
O27 C25 1.282 . S
C28 O29 1.306 . S
C28 O31 1.160 . S
O29 C28 1.306 . S
O29 Cd30 2.228 . S
Cd30 O29 2.228 . S
Cd30 O34 2.273 . S
Cd30 O38 2.277 . S
O31 C28 1.160 . S
O31 Cd32 2.203 . S
Cd32 O31 2.203 . S
Cd32 O34 2.411 . S
Cd32 O35 2.333 . S
Cd32 O36 2.352 . S
Cd32 O40 2.277 . S
Cd32 O41 2.356 . S
C33 O38 1.209 . S
C33 O40 1.226 . S
O34 Cd30 2.273 . S
O34 Cd32 2.411 . S
O34 C37 1.320 . S
O35 Cd32 2.333 . S
O35 C37 1.214 . S
O36 Cd32 2.352 . S
O36 C39 1.258 . S
C37 O34 1.320 . S
C37 O35 1.214 . S
O38 Cd30 2.277 . S
O38 C33 1.209 . S
C39 O36 1.258 . S
C39 O41 1.282 . S
O40 Cd32 2.277 . S
O40 C33 1.226 . S
O41 Cd32 2.356 . S
O41 C39 1.282 . S
C42 O43 1.306 . S
C42 O45 1.160 . S
O43 C42 1.306 . S
O43 Cd44 2.228 . S
Cd44 O43 2.228 . S
Cd44 O48 2.273 . S
Cd44 O52 2.277 . S
O45 C42 1.160 . S
O45 Cd46 2.203 . S
Cd46 O45 2.203 . S
Cd46 O48 2.411 . S
Cd46 O49 2.333 . S
Cd46 O50 2.352 . S
Cd46 O54 2.277 . S
Cd46 O55 2.356 . S
C47 O52 1.209 . S
C47 O54 1.226 . S
O48 Cd44 2.273 . S
O48 Cd46 2.411 . S
O48 C51 1.320 . S
O49 Cd46 2.333 . S
O49 C51 1.214 . S
O50 Cd46 2.352 . S
O50 C53 1.258 . S
C51 O48 1.320 . S
C51 O49 1.214 . S
O52 Cd44 2.277 . S
O52 C47 1.209 . S
C53 O50 1.258 . S
C53 O55 1.282 . S
O54 Cd46 2.277 . S
O54 C47 1.226 . S
O55 Cd46 2.356 . S
O55 C53 1.282 . S
C56 O57 1.306 . S
C56 O59 1.160 . S
O57 C56 1.306 . S
O57 Cd58 2.228 . S
Cd58 O57 2.228 . S
Cd58 O62 2.273 . S
Cd58 O66 2.277 . S
O59 C56 1.160 . S
O59 Cd60 2.203 . S
Cd60 O59 2.203 . S
Cd60 O62 2.411 . S
Cd60 O63 2.333 . S
Cd60 O64 2.352 . S
Cd60 O68 2.277 . S
Cd60 O69 2.356 . S
C61 O66 1.209 . S
C61 O68 1.226 . S
O62 Cd58 2.273 . S
O62 Cd60 2.411 . S
O62 C65 1.320 . S
O63 Cd60 2.333 . S
O63 C65 1.214 . S
O64 Cd60 2.352 . S
O64 C67 1.258 . S
C65 O62 1.320 . S
C65 O63 1.214 . S
O66 Cd58 2.277 . S
O66 C61 1.209 . S
C67 O64 1.258 . S
C67 O69 1.282 . S
O68 Cd60 2.277 . S
O68 C61 1.226 . S
O69 Cd60 2.356 . S
O69 C67 1.282 . S
C70 O71 1.306 . S
C70 O73 1.160 . S
O71 C70 1.306 . S
O71 Cd72 2.228 . S
Cd72 O71 2.228 . S
Cd72 O76 2.273 . S
Cd72 O80 2.277 . S
O73 C70 1.160 . S
O73 Cd74 2.203 . S
Cd74 O73 2.203 . S
Cd74 O76 2.411 . S
Cd74 O77 2.333 . S
Cd74 O78 2.352 . S
Cd74 O82 2.277 . S
Cd74 O83 2.356 . S
C75 O80 1.209 . S
C75 O82 1.226 . S
O76 Cd72 2.273 . S
O76 Cd74 2.411 . S
O76 C79 1.320 . S
O77 Cd74 2.333 . S
O77 C79 1.214 . S
O78 Cd74 2.352 . S
O78 C81 1.258 . S
C79 O76 1.320 . S
C79 O77 1.214 . S
O80 Cd72 2.277 . S
O80 C75 1.209 . S
C81 O78 1.258 . S
C81 O83 1.282 . S
O82 Cd74 2.277 . S
O82 C75 1.226 . S
O83 Cd74 2.356 . S
O83 C81 1.282 . S
C84 O85 1.306 . S
C84 O87 1.160 . S
O85 C84 1.306 . S
O85 Cd86 2.228 . S
Cd86 O85 2.228 . S
Cd86 O90 2.273 . S
Cd86 O94 2.277 . S
O87 C84 1.160 . S
O87 Cd88 2.203 . S
Cd88 O87 2.203 . S
Cd88 O90 2.411 . S
Cd88 O91 2.333 . S
Cd88 O92 2.352 . S
Cd88 O96 2.277 . S
Cd88 O97 2.356 . S
C89 O94 1.209 . S
C89 O96 1.226 . S
O90 Cd86 2.273 . S
O90 Cd88 2.411 . S
O90 C93 1.320 . S
O91 Cd88 2.333 . S
O91 C93 1.214 . S
O92 Cd88 2.352 . S
O92 C95 1.258 . S
C93 O90 1.320 . S
C93 O91 1.214 . S
O94 Cd86 2.277 . S
O94 C89 1.209 . S
C95 O92 1.258 . S
C95 O97 1.282 . S
O96 Cd88 2.277 . S
O96 C89 1.226 . S
O97 Cd88 2.356 . S
O97 C95 1.282 . S
C98 O99 1.306 . S
C98 O101 1.160 . S
O99 C98 1.306 . S
O99 Cd100 2.228 . S
Cd100 O99 2.228 . S
Cd100 O104 2.273 . S
Cd100 O108 2.277 . S
O101 C98 1.160 . S
O101 Cd102 2.203 . S
Cd102 O101 2.203 . S
Cd102 O104 2.411 . S
Cd102 O105 2.333 . S
Cd102 O106 2.352 . S
Cd102 O110 2.277 . S
Cd102 O111 2.356 . S
C103 O108 1.209 . S
C103 O110 1.226 . S
O104 Cd100 2.273 . S
O104 Cd102 2.411 . S
O104 C107 1.320 . S
O105 Cd102 2.333 . S
O105 C107 1.214 . S
O106 Cd102 2.352 . S
O106 C109 1.258 . S
C107 O104 1.320 . S
C107 O105 1.214 . S
O108 Cd100 2.277 . S
O108 C103 1.209 . S
C109 O106 1.258 . S
C109 O111 1.282 . S
O110 Cd102 2.277 . S
O110 C103 1.226 . S
O111 Cd102 2.356 . S
O111 C109 1.282 . S
C112 O113 1.306 . S
C112 O115 1.160 . S
O113 C112 1.306 . S
O113 Cd114 2.228 . S
Cd114 O113 2.228 . S
Cd114 O118 2.273 . S
Cd114 O122 2.277 . S
O115 C112 1.160 . S
O115 Cd116 2.203 . S
Cd116 O115 2.203 . S
Cd116 O118 2.411 . S
Cd116 O119 2.333 . S
Cd116 O120 2.352 . S
Cd116 O124 2.277 . S
Cd116 O125 2.356 . S
C117 O122 1.209 . S
C117 O124 1.226 . S
O118 Cd114 2.273 . S
O118 Cd116 2.411 . S
O118 C121 1.320 . S
O119 Cd116 2.333 . S
O119 C121 1.214 . S
O120 Cd116 2.352 . S
O120 C123 1.258 . S
C121 O118 1.320 . S
C121 O119 1.214 . S
O122 Cd114 2.277 . S
O122 C117 1.209 . S
C123 O120 1.258 . S
C123 O125 1.282 . S
O124 Cd116 2.277 . S
O124 C117 1.226 . S
O125 Cd116 2.356 . S
O125 C123 1.282 . S
C126 O127 1.306 . S
C126 O129 1.160 . S
O127 C126 1.306 . S
O127 Cd128 2.228 . S
Cd128 O127 2.228 . S
Cd128 O132 2.273 . S
Cd128 O136 2.277 . S
O129 C126 1.160 . S
O129 Cd130 2.203 . S
Cd130 O129 2.203 . S
Cd130 O132 2.411 . S
Cd130 O133 2.333 . S
Cd130 O134 2.352 . S
Cd130 O138 2.277 . S
Cd130 O139 2.356 . S
C131 O136 1.209 . S
C131 O138 1.226 . S
O132 Cd128 2.273 . S
O132 Cd130 2.411 . S
O132 C135 1.320 . S
O133 Cd130 2.333 . S
O133 C135 1.214 . S
O134 Cd130 2.352 . S
O134 C137 1.258 . S
C135 O132 1.320 . S
C135 O133 1.214 . S
O136 Cd128 2.277 . S
O136 C131 1.209 . S
C137 O134 1.258 . S
C137 O139 1.282 . S
O138 Cd130 2.277 . S
O138 C131 1.226 . S
O139 Cd130 2.356 . S
O139 C137 1.282 . S
C140 O141 1.306 . S
C140 O143 1.160 . S
O141 C140 1.306 . S
O141 Cd142 2.228 . S
Cd142 O141 2.228 . S
Cd142 O146 2.273 . S
Cd142 O150 2.277 . S
O143 C140 1.160 . S
O143 Cd144 2.203 . S
Cd144 O143 2.203 . S
Cd144 O146 2.411 . S
Cd144 O147 2.333 . S
Cd144 O148 2.352 . S
Cd144 O152 2.277 . S
Cd144 O153 2.356 . S
C145 O150 1.209 . S
C145 O152 1.226 . S
O146 Cd142 2.273 . S
O146 Cd144 2.411 . S
O146 C149 1.320 . S
O147 Cd144 2.333 . S
O147 C149 1.214 . S
O148 Cd144 2.352 . S
O148 C151 1.258 . S
C149 O146 1.320 . S
C149 O147 1.214 . S
O150 Cd142 2.277 . S
O150 C145 1.209 . S
C151 O148 1.258 . S
C151 O153 1.282 . S
O152 Cd144 2.277 . S
O152 C145 1.226 . S
O153 Cd144 2.356 . S
O153 C151 1.282 . S
C154 O155 1.306 . S
C154 O157 1.160 . S
O155 C154 1.306 . S
O155 Cd156 2.228 . S
Cd156 O155 2.228 . S
Cd156 O160 2.273 . S
Cd156 O164 2.277 . S
O157 C154 1.160 . S
O157 Cd158 2.203 . S
Cd158 O157 2.203 . S
Cd158 O160 2.411 . S
Cd158 O161 2.333 . S
Cd158 O162 2.352 . S
Cd158 O166 2.277 . S
Cd158 O167 2.356 . S
C159 O164 1.209 . S
C159 O166 1.226 . S
O160 Cd156 2.273 . S
O160 Cd158 2.411 . S
O160 C163 1.320 . S
O161 Cd158 2.333 . S
O161 C163 1.214 . S
O162 Cd158 2.352 . S
O162 C165 1.258 . S
C163 O160 1.320 . S
C163 O161 1.214 . S
O164 Cd156 2.277 . S
O164 C159 1.209 . S
C165 O162 1.258 . S
C165 O167 1.282 . S
O166 Cd158 2.277 . S
O166 C159 1.226 . S
O167 Cd158 2.356 . S
O167 C165 1.282 . S
C168 O169 1.306 . S
C168 O171 1.160 . S
O169 C168 1.306 . S
O169 Cd170 2.228 . S
Cd170 O169 2.228 . S
Cd170 O174 2.273 . S
Cd170 O178 2.277 . S
O171 C168 1.160 . S
O171 Cd172 2.203 . S
Cd172 O171 2.203 . S
Cd172 O174 2.411 . S
Cd172 O175 2.333 . S
Cd172 O176 2.352 . S
Cd172 O180 2.277 . S
Cd172 O181 2.356 . S
C173 O178 1.209 . S
C173 O180 1.226 . S
O174 Cd170 2.273 . S
O174 Cd172 2.411 . S
O174 C177 1.320 . S
O175 Cd172 2.333 . S
O175 C177 1.214 . S
O176 Cd172 2.352 . S
O176 C179 1.258 . S
C177 O174 1.320 . S
C177 O175 1.214 . S
O178 Cd170 2.277 . S
O178 C173 1.209 . S
C179 O176 1.258 . S
C179 O181 1.282 . S
O180 Cd172 2.277 . S
O180 C173 1.226 . S
O181 Cd172 2.356 . S
O181 C179 1.282 . S
C182 O183 1.306 . S
C182 O185 1.160 . S
O183 C182 1.306 . S
O183 Cd184 2.228 . S
Cd184 O183 2.228 . S
Cd184 O188 2.273 . S
Cd184 O192 2.277 . S
O185 C182 1.160 . S
O185 Cd186 2.203 . S
Cd186 O185 2.203 . S
Cd186 O188 2.411 . S
Cd186 O189 2.333 . S
Cd186 O190 2.352 . S
Cd186 O194 2.277 . S
Cd186 O195 2.356 . S
C187 O192 1.209 . S
C187 O194 1.226 . S
O188 Cd184 2.273 . S
O188 Cd186 2.411 . S
O188 C191 1.320 . S
O189 Cd186 2.333 . S
O189 C191 1.214 . S
O190 Cd186 2.352 . S
O190 C193 1.258 . S
C191 O188 1.320 . S
C191 O189 1.214 . S
O192 Cd184 2.277 . S
O192 C187 1.209 . S
C193 O190 1.258 . S
C193 O195 1.282 . S
O194 Cd186 2.277 . S
O194 C187 1.226 . S
O195 Cd186 2.356 . S
O195 C193 1.282 . S
C196 O197 1.306 . S
C196 O199 1.160 . S
O197 C196 1.306 . S
O197 Cd198 2.228 . S
Cd198 O197 2.228 . S
Cd198 O202 2.273 . S
Cd198 O206 2.277 . S
O199 C196 1.160 . S
O199 Cd200 2.203 . S
Cd200 O199 2.203 . S
Cd200 O202 2.411 . S
Cd200 O203 2.333 . S
Cd200 O204 2.352 . S
Cd200 O208 2.277 . S
Cd200 O209 2.356 . S
C201 O206 1.209 . S
C201 O208 1.226 . S
O202 Cd198 2.273 . S
O202 Cd200 2.411 . S
O202 C205 1.320 . S
O203 Cd200 2.333 . S
O203 C205 1.214 . S
O204 Cd200 2.352 . S
O204 C207 1.258 . S
C205 O202 1.320 . S
C205 O203 1.214 . S
O206 Cd198 2.277 . S
O206 C201 1.209 . S
C207 O204 1.258 . S
C207 O209 1.282 . S
O208 Cd200 2.277 . S
O208 C201 1.226 . S
O209 Cd200 2.356 . S
O209 C207 1.282 . S
C210 O211 1.306 . S
C210 O213 1.160 . S
O211 C210 1.306 . S
O211 Cd212 2.228 . S
Cd212 O211 2.228 . S
Cd212 O216 2.273 . S
Cd212 O220 2.277 . S
O213 C210 1.160 . S
O213 Cd214 2.203 . S
Cd214 O213 2.203 . S
Cd214 O216 2.411 . S
Cd214 O217 2.333 . S
Cd214 O218 2.352 . S
Cd214 O222 2.277 . S
Cd214 O223 2.356 . S
C215 O220 1.209 . S
C215 O222 1.226 . S
O216 Cd212 2.273 . S
O216 Cd214 2.411 . S
O216 C219 1.320 . S
O217 Cd214 2.333 . S
O217 C219 1.214 . S
O218 Cd214 2.352 . S
O218 C221 1.258 . S
C219 O216 1.320 . S
C219 O217 1.214 . S
O220 Cd212 2.277 . S
O220 C215 1.209 . S
C221 O218 1.258 . S
C221 O223 1.282 . S
O222 Cd214 2.277 . S
O222 C215 1.226 . S
O223 Cd214 2.356 . S
O223 C221 1.282 . S
C224 O225 1.306 . S
C224 O227 1.160 . S
O225 C224 1.306 . S
O225 Cd226 2.228 . S
Cd226 O225 2.228 . S
Cd226 O230 2.273 . S
Cd226 O234 2.277 . S
O227 C224 1.160 . S
O227 Cd228 2.203 . S
Cd228 O227 2.203 . S
Cd228 O230 2.411 . S
Cd228 O231 2.333 . S
Cd228 O232 2.352 . S
Cd228 O236 2.277 . S
Cd228 O237 2.356 . S
C229 O234 1.209 . S
C229 O236 1.226 . S
O230 Cd226 2.273 . S
O230 Cd228 2.411 . S
O230 C233 1.320 . S
O231 Cd228 2.333 . S
O231 C233 1.214 . S
O232 Cd228 2.352 . S
O232 C235 1.258 . S
C233 O230 1.320 . S
C233 O231 1.214 . S
O234 Cd226 2.277 . S
O234 C229 1.209 . S
C235 O232 1.258 . S
C235 O237 1.282 . S
O236 Cd228 2.277 . S
O236 C229 1.226 . S
O237 Cd228 2.356 . S
O237 C235 1.282 . S
C238 O239 1.306 . S
C238 O241 1.160 . S
O239 C238 1.306 . S
O239 Cd240 2.228 . S
Cd240 O239 2.228 . S
Cd240 O244 2.273 . S
Cd240 O248 2.277 . S
O241 C238 1.160 . S
O241 Cd242 2.203 . S
Cd242 O241 2.203 . S
Cd242 O244 2.411 . S
Cd242 O245 2.333 . S
Cd242 O246 2.352 . S
Cd242 O250 2.277 . S
Cd242 O251 2.356 . S
C243 O248 1.209 . S
C243 O250 1.226 . S
O244 Cd240 2.273 . S
O244 Cd242 2.411 . S
O244 C247 1.320 . S
O245 Cd242 2.333 . S
O245 C247 1.214 . S
O246 Cd242 2.352 . S
O246 C249 1.258 . S
C247 O244 1.320 . S
C247 O245 1.214 . S
O248 Cd240 2.277 . S
O248 C243 1.209 . S
C249 O246 1.258 . S
C249 O251 1.282 . S
O250 Cd242 2.277 . S
O250 C243 1.226 . S
O251 Cd242 2.356 . S
O251 C249 1.282 . S
C252 O253 1.306 . S
C252 O255 1.160 . S
O253 C252 1.306 . S
O253 Cd254 2.228 . S
Cd254 O253 2.228 . S
Cd254 O258 2.273 . S
Cd254 O262 2.277 . S
O255 C252 1.160 . S
O255 Cd256 2.203 . S
Cd256 O255 2.203 . S
Cd256 O258 2.411 . S
Cd256 O259 2.333 . S
Cd256 O260 2.352 . S
Cd256 O264 2.277 . S
Cd256 O265 2.356 . S
C257 O262 1.209 . S
C257 O264 1.226 . S
O258 Cd254 2.273 . S
O258 Cd256 2.411 . S
O258 C261 1.320 . S
O259 Cd256 2.333 . S
O259 C261 1.214 . S
O260 Cd256 2.352 . S
O260 C263 1.258 . S
C261 O258 1.320 . S
C261 O259 1.214 . S
O262 Cd254 2.277 . S
O262 C257 1.209 . S
C263 O260 1.258 . S
C263 O265 1.282 . S
O264 Cd256 2.277 . S
O264 C257 1.226 . S
O265 Cd256 2.356 . S
O265 C263 1.282 . S
C266 O267 1.306 . S
C266 O269 1.160 . S
O267 C266 1.306 . S
O267 Cd268 2.228 . S
Cd268 O267 2.228 . S
Cd268 O272 2.273 . S
Cd268 O276 2.277 . S
O269 C266 1.160 . S
O269 Cd270 2.203 . S
Cd270 O269 2.203 . S
Cd270 O272 2.411 . S
Cd270 O273 2.333 . S
Cd270 O274 2.352 . S
Cd270 O278 2.277 . S
Cd270 O279 2.356 . S
C271 O276 1.209 . S
C271 O278 1.226 . S
O272 Cd268 2.273 . S
O272 Cd270 2.411 . S
O272 C275 1.320 . S
O273 Cd270 2.333 . S
O273 C275 1.214 . S
O274 Cd270 2.352 . S
O274 C277 1.258 . S
C275 O272 1.320 . S
C275 O273 1.214 . S
O276 Cd268 2.277 . S
O276 C271 1.209 . S
C277 O274 1.258 . S
C277 O279 1.282 . S
O278 Cd270 2.277 . S
O278 C271 1.226 . S
O279 Cd270 2.356 . S
O279 C277 1.282 . S
C280 O281 1.306 . S
C280 O283 1.160 . S
O281 C280 1.306 . S
O281 Cd282 2.228 . S
Cd282 O281 2.228 . S
Cd282 O286 2.273 . S
Cd282 O290 2.277 . S
O283 C280 1.160 . S
O283 Cd284 2.203 . S
Cd284 O283 2.203 . S
Cd284 O286 2.411 . S
Cd284 O287 2.333 . S
Cd284 O288 2.352 . S
Cd284 O292 2.277 . S
Cd284 O293 2.356 . S
C285 O290 1.209 . S
C285 O292 1.226 . S
O286 Cd282 2.273 . S
O286 Cd284 2.411 . S
O286 C289 1.320 . S
O287 Cd284 2.333 . S
O287 C289 1.214 . S
O288 Cd284 2.352 . S
O288 C291 1.258 . S
C289 O286 1.320 . S
C289 O287 1.214 . S
O290 Cd282 2.277 . S
O290 C285 1.209 . S
C291 O288 1.258 . S
C291 O293 1.282 . S
O292 Cd284 2.277 . S
O292 C285 1.226 . S
O293 Cd284 2.356 . S
O293 C291 1.282 . S
C294 O295 1.306 . S
C294 O297 1.160 . S
O295 C294 1.306 . S
O295 Cd296 2.228 . S
Cd296 O295 2.228 . S
Cd296 O300 2.273 . S
Cd296 O304 2.277 . S
O297 C294 1.160 . S
O297 Cd298 2.203 . S
Cd298 O297 2.203 . S
Cd298 O300 2.411 . S
Cd298 O301 2.333 . S
Cd298 O302 2.352 . S
Cd298 O306 2.277 . S
Cd298 O307 2.356 . S
C299 O304 1.209 . S
C299 O306 1.226 . S
O300 Cd296 2.273 . S
O300 Cd298 2.411 . S
O300 C303 1.320 . S
O301 Cd298 2.333 . S
O301 C303 1.214 . S
O302 Cd298 2.352 . S
O302 C305 1.258 . S
C303 O300 1.320 . S
C303 O301 1.214 . S
O304 Cd296 2.277 . S
O304 C299 1.209 . S
C305 O302 1.258 . S
C305 O307 1.282 . S
O306 Cd298 2.277 . S
O306 C299 1.226 . S
O307 Cd298 2.356 . S
O307 C305 1.282 . S
C308 O309 1.306 . S
C308 O311 1.160 . S
O309 C308 1.306 . S
O309 Cd310 2.228 . S
Cd310 O309 2.228 . S
Cd310 O314 2.273 . S
Cd310 O318 2.277 . S
O311 C308 1.160 . S
O311 Cd312 2.203 . S
Cd312 O311 2.203 . S
Cd312 O314 2.411 . S
Cd312 O315 2.333 . S
Cd312 O316 2.352 . S
Cd312 O320 2.277 . S
Cd312 O321 2.356 . S
C313 O318 1.209 . S
C313 O320 1.226 . S
O314 Cd310 2.273 . S
O314 Cd312 2.411 . S
O314 C317 1.320 . S
O315 Cd312 2.333 . S
O315 C317 1.214 . S
O316 Cd312 2.352 . S
O316 C319 1.258 . S
C317 O314 1.320 . S
C317 O315 1.214 . S
O318 Cd310 2.277 . S
O318 C313 1.209 . S
C319 O316 1.258 . S
C319 O321 1.282 . S
O320 Cd312 2.277 . S
O320 C313 1.226 . S
O321 Cd312 2.356 . S
O321 C319 1.282 . S
C322 O323 1.306 . S
C322 O325 1.160 . S
O323 C322 1.306 . S
O323 Cd324 2.228 . S
Cd324 O323 2.228 . S
Cd324 O328 2.273 . S
Cd324 O332 2.277 . S
O325 C322 1.160 . S
O325 Cd326 2.203 . S
Cd326 O325 2.203 . S
Cd326 O328 2.411 . S
Cd326 O329 2.333 . S
Cd326 O330 2.352 . S
Cd326 O334 2.277 . S
Cd326 O335 2.356 . S
C327 O332 1.209 . S
C327 O334 1.226 . S
O328 Cd324 2.273 . S
O328 Cd326 2.411 . S
O328 C331 1.320 . S
O329 Cd326 2.333 . S
O329 C331 1.214 . S
O330 Cd326 2.352 . S
O330 C333 1.258 . S
C331 O328 1.320 . S
C331 O329 1.214 . S
O332 Cd324 2.277 . S
O332 C327 1.209 . S
C333 O330 1.258 . S
C333 O335 1.282 . S
O334 Cd326 2.277 . S
O334 C327 1.226 . S
O335 Cd326 2.356 . S
O335 C333 1.282 . S
C308 C11 2.337 . S
C14 C235 2.379 . S
C322 C28 2.362 . S
C305 C53 2.479 . S
C263 C67 2.479 . S
C266 C70 2.362 . S
C291 C84 2.379 . S
C109 C238 2.337 . S
C182 C112 2.330 . S
C207 C137 2.489 . S
C140 C210 2.330 . S
C165 C179 2.471 . S
C98 C196 2.301 1_565 S
C221 C56 2.433 1_655 S
C81 C168 2.435 1_545 S
C193 C95 2.411 1_455 S
C151 C25 2.411 1_565 S
C39 C154 2.435 1_655 S
C42 C123 2.433 1_565 S
C0 C126 2.301 1_455 S
C280 C294 2.297 1_556 S
C319 C249 2.545 1_554 S
C252 C224 2.297 1_556 S
C333 C277 2.456 1_554 S
C5 C117 1.408 . S
C135 C23 1.558 . S
C37 C145 1.389 . S
C47 C163 1.458 . S
C61 C177 1.458 . S
C79 C187 1.389 . S
C205 C93 1.558 . S
C215 C103 1.408 . S
C121 C233 1.468 . S
C131 C327 1.249 . S
C303 C149 1.630 . S
C313 C159 1.422 . S
C243 C173 1.422 . S
C261 C191 1.630 . S
C201 C271 1.249 . S
C219 C289 1.468 . S
C9 C229 1.487 . S
C247 C65 1.432 . S
C257 C75 1.329 . S
C275 C89 1.571 . S
C285 C107 1.487 . S
C299 C33 1.329 . S
C51 C317 1.432 . S
C331 C19 1.571 . S
