# Generated by pormake.
# Topology lcs, (4)-cn, num edge types: 1
# Building blocks:
#     Node 0, Type 0, BuildingBlock: QUQFOY_clean_sbu_1, # of connection points: 4
#     Node 1, Type 0, BuildingBlock: QUQFOY_clean_sbu_1, # of connection points: 4
#     Node 2, Type 0, BuildingBlock: QUQFOY_clean_sbu_1, # of connection points: 4
#     Node 3, Type 0, BuildingBlock: QUQFOY_clean_sbu_1, # of connection points: 4
#     Node 4, Type 0, BuildingBlock: QUQFOY_clean_sbu_1, # of connection points: 4
#     Node 5, Type 0, BuildingBlock: QUQFOY_clean_sbu_1, # of connection points: 4
#     Node 6, Type 0, BuildingBlock: QUQFOY_clean_sbu_1, # of connection points: 4
#     Node 7, Type 0, BuildingBlock: QUQFOY_clean_sbu_1, # of connection points: 4
#     Node 8, Type 0, BuildingBlock: QUQFOY_clean_sbu_1, # of connection points: 4
#     Node 9, Type 0, BuildingBlock: QUQFOY_clean_sbu_1, # of connection points: 4
#     Node 10, Type 0, BuildingBlock: QUQFOY_clean_sbu_1, # of connection points: 4
#     Node 11, Type 0, BuildingBlock: QUQFOY_clean_sbu_1, # of connection points: 4
#     Node 12, Type 0, BuildingBlock: QUQFOY_clean_sbu_1, # of connection points: 4
#     Node 13, Type 0, BuildingBlock: QUQFOY_clean_sbu_1, # of connection points: 4
#     Node 14, Type 0, BuildingBlock: QUQFOY_clean_sbu_1, # of connection points: 4
#     Node 15, Type 0, BuildingBlock: QUQFOY_clean_sbu_1, # of connection points: 4
#     Node 16, Type 0, BuildingBlock: QUQFOY_clean_sbu_1, # of connection points: 4
#     Node 17, Type 0, BuildingBlock: QUQFOY_clean_sbu_1, # of connection points: 4
#     Node 18, Type 0, BuildingBlock: QUQFOY_clean_sbu_1, # of connection points: 4
#     Node 19, Type 0, BuildingBlock: QUQFOY_clean_sbu_1, # of connection points: 4
#     Node 20, Type 0, BuildingBlock: QUQFOY_clean_sbu_1, # of connection points: 4
#     Node 21, Type 0, BuildingBlock: QUQFOY_clean_sbu_1, # of connection points: 4
#     Node 22, Type 0, BuildingBlock: QUQFOY_clean_sbu_1, # of connection points: 4
#     Node 23, Type 0, BuildingBlock: QUQFOY_clean_sbu_1, # of connection points: 4
#     Edge 24, Type (0, 0), BuildingBlock: TEMPAE_clean_linker_10, # of connection points: 2
#     Edge 25, Type (0, 0), BuildingBlock: TEMPAE_clean_linker_10, # of connection points: 2
#     Edge 26, Type (0, 0), BuildingBlock: TEMPAE_clean_linker_10, # of connection points: 2
#     Edge 27, Type (0, 0), BuildingBlock: TEMPAE_clean_linker_10, # of connection points: 2
#     Edge 28, Type (0, 0), BuildingBlock: TEMPAE_clean_linker_10, # of connection points: 2
#     Edge 29, Type (0, 0), BuildingBlock: TEMPAE_clean_linker_10, # of connection points: 2
#     Edge 30, Type (0, 0), BuildingBlock: TEMPAE_clean_linker_10, # of connection points: 2
#     Edge 31, Type (0, 0), BuildingBlock: TEMPAE_clean_linker_10, # of connection points: 2
#     Edge 32, Type (0, 0), BuildingBlock: TEMPAE_clean_linker_10, # of connection points: 2
#     Edge 33, Type (0, 0), BuildingBlock: TEMPAE_clean_linker_10, # of connection points: 2
#     Edge 34, Type (0, 0), BuildingBlock: TEMPAE_clean_linker_10, # of connection points: 2
#     Edge 35, Type (0, 0), BuildingBlock: TEMPAE_clean_linker_10, # of connection points: 2
#     Edge 36, Type (0, 0), BuildingBlock: TEMPAE_clean_linker_10, # of connection points: 2
#     Edge 37, Type (0, 0), BuildingBlock: TEMPAE_clean_linker_10, # of connection points: 2
#     Edge 38, Type (0, 0), BuildingBlock: TEMPAE_clean_linker_10, # of connection points: 2
#     Edge 39, Type (0, 0), BuildingBlock: TEMPAE_clean_linker_10, # of connection points: 2
#     Edge 40, Type (0, 0), BuildingBlock: TEMPAE_clean_linker_10, # of connection points: 2
#     Edge 41, Type (0, 0), BuildingBlock: TEMPAE_clean_linker_10, # of connection points: 2
#     Edge 42, Type (0, 0), BuildingBlock: TEMPAE_clean_linker_10, # of connection points: 2
#     Edge 43, Type (0, 0), BuildingBlock: TEMPAE_clean_linker_10, # of connection points: 2
#     Edge 44, Type (0, 0), BuildingBlock: TEMPAE_clean_linker_10, # of connection points: 2
#     Edge 45, Type (0, 0), BuildingBlock: TEMPAE_clean_linker_10, # of connection points: 2
#     Edge 46, Type (0, 0), BuildingBlock: TEMPAE_clean_linker_10, # of connection points: 2
#     Edge 47, Type (0, 0), BuildingBlock: TEMPAE_clean_linker_10, # of connection points: 2
#     Edge 48, Type (0, 0), BuildingBlock: TEMPAE_clean_linker_10, # of connection points: 2
#     Edge 49, Type (0, 0), BuildingBlock: TEMPAE_clean_linker_10, # of connection points: 2
#     Edge 50, Type (0, 0), BuildingBlock: TEMPAE_clean_linker_10, # of connection points: 2
#     Edge 51, Type (0, 0), BuildingBlock: TEMPAE_clean_linker_10, # of connection points: 2
#     Edge 52, Type (0, 0), BuildingBlock: TEMPAE_clean_linker_10, # of connection points: 2
#     Edge 53, Type (0, 0), BuildingBlock: TEMPAE_clean_linker_10, # of connection points: 2
#     Edge 54, Type (0, 0), BuildingBlock: TEMPAE_clean_linker_10, # of connection points: 2
#     Edge 55, Type (0, 0), BuildingBlock: TEMPAE_clean_linker_10, # of connection points: 2
#     Edge 56, Type (0, 0), BuildingBlock: TEMPAE_clean_linker_10, # of connection points: 2
#     Edge 57, Type (0, 0), BuildingBlock: TEMPAE_clean_linker_10, # of connection points: 2
#     Edge 58, Type (0, 0), BuildingBlock: TEMPAE_clean_linker_10, # of connection points: 2
#     Edge 59, Type (0, 0), BuildingBlock: TEMPAE_clean_linker_10, # of connection points: 2
#     Edge 60, Type (0, 0), BuildingBlock: TEMPAE_clean_linker_10, # of connection points: 2
#     Edge 61, Type (0, 0), BuildingBlock: TEMPAE_clean_linker_10, # of connection points: 2
#     Edge 62, Type (0, 0), BuildingBlock: TEMPAE_clean_linker_10, # of connection points: 2
#     Edge 63, Type (0, 0), BuildingBlock: TEMPAE_clean_linker_10, # of connection points: 2
#     Edge 64, Type (0, 0), BuildingBlock: TEMPAE_clean_linker_10, # of connection points: 2
#     Edge 65, Type (0, 0), BuildingBlock: TEMPAE_clean_linker_10, # of connection points: 2
#     Edge 66, Type (0, 0), BuildingBlock: TEMPAE_clean_linker_10, # of connection points: 2
#     Edge 67, Type (0, 0), BuildingBlock: TEMPAE_clean_linker_10, # of connection points: 2
#     Edge 68, Type (0, 0), BuildingBlock: TEMPAE_clean_linker_10, # of connection points: 2
#     Edge 69, Type (0, 0), BuildingBlock: TEMPAE_clean_linker_10, # of connection points: 2
#     Edge 70, Type (0, 0), BuildingBlock: TEMPAE_clean_linker_10, # of connection points: 2
#     Edge 71, Type (0, 0), BuildingBlock: TEMPAE_clean_linker_10, # of connection points: 2
# Relax obj value: 0.057
# Max RMSD: 0.117
# Mean RMSD: 0.113
data_MOF--net-lcs--node1-QUQFOY_clean_sbu_1--edge1-TEMPAE_clean_linker_10
_symmetry_space_group_name_H-M    P1
_symmetry_Int_Tables_number       1
_symmetry_cell_setting            triclinic
loop_
_symmetry_equiv_pos_as_xyz
'x, y, z'
_cell_length_a     51.887842
_cell_length_b     51.88474
_cell_length_c     51.92241
_cell_angle_alpha  94.53857
_cell_angle_beta   94.538612
_cell_angle_gamma 94.573033
loop_
_atom_site_label
_atom_site_type_symbol
_atom_site_fract_x
_atom_site_fract_y
_atom_site_fract_z
_atom_type_partial_charge
O0 O 0.05127 0.25801 0.3803 0.0
Cd1 Cd 0.02163 0.2659 0.35371 0.0
Cd2 Cd 0.99322 0.25753 0.395 0.0
O3 O 0.02915 0.25607 0.41489 0.0
O4 O 0.03844 0.28246 0.32508 0.0
O5 O 0.01403 0.3032 0.3515 0.0
C6 C 0.02846 0.30353 0.33232 0.0
C7 C 0.95989 0.27949 0.41237 0.0
C8 C 0.05045 0.25512 0.40436 0.0
C9 C 0.9841 0.21892 0.34777 0.0
O10 O 0.98052 0.22462 0.37136 0.0
O11 O 0.99841 0.23412 0.33581 0.0
O12 O 0.96645 0.25796 0.42062 0.0
O13 O 0.97317 0.28948 0.39503 0.0
O14 O 0.0527 0.72438 0.6388 0.0
Cd15 Cd 0.02313 0.73676 0.65984 0.0
Cd16 Cd 0.01156 0.75885 0.61375 0.0
O17 O 0.03981 0.73642 0.6003 0.0
O18 O 0.02279 0.71526 0.69007 0.0
O19 O 0.99006 0.71357 0.65984 0.0
C20 C 1.00001 0.70534 0.68096 0.0
C21 C 0.97307 0.76435 0.58889 0.0
C22 C 0.05564 0.72523 0.61476 0.0
C23 C 0.02867 0.7943 0.66258 0.0
O24 O 0.02434 0.79143 0.63807 0.0
O25 O 0.02737 0.77471 0.67577 0.0
O26 O 0.9951 0.77502 0.58366 0.0
O27 O 0.97296 0.74894 0.60726 0.0
O28 O 0.55978 0.76409 0.88459 0.0
Cd29 Cd 0.53004 0.77162 0.85792 0.0
Cd30 Cd 0.50152 0.76246 0.89931 0.0
O31 O 0.53761 0.76123 0.91907 0.0
O32 O 0.54675 0.78779 0.82899 0.0
O33 O 0.52205 0.80875 0.85489 0.0
C34 C 0.53642 0.80882 0.83566 0.0
C35 C 0.46797 0.7841 0.9169 0.0
C36 C 0.55896 0.76076 0.90857 0.0
C37 C 0.4932 0.72401 0.85189 0.0
O38 O 0.4893 0.72955 0.87544 0.0
O39 O 0.50738 0.73947 0.84008 0.0
O40 O 0.47477 0.76261 0.92505 0.0
O41 O 0.48108 0.79418 0.89949 0.0
O42 O 0.5569 0.22157 0.1405 0.0
Cd43 Cd 0.52759 0.23432 0.16154 0.0
Cd44 Cd 0.51483 0.2545 0.11581 0.0
O45 O 0.54113 0.23 0.10167 0.0
O46 O 0.52818 0.21312 0.19206 0.0
O47 O 0.49501 0.21059 0.16226 0.0
C48 C 0.50563 0.20242 0.18312 0.0
C49 C 0.47364 0.25807 0.09542 0.0
C50 C 0.55815 0.22028 0.11608 0.0
C51 C 0.53396 0.29186 0.1619 0.0
O52 O 0.53015 0.28807 0.13735 0.0
O53 O 0.53149 0.2729 0.17589 0.0
O54 O 0.49434 0.26621 0.08527 0.0
O55 O 0.4763 0.24639 0.11644 0.0
O56 O 0.04696 0.71135 0.12503 0.0
Cd57 Cd 0.03526 0.74065 0.10324 0.0
Cd58 Cd 0.01253 0.7532 0.14896 0.0
O59 O 0.0347 0.72509 0.16317 0.0
O60 O 0.05805 0.74073 0.07397 0.0
O61 O 0.05859 0.7737 0.10374 0.0
C62 C 0.06779 0.76352 0.08324 0.0
C63 C 0.00607 0.7915 0.17372 0.0
C64 C 0.04588 0.70891 0.14912 0.0
C65 C 0.97774 0.73555 0.09957 0.0
O66 O 0.98041 0.74028 0.12406 0.0
O67 O 0.99749 0.73645 0.08657 0.0
O68 O 0.99543 0.76933 0.17859 0.0
O69 O 0.02199 0.79187 0.15582 0.0
O70 O 0.50653 0.70943 0.38108 0.0
Cd71 Cd 0.49839 0.73938 0.40726 0.0
Cd72 Cd 0.50652 0.7673 0.36533 0.0
O73 O 0.50833 0.73106 0.34615 0.0
O74 O 0.48219 0.72304 0.4364 0.0
O75 O 0.46101 0.74674 0.40962 0.0
C76 C 0.46099 0.73279 0.42916 0.0
C77 C 0.48433 0.80016 0.34715 0.0
C78 C 0.50949 0.70995 0.357 0.0
C79 C 0.54506 0.77749 0.41253 0.0
O80 O 0.53932 0.78068 0.38885 0.0
O81 O 0.53003 0.76319 0.42468 0.0
O82 O 0.50583 0.79342 0.33899 0.0
O83 O 0.47449 0.78729 0.36486 0.0
O84 O 0.5397 0.21529 0.62378 0.0
Cd85 Cd 0.52736 0.24542 0.60344 0.0
Cd86 Cd 0.50578 0.25638 0.64989 0.0
O87 O 0.52836 0.22792 0.66262 0.0
O88 O 0.54854 0.24615 0.573 0.0
O89 O 0.5509 0.27831 0.60391 0.0
C90 C 0.5588 0.26869 0.58249 0.0
C91 C 0.50083 0.29472 0.67521 0.0
C92 C 0.53926 0.21216 0.64781 0.0
C93 C 0.46978 0.24069 0.60122 0.0
O94 O 0.47288 0.2442 0.62579 0.0
O95 O 0.48927 0.24218 0.5879 0.0
O96 O 0.4902 0.27265 0.68043 0.0
O97 O 0.51594 0.2949 0.65659 0.0
O98 O 0.0069 0.21127 0.88239 0.0
Cd99 Cd 0.99985 0.24093 0.90934 0.0
Cd100 Cd 0.00842 0.26948 0.86808 0.0
O101 O 0.00896 0.23354 0.84792 0.0
O102 O 0.98354 0.22412 0.93813 0.0
O103 O 0.9628 0.24912 0.91236 0.0
C104 C 0.96257 0.23452 0.9314 0.0
C105 C 0.98701 0.30341 0.85112 0.0
C106 C 0.00962 0.21214 0.85831 0.0
C107 C 0.04766 0.27731 0.91489 0.0
O108 O 0.04178 0.28124 0.89142 0.0
O109 O 0.03228 0.26332 0.92697 0.0
O110 O 0.0083 0.29647 0.84264 0.0
O111 O 0.97695 0.29024 0.86851 0.0
O112 O 0.39242 0.055 0.26639 0.0
Cd113 Cd 0.36067 0.02968 0.27 0.0
Cd114 Cd 0.39539 0.99358 0.2572 0.0
O115 O 0.41924 0.02698 0.25265 0.0
O116 O 0.33712 0.05189 0.2885 0.0
O117 O 0.35163 0.01682 0.30416 0.0
C118 C 0.33809 0.03656 0.30683 0.0
C119 C 0.41209 0.95861 0.27722 0.0
C120 C 0.41399 0.05031 0.25783 0.0
C121 C 0.3462 0.99486 0.22179 0.0
O122 O 0.36602 0.98314 0.22818 0.0
O123 O 0.34065 0.01474 0.23544 0.0
O124 O 0.41714 0.96349 0.25411 0.0
O125 O 0.39824 0.97421 0.2896 0.0
O126 O 0.22228 0.14256 0.55163 0.0
Cd127 Cd 0.23482 0.16315 0.52176 0.0
Cd128 Cd 0.25694 0.11732 0.5108 0.0
O129 O 0.23406 0.10398 0.53868 0.0
O130 O 0.21288 0.19297 0.52011 0.0
O131 O 0.21192 0.16173 0.4884 0.0
C132 C 0.20327 0.18298 0.49753 0.0
C133 C 0.26269 0.09226 0.47257 0.0
C134 C 0.22285 0.11846 0.55445 0.0
C135 C 0.29237 0.1662 0.52723 0.0
O136 O 0.28954 0.14162 0.52358 0.0
O137 O 0.27274 0.17931 0.52555 0.0
O138 O 0.27297 0.08698 0.49473 0.0
O139 O 0.24749 0.11082 0.47221 0.0
O140 O 0.12418 0.04281 0.71169 0.0
Cd141 Cd 0.10452 0.02946 0.7418 0.0
Cd142 Cd 0.15017 0.00976 0.75299 0.0
O143 O 0.16336 0.03454 0.72662 0.0
O144 O 0.07357 0.04986 0.74361 0.0
O145 O 0.10538 0.05253 0.77494 0.0
C146 C 0.08356 0.06013 0.76596 0.0
C147 C 0.17078 0.00731 0.79412 0.0
C148 C 0.14857 0.04433 0.70999 0.0
C149 C 0.10447 0.97188 0.73561 0.0
O150 O 0.12907 0.97573 0.73828 0.0
O151 O 0.09058 0.99083 0.73857 0.0
O152 O 0.18115 0.99918 0.77356 0.0
O153 O 0.14937 0.01833 0.7913 0.0
O154 O 0.21395 0.88159 1.00175 0.0
Cd155 Cd 0.24067 0.91133 0.99542 0.0
Cd156 Cd 0.27574 0.87509 0.00759 0.0
O157 O 0.24135 0.85285 0.0124 0.0
O158 O 0.22109 0.9377 0.97806 0.0
O159 O 0.25038 0.91582 0.95908 0.0
C160 C 0.23358 0.93288 0.95799 0.0
C161 C 0.30976 0.85691 0.9871 0.0
C162 C 0.21821 0.85944 0.00923 0.0
C163 C 0.27792 0.92492 0.04248 0.0
O164 O 0.28787 0.90385 0.03679 0.0
O165 O 0.25881 0.93162 0.02851 0.0
O166 O 0.30465 0.85179 0.01012 0.0
O167 O 0.2948 0.87159 0.975 0.0
O168 O 0.26511 0.38344 0.05837 0.0
Cd169 Cd 0.27256 0.35695 0.02843 0.0
Cd170 Cd 0.26434 0.39885 1.00048 0.0
O171 O 0.26331 0.41834 0.03666 0.0
O172 O 0.28881 0.32781 0.04472 0.0
O173 O 0.30971 0.3542 0.02041 0.0
C174 C 0.30985 0.33479 0.03455 0.0
C175 C 0.28553 0.41691 0.96694 0.0
C176 C 0.26233 0.40757 0.05782 0.0
C177 C 0.22512 0.35197 0.99158 0.0
O178 O 0.23113 0.37556 0.98809 0.0
O179 O 0.2403 0.33964 0.00551 0.0
O180 O 0.26419 0.42501 0.97418 0.0
O181 O 0.2958 0.39932 0.97964 0.0
O182 O 0.71539 0.12245 0.03965 0.0
Cd183 Cd 0.74493 0.10224 0.02593 0.0
Cd184 Cd 0.75725 0.14875 0.00723 0.0
O185 O 0.73076 0.16173 0.03204 0.0
O186 O 0.74489 0.07035 0.04512 0.0
O187 O 0.77764 0.10078 0.04922 0.0
C188 C 0.76747 0.07902 0.05593 0.0
C189 C 0.79841 0.16965 0.00478 0.0
C190 C 0.71391 0.14687 0.04147 0.0
C191 C 0.73853 0.10384 0.96857 0.0
O192 O 0.74218 0.12836 0.97297 0.0
O193 O 0.74108 0.08935 0.98707 0.0
O194 O 0.77773 0.17999 0.99692 0.0
O195 O 0.79571 0.14806 0.01552 0.0
O196 O 0.14193 0.5505 0.22508 0.0
Cd197 Cd 0.16184 0.52073 0.23873 0.0
Cd198 Cd 0.1159 0.50941 0.25855 0.0
O199 O 0.10278 0.53594 0.23387 0.0
O200 O 0.19316 0.51963 0.21878 0.0
O201 O 0.16208 0.48755 0.21584 0.0
C202 C 0.18384 0.49705 0.20851 0.0
C203 C 0.09475 0.4684 0.26111 0.0
C204 C 0.11758 0.55241 0.22386 0.0
C205 C 0.16168 0.52768 0.29625 0.0
O206 O 0.1371 0.52431 0.29246 0.0
O207 O 0.17564 0.52484 0.27734 0.0
O208 O 0.08475 0.48916 0.26933 0.0
O209 O 0.11616 0.47094 0.25003 0.0
O210 O 0.76519 0.88841 0.55394 0.0
Cd211 Cd 0.77004 0.86047 0.52442 0.0
Cd212 Cd 0.76227 0.90111 0.49561 0.0
O213 O 0.76344 0.9224 0.53113 0.0
O214 O 0.78608 0.83289 0.54338 0.0
O215 O 0.80552 0.85343 0.51351 0.0
C216 C 0.80614 0.83663 0.53058 0.0
C217 C 0.78614 0.91464 0.4619 0.0
C218 C 0.76308 0.91255 0.55278 0.0
C219 C 0.72109 0.8562 0.48942 0.0
O220 O 0.72758 0.87941 0.48473 0.0
O221 O 0.73628 0.84394 0.50348 0.0
O222 O 0.76694 0.92685 0.46925 0.0
O223 O 0.79245 0.89508 0.47423 0.0
O224 O 0.87839 0.99718 0.20611 0.0
Cd225 Cd 0.90584 0.99268 0.23618 0.0
Cd226 Cd 0.86437 1.00013 0.26398 0.0
O227 O 0.84378 0.99855 0.22806 0.0
O228 O 0.93403 0.9771 0.21781 0.0
O229 O 0.91319 0.95733 0.24727 0.0
C230 C 0.93034 0.95699 0.23054 0.0
C231 C 0.85031 0.97654 0.29768 0.0
C232 C 0.85416 0.99901 0.20669 0.0
C233 C 0.90887 0.04177 0.27081 0.0
O234 O 0.88556 0.03506 0.27497 0.0
O235 O 0.92164 0.02664 0.25723 0.0
O236 O 0.83806 0.9955 0.2898 0.0
O237 O 0.8702 0.97026 0.28586 0.0
O238 O 0.21422 0.6267 0.54302 0.0
Cd239 Cd 0.24368 0.60569 0.53046 0.0
Cd240 Cd 0.25601 0.65108 0.50945 0.0
O241 O 0.22967 0.6654 0.53375 0.0
O242 O 0.24322 0.57495 0.55136 0.0
O243 O 0.27629 0.60494 0.55412 0.0
C244 C 0.26583 0.5838 0.56193 0.0
C245 C 0.29716 0.67151 0.50573 0.0
C246 C 0.21277 0.65109 0.54378 0.0
C247 C 0.2371 0.60447 0.47289 0.0
O248 O 0.24071 0.62908 0.47615 0.0
O249 O 0.23977 0.59092 0.49212 0.0
O250 O 0.27643 0.68151 0.49742 0.0
O251 O 0.29454 0.65062 0.51764 0.0
O252 O 0.37771 0.504 0.71306 0.0
Cd253 Cd 0.40707 0.49891 0.74114 0.0
Cd254 Cd 0.36746 0.50917 0.77184 0.0
O255 O 0.34508 0.50976 0.73715 0.0
O256 O 0.43282 0.48164 0.72061 0.0
O257 O 0.41414 0.46353 0.75237 0.0
C258 C 0.42971 0.46206 0.73419 0.0
C259 C 0.35228 0.48822 0.80686 0.0
C260 C 0.3541 0.50824 0.71503 0.0
C261 C 0.41498 0.54799 0.77543 0.0
O262 O 0.39222 0.54201 0.78169 0.0
O263 O 0.42587 0.53258 0.76032 0.0
O264 O 0.34404 0.50987 0.80064 0.0
O265 O 0.3685 0.47769 0.79252 0.0
O266 O 0.64043 0.05478 0.71926 0.0
Cd267 Cd 0.66159 0.02574 0.73273 0.0
Cd268 Cd 0.6161 0.0133 0.75347 0.0
O269 O 0.60181 0.03926 0.72873 0.0
O270 O 0.69276 0.02571 0.71246 0.0
O271 O 0.66274 0.99267 0.70987 0.0
C272 C 0.68413 1.00286 0.70236 0.0
C273 C 0.59606 0.97203 0.75726 0.0
C274 C 0.61599 0.05603 0.7184 0.0
C275 C 0.66216 0.03274 0.79035 0.0
O276 O 0.63758 0.02892 0.78693 0.0
O277 O 0.67586 0.03016 0.77122 0.0
O278 O 0.58569 0.99266 0.76524 0.0
O279 O 0.61709 0.97481 0.74561 0.0
O280 O 0.72804 0.64289 0.05241 0.0
Cd281 Cd 0.74142 0.66242 0.02218 0.0
Cd282 Cd 0.76057 0.61617 0.01089 0.0
O283 O 0.73588 0.6035 0.03766 0.0
O284 O 0.72147 0.69375 0.02075 0.0
O285 O 0.71796 0.66204 0.98929 0.0
C286 C 0.71078 0.68397 0.99849 0.0
C287 C 0.76272 0.59517 0.9698 0.0
C288 C 0.72632 0.61852 0.05428 0.0
C289 C 0.79904 0.66162 0.02778 0.0
O290 O 0.79486 0.63704 0.02522 0.0
O291 O 0.78028 0.67578 0.02498 0.0
O292 O 0.77083 0.58492 0.99044 0.0
O293 O 0.75182 0.61667 0.97253 0.0
O294 O 0.88578 0.5549 0.76112 0.0
Cd295 Cd 0.85888 0.52528 0.76848 0.0
Cd296 Cd 0.90006 0.49667 0.75984 0.0
O297 O 0.92019 0.53256 0.75875 0.0
O298 O 0.83011 0.54207 0.78484 0.0
O299 O 0.85597 0.51712 0.80553 0.0
C300 C 0.83687 0.53165 0.80579 0.0
C301 C 0.91721 0.46288 0.78132 0.0
C302 C 0.90981 0.55396 0.75808 0.0
C303 C 0.85303 0.48869 0.72087 0.0
O304 O 0.8765 0.48468 0.72671 0.0
O305 O 0.84107 0.50284 0.7362 0.0
O306 O 0.92551 0.46969 0.75991 0.0
O307 O 0.89993 0.47612 0.79145 0.0
O308 O 0.70975 0.38306 0.50314 0.0
Cd309 Cd 0.7397 0.40967 0.49592 0.0
Cd310 Cd 0.76768 0.3681 0.50396 0.0
O311 O 0.73163 0.34828 0.50482 0.0
O312 O 0.72349 0.43868 0.47939 0.0
O313 O 0.74815 0.41231 0.45893 0.0
C314 C 0.73392 0.43165 0.45852 0.0
C315 C 0.8013 0.35078 0.48238 0.0
C316 C 0.7104 0.35892 0.5058 0.0
C317 C 0.7763 0.41467 0.54343 0.0
O318 O 0.77991 0.39114 0.53733 0.0
O319 O 0.76239 0.42704 0.52828 0.0
O320 O 0.7943 0.3423 0.50365 0.0
O321 O 0.78832 0.36834 0.47242 0.0
O322 O 0.62711 0.54273 0.21142 0.0
Cd323 Cd 0.60719 0.52855 0.24102 0.0
Cd324 Cd 0.65313 0.50909 0.25235 0.0
O325 O 0.66628 0.53427 0.22619 0.0
O326 O 0.57599 0.54864 0.243 0.0
O327 O 0.60755 0.55104 0.27453 0.0
C328 C 0.58573 0.55862 0.26554 0.0
C329 C 0.67333 0.50632 0.29369 0.0
C330 C 0.6515 0.54432 0.20974 0.0
C331 C 0.60779 0.47097 0.23386 0.0
O332 O 0.63236 0.47505 0.2371 0.0
O333 O 0.59364 0.48973 0.2368 0.0
O334 O 0.68399 0.4985 0.2732 0.0
O335 O 0.65188 0.51725 0.29071 0.0
C336 C 0.05645 0.43807 0.26789 0.0
C337 C 0.08331 0.44267 0.26679 0.0
C338 C 0.04566 0.4148 0.27632 0.0
C339 C 0.06225 0.39622 0.28489 0.0
C340 C 0.08938 0.40065 0.28338 0.0
C341 C 0.09953 0.42362 0.27389 0.0
C342 C 0.01658 0.41038 0.27663 0.0
C343 C 0.10784 0.38175 0.29301 0.0
C344 C 0.03893 0.35149 0.33458 0.0
C345 C 0.03465 0.32757 0.31974 0.0
C346 C 0.04779 0.37403 0.32344 0.0
C347 C 0.05147 0.37275 0.2966 0.0
C348 C 0.04591 0.34882 0.28131 0.0
C349 C 0.0381 0.3264 0.29318 0.0
C350 C 0.05423 0.39895 0.34061 0.0
C351 C 0.04858 0.34682 0.2525 0.0
H352 H 0.04389 0.45279 0.26237 0.0
H353 H 0.12034 0.42733 0.27339 0.0
H354 H 0.00956 0.3909 0.26714 0.0
H355 H 0.01132 0.41097 0.29694 0.0
H356 H 0.00629 0.42525 0.26664 0.0
H357 H 0.12836 0.38792 0.29024 0.0
H358 H 0.10612 0.3799 0.31398 0.0
H359 H 0.10275 0.36223 0.28277 0.0
H360 H 0.03654 0.35233 0.35517 0.0
H361 H 0.03464 0.3079 0.28167 0.0
H362 H 0.04275 0.41442 0.33338 0.0
H363 H 0.07503 0.4056 0.34006 0.0
H364 H 0.05034 0.39668 0.36108 0.0
H365 H 0.03796 0.36188 0.24323 0.0
H366 H 0.04106 0.32745 0.24298 0.0
H367 H 0.06929 0.35035 0.24887 0.0
C368 C 0.94754 0.7978 0.56986 0.0
C369 C 0.94866 0.77216 0.57629 0.0
C370 C 0.92405 0.80693 0.56079 0.0
C371 C 0.90124 0.78971 0.55704 0.0
C372 C 0.90254 0.76338 0.56218 0.0
C373 C 0.92615 0.75504 0.57234 0.0
C374 C 0.92343 0.83537 0.55656 0.0
C375 C 0.8789 0.74416 0.55746 0.0
C376 C 0.83709 0.81945 0.5626 0.0
C377 C 0.82969 0.82328 0.53674 0.0
C378 C 0.86022 0.80838 0.56941 0.0
C379 C 0.87581 0.7999 0.54974 0.0
C380 C 0.86782 0.80274 0.52343 0.0
C381 C 0.84512 0.81497 0.51728 0.0
C382 C 0.86845 0.80672 0.59775 0.0
C383 C 0.88333 0.79304 0.50183 0.0
H384 H 0.96486 0.81118 0.5732 0.0
H385 H 0.92701 0.73517 0.57721 0.0
H386 H 0.91557 0.8377 0.53649 0.0
H387 H 0.91035 0.84444 0.56986 0.0
H388 H 0.94296 0.84611 0.56002 0.0
H389 H 0.88386 0.72388 0.55908 0.0
H390 H 0.86482 0.7487 0.5718 0.0
H391 H 0.86909 0.74556 0.53789 0.0
H392 H 0.82526 0.8261 0.57768 0.0
H393 H 0.83926 0.81775 0.49725 0.0
H394 H 0.88754 0.81789 0.60294 0.0
H395 H 0.87081 0.78629 0.6016 0.0
H396 H 0.85423 0.81441 0.61065 0.0
H397 H 0.90227 0.80475 0.50281 0.0
H398 H 0.87307 0.79413 0.48239 0.0
H399 H 0.88745 0.77262 0.50402 0.0
C400 C 0.45492 0.5787 0.78686 0.0
C401 C 0.42784 0.57389 0.78475 0.0
C402 C 0.46687 0.60327 0.79639 0.0
C403 C 0.4513 0.62353 0.80332 0.0
C404 C 0.42395 0.61895 0.80035 0.0
C405 C 0.41259 0.59415 0.7914 0.0
C406 C 0.49611 0.60732 0.79979 0.0
C407 C 0.40663 0.64014 0.80707 0.0
C408 C 0.47624 0.67805 0.8542 0.0
C409 C 0.48264 0.69845 0.83903 0.0
C410 C 0.46693 0.65337 0.84275 0.0
C411 C 0.46336 0.64905 0.81541 0.0
C412 C 0.46982 0.66952 0.79991 0.0
C413 C 0.47969 0.69395 0.81193 0.0
C414 C 0.46066 0.63197 0.85997 0.0
C415 C 0.46574 0.66576 0.77071 0.0
H416 H 0.46675 0.56309 0.78171 0.0
H417 H 0.39161 0.59068 0.78942 0.0
H418 H 0.50304 0.6242 0.78959 0.0
H419 H 0.5026 0.61174 0.82066 0.0
H420 H 0.50542 0.59 0.79235 0.0
H421 H 0.38578 0.63396 0.80169 0.0
H422 H 0.40927 0.64587 0.82822 0.0
H423 H 0.41203 0.65762 0.79702 0.0
H424 H 0.47884 0.68126 0.87516 0.0
H425 H 0.48465 0.70964 0.80013 0.0
H426 H 0.47086 0.61467 0.85429 0.0
H427 H 0.43954 0.62601 0.85755 0.0
H428 H 0.46625 0.63802 0.8808 0.0
H429 H 0.47614 0.64922 0.76332 0.0
H430 H 0.47256 0.68334 0.76142 0.0
H431 H 0.4448 0.66096 0.76466 0.0
C432 C 0.60114 0.20172 0.12122 0.0
C433 C 0.58043 0.20863 0.10481 0.0
C434 C 0.62305 0.19191 0.11116 0.0
C435 C 0.62427 0.18864 0.08398 0.0
C436 C 0.60334 0.19525 0.06726 0.0
C437 C 0.58171 0.20528 0.07787 0.0
C438 C 0.64501 0.18525 0.12965 0.0
C439 C 0.60382 0.19177 0.03817 0.0
C440 C 0.69055 0.18461 0.05798 0.0
C441 C 0.69147 0.15771 0.05321 0.0
C442 C 0.66882 0.19496 0.06802 0.0
C443 C 0.64738 0.17804 0.07314 0.0
C444 C 0.64819 0.1509 0.06838 0.0
C445 C 0.67025 0.14107 0.05863 0.0
C446 C 0.66879 0.22401 0.07316 0.0
C447 C 0.62567 0.13221 0.0734 0.0
H448 H 0.60047 0.20434 0.14206 0.0
H449 H 0.56584 0.21054 0.06504 0.0
H450 H 0.64827 0.16444 0.12611 0.0
H451 H 0.66325 0.19668 0.12625 0.0
H452 H 0.64117 0.18917 0.15028 0.0
H453 H 0.58589 0.19754 0.02783 0.0
H454 H 0.62074 0.20356 0.03214 0.0
H455 H 0.6061 0.17119 0.03194 0.0
H456 H 0.70682 0.19762 0.05387 0.0
H457 H 0.67064 0.12027 0.05485 0.0
H458 H 0.66622 0.22909 0.09391 0.0
H459 H 0.65223 0.23098 0.06163 0.0
H460 H 0.68703 0.23452 0.06828 0.0
H461 H 0.62196 0.13449 0.09418 0.0
H462 H 0.62918 0.11167 0.06827 0.0
H463 H 0.6078 0.13663 0.062 0.0
C464 C 0.12346 0.59604 0.20668 0.0
C465 C 0.10679 0.57486 0.21212 0.0
C466 C 0.11368 0.6181 0.19691 0.0
C467 C 0.08654 0.61895 0.19209 0.0
C468 C 0.06959 0.59754 0.19721 0.0
C469 C 0.0799 0.57582 0.20732 0.0
C470 C 0.1324 0.64062 0.19193 0.0
C471 C 0.04055 0.59757 0.19197 0.0
C472 C 0.05965 0.68477 0.18732 0.0
C473 C 0.05674 0.68624 0.16039 0.0
C474 C 0.06937 0.66301 0.19794 0.0
C475 C 0.076 0.64208 0.18123 0.0
C476 C 0.07298 0.6434 0.15406 0.0
C477 C 0.06357 0.66549 0.14399 0.0
C478 C 0.07264 0.66245 0.22704 0.0
C479 C 0.07957 0.6214 0.13557 0.0
H480 H 0.14426 0.59561 0.2105 0.0
H481 H 0.06687 0.55956 0.21144 0.0
H482 H 0.13022 0.6443 0.17115 0.0
H483 H 0.12794 0.6585 0.20328 0.0
H484 H 0.15293 0.63711 0.19716 0.0
H485 H 0.03002 0.57932 0.19679 0.0
H486 H 0.03354 0.61411 0.20351 0.0
H487 H 0.03554 0.60018 0.17122 0.0
H488 H 0.05445 0.70069 0.20013 0.0
H489 H 0.06122 0.6663 0.12315 0.0
H490 H 0.09322 0.66027 0.23339 0.0
H491 H 0.06089 0.64546 0.23296 0.0
H492 H 0.06673 0.68032 0.23736 0.0
H493 H 0.10039 0.61817 0.13904 0.0
H494 H 0.07559 0.62521 0.11494 0.0
H495 H 0.06818 0.60317 0.13904 0.0
C496 C 0.59039 0.79624 0.40982 0.0
C497 C 0.57037 0.78908 0.42518 0.0
C498 C 0.61494 0.80627 0.42105 0.0
C499 C 0.6195 0.80979 0.44837 0.0
C500 C 0.59934 0.80284 0.46406 0.0
C501 C 0.57505 0.79227 0.45226 0.0
C502 C 0.63603 0.81303 0.40364 0.0
C503 C 0.60336 0.80685 0.49326 0.0
C504 C 0.68991 0.81698 0.47654 0.0
C505 C 0.69509 0.84404 0.47939 0.0
C506 C 0.66526 0.8055 0.46678 0.0
C507 C 0.64523 0.82148 0.46031 0.0
C508 C 0.65019 0.8488 0.46382 0.0
C509 C 0.67512 0.85973 0.47303 0.0
C510 C 0.66083 0.77629 0.46278 0.0
C511 C 0.62924 0.86652 0.45759 0.0
H512 H 0.58704 0.79354 0.38886 0.0
H513 H 0.55965 0.78679 0.46421 0.0
H514 H 0.64215 0.8341 0.4066 0.0
H515 H 0.65333 0.80257 0.40867 0.0
H516 H 0.62964 0.80805 0.38278 0.0
H517 H 0.58574 0.80044 0.50268 0.0
H518 H 0.61963 0.79596 0.50044 0.0
H519 H 0.60875 0.82769 0.49936 0.0
H520 H 0.70529 0.80478 0.48142 0.0
H521 H 0.67889 0.88067 0.47554 0.0
H522 H 0.6558 0.77026 0.44188 0.0
H523 H 0.64422 0.76931 0.47332 0.0
H524 H 0.67818 0.7666 0.46948 0.0
H525 H 0.62323 0.86415 0.43649 0.0
H526 H 0.63576 0.88727 0.46313 0.0
H527 H 0.61185 0.86124 0.46782 0.0
C528 C 0.46797 0.32003 0.69562 0.0
C529 C 0.49327 0.3191 0.68812 0.0
C530 C 0.4589 0.34351 0.70483 0.0
C531 C 0.47586 0.36651 0.70758 0.0
C532 C 0.50191 0.3654 0.7014 0.0
C533 C 0.51016 0.34179 0.69117 0.0
C534 C 0.43073 0.34389 0.71022 0.0
C535 C 0.52087 0.38927 0.705 0.0
C536 C 0.4452 0.43016 0.70192 0.0
C537 C 0.44255 0.43821 0.7279 0.0
C538 C 0.4561 0.40695 0.6951 0.0
C539 C 0.46559 0.39191 0.71483 0.0
C540 C 0.46383 0.40049 0.7412 0.0
C541 C 0.45177 0.42328 0.74741 0.0
C542 C 0.45664 0.39809 0.66674 0.0
C543 C 0.47458 0.38556 0.7628 0.0
H544 H 0.45474 0.30258 0.69299 0.0
H545 H 0.52976 0.34108 0.68547 0.0
H546 H 0.42913 0.3523 0.73027 0.0
H547 H 0.42086 0.35641 0.69688 0.0
H548 H 0.42025 0.32422 0.7077 0.0
H549 H 0.54111 0.38451 0.70273 0.0
H550 H 0.51556 0.40296 0.6905 0.0
H551 H 0.52009 0.39946 0.72451 0.0
H552 H 0.43787 0.44161 0.6868 0.0
H553 H 0.44992 0.42965 0.76753 0.0
H554 H 0.44565 0.37878 0.66239 0.0
H555 H 0.47688 0.39592 0.66207 0.0
H556 H 0.44812 0.41184 0.65381 0.0
H557 H 0.46329 0.36645 0.76247 0.0
H558 H 0.47396 0.39609 0.78219 0.0
H559 H 0.49497 0.38177 0.76 0.0
C560 C 0.91457 0.22469 0.92994 0.0
C561 C 0.93872 0.2286 0.94439 0.0
C562 C 0.89217 0.21604 0.94143 0.0
C563 C 0.89383 0.2122 0.96824 0.0
C564 C 0.91802 0.2174 0.98315 0.0
C565 C 0.94028 0.225 0.97092 0.0
C566 C 0.86696 0.20998 0.92465 0.0
C567 C 0.92046 0.21456 0.01193 0.0
C568 C 0.82905 0.20774 0.998 0.0
C569 C 0.82417 0.18088 0.99894 0.0
C570 C 0.85226 0.21835 0.98931 0.0
C571 C 0.8705 0.20159 0.9803 0.0
C572 C 0.86582 0.17446 0.98165 0.0
C573 C 0.84292 0.16448 0.99142 0.0
C574 C 0.85696 0.24742 0.98917 0.0
C575 C 0.88434 0.15583 0.97156 0.0
H576 H 0.91342 0.2272 0.90936 0.0
H577 H 0.95896 0.22816 0.98213 0.0
H578 H 0.86011 0.18922 0.92515 0.0
H579 H 0.85177 0.22162 0.93225 0.0
H580 H 0.86893 0.21397 0.90415 0.0
H581 H 0.94 0.22185 0.02116 0.0
H582 H 0.90568 0.2253 0.02154 0.0
H583 H 0.91681 0.19384 0.01548 0.0
H584 H 0.81456 0.22044 0.00385 0.0
H585 H 0.83901 0.14368 0.99177 0.0
H586 H 0.85606 0.25283 0.9689 0.0
H587 H 0.87664 0.25419 0.99835 0.0
H588 H 0.84242 0.25782 0.99956 0.0
H589 H 0.88587 0.15763 0.95056 0.0
H590 H 0.87804 0.13533 0.9743 0.0
H591 H 0.90404 0.16067 0.98151 0.0
C592 C 0.29559 0.07081 0.44814 0.0
C593 C 0.27068 0.07949 0.44833 0.0
C594 C 0.3053 0.0619 0.42491 0.0
C595 C 0.28938 0.06076 0.40134 0.0
C596 C 0.26363 0.06804 0.40163 0.0
C597 C 0.25475 0.07784 0.42508 0.0
C598 C 0.33314 0.05521 0.42544 0.0
C599 C 0.24574 0.06621 0.37706 0.0
C600 C 0.32333 0.06819 0.33984 0.0
C601 C 0.3249 0.04232 0.33055 0.0
C602 C 0.31177 0.07439 0.3628 0.0
C603 C 0.30058 0.05422 0.3763 0.0
C604 C 0.30136 0.02803 0.36651 0.0
C605 C 0.31401 0.02235 0.344 0.0
C606 C 0.31222 0.10253 0.37298 0.0
C607 C 0.28886 0.00604 0.37983 0.0
H608 H 0.3081 0.07231 0.46604 0.0
H609 H 0.23544 0.08443 0.42519 0.0
H610 H 0.33417 0.03542 0.41604 0.0
H611 H 0.34437 0.0689 0.41429 0.0
H612 H 0.34262 0.05618 0.44548 0.0
H613 H 0.2254 0.06911 0.38105 0.0
H614 H 0.25241 0.08119 0.3644 0.0
H615 H 0.24613 0.04701 0.36612 0.0
H616 H 0.33192 0.08364 0.32954 0.0
H617 H 0.31501 1.00234 0.33666 0.0
H618 H 0.3224 0.10549 0.39275 0.0
H619 H 0.29215 0.10802 0.37453 0.0
H620 H 0.32209 0.11583 0.36039 0.0
H621 H 0.29906 0.00516 0.39929 0.0
H622 H 0.28926 0.98696 0.3686 0.0
H623 H 0.26839 0.00944 0.38271 0.0
C624 C 0.18641 0.06125 0.68704 0.0
C625 C 0.1595 0.05626 0.6877 0.0
C626 C 0.19692 0.07152 0.6655 0.0
C627 C 0.18014 0.07663 0.64398 0.0
C628 C 0.15298 0.0717 0.64456 0.0
C629 C 0.143 0.06175 0.66645 0.0
C630 C 0.22598 0.07685 0.66575 0.0
C631 C 0.13446 0.07667 0.62191 0.0
C632 C 0.20419 0.12423 0.59736 0.0
C633 C 0.21132 0.10757 0.57697 0.0
C634 C 0.19422 0.11442 0.61932 0.0
C635 C 0.19096 0.08727 0.62087 0.0
C636 C 0.19783 0.07031 0.60026 0.0
C637 C 0.20808 0.08066 0.57864 0.0
C638 C 0.18737 0.13316 0.64099 0.0
C639 C 0.19433 0.04122 0.60106 0.0
H640 H 0.19932 0.05712 0.70337 0.0
H641 H 0.12219 0.05781 0.66667 0.0
H642 H 0.23319 0.06514 0.64945 0.0
H643 H 0.23099 0.09757 0.66292 0.0
H644 H 0.23632 0.07228 0.68417 0.0
H645 H 0.11387 0.07163 0.62533 0.0
H646 H 0.13685 0.09741 0.61806 0.0
H647 H 0.13894 0.06511 0.60416 0.0
H648 H 0.20677 0.14506 0.59637 0.0
H649 H 0.21348 0.06764 0.56299 0.0
H650 H 0.19862 0.12994 0.65936 0.0
H651 H 0.16651 0.12968 0.64407 0.0
H652 H 0.19136 0.15373 0.63694 0.0
H653 H 0.20593 0.03538 0.61817 0.0
H654 H 0.20029 0.03069 0.58333 0.0
H655 H 0.1737 0.03502 0.60317 0.0
C656 C 0.16495 0.99302 0.83806 0.0
C657 C 0.18165 1.00133 0.8199 0.0
C658 C 0.17466 0.98303 0.8609 0.0
C659 C 0.20181 0.9823 0.86614 0.0
C660 C 0.21883 0.99212 0.84851 0.0
C661 C 0.20851 1.00097 0.82529 0.0
C662 C 0.15578 0.97202 0.87873 0.0
C663 C 0.2479 0.99271 0.85388 0.0
C664 C 0.22355 0.97237 0.93607 0.0
C665 C 0.22791 0.94601 0.93426 0.0
C666 C 0.21631 0.98478 0.91386 0.0
C667 C 0.21218 0.97016 0.88946 0.0
C668 C 0.21678 0.94352 0.88756 0.0
C669 C 0.22512 0.93189 0.90996 0.0
C670 C 0.21269 0.01343 0.91657 0.0
C671 C 0.2118 0.92701 0.8621 0.0
H672 H 0.14415 0.99291 0.8337 0.0
H673 H 0.22142 0.00741 0.81121 0.0
H674 H 0.15816 0.95109 0.88007 0.0
H675 H 0.15984 0.9818 0.89857 0.0
H676 H 0.13528 0.97419 0.87194 0.0
H677 H 0.25842 0.00368 0.83982 0.0
H678 H 0.254 1.00168 0.87377 0.0
H679 H 0.25386 0.97262 0.8528 0.0
H680 H 0.22587 0.9833 0.95491 0.0
H681 H 0.22824 0.91143 0.90866 0.0
H682 H 0.1919 0.01645 0.91249 0.0
H683 H 0.22357 0.02358 0.90223 0.0
H684 H 0.21933 0.02252 0.93632 0.0
H685 H 0.19113 0.92703 0.85471 0.0
H686 H 0.21627 0.90661 0.86391 0.0
H687 H 0.22369 0.93521 0.84739 0.0
C688 C 0.26839 0.94905 0.08346 0.0
C689 C 0.28671 0.93997 0.06731 0.0
C690 C 0.27596 0.95961 0.10892 0.0
C691 C 0.30257 0.96195 0.11801 0.0
C692 C 0.32127 0.95423 0.10115 0.0
C693 C 0.31305 0.94279 0.07615 0.0
C694 C 0.25537 0.96679 0.12653 0.0
C695 C 0.34991 0.95726 0.1098 0.0
C696 C 0.32636 0.00524 0.17911 0.0
C697 C 0.33147 0.98677 0.19669 0.0
C698 C 0.31651 0.99752 0.15345 0.0
C699 C 0.31082 0.97077 0.1456 0.0
C700 C 0.31449 0.95218 0.16383 0.0
C701 C 0.32533 0.96039 0.18903 0.0
C702 C 0.31369 0.01785 0.13439 0.0
C703 C 0.30778 0.92355 0.1565 0.0
H704 H 0.24796 0.94647 0.07671 0.0
H705 H 0.32717 0.93577 0.0636 0.0
H706 H 0.25498 0.9536 0.14234 0.0
H707 H 0.25992 0.98681 0.13575 0.0
H708 H 0.23574 0.96538 0.11602 0.0
H709 H 0.36201 0.95318 0.09347 0.0
H710 H 0.35568 0.97724 0.11871 0.0
H711 H 0.35419 0.94371 0.12475 0.0
H712 H 0.33157 0.02563 0.18499 0.0
H713 H 0.32935 0.94616 0.2027 0.0
H714 H 0.29398 0.01562 0.12413 0.0
H715 H 0.32769 0.01525 0.11949 0.0
H716 H 0.31734 0.03788 0.14395 0.0
H717 H 0.28788 0.92011 0.14666 0.0
H718 H 0.30896 0.91201 0.17363 0.0
H719 H 0.32133 0.91631 0.14267 0.0
C720 C 0.35784 0.33587 0.04439 0.0
C721 C 0.33363 0.32156 0.0401 0.0
C722 C 0.38019 0.32401 0.0525 0.0
C723 C 0.37841 0.29699 0.05539 0.0
C724 C 0.35414 0.28226 0.04986 0.0
C725 C 0.33194 0.29483 0.04283 0.0
C726 C 0.40548 0.3406 0.05896 0.0
C727 C 0.35156 0.25329 0.05169 0.0
C728 C 0.44294 0.26664 0.05806 0.0
C729 C 0.44793 0.26461 0.08472 0.0
C730 C 0.41978 0.27593 0.04806 0.0
C731 C 0.40172 0.28444 0.06528 0.0
C732 C 0.40654 0.28202 0.09221 0.0
C733 C 0.42936 0.27168 0.10153 0.0
C734 C 0.41494 0.2772 0.01916 0.0
C735 C 0.38824 0.29156 0.11134 0.0
H736 H 0.3591 0.3566 0.04255 0.0
H737 H 0.31321 0.28372 0.03937 0.0
H738 H 0.41244 0.33929 0.07955 0.0
H739 H 0.42056 0.3334 0.04692 0.0
H740 H 0.40358 0.36132 0.05581 0.0
H741 H 0.33193 0.24433 0.04434 0.0
H742 H 0.36617 0.24398 0.04044 0.0
H743 H 0.35538 0.24899 0.07216 0.0
H744 H 0.45728 0.26116 0.04503 0.0
H745 H 0.43337 0.2705 0.1222 0.0
H746 H 0.41589 0.29774 0.01456 0.0
H747 H 0.3952 0.26826 0.01225 0.0
H748 H 0.42936 0.26717 0.00825 0.0
H749 H 0.38684 0.3127 0.11033 0.0
H750 H 0.39465 0.28806 0.13159 0.0
H751 H 0.36847 0.28182 0.10636 0.0
C752 C 0.97185 0.81646 0.19205 0.0
C753 C 0.9977 0.81573 0.18616 0.0
C754 C 0.96223 0.83976 0.20094 0.0
C755 C 0.97913 0.86278 0.20505 0.0
C756 C 0.00565 0.86188 0.20046 0.0
C757 C 0.0145 0.83845 0.19047 0.0
C758 C 0.93364 0.83995 0.20458 0.0
C759 C 0.02452 0.88575 0.20558 0.0
C760 C 0.94859 0.92643 0.19893 0.0
C761 C 0.94415 0.93368 0.22466 0.0
C762 C 0.96012 0.90353 0.19235 0.0
C763 C 0.96845 0.88801 0.21215 0.0
C764 C 0.96499 0.89586 0.23835 0.0
C765 C 0.95231 0.91833 0.24424 0.0
C766 C 0.96245 0.89543 0.16409 0.0
C767 C 0.97449 0.88043 0.2601 0.0
H768 H 0.95872 0.79898 0.18842 0.0
H769 H 0.03452 0.8379 0.18602 0.0
H770 H 0.93082 0.8477 0.22458 0.0
H771 H 0.92464 0.85294 0.19114 0.0
H772 H 0.92319 0.8203 0.2009 0.0
H773 H 0.04494 0.8811 0.20436 0.0
H774 H 0.02006 0.89982 0.19119 0.0
H775 H 0.02261 0.89545 0.22509 0.0
H776 H 0.94206 0.93821 0.18374 0.0
H777 H 0.94906 0.92406 0.26418 0.0
H778 H 0.95159 0.87621 0.15868 0.0
H779 H 0.98303 0.89337 0.16067 0.0
H780 H 0.95482 0.90957 0.15107 0.0
H781 H 0.96302 0.86134 0.25887 0.0
H782 H 0.9729 0.8906 0.27948 0.0
H783 H 0.99505 0.87661 0.25832 0.0
C784 C 0.18961 0.68942 0.55923 0.0
C785 C 0.1903 0.66245 0.55495 0.0
C786 C 0.16786 0.70018 0.56883 0.0
C787 C 0.14617 0.68359 0.57395 0.0
C788 C 0.14675 0.65638 0.56964 0.0
C789 C 0.16883 0.64616 0.56038 0.0
C790 C 0.16811 0.72929 0.57354 0.0
C791 C 0.12394 0.63802 0.57462 0.0
C792 C 0.09898 0.70755 0.6209 0.0
C793 C 0.07849 0.71418 0.60405 0.0
C794 C 0.12124 0.69798 0.61136 0.0
C795 C 0.12298 0.69457 0.58426 0.0
C796 C 0.10233 0.70103 0.56711 0.0
C797 C 0.0804 0.71093 0.57721 0.0
C798 C 0.14293 0.69157 0.63031 0.0
C799 C 0.10333 0.69733 0.53808 0.0
H800 H 0.20608 0.70216 0.55511 0.0
H801 H 0.16904 0.6253 0.55697 0.0
H802 H 0.15181 0.73628 0.56163 0.0
H803 H 0.16525 0.7347 0.59417 0.0
H804 H 0.18656 0.7395 0.56882 0.0
H805 H 0.12727 0.61738 0.5698 0.0
H806 H 0.12 0.64061 0.59531 0.0
H807 H 0.10626 0.6425 0.56293 0.0
H808 H 0.09784 0.71019 0.64168 0.0
H809 H 0.06468 0.71598 0.56405 0.0
H810 H 0.16133 0.70269 0.62687 0.0
H811 H 0.146 0.67067 0.62732 0.0
H812 H 0.13888 0.69603 0.6508 0.0
H813 H 0.12057 0.70877 0.53227 0.0
H814 H 0.0857 0.70331 0.52737 0.0
H815 H 0.10535 0.67663 0.53208 0.0
C816 C 0.96523 0.66895 0.68109 0.0
C817 C 0.98626 0.68465 0.69409 0.0
C818 C 0.95316 0.64824 0.69285 0.0
C819 C 0.96206 0.64339 0.71839 0.0
C820 C 0.98284 0.65962 0.73185 0.0
C821 C 0.99482 0.6799 0.71947 0.0
C822 C 0.93125 0.6312 0.67772 0.0
C823 C 0.9926 0.65539 0.75924 0.0
C824 C 0.91541 0.60191 0.75424 0.0
C825 C 0.92494 0.5774 0.75083 0.0
C826 C 0.92779 0.62374 0.74455 0.0
C827 C 0.95 0.62094 0.73072 0.0
C828 C 0.96016 0.59643 0.72788 0.0
C829 C 0.94764 0.57502 0.73816 0.0
C830 C 0.91667 0.64965 0.74846 0.0
C831 C 0.98366 0.59258 0.71308 0.0
H832 H 0.9586 0.67243 0.66144 0.0
H833 H 0.01097 0.69205 0.72972 0.0
H834 H 0.93656 0.61089 0.67548 0.0
H835 H 0.91358 0.63114 0.68844 0.0
H836 H 0.92648 0.63767 0.65815 0.0
H837 H 0.00809 0.67048 0.76747 0.0
H838 H 0.97637 0.65544 0.77193 0.0
H839 H 1.00041 0.63612 0.75965 0.0
H840 H 0.89794 0.60396 0.7641 0.0
H841 H 0.95505 0.55615 0.73526 0.0
H842 H 0.90928 0.65577 0.72947 0.0
H843 H 0.93202 0.6647 0.75701 0.0
H844 H 0.90054 0.649 0.76131 0.0
H845 H 0.97935 0.59669 0.6926 0.0
H846 H 0.98968 0.57253 0.71338 0.0
H847 H 1.00021 0.60638 0.72136 0.0
C848 C 0.16701 0.1813 0.46238 0.0
C849 C 0.18237 0.19523 0.48311 0.0
C850 C 0.14607 0.19221 0.44974 0.0
C851 C 0.14062 0.21781 0.45775 0.0
C852 C 0.15651 0.23221 0.4782 0.0
C853 C 0.17704 0.22068 0.49076 0.0
C854 C 0.1294 0.17611 0.4282 0.0
C855 C 0.15163 0.2597 0.48702 0.0
C856 C 0.09844 0.25153 0.40984 0.0
C857 C 0.07398 0.24811 0.41948 0.0
C858 C 0.12044 0.24245 0.42252 0.0
C859 C 0.11788 0.22925 0.44514 0.0
C860 C 0.09339 0.2263 0.45532 0.0
C861 C 0.07179 0.23595 0.4425 0.0
C862 C 0.14632 0.24646 0.41135 0.0
C863 C 0.08979 0.21212 0.47927 0.0
H864 H 0.17094 0.16159 0.45644 0.0
H865 H 0.18893 0.23163 0.50668 0.0
H866 H 0.1091 0.17357 0.4335 0.0
H867 H 0.12911 0.18625 0.41018 0.0
H868 H 0.13638 0.15663 0.42409 0.0
H869 H 0.16655 0.2687 0.50231 0.0
H870 H 0.15142 0.27182 0.47034 0.0
H871 H 0.13231 0.25995 0.49474 0.0
H872 H 0.10034 0.26101 0.39213 0.0
H873 H 0.05296 0.23305 0.45 0.0
H874 H 0.15292 0.22742 0.40474 0.0
H875 H 0.16117 0.25586 0.42646 0.0
H876 H 0.1454 0.25862 0.39467 0.0
H877 H 0.09449 0.19173 0.47565 0.0
H878 H 0.06965 0.21207 0.48511 0.0
H879 H 0.10331 0.2212 0.49569 0.0
C880 C 0.56865 0.43913 0.22325 0.0
C881 C 0.59574 0.44437 0.22583 0.0
C882 C 0.55711 0.41426 0.21445 0.0
C883 C 0.57302 0.39421 0.20793 0.0
C884 C 0.60035 0.39921 0.21104 0.0
C885 C 0.61137 0.42418 0.22001 0.0
C886 C 0.52789 0.40958 0.21156 0.0
C887 C 0.61798 0.37837 0.20418 0.0
C888 C 0.54669 0.32325 0.20104 0.0
C889 C 0.54232 0.31838 0.174 0.0
C890 C 0.55602 0.34804 0.21246 0.0
C891 C 0.56122 0.36837 0.19645 0.0
C892 C 0.55629 0.36372 0.16921 0.0
C893 C 0.54685 0.33884 0.15834 0.0
C894 C 0.56087 0.35234 0.24159 0.0
C895 C 0.56165 0.38488 0.15147 0.0
H896 H 0.55641 0.45455 0.22783 0.0
H897 H 0.63231 0.42798 0.22197 0.0
H898 H 0.52106 0.40494 0.1908 0.0
H899 H 0.52155 0.39265 0.222 0.0
H900 H 0.51831 0.42669 0.21909 0.0
H901 H 0.63883 0.38509 0.20878 0.0
H902 H 0.61343 0.36108 0.21481 0.0
H903 H 0.61471 0.37211 0.18316 0.0
H904 H 0.54315 0.30761 0.21331 0.0
H905 H 0.54351 0.33534 0.13744 0.0
H906 H 0.5507 0.36907 0.24898 0.0
H907 H 0.58191 0.35712 0.24706 0.0
H908 H 0.55429 0.335 0.25138 0.0
H909 H 0.55112 0.40197 0.15701 0.0
H910 H 0.55583 0.37837 0.13078 0.0
H911 H 0.58267 0.39135 0.15349 0.0
C912 C 0.3336 0.84271 0.94881 0.0
C913 C 0.33285 0.84718 0.97571 0.0
C914 C 0.35542 0.83299 0.93819 0.0
C915 C 0.37734 0.8285 0.95484 0.0
C916 C 0.37687 0.83373 0.98198 0.0
C917 C 0.35453 0.84258 0.99207 0.0
C918 C 0.35479 0.82693 0.90923 0.0
C919 C 0.4 0.82991 1.00043 0.0
C920 C 0.42457 0.7798 0.93445 0.0
C921 C 0.44491 0.79581 0.92633 0.0
C922 C 0.40217 0.79011 0.94292 0.0
C923 C 0.40034 0.81727 0.94414 0.0
C924 C 0.42092 0.83359 0.93612 0.0
C925 C 0.44278 0.82261 0.92688 0.0
C926 C 0.38045 0.7719 0.95056 0.0
C927 C 0.42012 0.86268 0.93787 0.0
H928 H 0.31686 0.84619 0.93611 0.0
H929 H 0.35419 0.84632 0.01288 0.0
H930 H 0.37122 0.83798 0.9015 0.0
H931 H 0.3571 0.806 0.90478 0.0
H932 H 0.33639 0.83163 0.89893 0.0
H933 H 0.39725 0.83666 0.02079 0.0
H934 H 0.4035 0.80907 0.99962 0.0
H935 H 0.41769 0.84061 0.99459 0.0
H936 H 0.42596 0.75901 0.93373 0.0
H937 H 0.45848 0.83505 0.92066 0.0
H938 H 0.36188 0.77524 0.93973 0.0
H939 H 0.37801 0.77576 0.97151 0.0
H940 H 0.3841 0.75119 0.94677 0.0
H941 H 0.40269 0.8679 0.92631 0.0
H942 H 0.43762 0.87267 0.93084 0.0
H943 H 0.41859 0.87008 0.95829 0.0
C944 C 0.92853 0.43804 0.8197 0.0
C945 C 0.92625 0.43959 0.79281 0.0
C946 C 0.93771 0.41602 0.83042 0.0
C947 C 0.94377 0.39473 0.81379 0.0
C948 C 0.94064 0.39597 0.78658 0.0
C949 C 0.93239 0.41854 0.77647 0.0
C950 C 0.94161 0.41585 0.85952 0.0
C951 C 0.94608 0.37348 0.7681 0.0
C952 C 0.99192 0.34769 0.8358 0.0
C953 C 0.97556 0.32673 0.84213 0.0
C954 C 0.98183 0.37028 0.82757 0.0
C955 C 0.95461 0.37163 0.82464 0.0
C956 C 0.93795 0.35042 0.8309 0.0
C957 C 0.94866 0.3284 0.84006 0.0
C958 C 1.00036 0.39268 0.8219 0.0
C959 C 0.90884 0.3507 0.82722 0.0
H960 H 0.92384 0.45432 0.83235 0.0
H961 H 0.9303 0.41954 0.75564 0.0
H962 H 0.93024 0.3989 0.86596 0.0
H963 H 0.96235 0.41392 0.86542 0.0
H964 H 0.93578 0.4338 0.86977 0.0
H965 H 0.94062 0.37668 0.74754 0.0
H966 H 0.96703 0.37043 0.77021 0.0
H967 H 0.93524 0.35537 0.77278 0.0
H968 H 0.01276 0.34661 0.83773 0.0
H969 H 0.93598 0.31218 0.8449 0.0
H970 H 0.99582 0.41085 0.83271 0.0
H971 H 0.99811 0.39564 0.80095 0.0
H972 H 0.02093 0.38941 0.82723 0.0
H973 H 0.90254 0.36773 0.83858 0.0
H974 H 0.89856 0.33282 0.83321 0.0
H975 H 0.90278 0.35256 0.80651 0.0
C976 C 0.32288 0.20645 0.53765 0.0
C977 C 0.31867 0.17928 0.53465 0.0
C978 C 0.34749 0.21876 0.54634 0.0
C979 C 0.36824 0.20352 0.55241 0.0
C980 C 0.36428 0.17614 0.54869 0.0
C981 C 0.33962 0.16438 0.53975 0.0
C982 C 0.35111 0.24802 0.54977 0.0
C983 C 0.38586 0.15918 0.55511 0.0
C984 C 0.43895 0.23045 0.56125 0.0
C985 C 0.44334 0.23355 0.58838 0.0
C986 C 0.41425 0.2218 0.54914 0.0
C987 C 0.3936 0.21588 0.56455 0.0
C988 C 0.39772 0.21981 0.59189 0.0
C989 C 0.42247 0.2287 0.60345 0.0
C990 C 0.41047 0.21815 0.51992 0.0
C991 C 0.37624 0.21356 0.60903 0.0
H992 H 0.30686 0.21812 0.53358 0.0
H993 H 0.33664 0.14338 0.53744 0.0
H994 H 0.35483 0.25456 0.57069 0.0
H995 H 0.36824 0.25522 0.54007 0.0
H996 H 0.33381 0.25706 0.54183 0.0
H997 H 0.37995 0.13825 0.54988 0.0
H998 H 0.40307 0.16478 0.54477 0.0
H999 H 0.3919 0.16199 0.5762 0.0
H1000 H 0.4549 0.23433 0.54945 0.0
H1001 H 0.4256 0.2311 0.62442 0.0
H1002 H 0.39321 0.22766 0.51274 0.0
H1003 H 0.40689 0.19716 0.51355 0.0
H1004 H 0.42765 0.22616 0.51073 0.0
H1005 H 0.35894 0.22373 0.60333 0.0
H1006 H 0.38222 0.21912 0.62988 0.0
H1007 H 0.37031 0.19242 0.60655 0.0
C1008 C 0.51417 0.66207 0.35234 0.0
C1009 C 0.51691 0.68636 0.34223 0.0
C1010 C 0.52371 0.64013 0.34 0.0
C1011 C 0.53671 0.64258 0.31723 0.0
C1012 C 0.53896 0.66688 0.30657 0.0
C1013 C 0.52886 0.6884 0.31907 0.0
C1014 C 0.52045 0.61446 0.35169 0.0
C1015 C 0.5529 0.6704 0.28246 0.0
C1016 C 0.58621 0.59486 0.30056 0.0
C1017 C 0.57268 0.57894 0.27998 0.0
C1018 C 0.57464 0.61547 0.31303 0.0
C1019 C 0.54876 0.62001 0.30501 0.0
C1020 C 0.53474 0.60349 0.28479 0.0
C1021 C 0.54693 0.5833 0.27238 0.0
C1022 C 0.59036 0.63281 0.33432 0.0
C1023 C 0.507 0.60738 0.27597 0.0
H1024 H 0.50487 0.66027 0.37016 0.0
H1025 H 0.53124 0.70709 0.31119 0.0
H1026 H 0.51142 0.59915 0.33685 0.0
H1027 H 0.53973 0.60851 0.35846 0.0
H1028 H 0.50828 0.61535 0.36836 0.0
H1029 H 0.55235 0.69035 0.27622 0.0
H1030 H 0.57347 0.6663 0.28611 0.0
H1031 H 0.54407 0.65641 0.2663 0.0
H1032 H 0.60614 0.59168 0.30646 0.0
H1033 H 0.53628 0.57099 0.25659 0.0
H1034 H 0.58021 0.63316 0.35234 0.0
H1035 H 0.59237 0.653 0.32863 0.0
H1036 H 0.61005 0.62641 0.3386 0.0
H1037 H 0.49499 0.60766 0.29273 0.0
H1038 H 0.4983 0.59193 0.26105 0.0
H1039 H 0.50611 0.62641 0.26774 0.0
C1040 C 0.09733 0.76658 0.04749 0.0
C1041 C 0.08935 0.77707 0.07103 0.0
C1042 C 0.1182 0.77866 0.036 0.0
C1043 C 0.13159 0.80171 0.04842 0.0
C1044 C 0.12361 0.81243 0.07216 0.0
C1045 C 0.10253 0.80005 0.08312 0.0
C1046 C 0.12591 0.76675 0.01057 0.0
C1047 C 0.13745 0.83693 0.08607 0.0
C1048 C 0.20028 0.82225 0.03253 0.0
C1049 C 0.19606 0.84248 0.0167 0.0
C1050 C 0.17944 0.80844 0.04258 0.0
C1051 C 0.15375 0.81484 0.03646 0.0
C1052 C 0.1493 0.83447 0.0196 0.0
C1053 C 0.17047 0.84809 0.01003 0.0
C1054 C 0.185 0.78768 0.06053 0.0
C1055 C 0.1222 0.84164 0.01229 0.0
H1056 H 0.08725 0.74885 0.03797 0.0
H1057 H 0.09658 0.80823 0.10135 0.0
H1058 H 0.12469 0.78092 0.99569 0.0
H1059 H 0.14636 0.76189 0.01284 0.0
H1060 H 0.11342 0.74885 0.00331 0.0
H1061 H 0.12908 0.8426 0.10451 0.0
H1062 H 0.1583 0.83421 0.09042 0.0
H1063 H 0.13638 0.85314 0.07342 0.0
H1064 H 0.21995 0.81784 0.03791 0.0
H1065 H 0.16696 0.86359 0.99772 0.0
H1066 H 0.17346 0.76921 0.05345 0.0
H1067 H 0.17913 0.79352 0.08009 0.0
H1068 H 0.20587 0.78412 0.06236 0.0
H1069 H 0.10953 0.82412 0.00434 0.0
H1070 H 0.12188 0.85619 0.99771 0.0
H1071 H 0.1137 0.84974 0.02981 0.0
C1072 C 0.74425 0.95113 0.57364 0.0
C1073 C 0.75666 0.92829 0.57617 0.0
C1074 C 0.73399 0.96384 0.59494 0.0
C1075 C 0.73658 0.95374 0.61948 0.0
C1076 C 0.75039 0.93155 0.62248 0.0
C1077 C 0.76006 0.91897 0.60076 0.0
C1078 C 0.71923 0.98733 0.59086 0.0
C1079 C 0.75408 0.9205 0.64843 0.0
C1080 C 0.72352 0.99818 0.67804 0.0
C1081 C 0.69802 0.9893 0.68214 0.0
C1082 C 0.73655 0.98642 0.65813 0.0
C1083 C 0.72362 0.96556 0.64161 0.0
C1084 C 0.69797 0.95633 0.64584 0.0
C1085 C 0.68557 0.96817 0.66619 0.0
C1086 C 0.76403 0.99652 0.65458 0.0
C1087 C 0.68341 0.93431 0.62849 0.0
H1088 H 0.74136 0.95839 0.55471 0.0
H1089 H 0.76973 0.90141 0.60293 0.0
H1090 H 0.69858 0.98285 0.59429 0.0
H1091 H 0.72707 0.00379 0.60497 0.0
H1092 H 0.72012 0.99357 0.57095 0.0
H1093 H 0.76735 0.90472 0.64808 0.0
H1094 H 0.762 0.93597 0.66362 0.0
H1095 H 0.73505 0.91261 0.65412 0.0
H1096 H 0.73334 0.01441 0.6904 0.0
H1097 H 0.66584 0.96129 0.66916 0.0
H1098 H 0.7648 0.00449 0.63543 0.0
H1099 H 0.7769 0.98044 0.65484 0.0
H1100 H 0.77182 0.01197 0.66988 0.0
H1101 H 0.68159 0.93966 0.60819 0.0
H1102 H 0.66366 0.92929 0.63446 0.0
H1103 H 0.69432 0.91679 0.6287 0.0
C1104 C 0.81614 0.95951 0.32466 0.0
C1105 C 0.84245 0.96359 0.32056 0.0
C1106 C 0.80833 0.94945 0.34744 0.0
C1107 C 0.82734 0.9444 0.36712 0.0
C1108 C 0.85399 0.94821 0.3629 0.0
C1109 C 0.86121 0.95732 0.33944 0.0
C1110 C 0.77971 0.94481 0.35067 0.0
C1111 C 0.87488 0.94396 0.38368 0.0
C1112 C 0.80342 0.9484 0.43461 0.0
C1113 C 0.79936 0.92218 0.43907 0.0
C1114 C 0.8138 0.95589 0.41187 0.0
C1115 C 0.81921 0.93663 0.39258 0.0
C1116 C 0.8154 0.91007 0.39717 0.0
C1117 C 0.80597 0.90319 0.4206 0.0
C1118 C 0.81842 0.98443 0.40824 0.0
C1119 C 0.82002 0.88892 0.37681 0.0
H1120 H 0.80162 0.96429 0.31002 0.0
H1121 H 0.88159 0.96081 0.33643 0.0
H1122 H 0.77522 0.92504 0.35675 0.0
H1123 H 0.77424 0.95883 0.36612 0.0
H1124 H 0.76752 0.94698 0.33252 0.0
H1125 H 0.89465 0.9466 0.37695 0.0
H1126 H 0.87377 0.95789 0.40084 0.0
H1127 H 0.87189 0.92417 0.39016 0.0
H1128 H 0.79839 0.96311 0.44893 0.0
H1129 H 0.8025 0.88288 0.42391 0.0
H1130 H 0.8046 0.98962 0.39247 0.0
H1131 H 0.8383 0.98888 0.40242 0.0
H1132 H 0.81595 0.99686 0.42614 0.0
H1133 H 0.80634 0.88974 0.35941 0.0
H1134 H 0.81732 0.86928 0.38382 0.0
H1135 H 0.83993 0.89186 0.37063 0.0
C1136 C 0.77168 0.03922 0.07971 0.0
C1137 C 0.78062 0.06484 0.07616 0.0
C1138 C 0.7829 0.02598 0.09974 0.0
C1139 C 0.80329 0.0388 0.11693 0.0
C1140 C 0.81263 0.06456 0.11324 0.0
C1141 C 0.80132 0.07719 0.09278 0.0
C1142 C 0.77271 0.99839 0.10273 0.0
C1143 C 0.83417 0.07902 0.13131 0.0
C1144 C 0.81587 0.01757 0.18493 0.0
C1145 C 0.83889 0.00536 0.18296 0.0
C1146 C 0.80367 0.02792 0.1634 0.0
C1147 C 0.8145 0.02562 0.13921 0.0
C1148 C 0.83685 0.01196 0.13674 0.0
C1149 C 0.8489 1.00218 0.15868 0.0
C1150 C 0.77997 0.0425 0.16691 0.0
C1151 C 0.84868 0.00859 0.11117 0.0
H1152 H 0.75577 0.02948 0.06686 0.0
H1153 H 0.80825 0.09702 0.09024 0.0
H1154 H 0.78885 0.98559 0.10287 0.0
H1155 H 0.76411 0.99737 0.12155 0.0
H1156 H 0.75772 0.99071 0.08693 0.0
H1157 H 0.83937 0.09886 0.12567 0.0
H1158 H 0.82818 0.0806 0.15139 0.0
H1159 H 0.85174 0.06815 0.13153 0.0
H1160 H 0.80808 0.02028 0.20362 0.0
H1161 H 0.86661 0.99267 0.15694 0.0
H1162 H 0.76392 0.03478 0.15227 0.0
H1163 H 0.78453 0.06325 0.16387 0.0
H1164 H 0.77309 0.0413 0.18654 0.0
H1165 H 0.83361 1.0008 0.09552 0.0
H1166 H 0.86447 0.99534 0.11185 0.0
H1167 H 0.85677 0.02771 0.1059 0.0
C1168 C 0.65956 0.04632 0.83731 0.0
C1169 C 0.67474 0.04104 0.81664 0.0
C1170 C 0.67107 0.05545 0.86202 0.0
C1171 C 0.69843 0.05928 0.86624 0.0
C1172 C 0.71392 0.0534 0.84567 0.0
C1173 C 0.70189 0.04441 0.82108 0.0
C1174 C 0.65389 0.06159 0.88347 0.0
C1175 C 0.74317 0.05708 0.84953 0.0
C1176 C 0.72476 0.1083 0.92199 0.0
C1177 C 0.73011 0.09226 0.94193 0.0
C1178 C 0.71504 0.09776 0.89709 0.0
C1179 C 0.71068 0.0705 0.89194 0.0
C1180 C 0.71678 0.05415 0.91171 0.0
C1181 C 0.72637 0.06522 0.9365 0.0
C1182 C 0.7087 0.11584 0.87651 0.0
C1183 C 0.71256 0.02498 0.90685 0.0
H1184 H 0.63859 0.04375 0.83411 0.0
H1185 H 0.71379 0.04027 0.80526 0.0
H1186 H 0.6591 0.0507 0.9004 0.0
H1187 H 0.65694 0.08256 0.89007 0.0
H1188 H 0.63298 0.05672 0.87723 0.0
H1189 H 0.75244 0.05026 0.83196 0.0
H1190 H 0.74953 0.07792 0.85451 0.0
H1191 H 0.75032 0.04641 0.86598 0.0
H1192 H 0.72763 0.12921 0.92594 0.0
H1193 H 0.73056 0.05266 0.95174 0.0
H1194 H 0.68755 0.11354 0.87066 0.0
H1195 H 0.71879 0.11086 0.85898 0.0
H1196 H 0.71432 0.13652 0.88331 0.0
H1197 H 0.69154 0.01906 0.90257 0.0
H1198 H 0.7199 0.01496 0.92373 0.0
H1199 H 0.7224 0.01824 0.88965 0.0
C1200 C 0.6069 0.75659 0.9136 0.0
C1201 C 0.58254 0.75352 0.92351 0.0
C1202 C 0.62883 0.74696 0.92587 0.0
C1203 C 0.6263 0.73359 0.94839 0.0
C1204 C 0.60195 0.73111 0.95893 0.0
C1205 C 0.58043 0.74127 0.94649 0.0
C1206 C 0.65454 0.75046 0.91429 0.0
C1207 C 0.59838 0.71682 0.98281 0.0
C1208 C 0.6741 0.68384 0.96399 0.0
C1209 C 0.69018 0.69713 0.98459 0.0
C1210 C 0.65337 0.69556 0.95192 0.0
C1211 C 0.64883 0.72132 0.96039 0.0
C1212 C 0.66544 0.73507 0.98071 0.0
C1213 C 0.68578 0.72275 0.99268 0.0
C1214 C 0.63595 0.68014 0.93048 0.0
C1215 C 0.66153 0.76268 0.99004 0.0
H1216 H 0.60877 0.76612 0.89592 0.0
H1217 H 0.56169 0.73864 0.95422 0.0
H1218 H 0.66983 0.75922 0.92929 0.0
H1219 H 0.66046 0.73128 0.90718 0.0
H1220 H 0.65372 0.76296 0.89788 0.0
H1221 H 0.57845 0.7174 0.98912 0.0
H1222 H 0.6023 0.69623 0.97882 0.0
H1223 H 0.61244 0.72532 0.99904 0.0
H1224 H 0.67729 0.66401 0.9577 0.0
H1225 H 0.6982 0.73321 0.00851 0.0
H1226 H 0.63564 0.69054 0.91261 0.0
H1227 H 0.61576 0.67811 0.93616 0.0
H1228 H 0.64227 0.66046 0.92593 0.0
H1229 H 0.66136 0.77502 0.97354 0.0
H1230 H 0.67691 0.7711 0.00515 0.0
H1231 H 0.64245 0.76339 0.99818 0.0
C1232 C 0.04512 0.08539 0.77252 0.0
C1233 C 0.07075 0.08073 0.78023 0.0
C1234 C 0.03313 0.10575 0.78484 0.0
C1235 C 0.04724 0.12211 0.80512 0.0
C1236 C 0.07302 0.1173 0.81323 0.0
C1237 C 0.08439 0.09654 0.80081 0.0
C1238 C 0.00549 0.10996 0.77593 0.0
C1239 C 0.0888 0.13446 0.83461 0.0
C1240 C 0.02823 0.1907 0.81986 0.0
C1241 C 0.01634 0.18856 0.84304 0.0
C1242 C 0.03794 0.16912 0.80707 0.0
C1243 C 0.03535 0.1447 0.81746 0.0
C1244 C 0.02231 0.14216 0.84018 0.0
C1245 C 0.01314 0.16414 0.85281 0.0
C1246 C 0.0519 0.17269 0.78299 0.0
C1247 C 0.0187 0.11637 0.85159 0.0
H1248 H 0.03439 0.07316 0.7567 0.0
H1249 H 0.10423 0.09314 0.8068 0.0
H1250 H 0.99338 0.11016 0.79262 0.0
H1251 H 0.00483 0.12911 0.76792 0.0
H1252 H 0.99675 0.09471 0.76083 0.0
H1253 H 0.10845 0.12793 0.83885 0.0
H1254 H 0.09093 0.1547 0.82907 0.0
H1255 H 0.07865 0.13475 0.85263 0.0
H1256 H 0.03094 0.20949 0.81225 0.0
H1257 H 1.00387 0.16227 0.87064 0.0
H1258 H 0.04308 0.15877 0.76677 0.0
H1259 H 0.07246 0.16855 0.78665 0.0
H1260 H 0.05141 0.19268 0.77683 0.0
H1261 H 0.00966 0.10124 0.83658 0.0
H1262 H 0.00642 0.1172 0.86817 0.0
H1263 H 0.03787 0.11021 0.85843 0.0
C1264 C 0.91559 0.2751 0.42764 0.0
C1265 C 0.93679 0.29124 0.42148 0.0
C1266 C 0.89315 0.28545 0.43591 0.0
C1267 C 0.8922 0.31271 0.43904 0.0
C1268 C 0.91365 0.32916 0.43296 0.0
C1269 C 0.93552 0.31819 0.42376 0.0
C1270 C 0.87049 0.26716 0.44138 0.0
C1271 C 0.91378 0.3583 0.43687 0.0
C1272 C 0.82617 0.33956 0.44401 0.0
C1273 C 0.82452 0.34162 0.47089 0.0
C1274 C 0.84811 0.33024 0.43328 0.0
C1275 C 0.86924 0.3238 0.44991 0.0
C1276 C 0.86792 0.32674 0.47711 0.0
C1277 C 0.84542 0.33514 0.48722 0.0
C1278 C 0.84836 0.32656 0.40418 0.0
C1279 C 0.89025 0.32089 0.49559 0.0
H1280 H 0.91636 0.25422 0.42554 0.0
H1281 H 0.95192 0.3307 0.41905 0.0
H1282 H 0.86747 0.26932 0.46232 0.0
H1283 H 0.85244 0.27202 0.43057 0.0
H1284 H 0.87347 0.24654 0.43592 0.0
H1285 H 0.93182 0.36839 0.43102 0.0
H1286 H 0.8969 0.36492 0.42554 0.0
H1287 H 0.91192 0.36425 0.45761 0.0
H1288 H 0.81 0.34453 0.43137 0.0
H1289 H 0.84435 0.33707 0.50805 0.0
H1290 H 0.85 0.3058 0.39811 0.0
H1291 H 0.86551 0.33776 0.39789 0.0
H1292 H 0.83057 0.33274 0.39394 0.0
H1293 H 0.89301 0.29988 0.49335 0.0
H1294 H 0.88705 0.32628 0.51616 0.0
H1295 H 0.90851 0.33154 0.49102 0.0
C1296 C 0.60263 0.92807 0.77143 0.0
C1297 C 0.5856 0.94631 0.76401 0.0
C1298 C 0.59352 0.90531 0.78202 0.0
C1299 C 0.56658 0.90022 0.78433 0.0
C1300 C 0.54915 0.91793 0.77546 0.0
C1301 C 0.55894 0.94104 0.76592 0.0
C1302 C 0.61286 0.88738 0.79193 0.0
C1303 C 0.52024 0.91276 0.7766 0.0
C1304 C 0.5448 0.83047 0.79552 0.0
C1305 C 0.54191 0.83245 0.8222 0.0
C1306 C 0.55169 0.85255 0.7827 0.0
C1307 C 0.5569 0.877 0.79713 0.0
C1308 C 0.55384 0.87906 0.8241 0.0
C1309 C 0.54589 0.85682 0.83621 0.0
C1310 C 0.5537 0.84965 0.75378 0.0
C1311 C 0.55996 0.90457 0.84038 0.0
H1312 H 0.6233 0.9323 0.77033 0.0
H1313 H 0.54574 0.95515 0.76017 0.0
H1314 H 0.61178 0.88625 0.81308 0.0
H1315 H 0.60814 0.86748 0.78246 0.0
H1316 H 0.6331 0.89397 0.78846 0.0
H1317 H 0.50919 0.9269 0.76629 0.0
H1318 H 0.51359 0.89288 0.7679 0.0
H1319 H 0.51552 0.91391 0.7971 0.0
H1320 H 0.54157 0.81162 0.78464 0.0
H1321 H 0.54391 0.85829 0.8569 0.0
H1322 H 0.57418 0.85369 0.74957 0.0
H1323 H 0.54229 0.86397 0.7442 0.0
H1324 H 0.54664 0.82986 0.74505 0.0
H1325 H 0.58051 0.91175 0.83908 0.0
H1326 H 0.55675 0.90288 0.8611 0.0
H1327 H 0.54774 0.91939 0.83291 0.0
C1328 C 0.97035 0.18865 0.308 0.0
C1329 C 0.97301 0.19346 0.33507 0.0
C1330 C 0.96031 0.1642 0.29617 0.0
C1331 C 0.95335 0.14402 0.31183 0.0
C1332 C 0.95634 0.14872 0.33915 0.0
C1333 C 0.96586 0.17341 0.35041 0.0
C1334 C 0.95686 0.16002 0.26695 0.0
C1335 C 0.94956 0.12763 0.35656 0.0
C1336 C 0.90446 0.0877 0.2867 0.0
C1337 C 0.92056 0.06794 0.28083 0.0
C1338 C 0.91493 0.11278 0.29589 0.0
C1339 C 0.94218 0.11814 0.29986 0.0
C1340 C 0.95858 0.09833 0.29387 0.0
C1341 C 0.94756 0.0735 0.28413 0.0
C1342 C 0.89679 0.13348 0.30163 0.0
C1343 C 0.98773 0.10319 0.29837 0.0
H1344 H 0.97584 0.20407 0.29606 0.0
H1345 H 0.96816 0.17686 0.37136 0.0
H1346 H 0.96811 0.14391 0.26009 0.0
H1347 H 0.93615 0.15433 0.2605 0.0
H1348 H 0.96322 0.17767 0.25755 0.0
H1349 H 0.9541 0.13415 0.37744 0.0
H1350 H 0.92857 0.12119 0.35324 0.0
H1351 H 0.96037 0.11049 0.35184 0.0
H1352 H 0.88356 0.08363 0.28385 0.0
H1353 H 0.96007 0.0583 0.27961 0.0
H1354 H 0.90204 0.15087 0.29139 0.0
H1355 H 0.89871 0.1396 0.3227 0.0
H1356 H 0.87618 0.12665 0.29574 0.0
H1357 H 0.99468 0.11984 0.28786 0.0
H1358 H 0.99778 0.08599 0.29194 0.0
H1359 H 0.99337 0.10837 0.31931 0.0
C1360 C 0.57735 0.07863 0.70277 0.0
C1361 C 0.60437 0.07818 0.70683 0.0
C1362 C 0.56629 0.10017 0.69305 0.0
C1363 C 0.58261 0.12191 0.68757 0.0
C1364 C 0.60987 0.12153 0.69153 0.0
C1365 C 0.62041 0.09964 0.70093 0.0
C1366 C 0.53713 0.0997 0.68873 0.0
C1367 C 0.62795 0.1444 0.68615 0.0
C1368 C 0.55718 0.16895 0.64114 0.0
C1369 C 0.55066 0.18932 0.6582 0.0
C1370 C 0.56724 0.1468 0.65044 0.0
C1371 C 0.57125 0.14503 0.67749 0.0
C1372 C 0.56488 0.16556 0.69486 0.0
C1373 C 0.5545 0.18738 0.68501 0.0
C1374 C 0.57352 0.12523 0.63127 0.0
C1375 C 0.5692 0.16455 0.72385 0.0
H1376 H 0.56481 0.06216 0.70723 0.0
H1377 H 0.6413 0.09961 0.70415 0.0
H1378 H 0.53017 0.11584 0.70087 0.0
H1379 H 0.5314 0.10266 0.6682 0.0
H1380 H 0.52716 0.08113 0.69346 0.0
H1381 H 0.64869 0.14113 0.69047 0.0
H1382 H 0.62484 0.14836 0.6655 0.0
H1383 H 0.62367 0.16203 0.69802 0.0
H1384 H 0.5541 0.17012 0.62039 0.0
H1385 H 0.54956 0.20301 0.69834 0.0
H1386 H 0.56263 0.10674 0.63483 0.0
H1387 H 0.59448 0.12231 0.6339 0.0
H1388 H 0.56867 0.1293 0.61085 0.0
H1389 H 0.55803 0.14723 0.72985 0.0
H1390 H 0.5633 0.18211 0.73474 0.0
H1391 H 0.59001 0.16266 0.72943 0.0
C1392 C 0.17943 0.35558 0.97454 0.0
C1393 C 0.19932 0.33978 0.98091 0.0
C1394 C 0.1545 0.34481 0.96523 0.0
C1395 C 0.14939 0.31753 0.96164 0.0
C1396 C 0.16935 0.3014 0.96798 0.0
C1397 C 0.19405 0.31273 0.97784 0.0
C1398 C 0.13367 0.36269 0.95909 0.0
C1399 C 0.16473 0.27222 0.96388 0.0
C1400 C 0.07863 0.29022 0.95433 0.0
C1401 C 0.07351 0.28757 0.92728 0.0
C1402 C 0.10336 0.2997 0.96587 0.0
C1403 C 0.12349 0.3061 0.94996 0.0
C1404 C 0.11852 0.30292 0.92266 0.0
C1405 C 0.09357 0.29398 0.91169 0.0
C1406 C 0.10782 0.30337 0.99506 0.0
C1407 C 0.13954 0.30914 0.905 0.0
H1408 H 0.18322 0.37651 0.97721 0.0
H1409 H 0.20934 0.30045 0.98276 0.0
H1410 H 0.12741 0.36024 0.93805 0.0
H1411 H 0.11637 0.35767 0.96957 0.0
H1412 H 0.14039 0.38343 0.96445 0.0
H1413 H 0.1821 0.2624 0.97029 0.0
H1414 H 0.14827 0.26531 0.97466 0.0
H1415 H 0.15937 0.26627 0.94302 0.0
H1416 H 0.06321 0.28526 0.96645 0.0
H1417 H 0.08988 0.29163 0.89075 0.0
H1418 H 0.11328 0.32417 1.00131 0.0
H1419 H 0.12417 0.29241 1.00188 0.0
H1420 H 0.09035 0.29689 0.00469 0.0
H1421 H 0.14594 0.33016 0.90772 0.0
H1422 H 0.13293 0.30403 0.88422 0.0
H1423 H 0.15671 0.29848 0.90999 0.0
C1424 C 0.41303 0.72251 0.42796 0.0
C1425 C 0.4372 0.72703 0.44232 0.0
C1426 C 0.39069 0.71432 0.4398 0.0
C1427 C 0.39241 0.71157 0.46683 0.0
C1428 C 0.41663 0.71731 0.48159 0.0
C1429 C 0.43883 0.72443 0.46905 0.0
C1430 C 0.36545 0.70764 0.42319 0.0
C1431 C 0.41914 0.71564 0.51056 0.0
C1432 C 0.32779 0.7089 0.49699 0.0
C1433 C 0.32287 0.68224 0.49918 0.0
C1434 C 0.35095 0.71891 0.48771 0.0
C1435 C 0.36908 0.70169 0.47937 0.0
C1436 C 0.36433 0.67477 0.48195 0.0
C1437 C 0.3415 0.66544 0.49228 0.0
C1438 C 0.35572 0.74782 0.48626 0.0
C1439 C 0.38273 0.65563 0.4726 0.0
H1440 H 0.41181 0.72425 0.40724 0.0
H1441 H 0.45752 0.72808 0.4802 0.0
H1442 H 0.35855 0.68704 0.42464 0.0
H1443 H 0.35031 0.71968 0.43023 0.0
H1444 H 0.3674 0.71064 0.40246 0.0
H1445 H 0.43875 0.72306 0.51952 0.0
H1446 H 0.4045 0.72692 0.51976 0.0
H1447 H 0.41532 0.69519 0.51496 0.0
H1448 H 0.31339 0.72192 0.50235 0.0
H1449 H 0.33754 0.64477 0.49359 0.0
H1450 H 0.35482 0.75229 0.46569 0.0
H1451 H 0.37542 0.75484 0.49522 0.0
H1452 H 0.34123 0.75874 0.49617 0.0
H1453 H 0.38416 0.6565 0.45146 0.0
H1454 H 0.37637 0.63538 0.47623 0.0
H1455 H 0.40247 0.66074 0.48234 0.0
C1456 C 0.79718 0.5407 0.82799 0.0
C1457 C 0.8238 0.5374 0.82959 0.0
C1458 C 0.78482 0.54806 0.85022 0.0
C1459 C 0.79967 0.55332 0.87442 0.0
C1460 C 0.82656 0.54978 0.87612 0.0
C1461 C 0.83819 0.54137 0.85375 0.0
C1462 C 0.75596 0.55056 0.84773 0.0
C1463 C 0.84328 0.55593 0.90135 0.0
C1464 C 0.77593 0.60058 0.92531 0.0
C1465 C 0.76857 0.58406 0.94402 0.0
C1466 C 0.78581 0.59079 0.90243 0.0
C1467 C 0.78745 0.5637 0.89772 0.0
C1468 C 0.77859 0.54681 0.91591 0.0
C1469 C 0.76978 0.55724 0.93912 0.0
C1470 C 0.79574 0.60957 0.88397 0.0
C1471 C 0.77902 0.51777 0.91117 0.0
H1472 H 0.78601 0.53748 0.80929 0.0
H1473 H 0.85883 0.53908 0.85494 0.0
H1474 H 0.74643 0.53967 0.86245 0.0
H1475 H 0.75218 0.57121 0.85141 0.0
H1476 H 0.74682 0.54324 0.82817 0.0
H1477 H 0.86385 0.5522 0.89942 0.0
H1478 H 0.84254 0.57664 0.90826 0.0
H1479 H 0.83577 0.54414 0.91648 0.0
H1480 H 0.77538 0.62135 0.92925 0.0
H1481 H 0.76407 0.54444 0.95358 0.0
H1482 H 0.78585 0.60467 0.86427 0.0
H1483 H 0.8168 0.60802 0.88249 0.0
H1484 H 0.79277 0.63001 0.89028 0.0
H1485 H 0.76995 0.51097 0.89147 0.0
H1486 H 0.76868 0.50722 0.92564 0.0
H1487 H 0.79938 0.51258 0.91213 0.0
C1488 C 0.68936 0.56073 0.18642 0.0
C1489 C 0.66243 0.55658 0.18758 0.0
C1490 C 0.6998 0.57111 0.16489 0.0
C1491 C 0.68293 0.57726 0.14387 0.0
C1492 C 0.65575 0.5733 0.145 0.0
C1493 C 0.64585 0.56316 0.16686 0.0
C1494 C 0.72889 0.57534 0.16455 0.0
C1495 C 0.6371 0.57943 0.12294 0.0
C1496 C 0.70823 0.62462 0.09751 0.0
C1497 C 0.71431 0.60786 0.0767 0.0
C1498 C 0.69812 0.61494 0.11948 0.0
C1499 C 0.69368 0.5878 0.12064 0.0
C1500 C 0.69941 0.57075 0.09958 0.0
C1501 C 0.70977 0.58097 0.07793 0.0
C1502 C 0.69245 0.63376 0.1416 0.0
C1503 C 0.69467 0.54169 0.09995 0.0
H1504 H 0.70235 0.55575 0.20231 0.0
H1505 H 0.62501 0.55993 0.16745 0.0
H1506 H 0.73531 0.56347 0.14791 0.0
H1507 H 0.73462 0.59596 0.1619 0.0
H1508 H 0.73934 0.57015 0.18267 0.0
H1509 H 0.6165 0.5753 0.12684 0.0
H1510 H 0.64036 0.60018 0.11936 0.0
H1511 H 0.64063 0.56782 0.10487 0.0
H1512 H 0.71178 0.64542 0.09687 0.0
H1513 H 0.71436 0.56784 0.06197 0.0
H1514 H 0.70393 0.62994 0.15964 0.0
H1515 H 0.67166 0.63101 0.14519 0.0
H1516 H 0.69707 0.6543 0.13774 0.0
H1517 H 0.70633 0.53509 0.11663 0.0
H1518 H 0.69973 0.53109 0.08185 0.0
H1519 H 0.67396 0.53634 0.10253 0.0
C1520 C 0.72534 0.47134 0.43611 0.0
C1521 C 0.72853 0.44471 0.43463 0.0
C1522 C 0.71837 0.4837 0.41377 0.0
C1523 C 0.71339 0.46883 0.38955 0.0
C1524 C 0.7168 0.44192 0.38797 0.0
C1525 C 0.72482 0.43028 0.41047 0.0
C1526 C 0.71597 0.51258 0.41615 0.0
C1527 C 0.71095 0.42518 0.36272 0.0
C1528 C 0.66709 0.49285 0.33795 0.0
C1529 C 0.68397 0.50018 0.31955 0.0
C1530 C 0.67644 0.48286 0.36094 0.0
C1531 C 0.70345 0.48107 0.36608 0.0
C1532 C 0.72072 0.48987 0.34819 0.0
C1533 C 0.71072 0.49881 0.32487 0.0
C1534 C 0.65727 0.473 0.37908 0.0
C1535 C 0.74969 0.48928 0.35339 0.0
H1536 H 0.72836 0.48254 0.4548 0.0
H1537 H 0.72702 0.40963 0.40936 0.0
H1538 H 0.72718 0.52205 0.40161 0.0
H1539 H 0.69539 0.51644 0.41211 0.0
H1540 H 0.72301 0.52172 0.43578 0.0
H1541 H 0.71454 0.40459 0.36476 0.0
H1542 H 0.69034 0.426 0.35551 0.0
H1543 H 0.72302 0.43261 0.34777 0.0
H1544 H 0.64637 0.49353 0.3337 0.0
H1545 H 0.72381 0.50451 0.31065 0.0
H1546 H 0.66188 0.48289 0.39881 0.0
H1547 H 0.6587 0.45193 0.38063 0.0
H1548 H 0.63694 0.47603 0.37242 0.0
H1549 H 0.75623 0.49839 0.37313 0.0
H1550 H 0.76056 0.49951 0.33906 0.0
H1551 H 0.75476 0.46888 0.3526 0.0
C1552 C 0.81348 0.47597 0.69 0.0
C1553 C 0.84055 0.47842 0.69509 0.0
C1554 C 0.80186 0.46657 0.6653 0.0
C1555 C 0.81773 0.46006 0.64517 0.0
C1556 C 0.84505 0.46302 0.65012 0.0
C1557 C 0.85609 0.47188 0.67504 0.0
C1558 C 0.77264 0.46314 0.66085 0.0
C1559 C 0.86266 0.45668 0.6291 0.0
C1560 C 0.79295 0.41085 0.58916 0.0
C1561 C 0.78682 0.42675 0.5693 0.0
C1562 C 0.80219 0.4215 0.61411 0.0
C1563 C 0.80597 0.44877 0.61928 0.0
C1564 C 0.79983 0.46501 0.59936 0.0
C1565 C 0.79003 0.45378 0.57462 0.0
C1566 C 0.8081 0.40352 0.63491 0.0
C1567 C 0.80413 0.49417 0.60404 0.0
H1568 H 0.8014 0.48104 0.70541 0.0
H1569 H 0.87704 0.47407 0.67871 0.0
H1570 H 0.76593 0.4742 0.64455 0.0
H1571 H 0.76622 0.44238 0.65534 0.0
H1572 H 0.76306 0.46966 0.67833 0.0
H1573 H 0.88349 0.46159 0.63571 0.0
H1574 H 0.85974 0.43567 0.62266 0.0
H1575 H 0.85778 0.46742 0.61197 0.0
H1576 H 0.79016 0.38993 0.58531 0.0
H1577 H 0.78528 0.46613 0.55935 0.0
H1578 H 0.79767 0.40864 0.6522 0.0
H1579 H 0.82916 0.40576 0.64117 0.0
H1580 H 0.80252 0.38283 0.62817 0.0
H1581 H 0.79344 0.50112 0.62054 0.0
H1582 H 0.79777 0.50408 0.58673 0.0
H1583 H 0.82504 0.49998 0.60937 0.0
C1584 C 0.4506 0.06852 0.23388 0.0
C1585 C 0.43137 0.07246 0.25098 0.0
C1586 C 0.46408 0.08963 0.22392 0.0
C1587 C 0.45831 0.11528 0.23135 0.0
C1588 C 0.43991 0.1194 0.24964 0.0
C1589 C 0.42667 0.09799 0.25917 0.0
C1590 C 0.48364 0.08443 0.20453 0.0
C1591 C 0.43339 0.14641 0.25832 0.0
C1592 C 0.50501 0.17235 0.2186 0.0
C1593 C 0.49302 0.1807 0.19588 0.0
C1594 C 0.49401 0.15108 0.23032 0.0
C1595 C 0.47045 0.13774 0.21906 0.0
C1596 C 0.45818 0.14614 0.19621 0.0
C1597 C 0.46958 0.16753 0.18493 0.0
C1598 C 0.50763 0.14284 0.25473 0.0
C1599 C 0.43302 0.13245 0.1836 0.0
H1600 H 0.45432 0.04891 0.22734 0.0
H1601 H 0.41197 0.10129 0.27249 0.0
H1602 H 0.47645 0.09038 0.18538 0.0
H1603 H 0.50229 0.09611 0.21057 0.0
H1604 H 0.48732 0.06361 0.20221 0.0
H1605 H 0.42008 0.14642 0.27406 0.0
H1606 H 0.45133 0.15889 0.26528 0.0
H1607 H 0.42402 0.15531 0.24166 0.0
H1608 H 0.52315 0.18237 0.22721 0.0
H1609 H 0.46022 0.17375 0.16735 0.0
H1610 H 0.5124 0.12243 0.25154 0.0
H1611 H 0.4946 0.14369 0.27066 0.0
H1612 H 0.52582 0.15526 0.26106 0.0
H1613 H 0.43558 0.1117 0.17846 0.0
H1614 H 0.42606 0.14122 0.16577 0.0
H1615 H 0.41779 0.13315 0.19742 0.0
C1616 C 0.04035 0.84167 0.66039 0.0
C1617 C 0.03671 0.82057 0.67543 0.0
C1618 C 0.05 0.86628 0.67177 0.0
C1619 C 0.05601 0.87 0.69894 0.0
C1620 C 0.0515 0.84908 0.7144 0.0
C1621 C 0.04198 0.82455 0.70245 0.0
C1622 C 0.05461 0.88808 0.65459 0.0
C1623 C 0.05744 0.85244 0.74347 0.0
C1624 C 0.10724 0.92507 0.72138 0.0
C1625 C 0.09204 0.94535 0.72813 0.0
C1626 C 0.09575 0.90023 0.71262 0.0
C1627 C 0.06839 0.89546 0.71076 0.0
C1628 C 0.05297 0.91554 0.71842 0.0
C1629 C 0.06497 0.9403 0.72692 0.0
C1630 C 0.11286 0.87934 0.70448 0.0
C1631 C 0.02376 0.91109 0.71692 0.0
H1632 H 0.03627 0.83887 0.63951 0.0
H1633 H 0.03912 0.80841 0.71425 0.0
H1634 H 0.04445 0.90507 0.66127 0.0
H1635 H 0.07564 0.89443 0.65583 0.0
H1636 H 0.04786 0.88227 0.63395 0.0
H1637 H 0.0509 0.83487 0.75291 0.0
H1638 H 0.07866 0.85665 0.74824 0.0
H1639 H 0.04795 0.8692 0.75184 0.0
H1640 H 0.12816 0.92874 0.7223 0.0
H1641 H 0.05308 0.95579 0.73228 0.0
H1642 H 0.10879 0.87366 0.6834 0.0
H1643 H 0.10856 0.86177 0.71477 0.0
H1644 H 0.13383 0.88578 0.70845 0.0
H1645 H 0.01591 0.90731 0.69635 0.0
H1646 H 0.01473 0.928 0.72572 0.0
H1647 H 0.01787 0.89371 0.72693 0.0
C1648 C 0.4457 0.82531 0.33759 0.0
C1649 C 0.47243 0.82301 0.33749 0.0
C1650 C 0.43459 0.84711 0.32836 0.0
C1651 C 0.45074 0.86743 0.31966 0.0
C1652 C 0.47782 0.8654 0.32014 0.0
C1653 C 0.48825 0.84308 0.32864 0.0
C1654 C 0.40555 0.84815 0.32743 0.0
C1655 C 0.49586 0.88685 0.31172 0.0
C1656 C 0.42486 0.91326 0.27208 0.0
C1657 C 0.4212 0.93522 0.28849 0.0
C1658 C 0.43347 0.89077 0.28208 0.0
C1659 C 0.4394 0.89045 0.30915 0.0
C1660 C 0.43572 0.9126 0.32585 0.0
C1661 C 0.42624 0.93459 0.31534 0.0
C1662 C 0.4364 0.8674 0.26362 0.0
C1663 C 0.44253 0.91336 0.35472 0.0
H1664 H 0.43341 0.80983 0.34439 0.0
H1665 H 0.50898 0.84157 0.32886 0.0
H1666 H 0.40078 0.8657 0.33909 0.0
H1667 H 0.39761 0.8496 0.30716 0.0
H1668 H 0.3957 0.83078 0.33483 0.0
H1669 H 0.51659 0.88302 0.31485 0.0
H1670 H 0.49133 0.88915 0.29084 0.0
H1671 H 0.49304 0.90556 0.32259 0.0
H1672 H 0.42067 0.91353 0.25132 0.0
H1673 H 0.4235 0.95155 0.32807 0.0
H1674 H 0.42582 0.84989 0.26997 0.0
H1675 H 0.45716 0.86366 0.26371 0.0
H1676 H 0.42899 0.87002 0.24341 0.0
H1677 H 0.4317 0.89702 0.36281 0.0
H1678 H 0.43814 0.93184 0.36511 0.0
H1679 H 0.46352 0.911 0.35862 0.0
C1680 C 0.84582 0.65823 0.04176 0.0
C1681 C 0.8258 0.67369 0.03488 0.0
C1682 C 0.87088 0.66939 0.05017 0.0
C1683 C 0.87616 0.69667 0.05154 0.0
C1684 C 0.85634 0.71234 0.0437 0.0
C1685 C 0.83134 0.70068 0.03558 0.0
C1686 C 0.89144 0.65201 0.05854 0.0
C1687 C 0.86132 0.74148 0.04465 0.0
C1688 C 0.93023 0.72463 0.10167 0.0
C1689 C 0.95145 0.72762 0.08665 0.0
C1690 C 0.90554 0.71521 0.09034 0.0
C1691 C 0.90181 0.70879 0.06324 0.0
C1692 C 0.92285 0.71261 0.04778 0.0
C1693 C 0.94749 0.7219 0.05969 0.0
C1694 C 0.88363 0.71131 0.10755 0.0
C1695 C 0.9195 0.70624 0.01877 0.0
H1696 H 0.84178 0.63737 0.04123 0.0
H1697 H 0.81607 0.71277 0.03011 0.0
H1698 H 0.90906 0.65583 0.04819 0.0
H1699 H 0.89717 0.65629 0.07959 0.0
H1700 H 0.88464 0.63109 0.05485 0.0
H1701 H 0.84463 0.75066 0.03561 0.0
H1702 H 0.86515 0.74968 0.06512 0.0
H1703 H 0.87882 0.74682 0.0346 0.0
H1704 H 0.93299 0.72905 0.12251 0.0
H1705 H 0.96371 0.72426 0.04791 0.0
H1706 H 0.87687 0.69039 0.10657 0.0
H1707 H 0.8669 0.72173 0.10068 0.0
H1708 H 0.8895 0.71824 0.12813 0.0
H1709 H 0.91492 0.68503 0.01432 0.0
H1710 H 0.93719 0.71229 0.00928 0.0
H1711 H 0.90295 0.71591 0.01018 0.0
C1712 C 0.58393 0.2744 0.54386 0.0
C1713 C 0.57949 0.28253 0.56944 0.0
C1714 C 0.6042 0.28645 0.53153 0.0
C1715 C 0.62074 0.30684 0.54524 0.0
C1716 C 0.61621 0.31531 0.57099 0.0
C1717 C 0.5955 0.30319 0.58271 0.0
C1718 C 0.6081 0.27715 0.50392 0.0
C1719 C 0.63359 0.33681 0.58638 0.0
C1720 C 0.68902 0.32088 0.52513 0.0
C1721 C 0.68685 0.34391 0.51296 0.0
C1722 C 0.66756 0.30839 0.53534 0.0
C1723 C 0.64321 0.31892 0.53295 0.0
C1724 C 0.64061 0.34147 0.51963 0.0
C1725 C 0.66249 0.35382 0.50999 0.0
C1726 C 0.67121 0.2845 0.5496 0.0
C1727 C 0.61486 0.35299 0.5162 0.0
H1728 H 0.57153 0.25853 0.53342 0.0
H1729 H 0.59226 0.30949 0.60251 0.0
H1730 H 0.60818 0.29367 0.49159 0.0
H1731 H 0.62722 0.26909 0.50315 0.0
H1732 H 0.59277 0.26197 0.49552 0.0
H1733 H 0.62732 0.34129 0.60609 0.0
H1734 H 0.65381 0.33121 0.58832 0.0
H1735 H 0.6338 0.35471 0.57603 0.0
H1736 H 0.70778 0.31317 0.52769 0.0
H1737 H 0.6606 0.37154 0.50052 0.0
H1738 H 0.65717 0.26822 0.54112 0.0
H1739 H 0.66731 0.28847 0.57018 0.0
H1740 H 0.69115 0.27824 0.54899 0.0
H1741 H 0.59959 0.33794 0.50749 0.0
H1742 H 0.61562 0.36941 0.50371 0.0
H1743 H 0.60897 0.3601 0.53539 0.0
C1744 C 0.25779 0.41232 0.10566 0.0
C1745 C 0.25501 0.42241 0.08138 0.0
C1746 C 0.24799 0.42449 0.12751 0.0
C1747 C 0.23469 0.44707 0.12498 0.0
C1748 C 0.23251 0.4578 0.10073 0.0
C1749 C 0.24287 0.44547 0.07929 0.0
C1750 C 0.2512 0.41276 0.15315 0.0
C1751 C 0.21828 0.48172 0.09714 0.0
C1752 C 0.18427 0.46244 0.17206 0.0
C1753 C 0.19733 0.4831 0.18823 0.0
C1754 C 0.1963 0.45039 0.15155 0.0
C1755 C 0.22215 0.45893 0.14737 0.0
C1756 C 0.23568 0.47927 0.16413 0.0
C1757 C 0.22305 0.49124 0.18421 0.0
C1758 C 0.1811 0.42896 0.13393 0.0
C1759 C 0.26339 0.48863 0.16062 0.0
H1760 H 0.26724 0.39458 0.10749 0.0
H1761 H 0.24045 0.45333 0.0606 0.0
H1762 H 0.25975 0.42772 0.16858 0.0
H1763 H 0.23194 0.40552 0.1588 0.0
H1764 H 0.26376 0.3964 0.15239 0.0
H1765 H 0.21908 0.48816 0.0773 0.0
H1766 H 0.19763 0.47769 0.10083 0.0
H1767 H 0.22666 0.49789 0.11134 0.0
H1768 H 0.16437 0.45614 0.17497 0.0
H1769 H 0.23332 0.50711 0.19673 0.0
H1770 H 0.19152 0.41111 0.13367 0.0
H1771 H 0.17929 0.43473 0.11378 0.0
H1772 H 0.16132 0.42432 0.14001 0.0
H1773 H 0.27571 0.4721 0.16046 0.0
H1774 H 0.27166 0.50362 0.17618 0.0
H1775 H 0.26437 0.49696 0.14166 0.0
C1776 C 0.34144 0.44976 0.83174 0.0
C1777 C 0.34414 0.4767 0.83046 0.0
C1778 C 0.33278 0.43895 0.85391 0.0
C1779 C 0.32766 0.45553 0.87563 0.0
C1780 C 0.33131 0.48278 0.87468 0.0
C1781 C 0.33903 0.493 0.85197 0.0
C1782 C 0.32833 0.40984 0.85379 0.0
C1783 C 0.32685 0.50119 0.89761 0.0
C1784 C 0.28016 0.43356 0.9233 0.0
C1785 C 0.29672 0.42646 0.94372 0.0
C1786 C 0.28995 0.44214 0.90073 0.0
C1787 C 0.3171 0.4446 0.89882 0.0
C1788 C 0.33398 0.43763 0.91949 0.0
C1789 C 0.32354 0.42816 0.94152 0.0
C1790 C 0.27119 0.4486 0.8789 0.0
C1791 C 0.36305 0.44077 0.91861 0.0
H1792 H 0.34531 0.43713 0.81509 0.0
H1793 H 0.34143 0.51386 0.85118 0.0
H1794 H 0.3398 0.40298 0.87044 0.0
H1795 H 0.30757 0.40431 0.85603 0.0
H1796 H 0.33365 0.39963 0.8356 0.0
H1797 H 0.33275 0.52171 0.89458 0.0
H1798 H 0.30601 0.49957 0.90114 0.0
H1799 H 0.3379 0.49599 0.91536 0.0
H1800 H 0.25938 0.43192 0.92477 0.0
H1801 H 0.33638 0.42273 0.9573 0.0
H1802 H 0.27503 0.43786 0.86045 0.0
H1803 H 0.27392 0.4696 0.87621 0.0
H1804 H 0.25064 0.44376 0.8826 0.0
H1805 H 0.36877 0.42941 0.90131 0.0
H1806 H 0.37351 0.43441 0.93619 0.0
H1807 H 0.36945 0.46144 0.91685 0.0
C1808 C 0.30041 0.58286 0.59835 0.0
C1809 C 0.27875 0.57055 0.58306 0.0
C1810 C 0.31175 0.57112 0.61943 0.0
C1811 C 0.30138 0.54632 0.62518 0.0
C1812 C 0.27987 0.53356 0.60947 0.0
C1813 C 0.26872 0.54588 0.58871 0.0
C1814 C 0.33458 0.58545 0.63582 0.0
C1815 C 0.26848 0.50698 0.61472 0.0
C1816 C 0.34661 0.50932 0.6669 0.0
C1817 C 0.33823 0.5146 0.69168 0.0
C1818 C 0.33416 0.51866 0.64493 0.0
C1819 C 0.31299 0.53394 0.64782 0.0
C1820 C 0.30375 0.53844 0.6726 0.0
C1821 C 0.31636 0.52857 0.6942 0.0
C1822 C 0.34432 0.51301 0.6188 0.0
C1823 C 0.28129 0.55473 0.67651 0.0
H1824 H 0.3082 0.60195 0.59419 0.0
H1825 H 0.25203 0.53618 0.57694 0.0
H1826 H 0.32971 0.58864 0.65619 0.0
H1827 H 0.35148 0.57364 0.63588 0.0
H1828 H 0.34035 0.60456 0.62877 0.0
H1829 H 0.25229 0.49931 0.60017 0.0
H1830 H 0.28371 0.49314 0.61467 0.0
H1831 H 0.26114 0.50779 0.63424 0.0
H1832 H 0.3634 0.49843 0.66472 0.0
H1833 H 0.30982 0.53288 0.71326 0.0
H1834 H 0.3528 0.53128 0.61194 0.0
H1835 H 0.32823 0.50503 0.60429 0.0
H1836 H 0.35943 0.49901 0.61945 0.0
H1837 H 0.28673 0.57492 0.67207 0.0
H1838 H 0.2755 0.55518 0.69667 0.0
H1839 H 0.26426 0.54716 0.66301 0.0
C1840 C 0.15861 0.54191 0.34299 0.0
C1841 C 0.174 0.5361 0.32262 0.0
C1842 C 0.16988 0.55164 0.36763 0.0
C1843 C 0.19723 0.55552 0.37208 0.0
C1844 C 0.21293 0.54893 0.35189 0.0
C1845 C 0.20113 0.53935 0.32736 0.0
C1846 C 0.15248 0.55852 0.38868 0.0
C1847 C 0.24217 0.55263 0.356 0.0
C1848 C 0.22323 0.60679 0.42595 0.0
C1849 C 0.2286 0.59172 0.4467 0.0
C1850 C 0.21355 0.59518 0.40143 0.0
C1851 C 0.20924 0.56782 0.39748 0.0
C1852 C 0.21531 0.55244 0.41809 0.0
C1853 C 0.22486 0.56457 0.44249 0.0
C1854 C 0.20724 0.61226 0.37994 0.0
C1855 C 0.21115 0.5232 0.41451 0.0
H1856 H 0.13764 0.53942 0.33957 0.0
H1857 H 0.21319 0.5348 0.31179 0.0
H1858 H 0.15772 0.54848 0.40619 0.0
H1859 H 0.15526 0.57969 0.39436 0.0
H1860 H 0.13163 0.55323 0.38242 0.0
H1861 H 0.2516 0.5449 0.33888 0.0
H1862 H 0.24852 0.5736 0.35996 0.0
H1863 H 0.24914 0.54285 0.37314 0.0
H1864 H 0.22608 0.62776 0.42896 0.0
H1865 H 0.22905 0.55276 0.45836 0.0
H1866 H 0.18614 0.60961 0.37389 0.0
H1867 H 0.21756 0.6066 0.36273 0.0
H1868 H 0.21265 0.63315 0.38589 0.0
H1869 H 0.19016 0.51714 0.41022 0.0
H1870 H 0.21836 0.51398 0.43198 0.0
H1871 H 0.22117 0.5157 0.39772 0.0
loop_
_geom_bond_atom_site_label_1
_geom_bond_atom_site_label_2
_geom_bond_distance
_geom_bond_site_symmetry_2
_ccdc_geom_bond_type
O0 Cd1 2.223 . S
O0 C8 1.315 . S
Cd1 O0 2.223 . S
Cd1 O4 2.297 . S
Cd1 O5 2.439 . S
Cd1 O11 2.240 1_455 S
Cd2 O3 2.240 1_655 S
Cd2 O10 2.223 . S
Cd2 O12 2.297 . S
Cd2 O13 2.439 . S
O3 Cd2 2.240 1_455 S
O3 C8 1.279 . S
O4 Cd1 2.297 . S
O4 C6 1.247 . S
O5 Cd1 2.439 . S
O5 C6 1.208 . S
C6 O4 1.247 . S
C6 O5 1.208 . S
C7 O12 1.247 . S
C7 O13 1.208 . S
C8 O0 1.315 . S
C8 O3 1.279 . S
C9 O10 1.315 . S
C9 O11 1.279 . S
O10 Cd2 2.223 . S
O10 C9 1.315 . S
O11 Cd1 2.240 1_655 S
O11 C9 1.279 . S
O12 Cd2 2.297 . S
O12 C7 1.247 . S
O13 Cd2 2.439 . S
O13 C7 1.208 . S
O14 Cd15 2.223 . S
O14 C22 1.315 . S
Cd15 O14 2.223 . S
Cd15 O18 2.297 . S
Cd15 O19 2.439 1_455 S
Cd15 O25 2.240 . S
Cd16 O17 2.240 . S
Cd16 O24 2.223 . S
Cd16 O26 2.297 1_455 S
Cd16 O27 2.439 1_455 S
O17 Cd16 2.240 . S
O17 C22 1.279 . S
O18 Cd15 2.297 . S
O18 C20 1.247 1_455 S
O19 Cd15 2.439 1_655 S
O19 C20 1.208 . S
C20 O18 1.247 1_655 S
C20 O19 1.208 . S
C21 O26 1.247 . S
C21 O27 1.208 . S
C22 O14 1.315 . S
C22 O17 1.279 . S
C23 O24 1.315 . S
C23 O25 1.279 . S
O24 Cd16 2.223 . S
O24 C23 1.315 . S
O25 Cd15 2.240 . S
O25 C23 1.279 . S
O26 Cd16 2.297 1_655 S
O26 C21 1.247 . S
O27 Cd16 2.439 1_655 S
O27 C21 1.208 . S
O28 Cd29 2.223 . S
O28 C36 1.315 . S
Cd29 O28 2.223 . S
Cd29 O32 2.297 . S
Cd29 O33 2.439 . S
Cd29 O39 2.240 . S
Cd30 O31 2.240 . S
Cd30 O38 2.223 . S
Cd30 O40 2.297 . S
Cd30 O41 2.439 . S
O31 Cd30 2.240 . S
O31 C36 1.279 . S
O32 Cd29 2.297 . S
O32 C34 1.247 . S
O33 Cd29 2.439 . S
O33 C34 1.208 . S
C34 O32 1.247 . S
C34 O33 1.208 . S
C35 O40 1.247 . S
C35 O41 1.208 . S
C36 O28 1.315 . S
C36 O31 1.279 . S
C37 O38 1.315 . S
C37 O39 1.279 . S
O38 Cd30 2.223 . S
O38 C37 1.315 . S
O39 Cd29 2.240 . S
O39 C37 1.279 . S
O40 Cd30 2.297 . S
O40 C35 1.247 . S
O41 Cd30 2.439 . S
O41 C35 1.208 . S
O42 Cd43 2.223 . S
O42 C50 1.315 . S
Cd43 O42 2.223 . S
Cd43 O46 2.297 . S
Cd43 O47 2.439 . S
Cd43 O53 2.240 . S
Cd44 O45 2.240 . S
Cd44 O52 2.223 . S
Cd44 O54 2.297 . S
Cd44 O55 2.439 . S
O45 Cd44 2.240 . S
O45 C50 1.279 . S
O46 Cd43 2.297 . S
O46 C48 1.247 . S
O47 Cd43 2.439 . S
O47 C48 1.208 . S
C48 O46 1.247 . S
C48 O47 1.208 . S
C49 O54 1.247 . S
C49 O55 1.208 . S
C50 O42 1.315 . S
C50 O45 1.279 . S
C51 O52 1.315 . S
C51 O53 1.279 . S
O52 Cd44 2.223 . S
O52 C51 1.315 . S
O53 Cd43 2.240 . S
O53 C51 1.279 . S
O54 Cd44 2.297 . S
O54 C49 1.247 . S
O55 Cd44 2.439 . S
O55 C49 1.208 . S
O56 Cd57 2.223 . S
O56 C64 1.315 . S
Cd57 O56 2.223 . S
Cd57 O60 2.297 . S
Cd57 O61 2.439 . S
Cd57 O67 2.240 1_455 S
Cd58 O59 2.240 1_655 S
Cd58 O66 2.223 . S
Cd58 O68 2.297 . S
Cd58 O69 2.439 . S
O59 Cd58 2.240 1_455 S
O59 C64 1.279 . S
O60 Cd57 2.297 . S
O60 C62 1.247 . S
O61 Cd57 2.439 . S
O61 C62 1.208 . S
C62 O60 1.247 . S
C62 O61 1.208 . S
C63 O68 1.247 . S
C63 O69 1.208 . S
C64 O56 1.315 . S
C64 O59 1.279 . S
C65 O66 1.315 . S
C65 O67 1.279 . S
O66 Cd58 2.223 . S
O66 C65 1.315 . S
O67 Cd57 2.240 1_655 S
O67 C65 1.279 . S
O68 Cd58 2.297 . S
O68 C63 1.247 . S
O69 Cd58 2.439 . S
O69 C63 1.208 . S
O70 Cd71 2.223 . S
O70 C78 1.315 . S
Cd71 O70 2.223 . S
Cd71 O74 2.297 . S
Cd71 O75 2.439 . S
Cd71 O81 2.240 . S
Cd72 O73 2.240 . S
Cd72 O80 2.223 . S
Cd72 O82 2.297 . S
Cd72 O83 2.439 . S
O73 Cd72 2.240 . S
O73 C78 1.279 . S
O74 Cd71 2.297 . S
O74 C76 1.247 . S
O75 Cd71 2.439 . S
O75 C76 1.208 . S
C76 O74 1.247 . S
C76 O75 1.208 . S
C77 O82 1.247 . S
C77 O83 1.208 . S
C78 O70 1.315 . S
C78 O73 1.279 . S
C79 O80 1.315 . S
C79 O81 1.279 . S
O80 Cd72 2.223 . S
O80 C79 1.315 . S
O81 Cd71 2.240 . S
O81 C79 1.279 . S
O82 Cd72 2.297 . S
O82 C77 1.247 . S
O83 Cd72 2.439 . S
O83 C77 1.208 . S
O84 Cd85 2.223 . S
O84 C92 1.315 . S
Cd85 O84 2.223 . S
Cd85 O88 2.297 . S
Cd85 O89 2.439 . S
Cd85 O95 2.240 . S
Cd86 O87 2.240 . S
Cd86 O94 2.223 . S
Cd86 O96 2.297 . S
Cd86 O97 2.439 . S
O87 Cd86 2.240 . S
O87 C92 1.279 . S
O88 Cd85 2.297 . S
O88 C90 1.247 . S
O89 Cd85 2.439 . S
O89 C90 1.208 . S
C90 O88 1.247 . S
C90 O89 1.208 . S
C91 O96 1.247 . S
C91 O97 1.208 . S
C92 O84 1.315 . S
C92 O87 1.279 . S
C93 O94 1.315 . S
C93 O95 1.279 . S
O94 Cd86 2.223 . S
O94 C93 1.315 . S
O95 Cd85 2.240 . S
O95 C93 1.279 . S
O96 Cd86 2.297 . S
O96 C91 1.247 . S
O97 Cd86 2.439 . S
O97 C91 1.208 . S
O98 Cd99 2.223 . S
O98 C106 1.315 . S
Cd99 O98 2.223 . S
Cd99 O102 2.297 1_455 S
Cd99 O103 2.439 1_455 S
Cd99 O109 2.240 . S
Cd100 O101 2.240 . S
Cd100 O108 2.223 . S
Cd100 O110 2.297 . S
Cd100 O111 2.439 1_455 S
O101 Cd100 2.240 . S
O101 C106 1.279 . S
O102 Cd99 2.297 1_655 S
O102 C104 1.247 . S
O103 Cd99 2.439 1_655 S
O103 C104 1.208 . S
C104 O102 1.247 . S
C104 O103 1.208 . S
C105 O110 1.247 1_655 S
C105 O111 1.208 . S
C106 O98 1.315 . S
C106 O101 1.279 . S
C107 O108 1.315 . S
C107 O109 1.279 . S
O108 Cd100 2.223 . S
O108 C107 1.315 . S
O109 Cd99 2.240 . S
O109 C107 1.279 . S
O110 Cd100 2.297 . S
O110 C105 1.247 1_455 S
O111 Cd100 2.439 1_655 S
O111 C105 1.208 . S
O112 Cd113 2.223 . S
O112 C120 1.315 . S
Cd113 O112 2.223 . S
Cd113 O116 2.297 . S
Cd113 O117 2.439 . S
Cd113 O123 2.240 1_545 S
Cd114 O115 2.240 1_565 S
Cd114 O122 2.223 . S
Cd114 O124 2.297 . S
Cd114 O125 2.439 . S
O115 Cd114 2.240 1_545 S
O115 C120 1.279 . S
O116 Cd113 2.297 . S
O116 C118 1.247 . S
O117 Cd113 2.439 . S
O117 C118 1.208 . S
C118 O116 1.247 . S
C118 O117 1.208 . S
C119 O124 1.247 . S
C119 O125 1.208 . S
C120 O112 1.315 . S
C120 O115 1.279 . S
C121 O122 1.315 . S
C121 O123 1.279 . S
O122 Cd114 2.223 . S
O122 C121 1.315 . S
O123 Cd113 2.240 1_565 S
O123 C121 1.279 . S
O124 Cd114 2.297 . S
O124 C119 1.247 . S
O125 Cd114 2.439 . S
O125 C119 1.208 . S
O126 Cd127 2.223 . S
O126 C134 1.315 . S
Cd127 O126 2.223 . S
Cd127 O130 2.297 . S
Cd127 O131 2.439 . S
Cd127 O137 2.240 . S
Cd128 O129 2.240 . S
Cd128 O136 2.223 . S
Cd128 O138 2.297 . S
Cd128 O139 2.439 . S
O129 Cd128 2.240 . S
O129 C134 1.279 . S
O130 Cd127 2.297 . S
O130 C132 1.247 . S
O131 Cd127 2.439 . S
O131 C132 1.208 . S
C132 O130 1.247 . S
C132 O131 1.208 . S
C133 O138 1.247 . S
C133 O139 1.208 . S
C134 O126 1.315 . S
C134 O129 1.279 . S
C135 O136 1.315 . S
C135 O137 1.279 . S
O136 Cd128 2.223 . S
O136 C135 1.315 . S
O137 Cd127 2.240 . S
O137 C135 1.279 . S
O138 Cd128 2.297 . S
O138 C133 1.247 . S
O139 Cd128 2.439 . S
O139 C133 1.208 . S
O140 Cd141 2.223 . S
O140 C148 1.315 . S
Cd141 O140 2.223 . S
Cd141 O144 2.297 . S
Cd141 O145 2.439 . S
Cd141 O151 2.240 1_545 S
Cd142 O143 2.240 1_565 S
Cd142 O150 2.223 . S
Cd142 O152 2.297 . S
Cd142 O153 2.439 . S
O143 Cd142 2.240 1_545 S
O143 C148 1.279 . S
O144 Cd141 2.297 . S
O144 C146 1.247 . S
O145 Cd141 2.439 . S
O145 C146 1.208 . S
C146 O144 1.247 . S
C146 O145 1.208 . S
C147 O152 1.247 . S
C147 O153 1.208 . S
C148 O140 1.315 . S
C148 O143 1.279 . S
C149 O150 1.315 . S
C149 O151 1.279 . S
O150 Cd142 2.223 . S
O150 C149 1.315 . S
O151 Cd141 2.240 1_565 S
O151 C149 1.279 . S
O152 Cd142 2.297 . S
O152 C147 1.247 . S
O153 Cd142 2.439 . S
O153 C147 1.208 . S
O154 Cd155 2.223 . S
O154 C162 1.315 . S
Cd155 O154 2.223 . S
Cd155 O158 2.297 1_554 S
Cd155 O159 2.439 1_554 S
Cd155 O165 2.240 . S
Cd156 O157 2.240 . S
Cd156 O164 2.223 . S
Cd156 O166 2.297 . S
Cd156 O167 2.439 1_554 S
O157 Cd156 2.240 . S
O157 C162 1.279 . S
O158 Cd155 2.297 1_556 S
O158 C160 1.247 . S
O159 Cd155 2.439 1_556 S
O159 C160 1.208 . S
C160 O158 1.247 . S
C160 O159 1.208 . S
C161 O166 1.247 1_556 S
C161 O167 1.208 . S
C162 O154 1.315 . S
C162 O157 1.279 . S
C163 O164 1.315 . S
C163 O165 1.279 . S
O164 Cd156 2.223 . S
O164 C163 1.315 . S
O165 Cd155 2.240 . S
O165 C163 1.279 . S
O166 Cd156 2.297 . S
O166 C161 1.247 1_554 S
O167 Cd156 2.439 1_556 S
O167 C161 1.208 . S
O168 Cd169 2.223 . S
O168 C176 1.315 . S
Cd169 O168 2.223 . S
Cd169 O172 2.297 . S
Cd169 O173 2.439 . S
Cd169 O179 2.240 1_554 S
Cd170 O171 2.240 1_556 S
Cd170 O178 2.223 . S
Cd170 O180 2.297 . S
Cd170 O181 2.439 . S
O171 Cd170 2.240 1_554 S
O171 C176 1.279 . S
O172 Cd169 2.297 . S
O172 C174 1.247 . S
O173 Cd169 2.439 . S
O173 C174 1.208 . S
C174 O172 1.247 . S
C174 O173 1.208 . S
C175 O180 1.247 . S
C175 O181 1.208 . S
C176 O168 1.315 . S
C176 O171 1.279 . S
C177 O178 1.315 . S
C177 O179 1.279 . S
O178 Cd170 2.223 . S
O178 C177 1.315 . S
O179 Cd169 2.240 1_556 S
O179 C177 1.279 . S
O180 Cd170 2.297 . S
O180 C175 1.247 . S
O181 Cd170 2.439 . S
O181 C175 1.208 . S
O182 Cd183 2.223 . S
O182 C190 1.315 . S
Cd183 O182 2.223 . S
Cd183 O186 2.297 . S
Cd183 O187 2.439 . S
Cd183 O193 2.240 1_554 S
Cd184 O185 2.240 1_556 S
Cd184 O192 2.223 . S
Cd184 O194 2.297 . S
Cd184 O195 2.439 . S
O185 Cd184 2.240 1_554 S
O185 C190 1.279 . S
O186 Cd183 2.297 . S
O186 C188 1.247 . S
O187 Cd183 2.439 . S
O187 C188 1.208 . S
C188 O186 1.247 . S
C188 O187 1.208 . S
C189 O194 1.247 . S
C189 O195 1.208 . S
C190 O182 1.315 . S
C190 O185 1.279 . S
C191 O192 1.315 . S
C191 O193 1.279 . S
O192 Cd184 2.223 . S
O192 C191 1.315 . S
O193 Cd183 2.240 1_556 S
O193 C191 1.279 . S
O194 Cd184 2.297 . S
O194 C189 1.247 . S
O195 Cd184 2.439 . S
O195 C189 1.208 . S
O196 Cd197 2.223 . S
O196 C204 1.315 . S
Cd197 O196 2.223 . S
Cd197 O200 2.297 . S
Cd197 O201 2.439 . S
Cd197 O207 2.240 . S
Cd198 O199 2.240 . S
Cd198 O206 2.223 . S
Cd198 O208 2.297 . S
Cd198 O209 2.439 . S
O199 Cd198 2.240 . S
O199 C204 1.279 . S
O200 Cd197 2.297 . S
O200 C202 1.247 . S
O201 Cd197 2.439 . S
O201 C202 1.208 . S
C202 O200 1.247 . S
C202 O201 1.208 . S
C203 O208 1.247 . S
C203 O209 1.208 . S
C204 O196 1.315 . S
C204 O199 1.279 . S
C205 O206 1.315 . S
C205 O207 1.279 . S
O206 Cd198 2.223 . S
O206 C205 1.315 . S
O207 Cd197 2.240 . S
O207 C205 1.279 . S
O208 Cd198 2.297 . S
O208 C203 1.247 . S
O209 Cd198 2.439 . S
O209 C203 1.208 . S
O210 Cd211 2.223 . S
O210 C218 1.315 . S
Cd211 O210 2.223 . S
Cd211 O214 2.297 . S
Cd211 O215 2.439 . S
Cd211 O221 2.240 . S
Cd212 O213 2.240 . S
Cd212 O220 2.223 . S
Cd212 O222 2.297 . S
Cd212 O223 2.439 . S
O213 Cd212 2.240 . S
O213 C218 1.279 . S
O214 Cd211 2.297 . S
O214 C216 1.247 . S
O215 Cd211 2.439 . S
O215 C216 1.208 . S
C216 O214 1.247 . S
C216 O215 1.208 . S
C217 O222 1.247 . S
C217 O223 1.208 . S
C218 O210 1.315 . S
C218 O213 1.279 . S
C219 O220 1.315 . S
C219 O221 1.279 . S
O220 Cd212 2.223 . S
O220 C219 1.315 . S
O221 Cd211 2.240 . S
O221 C219 1.279 . S
O222 Cd212 2.297 . S
O222 C217 1.247 . S
O223 Cd212 2.439 . S
O223 C217 1.208 . S
O224 Cd225 2.223 . S
O224 C232 1.315 . S
Cd225 O224 2.223 . S
Cd225 O228 2.297 1_545 S
Cd225 O229 2.439 1_545 S
Cd225 O235 2.240 . S
Cd226 O227 2.240 . S
Cd226 O234 2.223 . S
Cd226 O236 2.297 . S
Cd226 O237 2.439 1_545 S
O227 Cd226 2.240 . S
O227 C232 1.279 . S
O228 Cd225 2.297 1_565 S
O228 C230 1.247 . S
O229 Cd225 2.439 1_565 S
O229 C230 1.208 . S
C230 O228 1.247 . S
C230 O229 1.208 . S
C231 O236 1.247 1_565 S
C231 O237 1.208 . S
C232 O224 1.315 . S
C232 O227 1.279 . S
C233 O234 1.315 . S
C233 O235 1.279 . S
O234 Cd226 2.223 . S
O234 C233 1.315 . S
O235 Cd225 2.240 . S
O235 C233 1.279 . S
O236 Cd226 2.297 . S
O236 C231 1.247 1_545 S
O237 Cd226 2.439 1_565 S
O237 C231 1.208 . S
O238 Cd239 2.223 . S
O238 C246 1.315 . S
Cd239 O238 2.223 . S
Cd239 O242 2.297 . S
Cd239 O243 2.439 . S
Cd239 O249 2.240 . S
Cd240 O241 2.240 . S
Cd240 O248 2.223 . S
Cd240 O250 2.297 . S
Cd240 O251 2.439 . S
O241 Cd240 2.240 . S
O241 C246 1.279 . S
O242 Cd239 2.297 . S
O242 C244 1.247 . S
O243 Cd239 2.439 . S
O243 C244 1.208 . S
C244 O242 1.247 . S
C244 O243 1.208 . S
C245 O250 1.247 . S
C245 O251 1.208 . S
C246 O238 1.315 . S
C246 O241 1.279 . S
C247 O248 1.315 . S
C247 O249 1.279 . S
O248 Cd240 2.223 . S
O248 C247 1.315 . S
O249 Cd239 2.240 . S
O249 C247 1.279 . S
O250 Cd240 2.297 . S
O250 C245 1.247 . S
O251 Cd240 2.439 . S
O251 C245 1.208 . S
O252 Cd253 2.223 . S
O252 C260 1.315 . S
Cd253 O252 2.223 . S
Cd253 O256 2.297 . S
Cd253 O257 2.439 . S
Cd253 O263 2.240 . S
Cd254 O255 2.240 . S
Cd254 O262 2.223 . S
Cd254 O264 2.297 . S
Cd254 O265 2.439 . S
O255 Cd254 2.240 . S
O255 C260 1.279 . S
O256 Cd253 2.297 . S
O256 C258 1.247 . S
O257 Cd253 2.439 . S
O257 C258 1.208 . S
C258 O256 1.247 . S
C258 O257 1.208 . S
C259 O264 1.247 . S
C259 O265 1.208 . S
C260 O252 1.315 . S
C260 O255 1.279 . S
C261 O262 1.315 . S
C261 O263 1.279 . S
O262 Cd254 2.223 . S
O262 C261 1.315 . S
O263 Cd253 2.240 . S
O263 C261 1.279 . S
O264 Cd254 2.297 . S
O264 C259 1.247 . S
O265 Cd254 2.439 . S
O265 C259 1.208 . S
O266 Cd267 2.223 . S
O266 C274 1.315 . S
Cd267 O266 2.223 . S
Cd267 O270 2.297 . S
Cd267 O271 2.439 1_545 S
Cd267 O277 2.240 . S
Cd268 O269 2.240 . S
Cd268 O276 2.223 . S
Cd268 O278 2.297 1_545 S
Cd268 O279 2.439 1_545 S
O269 Cd268 2.240 . S
O269 C274 1.279 . S
O270 Cd267 2.297 . S
O270 C272 1.247 1_545 S
O271 Cd267 2.439 1_565 S
O271 C272 1.208 . S
C272 O270 1.247 1_565 S
C272 O271 1.208 . S
C273 O278 1.247 . S
C273 O279 1.208 . S
C274 O266 1.315 . S
C274 O269 1.279 . S
C275 O276 1.315 . S
C275 O277 1.279 . S
O276 Cd268 2.223 . S
O276 C275 1.315 . S
O277 Cd267 2.240 . S
O277 C275 1.279 . S
O278 Cd268 2.297 1_565 S
O278 C273 1.247 . S
O279 Cd268 2.439 1_565 S
O279 C273 1.208 . S
O280 Cd281 2.223 . S
O280 C288 1.315 . S
Cd281 O280 2.223 . S
Cd281 O284 2.297 . S
Cd281 O285 2.439 1_554 S
Cd281 O291 2.240 . S
Cd282 O283 2.240 . S
Cd282 O290 2.223 . S
Cd282 O292 2.297 1_554 S
Cd282 O293 2.439 1_554 S
O283 Cd282 2.240 . S
O283 C288 1.279 . S
O284 Cd281 2.297 . S
O284 C286 1.247 1_554 S
O285 Cd281 2.439 1_556 S
O285 C286 1.208 . S
C286 O284 1.247 1_556 S
C286 O285 1.208 . S
C287 O292 1.247 . S
C287 O293 1.208 . S
C288 O280 1.315 . S
C288 O283 1.279 . S
C289 O290 1.315 . S
C289 O291 1.279 . S
O290 Cd282 2.223 . S
O290 C289 1.315 . S
O291 Cd281 2.240 . S
O291 C289 1.279 . S
O292 Cd282 2.297 1_556 S
O292 C287 1.247 . S
O293 Cd282 2.439 1_556 S
O293 C287 1.208 . S
O294 Cd295 2.223 . S
O294 C302 1.315 . S
Cd295 O294 2.223 . S
Cd295 O298 2.297 . S
Cd295 O299 2.439 . S
Cd295 O305 2.240 . S
Cd296 O297 2.240 . S
Cd296 O304 2.223 . S
Cd296 O306 2.297 . S
Cd296 O307 2.439 . S
O297 Cd296 2.240 . S
O297 C302 1.279 . S
O298 Cd295 2.297 . S
O298 C300 1.247 . S
O299 Cd295 2.439 . S
O299 C300 1.208 . S
C300 O298 1.247 . S
C300 O299 1.208 . S
C301 O306 1.247 . S
C301 O307 1.208 . S
C302 O294 1.315 . S
C302 O297 1.279 . S
C303 O304 1.315 . S
C303 O305 1.279 . S
O304 Cd296 2.223 . S
O304 C303 1.315 . S
O305 Cd295 2.240 . S
O305 C303 1.279 . S
O306 Cd296 2.297 . S
O306 C301 1.247 . S
O307 Cd296 2.439 . S
O307 C301 1.208 . S
O308 Cd309 2.223 . S
O308 C316 1.315 . S
Cd309 O308 2.223 . S
Cd309 O312 2.297 . S
Cd309 O313 2.439 . S
Cd309 O319 2.240 . S
Cd310 O311 2.240 . S
Cd310 O318 2.223 . S
Cd310 O320 2.297 . S
Cd310 O321 2.439 . S
O311 Cd310 2.240 . S
O311 C316 1.279 . S
O312 Cd309 2.297 . S
O312 C314 1.247 . S
O313 Cd309 2.439 . S
O313 C314 1.208 . S
C314 O312 1.247 . S
C314 O313 1.208 . S
C315 O320 1.247 . S
C315 O321 1.208 . S
C316 O308 1.315 . S
C316 O311 1.279 . S
C317 O318 1.315 . S
C317 O319 1.279 . S
O318 Cd310 2.223 . S
O318 C317 1.315 . S
O319 Cd309 2.240 . S
O319 C317 1.279 . S
O320 Cd310 2.297 . S
O320 C315 1.247 . S
O321 Cd310 2.439 . S
O321 C315 1.208 . S
O322 Cd323 2.223 . S
O322 C330 1.315 . S
Cd323 O322 2.223 . S
Cd323 O326 2.297 . S
Cd323 O327 2.439 . S
Cd323 O333 2.240 . S
Cd324 O325 2.240 . S
Cd324 O332 2.223 . S
Cd324 O334 2.297 . S
Cd324 O335 2.439 . S
O325 Cd324 2.240 . S
O325 C330 1.279 . S
O326 Cd323 2.297 . S
O326 C328 1.247 . S
O327 Cd323 2.439 . S
O327 C328 1.208 . S
C328 O326 1.247 . S
C328 O327 1.208 . S
C329 O334 1.247 . S
C329 O335 1.208 . S
C330 O322 1.315 . S
C330 O325 1.279 . S
C331 O332 1.315 . S
C331 O333 1.279 . S
O332 Cd324 2.223 . S
O332 C331 1.315 . S
O333 Cd323 2.240 . S
O333 C331 1.279 . S
O334 Cd324 2.297 . S
O334 C329 1.247 . S
O335 Cd324 2.439 . S
O335 C329 1.208 . S
C336 C337 1.391 . S
C336 C338 1.394 . S
C336 H352 0.931 . S
C337 C336 1.391 . S
C337 C341 1.376 . S
C338 C336 1.394 . S
C338 C339 1.369 . S
C338 C342 1.531 . S
C339 C338 1.369 . S
C339 C340 1.410 . S
C339 C347 1.503 . S
C340 C339 1.410 . S
C340 C341 1.392 . S
C340 C343 1.511 . S
C341 C337 1.376 . S
C341 C340 1.392 . S
C341 H353 0.929 . S
C342 C338 1.531 . S
C342 H354 0.960 . S
C342 H355 0.962 . S
C342 H356 0.960 . S
C343 C340 1.511 . S
C343 H357 0.961 . S
C343 H358 0.961 . S
C343 H359 0.961 . S
C344 C345 1.370 . S
C344 C346 1.363 . S
C344 H360 0.931 . S
C345 C344 1.370 . S
C345 C349 1.408 . S
C346 C344 1.363 . S
C346 C347 1.370 . S
C346 C350 1.524 . S
C347 C339 1.503 . S
C347 C346 1.370 . S
C347 C348 1.403 . S
C348 C347 1.403 . S
C348 C349 1.404 . S
C348 C351 1.539 . S
C349 C345 1.408 . S
C349 C348 1.404 . S
C349 H361 0.930 . S
C350 C346 1.524 . S
C350 H362 0.956 . S
C350 H363 0.961 . S
C350 H364 0.961 . S
C351 C348 1.539 . S
C351 H365 0.958 . S
C351 H366 0.961 . S
C351 H367 0.960 . S
H352 C336 0.931 . S
H353 C341 0.929 . S
H354 C342 0.960 . S
H355 C342 0.962 . S
H356 C342 0.960 . S
H357 C343 0.961 . S
H358 C343 0.961 . S
H359 C343 0.961 . S
H360 C344 0.931 . S
H361 C349 0.930 . S
H362 C350 0.956 . S
H363 C350 0.961 . S
H364 C350 0.961 . S
H365 C351 0.958 . S
H366 C351 0.961 . S
H367 C351 0.960 . S
C368 C369 1.391 . S
C368 C370 1.394 . S
C368 H384 0.931 . S
C369 C368 1.391 . S
C369 C373 1.376 . S
C370 C368 1.394 . S
C370 C371 1.369 . S
C370 C374 1.531 . S
C371 C370 1.369 . S
C371 C372 1.410 . S
C371 C379 1.503 . S
C372 C371 1.410 . S
C372 C373 1.392 . S
C372 C375 1.511 . S
C373 C369 1.376 . S
C373 C372 1.392 . S
C373 H385 0.929 . S
C374 C370 1.531 . S
C374 H386 0.960 . S
C374 H387 0.962 . S
C374 H388 0.960 . S
C375 C372 1.511 . S
C375 H389 0.961 . S
C375 H390 0.961 . S
C375 H391 0.961 . S
C376 C377 1.370 . S
C376 C378 1.363 . S
C376 H392 0.931 . S
C377 C376 1.370 . S
C377 C381 1.408 . S
C378 C376 1.363 . S
C378 C379 1.370 . S
C378 C382 1.524 . S
C379 C371 1.503 . S
C379 C378 1.370 . S
C379 C380 1.403 . S
C380 C379 1.403 . S
C380 C381 1.404 . S
C380 C383 1.539 . S
C381 C377 1.408 . S
C381 C380 1.404 . S
C381 H393 0.930 . S
C382 C378 1.524 . S
C382 H394 0.956 . S
C382 H395 0.961 . S
C382 H396 0.961 . S
C383 C380 1.539 . S
C383 H397 0.958 . S
C383 H398 0.961 . S
C383 H399 0.960 . S
H384 C368 0.931 . S
H385 C373 0.929 . S
H386 C374 0.960 . S
H387 C374 0.962 . S
H388 C374 0.960 . S
H389 C375 0.961 . S
H390 C375 0.961 . S
H391 C375 0.961 . S
H392 C376 0.931 . S
H393 C381 0.930 . S
H394 C382 0.956 . S
H395 C382 0.961 . S
H396 C382 0.961 . S
H397 C383 0.958 . S
H398 C383 0.961 . S
H399 C383 0.960 . S
C400 C401 1.391 . S
C400 C402 1.394 . S
C400 H416 0.931 . S
C401 C400 1.391 . S
C401 C405 1.376 . S
C402 C400 1.394 . S
C402 C403 1.369 . S
C402 C406 1.531 . S
C403 C402 1.369 . S
C403 C404 1.410 . S
C403 C411 1.503 . S
C404 C403 1.410 . S
C404 C405 1.392 . S
C404 C407 1.511 . S
C405 C401 1.376 . S
C405 C404 1.392 . S
C405 H417 0.929 . S
C406 C402 1.531 . S
C406 H418 0.960 . S
C406 H419 0.962 . S
C406 H420 0.960 . S
C407 C404 1.511 . S
C407 H421 0.961 . S
C407 H422 0.961 . S
C407 H423 0.961 . S
C408 C409 1.370 . S
C408 C410 1.363 . S
C408 H424 0.931 . S
C409 C408 1.370 . S
C409 C413 1.408 . S
C410 C408 1.363 . S
C410 C411 1.370 . S
C410 C414 1.524 . S
C411 C403 1.503 . S
C411 C410 1.370 . S
C411 C412 1.403 . S
C412 C411 1.403 . S
C412 C413 1.404 . S
C412 C415 1.539 . S
C413 C409 1.408 . S
C413 C412 1.404 . S
C413 H425 0.930 . S
C414 C410 1.524 . S
C414 H426 0.956 . S
C414 H427 0.961 . S
C414 H428 0.961 . S
C415 C412 1.539 . S
C415 H429 0.958 . S
C415 H430 0.961 . S
C415 H431 0.960 . S
H416 C400 0.931 . S
H417 C405 0.929 . S
H418 C406 0.960 . S
H419 C406 0.962 . S
H420 C406 0.960 . S
H421 C407 0.961 . S
H422 C407 0.961 . S
H423 C407 0.961 . S
H424 C408 0.931 . S
H425 C413 0.930 . S
H426 C414 0.956 . S
H427 C414 0.961 . S
H428 C414 0.961 . S
H429 C415 0.958 . S
H430 C415 0.961 . S
H431 C415 0.960 . S
C432 C433 1.391 . S
C432 C434 1.394 . S
C432 H448 0.931 . S
C433 C432 1.391 . S
C433 C437 1.376 . S
C434 C432 1.394 . S
C434 C435 1.369 . S
C434 C438 1.531 . S
C435 C434 1.369 . S
C435 C436 1.410 . S
C435 C443 1.503 . S
C436 C435 1.410 . S
C436 C437 1.392 . S
C436 C439 1.511 . S
C437 C433 1.376 . S
C437 C436 1.392 . S
C437 H449 0.929 . S
C438 C434 1.531 . S
C438 H450 0.960 . S
C438 H451 0.962 . S
C438 H452 0.960 . S
C439 C436 1.511 . S
C439 H453 0.961 . S
C439 H454 0.961 . S
C439 H455 0.961 . S
C440 C441 1.370 . S
C440 C442 1.363 . S
C440 H456 0.931 . S
C441 C440 1.370 . S
C441 C445 1.408 . S
C442 C440 1.363 . S
C442 C443 1.370 . S
C442 C446 1.524 . S
C443 C435 1.503 . S
C443 C442 1.370 . S
C443 C444 1.403 . S
C444 C443 1.403 . S
C444 C445 1.404 . S
C444 C447 1.539 . S
C445 C441 1.408 . S
C445 C444 1.404 . S
C445 H457 0.930 . S
C446 C442 1.524 . S
C446 H458 0.956 . S
C446 H459 0.961 . S
C446 H460 0.961 . S
C447 C444 1.539 . S
C447 H461 0.958 . S
C447 H462 0.961 1_554 S
C447 H463 0.960 . S
H448 C432 0.931 . S
H449 C437 0.929 . S
H450 C438 0.960 . S
H451 C438 0.962 . S
H452 C438 0.960 . S
H453 C439 0.961 . S
H454 C439 0.961 . S
H455 C439 0.961 . S
H456 C440 0.931 . S
H457 C445 0.930 . S
H458 C446 0.956 . S
H459 C446 0.961 . S
H460 C446 0.961 . S
H461 C447 0.958 . S
H462 C447 0.961 1_556 S
H463 C447 0.960 . S
C464 C465 1.391 . S
C464 C466 1.394 . S
C464 H480 0.931 . S
C465 C464 1.391 . S
C465 C469 1.376 . S
C466 C464 1.394 . S
C466 C467 1.369 . S
C466 C470 1.531 . S
C467 C466 1.369 . S
C467 C468 1.410 . S
C467 C475 1.503 . S
C468 C467 1.410 . S
C468 C469 1.392 . S
C468 C471 1.511 . S
C469 C465 1.376 . S
C469 C468 1.392 . S
C469 H481 0.929 . S
C470 C466 1.531 . S
C470 H482 0.960 . S
C470 H483 0.962 . S
C470 H484 0.960 . S
C471 C468 1.511 . S
C471 H485 0.961 . S
C471 H486 0.961 . S
C471 H487 0.961 . S
C472 C473 1.370 . S
C472 C474 1.363 . S
C472 H488 0.931 . S
C473 C472 1.370 . S
C473 C477 1.408 . S
C474 C472 1.363 . S
C474 C475 1.370 . S
C474 C478 1.524 . S
C475 C467 1.503 . S
C475 C474 1.370 . S
C475 C476 1.403 . S
C476 C475 1.403 . S
C476 C477 1.404 . S
C476 C479 1.539 . S
C477 C473 1.408 . S
C477 C476 1.404 . S
C477 H489 0.930 . S
C478 C474 1.524 . S
C478 H490 0.956 . S
C478 H491 0.961 . S
C478 H492 0.961 . S
C479 C476 1.539 . S
C479 H493 0.958 . S
C479 H494 0.961 . S
C479 H495 0.960 . S
H480 C464 0.931 . S
H481 C469 0.929 . S
H482 C470 0.960 . S
H483 C470 0.962 . S
H484 C470 0.960 . S
H485 C471 0.961 . S
H486 C471 0.961 . S
H487 C471 0.961 . S
H488 C472 0.931 . S
H489 C477 0.930 . S
H490 C478 0.956 . S
H491 C478 0.961 . S
H492 C478 0.961 . S
H493 C479 0.958 . S
H494 C479 0.961 . S
H495 C479 0.960 . S
C496 C497 1.391 . S
C496 C498 1.394 . S
C496 H512 0.931 . S
C497 C496 1.391 . S
C497 C501 1.376 . S
C498 C496 1.394 . S
C498 C499 1.369 . S
C498 C502 1.531 . S
C499 C498 1.369 . S
C499 C500 1.410 . S
C499 C507 1.503 . S
C500 C499 1.410 . S
C500 C501 1.392 . S
C500 C503 1.511 . S
C501 C497 1.376 . S
C501 C500 1.392 . S
C501 H513 0.929 . S
C502 C498 1.531 . S
C502 H514 0.960 . S
C502 H515 0.962 . S
C502 H516 0.960 . S
C503 C500 1.511 . S
C503 H517 0.961 . S
C503 H518 0.961 . S
C503 H519 0.961 . S
C504 C505 1.370 . S
C504 C506 1.363 . S
C504 H520 0.931 . S
C505 C504 1.370 . S
C505 C509 1.408 . S
C506 C504 1.363 . S
C506 C507 1.370 . S
C506 C510 1.524 . S
C507 C499 1.503 . S
C507 C506 1.370 . S
C507 C508 1.403 . S
C508 C507 1.403 . S
C508 C509 1.404 . S
C508 C511 1.539 . S
C509 C505 1.408 . S
C509 C508 1.404 . S
C509 H521 0.930 . S
C510 C506 1.524 . S
C510 H522 0.956 . S
C510 H523 0.961 . S
C510 H524 0.961 . S
C511 C508 1.539 . S
C511 H525 0.958 . S
C511 H526 0.961 . S
C511 H527 0.960 . S
H512 C496 0.931 . S
H513 C501 0.929 . S
H514 C502 0.960 . S
H515 C502 0.962 . S
H516 C502 0.960 . S
H517 C503 0.961 . S
H518 C503 0.961 . S
H519 C503 0.961 . S
H520 C504 0.931 . S
H521 C509 0.930 . S
H522 C510 0.956 . S
H523 C510 0.961 . S
H524 C510 0.961 . S
H525 C511 0.958 . S
H526 C511 0.961 . S
H527 C511 0.960 . S
C528 C529 1.391 . S
C528 C530 1.394 . S
C528 H544 0.931 . S
C529 C528 1.391 . S
C529 C533 1.376 . S
C530 C528 1.394 . S
C530 C531 1.369 . S
C530 C534 1.531 . S
C531 C530 1.369 . S
C531 C532 1.410 . S
C531 C539 1.503 . S
C532 C531 1.410 . S
C532 C533 1.392 . S
C532 C535 1.511 . S
C533 C529 1.376 . S
C533 C532 1.392 . S
C533 H545 0.929 . S
C534 C530 1.531 . S
C534 H546 0.960 . S
C534 H547 0.962 . S
C534 H548 0.960 . S
C535 C532 1.511 . S
C535 H549 0.961 . S
C535 H550 0.961 . S
C535 H551 0.961 . S
C536 C537 1.370 . S
C536 C538 1.363 . S
C536 H552 0.931 . S
C537 C536 1.370 . S
C537 C541 1.408 . S
C538 C536 1.363 . S
C538 C539 1.370 . S
C538 C542 1.524 . S
C539 C531 1.503 . S
C539 C538 1.370 . S
C539 C540 1.403 . S
C540 C539 1.403 . S
C540 C541 1.404 . S
C540 C543 1.539 . S
C541 C537 1.408 . S
C541 C540 1.404 . S
C541 H553 0.930 . S
C542 C538 1.524 . S
C542 H554 0.956 . S
C542 H555 0.961 . S
C542 H556 0.961 . S
C543 C540 1.539 . S
C543 H557 0.958 . S
C543 H558 0.961 . S
C543 H559 0.960 . S
H544 C528 0.931 . S
H545 C533 0.929 . S
H546 C534 0.960 . S
H547 C534 0.962 . S
H548 C534 0.960 . S
H549 C535 0.961 . S
H550 C535 0.961 . S
H551 C535 0.961 . S
H552 C536 0.931 . S
H553 C541 0.930 . S
H554 C542 0.956 . S
H555 C542 0.961 . S
H556 C542 0.961 . S
H557 C543 0.958 . S
H558 C543 0.961 . S
H559 C543 0.960 . S
C560 C561 1.391 . S
C560 C562 1.394 . S
C560 H576 0.931 . S
C561 C560 1.391 . S
C561 C565 1.376 . S
C562 C560 1.394 . S
C562 C563 1.369 . S
C562 C566 1.531 . S
C563 C562 1.369 . S
C563 C564 1.410 . S
C563 C571 1.503 . S
C564 C563 1.410 . S
C564 C565 1.392 . S
C564 C567 1.511 . S
C565 C561 1.376 . S
C565 C564 1.392 . S
C565 H577 0.929 . S
C566 C562 1.531 . S
C566 H578 0.960 . S
C566 H579 0.962 . S
C566 H580 0.960 . S
C567 C564 1.511 . S
C567 H581 0.961 . S
C567 H582 0.961 . S
C567 H583 0.961 . S
C568 C569 1.370 . S
C568 C570 1.363 . S
C568 H584 0.931 . S
C569 C568 1.370 . S
C569 C573 1.408 . S
C570 C568 1.363 . S
C570 C571 1.370 . S
C570 C574 1.524 . S
C571 C563 1.503 . S
C571 C570 1.370 . S
C571 C572 1.403 . S
C572 C571 1.403 . S
C572 C573 1.404 . S
C572 C575 1.539 . S
C573 C569 1.408 . S
C573 C572 1.404 . S
C573 H585 0.930 . S
C574 C570 1.524 . S
C574 H586 0.956 . S
C574 H587 0.961 . S
C574 H588 0.961 . S
C575 C572 1.539 . S
C575 H589 0.958 . S
C575 H590 0.961 . S
C575 H591 0.960 . S
H576 C560 0.931 . S
H577 C565 0.929 . S
H578 C566 0.960 . S
H579 C566 0.962 . S
H580 C566 0.960 . S
H581 C567 0.961 . S
H582 C567 0.961 . S
H583 C567 0.961 . S
H584 C568 0.931 . S
H585 C573 0.930 . S
H586 C574 0.956 . S
H587 C574 0.961 . S
H588 C574 0.961 . S
H589 C575 0.958 . S
H590 C575 0.961 . S
H591 C575 0.960 . S
C592 C593 1.391 . S
C592 C594 1.394 . S
C592 H608 0.931 . S
C593 C592 1.391 . S
C593 C597 1.376 . S
C594 C592 1.394 . S
C594 C595 1.369 . S
C594 C598 1.531 . S
C595 C594 1.369 . S
C595 C596 1.410 . S
C595 C603 1.503 . S
C596 C595 1.410 . S
C596 C597 1.392 . S
C596 C599 1.511 . S
C597 C593 1.376 . S
C597 C596 1.392 . S
C597 H609 0.929 . S
C598 C594 1.531 . S
C598 H610 0.960 . S
C598 H611 0.962 . S
C598 H612 0.960 . S
C599 C596 1.511 . S
C599 H613 0.961 . S
C599 H614 0.961 . S
C599 H615 0.961 . S
C600 C601 1.370 . S
C600 C602 1.363 . S
C600 H616 0.931 . S
C601 C600 1.370 . S
C601 C605 1.408 . S
C602 C600 1.363 . S
C602 C603 1.370 . S
C602 C606 1.524 . S
C603 C595 1.503 . S
C603 C602 1.370 . S
C603 C604 1.403 . S
C604 C603 1.403 . S
C604 C605 1.404 . S
C604 C607 1.539 . S
C605 C601 1.408 . S
C605 C604 1.404 . S
C605 H617 0.930 . S
C606 C602 1.524 . S
C606 H618 0.956 . S
C606 H619 0.961 . S
C606 H620 0.961 . S
C607 C604 1.539 . S
C607 H621 0.958 . S
C607 H622 0.952 1_545 S
C607 H623 0.960 . S
H608 C592 0.931 . S
H609 C597 0.929 . S
H610 C598 0.960 . S
H611 C598 0.962 . S
H612 C598 0.960 . S
H613 C599 0.961 . S
H614 C599 0.961 . S
H615 C599 0.961 . S
H616 C600 0.931 . S
H617 C605 0.930 . S
H618 C606 0.956 . S
H619 C606 0.961 . S
H620 C606 0.961 . S
H621 C607 0.958 . S
H622 C607 0.952 1_565 S
H623 C607 0.960 . S
C624 C625 1.391 . S
C624 C626 1.394 . S
C624 H640 0.931 . S
C625 C624 1.391 . S
C625 C629 1.376 . S
C626 C624 1.394 . S
C626 C627 1.369 . S
C626 C630 1.531 . S
C627 C626 1.369 . S
C627 C628 1.410 . S
C627 C635 1.503 . S
C628 C627 1.410 . S
C628 C629 1.392 . S
C628 C631 1.511 . S
C629 C625 1.376 . S
C629 C628 1.392 . S
C629 H641 0.929 . S
C630 C626 1.531 . S
C630 H642 0.960 . S
C630 H643 0.962 . S
C630 H644 0.960 . S
C631 C628 1.511 . S
C631 H645 0.961 . S
C631 H646 0.961 . S
C631 H647 0.961 . S
C632 C633 1.370 . S
C632 C634 1.363 . S
C632 H648 0.931 . S
C633 C632 1.370 . S
C633 C637 1.408 . S
C634 C632 1.363 . S
C634 C635 1.370 . S
C634 C638 1.524 . S
C635 C627 1.503 . S
C635 C634 1.370 . S
C635 C636 1.403 . S
C636 C635 1.403 . S
C636 C637 1.404 . S
C636 C639 1.539 . S
C637 C633 1.408 . S
C637 C636 1.404 . S
C637 H649 0.930 . S
C638 C634 1.524 . S
C638 H650 0.956 . S
C638 H651 0.961 . S
C638 H652 0.961 . S
C639 C636 1.539 . S
C639 H653 0.958 . S
C639 H654 0.961 . S
C639 H655 0.960 . S
H640 C624 0.931 . S
H641 C629 0.929 . S
H642 C630 0.960 . S
H643 C630 0.962 . S
H644 C630 0.960 . S
H645 C631 0.961 . S
H646 C631 0.961 . S
H647 C631 0.961 . S
H648 C632 0.931 . S
H649 C637 0.930 . S
H650 C638 0.956 . S
H651 C638 0.961 . S
H652 C638 0.961 . S
H653 C639 0.958 . S
H654 C639 0.961 . S
H655 C639 0.960 . S
C656 C657 1.391 . S
C656 C658 1.394 . S
C656 H672 0.931 . S
C657 C656 1.391 . S
C657 C661 1.376 . S
C658 C656 1.394 . S
C658 C659 1.369 . S
C658 C662 1.531 . S
C659 C658 1.369 . S
C659 C660 1.410 . S
C659 C667 1.503 . S
C660 C659 1.410 . S
C660 C661 1.392 . S
C660 C663 1.511 . S
C661 C657 1.376 . S
C661 C660 1.392 . S
C661 H673 0.929 . S
C662 C658 1.531 . S
C662 H674 0.960 . S
C662 H675 0.962 . S
C662 H676 0.960 . S
C663 C660 1.511 . S
C663 H677 0.961 . S
C663 H678 0.961 . S
C663 H679 0.961 . S
C664 C665 1.370 . S
C664 C666 1.363 . S
C664 H680 0.931 . S
C665 C664 1.370 . S
C665 C669 1.408 . S
C666 C664 1.363 . S
C666 C667 1.370 . S
C666 C670 1.524 . S
C667 C659 1.503 . S
C667 C666 1.370 . S
C667 C668 1.403 . S
C668 C667 1.403 . S
C668 C669 1.404 . S
C668 C671 1.539 . S
C669 C665 1.408 . S
C669 C668 1.404 . S
C669 H681 0.930 . S
C670 C666 1.524 . S
C670 H682 0.956 . S
C670 H683 0.961 . S
C670 H684 0.961 . S
C671 C668 1.539 . S
C671 H685 0.958 . S
C671 H686 0.961 . S
C671 H687 0.960 . S
H672 C656 0.931 . S
H673 C661 0.929 . S
H674 C662 0.960 . S
H675 C662 0.962 . S
H676 C662 0.960 . S
H677 C663 0.961 . S
H678 C663 0.961 . S
H679 C663 0.961 . S
H680 C664 0.931 . S
H681 C669 0.930 . S
H682 C670 0.956 . S
H683 C670 0.961 . S
H684 C670 0.961 . S
H685 C671 0.958 . S
H686 C671 0.961 . S
H687 C671 0.960 . S
C688 C689 1.391 . S
C688 C690 1.394 . S
C688 H704 0.931 . S
C689 C688 1.391 . S
C689 C693 1.376 . S
C690 C688 1.394 . S
C690 C691 1.369 . S
C690 C694 1.531 . S
C691 C690 1.369 . S
C691 C692 1.410 . S
C691 C699 1.503 . S
C692 C691 1.410 . S
C692 C693 1.392 . S
C692 C695 1.511 . S
C693 C689 1.376 . S
C693 C692 1.392 . S
C693 H705 0.929 . S
C694 C690 1.531 . S
C694 H706 0.960 . S
C694 H707 0.962 . S
C694 H708 0.960 . S
C695 C692 1.511 . S
C695 H709 0.961 . S
C695 H710 0.961 . S
C695 H711 0.961 . S
C696 C697 1.370 . S
C696 C698 1.363 . S
C696 H712 0.931 . S
C697 C696 1.370 . S
C697 C701 1.408 . S
C698 C696 1.363 . S
C698 C699 1.370 . S
C698 C702 1.524 . S
C699 C691 1.503 . S
C699 C698 1.370 . S
C699 C700 1.403 . S
C700 C699 1.403 . S
C700 C701 1.404 . S
C700 C703 1.539 . S
C701 C697 1.408 . S
C701 C700 1.404 . S
C701 H713 0.930 . S
C702 C698 1.524 . S
C702 H714 0.956 . S
C702 H715 0.961 . S
C702 H716 0.961 . S
C703 C700 1.539 . S
C703 H717 0.958 . S
C703 H718 0.961 . S
C703 H719 0.960 . S
H704 C688 0.931 . S
H705 C693 0.929 . S
H706 C694 0.960 . S
H707 C694 0.962 . S
H708 C694 0.960 . S
H709 C695 0.961 . S
H710 C695 0.961 . S
H711 C695 0.961 . S
H712 C696 0.931 . S
H713 C701 0.930 . S
H714 C702 0.956 . S
H715 C702 0.961 . S
H716 C702 0.961 . S
H717 C703 0.958 . S
H718 C703 0.961 . S
H719 C703 0.960 . S
C720 C721 1.391 . S
C720 C722 1.394 . S
C720 H736 0.931 . S
C721 C720 1.391 . S
C721 C725 1.376 . S
C722 C720 1.394 . S
C722 C723 1.369 . S
C722 C726 1.531 . S
C723 C722 1.369 . S
C723 C724 1.410 . S
C723 C731 1.503 . S
C724 C723 1.410 . S
C724 C725 1.392 . S
C724 C727 1.511 . S
C725 C721 1.376 . S
C725 C724 1.392 . S
C725 H737 0.929 . S
C726 C722 1.531 . S
C726 H738 0.960 . S
C726 H739 0.962 . S
C726 H740 0.960 . S
C727 C724 1.511 . S
C727 H741 0.961 . S
C727 H742 0.961 . S
C727 H743 0.961 . S
C728 C729 1.370 . S
C728 C730 1.363 . S
C728 H744 0.931 . S
C729 C728 1.370 . S
C729 C733 1.408 . S
C730 C728 1.363 . S
C730 C731 1.370 . S
C730 C734 1.524 . S
C731 C723 1.503 . S
C731 C730 1.370 . S
C731 C732 1.403 . S
C732 C731 1.403 . S
C732 C733 1.404 . S
C732 C735 1.539 . S
C733 C729 1.408 . S
C733 C732 1.404 . S
C733 H745 0.930 . S
C734 C730 1.524 . S
C734 H746 0.956 . S
C734 H747 0.961 . S
C734 H748 0.961 . S
C735 C732 1.539 . S
C735 H749 0.958 . S
C735 H750 0.961 . S
C735 H751 0.960 . S
H736 C720 0.931 . S
H737 C725 0.929 . S
H738 C726 0.960 . S
H739 C726 0.962 . S
H740 C726 0.960 . S
H741 C727 0.961 . S
H742 C727 0.961 . S
H743 C727 0.961 . S
H744 C728 0.931 . S
H745 C733 0.930 . S
H746 C734 0.956 . S
H747 C734 0.961 . S
H748 C734 0.961 . S
H749 C735 0.958 . S
H750 C735 0.961 . S
H751 C735 0.960 . S
C752 C753 1.391 . S
C752 C754 1.394 . S
C752 H768 0.931 . S
C753 C752 1.391 . S
C753 C757 1.376 . S
C754 C752 1.394 . S
C754 C755 1.369 . S
C754 C758 1.531 . S
C755 C754 1.369 . S
C755 C756 1.410 . S
C755 C763 1.503 . S
C756 C755 1.410 . S
C756 C757 1.392 . S
C756 C759 1.511 . S
C757 C753 1.376 . S
C757 C756 1.392 . S
C757 H769 0.929 . S
C758 C754 1.531 . S
C758 H770 0.960 . S
C758 H771 0.962 . S
C758 H772 0.960 . S
C759 C756 1.511 . S
C759 H773 0.934 1_655 S
C759 H774 0.961 . S
C759 H775 0.961 . S
C760 C761 1.370 . S
C760 C762 1.363 . S
C760 H776 0.931 . S
C761 C760 1.370 . S
C761 C765 1.408 . S
C762 C760 1.363 . S
C762 C763 1.370 . S
C762 C766 1.524 . S
C763 C755 1.503 . S
C763 C762 1.370 . S
C763 C764 1.403 . S
C764 C763 1.403 . S
C764 C765 1.404 . S
C764 C767 1.539 . S
C765 C761 1.408 . S
C765 C764 1.404 . S
C765 H777 0.930 . S
C766 C762 1.524 . S
C766 H778 0.956 . S
C766 H779 0.961 . S
C766 H780 0.961 . S
C767 C764 1.539 . S
C767 H781 0.958 . S
C767 H782 0.961 . S
C767 H783 0.960 . S
H768 C752 0.931 . S
H769 C757 0.929 . S
H770 C758 0.960 . S
H771 C758 0.962 . S
H772 C758 0.960 . S
H773 C759 0.934 1_455 S
H774 C759 0.961 . S
H775 C759 0.961 . S
H776 C760 0.931 . S
H777 C765 0.930 . S
H778 C766 0.956 . S
H779 C766 0.961 . S
H780 C766 0.961 . S
H781 C767 0.958 . S
H782 C767 0.961 . S
H783 C767 0.960 . S
C784 C785 1.391 . S
C784 C786 1.394 . S
C784 H800 0.931 . S
C785 C784 1.391 . S
C785 C789 1.376 . S
C786 C784 1.394 . S
C786 C787 1.369 . S
C786 C790 1.531 . S
C787 C786 1.369 . S
C787 C788 1.410 . S
C787 C795 1.503 . S
C788 C787 1.410 . S
C788 C789 1.392 . S
C788 C791 1.511 . S
C789 C785 1.376 . S
C789 C788 1.392 . S
C789 H801 0.929 . S
C790 C786 1.531 . S
C790 H802 0.960 . S
C790 H803 0.962 . S
C790 H804 0.960 . S
C791 C788 1.511 . S
C791 H805 0.961 . S
C791 H806 0.961 . S
C791 H807 0.961 . S
C792 C793 1.370 . S
C792 C794 1.363 . S
C792 H808 0.931 . S
C793 C792 1.370 . S
C793 C797 1.408 . S
C794 C792 1.363 . S
C794 C795 1.370 . S
C794 C798 1.524 . S
C795 C787 1.503 . S
C795 C794 1.370 . S
C795 C796 1.403 . S
C796 C795 1.403 . S
C796 C797 1.404 . S
C796 C799 1.539 . S
C797 C793 1.408 . S
C797 C796 1.404 . S
C797 H809 0.930 . S
C798 C794 1.524 . S
C798 H810 0.956 . S
C798 H811 0.961 . S
C798 H812 0.961 . S
C799 C796 1.539 . S
C799 H813 0.958 . S
C799 H814 0.961 . S
C799 H815 0.960 . S
H800 C784 0.931 . S
H801 C789 0.929 . S
H802 C790 0.960 . S
H803 C790 0.962 . S
H804 C790 0.960 . S
H805 C791 0.961 . S
H806 C791 0.961 . S
H807 C791 0.961 . S
H808 C792 0.931 . S
H809 C797 0.930 . S
H810 C798 0.956 . S
H811 C798 0.961 . S
H812 C798 0.961 . S
H813 C799 0.958 . S
H814 C799 0.961 . S
H815 C799 0.960 . S
C816 C817 1.391 . S
C816 C818 1.394 . S
C816 H832 0.931 . S
C817 C816 1.391 . S
C817 C821 1.376 . S
C818 C816 1.394 . S
C818 C819 1.369 . S
C818 C822 1.531 . S
C819 C818 1.369 . S
C819 C820 1.410 . S
C819 C827 1.503 . S
C820 C819 1.410 . S
C820 C821 1.392 . S
C820 C823 1.511 . S
C821 C817 1.376 . S
C821 C820 1.392 . S
C821 H833 0.929 1_655 S
C822 C818 1.531 . S
C822 H834 0.960 . S
C822 H835 0.962 . S
C822 H836 0.960 . S
C823 C820 1.511 . S
C823 H837 0.961 1_655 S
C823 H838 0.961 . S
C823 H839 0.961 1_655 S
C824 C825 1.370 . S
C824 C826 1.363 . S
C824 H840 0.931 . S
C825 C824 1.370 . S
C825 C829 1.408 . S
C826 C824 1.363 . S
C826 C827 1.370 . S
C826 C830 1.524 . S
C827 C819 1.503 . S
C827 C826 1.370 . S
C827 C828 1.403 . S
C828 C827 1.403 . S
C828 C829 1.404 . S
C828 C831 1.539 . S
C829 C825 1.408 . S
C829 C828 1.404 . S
C829 H841 0.930 . S
C830 C826 1.524 . S
C830 H842 0.956 . S
C830 H843 0.961 . S
C830 H844 0.961 . S
C831 C828 1.539 . S
C831 H845 0.958 . S
C831 H846 0.961 . S
C831 H847 0.960 . S
H832 C816 0.931 . S
H833 C821 0.929 1_455 S
H834 C822 0.960 . S
H835 C822 0.962 . S
H836 C822 0.960 . S
H837 C823 0.961 1_455 S
H838 C823 0.961 . S
H839 C823 0.961 1_455 S
H840 C824 0.931 . S
H841 C829 0.930 . S
H842 C830 0.956 . S
H843 C830 0.961 . S
H844 C830 0.961 . S
H845 C831 0.958 . S
H846 C831 0.961 . S
H847 C831 0.960 . S
C848 C849 1.391 . S
C848 C850 1.394 . S
C848 H864 0.931 . S
C849 C848 1.391 . S
C849 C853 1.376 . S
C850 C848 1.394 . S
C850 C851 1.369 . S
C850 C854 1.531 . S
C851 C850 1.369 . S
C851 C852 1.410 . S
C851 C859 1.503 . S
C852 C851 1.410 . S
C852 C853 1.392 . S
C852 C855 1.511 . S
C853 C849 1.376 . S
C853 C852 1.392 . S
C853 H865 0.929 . S
C854 C850 1.531 . S
C854 H866 0.960 . S
C854 H867 0.962 . S
C854 H868 0.960 . S
C855 C852 1.511 . S
C855 H869 0.961 . S
C855 H870 0.961 . S
C855 H871 0.961 . S
C856 C857 1.370 . S
C856 C858 1.363 . S
C856 H872 0.931 . S
C857 C856 1.370 . S
C857 C861 1.408 . S
C858 C856 1.363 . S
C858 C859 1.370 . S
C858 C862 1.524 . S
C859 C851 1.503 . S
C859 C858 1.370 . S
C859 C860 1.403 . S
C860 C859 1.403 . S
C860 C861 1.404 . S
C860 C863 1.539 . S
C861 C857 1.408 . S
C861 C860 1.404 . S
C861 H873 0.930 . S
C862 C858 1.524 . S
C862 H874 0.956 . S
C862 H875 0.961 . S
C862 H876 0.961 . S
C863 C860 1.539 . S
C863 H877 0.958 . S
C863 H878 0.961 . S
C863 H879 0.960 . S
H864 C848 0.931 . S
H865 C853 0.929 . S
H866 C854 0.960 . S
H867 C854 0.962 . S
H868 C854 0.960 . S
H869 C855 0.961 . S
H870 C855 0.961 . S
H871 C855 0.961 . S
H872 C856 0.931 . S
H873 C861 0.930 . S
H874 C862 0.956 . S
H875 C862 0.961 . S
H876 C862 0.961 . S
H877 C863 0.958 . S
H878 C863 0.961 . S
H879 C863 0.960 . S
C880 C881 1.391 . S
C880 C882 1.394 . S
C880 H896 0.931 . S
C881 C880 1.391 . S
C881 C885 1.376 . S
C882 C880 1.394 . S
C882 C883 1.369 . S
C882 C886 1.531 . S
C883 C882 1.369 . S
C883 C884 1.410 . S
C883 C891 1.503 . S
C884 C883 1.410 . S
C884 C885 1.392 . S
C884 C887 1.511 . S
C885 C881 1.376 . S
C885 C884 1.392 . S
C885 H897 0.929 . S
C886 C882 1.531 . S
C886 H898 0.960 . S
C886 H899 0.962 . S
C886 H900 0.960 . S
C887 C884 1.511 . S
C887 H901 0.961 . S
C887 H902 0.961 . S
C887 H903 0.961 . S
C888 C889 1.370 . S
C888 C890 1.363 . S
C888 H904 0.931 . S
C889 C888 1.370 . S
C889 C893 1.408 . S
C890 C888 1.363 . S
C890 C891 1.370 . S
C890 C894 1.524 . S
C891 C883 1.503 . S
C891 C890 1.370 . S
C891 C892 1.403 . S
C892 C891 1.403 . S
C892 C893 1.404 . S
C892 C895 1.539 . S
C893 C889 1.408 . S
C893 C892 1.404 . S
C893 H905 0.930 . S
C894 C890 1.524 . S
C894 H906 0.956 . S
C894 H907 0.961 . S
C894 H908 0.961 . S
C895 C892 1.539 . S
C895 H909 0.958 . S
C895 H910 0.961 . S
C895 H911 0.960 . S
H896 C880 0.931 . S
H897 C885 0.929 . S
H898 C886 0.960 . S
H899 C886 0.962 . S
H900 C886 0.960 . S
H901 C887 0.961 . S
H902 C887 0.961 . S
H903 C887 0.961 . S
H904 C888 0.931 . S
H905 C893 0.930 . S
H906 C894 0.956 . S
H907 C894 0.961 . S
H908 C894 0.961 . S
H909 C895 0.958 . S
H910 C895 0.961 . S
H911 C895 0.960 . S
C912 C913 1.391 . S
C912 C914 1.394 . S
C912 H928 0.931 . S
C913 C912 1.391 . S
C913 C917 1.376 . S
C914 C912 1.394 . S
C914 C915 1.369 . S
C914 C918 1.531 . S
C915 C914 1.369 . S
C915 C916 1.410 . S
C915 C923 1.503 . S
C916 C915 1.410 . S
C916 C917 1.392 . S
C916 C919 1.511 1_556 S
C917 C913 1.376 . S
C917 C916 1.392 . S
C917 H929 0.929 1_556 S
C918 C914 1.531 . S
C918 H930 0.960 . S
C918 H931 0.962 . S
C918 H932 0.960 . S
C919 C916 1.511 1_554 S
C919 H933 0.961 . S
C919 H934 0.961 1_554 S
C919 H935 0.961 . S
C920 C921 1.370 . S
C920 C922 1.363 . S
C920 H936 0.931 . S
C921 C920 1.370 . S
C921 C925 1.408 . S
C922 C920 1.363 . S
C922 C923 1.370 . S
C922 C926 1.524 . S
C923 C915 1.503 . S
C923 C922 1.370 . S
C923 C924 1.403 . S
C924 C923 1.403 . S
C924 C925 1.404 . S
C924 C927 1.539 . S
C925 C921 1.408 . S
C925 C924 1.404 . S
C925 H937 0.930 . S
C926 C922 1.524 . S
C926 H938 0.956 . S
C926 H939 0.961 . S
C926 H940 0.961 . S
C927 C924 1.539 . S
C927 H941 0.958 . S
C927 H942 0.961 . S
C927 H943 0.960 . S
H928 C912 0.931 . S
H929 C917 0.929 1_554 S
H930 C918 0.960 . S
H931 C918 0.962 . S
H932 C918 0.960 . S
H933 C919 0.961 . S
H934 C919 0.961 1_556 S
H935 C919 0.961 . S
H936 C920 0.931 . S
H937 C925 0.930 . S
H938 C926 0.956 . S
H939 C926 0.961 . S
H940 C926 0.961 . S
H941 C927 0.958 . S
H942 C927 0.961 . S
H943 C927 0.960 . S
C944 C945 1.391 . S
C944 C946 1.394 . S
C944 H960 0.931 . S
C945 C944 1.391 . S
C945 C949 1.376 . S
C946 C944 1.394 . S
C946 C947 1.369 . S
C946 C950 1.531 . S
C947 C946 1.369 . S
C947 C948 1.410 . S
C947 C955 1.503 . S
C948 C947 1.410 . S
C948 C949 1.392 . S
C948 C951 1.511 . S
C949 C945 1.376 . S
C949 C948 1.392 . S
C949 H961 0.929 . S
C950 C946 1.531 . S
C950 H962 0.960 . S
C950 H963 0.962 . S
C950 H964 0.960 . S
C951 C948 1.511 . S
C951 H965 0.961 . S
C951 H966 0.961 . S
C951 H967 0.961 . S
C952 C953 1.370 . S
C952 C954 1.363 . S
C952 H968 0.931 1_655 S
C953 C952 1.370 . S
C953 C957 1.408 . S
C954 C952 1.363 . S
C954 C955 1.370 . S
C954 C958 1.524 . S
C955 C947 1.503 . S
C955 C954 1.370 . S
C955 C956 1.403 . S
C956 C955 1.403 . S
C956 C957 1.404 . S
C956 C959 1.539 . S
C957 C953 1.408 . S
C957 C956 1.404 . S
C957 H969 0.930 . S
C958 C954 1.524 . S
C958 H970 0.956 . S
C958 H971 0.961 . S
C958 H972 0.961 1_655 S
C959 C956 1.539 . S
C959 H973 0.958 . S
C959 H974 0.961 . S
C959 H975 0.960 . S
H960 C944 0.931 . S
H961 C949 0.929 . S
H962 C950 0.960 . S
H963 C950 0.962 . S
H964 C950 0.960 . S
H965 C951 0.961 . S
H966 C951 0.961 . S
H967 C951 0.961 . S
H968 C952 0.931 1_455 S
H969 C957 0.930 . S
H970 C958 0.956 . S
H971 C958 0.961 . S
H972 C958 0.961 1_455 S
H973 C959 0.958 . S
H974 C959 0.961 . S
H975 C959 0.960 . S
C976 C977 1.391 . S
C976 C978 1.394 . S
C976 H992 0.931 . S
C977 C976 1.391 . S
C977 C981 1.376 . S
C978 C976 1.394 . S
C978 C979 1.369 . S
C978 C982 1.531 . S
C979 C978 1.369 . S
C979 C980 1.410 . S
C979 C987 1.503 . S
C980 C979 1.410 . S
C980 C981 1.392 . S
C980 C983 1.511 . S
C981 C977 1.376 . S
C981 C980 1.392 . S
C981 H993 0.929 . S
C982 C978 1.531 . S
C982 H994 0.960 . S
C982 H995 0.962 . S
C982 H996 0.960 . S
C983 C980 1.511 . S
C983 H997 0.961 . S
C983 H998 0.961 . S
C983 H999 0.961 . S
C984 C985 1.370 . S
C984 C986 1.363 . S
C984 H1000 0.931 . S
C985 C984 1.370 . S
C985 C989 1.408 . S
C986 C984 1.363 . S
C986 C987 1.370 . S
C986 C990 1.524 . S
C987 C979 1.503 . S
C987 C986 1.370 . S
C987 C988 1.403 . S
C988 C987 1.403 . S
C988 C989 1.404 . S
C988 C991 1.539 . S
C989 C985 1.408 . S
C989 C988 1.404 . S
C989 H1001 0.930 . S
C990 C986 1.524 . S
C990 H1002 0.956 . S
C990 H1003 0.961 . S
C990 H1004 0.961 . S
C991 C988 1.539 . S
C991 H1005 0.958 . S
C991 H1006 0.961 . S
C991 H1007 0.960 . S
H992 C976 0.931 . S
H993 C981 0.929 . S
H994 C982 0.960 . S
H995 C982 0.962 . S
H996 C982 0.960 . S
H997 C983 0.961 . S
H998 C983 0.961 . S
H999 C983 0.961 . S
H1000 C984 0.931 . S
H1001 C989 0.930 . S
H1002 C990 0.956 . S
H1003 C990 0.961 . S
H1004 C990 0.961 . S
H1005 C991 0.958 . S
H1006 C991 0.961 . S
H1007 C991 0.960 . S
C1008 C1009 1.391 . S
C1008 C1010 1.394 . S
C1008 H1024 0.931 . S
C1009 C1008 1.391 . S
C1009 C1013 1.376 . S
C1010 C1008 1.394 . S
C1010 C1011 1.369 . S
C1010 C1014 1.531 . S
C1011 C1010 1.369 . S
C1011 C1012 1.410 . S
C1011 C1019 1.503 . S
C1012 C1011 1.410 . S
C1012 C1013 1.392 . S
C1012 C1015 1.511 . S
C1013 C1009 1.376 . S
C1013 C1012 1.392 . S
C1013 H1025 0.929 . S
C1014 C1010 1.531 . S
C1014 H1026 0.960 . S
C1014 H1027 0.962 . S
C1014 H1028 0.960 . S
C1015 C1012 1.511 . S
C1015 H1029 0.961 . S
C1015 H1030 0.961 . S
C1015 H1031 0.961 . S
C1016 C1017 1.370 . S
C1016 C1018 1.363 . S
C1016 H1032 0.931 . S
C1017 C1016 1.370 . S
C1017 C1021 1.408 . S
C1018 C1016 1.363 . S
C1018 C1019 1.370 . S
C1018 C1022 1.524 . S
C1019 C1011 1.503 . S
C1019 C1018 1.370 . S
C1019 C1020 1.403 . S
C1020 C1019 1.403 . S
C1020 C1021 1.404 . S
C1020 C1023 1.539 . S
C1021 C1017 1.408 . S
C1021 C1020 1.404 . S
C1021 H1033 0.930 . S
C1022 C1018 1.524 . S
C1022 H1034 0.956 . S
C1022 H1035 0.961 . S
C1022 H1036 0.961 . S
C1023 C1020 1.539 . S
C1023 H1037 0.958 . S
C1023 H1038 0.961 . S
C1023 H1039 0.960 . S
H1024 C1008 0.931 . S
H1025 C1013 0.929 . S
H1026 C1014 0.960 . S
H1027 C1014 0.962 . S
H1028 C1014 0.960 . S
H1029 C1015 0.961 . S
H1030 C1015 0.961 . S
H1031 C1015 0.961 . S
H1032 C1016 0.931 . S
H1033 C1021 0.930 . S
H1034 C1022 0.956 . S
H1035 C1022 0.961 . S
H1036 C1022 0.961 . S
H1037 C1023 0.958 . S
H1038 C1023 0.961 . S
H1039 C1023 0.960 . S
C1040 C1041 1.391 . S
C1040 C1042 1.394 . S
C1040 H1056 0.931 . S
C1041 C1040 1.391 . S
C1041 C1045 1.376 . S
C1042 C1040 1.394 . S
C1042 C1043 1.369 . S
C1042 C1046 1.531 . S
C1043 C1042 1.369 . S
C1043 C1044 1.410 . S
C1043 C1051 1.503 . S
C1044 C1043 1.410 . S
C1044 C1045 1.392 . S
C1044 C1047 1.511 . S
C1045 C1041 1.376 . S
C1045 C1044 1.392 . S
C1045 H1057 0.929 . S
C1046 C1042 1.531 . S
C1046 H1058 0.960 . S
C1046 H1059 0.962 . S
C1046 H1060 0.960 . S
C1047 C1044 1.511 . S
C1047 H1061 0.961 . S
C1047 H1062 0.961 . S
C1047 H1063 0.961 . S
C1048 C1049 1.370 . S
C1048 C1050 1.363 . S
C1048 H1064 0.931 . S
C1049 C1048 1.370 . S
C1049 C1053 1.408 . S
C1050 C1048 1.363 . S
C1050 C1051 1.370 . S
C1050 C1054 1.524 . S
C1051 C1043 1.503 . S
C1051 C1050 1.370 . S
C1051 C1052 1.403 . S
C1052 C1051 1.403 . S
C1052 C1053 1.404 . S
C1052 C1055 1.539 . S
C1053 C1049 1.408 . S
C1053 C1052 1.404 . S
C1053 H1065 0.930 . S
C1054 C1050 1.524 . S
C1054 H1066 0.956 . S
C1054 H1067 0.961 . S
C1054 H1068 0.961 . S
C1055 C1052 1.539 . S
C1055 H1069 0.958 . S
C1055 H1070 0.961 . S
C1055 H1071 0.960 . S
H1056 C1040 0.931 . S
H1057 C1045 0.929 . S
H1058 C1046 0.960 . S
H1059 C1046 0.962 . S
H1060 C1046 0.960 . S
H1061 C1047 0.961 . S
H1062 C1047 0.961 . S
H1063 C1047 0.961 . S
H1064 C1048 0.931 . S
H1065 C1053 0.930 . S
H1066 C1054 0.956 . S
H1067 C1054 0.961 . S
H1068 C1054 0.961 . S
H1069 C1055 0.958 . S
H1070 C1055 0.961 . S
H1071 C1055 0.960 . S
C1072 C1073 1.391 . S
C1072 C1074 1.394 . S
C1072 H1088 0.931 . S
C1073 C1072 1.391 . S
C1073 C1077 1.376 . S
C1074 C1072 1.394 . S
C1074 C1075 1.369 . S
C1074 C1078 1.531 . S
C1075 C1074 1.369 . S
C1075 C1076 1.410 . S
C1075 C1083 1.503 . S
C1076 C1075 1.410 . S
C1076 C1077 1.392 . S
C1076 C1079 1.511 . S
C1077 C1073 1.376 . S
C1077 C1076 1.392 . S
C1077 H1089 0.929 . S
C1078 C1074 1.531 . S
C1078 H1090 0.960 . S
C1078 H1091 0.962 . S
C1078 H1092 0.960 . S
C1079 C1076 1.511 . S
C1079 H1093 0.961 . S
C1079 H1094 0.961 . S
C1079 H1095 0.961 . S
C1080 C1081 1.370 . S
C1080 C1082 1.363 . S
C1080 H1096 0.931 . S
C1081 C1080 1.370 . S
C1081 C1085 1.408 . S
C1082 C1080 1.363 . S
C1082 C1083 1.370 . S
C1082 C1086 1.524 . S
C1083 C1075 1.503 . S
C1083 C1082 1.370 . S
C1083 C1084 1.403 . S
C1084 C1083 1.403 . S
C1084 C1085 1.404 . S
C1084 C1087 1.539 . S
C1085 C1081 1.408 . S
C1085 C1084 1.404 . S
C1085 H1097 0.930 . S
C1086 C1082 1.524 . S
C1086 H1098 0.956 . S
C1086 H1099 0.961 . S
C1086 H1100 0.961 . S
C1087 C1084 1.539 . S
C1087 H1101 0.958 . S
C1087 H1102 0.961 . S
C1087 H1103 0.960 . S
H1088 C1072 0.931 . S
H1089 C1077 0.929 . S
H1090 C1078 0.960 . S
H1091 C1078 0.962 . S
H1092 C1078 0.960 . S
H1093 C1079 0.961 . S
H1094 C1079 0.961 . S
H1095 C1079 0.961 . S
H1096 C1080 0.931 . S
H1097 C1085 0.930 . S
H1098 C1086 0.956 . S
H1099 C1086 0.961 . S
H1100 C1086 0.961 . S
H1101 C1087 0.958 . S
H1102 C1087 0.961 . S
H1103 C1087 0.960 . S
C1104 C1105 1.391 . S
C1104 C1106 1.394 . S
C1104 H1120 0.931 . S
C1105 C1104 1.391 . S
C1105 C1109 1.376 . S
C1106 C1104 1.394 . S
C1106 C1107 1.369 . S
C1106 C1110 1.531 . S
C1107 C1106 1.369 . S
C1107 C1108 1.410 . S
C1107 C1115 1.503 . S
C1108 C1107 1.410 . S
C1108 C1109 1.392 . S
C1108 C1111 1.511 . S
C1109 C1105 1.376 . S
C1109 C1108 1.392 . S
C1109 H1121 0.929 . S
C1110 C1106 1.531 . S
C1110 H1122 0.960 . S
C1110 H1123 0.962 . S
C1110 H1124 0.960 . S
C1111 C1108 1.511 . S
C1111 H1125 0.961 . S
C1111 H1126 0.961 . S
C1111 H1127 0.961 . S
C1112 C1113 1.370 . S
C1112 C1114 1.363 . S
C1112 H1128 0.931 . S
C1113 C1112 1.370 . S
C1113 C1117 1.408 . S
C1114 C1112 1.363 . S
C1114 C1115 1.370 . S
C1114 C1118 1.524 . S
C1115 C1107 1.503 . S
C1115 C1114 1.370 . S
C1115 C1116 1.403 . S
C1116 C1115 1.403 . S
C1116 C1117 1.404 . S
C1116 C1119 1.539 . S
C1117 C1113 1.408 . S
C1117 C1116 1.404 . S
C1117 H1129 0.930 . S
C1118 C1114 1.524 . S
C1118 H1130 0.956 . S
C1118 H1131 0.961 . S
C1118 H1132 0.961 . S
C1119 C1116 1.539 . S
C1119 H1133 0.958 . S
C1119 H1134 0.961 . S
C1119 H1135 0.960 . S
H1120 C1104 0.931 . S
H1121 C1109 0.929 . S
H1122 C1110 0.960 . S
H1123 C1110 0.962 . S
H1124 C1110 0.960 . S
H1125 C1111 0.961 . S
H1126 C1111 0.961 . S
H1127 C1111 0.961 . S
H1128 C1112 0.931 . S
H1129 C1117 0.930 . S
H1130 C1118 0.956 . S
H1131 C1118 0.961 . S
H1132 C1118 0.961 . S
H1133 C1119 0.958 . S
H1134 C1119 0.961 . S
H1135 C1119 0.960 . S
C1136 C1137 1.391 . S
C1136 C1138 1.394 . S
C1136 H1152 0.931 . S
C1137 C1136 1.391 . S
C1137 C1141 1.376 . S
C1138 C1136 1.394 . S
C1138 C1139 1.369 . S
C1138 C1142 1.531 . S
C1139 C1138 1.369 . S
C1139 C1140 1.410 . S
C1139 C1147 1.503 . S
C1140 C1139 1.410 . S
C1140 C1141 1.392 . S
C1140 C1143 1.511 . S
C1141 C1137 1.376 . S
C1141 C1140 1.392 . S
C1141 H1153 0.929 . S
C1142 C1138 1.531 . S
C1142 H1154 0.960 . S
C1142 H1155 0.962 . S
C1142 H1156 0.960 . S
C1143 C1140 1.511 . S
C1143 H1157 0.961 . S
C1143 H1158 0.961 . S
C1143 H1159 0.961 . S
C1144 C1145 1.370 . S
C1144 C1146 1.363 . S
C1144 H1160 0.931 . S
C1145 C1144 1.370 . S
C1145 C1149 1.408 . S
C1146 C1144 1.363 . S
C1146 C1147 1.370 . S
C1146 C1150 1.524 . S
C1147 C1139 1.503 . S
C1147 C1146 1.370 . S
C1147 C1148 1.403 . S
C1148 C1147 1.403 . S
C1148 C1149 1.404 . S
C1148 C1151 1.539 . S
C1149 C1145 1.408 . S
C1149 C1148 1.404 . S
C1149 H1161 0.930 . S
C1150 C1146 1.524 . S
C1150 H1162 0.956 . S
C1150 H1163 0.961 . S
C1150 H1164 0.961 . S
C1151 C1148 1.539 . S
C1151 H1165 0.958 . S
C1151 H1166 0.961 . S
C1151 H1167 0.960 . S
H1152 C1136 0.931 . S
H1153 C1141 0.929 . S
H1154 C1142 0.960 . S
H1155 C1142 0.962 . S
H1156 C1142 0.960 . S
H1157 C1143 0.961 . S
H1158 C1143 0.961 . S
H1159 C1143 0.961 . S
H1160 C1144 0.931 . S
H1161 C1149 0.930 . S
H1162 C1150 0.956 . S
H1163 C1150 0.961 . S
H1164 C1150 0.961 . S
H1165 C1151 0.958 . S
H1166 C1151 0.961 . S
H1167 C1151 0.960 . S
C1168 C1169 1.391 . S
C1168 C1170 1.394 . S
C1168 H1184 0.931 . S
C1169 C1168 1.391 . S
C1169 C1173 1.376 . S
C1170 C1168 1.394 . S
C1170 C1171 1.369 . S
C1170 C1174 1.531 . S
C1171 C1170 1.369 . S
C1171 C1172 1.410 . S
C1171 C1179 1.503 . S
C1172 C1171 1.410 . S
C1172 C1173 1.392 . S
C1172 C1175 1.511 . S
C1173 C1169 1.376 . S
C1173 C1172 1.392 . S
C1173 H1185 0.929 . S
C1174 C1170 1.531 . S
C1174 H1186 0.960 . S
C1174 H1187 0.962 . S
C1174 H1188 0.960 . S
C1175 C1172 1.511 . S
C1175 H1189 0.961 . S
C1175 H1190 0.961 . S
C1175 H1191 0.961 . S
C1176 C1177 1.370 . S
C1176 C1178 1.363 . S
C1176 H1192 0.931 . S
C1177 C1176 1.370 . S
C1177 C1181 1.408 . S
C1178 C1176 1.363 . S
C1178 C1179 1.370 . S
C1178 C1182 1.524 . S
C1179 C1171 1.503 . S
C1179 C1178 1.370 . S
C1179 C1180 1.403 . S
C1180 C1179 1.403 . S
C1180 C1181 1.404 . S
C1180 C1183 1.539 . S
C1181 C1177 1.408 . S
C1181 C1180 1.404 . S
C1181 H1193 0.930 . S
C1182 C1178 1.524 . S
C1182 H1194 0.956 . S
C1182 H1195 0.961 . S
C1182 H1196 0.961 . S
C1183 C1180 1.539 . S
C1183 H1197 0.958 . S
C1183 H1198 0.961 . S
C1183 H1199 0.960 . S
H1184 C1168 0.931 . S
H1185 C1173 0.929 . S
H1186 C1174 0.960 . S
H1187 C1174 0.962 . S
H1188 C1174 0.960 . S
H1189 C1175 0.961 . S
H1190 C1175 0.961 . S
H1191 C1175 0.961 . S
H1192 C1176 0.931 . S
H1193 C1181 0.930 . S
H1194 C1182 0.956 . S
H1195 C1182 0.961 . S
H1196 C1182 0.961 . S
H1197 C1183 0.958 . S
H1198 C1183 0.961 . S
H1199 C1183 0.960 . S
C1200 C1201 1.391 . S
C1200 C1202 1.394 . S
C1200 H1216 0.931 . S
C1201 C1200 1.391 . S
C1201 C1205 1.376 . S
C1202 C1200 1.394 . S
C1202 C1203 1.369 . S
C1202 C1206 1.531 . S
C1203 C1202 1.369 . S
C1203 C1204 1.410 . S
C1203 C1211 1.503 . S
C1204 C1203 1.410 . S
C1204 C1205 1.392 . S
C1204 C1207 1.511 . S
C1205 C1201 1.376 . S
C1205 C1204 1.392 . S
C1205 H1217 0.929 . S
C1206 C1202 1.531 . S
C1206 H1218 0.960 . S
C1206 H1219 0.962 . S
C1206 H1220 0.960 . S
C1207 C1204 1.511 . S
C1207 H1221 0.961 . S
C1207 H1222 0.961 . S
C1207 H1223 0.961 . S
C1208 C1209 1.370 . S
C1208 C1210 1.363 . S
C1208 H1224 0.931 . S
C1209 C1208 1.370 . S
C1209 C1213 1.408 . S
C1210 C1208 1.363 . S
C1210 C1211 1.370 . S
C1210 C1214 1.524 . S
C1211 C1203 1.503 . S
C1211 C1210 1.370 . S
C1211 C1212 1.403 . S
C1212 C1211 1.403 . S
C1212 C1213 1.404 . S
C1212 C1215 1.539 . S
C1213 C1209 1.408 . S
C1213 C1212 1.404 . S
C1213 H1225 0.930 . S
C1214 C1210 1.524 . S
C1214 H1226 0.956 . S
C1214 H1227 0.961 . S
C1214 H1228 0.961 . S
C1215 C1212 1.539 . S
C1215 H1229 0.958 . S
C1215 H1230 0.961 . S
C1215 H1231 0.960 . S
H1216 C1200 0.931 . S
H1217 C1205 0.929 . S
H1218 C1206 0.960 . S
H1219 C1206 0.962 . S
H1220 C1206 0.960 . S
H1221 C1207 0.961 . S
H1222 C1207 0.961 . S
H1223 C1207 0.961 . S
H1224 C1208 0.931 . S
H1225 C1213 0.930 . S
H1226 C1214 0.956 . S
H1227 C1214 0.961 . S
H1228 C1214 0.961 . S
H1229 C1215 0.958 . S
H1230 C1215 0.961 . S
H1231 C1215 0.960 . S
C1232 C1233 1.391 . S
C1232 C1234 1.394 . S
C1232 H1248 0.931 . S
C1233 C1232 1.391 . S
C1233 C1237 1.376 . S
C1234 C1232 1.394 . S
C1234 C1235 1.369 . S
C1234 C1238 1.531 . S
C1235 C1234 1.369 . S
C1235 C1236 1.410 . S
C1235 C1243 1.503 . S
C1236 C1235 1.410 . S
C1236 C1237 1.392 . S
C1236 C1239 1.511 . S
C1237 C1233 1.376 . S
C1237 C1236 1.392 . S
C1237 H1249 0.929 . S
C1238 C1234 1.531 . S
C1238 H1250 0.960 . S
C1238 H1251 0.962 . S
C1238 H1252 0.960 . S
C1239 C1236 1.511 . S
C1239 H1253 0.961 . S
C1239 H1254 0.961 . S
C1239 H1255 0.961 . S
C1240 C1241 1.370 . S
C1240 C1242 1.363 . S
C1240 H1256 0.931 . S
C1241 C1240 1.370 . S
C1241 C1245 1.408 . S
C1242 C1240 1.363 . S
C1242 C1243 1.370 . S
C1242 C1246 1.524 . S
C1243 C1235 1.503 . S
C1243 C1242 1.370 . S
C1243 C1244 1.403 . S
C1244 C1243 1.403 . S
C1244 C1245 1.404 . S
C1244 C1247 1.539 . S
C1245 C1241 1.408 . S
C1245 C1244 1.404 . S
C1245 H1257 0.930 . S
C1246 C1242 1.524 . S
C1246 H1258 0.956 . S
C1246 H1259 0.961 . S
C1246 H1260 0.961 . S
C1247 C1244 1.539 . S
C1247 H1261 0.958 . S
C1247 H1262 0.961 . S
C1247 H1263 0.960 . S
H1248 C1232 0.931 . S
H1249 C1237 0.929 . S
H1250 C1238 0.960 . S
H1251 C1238 0.962 . S
H1252 C1238 0.960 . S
H1253 C1239 0.961 . S
H1254 C1239 0.961 . S
H1255 C1239 0.961 . S
H1256 C1240 0.931 . S
H1257 C1245 0.930 . S
H1258 C1246 0.956 . S
H1259 C1246 0.961 . S
H1260 C1246 0.961 . S
H1261 C1247 0.958 . S
H1262 C1247 0.961 . S
H1263 C1247 0.960 . S
C1264 C1265 1.391 . S
C1264 C1266 1.394 . S
C1264 H1280 0.931 . S
C1265 C1264 1.391 . S
C1265 C1269 1.376 . S
C1266 C1264 1.394 . S
C1266 C1267 1.369 . S
C1266 C1270 1.531 . S
C1267 C1266 1.369 . S
C1267 C1268 1.410 . S
C1267 C1275 1.503 . S
C1268 C1267 1.410 . S
C1268 C1269 1.392 . S
C1268 C1271 1.511 . S
C1269 C1265 1.376 . S
C1269 C1268 1.392 . S
C1269 H1281 0.929 . S
C1270 C1266 1.531 . S
C1270 H1282 0.960 . S
C1270 H1283 0.962 . S
C1270 H1284 0.960 . S
C1271 C1268 1.511 . S
C1271 H1285 0.961 . S
C1271 H1286 0.961 . S
C1271 H1287 0.961 . S
C1272 C1273 1.370 . S
C1272 C1274 1.363 . S
C1272 H1288 0.931 . S
C1273 C1272 1.370 . S
C1273 C1277 1.408 . S
C1274 C1272 1.363 . S
C1274 C1275 1.370 . S
C1274 C1278 1.524 . S
C1275 C1267 1.503 . S
C1275 C1274 1.370 . S
C1275 C1276 1.403 . S
C1276 C1275 1.403 . S
C1276 C1277 1.404 . S
C1276 C1279 1.539 . S
C1277 C1273 1.408 . S
C1277 C1276 1.404 . S
C1277 H1289 0.930 . S
C1278 C1274 1.524 . S
C1278 H1290 0.956 . S
C1278 H1291 0.961 . S
C1278 H1292 0.961 . S
C1279 C1276 1.539 . S
C1279 H1293 0.958 . S
C1279 H1294 0.961 . S
C1279 H1295 0.960 . S
H1280 C1264 0.931 . S
H1281 C1269 0.929 . S
H1282 C1270 0.960 . S
H1283 C1270 0.962 . S
H1284 C1270 0.960 . S
H1285 C1271 0.961 . S
H1286 C1271 0.961 . S
H1287 C1271 0.961 . S
H1288 C1272 0.931 . S
H1289 C1277 0.930 . S
H1290 C1278 0.956 . S
H1291 C1278 0.961 . S
H1292 C1278 0.961 . S
H1293 C1279 0.958 . S
H1294 C1279 0.961 . S
H1295 C1279 0.960 . S
C1296 C1297 1.391 . S
C1296 C1298 1.394 . S
C1296 H1312 0.931 . S
C1297 C1296 1.391 . S
C1297 C1301 1.376 . S
C1298 C1296 1.394 . S
C1298 C1299 1.369 . S
C1298 C1302 1.531 . S
C1299 C1298 1.369 . S
C1299 C1300 1.410 . S
C1299 C1307 1.503 . S
C1300 C1299 1.410 . S
C1300 C1301 1.392 . S
C1300 C1303 1.511 . S
C1301 C1297 1.376 . S
C1301 C1300 1.392 . S
C1301 H1313 0.929 . S
C1302 C1298 1.531 . S
C1302 H1314 0.960 . S
C1302 H1315 0.962 . S
C1302 H1316 0.960 . S
C1303 C1300 1.511 . S
C1303 H1317 0.961 . S
C1303 H1318 0.961 . S
C1303 H1319 0.961 . S
C1304 C1305 1.370 . S
C1304 C1306 1.363 . S
C1304 H1320 0.931 . S
C1305 C1304 1.370 . S
C1305 C1309 1.408 . S
C1306 C1304 1.363 . S
C1306 C1307 1.370 . S
C1306 C1310 1.524 . S
C1307 C1299 1.503 . S
C1307 C1306 1.370 . S
C1307 C1308 1.403 . S
C1308 C1307 1.403 . S
C1308 C1309 1.404 . S
C1308 C1311 1.539 . S
C1309 C1305 1.408 . S
C1309 C1308 1.404 . S
C1309 H1321 0.930 . S
C1310 C1306 1.524 . S
C1310 H1322 0.956 . S
C1310 H1323 0.961 . S
C1310 H1324 0.961 . S
C1311 C1308 1.539 . S
C1311 H1325 0.958 . S
C1311 H1326 0.961 . S
C1311 H1327 0.960 . S
H1312 C1296 0.931 . S
H1313 C1301 0.929 . S
H1314 C1302 0.960 . S
H1315 C1302 0.962 . S
H1316 C1302 0.960 . S
H1317 C1303 0.961 . S
H1318 C1303 0.961 . S
H1319 C1303 0.961 . S
H1320 C1304 0.931 . S
H1321 C1309 0.930 . S
H1322 C1310 0.956 . S
H1323 C1310 0.961 . S
H1324 C1310 0.961 . S
H1325 C1311 0.958 . S
H1326 C1311 0.961 . S
H1327 C1311 0.960 . S
C1328 C1329 1.391 . S
C1328 C1330 1.394 . S
C1328 H1344 0.931 . S
C1329 C1328 1.391 . S
C1329 C1333 1.376 . S
C1330 C1328 1.394 . S
C1330 C1331 1.369 . S
C1330 C1334 1.531 . S
C1331 C1330 1.369 . S
C1331 C1332 1.410 . S
C1331 C1339 1.503 . S
C1332 C1331 1.410 . S
C1332 C1333 1.392 . S
C1332 C1335 1.511 . S
C1333 C1329 1.376 . S
C1333 C1332 1.392 . S
C1333 H1345 0.929 . S
C1334 C1330 1.531 . S
C1334 H1346 0.960 . S
C1334 H1347 0.962 . S
C1334 H1348 0.960 . S
C1335 C1332 1.511 . S
C1335 H1349 0.961 . S
C1335 H1350 0.961 . S
C1335 H1351 0.961 . S
C1336 C1337 1.370 . S
C1336 C1338 1.363 . S
C1336 H1352 0.931 . S
C1337 C1336 1.370 . S
C1337 C1341 1.408 . S
C1338 C1336 1.363 . S
C1338 C1339 1.370 . S
C1338 C1342 1.524 . S
C1339 C1331 1.503 . S
C1339 C1338 1.370 . S
C1339 C1340 1.403 . S
C1340 C1339 1.403 . S
C1340 C1341 1.404 . S
C1340 C1343 1.539 . S
C1341 C1337 1.408 . S
C1341 C1340 1.404 . S
C1341 H1353 0.930 . S
C1342 C1338 1.524 . S
C1342 H1354 0.956 . S
C1342 H1355 0.961 . S
C1342 H1356 0.961 . S
C1343 C1340 1.539 . S
C1343 H1357 0.958 . S
C1343 H1358 0.961 . S
C1343 H1359 0.960 . S
H1344 C1328 0.931 . S
H1345 C1333 0.929 . S
H1346 C1334 0.960 . S
H1347 C1334 0.962 . S
H1348 C1334 0.960 . S
H1349 C1335 0.961 . S
H1350 C1335 0.961 . S
H1351 C1335 0.961 . S
H1352 C1336 0.931 . S
H1353 C1341 0.930 . S
H1354 C1342 0.956 . S
H1355 C1342 0.961 . S
H1356 C1342 0.961 . S
H1357 C1343 0.958 . S
H1358 C1343 0.961 . S
H1359 C1343 0.960 . S
C1360 C1361 1.391 . S
C1360 C1362 1.394 . S
C1360 H1376 0.931 . S
C1361 C1360 1.391 . S
C1361 C1365 1.376 . S
C1362 C1360 1.394 . S
C1362 C1363 1.369 . S
C1362 C1366 1.531 . S
C1363 C1362 1.369 . S
C1363 C1364 1.410 . S
C1363 C1371 1.503 . S
C1364 C1363 1.410 . S
C1364 C1365 1.392 . S
C1364 C1367 1.511 . S
C1365 C1361 1.376 . S
C1365 C1364 1.392 . S
C1365 H1377 0.929 . S
C1366 C1362 1.531 . S
C1366 H1378 0.960 . S
C1366 H1379 0.962 . S
C1366 H1380 0.960 . S
C1367 C1364 1.511 . S
C1367 H1381 0.961 . S
C1367 H1382 0.961 . S
C1367 H1383 0.961 . S
C1368 C1369 1.370 . S
C1368 C1370 1.363 . S
C1368 H1384 0.931 . S
C1369 C1368 1.370 . S
C1369 C1373 1.408 . S
C1370 C1368 1.363 . S
C1370 C1371 1.370 . S
C1370 C1374 1.524 . S
C1371 C1363 1.503 . S
C1371 C1370 1.370 . S
C1371 C1372 1.403 . S
C1372 C1371 1.403 . S
C1372 C1373 1.404 . S
C1372 C1375 1.539 . S
C1373 C1369 1.408 . S
C1373 C1372 1.404 . S
C1373 H1385 0.930 . S
C1374 C1370 1.524 . S
C1374 H1386 0.956 . S
C1374 H1387 0.961 . S
C1374 H1388 0.961 . S
C1375 C1372 1.539 . S
C1375 H1389 0.958 . S
C1375 H1390 0.961 . S
C1375 H1391 0.960 . S
H1376 C1360 0.931 . S
H1377 C1365 0.929 . S
H1378 C1366 0.960 . S
H1379 C1366 0.962 . S
H1380 C1366 0.960 . S
H1381 C1367 0.961 . S
H1382 C1367 0.961 . S
H1383 C1367 0.961 . S
H1384 C1368 0.931 . S
H1385 C1373 0.930 . S
H1386 C1374 0.956 . S
H1387 C1374 0.961 . S
H1388 C1374 0.961 . S
H1389 C1375 0.958 . S
H1390 C1375 0.961 . S
H1391 C1375 0.960 . S
C1392 C1393 1.391 . S
C1392 C1394 1.394 . S
C1392 H1408 0.931 . S
C1393 C1392 1.391 . S
C1393 C1397 1.376 . S
C1394 C1392 1.394 . S
C1394 C1395 1.369 . S
C1394 C1398 1.531 . S
C1395 C1394 1.369 . S
C1395 C1396 1.410 . S
C1395 C1403 1.503 . S
C1396 C1395 1.410 . S
C1396 C1397 1.392 . S
C1396 C1399 1.511 . S
C1397 C1393 1.376 . S
C1397 C1396 1.392 . S
C1397 H1409 0.929 . S
C1398 C1394 1.531 . S
C1398 H1410 0.960 . S
C1398 H1411 0.962 . S
C1398 H1412 0.960 . S
C1399 C1396 1.511 . S
C1399 H1413 0.961 . S
C1399 H1414 0.961 . S
C1399 H1415 0.961 . S
C1400 C1401 1.370 . S
C1400 C1402 1.363 . S
C1400 H1416 0.931 . S
C1401 C1400 1.370 . S
C1401 C1405 1.408 . S
C1402 C1400 1.363 . S
C1402 C1403 1.370 . S
C1402 C1406 1.524 . S
C1403 C1395 1.503 . S
C1403 C1402 1.370 . S
C1403 C1404 1.403 . S
C1404 C1403 1.403 . S
C1404 C1405 1.404 . S
C1404 C1407 1.539 . S
C1405 C1401 1.408 . S
C1405 C1404 1.404 . S
C1405 H1417 0.930 . S
C1406 C1402 1.524 . S
C1406 H1418 0.956 . S
C1406 H1419 0.961 . S
C1406 H1420 0.961 . S
C1407 C1404 1.539 . S
C1407 H1421 0.958 . S
C1407 H1422 0.961 . S
C1407 H1423 0.960 . S
H1408 C1392 0.931 . S
H1409 C1397 0.929 . S
H1410 C1398 0.960 . S
H1411 C1398 0.962 . S
H1412 C1398 0.960 . S
H1413 C1399 0.961 . S
H1414 C1399 0.961 . S
H1415 C1399 0.961 . S
H1416 C1400 0.931 . S
H1417 C1405 0.930 . S
H1418 C1406 0.956 . S
H1419 C1406 0.961 . S
H1420 C1406 0.961 . S
H1421 C1407 0.958 . S
H1422 C1407 0.961 . S
H1423 C1407 0.960 . S
C1424 C1425 1.391 . S
C1424 C1426 1.394 . S
C1424 H1440 0.931 . S
C1425 C1424 1.391 . S
C1425 C1429 1.376 . S
C1426 C1424 1.394 . S
C1426 C1427 1.369 . S
C1426 C1430 1.531 . S
C1427 C1426 1.369 . S
C1427 C1428 1.410 . S
C1427 C1435 1.503 . S
C1428 C1427 1.410 . S
C1428 C1429 1.392 . S
C1428 C1431 1.511 . S
C1429 C1425 1.376 . S
C1429 C1428 1.392 . S
C1429 H1441 0.929 . S
C1430 C1426 1.531 . S
C1430 H1442 0.960 . S
C1430 H1443 0.962 . S
C1430 H1444 0.960 . S
C1431 C1428 1.511 . S
C1431 H1445 0.961 . S
C1431 H1446 0.961 . S
C1431 H1447 0.961 . S
C1432 C1433 1.370 . S
C1432 C1434 1.363 . S
C1432 H1448 0.931 . S
C1433 C1432 1.370 . S
C1433 C1437 1.408 . S
C1434 C1432 1.363 . S
C1434 C1435 1.370 . S
C1434 C1438 1.524 . S
C1435 C1427 1.503 . S
C1435 C1434 1.370 . S
C1435 C1436 1.403 . S
C1436 C1435 1.403 . S
C1436 C1437 1.404 . S
C1436 C1439 1.539 . S
C1437 C1433 1.408 . S
C1437 C1436 1.404 . S
C1437 H1449 0.930 . S
C1438 C1434 1.524 . S
C1438 H1450 0.956 . S
C1438 H1451 0.961 . S
C1438 H1452 0.961 . S
C1439 C1436 1.539 . S
C1439 H1453 0.958 . S
C1439 H1454 0.961 . S
C1439 H1455 0.960 . S
H1440 C1424 0.931 . S
H1441 C1429 0.929 . S
H1442 C1430 0.960 . S
H1443 C1430 0.962 . S
H1444 C1430 0.960 . S
H1445 C1431 0.961 . S
H1446 C1431 0.961 . S
H1447 C1431 0.961 . S
H1448 C1432 0.931 . S
H1449 C1437 0.930 . S
H1450 C1438 0.956 . S
H1451 C1438 0.961 . S
H1452 C1438 0.961 . S
H1453 C1439 0.958 . S
H1454 C1439 0.961 . S
H1455 C1439 0.960 . S
C1456 C1457 1.391 . S
C1456 C1458 1.394 . S
C1456 H1472 0.931 . S
C1457 C1456 1.391 . S
C1457 C1461 1.376 . S
C1458 C1456 1.394 . S
C1458 C1459 1.369 . S
C1458 C1462 1.531 . S
C1459 C1458 1.369 . S
C1459 C1460 1.410 . S
C1459 C1467 1.503 . S
C1460 C1459 1.410 . S
C1460 C1461 1.392 . S
C1460 C1463 1.511 . S
C1461 C1457 1.376 . S
C1461 C1460 1.392 . S
C1461 H1473 0.929 . S
C1462 C1458 1.531 . S
C1462 H1474 0.960 . S
C1462 H1475 0.962 . S
C1462 H1476 0.960 . S
C1463 C1460 1.511 . S
C1463 H1477 0.961 . S
C1463 H1478 0.961 . S
C1463 H1479 0.961 . S
C1464 C1465 1.370 . S
C1464 C1466 1.363 . S
C1464 H1480 0.931 . S
C1465 C1464 1.370 . S
C1465 C1469 1.408 . S
C1466 C1464 1.363 . S
C1466 C1467 1.370 . S
C1466 C1470 1.524 . S
C1467 C1459 1.503 . S
C1467 C1466 1.370 . S
C1467 C1468 1.403 . S
C1468 C1467 1.403 . S
C1468 C1469 1.404 . S
C1468 C1471 1.539 . S
C1469 C1465 1.408 . S
C1469 C1468 1.404 . S
C1469 H1481 0.930 . S
C1470 C1466 1.524 . S
C1470 H1482 0.956 . S
C1470 H1483 0.961 . S
C1470 H1484 0.961 . S
C1471 C1468 1.539 . S
C1471 H1485 0.958 . S
C1471 H1486 0.961 . S
C1471 H1487 0.960 . S
H1472 C1456 0.931 . S
H1473 C1461 0.929 . S
H1474 C1462 0.960 . S
H1475 C1462 0.962 . S
H1476 C1462 0.960 . S
H1477 C1463 0.961 . S
H1478 C1463 0.961 . S
H1479 C1463 0.961 . S
H1480 C1464 0.931 . S
H1481 C1469 0.930 . S
H1482 C1470 0.956 . S
H1483 C1470 0.961 . S
H1484 C1470 0.961 . S
H1485 C1471 0.958 . S
H1486 C1471 0.961 . S
H1487 C1471 0.960 . S
C1488 C1489 1.391 . S
C1488 C1490 1.394 . S
C1488 H1504 0.931 . S
C1489 C1488 1.391 . S
C1489 C1493 1.376 . S
C1490 C1488 1.394 . S
C1490 C1491 1.369 . S
C1490 C1494 1.531 . S
C1491 C1490 1.369 . S
C1491 C1492 1.410 . S
C1491 C1499 1.503 . S
C1492 C1491 1.410 . S
C1492 C1493 1.392 . S
C1492 C1495 1.511 . S
C1493 C1489 1.376 . S
C1493 C1492 1.392 . S
C1493 H1505 0.929 . S
C1494 C1490 1.531 . S
C1494 H1506 0.960 . S
C1494 H1507 0.962 . S
C1494 H1508 0.960 . S
C1495 C1492 1.511 . S
C1495 H1509 0.961 . S
C1495 H1510 0.961 . S
C1495 H1511 0.961 . S
C1496 C1497 1.370 . S
C1496 C1498 1.363 . S
C1496 H1512 0.931 . S
C1497 C1496 1.370 . S
C1497 C1501 1.408 . S
C1498 C1496 1.363 . S
C1498 C1499 1.370 . S
C1498 C1502 1.524 . S
C1499 C1491 1.503 . S
C1499 C1498 1.370 . S
C1499 C1500 1.403 . S
C1500 C1499 1.403 . S
C1500 C1501 1.404 . S
C1500 C1503 1.539 . S
C1501 C1497 1.408 . S
C1501 C1500 1.404 . S
C1501 H1513 0.930 . S
C1502 C1498 1.524 . S
C1502 H1514 0.956 . S
C1502 H1515 0.961 . S
C1502 H1516 0.961 . S
C1503 C1500 1.539 . S
C1503 H1517 0.958 . S
C1503 H1518 0.961 . S
C1503 H1519 0.960 . S
H1504 C1488 0.931 . S
H1505 C1493 0.929 . S
H1506 C1494 0.960 . S
H1507 C1494 0.962 . S
H1508 C1494 0.960 . S
H1509 C1495 0.961 . S
H1510 C1495 0.961 . S
H1511 C1495 0.961 . S
H1512 C1496 0.931 . S
H1513 C1501 0.930 . S
H1514 C1502 0.956 . S
H1515 C1502 0.961 . S
H1516 C1502 0.961 . S
H1517 C1503 0.958 . S
H1518 C1503 0.961 . S
H1519 C1503 0.960 . S
C1520 C1521 1.391 . S
C1520 C1522 1.394 . S
C1520 H1536 0.931 . S
C1521 C1520 1.391 . S
C1521 C1525 1.376 . S
C1522 C1520 1.394 . S
C1522 C1523 1.369 . S
C1522 C1526 1.531 . S
C1523 C1522 1.369 . S
C1523 C1524 1.410 . S
C1523 C1531 1.503 . S
C1524 C1523 1.410 . S
C1524 C1525 1.392 . S
C1524 C1527 1.511 . S
C1525 C1521 1.376 . S
C1525 C1524 1.392 . S
C1525 H1537 0.929 . S
C1526 C1522 1.531 . S
C1526 H1538 0.960 . S
C1526 H1539 0.962 . S
C1526 H1540 0.960 . S
C1527 C1524 1.511 . S
C1527 H1541 0.961 . S
C1527 H1542 0.961 . S
C1527 H1543 0.961 . S
C1528 C1529 1.370 . S
C1528 C1530 1.363 . S
C1528 H1544 0.931 . S
C1529 C1528 1.370 . S
C1529 C1533 1.408 . S
C1530 C1528 1.363 . S
C1530 C1531 1.370 . S
C1530 C1534 1.524 . S
C1531 C1523 1.503 . S
C1531 C1530 1.370 . S
C1531 C1532 1.403 . S
C1532 C1531 1.403 . S
C1532 C1533 1.404 . S
C1532 C1535 1.539 . S
C1533 C1529 1.408 . S
C1533 C1532 1.404 . S
C1533 H1545 0.930 . S
C1534 C1530 1.524 . S
C1534 H1546 0.956 . S
C1534 H1547 0.961 . S
C1534 H1548 0.961 . S
C1535 C1532 1.539 . S
C1535 H1549 0.958 . S
C1535 H1550 0.961 . S
C1535 H1551 0.960 . S
H1536 C1520 0.931 . S
H1537 C1525 0.929 . S
H1538 C1526 0.960 . S
H1539 C1526 0.962 . S
H1540 C1526 0.960 . S
H1541 C1527 0.961 . S
H1542 C1527 0.961 . S
H1543 C1527 0.961 . S
H1544 C1528 0.931 . S
H1545 C1533 0.930 . S
H1546 C1534 0.956 . S
H1547 C1534 0.961 . S
H1548 C1534 0.961 . S
H1549 C1535 0.958 . S
H1550 C1535 0.961 . S
H1551 C1535 0.960 . S
C1552 C1553 1.391 . S
C1552 C1554 1.394 . S
C1552 H1568 0.931 . S
C1553 C1552 1.391 . S
C1553 C1557 1.376 . S
C1554 C1552 1.394 . S
C1554 C1555 1.369 . S
C1554 C1558 1.531 . S
C1555 C1554 1.369 . S
C1555 C1556 1.410 . S
C1555 C1563 1.503 . S
C1556 C1555 1.410 . S
C1556 C1557 1.392 . S
C1556 C1559 1.511 . S
C1557 C1553 1.376 . S
C1557 C1556 1.392 . S
C1557 H1569 0.929 . S
C1558 C1554 1.531 . S
C1558 H1570 0.960 . S
C1558 H1571 0.962 . S
C1558 H1572 0.960 . S
C1559 C1556 1.511 . S
C1559 H1573 0.961 . S
C1559 H1574 0.961 . S
C1559 H1575 0.961 . S
C1560 C1561 1.370 . S
C1560 C1562 1.363 . S
C1560 H1576 0.931 . S
C1561 C1560 1.370 . S
C1561 C1565 1.408 . S
C1562 C1560 1.363 . S
C1562 C1563 1.370 . S
C1562 C1566 1.524 . S
C1563 C1555 1.503 . S
C1563 C1562 1.370 . S
C1563 C1564 1.403 . S
C1564 C1563 1.403 . S
C1564 C1565 1.404 . S
C1564 C1567 1.539 . S
C1565 C1561 1.408 . S
C1565 C1564 1.404 . S
C1565 H1577 0.930 . S
C1566 C1562 1.524 . S
C1566 H1578 0.956 . S
C1566 H1579 0.961 . S
C1566 H1580 0.961 . S
C1567 C1564 1.539 . S
C1567 H1581 0.958 . S
C1567 H1582 0.961 . S
C1567 H1583 0.960 . S
H1568 C1552 0.931 . S
H1569 C1557 0.929 . S
H1570 C1558 0.960 . S
H1571 C1558 0.962 . S
H1572 C1558 0.960 . S
H1573 C1559 0.961 . S
H1574 C1559 0.961 . S
H1575 C1559 0.961 . S
H1576 C1560 0.931 . S
H1577 C1565 0.930 . S
H1578 C1566 0.956 . S
H1579 C1566 0.961 . S
H1580 C1566 0.961 . S
H1581 C1567 0.958 . S
H1582 C1567 0.961 . S
H1583 C1567 0.960 . S
C1584 C1585 1.391 . S
C1584 C1586 1.394 . S
C1584 H1600 0.931 . S
C1585 C1584 1.391 . S
C1585 C1589 1.376 . S
C1586 C1584 1.394 . S
C1586 C1587 1.369 . S
C1586 C1590 1.531 . S
C1587 C1586 1.369 . S
C1587 C1588 1.410 . S
C1587 C1595 1.503 . S
C1588 C1587 1.410 . S
C1588 C1589 1.392 . S
C1588 C1591 1.511 . S
C1589 C1585 1.376 . S
C1589 C1588 1.392 . S
C1589 H1601 0.929 . S
C1590 C1586 1.531 . S
C1590 H1602 0.960 . S
C1590 H1603 0.962 . S
C1590 H1604 0.960 . S
C1591 C1588 1.511 . S
C1591 H1605 0.961 . S
C1591 H1606 0.961 . S
C1591 H1607 0.961 . S
C1592 C1593 1.370 . S
C1592 C1594 1.363 . S
C1592 H1608 0.931 . S
C1593 C1592 1.370 . S
C1593 C1597 1.408 . S
C1594 C1592 1.363 . S
C1594 C1595 1.370 . S
C1594 C1598 1.524 . S
C1595 C1587 1.503 . S
C1595 C1594 1.370 . S
C1595 C1596 1.403 . S
C1596 C1595 1.403 . S
C1596 C1597 1.404 . S
C1596 C1599 1.539 . S
C1597 C1593 1.408 . S
C1597 C1596 1.404 . S
C1597 H1609 0.930 . S
C1598 C1594 1.524 . S
C1598 H1610 0.956 . S
C1598 H1611 0.961 . S
C1598 H1612 0.961 . S
C1599 C1596 1.539 . S
C1599 H1613 0.958 . S
C1599 H1614 0.961 . S
C1599 H1615 0.960 . S
H1600 C1584 0.931 . S
H1601 C1589 0.929 . S
H1602 C1590 0.960 . S
H1603 C1590 0.962 . S
H1604 C1590 0.960 . S
H1605 C1591 0.961 . S
H1606 C1591 0.961 . S
H1607 C1591 0.961 . S
H1608 C1592 0.931 . S
H1609 C1597 0.930 . S
H1610 C1598 0.956 . S
H1611 C1598 0.961 . S
H1612 C1598 0.961 . S
H1613 C1599 0.958 . S
H1614 C1599 0.961 . S
H1615 C1599 0.960 . S
C1616 C1617 1.391 . S
C1616 C1618 1.394 . S
C1616 H1632 0.931 . S
C1617 C1616 1.391 . S
C1617 C1621 1.376 . S
C1618 C1616 1.394 . S
C1618 C1619 1.369 . S
C1618 C1622 1.531 . S
C1619 C1618 1.369 . S
C1619 C1620 1.410 . S
C1619 C1627 1.503 . S
C1620 C1619 1.410 . S
C1620 C1621 1.392 . S
C1620 C1623 1.511 . S
C1621 C1617 1.376 . S
C1621 C1620 1.392 . S
C1621 H1633 0.929 . S
C1622 C1618 1.531 . S
C1622 H1634 0.960 . S
C1622 H1635 0.962 . S
C1622 H1636 0.960 . S
C1623 C1620 1.511 . S
C1623 H1637 0.961 . S
C1623 H1638 0.961 . S
C1623 H1639 0.961 . S
C1624 C1625 1.370 . S
C1624 C1626 1.363 . S
C1624 H1640 0.931 . S
C1625 C1624 1.370 . S
C1625 C1629 1.408 . S
C1626 C1624 1.363 . S
C1626 C1627 1.370 . S
C1626 C1630 1.524 . S
C1627 C1619 1.503 . S
C1627 C1626 1.370 . S
C1627 C1628 1.403 . S
C1628 C1627 1.403 . S
C1628 C1629 1.404 . S
C1628 C1631 1.539 . S
C1629 C1625 1.408 . S
C1629 C1628 1.404 . S
C1629 H1641 0.930 . S
C1630 C1626 1.524 . S
C1630 H1642 0.956 . S
C1630 H1643 0.961 . S
C1630 H1644 0.961 . S
C1631 C1628 1.539 . S
C1631 H1645 0.958 . S
C1631 H1646 0.961 . S
C1631 H1647 0.960 . S
H1632 C1616 0.931 . S
H1633 C1621 0.929 . S
H1634 C1622 0.960 . S
H1635 C1622 0.962 . S
H1636 C1622 0.960 . S
H1637 C1623 0.961 . S
H1638 C1623 0.961 . S
H1639 C1623 0.961 . S
H1640 C1624 0.931 . S
H1641 C1629 0.930 . S
H1642 C1630 0.956 . S
H1643 C1630 0.961 . S
H1644 C1630 0.961 . S
H1645 C1631 0.958 . S
H1646 C1631 0.961 . S
H1647 C1631 0.960 . S
C1648 C1649 1.391 . S
C1648 C1650 1.394 . S
C1648 H1664 0.931 . S
C1649 C1648 1.391 . S
C1649 C1653 1.376 . S
C1650 C1648 1.394 . S
C1650 C1651 1.369 . S
C1650 C1654 1.531 . S
C1651 C1650 1.369 . S
C1651 C1652 1.410 . S
C1651 C1659 1.503 . S
C1652 C1651 1.410 . S
C1652 C1653 1.392 . S
C1652 C1655 1.511 . S
C1653 C1649 1.376 . S
C1653 C1652 1.392 . S
C1653 H1665 0.929 . S
C1654 C1650 1.531 . S
C1654 H1666 0.960 . S
C1654 H1667 0.962 . S
C1654 H1668 0.960 . S
C1655 C1652 1.511 . S
C1655 H1669 0.961 . S
C1655 H1670 0.961 . S
C1655 H1671 0.961 . S
C1656 C1657 1.370 . S
C1656 C1658 1.363 . S
C1656 H1672 0.931 . S
C1657 C1656 1.370 . S
C1657 C1661 1.408 . S
C1658 C1656 1.363 . S
C1658 C1659 1.370 . S
C1658 C1662 1.524 . S
C1659 C1651 1.503 . S
C1659 C1658 1.370 . S
C1659 C1660 1.403 . S
C1660 C1659 1.403 . S
C1660 C1661 1.404 . S
C1660 C1663 1.539 . S
C1661 C1657 1.408 . S
C1661 C1660 1.404 . S
C1661 H1673 0.930 . S
C1662 C1658 1.524 . S
C1662 H1674 0.956 . S
C1662 H1675 0.961 . S
C1662 H1676 0.961 . S
C1663 C1660 1.539 . S
C1663 H1677 0.958 . S
C1663 H1678 0.961 . S
C1663 H1679 0.960 . S
H1664 C1648 0.931 . S
H1665 C1653 0.929 . S
H1666 C1654 0.960 . S
H1667 C1654 0.962 . S
H1668 C1654 0.960 . S
H1669 C1655 0.961 . S
H1670 C1655 0.961 . S
H1671 C1655 0.961 . S
H1672 C1656 0.931 . S
H1673 C1661 0.930 . S
H1674 C1662 0.956 . S
H1675 C1662 0.961 . S
H1676 C1662 0.961 . S
H1677 C1663 0.958 . S
H1678 C1663 0.961 . S
H1679 C1663 0.960 . S
C1680 C1681 1.391 . S
C1680 C1682 1.394 . S
C1680 H1696 0.931 . S
C1681 C1680 1.391 . S
C1681 C1685 1.376 . S
C1682 C1680 1.394 . S
C1682 C1683 1.369 . S
C1682 C1686 1.531 . S
C1683 C1682 1.369 . S
C1683 C1684 1.410 . S
C1683 C1691 1.503 . S
C1684 C1683 1.410 . S
C1684 C1685 1.392 . S
C1684 C1687 1.511 . S
C1685 C1681 1.376 . S
C1685 C1684 1.392 . S
C1685 H1697 0.929 . S
C1686 C1682 1.531 . S
C1686 H1698 0.960 . S
C1686 H1699 0.962 . S
C1686 H1700 0.960 . S
C1687 C1684 1.511 . S
C1687 H1701 0.961 . S
C1687 H1702 0.961 . S
C1687 H1703 0.961 . S
C1688 C1689 1.370 . S
C1688 C1690 1.363 . S
C1688 H1704 0.931 . S
C1689 C1688 1.370 . S
C1689 C1693 1.408 . S
C1690 C1688 1.363 . S
C1690 C1691 1.370 . S
C1690 C1694 1.524 . S
C1691 C1683 1.503 . S
C1691 C1690 1.370 . S
C1691 C1692 1.403 . S
C1692 C1691 1.403 . S
C1692 C1693 1.404 . S
C1692 C1695 1.539 . S
C1693 C1689 1.408 . S
C1693 C1692 1.404 . S
C1693 H1705 0.930 . S
C1694 C1690 1.524 . S
C1694 H1706 0.956 . S
C1694 H1707 0.961 . S
C1694 H1708 0.961 . S
C1695 C1692 1.539 . S
C1695 H1709 0.958 . S
C1695 H1710 0.961 . S
C1695 H1711 0.960 . S
H1696 C1680 0.931 . S
H1697 C1685 0.929 . S
H1698 C1686 0.960 . S
H1699 C1686 0.962 . S
H1700 C1686 0.960 . S
H1701 C1687 0.961 . S
H1702 C1687 0.961 . S
H1703 C1687 0.961 . S
H1704 C1688 0.931 . S
H1705 C1693 0.930 . S
H1706 C1694 0.956 . S
H1707 C1694 0.961 . S
H1708 C1694 0.961 . S
H1709 C1695 0.958 . S
H1710 C1695 0.961 . S
H1711 C1695 0.960 . S
C1712 C1713 1.391 . S
C1712 C1714 1.394 . S
C1712 H1728 0.931 . S
C1713 C1712 1.391 . S
C1713 C1717 1.376 . S
C1714 C1712 1.394 . S
C1714 C1715 1.369 . S
C1714 C1718 1.531 . S
C1715 C1714 1.369 . S
C1715 C1716 1.410 . S
C1715 C1723 1.503 . S
C1716 C1715 1.410 . S
C1716 C1717 1.392 . S
C1716 C1719 1.511 . S
C1717 C1713 1.376 . S
C1717 C1716 1.392 . S
C1717 H1729 0.929 . S
C1718 C1714 1.531 . S
C1718 H1730 0.960 . S
C1718 H1731 0.962 . S
C1718 H1732 0.960 . S
C1719 C1716 1.511 . S
C1719 H1733 0.961 . S
C1719 H1734 0.961 . S
C1719 H1735 0.961 . S
C1720 C1721 1.370 . S
C1720 C1722 1.363 . S
C1720 H1736 0.931 . S
C1721 C1720 1.370 . S
C1721 C1725 1.408 . S
C1722 C1720 1.363 . S
C1722 C1723 1.370 . S
C1722 C1726 1.524 . S
C1723 C1715 1.503 . S
C1723 C1722 1.370 . S
C1723 C1724 1.403 . S
C1724 C1723 1.403 . S
C1724 C1725 1.404 . S
C1724 C1727 1.539 . S
C1725 C1721 1.408 . S
C1725 C1724 1.404 . S
C1725 H1737 0.930 . S
C1726 C1722 1.524 . S
C1726 H1738 0.956 . S
C1726 H1739 0.961 . S
C1726 H1740 0.961 . S
C1727 C1724 1.539 . S
C1727 H1741 0.958 . S
C1727 H1742 0.961 . S
C1727 H1743 0.960 . S
H1728 C1712 0.931 . S
H1729 C1717 0.929 . S
H1730 C1718 0.960 . S
H1731 C1718 0.962 . S
H1732 C1718 0.960 . S
H1733 C1719 0.961 . S
H1734 C1719 0.961 . S
H1735 C1719 0.961 . S
H1736 C1720 0.931 . S
H1737 C1725 0.930 . S
H1738 C1726 0.956 . S
H1739 C1726 0.961 . S
H1740 C1726 0.961 . S
H1741 C1727 0.958 . S
H1742 C1727 0.961 . S
H1743 C1727 0.960 . S
C1744 C1745 1.391 . S
C1744 C1746 1.394 . S
C1744 H1760 0.931 . S
C1745 C1744 1.391 . S
C1745 C1749 1.376 . S
C1746 C1744 1.394 . S
C1746 C1747 1.369 . S
C1746 C1750 1.531 . S
C1747 C1746 1.369 . S
C1747 C1748 1.410 . S
C1747 C1755 1.503 . S
C1748 C1747 1.410 . S
C1748 C1749 1.392 . S
C1748 C1751 1.511 . S
C1749 C1745 1.376 . S
C1749 C1748 1.392 . S
C1749 H1761 0.929 . S
C1750 C1746 1.531 . S
C1750 H1762 0.960 . S
C1750 H1763 0.962 . S
C1750 H1764 0.960 . S
C1751 C1748 1.511 . S
C1751 H1765 0.961 . S
C1751 H1766 0.961 . S
C1751 H1767 0.961 . S
C1752 C1753 1.370 . S
C1752 C1754 1.363 . S
C1752 H1768 0.931 . S
C1753 C1752 1.370 . S
C1753 C1757 1.408 . S
C1754 C1752 1.363 . S
C1754 C1755 1.370 . S
C1754 C1758 1.524 . S
C1755 C1747 1.503 . S
C1755 C1754 1.370 . S
C1755 C1756 1.403 . S
C1756 C1755 1.403 . S
C1756 C1757 1.404 . S
C1756 C1759 1.539 . S
C1757 C1753 1.408 . S
C1757 C1756 1.404 . S
C1757 H1769 0.930 . S
C1758 C1754 1.524 . S
C1758 H1770 0.956 . S
C1758 H1771 0.961 . S
C1758 H1772 0.961 . S
C1759 C1756 1.539 . S
C1759 H1773 0.958 . S
C1759 H1774 0.961 . S
C1759 H1775 0.960 . S
H1760 C1744 0.931 . S
H1761 C1749 0.929 . S
H1762 C1750 0.960 . S
H1763 C1750 0.962 . S
H1764 C1750 0.960 . S
H1765 C1751 0.961 . S
H1766 C1751 0.961 . S
H1767 C1751 0.961 . S
H1768 C1752 0.931 . S
H1769 C1757 0.930 . S
H1770 C1758 0.956 . S
H1771 C1758 0.961 . S
H1772 C1758 0.961 . S
H1773 C1759 0.958 . S
H1774 C1759 0.961 . S
H1775 C1759 0.960 . S
C1776 C1777 1.391 . S
C1776 C1778 1.394 . S
C1776 H1792 0.931 . S
C1777 C1776 1.391 . S
C1777 C1781 1.376 . S
C1778 C1776 1.394 . S
C1778 C1779 1.369 . S
C1778 C1782 1.531 . S
C1779 C1778 1.369 . S
C1779 C1780 1.410 . S
C1779 C1787 1.503 . S
C1780 C1779 1.410 . S
C1780 C1781 1.392 . S
C1780 C1783 1.511 . S
C1781 C1777 1.376 . S
C1781 C1780 1.392 . S
C1781 H1793 0.929 . S
C1782 C1778 1.531 . S
C1782 H1794 0.960 . S
C1782 H1795 0.962 . S
C1782 H1796 0.960 . S
C1783 C1780 1.511 . S
C1783 H1797 0.961 . S
C1783 H1798 0.961 . S
C1783 H1799 0.961 . S
C1784 C1785 1.370 . S
C1784 C1786 1.363 . S
C1784 H1800 0.931 . S
C1785 C1784 1.370 . S
C1785 C1789 1.408 . S
C1786 C1784 1.363 . S
C1786 C1787 1.370 . S
C1786 C1790 1.524 . S
C1787 C1779 1.503 . S
C1787 C1786 1.370 . S
C1787 C1788 1.403 . S
C1788 C1787 1.403 . S
C1788 C1789 1.404 . S
C1788 C1791 1.539 . S
C1789 C1785 1.408 . S
C1789 C1788 1.404 . S
C1789 H1801 0.930 . S
C1790 C1786 1.524 . S
C1790 H1802 0.956 . S
C1790 H1803 0.961 . S
C1790 H1804 0.961 . S
C1791 C1788 1.539 . S
C1791 H1805 0.958 . S
C1791 H1806 0.961 . S
C1791 H1807 0.960 . S
H1792 C1776 0.931 . S
H1793 C1781 0.929 . S
H1794 C1782 0.960 . S
H1795 C1782 0.962 . S
H1796 C1782 0.960 . S
H1797 C1783 0.961 . S
H1798 C1783 0.961 . S
H1799 C1783 0.961 . S
H1800 C1784 0.931 . S
H1801 C1789 0.930 . S
H1802 C1790 0.956 . S
H1803 C1790 0.961 . S
H1804 C1790 0.961 . S
H1805 C1791 0.958 . S
H1806 C1791 0.961 . S
H1807 C1791 0.960 . S
C1808 C1809 1.391 . S
C1808 C1810 1.394 . S
C1808 H1824 0.931 . S
C1809 C1808 1.391 . S
C1809 C1813 1.376 . S
C1810 C1808 1.394 . S
C1810 C1811 1.369 . S
C1810 C1814 1.531 . S
C1811 C1810 1.369 . S
C1811 C1812 1.410 . S
C1811 C1819 1.503 . S
C1812 C1811 1.410 . S
C1812 C1813 1.392 . S
C1812 C1815 1.511 . S
C1813 C1809 1.376 . S
C1813 C1812 1.392 . S
C1813 H1825 0.929 . S
C1814 C1810 1.531 . S
C1814 H1826 0.960 . S
C1814 H1827 0.962 . S
C1814 H1828 0.960 . S
C1815 C1812 1.511 . S
C1815 H1829 0.961 . S
C1815 H1830 0.961 . S
C1815 H1831 0.961 . S
C1816 C1817 1.370 . S
C1816 C1818 1.363 . S
C1816 H1832 0.931 . S
C1817 C1816 1.370 . S
C1817 C1821 1.408 . S
C1818 C1816 1.363 . S
C1818 C1819 1.370 . S
C1818 C1822 1.524 . S
C1819 C1811 1.503 . S
C1819 C1818 1.370 . S
C1819 C1820 1.403 . S
C1820 C1819 1.403 . S
C1820 C1821 1.404 . S
C1820 C1823 1.539 . S
C1821 C1817 1.408 . S
C1821 C1820 1.404 . S
C1821 H1833 0.930 . S
C1822 C1818 1.524 . S
C1822 H1834 0.956 . S
C1822 H1835 0.961 . S
C1822 H1836 0.961 . S
C1823 C1820 1.539 . S
C1823 H1837 0.958 . S
C1823 H1838 0.961 . S
C1823 H1839 0.960 . S
H1824 C1808 0.931 . S
H1825 C1813 0.929 . S
H1826 C1814 0.960 . S
H1827 C1814 0.962 . S
H1828 C1814 0.960 . S
H1829 C1815 0.961 . S
H1830 C1815 0.961 . S
H1831 C1815 0.961 . S
H1832 C1816 0.931 . S
H1833 C1821 0.930 . S
H1834 C1822 0.956 . S
H1835 C1822 0.961 . S
H1836 C1822 0.961 . S
H1837 C1823 0.958 . S
H1838 C1823 0.961 . S
H1839 C1823 0.960 . S
C1840 C1841 1.391 . S
C1840 C1842 1.394 . S
C1840 H1856 0.931 . S
C1841 C1840 1.391 . S
C1841 C1845 1.376 . S
C1842 C1840 1.394 . S
C1842 C1843 1.369 . S
C1842 C1846 1.531 . S
C1843 C1842 1.369 . S
C1843 C1844 1.410 . S
C1843 C1851 1.503 . S
C1844 C1843 1.410 . S
C1844 C1845 1.392 . S
C1844 C1847 1.511 . S
C1845 C1841 1.376 . S
C1845 C1844 1.392 . S
C1845 H1857 0.929 . S
C1846 C1842 1.531 . S
C1846 H1858 0.960 . S
C1846 H1859 0.962 . S
C1846 H1860 0.960 . S
C1847 C1844 1.511 . S
C1847 H1861 0.961 . S
C1847 H1862 0.961 . S
C1847 H1863 0.961 . S
C1848 C1849 1.370 . S
C1848 C1850 1.363 . S
C1848 H1864 0.931 . S
C1849 C1848 1.370 . S
C1849 C1853 1.408 . S
C1850 C1848 1.363 . S
C1850 C1851 1.370 . S
C1850 C1854 1.524 . S
C1851 C1843 1.503 . S
C1851 C1850 1.370 . S
C1851 C1852 1.403 . S
C1852 C1851 1.403 . S
C1852 C1853 1.404 . S
C1852 C1855 1.539 . S
C1853 C1849 1.408 . S
C1853 C1852 1.404 . S
C1853 H1865 0.930 . S
C1854 C1850 1.524 . S
C1854 H1866 0.956 . S
C1854 H1867 0.961 . S
C1854 H1868 0.961 . S
C1855 C1852 1.539 . S
C1855 H1869 0.958 . S
C1855 H1870 0.961 . S
C1855 H1871 0.960 . S
H1856 C1840 0.931 . S
H1857 C1845 0.929 . S
H1858 C1846 0.960 . S
H1859 C1846 0.962 . S
H1860 C1846 0.960 . S
H1861 C1847 0.961 . S
H1862 C1847 0.961 . S
H1863 C1847 0.961 . S
H1864 C1848 0.931 . S
H1865 C1853 0.930 . S
H1866 C1854 0.956 . S
H1867 C1854 0.961 . S
H1868 C1854 0.961 . S
H1869 C1855 0.958 . S
H1870 C1855 0.961 . S
H1871 C1855 0.960 . S
C337 C203 1.472 . S
C345 C6 1.434 . S
C369 C21 1.440 . S
C377 C216 1.443 . S
C401 C261 1.699 . S
C409 C37 1.695 . S
C433 C50 2.105 . S
C441 C190 2.106 . S
C465 C204 2.086 . S
C473 C64 2.098 . S
C497 C79 1.674 . S
C505 C219 1.689 . S
C529 C91 1.440 . S
C537 C258 1.444 . S
C561 C104 1.432 . S
C569 C189 1.469 . S
C593 C133 1.447 . S
C601 C118 1.438 . S
C625 C148 2.093 . S
C633 C134 2.098 . S
C657 C147 1.444 . S
C665 C160 1.454 . S
C689 C163 1.677 . S
C697 C121 1.682 . S
C721 C174 1.448 . S
C729 C49 1.467 . S
C753 C63 1.440 . S
C761 C230 1.444 . S
C785 C246 2.110 . S
C793 C22 2.107 . S
C817 C20 1.588 . S
C825 C302 1.597 . S
C849 C132 1.591 . S
C857 C8 1.594 . S
C881 C331 1.752 . S
C889 C51 1.735 . S
C913 C161 0.954 . S
C921 C35 0.929 . S
C945 C301 0.953 . S
C953 C105 0.927 . S
C977 C135 1.755 . S
C985 C93 1.734 . S
C1009 C78 1.584 . S
C1017 C328 1.563 . S
C1041 C62 1.549 . S
C1049 C162 1.589 . S
C1073 C218 1.600 . S
C1081 C272 1.579 . S
C1105 C231 0.928 . S
C1113 C217 0.938 . S
C1137 C188 1.555 . S
C1145 C232 1.588 . S
C1169 C275 1.737 . S
C1177 C191 1.741 . S
C1201 C36 1.588 . S
C1209 C286 1.563 . S
C1233 C146 1.578 . S
C1241 C106 1.588 . S
C1265 C7 0.894 . S
C1273 C315 0.917 . S
C1297 C273 1.439 . S
C1305 C34 1.450 . S
C1329 C9 1.698 . S
C1337 C233 1.695 . S
C1361 C274 2.094 . S
C1369 C92 2.099 . S
C1393 C177 1.669 . S
C1401 C107 1.685 . S
C1425 C76 1.424 . S
C1433 C245 1.469 . S
C1457 C300 1.452 . S
C1465 C287 1.453 . S
C1489 C330 2.101 . S
C1497 C288 2.102 . S
C1521 C314 1.448 . S
C1529 C329 1.453 . S
C1553 C303 1.694 . S
C1561 C317 1.688 . S
C1585 C120 1.582 . S
C1593 C48 1.580 . S
C1617 C23 1.717 . S
C1625 C149 1.749 . S
C1649 C77 0.956 . S
C1657 C119 0.931 . S
C1681 C289 1.718 . S
C1689 C65 1.749 . S
C1713 C90 1.587 . S
C1721 C316 1.591 . S
C1745 C176 1.582 . S
C1753 C202 1.563 . S
C1777 C259 0.953 . S
C1785 C175 0.938 . S
C1809 C244 1.578 . S
C1817 C260 1.599 . S
C1841 C205 1.727 . S
C1849 C247 1.745 . S
