# Generated by pormake.
# Topology irl, (4)-cn, num edge types: 1
# Building blocks:
#     Node 0, Type 0, BuildingBlock: QUQFOY_clean_sbu_1, # of connection points: 4
#     Node 1, Type 0, BuildingBlock: QUQFOY_clean_sbu_1, # of connection points: 4
#     Node 2, Type 0, BuildingBlock: QUQFOY_clean_sbu_1, # of connection points: 4
#     Node 3, Type 0, BuildingBlock: QUQFOY_clean_sbu_1, # of connection points: 4
#     Node 4, Type 0, BuildingBlock: QUQFOY_clean_sbu_1, # of connection points: 4
#     Node 5, Type 0, BuildingBlock: QUQFOY_clean_sbu_1, # of connection points: 4
#     Node 6, Type 0, BuildingBlock: QUQFOY_clean_sbu_1, # of connection points: 4
#     Node 7, Type 0, BuildingBlock: QUQFOY_clean_sbu_1, # of connection points: 4
#     Edge 8, Type (0, 0), BuildingBlock: FUNLAD_clean_linker_1, # of connection points: 2
#     Edge 9, Type (0, 0), BuildingBlock: FUNLAD_clean_linker_1, # of connection points: 2
#     Edge 10, Type (0, 0), BuildingBlock: FUNLAD_clean_linker_1, # of connection points: 2
#     Edge 11, Type (0, 0), BuildingBlock: FUNLAD_clean_linker_1, # of connection points: 2
#     Edge 12, Type (0, 0), BuildingBlock: FUNLAD_clean_linker_1, # of connection points: 2
#     Edge 13, Type (0, 0), BuildingBlock: FUNLAD_clean_linker_1, # of connection points: 2
#     Edge 14, Type (0, 0), BuildingBlock: FUNLAD_clean_linker_1, # of connection points: 2
#     Edge 15, Type (0, 0), BuildingBlock: FUNLAD_clean_linker_1, # of connection points: 2
#     Edge 16, Type (0, 0), BuildingBlock: FUNLAD_clean_linker_1, # of connection points: 2
#     Edge 17, Type (0, 0), BuildingBlock: FUNLAD_clean_linker_1, # of connection points: 2
#     Edge 18, Type (0, 0), BuildingBlock: FUNLAD_clean_linker_1, # of connection points: 2
#     Edge 19, Type (0, 0), BuildingBlock: FUNLAD_clean_linker_1, # of connection points: 2
#     Edge 20, Type (0, 0), BuildingBlock: FUNLAD_clean_linker_1, # of connection points: 2
#     Edge 21, Type (0, 0), BuildingBlock: FUNLAD_clean_linker_1, # of connection points: 2
#     Edge 22, Type (0, 0), BuildingBlock: FUNLAD_clean_linker_1, # of connection points: 2
#     Edge 23, Type (0, 0), BuildingBlock: FUNLAD_clean_linker_1, # of connection points: 2
# Relax obj value: 0.045
# Max RMSD: 0.084
# Mean RMSD: 0.084
data_MOF--net-irl--node1-QUQFOY_clean_sbu_1--edge1-FUNLAD_clean_linker_1
_symmetry_space_group_name_H-M    P1
_symmetry_Int_Tables_number       1
_symmetry_cell_setting            triclinic
loop_
_symmetry_equiv_pos_as_xyz
'x, y, z'
_cell_length_a     37.673766
_cell_length_b     46.252431
_cell_length_c     29.85507
_cell_angle_alpha  89.946959
_cell_angle_beta   89.608554
_cell_angle_gamma 89.709649
loop_
_atom_site_label
_atom_site_type_symbol
_atom_site_fract_x
_atom_site_fract_y
_atom_site_fract_z
_atom_type_partial_charge
O0 O 0.07695 0.18253 0.09116 0.0
Cd1 Cd 0.1034 0.16916 0.03389 0.0
Cd2 Cd 0.03963 0.18126 0.99775 0.0
O3 O 0.03139 0.20351 0.05767 0.0
O4 O 0.15592 0.17482 0.04253 0.0
O5 O 0.1237 0.20031 0.99485 0.0
C6 C 0.15395 0.19537 1.01329 0.0
C7 C 0.03633 0.20094 0.9258 0.0
C8 C 0.04887 0.19792 0.09305 0.0
C9 C 0.06141 0.1188 1.00334 0.0
O10 O 0.03584 0.13672 1.00007 0.0
O11 O 0.09259 0.12756 1.01197 0.0
O12 O 1.00777 0.19463 0.94787 0.0
O13 O 0.06638 0.19772 0.94561 0.0
O14 O 0.95324 0.8415 0.10073 0.0
Cd15 Cd 0.92525 0.85475 0.04513 0.0
Cd16 Cd 0.98994 0.84785 1.00697 0.0
O17 O 1.00292 0.82813 0.06659 0.0
O18 O 0.87387 0.84513 0.05577 0.0
O19 O 0.90782 0.82324 1.00524 0.0
C20 C 0.87768 0.82532 0.02562 0.0
C21 C 0.99628 0.826 0.93748 0.0
C22 C 0.984 0.83003 0.10187 0.0
C23 C 0.96107 0.90841 1.01288 0.0
O24 O 0.9881 0.89232 1.00661 0.0
O25 O 0.93151 0.89754 0.02487 0.0
O26 O 0.02357 0.83612 0.95808 0.0
O27 O 0.96585 0.82709 0.95735 0.0
O28 O 0.088 0.83751 0.43485 0.0
Cd29 Cd 0.11646 0.85011 0.49018 0.0
Cd30 Cd 0.05251 0.84276 0.52938 0.0
O31 O 0.03951 0.82281 0.47003 0.0
O32 O 0.16778 0.83948 0.47983 0.0
O33 O 0.13309 0.818 0.52976 0.0
C34 C 0.16337 0.8195 0.50962 0.0
C35 C 0.04597 0.82167 0.59949 0.0
C36 C 0.05767 0.82552 0.43425 0.0
C37 C 0.07998 0.90356 0.52256 0.0
O38 O 0.05339 0.88722 0.52897 0.0
O39 O 0.10983 0.8929 0.51068 0.0
O40 O 0.01871 0.83156 0.57829 0.0
O41 O 0.07648 0.82243 0.57984 0.0
O42 O 0.9395 0.16783 0.43019 0.0
Cd43 Cd 0.91786 0.15732 0.49191 0.0
Cd44 Cd 0.98282 0.17342 0.51679 0.0
O45 O 0.98644 0.19194 0.45333 0.0
O46 O 0.86482 0.15742 0.48428 0.0
O47 O 0.89292 0.18908 0.52636 0.0
C48 C 0.86358 0.17998 0.50958 0.0
C49 C 0.98493 0.19668 0.58584 0.0
C50 C 0.96633 0.18354 0.42179 0.0
C51 C 0.96613 0.11043 0.52334 0.0
O52 O 0.99048 0.12928 0.5201 0.0
O53 O 0.93374 0.11766 0.51834 0.0
O54 O 1.0138 0.19132 0.5636 0.0
O55 O 0.95502 0.19073 0.56733 0.0
O56 O 0.5888 0.66691 0.10445 0.0
Cd57 Cd 0.61222 0.65853 0.04332 0.0
Cd58 Cd 0.54505 0.6694 1.01659 0.0
O59 O 0.53926 0.68732 0.08026 0.0
O60 O 0.66461 0.66602 0.04952 0.0
O61 O 0.62863 0.69302 1.00857 0.0
C62 C 0.65984 0.68846 0.02446 0.0
C63 C 0.53841 0.69352 0.9486 0.0
C64 C 0.56014 0.68068 0.11213 0.0
C65 C 0.57175 0.60814 1.00989 0.0
O66 O 0.54483 0.62481 1.01218 0.0
O67 O 0.6028 0.61796 1.0164 0.0
O68 O 0.51086 0.68464 0.97059 0.0
O69 O 0.56914 0.69023 0.96654 0.0
O70 O 0.45296 0.33223 0.08777 0.0
Cd71 Cd 0.43538 0.34334 0.02472 0.0
Cd72 Cd 0.50467 0.33569 1.00626 0.0
O73 O 0.50751 0.31813 0.07065 0.0
O74 O 0.38275 0.33745 0.02756 0.0
O75 O 0.41873 0.31068 0.98571 0.0
C76 C 0.3872 0.3157 1.00104 0.0
C77 C 0.52005 0.31359 0.93837 0.0
C78 C 0.48258 0.3214 0.09933 0.0
C79 C 0.47644 0.39618 0.99961 0.0
O80 O 0.50381 0.38015 1.00296 0.0
O81 O 0.44551 0.3854 1.00322 0.0
O82 O 0.54414 0.3223 0.96573 0.0
O83 O 0.48725 0.31541 0.95108 0.0
O84 O 0.59151 0.33891 0.4388 0.0
Cd85 Cd 0.60631 0.35204 0.50183 0.0
Cd86 Cd 0.54213 0.33154 0.52224 0.0
O87 O 0.54364 0.31415 0.45756 0.0
O88 O 0.65935 0.3547 0.49951 0.0
O89 O 0.6307 0.32169 0.53924 0.0
C90 C 0.66037 0.33192 0.52441 0.0
C91 C 0.53259 0.30791 0.59048 0.0
C92 C 0.56596 0.32257 0.42804 0.0
C93 C 0.55152 0.39564 0.52852 0.0
O94 O 0.52982 0.37482 0.52596 0.0
O95 O 0.58479 0.39121 0.52401 0.0
O96 O 0.50708 0.31161 0.56238 0.0
O97 O 0.56423 0.31529 0.57816 0.0
O98 O 0.4606 0.67246 0.44144 0.0
Cd99 Cd 0.43439 0.65745 0.4971 0.0
Cd100 Cd 0.49319 0.67849 0.53809 0.0
O101 O 0.49905 0.70011 0.47692 0.0
O102 O 0.38158 0.66175 0.48821 0.0
O103 O 0.41307 0.68848 0.53475 0.0
C104 C 0.38314 0.68313 0.51602 0.0
C105 C 0.49407 0.70002 0.60897 0.0
C106 C 0.48476 0.69156 0.4407 0.0
C107 C 0.48319 0.61348 0.53403 0.0
O108 O 0.50413 0.63464 0.53939 0.0
O109 O 0.45135 0.61768 0.52132 0.0
O110 O 0.52323 0.6956 0.58696 0.0
O111 O 0.4646 0.69401 0.58962 0.0
H112 H 0.94107 0.95357 1.01327 0.0
C113 C 0.96454 0.94015 1.00845 0.0
H114 H 0.01978 0.93938 0.99562 0.0
H115 H 0.03684 0.06345 0.91413 0.0
H116 H 0.0453 0.03371 0.84792 0.0
H117 H 0.03346 0.98131 0.85025 0.0
H118 H 1.01302 0.95832 0.91872 0.0
C119 C 0.99631 0.95267 1.00129 0.0
C120 C 1.00106 0.98465 0.99957 0.0
C121 C 1.0131 0.99778 0.95928 0.0
C122 C 0.01996 0.02801 0.95789 0.0
C123 C 0.03155 0.04056 0.9171 0.0
C124 C 0.03642 0.02375 0.87883 0.0
C125 C 0.02976 0.99425 0.88014 0.0
C126 C 1.01815 0.98131 0.91974 0.0
H127 H 0.07718 0.07265 1.00094 0.0
C128 C 0.05472 0.08743 0.99913 0.0
H129 H 0.99881 0.09117 0.99563 0.0
H130 H 0.98199 0.96623 0.08389 0.0
H131 H 0.97288 0.99618 0.1494 0.0
H132 H 0.98221 0.04888 0.14588 0.0
H133 H 1.00124 0.07185 0.07678 0.0
C134 C 0.02167 0.07676 0.99566 0.0
C135 C 1.01482 0.04508 0.9968 0.0
C136 C 1.00248 0.03208 0.03696 0.0
C137 C 0.99615 1.00177 0.03863 0.0
C138 C 0.98591 0.98923 0.08004 0.0
C139 C 0.98085 1.00616 0.11812 0.0
C140 C 0.98617 0.03582 0.11617 0.0
C141 C 0.99701 0.04873 0.07624 0.0
H142 H 0.09819 0.94907 0.5196 0.0
C143 C 0.07543 0.93531 0.52608 0.0
H144 H 0.02058 0.93375 0.5413 0.0
H145 H 0.99975 0.05968 0.61457 0.0
H146 H 0.99663 0.03218 0.68376 0.0
H147 H 1.01197 0.98026 0.685 0.0
H148 H 0.0307 0.95553 0.61713 0.0
C149 C 0.04332 0.94736 0.53393 0.0
C150 C 0.03698 0.97923 0.53346 0.0
C151 C 0.0259 0.99338 0.57337 0.0
C152 C 1.01688 0.02332 0.57265 0.0
C153 C 1.00646 0.03693 0.61315 0.0
C154 C 1.00466 0.02142 0.65312 0.0
C155 C 1.01331 0.99219 0.65382 0.0
C156 C 0.02389 0.97823 0.61457 0.0
H157 H 0.95421 0.06406 0.53385 0.0
C158 C 0.97555 0.07968 0.53066 0.0
H159 H 0.03105 0.08563 0.52565 0.0
H160 H 0.05401 0.95851 0.44974 0.0
H161 H 0.05773 0.98621 0.38113 0.0
H162 H 0.0443 0.03846 0.38063 0.0
H163 H 0.02656 0.0632 0.44881 0.0
C164 C 1.00951 0.07042 0.53072 0.0
C165 C 0.0188 0.03907 0.53198 0.0
C166 C 0.03034 0.02507 0.49218 0.0
C167 C 0.03893 0.99504 0.49272 0.0
C168 C 0.04835 0.98139 0.45182 0.0
C169 C 0.05036 0.99703 0.41199 0.0
C170 C 0.04274 0.02642 0.41169 0.0
C171 C 0.03268 0.04037 0.45113 0.0
H172 H 0.59023 0.56286 1.00302 0.0
C173 C 0.56688 0.57676 1.00281 0.0
H174 H 0.5109 0.57849 0.99833 0.0
H175 H 0.49377 0.45431 0.91244 0.0
H176 H 0.48196 0.48465 0.84783 0.0
H177 H 0.49155 0.53734 0.85099 0.0
H178 H 0.51317 0.56002 0.91875 0.0
C179 C 0.53445 0.56486 0.99948 0.0
C180 C 0.52926 0.53294 0.99756 0.0
C181 C 0.51611 0.52004 0.95795 0.0
C182 C 0.51029 0.48965 0.95623 0.0
C183 C 0.49809 0.47731 0.91583 0.0
C184 C 0.49133 0.49446 0.87842 0.0
C185 C 0.49675 0.52413 0.8802 0.0
C186 C 0.50908 0.53688 0.91934 0.0
H187 H 0.45684 0.44126 0.99321 0.0
C188 C 0.48057 0.4278 0.99401 0.0
H189 H 0.53663 0.42707 0.99515 0.0
H190 H 0.55077 0.55096 0.08062 0.0
H191 H 0.56242 0.52066 0.14506 0.0
H192 H 0.55386 0.46788 0.14139 0.0
H193 H 0.53326 0.44516 0.0733 0.0
C194 C 0.51278 0.44027 0.99267 0.0
C195 C 0.51734 0.47224 0.9943 0.0
C196 C 0.53023 0.48517 0.03403 0.0
C197 C 0.53579 0.51556 0.03588 0.0
C198 C 0.54712 0.52794 0.07674 0.0
C199 C 0.55368 0.5108 0.11419 0.0
C200 C 0.54882 0.4811 0.11214 0.0
C201 C 0.5371 0.46833 0.07274 0.0
H202 H 0.5086 0.4268 0.54278 0.0
C203 C 0.53682 0.425 0.53524 0.0
H204 H 0.58333 0.44807 0.5187 0.0
H205 H 0.49243 0.55348 0.44336 0.0
H206 H 0.51407 0.53187 0.37436 0.0
H207 H 0.54647 0.4854 0.37523 0.0
H208 H 0.55759 0.4603 0.44513 0.0
C209 C 0.55561 0.44925 0.52886 0.0
C210 C 0.53743 0.478 0.52904 0.0
C211 C 0.53118 0.49244 0.4879 0.0
C212 C 0.51218 0.51913 0.48736 0.0
C213 C 0.50645 0.53307 0.44574 0.0
C214 C 0.51876 0.52092 0.40585 0.0
C215 C 0.53702 0.49477 0.40634 0.0
C216 C 0.54323 0.4806 0.44674 0.0
H217 H 0.52389 0.58208 0.55519 0.0
C218 C 0.49747 0.58402 0.54097 0.0
H219 H 0.4555 0.56153 0.51034 0.0
H220 H 0.54683 0.457 0.61382 0.0
H221 H 0.52424 0.47813 0.68281 0.0
H222 H 0.4896 0.52354 0.68167 0.0
H223 H 0.47751 0.5482 0.61158 0.0
C224 C 0.48096 0.56001 0.52707 0.0
C225 C 0.49964 0.53148 0.528 0.0
C226 C 0.50587 0.51702 0.56917 0.0
C227 C 0.52508 0.49041 0.56972 0.0
C228 C 0.53169 0.47687 0.6114 0.0
C229 C 0.51902 0.48883 0.65126 0.0
C230 C 0.49958 0.51444 0.65062 0.0
C231 C 0.49297 0.52845 0.61017 0.0
H232 H 0.01951 0.22781 0.13829 0.0
C233 C 0.03581 0.20838 0.13704 0.0
H234 H 0.05861 0.17382 0.17266 0.0
H235 H 0.06651 0.21059 0.36904 0.0
H236 H 0.12851 0.20686 0.34843 0.0
H237 H 0.14679 0.20237 0.26927 0.0
H238 H 0.10298 0.20103 0.2103 0.0
C239 C 0.04238 0.19329 0.17477 0.0
C240 C 0.03073 0.20241 0.22072 0.0
C241 C 0.05668 0.20464 0.25486 0.0
C242 C 0.04617 0.20824 0.30047 0.0
C243 C 0.07276 0.20855 0.33382 0.0
C244 C 0.10859 0.20639 0.32247 0.0
C245 C 0.11888 0.2038 0.27793 0.0
C246 C 0.09339 0.2029 0.24442 0.0
H247 H 0.9632 0.17486 0.34979 0.0
C248 C 0.97539 0.18899 0.37431 0.0
H249 H 1.01071 0.22342 0.3845 0.0
H250 H 0.97272 0.19685 0.1655 0.0
H251 H 0.9116 0.20716 0.18489 0.0
H252 H 0.8949 0.22186 0.26163 0.0
H253 H 0.93939 0.22498 0.3199 0.0
C254 C 0.99831 0.20933 0.36017 0.0
C255 C 1.00966 0.21076 0.3119 0.0
C256 C 0.98407 0.21197 0.27717 0.0
C257 C 0.99425 0.20617 0.23197 0.0
C258 C 0.96722 0.20344 0.1995 0.0
C259 C 0.9318 0.20897 0.21033 0.0
C260 C 0.92236 0.21706 0.25358 0.0
C261 C 0.94807 0.21852 0.28676 0.0
H262 H 1.01459 0.80937 0.39132 0.0
C263 C 0.04163 0.81746 0.39116 0.0
H264 H 0.0843 0.83251 0.35136 0.0
H265 H 0.98962 0.76965 0.19355 0.0
H266 H 1.01027 0.72435 0.22564 0.0
H267 H 0.04409 0.72376 0.29614 0.0
H268 H 0.05728 0.76849 0.33519 0.0
C269 C 0.05788 0.82319 0.352 0.0
C270 C 0.03783 0.82302 0.30944 0.0
C271 C 0.03073 0.79676 0.28694 0.0
C272 C 1.01181 0.79714 0.24587 0.0
C273 C 1.00447 0.7706 0.2244 0.0
C274 C 1.01605 0.74446 0.24254 0.0
C275 C 0.03505 0.74413 0.28229 0.0
C276 C 0.04239 0.76991 0.30439 0.0
H277 H 0.02705 0.81442 0.14562 0.0
C278 C 0.99944 0.82137 0.14511 0.0
H279 H 0.95448 0.8329 0.18392 0.0
H280 H 0.04657 0.87721 0.34482 0.0
H281 H 0.0264 0.92244 0.31255 0.0
H282 H 0.99428 0.92321 0.24082 0.0
H283 H 0.98206 0.87875 0.20107 0.0
C284 C 0.98165 0.82488 0.18387 0.0
C285 C 1.00045 0.82384 0.22737 0.0
C286 C 1.00732 0.85009 0.25013 0.0
C287 C 0.02611 0.84968 0.29118 0.0
C288 C 0.03263 0.87623 0.3133 0.0
C289 C 0.02116 0.90239 0.29519 0.0
C290 C 1.00305 0.90281 0.25485 0.0
C291 C 0.99616 0.87708 0.23241 0.0
H292 H 0.06771 0.80492 0.66266 0.0
C293 C 0.04362 0.81271 0.64668 0.0
H294 H 0.99121 0.82774 0.65672 0.0
H295 H 0.02914 0.76555 0.8526 0.0
H296 H 0.02486 0.71988 0.81288 0.0
H297 H 1.01657 0.71884 0.73098 0.0
H298 H 1.01269 0.76346 0.68822 0.0
C299 C 1.01475 0.81828 0.67179 0.0
C300 C 1.01731 0.8184 0.72138 0.0
C301 C 0.019 0.79216 0.74581 0.0
C302 C 0.02306 0.79277 0.79313 0.0
C303 C 0.02539 0.76628 0.81672 0.0
C304 C 0.0231 0.73995 0.79432 0.0
C305 C 1.0185 0.73936 0.74818 0.0
C306 C 1.01644 0.7651 0.72402 0.0
H307 H 0.97439 0.80832 0.87517 0.0
C308 C 0.99852 0.81618 0.89071 0.0
H309 H 0.05107 0.83024 0.87988 0.0
H310 H 1.0153 0.87271 0.68432 0.0
H311 H 0.01874 0.91824 0.72409 0.0
H312 H 0.02481 0.9193 0.8063 0.0
H313 H 0.02769 0.87484 0.84912 0.0
C314 C 0.02745 0.82078 0.86534 0.0
C315 C 0.02499 0.81962 0.81578 0.0
C316 C 0.02328 0.84588 0.79131 0.0
C317 C 0.01935 0.84527 0.74405 0.0
C318 C 1.01794 0.87184 0.72036 0.0
C319 C 0.01992 0.89818 0.74275 0.0
C320 C 0.02337 0.89877 0.78901 0.0
C321 C 0.02503 0.87303 0.81318 0.0
H322 H 0.06066 0.21426 0.86171 0.0
C323 C 0.0356 0.20887 0.87787 0.0
H324 H 0.98154 0.19899 0.86774 0.0
H325 H 1.00192 0.25963 0.67158 0.0
H326 H 0.98738 0.30358 0.71239 0.0
H327 H 0.98249 0.3033 0.79485 0.0
H328 H 0.99228 0.25906 0.83713 0.0
C329 C 1.00651 0.20564 0.85263 0.0
C330 C 1.00911 0.20604 0.8028 0.0
C331 C 1.00299 0.23192 0.77857 0.0
C332 C 1.00534 0.23197 0.73091 0.0
C333 C 0.99981 0.25827 0.70768 0.0
C334 C 0.99161 0.28366 0.73071 0.0
C335 C 0.98889 0.28351 0.77716 0.0
C336 C 0.99455 0.25801 0.80101 0.0
H337 H 0.96023 0.2105 0.64953 0.0
C338 C 0.98554 0.20624 0.63304 0.0
H339 H 0.04039 0.19937 0.64201 0.0
H340 H 0.0217 0.15257 0.83902 0.0
H341 H 0.03562 0.10854 0.79842 0.0
H342 H 0.03948 0.1085 0.71591 0.0
H343 H 0.02952 0.15244 0.67352 0.0
C344 C 1.01528 0.20538 0.65764 0.0
C345 C 1.01353 0.20604 0.70758 0.0
C346 C 0.01975 0.18015 0.73193 0.0
C347 C 1.0174 0.18014 0.77951 0.0
C348 C 0.02327 0.15387 0.80287 0.0
C349 C 0.03123 0.1284 0.77999 0.0
C350 C 0.03342 0.12838 0.73355 0.0
C351 C 0.02772 0.15383 0.70963 0.0
H352 H 0.56446 0.67378 0.1844 0.0
C353 C 0.55072 0.68656 0.15925 0.0
H354 H 0.51249 0.71908 0.14773 0.0
H355 H 0.4287 0.69284 0.32809 0.0
H356 H 0.38265 0.69093 0.27184 0.0
H357 H 0.39726 0.69665 0.19168 0.0
H358 H 0.4578 0.7048 0.16734 0.0
C359 C 0.52648 0.70625 0.17251 0.0
C360 C 0.51644 0.70863 0.22101 0.0
C361 C 0.48083 0.70385 0.23457 0.0
C362 C 0.47256 0.69971 0.28072 0.0
C363 C 0.43666 0.69532 0.2934 0.0
C364 C 0.40991 0.69433 0.26149 0.0
C365 C 0.41813 0.6976 0.21638 0.0
C366 C 0.4531 0.70226 0.20286 0.0
H367 H 0.50907 0.72457 0.39614 0.0
C368 C 0.49632 0.70357 0.39708 0.0
H369 H 0.4786 0.66751 0.36079 0.0
H370 H 0.58418 0.72782 0.20822 0.0
H371 H 0.63089 0.72926 0.26394 0.0
H372 H 0.61885 0.71478 0.34212 0.0
H373 H 0.56012 0.70002 0.36542 0.0
C374 C 0.49156 0.68845 0.35905 0.0
C375 C 0.49999 0.69941 0.31315 0.0
C376 C 0.53525 0.70626 0.2999 0.0
C377 C 0.54297 0.71229 0.25409 0.0
C378 C 0.57759 0.72136 0.24211 0.0
C379 C 0.60449 0.72249 0.27377 0.0
C380 C 0.59766 0.7145 0.31782 0.0
C381 C 0.56357 0.70632 0.33088 0.0
H382 H 0.58413 0.32079 0.35795 0.0
C383 C 0.56203 0.31543 0.38004 0.0
H384 H 0.50825 0.30272 0.38249 0.0
H385 H 0.5026 0.36415 0.18761 0.0
H386 H 0.48477 0.40471 0.23385 0.0
H387 H 0.48533 0.40103 0.31626 0.0
H388 H 0.50428 0.35681 0.35288 0.0
C389 C 0.5315 0.30661 0.36168 0.0
C390 C 0.52732 0.30723 0.31195 0.0
C391 C 0.5147 0.33275 0.29093 0.0
C392 C 0.51314 0.33448 0.24334 0.0
C393 C 0.50275 0.36104 0.22349 0.0
C394 C 0.49278 0.38466 0.24968 0.0
C395 C 0.49319 0.38263 0.29607 0.0
C396 C 0.50413 0.3571 0.31664 0.0
H397 H 0.46399 0.31543 0.16867 0.0
C398 C 0.48751 0.31465 0.14735 0.0
H399 H 0.54341 0.31056 0.1464 0.0
H400 H 0.55255 0.25528 0.34147 0.0
H401 H 0.57007 0.21427 0.29537 0.0
H402 H 0.56579 0.21663 0.21301 0.0
H403 H 0.54413 0.26002 0.17611 0.0
C404 C 0.5194 0.3114 0.16673 0.0
C405 C 0.52267 0.31014 0.21669 0.0
C406 C 0.53533 0.28464 0.23779 0.0
C407 C 0.5377 0.28321 0.28541 0.0
C408 C 0.55038 0.25748 0.3055 0.0
C409 C 0.56043 0.2338 0.27945 0.0
C410 C 0.55802 0.23513 0.23306 0.0
C411 C 0.54558 0.26017 0.21229 0.0
H412 H 0.55813 0.30452 0.88349 0.0
C413 C 0.53007 0.30488 0.89219 0.0
H414 H 0.47779 0.30332 0.86767 0.0
H415 H 0.51721 0.35189 0.67669 0.0
H416 H 0.48563 0.39238 0.70965 0.0
H417 H 0.46763 0.39168 0.7892 0.0
H418 H 0.48127 0.35053 0.83632 0.0
C419 C 0.50589 0.30143 0.85964 0.0
C420 C 0.51637 0.30102 0.81117 0.0
C421 C 0.50756 0.32505 0.78367 0.0
C422 C 0.5177 0.32536 0.7376 0.0
C423 C 0.50959 0.35015 0.71156 0.0
C424 C 0.4916 0.37367 0.73012 0.0
C425 C 0.48148 0.37328 0.7749 0.0
C426 C 0.48939 0.3494 0.80154 0.0
H427 H 0.49716 0.29342 0.64516 0.0
C428 C 0.52445 0.29903 0.63711 0.0
H429 H 0.57502 0.3085 0.66351 0.0
H430 H 0.5356 0.25085 0.85323 0.0
H431 H 0.56799 0.21054 0.82034 0.0
H432 H 0.58631 0.21147 0.74085 0.0
H433 H 0.57212 0.25268 0.69357 0.0
C434 C 0.54778 0.30233 0.67068 0.0
C435 C 0.53622 0.30145 0.7187 0.0
C436 C 0.54509 0.27748 0.74614 0.0
C437 C 0.53495 0.27715 0.79228 0.0
C438 C 0.54332 0.25252 0.81837 0.0
C439 C 0.56174 0.22918 0.79983 0.0
C440 C 0.57202 0.22968 0.75505 0.0
C441 C 0.56378 0.25346 0.72831 0.0
H442 H 0.5601 0.7129 0.88691 0.0
C443 C 0.53606 0.70435 0.90222 0.0
H444 H 0.48433 0.68899 0.89049 0.0
H445 H 0.51549 0.76019 0.70068 0.0
H446 H 0.50521 0.80359 0.74483 0.0
H447 H 0.49711 0.80069 0.82681 0.0
H448 H 0.49934 0.75436 0.86524 0.0
C449 C 0.50767 0.69943 0.87645 0.0
C450 C 0.51074 0.70153 0.8268 0.0
C451 C 0.50909 0.72869 0.80486 0.0
C452 C 0.51327 0.73032 0.75746 0.0
C453 C 0.51197 0.75773 0.73647 0.0
C454 C 0.5062 0.78279 0.76144 0.0
C455 C 0.50169 0.78115 0.80762 0.0
C456 C 0.5031 0.75447 0.82927 0.0
H457 H 0.46817 0.71299 0.67222 0.0
C458 C 0.49376 0.70848 0.6566 0.0
H459 H 0.54787 0.69935 0.66776 0.0
H460 H 0.51508 0.64597 0.85838 0.0
H461 H 0.52454 0.60262 0.81426 0.0
H462 H 0.53143 0.60539 0.73214 0.0
H463 H 0.52899 0.65151 0.69368 0.0
C464 C 0.52261 0.70586 0.68248 0.0
C465 C 0.51893 0.70476 0.73217 0.0
C466 C 0.52048 0.67758 0.75416 0.0
C467 C 0.51624 0.67596 0.80146 0.0
C468 C 0.51793 0.6485 0.82251 0.0
C469 C 0.52338 0.6234 0.79759 0.0
C470 C 0.52728 0.62496 0.75137 0.0
C471 C 0.52586 0.65163 0.72973 0.0
H472 H 0.36452 0.27508 0.97522 0.0
C473 C 0.35803 0.29523 0.99216 0.0
H474 H 0.31895 0.31924 0.02675 0.0
H475 H 0.22923 0.20976 0.93302 0.0
H476 H 0.24911 0.22808 0.86103 0.0
H477 H 0.29018 0.26935 0.8564 0.0
H478 H 0.31234 0.29206 0.92372 0.0
C479 C 0.32507 0.29945 1.00863 0.0
C480 C 0.29818 0.27579 1.01028 0.0
C481 C 0.28412 0.26369 0.97053 0.0
C482 C 0.25875 0.24096 0.97318 0.0
C483 C 0.24708 0.22799 0.93298 0.0
C484 C 0.25851 0.23814 0.89141 0.0
C485 C 0.28176 0.2613 0.88881 0.0
C486 C 0.29448 0.27401 0.92776 0.0
H487 H 0.17936 0.2338 0.98377 0.0
C488 C 0.18443 0.21432 1.00313 0.0
H489 H 0.22216 0.19021 0.03933 0.0
H490 H 0.32112 0.29275 0.09321 0.0
H491 H 0.29917 0.27601 0.16495 0.0
H492 H 0.25203 0.23931 0.16948 0.0
H493 H 0.22694 0.21887 0.1023 0.0
C494 C 0.21718 0.20934 0.01912 0.0
C495 C 0.24581 0.23155 1.01554 0.0
C496 C 0.25978 0.24376 0.05526 0.0
C497 C 0.28623 0.26559 0.05263 0.0
C498 C 0.30036 0.27669 0.09299 0.0
C499 C 0.28811 0.26718 0.13454 0.0
C500 C 0.26164 0.24649 0.13709 0.0
C501 C 0.24754 0.23486 0.09811 0.0
H502 H 0.6805 0.7302 1.00077 0.0
C503 C 0.68799 0.71001 1.0169 0.0
H504 H 0.72854 0.68683 0.04952 0.0
H505 H 0.80198 0.80419 0.9513 0.0
H506 H 0.78238 0.78437 0.88058 0.0
H507 H 0.7482 0.73905 0.87823 0.0
H508 H 0.73252 0.71379 0.94671 0.0
C509 C 0.7212 0.70664 0.03225 0.0
C510 C 0.74673 0.73127 0.03242 0.0
C511 C 0.75762 0.74475 0.99186 0.0
C512 C 0.77942 0.76981 0.99301 0.0
C513 C 0.78725 0.7842 0.95226 0.0
C514 C 0.77589 0.77319 0.91142 0.0
C515 C 0.75649 0.74776 0.91011 0.0
C516 C 0.7474 0.73361 0.94973 0.0
H517 H 0.85681 0.78529 0.99621 0.0
C518 C 0.84979 0.80379 1.01693 0.0
H519 H 0.81077 0.82317 0.05802 0.0
H520 H 0.73048 0.71118 0.11662 0.0
H521 H 0.75333 0.72906 0.18679 0.0
H522 H 0.79516 0.76986 0.18834 0.0
H523 H 0.81393 0.7933 0.11978 0.0
C524 C 0.81753 0.80508 0.03632 0.0
C525 C 0.79257 0.7801 0.0345 0.0
C526 C 0.78253 0.76608 0.07494 0.0
C527 C 0.75926 0.74194 0.07395 0.0
C528 C 0.74874 0.72912 0.11508 0.0
C529 C 0.76157 0.73922 0.15576 0.0
C530 C 0.78506 0.76222 0.15664 0.0
C531 C 0.79552 0.77556 0.11689 0.0
H532 H 0.18295 0.77857 0.53815 0.0
C533 C 0.19068 0.7972 0.51818 0.0
H534 H 0.23079 0.81632 0.47891 0.0
H535 H 0.30486 0.70391 0.58966 0.0
H536 H 0.28677 0.72782 0.65845 0.0
H537 H 0.25297 0.77362 0.65641 0.0
H538 H 0.23603 0.7952 0.58569 0.0
C539 C 0.22333 0.79807 0.49982 0.0
C540 C 0.24802 0.77266 0.50188 0.0
C541 C 0.25979 0.76141 0.54356 0.0
C542 C 0.28163 0.73619 0.54471 0.0
C543 C 0.2902 0.72398 0.58682 0.0
C544 C 0.2797 0.73734 0.62657 0.0
C545 C 0.2605 0.76303 0.62543 0.0
C546 C 0.25064 0.77504 0.58454 0.0
H547 H 0.35843 0.72293 0.54172 0.0
C548 C 0.35307 0.70319 0.52327 0.0
H549 H 0.31582 0.68024 0.48518 0.0
H550 H 0.22899 0.78734 0.41621 0.0
H551 H 0.25029 0.76528 0.34764 0.0
H552 H 0.29274 0.72456 0.34951 0.0
H553 H 0.31361 0.70533 0.41993 0.0
C554 C 0.32101 0.69957 0.50468 0.0
C555 C 0.29431 0.72365 0.50419 0.0
C556 C 0.28297 0.73514 0.46252 0.0
C557 C 0.25941 0.75932 0.4614 0.0
C558 C 0.2476 0.76958 0.41925 0.0
C559 C 0.25951 0.75704 0.37949 0.0
C560 C 0.28334 0.73409 0.38054 0.0
C561 C 0.29503 0.7232 0.42138 0.0
H562 H 0.71859 0.32733 0.51997 0.0
C563 C 0.69449 0.31669 0.53135 0.0
H564 H 0.67238 0.27787 0.55611 0.0
H565 H 0.82015 0.23458 0.45214 0.0
H566 H 0.79076 0.25016 0.38439 0.0
H567 H 0.73236 0.27441 0.38775 0.0
H568 H 0.70351 0.2839 0.45892 0.0
C569 C 0.69619 0.28893 0.54481 0.0
C570 C 0.73003 0.27195 0.54241 0.0
C571 C 0.74564 0.2651 0.50024 0.0
C572 C 0.7783 0.24947 0.49815 0.0
C573 C 0.79452 0.24495 0.45573 0.0
C574 C 0.77807 0.25401 0.41649 0.0
C575 C 0.74528 0.26778 0.41839 0.0
C576 C 0.72913 0.2733 0.45962 0.0
H577 H 0.80579 0.18646 0.50229 0.0
C578 C 0.82968 0.19569 0.51651 0.0
H579 H 0.85154 0.23123 0.55093 0.0
H580 H 0.70711 0.28088 0.62833 0.0
H581 H 0.7352 0.26338 0.69615 0.0
H582 H 0.7903 0.2344 0.6924 0.0
H583 H 0.81779 0.22282 0.62085 0.0
C584 C 0.82798 0.22189 0.53608 0.0
C585 C 0.79423 0.23904 0.53806 0.0
C586 C 0.77833 0.24551 0.58011 0.0
C587 C 0.74628 0.26198 0.58227 0.0
C588 C 0.73124 0.26827 0.62477 0.0
C589 C 0.74711 0.25839 0.66395 0.0
C590 C 0.77815 0.24209 0.66184 0.0
C591 C 0.79368 0.23564 0.62053 0.0
loop_
_geom_bond_atom_site_label_1
_geom_bond_atom_site_label_2
_geom_bond_distance
_geom_bond_site_symmetry_2
_ccdc_geom_bond_type
O0 Cd1 2.223 . S
O0 C8 1.315 . S
Cd1 O0 2.223 . S
Cd1 O4 2.297 . S
Cd1 O5 2.439 . S
Cd1 O11 2.240 . S
Cd2 O3 2.240 . S
Cd2 O10 2.223 . S
Cd2 O12 2.297 1_454 S
Cd2 O13 2.439 1_554 S
O3 Cd2 2.240 . S
O3 C8 1.279 . S
O4 Cd1 2.297 . S
O4 C6 1.247 . S
O5 Cd1 2.439 . S
O5 C6 1.208 . S
C6 O4 1.247 . S
C6 O5 1.208 . S
C7 O12 1.247 1_455 S
C7 O13 1.208 . S
C8 O0 1.315 . S
C8 O3 1.279 . S
C9 O10 1.315 . S
C9 O11 1.279 . S
O10 Cd2 2.223 . S
O10 C9 1.315 . S
O11 Cd1 2.240 . S
O11 C9 1.279 . S
O12 Cd2 2.297 1_656 S
O12 C7 1.247 1_655 S
O13 Cd2 2.439 1_556 S
O13 C7 1.208 . S
O14 Cd15 2.223 . S
O14 C22 1.315 . S
Cd15 O14 2.223 . S
Cd15 O18 2.297 . S
Cd15 O19 2.439 . S
Cd15 O25 2.240 . S
Cd16 O17 2.240 . S
Cd16 O24 2.223 . S
Cd16 O26 2.297 1_654 S
Cd16 O27 2.439 1_554 S
O17 Cd16 2.240 . S
O17 C22 1.279 . S
O18 Cd15 2.297 . S
O18 C20 1.247 . S
O19 Cd15 2.439 . S
O19 C20 1.208 . S
C20 O18 1.247 . S
C20 O19 1.208 . S
C21 O26 1.247 1_655 S
C21 O27 1.208 . S
C22 O14 1.315 . S
C22 O17 1.279 . S
C23 O24 1.315 . S
C23 O25 1.279 . S
O24 Cd16 2.223 . S
O24 C23 1.315 . S
O25 Cd15 2.240 . S
O25 C23 1.279 . S
O26 Cd16 2.297 1_456 S
O26 C21 1.247 1_455 S
O27 Cd16 2.439 1_556 S
O27 C21 1.208 . S
O28 Cd29 2.223 . S
O28 C36 1.315 . S
Cd29 O28 2.223 . S
Cd29 O32 2.297 . S
Cd29 O33 2.439 . S
Cd29 O39 2.240 . S
Cd30 O31 2.240 . S
Cd30 O38 2.223 . S
Cd30 O40 2.297 1_455 S
Cd30 O41 2.439 . S
O31 Cd30 2.240 . S
O31 C36 1.279 . S
O32 Cd29 2.297 . S
O32 C34 1.247 . S
O33 Cd29 2.439 . S
O33 C34 1.208 . S
C34 O32 1.247 . S
C34 O33 1.208 . S
C35 O40 1.247 1_455 S
C35 O41 1.208 . S
C36 O28 1.315 . S
C36 O31 1.279 . S
C37 O38 1.315 . S
C37 O39 1.279 . S
O38 Cd30 2.223 . S
O38 C37 1.315 . S
O39 Cd29 2.240 . S
O39 C37 1.279 . S
O40 Cd30 2.297 1_655 S
O40 C35 1.247 1_655 S
O41 Cd30 2.439 . S
O41 C35 1.208 . S
O42 Cd43 2.223 . S
O42 C50 1.315 . S
Cd43 O42 2.223 . S
Cd43 O46 2.297 . S
Cd43 O47 2.439 . S
Cd43 O53 2.240 . S
Cd44 O45 2.240 . S
Cd44 O52 2.223 . S
Cd44 O54 2.297 1_655 S
Cd44 O55 2.439 . S
O45 Cd44 2.240 . S
O45 C50 1.279 . S
O46 Cd43 2.297 . S
O46 C48 1.247 . S
O47 Cd43 2.439 . S
O47 C48 1.208 . S
C48 O46 1.247 . S
C48 O47 1.208 . S
C49 O54 1.247 1_655 S
C49 O55 1.208 . S
C50 O42 1.315 . S
C50 O45 1.279 . S
C51 O52 1.315 . S
C51 O53 1.279 . S
O52 Cd44 2.223 . S
O52 C51 1.315 . S
O53 Cd43 2.240 . S
O53 C51 1.279 . S
O54 Cd44 2.297 1_455 S
O54 C49 1.247 1_455 S
O55 Cd44 2.439 . S
O55 C49 1.208 . S
O56 Cd57 2.223 . S
O56 C64 1.315 . S
Cd57 O56 2.223 . S
Cd57 O60 2.297 . S
Cd57 O61 2.439 . S
Cd57 O67 2.240 . S
Cd58 O59 2.240 . S
Cd58 O66 2.223 . S
Cd58 O68 2.297 1_554 S
Cd58 O69 2.439 1_554 S
O59 Cd58 2.240 . S
O59 C64 1.279 . S
O60 Cd57 2.297 . S
O60 C62 1.247 . S
O61 Cd57 2.439 . S
O61 C62 1.208 . S
C62 O60 1.247 . S
C62 O61 1.208 . S
C63 O68 1.247 . S
C63 O69 1.208 . S
C64 O56 1.315 . S
C64 O59 1.279 . S
C65 O66 1.315 . S
C65 O67 1.279 . S
O66 Cd58 2.223 . S
O66 C65 1.315 . S
O67 Cd57 2.240 . S
O67 C65 1.279 . S
O68 Cd58 2.297 1_556 S
O68 C63 1.247 . S
O69 Cd58 2.439 1_556 S
O69 C63 1.208 . S
O70 Cd71 2.223 . S
O70 C78 1.315 . S
Cd71 O70 2.223 . S
Cd71 O74 2.297 . S
Cd71 O75 2.439 . S
Cd71 O81 2.240 . S
Cd72 O73 2.240 . S
Cd72 O80 2.223 . S
Cd72 O82 2.297 1_554 S
Cd72 O83 2.439 1_554 S
O73 Cd72 2.240 . S
O73 C78 1.279 . S
O74 Cd71 2.297 . S
O74 C76 1.247 . S
O75 Cd71 2.439 . S
O75 C76 1.208 . S
C76 O74 1.247 . S
C76 O75 1.208 . S
C77 O82 1.247 . S
C77 O83 1.208 . S
C78 O70 1.315 . S
C78 O73 1.279 . S
C79 O80 1.315 . S
C79 O81 1.279 . S
O80 Cd72 2.223 . S
O80 C79 1.315 . S
O81 Cd71 2.240 . S
O81 C79 1.279 . S
O82 Cd72 2.297 1_556 S
O82 C77 1.247 . S
O83 Cd72 2.439 1_556 S
O83 C77 1.208 . S
O84 Cd85 2.223 . S
O84 C92 1.315 . S
Cd85 O84 2.223 . S
Cd85 O88 2.297 . S
Cd85 O89 2.439 . S
Cd85 O95 2.240 . S
Cd86 O87 2.240 . S
Cd86 O94 2.223 . S
Cd86 O96 2.297 . S
Cd86 O97 2.439 . S
O87 Cd86 2.240 . S
O87 C92 1.279 . S
O88 Cd85 2.297 . S
O88 C90 1.247 . S
O89 Cd85 2.439 . S
O89 C90 1.208 . S
C90 O88 1.247 . S
C90 O89 1.208 . S
C91 O96 1.247 . S
C91 O97 1.208 . S
C92 O84 1.315 . S
C92 O87 1.279 . S
C93 O94 1.315 . S
C93 O95 1.279 . S
O94 Cd86 2.223 . S
O94 C93 1.315 . S
O95 Cd85 2.240 . S
O95 C93 1.279 . S
O96 Cd86 2.297 . S
O96 C91 1.247 . S
O97 Cd86 2.439 . S
O97 C91 1.208 . S
O98 Cd99 2.223 . S
O98 C106 1.315 . S
Cd99 O98 2.223 . S
Cd99 O102 2.297 . S
Cd99 O103 2.439 . S
Cd99 O109 2.240 . S
Cd100 O101 2.240 . S
Cd100 O108 2.223 . S
Cd100 O110 2.297 . S
Cd100 O111 2.439 . S
O101 Cd100 2.240 . S
O101 C106 1.279 . S
O102 Cd99 2.297 . S
O102 C104 1.247 . S
O103 Cd99 2.439 . S
O103 C104 1.208 . S
C104 O102 1.247 . S
C104 O103 1.208 . S
C105 O110 1.247 . S
C105 O111 1.208 . S
C106 O98 1.315 . S
C106 O101 1.279 . S
C107 O108 1.315 . S
C107 O109 1.279 . S
O108 Cd100 2.223 . S
O108 C107 1.315 . S
O109 Cd99 2.240 . S
O109 C107 1.279 . S
O110 Cd100 2.297 . S
O110 C105 1.247 . S
O111 Cd100 2.439 . S
O111 C105 1.208 . S
H112 C113 0.951 . S
C113 H112 0.951 . S
C113 C119 1.265 . S
H114 C119 0.950 1_455 S
H115 C123 0.949 . S
H116 C124 0.950 . S
H117 C125 0.951 . S
H118 C126 0.951 . S
C119 C113 1.265 . S
C119 H114 0.950 1_655 S
C119 C120 1.478 . S
C120 C119 1.478 . S
C120 C121 1.397 1_655 S
C120 C137 1.394 . S
C121 C120 1.397 1_455 S
C121 C122 1.437 1_564 S
C121 C126 1.429 1_554 S
C122 C121 1.437 1_546 S
C122 C123 1.435 . S
C122 C135 1.388 1_556 S
C123 H115 0.949 . S
C123 C122 1.435 . S
C123 C124 1.345 . S
C124 H116 0.950 . S
C124 C123 1.345 . S
C124 C125 1.424 1_545 S
C125 H117 0.951 . S
C125 C124 1.424 1_565 S
C125 C126 1.347 . S
C126 H118 0.951 . S
C126 C121 1.429 1_556 S
C126 C125 1.347 . S
H127 C128 0.951 . S
C128 H127 0.951 . S
C128 C134 1.265 . S
H129 C134 0.950 1_655 S
H130 C138 0.949 . S
H131 C139 0.950 . S
H132 C140 0.951 . S
H133 C141 0.951 . S
C134 C128 1.265 . S
C134 H129 0.950 1_455 S
C134 C135 1.478 . S
C135 C122 1.388 1_554 S
C135 C134 1.478 . S
C135 C136 1.397 1_455 S
C136 C135 1.397 1_655 S
C136 C137 1.438 1_545 S
C136 C141 1.429 . S
C137 C120 1.394 . S
C137 C136 1.438 1_565 S
C137 C138 1.428 . S
C138 H130 0.949 . S
C138 C137 1.428 . S
C138 C139 1.345 . S
C139 H131 0.950 . S
C139 C138 1.345 . S
C139 C140 1.424 1_565 S
C140 H132 0.951 . S
C140 C139 1.424 1_545 S
C140 C141 1.347 . S
C141 H133 0.951 . S
C141 C136 1.429 . S
C141 C140 1.347 . S
H142 C143 0.951 . S
C143 H142 0.951 . S
C143 C149 1.265 . S
H144 C149 0.950 1_655 S
H145 C153 0.949 . S
H146 C154 0.950 . S
H147 C155 0.951 . S
H148 C156 0.951 . S
C149 C143 1.265 . S
C149 H144 0.950 1_455 S
C149 C150 1.478 . S
C150 C149 1.478 . S
C150 C151 1.397 1_455 S
C150 C167 1.394 . S
C151 C150 1.397 1_655 S
C151 C152 1.438 1_565 S
C151 C156 1.429 . S
C152 C151 1.438 1_545 S
C152 C153 1.428 . S
C152 C165 1.394 . S
C153 H145 0.949 . S
C153 C152 1.428 . S
C153 C154 1.345 . S
C154 H146 0.950 . S
C154 C153 1.345 . S
C154 C155 1.424 1_545 S
C155 H147 0.951 . S
C155 C154 1.424 1_565 S
C155 C156 1.347 . S
C156 H148 0.951 . S
C156 C151 1.429 . S
C156 C155 1.347 . S
H157 C158 0.951 . S
C158 H157 0.951 . S
C158 C164 1.265 . S
H159 C164 0.950 1_455 S
H160 C168 0.949 . S
H161 C169 0.950 . S
H162 C170 0.951 . S
H163 C171 0.951 . S
C164 C158 1.265 . S
C164 H159 0.950 1_655 S
C164 C165 1.478 . S
C165 C152 1.394 . S
C165 C164 1.478 . S
C165 C166 1.397 1_655 S
C166 C165 1.397 1_455 S
C166 C167 1.438 1_545 S
C166 C171 1.429 . S
C167 C150 1.394 . S
C167 C166 1.438 1_565 S
C167 C168 1.428 . S
C168 H160 0.949 . S
C168 C167 1.428 . S
C168 C169 1.345 . S
C169 H161 0.950 . S
C169 C168 1.345 . S
C169 C170 1.424 1_565 S
C170 H162 0.951 . S
C170 C169 1.424 1_545 S
C170 C171 1.347 . S
C171 H163 0.951 . S
C171 C166 1.429 . S
C171 C170 1.347 . S
H172 C173 0.951 . S
C173 H172 0.951 . S
C173 C179 1.265 . S
H174 C179 0.950 . S
H175 C183 0.949 . S
H176 C184 0.950 . S
H177 C185 0.951 . S
H178 C186 0.951 . S
C179 C173 1.265 . S
C179 H174 0.950 . S
C179 C180 1.478 . S
C180 C179 1.478 . S
C180 C181 1.397 1_554 S
C180 C197 1.394 . S
C181 C180 1.397 1_556 S
C181 C182 1.438 . S
C181 C186 1.429 . S
C182 C181 1.438 . S
C182 C183 1.428 . S
C182 C195 1.394 1_556 S
C183 H175 0.949 . S
C183 C182 1.428 . S
C183 C184 1.345 . S
C184 H176 0.950 . S
C184 C183 1.345 . S
C184 C185 1.424 . S
C185 H177 0.951 . S
C185 C184 1.424 . S
C185 C186 1.347 . S
C186 H178 0.951 . S
C186 C181 1.429 . S
C186 C185 1.347 . S
H187 C188 0.951 . S
C188 H187 0.951 . S
C188 C194 1.265 . S
H189 C194 0.950 . S
H190 C198 0.949 . S
H191 C199 0.950 . S
H192 C200 0.951 . S
H193 C201 0.951 . S
C194 C188 1.265 . S
C194 H189 0.950 . S
C194 C195 1.478 . S
C195 C182 1.394 1_554 S
C195 C194 1.478 . S
C195 C196 1.397 . S
C196 C195 1.397 . S
C196 C197 1.438 . S
C196 C201 1.429 . S
C197 C180 1.394 . S
C197 C196 1.438 . S
C197 C198 1.428 . S
C198 H190 0.949 . S
C198 C197 1.428 . S
C198 C199 1.345 . S
C199 H191 0.950 . S
C199 C198 1.345 . S
C199 C200 1.424 . S
C200 H192 0.951 . S
C200 C199 1.424 . S
C200 C201 1.347 . S
C201 H193 0.951 . S
C201 C196 1.429 . S
C201 C200 1.347 . S
H202 C203 0.951 . S
C203 H202 0.951 . S
C203 C209 1.265 . S
H204 C209 0.950 . S
H205 C213 0.949 . S
H206 C214 0.950 . S
H207 C215 0.951 . S
H208 C216 0.951 . S
C209 C203 1.265 . S
C209 H204 0.950 . S
C209 C210 1.478 . S
C210 C209 1.478 . S
C210 C211 1.397 . S
C210 C227 1.394 . S
C211 C210 1.397 . S
C211 C212 1.438 . S
C211 C216 1.429 . S
C212 C211 1.438 . S
C212 C213 1.428 . S
C212 C225 1.394 . S
C213 H205 0.949 . S
C213 C212 1.428 . S
C213 C214 1.345 . S
C214 H206 0.950 . S
C214 C213 1.345 . S
C214 C215 1.424 . S
C215 H207 0.951 . S
C215 C214 1.424 . S
C215 C216 1.347 . S
C216 H208 0.951 . S
C216 C211 1.429 . S
C216 C215 1.347 . S
H217 C218 0.951 . S
C218 H217 0.951 . S
C218 C224 1.265 . S
H219 C224 0.950 . S
H220 C228 0.949 . S
H221 C229 0.950 . S
H222 C230 0.951 . S
H223 C231 0.951 . S
C224 C218 1.265 . S
C224 H219 0.950 . S
C224 C225 1.478 . S
C225 C212 1.394 . S
C225 C224 1.478 . S
C225 C226 1.397 . S
C226 C225 1.397 . S
C226 C227 1.438 . S
C226 C231 1.429 . S
C227 C210 1.394 . S
C227 C226 1.438 . S
C227 C228 1.428 . S
C228 H220 0.949 . S
C228 C227 1.428 . S
C228 C229 1.345 . S
C229 H221 0.950 . S
C229 C228 1.345 . S
C229 C230 1.424 . S
C230 H222 0.951 . S
C230 C229 1.424 . S
C230 C231 1.347 . S
C231 H223 0.951 . S
C231 C226 1.429 . S
C231 C230 1.347 . S
H232 C233 0.951 . S
C233 H232 0.951 . S
C233 C239 1.265 . S
H234 C239 0.950 . S
H235 C243 0.949 . S
H236 C244 0.950 . S
H237 C245 0.951 . S
H238 C246 0.951 . S
C239 C233 1.265 . S
C239 H234 0.950 . S
C239 C240 1.478 . S
C240 C239 1.478 . S
C240 C241 1.397 . S
C240 C257 1.394 1_455 S
C241 C240 1.397 . S
C241 C242 1.438 . S
C241 C246 1.429 . S
C242 C241 1.438 . S
C242 C243 1.428 . S
C242 C255 1.394 1_455 S
C243 H235 0.949 . S
C243 C242 1.428 . S
C243 C244 1.345 . S
C244 H236 0.950 . S
C244 C243 1.345 . S
C244 C245 1.424 . S
C245 H237 0.951 . S
C245 C244 1.424 . S
C245 C246 1.347 . S
C246 H238 0.951 . S
C246 C241 1.429 . S
C246 C245 1.347 . S
H247 C248 0.951 . S
C248 H247 0.951 . S
C248 C254 1.265 . S
H249 C254 0.950 . S
H250 C258 0.949 . S
H251 C259 0.950 . S
H252 C260 0.951 . S
H253 C261 0.951 . S
C254 C248 1.265 . S
C254 H249 0.950 . S
C254 C255 1.478 . S
C255 C242 1.394 1_655 S
C255 C254 1.478 . S
C255 C256 1.397 . S
C256 C255 1.397 . S
C256 C257 1.438 . S
C256 C261 1.429 . S
C257 C240 1.394 1_655 S
C257 C256 1.438 . S
C257 C258 1.428 . S
C258 H250 0.949 . S
C258 C257 1.428 . S
C258 C259 1.345 . S
C259 H251 0.950 . S
C259 C258 1.345 . S
C259 C260 1.424 . S
C260 H252 0.951 . S
C260 C259 1.424 . S
C260 C261 1.347 . S
C261 H253 0.951 . S
C261 C256 1.429 . S
C261 C260 1.347 . S
H262 C263 0.951 1_655 S
C263 H262 0.951 1_455 S
C263 C269 1.265 . S
H264 C269 0.950 . S
H265 C273 0.949 1_655 S
H266 C274 0.950 . S
H267 C275 0.951 . S
H268 C276 0.951 . S
C269 C263 1.265 . S
C269 H264 0.950 . S
C269 C270 1.478 . S
C270 C269 1.478 . S
C270 C271 1.397 . S
C270 C287 1.394 1_455 S
C271 C270 1.397 . S
C271 C272 1.438 . S
C271 C276 1.429 . S
C272 C271 1.438 . S
C272 C273 1.428 . S
C272 C285 1.394 1_455 S
C273 H265 0.949 1_455 S
C273 C272 1.428 . S
C273 C274 1.345 . S
C274 H266 0.950 . S
C274 C273 1.345 . S
C274 C275 1.424 . S
C275 H267 0.951 . S
C275 C274 1.424 . S
C275 C276 1.347 . S
C276 H268 0.951 . S
C276 C271 1.429 . S
C276 C275 1.347 . S
H277 C278 0.951 1_455 S
C278 H277 0.951 1_655 S
C278 C284 1.265 . S
H279 C284 0.950 . S
H280 C288 0.949 1_455 S
H281 C289 0.950 . S
H282 C290 0.951 . S
H283 C291 0.951 . S
C284 C278 1.265 . S
C284 H279 0.950 . S
C284 C285 1.478 . S
C285 C272 1.394 1_655 S
C285 C284 1.478 . S
C285 C286 1.397 . S
C286 C285 1.397 . S
C286 C287 1.438 . S
C286 C291 1.429 . S
C287 C270 1.394 1_655 S
C287 C286 1.438 . S
C287 C288 1.428 . S
C288 H280 0.949 1_655 S
C288 C287 1.428 . S
C288 C289 1.345 . S
C289 H281 0.950 . S
C289 C288 1.345 . S
C289 C290 1.424 . S
C290 H282 0.951 . S
C290 C289 1.424 . S
C290 C291 1.347 . S
C291 H283 0.951 . S
C291 C286 1.429 . S
C291 C290 1.347 . S
H292 C293 0.951 . S
C293 H292 0.951 . S
C293 C299 1.265 1_455 S
H294 C299 0.950 . S
H295 C303 0.949 . S
H296 C304 0.950 . S
H297 C305 0.951 . S
H298 C306 0.951 . S
C299 C293 1.265 1_655 S
C299 H294 0.950 . S
C299 C300 1.478 . S
C300 C299 1.478 . S
C300 C301 1.397 . S
C300 C317 1.394 1_655 S
C301 C300 1.397 . S
C301 C302 1.438 . S
C301 C306 1.429 . S
C302 C301 1.438 . S
C302 C303 1.428 . S
C302 C315 1.394 1_655 S
C303 H295 0.949 . S
C303 C302 1.428 . S
C303 C304 1.345 . S
C304 H296 0.950 . S
C304 C303 1.345 . S
C304 C305 1.424 . S
C305 H297 0.951 . S
C305 C304 1.424 . S
C305 C306 1.347 . S
C306 H298 0.951 . S
C306 C301 1.429 . S
C306 C305 1.347 . S
H307 C308 0.951 . S
C308 H307 0.951 . S
C308 C314 1.265 1_655 S
H309 C314 0.950 . S
H310 C318 0.949 . S
H311 C319 0.950 . S
H312 C320 0.951 . S
H313 C321 0.951 . S
C314 C308 1.265 1_455 S
C314 H309 0.950 . S
C314 C315 1.478 . S
C315 C302 1.394 1_455 S
C315 C314 1.478 . S
C315 C316 1.397 . S
C316 C315 1.397 . S
C316 C317 1.438 . S
C316 C321 1.429 . S
C317 C300 1.394 1_455 S
C317 C316 1.438 . S
C317 C318 1.428 . S
C318 H310 0.949 . S
C318 C317 1.428 . S
C318 C319 1.345 . S
C319 H311 0.950 . S
C319 C318 1.345 . S
C319 C320 1.424 . S
C320 H312 0.951 . S
C320 C319 1.424 . S
C320 C321 1.347 . S
C321 H313 0.951 . S
C321 C316 1.429 . S
C321 C320 1.347 . S
H322 C323 0.951 . S
C323 H322 0.951 . S
C323 C329 1.265 1_455 S
H324 C329 0.950 . S
H325 C333 0.949 . S
H326 C334 0.950 . S
H327 C335 0.951 . S
H328 C336 0.951 . S
C329 C323 1.265 1_655 S
C329 H324 0.950 . S
C329 C330 1.478 . S
C330 C329 1.478 . S
C330 C331 1.397 . S
C330 C347 1.394 1_655 S
C331 C330 1.397 . S
C331 C332 1.438 . S
C331 C336 1.429 . S
C332 C331 1.438 . S
C332 C333 1.428 . S
C332 C345 1.394 1_655 S
C333 H325 0.949 . S
C333 C332 1.428 . S
C333 C334 1.345 . S
C334 H326 0.950 . S
C334 C333 1.345 . S
C334 C335 1.424 . S
C335 H327 0.951 . S
C335 C334 1.424 . S
C335 C336 1.347 . S
C336 H328 0.951 . S
C336 C331 1.429 . S
C336 C335 1.347 . S
H337 C338 0.951 . S
C338 H337 0.951 . S
C338 C344 1.265 1_655 S
H339 C344 0.950 . S
H340 C348 0.949 . S
H341 C349 0.950 . S
H342 C350 0.951 . S
H343 C351 0.951 . S
C344 C338 1.265 1_455 S
C344 H339 0.950 . S
C344 C345 1.478 . S
C345 C332 1.394 1_455 S
C345 C344 1.478 . S
C345 C346 1.397 . S
C346 C345 1.397 . S
C346 C347 1.438 . S
C346 C351 1.429 . S
C347 C330 1.394 1_455 S
C347 C346 1.438 . S
C347 C348 1.428 . S
C348 H340 0.949 . S
C348 C347 1.428 . S
C348 C349 1.345 . S
C349 H341 0.950 . S
C349 C348 1.345 . S
C349 C350 1.424 . S
C350 H342 0.951 . S
C350 C349 1.424 . S
C350 C351 1.347 . S
C351 H343 0.951 . S
C351 C346 1.429 . S
C351 C350 1.347 . S
H352 C353 0.951 . S
C353 H352 0.951 . S
C353 C359 1.265 . S
H354 C359 0.950 . S
H355 C363 0.949 . S
H356 C364 0.950 . S
H357 C365 0.951 . S
H358 C366 0.951 . S
C359 C353 1.265 . S
C359 H354 0.950 . S
C359 C360 1.478 . S
C360 C359 1.478 . S
C360 C361 1.397 . S
C360 C377 1.394 . S
C361 C360 1.397 . S
C361 C362 1.438 . S
C361 C366 1.429 . S
C362 C361 1.438 . S
C362 C363 1.428 . S
C362 C375 1.394 . S
C363 H355 0.949 . S
C363 C362 1.428 . S
C363 C364 1.345 . S
C364 H356 0.950 . S
C364 C363 1.345 . S
C364 C365 1.424 . S
C365 H357 0.951 . S
C365 C364 1.424 . S
C365 C366 1.347 . S
C366 H358 0.951 . S
C366 C361 1.429 . S
C366 C365 1.347 . S
H367 C368 0.951 . S
C368 H367 0.951 . S
C368 C374 1.265 . S
H369 C374 0.950 . S
H370 C378 0.949 . S
H371 C379 0.950 . S
H372 C380 0.951 . S
H373 C381 0.951 . S
C374 C368 1.265 . S
C374 H369 0.950 . S
C374 C375 1.478 . S
C375 C362 1.394 . S
C375 C374 1.478 . S
C375 C376 1.397 . S
C376 C375 1.397 . S
C376 C377 1.438 . S
C376 C381 1.429 . S
C377 C360 1.394 . S
C377 C376 1.438 . S
C377 C378 1.428 . S
C378 H370 0.949 . S
C378 C377 1.428 . S
C378 C379 1.345 . S
C379 H371 0.950 . S
C379 C378 1.345 . S
C379 C380 1.424 . S
C380 H372 0.951 . S
C380 C379 1.424 . S
C380 C381 1.347 . S
C381 H373 0.951 . S
C381 C376 1.429 . S
C381 C380 1.347 . S
H382 C383 0.951 . S
C383 H382 0.951 . S
C383 C389 1.265 . S
H384 C389 0.950 . S
H385 C393 0.949 . S
H386 C394 0.950 . S
H387 C395 0.951 . S
H388 C396 0.951 . S
C389 C383 1.265 . S
C389 H384 0.950 . S
C389 C390 1.478 . S
C390 C389 1.478 . S
C390 C391 1.397 . S
C390 C407 1.394 . S
C391 C390 1.397 . S
C391 C392 1.438 . S
C391 C396 1.429 . S
C392 C391 1.438 . S
C392 C393 1.428 . S
C392 C405 1.394 . S
C393 H385 0.949 . S
C393 C392 1.428 . S
C393 C394 1.345 . S
C394 H386 0.950 . S
C394 C393 1.345 . S
C394 C395 1.424 . S
C395 H387 0.951 . S
C395 C394 1.424 . S
C395 C396 1.347 . S
C396 H388 0.951 . S
C396 C391 1.429 . S
C396 C395 1.347 . S
H397 C398 0.951 . S
C398 H397 0.951 . S
C398 C404 1.265 . S
H399 C404 0.950 . S
H400 C408 0.949 . S
H401 C409 0.950 . S
H402 C410 0.951 . S
H403 C411 0.951 . S
C404 C398 1.265 . S
C404 H399 0.950 . S
C404 C405 1.478 . S
C405 C392 1.394 . S
C405 C404 1.478 . S
C405 C406 1.397 . S
C406 C405 1.397 . S
C406 C407 1.438 . S
C406 C411 1.429 . S
C407 C390 1.394 . S
C407 C406 1.438 . S
C407 C408 1.428 . S
C408 H400 0.949 . S
C408 C407 1.428 . S
C408 C409 1.345 . S
C409 H401 0.950 . S
C409 C408 1.345 . S
C409 C410 1.424 . S
C410 H402 0.951 . S
C410 C409 1.424 . S
C410 C411 1.347 . S
C411 H403 0.951 . S
C411 C406 1.429 . S
C411 C410 1.347 . S
H412 C413 0.951 . S
C413 H412 0.951 . S
C413 C419 1.265 . S
H414 C419 0.950 . S
H415 C423 0.949 . S
H416 C424 0.950 . S
H417 C425 0.951 . S
H418 C426 0.951 . S
C419 C413 1.265 . S
C419 H414 0.950 . S
C419 C420 1.478 . S
C420 C419 1.478 . S
C420 C421 1.397 . S
C420 C437 1.394 . S
C421 C420 1.397 . S
C421 C422 1.438 . S
C421 C426 1.429 . S
C422 C421 1.438 . S
C422 C423 1.428 . S
C422 C435 1.394 . S
C423 H415 0.949 . S
C423 C422 1.428 . S
C423 C424 1.345 . S
C424 H416 0.950 . S
C424 C423 1.345 . S
C424 C425 1.424 . S
C425 H417 0.951 . S
C425 C424 1.424 . S
C425 C426 1.347 . S
C426 H418 0.951 . S
C426 C421 1.429 . S
C426 C425 1.347 . S
H427 C428 0.951 . S
C428 H427 0.951 . S
C428 C434 1.265 . S
H429 C434 0.950 . S
H430 C438 0.949 . S
H431 C439 0.950 . S
H432 C440 0.951 . S
H433 C441 0.951 . S
C434 C428 1.265 . S
C434 H429 0.950 . S
C434 C435 1.478 . S
C435 C422 1.394 . S
C435 C434 1.478 . S
C435 C436 1.397 . S
C436 C435 1.397 . S
C436 C437 1.438 . S
C436 C441 1.429 . S
C437 C420 1.394 . S
C437 C436 1.438 . S
C437 C438 1.428 . S
C438 H430 0.949 . S
C438 C437 1.428 . S
C438 C439 1.345 . S
C439 H431 0.950 . S
C439 C438 1.345 . S
C439 C440 1.424 . S
C440 H432 0.951 . S
C440 C439 1.424 . S
C440 C441 1.347 . S
C441 H433 0.951 . S
C441 C436 1.429 . S
C441 C440 1.347 . S
H442 C443 0.951 . S
C443 H442 0.951 . S
C443 C449 1.265 . S
H444 C449 0.950 . S
H445 C453 0.949 . S
H446 C454 0.950 . S
H447 C455 0.951 . S
H448 C456 0.951 . S
C449 C443 1.265 . S
C449 H444 0.950 . S
C449 C450 1.478 . S
C450 C449 1.478 . S
C450 C451 1.397 . S
C450 C467 1.394 . S
C451 C450 1.397 . S
C451 C452 1.438 . S
C451 C456 1.429 . S
C452 C451 1.438 . S
C452 C453 1.428 . S
C452 C465 1.394 . S
C453 H445 0.949 . S
C453 C452 1.428 . S
C453 C454 1.345 . S
C454 H446 0.950 . S
C454 C453 1.345 . S
C454 C455 1.424 . S
C455 H447 0.951 . S
C455 C454 1.424 . S
C455 C456 1.347 . S
C456 H448 0.951 . S
C456 C451 1.429 . S
C456 C455 1.347 . S
H457 C458 0.951 . S
C458 H457 0.951 . S
C458 C464 1.265 . S
H459 C464 0.950 . S
H460 C468 0.949 . S
H461 C469 0.950 . S
H462 C470 0.951 . S
H463 C471 0.951 . S
C464 C458 1.265 . S
C464 H459 0.950 . S
C464 C465 1.478 . S
C465 C452 1.394 . S
C465 C464 1.478 . S
C465 C466 1.397 . S
C466 C465 1.397 . S
C466 C467 1.438 . S
C466 C471 1.429 . S
C467 C450 1.394 . S
C467 C466 1.438 . S
C467 C468 1.428 . S
C468 H460 0.949 . S
C468 C467 1.428 . S
C468 C469 1.345 . S
C469 H461 0.950 . S
C469 C468 1.345 . S
C469 C470 1.424 . S
C470 H462 0.951 . S
C470 C469 1.424 . S
C470 C471 1.347 . S
C471 H463 0.951 . S
C471 C466 1.429 . S
C471 C470 1.347 . S
H472 C473 0.951 . S
C473 H472 0.951 . S
C473 C479 1.265 . S
H474 C479 0.950 . S
H475 C483 0.949 . S
H476 C484 0.950 . S
H477 C485 0.951 . S
H478 C486 0.951 . S
C479 C473 1.265 . S
C479 H474 0.950 . S
C479 C480 1.478 . S
C480 C479 1.478 . S
C480 C481 1.399 . S
C480 C497 1.394 . S
C481 C480 1.399 . S
C481 C482 1.438 . S
C481 C486 1.426 1_554 S
C482 C481 1.438 . S
C482 C483 1.428 1_554 S
C482 C495 1.394 . S
C483 H475 0.949 . S
C483 C482 1.428 1_556 S
C483 C484 1.345 . S
C484 H476 0.950 . S
C484 C483 1.345 . S
C484 C485 1.424 . S
C485 H477 0.951 . S
C485 C484 1.424 . S
C485 C486 1.347 . S
C486 H478 0.951 . S
C486 C481 1.426 1_556 S
C486 C485 1.347 . S
H487 C488 0.951 . S
C488 H487 0.951 . S
C488 C494 1.265 . S
H489 C494 0.950 . S
H490 C498 0.949 . S
H491 C499 0.950 . S
H492 C500 0.951 . S
H493 C501 0.951 . S
C494 C488 1.265 . S
C494 H489 0.950 . S
C494 C495 1.478 . S
C495 C482 1.394 . S
C495 C494 1.478 . S
C495 C496 1.397 . S
C496 C495 1.397 . S
C496 C497 1.438 . S
C496 C501 1.429 . S
C497 C480 1.394 . S
C497 C496 1.438 . S
C497 C498 1.428 . S
C498 H490 0.949 . S
C498 C497 1.428 . S
C498 C499 1.345 . S
C499 H491 0.950 . S
C499 C498 1.345 . S
C499 C500 1.424 . S
C500 H492 0.951 . S
C500 C499 1.424 . S
C500 C501 1.347 . S
C501 H493 0.951 . S
C501 C496 1.429 . S
C501 C500 1.347 . S
H502 C503 0.951 . S
C503 H502 0.951 . S
C503 C509 1.265 . S
H504 C509 0.950 . S
H505 C513 0.949 . S
H506 C514 0.950 . S
H507 C515 0.951 . S
H508 C516 0.951 . S
C509 C503 1.265 . S
C509 H504 0.950 . S
C509 C510 1.478 . S
C510 C509 1.478 . S
C510 C511 1.397 1_554 S
C510 C527 1.394 . S
C511 C510 1.397 1_556 S
C511 C512 1.439 . S
C511 C516 1.429 . S
C512 C511 1.439 . S
C512 C513 1.435 . S
C512 C525 1.386 1_556 S
C513 H505 0.949 . S
C513 C512 1.435 . S
C513 C514 1.345 . S
C514 H506 0.950 . S
C514 C513 1.345 . S
C514 C515 1.424 . S
C515 H507 0.951 . S
C515 C514 1.424 . S
C515 C516 1.347 . S
C516 H508 0.951 . S
C516 C511 1.429 . S
C516 C515 1.347 . S
H517 C518 0.951 . S
C518 H517 0.951 . S
C518 C524 1.265 . S
H519 C524 0.950 . S
H520 C528 0.949 . S
H521 C529 0.950 . S
H522 C530 0.951 . S
H523 C531 0.951 . S
C524 C518 1.265 . S
C524 H519 0.950 . S
C524 C525 1.478 . S
C525 C512 1.386 1_554 S
C525 C524 1.478 . S
C525 C526 1.397 . S
C526 C525 1.397 . S
C526 C527 1.438 . S
C526 C531 1.429 . S
C527 C510 1.394 . S
C527 C526 1.438 . S
C527 C528 1.428 . S
C528 H520 0.949 . S
C528 C527 1.428 . S
C528 C529 1.345 . S
C529 H521 0.950 . S
C529 C528 1.345 . S
C529 C530 1.424 . S
C530 H522 0.951 . S
C530 C529 1.424 . S
C530 C531 1.347 . S
C531 H523 0.951 . S
C531 C526 1.429 . S
C531 C530 1.347 . S
H532 C533 0.951 . S
C533 H532 0.951 . S
C533 C539 1.265 . S
H534 C539 0.950 . S
H535 C543 0.949 . S
H536 C544 0.950 . S
H537 C545 0.951 . S
H538 C546 0.951 . S
C539 C533 1.265 . S
C539 H534 0.950 . S
C539 C540 1.478 . S
C540 C539 1.478 . S
C540 C541 1.397 . S
C540 C557 1.394 . S
C541 C540 1.397 . S
C541 C542 1.438 . S
C541 C546 1.429 . S
C542 C541 1.438 . S
C542 C543 1.428 . S
C542 C555 1.394 . S
C543 H535 0.949 . S
C543 C542 1.428 . S
C543 C544 1.345 . S
C544 H536 0.950 . S
C544 C543 1.345 . S
C544 C545 1.424 . S
C545 H537 0.951 . S
C545 C544 1.424 . S
C545 C546 1.347 . S
C546 H538 0.951 . S
C546 C541 1.429 . S
C546 C545 1.347 . S
H547 C548 0.951 . S
C548 H547 0.951 . S
C548 C554 1.265 . S
H549 C554 0.950 . S
H550 C558 0.949 . S
H551 C559 0.950 . S
H552 C560 0.951 . S
H553 C561 0.951 . S
C554 C548 1.265 . S
C554 H549 0.950 . S
C554 C555 1.478 . S
C555 C542 1.394 . S
C555 C554 1.478 . S
C555 C556 1.397 . S
C556 C555 1.397 . S
C556 C557 1.438 . S
C556 C561 1.429 . S
C557 C540 1.394 . S
C557 C556 1.438 . S
C557 C558 1.428 . S
C558 H550 0.949 . S
C558 C557 1.428 . S
C558 C559 1.345 . S
C559 H551 0.950 . S
C559 C558 1.345 . S
C559 C560 1.424 . S
C560 H552 0.951 . S
C560 C559 1.424 . S
C560 C561 1.347 . S
C561 H553 0.951 . S
C561 C556 1.429 . S
C561 C560 1.347 . S
H562 C563 0.951 . S
C563 H562 0.951 . S
C563 C569 1.265 . S
H564 C569 0.950 . S
H565 C573 0.949 . S
H566 C574 0.950 . S
H567 C575 0.951 . S
H568 C576 0.951 . S
C569 C563 1.265 . S
C569 H564 0.950 . S
C569 C570 1.478 . S
C570 C569 1.478 . S
C570 C571 1.397 . S
C570 C587 1.394 . S
C571 C570 1.397 . S
C571 C572 1.438 . S
C571 C576 1.429 . S
C572 C571 1.438 . S
C572 C573 1.428 . S
C572 C585 1.394 . S
C573 H565 0.949 . S
C573 C572 1.428 . S
C573 C574 1.345 . S
C574 H566 0.950 . S
C574 C573 1.345 . S
C574 C575 1.424 . S
C575 H567 0.951 . S
C575 C574 1.424 . S
C575 C576 1.347 . S
C576 H568 0.951 . S
C576 C571 1.429 . S
C576 C575 1.347 . S
H577 C578 0.951 . S
C578 H577 0.951 . S
C578 C584 1.265 . S
H579 C584 0.950 . S
H580 C588 0.949 . S
H581 C589 0.950 . S
H582 C590 0.951 . S
H583 C591 0.951 . S
C584 C578 1.265 . S
C584 H579 0.950 . S
C584 C585 1.478 . S
C585 C572 1.394 . S
C585 C584 1.478 . S
C585 C586 1.397 . S
C586 C585 1.397 . S
C586 C587 1.438 . S
C586 C591 1.429 . S
C587 C570 1.394 . S
C587 C586 1.438 . S
C587 C588 1.428 . S
C588 H580 0.949 . S
C588 C587 1.428 . S
C588 C589 1.345 . S
C589 H581 0.950 . S
C589 C588 1.345 . S
C589 C590 1.424 . S
C590 H582 0.951 . S
C590 C589 1.424 . S
C590 C591 1.347 . S
C591 H583 0.951 . S
C591 C586 1.429 . S
C591 C590 1.347 . S
C113 C23 1.494 . S
C128 C9 1.509 . S
C143 C37 1.506 . S
C158 C51 1.500 . S
C173 C65 1.503 . S
C188 C79 1.505 . S
C203 C93 1.445 . S
C218 C107 1.445 . S
C233 C8 1.287 . S
C248 C50 1.250 . S
C263 C36 1.327 . S
C278 C22 1.326 . S
C293 C35 1.442 . S
C308 C21 1.445 . S
C323 C7 1.444 . S
C338 C49 1.444 . S
C353 C64 1.246 . S
C368 C106 1.241 . S
C383 C92 1.245 . S
C398 C78 1.242 . S
C413 C77 1.415 . S
C428 C91 1.415 . S
C443 C63 1.444 . S
C458 C105 1.444 . S
C473 C76 1.542 . S
C488 C6 1.542 . S
C503 C62 1.539 . S
C518 C20 1.543 . S
C533 C34 1.542 . S
C548 C104 1.542 . S
C563 C90 1.478 . S
C578 C48 1.477 . S
