# Generated by pormake.
# Topology utn, (3)-cn, num edge types: 1
# Building blocks:
#     Node 0, Type 0, BuildingBlock: WUSLED_clean_sbu_0, # of connection points: 3
#     Node 1, Type 0, BuildingBlock: WUSLED_clean_sbu_0, # of connection points: 3
#     Node 2, Type 0, BuildingBlock: WUSLED_clean_sbu_0, # of connection points: 3
#     Node 3, Type 0, BuildingBlock: WUSLED_clean_sbu_0, # of connection points: 3
#     Node 4, Type 0, BuildingBlock: WUSLED_clean_sbu_0, # of connection points: 3
#     Node 5, Type 0, BuildingBlock: WUSLED_clean_sbu_0, # of connection points: 3
#     Node 6, Type 0, BuildingBlock: WUSLED_clean_sbu_0, # of connection points: 3
#     Node 7, Type 0, BuildingBlock: WUSLED_clean_sbu_0, # of connection points: 3
#     Node 8, Type 0, BuildingBlock: WUSLED_clean_sbu_0, # of connection points: 3
#     Node 9, Type 0, BuildingBlock: WUSLED_clean_sbu_0, # of connection points: 3
#     Node 10, Type 0, BuildingBlock: WUSLED_clean_sbu_0, # of connection points: 3
#     Node 11, Type 0, BuildingBlock: WUSLED_clean_sbu_0, # of connection points: 3
#     Node 12, Type 0, BuildingBlock: WUSLED_clean_sbu_0, # of connection points: 3
#     Node 13, Type 0, BuildingBlock: WUSLED_clean_sbu_0, # of connection points: 3
#     Node 14, Type 0, BuildingBlock: WUSLED_clean_sbu_0, # of connection points: 3
#     Node 15, Type 0, BuildingBlock: WUSLED_clean_sbu_0, # of connection points: 3
#     Node 16, Type 0, BuildingBlock: WUSLED_clean_sbu_0, # of connection points: 3
#     Node 17, Type 0, BuildingBlock: WUSLED_clean_sbu_0, # of connection points: 3
#     Node 18, Type 0, BuildingBlock: WUSLED_clean_sbu_0, # of connection points: 3
#     Node 19, Type 0, BuildingBlock: WUSLED_clean_sbu_0, # of connection points: 3
#     Node 20, Type 0, BuildingBlock: WUSLED_clean_sbu_0, # of connection points: 3
#     Node 21, Type 0, BuildingBlock: WUSLED_clean_sbu_0, # of connection points: 3
#     Node 22, Type 0, BuildingBlock: WUSLED_clean_sbu_0, # of connection points: 3
#     Node 23, Type 0, BuildingBlock: WUSLED_clean_sbu_0, # of connection points: 3
#     Node 24, Type 0, BuildingBlock: WUSLED_clean_sbu_0, # of connection points: 3
#     Node 25, Type 0, BuildingBlock: WUSLED_clean_sbu_0, # of connection points: 3
#     Node 26, Type 0, BuildingBlock: WUSLED_clean_sbu_0, # of connection points: 3
#     Node 27, Type 0, BuildingBlock: WUSLED_clean_sbu_0, # of connection points: 3
#     Node 28, Type 0, BuildingBlock: WUSLED_clean_sbu_0, # of connection points: 3
#     Node 29, Type 0, BuildingBlock: WUSLED_clean_sbu_0, # of connection points: 3
#     Node 30, Type 0, BuildingBlock: WUSLED_clean_sbu_0, # of connection points: 3
#     Node 31, Type 0, BuildingBlock: WUSLED_clean_sbu_0, # of connection points: 3
#     Edge 32, Type (0, 0), BuildingBlock: AJUNOK_clean_linker_0, # of connection points: 2
#     Edge 33, Type (0, 0), BuildingBlock: AJUNOK_clean_linker_0, # of connection points: 2
#     Edge 34, Type (0, 0), BuildingBlock: AJUNOK_clean_linker_0, # of connection points: 2
#     Edge 35, Type (0, 0), BuildingBlock: AJUNOK_clean_linker_0, # of connection points: 2
#     Edge 36, Type (0, 0), BuildingBlock: AJUNOK_clean_linker_0, # of connection points: 2
#     Edge 37, Type (0, 0), BuildingBlock: AJUNOK_clean_linker_0, # of connection points: 2
#     Edge 38, Type (0, 0), BuildingBlock: AJUNOK_clean_linker_0, # of connection points: 2
#     Edge 39, Type (0, 0), BuildingBlock: AJUNOK_clean_linker_0, # of connection points: 2
#     Edge 40, Type (0, 0), BuildingBlock: AJUNOK_clean_linker_0, # of connection points: 2
#     Edge 41, Type (0, 0), BuildingBlock: AJUNOK_clean_linker_0, # of connection points: 2
#     Edge 42, Type (0, 0), BuildingBlock: AJUNOK_clean_linker_0, # of connection points: 2
#     Edge 43, Type (0, 0), BuildingBlock: AJUNOK_clean_linker_0, # of connection points: 2
#     Edge 44, Type (0, 0), BuildingBlock: AJUNOK_clean_linker_0, # of connection points: 2
#     Edge 45, Type (0, 0), BuildingBlock: AJUNOK_clean_linker_0, # of connection points: 2
#     Edge 46, Type (0, 0), BuildingBlock: AJUNOK_clean_linker_0, # of connection points: 2
#     Edge 47, Type (0, 0), BuildingBlock: AJUNOK_clean_linker_0, # of connection points: 2
#     Edge 48, Type (0, 0), BuildingBlock: AJUNOK_clean_linker_0, # of connection points: 2
#     Edge 49, Type (0, 0), BuildingBlock: AJUNOK_clean_linker_0, # of connection points: 2
#     Edge 50, Type (0, 0), BuildingBlock: AJUNOK_clean_linker_0, # of connection points: 2
#     Edge 51, Type (0, 0), BuildingBlock: AJUNOK_clean_linker_0, # of connection points: 2
#     Edge 52, Type (0, 0), BuildingBlock: AJUNOK_clean_linker_0, # of connection points: 2
#     Edge 53, Type (0, 0), BuildingBlock: AJUNOK_clean_linker_0, # of connection points: 2
#     Edge 54, Type (0, 0), BuildingBlock: AJUNOK_clean_linker_0, # of connection points: 2
#     Edge 55, Type (0, 0), BuildingBlock: AJUNOK_clean_linker_0, # of connection points: 2
#     Edge 56, Type (0, 0), BuildingBlock: AJUNOK_clean_linker_0, # of connection points: 2
#     Edge 57, Type (0, 0), BuildingBlock: AJUNOK_clean_linker_0, # of connection points: 2
#     Edge 58, Type (0, 0), BuildingBlock: AJUNOK_clean_linker_0, # of connection points: 2
#     Edge 59, Type (0, 0), BuildingBlock: AJUNOK_clean_linker_0, # of connection points: 2
#     Edge 60, Type (0, 0), BuildingBlock: AJUNOK_clean_linker_0, # of connection points: 2
#     Edge 61, Type (0, 0), BuildingBlock: AJUNOK_clean_linker_0, # of connection points: 2
#     Edge 62, Type (0, 0), BuildingBlock: AJUNOK_clean_linker_0, # of connection points: 2
#     Edge 63, Type (0, 0), BuildingBlock: AJUNOK_clean_linker_0, # of connection points: 2
#     Edge 64, Type (0, 0), BuildingBlock: AJUNOK_clean_linker_0, # of connection points: 2
#     Edge 65, Type (0, 0), BuildingBlock: AJUNOK_clean_linker_0, # of connection points: 2
#     Edge 66, Type (0, 0), BuildingBlock: AJUNOK_clean_linker_0, # of connection points: 2
#     Edge 67, Type (0, 0), BuildingBlock: AJUNOK_clean_linker_0, # of connection points: 2
#     Edge 68, Type (0, 0), BuildingBlock: AJUNOK_clean_linker_0, # of connection points: 2
#     Edge 69, Type (0, 0), BuildingBlock: AJUNOK_clean_linker_0, # of connection points: 2
#     Edge 70, Type (0, 0), BuildingBlock: AJUNOK_clean_linker_0, # of connection points: 2
#     Edge 71, Type (0, 0), BuildingBlock: AJUNOK_clean_linker_0, # of connection points: 2
#     Edge 72, Type (0, 0), BuildingBlock: AJUNOK_clean_linker_0, # of connection points: 2
#     Edge 73, Type (0, 0), BuildingBlock: AJUNOK_clean_linker_0, # of connection points: 2
#     Edge 74, Type (0, 0), BuildingBlock: AJUNOK_clean_linker_0, # of connection points: 2
#     Edge 75, Type (0, 0), BuildingBlock: AJUNOK_clean_linker_0, # of connection points: 2
#     Edge 76, Type (0, 0), BuildingBlock: AJUNOK_clean_linker_0, # of connection points: 2
#     Edge 77, Type (0, 0), BuildingBlock: AJUNOK_clean_linker_0, # of connection points: 2
#     Edge 78, Type (0, 0), BuildingBlock: AJUNOK_clean_linker_0, # of connection points: 2
#     Edge 79, Type (0, 0), BuildingBlock: AJUNOK_clean_linker_0, # of connection points: 2
# Relax obj value: 0.072
# Max RMSD: 0.079
# Mean RMSD: 0.074
data_MOF--net-utn--node1-WUSLED_clean_sbu_0--edge1-AJUNOK_clean_linker_0
_symmetry_space_group_name_H-M    P1
_symmetry_Int_Tables_number       1
_symmetry_cell_setting            triclinic
loop_
_symmetry_equiv_pos_as_xyz
'x, y, z'
_cell_length_a     80.313373
_cell_length_b     82.711915
_cell_length_c     42.350004
_cell_angle_alpha  89.665557
_cell_angle_beta   90.09581
_cell_angle_gamma 89.923025
loop_
_atom_site_label
_atom_site_type_symbol
_atom_site_fract_x
_atom_site_fract_y
_atom_site_fract_z
_atom_type_partial_charge
C0 C 0.25777 0.19155 0.25778 0.0
C1 C 0.2628 0.20028 0.28455 0.0
C2 C 0.25838 0.22617 0.25618 0.0
C3 C 0.26334 0.21739 0.28358 0.0
C4 C 0.25315 0.217 0.22998 0.0
C5 C 0.25332 0.20014 0.23056 0.0
U6 U 0.25444 0.14447 0.28149 0.0
O7 O 0.23472 0.12864 0.26264 0.0
O8 O 0.26097 0.12415 0.24967 0.0
C9 C 0.24539 0.11933 0.24786 0.0
C10 C 0.2557 0.1737 0.25658 0.0
C11 C 0.23957 0.10839 0.22245 0.0
C12 C 0.22893 0.10287 0.16951 0.0
C13 C 0.23626 0.11355 0.19138 0.0
C14 C 0.22888 0.0817 0.20908 0.0
C15 C 0.22463 0.08693 0.17842 0.0
C16 C 0.23613 0.0923 0.23074 0.0
C17 C 0.2622 0.13485 0.37453 0.0
C18 C 0.25543 0.11631 0.41752 0.0
C19 C 0.26906 0.14175 0.42866 0.0
C20 C 0.26926 0.14543 0.39649 0.0
C21 C 0.2619 0.12733 0.43952 0.0
C22 C 0.25554 0.12006 0.38506 0.0
C23 C 0.2603 0.14083 0.34188 0.0
O24 O 0.26878 0.16416 0.25853 0.0
O25 O 0.24212 0.16739 0.26866 0.0
O26 O 0.24537 0.14365 0.33042 0.0
O27 O 0.2721 0.13916 0.32065 0.0
H28 H 0.26621 0.19395 0.30607 0.0
H29 H 0.26759 0.22364 0.30445 0.0
H30 H 0.24797 0.22258 0.2091 0.0
H31 H 0.24915 0.19372 0.20976 0.0
H32 H 0.22597 0.1073 0.14606 0.0
H33 H 0.23885 0.12589 0.18433 0.0
H34 H 0.22637 0.06941 0.21661 0.0
H35 H 0.23868 0.08799 0.25448 0.0
H36 H 0.24964 0.10521 0.42557 0.0
H37 H 0.27383 0.15053 0.44526 0.0
H38 H 0.27425 0.15697 0.38886 0.0
H39 H 0.24989 0.11179 0.36847 0.0
C40 C 0.0789 1.00624 0.51203 0.0
C41 C 0.07089 0.01004 0.54063 0.0
C42 C 0.0436 1.00919 0.51427 0.0
C43 C 0.05335 0.01156 0.54168 0.0
C44 C 0.05186 1.00584 0.48584 0.0
C45 C 0.06918 1.00443 0.48479 0.0
U46 U 0.12697 1.00071 0.53434 0.0
O47 O 0.14298 0.98113 0.51628 0.0
O48 O 0.14842 1.00643 0.50319 0.0
C49 C 0.15306 0.99119 0.50174 0.0
C50 C 0.09705 1.00307 0.50886 0.0
C51 C 0.16378 0.98526 0.47564 0.0
C52 C 0.16843 0.97464 0.42267 0.0
C53 C 0.15779 0.98165 0.44531 0.0
C54 C 0.19116 0.97518 0.46008 0.0
C55 C 0.18527 0.9711 0.42987 0.0
C56 C 0.18058 0.98214 0.48252 0.0
C57 C 0.13591 1.00889 0.62737 0.0
C58 C 0.15547 1.0051 0.67084 0.0
C59 C 0.12803 0.01608 0.68071 0.0
C60 C 0.12431 0.01511 0.64866 0.0
C61 C 0.14365 0.01116 0.69234 0.0
C62 C 0.15162 1.00394 0.63848 0.0
C63 C 0.13038 1.00671 0.59452 0.0
O64 O 0.10752 0.01526 0.51025 0.0
O65 O 0.10299 0.98966 0.52128 0.0
O66 O 0.12712 0.99221 0.58372 0.0
O67 O 0.13256 0.01795 0.57284 0.0
H68 H 0.07809 0.01147 0.56208 0.0
H69 H 0.04741 0.01404 0.56408 0.0
H70 H 0.04487 1.00416 0.46423 0.0
H71 H 0.07503 1.00155 0.46248 0.0
H72 H 0.16324 0.9714 0.39997 0.0
H73 H 0.14485 0.98383 0.43941 0.0
H74 H 0.20399 0.97284 0.46658 0.0
H75 H 0.18551 0.98479 0.50575 0.0
H76 H 0.16758 1.00113 0.6791 0.0
H77 H 0.11837 0.02023 0.69654 0.0
H78 H 0.11204 0.01876 0.64059 0.0
H79 H 0.16072 0.99898 0.62236 0.0
C80 C 0.26101 0.82748 0.76328 0.0
C81 C 0.25937 0.81895 0.79199 0.0
C82 C 0.26132 0.79308 0.76396 0.0
C83 C 0.2594 0.80185 0.79227 0.0
C84 C 0.26206 0.8018 0.73543 0.0
C85 C 0.26197 0.81869 0.73517 0.0
U86 U 0.26402 0.8742 0.78672 0.0
O87 O 0.2835 0.89077 0.76911 0.0
O88 O 0.25731 0.89481 0.75534 0.0
C89 C 0.27277 0.90003 0.75407 0.0
C90 C 0.26323 0.84529 0.76077 0.0
C91 C 0.27857 0.9106 0.72774 0.0
C92 C 0.28627 0.91634 0.67299 0.0
C93 C 0.27969 0.90574 0.69612 0.0
C94 C 0.29114 0.93639 0.71302 0.0
C95 C 0.29247 0.93189 0.68096 0.0
C96 C 0.28399 0.92612 0.73559 0.0
C97 C 0.25569 0.88327 0.87932 0.0
C98 C 0.26285 0.9022 0.92114 0.0
C99 C 0.24781 0.87766 0.93372 0.0
C100 C 0.24792 0.8734 0.90188 0.0
C101 C 0.25553 0.89192 0.94379 0.0
C102 C 0.26291 0.89792 0.88898 0.0
C103 C 0.25762 0.87658 0.84725 0.0
O104 O 0.25011 0.85478 0.76235 0.0
O105 O 0.27666 0.85161 0.77337 0.0
O106 O 0.27265 0.8742 0.83603 0.0
O107 O 0.24604 0.87856 0.82557 0.0
H108 H 0.25856 0.82543 0.81408 0.0
H109 H 0.25862 0.79551 0.81467 0.0
H110 H 0.26299 0.79554 0.71312 0.0
H111 H 0.26314 0.82495 0.71274 0.0
H112 H 0.2865 0.91212 0.6489 0.0
H113 H 0.27558 0.89379 0.6893 0.0
H114 H 0.29638 0.94743 0.7219 0.0
H115 H 0.28338 0.93014 0.75988 0.0
H116 H 0.2689 0.91326 0.92846 0.0
H117 H 0.24229 0.86943 0.95073 0.0
H118 H 0.24248 0.86196 0.89503 0.0
H119 H 0.26907 0.90569 0.87198 0.0
C120 C 0.43913 0.01402 0.01036 0.0
C121 C 0.44755 0.01336 0.03956 0.0
C122 C 0.47459 0.01229 0.01249 0.0
C123 C 0.46514 0.01256 0.04058 0.0
C124 C 0.46601 0.01244 0.98356 0.0
C125 C 0.44859 0.01331 0.98257 0.0
U126 U 0.39105 0.0183 0.03316 0.0
O127 O 0.37431 0.03775 0.01641 0.0
O128 O 0.36949 0.01261 1.00226 0.0
C129 C 0.36437 0.02773 1.00155 0.0
C130 C 0.42088 0.01698 1.00698 0.0
C131 C 0.35404 0.03387 0.97486 0.0
C132 C 0.34996 0.0438 0.92101 0.0
C133 C 0.36023 0.0367 0.94434 0.0
C134 C 0.32718 0.04497 0.95809 0.0
C135 C 0.33342 0.04855 0.92785 0.0
C136 C 0.33734 0.03774 0.98114 0.0
C137 C 0.38156 1.00909 0.12547 0.0
C138 C 0.36196 0.01543 0.16758 0.0
C139 C 0.38745 1.00099 0.17965 0.0
C140 C 0.39181 1.0014 0.14778 0.0
C141 C 0.37267 1.00821 0.18996 0.0
C142 C 0.36638 0.01587 0.13539 0.0
C143 C 0.38848 0.01129 0.09343 0.0
O144 O 0.41062 1.0046 1.00786 0.0
O145 O 0.41468 0.03004 0.02003 0.0
O146 O 0.39129 0.02598 0.0828 0.0
O147 O 0.38618 1.00041 0.07133 0.0
H148 H 0.44061 0.01391 0.06143 0.0
H149 H 0.47138 0.01234 0.06327 0.0
H150 H 0.47281 0.01244 0.9615 0.0
H151 H 0.44247 0.01393 0.95977 0.0
H152 H 0.35509 0.04574 0.89768 0.0
H153 H 0.373 0.03368 0.93869 0.0
H154 H 0.3146 0.04835 0.96446 0.0
H155 H 0.33223 0.0356 1.00446 0.0
H156 H 0.35057 0.02124 0.17519 0.0
H157 H 0.39602 0.99563 0.19652 0.0
H158 H 0.40366 0.9963 0.14072 0.0
H159 H 0.35833 0.02198 0.1186 0.0
C160 C 0.25804 0.8273 0.26203 0.0
C161 C 0.26181 0.81906 0.2339 0.0
C162 C 0.25898 0.7929 0.26125 0.0
C163 C 0.26241 0.80196 0.2336 0.0
C164 C 0.25571 0.80132 0.28922 0.0
C165 C 0.25533 0.81821 0.28959 0.0
U166 U 0.25396 0.874 0.23777 0.0
O167 O 0.23443 0.8902 0.256 0.0
O168 O 0.26071 0.89495 0.26791 0.0
C169 C 0.24515 0.89982 0.2699 0.0
C170 C 0.25558 0.8451 0.26434 0.0
C171 C 0.23945 0.91038 0.29612 0.0
C172 C 0.22609 0.91512 0.34706 0.0
C173 C 0.23321 0.90446 0.32491 0.0
C174 C 0.23225 0.93774 0.3128 0.0
C175 C 0.22502 0.93194 0.34099 0.0
C176 C 0.2391 0.92712 0.29065 0.0
C177 C 0.26157 0.88302 0.1448 0.0
C178 C 0.25468 0.90216 0.10277 0.0
C179 C 0.26914 0.87729 0.09047 0.0
C180 C 0.26907 0.87302 0.12237 0.0
C181 C 0.26168 0.89172 0.08014 0.0
C182 C 0.25459 0.89782 0.13499 0.0
C183 C 0.25987 0.87641 0.17707 0.0
O184 O 0.2685 0.85477 0.26196 0.0
O185 O 0.24189 0.85125 0.25223 0.0
O186 O 0.24495 0.87387 0.18869 0.0
O187 O 0.27158 0.87854 0.19838 0.0
H188 H 0.26393 0.82576 0.21223 0.0
H189 H 0.26496 0.79583 0.21161 0.0
H190 H 0.25324 0.79478 0.31094 0.0
H191 H 0.25246 0.82424 0.31156 0.0
H192 H 0.22083 0.91003 0.36842 0.0
H193 H 0.23335 0.8916 0.32984 0.0
H194 H 0.23272 0.95054 0.30756 0.0
H195 H 0.24395 0.93203 0.26875 0.0
H196 H 0.24895 0.91344 0.09544 0.0
H197 H 0.27444 0.86891 0.07366 0.0
H198 H 0.27436 0.86149 0.1294 0.0
H199 H 0.24868 0.90572 0.15194 0.0
C200 C 0.43898 1.00513 0.50735 0.0
C201 C 0.44745 1.0093 0.47938 0.0
C202 C 0.47434 1.00675 0.50674 0.0
C203 C 0.46503 0.01022 0.47916 0.0
C204 C 0.46569 1.00303 0.53457 0.0
C205 C 0.44831 1.00232 0.53486 0.0
U206 U 0.39048 1.00046 0.48555 0.0
O207 O 0.37483 0.98088 0.50517 0.0
O208 O 0.36967 1.00625 0.51811 0.0
C209 C 0.3651 0.99101 0.5202 0.0
C210 C 0.42072 1.00246 0.50954 0.0
C211 C 0.35388 0.98515 0.54568 0.0
C212 C 0.34815 0.97584 0.59946 0.0
C213 C 0.35904 0.98287 0.57714 0.0
C214 C 0.32687 0.97351 0.55931 0.0
C215 C 0.33207 0.97078 0.59053 0.0
C216 C 0.3376 0.9807 0.53727 0.0
C217 C 0.3807 1.00848 0.39222 0.0
C218 C 0.36177 1.00461 0.34787 0.0
C219 C 0.38911 0.01605 0.33917 0.0
C220 C 0.39246 0.01499 0.37145 0.0
C221 C 0.37373 0.0109 0.32684 0.0
C222 C 0.36525 1.00336 0.38037 0.0
C223 C 0.38556 1.00611 0.42549 0.0
O224 O 0.41048 0.01486 0.50797 0.0
O225 O 0.41456 0.98916 0.49744 0.0
O226 O 0.38919 0.99167 0.43656 0.0
O227 O 0.38422 0.01758 0.44672 0.0
H228 H 0.44056 0.01151 0.45776 0.0
H229 H 0.47136 0.0131 0.45728 0.0
H230 H 0.47241 1.0005 0.55623 0.0
H231 H 0.44209 0.99914 0.55671 0.0
H232 H 0.35248 0.97382 0.62339 0.0
H233 H 0.37154 0.98615 0.58426 0.0
H234 H 0.31457 0.96979 0.55178 0.0
H235 H 0.33332 0.98234 0.51319 0.0
H236 H 0.34982 1.00052 0.33915 0.0
H237 H 0.39888 0.02041 0.32374 0.0
H238 H 0.40454 0.01878 0.38009 0.0
H239 H 0.35603 0.9982 0.39608 0.0
C240 C 0.26086 0.19172 0.75666 0.0
C241 C 0.25777 0.19997 0.72803 0.0
C242 C 0.26101 0.22606 0.75465 0.0
C243 C 0.2577 0.21707 0.72713 0.0
C244 C 0.26352 0.21769 0.78314 0.0
C245 C 0.26336 0.2008 0.78411 0.0
U246 U 0.26414 0.14474 0.73476 0.0
O247 O 0.2833 0.12841 0.75429 0.0
O248 O 0.25691 0.12423 0.76602 0.0
C249 C 0.27236 0.11905 0.76838 0.0
C250 C 0.26291 0.1739 0.75961 0.0
C251 C 0.27782 0.10872 0.79528 0.0
C252 C 0.29046 0.10468 0.84716 0.0
C253 C 0.2832 0.11498 0.82433 0.0
C254 C 0.28641 0.08175 0.81285 0.0
C255 C 0.29244 0.08801 0.84137 0.0
C256 C 0.27922 0.092 0.79011 0.0
C257 C 0.25691 0.13629 0.64118 0.0
C258 C 0.26068 0.11741 0.59779 0.0
C259 C 0.2512 0.14472 0.58733 0.0
C260 C 0.25163 0.14803 0.61952 0.0
C261 C 0.25565 0.12937 0.57588 0.0
C262 C 0.26138 0.12087 0.63028 0.0
C263 C 0.25889 0.14131 0.67427 0.0
O264 O 0.2498 0.16446 0.75728 0.0
O265 O 0.27655 0.16742 0.74819 0.0
O266 O 0.27375 0.14399 0.6861 0.0
O267 O 0.24682 0.1399 0.69505 0.0
H268 H 0.25581 0.19327 0.70645 0.0
H269 H 0.2557 0.22325 0.70482 0.0
H270 H 0.26595 0.22426 0.80472 0.0
H271 H 0.26574 0.19476 0.80644 0.0
H272 H 0.2951 0.10982 0.86893 0.0
H273 H 0.28236 0.12782 0.82889 0.0
H274 H 0.28798 0.06905 0.80751 0.0
H275 H 0.27531 0.08692 0.76777 0.0
H276 H 0.26424 0.10549 0.58978 0.0
H277 H 0.24794 0.15447 0.57133 0.0
H278 H 0.24839 0.16006 0.62744 0.0
H279 H 0.26564 0.11167 0.64671 0.0
C280 C 0.07975 0.01259 1.00961 0.0
C281 C 0.07172 0.01061 0.98027 0.0
C282 C 0.04457 1.0095 1.00656 0.0
C283 C 0.05422 1.00913 0.9788 0.0
C284 C 0.05271 0.01103 0.03568 0.0
C285 C 0.07005 0.01257 0.03714 0.0
U286 U 0.12711 0.01771 0.985 0.0
O287 O 0.14384 0.03727 1.00037 0.0
O288 O 0.14937 0.01217 0.01425 0.0
C289 C 0.15417 0.02736 0.01486 0.0
C290 C 0.09785 0.01595 0.01312 0.0
C291 C 0.16391 0.03351 0.04218 0.0
C292 C 0.16658 0.04683 0.09325 0.0
C293 C 0.15665 0.03942 0.06992 0.0
C294 C 0.19117 0.04164 0.06221 0.0
C295 C 0.18411 0.04816 0.08983 0.0
C296 C 0.18123 0.03463 0.03878 0.0
C297 C 0.13561 1.00852 0.893 0.0
C298 C 0.15545 0.01509 0.85138 0.0
C299 C 0.13017 1.00053 0.83883 0.0
C300 C 0.12558 1.00084 0.87055 0.0
C301 C 0.14496 1.00787 0.82886 0.0
C302 C 0.15081 0.01541 0.88344 0.0
C303 C 0.12845 0.01055 0.92479 0.0
O304 O 0.10833 1.00374 0.01189 0.0
O305 O 0.10362 0.02916 0.9997 0.0
O306 O 0.12566 0.02524 0.93518 0.0
O307 O 0.13136 0.9998 0.94711 0.0
H308 H 0.07889 0.01063 0.95863 0.0
H309 H 0.04819 1.00799 0.95602 0.0
H310 H 0.04558 0.01149 0.05735 0.0
H311 H 0.0759 0.01417 0.05997 0.0
H312 H 0.16022 0.05217 0.11305 0.0
H313 H 0.14328 0.0389 0.07304 0.0
H314 H 0.20447 0.04199 0.05833 0.0
H315 H 0.18715 0.03024 0.01749 0.0
H316 H 0.16682 0.02101 0.84398 0.0
H317 H 0.12176 0.99519 0.8218 0.0
H318 H 0.11372 0.99566 0.87737 0.0
H319 H 0.15867 0.02152 0.90036 0.0
C320 C 0.75582 0.82624 0.75267 0.0
C321 C 0.75233 0.81753 0.72509 0.0
C322 C 0.75539 0.79204 0.75437 0.0
C323 C 0.7521 0.8005 0.72598 0.0
C324 C 0.75822 0.80092 0.78195 0.0
C325 C 0.75847 0.8178 0.78103 0.0
U326 U 0.76092 0.87352 0.73116 0.0
O327 O 0.75489 0.89262 0.76587 0.0
O328 O 0.78125 0.88729 0.75392 0.0
C329 C 0.77075 0.89573 0.77088 0.0
C330 C 0.75827 0.84392 0.75329 0.0
C331 C 0.77631 0.90831 0.7933 0.0
C332 C 0.78474 0.91565 0.84663 0.0
C333 C 0.77736 0.90473 0.82561 0.0
C334 C 0.78936 0.93439 0.80356 0.0
C335 C 0.79092 0.93071 0.83607 0.0
C336 C 0.78232 0.92325 0.78242 0.0
C337 C 0.75507 0.88408 0.63745 0.0
C338 C 0.76217 0.90144 0.59287 0.0
C339 C 0.74903 0.87555 0.58379 0.0
C340 C 0.74847 0.87274 0.61641 0.0
C341 C 0.7562 0.88979 0.57163 0.0
C342 C 0.76161 0.8986 0.62554 0.0
C343 C 0.75691 0.87978 0.67109 0.0
O344 O 0.77216 0.84985 0.74179 0.0
O345 O 0.74546 0.85377 0.75104 0.0
O346 O 0.74452 0.88076 0.69129 0.0
O347 O 0.77142 0.87579 0.68318 0.0
H348 H 0.75024 0.8238 0.70292 0.0
H349 H 0.74967 0.79394 0.7044 0.0
H350 H 0.7609 0.7948 0.80407 0.0
H351 H 0.76127 0.8243 0.80254 0.0
H352 H 0.78623 0.91183 0.87093 0.0
H353 H 0.77312 0.89313 0.83445 0.0
H354 H 0.79378 0.94581 0.79427 0.0
H355 H 0.78181 0.92622 0.75748 0.0
H356 H 0.76767 0.91254 0.58414 0.0
H357 H 0.74455 0.86625 0.56803 0.0
H358 H 0.74355 0.86137 0.62513 0.0
H359 H 0.76681 0.90749 0.64144 0.0
C360 C 0.87215 0.01123 0.39266 0.0
C361 C 0.88677 1.00824 0.3755 0.0
C362 C 0.87087 1.00881 0.32624 0.0
C363 C 0.8861 1.00697 0.34239 0.0
C364 C 0.85628 0.01129 0.34359 0.0
C365 C 0.85694 0.01244 0.37647 0.0
U366 U 0.88518 0.01855 0.48307 0.0
O367 O 0.87394 0.03887 0.50945 0.0
O368 O 0.86802 0.01357 0.52299 0.0
C369 C 0.86583 0.02907 0.52843 0.0
C370 C 0.87195 0.01469 0.42681 0.0
C371 C 0.85364 0.0351 0.55193 0.0
C372 C 0.82611 0.04528 0.56636 0.0
C373 C 0.83683 0.03796 0.54431 0.0
C374 C 0.84875 0.04667 0.60393 0.0
C375 C 0.83205 0.05003 0.59628 0.0
C376 C 0.85936 0.03926 0.58209 0.0
C377 C 0.9351 0.01185 0.49896 0.0
C378 C 0.95964 0.01569 0.5321 0.0
C379 C 0.9627 1.00481 0.47959 0.0
C380 C 0.9454 1.0056 0.4753 0.0
C381 C 0.9702 0.01008 0.50787 0.0
C382 C 0.94233 0.01677 0.5275 0.0
C383 C 0.91709 0.0142 0.4929 0.0
O384 O 0.87338 1.00278 0.44736 0.0
O385 O 0.87849 0.02835 0.43638 0.0
O386 O 0.91088 0.02822 0.48409 0.0
O387 O 0.90618 1.00249 0.49664 0.0
H388 H 0.89866 1.00733 0.3875 0.0
H389 H 0.89749 1.00501 0.3293 0.0
H390 H 0.84443 0.01273 0.33164 0.0
H391 H 0.84553 0.01482 0.38928 0.0
H392 H 0.81337 0.04785 0.55953 0.0
H393 H 0.83213 0.03495 0.52109 0.0
H394 H 0.85372 0.05005 0.62673 0.0
H395 H 0.87226 0.03721 0.58849 0.0
H396 H 0.96465 0.01922 0.55476 0.0
H397 H 0.97023 1.00048 0.46022 0.0
H398 H 0.9401 1.00178 0.45302 0.0
H399 H 0.9346 0.02155 0.5462 0.0
C400 C 0.76519 0.1914 0.26518 0.0
C401 C 0.77063 0.19967 0.23792 0.0
C402 C 0.7658 0.22571 0.26384 0.0
C403 C 0.77093 0.21677 0.2373 0.0
C404 C 0.76083 0.21734 0.29105 0.0
C405 C 0.76056 0.20044 0.29167 0.0
U406 U 0.76152 0.14456 0.24201 0.0
O407 O 0.76688 0.12388 0.27418 0.0
O408 O 0.74106 0.12898 0.25905 0.0
C409 C 0.75117 0.11936 0.27472 0.0
C410 C 0.76288 0.17359 0.26736 0.0
C411 C 0.74457 0.10851 0.29988 0.0
C412 C 0.73614 0.10206 0.35395 0.0
C413 C 0.74356 0.11272 0.3319 0.0
C414 C 0.73046 0.08313 0.31216 0.0
C415 C 0.72927 0.08707 0.34446 0.0
C416 C 0.73819 0.09353 0.29052 0.0
C417 C 0.77 0.13618 0.14879 0.0
C418 C 0.7646 0.11768 0.10535 0.0
C419 C 0.77415 0.14492 0.09455 0.0
C420 C 0.77494 0.14796 0.12687 0.0
C421 C 0.76854 0.12994 0.08345 0.0
C422 C 0.76523 0.12082 0.13798 0.0
C423 C 0.76785 0.14138 0.18178 0.0
O424 O 0.74936 0.16746 0.25481 0.0
O425 O 0.77587 0.16392 0.26576 0.0
O426 O 0.77937 0.13908 0.20345 0.0
O427 O 0.75292 0.14462 0.19264 0.0
H428 H 0.77424 0.19301 0.21708 0.0
H429 H 0.77474 0.22301 0.21595 0.0
H430 H 0.75671 0.22391 0.31167 0.0
H431 H 0.75626 0.19438 0.31288 0.0
H432 H 0.73573 0.10568 0.37845 0.0
H433 H 0.74832 0.12425 0.33981 0.0
H434 H 0.72476 0.07234 0.30284 0.0
H435 H 0.73866 0.09005 0.26591 0.0
H436 H 0.76007 0.1061 0.09721 0.0
H437 H 0.77707 0.15459 0.07811 0.0
H438 H 0.77852 0.15991 0.13472 0.0
H439 H 0.76125 0.11159 0.15455 0.0
C440 C 0.58316 0.01255 0.01216 0.0
C441 C 0.57484 0.01722 0.98424 0.0
C442 C 0.54781 0.01505 0.01106 0.0
C443 C 0.55726 0.01839 0.98371 0.0
C444 C 0.55627 0.01093 0.03893 0.0
C445 C 0.57366 0.00965 0.03939 0.0
U446 U 0.63094 1.00662 0.98744 0.0
O447 O 0.65286 0.01077 0.01843 0.0
O448 O 0.6465 0.98608 1.00332 0.0
C449 C 0.657 0.99536 0.01857 0.0
C450 C 0.60139 1.00926 0.01431 0.0
C451 C 0.66742 0.98829 0.04434 0.0
C452 C 0.67325 0.9805 0.09903 0.0
C453 C 0.66293 0.98818 0.07637 0.0
C454 C 0.69249 0.97297 0.05797 0.0
C455 C 0.688 0.97222 0.09012 0.0
C456 C 0.68247 0.98095 0.03569 0.0
C457 C 0.63919 0.01474 0.89401 0.0
C458 C 0.6586 1.00938 0.85112 0.0
C459 C 0.63107 0.01971 0.83951 0.0
C460 C 0.62756 0.02019 0.87174 0.0
C461 C 0.64652 0.01399 0.82846 0.0
C462 C 0.65489 1.00954 0.88363 0.0
C463 C 0.63342 0.01303 0.92694 0.0
O464 O 0.60697 0.99589 1.0015 0.0
O465 O 0.61201 0.02133 0.01242 0.0
O466 O 0.63682 0.02388 0.94859 0.0
O467 O 0.62967 0.99864 0.93803 0.0
H468 H 0.58182 0.01953 0.96283 0.0
H469 H 0.55102 0.02161 0.96185 0.0
H470 H 0.54937 1.00815 0.06023 0.0
H471 H 0.57973 1.00595 0.06114 0.0
H472 H 0.66958 0.98127 0.12351 0.0
H473 H 0.65152 0.99397 0.08388 0.0
H474 H 0.70352 0.96689 0.04945 0.0
H475 H 0.68632 0.98099 0.01118 0.0
H476 H 0.67089 1.00554 0.84391 0.0
H477 H 0.62129 0.02323 0.82324 0.0
H478 H 0.61532 0.02415 0.87923 0.0
H479 H 0.66409 1.00531 0.90047 0.0
C480 C 0.75702 0.19206 0.76345 0.0
C481 C 0.75357 0.20071 0.79123 0.0
C482 C 0.75686 0.22653 0.76266 0.0
C483 C 0.75343 0.21782 0.79078 0.0
C484 C 0.75929 0.21761 0.73486 0.0
C485 C 0.75955 0.20073 0.73539 0.0
U486 U 0.76148 0.14523 0.78785 0.0
O487 O 0.75507 0.12439 0.75716 0.0
O488 O 0.78127 0.12958 0.76894 0.0
C489 C 0.77073 0.1198 0.75505 0.0
C490 C 0.75935 0.17424 0.76196 0.0
C491 C 0.77663 0.10955 0.72861 0.0
C492 C 0.78868 0.10567 0.6763 0.0
C493 C 0.7811 0.11576 0.69886 0.0
C494 C 0.78681 0.083 0.7124 0.0
C495 C 0.79186 0.08923 0.68303 0.0
C496 C 0.77934 0.09305 0.73486 0.0
C497 C 0.75515 0.13735 0.88209 0.0
C498 C 0.75888 0.11889 0.9266 0.0
C499 C 0.75231 0.14704 0.93569 0.0
C500 C 0.75167 0.14979 0.90324 0.0
C501 C 0.75591 0.13157 0.94804 0.0
C502 C 0.75863 0.12179 0.89381 0.0
C503 C 0.75688 0.14173 0.84852 0.0
O504 O 0.77321 0.16815 0.77349 0.0
O505 O 0.74646 0.16455 0.76495 0.0
O506 O 0.7447 0.13981 0.82807 0.0
O507 O 0.7715 0.14509 0.83636 0.0
H508 H 0.75145 0.19432 0.81325 0.0
H509 H 0.75126 0.2242 0.81264 0.0
H510 H 0.76109 0.22365 0.7124 0.0
H511 H 0.76206 0.19437 0.7136 0.0
H512 H 0.79242 0.11079 0.65381 0.0
H513 H 0.77921 0.12844 0.69343 0.0
H514 H 0.78924 0.07048 0.71849 0.0
H515 H 0.77616 0.08801 0.75774 0.0
H516 H 0.76169 0.10683 0.93515 0.0
H517 H 0.75074 0.15735 0.95099 0.0
H518 H 0.74925 0.16193 0.89463 0.0
H519 H 0.76152 0.11204 0.87776 0.0
C520 C 0.58283 1.00597 0.51175 0.0
C521 C 0.57402 0.99959 0.53764 0.0
C522 C 0.54752 1.00447 0.51012 0.0
C523 C 0.55646 0.99877 0.53674 0.0
C524 C 0.55662 0.01 0.4839 0.0
C525 C 0.57396 0.01085 0.48485 0.0
U526 U 0.63156 0.01204 0.53285 0.0
O527 O 0.65134 1.00785 0.49719 0.0
O528 O 0.64503 0.03283 0.51182 0.0
C529 C 0.65405 0.02345 0.49373 0.0
C530 C 0.60102 1.00884 0.51142 0.0
C531 C 0.66694 0.02999 0.47198 0.0
C532 C 0.67546 0.03807 0.41879 0.0
C533 C 0.66435 0.03001 0.43914 0.0
C534 C 0.69218 0.0459 0.46367 0.0
C535 C 0.68936 0.04635 0.43088 0.0
C536 C 0.68109 0.03781 0.48398 0.0
C537 C 0.6425 1.00457 0.62611 0.0
C538 C 0.66117 1.00863 0.67083 0.0
C539 C 0.63267 1.00029 0.67975 0.0
C540 C 0.62986 1.00005 0.64713 0.0
C541 C 0.64819 1.00496 0.69189 0.0
C542 C 0.65831 1.00851 0.63808 0.0
C543 C 0.63843 1.00722 0.59251 0.0
O544 O 0.60677 0.02234 0.52331 0.0
O545 O 0.61161 0.9967 0.51263 0.0
O546 O 0.63999 0.99573 0.57136 0.0
O547 O 0.63334 0.02129 0.58167 0.0
H548 H 0.58062 0.99566 0.55865 0.0
H549 H 0.54986 0.99427 0.55725 0.0
H550 H 0.55032 0.01389 0.46254 0.0
H551 H 0.58049 0.01566 0.46449 0.0
H552 H 0.67289 0.0383 0.39367 0.0
H553 H 0.65341 0.02427 0.42929 0.0
H554 H 0.70281 0.05209 0.47366 0.0
H555 H 0.68334 0.03803 0.5092 0.0
H556 H 0.6732 0.01236 0.67973 0.0
H557 H 0.62248 0.99746 0.69558 0.0
H558 H 0.61757 0.99709 0.63838 0.0
H559 H 0.6682 0.01217 0.62222 0.0
C560 C 0.76484 0.82722 0.25471 0.0
C561 C 0.77213 0.81887 0.28035 0.0
C562 C 0.76521 0.79285 0.25585 0.0
C563 C 0.77241 0.80175 0.28078 0.0
C564 C 0.75845 0.80138 0.23017 0.0
C565 C 0.75834 0.81825 0.22959 0.0
U566 U 0.76141 0.87411 0.27799 0.0
O567 O 0.76688 0.89477 0.24584 0.0
O568 O 0.74103 0.88981 0.26067 0.0
C569 C 0.75118 0.89935 0.24505 0.0
C570 C 0.76277 0.84508 0.25265 0.0
C571 C 0.74463 0.91035 0.21994 0.0
C572 C 0.73572 0.91685 0.166 0.0
C573 C 0.74343 0.90618 0.18783 0.0
C574 C 0.73067 0.93592 0.20794 0.0
C575 C 0.72896 0.93171 0.17604 0.0
C576 C 0.73845 0.92543 0.22947 0.0
C577 C 0.76942 0.88278 0.37118 0.0
C578 C 0.76264 0.90141 0.41365 0.0
C579 C 0.77479 0.87531 0.42592 0.0
C580 C 0.77548 0.87178 0.39374 0.0
C581 C 0.76801 0.88998 0.43622 0.0
C582 C 0.76335 0.89784 0.38121 0.0
C583 C 0.76764 0.87694 0.33847 0.0
O584 O 0.74919 0.85134 0.26472 0.0
O585 O 0.77581 0.85463 0.25464 0.0
O586 O 0.77916 0.87942 0.31694 0.0
O587 O 0.75274 0.8739 0.32721 0.0
H588 H 0.77726 0.82548 0.30009 0.0
H589 H 0.77772 0.79548 0.30096 0.0
H590 H 0.753 0.79494 0.2105 0.0
H591 H 0.75276 0.82437 0.20951 0.0
H592 H 0.73446 0.91323 0.14158 0.0
H593 H 0.74804 0.89461 0.1798 0.0
H594 H 0.72561 0.94723 0.21642 0.0
H595 H 0.73922 0.92896 0.25403 0.0
H596 H 0.75728 0.91277 0.42119 0.0
H597 H 0.77878 0.86624 0.44287 0.0
H598 H 0.78002 0.86002 0.38653 0.0
H599 H 0.7585 0.90648 0.3642 0.0
C600 C 0.87166 1.00736 0.12224 0.0
C601 C 0.88631 0.01066 0.13925 0.0
C602 C 0.87063 0.01031 0.18872 0.0
C603 C 0.88575 0.01223 0.17235 0.0
C604 C 0.85603 1.00746 0.1715 0.0
C605 C 0.85655 1.00611 0.13864 0.0
U606 U 0.88702 1.00071 0.03374 0.0
O607 O 0.87828 0.98065 1.00388 0.0
O608 O 0.87172 1.00573 0.99108 0.0
C609 C 0.8709 0.99034 0.98355 0.0
C610 C 0.87135 1.00379 0.08802 0.0
C611 C 0.85696 0.98407 0.96394 0.0
C612 C 0.82832 0.97525 0.95435 0.0
C613 C 0.84051 0.98205 0.97448 0.0
C614 C 0.84907 0.97195 0.91382 0.0
C615 C 0.83242 0.96961 0.92358 0.0
C616 C 0.86088 0.97926 0.93329 0.0
C617 C 0.93694 1.00855 0.02266 0.0
C618 C 0.96133 1.00259 0.99036 0.0
C619 C 0.96465 0.01705 0.03944 0.0
C620 C 0.94742 0.01631 0.04437 0.0
C621 C 0.97183 0.01 0.01265 0.0
C622 C 0.94399 1.00187 0.9953 0.0
C623 C 0.91911 1.00662 0.03098 0.0
O624 O 0.87306 0.01576 0.06772 0.0
O625 O 0.87838 0.99029 0.07874 0.0
O626 O 0.913 0.99223 0.03725 0.0
O627 O 0.90789 0.01778 0.0246 0.0
H628 H 0.89814 0.01161 0.12715 0.0
H629 H 0.89718 0.01435 0.18529 0.0
H630 H 0.84425 1.00591 0.18358 0.0
H631 H 0.84512 1.00354 0.12602 0.0
H632 H 0.81579 0.97482 0.96328 0.0
H633 H 0.83706 0.98578 0.99805 0.0
H634 H 0.85354 0.96767 0.89137 0.0
H635 H 0.87348 0.98065 0.92455 0.0
H636 H 0.96659 0.99713 0.96944 0.0
H637 H 0.97244 0.02278 0.05701 0.0
H638 H 0.94229 0.02144 0.06574 0.0
H639 H 0.93619 0.9958 0.9782 0.0
C640 C 0.76106 0.6871 0.75911 0.0
C641 C 0.76189 0.69548 0.78787 0.0
C642 C 0.76184 0.72142 0.75937 0.0
C643 C 0.76233 0.71254 0.78796 0.0
C644 C 0.76129 0.7128 0.73088 0.0
C645 C 0.76106 0.69594 0.73083 0.0
U646 U 0.75644 0.64 0.78021 0.0
O647 O 0.7367 0.62492 0.7591 0.0
O648 O 0.7632 0.6201 0.74775 0.0
C649 C 0.74754 0.61578 0.7444 0.0
C650 C 0.75847 0.66943 0.75662 0.0
C651 C 0.74222 0.60392 0.72041 0.0
C652 C 0.73265 0.59694 0.66753 0.0
C653 C 0.73964 0.60817 0.68861 0.0
C654 C 0.73112 0.57711 0.70964 0.0
C655 C 0.72796 0.58143 0.67808 0.0
C656 C 0.73824 0.58821 0.7305 0.0
C657 C 0.76294 0.62971 0.87351 0.0
C658 C 0.75331 0.61417 0.9189 0.0
C659 C 0.77319 0.63583 0.92594 0.0
C660 C 0.77312 0.63877 0.89348 0.0
C661 C 0.7629 0.62385 0.93932 0.0
C662 C 0.75336 0.61708 0.88621 0.0
C663 C 0.76138 0.63473 0.84027 0.0
O664 O 0.77133 0.65961 0.75839 0.0
O665 O 0.74472 0.66332 0.76841 0.0
O666 O 0.74666 0.63811 0.82839 0.0
O667 O 0.77367 0.63397 0.81984 0.0
H668 H 0.76181 0.68892 0.81007 0.0
H669 H 0.76281 0.71877 0.81035 0.0
H670 H 0.76036 0.71906 0.70844 0.0
H671 H 0.76021 0.68974 0.7084 0.0
H672 H 0.73018 0.60062 0.64338 0.0
H673 H 0.74252 0.62026 0.68035 0.0
H674 H 0.7276 0.56527 0.71841 0.0
H675 H 0.74008 0.5847 0.75495 0.0
H676 H 0.74501 0.60501 0.92816 0.0
H677 H 0.78099 0.64333 0.9407 0.0
H678 H 0.7806 0.64858 0.8841 0.0
H679 H 0.74541 0.60993 0.87106 0.0
C680 C 0.58173 0.51013 0.01035 0.0
C681 C 0.57335 0.51605 0.03711 0.0
C682 C 0.54619 0.51269 0.01053 0.0
C683 C 0.55575 0.51743 0.03708 0.0
C684 C 0.55491 0.50645 0.98444 0.0
C685 C 0.57226 0.50555 0.98417 0.0
U686 U 0.6299 0.50604 0.03409 0.0
O687 O 0.64653 0.48684 0.01663 0.0
O688 O 0.65149 0.51219 1.00354 0.0
C689 C 0.6565 0.49705 1.0022 0.0
C690 C 0.60007 0.50767 1.00798 0.0
C691 C 0.66682 0.49124 0.97538 0.0
C692 C 0.67054 0.47933 0.92319 0.0
C693 C 0.66018 0.4864 0.94623 0.0
C694 C 0.69429 0.48234 0.95773 0.0
C695 C 0.68778 0.477 0.92874 0.0
C696 C 0.68397 0.48932 0.98059 0.0
C697 C 0.63921 0.51367 0.12674 0.0
C698 C 0.65917 0.50735 0.16847 0.0
C699 C 0.63254 0.51937 0.18141 0.0
C700 C 0.62837 0.51989 0.14951 0.0
C701 C 0.64776 0.51277 0.19127 0.0
C702 C 0.65486 0.5077 0.1362 0.0
C703 C 0.63248 0.512 0.09455 0.0
O704 O 0.61012 0.52018 0.00996 0.0
O705 O 0.60639 0.49435 0.02008 0.0
O706 O 0.62962 0.4975 0.08334 0.0
O707 O 0.63484 0.52325 0.07297 0.0
H708 H 0.58032 0.51957 0.05787 0.0
H709 H 0.5497 0.52223 0.05784 0.0
H710 H 0.54844 0.50158 0.96426 0.0
H711 H 0.57835 0.50071 0.96344 0.0
H712 H 0.66485 0.47507 0.90162 0.0
H713 H 0.64697 0.4876 0.94165 0.0
H714 H 0.70741 0.48098 0.96299 0.0
H715 H 0.68941 0.49289 1.00292 0.0
H716 H 0.67093 0.50209 0.17572 0.0
H717 H 0.62353 0.5235 0.19861 0.0
H718 H 0.61621 0.52443 0.14271 0.0
H719 H 0.66337 0.50275 0.11895 0.0
C720 C 0.75821 0.33038 0.26592 0.0
C721 C 0.75771 0.3219 0.29479 0.0
C722 C 0.75848 0.29609 0.26665 0.0
C723 C 0.75788 0.30483 0.29511 0.0
C724 C 0.75835 0.30466 0.23801 0.0
C725 C 0.75826 0.32157 0.2377 0.0
U726 U 0.76255 0.37797 0.2844 0.0
O727 O 0.78217 0.39248 0.26103 0.0
O728 O 0.75557 0.39729 0.25023 0.0
C729 C 0.77122 0.40135 0.24571 0.0
C730 C 0.76045 0.34814 0.26335 0.0
C731 C 0.77631 0.41344 0.22164 0.0
C732 C 0.78677 0.4201 0.16922 0.0
C733 C 0.77977 0.40892 0.19046 0.0
C734 C 0.7863 0.44068 0.20952 0.0
C735 C 0.7906 0.43597 0.17875 0.0
C736 C 0.77927 0.4295 0.23075 0.0
C737 C 0.75638 0.38884 0.37759 0.0
C738 C 0.76143 0.40689 0.42182 0.0
C739 C 0.74992 0.38026 0.43108 0.0
C740 C 0.75016 0.37724 0.39864 0.0
C741 C 0.7556 0.39509 0.44319 0.0
C742 C 0.76187 0.40376 0.38928 0.0
C743 C 0.75847 0.38463 0.34408 0.0
O744 O 0.7475 0.35786 0.26494 0.0
O745 O 0.77424 0.35448 0.27442 0.0
O746 O 0.77305 0.38078 0.33232 0.0
O747 O 0.74599 0.38484 0.32393 0.0
H748 H 0.75771 0.3284 0.31691 0.0
H749 H 0.75786 0.29846 0.31752 0.0
H750 H 0.75886 0.29826 0.21579 0.0
H751 H 0.75878 0.32783 0.21517 0.0
H752 H 0.78979 0.41615 0.14557 0.0
H753 H 0.77762 0.39662 0.18285 0.0
H754 H 0.78916 0.45275 0.21766 0.0
H755 H 0.77675 0.43322 0.25476 0.0
H756 H 0.76587 0.41844 0.43032 0.0
H757 H 0.74586 0.37066 0.44675 0.0
H758 H 0.7461 0.36557 0.3901 0.0
H759 H 0.7668 0.41285 0.37334 0.0
C760 C 0.9385 0.51041 0.51269 0.0
C761 C 0.94699 0.50448 0.53934 0.0
C762 C 0.97392 0.50956 0.51343 0.0
C763 C 0.96454 0.50387 0.53955 0.0
C764 C 0.96512 0.51499 0.48666 0.0
C765 C 0.94773 0.51531 0.48631 0.0
U766 U 0.88935 0.51387 0.53139 0.0
O767 O 0.87456 0.53316 0.50816 0.0
O768 O 0.87012 0.50741 0.49605 0.0
C769 C 0.86628 0.52269 0.49111 0.0
C770 C 0.9202 0.51237 0.51084 0.0
C771 C 0.85309 0.5277 0.46875 0.0
C772 C 0.84513 0.53669 0.41595 0.0
C773 C 0.85683 0.52976 0.43662 0.0
C774 C 0.82557 0.53916 0.45908 0.0
C775 C 0.82953 0.54172 0.42713 0.0
C776 C 0.83726 0.53216 0.47974 0.0
C777 C 0.87748 0.50712 0.62426 0.0
C778 C 0.8628 0.51635 0.67115 0.0
C779 C 0.88441 0.49605 0.67582 0.0
C780 C 0.8867 0.49639 0.64311 0.0
C781 C 0.87293 0.50652 0.69038 0.0
C782 C 0.86516 0.51674 0.63833 0.0
C783 C 0.88195 0.50937 0.59078 0.0
O784 O 0.91041 0.49965 0.51231 0.0
O785 O 0.91347 0.52561 0.5221 0.0
O786 O 0.88569 0.52368 0.57921 0.0
O787 O 0.88226 0.49736 0.57055 0.0
H788 H 0.94012 0.50044 0.55991 0.0
H789 H 0.97069 0.49891 0.56019 0.0
H790 H 0.97163 0.51955 0.46612 0.0
H791 H 0.94143 0.51985 0.4654 0.0
H792 H 0.84853 0.53877 0.39152 0.0
H793 H 0.86905 0.5266 0.42775 0.0
H794 H 0.81366 0.54306 0.46824 0.0
H795 H 0.83417 0.53079 0.50449 0.0
H796 H 0.85377 0.52443 0.68162 0.0
H797 H 0.8921 0.48801 0.68991 0.0
H798 H 0.89623 0.48883 0.63273 0.0
H799 H 0.85781 0.52501 0.62408 0.0
C800 C 0.76038 0.33231 0.76068 0.0
C801 C 0.76266 0.3241 0.73197 0.0
C802 C 0.76123 0.29786 0.75961 0.0
C803 C 0.76314 0.307 0.73148 0.0
C804 C 0.75949 0.3063 0.7881 0.0
C805 C 0.7591 0.3232 0.78857 0.0
U806 U 0.75622 0.37918 0.73754 0.0
O807 O 0.73665 0.39519 0.75632 0.0
O808 O 0.76296 0.3999 0.76826 0.0
C809 C 0.74739 0.40472 0.77037 0.0
C810 C 0.75786 0.35009 0.76335 0.0
C811 C 0.74173 0.41565 0.79599 0.0
C812 C 0.72959 0.42102 0.84776 0.0
C813 C 0.73665 0.41017 0.82592 0.0
C814 C 0.73342 0.443 0.81073 0.0
C815 C 0.72737 0.43756 0.84014 0.0
C816 C 0.74029 0.43218 0.78896 0.0
C817 C 0.76364 0.38835 0.6444 0.0
C818 C 0.75657 0.40716 0.60193 0.0
C819 C 0.77029 0.38184 0.58997 0.0
C820 C 0.77063 0.37794 0.62205 0.0
C821 C 0.763 0.39631 0.57956 0.0
C822 C 0.75688 0.4032 0.63432 0.0
C823 C 0.76196 0.38208 0.67691 0.0
O824 O 0.77077 0.35981 0.76128 0.0
O825 O 0.74419 0.35629 0.7513 0.0
O826 O 0.74707 0.37943 0.68858 0.0
O827 O 0.77375 0.38406 0.69811 0.0
H828 H 0.76362 0.33081 0.71002 0.0
H829 H 0.76434 0.30097 0.70898 0.0
H830 H 0.75826 0.29981 0.81024 0.0
H831 H 0.75735 0.32922 0.81098 0.0
H832 H 0.72524 0.41628 0.87015 0.0
H833 H 0.73768 0.39748 0.83205 0.0
H834 H 0.73288 0.45565 0.80423 0.0
H835 H 0.74424 0.43675 0.76614 0.0
H836 H 0.75071 0.41831 0.59424 0.0
H837 H 0.77504 0.37319 0.5731 0.0
H838 H 0.77571 0.36635 0.6293 0.0
H839 H 0.7513 0.41136 0.65118 0.0
C840 C 0.93776 0.50877 1.00861 0.0
C841 C 0.94616 0.51105 0.97981 0.0
C842 C 0.97326 0.50947 1.00703 0.0
C843 C 0.96374 0.51153 0.97909 0.0
C844 C 0.96461 0.50782 0.03569 0.0
C845 C 0.94719 0.50752 0.0364 0.0
U846 U 0.88906 0.50492 0.98778 0.0
O847 O 0.87292 0.48605 1.0082 0.0
O848 O 0.86834 0.51161 0.01999 0.0
C849 C 0.86328 0.49654 0.0225 0.0
C850 C 0.91945 0.50641 0.01142 0.0
C851 C 0.85256 0.49108 0.04903 0.0
C852 C 0.84846 0.47919 0.10123 0.0
C853 C 0.85898 0.48626 0.07845 0.0
C854 C 0.82493 0.48218 0.06601 0.0
C855 C 0.83139 0.47666 0.09495 0.0
C856 C 0.83541 0.48927 0.04334 0.0
C857 C 0.87896 0.51191 0.8942 0.0
C858 C 0.86473 0.50212 0.84719 0.0
C859 C 0.88448 0.52408 0.84301 0.0
C860 C 0.88712 0.52348 0.87563 0.0
C861 C 0.87384 0.51292 0.82813 0.0
C862 C 0.86733 0.50157 0.87996 0.0
C863 C 0.88351 0.51009 0.92779 0.0
O864 O 0.90945 0.51901 0.00975 0.0
O865 O 0.91293 0.49319 0.99965 0.0
O866 O 0.88695 0.49573 0.93947 0.0
O867 O 0.88325 0.52198 0.94828 0.0
H868 H 0.9392 0.51217 0.95798 0.0
H869 H 0.96986 0.51339 0.9566 0.0
H870 H 0.9713 0.50614 0.05768 0.0
H871 H 0.94103 0.50576 0.0589 0.0
H872 H 0.85379 0.4752 0.12346 0.0
H873 H 0.87214 0.48749 0.08345 0.0
H874 H 0.81193 0.48031 0.06027 0.0
H875 H 0.83019 0.4928 0.02072 0.0
H876 H 0.85628 0.4935 0.83663 0.0
H877 H 0.89115 0.53306 0.82934 0.0
H878 H 0.89598 0.5317 0.88619 0.0
H879 H 0.86068 0.49272 0.89402 0.0
C880 C 0.75846 0.68809 0.2538 0.0
C881 C 0.75579 0.69665 0.22545 0.0
C882 C 0.75855 0.72232 0.25353 0.0
C883 C 0.75573 0.71372 0.22539 0.0
C884 C 0.76073 0.71365 0.28175 0.0
C885 C 0.76058 0.69676 0.28187 0.0
U886 U 0.76225 0.64037 0.23544 0.0
O887 O 0.78193 0.62589 0.2589 0.0
O888 O 0.75533 0.62177 0.27091 0.0
C889 C 0.77101 0.61788 0.27585 0.0
C890 C 0.76053 0.67032 0.25569 0.0
C891 C 0.77599 0.60508 0.29842 0.0
C892 C 0.7831 0.59701 0.35209 0.0
C893 C 0.77639 0.60831 0.33082 0.0
C894 C 0.78885 0.57889 0.30885 0.0
C895 C 0.78981 0.58223 0.34148 0.0
C896 C 0.78196 0.59017 0.28763 0.0
C897 C 0.7557 0.62871 0.14283 0.0
C898 C 0.76446 0.61311 0.09719 0.0
C899 C 0.74572 0.63583 0.09051 0.0
C900 C 0.74592 0.63845 0.12305 0.0
C901 C 0.75537 0.62344 0.07696 0.0
C902 C 0.76463 0.61576 0.12987 0.0
C903 C 0.75784 0.63317 0.17616 0.0
O904 O 0.74747 0.66077 0.25438 0.0
O905 O 0.77421 0.66384 0.24445 0.0
O906 O 0.77254 0.63683 0.18774 0.0
O907 O 0.74539 0.63345 0.1963 0.0
H908 H 0.75419 0.69022 0.20345 0.0
H909 H 0.75405 0.72019 0.2033 0.0
H910 H 0.76291 0.71998 0.3037 0.0
H911 H 0.76268 0.69042 0.30398 0.0
H912 H 0.78327 0.60004 0.37692 0.0
H913 H 0.77196 0.6198 0.33963 0.0
H914 H 0.79423 0.56799 0.29925 0.0
H915 H 0.78189 0.5875 0.26261 0.0
H916 H 0.77225 0.60361 0.08777 0.0
H917 H 0.73837 0.64387 0.07579 0.0
H918 H 0.73898 0.64854 0.13261 0.0
H919 H 0.77226 0.6081 0.14488 0.0
C920 C 0.58186 0.50819 0.50868 0.0
C921 C 0.57379 0.50685 0.47926 0.0
C922 C 0.5465 0.50624 0.50547 0.0
C923 C 0.55624 0.50585 0.47769 0.0
C924 C 0.55484 0.50698 0.53464 0.0
C925 C 0.57219 0.50795 0.53616 0.0
U926 U 0.62951 0.51341 0.48571 0.0
O927 O 0.64607 0.5328 0.5025 0.0
O928 O 0.65133 0.50749 0.51575 0.0
C929 C 0.6562 0.52266 0.51683 0.0
C930 C 0.59998 0.51121 0.51256 0.0
C931 C 0.66652 0.52854 0.54345 0.0
C932 C 0.67223 0.53405 0.59894 0.0
C933 C 0.66181 0.52762 0.57527 0.0
C934 C 0.69186 0.54255 0.55913 0.0
C935 C 0.68725 0.54227 0.59128 0.0
C936 C 0.68182 0.53563 0.53589 0.0
C937 C 0.63754 0.50651 0.39245 0.0
C938 C 0.6582 0.50898 0.35063 0.0
C939 C 0.62949 0.503 0.33783 0.0
C940 C 0.62549 0.50306 0.36972 0.0
C941 C 0.64585 0.50601 0.32754 0.0
C942 C 0.65402 0.50943 0.38294 0.0
C943 C 0.6316 0.508 0.42512 0.0
O944 O 0.61034 0.49893 0.5105 0.0
O945 O 0.60596 0.52467 0.50053 0.0
O946 O 0.62843 0.52236 0.43672 0.0
O947 O 0.63448 0.49662 0.44626 0.0
H948 H 0.58096 0.50707 0.45763 0.0
H949 H 0.55031 0.50548 0.45473 0.0
H950 H 0.5479 0.50704 0.55655 0.0
H951 H 0.57808 0.50895 0.55909 0.0
H952 H 0.66841 0.53222 0.62309 0.0
H953 H 0.6502 0.5219 0.58185 0.0
H954 H 0.70298 0.54866 0.55119 0.0
H955 H 0.68583 0.53631 0.51149 0.0
H956 H 0.67104 0.51091 0.34394 0.0
H957 H 0.61947 0.50103 0.32119 0.0
H958 H 0.61269 0.50091 0.3766 0.0
H959 H 0.66353 0.51214 0.40028 0.0
C960 C 0.25577 0.3324 0.25609 0.0
C961 C 0.24739 0.32439 0.23156 0.0
C962 C 0.25434 0.29794 0.25538 0.0
C963 C 0.24655 0.30732 0.2314 0.0
C964 C 0.26224 0.30625 0.28007 0.0
C965 C 0.26286 0.32313 0.28042 0.0
U966 U 0.26036 0.37918 0.232 0.0
O967 O 0.25416 0.40011 0.26259 0.0
O968 O 0.2803 0.39454 0.25101 0.0
C969 C 0.26987 0.40449 0.26473 0.0
C970 C 0.2579 0.35023 0.25803 0.0
C971 C 0.27593 0.41457 0.29121 0.0
C972 C 0.28811 0.41805 0.34353 0.0
C973 C 0.28022 0.4082 0.32096 0.0
C974 C 0.28687 0.44078 0.30741 0.0
C975 C 0.29174 0.43438 0.33675 0.0
C976 C 0.27911 0.43097 0.28492 0.0
C977 C 0.25468 0.38661 0.13734 0.0
C978 C 0.25715 0.40457 0.09176 0.0
C979 C 0.25375 0.37579 0.08437 0.0
C980 C 0.2528 0.37356 0.11695 0.0
C981 C 0.25584 0.39133 0.07099 0.0
C982 C 0.25678 0.4022 0.12467 0.0
C983 C 0.25654 0.38322 0.17128 0.0
O984 O 0.27192 0.35632 0.24744 0.0
O985 O 0.24503 0.3599 0.25404 0.0
O986 O 0.24414 0.38501 0.19121 0.0
O987 O 0.27091 0.37912 0.18381 0.0
H988 H 0.2416 0.33124 0.21263 0.0
H989 H 0.23974 0.30154 0.21252 0.0
H990 H 0.26848 0.29971 0.2989 0.0
H991 H 0.26928 0.32901 0.29972 0.0
H992 H 0.29175 0.41284 0.36602 0.0
H993 H 0.278 0.39558 0.32634 0.0
H994 H 0.28966 0.45323 0.30137 0.0
H995 H 0.27609 0.43609 0.26201 0.0
H996 H 0.25874 0.41673 0.08272 0.0
H997 H 0.25375 0.36504 0.07003 0.0
H998 H 0.25153 0.3614 0.12632 0.0
H999 H 0.25849 0.41244 0.14016 0.0
C1000 C 0.37457 0.50965 0.89594 0.0
C1001 C 0.38941 0.50835 0.87869 0.0
C1002 C 0.37345 0.50799 0.82956 0.0
C1003 C 0.38883 0.50752 0.8456 0.0
C1004 C 0.35869 0.50859 0.84704 0.0
C1005 C 0.35928 0.50946 0.87992 0.0
U1006 U 0.38738 0.51712 0.98606 0.0
O1007 O 0.37552 0.53697 0.01245 0.0
O1008 O 0.37054 0.51153 0.02627 0.0
C1009 C 0.36796 0.52695 0.03183 0.0
C1010 C 0.37414 0.51308 0.92997 0.0
C1011 C 0.35512 0.53276 0.05424 0.0
C1012 C 0.32788 0.54436 0.06618 0.0
C1013 C 0.339 0.53726 0.04456 0.0
C1014 C 0.34869 0.54216 0.10735 0.0
C1015 C 0.33276 0.54713 0.09762 0.0
C1016 C 0.35971 0.53502 0.08589 0.0
C1017 C 0.43746 0.51154 1.00164 0.0
C1018 C 0.46284 0.51983 0.0289 0.0
C1019 C 0.46452 0.50157 0.98462 0.0
C1020 C 0.44713 0.5019 0.98162 0.0
C1021 C 0.47266 0.51084 1.00782 0.0
C1022 C 0.44542 0.5203 0.02564 0.0
C1023 C 0.41938 0.51345 0.99577 0.0
O1024 O 0.37583 0.50116 0.95042 0.0
O1025 O 0.38045 0.52685 0.93953 0.0
O1026 O 0.41278 0.52742 0.98772 0.0
O1027 O 0.40881 0.5014 0.99877 0.0
H1028 H 0.40135 0.50855 0.89062 0.0
H1029 H 0.40036 0.50698 0.83243 0.0
H1030 H 0.34673 0.50909 0.8352 0.0
H1031 H 0.34771 0.51061 0.89287 0.0
H1032 H 0.31566 0.54812 0.05816 0.0
H1033 H 0.33516 0.53569 0.02025 0.0
H1034 H 0.35278 0.54423 0.13137 0.0
H1035 H 0.37209 0.53172 0.09382 0.0
H1036 H 0.46867 0.52706 0.04705 0.0
H1037 H 0.47165 0.49424 0.96839 0.0
H1038 H 0.44127 0.49505 0.96294 0.0
H1039 H 0.4382 0.5278 0.04141 0.0
C1040 C 0.26719 0.68757 0.76243 0.0
C1041 C 0.27147 0.69601 0.73473 0.0
C1042 C 0.26754 0.72199 0.76187 0.0
C1043 C 0.2716 0.71309 0.73444 0.0
C1044 C 0.26391 0.71325 0.78959 0.0
C1045 C 0.26366 0.69638 0.78976 0.0
U1046 U 0.26203 0.64019 0.74251 0.0
O1047 O 0.26744 0.6205 0.7769 0.0
O1048 O 0.24134 0.62633 0.76414 0.0
C1049 C 0.25156 0.61702 0.78022 0.0
C1050 C 0.26471 0.66983 0.76419 0.0
C1051 C 0.2455 0.60494 0.8037 0.0
C1052 C 0.23464 0.59823 0.85593 0.0
C1053 C 0.24249 0.60917 0.83522 0.0
C1054 C 0.23329 0.57837 0.8144 0.0
C1055 C 0.22949 0.58282 0.84559 0.0
C1056 C 0.24112 0.58934 0.79369 0.0
C1057 C 0.26883 0.63061 0.64891 0.0
C1058 C 0.26611 0.61296 0.60333 0.0
C1059 C 0.27178 0.64144 0.59583 0.0
C1060 C 0.27202 0.64363 0.62858 0.0
C1061 C 0.26869 0.62608 0.58259 0.0
C1062 C 0.26611 0.61523 0.63612 0.0
C1063 C 0.26628 0.63325 0.68294 0.0
O1064 O 0.25083 0.66386 0.75278 0.0
O1065 O 0.27748 0.65989 0.76254 0.0
O1066 O 0.27858 0.63257 0.70346 0.0
O1067 O 0.25197 0.63835 0.69407 0.0
H1068 H 0.27414 0.68948 0.71323 0.0
H1069 H 0.27417 0.71922 0.71235 0.0
H1070 H 0.26106 0.71946 0.81135 0.0
H1071 H 0.26031 0.69014 0.8114 0.0
H1072 H 0.23216 0.60198 0.87993 0.0
H1073 H 0.24572 0.62112 0.84359 0.0
H1074 H 0.22951 0.56667 0.80557 0.0
H1075 H 0.24324 0.58581 0.76943 0.0
H1076 H 0.26378 0.60096 0.59427 0.0
H1077 H 0.27314 0.65205 0.58104 0.0
H1078 H 0.27391 0.65564 0.63798 0.0
H1079 H 0.26346 0.60505 0.6515 0.0
C1080 C 0.08294 0.51294 0.51139 0.0
C1081 C 0.0741 0.51898 0.48511 0.0
C1082 C 0.04743 0.51397 0.51216 0.0
C1083 C 0.05649 0.51956 0.48558 0.0
C1084 C 0.05657 0.50799 0.53808 0.0
C1085 C 0.07395 0.50772 0.5378 0.0
U1086 U 0.13091 0.50919 0.48601 0.0
O1087 O 0.15248 0.51411 0.51745 0.0
O1088 O 0.1472 0.48924 0.50201 0.0
C1089 C 0.1572 0.49887 0.51762 0.0
C1090 C 0.1013 0.51064 0.51269 0.0
C1091 C 0.16755 0.49209 0.54376 0.0
C1092 C 0.17383 0.48569 0.59894 0.0
C1093 C 0.16339 0.4929 0.57589 0.0
C1094 C 0.19238 0.47662 0.55796 0.0
C1095 C 0.18835 0.47687 0.5904 0.0
C1096 C 0.18232 0.48424 0.53533 0.0
C1097 C 0.13939 0.51721 0.39268 0.0
C1098 C 0.15893 0.51116 0.35031 0.0
C1099 C 0.13152 0.52159 0.3378 0.0
C1100 C 0.12784 0.52242 0.36995 0.0
C1101 C 0.14692 0.51564 0.32762 0.0
C1102 C 0.15518 0.5119 0.38278 0.0
C1103 C 0.13331 0.51551 0.42545 0.0
O1104 O 0.10746 0.49747 0.50008 0.0
O1105 O 0.11128 0.5232 0.51055 0.0
O1106 O 0.13626 0.52653 0.44702 0.0
O1107 O 0.13002 0.50105 0.43671 0.0
H1108 H 0.08073 0.52303 0.46426 0.0
H1109 H 0.04998 0.52428 0.46509 0.0
H1110 H 0.05038 0.50284 0.55842 0.0
H1111 H 0.08043 0.50284 0.5582 0.0
H1112 H 0.17046 0.48743 0.62332 0.0
H1113 H 0.15219 0.49914 0.58321 0.0
H1114 H 0.20306 0.47005 0.54935 0.0
H1115 H 0.18593 0.48358 0.51073 0.0
H1116 H 0.17083 0.50634 0.34287 0.0
H1117 H 0.12199 0.52486 0.32077 0.0
H1118 H 0.11554 0.52637 0.37705 0.0
H1119 H 0.16424 0.50768 0.3999 0.0
C1120 C 0.25544 0.6874 0.26353 0.0
C1121 C 0.24963 0.69578 0.29022 0.0
C1122 C 0.25491 0.72181 0.2637 0.0
C1123 C 0.24928 0.71289 0.2902 0.0
C1124 C 0.25985 0.71319 0.2368 0.0
C1125 C 0.26022 0.69632 0.23687 0.0
U1126 U 0.25968 0.64084 0.28882 0.0
O1127 O 0.25402 0.6198 0.25824 0.0
O1128 O 0.27992 0.62506 0.27207 0.0
C1129 C 0.26972 0.61524 0.25739 0.0
C1130 C 0.25779 0.6696 0.26187 0.0
C1131 C 0.2762 0.60517 0.23117 0.0
C1132 C 0.28596 0.60081 0.17729 0.0
C1133 C 0.27833 0.61077 0.20005 0.0
C1134 C 0.28935 0.5797 0.21645 0.0
C1135 C 0.29182 0.58514 0.18524 0.0
C1136 C 0.28153 0.58949 0.23882 0.0
C1137 C 0.25262 0.63258 0.38231 0.0
C1138 C 0.2594 0.61363 0.42478 0.0
C1139 C 0.24909 0.64039 0.43704 0.0
C1140 C 0.24765 0.64386 0.40493 0.0
C1141 C 0.25541 0.62546 0.44731 0.0
C1142 C 0.25812 0.61721 0.39228 0.0
C1143 C 0.25397 0.63849 0.34952 0.0
O1144 O 0.27155 0.66357 0.2739 0.0
O1145 O 0.24489 0.65991 0.26463 0.0
O1146 O 0.24231 0.6357 0.32841 0.0
O1147 O 0.26874 0.64166 0.33778 0.0
H1148 H 0.24577 0.68919 0.31112 0.0
H1149 H 0.2452 0.71913 0.31123 0.0
H1150 H 0.26365 0.7195 0.21555 0.0
H1151 H 0.26459 0.69017 0.21592 0.0
H1152 H 0.28748 0.60547 0.15353 0.0
H1153 H 0.27438 0.62286 0.1935 0.0
H1154 H 0.29412 0.56812 0.22428 0.0
H1155 H 0.28018 0.58495 0.26273 0.0
H1156 H 0.26444 0.60208 0.43227 0.0
H1157 H 0.24607 0.64973 0.45395 0.0
H1158 H 0.24351 0.6558 0.39773 0.0
H1159 H 0.26213 0.60836 0.37515 0.0
C1160 C 0.0822 0.50588 1.00854 0.0
C1161 C 0.07357 0.50231 0.03667 0.0
C1162 C 0.04669 0.50466 1.00892 0.0
C1163 C 0.05595 0.50171 0.03681 0.0
C1164 C 0.05555 0.50786 0.98098 0.0
C1165 C 0.07295 0.50838 0.98084 0.0
U1166 U 0.13029 0.51062 0.03279 0.0
O1167 O 0.15202 0.50518 1.00203 0.0
O1168 O 0.14634 0.53031 0.0151 0.0
C1169 C 0.15659 0.52044 1.00066 0.0
C1170 C 0.10052 0.50856 1.00649 0.0
C1171 C 0.16717 0.52671 0.97434 0.0
C1172 C 0.17131 0.53851 0.92184 0.0
C1173 C 0.16092 0.53091 0.94435 0.0
C1174 C 0.1944 0.53725 0.95839 0.0
C1175 C 0.18813 0.54198 0.92879 0.0
C1176 C 0.18405 0.52977 0.98082 0.0
C1177 C 0.13877 0.5032 0.12652 0.0
C1178 C 0.15771 0.50932 0.16991 0.0
C1179 C 0.13061 0.49786 0.1808 0.0
C1180 C 0.12726 0.49732 0.1485 0.0
C1181 C 0.14582 0.50399 0.19214 0.0
C1182 C 0.15418 0.50902 0.1373 0.0
C1183 C 0.13306 0.50486 0.09348 0.0
O1184 O 0.10654 0.52189 0.01869 0.0
O1185 O 0.11078 0.49619 1.00874 0.0
O1186 O 0.1357 0.49357 0.07232 0.0
O1187 O 0.12979 0.51926 0.08182 0.0
H1188 H 0.08036 0.50036 0.05847 0.0
H1189 H 0.04957 0.49912 0.05877 0.0
H1190 H 0.04901 0.51058 0.95921 0.0
H1191 H 0.07925 0.51129 0.95893 0.0
H1192 H 0.1661 0.54209 0.89924 0.0
H1193 H 0.14796 0.52877 0.93866 0.0
H1194 H 0.20718 0.53993 0.96469 0.0
H1195 H 0.18916 0.5268 1.00382 0.0
H1196 H 0.16956 0.51408 0.17777 0.0
H1197 H 0.12085 0.4942 0.19688 0.0
H1198 H 0.1152 0.49302 0.14072 0.0
H1199 H 0.16322 0.51375 0.12071 0.0
C1200 C 0.2672 0.33116 0.7569 0.0
C1201 C 0.27423 0.3225 0.78231 0.0
C1202 C 0.26744 0.29681 0.7564 0.0
C1203 C 0.2744 0.30541 0.78199 0.0
C1204 C 0.26097 0.30569 0.73084 0.0
C1205 C 0.26089 0.32256 0.73112 0.0
U1206 U 0.26327 0.37881 0.7768 0.0
O1207 O 0.26862 0.39781 0.74084 0.0
O1208 O 0.24261 0.39278 0.75551 0.0
C1209 C 0.25268 0.40108 0.73725 0.0
C1210 C 0.26514 0.34896 0.756 0.0
C1211 C 0.24643 0.41417 0.71626 0.0
C1212 C 0.23795 0.42326 0.66365 0.0
C1213 C 0.24601 0.41197 0.68339 0.0
C1214 C 0.23129 0.43951 0.70919 0.0
C1215 C 0.23012 0.43699 0.67636 0.0
C1216 C 0.23923 0.42816 0.72892 0.0
C1217 C 0.271 0.38954 0.86964 0.0
C1218 C 0.26443 0.40647 0.91484 0.0
C1219 C 0.27648 0.3799 0.92289 0.0
C1220 C 0.27724 0.37767 0.89023 0.0
C1221 C 0.26954 0.39407 0.9355 0.0
C1222 C 0.26505 0.40415 0.88205 0.0
C1223 C 0.26828 0.38553 0.83621 0.0
O1224 O 0.2515 0.35527 0.7677 0.0
O1225 O 0.27813 0.35862 0.75707 0.0
O1226 O 0.28034 0.38616 0.81524 0.0
O1227 O 0.2536 0.38132 0.82537 0.0
H1228 H 0.27919 0.32886 0.80252 0.0
H1229 H 0.27942 0.29896 0.8022 0.0
H1230 H 0.25577 0.29955 0.71059 0.0
H1231 H 0.25548 0.32897 0.71119 0.0
H1232 H 0.23724 0.42089 0.63855 0.0
H1233 H 0.25133 0.40118 0.6731 0.0
H1234 H 0.22569 0.45009 0.71974 0.0
H1235 H 0.23938 0.43012 0.75419 0.0
H1236 H 0.25891 0.41743 0.92403 0.0
H1237 H 0.28043 0.37016 0.9384 0.0
H1238 H 0.28174 0.36626 0.88113 0.0
H1239 H 0.26007 0.4134 0.86647 0.0
C1240 C 0.37475 0.50903 0.62583 0.0
C1241 C 0.38933 0.51214 0.64306 0.0
C1242 C 0.3734 0.51122 0.69224 0.0
C1243 C 0.38862 0.51331 0.67613 0.0
C1244 C 0.35889 0.50851 0.67465 0.0
C1245 C 0.35958 0.50751 0.64183 0.0
U1246 U 0.38777 0.5017 0.53569 0.0
O1247 O 0.37585 0.48188 0.50908 0.0
O1248 O 0.37078 0.50744 0.4958 0.0
C1249 C 0.3681 0.49204 0.49016 0.0
C1250 C 0.37458 0.5058 0.59171 0.0
C1251 C 0.35552 0.4865 0.46704 0.0
C1252 C 0.32772 0.47686 0.45329 0.0
C1253 C 0.33878 0.48383 0.4752 0.0
C1254 C 0.34991 0.47556 0.41485 0.0
C1255 C 0.33328 0.47233 0.42299 0.0
C1256 C 0.36085 0.48257 0.43656 0.0
C1257 C 0.43786 0.50687 0.52027 0.0
C1258 C 0.46207 0.5047 0.48578 0.0
C1259 C 0.46581 0.51093 0.541 0.0
C1260 C 0.44853 0.5106 0.54528 0.0
C1261 C 0.47301 0.50775 0.51128 0.0
C1262 C 0.44472 0.50401 0.49032 0.0
C1263 C 0.41982 0.50509 0.52646 0.0
O1264 O 0.37655 0.51776 0.57147 0.0
O1265 O 0.38064 0.49194 0.58205 0.0
O1266 O 0.41318 0.49125 0.53512 0.0
O1267 O 0.40923 0.51705 0.52212 0.0
H1268 H 0.4012 0.51323 0.63114 0.0
H1269 H 0.40005 0.51524 0.68919 0.0
H1270 H 0.347 0.50698 0.68633 0.0
H1271 H 0.34821 0.50504 0.62889 0.0
H1272 H 0.31506 0.47436 0.46054 0.0
H1273 H 0.33439 0.48667 0.4987 0.0
H1274 H 0.35459 0.47236 0.39174 0.0
H1275 H 0.3737 0.4845 0.4298 0.0
H1276 H 0.46678 0.50297 0.46214 0.0
H1277 H 0.47349 0.51322 0.56148 0.0
H1278 H 0.4435 0.51284 0.56856 0.0
H1279 H 0.4367 0.50121 0.4705 0.0
C1280 C 0.27122 0.11831 0.49356 0.0
C1281 C 0.25908 0.12529 0.47383 0.0
C1282 C 0.26962 0.11881 0.52667 0.0
C1283 C 0.25589 0.12646 0.54106 0.0
H1284 H 0.28231 0.11302 0.48337 0.0
H1285 H 0.27962 0.11394 0.54103 0.0
S1286 S 0.22001 0.14497 0.49899 0.0
N1287 N 0.23256 0.13905 0.4705 0.0
N1288 N 0.22917 0.13961 0.53236 0.0
C1289 C 0.24329 0.13265 0.52122 0.0
C1290 C 0.24501 0.1322 0.48773 0.0
C1291 C 0.15329 0.99782 0.74288 0.0
C1292 C 0.14688 0.01152 0.72707 0.0
C1293 C 0.15361 0.99694 0.77611 0.0
C1294 C 0.14781 0.00985 0.79453 0.0
H1295 H 0.15718 0.98734 0.72958 0.0
H1296 H 0.15775 0.98587 0.78744 0.0
S1297 S 0.13149 0.04893 0.76513 0.0
N1298 N 0.13601 0.03879 0.73281 0.0
N1299 N 0.13644 0.03693 0.79497 0.0
C1300 C 0.14225 0.02386 0.77913 0.0
C1301 C 0.14186 0.02477 0.74549 0.0
C1302 C 0.2728 0.89354 0.99286 0.0
C1303 C 0.25716 0.89496 0.97819 0.0
C1304 C 0.2743 0.89336 0.02594 0.0
C1305 C 0.26024 0.89486 0.04556 0.0
H1306 H 0.28385 0.89171 0.97868 0.0
H1307 H 0.2865 0.89149 0.03627 0.0
S1308 S 0.21668 0.90007 0.0186 0.0
N1309 N 0.22749 0.89864 0.98557 0.0
N1310 N 0.23032 0.89866 0.0477 0.0
C1311 C 0.24467 0.89711 0.03108 0.0
C1312 C 0.24311 0.89703 0.99743 0.0
C1313 C 0.3642 0.99698 0.24288 0.0
C1314 C 0.36995 0.00998 0.22439 0.0
C1315 C 0.36449 0.99769 0.27612 0.0
C1316 C 0.37082 0.01133 0.29195 0.0
H1317 H 0.36008 0.98597 0.23158 0.0
H1318 H 0.36058 0.98715 0.28943 0.0
S1319 S 0.38594 0.04899 0.25378 0.0
N1320 N 0.38114 0.03711 0.22396 0.0
N1321 N 0.3815 0.03865 0.28612 0.0
C1322 C 0.3758 0.02466 0.27347 0.0
C1323 C 0.37545 0.02392 0.2398 0.0
C1324 C 0.77767 0.89464 0.49195 0.0
C1325 C 0.76463 0.89214 0.47036 0.0
C1326 C 0.77469 0.89466 0.52471 0.0
C1327 C 0.75866 0.89177 0.53696 0.0
H1328 H 0.79028 0.89622 0.48348 0.0
H1329 H 0.78514 0.89625 0.54058 0.0
S1330 S 0.72037 0.8852 0.48997 0.0
N1331 N 0.73515 0.88735 0.46325 0.0
N1332 N 0.72956 0.88708 0.52466 0.0
C1333 C 0.74553 0.88962 0.51546 0.0
C1334 C 0.74852 0.88988 0.48222 0.0
C1335 C 0.87197 0.02418 0.24141 0.0
C1336 C 0.87017 0.00994 0.22378 0.0
C1337 C 0.87192 0.02374 0.27466 0.0
C1338 C 0.87026 1.00905 0.29125 0.0
H1339 H 0.87348 0.03568 0.22943 0.0
H1340 H 0.87341 0.03493 0.28751 0.0
S1341 S 0.86415 0.96869 0.25602 0.0
N1342 N 0.8658 0.98096 0.22528 0.0
N1343 N 0.86595 0.98014 0.28768 0.0
C1344 C 0.86801 0.99485 0.27389 0.0
C1345 C 0.8679 0.99531 0.24016 0.0
C1346 C 0.77073 0.11979 0.99581 0.0
C1347 C 0.75764 0.12922 0.98303 0.0
C1348 C 0.77391 0.11936 0.02857 0.0
C1349 C 0.7642 0.12845 0.04955 0.0
H1350 H 0.77906 0.11326 0.98035 0.0
H1351 H 0.78441 0.11244 0.03735 0.0
S1352 S 0.72725 0.15314 0.02948 0.0
N1353 N 0.73368 0.1461 0.99523 0.0
N1354 N 0.74035 0.14594 0.0561 0.0
C1355 C 0.75072 0.13724 0.03742 0.0
C1356 C 0.74726 0.13745 1.00439 0.0
C1357 C 0.64219 0.02135 0.73966 0.0
C1358 C 0.64996 1.00784 0.72628 0.0
C1359 C 0.64203 0.02368 0.77244 0.0
C1360 C 0.64929 0.01238 0.79347 0.0
H1361 H 0.63591 0.03008 0.72462 0.0
H1362 H 0.6358 0.03433 0.78133 0.0
S1363 S 0.6721 0.97531 0.76946 0.0
N1364 N 0.66605 0.98354 0.73572 0.0
N1365 N 0.66523 0.98737 0.79752 0.0
C1366 C 0.65769 0.99908 0.78003 0.0
C1367 C 0.65808 0.9969 0.74646 0.0
C1368 C 0.75888 0.63717 0.0247 0.0
C1369 C 0.75719 0.62267 0.04187 0.0
C1370 C 0.7606 0.63728 0.9919 0.0
C1371 C 0.7611 0.62286 0.97444 0.0
H1372 H 0.759 0.64869 0.03669 0.0
H1373 H 0.76136 0.64891 0.98015 0.0
S1374 S 0.75753 0.58144 1.00781 0.0
N1375 N 0.75592 0.59335 0.0388 0.0
N1376 N 0.7601 0.59351 0.97702 0.0
C1377 C 0.75961 0.60818 0.9912 0.0
C1378 C 0.75757 0.60808 0.02486 0.0
C1379 C 0.64057 0.49762 0.23993 0.0
C1380 C 0.65022 0.50961 0.22538 0.0
C1381 C 0.6403 0.49583 0.27278 0.0
C1382 C 0.64924 0.50634 0.29272 0.0
H1383 H 0.63276 0.48981 0.22578 0.0
H1384 H 0.63252 0.48639 0.28259 0.0
S1385 S 0.67777 0.53883 0.26543 0.0
N1386 N 0.67018 0.53119 0.23247 0.0
N1387 N 0.66917 0.52849 0.29461 0.0
C1388 C 0.65968 0.51789 0.27818 0.0
C1389 C 0.66019 0.51944 0.24445 0.0
C1390 C 0.77283 0.40424 0.52531 0.0
C1391 C 0.76012 0.39862 0.54528 0.0
C1392 C 0.77095 0.4039 0.49224 0.0
C1393 C 0.75641 0.39768 0.47808 0.0
H1394 H 0.78448 0.40838 0.53528 0.0
H1395 H 0.7813 0.40778 0.47771 0.0
S1396 S 0.71912 0.3828 0.52072 0.0
N1397 N 0.73234 0.38756 0.54903 0.0
N1398 N 0.72859 0.38713 0.48717 0.0
C1399 C 0.74339 0.39274 0.4981 0.0
C1400 C 0.74532 0.39313 0.5316 0.0
C1401 C 0.85809 0.50806 0.7431 0.0
C1402 C 0.87293 0.50835 0.72542 0.0
C1403 C 0.85833 0.50958 0.77628 0.0
C1404 C 0.87342 0.51165 0.7929 0.0
H1405 H 0.84625 0.50644 0.73128 0.0
H1406 H 0.84664 0.50923 0.78895 0.0
S1407 S 0.91554 0.51364 0.75729 0.0
N1408 N 0.90291 0.51157 0.7269 0.0
N1409 N 0.90351 0.51359 0.78876 0.0
C1410 C 0.88824 0.51203 0.77528 0.0
C1411 C 0.88796 0.51061 0.74175 0.0
C1412 C 0.27217 0.40574 0.99035 0.0
C1413 C 0.2651 0.39452 0.96951 0.0
C1414 C 0.26873 0.40504 0.02299 0.0
C1415 C 0.25776 0.39335 0.03582 0.0
H1416 H 0.28089 0.41467 0.9816 0.0
H1417 H 0.27526 0.41335 0.03826 0.0
S1418 S 0.23369 0.36345 0.98908 0.0
N1419 N 0.24558 0.37262 0.96285 0.0
N1420 N 0.23788 0.37211 0.02314 0.0
C1421 C 0.24968 0.38298 0.01435 0.0
C1422 C 0.25365 0.38337 0.98154 0.0
C1423 C 0.36472 0.49737 0.7766 0.0
C1424 C 0.37284 0.50917 0.79467 0.0
C1425 C 0.36469 0.49824 0.74344 0.0
C1426 C 0.37269 0.51102 0.72733 0.0
H1427 H 0.35871 0.48722 0.78814 0.0
H1428 H 0.35874 0.48864 0.73032 0.0
S1429 S 0.39269 0.54644 0.7644 0.0
N1430 N 0.38708 0.53494 0.79451 0.0
N1431 N 0.3869 0.53672 0.73227 0.0
C1432 C 0.37998 0.5233 0.74534 0.0
C1433 C 0.38007 0.52235 0.77897 0.0
C1434 C 0.25441 0.61409 0.53464 0.0
C1435 C 0.26694 0.62412 0.5475 0.0
C1436 C 0.25113 0.61381 0.50192 0.0
C1437 C 0.26018 0.62365 0.48099 0.0
H1438 H 0.2465 0.60697 0.55 0.0
H1439 H 0.24101 0.60645 0.49315 0.0
S1440 S 0.29571 0.65003 0.50109 0.0
N1441 N 0.28987 0.64227 0.53529 0.0
N1442 N 0.28292 0.64248 0.47452 0.0
C1443 C 0.27317 0.63302 0.49315 0.0
C1444 C 0.27676 0.63306 0.52615 0.0
C1445 C 0.15513 0.52339 0.2721 0.0
C1446 C 0.14909 0.51184 0.29367 0.0
C1447 C 0.15489 0.52044 0.23933 0.0
C1448 C 0.14844 0.5059 0.22699 0.0
H1449 H 0.15951 0.53496 0.28054 0.0
H1450 H 0.15902 0.52995 0.22353 0.0
S1451 S 0.13258 0.47138 0.2745 0.0
N1452 N 0.13741 0.48517 0.30096 0.0
N1453 N 0.1373 0.47934 0.23984 0.0
C1454 C 0.14311 0.49405 0.24873 0.0
C1455 C 0.14332 0.4971 0.28189 0.0
C1456 C 0.21903 0.0748 0.12453 0.0
C1457 C 0.21487 0.07615 0.15665 0.0
C1458 C 0.20933 0.06555 0.10354 0.0
C1459 C 0.19496 0.05702 0.11356 0.0
H1460 H 0.22978 0.08115 0.11534 0.0
H1461 H 0.21293 0.06565 0.07896 0.0
S1462 S 0.17954 0.05558 0.19631 0.0
N1463 N 0.19567 0.06785 0.19776 0.0
N1464 N 0.17826 0.04961 0.1593 0.0
C1465 C 0.19117 0.05775 0.14609 0.0
C1466 C 0.2009 0.06743 0.16729 0.0
C1467 C 0.21637 0.94034 0.39632 0.0
C1468 C 0.21592 0.94313 0.36341 0.0
C1469 C 0.20685 0.94965 0.41749 0.0
C1470 C 0.1964 0.96231 0.40697 0.0
H1471 H 0.22401 0.93072 0.40597 0.0
H1472 H 0.20733 0.9465 0.44232 0.0
S1473 S 0.19234 0.97639 0.32405 0.0
N1474 N 0.20481 0.96058 0.32187 0.0
N1475 N 0.18784 0.97841 0.3618 0.0
C1476 C 0.19656 0.96588 0.37447 0.0
C1477 C 0.20609 0.95629 0.35277 0.0
C1478 C 0.31803 0.94511 0.60792 0.0
C1479 C 0.32116 0.96158 0.61289 0.0
C1480 C 0.30862 0.93586 0.62945 0.0
C1481 C 0.30129 0.94268 0.65674 0.0
H1482 H 0.32344 0.93914 0.58767 0.0
H1483 H 0.30772 0.92307 0.6248 0.0
S1484 S 0.30335 0.9866 0.67654 0.0
N1485 N 0.31519 0.98491 0.64494 0.0
N1486 N 0.29614 0.96829 0.68379 0.0
C1487 C 0.30346 0.95964 0.66046 0.0
C1488 C 0.31365 0.96887 0.63902 0.0
C1489 C 0.29585 0.06463 0.88011 0.0
C1490 C 0.3027 0.07766 0.86299 0.0
C1491 C 0.30577 0.05515 0.90077 0.0
C1492 C 0.32301 0.05811 0.90461 0.0
H1493 H 0.28272 0.0619 0.87786 0.0
H1494 H 0.2999 0.04537 0.91369 0.0
S1495 S 0.34675 0.0905 0.86382 0.0
N1496 N 0.3276 0.09264 0.85031 0.0
N1497 N 0.34615 0.07521 0.88897 0.0
C1498 C 0.32987 0.07097 0.88704 0.0
C1499 C 0.31977 0.0806 0.86633 0.0
C1500 C 0.82345 0.96021 0.86864 0.0
C1501 C 0.82018 0.96101 0.90153 0.0
C1502 C 0.81393 0.95071 0.84793 0.0
C1503 C 0.79999 0.94193 0.8583 0.0
H1504 H 0.83357 0.96689 0.85813 0.0
H1505 H 0.8179 0.95004 0.82357 0.0
S1506 S 0.78292 0.94249 0.93967 0.0
N1507 N 0.80022 0.95311 0.94216 0.0
N1508 N 0.78148 0.93697 0.90246 0.0
C1509 C 0.7955 0.9437 0.89025 0.0
C1510 C 0.80563 0.95285 0.91185 0.0
C1511 C 0.82752 0.0741 0.63146 0.0
C1512 C 0.82144 0.05956 0.61865 0.0
C1513 C 0.81779 0.08364 0.65174 0.0
C1514 C 0.80163 0.07896 0.66068 0.0
H1515 H 0.83986 0.07831 0.62529 0.0
H1516 H 0.82303 0.09474 0.66081 0.0
S1517 S 0.78007 0.04163 0.63522 0.0
N1518 N 0.79827 0.04077 0.61719 0.0
N1519 N 0.78015 0.05852 0.65587 0.0
C1520 C 0.7955 0.06428 0.64868 0.0
C1521 C 0.80532 0.05468 0.62751 0.0
C1522 C 0.71104 0.08276 0.39298 0.0
C1523 C 0.72008 0.07612 0.36751 0.0
C1524 C 0.70157 0.07304 0.41368 0.0
C1525 C 0.7003 0.05624 0.40961 0.0
H1526 H 0.71082 0.09569 0.39665 0.0
H1527 H 0.69474 0.07883 0.43254 0.0
S1528 S 0.7226 0.03214 0.34965 0.0
N1529 N 0.72832 0.05093 0.34221 0.0
N1530 N 0.70958 0.03311 0.37968 0.0
C1531 C 0.7094 0.0493 0.38489 0.0
C1532 C 0.71947 0.05909 0.36428 0.0
C1533 C 0.72568 0.9503 0.12845 0.0
C1534 C 0.7187 0.94218 0.15446 0.0
C1535 C 0.71588 0.96034 0.10861 0.0
C1536 C 0.69851 0.96241 0.11331 0.0
H1537 H 0.73885 0.94908 0.12362 0.0
H1538 H 0.72213 0.96655 0.08949 0.0
S1539 S 0.67443 0.94302 0.17823 0.0
N1540 N 0.69371 0.93692 0.18438 0.0
N1541 N 0.67506 0.95458 0.14639 0.0
C1542 C 0.69154 0.95415 0.13944 0.0
C1543 C 0.70164 0.94435 0.16002 0.0
C1544 C 0.715 0.55415 0.60974 0.0
C1545 C 0.69787 0.55107 0.61557 0.0
C1546 C 0.72471 0.56391 0.62979 0.0
C1547 C 0.71804 0.57048 0.65746 0.0
H1548 H 0.72118 0.54909 0.58942 0.0
H1549 H 0.73758 0.56624 0.62367 0.0
S1550 S 0.67497 0.56559 0.68648 0.0
N1551 N 0.67519 0.55575 0.65274 0.0
N1552 N 0.69399 0.5726 0.69124 0.0
C1553 C 0.70146 0.5669 0.66478 0.0
C1554 C 0.6913 0.55753 0.64384 0.0
C1555 C 0.72014 0.44741 0.89522 0.0
C1556 C 0.71821 0.44882 0.86221 0.0
C1557 C 0.71067 0.45681 0.91632 0.0
C1558 C 0.69876 0.46817 0.90558 0.0
H1559 H 0.72893 0.4388 0.90501 0.0
H1560 H 0.71236 0.45471 0.94138 0.0
S1561 S 0.69027 0.47822 0.82161 0.0
N1562 N 0.70402 0.46343 0.81998 0.0
N1563 N 0.68707 0.48153 0.85948 0.0
C1564 C 0.69736 0.47034 0.8727 0.0
C1565 C 0.70686 0.46065 0.85116 0.0
C1566 C 0.79563 0.46239 0.14889 0.0
C1567 C 0.80086 0.44673 0.15788 0.0
C1568 C 0.80538 0.47211 0.12837 0.0
C1569 C 0.8209 0.46667 0.11689 0.0
H1570 H 0.78384 0.46703 0.1573 0.0
H1571 H 0.80083 0.48398 0.12169 0.0
S1572 S 0.84007 0.42682 0.13368 0.0
N1573 N 0.82255 0.42652 0.15392 0.0
N1574 N 0.84063 0.44454 0.11571 0.0
C1575 C 0.82615 0.45114 0.12599 0.0
C1576 C 0.81624 0.44128 0.14641 0.0
C1577 C 0.80858 0.57795 0.38868 0.0
C1578 C 0.79894 0.57123 0.3641 0.0
C1579 C 0.81792 0.56824 0.40945 0.0
C1580 C 0.81832 0.55138 0.40638 0.0
H1581 H 0.80939 0.59091 0.39149 0.0
H1582 H 0.82531 0.57403 0.42756 0.0
S1583 S 0.7946 0.52725 0.34847 0.0
N1584 N 0.78956 0.54615 0.33999 0.0
N1585 N 0.80786 0.52812 0.37827 0.0
C1586 C 0.80866 0.54435 0.38255 0.0
C1587 C 0.79884 0.5542 0.36161 0.0
C1588 C 0.32836 0.449 0.38622 0.0
C1589 C 0.32233 0.46315 0.40069 0.0
C1590 C 0.31831 0.43972 0.36603 0.0
C1591 C 0.30186 0.44432 0.35897 0.0
H1592 H 0.34091 0.44484 0.39102 0.0
H1593 H 0.32351 0.42891 0.35563 0.0
S1594 S 0.28026 0.48069 0.38906 0.0
N1595 N 0.29889 0.48151 0.40555 0.0
N1596 N 0.28013 0.46422 0.36715 0.0
C1597 C 0.29576 0.4586 0.37259 0.0
C1598 C 0.30592 0.46794 0.39359 0.0
C1599 C 0.31291 0.58244 0.14115 0.0
C1600 C 0.30149 0.57504 0.16197 0.0
C1601 C 0.32285 0.57333 0.12043 0.0
C1602 C 0.32187 0.55639 0.11957 0.0
H1603 H 0.31455 0.59542 0.14129 0.0
H1604 H 0.33151 0.5796 0.10511 0.0
S1605 S 0.29365 0.53078 0.16728 0.0
N1606 N 0.28934 0.54938 0.17863 0.0
N1607 N 0.3085 0.53244 0.14054 0.0
C1608 C 0.31054 0.54873 0.13984 0.0
C1609 C 0.30025 0.55798 0.16078 0.0
C1610 C 0.21318 0.546 0.89258 0.0
C1611 C 0.19858 0.55205 0.90683 0.0
C1612 C 0.22305 0.55579 0.87237 0.0
C1613 C 0.21897 0.57214 0.86644 0.0
H1614 H 0.21692 0.5336 0.89692 0.0
H1615 H 0.23409 0.55061 0.86181 0.0
S1616 S 0.18231 0.59371 0.8985 0.0
N1617 N 0.18078 0.57535 0.91363 0.0
N1618 N 0.1992 0.59365 0.87637 0.0
C1619 C 0.20449 0.5782 0.88074 0.0
C1620 C 0.19438 0.56822 0.90073 0.0
C1621 C 0.21605 0.46401 0.6073 0.0
C1622 C 0.19914 0.4676 0.61414 0.0
C1623 C 0.22596 0.45421 0.62724 0.0
C1624 C 0.21977 0.44797 0.65582 0.0
H1625 H 0.22196 0.46879 0.58635 0.0
H1626 H 0.23866 0.45165 0.62034 0.0
S1627 S 0.17707 0.45357 0.68661 0.0
N1628 N 0.177 0.46341 0.65265 0.0
N1629 N 0.19602 0.44621 0.6906 0.0
C1630 C 0.20328 0.4518 0.66374 0.0
C1631 C 0.19294 0.46132 0.643 0.0
C1632 C 0.25528 0.25354 0.28322 0.0
C1633 C 0.25781 0.24459 0.2553 0.0
C1634 C 0.25398 0.27054 0.28297 0.0
C1635 C 0.25489 0.27967 0.25474 0.0
H1636 H 0.25387 0.24743 0.3057 0.0
H1637 H 0.25191 0.27655 0.30526 0.0
S1638 S 0.26255 0.26288 0.17506 0.0
N1639 N 0.26247 0.24692 0.1985 0.0
N1640 N 0.2591 0.27846 0.19818 0.0
C1641 C 0.25747 0.27102 0.22669 0.0
C1642 C 0.25918 0.25371 0.22693 0.0
C1643 C 0.01587 0.99713 0.4994 0.0
C1644 C 0.02488 1.0094 0.51478 0.0
C1645 C 0.99838 0.99728 0.49794 0.0
C1646 C 0.98891 0.00983 0.51147 0.0
H1647 H 0.02242 0.98719 0.48844 0.0
H1648 H 0.99226 0.98736 0.48611 0.0
S1649 S 1.00648 0.04537 0.55312 0.0
N1650 N 0.023 0.03464 0.54334 0.0
N1651 N 0.99023 0.03525 0.53994 0.0
C1652 C 0.99779 0.02221 0.52695 0.0
C1653 C 0.01567 0.02192 0.52873 0.0
C1654 C 0.2537 0.74798 0.77965 0.0
C1655 C 0.26629 0.7402 0.76197 0.0
C1656 C 0.25229 0.76496 0.78071 0.0
C1657 C 0.26324 0.77501 0.76376 0.0
H1658 H 0.24461 0.74092 0.79253 0.0
H1659 H 0.24231 0.77024 0.79439 0.0
S1660 S 0.29909 0.76118 0.71578 0.0
N1661 N 0.29056 0.74427 0.72875 0.0
N1662 N 0.2876 0.77597 0.73003 0.0
C1663 C 0.27594 0.76746 0.74625 0.0
C1664 C 0.27751 0.75018 0.74547 0.0
C1665 C 0.50207 0.02465 0.0293 0.0
C1666 C 0.49332 0.01256 0.01283 0.0
C1667 C 0.51964 0.02561 0.02826 0.0
C1668 C 0.52916 0.01461 0.0105 0.0
H1669 H 0.49528 0.03358 0.04275 0.0
H1670 H 0.52583 0.03507 0.04138 0.0
S1671 S 0.5126 0.97974 0.96608 0.0
N1672 N 0.4958 0.98871 0.98007 0.0
N1673 N 0.5286 0.9906 0.97818 0.0
C1674 C 0.52061 1.00233 0.99454 0.0
C1675 C 0.50279 1.00131 0.99564 0.0
C1676 C 0.24317 0.74971 0.27511 0.0
C1677 C 0.25622 0.73995 0.26382 0.0
C1678 C 0.24414 0.76674 0.27397 0.0
C1679 C 0.25815 0.77478 0.26133 0.0
H1680 H 0.232 0.74416 0.28445 0.0
H1681 H 0.23373 0.7737 0.28277 0.0
S1682 S 0.29645 0.75494 0.23215 0.0
N1683 N 0.2842 0.73976 0.24214 0.0
N1684 N 0.2858 0.77157 0.2395 0.0
C1685 C 0.27138 0.76518 0.25059 0.0
C1686 C 0.27047 0.74788 0.25199 0.0
C1687 C 0.50156 0.99274 0.51895 0.0
C1688 C 0.493 1.00634 0.50685 0.0
C1689 C 0.5191 0.99218 0.52023 0.0
C1690 C 0.52884 1.00526 0.50962 0.0
H1691 H 0.49463 0.98234 0.52728 0.0
H1692 H 0.52506 0.98134 0.5292 0.0
S1693 S 0.51254 0.04441 0.47938 0.0
N1694 N 0.49566 0.03357 0.48613 0.0
N1695 N 0.52844 0.03273 0.48905 0.0
C1696 C 0.52039 0.01907 0.49824 0.0
C1697 C 0.50257 0.01956 0.4967 0.0
C1698 C 0.25102 0.27119 0.74742 0.0
C1699 C 0.26611 0.2787 0.75626 0.0
C1700 C 0.24945 0.25422 0.74624 0.0
C1701 C 0.26289 0.24405 0.75398 0.0
H1702 H 0.24023 0.2785 0.74165 0.0
H1703 H 0.23756 0.24903 0.73977 0.0
S1704 S 0.30535 0.2573 0.77595 0.0
N1705 N 0.29499 0.27438 0.7709 0.0
N1706 N 0.29192 0.24262 0.76929 0.0
C1707 C 0.27803 0.25135 0.76247 0.0
C1708 C 0.27967 0.26859 0.7635 0.0
C1709 C 0.01699 0.99547 0.0143 0.0
C1710 C 0.026 1.00937 1.00557 0.0
C1711 C 0.99944 0.99563 0.01568 0.0
C1712 C 0.9903 0.00978 1.00897 0.0
H1713 H 0.02357 0.98444 0.02037 0.0
H1714 H 0.99297 0.98472 0.02272 0.0
S1715 S 1.00805 0.04941 0.98606 0.0
N1716 N 0.02451 0.03761 0.99049 0.0
N1717 N 0.99164 0.03805 0.99383 0.0
C1718 C 0.99919 0.02374 1.00049 0.0
C1719 C 0.017 0.0235 0.99861 0.0
C1720 C 0.74845 0.76479 0.77801 0.0
C1721 C 0.75698 0.77407 0.75523 0.0
C1722 C 0.75032 0.74787 0.77967 0.0
C1723 C 0.76095 0.73954 0.75886 0.0
H1724 H 0.7401 0.77064 0.79444 0.0
H1725 H 0.7431 0.74124 0.79699 0.0
S1726 S 0.78779 0.75864 0.6979 0.0
N1727 N 0.77743 0.7739 0.7133 0.0
N1728 N 0.78127 0.7423 0.71669 0.0
C1729 C 0.76997 0.74883 0.73674 0.0
C1730 C 0.76791 0.766 0.73488 0.0
C1731 C 0.77499 0.27059 0.2761 0.0
C1732 C 0.76008 0.27811 0.26638 0.0
C1733 C 0.77703 0.25366 0.27446 0.0
C1734 C 0.76423 0.24367 0.26298 0.0
H1735 H 0.7852 0.27787 0.2848 0.0
H1736 H 0.78862 0.24833 0.28247 0.0
S1737 S 0.72263 0.25723 0.23608 0.0
N1738 N 0.73228 0.27417 0.24548 0.0
N1739 N 0.73601 0.24245 0.24302 0.0
C1740 C 0.74928 0.25104 0.25353 0.0
C1741 C 0.74724 0.26822 0.25497 0.0
C1742 C 0.74831 0.27155 0.77827 0.0
C1743 C 0.76035 0.27966 0.75977 0.0
C1744 C 0.7473 0.25453 0.77935 0.0
C1745 C 0.75831 0.24473 0.76203 0.0
H1746 H 0.73936 0.27844 0.79178 0.0
H1747 H 0.73759 0.24904 0.79348 0.0
S1748 S 0.79328 0.25977 0.71259 0.0
N1749 N 0.78419 0.27639 0.72537 0.0
N1750 N 0.78255 0.24461 0.72771 0.0
C1751 C 0.77066 0.2527 0.74404 0.0
C1752 C 0.7716 0.27003 0.7428 0.0
C1753 C 0.74647 0.75044 0.25074 0.0
C1754 C 0.76039 0.74024 0.25364 0.0
C1755 C 0.74816 0.76738 0.25208 0.0
C1756 C 0.76382 0.77479 0.25652 0.0
H1757 H 0.7342 0.74528 0.24764 0.0
H1758 H 0.73709 0.77478 0.24965 0.0
S1759 S 0.80413 0.75326 0.2635 0.0
N1760 N 0.79029 0.73862 0.26017 0.0
N1761 N 0.79353 0.77039 0.26239 0.0
C1762 C 0.77779 0.76465 0.25929 0.0
C1763 C 0.77605 0.74742 0.25791 0.0
C1764 C 0.51788 0.51065 0.03771 0.0
C1765 C 0.52731 0.51348 0.01006 0.0
C1766 C 0.50029 0.51002 0.03706 0.0
C1767 C 0.49131 0.51187 1.00867 0.0
H1768 H 0.52408 0.50844 0.06002 0.0
H1769 H 0.4937 0.50761 0.05887 0.0
S1770 S 0.50933 0.52161 0.93038 0.0
N1771 N 0.52561 0.52019 0.954 0.0
N1772 N 0.493 0.5179 0.95276 0.0
C1773 C 0.50044 0.51515 0.98113 0.0
C1774 C 0.51824 0.51624 0.98184 0.0
C1775 C 1.00204 0.50766 0.48616 0.0
C1776 C 0.9927 0.51046 0.51386 0.0
C1777 C 0.01952 0.50918 0.48557 0.0
C1778 C 0.02863 0.51354 0.51268 0.0
H1779 H 0.99585 0.50398 0.46465 0.0
H1780 H 0.02595 0.5065 0.46378 0.0
S1781 S 0.01022 0.52357 0.59069 0.0
N1782 N 0.99406 0.51875 0.56867 0.0
N1783 N 0.02663 0.52166 0.56766 0.0
C1784 C 0.01942 0.51666 0.54038 0.0
C1785 C 1.00162 0.51508 0.54097 0.0
C1786 C 0.01916 0.51391 0.03194 0.0
C1787 C 0.02793 0.50522 1.00877 0.0
C1788 C 1.00166 0.51547 0.03092 0.0
C1789 C 0.99203 0.50836 1.00674 0.0
H1790 H 0.02591 0.51989 0.05069 0.0
H1791 H 0.99566 0.52249 0.04916 0.0
S1792 S 1.00874 0.48299 0.94212 0.0
N1793 N 0.02544 0.4886 0.96196 0.0
N1794 N 0.99277 0.49133 0.9603 0.0
C1795 C 1.00066 0.49939 0.98382 0.0
C1796 C 0.01846 0.49786 0.98479 0.0
C1797 C 0.51919 0.51742 0.52495 0.0
C1798 C 0.52777 0.50677 0.50482 0.0
C1799 C 0.50172 0.5179 0.52615 0.0
C1800 C 0.49175 0.50758 0.50762 0.0
H1801 H 0.52606 0.52566 0.53986 0.0
H1802 H 0.49604 0.52661 0.54178 0.0
S1803 S 0.50804 0.47716 0.45114 0.0
N1804 N 0.52494 0.48568 0.46568 0.0
N1805 N 0.49218 0.48613 0.4685 0.0
C1806 C 0.5002 0.49693 0.48711 0.0
C1807 C 0.51809 0.49662 0.48561 0.0
loop_
_geom_bond_atom_site_label_1
_geom_bond_atom_site_label_2
_geom_bond_distance
_geom_bond_site_symmetry_2
_ccdc_geom_bond_type
C0 C1 1.264 . S
C0 C5 1.479 . S
C0 C10 1.465 . S
C1 C0 1.264 . S
C1 C3 1.339 . S
C1 H28 0.931 . S
C2 C3 1.395 . S
C2 C4 1.320 . S
C3 C1 1.339 . S
C3 C2 1.395 . S
C3 H29 0.929 . S
C4 C2 1.320 . S
C4 C5 1.405 . S
C4 H30 0.930 . S
C5 C0 1.479 . S
C5 C4 1.405 . S
C5 H31 0.931 . S
U6 O7 2.454 . S
U6 O8 2.458 . S
U6 C9 2.984 . S
U6 C10 2.847 . S
U6 C23 2.882 . S
U6 O24 2.441 . S
U6 O25 2.420 . S
U6 O26 2.455 . S
U6 O27 2.449 . S
O7 U6 2.454 . S
O7 C9 1.353 . S
O8 U6 2.458 . S
O8 C9 1.286 . S
C9 U6 2.984 . S
C9 O7 1.353 . S
C9 O8 1.286 . S
C9 C11 1.363 . S
C10 C0 1.465 . S
C10 U6 2.847 . S
C10 O24 1.249 . S
C10 O25 1.202 . S
C11 C9 1.363 . S
C11 C13 1.408 . S
C11 C16 1.342 . S
C12 C13 1.310 . S
C12 C15 1.461 . S
C12 H32 0.932 . S
C13 C11 1.408 . S
C13 C12 1.310 . S
C13 H33 0.930 . S
C14 C15 1.474 . S
C14 C16 1.285 . S
C14 H34 0.929 . S
C15 C12 1.461 . S
C15 C14 1.474 . S
C16 C11 1.342 . S
C16 C14 1.285 . S
C16 H35 0.930 . S
C17 C20 1.424 . S
C17 C22 1.245 . S
C17 C23 1.428 . S
C18 C21 1.260 . S
C18 C22 1.477 . S
C18 H36 0.932 . S
C19 C20 1.384 . S
C19 C21 1.479 . S
C19 H37 0.929 . S
C20 C17 1.424 . S
C20 C19 1.384 . S
C20 H38 0.928 . S
C21 C18 1.260 . S
C21 C19 1.479 . S
C22 C17 1.245 . S
C22 C18 1.477 . S
C22 H39 0.932 . S
C23 U6 2.882 . S
C23 C17 1.428 . S
C23 O26 1.301 . S
C23 O27 1.282 . S
O24 U6 2.441 . S
O24 C10 1.249 . S
O25 U6 2.420 . S
O25 C10 1.202 . S
O26 U6 2.455 . S
O26 C23 1.301 . S
O27 U6 2.449 . S
O27 C23 1.282 . S
H28 C1 0.931 . S
H29 C3 0.929 . S
H30 C4 0.930 . S
H31 C5 0.931 . S
H32 C12 0.932 . S
H33 C13 0.930 . S
H34 C14 0.929 . S
H35 C16 0.930 . S
H36 C18 0.932 . S
H37 C19 0.929 . S
H38 C20 0.928 . S
H39 C22 0.932 . S
C40 C41 1.264 . S
C40 C45 1.479 . S
C40 C50 1.465 1_545 S
C41 C40 1.264 . S
C41 C43 1.339 . S
C41 H68 0.931 . S
C42 C43 1.395 . S
C42 C44 1.320 . S
C43 C41 1.339 . S
C43 C42 1.395 . S
C43 H69 0.929 . S
C44 C42 1.320 . S
C44 C45 1.405 . S
C44 H70 0.930 . S
C45 C40 1.479 . S
C45 C44 1.405 . S
C45 H71 0.931 1_545 S
U46 O47 2.454 . S
U46 O48 2.458 . S
U46 C49 2.984 . S
U46 C50 2.847 . S
U46 C63 2.882 . S
U46 O64 2.441 . S
U46 O65 2.420 . S
U46 O66 2.455 . S
U46 O67 2.449 . S
O47 U46 2.454 . S
O47 C49 1.353 . S
O48 U46 2.458 . S
O48 C49 1.286 . S
C49 U46 2.984 . S
C49 O47 1.353 . S
C49 O48 1.286 . S
C49 C51 1.363 . S
C50 C40 1.465 1_565 S
C50 U46 2.847 . S
C50 O64 1.249 . S
C50 O65 1.202 . S
C51 C49 1.363 . S
C51 C53 1.408 . S
C51 C56 1.342 . S
C52 C53 1.310 . S
C52 C55 1.461 . S
C52 H72 0.932 . S
C53 C51 1.408 . S
C53 C52 1.310 . S
C53 H73 0.930 . S
C54 C55 1.474 . S
C54 C56 1.285 . S
C54 H74 0.929 . S
C55 C52 1.461 . S
C55 C54 1.474 . S
C56 C51 1.342 . S
C56 C54 1.285 . S
C56 H75 0.930 . S
C57 C60 1.409 1_565 S
C57 C62 1.247 . S
C57 C63 1.436 . S
C58 C61 1.260 . S
C58 C62 1.477 1_545 S
C58 H76 0.932 . S
C59 C60 1.384 . S
C59 C61 1.479 . S
C59 H77 0.929 . S
C60 C57 1.409 1_545 S
C60 C59 1.384 . S
C60 H78 0.928 . S
C61 C58 1.260 . S
C61 C59 1.479 . S
C62 C57 1.247 . S
C62 C58 1.477 1_565 S
C62 H79 0.932 . S
C63 U46 2.882 . S
C63 C57 1.436 . S
C63 O66 1.301 . S
C63 O67 1.282 . S
O64 U46 2.441 . S
O64 C50 1.249 . S
O65 U46 2.420 . S
O65 C50 1.202 . S
O66 U46 2.455 . S
O66 C63 1.301 . S
O67 U46 2.449 . S
O67 C63 1.282 . S
H68 C41 0.931 . S
H69 C43 0.929 . S
H70 C44 0.930 . S
H71 C45 0.931 1_565 S
H72 C52 0.932 . S
H73 C53 0.930 . S
H74 C54 0.929 . S
H75 C56 0.930 . S
H76 C58 0.932 . S
H77 C59 0.929 . S
H78 C60 0.928 . S
H79 C62 0.932 . S
C80 C81 1.264 . S
C80 C85 1.479 . S
C80 C90 1.465 . S
C81 C80 1.264 . S
C81 C83 1.339 . S
C81 H108 0.931 . S
C82 C83 1.395 . S
C82 C84 1.320 . S
C83 C81 1.339 . S
C83 C82 1.395 . S
C83 H109 0.929 . S
C84 C82 1.320 . S
C84 C85 1.405 . S
C84 H110 0.930 . S
C85 C80 1.479 . S
C85 C84 1.405 . S
C85 H111 0.931 . S
U86 O87 2.454 . S
U86 O88 2.458 . S
U86 C89 2.984 . S
U86 C90 2.847 . S
U86 C103 2.882 . S
U86 O104 2.441 . S
U86 O105 2.420 . S
U86 O106 2.455 . S
U86 O107 2.449 . S
O87 U86 2.454 . S
O87 C89 1.353 . S
O88 U86 2.458 . S
O88 C89 1.286 . S
C89 U86 2.984 . S
C89 O87 1.353 . S
C89 O88 1.286 . S
C89 C91 1.363 . S
C90 C80 1.465 . S
C90 U86 2.847 . S
C90 O104 1.249 . S
C90 O105 1.202 . S
C91 C89 1.363 . S
C91 C93 1.408 . S
C91 C96 1.342 . S
C92 C93 1.310 . S
C92 C95 1.461 . S
C92 H112 0.932 . S
C93 C91 1.408 . S
C93 C92 1.310 . S
C93 H113 0.930 . S
C94 C95 1.474 . S
C94 C96 1.285 . S
C94 H114 0.929 . S
C95 C92 1.461 . S
C95 C94 1.474 . S
C96 C91 1.342 . S
C96 C94 1.285 . S
C96 H115 0.930 . S
C97 C100 1.424 . S
C97 C102 1.245 . S
C97 C103 1.428 . S
C98 C101 1.260 . S
C98 C102 1.477 . S
C98 H116 0.932 . S
C99 C100 1.384 . S
C99 C101 1.479 . S
C99 H117 0.929 . S
C100 C97 1.424 . S
C100 C99 1.384 . S
C100 H118 0.928 . S
C101 C98 1.260 . S
C101 C99 1.479 . S
C102 C97 1.245 . S
C102 C98 1.477 . S
C102 H119 0.932 . S
C103 U86 2.882 . S
C103 C97 1.428 . S
C103 O106 1.301 . S
C103 O107 1.282 . S
O104 U86 2.441 . S
O104 C90 1.249 . S
O105 U86 2.420 . S
O105 C90 1.202 . S
O106 U86 2.455 . S
O106 C103 1.301 . S
O107 U86 2.449 . S
O107 C103 1.282 . S
H108 C81 0.931 . S
H109 C83 0.929 . S
H110 C84 0.930 . S
H111 C85 0.931 . S
H112 C92 0.932 . S
H113 C93 0.930 . S
H114 C94 0.929 . S
H115 C96 0.930 . S
H116 C98 0.932 . S
H117 C99 0.929 . S
H118 C100 0.928 . S
H119 C102 0.932 . S
C120 C121 1.264 . S
C120 C125 1.479 1_554 S
C120 C130 1.465 1_565 S
C121 C120 1.264 . S
C121 C123 1.339 . S
C121 H148 0.931 . S
C122 C123 1.395 1_556 S
C122 C124 1.320 . S
C123 C121 1.339 . S
C123 C122 1.395 1_554 S
C123 H149 0.929 . S
C124 C122 1.320 . S
C124 C125 1.405 . S
C124 H150 0.930 . S
C125 C120 1.479 1_556 S
C125 C124 1.405 . S
C125 H151 0.931 1_565 S
U126 O127 2.454 1_554 S
U126 O128 2.458 . S
U126 C129 2.984 1_554 S
U126 C130 2.847 . S
U126 C143 2.882 . S
U126 O144 2.441 1_554 S
U126 O145 2.420 . S
U126 O146 2.455 . S
U126 O147 2.449 . S
O127 U126 2.454 1_556 S
O127 C129 1.353 . S
O128 U126 2.458 . S
O128 C129 1.286 1_554 S
C129 U126 2.984 1_556 S
C129 O127 1.353 . S
C129 O128 1.286 1_556 S
C129 C131 1.363 . S
C130 C120 1.465 1_545 S
C130 U126 2.847 . S
C130 O144 1.249 1_554 S
C130 O145 1.202 . S
C131 C129 1.363 . S
C131 C133 1.408 . S
C131 C136 1.342 . S
C132 C133 1.310 . S
C132 C135 1.461 . S
C132 H152 0.932 . S
C133 C131 1.408 . S
C133 C132 1.310 . S
C133 H153 0.930 . S
C134 C135 1.474 . S
C134 C136 1.285 . S
C134 H154 0.929 . S
C135 C132 1.461 . S
C135 C134 1.474 . S
C136 C131 1.342 . S
C136 C134 1.285 . S
C136 H155 0.930 . S
C137 C140 1.410 1_545 S
C137 C142 1.247 . S
C137 C143 1.435 . S
C138 C141 1.260 . S
C138 C142 1.477 1_565 S
C138 H156 0.932 . S
C139 C140 1.384 . S
C139 C141 1.479 . S
C139 H157 0.929 . S
C140 C137 1.410 1_565 S
C140 C139 1.384 . S
C140 H158 0.928 . S
C141 C138 1.260 . S
C141 C139 1.479 . S
C142 C137 1.247 . S
C142 C138 1.477 1_545 S
C142 H159 0.932 . S
C143 U126 2.882 . S
C143 C137 1.435 . S
C143 O146 1.301 . S
C143 O147 1.282 . S
O144 U126 2.441 1_556 S
O144 C130 1.249 1_556 S
O145 U126 2.420 . S
O145 C130 1.202 . S
O146 U126 2.455 . S
O146 C143 1.301 . S
O147 U126 2.449 . S
O147 C143 1.282 . S
H148 C121 0.931 . S
H149 C123 0.929 . S
H150 C124 0.930 . S
H151 C125 0.931 1_545 S
H152 C132 0.932 . S
H153 C133 0.930 . S
H154 C134 0.929 . S
H155 C136 0.930 . S
H156 C138 0.932 . S
H157 C139 0.929 . S
H158 C140 0.928 . S
H159 C142 0.932 . S
C160 C161 1.264 . S
C160 C165 1.479 . S
C160 C170 1.465 . S
C161 C160 1.264 . S
C161 C163 1.339 . S
C161 H188 0.931 . S
C162 C163 1.395 . S
C162 C164 1.320 . S
C163 C161 1.339 . S
C163 C162 1.395 . S
C163 H189 0.929 . S
C164 C162 1.320 . S
C164 C165 1.405 . S
C164 H190 0.930 . S
C165 C160 1.479 . S
C165 C164 1.405 . S
C165 H191 0.931 . S
U166 O167 2.454 . S
U166 O168 2.458 . S
U166 C169 2.984 . S
U166 C170 2.847 . S
U166 C183 2.882 . S
U166 O184 2.441 . S
U166 O185 2.420 . S
U166 O186 2.455 . S
U166 O187 2.449 . S
O167 U166 2.454 . S
O167 C169 1.353 . S
O168 U166 2.458 . S
O168 C169 1.286 . S
C169 U166 2.984 . S
C169 O167 1.353 . S
C169 O168 1.286 . S
C169 C171 1.363 . S
C170 C160 1.465 . S
C170 U166 2.847 . S
C170 O184 1.249 . S
C170 O185 1.202 . S
C171 C169 1.363 . S
C171 C173 1.408 . S
C171 C176 1.342 . S
C172 C173 1.310 . S
C172 C175 1.461 . S
C172 H192 0.932 . S
C173 C171 1.408 . S
C173 C172 1.310 . S
C173 H193 0.930 . S
C174 C175 1.474 . S
C174 C176 1.285 . S
C174 H194 0.929 . S
C175 C172 1.461 . S
C175 C174 1.474 . S
C176 C171 1.342 . S
C176 C174 1.285 . S
C176 H195 0.930 . S
C177 C180 1.424 . S
C177 C182 1.245 . S
C177 C183 1.428 . S
C178 C181 1.260 . S
C178 C182 1.477 . S
C178 H196 0.932 . S
C179 C180 1.384 . S
C179 C181 1.479 . S
C179 H197 0.929 . S
C180 C177 1.424 . S
C180 C179 1.384 . S
C180 H198 0.928 . S
C181 C178 1.260 . S
C181 C179 1.479 . S
C182 C177 1.245 . S
C182 C178 1.477 . S
C182 H199 0.932 . S
C183 U166 2.882 . S
C183 C177 1.428 . S
C183 O186 1.301 . S
C183 O187 1.282 . S
O184 U166 2.441 . S
O184 C170 1.249 . S
O185 U166 2.420 . S
O185 C170 1.202 . S
O186 U166 2.455 . S
O186 C183 1.301 . S
O187 U166 2.449 . S
O187 C183 1.282 . S
H188 C161 0.931 . S
H189 C163 0.929 . S
H190 C164 0.930 . S
H191 C165 0.931 . S
H192 C172 0.932 . S
H193 C173 0.930 . S
H194 C174 0.929 . S
H195 C176 0.930 . S
H196 C178 0.932 . S
H197 C179 0.929 . S
H198 C180 0.928 . S
H199 C182 0.932 . S
C200 C201 1.264 . S
C200 C205 1.479 . S
C200 C210 1.465 1_545 S
C201 C200 1.264 . S
C201 C203 1.339 . S
C201 H228 0.931 . S
C202 C203 1.395 . S
C202 C204 1.320 . S
C203 C201 1.339 . S
C203 C202 1.395 . S
C203 H229 0.929 . S
C204 C202 1.320 . S
C204 C205 1.405 . S
C204 H230 0.930 . S
C205 C200 1.479 . S
C205 C204 1.405 . S
C205 H231 0.931 1_545 S
U206 O207 2.454 . S
U206 O208 2.458 . S
U206 C209 2.984 . S
U206 C210 2.847 . S
U206 C223 2.882 . S
U206 O224 2.441 . S
U206 O225 2.420 . S
U206 O226 2.455 . S
U206 O227 2.449 . S
O207 U206 2.454 . S
O207 C209 1.353 . S
O208 U206 2.458 . S
O208 C209 1.286 . S
C209 U206 2.984 . S
C209 O207 1.353 . S
C209 O208 1.286 . S
C209 C211 1.363 . S
C210 C200 1.465 1_565 S
C210 U206 2.847 . S
C210 O224 1.249 . S
C210 O225 1.202 . S
C211 C209 1.363 . S
C211 C213 1.408 . S
C211 C216 1.342 . S
C212 C213 1.310 . S
C212 C215 1.461 . S
C212 H232 0.932 . S
C213 C211 1.408 . S
C213 C212 1.310 . S
C213 H233 0.930 . S
C214 C215 1.474 . S
C214 C216 1.285 . S
C214 H234 0.929 . S
C215 C212 1.461 . S
C215 C214 1.474 . S
C216 C211 1.342 . S
C216 C214 1.285 . S
C216 H235 0.930 . S
C217 C220 1.410 1_565 S
C217 C222 1.247 . S
C217 C223 1.435 . S
C218 C221 1.260 . S
C218 C222 1.477 1_545 S
C218 H236 0.932 . S
C219 C220 1.384 . S
C219 C221 1.479 . S
C219 H237 0.929 . S
C220 C217 1.410 1_545 S
C220 C219 1.384 . S
C220 H238 0.928 . S
C221 C218 1.260 . S
C221 C219 1.479 . S
C222 C217 1.247 . S
C222 C218 1.477 1_565 S
C222 H239 0.932 . S
C223 U206 2.882 . S
C223 C217 1.435 . S
C223 O226 1.301 . S
C223 O227 1.282 . S
O224 U206 2.441 . S
O224 C210 1.249 . S
O225 U206 2.420 . S
O225 C210 1.202 . S
O226 U206 2.455 . S
O226 C223 1.301 . S
O227 U206 2.449 . S
O227 C223 1.282 . S
H228 C201 0.931 . S
H229 C203 0.929 . S
H230 C204 0.930 . S
H231 C205 0.931 1_565 S
H232 C212 0.932 . S
H233 C213 0.930 . S
H234 C214 0.929 . S
H235 C216 0.930 . S
H236 C218 0.932 . S
H237 C219 0.929 . S
H238 C220 0.928 . S
H239 C222 0.932 . S
C240 C241 1.264 . S
C240 C245 1.479 . S
C240 C250 1.465 . S
C241 C240 1.264 . S
C241 C243 1.339 . S
C241 H268 0.931 . S
C242 C243 1.395 . S
C242 C244 1.320 . S
C243 C241 1.339 . S
C243 C242 1.395 . S
C243 H269 0.929 . S
C244 C242 1.320 . S
C244 C245 1.405 . S
C244 H270 0.930 . S
C245 C240 1.479 . S
C245 C244 1.405 . S
C245 H271 0.931 . S
U246 O247 2.454 . S
U246 O248 2.458 . S
U246 C249 2.984 . S
U246 C250 2.847 . S
U246 C263 2.882 . S
U246 O264 2.441 . S
U246 O265 2.420 . S
U246 O266 2.455 . S
U246 O267 2.449 . S
O247 U246 2.454 . S
O247 C249 1.353 . S
O248 U246 2.458 . S
O248 C249 1.286 . S
C249 U246 2.984 . S
C249 O247 1.353 . S
C249 O248 1.286 . S
C249 C251 1.363 . S
C250 C240 1.465 . S
C250 U246 2.847 . S
C250 O264 1.249 . S
C250 O265 1.202 . S
C251 C249 1.363 . S
C251 C253 1.408 . S
C251 C256 1.342 . S
C252 C253 1.310 . S
C252 C255 1.461 . S
C252 H272 0.932 . S
C253 C251 1.408 . S
C253 C252 1.310 . S
C253 H273 0.930 . S
C254 C255 1.474 . S
C254 C256 1.285 . S
C254 H274 0.929 . S
C255 C252 1.461 . S
C255 C254 1.474 . S
C256 C251 1.342 . S
C256 C254 1.285 . S
C256 H275 0.930 . S
C257 C260 1.424 . S
C257 C262 1.245 . S
C257 C263 1.428 . S
C258 C261 1.260 . S
C258 C262 1.477 . S
C258 H276 0.932 . S
C259 C260 1.384 . S
C259 C261 1.479 . S
C259 H277 0.929 . S
C260 C257 1.424 . S
C260 C259 1.384 . S
C260 H278 0.928 . S
C261 C258 1.260 . S
C261 C259 1.479 . S
C262 C257 1.245 . S
C262 C258 1.477 . S
C262 H279 0.932 . S
C263 U246 2.882 . S
C263 C257 1.428 . S
C263 O266 1.301 . S
C263 O267 1.282 . S
O264 U246 2.441 . S
O264 C250 1.249 . S
O265 U246 2.420 . S
O265 C250 1.202 . S
O266 U246 2.455 . S
O266 C263 1.301 . S
O267 U246 2.449 . S
O267 C263 1.282 . S
H268 C241 0.931 . S
H269 C243 0.929 . S
H270 C244 0.930 . S
H271 C245 0.931 . S
H272 C252 0.932 . S
H273 C253 0.930 . S
H274 C254 0.929 . S
H275 C256 0.930 . S
H276 C258 0.932 . S
H277 C259 0.929 . S
H278 C260 0.928 . S
H279 C262 0.932 . S
C280 C281 1.264 . S
C280 C285 1.479 1_556 S
C280 C290 1.465 1_565 S
C281 C280 1.264 . S
C281 C283 1.339 . S
C281 H308 0.931 . S
C282 C283 1.395 1_554 S
C282 C284 1.320 . S
C283 C281 1.339 . S
C283 C282 1.395 1_556 S
C283 H309 0.929 . S
C284 C282 1.320 . S
C284 C285 1.405 . S
C284 H310 0.930 . S
C285 C280 1.479 1_554 S
C285 C284 1.405 . S
C285 H311 0.931 1_565 S
U286 O287 2.454 1_556 S
U286 O288 2.458 . S
U286 C289 2.984 1_556 S
U286 C290 2.847 . S
U286 C303 2.882 . S
U286 O304 2.441 1_556 S
U286 O305 2.420 . S
U286 O306 2.455 . S
U286 O307 2.449 . S
O287 U286 2.454 1_554 S
O287 C289 1.353 . S
O288 U286 2.458 . S
O288 C289 1.286 1_556 S
C289 U286 2.984 1_554 S
C289 O287 1.353 . S
C289 O288 1.286 1_554 S
C289 C291 1.363 . S
C290 C280 1.465 1_545 S
C290 U286 2.847 . S
C290 O304 1.249 1_556 S
C290 O305 1.202 . S
C291 C289 1.363 . S
C291 C293 1.408 . S
C291 C296 1.342 . S
C292 C293 1.310 . S
C292 C295 1.461 . S
C292 H312 0.932 . S
C293 C291 1.408 . S
C293 C292 1.310 . S
C293 H313 0.930 . S
C294 C295 1.474 . S
C294 C296 1.285 . S
C294 H314 0.929 . S
C295 C292 1.461 . S
C295 C294 1.474 . S
C296 C291 1.342 . S
C296 C294 1.285 . S
C296 H315 0.930 . S
C297 C300 1.409 1_545 S
C297 C302 1.247 . S
C297 C303 1.436 . S
C298 C301 1.260 . S
C298 C302 1.477 1_565 S
C298 H316 0.932 . S
C299 C300 1.384 . S
C299 C301 1.479 . S
C299 H317 0.929 . S
C300 C297 1.409 1_565 S
C300 C299 1.384 . S
C300 H318 0.928 . S
C301 C298 1.260 . S
C301 C299 1.479 . S
C302 C297 1.247 . S
C302 C298 1.477 1_545 S
C302 H319 0.932 . S
C303 U286 2.882 . S
C303 C297 1.436 . S
C303 O306 1.301 . S
C303 O307 1.282 . S
O304 U286 2.441 1_554 S
O304 C290 1.249 1_554 S
O305 U286 2.420 . S
O305 C290 1.202 . S
O306 U286 2.455 . S
O306 C303 1.301 . S
O307 U286 2.449 . S
O307 C303 1.282 . S
H308 C281 0.931 . S
H309 C283 0.929 . S
H310 C284 0.930 . S
H311 C285 0.931 1_545 S
H312 C292 0.932 . S
H313 C293 0.930 . S
H314 C294 0.929 . S
H315 C296 0.930 . S
H316 C298 0.932 . S
H317 C299 0.929 . S
H318 C300 0.928 . S
H319 C302 0.932 . S
C320 C321 1.264 . S
C320 C325 1.479 . S
C320 C330 1.465 . S
C321 C320 1.264 . S
C321 C323 1.339 . S
C321 H348 0.931 . S
C322 C323 1.395 . S
C322 C324 1.320 . S
C323 C321 1.339 . S
C323 C322 1.395 . S
C323 H349 0.929 . S
C324 C322 1.320 . S
C324 C325 1.405 . S
C324 H350 0.930 . S
C325 C320 1.479 . S
C325 C324 1.405 . S
C325 H351 0.931 . S
U326 O327 2.454 . S
U326 O328 2.458 . S
U326 C329 2.984 . S
U326 C330 2.847 . S
U326 C343 2.882 . S
U326 O344 2.441 . S
U326 O345 2.420 . S
U326 O346 2.455 . S
U326 O347 2.449 . S
O327 U326 2.454 . S
O327 C329 1.353 . S
O328 U326 2.458 . S
O328 C329 1.286 . S
C329 U326 2.984 . S
C329 O327 1.353 . S
C329 O328 1.286 . S
C329 C331 1.363 . S
C330 C320 1.465 . S
C330 U326 2.847 . S
C330 O344 1.249 . S
C330 O345 1.202 . S
C331 C329 1.363 . S
C331 C333 1.408 . S
C331 C336 1.342 . S
C332 C333 1.310 . S
C332 C335 1.461 . S
C332 H352 0.932 . S
C333 C331 1.408 . S
C333 C332 1.310 . S
C333 H353 0.930 . S
C334 C335 1.474 . S
C334 C336 1.285 . S
C334 H354 0.929 . S
C335 C332 1.461 . S
C335 C334 1.474 . S
C336 C331 1.342 . S
C336 C334 1.285 . S
C336 H355 0.930 . S
C337 C340 1.424 . S
C337 C342 1.245 . S
C337 C343 1.428 . S
C338 C341 1.260 . S
C338 C342 1.477 . S
C338 H356 0.932 . S
C339 C340 1.384 . S
C339 C341 1.479 . S
C339 H357 0.929 . S
C340 C337 1.424 . S
C340 C339 1.384 . S
C340 H358 0.928 . S
C341 C338 1.260 . S
C341 C339 1.479 . S
C342 C337 1.245 . S
C342 C338 1.477 . S
C342 H359 0.932 . S
C343 U326 2.882 . S
C343 C337 1.428 . S
C343 O346 1.301 . S
C343 O347 1.282 . S
O344 U326 2.441 . S
O344 C330 1.249 . S
O345 U326 2.420 . S
O345 C330 1.202 . S
O346 U326 2.455 . S
O346 C343 1.301 . S
O347 U326 2.449 . S
O347 C343 1.282 . S
H348 C321 0.931 . S
H349 C323 0.929 . S
H350 C324 0.930 . S
H351 C325 0.931 . S
H352 C332 0.932 . S
H353 C333 0.930 . S
H354 C334 0.929 . S
H355 C336 0.930 . S
H356 C338 0.932 . S
H357 C339 0.929 . S
H358 C340 0.928 . S
H359 C342 0.932 . S
C360 C361 1.264 . S
C360 C365 1.479 . S
C360 C370 1.465 1_565 S
C361 C360 1.264 . S
C361 C363 1.339 . S
C361 H388 0.931 . S
C362 C363 1.395 . S
C362 C364 1.320 . S
C363 C361 1.339 . S
C363 C362 1.395 . S
C363 H389 0.929 . S
C364 C362 1.320 . S
C364 C365 1.405 . S
C364 H390 0.930 . S
C365 C360 1.479 . S
C365 C364 1.405 . S
C365 H391 0.931 1_565 S
U366 O367 2.454 . S
U366 O368 2.458 . S
U366 C369 2.984 . S
U366 C370 2.847 . S
U366 C383 2.882 . S
U366 O384 2.441 . S
U366 O385 2.420 . S
U366 O386 2.455 . S
U366 O387 2.449 . S
O367 U366 2.454 . S
O367 C369 1.353 . S
O368 U366 2.458 . S
O368 C369 1.286 . S
C369 U366 2.984 . S
C369 O367 1.353 . S
C369 O368 1.286 . S
C369 C371 1.363 . S
C370 C360 1.465 1_545 S
C370 U366 2.847 . S
C370 O384 1.249 . S
C370 O385 1.202 . S
C371 C369 1.363 . S
C371 C373 1.408 . S
C371 C376 1.342 . S
C372 C373 1.310 . S
C372 C375 1.461 . S
C372 H392 0.932 . S
C373 C371 1.408 . S
C373 C372 1.310 . S
C373 H393 0.930 . S
C374 C375 1.474 . S
C374 C376 1.285 . S
C374 H394 0.929 . S
C375 C372 1.461 . S
C375 C374 1.474 . S
C376 C371 1.342 . S
C376 C374 1.285 . S
C376 H395 0.930 . S
C377 C380 1.460 . S
C377 C382 1.244 . S
C377 C383 1.409 1_565 S
C378 C381 1.260 . S
C378 C382 1.487 . S
C378 H396 0.932 . S
C379 C380 1.384 . S
C379 C381 1.479 . S
C379 H397 0.929 . S
C380 C377 1.460 . S
C380 C379 1.384 . S
C380 H398 0.928 . S
C381 C378 1.260 . S
C381 C379 1.479 . S
C382 C377 1.244 . S
C382 C378 1.487 . S
C382 H399 0.922 1_565 S
C383 U366 2.882 . S
C383 C377 1.409 1_545 S
C383 O386 1.301 . S
C383 O387 1.282 . S
O384 U366 2.441 . S
O384 C370 1.249 . S
O385 U366 2.420 . S
O385 C370 1.202 . S
O386 U366 2.455 . S
O386 C383 1.301 . S
O387 U366 2.449 . S
O387 C383 1.282 . S
H388 C361 0.931 . S
H389 C363 0.929 . S
H390 C364 0.930 . S
H391 C365 0.931 1_545 S
H392 C372 0.932 . S
H393 C373 0.930 . S
H394 C374 0.929 . S
H395 C376 0.930 . S
H396 C378 0.932 . S
H397 C379 0.929 . S
H398 C380 0.928 . S
H399 C382 0.922 1_545 S
C400 C401 1.264 . S
C400 C405 1.479 . S
C400 C410 1.465 . S
C401 C400 1.264 . S
C401 C403 1.339 . S
C401 H428 0.931 . S
C402 C403 1.395 . S
C402 C404 1.320 . S
C403 C401 1.339 . S
C403 C402 1.395 . S
C403 H429 0.929 . S
C404 C402 1.320 . S
C404 C405 1.405 . S
C404 H430 0.930 . S
C405 C400 1.479 . S
C405 C404 1.405 . S
C405 H431 0.931 . S
U406 O407 2.454 . S
U406 O408 2.458 . S
U406 C409 2.984 . S
U406 C410 2.847 . S
U406 C423 2.882 . S
U406 O424 2.441 . S
U406 O425 2.420 . S
U406 O426 2.455 . S
U406 O427 2.449 . S
O407 U406 2.454 . S
O407 C409 1.353 . S
O408 U406 2.458 . S
O408 C409 1.286 . S
C409 U406 2.984 . S
C409 O407 1.353 . S
C409 O408 1.286 . S
C409 C411 1.363 . S
C410 C400 1.465 . S
C410 U406 2.847 . S
C410 O424 1.249 . S
C410 O425 1.202 . S
C411 C409 1.363 . S
C411 C413 1.408 . S
C411 C416 1.342 . S
C412 C413 1.310 . S
C412 C415 1.461 . S
C412 H432 0.932 . S
C413 C411 1.408 . S
C413 C412 1.310 . S
C413 H433 0.930 . S
C414 C415 1.474 . S
C414 C416 1.285 . S
C414 H434 0.929 . S
C415 C412 1.461 . S
C415 C414 1.474 . S
C416 C411 1.342 . S
C416 C414 1.285 . S
C416 H435 0.930 . S
C417 C420 1.424 . S
C417 C422 1.245 . S
C417 C423 1.428 . S
C418 C421 1.260 . S
C418 C422 1.477 . S
C418 H436 0.932 . S
C419 C420 1.384 . S
C419 C421 1.479 . S
C419 H437 0.929 . S
C420 C417 1.424 . S
C420 C419 1.384 . S
C420 H438 0.928 . S
C421 C418 1.260 . S
C421 C419 1.479 . S
C422 C417 1.245 . S
C422 C418 1.477 . S
C422 H439 0.932 . S
C423 U406 2.882 . S
C423 C417 1.428 . S
C423 O426 1.301 . S
C423 O427 1.282 . S
O424 U406 2.441 . S
O424 C410 1.249 . S
O425 U406 2.420 . S
O425 C410 1.202 . S
O426 U406 2.455 . S
O426 C423 1.301 . S
O427 U406 2.449 . S
O427 C423 1.282 . S
H428 C401 0.931 . S
H429 C403 0.929 . S
H430 C404 0.930 . S
H431 C405 0.931 . S
H432 C412 0.932 . S
H433 C413 0.930 . S
H434 C414 0.929 . S
H435 C416 0.930 . S
H436 C418 0.932 . S
H437 C419 0.929 . S
H438 C420 0.928 . S
H439 C422 0.932 . S
C440 C441 1.264 1_554 S
C440 C445 1.479 . S
C440 C450 1.465 1_554 S
C441 C440 1.264 1_556 S
C441 C443 1.339 . S
C441 H468 0.931 . S
C442 C443 1.395 1_554 S
C442 C444 1.320 . S
C443 C441 1.339 . S
C443 C442 1.395 1_556 S
C443 H469 0.929 . S
C444 C442 1.320 . S
C444 C445 1.405 . S
C444 H470 0.930 . S
C445 C440 1.479 . S
C445 C444 1.405 . S
C445 H471 0.931 . S
U446 O447 2.454 1_546 S
U446 O448 2.458 1_545 S
U446 C449 2.984 1_546 S
U446 C450 2.847 . S
U446 C463 2.882 . S
U446 O464 2.441 1_556 S
U446 O465 2.420 . S
U446 O466 2.455 . S
U446 O467 2.449 . S
O447 U446 2.454 1_564 S
O447 C449 1.353 . S
O448 U446 2.458 1_565 S
O448 C449 1.286 1_556 S
C449 U446 2.984 1_564 S
C449 O447 1.353 . S
C449 O448 1.286 1_554 S
C449 C451 1.363 . S
C450 C440 1.465 1_556 S
C450 U446 2.847 . S
C450 O464 1.249 1_556 S
C450 O465 1.202 . S
C451 C449 1.363 . S
C451 C453 1.408 . S
C451 C456 1.342 . S
C452 C453 1.310 . S
C452 C455 1.461 . S
C452 H472 0.932 . S
C453 C451 1.408 . S
C453 C452 1.310 . S
C453 H473 0.930 . S
C454 C455 1.474 . S
C454 C456 1.285 . S
C454 H474 0.929 . S
C455 C452 1.461 . S
C455 C454 1.474 . S
C456 C451 1.342 . S
C456 C454 1.285 . S
C456 H475 0.930 . S
C457 C460 1.424 . S
C457 C462 1.245 . S
C457 C463 1.428 . S
C458 C461 1.260 . S
C458 C462 1.477 . S
C458 H476 0.932 . S
C459 C460 1.384 . S
C459 C461 1.479 . S
C459 H477 0.929 . S
C460 C457 1.424 . S
C460 C459 1.384 . S
C460 H478 0.928 . S
C461 C458 1.260 . S
C461 C459 1.479 . S
C462 C457 1.245 . S
C462 C458 1.477 . S
C462 H479 0.932 . S
C463 U446 2.882 . S
C463 C457 1.428 . S
C463 O466 1.301 . S
C463 O467 1.282 . S
O464 U446 2.441 1_554 S
O464 C450 1.249 1_554 S
O465 U446 2.420 . S
O465 C450 1.202 . S
O466 U446 2.455 . S
O466 C463 1.301 . S
O467 U446 2.449 . S
O467 C463 1.282 . S
H468 C441 0.931 . S
H469 C443 0.929 . S
H470 C444 0.930 . S
H471 C445 0.931 . S
H472 C452 0.932 . S
H473 C453 0.930 . S
H474 C454 0.929 . S
H475 C456 0.930 . S
H476 C458 0.932 . S
H477 C459 0.929 . S
H478 C460 0.928 . S
H479 C462 0.932 . S
C480 C481 1.264 . S
C480 C485 1.479 . S
C480 C490 1.465 . S
C481 C480 1.264 . S
C481 C483 1.339 . S
C481 H508 0.931 . S
C482 C483 1.395 . S
C482 C484 1.320 . S
C483 C481 1.339 . S
C483 C482 1.395 . S
C483 H509 0.929 . S
C484 C482 1.320 . S
C484 C485 1.405 . S
C484 H510 0.930 . S
C485 C480 1.479 . S
C485 C484 1.405 . S
C485 H511 0.931 . S
U486 O487 2.454 . S
U486 O488 2.458 . S
U486 C489 2.984 . S
U486 C490 2.847 . S
U486 C503 2.882 . S
U486 O504 2.441 . S
U486 O505 2.420 . S
U486 O506 2.455 . S
U486 O507 2.449 . S
O487 U486 2.454 . S
O487 C489 1.353 . S
O488 U486 2.458 . S
O488 C489 1.286 . S
C489 U486 2.984 . S
C489 O487 1.353 . S
C489 O488 1.286 . S
C489 C491 1.363 . S
C490 C480 1.465 . S
C490 U486 2.847 . S
C490 O504 1.249 . S
C490 O505 1.202 . S
C491 C489 1.363 . S
C491 C493 1.408 . S
C491 C496 1.342 . S
C492 C493 1.310 . S
C492 C495 1.461 . S
C492 H512 0.932 . S
C493 C491 1.408 . S
C493 C492 1.310 . S
C493 H513 0.930 . S
C494 C495 1.474 . S
C494 C496 1.285 . S
C494 H514 0.929 . S
C495 C492 1.461 . S
C495 C494 1.474 . S
C496 C491 1.342 . S
C496 C494 1.285 . S
C496 H515 0.930 . S
C497 C500 1.424 . S
C497 C502 1.245 . S
C497 C503 1.428 . S
C498 C501 1.260 . S
C498 C502 1.477 . S
C498 H516 0.932 . S
C499 C500 1.384 . S
C499 C501 1.479 . S
C499 H517 0.929 . S
C500 C497 1.424 . S
C500 C499 1.384 . S
C500 H518 0.928 . S
C501 C498 1.260 . S
C501 C499 1.479 . S
C502 C497 1.245 . S
C502 C498 1.477 . S
C502 H519 0.932 . S
C503 U486 2.882 . S
C503 C497 1.428 . S
C503 O506 1.301 . S
C503 O507 1.282 . S
O504 U486 2.441 . S
O504 C490 1.249 . S
O505 U486 2.420 . S
O505 C490 1.202 . S
O506 U486 2.455 . S
O506 C503 1.301 . S
O507 U486 2.449 . S
O507 C503 1.282 . S
H508 C481 0.931 . S
H509 C483 0.929 . S
H510 C484 0.930 . S
H511 C485 0.931 . S
H512 C492 0.932 . S
H513 C493 0.930 . S
H514 C494 0.929 . S
H515 C496 0.930 . S
H516 C498 0.932 . S
H517 C499 0.929 . S
H518 C500 0.928 . S
H519 C502 0.932 . S
C520 C521 1.264 . S
C520 C525 1.479 . S
C520 C530 1.465 . S
C521 C520 1.264 . S
C521 C523 1.339 . S
C521 H548 0.931 . S
C522 C523 1.395 . S
C522 C524 1.320 . S
C523 C521 1.339 . S
C523 C522 1.395 . S
C523 H549 0.929 . S
C524 C522 1.320 . S
C524 C525 1.405 . S
C524 H550 0.930 . S
C525 C520 1.479 . S
C525 C524 1.405 . S
C525 H551 0.931 . S
U526 O527 2.454 1_565 S
U526 O528 2.458 1_565 S
U526 C529 2.984 1_565 S
U526 C530 2.847 . S
U526 C543 2.882 . S
U526 O544 2.441 . S
U526 O545 2.420 . S
U526 O546 2.455 . S
U526 O547 2.449 . S
O527 U526 2.454 1_545 S
O527 C529 1.353 . S
O528 U526 2.458 1_545 S
O528 C529 1.286 . S
C529 U526 2.984 1_545 S
C529 O527 1.353 . S
C529 O528 1.286 . S
C529 C531 1.363 . S
C530 C520 1.465 . S
C530 U526 2.847 . S
C530 O544 1.249 . S
C530 O545 1.202 . S
C531 C529 1.363 . S
C531 C533 1.408 . S
C531 C536 1.342 . S
C532 C533 1.310 . S
C532 C535 1.461 . S
C532 H552 0.932 . S
C533 C531 1.408 . S
C533 C532 1.310 . S
C533 H553 0.930 . S
C534 C535 1.474 . S
C534 C536 1.285 . S
C534 H554 0.929 . S
C535 C532 1.461 . S
C535 C534 1.474 . S
C536 C531 1.342 . S
C536 C534 1.285 . S
C536 H555 0.930 . S
C537 C540 1.424 . S
C537 C542 1.245 . S
C537 C543 1.428 . S
C538 C541 1.260 . S
C538 C542 1.477 . S
C538 H556 0.932 . S
C539 C540 1.384 . S
C539 C541 1.479 . S
C539 H557 0.929 . S
C540 C537 1.424 . S
C540 C539 1.384 . S
C540 H558 0.928 . S
C541 C538 1.260 . S
C541 C539 1.479 . S
C542 C537 1.245 . S
C542 C538 1.477 . S
C542 H559 0.932 . S
C543 U526 2.882 . S
C543 C537 1.428 . S
C543 O546 1.301 . S
C543 O547 1.282 . S
O544 U526 2.441 . S
O544 C530 1.249 . S
O545 U526 2.420 . S
O545 C530 1.202 . S
O546 U526 2.455 . S
O546 C543 1.301 . S
O547 U526 2.449 . S
O547 C543 1.282 . S
H548 C521 0.931 . S
H549 C523 0.929 . S
H550 C524 0.930 . S
H551 C525 0.931 . S
H552 C532 0.932 . S
H553 C533 0.930 . S
H554 C534 0.929 . S
H555 C536 0.930 . S
H556 C538 0.932 . S
H557 C539 0.929 . S
H558 C540 0.928 . S
H559 C542 0.932 . S
C560 C561 1.264 . S
C560 C565 1.479 . S
C560 C570 1.465 . S
C561 C560 1.264 . S
C561 C563 1.339 . S
C561 H588 0.931 . S
C562 C563 1.395 . S
C562 C564 1.320 . S
C563 C561 1.339 . S
C563 C562 1.395 . S
C563 H589 0.929 . S
C564 C562 1.320 . S
C564 C565 1.405 . S
C564 H590 0.930 . S
C565 C560 1.479 . S
C565 C564 1.405 . S
C565 H591 0.931 . S
U566 O567 2.454 . S
U566 O568 2.458 . S
U566 C569 2.984 . S
U566 C570 2.847 . S
U566 C583 2.882 . S
U566 O584 2.441 . S
U566 O585 2.420 . S
U566 O586 2.455 . S
U566 O587 2.449 . S
O567 U566 2.454 . S
O567 C569 1.353 . S
O568 U566 2.458 . S
O568 C569 1.286 . S
C569 U566 2.984 . S
C569 O567 1.353 . S
C569 O568 1.286 . S
C569 C571 1.363 . S
C570 C560 1.465 . S
C570 U566 2.847 . S
C570 O584 1.249 . S
C570 O585 1.202 . S
C571 C569 1.363 . S
C571 C573 1.408 . S
C571 C576 1.342 . S
C572 C573 1.310 . S
C572 C575 1.461 . S
C572 H592 0.932 . S
C573 C571 1.408 . S
C573 C572 1.310 . S
C573 H593 0.930 . S
C574 C575 1.474 . S
C574 C576 1.285 . S
C574 H594 0.929 . S
C575 C572 1.461 . S
C575 C574 1.474 . S
C576 C571 1.342 . S
C576 C574 1.285 . S
C576 H595 0.930 . S
C577 C580 1.424 . S
C577 C582 1.245 . S
C577 C583 1.428 . S
C578 C581 1.260 . S
C578 C582 1.477 . S
C578 H596 0.932 . S
C579 C580 1.384 . S
C579 C581 1.479 . S
C579 H597 0.929 . S
C580 C577 1.424 . S
C580 C579 1.384 . S
C580 H598 0.928 . S
C581 C578 1.260 . S
C581 C579 1.479 . S
C582 C577 1.245 . S
C582 C578 1.477 . S
C582 H599 0.932 . S
C583 U566 2.882 . S
C583 C577 1.428 . S
C583 O586 1.301 . S
C583 O587 1.282 . S
O584 U566 2.441 . S
O584 C570 1.249 . S
O585 U566 2.420 . S
O585 C570 1.202 . S
O586 U566 2.455 . S
O586 C583 1.301 . S
O587 U566 2.449 . S
O587 C583 1.282 . S
H588 C561 0.931 . S
H589 C563 0.929 . S
H590 C564 0.930 . S
H591 C565 0.931 . S
H592 C572 0.932 . S
H593 C573 0.930 . S
H594 C574 0.929 . S
H595 C576 0.930 . S
H596 C578 0.932 . S
H597 C579 0.929 . S
H598 C580 0.928 . S
H599 C582 0.932 . S
C600 C601 1.264 . S
C600 C605 1.479 . S
C600 C610 1.465 1_545 S
C601 C600 1.264 . S
C601 C603 1.339 . S
C601 H628 0.931 . S
C602 C603 1.395 . S
C602 C604 1.320 . S
C603 C601 1.339 . S
C603 C602 1.395 . S
C603 H629 0.929 . S
C604 C602 1.320 . S
C604 C605 1.405 . S
C604 H630 0.930 . S
C605 C600 1.479 . S
C605 C604 1.405 . S
C605 H631 0.931 1_545 S
U606 O607 2.454 . S
U606 O608 2.458 1_554 S
U606 C609 2.984 1_554 S
U606 C610 2.847 . S
U606 C623 2.882 . S
U606 O624 2.441 . S
U606 O625 2.420 . S
U606 O626 2.455 1_554 S
U606 O627 2.449 . S
O607 U606 2.454 . S
O607 C609 1.353 1_554 S
O608 U606 2.458 1_556 S
O608 C609 1.286 . S
C609 U606 2.984 1_556 S
C609 O607 1.353 1_556 S
C609 O608 1.286 . S
C609 C611 1.363 . S
C610 C600 1.465 1_565 S
C610 U606 2.847 . S
C610 O624 1.249 . S
C610 O625 1.202 . S
C611 C609 1.363 . S
C611 C613 1.408 . S
C611 C616 1.342 . S
C612 C613 1.310 . S
C612 C615 1.461 . S
C612 H632 0.932 . S
C613 C611 1.408 . S
C613 C612 1.310 . S
C613 H633 0.930 . S
C614 C615 1.474 . S
C614 C616 1.285 . S
C614 H634 0.929 . S
C615 C612 1.461 . S
C615 C614 1.474 . S
C616 C611 1.342 . S
C616 C614 1.285 . S
C616 H635 0.930 . S
C617 C620 1.460 . S
C617 C622 1.244 1_554 S
C617 C623 1.409 1_545 S
C618 C621 1.260 . S
C618 C622 1.487 . S
C618 H636 0.932 . S
C619 C620 1.384 . S
C619 C621 1.479 1_554 S
C619 H637 0.929 . S
C620 C617 1.460 . S
C620 C619 1.384 . S
C620 H638 0.928 . S
C621 C618 1.260 . S
C621 C619 1.479 1_556 S
C622 C617 1.244 1_556 S
C622 C618 1.487 . S
C622 H639 0.922 1_545 S
C623 U606 2.882 . S
C623 C617 1.409 1_565 S
C623 O626 1.301 1_554 S
C623 O627 1.282 . S
O624 U606 2.441 . S
O624 C610 1.249 . S
O625 U606 2.420 . S
O625 C610 1.202 . S
O626 U606 2.455 1_556 S
O626 C623 1.301 1_556 S
O627 U606 2.449 . S
O627 C623 1.282 . S
H628 C601 0.931 . S
H629 C603 0.929 . S
H630 C604 0.930 . S
H631 C605 0.931 1_565 S
H632 C612 0.932 . S
H633 C613 0.930 . S
H634 C614 0.929 . S
H635 C616 0.930 . S
H636 C618 0.932 . S
H637 C619 0.929 . S
H638 C620 0.928 . S
H639 C622 0.922 1_565 S
C640 C641 1.264 . S
C640 C645 1.479 . S
C640 C650 1.465 . S
C641 C640 1.264 . S
C641 C643 1.339 . S
C641 H668 0.931 . S
C642 C643 1.395 . S
C642 C644 1.320 . S
C643 C641 1.339 . S
C643 C642 1.395 . S
C643 H669 0.929 . S
C644 C642 1.320 . S
C644 C645 1.405 . S
C644 H670 0.930 . S
C645 C640 1.479 . S
C645 C644 1.405 . S
C645 H671 0.931 . S
U646 O647 2.454 . S
U646 O648 2.458 . S
U646 C649 2.984 . S
U646 C650 2.847 . S
U646 C663 2.882 . S
U646 O664 2.441 . S
U646 O665 2.420 . S
U646 O666 2.455 . S
U646 O667 2.449 . S
O647 U646 2.454 . S
O647 C649 1.353 . S
O648 U646 2.458 . S
O648 C649 1.286 . S
C649 U646 2.984 . S
C649 O647 1.353 . S
C649 O648 1.286 . S
C649 C651 1.363 . S
C650 C640 1.465 . S
C650 U646 2.847 . S
C650 O664 1.249 . S
C650 O665 1.202 . S
C651 C649 1.363 . S
C651 C653 1.408 . S
C651 C656 1.342 . S
C652 C653 1.310 . S
C652 C655 1.461 . S
C652 H672 0.932 . S
C653 C651 1.408 . S
C653 C652 1.310 . S
C653 H673 0.930 . S
C654 C655 1.474 . S
C654 C656 1.285 . S
C654 H674 0.929 . S
C655 C652 1.461 . S
C655 C654 1.474 . S
C656 C651 1.342 . S
C656 C654 1.285 . S
C656 H675 0.930 . S
C657 C660 1.424 . S
C657 C662 1.245 . S
C657 C663 1.428 . S
C658 C661 1.260 . S
C658 C662 1.477 . S
C658 H676 0.932 . S
C659 C660 1.384 . S
C659 C661 1.479 . S
C659 H677 0.929 . S
C660 C657 1.424 . S
C660 C659 1.384 . S
C660 H678 0.928 . S
C661 C658 1.260 . S
C661 C659 1.479 . S
C662 C657 1.245 . S
C662 C658 1.477 . S
C662 H679 0.932 . S
C663 U646 2.882 . S
C663 C657 1.428 . S
C663 O666 1.301 . S
C663 O667 1.282 . S
O664 U646 2.441 . S
O664 C650 1.249 . S
O665 U646 2.420 . S
O665 C650 1.202 . S
O666 U646 2.455 . S
O666 C663 1.301 . S
O667 U646 2.449 . S
O667 C663 1.282 . S
H668 C641 0.931 . S
H669 C643 0.929 . S
H670 C644 0.930 . S
H671 C645 0.931 . S
H672 C652 0.932 . S
H673 C653 0.930 . S
H674 C654 0.929 . S
H675 C656 0.930 . S
H676 C658 0.932 . S
H677 C659 0.929 . S
H678 C660 0.928 . S
H679 C662 0.932 . S
C680 C681 1.264 . S
C680 C685 1.479 1_554 S
C680 C690 1.465 . S
C681 C680 1.264 . S
C681 C683 1.339 . S
C681 H708 0.931 . S
C682 C683 1.395 1_556 S
C682 C684 1.320 . S
C683 C681 1.339 . S
C683 C682 1.395 1_554 S
C683 H709 0.929 . S
C684 C682 1.320 . S
C684 C685 1.405 . S
C684 H710 0.930 . S
C685 C680 1.479 1_556 S
C685 C684 1.405 . S
C685 H711 0.931 . S
U686 O687 2.454 1_554 S
U686 O688 2.458 . S
U686 C689 2.984 1_554 S
U686 C690 2.847 . S
U686 C703 2.882 . S
U686 O704 2.441 1_554 S
U686 O705 2.420 . S
U686 O706 2.455 . S
U686 O707 2.449 . S
O687 U686 2.454 1_556 S
O687 C689 1.353 . S
O688 U686 2.458 . S
O688 C689 1.286 1_554 S
C689 U686 2.984 1_556 S
C689 O687 1.353 . S
C689 O688 1.286 1_556 S
C689 C691 1.363 . S
C690 C680 1.465 . S
C690 U686 2.847 . S
C690 O704 1.249 1_554 S
C690 O705 1.202 . S
C691 C689 1.363 . S
C691 C693 1.408 . S
C691 C696 1.342 . S
C692 C693 1.310 . S
C692 C695 1.461 . S
C692 H712 0.932 . S
C693 C691 1.408 . S
C693 C692 1.310 . S
C693 H713 0.930 . S
C694 C695 1.474 . S
C694 C696 1.285 . S
C694 H714 0.929 . S
C695 C692 1.461 . S
C695 C694 1.474 . S
C696 C691 1.342 . S
C696 C694 1.285 . S
C696 H715 0.930 . S
C697 C700 1.424 . S
C697 C702 1.245 . S
C697 C703 1.428 . S
C698 C701 1.260 . S
C698 C702 1.477 . S
C698 H716 0.932 . S
C699 C700 1.384 . S
C699 C701 1.479 . S
C699 H717 0.929 . S
C700 C697 1.424 . S
C700 C699 1.384 . S
C700 H718 0.928 . S
C701 C698 1.260 . S
C701 C699 1.479 . S
C702 C697 1.245 . S
C702 C698 1.477 . S
C702 H719 0.932 . S
C703 U686 2.882 . S
C703 C697 1.428 . S
C703 O706 1.301 . S
C703 O707 1.282 . S
O704 U686 2.441 1_556 S
O704 C690 1.249 1_556 S
O705 U686 2.420 . S
O705 C690 1.202 . S
O706 U686 2.455 . S
O706 C703 1.301 . S
O707 U686 2.449 . S
O707 C703 1.282 . S
H708 C681 0.931 . S
H709 C683 0.929 . S
H710 C684 0.930 . S
H711 C685 0.931 . S
H712 C692 0.932 . S
H713 C693 0.930 . S
H714 C694 0.929 . S
H715 C696 0.930 . S
H716 C698 0.932 . S
H717 C699 0.929 . S
H718 C700 0.928 . S
H719 C702 0.932 . S
C720 C721 1.264 . S
C720 C725 1.479 . S
C720 C730 1.465 . S
C721 C720 1.264 . S
C721 C723 1.339 . S
C721 H748 0.931 . S
C722 C723 1.395 . S
C722 C724 1.320 . S
C723 C721 1.339 . S
C723 C722 1.395 . S
C723 H749 0.929 . S
C724 C722 1.320 . S
C724 C725 1.405 . S
C724 H750 0.930 . S
C725 C720 1.479 . S
C725 C724 1.405 . S
C725 H751 0.931 . S
U726 O727 2.454 . S
U726 O728 2.458 . S
U726 C729 2.984 . S
U726 C730 2.847 . S
U726 C743 2.882 . S
U726 O744 2.441 . S
U726 O745 2.420 . S
U726 O746 2.455 . S
U726 O747 2.449 . S
O727 U726 2.454 . S
O727 C729 1.353 . S
O728 U726 2.458 . S
O728 C729 1.286 . S
C729 U726 2.984 . S
C729 O727 1.353 . S
C729 O728 1.286 . S
C729 C731 1.363 . S
C730 C720 1.465 . S
C730 U726 2.847 . S
C730 O744 1.249 . S
C730 O745 1.202 . S
C731 C729 1.363 . S
C731 C733 1.408 . S
C731 C736 1.342 . S
C732 C733 1.310 . S
C732 C735 1.461 . S
C732 H752 0.932 . S
C733 C731 1.408 . S
C733 C732 1.310 . S
C733 H753 0.930 . S
C734 C735 1.474 . S
C734 C736 1.285 . S
C734 H754 0.929 . S
C735 C732 1.461 . S
C735 C734 1.474 . S
C736 C731 1.342 . S
C736 C734 1.285 . S
C736 H755 0.930 . S
C737 C740 1.424 . S
C737 C742 1.245 . S
C737 C743 1.428 . S
C738 C741 1.260 . S
C738 C742 1.477 . S
C738 H756 0.932 . S
C739 C740 1.384 . S
C739 C741 1.479 . S
C739 H757 0.929 . S
C740 C737 1.424 . S
C740 C739 1.384 . S
C740 H758 0.928 . S
C741 C738 1.260 . S
C741 C739 1.479 . S
C742 C737 1.245 . S
C742 C738 1.477 . S
C742 H759 0.932 . S
C743 U726 2.882 . S
C743 C737 1.428 . S
C743 O746 1.301 . S
C743 O747 1.282 . S
O744 U726 2.441 . S
O744 C730 1.249 . S
O745 U726 2.420 . S
O745 C730 1.202 . S
O746 U726 2.455 . S
O746 C743 1.301 . S
O747 U726 2.449 . S
O747 C743 1.282 . S
H748 C721 0.931 . S
H749 C723 0.929 . S
H750 C724 0.930 . S
H751 C725 0.931 . S
H752 C732 0.932 . S
H753 C733 0.930 . S
H754 C734 0.929 . S
H755 C736 0.930 . S
H756 C738 0.932 . S
H757 C739 0.929 . S
H758 C740 0.928 . S
H759 C742 0.932 . S
C760 C761 1.264 . S
C760 C765 1.479 . S
C760 C770 1.465 . S
C761 C760 1.264 . S
C761 C763 1.339 . S
C761 H788 0.931 . S
C762 C763 1.395 . S
C762 C764 1.320 . S
C763 C761 1.339 . S
C763 C762 1.395 . S
C763 H789 0.929 . S
C764 C762 1.320 . S
C764 C765 1.405 . S
C764 H790 0.930 . S
C765 C760 1.479 . S
C765 C764 1.405 . S
C765 H791 0.931 . S
U766 O767 2.454 . S
U766 O768 2.458 . S
U766 C769 2.984 . S
U766 C770 2.847 . S
U766 C783 2.882 . S
U766 O784 2.441 . S
U766 O785 2.420 . S
U766 O786 2.455 . S
U766 O787 2.449 . S
O767 U766 2.454 . S
O767 C769 1.353 . S
O768 U766 2.458 . S
O768 C769 1.286 . S
C769 U766 2.984 . S
C769 O767 1.353 . S
C769 O768 1.286 . S
C769 C771 1.363 . S
C770 C760 1.465 . S
C770 U766 2.847 . S
C770 O784 1.249 . S
C770 O785 1.202 . S
C771 C769 1.363 . S
C771 C773 1.408 . S
C771 C776 1.342 . S
C772 C773 1.310 . S
C772 C775 1.461 . S
C772 H792 0.932 . S
C773 C771 1.408 . S
C773 C772 1.310 . S
C773 H793 0.930 . S
C774 C775 1.474 . S
C774 C776 1.285 . S
C774 H794 0.929 . S
C775 C772 1.461 . S
C775 C774 1.474 . S
C776 C771 1.342 . S
C776 C774 1.285 . S
C776 H795 0.930 . S
C777 C780 1.424 . S
C777 C782 1.245 . S
C777 C783 1.428 . S
C778 C781 1.260 . S
C778 C782 1.477 . S
C778 H796 0.932 . S
C779 C780 1.384 . S
C779 C781 1.479 . S
C779 H797 0.929 . S
C780 C777 1.424 . S
C780 C779 1.384 . S
C780 H798 0.928 . S
C781 C778 1.260 . S
C781 C779 1.479 . S
C782 C777 1.245 . S
C782 C778 1.477 . S
C782 H799 0.932 . S
C783 U766 2.882 . S
C783 C777 1.428 . S
C783 O786 1.301 . S
C783 O787 1.282 . S
O784 U766 2.441 . S
O784 C770 1.249 . S
O785 U766 2.420 . S
O785 C770 1.202 . S
O786 U766 2.455 . S
O786 C783 1.301 . S
O787 U766 2.449 . S
O787 C783 1.282 . S
H788 C761 0.931 . S
H789 C763 0.929 . S
H790 C764 0.930 . S
H791 C765 0.931 . S
H792 C772 0.932 . S
H793 C773 0.930 . S
H794 C774 0.929 . S
H795 C776 0.930 . S
H796 C778 0.932 . S
H797 C779 0.929 . S
H798 C780 0.928 . S
H799 C782 0.932 . S
C800 C801 1.264 . S
C800 C805 1.479 . S
C800 C810 1.465 . S
C801 C800 1.264 . S
C801 C803 1.339 . S
C801 H828 0.931 . S
C802 C803 1.395 . S
C802 C804 1.320 . S
C803 C801 1.339 . S
C803 C802 1.395 . S
C803 H829 0.929 . S
C804 C802 1.320 . S
C804 C805 1.405 . S
C804 H830 0.930 . S
C805 C800 1.479 . S
C805 C804 1.405 . S
C805 H831 0.931 . S
U806 O807 2.454 . S
U806 O808 2.458 . S
U806 C809 2.984 . S
U806 C810 2.847 . S
U806 C823 2.882 . S
U806 O824 2.441 . S
U806 O825 2.420 . S
U806 O826 2.455 . S
U806 O827 2.449 . S
O807 U806 2.454 . S
O807 C809 1.353 . S
O808 U806 2.458 . S
O808 C809 1.286 . S
C809 U806 2.984 . S
C809 O807 1.353 . S
C809 O808 1.286 . S
C809 C811 1.363 . S
C810 C800 1.465 . S
C810 U806 2.847 . S
C810 O824 1.249 . S
C810 O825 1.202 . S
C811 C809 1.363 . S
C811 C813 1.408 . S
C811 C816 1.342 . S
C812 C813 1.310 . S
C812 C815 1.461 . S
C812 H832 0.932 . S
C813 C811 1.408 . S
C813 C812 1.310 . S
C813 H833 0.930 . S
C814 C815 1.474 . S
C814 C816 1.285 . S
C814 H834 0.929 . S
C815 C812 1.461 . S
C815 C814 1.474 . S
C816 C811 1.342 . S
C816 C814 1.285 . S
C816 H835 0.930 . S
C817 C820 1.424 . S
C817 C822 1.245 . S
C817 C823 1.428 . S
C818 C821 1.260 . S
C818 C822 1.477 . S
C818 H836 0.932 . S
C819 C820 1.384 . S
C819 C821 1.479 . S
C819 H837 0.929 . S
C820 C817 1.424 . S
C820 C819 1.384 . S
C820 H838 0.928 . S
C821 C818 1.260 . S
C821 C819 1.479 . S
C822 C817 1.245 . S
C822 C818 1.477 . S
C822 H839 0.932 . S
C823 U806 2.882 . S
C823 C817 1.428 . S
C823 O826 1.301 . S
C823 O827 1.282 . S
O824 U806 2.441 . S
O824 C810 1.249 . S
O825 U806 2.420 . S
O825 C810 1.202 . S
O826 U806 2.455 . S
O826 C823 1.301 . S
O827 U806 2.449 . S
O827 C823 1.282 . S
H828 C801 0.931 . S
H829 C803 0.929 . S
H830 C804 0.930 . S
H831 C805 0.931 . S
H832 C812 0.932 . S
H833 C813 0.930 . S
H834 C814 0.929 . S
H835 C816 0.930 . S
H836 C818 0.932 . S
H837 C819 0.929 . S
H838 C820 0.928 . S
H839 C822 0.932 . S
C840 C841 1.264 . S
C840 C845 1.479 1_556 S
C840 C850 1.465 . S
C841 C840 1.264 . S
C841 C843 1.339 . S
C841 H868 0.931 . S
C842 C843 1.395 1_554 S
C842 C844 1.320 . S
C843 C841 1.339 . S
C843 C842 1.395 1_556 S
C843 H869 0.929 . S
C844 C842 1.320 . S
C844 C845 1.405 . S
C844 H870 0.930 . S
C845 C840 1.479 1_554 S
C845 C844 1.405 . S
C845 H871 0.931 . S
U846 O847 2.454 1_556 S
U846 O848 2.458 . S
U846 C849 2.984 1_556 S
U846 C850 2.847 . S
U846 C863 2.882 . S
U846 O864 2.441 1_556 S
U846 O865 2.420 . S
U846 O866 2.455 . S
U846 O867 2.449 . S
O847 U846 2.454 1_554 S
O847 C849 1.353 . S
O848 U846 2.458 . S
O848 C849 1.286 1_556 S
C849 U846 2.984 1_554 S
C849 O847 1.353 . S
C849 O848 1.286 1_554 S
C849 C851 1.363 . S
C850 C840 1.465 . S
C850 U846 2.847 . S
C850 O864 1.249 1_556 S
C850 O865 1.202 . S
C851 C849 1.363 . S
C851 C853 1.408 . S
C851 C856 1.342 . S
C852 C853 1.310 . S
C852 C855 1.461 . S
C852 H872 0.932 . S
C853 C851 1.408 . S
C853 C852 1.310 . S
C853 H873 0.930 . S
C854 C855 1.474 . S
C854 C856 1.285 . S
C854 H874 0.929 . S
C855 C852 1.461 . S
C855 C854 1.474 . S
C856 C851 1.342 . S
C856 C854 1.285 . S
C856 H875 0.930 . S
C857 C860 1.424 . S
C857 C862 1.245 . S
C857 C863 1.428 . S
C858 C861 1.260 . S
C858 C862 1.477 . S
C858 H876 0.932 . S
C859 C860 1.384 . S
C859 C861 1.479 . S
C859 H877 0.929 . S
C860 C857 1.424 . S
C860 C859 1.384 . S
C860 H878 0.928 . S
C861 C858 1.260 . S
C861 C859 1.479 . S
C862 C857 1.245 . S
C862 C858 1.477 . S
C862 H879 0.932 . S
C863 U846 2.882 . S
C863 C857 1.428 . S
C863 O866 1.301 . S
C863 O867 1.282 . S
O864 U846 2.441 1_554 S
O864 C850 1.249 1_554 S
O865 U846 2.420 . S
O865 C850 1.202 . S
O866 U846 2.455 . S
O866 C863 1.301 . S
O867 U846 2.449 . S
O867 C863 1.282 . S
H868 C841 0.931 . S
H869 C843 0.929 . S
H870 C844 0.930 . S
H871 C845 0.931 . S
H872 C852 0.932 . S
H873 C853 0.930 . S
H874 C854 0.929 . S
H875 C856 0.930 . S
H876 C858 0.932 . S
H877 C859 0.929 . S
H878 C860 0.928 . S
H879 C862 0.932 . S
C880 C881 1.264 . S
C880 C885 1.479 . S
C880 C890 1.465 . S
C881 C880 1.264 . S
C881 C883 1.339 . S
C881 H908 0.931 . S
C882 C883 1.395 . S
C882 C884 1.320 . S
C883 C881 1.339 . S
C883 C882 1.395 . S
C883 H909 0.929 . S
C884 C882 1.320 . S
C884 C885 1.405 . S
C884 H910 0.930 . S
C885 C880 1.479 . S
C885 C884 1.405 . S
C885 H911 0.931 . S
U886 O887 2.454 . S
U886 O888 2.458 . S
U886 C889 2.984 . S
U886 C890 2.847 . S
U886 C903 2.882 . S
U886 O904 2.441 . S
U886 O905 2.420 . S
U886 O906 2.455 . S
U886 O907 2.449 . S
O887 U886 2.454 . S
O887 C889 1.353 . S
O888 U886 2.458 . S
O888 C889 1.286 . S
C889 U886 2.984 . S
C889 O887 1.353 . S
C889 O888 1.286 . S
C889 C891 1.363 . S
C890 C880 1.465 . S
C890 U886 2.847 . S
C890 O904 1.249 . S
C890 O905 1.202 . S
C891 C889 1.363 . S
C891 C893 1.408 . S
C891 C896 1.342 . S
C892 C893 1.310 . S
C892 C895 1.461 . S
C892 H912 0.932 . S
C893 C891 1.408 . S
C893 C892 1.310 . S
C893 H913 0.930 . S
C894 C895 1.474 . S
C894 C896 1.285 . S
C894 H914 0.929 . S
C895 C892 1.461 . S
C895 C894 1.474 . S
C896 C891 1.342 . S
C896 C894 1.285 . S
C896 H915 0.930 . S
C897 C900 1.424 . S
C897 C902 1.245 . S
C897 C903 1.428 . S
C898 C901 1.260 . S
C898 C902 1.477 . S
C898 H916 0.932 . S
C899 C900 1.384 . S
C899 C901 1.479 . S
C899 H917 0.929 . S
C900 C897 1.424 . S
C900 C899 1.384 . S
C900 H918 0.928 . S
C901 C898 1.260 . S
C901 C899 1.479 . S
C902 C897 1.245 . S
C902 C898 1.477 . S
C902 H919 0.932 . S
C903 U886 2.882 . S
C903 C897 1.428 . S
C903 O906 1.301 . S
C903 O907 1.282 . S
O904 U886 2.441 . S
O904 C890 1.249 . S
O905 U886 2.420 . S
O905 C890 1.202 . S
O906 U886 2.455 . S
O906 C903 1.301 . S
O907 U886 2.449 . S
O907 C903 1.282 . S
H908 C881 0.931 . S
H909 C883 0.929 . S
H910 C884 0.930 . S
H911 C885 0.931 . S
H912 C892 0.932 . S
H913 C893 0.930 . S
H914 C894 0.929 . S
H915 C896 0.930 . S
H916 C898 0.932 . S
H917 C899 0.929 . S
H918 C900 0.928 . S
H919 C902 0.932 . S
C920 C921 1.264 . S
C920 C925 1.479 . S
C920 C930 1.465 . S
C921 C920 1.264 . S
C921 C923 1.339 . S
C921 H948 0.931 . S
C922 C923 1.395 . S
C922 C924 1.320 . S
C923 C921 1.339 . S
C923 C922 1.395 . S
C923 H949 0.929 . S
C924 C922 1.320 . S
C924 C925 1.405 . S
C924 H950 0.930 . S
C925 C920 1.479 . S
C925 C924 1.405 . S
C925 H951 0.931 . S
U926 O927 2.454 . S
U926 O928 2.458 . S
U926 C929 2.984 . S
U926 C930 2.847 . S
U926 C943 2.882 . S
U926 O944 2.441 . S
U926 O945 2.420 . S
U926 O946 2.455 . S
U926 O947 2.449 . S
O927 U926 2.454 . S
O927 C929 1.353 . S
O928 U926 2.458 . S
O928 C929 1.286 . S
C929 U926 2.984 . S
C929 O927 1.353 . S
C929 O928 1.286 . S
C929 C931 1.363 . S
C930 C920 1.465 . S
C930 U926 2.847 . S
C930 O944 1.249 . S
C930 O945 1.202 . S
C931 C929 1.363 . S
C931 C933 1.408 . S
C931 C936 1.342 . S
C932 C933 1.310 . S
C932 C935 1.461 . S
C932 H952 0.932 . S
C933 C931 1.408 . S
C933 C932 1.310 . S
C933 H953 0.930 . S
C934 C935 1.474 . S
C934 C936 1.285 . S
C934 H954 0.929 . S
C935 C932 1.461 . S
C935 C934 1.474 . S
C936 C931 1.342 . S
C936 C934 1.285 . S
C936 H955 0.930 . S
C937 C940 1.424 . S
C937 C942 1.245 . S
C937 C943 1.428 . S
C938 C941 1.260 . S
C938 C942 1.477 . S
C938 H956 0.932 . S
C939 C940 1.384 . S
C939 C941 1.479 . S
C939 H957 0.929 . S
C940 C937 1.424 . S
C940 C939 1.384 . S
C940 H958 0.928 . S
C941 C938 1.260 . S
C941 C939 1.479 . S
C942 C937 1.245 . S
C942 C938 1.477 . S
C942 H959 0.932 . S
C943 U926 2.882 . S
C943 C937 1.428 . S
C943 O946 1.301 . S
C943 O947 1.282 . S
O944 U926 2.441 . S
O944 C930 1.249 . S
O945 U926 2.420 . S
O945 C930 1.202 . S
O946 U926 2.455 . S
O946 C943 1.301 . S
O947 U926 2.449 . S
O947 C943 1.282 . S
H948 C921 0.931 . S
H949 C923 0.929 . S
H950 C924 0.930 . S
H951 C925 0.931 . S
H952 C932 0.932 . S
H953 C933 0.930 . S
H954 C934 0.929 . S
H955 C936 0.930 . S
H956 C938 0.932 . S
H957 C939 0.929 . S
H958 C940 0.928 . S
H959 C942 0.932 . S
C960 C961 1.264 . S
C960 C965 1.479 . S
C960 C970 1.465 . S
C961 C960 1.264 . S
C961 C963 1.339 . S
C961 H988 0.931 . S
C962 C963 1.395 . S
C962 C964 1.320 . S
C963 C961 1.339 . S
C963 C962 1.395 . S
C963 H989 0.929 . S
C964 C962 1.320 . S
C964 C965 1.405 . S
C964 H990 0.930 . S
C965 C960 1.479 . S
C965 C964 1.405 . S
C965 H991 0.931 . S
U966 O967 2.454 . S
U966 O968 2.458 . S
U966 C969 2.984 . S
U966 C970 2.847 . S
U966 C983 2.882 . S
U966 O984 2.441 . S
U966 O985 2.420 . S
U966 O986 2.455 . S
U966 O987 2.449 . S
O967 U966 2.454 . S
O967 C969 1.353 . S
O968 U966 2.458 . S
O968 C969 1.286 . S
C969 U966 2.984 . S
C969 O967 1.353 . S
C969 O968 1.286 . S
C969 C971 1.363 . S
C970 C960 1.465 . S
C970 U966 2.847 . S
C970 O984 1.249 . S
C970 O985 1.202 . S
C971 C969 1.363 . S
C971 C973 1.408 . S
C971 C976 1.342 . S
C972 C973 1.310 . S
C972 C975 1.461 . S
C972 H992 0.932 . S
C973 C971 1.408 . S
C973 C972 1.310 . S
C973 H993 0.930 . S
C974 C975 1.474 . S
C974 C976 1.285 . S
C974 H994 0.929 . S
C975 C972 1.461 . S
C975 C974 1.474 . S
C976 C971 1.342 . S
C976 C974 1.285 . S
C976 H995 0.930 . S
C977 C980 1.424 . S
C977 C982 1.245 . S
C977 C983 1.428 . S
C978 C981 1.260 . S
C978 C982 1.477 . S
C978 H996 0.932 . S
C979 C980 1.384 . S
C979 C981 1.479 . S
C979 H997 0.929 . S
C980 C977 1.424 . S
C980 C979 1.384 . S
C980 H998 0.928 . S
C981 C978 1.260 . S
C981 C979 1.479 . S
C982 C977 1.245 . S
C982 C978 1.477 . S
C982 H999 0.932 . S
C983 U966 2.882 . S
C983 C977 1.428 . S
C983 O986 1.301 . S
C983 O987 1.282 . S
O984 U966 2.441 . S
O984 C970 1.249 . S
O985 U966 2.420 . S
O985 C970 1.202 . S
O986 U966 2.455 . S
O986 C983 1.301 . S
O987 U966 2.449 . S
O987 C983 1.282 . S
H988 C961 0.931 . S
H989 C963 0.929 . S
H990 C964 0.930 . S
H991 C965 0.931 . S
H992 C972 0.932 . S
H993 C973 0.930 . S
H994 C974 0.929 . S
H995 C976 0.930 . S
H996 C978 0.932 . S
H997 C979 0.929 . S
H998 C980 0.928 . S
H999 C982 0.932 . S
C1000 C1001 1.264 . S
C1000 C1005 1.479 . S
C1000 C1010 1.465 . S
C1001 C1000 1.264 . S
C1001 C1003 1.339 . S
C1001 H1028 0.931 . S
C1002 C1003 1.395 . S
C1002 C1004 1.320 . S
C1003 C1001 1.339 . S
C1003 C1002 1.395 . S
C1003 H1029 0.929 . S
C1004 C1002 1.320 . S
C1004 C1005 1.405 . S
C1004 H1030 0.930 . S
C1005 C1000 1.479 . S
C1005 C1004 1.405 . S
C1005 H1031 0.931 . S
U1006 O1007 2.454 . S
U1006 O1008 2.458 1_556 S
U1006 C1009 2.984 1_556 S
U1006 C1010 2.847 . S
U1006 C1023 2.882 . S
U1006 O1024 2.441 . S
U1006 O1025 2.420 . S
U1006 O1026 2.455 1_556 S
U1006 O1027 2.449 . S
O1007 U1006 2.454 . S
O1007 C1009 1.353 1_556 S
O1008 U1006 2.458 1_554 S
O1008 C1009 1.286 . S
C1009 U1006 2.984 1_554 S
C1009 O1007 1.353 1_554 S
C1009 O1008 1.286 . S
C1009 C1011 1.363 . S
C1010 C1000 1.465 . S
C1010 U1006 2.847 . S
C1010 O1024 1.249 . S
C1010 O1025 1.202 . S
C1011 C1009 1.363 . S
C1011 C1013 1.408 . S
C1011 C1016 1.342 . S
C1012 C1013 1.310 . S
C1012 C1015 1.461 . S
C1012 H1032 0.932 . S
C1013 C1011 1.408 . S
C1013 C1012 1.310 . S
C1013 H1033 0.930 . S
C1014 C1015 1.474 . S
C1014 C1016 1.285 . S
C1014 H1034 0.929 . S
C1015 C1012 1.461 . S
C1015 C1014 1.474 . S
C1016 C1011 1.342 . S
C1016 C1014 1.285 . S
C1016 H1035 0.930 . S
C1017 C1020 1.424 . S
C1017 C1022 1.245 1_556 S
C1017 C1023 1.428 . S
C1018 C1021 1.260 . S
C1018 C1022 1.477 . S
C1018 H1036 0.932 . S
C1019 C1020 1.384 . S
C1019 C1021 1.479 1_556 S
C1019 H1037 0.929 . S
C1020 C1017 1.424 . S
C1020 C1019 1.384 . S
C1020 H1038 0.928 . S
C1021 C1018 1.260 . S
C1021 C1019 1.479 1_554 S
C1022 C1017 1.245 1_554 S
C1022 C1018 1.477 . S
C1022 H1039 0.932 . S
C1023 U1006 2.882 . S
C1023 C1017 1.428 . S
C1023 O1026 1.301 1_556 S
C1023 O1027 1.282 . S
O1024 U1006 2.441 . S
O1024 C1010 1.249 . S
O1025 U1006 2.420 . S
O1025 C1010 1.202 . S
O1026 U1006 2.455 1_554 S
O1026 C1023 1.301 1_554 S
O1027 U1006 2.449 . S
O1027 C1023 1.282 . S
H1028 C1001 0.931 . S
H1029 C1003 0.929 . S
H1030 C1004 0.930 . S
H1031 C1005 0.931 . S
H1032 C1012 0.932 . S
H1033 C1013 0.930 . S
H1034 C1014 0.929 . S
H1035 C1016 0.930 . S
H1036 C1018 0.932 . S
H1037 C1019 0.929 . S
H1038 C1020 0.928 . S
H1039 C1022 0.932 . S
C1040 C1041 1.264 . S
C1040 C1045 1.479 . S
C1040 C1050 1.465 . S
C1041 C1040 1.264 . S
C1041 C1043 1.339 . S
C1041 H1068 0.931 . S
C1042 C1043 1.395 . S
C1042 C1044 1.320 . S
C1043 C1041 1.339 . S
C1043 C1042 1.395 . S
C1043 H1069 0.929 . S
C1044 C1042 1.320 . S
C1044 C1045 1.405 . S
C1044 H1070 0.930 . S
C1045 C1040 1.479 . S
C1045 C1044 1.405 . S
C1045 H1071 0.931 . S
U1046 O1047 2.454 . S
U1046 O1048 2.458 . S
U1046 C1049 2.984 . S
U1046 C1050 2.847 . S
U1046 C1063 2.882 . S
U1046 O1064 2.441 . S
U1046 O1065 2.420 . S
U1046 O1066 2.455 . S
U1046 O1067 2.449 . S
O1047 U1046 2.454 . S
O1047 C1049 1.353 . S
O1048 U1046 2.458 . S
O1048 C1049 1.286 . S
C1049 U1046 2.984 . S
C1049 O1047 1.353 . S
C1049 O1048 1.286 . S
C1049 C1051 1.363 . S
C1050 C1040 1.465 . S
C1050 U1046 2.847 . S
C1050 O1064 1.249 . S
C1050 O1065 1.202 . S
C1051 C1049 1.363 . S
C1051 C1053 1.408 . S
C1051 C1056 1.342 . S
C1052 C1053 1.310 . S
C1052 C1055 1.461 . S
C1052 H1072 0.932 . S
C1053 C1051 1.408 . S
C1053 C1052 1.310 . S
C1053 H1073 0.930 . S
C1054 C1055 1.474 . S
C1054 C1056 1.285 . S
C1054 H1074 0.929 . S
C1055 C1052 1.461 . S
C1055 C1054 1.474 . S
C1056 C1051 1.342 . S
C1056 C1054 1.285 . S
C1056 H1075 0.930 . S
C1057 C1060 1.424 . S
C1057 C1062 1.245 . S
C1057 C1063 1.428 . S
C1058 C1061 1.260 . S
C1058 C1062 1.477 . S
C1058 H1076 0.932 . S
C1059 C1060 1.384 . S
C1059 C1061 1.479 . S
C1059 H1077 0.929 . S
C1060 C1057 1.424 . S
C1060 C1059 1.384 . S
C1060 H1078 0.928 . S
C1061 C1058 1.260 . S
C1061 C1059 1.479 . S
C1062 C1057 1.245 . S
C1062 C1058 1.477 . S
C1062 H1079 0.932 . S
C1063 U1046 2.882 . S
C1063 C1057 1.428 . S
C1063 O1066 1.301 . S
C1063 O1067 1.282 . S
O1064 U1046 2.441 . S
O1064 C1050 1.249 . S
O1065 U1046 2.420 . S
O1065 C1050 1.202 . S
O1066 U1046 2.455 . S
O1066 C1063 1.301 . S
O1067 U1046 2.449 . S
O1067 C1063 1.282 . S
H1068 C1041 0.931 . S
H1069 C1043 0.929 . S
H1070 C1044 0.930 . S
H1071 C1045 0.931 . S
H1072 C1052 0.932 . S
H1073 C1053 0.930 . S
H1074 C1054 0.929 . S
H1075 C1056 0.930 . S
H1076 C1058 0.932 . S
H1077 C1059 0.929 . S
H1078 C1060 0.928 . S
H1079 C1062 0.932 . S
C1080 C1081 1.264 . S
C1080 C1085 1.479 . S
C1080 C1090 1.465 . S
C1081 C1080 1.264 . S
C1081 C1083 1.339 . S
C1081 H1108 0.931 . S
C1082 C1083 1.395 . S
C1082 C1084 1.320 . S
C1083 C1081 1.339 . S
C1083 C1082 1.395 . S
C1083 H1109 0.929 . S
C1084 C1082 1.320 . S
C1084 C1085 1.405 . S
C1084 H1110 0.930 . S
C1085 C1080 1.479 . S
C1085 C1084 1.405 . S
C1085 H1111 0.931 . S
U1086 O1087 2.454 . S
U1086 O1088 2.458 . S
U1086 C1089 2.984 . S
U1086 C1090 2.847 . S
U1086 C1103 2.882 . S
U1086 O1104 2.441 . S
U1086 O1105 2.420 . S
U1086 O1106 2.455 . S
U1086 O1107 2.449 . S
O1087 U1086 2.454 . S
O1087 C1089 1.353 . S
O1088 U1086 2.458 . S
O1088 C1089 1.286 . S
C1089 U1086 2.984 . S
C1089 O1087 1.353 . S
C1089 O1088 1.286 . S
C1089 C1091 1.363 . S
C1090 C1080 1.465 . S
C1090 U1086 2.847 . S
C1090 O1104 1.249 . S
C1090 O1105 1.202 . S
C1091 C1089 1.363 . S
C1091 C1093 1.408 . S
C1091 C1096 1.342 . S
C1092 C1093 1.310 . S
C1092 C1095 1.461 . S
C1092 H1112 0.932 . S
C1093 C1091 1.408 . S
C1093 C1092 1.310 . S
C1093 H1113 0.930 . S
C1094 C1095 1.474 . S
C1094 C1096 1.285 . S
C1094 H1114 0.929 . S
C1095 C1092 1.461 . S
C1095 C1094 1.474 . S
C1096 C1091 1.342 . S
C1096 C1094 1.285 . S
C1096 H1115 0.930 . S
C1097 C1100 1.424 . S
C1097 C1102 1.245 . S
C1097 C1103 1.428 . S
C1098 C1101 1.260 . S
C1098 C1102 1.477 . S
C1098 H1116 0.932 . S
C1099 C1100 1.384 . S
C1099 C1101 1.479 . S
C1099 H1117 0.929 . S
C1100 C1097 1.424 . S
C1100 C1099 1.384 . S
C1100 H1118 0.928 . S
C1101 C1098 1.260 . S
C1101 C1099 1.479 . S
C1102 C1097 1.245 . S
C1102 C1098 1.477 . S
C1102 H1119 0.932 . S
C1103 U1086 2.882 . S
C1103 C1097 1.428 . S
C1103 O1106 1.301 . S
C1103 O1107 1.282 . S
O1104 U1086 2.441 . S
O1104 C1090 1.249 . S
O1105 U1086 2.420 . S
O1105 C1090 1.202 . S
O1106 U1086 2.455 . S
O1106 C1103 1.301 . S
O1107 U1086 2.449 . S
O1107 C1103 1.282 . S
H1108 C1081 0.931 . S
H1109 C1083 0.929 . S
H1110 C1084 0.930 . S
H1111 C1085 0.931 . S
H1112 C1092 0.932 . S
H1113 C1093 0.930 . S
H1114 C1094 0.929 . S
H1115 C1096 0.930 . S
H1116 C1098 0.932 . S
H1117 C1099 0.929 . S
H1118 C1100 0.928 . S
H1119 C1102 0.932 . S
C1120 C1121 1.264 . S
C1120 C1125 1.479 . S
C1120 C1130 1.465 . S
C1121 C1120 1.264 . S
C1121 C1123 1.339 . S
C1121 H1148 0.931 . S
C1122 C1123 1.395 . S
C1122 C1124 1.320 . S
C1123 C1121 1.339 . S
C1123 C1122 1.395 . S
C1123 H1149 0.929 . S
C1124 C1122 1.320 . S
C1124 C1125 1.405 . S
C1124 H1150 0.930 . S
C1125 C1120 1.479 . S
C1125 C1124 1.405 . S
C1125 H1151 0.931 . S
U1126 O1127 2.454 . S
U1126 O1128 2.458 . S
U1126 C1129 2.984 . S
U1126 C1130 2.847 . S
U1126 C1143 2.882 . S
U1126 O1144 2.441 . S
U1126 O1145 2.420 . S
U1126 O1146 2.455 . S
U1126 O1147 2.449 . S
O1127 U1126 2.454 . S
O1127 C1129 1.353 . S
O1128 U1126 2.458 . S
O1128 C1129 1.286 . S
C1129 U1126 2.984 . S
C1129 O1127 1.353 . S
C1129 O1128 1.286 . S
C1129 C1131 1.363 . S
C1130 C1120 1.465 . S
C1130 U1126 2.847 . S
C1130 O1144 1.249 . S
C1130 O1145 1.202 . S
C1131 C1129 1.363 . S
C1131 C1133 1.408 . S
C1131 C1136 1.342 . S
C1132 C1133 1.310 . S
C1132 C1135 1.461 . S
C1132 H1152 0.932 . S
C1133 C1131 1.408 . S
C1133 C1132 1.310 . S
C1133 H1153 0.930 . S
C1134 C1135 1.474 . S
C1134 C1136 1.285 . S
C1134 H1154 0.929 . S
C1135 C1132 1.461 . S
C1135 C1134 1.474 . S
C1136 C1131 1.342 . S
C1136 C1134 1.285 . S
C1136 H1155 0.930 . S
C1137 C1140 1.424 . S
C1137 C1142 1.245 . S
C1137 C1143 1.428 . S
C1138 C1141 1.260 . S
C1138 C1142 1.477 . S
C1138 H1156 0.932 . S
C1139 C1140 1.384 . S
C1139 C1141 1.479 . S
C1139 H1157 0.929 . S
C1140 C1137 1.424 . S
C1140 C1139 1.384 . S
C1140 H1158 0.928 . S
C1141 C1138 1.260 . S
C1141 C1139 1.479 . S
C1142 C1137 1.245 . S
C1142 C1138 1.477 . S
C1142 H1159 0.932 . S
C1143 U1126 2.882 . S
C1143 C1137 1.428 . S
C1143 O1146 1.301 . S
C1143 O1147 1.282 . S
O1144 U1126 2.441 . S
O1144 C1130 1.249 . S
O1145 U1126 2.420 . S
O1145 C1130 1.202 . S
O1146 U1126 2.455 . S
O1146 C1143 1.301 . S
O1147 U1126 2.449 . S
O1147 C1143 1.282 . S
H1148 C1121 0.931 . S
H1149 C1123 0.929 . S
H1150 C1124 0.930 . S
H1151 C1125 0.931 . S
H1152 C1132 0.932 . S
H1153 C1133 0.930 . S
H1154 C1134 0.929 . S
H1155 C1136 0.930 . S
H1156 C1138 0.932 . S
H1157 C1139 0.929 . S
H1158 C1140 0.928 . S
H1159 C1142 0.932 . S
C1160 C1161 1.264 1_556 S
C1160 C1165 1.479 . S
C1160 C1170 1.465 1_556 S
C1161 C1160 1.264 1_554 S
C1161 C1163 1.339 . S
C1161 H1188 0.931 . S
C1162 C1163 1.395 1_556 S
C1162 C1164 1.320 . S
C1163 C1161 1.339 . S
C1163 C1162 1.395 1_554 S
C1163 H1189 0.929 . S
C1164 C1162 1.320 . S
C1164 C1165 1.405 . S
C1164 H1190 0.930 . S
C1165 C1160 1.479 . S
C1165 C1164 1.405 . S
C1165 H1191 0.931 . S
U1166 O1167 2.454 1_554 S
U1166 O1168 2.458 . S
U1166 C1169 2.984 1_554 S
U1166 C1170 2.847 . S
U1166 C1183 2.882 . S
U1166 O1184 2.441 1_554 S
U1166 O1185 2.420 . S
U1166 O1186 2.455 . S
U1166 O1187 2.449 . S
O1167 U1166 2.454 1_556 S
O1167 C1169 1.353 . S
O1168 U1166 2.458 . S
O1168 C1169 1.286 1_554 S
C1169 U1166 2.984 1_556 S
C1169 O1167 1.353 . S
C1169 O1168 1.286 1_556 S
C1169 C1171 1.363 . S
C1170 C1160 1.465 1_554 S
C1170 U1166 2.847 . S
C1170 O1184 1.249 1_554 S
C1170 O1185 1.202 . S
C1171 C1169 1.363 . S
C1171 C1173 1.408 . S
C1171 C1176 1.342 . S
C1172 C1173 1.310 . S
C1172 C1175 1.461 . S
C1172 H1192 0.932 . S
C1173 C1171 1.408 . S
C1173 C1172 1.310 . S
C1173 H1193 0.930 . S
C1174 C1175 1.474 . S
C1174 C1176 1.285 . S
C1174 H1194 0.929 . S
C1175 C1172 1.461 . S
C1175 C1174 1.474 . S
C1176 C1171 1.342 . S
C1176 C1174 1.285 . S
C1176 H1195 0.930 . S
C1177 C1180 1.424 . S
C1177 C1182 1.245 . S
C1177 C1183 1.428 . S
C1178 C1181 1.260 . S
C1178 C1182 1.477 . S
C1178 H1196 0.932 . S
C1179 C1180 1.384 . S
C1179 C1181 1.479 . S
C1179 H1197 0.929 . S
C1180 C1177 1.424 . S
C1180 C1179 1.384 . S
C1180 H1198 0.928 . S
C1181 C1178 1.260 . S
C1181 C1179 1.479 . S
C1182 C1177 1.245 . S
C1182 C1178 1.477 . S
C1182 H1199 0.932 . S
C1183 U1166 2.882 . S
C1183 C1177 1.428 . S
C1183 O1186 1.301 . S
C1183 O1187 1.282 . S
O1184 U1166 2.441 1_556 S
O1184 C1170 1.249 1_556 S
O1185 U1166 2.420 . S
O1185 C1170 1.202 . S
O1186 U1166 2.455 . S
O1186 C1183 1.301 . S
O1187 U1166 2.449 . S
O1187 C1183 1.282 . S
H1188 C1161 0.931 . S
H1189 C1163 0.929 . S
H1190 C1164 0.930 . S
H1191 C1165 0.931 . S
H1192 C1172 0.932 . S
H1193 C1173 0.930 . S
H1194 C1174 0.929 . S
H1195 C1176 0.930 . S
H1196 C1178 0.932 . S
H1197 C1179 0.929 . S
H1198 C1180 0.928 . S
H1199 C1182 0.932 . S
C1200 C1201 1.264 . S
C1200 C1205 1.479 . S
C1200 C1210 1.465 . S
C1201 C1200 1.264 . S
C1201 C1203 1.339 . S
C1201 H1228 0.931 . S
C1202 C1203 1.395 . S
C1202 C1204 1.320 . S
C1203 C1201 1.339 . S
C1203 C1202 1.395 . S
C1203 H1229 0.929 . S
C1204 C1202 1.320 . S
C1204 C1205 1.405 . S
C1204 H1230 0.930 . S
C1205 C1200 1.479 . S
C1205 C1204 1.405 . S
C1205 H1231 0.931 . S
U1206 O1207 2.454 . S
U1206 O1208 2.458 . S
U1206 C1209 2.984 . S
U1206 C1210 2.847 . S
U1206 C1223 2.882 . S
U1206 O1224 2.441 . S
U1206 O1225 2.420 . S
U1206 O1226 2.455 . S
U1206 O1227 2.449 . S
O1207 U1206 2.454 . S
O1207 C1209 1.353 . S
O1208 U1206 2.458 . S
O1208 C1209 1.286 . S
C1209 U1206 2.984 . S
C1209 O1207 1.353 . S
C1209 O1208 1.286 . S
C1209 C1211 1.363 . S
C1210 C1200 1.465 . S
C1210 U1206 2.847 . S
C1210 O1224 1.249 . S
C1210 O1225 1.202 . S
C1211 C1209 1.363 . S
C1211 C1213 1.408 . S
C1211 C1216 1.342 . S
C1212 C1213 1.310 . S
C1212 C1215 1.461 . S
C1212 H1232 0.932 . S
C1213 C1211 1.408 . S
C1213 C1212 1.310 . S
C1213 H1233 0.930 . S
C1214 C1215 1.474 . S
C1214 C1216 1.285 . S
C1214 H1234 0.929 . S
C1215 C1212 1.461 . S
C1215 C1214 1.474 . S
C1216 C1211 1.342 . S
C1216 C1214 1.285 . S
C1216 H1235 0.930 . S
C1217 C1220 1.424 . S
C1217 C1222 1.245 . S
C1217 C1223 1.428 . S
C1218 C1221 1.260 . S
C1218 C1222 1.477 . S
C1218 H1236 0.932 . S
C1219 C1220 1.384 . S
C1219 C1221 1.479 . S
C1219 H1237 0.929 . S
C1220 C1217 1.424 . S
C1220 C1219 1.384 . S
C1220 H1238 0.928 . S
C1221 C1218 1.260 . S
C1221 C1219 1.479 . S
C1222 C1217 1.245 . S
C1222 C1218 1.477 . S
C1222 H1239 0.932 . S
C1223 U1206 2.882 . S
C1223 C1217 1.428 . S
C1223 O1226 1.301 . S
C1223 O1227 1.282 . S
O1224 U1206 2.441 . S
O1224 C1210 1.249 . S
O1225 U1206 2.420 . S
O1225 C1210 1.202 . S
O1226 U1206 2.455 . S
O1226 C1223 1.301 . S
O1227 U1206 2.449 . S
O1227 C1223 1.282 . S
H1228 C1201 0.931 . S
H1229 C1203 0.929 . S
H1230 C1204 0.930 . S
H1231 C1205 0.931 . S
H1232 C1212 0.932 . S
H1233 C1213 0.930 . S
H1234 C1214 0.929 . S
H1235 C1216 0.930 . S
H1236 C1218 0.932 . S
H1237 C1219 0.929 . S
H1238 C1220 0.928 . S
H1239 C1222 0.932 . S
C1240 C1241 1.264 . S
C1240 C1245 1.479 . S
C1240 C1250 1.465 . S
C1241 C1240 1.264 . S
C1241 C1243 1.339 . S
C1241 H1268 0.931 . S
C1242 C1243 1.395 . S
C1242 C1244 1.320 . S
C1243 C1241 1.339 . S
C1243 C1242 1.395 . S
C1243 H1269 0.929 . S
C1244 C1242 1.320 . S
C1244 C1245 1.405 . S
C1244 H1270 0.930 . S
C1245 C1240 1.479 . S
C1245 C1244 1.405 . S
C1245 H1271 0.931 . S
U1246 O1247 2.454 . S
U1246 O1248 2.458 . S
U1246 C1249 2.984 . S
U1246 C1250 2.847 . S
U1246 C1263 2.882 . S
U1246 O1264 2.441 . S
U1246 O1265 2.420 . S
U1246 O1266 2.455 . S
U1246 O1267 2.449 . S
O1247 U1246 2.454 . S
O1247 C1249 1.353 . S
O1248 U1246 2.458 . S
O1248 C1249 1.286 . S
C1249 U1246 2.984 . S
C1249 O1247 1.353 . S
C1249 O1248 1.286 . S
C1249 C1251 1.363 . S
C1250 C1240 1.465 . S
C1250 U1246 2.847 . S
C1250 O1264 1.249 . S
C1250 O1265 1.202 . S
C1251 C1249 1.363 . S
C1251 C1253 1.408 . S
C1251 C1256 1.342 . S
C1252 C1253 1.310 . S
C1252 C1255 1.461 . S
C1252 H1272 0.932 . S
C1253 C1251 1.408 . S
C1253 C1252 1.310 . S
C1253 H1273 0.930 . S
C1254 C1255 1.474 . S
C1254 C1256 1.285 . S
C1254 H1274 0.929 . S
C1255 C1252 1.461 . S
C1255 C1254 1.474 . S
C1256 C1251 1.342 . S
C1256 C1254 1.285 . S
C1256 H1275 0.930 . S
C1257 C1260 1.424 . S
C1257 C1262 1.245 . S
C1257 C1263 1.428 . S
C1258 C1261 1.260 . S
C1258 C1262 1.477 . S
C1258 H1276 0.932 . S
C1259 C1260 1.384 . S
C1259 C1261 1.479 . S
C1259 H1277 0.929 . S
C1260 C1257 1.424 . S
C1260 C1259 1.384 . S
C1260 H1278 0.928 . S
C1261 C1258 1.260 . S
C1261 C1259 1.479 . S
C1262 C1257 1.245 . S
C1262 C1258 1.477 . S
C1262 H1279 0.932 . S
C1263 U1246 2.882 . S
C1263 C1257 1.428 . S
C1263 O1266 1.301 . S
C1263 O1267 1.282 . S
O1264 U1246 2.441 . S
O1264 C1250 1.249 . S
O1265 U1246 2.420 . S
O1265 C1250 1.202 . S
O1266 U1246 2.455 . S
O1266 C1263 1.301 . S
O1267 U1246 2.449 . S
O1267 C1263 1.282 . S
H1268 C1241 0.931 . S
H1269 C1243 0.929 . S
H1270 C1244 0.930 . S
H1271 C1245 0.931 . S
H1272 C1252 0.932 . S
H1273 C1253 0.930 . S
H1274 C1254 0.929 . S
H1275 C1256 0.930 . S
H1276 C1258 0.932 . S
H1277 C1259 0.929 . S
H1278 C1260 0.928 . S
H1279 C1262 0.932 . S
C1280 C1281 1.369 . S
C1280 C1282 1.419 . S
C1280 H1284 0.930 . S
C1281 C1280 1.369 . S
C1281 C1290 1.429 . S
C1282 C1280 1.419 . S
C1282 C1283 1.363 . S
C1282 H1285 0.929 . S
C1283 C1282 1.363 . S
C1283 C1289 1.428 . S
H1284 C1280 0.930 . S
H1285 C1282 0.929 . S
S1286 N1287 1.613 . S
S1286 N1288 1.610 . S
N1287 S1286 1.613 . S
N1287 C1290 1.350 . S
N1288 S1286 1.610 . S
N1288 C1289 1.351 . S
C1289 C1283 1.428 . S
C1289 N1288 1.351 . S
C1289 C1290 1.434 . S
C1290 C1281 1.429 . S
C1290 N1287 1.350 . S
C1290 C1289 1.434 . S
C1291 C1292 1.369 1_565 S
C1291 C1293 1.419 . S
C1291 H1295 0.930 . S
C1292 C1291 1.369 1_545 S
C1292 C1301 1.429 . S
C1293 C1291 1.419 . S
C1293 C1294 1.363 . S
C1293 H1296 0.929 . S
C1294 C1293 1.363 . S
C1294 C1300 1.428 1_565 S
H1295 C1291 0.930 . S
H1296 C1293 0.929 . S
S1297 N1298 1.613 . S
S1297 N1299 1.610 . S
N1298 S1297 1.613 . S
N1298 C1301 1.350 . S
N1299 S1297 1.610 . S
N1299 C1300 1.351 . S
C1300 C1294 1.428 1_545 S
C1300 N1299 1.351 . S
C1300 C1301 1.434 . S
C1301 C1292 1.429 . S
C1301 N1298 1.350 . S
C1301 C1300 1.434 . S
C1302 C1303 1.369 . S
C1302 C1304 1.417 . S
C1302 H1306 0.930 . S
C1303 C1302 1.369 . S
C1303 C1312 1.429 1_556 S
C1304 C1302 1.417 . S
C1304 C1305 1.365 1_556 S
C1304 H1307 0.929 . S
C1305 C1304 1.365 1_554 S
C1305 C1311 1.428 . S
H1306 C1302 0.930 . S
H1307 C1304 0.929 . S
S1308 N1309 1.613 . S
S1308 N1310 1.610 . S
N1309 S1308 1.613 . S
N1309 C1312 1.350 . S
N1310 S1308 1.610 . S
N1310 C1311 1.351 . S
C1311 C1305 1.428 . S
C1311 N1310 1.351 . S
C1311 C1312 1.434 . S
C1312 C1303 1.429 1_554 S
C1312 N1309 1.350 . S
C1312 C1311 1.434 . S
C1313 C1314 1.369 . S
C1313 C1315 1.419 . S
C1313 H1317 0.930 . S
C1314 C1313 1.369 . S
C1314 C1323 1.429 1_565 S
C1315 C1313 1.419 . S
C1315 C1316 1.363 1_565 S
C1315 H1318 0.929 . S
C1316 C1315 1.363 1_545 S
C1316 C1322 1.428 . S
H1317 C1313 0.930 . S
H1318 C1315 0.929 . S
S1319 N1320 1.613 . S
S1319 N1321 1.610 . S
N1320 S1319 1.613 . S
N1320 C1323 1.350 . S
N1321 S1319 1.610 . S
N1321 C1322 1.351 . S
C1322 C1316 1.428 . S
C1322 N1321 1.351 . S
C1322 C1323 1.434 . S
C1323 C1314 1.429 1_545 S
C1323 N1320 1.350 . S
C1323 C1322 1.434 . S
C1324 C1325 1.369 . S
C1324 C1326 1.419 . S
C1324 H1328 0.930 . S
C1325 C1324 1.369 . S
C1325 C1334 1.429 . S
C1326 C1324 1.419 . S
C1326 C1327 1.363 . S
C1326 H1329 0.929 . S
C1327 C1326 1.363 . S
C1327 C1333 1.428 . S
H1328 C1324 0.930 . S
H1329 C1326 0.929 . S
S1330 N1331 1.613 . S
S1330 N1332 1.610 . S
N1331 S1330 1.613 . S
N1331 C1334 1.350 . S
N1332 S1330 1.610 . S
N1332 C1333 1.351 . S
C1333 C1327 1.428 . S
C1333 N1332 1.351 . S
C1333 C1334 1.434 . S
C1334 C1325 1.429 . S
C1334 N1331 1.350 . S
C1334 C1333 1.434 . S
C1335 C1336 1.369 . S
C1335 C1337 1.419 . S
C1335 H1339 0.930 . S
C1336 C1335 1.369 . S
C1336 C1345 1.429 1_545 S
C1337 C1335 1.419 . S
C1337 C1338 1.363 1_545 S
C1337 H1340 0.929 . S
C1338 C1337 1.363 1_565 S
C1338 C1344 1.428 . S
H1339 C1335 0.930 . S
H1340 C1337 0.929 . S
S1341 N1342 1.613 . S
S1341 N1343 1.610 . S
N1342 S1341 1.613 . S
N1342 C1345 1.350 . S
N1343 S1341 1.610 . S
N1343 C1344 1.351 . S
C1344 C1338 1.428 . S
C1344 N1343 1.351 . S
C1344 C1345 1.434 . S
C1345 C1336 1.429 1_565 S
C1345 N1342 1.350 . S
C1345 C1344 1.434 . S
C1346 C1347 1.369 . S
C1346 C1348 1.419 1_556 S
C1346 H1350 0.930 . S
C1347 C1346 1.369 . S
C1347 C1356 1.429 1_556 S
C1348 C1346 1.419 1_554 S
C1348 C1349 1.363 . S
C1348 H1351 0.929 . S
C1349 C1348 1.363 . S
C1349 C1355 1.428 . S
H1350 C1346 0.930 . S
H1351 C1348 0.929 . S
S1352 N1353 1.613 . S
S1352 N1354 1.610 . S
N1353 S1352 1.613 . S
N1353 C1356 1.350 . S
N1354 S1352 1.610 . S
N1354 C1355 1.351 . S
C1355 C1349 1.428 . S
C1355 N1354 1.351 . S
C1355 C1356 1.434 . S
C1356 C1347 1.429 1_554 S
C1356 N1353 1.350 . S
C1356 C1355 1.434 . S
C1357 C1358 1.369 1_545 S
C1357 C1359 1.419 . S
C1357 H1361 0.930 . S
C1358 C1357 1.369 1_565 S
C1358 C1367 1.429 . S
C1359 C1357 1.419 . S
C1359 C1360 1.363 . S
C1359 H1362 0.929 . S
C1360 C1359 1.363 . S
C1360 C1366 1.428 1_545 S
H1361 C1357 0.930 . S
H1362 C1359 0.929 . S
S1363 N1364 1.613 . S
S1363 N1365 1.610 . S
N1364 S1363 1.613 . S
N1364 C1367 1.350 . S
N1365 S1363 1.610 . S
N1365 C1366 1.351 . S
C1366 C1360 1.428 1_565 S
C1366 N1365 1.351 . S
C1366 C1367 1.434 . S
C1367 C1358 1.429 . S
C1367 N1364 1.350 . S
C1367 C1366 1.434 . S
C1368 C1369 1.369 . S
C1368 C1370 1.419 1_554 S
C1368 H1372 0.930 . S
C1369 C1368 1.369 . S
C1369 C1378 1.429 . S
C1370 C1368 1.419 1_556 S
C1370 C1371 1.363 . S
C1370 H1373 0.929 . S
C1371 C1370 1.363 . S
C1371 C1377 1.428 . S
H1372 C1368 0.930 . S
H1373 C1370 0.929 . S
S1374 N1375 1.613 1_556 S
S1374 N1376 1.610 . S
N1375 S1374 1.613 1_554 S
N1375 C1378 1.350 . S
N1376 S1374 1.610 . S
N1376 C1377 1.351 . S
C1377 C1371 1.428 . S
C1377 N1376 1.351 . S
C1377 C1378 1.434 1_556 S
C1378 C1369 1.429 . S
C1378 N1375 1.350 . S
C1378 C1377 1.434 1_554 S
C1379 C1380 1.369 . S
C1379 C1381 1.419 . S
C1379 H1383 0.930 . S
C1380 C1379 1.369 . S
C1380 C1389 1.429 . S
C1381 C1379 1.419 . S
C1381 C1382 1.363 . S
C1381 H1384 0.929 . S
C1382 C1381 1.363 . S
C1382 C1388 1.428 . S
H1383 C1379 0.930 . S
H1384 C1381 0.929 . S
S1385 N1386 1.613 . S
S1385 N1387 1.610 . S
N1386 S1385 1.613 . S
N1386 C1389 1.350 . S
N1387 S1385 1.610 . S
N1387 C1388 1.351 . S
C1388 C1382 1.428 . S
C1388 N1387 1.351 . S
C1388 C1389 1.434 . S
C1389 C1380 1.429 . S
C1389 N1386 1.350 . S
C1389 C1388 1.434 . S
C1390 C1391 1.369 . S
C1390 C1392 1.419 . S
C1390 H1394 0.930 . S
C1391 C1390 1.369 . S
C1391 C1400 1.429 . S
C1392 C1390 1.419 . S
C1392 C1393 1.363 . S
C1392 H1395 0.929 . S
C1393 C1392 1.363 . S
C1393 C1399 1.428 . S
H1394 C1390 0.930 . S
H1395 C1392 0.929 . S
S1396 N1397 1.613 . S
S1396 N1398 1.610 . S
N1397 S1396 1.613 . S
N1397 C1400 1.350 . S
N1398 S1396 1.610 . S
N1398 C1399 1.351 . S
C1399 C1393 1.428 . S
C1399 N1398 1.351 . S
C1399 C1400 1.434 . S
C1400 C1391 1.429 . S
C1400 N1397 1.350 . S
C1400 C1399 1.434 . S
C1401 C1402 1.369 . S
C1401 C1403 1.419 . S
C1401 H1405 0.930 . S
C1402 C1401 1.369 . S
C1402 C1411 1.429 . S
C1403 C1401 1.419 . S
C1403 C1404 1.363 . S
C1403 H1406 0.929 . S
C1404 C1403 1.363 . S
C1404 C1410 1.428 . S
H1405 C1401 0.930 . S
H1406 C1403 0.929 . S
S1407 N1408 1.613 . S
S1407 N1409 1.610 . S
N1408 S1407 1.613 . S
N1408 C1411 1.350 . S
N1409 S1407 1.610 . S
N1409 C1410 1.351 . S
C1410 C1404 1.428 . S
C1410 N1409 1.351 . S
C1410 C1411 1.434 . S
C1411 C1402 1.429 . S
C1411 N1408 1.350 . S
C1411 C1410 1.434 . S
C1412 C1413 1.369 . S
C1412 C1414 1.419 1_556 S
C1412 H1416 0.930 . S
C1413 C1412 1.369 . S
C1413 C1422 1.429 . S
C1414 C1412 1.419 1_554 S
C1414 C1415 1.363 . S
C1414 H1417 0.929 . S
C1415 C1414 1.363 . S
C1415 C1421 1.428 . S
H1416 C1412 0.930 . S
H1417 C1414 0.929 . S
S1418 N1419 1.613 . S
S1418 N1420 1.610 1_556 S
N1419 S1418 1.613 . S
N1419 C1422 1.350 . S
N1420 S1418 1.610 1_554 S
N1420 C1421 1.351 . S
C1421 C1415 1.428 . S
C1421 N1420 1.351 . S
C1421 C1422 1.434 1_554 S
C1422 C1413 1.429 . S
C1422 N1419 1.350 . S
C1422 C1421 1.434 1_556 S
C1423 C1424 1.369 . S
C1423 C1425 1.419 . S
C1423 H1427 0.930 . S
C1424 C1423 1.369 . S
C1424 C1433 1.429 . S
C1425 C1423 1.419 . S
C1425 C1426 1.363 . S
C1425 H1428 0.929 . S
C1426 C1425 1.363 . S
C1426 C1432 1.428 . S
H1427 C1423 0.930 . S
H1428 C1425 0.929 . S
S1429 N1430 1.613 . S
S1429 N1431 1.610 . S
N1430 S1429 1.613 . S
N1430 C1433 1.350 . S
N1431 S1429 1.610 . S
N1431 C1432 1.351 . S
C1432 C1426 1.428 . S
C1432 N1431 1.351 . S
C1432 C1433 1.434 . S
C1433 C1424 1.429 . S
C1433 N1430 1.350 . S
C1433 C1432 1.434 . S
C1434 C1435 1.369 . S
C1434 C1436 1.419 . S
C1434 H1438 0.930 . S
C1435 C1434 1.369 . S
C1435 C1444 1.429 . S
C1436 C1434 1.419 . S
C1436 C1437 1.363 . S
C1436 H1439 0.929 . S
C1437 C1436 1.363 . S
C1437 C1443 1.428 . S
H1438 C1434 0.930 . S
H1439 C1436 0.929 . S
S1440 N1441 1.613 . S
S1440 N1442 1.610 . S
N1441 S1440 1.613 . S
N1441 C1444 1.350 . S
N1442 S1440 1.610 . S
N1442 C1443 1.351 . S
C1443 C1437 1.428 . S
C1443 N1442 1.351 . S
C1443 C1444 1.434 . S
C1444 C1435 1.429 . S
C1444 N1441 1.350 . S
C1444 C1443 1.434 . S
C1445 C1446 1.369 . S
C1445 C1447 1.419 . S
C1445 H1449 0.930 . S
C1446 C1445 1.369 . S
C1446 C1455 1.429 . S
C1447 C1445 1.419 . S
C1447 C1448 1.363 . S
C1447 H1450 0.929 . S
C1448 C1447 1.363 . S
C1448 C1454 1.428 . S
H1449 C1445 0.930 . S
H1450 C1447 0.929 . S
S1451 N1452 1.613 . S
S1451 N1453 1.610 . S
N1452 S1451 1.613 . S
N1452 C1455 1.350 . S
N1453 S1451 1.610 . S
N1453 C1454 1.351 . S
C1454 C1448 1.428 . S
C1454 N1453 1.351 . S
C1454 C1455 1.434 . S
C1455 C1446 1.429 . S
C1455 N1452 1.350 . S
C1455 C1454 1.434 . S
C1456 C1457 1.369 . S
C1456 C1458 1.419 . S
C1456 H1460 0.930 . S
C1457 C1456 1.369 . S
C1457 C1466 1.429 . S
C1458 C1456 1.419 . S
C1458 C1459 1.363 . S
C1458 H1461 0.929 . S
C1459 C1458 1.363 . S
C1459 C1465 1.428 . S
H1460 C1456 0.930 . S
H1461 C1458 0.929 . S
S1462 N1463 1.613 . S
S1462 N1464 1.610 . S
N1463 S1462 1.613 . S
N1463 C1466 1.350 . S
N1464 S1462 1.610 . S
N1464 C1465 1.351 . S
C1465 C1459 1.428 . S
C1465 N1464 1.351 . S
C1465 C1466 1.434 . S
C1466 C1457 1.429 . S
C1466 N1463 1.350 . S
C1466 C1465 1.434 . S
C1467 C1468 1.369 . S
C1467 C1469 1.419 . S
C1467 H1471 0.930 . S
C1468 C1467 1.369 . S
C1468 C1477 1.429 . S
C1469 C1467 1.419 . S
C1469 C1470 1.363 . S
C1469 H1472 0.929 . S
C1470 C1469 1.363 . S
C1470 C1476 1.428 . S
H1471 C1467 0.930 . S
H1472 C1469 0.929 . S
S1473 N1474 1.613 . S
S1473 N1475 1.610 . S
N1474 S1473 1.613 . S
N1474 C1477 1.350 . S
N1475 S1473 1.610 . S
N1475 C1476 1.351 . S
C1476 C1470 1.428 . S
C1476 N1475 1.351 . S
C1476 C1477 1.434 . S
C1477 C1468 1.429 . S
C1477 N1474 1.350 . S
C1477 C1476 1.434 . S
C1478 C1479 1.369 . S
C1478 C1480 1.419 . S
C1478 H1482 0.930 . S
C1479 C1478 1.369 . S
C1479 C1488 1.429 . S
C1480 C1478 1.419 . S
C1480 C1481 1.363 . S
C1480 H1483 0.929 . S
C1481 C1480 1.363 . S
C1481 C1487 1.428 . S
H1482 C1478 0.930 . S
H1483 C1480 0.929 . S
S1484 N1485 1.613 . S
S1484 N1486 1.610 . S
N1485 S1484 1.613 . S
N1485 C1488 1.350 . S
N1486 S1484 1.610 . S
N1486 C1487 1.351 . S
C1487 C1481 1.428 . S
C1487 N1486 1.351 . S
C1487 C1488 1.434 . S
C1488 C1479 1.429 . S
C1488 N1485 1.350 . S
C1488 C1487 1.434 . S
C1489 C1490 1.369 . S
C1489 C1491 1.419 . S
C1489 H1493 0.930 . S
C1490 C1489 1.369 . S
C1490 C1499 1.429 . S
C1491 C1489 1.419 . S
C1491 C1492 1.363 . S
C1491 H1494 0.929 . S
C1492 C1491 1.363 . S
C1492 C1498 1.428 . S
H1493 C1489 0.930 . S
H1494 C1491 0.929 . S
S1495 N1496 1.613 . S
S1495 N1497 1.610 . S
N1496 S1495 1.613 . S
N1496 C1499 1.350 . S
N1497 S1495 1.610 . S
N1497 C1498 1.351 . S
C1498 C1492 1.428 . S
C1498 N1497 1.351 . S
C1498 C1499 1.434 . S
C1499 C1490 1.429 . S
C1499 N1496 1.350 . S
C1499 C1498 1.434 . S
C1500 C1501 1.369 . S
C1500 C1502 1.419 . S
C1500 H1504 0.930 . S
C1501 C1500 1.369 . S
C1501 C1510 1.429 . S
C1502 C1500 1.419 . S
C1502 C1503 1.363 . S
C1502 H1505 0.929 . S
C1503 C1502 1.363 . S
C1503 C1509 1.428 . S
H1504 C1500 0.930 . S
H1505 C1502 0.929 . S
S1506 N1507 1.613 . S
S1506 N1508 1.610 . S
N1507 S1506 1.613 . S
N1507 C1510 1.350 . S
N1508 S1506 1.610 . S
N1508 C1509 1.351 . S
C1509 C1503 1.428 . S
C1509 N1508 1.351 . S
C1509 C1510 1.434 . S
C1510 C1501 1.429 . S
C1510 N1507 1.350 . S
C1510 C1509 1.434 . S
C1511 C1512 1.369 . S
C1511 C1513 1.419 . S
C1511 H1515 0.930 . S
C1512 C1511 1.369 . S
C1512 C1521 1.429 . S
C1513 C1511 1.419 . S
C1513 C1514 1.363 . S
C1513 H1516 0.929 . S
C1514 C1513 1.363 . S
C1514 C1520 1.428 . S
H1515 C1511 0.930 . S
H1516 C1513 0.929 . S
S1517 N1518 1.613 . S
S1517 N1519 1.610 . S
N1518 S1517 1.613 . S
N1518 C1521 1.350 . S
N1519 S1517 1.610 . S
N1519 C1520 1.351 . S
C1520 C1514 1.428 . S
C1520 N1519 1.351 . S
C1520 C1521 1.434 . S
C1521 C1512 1.429 . S
C1521 N1518 1.350 . S
C1521 C1520 1.434 . S
C1522 C1523 1.369 . S
C1522 C1524 1.419 . S
C1522 H1526 0.930 . S
C1523 C1522 1.369 . S
C1523 C1532 1.429 . S
C1524 C1522 1.419 . S
C1524 C1525 1.363 . S
C1524 H1527 0.929 . S
C1525 C1524 1.363 . S
C1525 C1531 1.428 . S
H1526 C1522 0.930 . S
H1527 C1524 0.929 . S
S1528 N1529 1.613 . S
S1528 N1530 1.610 . S
N1529 S1528 1.613 . S
N1529 C1532 1.350 . S
N1530 S1528 1.610 . S
N1530 C1531 1.351 . S
C1531 C1525 1.428 . S
C1531 N1530 1.351 . S
C1531 C1532 1.434 . S
C1532 C1523 1.429 . S
C1532 N1529 1.350 . S
C1532 C1531 1.434 . S
C1533 C1534 1.369 . S
C1533 C1535 1.419 . S
C1533 H1537 0.930 . S
C1534 C1533 1.369 . S
C1534 C1543 1.429 . S
C1535 C1533 1.419 . S
C1535 C1536 1.363 . S
C1535 H1538 0.929 . S
C1536 C1535 1.363 . S
C1536 C1542 1.428 . S
H1537 C1533 0.930 . S
H1538 C1535 0.929 . S
S1539 N1540 1.613 . S
S1539 N1541 1.610 . S
N1540 S1539 1.613 . S
N1540 C1543 1.350 . S
N1541 S1539 1.610 . S
N1541 C1542 1.351 . S
C1542 C1536 1.428 . S
C1542 N1541 1.351 . S
C1542 C1543 1.434 . S
C1543 C1534 1.429 . S
C1543 N1540 1.350 . S
C1543 C1542 1.434 . S
C1544 C1545 1.369 . S
C1544 C1546 1.419 . S
C1544 H1548 0.930 . S
C1545 C1544 1.369 . S
C1545 C1554 1.429 . S
C1546 C1544 1.419 . S
C1546 C1547 1.363 . S
C1546 H1549 0.929 . S
C1547 C1546 1.363 . S
C1547 C1553 1.428 . S
H1548 C1544 0.930 . S
H1549 C1546 0.929 . S
S1550 N1551 1.613 . S
S1550 N1552 1.610 . S
N1551 S1550 1.613 . S
N1551 C1554 1.350 . S
N1552 S1550 1.610 . S
N1552 C1553 1.351 . S
C1553 C1547 1.428 . S
C1553 N1552 1.351 . S
C1553 C1554 1.434 . S
C1554 C1545 1.429 . S
C1554 N1551 1.350 . S
C1554 C1553 1.434 . S
C1555 C1556 1.369 . S
C1555 C1557 1.419 . S
C1555 H1559 0.930 . S
C1556 C1555 1.369 . S
C1556 C1565 1.429 . S
C1557 C1555 1.419 . S
C1557 C1558 1.363 . S
C1557 H1560 0.929 . S
C1558 C1557 1.363 . S
C1558 C1564 1.428 . S
H1559 C1555 0.930 . S
H1560 C1557 0.929 . S
S1561 N1562 1.613 . S
S1561 N1563 1.610 . S
N1562 S1561 1.613 . S
N1562 C1565 1.350 . S
N1563 S1561 1.610 . S
N1563 C1564 1.351 . S
C1564 C1558 1.428 . S
C1564 N1563 1.351 . S
C1564 C1565 1.434 . S
C1565 C1556 1.429 . S
C1565 N1562 1.350 . S
C1565 C1564 1.434 . S
C1566 C1567 1.369 . S
C1566 C1568 1.419 . S
C1566 H1570 0.930 . S
C1567 C1566 1.369 . S
C1567 C1576 1.429 . S
C1568 C1566 1.419 . S
C1568 C1569 1.363 . S
C1568 H1571 0.929 . S
C1569 C1568 1.363 . S
C1569 C1575 1.428 . S
H1570 C1566 0.930 . S
H1571 C1568 0.929 . S
S1572 N1573 1.613 . S
S1572 N1574 1.610 . S
N1573 S1572 1.613 . S
N1573 C1576 1.350 . S
N1574 S1572 1.610 . S
N1574 C1575 1.351 . S
C1575 C1569 1.428 . S
C1575 N1574 1.351 . S
C1575 C1576 1.434 . S
C1576 C1567 1.429 . S
C1576 N1573 1.350 . S
C1576 C1575 1.434 . S
C1577 C1578 1.369 . S
C1577 C1579 1.419 . S
C1577 H1581 0.930 . S
C1578 C1577 1.369 . S
C1578 C1587 1.429 . S
C1579 C1577 1.419 . S
C1579 C1580 1.363 . S
C1579 H1582 0.929 . S
C1580 C1579 1.363 . S
C1580 C1586 1.428 . S
H1581 C1577 0.930 . S
H1582 C1579 0.929 . S
S1583 N1584 1.613 . S
S1583 N1585 1.610 . S
N1584 S1583 1.613 . S
N1584 C1587 1.350 . S
N1585 S1583 1.610 . S
N1585 C1586 1.351 . S
C1586 C1580 1.428 . S
C1586 N1585 1.351 . S
C1586 C1587 1.434 . S
C1587 C1578 1.429 . S
C1587 N1584 1.350 . S
C1587 C1586 1.434 . S
C1588 C1589 1.369 . S
C1588 C1590 1.419 . S
C1588 H1592 0.930 . S
C1589 C1588 1.369 . S
C1589 C1598 1.429 . S
C1590 C1588 1.419 . S
C1590 C1591 1.363 . S
C1590 H1593 0.929 . S
C1591 C1590 1.363 . S
C1591 C1597 1.428 . S
H1592 C1588 0.930 . S
H1593 C1590 0.929 . S
S1594 N1595 1.613 . S
S1594 N1596 1.610 . S
N1595 S1594 1.613 . S
N1595 C1598 1.350 . S
N1596 S1594 1.610 . S
N1596 C1597 1.351 . S
C1597 C1591 1.428 . S
C1597 N1596 1.351 . S
C1597 C1598 1.434 . S
C1598 C1589 1.429 . S
C1598 N1595 1.350 . S
C1598 C1597 1.434 . S
C1599 C1600 1.369 . S
C1599 C1601 1.419 . S
C1599 H1603 0.930 . S
C1600 C1599 1.369 . S
C1600 C1609 1.429 . S
C1601 C1599 1.419 . S
C1601 C1602 1.363 . S
C1601 H1604 0.929 . S
C1602 C1601 1.363 . S
C1602 C1608 1.428 . S
H1603 C1599 0.930 . S
H1604 C1601 0.929 . S
S1605 N1606 1.613 . S
S1605 N1607 1.610 . S
N1606 S1605 1.613 . S
N1606 C1609 1.350 . S
N1607 S1605 1.610 . S
N1607 C1608 1.351 . S
C1608 C1602 1.428 . S
C1608 N1607 1.351 . S
C1608 C1609 1.434 . S
C1609 C1600 1.429 . S
C1609 N1606 1.350 . S
C1609 C1608 1.434 . S
C1610 C1611 1.369 . S
C1610 C1612 1.419 . S
C1610 H1614 0.930 . S
C1611 C1610 1.369 . S
C1611 C1620 1.429 . S
C1612 C1610 1.419 . S
C1612 C1613 1.363 . S
C1612 H1615 0.929 . S
C1613 C1612 1.363 . S
C1613 C1619 1.428 . S
H1614 C1610 0.930 . S
H1615 C1612 0.929 . S
S1616 N1617 1.613 . S
S1616 N1618 1.610 . S
N1617 S1616 1.613 . S
N1617 C1620 1.350 . S
N1618 S1616 1.610 . S
N1618 C1619 1.351 . S
C1619 C1613 1.428 . S
C1619 N1618 1.351 . S
C1619 C1620 1.434 . S
C1620 C1611 1.429 . S
C1620 N1617 1.350 . S
C1620 C1619 1.434 . S
C1621 C1622 1.369 . S
C1621 C1623 1.419 . S
C1621 H1625 0.930 . S
C1622 C1621 1.369 . S
C1622 C1631 1.429 . S
C1623 C1621 1.419 . S
C1623 C1624 1.363 . S
C1623 H1626 0.929 . S
C1624 C1623 1.363 . S
C1624 C1630 1.428 . S
H1625 C1621 0.930 . S
H1626 C1623 0.929 . S
S1627 N1628 1.613 . S
S1627 N1629 1.610 . S
N1628 S1627 1.613 . S
N1628 C1631 1.350 . S
N1629 S1627 1.610 . S
N1629 C1630 1.351 . S
C1630 C1624 1.428 . S
C1630 N1629 1.351 . S
C1630 C1631 1.434 . S
C1631 C1622 1.429 . S
C1631 N1628 1.350 . S
C1631 C1630 1.434 . S
C1632 C1633 1.369 . S
C1632 C1634 1.419 . S
C1632 H1636 0.930 . S
C1633 C1632 1.369 . S
C1633 C1642 1.429 . S
C1634 C1632 1.419 . S
C1634 C1635 1.363 . S
C1634 H1637 0.929 . S
C1635 C1634 1.363 . S
C1635 C1641 1.428 . S
H1636 C1632 0.930 . S
H1637 C1634 0.929 . S
S1638 N1639 1.613 . S
S1638 N1640 1.610 . S
N1639 S1638 1.613 . S
N1639 C1642 1.350 . S
N1640 S1638 1.610 . S
N1640 C1641 1.351 . S
C1641 C1635 1.428 . S
C1641 N1640 1.351 . S
C1641 C1642 1.434 . S
C1642 C1633 1.429 . S
C1642 N1639 1.350 . S
C1642 C1641 1.434 . S
C1643 C1644 1.369 1_565 S
C1643 C1645 1.419 1_455 S
C1643 H1647 0.930 . S
C1644 C1643 1.369 1_545 S
C1644 C1653 1.426 . S
C1645 C1643 1.419 1_655 S
C1645 C1646 1.363 . S
C1645 H1648 0.929 . S
C1646 C1645 1.363 . S
C1646 C1652 1.428 1_565 S
H1647 C1643 0.930 . S
H1648 C1645 0.929 . S
S1649 N1650 1.613 1_655 S
S1649 N1651 1.610 . S
N1650 S1649 1.613 1_455 S
N1650 C1653 1.350 . S
N1651 S1649 1.610 . S
N1651 C1652 1.351 . S
C1652 C1646 1.428 1_545 S
C1652 N1651 1.351 . S
C1652 C1653 1.437 1_655 S
C1653 C1644 1.426 . S
C1653 N1650 1.350 . S
C1653 C1652 1.437 1_455 S
C1654 C1655 1.369 . S
C1654 C1656 1.419 . S
C1654 H1658 0.930 . S
C1655 C1654 1.369 . S
C1655 C1664 1.429 . S
C1656 C1654 1.419 . S
C1656 C1657 1.363 . S
C1656 H1659 0.929 . S
C1657 C1656 1.363 . S
C1657 C1663 1.428 . S
H1658 C1654 0.930 . S
H1659 C1656 0.929 . S
S1660 N1661 1.613 . S
S1660 N1662 1.610 . S
N1661 S1660 1.613 . S
N1661 C1664 1.350 . S
N1662 S1660 1.610 . S
N1662 C1663 1.351 . S
C1663 C1657 1.428 . S
C1663 N1662 1.351 . S
C1663 C1664 1.434 . S
C1664 C1655 1.429 . S
C1664 N1661 1.350 . S
C1664 C1663 1.434 . S
C1665 C1666 1.369 1_544 S
C1665 C1667 1.419 . S
C1665 H1669 0.930 . S
C1666 C1665 1.369 1_566 S
C1666 C1675 1.429 . S
C1667 C1665 1.419 . S
C1667 C1668 1.363 . S
C1667 H1670 0.929 . S
C1668 C1667 1.363 . S
C1668 C1674 1.428 1_544 S
H1669 C1665 0.930 . S
H1670 C1667 0.929 . S
S1671 N1672 1.613 . S
S1671 N1673 1.610 . S
N1672 S1671 1.613 . S
N1672 C1675 1.350 . S
N1673 S1671 1.610 . S
N1673 C1674 1.351 . S
C1674 C1668 1.428 1_566 S
C1674 N1673 1.351 . S
C1674 C1675 1.434 . S
C1675 C1666 1.429 . S
C1675 N1672 1.350 . S
C1675 C1674 1.434 . S
C1676 C1677 1.369 . S
C1676 C1678 1.419 . S
C1676 H1680 0.930 . S
C1677 C1676 1.369 . S
C1677 C1686 1.429 . S
C1678 C1676 1.419 . S
C1678 C1679 1.363 . S
C1678 H1681 0.929 . S
C1679 C1678 1.363 . S
C1679 C1685 1.428 . S
H1680 C1676 0.930 . S
H1681 C1678 0.929 . S
S1682 N1683 1.613 . S
S1682 N1684 1.610 . S
N1683 S1682 1.613 . S
N1683 C1686 1.350 . S
N1684 S1682 1.610 . S
N1684 C1685 1.351 . S
C1685 C1679 1.428 . S
C1685 N1684 1.351 . S
C1685 C1686 1.434 . S
C1686 C1677 1.429 . S
C1686 N1683 1.350 . S
C1686 C1685 1.434 . S
C1687 C1688 1.369 1_565 S
C1687 C1689 1.419 . S
C1687 H1691 0.930 . S
C1688 C1687 1.369 1_545 S
C1688 C1697 1.429 . S
C1689 C1687 1.419 . S
C1689 C1690 1.363 . S
C1689 H1692 0.929 . S
C1690 C1689 1.363 . S
C1690 C1696 1.428 1_565 S
H1691 C1687 0.930 . S
H1692 C1689 0.929 . S
S1693 N1694 1.613 . S
S1693 N1695 1.610 . S
N1694 S1693 1.613 . S
N1694 C1697 1.350 . S
N1695 S1693 1.610 . S
N1695 C1696 1.351 . S
C1696 C1690 1.428 1_545 S
C1696 N1695 1.351 . S
C1696 C1697 1.434 . S
C1697 C1688 1.429 . S
C1697 N1694 1.350 . S
C1697 C1696 1.434 . S
C1698 C1699 1.369 . S
C1698 C1700 1.419 . S
C1698 H1702 0.930 . S
C1699 C1698 1.369 . S
C1699 C1708 1.429 . S
C1700 C1698 1.419 . S
C1700 C1701 1.363 . S
C1700 H1703 0.929 . S
C1701 C1700 1.363 . S
C1701 C1707 1.428 . S
H1702 C1698 0.930 . S
H1703 C1700 0.929 . S
S1704 N1705 1.613 . S
S1704 N1706 1.610 . S
N1705 S1704 1.613 . S
N1705 C1708 1.350 . S
N1706 S1704 1.610 . S
N1706 C1707 1.351 . S
C1707 C1701 1.428 . S
C1707 N1706 1.351 . S
C1707 C1708 1.434 . S
C1708 C1699 1.429 . S
C1708 N1705 1.350 . S
C1708 C1707 1.434 . S
C1709 C1710 1.369 1_655 S
C1709 C1711 1.423 . S
C1709 H1713 0.930 . S
C1710 C1709 1.369 1_455 S
C1710 C1719 1.429 1_564 S
C1711 C1709 1.423 . S
C1711 C1712 1.358 1_564 S
C1711 H1714 0.931 . S
C1712 C1711 1.358 1_546 S
C1712 C1718 1.428 . S
H1713 C1709 0.930 . S
H1714 C1711 0.931 . S
S1715 N1716 1.613 . S
S1715 N1717 1.627 . S
N1716 S1715 1.613 . S
N1716 C1719 1.350 . S
N1717 S1715 1.627 . S
N1717 C1718 1.349 1_455 S
C1718 C1712 1.428 . S
C1718 N1717 1.349 1_655 S
C1718 C1719 1.434 1_655 S
C1719 C1710 1.429 1_546 S
C1719 N1716 1.350 . S
C1719 C1718 1.434 1_455 S
C1720 C1721 1.369 . S
C1720 C1722 1.419 . S
C1720 H1724 0.930 . S
C1721 C1720 1.369 . S
C1721 C1730 1.429 . S
C1722 C1720 1.419 . S
C1722 C1723 1.363 . S
C1722 H1725 0.929 . S
C1723 C1722 1.363 . S
C1723 C1729 1.428 . S
H1724 C1720 0.930 . S
H1725 C1722 0.929 . S
S1726 N1727 1.613 . S
S1726 N1728 1.610 . S
N1727 S1726 1.613 . S
N1727 C1730 1.350 . S
N1728 S1726 1.610 . S
N1728 C1729 1.351 . S
C1729 C1723 1.428 . S
C1729 N1728 1.351 . S
C1729 C1730 1.434 . S
C1730 C1721 1.429 . S
C1730 N1727 1.350 . S
C1730 C1729 1.434 . S
C1731 C1732 1.369 . S
C1731 C1733 1.419 . S
C1731 H1735 0.930 . S
C1732 C1731 1.369 . S
C1732 C1741 1.429 . S
C1733 C1731 1.419 . S
C1733 C1734 1.363 . S
C1733 H1736 0.929 . S
C1734 C1733 1.363 . S
C1734 C1740 1.428 . S
H1735 C1731 0.930 . S
H1736 C1733 0.929 . S
S1737 N1738 1.613 . S
S1737 N1739 1.610 . S
N1738 S1737 1.613 . S
N1738 C1741 1.350 . S
N1739 S1737 1.610 . S
N1739 C1740 1.351 . S
C1740 C1734 1.428 . S
C1740 N1739 1.351 . S
C1740 C1741 1.434 . S
C1741 C1732 1.429 . S
C1741 N1738 1.350 . S
C1741 C1740 1.434 . S
C1742 C1743 1.369 . S
C1742 C1744 1.419 . S
C1742 H1746 0.930 . S
C1743 C1742 1.369 . S
C1743 C1752 1.429 . S
C1744 C1742 1.419 . S
C1744 C1745 1.363 . S
C1744 H1747 0.929 . S
C1745 C1744 1.363 . S
C1745 C1751 1.428 . S
H1746 C1742 0.930 . S
H1747 C1744 0.929 . S
S1748 N1749 1.613 . S
S1748 N1750 1.610 . S
N1749 S1748 1.613 . S
N1749 C1752 1.350 . S
N1750 S1748 1.610 . S
N1750 C1751 1.351 . S
C1751 C1745 1.428 . S
C1751 N1750 1.351 . S
C1751 C1752 1.434 . S
C1752 C1743 1.429 . S
C1752 N1749 1.350 . S
C1752 C1751 1.434 . S
C1753 C1754 1.369 . S
C1753 C1755 1.419 . S
C1753 H1757 0.930 . S
C1754 C1753 1.369 . S
C1754 C1763 1.429 . S
C1755 C1753 1.419 . S
C1755 C1756 1.363 . S
C1755 H1758 0.929 . S
C1756 C1755 1.363 . S
C1756 C1762 1.428 . S
H1757 C1753 0.930 . S
H1758 C1755 0.929 . S
S1759 N1760 1.613 . S
S1759 N1761 1.610 . S
N1760 S1759 1.613 . S
N1760 C1763 1.350 . S
N1761 S1759 1.610 . S
N1761 C1762 1.351 . S
C1762 C1756 1.428 . S
C1762 N1761 1.351 . S
C1762 C1763 1.434 . S
C1763 C1754 1.429 . S
C1763 N1760 1.350 . S
C1763 C1762 1.434 . S
C1764 C1765 1.369 1_554 S
C1764 C1766 1.419 . S
C1764 H1768 0.930 . S
C1765 C1764 1.369 1_556 S
C1765 C1774 1.429 . S
C1766 C1764 1.419 . S
C1766 C1767 1.363 . S
C1766 H1769 0.929 . S
C1767 C1766 1.363 . S
C1767 C1773 1.428 1_554 S
H1768 C1764 0.930 . S
H1769 C1766 0.929 . S
S1770 N1771 1.613 . S
S1770 N1772 1.610 . S
N1771 S1770 1.613 . S
N1771 C1774 1.350 . S
N1772 S1770 1.610 . S
N1772 C1773 1.351 . S
C1773 C1767 1.428 1_556 S
C1773 N1772 1.351 . S
C1773 C1774 1.434 . S
C1774 C1765 1.429 . S
C1774 N1771 1.350 . S
C1774 C1773 1.434 . S
C1775 C1776 1.369 . S
C1775 C1777 1.419 1_655 S
C1775 H1779 0.930 . S
C1776 C1775 1.369 . S
C1776 C1785 1.429 . S
C1777 C1775 1.419 1_455 S
C1777 C1778 1.363 . S
C1777 H1780 0.929 . S
C1778 C1777 1.363 . S
C1778 C1784 1.428 . S
H1779 C1775 0.930 . S
H1780 C1777 0.929 . S
S1781 N1782 1.613 . S
S1781 N1783 1.610 1_655 S
N1782 S1781 1.613 . S
N1782 C1785 1.350 . S
N1783 S1781 1.610 1_455 S
N1783 C1784 1.351 . S
C1784 C1778 1.428 . S
C1784 N1783 1.351 . S
C1784 C1785 1.434 1_455 S
C1785 C1776 1.429 . S
C1785 N1782 1.350 . S
C1785 C1784 1.434 1_655 S
C1786 C1787 1.369 1_554 S
C1786 C1788 1.371 1_455 S
C1786 H1790 0.930 . S
C1787 C1786 1.369 1_556 S
C1787 C1796 1.429 1_455 S
C1788 C1786 1.371 1_655 S
C1788 C1789 1.416 . S
C1788 H1791 0.926 1_655 S
C1789 C1788 1.416 . S
C1789 C1795 1.428 1_554 S
H1790 C1786 0.930 . S
H1791 C1788 0.926 1_455 S
S1792 N1793 1.613 . S
S1792 N1794 1.610 . S
N1793 S1792 1.613 . S
N1793 C1796 1.350 . S
N1794 S1792 1.610 . S
N1794 C1795 1.351 . S
C1795 C1789 1.428 1_556 S
C1795 N1794 1.351 . S
C1795 C1796 1.434 . S
C1796 C1787 1.429 1_655 S
C1796 N1793 1.350 . S
C1796 C1795 1.434 . S
C1797 C1798 1.369 . S
C1797 C1799 1.419 . S
C1797 H1801 0.930 . S
C1798 C1797 1.369 . S
C1798 C1807 1.429 . S
C1799 C1797 1.419 . S
C1799 C1800 1.363 . S
C1799 H1802 0.929 . S
C1800 C1799 1.363 . S
C1800 C1806 1.428 . S
H1801 C1797 0.930 . S
H1802 C1799 0.929 . S
S1803 N1804 1.613 . S
S1803 N1805 1.610 . S
N1804 S1803 1.613 . S
N1804 C1807 1.350 . S
N1805 S1803 1.610 . S
N1805 C1806 1.351 . S
C1806 C1800 1.428 . S
C1806 N1805 1.351 . S
C1806 C1807 1.434 . S
C1807 C1798 1.429 . S
C1807 N1804 1.350 . S
C1807 C1806 1.434 . S
C1281 C21 1.758 . S
C1283 C261 1.762 . S
C1292 C61 1.629 . S
C1294 C301 1.615 . S
C1303 C101 1.767 . S
C1305 C181 1.760 . S
C1314 C141 1.655 . S
C1316 C221 1.660 . S
C1325 C581 1.866 . S
C1327 C341 1.876 . S
C1336 C602 1.673 . S
C1338 C362 1.681 . S
C1347 C501 1.873 . S
C1349 C421 1.866 . S
C1358 C541 1.836 . S
C1360 C461 1.825 . S
C1369 C901 1.776 . S
C1371 C661 1.781 . S
C1380 C701 1.754 . S
C1382 C941 1.749 . S
C1391 C821 1.772 . S
C1393 C741 1.777 . S
C1402 C781 1.772 . S
C1404 C861 1.770 . S
C1413 C1221 1.896 . S
C1415 C981 1.905 . S
C1424 C1002 1.710 . S
C1426 C1242 1.722 . S
C1435 C1061 1.899 . S
C1437 C1141 1.902 . S
C1446 C1101 1.918 . S
C1448 C1181 1.924 . S
C1457 C15 1.906 . S
C1459 C295 1.910 . S
C1468 C175 1.907 . S
C1470 C55 1.910 . S
C1479 C215 1.915 . S
C1481 C95 1.902 . S
C1490 C255 1.905 . S
C1492 C135 1.910 . S
C1501 C615 1.890 . S
C1503 C335 1.894 . S
C1512 C375 1.893 . S
C1514 C495 1.895 . S
C1523 C415 1.905 . S
C1525 C535 1.904 . S
C1534 C575 1.903 . S
C1536 C455 1.902 . S
C1545 C935 1.961 . S
C1547 C655 1.962 . S
C1556 C815 1.963 . S
C1558 C695 1.963 . S
C1567 C735 1.954 . S
C1569 C855 1.955 . S
C1578 C895 1.957 . S
C1580 C775 1.957 . S
C1589 C1255 1.902 . S
C1591 C975 1.909 . S
C1600 C1135 1.908 . S
C1602 C1015 1.902 . S
C1611 C1175 1.931 . S
C1613 C1055 1.930 . S
C1622 C1095 1.933 . S
C1624 C1215 1.930 . S
C1633 C2 2.204 . S
C1635 C962 2.391 . S
C1644 C42 2.176 . S
C1646 C381 2.130 . S
C1655 C1042 2.436 . S
C1657 C82 2.238 . S
C1666 C122 2.168 . S
C1668 C442 2.336 . S
C1677 C1122 2.389 . S
C1679 C162 2.204 . S
C1688 C202 2.166 . S
C1690 C522 2.337 . S
C1699 C1202 2.437 . S
C1701 C242 2.237 . S
C1710 C282 2.170 . S
C1712 C621 2.135 . S
C1721 C322 2.397 . S
C1723 C642 2.206 . S
C1732 C722 2.245 . S
C1734 C402 2.436 . S
C1743 C802 2.203 . S
C1745 C482 2.399 . S
C1754 C882 2.236 . S
C1756 C562 2.439 . S
C1765 C682 2.241 . S
C1767 C1021 2.204 . S
C1776 C762 2.233 . S
C1778 C1082 2.436 . S
C1787 C1162 2.436 . S
C1789 C842 2.234 . S
C1798 C922 2.236 . S
C1800 C1261 2.208 . S
