# Generated by pormake.
# Topology upa, (4)-cn, num edge types: 1
# Building blocks:
#     Node 0, Type 0, BuildingBlock: KUFVIS_clean_sbu_0, # of connection points: 4
#     Node 1, Type 0, BuildingBlock: KUFVIS_clean_sbu_0, # of connection points: 4
#     Node 2, Type 0, BuildingBlock: KUFVIS_clean_sbu_0, # of connection points: 4
#     Node 3, Type 0, BuildingBlock: KUFVIS_clean_sbu_0, # of connection points: 4
#     Node 4, Type 0, BuildingBlock: KUFVIS_clean_sbu_0, # of connection points: 4
#     Node 5, Type 0, BuildingBlock: KUFVIS_clean_sbu_0, # of connection points: 4
#     Node 6, Type 0, BuildingBlock: KUFVIS_clean_sbu_0, # of connection points: 4
#     Node 7, Type 0, BuildingBlock: KUFVIS_clean_sbu_0, # of connection points: 4
#     Edge 8, Type (0, 0), BuildingBlock: EZIPEK_clean_linker_0, # of connection points: 2
#     Edge 9, Type (0, 0), BuildingBlock: EZIPEK_clean_linker_0, # of connection points: 2
#     Edge 10, Type (0, 0), BuildingBlock: EZIPEK_clean_linker_0, # of connection points: 2
#     Edge 11, Type (0, 0), BuildingBlock: EZIPEK_clean_linker_0, # of connection points: 2
#     Edge 12, Type (0, 0), BuildingBlock: EZIPEK_clean_linker_0, # of connection points: 2
#     Edge 13, Type (0, 0), BuildingBlock: EZIPEK_clean_linker_0, # of connection points: 2
#     Edge 14, Type (0, 0), BuildingBlock: EZIPEK_clean_linker_0, # of connection points: 2
#     Edge 15, Type (0, 0), BuildingBlock: EZIPEK_clean_linker_0, # of connection points: 2
#     Edge 16, Type (0, 0), BuildingBlock: EZIPEK_clean_linker_0, # of connection points: 2
#     Edge 17, Type (0, 0), BuildingBlock: EZIPEK_clean_linker_0, # of connection points: 2
#     Edge 18, Type (0, 0), BuildingBlock: EZIPEK_clean_linker_0, # of connection points: 2
#     Edge 19, Type (0, 0), BuildingBlock: EZIPEK_clean_linker_0, # of connection points: 2
#     Edge 20, Type (0, 0), BuildingBlock: EZIPEK_clean_linker_0, # of connection points: 2
#     Edge 21, Type (0, 0), BuildingBlock: EZIPEK_clean_linker_0, # of connection points: 2
#     Edge 22, Type (0, 0), BuildingBlock: EZIPEK_clean_linker_0, # of connection points: 2
#     Edge 23, Type (0, 0), BuildingBlock: EZIPEK_clean_linker_0, # of connection points: 2
# Relax obj value: 0.180
# Max RMSD: 0.138
# Mean RMSD: 0.138
data_MOF--net-upa--node1-KUFVIS_clean_sbu_0--edge1-EZIPEK_clean_linker_0
_symmetry_space_group_name_H-M    P1
_symmetry_Int_Tables_number       1
_symmetry_cell_setting            triclinic
loop_
_symmetry_equiv_pos_as_xyz
'x, y, z'
_cell_length_a     18.548715
_cell_length_b     18.566788
_cell_length_c     32.709338
_cell_angle_alpha  90.023252
_cell_angle_beta   89.997316
_cell_angle_gamma 89.66952
loop_
_atom_site_label
_atom_site_type_symbol
_atom_site_fract_x
_atom_site_fract_y
_atom_site_fract_z
_atom_type_partial_charge
Mn0 Mn 0.17963 0.21585 0.34255 0.0
Mn1 Mn 0.28044 0.08167 0.38319 0.0
C2 C 0.1235 0.12039 0.37593 0.0
C3 C 0.10312 0.26217 0.29159 0.0
C4 C 0.25988 0.22785 0.42484 0.0
O5 O 0.27568 0.2279 0.31229 0.0
O6 O 0.33848 0.13729 0.34209 0.0
C7 C 0.31196 0.9869 0.31256 0.0
N8 N 0.27566 0.99934 0.34797 0.0
C9 C 0.22505 0.88025 0.34626 0.0
C10 C 0.2569 0.86892 0.30795 0.0
C11 C 0.30148 0.92217 0.29127 0.0
C12 C 0.2357 0.94696 0.36533 0.0
H13 H 0.351 0.02471 0.3018 0.0
C14 C 0.33297 0.18969 0.31658 0.0
O15 O 0.13377 0.30437 0.31805 0.0
O16 O 0.12532 0.19606 0.2911 0.0
N17 N 0.23019 0.0229 0.42173 0.0
C18 C 0.22061 0.0347 0.46243 0.0
C19 C 0.1856 0.98268 0.48622 0.0
C20 C 0.16318 0.91787 0.46825 0.0
C21 C 0.17754 0.90503 0.42686 0.0
C22 C 0.2122 0.95916 0.40462 0.0
H23 H 0.23937 0.08357 0.47661 0.0
O24 O 0.09314 0.18294 0.37297 0.0
O25 O 0.1883 0.116 0.36038 0.0
O26 O 0.22306 0.25666 0.39605 0.0
O27 O 0.28464 0.1634 0.42273 0.0
C28 C 0.16223 0.83915 0.40742 0.0
C29 C 0.18601 0.82675 0.36708 0.0
H30 H 0.25039 0.8182 0.29203 0.0
H31 H 0.32939 0.91253 0.26274 0.0
H32 H 0.17626 0.99273 0.51829 0.0
H33 H 0.13759 0.87706 0.48672 0.0
H34 H 0.13457 0.7967 0.42371 0.0
H35 H 0.17615 0.77502 0.35287 0.0
Mn36 Mn 0.30973 0.67807 0.84305 0.0
Mn37 Mn 0.44899 0.77333 0.88023 0.0
C38 C 0.40722 0.61962 0.87253 0.0
C39 C 0.25849 0.60193 0.79306 0.0
C40 C 0.31278 0.74835 0.92849 0.0
O41 O 0.29601 0.77565 0.81395 0.0
O42 O 0.38339 0.83668 0.84708 0.0
C43 C 0.52082 0.81029 0.80213 0.0
N44 N 0.52115 0.77457 0.83846 0.0
C45 C 0.63933 0.7263 0.82503 0.0
C46 C 0.6385 0.75947 0.78657 0.0
C47 C 0.57924 0.80233 0.77524 0.0
C48 C 0.57885 0.73498 0.85014 0.0
H49 H 0.47707 0.84571 0.79408 0.0
C50 C 0.33079 0.83371 0.82164 0.0
O51 O 0.21875 0.6328 0.82087 0.0
O52 O 0.32413 0.62429 0.79063 0.0
N53 N 0.51747 0.71926 0.91142 0.0
C54 C 0.51439 0.70045 0.95161 0.0
C55 C 0.57236 0.66282 0.96918 0.0
C56 C 0.63369 0.64677 0.94564 0.0
C57 C 0.6368 0.66934 0.90488 0.0
C58 C 0.57731 0.70648 0.88896 0.0
H59 H 0.46764 0.7131 0.96999 0.0
O60 O 0.34422 0.59035 0.87192 0.0
O61 O 0.41093 0.68424 0.85704 0.0
O62 O 0.27685 0.72179 0.89858 0.0
O63 O 0.37794 0.76954 0.92502 0.0
C64 C 0.69753 0.65836 0.87985 0.0
C65 C 0.69866 0.68673 0.8399 0.0
H66 H 0.6839 0.75406 0.76604 0.0
H67 H 0.57891 0.82993 0.74611 0.0
H68 H 0.56914 0.64559 1.00059 0.0
H69 H 0.67866 0.61815 0.95915 0.0
H70 H 0.74418 0.62963 0.89142 0.0
H71 H 0.74608 0.67968 0.82126 0.0
Mn72 Mn 0.84424 0.80844 0.34764 0.0
Mn73 Mn 0.74431 0.94868 0.38006 0.0
C74 C 0.89903 0.90752 0.37703 0.0
C75 C 0.92567 0.76092 0.29766 0.0
C76 C 0.76123 0.81093 0.42985 0.0
O77 O 0.74802 0.79229 0.3166 0.0
O78 O 0.68591 0.88605 0.34356 0.0
C79 C 0.72225 0.02303 0.30079 0.0
N80 N 0.74958 0.02255 0.33945 0.0
C81 C 0.79403 0.14306 0.33161 0.0
C82 C 0.7677 0.14431 0.29146 0.0
C83 C 0.73167 0.08392 0.27596 0.0
C84 C 0.78443 0.08033 0.35459 0.0
H85 H 0.69279 0.97772 0.28914 0.0
C86 C 0.69034 0.83067 0.32034 0.0
O87 O 0.89805 0.72018 0.32594 0.0
O88 O 0.8986 0.82483 0.29545 0.0
N89 N 0.79417 0.01428 0.41481 0.0
C90 C 0.8085 1.00791 0.45549 0.0
C91 C 0.84097 0.06529 0.47624 0.0
C92 C 0.8569 0.12901 0.45514 0.0
C93 C 0.83981 0.1351 0.41367 0.0
C94 C 0.80751 0.07618 0.39455 0.0
H95 H 0.79524 0.95946 0.47204 0.0
O96 O 0.92894 0.84468 0.37828 0.0
O97 O 0.8355 0.90989 0.36021 0.0
O98 O 0.79889 0.77653 0.40316 0.0
O99 O 0.73972 0.8756 0.42368 0.0
C100 C 0.85089 0.19846 0.39103 0.0
C101 C 0.82781 0.20232 0.35008 0.0
H102 H 0.77399 0.19165 0.2725 0.0
H103 H 0.71058 0.08459 0.24513 0.0
H104 H 0.85284 0.06067 0.50845 0.0
H105 H 0.88 0.17396 0.47117 0.0
H106 H 0.87562 0.24503 0.40507 0.0
H107 H 0.83436 0.25172 0.33341 0.0
Mn108 Mn 0.72283 0.33697 0.84179 0.0
Mn109 Mn 0.58135 0.24744 0.88111 0.0
C110 C 0.62754 0.39944 0.87147 0.0
C111 C 0.77647 0.40863 0.79069 0.0
C112 C 0.71999 0.26898 0.92767 0.0
O113 O 0.73343 0.2378 0.81411 0.0
O114 O 0.64318 0.18169 0.84752 0.0
C115 C 0.50568 0.21435 0.80349 0.0
N116 N 0.5071 0.2481 0.84047 0.0
C117 C 0.38673 0.29369 0.83077 0.0
C118 C 0.38458 0.26068 0.79225 0.0
C119 C 0.44433 0.22069 0.77858 0.0
C120 C 0.4498 0.28663 0.85391 0.0
H121 H 0.55048 0.18192 0.79329 0.0
C122 C 0.69618 0.18157 0.82236 0.0
O123 O 0.81517 0.37757 0.81886 0.0
O124 O 0.70986 0.38896 0.78867 0.0
N125 N 0.5162 0.30346 0.91343 0.0
C126 C 0.52208 0.32137 0.95367 0.0
C127 C 0.46515 0.3578 0.973 0.0
C128 C 0.40184 0.37358 0.95117 0.0
C129 C 0.39564 0.35132 0.91042 0.0
C130 C 0.45438 0.31546 0.89265 0.0
H131 H 0.57006 0.30844 0.97091 0.0
O132 O 0.69125 0.42698 0.86971 0.0
O133 O 0.62158 0.33451 0.85672 0.0
O134 O 0.75563 0.29462 0.89747 0.0
O135 O 0.65438 0.24914 0.92482 0.0
C136 C 0.33226 0.36043 0.88736 0.0
C137 C 0.32788 0.33139 0.84764 0.0
H138 H 0.33688 0.2646 0.77328 0.0
H139 H 0.44272 0.19402 0.74917 0.0
H140 H 0.47039 0.37345 1.00464 0.0
H141 H 0.35761 0.40119 0.96616 0.0
H142 H 0.28592 0.38784 0.90033 0.0
H143 H 0.27829 0.33626 0.83081 0.0
Mn144 Mn 0.68054 0.30393 0.17792 0.0
Mn145 Mn 0.78203 0.44492 0.149 0.0
C146 C 0.62649 0.40725 0.15204 0.0
C147 C 0.60098 0.25389 0.22743 0.0
C148 C 0.76612 0.30895 0.09721 0.0
O149 O 0.77803 0.28157 0.20576 0.0
O150 O 0.83848 0.38155 0.18631 0.0
C151 C 0.79208 0.51701 0.2296 0.0
N152 N 0.77204 0.51854 0.18959 0.0
C153 C 0.71871 0.63606 0.1977 0.0
C154 C 0.73747 0.63506 0.23919 0.0
C155 C 0.77383 0.57494 0.25527 0.0
C156 C 0.73643 0.57586 0.17392 0.0
H157 H 0.82138 0.47185 0.24179 0.0
C158 C 0.83445 0.32151 0.20543 0.0
O159 O 0.62631 0.21589 0.19719 0.0
O160 O 0.63167 0.31543 0.23204 0.0
N161 N 0.73361 0.51067 0.11326 0.0
C162 C 0.72102 0.50397 0.07243 0.0
C163 C 0.68707 0.56047 0.05134 0.0
C164 C 0.66742 0.6237 0.07226 0.0
C165 C 0.68237 0.62993 0.11405 0.0
C166 C 0.71722 0.57221 0.13334 0.0
H167 H 0.73605 0.45563 0.05613 0.0
O168 O 0.59364 0.34627 0.151 0.0
O169 O 0.691 0.40541 0.16744 0.0
O170 O 0.72226 0.27645 0.1212 0.0
O171 O 0.79094 0.37154 0.10545 0.0
C172 C 0.66451 0.69134 0.13726 0.0
C173 C 0.68242 0.69411 0.17909 0.0
H174 H 0.72408 0.68001 0.25895 0.0
H175 H 0.7883 0.5735 0.28731 0.0
H176 H 0.67555 0.55466 0.01918 0.0
H177 H 0.64148 0.66749 0.05607 0.0
H178 H 0.63704 0.73668 0.12326 0.0
H179 H 0.66866 0.74127 0.19666 0.0
Mn180 Mn 0.21862 0.17603 0.68071 0.0
Mn181 Mn 0.08148 0.2823 0.64832 0.0
C182 C 0.11328 0.12275 0.65408 0.0
C183 C 0.27222 0.09946 0.73036 0.0
C184 C 0.21913 0.25676 0.59806 0.0
O185 O 0.24061 0.27355 0.70914 0.0
O186 O 0.14539 0.33707 0.68555 0.0
C187 C 1.00607 0.30285 0.72751 0.0
N188 N 1.00658 0.27721 0.68852 0.0
C189 C 0.88714 0.22916 0.69639 0.0
C190 C 0.88623 0.25333 0.73698 0.0
C191 C 0.94583 0.29073 0.75254 0.0
C192 C 0.94929 0.24147 0.67322 0.0
H193 H 0.0509 0.33297 0.73923 0.0
C194 C 0.20287 0.3317 0.70683 0.0
O195 O 0.30973 0.12724 0.70082 0.0
O196 O 0.20721 0.12402 0.73411 0.0
N197 N 0.01362 0.239 0.61236 0.0
C198 C 0.01464 0.24069 0.57079 0.0
C199 C 0.9565 0.21251 0.54886 0.0
C200 C 0.89551 0.18735 0.56985 0.0
C201 C 0.89233 0.19401 0.61253 0.0
C202 C 0.9526 0.22215 0.63263 0.0
H203 H 0.05973 0.26315 0.5545 0.0
O204 O 0.17491 0.08976 0.65354 0.0
O205 O 0.11582 0.18817 0.6687 0.0
O206 O 0.2507 0.21572 0.62403 0.0
O207 O 0.15667 0.28474 0.60458 0.0
C208 C 0.83024 0.17835 0.63558 0.0
C209 C 0.82789 0.19556 0.67757 0.0
H210 H 0.83942 0.24499 0.75613 0.0
H211 H 0.94509 0.31078 0.7836 0.0
H212 H 0.95906 0.21148 0.51595 0.0
H213 H 0.84998 0.16682 0.55286 0.0
H214 H 0.78313 0.15554 0.62104 0.0
H215 H 0.77928 0.18541 0.69473 0.0
Mn216 Mn 0.34684 0.72642 0.18255 0.0
Mn217 Mn 0.26115 0.57715 0.15225 0.0
C218 C 0.41152 0.6308 0.15528 0.0
C219 C 0.42011 0.78255 0.23247 0.0
C220 C 0.26861 0.71166 0.09933 0.0
O221 O 0.24684 0.73912 0.21004 0.0
O222 O 0.19569 0.63999 0.18482 0.0
C223 C 0.24477 0.51343 0.23475 0.0
N224 N 0.27094 0.50924 0.1959 0.0
C225 C 0.32603 0.39405 0.20953 0.0
C226 C 0.29938 0.39701 0.2496 0.0
C227 C 0.25872 0.45702 0.26229 0.0
C228 C 0.31083 0.4521 0.18356 0.0
H229 H 0.21346 0.55942 0.24466 0.0
C230 C 0.19107 0.69947 0.20432 0.0
O231 O 0.38936 0.82008 0.20361 0.0
O232 O 0.39863 0.71704 0.23582 0.0
N233 N 0.31712 0.51064 0.12083 0.0
C234 C 0.33141 0.51244 0.08003 0.0
C235 C 0.36958 0.4553 0.06202 0.0
C236 C 0.39117 0.39606 0.08589 0.0
C237 C 0.3731 0.39403 0.12747 0.0
C238 C 0.33471 0.45253 0.1437 0.0
H239 H 0.31438 0.55747 0.06143 0.0
O240 O 0.43751 0.69506 0.15501 0.0
O241 O 0.34766 0.6246 0.17132 0.0
O242 O 0.30216 0.75046 0.12569 0.0
O243 O 0.25325 0.64547 0.10616 0.0
C244 C 0.38989 0.33542 0.15316 0.0
C245 C 0.36625 0.33541 0.19414 0.0
H246 H 0.30945 0.35342 0.27081 0.0
H247 H 0.23798 0.45965 0.29319 0.0
H248 H 0.38255 0.4575 0.0299 0.0
H249 H 0.42064 0.35197 0.07194 0.0
H250 H 0.41991 0.28956 0.14155 0.0
H251 H 0.3782 0.28944 0.2133 0.0
Mn252 Mn 0.80038 0.83622 0.68884 0.0
Mn253 Mn 0.94544 0.75124 0.64978 0.0
C254 C 0.89499 0.90194 0.66358 0.0
C255 C 0.74456 0.90639 0.73977 0.0
C256 C 0.80867 0.77406 0.60121 0.0
O257 O 0.79109 0.73552 0.71433 0.0
O258 O 0.88324 0.68166 0.6806 0.0
C259 C 0.02053 0.70648 0.72571 0.0
N260 N 0.01808 0.7476 0.69125 0.0
C261 C 0.13601 0.79486 0.70491 0.0
C262 C 0.1385 0.75526 0.74135 0.0
C263 C 0.08063 0.71045 0.75166 0.0
C264 C 0.07431 0.78943 0.68054 0.0
H265 H 0.97786 0.66959 0.73285 0.0
C266 C 0.82952 0.67997 0.70539 0.0
O267 O 0.70684 0.87637 0.71093 0.0
O268 O 0.81067 0.8849 0.74297 0.0
N269 N 1.01027 0.81226 0.62075 0.0
C270 C 1.00398 0.83909 0.58215 0.0
C271 C 0.05871 0.88294 0.56646 0.0
C272 C 0.12039 0.8966 0.58999 0.0
C273 C 0.12704 0.86566 0.6288 0.0
C274 C 0.07019 0.82358 0.64323 0.0
H275 H 0.95689 0.82847 0.56375 0.0
O276 O 0.83034 0.92792 0.66383 0.0
O277 O 0.90258 0.83574 0.67643 0.0
O278 O 0.77095 0.79732 0.63141 0.0
O279 O 0.87483 0.75598 0.60482 0.0
C280 C 0.18876 0.87344 0.65325 0.0
C281 C 0.19338 0.83763 0.69114 0.0
H282 H 0.18526 0.7575 0.7611 0.0
H283 H 0.08284 0.67816 0.77918 0.0
H284 H 0.0528 0.90682 0.53658 0.0
H285 H 0.16281 0.93014 0.57795 0.0
H286 H 0.23355 0.90527 0.64253 0.0
H287 H 0.24189 0.84158 0.709 0.0
C288 C 0.04378 0.0322 0.34084 0.0
C289 C 0.07319 0.0582 0.37802 0.0
C290 C 0.98412 0.98678 0.41553 0.0
C291 C 0.94853 0.96983 0.3785 0.0
N292 N 0.93654 0.99252 0.30586 0.0
N293 N 0.0571 0.07374 0.45062 0.0
C294 C 0.97536 0.99824 0.34118 0.0
C295 C 0.03886 0.03976 0.41535 0.0
N296 N 0.0813 0.03866 0.30511 0.0
N297 N 0.9672 0.9514 0.45081 0.0
H298 H 0.09942 0.10983 0.45167 0.0
H299 H 0.02787 0.06843 0.47768 0.0
H300 H 0.92698 0.91245 0.45242 0.0
H301 H 0.99634 0.95798 0.47777 0.0
H302 H 0.06446 0.01553 0.27772 0.0
H303 H 0.13341 0.05892 0.30372 0.0
H304 H 0.9511 0.01862 0.27892 0.0
H305 H 0.886 0.96882 0.30428 0.0
C306 C 0.49855 0.54361 0.83654 0.0
C307 C 0.46972 0.56964 0.87397 0.0
C308 C 0.54723 0.4847 0.91081 0.0
C309 C 0.56616 0.45073 0.87345 0.0
N310 N 0.54513 0.43997 0.80061 0.0
N311 N 0.45288 0.54976 0.94637 0.0
C312 C 0.53701 0.47745 0.83628 0.0
C313 C 0.48953 0.53534 0.91109 0.0
N314 N 0.49 0.58161 0.80109 0.0
N315 N 0.58477 0.47008 0.94574 0.0
H316 H 0.41027 0.58664 0.94776 0.0
H317 H 0.46251 0.52189 0.97351 0.0
H318 H 0.62758 0.43339 0.94664 0.0
H319 H 0.57581 0.4978 0.97301 0.0
H320 H 0.51639 0.5678 0.77404 0.0
H321 H 0.46384 0.63117 0.79945 0.0
H322 H 0.51853 0.45422 0.77371 0.0
H323 H 0.57126 0.39041 0.79867 0.0
C324 C 0.55872 0.50384 0.18855 0.0
C325 C 0.58105 0.47283 0.15095 0.0
C326 C 0.49539 0.55102 0.11508 0.0
C327 C 0.46381 0.57066 0.15298 0.0
N328 N 0.45922 0.55435 0.2264 0.0
N329 N 0.56016 0.4576 0.07856 0.0
C330 C 0.49351 0.54362 0.1899 0.0
C331 C 0.54622 0.49357 0.11414 0.0
N332 N 0.59892 0.49543 0.22323 0.0
N333 N 0.47748 0.58713 0.08014 0.0
H334 H 0.59743 0.41543 0.07665 0.0
H335 H 0.53163 0.46714 0.05164 0.0
H336 H 0.43934 0.62866 0.07955 0.0
H337 H 0.50365 0.57826 0.05239 0.0
H338 H 0.58894 0.52462 0.24989 0.0
H339 H 0.64544 0.4642 0.22481 0.0
H340 H 0.47563 0.52962 0.25346 0.0
H341 H 0.4101 0.58104 0.22922 0.0
C342 C 0.01481 0.04775 0.62068 0.0
C343 C 0.04748 0.07582 0.65652 0.0
C344 C 0.99094 0.97834 0.69582 0.0
C345 C 0.9544 0.9545 0.66011 0.0
N346 N 0.91699 0.98056 0.59097 0.0
N347 N 0.04741 0.07909 0.73011 0.0
C348 C 0.9615 0.99387 0.62341 0.0
C349 C 0.02968 0.04446 0.69473 0.0
N350 N 0.03552 0.07175 0.58356 0.0
N351 N 0.98848 0.93867 0.73094 0.0
H352 H 0.07076 0.12994 0.73031 0.0
H353 H 0.0306 0.06199 0.75889 0.0
H354 H 0.95963 0.89101 0.73365 0.0
H355 H 0.02055 0.94969 0.75631 0.0
H356 H 0.02218 0.04708 0.55596 0.0
H357 H 0.06725 0.11657 0.58176 0.0
H358 H 0.91488 0.01358 0.56528 0.0
H359 H 0.87967 0.93876 0.59046 0.0
C360 C 0.18879 0.23691 0.48768 0.0
C361 C 0.25161 0.25808 0.46711 0.0
C362 C 0.30079 0.2894 0.53544 0.0
C363 C 0.24193 0.2529 0.55397 0.0
N364 N 0.16307 0.15486 0.5408 0.0
N365 N 0.37335 0.3015 0.47311 0.0
C366 C 0.19495 0.21606 0.52817 0.0
C367 C 0.31016 0.28357 0.49152 0.0
N368 N 0.1231 0.23404 0.46965 0.0
N369 N 0.34689 0.32797 0.55911 0.0
H370 H 0.37924 0.29959 0.44137 0.0
H371 H 0.41949 0.31526 0.48945 0.0
H372 H 0.34091 0.33046 0.59083 0.0
H373 H 0.38785 0.35962 0.54695 0.0
H374 H 0.11304 0.25334 0.44028 0.0
H375 H 0.11304 0.25334 0.44028 0.0
H376 H 0.12968 0.12535 0.52142 0.0
H377 H 0.17898 0.13042 0.56814 0.0
C378 C 0.29464 0.81012 0.99674 0.0
C379 C 0.28094 0.75011 0.97071 0.0
C380 C 0.22016 0.69218 0.02827 0.0
C381 C 0.25475 0.73904 0.05623 0.0
N382 N 0.3074 0.85668 0.06577 0.0
N383 N 0.23556 0.62759 0.96534 0.0
C384 C 0.2865 0.80275 0.04014 0.0
C385 C 0.24379 0.68978 0.98713 0.0
N386 N 0.31269 0.87477 0.97971 0.0
N387 N 0.16388 0.65069 0.04083 0.0
H388 H 0.25615 0.61928 0.93618 0.0
H389 H 0.21471 0.58089 0.97842 0.0
H390 H 0.14127 0.65633 0.06991 0.0
H391 H 0.13421 0.61884 0.02073 0.0
H392 H 0.31804 0.92224 0.99633 0.0
H393 H 0.31497 0.88246 0.94813 0.0
H394 H 0.34157 0.89818 0.05695 0.0
H395 H 0.28824 0.86122 0.09559 0.0
C396 C 0.73487 0.82846 0.54255 0.0
C397 C 0.77744 0.77112 0.55867 0.0
C398 C 0.78828 0.72079 0.4887 0.0
C399 C 0.7502 0.78158 0.47291 0.0
N400 N 0.65149 0.86185 0.48906 0.0
N401 N 0.82009 0.64948 0.54862 0.0
C402 C 0.71149 0.82491 0.5013 0.0
C403 C 0.79668 0.71305 0.53212 0.0
N404 N 0.72074 0.88917 0.56481 0.0
N405 N 0.8151 0.66975 0.46277 0.0
H406 H 0.82247 0.64093 0.58013 0.0
H407 H 0.82962 0.60306 0.53156 0.0
H408 H 0.79718 0.66439 0.43276 0.0
H409 H 0.85333 0.63143 0.47149 0.0
H410 H 0.69562 0.93428 0.55205 0.0
H411 H 0.74038 0.89833 0.5941 0.0
H412 H 0.61904 0.89075 0.50939 0.0
H413 H 0.62935 0.85491 0.45997 0.0
C414 C 0.73803 0.20813 0.9961 0.0
C415 C 0.7528 0.26719 0.96956 0.0
C416 C 0.81645 0.32463 0.02621 0.0
C417 C 0.78048 0.27988 0.05463 0.0
N418 N 0.72622 0.1638 0.06575 0.0
N419 N 0.80141 0.38843 0.9631 0.0
C420 C 0.74722 0.21648 0.03934 0.0
C421 C 0.792 0.32686 0.98527 0.0
N422 N 0.71761 0.14368 0.97972 0.0
N423 N 0.8747 0.36402 0.038 0.0
H424 H 0.78011 0.397 0.93413 0.0
H425 H 0.82405 0.43465 0.97577 0.0
H426 H 0.89834 0.35752 0.06675 0.0
H427 H 0.90488 0.39443 0.01743 0.0
H428 H 0.71086 0.09687 0.99673 0.0
H429 H 0.71437 0.1353 0.94823 0.0
H430 H 0.69207 0.12184 0.05765 0.0
H431 H 0.74494 0.16137 0.09578 0.0
C432 C 0.49671 0.16822 0.24675 0.0
C433 C 0.532 0.23608 0.25067 0.0
C434 C 0.43752 0.27145 0.30037 0.0
C435 C 0.39849 0.20812 0.29208 0.0
N436 N 0.38233 0.11009 0.24413 0.0
N437 N 0.50598 0.36213 0.26661 0.0
C438 C 0.42515 0.16067 0.26153 0.0
C439 C 0.49497 0.29076 0.27389 0.0
N440 N 0.52934 0.11049 0.22862 0.0
N441 N 0.41853 0.31508 0.33223 0.0
H442 H 0.52948 0.38012 0.23974 0.0
H443 H 0.47776 0.40266 0.28195 0.0
H444 H 0.37549 0.3038 0.35171 0.0
H445 H 0.44959 0.35923 0.34088 0.0
H446 H 0.50276 0.06144 0.22499 0.0
H447 H 0.584 0.10852 0.22171 0.0
H448 H 0.32719 0.10623 0.25014 0.0
H449 H 0.32719 0.10623 0.25014 0.0
C450 C 0.3387 0.90728 0.75669 0.0
C451 C 0.31492 0.90121 0.79783 0.0
C452 C 0.28109 0.03011 0.79692 0.0
C453 C 0.29592 0.03387 0.75428 0.0
N454 N 0.33132 0.97114 0.69231 0.0
N455 N 0.2575 0.9551 0.85635 0.0
C456 C 0.32373 0.97148 0.73391 0.0
C457 C 0.28469 0.96233 0.81774 0.0
N458 N 0.37526 0.85112 0.73904 0.0
N459 N 0.26636 0.09214 0.81792 0.0
H460 H 0.25931 0.90654 0.8724 0.0
H461 H 0.22786 0.99516 0.87112 0.0
H462 H 0.26598 0.14269 0.80399 0.0
H463 H 0.26199 0.09463 0.84962 0.0
H464 H 0.40374 0.85542 0.71173 0.0
H465 H 0.38141 0.80098 0.753 0.0
H466 H 0.34636 0.9259 0.67553 0.0
H467 H 0.31628 0.01353 0.67339 0.0
C468 C 0.61682 0.83709 0.25516 0.0
C469 C 0.62346 0.8138 0.29635 0.0
C470 C 0.49289 0.78849 0.29761 0.0
C471 C 0.48725 0.80489 0.2552 0.0
N472 N 0.54843 0.83526 0.19203 0.0
N473 N 0.56989 0.75937 0.35558 0.0
C474 C 0.55026 0.82745 0.23361 0.0
C475 C 0.5619 0.78739 0.31719 0.0
N476 N 0.6743 0.8691 0.23652 0.0
N477 N 0.43154 0.77588 0.31954 0.0
H478 H 0.61949 0.75754 0.37063 0.0
H479 H 0.52923 0.73228 0.37108 0.0
H480 H 0.3804 0.77684 0.30635 0.0
H481 H 0.43036 0.77119 0.35124 0.0
H482 H 0.67058 0.89678 0.20892 0.0
H483 H 0.7253 0.87163 0.24987 0.0
H484 H 0.59398 0.84408 0.17419 0.0
H485 H 0.50265 0.82773 0.17431 0.0
C486 C 0.73342 0.05043 0.82291 0.0
C487 C 0.71059 0.11199 0.80045 0.0
C488 C 0.70325 0.03754 0.73817 0.0
C489 C 0.72189 0.97463 0.76119 0.0
N490 N 0.74213 0.91983 0.82683 0.0
N491 N 0.6604 0.16129 0.73849 0.0
C492 C 0.73322 0.98089 0.80402 0.0
C493 C 0.69165 0.10462 0.75863 0.0
N494 N 0.75779 0.05894 0.86205 0.0
N495 N 0.70067 0.03502 0.69641 0.0
H496 H 0.65446 0.21238 0.75135 0.0
H497 H 0.63589 0.15644 0.70998 0.0
H498 H 0.70686 0.98826 0.67933 0.0
H499 H 0.69721 0.08077 0.67809 0.0
H500 H 0.78199 0.01789 0.87892 0.0
H501 H 0.75975 0.10905 0.87645 0.0
H502 H 0.74332 0.9195 0.85865 0.0
H503 H 0.74159 0.8684 0.81399 0.0
C504 C 0.02825 0.26416 0.22713 0.0
C505 C 0.03544 0.28246 0.26914 0.0
C506 C 0.90881 0.32429 0.26966 0.0
C507 C 0.90016 0.30005 0.22887 0.0
N508 N 0.94825 0.23891 0.16999 0.0
N509 N 0.97727 0.31807 0.33251 0.0
C510 C 0.95899 0.26747 0.20802 0.0
C511 C 0.97451 0.31 0.29095 0.0
N512 N 0.08839 0.24653 0.20505 0.0
N513 N 0.85385 0.36118 0.2882 0.0
H514 H 0.02177 0.30461 0.35029 0.0
H515 H 0.93306 0.33246 0.35036 0.0
H516 H 0.80214 0.36461 0.27576 0.0
H517 H 0.86014 0.3904 0.31514 0.0
H518 H 0.0884 0.23927 0.1735 0.0
H519 H 0.14001 0.24598 0.21774 0.0
H520 H 0.98658 0.208 0.1546 0.0
H521 H 0.89841 0.24095 0.1552 0.0
C522 C 0.19781 0.407 0.77114 0.0
C523 C 0.22293 0.39792 0.73047 0.0
C524 C 0.25467 0.52691 0.72854 0.0
C525 C 0.23714 0.53424 0.77068 0.0
N526 N 0.20278 0.47569 0.834 0.0
N527 N 0.28271 0.44704 0.67163 0.0
C528 C 0.21091 0.47299 0.79246 0.0
C529 C 0.2536 0.45739 0.70958 0.0
N530 N 0.1609 0.35236 0.78954 0.0
N531 N 0.26948 0.58719 0.70615 0.0
H532 H 0.28257 0.39706 0.65701 0.0
H533 H 0.3124 0.48596 0.65624 0.0
H534 H 0.26799 0.63889 0.71867 0.0
H535 H 0.27594 0.58698 0.67453 0.0
H536 H 0.13172 0.35881 0.81651 0.0
H537 H 0.15651 0.3011 0.77672 0.0
H538 H 0.1896 0.43122 0.85178 0.0
H539 H 0.21504 0.52037 0.85176 0.0
C540 C 0.05796 0.67082 0.22176 0.0
C541 C 0.11781 0.71945 0.22281 0.0
C542 C 0.04985 0.79468 0.27142 0.0
C543 C 0.99338 0.74278 0.27371 0.0
N544 N 0.95058 0.62513 0.25495 0.0
N545 N 0.14562 0.84528 0.23066 0.0
C546 C 0.99981 0.67879 0.25026 0.0
C547 C 0.10686 0.78656 0.24258 0.0
N548 N 0.05075 0.6236 0.18995 0.0
N549 N 0.05217 0.84995 0.29883 0.0
H550 H 0.17981 0.84452 0.20539 0.0
H551 H 0.13525 0.89721 0.24132 0.0
H552 H 0.01667 0.8541 0.3232 0.0
H553 H 0.0948 0.88597 0.30067 0.0
H554 H 1.00629 0.59027 0.18616 0.0
H555 H 0.08113 0.62722 0.16328 0.0
H556 H 0.9574 0.57373 0.24268 0.0
H557 H 0.90624 0.62976 0.27419 0.0
C558 C 0.78725 0.48059 0.72536 0.0
C559 C 0.80022 0.47503 0.76809 0.0
C560 C 0.83816 0.60255 0.7687 0.0
C561 C 0.8166 0.61018 0.72727 0.0
N562 N 0.76507 0.55814 0.66665 0.0
N563 N 0.82903 0.53534 0.83178 0.0
C564 C 0.78998 0.54944 0.70567 0.0
C565 C 0.82415 0.53697 0.79006 0.0
N566 N 0.77432 0.4194 0.70337 0.0
N567 N 0.87287 0.65801 0.78779 0.0
H568 H 0.81749 0.49049 0.84953 0.0
H569 H 0.83929 0.58058 0.84957 0.0
H570 H 0.87938 0.70868 0.7746 0.0
H571 H 0.89951 0.6525 0.81565 0.0
H572 H 0.77143 0.41807 0.6716 0.0
H573 H 0.77331 0.36841 0.71676 0.0
H574 H 0.73809 0.51822 0.65049 0.0
H575 H 0.76622 0.60756 0.65148 0.0
loop_
_geom_bond_atom_site_label_1
_geom_bond_atom_site_label_2
_geom_bond_distance
_geom_bond_site_symmetry_2
_ccdc_geom_bond_type
Mn0 O5 2.095 . S
Mn0 O15 2.162 . S
Mn0 O16 2.297 . S
Mn0 O24 2.385 . S
Mn0 O25 2.209 . S
Mn0 O26 2.094 . S
Mn1 O6 2.121 . S
Mn1 N8 2.257 . S
Mn1 N17 2.282 . S
Mn1 O25 2.215 . S
Mn1 O27 2.117 . S
C2 O24 1.234 . S
C2 O25 1.283 . S
C3 O15 1.281 1_655 S
C3 O16 1.236 1_655 S
C4 O26 1.240 . S
C4 O27 1.264 . S
O5 Mn0 2.095 . S
O5 C14 1.250 . S
O6 Mn1 2.121 . S
O6 C14 1.258 . S
C7 N8 1.326 . S
C7 C11 1.460 1_545 S
C7 H13 0.929 . S
N8 Mn1 2.257 . S
N8 C7 1.326 . S
N8 C12 1.362 1_545 S
C9 C10 1.258 . S
C9 C12 1.431 . S
C9 C29 1.449 . S
C10 C9 1.258 . S
C10 C11 1.477 . S
C10 H30 0.931 . S
C11 C7 1.460 1_565 S
C11 C10 1.477 . S
C11 H31 0.930 . S
C12 N8 1.362 1_565 S
C12 C9 1.431 . S
C12 C22 1.476 . S
H13 C7 0.929 . S
C14 O5 1.250 . S
C14 O6 1.258 . S
O15 Mn0 2.162 . S
O15 C3 1.281 1_455 S
O16 Mn0 2.297 . S
O16 C3 1.236 1_455 S
N17 Mn1 2.282 . S
N17 C18 1.328 . S
N17 C22 1.318 1_545 S
C18 N17 1.328 . S
C18 C19 1.457 1_545 S
C18 H23 0.929 . S
C19 C18 1.457 1_565 S
C19 C20 1.291 . S
C19 H32 0.931 . S
C20 C19 1.291 . S
C20 C21 1.373 . S
C20 H33 0.929 . S
C21 C20 1.373 . S
C21 C22 1.396 . S
C21 C28 1.403 . S
C22 C12 1.476 . S
C22 N17 1.318 1_565 S
C22 C21 1.396 . S
H23 C18 0.929 . S
O24 Mn0 2.385 . S
O24 C2 1.234 . S
O25 Mn0 2.209 . S
O25 Mn1 2.215 . S
O25 C2 1.283 . S
O26 Mn0 2.094 . S
O26 C4 1.240 . S
O27 Mn1 2.117 . S
O27 C4 1.264 . S
C28 C21 1.403 . S
C28 C29 1.399 . S
C28 H34 0.929 . S
C29 C9 1.449 . S
C29 C28 1.399 . S
C29 H35 0.930 . S
H30 C10 0.931 . S
H31 C11 0.930 . S
H32 C19 0.931 . S
H33 C20 0.929 . S
H34 C28 0.929 . S
H35 C29 0.930 . S
Mn36 O41 2.095 . S
Mn36 O51 2.162 . S
Mn36 O52 2.297 . S
Mn36 O60 2.385 . S
Mn36 O61 2.209 . S
Mn36 O62 2.094 . S
Mn37 O42 2.121 . S
Mn37 N44 2.257 . S
Mn37 N53 2.282 . S
Mn37 O61 2.215 . S
Mn37 O63 2.117 . S
C38 O60 1.234 . S
C38 O61 1.283 . S
C39 O51 1.281 . S
C39 O52 1.236 . S
C40 O62 1.240 . S
C40 O63 1.264 . S
O41 Mn36 2.095 . S
O41 C50 1.250 . S
O42 Mn37 2.121 . S
O42 C50 1.258 . S
C43 N44 1.326 . S
C43 C47 1.460 . S
C43 H49 0.929 . S
N44 Mn37 2.257 . S
N44 C43 1.326 . S
N44 C48 1.362 . S
C45 C46 1.258 . S
C45 C48 1.431 . S
C45 C65 1.449 . S
C46 C45 1.258 . S
C46 C47 1.477 . S
C46 H66 0.931 . S
C47 C43 1.460 . S
C47 C46 1.477 . S
C47 H67 0.930 . S
C48 N44 1.362 . S
C48 C45 1.431 . S
C48 C58 1.476 . S
H49 C43 0.929 . S
C50 O41 1.250 . S
C50 O42 1.258 . S
O51 Mn36 2.162 . S
O51 C39 1.281 . S
O52 Mn36 2.297 . S
O52 C39 1.236 . S
N53 Mn37 2.282 . S
N53 C54 1.328 . S
N53 C58 1.318 . S
C54 N53 1.328 . S
C54 C55 1.457 . S
C54 H59 0.929 . S
C55 C54 1.457 . S
C55 C56 1.291 . S
C55 H68 0.931 . S
C56 C55 1.291 . S
C56 C57 1.373 . S
C56 H69 0.929 . S
C57 C56 1.373 . S
C57 C58 1.396 . S
C57 C64 1.403 . S
C58 C48 1.476 . S
C58 N53 1.318 . S
C58 C57 1.396 . S
H59 C54 0.929 . S
O60 Mn36 2.385 . S
O60 C38 1.234 . S
O61 Mn36 2.209 . S
O61 Mn37 2.215 . S
O61 C38 1.283 . S
O62 Mn36 2.094 . S
O62 C40 1.240 . S
O63 Mn37 2.117 . S
O63 C40 1.264 . S
C64 C57 1.403 . S
C64 C65 1.399 . S
C64 H70 0.929 . S
C65 C45 1.449 . S
C65 C64 1.399 . S
C65 H71 0.930 . S
H66 C46 0.931 . S
H67 C47 0.930 . S
H68 C55 0.931 . S
H69 C56 0.929 . S
H70 C64 0.929 . S
H71 C65 0.930 . S
Mn72 O77 2.095 . S
Mn72 O87 2.162 . S
Mn72 O88 2.297 . S
Mn72 O96 2.385 . S
Mn72 O97 2.209 . S
Mn72 O98 2.094 . S
Mn73 O78 2.121 . S
Mn73 N80 2.257 . S
Mn73 N89 2.282 . S
Mn73 O97 2.215 . S
Mn73 O99 2.117 . S
C74 O96 1.234 . S
C74 O97 1.283 . S
C75 O87 1.281 1_455 S
C75 O88 1.236 1_455 S
C76 O98 1.240 . S
C76 O99 1.264 . S
O77 Mn72 2.095 . S
O77 C86 1.250 . S
O78 Mn73 2.121 . S
O78 C86 1.258 . S
C79 N80 1.326 . S
C79 C83 1.460 1_565 S
C79 H85 0.929 . S
N80 Mn73 2.257 . S
N80 C79 1.326 . S
N80 C84 1.362 1_565 S
C81 C82 1.258 . S
C81 C84 1.431 . S
C81 C101 1.449 . S
C82 C81 1.258 . S
C82 C83 1.477 . S
C82 H102 0.931 . S
C83 C79 1.460 1_545 S
C83 C82 1.477 . S
C83 H103 0.930 . S
C84 N80 1.362 1_545 S
C84 C81 1.431 . S
C84 C94 1.476 . S
H85 C79 0.929 . S
C86 O77 1.250 . S
C86 O78 1.258 . S
O87 Mn72 2.162 . S
O87 C75 1.281 1_655 S
O88 Mn72 2.297 . S
O88 C75 1.236 1_655 S
N89 Mn73 2.282 . S
N89 C90 1.328 . S
N89 C94 1.318 1_565 S
C90 N89 1.328 . S
C90 C91 1.457 1_565 S
C90 H95 0.929 . S
C91 C90 1.457 1_545 S
C91 C92 1.291 . S
C91 H104 0.931 . S
C92 C91 1.291 . S
C92 C93 1.373 . S
C92 H105 0.929 . S
C93 C92 1.373 . S
C93 C94 1.396 . S
C93 C100 1.403 . S
C94 C84 1.476 . S
C94 N89 1.318 1_545 S
C94 C93 1.396 . S
H95 C90 0.929 . S
O96 Mn72 2.385 . S
O96 C74 1.234 . S
O97 Mn72 2.209 . S
O97 Mn73 2.215 . S
O97 C74 1.283 . S
O98 Mn72 2.094 . S
O98 C76 1.240 . S
O99 Mn73 2.117 . S
O99 C76 1.264 . S
C100 C93 1.403 . S
C100 C101 1.399 . S
C100 H106 0.929 . S
C101 C81 1.449 . S
C101 C100 1.399 . S
C101 H107 0.930 . S
H102 C82 0.931 . S
H103 C83 0.930 . S
H104 C91 0.931 . S
H105 C92 0.929 . S
H106 C100 0.929 . S
H107 C101 0.930 . S
Mn108 O113 2.095 . S
Mn108 O123 2.162 . S
Mn108 O124 2.297 . S
Mn108 O132 2.385 . S
Mn108 O133 2.209 . S
Mn108 O134 2.094 . S
Mn109 O114 2.121 . S
Mn109 N116 2.257 . S
Mn109 N125 2.282 . S
Mn109 O133 2.215 . S
Mn109 O135 2.117 . S
C110 O132 1.234 . S
C110 O133 1.283 . S
C111 O123 1.281 . S
C111 O124 1.236 . S
C112 O134 1.240 . S
C112 O135 1.264 . S
O113 Mn108 2.095 . S
O113 C122 1.250 . S
O114 Mn109 2.121 . S
O114 C122 1.258 . S
C115 N116 1.326 . S
C115 C119 1.460 . S
C115 H121 0.929 . S
N116 Mn109 2.257 . S
N116 C115 1.326 . S
N116 C120 1.362 . S
C117 C118 1.258 . S
C117 C120 1.431 . S
C117 C137 1.449 . S
C118 C117 1.258 . S
C118 C119 1.477 . S
C118 H138 0.931 . S
C119 C115 1.460 . S
C119 C118 1.477 . S
C119 H139 0.930 . S
C120 N116 1.362 . S
C120 C117 1.431 . S
C120 C130 1.476 . S
H121 C115 0.929 . S
C122 O113 1.250 . S
C122 O114 1.258 . S
O123 Mn108 2.162 . S
O123 C111 1.281 . S
O124 Mn108 2.297 . S
O124 C111 1.236 . S
N125 Mn109 2.282 . S
N125 C126 1.328 . S
N125 C130 1.318 . S
C126 N125 1.328 . S
C126 C127 1.457 . S
C126 H131 0.929 . S
C127 C126 1.457 . S
C127 C128 1.291 . S
C127 H140 0.931 . S
C128 C127 1.291 . S
C128 C129 1.373 . S
C128 H141 0.929 . S
C129 C128 1.373 . S
C129 C130 1.396 . S
C129 C136 1.403 . S
C130 C120 1.476 . S
C130 N125 1.318 . S
C130 C129 1.396 . S
H131 C126 0.929 . S
O132 Mn108 2.385 . S
O132 C110 1.234 . S
O133 Mn108 2.209 . S
O133 Mn109 2.215 . S
O133 C110 1.283 . S
O134 Mn108 2.094 . S
O134 C112 1.240 . S
O135 Mn109 2.117 . S
O135 C112 1.264 . S
C136 C129 1.403 . S
C136 C137 1.399 . S
C136 H142 0.929 . S
C137 C117 1.449 . S
C137 C136 1.399 . S
C137 H143 0.930 . S
H138 C118 0.931 . S
H139 C119 0.930 . S
H140 C127 0.931 . S
H141 C128 0.929 . S
H142 C136 0.929 . S
H143 C137 0.930 . S
Mn144 O149 2.095 . S
Mn144 O159 2.162 . S
Mn144 O160 2.297 . S
Mn144 O168 2.385 . S
Mn144 O169 2.209 . S
Mn144 O170 2.094 . S
Mn145 O150 2.121 . S
Mn145 N152 2.257 . S
Mn145 N161 2.282 . S
Mn145 O169 2.215 . S
Mn145 O171 2.117 . S
C146 O168 1.234 . S
C146 O169 1.283 . S
C147 O159 1.281 . S
C147 O160 1.236 . S
C148 O170 1.240 . S
C148 O171 1.264 . S
O149 Mn144 2.095 . S
O149 C158 1.250 . S
O150 Mn145 2.121 . S
O150 C158 1.258 . S
C151 N152 1.326 . S
C151 C155 1.460 . S
C151 H157 0.929 . S
N152 Mn145 2.257 . S
N152 C151 1.326 . S
N152 C156 1.362 . S
C153 C154 1.258 . S
C153 C156 1.431 . S
C153 C173 1.449 . S
C154 C153 1.258 . S
C154 C155 1.477 . S
C154 H174 0.931 . S
C155 C151 1.460 . S
C155 C154 1.477 . S
C155 H175 0.930 . S
C156 N152 1.362 . S
C156 C153 1.431 . S
C156 C166 1.476 . S
H157 C151 0.929 . S
C158 O149 1.250 . S
C158 O150 1.258 . S
O159 Mn144 2.162 . S
O159 C147 1.281 . S
O160 Mn144 2.297 . S
O160 C147 1.236 . S
N161 Mn145 2.282 . S
N161 C162 1.328 . S
N161 C166 1.318 . S
C162 N161 1.328 . S
C162 C163 1.457 . S
C162 H167 0.929 . S
C163 C162 1.457 . S
C163 C164 1.291 . S
C163 H176 0.931 . S
C164 C163 1.291 . S
C164 C165 1.373 . S
C164 H177 0.929 . S
C165 C164 1.373 . S
C165 C166 1.396 . S
C165 C172 1.403 . S
C166 C156 1.476 . S
C166 N161 1.318 . S
C166 C165 1.396 . S
H167 C162 0.929 . S
O168 Mn144 2.385 . S
O168 C146 1.234 . S
O169 Mn144 2.209 . S
O169 Mn145 2.215 . S
O169 C146 1.283 . S
O170 Mn144 2.094 . S
O170 C148 1.240 . S
O171 Mn145 2.117 . S
O171 C148 1.264 . S
C172 C165 1.403 . S
C172 C173 1.399 . S
C172 H178 0.929 . S
C173 C153 1.449 . S
C173 C172 1.399 . S
C173 H179 0.930 . S
H174 C154 0.931 . S
H175 C155 0.930 . S
H176 C163 0.931 . S
H177 C164 0.929 . S
H178 C172 0.929 . S
H179 C173 0.930 . S
Mn180 O185 2.095 . S
Mn180 O195 2.162 . S
Mn180 O196 2.297 . S
Mn180 O204 2.385 . S
Mn180 O205 2.209 . S
Mn180 O206 2.094 . S
Mn181 O186 2.121 . S
Mn181 N188 2.257 . S
Mn181 N197 2.282 . S
Mn181 O205 2.215 . S
Mn181 O207 2.117 . S
C182 O204 1.234 . S
C182 O205 1.283 . S
C183 O195 1.281 1_565 S
C183 O196 1.236 1_565 S
C184 O206 1.240 . S
C184 O207 1.264 . S
O185 Mn180 2.095 . S
O185 C194 1.250 . S
O186 Mn181 2.121 . S
O186 C194 1.258 . S
C187 N188 1.326 . S
C187 C191 1.460 1_455 S
C187 H193 0.929 . S
N188 Mn181 2.257 . S
N188 C187 1.326 . S
N188 C192 1.362 1_455 S
C189 C190 1.258 . S
C189 C192 1.431 . S
C189 C209 1.449 . S
C190 C189 1.258 . S
C190 C191 1.477 . S
C190 H210 0.931 . S
C191 C187 1.460 1_655 S
C191 C190 1.477 . S
C191 H211 0.930 . S
C192 N188 1.362 1_655 S
C192 C189 1.431 . S
C192 C202 1.476 . S
H193 C187 0.929 . S
C194 O185 1.250 . S
C194 O186 1.258 . S
O195 Mn180 2.162 . S
O195 C183 1.281 1_545 S
O196 Mn180 2.297 . S
O196 C183 1.236 1_545 S
N197 Mn181 2.282 . S
N197 C198 1.328 . S
N197 C202 1.318 1_455 S
C198 N197 1.328 . S
C198 C199 1.457 1_455 S
C198 H203 0.929 . S
C199 C198 1.457 1_655 S
C199 C200 1.291 . S
C199 H212 0.931 . S
C200 C199 1.291 . S
C200 C201 1.373 . S
C200 H213 0.929 . S
C201 C200 1.373 . S
C201 C202 1.396 . S
C201 C208 1.403 . S
C202 C192 1.476 . S
C202 N197 1.318 1_655 S
C202 C201 1.396 . S
H203 C198 0.929 . S
O204 Mn180 2.385 . S
O204 C182 1.234 . S
O205 Mn180 2.209 . S
O205 Mn181 2.215 . S
O205 C182 1.283 . S
O206 Mn180 2.094 . S
O206 C184 1.240 . S
O207 Mn181 2.117 . S
O207 C184 1.264 . S
C208 C201 1.403 . S
C208 C209 1.399 . S
C208 H214 0.929 . S
C209 C189 1.449 . S
C209 C208 1.399 . S
C209 H215 0.930 . S
H210 C190 0.931 . S
H211 C191 0.930 . S
H212 C199 0.931 . S
H213 C200 0.929 . S
H214 C208 0.929 . S
H215 C209 0.930 . S
Mn216 O221 2.095 . S
Mn216 O231 2.162 . S
Mn216 O232 2.297 . S
Mn216 O240 2.385 . S
Mn216 O241 2.209 . S
Mn216 O242 2.094 . S
Mn217 O222 2.121 . S
Mn217 N224 2.257 . S
Mn217 N233 2.282 . S
Mn217 O241 2.215 . S
Mn217 O243 2.117 . S
C218 O240 1.234 . S
C218 O241 1.283 . S
C219 O231 1.281 . S
C219 O232 1.236 . S
C220 O242 1.240 . S
C220 O243 1.264 . S
O221 Mn216 2.095 . S
O221 C230 1.250 . S
O222 Mn217 2.121 . S
O222 C230 1.258 . S
C223 N224 1.326 . S
C223 C227 1.460 . S
C223 H229 0.929 . S
N224 Mn217 2.257 . S
N224 C223 1.326 . S
N224 C228 1.362 . S
C225 C226 1.258 . S
C225 C228 1.431 . S
C225 C245 1.449 . S
C226 C225 1.258 . S
C226 C227 1.477 . S
C226 H246 0.931 . S
C227 C223 1.460 . S
C227 C226 1.477 . S
C227 H247 0.930 . S
C228 N224 1.362 . S
C228 C225 1.431 . S
C228 C238 1.476 . S
H229 C223 0.929 . S
C230 O221 1.250 . S
C230 O222 1.258 . S
O231 Mn216 2.162 . S
O231 C219 1.281 . S
O232 Mn216 2.297 . S
O232 C219 1.236 . S
N233 Mn217 2.282 . S
N233 C234 1.328 . S
N233 C238 1.318 . S
C234 N233 1.328 . S
C234 C235 1.457 . S
C234 H239 0.929 . S
C235 C234 1.457 . S
C235 C236 1.291 . S
C235 H248 0.931 . S
C236 C235 1.291 . S
C236 C237 1.373 . S
C236 H249 0.929 . S
C237 C236 1.373 . S
C237 C238 1.396 . S
C237 C244 1.403 . S
C238 C228 1.476 . S
C238 N233 1.318 . S
C238 C237 1.396 . S
H239 C234 0.929 . S
O240 Mn216 2.385 . S
O240 C218 1.234 . S
O241 Mn216 2.209 . S
O241 Mn217 2.215 . S
O241 C218 1.283 . S
O242 Mn216 2.094 . S
O242 C220 1.240 . S
O243 Mn217 2.117 . S
O243 C220 1.264 . S
C244 C237 1.403 . S
C244 C245 1.399 . S
C244 H250 0.929 . S
C245 C225 1.449 . S
C245 C244 1.399 . S
C245 H251 0.930 . S
H246 C226 0.931 . S
H247 C227 0.930 . S
H248 C235 0.931 . S
H249 C236 0.929 . S
H250 C244 0.929 . S
H251 C245 0.930 . S
Mn252 O257 2.095 . S
Mn252 O267 2.162 . S
Mn252 O268 2.297 . S
Mn252 O276 2.385 . S
Mn252 O277 2.209 . S
Mn252 O278 2.094 . S
Mn253 O258 2.121 . S
Mn253 N260 2.257 . S
Mn253 N269 2.282 . S
Mn253 O277 2.215 . S
Mn253 O279 2.117 . S
C254 O276 1.234 . S
C254 O277 1.283 . S
C255 O267 1.281 1_545 S
C255 O268 1.236 1_545 S
C256 O278 1.240 . S
C256 O279 1.264 . S
O257 Mn252 2.095 . S
O257 C266 1.250 . S
O258 Mn253 2.121 . S
O258 C266 1.258 . S
C259 N260 1.326 . S
C259 C263 1.460 1_655 S
C259 H265 0.929 . S
N260 Mn253 2.257 . S
N260 C259 1.326 . S
N260 C264 1.362 1_655 S
C261 C262 1.258 . S
C261 C264 1.431 . S
C261 C281 1.449 . S
C262 C261 1.258 . S
C262 C263 1.477 . S
C262 H282 0.931 . S
C263 C259 1.460 1_455 S
C263 C262 1.477 . S
C263 H283 0.930 . S
C264 N260 1.362 1_455 S
C264 C261 1.431 . S
C264 C274 1.476 . S
H265 C259 0.929 . S
C266 O257 1.250 . S
C266 O258 1.258 . S
O267 Mn252 2.162 . S
O267 C255 1.281 1_565 S
O268 Mn252 2.297 . S
O268 C255 1.236 1_565 S
N269 Mn253 2.282 . S
N269 C270 1.328 . S
N269 C274 1.318 1_655 S
C270 N269 1.328 . S
C270 C271 1.457 1_655 S
C270 H275 0.929 . S
C271 C270 1.457 1_455 S
C271 C272 1.291 . S
C271 H284 0.931 . S
C272 C271 1.291 . S
C272 C273 1.373 . S
C272 H285 0.929 . S
C273 C272 1.373 . S
C273 C274 1.396 . S
C273 C280 1.403 . S
C274 C264 1.476 . S
C274 N269 1.318 1_455 S
C274 C273 1.396 . S
H275 C270 0.929 . S
O276 Mn252 2.385 . S
O276 C254 1.234 . S
O277 Mn252 2.209 . S
O277 Mn253 2.215 . S
O277 C254 1.283 . S
O278 Mn252 2.094 . S
O278 C256 1.240 . S
O279 Mn253 2.117 . S
O279 C256 1.264 . S
C280 C273 1.403 . S
C280 C281 1.399 . S
C280 H286 0.929 . S
C281 C261 1.449 . S
C281 C280 1.399 . S
C281 H287 0.930 . S
H282 C262 0.931 . S
H283 C263 0.930 . S
H284 C271 0.931 . S
H285 C272 0.929 . S
H286 C280 0.929 . S
H287 C281 0.930 . S
C288 C289 1.363 1_655 S
C288 C294 1.379 1_545 S
C288 N296 1.356 1_655 S
C289 C288 1.363 1_455 S
C289 C295 1.363 . S
C290 C291 1.363 1_455 S
C290 C295 1.379 1_565 S
C290 N297 1.356 1_455 S
C291 C290 1.363 1_655 S
C291 C294 1.363 . S
N292 C294 1.356 . S
N292 H304 0.984 . S
N292 H305 0.985 . S
N293 C295 1.356 . S
N293 H298 0.984 . S
N293 H299 0.985 . S
C294 C288 1.379 1_565 S
C294 C291 1.363 . S
C294 N292 1.356 . S
C295 C289 1.363 . S
C295 C290 1.379 1_545 S
C295 N293 1.356 . S
N296 C288 1.356 1_455 S
N296 H302 0.984 1_455 S
N296 H303 0.984 . S
N297 C290 1.356 1_655 S
N297 H300 0.984 . S
N297 H301 0.985 1_655 S
H298 N293 0.984 . S
H299 N293 0.985 . S
H300 N297 0.984 . S
H301 N297 0.985 1_455 S
H302 N296 0.984 1_655 S
H303 N296 0.984 . S
H304 N292 0.984 . S
H305 N292 0.985 . S
C306 C307 1.363 . S
C306 C312 1.379 . S
C306 N314 1.356 . S
C307 C306 1.363 . S
C307 C313 1.363 . S
C308 C309 1.363 . S
C308 C313 1.379 . S
C308 N315 1.356 . S
C309 C308 1.363 . S
C309 C312 1.363 . S
N310 C312 1.356 . S
N310 H322 0.984 . S
N310 H323 0.985 . S
N311 C313 1.356 . S
N311 H316 0.984 . S
N311 H317 0.985 . S
C312 C306 1.379 . S
C312 C309 1.363 . S
C312 N310 1.356 . S
C313 C307 1.363 . S
C313 C308 1.379 . S
C313 N311 1.356 . S
N314 C306 1.356 . S
N314 H320 0.984 . S
N314 H321 0.984 . S
N315 C308 1.356 . S
N315 H318 0.984 . S
N315 H319 0.985 . S
H316 N311 0.984 . S
H317 N311 0.985 . S
H318 N315 0.984 . S
H319 N315 0.985 . S
H320 N314 0.984 . S
H321 N314 0.984 . S
H322 N310 0.984 . S
H323 N310 0.985 . S
C324 C325 1.363 . S
C324 C330 1.379 . S
C324 N332 1.356 . S
C325 C324 1.363 . S
C325 C331 1.363 . S
C326 C327 1.363 . S
C326 C331 1.379 . S
C326 N333 1.356 . S
C327 C326 1.363 . S
C327 C330 1.363 . S
N328 C330 1.356 . S
N328 H340 0.984 . S
N328 H341 0.985 . S
N329 C331 1.356 . S
N329 H334 0.984 . S
N329 H335 0.985 . S
C330 C324 1.379 . S
C330 C327 1.363 . S
C330 N328 1.356 . S
C331 C325 1.363 . S
C331 C326 1.379 . S
C331 N329 1.356 . S
N332 C324 1.356 . S
N332 H338 0.984 . S
N332 H339 0.984 . S
N333 C326 1.356 . S
N333 H336 0.984 . S
N333 H337 0.985 . S
H334 N329 0.984 . S
H335 N329 0.985 . S
H336 N333 0.984 . S
H337 N333 0.985 . S
H338 N332 0.984 . S
H339 N332 0.984 . S
H340 N328 0.984 . S
H341 N328 0.985 . S
C342 C343 1.363 . S
C342 C348 1.379 1_455 S
C342 N350 1.356 . S
C343 C342 1.363 . S
C343 C349 1.363 1_545 S
C344 C345 1.363 . S
C344 C349 1.379 1_655 S
C344 N351 1.356 . S
C345 C344 1.363 . S
C345 C348 1.363 1_565 S
N346 C348 1.356 1_565 S
N346 H358 0.984 1_565 S
N346 H359 0.985 . S
N347 C349 1.356 1_545 S
N347 H352 0.984 . S
N347 H353 0.985 1_545 S
C348 C342 1.379 1_655 S
C348 C345 1.363 1_545 S
C348 N346 1.356 1_545 S
C349 C343 1.363 1_565 S
C349 C344 1.379 1_455 S
C349 N347 1.356 1_565 S
N350 C342 1.356 . S
N350 H356 0.984 . S
N350 H357 0.984 . S
N351 C344 1.356 . S
N351 H354 0.984 . S
N351 H355 0.985 . S
H352 N347 0.984 . S
H353 N347 0.985 1_565 S
H354 N351 0.984 . S
H355 N351 0.985 . S
H356 N350 0.984 . S
H357 N350 0.984 . S
H358 N346 0.984 1_545 S
H359 N346 0.985 . S
C360 C361 1.363 . S
C360 C366 1.379 . S
C360 N368 1.356 . S
C361 C360 1.363 . S
C361 C367 1.363 . S
C362 C363 1.363 . S
C362 C367 1.379 . S
C362 N369 1.356 . S
C363 C362 1.363 . S
C363 C366 1.363 . S
N364 C366 1.356 . S
N364 H376 0.984 . S
N364 H377 0.985 . S
N365 C367 1.356 . S
N365 H370 0.984 . S
N365 H371 0.985 . S
C366 C360 1.379 . S
C366 C363 1.363 . S
C366 N364 1.356 . S
C367 C361 1.363 . S
C367 C362 1.379 . S
C367 N365 1.356 . S
N368 C360 1.356 . S
N368 H374 0.984 . S
N368 H375 0.984 . S
N369 C362 1.356 . S
N369 H372 0.984 . S
N369 H373 0.985 . S
H370 N365 0.984 . S
H371 N365 0.985 . S
H372 N369 0.984 . S
H373 N369 0.985 . S
H374 N368 0.984 . S
H375 N368 0.984 . S
H376 N364 0.984 . S
H377 N364 0.985 . S
C378 C379 1.363 . S
C378 C384 1.379 1_556 S
C378 N386 1.356 . S
C379 C378 1.363 . S
C379 C385 1.363 . S
C380 C381 1.363 . S
C380 C385 1.379 1_554 S
C380 N387 1.356 . S
C381 C380 1.363 . S
C381 C384 1.363 . S
N382 C384 1.356 . S
N382 H394 0.984 1_554 S
N382 H395 0.985 . S
N383 C385 1.356 . S
N383 H388 0.984 . S
N383 H389 0.985 1_556 S
C384 C378 1.379 1_554 S
C384 C381 1.363 . S
C384 N382 1.356 . S
C385 C379 1.363 . S
C385 C380 1.379 1_556 S
C385 N383 1.356 . S
N386 C378 1.356 . S
N386 H392 0.984 . S
N386 H393 0.984 . S
N387 C380 1.356 . S
N387 H390 0.984 . S
N387 H391 0.985 . S
H388 N383 0.984 . S
H389 N383 0.985 1_554 S
H390 N387 0.984 . S
H391 N387 0.985 . S
H392 N386 0.984 . S
H393 N386 0.984 . S
H394 N382 0.984 1_556 S
H395 N382 0.985 . S
C396 C397 1.363 . S
C396 C402 1.379 . S
C396 N404 1.356 . S
C397 C396 1.363 . S
C397 C403 1.363 . S
C398 C399 1.363 . S
C398 C403 1.379 . S
C398 N405 1.356 . S
C399 C398 1.363 . S
C399 C402 1.363 . S
N400 C402 1.356 . S
N400 H412 0.984 . S
N400 H413 0.985 . S
N401 C403 1.356 . S
N401 H406 0.984 . S
N401 H407 0.985 . S
C402 C396 1.379 . S
C402 C399 1.363 . S
C402 N400 1.356 . S
C403 C397 1.363 . S
C403 C398 1.379 . S
C403 N401 1.356 . S
N404 C396 1.356 . S
N404 H410 0.984 . S
N404 H411 0.984 . S
N405 C398 1.356 . S
N405 H408 0.984 . S
N405 H409 0.985 . S
H406 N401 0.984 . S
H407 N401 0.985 . S
H408 N405 0.984 . S
H409 N405 0.985 . S
H410 N404 0.984 . S
H411 N404 0.984 . S
H412 N400 0.984 . S
H413 N400 0.985 . S
C414 C415 1.363 . S
C414 C420 1.379 1_556 S
C414 N422 1.356 . S
C415 C414 1.363 . S
C415 C421 1.363 . S
C416 C417 1.363 . S
C416 C421 1.379 1_554 S
C416 N423 1.356 . S
C417 C416 1.363 . S
C417 C420 1.363 . S
N418 C420 1.356 . S
N418 H430 0.984 . S
N418 H431 0.985 . S
N419 C421 1.356 . S
N419 H424 0.984 . S
N419 H425 0.985 . S
C420 C414 1.379 1_554 S
C420 C417 1.363 . S
C420 N418 1.356 . S
C421 C415 1.363 . S
C421 C416 1.379 1_556 S
C421 N419 1.356 . S
N422 C414 1.356 . S
N422 H428 0.984 . S
N422 H429 0.984 . S
N423 C416 1.356 . S
N423 H426 0.984 . S
N423 H427 0.985 . S
H424 N419 0.984 . S
H425 N419 0.985 . S
H426 N423 0.984 . S
H427 N423 0.985 . S
H428 N422 0.984 . S
H429 N422 0.984 . S
H430 N418 0.984 . S
H431 N418 0.985 . S
C432 C433 1.363 . S
C432 C438 1.379 . S
C432 N440 1.356 . S
C433 C432 1.363 . S
C433 C439 1.363 . S
C434 C435 1.363 . S
C434 C439 1.379 . S
C434 N441 1.356 . S
C435 C434 1.363 . S
C435 C438 1.363 . S
N436 C438 1.356 . S
N436 H448 0.984 . S
N436 H449 0.985 . S
N437 C439 1.356 . S
N437 H442 0.984 . S
N437 H443 0.985 . S
C438 C432 1.379 . S
C438 C435 1.363 . S
C438 N436 1.356 . S
C439 C433 1.363 . S
C439 C434 1.379 . S
C439 N437 1.356 . S
N440 C432 1.356 . S
N440 H446 0.984 . S
N440 H447 0.984 . S
N441 C434 1.356 . S
N441 H444 0.984 . S
N441 H445 0.985 . S
H442 N437 0.984 . S
H443 N437 0.985 . S
H444 N441 0.984 . S
H445 N441 0.985 . S
H446 N440 0.984 . S
H447 N440 0.984 . S
H448 N436 0.984 . S
H449 N436 0.985 . S
C450 C451 1.363 . S
C450 C456 1.379 . S
C450 N458 1.356 . S
C451 C450 1.363 . S
C451 C457 1.363 . S
C452 C453 1.363 . S
C452 C457 1.379 . S
C452 N459 1.356 . S
C453 C452 1.363 . S
C453 C456 1.363 . S
N454 C456 1.356 . S
N454 H466 0.984 . S
N454 H467 0.985 . S
N455 C457 1.356 . S
N455 H460 0.984 . S
N455 H461 0.985 . S
C456 C450 1.379 . S
C456 C453 1.363 . S
C456 N454 1.356 . S
C457 C451 1.363 . S
C457 C452 1.379 . S
C457 N455 1.356 . S
N458 C450 1.356 . S
N458 H464 0.984 . S
N458 H465 0.984 . S
N459 C452 1.356 . S
N459 H462 0.984 1_565 S
N459 H463 0.985 1_565 S
H460 N455 0.984 . S
H461 N455 0.985 . S
H462 N459 0.984 1_545 S
H463 N459 0.985 1_545 S
H464 N458 0.984 . S
H465 N458 0.984 . S
H466 N454 0.984 . S
H467 N454 0.985 . S
C468 C469 1.363 . S
C468 C474 1.379 . S
C468 N476 1.356 . S
C469 C468 1.363 . S
C469 C475 1.363 . S
C470 C471 1.363 . S
C470 C475 1.379 . S
C470 N477 1.356 . S
C471 C470 1.363 . S
C471 C474 1.363 . S
N472 C474 1.356 . S
N472 H484 0.984 . S
N472 H485 0.985 . S
N473 C475 1.356 . S
N473 H478 0.984 . S
N473 H479 0.985 . S
C474 C468 1.379 . S
C474 C471 1.363 . S
C474 N472 1.356 . S
C475 C469 1.363 . S
C475 C470 1.379 . S
C475 N473 1.356 . S
N476 C468 1.356 . S
N476 H482 0.984 . S
N476 H483 0.984 . S
N477 C470 1.356 . S
N477 H480 0.984 . S
N477 H481 0.985 . S
H478 N473 0.984 . S
H479 N473 0.985 . S
H480 N477 0.984 . S
H481 N477 0.985 . S
H482 N476 0.984 . S
H483 N476 0.984 . S
H484 N472 0.984 . S
H485 N472 0.985 . S
C486 C487 1.363 . S
C486 C492 1.379 . S
C486 N494 1.356 . S
C487 C486 1.363 . S
C487 C493 1.363 . S
C488 C489 1.363 . S
C488 C493 1.379 . S
C488 N495 1.356 . S
C489 C488 1.363 . S
C489 C492 1.363 . S
N490 C492 1.356 . S
N490 H502 0.984 1_545 S
N490 H503 0.985 1_545 S
N491 C493 1.356 . S
N491 H496 0.984 . S
N491 H497 0.985 . S
C492 C486 1.379 . S
C492 C489 1.363 . S
C492 N490 1.356 . S
C493 C487 1.363 . S
C493 C488 1.379 . S
C493 N491 1.356 . S
N494 C486 1.356 . S
N494 H500 0.984 . S
N494 H501 0.984 . S
N495 C488 1.356 . S
N495 H498 0.984 . S
N495 H499 0.985 . S
H496 N491 0.984 . S
H497 N491 0.985 . S
H498 N495 0.984 . S
H499 N495 0.985 . S
H500 N494 0.984 . S
H501 N494 0.984 . S
H502 N490 0.984 1_565 S
H503 N490 0.985 1_565 S
C504 C505 1.363 . S
C504 C510 1.379 . S
C504 N512 1.356 . S
C505 C504 1.363 . S
C505 C511 1.363 . S
C506 C507 1.363 . S
C506 C511 1.379 . S
C506 N513 1.356 . S
C507 C506 1.363 . S
C507 C510 1.363 . S
N508 C510 1.356 . S
N508 H520 0.984 . S
N508 H521 0.985 . S
N509 C511 1.356 . S
N509 H514 0.984 . S
N509 H515 0.985 . S
C510 C504 1.379 . S
C510 C507 1.363 . S
C510 N508 1.356 . S
C511 C505 1.363 . S
C511 C506 1.379 . S
C511 N509 1.356 . S
N512 C504 1.356 . S
N512 H518 0.981 1_655 S
N512 H519 0.984 1_655 S
N513 C506 1.356 . S
N513 H516 0.984 . S
N513 H517 0.985 . S
H514 N509 0.984 . S
H515 N509 0.985 . S
H516 N513 0.984 . S
H517 N513 0.985 . S
H518 N512 0.981 1_455 S
H519 N512 0.984 1_455 S
H520 N508 0.984 . S
H521 N508 0.985 . S
C522 C523 1.363 . S
C522 C528 1.379 . S
C522 N530 1.356 . S
C523 C522 1.363 . S
C523 C529 1.363 . S
C524 C525 1.363 . S
C524 C529 1.379 . S
C524 N531 1.356 . S
C525 C524 1.363 . S
C525 C528 1.363 . S
N526 C528 1.356 . S
N526 H538 0.984 . S
N526 H539 0.985 . S
N527 C529 1.356 . S
N527 H532 0.984 . S
N527 H533 0.985 . S
C528 C522 1.379 . S
C528 C525 1.363 . S
C528 N526 1.356 . S
C529 C523 1.363 . S
C529 C524 1.379 . S
C529 N527 1.356 . S
N530 C522 1.356 . S
N530 H536 0.984 . S
N530 H537 0.984 . S
N531 C524 1.356 . S
N531 H534 0.984 . S
N531 H535 0.985 . S
H532 N527 0.984 . S
H533 N527 0.985 . S
H534 N531 0.984 . S
H535 N531 0.985 . S
H536 N530 0.984 . S
H537 N530 0.984 . S
H538 N526 0.984 . S
H539 N526 0.985 . S
C540 C541 1.363 . S
C540 C546 1.379 . S
C540 N548 1.356 . S
C541 C540 1.363 . S
C541 C547 1.363 . S
C542 C543 1.363 . S
C542 C547 1.379 . S
C542 N549 1.356 . S
C543 C542 1.363 . S
C543 C546 1.363 . S
N544 C546 1.356 . S
N544 H556 0.984 . S
N544 H557 0.985 . S
N545 C547 1.356 . S
N545 H550 0.984 . S
N545 H551 0.985 . S
C546 C540 1.379 . S
C546 C543 1.363 . S
C546 N544 1.356 . S
C547 C541 1.363 . S
C547 C542 1.379 . S
C547 N545 1.356 . S
N548 C540 1.356 . S
N548 H554 0.984 . S
N548 H555 0.984 . S
N549 C542 1.356 . S
N549 H552 0.984 . S
N549 H553 0.985 . S
H550 N545 0.984 . S
H551 N545 0.985 . S
H552 N549 0.984 . S
H553 N549 0.985 . S
H554 N548 0.984 . S
H555 N548 0.984 . S
H556 N544 0.984 . S
H557 N544 0.985 . S
C558 C559 1.363 . S
C558 C564 1.379 . S
C558 N566 1.356 . S
C559 C558 1.363 . S
C559 C565 1.363 . S
C560 C561 1.363 . S
C560 C565 1.379 . S
C560 N567 1.356 . S
C561 C560 1.363 . S
C561 C564 1.363 . S
N562 C564 1.356 . S
N562 H574 0.984 . S
N562 H575 0.985 . S
N563 C565 1.356 . S
N563 H568 0.984 . S
N563 H569 0.985 . S
C564 C558 1.379 . S
C564 C561 1.363 . S
C564 N562 1.356 . S
C565 C559 1.363 . S
C565 C560 1.379 . S
C565 N563 1.356 . S
N566 C558 1.356 . S
N566 H572 0.984 . S
N566 H573 0.984 . S
N567 C560 1.356 . S
N567 H570 0.984 . S
N567 H571 0.985 . S
H568 N563 0.984 . S
H569 N563 0.985 . S
H570 N567 0.984 . S
H571 N567 0.985 . S
H572 N566 0.984 . S
H573 N566 0.984 . S
H574 N562 0.984 . S
H575 N562 0.985 . S
C289 C2 0.772 . S
C291 C74 0.772 . S
C307 C38 0.772 . S
C309 C110 0.772 . S
C325 C146 0.772 . S
C327 C218 0.772 . S
C343 C182 0.772 . S
C345 C254 0.772 . S
C361 C4 1.497 . S
C363 C184 1.497 . S
C379 C40 1.497 . S
C381 C220 1.497 . S
C397 C256 1.497 . S
C399 C76 1.497 . S
C415 C112 1.497 . S
C417 C148 1.497 . S
C433 C147 1.716 . S
C435 C14 1.633 . S
C451 C50 1.633 . S
C453 C183 1.716 . S
C469 C86 1.633 . S
C471 C219 1.716 . S
C487 C122 1.633 . S
C489 C255 1.716 . S
C505 C3 1.716 . S
C507 C158 1.633 . S
C523 C194 1.633 . S
C525 C39 1.716 . S
C541 C230 1.633 . S
C543 C75 1.716 . S
C559 C111 1.716 . S
C561 C266 1.633 . S
