# Generated by pormake.
# Topology npo, (4)-cn, num edge types: 1
# Building blocks:
#     Node 0, Type 0, BuildingBlock: QUQFOY_clean_sbu_1, # of connection points: 4
#     Node 1, Type 0, BuildingBlock: QUQFOY_clean_sbu_1, # of connection points: 4
#     Node 2, Type 0, BuildingBlock: QUQFOY_clean_sbu_1, # of connection points: 4
#     Node 3, Type 0, BuildingBlock: QUQFOY_clean_sbu_1, # of connection points: 4
#     Node 4, Type 0, BuildingBlock: QUQFOY_clean_sbu_1, # of connection points: 4
#     Node 5, Type 0, BuildingBlock: QUQFOY_clean_sbu_1, # of connection points: 4
#     Edge 6, Type (0, 0), BuildingBlock: XUDNAN_clean_linker_2, # of connection points: 2
#     Edge 7, Type (0, 0), BuildingBlock: XUDNAN_clean_linker_2, # of connection points: 2
#     Edge 8, Type (0, 0), BuildingBlock: XUDNAN_clean_linker_2, # of connection points: 2
#     Edge 9, Type (0, 0), BuildingBlock: XUDNAN_clean_linker_2, # of connection points: 2
#     Edge 10, Type (0, 0), BuildingBlock: XUDNAN_clean_linker_2, # of connection points: 2
#     Edge 11, Type (0, 0), BuildingBlock: XUDNAN_clean_linker_2, # of connection points: 2
#     Edge 12, Type (0, 0), BuildingBlock: XUDNAN_clean_linker_2, # of connection points: 2
#     Edge 13, Type (0, 0), BuildingBlock: XUDNAN_clean_linker_2, # of connection points: 2
#     Edge 14, Type (0, 0), BuildingBlock: XUDNAN_clean_linker_2, # of connection points: 2
#     Edge 15, Type (0, 0), BuildingBlock: XUDNAN_clean_linker_2, # of connection points: 2
#     Edge 16, Type (0, 0), BuildingBlock: XUDNAN_clean_linker_2, # of connection points: 2
#     Edge 17, Type (0, 0), BuildingBlock: XUDNAN_clean_linker_2, # of connection points: 2
# Relax obj value: 0.266
# Max RMSD: 0.245
# Mean RMSD: 0.245
data_MOF--net-npo--node1-QUQFOY_clean_sbu_1--edge1-XUDNAN_clean_linker_2
_symmetry_space_group_name_H-M    P1
_symmetry_Int_Tables_number       1
_symmetry_cell_setting            triclinic
loop_
_symmetry_equiv_pos_as_xyz
'x, y, z'
_cell_length_a     43.686958
_cell_length_b     43.779696
_cell_length_c     28.081602
_cell_angle_alpha  89.923932
_cell_angle_beta   89.975597
_cell_angle_gamma 119.84107
loop_
_atom_site_label
_atom_site_type_symbol
_atom_site_fract_x
_atom_site_fract_y
_atom_site_fract_z
_atom_type_partial_charge
O0 O 0.60549 0.13576 0.29863 0.0
Cd1 Cd 0.55133 0.10876 0.30619 0.0
Cd2 Cd 0.55408 0.11551 0.21058 0.0
O3 O 0.60779 0.14131 0.22051 0.0
O4 O 0.54432 0.09362 0.37389 0.0
O5 O 0.52503 0.05609 0.31379 0.0
C6 C 0.52823 0.06153 0.35918 0.0
C7 C 0.52853 0.0681 0.1588 0.0
C8 C 0.6233 0.14682 0.26042 0.0
C9 C 0.51886 0.14889 0.26268 0.0
O10 O 0.52866 0.14361 0.22244 0.0
O11 O 0.52482 0.13661 0.30036 0.0
O12 O 0.54529 0.10005 0.14315 0.0
O13 O 0.52643 0.06309 0.20436 0.0
O14 O 0.46784 0.60698 0.7938 0.0
Cd15 Cd 0.44119 0.55286 0.79885 0.0
Cd16 Cd 0.43282 0.55958 0.69945 0.0
O17 O 0.461 0.61212 0.71692 0.0
O18 O 0.44971 0.5454 0.86625 0.0
O19 O 0.4675 0.52608 0.8056 0.0
C20 C 0.46544 0.52907 0.85108 0.0
C21 C 0.44689 0.54395 0.62657 0.0
C22 C 0.47267 0.62606 0.75733 0.0
C23 C 0.36718 0.52173 0.76004 0.0
O24 O 0.38051 0.53231 0.71897 0.0
O25 O 0.38687 0.52707 0.79596 0.0
O26 O 0.43011 0.56112 0.62882 0.0
O27 O 0.45584 0.53545 0.66613 0.0
O28 O 0.84358 0.37769 0.21479 0.0
Cd29 Cd 0.86842 0.43065 0.1993 0.0
Cd30 Cd 0.882 0.43497 0.29899 0.0
O31 O 0.85443 0.38101 0.2919 0.0
O32 O 0.86497 0.43075 0.12867 0.0
O33 O 0.91589 0.45519 0.16685 0.0
C34 C 0.8989 0.44776 0.12702 0.0
C35 C 0.92952 0.45717 0.35169 0.0
C36 C 0.84072 0.36281 0.2547 0.0
C37 C 0.84052 0.46794 0.261 0.0
O38 O 0.85406 0.46147 0.29691 0.0
O39 O 0.84369 0.45808 0.21967 0.0
O40 O 0.89738 0.44084 0.36651 0.0
O41 O 0.93492 0.46107 0.3063 0.0
O42 O 0.45883 0.84685 0.72748 0.0
Cd43 Cd 0.43271 0.87345 0.70892 0.0
Cd44 Cd 0.42834 0.87296 0.81715 0.0
O45 O 0.45741 0.84839 0.8061 0.0
O46 O 0.4331 0.86967 0.63832 0.0
O47 O 0.4583 0.9207 0.67563 0.0
C48 C 0.4505 0.90345 0.63608 0.0
C49 C 0.44178 0.90467 0.88845 0.0
C50 C 0.4666 0.8396 0.76795 0.0
C51 C 0.36098 0.84069 0.75843 0.0
O52 O 0.37564 0.84693 0.79905 0.0
O53 O 0.37922 0.84993 0.72048 0.0
O54 O 0.42487 0.87083 0.88782 0.0
O55 O 0.45105 0.92098 0.84812 0.0
O56 O 0.52382 0.3854 0.2939 0.0
Cd57 Cd 0.55051 0.43947 0.29962 0.0
Cd58 Cd 0.55931 0.43395 0.20006 0.0
O59 O 0.53146 0.38123 0.21701 0.0
O60 O 0.54141 0.44648 0.3669 0.0
O61 O 0.52434 0.46638 0.30604 0.0
C62 C 0.52598 0.46308 0.35154 0.0
C63 C 0.54535 0.44961 0.12703 0.0
C64 C 0.51943 0.36679 0.25715 0.0
C65 C 0.62468 0.47144 0.26112 0.0
O66 O 0.61151 0.46157 0.21987 0.0
O67 O 0.60484 0.46526 0.29714 0.0
O68 O 0.56253 0.43285 0.12944 0.0
O69 O 0.53597 0.45773 0.16651 0.0
O70 O 0.13754 0.53057 0.80081 0.0
Cd71 Cd 0.10935 0.55662 0.80296 0.0
Cd72 Cd 0.11628 0.55555 0.70183 0.0
O73 O 0.144 0.53102 0.72283 0.0
O74 O 0.0931 0.55106 0.87007 0.0
O75 O 0.05649 0.52977 0.80895 0.0
C76 C 0.06119 0.53387 0.85444 0.0
C77 C 0.08688 0.53662 0.6289 0.0
C78 C 0.14962 0.52313 0.76423 0.0
C79 C 0.14507 0.62605 0.75203 0.0
O80 O 0.13832 0.60883 0.71342 0.0
O81 O 0.13642 0.61023 0.7919 0.0
O82 O 0.1207 0.55484 0.63135 0.0
O83 O 0.06931 0.52865 0.66831 0.0
H84 H 0.51703 0.19177 0.1934 0.0
H85 H 0.48868 0.16083 0.34086 0.0
H86 H 0.47386 0.20796 0.35058 0.0
H87 H 0.56234 0.27847 0.21312 0.0
H88 H 0.5495 0.29224 0.15987 0.0
H89 H 0.54914 0.2511 0.16071 0.0
H90 H 0.48329 0.21825 0.13589 0.0
H91 H 0.48348 0.25953 0.13468 0.0
H92 H 0.45156 0.2236 0.17063 0.0
H93 H 0.47357 0.26461 0.34896 0.0
H94 H 0.48848 0.32625 0.3364 0.0
H95 H 0.51723 0.32059 0.19003 0.0
C96 C 0.50639 0.194 0.22722 0.0
C97 C 0.50385 0.17252 0.26629 0.0
C98 C 0.49071 0.1769 0.31034 0.0
C99 C 0.48203 0.20349 0.31613 0.0
C100 C 0.48634 0.22526 0.27744 0.0
C101 C 0.49789 0.22056 0.23364 0.0
C102 C 0.50523 0.2504 0.19983 0.0
C103 C 0.54383 0.26915 0.18242 0.0
C104 C 0.47933 0.23714 0.15777 0.0
C105 C 0.49813 0.27371 0.23236 0.0
C106 C 0.4864 0.25836 0.27659 0.0
C107 C 0.4819 0.27655 0.31414 0.0
C108 C 0.49057 0.31164 0.3067 0.0
C109 C 0.50393 0.32824 0.26218 0.0
C110 C 0.50652 0.30851 0.22422 0.0
H111 H 0.31877 0.51517 0.69334 0.0
H112 H 0.3292 0.49667 0.84279 0.0
H113 H 0.2681 0.48342 0.85701 0.0
H114 H 0.27878 0.56228 0.71002 0.0
H115 H 0.24928 0.54598 0.65978 0.0
H116 H 0.2899 0.54513 0.65858 0.0
H117 H 0.25561 0.47793 0.64264 0.0
H118 H 0.21467 0.4786 0.64337 0.0
H119 H 0.22057 0.44921 0.68239 0.0
H120 H 0.21159 0.4844 0.85832 0.0
H121 H 0.16421 0.49872 0.8463 0.0
H122 H 0.19039 0.51634 0.69595 0.0
C123 C 0.3078 0.50701 0.72872 0.0
C124 C 0.32877 0.50689 0.7669 0.0
C125 C 0.31362 0.4968 0.81289 0.0
C126 C 0.27885 0.48908 0.82129 0.0
C127 C 0.25945 0.49112 0.78326 0.0
C128 C 0.27325 0.49938 0.73769 0.0
C129 C 0.24901 0.50461 0.70436 0.0
C130 C 0.26787 0.54169 0.68193 0.0
C131 C 0.23408 0.47586 0.66592 0.0
C132 C 0.22056 0.50025 0.73892 0.0
C133 C 0.22657 0.49166 0.78402 0.0
C134 C 0.20606 0.49021 0.82293 0.0
C135 C 0.17929 0.49855 0.81579 0.0
C136 C 0.17348 0.50851 0.77013 0.0
C137 C 0.19373 0.50822 0.7311 0.0
H138 H 0.66755 0.18931 0.19058 0.0
H139 H 0.66608 0.15715 0.33714 0.0
H140 H 0.72832 0.20338 0.34602 0.0
H141 H 0.76468 0.22028 0.16552 0.0
H142 H 0.76865 0.25664 0.13055 0.0
H143 H 0.72749 0.21553 0.13172 0.0
H144 H 0.69506 0.24863 0.15846 0.0
H145 H 0.73592 0.28959 0.1577 0.0
H146 H 0.70971 0.27552 0.2113 0.0
H147 H 0.78521 0.25962 0.34443 0.0
H148 H 0.83174 0.32136 0.33267 0.0
H149 H 0.79645 0.31744 0.1872 0.0
C150 C 0.68074 0.19103 0.22393 0.0
C151 C 0.66204 0.16953 0.26308 0.0
C152 C 0.67994 0.17325 0.30659 0.0
C153 C 0.71538 0.19933 0.31189 0.0
C154 C 0.73262 0.22124 0.27324 0.0
C155 C 0.71599 0.21711 0.22988 0.0
C156 C 0.73834 0.24719 0.19632 0.0
C157 C 0.75052 0.23412 0.15349 0.0
C158 C 0.71858 0.26635 0.18006 0.0
C159 C 0.76901 0.27004 0.22863 0.0
C160 C 0.76571 0.25419 0.27241 0.0
C161 C 0.7886 0.27194 0.30991 0.0
C162 C 0.81488 0.30709 0.30295 0.0
C163 C 0.81781 0.32421 0.25895 0.0
C164 C 0.79531 0.30493 0.22096 0.0
H165 H 0.47198 0.7998 0.69722 0.0
H166 H 0.49668 0.82756 0.84604 0.0
H167 H 0.51378 0.78199 0.85453 0.0
H168 H 0.42892 0.71305 0.71343 0.0
H169 H 0.44348 0.70107 0.66017 0.0
H170 H 0.44256 0.74155 0.66199 0.0
H171 H 0.50887 0.77641 0.63951 0.0
H172 H 0.50997 0.73579 0.63733 0.0
H173 H 0.54051 0.77132 0.67484 0.0
H174 H 0.51609 0.72658 0.8515 0.0
H175 H 0.50234 0.66547 0.83759 0.0
H176 H 0.47575 0.67314 0.69082 0.0
C177 C 0.4824 0.7973 0.73108 0.0
C178 C 0.4832 0.81735 0.77088 0.0
C179 C 0.49598 0.81258 0.81499 0.0
C180 C 0.50597 0.78689 0.82008 0.0
C181 C 0.5033 0.76639 0.78066 0.0
C182 C 0.49213 0.77155 0.73682 0.0
C183 C 0.48628 0.74268 0.70216 0.0
C184 C 0.44805 0.72346 0.6834 0.0
C185 C 0.51301 0.75744 0.66103 0.0
C186 C 0.49354 0.71924 0.73427 0.0
C187 C 0.50431 0.73385 0.779 0.0
C188 C 0.50857 0.71524 0.81629 0.0
C189 C 0.50055 0.68046 0.80808 0.0
C190 C 0.48803 0.66452 0.76307 0.0
C191 C 0.48582 0.68474 0.72538 0.0
H192 H 0.67343 0.48001 0.19373 0.0
H193 H 0.66236 0.49468 0.34427 0.0
H194 H 0.72345 0.50774 0.35781 0.0
H195 H 0.71292 0.43244 0.20697 0.0
H196 H 0.7427 0.44988 0.15701 0.0
H197 H 0.70227 0.45109 0.15668 0.0
H198 H 0.73705 0.51866 0.14364 0.0
H199 H 0.77782 0.51765 0.14353 0.0
H200 H 0.77196 0.54616 0.18418 0.0
H201 H 0.7799 0.50659 0.35787 0.0
H202 H 0.82663 0.49157 0.34433 0.0
H203 H 0.80098 0.47765 0.19375 0.0
C204 C 0.68426 0.48733 0.22926 0.0
C205 C 0.6631 0.48638 0.26789 0.0
C206 C 0.67809 0.49538 0.31402 0.0
C207 C 0.71287 0.50301 0.32205 0.0
C208 C 0.73244 0.50196 0.2835 0.0
C209 C 0.7188 0.4948 0.23784 0.0
C210 C 0.74307 0.49023 0.20377 0.0
C211 C 0.7241 0.45375 0.17976 0.0
C212 C 0.75839 0.51995 0.16658 0.0
C213 C 0.77126 0.49349 0.23798 0.0
C214 C 0.76521 0.50118 0.28356 0.0
C215 C 0.78545 0.50148 0.32213 0.0
C216 C 0.81188 0.49277 0.3141 0.0
C217 C 0.81754 0.48349 0.26793 0.0
C218 C 0.7977 0.48511 0.22932 0.0
H219 H 0.31512 0.79782 0.8267 0.0
H220 H 0.31979 0.83275 0.68092 0.0
H221 H 0.2575 0.7875 0.66968 0.0
H222 H 0.27291 0.7125 0.80347 0.0
H223 H 0.24541 0.69741 0.85586 0.0
H224 H 0.2863 0.7383 0.85733 0.0
H225 H 0.25336 0.77099 0.88356 0.0
H226 H 0.21214 0.72993 0.88249 0.0
H227 H 0.21704 0.76703 0.84842 0.0
H228 H 0.20112 0.7315 0.66802 0.0
H229 H 0.15518 0.66919 0.67613 0.0
H230 H 0.18607 0.6698 0.82303 0.0
C231 C 0.30255 0.79697 0.79312 0.0
C232 C 0.3222 0.8189 0.75479 0.0
C233 C 0.30519 0.81628 0.71085 0.0
C234 C 0.26972 0.79079 0.70423 0.0
C235 C 0.25153 0.76831 0.74199 0.0
C236 C 0.26724 0.7714 0.78584 0.0
C237 C 0.24402 0.74064 0.818 0.0
C238 C 0.26331 0.72107 0.83457 0.0
C239 C 0.23085 0.75289 0.86064 0.0
C240 C 0.2141 0.7185 0.7842 0.0
C241 C 0.21843 0.7354 0.74099 0.0
C242 C 0.19683 0.71839 0.70209 0.0
C243 C 0.17091 0.68293 0.70695 0.0
C244 C 0.16694 0.66479 0.75033 0.0
C245 C 0.18793 0.68326 0.78986 0.0
H246 H 0.47978 0.97623 0.90346 0.0
H247 H 0.42372 0.87588 0.9773 0.0
H248 H 0.43934 0.90672 0.05438 0.0
H249 H 0.55129 0.01753 0.98601 0.0
H250 H 0.55476 0.06022 0.98157 0.0
H251 H 0.53848 0.03036 0.93187 0.0
H252 H 0.4814 0.03464 0.93082 0.0
H253 H 0.49755 0.06459 0.98045 0.0
H254 H 0.45528 0.02488 0.98429 0.0
H255 H 0.46193 0.94813 0.12359 0.0
H256 H 0.48946 -0.0022 0.18017 0.0
H257 H 0.5306 0.07103 0.06141 0.0
C258 C 0.47065 0.96077 0.93582 0.0
C259 C 0.45052 0.92366 0.93432 0.0
C260 C 0.43918 0.90436 0.97751 0.0
C261 C 0.4479 0.92161 0.02153 0.0
C262 C 0.46795 0.95817 0.02181 0.0
C263 C 0.47913 0.97758 0.98016 0.0
C264 C 0.50069 0.01661 0.9905 0.0
C265 C 0.53855 0.03208 0.97136 0.0
C266 C 0.48264 0.03633 0.97032 0.0
C267 C 0.49996 0.01603 0.04441 0.0
C268 C 0.48093 0.98208 0.06178 0.0
C269 C 0.47684 0.97488 0.11046 0.0
C270 C 0.49259 0.00323 0.1423 0.0
C271 C 0.51213 0.03825 0.12523 0.0
C272 C 0.51578 0.04457 0.07561 0.0
H273 H 0.52651 0.45969 0.44857 0.0
H274 H 0.49157 0.49975 0.33158 0.0
H275 H 0.46702 0.5245 0.38948 0.0
H276 H 0.45163 0.43508 0.52478 0.0
H277 H 0.47751 0.44802 0.57859 0.0
H278 H 0.49194 0.43333 0.52788 0.0
H279 H 0.55199 0.4915 0.52892 0.0
H280 H 0.53775 0.50638 0.57959 0.0
H281 H 0.55272 0.53301 0.52645 0.0
H282 H 0.44676 0.54506 0.46034 0.0
H283 H 0.43232 0.56019 0.53857 0.0
H284 H 0.48092 0.50659 0.60888 0.0
C285 C 0.51366 0.47361 0.43498 0.0
C286 C 0.51093 0.47781 0.38553 0.0
C287 C 0.49393 0.49623 0.36932 0.0
C288 C 0.47992 0.51035 0.40191 0.0
C289 C 0.48316 0.50574 0.45044 0.0
C290 C 0.4996 0.48781 0.46689 0.0
C291 C 0.49986 0.48665 0.52076 0.0
C292 C 0.47898 0.4485 0.53906 0.0
C293 C 0.53784 0.50552 0.54005 0.0
C294 C 0.48109 0.5069 0.5322 0.0
C295 C 0.47161 0.51762 0.49116 0.0
C296 C 0.45403 0.53678 0.49269 0.0
C297 C 0.44596 0.54524 0.53734 0.0
C298 C 0.45551 0.53458 0.57987 0.0
C299 C 0.47328 0.51513 0.57706 0.0
H300 H 0.06433 0.53617 0.95162 0.0
H301 H 0.99043 0.49782 0.83359 0.0
H302 H 0.94071 0.4722 0.89076 0.0
H303 H 0.0169 0.46148 0.02714 0.0
H304 H 0.02787 0.48696 0.08117 0.0
H305 H 0.05744 0.50301 0.03098 0.0
H306 H 0.05512 0.56103 0.03192 0.0
H307 H 0.02558 0.54519 0.08218 0.0
H308 H 0.01299 0.55915 0.02888 0.0
H309 H 0.89935 0.45028 0.96086 0.0
H310 H 0.86906 0.43332 0.03855 0.0
H311 H 0.97037 0.48576 0.11058 0.0
C312 C 0.0377 0.52252 0.93767 0.0
C313 C 0.03121 0.51902 0.88812 0.0
C314 C -0.00401 0.50083 0.87141 0.0
C315 C 0.96762 0.48622 0.90359 0.0
C316 C 0.97501 0.49005 0.95222 0.0
C317 C 0.00919 0.50776 0.96918 0.0
C318 C 0.01008 0.50779 0.02308 0.0
C319 C 0.0292 0.48866 0.04167 0.0
C320 C 0.02694 0.54553 0.04265 0.0
C321 C 0.97101 0.48717 0.0339 0.0
C322 C 0.95124 0.47727 0.99255 0.0
C323 C 0.91455 0.45791 0.99346 0.0
C324 C 0.89761 0.44841 0.03781 0.0
C325 C 0.91736 0.4582 0.08067 0.0
C326 C 0.95455 0.47786 0.0785 0.0
H327 H 0.5301 0.06616 0.45625 0.0
H328 H 0.49466 0.99066 0.34034 0.0
H329 H 0.47167 0.94194 0.39889 0.0
H330 H 0.55794 0.01974 0.53457 0.0
H331 H 0.54307 0.03155 0.58769 0.0
H332 H 0.55684 0.06034 0.53666 0.0
H333 H 0.49653 0.05832 0.53594 0.0
H334 H 0.48259 0.02958 0.587 0.0
H335 H 0.4564 0.01634 0.53346 0.0
H336 H 0.4525 0.90176 0.47003 0.0
H337 H 0.43759 0.87259 0.54848 0.0
H338 H 0.48559 0.97466 0.61786 0.0
C339 C 0.51754 0.0394 0.44306 0.0
C340 C 0.51417 0.03216 0.3937 0.0
C341 C 0.4975 -0.00322 0.37799 0.0
C342 C 0.48441 0.96898 0.41096 0.0
C343 C 0.48824 0.9771 0.45936 0.0
C344 C 0.50434 0.01143 0.47536 0.0
C345 C 0.50487 0.01311 0.52924 0.0
C346 C 0.54295 0.03231 0.54814 0.0
C347 C 0.48384 0.03035 0.54746 0.0
C348 C 0.48645 0.97428 0.54115 0.0
C349 C 0.47714 0.95397 0.50034 0.0
C350 C 0.45967 0.91738 0.50222 0.0
C351 C 0.45134 0.90108 0.547 0.0
C352 C 0.46044 0.92136 0.58934 0.0
C353 C 0.47835 0.95845 0.58619 0.0
H354 H 0.46321 0.53102 0.94812 0.0
H355 H 0.50159 0.49407 0.83154 0.0
H356 H 0.52658 0.4699 0.88972 0.0
H357 H 0.53734 0.55701 0.02561 0.0
H358 H 0.51086 0.54281 0.07896 0.0
H359 H 0.49615 0.55712 0.02811 0.0
H360 H 0.43725 0.49776 0.02791 0.0
H361 H 0.45176 0.48327 0.07876 0.0
H362 H 0.43817 0.45709 0.02529 0.0
H363 H 0.5472 0.44987 0.96081 0.0
H364 H 0.56172 0.43499 0.03919 0.0
H365 H 0.50949 0.48514 0.10897 0.0
C366 C 0.47688 0.51787 0.93468 0.0
C367 C 0.48049 0.51442 0.88526 0.0
C368 C 0.49852 0.49699 0.86924 0.0
C369 C 0.5128 0.48322 0.902 0.0
C370 C 0.50874 0.48712 0.95049 0.0
C371 C 0.49119 0.504 0.96675 0.0
C372 C 0.49027 0.50463 0.02063 0.0
C373 C 0.50983 0.54265 0.03941 0.0
C374 C 0.45209 0.48448 0.03922 0.0
C375 C 0.51005 0.48541 0.03228 0.0
C376 C 0.52051 0.47556 0.99134 0.0
C377 C 0.53915 0.45745 0.99307 0.0
C378 C 0.54726 0.44913 0.03781 0.0
C379 C 0.53673 0.4589 0.08024 0.0
C380 C 0.51791 0.47731 0.07723 0.0
H381 H 0.01569 0.49914 0.61042 0.0
H382 H 0.11831 0.55053 0.54141 0.0
H383 H 0.08942 0.53488 0.46285 0.0
H384 H 0.97302 0.42685 0.52665 0.0
H385 H 0.93148 0.42622 0.52906 0.0
H386 H 0.96031 0.44062 0.58001 0.0
H387 H 0.95993 0.49964 0.58017 0.0
H388 H 0.93117 0.48546 0.52919 0.0
H389 H 0.97253 0.52629 0.52698 0.0
H390 H 0.04936 0.51517 0.3915 0.0
H391 H 0.00068 0.49198 0.33285 0.0
H392 H 0.92465 0.45347 0.44869 0.0
C393 C 0.03208 0.50691 0.57881 0.0
C394 C 0.06923 0.52603 0.58209 0.0
C395 C 0.08976 0.53583 0.53983 0.0
C396 C 0.07363 0.52707 0.49499 0.0
C397 C 0.03695 0.50844 0.49297 0.0
C398 C 0.01642 0.49836 0.53373 0.0
C399 C 0.97753 0.47896 0.52167 0.0
C400 C 0.95953 0.4409 0.54046 0.0
C401 C 0.95923 0.49878 0.54062 0.0
C402 C 0.97945 0.48 0.46784 0.0
C403 C 0.01392 0.49703 0.45191 0.0
C404 C 0.02221 0.50164 0.40351 0.0
C405 C -0.00557 0.48844 0.37049 0.0
C406 C 0.95891 0.47091 0.38616 0.0
C407 C 0.95152 0.46667 0.4355 0.0
loop_
_geom_bond_atom_site_label_1
_geom_bond_atom_site_label_2
_geom_bond_distance
_geom_bond_site_symmetry_2
_ccdc_geom_bond_type
O0 Cd1 2.223 . S
O0 C8 1.315 . S
Cd1 O0 2.223 . S
Cd1 O4 2.297 . S
Cd1 O5 2.439 . S
Cd1 O11 2.240 . S
Cd2 O3 2.240 . S
Cd2 O10 2.223 . S
Cd2 O12 2.297 . S
Cd2 O13 2.439 . S
O3 Cd2 2.240 . S
O3 C8 1.279 . S
O4 Cd1 2.297 . S
O4 C6 1.247 . S
O5 Cd1 2.439 . S
O5 C6 1.208 . S
C6 O4 1.247 . S
C6 O5 1.208 . S
C7 O12 1.247 . S
C7 O13 1.208 . S
C8 O0 1.315 . S
C8 O3 1.279 . S
C9 O10 1.315 . S
C9 O11 1.279 . S
O10 Cd2 2.223 . S
O10 C9 1.315 . S
O11 Cd1 2.240 . S
O11 C9 1.279 . S
O12 Cd2 2.297 . S
O12 C7 1.247 . S
O13 Cd2 2.439 . S
O13 C7 1.208 . S
O14 Cd15 2.223 . S
O14 C22 1.315 . S
Cd15 O14 2.223 . S
Cd15 O18 2.297 . S
Cd15 O19 2.439 . S
Cd15 O25 2.240 . S
Cd16 O17 2.240 . S
Cd16 O24 2.223 . S
Cd16 O26 2.297 . S
Cd16 O27 2.439 . S
O17 Cd16 2.240 . S
O17 C22 1.279 . S
O18 Cd15 2.297 . S
O18 C20 1.247 . S
O19 Cd15 2.439 . S
O19 C20 1.208 . S
C20 O18 1.247 . S
C20 O19 1.208 . S
C21 O26 1.247 . S
C21 O27 1.208 . S
C22 O14 1.315 . S
C22 O17 1.279 . S
C23 O24 1.315 . S
C23 O25 1.279 . S
O24 Cd16 2.223 . S
O24 C23 1.315 . S
O25 Cd15 2.240 . S
O25 C23 1.279 . S
O26 Cd16 2.297 . S
O26 C21 1.247 . S
O27 Cd16 2.439 . S
O27 C21 1.208 . S
O28 Cd29 2.223 . S
O28 C36 1.315 . S
Cd29 O28 2.223 . S
Cd29 O32 2.297 . S
Cd29 O33 2.439 . S
Cd29 O39 2.240 . S
Cd30 O31 2.240 . S
Cd30 O38 2.223 . S
Cd30 O40 2.297 . S
Cd30 O41 2.439 . S
O31 Cd30 2.240 . S
O31 C36 1.279 . S
O32 Cd29 2.297 . S
O32 C34 1.247 . S
O33 Cd29 2.439 . S
O33 C34 1.208 . S
C34 O32 1.247 . S
C34 O33 1.208 . S
C35 O40 1.247 . S
C35 O41 1.208 . S
C36 O28 1.315 . S
C36 O31 1.279 . S
C37 O38 1.315 . S
C37 O39 1.279 . S
O38 Cd30 2.223 . S
O38 C37 1.315 . S
O39 Cd29 2.240 . S
O39 C37 1.279 . S
O40 Cd30 2.297 . S
O40 C35 1.247 . S
O41 Cd30 2.439 . S
O41 C35 1.208 . S
O42 Cd43 2.223 . S
O42 C50 1.315 . S
Cd43 O42 2.223 . S
Cd43 O46 2.297 . S
Cd43 O47 2.439 . S
Cd43 O53 2.240 . S
Cd44 O45 2.240 . S
Cd44 O52 2.223 . S
Cd44 O54 2.297 . S
Cd44 O55 2.439 . S
O45 Cd44 2.240 . S
O45 C50 1.279 . S
O46 Cd43 2.297 . S
O46 C48 1.247 . S
O47 Cd43 2.439 . S
O47 C48 1.208 . S
C48 O46 1.247 . S
C48 O47 1.208 . S
C49 O54 1.247 . S
C49 O55 1.208 . S
C50 O42 1.315 . S
C50 O45 1.279 . S
C51 O52 1.315 . S
C51 O53 1.279 . S
O52 Cd44 2.223 . S
O52 C51 1.315 . S
O53 Cd43 2.240 . S
O53 C51 1.279 . S
O54 Cd44 2.297 . S
O54 C49 1.247 . S
O55 Cd44 2.439 . S
O55 C49 1.208 . S
O56 Cd57 2.223 . S
O56 C64 1.315 . S
Cd57 O56 2.223 . S
Cd57 O60 2.297 . S
Cd57 O61 2.439 . S
Cd57 O67 2.240 . S
Cd58 O59 2.240 . S
Cd58 O66 2.223 . S
Cd58 O68 2.297 . S
Cd58 O69 2.439 . S
O59 Cd58 2.240 . S
O59 C64 1.279 . S
O60 Cd57 2.297 . S
O60 C62 1.247 . S
O61 Cd57 2.439 . S
O61 C62 1.208 . S
C62 O60 1.247 . S
C62 O61 1.208 . S
C63 O68 1.247 . S
C63 O69 1.208 . S
C64 O56 1.315 . S
C64 O59 1.279 . S
C65 O66 1.315 . S
C65 O67 1.279 . S
O66 Cd58 2.223 . S
O66 C65 1.315 . S
O67 Cd57 2.240 . S
O67 C65 1.279 . S
O68 Cd58 2.297 . S
O68 C63 1.247 . S
O69 Cd58 2.439 . S
O69 C63 1.208 . S
O70 Cd71 2.223 . S
O70 C78 1.315 . S
Cd71 O70 2.223 . S
Cd71 O74 2.297 . S
Cd71 O75 2.439 . S
Cd71 O81 2.240 . S
Cd72 O73 2.240 . S
Cd72 O80 2.223 . S
Cd72 O82 2.297 . S
Cd72 O83 2.439 . S
O73 Cd72 2.240 . S
O73 C78 1.279 . S
O74 Cd71 2.297 . S
O74 C76 1.247 . S
O75 Cd71 2.439 . S
O75 C76 1.208 . S
C76 O74 1.247 . S
C76 O75 1.208 . S
C77 O82 1.247 . S
C77 O83 1.208 . S
C78 O70 1.315 . S
C78 O73 1.279 . S
C79 O80 1.315 . S
C79 O81 1.279 . S
O80 Cd72 2.223 . S
O80 C79 1.315 . S
O81 Cd71 2.240 . S
O81 C79 1.279 . S
O82 Cd72 2.297 . S
O82 C77 1.247 . S
O83 Cd72 2.439 . S
O83 C77 1.208 . S
H84 C96 0.930 . S
H85 C98 0.930 . S
H86 C99 0.930 . S
H87 C103 0.959 . S
H88 C103 0.959 . S
H89 C103 0.961 . S
H90 C104 0.960 . S
H91 C104 0.961 . S
H92 C104 0.959 . S
H93 C107 0.929 . S
H94 C108 0.931 . S
H95 C110 0.930 . S
C96 H84 0.930 . S
C96 C97 1.399 . S
C96 C101 1.399 . S
C97 C96 1.399 . S
C97 C98 1.376 . S
C98 H85 0.930 . S
C98 C97 1.376 . S
C98 C99 1.388 . S
C99 H86 0.930 . S
C99 C98 1.388 . S
C99 C100 1.390 . S
C100 C99 1.390 . S
C100 C101 1.394 . S
C100 C106 1.465 . S
C101 C96 1.399 . S
C101 C100 1.394 . S
C101 C102 1.516 . S
C102 C101 1.516 . S
C102 C103 1.502 . S
C102 C104 1.561 . S
C102 C105 1.526 . S
C103 H87 0.959 . S
C103 H88 0.959 . S
C103 H89 0.961 . S
C103 C102 1.502 . S
C104 H90 0.960 . S
C104 H91 0.961 . S
C104 H92 0.959 . S
C104 C102 1.561 . S
C105 C102 1.526 . S
C105 C106 1.396 . S
C105 C110 1.390 . S
C106 C100 1.465 . S
C106 C105 1.396 . S
C106 C107 1.399 . S
C107 H93 0.929 . S
C107 C106 1.399 . S
C107 C108 1.385 . S
C108 H94 0.931 . S
C108 C107 1.385 . S
C108 C109 1.389 . S
C109 C108 1.389 . S
C109 C110 1.387 . S
C110 H95 0.930 . S
C110 C105 1.390 . S
C110 C109 1.387 . S
H111 C123 0.930 . S
H112 C125 0.930 . S
H113 C126 0.930 . S
H114 C130 0.959 . S
H115 C130 0.959 . S
H116 C130 0.961 . S
H117 C131 0.960 . S
H118 C131 0.961 . S
H119 C131 0.959 . S
H120 C134 0.929 . S
H121 C135 0.931 . S
H122 C137 0.930 . S
C123 H111 0.930 . S
C123 C124 1.399 . S
C123 C128 1.399 . S
C124 C123 1.399 . S
C124 C125 1.376 . S
C125 H112 0.930 . S
C125 C124 1.376 . S
C125 C126 1.388 . S
C126 H113 0.930 . S
C126 C125 1.388 . S
C126 C127 1.390 . S
C127 C126 1.390 . S
C127 C128 1.394 . S
C127 C133 1.465 . S
C128 C123 1.399 . S
C128 C127 1.394 . S
C128 C129 1.516 . S
C129 C128 1.516 . S
C129 C130 1.502 . S
C129 C131 1.561 . S
C129 C132 1.526 . S
C130 H114 0.959 . S
C130 H115 0.959 . S
C130 H116 0.961 . S
C130 C129 1.502 . S
C131 H117 0.960 . S
C131 H118 0.961 . S
C131 H119 0.959 . S
C131 C129 1.561 . S
C132 C129 1.526 . S
C132 C133 1.396 . S
C132 C137 1.390 . S
C133 C127 1.465 . S
C133 C132 1.396 . S
C133 C134 1.399 . S
C134 H120 0.929 . S
C134 C133 1.399 . S
C134 C135 1.385 . S
C135 H121 0.931 . S
C135 C134 1.385 . S
C135 C136 1.389 . S
C136 C135 1.389 . S
C136 C137 1.387 . S
C137 H122 0.930 . S
C137 C132 1.390 . S
C137 C136 1.387 . S
H138 C150 0.930 . S
H139 C152 0.930 . S
H140 C153 0.930 . S
H141 C157 0.959 . S
H142 C157 0.959 . S
H143 C157 0.961 . S
H144 C158 0.960 . S
H145 C158 0.961 . S
H146 C158 0.959 . S
H147 C161 0.929 . S
H148 C162 0.931 . S
H149 C164 0.930 . S
C150 H138 0.930 . S
C150 C151 1.399 . S
C150 C155 1.399 . S
C151 C150 1.399 . S
C151 C152 1.376 . S
C152 H139 0.930 . S
C152 C151 1.376 . S
C152 C153 1.388 . S
C153 H140 0.930 . S
C153 C152 1.388 . S
C153 C154 1.390 . S
C154 C153 1.390 . S
C154 C155 1.394 . S
C154 C160 1.465 . S
C155 C150 1.399 . S
C155 C154 1.394 . S
C155 C156 1.516 . S
C156 C155 1.516 . S
C156 C157 1.502 . S
C156 C158 1.561 . S
C156 C159 1.526 . S
C157 H141 0.959 . S
C157 H142 0.959 . S
C157 H143 0.961 . S
C157 C156 1.502 . S
C158 H144 0.960 . S
C158 H145 0.961 . S
C158 H146 0.959 . S
C158 C156 1.561 . S
C159 C156 1.526 . S
C159 C160 1.396 . S
C159 C164 1.390 . S
C160 C154 1.465 . S
C160 C159 1.396 . S
C160 C161 1.399 . S
C161 H147 0.929 . S
C161 C160 1.399 . S
C161 C162 1.385 . S
C162 H148 0.931 . S
C162 C161 1.385 . S
C162 C163 1.389 . S
C163 C162 1.389 . S
C163 C164 1.387 . S
C164 H149 0.930 . S
C164 C159 1.390 . S
C164 C163 1.387 . S
H165 C177 0.930 . S
H166 C179 0.930 . S
H167 C180 0.930 . S
H168 C184 0.959 . S
H169 C184 0.959 . S
H170 C184 0.961 . S
H171 C185 0.960 . S
H172 C185 0.961 . S
H173 C185 0.959 . S
H174 C188 0.929 . S
H175 C189 0.931 . S
H176 C191 0.930 . S
C177 H165 0.930 . S
C177 C178 1.399 . S
C177 C182 1.399 . S
C178 C177 1.399 . S
C178 C179 1.376 . S
C179 H166 0.930 . S
C179 C178 1.376 . S
C179 C180 1.388 . S
C180 H167 0.930 . S
C180 C179 1.388 . S
C180 C181 1.390 . S
C181 C180 1.390 . S
C181 C182 1.394 . S
C181 C187 1.465 . S
C182 C177 1.399 . S
C182 C181 1.394 . S
C182 C183 1.516 . S
C183 C182 1.516 . S
C183 C184 1.502 . S
C183 C185 1.561 . S
C183 C186 1.526 . S
C184 H168 0.959 . S
C184 H169 0.959 . S
C184 H170 0.961 . S
C184 C183 1.502 . S
C185 H171 0.960 . S
C185 H172 0.961 . S
C185 H173 0.959 . S
C185 C183 1.561 . S
C186 C183 1.526 . S
C186 C187 1.396 . S
C186 C191 1.390 . S
C187 C181 1.465 . S
C187 C186 1.396 . S
C187 C188 1.399 . S
C188 H174 0.929 . S
C188 C187 1.399 . S
C188 C189 1.385 . S
C189 H175 0.931 . S
C189 C188 1.385 . S
C189 C190 1.389 . S
C190 C189 1.389 . S
C190 C191 1.387 . S
C191 H176 0.930 . S
C191 C186 1.390 . S
C191 C190 1.387 . S
H192 C204 0.930 . S
H193 C206 0.930 . S
H194 C207 0.930 . S
H195 C211 0.959 . S
H196 C211 0.959 . S
H197 C211 0.961 . S
H198 C212 0.960 . S
H199 C212 0.961 . S
H200 C212 0.959 . S
H201 C215 0.929 . S
H202 C216 0.931 . S
H203 C218 0.930 . S
C204 H192 0.930 . S
C204 C205 1.399 . S
C204 C209 1.399 . S
C205 C204 1.399 . S
C205 C206 1.376 . S
C206 H193 0.930 . S
C206 C205 1.376 . S
C206 C207 1.388 . S
C207 H194 0.930 . S
C207 C206 1.388 . S
C207 C208 1.390 . S
C208 C207 1.390 . S
C208 C209 1.394 . S
C208 C214 1.465 . S
C209 C204 1.399 . S
C209 C208 1.394 . S
C209 C210 1.516 . S
C210 C209 1.516 . S
C210 C211 1.502 . S
C210 C212 1.561 . S
C210 C213 1.526 . S
C211 H195 0.959 . S
C211 H196 0.959 . S
C211 H197 0.961 . S
C211 C210 1.502 . S
C212 H198 0.960 . S
C212 H199 0.961 . S
C212 H200 0.959 . S
C212 C210 1.561 . S
C213 C210 1.526 . S
C213 C214 1.396 . S
C213 C218 1.390 . S
C214 C208 1.465 . S
C214 C213 1.396 . S
C214 C215 1.399 . S
C215 H201 0.929 . S
C215 C214 1.399 . S
C215 C216 1.385 . S
C216 H202 0.931 . S
C216 C215 1.385 . S
C216 C217 1.389 . S
C217 C216 1.389 . S
C217 C218 1.387 . S
C218 H203 0.930 . S
C218 C213 1.390 . S
C218 C217 1.387 . S
H219 C231 0.930 . S
H220 C233 0.930 . S
H221 C234 0.930 . S
H222 C238 0.959 . S
H223 C238 0.959 . S
H224 C238 0.961 . S
H225 C239 0.960 . S
H226 C239 0.961 . S
H227 C239 0.959 . S
H228 C242 0.929 . S
H229 C243 0.931 . S
H230 C245 0.930 . S
C231 H219 0.930 . S
C231 C232 1.399 . S
C231 C236 1.399 . S
C232 C231 1.399 . S
C232 C233 1.376 . S
C233 H220 0.930 . S
C233 C232 1.376 . S
C233 C234 1.388 . S
C234 H221 0.930 . S
C234 C233 1.388 . S
C234 C235 1.390 . S
C235 C234 1.390 . S
C235 C236 1.394 . S
C235 C241 1.465 . S
C236 C231 1.399 . S
C236 C235 1.394 . S
C236 C237 1.516 . S
C237 C236 1.516 . S
C237 C238 1.502 . S
C237 C239 1.561 . S
C237 C240 1.526 . S
C238 H222 0.959 . S
C238 H223 0.959 . S
C238 H224 0.961 . S
C238 C237 1.502 . S
C239 H225 0.960 . S
C239 H226 0.961 . S
C239 H227 0.959 . S
C239 C237 1.561 . S
C240 C237 1.526 . S
C240 C241 1.396 . S
C240 C245 1.390 . S
C241 C235 1.465 . S
C241 C240 1.396 . S
C241 C242 1.399 . S
C242 H228 0.929 . S
C242 C241 1.399 . S
C242 C243 1.385 . S
C243 H229 0.931 . S
C243 C242 1.385 . S
C243 C244 1.389 . S
C244 C243 1.389 . S
C244 C245 1.387 . S
C245 H230 0.930 . S
C245 C240 1.390 . S
C245 C244 1.387 . S
H246 C258 0.923 1_545 S
H247 C260 0.930 . S
H248 C261 0.930 1_554 S
H249 C265 0.959 . S
H250 C265 0.959 . S
H251 C265 0.961 . S
H252 C266 0.960 . S
H253 C266 0.961 . S
H254 C266 0.959 . S
H255 C269 0.929 . S
H256 C270 0.931 . S
H257 C272 0.930 . S
C258 H246 0.923 1_565 S
C258 C259 1.399 . S
C258 C263 1.399 . S
C259 C258 1.399 . S
C259 C260 1.376 . S
C260 H247 0.930 . S
C260 C259 1.376 . S
C260 C261 1.388 . S
C261 H248 0.930 1_556 S
C261 C260 1.388 . S
C261 C262 1.390 . S
C262 C261 1.390 . S
C262 C263 1.394 . S
C262 C268 1.465 1_556 S
C263 C258 1.399 . S
C263 C262 1.394 . S
C263 C264 1.516 1_565 S
C264 C263 1.516 1_545 S
C264 C265 1.502 . S
C264 C266 1.561 . S
C264 C267 1.526 1_556 S
C265 H249 0.959 . S
C265 H250 0.959 . S
C265 H251 0.961 . S
C265 C264 1.502 . S
C266 H252 0.960 . S
C266 H253 0.961 . S
C266 H254 0.959 . S
C266 C264 1.561 . S
C267 C264 1.526 1_554 S
C267 C268 1.396 1_545 S
C267 C272 1.390 . S
C268 C262 1.465 1_554 S
C268 C267 1.396 1_565 S
C268 C269 1.399 . S
C269 H255 0.929 . S
C269 C268 1.399 . S
C269 C270 1.385 1_565 S
C270 H256 0.931 . S
C270 C269 1.385 1_545 S
C270 C271 1.389 . S
C271 C270 1.389 . S
C271 C272 1.387 . S
C272 H257 0.930 . S
C272 C267 1.390 . S
C272 C271 1.387 . S
H273 C285 0.930 . S
H274 C287 0.930 . S
H275 C288 0.930 . S
H276 C292 0.959 . S
H277 C292 0.959 . S
H278 C292 0.961 . S
H279 C293 0.960 . S
H280 C293 0.961 . S
H281 C293 0.959 . S
H282 C296 0.929 . S
H283 C297 0.931 . S
H284 C299 0.930 . S
C285 H273 0.930 . S
C285 C286 1.399 . S
C285 C290 1.399 . S
C286 C285 1.399 . S
C286 C287 1.376 . S
C287 H274 0.930 . S
C287 C286 1.376 . S
C287 C288 1.388 . S
C288 H275 0.930 . S
C288 C287 1.388 . S
C288 C289 1.390 . S
C289 C288 1.390 . S
C289 C290 1.394 . S
C289 C295 1.465 . S
C290 C285 1.399 . S
C290 C289 1.394 . S
C290 C291 1.516 . S
C291 C290 1.516 . S
C291 C292 1.502 . S
C291 C293 1.561 . S
C291 C294 1.526 . S
C292 H276 0.959 . S
C292 H277 0.959 . S
C292 H278 0.961 . S
C292 C291 1.502 . S
C293 H279 0.960 . S
C293 H280 0.961 . S
C293 H281 0.959 . S
C293 C291 1.561 . S
C294 C291 1.526 . S
C294 C295 1.396 . S
C294 C299 1.390 . S
C295 C289 1.465 . S
C295 C294 1.396 . S
C295 C296 1.399 . S
C296 H282 0.929 . S
C296 C295 1.399 . S
C296 C297 1.385 . S
C297 H283 0.931 . S
C297 C296 1.385 . S
C297 C298 1.389 . S
C298 C297 1.389 . S
C298 C299 1.387 . S
C299 H284 0.930 . S
C299 C294 1.390 . S
C299 C298 1.387 . S
H300 C312 0.930 . S
H301 C314 0.930 . S
H302 C315 0.930 . S
H303 C319 0.959 . S
H304 C319 0.959 . S
H305 C319 0.961 . S
H306 C320 0.960 . S
H307 C320 0.961 . S
H308 C320 0.959 . S
H309 C323 0.919 1_556 S
H310 C324 0.931 . S
H311 C326 0.954 . S
C312 H300 0.930 . S
C312 C313 1.399 . S
C312 C317 1.399 . S
C313 C312 1.399 . S
C313 C314 1.376 . S
C314 H301 0.930 . S
C314 C313 1.376 . S
C314 C315 1.388 1_455 S
C315 H302 0.930 . S
C315 C314 1.388 1_655 S
C315 C316 1.390 . S
C316 C315 1.390 . S
C316 C317 1.394 1_655 S
C316 C322 1.465 1_556 S
C317 C312 1.399 . S
C317 C316 1.394 1_455 S
C317 C318 1.516 1_556 S
C318 C317 1.516 1_554 S
C318 C319 1.502 . S
C318 C320 1.561 . S
C318 C321 1.526 1_455 S
C319 H303 0.959 . S
C319 H304 0.959 . S
C319 H305 0.961 . S
C319 C318 1.502 . S
C320 H306 0.960 . S
C320 H307 0.961 . S
C320 H308 0.959 . S
C320 C318 1.561 . S
C321 C318 1.526 1_655 S
C321 C322 1.396 . S
C321 C326 1.390 . S
C322 C316 1.465 1_554 S
C322 C321 1.396 . S
C322 C323 1.399 . S
C323 H309 0.919 1_554 S
C323 C322 1.399 . S
C323 C324 1.385 . S
C324 H310 0.931 . S
C324 C323 1.385 . S
C324 C325 1.389 . S
C325 C324 1.389 . S
C325 C326 1.387 . S
C326 H311 0.954 . S
C326 C321 1.390 . S
C326 C325 1.387 . S
H327 C339 0.930 . S
H328 C341 0.930 . S
H329 C342 0.930 . S
H330 C346 0.959 . S
H331 C346 0.959 . S
H332 C346 0.961 . S
H333 C347 0.960 . S
H334 C347 0.961 . S
H335 C347 0.959 . S
H336 C350 0.929 . S
H337 C351 0.931 . S
H338 C353 0.930 1_545 S
C339 H327 0.930 . S
C339 C340 1.399 . S
C339 C344 1.399 . S
C340 C339 1.399 . S
C340 C341 1.376 . S
C341 H328 0.930 . S
C341 C340 1.376 . S
C341 C342 1.388 1_545 S
C342 H329 0.930 . S
C342 C341 1.388 1_565 S
C342 C343 1.390 . S
C343 C342 1.390 . S
C343 C344 1.394 1_565 S
C343 C349 1.465 . S
C344 C339 1.399 . S
C344 C343 1.394 1_545 S
C344 C345 1.516 . S
C345 C344 1.516 . S
C345 C346 1.502 . S
C345 C347 1.561 . S
C345 C348 1.526 1_545 S
C346 H330 0.959 . S
C346 H331 0.959 . S
C346 H332 0.961 . S
C346 C345 1.502 . S
C347 H333 0.960 . S
C347 H334 0.961 . S
C347 H335 0.959 . S
C347 C345 1.561 . S
C348 C345 1.526 1_565 S
C348 C349 1.396 . S
C348 C353 1.390 . S
C349 C343 1.465 . S
C349 C348 1.396 . S
C349 C350 1.399 . S
C350 H336 0.929 . S
C350 C349 1.399 . S
C350 C351 1.385 . S
C351 H337 0.931 . S
C351 C350 1.385 . S
C351 C352 1.389 . S
C352 C351 1.389 . S
C352 C353 1.387 . S
C353 H338 0.930 1_565 S
C353 C348 1.390 . S
C353 C352 1.387 . S
H354 C366 0.930 . S
H355 C368 0.930 . S
H356 C369 0.930 . S
H357 C373 0.959 1_556 S
H358 C373 0.959 . S
H359 C373 0.961 1_556 S
H360 C374 0.960 . S
H361 C374 0.961 . S
H362 C374 0.959 . S
H363 C377 0.929 . S
H364 C378 0.931 . S
H365 C380 0.930 . S
C366 H354 0.930 . S
C366 C367 1.399 . S
C366 C371 1.399 . S
C367 C366 1.399 . S
C367 C368 1.376 . S
C368 H355 0.930 . S
C368 C367 1.376 . S
C368 C369 1.388 . S
C369 H356 0.930 . S
C369 C368 1.388 . S
C369 C370 1.390 . S
C370 C369 1.390 . S
C370 C371 1.394 . S
C370 C376 1.465 1_556 S
C371 C366 1.399 . S
C371 C370 1.394 . S
C371 C372 1.516 1_556 S
C372 C371 1.516 1_554 S
C372 C373 1.502 . S
C372 C374 1.561 . S
C372 C375 1.526 . S
C373 H357 0.959 1_554 S
C373 H358 0.959 . S
C373 H359 0.961 1_554 S
C373 C372 1.502 . S
C374 H360 0.960 . S
C374 H361 0.961 . S
C374 H362 0.959 . S
C374 C372 1.561 . S
C375 C372 1.526 . S
C375 C376 1.396 . S
C375 C380 1.390 . S
C376 C370 1.465 1_554 S
C376 C375 1.396 . S
C376 C377 1.399 . S
C377 H363 0.929 . S
C377 C376 1.399 . S
C377 C378 1.385 . S
C378 H364 0.931 . S
C378 C377 1.385 . S
C378 C379 1.389 . S
C379 C378 1.389 . S
C379 C380 1.387 . S
C380 H365 0.930 . S
C380 C375 1.390 . S
C380 C379 1.387 . S
H381 C393 0.930 . S
H382 C395 0.930 . S
H383 C396 0.930 . S
H384 C400 0.959 . S
H385 C400 0.959 . S
H386 C400 0.961 . S
H387 C401 0.960 . S
H388 C401 0.961 . S
H389 C401 0.959 . S
H390 C404 0.929 . S
H391 C405 0.931 . S
H392 C407 0.930 . S
C393 H381 0.930 . S
C393 C394 1.399 . S
C393 C398 1.399 . S
C394 C393 1.399 . S
C394 C395 1.376 . S
C395 H382 0.930 . S
C395 C394 1.376 . S
C395 C396 1.388 . S
C396 H383 0.930 . S
C396 C395 1.388 . S
C396 C397 1.390 . S
C397 C396 1.390 . S
C397 C398 1.394 . S
C397 C403 1.465 1_455 S
C398 C393 1.399 . S
C398 C397 1.394 . S
C398 C399 1.516 1_455 S
C399 C398 1.516 1_655 S
C399 C400 1.502 1_655 S
C399 C401 1.561 . S
C399 C402 1.526 . S
C400 H384 0.959 . S
C400 H385 0.959 . S
C400 H386 0.961 . S
C400 C399 1.502 1_455 S
C401 H387 0.960 . S
C401 H388 0.961 . S
C401 H389 0.959 . S
C401 C399 1.561 . S
C402 C399 1.526 . S
C402 C403 1.396 . S
C402 C407 1.390 . S
C403 C397 1.465 1_655 S
C403 C402 1.396 . S
C403 C404 1.399 . S
C404 H390 0.929 . S
C404 C403 1.399 . S
C404 C405 1.385 . S
C405 H391 0.931 . S
C405 C404 1.385 . S
C405 C406 1.389 . S
C406 C405 1.389 . S
C406 C407 1.387 . S
C407 H392 0.930 . S
C407 C402 1.390 . S
C407 C406 1.387 . S
C97 C9 1.326 . S
C109 C64 1.326 . S
C124 C23 1.279 . S
C136 C78 1.287 . S
C151 C8 1.277 . S
C163 C36 1.278 . S
C178 C50 1.277 . S
C190 C22 1.282 . S
C205 C65 1.278 . S
C217 C37 1.285 . S
C232 C51 1.314 . S
C244 C79 1.322 . S
C259 C49 1.437 . S
C271 C7 1.476 . S
C286 C62 1.402 . S
C298 C21 1.417 . S
C313 C76 1.437 . S
C325 C34 1.400 . S
C340 C6 1.446 . S
C352 C48 1.403 . S
C367 C20 1.416 . S
C379 C63 1.403 . S
C394 C77 1.475 . S
C406 C35 1.461 . S
