# Generated by pormake.
# Topology ilc, (8)-cn, num edge types: 1
# Building blocks:
#     Node 0, Type 0, BuildingBlock: LIZSOE_clean_sbu_0, # of connection points: 8
#     Node 1, Type 0, BuildingBlock: LIZSOE_clean_sbu_0, # of connection points: 8
#     Node 2, Type 0, BuildingBlock: LIZSOE_clean_sbu_0, # of connection points: 8
#     Edge 3, Type (0, 0), BuildingBlock: FUNLAD_clean_linker_1, # of connection points: 2
#     Edge 4, Type (0, 0), BuildingBlock: FUNLAD_clean_linker_1, # of connection points: 2
#     Edge 5, Type (0, 0), BuildingBlock: FUNLAD_clean_linker_1, # of connection points: 2
#     Edge 6, Type (0, 0), BuildingBlock: FUNLAD_clean_linker_1, # of connection points: 2
#     Edge 7, Type (0, 0), BuildingBlock: FUNLAD_clean_linker_1, # of connection points: 2
#     Edge 8, Type (0, 0), BuildingBlock: FUNLAD_clean_linker_1, # of connection points: 2
#     Edge 9, Type (0, 0), BuildingBlock: FUNLAD_clean_linker_1, # of connection points: 2
#     Edge 10, Type (0, 0), BuildingBlock: FUNLAD_clean_linker_1, # of connection points: 2
#     Edge 11, Type (0, 0), BuildingBlock: FUNLAD_clean_linker_1, # of connection points: 2
#     Edge 12, Type (0, 0), BuildingBlock: FUNLAD_clean_linker_1, # of connection points: 2
#     Edge 13, Type (0, 0), BuildingBlock: FUNLAD_clean_linker_1, # of connection points: 2
#     Edge 14, Type (0, 0), BuildingBlock: FUNLAD_clean_linker_1, # of connection points: 2
# Relax obj value: 0.383
# Max RMSD: 0.180
# Mean RMSD: 0.180
data_MOF--net-ilc--node1-LIZSOE_clean_sbu_0--edge1-FUNLAD_clean_linker_1
_symmetry_space_group_name_H-M    P1
_symmetry_Int_Tables_number       1
_symmetry_cell_setting            triclinic
loop_
_symmetry_equiv_pos_as_xyz
'x, y, z'
_cell_length_a     21.490823
_cell_length_b     21.853876
_cell_length_c     16.545295
_cell_angle_alpha  90.699591
_cell_angle_beta   91.567572
_cell_angle_gamma 119.62423
loop_
_atom_site_label
_atom_site_type_symbol
_atom_site_fract_x
_atom_site_fract_y
_atom_site_fract_z
_atom_type_partial_charge
Co0 Co 0.07868 0.03466 0.92054 0.0
N1 N 0.0904 1.00335 0.82041 0.0
C2 C 0.12684 0.0528 0.76648 0.0
N3 N 0.14446 0.96369 0.7364 0.0
C4 C 0.10388 0.94987 0.8019 0.0
C5 C 0.16318 0.0304 0.71895 0.0
Co6 Co 0.99129 0.04346 0.23603 0.0
N7 N 0.06577 0.09363 0.31042 0.0
N8 N 0.13781 0.15614 0.41505 0.0
C9 C 0.17676 0.14391 0.36172 0.0
C10 C 0.1329 0.10705 0.29698 0.0
C11 C 0.07042 0.12514 0.38306 0.0
Co12 Co 1.00059 0.02875 0.08624 0.0
C13 C 0.88725 0.99018 0.24032 0.0
H14 H 0.14955 0.09212 0.24277 0.0
O15 O 0.08139 0.06807 1.01121 0.0
O16 O 0.05611 0.99033 0.15109 0.0
O17 O 0.93994 0.93001 1.03639 0.0
O18 O 0.95376 0.06329 1.0019 0.0
O19 O 1.00955 0.06389 0.88386 0.0
O20 O 0.99744 0.96235 0.2611 0.0
O21 O 0.91289 0.99268 0.1668 0.0
O22 O 0.98364 0.1243 0.21827 0.0
O23 O 1.00044 0.94705 0.92814 0.0
O24 O 0.13711 1.0076 0.97256 0.0
O25 O 0.06103 0.13074 0.13493 0.0
O26 O 0.92919 0.01933 0.3027 0.0
C27 C 0.94775 0.90766 0.96848 0.0
C28 C 1.00811 0.1233 0.42474 0.0
H29 H 0.97194 0.13012 0.38178 0.0
H30 H 0.97537 0.07082 0.45077 0.0
H31 H 1.0263 0.16422 0.47379 0.0
C32 C 0.04094 0.95702 0.21682 0.0
C33 C 0.9632 0.07331 0.92399 0.0
H34 H 0.13628 0.10616 0.77043 0.0
H35 H 0.14791 0.91283 0.89411 0.0
H36 H 0.08726 0.8463 0.82544 0.0
H37 H 0.05362 0.87915 0.90247 0.0
C38 C 0.09648 0.89397 0.85941 0.0
C39 C 0.13986 0.06673 0.99071 0.0
C40 C 0.03858 0.16267 0.18082 0.0
H41 H 0.20676 0.06393 0.68181 0.0
H42 H 0.23348 0.16247 0.36766 0.0
Co43 Co 0.74475 0.36714 0.2458 0.0
N44 N 0.7539 0.3345 0.1449 0.0
C45 C 0.79204 0.38332 0.09083 0.0
N46 N 0.79919 0.28927 1.05586 0.0
C47 C 0.7617 0.27797 0.12341 0.0
C48 C 0.82324 0.35727 1.04009 0.0
Co49 Co 0.66562 0.37717 0.56674 0.0
N50 N 0.74123 0.4316 0.63737 0.0
N51 N 0.8145 0.50373 0.73593 0.0
C52 C 0.85453 0.49943 0.67754 0.0
C53 C 0.80955 0.4555 0.61705 0.0
C54 C 0.74575 0.46229 0.71032 0.0
Co55 Co 0.672 0.36211 0.41639 0.0
C56 C 0.56189 0.31633 0.57555 0.0
H57 H 0.82573 0.44319 0.56068 0.0
O58 O 0.75026 0.40242 0.33744 0.0
O59 O 0.733 0.32806 0.47797 0.0
O60 O 0.61453 0.2624 0.37124 0.0
O61 O 0.62023 0.39256 0.33299 0.0
O62 O 0.67412 0.39491 0.21267 0.0
O63 O 0.67895 0.29965 0.59089 0.0
O64 O 0.5863 0.32269 0.5006 0.0
O65 O 0.65152 0.45439 0.55022 0.0
O66 O 0.66736 0.27714 0.25746 0.0
O67 O 0.80677 0.34365 0.29363 0.0
O68 O 0.72834 0.46529 0.46298 0.0
O69 O 0.60447 0.349 0.63642 0.0
C70 C 0.61895 0.23807 0.30334 0.0
C71 C 0.6824 0.45366 0.7558 0.0
H72 H 0.65279 0.39944 0.77808 0.0
H73 H 0.69883 0.49234 0.80707 0.0
H74 H 0.64394 0.45968 0.71571 0.0
C75 C 0.72103 0.29502 0.54365 0.0
C76 C 0.62899 0.40434 0.25512 0.0
H77 H 0.80421 0.43754 0.09452 0.0
H78 H 0.79922 0.21626 0.18548 0.0
H79 H 0.71068 0.16773 0.14277 0.0
H80 H 0.72883 0.2182 0.23638 0.0
C81 C 0.74839 0.21728 0.17605 0.0
C82 C 0.80823 0.40235 0.31211 0.0
C83 C 0.70414 0.49487 0.51035 0.0
H84 H 0.86432 0.38747 0.99836 0.0
H85 H 0.9123 0.52642 0.6779 0.0
Co86 Co 0.41576 0.72582 0.58681 0.0
N87 N 0.42721 0.7235 0.47423 0.0
C88 C 0.4485 0.78519 0.43742 0.0
N89 N 0.49557 0.7319 0.36984 0.0
C90 C 0.45484 0.69062 0.42941 0.0
C91 C 0.49219 0.79141 0.3756 0.0
Co92 Co 0.24779 0.63891 0.92479 0.0
N93 N 0.23522 0.62262 1.03466 0.0
N94 N 0.18345 0.56571 0.14617 0.0
C95 C 0.17448 0.62203 0.1417 0.0
C96 C 0.208 0.65786 1.07463 0.0
C97 C 0.21985 0.56633 0.08045 0.0
Co98 Co 0.33121 0.69022 0.75629 0.0
C99 C 0.19296 0.60019 0.86716 0.0
H100 H 0.20675 0.70354 1.05227 0.0
O101 O 0.42045 0.73835 0.69162 0.0
O102 O 0.38125 0.64742 0.81851 0.0
O103 O 0.28151 0.60071 0.68908 0.0
O104 O 0.28646 0.73441 0.68246 0.0
O105 O 0.35473 0.76589 0.57162 0.0
O106 O 0.33013 0.6259 0.93557 0.0
O107 O 0.24258 0.65038 0.82236 0.0
O108 O 0.30871 0.73769 0.94546 0.0
O109 O 0.3333 0.63625 0.57327 0.0
O110 O 0.46293 0.67927 0.61343 0.0
O111 O 0.37501 0.77663 0.83363 0.0
O112 O 0.19742 0.54649 0.89169 0.0
C113 C 0.28559 0.5895 0.61472 0.0
C114 C 0.23721 0.5094 1.05948 0.0
H115 H 0.23551 0.49912 0.99397 0.0
H116 H 0.29248 0.52646 0.08127 0.0
H117 H 0.20071 0.45952 0.08895 0.0
C118 C 0.37745 0.62741 0.89066 0.0
C119 C 0.30203 0.76137 0.61118 0.0
H120 H 0.44155 0.82761 0.46116 0.0
H121 H 0.50263 0.6329 0.47988 0.0
H122 H 0.44202 0.5894 0.39617 0.0
H123 H 0.4071 0.59251 0.49277 0.0
C124 C 0.4509 0.62234 0.45115 0.0
C125 C 0.46753 0.73712 0.64134 0.0
C126 C 0.35879 0.78671 0.90581 0.0
H127 H 0.52203 0.83751 0.33981 0.0
H128 H 0.14638 0.63644 0.18455 0.0
H129 H 0.17722 0.88303 0.7389 0.0
C130 C 0.17024 0.91955 0.70105 0.0
H131 H 0.20101 0.883 0.60069 0.0
H132 H 0.05058 0.08402 0.56468 0.0
H133 H 0.93731 0.97643 0.5813 0.0
H134 H 0.93225 0.86098 0.58384 0.0
H135 H 0.04198 0.85386 0.57269 0.0
C136 C 0.18181 0.91737 0.62156 0.0
C137 C 0.176 0.96502 0.56303 0.0
C138 C 0.11109 0.96606 0.5552 0.0
C139 C 0.11353 0.03172 0.54764 0.0
C140 C 0.05035 0.03458 0.56102 0.0
C141 C 0.98542 0.97331 0.57253 0.0
C142 C 0.98256 0.90833 0.57423 0.0
C143 C 0.04509 0.90466 0.56724 0.0
H144 H 0.16314 0.23982 0.50528 0.0
C145 C 0.16365 0.19127 0.49222 0.0
H146 H 0.2101 0.19247 0.60566 0.0
H147 H 0.30423 0.97067 0.54494 0.0
H148 H 0.41207 0.0697 0.49459 0.0
H149 H 0.41316 0.17896 0.45767 0.0
H150 H 0.31028 0.19473 0.48393 0.0
C151 C 0.188 0.16421 0.54829 0.0
C152 C 0.18051 0.09337 0.5364 0.0
C153 C 0.24179 0.08704 0.52197 0.0
C154 C 0.23975 0.02244 0.53707 0.0
C155 C 0.30285 1.01818 0.53075 0.0
C156 C 0.36475 0.07444 0.50216 0.0
C157 C 0.36559 0.13642 0.48242 0.0
C158 C 0.30607 0.14428 0.49604 0.0
H159 H 0.85325 0.58792 0.82828 0.0
C160 C 0.83989 0.53399 0.8153 0.0
H161 H 0.861 0.51795 0.93514 0.0
H162 H 0.6686 0.18705 0.91293 0.0
H163 H 0.57518 0.21298 0.95423 0.0
H164 H 0.59865 0.33571 0.95943 0.0
H165 H 0.7131 0.43206 0.91924 0.0
C166 C 0.84439 0.49512 0.8744 0.0
C167 C 0.82496 0.42035 0.86012 0.0
C168 C 0.75754 0.36536 0.88375 0.0
C169 C 0.74565 0.29551 0.88656 0.0
C170 C 0.67904 0.24083 0.91085 0.0
C171 C 0.6259 0.25524 0.93509 0.0
C172 C 0.63908 0.32434 0.93787 0.0
C173 C 0.70454 0.37908 0.91374 0.0
H174 H 0.81775 0.19937 1.04682 0.0
C175 C 0.81258 0.23893 1.01289 0.0
H176 H 0.82076 0.19339 0.90464 0.0
H177 H 0.95453 0.50945 0.79528 0.0
H178 H 0.03753 0.47618 0.73957 0.0
H179 H 1.02034 0.35721 0.76008 0.0
H180 H 0.91533 0.26902 0.82753 0.0
C181 C 0.81128 0.23337 0.93139 0.0
C182 C 0.80422 0.28393 0.87792 0.0
C183 C 0.86597 0.33479 0.84054 0.0
C184 C 0.87651 0.40362 0.83103 0.0
C185 C 0.94079 0.45486 0.7977 0.0
C186 C 0.98969 0.43676 0.76747 0.0
C187 C 0.9803 0.36997 0.77947 0.0
C188 C 0.92009 0.31994 0.81793 0.0
H189 H 0.10555 0.48752 0.22462 0.0
C190 C 0.16184 0.51825 0.21162 0.0
H191 H 0.19101 0.47295 0.30303 0.0
H192 H 0.50193 0.55317 0.24088 0.0
H193 H 0.43893 0.42465 0.23466 0.0
H194 H 0.30891 0.35733 0.21127 0.0
H195 H 0.2372 0.41504 0.21926 0.0
C196 C 0.21012 0.51325 0.25941 0.0
C197 C 0.28864 0.5558 0.25012 0.0
C198 C 0.32863 0.52123 0.23734 0.0
C199 C 0.40438 0.56119 0.23537 0.0
C200 C 0.44401 0.52541 0.2374 0.0
C201 C 0.40894 0.45211 0.23289 0.0
C202 C 0.33512 0.41375 0.22154 0.0
C203 C 0.2948 0.44741 0.22579 0.0
H204 H 0.59964 0.75287 0.3281 0.0
C205 C 0.54206 0.72145 0.3173 0.0
H206 H 0.55361 0.6728 0.21315 0.0
H207 H 0.23747 0.64302 0.2999 0.0
H208 H 0.29293 0.76872 0.27336 0.0
H209 H 0.41069 0.83055 0.21047 0.0
H210 H 0.47864 0.76925 0.1867 0.0
C211 C 0.51643 0.67873 0.25113 0.0
C212 C 0.4382 0.63541 0.23301 0.0
C213 C 0.39584 0.66833 0.22884 0.0
C214 C 0.32372 0.63032 0.25068 0.0
C215 C 0.28939 0.66854 0.27306 0.0
C216 C 0.32076 0.74038 0.25852 0.0
C217 C 0.3871 0.7752 0.22312 0.0
C218 C 0.42513 0.73982 0.20923 0.0
H219 H 0.21644 0.79025 0.60716 0.0
C220 C 0.25466 0.78512 0.57046 0.0
H221 H 0.29241 0.78794 0.45367 0.0
H222 H 0.2172 1.00398 0.29282 0.0
H223 H 0.34508 0.05873 0.28014 0.0
H224 H 0.41286 1.00411 0.33581 0.0
H225 H 0.35413 0.89836 0.41266 0.0
C226 C 0.2555 0.79632 0.48946 0.0
C227 C 0.21119 0.82298 0.44481 0.0
C228 C 0.24571 0.88341 0.39603 0.0
C229 C 0.20566 0.91234 0.35774 0.0
C230 C 0.24348 0.97684 0.31779 0.0
C231 C 0.31726 1.00912 0.3101 0.0
C232 C 0.35547 0.9787 0.34225 0.0
C233 C 0.32074 0.91747 0.38604 0.0
H234 H 0.11404 0.91256 0.20485 0.0
C235 C 0.08274 0.92315 0.2475 0.0
H236 H 0.05498 0.92058 0.36919 0.0
H237 H 0.12439 0.69528 0.51008 0.0
H238 H 0.99481 0.63308 0.50926 0.0
H239 H 0.92595 0.68404 0.44701 0.0
H240 H 0.98592 0.79534 0.37981 0.0
C241 C 0.08656 0.90982 0.32707 0.0
C242 C 0.12984 0.87809 0.36232 0.0
C243 C 0.09483 0.81473 0.4059 0.0
C244 C 0.13506 0.78681 0.44592 0.0
C245 C 0.09728 0.72079 0.48275 0.0
C246 C 1.02272 0.68421 0.48231 0.0
C247 C 0.98389 0.71262 0.44661 0.0
C248 C 1.01913 0.77685 0.40855 0.0
H249 H 0.19644 0.47834 0.61245 0.0
C250 C 0.23509 0.51989 0.57563 0.0
H251 H 0.27628 0.54839 0.45914 0.0
H252 H 0.97666 0.29578 0.30837 0.0
H253 H 0.91945 0.35387 0.37098 0.0
H254 H 0.98732 0.45718 0.46267 0.0
H255 H 0.11176 0.49761 0.49988 0.0
C256 C 0.23682 0.50736 0.49582 0.0
C257 C 0.19069 0.43749 0.45369 0.0
C258 C 0.11895 0.41589 0.42953 0.0
C259 C 0.08084 0.35809 0.37296 0.0
C260 C 1.00871 0.3379 0.35169 0.0
C261 C 0.97521 0.37193 0.38601 0.0
C262 C 1.01336 0.42991 0.43791 0.0
C263 C 0.08472 0.45245 0.45882 0.0
H264 H 0.13644 0.27035 0.18564 0.0
C265 C 0.08623 0.2366 0.21403 0.0
H266 H 1.0184 0.22278 0.30851 0.0
H267 H 0.32166 0.45727 0.49982 0.0
H268 H 0.3761 0.3893 0.4547 0.0
H269 H 0.31321 0.29168 0.35471 0.0
H270 H 0.19705 0.26272 0.29786 0.0
C271 C 0.07021 0.2574 0.28497 0.0
C272 C 0.11511 0.32265 0.33807 0.0
C273 C 0.18575 0.34186 0.36747 0.0
C274 C 0.22279 0.39867 0.42541 0.0
C275 C 0.29193 0.41527 0.45531 0.0
C276 C 0.32356 0.37638 0.43056 0.0
C277 C 0.28788 0.32115 0.37469 0.0
C278 C 0.22056 0.30478 0.34248 0.0
H279 H 0.55053 0.85303 0.65351 0.0
C280 C 0.537 0.80366 0.62283 0.0
H281 H 0.56271 0.74883 0.53793 0.0
H282 H 0.72299 0.042 0.33834 0.0
H283 H 0.63819 0.07663 0.38264 0.0
H284 H 0.55116 1.00973 0.48543 0.0
H285 H 0.55008 0.91015 0.54657 0.0
C286 C 0.57737 0.80064 0.56179 0.0
C287 C 0.64002 0.8568 0.51706 0.0
C288 C 0.63865 0.91459 0.47972 0.0
C289 C 0.68725 0.95171 0.41703 0.0
C290 C 0.68632 1.01072 0.38385 0.0
C291 C 0.63799 0.03138 0.40882 0.0
C292 C 0.5892 0.99389 0.46694 0.0
C293 C 0.58933 0.93637 0.50202 0.0
H294 H 0.77456 0.90025 0.23302 0.0
C295 C 0.80965 0.95207 0.2602 0.0
H296 H 0.82674 0.02788 0.35123 0.0
H297 H 0.67029 0.76177 0.58597 0.0
H298 H 0.75989 0.73168 0.54663 0.0
H299 H 0.84213 0.79453 0.43887 0.0
H300 H 0.83424 0.88558 0.368 0.0
C301 C 0.79108 0.97431 0.32863 0.0
C302 C 0.73535 0.92978 0.38818 0.0
C303 C 0.741 0.87632 0.43034 0.0
C304 C 0.69407 0.84066 0.49432 0.0
C305 C 0.70272 0.78883 0.53574 0.0
C306 C 0.75468 0.7718 0.51479 0.0
C307 C 0.80081 0.80701 0.45379 0.0
C308 C 0.79486 0.85904 0.41261 0.0
H309 H 0.77907 0.2363 0.51849 0.0
C310 C 0.75925 0.25546 0.56667 0.0
H311 H 0.74959 0.26344 0.69175 0.0
H312 H 0.77987 0.02237 0.84536 0.0
H313 H 0.65738 0.98994 0.87244 0.0
H314 H 0.60031 0.05219 0.80892 0.0
H315 H 0.66486 0.14658 0.71713 0.0
C316 C 0.77011 0.2436 0.64494 0.0
C317 C 0.80369 0.20014 0.67372 0.0
C318 C 0.76581 0.1447 0.72817 0.0
C319 C 0.79942 0.10942 0.76661 0.0
C320 C 0.75841 0.05284 0.81753 0.0
C321 C 0.68765 0.03309 0.8329 0.0
C322 C 0.65547 0.06807 0.79703 0.0
C323 C 0.69352 0.12272 0.74487 0.0
H324 H 0.89432 0.12266 0.91588 0.0
C325 C 0.91974 0.09999 0.8797 0.0
H326 H 0.93609 0.07463 0.76192 0.0
H327 H 0.89615 0.30477 0.57625 0.0
H328 H 1.01598 0.33191 0.5455 0.0
H329 H 0.07133 0.26784 0.60641 0.0
H330 H 1.00778 0.17654 0.70146 0.0
C331 C 0.91088 0.09766 0.79785 0.0
C332 C 0.87213 0.13014 0.75282 0.0
C333 C 0.90841 0.18182 0.69399 0.0
C334 C 0.87503 0.21758 0.6557 0.0
C335 C 0.91607 0.27285 0.60332 0.0
C336 C 0.98566 0.28985 0.58563 0.0
C337 C 1.01704 0.25389 0.62044 0.0
C338 C 0.97955 0.20116 0.67471 0.0
H339 H 0.79468 0.60633 0.50787 0.0
C340 C 0.74897 0.57012 0.5416 0.0
H341 H 0.68665 0.55282 0.64228 0.0
H342 H 0.76457 0.80438 0.86302 0.0
H343 H 0.64039 0.76435 0.82432 0.0
H344 H 0.57878 0.67466 0.7152 0.0
H345 H 0.6413 0.62655 0.64169 0.0
C346 C 0.73586 0.58987 0.61518 0.0
C347 C 0.78012 0.65585 0.6683 0.0
C348 C 0.74291 0.68439 0.71184 0.0
C349 C 0.77814 0.73612 0.77608 0.0
C350 C 0.74019 0.76492 0.81482 0.0
C351 C 0.66884 0.74224 0.79337 0.0
C352 C 0.63403 0.69144 0.73221 0.0
C353 C 0.67046 0.66338 0.69122 0.0
H354 H 0.85271 0.79782 0.96657 0.0
C355 C 0.89367 0.83765 0.93021 0.0
H356 H 0.93736 0.86601 0.8149 0.0
H357 H 0.87668 0.62333 0.59841 0.0
H358 H 0.99404 0.65368 0.65169 0.0
H359 H 0.04135 0.72119 0.77968 0.0
H360 H 0.97211 0.76373 0.85198 0.0
C361 C 0.89555 0.82508 0.84948 0.0
C362 C 0.84972 0.75754 0.80074 0.0
C363 C 0.88459 0.7253 0.76207 0.0
C364 C 0.85286 0.67921 0.69262 0.0
C365 C 0.89505 0.656 0.65231 0.0
C366 C 0.9632 0.67311 0.68236 0.0
C367 C 0.99018 0.71149 0.75433 0.0
C368 C 0.95119 0.73698 0.79407 0.0
H369 H 0.44251 0.26625 0.55425 0.0
C370 C 0.48456 0.27329 0.59712 0.0
H371 H 0.51319 0.25804 0.71519 0.0
H372 H 0.26413 0.02364 0.87828 0.0
H373 H 0.31184 0.95559 0.81753 0.0
H374 H 0.39743 1.00349 0.70819 0.0
H375 H 0.43652 0.12101 0.66005 0.0
C376 C 0.46916 0.2508 0.67476 0.0
C377 C 0.39756 0.21389 0.71465 0.0
C378 C 0.37388 0.14529 0.74327 0.0
C379 C 0.32517 0.11835 0.80788 0.0
C380 C 0.30322 0.04886 0.83273 0.0
C381 C 0.32955 1.00847 0.79745 0.0
C382 C 0.37758 0.03534 0.73584 0.0
C383 C 0.39967 0.10284 0.70895 0.0
H384 H 0.17243 0.1538 0.90515 0.0
C385 C 0.19391 0.12709 0.94144 0.0
H386 H 0.27687 0.10625 0.96425 0.0
H387 H 0.42083 0.34116 0.66634 0.0
H388 H 0.37588 0.41279 0.727 0.0
H389 H 0.2987 0.37139 0.84428 0.0
H390 H 0.26598 0.25879 0.9015 0.0
C391 C 0.2585 0.13345 0.92437 0.0
C392 C 0.29987 0.1604 0.84667 0.0
C393 C 0.32008 0.22772 0.81404 0.0
C394 C 0.36732 0.25329 0.74731 0.0
C395 C 0.38642 0.32026 0.71705 0.0
C396 C 0.36089 0.36172 0.75118 0.0
C397 C 0.3172 0.33825 0.81706 0.0
C398 C 0.2977 0.27264 0.84876 0.0
H399 H 0.5486 0.43961 0.25025 0.0
C400 C 0.58612 0.43316 0.2138 0.0
H401 H 0.63473 0.45239 0.10045 0.0
H402 H 0.33626 0.45666 0.9922 0.0
H403 H 0.27705 0.3313 1.01455 0.0
H404 H 0.34533 0.27499 1.06437 0.0
H405 H 0.4723 0.34521 0.10041 0.0
C406 C 0.59453 0.45517 0.13626 0.0
C407 C 0.55373 0.48828 0.09771 0.0
C408 C 0.48105 0.44631 1.07033 0.0
C409 C 0.4422 0.47835 1.03674 0.0
C410 C 0.36844 0.43523 1.01658 0.0
C411 C 0.33397 0.36299 1.02826 0.0
C412 C 0.37234 0.33141 1.05695 0.0
C413 C 0.44511 0.37227 1.07747 0.0
H414 H 0.45557 0.58964 0.87459 0.0
C415 C 0.42599 0.60018 0.9197 0.0
H416 H 0.40627 0.5989 1.04406 0.0
H417 H 0.69297 0.58475 0.13627 0.0
H418 H 0.75214 0.71054 0.11447 0.0
H419 H 0.68634 0.76477 1.05194 0.0
H420 H 0.56064 0.69371 1.01079 0.0
C421 C 0.43347 0.58641 0.99799 0.0
C422 C 0.47661 0.5522 1.02555 0.0
C423 C 0.5503 0.5937 1.04881 0.0
C424 C 0.58858 0.56202 0.08491 0.0
C425 C 0.6616 0.60573 0.10839 0.0
C426 C 0.69616 0.67801 0.09632 0.0
C427 C 0.65909 0.70858 1.0611 0.0
C428 C 0.587 0.66724 1.03775 0.0
H429 H 0.44749 0.89809 0.91647 0.0
C430 C 0.40207 0.85747 0.94716 0.0
H431 H 0.34198 0.83169 1.05308 0.0
H432 H 0.63774 0.07846 0.22989 0.0
H433 H 0.68396 0.99834 0.20572 0.0
H434 H 0.61406 0.8894 0.12366 0.0
H435 H 0.49939 0.86104 1.06102 0.0
C436 C 0.38819 0.87147 1.02263 0.0
C437 C 0.43332 0.94029 1.06848 0.0
C438 C 0.50031 0.95638 0.10533 0.0
C439 C 0.54062 0.01948 0.15371 0.0
C440 C 0.60638 0.03276 0.19066 0.0
C441 C 0.63281 0.98668 0.1786 0.0
C442 C 0.59361 0.92539 0.13187 0.0
C443 C 0.52797 0.90994 0.09591 0.0
H444 H 0.52996 0.12759 0.31822 0.0
C445 C 0.56708 0.16369 0.27556 0.0
H446 H 0.6006 0.1781 0.155 0.0
H447 H 0.30423 0.9229 1.01492 0.0
H448 H 0.25879 1.00315 1.03768 0.0
H449 H 0.33188 0.11598 0.11318 0.0
H450 H 0.44939 0.14718 0.1708 0.0
C451 C 0.56492 0.14118 0.198 0.0
C452 C 0.51518 0.06793 0.16413 0.0
C453 C 0.44749 0.05103 0.12849 0.0
C454 C 0.40604 0.98673 0.08245 0.0
C455 C 0.33793 0.97086 1.04999 0.0
C456 C 0.31145 1.0168 1.06204 0.0
C457 C 0.35258 0.08024 0.10466 0.0
C458 C 0.41999 0.09759 0.13725 0.0
H459 H 0.14175 0.65601 0.92574 0.0
C460 C 0.13003 0.6049 0.90191 0.0
H461 H 0.06425 0.49782 0.89622 0.0
H462 H 0.92628 0.36111 0.20468 0.0
H463 H 0.97423 0.29055 0.15219 0.0
H464 H 0.05748 0.33185 1.04054 0.0
H465 H 0.09005 0.44144 0.97855 0.0
C466 C 0.07305 0.54465 0.92834 0.0
C467 C 0.03556 0.5309 1.00918 0.0
C468 C 1.02347 0.4696 1.05218 0.0
C469 C 0.98191 0.44934 0.12321 0.0
C470 C 0.96291 0.3828 0.1561 0.0
C471 C 0.98915 0.3408 0.12573 0.0
C472 C 0.03525 0.36363 1.06235 0.0
C473 C 0.0524 0.42685 1.02608 0.0
H474 H 0.83469 0.48789 0.22496 0.0
C475 C 0.859 0.46361 0.26105 0.0
H476 H 0.94763 0.45153 0.28314 0.0
H477 H 1.02983 0.64016 0.93808 0.0
H478 H 0.99269 0.7177 0.9995 0.0
H479 H 0.94691 0.69799 0.13736 0.0
H480 H 0.93436 0.59835 0.21322 0.0
C481 C 0.92467 0.47381 0.24215 0.0
C482 C 0.9593 0.49414 0.15978 0.0
C483 C 0.97354 0.55667 0.11897 0.0
C484 C 1.00736 0.57249 1.04184 0.0
C485 C 1.01107 0.62958 0.99893 0.0
C486 C 0.98884 0.67382 1.0331 0.0
C487 C 0.96248 0.66236 0.11054 0.0
C488 C 0.95483 0.60458 0.1532 0.0
loop_
_geom_bond_atom_site_label_1
_geom_bond_atom_site_label_2
_geom_bond_distance
_geom_bond_site_symmetry_2
_ccdc_geom_bond_type
Co0 N1 2.034 1_455 S
Co0 O15 2.262 . S
Co0 O19 1.958 1_455 S
Co0 O23 1.950 1_445 S
Co0 O24 2.057 . S
N1 Co0 2.034 1_655 S
N1 C2 1.366 . S
N1 C4 1.332 1_645 S
C2 N1 1.366 . S
C2 C5 1.377 . S
C2 H34 0.931 . S
N3 C4 1.346 1_655 S
N3 C5 1.337 1_565 S
C4 N1 1.332 1_465 S
C4 N3 1.346 1_455 S
C4 C38 1.361 . S
C5 C2 1.377 . S
C5 N3 1.337 1_545 S
C5 H41 0.930 . S
Co6 N7 2.034 1_655 S
Co6 O20 1.950 1_645 S
Co6 O21 2.262 1_545 S
Co6 O22 1.958 1_655 S
Co6 O26 2.057 1_545 S
N7 Co6 2.034 1_455 S
N7 C10 1.366 . S
N7 C11 1.332 1_445 S
N8 C9 1.337 1_565 S
N8 C11 1.346 1_455 S
C9 N8 1.337 1_545 S
C9 C10 1.377 . S
C9 H42 0.930 . S
C10 N7 1.366 . S
C10 C9 1.377 . S
C10 H14 0.931 . S
C11 N7 1.332 1_665 S
C11 N8 1.346 1_655 S
C11 C28 1.361 . S
Co12 O15 2.097 1_554 S
Co12 O16 2.065 1_545 S
Co12 O17 2.065 1_444 S
Co12 O18 2.042 1_454 S
Co12 O21 2.097 1_445 S
Co12 O25 2.042 . S
C13 O21 1.253 . S
C13 O26 1.263 . S
H14 C10 0.931 . S
O15 Co0 2.262 . S
O15 Co12 2.097 1_556 S
O15 C39 1.253 . S
O16 Co12 2.065 1_565 S
O16 C32 1.221 . S
O17 Co12 2.065 1_666 S
O17 C27 1.221 . S
O18 Co12 2.042 1_656 S
O18 C33 1.237 . S
O19 Co0 1.958 1_655 S
O19 C33 1.278 . S
O20 Co6 1.950 1_465 S
O20 C32 1.277 . S
O21 Co6 2.262 1_565 S
O21 Co12 2.097 1_665 S
O21 C13 1.253 . S
O22 Co6 1.958 1_455 S
O22 C40 1.278 . S
O23 Co0 1.950 1_665 S
O23 C27 1.277 . S
O24 Co0 2.057 . S
O24 C39 1.263 . S
O25 Co12 2.042 . S
O25 C40 1.237 . S
O26 Co6 2.057 1_565 S
O26 C13 1.263 . S
C27 O17 1.221 . S
C27 O23 1.277 . S
C28 C11 1.361 . S
C28 H29 0.960 . S
C28 H30 0.961 . S
C28 H31 0.961 . S
H29 C28 0.960 . S
H30 C28 0.961 . S
H31 C28 0.961 . S
C32 O16 1.221 . S
C32 O20 1.277 . S
C33 O18 1.237 . S
C33 O19 1.278 . S
H34 C2 0.931 . S
H35 C38 0.961 . S
H36 C38 0.961 . S
H37 C38 0.960 . S
C38 C4 1.361 . S
C38 H35 0.961 . S
C38 H36 0.961 . S
C38 H37 0.960 . S
C39 O15 1.253 . S
C39 O24 1.263 . S
C40 O22 1.278 . S
C40 O25 1.237 . S
H41 C5 0.930 . S
H42 C9 0.930 . S
Co43 N44 2.034 . S
Co43 O58 2.262 . S
Co43 O62 1.958 . S
Co43 O66 1.950 . S
Co43 O67 2.057 . S
N44 Co43 2.034 . S
N44 C45 1.366 . S
N44 C47 1.332 1_554 S
C45 N44 1.366 . S
C45 C48 1.377 1_554 S
C45 H77 0.931 . S
N46 C47 1.346 . S
N46 C48 1.337 . S
C47 N44 1.332 1_556 S
C47 N46 1.346 . S
C47 C81 1.361 1_556 S
C48 C45 1.377 1_556 S
C48 N46 1.337 . S
C48 H84 0.930 . S
Co49 N50 2.034 . S
Co49 O63 1.950 . S
Co49 O64 2.262 . S
Co49 O65 1.958 . S
Co49 O69 2.057 . S
N50 Co49 2.034 . S
N50 C53 1.366 . S
N50 C54 1.332 . S
N51 C52 1.337 . S
N51 C54 1.346 . S
C52 N51 1.337 . S
C52 C53 1.377 . S
C52 H85 0.930 . S
C53 N50 1.366 . S
C53 C52 1.377 . S
C53 H57 0.931 . S
C54 N50 1.332 . S
C54 N51 1.346 . S
C54 C71 1.361 . S
Co55 O58 2.097 . S
Co55 O59 2.065 . S
Co55 O60 2.065 . S
Co55 O61 2.042 . S
Co55 O64 2.097 . S
Co55 O68 2.042 . S
C56 O64 1.253 . S
C56 O69 1.263 . S
H57 C53 0.931 . S
O58 Co43 2.262 . S
O58 Co55 2.097 . S
O58 C82 1.253 . S
O59 Co55 2.065 . S
O59 C75 1.221 . S
O60 Co55 2.065 . S
O60 C70 1.221 . S
O61 Co55 2.042 . S
O61 C76 1.237 . S
O62 Co43 1.958 . S
O62 C76 1.278 . S
O63 Co49 1.950 . S
O63 C75 1.277 . S
O64 Co49 2.262 . S
O64 Co55 2.097 . S
O64 C56 1.253 . S
O65 Co49 1.958 . S
O65 C83 1.278 . S
O66 Co43 1.950 . S
O66 C70 1.277 . S
O67 Co43 2.057 . S
O67 C82 1.263 . S
O68 Co55 2.042 . S
O68 C83 1.237 . S
O69 Co49 2.057 . S
O69 C56 1.263 . S
C70 O60 1.221 . S
C70 O66 1.277 . S
C71 C54 1.361 . S
C71 H72 0.960 . S
C71 H73 0.961 . S
C71 H74 0.961 . S
H72 C71 0.960 . S
H73 C71 0.961 . S
H74 C71 0.961 . S
C75 O59 1.221 . S
C75 O63 1.277 . S
C76 O61 1.237 . S
C76 O62 1.278 . S
H77 C45 0.931 . S
H78 C81 0.961 1_556 S
H79 C81 0.961 1_556 S
H80 C81 0.960 . S
C81 C47 1.361 1_554 S
C81 H78 0.961 1_554 S
C81 H79 0.961 1_554 S
C81 H80 0.960 . S
C82 O58 1.253 . S
C82 O67 1.263 . S
C83 O65 1.278 . S
C83 O68 1.237 . S
H84 C48 0.930 . S
H85 C52 0.930 . S
Co86 N87 2.034 . S
Co86 O101 2.262 . S
Co86 O105 1.958 . S
Co86 O109 1.950 . S
Co86 O110 2.057 . S
N87 Co86 2.034 . S
N87 C88 1.366 . S
N87 C90 1.332 . S
C88 N87 1.366 . S
C88 C91 1.377 . S
C88 H120 0.931 . S
N89 C90 1.346 . S
N89 C91 1.337 . S
C90 N87 1.332 . S
C90 N89 1.346 . S
C90 C124 1.361 . S
C91 C88 1.377 . S
C91 N89 1.337 . S
C91 H127 0.930 . S
Co92 N93 2.034 . S
Co92 O106 1.950 . S
Co92 O107 2.262 . S
Co92 O108 1.958 . S
Co92 O112 2.057 . S
N93 Co92 2.034 . S
N93 C96 1.366 . S
N93 C97 1.332 1_556 S
N94 C95 1.337 . S
N94 C97 1.346 . S
C95 N94 1.337 . S
C95 C96 1.377 1_554 S
C95 H128 0.930 . S
C96 N93 1.366 . S
C96 C95 1.377 1_556 S
C96 H100 0.931 . S
C97 N93 1.332 1_554 S
C97 N94 1.346 . S
C97 C114 1.361 1_554 S
Co98 O101 2.097 . S
Co98 O102 2.065 . S
Co98 O103 2.065 . S
Co98 O104 2.042 . S
Co98 O107 2.097 . S
Co98 O111 2.042 . S
C99 O107 1.253 . S
C99 O112 1.263 . S
H100 C96 0.931 . S
O101 Co86 2.262 . S
O101 Co98 2.097 . S
O101 C125 1.253 . S
O102 Co98 2.065 . S
O102 C118 1.221 . S
O103 Co98 2.065 . S
O103 C113 1.221 . S
O104 Co98 2.042 . S
O104 C119 1.237 . S
O105 Co86 1.958 . S
O105 C119 1.278 . S
O106 Co92 1.950 . S
O106 C118 1.277 . S
O107 Co92 2.262 . S
O107 Co98 2.097 . S
O107 C99 1.253 . S
O108 Co92 1.958 . S
O108 C126 1.278 . S
O109 Co86 1.950 . S
O109 C113 1.277 . S
O110 Co86 2.057 . S
O110 C125 1.263 . S
O111 Co98 2.042 . S
O111 C126 1.237 . S
O112 Co92 2.057 . S
O112 C99 1.263 . S
C113 O103 1.221 . S
C113 O109 1.277 . S
C114 C97 1.361 1_556 S
C114 H115 0.960 . S
C114 H116 0.961 1_556 S
C114 H117 0.961 1_556 S
H115 C114 0.960 . S
H116 C114 0.961 1_554 S
H117 C114 0.961 1_554 S
C118 O102 1.221 . S
C118 O106 1.277 . S
C119 O104 1.237 . S
C119 O105 1.278 . S
H120 C88 0.931 . S
H121 C124 0.961 . S
H122 C124 0.961 . S
H123 C124 0.960 . S
C124 C90 1.361 . S
C124 H121 0.961 . S
C124 H122 0.961 . S
C124 H123 0.960 . S
C125 O101 1.253 . S
C125 O110 1.263 . S
C126 O108 1.278 . S
C126 O111 1.237 . S
H127 C91 0.930 . S
H128 C95 0.930 . S
H129 C130 0.951 . S
C130 H129 0.951 . S
C130 C136 1.265 1_545 S
H131 C136 0.950 . S
H132 C140 0.949 . S
H133 C141 0.950 . S
H134 C142 0.951 . S
H135 C143 0.951 . S
C136 C130 1.265 1_565 S
C136 H131 0.950 . S
C136 C137 1.478 . S
C137 C136 1.478 . S
C137 C138 1.397 1_455 S
C137 C154 1.394 1_565 S
C138 C137 1.397 1_655 S
C138 C139 1.438 . S
C138 C143 1.429 . S
C139 C138 1.438 . S
C139 C140 1.428 . S
C139 C152 1.394 . S
C140 H132 0.949 . S
C140 C139 1.428 . S
C140 C141 1.345 . S
C141 H133 0.950 . S
C141 C140 1.345 . S
C141 C142 1.424 . S
C142 H134 0.951 . S
C142 C141 1.424 . S
C142 C143 1.347 . S
C143 H135 0.951 . S
C143 C138 1.429 . S
C143 C142 1.347 . S
H144 C145 0.951 . S
C145 H144 0.951 . S
C145 C151 1.265 1_565 S
H146 C151 0.950 . S
H147 C155 0.949 . S
H148 C156 0.950 . S
H149 C157 0.951 . S
H150 C158 0.951 . S
C151 C145 1.265 1_545 S
C151 H146 0.950 . S
C151 C152 1.478 1_545 S
C152 C139 1.394 . S
C152 C151 1.478 1_565 S
C152 C153 1.397 1_665 S
C153 C152 1.397 1_445 S
C153 C154 1.438 . S
C153 C158 1.429 . S
C154 C137 1.394 1_545 S
C154 C153 1.438 . S
C154 C155 1.428 . S
C155 H147 0.949 . S
C155 C154 1.428 . S
C155 C156 1.345 . S
C156 H148 0.950 . S
C156 C155 1.345 . S
C156 C157 1.424 . S
C157 H149 0.951 . S
C157 C156 1.424 . S
C157 C158 1.347 . S
C158 H150 0.951 . S
C158 C153 1.429 . S
C158 C157 1.347 . S
H159 C160 0.951 . S
C160 H159 0.951 . S
C160 C166 1.265 . S
H161 C166 0.950 . S
H162 C170 0.949 . S
H163 C171 0.950 . S
H164 C172 0.951 . S
H165 C173 0.951 . S
C166 C160 1.265 . S
C166 H161 0.950 . S
C166 C167 1.478 . S
C167 C166 1.478 . S
C167 C168 1.397 . S
C167 C184 1.394 . S
C168 C167 1.397 . S
C168 C169 1.438 . S
C168 C173 1.429 . S
C169 C168 1.438 . S
C169 C170 1.428 . S
C169 C182 1.394 . S
C170 H162 0.949 . S
C170 C169 1.428 . S
C170 C171 1.345 . S
C171 H163 0.950 . S
C171 C170 1.345 . S
C171 C172 1.424 . S
C172 H164 0.951 . S
C172 C171 1.424 . S
C172 C173 1.347 . S
C173 H165 0.951 . S
C173 C168 1.429 . S
C173 C172 1.347 . S
H174 C175 0.951 . S
C175 H174 0.951 . S
C175 C181 1.265 1_554 S
H176 C181 0.950 . S
H177 C185 0.949 . S
H178 C186 0.950 . S
H179 C187 0.951 . S
H180 C188 0.951 . S
C181 C175 1.265 1_556 S
C181 H176 0.950 . S
C181 C182 1.478 . S
C182 C169 1.394 . S
C182 C181 1.478 . S
C182 C183 1.397 . S
C183 C182 1.397 . S
C183 C184 1.438 . S
C183 C188 1.429 . S
C184 C167 1.394 . S
C184 C183 1.438 . S
C184 C185 1.428 . S
C185 H177 0.949 . S
C185 C184 1.428 . S
C185 C186 1.345 . S
C186 H178 0.950 . S
C186 C185 1.345 . S
C186 C187 1.424 . S
C187 H179 0.951 . S
C187 C186 1.424 . S
C187 C188 1.347 . S
C188 H180 0.951 . S
C188 C183 1.429 . S
C188 C187 1.347 . S
H189 C190 0.951 . S
C190 H189 0.951 . S
C190 C196 1.265 1_556 S
H191 C196 0.950 . S
H192 C200 0.949 . S
H193 C201 0.950 . S
H194 C202 0.951 . S
H195 C203 0.951 . S
C196 C190 1.265 1_554 S
C196 H191 0.950 . S
C196 C197 1.478 . S
C197 C196 1.478 . S
C197 C198 1.397 . S
C197 C214 1.394 . S
C198 C197 1.397 . S
C198 C199 1.438 . S
C198 C203 1.429 . S
C199 C198 1.438 . S
C199 C200 1.428 . S
C199 C212 1.394 . S
C200 H192 0.949 . S
C200 C199 1.428 . S
C200 C201 1.345 . S
C201 H193 0.950 . S
C201 C200 1.345 . S
C201 C202 1.424 . S
C202 H194 0.951 . S
C202 C201 1.424 . S
C202 C203 1.347 . S
C203 H195 0.951 . S
C203 C198 1.429 . S
C203 C202 1.347 . S
H204 C205 0.951 . S
C205 H204 0.951 . S
C205 C211 1.265 . S
H206 C211 0.950 . S
H207 C215 0.949 . S
H208 C216 0.950 . S
H209 C217 0.951 . S
H210 C218 0.951 . S
C211 C205 1.265 . S
C211 H206 0.950 . S
C211 C212 1.478 . S
C212 C199 1.394 . S
C212 C211 1.478 . S
C212 C213 1.397 . S
C213 C212 1.397 . S
C213 C214 1.438 . S
C213 C218 1.429 . S
C214 C197 1.394 . S
C214 C213 1.438 . S
C214 C215 1.428 . S
C215 H207 0.949 . S
C215 C214 1.428 . S
C215 C216 1.345 . S
C216 H208 0.950 . S
C216 C215 1.345 . S
C216 C217 1.424 . S
C217 H209 0.951 . S
C217 C216 1.424 . S
C217 C218 1.347 . S
C218 H210 0.951 . S
C218 C213 1.429 . S
C218 C217 1.347 . S
H219 C220 0.951 . S
C220 H219 0.951 . S
C220 C226 1.265 . S
H221 C226 0.950 . S
H222 C230 0.949 . S
H223 C231 0.950 . S
H224 C232 0.951 1_545 S
H225 C233 0.951 . S
C226 C220 1.265 . S
C226 H221 0.950 . S
C226 C227 1.478 . S
C227 C226 1.478 . S
C227 C228 1.397 . S
C227 C244 1.394 . S
C228 C227 1.397 . S
C228 C229 1.438 . S
C228 C233 1.429 . S
C229 C228 1.438 . S
C229 C230 1.428 . S
C229 C242 1.394 . S
C230 H222 0.949 . S
C230 C229 1.428 . S
C230 C231 1.345 1_565 S
C231 H223 0.950 . S
C231 C230 1.345 1_545 S
C231 C232 1.424 1_545 S
C232 H224 0.951 1_565 S
C232 C231 1.424 1_565 S
C232 C233 1.347 . S
C233 H225 0.951 . S
C233 C228 1.429 . S
C233 C232 1.347 . S
H234 C235 0.951 . S
C235 H234 0.951 . S
C235 C241 1.265 . S
H236 C241 0.950 . S
H237 C245 0.949 . S
H238 C246 0.950 . S
H239 C247 0.951 . S
H240 C248 0.951 . S
C241 C235 1.265 . S
C241 H236 0.950 . S
C241 C242 1.478 . S
C242 C229 1.394 . S
C242 C241 1.478 . S
C242 C243 1.397 . S
C243 C242 1.397 . S
C243 C244 1.438 . S
C243 C248 1.429 . S
C244 C227 1.394 . S
C244 C243 1.438 . S
C244 C245 1.428 . S
C245 H237 0.949 . S
C245 C244 1.428 . S
C245 C246 1.345 . S
C246 H238 0.950 . S
C246 C245 1.345 . S
C246 C247 1.424 . S
C247 H239 0.951 . S
C247 C246 1.424 . S
C247 C248 1.347 . S
C248 H240 0.951 . S
C248 C243 1.429 . S
C248 C247 1.347 . S
H249 C250 0.951 . S
C250 H249 0.951 . S
C250 C256 1.265 . S
H251 C256 0.950 . S
H252 C260 0.949 . S
H253 C261 0.950 . S
H254 C262 0.951 . S
H255 C263 0.951 . S
C256 C250 1.265 . S
C256 H251 0.950 . S
C256 C257 1.478 . S
C257 C256 1.478 . S
C257 C258 1.397 . S
C257 C274 1.394 . S
C258 C257 1.397 . S
C258 C259 1.438 . S
C258 C263 1.429 . S
C259 C258 1.438 . S
C259 C260 1.428 . S
C259 C272 1.394 . S
C260 H252 0.949 . S
C260 C259 1.428 . S
C260 C261 1.345 . S
C261 H253 0.950 . S
C261 C260 1.345 . S
C261 C262 1.424 . S
C262 H254 0.951 . S
C262 C261 1.424 . S
C262 C263 1.347 . S
C263 H255 0.951 . S
C263 C258 1.429 . S
C263 C262 1.347 . S
H264 C265 0.951 . S
C265 H264 0.951 . S
C265 C271 1.265 . S
H266 C271 0.950 . S
H267 C275 0.949 . S
H268 C276 0.950 . S
H269 C277 0.951 . S
H270 C278 0.951 . S
C271 C265 1.265 . S
C271 H266 0.950 . S
C271 C272 1.478 . S
C272 C259 1.394 . S
C272 C271 1.478 . S
C272 C273 1.397 . S
C273 C272 1.397 . S
C273 C274 1.438 . S
C273 C278 1.429 . S
C274 C257 1.394 . S
C274 C273 1.438 . S
C274 C275 1.428 . S
C275 H267 0.949 . S
C275 C274 1.428 . S
C275 C276 1.345 . S
C276 H268 0.950 . S
C276 C275 1.345 . S
C276 C277 1.424 . S
C277 H269 0.951 . S
C277 C276 1.424 . S
C277 C278 1.347 . S
C278 H270 0.951 . S
C278 C273 1.429 . S
C278 C277 1.347 . S
H279 C280 0.951 . S
C280 H279 0.951 . S
C280 C286 1.265 . S
H281 C286 0.950 . S
H282 C290 0.949 . S
H283 C291 0.950 . S
H284 C292 0.951 1_545 S
H285 C293 0.951 . S
C286 C280 1.265 . S
C286 H281 0.950 . S
C286 C287 1.478 . S
C287 C286 1.478 . S
C287 C288 1.397 . S
C287 C304 1.394 . S
C288 C287 1.397 . S
C288 C289 1.438 . S
C288 C293 1.429 . S
C289 C288 1.438 . S
C289 C290 1.428 . S
C289 C302 1.394 . S
C290 H282 0.949 . S
C290 C289 1.428 . S
C290 C291 1.345 1_565 S
C291 H283 0.950 . S
C291 C290 1.345 1_545 S
C291 C292 1.424 1_545 S
C292 H284 0.951 1_565 S
C292 C291 1.424 1_565 S
C292 C293 1.347 . S
C293 H285 0.951 . S
C293 C288 1.429 . S
C293 C292 1.347 . S
H294 C295 0.951 . S
C295 H294 0.951 . S
C295 C301 1.265 . S
H296 C301 0.950 . S
H297 C305 0.949 . S
H298 C306 0.950 . S
H299 C307 0.951 . S
H300 C308 0.951 . S
C301 C295 1.265 . S
C301 H296 0.950 . S
C301 C302 1.478 . S
C302 C289 1.394 . S
C302 C301 1.478 . S
C302 C303 1.397 . S
C303 C302 1.397 . S
C303 C304 1.438 . S
C303 C308 1.429 . S
C304 C287 1.394 . S
C304 C303 1.438 . S
C304 C305 1.428 . S
C305 H297 0.949 . S
C305 C304 1.428 . S
C305 C306 1.345 . S
C306 H298 0.950 . S
C306 C305 1.345 . S
C306 C307 1.424 . S
C307 H299 0.951 . S
C307 C306 1.424 . S
C307 C308 1.347 . S
C308 H300 0.951 . S
C308 C303 1.429 . S
C308 C307 1.347 . S
H309 C310 0.951 . S
C310 H309 0.951 . S
C310 C316 1.265 . S
H311 C316 0.950 . S
H312 C320 0.949 . S
H313 C321 0.950 1_565 S
H314 C322 0.951 1_565 S
H315 C323 0.951 . S
C316 C310 1.265 . S
C316 H311 0.950 . S
C316 C317 1.478 . S
C317 C316 1.478 . S
C317 C318 1.397 . S
C317 C334 1.394 . S
C318 C317 1.397 . S
C318 C319 1.438 . S
C318 C323 1.429 . S
C319 C318 1.438 . S
C319 C320 1.428 . S
C319 C332 1.394 . S
C320 H312 0.949 . S
C320 C319 1.428 . S
C320 C321 1.345 . S
C321 H313 0.950 1_545 S
C321 C320 1.345 . S
C321 C322 1.424 . S
C322 H314 0.951 1_545 S
C322 C321 1.424 . S
C322 C323 1.347 . S
C323 H315 0.951 . S
C323 C318 1.429 . S
C323 C322 1.347 . S
H324 C325 0.951 . S
C325 H324 0.951 . S
C325 C331 1.265 . S
H326 C331 0.950 . S
H327 C335 0.949 . S
H328 C336 0.950 . S
H329 C337 0.951 . S
H330 C338 0.951 . S
C331 C325 1.265 . S
C331 H326 0.950 . S
C331 C332 1.478 . S
C332 C319 1.394 . S
C332 C331 1.478 . S
C332 C333 1.397 . S
C333 C332 1.397 . S
C333 C334 1.438 . S
C333 C338 1.429 . S
C334 C317 1.394 . S
C334 C333 1.438 . S
C334 C335 1.428 . S
C335 H327 0.949 . S
C335 C334 1.428 . S
C335 C336 1.345 . S
C336 H328 0.950 . S
C336 C335 1.345 . S
C336 C337 1.424 . S
C337 H329 0.951 . S
C337 C336 1.424 . S
C337 C338 1.347 . S
C338 H330 0.951 . S
C338 C333 1.429 . S
C338 C337 1.347 . S
H339 C340 0.951 . S
C340 H339 0.951 . S
C340 C346 1.265 . S
H341 C346 0.950 . S
H342 C350 0.949 . S
H343 C351 0.950 . S
H344 C352 0.951 . S
H345 C353 0.951 . S
C346 C340 1.265 . S
C346 H341 0.950 . S
C346 C347 1.478 . S
C347 C346 1.478 . S
C347 C348 1.397 . S
C347 C364 1.394 . S
C348 C347 1.397 . S
C348 C349 1.438 . S
C348 C353 1.429 . S
C349 C348 1.438 . S
C349 C350 1.428 . S
C349 C362 1.394 . S
C350 H342 0.949 . S
C350 C349 1.428 . S
C350 C351 1.345 . S
C351 H343 0.950 . S
C351 C350 1.345 . S
C351 C352 1.424 . S
C352 H344 0.951 . S
C352 C351 1.424 . S
C352 C353 1.347 . S
C353 H345 0.951 . S
C353 C348 1.429 . S
C353 C352 1.347 . S
H354 C355 0.951 . S
C355 H354 0.951 . S
C355 C361 1.265 . S
H356 C361 0.950 . S
H357 C365 0.949 . S
H358 C366 0.950 1_455 S
H359 C367 0.951 . S
H360 C368 0.951 1_455 S
C361 C355 1.265 . S
C361 H356 0.950 . S
C361 C362 1.478 . S
C362 C349 1.394 . S
C362 C361 1.478 . S
C362 C363 1.397 . S
C363 C362 1.397 . S
C363 C364 1.438 . S
C363 C368 1.429 . S
C364 C347 1.394 . S
C364 C363 1.438 . S
C364 C365 1.428 . S
C365 H357 0.949 . S
C365 C364 1.428 . S
C365 C366 1.345 . S
C366 H358 0.950 1_655 S
C366 C365 1.345 . S
C366 C367 1.424 1_655 S
C367 H359 0.951 . S
C367 C366 1.424 1_455 S
C367 C368 1.347 1_455 S
C368 H360 0.951 1_655 S
C368 C363 1.429 . S
C368 C367 1.347 1_655 S
H369 C370 0.951 . S
C370 H369 0.951 . S
C370 C376 1.265 . S
H371 C376 0.950 . S
H372 C380 0.949 . S
H373 C381 0.950 . S
H374 C382 0.951 1_565 S
H375 C383 0.951 . S
C376 C370 1.265 . S
C376 H371 0.950 . S
C376 C377 1.478 . S
C377 C376 1.478 . S
C377 C378 1.397 . S
C377 C394 1.394 . S
C378 C377 1.397 . S
C378 C379 1.438 . S
C378 C383 1.429 . S
C379 C378 1.438 . S
C379 C380 1.428 . S
C379 C392 1.394 . S
C380 H372 0.949 . S
C380 C379 1.428 . S
C380 C381 1.345 1_545 S
C381 H373 0.950 . S
C381 C380 1.345 1_565 S
C381 C382 1.424 1_565 S
C382 H374 0.951 1_545 S
C382 C381 1.424 1_545 S
C382 C383 1.347 . S
C383 H375 0.951 . S
C383 C378 1.429 . S
C383 C382 1.347 . S
H384 C385 0.951 . S
C385 H384 0.951 . S
C385 C391 1.265 . S
H386 C391 0.950 . S
H387 C395 0.949 . S
H388 C396 0.950 . S
H389 C397 0.951 . S
H390 C398 0.951 . S
C391 C385 1.265 . S
C391 H386 0.950 . S
C391 C392 1.478 . S
C392 C379 1.394 . S
C392 C391 1.478 . S
C392 C393 1.397 . S
C393 C392 1.397 . S
C393 C394 1.438 . S
C393 C398 1.429 . S
C394 C377 1.394 . S
C394 C393 1.438 . S
C394 C395 1.428 . S
C395 H387 0.949 . S
C395 C394 1.428 . S
C395 C396 1.345 . S
C396 H388 0.950 . S
C396 C395 1.345 . S
C396 C397 1.424 . S
C397 H389 0.951 . S
C397 C396 1.424 . S
C397 C398 1.347 . S
C398 H390 0.951 . S
C398 C393 1.429 . S
C398 C397 1.347 . S
H399 C400 0.951 . S
C400 H399 0.951 . S
C400 C406 1.265 . S
H401 C406 0.950 . S
H402 C410 0.949 . S
H403 C411 0.950 . S
H404 C412 0.951 . S
H405 C413 0.951 1_554 S
C406 C400 1.265 . S
C406 H401 0.950 . S
C406 C407 1.478 . S
C407 C406 1.478 . S
C407 C408 1.397 1_554 S
C407 C424 1.394 . S
C408 C407 1.397 1_556 S
C408 C409 1.438 . S
C408 C413 1.429 . S
C409 C408 1.438 . S
C409 C410 1.428 . S
C409 C422 1.394 . S
C410 H402 0.949 . S
C410 C409 1.428 . S
C410 C411 1.345 . S
C411 H403 0.950 . S
C411 C410 1.345 . S
C411 C412 1.424 . S
C412 H404 0.951 . S
C412 C411 1.424 . S
C412 C413 1.347 . S
C413 H405 0.951 1_556 S
C413 C408 1.429 . S
C413 C412 1.347 . S
H414 C415 0.951 . S
C415 H414 0.951 . S
C415 C421 1.265 . S
H416 C421 0.950 . S
H417 C425 0.949 . S
H418 C426 0.950 . S
H419 C427 0.951 . S
H420 C428 0.951 1_556 S
C421 C415 1.265 . S
C421 H416 0.950 . S
C421 C422 1.478 . S
C422 C409 1.394 . S
C422 C421 1.478 . S
C422 C423 1.397 1_556 S
C423 C422 1.397 1_554 S
C423 C424 1.438 . S
C423 C428 1.429 . S
C424 C407 1.394 . S
C424 C423 1.438 . S
C424 C425 1.428 . S
C425 H417 0.949 . S
C425 C424 1.428 . S
C425 C426 1.345 . S
C426 H418 0.950 . S
C426 C425 1.345 . S
C426 C427 1.424 . S
C427 H419 0.951 . S
C427 C426 1.424 . S
C427 C428 1.347 . S
C428 H420 0.951 1_554 S
C428 C423 1.429 . S
C428 C427 1.347 . S
H429 C430 0.951 . S
C430 H429 0.951 . S
C430 C436 1.265 . S
H431 C436 0.950 . S
H432 C440 0.949 1_554 S
H433 C441 0.950 . S
H434 C442 0.951 . S
H435 C443 0.951 . S
C436 C430 1.265 . S
C436 H431 0.950 . S
C436 C437 1.478 . S
C437 C436 1.478 . S
C437 C438 1.397 1_565 S
C437 C454 1.382 1_556 S
C438 C437 1.397 1_545 S
C438 C439 1.448 . S
C438 C443 1.429 . S
C439 C438 1.448 . S
C439 C440 1.429 . S
C439 C452 1.383 1_556 S
C440 H432 0.949 1_556 S
C440 C439 1.429 . S
C440 C441 1.345 . S
C441 H433 0.950 . S
C441 C440 1.345 . S
C441 C442 1.424 . S
C442 H434 0.951 . S
C442 C441 1.424 . S
C442 C443 1.347 . S
C443 H435 0.951 . S
C443 C438 1.429 . S
C443 C442 1.347 . S
H444 C445 0.951 . S
C445 H444 0.951 . S
C445 C451 1.265 . S
H446 C451 0.950 . S
H447 C455 0.949 1_556 S
H448 C456 0.950 . S
H449 C457 0.951 . S
H450 C458 0.951 . S
C451 C445 1.265 . S
C451 H446 0.950 . S
C451 C452 1.478 . S
C452 C439 1.383 1_554 S
C452 C451 1.478 . S
C452 C453 1.397 1_545 S
C453 C452 1.397 1_565 S
C453 C454 1.449 . S
C453 C458 1.429 . S
C454 C437 1.382 1_554 S
C454 C453 1.449 . S
C454 C455 1.429 . S
C455 H447 0.949 1_554 S
C455 C454 1.429 . S
C455 C456 1.345 . S
C456 H448 0.950 . S
C456 C455 1.345 . S
C456 C457 1.424 . S
C457 H449 0.951 . S
C457 C456 1.424 . S
C457 C458 1.347 . S
C458 H450 0.951 . S
C458 C453 1.429 . S
C458 C457 1.347 . S
H459 C460 0.951 . S
C460 H459 0.951 . S
C460 C466 1.265 . S
H461 C466 0.950 . S
H462 C470 0.949 . S
H463 C471 0.950 . S
H464 C472 0.951 . S
H465 C473 0.951 . S
C466 C460 1.265 . S
C466 H461 0.950 . S
C466 C467 1.478 . S
C467 C466 1.478 . S
C467 C468 1.397 1_455 S
C467 C484 1.394 . S
C468 C467 1.397 1_655 S
C468 C469 1.438 1_556 S
C468 C473 1.429 . S
C469 C468 1.438 1_554 S
C469 C470 1.428 . S
C469 C482 1.394 . S
C470 H462 0.949 . S
C470 C469 1.428 . S
C470 C471 1.345 1_554 S
C471 H463 0.950 . S
C471 C470 1.345 1_556 S
C471 C472 1.424 . S
C472 H464 0.951 . S
C472 C471 1.424 . S
C472 C473 1.347 . S
C473 H465 0.951 . S
C473 C468 1.429 . S
C473 C472 1.347 . S
H474 C475 0.951 . S
C475 H474 0.951 . S
C475 C481 1.265 . S
H476 C481 0.950 . S
H477 C485 0.949 . S
H478 C486 0.950 . S
H479 C487 0.951 . S
H480 C488 0.951 . S
C481 C475 1.265 . S
C481 H476 0.950 . S
C481 C482 1.478 . S
C482 C469 1.394 . S
C482 C481 1.478 . S
C482 C483 1.397 1_655 S
C483 C482 1.397 1_455 S
C483 C484 1.438 1_554 S
C483 C488 1.429 . S
C484 C467 1.394 . S
C484 C483 1.438 1_556 S
C484 C485 1.428 . S
C485 H477 0.949 . S
C485 C484 1.428 . S
C485 C486 1.345 1_556 S
C486 H478 0.950 . S
C486 C485 1.345 1_554 S
C486 C487 1.424 . S
C487 H479 0.951 . S
C487 C486 1.424 . S
C487 C488 1.347 . S
C488 H480 0.951 . S
C488 C483 1.429 . S
C488 C487 1.347 . S
C130 N3 2.001 1_445 S
C145 N8 2.032 1_655 S
C160 N51 1.984 . S
C175 N46 1.974 1_554 S
C190 N94 1.982 1_556 S
C205 N89 1.974 . S
C220 C119 2.222 . S
C235 C32 2.230 . S
C250 C113 2.238 . S
C265 C40 2.225 . S
C280 C125 2.231 . S
C295 C13 2.229 . S
C310 C75 2.275 . S
C325 C33 2.280 . S
C340 C83 2.245 . S
C355 C27 2.245 . S
C370 C56 2.120 . S
C385 C39 2.117 . S
C400 C76 2.309 . S
C415 C118 2.311 . S
C430 C126 2.251 . S
C445 C70 2.263 . S
C460 C99 2.120 . S
C475 C82 2.118 . S
