# Generated by pormake.
# Topology vbb, (4)-cn, num edge types: 1
# Building blocks:
#     Node 0, Type 0, BuildingBlock: KOZSID_clean_sbu_0, # of connection points: 4
#     Node 1, Type 0, BuildingBlock: KOZSID_clean_sbu_0, # of connection points: 4
#     Node 2, Type 0, BuildingBlock: KOZSID_clean_sbu_0, # of connection points: 4
#     Node 3, Type 0, BuildingBlock: KOZSID_clean_sbu_0, # of connection points: 4
#     Node 4, Type 0, BuildingBlock: KOZSID_clean_sbu_0, # of connection points: 4
#     Node 5, Type 0, BuildingBlock: KOZSID_clean_sbu_0, # of connection points: 4
#     Node 6, Type 0, BuildingBlock: KOZSID_clean_sbu_0, # of connection points: 4
#     Node 7, Type 0, BuildingBlock: KOZSID_clean_sbu_0, # of connection points: 4
#     Node 8, Type 0, BuildingBlock: KOZSID_clean_sbu_0, # of connection points: 4
#     Node 9, Type 0, BuildingBlock: KOZSID_clean_sbu_0, # of connection points: 4
#     Node 10, Type 0, BuildingBlock: KOZSID_clean_sbu_0, # of connection points: 4
#     Node 11, Type 0, BuildingBlock: KOZSID_clean_sbu_0, # of connection points: 4
#     Node 12, Type 0, BuildingBlock: KOZSID_clean_sbu_0, # of connection points: 4
#     Node 13, Type 0, BuildingBlock: KOZSID_clean_sbu_0, # of connection points: 4
#     Node 14, Type 0, BuildingBlock: KOZSID_clean_sbu_0, # of connection points: 4
#     Node 15, Type 0, BuildingBlock: KOZSID_clean_sbu_0, # of connection points: 4
#     Node 16, Type 0, BuildingBlock: KOZSID_clean_sbu_0, # of connection points: 4
#     Node 17, Type 0, BuildingBlock: KOZSID_clean_sbu_0, # of connection points: 4
#     Node 18, Type 0, BuildingBlock: KOZSID_clean_sbu_0, # of connection points: 4
#     Node 19, Type 0, BuildingBlock: KOZSID_clean_sbu_0, # of connection points: 4
#     Node 20, Type 0, BuildingBlock: KOZSID_clean_sbu_0, # of connection points: 4
#     Node 21, Type 0, BuildingBlock: KOZSID_clean_sbu_0, # of connection points: 4
#     Node 22, Type 0, BuildingBlock: KOZSID_clean_sbu_0, # of connection points: 4
#     Node 23, Type 0, BuildingBlock: KOZSID_clean_sbu_0, # of connection points: 4
#     Node 24, Type 0, BuildingBlock: KOZSID_clean_sbu_0, # of connection points: 4
#     Node 25, Type 0, BuildingBlock: KOZSID_clean_sbu_0, # of connection points: 4
#     Node 26, Type 0, BuildingBlock: KOZSID_clean_sbu_0, # of connection points: 4
#     Node 27, Type 0, BuildingBlock: KOZSID_clean_sbu_0, # of connection points: 4
#     Node 28, Type 0, BuildingBlock: KOZSID_clean_sbu_0, # of connection points: 4
#     Node 29, Type 0, BuildingBlock: KOZSID_clean_sbu_0, # of connection points: 4
#     Node 30, Type 0, BuildingBlock: KOZSID_clean_sbu_0, # of connection points: 4
#     Node 31, Type 0, BuildingBlock: KOZSID_clean_sbu_0, # of connection points: 4
#     Edge 32, Type (0, 0), BuildingBlock: EZIPEK_clean_linker_0, # of connection points: 2
#     Edge 33, Type (0, 0), BuildingBlock: EZIPEK_clean_linker_0, # of connection points: 2
#     Edge 34, Type (0, 0), BuildingBlock: EZIPEK_clean_linker_0, # of connection points: 2
#     Edge 35, Type (0, 0), BuildingBlock: EZIPEK_clean_linker_0, # of connection points: 2
#     Edge 36, Type (0, 0), BuildingBlock: EZIPEK_clean_linker_0, # of connection points: 2
#     Edge 37, Type (0, 0), BuildingBlock: EZIPEK_clean_linker_0, # of connection points: 2
#     Edge 38, Type (0, 0), BuildingBlock: EZIPEK_clean_linker_0, # of connection points: 2
#     Edge 39, Type (0, 0), BuildingBlock: EZIPEK_clean_linker_0, # of connection points: 2
#     Edge 40, Type (0, 0), BuildingBlock: EZIPEK_clean_linker_0, # of connection points: 2
#     Edge 41, Type (0, 0), BuildingBlock: EZIPEK_clean_linker_0, # of connection points: 2
#     Edge 42, Type (0, 0), BuildingBlock: EZIPEK_clean_linker_0, # of connection points: 2
#     Edge 43, Type (0, 0), BuildingBlock: EZIPEK_clean_linker_0, # of connection points: 2
#     Edge 44, Type (0, 0), BuildingBlock: EZIPEK_clean_linker_0, # of connection points: 2
#     Edge 45, Type (0, 0), BuildingBlock: EZIPEK_clean_linker_0, # of connection points: 2
#     Edge 46, Type (0, 0), BuildingBlock: EZIPEK_clean_linker_0, # of connection points: 2
#     Edge 47, Type (0, 0), BuildingBlock: EZIPEK_clean_linker_0, # of connection points: 2
#     Edge 48, Type (0, 0), BuildingBlock: EZIPEK_clean_linker_0, # of connection points: 2
#     Edge 49, Type (0, 0), BuildingBlock: EZIPEK_clean_linker_0, # of connection points: 2
#     Edge 50, Type (0, 0), BuildingBlock: EZIPEK_clean_linker_0, # of connection points: 2
#     Edge 51, Type (0, 0), BuildingBlock: EZIPEK_clean_linker_0, # of connection points: 2
#     Edge 52, Type (0, 0), BuildingBlock: EZIPEK_clean_linker_0, # of connection points: 2
#     Edge 53, Type (0, 0), BuildingBlock: EZIPEK_clean_linker_0, # of connection points: 2
#     Edge 54, Type (0, 0), BuildingBlock: EZIPEK_clean_linker_0, # of connection points: 2
#     Edge 55, Type (0, 0), BuildingBlock: EZIPEK_clean_linker_0, # of connection points: 2
#     Edge 56, Type (0, 0), BuildingBlock: EZIPEK_clean_linker_0, # of connection points: 2
#     Edge 57, Type (0, 0), BuildingBlock: EZIPEK_clean_linker_0, # of connection points: 2
#     Edge 58, Type (0, 0), BuildingBlock: EZIPEK_clean_linker_0, # of connection points: 2
#     Edge 59, Type (0, 0), BuildingBlock: EZIPEK_clean_linker_0, # of connection points: 2
#     Edge 60, Type (0, 0), BuildingBlock: EZIPEK_clean_linker_0, # of connection points: 2
#     Edge 61, Type (0, 0), BuildingBlock: EZIPEK_clean_linker_0, # of connection points: 2
#     Edge 62, Type (0, 0), BuildingBlock: EZIPEK_clean_linker_0, # of connection points: 2
#     Edge 63, Type (0, 0), BuildingBlock: EZIPEK_clean_linker_0, # of connection points: 2
#     Edge 64, Type (0, 0), BuildingBlock: EZIPEK_clean_linker_0, # of connection points: 2
#     Edge 65, Type (0, 0), BuildingBlock: EZIPEK_clean_linker_0, # of connection points: 2
#     Edge 66, Type (0, 0), BuildingBlock: EZIPEK_clean_linker_0, # of connection points: 2
#     Edge 67, Type (0, 0), BuildingBlock: EZIPEK_clean_linker_0, # of connection points: 2
#     Edge 68, Type (0, 0), BuildingBlock: EZIPEK_clean_linker_0, # of connection points: 2
#     Edge 69, Type (0, 0), BuildingBlock: EZIPEK_clean_linker_0, # of connection points: 2
#     Edge 70, Type (0, 0), BuildingBlock: EZIPEK_clean_linker_0, # of connection points: 2
#     Edge 71, Type (0, 0), BuildingBlock: EZIPEK_clean_linker_0, # of connection points: 2
#     Edge 72, Type (0, 0), BuildingBlock: EZIPEK_clean_linker_0, # of connection points: 2
#     Edge 73, Type (0, 0), BuildingBlock: EZIPEK_clean_linker_0, # of connection points: 2
#     Edge 74, Type (0, 0), BuildingBlock: EZIPEK_clean_linker_0, # of connection points: 2
#     Edge 75, Type (0, 0), BuildingBlock: EZIPEK_clean_linker_0, # of connection points: 2
#     Edge 76, Type (0, 0), BuildingBlock: EZIPEK_clean_linker_0, # of connection points: 2
#     Edge 77, Type (0, 0), BuildingBlock: EZIPEK_clean_linker_0, # of connection points: 2
#     Edge 78, Type (0, 0), BuildingBlock: EZIPEK_clean_linker_0, # of connection points: 2
#     Edge 79, Type (0, 0), BuildingBlock: EZIPEK_clean_linker_0, # of connection points: 2
#     Edge 80, Type (0, 0), BuildingBlock: EZIPEK_clean_linker_0, # of connection points: 2
#     Edge 81, Type (0, 0), BuildingBlock: EZIPEK_clean_linker_0, # of connection points: 2
#     Edge 82, Type (0, 0), BuildingBlock: EZIPEK_clean_linker_0, # of connection points: 2
#     Edge 83, Type (0, 0), BuildingBlock: EZIPEK_clean_linker_0, # of connection points: 2
#     Edge 84, Type (0, 0), BuildingBlock: EZIPEK_clean_linker_0, # of connection points: 2
#     Edge 85, Type (0, 0), BuildingBlock: EZIPEK_clean_linker_0, # of connection points: 2
#     Edge 86, Type (0, 0), BuildingBlock: EZIPEK_clean_linker_0, # of connection points: 2
#     Edge 87, Type (0, 0), BuildingBlock: EZIPEK_clean_linker_0, # of connection points: 2
#     Edge 88, Type (0, 0), BuildingBlock: EZIPEK_clean_linker_0, # of connection points: 2
#     Edge 89, Type (0, 0), BuildingBlock: EZIPEK_clean_linker_0, # of connection points: 2
#     Edge 90, Type (0, 0), BuildingBlock: EZIPEK_clean_linker_0, # of connection points: 2
#     Edge 91, Type (0, 0), BuildingBlock: EZIPEK_clean_linker_0, # of connection points: 2
#     Edge 92, Type (0, 0), BuildingBlock: EZIPEK_clean_linker_0, # of connection points: 2
#     Edge 93, Type (0, 0), BuildingBlock: EZIPEK_clean_linker_0, # of connection points: 2
#     Edge 94, Type (0, 0), BuildingBlock: EZIPEK_clean_linker_0, # of connection points: 2
#     Edge 95, Type (0, 0), BuildingBlock: EZIPEK_clean_linker_0, # of connection points: 2
# Relax obj value: 0.043
# Max RMSD: 0.157
# Mean RMSD: 0.155
data_MOF--net-vbb--node1-KOZSID_clean_sbu_0--edge1-EZIPEK_clean_linker_0
_symmetry_space_group_name_H-M    P1
_symmetry_Int_Tables_number       1
_symmetry_cell_setting            triclinic
loop_
_symmetry_equiv_pos_as_xyz
'x, y, z'
_cell_length_a     52.51223
_cell_length_b     32.081392
_cell_length_c     94.4704
_cell_angle_alpha  89.728655
_cell_angle_beta   90.012558
_cell_angle_gamma 90.050461
loop_
_atom_site_label
_atom_site_type_symbol
_atom_site_fract_x
_atom_site_fract_y
_atom_site_fract_z
_atom_type_partial_charge
C0 C 0.50121 0.10748 0.08712 0.0
C1 C 0.49246 0.14815 0.08855 0.0
C2 C 0.48269 0.15974 0.07579 0.0
C3 C 0.48637 0.12612 0.06716 0.0
N4 N 0.49764 0.09349 0.07374 0.0
Co5 Co 0.50815 0.04005 0.06467 0.0
N6 N 0.50359 0.064 0.04542 0.0
C7 C 0.49695 0.10341 0.04223 0.0
C8 C 0.5065 0.11678 0.02947 0.0
C9 C 0.51917 0.08315 0.02411 0.0
C10 C 0.51525 0.05051 0.03357 0.0
N11 N 0.51698 0.9862 0.05519 0.0
C12 C 0.51474 0.97584 0.04117 0.0
C13 C 0.51185 0.933 0.03975 0.0
C14 C 0.51388 0.91597 0.05303 0.0
C15 C 0.51678 0.94914 0.06198 0.0
N16 N 0.51446 0.01792 0.08408 0.0
C17 C 0.51743 0.97751 0.08746 0.0
C18 C 0.52168 0.97127 0.10167 0.0
C19 C 0.52133 0.01035 0.10759 0.0
C20 C 0.51682 0.03832 0.09665 0.0
N21 N 0.47204 0.01826 0.06541 0.0
C22 C 0.43143 0.9587 0.06732 0.0
C23 C 0.44066 0.97959 0.07935 0.0
C24 C 0.46048 0.00954 0.07815 0.0
C25 C 0.44128 0.97182 0.05421 0.0
C26 C 0.46102 1.00178 0.05349 0.0
N27 N 0.5446 0.05865 0.06414 0.0
C28 C 0.58958 0.0416 0.06662 0.0
C29 C 0.59691 0.08274 0.06361 0.0
C30 C 0.57737 0.11161 0.06094 0.0
C31 C 0.55155 0.09912 0.06131 0.0
C32 C 0.56359 0.0303 0.06682 0.0
H33 H 0.53734 0.12253 0.05934 0.0
H34 H 0.55895 0.99836 0.06925 0.0
H35 H 0.46743 0.02357 0.08775 0.0
H36 H 0.46851 0.00907 0.04323 0.0
C37 C 0.4869 0.1294 0.0525 0.0
C38 C 0.51255 0.08341 0.09877 0.0
C39 C 0.51383 0.00661 0.02926 0.0
C40 C 0.5172 0.94714 0.07684 0.0
H41 H 0.49383 0.16825 0.09767 0.0
H42 H 0.47604 0.19048 0.0728 0.0
H43 H 0.50516 0.14762 0.02484 0.0
H44 H 0.52806 0.08165 0.01379 0.0
H45 H 0.50765 0.91567 0.03026 0.0
H46 H 0.51196 0.88341 0.05588 0.0
H47 H 0.52481 0.94191 0.10708 0.0
H48 H 0.52358 0.01743 0.11871 0.0
H49 H 0.43329 0.9717 0.08972 0.0
H50 H 0.43445 0.95771 0.04453 0.0
H51 H 0.6039 0.01818 0.06882 0.0
H52 H 0.58203 0.14383 0.05864 0.0
C53 C 0.79273 0.17393 0.09304 0.0
C54 C 0.80993 0.14374 0.09754 0.0
C55 C 0.82343 0.13199 0.08591 0.0
C56 C 0.81416 0.15627 0.07512 0.0
N57 N 0.79613 0.18363 0.0792 0.0
Co58 Co 0.77998 0.22812 0.06731 0.0
N59 N 0.79602 0.20546 0.04971 0.0
C60 C 0.81197 0.17251 0.04884 0.0
C61 C 0.81968 0.1636 0.03535 0.0
C62 C 0.80787 0.19247 0.02704 0.0
C63 C 0.7936 0.21746 0.03602 0.0
N64 N 0.76455 0.27331 0.05537 0.0
C65 C 0.76527 0.27935 0.04111 0.0
C66 C 0.75217 0.31509 0.0372 0.0
C67 C 0.74288 0.33219 0.04942 0.0
C68 C 0.75083 0.30606 0.06009 0.0
N69 N 0.76315 0.24848 0.08508 0.0
C70 C 0.748 0.28242 0.08615 0.0
C71 C 0.7342 0.2831 0.09849 0.0
C72 C 0.74054 0.24723 0.10557 0.0
C73 C 0.75844 0.22685 0.09734 0.0
N74 N 0.8108 0.26615 0.07035 0.0
C75 C 0.85261 0.32505 0.07078 0.0
C76 C 0.82743 0.33688 0.0736 0.0
C77 C 0.80749 0.30738 0.07386 0.0
C78 C 0.85639 0.28218 0.06831 0.0
C79 C 0.83552 0.25389 0.06785 0.0
N80 N 0.74877 0.19244 0.06418 0.0
C81 C 0.70239 0.18865 0.06361 0.0
C82 C 0.70252 0.14544 0.06273 0.0
C83 C 0.72655 0.1258 0.06202 0.0
C84 C 0.74938 0.14984 0.06271 0.0
C85 C 0.72519 0.21107 0.06421 0.0
H86 H 0.76737 0.13371 0.06245 0.0
H87 H 0.72298 0.24379 0.06497 0.0
H88 H 0.78945 0.31922 0.07683 0.0
H89 H 0.83993 0.22235 0.06529 0.0
C90 C 0.82007 0.15135 0.0609 0.0
C91 C 0.77096 0.18726 0.10152 0.0
C92 C 0.77809 0.25206 0.03095 0.0
C93 C 0.74341 0.3084 0.07438 0.0
H94 H 0.81148 0.12981 0.10797 0.0
H95 H 0.83745 0.10736 0.08527 0.0
H96 H 0.8325 0.13918 0.03197 0.0
H97 H 0.80964 0.1949 0.01565 0.0
H98 H 0.74948 0.32726 0.0266 0.0
H99 H 0.73112 0.35972 0.05036 0.0
H100 H 0.71982 0.30549 0.10153 0.0
H101 H 0.73244 0.23687 0.1155 0.0
H102 H 0.823 0.3692 0.07577 0.0
H103 H 0.87541 0.27053 0.06636 0.0
H104 H 0.68448 0.20537 0.06402 0.0
H105 H 0.7277 0.09221 0.06123 0.0
C106 C 0.49931 0.15685 0.16324 0.0
C107 C 0.48794 0.1179 0.16182 0.0
C108 C 0.47817 0.10753 0.17469 0.0
C109 C 0.48431 0.14014 0.18332 0.0
N110 N 0.49717 0.17112 0.17668 0.0
Co111 Co 0.51042 0.22316 0.18573 0.0
N112 N 0.50235 0.20176 0.20497 0.0
C113 C 0.49515 0.16262 0.20822 0.0
C114 C 0.50282 0.14996 0.22143 0.0
C115 C 0.51506 0.18371 0.22699 0.0
C116 C 0.51268 0.21571 0.21713 0.0
N117 N 0.52128 0.27614 0.19512 0.0
C118 C 0.51626 0.28902 0.20863 0.0
C119 C 0.51758 0.33215 0.20947 0.0
C120 C 0.52553 0.34632 0.19645 0.0
C121 C 0.52753 0.31145 0.18816 0.0
N122 N 0.52129 0.24207 0.16644 0.0
C123 C 0.53271 0.27878 0.16343 0.0
C124 C 0.54015 0.28204 0.14953 0.0
C125 C 0.53362 0.24473 0.14346 0.0
C126 C 0.52238 0.22073 0.15399 0.0
N127 N 0.47582 0.25084 0.18361 0.0
C128 C 0.43239 0.30603 0.18435 0.0
C129 C 0.45337 0.31313 0.17555 0.0
C130 C 0.47344 0.2846 0.1747 0.0
C131 C 0.43324 0.26857 0.19238 0.0
C132 C 0.45527 0.24236 0.19221 0.0
N133 N 0.54538 0.19848 0.18773 0.0
C134 C 0.59132 0.20867 0.18761 0.0
C135 C 0.59576 0.16587 0.18853 0.0
C136 C 0.57445 0.13952 0.18928 0.0
C137 C 0.54958 0.1563 0.18886 0.0
C138 C 0.56634 0.22416 0.18729 0.0
H139 H 0.53398 0.13471 0.18931 0.0
H140 H 0.56443 0.25725 0.18646 0.0
H141 H 0.48716 0.29188 0.16683 0.0
H142 H 0.45557 0.21566 0.19918 0.0
C143 C 0.48481 0.13685 0.19798 0.0
C144 C 0.51289 0.17794 0.1517 0.0
C145 C 0.51234 0.2601 0.22082 0.0
C146 C 0.53387 0.31047 0.17369 0.0
H147 H 0.48777 0.09778 0.15267 0.0
H148 H 0.46975 0.07797 0.17769 0.0
H149 H 0.50045 0.11957 0.22627 0.0
H150 H 0.52301 0.18561 0.23753 0.0
H151 H 0.5135 0.35151 0.21851 0.0
H152 H 0.52874 0.37838 0.19332 0.0
H153 H 0.54905 0.30849 0.14438 0.0
H154 H 0.53674 0.2361 0.13254 0.0
H155 H 0.45435 0.3409 0.16901 0.0
H156 H 0.41734 0.26001 0.19908 0.0
H157 H 0.60718 0.23024 0.18704 0.0
H158 H 0.57699 0.10608 0.19004 0.0
C159 C 0.79317 0.08772 0.15763 0.0
C160 C 0.80987 0.11886 0.15325 0.0
C161 C 0.82244 0.13209 0.16507 0.0
C162 C 0.81325 0.10764 0.17587 0.0
N163 N 0.79598 0.0793 0.17157 0.0
Co164 Co 0.78205 0.03278 0.18324 0.0
N165 N 0.79508 0.05805 0.20094 0.0
C166 C 0.80534 0.09643 0.20202 0.0
C167 C 0.80091 0.11469 0.21487 0.0
C168 C 0.78757 0.08558 0.22246 0.0
C169 C 0.78617 0.05013 0.21409 0.0
N170 N 0.77055 0.98455 0.19502 0.0
C171 C 0.77683 0.97534 0.2087 0.0
C172 C 0.77419 0.93284 0.21122 0.0
C173 C 0.76387 0.91583 0.19919 0.0
C174 C 0.76195 0.94824 0.18972 0.0
N175 N 0.76631 0.01085 0.16547 0.0
C176 C 0.75251 0.97544 0.16455 0.0
C177 C 0.73822 0.97343 0.1524 0.0
C178 C 0.74286 0.01015 0.14531 0.0
C179 C 0.76036 0.03222 0.15334 0.0
N180 N 0.81472 1.0003 0.1802 0.0
C181 C 0.85704 0.94314 0.18029 0.0
C182 C 0.83396 0.93404 0.17353 0.0
C183 C 0.81409 0.96323 0.17297 0.0
C184 C 0.85877 0.98319 0.1864 0.0
C185 C 0.83741 0.01051 0.18661 0.0
N186 N 0.74904 0.06262 0.18639 0.0
C187 C 0.70295 0.05858 0.18839 0.0
C188 C 0.70066 0.10184 0.18821 0.0
C189 C 0.72321 0.12543 0.18763 0.0
C190 C 0.74714 0.10527 0.18676 0.0
C191 C 0.72697 0.03983 0.1876 0.0
H192 H 0.7639 0.12447 0.18597 0.0
H193 H 0.72716 0.00654 0.18771 0.0
H194 H 0.79809 0.95419 0.16681 0.0
H195 H 0.83946 0.03951 0.19215 0.0
C196 C 0.8158 0.11641 0.19023 0.0
C197 C 0.77196 0.07255 0.149 0.0
C198 C 0.78296 0.0073 0.21959 0.0
C199 C 0.75244 0.9463 0.17578 0.0
H200 H 0.81145 0.13265 0.14281 0.0
H201 H 0.83527 0.15839 0.16586 0.0
H202 H 0.80597 0.14588 0.21816 0.0
H203 H 0.78102 0.08922 0.23322 0.0
H204 H 0.77871 0.91585 0.2208 0.0
H205 H 0.75876 0.88354 0.1975 0.0
H206 H 0.72523 0.94891 0.14929 0.0
H207 H 0.7343 0.01955 0.13539 0.0
H208 H 0.83115 0.90415 0.16848 0.0
H209 H 0.8763 0.99299 0.19143 0.0
H210 H 0.6861 0.03911 0.18897 0.0
H211 H 0.72234 0.15914 0.18754 0.0
C212 C 0.52214 0.9726 0.9018 0.0
C213 C 0.5143 0.99771 0.89064 0.0
C214 C 0.50948 0.03655 0.89622 0.0
C215 C 0.51482 0.0333 0.91045 0.0
N216 N 0.5226 0.99477 0.91404 0.0
Co217 Co 0.53253 0.97699 0.93334 0.0
N218 N 0.51452 0.02368 0.94266 0.0
C219 C 0.5041 0.05652 0.93593 0.0
C220 C 0.48618 0.07596 0.94421 0.0
C221 C 0.48589 0.05441 0.95688 0.0
C222 C 0.5046 0.02399 0.95602 0.0
N223 N 0.54441 0.95956 0.95227 0.0
C224 C 0.53926 0.97713 0.96485 0.0
C225 C 0.55861 0.96914 0.97458 0.0
C226 C 0.57563 0.94346 0.96802 0.0
C227 C 0.56626 0.93867 0.95459 0.0
N228 N 0.54952 0.92864 0.92449 0.0
C229 C 0.56777 0.90489 0.93045 0.0
C230 C 0.57341 0.87012 0.9227 0.0
C231 C 0.55795 0.87237 0.91106 0.0
C232 C 0.54419 0.9093 0.91214 0.0
N233 N 0.5641 0.01188 0.93161 0.0
C234 C 0.60643 0.06715 0.92875 0.0
C235 C 0.60066 0.03749 0.91827 0.0
C236 C 0.57949 0.01037 0.91987 0.0
C237 C 0.59067 0.06797 0.94069 0.0
C238 C 0.56989 0.04042 0.94193 0.0
N239 N 0.49985 0.94495 0.93495 0.0
C240 C 0.4727 0.88832 0.94331 0.0
C241 C 0.45073 0.9077 0.93762 0.0
C242 C 0.45419 0.94549 0.9306 0.0
C243 C 0.47836 0.96318 0.92939 0.0
C244 C 0.49711 0.90752 0.94188 0.0
H245 H 0.4791 0.99252 0.92403 0.0
H246 H 0.51361 0.89241 0.94642 0.0
H247 H 0.57531 0.98867 0.91149 0.0
H248 H 0.55826 0.04304 0.95126 0.0
C249 C 0.50645 0.06082 0.92109 0.0
C250 C 0.52936 0.92812 0.90049 0.0
C251 C 0.51543 0.99898 0.96806 0.0
C252 C 0.57636 0.91289 0.94416 0.0
H253 H 0.51175 0.98861 0.87972 0.0
H254 H 0.5014 0.06305 0.8907 0.0
H255 H 0.47339 0.10077 0.94107 0.0
H256 H 0.47324 0.06061 0.96563 0.0
H257 H 0.56008 0.9802 0.98534 0.0
H258 H 0.5927 0.9299 0.97252 0.0
H259 H 0.58647 0.84527 0.92543 0.0
H260 H 0.5574 0.84966 0.90265 0.0
H261 H 0.61224 0.03564 0.90882 0.0
H262 H 0.59427 0.09017 0.94906 0.0
H263 H 0.47104 0.85876 0.9488 0.0
H264 H 0.43804 0.96167 0.92602 0.0
C265 C 0.28368 0.78039 0.9026 0.0
C266 C 0.29833 0.75426 0.89426 0.0
C267 C 0.29903 0.71612 0.90103 0.0
C268 C 0.28536 0.72096 0.91335 0.0
N269 N 0.2763 0.75995 0.91466 0.0
Co270 Co 0.2616 0.78404 0.93218 0.0
N271 N 0.27467 0.73865 0.94446 0.0
C272 C 0.28236 0.70108 0.93986 0.0
C273 C 0.28988 0.67542 0.95079 0.0
C274 C 0.2863 0.69819 0.96295 0.0
C275 C 0.27678 0.73664 0.95879 0.0
N276 N 0.2471 0.81031 0.94937 0.0
C277 C 0.25193 0.80308 0.96323 0.0
C278 C 0.23675 0.82798 0.97179 0.0
C279 C 0.22145 0.85071 0.96295 0.0
C280 C 0.2282 0.8387 0.94957 0.0
N281 N 0.2475 0.82876 0.92 0.0
C282 C 0.2271 0.85239 0.92307 0.0
C283 C 0.21942 0.87713 0.91199 0.0
C284 C 0.23608 0.86857 0.90125 0.0
C285 C 0.25324 0.8394 0.90652 0.0
N286 N 0.22963 0.75044 0.9297 0.0
C287 C 0.18995 0.68994 0.92701 0.0
C288 C 0.1986 0.70316 0.94028 0.0
C289 C 0.21811 0.7331 0.94138 0.0
C290 C 0.20097 0.7092 0.91504 0.0
C291 C 0.2206 0.73935 0.9166 0.0
N292 N 0.29457 0.81434 0.93484 0.0
C293 C 0.32123 0.87527 0.93889 0.0
C294 C 0.34369 0.85127 0.93753 0.0
C295 C 0.34074 0.80879 0.93512 0.0
C296 C 0.31652 0.79127 0.93385 0.0
C297 C 0.29682 0.85614 0.93757 0.0
H298 H 0.31594 0.7585 0.93186 0.0
H299 H 0.27989 0.87508 0.93848 0.0
H300 H 0.2245 0.74084 0.95182 0.0
H301 H 0.229 0.75265 0.90717 0.0
C302 C 0.28652 0.69437 0.92528 0.0
C303 C 0.27502 0.82319 0.89856 0.0
C304 C 0.26778 0.76906 0.96867 0.0
C305 C 0.21867 0.8557 0.93701 0.0
H306 H 0.30762 0.76185 0.88436 0.0
H307 H 0.30985 0.68906 0.89784 0.0
H308 H 0.29783 0.6444 0.95001 0.0
H309 H 0.28991 0.68759 0.97366 0.0
H310 H 0.23603 0.8285 0.98323 0.0
H311 H 0.20717 0.87333 0.96594 0.0
H312 H 0.20423 0.89991 0.91189 0.0
H313 H 0.23584 0.88263 0.89082 0.0
H314 H 0.19072 0.68958 0.94984 0.0
H315 H 0.19486 0.70033 0.90453 0.0
H316 H 0.32253 0.90848 0.94073 0.0
H317 H 0.35731 0.78895 0.934 0.0
C318 C 0.52286 0.78329 0.84815 0.0
C319 C 0.51491 0.7597 0.85966 0.0
C320 C 0.50965 0.72034 0.85463 0.0
C321 C 0.51485 0.72178 0.84036 0.0
N322 N 0.52298 0.75967 0.83624 0.0
Co323 Co 0.53267 0.77508 0.81669 0.0
N324 N 0.51371 0.72818 0.80807 0.0
C325 C 0.50304 0.69639 0.81526 0.0
C326 C 0.48429 0.67728 0.80745 0.0
C327 C 0.48369 0.69793 0.79461 0.0
C328 C 0.50303 0.72743 0.79488 0.0
N329 N 0.54425 0.79007 0.7975 0.0
C330 C 0.53813 0.77183 0.78516 0.0
C331 C 0.55711 0.77826 0.7751 0.0
C332 C 0.57495 0.80356 0.7812 0.0
C333 C 0.56636 0.80975 0.79473 0.0
N334 N 0.55058 0.82365 0.82482 0.0
C335 C 0.56911 0.8459 0.81848 0.0
C336 C 0.57545 0.88125 0.82578 0.0
C337 C 0.56011 0.88094 0.8375 0.0
C338 C 0.54569 0.84455 0.83693 0.0
N339 N 0.56372 0.73941 0.81862 0.0
C340 C 0.60557 0.68373 0.82174 0.0
C341 C 0.60035 0.71441 0.83194 0.0
C342 C 0.5794 0.74175 0.83021 0.0
C343 C 0.5895 0.68202 0.80993 0.0
C344 C 0.56893 0.70981 0.80857 0.0
N345 N 0.50059 0.80809 0.81492 0.0
C346 C 0.47426 0.86443 0.80577 0.0
C347 C 0.45214 0.84637 0.81175 0.0
C348 C 0.45507 0.80955 0.81937 0.0
C349 C 0.47897 0.7913 0.82082 0.0
C350 C 0.49837 0.84472 0.80748 0.0
H351 H 0.47938 0.76264 0.82661 0.0
H352 H 0.51505 0.85868 0.80271 0.0
H353 H 0.57564 0.76434 0.83838 0.0
H354 H 0.55702 0.70663 0.79936 0.0
C355 C 0.50582 0.69347 0.83011 0.0
C356 C 0.53045 0.82776 0.84879 0.0
C357 C 0.5136 0.75127 0.78249 0.0
C358 C 0.57721 0.83613 0.80479 0.0
H359 H 0.51254 0.77014 0.87046 0.0
H360 H 0.5013 0.69474 0.86052 0.0
H361 H 0.47112 0.65353 0.81104 0.0
H362 H 0.4703 0.69193 0.78619 0.0
H363 H 0.55774 0.76656 0.76439 0.0
H364 H 0.59198 0.81613 0.77634 0.0
H365 H 0.58885 0.90526 0.82268 0.0
H366 H 0.56005 0.90459 0.84561 0.0
H367 H 0.61222 0.71692 0.84127 0.0
H368 H 0.59271 0.65897 0.80179 0.0
H369 H 0.47291 0.89326 0.79982 0.0
H370 H 0.43873 0.79451 0.8242 0.0
C371 C 0.28884 0.97688 0.84652 0.0
C372 C 0.30694 0.99786 0.85445 0.0
C373 C 0.31225 0.03422 0.84737 0.0
C374 C 0.29769 0.0332 0.8353 0.0
N375 N 0.28305 0.99861 0.8344 0.0
Co376 Co 0.26602 0.97775 0.81675 0.0
N377 N 0.279 0.02509 0.80488 0.0
C378 C 0.29119 0.05936 0.80968 0.0
C379 C 0.29765 0.08673 0.79904 0.0
C380 C 0.28902 0.06876 0.7868 0.0
C381 C 0.27787 0.03121 0.79065 0.0
N382 N 0.25035 0.95405 0.79922 0.0
C383 C 0.25301 0.96546 0.78548 0.0
C384 C 0.24004 0.93862 0.77649 0.0
C385 C 0.2288 0.90921 0.78485 0.0
C386 C 0.23563 0.91957 0.79837 0.0
N387 N 0.25173 0.93155 0.82863 0.0
C388 C 0.23401 0.90349 0.82466 0.0
C389 C 0.2251 0.87918 0.83554 0.0
C390 C 0.23842 0.89186 0.84713 0.0
C391 C 0.25525 0.9225 0.84251 0.0
N392 N 0.23429 0.01262 0.82037 0.0
C393 C 0.19176 0.06953 0.82078 0.0
C394 C 0.18876 0.02703 0.81741 0.0
C395 C 0.21005 0.99977 0.81692 0.0
C396 C 0.2164 0.08176 0.82466 0.0
C397 C 0.23662 0.05299 0.82501 0.0
N398 N 0.29822 0.94565 0.81297 0.0
C399 C 0.32329 0.88188 0.81141 0.0
C400 C 0.34618 0.90484 0.81057 0.0
C401 C 0.3443 0.94794 0.81035 0.0
C402 C 0.32068 0.96731 0.81151 0.0
C403 C 0.29949 0.90291 0.81249 0.0
H404 H 0.3215 1.00028 0.81155 0.0
H405 H 0.28237 0.88449 0.81335 0.0
H406 H 0.20641 0.96861 0.81353 0.0
H407 H 0.25414 0.06473 0.82891 0.0
C408 C 0.30009 0.06085 0.82374 0.0
C409 C 0.27691 0.93688 0.85093 0.0
C410 C 0.26721 1.00161 0.78043 0.0
C411 C 0.22809 0.89802 0.81046 0.0
H412 H 0.31567 0.98775 0.86425 0.0
H413 H 0.32623 0.05748 0.85028 0.0
H414 H 0.30844 0.11534 0.79998 0.0
H415 H 0.29126 0.08123 0.77621 0.0
H416 H 0.23875 0.94016 0.76507 0.0
H417 H 0.21708 0.88333 0.78147 0.0
H418 H 0.21135 0.85408 0.83499 0.0
H419 H 0.23695 0.87834 0.85761 0.0
H420 H 0.17012 0.01503 0.8147 0.0
H421 H 0.2202 0.11378 0.82758 0.0
H422 H 0.3238 0.84815 0.81158 0.0
H423 H 0.36132 0.967 0.80964 0.0
C424 C 0.49856 0.60345 0.58604 0.0
C425 C 0.48699 0.6422 0.58744 0.0
C426 C 0.47277 0.64849 0.57552 0.0
C427 C 0.47685 0.61396 0.56736 0.0
N428 N 0.49286 0.58623 0.57336 0.0
Co429 Co 0.50683 0.53538 0.56427 0.0
N430 N 0.49711 0.55595 0.54513 0.0
C431 C 0.48013 0.58631 0.5423 0.0
C432 C 0.47671 0.59351 0.52812 0.0
C433 C 0.49228 0.56561 0.52154 0.0
C434 C 0.5043 0.54277 0.53215 0.0
N435 N 0.52071 0.48476 0.55506 0.0
C436 C 0.52586 0.4773 0.54119 0.0
C437 C 0.53476 0.43699 0.5394 0.0
C438 C 0.53478 0.41857 0.55258 0.0
C439 C 0.52595 0.44856 0.56169 0.0
N440 N 0.51623 0.51582 0.58354 0.0
C441 C 0.52164 0.47619 0.58713 0.0
C442 C 0.52717 0.47186 0.60129 0.0
C443 C 0.52501 0.51121 0.6069 0.0
C444 C 0.51834 0.53755 0.59583 0.0
N445 N 0.47322 0.50593 0.56605 0.0
C446 C 0.43175 0.44904 0.56944 0.0
C447 C 0.44383 0.45468 0.55635 0.0
C448 C 0.46414 0.48314 0.55487 0.0
C449 C 0.44009 0.47437 0.58067 0.0
C450 C 0.46067 0.50257 0.57876 0.0
N451 N 0.54103 0.56219 0.56261 0.0
C452 C 0.5868 0.55624 0.56584 0.0
C453 C 0.59086 0.59697 0.561 0.0
C454 C 0.56922 0.62005 0.55687 0.0
C455 C 0.54454 0.60213 0.55774 0.0
C456 C 0.56209 0.53964 0.56654 0.0
H457 H 0.52832 0.62059 0.55454 0.0
H458 H 0.56019 0.50821 0.57039 0.0
H459 H 0.47317 0.48529 0.54471 0.0
H460 H 0.467 0.52051 0.58773 0.0
C461 C 0.47081 0.61146 0.55306 0.0
C462 C 0.5127 0.58244 0.59748 0.0
C463 C 0.52012 0.50619 0.52942 0.0
C464 C 0.52533 0.44601 0.57657 0.0
H465 H 0.48859 0.66394 0.5961 0.0
H466 H 0.46207 0.67619 0.57275 0.0
H467 H 0.46486 0.617 0.52316 0.0
H468 H 0.49414 0.56204 0.5102 0.0
H469 H 0.5401 0.42226 0.52955 0.0
H470 H 0.54096 0.38731 0.55521 0.0
H471 H 0.53302 0.4438 0.6068 0.0
H472 H 0.52798 0.51961 0.61786 0.0
H473 H 0.43797 0.43642 0.5473 0.0
H474 H 0.43119 0.47166 0.59097 0.0
H475 H 0.60277 0.53721 0.56917 0.0
H476 H 0.57136 0.65177 0.5531 0.0
C477 C 0.78938 0.65465 0.58659 0.0
C478 C 0.80112 0.61604 0.58817 0.0
C479 C 0.81516 0.60957 0.57623 0.0
C480 C 0.81082 0.64386 0.56789 0.0
N481 N 0.79479 0.67158 0.57378 0.0
Co482 Co 0.7806 0.7222 0.56448 0.0
N483 N 0.79042 0.70155 0.54544 0.0
C484 C 0.80755 0.67137 0.54274 0.0
C485 C 0.81112 0.66424 0.52859 0.0
C486 C 0.7955 0.69198 0.52189 0.0
C487 C 0.7833 0.71467 0.53241 0.0
N488 N 0.76641 0.77251 0.55505 0.0
C489 C 0.76086 0.77948 0.54119 0.0
C490 C 0.75128 0.81936 0.53923 0.0
C491 C 0.75131 0.83808 0.5523 0.0
C492 C 0.7608 0.80864 0.56151 0.0
N493 N 0.7712 0.74199 0.58366 0.0
C494 C 0.76563 0.78161 0.58707 0.0
C495 C 0.76032 0.78621 0.60122 0.0
C496 C 0.76285 0.74706 0.60705 0.0
C497 C 0.76949 0.72058 0.5961 0.0
N498 N 0.81408 0.75188 0.56612 0.0
C499 C 0.85587 0.80795 0.5694 0.0
C500 C 0.8435 0.8032 0.55636 0.0
C501 C 0.82301 0.7751 0.55493 0.0
C502 C 0.8476 0.78228 0.58062 0.0
C503 C 0.82686 0.75452 0.57876 0.0
N504 N 0.74653 0.69499 0.56293 0.0
C505 C 0.70073 0.7005 0.56607 0.0
C506 C 0.69683 0.65988 0.56121 0.0
C507 C 0.71856 0.63706 0.55716 0.0
C508 C 0.74318 0.65514 0.55808 0.0
C509 C 0.72538 0.71726 0.56683 0.0
H510 H 0.75947 0.63691 0.55491 0.0
H511 H 0.72716 0.7486 0.57067 0.0
H512 H 0.81377 0.7735 0.54481 0.0
H513 H 0.82058 0.73631 0.58773 0.0
C514 C 0.81689 0.6463 0.55359 0.0
C515 C 0.77557 0.67594 0.59801 0.0
C516 C 0.76718 0.75089 0.52952 0.0
C517 C 0.76157 0.81151 0.57636 0.0
H518 H 0.79979 0.59459 0.59701 0.0
H519 H 0.82599 0.58197 0.57361 0.0
H520 H 0.8231 0.64088 0.52373 0.0
H521 H 0.7937 0.6955 0.51053 0.0
H522 H 0.74555 0.8337 0.52934 0.0
H523 H 0.74471 0.86913 0.55481 0.0
H524 H 0.75441 0.81431 0.60659 0.0
H525 H 0.76016 0.7389 0.61808 0.0
H526 H 0.84931 0.82182 0.54732 0.0
H527 H 0.8567 0.78439 0.59088 0.0
H528 H 0.68469 0.71933 0.56935 0.0
H529 H 0.71653 0.60542 0.55338 0.0
C530 C 0.50251 0.6473 0.66224 0.0
C531 C 0.49315 0.60729 0.66 0.0
C532 C 0.48206 0.59472 0.67231 0.0
C533 C 0.48555 0.62715 0.68147 0.0
N534 N 0.49803 0.65993 0.67568 0.0
Co535 Co 0.50823 0.71206 0.68572 0.0
N536 N 0.50016 0.68705 0.70448 0.0
C537 C 0.49288 0.6475 0.70698 0.0
C538 C 0.4998 0.63326 0.72013 0.0
C539 C 0.51143 0.66641 0.72646 0.0
C540 C 0.50938 0.69973 0.71709 0.0
N541 N 0.51616 0.76478 0.69603 0.0
C542 C 0.51065 0.77464 0.70977 0.0
C543 C 0.50834 0.81749 0.71131 0.0
C544 C 0.51425 0.83505 0.69847 0.0
C545 C 0.51874 0.80214 0.6896 0.0
N546 N 0.51898 0.73498 0.66696 0.0
C547 C 0.52558 0.77482 0.66434 0.0
C548 C 0.53271 0.78156 0.65052 0.0
C549 C 0.53057 0.74349 0.64404 0.0
C550 C 0.52212 0.71559 0.65427 0.0
N551 N 0.47261 0.73588 0.68334 0.0
C552 C 0.42999 0.79278 0.68277 0.0
C553 C 0.44705 0.78898 0.67139 0.0
C554 C 0.46661 0.75894 0.67148 0.0
C555 C 0.43384 0.76418 0.69402 0.0
C556 C 0.45546 0.73747 0.69434 0.0
N557 N 0.54402 0.6912 0.68792 0.0
C558 C 0.58959 0.70534 0.68737 0.0
C559 C 0.59547 0.66296 0.68891 0.0
C560 C 0.57498 0.63507 0.69018 0.0
C561 C 0.54961 0.64966 0.68964 0.0
C562 C 0.56402 0.71869 0.68694 0.0
H563 H 0.53469 0.62687 0.69045 0.0
H564 H 0.5606 0.75149 0.68554 0.0
H565 H 0.4772 0.75623 0.66183 0.0
H566 H 0.45834 0.71913 0.70375 0.0
C567 C 0.48417 0.62254 0.69607 0.0
C568 C 0.51539 0.67187 0.65125 0.0
C569 C 0.50838 0.74366 0.72148 0.0
C570 C 0.52376 0.80481 0.67503 0.0
H571 H 0.49493 0.58827 0.65064 0.0
H572 H 0.47446 0.56408 0.67467 0.0
H573 H 0.49754 0.60212 0.72442 0.0
H574 H 0.51881 0.66682 0.73714 0.0
H575 H 0.50283 0.83448 0.72067 0.0
H576 H 0.51426 0.86789 0.69579 0.0
H577 H 0.53846 0.81073 0.64568 0.0
H578 H 0.53422 0.73712 0.63298 0.0
H579 H 0.44541 0.8092 0.66223 0.0
H580 H 0.42083 0.76362 0.70291 0.0
H581 H 0.60472 0.72811 0.68635 0.0
H582 H 0.57854 0.602 0.69139 0.0
C583 C 0.79237 0.60408 0.66275 0.0
C584 C 0.80406 0.64275 0.66119 0.0
C585 C 0.81859 0.64882 0.67298 0.0
C586 C 0.81457 0.61425 0.68124 0.0
N587 N 0.79832 0.58668 0.67542 0.0
Co588 Co 0.7843 0.5359 0.68471 0.0
N589 N 0.79473 0.55599 0.70375 0.0
C590 C 0.81182 0.58632 0.70639 0.0
C591 C 0.81594 0.59295 0.72052 0.0
C592 C 0.80076 0.56465 0.72729 0.0
C593 C 0.78824 0.54219 0.71682 0.0
N594 N 0.77034 0.48523 0.6941 0.0
C595 C 0.76596 0.47718 0.70803 0.0
C596 C 0.75684 0.43697 0.70993 0.0
C597 C 0.75595 0.4191 0.69674 0.0
C598 C 0.76449 0.44932 0.68754 0.0
N599 N 0.77418 0.51671 0.66556 0.0
C600 C 0.76834 0.47726 0.66206 0.0
C601 C 0.76239 0.4732 0.64796 0.0
C602 C 0.76472 0.51256 0.64227 0.0
C603 C 0.77189 0.5386 0.65325 0.0
N604 N 0.81763 0.50615 0.68266 0.0
C605 C 0.859 0.44965 0.67906 0.0
C606 C 0.84731 0.45508 0.69224 0.0
C607 C 0.82704 0.48338 0.69382 0.0
C608 C 0.85035 0.47496 0.66783 0.0
C609 C 0.8298 0.50298 0.66985 0.0
N610 N 0.75043 0.56342 0.68663 0.0
C611 C 0.70458 0.5595 0.68345 0.0
C612 C 0.70129 0.6003 0.68826 0.0
C613 C 0.72329 0.62232 0.69237 0.0
C614 C 0.74763 0.60339 0.69146 0.0
C615 C 0.72899 0.54178 0.68277 0.0
H616 H 0.76415 0.62115 0.69459 0.0
H617 H 0.73038 0.51031 0.67898 0.0
H618 H 0.81837 0.48551 0.70405 0.0
H619 H 0.82321 0.52098 0.6609 0.0
C620 C 0.82092 0.61157 0.69551 0.0
C621 C 0.77781 0.58334 0.65148 0.0
C622 C 0.77278 0.50519 0.71976 0.0
C623 C 0.76465 0.44702 0.67268 0.0
H624 H 0.80231 0.66458 0.65249 0.0
H625 H 0.82945 0.67643 0.67561 0.0
H626 H 0.8281 0.61617 0.72533 0.0
H627 H 0.79957 0.56044 0.73864 0.0
H628 H 0.75202 0.42186 0.71984 0.0
H629 H 0.74951 0.38798 0.69418 0.0
H630 H 0.75616 0.44532 0.64255 0.0
H631 H 0.7615 0.52115 0.63133 0.0
H632 H 0.85347 0.43681 0.70128 0.0
H633 H 0.85897 0.47236 0.65746 0.0
H634 H 0.68825 0.54126 0.68018 0.0
H635 H 0.7217 0.65401 0.69616 0.0
C636 C 0.51345 0.48698 0.40217 0.0
C637 C 0.49882 0.51368 0.39394 0.0
C638 C 0.49767 0.55106 0.40105 0.0
C639 C 0.51108 0.54512 0.41341 0.0
N640 N 0.52033 0.50616 0.41448 0.0
Co641 Co 0.53506 0.48056 0.43188 0.0
N642 N 0.52225 0.52532 0.44434 0.0
C643 C 0.51475 0.56335 0.43993 0.0
C644 C 0.50747 0.58841 0.45099 0.0
C645 C 0.51095 0.56476 0.46302 0.0
C646 C 0.52015 0.52641 0.45866 0.0
N647 N 0.54899 0.45249 0.449 0.0
C648 C 0.54375 0.45859 0.46286 0.0
C649 C 0.55826 0.43236 0.47139 0.0
C650 C 0.57352 0.40981 0.46255 0.0
C651 C 0.5674 0.42327 0.44919 0.0
N652 N 0.54929 0.43682 0.41949 0.0
C653 C 0.56947 0.41261 0.42259 0.0
C654 C 0.578 0.38992 0.41128 0.0
C655 C 0.56217 0.4005 0.40035 0.0
C656 C 0.54459 0.42866 0.40573 0.0
N657 N 0.56717 0.51377 0.42963 0.0
C658 C 0.6075 0.57338 0.4276 0.0
C659 C 0.60145 0.55353 0.44045 0.0
C660 C 0.58103 0.52522 0.44131 0.0
C661 C 0.59346 0.56092 0.41563 0.0
C662 C 0.57418 0.5303 0.41677 0.0
N663 N 0.50212 0.4504 0.43425 0.0
C664 C 0.47564 0.38895 0.43751 0.0
C665 C 0.45324 0.4132 0.43664 0.0
C666 C 0.45604 0.45599 0.43482 0.0
C667 C 0.48021 0.47366 0.43365 0.0
C668 C 0.49996 0.40824 0.43637 0.0
H669 H 0.48079 0.50669 0.43211 0.0
H670 H 0.51691 0.3892 0.43696 0.0
H671 H 0.57613 0.51395 0.45167 0.0
H672 H 0.56443 0.52121 0.40722 0.0
C673 C 0.5102 0.57099 0.42543 0.0
C674 C 0.52295 0.44528 0.39771 0.0
C675 C 0.52823 0.49274 0.46837 0.0
C676 C 0.57726 0.40738 0.4366 0.0
H677 H 0.49 0.50706 0.38385 0.0
H678 H 0.48694 0.57841 0.39795 0.0
H679 H 0.49962 0.61954 0.45036 0.0
H680 H 0.50727 0.5746 0.47377 0.0
H681 H 0.55857 0.43085 0.48284 0.0
H682 H 0.58739 0.38642 0.46552 0.0
H683 H 0.59326 0.36727 0.41112 0.0
H684 H 0.56314 0.3883 0.3897 0.0
H685 H 0.61176 0.56129 0.45001 0.0
H686 H 0.59728 0.57489 0.40539 0.0
H687 H 0.47434 0.35552 0.43895 0.0
H688 H 0.43943 0.47592 0.43413 0.0
C689 C 0.28941 0.28837 0.4043 0.0
C690 C 0.30826 0.26883 0.39651 0.0
C691 C 0.31453 0.23308 0.40368 0.0
C692 C 0.2997 0.23305 0.41565 0.0
N693 N 0.28398 0.26627 0.41641 0.0
Co694 Co 0.26606 0.28541 0.43401 0.0
N695 N 0.27851 0.23716 0.44566 0.0
C696 C 0.29187 0.20422 0.44081 0.0
C697 C 0.29797 0.17602 0.45126 0.0
C698 C 0.28787 0.19205 0.46346 0.0
C699 C 0.27624 0.22932 0.45978 0.0
N700 N 0.24945 0.30745 0.45154 0.0
C701 C 0.25038 0.29376 0.46511 0.0
C702 C 0.23659 0.31937 0.47412 0.0
C703 C 0.22668 0.35045 0.46596 0.0
C704 C 0.23499 0.34215 0.45254 0.0
N705 N 0.25189 0.33215 0.42227 0.0
C706 C 0.23431 0.36024 0.42638 0.0
C707 C 0.2251 0.38457 0.4156 0.0
C708 C 0.23806 0.37191 0.4039 0.0
C709 C 0.25505 0.34134 0.40836 0.0
N710 N 0.23481 0.25047 0.42969 0.0
C711 C 0.19279 0.19288 0.42877 0.0
C712 C 0.18934 0.23534 0.43203 0.0
C713 C 0.21039 0.26299 0.43278 0.0
C714 C 0.21764 0.18106 0.42516 0.0
C715 C 0.23768 0.21021 0.42506 0.0
N716 N 0.29811 0.31772 0.43842 0.0
C717 C 0.32431 0.38046 0.43688 0.0
C718 C 0.34671 0.35738 0.43934 0.0
C719 C 0.34398 0.31525 0.44232 0.0
C720 C 0.32003 0.29645 0.44192 0.0
C721 C 0.30021 0.36013 0.43664 0.0
H722 H 0.32038 0.26404 0.44414 0.0
H723 H 0.28358 0.37877 0.43452 0.0
H724 H 0.20649 0.29414 0.43611 0.0
H725 H 0.25561 0.19893 0.42151 0.0
C726 C 0.30205 0.20501 0.42706 0.0
C727 C 0.27662 0.32748 0.39978 0.0
C728 C 0.26417 0.25713 0.47007 0.0
C729 C 0.22814 0.36479 0.44057 0.0
H730 H 0.31683 0.27952 0.38673 0.0
H731 H 0.32912 0.21081 0.40085 0.0
H732 H 0.30949 0.14822 0.45027 0.0
H733 H 0.28946 0.17853 0.47394 0.0
H734 H 0.23387 0.31587 0.48542 0.0
H735 H 0.2146 0.37581 0.46938 0.0
H736 H 0.21122 0.40941 0.41624 0.0
H737 H 0.23622 0.38537 0.39342 0.0
H738 H 0.17051 0.24694 0.43453 0.0
H739 H 0.22174 0.14909 0.42233 0.0
H740 H 0.32544 0.41362 0.43481 0.0
H741 H 0.36058 0.2963 0.44459 0.0
C742 C 0.51029 0.28853 0.3481 0.0
C743 C 0.49574 0.26628 0.35779 0.0
C744 C 0.49213 0.22715 0.35222 0.0
C745 C 0.50386 0.22753 0.3392 0.0
N746 N 0.51467 0.26477 0.33641 0.0
Co747 Co 0.5276 0.28298 0.31767 0.0
N748 N 0.50863 0.23955 0.30715 0.0
C749 C 0.49643 0.20697 0.31306 0.0
C750 C 0.47819 0.19114 0.30413 0.0
C751 C 0.47962 0.21462 0.2919 0.0
C752 C 0.4997 0.24231 0.2936 0.0
N753 N 0.54206 0.30096 0.2994 0.0
C754 C 0.53706 0.28605 0.28636 0.0
C755 C 0.55758 0.29295 0.27731 0.0
C756 C 0.57535 0.31492 0.28481 0.0
C757 C 0.56515 0.31893 0.29808 0.0
N758 N 0.54573 0.32799 0.32772 0.0
C759 C 0.56707 0.34705 0.3232 0.0
C760 C 0.57675 0.37459 0.33289 0.0
C761 C 0.56038 0.37268 0.34419 0.0
C762 C 0.54148 0.34414 0.3407 0.0
N763 N 0.55781 0.24474 0.31983 0.0
C764 C 0.6018 0.19173 0.32149 0.0
C765 C 0.59758 0.22422 0.33124 0.0
C766 C 0.57522 0.24891 0.33059 0.0
C767 C 0.58283 0.18625 0.31114 0.0
C768 C 0.56192 0.21361 0.31015 0.0
N769 N 0.49653 0.31862 0.31549 0.0
C770 C 0.47254 0.37973 0.30794 0.0
C771 C 0.44936 0.36118 0.31235 0.0
C772 C 0.45059 0.3216 0.31825 0.0
C773 C 0.47379 0.30137 0.31971 0.0
C774 C 0.496 0.35775 0.30957 0.0
H775 H 0.47267 0.27099 0.32422 0.0
H776 H 0.51355 0.37215 0.30608 0.0
H777 H 0.57237 0.27178 0.33877 0.0
H778 H 0.54929 0.20934 0.3013 0.0
C779 C 0.49657 0.20156 0.32789 0.0
C780 C 0.52061 0.33145 0.3502 0.0
C781 C 0.51258 0.26728 0.28217 0.0
C782 C 0.5762 0.34007 0.30949 0.0
H783 H 0.4878 0.27731 0.36763 0.0
H784 H 0.47987 0.20304 0.35649 0.0
H785 H 0.46388 0.16796 0.30665 0.0
H786 H 0.46701 0.21168 0.28293 0.0
H787 H 0.55949 0.28329 0.26641 0.0
H788 H 0.59358 0.32623 0.28106 0.0
H789 H 0.59351 0.394 0.33183 0.0
H790 H 0.5624 0.3898 0.35397 0.0
H791 H 0.6114 0.23041 0.33948 0.0
H792 H 0.58455 0.16155 0.30342 0.0
H793 H 0.47252 0.41069 0.30335 0.0
H794 H 0.4334 0.30601 0.32182 0.0
C795 C 0.28163 0.484 0.34816 0.0
C796 C 0.29582 0.51018 0.35674 0.0
C797 C 0.29616 0.54872 0.35022 0.0
C798 C 0.28278 0.54408 0.33779 0.0
N799 N 0.27426 0.50485 0.33619 0.0
Co800 Co 0.26029 0.48114 0.31843 0.0
N801 N 0.27324 0.52744 0.30653 0.0
C802 C 0.28024 0.56512 0.31138 0.0
C803 C 0.28795 0.59135 0.30064 0.0
C804 C 0.28526 0.56877 0.28835 0.0
C805 C 0.27607 0.52985 0.29226 0.0
N806 N 0.2466 0.45525 0.30098 0.0
C807 C 0.25215 0.46283 0.28724 0.0
C808 C 0.23758 0.43781 0.27838 0.0
C809 C 0.22194 0.41463 0.28692 0.0
C810 C 0.22791 0.42649 0.30044 0.0
N811 N 0.24633 0.43544 0.33022 0.0
C812 C 0.22621 0.41147 0.32686 0.0
C813 C 0.21855 0.3859 0.33773 0.0
C814 C 0.23493 0.39429 0.34863 0.0
C815 C 0.25192 0.42421 0.34366 0.0
N816 N 0.228 0.5136 0.3208 0.0
C817 C 0.18822 0.57357 0.32343 0.0
C818 C 0.19709 0.56078 0.31017 0.0
C819 C 0.21667 0.53108 0.3091 0.0
C820 C 0.19897 0.55403 0.33542 0.0
C821 C 0.21865 0.52409 0.33388 0.0
N822 N 0.29354 0.45206 0.31587 0.0
C823 C 0.32084 0.39243 0.31132 0.0
C824 C 0.34295 0.4172 0.31286 0.0
C825 C 0.33955 0.45933 0.31567 0.0
C826 C 0.31517 0.47582 0.31713 0.0
C827 C 0.29624 0.41057 0.3128 0.0
H828 H 0.3142 0.50838 0.31942 0.0
H829 H 0.27953 0.39116 0.31168 0.0
H830 H 0.22334 0.52375 0.29868 0.0
H831 H 0.2269 0.51057 0.34332 0.0
C832 C 0.28389 0.57134 0.32602 0.0
C833 C 0.27336 0.44071 0.35186 0.0
C834 C 0.26815 0.4972 0.28218 0.0
C835 C 0.21813 0.40866 0.31282 0.0
H836 H 0.30506 0.50239 0.36663 0.0
H837 H 0.30661 0.57596 0.35365 0.0
H838 H 0.29553 0.62257 0.30163 0.0
H839 H 0.28932 0.57976 0.27774 0.0
H840 H 0.23754 0.43739 0.26693 0.0
H841 H 0.20805 0.39166 0.28365 0.0
H842 H 0.20358 0.36269 0.33758 0.0
H843 H 0.23461 0.37964 0.35897 0.0
H844 H 0.18939 0.57461 0.30061 0.0
H845 H 0.19266 0.56259 0.34592 0.0
H846 H 0.32257 0.35944 0.30918 0.0
H847 H 0.35588 0.47965 0.31696 0.0
C848 C 0.99905 0.08497 0.59331 0.0
C849 C 0.98139 0.11374 0.59822 0.0
C850 C 0.96518 0.1219 0.5872 0.0
C851 C 0.97361 0.09734 0.57631 0.0
N852 N 0.99405 0.07425 0.5798 0.0
Co853 Co 1.00921 0.02989 0.56809 0.0
N854 N 0.99574 0.05601 0.55057 0.0
C855 C 0.97655 0.08382 0.54988 0.0
C856 C 0.97088 0.09603 0.53632 0.0
C857 C 0.98725 0.07407 0.52792 0.0
C858 C 1.00193 0.04936 0.53689 0.0
N859 N 0.02349 0.98491 0.55628 0.0
C860 C 0.02693 0.98338 0.54205 0.0
C861 C 0.03701 0.94518 0.53815 0.0
C862 C 0.03964 0.92213 0.5504 0.0
C863 C 0.03102 0.94738 0.5611 0.0
N864 N 0.02281 0.00587 0.58596 0.0
C865 C 0.03185 0.96693 0.58761 0.0
C866 C 0.04504 0.96247 0.60012 0.0
C867 C 0.04403 1.00078 0.60664 0.0
C868 C 0.02965 0.02661 0.59797 0.0
N869 N 0.97727 0.99595 0.56996 0.0
C870 C 0.93665 0.93691 0.57187 0.0
C871 C 0.9469 0.95595 0.58403 0.0
C872 C 0.96703 0.98537 0.58286 0.0
C873 C 0.94669 0.94942 0.55879 0.0
C874 C 0.96667 0.9786 0.55808 0.0
N875 N 0.04206 0.06082 0.56601 0.0
C876 C 0.08824 0.05677 0.5669 0.0
C877 C 0.09083 0.09891 0.56365 0.0
C878 C 0.06826 0.12192 0.5613 0.0
C879 C 0.04402 0.10222 0.56249 0.0
C880 C 0.06414 0.0386 0.56793 0.0
H881 H 0.02697 0.12042 0.5608 0.0
H882 H 0.06374 0.006 0.57037 0.0
H883 H 0.97476 0.99866 0.59243 0.0
H884 H 0.97407 0.98597 0.54779 0.0
C885 C 0.96597 0.10051 0.56219 0.0
C886 C 1.02076 0.06948 0.60155 0.0
C887 C 1.01875 0.01607 0.53196 0.0
C888 C 0.03404 0.94046 0.57577 0.0
H889 H 0.9806 0.12787 0.60859 0.0
H890 H 0.94983 0.14439 0.58697 0.0
H891 H 0.9567 0.11843 0.53294 0.0
H892 H 0.98764 0.07504 0.51646 0.0
H893 H 0.04166 0.93495 0.52756 0.0
H894 H 0.04773 0.89124 0.55141 0.0
H895 H 0.05591 0.93564 0.60357 0.0
H896 H 0.05307 0.00869 0.61656 0.0
H897 H 0.93974 0.94755 0.59441 0.0
H898 H 0.93947 0.93594 0.54909 0.0
H899 H 0.10495 0.0377 0.56873 0.0
H900 H 0.06933 0.1548 0.55875 0.0
C901 C 0.29006 0.16666 0.59215 0.0
C902 C 0.30763 0.13679 0.59645 0.0
C903 C 0.32316 0.12951 0.58509 0.0
C904 C 0.31448 0.15564 0.57462 0.0
N905 N 0.29452 0.17896 0.57868 0.0
Co906 Co 0.27934 0.2251 0.56756 0.0
N907 N 0.29187 0.20085 0.54957 0.0
C908 C 0.31059 0.17238 0.54837 0.0
C909 C 0.31564 0.16163 0.53463 0.0
C910 C 0.29937 0.18526 0.52663 0.0
C911 C 0.28535 0.20944 0.536 0.0
N912 N 0.26515 0.27192 0.55634 0.0
C913 C 0.26166 0.27574 0.54213 0.0
C914 C 0.25207 0.31484 0.53881 0.0
C915 C 0.24979 0.33609 0.55137 0.0
C916 C 0.25814 0.30896 0.56169 0.0
N917 N 0.26646 0.24709 0.58584 0.0
C918 C 0.25763 0.2859 0.58795 0.0
C919 C 0.24509 0.28926 0.60068 0.0
C920 C 0.24631 0.25034 0.60688 0.0
C921 C 0.26018 0.22522 0.5978 0.0
N922 N 0.31164 0.25828 0.5695 0.0
C923 C 0.35202 0.31786 0.57159 0.0
C924 C 0.34181 0.29809 0.58369 0.0
C925 C 0.32184 0.2684 0.58243 0.0
C926 C 0.34216 0.30558 0.55847 0.0
C927 C 0.32232 0.27612 0.55768 0.0
N928 N 0.24622 0.19506 0.56553 0.0
C929 C 0.20009 0.19998 0.56661 0.0
C930 C 0.19716 0.15788 0.5635 0.0
C931 C 0.21954 0.13442 0.56119 0.0
C932 C 0.24392 0.15366 0.56222 0.0
C933 C 0.22433 0.21769 0.56752 0.0
H934 H 0.26082 0.13512 0.56054 0.0
H935 H 0.22503 0.25019 0.56999 0.0
H936 H 0.31417 0.25461 0.59198 0.0
H937 H 0.31505 0.26903 0.54738 0.0
C938 C 0.32139 0.15391 0.56037 0.0
C939 C 0.26911 0.18196 0.601 0.0
C940 C 0.26912 0.24427 0.53153 0.0
C941 C 0.25541 0.31389 0.57644 0.0
H942 H 0.30887 0.12142 0.60665 0.0
H943 H 0.33824 0.10662 0.58438 0.0
H944 H 0.3294 0.13916 0.53087 0.0
H945 H 0.29868 0.18582 0.51518 0.0
H946 H 0.24747 0.3268 0.52838 0.0
H947 H 0.24214 0.36708 0.55283 0.0
H948 H 0.23459 0.31591 0.60454 0.0
H949 H 0.23781 0.24159 0.61689 0.0
H950 H 0.34885 0.30618 0.5941 0.0
H951 H 0.34937 0.31951 0.5488 0.0
H952 H 0.18354 0.21935 0.56846 0.0
H953 H 0.21821 0.10155 0.55877 0.0
C954 C 1.00012 0.16999 0.65627 0.0
C955 C 0.98237 0.14117 0.65145 0.0
C956 C 0.96633 0.13302 0.66254 0.0
C957 C 0.97493 0.15766 0.67337 0.0
N958 N 0.99532 0.1808 0.66979 0.0
Co959 Co 1.01043 0.22561 0.68137 0.0
N960 N 0.99696 0.1999 0.69898 0.0
C961 C 0.97791 0.17179 0.69975 0.0
C962 C 0.97221 0.15994 0.71334 0.0
C963 C 0.98839 0.18247 0.72169 0.0
C964 C 1.00299 0.20715 0.71266 0.0
N965 N 0.02456 0.27112 0.69305 0.0
C966 C 0.02776 0.2733 0.70729 0.0
C967 C 0.0377 0.31175 0.71105 0.0
C968 C 0.04048 0.33431 0.69871 0.0
C969 C 0.03207 0.30853 0.68809 0.0
N970 N 0.0241 0.24919 0.66343 0.0
C971 C 0.03317 0.28808 0.66168 0.0
C972 C 0.04627 0.29232 0.64913 0.0
C973 C 0.04514 0.2539 0.64268 0.0
C974 C 0.03079 0.22824 0.65144 0.0
N975 N 0.97849 0.25928 0.67931 0.0
C976 C 0.93837 0.31889 0.67704 0.0
C977 C 0.94872 0.29957 0.66497 0.0
C978 C 0.96859 0.26984 0.66632 0.0
C979 C 0.94796 0.30626 0.69021 0.0
C980 C 0.9677 0.27677 0.6911 0.0
N981 N 0.04332 0.19499 0.68358 0.0
C982 C 0.08949 0.19955 0.68285 0.0
C983 C 0.09217 0.15737 0.68599 0.0
C984 C 0.06965 0.13404 0.68817 0.0
C985 C 0.04536 0.15351 0.68695 0.0
C986 C 0.06536 0.21747 0.68177 0.0
H987 H 0.02834 0.13509 0.68853 0.0
H988 H 0.0649 0.25007 0.67936 0.0
H989 H 0.97642 0.25635 0.65682 0.0
H990 H 0.97481 0.26935 0.70144 0.0
C991 C 0.96737 0.15471 0.6875 0.0
C992 C 1.02171 0.18543 0.64792 0.0
C993 C 1.01945 0.24106 0.71752 0.0
C994 C 0.03524 0.31495 0.67341 0.0
H995 H 0.98138 0.12702 0.64109 0.0
H996 H 0.95094 0.11055 0.66284 0.0
H997 H 0.95809 0.13748 0.71678 0.0
H998 H 0.98866 0.18195 0.73314 0.0
H999 H 0.04215 0.32248 0.72161 0.0
H1000 H 0.0485 0.36524 0.69759 0.0
H1001 H 0.05708 0.31913 0.64557 0.0
H1002 H 0.054 0.24583 0.63274 0.0
H1003 H 0.94187 0.30803 0.65454 0.0
H1004 H 0.9406 0.31994 0.69984 0.0
H1005 H 0.10616 0.21886 0.68114 0.0
H1006 H 0.07079 0.10111 0.69063 0.0
C1007 C 0.29058 0.08039 0.65678 0.0
C1008 C 0.30852 0.10882 0.65184 0.0
C1009 C 0.32367 0.11867 0.66311 0.0
C1010 C 0.31447 0.09521 0.67415 0.0
N1011 N 0.29463 0.07085 0.67055 0.0
Co1012 Co 0.27922 0.0267 0.68261 0.0
N1013 N 0.29278 0.05319 0.70008 0.0
C1014 C 0.3099 0.08456 0.70066 0.0
C1015 C 0.31523 0.09731 0.71416 0.0
C1016 C 0.30062 0.07245 0.72269 0.0
C1017 C 0.28735 0.04557 0.71384 0.0
N1018 N 0.2653 0.98137 0.69465 0.0
C1019 C 0.26351 0.9785 0.70897 0.0
C1020 C 0.25341 0.94029 0.71297 0.0
C1021 C 0.24885 0.91859 0.70071 0.0
C1022 C 0.25647 0.94457 0.68989 0.0
N1023 N 0.26393 1.00398 0.66488 0.0
C1024 C 0.25219 0.96679 0.66368 0.0
C1025 C 0.23837 0.96369 0.65136 0.0
C1026 C 0.24152 1.00124 0.64445 0.0
C1027 C 0.25773 0.02507 0.65272 0.0
N1028 N 0.31128 0.99104 0.68052 0.0
C1029 C 0.35072 0.92786 0.68089 0.0
C1030 C 0.3313 0.92866 0.67061 0.0
C1031 C 0.31305 0.96109 0.67015 0.0
C1032 C 0.35045 0.96125 0.6905 0.0
C1033 C 0.33045 0.99088 0.69052 0.0
N1034 N 0.24667 0.05851 0.68494 0.0
C1035 C 0.2004 0.05531 0.68527 0.0
C1036 C 0.19833 0.09822 0.68681 0.0
C1037 C 0.2212 0.12131 0.68779 0.0
C1038 C 0.24521 0.1008 0.68687 0.0
C1039 C 0.22426 0.03641 0.68445 0.0
H1040 H 0.26245 0.11912 0.68743 0.0
H1041 H 0.22406 1.00339 0.68323 0.0
H1042 H 0.30022 0.96045 0.66135 0.0
H1043 H 0.33087 0.01267 0.69905 0.0
C1044 C 0.32057 0.10107 0.68834 0.0
C1045 C 0.26859 0.06632 0.64854 0.0
C1046 C 0.27189 0.0108 0.71899 0.0
C1047 C 0.25075 0.93949 0.6754 0.0
H1048 H 0.30987 0.1223 0.64134 0.0
H1049 H 0.33864 0.14186 0.66339 0.0
H1050 H 0.32828 0.12156 0.71743 0.0
H1051 H 0.30041 0.0732 0.73414 0.0
H1052 H 0.24959 0.92946 0.72363 0.0
H1053 H 0.23991 0.88832 0.69979 0.0
H1054 H 0.22616 0.93821 0.64817 0.0
H1055 H 0.2328 0.00997 0.6345 0.0
H1056 H 0.33014 0.90428 0.66276 0.0
H1057 H 0.36518 0.96371 0.69848 0.0
H1058 H 0.18344 0.03616 0.68455 0.0
H1059 H 0.22053 0.15482 0.68901 0.0
C1060 C 0.02256 0.97874 0.40436 0.0
C1061 C 1.01565 0.00639 0.39371 0.0
C1062 C 1.0147 0.04532 0.39975 0.0
C1063 C 1.02113 0.03943 0.41372 0.0
N1064 N 0.02597 0.99924 0.41682 0.0
Co1065 Co 0.03611 0.97723 0.4357 0.0
N1066 N 0.02497 0.02841 0.44563 0.0
C1067 C 1.02079 0.06567 0.43944 0.0
C1068 C 1.0141 0.09587 0.44902 0.0
C1069 C 1.01441 0.07642 0.46202 0.0
C1070 C 1.0213 0.03534 0.45965 0.0
N1071 N 0.04568 0.9535 0.45446 0.0
C1072 C 0.03945 0.96603 0.46765 0.0
C1073 C 0.0507 0.94069 0.47788 0.0
C1074 C 0.06482 0.9118 0.47082 0.0
C1075 C 0.06136 0.92096 0.45678 0.0
N1076 N 0.04796 0.9261 0.4259 0.0
C1077 C 0.06329 0.89639 0.43136 0.0
C1078 C 0.06593 0.8624 0.42278 0.0
C1079 C 0.05147 0.87109 0.41116 0.0
C1080 C 0.04126 0.91066 0.41312 0.0
N1081 N 0.07065 1.00394 0.43373 0.0
C1082 C 0.11192 0.06215 0.43142 0.0
C1083 C 0.10434 0.04532 0.44454 0.0
C1084 C 0.08348 0.01776 0.4455 0.0
C1085 C 0.09937 0.04629 0.4194 0.0
C1086 C 0.07984 0.01614 0.42074 0.0
N1087 N 1.00113 0.95372 0.43757 0.0
C1088 C 0.9711 0.89707 0.4413 0.0
C1089 C 0.95026 0.92364 0.43861 0.0
C1090 C 0.95558 0.9654 0.43561 0.0
C1091 C 0.98079 0.97958 0.43506 0.0
C1092 C 0.99635 0.91276 0.44083 0.0
H1093 H 0.98365 0.01178 0.43235 0.0
H1094 H 1.01196 0.89174 0.44293 0.0
H1095 H 0.07723 0.00953 0.45596 0.0
H1096 H 0.07142 1.00451 0.41115 0.0
C1097 C 1.01976 0.0692 0.42459 0.0
C1098 C 0.02748 0.93387 0.40208 0.0
C1099 C 0.02593 1.00452 0.47095 0.0
C1100 C 0.06966 0.89646 0.44563 0.0
H1101 H 1.01184 0.99915 0.38273 0.0
H1102 H 1.00928 0.07422 0.39462 0.0
H1103 H 1.00894 0.1279 0.44681 0.0
H1104 H 1.01036 0.09083 0.47211 0.0
H1105 H 0.04945 0.94342 0.48927 0.0
H1106 H 0.07586 0.88662 0.47538 0.0
H1107 H 0.07572 0.8335 0.42512 0.0
H1108 H 0.04876 0.85033 0.4023 0.0
H1109 H 0.11361 0.05527 0.45419 0.0
H1110 H 0.10439 0.05746 0.40893 0.0
H1111 H 0.96789 0.86445 0.44369 0.0
H1112 H 0.94022 0.98702 0.43343 0.0
C1113 C 0.78718 0.78761 0.40232 0.0
C1114 C 0.80536 0.76592 0.39469 0.0
C1115 C 0.81135 0.73119 0.40249 0.0
C1116 C 0.79702 0.73393 0.41461 0.0
N1117 N 0.78194 0.76804 0.41489 0.0
Co1118 Co 0.76428 0.79078 0.43207 0.0
N1119 N 0.77678 0.74451 0.44458 0.0
C1120 C 0.7896 0.71023 0.44036 0.0
C1121 C 0.79515 0.68338 0.45129 0.0
C1122 C 0.78516 0.70161 0.46314 0.0
C1123 C 0.77416 0.73877 0.45877 0.0
N1124 N 0.74792 0.81609 0.44915 0.0
C1125 C 0.74918 0.80497 0.46297 0.0
C1126 C 0.73608 0.83274 0.47154 0.0
C1127 C 0.72616 0.86247 0.46282 0.0
C1128 C 0.73384 0.85134 0.44952 0.0
N1129 N 0.7503 0.83562 0.41953 0.0
C1130 C 0.73296 0.86477 0.42307 0.0
C1131 C 0.72371 0.88702 0.41179 0.0
C1132 C 0.73632 0.87169 0.40035 0.0
C1133 C 0.75313 0.84167 0.40544 0.0
N1134 N 0.73284 0.75584 0.42837 0.0
C1135 C 0.6899 0.70054 0.42684 0.0
C1136 C 0.68705 0.74304 0.43013 0.0
C1137 C 0.70854 0.76959 0.43113 0.0
C1138 C 0.71465 0.68723 0.42374 0.0
C1139 C 0.73525 0.71519 0.42406 0.0
N1140 N 0.79627 0.82361 0.43586 0.0
C1141 C 0.82092 0.88807 0.43646 0.0
C1142 C 0.84387 0.86583 0.4381 0.0
C1143 C 0.84224 0.82275 0.43921 0.0
C1144 C 0.81876 0.80265 0.4381 0.0
C1145 C 0.79733 0.86641 0.43552 0.0
H1146 H 0.8197 0.76971 0.43878 0.0
H1147 H 0.78022 0.88442 0.43407 0.0
H1148 H 0.70504 0.80097 0.43434 0.0
H1149 H 0.75309 0.70271 0.42093 0.0
C1150 C 0.79924 0.70762 0.4265 0.0
C1151 C 0.77458 0.82599 0.39717 0.0
C1152 C 0.7622 0.76833 0.4685 0.0
C1153 C 0.72694 0.87204 0.43715 0.0
H1154 H 0.81356 0.77442 0.38458 0.0
H1155 H 0.82536 0.7077 0.39991 0.0
H1156 H 0.80601 0.65477 0.4508 0.0
H1157 H 0.78629 0.68948 0.47384 0.0
H1158 H 0.73374 0.8315 0.48292 0.0
H1159 H 0.71452 0.88884 0.4658 0.0
H1160 H 0.71002 0.91223 0.41193 0.0
H1161 H 0.73453 0.88312 0.3896 0.0
H1162 H 0.66832 0.75553 0.43235 0.0
H1163 H 0.71818 0.65503 0.42096 0.0
H1164 H 0.82122 0.92173 0.43564 0.0
H1165 H 0.85934 0.80426 0.44059 0.0
C1166 C 0.02335 0.79372 0.34819 0.0
C1167 C 1.01731 0.76759 0.35943 0.0
C1168 C 1.01596 0.72782 0.35407 0.0
C1169 C 1.02134 0.73171 0.33988 0.0
N1170 N 0.02587 0.77146 0.33604 0.0
Co1171 Co 0.03472 0.79066 0.31666 0.0
N1172 N 1.0218 0.73892 0.30778 0.0
C1173 C 1.01726 0.70274 0.31459 0.0
C1174 C 1.00849 0.67219 0.30566 0.0
C1175 C 1.00785 0.69026 0.29243 0.0
C1176 C 1.01637 0.7309 0.294 0.0
N1177 N 0.04393 0.8111 0.29745 0.0
C1178 C 0.03693 0.79703 0.28458 0.0
C1179 C 0.04855 0.81998 0.27383 0.0
C1180 C 0.0637 0.84882 0.28024 0.0
C1181 C 0.06045 0.84206 0.29444 0.0
N1182 N 0.04773 0.84268 0.32542 0.0
C1183 C 0.06332 0.87089 0.3193 0.0
C1184 C 0.06668 0.90607 0.32724 0.0
C1185 C 0.05245 0.89972 0.33913 0.0
C1186 C 0.04163 0.86028 0.33796 0.0
N1187 N 0.06881 0.7631 0.31843 0.0
C1188 C 0.11019 0.70649 0.32189 0.0
C1189 C 0.10186 0.73185 0.33311 0.0
C1190 C 0.08131 0.75996 0.33115 0.0
C1191 C 0.09831 0.71218 0.30876 0.0
C1192 C 0.07805 0.74052 0.30724 0.0
N1193 N 0.99997 0.8151 0.31491 0.0
C1194 C 0.97006 0.86976 0.30843 0.0
C1195 C 0.94912 0.8448 0.31247 0.0
C1196 C 0.9544 0.8049 0.31767 0.0
C1197 C 0.97957 0.79093 0.31886 0.0
C1198 C 0.9953 0.8543 0.30968 0.0
H1199 H 0.98234 0.76007 0.32303 0.0
H1200 H 1.011 0.87396 0.30646 0.0
H1201 H 0.07485 0.77779 0.34011 0.0
H1202 H 0.06905 0.74239 0.29705 0.0
C1203 C 1.01813 0.70081 0.32949 0.0
C1204 C 0.02806 0.839 0.34953 0.0
C1205 C 0.02182 0.7595 0.28211 0.0
C1206 C 0.06946 0.86806 0.30504 0.0
H1207 H 1.01418 0.77641 0.37034 0.0
H1208 H 1.01071 0.69974 0.35975 0.0
H1209 H 1.00273 0.64082 0.30846 0.0
H1210 H 1.00242 0.67504 0.28268 0.0
H1211 H 0.04673 0.81586 0.26251 0.0
H1212 H 0.07517 0.87259 0.27514 0.0
H1213 H 0.07689 0.93416 0.32432 0.0
H1214 H 0.05037 0.92184 0.34765 0.0
H1215 H 0.11067 0.72906 0.34343 0.0
H1216 H 0.10421 0.69387 0.29973 0.0
H1217 H 0.96695 0.90097 0.30439 0.0
H1218 H 0.93902 0.78452 0.32097 0.0
C1219 C 0.78596 0.98256 0.34727 0.0
C1220 C 0.80122 1.00405 0.35675 0.0
C1221 C 0.80524 0.04307 0.35108 0.0
C1222 C 0.79298 0.04333 0.3382 0.0
N1223 N 0.78145 0.00663 0.33561 0.0
Co1224 Co 0.76729 0.98923 0.31713 0.0
N1225 N 0.78644 0.03209 0.3063 0.0
C1226 C 0.79943 0.06406 0.31198 0.0
C1227 C 0.81757 0.0791 0.30279 0.0
C1228 C 0.81525 0.05578 0.29065 0.0
C1229 C 0.79473 0.02909 0.29265 0.0
N1230 N 0.75167 0.97223 0.29912 0.0
C1231 C 0.75613 0.98775 0.28606 0.0
C1232 C 0.73498 0.98236 0.27736 0.0
C1233 C 0.71731 0.96064 0.2851 0.0
C1234 C 0.72823 0.95533 0.29816 0.0
N1235 N 0.74897 0.94479 0.32749 0.0
C1236 C 0.72727 0.92635 0.32328 0.0
C1237 C 0.7179 0.8986 0.33308 0.0
C1238 C 0.73488 0.89968 0.34412 0.0
C1239 C 0.75377 0.92804 0.34037 0.0
N1240 N 0.73774 0.02863 0.31965 0.0
C1241 C 0.69398 0.08208 0.32147 0.0
C1242 C 0.69821 0.04931 0.33121 0.0
C1243 C 0.72047 0.02443 0.33049 0.0
C1244 C 0.7129 0.08777 0.31109 0.0
C1245 C 0.73369 0.06022 0.31003 0.0
N1246 N 0.7976 0.95211 0.3146 0.0
C1247 C 0.81968 0.88852 0.30782 0.0
C1248 C 0.84349 0.90575 0.31172 0.0
C1249 C 0.84353 0.94614 0.31691 0.0
C1250 C 0.82092 0.96824 0.31826 0.0
C1251 C 0.7969 0.91238 0.3093 0.0
H1252 H 0.8229 0.99892 0.32237 0.0
H1253 H 0.77885 0.89881 0.30628 0.0
H1254 H 0.72329 1.00128 0.33865 0.0
H1255 H 0.74621 0.06463 0.30113 0.0
C1256 C 0.80012 0.06923 0.32678 0.0
C1257 C 0.77519 0.94004 0.34954 0.0
C1258 C 0.7808 0.00506 0.28147 0.0
C1259 C 0.7175 0.93407 0.30972 0.0
H1260 H 0.80936 0.99257 0.36653 0.0
H1261 H 0.81802 0.06663 0.35516 0.0
H1262 H 0.83243 0.10148 0.30509 0.0
H1263 H 0.82767 0.05802 0.28158 0.0
H1264 H 0.73266 0.99263 0.26652 0.0
H1265 H 0.6987 0.95033 0.28164 0.0
H1266 H 0.70095 0.87953 0.33225 0.0
H1267 H 0.73329 0.88215 0.35389 0.0
H1268 H 0.68445 0.04299 0.33948 0.0
H1269 H 0.71119 0.11271 0.30339 0.0
H1270 H 0.81868 0.85704 0.30379 0.0
H1271 H 0.86124 0.96081 0.32008 0.0
C1272 C 1.00307 0.61096 0.08696 0.0
C1273 C 0.99269 0.65033 0.08912 0.0
C1274 C 0.9776 0.65881 0.07773 0.0
C1275 C 0.9801 0.62498 0.06906 0.0
N1276 N 0.9959 0.59553 0.07426 0.0
Co1277 Co 1.00834 0.54542 0.06408 0.0
N1278 N 0.9978 0.56952 0.04552 0.0
C1279 C 0.98154 0.60147 0.04353 0.0
C1280 C 0.97751 0.61115 0.02957 0.0
C1281 C 0.99184 0.58319 0.02222 0.0
C1282 C 1.00376 0.55783 0.0322 0.0
N1283 N 1.02024 0.49535 0.05379 0.0
C1284 C 0.02338 0.48907 0.03969 0.0
C1285 C 0.03092 0.44845 0.03705 0.0
C1286 C 0.03219 0.42858 0.04995 0.0
C1287 C 0.02538 0.4581 0.05975 0.0
N1288 N 1.01929 0.52305 0.08277 0.0
C1289 C 0.02487 0.48296 0.08562 0.0
C1290 C 0.03167 0.4767 0.09952 0.0
C1291 C 0.0302 0.51528 0.10577 0.0
C1292 C 0.02265 0.54311 0.09531 0.0
N1293 N 0.97422 0.5167 0.06618 0.0
C1294 C 0.9334 0.45703 0.06843 0.0
C1295 C 0.94603 0.47286 0.08046 0.0
C1296 C 0.96541 0.50348 0.07916 0.0
C1297 C 0.94079 0.47445 0.05537 0.0
C1298 C 0.9613 0.50289 0.05444 0.0
N1299 N 0.04295 0.57095 0.06205 0.0
C1300 C 0.08883 0.56239 0.06418 0.0
C1301 C 0.09331 0.60416 0.06068 0.0
C1302 C 0.07181 0.62905 0.05768 0.0
C1303 C 0.04687 0.6119 0.0584 0.0
C1304 C 0.06389 0.54659 0.06476 0.0
H1305 H 0.0308 0.63184 0.05614 0.0
H1306 H 0.06174 0.51435 0.06764 0.0
H1307 H 0.97393 0.51486 0.08877 0.0
H1308 H 0.96713 0.51205 0.04401 0.0
C1309 C 0.97326 0.6252 0.05486 0.0
C1310 C 1.01732 0.58775 0.09783 0.0
C1311 C 1.01758 0.51991 0.02855 0.0
C1312 C 0.0267 0.45387 0.07457 0.0
H1313 H 0.99569 0.67108 0.09795 0.0
H1314 H 0.96753 0.68757 0.07556 0.0
H1315 H 0.96596 0.63609 0.02526 0.0
H1316 H 0.99277 0.58104 0.01081 0.0
H1317 H 0.03471 0.43455 0.02684 0.0
H1318 H 0.03792 0.3967 0.05196 0.0
H1319 H 0.03771 0.44783 0.10445 0.0
H1320 H 0.03417 0.52218 0.11676 0.0
H1321 H 0.94117 0.46132 0.0909 0.0
H1322 H 0.93152 0.46457 0.0457 0.0
H1323 H 0.10465 0.54191 0.0666 0.0
H1324 H 0.07424 0.66161 0.05494 0.0
C1325 C 0.29318 0.65782 0.08684 0.0
C1326 C 0.3049 0.61915 0.08825 0.0
C1327 C 0.31917 0.61332 0.07637 0.0
C1328 C 0.31493 0.64794 0.06818 0.0
N1329 N 0.29881 0.67542 0.07414 0.0
Co1330 Co 0.2842 0.72582 0.06486 0.0
N1331 N 0.29361 0.70499 0.04574 0.0
C1332 C 0.31065 0.67473 0.04298 0.0
C1333 C 0.31388 0.66724 0.02884 0.0
C1334 C 0.29819 0.69493 0.02218 0.0
C1335 C 0.28628 0.71797 0.03272 0.0
N1336 N 0.26972 0.77599 0.05549 0.0
C1337 C 0.26476 0.78361 0.04158 0.0
C1338 C 0.25558 0.82377 0.0397 0.0
C1339 C 0.25527 0.84198 0.05286 0.0
C1340 C 0.26419 0.81201 0.06205 0.0
N1341 N 0.27501 0.74514 0.08414 0.0
C1342 C 0.26922 0.7846 0.08761 0.0
C1343 C 0.26364 0.78871 0.10177 0.0
C1344 C 0.26615 0.74937 0.10749 0.0
C1345 C 0.27303 0.72322 0.0965 0.0
N1346 N 0.3176 0.75668 0.06614 0.0
C1347 C 0.35714 0.81811 0.06819 0.0
C1348 C 0.3457 0.80831 0.05523 0.0
C1349 C 0.32644 0.77776 0.05443 0.0
C1350 C 0.34932 0.79438 0.08004 0.0
C1351 C 0.32974 0.76387 0.07879 0.0
N1352 N 0.2501 0.69828 0.06353 0.0
C1353 C 0.20427 0.70408 0.06673 0.0
C1354 C 0.20014 0.6638 0.06164 0.0
C1355 C 0.22181 0.64089 0.05748 0.0
C1356 C 0.24656 0.65863 0.05851 0.0
C1357 C 0.22901 0.72054 0.06755 0.0
H1358 H 0.26277 0.64036 0.05525 0.0
H1359 H 0.23086 0.75176 0.07148 0.0
H1360 H 0.31788 0.77288 0.04429 0.0
H1361 H 0.32376 0.74736 0.08821 0.0
C1362 C 0.3205 0.6502 0.05382 0.0
C1363 C 0.27884 0.67827 0.09827 0.0
C1364 C 0.27098 0.75514 0.02983 0.0
C1365 C 0.26502 0.81458 0.07693 0.0
H1366 H 0.30326 0.59703 0.09687 0.0
H1367 H 0.32985 0.58568 0.07359 0.0
H1368 H 0.32582 0.64388 0.02396 0.0
H1369 H 0.29636 0.69844 0.01083 0.0
H1370 H 0.25033 0.8386 0.02981 0.0
H1371 H 0.24895 0.87315 0.05541 0.0
H1372 H 0.25746 0.81656 0.10718 0.0
H1373 H 0.26316 0.74082 0.11846 0.0
H1374 H 0.35117 0.82505 0.04572 0.0
H1375 H 0.35777 0.80016 0.0903 0.0
H1376 H 0.18832 0.72299 0.07009 0.0
H1377 H 0.21964 0.60948 0.05352 0.0
C1378 C 1.00311 0.65133 0.16248 0.0
C1379 C 0.99266 0.61216 0.15998 0.0
C1380 C 0.97732 0.60306 0.1712 0.0
C1381 C 0.97973 0.63633 0.18012 0.0
N1382 N 0.99572 0.66605 0.17523 0.0
Co1383 Co 1.00799 0.71558 0.18582 0.0
N1384 N 0.99695 0.69042 0.20413 0.0
C1385 C 0.98078 0.65815 0.20582 0.0
C1386 C 0.97655 0.64756 0.21968 0.0
C1387 C 0.99067 0.67521 0.2273 0.0
C1388 C 1.00265 0.70133 0.21756 0.0
N1389 N 1.01961 0.76512 0.19651 0.0
C1390 C 0.02221 0.7707 0.21067 0.0
C1391 C 0.02966 0.8112 0.21365 0.0
C1392 C 0.03147 0.83169 0.20087 0.0
C1393 C 0.02504 0.80265 0.19083 0.0
N1394 N 1.01975 0.73879 0.16738 0.0
C1395 C 0.02584 0.77889 0.16485 0.0
C1396 C 0.03318 0.78575 0.15106 0.0
C1397 C 0.03158 0.74755 0.14455 0.0
C1398 C 0.02338 0.71935 0.15475 0.0
N1399 N 0.97406 0.74463 0.1836 0.0
C1400 C 0.93477 0.80692 0.18197 0.0
C1401 C 0.94862 0.79413 0.16997 0.0
C1402 C 0.96686 0.76179 0.17085 0.0
C1403 C 0.9399 0.78483 0.19456 0.0
C1404 C 0.95988 0.75543 0.19527 0.0
N1405 N 0.04237 0.68994 0.18805 0.0
C1406 C 0.08823 0.69886 0.18653 0.0
C1407 C 0.09249 0.65691 0.18971 0.0
C1408 C 0.07098 0.63165 0.19226 0.0
C1409 C 0.04611 0.64875 0.19139 0.0
C1410 C 0.06338 0.71458 0.1858 0.0
H1411 H 0.02996 0.62863 0.19329 0.0
H1412 H 0.06137 0.74701 0.18319 0.0
H1413 H 0.97588 0.75245 0.16114 0.0
H1414 H 0.9642 0.74312 0.20556 0.0
C1415 C 0.97267 0.63516 0.19427 0.0
C1416 C 1.0177 0.67501 0.15188 0.0
C1417 C 1.01626 0.73916 0.22154 0.0
C1418 C 0.02719 0.80751 0.17606 0.0
H1419 H 0.99581 0.59192 0.15103 0.0
H1420 H 0.96715 0.5742 0.1731 0.0
H1421 H 0.965 0.62225 0.22376 0.0
H1422 H 0.99142 0.67666 0.23873 0.0
H1423 H 0.03313 0.82455 0.22397 0.0
H1424 H 0.03737 0.86363 0.19912 0.0
H1425 H 0.0396 0.81476 0.14638 0.0
H1426 H 0.03585 0.74116 0.13357 0.0
H1427 H 0.94557 0.80923 0.15983 0.0
H1428 H 0.92942 0.79185 0.20412 0.0
H1429 H 0.10414 0.71953 0.18447 0.0
H1430 H 0.07336 0.59891 0.19474 0.0
C1431 C 0.29129 0.60501 0.16271 0.0
C1432 C 0.30274 0.64374 0.16073 0.0
C1433 C 0.31694 0.65141 0.17249 0.0
C1434 C 0.31293 0.61776 0.18117 0.0
N1435 N 0.29706 0.58903 0.17563 0.0
Co1436 Co 0.28323 0.53899 0.18563 0.0
N1437 N 0.29315 0.56203 0.2044 0.0
C1438 C 0.30914 0.59419 0.20671 0.0
C1439 C 0.31252 0.60331 0.22072 0.0
C1440 C 0.29801 0.57482 0.22781 0.0
C1441 C 0.28667 0.54969 0.21762 0.0
N1442 N 0.27013 0.48889 0.19567 0.0
C1443 C 0.26687 0.48166 0.20974 0.0
C1444 C 0.25855 0.44123 0.21216 0.0
C1445 C 0.25684 0.42246 0.19915 0.0
C1446 C 0.26419 0.45237 0.18951 0.0
N1447 N 0.27232 0.51832 0.16668 0.0
C1448 C 0.26514 0.479 0.16374 0.0
C1449 C 0.25844 0.47392 0.14978 0.0
C1450 C 0.26156 0.51248 0.14358 0.0
C1451 C 0.26998 0.53913 0.15411 0.0
N1452 N 0.31698 0.50835 0.18403 0.0
C1453 C 0.35527 0.44376 0.18391 0.0
C1454 C 0.34102 0.45432 0.17176 0.0
C1455 C 0.32356 0.48789 0.1718 0.0
C1456 C 0.35103 0.46916 0.19579 0.0
C1457 C 0.33146 0.49948 0.19584 0.0
N1458 N 0.2491 0.56583 0.18735 0.0
C1459 C 0.20319 0.55837 0.18542 0.0
C1460 C 0.19924 0.59986 0.18919 0.0
C1461 C 0.22095 0.62424 0.19213 0.0
C1462 C 0.24568 0.60666 0.19116 0.0
C1463 C 0.22789 0.54216 0.1846 0.0
H1464 H 0.26197 0.62605 0.19344 0.0
H1465 H 0.22958 0.51008 0.18162 0.0
H1466 H 0.31479 0.4956 0.16185 0.0
H1467 H 0.32792 0.51417 0.20581 0.0
C1468 C 0.31845 0.61779 0.19553 0.0
C1469 C 0.27684 0.58337 0.15161 0.0
C1470 C 0.27276 0.51157 0.22104 0.0
C1471 C 0.26257 0.44937 0.17468 0.0
H1472 H 0.30086 0.66479 0.15182 0.0
H1473 H 0.32735 0.67966 0.17487 0.0
H1474 H 0.32389 0.62806 0.22524 0.0
H1475 H 0.2966 0.57215 0.23921 0.0
H1476 H 0.2544 0.42682 0.22228 0.0
H1477 H 0.2504 0.39108 0.19697 0.0
H1478 H 0.25151 0.44585 0.14477 0.0
H1479 H 0.25809 0.52015 0.13258 0.0
H1480 H 0.34323 0.43669 0.1621 0.0
H1481 H 0.36193 0.46428 0.20539 0.0
H1482 H 0.18713 0.53838 0.18303 0.0
H1483 H 0.21882 0.65663 0.19506 0.0
C1484 C 0.02476 0.46834 0.90159 0.0
C1485 C 1.01817 0.49473 0.89052 0.0
C1486 C 1.01639 0.53418 0.8961 0.0
C1487 C 0.02208 0.52985 0.91025 0.0
N1488 N 0.02724 0.49014 0.91384 0.0
Co1489 Co 0.03653 0.47031 0.93307 0.0
N1490 N 0.02284 0.52094 0.94231 0.0
C1491 C 1.01762 0.55721 0.93572 0.0
C1492 C 1.00855 0.58695 0.94486 0.0
C1493 C 1.00843 0.56827 0.958 0.0
C1494 C 1.01754 0.5281 0.95617 0.0
N1495 N 0.04624 0.44931 0.95214 0.0
C1496 C 0.03927 0.46251 0.96513 0.0
C1497 C 0.0514 0.43958 0.9757 0.0
C1498 C 0.06684 0.41166 0.96906 0.0
C1499 C 0.06325 0.41893 0.95491 0.0
N1500 N 0.05026 0.4194 0.92395 0.0
C1501 C 0.06634 0.39158 0.92985 0.0
C1502 C 0.07006 0.35691 0.9217 0.0
C1503 C 0.05551 0.3632 0.90992 0.0
C1504 C 0.04415 0.40211 0.91135 0.0
N1505 N 0.07023 0.49948 0.93139 0.0
C1506 C 0.11147 0.55688 0.92821 0.0
C1507 C 0.10323 0.53182 0.91688 0.0
C1508 C 0.08275 0.50335 0.91869 0.0
C1509 C 0.09947 0.55063 0.94129 0.0
C1510 C 0.07929 0.52194 0.94266 0.0
N1511 N 1.00215 0.44408 0.93471 0.0
C1512 C 0.97328 0.38747 0.94083 0.0
C1513 C 0.9519 0.41113 0.93665 0.0
C1514 C 0.95643 0.45141 0.93155 0.0
C1515 C 0.98132 0.46709 0.93069 0.0
C1516 C 0.99821 0.40448 0.93979 0.0
H1517 H 0.98352 0.49829 0.9267 0.0
H1518 H 1.01424 0.38567 0.94305 0.0
H1519 H 0.07643 0.48569 0.90964 0.0
H1520 H 0.07028 0.5195 0.95283 0.0
C1521 C 1.01839 0.56 0.92084 0.0
C1522 C 0.02986 0.42325 0.90001 0.0
C1523 C 0.02368 0.49929 0.9679 0.0
C1524 C 0.07256 0.39393 0.94412 0.0
H1525 H 1.0149 0.48628 0.87959 0.0
H1526 H 1.01058 0.56229 0.89061 0.0
H1527 H 1.00231 0.6182 0.94226 0.0
H1528 H 1.00297 0.58282 0.96785 0.0
H1529 H 0.04974 0.44314 0.98705 0.0
H1530 H 0.07877 0.38818 0.97397 0.0
H1531 H 0.08066 0.32909 0.92443 0.0
H1532 H 0.05353 0.3413 0.90133 0.0
H1533 H 0.11208 0.53502 0.90658 0.0
H1534 H 0.10527 0.56866 0.9504 0.0
H1535 H 0.97076 0.35603 0.94481 0.0
H1536 H 0.94069 0.47084 0.92817 0.0
C1537 C 0.78489 0.2774 0.90322 0.0
C1538 C 0.79943 0.25199 0.89457 0.0
C1539 C 0.80082 0.21368 0.90116 0.0
C1540 C 0.78773 0.21782 0.91369 0.0
N1541 N 0.77838 0.25651 0.91532 0.0
Co1542 Co 0.76453 0.27978 0.93319 0.0
N1543 N 0.77848 0.23389 0.94497 0.0
C1544 C 0.78608 0.19663 0.94006 0.0
C1545 C 0.79419 0.17042 0.9507 0.0
C1546 C 0.79115 0.19249 0.96304 0.0
C1547 C 0.78138 0.23111 0.95925 0.0
N1548 N 0.75097 0.3049 0.95082 0.0
C1549 C 0.75683 0.29715 0.96454 0.0
C1550 C 0.7422 0.32154 0.97353 0.0
C1551 C 0.72624 0.34454 0.96514 0.0
C1552 C 0.73207 0.33318 0.95155 0.0
N1553 N 0.74958 0.3249 0.92153 0.0
C1554 C 0.72936 0.34825 0.92514 0.0
C1555 C 0.72069 0.373 0.91429 0.0
C1556 C 0.73649 0.36469 0.90314 0.0
C1557 C 0.7542 0.3357 0.90793 0.0
N1558 N 0.7325 0.2464 0.93095 0.0
C1559 C 0.69077 0.18988 0.92829 0.0
C1560 C 0.70087 0.20033 0.94153 0.0
C1561 C 0.72141 0.22837 0.94261 0.0
C1562 C 0.70164 0.20953 0.91636 0.0
C1563 C 0.72233 0.23763 0.91791 0.0
N1564 N 0.7973 0.3107 0.93544 0.0
C1565 C 0.82295 0.37294 0.93906 0.0
C1566 C 0.84573 0.35017 0.93728 0.0
C1567 C 0.84352 0.30752 0.93483 0.0
C1568 C 0.81955 0.28867 0.93401 0.0
C1569 C 0.79892 0.35259 0.93813 0.0
H1570 H 0.81934 0.25584 0.932 0.0
H1571 H 0.78171 0.37069 0.93934 0.0
H1572 H 0.72871 0.23459 0.95298 0.0
H1573 H 0.73043 0.25154 0.9085 0.0
C1574 C 0.78963 0.19071 0.92542 0.0
C1575 C 0.77544 0.3198 0.89943 0.0
C1576 C 0.77322 0.26309 0.96947 0.0
C1577 C 0.72179 0.35082 0.93927 0.0
H1578 H 0.80817 0.26012 0.88457 0.0
H1579 H 0.81171 0.187 0.89769 0.0
H1580 H 0.8022 0.13954 0.9496 0.0
H1581 H 0.7954 0.18138 0.97361 0.0
H1582 H 0.74233 0.32158 0.98499 0.0
H1583 H 0.71217 0.36699 0.96855 0.0
H1584 H 0.70534 0.39547 0.91459 0.0
H1585 H 0.73526 0.37873 0.89272 0.0
H1586 H 0.69315 0.18631 0.95106 0.0
H1587 H 0.69446 0.20271 0.90588 0.0
H1588 H 0.82371 0.40617 0.94094 0.0
H1589 H 0.86042 0.28864 0.9334 0.0
C1590 C 1.0216 0.28428 0.84515 0.0
C1591 C 1.01474 0.25699 0.85592 0.0
C1592 C 1.01333 0.21796 0.84999 0.0
C1593 C 1.01946 0.22345 0.83596 0.0
N1594 N 0.02454 0.26348 0.83271 0.0
Co1595 Co 0.03452 0.2848 0.81369 0.0
N1596 N 0.02293 0.23344 0.80399 0.0
C1597 C 1.01845 0.1965 0.81034 0.0
C1598 C 1.01162 0.16598 0.80091 0.0
C1599 C 1.01217 0.18482 0.78781 0.0
C1600 C 1.01935 0.22589 0.78999 0.0
N1601 N 0.04398 0.30784 0.7948 0.0
C1602 C 0.03775 0.29477 0.78166 0.0
C1603 C 0.04892 0.31981 0.77132 0.0
C1604 C 0.06303 0.34904 0.77823 0.0
C1605 C 0.05962 0.34038 0.79231 0.0
N1606 N 0.04671 0.33617 0.82328 0.0
C1607 C 0.06192 0.36578 0.81761 0.0
C1608 C 0.0648 0.40001 0.82607 0.0
C1609 C 0.05063 0.39162 0.83782 0.0
C1610 C 0.04034 0.35199 0.83605 0.0
N1611 N 0.06901 0.2577 0.81564 0.0
C1612 C 0.1103 0.1994 0.81793 0.0
C1613 C 0.10268 0.21627 0.80482 0.0
C1614 C 0.08183 0.24386 0.80387 0.0
C1615 C 0.09773 0.21521 0.82994 0.0
C1616 C 0.07822 0.24539 0.82862 0.0
N1617 N 0.9996 0.30873 0.81184 0.0
C1618 C 0.96984 0.36527 0.8073 0.0
C1619 C 0.94887 0.33962 0.8107 0.0
C1620 C 0.954 0.29832 0.81446 0.0
C1621 C 0.97913 0.28367 0.81495 0.0
C1622 C 0.99501 0.34925 0.80791 0.0
H1623 H 0.98183 0.25175 0.81806 0.0
H1624 H 1.01071 0.36968 0.80535 0.0
H1625 H 0.07564 0.2522 0.79342 0.0
H1626 H 0.06989 0.25702 0.83823 0.0
C1627 C 1.01763 0.19344 0.8252 0.0
C1628 C 0.02691 0.32908 0.8473 0.0
C1629 C 0.02437 0.25598 0.77852 0.0
C1630 C 0.06805 0.36527 0.80332 0.0
H1631 H 1.01126 0.26452 0.86691 0.0
H1632 H 1.00783 0.18926 0.85523 0.0
H1633 H 1.00631 0.13409 0.80327 0.0
H1634 H 1.00815 0.16999 0.77779 0.0
H1635 H 0.04768 0.31662 0.75994 0.0
H1636 H 0.07405 0.37408 0.77355 0.0
H1637 H 0.07459 0.42883 0.82357 0.0
H1638 H 0.04818 0.41258 0.84665 0.0
H1639 H 0.11195 0.20643 0.79516 0.0
H1640 H 0.10275 0.20405 0.84041 0.0
H1641 H 0.96682 0.39752 0.80433 0.0
H1642 H 0.93855 0.27736 0.81718 0.0
C1643 C 0.78353 0.47248 0.84693 0.0
C1644 C 0.79851 0.49802 0.85532 0.0
C1645 C 0.79971 0.53616 0.8486 0.0
C1646 C 0.78607 0.53179 0.83626 0.0
N1647 N 0.77653 0.49309 0.83486 0.0
Co1648 Co 0.76185 0.46939 0.81725 0.0
N1649 N 0.77554 0.51481 0.80514 0.0
C1650 C 0.78366 0.55206 0.80984 0.0
C1651 C 0.79157 0.5778 0.79902 0.0
C1652 C 0.7878 0.55549 0.7868 0.0
C1653 C 0.77778 0.51723 0.79083 0.0
N1654 N 0.74736 0.44382 0.7999 0.0
C1655 C 0.7523 0.45157 0.78608 0.0
C1656 C 0.73704 0.4272 0.77738 0.0
C1657 C 0.7216 0.40423 0.78609 0.0
C1658 C 0.72835 0.41561 0.79954 0.0
N1659 N 0.74723 0.42475 0.82927 0.0
C1660 C 0.72678 0.40139 0.82602 0.0
C1661 C 0.71855 0.37699 0.83707 0.0
C1662 C 0.73489 0.38552 0.84797 0.0
C1663 C 0.75246 0.41428 0.84282 0.0
N1664 N 0.73012 0.50308 0.81972 0.0
C1665 C 0.68889 0.56011 0.82257 0.0
C1666 C 0.69844 0.54914 0.80927 0.0
C1667 C 0.71875 0.52086 0.80809 0.0
C1668 C 0.70002 0.54077 0.83448 0.0
C1669 C 0.72046 0.51237 0.83283 0.0
N1670 N 0.79437 0.43817 0.81468 0.0
C1671 C 0.81962 0.37591 0.81052 0.0
C1672 C 0.84253 0.39855 0.81206 0.0
C1673 C 0.84059 0.4411 0.81469 0.0
C1674 C 0.81674 0.46004 0.81588 0.0
C1675 C 0.79571 0.39634 0.81185 0.0
H1676 H 0.81675 0.49282 0.81795 0.0
H1677 H 0.77839 0.37839 0.81079 0.0
H1678 H 0.72565 0.51436 0.79767 0.0
H1679 H 0.72882 0.49867 0.84221 0.0
C1680 C 0.78772 0.55845 0.82441 0.0
C1681 C 0.77419 0.43017 0.85095 0.0
C1682 C 0.7684 0.48556 0.78081 0.0
C1683 C 0.71858 0.3984 0.81202 0.0
H1684 H 0.8077 0.49009 0.86521 0.0
H1685 H 0.81087 0.56285 0.85184 0.0
H1686 H 0.79985 0.60858 0.79992 0.0
H1687 H 0.7916 0.5663 0.77614 0.0
H1688 H 0.73639 0.4272 0.76593 0.0
H1689 H 0.70721 0.38192 0.78297 0.0
H1690 H 0.70314 0.35456 0.83707 0.0
H1691 H 0.73415 0.37173 0.85844 0.0
H1692 H 0.69049 0.56297 0.79977 0.0
H1693 H 0.69323 0.54807 0.845 0.0
H1694 H 0.82019 0.34274 0.80849 0.0
H1695 H 0.85761 0.45986 0.81593 0.0
C1696 C 0.53715 0.11602 0.11933 0.0
C1697 C 0.51359 0.10349 0.11325 0.0
C1698 C 0.49097 0.14768 0.13027 0.0
C1699 C 0.51409 0.15656 0.13744 0.0
N1700 N 0.55909 0.14368 0.13994 0.0
N1701 N 0.468 0.09875 0.11558 0.0
C1702 C 0.53722 0.13919 0.13228 0.0
C1703 C 0.49049 0.1164 0.11966 0.0
N1704 N 0.55939 0.10677 0.11256 0.0
N1705 N 0.46941 0.16928 0.1336 0.0
H1706 H 0.46709 0.07525 0.108 0.0
H1707 H 0.4508 0.10443 0.12071 0.0
H1708 H 0.46924 0.1929 0.14117 0.0
H1709 H 0.4525 0.16659 0.1279 0.0
H1710 H 0.57697 0.11887 0.11559 0.0
H1711 H 0.56001 0.08903 0.10333 0.0
H1712 H 0.57594 0.12812 0.13754 0.0
H1713 H 0.55988 0.16076 0.1493 0.0
C1714 C 0.75903 0.14311 0.13913 0.0
C1715 C 0.76328 0.09989 0.13665 0.0
C1716 C 0.75944 0.11581 0.1113 0.0
C1717 C 0.76289 0.15923 0.11382 0.0
N1718 N 0.77209 0.21166 0.13144 0.0
N1719 N 0.77327 0.04773 0.11909 0.0
C1720 C 0.76393 0.17254 0.12812 0.0
C1721 C 0.7646 0.08657 0.12235 0.0
N1722 N 0.7517 0.15623 0.15218 0.0
N1723 N 0.75269 0.10241 0.09817 0.0
H1724 H 0.77981 0.02679 0.12672 0.0
H1725 H 0.77654 0.03837 0.10869 0.0
H1726 H 0.74841 0.12338 0.09007 0.0
H1727 H 0.74875 0.07121 0.09599 0.0
H1728 H 0.74728 0.18726 0.15432 0.0
H1729 H 0.74738 0.13505 0.16021 0.0
H1730 H 0.77513 0.22105 0.14186 0.0
H1731 H 0.77846 0.23288 0.12384 0.0
C1732 C 0.5055 0.86692 0.86787 0.0
C1733 C 0.52909 0.85189 0.86251 0.0
C1734 C 0.55165 0.89562 0.87958 0.0
C1735 C 0.52846 0.90593 0.88639 0.0
N1736 N 0.48293 0.89738 0.88782 0.0
N1737 N 0.57406 0.84237 0.86663 0.0
C1738 C 0.50518 0.89051 0.88074 0.0
C1739 C 0.55198 0.86314 0.86947 0.0
N1740 N 0.48355 0.85952 0.86055 0.0
N1741 N 0.57345 0.91679 0.88278 0.0
H1742 H 0.57482 0.81726 0.85966 0.0
H1743 H 0.59083 0.84743 0.87228 0.0
H1744 H 0.57371 0.94161 0.88988 0.0
H1745 H 0.59046 0.91235 0.8773 0.0
H1746 H 0.46618 0.87316 0.86313 0.0
H1747 H 0.48311 0.84203 0.85127 0.0
H1748 H 0.46576 0.88332 0.88506 0.0
H1749 H 0.48203 0.91503 0.89706 0.0
C1750 C 0.28458 0.92258 0.87761 0.0
C1751 C 0.28545 0.90924 0.86329 0.0
C1752 C 0.28273 0.8368 0.87186 0.0
C1753 C 0.28444 0.84983 0.88618 0.0
N1754 N 0.29635 0.90592 0.90178 0.0
N1755 N 0.29552 0.85204 0.84778 0.0
C1756 C 0.28916 0.89297 0.88866 0.0
C1757 C 0.28871 0.86577 0.86085 0.0
N1758 N 0.27673 0.96184 0.88092 0.0
N1759 N 0.27237 0.79919 0.86846 0.0
H1760 H 0.30029 0.87281 0.83969 0.0
H1761 H 0.29894 0.82064 0.84568 0.0
H1762 H 0.26415 0.7795 0.87597 0.0
H1763 H 0.26908 0.79034 0.858 0.0
H1764 H 0.2738 0.97133 0.89134 0.0
H1765 H 0.27047 0.98312 0.87333 0.0
H1766 H 0.30109 0.93684 0.90392 0.0
H1767 H 0.30011 0.88473 0.90991 0.0
C1768 C 0.53829 0.61683 0.61732 0.0
C1769 C 0.51446 0.60364 0.61173 0.0
C1770 C 0.49255 0.64525 0.62971 0.0
C1771 C 0.51603 0.65416 0.63646 0.0
N1772 N 0.56144 0.64422 0.63759 0.0
N1773 N 0.46925 0.59594 0.61541 0.0
C1774 C 0.53904 0.63887 0.63049 0.0
C1775 C 0.4917 0.61488 0.61885 0.0
N1776 N 0.5601 0.60897 0.60995 0.0
N1777 N 0.47095 0.66554 0.63382 0.0
H1778 H 0.46808 0.57252 0.60781 0.0
H1779 H 0.45248 0.60045 0.62109 0.0
H1780 H 0.47105 0.6884 0.64165 0.0
H1781 H 0.45366 0.66264 0.62849 0.0
H1782 H 0.57774 0.62144 0.61268 0.0
H1783 H 0.56022 0.59203 0.60055 0.0
H1784 H 0.57842 0.62997 0.63463 0.0
H1785 H 0.56265 0.66099 0.64701 0.0
C1786 C 0.79892 0.615 0.62998 0.0
C1787 C 0.7761 0.6044 0.63717 0.0
C1788 C 0.75182 0.6407 0.61845 0.0
C1789 C 0.77498 0.65555 0.61246 0.0
N1790 N 0.82014 0.66628 0.61537 0.0
N1791 N 0.73052 0.61082 0.63903 0.0
C1792 C 0.79837 0.64587 0.61922 0.0
C1793 C 0.75238 0.61827 0.63161 0.0
N1794 N 0.82116 0.59529 0.63335 0.0
N1795 N 0.72944 0.64713 0.61141 0.0
H1796 H 0.73028 0.59368 0.64844 0.0
H1797 H 0.713 0.62377 0.63632 0.0
H1798 H 0.72839 0.66426 0.60201 0.0
H1799 H 0.71229 0.63338 0.6144 0.0
H1800 H 0.83792 0.59952 0.62761 0.0
H1801 H 0.8221 0.57158 0.64093 0.0
H1802 H 0.83731 0.66269 0.62078 0.0
H1803 H 0.82028 0.6899 0.60775 0.0
C1804 C 0.50986 0.37591 0.38772 0.0
C1805 C 0.51377 0.41924 0.38526 0.0
C1806 C 0.51064 0.40356 0.35987 0.0
C1807 C 0.51417 0.36013 0.36251 0.0
N1808 N 0.52673 0.30985 0.38041 0.0
N1809 N 0.52538 0.47092 0.36762 0.0
C1810 C 0.51598 0.34713 0.37686 0.0
C1811 C 0.51574 0.43265 0.37092 0.0
N1812 N 0.50256 0.36203 0.40074 0.0
N1813 N 0.50394 0.41725 0.34671 0.0
H1814 H 0.53278 0.49096 0.37522 0.0
H1815 H 0.52887 0.4802 0.3572 0.0
H1816 H 0.49973 0.3967 0.3385 0.0
H1817 H 0.50014 0.44857 0.34457 0.0
H1818 H 0.49894 0.33059 0.40282 0.0
H1819 H 0.49768 0.38269 0.40877 0.0
H1820 H 0.52997 0.30112 0.39091 0.0
H1821 H 0.53529 0.29053 0.37296 0.0
C1822 C 0.28777 0.37103 0.36185 0.0
C1823 C 0.28262 0.4141 0.36427 0.0
C1824 C 0.28737 0.3988 0.38957 0.0
C1825 C 0.28463 0.35516 0.38729 0.0
N1826 N 0.27675 0.30166 0.36985 0.0
N1827 N 0.26971 0.4643 0.38194 0.0
C1828 C 0.28381 0.34145 0.373 0.0
C1829 C 0.28076 0.42723 0.37856 0.0
N1830 N 0.29495 0.3581 0.34873 0.0
N1831 N 0.29443 0.41316 0.40251 0.0
H1832 H 0.26096 0.48337 0.37443 0.0
H1833 H 0.2664 0.4731 0.39239 0.0
H1834 H 0.29998 0.39272 0.4105 0.0
H1835 H 0.2974 0.44476 0.4045 0.0
H1836 H 0.30008 0.32733 0.34663 0.0
H1837 H 0.29829 0.3792 0.34051 0.0
H1838 H 0.27381 0.29174 0.35948 0.0
H1839 H 0.2712 0.28016 0.37754 0.0
C1840 C 0.02869 0.08491 0.62806 0.0
C1841 C 0.03004 0.09705 0.61359 0.0
C1842 C 0.02869 0.17007 0.62135 0.0
C1843 C 0.03058 0.15791 0.63579 0.0
N1844 N 0.04186 0.10214 0.65185 0.0
N1845 N 0.04087 0.1528 0.59741 0.0
C1846 C 0.0346 0.11477 0.63868 0.0
C1847 C 0.03405 0.14019 0.61066 0.0
N1848 N 1.01857 0.04743 0.63194 0.0
N1849 N 1.01859 0.20765 0.61759 0.0
H1850 H 0.04516 0.13136 0.58952 0.0
H1851 H 0.04476 0.18392 0.59498 0.0
H1852 H 1.01058 0.22791 0.62493 0.0
H1853 H 1.01522 0.21586 0.60706 0.0
H1854 H 1.01561 0.03924 0.64251 0.0
H1855 H 1.01015 0.02727 0.6247 0.0
H1856 H 0.04573 0.07099 0.65425 0.0
H1857 H 0.04648 0.12355 0.65971 0.0
C1858 C 0.25623 0.11118 0.61088 0.0
C1859 C 0.26097 0.15431 0.61344 0.0
C1860 C 0.2574 0.13774 0.63876 0.0
C1861 C 0.26019 0.09421 0.6362 0.0
N1862 N 0.26957 0.04258 0.61834 0.0
N1863 N 0.27435 0.20394 0.6312 0.0
C1864 C 0.26112 0.08135 0.62183 0.0
C1865 C 0.26336 0.16681 0.62779 0.0
N1866 N 0.24873 0.0984 0.5978 0.0
N1867 N 0.25099 0.15144 0.65189 0.0
H1868 H 0.28264 0.22347 0.62366 0.0
H1869 H 0.27809 0.21237 0.64165 0.0
H1870 H 0.24618 0.1307 0.65998 0.0
H1871 H 0.24791 0.1829 0.65406 0.0
H1872 H 0.24405 0.06744 0.59566 0.0
H1873 H 0.24473 0.1196 0.5897 0.0
H1874 H 0.27241 0.03353 0.60787 0.0
H1875 H 0.27667 0.02165 0.62582 0.0
C1876 C 0.04973 0.87246 0.37041 0.0
C1877 C 0.02669 0.86071 0.36367 0.0
C1878 C 1.00292 0.8992 0.38196 0.0
C1879 C 0.02623 0.91455 0.38754 0.0
N1880 N 0.07126 0.92509 0.38421 0.0
N1881 N 0.98107 0.86681 0.36209 0.0
C1882 C 0.04943 0.90443 0.38071 0.0
C1883 C 1.00312 0.87521 0.36919 0.0
N1884 N 0.07196 0.85283 0.36702 0.0
N1885 N 0.98074 0.90668 0.38902 0.0
H1886 H 0.9806 0.84842 0.35301 0.0
H1887 H 0.9636 0.88003 0.3647 0.0
H1888 H 0.98001 0.92536 0.39802 0.0
H1889 H 0.96348 0.89269 0.38642 0.0
H1890 H 0.08894 0.85787 0.37246 0.0
H1891 H 0.07272 0.82847 0.35976 0.0
H1892 H 0.08834 0.92118 0.37875 0.0
H1893 H 0.07154 0.94915 0.3916 0.0
C1894 C 0.78704 0.89575 0.38701 0.0
C1895 C 0.78341 0.85243 0.38469 0.0
C1896 C 0.78568 0.86792 0.35922 0.0
C1897 C 0.78189 0.91125 0.36181 0.0
N1898 N 0.76986 0.96168 0.37961 0.0
N1899 N 0.77402 0.79902 0.36746 0.0
C1900 C 0.78048 0.92436 0.37611 0.0
C1901 C 0.78171 0.83862 0.37045 0.0
N1902 N 0.79462 0.90967 0.39992 0.0
N1903 N 0.79198 0.8546 0.346 0.0
H1904 H 0.76882 0.77767 0.37528 0.0
H1905 H 0.77039 0.78908 0.35716 0.0
H1906 H 0.7954 0.87536 0.33768 0.0
H1907 H 0.79632 0.82354 0.34384 0.0
H1908 H 0.79809 0.94114 0.40191 0.0
H1909 H 0.79997 0.88895 0.4079 0.0
H1910 H 0.76688 0.97046 0.3901 0.0
H1911 H 0.76121 0.9811 0.37215 0.0
C1912 C 0.99597 0.64786 0.13007 0.0
C1913 C 1.0191 0.65717 0.13712 0.0
C1914 C 0.04232 0.6202 0.11826 0.0
C1915 C 1.01879 0.6065 0.11246 0.0
N1916 N 0.97358 0.59757 0.11573 0.0
N1917 N 0.06457 0.64878 0.13867 0.0
C1918 C 0.99575 0.61703 0.11939 0.0
C1919 C 0.04245 0.64242 0.1314 0.0
N1920 N 0.97413 0.66824 0.1337 0.0
N1921 N 0.06441 0.61279 0.1111 0.0
H1922 H 0.06527 0.66608 0.14799 0.0
H1923 H 0.08181 0.63506 0.13589 0.0
H1924 H 0.06493 0.59553 0.10178 0.0
H1925 H 0.08187 0.62568 0.11397 0.0
H1926 H 0.95712 0.66482 0.12813 0.0
H1927 H 0.97381 0.69165 0.14133 0.0
H1928 H 0.95658 0.60187 0.12123 0.0
H1929 H 0.97291 0.57403 0.10815 0.0
C1930 C 0.25285 0.61927 0.13122 0.0
C1931 C 0.27593 0.60332 0.13699 0.0
C1932 C 0.29992 0.64454 0.11956 0.0
C1933 C 0.27712 0.65643 0.11256 0.0
N1934 N 0.23147 0.65081 0.11092 0.0
N1935 N 0.32085 0.59162 0.13369 0.0
C1936 C 0.25339 0.64256 0.11818 0.0
C1937 C 0.29924 0.61279 0.13008 0.0
N1938 N 0.23056 0.61317 0.13836 0.0
N1939 N 0.32232 0.6639 0.11624 0.0
H1940 H 0.32086 0.5676 0.14118 0.0
H1941 H 0.33796 0.5951 0.12821 0.0
H1942 H 0.32337 0.68819 0.10887 0.0
H1943 H 0.33914 0.65871 0.12183 0.0
H1944 H 0.21353 0.62766 0.13556 0.0
H1945 H 0.2295 0.59547 0.14763 0.0
H1946 H 0.2139 0.63799 0.11364 0.0
H1947 H 0.23121 0.66845 0.10162 0.0
C1948 C 0.04983 0.3587 0.86836 0.0
C1949 C 0.02634 0.34858 0.86182 0.0
C1950 C 1.00406 0.38759 0.88055 0.0
C1951 C 0.02787 0.40186 0.88583 0.0
N1952 N 0.07293 0.4102 0.88184 0.0
N1953 N 0.98081 0.3567 0.86089 0.0
C1954 C 0.05059 0.39045 0.87873 0.0
C1955 C 1.00329 0.3639 0.86772 0.0
N1956 N 0.07152 0.33817 0.86454 0.0
N1957 N 0.98231 0.39594 0.88792 0.0
H1958 H 0.97964 0.33834 0.85183 0.0
H1959 H 0.96369 0.37072 0.86375 0.0
H1960 H 0.98223 0.41417 0.89704 0.0
H1961 H 0.96471 0.38286 0.88547 0.0
H1962 H 0.08882 0.3421 0.86978 0.0
H1963 H 0.07149 0.3142 0.85711 0.0
H1964 H 0.08966 0.40539 0.87614 0.0
H1965 H 0.07401 0.43443 0.88915 0.0
C1966 C 0.7877 0.38953 0.88886 0.0
C1967 C 0.78364 0.34609 0.88675 0.0
C1968 C 0.78688 0.36044 0.8613 0.0
C1969 C 0.78306 0.4039 0.86348 0.0
N1970 N 0.77171 0.45588 0.88091 0.0
N1971 N 0.77116 0.29416 0.86953 0.0
C1972 C 0.78177 0.41793 0.87771 0.0
C1973 C 0.78151 0.33207 0.87255 0.0
N1974 N 0.79507 0.40389 0.90178 0.0
N1975 N 0.79348 0.34604 0.84827 0.0
H1976 H 0.76315 0.27496 0.87725 0.0
H1977 H 0.76763 0.28461 0.85917 0.0
H1978 H 0.79765 0.36629 0.83992 0.0
H1979 H 0.79722 0.31459 0.84641 0.0
H1980 H 0.79898 0.43533 0.90357 0.0
H1981 H 0.79965 0.38363 0.91006 0.0
H1982 H 0.76878 0.46544 0.89132 0.0
H1983 H 0.76331 0.47511 0.87332 0.0
C1984 C 0.36901 0.8945 0.07311 0.0
C1985 C 0.37668 0.85356 0.06909 0.0
C1986 C 0.42067 0.88072 0.06559 0.0
C1987 C 0.41251 0.92233 0.06835 0.0
N1988 N 0.3779 0.96918 0.0732 0.0
N1989 N 0.40959 0.80874 0.06012 0.0
C1990 C 0.3864 0.92917 0.0718 0.0
C1991 C 0.40248 0.8471 0.06495 0.0
N1992 N 0.34498 0.90029 0.07828 0.0
N1993 N 0.44612 0.87297 0.06409 0.0
H1994 H 0.39738 0.78307 0.0602 0.0
H1995 H 0.42697 0.80288 0.05524 0.0
H1996 H 0.45991 0.89633 0.0646 0.0
H1997 H 0.45386 0.84315 0.06357 0.0
H1998 H 0.33886 0.92789 0.08293 0.0
H1999 H 0.33154 0.87639 0.07888 0.0
H2000 H 0.35877 0.97715 0.07411 0.0
H2001 H 0.38989 0.99501 0.07237 0.0
C2002 C 0.89225 0.35959 0.05919 0.0
C2003 C 0.87429 0.35749 0.07052 0.0
C2004 C 0.89293 0.42359 0.07946 0.0
C2005 C 0.91313 0.42231 0.06936 0.0
N2006 N 0.93512 0.37905 0.05237 0.0
N2007 N 0.86403 0.38271 0.09391 0.0
C2008 C 0.9137 0.38733 0.06004 0.0
C2009 C 0.87659 0.38808 0.08139 0.0
N2010 N 0.88842 0.33689 0.0472 0.0
N2011 N 0.88823 0.45931 0.08678 0.0
H2012 H 0.85352 0.35595 0.09624 0.0
H2013 H 0.86673 0.40238 0.10254 0.0
H2014 H 0.89813 0.48698 0.08494 0.0
H2015 H 0.87246 0.46269 0.09338 0.0
H2016 H 0.89984 0.34019 0.03824 0.0
H2017 H 0.87221 0.31878 0.04556 0.0
H2018 H 0.93712 0.35213 0.04633 0.0
H2019 H 0.95191 0.3961 0.05346 0.0
C2020 C 0.3982 0.35179 0.19714 0.0
C2021 C 0.41041 0.33799 0.18448 0.0
C2022 C 0.38966 0.39729 0.17221 0.0
C2023 C 0.37426 0.40698 0.18418 0.0
N2024 N 0.35909 0.37997 0.2067 0.0
N2025 N 0.40771 0.34058 0.15888 0.0
C2026 C 0.37707 0.38023 0.19628 0.0
C2027 C 0.40294 0.35847 0.17168 0.0
N2028 N 0.40725 0.34004 0.21008 0.0
N2029 N 0.39321 0.42576 0.16163 0.0
H2030 H 0.41515 0.31055 0.15799 0.0
H2031 H 0.40124 0.3536 0.1494 0.0
H2032 H 0.38678 0.45641 0.16232 0.0
H2033 H 0.40556 0.42032 0.15318 0.0
H2034 H 0.39987 0.35198 0.21948 0.0
H2035 H 0.42391 0.3229 0.2114 0.0
H2036 H 0.3597 0.35901 0.21517 0.0
H2037 H 0.34204 0.39639 0.20586 0.0
C2038 C 0.88397 0.88587 0.16846 0.0
C2039 C 0.87856 0.91058 0.18063 0.0
C2040 C 0.91401 0.87329 0.1925 0.0
C2041 C 0.91545 0.843 0.18146 0.0
N2042 N 0.89427 0.81644 0.16057 0.0
N2043 N 0.88555 0.91738 0.20588 0.0
C2044 C 0.89829 0.84815 0.16988 0.0
C2045 C 0.89279 0.90142 0.19314 0.0
N2046 N 0.87636 0.89884 0.15535 0.0
N2047 N 0.93334 0.87702 0.20207 0.0
H2048 H 0.86896 0.93468 0.20722 0.0
H2049 H 0.89437 0.90882 0.21535 0.0
H2050 H 0.95031 0.86039 0.20124 0.0
H2051 H 0.93374 0.90058 0.20964 0.0
H2052 H 0.88142 0.88303 0.14615 0.0
H2053 H 0.86796 0.92787 0.1536 0.0
H2054 H 0.8806 0.81824 0.15258 0.0
H2055 H 0.90197 0.78678 0.16199 0.0
C2056 C 0.67438 0.11487 0.92986 0.0
C2057 C 0.66939 0.15785 0.92714 0.0
C2058 C 0.62394 0.13987 0.92321 0.0
C2059 C 0.62851 0.09777 0.92736 0.0
N2060 N 0.65787 0.04628 0.93617 0.0
N2061 N 0.63857 0.21194 0.92281 0.0
C2062 C 0.65373 0.0856 0.93104 0.0
C2063 C 0.64393 0.17043 0.92415 0.0
N2064 N 0.69906 0.10174 0.93093 0.0
N2065 N 0.60048 0.15052 0.91809 0.0
H2066 H 0.65254 0.23502 0.9233 0.0
H2067 H 0.62017 0.22382 0.92227 0.0
H2068 H 0.58547 0.12931 0.91739 0.0
H2069 H 0.59645 0.17928 0.91344 0.0
H2070 H 0.70434 0.07047 0.9314 0.0
H2071 H 0.71455 0.12199 0.93009 0.0
H2072 H 0.67499 0.03672 0.94066 0.0
H2073 H 0.64351 0.02386 0.93687 0.0
C2074 C 0.14434 0.66407 0.92242 0.0
C2075 C 0.17016 0.65514 0.92596 0.0
C2076 C 0.15769 0.58159 0.9307 0.0
C2077 C 0.13212 0.59009 0.92658 0.0
N2078 N 0.10193 0.63833 0.91657 0.0
N2079 N 0.20213 0.60352 0.93107 0.0
C2080 C 0.12578 0.63103 0.9218 0.0
C2081 C 0.17697 0.61329 0.92942 0.0
N2082 N 0.13724 0.70459 0.92027 0.0
N2083 N 0.16351 0.54326 0.93618 0.0
H2084 H 0.21666 0.62557 0.93015 0.0
H2085 H 0.20889 0.57316 0.93213 0.0
H2086 H 0.15038 0.51886 0.93666 0.0
H2087 H 0.18076 0.5363 0.94106 0.0
H2088 H 0.11842 0.71424 0.9193 0.0
H2089 H 0.15016 0.7293 0.92048 0.0
H2090 H 0.0967 0.66581 0.91144 0.0
H2091 H 0.0877 0.61563 0.91642 0.0
C2092 C 0.6226 0.61123 0.82772 0.0
C2093 C 0.62742 0.65299 0.82328 0.0
C2094 C 0.67312 0.63521 0.82078 0.0
C2095 C 0.66784 0.59247 0.82376 0.0
N2096 N 0.63675 0.539 0.82851 0.0
N2097 N 0.65699 0.70362 0.81405 0.0
C2098 C 0.64236 0.58036 0.8269 0.0
C2099 C 0.65266 0.66466 0.81946 0.0
N2100 N 0.59914 0.60122 0.833 0.0
N2101 N 0.69788 0.64791 0.81957 0.0
H2102 H 0.64276 0.72617 0.81321 0.0
H2103 H 0.67414 0.71268 0.80946 0.0
H2104 H 0.71323 0.62747 0.82052 0.0
H2105 H 0.70336 0.67907 0.81889 0.0
H2106 H 0.59499 0.57277 0.83784 0.0
H2107 H 0.58429 0.6227 0.83364 0.0
H2108 H 0.61828 0.52741 0.82916 0.0
H2109 H 0.65057 0.5157 0.82814 0.0
C2110 C 0.15045 0.16646 0.82931 0.0
C2111 C 0.13075 0.16521 0.81892 0.0
C2112 C 0.15257 0.10371 0.8087 0.0
C2113 C 0.16982 0.10123 0.82036 0.0
N2114 N 0.1781 0.1249 0.84421 0.0
N2115 N 0.10974 0.12181 0.80154 0.0
C2116 C 0.16662 0.131 0.83141 0.0
C2117 C 0.13081 0.1306 0.80944 0.0
N2118 N 0.1549 0.20207 0.83676 0.0
N2119 N 0.15737 0.08234 0.79654 0.0
H2120 H 0.09263 0.13795 0.80262 0.0
H2121 H 0.10837 0.09514 0.79531 0.0
H2122 H 0.17401 0.06534 0.79494 0.0
H2123 H 0.1463 0.08597 0.78745 0.0
H2124 H 0.1703 0.20514 0.84365 0.0
H2125 H 0.14534 0.22991 0.83471 0.0
H2126 H 0.17474 0.14423 0.85286 0.0
H2127 H 0.18824 0.09788 0.84666 0.0
C2128 C 0.41699 0.37516 0.57594 0.0
C2129 C 0.41087 0.41623 0.57121 0.0
C2130 C 0.36569 0.39418 0.56898 0.0
C2131 C 0.37222 0.35214 0.57236 0.0
N2132 N 0.40494 0.30187 0.57755 0.0
N2133 N 0.37958 0.46375 0.56192 0.0
C2134 C 0.3981 0.34257 0.57555 0.0
C2135 C 0.38523 0.42535 0.5674 0.0
N2136 N 0.44094 0.3673 0.58094 0.0
N2137 N 0.34057 0.40469 0.56772 0.0
H2138 H 0.39294 0.48775 0.5612 0.0
H2139 H 0.36219 0.47109 0.55726 0.0
H2140 H 0.32585 0.38309 0.56891 0.0
H2141 H 0.33411 0.43525 0.56675 0.0
H2142 H 0.44607 0.3397 0.58603 0.0
H2143 H 0.45536 0.38967 0.58094 0.0
H2144 H 0.42372 0.29182 0.57828 0.0
H2145 H 0.39182 0.27745 0.57745 0.0
C2146 C 0.87112 0.88134 0.57581 0.0
C2147 C 0.87696 0.84022 0.57117 0.0
C2148 C 0.92237 0.86106 0.56925 0.0
C2149 C 0.91615 0.90318 0.57254 0.0
N2150 N 0.88383 0.95426 0.57743 0.0
N2151 N 0.90797 0.79203 0.56215 0.0
C2152 C 0.89031 0.91342 0.57552 0.0
C2153 C 0.90258 0.83046 0.56755 0.0
N2154 N 0.84714 0.88972 0.58064 0.0
N2155 N 0.94742 0.84995 0.56817 0.0
H2156 H 0.89436 0.76845 0.56131 0.0
H2157 H 0.9254 0.78429 0.55764 0.0
H2158 H 0.96231 0.87116 0.56944 0.0
H2159 H 0.95361 0.81925 0.56727 0.0
H2160 H 0.84216 0.91736 0.58566 0.0
H2161 H 0.83251 0.8677 0.58058 0.0
H2162 H 0.86513 0.9648 0.57799 0.0
H2163 H 0.89719 0.97833 0.57742 0.0
C2164 C 0.39583 0.83729 0.66983 0.0
C2165 C 0.4087 0.82614 0.68264 0.0
C2166 C 0.37956 0.87555 0.69469 0.0
C2167 C 0.37086 0.89277 0.68155 0.0
N2168 N 0.3795 0.8955 0.65636 0.0
N2169 N 0.41635 0.84775 0.70687 0.0
C2170 C 0.38155 0.87525 0.66903 0.0
C2171 C 0.40159 0.84898 0.695 0.0
N2172 N 0.39594 0.81101 0.65853 0.0
N2173 N 0.36637 0.88246 0.70688 0.0
H2174 H 0.43408 0.83324 0.70717 0.0
H2175 H 0.41248 0.86608 0.7157 0.0
H2176 H 0.34883 0.89763 0.70704 0.0
H2177 H 0.37127 0.86816 0.71644 0.0
H2178 H 0.38553 0.81721 0.64935 0.0
H2179 H 0.40345 0.78097 0.6591 0.0
H2180 H 0.38845 0.88471 0.64722 0.0
H2181 H 0.37195 0.92544 0.65544 0.0
C2182 C 0.90546 0.42621 0.68098 0.0
C2183 C 0.87981 0.41707 0.67721 0.0
C2184 C 0.89243 0.34354 0.67299 0.0
C2185 C 0.9183 0.35312 0.67617 0.0
N2186 N 0.95008 0.40551 0.68069 0.0
N2187 N 0.84962 0.36832 0.6676 0.0
C2188 C 0.92493 0.39509 0.67945 0.0
C2189 C 0.8736 0.37611 0.67255 0.0
N2190 N 0.91117 0.46458 0.68635 0.0
N2191 N 0.88556 0.30286 0.67105 0.0
H2192 H 0.83522 0.39069 0.66757 0.0
H2193 H 0.84443 0.34079 0.66256 0.0
H2194 H 0.89866 0.27845 0.67117 0.0
H2195 H 0.86677 0.2928 0.67034 0.0
H2196 H 0.92858 0.4719 0.69098 0.0
H2197 H 0.89785 0.48861 0.687 0.0
H2198 H 0.9566 0.43605 0.68161 0.0
H2199 H 0.96475 0.38389 0.67956 0.0
C2200 C 0.62833 0.64028 0.43705 0.0
C2201 C 0.62792 0.60735 0.42694 0.0
C2202 C 0.66429 0.64188 0.41508 0.0
C2203 C 0.66763 0.66984 0.42663 0.0
N2204 N 0.65516 0.68661 0.45061 0.0
N2205 N 0.65095 0.57269 0.4082 0.0
C2206 C 0.65027 0.66658 0.43819 0.0
C2207 C 0.64741 0.60702 0.41644 0.0
N2208 N 0.60746 0.64785 0.44525 0.0
N2209 N 0.67648 0.64915 0.40255 0.0
H2210 H 0.64055 0.54527 0.40952 0.0
H2211 H 0.66627 0.56985 0.40125 0.0
H2212 H 0.68753 0.67567 0.40075 0.0
H2213 H 0.67303 0.63151 0.39351 0.0
H2214 H 0.60623 0.67352 0.45194 0.0
H2215 H 0.59036 0.63171 0.44406 0.0
H2216 H 0.64411 0.68213 0.45966 0.0
H2217 H 0.67179 0.70353 0.45241 0.0
C2218 C 0.13202 0.13119 0.43988 0.0
C2219 C 0.13222 0.09652 0.43044 0.0
C2220 C 0.16818 0.13091 0.41809 0.0
C2221 C 0.17107 0.16082 0.42912 0.0
N2222 N 0.15826 0.17977 0.45287 0.0
N2223 N 0.15664 0.05973 0.41273 0.0
C2224 C 0.15369 0.15827 0.4407 0.0
C2225 C 0.15205 0.09534 0.42014 0.0
N2226 N 0.11081 0.13983 0.44768 0.0
N2227 N 0.17992 0.13696 0.40536 0.0
H2228 H 0.14705 0.03186 0.41473 0.0
H2229 H 0.17214 0.0567 0.40591 0.0
H2230 H 0.1901 0.16401 0.40296 0.0
H2231 H 0.17678 0.11754 0.39671 0.0
H2232 H 0.10928 0.16654 0.45387 0.0
H2233 H 0.09377 0.12351 0.44653 0.0
H2234 H 0.14707 0.17609 0.46191 0.0
H2235 H 0.17484 0.19693 0.45454 0.0
C2236 C 0.66008 0.1265 0.33461 0.0
C2237 C 0.67005 0.10974 0.32177 0.0
C2238 C 0.63865 0.15346 0.309 0.0
C2239 C 0.62574 0.16409 0.32177 0.0
N2240 N 0.62175 0.14815 0.34677 0.0
N2241 N 0.66125 0.0987 0.29688 0.0
C2242 C 0.63575 0.14699 0.33461 0.0
C2243 C 0.65709 0.12068 0.30899 0.0
N2244 N 0.67411 0.12501 0.34675 0.0
N2245 N 0.63444 0.17573 0.29688 0.0
H2246 H 0.67247 0.07192 0.29663 0.0
H2247 H 0.65084 0.10402 0.28764 0.0
H2248 H 0.62321 0.2025 0.29662 0.0
H2249 H 0.64481 0.17062 0.28763 0.0
H2250 H 0.6683 0.13962 0.35605 0.0
H2251 H 0.69277 0.11401 0.34704 0.0
H2252 H 0.62758 0.13328 0.35606 0.0
H2253 H 0.60309 0.15912 0.34707 0.0
C2254 C 0.17553 0.65017 0.32107 0.0
C2255 C 0.16855 0.60836 0.32448 0.0
C2256 C 0.12423 0.63255 0.32848 0.0
C2257 C 0.13073 0.6734 0.3237 0.0
N2258 N 0.16231 0.72018 0.31421 0.0
N2259 N 0.13548 0.55896 0.33004 0.0
C2260 C 0.15636 0.68188 0.31969 0.0
C2261 C 0.1427 0.59947 0.32793 0.0
N2262 N 0.20075 0.65988 0.31956 0.0
N2263 N 0.10031 0.62536 0.33365 0.0
H2264 H 0.14834 0.5342 0.32987 0.0
H2265 H 0.11663 0.54939 0.33096 0.0
H2266 H 0.08615 0.64813 0.33376 0.0
H2267 H 0.09497 0.59791 0.33877 0.0
H2268 H 0.20757 0.69023 0.31853 0.0
H2269 H 0.21522 0.63781 0.32057 0.0
H2270 H 0.17964 0.72707 0.30941 0.0
H2271 H 0.14923 0.7446 0.31366 0.0
C2272 C 0.51822 0.96399 0.00594 0.0
C2273 C 0.50697 0.99679 0.01384 0.0
C2274 C 0.49844 0.0318 0.99141 0.0
C2275 C 0.50644 0.99682 0.98344 0.0
N2276 N 0.51202 0.92176 0.98508 0.0
N2277 N 0.47324 0.04863 0.01183 0.0
C2278 C 0.51134 0.95973 0.99143 0.0
C2279 C 0.4919 0.02539 0.00579 0.0
N2280 N 0.53788 0.94099 0.01117 0.0
N2281 N 0.50154 0.07153 0.98665 0.0
H2282 H 0.46748 0.04375 0.02226 0.0
H2283 H 0.46257 0.06991 0.0059 0.0
H2284 H 0.51258 0.07847 0.97778 0.0
H2285 H 0.49646 0.09712 0.99283 0.0
H2286 H 0.5471 0.91855 0.00507 0.0
H2287 H 0.54678 0.94809 0.02072 0.0
H2288 H 0.50662 0.91789 0.97453 0.0
H2289 H 0.51571 0.89454 0.99083 0.0
C2290 C 0.79319 0.28265 0.00774 0.0
C2291 C 0.77529 0.25774 0.01524 0.0
C2292 C 0.75719 0.23338 0.99274 0.0
C2293 C 0.77586 0.25681 0.9852 0.0
N2294 N 0.81338 0.29978 0.98523 0.0
N2295 N 0.74185 0.20638 0.01525 0.0
C2296 C 0.79437 0.28035 0.99266 0.0
C2297 C 0.75766 0.2324 0.00782 0.0
N2298 N 0.8089 0.30873 0.01512 0.0
N2299 N 0.73848 0.21306 0.98546 0.0
H2300 H 0.7309 0.18305 0.01064 0.0
H2301 H 0.74056 0.20662 0.02628 0.0
H2302 H 0.73858 0.21024 0.9745 0.0
H2303 H 0.72229 0.20039 0.99015 0.0
H2304 H 0.82089 0.3306 0.01043 0.0
H2305 H 0.80873 0.31054 0.02614 0.0
H2306 H 0.82885 0.31463 0.98988 0.0
H2307 H 0.81471 0.29844 0.97421 0.0
C2308 C 0.51906 0.30241 0.24413 0.0
C2309 C 0.50573 0.27201 0.23609 0.0
C2310 C 0.49482 0.238 0.25833 0.0
C2311 C 0.50499 0.27111 0.26652 0.0
N2312 N 0.51529 0.34494 0.26509 0.0
N2313 N 0.46924 0.22562 0.23756 0.0
C2314 C 0.51245 0.30735 0.25866 0.0
C2315 C 0.48878 0.24608 0.24395 0.0
N2316 N 0.54015 0.32199 0.23903 0.0
N2317 N 0.49584 0.19769 0.26279 0.0
H2318 H 0.46434 0.23156 0.22703 0.0
H2319 H 0.45724 0.20574 0.24327 0.0
H2320 H 0.50675 0.18871 0.2715 0.0
H2321 H 0.48915 0.17331 0.25651 0.0
H2322 H 0.55069 0.34264 0.24523 0.0
H2323 H 0.5488 0.31327 0.22957 0.0
H2324 H 0.50982 0.34959 0.2756 0.0
H2325 H 0.52076 0.3715 0.25943 0.0
C2326 C 0.8052 0.02289 0.24315 0.0
C2327 C 0.78747 0.99843 0.23536 0.0
C2328 C 0.77879 0.96504 0.25814 0.0
C2329 C 0.78778 1.00044 0.2658 0.0
N2330 N 0.79935 0.07279 0.26147 0.0
N2331 N 0.75027 0.95409 0.23867 0.0
C2332 C 0.79915 0.03224 0.2574 0.0
C2333 C 0.77242 0.97054 0.24361 0.0
N2334 N 0.82629 0.03956 0.23699 0.0
N2335 N 0.77466 0.92773 0.26466 0.0
H2336 H 0.74209 0.96388 0.22916 0.0
H2337 H 0.73872 0.93521 0.24502 0.0
H2338 H 0.76799 0.90192 0.25907 0.0
H2339 H 0.78023 0.92233 0.27512 0.0
H2340 H 0.83892 0.05814 0.24273 0.0
H2341 H 0.83163 0.03183 0.22668 0.0
H2342 H 0.80704 0.09614 0.25502 0.0
H2343 H 0.78867 0.0831 0.27007 0.0
C2344 C 0.25028 0.74139 0.99186 0.0
C2345 C 0.26945 0.7642 0.98449 0.0
C2346 C 0.28662 0.78898 0.0072 0.0
C2347 C 0.26725 0.76658 0.01452 0.0
N2348 N 0.22801 0.72834 0.01407 0.0
N2349 N 0.30368 0.81419 0.98482 0.0
C2350 C 0.2482 0.74504 0.00686 0.0
C2351 C 0.28699 0.78931 0.9921 0.0
N2352 N 0.2343 0.71574 0.98451 0.0
N2353 N 0.30526 0.80861 0.01473 0.0
H2354 H 0.30555 0.81338 0.97382 0.0
H2355 H 0.31482 0.83711 0.98952 0.0
H2356 H 0.30436 0.81218 0.02566 0.0
H2357 H 0.32193 0.82033 0.01028 0.0
H2358 H 0.22156 0.69513 0.98925 0.0
H2359 H 0.23505 0.71255 0.97357 0.0
H2360 H 0.21215 0.71517 0.00924 0.0
H2361 H 0.22611 0.73101 0.02503 0.0
C2362 C 0.51509 0.78599 0.74469 0.0
C2363 C 0.50258 0.75399 0.73697 0.0
C2364 C 0.49378 0.71987 0.75951 0.0
C2365 C 0.50348 0.75408 0.76733 0.0
N2366 N 0.51093 0.82869 0.76556 0.0
N2367 N 0.46744 0.70505 0.73924 0.0
C2368 C 0.50896 0.79078 0.75925 0.0
C2369 C 0.4869 0.72679 0.74517 0.0
N2370 N 0.53513 0.80758 0.73919 0.0
N2371 N 0.49566 0.67994 0.76425 0.0
H2372 H 0.46171 0.71049 0.72882 0.0
H2373 H 0.45624 0.68463 0.74523 0.0
H2374 H 0.50706 0.672 0.77288 0.0
H2375 H 0.48924 0.65485 0.75821 0.0
H2376 H 0.54515 0.82947 0.74515 0.0
H2377 H 0.54361 0.7996 0.72961 0.0
H2378 H 0.50608 0.83293 0.77618 0.0
H2379 H 0.51506 0.85563 0.75975 0.0
C2380 C 0.28893 0.98472 0.74238 0.0
C2381 C 0.26934 0.00553 0.73473 0.0
C2382 C 0.24945 0.02715 0.7571 0.0
C2383 C 0.26961 0.00785 0.76473 0.0
N2384 N 0.31 0.97263 0.76499 0.0
N2385 N 0.23253 0.05021 0.73442 0.0
C2386 C 0.2898 0.9879 0.75744 0.0
C2387 C 0.25 0.02771 0.742 0.0
N2388 N 0.3066 0.96177 0.73518 0.0
N2389 N 0.22938 0.04377 0.76437 0.0
H2390 H 0.23157 0.04954 0.72338 0.0
H2391 H 0.21979 0.07111 0.73892 0.0
H2392 H 0.22898 0.04572 0.77539 0.0
H2393 H 0.21258 0.05378 0.7596 0.0
H2394 H 0.31995 0.94247 0.74002 0.0
H2395 H 0.30697 0.95978 0.72417 0.0
H2396 H 0.32655 0.961 0.76045 0.0
H2397 H 0.31108 0.97431 0.776 0.0
C2398 C 0.50726 0.47227 0.49136 0.0
C2399 C 0.52586 0.49651 0.48416 0.0
C2400 C 0.54496 0.51613 0.50702 0.0
C2401 C 0.5249 0.49539 0.51419 0.0
N2402 N 0.48637 0.45464 0.51351 0.0
N2403 N 0.56206 0.54279 0.48485 0.0
C2404 C 0.50606 0.47324 0.50643 0.0
C2405 C 0.54467 0.51876 0.49193 0.0
N2406 N 0.49101 0.44768 0.48374 0.0
N2407 N 0.56442 0.53291 0.51476 0.0
H2408 H 0.56291 0.54453 0.47385 0.0
H2409 H 0.57469 0.5631 0.48975 0.0
H2410 H 0.56505 0.531 0.5258 0.0
H2411 H 0.58086 0.54567 0.5104 0.0
H2412 H 0.47907 0.42538 0.48824 0.0
H2413 H 0.49036 0.44795 0.47269 0.0
H2414 H 0.47011 0.44306 0.5086 0.0
H2415 H 0.48588 0.45203 0.52449 0.0
C2416 C 0.74354 0.74085 0.50663 0.0
C2417 C 0.76295 0.76194 0.51424 0.0
C2418 C 0.78332 0.78275 0.49184 0.0
C2419 C 0.76352 0.76274 0.48425 0.0
N2420 N 0.72303 0.72745 0.48403 0.0
N2421 N 0.79894 0.80861 0.51433 0.0
C2422 C 0.74309 0.74312 0.49155 0.0
C2423 C 0.78204 0.78483 0.50688 0.0
N2424 N 0.72606 0.71743 0.51389 0.0
N2425 N 0.80368 0.79891 0.48462 0.0
H2426 H 0.79871 0.81058 0.52531 0.0
H2427 H 0.81178 0.82924 0.50968 0.0
H2428 H 0.80506 0.79838 0.4736 0.0
H2429 H 0.82011 0.81001 0.48945 0.0
H2430 H 0.72501 0.71711 0.52493 0.0
H2431 H 0.71333 0.69703 0.50909 0.0
H2432 H 0.70617 0.71703 0.48864 0.0
H2433 H 0.72265 0.7269 0.47299 0.0
C2434 C 0.7878 0.4671 0.75727 0.0
C2435 C 0.77018 0.49149 0.76505 0.0
C2436 C 0.74995 0.51421 0.74278 0.0
C2437 C 0.7691 0.49332 0.73503 0.0
N2438 N 0.80697 0.451 0.73459 0.0
N2439 N 0.73565 0.54107 0.76538 0.0
C2440 C 0.78808 0.46969 0.7422 0.0
C2441 C 0.75154 0.51581 0.75784 0.0
N2442 N 0.80395 0.44081 0.76433 0.0
N2443 N 0.7301 0.53216 0.73565 0.0
H2444 H 0.73607 0.54288 0.77636 0.0
H2445 H 0.72342 0.56277 0.76079 0.0
H2446 H 0.72852 0.53116 0.72464 0.0
H2447 H 0.71412 0.54473 0.74054 0.0
H2448 H 0.81509 0.41838 0.75938 0.0
H2449 H 0.80531 0.43983 0.77535 0.0
H2450 H 0.82336 0.43839 0.73907 0.0
H2451 H 0.80664 0.4493 0.7236 0.0
C2452 C 0.24836 0.22709 0.49325 0.0
C2453 C 0.26686 0.25093 0.48579 0.0
C2454 C 0.28522 0.27445 0.50835 0.0
C2455 C 0.26619 0.25173 0.51585 0.0
N2456 N 0.22799 0.21046 0.51577 0.0
N2457 N 0.30152 0.30008 0.48585 0.0
C2458 C 0.24726 0.22919 0.50835 0.0
C2459 C 0.28498 0.27523 0.49326 0.0
N2460 N 0.23202 0.20224 0.48581 0.0
N2461 N 0.30405 0.29426 0.5157 0.0
H2462 H 0.30304 0.29942 0.47484 0.0
H2463 H 0.31298 0.32276 0.49046 0.0
H2464 H 0.30367 0.29757 0.52664 0.0
H2465 H 0.32051 0.30627 0.5111 0.0
H2466 H 0.2194 0.18123 0.49043 0.0
H2467 H 0.23216 0.20062 0.47478 0.0
H2468 H 0.21232 0.19613 0.51114 0.0
H2469 H 0.2267 0.21182 0.52679 0.0
C2470 C 0.28933 0.48 0.25898 0.0
C2471 C 0.27047 0.50278 0.26643 0.0
C2472 C 0.24946 0.52043 0.24389 0.0
C2473 C 0.26961 0.5012 0.23643 0.0
N2474 N 0.30996 0.46549 0.23653 0.0
N2475 N 0.23397 0.54841 0.26608 0.0
C2476 C 0.2898 0.48138 0.24389 0.0
C2477 C 0.25092 0.52411 0.25889 0.0
N2478 N 0.30652 0.45641 0.26637 0.0
N2479 N 0.22882 0.53487 0.23653 0.0
H2480 H 0.23435 0.55173 0.27702 0.0
H2481 H 0.22086 0.56805 0.26119 0.0
H2482 H 0.22733 0.53237 0.22555 0.0
H2483 H 0.21228 0.54586 0.24128 0.0
H2484 H 0.31879 0.43512 0.26166 0.0
H2485 H 0.30763 0.45647 0.2774 0.0
H2486 H 0.32678 0.45541 0.24127 0.0
H2487 H 0.31041 0.46428 0.22551 0.0
C2488 C 0.04191 0.03406 0.49405 0.0
C2489 C 0.02215 0.01423 0.48629 0.0
C2490 C 1.00278 0.98974 0.50844 0.0
C2491 C 1.02178 0.0113 0.51627 0.0
N2492 N 0.05736 0.05871 0.51677 0.0
N2493 N 0.98152 0.97988 0.48583 0.0
C2494 C 0.04074 0.0349 0.50912 0.0
C2495 C 1.00183 0.99426 0.49346 0.0
N2496 N 0.06238 0.05044 0.48702 0.0
N2497 N 0.9859 0.96436 0.51534 0.0
H2498 H 0.9804 0.98301 0.47484 0.0
H2499 H 0.96488 0.96838 0.49037 0.0
H2500 H 0.98604 0.96017 0.52626 0.0
H2501 H 0.9732 0.9446 0.51021 0.0
H2502 H 0.07893 0.06046 0.49204 0.0
H2503 H 0.06338 0.05208 0.47602 0.0
H2504 H 0.0696 0.08053 0.51224 0.0
H2505 H 0.05794 0.05832 0.52781 0.0
C2506 C 1.00261 0.2686 0.74069 0.0
C2507 C 0.02194 0.24678 0.73321 0.0
C2508 C 0.04117 0.22511 0.7558 0.0
C2509 C 1.02111 0.24526 0.76321 0.0
N2510 N 0.98043 0.27932 0.76297 0.0
N2511 N 0.05756 0.19954 0.73342 0.0
C2512 C 1.00106 0.26474 0.75568 0.0
C2513 C 0.04062 0.22361 0.74073 0.0
N2514 N 0.98603 0.29364 0.73346 0.0
N2515 N 0.0613 0.209 0.76318 0.0
H2516 H 0.05861 0.19948 0.72239 0.0
H2517 H 0.06963 0.17797 0.73821 0.0
H2518 H 0.06178 0.20766 0.7742 0.0
H2519 H 0.07806 0.19881 0.75845 0.0
H2520 H 0.97311 0.31354 0.73833 0.0
H2521 H 0.98666 0.29748 0.72253 0.0
H2522 H 0.96396 0.29047 0.75815 0.0
H2523 H 0.97888 0.27667 0.77396 0.0
C2524 C 0.03871 0.72912 0.24463 0.0
C2525 C 1.01851 0.74799 0.23702 0.0
C2526 C 0.99801 0.76836 0.25934 0.0
C2527 C 1.01767 0.74786 0.26696 0.0
N2528 N 0.05479 0.70371 0.26715 0.0
N2529 N 0.97756 0.7819 0.23675 0.0
C2530 C 0.03736 0.72646 0.25966 0.0
C2531 C 0.99779 0.76675 0.24428 0.0
N2532 N 0.05943 0.71457 0.2374 0.0
N2533 N 0.98008 0.79064 0.26657 0.0
H2534 H 0.97742 0.78359 0.22573 0.0
H2535 H 0.96044 0.79111 0.24131 0.0
H2536 H 0.9788 0.79024 0.2776 0.0
H2537 H 0.96715 0.81081 0.26177 0.0
H2538 H 0.076 0.70388 0.24223 0.0
H2539 H 0.06092 0.71636 0.2264 0.0
H2540 H 0.06825 0.68426 0.26254 0.0
H2541 H 0.05452 0.70143 0.27814 0.0
C2542 C 1.00028 0.48866 0.99076 0.0
C2543 C 1.01958 0.51012 0.98314 0.0
C2544 C 0.04025 0.52981 0.00551 0.0
C2545 C 1.02025 0.51033 0.01312 0.0
N2546 N 0.9799 0.47443 0.01332 0.0
N2547 N 0.05603 0.55587 0.98301 0.0
C2548 C 0.99993 0.49045 0.00583 0.0
C2549 C 0.03894 0.53233 0.99047 0.0
N2550 N 0.98279 0.4654 0.98353 0.0
N2551 N 0.06074 0.5452 0.01276 0.0
H2552 H 0.05572 0.55821 0.97202 0.0
H2553 H 0.06916 0.5759 0.98764 0.0
H2554 H 0.0622 0.54349 0.02377 0.0
H2555 H 0.0772 0.55642 0.00795 0.0
H2556 H 0.97023 0.44461 0.98834 0.0
H2557 H 0.98156 0.46557 0.9725 0.0
H2558 H 0.96296 0.46448 0.00873 0.0
H2559 H 0.97978 0.47261 0.02433 0.0
C2560 C 0.63825 0.09884 0.05031 0.0
C2561 C 0.62484 0.09552 0.06338 0.0
C2562 C 0.66453 0.1151 0.07599 0.0
C2563 C 0.67712 0.12261 0.06287 0.0
N2564 N 0.67528 0.12484 0.03744 0.0
N2565 N 0.62466 0.10403 0.08868 0.0
C2566 C 0.66379 0.11505 0.05001 0.0
C2567 C 0.63794 0.10434 0.07623 0.0
N2568 N 0.62669 0.08567 0.03816 0.0
N2569 N 0.67818 0.11793 0.08827 0.0
H2570 H 0.60547 0.0958 0.0893 0.0
H2571 H 0.63201 0.11465 0.09823 0.0
H2572 H 0.69742 0.12601 0.08845 0.0
H2573 H 0.67119 0.10899 0.09813 0.0
H2574 H 0.63607 0.08287 0.02851 0.0
H2575 H 0.60804 0.07443 0.03794 0.0
H2576 H 0.66582 0.12522 0.02776 0.0
H2577 H 0.69413 0.13495 0.03679 0.0
C2578 C 0.63453 0.13787 0.17555 0.0
C2579 C 0.62271 0.1493 0.18852 0.0
C2580 C 0.66227 0.13077 0.20133 0.0
C2581 C 0.67448 0.12133 0.18829 0.0
N2582 N 0.67352 0.12104 0.16283 0.0
N2583 N 0.62617 0.16168 0.21357 0.0
C2584 C 0.66092 0.1264 0.17536 0.0
C2585 C 0.63688 0.14721 0.20135 0.0
N2586 N 0.62032 0.1372 0.16343 0.0
N2587 N 0.67474 0.12279 0.21376 0.0
H2588 H 0.60739 0.17215 0.21413 0.0
H2589 H 0.63622 0.16579 0.22295 0.0
H2590 H 0.69354 0.11236 0.21414 0.0
H2591 H 0.66613 0.12406 0.22366 0.0
H2592 H 0.62666 0.12485 0.1539 0.0
H2593 H 0.60131 0.14655 0.16309 0.0
H2594 H 0.66582 0.1283 0.15298 0.0
H2595 H 0.69262 0.1122 0.16229 0.0
C2596 C 0.41193 0.87684 0.92549 0.0
C2597 C 0.42394 0.88969 0.93826 0.0
C2598 C 0.38299 0.87818 0.95083 0.0
C2599 C 0.37055 0.86901 0.93781 0.0
N2600 N 0.37256 0.86664 0.91237 0.0
N2601 N 0.41968 0.90833 0.96281 0.0
C2602 C 0.38493 0.8704 0.92504 0.0
C2603 C 0.40911 0.89182 0.95087 0.0
N2604 N 0.42657 0.86967 0.91378 0.0
N2605 N 0.37008 0.87262 0.96325 0.0
H2606 H 0.43867 0.91775 0.96334 0.0
H2607 H 0.40925 0.91535 0.97186 0.0
H2608 H 0.35096 0.86381 0.96362 0.0
H2609 H 0.37872 0.87396 0.97316 0.0
H2610 H 0.4196 0.85631 0.90454 0.0
H2611 H 0.44632 0.87332 0.91379 0.0
H2612 H 0.3813 0.87164 0.90262 0.0
H2613 H 0.3529 0.86243 0.91163 0.0
C2614 C 0.41389 0.88039 0.82318 0.0
C2615 C 0.42564 0.86477 0.81072 0.0
C2616 C 0.38473 0.87372 0.79799 0.0
C2617 C 0.37255 0.88589 0.81078 0.0
N2618 N 0.37474 0.89465 0.83603 0.0
N2619 N 0.42122 0.84102 0.78669 0.0
C2620 C 0.38697 0.88734 0.82351 0.0
C2621 C 0.41076 0.86003 0.79822 0.0
N2622 N 0.42871 0.88968 0.83465 0.0
N2623 N 0.37161 0.87635 0.78553 0.0
H2624 H 0.4402 0.83155 0.78633 0.0
H2625 H 0.41072 0.83215 0.77785 0.0
H2626 H 0.35243 0.88468 0.78504 0.0
H2627 H 0.38008 0.87283 0.77565 0.0
H2628 H 0.42196 0.90493 0.84359 0.0
H2629 H 0.44843 0.88569 0.83467 0.0
H2630 H 0.38347 0.89197 0.84589 0.0
H2631 H 0.35514 0.89971 0.83667 0.0
C2632 C 0.65668 0.63676 0.54788 0.0
C2633 C 0.67002 0.64191 0.5609 0.0
C2634 C 0.63043 0.6235 0.57377 0.0
C2635 C 0.61772 0.61481 0.56079 0.0
N2636 N 0.62026 0.60727 0.53548 0.0
N2637 N 0.67053 0.63298 0.58622 0.0
C2638 C 0.6313 0.61989 0.54784 0.0
C2639 C 0.65709 0.63323 0.57383 0.0
N2640 N 0.66794 0.64937 0.53555 0.0
N2641 N 0.61676 0.62382 0.58607 0.0
H2642 H 0.68999 0.63938 0.58668 0.0
H2643 H 0.66304 0.62265 0.59582 0.0
H2644 H 0.59729 0.6175 0.58641 0.0
H2645 H 0.62406 0.63414 0.59569 0.0
H2646 H 0.65836 0.651 0.52591 0.0
H2647 H 0.6864 0.66132 0.53512 0.0
H2648 H 0.63001 0.60558 0.52591 0.0
H2649 H 0.60179 0.59535 0.53499 0.0
C2650 C 0.63537 0.63714 0.70179 0.0
C2651 C 0.62291 0.64792 0.68888 0.0
C2652 C 0.66306 0.63357 0.676 0.0
C2653 C 0.67479 0.61925 0.68871 0.0
N2654 N 0.67102 0.60279 0.71351 0.0
N2655 N 0.62403 0.65114 0.66342 0.0
C2656 C 0.66063 0.61993 0.70156 0.0
C2657 C 0.6366 0.64478 0.67592 0.0
N2658 N 0.62326 0.64439 0.71434 0.0
N2659 N 0.67747 0.63743 0.66402 0.0
H2660 H 0.60488 0.65968 0.66291 0.0
H2661 H 0.63187 0.6448 0.65355 0.0
H2662 H 0.69674 0.62962 0.66372 0.0
H2663 H 0.67106 0.65164 0.65476 0.0
H2664 H 0.63208 0.64172 0.72417 0.0
H2665 H 0.6048 0.65629 0.71491 0.0
H2666 H 0.66084 0.59768 0.72281 0.0
H2667 H 0.6895 0.5909 0.71385 0.0
C2668 C 0.41399 0.39153 0.45061 0.0
C2669 C 0.42653 0.39553 0.43732 0.0
C2670 C 0.38625 0.37684 0.42523 0.0
C2671 C 0.37336 0.37523 0.43847 0.0
N2672 N 0.37406 0.38555 0.46365 0.0
N2673 N 0.42412 0.3963 0.41186 0.0
C2674 C 0.38706 0.38382 0.45113 0.0
C2675 C 0.41247 0.38935 0.4246 0.0
N2676 N 0.42799 0.39464 0.46276 0.0
N2677 N 0.37362 0.36495 0.41324 0.0
H2678 H 0.44351 0.4029 0.41094 0.0
H2679 H 0.41445 0.39771 0.40226 0.0
H2680 H 0.35431 0.35724 0.41316 0.0
H2681 H 0.38246 0.36035 0.40352 0.0
H2682 H 0.42091 0.38813 0.47281 0.0
H2683 H 0.44749 0.40091 0.46274 0.0
H2684 H 0.38201 0.39537 0.47315 0.0
H2685 H 0.3545 0.38017 0.46435 0.0
C2686 C 0.40853 0.37995 0.29904 0.0
C2687 C 0.42335 0.38147 0.31165 0.0
C2688 C 0.38445 0.39913 0.3251 0.0
C2689 C 0.36994 0.40058 0.31238 0.0
N2690 N 0.36922 0.39873 0.2869 0.0
N2691 N 0.42621 0.40001 0.33623 0.0
C2692 C 0.38232 0.39276 0.29924 0.0
C2693 C 0.41146 0.39346 0.32453 0.0
N2694 N 0.41927 0.36481 0.28694 0.0
N2695 N 0.37219 0.40185 0.33783 0.0
H2696 H 0.44597 0.39653 0.33611 0.0
H2697 H 0.41931 0.41267 0.34561 0.0
H2698 H 0.35249 0.40529 0.33867 0.0
H2699 H 0.3811 0.3968 0.34753 0.0
H2700 H 0.40889 0.35807 0.27784 0.0
H2701 H 0.43845 0.35663 0.28628 0.0
H2702 H 0.37777 0.39827 0.27695 0.0
H2703 H 0.35002 0.40699 0.28664 0.0
C2704 C 0.13102 0.12108 0.55029 0.0
C2705 C 0.11742 0.11743 0.56328 0.0
C2706 C 0.1573 0.13308 0.57623 0.0
C2707 C 0.17045 0.1398 0.56325 0.0
N2708 N 0.16884 0.14569 0.53785 0.0
N2709 N 0.1168 0.12598 0.58856 0.0
C2710 C 0.157 0.13523 0.55025 0.0
C2711 C 0.13041 0.1252 0.57623 0.0
N2712 N 0.1193 0.10978 0.53797 0.0
N2713 N 0.17076 0.13318 0.58863 0.0
H2714 H 0.09722 0.12044 0.58894 0.0
H2715 H 0.12431 0.13562 0.5982 0.0
H2716 H 0.19035 0.13859 0.58902 0.0
H2717 H 0.16312 0.12434 0.59835 0.0
H2718 H 0.12881 0.10684 0.52836 0.0
H2719 H 0.10023 0.10073 0.53753 0.0
H2720 H 0.15943 0.14788 0.52817 0.0
H2721 H 0.18788 0.15486 0.53737 0.0
C2722 C 0.15791 0.12039 0.69977 0.0
C2723 C 0.17188 0.11718 0.6869 0.0
C2724 C 0.13238 0.13303 0.67359 0.0
C2725 C 0.11884 0.1392 0.68647 0.0
N2726 N 0.11965 0.14415 0.71188 0.0
N2727 N 0.17321 0.12581 0.66161 0.0
C2728 C 0.13189 0.13426 0.69958 0.0
C2729 C 0.15928 0.12514 0.67383 0.0
N2730 N 0.16936 0.10909 0.7122 0.0
N2731 N 0.11927 0.13356 0.66108 0.0
H2732 H 0.19275 0.11992 0.66139 0.0
H2733 H 0.16602 0.13554 0.65187 0.0
H2734 H 0.0997 0.13892 0.66053 0.0
H2735 H 0.12718 0.12521 0.6514 0.0
H2736 H 0.15961 0.10571 0.72173 0.0
H2737 H 0.18852 0.10067 0.71283 0.0
H2738 H 0.12874 0.14608 0.72165 0.0
H2739 H 0.10056 0.15308 0.71219 0.0
C2740 C 0.90901 0.90466 0.45141 0.0
C2741 C 0.92286 0.90862 0.4385 0.0
C2742 C 0.88407 0.88842 0.42523 0.0
C2743 C 0.87003 0.8857 0.43809 0.0
N2744 N 0.86802 0.8957 0.46324 0.0
N2745 N 0.92295 0.90883 0.413 0.0
C2746 C 0.88226 0.89517 0.45113 0.0
C2747 C 0.91012 0.90187 0.42538 0.0
N2748 N 0.92162 0.90945 0.46396 0.0
N2749 N 0.87264 0.87666 0.41286 0.0
H2750 H 0.9423 0.91601 0.41266 0.0
H2751 H 0.91432 0.90969 0.40309 0.0
H2752 H 0.85339 0.8688 0.41219 0.0
H2753 H 0.88232 0.87259 0.40336 0.0
H2754 H 0.91371 0.90298 0.47382 0.0
H2755 H 0.94079 0.91781 0.46455 0.0
H2756 H 0.87473 0.90579 0.473 0.0
H2757 H 0.84861 0.8887 0.46335 0.0
C2758 C 0.90884 0.86541 0.29873 0.0
C2759 C 0.92169 0.85979 0.3119 0.0
C2760 C 0.8809 0.87255 0.32427 0.0
C2761 C 0.86883 0.88314 0.31126 0.0
N2762 N 0.87232 0.89403 0.28612 0.0
N2763 N 0.92044 0.86476 0.33734 0.0
C2764 C 0.88308 0.88053 0.29848 0.0
C2765 C 0.90776 0.86503 0.3247 0.0
N2766 N 0.92097 0.85509 0.28645 0.0
N2767 N 0.86649 0.86935 0.33627 0.0
H2768 H 0.94008 0.86054 0.3381 0.0
H2769 H 0.91199 0.87272 0.34692 0.0
H2770 H 0.84685 0.87436 0.33628 0.0
H2771 H 0.87344 0.85783 0.34584 0.0
H2772 H 0.91189 0.85411 0.27665 0.0
H2773 H 0.93967 0.84421 0.28619 0.0
H2774 H 0.88252 0.89784 0.27675 0.0
H2775 H 0.85344 0.90392 0.28545 0.0
C2776 C 0.16032 0.63573 0.0739 0.0
C2777 C 0.17315 0.64642 0.0611 0.0
C2778 C 0.13385 0.62832 0.04782 0.0
C2779 C 0.12045 0.62107 0.06072 0.0
N2780 N 0.12014 0.62457 0.08616 0.0
N2781 N 0.17077 0.65851 0.03596 0.0
C2782 C 0.13355 0.62664 0.07378 0.0
C2783 C 0.1595 0.64416 0.04808 0.0
N2784 N 0.17398 0.63304 0.08618 0.0
N2785 N 0.12234 0.61879 0.03527 0.0
H2786 H 0.18946 0.66955 0.03567 0.0
H2787 H 0.16109 0.66235 0.02643 0.0
H2788 H 0.10365 0.60788 0.03464 0.0
H2789 H 0.13183 0.6187 0.0256 0.0
H2790 H 0.16661 0.62121 0.09561 0.0
H2791 H 0.19348 0.63909 0.08666 0.0
H2792 H 0.12771 0.63264 0.09596 0.0
H2793 H 0.10065 0.61843 0.08649 0.0
C2794 C 0.13235 0.63315 0.17677 0.0
C2795 C 0.11953 0.6403 0.18981 0.0
C2796 C 0.15899 0.62079 0.20262 0.0
C2797 C 0.1723 0.61684 0.18957 0.0
N2798 N 0.17255 0.62552 0.16425 0.0
N2799 N 0.12167 0.64645 0.21517 0.0
C2800 C 0.15917 0.62481 0.17666 0.0
C2801 C 0.13317 0.63559 0.20275 0.0
N2802 N 0.11866 0.63319 0.16447 0.0
N2803 N 0.17075 0.60907 0.21491 0.0
H2804 H 0.10277 0.65632 0.21571 0.0
H2805 H 0.13128 0.64847 0.22478 0.0
H2806 H 0.18964 0.59903 0.21528 0.0
H2807 H 0.16137 0.60647 0.22459 0.0
H2808 H 0.12606 0.62396 0.15475 0.0
H2809 H 0.09913 0.63895 0.16417 0.0
H2810 H 0.16491 0.63534 0.15463 0.0
H2811 H 0.19208 0.61977 0.16377 0.0
C2812 C 0.88515 0.37594 0.9243 0.0
C2813 C 0.87211 0.36963 0.93734 0.0
C2814 C 0.91111 0.39182 0.9501 0.0
C2815 C 0.92478 0.39448 0.93709 0.0
N2816 N 0.92558 0.38274 0.91195 0.0
N2817 N 0.87371 0.36659 0.96279 0.0
C2818 C 0.91192 0.38487 0.92423 0.0
C2819 C 0.8854 0.37632 0.95028 0.0
N2820 N 0.87173 0.37419 0.91192 0.0
N2821 N 0.92243 0.40538 0.96226 0.0
H2822 H 0.85484 0.35651 0.96336 0.0
H2823 H 0.88312 0.36588 0.97249 0.0
H2824 H 0.94116 0.4162 0.96259 0.0
H2825 H 0.91277 0.40881 0.9718 0.0
H2826 H 0.87926 0.38271 0.90213 0.0
H2827 H 0.85225 0.36776 0.91157 0.0
H2828 H 0.91817 0.37171 0.90245 0.0
H2829 H 0.94512 0.38843 0.91153 0.0
C2830 C 0.9089 0.3618 0.82396 0.0
C2831 C 0.92157 0.35527 0.81082 0.0
C2832 C 0.88187 0.37522 0.79829 0.0
C2833 C 0.86883 0.37912 0.81143 0.0
N2834 N 0.86891 0.36978 0.83671 0.0
N2835 N 0.91888 0.34959 0.78546 0.0
C2836 C 0.88211 0.37043 0.82423 0.0
C2837 C 0.90767 0.3603 0.79798 0.0
N2838 N 0.92276 0.36127 0.83621 0.0
N2839 N 0.86983 0.38701 0.78609 0.0
H2840 H 0.93769 0.33931 0.78479 0.0
H2841 H 0.9091 0.34794 0.77589 0.0
H2842 H 0.85084 0.39652 0.78585 0.0
H2843 H 0.87901 0.38986 0.77637 0.0
H2844 H 0.91551 0.37009 0.846 0.0
H2845 H 0.94229 0.35546 0.83641 0.0
H2846 H 0.8766 0.35949 0.84626 0.0
H2847 H 0.84945 0.37612 0.8373 0.0
loop_
_geom_bond_atom_site_label_1
_geom_bond_atom_site_label_2
_geom_bond_distance
_geom_bond_site_symmetry_2
_ccdc_geom_bond_type
C0 C1 1.443 . S
C0 N4 1.376 . S
C0 C38 1.389 . S
C1 C0 1.443 . S
C1 C2 1.340 . S
C1 H41 0.951 . S
C2 C1 1.340 . S
C2 C3 1.439 . S
C2 H42 0.950 . S
C3 C2 1.439 . S
C3 N4 1.374 . S
C3 C37 1.395 . S
N4 C0 1.376 . S
N4 C3 1.374 . S
N4 Co5 2.008 . S
Co5 N4 2.008 . S
Co5 N6 1.995 . S
Co5 N11 2.008 1_545 S
Co5 N16 1.995 1_545 S
Co5 N21 2.282 1_545 S
Co5 N27 2.282 . S
N6 Co5 1.995 . S
N6 C7 1.376 . S
N6 C10 1.383 . S
C7 N6 1.376 . S
C7 C8 1.446 . S
C7 C37 1.391 . S
C8 C7 1.446 . S
C8 C9 1.339 . S
C8 H43 0.949 . S
C9 C8 1.339 . S
C9 C10 1.439 . S
C9 H44 0.950 . S
C10 N6 1.383 . S
C10 C9 1.439 . S
C10 C39 1.392 1_545 S
N11 Co5 2.008 1_565 S
N11 C12 1.376 . S
N11 C15 1.374 . S
C12 N11 1.376 . S
C12 C13 1.443 . S
C12 C39 1.389 . S
C13 C12 1.443 . S
C13 C14 1.340 . S
C13 H45 0.951 . S
C14 C13 1.340 . S
C14 C15 1.439 . S
C14 H46 0.950 . S
C15 N11 1.374 . S
C15 C14 1.439 . S
C15 C40 1.395 . S
N16 Co5 1.995 1_565 S
N16 C17 1.376 . S
N16 C20 1.383 1_565 S
C17 N16 1.376 . S
C17 C18 1.446 . S
C17 C40 1.391 . S
C18 C17 1.446 . S
C18 C19 1.339 . S
C18 H47 0.949 . S
C19 C18 1.339 . S
C19 C20 1.439 1_565 S
C19 H48 0.950 . S
C20 N16 1.383 1_545 S
C20 C19 1.439 1_545 S
C20 C38 1.392 . S
N21 Co5 2.282 1_565 S
N21 C24 1.332 . S
N21 C26 1.333 1_565 S
C22 C23 1.386 . S
C22 C25 1.388 . S
C23 C22 1.386 . S
C23 C24 1.382 . S
C23 H49 0.950 . S
C24 N21 1.332 . S
C24 C23 1.382 . S
C24 H35 0.952 . S
C25 C22 1.388 . S
C25 C26 1.384 1_565 S
C25 H50 0.950 . S
C26 N21 1.333 1_545 S
C26 C25 1.384 1_545 S
C26 H36 0.946 . S
N27 Co5 2.282 . S
N27 C31 1.332 . S
N27 C32 1.332 . S
C28 C29 1.388 . S
C28 C32 1.382 . S
C28 H51 0.950 . S
C29 C28 1.388 . S
C29 C30 1.386 . S
C30 C29 1.386 . S
C30 C31 1.382 . S
C30 H52 0.950 . S
C31 N27 1.332 . S
C31 C30 1.382 . S
C31 H33 0.952 . S
C32 N27 1.332 . S
C32 C28 1.382 . S
C32 H34 0.948 . S
H33 C31 0.952 . S
H34 C32 0.948 . S
H35 C24 0.952 . S
H36 C26 0.946 . S
C37 C3 1.395 . S
C37 C7 1.391 . S
C38 C0 1.389 . S
C38 C20 1.392 . S
C39 C10 1.392 1_565 S
C39 C12 1.389 . S
C40 C15 1.395 . S
C40 C17 1.391 . S
H41 C1 0.951 . S
H42 C2 0.950 . S
H43 C8 0.949 . S
H44 C9 0.950 . S
H45 C13 0.951 . S
H46 C14 0.950 . S
H47 C18 0.949 . S
H48 C19 0.950 . S
H49 C23 0.950 . S
H50 C25 0.950 . S
H51 C28 0.950 . S
H52 C30 0.950 . S
C53 C54 1.443 . S
C53 N57 1.376 . S
C53 C91 1.389 . S
C54 C53 1.443 . S
C54 C55 1.340 . S
C54 H94 0.951 . S
C55 C54 1.340 . S
C55 C56 1.439 . S
C55 H95 0.950 . S
C56 C55 1.439 . S
C56 N57 1.374 . S
C56 C90 1.395 . S
N57 C53 1.376 . S
N57 C56 1.374 . S
N57 Co58 2.008 . S
Co58 N57 2.008 . S
Co58 N59 1.995 . S
Co58 N64 2.008 . S
Co58 N69 1.995 . S
Co58 N74 2.282 . S
Co58 N80 2.282 . S
N59 Co58 1.995 . S
N59 C60 1.376 . S
N59 C63 1.383 . S
C60 N59 1.376 . S
C60 C61 1.446 . S
C60 C90 1.391 . S
C61 C60 1.446 . S
C61 C62 1.339 . S
C61 H96 0.949 . S
C62 C61 1.339 . S
C62 C63 1.439 . S
C62 H97 0.950 . S
C63 N59 1.383 . S
C63 C62 1.439 . S
C63 C92 1.392 . S
N64 Co58 2.008 . S
N64 C65 1.376 . S
N64 C68 1.374 . S
C65 N64 1.376 . S
C65 C66 1.443 . S
C65 C92 1.389 . S
C66 C65 1.443 . S
C66 C67 1.340 . S
C66 H98 0.951 . S
C67 C66 1.340 . S
C67 C68 1.439 . S
C67 H99 0.950 . S
C68 N64 1.374 . S
C68 C67 1.439 . S
C68 C93 1.395 . S
N69 Co58 1.995 . S
N69 C70 1.376 . S
N69 C73 1.383 . S
C70 N69 1.376 . S
C70 C71 1.446 . S
C70 C93 1.391 . S
C71 C70 1.446 . S
C71 C72 1.339 . S
C71 H100 0.949 . S
C72 C71 1.339 . S
C72 C73 1.439 . S
C72 H101 0.950 . S
C73 N69 1.383 . S
C73 C72 1.439 . S
C73 C91 1.392 . S
N74 Co58 2.282 . S
N74 C77 1.332 . S
N74 C79 1.332 . S
C75 C76 1.386 . S
C75 C78 1.388 . S
C76 C75 1.386 . S
C76 C77 1.382 . S
C76 H102 0.950 . S
C77 N74 1.332 . S
C77 C76 1.382 . S
C77 H88 0.952 . S
C78 C75 1.388 . S
C78 C79 1.382 . S
C78 H103 0.950 . S
C79 N74 1.332 . S
C79 C78 1.382 . S
C79 H89 0.948 . S
N80 Co58 2.282 . S
N80 C84 1.332 . S
N80 C85 1.332 . S
C81 C82 1.388 . S
C81 C85 1.382 . S
C81 H104 0.950 . S
C82 C81 1.388 . S
C82 C83 1.386 . S
C83 C82 1.386 . S
C83 C84 1.382 . S
C83 H105 0.950 . S
C84 N80 1.332 . S
C84 C83 1.382 . S
C84 H86 0.952 . S
C85 N80 1.332 . S
C85 C81 1.382 . S
C85 H87 0.948 . S
H86 C84 0.952 . S
H87 C85 0.948 . S
H88 C77 0.952 . S
H89 C79 0.948 . S
C90 C56 1.395 . S
C90 C60 1.391 . S
C91 C53 1.389 . S
C91 C73 1.392 . S
C92 C63 1.392 . S
C92 C65 1.389 . S
C93 C68 1.395 . S
C93 C70 1.391 . S
H94 C54 0.951 . S
H95 C55 0.950 . S
H96 C61 0.949 . S
H97 C62 0.950 . S
H98 C66 0.951 . S
H99 C67 0.950 . S
H100 C71 0.949 . S
H101 C72 0.950 . S
H102 C76 0.950 . S
H103 C78 0.950 . S
H104 C81 0.950 . S
H105 C83 0.950 . S
C106 C107 1.443 . S
C106 N110 1.376 . S
C106 C144 1.389 . S
C107 C106 1.443 . S
C107 C108 1.340 . S
C107 H147 0.951 . S
C108 C107 1.340 . S
C108 C109 1.439 . S
C108 H148 0.950 . S
C109 C108 1.439 . S
C109 N110 1.374 . S
C109 C143 1.395 . S
N110 C106 1.376 . S
N110 C109 1.374 . S
N110 Co111 2.008 . S
Co111 N110 2.008 . S
Co111 N112 1.995 . S
Co111 N117 2.008 . S
Co111 N122 1.995 . S
Co111 N127 2.282 . S
Co111 N133 2.282 . S
N112 Co111 1.995 . S
N112 C113 1.376 . S
N112 C116 1.383 . S
C113 N112 1.376 . S
C113 C114 1.446 . S
C113 C143 1.391 . S
C114 C113 1.446 . S
C114 C115 1.339 . S
C114 H149 0.949 . S
C115 C114 1.339 . S
C115 C116 1.439 . S
C115 H150 0.950 . S
C116 N112 1.383 . S
C116 C115 1.439 . S
C116 C145 1.392 . S
N117 Co111 2.008 . S
N117 C118 1.376 . S
N117 C121 1.374 . S
C118 N117 1.376 . S
C118 C119 1.443 . S
C118 C145 1.389 . S
C119 C118 1.443 . S
C119 C120 1.340 . S
C119 H151 0.951 . S
C120 C119 1.340 . S
C120 C121 1.439 . S
C120 H152 0.950 . S
C121 N117 1.374 . S
C121 C120 1.439 . S
C121 C146 1.395 . S
N122 Co111 1.995 . S
N122 C123 1.376 . S
N122 C126 1.383 . S
C123 N122 1.376 . S
C123 C124 1.446 . S
C123 C146 1.391 . S
C124 C123 1.446 . S
C124 C125 1.339 . S
C124 H153 0.949 . S
C125 C124 1.339 . S
C125 C126 1.439 . S
C125 H154 0.950 . S
C126 N122 1.383 . S
C126 C125 1.439 . S
C126 C144 1.392 . S
N127 Co111 2.282 . S
N127 C130 1.332 . S
N127 C132 1.332 . S
C128 C129 1.386 . S
C128 C131 1.388 . S
C129 C128 1.386 . S
C129 C130 1.382 . S
C129 H155 0.950 . S
C130 N127 1.332 . S
C130 C129 1.382 . S
C130 H141 0.952 . S
C131 C128 1.388 . S
C131 C132 1.382 . S
C131 H156 0.950 . S
C132 N127 1.332 . S
C132 C131 1.382 . S
C132 H142 0.948 . S
N133 Co111 2.282 . S
N133 C137 1.332 . S
N133 C138 1.332 . S
C134 C135 1.388 . S
C134 C138 1.382 . S
C134 H157 0.950 . S
C135 C134 1.388 . S
C135 C136 1.386 . S
C136 C135 1.386 . S
C136 C137 1.382 . S
C136 H158 0.950 . S
C137 N133 1.332 . S
C137 C136 1.382 . S
C137 H139 0.952 . S
C138 N133 1.332 . S
C138 C134 1.382 . S
C138 H140 0.948 . S
H139 C137 0.952 . S
H140 C138 0.948 . S
H141 C130 0.952 . S
H142 C132 0.948 . S
C143 C109 1.395 . S
C143 C113 1.391 . S
C144 C106 1.389 . S
C144 C126 1.392 . S
C145 C116 1.392 . S
C145 C118 1.389 . S
C146 C121 1.395 . S
C146 C123 1.391 . S
H147 C107 0.951 . S
H148 C108 0.950 . S
H149 C114 0.949 . S
H150 C115 0.950 . S
H151 C119 0.951 . S
H152 C120 0.950 . S
H153 C124 0.949 . S
H154 C125 0.950 . S
H155 C129 0.950 . S
H156 C131 0.950 . S
H157 C134 0.950 . S
H158 C136 0.950 . S
C159 C160 1.443 . S
C159 N163 1.376 . S
C159 C197 1.389 . S
C160 C159 1.443 . S
C160 C161 1.340 . S
C160 H200 0.951 . S
C161 C160 1.340 . S
C161 C162 1.439 . S
C161 H201 0.950 . S
C162 C161 1.439 . S
C162 N163 1.374 . S
C162 C196 1.395 . S
N163 C159 1.376 . S
N163 C162 1.374 . S
N163 Co164 2.008 . S
Co164 N163 2.008 . S
Co164 N165 1.995 . S
Co164 N170 2.008 1_545 S
Co164 N175 1.995 1_545 S
Co164 N180 2.282 1_545 S
Co164 N186 2.282 . S
N165 Co164 1.995 . S
N165 C166 1.376 . S
N165 C169 1.383 . S
C166 N165 1.376 . S
C166 C167 1.446 . S
C166 C196 1.391 . S
C167 C166 1.446 . S
C167 C168 1.339 . S
C167 H202 0.949 . S
C168 C167 1.339 . S
C168 C169 1.439 . S
C168 H203 0.950 . S
C169 N165 1.383 . S
C169 C168 1.439 . S
C169 C198 1.392 1_545 S
N170 Co164 2.008 1_565 S
N170 C171 1.376 . S
N170 C174 1.374 . S
C171 N170 1.376 . S
C171 C172 1.443 . S
C171 C198 1.389 . S
C172 C171 1.443 . S
C172 C173 1.340 . S
C172 H204 0.951 . S
C173 C172 1.340 . S
C173 C174 1.439 . S
C173 H205 0.950 . S
C174 N170 1.374 . S
C174 C173 1.439 . S
C174 C199 1.395 . S
N175 Co164 1.995 1_565 S
N175 C176 1.376 . S
N175 C179 1.383 1_565 S
C176 N175 1.376 . S
C176 C177 1.446 . S
C176 C199 1.391 . S
C177 C176 1.446 . S
C177 C178 1.339 . S
C177 H206 0.949 . S
C178 C177 1.339 . S
C178 C179 1.439 1_565 S
C178 H207 0.950 . S
C179 N175 1.383 1_545 S
C179 C178 1.439 1_545 S
C179 C197 1.392 . S
N180 Co164 2.282 1_565 S
N180 C183 1.332 . S
N180 C185 1.333 . S
C181 C182 1.386 . S
C181 C184 1.388 . S
C182 C181 1.386 . S
C182 C183 1.382 . S
C182 H208 0.950 . S
C183 N180 1.332 . S
C183 C182 1.382 . S
C183 H194 0.952 . S
C184 C181 1.388 . S
C184 C185 1.383 . S
C184 H209 0.950 . S
C185 N180 1.333 . S
C185 C184 1.383 . S
C185 H195 0.947 1_565 S
N186 Co164 2.282 . S
N186 C190 1.332 . S
N186 C191 1.332 . S
C187 C188 1.388 . S
C187 C191 1.382 . S
C187 H210 0.950 . S
C188 C187 1.388 . S
C188 C189 1.386 . S
C189 C188 1.386 . S
C189 C190 1.382 . S
C189 H211 0.950 . S
C190 N186 1.332 . S
C190 C189 1.382 . S
C190 H192 0.952 . S
C191 N186 1.332 . S
C191 C187 1.382 . S
C191 H193 0.948 . S
H192 C190 0.952 . S
H193 C191 0.948 . S
H194 C183 0.952 . S
H195 C185 0.947 1_545 S
C196 C162 1.395 . S
C196 C166 1.391 . S
C197 C159 1.389 . S
C197 C179 1.392 . S
C198 C169 1.392 1_565 S
C198 C171 1.389 . S
C199 C174 1.395 . S
C199 C176 1.391 . S
H200 C160 0.951 . S
H201 C161 0.950 . S
H202 C167 0.949 . S
H203 C168 0.950 . S
H204 C172 0.951 . S
H205 C173 0.950 . S
H206 C177 0.949 . S
H207 C178 0.950 . S
H208 C182 0.950 . S
H209 C184 0.950 . S
H210 C187 0.950 . S
H211 C189 0.950 . S
C212 C213 1.443 1_565 S
C212 N216 1.376 1_565 S
C212 C250 1.389 . S
C213 C212 1.443 1_545 S
C213 C214 1.340 . S
C213 H253 0.951 1_545 S
C214 C213 1.340 . S
C214 C215 1.439 . S
C214 H254 0.950 . S
C215 C214 1.439 . S
C215 N216 1.374 . S
C215 C249 1.395 . S
N216 C212 1.376 1_545 S
N216 C215 1.374 . S
N216 Co217 2.008 1_545 S
Co217 N216 2.008 1_565 S
Co217 N218 1.995 1_565 S
Co217 N223 2.008 . S
Co217 N228 1.995 . S
Co217 N233 2.282 1_565 S
Co217 N239 2.282 . S
N218 Co217 1.995 1_545 S
N218 C219 1.376 . S
N218 C222 1.383 . S
C219 N218 1.376 . S
C219 C220 1.446 . S
C219 C249 1.391 . S
C220 C219 1.446 . S
C220 C221 1.339 . S
C220 H255 0.949 . S
C221 C220 1.339 . S
C221 C222 1.439 . S
C221 H256 0.950 . S
C222 N218 1.383 . S
C222 C221 1.439 . S
C222 C251 1.392 . S
N223 Co217 2.008 . S
N223 C224 1.376 . S
N223 C227 1.374 . S
C224 N223 1.376 . S
C224 C225 1.443 . S
C224 C251 1.389 1_565 S
C225 C224 1.443 . S
C225 C226 1.340 . S
C225 H257 0.951 . S
C226 C225 1.340 . S
C226 C227 1.439 . S
C226 H258 0.950 . S
C227 N223 1.374 . S
C227 C226 1.439 . S
C227 C252 1.395 . S
N228 Co217 1.995 . S
N228 C229 1.376 . S
N228 C232 1.383 . S
C229 N228 1.376 . S
C229 C230 1.446 . S
C229 C252 1.391 . S
C230 C229 1.446 . S
C230 C231 1.339 . S
C230 H259 0.949 . S
C231 C230 1.339 . S
C231 C232 1.439 . S
C231 H260 0.950 . S
C232 N228 1.383 . S
C232 C231 1.439 . S
C232 C250 1.392 . S
N233 Co217 2.282 1_545 S
N233 C236 1.331 1_545 S
N233 C238 1.332 . S
C234 C235 1.386 . S
C234 C237 1.388 . S
C235 C234 1.386 . S
C235 C236 1.381 1_545 S
C235 H261 0.950 . S
C236 N233 1.331 1_565 S
C236 C235 1.381 1_565 S
C236 H247 0.953 . S
C237 C234 1.388 . S
C237 C238 1.382 . S
C237 H262 0.950 . S
C238 N233 1.332 . S
C238 C237 1.382 . S
C238 H248 0.948 . S
N239 Co217 2.282 . S
N239 C243 1.332 . S
N239 C244 1.332 . S
C240 C241 1.388 . S
C240 C244 1.382 . S
C240 H263 0.950 . S
C241 C240 1.388 . S
C241 C242 1.386 . S
C242 C241 1.386 . S
C242 C243 1.382 . S
C242 H264 0.950 . S
C243 N239 1.332 . S
C243 C242 1.382 . S
C243 H245 0.952 . S
C244 N239 1.332 . S
C244 C240 1.382 . S
C244 H246 0.948 . S
H245 C243 0.952 . S
H246 C244 0.948 . S
H247 C236 0.953 . S
H248 C238 0.948 . S
C249 C215 1.395 . S
C249 C219 1.391 . S
C250 C212 1.389 . S
C250 C232 1.392 . S
C251 C222 1.392 . S
C251 C224 1.389 1_545 S
C252 C227 1.395 . S
C252 C229 1.391 . S
H253 C213 0.951 1_565 S
H254 C214 0.950 . S
H255 C220 0.949 . S
H256 C221 0.950 . S
H257 C225 0.951 . S
H258 C226 0.950 . S
H259 C230 0.949 . S
H260 C231 0.950 . S
H261 C235 0.950 . S
H262 C237 0.950 . S
H263 C240 0.950 . S
H264 C242 0.950 . S
C265 C266 1.443 . S
C265 N269 1.376 . S
C265 C303 1.389 . S
C266 C265 1.443 . S
C266 C267 1.340 . S
C266 H306 0.951 . S
C267 C266 1.340 . S
C267 C268 1.439 . S
C267 H307 0.950 . S
C268 C267 1.439 . S
C268 N269 1.374 . S
C268 C302 1.395 . S
N269 C265 1.376 . S
N269 C268 1.374 . S
N269 Co270 2.008 . S
Co270 N269 2.008 . S
Co270 N271 1.995 . S
Co270 N276 2.008 . S
Co270 N281 1.995 . S
Co270 N286 2.282 . S
Co270 N292 2.282 . S
N271 Co270 1.995 . S
N271 C272 1.376 . S
N271 C275 1.383 . S
C272 N271 1.376 . S
C272 C273 1.446 . S
C272 C302 1.391 . S
C273 C272 1.446 . S
C273 C274 1.339 . S
C273 H308 0.949 . S
C274 C273 1.339 . S
C274 C275 1.439 . S
C274 H309 0.950 . S
C275 N271 1.383 . S
C275 C274 1.439 . S
C275 C304 1.392 . S
N276 Co270 2.008 . S
N276 C277 1.376 . S
N276 C280 1.374 . S
C277 N276 1.376 . S
C277 C278 1.443 . S
C277 C304 1.389 . S
C278 C277 1.443 . S
C278 C279 1.340 . S
C278 H310 0.951 . S
C279 C278 1.340 . S
C279 C280 1.439 . S
C279 H311 0.950 . S
C280 N276 1.374 . S
C280 C279 1.439 . S
C280 C305 1.395 . S
N281 Co270 1.995 . S
N281 C282 1.376 . S
N281 C285 1.383 . S
C282 N281 1.376 . S
C282 C283 1.446 . S
C282 C305 1.391 . S
C283 C282 1.446 . S
C283 C284 1.339 . S
C283 H312 0.949 . S
C284 C283 1.339 . S
C284 C285 1.439 . S
C284 H313 0.950 . S
C285 N281 1.383 . S
C285 C284 1.439 . S
C285 C303 1.392 . S
N286 Co270 2.282 . S
N286 C289 1.332 . S
N286 C291 1.332 . S
C287 C288 1.386 . S
C287 C290 1.388 . S
C288 C287 1.386 . S
C288 C289 1.382 . S
C288 H314 0.950 . S
C289 N286 1.332 . S
C289 C288 1.382 . S
C289 H300 0.952 . S
C290 C287 1.388 . S
C290 C291 1.382 . S
C290 H315 0.950 . S
C291 N286 1.332 . S
C291 C290 1.382 . S
C291 H301 0.948 . S
N292 Co270 2.282 . S
N292 C296 1.332 . S
N292 C297 1.332 . S
C293 C294 1.388 . S
C293 C297 1.382 . S
C293 H316 0.950 . S
C294 C293 1.388 . S
C294 C295 1.386 . S
C295 C294 1.386 . S
C295 C296 1.382 . S
C295 H317 0.950 . S
C296 N292 1.332 . S
C296 C295 1.382 . S
C296 H298 0.952 . S
C297 N292 1.332 . S
C297 C293 1.382 . S
C297 H299 0.948 . S
H298 C296 0.952 . S
H299 C297 0.948 . S
H300 C289 0.952 . S
H301 C291 0.948 . S
C302 C268 1.395 . S
C302 C272 1.391 . S
C303 C265 1.389 . S
C303 C285 1.392 . S
C304 C275 1.392 . S
C304 C277 1.389 . S
C305 C280 1.395 . S
C305 C282 1.391 . S
H306 C266 0.951 . S
H307 C267 0.950 . S
H308 C273 0.949 . S
H309 C274 0.950 . S
H310 C278 0.951 . S
H311 C279 0.950 . S
H312 C283 0.949 . S
H313 C284 0.950 . S
H314 C288 0.950 . S
H315 C290 0.950 . S
H316 C293 0.950 . S
H317 C295 0.950 . S
C318 C319 1.443 . S
C318 N322 1.376 . S
C318 C356 1.389 . S
C319 C318 1.443 . S
C319 C320 1.340 . S
C319 H359 0.951 . S
C320 C319 1.340 . S
C320 C321 1.439 . S
C320 H360 0.950 . S
C321 C320 1.439 . S
C321 N322 1.374 . S
C321 C355 1.395 . S
N322 C318 1.376 . S
N322 C321 1.374 . S
N322 Co323 2.008 . S
Co323 N322 2.008 . S
Co323 N324 1.995 . S
Co323 N329 2.008 . S
Co323 N334 1.995 . S
Co323 N339 2.282 . S
Co323 N345 2.282 . S
N324 Co323 1.995 . S
N324 C325 1.376 . S
N324 C328 1.383 . S
C325 N324 1.376 . S
C325 C326 1.446 . S
C325 C355 1.391 . S
C326 C325 1.446 . S
C326 C327 1.339 . S
C326 H361 0.949 . S
C327 C326 1.339 . S
C327 C328 1.439 . S
C327 H362 0.950 . S
C328 N324 1.383 . S
C328 C327 1.439 . S
C328 C357 1.392 . S
N329 Co323 2.008 . S
N329 C330 1.376 . S
N329 C333 1.374 . S
C330 N329 1.376 . S
C330 C331 1.443 . S
C330 C357 1.389 . S
C331 C330 1.443 . S
C331 C332 1.340 . S
C331 H363 0.951 . S
C332 C331 1.340 . S
C332 C333 1.439 . S
C332 H364 0.950 . S
C333 N329 1.374 . S
C333 C332 1.439 . S
C333 C358 1.395 . S
N334 Co323 1.995 . S
N334 C335 1.376 . S
N334 C338 1.383 . S
C335 N334 1.376 . S
C335 C336 1.446 . S
C335 C358 1.391 . S
C336 C335 1.446 . S
C336 C337 1.339 . S
C336 H365 0.949 . S
C337 C336 1.339 . S
C337 C338 1.439 . S
C337 H366 0.950 . S
C338 N334 1.383 . S
C338 C337 1.439 . S
C338 C356 1.392 . S
N339 Co323 2.282 . S
N339 C342 1.332 . S
N339 C344 1.332 . S
C340 C341 1.386 . S
C340 C343 1.388 . S
C341 C340 1.386 . S
C341 C342 1.382 . S
C341 H367 0.950 . S
C342 N339 1.332 . S
C342 C341 1.382 . S
C342 H353 0.952 . S
C343 C340 1.388 . S
C343 C344 1.382 . S
C343 H368 0.950 . S
C344 N339 1.332 . S
C344 C343 1.382 . S
C344 H354 0.948 . S
N345 Co323 2.282 . S
N345 C349 1.332 . S
N345 C350 1.332 . S
C346 C347 1.388 . S
C346 C350 1.382 . S
C346 H369 0.950 . S
C347 C346 1.388 . S
C347 C348 1.386 . S
C348 C347 1.386 . S
C348 C349 1.382 . S
C348 H370 0.950 . S
C349 N345 1.332 . S
C349 C348 1.382 . S
C349 H351 0.952 . S
C350 N345 1.332 . S
C350 C346 1.382 . S
C350 H352 0.948 . S
H351 C349 0.952 . S
H352 C350 0.948 . S
H353 C342 0.952 . S
H354 C344 0.948 . S
C355 C321 1.395 . S
C355 C325 1.391 . S
C356 C318 1.389 . S
C356 C338 1.392 . S
C357 C328 1.392 . S
C357 C330 1.389 . S
C358 C333 1.395 . S
C358 C335 1.391 . S
H359 C319 0.951 . S
H360 C320 0.950 . S
H361 C326 0.949 . S
H362 C327 0.950 . S
H363 C331 0.951 . S
H364 C332 0.950 . S
H365 C336 0.949 . S
H366 C337 0.950 . S
H367 C341 0.950 . S
H368 C343 0.950 . S
H369 C346 0.950 . S
H370 C348 0.950 . S
C371 C372 1.443 1_565 S
C371 N375 1.376 1_565 S
C371 C409 1.389 . S
C372 C371 1.443 1_545 S
C372 C373 1.340 . S
C372 H412 0.951 1_545 S
C373 C372 1.340 . S
C373 C374 1.439 . S
C373 H413 0.950 . S
C374 C373 1.439 . S
C374 N375 1.374 . S
C374 C408 1.395 . S
N375 C371 1.376 1_545 S
N375 C374 1.374 . S
N375 Co376 2.008 1_545 S
Co376 N375 2.008 1_565 S
Co376 N377 1.995 1_565 S
Co376 N382 2.008 . S
Co376 N387 1.995 . S
Co376 N392 2.282 1_565 S
Co376 N398 2.282 . S
N377 Co376 1.995 1_545 S
N377 C378 1.376 . S
N377 C381 1.383 . S
C378 N377 1.376 . S
C378 C379 1.446 . S
C378 C408 1.391 . S
C379 C378 1.446 . S
C379 C380 1.339 . S
C379 H414 0.949 . S
C380 C379 1.339 . S
C380 C381 1.439 . S
C380 H415 0.950 . S
C381 N377 1.383 . S
C381 C380 1.439 . S
C381 C410 1.392 . S
N382 Co376 2.008 . S
N382 C383 1.376 . S
N382 C386 1.374 . S
C383 N382 1.376 . S
C383 C384 1.443 . S
C383 C410 1.389 1_565 S
C384 C383 1.443 . S
C384 C385 1.340 . S
C384 H416 0.951 . S
C385 C384 1.340 . S
C385 C386 1.439 . S
C385 H417 0.950 . S
C386 N382 1.374 . S
C386 C385 1.439 . S
C386 C411 1.395 . S
N387 Co376 1.995 . S
N387 C388 1.376 . S
N387 C391 1.383 . S
C388 N387 1.376 . S
C388 C389 1.446 . S
C388 C411 1.391 . S
C389 C388 1.446 . S
C389 C390 1.339 . S
C389 H418 0.949 . S
C390 C389 1.339 . S
C390 C391 1.439 . S
C390 H419 0.950 . S
C391 N387 1.383 . S
C391 C390 1.439 . S
C391 C409 1.392 . S
N392 Co376 2.282 1_545 S
N392 C395 1.331 . S
N392 C397 1.332 . S
C393 C394 1.386 . S
C393 C396 1.388 . S
C394 C393 1.386 . S
C394 C395 1.381 . S
C394 H420 0.950 . S
C395 N392 1.331 . S
C395 C394 1.381 . S
C395 H406 0.953 1_545 S
C396 C393 1.388 . S
C396 C397 1.382 . S
C396 H421 0.950 . S
C397 N392 1.332 . S
C397 C396 1.382 . S
C397 H407 0.948 . S
N398 Co376 2.282 . S
N398 C402 1.332 . S
N398 C403 1.332 . S
C399 C400 1.388 . S
C399 C403 1.382 . S
C399 H422 0.950 . S
C400 C399 1.388 . S
C400 C401 1.386 . S
C401 C400 1.386 . S
C401 C402 1.382 . S
C401 H423 0.950 . S
C402 N398 1.332 . S
C402 C401 1.382 . S
C402 H404 0.952 . S
C403 N398 1.332 . S
C403 C399 1.382 . S
C403 H405 0.948 . S
H404 C402 0.952 . S
H405 C403 0.948 . S
H406 C395 0.953 1_565 S
H407 C397 0.948 . S
C408 C374 1.395 . S
C408 C378 1.391 . S
C409 C371 1.389 . S
C409 C391 1.392 . S
C410 C381 1.392 . S
C410 C383 1.389 1_545 S
C411 C386 1.395 . S
C411 C388 1.391 . S
H412 C372 0.951 1_565 S
H413 C373 0.950 . S
H414 C379 0.949 . S
H415 C380 0.950 . S
H416 C384 0.951 . S
H417 C385 0.950 . S
H418 C389 0.949 . S
H419 C390 0.950 . S
H420 C394 0.950 . S
H421 C396 0.950 . S
H422 C399 0.950 . S
H423 C401 0.950 . S
C424 C425 1.443 . S
C424 N428 1.376 . S
C424 C462 1.389 . S
C425 C424 1.443 . S
C425 C426 1.340 . S
C425 H465 0.951 . S
C426 C425 1.340 . S
C426 C427 1.439 . S
C426 H466 0.950 . S
C427 C426 1.439 . S
C427 N428 1.374 . S
C427 C461 1.395 . S
N428 C424 1.376 . S
N428 C427 1.374 . S
N428 Co429 2.008 . S
Co429 N428 2.008 . S
Co429 N430 1.995 . S
Co429 N435 2.008 . S
Co429 N440 1.995 . S
Co429 N445 2.282 . S
Co429 N451 2.282 . S
N430 Co429 1.995 . S
N430 C431 1.376 . S
N430 C434 1.383 . S
C431 N430 1.376 . S
C431 C432 1.446 . S
C431 C461 1.391 . S
C432 C431 1.446 . S
C432 C433 1.339 . S
C432 H467 0.949 . S
C433 C432 1.339 . S
C433 C434 1.439 . S
C433 H468 0.950 . S
C434 N430 1.383 . S
C434 C433 1.439 . S
C434 C463 1.392 . S
N435 Co429 2.008 . S
N435 C436 1.376 . S
N435 C439 1.374 . S
C436 N435 1.376 . S
C436 C437 1.443 . S
C436 C463 1.389 . S
C437 C436 1.443 . S
C437 C438 1.340 . S
C437 H469 0.951 . S
C438 C437 1.340 . S
C438 C439 1.439 . S
C438 H470 0.950 . S
C439 N435 1.374 . S
C439 C438 1.439 . S
C439 C464 1.395 . S
N440 Co429 1.995 . S
N440 C441 1.376 . S
N440 C444 1.383 . S
C441 N440 1.376 . S
C441 C442 1.446 . S
C441 C464 1.391 . S
C442 C441 1.446 . S
C442 C443 1.339 . S
C442 H471 0.949 . S
C443 C442 1.339 . S
C443 C444 1.439 . S
C443 H472 0.950 . S
C444 N440 1.383 . S
C444 C443 1.439 . S
C444 C462 1.392 . S
N445 Co429 2.282 . S
N445 C448 1.332 . S
N445 C450 1.332 . S
C446 C447 1.386 . S
C446 C449 1.388 . S
C447 C446 1.386 . S
C447 C448 1.382 . S
C447 H473 0.950 . S
C448 N445 1.332 . S
C448 C447 1.382 . S
C448 H459 0.952 . S
C449 C446 1.388 . S
C449 C450 1.382 . S
C449 H474 0.950 . S
C450 N445 1.332 . S
C450 C449 1.382 . S
C450 H460 0.948 . S
N451 Co429 2.282 . S
N451 C455 1.332 . S
N451 C456 1.332 . S
C452 C453 1.388 . S
C452 C456 1.382 . S
C452 H475 0.950 . S
C453 C452 1.388 . S
C453 C454 1.386 . S
C454 C453 1.386 . S
C454 C455 1.382 . S
C454 H476 0.950 . S
C455 N451 1.332 . S
C455 C454 1.382 . S
C455 H457 0.952 . S
C456 N451 1.332 . S
C456 C452 1.382 . S
C456 H458 0.948 . S
H457 C455 0.952 . S
H458 C456 0.948 . S
H459 C448 0.952 . S
H460 C450 0.948 . S
C461 C427 1.395 . S
C461 C431 1.391 . S
C462 C424 1.389 . S
C462 C444 1.392 . S
C463 C434 1.392 . S
C463 C436 1.389 . S
C464 C439 1.395 . S
C464 C441 1.391 . S
H465 C425 0.951 . S
H466 C426 0.950 . S
H467 C432 0.949 . S
H468 C433 0.950 . S
H469 C437 0.951 . S
H470 C438 0.950 . S
H471 C442 0.949 . S
H472 C443 0.950 . S
H473 C447 0.950 . S
H474 C449 0.950 . S
H475 C452 0.950 . S
H476 C454 0.950 . S
C477 C478 1.443 . S
C477 N481 1.376 . S
C477 C515 1.389 . S
C478 C477 1.443 . S
C478 C479 1.340 . S
C478 H518 0.951 . S
C479 C478 1.340 . S
C479 C480 1.439 . S
C479 H519 0.950 . S
C480 C479 1.439 . S
C480 N481 1.374 . S
C480 C514 1.395 . S
N481 C477 1.376 . S
N481 C480 1.374 . S
N481 Co482 2.008 . S
Co482 N481 2.008 . S
Co482 N483 1.995 . S
Co482 N488 2.008 . S
Co482 N493 1.995 . S
Co482 N498 2.282 . S
Co482 N504 2.282 . S
N483 Co482 1.995 . S
N483 C484 1.376 . S
N483 C487 1.383 . S
C484 N483 1.376 . S
C484 C485 1.446 . S
C484 C514 1.391 . S
C485 C484 1.446 . S
C485 C486 1.339 . S
C485 H520 0.949 . S
C486 C485 1.339 . S
C486 C487 1.439 . S
C486 H521 0.950 . S
C487 N483 1.383 . S
C487 C486 1.439 . S
C487 C516 1.392 . S
N488 Co482 2.008 . S
N488 C489 1.376 . S
N488 C492 1.374 . S
C489 N488 1.376 . S
C489 C490 1.443 . S
C489 C516 1.389 . S
C490 C489 1.443 . S
C490 C491 1.340 . S
C490 H522 0.951 . S
C491 C490 1.340 . S
C491 C492 1.439 . S
C491 H523 0.950 . S
C492 N488 1.374 . S
C492 C491 1.439 . S
C492 C517 1.395 . S
N493 Co482 1.995 . S
N493 C494 1.376 . S
N493 C497 1.383 . S
C494 N493 1.376 . S
C494 C495 1.446 . S
C494 C517 1.391 . S
C495 C494 1.446 . S
C495 C496 1.339 . S
C495 H524 0.949 . S
C496 C495 1.339 . S
C496 C497 1.439 . S
C496 H525 0.950 . S
C497 N493 1.383 . S
C497 C496 1.439 . S
C497 C515 1.392 . S
N498 Co482 2.282 . S
N498 C501 1.332 . S
N498 C503 1.332 . S
C499 C500 1.386 . S
C499 C502 1.388 . S
C500 C499 1.386 . S
C500 C501 1.382 . S
C500 H526 0.950 . S
C501 N498 1.332 . S
C501 C500 1.382 . S
C501 H512 0.952 . S
C502 C499 1.388 . S
C502 C503 1.382 . S
C502 H527 0.950 . S
C503 N498 1.332 . S
C503 C502 1.382 . S
C503 H513 0.948 . S
N504 Co482 2.282 . S
N504 C508 1.332 . S
N504 C509 1.332 . S
C505 C506 1.388 . S
C505 C509 1.382 . S
C505 H528 0.950 . S
C506 C505 1.388 . S
C506 C507 1.386 . S
C507 C506 1.386 . S
C507 C508 1.382 . S
C507 H529 0.950 . S
C508 N504 1.332 . S
C508 C507 1.382 . S
C508 H510 0.952 . S
C509 N504 1.332 . S
C509 C505 1.382 . S
C509 H511 0.948 . S
H510 C508 0.952 . S
H511 C509 0.948 . S
H512 C501 0.952 . S
H513 C503 0.948 . S
C514 C480 1.395 . S
C514 C484 1.391 . S
C515 C477 1.389 . S
C515 C497 1.392 . S
C516 C487 1.392 . S
C516 C489 1.389 . S
C517 C492 1.395 . S
C517 C494 1.391 . S
H518 C478 0.951 . S
H519 C479 0.950 . S
H520 C485 0.949 . S
H521 C486 0.950 . S
H522 C490 0.951 . S
H523 C491 0.950 . S
H524 C495 0.949 . S
H525 C496 0.950 . S
H526 C500 0.950 . S
H527 C502 0.950 . S
H528 C505 0.950 . S
H529 C507 0.950 . S
C530 C531 1.443 . S
C530 N534 1.376 . S
C530 C568 1.389 . S
C531 C530 1.443 . S
C531 C532 1.340 . S
C531 H571 0.951 . S
C532 C531 1.340 . S
C532 C533 1.439 . S
C532 H572 0.950 . S
C533 C532 1.439 . S
C533 N534 1.374 . S
C533 C567 1.395 . S
N534 C530 1.376 . S
N534 C533 1.374 . S
N534 Co535 2.008 . S
Co535 N534 2.008 . S
Co535 N536 1.995 . S
Co535 N541 2.008 . S
Co535 N546 1.995 . S
Co535 N551 2.282 . S
Co535 N557 2.282 . S
N536 Co535 1.995 . S
N536 C537 1.376 . S
N536 C540 1.383 . S
C537 N536 1.376 . S
C537 C538 1.446 . S
C537 C567 1.391 . S
C538 C537 1.446 . S
C538 C539 1.339 . S
C538 H573 0.949 . S
C539 C538 1.339 . S
C539 C540 1.439 . S
C539 H574 0.950 . S
C540 N536 1.383 . S
C540 C539 1.439 . S
C540 C569 1.392 . S
N541 Co535 2.008 . S
N541 C542 1.376 . S
N541 C545 1.374 . S
C542 N541 1.376 . S
C542 C543 1.443 . S
C542 C569 1.389 . S
C543 C542 1.443 . S
C543 C544 1.340 . S
C543 H575 0.951 . S
C544 C543 1.340 . S
C544 C545 1.439 . S
C544 H576 0.950 . S
C545 N541 1.374 . S
C545 C544 1.439 . S
C545 C570 1.395 . S
N546 Co535 1.995 . S
N546 C547 1.376 . S
N546 C550 1.383 . S
C547 N546 1.376 . S
C547 C548 1.446 . S
C547 C570 1.391 . S
C548 C547 1.446 . S
C548 C549 1.339 . S
C548 H577 0.949 . S
C549 C548 1.339 . S
C549 C550 1.439 . S
C549 H578 0.950 . S
C550 N546 1.383 . S
C550 C549 1.439 . S
C550 C568 1.392 . S
N551 Co535 2.282 . S
N551 C554 1.332 . S
N551 C556 1.332 . S
C552 C553 1.386 . S
C552 C555 1.388 . S
C553 C552 1.386 . S
C553 C554 1.382 . S
C553 H579 0.950 . S
C554 N551 1.332 . S
C554 C553 1.382 . S
C554 H565 0.952 . S
C555 C552 1.388 . S
C555 C556 1.382 . S
C555 H580 0.950 . S
C556 N551 1.332 . S
C556 C555 1.382 . S
C556 H566 0.948 . S
N557 Co535 2.282 . S
N557 C561 1.332 . S
N557 C562 1.332 . S
C558 C559 1.388 . S
C558 C562 1.382 . S
C558 H581 0.950 . S
C559 C558 1.388 . S
C559 C560 1.386 . S
C560 C559 1.386 . S
C560 C561 1.382 . S
C560 H582 0.950 . S
C561 N557 1.332 . S
C561 C560 1.382 . S
C561 H563 0.952 . S
C562 N557 1.332 . S
C562 C558 1.382 . S
C562 H564 0.948 . S
H563 C561 0.952 . S
H564 C562 0.948 . S
H565 C554 0.952 . S
H566 C556 0.948 . S
C567 C533 1.395 . S
C567 C537 1.391 . S
C568 C530 1.389 . S
C568 C550 1.392 . S
C569 C540 1.392 . S
C569 C542 1.389 . S
C570 C545 1.395 . S
C570 C547 1.391 . S
H571 C531 0.951 . S
H572 C532 0.950 . S
H573 C538 0.949 . S
H574 C539 0.950 . S
H575 C543 0.951 . S
H576 C544 0.950 . S
H577 C548 0.949 . S
H578 C549 0.950 . S
H579 C553 0.950 . S
H580 C555 0.950 . S
H581 C558 0.950 . S
H582 C560 0.950 . S
C583 C584 1.443 . S
C583 N587 1.376 . S
C583 C621 1.389 . S
C584 C583 1.443 . S
C584 C585 1.340 . S
C584 H624 0.951 . S
C585 C584 1.340 . S
C585 C586 1.439 . S
C585 H625 0.950 . S
C586 C585 1.439 . S
C586 N587 1.374 . S
C586 C620 1.395 . S
N587 C583 1.376 . S
N587 C586 1.374 . S
N587 Co588 2.008 . S
Co588 N587 2.008 . S
Co588 N589 1.995 . S
Co588 N594 2.008 . S
Co588 N599 1.995 . S
Co588 N604 2.282 . S
Co588 N610 2.282 . S
N589 Co588 1.995 . S
N589 C590 1.376 . S
N589 C593 1.383 . S
C590 N589 1.376 . S
C590 C591 1.446 . S
C590 C620 1.391 . S
C591 C590 1.446 . S
C591 C592 1.339 . S
C591 H626 0.949 . S
C592 C591 1.339 . S
C592 C593 1.439 . S
C592 H627 0.950 . S
C593 N589 1.383 . S
C593 C592 1.439 . S
C593 C622 1.392 . S
N594 Co588 2.008 . S
N594 C595 1.376 . S
N594 C598 1.374 . S
C595 N594 1.376 . S
C595 C596 1.443 . S
C595 C622 1.389 . S
C596 C595 1.443 . S
C596 C597 1.340 . S
C596 H628 0.951 . S
C597 C596 1.340 . S
C597 C598 1.439 . S
C597 H629 0.950 . S
C598 N594 1.374 . S
C598 C597 1.439 . S
C598 C623 1.395 . S
N599 Co588 1.995 . S
N599 C600 1.376 . S
N599 C603 1.383 . S
C600 N599 1.376 . S
C600 C601 1.446 . S
C600 C623 1.391 . S
C601 C600 1.446 . S
C601 C602 1.339 . S
C601 H630 0.949 . S
C602 C601 1.339 . S
C602 C603 1.439 . S
C602 H631 0.950 . S
C603 N599 1.383 . S
C603 C602 1.439 . S
C603 C621 1.392 . S
N604 Co588 2.282 . S
N604 C607 1.332 . S
N604 C609 1.332 . S
C605 C606 1.386 . S
C605 C608 1.388 . S
C606 C605 1.386 . S
C606 C607 1.382 . S
C606 H632 0.950 . S
C607 N604 1.332 . S
C607 C606 1.382 . S
C607 H618 0.952 . S
C608 C605 1.388 . S
C608 C609 1.382 . S
C608 H633 0.950 . S
C609 N604 1.332 . S
C609 C608 1.382 . S
C609 H619 0.948 . S
N610 Co588 2.282 . S
N610 C614 1.332 . S
N610 C615 1.332 . S
C611 C612 1.388 . S
C611 C615 1.382 . S
C611 H634 0.950 . S
C612 C611 1.388 . S
C612 C613 1.386 . S
C613 C612 1.386 . S
C613 C614 1.382 . S
C613 H635 0.950 . S
C614 N610 1.332 . S
C614 C613 1.382 . S
C614 H616 0.952 . S
C615 N610 1.332 . S
C615 C611 1.382 . S
C615 H617 0.948 . S
H616 C614 0.952 . S
H617 C615 0.948 . S
H618 C607 0.952 . S
H619 C609 0.948 . S
C620 C586 1.395 . S
C620 C590 1.391 . S
C621 C583 1.389 . S
C621 C603 1.392 . S
C622 C593 1.392 . S
C622 C595 1.389 . S
C623 C598 1.395 . S
C623 C600 1.391 . S
H624 C584 0.951 . S
H625 C585 0.950 . S
H626 C591 0.949 . S
H627 C592 0.950 . S
H628 C596 0.951 . S
H629 C597 0.950 . S
H630 C601 0.949 . S
H631 C602 0.950 . S
H632 C606 0.950 . S
H633 C608 0.950 . S
H634 C611 0.950 . S
H635 C613 0.950 . S
C636 C637 1.443 . S
C636 N640 1.376 . S
C636 C674 1.389 . S
C637 C636 1.443 . S
C637 C638 1.340 . S
C637 H677 0.951 . S
C638 C637 1.340 . S
C638 C639 1.439 . S
C638 H678 0.950 . S
C639 C638 1.439 . S
C639 N640 1.374 . S
C639 C673 1.395 . S
N640 C636 1.376 . S
N640 C639 1.374 . S
N640 Co641 2.008 . S
Co641 N640 2.008 . S
Co641 N642 1.995 . S
Co641 N647 2.008 . S
Co641 N652 1.995 . S
Co641 N657 2.282 . S
Co641 N663 2.282 . S
N642 Co641 1.995 . S
N642 C643 1.376 . S
N642 C646 1.383 . S
C643 N642 1.376 . S
C643 C644 1.446 . S
C643 C673 1.391 . S
C644 C643 1.446 . S
C644 C645 1.339 . S
C644 H679 0.949 . S
C645 C644 1.339 . S
C645 C646 1.439 . S
C645 H680 0.950 . S
C646 N642 1.383 . S
C646 C645 1.439 . S
C646 C675 1.392 . S
N647 Co641 2.008 . S
N647 C648 1.376 . S
N647 C651 1.374 . S
C648 N647 1.376 . S
C648 C649 1.443 . S
C648 C675 1.389 . S
C649 C648 1.443 . S
C649 C650 1.340 . S
C649 H681 0.951 . S
C650 C649 1.340 . S
C650 C651 1.439 . S
C650 H682 0.950 . S
C651 N647 1.374 . S
C651 C650 1.439 . S
C651 C676 1.395 . S
N652 Co641 1.995 . S
N652 C653 1.376 . S
N652 C656 1.383 . S
C653 N652 1.376 . S
C653 C654 1.446 . S
C653 C676 1.391 . S
C654 C653 1.446 . S
C654 C655 1.339 . S
C654 H683 0.949 . S
C655 C654 1.339 . S
C655 C656 1.439 . S
C655 H684 0.950 . S
C656 N652 1.383 . S
C656 C655 1.439 . S
C656 C674 1.392 . S
N657 Co641 2.282 . S
N657 C660 1.332 . S
N657 C662 1.332 . S
C658 C659 1.386 . S
C658 C661 1.388 . S
C659 C658 1.386 . S
C659 C660 1.382 . S
C659 H685 0.950 . S
C660 N657 1.332 . S
C660 C659 1.382 . S
C660 H671 0.952 . S
C661 C658 1.388 . S
C661 C662 1.382 . S
C661 H686 0.950 . S
C662 N657 1.332 . S
C662 C661 1.382 . S
C662 H672 0.948 . S
N663 Co641 2.282 . S
N663 C667 1.332 . S
N663 C668 1.332 . S
C664 C665 1.388 . S
C664 C668 1.382 . S
C664 H687 0.950 . S
C665 C664 1.388 . S
C665 C666 1.386 . S
C666 C665 1.386 . S
C666 C667 1.382 . S
C666 H688 0.950 . S
C667 N663 1.332 . S
C667 C666 1.382 . S
C667 H669 0.952 . S
C668 N663 1.332 . S
C668 C664 1.382 . S
C668 H670 0.948 . S
H669 C667 0.952 . S
H670 C668 0.948 . S
H671 C660 0.952 . S
H672 C662 0.948 . S
C673 C639 1.395 . S
C673 C643 1.391 . S
C674 C636 1.389 . S
C674 C656 1.392 . S
C675 C646 1.392 . S
C675 C648 1.389 . S
C676 C651 1.395 . S
C676 C653 1.391 . S
H677 C637 0.951 . S
H678 C638 0.950 . S
H679 C644 0.949 . S
H680 C645 0.950 . S
H681 C649 0.951 . S
H682 C650 0.950 . S
H683 C654 0.949 . S
H684 C655 0.950 . S
H685 C659 0.950 . S
H686 C661 0.950 . S
H687 C664 0.950 . S
H688 C666 0.950 . S
C689 C690 1.443 . S
C689 N693 1.376 . S
C689 C727 1.389 . S
C690 C689 1.443 . S
C690 C691 1.340 . S
C690 H730 0.951 . S
C691 C690 1.340 . S
C691 C692 1.439 . S
C691 H731 0.950 . S
C692 C691 1.439 . S
C692 N693 1.374 . S
C692 C726 1.395 . S
N693 C689 1.376 . S
N693 C692 1.374 . S
N693 Co694 2.008 . S
Co694 N693 2.008 . S
Co694 N695 1.995 . S
Co694 N700 2.008 . S
Co694 N705 1.995 . S
Co694 N710 2.282 . S
Co694 N716 2.282 . S
N695 Co694 1.995 . S
N695 C696 1.376 . S
N695 C699 1.383 . S
C696 N695 1.376 . S
C696 C697 1.446 . S
C696 C726 1.391 . S
C697 C696 1.446 . S
C697 C698 1.339 . S
C697 H732 0.949 . S
C698 C697 1.339 . S
C698 C699 1.439 . S
C698 H733 0.950 . S
C699 N695 1.383 . S
C699 C698 1.439 . S
C699 C728 1.392 . S
N700 Co694 2.008 . S
N700 C701 1.376 . S
N700 C704 1.374 . S
C701 N700 1.376 . S
C701 C702 1.443 . S
C701 C728 1.389 . S
C702 C701 1.443 . S
C702 C703 1.340 . S
C702 H734 0.951 . S
C703 C702 1.340 . S
C703 C704 1.439 . S
C703 H735 0.950 . S
C704 N700 1.374 . S
C704 C703 1.439 . S
C704 C729 1.395 . S
N705 Co694 1.995 . S
N705 C706 1.376 . S
N705 C709 1.383 . S
C706 N705 1.376 . S
C706 C707 1.446 . S
C706 C729 1.391 . S
C707 C706 1.446 . S
C707 C708 1.339 . S
C707 H736 0.949 . S
C708 C707 1.339 . S
C708 C709 1.439 . S
C708 H737 0.950 . S
C709 N705 1.383 . S
C709 C708 1.439 . S
C709 C727 1.392 . S
N710 Co694 2.282 . S
N710 C713 1.332 . S
N710 C715 1.332 . S
C711 C712 1.386 . S
C711 C714 1.388 . S
C712 C711 1.386 . S
C712 C713 1.382 . S
C712 H738 0.950 . S
C713 N710 1.332 . S
C713 C712 1.382 . S
C713 H724 0.952 . S
C714 C711 1.388 . S
C714 C715 1.382 . S
C714 H739 0.950 . S
C715 N710 1.332 . S
C715 C714 1.382 . S
C715 H725 0.948 . S
N716 Co694 2.282 . S
N716 C720 1.332 . S
N716 C721 1.332 . S
C717 C718 1.388 . S
C717 C721 1.382 . S
C717 H740 0.950 . S
C718 C717 1.388 . S
C718 C719 1.386 . S
C719 C718 1.386 . S
C719 C720 1.382 . S
C719 H741 0.950 . S
C720 N716 1.332 . S
C720 C719 1.382 . S
C720 H722 0.952 . S
C721 N716 1.332 . S
C721 C717 1.382 . S
C721 H723 0.948 . S
H722 C720 0.952 . S
H723 C721 0.948 . S
H724 C713 0.952 . S
H725 C715 0.948 . S
C726 C692 1.395 . S
C726 C696 1.391 . S
C727 C689 1.389 . S
C727 C709 1.392 . S
C728 C699 1.392 . S
C728 C701 1.389 . S
C729 C704 1.395 . S
C729 C706 1.391 . S
H730 C690 0.951 . S
H731 C691 0.950 . S
H732 C697 0.949 . S
H733 C698 0.950 . S
H734 C702 0.951 . S
H735 C703 0.950 . S
H736 C707 0.949 . S
H737 C708 0.950 . S
H738 C712 0.950 . S
H739 C714 0.950 . S
H740 C717 0.950 . S
H741 C719 0.950 . S
C742 C743 1.443 . S
C742 N746 1.376 . S
C742 C780 1.389 . S
C743 C742 1.443 . S
C743 C744 1.340 . S
C743 H783 0.951 . S
C744 C743 1.340 . S
C744 C745 1.439 . S
C744 H784 0.950 . S
C745 C744 1.439 . S
C745 N746 1.374 . S
C745 C779 1.395 . S
N746 C742 1.376 . S
N746 C745 1.374 . S
N746 Co747 2.008 . S
Co747 N746 2.008 . S
Co747 N748 1.995 . S
Co747 N753 2.008 . S
Co747 N758 1.995 . S
Co747 N763 2.282 . S
Co747 N769 2.282 . S
N748 Co747 1.995 . S
N748 C749 1.376 . S
N748 C752 1.383 . S
C749 N748 1.376 . S
C749 C750 1.446 . S
C749 C779 1.391 . S
C750 C749 1.446 . S
C750 C751 1.339 . S
C750 H785 0.949 . S
C751 C750 1.339 . S
C751 C752 1.439 . S
C751 H786 0.950 . S
C752 N748 1.383 . S
C752 C751 1.439 . S
C752 C781 1.392 . S
N753 Co747 2.008 . S
N753 C754 1.376 . S
N753 C757 1.374 . S
C754 N753 1.376 . S
C754 C755 1.443 . S
C754 C781 1.389 . S
C755 C754 1.443 . S
C755 C756 1.340 . S
C755 H787 0.951 . S
C756 C755 1.340 . S
C756 C757 1.439 . S
C756 H788 0.950 . S
C757 N753 1.374 . S
C757 C756 1.439 . S
C757 C782 1.395 . S
N758 Co747 1.995 . S
N758 C759 1.376 . S
N758 C762 1.383 . S
C759 N758 1.376 . S
C759 C760 1.446 . S
C759 C782 1.391 . S
C760 C759 1.446 . S
C760 C761 1.339 . S
C760 H789 0.949 . S
C761 C760 1.339 . S
C761 C762 1.439 . S
C761 H790 0.950 . S
C762 N758 1.383 . S
C762 C761 1.439 . S
C762 C780 1.392 . S
N763 Co747 2.282 . S
N763 C766 1.332 . S
N763 C768 1.332 . S
C764 C765 1.386 . S
C764 C767 1.388 . S
C765 C764 1.386 . S
C765 C766 1.382 . S
C765 H791 0.950 . S
C766 N763 1.332 . S
C766 C765 1.382 . S
C766 H777 0.952 . S
C767 C764 1.388 . S
C767 C768 1.382 . S
C767 H792 0.950 . S
C768 N763 1.332 . S
C768 C767 1.382 . S
C768 H778 0.948 . S
N769 Co747 2.282 . S
N769 C773 1.332 . S
N769 C774 1.332 . S
C770 C771 1.388 . S
C770 C774 1.382 . S
C770 H793 0.950 . S
C771 C770 1.388 . S
C771 C772 1.386 . S
C772 C771 1.386 . S
C772 C773 1.382 . S
C772 H794 0.950 . S
C773 N769 1.332 . S
C773 C772 1.382 . S
C773 H775 0.952 . S
C774 N769 1.332 . S
C774 C770 1.382 . S
C774 H776 0.948 . S
H775 C773 0.952 . S
H776 C774 0.948 . S
H777 C766 0.952 . S
H778 C768 0.948 . S
C779 C745 1.395 . S
C779 C749 1.391 . S
C780 C742 1.389 . S
C780 C762 1.392 . S
C781 C752 1.392 . S
C781 C754 1.389 . S
C782 C757 1.395 . S
C782 C759 1.391 . S
H783 C743 0.951 . S
H784 C744 0.950 . S
H785 C750 0.949 . S
H786 C751 0.950 . S
H787 C755 0.951 . S
H788 C756 0.950 . S
H789 C760 0.949 . S
H790 C761 0.950 . S
H791 C765 0.950 . S
H792 C767 0.950 . S
H793 C770 0.950 . S
H794 C772 0.950 . S
C795 C796 1.443 . S
C795 N799 1.376 . S
C795 C833 1.389 . S
C796 C795 1.443 . S
C796 C797 1.340 . S
C796 H836 0.951 . S
C797 C796 1.340 . S
C797 C798 1.439 . S
C797 H837 0.950 . S
C798 C797 1.439 . S
C798 N799 1.374 . S
C798 C832 1.395 . S
N799 C795 1.376 . S
N799 C798 1.374 . S
N799 Co800 2.008 . S
Co800 N799 2.008 . S
Co800 N801 1.995 . S
Co800 N806 2.008 . S
Co800 N811 1.995 . S
Co800 N816 2.282 . S
Co800 N822 2.282 . S
N801 Co800 1.995 . S
N801 C802 1.376 . S
N801 C805 1.383 . S
C802 N801 1.376 . S
C802 C803 1.446 . S
C802 C832 1.391 . S
C803 C802 1.446 . S
C803 C804 1.339 . S
C803 H838 0.949 . S
C804 C803 1.339 . S
C804 C805 1.439 . S
C804 H839 0.950 . S
C805 N801 1.383 . S
C805 C804 1.439 . S
C805 C834 1.392 . S
N806 Co800 2.008 . S
N806 C807 1.376 . S
N806 C810 1.374 . S
C807 N806 1.376 . S
C807 C808 1.443 . S
C807 C834 1.389 . S
C808 C807 1.443 . S
C808 C809 1.340 . S
C808 H840 0.951 . S
C809 C808 1.340 . S
C809 C810 1.439 . S
C809 H841 0.950 . S
C810 N806 1.374 . S
C810 C809 1.439 . S
C810 C835 1.395 . S
N811 Co800 1.995 . S
N811 C812 1.376 . S
N811 C815 1.383 . S
C812 N811 1.376 . S
C812 C813 1.446 . S
C812 C835 1.391 . S
C813 C812 1.446 . S
C813 C814 1.339 . S
C813 H842 0.949 . S
C814 C813 1.339 . S
C814 C815 1.439 . S
C814 H843 0.950 . S
C815 N811 1.383 . S
C815 C814 1.439 . S
C815 C833 1.392 . S
N816 Co800 2.282 . S
N816 C819 1.332 . S
N816 C821 1.332 . S
C817 C818 1.386 . S
C817 C820 1.388 . S
C818 C817 1.386 . S
C818 C819 1.382 . S
C818 H844 0.950 . S
C819 N816 1.332 . S
C819 C818 1.382 . S
C819 H830 0.952 . S
C820 C817 1.388 . S
C820 C821 1.382 . S
C820 H845 0.950 . S
C821 N816 1.332 . S
C821 C820 1.382 . S
C821 H831 0.948 . S
N822 Co800 2.282 . S
N822 C826 1.332 . S
N822 C827 1.332 . S
C823 C824 1.388 . S
C823 C827 1.382 . S
C823 H846 0.950 . S
C824 C823 1.388 . S
C824 C825 1.386 . S
C825 C824 1.386 . S
C825 C826 1.382 . S
C825 H847 0.950 . S
C826 N822 1.332 . S
C826 C825 1.382 . S
C826 H828 0.952 . S
C827 N822 1.332 . S
C827 C823 1.382 . S
C827 H829 0.948 . S
H828 C826 0.952 . S
H829 C827 0.948 . S
H830 C819 0.952 . S
H831 C821 0.948 . S
C832 C798 1.395 . S
C832 C802 1.391 . S
C833 C795 1.389 . S
C833 C815 1.392 . S
C834 C805 1.392 . S
C834 C807 1.389 . S
C835 C810 1.395 . S
C835 C812 1.391 . S
H836 C796 0.951 . S
H837 C797 0.950 . S
H838 C803 0.949 . S
H839 C804 0.950 . S
H840 C808 0.951 . S
H841 C809 0.950 . S
H842 C813 0.949 . S
H843 C814 0.950 . S
H844 C818 0.950 . S
H845 C820 0.950 . S
H846 C823 0.950 . S
H847 C825 0.950 . S
C848 C849 1.443 . S
C848 N852 1.376 . S
C848 C886 1.389 1_655 S
C849 C848 1.443 . S
C849 C850 1.340 . S
C849 H889 0.951 . S
C850 C849 1.340 . S
C850 C851 1.439 . S
C850 H890 0.950 . S
C851 C850 1.439 . S
C851 N852 1.374 . S
C851 C885 1.395 . S
N852 C848 1.376 . S
N852 C851 1.374 . S
N852 Co853 2.008 . S
Co853 N852 2.008 . S
Co853 N854 1.995 . S
Co853 N859 2.008 1_645 S
Co853 N864 1.995 1_645 S
Co853 N869 2.282 1_545 S
Co853 N875 2.282 1_655 S
N854 Co853 1.995 . S
N854 C855 1.376 . S
N854 C858 1.383 . S
C855 N854 1.376 . S
C855 C856 1.446 . S
C855 C885 1.391 . S
C856 C855 1.446 . S
C856 C857 1.339 . S
C856 H891 0.949 . S
C857 C856 1.339 . S
C857 C858 1.439 . S
C857 H892 0.950 . S
C858 N854 1.383 . S
C858 C857 1.439 . S
C858 C887 1.392 1_545 S
N859 Co853 2.008 1_465 S
N859 C860 1.376 . S
N859 C863 1.374 . S
C860 N859 1.376 . S
C860 C861 1.443 . S
C860 C887 1.389 1_455 S
C861 C860 1.443 . S
C861 C862 1.340 . S
C861 H893 0.951 . S
C862 C861 1.340 . S
C862 C863 1.439 . S
C862 H894 0.950 . S
C863 N859 1.374 . S
C863 C862 1.439 . S
C863 C888 1.395 . S
N864 Co853 1.995 1_465 S
N864 C865 1.376 . S
N864 C868 1.383 1_565 S
C865 N864 1.376 . S
C865 C866 1.446 . S
C865 C888 1.391 . S
C866 C865 1.446 . S
C866 C867 1.339 . S
C866 H895 0.949 . S
C867 C866 1.339 . S
C867 C868 1.439 1_565 S
C867 H896 0.950 . S
C868 N864 1.383 1_545 S
C868 C867 1.439 1_545 S
C868 C886 1.392 . S
N869 Co853 2.282 1_565 S
N869 C872 1.332 . S
N869 C874 1.332 1_565 S
C870 C871 1.386 . S
C870 C873 1.388 . S
C871 C870 1.386 . S
C871 C872 1.382 . S
C871 H897 0.950 . S
C872 N869 1.332 . S
C872 C871 1.382 . S
C872 H883 0.952 . S
C873 C870 1.388 . S
C873 C874 1.382 1_565 S
C873 H898 0.950 . S
C874 N869 1.332 1_545 S
C874 C873 1.382 1_545 S
C874 H884 0.948 . S
N875 Co853 2.282 1_455 S
N875 C879 1.332 . S
N875 C880 1.332 . S
C876 C877 1.388 . S
C876 C880 1.382 . S
C876 H899 0.950 . S
C877 C876 1.388 . S
C877 C878 1.386 . S
C878 C877 1.386 . S
C878 C879 1.382 . S
C878 H900 0.950 . S
C879 N875 1.332 . S
C879 C878 1.382 . S
C879 H881 0.952 . S
C880 N875 1.332 . S
C880 C876 1.382 . S
C880 H882 0.948 . S
H881 C879 0.952 . S
H882 C880 0.948 . S
H883 C872 0.952 . S
H884 C874 0.948 . S
C885 C851 1.395 . S
C885 C855 1.391 . S
C886 C848 1.389 1_455 S
C886 C868 1.392 . S
C887 C858 1.392 1_565 S
C887 C860 1.389 1_655 S
C888 C863 1.395 . S
C888 C865 1.391 . S
H889 C849 0.951 . S
H890 C850 0.950 . S
H891 C856 0.949 . S
H892 C857 0.950 . S
H893 C861 0.951 . S
H894 C862 0.950 . S
H895 C866 0.949 . S
H896 C867 0.950 . S
H897 C871 0.950 . S
H898 C873 0.950 . S
H899 C876 0.950 . S
H900 C878 0.950 . S
C901 C902 1.443 . S
C901 N905 1.376 . S
C901 C939 1.389 . S
C902 C901 1.443 . S
C902 C903 1.340 . S
C902 H942 0.951 . S
C903 C902 1.340 . S
C903 C904 1.439 . S
C903 H943 0.950 . S
C904 C903 1.439 . S
C904 N905 1.374 . S
C904 C938 1.395 . S
N905 C901 1.376 . S
N905 C904 1.374 . S
N905 Co906 2.008 . S
Co906 N905 2.008 . S
Co906 N907 1.995 . S
Co906 N912 2.008 . S
Co906 N917 1.995 . S
Co906 N922 2.282 . S
Co906 N928 2.282 . S
N907 Co906 1.995 . S
N907 C908 1.376 . S
N907 C911 1.383 . S
C908 N907 1.376 . S
C908 C909 1.446 . S
C908 C938 1.391 . S
C909 C908 1.446 . S
C909 C910 1.339 . S
C909 H944 0.949 . S
C910 C909 1.339 . S
C910 C911 1.439 . S
C910 H945 0.950 . S
C911 N907 1.383 . S
C911 C910 1.439 . S
C911 C940 1.392 . S
N912 Co906 2.008 . S
N912 C913 1.376 . S
N912 C916 1.374 . S
C913 N912 1.376 . S
C913 C914 1.443 . S
C913 C940 1.389 . S
C914 C913 1.443 . S
C914 C915 1.340 . S
C914 H946 0.951 . S
C915 C914 1.340 . S
C915 C916 1.439 . S
C915 H947 0.950 . S
C916 N912 1.374 . S
C916 C915 1.439 . S
C916 C941 1.395 . S
N917 Co906 1.995 . S
N917 C918 1.376 . S
N917 C921 1.383 . S
C918 N917 1.376 . S
C918 C919 1.446 . S
C918 C941 1.391 . S
C919 C918 1.446 . S
C919 C920 1.339 . S
C919 H948 0.949 . S
C920 C919 1.339 . S
C920 C921 1.439 . S
C920 H949 0.950 . S
C921 N917 1.383 . S
C921 C920 1.439 . S
C921 C939 1.392 . S
N922 Co906 2.282 . S
N922 C925 1.332 . S
N922 C927 1.332 . S
C923 C924 1.386 . S
C923 C926 1.388 . S
C924 C923 1.386 . S
C924 C925 1.382 . S
C924 H950 0.950 . S
C925 N922 1.332 . S
C925 C924 1.382 . S
C925 H936 0.952 . S
C926 C923 1.388 . S
C926 C927 1.382 . S
C926 H951 0.950 . S
C927 N922 1.332 . S
C927 C926 1.382 . S
C927 H937 0.948 . S
N928 Co906 2.282 . S
N928 C932 1.332 . S
N928 C933 1.332 . S
C929 C930 1.388 . S
C929 C933 1.382 . S
C929 H952 0.950 . S
C930 C929 1.388 . S
C930 C931 1.386 . S
C931 C930 1.386 . S
C931 C932 1.382 . S
C931 H953 0.950 . S
C932 N928 1.332 . S
C932 C931 1.382 . S
C932 H934 0.952 . S
C933 N928 1.332 . S
C933 C929 1.382 . S
C933 H935 0.948 . S
H934 C932 0.952 . S
H935 C933 0.948 . S
H936 C925 0.952 . S
H937 C927 0.948 . S
C938 C904 1.395 . S
C938 C908 1.391 . S
C939 C901 1.389 . S
C939 C921 1.392 . S
C940 C911 1.392 . S
C940 C913 1.389 . S
C941 C916 1.395 . S
C941 C918 1.391 . S
H942 C902 0.951 . S
H943 C903 0.950 . S
H944 C909 0.949 . S
H945 C910 0.950 . S
H946 C914 0.951 . S
H947 C915 0.950 . S
H948 C919 0.949 . S
H949 C920 0.950 . S
H950 C924 0.950 . S
H951 C926 0.950 . S
H952 C929 0.950 . S
H953 C931 0.950 . S
C954 C955 1.443 . S
C954 N958 1.376 . S
C954 C992 1.389 1_655 S
C955 C954 1.443 . S
C955 C956 1.340 . S
C955 H995 0.951 . S
C956 C955 1.340 . S
C956 C957 1.439 . S
C956 H996 0.950 . S
C957 C956 1.439 . S
C957 N958 1.374 . S
C957 C991 1.395 . S
N958 C954 1.376 . S
N958 C957 1.374 . S
N958 Co959 2.008 . S
Co959 N958 2.008 . S
Co959 N960 1.995 . S
Co959 N965 2.008 1_655 S
Co959 N970 1.995 1_655 S
Co959 N975 2.282 . S
Co959 N981 2.282 1_655 S
N960 Co959 1.995 . S
N960 C961 1.376 . S
N960 C964 1.383 . S
C961 N960 1.376 . S
C961 C962 1.446 . S
C961 C991 1.391 . S
C962 C961 1.446 . S
C962 C963 1.339 . S
C962 H997 0.949 . S
C963 C962 1.339 . S
C963 C964 1.439 . S
C963 H998 0.950 . S
C964 N960 1.383 . S
C964 C963 1.439 . S
C964 C993 1.392 . S
N965 Co959 2.008 1_455 S
N965 C966 1.376 . S
N965 C969 1.374 . S
C966 N965 1.376 . S
C966 C967 1.443 . S
C966 C993 1.389 1_455 S
C967 C966 1.443 . S
C967 C968 1.340 . S
C967 H999 0.951 . S
C968 C967 1.340 . S
C968 C969 1.439 . S
C968 H1000 0.950 . S
C969 N965 1.374 . S
C969 C968 1.439 . S
C969 C994 1.395 . S
N970 Co959 1.995 1_455 S
N970 C971 1.376 . S
N970 C974 1.383 . S
C971 N970 1.376 . S
C971 C972 1.446 . S
C971 C994 1.391 . S
C972 C971 1.446 . S
C972 C973 1.339 . S
C972 H1001 0.949 . S
C973 C972 1.339 . S
C973 C974 1.439 . S
C973 H1002 0.950 . S
C974 N970 1.383 . S
C974 C973 1.439 . S
C974 C992 1.392 . S
N975 Co959 2.282 . S
N975 C978 1.332 . S
N975 C980 1.332 . S
C976 C977 1.386 . S
C976 C979 1.388 . S
C977 C976 1.386 . S
C977 C978 1.382 . S
C977 H1003 0.950 . S
C978 N975 1.332 . S
C978 C977 1.382 . S
C978 H989 0.952 . S
C979 C976 1.388 . S
C979 C980 1.382 . S
C979 H1004 0.950 . S
C980 N975 1.332 . S
C980 C979 1.382 . S
C980 H990 0.948 . S
N981 Co959 2.282 1_455 S
N981 C985 1.332 . S
N981 C986 1.332 . S
C982 C983 1.388 . S
C982 C986 1.382 . S
C982 H1005 0.950 . S
C983 C982 1.388 . S
C983 C984 1.386 . S
C984 C983 1.386 . S
C984 C985 1.382 . S
C984 H1006 0.950 . S
C985 N981 1.332 . S
C985 C984 1.382 . S
C985 H987 0.952 . S
C986 N981 1.332 . S
C986 C982 1.382 . S
C986 H988 0.948 . S
H987 C985 0.952 . S
H988 C986 0.948 . S
H989 C978 0.952 . S
H990 C980 0.948 . S
C991 C957 1.395 . S
C991 C961 1.391 . S
C992 C954 1.389 1_455 S
C992 C974 1.392 . S
C993 C964 1.392 . S
C993 C966 1.389 1_655 S
C994 C969 1.395 . S
C994 C971 1.391 . S
H995 C955 0.951 . S
H996 C956 0.950 . S
H997 C962 0.949 . S
H998 C963 0.950 . S
H999 C967 0.951 . S
H1000 C968 0.950 . S
H1001 C972 0.949 . S
H1002 C973 0.950 . S
H1003 C977 0.950 . S
H1004 C979 0.950 . S
H1005 C982 0.950 . S
H1006 C984 0.950 . S
C1007 C1008 1.443 . S
C1007 N1011 1.376 . S
C1007 C1045 1.389 . S
C1008 C1007 1.443 . S
C1008 C1009 1.340 . S
C1008 H1048 0.951 . S
C1009 C1008 1.340 . S
C1009 C1010 1.439 . S
C1009 H1049 0.950 . S
C1010 C1009 1.439 . S
C1010 N1011 1.374 . S
C1010 C1044 1.395 . S
N1011 C1007 1.376 . S
N1011 C1010 1.374 . S
N1011 Co1012 2.008 . S
Co1012 N1011 2.008 . S
Co1012 N1013 1.995 . S
Co1012 N1018 2.008 1_545 S
Co1012 N1023 1.995 1_545 S
Co1012 N1028 2.282 1_545 S
Co1012 N1034 2.282 . S
N1013 Co1012 1.995 . S
N1013 C1014 1.376 . S
N1013 C1017 1.383 . S
C1014 N1013 1.376 . S
C1014 C1015 1.446 . S
C1014 C1044 1.391 . S
C1015 C1014 1.446 . S
C1015 C1016 1.339 . S
C1015 H1050 0.949 . S
C1016 C1015 1.339 . S
C1016 C1017 1.439 . S
C1016 H1051 0.950 . S
C1017 N1013 1.383 . S
C1017 C1016 1.439 . S
C1017 C1046 1.392 1_545 S
N1018 Co1012 2.008 1_565 S
N1018 C1019 1.376 . S
N1018 C1022 1.374 . S
C1019 N1018 1.376 . S
C1019 C1020 1.443 . S
C1019 C1046 1.389 . S
C1020 C1019 1.443 . S
C1020 C1021 1.340 . S
C1020 H1052 0.951 . S
C1021 C1020 1.340 . S
C1021 C1022 1.439 . S
C1021 H1053 0.950 . S
C1022 N1018 1.374 . S
C1022 C1021 1.439 . S
C1022 C1047 1.395 . S
N1023 Co1012 1.995 1_565 S
N1023 C1024 1.376 . S
N1023 C1027 1.383 1_565 S
C1024 N1023 1.376 . S
C1024 C1025 1.446 . S
C1024 C1047 1.391 . S
C1025 C1024 1.446 . S
C1025 C1026 1.339 . S
C1025 H1054 0.949 . S
C1026 C1025 1.339 . S
C1026 C1027 1.439 1_565 S
C1026 H1055 0.950 . S
C1027 N1023 1.383 1_545 S
C1027 C1026 1.439 1_545 S
C1027 C1045 1.392 . S
N1028 Co1012 2.282 1_565 S
N1028 C1031 1.332 . S
N1028 C1033 1.332 . S
C1029 C1030 1.386 . S
C1029 C1032 1.388 . S
C1030 C1029 1.386 . S
C1030 C1031 1.382 . S
C1030 H1056 0.950 . S
C1031 N1028 1.332 . S
C1031 C1030 1.382 . S
C1031 H1042 0.952 . S
C1032 C1029 1.388 . S
C1032 C1033 1.382 . S
C1032 H1057 0.950 . S
C1033 N1028 1.332 . S
C1033 C1032 1.382 . S
C1033 H1043 0.948 1_565 S
N1034 Co1012 2.282 . S
N1034 C1038 1.332 . S
N1034 C1039 1.332 . S
C1035 C1036 1.388 . S
C1035 C1039 1.382 . S
C1035 H1058 0.950 . S
C1036 C1035 1.388 . S
C1036 C1037 1.386 . S
C1037 C1036 1.386 . S
C1037 C1038 1.382 . S
C1037 H1059 0.950 . S
C1038 N1034 1.332 . S
C1038 C1037 1.382 . S
C1038 H1040 0.952 . S
C1039 N1034 1.332 . S
C1039 C1035 1.382 . S
C1039 H1041 0.948 . S
H1040 C1038 0.952 . S
H1041 C1039 0.948 . S
H1042 C1031 0.952 . S
H1043 C1033 0.948 1_545 S
C1044 C1010 1.395 . S
C1044 C1014 1.391 . S
C1045 C1007 1.389 . S
C1045 C1027 1.392 . S
C1046 C1017 1.392 1_565 S
C1046 C1019 1.389 . S
C1047 C1022 1.395 . S
C1047 C1024 1.391 . S
H1048 C1008 0.951 . S
H1049 C1009 0.950 . S
H1050 C1015 0.949 . S
H1051 C1016 0.950 . S
H1052 C1020 0.951 . S
H1053 C1021 0.950 . S
H1054 C1025 0.949 . S
H1055 C1026 0.950 . S
H1056 C1030 0.950 . S
H1057 C1032 0.950 . S
H1058 C1035 0.950 . S
H1059 C1037 0.950 . S
C1060 C1061 1.443 1_565 S
C1060 N1064 1.376 1_565 S
C1060 C1098 1.389 . S
C1061 C1060 1.443 1_545 S
C1061 C1062 1.340 . S
C1061 H1101 0.951 1_545 S
C1062 C1061 1.340 . S
C1062 C1063 1.439 . S
C1062 H1102 0.950 . S
C1063 C1062 1.439 . S
C1063 N1064 1.374 . S
C1063 C1097 1.395 . S
N1064 C1060 1.376 1_545 S
N1064 C1063 1.374 . S
N1064 Co1065 2.008 1_645 S
Co1065 N1064 2.008 1_465 S
Co1065 N1066 1.995 1_465 S
Co1065 N1071 2.008 . S
Co1065 N1076 1.995 . S
Co1065 N1081 2.282 1_565 S
Co1065 N1087 2.282 1_455 S
N1066 Co1065 1.995 1_645 S
N1066 C1067 1.376 . S
N1066 C1070 1.383 . S
C1067 N1066 1.376 . S
C1067 C1068 1.446 . S
C1067 C1097 1.391 . S
C1068 C1067 1.446 . S
C1068 C1069 1.339 . S
C1068 H1103 0.949 . S
C1069 C1068 1.339 . S
C1069 C1070 1.439 . S
C1069 H1104 0.950 . S
C1070 N1066 1.383 . S
C1070 C1069 1.439 . S
C1070 C1099 1.392 1_655 S
N1071 Co1065 2.008 . S
N1071 C1072 1.376 . S
N1071 C1075 1.374 . S
C1072 N1071 1.376 . S
C1072 C1073 1.443 . S
C1072 C1099 1.389 1_565 S
C1073 C1072 1.443 . S
C1073 C1074 1.340 . S
C1073 H1105 0.951 . S
C1074 C1073 1.340 . S
C1074 C1075 1.439 . S
C1074 H1106 0.950 . S
C1075 N1071 1.374 . S
C1075 C1074 1.439 . S
C1075 C1100 1.395 . S
N1076 Co1065 1.995 . S
N1076 C1077 1.376 . S
N1076 C1080 1.383 . S
C1077 N1076 1.376 . S
C1077 C1078 1.446 . S
C1077 C1100 1.391 . S
C1078 C1077 1.446 . S
C1078 C1079 1.339 . S
C1078 H1107 0.949 . S
C1079 C1078 1.339 . S
C1079 C1080 1.439 . S
C1079 H1108 0.950 . S
C1080 N1076 1.383 . S
C1080 C1079 1.439 . S
C1080 C1098 1.392 1_455 S
N1081 Co1065 2.282 1_545 S
N1081 C1084 1.332 1_545 S
N1081 C1086 1.332 . S
C1082 C1083 1.386 . S
C1082 C1085 1.388 . S
C1083 C1082 1.386 . S
C1083 C1084 1.382 1_545 S
C1083 H1109 0.950 . S
C1084 N1081 1.332 1_565 S
C1084 C1083 1.382 1_565 S
C1084 H1095 0.952 . S
C1085 C1082 1.388 . S
C1085 C1086 1.382 . S
C1085 H1110 0.950 . S
C1086 N1081 1.332 . S
C1086 C1085 1.382 . S
C1086 H1096 0.948 . S
N1087 Co1065 2.282 1_655 S
N1087 C1091 1.332 . S
N1087 C1092 1.332 . S
C1088 C1089 1.388 . S
C1088 C1092 1.382 . S
C1088 H1111 0.950 . S
C1089 C1088 1.388 . S
C1089 C1090 1.386 . S
C1090 C1089 1.386 . S
C1090 C1091 1.382 . S
C1090 H1112 0.950 . S
C1091 N1087 1.332 . S
C1091 C1090 1.382 . S
C1091 H1093 0.952 . S
C1092 N1087 1.332 . S
C1092 C1088 1.382 . S
C1092 H1094 0.948 . S
H1093 C1091 0.952 . S
H1094 C1092 0.948 . S
H1095 C1084 0.952 . S
H1096 C1086 0.948 . S
C1097 C1063 1.395 . S
C1097 C1067 1.391 . S
C1098 C1060 1.389 . S
C1098 C1080 1.392 1_655 S
C1099 C1070 1.392 1_455 S
C1099 C1072 1.389 1_545 S
C1100 C1075 1.395 . S
C1100 C1077 1.391 . S
H1101 C1061 0.951 1_565 S
H1102 C1062 0.950 . S
H1103 C1068 0.949 . S
H1104 C1069 0.950 . S
H1105 C1073 0.951 . S
H1106 C1074 0.950 . S
H1107 C1078 0.949 . S
H1108 C1079 0.950 . S
H1109 C1083 0.950 . S
H1110 C1085 0.950 . S
H1111 C1088 0.950 . S
H1112 C1090 0.950 . S
C1113 C1114 1.443 . S
C1113 N1117 1.376 . S
C1113 C1151 1.389 . S
C1114 C1113 1.443 . S
C1114 C1115 1.340 . S
C1114 H1154 0.951 . S
C1115 C1114 1.340 . S
C1115 C1116 1.439 . S
C1115 H1155 0.950 . S
C1116 C1115 1.439 . S
C1116 N1117 1.374 . S
C1116 C1150 1.395 . S
N1117 C1113 1.376 . S
N1117 C1116 1.374 . S
N1117 Co1118 2.008 . S
Co1118 N1117 2.008 . S
Co1118 N1119 1.995 . S
Co1118 N1124 2.008 . S
Co1118 N1129 1.995 . S
Co1118 N1134 2.282 . S
Co1118 N1140 2.282 . S
N1119 Co1118 1.995 . S
N1119 C1120 1.376 . S
N1119 C1123 1.383 . S
C1120 N1119 1.376 . S
C1120 C1121 1.446 . S
C1120 C1150 1.391 . S
C1121 C1120 1.446 . S
C1121 C1122 1.339 . S
C1121 H1156 0.949 . S
C1122 C1121 1.339 . S
C1122 C1123 1.439 . S
C1122 H1157 0.950 . S
C1123 N1119 1.383 . S
C1123 C1122 1.439 . S
C1123 C1152 1.392 . S
N1124 Co1118 2.008 . S
N1124 C1125 1.376 . S
N1124 C1128 1.374 . S
C1125 N1124 1.376 . S
C1125 C1126 1.443 . S
C1125 C1152 1.389 . S
C1126 C1125 1.443 . S
C1126 C1127 1.340 . S
C1126 H1158 0.951 . S
C1127 C1126 1.340 . S
C1127 C1128 1.439 . S
C1127 H1159 0.950 . S
C1128 N1124 1.374 . S
C1128 C1127 1.439 . S
C1128 C1153 1.395 . S
N1129 Co1118 1.995 . S
N1129 C1130 1.376 . S
N1129 C1133 1.383 . S
C1130 N1129 1.376 . S
C1130 C1131 1.446 . S
C1130 C1153 1.391 . S
C1131 C1130 1.446 . S
C1131 C1132 1.339 . S
C1131 H1160 0.949 . S
C1132 C1131 1.339 . S
C1132 C1133 1.439 . S
C1132 H1161 0.950 . S
C1133 N1129 1.383 . S
C1133 C1132 1.439 . S
C1133 C1151 1.392 . S
N1134 Co1118 2.282 . S
N1134 C1137 1.332 . S
N1134 C1139 1.332 . S
C1135 C1136 1.386 . S
C1135 C1138 1.388 . S
C1136 C1135 1.386 . S
C1136 C1137 1.382 . S
C1136 H1162 0.950 . S
C1137 N1134 1.332 . S
C1137 C1136 1.382 . S
C1137 H1148 0.952 . S
C1138 C1135 1.388 . S
C1138 C1139 1.382 . S
C1138 H1163 0.950 . S
C1139 N1134 1.332 . S
C1139 C1138 1.382 . S
C1139 H1149 0.948 . S
N1140 Co1118 2.282 . S
N1140 C1144 1.332 . S
N1140 C1145 1.332 . S
C1141 C1142 1.388 . S
C1141 C1145 1.382 . S
C1141 H1164 0.950 . S
C1142 C1141 1.388 . S
C1142 C1143 1.386 . S
C1143 C1142 1.386 . S
C1143 C1144 1.382 . S
C1143 H1165 0.950 . S
C1144 N1140 1.332 . S
C1144 C1143 1.382 . S
C1144 H1146 0.952 . S
C1145 N1140 1.332 . S
C1145 C1141 1.382 . S
C1145 H1147 0.948 . S
H1146 C1144 0.952 . S
H1147 C1145 0.948 . S
H1148 C1137 0.952 . S
H1149 C1139 0.948 . S
C1150 C1116 1.395 . S
C1150 C1120 1.391 . S
C1151 C1113 1.389 . S
C1151 C1133 1.392 . S
C1152 C1123 1.392 . S
C1152 C1125 1.389 . S
C1153 C1128 1.395 . S
C1153 C1130 1.391 . S
H1154 C1114 0.951 . S
H1155 C1115 0.950 . S
H1156 C1121 0.949 . S
H1157 C1122 0.950 . S
H1158 C1126 0.951 . S
H1159 C1127 0.950 . S
H1160 C1131 0.949 . S
H1161 C1132 0.950 . S
H1162 C1136 0.950 . S
H1163 C1138 0.950 . S
H1164 C1141 0.950 . S
H1165 C1143 0.950 . S
C1166 C1167 1.443 . S
C1166 N1170 1.376 . S
C1166 C1204 1.389 . S
C1167 C1166 1.443 . S
C1167 C1168 1.340 . S
C1167 H1207 0.951 . S
C1168 C1167 1.340 . S
C1168 C1169 1.439 . S
C1168 H1208 0.950 . S
C1169 C1168 1.439 . S
C1169 N1170 1.374 . S
C1169 C1203 1.395 . S
N1170 C1166 1.376 . S
N1170 C1169 1.374 . S
N1170 Co1171 2.008 1_655 S
Co1171 N1170 2.008 1_455 S
Co1171 N1172 1.995 1_455 S
Co1171 N1177 2.008 . S
Co1171 N1182 1.995 . S
Co1171 N1187 2.282 . S
Co1171 N1193 2.282 1_455 S
N1172 Co1171 1.995 1_655 S
N1172 C1173 1.376 . S
N1172 C1176 1.383 . S
C1173 N1172 1.376 . S
C1173 C1174 1.446 . S
C1173 C1203 1.391 . S
C1174 C1173 1.446 . S
C1174 C1175 1.339 . S
C1174 H1209 0.949 . S
C1175 C1174 1.339 . S
C1175 C1176 1.439 . S
C1175 H1210 0.950 . S
C1176 N1172 1.383 . S
C1176 C1175 1.439 . S
C1176 C1205 1.392 1_655 S
N1177 Co1171 2.008 . S
N1177 C1178 1.376 . S
N1177 C1181 1.374 . S
C1178 N1177 1.376 . S
C1178 C1179 1.443 . S
C1178 C1205 1.389 . S
C1179 C1178 1.443 . S
C1179 C1180 1.340 . S
C1179 H1211 0.951 . S
C1180 C1179 1.340 . S
C1180 C1181 1.439 . S
C1180 H1212 0.950 . S
C1181 N1177 1.374 . S
C1181 C1180 1.439 . S
C1181 C1206 1.395 . S
N1182 Co1171 1.995 . S
N1182 C1183 1.376 . S
N1182 C1186 1.383 . S
C1183 N1182 1.376 . S
C1183 C1184 1.446 . S
C1183 C1206 1.391 . S
C1184 C1183 1.446 . S
C1184 C1185 1.339 . S
C1184 H1213 0.949 . S
C1185 C1184 1.339 . S
C1185 C1186 1.439 . S
C1185 H1214 0.950 . S
C1186 N1182 1.383 . S
C1186 C1185 1.439 . S
C1186 C1204 1.392 1_455 S
N1187 Co1171 2.282 . S
N1187 C1190 1.332 . S
N1187 C1192 1.332 . S
C1188 C1189 1.386 . S
C1188 C1191 1.388 . S
C1189 C1188 1.386 . S
C1189 C1190 1.382 . S
C1189 H1215 0.950 . S
C1190 N1187 1.332 . S
C1190 C1189 1.382 . S
C1190 H1201 0.952 . S
C1191 C1188 1.388 . S
C1191 C1192 1.382 . S
C1191 H1216 0.950 . S
C1192 N1187 1.332 . S
C1192 C1191 1.382 . S
C1192 H1202 0.948 . S
N1193 Co1171 2.282 1_655 S
N1193 C1197 1.332 . S
N1193 C1198 1.332 . S
C1194 C1195 1.388 . S
C1194 C1198 1.382 . S
C1194 H1217 0.950 . S
C1195 C1194 1.388 . S
C1195 C1196 1.386 . S
C1196 C1195 1.386 . S
C1196 C1197 1.382 . S
C1196 H1218 0.950 . S
C1197 N1193 1.332 . S
C1197 C1196 1.382 . S
C1197 H1199 0.952 . S
C1198 N1193 1.332 . S
C1198 C1194 1.382 . S
C1198 H1200 0.948 . S
H1199 C1197 0.952 . S
H1200 C1198 0.948 . S
H1201 C1190 0.952 . S
H1202 C1192 0.948 . S
C1203 C1169 1.395 . S
C1203 C1173 1.391 . S
C1204 C1166 1.389 . S
C1204 C1186 1.392 1_655 S
C1205 C1176 1.392 1_455 S
C1205 C1178 1.389 . S
C1206 C1181 1.395 . S
C1206 C1183 1.391 . S
H1207 C1167 0.951 . S
H1208 C1168 0.950 . S
H1209 C1174 0.949 . S
H1210 C1175 0.950 . S
H1211 C1179 0.951 . S
H1212 C1180 0.950 . S
H1213 C1184 0.949 . S
H1214 C1185 0.950 . S
H1215 C1189 0.950 . S
H1216 C1191 0.950 . S
H1217 C1194 0.950 . S
H1218 C1196 0.950 . S
C1219 C1220 1.443 1_565 S
C1219 N1223 1.376 1_565 S
C1219 C1257 1.389 . S
C1220 C1219 1.443 1_545 S
C1220 C1221 1.340 . S
C1220 H1260 0.951 1_545 S
C1221 C1220 1.340 . S
C1221 C1222 1.439 . S
C1221 H1261 0.950 . S
C1222 C1221 1.439 . S
C1222 N1223 1.374 . S
C1222 C1256 1.395 . S
N1223 C1219 1.376 1_545 S
N1223 C1222 1.374 . S
N1223 Co1224 2.008 1_545 S
Co1224 N1223 2.008 1_565 S
Co1224 N1225 1.995 1_565 S
Co1224 N1230 2.008 . S
Co1224 N1235 1.995 . S
Co1224 N1240 2.282 1_565 S
Co1224 N1246 2.282 . S
N1225 Co1224 1.995 1_545 S
N1225 C1226 1.376 . S
N1225 C1229 1.383 . S
C1226 N1225 1.376 . S
C1226 C1227 1.446 . S
C1226 C1256 1.391 . S
C1227 C1226 1.446 . S
C1227 C1228 1.339 . S
C1227 H1262 0.949 . S
C1228 C1227 1.339 . S
C1228 C1229 1.439 . S
C1228 H1263 0.950 . S
C1229 N1225 1.383 . S
C1229 C1228 1.439 . S
C1229 C1258 1.392 . S
N1230 Co1224 2.008 . S
N1230 C1231 1.376 . S
N1230 C1234 1.374 . S
C1231 N1230 1.376 . S
C1231 C1232 1.443 . S
C1231 C1258 1.389 1_565 S
C1232 C1231 1.443 . S
C1232 C1233 1.340 . S
C1232 H1264 0.951 . S
C1233 C1232 1.340 . S
C1233 C1234 1.439 . S
C1233 H1265 0.950 . S
C1234 N1230 1.374 . S
C1234 C1233 1.439 . S
C1234 C1259 1.395 . S
N1235 Co1224 1.995 . S
N1235 C1236 1.376 . S
N1235 C1239 1.383 . S
C1236 N1235 1.376 . S
C1236 C1237 1.446 . S
C1236 C1259 1.391 . S
C1237 C1236 1.446 . S
C1237 C1238 1.339 . S
C1237 H1266 0.949 . S
C1238 C1237 1.339 . S
C1238 C1239 1.439 . S
C1238 H1267 0.950 . S
C1239 N1235 1.383 . S
C1239 C1238 1.439 . S
C1239 C1257 1.392 . S
N1240 Co1224 2.282 1_545 S
N1240 C1243 1.332 . S
N1240 C1245 1.332 . S
C1241 C1242 1.386 . S
C1241 C1244 1.388 . S
C1242 C1241 1.386 . S
C1242 C1243 1.382 . S
C1242 H1268 0.950 . S
C1243 N1240 1.332 . S
C1243 C1242 1.382 . S
C1243 H1254 0.952 1_545 S
C1244 C1241 1.388 . S
C1244 C1245 1.382 . S
C1244 H1269 0.950 . S
C1245 N1240 1.332 . S
C1245 C1244 1.382 . S
C1245 H1255 0.948 . S
N1246 Co1224 2.282 . S
N1246 C1250 1.332 . S
N1246 C1251 1.332 . S
C1247 C1248 1.388 . S
C1247 C1251 1.382 . S
C1247 H1270 0.950 . S
C1248 C1247 1.388 . S
C1248 C1249 1.386 . S
C1249 C1248 1.386 . S
C1249 C1250 1.382 . S
C1249 H1271 0.950 . S
C1250 N1246 1.332 . S
C1250 C1249 1.382 . S
C1250 H1252 0.952 . S
C1251 N1246 1.332 . S
C1251 C1247 1.382 . S
C1251 H1253 0.948 . S
H1252 C1250 0.952 . S
H1253 C1251 0.948 . S
H1254 C1243 0.952 1_565 S
H1255 C1245 0.948 . S
C1256 C1222 1.395 . S
C1256 C1226 1.391 . S
C1257 C1219 1.389 . S
C1257 C1239 1.392 . S
C1258 C1229 1.392 . S
C1258 C1231 1.389 1_545 S
C1259 C1234 1.395 . S
C1259 C1236 1.391 . S
H1260 C1220 0.951 1_565 S
H1261 C1221 0.950 . S
H1262 C1227 0.949 . S
H1263 C1228 0.950 . S
H1264 C1232 0.951 . S
H1265 C1233 0.950 . S
H1266 C1237 0.949 . S
H1267 C1238 0.950 . S
H1268 C1242 0.950 . S
H1269 C1244 0.950 . S
H1270 C1247 0.950 . S
H1271 C1249 0.950 . S
C1272 C1273 1.443 . S
C1272 N1276 1.376 . S
C1272 C1310 1.389 1_655 S
C1273 C1272 1.443 . S
C1273 C1274 1.340 . S
C1273 H1313 0.951 . S
C1274 C1273 1.340 . S
C1274 C1275 1.439 . S
C1274 H1314 0.950 . S
C1275 C1274 1.439 . S
C1275 N1276 1.374 . S
C1275 C1309 1.395 . S
N1276 C1272 1.376 . S
N1276 C1275 1.374 . S
N1276 Co1277 2.008 . S
Co1277 N1276 2.008 . S
Co1277 N1278 1.995 . S
Co1277 N1283 2.008 1_655 S
Co1277 N1288 1.995 1_655 S
Co1277 N1293 2.282 . S
Co1277 N1299 2.282 1_655 S
N1278 Co1277 1.995 . S
N1278 C1279 1.376 . S
N1278 C1282 1.383 . S
C1279 N1278 1.376 . S
C1279 C1280 1.446 . S
C1279 C1309 1.391 . S
C1280 C1279 1.446 . S
C1280 C1281 1.339 . S
C1280 H1315 0.949 . S
C1281 C1280 1.339 . S
C1281 C1282 1.439 . S
C1281 H1316 0.950 . S
C1282 N1278 1.383 . S
C1282 C1281 1.439 . S
C1282 C1311 1.392 . S
N1283 Co1277 2.008 1_455 S
N1283 C1284 1.376 . S
N1283 C1287 1.374 . S
C1284 N1283 1.376 . S
C1284 C1285 1.443 . S
C1284 C1311 1.389 1_455 S
C1285 C1284 1.443 . S
C1285 C1286 1.340 . S
C1285 H1317 0.951 . S
C1286 C1285 1.340 . S
C1286 C1287 1.439 . S
C1286 H1318 0.950 . S
C1287 N1283 1.374 . S
C1287 C1286 1.439 . S
C1287 C1312 1.395 . S
N1288 Co1277 1.995 1_455 S
N1288 C1289 1.376 . S
N1288 C1292 1.383 . S
C1289 N1288 1.376 . S
C1289 C1290 1.446 . S
C1289 C1312 1.391 . S
C1290 C1289 1.446 . S
C1290 C1291 1.339 . S
C1290 H1319 0.949 . S
C1291 C1290 1.339 . S
C1291 C1292 1.439 . S
C1291 H1320 0.950 . S
C1292 N1288 1.383 . S
C1292 C1291 1.439 . S
C1292 C1310 1.392 . S
N1293 Co1277 2.282 . S
N1293 C1296 1.332 . S
N1293 C1298 1.332 . S
C1294 C1295 1.386 . S
C1294 C1297 1.388 . S
C1295 C1294 1.386 . S
C1295 C1296 1.382 . S
C1295 H1321 0.950 . S
C1296 N1293 1.332 . S
C1296 C1295 1.382 . S
C1296 H1307 0.952 . S
C1297 C1294 1.388 . S
C1297 C1298 1.382 . S
C1297 H1322 0.950 . S
C1298 N1293 1.332 . S
C1298 C1297 1.382 . S
C1298 H1308 0.948 . S
N1299 Co1277 2.282 1_455 S
N1299 C1303 1.332 . S
N1299 C1304 1.332 . S
C1300 C1301 1.388 . S
C1300 C1304 1.382 . S
C1300 H1323 0.950 . S
C1301 C1300 1.388 . S
C1301 C1302 1.386 . S
C1302 C1301 1.386 . S
C1302 C1303 1.382 . S
C1302 H1324 0.950 . S
C1303 N1299 1.332 . S
C1303 C1302 1.382 . S
C1303 H1305 0.952 . S
C1304 N1299 1.332 . S
C1304 C1300 1.382 . S
C1304 H1306 0.948 . S
H1305 C1303 0.952 . S
H1306 C1304 0.948 . S
H1307 C1296 0.952 . S
H1308 C1298 0.948 . S
C1309 C1275 1.395 . S
C1309 C1279 1.391 . S
C1310 C1272 1.389 1_455 S
C1310 C1292 1.392 . S
C1311 C1282 1.392 . S
C1311 C1284 1.389 1_655 S
C1312 C1287 1.395 . S
C1312 C1289 1.391 . S
H1313 C1273 0.951 . S
H1314 C1274 0.950 . S
H1315 C1280 0.949 . S
H1316 C1281 0.950 . S
H1317 C1285 0.951 . S
H1318 C1286 0.950 . S
H1319 C1290 0.949 . S
H1320 C1291 0.950 . S
H1321 C1295 0.950 . S
H1322 C1297 0.950 . S
H1323 C1300 0.950 . S
H1324 C1302 0.950 . S
C1325 C1326 1.443 . S
C1325 N1329 1.376 . S
C1325 C1363 1.389 . S
C1326 C1325 1.443 . S
C1326 C1327 1.340 . S
C1326 H1366 0.951 . S
C1327 C1326 1.340 . S
C1327 C1328 1.439 . S
C1327 H1367 0.950 . S
C1328 C1327 1.439 . S
C1328 N1329 1.374 . S
C1328 C1362 1.395 . S
N1329 C1325 1.376 . S
N1329 C1328 1.374 . S
N1329 Co1330 2.008 . S
Co1330 N1329 2.008 . S
Co1330 N1331 1.995 . S
Co1330 N1336 2.008 . S
Co1330 N1341 1.995 . S
Co1330 N1346 2.282 . S
Co1330 N1352 2.282 . S
N1331 Co1330 1.995 . S
N1331 C1332 1.376 . S
N1331 C1335 1.383 . S
C1332 N1331 1.376 . S
C1332 C1333 1.446 . S
C1332 C1362 1.391 . S
C1333 C1332 1.446 . S
C1333 C1334 1.339 . S
C1333 H1368 0.949 . S
C1334 C1333 1.339 . S
C1334 C1335 1.439 . S
C1334 H1369 0.950 . S
C1335 N1331 1.383 . S
C1335 C1334 1.439 . S
C1335 C1364 1.392 . S
N1336 Co1330 2.008 . S
N1336 C1337 1.376 . S
N1336 C1340 1.374 . S
C1337 N1336 1.376 . S
C1337 C1338 1.443 . S
C1337 C1364 1.389 . S
C1338 C1337 1.443 . S
C1338 C1339 1.340 . S
C1338 H1370 0.951 . S
C1339 C1338 1.340 . S
C1339 C1340 1.439 . S
C1339 H1371 0.950 . S
C1340 N1336 1.374 . S
C1340 C1339 1.439 . S
C1340 C1365 1.395 . S
N1341 Co1330 1.995 . S
N1341 C1342 1.376 . S
N1341 C1345 1.383 . S
C1342 N1341 1.376 . S
C1342 C1343 1.446 . S
C1342 C1365 1.391 . S
C1343 C1342 1.446 . S
C1343 C1344 1.339 . S
C1343 H1372 0.949 . S
C1344 C1343 1.339 . S
C1344 C1345 1.439 . S
C1344 H1373 0.950 . S
C1345 N1341 1.383 . S
C1345 C1344 1.439 . S
C1345 C1363 1.392 . S
N1346 Co1330 2.282 . S
N1346 C1349 1.332 . S
N1346 C1351 1.332 . S
C1347 C1348 1.386 . S
C1347 C1350 1.388 . S
C1348 C1347 1.386 . S
C1348 C1349 1.382 . S
C1348 H1374 0.950 . S
C1349 N1346 1.332 . S
C1349 C1348 1.382 . S
C1349 H1360 0.952 . S
C1350 C1347 1.388 . S
C1350 C1351 1.382 . S
C1350 H1375 0.950 . S
C1351 N1346 1.332 . S
C1351 C1350 1.382 . S
C1351 H1361 0.948 . S
N1352 Co1330 2.282 . S
N1352 C1356 1.332 . S
N1352 C1357 1.332 . S
C1353 C1354 1.388 . S
C1353 C1357 1.382 . S
C1353 H1376 0.950 . S
C1354 C1353 1.388 . S
C1354 C1355 1.386 . S
C1355 C1354 1.386 . S
C1355 C1356 1.382 . S
C1355 H1377 0.950 . S
C1356 N1352 1.332 . S
C1356 C1355 1.382 . S
C1356 H1358 0.952 . S
C1357 N1352 1.332 . S
C1357 C1353 1.382 . S
C1357 H1359 0.948 . S
H1358 C1356 0.952 . S
H1359 C1357 0.948 . S
H1360 C1349 0.952 . S
H1361 C1351 0.948 . S
C1362 C1328 1.395 . S
C1362 C1332 1.391 . S
C1363 C1325 1.389 . S
C1363 C1345 1.392 . S
C1364 C1335 1.392 . S
C1364 C1337 1.389 . S
C1365 C1340 1.395 . S
C1365 C1342 1.391 . S
H1366 C1326 0.951 . S
H1367 C1327 0.950 . S
H1368 C1333 0.949 . S
H1369 C1334 0.950 . S
H1370 C1338 0.951 . S
H1371 C1339 0.950 . S
H1372 C1343 0.949 . S
H1373 C1344 0.950 . S
H1374 C1348 0.950 . S
H1375 C1350 0.950 . S
H1376 C1353 0.950 . S
H1377 C1355 0.950 . S
C1378 C1379 1.443 . S
C1378 N1382 1.376 . S
C1378 C1416 1.389 1_655 S
C1379 C1378 1.443 . S
C1379 C1380 1.340 . S
C1379 H1419 0.951 . S
C1380 C1379 1.340 . S
C1380 C1381 1.439 . S
C1380 H1420 0.950 . S
C1381 C1380 1.439 . S
C1381 N1382 1.374 . S
C1381 C1415 1.395 . S
N1382 C1378 1.376 . S
N1382 C1381 1.374 . S
N1382 Co1383 2.008 . S
Co1383 N1382 2.008 . S
Co1383 N1384 1.995 . S
Co1383 N1389 2.008 1_655 S
Co1383 N1394 1.995 1_655 S
Co1383 N1399 2.282 . S
Co1383 N1405 2.282 1_655 S
N1384 Co1383 1.995 . S
N1384 C1385 1.376 . S
N1384 C1388 1.383 . S
C1385 N1384 1.376 . S
C1385 C1386 1.446 . S
C1385 C1415 1.391 . S
C1386 C1385 1.446 . S
C1386 C1387 1.339 . S
C1386 H1421 0.949 . S
C1387 C1386 1.339 . S
C1387 C1388 1.439 . S
C1387 H1422 0.950 . S
C1388 N1384 1.383 . S
C1388 C1387 1.439 . S
C1388 C1417 1.392 . S
N1389 Co1383 2.008 1_455 S
N1389 C1390 1.376 . S
N1389 C1393 1.374 . S
C1390 N1389 1.376 . S
C1390 C1391 1.443 . S
C1390 C1417 1.389 1_455 S
C1391 C1390 1.443 . S
C1391 C1392 1.340 . S
C1391 H1423 0.951 . S
C1392 C1391 1.340 . S
C1392 C1393 1.439 . S
C1392 H1424 0.950 . S
C1393 N1389 1.374 . S
C1393 C1392 1.439 . S
C1393 C1418 1.395 . S
N1394 Co1383 1.995 1_455 S
N1394 C1395 1.376 . S
N1394 C1398 1.383 . S
C1395 N1394 1.376 . S
C1395 C1396 1.446 . S
C1395 C1418 1.391 . S
C1396 C1395 1.446 . S
C1396 C1397 1.339 . S
C1396 H1425 0.949 . S
C1397 C1396 1.339 . S
C1397 C1398 1.439 . S
C1397 H1426 0.950 . S
C1398 N1394 1.383 . S
C1398 C1397 1.439 . S
C1398 C1416 1.392 . S
N1399 Co1383 2.282 . S
N1399 C1402 1.332 . S
N1399 C1404 1.332 . S
C1400 C1401 1.386 . S
C1400 C1403 1.388 . S
C1401 C1400 1.386 . S
C1401 C1402 1.382 . S
C1401 H1427 0.950 . S
C1402 N1399 1.332 . S
C1402 C1401 1.382 . S
C1402 H1413 0.952 . S
C1403 C1400 1.388 . S
C1403 C1404 1.382 . S
C1403 H1428 0.950 . S
C1404 N1399 1.332 . S
C1404 C1403 1.382 . S
C1404 H1414 0.948 . S
N1405 Co1383 2.282 1_455 S
N1405 C1409 1.332 . S
N1405 C1410 1.332 . S
C1406 C1407 1.388 . S
C1406 C1410 1.382 . S
C1406 H1429 0.950 . S
C1407 C1406 1.388 . S
C1407 C1408 1.386 . S
C1408 C1407 1.386 . S
C1408 C1409 1.382 . S
C1408 H1430 0.950 . S
C1409 N1405 1.332 . S
C1409 C1408 1.382 . S
C1409 H1411 0.952 . S
C1410 N1405 1.332 . S
C1410 C1406 1.382 . S
C1410 H1412 0.948 . S
H1411 C1409 0.952 . S
H1412 C1410 0.948 . S
H1413 C1402 0.952 . S
H1414 C1404 0.948 . S
C1415 C1381 1.395 . S
C1415 C1385 1.391 . S
C1416 C1378 1.389 1_455 S
C1416 C1398 1.392 . S
C1417 C1388 1.392 . S
C1417 C1390 1.389 1_655 S
C1418 C1393 1.395 . S
C1418 C1395 1.391 . S
H1419 C1379 0.951 . S
H1420 C1380 0.950 . S
H1421 C1386 0.949 . S
H1422 C1387 0.950 . S
H1423 C1391 0.951 . S
H1424 C1392 0.950 . S
H1425 C1396 0.949 . S
H1426 C1397 0.950 . S
H1427 C1401 0.950 . S
H1428 C1403 0.950 . S
H1429 C1406 0.950 . S
H1430 C1408 0.950 . S
C1431 C1432 1.443 . S
C1431 N1435 1.376 . S
C1431 C1469 1.389 . S
C1432 C1431 1.443 . S
C1432 C1433 1.340 . S
C1432 H1472 0.951 . S
C1433 C1432 1.340 . S
C1433 C1434 1.439 . S
C1433 H1473 0.950 . S
C1434 C1433 1.439 . S
C1434 N1435 1.374 . S
C1434 C1468 1.395 . S
N1435 C1431 1.376 . S
N1435 C1434 1.374 . S
N1435 Co1436 2.008 . S
Co1436 N1435 2.008 . S
Co1436 N1437 1.995 . S
Co1436 N1442 2.008 . S
Co1436 N1447 1.995 . S
Co1436 N1452 2.282 . S
Co1436 N1458 2.282 . S
N1437 Co1436 1.995 . S
N1437 C1438 1.376 . S
N1437 C1441 1.383 . S
C1438 N1437 1.376 . S
C1438 C1439 1.446 . S
C1438 C1468 1.391 . S
C1439 C1438 1.446 . S
C1439 C1440 1.339 . S
C1439 H1474 0.949 . S
C1440 C1439 1.339 . S
C1440 C1441 1.439 . S
C1440 H1475 0.950 . S
C1441 N1437 1.383 . S
C1441 C1440 1.439 . S
C1441 C1470 1.392 . S
N1442 Co1436 2.008 . S
N1442 C1443 1.376 . S
N1442 C1446 1.374 . S
C1443 N1442 1.376 . S
C1443 C1444 1.443 . S
C1443 C1470 1.389 . S
C1444 C1443 1.443 . S
C1444 C1445 1.340 . S
C1444 H1476 0.951 . S
C1445 C1444 1.340 . S
C1445 C1446 1.439 . S
C1445 H1477 0.950 . S
C1446 N1442 1.374 . S
C1446 C1445 1.439 . S
C1446 C1471 1.395 . S
N1447 Co1436 1.995 . S
N1447 C1448 1.376 . S
N1447 C1451 1.383 . S
C1448 N1447 1.376 . S
C1448 C1449 1.446 . S
C1448 C1471 1.391 . S
C1449 C1448 1.446 . S
C1449 C1450 1.339 . S
C1449 H1478 0.949 . S
C1450 C1449 1.339 . S
C1450 C1451 1.439 . S
C1450 H1479 0.950 . S
C1451 N1447 1.383 . S
C1451 C1450 1.439 . S
C1451 C1469 1.392 . S
N1452 Co1436 2.282 . S
N1452 C1455 1.332 . S
N1452 C1457 1.332 . S
C1453 C1454 1.386 . S
C1453 C1456 1.388 . S
C1454 C1453 1.386 . S
C1454 C1455 1.382 . S
C1454 H1480 0.950 . S
C1455 N1452 1.332 . S
C1455 C1454 1.382 . S
C1455 H1466 0.952 . S
C1456 C1453 1.388 . S
C1456 C1457 1.382 . S
C1456 H1481 0.950 . S
C1457 N1452 1.332 . S
C1457 C1456 1.382 . S
C1457 H1467 0.948 . S
N1458 Co1436 2.282 . S
N1458 C1462 1.332 . S
N1458 C1463 1.332 . S
C1459 C1460 1.388 . S
C1459 C1463 1.382 . S
C1459 H1482 0.950 . S
C1460 C1459 1.388 . S
C1460 C1461 1.386 . S
C1461 C1460 1.386 . S
C1461 C1462 1.382 . S
C1461 H1483 0.950 . S
C1462 N1458 1.332 . S
C1462 C1461 1.382 . S
C1462 H1464 0.952 . S
C1463 N1458 1.332 . S
C1463 C1459 1.382 . S
C1463 H1465 0.948 . S
H1464 C1462 0.952 . S
H1465 C1463 0.948 . S
H1466 C1455 0.952 . S
H1467 C1457 0.948 . S
C1468 C1434 1.395 . S
C1468 C1438 1.391 . S
C1469 C1431 1.389 . S
C1469 C1451 1.392 . S
C1470 C1441 1.392 . S
C1470 C1443 1.389 . S
C1471 C1446 1.395 . S
C1471 C1448 1.391 . S
H1472 C1432 0.951 . S
H1473 C1433 0.950 . S
H1474 C1439 0.949 . S
H1475 C1440 0.950 . S
H1476 C1444 0.951 . S
H1477 C1445 0.950 . S
H1478 C1449 0.949 . S
H1479 C1450 0.950 . S
H1480 C1454 0.950 . S
H1481 C1456 0.950 . S
H1482 C1459 0.950 . S
H1483 C1461 0.950 . S
C1484 C1485 1.443 . S
C1484 N1488 1.376 . S
C1484 C1522 1.389 . S
C1485 C1484 1.443 . S
C1485 C1486 1.340 . S
C1485 H1525 0.951 . S
C1486 C1485 1.340 . S
C1486 C1487 1.439 . S
C1486 H1526 0.950 . S
C1487 C1486 1.439 . S
C1487 N1488 1.374 . S
C1487 C1521 1.395 . S
N1488 C1484 1.376 . S
N1488 C1487 1.374 . S
N1488 Co1489 2.008 1_655 S
Co1489 N1488 2.008 1_455 S
Co1489 N1490 1.995 1_455 S
Co1489 N1495 2.008 . S
Co1489 N1500 1.995 . S
Co1489 N1505 2.282 . S
Co1489 N1511 2.282 1_455 S
N1490 Co1489 1.995 1_655 S
N1490 C1491 1.376 . S
N1490 C1494 1.383 . S
C1491 N1490 1.376 . S
C1491 C1492 1.446 . S
C1491 C1521 1.391 . S
C1492 C1491 1.446 . S
C1492 C1493 1.339 . S
C1492 H1527 0.949 . S
C1493 C1492 1.339 . S
C1493 C1494 1.439 . S
C1493 H1528 0.950 . S
C1494 N1490 1.383 . S
C1494 C1493 1.439 . S
C1494 C1523 1.392 1_655 S
N1495 Co1489 2.008 . S
N1495 C1496 1.376 . S
N1495 C1499 1.374 . S
C1496 N1495 1.376 . S
C1496 C1497 1.443 . S
C1496 C1523 1.389 . S
C1497 C1496 1.443 . S
C1497 C1498 1.340 . S
C1497 H1529 0.951 . S
C1498 C1497 1.340 . S
C1498 C1499 1.439 . S
C1498 H1530 0.950 . S
C1499 N1495 1.374 . S
C1499 C1498 1.439 . S
C1499 C1524 1.395 . S
N1500 Co1489 1.995 . S
N1500 C1501 1.376 . S
N1500 C1504 1.383 . S
C1501 N1500 1.376 . S
C1501 C1502 1.446 . S
C1501 C1524 1.391 . S
C1502 C1501 1.446 . S
C1502 C1503 1.339 . S
C1502 H1531 0.949 . S
C1503 C1502 1.339 . S
C1503 C1504 1.439 . S
C1503 H1532 0.950 . S
C1504 N1500 1.383 . S
C1504 C1503 1.439 . S
C1504 C1522 1.392 1_455 S
N1505 Co1489 2.282 . S
N1505 C1508 1.332 . S
N1505 C1510 1.332 . S
C1506 C1507 1.386 . S
C1506 C1509 1.388 . S
C1507 C1506 1.386 . S
C1507 C1508 1.382 . S
C1507 H1533 0.950 . S
C1508 N1505 1.332 . S
C1508 C1507 1.382 . S
C1508 H1519 0.952 . S
C1509 C1506 1.388 . S
C1509 C1510 1.382 . S
C1509 H1534 0.950 . S
C1510 N1505 1.332 . S
C1510 C1509 1.382 . S
C1510 H1520 0.948 . S
N1511 Co1489 2.282 1_655 S
N1511 C1515 1.332 . S
N1511 C1516 1.332 . S
C1512 C1513 1.388 . S
C1512 C1516 1.382 . S
C1512 H1535 0.950 . S
C1513 C1512 1.388 . S
C1513 C1514 1.386 . S
C1514 C1513 1.386 . S
C1514 C1515 1.382 . S
C1514 H1536 0.950 . S
C1515 N1511 1.332 . S
C1515 C1514 1.382 . S
C1515 H1517 0.952 . S
C1516 N1511 1.332 . S
C1516 C1512 1.382 . S
C1516 H1518 0.948 . S
H1517 C1515 0.952 . S
H1518 C1516 0.948 . S
H1519 C1508 0.952 . S
H1520 C1510 0.948 . S
C1521 C1487 1.395 . S
C1521 C1491 1.391 . S
C1522 C1484 1.389 . S
C1522 C1504 1.392 1_655 S
C1523 C1494 1.392 1_455 S
C1523 C1496 1.389 . S
C1524 C1499 1.395 . S
C1524 C1501 1.391 . S
H1525 C1485 0.951 . S
H1526 C1486 0.950 . S
H1527 C1492 0.949 . S
H1528 C1493 0.950 . S
H1529 C1497 0.951 . S
H1530 C1498 0.950 . S
H1531 C1502 0.949 . S
H1532 C1503 0.950 . S
H1533 C1507 0.950 . S
H1534 C1509 0.950 . S
H1535 C1512 0.950 . S
H1536 C1514 0.950 . S
C1537 C1538 1.443 . S
C1537 N1541 1.376 . S
C1537 C1575 1.389 . S
C1538 C1537 1.443 . S
C1538 C1539 1.340 . S
C1538 H1578 0.951 . S
C1539 C1538 1.340 . S
C1539 C1540 1.439 . S
C1539 H1579 0.950 . S
C1540 C1539 1.439 . S
C1540 N1541 1.374 . S
C1540 C1574 1.395 . S
N1541 C1537 1.376 . S
N1541 C1540 1.374 . S
N1541 Co1542 2.008 . S
Co1542 N1541 2.008 . S
Co1542 N1543 1.995 . S
Co1542 N1548 2.008 . S
Co1542 N1553 1.995 . S
Co1542 N1558 2.282 . S
Co1542 N1564 2.282 . S
N1543 Co1542 1.995 . S
N1543 C1544 1.376 . S
N1543 C1547 1.383 . S
C1544 N1543 1.376 . S
C1544 C1545 1.446 . S
C1544 C1574 1.391 . S
C1545 C1544 1.446 . S
C1545 C1546 1.339 . S
C1545 H1580 0.949 . S
C1546 C1545 1.339 . S
C1546 C1547 1.439 . S
C1546 H1581 0.950 . S
C1547 N1543 1.383 . S
C1547 C1546 1.439 . S
C1547 C1576 1.392 . S
N1548 Co1542 2.008 . S
N1548 C1549 1.376 . S
N1548 C1552 1.374 . S
C1549 N1548 1.376 . S
C1549 C1550 1.443 . S
C1549 C1576 1.389 . S
C1550 C1549 1.443 . S
C1550 C1551 1.340 . S
C1550 H1582 0.951 . S
C1551 C1550 1.340 . S
C1551 C1552 1.439 . S
C1551 H1583 0.950 . S
C1552 N1548 1.374 . S
C1552 C1551 1.439 . S
C1552 C1577 1.395 . S
N1553 Co1542 1.995 . S
N1553 C1554 1.376 . S
N1553 C1557 1.383 . S
C1554 N1553 1.376 . S
C1554 C1555 1.446 . S
C1554 C1577 1.391 . S
C1555 C1554 1.446 . S
C1555 C1556 1.339 . S
C1555 H1584 0.949 . S
C1556 C1555 1.339 . S
C1556 C1557 1.439 . S
C1556 H1585 0.950 . S
C1557 N1553 1.383 . S
C1557 C1556 1.439 . S
C1557 C1575 1.392 . S
N1558 Co1542 2.282 . S
N1558 C1561 1.332 . S
N1558 C1563 1.332 . S
C1559 C1560 1.386 . S
C1559 C1562 1.388 . S
C1560 C1559 1.386 . S
C1560 C1561 1.382 . S
C1560 H1586 0.950 . S
C1561 N1558 1.332 . S
C1561 C1560 1.382 . S
C1561 H1572 0.952 . S
C1562 C1559 1.388 . S
C1562 C1563 1.382 . S
C1562 H1587 0.950 . S
C1563 N1558 1.332 . S
C1563 C1562 1.382 . S
C1563 H1573 0.948 . S
N1564 Co1542 2.282 . S
N1564 C1568 1.332 . S
N1564 C1569 1.332 . S
C1565 C1566 1.388 . S
C1565 C1569 1.382 . S
C1565 H1588 0.950 . S
C1566 C1565 1.388 . S
C1566 C1567 1.386 . S
C1567 C1566 1.386 . S
C1567 C1568 1.382 . S
C1567 H1589 0.950 . S
C1568 N1564 1.332 . S
C1568 C1567 1.382 . S
C1568 H1570 0.952 . S
C1569 N1564 1.332 . S
C1569 C1565 1.382 . S
C1569 H1571 0.948 . S
H1570 C1568 0.952 . S
H1571 C1569 0.948 . S
H1572 C1561 0.952 . S
H1573 C1563 0.948 . S
C1574 C1540 1.395 . S
C1574 C1544 1.391 . S
C1575 C1537 1.389 . S
C1575 C1557 1.392 . S
C1576 C1547 1.392 . S
C1576 C1549 1.389 . S
C1577 C1552 1.395 . S
C1577 C1554 1.391 . S
H1578 C1538 0.951 . S
H1579 C1539 0.950 . S
H1580 C1545 0.949 . S
H1581 C1546 0.950 . S
H1582 C1550 0.951 . S
H1583 C1551 0.950 . S
H1584 C1555 0.949 . S
H1585 C1556 0.950 . S
H1586 C1560 0.950 . S
H1587 C1562 0.950 . S
H1588 C1565 0.950 . S
H1589 C1567 0.950 . S
C1590 C1591 1.443 . S
C1590 N1594 1.376 . S
C1590 C1628 1.389 . S
C1591 C1590 1.443 . S
C1591 C1592 1.340 . S
C1591 H1631 0.951 . S
C1592 C1591 1.340 . S
C1592 C1593 1.439 . S
C1592 H1632 0.950 . S
C1593 C1592 1.439 . S
C1593 N1594 1.374 . S
C1593 C1627 1.395 . S
N1594 C1590 1.376 . S
N1594 C1593 1.374 . S
N1594 Co1595 2.008 1_655 S
Co1595 N1594 2.008 1_455 S
Co1595 N1596 1.995 1_455 S
Co1595 N1601 2.008 . S
Co1595 N1606 1.995 . S
Co1595 N1611 2.282 . S
Co1595 N1617 2.282 1_455 S
N1596 Co1595 1.995 1_655 S
N1596 C1597 1.376 . S
N1596 C1600 1.383 . S
C1597 N1596 1.376 . S
C1597 C1598 1.446 . S
C1597 C1627 1.391 . S
C1598 C1597 1.446 . S
C1598 C1599 1.339 . S
C1598 H1633 0.949 . S
C1599 C1598 1.339 . S
C1599 C1600 1.439 . S
C1599 H1634 0.950 . S
C1600 N1596 1.383 . S
C1600 C1599 1.439 . S
C1600 C1629 1.392 1_655 S
N1601 Co1595 2.008 . S
N1601 C1602 1.376 . S
N1601 C1605 1.374 . S
C1602 N1601 1.376 . S
C1602 C1603 1.443 . S
C1602 C1629 1.389 . S
C1603 C1602 1.443 . S
C1603 C1604 1.340 . S
C1603 H1635 0.951 . S
C1604 C1603 1.340 . S
C1604 C1605 1.439 . S
C1604 H1636 0.950 . S
C1605 N1601 1.374 . S
C1605 C1604 1.439 . S
C1605 C1630 1.395 . S
N1606 Co1595 1.995 . S
N1606 C1607 1.376 . S
N1606 C1610 1.383 . S
C1607 N1606 1.376 . S
C1607 C1608 1.446 . S
C1607 C1630 1.391 . S
C1608 C1607 1.446 . S
C1608 C1609 1.339 . S
C1608 H1637 0.949 . S
C1609 C1608 1.339 . S
C1609 C1610 1.439 . S
C1609 H1638 0.950 . S
C1610 N1606 1.383 . S
C1610 C1609 1.439 . S
C1610 C1628 1.392 1_455 S
N1611 Co1595 2.282 . S
N1611 C1614 1.332 . S
N1611 C1616 1.332 . S
C1612 C1613 1.386 . S
C1612 C1615 1.388 . S
C1613 C1612 1.386 . S
C1613 C1614 1.382 . S
C1613 H1639 0.950 . S
C1614 N1611 1.332 . S
C1614 C1613 1.382 . S
C1614 H1625 0.952 . S
C1615 C1612 1.388 . S
C1615 C1616 1.382 . S
C1615 H1640 0.950 . S
C1616 N1611 1.332 . S
C1616 C1615 1.382 . S
C1616 H1626 0.948 . S
N1617 Co1595 2.282 1_655 S
N1617 C1621 1.332 . S
N1617 C1622 1.332 . S
C1618 C1619 1.388 . S
C1618 C1622 1.382 . S
C1618 H1641 0.950 . S
C1619 C1618 1.388 . S
C1619 C1620 1.386 . S
C1620 C1619 1.386 . S
C1620 C1621 1.382 . S
C1620 H1642 0.950 . S
C1621 N1617 1.332 . S
C1621 C1620 1.382 . S
C1621 H1623 0.952 . S
C1622 N1617 1.332 . S
C1622 C1618 1.382 . S
C1622 H1624 0.948 . S
H1623 C1621 0.952 . S
H1624 C1622 0.948 . S
H1625 C1614 0.952 . S
H1626 C1616 0.948 . S
C1627 C1593 1.395 . S
C1627 C1597 1.391 . S
C1628 C1590 1.389 . S
C1628 C1610 1.392 1_655 S
C1629 C1600 1.392 1_455 S
C1629 C1602 1.389 . S
C1630 C1605 1.395 . S
C1630 C1607 1.391 . S
H1631 C1591 0.951 . S
H1632 C1592 0.950 . S
H1633 C1598 0.949 . S
H1634 C1599 0.950 . S
H1635 C1603 0.951 . S
H1636 C1604 0.950 . S
H1637 C1608 0.949 . S
H1638 C1609 0.950 . S
H1639 C1613 0.950 . S
H1640 C1615 0.950 . S
H1641 C1618 0.950 . S
H1642 C1620 0.950 . S
C1643 C1644 1.443 . S
C1643 N1647 1.376 . S
C1643 C1681 1.389 . S
C1644 C1643 1.443 . S
C1644 C1645 1.340 . S
C1644 H1684 0.951 . S
C1645 C1644 1.340 . S
C1645 C1646 1.439 . S
C1645 H1685 0.950 . S
C1646 C1645 1.439 . S
C1646 N1647 1.374 . S
C1646 C1680 1.395 . S
N1647 C1643 1.376 . S
N1647 C1646 1.374 . S
N1647 Co1648 2.008 . S
Co1648 N1647 2.008 . S
Co1648 N1649 1.995 . S
Co1648 N1654 2.008 . S
Co1648 N1659 1.995 . S
Co1648 N1664 2.282 . S
Co1648 N1670 2.282 . S
N1649 Co1648 1.995 . S
N1649 C1650 1.376 . S
N1649 C1653 1.383 . S
C1650 N1649 1.376 . S
C1650 C1651 1.446 . S
C1650 C1680 1.391 . S
C1651 C1650 1.446 . S
C1651 C1652 1.339 . S
C1651 H1686 0.949 . S
C1652 C1651 1.339 . S
C1652 C1653 1.439 . S
C1652 H1687 0.950 . S
C1653 N1649 1.383 . S
C1653 C1652 1.439 . S
C1653 C1682 1.392 . S
N1654 Co1648 2.008 . S
N1654 C1655 1.376 . S
N1654 C1658 1.374 . S
C1655 N1654 1.376 . S
C1655 C1656 1.443 . S
C1655 C1682 1.389 . S
C1656 C1655 1.443 . S
C1656 C1657 1.340 . S
C1656 H1688 0.951 . S
C1657 C1656 1.340 . S
C1657 C1658 1.439 . S
C1657 H1689 0.950 . S
C1658 N1654 1.374 . S
C1658 C1657 1.439 . S
C1658 C1683 1.395 . S
N1659 Co1648 1.995 . S
N1659 C1660 1.376 . S
N1659 C1663 1.383 . S
C1660 N1659 1.376 . S
C1660 C1661 1.446 . S
C1660 C1683 1.391 . S
C1661 C1660 1.446 . S
C1661 C1662 1.339 . S
C1661 H1690 0.949 . S
C1662 C1661 1.339 . S
C1662 C1663 1.439 . S
C1662 H1691 0.950 . S
C1663 N1659 1.383 . S
C1663 C1662 1.439 . S
C1663 C1681 1.392 . S
N1664 Co1648 2.282 . S
N1664 C1667 1.332 . S
N1664 C1669 1.332 . S
C1665 C1666 1.386 . S
C1665 C1668 1.388 . S
C1666 C1665 1.386 . S
C1666 C1667 1.382 . S
C1666 H1692 0.950 . S
C1667 N1664 1.332 . S
C1667 C1666 1.382 . S
C1667 H1678 0.952 . S
C1668 C1665 1.388 . S
C1668 C1669 1.382 . S
C1668 H1693 0.950 . S
C1669 N1664 1.332 . S
C1669 C1668 1.382 . S
C1669 H1679 0.948 . S
N1670 Co1648 2.282 . S
N1670 C1674 1.332 . S
N1670 C1675 1.332 . S
C1671 C1672 1.388 . S
C1671 C1675 1.382 . S
C1671 H1694 0.950 . S
C1672 C1671 1.388 . S
C1672 C1673 1.386 . S
C1673 C1672 1.386 . S
C1673 C1674 1.382 . S
C1673 H1695 0.950 . S
C1674 N1670 1.332 . S
C1674 C1673 1.382 . S
C1674 H1676 0.952 . S
C1675 N1670 1.332 . S
C1675 C1671 1.382 . S
C1675 H1677 0.948 . S
H1676 C1674 0.952 . S
H1677 C1675 0.948 . S
H1678 C1667 0.952 . S
H1679 C1669 0.948 . S
C1680 C1646 1.395 . S
C1680 C1650 1.391 . S
C1681 C1643 1.389 . S
C1681 C1663 1.392 . S
C1682 C1653 1.392 . S
C1682 C1655 1.389 . S
C1683 C1658 1.395 . S
C1683 C1660 1.391 . S
H1684 C1644 0.951 . S
H1685 C1645 0.950 . S
H1686 C1651 0.949 . S
H1687 C1652 0.950 . S
H1688 C1656 0.951 . S
H1689 C1657 0.950 . S
H1690 C1661 0.949 . S
H1691 C1662 0.950 . S
H1692 C1666 0.950 . S
H1693 C1668 0.950 . S
H1694 C1671 0.950 . S
H1695 C1673 0.950 . S
C1696 C1697 1.363 . S
C1696 C1702 1.379 . S
C1696 N1704 1.356 . S
C1697 C1696 1.363 . S
C1697 C1703 1.363 . S
C1698 C1699 1.363 . S
C1698 C1703 1.379 . S
C1698 N1705 1.356 . S
C1699 C1698 1.363 . S
C1699 C1702 1.363 . S
N1700 C1702 1.356 . S
N1700 H1712 0.984 . S
N1700 H1713 0.985 . S
N1701 C1703 1.356 . S
N1701 H1706 0.984 . S
N1701 H1707 0.985 . S
C1702 C1696 1.379 . S
C1702 C1699 1.363 . S
C1702 N1700 1.356 . S
C1703 C1697 1.363 . S
C1703 C1698 1.379 . S
C1703 N1701 1.356 . S
N1704 C1696 1.356 . S
N1704 H1710 0.984 . S
N1704 H1711 0.984 . S
N1705 C1698 1.356 . S
N1705 H1708 0.984 . S
N1705 H1709 0.985 . S
H1706 N1701 0.984 . S
H1707 N1701 0.985 . S
H1708 N1705 0.984 . S
H1709 N1705 0.985 . S
H1710 N1704 0.984 . S
H1711 N1704 0.984 . S
H1712 N1700 0.984 . S
H1713 N1700 0.985 . S
C1714 C1715 1.363 . S
C1714 C1720 1.379 . S
C1714 N1722 1.356 . S
C1715 C1714 1.363 . S
C1715 C1721 1.363 . S
C1716 C1717 1.363 . S
C1716 C1721 1.379 . S
C1716 N1723 1.356 . S
C1717 C1716 1.363 . S
C1717 C1720 1.363 . S
N1718 C1720 1.356 . S
N1718 H1730 0.984 . S
N1718 H1731 0.985 . S
N1719 C1721 1.356 . S
N1719 H1724 0.984 . S
N1719 H1725 0.985 . S
C1720 C1714 1.379 . S
C1720 C1717 1.363 . S
C1720 N1718 1.356 . S
C1721 C1715 1.363 . S
C1721 C1716 1.379 . S
C1721 N1719 1.356 . S
N1722 C1714 1.356 . S
N1722 H1728 0.984 . S
N1722 H1729 0.984 . S
N1723 C1716 1.356 . S
N1723 H1726 0.984 . S
N1723 H1727 0.985 . S
H1724 N1719 0.984 . S
H1725 N1719 0.985 . S
H1726 N1723 0.984 . S
H1727 N1723 0.985 . S
H1728 N1722 0.984 . S
H1729 N1722 0.984 . S
H1730 N1718 0.984 . S
H1731 N1718 0.985 . S
C1732 C1733 1.363 . S
C1732 C1738 1.379 . S
C1732 N1740 1.356 . S
C1733 C1732 1.363 . S
C1733 C1739 1.363 . S
C1734 C1735 1.363 . S
C1734 C1739 1.379 . S
C1734 N1741 1.356 . S
C1735 C1734 1.363 . S
C1735 C1738 1.363 . S
N1736 C1738 1.356 . S
N1736 H1748 0.984 . S
N1736 H1749 0.985 . S
N1737 C1739 1.356 . S
N1737 H1742 0.984 . S
N1737 H1743 0.985 . S
C1738 C1732 1.379 . S
C1738 C1735 1.363 . S
C1738 N1736 1.356 . S
C1739 C1733 1.363 . S
C1739 C1734 1.379 . S
C1739 N1737 1.356 . S
N1740 C1732 1.356 . S
N1740 H1746 0.984 . S
N1740 H1747 0.984 . S
N1741 C1734 1.356 . S
N1741 H1744 0.984 . S
N1741 H1745 0.985 . S
H1742 N1737 0.984 . S
H1743 N1737 0.985 . S
H1744 N1741 0.984 . S
H1745 N1741 0.985 . S
H1746 N1740 0.984 . S
H1747 N1740 0.984 . S
H1748 N1736 0.984 . S
H1749 N1736 0.985 . S
C1750 C1751 1.363 . S
C1750 C1756 1.379 . S
C1750 N1758 1.356 . S
C1751 C1750 1.363 . S
C1751 C1757 1.363 . S
C1752 C1753 1.363 . S
C1752 C1757 1.379 . S
C1752 N1759 1.356 . S
C1753 C1752 1.363 . S
C1753 C1756 1.363 . S
N1754 C1756 1.356 . S
N1754 H1766 0.984 . S
N1754 H1767 0.985 . S
N1755 C1757 1.356 . S
N1755 H1760 0.984 . S
N1755 H1761 0.985 . S
C1756 C1750 1.379 . S
C1756 C1753 1.363 . S
C1756 N1754 1.356 . S
C1757 C1751 1.363 . S
C1757 C1752 1.379 . S
C1757 N1755 1.356 . S
N1758 C1750 1.356 . S
N1758 H1764 0.984 . S
N1758 H1765 0.984 . S
N1759 C1752 1.356 . S
N1759 H1762 0.984 . S
N1759 H1763 0.985 . S
H1760 N1755 0.984 . S
H1761 N1755 0.985 . S
H1762 N1759 0.984 . S
H1763 N1759 0.985 . S
H1764 N1758 0.984 . S
H1765 N1758 0.984 . S
H1766 N1754 0.984 . S
H1767 N1754 0.985 . S
C1768 C1769 1.363 . S
C1768 C1774 1.379 . S
C1768 N1776 1.356 . S
C1769 C1768 1.363 . S
C1769 C1775 1.363 . S
C1770 C1771 1.363 . S
C1770 C1775 1.379 . S
C1770 N1777 1.356 . S
C1771 C1770 1.363 . S
C1771 C1774 1.363 . S
N1772 C1774 1.356 . S
N1772 H1784 0.984 . S
N1772 H1785 0.985 . S
N1773 C1775 1.356 . S
N1773 H1778 0.984 . S
N1773 H1779 0.985 . S
C1774 C1768 1.379 . S
C1774 C1771 1.363 . S
C1774 N1772 1.356 . S
C1775 C1769 1.363 . S
C1775 C1770 1.379 . S
C1775 N1773 1.356 . S
N1776 C1768 1.356 . S
N1776 H1782 0.984 . S
N1776 H1783 0.984 . S
N1777 C1770 1.356 . S
N1777 H1780 0.984 . S
N1777 H1781 0.985 . S
H1778 N1773 0.984 . S
H1779 N1773 0.985 . S
H1780 N1777 0.984 . S
H1781 N1777 0.985 . S
H1782 N1776 0.984 . S
H1783 N1776 0.984 . S
H1784 N1772 0.984 . S
H1785 N1772 0.985 . S
C1786 C1787 1.363 . S
C1786 C1792 1.379 . S
C1786 N1794 1.356 . S
C1787 C1786 1.363 . S
C1787 C1793 1.363 . S
C1788 C1789 1.363 . S
C1788 C1793 1.379 . S
C1788 N1795 1.356 . S
C1789 C1788 1.363 . S
C1789 C1792 1.363 . S
N1790 C1792 1.356 . S
N1790 H1802 0.984 . S
N1790 H1803 0.985 . S
N1791 C1793 1.356 . S
N1791 H1796 0.984 . S
N1791 H1797 0.985 . S
C1792 C1786 1.379 . S
C1792 C1789 1.363 . S
C1792 N1790 1.356 . S
C1793 C1787 1.363 . S
C1793 C1788 1.379 . S
C1793 N1791 1.356 . S
N1794 C1786 1.356 . S
N1794 H1800 0.984 . S
N1794 H1801 0.984 . S
N1795 C1788 1.356 . S
N1795 H1798 0.984 . S
N1795 H1799 0.985 . S
H1796 N1791 0.984 . S
H1797 N1791 0.985 . S
H1798 N1795 0.984 . S
H1799 N1795 0.985 . S
H1800 N1794 0.984 . S
H1801 N1794 0.984 . S
H1802 N1790 0.984 . S
H1803 N1790 0.985 . S
C1804 C1805 1.363 . S
C1804 C1810 1.379 . S
C1804 N1812 1.356 . S
C1805 C1804 1.363 . S
C1805 C1811 1.363 . S
C1806 C1807 1.363 . S
C1806 C1811 1.379 . S
C1806 N1813 1.356 . S
C1807 C1806 1.363 . S
C1807 C1810 1.363 . S
N1808 C1810 1.356 . S
N1808 H1820 0.984 . S
N1808 H1821 0.985 . S
N1809 C1811 1.356 . S
N1809 H1814 0.984 . S
N1809 H1815 0.985 . S
C1810 C1804 1.379 . S
C1810 C1807 1.363 . S
C1810 N1808 1.356 . S
C1811 C1805 1.363 . S
C1811 C1806 1.379 . S
C1811 N1809 1.356 . S
N1812 C1804 1.356 . S
N1812 H1818 0.984 . S
N1812 H1819 0.984 . S
N1813 C1806 1.356 . S
N1813 H1816 0.984 . S
N1813 H1817 0.985 . S
H1814 N1809 0.984 . S
H1815 N1809 0.985 . S
H1816 N1813 0.984 . S
H1817 N1813 0.985 . S
H1818 N1812 0.984 . S
H1819 N1812 0.984 . S
H1820 N1808 0.984 . S
H1821 N1808 0.985 . S
C1822 C1823 1.363 . S
C1822 C1828 1.379 . S
C1822 N1830 1.356 . S
C1823 C1822 1.363 . S
C1823 C1829 1.363 . S
C1824 C1825 1.363 . S
C1824 C1829 1.379 . S
C1824 N1831 1.356 . S
C1825 C1824 1.363 . S
C1825 C1828 1.363 . S
N1826 C1828 1.356 . S
N1826 H1838 0.984 . S
N1826 H1839 0.985 . S
N1827 C1829 1.356 . S
N1827 H1832 0.984 . S
N1827 H1833 0.985 . S
C1828 C1822 1.379 . S
C1828 C1825 1.363 . S
C1828 N1826 1.356 . S
C1829 C1823 1.363 . S
C1829 C1824 1.379 . S
C1829 N1827 1.356 . S
N1830 C1822 1.356 . S
N1830 H1836 0.984 . S
N1830 H1837 0.984 . S
N1831 C1824 1.356 . S
N1831 H1834 0.984 . S
N1831 H1835 0.985 . S
H1832 N1827 0.984 . S
H1833 N1827 0.985 . S
H1834 N1831 0.984 . S
H1835 N1831 0.985 . S
H1836 N1830 0.984 . S
H1837 N1830 0.984 . S
H1838 N1826 0.984 . S
H1839 N1826 0.985 . S
C1840 C1841 1.363 . S
C1840 C1846 1.379 . S
C1840 N1848 1.356 . S
C1841 C1840 1.363 . S
C1841 C1847 1.363 . S
C1842 C1843 1.363 . S
C1842 C1847 1.379 . S
C1842 N1849 1.356 . S
C1843 C1842 1.363 . S
C1843 C1846 1.363 . S
N1844 C1846 1.356 . S
N1844 H1856 0.984 . S
N1844 H1857 0.985 . S
N1845 C1847 1.356 . S
N1845 H1850 0.984 . S
N1845 H1851 0.985 . S
C1846 C1840 1.379 . S
C1846 C1843 1.363 . S
C1846 N1844 1.356 . S
C1847 C1841 1.363 . S
C1847 C1842 1.379 . S
C1847 N1845 1.356 . S
N1848 C1840 1.356 . S
N1848 H1854 0.984 . S
N1848 H1855 0.984 . S
N1849 C1842 1.356 . S
N1849 H1852 0.984 . S
N1849 H1853 0.985 . S
H1850 N1845 0.984 . S
H1851 N1845 0.985 . S
H1852 N1849 0.984 . S
H1853 N1849 0.985 . S
H1854 N1848 0.984 . S
H1855 N1848 0.984 . S
H1856 N1844 0.984 . S
H1857 N1844 0.985 . S
C1858 C1859 1.363 . S
C1858 C1864 1.379 . S
C1858 N1866 1.356 . S
C1859 C1858 1.363 . S
C1859 C1865 1.363 . S
C1860 C1861 1.363 . S
C1860 C1865 1.379 . S
C1860 N1867 1.356 . S
C1861 C1860 1.363 . S
C1861 C1864 1.363 . S
N1862 C1864 1.356 . S
N1862 H1874 0.984 . S
N1862 H1875 0.985 . S
N1863 C1865 1.356 . S
N1863 H1868 0.984 . S
N1863 H1869 0.985 . S
C1864 C1858 1.379 . S
C1864 C1861 1.363 . S
C1864 N1862 1.356 . S
C1865 C1859 1.363 . S
C1865 C1860 1.379 . S
C1865 N1863 1.356 . S
N1866 C1858 1.356 . S
N1866 H1872 0.984 . S
N1866 H1873 0.984 . S
N1867 C1860 1.356 . S
N1867 H1870 0.984 . S
N1867 H1871 0.985 . S
H1868 N1863 0.984 . S
H1869 N1863 0.985 . S
H1870 N1867 0.984 . S
H1871 N1867 0.985 . S
H1872 N1866 0.984 . S
H1873 N1866 0.984 . S
H1874 N1862 0.984 . S
H1875 N1862 0.985 . S
C1876 C1877 1.363 1_455 S
C1876 C1882 1.379 . S
C1876 N1884 1.356 . S
C1877 C1876 1.363 1_655 S
C1877 C1883 1.363 . S
C1878 C1879 1.363 . S
C1878 C1883 1.379 . S
C1878 N1885 1.356 . S
C1879 C1878 1.363 . S
C1879 C1882 1.363 1_655 S
N1880 C1882 1.356 . S
N1880 H1892 0.984 . S
N1880 H1893 0.985 . S
N1881 C1883 1.356 . S
N1881 H1886 0.984 . S
N1881 H1887 0.985 . S
C1882 C1876 1.379 . S
C1882 C1879 1.363 1_455 S
C1882 N1880 1.356 . S
C1883 C1877 1.363 . S
C1883 C1878 1.379 . S
C1883 N1881 1.356 . S
N1884 C1876 1.356 . S
N1884 H1890 0.984 . S
N1884 H1891 0.984 . S
N1885 C1878 1.356 . S
N1885 H1888 0.984 . S
N1885 H1889 0.985 . S
H1886 N1881 0.984 . S
H1887 N1881 0.985 . S
H1888 N1885 0.984 . S
H1889 N1885 0.985 . S
H1890 N1884 0.984 . S
H1891 N1884 0.984 . S
H1892 N1880 0.984 . S
H1893 N1880 0.985 . S
C1894 C1895 1.363 . S
C1894 C1900 1.379 . S
C1894 N1902 1.356 . S
C1895 C1894 1.363 . S
C1895 C1901 1.363 . S
C1896 C1897 1.363 . S
C1896 C1901 1.379 . S
C1896 N1903 1.356 . S
C1897 C1896 1.363 . S
C1897 C1900 1.363 . S
N1898 C1900 1.356 . S
N1898 H1910 0.984 . S
N1898 H1911 0.985 . S
N1899 C1901 1.356 . S
N1899 H1904 0.984 . S
N1899 H1905 0.985 . S
C1900 C1894 1.379 . S
C1900 C1897 1.363 . S
C1900 N1898 1.356 . S
C1901 C1895 1.363 . S
C1901 C1896 1.379 . S
C1901 N1899 1.356 . S
N1902 C1894 1.356 . S
N1902 H1908 0.984 . S
N1902 H1909 0.984 . S
N1903 C1896 1.356 . S
N1903 H1906 0.984 . S
N1903 H1907 0.985 . S
H1904 N1899 0.984 . S
H1905 N1899 0.985 . S
H1906 N1903 0.984 . S
H1907 N1903 0.985 . S
H1908 N1902 0.984 . S
H1909 N1902 0.984 . S
H1910 N1898 0.984 . S
H1911 N1898 0.985 . S
C1912 C1913 1.363 1_655 S
C1912 C1918 1.379 . S
C1912 N1920 1.356 . S
C1913 C1912 1.363 1_455 S
C1913 C1919 1.363 . S
C1914 C1915 1.363 . S
C1914 C1919 1.379 . S
C1914 N1921 1.356 . S
C1915 C1914 1.363 . S
C1915 C1918 1.363 1_455 S
N1916 C1918 1.356 . S
N1916 H1928 0.984 . S
N1916 H1929 0.985 . S
N1917 C1919 1.356 . S
N1917 H1922 0.984 . S
N1917 H1923 0.985 . S
C1918 C1912 1.379 . S
C1918 C1915 1.363 1_655 S
C1918 N1916 1.356 . S
C1919 C1913 1.363 . S
C1919 C1914 1.379 . S
C1919 N1917 1.356 . S
N1920 C1912 1.356 . S
N1920 H1926 0.984 . S
N1920 H1927 0.984 . S
N1921 C1914 1.356 . S
N1921 H1924 0.984 . S
N1921 H1925 0.985 . S
H1922 N1917 0.984 . S
H1923 N1917 0.985 . S
H1924 N1921 0.984 . S
H1925 N1921 0.985 . S
H1926 N1920 0.984 . S
H1927 N1920 0.984 . S
H1928 N1916 0.984 . S
H1929 N1916 0.985 . S
C1930 C1931 1.363 . S
C1930 C1936 1.379 . S
C1930 N1938 1.356 . S
C1931 C1930 1.363 . S
C1931 C1937 1.363 . S
C1932 C1933 1.363 . S
C1932 C1937 1.379 . S
C1932 N1939 1.356 . S
C1933 C1932 1.363 . S
C1933 C1936 1.363 . S
N1934 C1936 1.356 . S
N1934 H1946 0.984 . S
N1934 H1947 0.985 . S
N1935 C1937 1.356 . S
N1935 H1940 0.984 . S
N1935 H1941 0.985 . S
C1936 C1930 1.379 . S
C1936 C1933 1.363 . S
C1936 N1934 1.356 . S
C1937 C1931 1.363 . S
C1937 C1932 1.379 . S
C1937 N1935 1.356 . S
N1938 C1930 1.356 . S
N1938 H1944 0.984 . S
N1938 H1945 0.984 . S
N1939 C1932 1.356 . S
N1939 H1942 0.984 . S
N1939 H1943 0.985 . S
H1940 N1935 0.984 . S
H1941 N1935 0.985 . S
H1942 N1939 0.984 . S
H1943 N1939 0.985 . S
H1944 N1938 0.984 . S
H1945 N1938 0.984 . S
H1946 N1934 0.984 . S
H1947 N1934 0.985 . S
C1948 C1949 1.363 1_455 S
C1948 C1954 1.379 . S
C1948 N1956 1.356 . S
C1949 C1948 1.363 1_655 S
C1949 C1955 1.363 . S
C1950 C1951 1.363 . S
C1950 C1955 1.379 . S
C1950 N1957 1.356 . S
C1951 C1950 1.363 . S
C1951 C1954 1.363 1_655 S
N1952 C1954 1.356 . S
N1952 H1964 0.984 . S
N1952 H1965 0.985 . S
N1953 C1955 1.356 . S
N1953 H1958 0.984 . S
N1953 H1959 0.985 . S
C1954 C1948 1.379 . S
C1954 C1951 1.363 1_455 S
C1954 N1952 1.356 . S
C1955 C1949 1.363 . S
C1955 C1950 1.379 . S
C1955 N1953 1.356 . S
N1956 C1948 1.356 . S
N1956 H1962 0.984 . S
N1956 H1963 0.984 . S
N1957 C1950 1.356 . S
N1957 H1960 0.984 . S
N1957 H1961 0.985 . S
H1958 N1953 0.984 . S
H1959 N1953 0.985 . S
H1960 N1957 0.984 . S
H1961 N1957 0.985 . S
H1962 N1956 0.984 . S
H1963 N1956 0.984 . S
H1964 N1952 0.984 . S
H1965 N1952 0.985 . S
C1966 C1967 1.363 . S
C1966 C1972 1.379 . S
C1966 N1974 1.356 . S
C1967 C1966 1.363 . S
C1967 C1973 1.363 . S
C1968 C1969 1.363 . S
C1968 C1973 1.379 . S
C1968 N1975 1.356 . S
C1969 C1968 1.363 . S
C1969 C1972 1.363 . S
N1970 C1972 1.356 . S
N1970 H1982 0.984 . S
N1970 H1983 0.985 . S
N1971 C1973 1.356 . S
N1971 H1976 0.984 . S
N1971 H1977 0.985 . S
C1972 C1966 1.379 . S
C1972 C1969 1.363 . S
C1972 N1970 1.356 . S
C1973 C1967 1.363 . S
C1973 C1968 1.379 . S
C1973 N1971 1.356 . S
N1974 C1966 1.356 . S
N1974 H1980 0.984 . S
N1974 H1981 0.984 . S
N1975 C1968 1.356 . S
N1975 H1978 0.984 . S
N1975 H1979 0.985 . S
H1976 N1971 0.984 . S
H1977 N1971 0.985 . S
H1978 N1975 0.984 . S
H1979 N1975 0.985 . S
H1980 N1974 0.984 . S
H1981 N1974 0.984 . S
H1982 N1970 0.984 . S
H1983 N1970 0.985 . S
C1984 C1985 1.363 . S
C1984 C1990 1.379 . S
C1984 N1992 1.356 . S
C1985 C1984 1.363 . S
C1985 C1991 1.363 . S
C1986 C1987 1.363 . S
C1986 C1991 1.379 . S
C1986 N1993 1.356 . S
C1987 C1986 1.363 . S
C1987 C1990 1.363 . S
N1988 C1990 1.356 . S
N1988 H2000 0.984 . S
N1988 H2001 0.985 . S
N1989 C1991 1.356 . S
N1989 H1994 0.984 . S
N1989 H1995 0.985 . S
C1990 C1984 1.379 . S
C1990 C1987 1.363 . S
C1990 N1988 1.356 . S
C1991 C1985 1.363 . S
C1991 C1986 1.379 . S
C1991 N1989 1.356 . S
N1992 C1984 1.356 . S
N1992 H1998 0.984 . S
N1992 H1999 0.984 . S
N1993 C1986 1.356 . S
N1993 H1996 0.984 . S
N1993 H1997 0.985 . S
H1994 N1989 0.984 . S
H1995 N1989 0.985 . S
H1996 N1993 0.984 . S
H1997 N1993 0.985 . S
H1998 N1992 0.984 . S
H1999 N1992 0.984 . S
H2000 N1988 0.984 . S
H2001 N1988 0.985 . S
C2002 C2003 1.363 . S
C2002 C2008 1.379 . S
C2002 N2010 1.356 . S
C2003 C2002 1.363 . S
C2003 C2009 1.363 . S
C2004 C2005 1.363 . S
C2004 C2009 1.379 . S
C2004 N2011 1.356 . S
C2005 C2004 1.363 . S
C2005 C2008 1.363 . S
N2006 C2008 1.356 . S
N2006 H2018 0.984 . S
N2006 H2019 0.985 . S
N2007 C2009 1.356 . S
N2007 H2012 0.984 . S
N2007 H2013 0.985 . S
C2008 C2002 1.379 . S
C2008 C2005 1.363 . S
C2008 N2006 1.356 . S
C2009 C2003 1.363 . S
C2009 C2004 1.379 . S
C2009 N2007 1.356 . S
N2010 C2002 1.356 . S
N2010 H2016 0.984 . S
N2010 H2017 0.984 . S
N2011 C2004 1.356 . S
N2011 H2014 0.984 . S
N2011 H2015 0.985 . S
H2012 N2007 0.984 . S
H2013 N2007 0.985 . S
H2014 N2011 0.984 . S
H2015 N2011 0.985 . S
H2016 N2010 0.984 . S
H2017 N2010 0.984 . S
H2018 N2006 0.984 . S
H2019 N2006 0.985 . S
C2020 C2021 1.363 . S
C2020 C2026 1.379 . S
C2020 N2028 1.356 . S
C2021 C2020 1.363 . S
C2021 C2027 1.363 . S
C2022 C2023 1.363 . S
C2022 C2027 1.379 . S
C2022 N2029 1.356 . S
C2023 C2022 1.363 . S
C2023 C2026 1.363 . S
N2024 C2026 1.356 . S
N2024 H2036 0.984 . S
N2024 H2037 0.985 . S
N2025 C2027 1.356 . S
N2025 H2030 0.984 . S
N2025 H2031 0.985 . S
C2026 C2020 1.379 . S
C2026 C2023 1.363 . S
C2026 N2024 1.356 . S
C2027 C2021 1.363 . S
C2027 C2022 1.379 . S
C2027 N2025 1.356 . S
N2028 C2020 1.356 . S
N2028 H2034 0.984 . S
N2028 H2035 0.984 . S
N2029 C2022 1.356 . S
N2029 H2032 0.984 . S
N2029 H2033 0.985 . S
H2030 N2025 0.984 . S
H2031 N2025 0.985 . S
H2032 N2029 0.984 . S
H2033 N2029 0.985 . S
H2034 N2028 0.984 . S
H2035 N2028 0.984 . S
H2036 N2024 0.984 . S
H2037 N2024 0.985 . S
C2038 C2039 1.363 . S
C2038 C2044 1.379 . S
C2038 N2046 1.356 . S
C2039 C2038 1.363 . S
C2039 C2045 1.363 . S
C2040 C2041 1.363 . S
C2040 C2045 1.379 . S
C2040 N2047 1.356 . S
C2041 C2040 1.363 . S
C2041 C2044 1.363 . S
N2042 C2044 1.356 . S
N2042 H2054 0.984 . S
N2042 H2055 0.985 . S
N2043 C2045 1.356 . S
N2043 H2048 0.984 . S
N2043 H2049 0.985 . S
C2044 C2038 1.379 . S
C2044 C2041 1.363 . S
C2044 N2042 1.356 . S
C2045 C2039 1.363 . S
C2045 C2040 1.379 . S
C2045 N2043 1.356 . S
N2046 C2038 1.356 . S
N2046 H2052 0.984 . S
N2046 H2053 0.984 . S
N2047 C2040 1.356 . S
N2047 H2050 0.984 . S
N2047 H2051 0.985 . S
H2048 N2043 0.984 . S
H2049 N2043 0.985 . S
H2050 N2047 0.984 . S
H2051 N2047 0.985 . S
H2052 N2046 0.984 . S
H2053 N2046 0.984 . S
H2054 N2042 0.984 . S
H2055 N2042 0.985 . S
C2056 C2057 1.363 . S
C2056 C2062 1.379 . S
C2056 N2064 1.356 . S
C2057 C2056 1.363 . S
C2057 C2063 1.363 . S
C2058 C2059 1.363 . S
C2058 C2063 1.379 . S
C2058 N2065 1.356 . S
C2059 C2058 1.363 . S
C2059 C2062 1.363 . S
N2060 C2062 1.356 . S
N2060 H2072 0.984 . S
N2060 H2073 0.985 . S
N2061 C2063 1.356 . S
N2061 H2066 0.984 . S
N2061 H2067 0.985 . S
C2062 C2056 1.379 . S
C2062 C2059 1.363 . S
C2062 N2060 1.356 . S
C2063 C2057 1.363 . S
C2063 C2058 1.379 . S
C2063 N2061 1.356 . S
N2064 C2056 1.356 . S
N2064 H2070 0.984 . S
N2064 H2071 0.984 . S
N2065 C2058 1.356 . S
N2065 H2068 0.984 . S
N2065 H2069 0.985 . S
H2066 N2061 0.984 . S
H2067 N2061 0.985 . S
H2068 N2065 0.984 . S
H2069 N2065 0.985 . S
H2070 N2064 0.984 . S
H2071 N2064 0.984 . S
H2072 N2060 0.984 . S
H2073 N2060 0.985 . S
C2074 C2075 1.363 . S
C2074 C2080 1.379 . S
C2074 N2082 1.356 . S
C2075 C2074 1.363 . S
C2075 C2081 1.363 . S
C2076 C2077 1.363 . S
C2076 C2081 1.379 . S
C2076 N2083 1.356 . S
C2077 C2076 1.363 . S
C2077 C2080 1.363 . S
N2078 C2080 1.356 . S
N2078 H2090 0.984 . S
N2078 H2091 0.985 . S
N2079 C2081 1.356 . S
N2079 H2084 0.984 . S
N2079 H2085 0.985 . S
C2080 C2074 1.379 . S
C2080 C2077 1.363 . S
C2080 N2078 1.356 . S
C2081 C2075 1.363 . S
C2081 C2076 1.379 . S
C2081 N2079 1.356 . S
N2082 C2074 1.356 . S
N2082 H2088 0.984 . S
N2082 H2089 0.984 . S
N2083 C2076 1.356 . S
N2083 H2086 0.984 . S
N2083 H2087 0.985 . S
H2084 N2079 0.984 . S
H2085 N2079 0.985 . S
H2086 N2083 0.984 . S
H2087 N2083 0.985 . S
H2088 N2082 0.984 . S
H2089 N2082 0.984 . S
H2090 N2078 0.984 . S
H2091 N2078 0.985 . S
C2092 C2093 1.363 . S
C2092 C2098 1.379 . S
C2092 N2100 1.356 . S
C2093 C2092 1.363 . S
C2093 C2099 1.363 . S
C2094 C2095 1.363 . S
C2094 C2099 1.379 . S
C2094 N2101 1.356 . S
C2095 C2094 1.363 . S
C2095 C2098 1.363 . S
N2096 C2098 1.356 . S
N2096 H2108 0.984 . S
N2096 H2109 0.985 . S
N2097 C2099 1.356 . S
N2097 H2102 0.984 . S
N2097 H2103 0.985 . S
C2098 C2092 1.379 . S
C2098 C2095 1.363 . S
C2098 N2096 1.356 . S
C2099 C2093 1.363 . S
C2099 C2094 1.379 . S
C2099 N2097 1.356 . S
N2100 C2092 1.356 . S
N2100 H2106 0.984 . S
N2100 H2107 0.984 . S
N2101 C2094 1.356 . S
N2101 H2104 0.984 . S
N2101 H2105 0.985 . S
H2102 N2097 0.984 . S
H2103 N2097 0.985 . S
H2104 N2101 0.984 . S
H2105 N2101 0.985 . S
H2106 N2100 0.984 . S
H2107 N2100 0.984 . S
H2108 N2096 0.984 . S
H2109 N2096 0.985 . S
C2110 C2111 1.363 . S
C2110 C2116 1.379 . S
C2110 N2118 1.356 . S
C2111 C2110 1.363 . S
C2111 C2117 1.363 . S
C2112 C2113 1.363 . S
C2112 C2117 1.379 . S
C2112 N2119 1.356 . S
C2113 C2112 1.363 . S
C2113 C2116 1.363 . S
N2114 C2116 1.356 . S
N2114 H2126 0.984 . S
N2114 H2127 0.985 . S
N2115 C2117 1.356 . S
N2115 H2120 0.984 . S
N2115 H2121 0.985 . S
C2116 C2110 1.379 . S
C2116 C2113 1.363 . S
C2116 N2114 1.356 . S
C2117 C2111 1.363 . S
C2117 C2112 1.379 . S
C2117 N2115 1.356 . S
N2118 C2110 1.356 . S
N2118 H2124 0.984 . S
N2118 H2125 0.984 . S
N2119 C2112 1.356 . S
N2119 H2122 0.984 . S
N2119 H2123 0.985 . S
H2120 N2115 0.984 . S
H2121 N2115 0.985 . S
H2122 N2119 0.984 . S
H2123 N2119 0.985 . S
H2124 N2118 0.984 . S
H2125 N2118 0.984 . S
H2126 N2114 0.984 . S
H2127 N2114 0.985 . S
C2128 C2129 1.363 . S
C2128 C2134 1.379 . S
C2128 N2136 1.356 . S
C2129 C2128 1.363 . S
C2129 C2135 1.363 . S
C2130 C2131 1.363 . S
C2130 C2135 1.379 . S
C2130 N2137 1.356 . S
C2131 C2130 1.363 . S
C2131 C2134 1.363 . S
N2132 C2134 1.356 . S
N2132 H2144 0.984 . S
N2132 H2145 0.985 . S
N2133 C2135 1.356 . S
N2133 H2138 0.984 . S
N2133 H2139 0.985 . S
C2134 C2128 1.379 . S
C2134 C2131 1.363 . S
C2134 N2132 1.356 . S
C2135 C2129 1.363 . S
C2135 C2130 1.379 . S
C2135 N2133 1.356 . S
N2136 C2128 1.356 . S
N2136 H2142 0.984 . S
N2136 H2143 0.984 . S
N2137 C2130 1.356 . S
N2137 H2140 0.984 . S
N2137 H2141 0.985 . S
H2138 N2133 0.984 . S
H2139 N2133 0.985 . S
H2140 N2137 0.984 . S
H2141 N2137 0.985 . S
H2142 N2136 0.984 . S
H2143 N2136 0.984 . S
H2144 N2132 0.984 . S
H2145 N2132 0.985 . S
C2146 C2147 1.363 . S
C2146 C2152 1.379 . S
C2146 N2154 1.356 . S
C2147 C2146 1.363 . S
C2147 C2153 1.363 . S
C2148 C2149 1.363 . S
C2148 C2153 1.379 . S
C2148 N2155 1.356 . S
C2149 C2148 1.363 . S
C2149 C2152 1.363 . S
N2150 C2152 1.356 . S
N2150 H2162 0.984 . S
N2150 H2163 0.985 . S
N2151 C2153 1.356 . S
N2151 H2156 0.984 . S
N2151 H2157 0.985 . S
C2152 C2146 1.379 . S
C2152 C2149 1.363 . S
C2152 N2150 1.356 . S
C2153 C2147 1.363 . S
C2153 C2148 1.379 . S
C2153 N2151 1.356 . S
N2154 C2146 1.356 . S
N2154 H2160 0.984 . S
N2154 H2161 0.984 . S
N2155 C2148 1.356 . S
N2155 H2158 0.984 . S
N2155 H2159 0.985 . S
H2156 N2151 0.984 . S
H2157 N2151 0.985 . S
H2158 N2155 0.984 . S
H2159 N2155 0.985 . S
H2160 N2154 0.984 . S
H2161 N2154 0.984 . S
H2162 N2150 0.984 . S
H2163 N2150 0.985 . S
C2164 C2165 1.363 . S
C2164 C2170 1.379 . S
C2164 N2172 1.356 . S
C2165 C2164 1.363 . S
C2165 C2171 1.363 . S
C2166 C2167 1.363 . S
C2166 C2171 1.379 . S
C2166 N2173 1.356 . S
C2167 C2166 1.363 . S
C2167 C2170 1.363 . S
N2168 C2170 1.356 . S
N2168 H2180 0.984 . S
N2168 H2181 0.985 . S
N2169 C2171 1.356 . S
N2169 H2174 0.984 . S
N2169 H2175 0.985 . S
C2170 C2164 1.379 . S
C2170 C2167 1.363 . S
C2170 N2168 1.356 . S
C2171 C2165 1.363 . S
C2171 C2166 1.379 . S
C2171 N2169 1.356 . S
N2172 C2164 1.356 . S
N2172 H2178 0.984 . S
N2172 H2179 0.984 . S
N2173 C2166 1.356 . S
N2173 H2176 0.984 . S
N2173 H2177 0.985 . S
H2174 N2169 0.984 . S
H2175 N2169 0.985 . S
H2176 N2173 0.984 . S
H2177 N2173 0.985 . S
H2178 N2172 0.984 . S
H2179 N2172 0.984 . S
H2180 N2168 0.984 . S
H2181 N2168 0.985 . S
C2182 C2183 1.363 . S
C2182 C2188 1.379 . S
C2182 N2190 1.356 . S
C2183 C2182 1.363 . S
C2183 C2189 1.363 . S
C2184 C2185 1.363 . S
C2184 C2189 1.379 . S
C2184 N2191 1.356 . S
C2185 C2184 1.363 . S
C2185 C2188 1.363 . S
N2186 C2188 1.356 . S
N2186 H2198 0.984 . S
N2186 H2199 0.985 . S
N2187 C2189 1.356 . S
N2187 H2192 0.984 . S
N2187 H2193 0.985 . S
C2188 C2182 1.379 . S
C2188 C2185 1.363 . S
C2188 N2186 1.356 . S
C2189 C2183 1.363 . S
C2189 C2184 1.379 . S
C2189 N2187 1.356 . S
N2190 C2182 1.356 . S
N2190 H2196 0.984 . S
N2190 H2197 0.984 . S
N2191 C2184 1.356 . S
N2191 H2194 0.984 . S
N2191 H2195 0.985 . S
H2192 N2187 0.984 . S
H2193 N2187 0.985 . S
H2194 N2191 0.984 . S
H2195 N2191 0.985 . S
H2196 N2190 0.984 . S
H2197 N2190 0.984 . S
H2198 N2186 0.984 . S
H2199 N2186 0.985 . S
C2200 C2201 1.363 . S
C2200 C2206 1.379 . S
C2200 N2208 1.356 . S
C2201 C2200 1.363 . S
C2201 C2207 1.363 . S
C2202 C2203 1.363 . S
C2202 C2207 1.379 . S
C2202 N2209 1.356 . S
C2203 C2202 1.363 . S
C2203 C2206 1.363 . S
N2204 C2206 1.356 . S
N2204 H2216 0.984 . S
N2204 H2217 0.985 . S
N2205 C2207 1.356 . S
N2205 H2210 0.984 . S
N2205 H2211 0.985 . S
C2206 C2200 1.379 . S
C2206 C2203 1.363 . S
C2206 N2204 1.356 . S
C2207 C2201 1.363 . S
C2207 C2202 1.379 . S
C2207 N2205 1.356 . S
N2208 C2200 1.356 . S
N2208 H2214 0.984 . S
N2208 H2215 0.984 . S
N2209 C2202 1.356 . S
N2209 H2212 0.984 . S
N2209 H2213 0.985 . S
H2210 N2205 0.984 . S
H2211 N2205 0.985 . S
H2212 N2209 0.984 . S
H2213 N2209 0.985 . S
H2214 N2208 0.984 . S
H2215 N2208 0.984 . S
H2216 N2204 0.984 . S
H2217 N2204 0.985 . S
C2218 C2219 1.363 . S
C2218 C2224 1.379 . S
C2218 N2226 1.356 . S
C2219 C2218 1.363 . S
C2219 C2225 1.363 . S
C2220 C2221 1.363 . S
C2220 C2225 1.379 . S
C2220 N2227 1.356 . S
C2221 C2220 1.363 . S
C2221 C2224 1.363 . S
N2222 C2224 1.356 . S
N2222 H2234 0.984 . S
N2222 H2235 0.985 . S
N2223 C2225 1.356 . S
N2223 H2228 0.984 . S
N2223 H2229 0.985 . S
C2224 C2218 1.379 . S
C2224 C2221 1.363 . S
C2224 N2222 1.356 . S
C2225 C2219 1.363 . S
C2225 C2220 1.379 . S
C2225 N2223 1.356 . S
N2226 C2218 1.356 . S
N2226 H2232 0.984 . S
N2226 H2233 0.984 . S
N2227 C2220 1.356 . S
N2227 H2230 0.984 . S
N2227 H2231 0.985 . S
H2228 N2223 0.984 . S
H2229 N2223 0.985 . S
H2230 N2227 0.984 . S
H2231 N2227 0.985 . S
H2232 N2226 0.984 . S
H2233 N2226 0.984 . S
H2234 N2222 0.984 . S
H2235 N2222 0.985 . S
C2236 C2237 1.363 . S
C2236 C2242 1.379 . S
C2236 N2244 1.356 . S
C2237 C2236 1.363 . S
C2237 C2243 1.363 . S
C2238 C2239 1.363 . S
C2238 C2243 1.379 . S
C2238 N2245 1.356 . S
C2239 C2238 1.363 . S
C2239 C2242 1.363 . S
N2240 C2242 1.356 . S
N2240 H2252 0.984 . S
N2240 H2253 0.985 . S
N2241 C2243 1.356 . S
N2241 H2246 0.984 . S
N2241 H2247 0.985 . S
C2242 C2236 1.379 . S
C2242 C2239 1.363 . S
C2242 N2240 1.356 . S
C2243 C2237 1.363 . S
C2243 C2238 1.379 . S
C2243 N2241 1.356 . S
N2244 C2236 1.356 . S
N2244 H2250 0.984 . S
N2244 H2251 0.984 . S
N2245 C2238 1.356 . S
N2245 H2248 0.984 . S
N2245 H2249 0.985 . S
H2246 N2241 0.984 . S
H2247 N2241 0.985 . S
H2248 N2245 0.984 . S
H2249 N2245 0.985 . S
H2250 N2244 0.984 . S
H2251 N2244 0.984 . S
H2252 N2240 0.984 . S
H2253 N2240 0.985 . S
C2254 C2255 1.363 . S
C2254 C2260 1.379 . S
C2254 N2262 1.356 . S
C2255 C2254 1.363 . S
C2255 C2261 1.363 . S
C2256 C2257 1.363 . S
C2256 C2261 1.379 . S
C2256 N2263 1.356 . S
C2257 C2256 1.363 . S
C2257 C2260 1.363 . S
N2258 C2260 1.356 . S
N2258 H2270 0.984 . S
N2258 H2271 0.985 . S
N2259 C2261 1.356 . S
N2259 H2264 0.984 . S
N2259 H2265 0.985 . S
C2260 C2254 1.379 . S
C2260 C2257 1.363 . S
C2260 N2258 1.356 . S
C2261 C2255 1.363 . S
C2261 C2256 1.379 . S
C2261 N2259 1.356 . S
N2262 C2254 1.356 . S
N2262 H2268 0.984 . S
N2262 H2269 0.984 . S
N2263 C2256 1.356 . S
N2263 H2266 0.984 . S
N2263 H2267 0.985 . S
H2264 N2259 0.984 . S
H2265 N2259 0.985 . S
H2266 N2263 0.984 . S
H2267 N2263 0.985 . S
H2268 N2262 0.984 . S
H2269 N2262 0.984 . S
H2270 N2258 0.984 . S
H2271 N2258 0.985 . S
C2272 C2273 1.363 . S
C2272 C2278 1.379 1_554 S
C2272 N2280 1.356 . S
C2273 C2272 1.363 . S
C2273 C2279 1.363 1_565 S
C2274 C2275 1.363 . S
C2274 C2279 1.379 1_556 S
C2274 N2281 1.356 . S
C2275 C2274 1.363 . S
C2275 C2278 1.363 1_545 S
N2276 C2278 1.356 . S
N2276 H2288 0.984 . S
N2276 H2289 0.985 . S
N2277 C2279 1.356 . S
N2277 H2282 0.984 . S
N2277 H2283 0.985 . S
C2278 C2272 1.379 1_556 S
C2278 C2275 1.363 1_565 S
C2278 N2276 1.356 . S
C2279 C2273 1.363 1_545 S
C2279 C2274 1.379 1_554 S
C2279 N2277 1.356 . S
N2280 C2272 1.356 . S
N2280 H2286 0.984 . S
N2280 H2287 0.984 . S
N2281 C2274 1.356 . S
N2281 H2284 0.984 . S
N2281 H2285 0.985 . S
H2282 N2277 0.984 . S
H2283 N2277 0.985 . S
H2284 N2281 0.984 . S
H2285 N2281 0.985 . S
H2286 N2280 0.984 . S
H2287 N2280 0.984 . S
H2288 N2276 0.984 . S
H2289 N2276 0.985 . S
C2290 C2291 1.363 . S
C2290 C2296 1.379 1_554 S
C2290 N2298 1.356 . S
C2291 C2290 1.363 . S
C2291 C2297 1.363 . S
C2292 C2293 1.363 . S
C2292 C2297 1.379 1_556 S
C2292 N2299 1.356 . S
C2293 C2292 1.363 . S
C2293 C2296 1.363 . S
N2294 C2296 1.356 . S
N2294 H2306 0.984 . S
N2294 H2307 0.985 . S
N2295 C2297 1.356 . S
N2295 H2300 0.984 . S
N2295 H2301 0.985 . S
C2296 C2290 1.379 1_556 S
C2296 C2293 1.363 . S
C2296 N2294 1.356 . S
C2297 C2291 1.363 . S
C2297 C2292 1.379 1_554 S
C2297 N2295 1.356 . S
N2298 C2290 1.356 . S
N2298 H2304 0.984 . S
N2298 H2305 0.984 . S
N2299 C2292 1.356 . S
N2299 H2302 0.984 . S
N2299 H2303 0.985 . S
H2300 N2295 0.984 . S
H2301 N2295 0.985 . S
H2302 N2299 0.984 . S
H2303 N2299 0.985 . S
H2304 N2298 0.984 . S
H2305 N2298 0.984 . S
H2306 N2294 0.984 . S
H2307 N2294 0.985 . S
C2308 C2309 1.363 . S
C2308 C2314 1.379 . S
C2308 N2316 1.356 . S
C2309 C2308 1.363 . S
C2309 C2315 1.363 . S
C2310 C2311 1.363 . S
C2310 C2315 1.379 . S
C2310 N2317 1.356 . S
C2311 C2310 1.363 . S
C2311 C2314 1.363 . S
N2312 C2314 1.356 . S
N2312 H2324 0.984 . S
N2312 H2325 0.985 . S
N2313 C2315 1.356 . S
N2313 H2318 0.984 . S
N2313 H2319 0.985 . S
C2314 C2308 1.379 . S
C2314 C2311 1.363 . S
C2314 N2312 1.356 . S
C2315 C2309 1.363 . S
C2315 C2310 1.379 . S
C2315 N2313 1.356 . S
N2316 C2308 1.356 . S
N2316 H2322 0.984 . S
N2316 H2323 0.984 . S
N2317 C2310 1.356 . S
N2317 H2320 0.984 . S
N2317 H2321 0.985 . S
H2318 N2313 0.984 . S
H2319 N2313 0.985 . S
H2320 N2317 0.984 . S
H2321 N2317 0.985 . S
H2322 N2316 0.984 . S
H2323 N2316 0.984 . S
H2324 N2312 0.984 . S
H2325 N2312 0.985 . S
C2326 C2327 1.363 1_545 S
C2326 C2332 1.379 . S
C2326 N2334 1.356 . S
C2327 C2326 1.363 1_565 S
C2327 C2333 1.363 . S
C2328 C2329 1.363 1_565 S
C2328 C2333 1.379 . S
C2328 N2335 1.356 . S
C2329 C2328 1.363 1_545 S
C2329 C2332 1.363 . S
N2330 C2332 1.356 . S
N2330 H2342 0.984 . S
N2330 H2343 0.985 . S
N2331 C2333 1.356 . S
N2331 H2336 0.984 . S
N2331 H2337 0.985 . S
C2332 C2326 1.379 . S
C2332 C2329 1.363 . S
C2332 N2330 1.356 . S
C2333 C2327 1.363 . S
C2333 C2328 1.379 . S
C2333 N2331 1.356 . S
N2334 C2326 1.356 . S
N2334 H2340 0.984 . S
N2334 H2341 0.984 . S
N2335 C2328 1.356 . S
N2335 H2338 0.984 . S
N2335 H2339 0.985 . S
H2336 N2331 0.984 . S
H2337 N2331 0.985 . S
H2338 N2335 0.984 . S
H2339 N2335 0.985 . S
H2340 N2334 0.984 . S
H2341 N2334 0.984 . S
H2342 N2330 0.984 . S
H2343 N2330 0.985 . S
C2344 C2345 1.363 . S
C2344 C2350 1.379 1_556 S
C2344 N2352 1.356 . S
C2345 C2344 1.363 . S
C2345 C2351 1.363 . S
C2346 C2347 1.363 . S
C2346 C2351 1.379 1_554 S
C2346 N2353 1.356 . S
C2347 C2346 1.363 . S
C2347 C2350 1.363 . S
N2348 C2350 1.356 . S
N2348 H2360 0.984 . S
N2348 H2361 0.985 . S
N2349 C2351 1.356 . S
N2349 H2354 0.984 . S
N2349 H2355 0.985 . S
C2350 C2344 1.379 1_554 S
C2350 C2347 1.363 . S
C2350 N2348 1.356 . S
C2351 C2345 1.363 . S
C2351 C2346 1.379 1_556 S
C2351 N2349 1.356 . S
N2352 C2344 1.356 . S
N2352 H2358 0.984 . S
N2352 H2359 0.984 . S
N2353 C2346 1.356 . S
N2353 H2356 0.984 . S
N2353 H2357 0.985 . S
H2354 N2349 0.984 . S
H2355 N2349 0.985 . S
H2356 N2353 0.984 . S
H2357 N2353 0.985 . S
H2358 N2352 0.984 . S
H2359 N2352 0.984 . S
H2360 N2348 0.984 . S
H2361 N2348 0.985 . S
C2362 C2363 1.363 . S
C2362 C2368 1.379 . S
C2362 N2370 1.356 . S
C2363 C2362 1.363 . S
C2363 C2369 1.363 . S
C2364 C2365 1.363 . S
C2364 C2369 1.379 . S
C2364 N2371 1.356 . S
C2365 C2364 1.363 . S
C2365 C2368 1.363 . S
N2366 C2368 1.356 . S
N2366 H2378 0.984 . S
N2366 H2379 0.985 . S
N2367 C2369 1.356 . S
N2367 H2372 0.984 . S
N2367 H2373 0.985 . S
C2368 C2362 1.379 . S
C2368 C2365 1.363 . S
C2368 N2366 1.356 . S
C2369 C2363 1.363 . S
C2369 C2364 1.379 . S
C2369 N2367 1.356 . S
N2370 C2362 1.356 . S
N2370 H2376 0.984 . S
N2370 H2377 0.984 . S
N2371 C2364 1.356 . S
N2371 H2374 0.984 . S
N2371 H2375 0.985 . S
H2372 N2367 0.984 . S
H2373 N2367 0.985 . S
H2374 N2371 0.984 . S
H2375 N2371 0.985 . S
H2376 N2370 0.984 . S
H2377 N2370 0.984 . S
H2378 N2366 0.984 . S
H2379 N2366 0.985 . S
C2380 C2381 1.363 1_545 S
C2380 C2386 1.379 . S
C2380 N2388 1.356 . S
C2381 C2380 1.363 1_565 S
C2381 C2387 1.363 . S
C2382 C2383 1.363 1_565 S
C2382 C2387 1.379 . S
C2382 N2389 1.356 . S
C2383 C2382 1.363 1_545 S
C2383 C2386 1.363 . S
N2384 C2386 1.356 . S
N2384 H2396 0.984 . S
N2384 H2397 0.985 . S
N2385 C2387 1.356 . S
N2385 H2390 0.984 . S
N2385 H2391 0.985 . S
C2386 C2380 1.379 . S
C2386 C2383 1.363 . S
C2386 N2384 1.356 . S
C2387 C2381 1.363 . S
C2387 C2382 1.379 . S
C2387 N2385 1.356 . S
N2388 C2380 1.356 . S
N2388 H2394 0.984 . S
N2388 H2395 0.984 . S
N2389 C2382 1.356 . S
N2389 H2392 0.984 . S
N2389 H2393 0.985 . S
H2390 N2385 0.984 . S
H2391 N2385 0.985 . S
H2392 N2389 0.984 . S
H2393 N2389 0.985 . S
H2394 N2388 0.984 . S
H2395 N2388 0.984 . S
H2396 N2384 0.984 . S
H2397 N2384 0.985 . S
C2398 C2399 1.363 . S
C2398 C2404 1.379 . S
C2398 N2406 1.356 . S
C2399 C2398 1.363 . S
C2399 C2405 1.363 . S
C2400 C2401 1.363 . S
C2400 C2405 1.379 . S
C2400 N2407 1.356 . S
C2401 C2400 1.363 . S
C2401 C2404 1.363 . S
N2402 C2404 1.356 . S
N2402 H2414 0.984 . S
N2402 H2415 0.985 . S
N2403 C2405 1.356 . S
N2403 H2408 0.984 . S
N2403 H2409 0.985 . S
C2404 C2398 1.379 . S
C2404 C2401 1.363 . S
C2404 N2402 1.356 . S
C2405 C2399 1.363 . S
C2405 C2400 1.379 . S
C2405 N2403 1.356 . S
N2406 C2398 1.356 . S
N2406 H2412 0.984 . S
N2406 H2413 0.984 . S
N2407 C2400 1.356 . S
N2407 H2410 0.984 . S
N2407 H2411 0.985 . S
H2408 N2403 0.984 . S
H2409 N2403 0.985 . S
H2410 N2407 0.984 . S
H2411 N2407 0.985 . S
H2412 N2406 0.984 . S
H2413 N2406 0.984 . S
H2414 N2402 0.984 . S
H2415 N2402 0.985 . S
C2416 C2417 1.363 . S
C2416 C2422 1.379 . S
C2416 N2424 1.356 . S
C2417 C2416 1.363 . S
C2417 C2423 1.363 . S
C2418 C2419 1.363 . S
C2418 C2423 1.379 . S
C2418 N2425 1.356 . S
C2419 C2418 1.363 . S
C2419 C2422 1.363 . S
N2420 C2422 1.356 . S
N2420 H2432 0.984 . S
N2420 H2433 0.985 . S
N2421 C2423 1.356 . S
N2421 H2426 0.984 . S
N2421 H2427 0.985 . S
C2422 C2416 1.379 . S
C2422 C2419 1.363 . S
C2422 N2420 1.356 . S
C2423 C2417 1.363 . S
C2423 C2418 1.379 . S
C2423 N2421 1.356 . S
N2424 C2416 1.356 . S
N2424 H2430 0.984 . S
N2424 H2431 0.984 . S
N2425 C2418 1.356 . S
N2425 H2428 0.984 . S
N2425 H2429 0.985 . S
H2426 N2421 0.984 . S
H2427 N2421 0.985 . S
H2428 N2425 0.984 . S
H2429 N2425 0.985 . S
H2430 N2424 0.984 . S
H2431 N2424 0.984 . S
H2432 N2420 0.984 . S
H2433 N2420 0.985 . S
C2434 C2435 1.363 . S
C2434 C2440 1.379 . S
C2434 N2442 1.356 . S
C2435 C2434 1.363 . S
C2435 C2441 1.363 . S
C2436 C2437 1.363 . S
C2436 C2441 1.379 . S
C2436 N2443 1.356 . S
C2437 C2436 1.363 . S
C2437 C2440 1.363 . S
N2438 C2440 1.356 . S
N2438 H2450 0.984 . S
N2438 H2451 0.985 . S
N2439 C2441 1.356 . S
N2439 H2444 0.984 . S
N2439 H2445 0.985 . S
C2440 C2434 1.379 . S
C2440 C2437 1.363 . S
C2440 N2438 1.356 . S
C2441 C2435 1.363 . S
C2441 C2436 1.379 . S
C2441 N2439 1.356 . S
N2442 C2434 1.356 . S
N2442 H2448 0.984 . S
N2442 H2449 0.984 . S
N2443 C2436 1.356 . S
N2443 H2446 0.984 . S
N2443 H2447 0.985 . S
H2444 N2439 0.984 . S
H2445 N2439 0.985 . S
H2446 N2443 0.984 . S
H2447 N2443 0.985 . S
H2448 N2442 0.984 . S
H2449 N2442 0.984 . S
H2450 N2438 0.984 . S
H2451 N2438 0.985 . S
C2452 C2453 1.363 . S
C2452 C2458 1.379 . S
C2452 N2460 1.356 . S
C2453 C2452 1.363 . S
C2453 C2459 1.363 . S
C2454 C2455 1.363 . S
C2454 C2459 1.379 . S
C2454 N2461 1.356 . S
C2455 C2454 1.363 . S
C2455 C2458 1.363 . S
N2456 C2458 1.356 . S
N2456 H2468 0.984 . S
N2456 H2469 0.985 . S
N2457 C2459 1.356 . S
N2457 H2462 0.984 . S
N2457 H2463 0.985 . S
C2458 C2452 1.379 . S
C2458 C2455 1.363 . S
C2458 N2456 1.356 . S
C2459 C2453 1.363 . S
C2459 C2454 1.379 . S
C2459 N2457 1.356 . S
N2460 C2452 1.356 . S
N2460 H2466 0.984 . S
N2460 H2467 0.984 . S
N2461 C2454 1.356 . S
N2461 H2464 0.984 . S
N2461 H2465 0.985 . S
H2462 N2457 0.984 . S
H2463 N2457 0.985 . S
H2464 N2461 0.984 . S
H2465 N2461 0.985 . S
H2466 N2460 0.984 . S
H2467 N2460 0.984 . S
H2468 N2456 0.984 . S
H2469 N2456 0.985 . S
C2470 C2471 1.363 . S
C2470 C2476 1.379 . S
C2470 N2478 1.356 . S
C2471 C2470 1.363 . S
C2471 C2477 1.363 . S
C2472 C2473 1.363 . S
C2472 C2477 1.379 . S
C2472 N2479 1.356 . S
C2473 C2472 1.363 . S
C2473 C2476 1.363 . S
N2474 C2476 1.356 . S
N2474 H2486 0.984 . S
N2474 H2487 0.985 . S
N2475 C2477 1.356 . S
N2475 H2480 0.984 . S
N2475 H2481 0.985 . S
C2476 C2470 1.379 . S
C2476 C2473 1.363 . S
C2476 N2474 1.356 . S
C2477 C2471 1.363 . S
C2477 C2472 1.379 . S
C2477 N2475 1.356 . S
N2478 C2470 1.356 . S
N2478 H2484 0.984 . S
N2478 H2485 0.984 . S
N2479 C2472 1.356 . S
N2479 H2482 0.984 . S
N2479 H2483 0.985 . S
H2480 N2475 0.984 . S
H2481 N2475 0.985 . S
H2482 N2479 0.984 . S
H2483 N2479 0.985 . S
H2484 N2478 0.984 . S
H2485 N2478 0.984 . S
H2486 N2474 0.984 . S
H2487 N2474 0.985 . S
C2488 C2489 1.363 . S
C2488 C2494 1.379 . S
C2488 N2496 1.356 . S
C2489 C2488 1.363 . S
C2489 C2495 1.363 1_445 S
C2490 C2491 1.363 . S
C2490 C2495 1.379 . S
C2490 N2497 1.356 . S
C2491 C2490 1.363 . S
C2491 C2494 1.363 1_665 S
N2492 C2494 1.356 . S
N2492 H2504 0.984 . S
N2492 H2505 0.985 . S
N2493 C2495 1.356 . S
N2493 H2498 0.984 . S
N2493 H2499 0.985 . S
C2494 C2488 1.379 . S
C2494 C2491 1.363 1_445 S
C2494 N2492 1.356 . S
C2495 C2489 1.363 1_665 S
C2495 C2490 1.379 . S
C2495 N2493 1.356 . S
N2496 C2488 1.356 . S
N2496 H2502 0.984 . S
N2496 H2503 0.984 . S
N2497 C2490 1.356 . S
N2497 H2500 0.984 . S
N2497 H2501 0.985 . S
H2498 N2493 0.984 . S
H2499 N2493 0.985 . S
H2500 N2497 0.984 . S
H2501 N2497 0.985 . S
H2502 N2496 0.984 . S
H2503 N2496 0.984 . S
H2504 N2492 0.984 . S
H2505 N2492 0.985 . S
C2506 C2507 1.363 . S
C2506 C2512 1.379 . S
C2506 N2514 1.356 . S
C2507 C2506 1.363 . S
C2507 C2513 1.363 1_655 S
C2508 C2509 1.363 . S
C2508 C2513 1.379 . S
C2508 N2515 1.356 . S
C2509 C2508 1.363 . S
C2509 C2512 1.363 1_455 S
N2510 C2512 1.356 . S
N2510 H2522 0.984 . S
N2510 H2523 0.985 . S
N2511 C2513 1.356 . S
N2511 H2516 0.984 . S
N2511 H2517 0.985 . S
C2512 C2506 1.379 . S
C2512 C2509 1.363 1_655 S
C2512 N2510 1.356 . S
C2513 C2507 1.363 1_455 S
C2513 C2508 1.379 . S
C2513 N2511 1.356 . S
N2514 C2506 1.356 . S
N2514 H2520 0.984 . S
N2514 H2521 0.984 . S
N2515 C2508 1.356 . S
N2515 H2518 0.984 . S
N2515 H2519 0.985 . S
H2516 N2511 0.984 . S
H2517 N2511 0.985 . S
H2518 N2515 0.984 . S
H2519 N2515 0.985 . S
H2520 N2514 0.984 . S
H2521 N2514 0.984 . S
H2522 N2510 0.984 . S
H2523 N2510 0.985 . S
C2524 C2525 1.363 1_455 S
C2524 C2530 1.379 . S
C2524 N2532 1.356 . S
C2525 C2524 1.363 1_655 S
C2525 C2531 1.363 . S
C2526 C2527 1.363 1_655 S
C2526 C2531 1.379 . S
C2526 N2533 1.356 . S
C2527 C2526 1.363 1_455 S
C2527 C2530 1.363 . S
N2528 C2530 1.356 . S
N2528 H2540 0.984 . S
N2528 H2541 0.985 . S
N2529 C2531 1.356 . S
N2529 H2534 0.984 . S
N2529 H2535 0.985 . S
C2530 C2524 1.379 . S
C2530 C2527 1.363 . S
C2530 N2528 1.356 . S
C2531 C2525 1.363 . S
C2531 C2526 1.379 . S
C2531 N2529 1.356 . S
N2532 C2524 1.356 . S
N2532 H2538 0.984 . S
N2532 H2539 0.984 . S
N2533 C2526 1.356 . S
N2533 H2536 0.984 . S
N2533 H2537 0.985 . S
H2534 N2529 0.984 . S
H2535 N2529 0.985 . S
H2536 N2533 0.984 . S
H2537 N2533 0.985 . S
H2538 N2532 0.984 . S
H2539 N2532 0.984 . S
H2540 N2528 0.984 . S
H2541 N2528 0.985 . S
C2542 C2543 1.363 1_655 S
C2542 C2548 1.379 1_556 S
C2542 N2550 1.356 . S
C2543 C2542 1.363 1_455 S
C2543 C2549 1.363 . S
C2544 C2545 1.363 1_455 S
C2544 C2549 1.379 1_554 S
C2544 N2551 1.356 . S
C2545 C2544 1.363 1_655 S
C2545 C2548 1.363 . S
N2546 C2548 1.356 . S
N2546 H2558 0.984 . S
N2546 H2559 0.985 . S
N2547 C2549 1.356 . S
N2547 H2552 0.984 . S
N2547 H2553 0.985 . S
C2548 C2542 1.379 1_554 S
C2548 C2545 1.363 . S
C2548 N2546 1.356 . S
C2549 C2543 1.363 . S
C2549 C2544 1.379 1_556 S
C2549 N2547 1.356 . S
N2550 C2542 1.356 . S
N2550 H2556 0.984 . S
N2550 H2557 0.984 . S
N2551 C2544 1.356 . S
N2551 H2554 0.984 . S
N2551 H2555 0.985 . S
H2552 N2547 0.984 . S
H2553 N2547 0.985 . S
H2554 N2551 0.984 . S
H2555 N2551 0.985 . S
H2556 N2550 0.984 . S
H2557 N2550 0.984 . S
H2558 N2546 0.984 . S
H2559 N2546 0.985 . S
C2560 C2561 1.363 . S
C2560 C2566 1.379 . S
C2560 N2568 1.356 . S
C2561 C2560 1.363 . S
C2561 C2567 1.363 . S
C2562 C2563 1.363 . S
C2562 C2567 1.379 . S
C2562 N2569 1.356 . S
C2563 C2562 1.363 . S
C2563 C2566 1.363 . S
N2564 C2566 1.356 . S
N2564 H2576 0.984 . S
N2564 H2577 0.985 . S
N2565 C2567 1.356 . S
N2565 H2570 0.984 . S
N2565 H2571 0.985 . S
C2566 C2560 1.379 . S
C2566 C2563 1.363 . S
C2566 N2564 1.356 . S
C2567 C2561 1.363 . S
C2567 C2562 1.379 . S
C2567 N2565 1.356 . S
N2568 C2560 1.356 . S
N2568 H2574 0.984 . S
N2568 H2575 0.984 . S
N2569 C2562 1.356 . S
N2569 H2572 0.984 . S
N2569 H2573 0.985 . S
H2570 N2565 0.984 . S
H2571 N2565 0.985 . S
H2572 N2569 0.984 . S
H2573 N2569 0.985 . S
H2574 N2568 0.984 . S
H2575 N2568 0.984 . S
H2576 N2564 0.984 . S
H2577 N2564 0.985 . S
C2578 C2579 1.363 . S
C2578 C2584 1.379 . S
C2578 N2586 1.356 . S
C2579 C2578 1.363 . S
C2579 C2585 1.363 . S
C2580 C2581 1.363 . S
C2580 C2585 1.379 . S
C2580 N2587 1.356 . S
C2581 C2580 1.363 . S
C2581 C2584 1.363 . S
N2582 C2584 1.356 . S
N2582 H2594 0.984 . S
N2582 H2595 0.985 . S
N2583 C2585 1.356 . S
N2583 H2588 0.984 . S
N2583 H2589 0.985 . S
C2584 C2578 1.379 . S
C2584 C2581 1.363 . S
C2584 N2582 1.356 . S
C2585 C2579 1.363 . S
C2585 C2580 1.379 . S
C2585 N2583 1.356 . S
N2586 C2578 1.356 . S
N2586 H2592 0.984 . S
N2586 H2593 0.984 . S
N2587 C2580 1.356 . S
N2587 H2590 0.984 . S
N2587 H2591 0.985 . S
H2588 N2583 0.984 . S
H2589 N2583 0.985 . S
H2590 N2587 0.984 . S
H2591 N2587 0.985 . S
H2592 N2586 0.984 . S
H2593 N2586 0.984 . S
H2594 N2582 0.984 . S
H2595 N2582 0.985 . S
C2596 C2597 1.363 . S
C2596 C2602 1.379 . S
C2596 N2604 1.356 . S
C2597 C2596 1.363 . S
C2597 C2603 1.363 . S
C2598 C2599 1.363 . S
C2598 C2603 1.379 . S
C2598 N2605 1.356 . S
C2599 C2598 1.363 . S
C2599 C2602 1.363 . S
N2600 C2602 1.356 . S
N2600 H2612 0.984 . S
N2600 H2613 0.985 . S
N2601 C2603 1.356 . S
N2601 H2606 0.984 . S
N2601 H2607 0.985 . S
C2602 C2596 1.379 . S
C2602 C2599 1.363 . S
C2602 N2600 1.356 . S
C2603 C2597 1.363 . S
C2603 C2598 1.379 . S
C2603 N2601 1.356 . S
N2604 C2596 1.356 . S
N2604 H2610 0.984 . S
N2604 H2611 0.984 . S
N2605 C2598 1.356 . S
N2605 H2608 0.984 . S
N2605 H2609 0.985 . S
H2606 N2601 0.984 . S
H2607 N2601 0.985 . S
H2608 N2605 0.984 . S
H2609 N2605 0.985 . S
H2610 N2604 0.984 . S
H2611 N2604 0.984 . S
H2612 N2600 0.984 . S
H2613 N2600 0.985 . S
C2614 C2615 1.363 . S
C2614 C2620 1.379 . S
C2614 N2622 1.356 . S
C2615 C2614 1.363 . S
C2615 C2621 1.363 . S
C2616 C2617 1.363 . S
C2616 C2621 1.379 . S
C2616 N2623 1.356 . S
C2617 C2616 1.363 . S
C2617 C2620 1.363 . S
N2618 C2620 1.356 . S
N2618 H2630 0.984 . S
N2618 H2631 0.985 . S
N2619 C2621 1.356 . S
N2619 H2624 0.984 . S
N2619 H2625 0.985 . S
C2620 C2614 1.379 . S
C2620 C2617 1.363 . S
C2620 N2618 1.356 . S
C2621 C2615 1.363 . S
C2621 C2616 1.379 . S
C2621 N2619 1.356 . S
N2622 C2614 1.356 . S
N2622 H2628 0.984 . S
N2622 H2629 0.984 . S
N2623 C2616 1.356 . S
N2623 H2626 0.984 . S
N2623 H2627 0.985 . S
H2624 N2619 0.984 . S
H2625 N2619 0.985 . S
H2626 N2623 0.984 . S
H2627 N2623 0.985 . S
H2628 N2622 0.984 . S
H2629 N2622 0.984 . S
H2630 N2618 0.984 . S
H2631 N2618 0.985 . S
C2632 C2633 1.363 . S
C2632 C2638 1.379 . S
C2632 N2640 1.356 . S
C2633 C2632 1.363 . S
C2633 C2639 1.363 . S
C2634 C2635 1.363 . S
C2634 C2639 1.379 . S
C2634 N2641 1.356 . S
C2635 C2634 1.363 . S
C2635 C2638 1.363 . S
N2636 C2638 1.356 . S
N2636 H2648 0.984 . S
N2636 H2649 0.985 . S
N2637 C2639 1.356 . S
N2637 H2642 0.984 . S
N2637 H2643 0.985 . S
C2638 C2632 1.379 . S
C2638 C2635 1.363 . S
C2638 N2636 1.356 . S
C2639 C2633 1.363 . S
C2639 C2634 1.379 . S
C2639 N2637 1.356 . S
N2640 C2632 1.356 . S
N2640 H2646 0.984 . S
N2640 H2647 0.984 . S
N2641 C2634 1.356 . S
N2641 H2644 0.984 . S
N2641 H2645 0.985 . S
H2642 N2637 0.984 . S
H2643 N2637 0.985 . S
H2644 N2641 0.984 . S
H2645 N2641 0.985 . S
H2646 N2640 0.984 . S
H2647 N2640 0.984 . S
H2648 N2636 0.984 . S
H2649 N2636 0.985 . S
C2650 C2651 1.363 . S
C2650 C2656 1.379 . S
C2650 N2658 1.356 . S
C2651 C2650 1.363 . S
C2651 C2657 1.363 . S
C2652 C2653 1.363 . S
C2652 C2657 1.379 . S
C2652 N2659 1.356 . S
C2653 C2652 1.363 . S
C2653 C2656 1.363 . S
N2654 C2656 1.356 . S
N2654 H2666 0.984 . S
N2654 H2667 0.985 . S
N2655 C2657 1.356 . S
N2655 H2660 0.984 . S
N2655 H2661 0.985 . S
C2656 C2650 1.379 . S
C2656 C2653 1.363 . S
C2656 N2654 1.356 . S
C2657 C2651 1.363 . S
C2657 C2652 1.379 . S
C2657 N2655 1.356 . S
N2658 C2650 1.356 . S
N2658 H2664 0.984 . S
N2658 H2665 0.984 . S
N2659 C2652 1.356 . S
N2659 H2662 0.984 . S
N2659 H2663 0.985 . S
H2660 N2655 0.984 . S
H2661 N2655 0.985 . S
H2662 N2659 0.984 . S
H2663 N2659 0.985 . S
H2664 N2658 0.984 . S
H2665 N2658 0.984 . S
H2666 N2654 0.984 . S
H2667 N2654 0.985 . S
C2668 C2669 1.363 . S
C2668 C2674 1.379 . S
C2668 N2676 1.356 . S
C2669 C2668 1.363 . S
C2669 C2675 1.363 . S
C2670 C2671 1.363 . S
C2670 C2675 1.379 . S
C2670 N2677 1.356 . S
C2671 C2670 1.363 . S
C2671 C2674 1.363 . S
N2672 C2674 1.356 . S
N2672 H2684 0.984 . S
N2672 H2685 0.985 . S
N2673 C2675 1.356 . S
N2673 H2678 0.984 . S
N2673 H2679 0.985 . S
C2674 C2668 1.379 . S
C2674 C2671 1.363 . S
C2674 N2672 1.356 . S
C2675 C2669 1.363 . S
C2675 C2670 1.379 . S
C2675 N2673 1.356 . S
N2676 C2668 1.356 . S
N2676 H2682 0.984 . S
N2676 H2683 0.984 . S
N2677 C2670 1.356 . S
N2677 H2680 0.984 . S
N2677 H2681 0.985 . S
H2678 N2673 0.984 . S
H2679 N2673 0.985 . S
H2680 N2677 0.984 . S
H2681 N2677 0.985 . S
H2682 N2676 0.984 . S
H2683 N2676 0.984 . S
H2684 N2672 0.984 . S
H2685 N2672 0.985 . S
C2686 C2687 1.363 . S
C2686 C2692 1.379 . S
C2686 N2694 1.356 . S
C2687 C2686 1.363 . S
C2687 C2693 1.363 . S
C2688 C2689 1.363 . S
C2688 C2693 1.379 . S
C2688 N2695 1.356 . S
C2689 C2688 1.363 . S
C2689 C2692 1.363 . S
N2690 C2692 1.356 . S
N2690 H2702 0.984 . S
N2690 H2703 0.985 . S
N2691 C2693 1.356 . S
N2691 H2696 0.984 . S
N2691 H2697 0.985 . S
C2692 C2686 1.379 . S
C2692 C2689 1.363 . S
C2692 N2690 1.356 . S
C2693 C2687 1.363 . S
C2693 C2688 1.379 . S
C2693 N2691 1.356 . S
N2694 C2686 1.356 . S
N2694 H2700 0.984 . S
N2694 H2701 0.984 . S
N2695 C2688 1.356 . S
N2695 H2698 0.984 . S
N2695 H2699 0.985 . S
H2696 N2691 0.984 . S
H2697 N2691 0.985 . S
H2698 N2695 0.984 . S
H2699 N2695 0.985 . S
H2700 N2694 0.984 . S
H2701 N2694 0.984 . S
H2702 N2690 0.984 . S
H2703 N2690 0.985 . S
C2704 C2705 1.363 . S
C2704 C2710 1.379 . S
C2704 N2712 1.356 . S
C2705 C2704 1.363 . S
C2705 C2711 1.363 . S
C2706 C2707 1.363 . S
C2706 C2711 1.379 . S
C2706 N2713 1.356 . S
C2707 C2706 1.363 . S
C2707 C2710 1.363 . S
N2708 C2710 1.356 . S
N2708 H2720 0.984 . S
N2708 H2721 0.985 . S
N2709 C2711 1.356 . S
N2709 H2714 0.984 . S
N2709 H2715 0.985 . S
C2710 C2704 1.379 . S
C2710 C2707 1.363 . S
C2710 N2708 1.356 . S
C2711 C2705 1.363 . S
C2711 C2706 1.379 . S
C2711 N2709 1.356 . S
N2712 C2704 1.356 . S
N2712 H2718 0.984 . S
N2712 H2719 0.984 . S
N2713 C2706 1.356 . S
N2713 H2716 0.984 . S
N2713 H2717 0.985 . S
H2714 N2709 0.984 . S
H2715 N2709 0.985 . S
H2716 N2713 0.984 . S
H2717 N2713 0.985 . S
H2718 N2712 0.984 . S
H2719 N2712 0.984 . S
H2720 N2708 0.984 . S
H2721 N2708 0.985 . S
C2722 C2723 1.363 . S
C2722 C2728 1.379 . S
C2722 N2730 1.356 . S
C2723 C2722 1.363 . S
C2723 C2729 1.363 . S
C2724 C2725 1.363 . S
C2724 C2729 1.379 . S
C2724 N2731 1.356 . S
C2725 C2724 1.363 . S
C2725 C2728 1.363 . S
N2726 C2728 1.356 . S
N2726 H2738 0.984 . S
N2726 H2739 0.985 . S
N2727 C2729 1.356 . S
N2727 H2732 0.984 . S
N2727 H2733 0.985 . S
C2728 C2722 1.379 . S
C2728 C2725 1.363 . S
C2728 N2726 1.356 . S
C2729 C2723 1.363 . S
C2729 C2724 1.379 . S
C2729 N2727 1.356 . S
N2730 C2722 1.356 . S
N2730 H2736 0.984 . S
N2730 H2737 0.984 . S
N2731 C2724 1.356 . S
N2731 H2734 0.984 . S
N2731 H2735 0.985 . S
H2732 N2727 0.984 . S
H2733 N2727 0.985 . S
H2734 N2731 0.984 . S
H2735 N2731 0.985 . S
H2736 N2730 0.984 . S
H2737 N2730 0.984 . S
H2738 N2726 0.984 . S
H2739 N2726 0.985 . S
C2740 C2741 1.363 . S
C2740 C2746 1.379 . S
C2740 N2748 1.356 . S
C2741 C2740 1.363 . S
C2741 C2747 1.363 . S
C2742 C2743 1.363 . S
C2742 C2747 1.379 . S
C2742 N2749 1.356 . S
C2743 C2742 1.363 . S
C2743 C2746 1.363 . S
N2744 C2746 1.356 . S
N2744 H2756 0.984 . S
N2744 H2757 0.985 . S
N2745 C2747 1.356 . S
N2745 H2750 0.984 . S
N2745 H2751 0.985 . S
C2746 C2740 1.379 . S
C2746 C2743 1.363 . S
C2746 N2744 1.356 . S
C2747 C2741 1.363 . S
C2747 C2742 1.379 . S
C2747 N2745 1.356 . S
N2748 C2740 1.356 . S
N2748 H2754 0.984 . S
N2748 H2755 0.984 . S
N2749 C2742 1.356 . S
N2749 H2752 0.984 . S
N2749 H2753 0.985 . S
H2750 N2745 0.984 . S
H2751 N2745 0.985 . S
H2752 N2749 0.984 . S
H2753 N2749 0.985 . S
H2754 N2748 0.984 . S
H2755 N2748 0.984 . S
H2756 N2744 0.984 . S
H2757 N2744 0.985 . S
C2758 C2759 1.363 . S
C2758 C2764 1.379 . S
C2758 N2766 1.356 . S
C2759 C2758 1.363 . S
C2759 C2765 1.363 . S
C2760 C2761 1.363 . S
C2760 C2765 1.379 . S
C2760 N2767 1.356 . S
C2761 C2760 1.363 . S
C2761 C2764 1.363 . S
N2762 C2764 1.356 . S
N2762 H2774 0.984 . S
N2762 H2775 0.985 . S
N2763 C2765 1.356 . S
N2763 H2768 0.984 . S
N2763 H2769 0.985 . S
C2764 C2758 1.379 . S
C2764 C2761 1.363 . S
C2764 N2762 1.356 . S
C2765 C2759 1.363 . S
C2765 C2760 1.379 . S
C2765 N2763 1.356 . S
N2766 C2758 1.356 . S
N2766 H2772 0.984 . S
N2766 H2773 0.984 . S
N2767 C2760 1.356 . S
N2767 H2770 0.984 . S
N2767 H2771 0.985 . S
H2768 N2763 0.984 . S
H2769 N2763 0.985 . S
H2770 N2767 0.984 . S
H2771 N2767 0.985 . S
H2772 N2766 0.984 . S
H2773 N2766 0.984 . S
H2774 N2762 0.984 . S
H2775 N2762 0.985 . S
C2776 C2777 1.363 . S
C2776 C2782 1.379 . S
C2776 N2784 1.356 . S
C2777 C2776 1.363 . S
C2777 C2783 1.363 . S
C2778 C2779 1.363 . S
C2778 C2783 1.379 . S
C2778 N2785 1.356 . S
C2779 C2778 1.363 . S
C2779 C2782 1.363 . S
N2780 C2782 1.356 . S
N2780 H2792 0.984 . S
N2780 H2793 0.985 . S
N2781 C2783 1.356 . S
N2781 H2786 0.984 . S
N2781 H2787 0.985 . S
C2782 C2776 1.379 . S
C2782 C2779 1.363 . S
C2782 N2780 1.356 . S
C2783 C2777 1.363 . S
C2783 C2778 1.379 . S
C2783 N2781 1.356 . S
N2784 C2776 1.356 . S
N2784 H2790 0.984 . S
N2784 H2791 0.984 . S
N2785 C2778 1.356 . S
N2785 H2788 0.984 . S
N2785 H2789 0.985 . S
H2786 N2781 0.984 . S
H2787 N2781 0.985 . S
H2788 N2785 0.984 . S
H2789 N2785 0.985 . S
H2790 N2784 0.984 . S
H2791 N2784 0.984 . S
H2792 N2780 0.984 . S
H2793 N2780 0.985 . S
C2794 C2795 1.363 . S
C2794 C2800 1.379 . S
C2794 N2802 1.356 . S
C2795 C2794 1.363 . S
C2795 C2801 1.363 . S
C2796 C2797 1.363 . S
C2796 C2801 1.379 . S
C2796 N2803 1.356 . S
C2797 C2796 1.363 . S
C2797 C2800 1.363 . S
N2798 C2800 1.356 . S
N2798 H2810 0.984 . S
N2798 H2811 0.985 . S
N2799 C2801 1.356 . S
N2799 H2804 0.984 . S
N2799 H2805 0.985 . S
C2800 C2794 1.379 . S
C2800 C2797 1.363 . S
C2800 N2798 1.356 . S
C2801 C2795 1.363 . S
C2801 C2796 1.379 . S
C2801 N2799 1.356 . S
N2802 C2794 1.356 . S
N2802 H2808 0.984 . S
N2802 H2809 0.984 . S
N2803 C2796 1.356 . S
N2803 H2806 0.984 . S
N2803 H2807 0.985 . S
H2804 N2799 0.984 . S
H2805 N2799 0.985 . S
H2806 N2803 0.984 . S
H2807 N2803 0.985 . S
H2808 N2802 0.984 . S
H2809 N2802 0.984 . S
H2810 N2798 0.984 . S
H2811 N2798 0.985 . S
C2812 C2813 1.363 . S
C2812 C2818 1.379 . S
C2812 N2820 1.356 . S
C2813 C2812 1.363 . S
C2813 C2819 1.363 . S
C2814 C2815 1.363 . S
C2814 C2819 1.379 . S
C2814 N2821 1.356 . S
C2815 C2814 1.363 . S
C2815 C2818 1.363 . S
N2816 C2818 1.356 . S
N2816 H2828 0.984 . S
N2816 H2829 0.985 . S
N2817 C2819 1.356 . S
N2817 H2822 0.984 . S
N2817 H2823 0.985 . S
C2818 C2812 1.379 . S
C2818 C2815 1.363 . S
C2818 N2816 1.356 . S
C2819 C2813 1.363 . S
C2819 C2814 1.379 . S
C2819 N2817 1.356 . S
N2820 C2812 1.356 . S
N2820 H2826 0.984 . S
N2820 H2827 0.984 . S
N2821 C2814 1.356 . S
N2821 H2824 0.984 . S
N2821 H2825 0.985 . S
H2822 N2817 0.984 . S
H2823 N2817 0.985 . S
H2824 N2821 0.984 . S
H2825 N2821 0.985 . S
H2826 N2820 0.984 . S
H2827 N2820 0.984 . S
H2828 N2816 0.984 . S
H2829 N2816 0.985 . S
C2830 C2831 1.363 . S
C2830 C2836 1.379 . S
C2830 N2838 1.356 . S
C2831 C2830 1.363 . S
C2831 C2837 1.363 . S
C2832 C2833 1.363 . S
C2832 C2837 1.379 . S
C2832 N2839 1.356 . S
C2833 C2832 1.363 . S
C2833 C2836 1.363 . S
N2834 C2836 1.356 . S
N2834 H2846 0.984 . S
N2834 H2847 0.985 . S
N2835 C2837 1.356 . S
N2835 H2840 0.984 . S
N2835 H2841 0.985 . S
C2836 C2830 1.379 . S
C2836 C2833 1.363 . S
C2836 N2834 1.356 . S
C2837 C2831 1.363 . S
C2837 C2832 1.379 . S
C2837 N2835 1.356 . S
N2838 C2830 1.356 . S
N2838 H2844 0.984 . S
N2838 H2845 0.984 . S
N2839 C2832 1.356 . S
N2839 H2842 0.984 . S
N2839 H2843 0.985 . S
H2840 N2835 0.984 . S
H2841 N2835 0.985 . S
H2842 N2839 0.984 . S
H2843 N2839 0.985 . S
H2844 N2838 0.984 . S
H2845 N2838 0.984 . S
H2846 N2834 0.984 . S
H2847 N2834 0.985 . S
C1697 C38 1.825 . S
C1699 C144 1.825 . S
C1715 C197 1.815 . S
C1717 C91 1.815 . S
C1733 C356 1.835 . S
C1735 C250 1.835 . S
C1751 C409 1.825 . S
C1753 C303 1.825 . S
C1769 C462 1.825 . S
C1771 C568 1.825 . S
C1787 C621 1.815 . S
C1789 C515 1.815 . S
C1805 C674 1.835 . S
C1807 C780 1.835 . S
C1823 C833 1.825 . S
C1825 C727 1.825 . S
C1841 C886 1.790 . S
C1843 C992 1.790 . S
C1859 C939 1.826 . S
C1861 C1045 1.826 . S
C1877 C1204 1.799 . S
C1879 C1098 1.799 . S
C1895 C1151 1.837 . S
C1897 C1257 1.837 . S
C1913 C1416 1.790 . S
C1915 C1310 1.790 . S
C1931 C1469 1.826 . S
C1933 C1363 1.826 . S
C1949 C1628 1.800 . S
C1951 C1522 1.800 . S
C1967 C1575 1.836 . S
C1969 C1681 1.836 . S
C1985 C1347 1.903 . S
C1987 C22 1.903 . S
C2003 C75 1.899 . S
C2005 C1294 1.895 . S
C2021 C128 1.903 . S
C2023 C1453 1.903 . S
C2039 C181 1.899 . S
C2041 C1400 1.895 . S
C2057 C1559 1.901 . S
C2059 C234 1.901 . S
C2075 C287 1.897 . S
C2077 C1506 1.892 . S
C2093 C340 1.901 . S
C2095 C1665 1.901 . S
C2111 C1612 1.897 . S
C2113 C393 1.892 . S
C2129 C446 1.903 . S
C2131 C923 1.903 . S
C2147 C499 1.899 . S
C2149 C870 1.895 . S
C2165 C552 1.903 . S
C2167 C1029 1.903 . S
C2183 C605 1.899 . S
C2185 C976 1.895 . S
C2201 C658 1.901 . S
C2203 C1135 1.901 . S
C2219 C1082 1.897 . S
C2221 C711 1.892 . S
C2237 C1241 1.901 . S
C2239 C764 1.901 . S
C2255 C817 1.897 . S
C2257 C1188 1.892 . S
C2273 C39 1.885 . S
C2275 C251 1.874 . S
C2291 C92 1.880 . S
C2293 C1576 1.868 . S
C2309 C145 1.885 . S
C2311 C781 1.874 . S
C2327 C198 1.880 . S
C2329 C1258 1.868 . S
C2345 C304 1.869 . S
C2347 C1364 1.879 . S
C2363 C569 1.885 . S
C2365 C357 1.874 . S
C2381 C1046 1.879 . S
C2383 C410 1.869 . S
C2399 C675 1.874 . S
C2401 C463 1.885 . S
C2417 C516 1.880 . S
C2419 C1152 1.867 . S
C2435 C1682 1.868 . S
C2437 C622 1.880 . S
C2453 C728 1.869 . S
C2455 C940 1.879 . S
C2471 C834 1.869 . S
C2473 C1470 1.879 . S
C2489 C1099 1.847 . S
C2491 C887 1.857 . S
C2507 C993 1.857 . S
C2509 C1629 1.847 . S
C2525 C1417 1.857 . S
C2527 C1205 1.847 . S
C2543 C1523 1.846 . S
C2545 C1311 1.857 . S
C2561 C29 1.191 . S
C2563 C82 1.191 . S
C2579 C135 1.191 . S
C2581 C188 1.191 . S
C2597 C241 1.193 . S
C2599 C294 1.193 . S
C2615 C347 1.193 . S
C2617 C400 1.193 . S
C2633 C506 1.191 . S
C2635 C453 1.191 . S
C2651 C559 1.191 . S
C2653 C612 1.191 . S
C2669 C665 1.193 . S
C2671 C718 1.193 . S
C2687 C771 1.193 . S
C2689 C824 1.193 . S
C2705 C877 1.202 . S
C2707 C930 1.208 . S
C2723 C1036 1.203 . S
C2725 C983 1.207 . S
C2741 C1089 1.205 . S
C2743 C1142 1.210 . S
C2759 C1195 1.205 . S
C2761 C1248 1.210 . S
C2777 C1354 1.203 . S
C2779 C1301 1.207 . S
C2795 C1407 1.202 . S
C2797 C1460 1.208 . S
C2813 C1566 1.205 . S
C2815 C1513 1.210 . S
C2831 C1619 1.205 . S
C2833 C1672 1.210 . S
