# Generated by pormake.
# Topology zfn, (5)-cn, num edge types: 1
# Building blocks:
#     Node 0, Type 0, BuildingBlock: XOMCOT_clean_sbu_1, # of connection points: 5
#     Node 1, Type 0, BuildingBlock: XOMCOT_clean_sbu_1, # of connection points: 5
#     Node 2, Type 0, BuildingBlock: XOMCOT_clean_sbu_1, # of connection points: 5
#     Node 3, Type 0, BuildingBlock: XOMCOT_clean_sbu_1, # of connection points: 5
#     Node 4, Type 0, BuildingBlock: XOMCOT_clean_sbu_1, # of connection points: 5
#     Node 5, Type 0, BuildingBlock: XOMCOT_clean_sbu_1, # of connection points: 5
#     Node 6, Type 0, BuildingBlock: XOMCOT_clean_sbu_1, # of connection points: 5
#     Node 7, Type 0, BuildingBlock: XOMCOT_clean_sbu_1, # of connection points: 5
#     Node 8, Type 0, BuildingBlock: XOMCOT_clean_sbu_1, # of connection points: 5
#     Node 9, Type 0, BuildingBlock: XOMCOT_clean_sbu_1, # of connection points: 5
#     Node 10, Type 0, BuildingBlock: XOMCOT_clean_sbu_1, # of connection points: 5
#     Node 11, Type 0, BuildingBlock: XOMCOT_clean_sbu_1, # of connection points: 5
#     Node 12, Type 0, BuildingBlock: XOMCOT_clean_sbu_1, # of connection points: 5
#     Node 13, Type 0, BuildingBlock: XOMCOT_clean_sbu_1, # of connection points: 5
#     Node 14, Type 0, BuildingBlock: XOMCOT_clean_sbu_1, # of connection points: 5
#     Node 15, Type 0, BuildingBlock: XOMCOT_clean_sbu_1, # of connection points: 5
#     Edge 16, Type (0, 0), BuildingBlock: OJICUG_clean_linker_0, # of connection points: 2
#     Edge 17, Type (0, 0), BuildingBlock: OJICUG_clean_linker_0, # of connection points: 2
#     Edge 18, Type (0, 0), BuildingBlock: OJICUG_clean_linker_0, # of connection points: 2
#     Edge 19, Type (0, 0), BuildingBlock: OJICUG_clean_linker_0, # of connection points: 2
#     Edge 20, Type (0, 0), BuildingBlock: OJICUG_clean_linker_0, # of connection points: 2
#     Edge 21, Type (0, 0), BuildingBlock: OJICUG_clean_linker_0, # of connection points: 2
#     Edge 22, Type (0, 0), BuildingBlock: OJICUG_clean_linker_0, # of connection points: 2
#     Edge 23, Type (0, 0), BuildingBlock: OJICUG_clean_linker_0, # of connection points: 2
#     Edge 24, Type (0, 0), BuildingBlock: OJICUG_clean_linker_0, # of connection points: 2
#     Edge 25, Type (0, 0), BuildingBlock: OJICUG_clean_linker_0, # of connection points: 2
#     Edge 26, Type (0, 0), BuildingBlock: OJICUG_clean_linker_0, # of connection points: 2
#     Edge 27, Type (0, 0), BuildingBlock: OJICUG_clean_linker_0, # of connection points: 2
#     Edge 28, Type (0, 0), BuildingBlock: OJICUG_clean_linker_0, # of connection points: 2
#     Edge 29, Type (0, 0), BuildingBlock: OJICUG_clean_linker_0, # of connection points: 2
#     Edge 30, Type (0, 0), BuildingBlock: OJICUG_clean_linker_0, # of connection points: 2
#     Edge 31, Type (0, 0), BuildingBlock: OJICUG_clean_linker_0, # of connection points: 2
#     Edge 32, Type (0, 0), BuildingBlock: OJICUG_clean_linker_0, # of connection points: 2
#     Edge 33, Type (0, 0), BuildingBlock: OJICUG_clean_linker_0, # of connection points: 2
#     Edge 34, Type (0, 0), BuildingBlock: OJICUG_clean_linker_0, # of connection points: 2
#     Edge 35, Type (0, 0), BuildingBlock: OJICUG_clean_linker_0, # of connection points: 2
#     Edge 36, Type (0, 0), BuildingBlock: OJICUG_clean_linker_0, # of connection points: 2
#     Edge 37, Type (0, 0), BuildingBlock: OJICUG_clean_linker_0, # of connection points: 2
#     Edge 38, Type (0, 0), BuildingBlock: OJICUG_clean_linker_0, # of connection points: 2
#     Edge 39, Type (0, 0), BuildingBlock: OJICUG_clean_linker_0, # of connection points: 2
#     Edge 40, Type (0, 0), BuildingBlock: OJICUG_clean_linker_0, # of connection points: 2
#     Edge 41, Type (0, 0), BuildingBlock: OJICUG_clean_linker_0, # of connection points: 2
#     Edge 42, Type (0, 0), BuildingBlock: OJICUG_clean_linker_0, # of connection points: 2
#     Edge 43, Type (0, 0), BuildingBlock: OJICUG_clean_linker_0, # of connection points: 2
#     Edge 44, Type (0, 0), BuildingBlock: OJICUG_clean_linker_0, # of connection points: 2
#     Edge 45, Type (0, 0), BuildingBlock: OJICUG_clean_linker_0, # of connection points: 2
#     Edge 46, Type (0, 0), BuildingBlock: OJICUG_clean_linker_0, # of connection points: 2
#     Edge 47, Type (0, 0), BuildingBlock: OJICUG_clean_linker_0, # of connection points: 2
#     Edge 48, Type (0, 0), BuildingBlock: OJICUG_clean_linker_0, # of connection points: 2
#     Edge 49, Type (0, 0), BuildingBlock: OJICUG_clean_linker_0, # of connection points: 2
#     Edge 50, Type (0, 0), BuildingBlock: OJICUG_clean_linker_0, # of connection points: 2
#     Edge 51, Type (0, 0), BuildingBlock: OJICUG_clean_linker_0, # of connection points: 2
#     Edge 52, Type (0, 0), BuildingBlock: OJICUG_clean_linker_0, # of connection points: 2
#     Edge 53, Type (0, 0), BuildingBlock: OJICUG_clean_linker_0, # of connection points: 2
#     Edge 54, Type (0, 0), BuildingBlock: OJICUG_clean_linker_0, # of connection points: 2
#     Edge 55, Type (0, 0), BuildingBlock: OJICUG_clean_linker_0, # of connection points: 2
# Relax obj value: 0.122
# Max RMSD: 0.125
# Mean RMSD: 0.125
data_MOF--net-zfn--node1-XOMCOT_clean_sbu_1--edge1-OJICUG_clean_linker_0
_symmetry_space_group_name_H-M    P1
_symmetry_Int_Tables_number       1
_symmetry_cell_setting            triclinic
loop_
_symmetry_equiv_pos_as_xyz
'x, y, z'
_cell_length_a     56.255814
_cell_length_b     56.229651
_cell_length_c     13.488215
_cell_angle_alpha  90.003622
_cell_angle_beta   89.930735
_cell_angle_gamma 89.991619
loop_
_atom_site_label
_atom_site_type_symbol
_atom_site_fract_x
_atom_site_fract_y
_atom_site_fract_z
_atom_type_partial_charge
C0 C 0.99442 0.35147 0.04921 0.0
C1 C 0.993 0.35078 0.94731 0.0
N2 N 0.01503 0.34726 0.91054 0.0
N3 N 0.01726 0.34859 0.07673 0.0
C4 C 0.02926 0.34558 0.99091 0.0
H5 H 0.97987 0.35472 0.09987 0.0
Co6 Co 0.02924 0.35102 0.20516 0.0
C7 C 0.07442 0.37812 0.178 0.0
O8 O 0.07038 0.38965 0.2611 0.0
N9 N 0.04116 0.35249 0.33606 0.0
C10 C 0.06447 0.34461 0.4656 0.0
C11 C 0.06316 0.34551 0.36394 0.0
C12 C 0.0292 0.35477 0.42281 0.0
N13 N 0.043 0.35031 0.50257 0.0
O14 O 0.03917 0.31837 0.20095 0.0
H15 H 0.07708 0.34007 0.31342 0.0
H16 H 0.01045 0.35837 0.42831 0.0
O17 O 0.05984 0.36198 0.15003 0.0
C18 C 0.02192 0.30609 0.23466 0.0
O19 O 0.00211 0.31728 0.25727 0.0
N20 N 0.01713 0.38242 0.21127 0.0
C21 C 0.99118 0.42494 0.21503 0.0
C22 C 0.01136 0.42265 0.15452 0.0
C23 C 0.02386 0.40109 0.15233 0.0
C24 C 0.99677 0.38403 0.26555 0.0
C25 C 0.9839 0.40517 0.27051 0.0
H26 H 0.03806 0.39919 0.09916 0.0
H27 H 0.98953 0.36834 0.30025 0.0
H28 H 0.04814 0.34232 0.98749 0.0
H29 H 0.97709 0.35365 0.90389 0.0
H30 H 0.07962 0.33878 0.50862 0.0
H31 H 0.01711 0.43718 0.10753 0.0
H32 H 0.96763 0.40558 0.31351 0.0
C33 C 0.16055 0.99916 0.51838 0.0
C34 C 0.16133 0.99776 0.41653 0.0
N35 N 0.16379 0.01993 0.37984 0.0
N36 N 0.16232 0.02212 0.54596 0.0
C37 C 0.16475 0.03426 0.46022 0.0
H38 H 0.15804 0.98446 0.56899 0.0
Co39 Co 0.15949 0.03387 0.67463 0.0
C40 C 0.13023 0.07783 0.65022 0.0
O41 O 0.11901 0.07314 0.73348 0.0
N42 N 0.15764 0.04556 0.80554 0.0
C43 C 0.16465 0.06919 0.93502 0.0
C44 C 0.16381 0.06782 0.83341 0.0
C45 C 0.1558 0.03353 0.89221 0.0
N46 N 0.15974 0.04753 0.97194 0.0
O47 O 0.19158 0.04565 0.66933 0.0
H48 H 0.16869 0.08193 0.78289 0.0
H49 H 0.15284 0.01467 0.89767 0.0
O50 O 0.14686 0.06395 0.62081 0.0
C51 C 0.20549 0.02873 0.69336 0.0
O52 O 0.19621 0.00766 0.71032 0.0
N53 N 0.1287 0.02009 0.68119 0.0
C54 C 0.0878 0.99154 0.67921 0.0
C55 C 0.08916 0.01214 0.6208 0.0
C56 C 0.10991 0.02596 0.62155 0.0
C57 C 0.12799 0.9995 0.73439 0.0
C58 C 0.10764 0.98532 0.73644 0.0
H59 H 0.11116 0.04045 0.5695 0.0
H60 H 0.1439 0.99305 0.76998 0.0
H61 H 0.16711 0.05329 0.45694 0.0
H62 H 0.15926 0.98171 0.37311 0.0
H63 H 0.16991 0.08456 0.97804 0.0
H64 H 0.07457 0.01722 0.57295 0.0
H65 H 0.10797 0.96889 0.77834 0.0
C66 C 0.49379 0.18068 1.00541 0.0
C67 C 0.49472 0.18135 0.90337 0.0
N68 N 0.48098 0.16371 0.86765 0.0
N69 N 0.4793 0.16286 0.03442 0.0
C70 C 0.47207 0.1527 0.94852 0.0
H71 H 0.5032 0.19253 0.05453 0.0
Co72 Co 0.47072 0.15379 0.16391 0.0
C73 C 0.41936 0.14227 0.13123 0.0
O74 O 0.41222 0.15379 0.21055 0.0
N75 N 0.46237 0.14428 0.29356 0.0
C76 C 0.44946 0.12345 0.42337 0.0
C77 C 0.45003 0.12479 0.32141 0.0
C78 C 0.46954 0.15411 0.38005 0.0
N79 N 0.46179 0.14199 0.46031 0.0
O80 O 0.45618 0.18463 0.18628 0.0
H81 H 0.44233 0.112 0.27093 0.0
H82 H 0.48113 0.16932 0.3847 0.0
O83 O 0.4414 0.14097 0.11023 0.0
C84 C 0.4718 0.19826 0.22472 0.0
O85 O 0.49353 0.19001 0.23459 0.0
N86 N 0.4868 0.12507 0.14731 0.0
C87 C 0.5162 0.08515 0.15278 0.0
C88 C 0.49396 0.08415 0.10547 0.0
C89 C 0.47931 0.1044 0.10417 0.0
C90 C 0.5086 0.12648 0.19038 0.0
C91 C 0.52351 0.10677 0.19446 0.0
H92 H 0.462 0.10329 0.06993 0.0
H93 H 0.5142 0.14305 0.22377 0.0
H94 H 0.46023 0.1376 0.94503 0.0
H95 H 0.50494 0.19373 0.85911 0.0
H96 H 0.44075 0.10978 0.46655 0.0
H97 H 0.48774 0.06777 0.07222 0.0
H98 H 0.54068 0.10846 0.23004 0.0
C99 C 0.34543 0.50263 0.55686 0.0
C100 C 0.34504 0.50408 0.45496 0.0
N101 N 0.34409 0.48183 0.41781 0.0
N102 N 0.34484 0.47958 0.58391 0.0
C103 C 0.34369 0.46738 0.49783 0.0
H104 H 0.34684 0.51737 0.60798 0.0
Co105 Co 0.34764 0.46795 0.71247 0.0
C106 C 0.37612 0.42401 0.68641 0.0
O107 O 0.38815 0.42966 0.76654 0.0
N108 N 0.34958 0.45623 0.84363 0.0
C109 C 0.34314 0.43256 0.97359 0.0
C110 C 0.34357 0.43395 0.87191 0.0
C111 C 0.3517 0.46825 0.93019 0.0
N112 N 0.34812 0.45423 1.01011 0.0
O113 O 0.31506 0.45777 0.71013 0.0
H114 H 0.33854 0.41982 0.82179 0.0
H115 H 0.35457 0.48713 0.93563 0.0
O116 O 0.35893 0.43731 0.65862 0.0
C117 C 0.30342 0.47549 0.74385 0.0
O118 O 0.31531 0.49492 0.76564 0.0
N119 N 0.37875 0.48071 0.71687 0.0
C120 C 0.42034 0.50809 0.71912 0.0
C121 C 0.41858 0.48793 0.65816 0.0
C122 C 0.39742 0.47474 0.65655 0.0
C123 C 0.37978 0.5011 0.77118 0.0
C124 C 0.40045 0.51466 0.77545 0.0
H125 H 0.39582 0.46058 0.60308 0.0
H126 H 0.36393 0.50782 0.8064 0.0
H127 H 0.34276 0.44822 0.49387 0.0
H128 H 0.34626 0.52027 0.41192 0.0
H129 H 0.3381 0.41718 0.01708 0.0
H130 H 0.43316 0.48273 0.61038 0.0
H131 H 0.40037 0.53091 0.81857 0.0
C132 C 0.99663 0.15926 0.5014 0.0
C133 C 0.99527 0.16004 0.60326 0.0
N134 N 0.01724 0.16414 0.63958 0.0
N135 N 0.01937 0.1626 0.4733 0.0
C136 C 0.03137 0.16603 0.55877 0.0
H137 H 0.9821 0.15565 0.45122 0.0
Co138 Co 0.0314 0.16033 0.34472 0.0
C139 C 0.07716 0.13384 0.37123 0.0
O140 O 0.07434 0.12307 0.28557 0.0
N141 N 0.04339 0.15903 0.21397 0.0
C142 C 0.0664 0.1681 0.08471 0.0
C143 C 0.06506 0.16704 0.18631 0.0
C144 C 0.03164 0.15617 0.12719 0.0
N145 N 0.04526 0.1614 0.04751 0.0
O146 O 0.04107 0.19307 0.3495 0.0
H147 H 0.07866 0.17308 0.23704 0.0
H148 H 0.01312 0.15157 0.12167 0.0
O149 O 0.06189 0.1493 0.39974 0.0
C150 C 0.02344 0.205 0.31702 0.0
O151 O 0.00385 0.1934 0.29504 0.0
N152 N 0.01943 0.12895 0.33808 0.0
C153 C 0.99258 0.08701 0.33913 0.0
C154 C 0.0134 0.08884 0.39576 0.0
C155 C 0.02637 0.11012 0.3956 0.0
C156 C 0.99872 0.12767 0.28621 0.0
C157 C 0.98534 0.10685 0.28395 0.0
H158 H 0.04099 0.11171 0.44664 0.0
H159 H 0.99158 0.14347 0.25197 0.0
H160 H 0.05021 0.1697 0.56144 0.0
H161 H 0.97944 0.15684 0.64686 0.0
H162 H 0.08127 0.17475 0.04195 0.0
H163 H 0.01925 0.07424 0.44206 0.0
H164 H 0.96869 0.10681 0.24367 0.0
C165 C 0.3233 0.00744 1.01268 0.0
C166 C 0.32266 0.00659 0.11472 0.0
N167 N 0.33944 0.02139 0.15012 0.0
N168 N 0.34022 0.02295 0.98335 0.0
C169 C 0.3499 0.03087 0.06915 0.0
H170 H 0.31205 0.99724 0.96388 0.0
Co171 Co 0.3489 0.03192 0.85364 0.0
C172 C 0.35923 0.0838 0.88636 0.0
O173 O 0.34828 0.09097 0.8058 0.0
N174 N 0.35804 0.0407 0.72399 0.0
C175 C 0.37862 0.05415 0.59442 0.0
C176 C 0.3773 0.05343 0.69634 0.0
C177 C 0.34831 0.03349 0.63737 0.0
N178 N 0.3603 0.04155 0.55725 0.0
O179 O 0.31737 0.04485 0.83117 0.0
H180 H 0.38998 0.06124 0.74695 0.0
H181 H 0.33331 0.02165 0.63254 0.0
O182 O 0.36042 0.06176 0.90718 0.0
C183 C 0.30489 0.02804 0.79445 0.0
O184 O 0.31494 0.00703 0.7854 0.0
N185 N 0.37829 0.01725 0.87021 0.0
C186 C 0.41944 0.98977 0.86441 0.0
C187 C 0.41928 0.01172 0.91422 0.0
C188 C 0.3984 0.02543 0.91559 0.0
C189 C 0.37803 0.99567 0.82482 0.0
C190 C 0.39839 0.98172 0.82044 0.0
H191 H 0.39857 0.04257 0.95178 0.0
H192 H 0.36188 0.9895 0.78982 0.0
H193 H 0.36426 0.04358 0.0726 0.0
H194 H 0.31093 0.99568 0.15922 0.0
H195 H 0.39216 0.06313 0.55145 0.0
H196 H 0.43523 0.01842 0.9494 0.0
H197 H 0.39766 0.9647 0.78288 0.0
C198 C 0.50378 0.33575 0.51151 0.0
C199 C 0.50477 0.33387 0.61331 0.0
N200 N 0.48237 0.33319 0.64914 0.0
N201 N 0.48088 0.33635 0.48262 0.0
C202 C 0.46829 0.3343 0.56786 0.0
H203 H 0.51879 0.33773 0.46203 0.0
Co204 Co 0.47001 0.34265 0.35333 0.0
C205 C 0.41965 0.3585 0.40839 0.0
O206 O 0.40776 0.34601 0.34278 0.0
N207 N 0.45951 0.34895 0.22405 0.0
C208 C 0.44482 0.36641 0.08962 0.0
C209 C 0.44601 0.36717 0.19151 0.0
C210 C 0.46662 0.33762 0.14057 0.0
N211 N 0.45789 0.34785 0.05735 0.0
O212 O 0.4548 0.31196 0.34853 0.0
H213 H 0.43847 0.38086 0.2382 0.0
H214 H 0.47856 0.32254 0.14089 0.0
O215 O 0.44226 0.35751 0.41102 0.0
C216 C 0.47062 0.29626 0.33112 0.0
O217 O 0.49288 0.30311 0.32333 0.0
N218 N 0.48644 0.37169 0.35424 0.0
C219 C 0.51546 0.41199 0.34569 0.0
C220 C 0.49613 0.41097 0.41159 0.0
C221 C 0.48184 0.39058 0.41501 0.0
C222 C 0.50528 0.37224 0.29083 0.0
C223 C 0.51992 0.3922 0.28493 0.0
H224 H 0.46743 0.38994 0.46769 0.0
H225 H 0.50914 0.35688 0.2453 0.0
H226 H 0.44909 0.33423 0.57042 0.0
H227 H 0.52079 0.33437 0.65753 0.0
H228 H 0.43604 0.37933 0.04277 0.0
H229 H 0.49205 0.42576 0.4601 0.0
H230 H 0.53497 0.39185 0.23484 0.0
C231 C 0.15806 0.50872 1.01278 0.0
C232 C 0.15896 0.51001 0.11465 0.0
N233 N 0.1623 0.48789 0.15093 0.0
N234 N 0.16056 0.48588 0.98452 0.0
C235 C 0.16368 0.47374 0.06999 0.0
H236 H 0.15493 0.52342 0.9628 0.0
Co237 Co 0.15759 0.47378 0.85604 0.0
C238 C 0.1296 0.42868 0.88722 0.0
O239 O 0.11896 0.43054 0.80092 0.0
N240 N 0.15554 0.46167 0.7257 0.0
C241 C 0.16358 0.43833 0.59636 0.0
C242 C 0.16255 0.43966 0.698 0.0
C243 C 0.15318 0.47357 0.63893 0.0
N244 N 0.15785 0.45977 0.55912 0.0
O245 O 0.18973 0.46233 0.86084 0.0
H246 H 0.16802 0.4258 0.74868 0.0
H247 H 0.14941 0.4923 0.63368 0.0
O248 O 0.14514 0.44411 0.91286 0.0
C249 C 0.20248 0.47919 0.82662 0.0
O250 O 0.19184 0.49927 0.80361 0.0
N251 N 0.12694 0.48741 0.8489 0.0
C252 C 0.08658 0.51664 0.84755 0.0
C253 C 0.08681 0.49535 0.90198 0.0
C254 C 0.10732 0.48117 0.90306 0.0
C255 C 0.12717 0.5084 0.79855 0.0
C256 C 0.1072 0.52302 0.79546 0.0
H257 H 0.10762 0.46607 0.95211 0.0
H258 H 0.14353 0.51467 0.7658 0.0
H259 H 0.16667 0.45478 0.07254 0.0
H260 H 0.15631 0.52593 0.15827 0.0
H261 H 0.16962 0.42319 0.55365 0.0
H262 H 0.07154 0.49 0.94549 0.0
H263 H 0.10842 0.53984 0.75668 0.0
C264 C 0.99344 0.68987 1.01472 0.0
C265 C 0.99451 0.69037 0.11669 0.0
N266 N 0.98327 0.671 0.15237 0.0
N267 N 0.98139 0.67037 0.98527 0.0
C268 C 0.97592 0.65905 0.07101 0.0
H269 H 1.00079 0.70323 0.96616 0.0
Co270 Co 0.97241 0.66107 0.856 0.0
C271 C 0.92086 0.64793 0.89791 0.0
O272 O 0.91159 0.65739 0.81777 0.0
N273 N 0.96374 0.65141 0.72673 0.0
C274 C 0.95075 0.63067 0.59674 0.0
C275 C 0.95109 0.63213 0.69883 0.0
C276 C 0.97125 0.66102 0.64013 0.0
N277 N 0.96345 0.64896 0.55985 0.0
O278 O 0.9581 0.69199 0.83286 0.0
H279 H 0.9431 0.6195 0.74931 0.0
H280 H 0.98312 0.676 0.63532 0.0
O281 O 0.94322 0.64872 0.91257 0.0
C282 C 0.9738 0.70536 0.79324 0.0
O283 O 0.9955 0.69693 0.78405 0.0
N284 N 0.9881 0.63212 0.87306 0.0
C285 C 0.01654 0.59155 0.86821 0.0
C286 C 0.99389 0.59083 0.912 0.0
C287 C 0.97973 0.61138 0.91285 0.0
C288 C 0.01028 0.63324 0.83323 0.0
C289 C 0.02475 0.61318 0.82953 0.0
H290 H 0.96206 0.61039 0.94398 0.0
H291 H 0.01654 0.64981 0.80197 0.0
H292 H 0.96628 0.64248 0.07369 0.0
H293 H 0.00289 0.70407 0.16079 0.0
H294 H 0.94193 0.61711 0.55336 0.0
H295 H 0.98696 0.57443 0.94261 0.0
H296 H 0.04225 0.61458 0.79644 0.0
C297 C 0.82225 0.99672 0.51007 0.0
C298 C 0.8217 0.99764 0.61206 0.0
N299 N 0.8395 0.98406 0.6474 0.0
N300 N 0.84018 0.9824 0.48053 0.0
C301 C 0.85053 0.97532 0.56621 0.0
H302 H 0.81016 0.00597 0.46151 0.0
Co303 Co 0.84907 0.9735 0.35088 0.0
C304 C 0.85882 0.92163 0.38353 0.0
O305 O 0.84701 0.91483 0.30451 0.0
N306 N 0.8584 0.96482 0.22127 0.0
C307 C 0.8789 0.95128 0.09159 0.0
C308 C 0.87751 0.95188 0.19357 0.0
C309 C 0.84881 0.97224 0.13466 0.0
N310 N 0.86075 0.96412 0.05454 0.0
O311 O 0.81764 0.9605 0.32744 0.0
H312 H 0.89003 0.9438 0.24416 0.0
H313 H 0.83392 0.98423 0.12975 0.0
O314 O 0.8606 0.94364 0.4045 0.0
C315 C 0.80513 0.97721 0.29013 0.0
O316 O 0.815 0.99832 0.28176 0.0
N317 N 0.87841 0.98819 0.36825 0.0
C318 C 0.91954 0.01567 0.36301 0.0
C319 C 0.91958 0.99337 0.40999 0.0
C320 C 0.89871 0.97966 0.41104 0.0
C321 C 0.87797 0.01009 0.32564 0.0
C322 C 0.89832 0.02405 0.32161 0.0
H323 H 0.89906 0.96224 0.44474 0.0
H324 H 0.86169 0.01649 0.29241 0.0
H325 H 0.86577 0.96369 0.5692 0.0
H326 H 0.80921 0.00769 0.65653 0.0
H327 H 0.89233 0.94216 0.04845 0.0
H328 H 0.93567 0.98639 0.44303 0.0
H329 H 0.89747 0.04133 0.2862 0.0
C330 C 0.49625 0.84499 0.99568 0.0
C331 C 0.49482 0.84421 0.09753 0.0
N332 N 0.51683 0.8405 0.13411 0.0
N333 N 0.51907 0.84202 0.9679 0.0
C334 C 0.53106 0.83881 0.05351 0.0
H335 H 0.48172 0.8484 0.94526 0.0
Co336 Co 0.53101 0.84466 0.83937 0.0
C337 C 0.57635 0.87155 0.86509 0.0
O338 O 0.57253 0.88283 0.78127 0.0
N339 N 0.54287 0.8463 0.70844 0.0
C340 C 0.56599 0.83773 0.5789 0.0
C341 C 0.56469 0.83873 0.68048 0.0
C342 C 0.531 0.84892 0.62178 0.0
N343 N 0.5447 0.844 0.54197 0.0
O344 O 0.54084 0.81195 0.84239 0.0
H345 H 0.57842 0.83289 0.73096 0.0
H346 H 0.51236 0.85304 0.61645 0.0
O347 O 0.56162 0.85561 0.894 0.0
C348 C 0.52347 0.79998 0.80789 0.0
O349 O 0.50381 0.81148 0.78591 0.0
N350 N 0.51895 0.87607 0.8346 0.0
C351 C 0.4922 0.9181 0.83845 0.0
C352 C 0.51281 0.91585 0.89613 0.0
C353 C 0.52571 0.89452 0.89456 0.0
C354 C 0.49839 0.87771 0.78187 0.0
C355 C 0.48508 0.8986 0.78094 0.0
H356 H 0.54016 0.89257 0.94631 0.0
H357 H 0.49126 0.86213 0.74598 0.0
H358 H 0.54994 0.83545 0.05648 0.0
H359 H 0.47892 0.84718 0.14098 0.0
H360 H 0.58097 0.83139 0.53595 0.0
H361 H 0.51855 0.93015 0.94425 0.0
H362 H 0.46856 0.89893 0.73978 0.0
C363 C 0.65979 0.49487 0.49398 0.0
C364 C 0.66054 0.49348 0.59592 0.0
N365 N 0.66245 0.51571 0.63262 0.0
N366 N 0.66103 0.51786 0.46637 0.0
C367 C 0.66315 0.53004 0.55221 0.0
H368 H 0.65754 0.48012 0.44339 0.0
Co369 Co 0.65748 0.52971 0.33795 0.0
C370 C 0.62762 0.57318 0.36771 0.0
O371 O 0.61583 0.56839 0.28603 0.0
N372 N 0.65483 0.54155 0.20704 0.0
C373 C 0.66069 0.56538 0.07709 0.0
C374 C 0.65996 0.56404 0.17879 0.0
C375 C 0.6535 0.5294 0.12043 0.0
N376 N 0.65677 0.54349 0.0404 0.0
O377 O 0.68948 0.54162 0.34019 0.0
H378 H 0.66434 0.57838 0.229 0.0
H379 H 0.65149 0.51041 0.11523 0.0
O380 O 0.64477 0.5596 0.39394 0.0
C381 C 0.70228 0.52497 0.30447 0.0
O382 O 0.69178 0.50479 0.28208 0.0
N383 N 0.62698 0.51555 0.33339 0.0
C384 C 0.58676 0.48618 0.33347 0.0
C385 C 0.58761 0.5066 0.39324 0.0
C386 C 0.60806 0.52086 0.39339 0.0
C387 C 0.62678 0.49509 0.27934 0.0
C388 C 0.60676 0.48052 0.27625 0.0
H389 H 0.609 0.53527 0.446 0.0
H390 H 0.64285 0.48907 0.24367 0.0
H391 H 0.66504 0.54911 0.55565 0.0
H392 H 0.65875 0.47741 0.6394 0.0
H393 H 0.66528 0.58093 0.03383 0.0
H394 H 0.57287 0.51119 0.44129 0.0
H395 H 0.60748 0.46423 0.23352 0.0
C396 C 0.00323 0.84096 0.49797 0.0
C397 C 0.00429 0.83936 0.39608 0.0
N398 N 0.98199 0.84072 0.35995 0.0
N399 N 0.98039 0.84331 0.52637 0.0
C400 C 0.96788 0.84279 0.4408 0.0
H401 H 0.01824 0.84144 0.54797 0.0
Co402 Co 0.96982 0.84961 0.65569 0.0
C403 C 0.91896 0.85984 0.61388 0.0
O404 O 0.91165 0.84461 0.68108 0.0
N405 N 0.95964 0.85608 0.78519 0.0
C406 C 0.94557 0.87455 0.91846 0.0
C407 C 0.94671 0.87483 0.81664 0.0
C408 C 0.96642 0.84486 0.86923 0.0
N409 N 0.95807 0.85572 0.95185 0.0
O410 O 0.95554 0.81845 0.66304 0.0
H411 H 0.93951 0.88851 0.769 0.0
H412 H 0.97789 0.82943 0.86964 0.0
O413 O 0.94108 0.86356 0.60078 0.0
C414 C 0.97176 0.80325 0.68147 0.0
O415 O 0.99381 0.81072 0.68899 0.0
N416 N 0.98563 0.87885 0.65262 0.0
C417 C 0.0148 0.91902 0.66175 0.0
C418 C 0.99495 0.91848 0.59835 0.0
C419 C 0.98051 0.89812 0.59477 0.0
C420 C 0.00499 0.87894 0.71297 0.0
C421 C 0.01969 0.8988 0.71914 0.0
H422 H 0.96553 0.89776 0.5447 0.0
H423 H 0.00917 0.86326 0.75606 0.0
H424 H 0.9488 0.84443 0.43754 0.0
H425 H 0.02036 0.83855 0.35207 0.0
H426 H 0.93723 0.88797 0.96429 0.0
H427 H 0.9906 0.93363 0.55228 0.0
H428 H 0.03513 0.89805 0.76696 0.0
C429 C 0.66022 0.00472 1.01162 0.0
C430 C 0.66104 0.0061 0.90981 0.0
N431 N 0.66421 0.98399 0.87326 0.0
N432 N 0.66262 0.98184 0.03944 0.0
C433 C 0.66552 0.96973 0.95384 0.0
H434 H 0.65731 0.0194 0.062 0.0
Co435 Co 0.66011 0.96999 0.16816 0.0
C436 C 0.63165 0.92536 0.14376 0.0
O437 O 0.62094 0.92901 0.22906 0.0
N438 N 0.65859 0.95821 0.29884 0.0
C439 C 0.66659 0.93484 0.42805 0.0
C440 C 0.66563 0.9362 0.32647 0.0
C441 C 0.65623 0.97011 0.38556 0.0
N442 N 0.66081 0.95627 0.4652 0.0
O443 O 0.69228 0.95849 0.1617 0.0
H444 H 0.67101 0.9223 0.27574 0.0
H445 H 0.6524 0.98883 0.39105 0.0
O446 O 0.64764 0.93994 0.11414 0.0
C447 C 0.70601 0.97558 0.18529 0.0
O448 O 0.69652 0.99657 0.20208 0.0
N449 N 0.62928 0.98351 0.17608 0.0
C450 C 0.58841 0.01213 0.17525 0.0
C451 C 0.58933 0.99103 0.11972 0.0
C452 C 0.61007 0.97721 0.1196 0.0
C453 C 0.62891 0.00439 0.22722 0.0
C454 C 0.60866 0.01868 0.2294 0.0
H455 H 0.61093 0.96237 0.06921 0.0
H456 H 0.64503 0.01092 0.26099 0.0
H457 H 0.66848 0.95077 0.9509 0.0
H458 H 0.65854 0.02207 0.86636 0.0
H459 H 0.67252 0.91968 0.47087 0.0
H460 H 0.57441 0.98556 0.07451 0.0
H461 H 0.60937 0.03542 0.26901 0.0
C462 C 0.49614 0.65293 0.53683 0.0
C463 C 0.49488 0.65387 0.43492 0.0
N464 N 0.5168 0.65844 0.39887 0.0
N465 N 0.51878 0.65665 0.56529 0.0
C466 C 0.53079 0.66048 0.47994 0.0
H467 H 0.48162 0.64894 0.58669 0.0
Co468 Co 0.53104 0.65436 0.69372 0.0
C469 C 0.57705 0.62786 0.66098 0.0
O470 O 0.57587 0.61727 0.74766 0.0
N471 N 0.54333 0.65298 0.824 0.0
C472 C 0.5665 0.66176 0.9529 0.0
C473 C 0.56517 0.66052 0.85124 0.0
C474 C 0.53152 0.65055 0.91103 0.0
N475 N 0.54521 0.65563 0.99057 0.0
O476 O 0.54117 0.68695 0.68789 0.0
H477 H 0.57889 0.66619 0.80022 0.0
H478 H 0.51289 0.64639 0.91672 0.0
O479 O 0.56107 0.64292 0.63623 0.0
C480 C 0.52371 0.69912 0.72057 0.0
O481 O 0.50396 0.68778 0.74273 0.0
N482 N 0.51866 0.62317 0.70227 0.0
C483 C 0.49211 0.58116 0.71224 0.0
C484 C 0.51266 0.58241 0.65341 0.0
C485 C 0.52556 0.60372 0.6484 0.0
C486 C 0.49803 0.62247 0.75512 0.0
C487 C 0.48484 0.60162 0.76314 0.0
H488 H 0.54019 0.6047 0.59707 0.0
H489 H 0.49099 0.63863 0.78689 0.0
H490 H 0.54958 0.66443 0.47751 0.0
H491 H 0.47917 0.65042 0.39107 0.0
H492 H 0.58153 0.66816 0.99526 0.0
H493 H 0.51842 0.56725 0.61007 0.0
H494 H 0.46839 0.60188 0.80499 0.0
C495 C 0.84816 0.50345 0.03719 0.0
C496 C 0.84762 0.50208 0.93528 0.0
N497 N 0.84449 0.52418 0.89871 0.0
N498 N 0.84555 0.52633 0.06489 0.0
C499 C 0.84292 0.53843 0.97915 0.0
H500 H 0.85099 0.48881 0.08776 0.0
Co501 Co 0.84747 0.53826 0.19353 0.0
C502 C 0.8745 0.58353 0.16871 0.0
O503 O 0.88602 0.5791 0.25143 0.0
N504 N 0.8485 0.55019 0.32454 0.0
C505 C 0.84049 0.57354 0.45405 0.0
C506 C 0.84126 0.57214 0.35235 0.0
C507 C 0.8511 0.53836 0.41133 0.0
N508 N 0.84655 0.55218 0.49101 0.0
O509 O 0.81473 0.5479 0.18782 0.0
H510 H 0.83568 0.58597 0.30177 0.0
H511 H 0.85513 0.5197 0.41707 0.0
O512 O 0.8585 0.56899 0.1392 0.0
C513 C 0.8031 0.52996 0.21961 0.0
O514 O 0.81507 0.51057 0.2414 0.0
N515 N 0.87871 0.52606 0.20175 0.0
C516 C 0.92039 0.49893 0.21016 0.0
C517 C 0.91924 0.51941 0.15076 0.0
C518 C 0.89806 0.53259 0.14639 0.0
C519 C 0.87927 0.50544 0.25459 0.0
C520 C 0.89995 0.492 0.26198 0.0
H521 H 0.89703 0.54715 0.09458 0.0
H522 H 0.86309 0.49852 0.28639 0.0
H523 H 0.83995 0.55737 0.97585 0.0
H524 H 0.85023 0.48612 0.89176 0.0
H525 H 0.83456 0.58866 0.49718 0.0
H526 H 0.93435 0.52487 0.10642 0.0
H527 H 0.89953 0.47557 0.30389 0.0
C528 C 0.97022 0.4582 0.12538 0.0
C529 C 0.97633 0.44685 0.21479 0.0
H530 H 0.94766 0.48371 0.05366 0.0
C531 C 0.96618 0.45512 0.30358 0.0
H532 H 0.9776 0.45216 0.0556 0.0
C533 C 0.94909 0.47312 0.30242 0.0
C534 C 0.94172 0.48333 0.21245 0.0
H535 H 0.97085 0.44707 0.37387 0.0
H536 H 0.94094 0.47845 0.37178 0.0
C537 C 0.95307 0.4763 0.12423 0.0
C538 C 0.0562 0.96929 0.58434 0.0
C539 C 0.06681 0.97539 0.67533 0.0
H540 H 0.03153 0.94661 0.50838 0.0
C541 C 0.05842 0.96448 0.76232 0.0
H542 H 0.06237 0.97721 0.51582 0.0
C543 C 0.04076 0.94705 0.75808 0.0
C544 C 0.03106 0.93994 0.66667 0.0
H545 H 0.0659 0.96909 0.83377 0.0
H546 H 0.03507 0.93872 0.82652 0.0
C547 C 0.03851 0.95174 0.58006 0.0
C548 C 0.55547 0.03285 0.08158 0.0
C549 C 0.56745 0.02837 0.17138 0.0
H550 H 0.52971 0.05433 1.00523 0.0
C551 C 0.56046 0.04102 0.25649 0.0
H552 H 0.56049 0.0236 1.01434 0.0
C553 C 0.54307 0.05867 0.25088 0.0
C554 C 0.53204 0.06407 0.16019 0.0
H555 H 0.56889 0.03768 0.32731 0.0
H556 H 0.53862 0.06856 0.31732 0.0
C557 C 0.53787 0.05049 0.07616 0.0
C558 C 0.45282 0.53011 0.62881 0.0
C559 C 0.4417 0.5237 0.71841 0.0
H560 H 0.47758 0.5534 0.55649 0.0
C561 C 0.44958 0.53427 0.80694 0.0
H562 H 0.44705 0.52245 0.55922 0.0
C563 C 0.46694 0.552 0.80527 0.0
C564 C 0.47694 0.55954 0.71511 0.0
H565 H 0.44171 0.5294 0.8774 0.0
H566 H 0.47199 0.56041 0.87438 0.0
C567 C 0.47031 0.54786 0.6272 0.0
C568 C 0.95418 0.03693 0.44034 0.0
C569 C 0.94123 0.03053 0.35549 0.0
H570 H 0.98057 0.06009 0.50213 0.0
C571 C 0.9475 0.04053 0.26373 0.0
H572 H 0.94961 0.02951 0.51199 0.0
C573 C 0.96525 0.05778 0.25775 0.0
C574 C 0.97705 0.0656 0.34355 0.0
H575 H 0.93802 0.03562 0.19691 0.0
H576 H 0.96913 0.06567 0.18626 0.0
C577 C 0.97192 0.05439 0.43451 0.0
C578 C 0.46533 0.94794 0.75815 0.0
C579 C 0.47675 0.93957 0.84394 0.0
H580 H 0.4385 0.97064 0.69764 0.0
C581 C 0.47135 0.95033 0.93558 0.0
H582 H 0.46943 0.94042 0.68619 0.0
C583 C 0.4537 0.96789 0.94192 0.0
C584 C 0.44112 0.97486 0.85687 0.0
H585 H 0.47972 0.94421 1.0032 0.0
H586 H 0.44891 0.97494 1.01397 0.0
C587 C 0.44768 0.9653 0.7646 0.0
C588 C 0.55599 0.46256 0.42681 0.0
C589 C 0.56621 0.46953 0.33615 0.0
H590 H 0.53218 0.43875 0.50125 0.0
C591 C 0.55805 0.45889 0.24827 0.0
H592 H 0.56206 0.47025 0.49592 0.0
C593 C 0.54093 0.44091 0.25123 0.0
C594 C 0.53157 0.43302 0.3422 0.0
H595 H 0.5653 0.46413 0.17712 0.0
H596 H 0.53532 0.43287 0.18212 0.0
C597 C 0.53887 0.44448 0.42982 0.0
C598 C 0.03673 0.55609 0.94473 0.0
C599 C 0.03178 0.57008 0.86095 0.0
H600 H 0.05819 0.52834 1.00683 0.0
C601 C 0.04299 0.56456 0.77074 0.0
H602 H 0.02836 0.56002 1.01523 0.0
C603 C 0.05977 0.54634 0.76545 0.0
C604 C 0.06598 0.53329 0.85051 0.0
H605 H 0.03917 0.57478 0.70454 0.0
H606 H 0.0684 0.5429 0.69506 0.0
C607 C 0.05375 0.53791 0.93969 0.0
C608 C 0.09266 0.38024 1.00753 0.0
C609 C 0.09216 0.38782 0.10695 0.0
H610 H 0.10483 0.38727 0.85948 0.0
C611 C 0.10673 0.40697 0.13495 0.0
H612 H 0.082 0.36536 0.98359 0.0
C613 C 0.12007 0.41928 0.06415 0.0
C614 C 0.1192 0.41281 0.96361 0.0
H615 H 0.10692 0.41331 0.21078 0.0
H616 H 0.12971 0.4349 0.08738 0.0
C617 C 0.10582 0.39276 0.93636 0.0
C618 C 0.10195 0.11115 0.61401 0.0
C619 C 0.12003 0.09575 0.58142 0.0
H620 H 0.0744 0.13533 0.57315 0.0
C621 C 0.12607 0.09574 0.48022 0.0
H622 H 0.09686 0.11175 0.69146 0.0
C623 C 0.11304 0.10927 0.41212 0.0
C624 C 0.09396 0.12347 0.44408 0.0
H625 H 0.13999 0.08431 0.45262 0.0
H626 H 0.11726 0.10781 0.33397 0.0
C627 C 0.08914 0.1249 0.54616 0.0
C628 C 0.40367 0.13055 0.96496 0.0
C629 C 0.40221 0.12919 0.06888 0.0
H630 H 0.39052 0.11771 0.82535 0.0
C631 C 0.38534 0.11401 0.11215 0.0
H632 H 0.4165 0.1422 0.92992 0.0
C633 C 0.37093 0.09961 0.05244 0.0
C634 C 0.37261 0.10075 0.94854 0.0
H635 H 0.38402 0.11253 0.19206 0.0
H636 H 0.35861 0.08741 0.08746 0.0
C637 C 0.38873 0.11671 0.90523 0.0
C638 C 0.37326 0.39782 0.53422 0.0
C639 C 0.38578 0.40554 0.61872 0.0
H640 H 0.37395 0.37655 0.40151 0.0
C641 C 0.40884 0.39682 0.63464 0.0
H642 H 0.35546 0.40426 0.51967 0.0
C643 C 0.41948 0.38155 0.56649 0.0
C644 C 0.40727 0.37399 0.48131 0.0
H645 H 0.41914 0.4024 0.69832 0.0
H646 H 0.43753 0.37591 0.58054 0.0
C647 C 0.38383 0.38197 0.46657 0.0
C648 C 0.90121 0.61819 0.13529 0.0
C649 C 0.88332 0.60269 0.1021 0.0
H650 H 0.92622 0.64529 0.09761 0.0
C651 C 0.87576 0.60443 1.0028 0.0
H652 H 0.90724 0.61774 0.21152 0.0
C653 C 0.88704 0.62011 0.93672 0.0
C654 C 0.90604 0.63433 0.96896 0.0
H655 H 0.86184 0.59301 0.97495 0.0
H656 H 0.88171 0.6202 0.85957 0.0
C657 C 0.91234 0.63384 0.06965 0.0
C658 C 0.88931 0.89261 0.6028 0.0
C659 C 0.90169 0.87399 0.55697 0.0
H660 H 0.86579 0.9222 0.58352 0.0
C661 C 0.89871 0.87009 0.45489 0.0
H662 H 0.89143 0.89594 0.68143 0.0
C663 C 0.88387 0.88493 0.39891 0.0
C664 C 0.87221 0.90421 0.4439 0.0
H665 H 0.90803 0.85573 0.4182 0.0
H666 H 0.88228 0.8819 0.31988 0.0
C667 C 0.87483 0.9077 0.54661 0.0
C668 C 0.60494 0.89082 0.10607 0.0
C669 C 0.62116 0.9081 0.07296 0.0
H670 H 0.57845 0.86537 0.06611 0.0
C671 C 0.62485 0.91065 0.97044 0.0
H672 H 0.60171 0.88829 0.18457 0.0
C673 C 0.61133 0.89762 0.90252 0.0
C674 C 0.59397 0.88149 0.93565 0.0
H675 H 0.63709 0.92378 0.94237 0.0
H676 H 0.6137 0.90103 0.82407 0.0
C677 C 0.59163 0.87757 0.0381 0.0
C678 C 0.59767 0.60442 0.41237 0.0
C679 C 0.6176 0.59076 0.43887 0.0
H680 H 0.56929 0.62665 0.46175 0.0
C681 C 0.62592 0.5921 0.53708 0.0
H682 H 0.59075 0.60397 0.33748 0.0
C683 C 0.61345 0.60515 0.60882 0.0
C684 C 0.59272 0.61765 0.58327 0.0
H685 H 0.64142 0.58223 0.55978 0.0
H686 H 0.61956 0.60479 0.68494 0.0
C687 C 0.58543 0.61771 0.48363 0.0
C688 C 0.04525 0.26803 0.26255 0.0
C689 C 0.02345 0.28013 0.25306 0.0
H690 H 0.06256 0.23455 0.29257 0.0
C691 C 0.00225 0.26741 0.26718 0.0
H692 H 0.06188 0.27744 0.25298 0.0
C693 C 0.00263 0.24329 0.28969 0.0
C694 C 0.02424 0.23103 0.29961 0.0
H695 H 0.98512 0.27609 0.2606 0.0
H696 H 0.9858 0.23422 0.29936 0.0
C697 C 0.04564 0.24361 0.28631 0.0
C698 C 0.26583 0.05082 0.78182 0.0
C699 C 0.28006 0.03096 0.75876 0.0
H700 H 0.23057 0.06601 0.77757 0.0
C701 C 0.26998 0.01234 0.70325 0.0
H702 H 0.27311 0.06549 0.824 0.0
C703 C 0.24608 0.01265 0.67729 0.0
C704 C 0.23146 0.03169 0.70473 0.0
H705 H 0.28038 0.99694 0.68209 0.0
H706 H 0.23879 0.99745 0.63832 0.0
C707 C 0.2416 0.0512 0.75468 0.0
C708 C 0.48019 0.25459 0.36987 0.0
C709 C 0.46536 0.27068 0.32044 0.0
H710 H 0.49322 0.2191 0.37973 0.0
C711 C 0.4496 0.26206 0.24781 0.0
H712 H 0.49251 0.26079 0.42599 0.0
C713 C 0.45016 0.23788 0.21993 0.0
C714 C 0.46656 0.22229 0.26441 0.0
H715 H 0.43826 0.27427 0.20757 0.0
H716 H 0.43908 0.23183 0.15938 0.0
C717 C 0.48071 0.23073 0.34264 0.0
C718 C 0.26436 0.454 0.7743 0.0
C719 C 0.27742 0.47515 0.76169 0.0
H720 H 0.23015 0.43849 0.80712 0.0
C721 C 0.26566 0.49702 0.77246 0.0
H722 H 0.27303 0.43689 0.76729 0.0
C723 C 0.24158 0.49793 0.79515 0.0
C724 C 0.22838 0.477 0.8085 0.0
H725 H 0.27508 0.51368 0.76326 0.0
H726 H 0.23332 0.51525 0.80237 0.0
C727 C 0.23996 0.45492 0.7982 0.0
C728 C 0.98284 0.76167 0.64812 0.0
C729 C 0.96715 0.77757 0.69399 0.0
H730 H 0.99663 0.72643 0.64199 0.0
C731 C 0.95085 0.76884 0.76444 0.0
H732 H 0.99555 0.76793 0.59358 0.0
C733 C 0.95163 0.74475 0.79369 0.0
C734 C 0.96876 0.72936 0.75271 0.0
H735 H 0.93881 0.7809 0.80186 0.0
H736 H 0.94 0.73862 0.85242 0.0
C737 C 0.98356 0.7379 0.67662 0.0
C738 C 0.7703 0.99258 0.1974 0.0
C739 C 0.78042 0.97407 0.25339 0.0
H740 H 0.73912 0.00716 0.13117 0.0
C741 C 0.76634 0.95407 0.27588 0.0
H742 H 0.7806 0.00808 0.17666 0.0
C743 C 0.74219 0.95345 0.24775 0.0
C744 C 0.73198 0.97286 0.19737 0.0
H745 H 0.77366 0.93947 0.3184 0.0
H746 H 0.73126 0.93854 0.27029 0.0
C747 C 0.74647 0.99204 0.17044 0.0
C748 C 0.54634 0.76166 0.77861 0.0
C749 C 0.52469 0.77407 0.78776 0.0
H750 H 0.56323 0.72799 0.74781 0.0
C751 C 0.50335 0.76173 0.7717 0.0
H752 H 0.56308 0.77078 0.78962 0.0
C753 C 0.50344 0.73768 0.74784 0.0
C754 C 0.52488 0.7251 0.73852 0.0
H755 H 0.48634 0.77065 0.77788 0.0
H756 H 0.4865 0.72891 0.73684 0.0
C757 C 0.54643 0.73731 0.75354 0.0
C758 C 0.76397 0.55098 0.25397 0.0
C759 C 0.77705 0.53005 0.23606 0.0
H760 H 0.72983 0.56596 0.29202 0.0
C761 C 0.76532 0.50807 0.24146 0.0
H762 H 0.77264 0.56816 0.25125 0.0
C763 C 0.74129 0.50681 0.26475 0.0
C764 C 0.72809 0.52749 0.28407 0.0
H765 H 0.77478 0.49159 0.22804 0.0
H766 H 0.73309 0.4894 0.26811 0.0
C767 C 0.73962 0.54969 0.27842 0.0
C768 C 0.00567 0.34258 0.73188 0.0
C769 C 0.02216 0.34751 0.80748 0.0
H770 H 0.99935 0.33937 0.57598 0.0
C771 C 0.04561 0.35339 0.78039 0.0
H772 H 0.98756 0.33769 0.74966 0.0
C773 C 0.05237 0.3543 0.68073 0.0
C774 C 0.03586 0.3495 0.60532 0.0
H775 H 0.05872 0.35778 0.83586 0.0
H776 H 0.07047 0.35918 0.66259 0.0
C777 C 0.01242 0.34361 0.63206 0.0
C778 C 0.15534 0.05684 0.14995 0.0
C779 C 0.16078 0.04047 0.07466 0.0
H780 H 0.15165 0.06318 0.30499 0.0
C781 C 0.16759 0.01729 0.10145 0.0
H782 H 0.14977 0.07474 0.13172 0.0
C783 C 0.16888 0.01065 0.20127 0.0
C784 C 0.1633 0.027 0.27679 0.0
H785 H 0.17234 0.00436 0.04541 0.0
H786 H 0.17448 0.99275 0.21909 0.0
C787 C 0.15652 0.05019 0.24962 0.0
C788 C 0.46982 0.13498 0.73612 0.0
C789 C 0.47623 0.15816 0.76492 0.0
H790 H 0.4606 0.11156 0.61733 0.0
C791 C 0.47763 0.17591 0.69175 0.0
H792 H 0.46885 0.1208 0.79017 0.0
C793 C 0.47276 0.17064 0.59246 0.0
C794 C 0.46649 0.14743 0.56335 0.0
H795 H 0.48207 0.19403 0.71136 0.0
H796 H 0.47361 0.18493 0.53886 0.0
C797 C 0.46505 0.12968 0.63668 0.0
C798 C 0.35369 0.44523 0.18768 0.0
C799 C 0.34733 0.46133 0.11273 0.0
H800 H 0.35821 0.43914 0.34262 0.0
C801 C 0.33981 0.48428 0.13967 0.0
H802 H 0.35982 0.42753 0.16906 0.0
C803 C 0.33858 0.49093 0.23944 0.0
C804 C 0.34499 0.47484 0.31473 0.0
H805 H 0.33438 0.49696 0.08377 0.0
H806 H 0.3323 0.50859 0.2574 0.0
C807 C 0.35264 0.45191 0.28738 0.0
C808 C 0.04823 0.16005 0.76943 0.0
C809 C 0.0244 0.16415 0.74265 0.0
H810 H 0.0734 0.15552 0.8867 0.0
C811 C 0.00756 0.16748 0.81872 0.0
H812 H 0.06176 0.15717 0.71391 0.0
C813 C 0.01433 0.16646 0.91843 0.0
C814 C 0.03812 0.16216 0.94479 0.0
H815 H 0.98914 0.17108 0.80156 0.0
H816 H 1.00094 0.16944 0.9747 0.0
C817 C 0.05498 0.15907 0.86902 0.0
C818 C 0.32705 0.0245 0.32578 0.0
C819 C 0.34475 0.02649 0.2527 0.0
H820 H 0.31781 0.02829 0.47854 0.0
C821 C 0.36765 0.03379 0.28138 0.0
H822 H 0.30912 0.01937 0.30609 0.0
C823 C 0.37274 0.03878 0.38079 0.0
C824 C 0.35504 0.03672 0.45415 0.0
H825 H 0.38179 0.03525 0.22726 0.0
H826 H 0.39069 0.04388 0.40006 0.0
C827 C 0.33208 0.02963 0.42501 0.0
C828 C 0.45308 0.34434 0.7794 0.0
C829 C 0.47525 0.33466 0.75243 0.0
H830 H 0.43017 0.35596 0.89666 0.0
C831 C 0.49091 0.32782 0.82874 0.0
H832 H 0.44044 0.3498 0.72372 0.0
C833 C 0.48496 0.33141 0.92868 0.0
C834 C 0.46323 0.34205 0.9551 0.0
H835 H 0.50798 0.31997 0.81138 0.0
H836 H 0.49778 0.3266 0.98495 0.0
C837 C 0.44722 0.34807 0.87911 0.0
C838 C 0.15728 0.45691 0.28074 0.0
C839 C 0.16196 0.48068 0.25407 0.0
H840 H 0.15179 0.43182 0.39772 0.0
C841 C 0.16545 0.4974 0.33037 0.0
H842 H 0.15432 0.44344 0.22516 0.0
C843 C 0.16399 0.49064 0.43008 0.0
C844 C 0.15906 0.46694 0.45634 0.0
H845 H 0.16951 0.51576 0.31346 0.0
H846 H 0.16712 0.50396 0.48642 0.0
C847 C 0.15582 0.45017 0.38032 0.0
C848 C 0.97406 0.67772 0.4277 0.0
C849 C 0.96838 0.65438 0.45688 0.0
H850 H 0.9829 0.70134 0.3094 0.0
C851 C 0.96774 0.63653 0.38376 0.0
H852 H 0.97428 0.69205 0.48124 0.0
C853 C 0.97278 0.64188 0.28437 0.0
C854 C 0.97855 0.66524 0.2553 0.0
H855 H 0.96371 0.61832 0.40339 0.0
H856 H 0.9724 0.62759 0.2307 0.0
C857 C 0.97907 0.68306 0.32857 0.0
C858 C 0.83234 0.97549 0.92238 0.0
C859 C 0.85545 0.96896 0.95151 0.0
H860 H 0.80913 0.98516 0.80365 0.0
C861 C 0.87324 0.96742 0.8783 0.0
H862 H 0.81804 0.97641 0.97593 0.0
C863 C 0.86806 0.97241 0.77889 0.0
C864 C 0.84498 0.9791 0.75007 0.0
H865 H 0.89128 0.96274 0.8978 0.0
H866 H 0.88227 0.97136 0.72494 0.0
C867 C 0.8272 0.98054 0.82318 0.0
C868 C 0.5139 0.83808 0.41293 0.0
C869 C 0.53755 0.84311 0.43932 0.0
H870 H 0.48889 0.83269 0.29587 0.0
C871 C 0.5543 0.84678 0.36362 0.0
H872 H 0.50062 0.83467 0.46922 0.0
C873 C 0.5476 0.84563 0.26406 0.0
C874 C 0.52393 0.84074 0.23721 0.0
H875 H 0.5726 0.85093 0.38137 0.0
H876 H 0.561 0.84902 0.20858 0.0
C877 C 0.50719 0.83687 0.31318 0.0
C878 C 0.66596 0.51345 0.91125 0.0
C879 C 0.6582 0.53637 0.93771 0.0
H880 H 0.67394 0.48909 0.79391 0.0
C881 C 0.65219 0.55244 0.86204 0.0
H882 H 0.67116 0.50076 0.9675 0.0
C883 C 0.65375 0.54574 0.76244 0.0
C884 C 0.6615 0.52282 0.73564 0.0
H885 H 0.64587 0.57011 0.87991 0.0
H886 H 0.64838 0.55845 0.70678 0.0
C887 C 0.66763 0.50677 0.81149 0.0
C888 C 0.98981 0.83405 0.18071 0.0
C889 C 0.97506 0.84277 0.2569 0.0
H890 H 0.99613 0.83133 0.02457 0.0
C891 C 0.95395 0.85458 0.23027 0.0
H892 H 0.00604 0.82463 0.19817 0.0
C893 C 0.94813 0.85818 0.13061 0.0
C894 C 0.96324 0.85016 0.05442 0.0
H895 H 0.9422 0.86178 0.28621 0.0
H896 H 0.93184 0.86753 0.11342 0.0
C897 C 0.98397 0.83768 0.08082 0.0
C898 C 0.66845 0.99354 0.69445 0.0
C899 C 0.66399 0.97689 0.77016 0.0
H900 H 0.67113 1.00008 0.53855 0.0
C901 C 0.65857 0.95334 0.74302 0.0
H902 H 0.67306 0.01173 0.71202 0.0
C903 C 0.65746 0.94667 0.64336 0.0
C904 C 0.66171 0.96335 0.56794 0.0
H905 H 0.65472 0.94002 0.79835 0.0
H906 H 0.6529 0.92848 0.62531 0.0
C907 C 0.66727 0.98687 0.59465 0.0
C908 C 0.51417 0.6607 0.11985 0.0
C909 C 0.53803 0.65663 0.09346 0.0
H910 H 0.48882 0.66504 0.23659 0.0
C911 C 0.55487 0.65388 0.16946 0.0
H912 H 0.50075 0.66345 0.06362 0.0
C913 C 0.54803 0.6549 0.2691 0.0
C914 C 0.5241 0.65863 0.2958 0.0
H915 H 0.57335 0.65053 0.15202 0.0
H916 H 0.56156 0.6523 0.32473 0.0
C917 C 0.50731 0.6617 0.21956 0.0
C918 C 0.8402 0.52161 0.62054 0.0
C919 C 0.84603 0.54506 0.59373 0.0
H920 H 0.83455 0.49674 0.73812 0.0
C921 C 0.85108 0.56157 0.66892 0.0
H922 H 0.83578 0.50856 0.56457 0.0
C923 C 0.85047 0.55478 0.76858 0.0
C924 C 0.84462 0.53132 0.79573 0.0
H925 H 0.8559 0.57968 0.65055 0.0
H926 H 0.85504 0.56788 0.82397 0.0
C927 C 0.83944 0.51484 0.72028 0.0
loop_
_geom_bond_atom_site_label_1
_geom_bond_atom_site_label_2
_geom_bond_distance
_geom_bond_site_symmetry_2
_ccdc_geom_bond_type
C0 C1 1.351 . S
C0 N3 1.368 . S
C0 H5 0.931 1_455 S
C1 C0 1.351 . S
C1 N2 1.373 . S
C1 H29 0.930 1_455 S
N2 C1 1.373 . S
N2 C4 1.340 . S
N3 C0 1.368 . S
N3 C4 1.321 . S
N3 Co6 2.135 1_556 S
C4 N2 1.340 . S
C4 N3 1.321 . S
C4 H28 0.930 . S
H5 C0 0.931 1_655 S
Co6 N3 2.135 1_554 S
Co6 N9 2.121 . S
Co6 O14 2.055 . S
Co6 O17 2.039 . S
Co6 N20 2.140 1_455 S
C7 O8 1.227 . S
C7 O17 1.265 . S
O8 C7 1.227 . S
N9 Co6 2.121 . S
N9 C11 1.375 . S
N9 C12 1.313 . S
C10 C11 1.338 . S
C10 N13 1.377 . S
C10 H30 0.930 . S
C11 N9 1.375 . S
C11 C10 1.338 . S
C11 H15 0.931 . S
C12 N9 1.313 . S
C12 N13 1.344 . S
C12 H16 0.930 . S
N13 C10 1.377 . S
N13 C12 1.344 . S
O14 Co6 2.055 . S
O14 C18 1.253 . S
H15 C11 0.931 . S
H16 C12 0.930 . S
O17 Co6 2.039 . S
O17 C7 1.265 . S
C18 O14 1.253 . S
C18 O19 1.232 . S
O19 C18 1.232 . S
N20 Co6 2.140 1_655 S
N20 C23 1.346 . S
N20 C24 1.345 . S
C21 C22 1.387 . S
C21 C25 1.391 . S
C22 C21 1.387 . S
C22 C23 1.369 . S
C22 H31 0.929 1_554 S
C23 N20 1.346 . S
C23 C22 1.369 . S
C23 H26 0.928 1_654 S
C24 N20 1.345 . S
C24 C25 1.371 . S
C24 H27 0.931 . S
C25 C21 1.391 . S
C25 C24 1.371 . S
C25 H32 0.930 . S
H26 C23 0.928 1_456 S
H27 C24 0.931 . S
H28 C4 0.930 . S
H29 C1 0.930 1_655 S
H30 C10 0.930 . S
H31 C22 0.929 1_556 S
H32 C25 0.930 . S
C33 C34 1.351 . S
C33 N36 1.368 . S
C33 H38 0.931 1_545 S
C34 C33 1.351 . S
C34 N35 1.373 . S
C34 H62 0.930 1_545 S
N35 C34 1.373 . S
N35 C37 1.340 . S
N36 C33 1.368 . S
N36 C37 1.321 . S
N36 Co39 2.135 . S
C37 N35 1.340 . S
C37 N36 1.321 . S
C37 H61 0.930 . S
H38 C33 0.931 1_565 S
Co39 N36 2.135 . S
Co39 N42 2.121 . S
Co39 O47 2.055 . S
Co39 O50 2.039 . S
Co39 N53 2.140 1_545 S
C40 O41 1.227 . S
C40 O50 1.265 . S
O41 C40 1.227 . S
N42 Co39 2.121 . S
N42 C44 1.375 . S
N42 C45 1.313 . S
C43 C44 1.338 . S
C43 N46 1.377 . S
C43 H63 0.930 . S
C44 N42 1.375 . S
C44 C43 1.338 . S
C44 H48 0.931 . S
C45 N42 1.313 . S
C45 N46 1.344 . S
C45 H49 0.930 . S
N46 C43 1.377 . S
N46 C45 1.344 . S
O47 Co39 2.055 . S
O47 C51 1.253 . S
H48 C44 0.931 . S
H49 C45 0.930 . S
O50 Co39 2.039 . S
O50 C40 1.265 . S
C51 O47 1.253 . S
C51 O52 1.232 . S
O52 C51 1.232 . S
N53 Co39 2.140 1_565 S
N53 C56 1.346 . S
N53 C57 1.345 . S
C54 C55 1.387 . S
C54 C58 1.391 . S
C55 C54 1.387 . S
C55 C56 1.369 . S
C55 H64 0.929 . S
C56 N53 1.346 . S
C56 C55 1.369 . S
C56 H59 0.928 1_565 S
C57 N53 1.345 . S
C57 C58 1.371 . S
C57 H60 0.931 . S
C58 C54 1.391 . S
C58 C57 1.371 . S
C58 H65 0.930 . S
H59 C56 0.928 1_545 S
H60 C57 0.931 . S
H61 C37 0.930 . S
H62 C34 0.930 1_565 S
H63 C43 0.930 . S
H64 C55 0.929 . S
H65 C58 0.930 . S
C66 C67 1.351 . S
C66 N69 1.368 . S
C66 H71 0.931 . S
C67 C66 1.351 . S
C67 N68 1.373 . S
C67 H95 0.930 . S
N68 C67 1.373 . S
N68 C70 1.340 . S
N69 C66 1.368 . S
N69 C70 1.321 . S
N69 Co72 2.135 1_556 S
C70 N68 1.340 . S
C70 N69 1.321 . S
C70 H94 0.930 . S
H71 C66 0.931 . S
Co72 N69 2.135 1_554 S
Co72 N75 2.121 . S
Co72 O80 2.055 . S
Co72 O83 2.039 . S
Co72 N86 2.140 . S
C73 O74 1.227 . S
C73 O83 1.265 . S
O74 C73 1.227 . S
N75 Co72 2.121 . S
N75 C77 1.375 . S
N75 C78 1.313 . S
C76 C77 1.338 . S
C76 N79 1.377 . S
C76 H96 0.930 . S
C77 N75 1.375 . S
C77 C76 1.338 . S
C77 H81 0.931 . S
C78 N75 1.313 . S
C78 N79 1.344 . S
C78 H82 0.930 . S
N79 C76 1.377 . S
N79 C78 1.344 . S
O80 Co72 2.055 . S
O80 C84 1.253 . S
H81 C77 0.931 . S
H82 C78 0.930 . S
O83 Co72 2.039 . S
O83 C73 1.265 . S
C84 O80 1.253 . S
C84 O85 1.227 . S
O85 C84 1.227 . S
N86 Co72 2.140 . S
N86 C89 1.346 . S
N86 C90 1.345 . S
C87 C88 1.387 . S
C87 C91 1.391 . S
C88 C87 1.387 . S
C88 C89 1.369 . S
C88 H97 0.929 1_554 S
C89 N86 1.346 . S
C89 C88 1.369 . S
C89 H92 0.928 1_554 S
C90 N86 1.345 . S
C90 C91 1.371 . S
C90 H93 0.931 . S
C91 C87 1.391 . S
C91 C90 1.371 . S
C91 H98 0.930 . S
H92 C89 0.928 1_556 S
H93 C90 0.931 . S
H94 C70 0.930 . S
H95 C67 0.930 . S
H96 C76 0.930 . S
H97 C88 0.929 1_556 S
H98 C91 0.930 . S
C99 C100 1.351 . S
C99 N102 1.368 . S
C99 H104 0.931 . S
C100 C99 1.351 . S
C100 N101 1.373 . S
C100 H128 0.930 . S
N101 C100 1.373 . S
N101 C103 1.340 . S
N102 C99 1.368 . S
N102 C103 1.321 . S
N102 Co105 2.135 . S
C103 N101 1.340 . S
C103 N102 1.321 . S
C103 H127 0.930 . S
H104 C99 0.931 . S
Co105 N102 2.135 . S
Co105 N108 2.121 . S
Co105 O113 2.055 . S
Co105 O116 2.039 . S
Co105 N119 2.140 . S
C106 O107 1.227 . S
C106 O116 1.265 . S
O107 C106 1.227 . S
N108 Co105 2.121 . S
N108 C110 1.375 . S
N108 C111 1.313 . S
C109 C110 1.338 . S
C109 N112 1.377 . S
C109 H129 0.930 . S
C110 N108 1.375 . S
C110 C109 1.338 . S
C110 H114 0.931 . S
C111 N108 1.313 . S
C111 N112 1.344 . S
C111 H115 0.930 . S
N112 C109 1.377 . S
N112 C111 1.344 . S
O113 Co105 2.055 . S
O113 C117 1.253 . S
H114 C110 0.931 . S
H115 C111 0.930 . S
O116 Co105 2.039 . S
O116 C106 1.265 . S
C117 O113 1.253 . S
C117 O118 1.227 . S
O118 C117 1.227 . S
N119 Co105 2.140 . S
N119 C122 1.346 . S
N119 C123 1.345 . S
C120 C121 1.387 . S
C120 C124 1.391 . S
C121 C120 1.387 . S
C121 C122 1.369 . S
C121 H130 0.929 . S
C122 N119 1.346 . S
C122 C121 1.369 . S
C122 H125 0.928 . S
C123 N119 1.345 . S
C123 C124 1.371 . S
C123 H126 0.931 . S
C124 C120 1.391 . S
C124 C123 1.371 . S
C124 H131 0.930 . S
H125 C122 0.928 . S
H126 C123 0.931 . S
H127 C103 0.930 . S
H128 C100 0.930 . S
H129 C109 0.930 . S
H130 C121 0.929 . S
H131 C124 0.930 . S
C132 C133 1.351 . S
C132 N135 1.368 . S
C132 H137 0.931 1_455 S
C133 C132 1.351 . S
C133 N134 1.373 . S
C133 H161 0.930 1_455 S
N134 C133 1.373 . S
N134 C136 1.340 . S
N135 C132 1.368 . S
N135 C136 1.321 . S
N135 Co138 2.135 . S
C136 N134 1.340 . S
C136 N135 1.321 . S
C136 H160 0.930 . S
H137 C132 0.931 1_655 S
Co138 N135 2.135 . S
Co138 N141 2.121 . S
Co138 O146 2.055 . S
Co138 O149 2.039 . S
Co138 N152 2.140 1_455 S
C139 O140 1.227 . S
C139 O149 1.265 . S
O140 C139 1.227 . S
N141 Co138 2.121 . S
N141 C143 1.375 . S
N141 C144 1.313 . S
C142 C143 1.338 . S
C142 N145 1.377 . S
C142 H162 0.930 . S
C143 N141 1.375 . S
C143 C142 1.338 . S
C143 H147 0.931 . S
C144 N141 1.313 . S
C144 N145 1.344 . S
C144 H148 0.930 . S
N145 C142 1.377 . S
N145 C144 1.344 . S
O146 Co138 2.055 . S
O146 C150 1.253 . S
H147 C143 0.931 . S
H148 C144 0.930 . S
O149 Co138 2.039 . S
O149 C139 1.265 . S
C150 O146 1.253 . S
C150 O151 1.232 . S
O151 C150 1.232 . S
N152 Co138 2.140 1_655 S
N152 C155 1.346 . S
N152 C156 1.345 . S
C153 C154 1.387 . S
C153 C157 1.391 . S
C154 C153 1.387 . S
C154 C155 1.369 . S
C154 H163 0.929 . S
C155 N152 1.346 . S
C155 C154 1.369 . S
C155 H158 0.928 1_655 S
C156 N152 1.345 . S
C156 C157 1.371 . S
C156 H159 0.931 . S
C157 C153 1.391 . S
C157 C156 1.371 . S
C157 H164 0.930 . S
H158 C155 0.928 1_455 S
H159 C156 0.931 . S
H160 C136 0.930 . S
H161 C133 0.930 1_655 S
H162 C142 0.930 . S
H163 C154 0.929 . S
H164 C157 0.930 . S
C165 C166 1.351 . S
C165 N168 1.368 . S
C165 H170 0.931 1_545 S
C166 C165 1.351 . S
C166 N167 1.373 . S
C166 H194 0.930 1_545 S
N167 C166 1.373 . S
N167 C169 1.340 . S
N168 C165 1.368 . S
N168 C169 1.321 . S
N168 Co171 2.135 1_554 S
C169 N167 1.340 . S
C169 N168 1.321 . S
C169 H193 0.930 . S
H170 C165 0.931 1_565 S
Co171 N168 2.135 1_556 S
Co171 N174 2.121 . S
Co171 O179 2.055 . S
Co171 O182 2.039 . S
Co171 N185 2.140 1_545 S
C172 O173 1.227 . S
C172 O182 1.265 . S
O173 C172 1.227 . S
N174 Co171 2.121 . S
N174 C176 1.375 . S
N174 C177 1.313 . S
C175 C176 1.338 . S
C175 N178 1.377 . S
C175 H195 0.930 . S
C176 N174 1.375 . S
C176 C175 1.338 . S
C176 H180 0.931 . S
C177 N174 1.313 . S
C177 N178 1.344 . S
C177 H181 0.930 . S
N178 C175 1.377 . S
N178 C177 1.344 . S
O179 Co171 2.055 . S
O179 C183 1.253 . S
H180 C176 0.931 . S
H181 C177 0.930 . S
O182 Co171 2.039 . S
O182 C172 1.265 . S
C183 O179 1.253 . S
C183 O184 1.232 . S
O184 C183 1.232 . S
N185 Co171 2.140 1_565 S
N185 C188 1.346 . S
N185 C189 1.345 . S
C186 C187 1.387 . S
C186 C190 1.391 . S
C187 C186 1.387 . S
C187 C188 1.369 . S
C187 H196 0.929 1_556 S
C188 N185 1.346 . S
C188 C187 1.369 . S
C188 H191 0.928 1_566 S
C189 N185 1.345 . S
C189 C190 1.371 . S
C189 H192 0.931 . S
C190 C186 1.391 . S
C190 C189 1.371 . S
C190 H197 0.930 . S
H191 C188 0.928 1_544 S
H192 C189 0.931 . S
H193 C169 0.930 . S
H194 C166 0.930 1_565 S
H195 C175 0.930 . S
H196 C187 0.929 1_554 S
H197 C190 0.930 . S
C198 C199 1.351 . S
C198 N201 1.368 . S
C198 H203 0.931 . S
C199 C198 1.351 . S
C199 N200 1.373 . S
C199 H227 0.930 . S
N200 C199 1.373 . S
N200 C202 1.340 . S
N201 C198 1.368 . S
N201 C202 1.321 . S
N201 Co204 2.135 . S
C202 N200 1.340 . S
C202 N201 1.321 . S
C202 H226 0.930 . S
H203 C198 0.931 . S
Co204 N201 2.135 . S
Co204 N207 2.121 . S
Co204 O212 2.055 . S
Co204 O215 2.039 . S
Co204 N218 2.140 . S
C205 O206 1.227 . S
C205 O215 1.265 . S
O206 C205 1.227 . S
N207 Co204 2.121 . S
N207 C209 1.375 . S
N207 C210 1.313 . S
C208 C209 1.338 . S
C208 N211 1.377 . S
C208 H228 0.930 . S
C209 N207 1.375 . S
C209 C208 1.338 . S
C209 H213 0.931 . S
C210 N207 1.313 . S
C210 N211 1.344 . S
C210 H214 0.930 . S
N211 C208 1.377 . S
N211 C210 1.344 . S
O212 Co204 2.055 . S
O212 C216 1.253 . S
H213 C209 0.931 . S
H214 C210 0.930 . S
O215 Co204 2.039 . S
O215 C205 1.265 . S
C216 O212 1.253 . S
C216 O217 1.227 . S
O217 C216 1.227 . S
N218 Co204 2.140 . S
N218 C221 1.346 . S
N218 C222 1.345 . S
C219 C220 1.387 . S
C219 C223 1.391 . S
C220 C219 1.387 . S
C220 C221 1.369 . S
C220 H229 0.929 . S
C221 N218 1.346 . S
C221 C220 1.369 . S
C221 H224 0.928 . S
C222 N218 1.345 . S
C222 C223 1.371 . S
C222 H225 0.931 . S
C223 C219 1.391 . S
C223 C222 1.371 . S
C223 H230 0.930 . S
H224 C221 0.928 . S
H225 C222 0.931 . S
H226 C202 0.930 . S
H227 C199 0.930 . S
H228 C208 0.930 . S
H229 C220 0.929 . S
H230 C223 0.930 . S
C231 C232 1.351 . S
C231 N234 1.368 . S
C231 H236 0.931 . S
C232 C231 1.351 . S
C232 N233 1.373 . S
C232 H260 0.930 . S
N233 C232 1.373 . S
N233 C235 1.340 . S
N234 C231 1.368 . S
N234 C235 1.321 . S
N234 Co237 2.135 1_554 S
C235 N233 1.340 . S
C235 N234 1.321 . S
C235 H259 0.930 . S
H236 C231 0.931 . S
Co237 N234 2.135 1_556 S
Co237 N240 2.121 . S
Co237 O245 2.055 . S
Co237 O248 2.039 . S
Co237 N251 2.140 . S
C238 O239 1.227 . S
C238 O248 1.265 . S
O239 C238 1.227 . S
N240 Co237 2.121 . S
N240 C242 1.375 . S
N240 C243 1.313 . S
C241 C242 1.338 . S
C241 N244 1.377 . S
C241 H261 0.930 . S
C242 N240 1.375 . S
C242 C241 1.338 . S
C242 H246 0.931 . S
C243 N240 1.313 . S
C243 N244 1.344 . S
C243 H247 0.930 . S
N244 C241 1.377 . S
N244 C243 1.344 . S
O245 Co237 2.055 . S
O245 C249 1.253 . S
H246 C242 0.931 . S
H247 C243 0.930 . S
O248 Co237 2.039 . S
O248 C238 1.265 . S
C249 O245 1.253 . S
C249 O250 1.227 . S
O250 C249 1.227 . S
N251 Co237 2.140 . S
N251 C254 1.346 . S
N251 C255 1.345 . S
C252 C253 1.387 . S
C252 C256 1.391 . S
C253 C252 1.387 . S
C253 C254 1.369 . S
C253 H262 0.929 1_556 S
C254 N251 1.346 . S
C254 C253 1.369 . S
C254 H257 0.928 1_556 S
C255 N251 1.345 . S
C255 C256 1.371 . S
C255 H258 0.931 . S
C256 C252 1.391 . S
C256 C255 1.371 . S
C256 H263 0.930 . S
H257 C254 0.928 1_554 S
H258 C255 0.931 . S
H259 C235 0.930 . S
H260 C232 0.930 . S
H261 C241 0.930 . S
H262 C253 0.929 1_554 S
H263 C256 0.930 . S
C264 C265 1.351 . S
C264 N267 1.368 . S
C264 H269 0.931 1_655 S
C265 C264 1.351 . S
C265 N266 1.373 . S
C265 H293 0.930 1_655 S
N266 C265 1.373 . S
N266 C268 1.340 . S
N267 C264 1.368 . S
N267 C268 1.321 . S
N267 Co270 2.135 1_554 S
C268 N266 1.340 . S
C268 N267 1.321 . S
C268 H292 0.930 . S
H269 C264 0.931 1_455 S
Co270 N267 2.135 1_556 S
Co270 N273 2.121 . S
Co270 O278 2.055 . S
Co270 O281 2.039 . S
Co270 N284 2.140 1_655 S
C271 O272 1.227 . S
C271 O281 1.265 . S
O272 C271 1.227 . S
N273 Co270 2.121 . S
N273 C275 1.375 . S
N273 C276 1.313 . S
C274 C275 1.338 . S
C274 N277 1.377 . S
C274 H294 0.930 . S
C275 N273 1.375 . S
C275 C274 1.338 . S
C275 H279 0.931 . S
C276 N273 1.313 . S
C276 N277 1.344 . S
C276 H280 0.930 . S
N277 C274 1.377 . S
N277 C276 1.344 . S
O278 Co270 2.055 . S
O278 C282 1.253 . S
H279 C275 0.931 . S
H280 C276 0.930 . S
O281 Co270 2.039 . S
O281 C271 1.265 . S
C282 O278 1.253 . S
C282 O283 1.232 . S
O283 C282 1.232 . S
N284 Co270 2.140 1_455 S
N284 C287 1.346 . S
N284 C288 1.345 . S
C285 C286 1.387 . S
C285 C289 1.391 . S
C286 C285 1.387 . S
C286 C287 1.369 . S
C286 H295 0.929 1_556 S
C287 N284 1.346 . S
C287 C286 1.369 . S
C287 H290 0.928 1_456 S
C288 N284 1.345 . S
C288 C289 1.371 . S
C288 H291 0.931 . S
C289 C285 1.391 . S
C289 C288 1.371 . S
C289 H296 0.930 . S
H290 C287 0.928 1_654 S
H291 C288 0.931 . S
H292 C268 0.930 . S
H293 C265 0.930 1_455 S
H294 C274 0.930 . S
H295 C286 0.929 1_554 S
H296 C289 0.930 . S
C297 C298 1.351 . S
C297 N300 1.368 . S
C297 H302 0.931 1_565 S
C298 C297 1.351 . S
C298 N299 1.373 . S
C298 H326 0.930 1_565 S
N299 C298 1.373 . S
N299 C301 1.340 . S
N300 C297 1.368 . S
N300 C301 1.321 . S
N300 Co303 2.135 . S
C301 N299 1.340 . S
C301 N300 1.321 . S
C301 H325 0.930 . S
H302 C297 0.931 1_545 S
Co303 N300 2.135 . S
Co303 N306 2.121 . S
Co303 O311 2.055 . S
Co303 O314 2.039 . S
Co303 N317 2.140 1_565 S
C304 O305 1.227 . S
C304 O314 1.265 . S
O305 C304 1.227 . S
N306 Co303 2.121 . S
N306 C308 1.375 . S
N306 C309 1.313 . S
C307 C308 1.338 . S
C307 N310 1.377 . S
C307 H327 0.930 . S
C308 N306 1.375 . S
C308 C307 1.338 . S
C308 H312 0.931 . S
C309 N306 1.313 . S
C309 N310 1.344 . S
C309 H313 0.930 . S
N310 C307 1.377 . S
N310 C309 1.344 . S
O311 Co303 2.055 . S
O311 C315 1.253 . S
H312 C308 0.931 . S
H313 C309 0.930 . S
O314 Co303 2.039 . S
O314 C304 1.265 . S
C315 O311 1.253 . S
C315 O316 1.232 . S
O316 C315 1.232 . S
N317 Co303 2.140 1_545 S
N317 C320 1.346 . S
N317 C321 1.345 . S
C318 C319 1.387 . S
C318 C322 1.391 . S
C319 C318 1.387 . S
C319 C320 1.369 . S
C319 H328 0.929 . S
C320 N317 1.346 . S
C320 C319 1.369 . S
C320 H323 0.928 1_545 S
C321 N317 1.345 . S
C321 C322 1.371 . S
C321 H324 0.931 . S
C322 C318 1.391 . S
C322 C321 1.371 . S
C322 H329 0.930 . S
H323 C320 0.928 1_565 S
H324 C321 0.931 . S
H325 C301 0.930 . S
H326 C298 0.930 1_545 S
H327 C307 0.930 . S
H328 C319 0.929 . S
H329 C322 0.930 . S
C330 C331 1.351 . S
C330 N333 1.368 . S
C330 H335 0.931 . S
C331 C330 1.351 . S
C331 N332 1.373 . S
C331 H359 0.930 . S
N332 C331 1.373 . S
N332 C334 1.340 . S
N333 C330 1.368 . S
N333 C334 1.321 . S
N333 Co336 2.135 1_554 S
C334 N332 1.340 . S
C334 N333 1.321 . S
C334 H358 0.930 . S
H335 C330 0.931 . S
Co336 N333 2.135 1_556 S
Co336 N339 2.121 . S
Co336 O344 2.055 . S
Co336 O347 2.039 . S
Co336 N350 2.140 . S
C337 O338 1.227 . S
C337 O347 1.265 . S
O338 C337 1.227 . S
N339 Co336 2.121 . S
N339 C341 1.375 . S
N339 C342 1.313 . S
C340 C341 1.338 . S
C340 N343 1.377 . S
C340 H360 0.930 . S
C341 N339 1.375 . S
C341 C340 1.338 . S
C341 H345 0.931 . S
C342 N339 1.313 . S
C342 N343 1.344 . S
C342 H346 0.930 . S
N343 C340 1.377 . S
N343 C342 1.344 . S
O344 Co336 2.055 . S
O344 C348 1.253 . S
H345 C341 0.931 . S
H346 C342 0.930 . S
O347 Co336 2.039 . S
O347 C337 1.265 . S
C348 O344 1.253 . S
C348 O349 1.227 . S
O349 C348 1.227 . S
N350 Co336 2.140 . S
N350 C353 1.346 . S
N350 C354 1.345 . S
C351 C352 1.387 . S
C351 C355 1.391 . S
C352 C351 1.387 . S
C352 C353 1.369 . S
C352 H361 0.929 1_556 S
C353 N350 1.346 . S
C353 C352 1.369 . S
C353 H356 0.928 1_556 S
C354 N350 1.345 . S
C354 C355 1.371 . S
C354 H357 0.931 . S
C355 C351 1.391 . S
C355 C354 1.371 . S
C355 H362 0.930 . S
H356 C353 0.928 1_554 S
H357 C354 0.931 . S
H358 C334 0.930 . S
H359 C331 0.930 . S
H360 C340 0.930 . S
H361 C352 0.929 1_554 S
H362 C355 0.930 . S
C363 C364 1.351 . S
C363 N366 1.368 . S
C363 H368 0.931 . S
C364 C363 1.351 . S
C364 N365 1.373 . S
C364 H392 0.930 . S
N365 C364 1.373 . S
N365 C367 1.340 . S
N366 C363 1.368 . S
N366 C367 1.321 . S
N366 Co369 2.135 . S
C367 N365 1.340 . S
C367 N366 1.321 . S
C367 H391 0.930 . S
H368 C363 0.931 . S
Co369 N366 2.135 . S
Co369 N372 2.121 . S
Co369 O377 2.055 . S
Co369 O380 2.039 . S
Co369 N383 2.140 . S
C370 O371 1.227 . S
C370 O380 1.265 . S
O371 C370 1.227 . S
N372 Co369 2.121 . S
N372 C374 1.375 . S
N372 C375 1.313 . S
C373 C374 1.338 . S
C373 N376 1.377 . S
C373 H393 0.930 . S
C374 N372 1.375 . S
C374 C373 1.338 . S
C374 H378 0.931 . S
C375 N372 1.313 . S
C375 N376 1.344 . S
C375 H379 0.930 . S
N376 C373 1.377 . S
N376 C375 1.344 . S
O377 Co369 2.055 . S
O377 C381 1.253 . S
H378 C374 0.931 . S
H379 C375 0.930 . S
O380 Co369 2.039 . S
O380 C370 1.265 . S
C381 O377 1.253 . S
C381 O382 1.227 . S
O382 C381 1.227 . S
N383 Co369 2.140 . S
N383 C386 1.346 . S
N383 C387 1.345 . S
C384 C385 1.387 . S
C384 C388 1.391 . S
C385 C384 1.387 . S
C385 C386 1.369 . S
C385 H394 0.929 . S
C386 N383 1.346 . S
C386 C385 1.369 . S
C386 H389 0.928 . S
C387 N383 1.345 . S
C387 C388 1.371 . S
C387 H390 0.931 . S
C388 C384 1.391 . S
C388 C387 1.371 . S
C388 H395 0.930 . S
H389 C386 0.928 . S
H390 C387 0.931 . S
H391 C367 0.930 . S
H392 C364 0.930 . S
H393 C373 0.930 . S
H394 C385 0.929 . S
H395 C388 0.930 . S
C396 C397 1.351 . S
C396 N399 1.368 . S
C396 H401 0.931 1_655 S
C397 C396 1.351 . S
C397 N398 1.373 . S
C397 H425 0.930 1_655 S
N398 C397 1.373 . S
N398 C400 1.340 . S
N399 C396 1.368 . S
N399 C400 1.321 . S
N399 Co402 2.135 . S
C400 N398 1.340 . S
C400 N399 1.321 . S
C400 H424 0.930 . S
H401 C396 0.931 1_455 S
Co402 N399 2.135 . S
Co402 N405 2.121 . S
Co402 O410 2.055 . S
Co402 O413 2.039 . S
Co402 N416 2.140 1_655 S
C403 O404 1.227 . S
C403 O413 1.265 . S
O404 C403 1.227 . S
N405 Co402 2.121 . S
N405 C407 1.375 . S
N405 C408 1.313 . S
C406 C407 1.338 . S
C406 N409 1.377 . S
C406 H426 0.930 . S
C407 N405 1.375 . S
C407 C406 1.338 . S
C407 H411 0.931 . S
C408 N405 1.313 . S
C408 N409 1.344 . S
C408 H412 0.930 . S
N409 C406 1.377 . S
N409 C408 1.344 . S
O410 Co402 2.055 . S
O410 C414 1.253 . S
H411 C407 0.931 . S
H412 C408 0.930 . S
O413 Co402 2.039 . S
O413 C403 1.265 . S
C414 O410 1.253 . S
C414 O415 1.232 . S
O415 C414 1.232 . S
N416 Co402 2.140 1_455 S
N416 C419 1.346 . S
N416 C420 1.345 . S
C417 C418 1.387 . S
C417 C421 1.391 . S
C418 C417 1.387 . S
C418 C419 1.369 . S
C418 H427 0.929 . S
C419 N416 1.346 . S
C419 C418 1.369 . S
C419 H422 0.928 1_455 S
C420 N416 1.345 . S
C420 C421 1.371 . S
C420 H423 0.931 . S
C421 C417 1.391 . S
C421 C420 1.371 . S
C421 H428 0.930 . S
H422 C419 0.928 1_655 S
H423 C420 0.931 . S
H424 C400 0.930 . S
H425 C397 0.930 1_455 S
H426 C406 0.930 . S
H427 C418 0.929 . S
H428 C421 0.930 . S
C429 C430 1.351 . S
C429 N432 1.368 . S
C429 H434 0.931 1_565 S
C430 C429 1.351 . S
C430 N431 1.373 . S
C430 H458 0.930 1_565 S
N431 C430 1.373 . S
N431 C433 1.340 . S
N432 C429 1.368 . S
N432 C433 1.321 . S
N432 Co435 2.135 1_556 S
C433 N431 1.340 . S
C433 N432 1.321 . S
C433 H457 0.930 . S
H434 C429 0.931 1_545 S
Co435 N432 2.135 1_554 S
Co435 N438 2.121 . S
Co435 O443 2.055 . S
Co435 O446 2.039 . S
Co435 N449 2.140 1_565 S
C436 O437 1.227 . S
C436 O446 1.265 . S
O437 C436 1.227 . S
N438 Co435 2.121 . S
N438 C440 1.375 . S
N438 C441 1.313 . S
C439 C440 1.338 . S
C439 N442 1.377 . S
C439 H459 0.930 . S
C440 N438 1.375 . S
C440 C439 1.338 . S
C440 H444 0.931 . S
C441 N438 1.313 . S
C441 N442 1.344 . S
C441 H445 0.930 . S
N442 C439 1.377 . S
N442 C441 1.344 . S
O443 Co435 2.055 . S
O443 C447 1.253 . S
H444 C440 0.931 . S
H445 C441 0.930 . S
O446 Co435 2.039 . S
O446 C436 1.265 . S
C447 O443 1.253 . S
C447 O448 1.232 . S
O448 C447 1.232 . S
N449 Co435 2.140 1_545 S
N449 C452 1.346 . S
N449 C453 1.345 . S
C450 C451 1.387 . S
C450 C454 1.391 . S
C451 C450 1.387 . S
C451 C452 1.369 . S
C451 H460 0.929 1_554 S
C452 N449 1.346 . S
C452 C451 1.369 . S
C452 H455 0.928 1_544 S
C453 N449 1.345 . S
C453 C454 1.371 . S
C453 H456 0.931 . S
C454 C450 1.391 . S
C454 C453 1.371 . S
C454 H461 0.930 . S
H455 C452 0.928 1_566 S
H456 C453 0.931 . S
H457 C433 0.930 . S
H458 C430 0.930 1_545 S
H459 C439 0.930 . S
H460 C451 0.929 1_556 S
H461 C454 0.930 . S
C462 C463 1.351 . S
C462 N465 1.368 . S
C462 H467 0.931 . S
C463 C462 1.351 . S
C463 N464 1.373 . S
C463 H491 0.930 . S
N464 C463 1.373 . S
N464 C466 1.340 . S
N465 C462 1.368 . S
N465 C466 1.321 . S
N465 Co468 2.135 . S
C466 N464 1.340 . S
C466 N465 1.321 . S
C466 H490 0.930 . S
H467 C462 0.931 . S
Co468 N465 2.135 . S
Co468 N471 2.121 . S
Co468 O476 2.055 . S
Co468 O479 2.039 . S
Co468 N482 2.140 . S
C469 O470 1.227 . S
C469 O479 1.265 . S
O470 C469 1.227 . S
N471 Co468 2.121 . S
N471 C473 1.375 . S
N471 C474 1.313 . S
C472 C473 1.338 . S
C472 N475 1.377 . S
C472 H492 0.930 . S
C473 N471 1.375 . S
C473 C472 1.338 . S
C473 H477 0.931 . S
C474 N471 1.313 . S
C474 N475 1.344 . S
C474 H478 0.930 . S
N475 C472 1.377 . S
N475 C474 1.344 . S
O476 Co468 2.055 . S
O476 C480 1.253 . S
H477 C473 0.931 . S
H478 C474 0.930 . S
O479 Co468 2.039 . S
O479 C469 1.265 . S
C480 O476 1.253 . S
C480 O481 1.227 . S
O481 C480 1.227 . S
N482 Co468 2.140 . S
N482 C485 1.346 . S
N482 C486 1.345 . S
C483 C484 1.387 . S
C483 C487 1.391 . S
C484 C483 1.387 . S
C484 C485 1.369 . S
C484 H493 0.929 . S
C485 N482 1.346 . S
C485 C484 1.369 . S
C485 H488 0.928 . S
C486 N482 1.345 . S
C486 C487 1.371 . S
C486 H489 0.931 . S
C487 C483 1.391 . S
C487 C486 1.371 . S
C487 H494 0.930 . S
H488 C485 0.928 . S
H489 C486 0.931 . S
H490 C466 0.930 . S
H491 C463 0.930 . S
H492 C472 0.930 . S
H493 C484 0.929 . S
H494 C487 0.930 . S
C495 C496 1.351 . S
C495 N498 1.368 . S
C495 H500 0.931 . S
C496 C495 1.351 . S
C496 N497 1.373 . S
C496 H524 0.930 . S
N497 C496 1.373 . S
N497 C499 1.340 . S
N498 C495 1.368 . S
N498 C499 1.321 . S
N498 Co501 2.135 1_556 S
C499 N497 1.340 . S
C499 N498 1.321 . S
C499 H523 0.930 . S
H500 C495 0.931 . S
Co501 N498 2.135 1_554 S
Co501 N504 2.121 . S
Co501 O509 2.055 . S
Co501 O512 2.039 . S
Co501 N515 2.140 . S
C502 O503 1.227 . S
C502 O512 1.265 . S
O503 C502 1.227 . S
N504 Co501 2.121 . S
N504 C506 1.375 . S
N504 C507 1.313 . S
C505 C506 1.338 . S
C505 N508 1.377 . S
C505 H525 0.930 . S
C506 N504 1.375 . S
C506 C505 1.338 . S
C506 H510 0.931 . S
C507 N504 1.313 . S
C507 N508 1.344 . S
C507 H511 0.930 . S
N508 C505 1.377 . S
N508 C507 1.344 . S
O509 Co501 2.055 . S
O509 C513 1.253 . S
H510 C506 0.931 . S
H511 C507 0.930 . S
O512 Co501 2.039 . S
O512 C502 1.265 . S
C513 O509 1.253 . S
C513 O514 1.227 . S
O514 C513 1.227 . S
N515 Co501 2.140 . S
N515 C518 1.346 . S
N515 C519 1.345 . S
C516 C517 1.387 . S
C516 C520 1.391 . S
C517 C516 1.387 . S
C517 C518 1.369 . S
C517 H526 0.929 1_554 S
C518 N515 1.346 . S
C518 C517 1.369 . S
C518 H521 0.928 1_554 S
C519 N515 1.345 . S
C519 C520 1.371 . S
C519 H522 0.931 . S
C520 C516 1.391 . S
C520 C519 1.371 . S
C520 H527 0.930 . S
H521 C518 0.928 1_556 S
H522 C519 0.931 . S
H523 C499 0.930 . S
H524 C496 0.930 . S
H525 C505 0.930 . S
H526 C517 0.929 1_556 S
H527 C520 0.930 . S
C528 C529 1.387 . S
C528 H532 0.950 1_554 S
C528 C537 1.390 . S
C529 C528 1.387 . S
C529 C531 1.387 . S
H530 C537 0.950 1_556 S
C531 C529 1.387 . S
C531 C533 1.390 . S
C531 H535 0.950 . S
H532 C528 0.950 1_556 S
C533 C531 1.390 . S
C533 C534 1.387 . S
C533 H536 0.950 . S
C534 C533 1.387 . S
C534 C537 1.387 . S
H535 C531 0.950 . S
H536 C533 0.950 . S
C537 C528 1.390 . S
C537 H530 0.950 1_554 S
C537 C534 1.387 . S
C538 C539 1.387 . S
C538 H542 0.950 . S
C538 C547 1.390 . S
C539 C538 1.387 . S
C539 C541 1.387 . S
H540 C547 0.950 . S
C541 C539 1.387 . S
C541 C543 1.390 . S
C541 H545 0.950 . S
H542 C538 0.950 . S
C543 C541 1.390 . S
C543 C544 1.387 . S
C543 H546 0.950 . S
C544 C543 1.387 . S
C544 C547 1.387 . S
H545 C541 0.950 . S
H546 C543 0.950 . S
C547 C538 1.390 . S
C547 H540 0.950 . S
C547 C544 1.387 . S
C548 C549 1.387 . S
C548 H552 0.950 1_554 S
C548 C557 1.390 . S
C549 C548 1.387 . S
C549 C551 1.387 . S
H550 C557 0.950 1_556 S
C551 C549 1.387 . S
C551 C553 1.390 . S
C551 H555 0.950 . S
H552 C548 0.950 1_556 S
C553 C551 1.390 . S
C553 C554 1.387 . S
C553 H556 0.950 . S
C554 C553 1.387 . S
C554 C557 1.387 . S
H555 C551 0.950 . S
H556 C553 0.950 . S
C557 C548 1.390 . S
C557 H550 0.950 1_554 S
C557 C554 1.387 . S
C558 C559 1.387 . S
C558 H562 0.950 . S
C558 C567 1.390 . S
C559 C558 1.387 . S
C559 C561 1.387 . S
H560 C567 0.950 . S
C561 C559 1.387 . S
C561 C563 1.390 . S
C561 H565 0.950 . S
H562 C558 0.950 . S
C563 C561 1.390 . S
C563 C564 1.387 . S
C563 H566 0.950 . S
C564 C563 1.387 . S
C564 C567 1.387 . S
H565 C561 0.950 . S
H566 C563 0.950 . S
C567 C558 1.390 . S
C567 H560 0.950 . S
C567 C564 1.387 . S
C568 C569 1.387 . S
C568 H572 0.950 . S
C568 C577 1.390 . S
C569 C568 1.387 . S
C569 C571 1.387 . S
H570 C577 0.950 . S
C571 C569 1.387 . S
C571 C573 1.390 . S
C571 H575 0.950 . S
H572 C568 0.950 . S
C573 C571 1.390 . S
C573 C574 1.387 . S
C573 H576 0.950 . S
C574 C573 1.387 . S
C574 C577 1.387 . S
H575 C571 0.950 . S
H576 C573 0.950 . S
C577 C568 1.390 . S
C577 H570 0.950 . S
C577 C574 1.387 . S
C578 C579 1.387 . S
C578 H582 0.950 . S
C578 C587 1.390 . S
C579 C578 1.387 . S
C579 C581 1.387 . S
H580 C587 0.950 . S
C581 C579 1.387 . S
C581 C583 1.390 . S
C581 H585 0.950 1_556 S
H582 C578 0.950 . S
C583 C581 1.390 . S
C583 C584 1.387 . S
C583 H586 0.950 1_556 S
C584 C583 1.387 . S
C584 C587 1.387 . S
H585 C581 0.950 1_554 S
H586 C583 0.950 1_554 S
C587 C578 1.390 . S
C587 H580 0.950 . S
C587 C584 1.387 . S
C588 C589 1.387 . S
C588 H592 0.950 . S
C588 C597 1.390 . S
C589 C588 1.387 . S
C589 C591 1.387 . S
H590 C597 0.950 . S
C591 C589 1.387 . S
C591 C593 1.390 . S
C591 H595 0.950 . S
H592 C588 0.950 . S
C593 C591 1.390 . S
C593 C594 1.387 . S
C593 H596 0.950 . S
C594 C593 1.387 . S
C594 C597 1.387 . S
H595 C591 0.950 . S
H596 C593 0.950 . S
C597 C588 1.390 . S
C597 H590 0.950 . S
C597 C594 1.387 . S
C598 C599 1.387 . S
C598 H602 0.950 1_556 S
C598 C607 1.390 . S
C599 C598 1.387 . S
C599 C601 1.387 . S
H600 C607 0.950 1_554 S
C601 C599 1.387 . S
C601 C603 1.390 . S
C601 H605 0.950 . S
H602 C598 0.950 1_554 S
C603 C601 1.390 . S
C603 C604 1.387 . S
C603 H606 0.950 . S
C604 C603 1.387 . S
C604 C607 1.387 . S
H605 C601 0.950 . S
H606 C603 0.950 . S
C607 C598 1.390 . S
C607 H600 0.950 1_556 S
C607 C604 1.387 . S
C608 C609 1.387 1_556 S
C608 H612 0.950 . S
C608 C617 1.390 . S
C609 C608 1.387 1_554 S
C609 C611 1.387 . S
H610 C617 0.950 . S
C611 C609 1.387 . S
C611 C613 1.390 . S
C611 H615 0.950 . S
H612 C608 0.950 . S
C613 C611 1.390 . S
C613 C614 1.387 1_554 S
C613 H616 0.950 . S
C614 C613 1.387 1_556 S
C614 C617 1.387 . S
H615 C611 0.950 . S
H616 C613 0.950 . S
C617 C608 1.390 . S
C617 H610 0.950 . S
C617 C614 1.387 . S
C618 C619 1.387 . S
C618 H622 0.950 . S
C618 C627 1.390 . S
C619 C618 1.387 . S
C619 C621 1.387 . S
H620 C627 0.950 . S
C621 C619 1.387 . S
C621 C623 1.390 . S
C621 H625 0.950 . S
H622 C618 0.950 . S
C623 C621 1.390 . S
C623 C624 1.387 . S
C623 H626 0.950 . S
C624 C623 1.387 . S
C624 C627 1.387 . S
H625 C621 0.950 . S
H626 C623 0.950 . S
C627 C618 1.390 . S
C627 H620 0.950 . S
C627 C624 1.387 . S
C628 C629 1.387 1_556 S
C628 H632 0.950 . S
C628 C637 1.390 . S
C629 C628 1.387 1_554 S
C629 C631 1.387 . S
H630 C637 0.950 . S
C631 C629 1.387 . S
C631 C633 1.390 . S
C631 H635 0.950 . S
H632 C628 0.950 . S
C633 C631 1.390 . S
C633 C634 1.387 1_554 S
C633 H636 0.950 . S
C634 C633 1.387 1_556 S
C634 C637 1.387 . S
H635 C631 0.950 . S
H636 C633 0.950 . S
C637 C628 1.390 . S
C637 H630 0.950 . S
C637 C634 1.387 . S
C638 C639 1.387 . S
C638 H642 0.950 . S
C638 C647 1.390 . S
C639 C638 1.387 . S
C639 C641 1.387 . S
H640 C647 0.950 . S
C641 C639 1.387 . S
C641 C643 1.390 . S
C641 H645 0.950 . S
H642 C638 0.950 . S
C643 C641 1.390 . S
C643 C644 1.387 . S
C643 H646 0.950 . S
C644 C643 1.387 . S
C644 C647 1.387 . S
H645 C641 0.950 . S
H646 C643 0.950 . S
C647 C638 1.390 . S
C647 H640 0.950 . S
C647 C644 1.387 . S
C648 C649 1.387 . S
C648 H652 0.950 . S
C648 C657 1.390 . S
C649 C648 1.387 . S
C649 C651 1.387 1_554 S
H650 C657 0.950 . S
C651 C649 1.387 1_556 S
C651 C653 1.390 . S
C651 H655 0.950 . S
H652 C648 0.950 . S
C653 C651 1.390 . S
C653 C654 1.387 . S
C653 H656 0.950 . S
C654 C653 1.387 . S
C654 C657 1.387 1_556 S
H655 C651 0.950 . S
H656 C653 0.950 . S
C657 C648 1.390 . S
C657 H650 0.950 . S
C657 C654 1.387 1_554 S
C658 C659 1.387 . S
C658 H662 0.950 . S
C658 C667 1.390 . S
C659 C658 1.387 . S
C659 C661 1.387 . S
H660 C667 0.950 . S
C661 C659 1.387 . S
C661 C663 1.390 . S
C661 H665 0.950 . S
H662 C658 0.950 . S
C663 C661 1.390 . S
C663 C664 1.387 . S
C663 H666 0.950 . S
C664 C663 1.387 . S
C664 C667 1.387 . S
H665 C661 0.950 . S
H666 C663 0.950 . S
C667 C658 1.390 . S
C667 H660 0.950 . S
C667 C664 1.387 . S
C668 C669 1.387 . S
C668 H672 0.950 . S
C668 C677 1.390 . S
C669 C668 1.387 . S
C669 C671 1.387 1_554 S
H670 C677 0.950 . S
C671 C669 1.387 1_556 S
C671 C673 1.390 . S
C671 H675 0.950 . S
H672 C668 0.950 . S
C673 C671 1.390 . S
C673 C674 1.387 . S
C673 H676 0.950 . S
C674 C673 1.387 . S
C674 C677 1.387 1_556 S
H675 C671 0.950 . S
H676 C673 0.950 . S
C677 C668 1.390 . S
C677 H670 0.950 . S
C677 C674 1.387 1_554 S
C678 C679 1.387 . S
C678 H682 0.950 . S
C678 C687 1.390 . S
C679 C678 1.387 . S
C679 C681 1.387 . S
H680 C687 0.950 . S
C681 C679 1.387 . S
C681 C683 1.390 . S
C681 H685 0.950 . S
H682 C678 0.950 . S
C683 C681 1.390 . S
C683 C684 1.387 . S
C683 H686 0.950 . S
C684 C683 1.387 . S
C684 C687 1.387 . S
H685 C681 0.950 . S
H686 C683 0.950 . S
C687 C678 1.390 . S
C687 H680 0.950 . S
C687 C684 1.387 . S
C688 C689 1.387 . S
C688 H692 0.950 . S
C688 C697 1.390 . S
C689 C688 1.387 . S
C689 C691 1.387 1_455 S
H690 C697 0.950 . S
C691 C689 1.387 1_655 S
C691 C693 1.390 . S
C691 H695 0.950 . S
H692 C688 0.950 . S
C693 C691 1.390 . S
C693 C694 1.387 1_655 S
C693 H696 0.950 . S
C694 C693 1.387 1_455 S
C694 C697 1.387 . S
H695 C691 0.950 . S
H696 C693 0.950 . S
C697 C688 1.390 . S
C697 H690 0.950 . S
C697 C694 1.387 . S
C698 C699 1.387 . S
C698 H702 0.950 . S
C698 C707 1.390 . S
C699 C698 1.387 . S
C699 C701 1.387 1_545 S
H700 C707 0.950 . S
C701 C699 1.387 1_565 S
C701 C703 1.390 . S
C701 H705 0.950 . S
H702 C698 0.950 . S
C703 C701 1.390 . S
C703 C704 1.387 1_565 S
C703 H706 0.950 . S
C704 C703 1.387 1_545 S
C704 C707 1.387 . S
H705 C701 0.950 . S
H706 C703 0.950 . S
C707 C698 1.390 . S
C707 H700 0.950 . S
C707 C704 1.387 . S
C708 C709 1.387 . S
C708 H712 0.950 . S
C708 C717 1.390 . S
C709 C708 1.387 . S
C709 C711 1.387 . S
H710 C717 0.950 . S
C711 C709 1.387 . S
C711 C713 1.390 . S
C711 H715 0.950 . S
H712 C708 0.950 . S
C713 C711 1.390 . S
C713 C714 1.387 . S
C713 H716 0.950 . S
C714 C713 1.387 . S
C714 C717 1.387 . S
H715 C711 0.950 . S
H716 C713 0.950 . S
C717 C708 1.390 . S
C717 H710 0.950 . S
C717 C714 1.387 . S
C718 C719 1.387 . S
C718 H722 0.950 . S
C718 C727 1.390 . S
C719 C718 1.387 . S
C719 C721 1.387 . S
H720 C727 0.950 . S
C721 C719 1.387 . S
C721 C723 1.390 . S
C721 H725 0.950 . S
H722 C718 0.950 . S
C723 C721 1.390 . S
C723 C724 1.387 . S
C723 H726 0.950 . S
C724 C723 1.387 . S
C724 C727 1.387 . S
H725 C721 0.950 . S
H726 C723 0.950 . S
C727 C718 1.390 . S
C727 H720 0.950 . S
C727 C724 1.387 . S
C728 C729 1.387 1_455 S
C728 H732 0.950 . S
C728 C737 1.390 . S
C729 C728 1.387 1_655 S
C729 C731 1.387 . S
H730 C737 0.950 . S
C731 C729 1.387 . S
C731 C733 1.390 . S
C731 H735 0.950 . S
H732 C728 0.950 . S
C733 C731 1.390 . S
C733 C734 1.387 . S
C733 H736 0.950 . S
C734 C733 1.387 . S
C734 C737 1.387 1_655 S
H735 C731 0.950 . S
H736 C733 0.950 . S
C737 C728 1.390 . S
C737 H730 0.950 . S
C737 C734 1.387 1_455 S
C738 C739 1.387 1_545 S
C738 H742 0.950 . S
C738 C747 1.390 . S
C739 C738 1.387 1_565 S
C739 C741 1.387 . S
H740 C747 0.950 . S
C741 C739 1.387 . S
C741 C743 1.390 . S
C741 H745 0.950 . S
H742 C738 0.950 . S
C743 C741 1.390 . S
C743 C744 1.387 . S
C743 H746 0.950 . S
C744 C743 1.387 . S
C744 C747 1.387 1_565 S
H745 C741 0.950 . S
H746 C743 0.950 . S
C747 C738 1.390 . S
C747 H740 0.950 . S
C747 C744 1.387 1_545 S
C748 C749 1.387 . S
C748 H752 0.950 . S
C748 C757 1.390 . S
C749 C748 1.387 . S
C749 C751 1.387 . S
H750 C757 0.950 . S
C751 C749 1.387 . S
C751 C753 1.390 . S
C751 H755 0.950 . S
H752 C748 0.950 . S
C753 C751 1.390 . S
C753 C754 1.387 . S
C753 H756 0.950 . S
C754 C753 1.387 . S
C754 C757 1.387 . S
H755 C751 0.950 . S
H756 C753 0.950 . S
C757 C748 1.390 . S
C757 H750 0.950 . S
C757 C754 1.387 . S
C758 C759 1.387 . S
C758 H762 0.950 . S
C758 C767 1.390 . S
C759 C758 1.387 . S
C759 C761 1.387 . S
H760 C767 0.950 . S
C761 C759 1.387 . S
C761 C763 1.390 . S
C761 H765 0.950 . S
H762 C758 0.950 . S
C763 C761 1.390 . S
C763 C764 1.387 . S
C763 H766 0.950 . S
C764 C763 1.387 . S
C764 C767 1.387 . S
H765 C761 0.950 . S
H766 C763 0.950 . S
C767 C758 1.390 . S
C767 H760 0.950 . S
C767 C764 1.387 . S
C768 C769 1.387 . S
C768 H772 0.950 . S
C768 C777 1.390 . S
C769 C768 1.387 . S
C769 C771 1.387 . S
H770 C777 0.950 . S
C771 C769 1.387 . S
C771 C773 1.390 . S
C771 H775 0.950 . S
H772 C768 0.950 . S
C773 C771 1.390 . S
C773 C774 1.387 . S
C773 H776 0.950 . S
C774 C773 1.387 . S
C774 C777 1.387 . S
H775 C771 0.950 . S
H776 C773 0.950 . S
C777 C768 1.390 . S
C777 H770 0.950 . S
C777 C774 1.387 . S
C778 C779 1.387 . S
C778 H782 0.950 . S
C778 C787 1.390 . S
C779 C778 1.387 . S
C779 C781 1.387 . S
H780 C787 0.950 . S
C781 C779 1.387 . S
C781 C783 1.390 . S
C781 H785 0.950 . S
H782 C778 0.950 . S
C783 C781 1.390 . S
C783 C784 1.387 . S
C783 H786 0.969 . S
C784 C783 1.387 . S
C784 C787 1.387 . S
H785 C781 0.950 . S
H786 C783 0.969 . S
C787 C778 1.390 . S
C787 H780 0.950 . S
C787 C784 1.387 . S
C788 C789 1.387 . S
C788 H792 0.950 . S
C788 C797 1.390 . S
C789 C788 1.387 . S
C789 C791 1.387 . S
H790 C797 0.950 . S
C791 C789 1.387 . S
C791 C793 1.390 . S
C791 H795 0.950 . S
H792 C788 0.950 . S
C793 C791 1.390 . S
C793 C794 1.387 . S
C793 H796 0.950 . S
C794 C793 1.387 . S
C794 C797 1.387 . S
H795 C791 0.950 . S
H796 C793 0.950 . S
C797 C788 1.390 . S
C797 H790 0.950 . S
C797 C794 1.387 . S
C798 C799 1.387 . S
C798 H802 0.950 . S
C798 C807 1.390 . S
C799 C798 1.387 . S
C799 C801 1.387 . S
H800 C807 0.950 . S
C801 C799 1.387 . S
C801 C803 1.390 . S
C801 H805 0.950 . S
H802 C798 0.950 . S
C803 C801 1.390 . S
C803 C804 1.387 . S
C803 H806 0.950 . S
C804 C803 1.387 . S
C804 C807 1.387 . S
H805 C801 0.950 . S
H806 C803 0.950 . S
C807 C798 1.390 . S
C807 H800 0.950 . S
C807 C804 1.387 . S
C808 C809 1.387 . S
C808 H812 0.950 . S
C808 C817 1.390 . S
C809 C808 1.387 . S
C809 C811 1.387 . S
H810 C817 0.950 . S
C811 C809 1.387 . S
C811 C813 1.390 . S
C811 H815 0.950 1_455 S
H812 C808 0.950 . S
C813 C811 1.390 . S
C813 C814 1.387 . S
C813 H816 0.950 1_455 S
C814 C813 1.387 . S
C814 C817 1.387 . S
H815 C811 0.950 1_655 S
H816 C813 0.950 1_655 S
C817 C808 1.390 . S
C817 H810 0.950 . S
C817 C814 1.387 . S
C818 C819 1.387 . S
C818 H822 0.950 . S
C818 C827 1.390 . S
C819 C818 1.387 . S
C819 C821 1.387 . S
H820 C827 0.950 . S
C821 C819 1.387 . S
C821 C823 1.390 . S
C821 H825 0.950 1_545 S
H822 C818 0.950 . S
C823 C821 1.390 . S
C823 C824 1.387 . S
C823 H826 0.950 . S
C824 C823 1.387 . S
C824 C827 1.387 . S
H825 C821 0.950 1_565 S
H826 C823 0.950 . S
C827 C818 1.390 . S
C827 H820 0.950 . S
C827 C824 1.387 . S
C828 C829 1.387 . S
C828 H832 0.950 . S
C828 C837 1.390 . S
C829 C828 1.387 . S
C829 C831 1.387 . S
H830 C837 0.950 . S
C831 C829 1.387 . S
C831 C833 1.390 . S
C831 H835 0.950 . S
H832 C828 0.950 . S
C833 C831 1.390 . S
C833 C834 1.387 . S
C833 H836 0.950 . S
C834 C833 1.387 . S
C834 C837 1.387 . S
H835 C831 0.950 . S
H836 C833 0.950 . S
C837 C828 1.390 . S
C837 H830 0.950 . S
C837 C834 1.387 . S
C838 C839 1.387 . S
C838 H842 0.950 . S
C838 C847 1.390 . S
C839 C838 1.387 . S
C839 C841 1.387 . S
H840 C847 0.950 . S
C841 C839 1.387 . S
C841 C843 1.390 . S
C841 H845 0.950 . S
H842 C838 0.950 . S
C843 C841 1.390 . S
C843 C844 1.387 . S
C843 H846 0.950 . S
C844 C843 1.387 . S
C844 C847 1.387 . S
H845 C841 0.950 . S
H846 C843 0.950 . S
C847 C838 1.390 . S
C847 H840 0.950 . S
C847 C844 1.387 . S
C848 C849 1.387 . S
C848 H852 0.950 . S
C848 C857 1.390 . S
C849 C848 1.387 . S
C849 C851 1.387 . S
H850 C857 0.950 . S
C851 C849 1.387 . S
C851 C853 1.390 . S
C851 H855 0.950 . S
H852 C848 0.950 . S
C853 C851 1.390 . S
C853 C854 1.387 . S
C853 H856 0.950 . S
C854 C853 1.387 . S
C854 C857 1.387 . S
H855 C851 0.950 . S
H856 C853 0.950 . S
C857 C848 1.390 . S
C857 H850 0.950 . S
C857 C854 1.387 . S
C858 C859 1.387 . S
C858 H862 0.950 . S
C858 C867 1.390 . S
C859 C858 1.387 . S
C859 C861 1.387 . S
H860 C867 0.950 . S
C861 C859 1.387 . S
C861 C863 1.390 . S
C861 H865 0.950 . S
H862 C858 0.950 . S
C863 C861 1.390 . S
C863 C864 1.387 . S
C863 H866 0.950 . S
C864 C863 1.387 . S
C864 C867 1.387 . S
H865 C861 0.950 . S
H866 C863 0.950 . S
C867 C858 1.390 . S
C867 H860 0.950 . S
C867 C864 1.387 . S
C868 C869 1.387 . S
C868 H872 0.950 . S
C868 C877 1.390 . S
C869 C868 1.387 . S
C869 C871 1.387 . S
H870 C877 0.950 . S
C871 C869 1.387 . S
C871 C873 1.390 . S
C871 H875 0.950 . S
H872 C868 0.950 . S
C873 C871 1.390 . S
C873 C874 1.387 . S
C873 H876 0.950 . S
C874 C873 1.387 . S
C874 C877 1.387 . S
H875 C871 0.950 . S
H876 C873 0.950 . S
C877 C868 1.390 . S
C877 H870 0.950 . S
C877 C874 1.387 . S
C878 C879 1.387 . S
C878 H882 0.950 . S
C878 C887 1.390 . S
C879 C878 1.387 . S
C879 C881 1.387 . S
H880 C887 0.950 . S
C881 C879 1.387 . S
C881 C883 1.390 . S
C881 H885 0.950 . S
H882 C878 0.950 . S
C883 C881 1.390 . S
C883 C884 1.387 . S
C883 H886 0.950 . S
C884 C883 1.387 . S
C884 C887 1.387 . S
H885 C881 0.950 . S
H886 C883 0.950 . S
C887 C878 1.390 . S
C887 H880 0.950 . S
C887 C884 1.387 . S
C888 C889 1.387 . S
C888 H892 0.950 . S
C888 C897 1.390 . S
C889 C888 1.387 . S
C889 C891 1.387 . S
H890 C897 0.950 . S
C891 C889 1.387 . S
C891 C893 1.390 . S
C891 H895 0.950 . S
H892 C888 0.950 . S
C893 C891 1.390 . S
C893 C894 1.387 . S
C893 H896 0.950 . S
C894 C893 1.387 . S
C894 C897 1.387 . S
H895 C891 0.950 . S
H896 C893 0.950 . S
C897 C888 1.390 . S
C897 H890 0.950 . S
C897 C894 1.387 . S
C898 C899 1.387 . S
C898 H902 0.950 1_565 S
C898 C907 1.390 . S
C899 C898 1.387 . S
C899 C901 1.387 . S
H900 C907 0.950 1_545 S
C901 C899 1.387 . S
C901 C903 1.390 . S
C901 H905 0.950 . S
H902 C898 0.950 1_545 S
C903 C901 1.390 . S
C903 C904 1.387 . S
C903 H906 0.950 . S
C904 C903 1.387 . S
C904 C907 1.387 . S
H905 C901 0.950 . S
H906 C903 0.950 . S
C907 C898 1.390 . S
C907 H900 0.950 1_565 S
C907 C904 1.387 . S
C908 C909 1.387 . S
C908 H912 0.950 . S
C908 C917 1.390 . S
C909 C908 1.387 . S
C909 C911 1.387 . S
H910 C917 0.950 . S
C911 C909 1.387 . S
C911 C913 1.390 . S
C911 H915 0.950 . S
H912 C908 0.950 . S
C913 C911 1.390 . S
C913 C914 1.387 . S
C913 H916 0.950 . S
C914 C913 1.387 . S
C914 C917 1.387 . S
H915 C911 0.950 . S
H916 C913 0.950 . S
C917 C908 1.390 . S
C917 H910 0.950 . S
C917 C914 1.387 . S
C918 C919 1.387 . S
C918 H922 0.950 . S
C918 C927 1.390 . S
C919 C918 1.387 . S
C919 C921 1.387 . S
H920 C927 0.950 . S
C921 C919 1.387 . S
C921 C923 1.390 . S
C921 H925 0.950 . S
H922 C918 0.950 . S
C923 C921 1.390 . S
C923 C924 1.387 . S
C923 H926 0.950 . S
C924 C923 1.387 . S
C924 C927 1.387 . S
H925 C921 0.950 . S
H926 C923 0.950 . S
C927 C918 1.390 . S
C927 H920 0.950 . S
C927 C924 1.387 . S
C529 C21 1.519 . S
C534 C516 1.520 . S
C539 C54 1.519 . S
C544 C417 1.520 . S
C549 C450 1.520 . S
C554 C87 1.519 . S
C559 C120 1.519 . S
C564 C483 1.520 . S
C569 C318 1.520 . S
C574 C153 1.519 . S
C579 C351 1.519 . S
C584 C186 1.520 . S
C589 C384 1.520 . S
C594 C219 1.519 . S
C599 C285 1.520 . S
C604 C252 1.519 . S
C609 C7 1.454 . S
C614 C238 1.452 . S
C619 C40 1.453 . S
C624 C139 1.454 . S
C629 C73 1.454 . S
C634 C172 1.452 . S
C639 C106 1.453 . S
C644 C205 1.451 . S
C649 C502 1.453 . S
C654 C271 1.451 . S
C659 C403 1.454 . S
C664 C304 1.452 . S
C669 C436 1.453 . S
C674 C337 1.451 . S
C679 C370 1.454 . S
C684 C469 1.452 . S
C689 C18 1.246 . S
C694 C150 1.246 . S
C699 C183 1.246 . S
C704 C51 1.246 . S
C709 C216 1.243 . S
C714 C84 1.243 . S
C719 C117 1.246 . S
C724 C249 1.246 . S
C729 C414 1.246 . S
C734 C282 1.246 . S
C739 C315 1.246 . S
C744 C447 1.246 . S
C749 C348 1.243 . S
C754 C480 1.243 . S
C759 C513 1.243 . S
C764 C381 1.243 . S
C769 N2 1.406 . S
C774 N13 1.407 . S
C779 N46 1.408 1_554 S
C784 N35 1.406 . S
C789 N68 1.406 . S
C794 N79 1.408 . S
C799 N112 1.408 1_554 S
C804 N101 1.407 . S
C809 N134 1.407 . S
C814 N145 1.408 1_556 S
C819 N167 1.406 . S
C824 N178 1.408 . S
C829 N200 1.406 . S
C834 N211 1.407 1_556 S
C839 N233 1.407 . S
C844 N244 1.408 . S
C849 N277 1.407 . S
C854 N266 1.406 . S
C859 N310 1.407 1_556 S
C864 N299 1.406 . S
C869 N343 1.407 . S
C874 N332 1.406 . S
C879 N376 1.408 1_556 S
C884 N365 1.406 . S
C889 N398 1.406 . S
C894 N409 1.407 1_554 S
C899 N431 1.407 . S
C904 N442 1.408 . S
C909 N475 1.407 1_554 S
C914 N464 1.406 . S
C919 N508 1.407 . S
C924 N497 1.406 . S
