# Generated by pormake.
# Topology afi, (4)-cn, num edge types: 1
# Building blocks:
#     Node 0, Type 0, BuildingBlock: CEKHIL_clean_sbu_0, # of connection points: 4
#     Node 1, Type 0, BuildingBlock: CEKHIL_clean_sbu_0, # of connection points: 4
#     Node 2, Type 0, BuildingBlock: CEKHIL_clean_sbu_0, # of connection points: 4
#     Node 3, Type 0, BuildingBlock: CEKHIL_clean_sbu_0, # of connection points: 4
#     Node 4, Type 0, BuildingBlock: CEKHIL_clean_sbu_0, # of connection points: 4
#     Node 5, Type 0, BuildingBlock: CEKHIL_clean_sbu_0, # of connection points: 4
#     Node 6, Type 0, BuildingBlock: CEKHIL_clean_sbu_0, # of connection points: 4
#     Node 7, Type 0, BuildingBlock: CEKHIL_clean_sbu_0, # of connection points: 4
#     Node 8, Type 0, BuildingBlock: CEKHIL_clean_sbu_0, # of connection points: 4
#     Node 9, Type 0, BuildingBlock: CEKHIL_clean_sbu_0, # of connection points: 4
#     Node 10, Type 0, BuildingBlock: CEKHIL_clean_sbu_0, # of connection points: 4
#     Node 11, Type 0, BuildingBlock: CEKHIL_clean_sbu_0, # of connection points: 4
#     Node 12, Type 0, BuildingBlock: CEKHIL_clean_sbu_0, # of connection points: 4
#     Node 13, Type 0, BuildingBlock: CEKHIL_clean_sbu_0, # of connection points: 4
#     Node 14, Type 0, BuildingBlock: CEKHIL_clean_sbu_0, # of connection points: 4
#     Node 15, Type 0, BuildingBlock: CEKHIL_clean_sbu_0, # of connection points: 4
#     Node 16, Type 0, BuildingBlock: CEKHIL_clean_sbu_0, # of connection points: 4
#     Node 17, Type 0, BuildingBlock: CEKHIL_clean_sbu_0, # of connection points: 4
#     Node 18, Type 0, BuildingBlock: CEKHIL_clean_sbu_0, # of connection points: 4
#     Node 19, Type 0, BuildingBlock: CEKHIL_clean_sbu_0, # of connection points: 4
#     Node 20, Type 0, BuildingBlock: CEKHIL_clean_sbu_0, # of connection points: 4
#     Node 21, Type 0, BuildingBlock: CEKHIL_clean_sbu_0, # of connection points: 4
#     Node 22, Type 0, BuildingBlock: CEKHIL_clean_sbu_0, # of connection points: 4
#     Node 23, Type 0, BuildingBlock: CEKHIL_clean_sbu_0, # of connection points: 4
#     Edge 24, Type (0, 0), BuildingBlock: CIFDUS_clean_linker_0, # of connection points: 2
#     Edge 25, Type (0, 0), BuildingBlock: CIFDUS_clean_linker_0, # of connection points: 2
#     Edge 26, Type (0, 0), BuildingBlock: CIFDUS_clean_linker_0, # of connection points: 2
#     Edge 27, Type (0, 0), BuildingBlock: CIFDUS_clean_linker_0, # of connection points: 2
#     Edge 28, Type (0, 0), BuildingBlock: CIFDUS_clean_linker_0, # of connection points: 2
#     Edge 29, Type (0, 0), BuildingBlock: CIFDUS_clean_linker_0, # of connection points: 2
#     Edge 30, Type (0, 0), BuildingBlock: CIFDUS_clean_linker_0, # of connection points: 2
#     Edge 31, Type (0, 0), BuildingBlock: CIFDUS_clean_linker_0, # of connection points: 2
#     Edge 32, Type (0, 0), BuildingBlock: CIFDUS_clean_linker_0, # of connection points: 2
#     Edge 33, Type (0, 0), BuildingBlock: CIFDUS_clean_linker_0, # of connection points: 2
#     Edge 34, Type (0, 0), BuildingBlock: CIFDUS_clean_linker_0, # of connection points: 2
#     Edge 35, Type (0, 0), BuildingBlock: CIFDUS_clean_linker_0, # of connection points: 2
#     Edge 36, Type (0, 0), BuildingBlock: CIFDUS_clean_linker_0, # of connection points: 2
#     Edge 37, Type (0, 0), BuildingBlock: CIFDUS_clean_linker_0, # of connection points: 2
#     Edge 38, Type (0, 0), BuildingBlock: CIFDUS_clean_linker_0, # of connection points: 2
#     Edge 39, Type (0, 0), BuildingBlock: CIFDUS_clean_linker_0, # of connection points: 2
#     Edge 40, Type (0, 0), BuildingBlock: CIFDUS_clean_linker_0, # of connection points: 2
#     Edge 41, Type (0, 0), BuildingBlock: CIFDUS_clean_linker_0, # of connection points: 2
#     Edge 42, Type (0, 0), BuildingBlock: CIFDUS_clean_linker_0, # of connection points: 2
#     Edge 43, Type (0, 0), BuildingBlock: CIFDUS_clean_linker_0, # of connection points: 2
#     Edge 44, Type (0, 0), BuildingBlock: CIFDUS_clean_linker_0, # of connection points: 2
#     Edge 45, Type (0, 0), BuildingBlock: CIFDUS_clean_linker_0, # of connection points: 2
#     Edge 46, Type (0, 0), BuildingBlock: CIFDUS_clean_linker_0, # of connection points: 2
#     Edge 47, Type (0, 0), BuildingBlock: CIFDUS_clean_linker_0, # of connection points: 2
#     Edge 48, Type (0, 0), BuildingBlock: CIFDUS_clean_linker_0, # of connection points: 2
#     Edge 49, Type (0, 0), BuildingBlock: CIFDUS_clean_linker_0, # of connection points: 2
#     Edge 50, Type (0, 0), BuildingBlock: CIFDUS_clean_linker_0, # of connection points: 2
#     Edge 51, Type (0, 0), BuildingBlock: CIFDUS_clean_linker_0, # of connection points: 2
#     Edge 52, Type (0, 0), BuildingBlock: CIFDUS_clean_linker_0, # of connection points: 2
#     Edge 53, Type (0, 0), BuildingBlock: CIFDUS_clean_linker_0, # of connection points: 2
#     Edge 54, Type (0, 0), BuildingBlock: CIFDUS_clean_linker_0, # of connection points: 2
#     Edge 55, Type (0, 0), BuildingBlock: CIFDUS_clean_linker_0, # of connection points: 2
#     Edge 56, Type (0, 0), BuildingBlock: CIFDUS_clean_linker_0, # of connection points: 2
#     Edge 57, Type (0, 0), BuildingBlock: CIFDUS_clean_linker_0, # of connection points: 2
#     Edge 58, Type (0, 0), BuildingBlock: CIFDUS_clean_linker_0, # of connection points: 2
#     Edge 59, Type (0, 0), BuildingBlock: CIFDUS_clean_linker_0, # of connection points: 2
#     Edge 60, Type (0, 0), BuildingBlock: CIFDUS_clean_linker_0, # of connection points: 2
#     Edge 61, Type (0, 0), BuildingBlock: CIFDUS_clean_linker_0, # of connection points: 2
#     Edge 62, Type (0, 0), BuildingBlock: CIFDUS_clean_linker_0, # of connection points: 2
#     Edge 63, Type (0, 0), BuildingBlock: CIFDUS_clean_linker_0, # of connection points: 2
#     Edge 64, Type (0, 0), BuildingBlock: CIFDUS_clean_linker_0, # of connection points: 2
#     Edge 65, Type (0, 0), BuildingBlock: CIFDUS_clean_linker_0, # of connection points: 2
#     Edge 66, Type (0, 0), BuildingBlock: CIFDUS_clean_linker_0, # of connection points: 2
#     Edge 67, Type (0, 0), BuildingBlock: CIFDUS_clean_linker_0, # of connection points: 2
#     Edge 68, Type (0, 0), BuildingBlock: CIFDUS_clean_linker_0, # of connection points: 2
#     Edge 69, Type (0, 0), BuildingBlock: CIFDUS_clean_linker_0, # of connection points: 2
#     Edge 70, Type (0, 0), BuildingBlock: CIFDUS_clean_linker_0, # of connection points: 2
#     Edge 71, Type (0, 0), BuildingBlock: CIFDUS_clean_linker_0, # of connection points: 2
# Relax obj value: 0.099
# Max RMSD: 0.106
# Mean RMSD: 0.106
data_MOF--net-afi--node1-CEKHIL_clean_sbu_0--edge1-CIFDUS_clean_linker_0
_symmetry_space_group_name_H-M    P1
_symmetry_Int_Tables_number       1
_symmetry_cell_setting            triclinic
loop_
_symmetry_equiv_pos_as_xyz
'x, y, z'
_cell_length_a     58.902062
_cell_length_b     58.977213
_cell_length_c     34.018044
_cell_angle_alpha  90.086076
_cell_angle_beta   89.939041
_cell_angle_gamma 120.05548
loop_
_atom_site_label
_atom_site_type_symbol
_atom_site_fract_x
_atom_site_fract_y
_atom_site_fract_z
_atom_type_partial_charge
Co0 Co 0.47693 0.13936 0.19754 0.0
O1 O 0.49629 0.17678 0.19109 0.0
O2 O 0.45664 0.15485 0.21706 0.0
C3 C 0.51067 0.13621 0.22369 0.0
O4 O 0.45172 0.1009 0.21153 0.0
Co5 Co 0.49357 0.10413 0.15245 0.0
O6 O 0.46651 0.07565 0.18497 0.0
C7 C 0.46456 0.12551 0.11067 0.0
C8 C 0.47681 0.17738 0.20783 0.0
C9 C 0.45038 0.07858 0.20629 0.0
O10 O 0.46112 0.13487 0.14295 0.0
O11 O 0.47829 0.1143 0.10809 0.0
O12 O 0.49657 0.14253 0.24547 0.0
O13 O 0.5055 0.13429 0.18652 0.0
Co14 Co 0.34863 0.47585 0.20377 0.0
O15 O 0.32505 0.4895 0.19916 0.0
O16 O 0.3142 0.45074 0.224 0.0
C17 C 0.38246 0.51293 0.22907 0.0
O18 O 0.3679 0.45586 0.21649 0.0
Co19 Co 0.4016 0.50035 0.15843 0.0
O20 O 0.41005 0.48103 0.19793 0.0
C21 C 0.35197 0.46587 0.11659 0.0
C22 C 0.30747 0.46814 0.21605 0.0
C23 C 0.39207 0.46152 0.21641 0.0
O24 O 0.33885 0.46001 0.14899 0.0
O25 O 0.37649 0.48253 0.11413 0.0
O26 O 0.36347 0.49655 0.25157 0.0
O27 O 0.37938 0.50748 0.19202 0.0
Co28 Co 0.88501 0.33251 0.21106 0.0
O29 O 0.84758 0.3097 0.20736 0.0
O30 O 0.87501 0.29813 0.23203 0.0
C31 C 0.88346 0.36746 0.2354 0.0
O32 O 0.92441 0.35098 0.22276 0.0
Co33 Co 0.91396 0.3842 0.16304 0.0
O34 O 0.94501 0.39088 0.19445 0.0
C35 C 0.89373 0.33337 0.12311 0.0
C36 C 0.85095 0.29184 0.22407 0.0
C37 C 0.94502 0.37346 0.21654 0.0
O38 O 0.88968 0.32151 0.15638 0.0
O39 O 0.90092 0.35764 0.1198 0.0
O40 O 0.88042 0.34862 0.25856 0.0
O41 O 0.88512 0.36353 0.19846 0.0
Co42 Co 0.54566 0.87849 0.19882 0.0
O43 O 0.52625 0.84089 0.20195 0.0
O44 O 0.56744 0.86537 0.22092 0.0
C45 C 0.51325 0.88397 0.22477 0.0
O46 O 0.5714 0.91809 0.20258 0.0
Co47 Co 0.5255 0.90795 0.14676 0.0
O48 O 0.55429 0.93976 0.17121 0.0
C49 C 0.55027 0.88061 0.10954 0.0
C50 C 0.54686 0.84213 0.21771 0.0
C51 C 0.57198 0.93944 0.19226 0.0
O52 O 0.55736 0.87639 0.14331 0.0
O53 O 0.53586 0.89094 0.10512 0.0
O54 O 0.52911 0.88071 0.24744 0.0
O55 O 0.51625 0.88194 0.18758 0.0
Co56 Co 0.68205 0.54797 0.20039 0.0
O57 O 0.70332 0.53154 0.19905 0.0
O58 O 0.71647 0.57131 0.22216 0.0
C59 C 0.64556 0.51284 0.22441 0.0
O60 O 0.66549 0.57085 0.21025 0.0
Co61 Co 0.63167 0.52814 0.15052 0.0
O62 O 0.62553 0.55266 0.18229 0.0
C63 C 0.68331 0.55636 0.11202 0.0
C64 C 0.72169 0.55268 0.2155 0.0
C65 C 0.64337 0.56981 0.20424 0.0
O66 O 0.69482 0.56268 0.14571 0.0
O67 O 0.65861 0.54121 0.10776 0.0
O68 O 0.66451 0.52834 0.24776 0.0
O69 O 0.65007 0.51781 0.18732 0.0
Co70 Co 0.14024 0.67414 0.19087 0.0
O71 O 0.17754 0.69851 0.18801 0.0
O72 O 0.14865 0.70697 0.21596 0.0
C73 C 0.14356 0.63908 0.20949 0.0
O74 O 0.10097 0.65398 0.20324 0.0
Co75 Co 0.11185 0.62397 0.13905 0.0
O76 O 0.08123 0.61454 0.17346 0.0
C77 C 0.13063 0.67606 0.10386 0.0
C78 C 0.17299 0.71479 0.20748 0.0
C79 C 0.0809 0.63115 0.19705 0.0
O80 O 0.13476 0.68689 0.13808 0.0
O81 O 0.12393 0.65206 0.0984 0.0
O82 O 0.14587 0.65637 0.23539 0.0
O83 O 0.14131 0.64452 0.17355 0.0
Co84 Co 0.87897 0.5345 0.30023 0.0
O85 O 0.84139 0.51706 0.30449 0.0
O86 O 0.86589 0.55608 0.27763 0.0
C87 C 0.88042 0.49913 0.27763 0.0
O88 O 0.91811 0.55777 0.28796 0.0
Co89 Co 0.91102 0.51623 0.35008 0.0
O90 O 0.94067 0.54062 0.3164 0.0
C91 C 0.88932 0.54638 0.38758 0.0
C92 C 0.84258 0.53694 0.28632 0.0
C93 C 0.93949 0.55725 0.29389 0.0
O94 O 0.8828 0.55127 0.35385 0.0
O95 O 0.8988 0.53125 0.39237 0.0
O96 O 0.87583 0.51357 0.25382 0.0
O97 O 0.88177 0.50517 0.31439 0.0
Co98 Co 0.34194 0.87648 0.30191 0.0
O99 O 0.32316 0.83894 0.30707 0.0
O100 O 0.3065 0.86175 0.28111 0.0
C101 C 0.3789 0.87927 0.27669 0.0
O102 O 0.35616 0.91523 0.28895 0.0
Co103 Co 0.39356 0.91044 0.34867 0.0
O104 O 0.39608 0.93953 0.31655 0.0
C105 C 0.34259 0.889 0.38914 0.0
C106 C 0.30364 0.83893 0.28948 0.0
C107 C 0.37743 0.93724 0.29486 0.0
O108 O 0.33009 0.88059 0.35639 0.0
O109 O 0.36747 0.89949 0.39234 0.0
O110 O 0.3589 0.87358 0.25431 0.0
O111 O 0.37515 0.8808 0.31378 0.0
Co112 Co 0.47825 0.34382 0.29804 0.0
O113 O 0.49323 0.32136 0.29412 0.0
O114 O 0.45256 0.30977 0.27739 0.0
C115 C 0.51296 0.37961 0.27141 0.0
O116 O 0.45632 0.36196 0.29486 0.0
Co117 Co 0.50392 0.39441 0.34897 0.0
O118 O 0.47898 0.40219 0.32157 0.0
C119 C 0.47677 0.34261 0.38711 0.0
C120 C 0.47081 0.30358 0.28006 0.0
C121 C 0.45949 0.38487 0.30214 0.0
O122 O 0.46669 0.33139 0.35405 0.0
O123 O 0.49369 0.36697 0.39046 0.0
O124 O 0.49564 0.36127 0.24888 0.0
O125 O 0.50981 0.37476 0.30858 0.0
Co126 Co 0.14809 0.47865 0.314 0.0
O127 O 0.18592 0.49794 0.31634 0.0
O128 O 0.16244 0.45921 0.28806 0.0
C129 C 0.14399 0.51338 0.29602 0.0
O130 O 0.10916 0.45347 0.30221 0.0
Co131 Co 0.11294 0.49133 0.36684 0.0
O132 O 0.08363 0.46604 0.33369 0.0
C133 C 0.14022 0.4655 0.40089 0.0
C134 C 0.18544 0.47889 0.29647 0.0
C135 C 0.08666 0.45132 0.30943 0.0
O136 O 0.14684 0.46163 0.36648 0.0
O137 O 0.12854 0.47851 0.40702 0.0
O138 O 0.14908 0.50039 0.26992 0.0
O139 O 0.14308 0.50601 0.33196 0.0
Co140 Co 0.6756 0.1326 0.30653 0.0
O141 O 0.69517 0.17019 0.30796 0.0
O142 O 0.71097 0.14557 0.286 0.0
C143 C 0.63904 0.12997 0.2798 0.0
O144 O 0.66026 0.09307 0.2985 0.0
Co145 Co 0.62433 0.10285 0.35553 0.0
O146 O 0.62093 0.0715 0.3288 0.0
C147 C 0.67555 0.12468 0.39518 0.0
C148 C 0.71449 0.16894 0.292 0.0
C149 C 0.63892 0.07183 0.30757 0.0
O150 O 0.6876 0.13079 0.36188 0.0
O151 O 0.65083 0.11532 0.39884 0.0
O152 O 0.65862 0.13371 0.25774 0.0
O153 O 0.64301 0.13012 0.31714 0.0
Co154 Co 0.55143 0.67935 0.30692 0.0
O155 O 0.53709 0.70236 0.31186 0.0
O156 O 0.57635 0.71408 0.28784 0.0
C157 C 0.51502 0.64524 0.28052 0.0
O158 O 0.57239 0.66122 0.2937 0.0
Co159 Co 0.52796 0.62607 0.35072 0.0
O160 O 0.55255 0.62027 0.31829 0.0
C161 C 0.55869 0.67544 0.39458 0.0
C162 C 0.55862 0.72038 0.29577 0.0
C163 C 0.57039 0.63856 0.29775 0.0
O164 O 0.56641 0.68866 0.36231 0.0
O165 O 0.5418 0.65099 0.39601 0.0
O166 O 0.53128 0.66466 0.25855 0.0
O167 O 0.52015 0.64802 0.31765 0.0
Co168 Co 0.54528 0.87888 0.80513 0.0
O169 O 0.53073 0.84127 0.80887 0.0
O170 O 0.56789 0.8684 0.77895 0.0
C171 C 0.5071 0.87715 0.78885 0.0
O172 O 0.56597 0.91811 0.79165 0.0
Co173 Co 0.52728 0.91022 0.85758 0.0
O174 O 0.5503 0.94067 0.82418 0.0
C175 C 0.55867 0.88879 0.89149 0.0
C176 C 0.55087 0.84448 0.78866 0.0
C177 C 0.5657 0.93945 0.79908 0.0
O178 O 0.56447 0.88402 0.85701 0.0
O179 O 0.54238 0.89675 0.89755 0.0
O180 O 0.5209 0.87373 0.76205 0.0
O181 O 0.51586 0.87976 0.8242 0.0
Co182 Co 0.68434 0.55085 0.80703 0.0
O183 O 0.70727 0.53613 0.81078 0.0
O184 O 0.71771 0.57341 0.78128 0.0
C185 C 0.64783 0.51288 0.78987 0.0
O186 O 0.66591 0.5717 0.79385 0.0
Co187 Co 0.63445 0.5322 0.85893 0.0
O188 O 0.62754 0.55581 0.82622 0.0
C189 C 0.68712 0.56421 0.89351 0.0
C190 C 0.72438 0.55619 0.79074 0.0
C191 C 0.64432 0.57147 0.80152 0.0
O192 O 0.69807 0.56977 0.85927 0.0
O193 O 0.66282 0.54786 0.89919 0.0
O194 O 0.66525 0.52681 0.76341 0.0
O195 O 0.65383 0.52135 0.82538 0.0
Co196 Co 0.13942 0.67094 0.79659 0.0
O197 O 0.17722 0.68894 0.79515 0.0
O198 O 0.15357 0.70579 0.77341 0.0
C199 C 0.13406 0.63252 0.77303 0.0
O200 O 0.09972 0.65722 0.79072 0.0
Co201 Co 0.10828 0.62185 0.84952 0.0
O202 O 0.07715 0.61866 0.82262 0.0
C203 C 0.13529 0.67446 0.88543 0.0
C204 C 0.17667 0.70839 0.77846 0.0
C205 C 0.07801 0.63652 0.80062 0.0
O206 O 0.14063 0.68544 0.85132 0.0
O207 O 0.12436 0.64972 0.89062 0.0
O208 O 0.13799 0.65135 0.74919 0.0
O209 O 0.13531 0.63813 0.80991 0.0
Co210 Co 0.47567 0.14157 0.80573 0.0
O211 O 0.49113 0.17941 0.80839 0.0
O212 O 0.45358 0.15252 0.77928 0.0
C213 C 0.51334 0.1421 0.78977 0.0
O214 O 0.45388 0.10218 0.79285 0.0
Co215 Co 0.49211 0.109 0.85795 0.0
O216 O 0.46893 0.07882 0.82433 0.0
C217 C 0.46226 0.13223 0.89222 0.0
C218 C 0.47103 0.17642 0.78835 0.0
C219 C 0.45361 0.08051 0.7997 0.0
O220 O 0.45718 0.13791 0.8579 0.0
O221 O 0.47729 0.12273 0.89796 0.0
O222 O 0.49975 0.14559 0.76271 0.0
O223 O 0.50456 0.13983 0.82505 0.0
Co224 Co 0.3438 0.46368 0.80568 0.0
O225 O 0.32104 0.4785 0.80385 0.0
O226 O 0.30907 0.43802 0.78624 0.0
C227 C 0.37895 0.49861 0.77793 0.0
O228 O 0.36236 0.44198 0.80075 0.0
Co229 Co 0.39573 0.49025 0.85413 0.0
O230 O 0.40234 0.46388 0.82899 0.0
C231 C 0.34482 0.46193 0.89494 0.0
C232 C 0.30287 0.45622 0.79007 0.0
C233 C 0.38498 0.44465 0.80922 0.0
O234 O 0.33267 0.45223 0.86225 0.0
O235 O 0.36924 0.47888 0.89721 0.0
O236 O 0.36025 0.4812 0.75596 0.0
O237 O 0.37481 0.49535 0.81522 0.0
Co238 Co 0.88372 0.34343 0.81752 0.0
O239 O 0.84589 0.32589 0.81599 0.0
O240 O 0.86924 0.30973 0.79041 0.0
C241 C 0.88952 0.38305 0.79943 0.0
O242 O 0.92333 0.35683 0.81092 0.0
Co243 Co 0.9157 0.39027 0.87452 0.0
O244 O 0.94659 0.39384 0.8463 0.0
C245 C 0.88741 0.33621 0.90525 0.0
C246 C 0.84624 0.30716 0.79652 0.0
C247 C 0.9453 0.37673 0.82213 0.0
O248 O 0.88216 0.32648 0.87024 0.0
O249 O 0.89862 0.36073 0.91267 0.0
O250 O 0.88549 0.36545 0.77303 0.0
O251 O 0.88831 0.37562 0.83533 0.0
Co252 Co 0.13927 0.46607 0.70784 0.0
O253 O 0.17702 0.48468 0.70671 0.0
O254 O 0.15306 0.44465 0.72998 0.0
C255 C 0.1359 0.50017 0.7322 0.0
O256 O 0.09949 0.44152 0.71561 0.0
Co257 Co 0.10935 0.48644 0.65629 0.0
O258 O 0.07802 0.45865 0.68339 0.0
C259 C 0.13395 0.45892 0.61918 0.0
C260 C 0.17632 0.46465 0.72348 0.0
C261 C 0.0782 0.44136 0.70563 0.0
O262 O 0.138 0.45172 0.65297 0.0
O263 O 0.12523 0.47472 0.61473 0.0
O264 O 0.13994 0.48516 0.75562 0.0
O265 O 0.13624 0.49542 0.69531 0.0
Co266 Co 0.67991 0.14227 0.69988 0.0
O267 O 0.70344 0.17997 0.69843 0.0
O268 O 0.71255 0.1518 0.72671 0.0
C269 C 0.64333 0.14386 0.71583 0.0
O270 O 0.66092 0.10269 0.71134 0.0
Co271 Co 0.63095 0.11186 0.64626 0.0
O272 O 0.6225 0.081 0.6791 0.0
C273 C 0.68426 0.13399 0.6131 0.0
C274 C 0.71997 0.17601 0.71832 0.0
C275 C 0.63901 0.08163 0.70379 0.0
O276 O 0.6947 0.13865 0.64765 0.0
O277 O 0.65991 0.12553 0.60691 0.0
O278 O 0.66003 0.14648 0.74303 0.0
O279 O 0.64998 0.14192 0.68048 0.0
Co280 Co 0.54155 0.67207 0.70477 0.0
O281 O 0.52159 0.6899 0.70223 0.0
O282 O 0.5617 0.70742 0.72622 0.0
C283 C 0.50839 0.63415 0.72921 0.0
O284 O 0.56759 0.65913 0.71575 0.0
Co285 Co 0.52621 0.62176 0.65647 0.0
O286 O 0.55277 0.61929 0.68856 0.0
C287 C 0.55148 0.673 0.61659 0.0
C288 C 0.54127 0.70976 0.71907 0.0
C289 C 0.56894 0.63814 0.71011 0.0
O290 O 0.55588 0.68505 0.64983 0.0
O291 O 0.53857 0.64807 0.61309 0.0
O292 O 0.52255 0.65385 0.75227 0.0
O293 O 0.5134 0.63855 0.69214 0.0
Co294 Co 0.88295 0.5421 0.69362 0.0
O295 O 0.84511 0.52286 0.69684 0.0
O296 O 0.86993 0.56302 0.71941 0.0
C297 C 0.88803 0.50816 0.71359 0.0
O298 O 0.92285 0.56763 0.69819 0.0
Co299 Co 0.91309 0.52421 0.63753 0.0
O300 O 0.94477 0.5519 0.66377 0.0
C301 C 0.88446 0.54919 0.60519 0.0
C302 C 0.84651 0.54293 0.71481 0.0
C303 C 0.94435 0.56871 0.68685 0.0
O304 O 0.88087 0.55595 0.63974 0.0
O305 O 0.8947 0.53485 0.59899 0.0
O306 O 0.88487 0.52267 0.73937 0.0
O307 O 0.88639 0.51361 0.67748 0.0
Co308 Co 0.34219 0.87853 0.69481 0.0
O309 O 0.31968 0.84074 0.69193 0.0
O310 O 0.30897 0.86763 0.72083 0.0
C311 C 0.3792 0.878 0.71141 0.0
O312 O 0.36001 0.91794 0.70758 0.0
Co313 Co 0.39128 0.91068 0.64237 0.0
O314 O 0.39858 0.94091 0.67604 0.0
C315 C 0.33824 0.88727 0.60807 0.0
C316 C 0.30241 0.84374 0.71157 0.0
C317 C 0.38165 0.93946 0.70069 0.0
O318 O 0.32757 0.88208 0.64248 0.0
O319 O 0.36277 0.89662 0.60222 0.0
O320 O 0.36193 0.87453 0.73818 0.0
O321 O 0.3729 0.88013 0.67593 0.0
Co322 Co 0.48276 0.34787 0.69252 0.0
O323 O 0.50119 0.32848 0.691 0.0
O324 O 0.46261 0.31414 0.71911 0.0
C325 C 0.51865 0.38639 0.71003 0.0
O326 O 0.45838 0.36304 0.70235 0.0
Co327 Co 0.49893 0.39604 0.63782 0.0
O328 O 0.47232 0.40018 0.6674 0.0
C329 C 0.47056 0.34239 0.60536 0.0
C330 C 0.48203 0.31028 0.71111 0.0
C331 C 0.45674 0.38327 0.69202 0.0
O332 O 0.46533 0.33215 0.64004 0.0
O333 O 0.48554 0.36685 0.5988 0.0
O334 O 0.50508 0.36891 0.73655 0.0
O335 O 0.51104 0.37945 0.67439 0.0
H336 H 0.41783 0.0304 0.17666 0.0
H337 H 0.44009 0.07464 0.28458 0.0
H338 H 0.41628 0.03404 0.32252 0.0
H339 H 0.39508 0.98578 0.32466 0.0
H340 H 0.37106 0.94159 0.21673 0.0
H341 H 0.38917 0.98231 0.17887 0.0
C342 C 0.41678 0.0311 0.20844 0.0
C343 C 0.43076 0.05532 0.22796 0.0
C344 C 0.40298 1.00772 0.22992 0.0
C345 C 0.4293 0.05618 0.26905 0.0
C346 C 0.41591 0.03297 0.2907 0.0
C347 C 0.39319 0.98514 0.2929 0.0
C348 C 0.38199 0.96086 0.27335 0.0
C349 C 0.40353 0.0086 0.27146 0.0
C350 C 0.37948 0.96009 0.2323 0.0
C351 C 0.39005 0.98336 0.21068 0.0
H352 H 0.45181 0.42428 0.32671 0.0
H353 H 0.42518 0.36246 0.24045 0.0
H354 H 0.39922 0.37905 0.20819 0.0
H355 H 0.38791 0.41422 0.20058 0.0
H356 H 0.41602 0.47628 0.28632 0.0
H357 H 0.43738 0.45646 0.32292 0.0
C358 C 0.44012 0.41421 0.30109 0.0
C359 C 0.44072 0.39231 0.28581 0.0
C360 C 0.42552 0.424 0.28254 0.0
C361 C 0.42512 0.37935 0.25288 0.0
C362 C 0.41037 0.38892 0.23428 0.0
C363 C 0.39819 0.42291 0.22781 0.0
C364 C 0.4003 0.44647 0.24115 0.0
C365 C 0.41091 0.41162 0.24828 0.0
C366 C 0.41403 0.45798 0.27594 0.0
C367 C 0.42634 0.44675 0.29667 0.0
H368 H 0.99467 0.39684 0.1879 0.0
H369 H 0.94976 0.36702 0.29445 0.0
H370 H 0.99024 0.38689 0.33323 0.0
H371 H 0.03808 0.41726 0.33707 0.0
H372 H 0.08326 0.44449 0.23032 0.0
H373 H 0.04313 0.42085 0.19117 0.0
C374 C 0.99387 0.39425 0.21954 0.0
C375 C 0.96937 0.3807 0.23844 0.0
C376 C 0.01723 0.4054 0.24151 0.0
C377 C 0.96845 0.37726 0.27934 0.0
C378 C 0.99156 0.38878 0.3015 0.0
C379 C 0.03911 0.41746 0.30522 0.0
C380 C 0.06346 0.43266 0.28648 0.0
C381 C 0.01601 0.40354 0.28299 0.0
C382 C 0.06471 0.43276 0.24528 0.0
C383 C 0.04176 0.41943 0.22294 0.0
H384 H 0.58859 0.95268 0.26746 0.0
H385 H 0.60069 0.98372 0.14995 0.0
H386 H 0.62731 0.02829 0.17533 0.0
H387 H 0.64091 0.05872 0.23165 0.0
H388 H 0.62411 0.0276 0.34924 0.0
H389 H 0.60608 0.98309 0.32361 0.0
C390 C 0.59782 0.96919 0.24747 0.0
C391 C 0.59289 0.96502 0.20697 0.0
C392 C 0.612 0.99488 0.26248 0.0
C393 C 0.60437 0.98655 0.18128 0.0
C394 C 0.61944 0.01204 0.1958 0.0
C395 C 0.63405 0.04221 0.25154 0.0
C396 C 0.63393 0.04631 0.29218 0.0
C397 C 0.62253 0.01653 0.23645 0.0
C398 C 0.62443 0.02479 0.3178 0.0
C399 C 0.614 0.99935 0.30315 0.0
H400 H 0.60189 0.62092 0.32555 0.0
H401 H 0.57723 0.64163 0.21894 0.0
H402 H 0.59956 0.62378 0.17962 0.0
H403 H 0.62196 0.59788 0.176 0.0
H404 H 0.64961 0.58022 0.2824 0.0
H405 H 0.63072 0.60163 0.32153 0.0
C406 C 0.60196 0.62198 0.29372 0.0
C407 C 0.58792 0.63238 0.27499 0.0
C408 C 0.61526 0.61214 0.27139 0.0
C409 C 0.5881 0.63382 0.23382 0.0
C410 C 0.6007 0.62347 0.21139 0.0
C411 C 0.62433 0.5993 0.20769 0.0
C412 C 0.63699 0.58744 0.22642 0.0
C413 C 0.61376 0.61197 0.22987 0.0
C414 C 0.64009 0.58941 0.26742 0.0
C415 C 0.6291 0.60144 0.28978 0.0
H416 H 0.03198 0.61928 0.1737 0.0
H417 H 0.07738 0.62266 0.27502 0.0
H418 H 0.03753 0.6014 0.31513 0.0
H419 H 0.98949 0.57848 0.31973 0.0
H420 H 0.9438 0.577 0.21981 0.0
H421 H 0.984 0.60145 0.18094 0.0
C422 C 0.03305 0.61578 0.20476 0.0
C423 C 0.05739 0.62244 0.22162 0.0
C424 C 1.01006 0.60388 0.22774 0.0
C425 C 0.05878 0.61786 0.26174 0.0
C426 C 0.03602 0.60559 0.28455 0.0
C427 C 0.98837 0.58384 0.28959 0.0
C428 C 0.96372 0.57569 0.27249 0.0
C429 C 1.01151 0.59803 0.26765 0.0
C430 C 0.96256 0.58307 0.23362 0.0
C431 C 0.98552 0.59688 0.21132 0.0
H432 H 0.59681 0.98907 0.8261 0.0
H433 H 0.57162 0.94322 0.71976 0.0
H434 H 0.59335 0.9833 0.68025 0.0
H435 H 0.6161 0.03166 0.6763 0.0
H436 H 0.64445 0.07742 0.78241 0.0
H437 H 0.6253 0.03724 0.82173 0.0
C438 C 0.59652 0.98792 0.79426 0.0
C439 C 0.58252 0.9633 0.77578 0.0
C440 C 0.60952 0.01103 0.77178 0.0
C441 C 0.5824 0.96196 0.73457 0.0
C442 C 0.59467 0.98488 0.71201 0.0
C443 C 0.61845 0.03276 0.70799 0.0
C444 C 0.63149 0.05744 0.72651 0.0
C445 C 0.6078 0.00955 0.73031 0.0
C446 C 0.63461 0.05865 0.76752 0.0
C447 C 0.6235 0.03568 0.79 0.0
H448 H 0.62482 0.60139 0.82988 0.0
H449 H 0.64758 0.57925 0.72252 0.0
H450 H 0.62833 0.60048 0.68396 0.0
H451 H 0.60022 0.62055 0.68111 0.0
H452 H 0.57996 0.64529 0.78827 0.0
H453 H 0.60342 0.62834 0.8267 0.0
C454 C 0.62602 0.60174 0.79805 0.0
C455 C 0.63738 0.58861 0.77898 0.0
C456 C 0.61527 0.61436 0.77613 0.0
C457 C 0.63903 0.58932 0.73779 0.0
C458 C 0.62787 0.60131 0.71577 0.0
C459 C 0.60159 0.62284 0.71282 0.0
C460 C 0.58834 0.63406 0.73192 0.0
C461 C 0.61529 0.61323 0.73462 0.0
C462 C 0.59022 0.63696 0.77295 0.0
C463 C 0.6034 0.62702 0.79492 0.0
H464 H 0.95831 0.58593 0.76229 0.0
H465 H 0.98863 0.59698 0.64429 0.0
H466 H 0.03339 0.62363 0.66882 0.0
H467 H 0.06433 0.63779 0.72456 0.0
H468 H 0.03406 0.62297 0.84274 0.0
H469 H 0.98931 0.60444 0.81785 0.0
C470 C 0.97469 0.59489 0.74198 0.0
C471 C 0.97017 0.58955 0.70156 0.0
C472 C 1.00058 0.60936 0.7565 0.0
C473 C 0.99164 0.60083 0.67557 0.0
C474 C 0.01727 0.61599 0.68959 0.0
C475 C 0.04798 0.63132 0.74475 0.0
C476 C 0.05247 0.6319 0.78539 0.0
C477 C 0.0221 0.61956 0.73011 0.0
C478 C 0.03105 0.62283 0.8113 0.0
C479 C 1.00542 0.61206 0.79707 0.0
H480 H 0.42352 0.03047 0.82573 0.0
H481 H 0.44578 0.07752 0.72067 0.0
H482 H 0.42395 0.03784 0.68019 0.0
H483 H 0.40239 0.98957 0.67472 0.0
H484 H 0.37705 0.94254 0.77979 0.0
H485 H 0.39585 0.98226 0.8203 0.0
C486 C 0.42312 0.03198 0.79399 0.0
C487 C 0.43637 0.05685 0.77613 0.0
C488 C 0.41011 0.00906 0.77097 0.0
C489 C 0.43559 0.0586 0.73505 0.0
C490 C 0.42327 0.03591 0.71191 0.0
C491 C 0.40055 0.98808 0.70648 0.0
C492 C 0.38849 0.96319 0.72431 0.0
C493 C 0.41102 0.01102 0.72952 0.0
C494 C 0.38608 0.96147 0.76542 0.0
C495 C 0.39702 0.98418 0.78858 0.0
H496 H 0.38189 0.42704 0.73433 0.0
H497 H 0.4064 0.42106 0.8512 0.0
H498 H 0.4276 0.39742 0.82588 0.0
H499 H 0.44452 0.38393 0.76929 0.0
H500 H 0.42389 0.39435 0.65196 0.0
H501 H 0.39577 0.41026 0.67823 0.0
C502 C 0.39119 0.41982 0.75426 0.0
C503 C 0.39238 0.42554 0.79458 0.0
C504 C 0.40442 0.40727 0.7392 0.0
C505 C 0.40511 0.41671 0.82005 0.0
C506 C 0.41737 0.40333 0.80555 0.0
C507 C 0.43327 0.38902 0.74965 0.0
C508 C 0.43613 0.38784 0.7088 0.0
C509 C 0.41795 0.39926 0.76501 0.0
C510 C 0.42192 0.39505 0.68355 0.0
C511 C 0.40591 0.40426 0.69855 0.0
H512 H 0.06459 0.42487 0.78135 0.0
H513 H 0.0335 0.41364 0.6639 0.0
H514 H 0.9888 0.38817 0.68927 0.0
H515 H 0.95831 0.37507 0.74558 0.0
H516 H 0.98954 0.39001 0.8632 0.0
H517 H 0.03395 0.40744 0.83747 0.0
C518 C 0.04803 0.4161 0.76135 0.0
C519 C 0.05232 0.42103 0.72084 0.0
C520 C 0.02221 0.40235 0.77635 0.0
C521 C 0.03065 0.41004 0.69524 0.0
C522 C 1.00506 0.39559 0.70975 0.0
C523 C 0.97479 0.38138 0.76548 0.0
C524 C 0.97066 0.38118 0.8062 0.0
C525 C 1.00051 0.39244 0.75036 0.0
C526 C 0.99225 0.38995 0.8317 0.0
C527 C 0.01769 0.40006 0.81699 0.0
H528 H 0.43761 0.18736 0.22952 0.0
H529 H 0.52122 0.22462 0.21095 0.0
H530 H 0.52662 0.26641 0.2323 0.0
H531 H 0.50811 0.29253 0.25733 0.0
H532 H 0.4245 0.2571 0.27234 0.0
H533 H 0.41857 0.21462 0.25136 0.0
C534 C 0.45695 0.20468 0.23 0.0
C535 C 0.47897 0.20277 0.21871 0.0
C536 C 0.45996 0.22901 0.24183 0.0
C537 C 0.5039 0.22545 0.21927 0.0
C538 C 0.50707 0.24942 0.23165 0.0
C539 C 0.48858 0.2755 0.25609 0.0
C540 C 0.46681 0.27788 0.26674 0.0
C541 C 0.48531 0.25141 0.24321 0.0
C542 C 0.44159 0.25574 0.26435 0.0
C543 C 0.4382 0.23145 0.2524 0.0
H544 H 0.19361 0.43884 0.27417 0.0
H545 H 0.23251 0.52291 0.2863 0.0
H546 H 0.27297 0.52692 0.2604 0.0
H547 H 0.29757 0.50681 0.23466 0.0
H548 H 0.26067 0.42274 0.22747 0.0
H549 H 0.21921 0.41839 0.25083 0.0
C550 C 0.21098 0.45799 0.27115 0.0
C551 C 0.21001 0.48055 0.28208 0.0
C552 C 0.23451 0.46015 0.25696 0.0
C553 C 0.23274 0.50523 0.27833 0.0
C554 C 0.25588 0.50757 0.26335 0.0
C555 C 0.28038 0.48752 0.23789 0.0
C556 C 0.28205 0.46513 0.22887 0.0
C557 C 0.257 0.4852 0.25253 0.0
C558 C 0.25981 0.44027 0.23404 0.0
C559 C 0.23614 0.43779 0.24744 0.0
H560 H 0.76431 0.17749 0.27777 0.0
H561 H 0.71759 0.21517 0.27611 0.0
H562 H 0.7551 0.25567 0.25335 0.0
H563 H 0.80112 0.28089 0.2346 0.0
H564 H 0.84981 0.2456 0.24025 0.0
H565 H 0.8118 0.20386 0.2606 0.0
C566 C 0.76244 0.1946 0.27237 0.0
C567 C 0.73814 0.19324 0.27867 0.0
C568 C 0.78445 0.2183 0.25994 0.0
C569 C 0.73606 0.21564 0.27181 0.0
C570 C 0.7575 0.23887 0.25863 0.0
C571 C 0.80343 0.26403 0.24003 0.0
C572 C 0.82819 0.26627 0.23558 0.0
C573 C 0.78176 0.24046 0.25266 0.0
C574 C 0.83091 0.24435 0.24338 0.0
C575 C 0.80918 0.22049 0.25503 0.0
H576 H 0.58763 0.83354 0.23508 0.0
H577 H 0.50318 0.79661 0.23597 0.0
H578 H 0.49961 0.7567 0.26251 0.0
H579 H 0.51997 0.73163 0.2842 0.0
H580 H 0.60401 0.76626 0.27933 0.0
H581 H 0.60827 0.80757 0.25599 0.0
C582 C 0.5685 0.81674 0.24116 0.0
C583 C 0.54572 0.81812 0.23346 0.0
C584 C 0.56648 0.7934 0.25585 0.0
C585 C 0.52105 0.79611 0.24129 0.0
C586 C 0.51894 0.77323 0.25666 0.0
C587 C 0.53926 0.74829 0.27843 0.0
C588 C 0.56165 0.74595 0.28386 0.0
C589 C 0.54147 0.7716 0.26393 0.0
C590 C 0.58646 0.76759 0.27553 0.0
C591 C 0.58889 0.7912 0.2621 0.0
H592 H 0.73046 0.5129 0.23133 0.0
H593 H 0.76909 0.59718 0.22771 0.0
H594 H 0.81039 0.60013 0.24842 0.0
H595 H 0.83548 0.57834 0.268 0.0
H596 H 0.79492 0.494 0.27602 0.0
H597 H 0.75455 0.49149 0.25332 0.0
C598 C 0.74795 0.53192 0.23488 0.0
C599 C 0.74681 0.55477 0.22764 0.0
C600 C 0.77131 0.53344 0.24779 0.0
C601 C 0.76951 0.57929 0.23303 0.0
C602 C 0.79311 0.58097 0.24486 0.0
C603 C 0.81777 0.55948 0.26479 0.0
C604 C 0.81825 0.5364 0.27366 0.0
C605 C 0.79426 0.55814 0.25242 0.0
C606 C 0.79509 0.51208 0.26966 0.0
C607 C 0.77197 0.51058 0.25651 0.0
H608 H 0.22197 0.72613 0.22692 0.0
H609 H 0.17231 0.76026 0.22074 0.0
H610 H 0.20829 0.80209 0.24517 0.0
H611 H 0.25435 0.82902 0.26846 0.0
H612 H 0.30191 0.79261 0.27959 0.0
H613 H 0.2664 0.75177 0.25348 0.0
C614 C 0.21909 0.74279 0.2307 0.0
C615 C 0.19468 0.74027 0.22155 0.0
C616 C 0.23951 0.76638 0.24598 0.0
C617 C 0.19101 0.76181 0.22741 0.0
C618 C 0.21157 0.7857 0.24141 0.0
C619 C 0.25682 0.81208 0.26531 0.0
C620 C 0.28082 0.81395 0.27595 0.0
C621 C 0.23596 0.78824 0.25089 0.0
C622 C 0.28365 0.79175 0.27191 0.0
C623 C 0.26337 0.76835 0.25676 0.0
H624 H 0.58115 0.75994 0.73394 0.0
H625 H 0.49685 0.71147 0.73295 0.0
H626 H 0.49241 0.74823 0.75596 0.0
H627 H 0.51222 0.79426 0.77641 0.0
H628 H 0.5962 0.84419 0.77234 0.0
H629 H 0.60104 0.80702 0.75148 0.0
C630 C 0.56185 0.75749 0.73874 0.0
C631 C 0.53938 0.73291 0.7318 0.0
C632 C 0.55936 0.77903 0.7512 0.0
C633 C 0.51449 0.73015 0.73784 0.0
C634 C 0.5119 0.75117 0.75116 0.0
C635 C 0.53159 0.79697 0.77113 0.0
C636 C 0.55382 0.8219 0.7763 0.0
C637 C 0.53416 0.77569 0.758 0.0
C638 C 0.57876 0.82519 0.76865 0.0
C639 C 0.58154 0.80392 0.75672 0.0
H640 H 0.73562 0.51712 0.78118 0.0
H641 H 0.76986 0.60075 0.77044 0.0
H642 H 0.81116 0.60454 0.74776 0.0
H643 H 0.83748 0.58371 0.72957 0.0
H644 H 0.80118 0.49958 0.73546 0.0
H645 H 0.76105 0.49638 0.76128 0.0
C646 C 0.75218 0.5362 0.77412 0.0
C647 C 0.74969 0.55864 0.77784 0.0
C648 C 0.77559 0.53813 0.76001 0.0
C649 C 0.77123 0.58316 0.76791 0.0
C650 C 0.79488 0.58533 0.75493 0.0
C651 C 0.82079 0.56473 0.73665 0.0
C652 C 0.82243 0.54193 0.73065 0.0
C653 C 0.7973 0.56292 0.75065 0.0
C654 C 0.80049 0.51745 0.73959 0.0
C655 C 0.77749 0.51558 0.75448 0.0
H656 H 0.28978 0.79284 0.71894 0.0
H657 H 0.25736 0.84374 0.7313 0.0
H658 H 0.21516 0.80647 0.75137 0.0
H659 H 0.1874 0.75903 0.76656 0.0
H660 H 0.22168 0.70945 0.75878 0.0
H661 H 0.26287 0.74629 0.73589 0.0
C662 C 0.27344 0.79576 0.72584 0.0
C663 C 0.27671 0.82103 0.72336 0.0
C664 C 0.24944 0.77436 0.73835 0.0
C665 C 0.25541 0.8245 0.73297 0.0
C666 C 0.23123 0.80317 0.74442 0.0
C667 C 0.20389 0.75635 0.75971 0.0
C668 C 0.20136 0.73144 0.76432 0.0
C669 C 0.22799 0.77795 0.74738 0.0
C670 C 0.22304 0.72838 0.7557 0.0
C671 C 0.24666 0.74946 0.74249 0.0
H672 H 0.44178 0.26103 0.73019 0.0
H673 H 0.52613 0.30824 0.72575 0.0
H674 H 0.53024 0.27183 0.75114 0.0
H675 H 0.51012 0.22623 0.77396 0.0
H676 H 0.42598 0.17735 0.773 0.0
H677 H 0.42152 0.21441 0.75064 0.0
C678 C 0.46102 0.26328 0.73486 0.0
C679 C 0.4836 0.28741 0.72614 0.0
C680 C 0.4633 0.24188 0.74859 0.0
C681 C 0.5084 0.28991 0.73199 0.0
C682 C 0.5108 0.26908 0.74666 0.0
C683 C 0.49081 0.22375 0.76908 0.0
C684 C 0.46841 0.19911 0.77549 0.0
C685 C 0.48843 0.24495 0.755 0.0
C686 C 0.44354 0.19611 0.76834 0.0
C687 C 0.44098 0.21733 0.75555 0.0
H688 H 0.18635 0.42437 0.73958 0.0
H689 H 0.22251 0.50863 0.73673 0.0
H690 H 0.26397 0.51324 0.75788 0.0
H691 H 0.29054 0.49396 0.77671 0.0
H692 H 0.2567 0.41008 0.77635 0.0
H693 H 0.2141 0.40473 0.75701 0.0
C694 C 0.20332 0.44368 0.74369 0.0
C695 C 0.20117 0.46611 0.73653 0.0
C696 C 0.22765 0.44632 0.75527 0.0
C697 C 0.22348 0.491 0.74174 0.0
C698 C 0.2473 0.49371 0.75397 0.0
C699 C 0.27385 0.47446 0.77257 0.0
C700 C 0.27683 0.45247 0.77827 0.0
C701 C 0.24967 0.47158 0.76074 0.0
C702 C 0.25499 0.42737 0.77221 0.0
C703 C 0.2306 0.42431 0.76118 0.0
H704 H 0.83479 0.2569 0.77904 0.0
H705 H 0.80187 0.3078 0.77831 0.0
H706 H 0.76069 0.27248 0.75231 0.0
H707 H 0.73338 0.2268 0.7307 0.0
H708 H 0.76435 0.1744 0.73641 0.0
H709 H 0.80661 0.2103 0.7593 0.0
C710 C 0.8186 0.26021 0.77304 0.0
C711 C 0.8215 0.28503 0.78055 0.0
C712 C 0.7945 0.23945 0.75896 0.0
C713 C 0.8002 0.2889 0.77301 0.0
C714 C 0.7766 0.2687 0.75802 0.0
C715 C 0.74943 0.22328 0.73675 0.0
C716 C 0.74574 0.19798 0.73156 0.0
C717 C 0.77344 0.24386 0.751 0.0
C718 C 0.76665 0.19368 0.74014 0.0
C719 C 0.79085 0.21424 0.75322 0.0
H720 H 0.47635 0.16681 0.06256 0.0
H721 H 0.42393 0.08394 0.07677 0.0
H722 H 0.41194 0.07981 0.00739 0.0
H723 H 0.42547 0.09769 0.94104 0.0
H724 H 0.47993 0.17987 0.92544 0.0
H725 H 0.48143 0.18674 0.99659 0.0
C726 C 0.4614 0.14817 0.05069 0.0
C727 C 0.45098 0.12568 0.07446 0.0
C728 C 0.45528 0.14581 0.01027 0.0
C729 C 0.43202 0.10148 0.05886 0.0
C730 C 0.42535 0.09908 0.01913 0.0
C731 C 0.43642 0.11732 0.95319 0.0
C732 C 0.45248 0.13825 0.92825 0.0
C733 C 0.43806 0.1208 0.99416 0.0
C734 C 0.46709 0.16355 0.94414 0.0
C735 C 0.46834 0.16737 0.98492 0.0
H736 H 0.34452 0.42742 0.94661 0.0
H737 H 0.31674 0.4816 0.92864 0.0
H738 H 0.3108 0.48349 0.9996 0.0
H739 H 0.32389 0.47783 0.06637 0.0
H740 H 0.35416 0.42559 0.08351 0.0
H741 H 0.34821 0.41419 0.0137 0.0
C742 C 0.33587 0.43852 0.95824 0.0
C743 C 0.3308 0.45414 0.93269 0.0
C744 C 0.33348 0.44021 0.99911 0.0
C745 C 0.32028 0.46906 0.94787 0.0
C746 C 0.31729 0.47044 0.98849 0.0
C747 C 0.32795 0.46303 0.05498 0.0
C748 C 0.33924 0.45236 0.07981 0.0
C749 C 0.32528 0.45728 0.01446 0.0
C750 C 0.34512 0.43372 0.06484 0.0
C751 C 0.34199 0.42744 0.02486 0.0
H752 H 0.91898 0.32702 0.95121 0.0
H753 H 0.83934 0.31015 0.93847 0.0
H754 H 0.83179 0.30098 0.00888 0.0
H755 H 0.85186 0.30987 0.07493 0.0
H756 H 0.93226 0.32908 0.08746 0.0
H757 H 0.93552 0.32457 0.01653 0.0
C758 C 0.89958 0.31988 0.96362 0.0
C759 C 0.87969 0.31913 0.93995 0.0
C760 C 0.89579 0.31565 0.00433 0.0
C761 C 0.85478 0.31046 0.95619 0.0
C762 C 0.85062 0.30565 0.99657 0.0
C763 C 0.86958 0.31164 0.06221 0.0
C764 C 0.89176 0.31964 0.0861 0.0
C765 C 0.87151 0.30988 0.02121 0.0
C766 C 0.91488 0.32255 0.06951 0.0
C767 C 0.91683 0.32032 0.0289 0.0
H768 H 0.59075 0.91203 0.06256 0.0
H769 H 0.52596 0.83333 0.0739 0.0
H770 H 0.52767 0.82605 0.00338 0.0
H771 H 0.54004 0.84627 0.93773 0.0
H772 H 0.60293 0.92592 0.92637 0.0
H773 H 0.61036 0.92855 0.99734 0.0
C774 C 0.57795 0.8929 0.04977 0.0
C775 C 0.55836 0.87316 0.07312 0.0
C776 C 0.57855 0.88924 0.00898 0.0
C777 C 0.54141 0.84862 0.05639 0.0
C778 C 0.5422 0.8446 0.01599 0.0
C779 C 0.55634 0.86363 0.95066 0.0
C780 C 0.57108 0.88581 0.92705 0.0
C781 C 0.55963 0.8653 0.99173 0.0
C782 C 0.59169 0.90849 0.94401 0.0
C783 C 0.59561 0.91012 0.9847 0.0
H784 H 0.68976 0.59532 0.06339 0.0
H785 H 0.7094 0.53472 0.07829 0.0
H786 H 0.72007 0.53691 0.00835 0.0
H787 H 0.71249 0.54812 0.94166 0.0
H788 H 0.69128 0.60757 0.92678 0.0
H789 H 0.6936 0.61474 0.99777 0.0
C790 C 0.69761 0.58357 0.05153 0.0
C791 C 0.69888 0.56493 0.07564 0.0
C792 C 0.70318 0.58461 0.01112 0.0
C793 C 0.70859 0.54939 0.06015 0.0
C794 C 0.71442 0.55046 0.02009 0.0
C795 C 0.70997 0.56372 0.9539 0.0
C796 C 0.70188 0.57742 0.92921 0.0
C797 C 0.71029 0.56691 0.99495 0.0
C798 C 0.69796 0.59713 0.94528 0.0
C799 C 0.69879 0.60086 0.98597 0.0
H800 H 0.10325 0.68168 0.93377 0.0
H801 H 0.18331 0.70028 0.91881 0.0
H802 H 0.19147 0.70978 0.9891 0.0
H803 H 0.17219 0.70111 0.05563 0.0
H804 H 0.0915 0.6804 0.07046 0.0
H805 H 0.08726 0.68428 0.99967 0.0
C806 C 0.1228 0.68914 0.94571 0.0
C807 C 0.14271 0.6904 0.92144 0.0
C808 C 0.12705 0.69379 0.98633 0.0
C809 C 0.16786 0.69954 0.93704 0.0
C810 C 0.17239 0.70463 0.97731 0.0
C811 C 0.15419 0.69897 0.04347 0.0
C812 C 0.13222 0.69066 0.06801 0.0
C813 C 0.15168 0.70023 1.00252 0.0
C814 C 0.10875 0.68723 0.05207 0.0
C815 C 0.10622 0.68902 0.0115 0.0
H816 H 0.91531 0.58795 0.55584 0.0
H817 H 0.83592 0.52576 0.57344 0.0
H818 H 0.82797 0.52313 0.50257 0.0
H819 H 0.84776 0.53031 0.43632 0.0
H820 H 0.92813 0.59062 0.4195 0.0
H821 H 0.9316 0.60275 0.48889 0.0
C822 C 0.89585 0.57495 0.5442 0.0
C823 C 0.87618 0.55716 0.56959 0.0
C824 C 0.89191 0.57277 0.50332 0.0
C825 C 0.85119 0.53991 0.55438 0.0
C826 C 0.84683 0.53808 0.51376 0.0
C827 C 0.86554 0.54694 0.44761 0.0
C828 C 0.88765 0.55968 0.42312 0.0
C829 C 0.8676 0.55318 0.4879 0.0
C830 C 0.91084 0.58081 0.43793 0.0
C831 C 0.91289 0.58754 0.47768 0.0
H832 H 0.33455 0.92026 0.55749 0.0
H833 H 0.30886 0.8389 0.57716 0.0
H834 H 0.30187 0.83018 0.50656 0.0
H835 H 0.31473 0.84856 0.43939 0.0
H836 H 0.34213 0.93044 0.42067 0.0
H837 H 0.33616 0.93614 0.49029 0.0
C838 C 0.32598 0.90038 0.54641 0.0
C839 C 0.32213 0.88023 0.57226 0.0
C840 C 0.32292 0.89579 0.50569 0.0
C841 C 0.31156 0.85461 0.55774 0.0
C842 C 0.30802 0.84974 0.51726 0.0
C843 C 0.31805 0.86726 0.45036 0.0
C844 C 0.32879 0.88907 0.42518 0.0
C845 C 0.31529 0.87053 0.49082 0.0
C846 C 0.33362 0.91339 0.43963 0.0
C847 C 0.33048 0.9167 0.47952 0.0
H848 H 0.49106 0.32068 0.55812 0.0
H849 H 0.42471 0.33181 0.5722 0.0
H850 H 0.41649 0.32656 0.50142 0.0
H851 H 0.43585 0.33102 0.43539 0.0
H852 H 0.50395 0.32268 0.42174 0.0
H853 H 0.50364 0.31398 0.49202 0.0
C854 C 0.47391 0.32038 0.54583 0.0
C855 C 0.45838 0.32642 0.57014 0.0
C856 C 0.4701 0.31852 0.50488 0.0
C857 C 0.43662 0.32673 0.554 0.0
C858 C 0.43223 0.3242 0.51341 0.0
C859 C 0.44973 0.32595 0.44763 0.0
C860 C 0.46982 0.32732 0.42369 0.0
C861 C 0.44991 0.32186 0.48839 0.0
C862 C 0.48815 0.32138 0.43975 0.0
C863 C 0.48814 0.31672 0.48 0.0
H864 H 0.17605 0.47784 0.57099 0.0
H865 H 0.0965 0.41498 0.58481 0.0
H866 H 0.09317 0.40655 0.51411 0.0
H867 H 0.10907 0.42521 0.44832 0.0
H868 H 0.18819 0.48882 0.43419 0.0
H869 H 0.19599 0.48846 0.50474 0.0
C870 C 0.15856 0.4614 0.55865 0.0
C871 C 0.13657 0.44696 0.58281 0.0
C872 C 0.1566 0.45719 0.51774 0.0
C873 C 0.11375 0.42606 0.56666 0.0
C874 C 0.11173 0.4215 0.52615 0.0
C875 C 0.12843 0.43795 0.4605 0.0
C876 C 0.14807 0.45697 0.43637 0.0
C877 C 0.13246 0.43805 0.50125 0.0
C878 C 0.17294 0.4738 0.4523 0.0
C879 C 0.17725 0.47385 0.49274 0.0
H880 H 0.70411 0.16671 0.44251 0.0
H881 H 0.67621 0.08424 0.42991 0.0
H882 H 0.68417 0.08112 0.4996 0.0
H883 H 0.68775 0.09949 0.5656 0.0
H884 H 0.71346 0.18136 0.57919 0.0
H885 H 0.71872 0.18752 0.50798 0.0
C886 C 0.70104 0.14842 0.45479 0.0
C887 C 0.68966 0.12572 0.4314 0.0
C888 C 0.70498 0.14666 0.49528 0.0
C889 C 0.68519 0.10195 0.44752 0.0
C890 C 0.68951 0.10013 0.48743 0.0
C891 C 0.69602 0.11894 0.55302 0.0
C892 C 0.70031 0.13995 0.57739 0.0
C893 C 0.69787 0.122 0.51197 0.0
C894 C 0.71044 0.165 0.56093 0.0
C895 C 0.71294 0.1684 0.52011 0.0
H896 H 0.54235 0.69994 0.44484 0.0
H897 H 0.59931 0.67522 0.43013 0.0
H898 H 0.60662 0.67774 0.5011 0.0
H899 H 0.58877 0.6766 0.567 0.0
H900 H 0.53099 0.70015 0.58228 0.0
H901 H 0.53231 0.7091 0.51175 0.0
C902 C 0.55732 0.69647 0.45716 0.0
C903 C 0.57048 0.68764 0.4325 0.0
C904 C 0.56081 0.69723 0.49821 0.0
C905 C 0.58933 0.68247 0.44863 0.0
C906 C 0.59322 0.68355 0.48926 0.0
C907 C 0.57745 0.68489 0.55503 0.0
C908 C 0.55988 0.68783 0.57954 0.0
C909 C 0.57796 0.68943 0.51439 0.0
C910 C 0.5449 0.69812 0.5639 0.0
C911 C 0.54542 0.7029 0.5235 0.0
H912 H 0.54703 0.12951 0.18382 0.0
H913 H 0.52197 0.13484 0.301 0.0
H914 H 0.55847 0.13164 0.32881 0.0
H915 H 0.59889 0.12969 0.31985 0.0
H916 H 0.62489 0.12593 0.20266 0.0
H917 H 0.58665 0.12597 0.17494 0.0
C918 C 0.54945 0.12977 0.21544 0.0
C919 C 0.53185 0.13253 0.24027 0.0
C920 C 0.57074 0.12829 0.23127 0.0
C921 C 0.53529 0.13286 0.2812 0.0
C922 C 0.55618 0.13104 0.29715 0.0
C923 C 0.59607 0.12865 0.28826 0.0
C924 C 0.61477 0.1279 0.26337 0.0
C925 C 0.57423 0.1291 0.27248 0.0
C926 C 0.61084 0.12661 0.22249 0.0
C927 C 0.58898 0.12667 0.20659 0.0
H928 H 0.47661 0.60474 0.32153 0.0
H929 H 0.50212 0.63221 0.20334 0.0
H930 H 0.46372 0.59329 0.17698 0.0
H931 H 0.42236 0.55194 0.18762 0.0
H932 H 0.39642 0.52517 0.30595 0.0
H933 H 0.43556 0.56332 0.33215 0.0
C934 C 0.47383 0.60218 0.28998 0.0
C935 C 0.49219 0.62137 0.26442 0.0
C936 C 0.45159 0.57991 0.27508 0.0
C937 C 0.48826 0.61777 0.22364 0.0
C938 C 0.4663 0.59552 0.20856 0.0
C939 C 0.42531 0.55441 0.21914 0.0
C940 C 0.40647 0.53577 0.24481 0.0
C941 C 0.44776 0.57654 0.23401 0.0
C942 C 0.41056 0.53928 0.28557 0.0
C943 C 0.43295 0.56108 0.30057 0.0
H944 H 0.88314 0.4622 0.32199 0.0
H945 H 0.88352 0.48586 0.20189 0.0
H946 H 0.88566 0.44781 0.1784 0.0
H947 H 0.88569 0.40697 0.19181 0.0
H948 H 0.8839 0.38236 0.3117 0.0
H949 H 0.88411 0.42165 0.33545 0.0
C950 C 0.88386 0.45911 0.29068 0.0
C951 C 0.88311 0.4768 0.26371 0.0
C952 C 0.88473 0.43697 0.27735 0.0
C953 C 0.88398 0.47249 0.22325 0.0
C954 C 0.88519 0.45073 0.20979 0.0
C955 C 0.88548 0.41025 0.22316 0.0
C956 C 0.88471 0.39173 0.24996 0.0
C957 C 0.8853 0.4327 0.23655 0.0
C958 C 0.88442 0.39627 0.29046 0.0
C959 C 0.88453 0.41873 0.30405 0.0
H960 H 0.47408 0.88452 0.18352 0.0
H961 H 0.50314 0.88957 0.30145 0.0
H962 H 0.46483 0.89015 0.32793 0.0
H963 H 0.42168 0.88645 0.31776 0.0
H964 H 0.39215 0.87998 0.19979 0.0
H965 H 0.43202 0.88283 0.1732 0.0
C966 C 0.47217 0.88601 0.215 0.0
C967 C 0.49138 0.88688 0.24048 0.0
C968 C 0.44989 0.88591 0.23005 0.0
C969 C 0.48859 0.88879 0.28119 0.0
C970 C 0.46665 0.88907 0.29637 0.0
C971 C 0.42407 0.88587 0.28622 0.0
C972 C 0.4039 0.88285 0.26081 0.0
C973 C 0.44695 0.88719 0.27111 0.0
C974 C 0.40731 0.88215 0.22002 0.0
C975 C 0.43011 0.88377 0.20477 0.0
H976 H 0.60492 0.47548 0.18148 0.0
H977 H 0.63094 0.49948 0.30071 0.0
H978 H 0.59167 0.46099 0.32559 0.0
H979 H 0.55096 0.41964 0.31361 0.0
H980 H 0.525 0.39488 0.19462 0.0
H981 H 0.56316 0.43459 0.16952 0.0
C982 C 0.60191 0.47237 0.21291 0.0
C983 C 0.62091 0.49029 0.2392 0.0
C984 C 0.57935 0.45001 0.22705 0.0
C985 C 0.6167 0.48597 0.27983 0.0
C986 C 0.59424 0.46394 0.2941 0.0
C987 C 0.55355 0.42296 0.28216 0.0
C988 C 0.5352 0.40426 0.25601 0.0
C989 C 0.5756 0.44569 0.26799 0.0
C990 C 0.53885 0.40893 0.21538 0.0
C991 C 0.56069 0.43162 0.20102 0.0
H992 H 0.13934 0.61789 0.28241 0.0
H993 H 0.14574 0.60448 0.1592 0.0
H994 H 0.14547 0.56403 0.17473 0.0
H995 H 0.14475 0.53294 0.22332 0.0
H996 H 0.13759 0.54567 0.34653 0.0
H997 H 0.13659 0.58557 0.331 0.0
C998 C 0.14065 0.60608 0.25903 0.0
C999 C 0.14273 0.6143 0.21977 0.0
C1000 C 0.1403 0.58261 0.26812 0.0
C1001 C 0.14417 0.59865 0.18972 0.0
C1002 C 0.14403 0.57548 0.19854 0.0
C1003 C 0.1428 0.54436 0.24674 0.0
C1004 C 0.14138 0.53639 0.28599 0.0
C1005 C 0.14226 0.56733 0.23763 0.0
C1006 C 0.13876 0.55137 0.31601 0.0
C1007 C 0.13826 0.57426 0.30719 0.0
H1008 H 0.48689 0.87868 0.71723 0.0
H1009 H 0.47299 0.87792 0.8419 0.0
H1010 H 0.4325 0.87841 0.82945 0.0
H1011 H 0.4003 0.87822 0.78311 0.0
H1012 H 0.41476 0.88007 0.65846 0.0
H1013 H 0.45548 0.88008 0.67094 0.0
C1014 C 0.475 0.87866 0.74162 0.0
C1015 C 0.48294 0.87815 0.78037 0.0
C1016 C 0.45171 0.87913 0.7343 0.0
C1017 C 0.46738 0.8783 0.8117 0.0
C1018 C 0.44415 0.87855 0.80466 0.0
C1019 C 0.41241 0.87871 0.75874 0.0
C1020 C 0.40439 0.87905 0.71997 0.0
C1021 C 0.43602 0.87885 0.76608 0.0
C1022 C 0.42041 0.87979 0.68867 0.0
C1023 C 0.44375 0.87976 0.69573 0.0
H1024 H 0.62559 0.49408 0.71786 0.0
H1025 H 0.61296 0.47815 0.84214 0.0
H1026 H 0.57163 0.43819 0.82891 0.0
H1027 H 0.53938 0.40682 0.782 0.0
H1028 H 0.55142 0.42313 0.65776 0.0
H1029 H 0.59226 0.46367 0.67101 0.0
C1030 C 0.61376 0.48187 0.74198 0.0
C1031 C 0.62247 0.48906 0.78086 0.0
C1032 C 0.58976 0.45888 0.73422 0.0
C1033 C 0.60677 0.47311 0.81186 0.0
C1034 C 0.58309 0.45018 0.80437 0.0
C1035 C 0.55086 0.41934 0.75788 0.0
C1036 C 0.54237 0.41185 0.71899 0.0
C1037 C 0.57442 0.44275 0.76567 0.0
C1038 C 0.55747 0.42837 0.68804 0.0
C1039 C 0.58092 0.45158 0.69554 0.0
H1040 H 0.13155 0.59308 0.81758 0.0
H1041 H 0.12996 0.61542 0.69732 0.0
H1042 H 0.12877 0.57556 0.67421 0.0
H1043 H 0.13086 0.53575 0.68805 0.0
H1044 H 0.13382 0.51408 0.80822 0.0
H1045 H 0.13167 0.55222 0.83149 0.0
C1046 C 0.13069 0.58912 0.78631 0.0
C1047 C 0.13096 0.60727 0.7592 0.0
C1048 C 0.13041 0.56634 0.77322 0.0
C1049 C 0.12986 0.60183 0.7188 0.0
C1050 C 0.12923 0.57905 0.70557 0.0
C1051 C 0.13083 0.53924 0.71935 0.0
C1052 C 0.13263 0.52214 0.74637 0.0
C1053 C 0.12991 0.56139 0.73249 0.0
C1054 C 0.13254 0.52696 0.78681 0.0
C1055 C 0.13134 0.5488 0.80013 0.0
H1056 H 0.62029 0.14119 0.78692 0.0
H1057 H 0.60946 0.14403 0.66197 0.0
H1058 H 0.5683 0.14337 0.67326 0.0
H1059 H 0.53545 0.14287 0.71865 0.0
H1060 H 0.54576 0.13905 0.84355 0.0
H1061 H 0.58662 0.1391 0.83224 0.0
C1062 C 0.60888 0.14163 0.76223 0.0
C1063 C 0.61805 0.14277 0.72374 0.0
C1064 C 0.58499 0.14107 0.76886 0.0
C1065 C 0.60292 0.14316 0.69199 0.0
C1066 C 0.57933 0.14281 0.69836 0.0
C1067 C 0.54661 0.14197 0.74332 0.0
C1068 C 0.53756 0.14106 0.78182 0.0
C1069 C 0.57019 0.14189 0.73667 0.0
C1070 C 0.55223 0.13978 0.81352 0.0
C1071 C 0.57569 0.13985 0.80714 0.0
H1072 H 0.4188 0.53722 0.81938 0.0
H1073 H 0.39326 0.51093 0.70074 0.0
H1074 H 0.43199 0.54994 0.67508 0.0
H1075 H 0.472 0.59262 0.68658 0.0
H1076 H 0.49642 0.61902 0.80557 0.0
H1077 H 0.45929 0.57876 0.83085 0.0
C1078 C 0.42175 0.53989 0.78787 0.0
C1079 C 0.40309 0.52123 0.76199 0.0
C1080 C 0.44384 0.56245 0.77341 0.0
C1081 C 0.40727 0.52502 0.72129 0.0
C1082 C 0.4294 0.54734 0.70662 0.0
C1083 C 0.4693 0.58946 0.71804 0.0
C1084 C 0.48691 0.60887 0.74417 0.0
C1085 C 0.44766 0.56635 0.73242 0.0
C1086 C 0.48312 0.60448 0.78483 0.0
C1087 C 0.46187 0.58146 0.79932 0.0
H1088 H 0.89303 0.40405 0.72686 0.0
H1089 H 0.89304 0.42026 0.85056 0.0
H1090 H 0.89393 0.46113 0.83537 0.0
H1091 H 0.89184 0.49107 0.78676 0.0
H1092 H 0.89223 0.47476 0.66312 0.0
H1093 H 0.89421 0.43549 0.67847 0.0
C1094 C 0.89348 0.41665 0.75047 0.0
C1095 C 0.89275 0.40898 0.78973 0.0
C1096 C 0.89392 0.44016 0.74155 0.0
C1097 C 0.89349 0.42563 0.82001 0.0
C1098 C 0.89393 0.44901 0.81138 0.0
C1099 C 0.8926 0.47903 0.76324 0.0
C1100 C 0.89166 0.48578 0.7239 0.0
C1101 C 0.89371 0.45629 0.77224 0.0
C1102 C 0.8928 0.47002 0.69372 0.0
C1103 C 0.89389 0.44747 0.70242 0.0
loop_
_geom_bond_atom_site_label_1
_geom_bond_atom_site_label_2
_geom_bond_distance
_geom_bond_site_symmetry_2
_ccdc_geom_bond_type
Co0 O1 2.216 . S
Co0 O2 2.091 . S
Co0 O4 2.004 . S
Co0 O10 2.021 . S
Co0 O12 2.137 . S
Co0 O13 2.244 . S
O1 Co0 2.216 . S
O1 C8 1.247 . S
O2 Co0 2.091 . S
O2 C8 1.261 . S
C3 O12 1.247 . S
C3 O13 1.272 . S
O4 Co0 2.004 . S
O4 C9 1.259 . S
Co5 O6 2.061 . S
Co5 O11 2.052 . S
Co5 O13 2.135 . S
O6 Co5 2.061 . S
O6 C9 1.235 . S
C7 O10 1.238 . S
C7 O11 1.241 . S
C8 O1 1.247 . S
C8 O2 1.261 . S
C9 O4 1.259 . S
C9 O6 1.235 . S
O10 Co0 2.021 . S
O10 C7 1.238 . S
O11 Co5 2.052 . S
O11 C7 1.241 . S
O12 Co0 2.137 . S
O12 C3 1.247 . S
O13 Co0 2.244 . S
O13 C3 1.272 . S
O13 Co5 2.135 . S
Co14 O15 2.216 . S
Co14 O16 2.091 . S
Co14 O18 2.004 . S
Co14 O24 2.021 . S
Co14 O26 2.137 . S
Co14 O27 2.244 . S
O15 Co14 2.216 . S
O15 C22 1.247 . S
O16 Co14 2.091 . S
O16 C22 1.261 . S
C17 O26 1.247 . S
C17 O27 1.272 . S
O18 Co14 2.004 . S
O18 C23 1.259 . S
Co19 O20 2.061 . S
Co19 O25 2.052 . S
Co19 O27 2.135 . S
O20 Co19 2.061 . S
O20 C23 1.235 . S
C21 O24 1.238 . S
C21 O25 1.241 . S
C22 O15 1.247 . S
C22 O16 1.261 . S
C23 O18 1.259 . S
C23 O20 1.235 . S
O24 Co14 2.021 . S
O24 C21 1.238 . S
O25 Co19 2.052 . S
O25 C21 1.241 . S
O26 Co14 2.137 . S
O26 C17 1.247 . S
O27 Co14 2.244 . S
O27 C17 1.272 . S
O27 Co19 2.135 . S
Co28 O29 2.216 . S
Co28 O30 2.091 . S
Co28 O32 2.004 . S
Co28 O38 2.021 . S
Co28 O40 2.137 . S
Co28 O41 2.244 . S
O29 Co28 2.216 . S
O29 C36 1.247 . S
O30 Co28 2.091 . S
O30 C36 1.261 . S
C31 O40 1.247 . S
C31 O41 1.272 . S
O32 Co28 2.004 . S
O32 C37 1.259 . S
Co33 O34 2.061 . S
Co33 O39 2.052 . S
Co33 O41 2.135 . S
O34 Co33 2.061 . S
O34 C37 1.235 . S
C35 O38 1.238 . S
C35 O39 1.241 . S
C36 O29 1.247 . S
C36 O30 1.261 . S
C37 O32 1.259 . S
C37 O34 1.235 . S
O38 Co28 2.021 . S
O38 C35 1.238 . S
O39 Co33 2.052 . S
O39 C35 1.241 . S
O40 Co28 2.137 . S
O40 C31 1.247 . S
O41 Co28 2.244 . S
O41 C31 1.272 . S
O41 Co33 2.135 . S
Co42 O43 2.216 . S
Co42 O44 2.091 . S
Co42 O46 2.004 . S
Co42 O52 2.021 . S
Co42 O54 2.137 . S
Co42 O55 2.244 . S
O43 Co42 2.216 . S
O43 C50 1.247 . S
O44 Co42 2.091 . S
O44 C50 1.261 . S
C45 O54 1.247 . S
C45 O55 1.272 . S
O46 Co42 2.004 . S
O46 C51 1.259 . S
Co47 O48 2.061 . S
Co47 O53 2.052 . S
Co47 O55 2.135 . S
O48 Co47 2.061 . S
O48 C51 1.235 . S
C49 O52 1.238 . S
C49 O53 1.241 . S
C50 O43 1.247 . S
C50 O44 1.261 . S
C51 O46 1.259 . S
C51 O48 1.235 . S
O52 Co42 2.021 . S
O52 C49 1.238 . S
O53 Co47 2.052 . S
O53 C49 1.241 . S
O54 Co42 2.137 . S
O54 C45 1.247 . S
O55 Co42 2.244 . S
O55 C45 1.272 . S
O55 Co47 2.135 . S
Co56 O57 2.216 . S
Co56 O58 2.091 . S
Co56 O60 2.004 . S
Co56 O66 2.021 . S
Co56 O68 2.137 . S
Co56 O69 2.244 . S
O57 Co56 2.216 . S
O57 C64 1.247 . S
O58 Co56 2.091 . S
O58 C64 1.261 . S
C59 O68 1.247 . S
C59 O69 1.272 . S
O60 Co56 2.004 . S
O60 C65 1.259 . S
Co61 O62 2.061 . S
Co61 O67 2.052 . S
Co61 O69 2.135 . S
O62 Co61 2.061 . S
O62 C65 1.235 . S
C63 O66 1.238 . S
C63 O67 1.241 . S
C64 O57 1.247 . S
C64 O58 1.261 . S
C65 O60 1.259 . S
C65 O62 1.235 . S
O66 Co56 2.021 . S
O66 C63 1.238 . S
O67 Co61 2.052 . S
O67 C63 1.241 . S
O68 Co56 2.137 . S
O68 C59 1.247 . S
O69 Co56 2.244 . S
O69 C59 1.272 . S
O69 Co61 2.135 . S
Co70 O71 2.216 . S
Co70 O72 2.091 . S
Co70 O74 2.004 . S
Co70 O80 2.021 . S
Co70 O82 2.137 . S
Co70 O83 2.244 . S
O71 Co70 2.216 . S
O71 C78 1.247 . S
O72 Co70 2.091 . S
O72 C78 1.261 . S
C73 O82 1.247 . S
C73 O83 1.272 . S
O74 Co70 2.004 . S
O74 C79 1.259 . S
Co75 O76 2.061 . S
Co75 O81 2.052 . S
Co75 O83 2.135 . S
O76 Co75 2.061 . S
O76 C79 1.235 . S
C77 O80 1.238 . S
C77 O81 1.241 . S
C78 O71 1.247 . S
C78 O72 1.261 . S
C79 O74 1.259 . S
C79 O76 1.235 . S
O80 Co70 2.021 . S
O80 C77 1.238 . S
O81 Co75 2.052 . S
O81 C77 1.241 . S
O82 Co70 2.137 . S
O82 C73 1.247 . S
O83 Co70 2.244 . S
O83 C73 1.272 . S
O83 Co75 2.135 . S
Co84 O85 2.216 . S
Co84 O86 2.091 . S
Co84 O88 2.004 . S
Co84 O94 2.021 . S
Co84 O96 2.137 . S
Co84 O97 2.244 . S
O85 Co84 2.216 . S
O85 C92 1.247 . S
O86 Co84 2.091 . S
O86 C92 1.261 . S
C87 O96 1.247 . S
C87 O97 1.272 . S
O88 Co84 2.004 . S
O88 C93 1.259 . S
Co89 O90 2.061 . S
Co89 O95 2.052 . S
Co89 O97 2.135 . S
O90 Co89 2.061 . S
O90 C93 1.235 . S
C91 O94 1.238 . S
C91 O95 1.241 . S
C92 O85 1.247 . S
C92 O86 1.261 . S
C93 O88 1.259 . S
C93 O90 1.235 . S
O94 Co84 2.021 . S
O94 C91 1.238 . S
O95 Co89 2.052 . S
O95 C91 1.241 . S
O96 Co84 2.137 . S
O96 C87 1.247 . S
O97 Co84 2.244 . S
O97 C87 1.272 . S
O97 Co89 2.135 . S
Co98 O99 2.216 . S
Co98 O100 2.091 . S
Co98 O102 2.004 . S
Co98 O108 2.021 . S
Co98 O110 2.137 . S
Co98 O111 2.244 . S
O99 Co98 2.216 . S
O99 C106 1.247 . S
O100 Co98 2.091 . S
O100 C106 1.261 . S
C101 O110 1.247 . S
C101 O111 1.272 . S
O102 Co98 2.004 . S
O102 C107 1.259 . S
Co103 O104 2.061 . S
Co103 O109 2.052 . S
Co103 O111 2.135 . S
O104 Co103 2.061 . S
O104 C107 1.235 . S
C105 O108 1.238 . S
C105 O109 1.241 . S
C106 O99 1.247 . S
C106 O100 1.261 . S
C107 O102 1.259 . S
C107 O104 1.235 . S
O108 Co98 2.021 . S
O108 C105 1.238 . S
O109 Co103 2.052 . S
O109 C105 1.241 . S
O110 Co98 2.137 . S
O110 C101 1.247 . S
O111 Co98 2.244 . S
O111 C101 1.272 . S
O111 Co103 2.135 . S
Co112 O113 2.216 . S
Co112 O114 2.091 . S
Co112 O116 2.004 . S
Co112 O122 2.021 . S
Co112 O124 2.137 . S
Co112 O125 2.244 . S
O113 Co112 2.216 . S
O113 C120 1.247 . S
O114 Co112 2.091 . S
O114 C120 1.261 . S
C115 O124 1.247 . S
C115 O125 1.272 . S
O116 Co112 2.004 . S
O116 C121 1.259 . S
Co117 O118 2.061 . S
Co117 O123 2.052 . S
Co117 O125 2.135 . S
O118 Co117 2.061 . S
O118 C121 1.235 . S
C119 O122 1.238 . S
C119 O123 1.241 . S
C120 O113 1.247 . S
C120 O114 1.261 . S
C121 O116 1.259 . S
C121 O118 1.235 . S
O122 Co112 2.021 . S
O122 C119 1.238 . S
O123 Co117 2.052 . S
O123 C119 1.241 . S
O124 Co112 2.137 . S
O124 C115 1.247 . S
O125 Co112 2.244 . S
O125 C115 1.272 . S
O125 Co117 2.135 . S
Co126 O127 2.216 . S
Co126 O128 2.091 . S
Co126 O130 2.004 . S
Co126 O136 2.021 . S
Co126 O138 2.137 . S
Co126 O139 2.244 . S
O127 Co126 2.216 . S
O127 C134 1.247 . S
O128 Co126 2.091 . S
O128 C134 1.261 . S
C129 O138 1.247 . S
C129 O139 1.272 . S
O130 Co126 2.004 . S
O130 C135 1.259 . S
Co131 O132 2.061 . S
Co131 O137 2.052 . S
Co131 O139 2.135 . S
O132 Co131 2.061 . S
O132 C135 1.235 . S
C133 O136 1.238 . S
C133 O137 1.241 . S
C134 O127 1.247 . S
C134 O128 1.261 . S
C135 O130 1.259 . S
C135 O132 1.235 . S
O136 Co126 2.021 . S
O136 C133 1.238 . S
O137 Co131 2.052 . S
O137 C133 1.241 . S
O138 Co126 2.137 . S
O138 C129 1.247 . S
O139 Co126 2.244 . S
O139 C129 1.272 . S
O139 Co131 2.135 . S
Co140 O141 2.216 . S
Co140 O142 2.091 . S
Co140 O144 2.004 . S
Co140 O150 2.021 . S
Co140 O152 2.137 . S
Co140 O153 2.244 . S
O141 Co140 2.216 . S
O141 C148 1.247 . S
O142 Co140 2.091 . S
O142 C148 1.261 . S
C143 O152 1.247 . S
C143 O153 1.272 . S
O144 Co140 2.004 . S
O144 C149 1.259 . S
Co145 O146 2.061 . S
Co145 O151 2.052 . S
Co145 O153 2.135 . S
O146 Co145 2.061 . S
O146 C149 1.235 . S
C147 O150 1.238 . S
C147 O151 1.241 . S
C148 O141 1.247 . S
C148 O142 1.261 . S
C149 O144 1.259 . S
C149 O146 1.235 . S
O150 Co140 2.021 . S
O150 C147 1.238 . S
O151 Co145 2.052 . S
O151 C147 1.241 . S
O152 Co140 2.137 . S
O152 C143 1.247 . S
O153 Co140 2.244 . S
O153 C143 1.272 . S
O153 Co145 2.135 . S
Co154 O155 2.216 . S
Co154 O156 2.091 . S
Co154 O158 2.004 . S
Co154 O164 2.021 . S
Co154 O166 2.137 . S
Co154 O167 2.244 . S
O155 Co154 2.216 . S
O155 C162 1.247 . S
O156 Co154 2.091 . S
O156 C162 1.261 . S
C157 O166 1.247 . S
C157 O167 1.272 . S
O158 Co154 2.004 . S
O158 C163 1.259 . S
Co159 O160 2.061 . S
Co159 O165 2.052 . S
Co159 O167 2.135 . S
O160 Co159 2.061 . S
O160 C163 1.235 . S
C161 O164 1.238 . S
C161 O165 1.241 . S
C162 O155 1.247 . S
C162 O156 1.261 . S
C163 O158 1.259 . S
C163 O160 1.235 . S
O164 Co154 2.021 . S
O164 C161 1.238 . S
O165 Co159 2.052 . S
O165 C161 1.241 . S
O166 Co154 2.137 . S
O166 C157 1.247 . S
O167 Co154 2.244 . S
O167 C157 1.272 . S
O167 Co159 2.135 . S
Co168 O169 2.216 . S
Co168 O170 2.091 . S
Co168 O172 2.004 . S
Co168 O178 2.021 . S
Co168 O180 2.137 . S
Co168 O181 2.244 . S
O169 Co168 2.216 . S
O169 C176 1.247 . S
O170 Co168 2.091 . S
O170 C176 1.261 . S
C171 O180 1.247 . S
C171 O181 1.272 . S
O172 Co168 2.004 . S
O172 C177 1.259 . S
Co173 O174 2.061 . S
Co173 O179 2.052 . S
Co173 O181 2.135 . S
O174 Co173 2.061 . S
O174 C177 1.235 . S
C175 O178 1.238 . S
C175 O179 1.241 . S
C176 O169 1.247 . S
C176 O170 1.261 . S
C177 O172 1.259 . S
C177 O174 1.235 . S
O178 Co168 2.021 . S
O178 C175 1.238 . S
O179 Co173 2.052 . S
O179 C175 1.241 . S
O180 Co168 2.137 . S
O180 C171 1.247 . S
O181 Co168 2.244 . S
O181 C171 1.272 . S
O181 Co173 2.135 . S
Co182 O183 2.216 . S
Co182 O184 2.091 . S
Co182 O186 2.004 . S
Co182 O192 2.021 . S
Co182 O194 2.137 . S
Co182 O195 2.244 . S
O183 Co182 2.216 . S
O183 C190 1.247 . S
O184 Co182 2.091 . S
O184 C190 1.261 . S
C185 O194 1.247 . S
C185 O195 1.272 . S
O186 Co182 2.004 . S
O186 C191 1.259 . S
Co187 O188 2.061 . S
Co187 O193 2.052 . S
Co187 O195 2.135 . S
O188 Co187 2.061 . S
O188 C191 1.235 . S
C189 O192 1.238 . S
C189 O193 1.241 . S
C190 O183 1.247 . S
C190 O184 1.261 . S
C191 O186 1.259 . S
C191 O188 1.235 . S
O192 Co182 2.021 . S
O192 C189 1.238 . S
O193 Co187 2.052 . S
O193 C189 1.241 . S
O194 Co182 2.137 . S
O194 C185 1.247 . S
O195 Co182 2.244 . S
O195 C185 1.272 . S
O195 Co187 2.135 . S
Co196 O197 2.216 . S
Co196 O198 2.091 . S
Co196 O200 2.004 . S
Co196 O206 2.021 . S
Co196 O208 2.137 . S
Co196 O209 2.244 . S
O197 Co196 2.216 . S
O197 C204 1.247 . S
O198 Co196 2.091 . S
O198 C204 1.261 . S
C199 O208 1.247 . S
C199 O209 1.272 . S
O200 Co196 2.004 . S
O200 C205 1.259 . S
Co201 O202 2.061 . S
Co201 O207 2.052 . S
Co201 O209 2.135 . S
O202 Co201 2.061 . S
O202 C205 1.235 . S
C203 O206 1.238 . S
C203 O207 1.241 . S
C204 O197 1.247 . S
C204 O198 1.261 . S
C205 O200 1.259 . S
C205 O202 1.235 . S
O206 Co196 2.021 . S
O206 C203 1.238 . S
O207 Co201 2.052 . S
O207 C203 1.241 . S
O208 Co196 2.137 . S
O208 C199 1.247 . S
O209 Co196 2.244 . S
O209 C199 1.272 . S
O209 Co201 2.135 . S
Co210 O211 2.216 . S
Co210 O212 2.091 . S
Co210 O214 2.004 . S
Co210 O220 2.021 . S
Co210 O222 2.137 . S
Co210 O223 2.244 . S
O211 Co210 2.216 . S
O211 C218 1.247 . S
O212 Co210 2.091 . S
O212 C218 1.261 . S
C213 O222 1.247 . S
C213 O223 1.272 . S
O214 Co210 2.004 . S
O214 C219 1.259 . S
Co215 O216 2.061 . S
Co215 O221 2.052 . S
Co215 O223 2.135 . S
O216 Co215 2.061 . S
O216 C219 1.235 . S
C217 O220 1.238 . S
C217 O221 1.241 . S
C218 O211 1.247 . S
C218 O212 1.261 . S
C219 O214 1.259 . S
C219 O216 1.235 . S
O220 Co210 2.021 . S
O220 C217 1.238 . S
O221 Co215 2.052 . S
O221 C217 1.241 . S
O222 Co210 2.137 . S
O222 C213 1.247 . S
O223 Co210 2.244 . S
O223 C213 1.272 . S
O223 Co215 2.135 . S
Co224 O225 2.216 . S
Co224 O226 2.091 . S
Co224 O228 2.004 . S
Co224 O234 2.021 . S
Co224 O236 2.137 . S
Co224 O237 2.244 . S
O225 Co224 2.216 . S
O225 C232 1.247 . S
O226 Co224 2.091 . S
O226 C232 1.261 . S
C227 O236 1.247 . S
C227 O237 1.272 . S
O228 Co224 2.004 . S
O228 C233 1.259 . S
Co229 O230 2.061 . S
Co229 O235 2.052 . S
Co229 O237 2.135 . S
O230 Co229 2.061 . S
O230 C233 1.235 . S
C231 O234 1.238 . S
C231 O235 1.241 . S
C232 O225 1.247 . S
C232 O226 1.261 . S
C233 O228 1.259 . S
C233 O230 1.235 . S
O234 Co224 2.021 . S
O234 C231 1.238 . S
O235 Co229 2.052 . S
O235 C231 1.241 . S
O236 Co224 2.137 . S
O236 C227 1.247 . S
O237 Co224 2.244 . S
O237 C227 1.272 . S
O237 Co229 2.135 . S
Co238 O239 2.216 . S
Co238 O240 2.091 . S
Co238 O242 2.004 . S
Co238 O248 2.021 . S
Co238 O250 2.137 . S
Co238 O251 2.244 . S
O239 Co238 2.216 . S
O239 C246 1.247 . S
O240 Co238 2.091 . S
O240 C246 1.261 . S
C241 O250 1.247 . S
C241 O251 1.272 . S
O242 Co238 2.004 . S
O242 C247 1.259 . S
Co243 O244 2.061 . S
Co243 O249 2.052 . S
Co243 O251 2.135 . S
O244 Co243 2.061 . S
O244 C247 1.235 . S
C245 O248 1.238 . S
C245 O249 1.241 . S
C246 O239 1.247 . S
C246 O240 1.261 . S
C247 O242 1.259 . S
C247 O244 1.235 . S
O248 Co238 2.021 . S
O248 C245 1.238 . S
O249 Co243 2.052 . S
O249 C245 1.241 . S
O250 Co238 2.137 . S
O250 C241 1.247 . S
O251 Co238 2.244 . S
O251 C241 1.272 . S
O251 Co243 2.135 . S
Co252 O253 2.216 . S
Co252 O254 2.091 . S
Co252 O256 2.004 . S
Co252 O262 2.021 . S
Co252 O264 2.137 . S
Co252 O265 2.244 . S
O253 Co252 2.216 . S
O253 C260 1.247 . S
O254 Co252 2.091 . S
O254 C260 1.261 . S
C255 O264 1.247 . S
C255 O265 1.272 . S
O256 Co252 2.004 . S
O256 C261 1.259 . S
Co257 O258 2.061 . S
Co257 O263 2.052 . S
Co257 O265 2.135 . S
O258 Co257 2.061 . S
O258 C261 1.235 . S
C259 O262 1.238 . S
C259 O263 1.241 . S
C260 O253 1.247 . S
C260 O254 1.261 . S
C261 O256 1.259 . S
C261 O258 1.235 . S
O262 Co252 2.021 . S
O262 C259 1.238 . S
O263 Co257 2.052 . S
O263 C259 1.241 . S
O264 Co252 2.137 . S
O264 C255 1.247 . S
O265 Co252 2.244 . S
O265 C255 1.272 . S
O265 Co257 2.135 . S
Co266 O267 2.216 . S
Co266 O268 2.091 . S
Co266 O270 2.004 . S
Co266 O276 2.021 . S
Co266 O278 2.137 . S
Co266 O279 2.244 . S
O267 Co266 2.216 . S
O267 C274 1.247 . S
O268 Co266 2.091 . S
O268 C274 1.261 . S
C269 O278 1.247 . S
C269 O279 1.272 . S
O270 Co266 2.004 . S
O270 C275 1.259 . S
Co271 O272 2.061 . S
Co271 O277 2.052 . S
Co271 O279 2.135 . S
O272 Co271 2.061 . S
O272 C275 1.235 . S
C273 O276 1.238 . S
C273 O277 1.241 . S
C274 O267 1.247 . S
C274 O268 1.261 . S
C275 O270 1.259 . S
C275 O272 1.235 . S
O276 Co266 2.021 . S
O276 C273 1.238 . S
O277 Co271 2.052 . S
O277 C273 1.241 . S
O278 Co266 2.137 . S
O278 C269 1.247 . S
O279 Co266 2.244 . S
O279 C269 1.272 . S
O279 Co271 2.135 . S
Co280 O281 2.216 . S
Co280 O282 2.091 . S
Co280 O284 2.004 . S
Co280 O290 2.021 . S
Co280 O292 2.137 . S
Co280 O293 2.244 . S
O281 Co280 2.216 . S
O281 C288 1.247 . S
O282 Co280 2.091 . S
O282 C288 1.261 . S
C283 O292 1.247 . S
C283 O293 1.272 . S
O284 Co280 2.004 . S
O284 C289 1.259 . S
Co285 O286 2.061 . S
Co285 O291 2.052 . S
Co285 O293 2.135 . S
O286 Co285 2.061 . S
O286 C289 1.235 . S
C287 O290 1.238 . S
C287 O291 1.241 . S
C288 O281 1.247 . S
C288 O282 1.261 . S
C289 O284 1.259 . S
C289 O286 1.235 . S
O290 Co280 2.021 . S
O290 C287 1.238 . S
O291 Co285 2.052 . S
O291 C287 1.241 . S
O292 Co280 2.137 . S
O292 C283 1.247 . S
O293 Co280 2.244 . S
O293 C283 1.272 . S
O293 Co285 2.135 . S
Co294 O295 2.216 . S
Co294 O296 2.091 . S
Co294 O298 2.004 . S
Co294 O304 2.021 . S
Co294 O306 2.137 . S
Co294 O307 2.244 . S
O295 Co294 2.216 . S
O295 C302 1.247 . S
O296 Co294 2.091 . S
O296 C302 1.261 . S
C297 O306 1.247 . S
C297 O307 1.272 . S
O298 Co294 2.004 . S
O298 C303 1.259 . S
Co299 O300 2.061 . S
Co299 O305 2.052 . S
Co299 O307 2.135 . S
O300 Co299 2.061 . S
O300 C303 1.235 . S
C301 O304 1.238 . S
C301 O305 1.241 . S
C302 O295 1.247 . S
C302 O296 1.261 . S
C303 O298 1.259 . S
C303 O300 1.235 . S
O304 Co294 2.021 . S
O304 C301 1.238 . S
O305 Co299 2.052 . S
O305 C301 1.241 . S
O306 Co294 2.137 . S
O306 C297 1.247 . S
O307 Co294 2.244 . S
O307 C297 1.272 . S
O307 Co299 2.135 . S
Co308 O309 2.216 . S
Co308 O310 2.091 . S
Co308 O312 2.004 . S
Co308 O318 2.021 . S
Co308 O320 2.137 . S
Co308 O321 2.244 . S
O309 Co308 2.216 . S
O309 C316 1.247 . S
O310 Co308 2.091 . S
O310 C316 1.261 . S
C311 O320 1.247 . S
C311 O321 1.272 . S
O312 Co308 2.004 . S
O312 C317 1.259 . S
Co313 O314 2.061 . S
Co313 O319 2.052 . S
Co313 O321 2.135 . S
O314 Co313 2.061 . S
O314 C317 1.235 . S
C315 O318 1.238 . S
C315 O319 1.241 . S
C316 O309 1.247 . S
C316 O310 1.261 . S
C317 O312 1.259 . S
C317 O314 1.235 . S
O318 Co308 2.021 . S
O318 C315 1.238 . S
O319 Co313 2.052 . S
O319 C315 1.241 . S
O320 Co308 2.137 . S
O320 C311 1.247 . S
O321 Co308 2.244 . S
O321 C311 1.272 . S
O321 Co313 2.135 . S
Co322 O323 2.216 . S
Co322 O324 2.091 . S
Co322 O326 2.004 . S
Co322 O332 2.021 . S
Co322 O334 2.137 . S
Co322 O335 2.244 . S
O323 Co322 2.216 . S
O323 C330 1.247 . S
O324 Co322 2.091 . S
O324 C330 1.261 . S
C325 O334 1.247 . S
C325 O335 1.272 . S
O326 Co322 2.004 . S
O326 C331 1.259 . S
Co327 O328 2.061 . S
Co327 O333 2.052 . S
Co327 O335 2.135 . S
O328 Co327 2.061 . S
O328 C331 1.235 . S
C329 O332 1.238 . S
C329 O333 1.241 . S
C330 O323 1.247 . S
C330 O324 1.261 . S
C331 O326 1.259 . S
C331 O328 1.235 . S
O332 Co322 2.021 . S
O332 C329 1.238 . S
O333 Co327 2.052 . S
O333 C329 1.241 . S
O334 Co322 2.137 . S
O334 C325 1.247 . S
O335 Co322 2.244 . S
O335 C325 1.272 . S
O335 Co327 2.135 . S
H336 C342 0.930 . S
H337 C345 0.930 . S
H338 C346 0.930 . S
H339 C347 0.930 . S
H340 C350 0.930 . S
H341 C351 0.930 . S
C342 H336 0.930 . S
C342 C343 1.355 . S
C342 C344 1.393 1_545 S
C343 C342 1.355 . S
C343 C345 1.419 . S
C344 C342 1.393 1_565 S
C344 C349 1.415 1_565 S
C344 C351 1.436 . S
C345 H337 0.930 . S
C345 C343 1.419 . S
C345 C346 1.362 . S
C346 H338 0.930 . S
C346 C345 1.362 . S
C346 C349 1.436 . S
C347 H339 0.930 . S
C347 C348 1.355 . S
C347 C349 1.393 1_565 S
C348 C347 1.355 . S
C348 C350 1.419 . S
C349 C344 1.415 1_545 S
C349 C346 1.436 . S
C349 C347 1.393 1_545 S
C350 H340 0.930 . S
C350 C348 1.419 . S
C350 C351 1.362 . S
C351 H341 0.930 . S
C351 C344 1.436 . S
C351 C350 1.362 . S
H352 C358 0.930 . S
H353 C361 0.930 . S
H354 C362 0.930 . S
H355 C363 0.930 . S
H356 C366 0.930 . S
H357 C367 0.930 . S
C358 H352 0.930 . S
C358 C359 1.355 . S
C358 C360 1.415 . S
C359 C358 1.355 . S
C359 C361 1.419 . S
C360 C358 1.415 . S
C360 C365 1.425 . S
C360 C367 1.409 . S
C361 H353 0.930 . S
C361 C359 1.419 . S
C361 C362 1.362 . S
C362 H354 0.930 . S
C362 C361 1.362 . S
C362 C365 1.409 . S
C363 H355 0.930 . S
C363 C364 1.355 . S
C363 C365 1.415 . S
C364 C363 1.355 . S
C364 C366 1.419 . S
C365 C360 1.425 . S
C365 C362 1.409 . S
C365 C363 1.415 . S
C366 H356 0.930 . S
C366 C364 1.419 . S
C366 C367 1.362 . S
C367 H357 0.930 . S
C367 C360 1.409 . S
C367 C366 1.362 . S
H368 C374 0.930 . S
H369 C377 0.930 . S
H370 C378 0.930 . S
H371 C379 0.930 . S
H372 C382 0.930 . S
H373 C383 0.930 . S
C374 H368 0.930 . S
C374 C375 1.355 . S
C374 C376 1.400 1_655 S
C375 C374 1.355 . S
C375 C377 1.419 . S
C376 C374 1.400 1_455 S
C376 C381 1.417 1_455 S
C376 C383 1.428 . S
C377 H369 0.930 . S
C377 C375 1.419 . S
C377 C378 1.362 . S
C378 H370 0.930 . S
C378 C377 1.362 . S
C378 C381 1.428 . S
C379 H371 0.930 . S
C379 C380 1.355 . S
C379 C381 1.400 1_455 S
C380 C379 1.355 . S
C380 C382 1.419 . S
C381 C376 1.417 1_655 S
C381 C378 1.428 . S
C381 C379 1.400 1_655 S
C382 H372 0.930 . S
C382 C380 1.419 . S
C382 C383 1.362 . S
C383 H373 0.930 . S
C383 C376 1.428 . S
C383 C382 1.362 . S
H384 C390 0.930 . S
H385 C393 0.930 . S
H386 C394 0.908 1_545 S
H387 C395 0.930 . S
H388 C398 0.930 . S
H389 C399 0.908 1_565 S
C390 H384 0.930 . S
C390 C391 1.355 . S
C390 C392 1.415 . S
C391 C390 1.355 . S
C391 C393 1.419 . S
C392 C390 1.415 . S
C392 C397 1.425 1_565 S
C392 C399 1.405 1_565 S
C393 H385 0.930 . S
C393 C391 1.419 . S
C393 C394 1.389 . S
C394 H386 0.908 1_565 S
C394 C393 1.389 . S
C394 C397 1.405 1_565 S
C395 H387 0.930 . S
C395 C396 1.355 . S
C395 C397 1.415 . S
C396 C395 1.355 . S
C396 C398 1.419 . S
C397 C392 1.425 1_545 S
C397 C394 1.405 1_545 S
C397 C395 1.415 . S
C398 H388 0.930 . S
C398 C396 1.419 . S
C398 C399 1.389 . S
C399 H389 0.908 1_545 S
C399 C392 1.405 1_545 S
C399 C398 1.389 . S
H400 C406 0.930 . S
H401 C409 0.930 . S
H402 C410 0.930 . S
H403 C411 0.930 . S
H404 C414 0.930 . S
H405 C415 0.930 . S
C406 H400 0.930 . S
C406 C407 1.355 . S
C406 C408 1.415 . S
C407 C406 1.355 . S
C407 C409 1.419 . S
C408 C406 1.415 . S
C408 C413 1.425 . S
C408 C415 1.409 . S
C409 H401 0.930 . S
C409 C407 1.419 . S
C409 C410 1.362 . S
C410 H402 0.930 . S
C410 C409 1.362 . S
C410 C413 1.409 . S
C411 H403 0.930 . S
C411 C412 1.355 . S
C411 C413 1.415 . S
C412 C411 1.355 . S
C412 C414 1.419 . S
C413 C408 1.425 . S
C413 C410 1.409 . S
C413 C411 1.415 . S
C414 H404 0.930 . S
C414 C412 1.419 . S
C414 C415 1.362 . S
C415 H405 0.930 . S
C415 C408 1.409 . S
C415 C414 1.362 . S
H416 C422 0.930 . S
H417 C425 0.930 . S
H418 C426 0.930 . S
H419 C427 0.930 . S
H420 C430 0.930 . S
H421 C431 0.930 . S
C422 H416 0.930 . S
C422 C423 1.355 . S
C422 C424 1.415 . S
C423 C422 1.355 . S
C423 C425 1.419 . S
C424 C422 1.415 . S
C424 C429 1.425 1_455 S
C424 C431 1.409 1_455 S
C425 H417 0.930 . S
C425 C423 1.419 . S
C425 C426 1.362 . S
C426 H418 0.930 . S
C426 C425 1.362 . S
C426 C429 1.409 1_455 S
C427 H419 0.930 . S
C427 C428 1.355 . S
C427 C429 1.415 . S
C428 C427 1.355 . S
C428 C430 1.419 . S
C429 C424 1.425 1_655 S
C429 C426 1.409 1_655 S
C429 C427 1.415 . S
C430 H420 0.930 . S
C430 C428 1.419 . S
C430 C431 1.362 . S
C431 H421 0.930 . S
C431 C424 1.409 1_655 S
C431 C430 1.362 . S
H432 C438 0.930 . S
H433 C441 0.930 . S
H434 C442 0.930 . S
H435 C443 0.930 . S
H436 C446 0.930 . S
H437 C447 0.930 . S
C438 H432 0.930 . S
C438 C439 1.355 . S
C438 C440 1.415 . S
C439 C438 1.355 . S
C439 C441 1.419 . S
C440 C438 1.415 . S
C440 C445 1.425 1_565 S
C440 C447 1.409 1_565 S
C441 H433 0.930 . S
C441 C439 1.419 . S
C441 C442 1.362 . S
C442 H434 0.930 . S
C442 C441 1.362 . S
C442 C445 1.409 1_565 S
C443 H435 0.930 . S
C443 C444 1.355 . S
C443 C445 1.415 . S
C444 C443 1.355 . S
C444 C446 1.419 . S
C445 C440 1.425 1_545 S
C445 C442 1.409 1_545 S
C445 C443 1.415 . S
C446 H436 0.930 . S
C446 C444 1.419 . S
C446 C447 1.362 . S
C447 H437 0.930 . S
C447 C440 1.409 1_545 S
C447 C446 1.362 . S
H448 C454 0.930 . S
H449 C457 0.930 . S
H450 C458 0.930 . S
H451 C459 0.930 . S
H452 C462 0.930 . S
H453 C463 0.930 . S
C454 H448 0.930 . S
C454 C455 1.355 . S
C454 C456 1.415 . S
C455 C454 1.355 . S
C455 C457 1.419 . S
C456 C454 1.415 . S
C456 C461 1.425 . S
C456 C463 1.409 . S
C457 H449 0.930 . S
C457 C455 1.419 . S
C457 C458 1.362 . S
C458 H450 0.930 . S
C458 C457 1.362 . S
C458 C461 1.409 . S
C459 H451 0.930 . S
C459 C460 1.355 . S
C459 C461 1.415 . S
C460 C459 1.355 . S
C460 C462 1.419 . S
C461 C456 1.425 . S
C461 C458 1.409 . S
C461 C459 1.415 . S
C462 H452 0.930 . S
C462 C460 1.419 . S
C462 C463 1.362 . S
C463 H453 0.930 . S
C463 C456 1.409 . S
C463 C462 1.362 . S
H464 C470 0.930 . S
H465 C473 0.930 . S
H466 C474 0.930 1_455 S
H467 C475 0.930 . S
H468 C478 0.930 . S
H469 C479 0.930 1_655 S
C470 H464 0.930 . S
C470 C471 1.355 . S
C470 C472 1.415 . S
C471 C470 1.355 . S
C471 C473 1.419 . S
C472 C470 1.415 . S
C472 C477 1.425 1_655 S
C472 C479 1.409 1_655 S
C473 H465 0.930 . S
C473 C471 1.419 . S
C473 C474 1.362 . S
C474 H466 0.930 1_655 S
C474 C473 1.362 . S
C474 C477 1.409 1_655 S
C475 H467 0.930 . S
C475 C476 1.355 . S
C475 C477 1.415 . S
C476 C475 1.355 . S
C476 C478 1.419 . S
C477 C472 1.425 1_455 S
C477 C474 1.409 1_455 S
C477 C475 1.415 . S
C478 H468 0.930 . S
C478 C476 1.419 . S
C478 C479 1.362 . S
C479 H469 0.930 1_455 S
C479 C472 1.409 1_455 S
C479 C478 1.362 . S
H480 C486 0.930 . S
H481 C489 0.930 . S
H482 C490 0.930 . S
H483 C491 0.930 . S
H484 C494 0.930 . S
H485 C495 0.930 . S
C486 H480 0.930 . S
C486 C487 1.355 . S
C486 C488 1.445 . S
C487 C486 1.355 . S
C487 C489 1.419 . S
C488 C486 1.445 . S
C488 C493 1.397 1_545 S
C488 C495 1.393 1_545 S
C489 H481 0.930 . S
C489 C487 1.419 . S
C489 C490 1.362 . S
C490 H482 0.930 . S
C490 C489 1.362 . S
C490 C493 1.393 1_545 S
C491 H483 0.930 . S
C491 C492 1.355 . S
C491 C493 1.446 . S
C492 C491 1.355 . S
C492 C494 1.419 . S
C493 C488 1.397 1_565 S
C493 C490 1.393 1_565 S
C493 C491 1.446 . S
C494 H484 0.930 . S
C494 C492 1.419 . S
C494 C495 1.362 . S
C495 H485 0.930 . S
C495 C488 1.393 1_565 S
C495 C494 1.362 . S
H496 C502 0.930 . S
H497 C505 0.930 . S
H498 C506 0.930 . S
H499 C507 0.930 . S
H500 C510 0.930 . S
H501 C511 0.930 . S
C502 H496 0.930 . S
C502 C503 1.355 . S
C502 C504 1.415 . S
C503 C502 1.355 . S
C503 C505 1.419 . S
C504 C502 1.415 . S
C504 C509 1.425 . S
C504 C511 1.409 . S
C505 H497 0.930 . S
C505 C503 1.419 . S
C505 C506 1.362 . S
C506 H498 0.930 . S
C506 C505 1.362 . S
C506 C509 1.409 . S
C507 H499 0.930 . S
C507 C508 1.355 . S
C507 C509 1.415 . S
C508 C507 1.355 . S
C508 C510 1.419 . S
C509 C504 1.425 . S
C509 C506 1.409 . S
C509 C507 1.415 . S
C510 H500 0.930 . S
C510 C508 1.419 . S
C510 C511 1.362 . S
C511 H501 0.930 . S
C511 C504 1.409 . S
C511 C510 1.362 . S
H512 C518 0.930 . S
H513 C521 0.930 . S
H514 C522 0.928 . S
H515 C523 0.930 . S
H516 C526 0.930 . S
H517 C527 0.928 . S
C518 H512 0.930 . S
C518 C519 1.355 . S
C518 C520 1.415 . S
C519 C518 1.355 . S
C519 C521 1.419 . S
C520 C518 1.415 . S
C520 C525 1.425 1_455 S
C520 C527 1.407 . S
C521 H513 0.930 . S
C521 C519 1.419 . S
C521 C522 1.366 1_455 S
C522 H514 0.928 . S
C522 C521 1.366 1_655 S
C522 C525 1.407 . S
C523 H515 0.930 . S
C523 C524 1.355 . S
C523 C525 1.415 . S
C524 C523 1.355 . S
C524 C526 1.419 . S
C525 C520 1.425 1_655 S
C525 C522 1.407 . S
C525 C523 1.415 . S
C526 H516 0.930 . S
C526 C524 1.419 . S
C526 C527 1.366 1_655 S
C527 H517 0.928 . S
C527 C520 1.407 . S
C527 C526 1.366 1_455 S
H528 C534 0.930 . S
H529 C537 0.930 . S
H530 C538 0.930 . S
H531 C539 0.930 . S
H532 C542 0.930 . S
H533 C543 0.930 . S
C534 H528 0.930 . S
C534 C535 1.355 . S
C534 C536 1.415 . S
C535 C534 1.355 . S
C535 C537 1.419 . S
C536 C534 1.415 . S
C536 C541 1.425 . S
C536 C543 1.409 . S
C537 H529 0.930 . S
C537 C535 1.419 . S
C537 C538 1.362 . S
C538 H530 0.930 . S
C538 C537 1.362 . S
C538 C541 1.409 . S
C539 H531 0.930 . S
C539 C540 1.355 . S
C539 C541 1.415 . S
C540 C539 1.355 . S
C540 C542 1.419 . S
C541 C536 1.425 . S
C541 C538 1.409 . S
C541 C539 1.415 . S
C542 H532 0.930 . S
C542 C540 1.419 . S
C542 C543 1.362 . S
C543 H533 0.930 . S
C543 C536 1.409 . S
C543 C542 1.362 . S
H544 C550 0.930 . S
H545 C553 0.930 . S
H546 C554 0.930 . S
H547 C555 0.930 . S
H548 C558 0.930 . S
H549 C559 0.930 . S
C550 H544 0.930 . S
C550 C551 1.355 . S
C550 C552 1.415 . S
C551 C550 1.355 . S
C551 C553 1.419 . S
C552 C550 1.415 . S
C552 C557 1.425 . S
C552 C559 1.409 . S
C553 H545 0.930 . S
C553 C551 1.419 . S
C553 C554 1.362 . S
C554 H546 0.930 . S
C554 C553 1.362 . S
C554 C557 1.409 . S
C555 H547 0.930 . S
C555 C556 1.355 . S
C555 C557 1.415 . S
C556 C555 1.355 . S
C556 C558 1.419 . S
C557 C552 1.425 . S
C557 C554 1.409 . S
C557 C555 1.415 . S
C558 H548 0.930 . S
C558 C556 1.419 . S
C558 C559 1.362 . S
C559 H549 0.930 . S
C559 C552 1.409 . S
C559 C558 1.362 . S
H560 C566 0.930 . S
H561 C569 0.930 . S
H562 C570 0.930 . S
H563 C571 0.930 . S
H564 C574 0.930 . S
H565 C575 0.930 . S
C566 H560 0.930 . S
C566 C567 1.355 . S
C566 C568 1.415 . S
C567 C566 1.355 . S
C567 C569 1.419 . S
C568 C566 1.415 . S
C568 C573 1.425 . S
C568 C575 1.409 . S
C569 H561 0.930 . S
C569 C567 1.419 . S
C569 C570 1.362 . S
C570 H562 0.930 . S
C570 C569 1.362 . S
C570 C573 1.409 . S
C571 H563 0.930 . S
C571 C572 1.355 . S
C571 C573 1.415 . S
C572 C571 1.355 . S
C572 C574 1.419 . S
C573 C568 1.425 . S
C573 C570 1.409 . S
C573 C571 1.415 . S
C574 H564 0.930 . S
C574 C572 1.419 . S
C574 C575 1.362 . S
C575 H565 0.930 . S
C575 C568 1.409 . S
C575 C574 1.362 . S
H576 C582 0.930 . S
H577 C585 0.930 . S
H578 C586 0.930 . S
H579 C587 0.930 . S
H580 C590 0.930 . S
H581 C591 0.930 . S
C582 H576 0.930 . S
C582 C583 1.355 . S
C582 C584 1.415 . S
C583 C582 1.355 . S
C583 C585 1.419 . S
C584 C582 1.415 . S
C584 C589 1.425 . S
C584 C591 1.409 . S
C585 H577 0.930 . S
C585 C583 1.419 . S
C585 C586 1.362 . S
C586 H578 0.930 . S
C586 C585 1.362 . S
C586 C589 1.409 . S
C587 H579 0.930 . S
C587 C588 1.355 . S
C587 C589 1.415 . S
C588 C587 1.355 . S
C588 C590 1.419 . S
C589 C584 1.425 . S
C589 C586 1.409 . S
C589 C587 1.415 . S
C590 H580 0.930 . S
C590 C588 1.419 . S
C590 C591 1.362 . S
C591 H581 0.930 . S
C591 C584 1.409 . S
C591 C590 1.362 . S
H592 C598 0.930 . S
H593 C601 0.930 . S
H594 C602 0.930 . S
H595 C603 0.930 . S
H596 C606 0.930 . S
H597 C607 0.930 . S
C598 H592 0.930 . S
C598 C599 1.355 . S
C598 C600 1.415 . S
C599 C598 1.355 . S
C599 C601 1.419 . S
C600 C598 1.415 . S
C600 C605 1.425 . S
C600 C607 1.409 . S
C601 H593 0.930 . S
C601 C599 1.419 . S
C601 C602 1.362 . S
C602 H594 0.930 . S
C602 C601 1.362 . S
C602 C605 1.409 . S
C603 H595 0.930 . S
C603 C604 1.355 . S
C603 C605 1.415 . S
C604 C603 1.355 . S
C604 C606 1.419 . S
C605 C600 1.425 . S
C605 C602 1.409 . S
C605 C603 1.415 . S
C606 H596 0.930 . S
C606 C604 1.419 . S
C606 C607 1.362 . S
C607 H597 0.930 . S
C607 C600 1.409 . S
C607 C606 1.362 . S
H608 C614 0.930 . S
H609 C617 0.930 . S
H610 C618 0.930 . S
H611 C619 0.930 . S
H612 C622 0.930 . S
H613 C623 0.930 . S
C614 H608 0.930 . S
C614 C615 1.355 . S
C614 C616 1.415 . S
C615 C614 1.355 . S
C615 C617 1.419 . S
C616 C614 1.415 . S
C616 C621 1.425 . S
C616 C623 1.409 . S
C617 H609 0.930 . S
C617 C615 1.419 . S
C617 C618 1.362 . S
C618 H610 0.930 . S
C618 C617 1.362 . S
C618 C621 1.409 . S
C619 H611 0.930 . S
C619 C620 1.355 . S
C619 C621 1.415 . S
C620 C619 1.355 . S
C620 C622 1.419 . S
C621 C616 1.425 . S
C621 C618 1.409 . S
C621 C619 1.415 . S
C622 H612 0.930 . S
C622 C620 1.419 . S
C622 C623 1.362 . S
C623 H613 0.930 . S
C623 C616 1.409 . S
C623 C622 1.362 . S
H624 C630 0.930 . S
H625 C633 0.930 . S
H626 C634 0.930 . S
H627 C635 0.930 . S
H628 C638 0.930 . S
H629 C639 0.930 . S
C630 H624 0.930 . S
C630 C631 1.355 . S
C630 C632 1.415 . S
C631 C630 1.355 . S
C631 C633 1.419 . S
C632 C630 1.415 . S
C632 C637 1.425 . S
C632 C639 1.409 . S
C633 H625 0.930 . S
C633 C631 1.419 . S
C633 C634 1.362 . S
C634 H626 0.930 . S
C634 C633 1.362 . S
C634 C637 1.409 . S
C635 H627 0.930 . S
C635 C636 1.355 . S
C635 C637 1.415 . S
C636 C635 1.355 . S
C636 C638 1.419 . S
C637 C632 1.425 . S
C637 C634 1.409 . S
C637 C635 1.415 . S
C638 H628 0.930 . S
C638 C636 1.419 . S
C638 C639 1.362 . S
C639 H629 0.930 . S
C639 C632 1.409 . S
C639 C638 1.362 . S
H640 C646 0.930 . S
H641 C649 0.930 . S
H642 C650 0.930 . S
H643 C651 0.930 . S
H644 C654 0.930 . S
H645 C655 0.930 . S
C646 H640 0.930 . S
C646 C647 1.355 . S
C646 C648 1.415 . S
C647 C646 1.355 . S
C647 C649 1.419 . S
C648 C646 1.415 . S
C648 C653 1.425 . S
C648 C655 1.409 . S
C649 H641 0.930 . S
C649 C647 1.419 . S
C649 C650 1.362 . S
C650 H642 0.930 . S
C650 C649 1.362 . S
C650 C653 1.409 . S
C651 H643 0.930 . S
C651 C652 1.355 . S
C651 C653 1.415 . S
C652 C651 1.355 . S
C652 C654 1.419 . S
C653 C648 1.425 . S
C653 C650 1.409 . S
C653 C651 1.415 . S
C654 H644 0.930 . S
C654 C652 1.419 . S
C654 C655 1.362 . S
C655 H645 0.930 . S
C655 C648 1.409 . S
C655 C654 1.362 . S
H656 C662 0.930 . S
H657 C665 0.930 . S
H658 C666 0.930 . S
H659 C667 0.930 . S
H660 C670 0.930 . S
H661 C671 0.930 . S
C662 H656 0.930 . S
C662 C663 1.355 . S
C662 C664 1.415 . S
C663 C662 1.355 . S
C663 C665 1.419 . S
C664 C662 1.415 . S
C664 C669 1.425 . S
C664 C671 1.409 . S
C665 H657 0.930 . S
C665 C663 1.419 . S
C665 C666 1.362 . S
C666 H658 0.930 . S
C666 C665 1.362 . S
C666 C669 1.409 . S
C667 H659 0.930 . S
C667 C668 1.355 . S
C667 C669 1.415 . S
C668 C667 1.355 . S
C668 C670 1.419 . S
C669 C664 1.425 . S
C669 C666 1.409 . S
C669 C667 1.415 . S
C670 H660 0.930 . S
C670 C668 1.419 . S
C670 C671 1.362 . S
C671 H661 0.930 . S
C671 C664 1.409 . S
C671 C670 1.362 . S
H672 C678 0.930 . S
H673 C681 0.930 . S
H674 C682 0.930 . S
H675 C683 0.930 . S
H676 C686 0.930 . S
H677 C687 0.930 . S
C678 H672 0.930 . S
C678 C679 1.355 . S
C678 C680 1.415 . S
C679 C678 1.355 . S
C679 C681 1.419 . S
C680 C678 1.415 . S
C680 C685 1.425 . S
C680 C687 1.409 . S
C681 H673 0.930 . S
C681 C679 1.419 . S
C681 C682 1.362 . S
C682 H674 0.930 . S
C682 C681 1.362 . S
C682 C685 1.409 . S
C683 H675 0.930 . S
C683 C684 1.355 . S
C683 C685 1.415 . S
C684 C683 1.355 . S
C684 C686 1.419 . S
C685 C680 1.425 . S
C685 C682 1.409 . S
C685 C683 1.415 . S
C686 H676 0.930 . S
C686 C684 1.419 . S
C686 C687 1.362 . S
C687 H677 0.930 . S
C687 C680 1.409 . S
C687 C686 1.362 . S
H688 C694 0.930 . S
H689 C697 0.930 . S
H690 C698 0.930 . S
H691 C699 0.930 . S
H692 C702 0.930 . S
H693 C703 0.930 . S
C694 H688 0.930 . S
C694 C695 1.355 . S
C694 C696 1.415 . S
C695 C694 1.355 . S
C695 C697 1.419 . S
C696 C694 1.415 . S
C696 C701 1.425 . S
C696 C703 1.409 . S
C697 H689 0.930 . S
C697 C695 1.419 . S
C697 C698 1.362 . S
C698 H690 0.930 . S
C698 C697 1.362 . S
C698 C701 1.409 . S
C699 H691 0.930 . S
C699 C700 1.355 . S
C699 C701 1.415 . S
C700 C699 1.355 . S
C700 C702 1.419 . S
C701 C696 1.425 . S
C701 C698 1.409 . S
C701 C699 1.415 . S
C702 H692 0.930 . S
C702 C700 1.419 . S
C702 C703 1.362 . S
C703 H693 0.930 . S
C703 C696 1.409 . S
C703 C702 1.362 . S
H704 C710 0.930 . S
H705 C713 0.930 . S
H706 C714 0.930 . S
H707 C715 0.930 . S
H708 C718 0.930 . S
H709 C719 0.930 . S
C710 H704 0.930 . S
C710 C711 1.355 . S
C710 C712 1.415 . S
C711 C710 1.355 . S
C711 C713 1.419 . S
C712 C710 1.415 . S
C712 C717 1.425 . S
C712 C719 1.409 . S
C713 H705 0.930 . S
C713 C711 1.419 . S
C713 C714 1.362 . S
C714 H706 0.930 . S
C714 C713 1.362 . S
C714 C717 1.409 . S
C715 H707 0.930 . S
C715 C716 1.355 . S
C715 C717 1.415 . S
C716 C715 1.355 . S
C716 C718 1.419 . S
C717 C712 1.425 . S
C717 C714 1.409 . S
C717 C715 1.415 . S
C718 H708 0.930 . S
C718 C716 1.419 . S
C718 C719 1.362 . S
C719 H709 0.930 . S
C719 C712 1.409 . S
C719 C718 1.362 . S
H720 C726 0.930 . S
H721 C729 0.930 . S
H722 C730 0.930 . S
H723 C731 0.930 . S
H724 C734 0.930 . S
H725 C735 0.930 . S
C726 H720 0.930 . S
C726 C727 1.355 . S
C726 C728 1.415 . S
C727 C726 1.355 . S
C727 C729 1.419 . S
C728 C726 1.415 . S
C728 C733 1.425 1_554 S
C728 C735 1.409 1_554 S
C729 H721 0.930 . S
C729 C727 1.419 . S
C729 C730 1.362 . S
C730 H722 0.930 . S
C730 C729 1.362 . S
C730 C733 1.409 1_554 S
C731 H723 0.930 . S
C731 C732 1.355 . S
C731 C733 1.415 . S
C732 C731 1.355 . S
C732 C734 1.419 . S
C733 C728 1.425 1_556 S
C733 C730 1.409 1_556 S
C733 C731 1.415 . S
C734 H724 0.930 . S
C734 C732 1.419 . S
C734 C735 1.362 . S
C735 H725 0.930 . S
C735 C728 1.409 1_556 S
C735 C734 1.362 . S
H736 C742 0.930 . S
H737 C745 0.930 . S
H738 C746 0.930 . S
H739 C747 0.930 . S
H740 C750 0.930 . S
H741 C751 0.930 . S
C742 H736 0.930 . S
C742 C743 1.355 . S
C742 C744 1.415 . S
C743 C742 1.355 . S
C743 C745 1.419 . S
C744 C742 1.415 . S
C744 C749 1.425 1_556 S
C744 C751 1.409 1_556 S
C745 H737 0.930 . S
C745 C743 1.419 . S
C745 C746 1.362 . S
C746 H738 0.930 . S
C746 C745 1.362 . S
C746 C749 1.409 1_556 S
C747 H739 0.930 . S
C747 C748 1.355 . S
C747 C749 1.415 . S
C748 C747 1.355 . S
C748 C750 1.419 . S
C749 C744 1.425 1_554 S
C749 C746 1.409 1_554 S
C749 C747 1.415 . S
C750 H740 0.930 . S
C750 C748 1.419 . S
C750 C751 1.362 . S
C751 H741 0.930 . S
C751 C744 1.409 1_554 S
C751 C750 1.362 . S
H752 C758 0.930 . S
H753 C761 0.930 . S
H754 C762 0.930 . S
H755 C763 0.930 . S
H756 C766 0.930 . S
H757 C767 0.930 . S
C758 H752 0.930 . S
C758 C759 1.355 . S
C758 C760 1.415 . S
C759 C758 1.355 . S
C759 C761 1.419 . S
C760 C758 1.415 . S
C760 C765 1.425 1_556 S
C760 C767 1.409 1_556 S
C761 H753 0.930 . S
C761 C759 1.419 . S
C761 C762 1.362 . S
C762 H754 0.930 . S
C762 C761 1.362 . S
C762 C765 1.409 1_556 S
C763 H755 0.930 . S
C763 C764 1.355 . S
C763 C765 1.415 . S
C764 C763 1.355 . S
C764 C766 1.419 . S
C765 C760 1.425 1_554 S
C765 C762 1.409 1_554 S
C765 C763 1.415 . S
C766 H756 0.930 . S
C766 C764 1.419 . S
C766 C767 1.362 . S
C767 H757 0.930 . S
C767 C760 1.409 1_554 S
C767 C766 1.362 . S
H768 C774 0.930 . S
H769 C777 0.930 . S
H770 C778 0.930 . S
H771 C779 0.930 . S
H772 C782 0.930 . S
H773 C783 0.930 . S
C774 H768 0.930 . S
C774 C775 1.355 . S
C774 C776 1.415 . S
C775 C774 1.355 . S
C775 C777 1.419 . S
C776 C774 1.415 . S
C776 C781 1.425 1_554 S
C776 C783 1.409 1_554 S
C777 H769 0.930 . S
C777 C775 1.419 . S
C777 C778 1.362 . S
C778 H770 0.930 . S
C778 C777 1.362 . S
C778 C781 1.409 1_554 S
C779 H771 0.930 . S
C779 C780 1.355 . S
C779 C781 1.415 . S
C780 C779 1.355 . S
C780 C782 1.419 . S
C781 C776 1.425 1_556 S
C781 C778 1.409 1_556 S
C781 C779 1.415 . S
C782 H772 0.930 . S
C782 C780 1.419 . S
C782 C783 1.362 . S
C783 H773 0.930 . S
C783 C776 1.409 1_556 S
C783 C782 1.362 . S
H784 C790 0.930 . S
H785 C793 0.930 . S
H786 C794 0.930 . S
H787 C795 0.930 . S
H788 C798 0.930 . S
H789 C799 0.930 . S
C790 H784 0.930 . S
C790 C791 1.355 . S
C790 C792 1.415 . S
C791 C790 1.355 . S
C791 C793 1.419 . S
C792 C790 1.415 . S
C792 C797 1.425 1_554 S
C792 C799 1.409 1_554 S
C793 H785 0.930 . S
C793 C791 1.419 . S
C793 C794 1.362 . S
C794 H786 0.930 . S
C794 C793 1.362 . S
C794 C797 1.409 1_554 S
C795 H787 0.930 . S
C795 C796 1.355 . S
C795 C797 1.415 . S
C796 C795 1.355 . S
C796 C798 1.419 . S
C797 C792 1.425 1_556 S
C797 C794 1.409 1_556 S
C797 C795 1.415 . S
C798 H788 0.930 . S
C798 C796 1.419 . S
C798 C799 1.362 . S
C799 H789 0.930 . S
C799 C792 1.409 1_556 S
C799 C798 1.362 . S
H800 C806 0.930 . S
H801 C809 0.930 . S
H802 C810 0.930 . S
H803 C811 0.930 . S
H804 C814 0.930 . S
H805 C815 0.930 . S
C806 H800 0.930 . S
C806 C807 1.355 . S
C806 C808 1.415 . S
C807 C806 1.355 . S
C807 C809 1.419 . S
C808 C806 1.415 . S
C808 C813 1.425 1_556 S
C808 C815 1.409 1_556 S
C809 H801 0.930 . S
C809 C807 1.419 . S
C809 C810 1.362 . S
C810 H802 0.930 . S
C810 C809 1.362 . S
C810 C813 1.409 1_556 S
C811 H803 0.930 . S
C811 C812 1.355 . S
C811 C813 1.415 . S
C812 C811 1.355 . S
C812 C814 1.419 . S
C813 C808 1.425 1_554 S
C813 C810 1.409 1_554 S
C813 C811 1.415 . S
C814 H804 0.930 . S
C814 C812 1.419 . S
C814 C815 1.362 . S
C815 H805 0.930 . S
C815 C808 1.409 1_554 S
C815 C814 1.362 . S
H816 C822 0.930 . S
H817 C825 0.930 . S
H818 C826 0.930 . S
H819 C827 0.930 . S
H820 C830 0.930 . S
H821 C831 0.930 . S
C822 H816 0.930 . S
C822 C823 1.355 . S
C822 C824 1.415 . S
C823 C822 1.355 . S
C823 C825 1.419 . S
C824 C822 1.415 . S
C824 C829 1.425 . S
C824 C831 1.409 . S
C825 H817 0.930 . S
C825 C823 1.419 . S
C825 C826 1.362 . S
C826 H818 0.930 . S
C826 C825 1.362 . S
C826 C829 1.409 . S
C827 H819 0.930 . S
C827 C828 1.355 . S
C827 C829 1.415 . S
C828 C827 1.355 . S
C828 C830 1.419 . S
C829 C824 1.425 . S
C829 C826 1.409 . S
C829 C827 1.415 . S
C830 H820 0.930 . S
C830 C828 1.419 . S
C830 C831 1.362 . S
C831 H821 0.930 . S
C831 C824 1.409 . S
C831 C830 1.362 . S
H832 C838 0.930 . S
H833 C841 0.930 . S
H834 C842 0.930 . S
H835 C843 0.930 . S
H836 C846 0.930 . S
H837 C847 0.930 . S
C838 H832 0.930 . S
C838 C839 1.355 . S
C838 C840 1.415 . S
C839 C838 1.355 . S
C839 C841 1.419 . S
C840 C838 1.415 . S
C840 C845 1.425 . S
C840 C847 1.409 . S
C841 H833 0.930 . S
C841 C839 1.419 . S
C841 C842 1.362 . S
C842 H834 0.930 . S
C842 C841 1.362 . S
C842 C845 1.409 . S
C843 H835 0.930 . S
C843 C844 1.355 . S
C843 C845 1.415 . S
C844 C843 1.355 . S
C844 C846 1.419 . S
C845 C840 1.425 . S
C845 C842 1.409 . S
C845 C843 1.415 . S
C846 H836 0.930 . S
C846 C844 1.419 . S
C846 C847 1.362 . S
C847 H837 0.930 . S
C847 C840 1.409 . S
C847 C846 1.362 . S
H848 C854 0.930 . S
H849 C857 0.930 . S
H850 C858 0.930 . S
H851 C859 0.930 . S
H852 C862 0.930 . S
H853 C863 0.930 . S
C854 H848 0.930 . S
C854 C855 1.355 . S
C854 C856 1.415 . S
C855 C854 1.355 . S
C855 C857 1.419 . S
C856 C854 1.415 . S
C856 C861 1.425 . S
C856 C863 1.409 . S
C857 H849 0.930 . S
C857 C855 1.419 . S
C857 C858 1.362 . S
C858 H850 0.930 . S
C858 C857 1.362 . S
C858 C861 1.409 . S
C859 H851 0.930 . S
C859 C860 1.355 . S
C859 C861 1.415 . S
C860 C859 1.355 . S
C860 C862 1.419 . S
C861 C856 1.425 . S
C861 C858 1.409 . S
C861 C859 1.415 . S
C862 H852 0.930 . S
C862 C860 1.419 . S
C862 C863 1.362 . S
C863 H853 0.930 . S
C863 C856 1.409 . S
C863 C862 1.362 . S
H864 C870 0.930 . S
H865 C873 0.930 . S
H866 C874 0.930 . S
H867 C875 0.930 . S
H868 C878 0.930 . S
H869 C879 0.930 . S
C870 H864 0.930 . S
C870 C871 1.355 . S
C870 C872 1.415 . S
C871 C870 1.355 . S
C871 C873 1.419 . S
C872 C870 1.415 . S
C872 C877 1.425 . S
C872 C879 1.409 . S
C873 H865 0.930 . S
C873 C871 1.419 . S
C873 C874 1.362 . S
C874 H866 0.930 . S
C874 C873 1.362 . S
C874 C877 1.409 . S
C875 H867 0.930 . S
C875 C876 1.355 . S
C875 C877 1.415 . S
C876 C875 1.355 . S
C876 C878 1.419 . S
C877 C872 1.425 . S
C877 C874 1.409 . S
C877 C875 1.415 . S
C878 H868 0.930 . S
C878 C876 1.419 . S
C878 C879 1.362 . S
C879 H869 0.930 . S
C879 C872 1.409 . S
C879 C878 1.362 . S
H880 C886 0.930 . S
H881 C889 0.930 . S
H882 C890 0.930 . S
H883 C891 0.930 . S
H884 C894 0.930 . S
H885 C895 0.930 . S
C886 H880 0.930 . S
C886 C887 1.355 . S
C886 C888 1.415 . S
C887 C886 1.355 . S
C887 C889 1.419 . S
C888 C886 1.415 . S
C888 C893 1.425 . S
C888 C895 1.409 . S
C889 H881 0.930 . S
C889 C887 1.419 . S
C889 C890 1.362 . S
C890 H882 0.930 . S
C890 C889 1.362 . S
C890 C893 1.409 . S
C891 H883 0.930 . S
C891 C892 1.355 . S
C891 C893 1.415 . S
C892 C891 1.355 . S
C892 C894 1.419 . S
C893 C888 1.425 . S
C893 C890 1.409 . S
C893 C891 1.415 . S
C894 H884 0.930 . S
C894 C892 1.419 . S
C894 C895 1.362 . S
C895 H885 0.930 . S
C895 C888 1.409 . S
C895 C894 1.362 . S
H896 C902 0.930 . S
H897 C905 0.930 . S
H898 C906 0.930 . S
H899 C907 0.930 . S
H900 C910 0.930 . S
H901 C911 0.930 . S
C902 H896 0.930 . S
C902 C903 1.355 . S
C902 C904 1.415 . S
C903 C902 1.355 . S
C903 C905 1.419 . S
C904 C902 1.415 . S
C904 C909 1.425 . S
C904 C911 1.409 . S
C905 H897 0.930 . S
C905 C903 1.419 . S
C905 C906 1.362 . S
C906 H898 0.930 . S
C906 C905 1.362 . S
C906 C909 1.409 . S
C907 H899 0.930 . S
C907 C908 1.355 . S
C907 C909 1.415 . S
C908 C907 1.355 . S
C908 C910 1.419 . S
C909 C904 1.425 . S
C909 C906 1.409 . S
C909 C907 1.415 . S
C910 H900 0.930 . S
C910 C908 1.419 . S
C910 C911 1.362 . S
C911 H901 0.930 . S
C911 C904 1.409 . S
C911 C910 1.362 . S
H912 C918 0.930 . S
H913 C921 0.930 . S
H914 C922 0.930 . S
H915 C923 0.930 . S
H916 C926 0.930 . S
H917 C927 0.930 . S
C918 H912 0.930 . S
C918 C919 1.355 . S
C918 C920 1.415 . S
C919 C918 1.355 . S
C919 C921 1.419 . S
C920 C918 1.415 . S
C920 C925 1.425 . S
C920 C927 1.409 . S
C921 H913 0.930 . S
C921 C919 1.419 . S
C921 C922 1.362 . S
C922 H914 0.930 . S
C922 C921 1.362 . S
C922 C925 1.409 . S
C923 H915 0.930 . S
C923 C924 1.355 . S
C923 C925 1.415 . S
C924 C923 1.355 . S
C924 C926 1.419 . S
C925 C920 1.425 . S
C925 C922 1.409 . S
C925 C923 1.415 . S
C926 H916 0.930 . S
C926 C924 1.419 . S
C926 C927 1.362 . S
C927 H917 0.930 . S
C927 C920 1.409 . S
C927 C926 1.362 . S
H928 C934 0.930 . S
H929 C937 0.930 . S
H930 C938 0.930 . S
H931 C939 0.930 . S
H932 C942 0.930 . S
H933 C943 0.930 . S
C934 H928 0.930 . S
C934 C935 1.355 . S
C934 C936 1.415 . S
C935 C934 1.355 . S
C935 C937 1.419 . S
C936 C934 1.415 . S
C936 C941 1.425 . S
C936 C943 1.409 . S
C937 H929 0.930 . S
C937 C935 1.419 . S
C937 C938 1.362 . S
C938 H930 0.930 . S
C938 C937 1.362 . S
C938 C941 1.409 . S
C939 H931 0.930 . S
C939 C940 1.355 . S
C939 C941 1.415 . S
C940 C939 1.355 . S
C940 C942 1.419 . S
C941 C936 1.425 . S
C941 C938 1.409 . S
C941 C939 1.415 . S
C942 H932 0.930 . S
C942 C940 1.419 . S
C942 C943 1.362 . S
C943 H933 0.930 . S
C943 C936 1.409 . S
C943 C942 1.362 . S
H944 C950 0.930 . S
H945 C953 0.930 . S
H946 C954 0.930 . S
H947 C955 0.930 . S
H948 C958 0.930 . S
H949 C959 0.930 . S
C950 H944 0.930 . S
C950 C951 1.355 . S
C950 C952 1.415 . S
C951 C950 1.355 . S
C951 C953 1.419 . S
C952 C950 1.415 . S
C952 C957 1.425 . S
C952 C959 1.409 . S
C953 H945 0.930 . S
C953 C951 1.419 . S
C953 C954 1.362 . S
C954 H946 0.930 . S
C954 C953 1.362 . S
C954 C957 1.409 . S
C955 H947 0.930 . S
C955 C956 1.355 . S
C955 C957 1.415 . S
C956 C955 1.355 . S
C956 C958 1.419 . S
C957 C952 1.425 . S
C957 C954 1.409 . S
C957 C955 1.415 . S
C958 H948 0.930 . S
C958 C956 1.419 . S
C958 C959 1.362 . S
C959 H949 0.930 . S
C959 C952 1.409 . S
C959 C958 1.362 . S
H960 C966 0.930 . S
H961 C969 0.930 . S
H962 C970 0.930 . S
H963 C971 0.930 . S
H964 C974 0.930 . S
H965 C975 0.930 . S
C966 H960 0.930 . S
C966 C967 1.355 . S
C966 C968 1.415 . S
C967 C966 1.355 . S
C967 C969 1.419 . S
C968 C966 1.415 . S
C968 C973 1.425 . S
C968 C975 1.409 . S
C969 H961 0.930 . S
C969 C967 1.419 . S
C969 C970 1.362 . S
C970 H962 0.930 . S
C970 C969 1.362 . S
C970 C973 1.409 . S
C971 H963 0.930 . S
C971 C972 1.355 . S
C971 C973 1.415 . S
C972 C971 1.355 . S
C972 C974 1.419 . S
C973 C968 1.425 . S
C973 C970 1.409 . S
C973 C971 1.415 . S
C974 H964 0.930 . S
C974 C972 1.419 . S
C974 C975 1.362 . S
C975 H965 0.930 . S
C975 C968 1.409 . S
C975 C974 1.362 . S
H976 C982 0.930 . S
H977 C985 0.930 . S
H978 C986 0.930 . S
H979 C987 0.930 . S
H980 C990 0.930 . S
H981 C991 0.930 . S
C982 H976 0.930 . S
C982 C983 1.355 . S
C982 C984 1.415 . S
C983 C982 1.355 . S
C983 C985 1.419 . S
C984 C982 1.415 . S
C984 C989 1.425 . S
C984 C991 1.409 . S
C985 H977 0.930 . S
C985 C983 1.419 . S
C985 C986 1.362 . S
C986 H978 0.930 . S
C986 C985 1.362 . S
C986 C989 1.409 . S
C987 H979 0.930 . S
C987 C988 1.355 . S
C987 C989 1.415 . S
C988 C987 1.355 . S
C988 C990 1.419 . S
C989 C984 1.425 . S
C989 C986 1.409 . S
C989 C987 1.415 . S
C990 H980 0.930 . S
C990 C988 1.419 . S
C990 C991 1.362 . S
C991 H981 0.930 . S
C991 C984 1.409 . S
C991 C990 1.362 . S
H992 C998 0.930 . S
H993 C1001 0.930 . S
H994 C1002 0.930 . S
H995 C1003 0.930 . S
H996 C1006 0.930 . S
H997 C1007 0.930 . S
C998 H992 0.930 . S
C998 C999 1.355 . S
C998 C1000 1.415 . S
C999 C998 1.355 . S
C999 C1001 1.419 . S
C1000 C998 1.415 . S
C1000 C1005 1.425 . S
C1000 C1007 1.409 . S
C1001 H993 0.930 . S
C1001 C999 1.419 . S
C1001 C1002 1.362 . S
C1002 H994 0.930 . S
C1002 C1001 1.362 . S
C1002 C1005 1.409 . S
C1003 H995 0.930 . S
C1003 C1004 1.355 . S
C1003 C1005 1.415 . S
C1004 C1003 1.355 . S
C1004 C1006 1.419 . S
C1005 C1000 1.425 . S
C1005 C1002 1.409 . S
C1005 C1003 1.415 . S
C1006 H996 0.930 . S
C1006 C1004 1.419 . S
C1006 C1007 1.362 . S
C1007 H997 0.930 . S
C1007 C1000 1.409 . S
C1007 C1006 1.362 . S
H1008 C1014 0.930 . S
H1009 C1017 0.930 . S
H1010 C1018 0.930 . S
H1011 C1019 0.930 . S
H1012 C1022 0.930 . S
H1013 C1023 0.930 . S
C1014 H1008 0.930 . S
C1014 C1015 1.355 . S
C1014 C1016 1.415 . S
C1015 C1014 1.355 . S
C1015 C1017 1.419 . S
C1016 C1014 1.415 . S
C1016 C1021 1.425 . S
C1016 C1023 1.409 . S
C1017 H1009 0.930 . S
C1017 C1015 1.419 . S
C1017 C1018 1.362 . S
C1018 H1010 0.930 . S
C1018 C1017 1.362 . S
C1018 C1021 1.409 . S
C1019 H1011 0.930 . S
C1019 C1020 1.355 . S
C1019 C1021 1.415 . S
C1020 C1019 1.355 . S
C1020 C1022 1.419 . S
C1021 C1016 1.425 . S
C1021 C1018 1.409 . S
C1021 C1019 1.415 . S
C1022 H1012 0.930 . S
C1022 C1020 1.419 . S
C1022 C1023 1.362 . S
C1023 H1013 0.930 . S
C1023 C1016 1.409 . S
C1023 C1022 1.362 . S
H1024 C1030 0.930 . S
H1025 C1033 0.930 . S
H1026 C1034 0.930 . S
H1027 C1035 0.930 . S
H1028 C1038 0.930 . S
H1029 C1039 0.930 . S
C1030 H1024 0.930 . S
C1030 C1031 1.355 . S
C1030 C1032 1.415 . S
C1031 C1030 1.355 . S
C1031 C1033 1.419 . S
C1032 C1030 1.415 . S
C1032 C1037 1.425 . S
C1032 C1039 1.409 . S
C1033 H1025 0.930 . S
C1033 C1031 1.419 . S
C1033 C1034 1.362 . S
C1034 H1026 0.930 . S
C1034 C1033 1.362 . S
C1034 C1037 1.409 . S
C1035 H1027 0.930 . S
C1035 C1036 1.355 . S
C1035 C1037 1.415 . S
C1036 C1035 1.355 . S
C1036 C1038 1.419 . S
C1037 C1032 1.425 . S
C1037 C1034 1.409 . S
C1037 C1035 1.415 . S
C1038 H1028 0.930 . S
C1038 C1036 1.419 . S
C1038 C1039 1.362 . S
C1039 H1029 0.930 . S
C1039 C1032 1.409 . S
C1039 C1038 1.362 . S
H1040 C1046 0.930 . S
H1041 C1049 0.930 . S
H1042 C1050 0.930 . S
H1043 C1051 0.930 . S
H1044 C1054 0.930 . S
H1045 C1055 0.930 . S
C1046 H1040 0.930 . S
C1046 C1047 1.355 . S
C1046 C1048 1.415 . S
C1047 C1046 1.355 . S
C1047 C1049 1.419 . S
C1048 C1046 1.415 . S
C1048 C1053 1.425 . S
C1048 C1055 1.409 . S
C1049 H1041 0.930 . S
C1049 C1047 1.419 . S
C1049 C1050 1.362 . S
C1050 H1042 0.930 . S
C1050 C1049 1.362 . S
C1050 C1053 1.409 . S
C1051 H1043 0.930 . S
C1051 C1052 1.355 . S
C1051 C1053 1.415 . S
C1052 C1051 1.355 . S
C1052 C1054 1.419 . S
C1053 C1048 1.425 . S
C1053 C1050 1.409 . S
C1053 C1051 1.415 . S
C1054 H1044 0.930 . S
C1054 C1052 1.419 . S
C1054 C1055 1.362 . S
C1055 H1045 0.930 . S
C1055 C1048 1.409 . S
C1055 C1054 1.362 . S
H1056 C1062 0.930 . S
H1057 C1065 0.930 . S
H1058 C1066 0.930 . S
H1059 C1067 0.930 . S
H1060 C1070 0.930 . S
H1061 C1071 0.930 . S
C1062 H1056 0.930 . S
C1062 C1063 1.355 . S
C1062 C1064 1.415 . S
C1063 C1062 1.355 . S
C1063 C1065 1.419 . S
C1064 C1062 1.415 . S
C1064 C1069 1.425 . S
C1064 C1071 1.409 . S
C1065 H1057 0.930 . S
C1065 C1063 1.419 . S
C1065 C1066 1.362 . S
C1066 H1058 0.930 . S
C1066 C1065 1.362 . S
C1066 C1069 1.409 . S
C1067 H1059 0.930 . S
C1067 C1068 1.355 . S
C1067 C1069 1.415 . S
C1068 C1067 1.355 . S
C1068 C1070 1.419 . S
C1069 C1064 1.425 . S
C1069 C1066 1.409 . S
C1069 C1067 1.415 . S
C1070 H1060 0.930 . S
C1070 C1068 1.419 . S
C1070 C1071 1.362 . S
C1071 H1061 0.930 . S
C1071 C1064 1.409 . S
C1071 C1070 1.362 . S
H1072 C1078 0.930 . S
H1073 C1081 0.930 . S
H1074 C1082 0.930 . S
H1075 C1083 0.930 . S
H1076 C1086 0.930 . S
H1077 C1087 0.930 . S
C1078 H1072 0.930 . S
C1078 C1079 1.355 . S
C1078 C1080 1.415 . S
C1079 C1078 1.355 . S
C1079 C1081 1.419 . S
C1080 C1078 1.415 . S
C1080 C1085 1.425 . S
C1080 C1087 1.409 . S
C1081 H1073 0.930 . S
C1081 C1079 1.419 . S
C1081 C1082 1.362 . S
C1082 H1074 0.930 . S
C1082 C1081 1.362 . S
C1082 C1085 1.409 . S
C1083 H1075 0.930 . S
C1083 C1084 1.355 . S
C1083 C1085 1.415 . S
C1084 C1083 1.355 . S
C1084 C1086 1.419 . S
C1085 C1080 1.425 . S
C1085 C1082 1.409 . S
C1085 C1083 1.415 . S
C1086 H1076 0.930 . S
C1086 C1084 1.419 . S
C1086 C1087 1.362 . S
C1087 H1077 0.930 . S
C1087 C1080 1.409 . S
C1087 C1086 1.362 . S
H1088 C1094 0.930 . S
H1089 C1097 0.930 . S
H1090 C1098 0.930 . S
H1091 C1099 0.930 . S
H1092 C1102 0.930 . S
H1093 C1103 0.930 . S
C1094 H1088 0.930 . S
C1094 C1095 1.355 . S
C1094 C1096 1.415 . S
C1095 C1094 1.355 . S
C1095 C1097 1.419 . S
C1096 C1094 1.415 . S
C1096 C1101 1.425 . S
C1096 C1103 1.409 . S
C1097 H1089 0.930 . S
C1097 C1095 1.419 . S
C1097 C1098 1.362 . S
C1098 H1090 0.930 . S
C1098 C1097 1.362 . S
C1098 C1101 1.409 . S
C1099 H1091 0.930 . S
C1099 C1100 1.355 . S
C1099 C1101 1.415 . S
C1100 C1099 1.355 . S
C1100 C1102 1.419 . S
C1101 C1096 1.425 . S
C1101 C1098 1.409 . S
C1101 C1099 1.415 . S
C1102 H1092 0.930 . S
C1102 C1100 1.419 . S
C1102 C1103 1.362 . S
C1103 H1093 0.930 . S
C1103 C1096 1.409 . S
C1103 C1102 1.362 . S
C343 C9 1.540 . S
C348 C107 1.510 . S
C359 C121 1.551 . S
C364 C23 1.505 . S
C375 C37 1.523 . S
C380 C135 1.526 . S
C391 C51 1.512 . S
C396 C149 1.545 . S
C407 C163 1.507 . S
C412 C65 1.544 . S
C423 C79 1.502 . S
C428 C93 1.552 . S
C439 C177 1.505 . S
C444 C275 1.550 . S
C455 C191 1.519 . S
C460 C289 1.531 . S
C471 C303 1.512 . S
C476 C205 1.545 . S
C487 C219 1.503 . S
C492 C317 1.549 . S
C503 C233 1.535 . S
C508 C331 1.523 . S
C519 C261 1.542 . S
C524 C247 1.515 . S
C535 C8 1.391 . S
C540 C120 1.390 . S
C551 C134 1.413 . S
C556 C22 1.413 . S
C567 C148 1.411 . S
C572 C36 1.410 . S
C583 C50 1.391 . S
C588 C162 1.390 . S
C599 C64 1.408 . S
C604 C92 1.409 . S
C615 C78 1.411 . S
C620 C106 1.411 . S
C631 C288 1.403 . S
C636 C176 1.402 . S
C647 C190 1.392 . S
C652 C302 1.393 . S
C663 C316 1.401 . S
C668 C204 1.402 . S
C679 C330 1.395 . S
C684 C218 1.394 . S
C695 C260 1.405 . S
C700 C232 1.404 . S
C711 C246 1.409 . S
C716 C274 1.408 . S
C727 C7 1.498 . S
C732 C217 1.546 . S
C743 C231 1.554 . S
C748 C21 1.490 . S
C759 C245 1.549 . S
C764 C35 1.495 . S
C775 C49 1.529 . S
C780 C175 1.516 . S
C791 C63 1.532 . S
C796 C189 1.512 . S
C807 C203 1.497 . S
C812 C77 1.547 . S
C823 C301 1.496 . S
C828 C91 1.547 . S
C839 C315 1.553 . S
C844 C105 1.491 . S
C855 C329 1.544 . S
C860 C119 1.500 . S
C871 C259 1.523 . S
C876 C133 1.522 . S
C887 C147 1.504 . S
C892 C273 1.540 . S
C903 C161 1.557 . S
C908 C287 1.487 . S
C919 C3 1.465 . S
C924 C143 1.453 . S
C935 C157 1.443 . S
C940 C17 1.456 . S
C951 C87 1.467 . S
C956 C31 1.458 . S
C967 C45 1.464 . S
C972 C101 1.466 . S
C983 C59 1.458 . S
C988 C115 1.467 . S
C999 C73 1.461 . S
C1004 C129 1.447 . S
C1015 C171 1.441 . S
C1020 C311 1.445 . S
C1031 C185 1.442 . S
C1036 C325 1.454 . S
C1047 C199 1.457 . S
C1052 C255 1.467 . S
C1063 C269 1.450 . S
C1068 C213 1.441 . S
C1079 C227 1.466 . S
C1084 C283 1.457 . S
C1095 C241 1.450 . S
C1100 C297 1.441 . S
