# Generated by pormake.
# Topology wge, (5)-cn, num edge types: 1
# Building blocks:
#     Node 0, Type 0, BuildingBlock: XOMCOT_clean_sbu_0, # of connection points: 5
#     Node 1, Type 0, BuildingBlock: XOMCOT_clean_sbu_0, # of connection points: 5
#     Node 2, Type 0, BuildingBlock: XOMCOT_clean_sbu_0, # of connection points: 5
#     Node 3, Type 0, BuildingBlock: XOMCOT_clean_sbu_0, # of connection points: 5
#     Node 4, Type 0, BuildingBlock: XOMCOT_clean_sbu_0, # of connection points: 5
#     Node 5, Type 0, BuildingBlock: XOMCOT_clean_sbu_0, # of connection points: 5
#     Node 6, Type 0, BuildingBlock: XOMCOT_clean_sbu_0, # of connection points: 5
#     Node 7, Type 0, BuildingBlock: XOMCOT_clean_sbu_0, # of connection points: 5
#     Node 8, Type 0, BuildingBlock: XOMCOT_clean_sbu_0, # of connection points: 5
#     Node 9, Type 0, BuildingBlock: XOMCOT_clean_sbu_0, # of connection points: 5
#     Node 10, Type 0, BuildingBlock: XOMCOT_clean_sbu_0, # of connection points: 5
#     Node 11, Type 0, BuildingBlock: XOMCOT_clean_sbu_0, # of connection points: 5
#     Node 12, Type 0, BuildingBlock: XOMCOT_clean_sbu_0, # of connection points: 5
#     Node 13, Type 0, BuildingBlock: XOMCOT_clean_sbu_0, # of connection points: 5
#     Node 14, Type 0, BuildingBlock: XOMCOT_clean_sbu_0, # of connection points: 5
#     Node 15, Type 0, BuildingBlock: XOMCOT_clean_sbu_0, # of connection points: 5
#     Node 16, Type 0, BuildingBlock: XOMCOT_clean_sbu_0, # of connection points: 5
#     Node 17, Type 0, BuildingBlock: XOMCOT_clean_sbu_0, # of connection points: 5
#     Node 18, Type 0, BuildingBlock: XOMCOT_clean_sbu_0, # of connection points: 5
#     Node 19, Type 0, BuildingBlock: XOMCOT_clean_sbu_0, # of connection points: 5
#     Node 20, Type 0, BuildingBlock: XOMCOT_clean_sbu_0, # of connection points: 5
#     Node 21, Type 0, BuildingBlock: XOMCOT_clean_sbu_0, # of connection points: 5
#     Node 22, Type 0, BuildingBlock: XOMCOT_clean_sbu_0, # of connection points: 5
#     Node 23, Type 0, BuildingBlock: XOMCOT_clean_sbu_0, # of connection points: 5
#     Node 24, Type 0, BuildingBlock: XOMCOT_clean_sbu_0, # of connection points: 5
#     Node 25, Type 0, BuildingBlock: XOMCOT_clean_sbu_0, # of connection points: 5
#     Node 26, Type 0, BuildingBlock: XOMCOT_clean_sbu_0, # of connection points: 5
#     Node 27, Type 0, BuildingBlock: XOMCOT_clean_sbu_0, # of connection points: 5
#     Node 28, Type 0, BuildingBlock: XOMCOT_clean_sbu_0, # of connection points: 5
#     Node 29, Type 0, BuildingBlock: XOMCOT_clean_sbu_0, # of connection points: 5
#     Node 30, Type 0, BuildingBlock: XOMCOT_clean_sbu_0, # of connection points: 5
#     Node 31, Type 0, BuildingBlock: XOMCOT_clean_sbu_0, # of connection points: 5
#     Edge 32, Type (0, 0), BuildingBlock: CIFDUS_clean_linker_0, # of connection points: 2
#     Edge 33, Type (0, 0), BuildingBlock: CIFDUS_clean_linker_0, # of connection points: 2
#     Edge 34, Type (0, 0), BuildingBlock: CIFDUS_clean_linker_0, # of connection points: 2
#     Edge 35, Type (0, 0), BuildingBlock: CIFDUS_clean_linker_0, # of connection points: 2
#     Edge 36, Type (0, 0), BuildingBlock: CIFDUS_clean_linker_0, # of connection points: 2
#     Edge 37, Type (0, 0), BuildingBlock: CIFDUS_clean_linker_0, # of connection points: 2
#     Edge 38, Type (0, 0), BuildingBlock: CIFDUS_clean_linker_0, # of connection points: 2
#     Edge 39, Type (0, 0), BuildingBlock: CIFDUS_clean_linker_0, # of connection points: 2
#     Edge 40, Type (0, 0), BuildingBlock: CIFDUS_clean_linker_0, # of connection points: 2
#     Edge 41, Type (0, 0), BuildingBlock: CIFDUS_clean_linker_0, # of connection points: 2
#     Edge 42, Type (0, 0), BuildingBlock: CIFDUS_clean_linker_0, # of connection points: 2
#     Edge 43, Type (0, 0), BuildingBlock: CIFDUS_clean_linker_0, # of connection points: 2
#     Edge 44, Type (0, 0), BuildingBlock: CIFDUS_clean_linker_0, # of connection points: 2
#     Edge 45, Type (0, 0), BuildingBlock: CIFDUS_clean_linker_0, # of connection points: 2
#     Edge 46, Type (0, 0), BuildingBlock: CIFDUS_clean_linker_0, # of connection points: 2
#     Edge 47, Type (0, 0), BuildingBlock: CIFDUS_clean_linker_0, # of connection points: 2
#     Edge 48, Type (0, 0), BuildingBlock: CIFDUS_clean_linker_0, # of connection points: 2
#     Edge 49, Type (0, 0), BuildingBlock: CIFDUS_clean_linker_0, # of connection points: 2
#     Edge 50, Type (0, 0), BuildingBlock: CIFDUS_clean_linker_0, # of connection points: 2
#     Edge 51, Type (0, 0), BuildingBlock: CIFDUS_clean_linker_0, # of connection points: 2
#     Edge 52, Type (0, 0), BuildingBlock: CIFDUS_clean_linker_0, # of connection points: 2
#     Edge 53, Type (0, 0), BuildingBlock: CIFDUS_clean_linker_0, # of connection points: 2
#     Edge 54, Type (0, 0), BuildingBlock: CIFDUS_clean_linker_0, # of connection points: 2
#     Edge 55, Type (0, 0), BuildingBlock: CIFDUS_clean_linker_0, # of connection points: 2
#     Edge 56, Type (0, 0), BuildingBlock: CIFDUS_clean_linker_0, # of connection points: 2
#     Edge 57, Type (0, 0), BuildingBlock: CIFDUS_clean_linker_0, # of connection points: 2
#     Edge 58, Type (0, 0), BuildingBlock: CIFDUS_clean_linker_0, # of connection points: 2
#     Edge 59, Type (0, 0), BuildingBlock: CIFDUS_clean_linker_0, # of connection points: 2
#     Edge 60, Type (0, 0), BuildingBlock: CIFDUS_clean_linker_0, # of connection points: 2
#     Edge 61, Type (0, 0), BuildingBlock: CIFDUS_clean_linker_0, # of connection points: 2
#     Edge 62, Type (0, 0), BuildingBlock: CIFDUS_clean_linker_0, # of connection points: 2
#     Edge 63, Type (0, 0), BuildingBlock: CIFDUS_clean_linker_0, # of connection points: 2
#     Edge 64, Type (0, 0), BuildingBlock: CIFDUS_clean_linker_0, # of connection points: 2
#     Edge 65, Type (0, 0), BuildingBlock: CIFDUS_clean_linker_0, # of connection points: 2
#     Edge 66, Type (0, 0), BuildingBlock: CIFDUS_clean_linker_0, # of connection points: 2
#     Edge 67, Type (0, 0), BuildingBlock: CIFDUS_clean_linker_0, # of connection points: 2
#     Edge 68, Type (0, 0), BuildingBlock: CIFDUS_clean_linker_0, # of connection points: 2
#     Edge 69, Type (0, 0), BuildingBlock: CIFDUS_clean_linker_0, # of connection points: 2
#     Edge 70, Type (0, 0), BuildingBlock: CIFDUS_clean_linker_0, # of connection points: 2
#     Edge 71, Type (0, 0), BuildingBlock: CIFDUS_clean_linker_0, # of connection points: 2
#     Edge 72, Type (0, 0), BuildingBlock: CIFDUS_clean_linker_0, # of connection points: 2
#     Edge 73, Type (0, 0), BuildingBlock: CIFDUS_clean_linker_0, # of connection points: 2
#     Edge 74, Type (0, 0), BuildingBlock: CIFDUS_clean_linker_0, # of connection points: 2
#     Edge 75, Type (0, 0), BuildingBlock: CIFDUS_clean_linker_0, # of connection points: 2
#     Edge 76, Type (0, 0), BuildingBlock: CIFDUS_clean_linker_0, # of connection points: 2
#     Edge 77, Type (0, 0), BuildingBlock: CIFDUS_clean_linker_0, # of connection points: 2
#     Edge 78, Type (0, 0), BuildingBlock: CIFDUS_clean_linker_0, # of connection points: 2
#     Edge 79, Type (0, 0), BuildingBlock: CIFDUS_clean_linker_0, # of connection points: 2
#     Edge 80, Type (0, 0), BuildingBlock: CIFDUS_clean_linker_0, # of connection points: 2
#     Edge 81, Type (0, 0), BuildingBlock: CIFDUS_clean_linker_0, # of connection points: 2
#     Edge 82, Type (0, 0), BuildingBlock: CIFDUS_clean_linker_0, # of connection points: 2
#     Edge 83, Type (0, 0), BuildingBlock: CIFDUS_clean_linker_0, # of connection points: 2
#     Edge 84, Type (0, 0), BuildingBlock: CIFDUS_clean_linker_0, # of connection points: 2
#     Edge 85, Type (0, 0), BuildingBlock: CIFDUS_clean_linker_0, # of connection points: 2
#     Edge 86, Type (0, 0), BuildingBlock: CIFDUS_clean_linker_0, # of connection points: 2
#     Edge 87, Type (0, 0), BuildingBlock: CIFDUS_clean_linker_0, # of connection points: 2
#     Edge 88, Type (0, 0), BuildingBlock: CIFDUS_clean_linker_0, # of connection points: 2
#     Edge 89, Type (0, 0), BuildingBlock: CIFDUS_clean_linker_0, # of connection points: 2
#     Edge 90, Type (0, 0), BuildingBlock: CIFDUS_clean_linker_0, # of connection points: 2
#     Edge 91, Type (0, 0), BuildingBlock: CIFDUS_clean_linker_0, # of connection points: 2
#     Edge 92, Type (0, 0), BuildingBlock: CIFDUS_clean_linker_0, # of connection points: 2
#     Edge 93, Type (0, 0), BuildingBlock: CIFDUS_clean_linker_0, # of connection points: 2
#     Edge 94, Type (0, 0), BuildingBlock: CIFDUS_clean_linker_0, # of connection points: 2
#     Edge 95, Type (0, 0), BuildingBlock: CIFDUS_clean_linker_0, # of connection points: 2
#     Edge 96, Type (0, 0), BuildingBlock: CIFDUS_clean_linker_0, # of connection points: 2
#     Edge 97, Type (0, 0), BuildingBlock: CIFDUS_clean_linker_0, # of connection points: 2
#     Edge 98, Type (0, 0), BuildingBlock: CIFDUS_clean_linker_0, # of connection points: 2
#     Edge 99, Type (0, 0), BuildingBlock: CIFDUS_clean_linker_0, # of connection points: 2
#     Edge 100, Type (0, 0), BuildingBlock: CIFDUS_clean_linker_0, # of connection points: 2
#     Edge 101, Type (0, 0), BuildingBlock: CIFDUS_clean_linker_0, # of connection points: 2
#     Edge 102, Type (0, 0), BuildingBlock: CIFDUS_clean_linker_0, # of connection points: 2
#     Edge 103, Type (0, 0), BuildingBlock: CIFDUS_clean_linker_0, # of connection points: 2
#     Edge 104, Type (0, 0), BuildingBlock: CIFDUS_clean_linker_0, # of connection points: 2
#     Edge 105, Type (0, 0), BuildingBlock: CIFDUS_clean_linker_0, # of connection points: 2
#     Edge 106, Type (0, 0), BuildingBlock: CIFDUS_clean_linker_0, # of connection points: 2
#     Edge 107, Type (0, 0), BuildingBlock: CIFDUS_clean_linker_0, # of connection points: 2
#     Edge 108, Type (0, 0), BuildingBlock: CIFDUS_clean_linker_0, # of connection points: 2
#     Edge 109, Type (0, 0), BuildingBlock: CIFDUS_clean_linker_0, # of connection points: 2
#     Edge 110, Type (0, 0), BuildingBlock: CIFDUS_clean_linker_0, # of connection points: 2
#     Edge 111, Type (0, 0), BuildingBlock: CIFDUS_clean_linker_0, # of connection points: 2
# Relax obj value: 0.111
# Max RMSD: 0.138
# Mean RMSD: 0.138
data_MOF--net-wge--node1-XOMCOT_clean_sbu_0--edge1-CIFDUS_clean_linker_0
_symmetry_space_group_name_H-M    P1
_symmetry_Int_Tables_number       1
_symmetry_cell_setting            triclinic
loop_
_symmetry_equiv_pos_as_xyz
'x, y, z'
_cell_length_a     61.635329
_cell_length_b     61.538191
_cell_length_c     36.667211
_cell_angle_alpha  89.891141
_cell_angle_beta   89.911337
_cell_angle_gamma 89.907931
loop_
_atom_site_label
_atom_site_type_symbol
_atom_site_fract_x
_atom_site_fract_y
_atom_site_fract_z
_atom_type_partial_charge
Co0 Co 0.23512 0.12149 0.05754 0.0
C1 C 0.26101 0.12152 0.12465 0.0
C2 C 0.27237 0.09751 0.08719 0.0
C3 C 0.28197 0.09379 0.12053 0.0
N4 N 0.2593 0.11509 0.08964 0.0
N5 N 0.27461 0.10888 0.14407 0.0
H6 H 0.2501 0.1329 0.13739 0.0
H7 H 0.273 0.08657 0.06419 0.0
C8 C 0.27245 0.11367 1.00443 0.0
O9 O 0.28445 0.12683 0.02406 0.0
N10 N 0.21093 0.12724 0.02604 0.0
C11 C 0.1965 0.14363 0.02854 0.0
C12 C 0.18287 0.1427 0.9988 0.0
C13 C 0.20588 0.11647 0.99538 0.0
N14 N 0.18885 0.1256 0.97806 0.0
C15 C 0.24284 0.16543 0.0806 0.0
C16 C 0.25276 0.18355 0.01371 0.0
C17 C 0.25217 0.19725 0.04443 0.0
C18 C 0.24695 0.1877 0.07804 0.0
C19 C 0.24871 0.16102 0.01757 0.0
N20 N 0.24439 0.15201 0.05106 0.0
H21 H 0.23727 0.15934 0.10639 0.0
H22 H 0.24838 0.15102 0.9934 0.0
H23 H 0.19626 0.15568 0.04998 0.0
H24 H 0.215 0.1027 0.98531 0.0
O25 O 0.2162 0.12528 0.09975 0.0
O26 O 0.22191 0.09383 0.07304 0.0
O27 O 0.25257 0.11051 0.01348 0.0
C28 C 0.2125 0.10451 0.0994 0.0
H29 H 0.29189 0.07989 0.12768 0.0
H30 H 0.16974 0.15383 0.99278 0.0
H31 H 0.25628 0.19013 0.98695 0.0
H32 H 0.24527 0.19754 0.10235 0.0
Co33 Co 0.15174 0.99294 0.30887 0.0
C34 C 0.1535 0.01472 0.37952 0.0
C35 C 0.17395 0.03056 0.34073 0.0
C36 C 0.17932 0.03779 0.37511 0.0
N37 N 0.1576 0.01609 0.3434 0.0
N38 N 0.16665 0.02747 0.39962 0.0
H39 H 0.14356 1.0022 0.39144 0.0
H40 H 0.18326 0.03365 0.31626 0.0
C41 C 0.15486 0.03308 0.25807 0.0
O42 O 0.14404 0.04529 0.28117 0.0
N43 N 0.14659 0.96974 0.27507 0.0
C44 C 0.1316 0.95391 0.27722 0.0
C45 C 0.13292 0.94149 0.24603 0.0
C46 C 0.15697 0.96668 0.24321 0.0
N47 N 0.14887 0.9496 0.22469 0.0
C48 C 0.10872 0.99295 0.34 0.0
C49 C 0.08587 1.00591 0.27897 0.0
C50 C 0.07398 0.99944 0.30999 0.0
C51 C 0.08599 0.99337 0.34092 0.0
C52 C 0.10885 1.00532 0.2792 0.0
N53 N 0.12013 0.99895 0.30962 0.0
H54 H 0.11698 0.98646 0.36341 0.0
H55 H 0.11737 1.00887 0.25416 0.0
H56 H 0.12035 0.95175 0.29959 0.0
H57 H 0.16985 0.97708 0.23345 0.0
O58 O 0.1538 0.97175 0.34902 0.0
O59 O 0.18142 0.98268 0.3156 0.0
O60 O 0.15784 1.01287 0.26515 0.0
C61 C 0.17457 0.97087 0.34271 0.0
H62 H 0.19288 0.04824 0.38158 0.0
H63 H 0.12294 0.92756 0.23964 0.0
H64 H 0.07752 1.01035 0.25408 0.0
H65 H 0.07787 0.98829 0.36571 0.0
Co66 Co 0.2748 0.90693 0.56436 0.0
C67 C 0.2557 0.90277 0.63641 0.0
C68 C 0.23611 0.9234 0.60276 0.0
C69 C 0.22893 0.92502 0.63837 0.0
N70 N 0.253 0.90949 0.60181 0.0
N71 N 0.24147 0.91213 0.65949 0.0
H72 H 0.26952 0.89332 0.64522 0.0
H73 H 0.23071 0.93321 0.58 0.0
C74 C 0.25065 0.91028 0.49084 0.0
O75 O 0.2657 0.89877 0.47439 0.0
N76 N 0.29722 0.90451 0.52771 0.0
C77 C 0.31132 0.88797 0.52315 0.0
C78 C 0.32441 0.89251 0.49378 0.0
C79 C 0.30246 0.91925 0.5019 0.0
N80 N 0.31871 0.91209 0.48022 0.0
C81 C 0.28252 0.86332 0.58998 0.0
C82 C 0.25804 0.84068 0.53989 0.0
C83 C 0.2708 0.82864 0.5646 0.0
C84 C 0.28257 0.84056 0.59054 0.0
C85 C 0.25819 0.86367 0.54058 0.0
N86 N 0.27097 0.87487 0.56464 0.0
H87 H 0.29254 0.87159 0.60956 0.0
H88 H 0.2481 0.87212 0.52135 0.0
H89 H 0.312 0.8734 0.53949 0.0
H90 H 0.294 0.93453 0.49836 0.0
O91 O 0.29748 0.9099 0.6018 0.0
O92 O 0.28278 0.93733 0.57237 0.0
O93 O 0.25117 0.91266 0.52571 0.0
C94 C 0.2963 0.93082 0.5973 0.0
H95 H 0.21654 0.93605 0.64819 0.0
H96 H 0.33658 0.88178 0.48241 0.0
H97 H 0.24841 0.8325 0.51945 0.0
H98 H 0.2921 0.83242 0.61124 0.0
Co99 Co 0.36676 0.02935 0.8163 0.0
C100 C 0.37527 1.00877 0.88598 0.0
C101 C 0.34882 0.99331 0.85841 0.0
C102 C 0.34859 0.98694 0.8945 0.0
N103 N 0.36539 1.00724 0.85335 0.0
N104 N 0.36517 0.99684 0.9117 0.0
H105 H 0.38754 0.02078 0.89208 0.0
H106 H 0.33622 0.99017 0.8386 0.0
C107 C 0.35996 1.00565 0.74328 0.0
O108 O 0.37281 0.01952 0.72668 0.0
N109 N 0.36797 0.05225 0.78018 0.0
C110 C 0.38268 0.06846 0.77904 0.0
C111 C 0.37706 0.08276 0.75198 0.0
C112 C 0.35316 0.05736 0.75439 0.0
N113 N 0.35861 0.07573 0.73642 0.0
C114 C 0.41207 0.03655 0.83038 0.0
C115 C 0.43002 1.00589 0.78455 0.0
C116 C 0.44401 0.02038 0.80257 0.0
C117 C 0.43458 0.0354 0.82642 0.0
C118 C 0.40724 1.00773 0.78906 0.0
N119 N 0.39836 0.02371 0.8105 0.0
H120 H 0.40579 0.04856 0.84891 0.0
H121 H 0.39703 0.99624 0.77519 0.0
H122 H 0.39627 0.07034 0.79715 0.0
H123 H 0.3387 0.04793 0.74902 0.0
O124 O 0.36804 0.05149 0.8542 0.0
O125 O 0.33755 0.03933 0.83132 0.0
O126 O 0.35745 1.00665 0.7781 0.0
C127 C 0.34702 0.05208 0.85471 0.0
H128 H 0.33603 0.97751 0.90778 0.0
H129 H 0.38599 0.09717 0.74407 0.0
H130 H 0.43656 0.99366 0.76638 0.0
H131 H 0.44461 0.04655 0.84179 0.0
Co132 Co 0.24782 0.90347 0.95685 0.0
C133 C 0.26927 0.89278 0.88916 0.0
C134 C 0.28425 0.92011 0.91512 0.0
C135 C 0.29034 0.91986 0.87896 0.0
N136 N 0.27064 0.90338 0.92116 0.0
N137 N 0.28073 0.90276 0.86278 0.0
H138 H 0.25725 0.8804 0.88373 0.0
H139 H 0.28686 0.93337 0.93393 0.0
C140 C 0.27143 0.91112 0.02955 0.0
O141 O 0.25831 0.89736 0.04582 0.0
N142 N 0.2244 0.90389 0.99214 0.0
C143 C 0.20778 0.88976 0.99479 0.0
C144 C 0.19485 0.89562 0.02361 0.0
C145 C 0.22073 0.91876 0.01848 0.0
N146 N 0.20308 0.91377 0.03876 0.0
C147 C 0.24003 0.85747 0.95087 0.0
C148 C 0.2742 0.84236 0.99232 0.0
C149 C 0.2594 0.82726 0.97812 0.0
C150 C 0.24242 0.83511 0.95665 0.0
C151 C 0.27125 0.8648 0.98571 0.0
N152 N 0.2536 0.87231 0.96673 0.0
H153 H 0.22698 0.86271 0.93345 0.0
H154 H 0.28346 0.87585 0.99542 0.0
H155 H 0.20493 0.87608 0.9772 0.0
H156 H 0.23103 0.9327 0.02307 0.0
O157 O 0.22661 0.90025 0.91784 0.0
O158 O 0.23803 0.93187 0.93748 0.0
O159 O 0.26977 0.91436 0.99499 0.0
C160 C 0.22621 0.92121 0.91414 0.0
H161 H 0.29879 0.93275 0.8647 0.0
H162 H 0.18086 0.88671 0.03332 0.0
H163 H 0.28798 0.83687 0.00815 0.0
H164 H 0.23097 0.82398 0.94436 0.0
Co165 Co 0.3725 0.99076 0.21145 0.0
C166 C 0.37277 0.01379 0.14195 0.0
C167 C 0.35003 0.02796 0.179 0.0
C168 C 0.3454 0.03526 0.14431 0.0
N169 N 0.36723 0.01439 0.17757 0.0
N170 N 0.35955 0.02599 0.12096 0.0
H171 H 0.38378 1.00198 0.13066 0.0
H172 H 0.33971 0.03012 0.20259 0.0
C173 C 0.36838 0.03058 0.2621 0.0
O174 O 0.37918 0.04295 0.23918 0.0
N175 N 0.37713 0.96706 0.24464 0.0
C176 C 0.39137 0.95057 0.24164 0.0
C177 C 0.38965 0.93771 0.27237 0.0
C178 C 0.36683 0.96402 0.27657 0.0
N179 N 0.3742 0.94626 0.2943 0.0
C180 C 0.41591 0.98929 0.1819 0.0
C181 C 0.43828 1.00384 0.2423 0.0
C182 C 0.45045 0.99655 0.2121 0.0
C183 C 0.43866 0.98966 0.18146 0.0
C184 C 0.41528 1.00332 0.24157 0.0
N185 N 0.40423 0.99621 0.21142 0.0
H186 H 0.40783 0.9822 0.15883 0.0
H187 H 0.40658 1.00763 0.26605 0.0
H188 H 0.40231 0.94815 0.21892 0.0
H189 H 0.35447 0.97487 0.28687 0.0
O190 O 0.37016 0.97016 0.17053 0.0
O191 O 0.34269 0.98118 0.20419 0.0
O192 O 0.36617 1.01027 0.25541 0.0
C193 C 0.34936 0.9696 0.17678 0.0
H194 H 0.33136 0.04479 0.13657 0.0
H195 H 0.39895 0.92316 0.27794 0.0
H196 H 0.4464 1.00893 0.26699 0.0
H197 H 0.44694 0.98395 0.15723 0.0
Co198 Co 0.28302 0.12329 0.45103 0.0
C199 C 0.2655 0.13254 0.37908 0.0
C200 C 0.24658 0.10853 0.40728 0.0
C201 C 0.24068 0.10852 0.37109 0.0
N202 N 0.26233 0.1234 0.41202 0.0
N203 N 0.25274 0.12352 0.35353 0.0
H204 H 0.27885 0.14337 0.37293 0.0
H205 H 0.24157 0.09678 0.42756 0.0
C206 C 0.25568 0.1187 0.52044 0.0
O207 O 0.26813 0.13306 0.5366 0.0
N208 N 0.30406 0.12251 0.49014 0.0
C209 C 0.32015 0.13671 0.49724 0.0
C210 C 0.33027 0.13059 0.52897 0.0
C211 C 0.30534 0.10737 0.51677 0.0
N212 N 0.32078 0.1123 0.5414 0.0
C213 C 0.29379 0.16832 0.44219 0.0
C214 C 0.25781 0.1873 0.47365 0.0
C215 C 0.27447 0.20096 0.4606 0.0
C216 C 0.29233 0.19092 0.44405 0.0
C217 C 0.25999 0.16436 0.47137 0.0
N218 N 0.27839 0.15502 0.45718 0.0
H219 H 0.30777 0.16168 0.42857 0.0
H220 H 0.24672 0.15435 0.48057 0.0
H221 H 0.32442 0.15066 0.48103 0.0
H222 H 0.29441 0.09369 0.51915 0.0
O223 O 0.30656 0.12457 0.41567 0.0
O224 O 0.29259 0.09398 0.43531 0.0
O225 O 0.25869 0.11434 0.48652 0.0
C226 C 0.30646 0.10358 0.41375 0.0
H227 H 0.22998 0.09698 0.35805 0.0
H228 H 0.34346 0.1391 0.54216 0.0
H229 H 0.24338 0.19421 0.48588 0.0
H230 H 0.30525 0.20053 0.43216 0.0
Co231 Co 0.16117 0.03113 0.7032 0.0
C232 C 0.15673 1.00766 0.63509 0.0
C233 C 0.186 0.99872 0.66264 0.0
C234 C 0.18763 0.99233 0.6267 0.0
N235 N 0.16664 1.00855 0.66781 0.0
N236 N 0.16922 0.99817 0.60949 0.0
H237 H 0.14229 0.01677 0.62849 0.0
H238 H 0.19911 0.99872 0.68223 0.0
C239 C 0.17105 0.9905 0.75015 0.0
O240 O 0.16401 0.97749 0.72441 0.0
N241 N 0.15594 0.05405 0.73763 0.0
C242 C 0.14115 0.07014 0.73559 0.0
C243 C 0.14194 0.08198 0.76746 0.0
C244 C 0.16569 0.05643 0.77012 0.0
N245 N 0.15729 0.07317 0.78918 0.0
C246 C 0.1163 0.03338 0.68014 0.0
C247 C 0.09811 1.00874 0.73516 0.0
C248 C 0.08406 0.01832 0.70948 0.0
C249 C 0.09366 0.03075 0.68167 0.0
C250 C 0.12074 1.01192 0.73284 0.0
N251 N 0.1298 0.02388 0.70518 0.0
H252 H 0.12287 0.04363 0.65896 0.0
H253 H 0.13065 1.00525 0.75424 0.0
H254 H 0.13028 0.07284 0.71291 0.0
H255 H 0.17873 0.04611 0.7796 0.0
O256 O 0.16151 0.05236 0.66281 0.0
O257 O 0.19021 0.04257 0.69446 0.0
O258 O 0.16942 1.01118 0.7461 0.0
C259 C 0.18233 0.05411 0.66789 0.0
H260 H 0.202 0.98594 0.61349 0.0
H261 H 0.13158 0.09556 0.7745 0.0
H262 H 0.09164 0.99938 0.75771 0.0
H263 H 0.08376 0.0385 0.66101 0.0
Co264 Co 0.78292 0.9054 0.95833 0.0
C265 C 0.76088 0.90552 0.88824 0.0
C266 C 0.74696 0.92912 0.92403 0.0
C267 C 0.73961 0.93315 0.88914 0.0
N268 N 0.76024 0.91164 0.92346 0.0
N269 N 0.74879 0.91847 0.86676 0.0
H270 H 0.77204 0.89365 0.87753 0.0
H271 H 0.74479 0.93976 0.9472 0.0
C272 C 0.74183 0.90859 1.00404 0.0
O273 O 0.73234 0.89659 0.97912 0.0
N274 N 0.80596 0.89949 0.99196 0.0
C275 C 0.82187 0.88472 0.98744 0.0
C276 C 0.83553 0.88571 0.01699 0.0
C277 C 0.81007 0.90936 0.02386 0.0
N278 N 0.82807 0.9012 0.03983 0.0
C279 C 0.78192 0.86116 0.92992 0.0
C280 C 0.76624 0.84114 0.992 0.0
C281 C 0.77148 0.82788 0.96201 0.0
C282 C 0.77951 0.8384 0.9307 0.0
C283 C 0.769 0.86385 0.99015 0.0
N284 N 0.77607 0.87388 0.95893 0.0
H285 H 0.78956 0.86833 0.90638 0.0
H286 H 0.76629 0.87313 0.01465 0.0
H287 H 0.82346 0.87404 0.96419 0.0
H288 H 0.80035 0.92253 0.03467 0.0
O289 O 0.80435 0.90687 0.91812 0.0
O290 O 0.79389 0.93479 0.95109 0.0
O291 O 0.76225 0.91244 1.0011 0.0
C292 C 0.80571 0.9277 0.92424 0.0
H293 H 0.73035 0.94719 0.88037 0.0
H294 H 0.84972 0.87568 0.02143 0.0
H295 H 0.7608 0.834 0.01742 0.0
H296 H 0.78415 0.82913 0.90686 0.0
Co297 Co 0.87405 0.02808 0.70516 0.0
C298 C 0.87844 1.00766 0.63425 0.0
C299 C 0.85325 0.99263 0.66568 0.0
C300 C 0.85081 0.98668 0.62962 0.0
N301 N 0.87044 1.00608 0.66836 0.0
N302 N 0.86671 0.99624 0.61011 0.0
H303 H 0.89045 0.01945 0.62609 0.0
H304 H 0.8417 0.98966 0.68734 0.0
C305 C 0.86957 1.00423 0.7794 0.0
O306 O 0.88011 0.01969 0.79644 0.0
N307 N 0.87745 0.05091 0.74095 0.0
C308 C 0.89382 0.06542 0.74234 0.0
C309 C 0.88952 0.08029 0.76924 0.0
C310 C 0.86306 0.0576 0.76643 0.0
N311 N 0.87028 0.07529 0.78448 0.0
C312 C 0.9176 0.03466 0.67853 0.0
C313 C 0.94017 1.0109 0.72992 0.0
C314 C 0.95219 0.02325 0.70457 0.0
C315 C 0.94032 0.03465 0.67805 0.0
C316 C 0.91718 1.0112 0.7293 0.0
N317 N 0.90602 0.02351 0.70435 0.0
H318 H 0.90939 0.04468 0.65874 0.0
H319 H 0.90866 1.00183 0.74951 0.0
H320 H 0.90784 0.06564 0.72475 0.0
H321 H 0.84772 0.04965 0.77172 0.0
O322 O 0.87115 0.05045 0.66684 0.0
O323 O 0.84383 0.03682 0.69784 0.0
O324 O 0.86813 1.00459 0.74435 0.0
C325 C 0.85029 0.0498 0.67202 0.0
H326 H 0.8373 0.97779 0.61817 0.0
H327 H 0.89992 0.09358 0.77737 0.0
H328 H 0.9484 1.00165 0.75092 0.0
H329 H 0.9485 0.04401 0.65714 0.0
Co330 Co 0.74789 0.12131 0.45542 0.0
C331 C 0.76548 0.121 0.38106 0.0
C332 C 0.786 0.10287 0.41696 0.0
C333 C 0.79253 0.09911 0.38143 0.0
N334 N 0.76893 0.11664 0.41667 0.0
N335 N 0.77945 0.1105 0.35895 0.0
H336 H 0.75144 0.12956 0.37096 0.0
H337 H 0.79212 0.09456 0.4408 0.0
C338 C 0.77258 0.11252 0.52822 0.0
O339 O 0.75861 0.12419 0.54684 0.0
N340 N 0.7261 0.12587 0.49265 0.0
C341 C 0.71324 0.14351 0.49472 0.0
C342 C 0.69982 0.1414 0.52432 0.0
C343 C 0.7195 0.11268 0.52002 0.0
N344 N 0.70406 0.12225 0.54093 0.0
C345 C 0.74928 0.165 0.42848 0.0
C346 C 0.76514 0.186 0.48919 0.0
C347 C 0.75695 0.19877 0.4604 0.0
C348 C 0.74992 0.18769 0.4292 0.0
C349 C 0.76457 0.16301 0.4871 0.0
N350 N 0.75582 0.15262 0.45749 0.0
H351 H 0.74222 0.15759 0.40484 0.0
H352 H 0.77054 0.15396 0.50994 0.0
H353 H 0.71361 0.15712 0.47605 0.0
H354 H 0.72685 0.09706 0.52569 0.0
O355 O 0.72477 0.12366 0.4195 0.0
O356 O 0.73527 0.09266 0.44335 0.0
O357 O 0.77114 0.11145 0.49312 0.0
C358 C 0.7228 0.10271 0.42002 0.0
H359 H 0.80499 0.0878 0.37283 0.0
H360 H 0.688 0.15333 0.53297 0.0
H361 H 0.77108 0.19362 0.51381 0.0
H362 H 0.74412 0.19649 0.40554 0.0
Co363 Co 0.66007 0.99388 0.20751 0.0
C364 C 0.6552 0.01696 0.13844 0.0
C365 C 0.67864 0.03251 0.17242 0.0
C366 C 0.68068 0.0406 0.13749 0.0
N367 N 0.66259 0.01764 0.17304 0.0
N368 N 0.66608 0.03052 0.11603 0.0
H369 H 0.64451 1.00447 0.12851 0.0
H370 H 0.68988 0.03535 0.1945 0.0
C371 C 0.66532 0.03341 0.25941 0.0
O372 O 0.65284 0.04582 0.23912 0.0
N373 N 0.65798 0.97014 0.24133 0.0
C374 C 0.64339 0.95389 0.24155 0.0
C375 C 0.64616 0.94201 0.27314 0.0
C376 C 0.66951 0.96788 0.27219 0.0
N377 N 0.66249 0.951 0.29244 0.0
C378 C 0.61496 0.99233 0.18534 0.0
C379 C 0.59648 1.00823 0.2485 0.0
C380 C 0.58247 1.00214 0.21994 0.0
C381 C 0.59225 0.99403 0.18809 0.0
C382 C 0.61921 1.00614 0.2447 0.0
N383 N 0.62838 0.99883 0.21294 0.0
H384 H 0.62161 0.98503 0.16111 0.0
H385 H 0.62923 1.00976 0.26797 0.0
H386 H 0.63113 0.95135 0.22093 0.0
H387 H 0.68262 0.97856 0.27986 0.0
O388 O 0.66038 0.97315 0.16655 0.0
O389 O 0.68954 0.98496 0.19455 0.0
O390 O 0.66842 0.01349 0.25051 0.0
C391 C 0.68149 0.97311 0.16858 0.0
H392 H 0.69331 0.05145 0.12805 0.0
H393 H 0.63632 0.92841 0.2819 0.0
H394 H 0.58995 0.01395 0.27417 0.0
H395 H 0.58245 0.98895 0.16517 0.0
Co396 Co 0.77973 0.12064 0.05736 0.0
C397 C 0.75679 0.12703 0.12624 0.0
C398 C 0.74506 0.0993 0.09733 0.0
C399 C 0.73879 0.09751 0.1333 0.0
N400 N 0.75666 0.11772 0.09292 0.0
N401 N 0.74632 0.11496 0.15131 0.0
H402 H 0.76727 0.14028 0.13372 0.0
H403 H 0.74401 0.08647 0.07729 0.0
C404 C 0.73981 0.11082 0.00897 0.0
O405 O 0.72718 0.12263 0.02998 0.0
N406 N 0.8028 0.12267 0.02229 0.0
C407 C 0.81773 0.13842 0.01825 0.0
C408 C 0.83005 0.13375 0.98778 0.0
C409 C 0.80631 0.10859 0.99489 0.0
N410 N 0.82276 0.115 0.97315 0.0
C411 C 0.77974 0.16614 0.0752 0.0
C412 C 0.76139 0.18273 0.01257 0.0
C413 C 0.76833 0.19753 0.03952 0.0
C414 C 0.77744 0.18864 0.0712 0.0
C415 C 0.76403 0.16002 0.01768 0.0
N416 N 0.77281 0.15182 0.04918 0.0
H417 H 0.78797 0.1605 0.09924 0.0
H418 H 0.75967 0.14928 0.99568 0.0
H419 H 0.81933 0.15244 0.03577 0.0
H420 H 0.79653 0.09427 0.99039 0.0
O421 O 0.80054 0.12409 0.09688 0.0
O422 O 0.79125 0.09242 0.07448 0.0
O423 O 0.76016 0.10945 0.01611 0.0
C424 C 0.80239 0.10313 0.09868 0.0
H425 H 0.73146 0.08341 0.14599 0.0
H426 H 0.84328 0.14345 0.97721 0.0
H427 H 0.75461 0.18864 0.98719 0.0
H428 H 0.78299 0.19901 0.09309 0.0
Co429 Co 0.65176 0.02733 0.81161 0.0
C430 C 0.6425 1.00916 0.88304 0.0
C431 C 0.66826 0.99192 0.8563 0.0
C432 C 0.66868 0.98686 0.89291 0.0
N433 N 0.65207 1.00621 0.85033 0.0
N434 N 0.65257 0.99788 0.90959 0.0
H435 H 0.63064 0.02178 0.88831 0.0
H436 H 0.68068 0.98782 0.8366 0.0
C437 C 0.65762 1.00127 0.74119 0.0
O438 O 0.64357 0.01418 0.72511 0.0
N439 N 0.65202 0.04907 0.77321 0.0
C440 C 0.63794 0.06561 0.7683 0.0
C441 C 0.64416 0.07739 0.73825 0.0
C442 C 0.66712 0.0516 0.74673 0.0
N443 N 0.66241 0.0685 0.72451 0.0
C444 C 0.60588 0.03588 0.81816 0.0
C445 C 0.59022 0.99848 0.78646 0.0
C446 C 0.57508 0.01399 0.79891 0.0
C447 C 0.58344 0.03275 0.81534 0.0
C448 C 0.61274 1.00232 0.78971 0.0
N449 N 0.62047 0.02134 0.80406 0.0
H450 H 0.6114 0.05011 0.83245 0.0
H451 H 0.62376 0.98962 0.78148 0.0
H452 H 0.62416 0.06929 0.78524 0.0
H453 H 0.68113 0.04113 0.74359 0.0
O454 O 0.64919 0.05042 0.84778 0.0
O455 O 0.68043 0.03771 0.82859 0.0
O456 O 0.66174 1.00366 0.77538 0.0
C457 C 0.67016 0.05083 0.85057 0.0
H458 H 0.68126 0.97775 0.90679 0.0
H459 H 0.63556 0.09118 0.72692 0.0
H460 H 0.58477 0.98344 0.77431 0.0
H461 H 0.57272 0.04483 0.82707 0.0
Co462 Co 0.74302 0.90156 0.56416 0.0
C463 C 0.76153 0.90333 0.63719 0.0
C464 C 0.78264 0.91912 0.59904 0.0
C465 C 0.79031 0.92286 0.63388 0.0
N466 N 0.76456 0.90682 0.6013 0.0
N467 N 0.77672 0.91312 0.65759 0.0
H468 H 0.74759 0.89514 0.64859 0.0
H469 H 0.78889 0.92634 0.57431 0.0
C470 C 0.76765 0.90574 0.49027 0.0
O471 O 0.75316 0.89418 0.47276 0.0
N472 N 0.72073 0.89622 0.52828 0.0
C473 C 0.70712 0.87912 0.52831 0.0
C474 C 0.69345 0.88085 0.49899 0.0
C475 C 0.71443 0.90871 0.49992 0.0
N476 N 0.69826 0.89927 0.4807 0.0
C477 C 0.74024 0.85861 0.59542 0.0
C478 C 0.76032 0.83555 0.54033 0.0
C479 C 0.75018 0.82371 0.56846 0.0
C480 C 0.74069 0.83582 0.5968 0.0
C481 C 0.75968 0.8585 0.54013 0.0
N482 N 0.74906 0.86989 0.56686 0.0
H483 H 0.73175 0.86709 0.61681 0.0
H484 H 0.7673 0.86676 0.51777 0.0
H485 H 0.707 0.86619 0.54824 0.0
H486 H 0.72237 0.92376 0.49246 0.0
O487 O 0.72003 0.90415 0.60136 0.0
O488 O 0.733 0.93152 0.56956 0.0
O489 O 0.7665 0.90773 0.52518 0.0
C490 C 0.71995 0.92498 0.59521 0.0
H491 H 0.8037 0.93331 0.64131 0.0
H492 H 0.681 0.86928 0.49168 0.0
H493 H 0.76801 0.82722 0.51777 0.0
H494 H 0.73316 0.82779 0.61986 0.0
Co495 Co 0.86459 0.9937 0.31128 0.0
C496 C 0.86658 0.01636 0.38067 0.0
C497 C 0.8427 0.03065 0.34592 0.0
C498 C 0.83927 0.03793 0.38101 0.0
N499 N 0.85991 0.01708 0.34569 0.0
N500 N 0.85414 0.02857 0.40299 0.0
H501 H 0.87798 1.00449 0.39066 0.0
H502 H 0.8317 0.03297 0.32329 0.0
C503 C 0.85869 0.03348 0.26071 0.0
O504 O 0.86939 0.04609 0.28325 0.0
N505 N 0.86862 0.9702 0.27779 0.0
C506 C 0.88421 0.95485 0.27768 0.0
C507 C 0.88048 0.94109 0.24872 0.0
C508 C 0.85553 0.96555 0.24965 0.0
N509 N 0.8624 0.94788 0.23134 0.0
C510 C 0.90929 0.99356 0.33642 0.0
C511 C 0.92823 1.01015 0.27405 0.0
C512 C 0.942 1.00415 0.30301 0.0
C513 C 0.93201 0.99573 0.3345 0.0
C514 C 0.90555 1.00765 0.27703 0.0
N515 N 0.89612 0.99992 0.30832 0.0
H516 H 0.90247 0.98588 0.36022 0.0
H517 H 0.89582 1.01114 0.25334 0.0
H518 H 0.89727 0.9537 0.29724 0.0
H519 H 0.84141 0.97511 0.24252 0.0
O520 O 0.86374 0.97271 0.3521 0.0
O521 O 0.83526 0.98358 0.32083 0.0
O522 O 0.85678 0.01315 0.26777 0.0
C523 C 0.84283 0.97166 0.34716 0.0
H524 H 0.82562 0.04762 0.39001 0.0
H525 H 0.89015 0.92708 0.24129 0.0
H526 H 0.93493 0.01605 0.24859 0.0
H527 H 0.94164 0.99068 0.35769 0.0
Co528 Co 0.7447 0.61445 0.55525 0.0
C529 C 0.76932 0.61659 0.62317 0.0
C530 C 0.77774 0.58839 0.59213 0.0
C531 C 0.78548 0.58575 0.62713 0.0
N532 N 0.76738 0.6077 0.58983 0.0
N533 N 0.78011 0.60357 0.64639 0.0
H534 H 0.7604 0.63064 0.63218 0.0
H535 H 0.77741 0.57602 0.57122 0.0
C536 C 0.78597 0.61017 0.51116 0.0
O537 O 0.79556 0.62101 0.53742 0.0
N538 N 0.72168 0.62083 0.5217 0.0
C539 C 0.70576 0.63553 0.52668 0.0
C540 C 0.69217 0.63495 0.49704 0.0
C541 C 0.7176 0.61139 0.48938 0.0
N542 N 0.69961 0.61976 0.47362 0.0
C543 C 0.7441 0.6584 0.58384 0.0
C544 C 0.76327 0.67898 0.5252 0.0
C545 C 0.75614 0.69192 0.55449 0.0
C546 C 0.74638 0.68113 0.58403 0.0
C547 C 0.76054 0.65623 0.52599 0.0
N548 N 0.75171 0.64593 0.55567 0.0
H549 H 0.73531 0.65099 0.60605 0.0
H550 H 0.76472 0.64722 0.50182 0.0
H551 H 0.70407 0.64586 0.55033 0.0
H552 H 0.72732 0.59836 0.47812 0.0
O553 O 0.72364 0.61303 0.59565 0.0
O554 O 0.73328 0.58512 0.56184 0.0
O555 O 0.7653 0.60754 0.51248 0.0
C556 C 0.72187 0.59232 0.58912 0.0
H557 H 0.79253 0.57109 0.63845 0.0
H558 H 0.67799 0.64506 0.49298 0.0
H559 H 0.77018 0.68642 0.50106 0.0
H560 H 0.74033 0.69016 0.60723 0.0
Co561 Co 0.65047 0.49304 0.80791 0.0
C562 C 0.64302 0.51526 0.87623 0.0
C563 C 0.66998 0.52904 0.84731 0.0
C564 C 0.67085 0.53577 0.8831 0.0
N565 N 0.65272 0.51586 0.84333 0.0
N566 N 0.65397 0.52688 0.90117 0.0
H567 H 0.63034 0.50381 0.88318 0.0
H568 H 0.68266 0.53114 0.82719 0.0
C569 C 0.65719 0.51739 0.73459 0.0
O570 O 0.64221 0.50566 0.7185 0.0
N571 N 0.6482 0.4694 0.77315 0.0
C572 C 0.63448 0.45243 0.7761 0.0
C573 C 0.63714 0.43904 0.74666 0.0
C574 C 0.65985 0.46542 0.7426 0.0
N575 N 0.65286 0.44735 0.72526 0.0
C576 C 0.60486 0.48685 0.81946 0.0
C577 C 0.58866 0.51985 0.77639 0.0
C578 C 0.574 0.50495 0.79193 0.0
C579 C 0.58251 0.48876 0.81455 0.0
C580 C 0.61128 0.5172 0.78182 0.0
N581 N 0.61926 0.49996 0.80147 0.0
H582 H 0.6104 0.47427 0.8376 0.0
H583 H 0.62209 0.52908 0.77021 0.0
H584 H 0.62344 0.4495 0.79836 0.0
H585 H 0.67277 0.47577 0.7328 0.0
O586 O 0.64786 0.47195 0.84742 0.0
O587 O 0.67905 0.48195 0.82407 0.0
O588 O 0.6611 0.51464 0.76874 0.0
C589 C 0.6688 0.47042 0.84846 0.0
H590 H 0.68417 0.54436 0.89576 0.0
H591 H 0.62824 0.42421 0.74157 0.0
H592 H 0.58278 0.53305 0.7595 0.0
H593 H 0.57187 0.47736 0.82826 0.0
Co594 Co 0.78074 0.40717 0.05519 0.0
C595 C 0.75833 0.40565 0.12508 0.0
C596 C 0.74435 0.42988 0.0905 0.0
C597 C 0.73701 0.43321 0.12567 0.0
N598 N 0.75771 0.41246 0.09012 0.0
N599 N 0.74622 0.41814 0.14736 0.0
H600 H 0.76955 0.39363 0.13513 0.0
H601 H 0.74218 0.44099 0.0679 0.0
C602 C 0.7404 0.41242 0.00613 0.0
O603 O 0.728 0.40237 0.02993 0.0
N604 N 0.80394 0.40226 0.0213 0.0
C605 C 0.81992 0.3874 0.02393 0.0
C606 C 0.8322 0.38826 0.99255 0.0
C607 C 0.80679 0.41216 0.98894 0.0
N608 N 0.82384 0.40381 0.97065 0.0
C609 C 0.78242 0.3632 0.08285 0.0
C610 C 0.76603 0.3421 0.02244 0.0
C611 C 0.77408 0.3293 0.05128 0.0
C612 C 0.7819 0.34042 0.08203 0.0
C613 C 0.76676 0.36506 0.02439 0.0
N614 N 0.77479 0.3755 0.05453 0.0
H615 H 0.79028 0.37082 0.10568 0.0
H616 H 0.76196 0.37421 1.00064 0.0
H617 H 0.82227 0.37649 0.04674 0.0
H618 H 0.79624 0.42478 0.9786 0.0
O619 O 0.80197 0.40903 0.09534 0.0
O620 O 0.79083 0.43679 0.06244 0.0
O621 O 0.76084 0.41401 0.01197 0.0
C622 C 0.80288 0.42986 0.08906 0.0
H623 H 0.72781 0.44711 0.13517 0.0
H624 H 0.84614 0.37821 0.98632 0.0
H625 H 0.76024 0.33449 0.9977 0.0
H626 H 0.7883 0.33157 0.1052 0.0
Co627 Co 0.8705 0.5293 0.30704 0.0
C628 C 0.87891 0.50559 0.37375 0.0
C629 C 0.85221 0.4916 0.34475 0.0
C630 C 0.85238 0.48335 0.37979 0.0
N631 N 0.86874 0.50578 0.34136 0.0
N632 N 0.8693 0.49215 0.39766 0.0
H633 H 0.89093 0.51745 0.38163 0.0
H634 H 0.83941 0.48955 0.32492 0.0
C635 C 0.8669 0.50636 0.23177 0.0
O636 O 0.87909 0.52086 0.21531 0.0
N637 N 0.87237 0.55361 0.27361 0.0
C638 C 0.88637 0.57029 0.27698 0.0
C639 C 0.88355 0.58433 0.24838 0.0
C640 C 0.86037 0.55838 0.24383 0.0
N641 N 0.86746 0.5767 0.22719 0.0
C642 C 0.91452 0.53743 0.32888 0.0
C643 C 0.93617 0.5119 0.27891 0.0
C644 C 0.94857 0.52518 0.30217 0.0
C645 C 0.93717 0.53743 0.32814 0.0
C646 C 0.91322 0.51214 0.2809 0.0
N647 N 0.90251 0.52556 0.30474 0.0
H648 H 0.90669 0.54761 0.34883 0.0
H649 H 0.90442 0.50149 0.2631 0.0
H650 H 0.89786 0.57237 0.29882 0.0
H651 H 0.84741 0.54821 0.2337 0.0
O652 O 0.86843 0.54998 0.3476 0.0
O653 O 0.84028 0.53696 0.31839 0.0
O654 O 0.86394 0.50726 0.26643 0.0
C655 C 0.84746 0.54909 0.34476 0.0
H656 H 0.83975 0.47366 0.39231 0.0
H657 H 0.89277 0.59901 0.24346 0.0
H658 H 0.94404 0.50174 0.25875 0.0
H659 H 0.94567 0.54727 0.34795 0.0
Co660 Co 0.74488 0.40608 0.45041 0.0
C661 C 0.76462 0.40403 0.37772 0.0
C662 C 0.7831 0.42463 0.41272 0.0
C663 C 0.7902 0.42759 0.37732 0.0
N664 N 0.7671 0.40961 0.41311 0.0
N665 N 0.77824 0.41481 0.35552 0.0
H666 H 0.75151 0.39418 0.36746 0.0
H667 H 0.78761 0.43471 0.43553 0.0
C668 C 0.78418 0.41434 0.50073 0.0
O669 O 0.79592 0.39964 0.4838 0.0
N670 N 0.72268 0.40325 0.48686 0.0
C671 C 0.70803 0.38721 0.49066 0.0
C672 C 0.69658 0.39072 0.52246 0.0
C673 C 0.71988 0.41635 0.51579 0.0
N674 N 0.70421 0.40899 0.53827 0.0
C675 C 0.75058 0.36124 0.43082 0.0
C676 C 0.76225 0.34509 0.49831 0.0
C677 C 0.75934 0.33029 0.46948 0.0
C678 C 0.75356 0.33884 0.4354 0.0
C679 C 0.75879 0.36756 0.49265 0.0
N680 N 0.75336 0.37552 0.45894 0.0
H681 H 0.74505 0.36688 0.40469 0.0
H682 H 0.75969 0.37837 0.51577 0.0
H683 H 0.7063 0.3736 0.47227 0.0
H684 H 0.72927 0.43091 0.52039 0.0
O685 O 0.72319 0.40148 0.41262 0.0
O686 O 0.73221 0.43364 0.43404 0.0
O687 O 0.76475 0.41818 0.49014 0.0
C688 C 0.72078 0.42245 0.41087 0.0
H689 H 0.80152 0.43985 0.36796 0.0
H690 H 0.6842 0.3802 0.5337 0.0
H691 H 0.76629 0.33928 0.52536 0.0
H692 H 0.75106 0.32823 0.41226 0.0
Co693 Co 0.87227 0.49669 0.69808 0.0
C694 C 0.87855 0.51505 0.62561 0.0
C695 C 0.86016 0.53676 0.65921 0.0
C696 C 0.85909 0.54393 0.62362 0.0
N697 N 0.87218 0.51848 0.66023 0.0
N698 N 0.8703 0.52994 0.60234 0.0
H699 H 0.88694 0.50048 0.61714 0.0
H700 H 0.85105 0.54332 0.68186 0.0
C701 C 0.86723 0.52213 0.76948 0.0
O702 O 0.8813 0.50912 0.78526 0.0
N703 N 0.87191 0.47446 0.73556 0.0
C704 C 0.88553 0.45743 0.73943 0.0
C705 C 0.87919 0.44536 0.769 0.0
C706 C 0.85692 0.47193 0.7621 0.0
N707 N 0.86128 0.45454 0.78341 0.0
C708 C 0.91715 0.48637 0.68883 0.0
C709 C 0.93574 0.523 0.71852 0.0
C710 C 0.94948 0.50719 0.70285 0.0
C711 C 0.93961 0.48854 0.68877 0.0
C712 C 0.9129 0.51994 0.7187 0.0
N713 N 0.9038 0.50147 0.70449 0.0
H714 H 0.91068 0.47236 0.67523 0.0
H715 H 0.90272 0.53284 0.72894 0.0
H716 H 0.89908 0.45352 0.72217 0.0
H717 H 0.84323 0.48273 0.76589 0.0
O718 O 0.87387 0.4739 0.66156 0.0
O719 O 0.84313 0.48729 0.68166 0.0
O720 O 0.86315 0.52001 0.73529 0.0
C721 C 0.85293 0.47387 0.65956 0.0
H722 H 0.84932 0.55738 0.61403 0.0
H723 H 0.88754 0.43121 0.77957 0.0
H724 H 0.94245 0.53793 0.72919 0.0
H725 H 0.94917 0.47562 0.67675 0.0
Co726 Co 0.77927 0.61766 0.9494 0.0
C727 C 0.76108 0.61693 0.87573 0.0
C728 C 0.74167 0.59828 0.91244 0.0
C729 C 0.73539 0.59355 0.87729 0.0
N730 N 0.75772 0.61318 0.91156 0.0
N731 N 0.7479 0.60512 0.85418 0.0
H732 H 0.775 0.6255 0.86534 0.0
H733 H 0.73658 0.58942 0.93643 0.0
C734 C 0.73711 0.61746 0.99355 0.0
O735 O 0.72828 0.63082 0.96981 0.0
N736 N 0.80065 0.62117 0.9868 0.0
C737 C 0.81683 0.63578 0.98865 0.0
C738 C 0.82752 0.63283 0.02131 0.0
C739 C 0.80175 0.60948 0.01775 0.0
N740 N 0.81793 0.61632 0.03957 0.0
C741 C 0.78043 0.66114 0.9196 0.0
C742 C 0.76824 0.68365 0.98144 0.0
C743 C 0.7747 0.69575 0.95062 0.0
C744 C 0.78043 0.68392 0.91931 0.0
C745 C 0.76841 0.66064 0.98057 0.0
N746 N 0.7743 0.64952 0.94969 0.0
H747 H 0.78662 0.65298 0.8959 0.0
H748 H 0.76483 0.65187 1.00539 0.0
H749 H 0.82033 0.64789 0.96807 0.0
H750 H 0.79095 0.59613 0.02396 0.0
O751 O 0.80227 0.61592 0.91235 0.0
O752 O 0.789 0.58775 0.94201 0.0
O753 O 0.75691 0.61161 0.98947 0.0
C754 C 0.80225 0.59496 0.91712 0.0
H755 H 0.72388 0.58115 0.86951 0.0
H756 H 0.841 0.64242 0.03111 0.0
H757 H 0.76409 0.69183 0.00663 0.0
H758 H 0.7855 0.69219 0.89465 0.0
Co759 Co 0.65885 0.53176 0.19913 0.0
C760 C 0.65416 0.50841 0.13048 0.0
C761 C 0.67759 0.49304 0.16484 0.0
C762 C 0.67978 0.48483 0.13011 0.0
N763 N 0.66142 0.50784 0.16514 0.0
N764 N 0.66524 0.49486 0.10834 0.0
H765 H 0.64346 0.52089 0.12032 0.0
H766 H 0.68887 0.49036 0.18695 0.0
C767 C 0.66424 0.49241 0.25037 0.0
O768 O 0.65161 0.48042 0.22977 0.0
N769 N 0.65693 0.55568 0.23239 0.0
C770 C 0.64186 0.57152 0.23356 0.0
C771 C 0.64637 0.58479 0.26283 0.0
C772 C 0.67051 0.55958 0.26025 0.0
N773 N 0.6644 0.5772 0.27946 0.0
C774 C 0.61363 0.53234 0.17824 0.0
C775 C 0.59626 0.51707 0.24285 0.0
C776 C 0.58192 0.52259 0.21449 0.0
C777 C 0.59103 0.53044 0.18195 0.0
C778 C 0.61883 0.51958 0.23823 0.0
N779 N 0.62744 0.52649 0.20574 0.0
H780 H 0.61987 0.5393 0.15341 0.0
H781 H 0.62915 0.51664 0.26141 0.0
H782 H 0.62844 0.57315 0.21478 0.0
H783 H 0.68424 0.54934 0.26685 0.0
O784 O 0.65826 0.55228 0.15798 0.0
O785 O 0.68799 0.54087 0.18515 0.0
O786 O 0.6676 0.51237 0.24206 0.0
C787 C 0.67937 0.55258 0.15939 0.0
H788 H 0.69253 0.47401 0.12101 0.0
H789 H 0.63711 0.59888 0.27124 0.0
H790 H 0.59004 0.51156 0.26891 0.0
H791 H 0.58075 0.53516 0.15935 0.0
Co792 Co 0.27338 0.40941 0.44291 0.0
C793 C 0.25682 0.40483 0.3694 0.0
C794 C 0.23566 0.42492 0.40138 0.0
C795 C 0.22942 0.42632 0.36532 0.0
N796 N 0.25291 0.41151 0.40366 0.0
N797 N 0.24305 0.41395 0.34537 0.0
H798 H 0.27064 0.39494 0.3618 0.0
H799 H 0.22934 0.43457 0.42362 0.0
C800 C 0.24656 0.41082 0.51282 0.0
O801 O 0.25939 0.39618 0.52755 0.0
N802 N 0.29435 0.40784 0.48203 0.0
C803 C 0.31052 0.39334 0.48685 0.0
C804 C 0.32181 0.39873 0.51774 0.0
C805 C 0.29658 0.4223 0.5094 0.0
N806 N 0.31299 0.41689 0.53202 0.0
C807 C 0.28354 0.36407 0.42965 0.0
C808 C 0.24675 0.34609 0.46025 0.0
C809 C 0.26308 0.33191 0.44783 0.0
C810 C 0.2815 0.34135 0.43175 0.0
C811 C 0.2496 0.36878 0.45807 0.0
N812 N 0.26838 0.37763 0.4447 0.0
H813 H 0.29764 0.37075 0.41622 0.0
H814 H 0.23643 0.37906 0.46684 0.0
H815 H 0.31434 0.37988 0.46931 0.0
H816 H 0.28628 0.43642 0.51272 0.0
O817 O 0.29731 0.41113 0.40721 0.0
O818 O 0.28208 0.43931 0.43389 0.0
O819 O 0.24911 0.41628 0.4793 0.0
C820 C 0.29634 0.43218 0.41068 0.0
H821 H 0.21721 0.43715 0.35428 0.0
H822 H 0.33526 0.38966 0.52912 0.0
H823 H 0.23193 0.33974 0.472 0.0
H824 H 0.2942 0.33125 0.42031 0.0
Co825 Co 0.37286 0.533 0.19977 0.0
C826 C 0.3773 0.5156 0.12583 0.0
C827 C 0.36348 0.49174 0.16143 0.0
C828 C 0.36239 0.48415 0.12608 0.0
N829 N 0.37276 0.51158 0.16114 0.0
N830 N 0.37099 0.49933 0.10377 0.0
H831 H 0.38314 0.53104 0.11586 0.0
H832 H 0.35649 0.4839 0.18504 0.0
C833 C 0.36426 0.50832 0.27179 0.0
O834 O 0.374 0.52363 0.29046 0.0
N835 N 0.37262 0.55483 0.23741 0.0
C836 C 0.38882 0.56838 0.24669 0.0
C837 C 0.38189 0.58116 0.27521 0.0
C838 C 0.35581 0.56008 0.25929 0.0
N839 N 0.36123 0.57573 0.28334 0.0
C840 C 0.41708 0.53722 0.1778 0.0
C841 C 0.43787 0.51883 0.23683 0.0
C842 C 0.45065 0.52865 0.20951 0.0
C843 C 0.43971 0.53726 0.17929 0.0
C844 C 0.41491 0.51894 0.23412 0.0
N845 N 0.40464 0.52873 0.20526 0.0
H846 H 0.40968 0.54458 0.15428 0.0
H847 H 0.40578 0.51135 0.25555 0.0
H848 H 0.40471 0.56872 0.2342 0.0
H849 H 0.3403 0.55187 0.25867 0.0
O850 O 0.37375 0.55649 0.16422 0.0
O851 O 0.34344 0.54208 0.18417 0.0
O852 O 0.36432 0.50892 0.23663 0.0
C853 C 0.35278 0.55603 0.16242 0.0
H854 H 0.35471 0.46924 0.11738 0.0
H855 H 0.39165 0.59282 0.28993 0.0
H856 H 0.44544 0.51165 0.26061 0.0
H857 H 0.44856 0.54433 0.15667 0.0
Co858 Co 0.24299 0.62156 0.95243 0.0
C859 C 0.26288 0.62192 0.87969 0.0
C860 C 0.28186 0.60271 0.91629 0.0
C861 C 0.28932 0.59928 0.88118 0.0
N862 N 0.26535 0.61721 0.91547 0.0
N863 N 0.27709 0.61126 0.85845 0.0
H864 H 0.24952 0.63111 0.86846 0.0
H865 H 0.28669 0.59333 0.93983 0.0
C866 C 0.28176 0.614 1.00396 0.0
O867 O 0.2931 0.62908 0.98718 0.0
N868 N 0.2206 0.62504 0.9884 0.0
C869 C 0.20615 0.64134 0.99181 0.0
C870 C 0.1933 0.63714 0.02185 0.0
C871 C 0.21629 0.61111 0.01573 0.0
N872 N 0.19974 0.6181 0.03675 0.0
C873 C 0.25111 0.6654 0.93021 0.0
C874 C 0.26077 0.68325 0.99723 0.0
C875 C 0.26078 0.69696 0.96638 0.0
C876 C 0.25565 0.68756 0.93273 0.0
C877 C 0.25626 0.66081 0.99341 0.0
N878 N 0.25199 0.65199 0.95988 0.0
H879 H 0.24604 0.65931 0.9042 0.0
H880 H 0.25576 0.65068 0.01751 0.0
H881 H 0.20513 0.65528 0.97389 0.0
H882 H 0.22539 0.59632 0.02043 0.0
O883 O 0.22157 0.62645 0.91436 0.0
O884 O 0.22986 0.59417 0.93646 0.0
O885 O 0.26257 0.60951 0.99285 0.0
C886 C 0.21874 0.60554 0.91294 0.0
H887 H 0.3012 0.58731 0.87274 0.0
H888 H 0.18016 0.64723 0.03176 0.0
H889 H 0.26427 0.68975 0.024 0.0
H890 H 0.25449 0.69741 0.90829 0.0
Co891 Co 0.15712 0.49823 0.69945 0.0
C892 C 0.15857 0.51827 0.62721 0.0
C893 C 0.17904 0.53548 0.66401 0.0
C894 C 0.18387 0.54197 0.6288 0.0
N895 N 0.16295 0.52062 0.66309 0.0
N896 N 0.17104 0.53088 0.60565 0.0
H897 H 0.14892 0.50519 0.61645 0.0
H898 H 0.18846 0.5395 0.68789 0.0
C899 C 0.16293 0.53763 0.74992 0.0
O900 O 0.15016 0.54967 0.72953 0.0
N901 N 0.15215 0.4756 0.73456 0.0
C902 C 0.13608 0.46081 0.73524 0.0
C903 C 0.13921 0.4474 0.76498 0.0
C904 C 0.16494 0.47093 0.76314 0.0
N905 N 0.15742 0.45382 0.78231 0.0
C906 C 0.11325 0.50688 0.674 0.0
C907 C 0.09475 0.51353 0.74166 0.0
C908 C 0.08091 0.51369 0.71102 0.0
C909 C 0.09089 0.51081 0.67676 0.0
C910 C 0.11726 0.51033 0.73751 0.0
N911 N 0.12639 0.50697 0.70393 0.0
H912 H 0.11963 0.50292 0.64764 0.0
H913 H 0.12721 0.50946 0.76172 0.0
H914 H 0.12309 0.45984 0.71551 0.0
H915 H 0.1794 0.48002 0.76982 0.0
O916 O 0.15538 0.47657 0.66032 0.0
O917 O 0.1854 0.48587 0.68915 0.0
O918 O 0.16661 0.51783 0.74121 0.0
C919 C 0.1763 0.47419 0.664 0.0
H920 H 0.19703 0.55257 0.62085 0.0
H921 H 0.1291 0.43382 0.77285 0.0
H922 H 0.08835 0.51505 0.769 0.0
H923 H 0.08162 0.51116 0.65178 0.0
Co924 Co 0.27606 0.61959 0.55499 0.0
C925 C 0.25619 0.6198 0.62744 0.0
C926 C 0.24201 0.59534 0.59373 0.0
C927 C 0.23572 0.59167 0.62935 0.0
N928 N 0.25477 0.61315 0.59248 0.0
N929 N 0.24502 0.60689 0.65049 0.0
H930 H 0.26714 0.63227 0.6366 0.0
H931 H 0.23943 0.58437 0.57115 0.0
C932 C 0.2336 0.6153 0.51351 0.0
O933 O 0.22396 0.62612 0.53982 0.0
N934 N 0.29773 0.62573 0.51866 0.0
C935 C 0.31415 0.63994 0.52221 0.0
C936 C 0.32601 0.64001 0.49045 0.0
C937 C 0.29979 0.61723 0.48498 0.0
N938 N 0.31696 0.62577 0.46699 0.0
C939 C 0.27693 0.66354 0.58349 0.0
C940 C 0.25652 0.68388 0.52577 0.0
C941 C 0.26419 0.6969 0.55445 0.0
C942 C 0.2746 0.68628 0.5835 0.0
C943 C 0.25949 0.66118 0.52654 0.0
N944 N 0.26898 0.65101 0.55574 0.0
H945 H 0.2861 0.65621 0.60527 0.0
H946 H 0.25492 0.65209 0.5027 0.0
H947 H 0.31732 0.64952 0.5463 0.0
H948 H 0.28887 0.60521 0.47387 0.0
O949 O 0.29868 0.61831 0.59272 0.0
O950 O 0.2875 0.59026 0.56061 0.0
O951 O 0.25423 0.61262 0.51451 0.0
C952 C 0.29998 0.59753 0.58638 0.0
H953 H 0.22708 0.57756 0.63936 0.0
H954 H 0.34046 0.64952 0.4854 0.0
H955 H 0.24902 0.69126 0.50209 0.0
H956 H 0.2811 0.69549 0.60611 0.0
Co957 Co 0.15646 0.53165 0.30604 0.0
C958 C 0.15328 0.50702 0.37338 0.0
C959 C 0.18145 0.49796 0.34289 0.0
C960 C 0.18436 0.49164 0.37867 0.0
N961 N 0.16204 0.508 0.33967 0.0
N962 N 0.16665 0.49761 0.39775 0.0
H963 H 0.13922 0.51627 0.38152 0.0
H964 H 0.19394 0.49811 0.32214 0.0
C965 C 0.16484 0.49238 0.25658 0.0
O966 O 0.1555 0.47962 0.28067 0.0
N967 N 0.15116 0.55568 0.27372 0.0
C968 C 0.13642 0.57159 0.2786 0.0
C969 C 0.13805 0.58604 0.25007 0.0
C970 C 0.16164 0.56062 0.24255 0.0
N971 N 0.15389 0.57912 0.22745 0.0
C972 C 0.11167 0.53145 0.32939 0.0
C973 C 0.09388 0.51115 0.26943 0.0
C974 C 0.07981 0.5185 0.29696 0.0
C975 C 0.08911 0.5288 0.32718 0.0
C976 C 0.11644 0.51451 0.27235 0.0
N977 N 0.12531 0.52409 0.30258 0.0
H978 H 0.118 0.54029 0.35235 0.0
H979 H 0.12639 0.51012 0.2494 0.0
H980 H 0.12537 0.5727 0.30143 0.0
H981 H 0.17495 0.55116 0.23165 0.0
O982 O 0.15575 0.55157 0.34782 0.0
O983 O 0.18525 0.5431 0.31717 0.0
O984 O 0.16533 0.51299 0.26208 0.0
C985 C 0.17667 0.55353 0.34443 0.0
H986 H 0.19922 0.48539 0.39043 0.0
H987 H 0.1282 0.60043 0.24617 0.0
H988 H 0.08745 0.50362 0.24507 0.0
H989 H 0.079 0.53495 0.34903 0.0
Co990 Co 0.23903 0.40422 0.05009 0.0
C991 C 0.26448 0.4012 0.11691 0.0
C992 C 0.27673 0.4261 0.08195 0.0
C993 C 0.28524 0.4291 0.11635 0.0
N994 N 0.26361 0.40852 0.08226 0.0
N995 N 0.27713 0.41357 0.13829 0.0
H996 H 0.25344 0.38939 0.12813 0.0
H997 H 0.27762 0.4378 0.05996 0.0
C998 C 0.27643 0.41246 0.99716 0.0
O999 O 0.28849 0.39902 0.0163 0.0
N1000 N 0.21433 0.40039 0.01894 0.0
C1001 C 0.19873 0.38522 0.02234 0.0
C1002 C 0.1844 0.38756 0.99383 0.0
C1003 C 0.20936 0.41179 0.98879 0.0
N1004 N 0.1912 0.40421 0.97273 0.0
C1005 C 0.24458 0.35903 0.06922 0.0
C1006 C 0.25288 0.34317 1.00027 0.0
C1007 C 0.25111 0.32819 0.02922 0.0
C1008 C 0.24704 0.33662 0.06405 0.0
C1009 C 0.25062 0.36568 0.00675 0.0
N1010 N 0.24685 0.37352 0.04115 0.0
H1011 H 0.23945 0.36442 0.09569 0.0
H1012 H 0.25089 0.37663 0.98372 0.0
H1013 H 0.19806 0.37309 0.04371 0.0
H1014 H 0.2188 0.42539 0.9789 0.0
O1015 O 0.22017 0.40038 0.09243 0.0
O1016 O 0.22729 0.4321 0.06739 0.0
O1017 O 0.25655 0.41554 0.00636 0.0
C1018 C 0.21751 0.42134 0.09325 0.0
H1019 H 0.29413 0.44322 0.12556 0.0
H1020 H 0.17042 0.37743 0.9885 0.0
H1021 H 0.25565 0.33756 0.97268 0.0
H1022 H 0.24458 0.32586 0.08711 0.0
Co1023 Co 0.36734 0.49736 0.80481 0.0
C1024 C 0.3778 0.52007 0.87143 0.0
C1025 C 0.34962 0.53387 0.84598 0.0
C1026 C 0.35097 0.54158 0.88118 0.0
N1027 N 0.36633 0.52016 0.84029 0.0
N1028 N 0.36872 0.53286 0.89691 0.0
H1029 H 0.3906 0.50847 0.87713 0.0
H1030 H 0.33603 0.53592 0.82767 0.0
C1031 C 0.36289 0.52271 0.73295 0.0
O1032 O 0.37867 0.51126 0.71835 0.0
N1033 N 0.36813 0.47376 0.76963 0.0
C1034 C 0.37945 0.45506 0.77302 0.0
C1035 C 0.37634 0.4426 0.74257 0.0
C1036 C 0.35712 0.47165 0.73796 0.0
N1037 N 0.36251 0.45316 0.72036 0.0
C1038 C 0.41331 0.48892 0.80897 0.0
C1039 C 0.42813 0.52762 0.78031 0.0
C1040 C 0.44353 0.51181 0.7905 0.0
C1041 C 0.43564 0.49238 0.80543 0.0
C1042 C 0.40573 0.52338 0.78407 0.0
N1043 N 0.39843 0.50374 0.79678 0.0
H1044 H 0.40815 0.47451 0.82309 0.0
H1045 H 0.39438 0.53618 0.77758 0.0
H1046 H 0.38895 0.45023 0.79627 0.0
H1047 H 0.34568 0.48345 0.72756 0.0
O1048 O 0.3701 0.47621 0.8442 0.0
O1049 O 0.3388 0.48713 0.82204 0.0
O1050 O 0.35714 0.51928 0.76615 0.0
C1051 C 0.34907 0.47517 0.84582 0.0
H1052 H 0.33859 0.55079 0.89539 0.0
H1053 H 0.38359 0.42689 0.73723 0.0
H1054 H 0.43331 0.54318 0.76959 0.0
H1055 H 0.44669 0.4801 0.81564 0.0
H1056 H 0.15766 0.07629 0.23893 0.0
H1057 H 0.17581 1.01235 0.20166 0.0
H1058 H 0.19437 0.02826 0.14914 0.0
H1059 H 0.20674 0.06067 0.1141 0.0
H1060 H 0.18898 0.12447 0.1526 0.0
H1061 H 0.16922 0.10838 0.20353 0.0
C1062 C 0.16551 0.06576 0.21923 0.0
C1063 C 0.16517 0.04301 0.22468 0.0
C1064 C 0.17643 0.07508 0.18897 0.0
C1065 C 0.17568 0.02984 0.19861 0.0
C1066 C 0.18639 0.03898 0.16838 0.0
C1067 C 0.19839 0.07105 0.13344 0.0
C1068 C 0.19942 0.09387 0.1291 0.0
C1069 C 0.18705 0.06162 0.1633 0.0
C1070 C 0.18857 0.10692 0.15488 0.0
C1071 C 0.17721 0.09771 0.18423 0.0
H1072 H 0.17122 0.96006 0.4156 0.0
H1073 H 0.21305 0.95326 0.32194 0.0
H1074 H 0.23948 0.93336 0.35875 0.0
H1075 H 0.25138 0.9185 0.41768 0.0
H1076 H 0.21123 0.92716 0.51297 0.0
H1077 H 0.18375 0.94565 0.47575 0.0
C1078 C 0.18603 0.954 0.40322 0.0
C1079 C 0.18996 0.95797 0.36576 0.0
C1080 C 0.20159 0.94295 0.42499 0.0
C1081 C 0.2095 0.95042 0.35049 0.0
C1082 C 0.22467 0.93901 0.3716 0.0
C1083 C 0.23653 0.92421 0.43039 0.0
C1084 C 0.2334 0.9211 0.46823 0.0
C1085 C 0.22097 0.93524 0.40889 0.0
C1086 C 0.21416 0.92914 0.48403 0.0
C1087 C 0.19838 0.93974 0.46266 0.0
H1088 H 0.30938 0.92672 0.6688 0.0
H1089 H 0.31129 0.97065 0.57716 0.0
H1090 H 0.33155 0.99706 0.61343 0.0
H1091 H 0.34858 1.00806 0.67138 0.0
H1092 H 0.34414 0.96582 0.765 0.0
H1093 H 0.32508 0.93862 0.72817 0.0
C1094 C 0.3144 0.94201 0.65673 0.0
C1095 C 0.30903 0.94651 0.61997 0.0
C1096 C 0.32557 0.95753 0.67827 0.0
C1097 C 0.31524 0.96666 0.60516 0.0
C1098 C 0.32686 0.9818 0.62596 0.0
C1099 C 0.34357 0.99285 0.68376 0.0
C1100 C 0.34812 0.98898 0.721 0.0
C1101 C 0.33212 0.97747 0.66256 0.0
C1102 C 0.34101 0.9693 0.73652 0.0
C1103 C 0.33011 0.95368 0.71537 0.0
H1104 H 0.30311 0.05276 0.8726 0.0
H1105 H 0.36441 0.08255 0.8992 0.0
H1106 H 0.34697 0.10422 0.94629 0.0
H1107 H 0.31474 0.11441 0.98157 0.0
H1108 H 0.25311 0.08484 0.9569 0.0
H1109 H 0.2701 0.06374 0.90792 0.0
C1110 C 0.3126 0.06412 0.8885 0.0
C1111 C 0.33517 0.06592 0.88198 0.0
C1112 C 0.30239 0.07666 0.91623 0.0
C1113 C 0.3471 0.08068 0.90329 0.0
C1114 C 0.33712 0.09316 0.93043 0.0
C1115 C 0.3049 0.10346 0.96544 0.0
C1116 C 0.28255 0.10138 0.97325 0.0
C1117 C 0.31482 0.09123 0.93737 0.0
C1118 C 0.27029 0.08692 0.95179 0.0
C1119 C 0.28005 0.07477 0.92366 0.0
H1120 H 0.21897 0.965 0.89915 0.0
H1121 H 0.20773 0.90067 0.8566 0.0
H1122 H 0.19007 0.91602 0.80316 0.0
H1123 H 0.17763 0.94754 0.76757 0.0
H1124 H 0.18805 1.01212 0.80939 0.0
H1125 H 0.20577 0.99697 0.86337 0.0
C1126 C 0.21251 0.95435 0.87833 0.0
C1127 C 0.21462 0.93158 0.88248 0.0
C1128 C 0.20205 0.96336 0.8472 0.0
C1129 C 0.20623 0.91817 0.85477 0.0
C1130 C 0.19611 0.92696 0.8239 0.0
C1131 C 0.18364 0.95839 0.7885 0.0
C1132 C 0.18127 0.98108 0.78402 0.0
C1133 C 0.19387 0.94952 0.81974 0.0
C1134 C 0.18942 0.99465 0.81174 0.0
C1135 C 0.19966 0.98595 0.8428 0.0
H1136 H 0.27232 0.91717 0.10336 0.0
H1137 H 0.30864 0.93154 0.00569 0.0
H1138 H 0.33642 0.9499 0.04218 0.0
H1139 H 0.35057 0.96211 0.10259 0.0
H1140 H 0.31242 0.94973 0.19902 0.0
H1141 H 0.28552 0.93035 0.16261 0.0
C1142 C 0.28636 0.92419 0.08996 0.0
C1143 C 0.28836 0.92268 0.05166 0.0
C1144 C 0.30213 0.93507 0.11112 0.0
C1145 C 0.30657 0.93232 0.035 0.0
C1146 C 0.32255 0.94281 0.05595 0.0
C1147 C 0.33648 0.95494 0.11561 0.0
C1148 C 0.33374 0.95711 0.15373 0.0
C1149 C 0.32058 0.94426 0.09413 0.0
C1150 C 0.31506 0.94822 0.16992 0.0
C1151 C 0.29961 0.93713 0.14904 0.0
H1152 H 0.30889 0.05951 0.39678 0.0
H1153 H 0.33571 0.12195 0.36781 0.0
H1154 H 0.35738 0.10523 0.32006 0.0
H1155 H 0.36822 0.07321 0.28441 0.0
H1156 H 0.34197 1.01044 0.3125 0.0
H1157 H 0.32108 0.02678 0.36209 0.0
C1158 C 0.31961 0.06941 0.38023 0.0
C1159 C 0.3205 0.09209 0.38628 0.0
C1160 C 0.33228 0.0596 0.35226 0.0
C1161 C 0.33453 0.10453 0.36417 0.0
C1162 C 0.34701 0.09496 0.33661 0.0
C1163 C 0.35809 0.063 0.30148 0.0
C1164 C 0.35686 0.0405 0.29431 0.0
C1165 C 0.34595 0.07255 0.33011 0.0
C1166 C 0.34346 0.02775 0.31706 0.0
C1167 C 0.33136 0.03713 0.34555 0.0
H1168 H 0.18049 0.06165 0.59362 0.0
H1169 H 0.21714 0.07734 0.69004 0.0
H1170 H 0.24217 0.09923 0.65362 0.0
H1171 H 0.2544 0.11343 0.59437 0.0
H1172 H 0.22006 0.09565 0.49656 0.0
H1173 H 0.1937 0.07512 0.53312 0.0
C1174 C 0.19382 0.07009 0.60663 0.0
C1175 C 0.1967 0.06809 0.64476 0.0
C1176 C 0.20872 0.08222 0.58513 0.0
C1177 C 0.21443 0.07867 0.66093 0.0
C1178 C 0.2288 0.09121 0.64006 0.0
C1179 C 0.24104 0.10526 0.58095 0.0
C1180 C 0.23918 0.10644 0.54259 0.0
C1181 C 0.2262 0.09306 0.60213 0.0
C1182 C 0.22194 0.09523 0.52592 0.0
C1183 C 0.2068 0.08346 0.5469 0.0
H1184 H 0.85803 1.00556 0.85134 0.0
H1185 H 0.85578 0.96353 0.75753 0.0
H1186 H 0.83731 0.93561 0.79399 0.0
H1187 H 0.82074 0.92327 0.85297 0.0
H1188 H 0.82094 0.96718 0.9445 0.0
H1189 H 0.84119 0.99382 0.90887 0.0
C1190 C 0.85367 0.99023 0.83878 0.0
C1191 C 0.85863 0.98673 0.80158 0.0
C1192 C 0.84251 0.97443 0.85973 0.0
C1193 C 0.85235 0.96681 0.78598 0.0
C1194 C 0.84171 0.95078 0.80692 0.0
C1195 C 0.82529 0.93862 0.86514 0.0
C1196 C 0.81925 0.94303 0.9017 0.0
C1197 C 0.83657 0.95439 0.84389 0.0
C1198 C 0.82526 0.96319 0.91665 0.0
C1199 C 0.83688 0.97853 0.89619 0.0
H1200 H 0.77265 0.1026 0.60063 0.0
H1201 H 0.81116 0.09439 0.50335 0.0
H1202 H 0.83892 0.07505 0.53896 0.0
H1203 H 0.85249 0.06051 0.59874 0.0
H1204 H 0.81202 0.06706 0.69412 0.0
H1205 H 0.7851 0.08709 0.65853 0.0
C1206 C 0.78716 0.09674 0.58704 0.0
C1207 C 0.78976 0.10032 0.54915 0.0
C1208 C 0.80289 0.08537 0.60763 0.0
C1209 C 0.8086 0.09207 0.53231 0.0
C1210 C 0.82456 0.08102 0.5528 0.0
C1211 C 0.83786 0.06653 0.61173 0.0
C1212 C 0.83449 0.06252 0.64939 0.0
C1213 C 0.82197 0.07764 0.59062 0.0
C1214 C 0.81515 0.06996 0.66543 0.0
C1215 C 0.7997 0.08143 0.64502 0.0
H1216 H 0.72291 0.05954 0.3977 0.0
H1217 H 0.69126 0.12107 0.3786 0.0
H1218 H 0.67062 0.10537 0.32863 0.0
H1219 H 0.66233 0.07468 0.28797 0.0
H1220 H 0.69403 0.01305 0.30577 0.0
H1221 H 0.71344 0.02809 0.35792 0.0
C1222 C 0.71125 0.06941 0.38298 0.0
C1223 C 0.70871 0.09155 0.39237 0.0
C1224 C 0.69941 0.06026 0.3535 0.0
C1225 C 0.69367 0.10404 0.37235 0.0
C1226 C 0.68181 0.09506 0.34351 0.0
C1227 C 0.67338 0.06443 0.30329 0.0
C1228 C 0.67653 0.04262 0.29249 0.0
C1229 C 0.6847 0.07327 0.33344 0.0
C1230 C 0.69105 0.02981 0.31309 0.0
C1231 C 0.70228 0.03846 0.3431 0.0
H1232 H 0.75445 0.93388 0.06323 0.0
H1233 H 0.69791 0.90594 0.01235 0.0
H1234 H 0.67463 0.92282 0.05784 0.0
H1235 H 0.66962 0.94629 0.11183 0.0
H1236 H 0.72584 0.97389 0.16386 0.0
H1237 H 0.74947 0.95655 0.11885 0.0
C1238 C 0.73706 0.93137 0.06216 0.0
C1239 C 0.72818 0.91849 0.03394 0.0
C1240 C 0.72346 0.9412 0.08887 0.0
C1241 C 0.70548 0.91561 0.03343 0.0
C1242 C 0.69199 0.92535 0.05958 0.0
C1243 C 0.68705 0.94844 0.11351 0.0
C1244 C 0.69577 0.96147 0.14154 0.0
C1245 C 0.70071 0.93828 0.08738 0.0
C1246 C 0.71849 0.96397 0.14288 0.0
C1247 C 0.73211 0.95405 0.11696 0.0
H1248 H 0.80597 0.05945 0.11691 0.0
H1249 H 0.8272 0.12329 0.14959 0.0
H1250 H 0.84642 0.10773 0.20138 0.0
H1251 H 0.85693 0.07621 0.23882 0.0
H1252 H 0.83588 1.01215 0.20719 0.0
H1253 H 0.81722 0.02747 0.15424 0.0
C1254 C 0.81497 0.06993 0.13516 0.0
C1255 C 0.81511 0.09261 0.12886 0.0
C1256 C 0.8261 0.06081 0.16548 0.0
C1257 C 0.82675 0.10583 0.1533 0.0
C1258 C 0.8378 0.09693 0.18318 0.0
C1259 C 0.84839 0.06551 0.22031 0.0
C1260 C 0.84799 0.04294 0.22736 0.0
C1261 C 0.83755 0.07447 0.18973 0.0
C1262 C 0.83662 0.02954 0.20279 0.0
C1263 C 0.82586 0.03833 0.17234 0.0
H1264 H 0.71363 0.05229 0.87144 0.0
H1265 H 0.65082 0.07957 0.89646 0.0
H1266 H 0.6664 0.10018 0.94651 0.0
H1267 H 0.69758 0.11039 0.98464 0.0
H1268 H 0.76069 0.08363 0.96054 0.0
H1269 H 0.74541 0.06329 0.90942 0.0
C1270 C 0.70339 0.06289 0.88761 0.0
C1271 C 0.68096 0.06429 0.87964 0.0
C1272 C 0.71253 0.0749 0.91698 0.0
C1273 C 0.66808 0.07806 0.90146 0.0
C1274 C 0.67699 0.08992 0.93037 0.0
C1275 C 0.70809 0.10019 0.96823 0.0
C1276 C 0.73039 0.09873 0.97689 0.0
C1277 C 0.69917 0.08844 0.9386 0.0
C1278 C 0.74353 0.08526 0.9549 0.0
C1279 C 0.73475 0.07353 0.92548 0.0
H1280 H 0.67103 1.00429 0.67053 0.0
H1281 H 0.66928 0.95976 0.76125 0.0
H1282 H 0.68612 0.93151 0.72331 0.0
H1283 H 0.70351 0.91997 0.66491 0.0
H1284 H 0.70772 0.96602 0.57639 0.0
H1285 H 0.68855 0.99312 0.61295 0.0
C1286 C 0.67452 0.98846 0.68216 0.0
C1287 C 0.66887 0.98424 0.71885 0.0
C1288 C 0.68512 0.97258 0.66062 0.0
C1289 C 0.67362 0.9636 0.73333 0.0
C1290 C 0.68336 0.94744 0.71161 0.0
C1291 C 0.70006 0.93587 0.65352 0.0
C1292 C 0.70699 0.94079 0.61761 0.0
C1293 C 0.68946 0.95177 0.67528 0.0
C1294 C 0.70262 0.96166 0.60372 0.0
C1295 C 0.69164 0.97724 0.62472 0.0
H1296 H 0.76745 0.91546 0.41773 0.0
H1297 H 0.80672 0.92263 0.51411 0.0
H1298 H 0.83397 0.94265 0.47864 0.0
H1299 H 0.84643 0.95906 0.41964 0.0
H1300 H 0.8053 0.95328 0.32511 0.0
H1301 H 0.77935 0.93183 0.36012 0.0
C1302 C 0.78205 0.92118 0.43107 0.0
C1303 C 0.78494 0.91729 0.46873 0.0
C1304 C 0.79747 0.93305 0.4106 0.0
C1305 C 0.80391 0.9253 0.48532 0.0
C1306 C 0.81957 0.93676 0.46493 0.0
C1307 C 0.83189 0.9529 0.40669 0.0
C1308 C 0.82798 0.95771 0.36952 0.0
C1309 C 0.81653 0.94086 0.42748 0.0
C1310 C 0.80881 0.9499 0.35351 0.0
C1311 C 0.7939 0.93757 0.37357 0.0
H1312 H 0.66286 0.51898 0.66053 0.0
H1313 H 0.68058 0.55254 0.75917 0.0
H1314 H 0.70116 0.57917 0.72338 0.0
H1315 H 0.71449 0.59306 0.66337 0.0
H1316 H 0.69899 0.55738 0.56582 0.0
H1317 H 0.67724 0.53179 0.6015 0.0
C1318 C 0.67109 0.53218 0.67428 0.0
C1319 C 0.66985 0.53374 0.71268 0.0
C1320 C 0.68333 0.54724 0.6535 0.0
C1321 C 0.68108 0.55084 0.72979 0.0
C1322 C 0.69287 0.56616 0.70924 0.0
C1323 C 0.70616 0.5798 0.64994 0.0
C1324 C 0.70814 0.57739 0.61172 0.0
C1325 C 0.69411 0.5646 0.67099 0.0
C1326 C 0.69768 0.55975 0.59502 0.0
C1327 C 0.68522 0.54506 0.61548 0.0
H1328 H 0.71272 0.46614 0.86408 0.0
H1329 H 0.64933 0.44553 0.90018 0.0
H1330 H 0.6655 0.42571 0.95077 0.0
H1331 H 0.69745 0.41461 0.98637 0.0
H1332 H 0.76109 0.43493 0.95125 0.0
H1333 H 0.74516 0.45406 0.89933 0.0
C1334 C 0.70248 0.45716 0.88282 0.0
C1335 C 0.67973 0.4574 0.87788 0.0
C1336 C 0.71196 0.44563 0.91242 0.0
C1337 C 0.66683 0.44572 0.90288 0.0
C1338 C 0.67608 0.43432 0.93206 0.0
C1339 C 0.70792 0.42307 0.96729 0.0
C1340 C 0.73057 0.42314 0.9731 0.0
C1341 C 0.69861 0.43421 0.93732 0.0
C1342 C 0.74366 0.43441 0.94782 0.0
C1343 C 0.73452 0.44547 0.91795 0.0
H1344 H 0.85576 0.50769 0.1597 0.0
H1345 H 0.85289 0.46607 0.25425 0.0
H1346 H 0.83436 0.43814 0.2184 0.0
H1347 H 0.81783 0.4257 0.15994 0.0
H1348 H 0.81815 0.46916 0.06756 0.0
H1349 H 0.83871 0.49584 0.10241 0.0
C1350 C 0.85123 0.49245 0.17247 0.0
C1351 C 0.85599 0.48902 0.20969 0.0
C1352 C 0.83994 0.47666 0.15191 0.0
C1353 C 0.84955 0.46924 0.22574 0.0
C1354 C 0.83888 0.45321 0.20518 0.0
C1355 C 0.82247 0.44098 0.14744 0.0
C1356 C 0.8164 0.44529 0.11095 0.0
C1357 C 0.83383 0.45674 0.16821 0.0
C1358 C 0.8225 0.46531 0.09545 0.0
C1359 C 0.8343 0.48065 0.11543 0.0
H1360 H 0.77343 0.58721 0.44919 0.0
H1361 H 0.83 0.61099 0.50577 0.0
H1362 H 0.85348 0.59472 0.46011 0.0
H1363 H 0.85865 0.57333 0.40429 0.0
H1364 H 0.80281 0.54931 0.34648 0.0
H1365 H 0.77875 0.56599 0.3918 0.0
C1366 C 0.79088 0.58894 0.45143 0.0
C1367 C 0.79971 0.60053 0.48124 0.0
C1368 C 0.80463 0.57944 0.42461 0.0
C1369 C 0.82248 0.60238 0.48338 0.0
C1370 C 0.83607 0.59299 0.45716 0.0
C1371 C 0.84121 0.57183 0.40137 0.0
C1372 C 0.83268 0.56009 0.37165 0.0
C1373 C 0.82741 0.58146 0.42767 0.0
C1374 C 0.80996 0.55828 0.3688 0.0
C1375 C 0.79613 0.56782 0.39487 0.0
H1376 H 0.66474 0.44975 0.27278 0.0
H1377 H 0.68857 0.51322 0.30225 0.0
H1378 H 0.70729 0.49765 0.35481 0.0
H1379 H 0.71784 0.46573 0.39216 0.0
H1380 H 0.69438 0.40228 0.36191 0.0
H1381 H 0.67474 0.41806 0.31053 0.0
C1382 C 0.67391 0.46024 0.29077 0.0
C1383 C 0.6751 0.48273 0.28324 0.0
C1384 C 0.68482 0.45113 0.32111 0.0
C1385 C 0.68726 0.4959 0.30702 0.0
C1386 C 0.69803 0.48698 0.33726 0.0
C1387 C 0.70823 0.45538 0.37459 0.0
C1388 C 0.70754 0.43279 0.38131 0.0
C1389 C 0.69702 0.46459 0.34458 0.0
C1390 C 0.69518 0.4197 0.35777 0.0
C1391 C 0.68393 0.42872 0.32818 0.0
H1392 H 0.81048 0.47588 0.63396 0.0
H1393 H 0.8707 0.44086 0.621 0.0
H1394 H 0.85511 0.4196 0.5718 0.0
H1395 H 0.82485 0.41116 0.53074 0.0
H1396 H 0.76449 0.44604 0.54213 0.0
H1397 H 0.7795 0.46674 0.59298 0.0
C1398 C 0.82008 0.46343 0.62065 0.0
C1399 C 0.84181 0.46006 0.63158 0.0
C1400 C 0.811 0.45116 0.59163 0.0
C1401 C 0.85398 0.44395 0.61348 0.0
C1402 C 0.84508 0.43171 0.5851 0.0
C1403 C 0.8149 0.42324 0.5443 0.0
C1404 C 0.79347 0.42688 0.53222 0.0
C1405 C 0.82368 0.43524 0.57365 0.0
C1406 C 0.78099 0.44272 0.55051 0.0
C1407 C 0.7896 0.45465 0.57977 0.0
H1408 H 0.85846 0.52045 0.84257 0.0
H1409 H 0.84807 0.56039 0.74747 0.0
H1410 H 0.82807 0.58684 0.78458 0.0
H1411 H 0.81315 0.59869 0.8446 0.0
H1412 H 0.82094 0.55684 0.93805 0.0
H1413 H 0.84227 0.53133 0.90142 0.0
C1414 C 0.85198 0.53502 0.82994 0.0
C1415 C 0.8551 0.53845 0.79216 0.0
C1416 C 0.83998 0.54994 0.85137 0.0
C1417 C 0.84608 0.55727 0.77636 0.0
C1418 C 0.83463 0.57246 0.79767 0.0
C1419 C 0.81971 0.58407 0.85697 0.0
C1420 C 0.8157 0.57989 0.89433 0.0
C1421 C 0.83147 0.56902 0.83528 0.0
C1422 C 0.82385 0.56057 0.90958 0.0
C1423 C 0.83608 0.54594 0.88857 0.0
H1424 H 0.66629 0.57954 0.10345 0.0
H1425 H 0.72353 0.55201 0.15298 0.0
H1426 H 0.74631 0.5696 0.10711 0.0
H1427 H 0.75022 0.59227 0.05174 0.0
H1428 H 0.69308 0.62047 1.00284 0.0
H1429 H 0.67035 0.60336 0.04929 0.0
C1430 C 0.68376 0.57747 0.10435 0.0
C1431 C 0.69306 0.56438 0.1319 0.0
C1432 C 0.69693 0.58779 0.07774 0.0
C1433 C 0.71579 0.56197 0.13236 0.0
C1434 C 0.7289 0.57203 0.10598 0.0
C1435 C 0.73281 0.59478 0.05126 0.0
C1436 C 0.72352 0.60773 0.02346 0.0
C1437 C 0.71969 0.5849 0.07837 0.0
C1438 C 0.70085 0.61072 0.0237 0.0
C1439 C 0.68775 0.60085 0.05033 0.0
H1440 H 0.34878 0.51054 0.34106 0.0
H1441 H 0.35256 0.46697 0.24936 0.0
H1442 H 0.33322 0.43902 0.28456 0.0
H1443 H 0.31444 0.42708 0.34189 0.0
H1444 H 0.30891 0.47249 0.4309 0.0
H1445 H 0.3297 0.4993 0.39656 0.0
C1446 C 0.34552 0.49489 0.32868 0.0
C1447 C 0.3524 0.49092 0.29252 0.0
C1448 C 0.33397 0.4791 0.3488 0.0
C1449 C 0.34755 0.47059 0.277 0.0
C1450 C 0.33647 0.45456 0.29723 0.0
C1451 C 0.31793 0.44279 0.3538 0.0
C1452 C 0.31016 0.44762 0.38923 0.0
C1453 C 0.32952 0.4586 0.33324 0.0
C1454 C 0.31463 0.46823 0.40388 0.0
C1455 C 0.32655 0.48364 0.38419 0.0
H1456 H 0.31051 0.55254 0.13651 0.0
H1457 H 0.36903 0.59031 0.12489 0.0
H1458 H 0.35256 0.61138 0.07601 0.0
H1459 H 0.32207 0.61877 0.0347 0.0
H1460 H 0.26335 0.58121 0.04479 0.0
H1461 H 0.27921 0.56071 0.09543 0.0
C1462 C 0.31954 0.56555 0.12358 0.0
C1463 C 0.34107 0.56975 0.13479 0.0
C1464 C 0.30995 0.57768 0.09471 0.0
C1465 C 0.3525 0.58658 0.11715 0.0
C1466 C 0.34308 0.5987 0.08897 0.0
C1467 C 0.31265 0.60614 0.04793 0.0
C1468 C 0.29146 0.60166 0.03549 0.0
C1469 C 0.32191 0.59431 0.07719 0.0
C1470 C 0.27967 0.58514 0.0534 0.0
C1471 C 0.28877 0.57335 0.08255 0.0
H1472 H 0.21633 0.56255 0.89258 0.0
H1473 H 0.19188 0.6262 0.86514 0.0
H1474 H 0.17241 0.61113 0.81315 0.0
H1475 H 0.16285 0.57999 0.774 0.0
H1476 H 0.1878 0.51637 0.80064 0.0
H1477 H 0.20629 0.53122 0.8538 0.0
C1478 C 0.20652 0.57308 0.87551 0.0
C1479 C 0.20551 0.59552 0.8832 0.0
C1480 C 0.19545 0.56429 0.84509 0.0
C1481 C 0.19293 0.60888 0.86024 0.0
C1482 C 0.18178 0.60026 0.8303 0.0
C1483 C 0.17223 0.56932 0.79148 0.0
C1484 C 0.17379 0.547 0.78297 0.0
C1485 C 0.18301 0.57801 0.82223 0.0
C1486 C 0.18621 0.53358 0.80615 0.0
C1487 C 0.19684 0.54208 0.83675 0.0
H1488 H 0.1727 0.46696 0.59029 0.0
H1489 H 0.21043 0.44955 0.68483 0.0
H1490 H 0.23456 0.42749 0.64699 0.0
H1491 H 0.24601 0.41425 0.58685 0.0
H1492 H 0.21048 0.43377 0.491 0.0
H1493 H 0.18464 0.45384 0.52916 0.0
C1494 C 0.18601 0.45804 0.60256 0.0
C1495 C 0.18958 0.45963 0.64047 0.0
C1496 C 0.20036 0.44587 0.58028 0.0
C1497 C 0.20726 0.44848 0.65583 0.0
C1498 C 0.2211 0.43588 0.63416 0.0
C1499 C 0.23246 0.42265 0.57426 0.0
C1500 C 0.23013 0.42222 0.53601 0.0
C1501 C 0.21796 0.43459 0.59633 0.0
C1502 C 0.21269 0.43368 0.5203 0.0
C1503 C 0.19786 0.44518 0.54217 0.0
H1504 H 0.3547 0.52155 0.65979 0.0
H1505 H 0.34462 0.56105 0.75527 0.0
H1506 H 0.32603 0.58849 0.71815 0.0
H1507 H 0.31199 0.6012 0.65823 0.0
H1508 H 0.31845 0.55952 0.56457 0.0
H1509 H 0.3392 0.53334 0.60081 0.0
C1510 C 0.34851 0.53622 0.67245 0.0
C1511 C 0.35128 0.53928 0.71031 0.0
C1512 C 0.33716 0.55166 0.65108 0.0
C1513 C 0.34275 0.55823 0.72629 0.0
C1514 C 0.33213 0.57398 0.705 0.0
C1515 C 0.31798 0.58642 0.64579 0.0
C1516 C 0.31374 0.58246 0.60856 0.0
C1517 C 0.32917 0.57089 0.66734 0.0
C1518 C 0.32151 0.56307 0.59303 0.0
C1519 C 0.33336 0.54804 0.61381 0.0
H1520 H 0.24726 0.5948 0.45045 0.0
H1521 H 0.18941 0.61328 0.50926 0.0
H1522 H 0.16694 0.59634 0.46272 0.0
H1523 H 0.1633 0.57567 0.40543 0.0
H1524 H 0.22089 0.55749 0.34588 0.0
H1525 H 0.24355 0.57483 0.39208 0.0
C1526 C 0.22974 0.59522 0.45304 0.0
C1527 C 0.2202 0.60547 0.48361 0.0
C1528 C 0.2167 0.58544 0.42582 0.0
C1529 C 0.19739 0.60572 0.4862 0.0
C1530 C 0.18442 0.59594 0.45951 0.0
C1531 C 0.1808 0.57563 0.40236 0.0
C1532 C 0.19026 0.56531 0.37188 0.0
C1533 C 0.19384 0.58571 0.42919 0.0
C1534 C 0.21303 0.56537 0.36876 0.0
C1535 C 0.22607 0.57527 0.39533 0.0
H1536 H 0.16527 0.44969 0.23501 0.0
H1537 H 0.18725 0.51322 0.20167 0.0
H1538 H 0.20476 0.49735 0.14799 0.0
H1539 H 0.21488 0.465 0.11084 0.0
H1540 H 0.19257 0.40174 0.145 0.0
H1541 H 0.17415 0.4179 0.19722 0.0
C1542 C 0.17378 0.46016 0.21599 0.0
C1543 C 0.17484 0.48274 0.2228 0.0
C1544 C 0.18384 0.4509 0.18496 0.0
C1545 C 0.18605 0.49585 0.19748 0.0
C1546 C 0.19613 0.48674 0.16663 0.0
C1547 C 0.20583 0.45478 0.12953 0.0
C1548 C 0.20518 0.43207 0.12365 0.0
C1549 C 0.19528 0.46423 0.1601 0.0
C1550 C 0.19343 0.41919 0.14851 0.0
C1551 C 0.18285 0.42844 0.17857 0.0
H1552 H 0.31922 0.41456 0.97714 0.0
H1553 H 0.2561 0.43888 0.94681 0.0
H1554 H 0.27248 0.45997 0.89719 0.0
H1555 H 0.30518 0.47217 0.86246 0.0
H1556 H 0.36803 0.44786 0.89461 0.0
H1557 H 0.35138 0.42641 0.94293 0.0
C1558 C 0.30894 0.42437 0.95964 0.0
C1559 C 0.28633 0.42494 0.96599 0.0
C1560 C 0.31852 0.43665 0.93122 0.0
C1561 C 0.2735 0.43799 0.94287 0.0
C1562 C 0.2829 0.45013 0.91436 0.0
C1563 C 0.31521 0.46209 0.8799 0.0
C1564 C 0.33795 0.46169 0.87446 0.0
C1565 C 0.30545 0.44968 0.90824 0.0
C1566 C 0.35057 0.44857 0.89776 0.0
C1567 C 0.34103 0.43624 0.9256 0.0
H1568 H 0.26001 0.08971 0.30954 0.0
H1569 H 0.25613 0.15952 0.31257 0.0
H1570 H 0.26506 0.16137 0.24735 0.0
H1571 H 0.27258 0.14281 0.18941 0.0
H1572 H 0.27642 0.07286 0.1867 0.0
H1573 H 0.2697 0.07126 0.25228 0.0
C1574 C 0.26086 0.10525 0.29563 0.0
C1575 C 0.25688 0.12447 0.31513 0.0
C1576 C 0.26643 0.10611 0.25861 0.0
C1577 C 0.25879 0.14461 0.29755 0.0
C1578 C 0.26401 0.14563 0.26053 0.0
C1579 C 0.27216 0.12726 0.20335 0.0
C1580 C 0.27488 0.10801 0.18325 0.0
C1581 C 0.26773 0.12646 0.24079 0.0
C1582 C 0.27461 0.08793 0.20156 0.0
C1583 C 0.27046 0.08699 0.23898 0.0
H1584 H 0.13764 0.01392 0.44977 0.0
H1585 H 0.20391 0.03542 0.43747 0.0
H1586 H 0.21084 0.0273 0.50145 0.0
H1587 H 0.19839 0.01295 0.56079 0.0
H1588 H 0.1325 0.99084 0.57251 0.0
H1589 H 0.12532 0.99948 0.50839 0.0
C1590 C 0.15367 0.0167 0.46089 0.0
C1591 C 0.1702 0.02512 0.43842 0.0
C1592 C 0.15776 1.01139 0.49746 0.0
C1593 C 0.19072 0.02916 0.45385 0.0
C1594 C 0.19482 0.02424 0.49047 0.0
C1595 C 0.18264 1.0096 0.54897 0.0
C1596 C 0.16606 1.00086 0.57093 0.0
C1597 C 0.17856 0.01503 0.51236 0.0
C1598 C 0.14548 0.9973 0.55579 0.0
C1599 C 0.14138 1.00238 0.51934 0.0
H1600 H 0.25809 0.88038 0.70137 0.0
H1601 H 0.2304 0.94478 0.70604 0.0
H1602 H 0.24041 0.94756 0.77025 0.0
H1603 H 0.25968 0.93272 0.82382 0.0
H1604 H 0.28788 0.86882 0.81877 0.0
H1605 H 0.27586 0.86501 0.75524 0.0
C1606 C 0.25428 0.89505 0.71637 0.0
C1607 C 0.24384 0.91245 0.69862 0.0
C1608 C 0.26077 0.89684 0.75282 0.0
C1609 C 0.23837 0.93109 0.71886 0.0
C1610 C 0.24437 0.93282 0.75549 0.0
C1611 C 0.26346 0.91818 0.80837 0.0
C1612 C 0.27523 0.9013 0.82499 0.0
C1613 C 0.25612 0.91606 0.77238 0.0
C1614 C 0.27931 0.8821 0.80576 0.0
C1615 C 0.27228 0.87991 0.76978 0.0
H1616 H 0.33325 1.00545 0.95942 0.0
H1617 H 0.4024 0.99735 0.94951 0.0
H1618 H 0.40704 1.00713 0.01384 0.0
H1619 H 0.3913 0.01832 0.07248 0.0
H1620 H 0.32204 0.02665 0.08211 0.0
H1621 H 0.31754 0.01711 0.01804 0.0
C1622 C 0.34925 1.00543 0.97166 0.0
C1623 C 0.36747 1.00027 0.95023 0.0
C1624 C 0.35177 1.0116 0.00825 0.0
C1625 C 0.38821 1.00101 0.96586 0.0
C1626 C 0.39084 1.00673 1.00242 0.0
C1627 C 0.37524 0.01811 0.06048 0.0
C1628 C 0.35709 0.02326 0.08212 0.0
C1629 C 0.37274 1.0122 0.02379 0.0
C1630 C 0.33636 0.02315 0.06608 0.0
C1631 C 0.33374 0.01739 0.0295 0.0
H1632 H 0.74126 0.9221 0.69682 0.0
H1633 H 0.81001 0.91061 0.705 0.0
H1634 H 0.80751 0.91186 0.77184 0.0
H1635 H 0.78524 0.91448 0.82733 0.0
H1636 H 0.71655 0.92645 0.81908 0.0
H1637 H 0.71948 0.92697 0.75234 0.0
C1638 C 0.75565 0.91987 0.71334 0.0
C1639 C 0.77574 0.91586 0.69639 0.0
C1640 C 0.75403 0.92071 0.75138 0.0
C1641 C 0.79444 0.91363 0.71775 0.0
C1642 C 0.79297 0.91429 0.75578 0.0
C1643 C 0.77091 0.91708 0.81085 0.0
C1644 C 0.7506 0.91994 0.8278 0.0
C1645 C 0.77278 0.91747 0.77281 0.0
C1646 C 0.73225 0.92404 0.80639 0.0
C1647 C 0.73393 0.9243 0.7684 0.0
H1648 H 0.88721 0.01803 0.44735 0.0
H1649 H 0.81878 0.033 0.44724 0.0
H1650 H 0.81642 0.02334 0.51166 0.0
H1651 H 0.83355 1.00891 0.56766 0.0
H1652 H 0.90168 0.99352 0.56715 0.0
H1653 H 0.9043 1.00414 0.50284 0.0
C1654 C 0.87174 0.01911 0.46132 0.0
C1655 C 0.85321 0.02604 0.44215 0.0
C1656 C 0.87034 1.01286 0.49802 0.0
C1657 C 0.83341 0.0279 0.4611 0.0
C1658 C 0.83195 0.02208 0.49792 0.0
C1659 C 0.8488 1.00748 0.55306 0.0
C1660 C 0.86733 0.99994 0.5715 0.0
C1661 C 0.85022 0.0141 0.51644 0.0
C1662 C 0.88723 0.9989 0.553 0.0
C1663 C 0.88872 1.00515 0.51649 0.0
H1664 H 0.76324 0.14062 0.31348 0.0
H1665 H 0.78986 0.07578 0.3164 0.0
H1666 H 0.78111 0.07104 0.25185 0.0
H1667 H 0.76436 0.08496 0.19502 0.0
H1668 H 0.73784 0.14968 0.19272 0.0
H1669 H 0.7473 0.15467 0.25712 0.0
C1670 C 0.76705 0.1254 0.30007 0.0
C1671 C 0.77699 0.10853 0.31994 0.0
C1672 C 0.76148 0.12262 0.26334 0.0
C1673 C 0.78235 0.08911 0.30182 0.0
C1674 C 0.7771 0.08629 0.265 0.0
C1675 C 0.76031 0.09993 0.20903 0.0
C1676 C 0.74989 0.11678 0.18983 0.0
C1677 C 0.76629 0.10279 0.24569 0.0
C1678 C 0.74545 0.13646 0.2075 0.0
C1679 C 0.75101 0.13932 0.24405 0.0
H1680 H 0.68522 1.01216 0.95103 0.0
H1681 H 0.61712 0.99694 0.95217 0.0
H1682 H 0.61471 1.00772 0.01655 0.0
H1683 H 0.63246 0.02046 0.07264 0.0
H1684 H 0.70073 0.03584 0.07093 0.0
H1685 H 0.70252 0.02683 0.00628 0.0
C1686 C 0.66998 1.01097 0.9657 0.0
C1687 C 0.65146 1.00322 0.94761 0.0
C1688 C 0.66871 0.01762 1.00222 0.0
C1689 C 0.63157 1.00249 0.9661 0.0
C1690 C 0.63021 1.00876 1.00266 0.0
C1691 C 0.6477 0.02193 0.05805 0.0
C1692 C 0.66643 0.02868 0.07679 0.0
C1693 C 0.64872 0.01624 0.02103 0.0
C1694 C 0.68599 0.0309 0.05731 0.0
C1695 C 0.68711 0.02547 0.02037 0.0
H1696 H 0.76268 0.5746 0.69245 0.0
H1697 H 0.79233 0.63776 0.68603 0.0
H1698 H 0.78376 0.64442 0.75033 0.0
H1699 H 0.76626 0.63297 0.80676 0.0
H1700 H 0.73699 0.56941 0.81412 0.0
H1701 H 0.746 0.56257 0.75039 0.0
C1702 C 0.76776 0.58951 0.70562 0.0
C1703 C 0.77855 0.60554 0.68519 0.0
C1704 C 0.76222 0.59339 0.74218 0.0
C1705 C 0.78438 0.62516 0.70179 0.0
C1706 C 0.77927 0.62902 0.73824 0.0
C1707 C 0.76207 0.61748 0.79472 0.0
C1708 C 0.75113 0.60171 0.81559 0.0
C1709 C 0.76791 0.61337 0.75849 0.0
C1710 C 0.74523 0.582 0.7989 0.0
C1711 C 0.75065 0.57792 0.7625 0.0
H1712 H 0.63235 0.50649 0.06429 0.0
H1713 H 0.69996 0.48806 0.06378 0.0
H1714 H 0.7025 0.49705 0.99922 0.0
H1715 H 0.68606 0.51217 0.94355 0.0
H1716 H 0.61875 0.53081 0.9437 0.0
H1717 H 0.61563 0.52049 0.00823 0.0
C1718 C 0.64764 0.50443 0.05006 0.0
C1719 C 0.66594 0.49678 0.06913 0.0
C1720 C 0.64916 0.51024 0.01315 0.0
C1721 C 0.68552 0.49371 0.04998 0.0
C1722 C 0.68709 0.49915 0.01308 0.0
C1723 C 0.67087 0.51433 0.95807 0.0
C1724 C 0.65278 0.52281 0.93961 0.0
C1725 C 0.66916 0.5079 0.99466 0.0
C1726 C 0.6329 0.52474 0.95794 0.0
C1727 C 0.63112 0.51868 0.99456 0.0
H1728 H 0.74142 0.42148 0.31828 0.0
H1729 H 0.81031 0.41223 0.30601 0.0
H1730 H 0.80637 0.41245 0.23936 0.0
H1731 H 0.78316 0.41436 0.18523 0.0
H1732 H 0.71444 0.42508 0.19683 0.0
H1733 H 0.71834 0.42557 0.26358 0.0
C1734 C 0.75551 0.41953 0.30086 0.0
C1735 C 0.77611 0.41648 0.31664 0.0
C1736 C 0.7531 0.42002 0.26281 0.0
C1737 C 0.79439 0.41451 0.29414 0.0
C1738 C 0.7921 0.41462 0.25623 0.0
C1739 C 0.76903 0.41664 0.2024 0.0
C1740 C 0.74845 0.4192 0.18637 0.0
C1741 C 0.77152 0.41714 0.24035 0.0
C1742 C 0.73036 0.42287 0.20877 0.0
C1743 C 0.73261 0.42312 0.24677 0.0
H1744 H 0.89661 0.50605 0.5591 0.0
H1745 H 0.83995 0.54751 0.55674 0.0
H1746 H 0.83406 0.53838 0.49306 0.0
H1747 H 0.844 0.51719 0.43847 0.0
H1748 H 0.89984 0.47531 0.44111 0.0
H1749 H 0.90645 0.485 0.50512 0.0
C1750 C 0.88281 0.51295 0.54498 0.0
C1751 C 0.86859 0.52718 0.56332 0.0
C1752 C 0.87899 0.50698 0.50872 0.0
C1753 C 0.85129 0.53657 0.54373 0.0
C1754 C 0.84768 0.53112 0.50729 0.0
C1755 C 0.85724 0.50987 0.45364 0.0
C1756 C 0.87106 0.49506 0.43613 0.0
C1757 C 0.86114 0.51599 0.48982 0.0
C1758 C 0.88877 0.48624 0.45489 0.0
C1759 C 0.89264 0.49201 0.4911 0.0
H1760 H 0.23975 0.41488 0.17496 0.0
H1761 H 0.30911 0.41611 0.18817 0.0
H1762 H 0.30466 0.41635 0.25489 0.0
H1763 H 0.28079 0.41524 0.30873 0.0
H1764 H 0.21136 0.41459 0.29495 0.0
H1765 H 0.21595 0.41509 0.22857 0.0
C1766 C 0.25385 0.41511 0.19255 0.0
C1767 C 0.27475 0.41505 0.17711 0.0
C1768 C 0.25109 0.41533 0.23039 0.0
C1769 C 0.29296 0.416 0.19982 0.0
C1770 C 0.29037 0.41609 0.23773 0.0
C1771 C 0.26669 0.41498 0.29115 0.0
C1772 C 0.24574 0.41445 0.30649 0.0
C1773 C 0.2695 0.41551 0.25324 0.0
C1774 C 0.22758 0.41487 0.28355 0.0
C1775 C 0.23022 0.41516 0.24575 0.0
H1776 H 0.34478 0.50732 0.9392 0.0
H1777 H 0.4002 0.54964 0.93845 0.0
H1778 H 0.40714 0.54133 1.00302 0.0
H1779 H 0.39701 0.52219 0.05916 0.0
H1780 H 0.34098 0.48022 0.06014 0.0
H1781 H 0.33514 0.48734 0.99538 0.0
C1782 C 0.35812 0.51488 0.95364 0.0
C1783 C 0.37169 0.52948 0.93509 0.0
C1784 C 0.36211 0.50968 0.99023 0.0
C1785 C 0.38942 0.53876 0.95297 0.0
C1786 C 0.39342 0.53385 0.98955 0.0
C1787 C 0.38347 0.51465 0.04527 0.0
C1788 C 0.36933 0.50089 0.06466 0.0
C1789 C 0.37984 0.51935 0.00841 0.0
C1790 C 0.35223 0.49075 0.04595 0.0
C1791 C 0.34869 0.49504 0.009 0.0
H1792 H 0.28131 0.6152 0.68848 0.0
H1793 H 0.21447 0.59599 0.70013 0.0
H1794 H 0.21876 0.59467 0.76667 0.0
H1795 H 0.24146 0.60028 0.82134 0.0
H1796 H 0.30864 0.61789 0.8091 0.0
H1797 H 0.30444 0.61866 0.74248 0.0
C1798 C 0.26766 0.61084 0.70554 0.0
C1799 C 0.24749 0.60605 0.68952 0.0
C1800 C 0.27042 0.60975 0.74343 0.0
C1801 C 0.23007 0.59988 0.71197 0.0
C1802 C 0.23255 0.59913 0.74988 0.0
C1803 C 0.25517 0.60407 0.80386 0.0
C1804 C 0.27532 0.60919 0.81964 0.0
C1805 C 0.25262 0.60417 0.76586 0.0
C1806 C 0.2931 0.61383 0.79718 0.0
C1807 C 0.29064 0.61432 0.7593 0.0
H1808 H 0.19751 0.5135 0.44236 0.0
H1809 H 0.13161 0.49043 0.43917 0.0
H1810 H 0.1266 0.50045 0.50322 0.0
H1811 H 0.14062 0.51648 0.55912 0.0
H1812 H 0.20695 0.53864 0.56382 0.0
H1813 H 0.21187 0.52925 0.4996 0.0
C1814 C 0.18226 0.51023 0.45606 0.0
C1815 C 0.16503 0.50083 0.43648 0.0
C1816 C 0.17942 0.51643 0.49269 0.0
C1817 C 0.1451 0.49736 0.45403 0.0
C1818 C 0.14221 0.50325 0.49043 0.0
C1819 C 0.15626 0.51908 0.54634 0.0
C1820 C 0.17343 0.52802 0.56669 0.0
C1821 C 0.1592 0.51294 0.50989 0.0
C1822 C 0.19335 0.53192 0.54905 0.0
C1823 C 0.19628 0.52628 0.51236 0.0
H1824 H 0.18852 0.08533 0.95016 0.0
H1825 H 0.16966 0.1515 0.92758 0.0
H1826 H 0.15733 0.14091 0.86684 0.0
H1827 H 0.15383 0.11309 0.81898 0.0
H1828 H 0.17307 0.04704 0.84226 0.0
H1829 H 0.18387 0.05746 0.90355 0.0
C1830 C 0.18181 0.09746 0.93191 0.0
C1831 C 0.18017 0.11918 0.94329 0.0
C1832 C 0.17507 0.09133 0.89698 0.0
C1833 C 0.17095 0.13463 0.91961 0.0
C1834 C 0.16405 0.12861 0.88477 0.0
C1835 C 0.16017 0.10096 0.83759 0.0
C1836 C 0.16288 0.07939 0.82581 0.0
C1837 C 0.16627 0.10704 0.87301 0.0
C1838 C 0.17128 0.06387 0.85024 0.0
C1839 C 0.1773 0.06976 0.88545 0.0
H1840 H 0.18822 0.95442 0.19338 0.0
H1841 H 0.12414 0.92846 0.17522 0.0
H1842 H 0.13505 0.91617 0.1147 0.0
H1843 H 0.16281 0.91245 0.06738 0.0
H1844 H 0.22723 0.93746 0.08608 0.0
H1845 H 0.21584 0.95137 0.14536 0.0
C1846 C 0.17655 0.94629 0.17608 0.0
C1847 C 0.15539 0.94231 0.18898 0.0
C1848 C 0.18292 0.93934 0.14124 0.0
C1849 C 0.14062 0.93143 0.16631 0.0
C1850 C 0.14679 0.92455 0.13155 0.0
C1851 C 0.17442 0.92086 0.08441 0.0
C1852 C 0.19588 0.92378 0.0722 0.0
C1853 C 0.16792 0.92832 0.11884 0.0
C1854 C 0.21054 0.93517 0.09444 0.0
C1855 C 0.2041 0.94294 0.12857 0.0
H1856 H 0.33565 0.95375 0.32701 0.0
H1857 H 0.39729 0.9215 0.34172 0.0
H1858 H 0.38574 0.90875 0.4017 0.0
H1859 H 0.35811 0.90665 0.4498 0.0
H1860 H 0.29647 0.93876 0.43472 0.0
H1861 H 0.30846 0.95249 0.37562 0.0
C1862 C 0.34672 0.94417 0.34341 0.0
C1863 C 0.36733 0.9386 0.32967 0.0
C1864 C 0.34007 0.93709 0.37802 0.0
C1865 C 0.38122 0.92578 0.35124 0.0
C1866 C 0.3747 0.91862 0.38571 0.0
C1867 C 0.34728 0.91661 0.43356 0.0
C1868 C 0.32643 0.92164 0.44674 0.0
C1869 C 0.35414 0.92413 0.3993 0.0
C1870 C 0.31272 0.93489 0.42558 0.0
C1871 C 0.31949 0.94257 0.39157 0.0
H1872 H 0.34096 0.05496 0.67911 0.0
H1873 H 0.35366 0.11837 0.72388 0.0
H1874 H 0.34187 0.13548 0.66717 0.0
H1875 H 0.33086 0.13231 0.60362 0.0
H1876 H 0.31859 0.06932 0.55713 0.0
H1877 H 0.32701 0.05198 0.61583 0.0
C1878 C 0.34065 0.07251 0.67654 0.0
C1879 C 0.34828 0.08545 0.70535 0.0
C1880 C 0.33422 0.08222 0.64351 0.0
C1881 C 0.34806 0.10817 0.7018 0.0
C1882 C 0.34137 0.11792 0.66943 0.0
C1883 C 0.33014 0.11478 0.60631 0.0
C1884 C 0.32459 0.10204 0.57605 0.0
C1885 C 0.33502 0.10509 0.63984 0.0
C1886 C 0.32298 0.0794 0.58012 0.0
C1887 C 0.32782 0.06953 0.61359 0.0
H1888 H 0.80716 0.9184 0.09735 0.0
H1889 H 0.87042 0.89884 0.05891 0.0
H1890 H 0.88663 0.91053 0.11624 0.0
H1891 H 0.88301 0.92775 0.1763 0.0
H1892 H 0.81984 0.94792 0.2141 0.0
H1893 H 0.80342 0.93488 0.15773 0.0
C1894 C 0.8245 0.91685 0.10139 0.0
C1895 C 0.83755 0.90783 0.07384 0.0
C1896 C 0.83374 0.9238 0.13423 0.0
C1897 C 0.85997 0.90552 0.07981 0.0
C1898 C 0.86927 0.91231 0.11251 0.0
C1899 C 0.86563 0.929 0.17236 0.0
C1900 C 0.85267 0.93886 0.19918 0.0
C1901 C 0.85633 0.92158 0.13983 0.0
C1902 C 0.83019 0.94067 0.19357 0.0
C1903 C 0.82078 0.93315 0.16144 0.0
H1904 H 0.84131 0.13413 0.91478 0.0
H1905 H 0.82021 0.07214 0.95685 0.0
H1906 H 0.83154 0.05443 0.90046 0.0
H1907 H 0.84874 0.05636 0.8398 0.0
H1908 H 0.8708 0.11816 0.79881 0.0
H1909 H 0.8579 0.13616 0.85412 0.0
C1910 C 0.83938 0.11673 0.9118 0.0
C1911 C 0.82997 0.10453 0.94012 0.0
C1912 C 0.84604 0.10662 0.87937 0.0
C1913 C 0.82721 0.082 0.93541 0.0
C1914 C 0.83375 0.07183 0.90318 0.0
C1915 C 0.85036 0.0738 0.84285 0.0
C1916 C 0.86067 0.08595 0.81539 0.0
C1917 C 0.84323 0.08397 0.87499 0.0
C1918 C 0.86304 0.1085 0.81979 0.0
C1919 C 0.85569 0.11877 0.85137 0.0
H1920 H 0.70525 0.08155 0.57036 0.0
H1921 H 0.68505 0.14756 0.5925 0.0
H1922 H 0.67133 0.13668 0.65143 0.0
H1923 H 0.66449 0.10877 0.69697 0.0
H1924 H 0.68465 0.04277 0.67725 0.0
H1925 H 0.69966 0.05347 0.61794 0.0
C1926 C 0.69796 0.0936 0.58805 0.0
C1927 C 0.69593 0.11533 0.57615 0.0
C1928 C 0.69028 0.08731 0.62274 0.0
C1929 C 0.68639 0.13061 0.59988 0.0
C1930 C 0.67868 0.12448 0.63405 0.0
C1931 C 0.6721 0.09669 0.67967 0.0
C1932 C 0.67323 0.07499 0.69135 0.0
C1933 C 0.68041 0.1029 0.64565 0.0
C1934 C 0.68365 0.05962 0.66898 0.0
C1935 C 0.69208 0.06572 0.63493 0.0
H1936 H 0.66109 0.91123 0.32277 0.0
H1937 H 0.68026 0.97746 0.34331 0.0
H1938 H 0.69286 0.96735 0.40401 0.0
H1939 H 0.69829 0.93966 0.45148 0.0
H1940 H 0.67947 0.87333 0.43007 0.0
H1941 H 0.66629 0.88369 0.37019 0.0
C1942 C 0.66785 0.92347 0.34064 0.0
C1943 C 0.66982 0.945 0.32836 0.0
C1944 C 0.67495 0.91759 0.37561 0.0
C1945 C 0.67889 0.96066 0.35173 0.0
C1946 C 0.68596 0.95494 0.38662 0.0
C1947 C 0.69141 0.92745 0.43372 0.0
C1948 C 0.68981 0.90577 0.44565 0.0
C1949 C 0.68412 0.93343 0.39883 0.0
C1950 C 0.68058 0.89023 0.4222 0.0
C1951 C 0.67319 0.89608 0.38764 0.0
H1952 H 0.64431 0.59677 0.33563 0.0
H1953 H 0.70688 0.57517 0.29727 0.0
H1954 H 0.72354 0.58662 0.35449 0.0
H1955 H 0.72017 0.6024 0.41562 0.0
H1956 H 0.65735 0.62321 0.45436 0.0
H1957 H 0.64102 0.61287 0.3965 0.0
C1958 C 0.66163 0.59485 0.33962 0.0
C1959 C 0.67433 0.58513 0.3123 0.0
C1960 C 0.67105 0.60134 0.37263 0.0
C1961 C 0.69672 0.5824 0.31808 0.0
C1962 C 0.70626 0.589 0.35072 0.0
C1963 C 0.70289 0.60451 0.41155 0.0
C1964 C 0.69005 0.61358 0.43937 0.0
C1965 C 0.69354 0.59832 0.37831 0.0
C1966 C 0.6677 0.61654 0.43332 0.0
C1967 C 0.6583 0.61051 0.40027 0.0
H1968 H 0.66533 0.40552 0.57095 0.0
H1969 H 0.72926 0.4328 0.58401 0.0
H1970 H 0.71887 0.44772 0.6431 0.0
H1971 H 0.69177 0.45219 0.69206 0.0
H1972 H 0.62795 0.42466 0.67829 0.0
H1973 H 0.6383 0.41032 0.61909 0.0
C1974 C 0.67703 0.41459 0.58683 0.0
C1975 C 0.69799 0.41802 0.57298 0.0
C1976 C 0.67103 0.42296 0.62092 0.0
C1977 C 0.71288 0.43014 0.5937 0.0
C1978 C 0.70701 0.43857 0.62767 0.0
C1979 C 0.68011 0.44318 0.67599 0.0
C1980 C 0.65921 0.43931 0.68993 0.0
C1981 C 0.68613 0.43503 0.64163 0.0
C1982 C 0.64432 0.42749 0.66874 0.0
C1983 C 0.65015 0.41939 0.63466 0.0
H1984 H 0.82039 0.44305 0.93864 0.0
H1985 H 0.84289 0.37746 0.92122 0.0
H1986 H 0.85507 0.38718 0.85999 0.0
H1987 H 0.86008 0.41442 0.81224 0.0
H1988 H 0.83896 0.48043 0.83013 0.0
H1989 H 0.82461 0.47024 0.88989 0.0
C1990 C 0.82776 0.43085 0.92129 0.0
C1991 C 0.83087 0.4096 0.93452 0.0
C1992 C 0.83474 0.43657 0.88615 0.0
C1993 C 0.84068 0.39401 0.91191 0.0
C1994 C 0.84748 0.39952 0.87682 0.0
C1995 C 0.85241 0.42661 0.82922 0.0
C1996 C 0.85075 0.44817 0.81681 0.0
C1997 C 0.84476 0.42078 0.86383 0.0
C1998 C 0.84027 0.46366 0.83882 0.0
C1999 C 0.83225 0.45789 0.87316 0.0
H2000 H 0.82809 0.57434 0.19517 0.0
H2001 H 0.89341 0.5977 0.17953 0.0
H2002 H 0.8837 0.61226 0.1201 0.0
H2003 H 0.85695 0.61805 0.07211 0.0
H2004 H 0.79134 0.59537 0.08718 0.0
H2005 H 0.80095 0.5805 0.14671 0.0
C2006 C 0.84016 0.58254 0.17864 0.0
C2007 C 0.86135 0.58511 0.192 0.0
C2008 C 0.83447 0.5909 0.14422 0.0
C2009 C 0.87684 0.59589 0.17032 0.0
C2010 C 0.87136 0.6041 0.13615 0.0
C2011 C 0.84468 0.61008 0.08852 0.0
C2012 C 0.8235 0.60783 0.07502 0.0
C2013 C 0.85023 0.60176 0.12287 0.0
C2014 C 0.80789 0.59708 0.09654 0.0
C2015 C 0.81332 0.58867 0.13076 0.0
H2016 H 0.35236 0.41618 0.56295 0.0
H2017 H 0.28739 0.44095 0.577 0.0
H2018 H 0.29736 0.45583 0.63647 0.0
H2019 H 0.32416 0.45955 0.68644 0.0
H2020 H 0.38832 0.43277 0.67228 0.0
H2021 H 0.37893 0.42049 0.61125 0.0
C2022 C 0.34031 0.42471 0.57904 0.0
C2023 C 0.31914 0.42726 0.56562 0.0
C2024 C 0.34597 0.43266 0.61343 0.0
C2025 C 0.30389 0.4389 0.5865 0.0
C2026 C 0.30952 0.44725 0.62067 0.0
C2027 C 0.33605 0.45117 0.66978 0.0
C2028 C 0.35679 0.4468 0.68395 0.0
C2029 C 0.33045 0.44393 0.63467 0.0
C2030 C 0.3721 0.43589 0.66222 0.0
C2031 C 0.36681 0.429 0.62725 0.0
H2032 H 0.3104 0.58843 0.42978 0.0
H2033 H 0.34077 0.65145 0.42224 0.0
H2034 H 0.3563 0.64181 0.36337 0.0
H2035 H 0.3628 0.6149 0.31533 0.0
H2036 H 0.33253 0.55193 0.32258 0.0
H2037 H 0.31487 0.56237 0.37959 0.0
C2038 C 0.32012 0.6002 0.41507 0.0
C2039 C 0.32463 0.62053 0.43084 0.0
C2040 C 0.32898 0.59459 0.38102 0.0
C2041 C 0.33743 0.63549 0.4113 0.0
C2042 C 0.34622 0.63006 0.37745 0.0
C2043 C 0.35227 0.60352 0.32936 0.0
C2044 C 0.34906 0.58268 0.3148 0.0
C2045 C 0.34241 0.60953 0.36234 0.0
C2046 C 0.3351 0.56817 0.33295 0.0
C2047 C 0.32514 0.57407 0.36575 0.0
H2048 H 0.18098 0.63749 0.09461 0.0
H2049 H 0.19988 0.57502 0.05175 0.0
H2050 H 0.18751 0.55732 0.10758 0.0
H2051 H 0.17138 0.55959 0.16867 0.0
H2052 H 0.1525 0.62205 0.21157 0.0
H2053 H 0.16438 0.6397 0.15537 0.0
C2054 C 0.18215 0.61999 0.09729 0.0
C2055 C 0.19143 0.60764 0.06906 0.0
C2056 C 0.17497 0.6099 0.12947 0.0
C2057 C 0.1931 0.58497 0.07324 0.0
C2058 C 0.18594 0.57481 0.10511 0.0
C2059 C 0.17004 0.57707 0.16584 0.0
C2060 C 0.16108 0.58946 0.19431 0.0
C2061 C 0.17698 0.58713 0.13349 0.0
C2062 C 0.1591 0.61209 0.18994 0.0
C2063 C 0.166 0.62222 0.15787 0.0
H2064 H 0.13644 0.43366 0.83725 0.0
H2065 H 0.19991 0.45345 0.8003 0.0
H2066 H 0.21603 0.43977 0.8565 0.0
H2067 H 0.21211 0.42246 0.91616 0.0
H2068 H 0.14881 0.40264 0.95373 0.0
H2069 H 0.13263 0.41561 0.89685 0.0
C2070 C 0.15381 0.43473 0.84134 0.0
C2071 C 0.16692 0.44468 0.81472 0.0
C2072 C 0.163 0.42681 0.87375 0.0
C2073 C 0.1894 0.4462 0.8206 0.0
C2074 C 0.19866 0.43828 0.85265 0.0
C2075 C 0.19475 0.42118 0.91209 0.0
C2076 C 0.18166 0.41174 0.93922 0.0
C2077 C 0.18559 0.42873 0.87951 0.0
C2078 C 0.15925 0.40971 0.93314 0.0
C2079 C 0.14998 0.4172 0.90072 0.0
H2080 H 0.23815 0.22752 0.99329 0.0
H2081 H 0.27597 0.22157 0.09175 0.0
H2082 H 0.27976 0.26089 0.09478 0.0
H2083 H 0.27071 0.29734 0.072 0.0
H2084 H 0.2331 0.30413 0.97361 0.0
H2085 H 0.23131 0.26453 0.96773 0.0
C2086 C 0.24751 0.2348 0.01507 0.0
C2087 C 0.25647 0.22135 0.04256 0.0
C2088 C 0.24964 0.25776 0.01681 0.0
C2089 C 0.26849 0.23131 0.07058 0.0
C2090 C 0.27074 0.25391 0.07233 0.0
C2091 C 0.26215 0.29021 0.04916 0.0
C2092 C 0.25194 0.30394 0.02345 0.0
C2093 C 0.26104 0.26735 0.04606 0.0
C2094 C 0.24128 0.29418 0.99374 0.0
C2095 C 0.24011 0.27142 0.99049 0.0
H2096 H 0.97368 0.97684 0.3304 0.0
H2097 H 0.96601 0.03615 0.26882 0.0
H2098 H 1.00542 0.03971 0.2642 0.0
H2099 H 0.04268 0.02648 0.27897 0.0
H2100 H 0.04958 0.96707 0.34066 0.0
H2101 H 1.01036 0.96345 0.34421 0.0
C2102 C 0.9805 0.99071 0.31623 0.0
C2103 C 0.96646 1.00621 0.30012 0.0
C2104 C 1.00336 0.99278 0.31378 0.0
C2105 C 0.97606 0.02375 0.28125 0.0
C2106 C 0.99876 0.02589 0.27874 0.0
C2107 C 0.03564 1.01266 0.29301 0.0
C2108 C 0.04948 0.99729 0.31002 0.0
C2109 C 0.01267 1.01054 0.29496 0.0
C2110 C 0.0397 0.97954 0.32803 0.0
C2111 C 0.0171 0.97733 0.32991 0.0
H2112 H 0.29453 0.72771 0.57242 0.0
H2113 H 0.22878 0.72134 0.53412 0.0
H2114 H 0.22483 0.76096 0.53335 0.0
H2115 H 0.23984 0.7978 0.54492 0.0
H2116 H 0.30646 0.80346 0.58009 0.0
H2117 H 0.30994 0.76419 0.58124 0.0
C2118 C 0.27926 0.73494 0.56411 0.0
C2119 C 0.26195 0.72132 0.55358 0.0
C2120 C 0.27714 0.75784 0.56338 0.0
C2121 C 0.24246 0.73123 0.54222 0.0
C2122 C 0.24016 0.75398 0.5419 0.0
C2123 C 0.25521 0.79054 0.55254 0.0
C2124 C 0.27267 0.80408 0.56319 0.0
C2125 C 0.25738 0.76754 0.5525 0.0
C2126 C 0.29239 0.7939 0.57292 0.0
C2127 C 0.29453 0.77124 0.57327 0.0
H2128 H 0.47471 0.98722 0.80553 0.0
H2129 H 0.46771 0.0559 0.78498 0.0
H2130 H 0.50695 0.05975 0.78028 0.0
H2131 H 0.5435 0.04435 0.78493 0.0
H2132 H 0.55157 0.976 0.80737 0.0
H2133 H 0.51212 0.9713 0.80764 0.0
C2134 C 0.4818 1.00294 0.79953 0.0
C2135 C 0.4681 0.02128 0.79587 0.0
C2136 C 0.50473 1.00517 0.79732 0.0
C2137 C 0.47772 0.04154 0.78831 0.0
C2138 C 0.50024 0.04378 0.78561 0.0
C2139 C 0.53674 0.02838 0.79006 0.0
C2140 C 0.55082 1.01063 0.79643 0.0
C2141 C 0.51396 0.02583 0.7907 0.0
C2142 C 0.54141 0.99002 0.80209 0.0
C2143 C 0.51872 0.98733 0.80251 0.0
H2144 H 0.28015 0.79685 0.93692 0.0
H2145 H 0.24159 0.8042 0.03401 0.0
H2146 H 0.23981 0.76456 0.04119 0.0
H2147 H 0.2468 0.72748 0.01671 0.0
H2148 H 0.28561 0.72071 0.91937 0.0
H2149 H 0.28978 0.76 0.9156 0.0
C2150 C 0.27175 0.78971 0.96002 0.0
C2151 C 0.26121 0.80342 0.98513 0.0
C2152 C 0.27063 0.76686 0.96371 0.0
C2153 C 0.25004 0.79398 0.01459 0.0
C2154 C 0.24893 0.77129 0.01856 0.0
C2155 C 0.2565 0.73457 0.99509 0.0
C2156 C 0.26559 0.72093 0.96808 0.0
C2157 C 0.25883 0.75748 0.99291 0.0
C2158 C 0.27804 0.73064 0.94018 0.0
C2159 C 0.28051 0.75321 0.938 0.0
H2160 H 0.55109 0.9743 0.1937 0.0
H2161 H 0.55811 0.03397 0.25399 0.0
H2162 H 0.51862 0.03737 0.25817 0.0
H2163 H 0.48147 0.02398 0.24295 0.0
H2164 H 0.47535 0.96393 0.18315 0.0
H2165 H 0.51458 0.96052 0.18019 0.0
C2166 C 0.5441 0.9882 0.20754 0.0
C2167 C 0.55798 1.00389 0.2233 0.0
C2168 C 0.52121 0.99014 0.20978 0.0
C2169 C 0.54818 0.02145 0.24179 0.0
C2170 C 0.52544 0.0235 0.24403 0.0
C2171 C 0.48867 1.01006 0.22948 0.0
C2172 C 0.475 0.99449 0.21269 0.0
C2173 C 0.51169 1.00799 0.22798 0.0
C2174 C 0.48504 0.9766 0.19548 0.0
C2175 C 0.50767 0.97448 0.19397 0.0
H2176 H 0.24087 0.23027 0.44745 0.0
H2177 H 0.30776 0.22703 0.48157 0.0
H2178 H 0.31014 0.26648 0.48064 0.0
H2179 H 0.29405 0.30223 0.46788 0.0
H2180 H 0.22708 0.30646 0.43495 0.0
H2181 H 0.22393 0.26681 0.43807 0.0
C2182 C 0.25585 0.23821 0.45518 0.0
C2183 C 0.2742 0.2254 0.46406 0.0
C2184 C 0.2572 0.26128 0.45459 0.0
C2185 C 0.29347 0.23622 0.47391 0.0
C2186 C 0.29487 0.2589 0.47347 0.0
C2187 C 0.27874 0.29453 0.46124 0.0
C2188 C 0.2609 0.30755 0.45091 0.0
C2189 C 0.277 0.27164 0.46326 0.0
C2190 C 0.24112 0.29706 0.44316 0.0
C2191 C 0.23932 0.27427 0.44481 0.0
H2192 H 0.05232 0.04885 0.69629 0.0
H2193 H 0.06045 0.98188 0.72829 0.0
H2194 H 0.02101 0.97739 0.73082 0.0
H2195 H 0.98366 0.99225 0.72205 0.0
H2196 H 0.97643 0.05965 0.69138 0.0
H2197 H 0.01558 0.06389 0.68979 0.0
C2198 C 0.04556 0.03318 0.70358 0.0
C2199 C 0.05968 0.01572 0.71184 0.0
C2200 C 0.02274 0.03067 0.70503 0.0
C2201 C 0.05025 0.99573 0.722 0.0
C2202 C 0.02757 0.9931 0.72329 0.0
C2203 C 0.99059 1.00792 0.71529 0.0
C2204 C 0.97667 0.02544 0.70612 0.0
C2205 C 0.01355 1.01044 0.7147 0.0
C2206 C 0.98636 0.04559 0.69753 0.0
C2207 C 1.00893 0.04814 0.69686 0.0
H2208 H 0.79798 0.79624 0.93226 0.0
H2209 H 0.73964 0.80375 0.99614 0.0
H2210 H 0.73571 0.76428 0.99955 0.0
H2211 H 0.74837 0.72704 0.98327 0.0
H2212 H 0.80691 0.72021 0.91954 0.0
H2213 H 0.81083 0.75949 0.91691 0.0
C2214 C 0.78424 0.78936 0.94667 0.0
C2215 C 0.76914 0.80337 0.96382 0.0
C2216 C 0.78198 0.76646 0.94848 0.0
C2217 C 0.75174 0.79371 0.98293 0.0
C2218 C 0.74939 0.77098 0.98476 0.0
C2219 C 0.76207 0.7341 0.96899 0.0
C2220 C 0.77709 0.72027 0.95114 0.0
C2221 C 0.76439 0.75709 0.96761 0.0
C2222 C 0.7947 0.73009 0.93282 0.0
C2223 C 0.79709 0.75272 0.93146 0.0
H2224 H 0.78375 0.23006 0.49227 0.0
H2225 H 0.7231 0.22289 0.43468 0.0
H2226 H 0.71862 0.26202 0.4328 0.0
H2227 H 0.73196 0.29867 0.44534 0.0
H2228 H 0.79148 0.30718 0.50499 0.0
H2229 H 0.79601 0.26757 0.50884 0.0
C2230 C 0.76947 0.23702 0.47959 0.0
C2231 C 0.75414 0.22315 0.46271 0.0
C2232 C 0.76669 0.25998 0.47895 0.0
C2233 C 0.73566 0.23282 0.44676 0.0
C2234 C 0.73292 0.25536 0.44591 0.0
C2235 C 0.74597 0.29192 0.45918 0.0
C2236 C 0.76146 0.30607 0.47448 0.0
C2237 C 0.74842 0.26913 0.46139 0.0
C2238 C 0.77924 0.29682 0.49298 0.0
C2239 C 0.78189 0.27409 0.49503 0.0
H2240 H 0.79755 0.22865 0.0609 0.0
H2241 H 0.7354 0.222 0.00835 0.0
H2242 H 0.73177 0.26169 0.00588 0.0
H2243 H 0.74557 0.29879 0.02169 0.0
H2244 H 0.8079 0.30414 0.0745 0.0
H2245 H 0.81172 0.26486 0.07441 0.0
C2246 C 0.78306 0.23575 0.04909 0.0
C2247 C 0.76666 0.22198 0.03525 0.0
C2248 C 0.78096 0.25863 0.04813 0.0
C2249 C 0.74839 0.2319 0.01913 0.0
C2250 C 0.74623 0.25472 0.01794 0.0
C2251 C 0.76006 0.29139 0.03297 0.0
C2252 C 0.7762 0.30481 0.04881 0.0
C2253 C 0.76231 0.26835 0.03276 0.0
C2254 C 0.79484 0.29458 0.06309 0.0
C2255 C 0.79718 0.27196 0.06279 0.0
H2256 H 0.7796 0.79296 0.54245 0.0
H2257 H 0.71624 0.79849 0.59211 0.0
H2258 H 0.71278 0.75917 0.59285 0.0
H2259 H 0.72719 0.72278 0.57915 0.0
H2260 H 0.79001 0.71664 0.52821 0.0
H2261 H 0.7938 0.7562 0.5275 0.0
C2262 C 0.76494 0.78566 0.55324 0.0
C2263 C 0.7484 0.79914 0.56777 0.0
C2264 C 0.76281 0.76267 0.5532 0.0
C2265 C 0.72963 0.78893 0.58165 0.0
C2266 C 0.72748 0.76626 0.58181 0.0
C2267 C 0.74184 0.73 0.56816 0.0
C2268 C 0.7583 0.7164 0.55388 0.0
C2269 C 0.74397 0.75291 0.56782 0.0
C2270 C 0.77691 0.72643 0.53911 0.0
C2271 C 0.77917 0.74917 0.53887 0.0
H2272 H 0.54368 0.53796 0.80052 0.0
H2273 H 0.55051 0.47131 0.76627 0.0
H2274 H 0.51125 0.46796 0.76072 0.0
H2275 H 0.47477 0.48286 0.76942 0.0
H2276 H 0.46686 0.54912 0.80507 0.0
H2277 H 0.50635 0.5538 0.8056 0.0
C2278 C 0.53654 0.52287 0.79124 0.0
C2279 C 0.55013 0.50486 0.78398 0.0
C2280 C 0.51363 0.5209 0.78858 0.0
C2281 C 0.54051 0.48536 0.77227 0.0
C2282 C 0.51801 0.48341 0.76914 0.0
C2283 C 0.48161 0.49837 0.77733 0.0
C2284 C 0.46763 0.51551 0.78752 0.0
C2285 C 0.50436 0.50088 0.77797 0.0
C2286 C 0.47703 0.53561 0.79688 0.0
C2287 C 0.49971 0.53826 0.79742 0.0
H2288 H 0.04883 0.54948 0.3088 0.0
H2289 H 0.05616 0.48237 0.27792 0.0
H2290 H 0.01658 0.47828 0.27573 0.0
H2291 H 0.97948 0.49361 0.28507 0.0
H2292 H 0.97321 0.5616 0.31235 0.0
H2293 H 0.01236 0.56528 0.31375 0.0
C2294 C 0.04179 0.53392 0.30166 0.0
C2295 C 0.05559 0.51621 0.29391 0.0
C2296 C 0.019 0.53175 0.30004 0.0
C2297 C 0.04604 0.49631 0.28398 0.0
C2298 C 0.02334 0.49394 0.28285 0.0
C2299 C 0.98662 0.50929 0.29095 0.0
C2300 C 0.97298 0.52712 0.29957 0.0
C2301 C 1.00956 0.51154 0.29109 0.0
C2302 C 0.98292 0.54729 0.30689 0.0
C2303 C 1.00548 0.54953 0.30741 0.0
H2304 H 0.04898 0.49952 0.66365 0.0
H2305 H 0.05641 0.53256 0.76683 0.0
H2306 H 0.0171 0.53389 0.77365 0.0
H2307 H 0.9799 0.52478 0.75085 0.0
H2308 H 0.97406 0.4961 0.6439 0.0
H2309 H 0.01316 0.49486 0.63792 0.0
C2310 C 0.0424 0.50764 0.68736 0.0
C2311 C 0.05641 0.51578 0.71464 0.0
C2312 C 0.01964 0.50918 0.69061 0.0
C2313 C 0.04662 0.52554 0.74546 0.0
C2314 C 0.0239 0.52656 0.74932 0.0
C2315 C 0.98717 0.51856 0.72604 0.0
C2316 C 0.97369 0.50987 0.69845 0.0
C2317 C 1.01014 0.51829 0.72215 0.0
C2318 C 0.9837 0.50213 0.66636 0.0
C2319 C 1.00623 0.50152 0.6627 0.0
H2320 H 0.48157 0.49937 0.23564 0.0
H2321 H 0.47508 0.56365 0.18947 0.0
H2322 H 0.51426 0.56728 0.18674 0.0
H2323 H 0.55077 0.55218 0.19529 0.0
H2324 H 0.55835 0.48882 0.24385 0.0
H2325 H 0.5188 0.48511 0.24827 0.0
C2326 C 0.48869 0.51426 0.22537 0.0
C2327 C 0.47502 0.53097 0.21196 0.0
C2328 C 0.51165 0.51647 0.22417 0.0
C2329 C 0.48488 0.55016 0.19896 0.0
C2330 C 0.50744 0.55237 0.19756 0.0
C2331 C 0.54381 0.5375 0.20678 0.0
C2332 C 0.55769 0.52073 0.21886 0.0
C2333 C 0.52102 0.53555 0.20952 0.0
C2334 C 0.5482 0.50205 0.23436 0.0
C2335 C 0.5255 0.49988 0.23678 0.0
loop_
_geom_bond_atom_site_label_1
_geom_bond_atom_site_label_2
_geom_bond_distance
_geom_bond_site_symmetry_2
_ccdc_geom_bond_type
Co0 N4 2.148 . S
Co0 N10 2.128 . S
Co0 N20 2.194 . S
Co0 O25 2.351 . S
Co0 O26 2.155 . S
Co0 O27 2.096 . S
C1 N4 1.301 . S
C1 N5 1.328 . S
C1 H6 0.930 . S
C2 C3 1.333 . S
C2 N4 1.317 . S
C2 H7 0.930 . S
C3 C2 1.333 . S
C3 N5 1.350 . S
C3 H29 0.931 . S
N4 Co0 2.148 . S
N4 C1 1.301 . S
N4 C2 1.317 . S
N5 C1 1.328 . S
N5 C3 1.350 . S
H6 C1 0.930 . S
H7 C2 0.930 . S
C8 O9 1.224 . S
C8 O27 1.247 . S
O9 C8 1.224 . S
N10 Co0 2.128 . S
N10 C11 1.355 . S
N10 C13 1.311 1_554 S
C11 N10 1.355 . S
C11 C12 1.363 1_554 S
C11 H23 0.929 . S
C12 C11 1.363 1_556 S
C12 N14 1.375 . S
C12 H30 0.931 . S
C13 N10 1.311 1_556 S
C13 N14 1.347 . S
C13 H24 0.929 . S
N14 C12 1.375 . S
N14 C13 1.347 . S
C15 C18 1.365 . S
C15 N20 1.328 . S
C15 H21 0.929 . S
C16 C17 1.362 . S
C16 C19 1.378 . S
C16 H31 0.929 . S
C17 C16 1.362 . S
C17 C18 1.366 . S
C18 C15 1.365 . S
C18 C17 1.366 . S
C18 H32 0.930 . S
C19 C16 1.378 . S
C19 N20 1.315 . S
C19 H22 0.930 . S
N20 Co0 2.194 . S
N20 C15 1.328 . S
N20 C19 1.315 . S
H21 C15 0.929 . S
H22 C19 0.930 . S
H23 C11 0.929 . S
H24 C13 0.929 . S
O25 Co0 2.351 . S
O25 C28 1.244 . S
O26 Co0 2.155 . S
O26 C28 1.240 . S
O27 Co0 2.096 . S
O27 C8 1.247 . S
C28 O25 1.244 . S
C28 O26 1.240 . S
H29 C3 0.931 . S
H30 C12 0.931 . S
H31 C16 0.929 . S
H32 C18 0.930 . S
Co33 N37 2.148 . S
Co33 N43 2.128 . S
Co33 N53 2.194 . S
Co33 O58 2.351 . S
Co33 O59 2.155 . S
Co33 O60 2.096 . S
C34 N37 1.301 . S
C34 N38 1.328 . S
C34 H39 0.930 . S
C35 C36 1.333 1_565 S
C35 N37 1.317 . S
C35 H40 0.930 1_565 S
C36 C35 1.333 1_545 S
C36 N38 1.350 1_545 S
C36 H62 0.931 . S
N37 Co33 2.148 . S
N37 C34 1.301 . S
N37 C35 1.317 . S
N38 C34 1.328 . S
N38 C36 1.350 1_565 S
H39 C34 0.930 . S
H40 C35 0.930 1_545 S
C41 O42 1.224 . S
C41 O60 1.247 . S
O42 C41 1.224 . S
N43 Co33 2.128 . S
N43 C44 1.355 . S
N43 C46 1.311 . S
C44 N43 1.355 . S
C44 C45 1.363 . S
C44 H56 0.929 . S
C45 C44 1.363 . S
C45 N47 1.375 . S
C45 H63 0.931 . S
C46 N43 1.311 . S
C46 N47 1.347 . S
C46 H57 0.929 . S
N47 C45 1.375 . S
N47 C46 1.347 . S
C48 C51 1.365 . S
C48 N53 1.328 . S
C48 H54 0.929 . S
C49 C50 1.362 . S
C49 C52 1.378 . S
C49 H64 0.929 . S
C50 C49 1.362 . S
C50 C51 1.366 . S
C51 C48 1.365 . S
C51 C50 1.366 . S
C51 H65 0.930 . S
C52 C49 1.378 . S
C52 N53 1.315 . S
C52 H55 0.930 . S
N53 Co33 2.194 . S
N53 C48 1.328 . S
N53 C52 1.315 . S
H54 C48 0.929 . S
H55 C52 0.930 . S
H56 C44 0.929 . S
H57 C46 0.929 . S
O58 Co33 2.351 . S
O58 C61 1.244 . S
O59 Co33 2.155 . S
O59 C61 1.240 . S
O60 Co33 2.096 . S
O60 C41 1.247 . S
C61 O58 1.244 . S
C61 O59 1.240 . S
H62 C36 0.931 . S
H63 C45 0.931 . S
H64 C49 0.929 . S
H65 C51 0.930 . S
Co66 N70 2.148 . S
Co66 N76 2.128 . S
Co66 N86 2.194 . S
Co66 O91 2.351 . S
Co66 O92 2.155 . S
Co66 O93 2.096 . S
C67 N70 1.301 . S
C67 N71 1.328 . S
C67 H72 0.930 . S
C68 C69 1.333 . S
C68 N70 1.317 . S
C68 H73 0.930 . S
C69 C68 1.333 . S
C69 N71 1.350 . S
C69 H95 0.931 . S
N70 Co66 2.148 . S
N70 C67 1.301 . S
N70 C68 1.317 . S
N71 C67 1.328 . S
N71 C69 1.350 . S
H72 C67 0.930 . S
H73 C68 0.930 . S
C74 O75 1.224 . S
C74 O93 1.247 . S
O75 C74 1.224 . S
N76 Co66 2.128 . S
N76 C77 1.355 . S
N76 C79 1.311 . S
C77 N76 1.355 . S
C77 C78 1.363 . S
C77 H89 0.929 . S
C78 C77 1.363 . S
C78 N80 1.375 . S
C78 H96 0.931 . S
C79 N76 1.311 . S
C79 N80 1.347 . S
C79 H90 0.929 . S
N80 C78 1.375 . S
N80 C79 1.347 . S
C81 C84 1.365 . S
C81 N86 1.328 . S
C81 H87 0.929 . S
C82 C83 1.362 . S
C82 C85 1.378 . S
C82 H97 0.929 . S
C83 C82 1.362 . S
C83 C84 1.366 . S
C84 C81 1.365 . S
C84 C83 1.366 . S
C84 H98 0.930 . S
C85 C82 1.378 . S
C85 N86 1.315 . S
C85 H88 0.930 . S
N86 Co66 2.194 . S
N86 C81 1.328 . S
N86 C85 1.315 . S
H87 C81 0.929 . S
H88 C85 0.930 . S
H89 C77 0.929 . S
H90 C79 0.929 . S
O91 Co66 2.351 . S
O91 C94 1.244 . S
O92 Co66 2.155 . S
O92 C94 1.240 . S
O93 Co66 2.096 . S
O93 C74 1.247 . S
C94 O91 1.244 . S
C94 O92 1.240 . S
H95 C69 0.931 . S
H96 C78 0.931 . S
H97 C82 0.929 . S
H98 C84 0.930 . S
Co99 N103 2.148 . S
Co99 N109 2.128 . S
Co99 N119 2.194 . S
Co99 O124 2.351 . S
Co99 O125 2.155 . S
Co99 O126 2.096 . S
C100 N103 1.301 . S
C100 N104 1.328 . S
C100 H105 0.930 . S
C101 C102 1.333 1_545 S
C101 N103 1.317 . S
C101 H106 0.930 1_545 S
C102 C101 1.333 1_565 S
C102 N104 1.350 1_565 S
C102 H128 0.931 . S
N103 Co99 2.148 . S
N103 C100 1.301 . S
N103 C101 1.317 . S
N104 C100 1.328 . S
N104 C102 1.350 1_545 S
H105 C100 0.930 . S
H106 C101 0.930 1_565 S
C107 O108 1.224 . S
C107 O126 1.247 . S
O108 C107 1.224 . S
N109 Co99 2.128 . S
N109 C110 1.355 . S
N109 C112 1.311 . S
C110 N109 1.355 . S
C110 C111 1.363 . S
C110 H122 0.929 . S
C111 C110 1.363 . S
C111 N113 1.375 . S
C111 H129 0.931 . S
C112 N109 1.311 . S
C112 N113 1.347 . S
C112 H123 0.929 . S
N113 C111 1.375 . S
N113 C112 1.347 . S
C114 C117 1.365 . S
C114 N119 1.328 . S
C114 H120 0.929 . S
C115 C116 1.362 . S
C115 C118 1.378 . S
C115 H130 0.929 . S
C116 C115 1.362 . S
C116 C117 1.366 . S
C117 C114 1.365 . S
C117 C116 1.366 . S
C117 H131 0.930 . S
C118 C115 1.378 . S
C118 N119 1.315 . S
C118 H121 0.930 . S
N119 Co99 2.194 . S
N119 C114 1.328 . S
N119 C118 1.315 . S
H120 C114 0.929 . S
H121 C118 0.930 . S
H122 C110 0.929 . S
H123 C112 0.929 . S
O124 Co99 2.351 . S
O124 C127 1.244 . S
O125 Co99 2.155 . S
O125 C127 1.240 . S
O126 Co99 2.096 . S
O126 C107 1.247 . S
C127 O124 1.244 . S
C127 O125 1.240 . S
H128 C102 0.931 . S
H129 C111 0.931 . S
H130 C115 0.929 . S
H131 C117 0.930 . S
Co132 N136 2.148 . S
Co132 N142 2.128 . S
Co132 N152 2.194 . S
Co132 O157 2.351 . S
Co132 O158 2.155 . S
Co132 O159 2.096 . S
C133 N136 1.301 . S
C133 N137 1.328 . S
C133 H138 0.930 . S
C134 C135 1.333 . S
C134 N136 1.317 . S
C134 H139 0.930 . S
C135 C134 1.333 . S
C135 N137 1.350 . S
C135 H161 0.931 . S
N136 Co132 2.148 . S
N136 C133 1.301 . S
N136 C134 1.317 . S
N137 C133 1.328 . S
N137 C135 1.350 . S
H138 C133 0.930 . S
H139 C134 0.930 . S
C140 O141 1.224 . S
C140 O159 1.247 . S
O141 C140 1.224 . S
N142 Co132 2.128 . S
N142 C143 1.355 . S
N142 C145 1.311 1_556 S
C143 N142 1.355 . S
C143 C144 1.363 1_556 S
C143 H155 0.929 . S
C144 C143 1.363 1_554 S
C144 N146 1.375 . S
C144 H162 0.931 . S
C145 N142 1.311 1_554 S
C145 N146 1.347 . S
C145 H156 0.929 . S
N146 C144 1.375 . S
N146 C145 1.347 . S
C147 C150 1.365 . S
C147 N152 1.328 . S
C147 H153 0.929 . S
C148 C149 1.362 . S
C148 C151 1.378 . S
C148 H163 0.929 . S
C149 C148 1.362 . S
C149 C150 1.366 . S
C150 C147 1.365 . S
C150 C149 1.366 . S
C150 H164 0.930 . S
C151 C148 1.378 . S
C151 N152 1.315 . S
C151 H154 0.930 . S
N152 Co132 2.194 . S
N152 C147 1.328 . S
N152 C151 1.315 . S
H153 C147 0.929 . S
H154 C151 0.930 . S
H155 C143 0.929 . S
H156 C145 0.929 . S
O157 Co132 2.351 . S
O157 C160 1.244 . S
O158 Co132 2.155 . S
O158 C160 1.240 . S
O159 Co132 2.096 . S
O159 C140 1.247 . S
C160 O157 1.244 . S
C160 O158 1.240 . S
H161 C135 0.931 . S
H162 C144 0.931 . S
H163 C148 0.929 . S
H164 C150 0.930 . S
Co165 N169 2.148 . S
Co165 N175 2.128 . S
Co165 N185 2.194 . S
Co165 O190 2.351 . S
Co165 O191 2.155 . S
Co165 O192 2.096 . S
C166 N169 1.301 . S
C166 N170 1.328 . S
C166 H171 0.930 . S
C167 C168 1.333 1_565 S
C167 N169 1.317 . S
C167 H172 0.930 1_565 S
C168 C167 1.333 1_545 S
C168 N170 1.350 1_545 S
C168 H194 0.931 . S
N169 Co165 2.148 . S
N169 C166 1.301 . S
N169 C167 1.317 . S
N170 C166 1.328 . S
N170 C168 1.350 1_565 S
H171 C166 0.930 . S
H172 C167 0.930 1_545 S
C173 O174 1.224 . S
C173 O192 1.247 . S
O174 C173 1.224 . S
N175 Co165 2.128 . S
N175 C176 1.355 . S
N175 C178 1.311 . S
C176 N175 1.355 . S
C176 C177 1.363 . S
C176 H188 0.929 . S
C177 C176 1.363 . S
C177 N179 1.375 . S
C177 H195 0.931 . S
C178 N175 1.311 . S
C178 N179 1.347 . S
C178 H189 0.929 . S
N179 C177 1.375 . S
N179 C178 1.347 . S
C180 C183 1.365 . S
C180 N185 1.328 . S
C180 H186 0.929 . S
C181 C182 1.362 . S
C181 C184 1.378 . S
C181 H196 0.929 . S
C182 C181 1.362 . S
C182 C183 1.366 . S
C183 C180 1.365 . S
C183 C182 1.366 . S
C183 H197 0.930 . S
C184 C181 1.378 . S
C184 N185 1.315 . S
C184 H187 0.930 . S
N185 Co165 2.194 . S
N185 C180 1.328 . S
N185 C184 1.315 . S
H186 C180 0.929 . S
H187 C184 0.930 . S
H188 C176 0.929 . S
H189 C178 0.929 . S
O190 Co165 2.351 . S
O190 C193 1.244 . S
O191 Co165 2.155 . S
O191 C193 1.240 . S
O192 Co165 2.096 . S
O192 C173 1.247 . S
C193 O190 1.244 . S
C193 O191 1.240 . S
H194 C168 0.931 . S
H195 C177 0.931 . S
H196 C181 0.929 . S
H197 C183 0.930 . S
Co198 N202 2.148 . S
Co198 N208 2.128 . S
Co198 N218 2.194 . S
Co198 O223 2.351 . S
Co198 O224 2.155 . S
Co198 O225 2.096 . S
C199 N202 1.301 . S
C199 N203 1.328 . S
C199 H204 0.930 . S
C200 C201 1.333 . S
C200 N202 1.317 . S
C200 H205 0.930 . S
C201 C200 1.333 . S
C201 N203 1.350 . S
C201 H227 0.931 . S
N202 Co198 2.148 . S
N202 C199 1.301 . S
N202 C200 1.317 . S
N203 C199 1.328 . S
N203 C201 1.350 . S
H204 C199 0.930 . S
H205 C200 0.930 . S
C206 O207 1.224 . S
C206 O225 1.247 . S
O207 C206 1.224 . S
N208 Co198 2.128 . S
N208 C209 1.355 . S
N208 C211 1.311 . S
C209 N208 1.355 . S
C209 C210 1.363 . S
C209 H221 0.929 . S
C210 C209 1.363 . S
C210 N212 1.375 . S
C210 H228 0.931 . S
C211 N208 1.311 . S
C211 N212 1.347 . S
C211 H222 0.929 . S
N212 C210 1.375 . S
N212 C211 1.347 . S
C213 C216 1.365 . S
C213 N218 1.328 . S
C213 H219 0.929 . S
C214 C215 1.362 . S
C214 C217 1.378 . S
C214 H229 0.929 . S
C215 C214 1.362 . S
C215 C216 1.366 . S
C216 C213 1.365 . S
C216 C215 1.366 . S
C216 H230 0.930 . S
C217 C214 1.378 . S
C217 N218 1.315 . S
C217 H220 0.930 . S
N218 Co198 2.194 . S
N218 C213 1.328 . S
N218 C217 1.315 . S
H219 C213 0.929 . S
H220 C217 0.930 . S
H221 C209 0.929 . S
H222 C211 0.929 . S
O223 Co198 2.351 . S
O223 C226 1.244 . S
O224 Co198 2.155 . S
O224 C226 1.240 . S
O225 Co198 2.096 . S
O225 C206 1.247 . S
C226 O223 1.244 . S
C226 O224 1.240 . S
H227 C201 0.931 . S
H228 C210 0.931 . S
H229 C214 0.929 . S
H230 C216 0.930 . S
Co231 N235 2.148 . S
Co231 N241 2.128 . S
Co231 N251 2.194 . S
Co231 O256 2.351 . S
Co231 O257 2.155 . S
Co231 O258 2.096 . S
C232 N235 1.301 . S
C232 N236 1.328 . S
C232 H237 0.930 . S
C233 C234 1.333 1_545 S
C233 N235 1.317 . S
C233 H238 0.930 1_545 S
C234 C233 1.333 1_565 S
C234 N236 1.350 1_565 S
C234 H260 0.931 . S
N235 Co231 2.148 . S
N235 C232 1.301 . S
N235 C233 1.317 . S
N236 C232 1.328 . S
N236 C234 1.350 1_545 S
H237 C232 0.930 . S
H238 C233 0.930 1_565 S
C239 O240 1.224 . S
C239 O258 1.247 . S
O240 C239 1.224 . S
N241 Co231 2.128 . S
N241 C242 1.355 . S
N241 C244 1.311 . S
C242 N241 1.355 . S
C242 C243 1.363 . S
C242 H254 0.929 . S
C243 C242 1.363 . S
C243 N245 1.375 . S
C243 H261 0.931 . S
C244 N241 1.311 . S
C244 N245 1.347 . S
C244 H255 0.929 . S
N245 C243 1.375 . S
N245 C244 1.347 . S
C246 C249 1.365 . S
C246 N251 1.328 . S
C246 H252 0.929 . S
C247 C248 1.362 . S
C247 C250 1.378 . S
C247 H262 0.929 . S
C248 C247 1.362 . S
C248 C249 1.366 . S
C249 C246 1.365 . S
C249 C248 1.366 . S
C249 H263 0.930 . S
C250 C247 1.378 . S
C250 N251 1.315 . S
C250 H253 0.930 . S
N251 Co231 2.194 . S
N251 C246 1.328 . S
N251 C250 1.315 . S
H252 C246 0.929 . S
H253 C250 0.930 . S
H254 C242 0.929 . S
H255 C244 0.929 . S
O256 Co231 2.351 . S
O256 C259 1.244 . S
O257 Co231 2.155 . S
O257 C259 1.240 . S
O258 Co231 2.096 . S
O258 C239 1.247 . S
C259 O256 1.244 . S
C259 O257 1.240 . S
H260 C234 0.931 . S
H261 C243 0.931 . S
H262 C247 0.929 . S
H263 C249 0.930 . S
Co264 N268 2.148 . S
Co264 N274 2.128 . S
Co264 N284 2.194 . S
Co264 O289 2.351 . S
Co264 O290 2.155 . S
Co264 O291 2.096 . S
C265 N268 1.301 . S
C265 N269 1.328 . S
C265 H270 0.930 . S
C266 C267 1.333 . S
C266 N268 1.317 . S
C266 H271 0.930 . S
C267 C266 1.333 . S
C267 N269 1.350 . S
C267 H293 0.931 . S
N268 Co264 2.148 . S
N268 C265 1.301 . S
N268 C266 1.317 . S
N269 C265 1.328 . S
N269 C267 1.350 . S
H270 C265 0.930 . S
H271 C266 0.930 . S
C272 O273 1.224 . S
C272 O291 1.247 . S
O273 C272 1.224 . S
N274 Co264 2.128 . S
N274 C275 1.355 . S
N274 C277 1.311 1_556 S
C275 N274 1.355 . S
C275 C276 1.363 1_556 S
C275 H287 0.929 . S
C276 C275 1.363 1_554 S
C276 N278 1.375 . S
C276 H294 0.931 . S
C277 N274 1.311 1_554 S
C277 N278 1.347 . S
C277 H288 0.929 . S
N278 C276 1.375 . S
N278 C277 1.347 . S
C279 C282 1.365 . S
C279 N284 1.328 . S
C279 H285 0.929 . S
C280 C281 1.362 . S
C280 C283 1.378 . S
C280 H295 0.929 . S
C281 C280 1.362 . S
C281 C282 1.366 . S
C282 C279 1.365 . S
C282 C281 1.366 . S
C282 H296 0.930 . S
C283 C280 1.378 . S
C283 N284 1.315 . S
C283 H286 0.930 . S
N284 Co264 2.194 . S
N284 C279 1.328 . S
N284 C283 1.315 . S
H285 C279 0.929 . S
H286 C283 0.930 . S
H287 C275 0.929 . S
H288 C277 0.929 . S
O289 Co264 2.351 . S
O289 C292 1.244 . S
O290 Co264 2.155 . S
O290 C292 1.240 . S
O291 Co264 2.096 . S
O291 C272 1.247 . S
C292 O289 1.244 . S
C292 O290 1.240 . S
H293 C267 0.931 . S
H294 C276 0.931 . S
H295 C280 0.929 . S
H296 C282 0.930 . S
Co297 N301 2.148 . S
Co297 N307 2.128 . S
Co297 N317 2.194 . S
Co297 O322 2.351 . S
Co297 O323 2.155 . S
Co297 O324 2.096 . S
C298 N301 1.301 . S
C298 N302 1.328 . S
C298 H303 0.930 . S
C299 C300 1.333 1_545 S
C299 N301 1.317 . S
C299 H304 0.930 1_545 S
C300 C299 1.333 1_565 S
C300 N302 1.350 1_565 S
C300 H326 0.931 . S
N301 Co297 2.148 . S
N301 C298 1.301 . S
N301 C299 1.317 . S
N302 C298 1.328 . S
N302 C300 1.350 1_545 S
H303 C298 0.930 . S
H304 C299 0.930 1_565 S
C305 O306 1.224 . S
C305 O324 1.247 . S
O306 C305 1.224 . S
N307 Co297 2.128 . S
N307 C308 1.355 . S
N307 C310 1.311 . S
C308 N307 1.355 . S
C308 C309 1.363 . S
C308 H320 0.929 . S
C309 C308 1.363 . S
C309 N311 1.375 . S
C309 H327 0.931 . S
C310 N307 1.311 . S
C310 N311 1.347 . S
C310 H321 0.929 . S
N311 C309 1.375 . S
N311 C310 1.347 . S
C312 C315 1.365 . S
C312 N317 1.328 . S
C312 H318 0.929 . S
C313 C314 1.362 . S
C313 C316 1.378 . S
C313 H328 0.929 . S
C314 C313 1.362 . S
C314 C315 1.366 . S
C315 C312 1.365 . S
C315 C314 1.366 . S
C315 H329 0.930 . S
C316 C313 1.378 . S
C316 N317 1.315 . S
C316 H319 0.930 . S
N317 Co297 2.194 . S
N317 C312 1.328 . S
N317 C316 1.315 . S
H318 C312 0.929 . S
H319 C316 0.930 . S
H320 C308 0.929 . S
H321 C310 0.929 . S
O322 Co297 2.351 . S
O322 C325 1.244 . S
O323 Co297 2.155 . S
O323 C325 1.240 . S
O324 Co297 2.096 . S
O324 C305 1.247 . S
C325 O322 1.244 . S
C325 O323 1.240 . S
H326 C300 0.931 . S
H327 C309 0.931 . S
H328 C313 0.929 . S
H329 C315 0.930 . S
Co330 N334 2.148 . S
Co330 N340 2.128 . S
Co330 N350 2.194 . S
Co330 O355 2.351 . S
Co330 O356 2.155 . S
Co330 O357 2.096 . S
C331 N334 1.301 . S
C331 N335 1.328 . S
C331 H336 0.930 . S
C332 C333 1.333 . S
C332 N334 1.317 . S
C332 H337 0.930 . S
C333 C332 1.333 . S
C333 N335 1.350 . S
C333 H359 0.931 . S
N334 Co330 2.148 . S
N334 C331 1.301 . S
N334 C332 1.317 . S
N335 C331 1.328 . S
N335 C333 1.350 . S
H336 C331 0.930 . S
H337 C332 0.930 . S
C338 O339 1.224 . S
C338 O357 1.247 . S
O339 C338 1.224 . S
N340 Co330 2.128 . S
N340 C341 1.355 . S
N340 C343 1.311 . S
C341 N340 1.355 . S
C341 C342 1.363 . S
C341 H353 0.929 . S
C342 C341 1.363 . S
C342 N344 1.375 . S
C342 H360 0.931 . S
C343 N340 1.311 . S
C343 N344 1.347 . S
C343 H354 0.929 . S
N344 C342 1.375 . S
N344 C343 1.347 . S
C345 C348 1.365 . S
C345 N350 1.328 . S
C345 H351 0.929 . S
C346 C347 1.362 . S
C346 C349 1.378 . S
C346 H361 0.929 . S
C347 C346 1.362 . S
C347 C348 1.366 . S
C348 C345 1.365 . S
C348 C347 1.366 . S
C348 H362 0.930 . S
C349 C346 1.378 . S
C349 N350 1.315 . S
C349 H352 0.930 . S
N350 Co330 2.194 . S
N350 C345 1.328 . S
N350 C349 1.315 . S
H351 C345 0.929 . S
H352 C349 0.930 . S
H353 C341 0.929 . S
H354 C343 0.929 . S
O355 Co330 2.351 . S
O355 C358 1.244 . S
O356 Co330 2.155 . S
O356 C358 1.240 . S
O357 Co330 2.096 . S
O357 C338 1.247 . S
C358 O355 1.244 . S
C358 O356 1.240 . S
H359 C333 0.931 . S
H360 C342 0.931 . S
H361 C346 0.929 . S
H362 C348 0.930 . S
Co363 N367 2.148 . S
Co363 N373 2.128 . S
Co363 N383 2.194 . S
Co363 O388 2.351 . S
Co363 O389 2.155 . S
Co363 O390 2.096 . S
C364 N367 1.301 . S
C364 N368 1.328 . S
C364 H369 0.930 . S
C365 C366 1.333 1_565 S
C365 N367 1.317 . S
C365 H370 0.930 1_565 S
C366 C365 1.333 1_545 S
C366 N368 1.350 1_545 S
C366 H392 0.931 . S
N367 Co363 2.148 . S
N367 C364 1.301 . S
N367 C365 1.317 . S
N368 C364 1.328 . S
N368 C366 1.350 1_565 S
H369 C364 0.930 . S
H370 C365 0.930 1_545 S
C371 O372 1.224 . S
C371 O390 1.247 . S
O372 C371 1.224 . S
N373 Co363 2.128 . S
N373 C374 1.355 . S
N373 C376 1.311 . S
C374 N373 1.355 . S
C374 C375 1.363 . S
C374 H386 0.929 . S
C375 C374 1.363 . S
C375 N377 1.375 . S
C375 H393 0.931 . S
C376 N373 1.311 . S
C376 N377 1.347 . S
C376 H387 0.929 . S
N377 C375 1.375 . S
N377 C376 1.347 . S
C378 C381 1.365 . S
C378 N383 1.328 . S
C378 H384 0.929 . S
C379 C380 1.362 . S
C379 C382 1.378 . S
C379 H394 0.929 . S
C380 C379 1.362 . S
C380 C381 1.366 . S
C381 C378 1.365 . S
C381 C380 1.366 . S
C381 H395 0.930 . S
C382 C379 1.378 . S
C382 N383 1.315 . S
C382 H385 0.930 . S
N383 Co363 2.194 . S
N383 C378 1.328 . S
N383 C382 1.315 . S
H384 C378 0.929 . S
H385 C382 0.930 . S
H386 C374 0.929 . S
H387 C376 0.929 . S
O388 Co363 2.351 . S
O388 C391 1.244 . S
O389 Co363 2.155 . S
O389 C391 1.240 . S
O390 Co363 2.096 . S
O390 C371 1.247 . S
C391 O388 1.244 . S
C391 O389 1.240 . S
H392 C366 0.931 . S
H393 C375 0.931 . S
H394 C379 0.929 . S
H395 C381 0.930 . S
Co396 N400 2.148 . S
Co396 N406 2.128 . S
Co396 N416 2.194 . S
Co396 O421 2.351 . S
Co396 O422 2.155 . S
Co396 O423 2.096 . S
C397 N400 1.301 . S
C397 N401 1.328 . S
C397 H402 0.930 . S
C398 C399 1.333 . S
C398 N400 1.317 . S
C398 H403 0.930 . S
C399 C398 1.333 . S
C399 N401 1.350 . S
C399 H425 0.931 . S
N400 Co396 2.148 . S
N400 C397 1.301 . S
N400 C398 1.317 . S
N401 C397 1.328 . S
N401 C399 1.350 . S
H402 C397 0.930 . S
H403 C398 0.930 . S
C404 O405 1.224 . S
C404 O423 1.247 . S
O405 C404 1.224 . S
N406 Co396 2.128 . S
N406 C407 1.355 . S
N406 C409 1.311 1_554 S
C407 N406 1.355 . S
C407 C408 1.363 1_554 S
C407 H419 0.929 . S
C408 C407 1.363 1_556 S
C408 N410 1.375 . S
C408 H426 0.931 . S
C409 N406 1.311 1_556 S
C409 N410 1.347 . S
C409 H420 0.929 . S
N410 C408 1.375 . S
N410 C409 1.347 . S
C411 C414 1.365 . S
C411 N416 1.328 . S
C411 H417 0.929 . S
C412 C413 1.362 . S
C412 C415 1.378 . S
C412 H427 0.929 . S
C413 C412 1.362 . S
C413 C414 1.366 . S
C414 C411 1.365 . S
C414 C413 1.366 . S
C414 H428 0.930 . S
C415 C412 1.378 . S
C415 N416 1.315 . S
C415 H418 0.930 . S
N416 Co396 2.194 . S
N416 C411 1.328 . S
N416 C415 1.315 . S
H417 C411 0.929 . S
H418 C415 0.930 . S
H419 C407 0.929 . S
H420 C409 0.929 . S
O421 Co396 2.351 . S
O421 C424 1.244 . S
O422 Co396 2.155 . S
O422 C424 1.240 . S
O423 Co396 2.096 . S
O423 C404 1.247 . S
C424 O421 1.244 . S
C424 O422 1.240 . S
H425 C399 0.931 . S
H426 C408 0.931 . S
H427 C412 0.929 . S
H428 C414 0.930 . S
Co429 N433 2.148 . S
Co429 N439 2.128 . S
Co429 N449 2.194 . S
Co429 O454 2.351 . S
Co429 O455 2.155 . S
Co429 O456 2.096 . S
C430 N433 1.301 . S
C430 N434 1.328 . S
C430 H435 0.930 . S
C431 C432 1.333 1_545 S
C431 N433 1.317 . S
C431 H436 0.930 1_545 S
C432 C431 1.333 1_565 S
C432 N434 1.350 1_565 S
C432 H458 0.931 . S
N433 Co429 2.148 . S
N433 C430 1.301 . S
N433 C431 1.317 . S
N434 C430 1.328 . S
N434 C432 1.350 1_545 S
H435 C430 0.930 . S
H436 C431 0.930 1_565 S
C437 O438 1.224 . S
C437 O456 1.247 . S
O438 C437 1.224 . S
N439 Co429 2.128 . S
N439 C440 1.355 . S
N439 C442 1.311 . S
C440 N439 1.355 . S
C440 C441 1.363 . S
C440 H452 0.929 . S
C441 C440 1.363 . S
C441 N443 1.375 . S
C441 H459 0.931 . S
C442 N439 1.311 . S
C442 N443 1.347 . S
C442 H453 0.929 . S
N443 C441 1.375 . S
N443 C442 1.347 . S
C444 C447 1.365 . S
C444 N449 1.328 . S
C444 H450 0.929 . S
C445 C446 1.362 . S
C445 C448 1.378 . S
C445 H460 0.929 . S
C446 C445 1.362 . S
C446 C447 1.366 . S
C447 C444 1.365 . S
C447 C446 1.366 . S
C447 H461 0.930 . S
C448 C445 1.378 . S
C448 N449 1.315 . S
C448 H451 0.930 . S
N449 Co429 2.194 . S
N449 C444 1.328 . S
N449 C448 1.315 . S
H450 C444 0.929 . S
H451 C448 0.930 . S
H452 C440 0.929 . S
H453 C442 0.929 . S
O454 Co429 2.351 . S
O454 C457 1.244 . S
O455 Co429 2.155 . S
O455 C457 1.240 . S
O456 Co429 2.096 . S
O456 C437 1.247 . S
C457 O454 1.244 . S
C457 O455 1.240 . S
H458 C432 0.931 . S
H459 C441 0.931 . S
H460 C445 0.929 . S
H461 C447 0.930 . S
Co462 N466 2.148 . S
Co462 N472 2.128 . S
Co462 N482 2.194 . S
Co462 O487 2.351 . S
Co462 O488 2.155 . S
Co462 O489 2.096 . S
C463 N466 1.301 . S
C463 N467 1.328 . S
C463 H468 0.930 . S
C464 C465 1.333 . S
C464 N466 1.317 . S
C464 H469 0.930 . S
C465 C464 1.333 . S
C465 N467 1.350 . S
C465 H491 0.931 . S
N466 Co462 2.148 . S
N466 C463 1.301 . S
N466 C464 1.317 . S
N467 C463 1.328 . S
N467 C465 1.350 . S
H468 C463 0.930 . S
H469 C464 0.930 . S
C470 O471 1.224 . S
C470 O489 1.247 . S
O471 C470 1.224 . S
N472 Co462 2.128 . S
N472 C473 1.355 . S
N472 C475 1.311 . S
C473 N472 1.355 . S
C473 C474 1.363 . S
C473 H485 0.929 . S
C474 C473 1.363 . S
C474 N476 1.375 . S
C474 H492 0.931 . S
C475 N472 1.311 . S
C475 N476 1.347 . S
C475 H486 0.929 . S
N476 C474 1.375 . S
N476 C475 1.347 . S
C477 C480 1.365 . S
C477 N482 1.328 . S
C477 H483 0.929 . S
C478 C479 1.362 . S
C478 C481 1.378 . S
C478 H493 0.929 . S
C479 C478 1.362 . S
C479 C480 1.366 . S
C480 C477 1.365 . S
C480 C479 1.366 . S
C480 H494 0.930 . S
C481 C478 1.378 . S
C481 N482 1.315 . S
C481 H484 0.930 . S
N482 Co462 2.194 . S
N482 C477 1.328 . S
N482 C481 1.315 . S
H483 C477 0.929 . S
H484 C481 0.930 . S
H485 C473 0.929 . S
H486 C475 0.929 . S
O487 Co462 2.351 . S
O487 C490 1.244 . S
O488 Co462 2.155 . S
O488 C490 1.240 . S
O489 Co462 2.096 . S
O489 C470 1.247 . S
C490 O487 1.244 . S
C490 O488 1.240 . S
H491 C465 0.931 . S
H492 C474 0.931 . S
H493 C478 0.929 . S
H494 C480 0.930 . S
Co495 N499 2.148 . S
Co495 N505 2.128 . S
Co495 N515 2.194 . S
Co495 O520 2.351 . S
Co495 O521 2.155 . S
Co495 O522 2.096 . S
C496 N499 1.301 . S
C496 N500 1.328 . S
C496 H501 0.930 . S
C497 C498 1.333 1_565 S
C497 N499 1.317 . S
C497 H502 0.930 1_565 S
C498 C497 1.333 1_545 S
C498 N500 1.350 1_545 S
C498 H524 0.931 . S
N499 Co495 2.148 . S
N499 C496 1.301 . S
N499 C497 1.317 . S
N500 C496 1.328 . S
N500 C498 1.350 1_565 S
H501 C496 0.930 . S
H502 C497 0.930 1_545 S
C503 O504 1.224 . S
C503 O522 1.247 . S
O504 C503 1.224 . S
N505 Co495 2.128 . S
N505 C506 1.355 . S
N505 C508 1.311 . S
C506 N505 1.355 . S
C506 C507 1.363 . S
C506 H518 0.929 . S
C507 C506 1.363 . S
C507 N509 1.375 . S
C507 H525 0.931 . S
C508 N505 1.311 . S
C508 N509 1.347 . S
C508 H519 0.929 . S
N509 C507 1.375 . S
N509 C508 1.347 . S
C510 C513 1.365 . S
C510 N515 1.328 . S
C510 H516 0.929 . S
C511 C512 1.362 . S
C511 C514 1.378 . S
C511 H526 0.929 . S
C512 C511 1.362 . S
C512 C513 1.366 . S
C513 C510 1.365 . S
C513 C512 1.366 . S
C513 H527 0.930 . S
C514 C511 1.378 . S
C514 N515 1.315 . S
C514 H517 0.930 . S
N515 Co495 2.194 . S
N515 C510 1.328 . S
N515 C514 1.315 . S
H516 C510 0.929 . S
H517 C514 0.930 . S
H518 C506 0.929 . S
H519 C508 0.929 . S
O520 Co495 2.351 . S
O520 C523 1.244 . S
O521 Co495 2.155 . S
O521 C523 1.240 . S
O522 Co495 2.096 . S
O522 C503 1.247 . S
C523 O520 1.244 . S
C523 O521 1.240 . S
H524 C498 0.931 . S
H525 C507 0.931 . S
H526 C511 0.929 . S
H527 C513 0.930 . S
Co528 N532 2.148 . S
Co528 N538 2.128 . S
Co528 N548 2.194 . S
Co528 O553 2.351 . S
Co528 O554 2.155 . S
Co528 O555 2.096 . S
C529 N532 1.301 . S
C529 N533 1.328 . S
C529 H534 0.930 . S
C530 C531 1.333 . S
C530 N532 1.317 . S
C530 H535 0.930 . S
C531 C530 1.333 . S
C531 N533 1.350 . S
C531 H557 0.931 . S
N532 Co528 2.148 . S
N532 C529 1.301 . S
N532 C530 1.317 . S
N533 C529 1.328 . S
N533 C531 1.350 . S
H534 C529 0.930 . S
H535 C530 0.930 . S
C536 O537 1.224 . S
C536 O555 1.247 . S
O537 C536 1.224 . S
N538 Co528 2.128 . S
N538 C539 1.355 . S
N538 C541 1.311 . S
C539 N538 1.355 . S
C539 C540 1.363 . S
C539 H551 0.929 . S
C540 C539 1.363 . S
C540 N542 1.375 . S
C540 H558 0.931 . S
C541 N538 1.311 . S
C541 N542 1.347 . S
C541 H552 0.929 . S
N542 C540 1.375 . S
N542 C541 1.347 . S
C543 C546 1.365 . S
C543 N548 1.328 . S
C543 H549 0.929 . S
C544 C545 1.362 . S
C544 C547 1.378 . S
C544 H559 0.929 . S
C545 C544 1.362 . S
C545 C546 1.366 . S
C546 C543 1.365 . S
C546 C545 1.366 . S
C546 H560 0.930 . S
C547 C544 1.378 . S
C547 N548 1.315 . S
C547 H550 0.930 . S
N548 Co528 2.194 . S
N548 C543 1.328 . S
N548 C547 1.315 . S
H549 C543 0.929 . S
H550 C547 0.930 . S
H551 C539 0.929 . S
H552 C541 0.929 . S
O553 Co528 2.351 . S
O553 C556 1.244 . S
O554 Co528 2.155 . S
O554 C556 1.240 . S
O555 Co528 2.096 . S
O555 C536 1.247 . S
C556 O553 1.244 . S
C556 O554 1.240 . S
H557 C531 0.931 . S
H558 C540 0.931 . S
H559 C544 0.929 . S
H560 C546 0.930 . S
Co561 N565 2.148 . S
Co561 N571 2.128 . S
Co561 N581 2.194 . S
Co561 O586 2.351 . S
Co561 O587 2.155 . S
Co561 O588 2.096 . S
C562 N565 1.301 . S
C562 N566 1.328 . S
C562 H567 0.930 . S
C563 C564 1.333 . S
C563 N565 1.317 . S
C563 H568 0.930 . S
C564 C563 1.333 . S
C564 N566 1.350 . S
C564 H590 0.931 . S
N565 Co561 2.148 . S
N565 C562 1.301 . S
N565 C563 1.317 . S
N566 C562 1.328 . S
N566 C564 1.350 . S
H567 C562 0.930 . S
H568 C563 0.930 . S
C569 O570 1.224 . S
C569 O588 1.247 . S
O570 C569 1.224 . S
N571 Co561 2.128 . S
N571 C572 1.355 . S
N571 C574 1.311 . S
C572 N571 1.355 . S
C572 C573 1.363 . S
C572 H584 0.929 . S
C573 C572 1.363 . S
C573 N575 1.375 . S
C573 H591 0.931 . S
C574 N571 1.311 . S
C574 N575 1.347 . S
C574 H585 0.929 . S
N575 C573 1.375 . S
N575 C574 1.347 . S
C576 C579 1.365 . S
C576 N581 1.328 . S
C576 H582 0.929 . S
C577 C578 1.362 . S
C577 C580 1.378 . S
C577 H592 0.929 . S
C578 C577 1.362 . S
C578 C579 1.366 . S
C579 C576 1.365 . S
C579 C578 1.366 . S
C579 H593 0.930 . S
C580 C577 1.378 . S
C580 N581 1.315 . S
C580 H583 0.930 . S
N581 Co561 2.194 . S
N581 C576 1.328 . S
N581 C580 1.315 . S
H582 C576 0.929 . S
H583 C580 0.930 . S
H584 C572 0.929 . S
H585 C574 0.929 . S
O586 Co561 2.351 . S
O586 C589 1.244 . S
O587 Co561 2.155 . S
O587 C589 1.240 . S
O588 Co561 2.096 . S
O588 C569 1.247 . S
C589 O586 1.244 . S
C589 O587 1.240 . S
H590 C564 0.931 . S
H591 C573 0.931 . S
H592 C577 0.929 . S
H593 C579 0.930 . S
Co594 N598 2.148 . S
Co594 N604 2.128 . S
Co594 N614 2.194 . S
Co594 O619 2.351 . S
Co594 O620 2.155 . S
Co594 O621 2.096 . S
C595 N598 1.301 . S
C595 N599 1.328 . S
C595 H600 0.930 . S
C596 C597 1.333 . S
C596 N598 1.317 . S
C596 H601 0.930 . S
C597 C596 1.333 . S
C597 N599 1.350 . S
C597 H623 0.931 . S
N598 Co594 2.148 . S
N598 C595 1.301 . S
N598 C596 1.317 . S
N599 C595 1.328 . S
N599 C597 1.350 . S
H600 C595 0.930 . S
H601 C596 0.930 . S
C602 O603 1.224 . S
C602 O621 1.247 . S
O603 C602 1.224 . S
N604 Co594 2.128 . S
N604 C605 1.355 . S
N604 C607 1.311 1_554 S
C605 N604 1.355 . S
C605 C606 1.363 1_554 S
C605 H617 0.929 . S
C606 C605 1.363 1_556 S
C606 N608 1.375 . S
C606 H624 0.931 . S
C607 N604 1.311 1_556 S
C607 N608 1.347 . S
C607 H618 0.929 . S
N608 C606 1.375 . S
N608 C607 1.347 . S
C609 C612 1.365 . S
C609 N614 1.328 . S
C609 H615 0.929 . S
C610 C611 1.362 . S
C610 C613 1.378 . S
C610 H625 0.929 . S
C611 C610 1.362 . S
C611 C612 1.366 . S
C612 C609 1.365 . S
C612 C611 1.366 . S
C612 H626 0.930 . S
C613 C610 1.378 . S
C613 N614 1.315 . S
C613 H616 0.930 . S
N614 Co594 2.194 . S
N614 C609 1.328 . S
N614 C613 1.315 . S
H615 C609 0.929 . S
H616 C613 0.930 . S
H617 C605 0.929 . S
H618 C607 0.929 . S
O619 Co594 2.351 . S
O619 C622 1.244 . S
O620 Co594 2.155 . S
O620 C622 1.240 . S
O621 Co594 2.096 . S
O621 C602 1.247 . S
C622 O619 1.244 . S
C622 O620 1.240 . S
H623 C597 0.931 . S
H624 C606 0.931 . S
H625 C610 0.929 . S
H626 C612 0.930 . S
Co627 N631 2.148 . S
Co627 N637 2.128 . S
Co627 N647 2.194 . S
Co627 O652 2.351 . S
Co627 O653 2.155 . S
Co627 O654 2.096 . S
C628 N631 1.301 . S
C628 N632 1.328 . S
C628 H633 0.930 . S
C629 C630 1.333 . S
C629 N631 1.317 . S
C629 H634 0.930 . S
C630 C629 1.333 . S
C630 N632 1.350 . S
C630 H656 0.931 . S
N631 Co627 2.148 . S
N631 C628 1.301 . S
N631 C629 1.317 . S
N632 C628 1.328 . S
N632 C630 1.350 . S
H633 C628 0.930 . S
H634 C629 0.930 . S
C635 O636 1.224 . S
C635 O654 1.247 . S
O636 C635 1.224 . S
N637 Co627 2.128 . S
N637 C638 1.355 . S
N637 C640 1.311 . S
C638 N637 1.355 . S
C638 C639 1.363 . S
C638 H650 0.929 . S
C639 C638 1.363 . S
C639 N641 1.375 . S
C639 H657 0.931 . S
C640 N637 1.311 . S
C640 N641 1.347 . S
C640 H651 0.929 . S
N641 C639 1.375 . S
N641 C640 1.347 . S
C642 C645 1.365 . S
C642 N647 1.328 . S
C642 H648 0.929 . S
C643 C644 1.362 . S
C643 C646 1.378 . S
C643 H658 0.929 . S
C644 C643 1.362 . S
C644 C645 1.366 . S
C645 C642 1.365 . S
C645 C644 1.366 . S
C645 H659 0.930 . S
C646 C643 1.378 . S
C646 N647 1.315 . S
C646 H649 0.930 . S
N647 Co627 2.194 . S
N647 C642 1.328 . S
N647 C646 1.315 . S
H648 C642 0.929 . S
H649 C646 0.930 . S
H650 C638 0.929 . S
H651 C640 0.929 . S
O652 Co627 2.351 . S
O652 C655 1.244 . S
O653 Co627 2.155 . S
O653 C655 1.240 . S
O654 Co627 2.096 . S
O654 C635 1.247 . S
C655 O652 1.244 . S
C655 O653 1.240 . S
H656 C630 0.931 . S
H657 C639 0.931 . S
H658 C643 0.929 . S
H659 C645 0.930 . S
Co660 N664 2.148 . S
Co660 N670 2.128 . S
Co660 N680 2.194 . S
Co660 O685 2.351 . S
Co660 O686 2.155 . S
Co660 O687 2.096 . S
C661 N664 1.301 . S
C661 N665 1.328 . S
C661 H666 0.930 . S
C662 C663 1.333 . S
C662 N664 1.317 . S
C662 H667 0.930 . S
C663 C662 1.333 . S
C663 N665 1.350 . S
C663 H689 0.931 . S
N664 Co660 2.148 . S
N664 C661 1.301 . S
N664 C662 1.317 . S
N665 C661 1.328 . S
N665 C663 1.350 . S
H666 C661 0.930 . S
H667 C662 0.930 . S
C668 O669 1.224 . S
C668 O687 1.247 . S
O669 C668 1.224 . S
N670 Co660 2.128 . S
N670 C671 1.355 . S
N670 C673 1.311 . S
C671 N670 1.355 . S
C671 C672 1.363 . S
C671 H683 0.929 . S
C672 C671 1.363 . S
C672 N674 1.375 . S
C672 H690 0.931 . S
C673 N670 1.311 . S
C673 N674 1.347 . S
C673 H684 0.929 . S
N674 C672 1.375 . S
N674 C673 1.347 . S
C675 C678 1.365 . S
C675 N680 1.328 . S
C675 H681 0.929 . S
C676 C677 1.362 . S
C676 C679 1.378 . S
C676 H691 0.929 . S
C677 C676 1.362 . S
C677 C678 1.366 . S
C678 C675 1.365 . S
C678 C677 1.366 . S
C678 H692 0.930 . S
C679 C676 1.378 . S
C679 N680 1.315 . S
C679 H682 0.930 . S
N680 Co660 2.194 . S
N680 C675 1.328 . S
N680 C679 1.315 . S
H681 C675 0.929 . S
H682 C679 0.930 . S
H683 C671 0.929 . S
H684 C673 0.929 . S
O685 Co660 2.351 . S
O685 C688 1.244 . S
O686 Co660 2.155 . S
O686 C688 1.240 . S
O687 Co660 2.096 . S
O687 C668 1.247 . S
C688 O685 1.244 . S
C688 O686 1.240 . S
H689 C663 0.931 . S
H690 C672 0.931 . S
H691 C676 0.929 . S
H692 C678 0.930 . S
Co693 N697 2.148 . S
Co693 N703 2.128 . S
Co693 N713 2.194 . S
Co693 O718 2.351 . S
Co693 O719 2.155 . S
Co693 O720 2.096 . S
C694 N697 1.301 . S
C694 N698 1.328 . S
C694 H699 0.930 . S
C695 C696 1.333 . S
C695 N697 1.317 . S
C695 H700 0.930 . S
C696 C695 1.333 . S
C696 N698 1.350 . S
C696 H722 0.931 . S
N697 Co693 2.148 . S
N697 C694 1.301 . S
N697 C695 1.317 . S
N698 C694 1.328 . S
N698 C696 1.350 . S
H699 C694 0.930 . S
H700 C695 0.930 . S
C701 O702 1.224 . S
C701 O720 1.247 . S
O702 C701 1.224 . S
N703 Co693 2.128 . S
N703 C704 1.355 . S
N703 C706 1.311 . S
C704 N703 1.355 . S
C704 C705 1.363 . S
C704 H716 0.929 . S
C705 C704 1.363 . S
C705 N707 1.375 . S
C705 H723 0.931 . S
C706 N703 1.311 . S
C706 N707 1.347 . S
C706 H717 0.929 . S
N707 C705 1.375 . S
N707 C706 1.347 . S
C708 C711 1.365 . S
C708 N713 1.328 . S
C708 H714 0.929 . S
C709 C710 1.362 . S
C709 C712 1.378 . S
C709 H724 0.929 . S
C710 C709 1.362 . S
C710 C711 1.366 . S
C711 C708 1.365 . S
C711 C710 1.366 . S
C711 H725 0.930 . S
C712 C709 1.378 . S
C712 N713 1.315 . S
C712 H715 0.930 . S
N713 Co693 2.194 . S
N713 C708 1.328 . S
N713 C712 1.315 . S
H714 C708 0.929 . S
H715 C712 0.930 . S
H716 C704 0.929 . S
H717 C706 0.929 . S
O718 Co693 2.351 . S
O718 C721 1.244 . S
O719 Co693 2.155 . S
O719 C721 1.240 . S
O720 Co693 2.096 . S
O720 C701 1.247 . S
C721 O718 1.244 . S
C721 O719 1.240 . S
H722 C696 0.931 . S
H723 C705 0.931 . S
H724 C709 0.929 . S
H725 C711 0.930 . S
Co726 N730 2.148 . S
Co726 N736 2.128 . S
Co726 N746 2.194 . S
Co726 O751 2.351 . S
Co726 O752 2.155 . S
Co726 O753 2.096 . S
C727 N730 1.301 . S
C727 N731 1.328 . S
C727 H732 0.930 . S
C728 C729 1.333 . S
C728 N730 1.317 . S
C728 H733 0.930 . S
C729 C728 1.333 . S
C729 N731 1.350 . S
C729 H755 0.931 . S
N730 Co726 2.148 . S
N730 C727 1.301 . S
N730 C728 1.317 . S
N731 C727 1.328 . S
N731 C729 1.350 . S
H732 C727 0.930 . S
H733 C728 0.930 . S
C734 O735 1.224 . S
C734 O753 1.247 . S
O735 C734 1.224 . S
N736 Co726 2.128 . S
N736 C737 1.355 . S
N736 C739 1.311 1_556 S
C737 N736 1.355 . S
C737 C738 1.363 1_556 S
C737 H749 0.929 . S
C738 C737 1.363 1_554 S
C738 N740 1.375 . S
C738 H756 0.931 . S
C739 N736 1.311 1_554 S
C739 N740 1.347 . S
C739 H750 0.929 . S
N740 C738 1.375 . S
N740 C739 1.347 . S
C741 C744 1.365 . S
C741 N746 1.328 . S
C741 H747 0.929 . S
C742 C743 1.362 . S
C742 C745 1.378 . S
C742 H757 0.929 . S
C743 C742 1.362 . S
C743 C744 1.366 . S
C744 C741 1.365 . S
C744 C743 1.366 . S
C744 H758 0.930 . S
C745 C742 1.378 . S
C745 N746 1.315 . S
C745 H748 0.930 . S
N746 Co726 2.194 . S
N746 C741 1.328 . S
N746 C745 1.315 . S
H747 C741 0.929 . S
H748 C745 0.930 . S
H749 C737 0.929 . S
H750 C739 0.929 . S
O751 Co726 2.351 . S
O751 C754 1.244 . S
O752 Co726 2.155 . S
O752 C754 1.240 . S
O753 Co726 2.096 . S
O753 C734 1.247 . S
C754 O751 1.244 . S
C754 O752 1.240 . S
H755 C729 0.931 . S
H756 C738 0.931 . S
H757 C742 0.929 . S
H758 C744 0.930 . S
Co759 N763 2.148 . S
Co759 N769 2.128 . S
Co759 N779 2.194 . S
Co759 O784 2.351 . S
Co759 O785 2.155 . S
Co759 O786 2.096 . S
C760 N763 1.301 . S
C760 N764 1.328 . S
C760 H765 0.930 . S
C761 C762 1.333 . S
C761 N763 1.317 . S
C761 H766 0.930 . S
C762 C761 1.333 . S
C762 N764 1.350 . S
C762 H788 0.931 . S
N763 Co759 2.148 . S
N763 C760 1.301 . S
N763 C761 1.317 . S
N764 C760 1.328 . S
N764 C762 1.350 . S
H765 C760 0.930 . S
H766 C761 0.930 . S
C767 O768 1.224 . S
C767 O786 1.247 . S
O768 C767 1.224 . S
N769 Co759 2.128 . S
N769 C770 1.355 . S
N769 C772 1.311 . S
C770 N769 1.355 . S
C770 C771 1.363 . S
C770 H782 0.929 . S
C771 C770 1.363 . S
C771 N773 1.375 . S
C771 H789 0.931 . S
C772 N769 1.311 . S
C772 N773 1.347 . S
C772 H783 0.929 . S
N773 C771 1.375 . S
N773 C772 1.347 . S
C774 C777 1.365 . S
C774 N779 1.328 . S
C774 H780 0.929 . S
C775 C776 1.362 . S
C775 C778 1.378 . S
C775 H790 0.929 . S
C776 C775 1.362 . S
C776 C777 1.366 . S
C777 C774 1.365 . S
C777 C776 1.366 . S
C777 H791 0.930 . S
C778 C775 1.378 . S
C778 N779 1.315 . S
C778 H781 0.930 . S
N779 Co759 2.194 . S
N779 C774 1.328 . S
N779 C778 1.315 . S
H780 C774 0.929 . S
H781 C778 0.930 . S
H782 C770 0.929 . S
H783 C772 0.929 . S
O784 Co759 2.351 . S
O784 C787 1.244 . S
O785 Co759 2.155 . S
O785 C787 1.240 . S
O786 Co759 2.096 . S
O786 C767 1.247 . S
C787 O784 1.244 . S
C787 O785 1.240 . S
H788 C762 0.931 . S
H789 C771 0.931 . S
H790 C775 0.929 . S
H791 C777 0.930 . S
Co792 N796 2.148 . S
Co792 N802 2.128 . S
Co792 N812 2.194 . S
Co792 O817 2.351 . S
Co792 O818 2.155 . S
Co792 O819 2.096 . S
C793 N796 1.301 . S
C793 N797 1.328 . S
C793 H798 0.930 . S
C794 C795 1.333 . S
C794 N796 1.317 . S
C794 H799 0.930 . S
C795 C794 1.333 . S
C795 N797 1.350 . S
C795 H821 0.931 . S
N796 Co792 2.148 . S
N796 C793 1.301 . S
N796 C794 1.317 . S
N797 C793 1.328 . S
N797 C795 1.350 . S
H798 C793 0.930 . S
H799 C794 0.930 . S
C800 O801 1.224 . S
C800 O819 1.247 . S
O801 C800 1.224 . S
N802 Co792 2.128 . S
N802 C803 1.355 . S
N802 C805 1.311 . S
C803 N802 1.355 . S
C803 C804 1.363 . S
C803 H815 0.929 . S
C804 C803 1.363 . S
C804 N806 1.375 . S
C804 H822 0.931 . S
C805 N802 1.311 . S
C805 N806 1.347 . S
C805 H816 0.929 . S
N806 C804 1.375 . S
N806 C805 1.347 . S
C807 C810 1.365 . S
C807 N812 1.328 . S
C807 H813 0.929 . S
C808 C809 1.362 . S
C808 C811 1.378 . S
C808 H823 0.929 . S
C809 C808 1.362 . S
C809 C810 1.366 . S
C810 C807 1.365 . S
C810 C809 1.366 . S
C810 H824 0.930 . S
C811 C808 1.378 . S
C811 N812 1.315 . S
C811 H814 0.930 . S
N812 Co792 2.194 . S
N812 C807 1.328 . S
N812 C811 1.315 . S
H813 C807 0.929 . S
H814 C811 0.930 . S
H815 C803 0.929 . S
H816 C805 0.929 . S
O817 Co792 2.351 . S
O817 C820 1.244 . S
O818 Co792 2.155 . S
O818 C820 1.240 . S
O819 Co792 2.096 . S
O819 C800 1.247 . S
C820 O817 1.244 . S
C820 O818 1.240 . S
H821 C795 0.931 . S
H822 C804 0.931 . S
H823 C808 0.929 . S
H824 C810 0.930 . S
Co825 N829 2.148 . S
Co825 N835 2.128 . S
Co825 N845 2.194 . S
Co825 O850 2.351 . S
Co825 O851 2.155 . S
Co825 O852 2.096 . S
C826 N829 1.301 . S
C826 N830 1.328 . S
C826 H831 0.930 . S
C827 C828 1.333 . S
C827 N829 1.317 . S
C827 H832 0.930 . S
C828 C827 1.333 . S
C828 N830 1.350 . S
C828 H854 0.931 . S
N829 Co825 2.148 . S
N829 C826 1.301 . S
N829 C827 1.317 . S
N830 C826 1.328 . S
N830 C828 1.350 . S
H831 C826 0.930 . S
H832 C827 0.930 . S
C833 O834 1.224 . S
C833 O852 1.247 . S
O834 C833 1.224 . S
N835 Co825 2.128 . S
N835 C836 1.355 . S
N835 C838 1.311 . S
C836 N835 1.355 . S
C836 C837 1.363 . S
C836 H848 0.929 . S
C837 C836 1.363 . S
C837 N839 1.375 . S
C837 H855 0.931 . S
C838 N835 1.311 . S
C838 N839 1.347 . S
C838 H849 0.929 . S
N839 C837 1.375 . S
N839 C838 1.347 . S
C840 C843 1.365 . S
C840 N845 1.328 . S
C840 H846 0.929 . S
C841 C842 1.362 . S
C841 C844 1.378 . S
C841 H856 0.929 . S
C842 C841 1.362 . S
C842 C843 1.366 . S
C843 C840 1.365 . S
C843 C842 1.366 . S
C843 H857 0.930 . S
C844 C841 1.378 . S
C844 N845 1.315 . S
C844 H847 0.930 . S
N845 Co825 2.194 . S
N845 C840 1.328 . S
N845 C844 1.315 . S
H846 C840 0.929 . S
H847 C844 0.930 . S
H848 C836 0.929 . S
H849 C838 0.929 . S
O850 Co825 2.351 . S
O850 C853 1.244 . S
O851 Co825 2.155 . S
O851 C853 1.240 . S
O852 Co825 2.096 . S
O852 C833 1.247 . S
C853 O850 1.244 . S
C853 O851 1.240 . S
H854 C828 0.931 . S
H855 C837 0.931 . S
H856 C841 0.929 . S
H857 C843 0.930 . S
Co858 N862 2.148 . S
Co858 N868 2.128 . S
Co858 N878 2.194 . S
Co858 O883 2.351 . S
Co858 O884 2.155 . S
Co858 O885 2.096 . S
C859 N862 1.301 . S
C859 N863 1.328 . S
C859 H864 0.930 . S
C860 C861 1.333 . S
C860 N862 1.317 . S
C860 H865 0.930 . S
C861 C860 1.333 . S
C861 N863 1.350 . S
C861 H887 0.931 . S
N862 Co858 2.148 . S
N862 C859 1.301 . S
N862 C860 1.317 . S
N863 C859 1.328 . S
N863 C861 1.350 . S
H864 C859 0.930 . S
H865 C860 0.930 . S
C866 O867 1.224 . S
C866 O885 1.247 . S
O867 C866 1.224 . S
N868 Co858 2.128 . S
N868 C869 1.355 . S
N868 C871 1.311 1_556 S
C869 N868 1.355 . S
C869 C870 1.363 1_556 S
C869 H881 0.929 . S
C870 C869 1.363 1_554 S
C870 N872 1.375 . S
C870 H888 0.931 . S
C871 N868 1.311 1_554 S
C871 N872 1.347 . S
C871 H882 0.929 . S
N872 C870 1.375 . S
N872 C871 1.347 . S
C873 C876 1.365 . S
C873 N878 1.328 . S
C873 H879 0.929 . S
C874 C875 1.362 . S
C874 C877 1.378 . S
C874 H889 0.929 . S
C875 C874 1.362 . S
C875 C876 1.366 . S
C876 C873 1.365 . S
C876 C875 1.366 . S
C876 H890 0.930 . S
C877 C874 1.378 . S
C877 N878 1.315 . S
C877 H880 0.930 . S
N878 Co858 2.194 . S
N878 C873 1.328 . S
N878 C877 1.315 . S
H879 C873 0.929 . S
H880 C877 0.930 . S
H881 C869 0.929 . S
H882 C871 0.929 . S
O883 Co858 2.351 . S
O883 C886 1.244 . S
O884 Co858 2.155 . S
O884 C886 1.240 . S
O885 Co858 2.096 . S
O885 C866 1.247 . S
C886 O883 1.244 . S
C886 O884 1.240 . S
H887 C861 0.931 . S
H888 C870 0.931 . S
H889 C874 0.929 . S
H890 C876 0.930 . S
Co891 N895 2.148 . S
Co891 N901 2.128 . S
Co891 N911 2.194 . S
Co891 O916 2.351 . S
Co891 O917 2.155 . S
Co891 O918 2.096 . S
C892 N895 1.301 . S
C892 N896 1.328 . S
C892 H897 0.930 . S
C893 C894 1.333 . S
C893 N895 1.317 . S
C893 H898 0.930 . S
C894 C893 1.333 . S
C894 N896 1.350 . S
C894 H920 0.931 . S
N895 Co891 2.148 . S
N895 C892 1.301 . S
N895 C893 1.317 . S
N896 C892 1.328 . S
N896 C894 1.350 . S
H897 C892 0.930 . S
H898 C893 0.930 . S
C899 O900 1.224 . S
C899 O918 1.247 . S
O900 C899 1.224 . S
N901 Co891 2.128 . S
N901 C902 1.355 . S
N901 C904 1.311 . S
C902 N901 1.355 . S
C902 C903 1.363 . S
C902 H914 0.929 . S
C903 C902 1.363 . S
C903 N905 1.375 . S
C903 H921 0.931 . S
C904 N901 1.311 . S
C904 N905 1.347 . S
C904 H915 0.929 . S
N905 C903 1.375 . S
N905 C904 1.347 . S
C906 C909 1.365 . S
C906 N911 1.328 . S
C906 H912 0.929 . S
C907 C908 1.362 . S
C907 C910 1.378 . S
C907 H922 0.929 . S
C908 C907 1.362 . S
C908 C909 1.366 . S
C909 C906 1.365 . S
C909 C908 1.366 . S
C909 H923 0.930 . S
C910 C907 1.378 . S
C910 N911 1.315 . S
C910 H913 0.930 . S
N911 Co891 2.194 . S
N911 C906 1.328 . S
N911 C910 1.315 . S
H912 C906 0.929 . S
H913 C910 0.930 . S
H914 C902 0.929 . S
H915 C904 0.929 . S
O916 Co891 2.351 . S
O916 C919 1.244 . S
O917 Co891 2.155 . S
O917 C919 1.240 . S
O918 Co891 2.096 . S
O918 C899 1.247 . S
C919 O916 1.244 . S
C919 O917 1.240 . S
H920 C894 0.931 . S
H921 C903 0.931 . S
H922 C907 0.929 . S
H923 C909 0.930 . S
Co924 N928 2.148 . S
Co924 N934 2.128 . S
Co924 N944 2.194 . S
Co924 O949 2.351 . S
Co924 O950 2.155 . S
Co924 O951 2.096 . S
C925 N928 1.301 . S
C925 N929 1.328 . S
C925 H930 0.930 . S
C926 C927 1.333 . S
C926 N928 1.317 . S
C926 H931 0.930 . S
C927 C926 1.333 . S
C927 N929 1.350 . S
C927 H953 0.931 . S
N928 Co924 2.148 . S
N928 C925 1.301 . S
N928 C926 1.317 . S
N929 C925 1.328 . S
N929 C927 1.350 . S
H930 C925 0.930 . S
H931 C926 0.930 . S
C932 O933 1.224 . S
C932 O951 1.247 . S
O933 C932 1.224 . S
N934 Co924 2.128 . S
N934 C935 1.355 . S
N934 C937 1.311 . S
C935 N934 1.355 . S
C935 C936 1.363 . S
C935 H947 0.929 . S
C936 C935 1.363 . S
C936 N938 1.375 . S
C936 H954 0.931 . S
C937 N934 1.311 . S
C937 N938 1.347 . S
C937 H948 0.929 . S
N938 C936 1.375 . S
N938 C937 1.347 . S
C939 C942 1.365 . S
C939 N944 1.328 . S
C939 H945 0.929 . S
C940 C941 1.362 . S
C940 C943 1.378 . S
C940 H955 0.929 . S
C941 C940 1.362 . S
C941 C942 1.366 . S
C942 C939 1.365 . S
C942 C941 1.366 . S
C942 H956 0.930 . S
C943 C940 1.378 . S
C943 N944 1.315 . S
C943 H946 0.930 . S
N944 Co924 2.194 . S
N944 C939 1.328 . S
N944 C943 1.315 . S
H945 C939 0.929 . S
H946 C943 0.930 . S
H947 C935 0.929 . S
H948 C937 0.929 . S
O949 Co924 2.351 . S
O949 C952 1.244 . S
O950 Co924 2.155 . S
O950 C952 1.240 . S
O951 Co924 2.096 . S
O951 C932 1.247 . S
C952 O949 1.244 . S
C952 O950 1.240 . S
H953 C927 0.931 . S
H954 C936 0.931 . S
H955 C940 0.929 . S
H956 C942 0.930 . S
Co957 N961 2.148 . S
Co957 N967 2.128 . S
Co957 N977 2.194 . S
Co957 O982 2.351 . S
Co957 O983 2.155 . S
Co957 O984 2.096 . S
C958 N961 1.301 . S
C958 N962 1.328 . S
C958 H963 0.930 . S
C959 C960 1.333 . S
C959 N961 1.317 . S
C959 H964 0.930 . S
C960 C959 1.333 . S
C960 N962 1.350 . S
C960 H986 0.931 . S
N961 Co957 2.148 . S
N961 C958 1.301 . S
N961 C959 1.317 . S
N962 C958 1.328 . S
N962 C960 1.350 . S
H963 C958 0.930 . S
H964 C959 0.930 . S
C965 O966 1.224 . S
C965 O984 1.247 . S
O966 C965 1.224 . S
N967 Co957 2.128 . S
N967 C968 1.355 . S
N967 C970 1.311 . S
C968 N967 1.355 . S
C968 C969 1.363 . S
C968 H980 0.929 . S
C969 C968 1.363 . S
C969 N971 1.375 . S
C969 H987 0.931 . S
C970 N967 1.311 . S
C970 N971 1.347 . S
C970 H981 0.929 . S
N971 C969 1.375 . S
N971 C970 1.347 . S
C972 C975 1.365 . S
C972 N977 1.328 . S
C972 H978 0.929 . S
C973 C974 1.362 . S
C973 C976 1.378 . S
C973 H988 0.929 . S
C974 C973 1.362 . S
C974 C975 1.366 . S
C975 C972 1.365 . S
C975 C974 1.366 . S
C975 H989 0.930 . S
C976 C973 1.378 . S
C976 N977 1.315 . S
C976 H979 0.930 . S
N977 Co957 2.194 . S
N977 C972 1.328 . S
N977 C976 1.315 . S
H978 C972 0.929 . S
H979 C976 0.930 . S
H980 C968 0.929 . S
H981 C970 0.929 . S
O982 Co957 2.351 . S
O982 C985 1.244 . S
O983 Co957 2.155 . S
O983 C985 1.240 . S
O984 Co957 2.096 . S
O984 C965 1.247 . S
C985 O982 1.244 . S
C985 O983 1.240 . S
H986 C960 0.931 . S
H987 C969 0.931 . S
H988 C973 0.929 . S
H989 C975 0.930 . S
Co990 N994 2.148 . S
Co990 N1000 2.128 . S
Co990 N1010 2.194 . S
Co990 O1015 2.351 . S
Co990 O1016 2.155 . S
Co990 O1017 2.096 . S
C991 N994 1.301 . S
C991 N995 1.328 . S
C991 H996 0.930 . S
C992 C993 1.333 . S
C992 N994 1.317 . S
C992 H997 0.930 . S
C993 C992 1.333 . S
C993 N995 1.350 . S
C993 H1019 0.931 . S
N994 Co990 2.148 . S
N994 C991 1.301 . S
N994 C992 1.317 . S
N995 C991 1.328 . S
N995 C993 1.350 . S
H996 C991 0.930 . S
H997 C992 0.930 . S
C998 O999 1.224 . S
C998 O1017 1.247 . S
O999 C998 1.224 . S
N1000 Co990 2.128 . S
N1000 C1001 1.355 . S
N1000 C1003 1.311 1_554 S
C1001 N1000 1.355 . S
C1001 C1002 1.363 1_554 S
C1001 H1013 0.929 . S
C1002 C1001 1.363 1_556 S
C1002 N1004 1.375 . S
C1002 H1020 0.931 . S
C1003 N1000 1.311 1_556 S
C1003 N1004 1.347 . S
C1003 H1014 0.929 . S
N1004 C1002 1.375 . S
N1004 C1003 1.347 . S
C1005 C1008 1.365 . S
C1005 N1010 1.328 . S
C1005 H1011 0.929 . S
C1006 C1007 1.362 . S
C1006 C1009 1.378 . S
C1006 H1021 0.929 . S
C1007 C1006 1.362 . S
C1007 C1008 1.366 . S
C1008 C1005 1.365 . S
C1008 C1007 1.366 . S
C1008 H1022 0.930 . S
C1009 C1006 1.378 . S
C1009 N1010 1.315 . S
C1009 H1012 0.930 . S
N1010 Co990 2.194 . S
N1010 C1005 1.328 . S
N1010 C1009 1.315 . S
H1011 C1005 0.929 . S
H1012 C1009 0.930 . S
H1013 C1001 0.929 . S
H1014 C1003 0.929 . S
O1015 Co990 2.351 . S
O1015 C1018 1.244 . S
O1016 Co990 2.155 . S
O1016 C1018 1.240 . S
O1017 Co990 2.096 . S
O1017 C998 1.247 . S
C1018 O1015 1.244 . S
C1018 O1016 1.240 . S
H1019 C993 0.931 . S
H1020 C1002 0.931 . S
H1021 C1006 0.929 . S
H1022 C1008 0.930 . S
Co1023 N1027 2.148 . S
Co1023 N1033 2.128 . S
Co1023 N1043 2.194 . S
Co1023 O1048 2.351 . S
Co1023 O1049 2.155 . S
Co1023 O1050 2.096 . S
C1024 N1027 1.301 . S
C1024 N1028 1.328 . S
C1024 H1029 0.930 . S
C1025 C1026 1.333 . S
C1025 N1027 1.317 . S
C1025 H1030 0.930 . S
C1026 C1025 1.333 . S
C1026 N1028 1.350 . S
C1026 H1052 0.931 . S
N1027 Co1023 2.148 . S
N1027 C1024 1.301 . S
N1027 C1025 1.317 . S
N1028 C1024 1.328 . S
N1028 C1026 1.350 . S
H1029 C1024 0.930 . S
H1030 C1025 0.930 . S
C1031 O1032 1.224 . S
C1031 O1050 1.247 . S
O1032 C1031 1.224 . S
N1033 Co1023 2.128 . S
N1033 C1034 1.355 . S
N1033 C1036 1.311 . S
C1034 N1033 1.355 . S
C1034 C1035 1.363 . S
C1034 H1046 0.929 . S
C1035 C1034 1.363 . S
C1035 N1037 1.375 . S
C1035 H1053 0.931 . S
C1036 N1033 1.311 . S
C1036 N1037 1.347 . S
C1036 H1047 0.929 . S
N1037 C1035 1.375 . S
N1037 C1036 1.347 . S
C1038 C1041 1.365 . S
C1038 N1043 1.328 . S
C1038 H1044 0.929 . S
C1039 C1040 1.362 . S
C1039 C1042 1.378 . S
C1039 H1054 0.929 . S
C1040 C1039 1.362 . S
C1040 C1041 1.366 . S
C1041 C1038 1.365 . S
C1041 C1040 1.366 . S
C1041 H1055 0.930 . S
C1042 C1039 1.378 . S
C1042 N1043 1.315 . S
C1042 H1045 0.930 . S
N1043 Co1023 2.194 . S
N1043 C1038 1.328 . S
N1043 C1042 1.315 . S
H1044 C1038 0.929 . S
H1045 C1042 0.930 . S
H1046 C1034 0.929 . S
H1047 C1036 0.929 . S
O1048 Co1023 2.351 . S
O1048 C1051 1.244 . S
O1049 Co1023 2.155 . S
O1049 C1051 1.240 . S
O1050 Co1023 2.096 . S
O1050 C1031 1.247 . S
C1051 O1048 1.244 . S
C1051 O1049 1.240 . S
H1052 C1026 0.931 . S
H1053 C1035 0.931 . S
H1054 C1039 0.929 . S
H1055 C1041 0.930 . S
H1056 C1062 0.930 . S
H1057 C1065 0.930 1_565 S
H1058 C1066 0.930 . S
H1059 C1067 0.930 . S
H1060 C1070 0.930 . S
H1061 C1071 0.930 . S
C1062 H1056 0.930 . S
C1062 C1063 1.355 . S
C1062 C1064 1.415 . S
C1063 C1062 1.355 . S
C1063 C1065 1.419 . S
C1064 C1062 1.415 . S
C1064 C1069 1.425 . S
C1064 C1071 1.409 . S
C1065 H1057 0.930 1_545 S
C1065 C1063 1.419 . S
C1065 C1066 1.362 . S
C1066 H1058 0.930 . S
C1066 C1065 1.362 . S
C1066 C1069 1.409 . S
C1067 H1059 0.930 . S
C1067 C1068 1.355 . S
C1067 C1069 1.415 . S
C1068 C1067 1.355 . S
C1068 C1070 1.419 . S
C1069 C1064 1.425 . S
C1069 C1066 1.409 . S
C1069 C1067 1.415 . S
C1070 H1060 0.930 . S
C1070 C1068 1.419 . S
C1070 C1071 1.362 . S
C1071 H1061 0.930 . S
C1071 C1064 1.409 . S
C1071 C1070 1.362 . S
H1072 C1078 0.930 . S
H1073 C1081 0.930 . S
H1074 C1082 0.930 . S
H1075 C1083 0.930 . S
H1076 C1086 0.930 . S
H1077 C1087 0.930 . S
C1078 H1072 0.930 . S
C1078 C1079 1.355 . S
C1078 C1080 1.415 . S
C1079 C1078 1.355 . S
C1079 C1081 1.419 . S
C1080 C1078 1.415 . S
C1080 C1085 1.425 . S
C1080 C1087 1.409 . S
C1081 H1073 0.930 . S
C1081 C1079 1.419 . S
C1081 C1082 1.362 . S
C1082 H1074 0.930 . S
C1082 C1081 1.362 . S
C1082 C1085 1.409 . S
C1083 H1075 0.930 . S
C1083 C1084 1.355 . S
C1083 C1085 1.415 . S
C1084 C1083 1.355 . S
C1084 C1086 1.419 . S
C1085 C1080 1.425 . S
C1085 C1082 1.409 . S
C1085 C1083 1.415 . S
C1086 H1076 0.930 . S
C1086 C1084 1.419 . S
C1086 C1087 1.362 . S
C1087 H1077 0.930 . S
C1087 C1080 1.409 . S
C1087 C1086 1.362 . S
H1088 C1094 0.930 . S
H1089 C1097 0.930 . S
H1090 C1098 0.930 . S
H1091 C1099 0.930 . S
H1092 C1102 0.930 . S
H1093 C1103 0.930 . S
C1094 H1088 0.930 . S
C1094 C1095 1.355 . S
C1094 C1096 1.415 . S
C1095 C1094 1.355 . S
C1095 C1097 1.419 . S
C1096 C1094 1.415 . S
C1096 C1101 1.425 . S
C1096 C1103 1.409 . S
C1097 H1089 0.930 . S
C1097 C1095 1.419 . S
C1097 C1098 1.362 . S
C1098 H1090 0.930 . S
C1098 C1097 1.362 . S
C1098 C1101 1.409 . S
C1099 H1091 0.930 . S
C1099 C1100 1.355 . S
C1099 C1101 1.415 . S
C1100 C1099 1.355 . S
C1100 C1102 1.419 . S
C1101 C1096 1.425 . S
C1101 C1098 1.409 . S
C1101 C1099 1.415 . S
C1102 H1092 0.930 . S
C1102 C1100 1.419 . S
C1102 C1103 1.362 . S
C1103 H1093 0.930 . S
C1103 C1096 1.409 . S
C1103 C1102 1.362 . S
H1104 C1110 0.930 . S
H1105 C1113 0.930 . S
H1106 C1114 0.930 . S
H1107 C1115 0.930 1_554 S
H1108 C1118 0.930 . S
H1109 C1119 0.930 . S
C1110 H1104 0.930 . S
C1110 C1111 1.355 . S
C1110 C1112 1.415 . S
C1111 C1110 1.355 . S
C1111 C1113 1.419 . S
C1112 C1110 1.415 . S
C1112 C1117 1.425 . S
C1112 C1119 1.409 . S
C1113 H1105 0.930 . S
C1113 C1111 1.419 . S
C1113 C1114 1.362 . S
C1114 H1106 0.930 . S
C1114 C1113 1.362 . S
C1114 C1117 1.409 . S
C1115 H1107 0.930 1_556 S
C1115 C1116 1.355 . S
C1115 C1117 1.415 . S
C1116 C1115 1.355 . S
C1116 C1118 1.419 . S
C1117 C1112 1.425 . S
C1117 C1114 1.409 . S
C1117 C1115 1.415 . S
C1118 H1108 0.930 . S
C1118 C1116 1.419 . S
C1118 C1119 1.362 . S
C1119 H1109 0.930 . S
C1119 C1112 1.409 . S
C1119 C1118 1.362 . S
H1120 C1126 0.930 . S
H1121 C1129 0.930 . S
H1122 C1130 0.930 . S
H1123 C1131 0.930 . S
H1124 C1134 0.930 . S
H1125 C1135 0.930 . S
C1126 H1120 0.930 . S
C1126 C1127 1.355 . S
C1126 C1128 1.415 . S
C1127 C1126 1.355 . S
C1127 C1129 1.419 . S
C1128 C1126 1.415 . S
C1128 C1133 1.425 . S
C1128 C1135 1.409 . S
C1129 H1121 0.930 . S
C1129 C1127 1.419 . S
C1129 C1130 1.362 . S
C1130 H1122 0.930 . S
C1130 C1129 1.362 . S
C1130 C1133 1.409 . S
C1131 H1123 0.930 . S
C1131 C1132 1.355 . S
C1131 C1133 1.415 . S
C1132 C1131 1.355 . S
C1132 C1134 1.419 . S
C1133 C1128 1.425 . S
C1133 C1130 1.409 . S
C1133 C1131 1.415 . S
C1134 H1124 0.930 . S
C1134 C1132 1.419 . S
C1134 C1135 1.362 . S
C1135 H1125 0.930 . S
C1135 C1128 1.409 . S
C1135 C1134 1.362 . S
H1136 C1142 0.930 . S
H1137 C1145 0.930 1_556 S
H1138 C1146 0.930 . S
H1139 C1147 0.930 . S
H1140 C1150 0.930 . S
H1141 C1151 0.930 . S
C1142 H1136 0.930 . S
C1142 C1143 1.355 . S
C1142 C1144 1.415 . S
C1143 C1142 1.355 . S
C1143 C1145 1.419 . S
C1144 C1142 1.415 . S
C1144 C1149 1.425 . S
C1144 C1151 1.409 . S
C1145 H1137 0.930 1_554 S
C1145 C1143 1.419 . S
C1145 C1146 1.362 . S
C1146 H1138 0.930 . S
C1146 C1145 1.362 . S
C1146 C1149 1.409 . S
C1147 H1139 0.930 . S
C1147 C1148 1.355 . S
C1147 C1149 1.415 . S
C1148 C1147 1.355 . S
C1148 C1150 1.419 . S
C1149 C1144 1.425 . S
C1149 C1146 1.409 . S
C1149 C1147 1.415 . S
C1150 H1140 0.930 . S
C1150 C1148 1.419 . S
C1150 C1151 1.362 . S
C1151 H1141 0.930 . S
C1151 C1144 1.409 . S
C1151 C1150 1.362 . S
H1152 C1158 0.930 . S
H1153 C1161 0.930 . S
H1154 C1162 0.930 . S
H1155 C1163 0.930 . S
H1156 C1166 0.930 1_565 S
H1157 C1167 0.930 . S
C1158 H1152 0.930 . S
C1158 C1159 1.355 . S
C1158 C1160 1.415 . S
C1159 C1158 1.355 . S
C1159 C1161 1.419 . S
C1160 C1158 1.415 . S
C1160 C1165 1.425 . S
C1160 C1167 1.409 . S
C1161 H1153 0.930 . S
C1161 C1159 1.419 . S
C1161 C1162 1.362 . S
C1162 H1154 0.930 . S
C1162 C1161 1.362 . S
C1162 C1165 1.409 . S
C1163 H1155 0.930 . S
C1163 C1164 1.355 . S
C1163 C1165 1.415 . S
C1164 C1163 1.355 . S
C1164 C1166 1.419 . S
C1165 C1160 1.425 . S
C1165 C1162 1.409 . S
C1165 C1163 1.415 . S
C1166 H1156 0.930 1_545 S
C1166 C1164 1.419 . S
C1166 C1167 1.362 . S
C1167 H1157 0.930 . S
C1167 C1160 1.409 . S
C1167 C1166 1.362 . S
H1168 C1174 0.930 . S
H1169 C1177 0.930 . S
H1170 C1178 0.930 . S
H1171 C1179 0.930 . S
H1172 C1182 0.930 . S
H1173 C1183 0.930 . S
C1174 H1168 0.930 . S
C1174 C1175 1.355 . S
C1174 C1176 1.415 . S
C1175 C1174 1.355 . S
C1175 C1177 1.419 . S
C1176 C1174 1.415 . S
C1176 C1181 1.425 . S
C1176 C1183 1.409 . S
C1177 H1169 0.930 . S
C1177 C1175 1.419 . S
C1177 C1178 1.362 . S
C1178 H1170 0.930 . S
C1178 C1177 1.362 . S
C1178 C1181 1.409 . S
C1179 H1171 0.930 . S
C1179 C1180 1.355 . S
C1179 C1181 1.415 . S
C1180 C1179 1.355 . S
C1180 C1182 1.419 . S
C1181 C1176 1.425 . S
C1181 C1178 1.409 . S
C1181 C1179 1.415 . S
C1182 H1172 0.930 . S
C1182 C1180 1.419 . S
C1182 C1183 1.362 . S
C1183 H1173 0.930 . S
C1183 C1176 1.409 . S
C1183 C1182 1.362 . S
H1184 C1190 0.930 . S
H1185 C1193 0.930 . S
H1186 C1194 0.930 . S
H1187 C1195 0.930 . S
H1188 C1198 0.930 . S
H1189 C1199 0.930 . S
C1190 H1184 0.930 . S
C1190 C1191 1.355 . S
C1190 C1192 1.415 . S
C1191 C1190 1.355 . S
C1191 C1193 1.419 . S
C1192 C1190 1.415 . S
C1192 C1197 1.425 . S
C1192 C1199 1.409 . S
C1193 H1185 0.930 . S
C1193 C1191 1.419 . S
C1193 C1194 1.362 . S
C1194 H1186 0.930 . S
C1194 C1193 1.362 . S
C1194 C1197 1.409 . S
C1195 H1187 0.930 . S
C1195 C1196 1.355 . S
C1195 C1197 1.415 . S
C1196 C1195 1.355 . S
C1196 C1198 1.419 . S
C1197 C1192 1.425 . S
C1197 C1194 1.409 . S
C1197 C1195 1.415 . S
C1198 H1188 0.930 . S
C1198 C1196 1.419 . S
C1198 C1199 1.362 . S
C1199 H1189 0.930 . S
C1199 C1192 1.409 . S
C1199 C1198 1.362 . S
H1200 C1206 0.930 . S
H1201 C1209 0.930 . S
H1202 C1210 0.930 . S
H1203 C1211 0.930 . S
H1204 C1214 0.930 . S
H1205 C1215 0.930 . S
C1206 H1200 0.930 . S
C1206 C1207 1.355 . S
C1206 C1208 1.415 . S
C1207 C1206 1.355 . S
C1207 C1209 1.419 . S
C1208 C1206 1.415 . S
C1208 C1213 1.425 . S
C1208 C1215 1.409 . S
C1209 H1201 0.930 . S
C1209 C1207 1.419 . S
C1209 C1210 1.362 . S
C1210 H1202 0.930 . S
C1210 C1209 1.362 . S
C1210 C1213 1.409 . S
C1211 H1203 0.930 . S
C1211 C1212 1.355 . S
C1211 C1213 1.415 . S
C1212 C1211 1.355 . S
C1212 C1214 1.419 . S
C1213 C1208 1.425 . S
C1213 C1210 1.409 . S
C1213 C1211 1.415 . S
C1214 H1204 0.930 . S
C1214 C1212 1.419 . S
C1214 C1215 1.362 . S
C1215 H1205 0.930 . S
C1215 C1208 1.409 . S
C1215 C1214 1.362 . S
H1216 C1222 0.930 . S
H1217 C1225 0.930 . S
H1218 C1226 0.930 . S
H1219 C1227 0.930 . S
H1220 C1230 0.930 1_565 S
H1221 C1231 0.930 . S
C1222 H1216 0.930 . S
C1222 C1223 1.355 . S
C1222 C1224 1.415 . S
C1223 C1222 1.355 . S
C1223 C1225 1.419 . S
C1224 C1222 1.415 . S
C1224 C1229 1.425 . S
C1224 C1231 1.409 . S
C1225 H1217 0.930 . S
C1225 C1223 1.419 . S
C1225 C1226 1.362 . S
C1226 H1218 0.930 . S
C1226 C1225 1.362 . S
C1226 C1229 1.409 . S
C1227 H1219 0.930 . S
C1227 C1228 1.355 . S
C1227 C1229 1.415 . S
C1228 C1227 1.355 . S
C1228 C1230 1.419 . S
C1229 C1224 1.425 . S
C1229 C1226 1.409 . S
C1229 C1227 1.415 . S
C1230 H1220 0.930 1_545 S
C1230 C1228 1.419 . S
C1230 C1231 1.362 . S
C1231 H1221 0.930 . S
C1231 C1224 1.409 . S
C1231 C1230 1.362 . S
H1232 C1238 0.930 . S
H1233 C1241 0.930 . S
H1234 C1242 0.930 . S
H1235 C1243 0.930 . S
H1236 C1246 0.930 . S
H1237 C1247 0.930 . S
C1238 H1232 0.930 . S
C1238 C1239 1.355 . S
C1238 C1240 1.415 . S
C1239 C1238 1.355 . S
C1239 C1241 1.419 . S
C1240 C1238 1.415 . S
C1240 C1245 1.425 . S
C1240 C1247 1.409 . S
C1241 H1233 0.930 . S
C1241 C1239 1.419 . S
C1241 C1242 1.362 . S
C1242 H1234 0.930 . S
C1242 C1241 1.362 . S
C1242 C1245 1.409 . S
C1243 H1235 0.930 . S
C1243 C1244 1.355 . S
C1243 C1245 1.415 . S
C1244 C1243 1.355 . S
C1244 C1246 1.419 . S
C1245 C1240 1.425 . S
C1245 C1242 1.409 . S
C1245 C1243 1.415 . S
C1246 H1236 0.930 . S
C1246 C1244 1.419 . S
C1246 C1247 1.362 . S
C1247 H1237 0.930 . S
C1247 C1240 1.409 . S
C1247 C1246 1.362 . S
H1248 C1254 0.930 . S
H1249 C1257 0.930 . S
H1250 C1258 0.930 . S
H1251 C1259 0.930 . S
H1252 C1262 0.930 1_565 S
H1253 C1263 0.930 . S
C1254 H1248 0.930 . S
C1254 C1255 1.355 . S
C1254 C1256 1.415 . S
C1255 C1254 1.355 . S
C1255 C1257 1.419 . S
C1256 C1254 1.415 . S
C1256 C1261 1.425 . S
C1256 C1263 1.409 . S
C1257 H1249 0.930 . S
C1257 C1255 1.419 . S
C1257 C1258 1.362 . S
C1258 H1250 0.930 . S
C1258 C1257 1.362 . S
C1258 C1261 1.409 . S
C1259 H1251 0.930 . S
C1259 C1260 1.355 . S
C1259 C1261 1.415 . S
C1260 C1259 1.355 . S
C1260 C1262 1.419 . S
C1261 C1256 1.425 . S
C1261 C1258 1.409 . S
C1261 C1259 1.415 . S
C1262 H1252 0.930 1_545 S
C1262 C1260 1.419 . S
C1262 C1263 1.362 . S
C1263 H1253 0.930 . S
C1263 C1256 1.409 . S
C1263 C1262 1.362 . S
H1264 C1270 0.930 . S
H1265 C1273 0.930 . S
H1266 C1274 0.930 . S
H1267 C1275 0.930 . S
H1268 C1278 0.930 . S
H1269 C1279 0.930 . S
C1270 H1264 0.930 . S
C1270 C1271 1.355 . S
C1270 C1272 1.415 . S
C1271 C1270 1.355 . S
C1271 C1273 1.419 . S
C1272 C1270 1.415 . S
C1272 C1277 1.425 . S
C1272 C1279 1.409 . S
C1273 H1265 0.930 . S
C1273 C1271 1.419 . S
C1273 C1274 1.362 . S
C1274 H1266 0.930 . S
C1274 C1273 1.362 . S
C1274 C1277 1.409 . S
C1275 H1267 0.930 . S
C1275 C1276 1.355 . S
C1275 C1277 1.415 . S
C1276 C1275 1.355 . S
C1276 C1278 1.419 . S
C1277 C1272 1.425 . S
C1277 C1274 1.409 . S
C1277 C1275 1.415 . S
C1278 H1268 0.930 . S
C1278 C1276 1.419 . S
C1278 C1279 1.362 . S
C1279 H1269 0.930 . S
C1279 C1272 1.409 . S
C1279 C1278 1.362 . S
H1280 C1286 0.930 . S
H1281 C1289 0.930 . S
H1282 C1290 0.930 . S
H1283 C1291 0.930 . S
H1284 C1294 0.930 . S
H1285 C1295 0.930 . S
C1286 H1280 0.930 . S
C1286 C1287 1.355 . S
C1286 C1288 1.415 . S
C1287 C1286 1.355 . S
C1287 C1289 1.419 . S
C1288 C1286 1.415 . S
C1288 C1293 1.425 . S
C1288 C1295 1.409 . S
C1289 H1281 0.930 . S
C1289 C1287 1.419 . S
C1289 C1290 1.362 . S
C1290 H1282 0.930 . S
C1290 C1289 1.362 . S
C1290 C1293 1.409 . S
C1291 H1283 0.930 . S
C1291 C1292 1.355 . S
C1291 C1293 1.415 . S
C1292 C1291 1.355 . S
C1292 C1294 1.419 . S
C1293 C1288 1.425 . S
C1293 C1290 1.409 . S
C1293 C1291 1.415 . S
C1294 H1284 0.930 . S
C1294 C1292 1.419 . S
C1294 C1295 1.362 . S
C1295 H1285 0.930 . S
C1295 C1288 1.409 . S
C1295 C1294 1.362 . S
H1296 C1302 0.930 . S
H1297 C1305 0.930 . S
H1298 C1306 0.930 . S
H1299 C1307 0.930 . S
H1300 C1310 0.930 . S
H1301 C1311 0.930 . S
C1302 H1296 0.930 . S
C1302 C1303 1.355 . S
C1302 C1304 1.415 . S
C1303 C1302 1.355 . S
C1303 C1305 1.419 . S
C1304 C1302 1.415 . S
C1304 C1309 1.425 . S
C1304 C1311 1.409 . S
C1305 H1297 0.930 . S
C1305 C1303 1.419 . S
C1305 C1306 1.362 . S
C1306 H1298 0.930 . S
C1306 C1305 1.362 . S
C1306 C1309 1.409 . S
C1307 H1299 0.930 . S
C1307 C1308 1.355 . S
C1307 C1309 1.415 . S
C1308 C1307 1.355 . S
C1308 C1310 1.419 . S
C1309 C1304 1.425 . S
C1309 C1306 1.409 . S
C1309 C1307 1.415 . S
C1310 H1300 0.930 . S
C1310 C1308 1.419 . S
C1310 C1311 1.362 . S
C1311 H1301 0.930 . S
C1311 C1304 1.409 . S
C1311 C1310 1.362 . S
H1312 C1318 0.930 . S
H1313 C1321 0.930 . S
H1314 C1322 0.930 . S
H1315 C1323 0.930 . S
H1316 C1326 0.930 . S
H1317 C1327 0.930 . S
C1318 H1312 0.930 . S
C1318 C1319 1.355 . S
C1318 C1320 1.415 . S
C1319 C1318 1.355 . S
C1319 C1321 1.419 . S
C1320 C1318 1.415 . S
C1320 C1325 1.425 . S
C1320 C1327 1.409 . S
C1321 H1313 0.930 . S
C1321 C1319 1.419 . S
C1321 C1322 1.362 . S
C1322 H1314 0.930 . S
C1322 C1321 1.362 . S
C1322 C1325 1.409 . S
C1323 H1315 0.930 . S
C1323 C1324 1.355 . S
C1323 C1325 1.415 . S
C1324 C1323 1.355 . S
C1324 C1326 1.419 . S
C1325 C1320 1.425 . S
C1325 C1322 1.409 . S
C1325 C1323 1.415 . S
C1326 H1316 0.930 . S
C1326 C1324 1.419 . S
C1326 C1327 1.362 . S
C1327 H1317 0.930 . S
C1327 C1320 1.409 . S
C1327 C1326 1.362 . S
H1328 C1334 0.930 . S
H1329 C1337 0.930 . S
H1330 C1338 0.930 . S
H1331 C1339 0.930 . S
H1332 C1342 0.930 . S
H1333 C1343 0.930 . S
C1334 H1328 0.930 . S
C1334 C1335 1.355 . S
C1334 C1336 1.415 . S
C1335 C1334 1.355 . S
C1335 C1337 1.419 . S
C1336 C1334 1.415 . S
C1336 C1341 1.425 . S
C1336 C1343 1.409 . S
C1337 H1329 0.930 . S
C1337 C1335 1.419 . S
C1337 C1338 1.362 . S
C1338 H1330 0.930 . S
C1338 C1337 1.362 . S
C1338 C1341 1.409 . S
C1339 H1331 0.930 . S
C1339 C1340 1.355 . S
C1339 C1341 1.415 . S
C1340 C1339 1.355 . S
C1340 C1342 1.419 . S
C1341 C1336 1.425 . S
C1341 C1338 1.409 . S
C1341 C1339 1.415 . S
C1342 H1332 0.930 . S
C1342 C1340 1.419 . S
C1342 C1343 1.362 . S
C1343 H1333 0.930 . S
C1343 C1336 1.409 . S
C1343 C1342 1.362 . S
H1344 C1350 0.930 . S
H1345 C1353 0.930 . S
H1346 C1354 0.930 . S
H1347 C1355 0.930 . S
H1348 C1358 0.930 . S
H1349 C1359 0.930 . S
C1350 H1344 0.930 . S
C1350 C1351 1.355 . S
C1350 C1352 1.415 . S
C1351 C1350 1.355 . S
C1351 C1353 1.419 . S
C1352 C1350 1.415 . S
C1352 C1357 1.425 . S
C1352 C1359 1.409 . S
C1353 H1345 0.930 . S
C1353 C1351 1.419 . S
C1353 C1354 1.362 . S
C1354 H1346 0.930 . S
C1354 C1353 1.362 . S
C1354 C1357 1.409 . S
C1355 H1347 0.930 . S
C1355 C1356 1.355 . S
C1355 C1357 1.415 . S
C1356 C1355 1.355 . S
C1356 C1358 1.419 . S
C1357 C1352 1.425 . S
C1357 C1354 1.409 . S
C1357 C1355 1.415 . S
C1358 H1348 0.930 . S
C1358 C1356 1.419 . S
C1358 C1359 1.362 . S
C1359 H1349 0.930 . S
C1359 C1352 1.409 . S
C1359 C1358 1.362 . S
H1360 C1366 0.930 . S
H1361 C1369 0.930 . S
H1362 C1370 0.930 . S
H1363 C1371 0.930 . S
H1364 C1374 0.930 . S
H1365 C1375 0.930 . S
C1366 H1360 0.930 . S
C1366 C1367 1.355 . S
C1366 C1368 1.415 . S
C1367 C1366 1.355 . S
C1367 C1369 1.419 . S
C1368 C1366 1.415 . S
C1368 C1373 1.425 . S
C1368 C1375 1.409 . S
C1369 H1361 0.930 . S
C1369 C1367 1.419 . S
C1369 C1370 1.362 . S
C1370 H1362 0.930 . S
C1370 C1369 1.362 . S
C1370 C1373 1.409 . S
C1371 H1363 0.930 . S
C1371 C1372 1.355 . S
C1371 C1373 1.415 . S
C1372 C1371 1.355 . S
C1372 C1374 1.419 . S
C1373 C1368 1.425 . S
C1373 C1370 1.409 . S
C1373 C1371 1.415 . S
C1374 H1364 0.930 . S
C1374 C1372 1.419 . S
C1374 C1375 1.362 . S
C1375 H1365 0.930 . S
C1375 C1368 1.409 . S
C1375 C1374 1.362 . S
H1376 C1382 0.930 . S
H1377 C1385 0.930 . S
H1378 C1386 0.930 . S
H1379 C1387 0.930 . S
H1380 C1390 0.930 . S
H1381 C1391 0.930 . S
C1382 H1376 0.930 . S
C1382 C1383 1.355 . S
C1382 C1384 1.415 . S
C1383 C1382 1.355 . S
C1383 C1385 1.419 . S
C1384 C1382 1.415 . S
C1384 C1389 1.425 . S
C1384 C1391 1.409 . S
C1385 H1377 0.930 . S
C1385 C1383 1.419 . S
C1385 C1386 1.362 . S
C1386 H1378 0.930 . S
C1386 C1385 1.362 . S
C1386 C1389 1.409 . S
C1387 H1379 0.930 . S
C1387 C1388 1.355 . S
C1387 C1389 1.415 . S
C1388 C1387 1.355 . S
C1388 C1390 1.419 . S
C1389 C1384 1.425 . S
C1389 C1386 1.409 . S
C1389 C1387 1.415 . S
C1390 H1380 0.930 . S
C1390 C1388 1.419 . S
C1390 C1391 1.362 . S
C1391 H1381 0.930 . S
C1391 C1384 1.409 . S
C1391 C1390 1.362 . S
H1392 C1398 0.930 . S
H1393 C1401 0.930 . S
H1394 C1402 0.930 . S
H1395 C1403 0.930 . S
H1396 C1406 0.930 . S
H1397 C1407 0.930 . S
C1398 H1392 0.930 . S
C1398 C1399 1.355 . S
C1398 C1400 1.415 . S
C1399 C1398 1.355 . S
C1399 C1401 1.419 . S
C1400 C1398 1.415 . S
C1400 C1405 1.425 . S
C1400 C1407 1.409 . S
C1401 H1393 0.930 . S
C1401 C1399 1.419 . S
C1401 C1402 1.362 . S
C1402 H1394 0.930 . S
C1402 C1401 1.362 . S
C1402 C1405 1.409 . S
C1403 H1395 0.930 . S
C1403 C1404 1.355 . S
C1403 C1405 1.415 . S
C1404 C1403 1.355 . S
C1404 C1406 1.419 . S
C1405 C1400 1.425 . S
C1405 C1402 1.409 . S
C1405 C1403 1.415 . S
C1406 H1396 0.930 . S
C1406 C1404 1.419 . S
C1406 C1407 1.362 . S
C1407 H1397 0.930 . S
C1407 C1400 1.409 . S
C1407 C1406 1.362 . S
H1408 C1414 0.930 . S
H1409 C1417 0.930 . S
H1410 C1418 0.930 . S
H1411 C1419 0.930 . S
H1412 C1422 0.930 . S
H1413 C1423 0.930 . S
C1414 H1408 0.930 . S
C1414 C1415 1.355 . S
C1414 C1416 1.415 . S
C1415 C1414 1.355 . S
C1415 C1417 1.419 . S
C1416 C1414 1.415 . S
C1416 C1421 1.425 . S
C1416 C1423 1.409 . S
C1417 H1409 0.930 . S
C1417 C1415 1.419 . S
C1417 C1418 1.362 . S
C1418 H1410 0.930 . S
C1418 C1417 1.362 . S
C1418 C1421 1.409 . S
C1419 H1411 0.930 . S
C1419 C1420 1.355 . S
C1419 C1421 1.415 . S
C1420 C1419 1.355 . S
C1420 C1422 1.419 . S
C1421 C1416 1.425 . S
C1421 C1418 1.409 . S
C1421 C1419 1.415 . S
C1422 H1412 0.930 . S
C1422 C1420 1.419 . S
C1422 C1423 1.362 . S
C1423 H1413 0.930 . S
C1423 C1416 1.409 . S
C1423 C1422 1.362 . S
H1424 C1430 0.930 . S
H1425 C1433 0.930 . S
H1426 C1434 0.930 . S
H1427 C1435 0.930 . S
H1428 C1438 0.930 . S
H1429 C1439 0.930 . S
C1430 H1424 0.930 . S
C1430 C1431 1.355 . S
C1430 C1432 1.415 . S
C1431 C1430 1.355 . S
C1431 C1433 1.419 . S
C1432 C1430 1.415 . S
C1432 C1437 1.425 . S
C1432 C1439 1.409 . S
C1433 H1425 0.930 . S
C1433 C1431 1.419 . S
C1433 C1434 1.362 . S
C1434 H1426 0.930 . S
C1434 C1433 1.362 . S
C1434 C1437 1.409 . S
C1435 H1427 0.930 . S
C1435 C1436 1.355 . S
C1435 C1437 1.415 . S
C1436 C1435 1.355 . S
C1436 C1438 1.419 . S
C1437 C1432 1.425 . S
C1437 C1434 1.409 . S
C1437 C1435 1.415 . S
C1438 H1428 0.930 . S
C1438 C1436 1.419 . S
C1438 C1439 1.362 . S
C1439 H1429 0.930 . S
C1439 C1432 1.409 . S
C1439 C1438 1.362 . S
H1440 C1446 0.930 . S
H1441 C1449 0.930 . S
H1442 C1450 0.930 . S
H1443 C1451 0.930 . S
H1444 C1454 0.930 . S
H1445 C1455 0.930 . S
C1446 H1440 0.930 . S
C1446 C1447 1.355 . S
C1446 C1448 1.415 . S
C1447 C1446 1.355 . S
C1447 C1449 1.419 . S
C1448 C1446 1.415 . S
C1448 C1453 1.425 . S
C1448 C1455 1.409 . S
C1449 H1441 0.930 . S
C1449 C1447 1.419 . S
C1449 C1450 1.362 . S
C1450 H1442 0.930 . S
C1450 C1449 1.362 . S
C1450 C1453 1.409 . S
C1451 H1443 0.930 . S
C1451 C1452 1.355 . S
C1451 C1453 1.415 . S
C1452 C1451 1.355 . S
C1452 C1454 1.419 . S
C1453 C1448 1.425 . S
C1453 C1450 1.409 . S
C1453 C1451 1.415 . S
C1454 H1444 0.930 . S
C1454 C1452 1.419 . S
C1454 C1455 1.362 . S
C1455 H1445 0.930 . S
C1455 C1448 1.409 . S
C1455 C1454 1.362 . S
H1456 C1462 0.930 . S
H1457 C1465 0.930 . S
H1458 C1466 0.930 . S
H1459 C1467 0.930 . S
H1460 C1470 0.930 . S
H1461 C1471 0.930 . S
C1462 H1456 0.930 . S
C1462 C1463 1.355 . S
C1462 C1464 1.415 . S
C1463 C1462 1.355 . S
C1463 C1465 1.419 . S
C1464 C1462 1.415 . S
C1464 C1469 1.425 . S
C1464 C1471 1.409 . S
C1465 H1457 0.930 . S
C1465 C1463 1.419 . S
C1465 C1466 1.362 . S
C1466 H1458 0.930 . S
C1466 C1465 1.362 . S
C1466 C1469 1.409 . S
C1467 H1459 0.930 . S
C1467 C1468 1.355 . S
C1467 C1469 1.415 . S
C1468 C1467 1.355 . S
C1468 C1470 1.419 . S
C1469 C1464 1.425 . S
C1469 C1466 1.409 . S
C1469 C1467 1.415 . S
C1470 H1460 0.930 . S
C1470 C1468 1.419 . S
C1470 C1471 1.362 . S
C1471 H1461 0.930 . S
C1471 C1464 1.409 . S
C1471 C1470 1.362 . S
H1472 C1478 0.930 . S
H1473 C1481 0.930 . S
H1474 C1482 0.930 . S
H1475 C1483 0.930 . S
H1476 C1486 0.930 . S
H1477 C1487 0.930 . S
C1478 H1472 0.930 . S
C1478 C1479 1.355 . S
C1478 C1480 1.415 . S
C1479 C1478 1.355 . S
C1479 C1481 1.419 . S
C1480 C1478 1.415 . S
C1480 C1485 1.425 . S
C1480 C1487 1.409 . S
C1481 H1473 0.930 . S
C1481 C1479 1.419 . S
C1481 C1482 1.362 . S
C1482 H1474 0.930 . S
C1482 C1481 1.362 . S
C1482 C1485 1.409 . S
C1483 H1475 0.930 . S
C1483 C1484 1.355 . S
C1483 C1485 1.415 . S
C1484 C1483 1.355 . S
C1484 C1486 1.419 . S
C1485 C1480 1.425 . S
C1485 C1482 1.409 . S
C1485 C1483 1.415 . S
C1486 H1476 0.930 . S
C1486 C1484 1.419 . S
C1486 C1487 1.362 . S
C1487 H1477 0.930 . S
C1487 C1480 1.409 . S
C1487 C1486 1.362 . S
H1488 C1494 0.930 . S
H1489 C1497 0.930 . S
H1490 C1498 0.930 . S
H1491 C1499 0.930 . S
H1492 C1502 0.930 . S
H1493 C1503 0.930 . S
C1494 H1488 0.930 . S
C1494 C1495 1.355 . S
C1494 C1496 1.415 . S
C1495 C1494 1.355 . S
C1495 C1497 1.419 . S
C1496 C1494 1.415 . S
C1496 C1501 1.425 . S
C1496 C1503 1.409 . S
C1497 H1489 0.930 . S
C1497 C1495 1.419 . S
C1497 C1498 1.362 . S
C1498 H1490 0.930 . S
C1498 C1497 1.362 . S
C1498 C1501 1.409 . S
C1499 H1491 0.930 . S
C1499 C1500 1.355 . S
C1499 C1501 1.415 . S
C1500 C1499 1.355 . S
C1500 C1502 1.419 . S
C1501 C1496 1.425 . S
C1501 C1498 1.409 . S
C1501 C1499 1.415 . S
C1502 H1492 0.930 . S
C1502 C1500 1.419 . S
C1502 C1503 1.362 . S
C1503 H1493 0.930 . S
C1503 C1496 1.409 . S
C1503 C1502 1.362 . S
H1504 C1510 0.930 . S
H1505 C1513 0.930 . S
H1506 C1514 0.930 . S
H1507 C1515 0.930 . S
H1508 C1518 0.930 . S
H1509 C1519 0.930 . S
C1510 H1504 0.930 . S
C1510 C1511 1.355 . S
C1510 C1512 1.415 . S
C1511 C1510 1.355 . S
C1511 C1513 1.419 . S
C1512 C1510 1.415 . S
C1512 C1517 1.425 . S
C1512 C1519 1.409 . S
C1513 H1505 0.930 . S
C1513 C1511 1.419 . S
C1513 C1514 1.362 . S
C1514 H1506 0.930 . S
C1514 C1513 1.362 . S
C1514 C1517 1.409 . S
C1515 H1507 0.930 . S
C1515 C1516 1.355 . S
C1515 C1517 1.415 . S
C1516 C1515 1.355 . S
C1516 C1518 1.419 . S
C1517 C1512 1.425 . S
C1517 C1514 1.409 . S
C1517 C1515 1.415 . S
C1518 H1508 0.930 . S
C1518 C1516 1.419 . S
C1518 C1519 1.362 . S
C1519 H1509 0.930 . S
C1519 C1512 1.409 . S
C1519 C1518 1.362 . S
H1520 C1526 0.930 . S
H1521 C1529 0.930 . S
H1522 C1530 0.930 . S
H1523 C1531 0.930 . S
H1524 C1534 0.930 . S
H1525 C1535 0.930 . S
C1526 H1520 0.930 . S
C1526 C1527 1.355 . S
C1526 C1528 1.415 . S
C1527 C1526 1.355 . S
C1527 C1529 1.419 . S
C1528 C1526 1.415 . S
C1528 C1533 1.425 . S
C1528 C1535 1.409 . S
C1529 H1521 0.930 . S
C1529 C1527 1.419 . S
C1529 C1530 1.362 . S
C1530 H1522 0.930 . S
C1530 C1529 1.362 . S
C1530 C1533 1.409 . S
C1531 H1523 0.930 . S
C1531 C1532 1.355 . S
C1531 C1533 1.415 . S
C1532 C1531 1.355 . S
C1532 C1534 1.419 . S
C1533 C1528 1.425 . S
C1533 C1530 1.409 . S
C1533 C1531 1.415 . S
C1534 H1524 0.930 . S
C1534 C1532 1.419 . S
C1534 C1535 1.362 . S
C1535 H1525 0.930 . S
C1535 C1528 1.409 . S
C1535 C1534 1.362 . S
H1536 C1542 0.930 . S
H1537 C1545 0.930 . S
H1538 C1546 0.930 . S
H1539 C1547 0.930 . S
H1540 C1550 0.930 . S
H1541 C1551 0.930 . S
C1542 H1536 0.930 . S
C1542 C1543 1.355 . S
C1542 C1544 1.415 . S
C1543 C1542 1.355 . S
C1543 C1545 1.419 . S
C1544 C1542 1.415 . S
C1544 C1549 1.425 . S
C1544 C1551 1.409 . S
C1545 H1537 0.930 . S
C1545 C1543 1.419 . S
C1545 C1546 1.362 . S
C1546 H1538 0.930 . S
C1546 C1545 1.362 . S
C1546 C1549 1.409 . S
C1547 H1539 0.930 . S
C1547 C1548 1.355 . S
C1547 C1549 1.415 . S
C1548 C1547 1.355 . S
C1548 C1550 1.419 . S
C1549 C1544 1.425 . S
C1549 C1546 1.409 . S
C1549 C1547 1.415 . S
C1550 H1540 0.930 . S
C1550 C1548 1.419 . S
C1550 C1551 1.362 . S
C1551 H1541 0.930 . S
C1551 C1544 1.409 . S
C1551 C1550 1.362 . S
H1552 C1558 0.930 . S
H1553 C1561 0.930 . S
H1554 C1562 0.930 . S
H1555 C1563 0.930 . S
H1556 C1566 0.930 . S
H1557 C1567 0.930 . S
C1558 H1552 0.930 . S
C1558 C1559 1.355 . S
C1558 C1560 1.415 . S
C1559 C1558 1.355 . S
C1559 C1561 1.419 . S
C1560 C1558 1.415 . S
C1560 C1565 1.425 . S
C1560 C1567 1.409 . S
C1561 H1553 0.930 . S
C1561 C1559 1.419 . S
C1561 C1562 1.362 . S
C1562 H1554 0.930 . S
C1562 C1561 1.362 . S
C1562 C1565 1.409 . S
C1563 H1555 0.930 . S
C1563 C1564 1.355 . S
C1563 C1565 1.415 . S
C1564 C1563 1.355 . S
C1564 C1566 1.419 . S
C1565 C1560 1.425 . S
C1565 C1562 1.409 . S
C1565 C1563 1.415 . S
C1566 H1556 0.930 . S
C1566 C1564 1.419 . S
C1566 C1567 1.362 . S
C1567 H1557 0.930 . S
C1567 C1560 1.409 . S
C1567 C1566 1.362 . S
H1568 C1574 0.930 . S
H1569 C1577 0.930 . S
H1570 C1578 0.930 . S
H1571 C1579 0.930 . S
H1572 C1582 0.930 . S
H1573 C1583 0.930 . S
C1574 H1568 0.930 . S
C1574 C1575 1.355 . S
C1574 C1576 1.415 . S
C1575 C1574 1.355 . S
C1575 C1577 1.419 . S
C1576 C1574 1.415 . S
C1576 C1581 1.425 . S
C1576 C1583 1.409 . S
C1577 H1569 0.930 . S
C1577 C1575 1.419 . S
C1577 C1578 1.362 . S
C1578 H1570 0.930 . S
C1578 C1577 1.362 . S
C1578 C1581 1.409 . S
C1579 H1571 0.930 . S
C1579 C1580 1.355 . S
C1579 C1581 1.415 . S
C1580 C1579 1.355 . S
C1580 C1582 1.419 . S
C1581 C1576 1.425 . S
C1581 C1578 1.409 . S
C1581 C1579 1.415 . S
C1582 H1572 0.930 . S
C1582 C1580 1.419 . S
C1582 C1583 1.362 . S
C1583 H1573 0.930 . S
C1583 C1576 1.409 . S
C1583 C1582 1.362 . S
H1584 C1590 0.930 . S
H1585 C1593 0.930 . S
H1586 C1594 0.930 . S
H1587 C1595 0.930 . S
H1588 C1598 0.930 . S
H1589 C1599 0.930 . S
C1590 H1584 0.930 . S
C1590 C1591 1.355 . S
C1590 C1592 1.414 1_565 S
C1591 C1590 1.355 . S
C1591 C1593 1.419 . S
C1592 C1590 1.414 1_545 S
C1592 C1597 1.425 1_545 S
C1592 C1599 1.410 . S
C1593 H1585 0.930 . S
C1593 C1591 1.419 . S
C1593 C1594 1.362 . S
C1594 H1586 0.930 . S
C1594 C1593 1.362 . S
C1594 C1597 1.410 . S
C1595 H1587 0.930 . S
C1595 C1596 1.355 . S
C1595 C1597 1.414 1_545 S
C1596 C1595 1.355 . S
C1596 C1598 1.419 . S
C1597 C1592 1.425 1_565 S
C1597 C1594 1.410 . S
C1597 C1595 1.414 1_565 S
C1598 H1588 0.930 . S
C1598 C1596 1.419 . S
C1598 C1599 1.362 . S
C1599 H1589 0.930 . S
C1599 C1592 1.410 . S
C1599 C1598 1.362 . S
H1600 C1606 0.930 . S
H1601 C1609 0.930 . S
H1602 C1610 0.930 . S
H1603 C1611 0.930 . S
H1604 C1614 0.930 . S
H1605 C1615 0.930 . S
C1606 H1600 0.930 . S
C1606 C1607 1.355 . S
C1606 C1608 1.415 . S
C1607 C1606 1.355 . S
C1607 C1609 1.419 . S
C1608 C1606 1.415 . S
C1608 C1613 1.425 . S
C1608 C1615 1.409 . S
C1609 H1601 0.930 . S
C1609 C1607 1.419 . S
C1609 C1610 1.362 . S
C1610 H1602 0.930 . S
C1610 C1609 1.362 . S
C1610 C1613 1.409 . S
C1611 H1603 0.930 . S
C1611 C1612 1.355 . S
C1611 C1613 1.415 . S
C1612 C1611 1.355 . S
C1612 C1614 1.419 . S
C1613 C1608 1.425 . S
C1613 C1610 1.409 . S
C1613 C1611 1.415 . S
C1614 H1604 0.930 . S
C1614 C1612 1.419 . S
C1614 C1615 1.362 . S
C1615 H1605 0.930 . S
C1615 C1608 1.409 . S
C1615 C1614 1.362 . S
H1616 C1622 0.930 . S
H1617 C1625 0.930 . S
H1618 C1626 0.930 . S
H1619 C1627 0.930 . S
H1620 C1630 0.930 . S
H1621 C1631 0.930 . S
C1622 H1616 0.930 . S
C1622 C1623 1.355 1_565 S
C1622 C1624 1.415 . S
C1623 C1622 1.355 1_545 S
C1623 C1625 1.419 . S
C1624 C1622 1.415 . S
C1624 C1629 1.425 1_566 S
C1624 C1631 1.409 1_556 S
C1625 H1617 0.930 . S
C1625 C1623 1.419 . S
C1625 C1626 1.362 . S
C1626 H1618 0.930 . S
C1626 C1625 1.362 . S
C1626 C1629 1.409 1_556 S
C1627 H1619 0.930 . S
C1627 C1628 1.355 1_545 S
C1627 C1629 1.415 . S
C1628 C1627 1.355 1_565 S
C1628 C1630 1.419 . S
C1629 C1624 1.425 1_544 S
C1629 C1626 1.409 1_554 S
C1629 C1627 1.415 . S
C1630 H1620 0.930 . S
C1630 C1628 1.419 . S
C1630 C1631 1.362 . S
C1631 H1621 0.930 . S
C1631 C1624 1.409 1_554 S
C1631 C1630 1.362 . S
H1632 C1638 0.930 . S
H1633 C1641 0.930 . S
H1634 C1642 0.930 . S
H1635 C1643 0.930 . S
H1636 C1646 0.930 . S
H1637 C1647 0.930 . S
C1638 H1632 0.930 . S
C1638 C1639 1.355 . S
C1638 C1640 1.415 . S
C1639 C1638 1.355 . S
C1639 C1641 1.419 . S
C1640 C1638 1.415 . S
C1640 C1645 1.425 . S
C1640 C1647 1.409 . S
C1641 H1633 0.930 . S
C1641 C1639 1.419 . S
C1641 C1642 1.362 . S
C1642 H1634 0.930 . S
C1642 C1641 1.362 . S
C1642 C1645 1.409 . S
C1643 H1635 0.930 . S
C1643 C1644 1.355 . S
C1643 C1645 1.415 . S
C1644 C1643 1.355 . S
C1644 C1646 1.419 . S
C1645 C1640 1.425 . S
C1645 C1642 1.409 . S
C1645 C1643 1.415 . S
C1646 H1636 0.930 . S
C1646 C1644 1.419 . S
C1646 C1647 1.362 . S
C1647 H1637 0.930 . S
C1647 C1640 1.409 . S
C1647 C1646 1.362 . S
H1648 C1654 0.930 . S
H1649 C1657 0.930 . S
H1650 C1658 0.930 . S
H1651 C1659 0.930 . S
H1652 C1662 0.930 . S
H1653 C1663 0.930 . S
C1654 H1648 0.930 . S
C1654 C1655 1.355 1_545 S
C1654 C1656 1.415 . S
C1655 C1654 1.355 1_565 S
C1655 C1657 1.419 . S
C1656 C1654 1.415 . S
C1656 C1661 1.425 1_545 S
C1656 C1663 1.409 . S
C1657 H1649 0.930 . S
C1657 C1655 1.419 . S
C1657 C1658 1.362 . S
C1658 H1650 0.930 . S
C1658 C1657 1.362 . S
C1658 C1661 1.409 . S
C1659 H1651 0.930 . S
C1659 C1660 1.355 1_565 S
C1659 C1661 1.415 . S
C1660 C1659 1.355 1_545 S
C1660 C1662 1.419 . S
C1661 C1656 1.425 1_565 S
C1661 C1658 1.409 . S
C1661 C1659 1.415 . S
C1662 H1652 0.930 . S
C1662 C1660 1.419 . S
C1662 C1663 1.362 . S
C1663 H1653 0.930 . S
C1663 C1656 1.409 . S
C1663 C1662 1.362 . S
H1664 C1670 0.930 . S
H1665 C1673 0.930 . S
H1666 C1674 0.930 . S
H1667 C1675 0.930 . S
H1668 C1678 0.930 . S
H1669 C1679 0.930 . S
C1670 H1664 0.930 . S
C1670 C1671 1.355 . S
C1670 C1672 1.415 . S
C1671 C1670 1.355 . S
C1671 C1673 1.419 . S
C1672 C1670 1.415 . S
C1672 C1677 1.425 . S
C1672 C1679 1.409 . S
C1673 H1665 0.930 . S
C1673 C1671 1.419 . S
C1673 C1674 1.362 . S
C1674 H1666 0.930 . S
C1674 C1673 1.362 . S
C1674 C1677 1.409 . S
C1675 H1667 0.930 . S
C1675 C1676 1.355 . S
C1675 C1677 1.415 . S
C1676 C1675 1.355 . S
C1676 C1678 1.419 . S
C1677 C1672 1.425 . S
C1677 C1674 1.409 . S
C1677 C1675 1.415 . S
C1678 H1668 0.930 . S
C1678 C1676 1.419 . S
C1678 C1679 1.362 . S
C1679 H1669 0.930 . S
C1679 C1672 1.409 . S
C1679 C1678 1.362 . S
H1680 C1686 0.930 . S
H1681 C1689 0.930 . S
H1682 C1690 0.930 . S
H1683 C1691 0.930 . S
H1684 C1694 0.930 . S
H1685 C1695 0.930 . S
C1686 H1680 0.930 . S
C1686 C1687 1.355 1_565 S
C1686 C1688 1.415 . S
C1687 C1686 1.355 1_545 S
C1687 C1689 1.419 . S
C1688 C1686 1.415 . S
C1688 C1693 1.425 1_566 S
C1688 C1695 1.409 1_556 S
C1689 H1681 0.930 . S
C1689 C1687 1.419 . S
C1689 C1690 1.362 . S
C1690 H1682 0.930 . S
C1690 C1689 1.362 . S
C1690 C1693 1.409 1_556 S
C1691 H1683 0.930 . S
C1691 C1692 1.355 1_545 S
C1691 C1693 1.415 . S
C1692 C1691 1.355 1_565 S
C1692 C1694 1.419 . S
C1693 C1688 1.425 1_544 S
C1693 C1690 1.409 1_554 S
C1693 C1691 1.415 . S
C1694 H1684 0.930 . S
C1694 C1692 1.419 . S
C1694 C1695 1.362 . S
C1695 H1685 0.930 . S
C1695 C1688 1.409 1_554 S
C1695 C1694 1.362 . S
H1696 C1702 0.930 . S
H1697 C1705 0.930 . S
H1698 C1706 0.930 . S
H1699 C1707 0.930 . S
H1700 C1710 0.930 . S
H1701 C1711 0.930 . S
C1702 H1696 0.930 . S
C1702 C1703 1.355 . S
C1702 C1704 1.415 . S
C1703 C1702 1.355 . S
C1703 C1705 1.419 . S
C1704 C1702 1.415 . S
C1704 C1709 1.425 . S
C1704 C1711 1.409 . S
C1705 H1697 0.930 . S
C1705 C1703 1.419 . S
C1705 C1706 1.362 . S
C1706 H1698 0.930 . S
C1706 C1705 1.362 . S
C1706 C1709 1.409 . S
C1707 H1699 0.930 . S
C1707 C1708 1.355 . S
C1707 C1709 1.415 . S
C1708 C1707 1.355 . S
C1708 C1710 1.419 . S
C1709 C1704 1.425 . S
C1709 C1706 1.409 . S
C1709 C1707 1.415 . S
C1710 H1700 0.930 . S
C1710 C1708 1.419 . S
C1710 C1711 1.362 . S
C1711 H1701 0.930 . S
C1711 C1704 1.409 . S
C1711 C1710 1.362 . S
H1712 C1718 0.930 . S
H1713 C1721 0.930 . S
H1714 C1722 0.930 . S
H1715 C1723 0.930 . S
H1716 C1726 0.930 . S
H1717 C1727 0.930 . S
C1718 H1712 0.930 . S
C1718 C1719 1.355 . S
C1718 C1720 1.415 . S
C1719 C1718 1.355 . S
C1719 C1721 1.419 . S
C1720 C1718 1.415 . S
C1720 C1725 1.425 1_554 S
C1720 C1727 1.409 1_554 S
C1721 H1713 0.930 . S
C1721 C1719 1.419 . S
C1721 C1722 1.362 . S
C1722 H1714 0.930 . S
C1722 C1721 1.362 . S
C1722 C1725 1.409 1_554 S
C1723 H1715 0.930 . S
C1723 C1724 1.355 . S
C1723 C1725 1.415 . S
C1724 C1723 1.355 . S
C1724 C1726 1.419 . S
C1725 C1720 1.425 1_556 S
C1725 C1722 1.409 1_556 S
C1725 C1723 1.415 . S
C1726 H1716 0.930 . S
C1726 C1724 1.419 . S
C1726 C1727 1.362 . S
C1727 H1717 0.930 . S
C1727 C1720 1.409 1_556 S
C1727 C1726 1.362 . S
H1728 C1734 0.930 . S
H1729 C1737 0.930 . S
H1730 C1738 0.930 . S
H1731 C1739 0.930 . S
H1732 C1742 0.930 . S
H1733 C1743 0.930 . S
C1734 H1728 0.930 . S
C1734 C1735 1.355 . S
C1734 C1736 1.415 . S
C1735 C1734 1.355 . S
C1735 C1737 1.419 . S
C1736 C1734 1.415 . S
C1736 C1741 1.425 . S
C1736 C1743 1.409 . S
C1737 H1729 0.930 . S
C1737 C1735 1.419 . S
C1737 C1738 1.362 . S
C1738 H1730 0.930 . S
C1738 C1737 1.362 . S
C1738 C1741 1.409 . S
C1739 H1731 0.930 . S
C1739 C1740 1.355 . S
C1739 C1741 1.415 . S
C1740 C1739 1.355 . S
C1740 C1742 1.419 . S
C1741 C1736 1.425 . S
C1741 C1738 1.409 . S
C1741 C1739 1.415 . S
C1742 H1732 0.930 . S
C1742 C1740 1.419 . S
C1742 C1743 1.362 . S
C1743 H1733 0.930 . S
C1743 C1736 1.409 . S
C1743 C1742 1.362 . S
H1744 C1750 0.930 . S
H1745 C1753 0.930 . S
H1746 C1754 0.930 . S
H1747 C1755 0.930 . S
H1748 C1758 0.930 . S
H1749 C1759 0.930 . S
C1750 H1744 0.930 . S
C1750 C1751 1.355 . S
C1750 C1752 1.415 . S
C1751 C1750 1.355 . S
C1751 C1753 1.419 . S
C1752 C1750 1.415 . S
C1752 C1757 1.425 . S
C1752 C1759 1.409 . S
C1753 H1745 0.930 . S
C1753 C1751 1.419 . S
C1753 C1754 1.362 . S
C1754 H1746 0.930 . S
C1754 C1753 1.362 . S
C1754 C1757 1.409 . S
C1755 H1747 0.930 . S
C1755 C1756 1.355 . S
C1755 C1757 1.415 . S
C1756 C1755 1.355 . S
C1756 C1758 1.419 . S
C1757 C1752 1.425 . S
C1757 C1754 1.409 . S
C1757 C1755 1.415 . S
C1758 H1748 0.930 . S
C1758 C1756 1.419 . S
C1758 C1759 1.362 . S
C1759 H1749 0.930 . S
C1759 C1752 1.409 . S
C1759 C1758 1.362 . S
H1760 C1766 0.930 . S
H1761 C1769 0.930 . S
H1762 C1770 0.930 . S
H1763 C1771 0.930 . S
H1764 C1774 0.930 . S
H1765 C1775 0.930 . S
C1766 H1760 0.930 . S
C1766 C1767 1.355 . S
C1766 C1768 1.415 . S
C1767 C1766 1.355 . S
C1767 C1769 1.419 . S
C1768 C1766 1.415 . S
C1768 C1773 1.425 . S
C1768 C1775 1.409 . S
C1769 H1761 0.930 . S
C1769 C1767 1.419 . S
C1769 C1770 1.362 . S
C1770 H1762 0.930 . S
C1770 C1769 1.362 . S
C1770 C1773 1.409 . S
C1771 H1763 0.930 . S
C1771 C1772 1.355 . S
C1771 C1773 1.415 . S
C1772 C1771 1.355 . S
C1772 C1774 1.419 . S
C1773 C1768 1.425 . S
C1773 C1770 1.409 . S
C1773 C1771 1.415 . S
C1774 H1764 0.930 . S
C1774 C1772 1.419 . S
C1774 C1775 1.362 . S
C1775 H1765 0.930 . S
C1775 C1768 1.409 . S
C1775 C1774 1.362 . S
H1776 C1782 0.930 . S
H1777 C1785 0.930 . S
H1778 C1786 0.930 . S
H1779 C1787 0.930 . S
H1780 C1790 0.930 . S
H1781 C1791 0.930 . S
C1782 H1776 0.930 . S
C1782 C1783 1.355 . S
C1782 C1784 1.415 . S
C1783 C1782 1.355 . S
C1783 C1785 1.419 . S
C1784 C1782 1.415 . S
C1784 C1789 1.425 1_556 S
C1784 C1791 1.409 1_556 S
C1785 H1777 0.930 . S
C1785 C1783 1.419 . S
C1785 C1786 1.362 . S
C1786 H1778 0.930 . S
C1786 C1785 1.362 . S
C1786 C1789 1.409 1_556 S
C1787 H1779 0.930 . S
C1787 C1788 1.355 . S
C1787 C1789 1.415 . S
C1788 C1787 1.355 . S
C1788 C1790 1.419 . S
C1789 C1784 1.425 1_554 S
C1789 C1786 1.409 1_554 S
C1789 C1787 1.415 . S
C1790 H1780 0.930 . S
C1790 C1788 1.419 . S
C1790 C1791 1.362 . S
C1791 H1781 0.930 . S
C1791 C1784 1.409 1_554 S
C1791 C1790 1.362 . S
H1792 C1798 0.930 . S
H1793 C1801 0.930 . S
H1794 C1802 0.930 . S
H1795 C1803 0.930 . S
H1796 C1806 0.930 . S
H1797 C1807 0.930 . S
C1798 H1792 0.930 . S
C1798 C1799 1.355 . S
C1798 C1800 1.415 . S
C1799 C1798 1.355 . S
C1799 C1801 1.419 . S
C1800 C1798 1.415 . S
C1800 C1805 1.425 . S
C1800 C1807 1.409 . S
C1801 H1793 0.930 . S
C1801 C1799 1.419 . S
C1801 C1802 1.362 . S
C1802 H1794 0.930 . S
C1802 C1801 1.362 . S
C1802 C1805 1.409 . S
C1803 H1795 0.930 . S
C1803 C1804 1.355 . S
C1803 C1805 1.415 . S
C1804 C1803 1.355 . S
C1804 C1806 1.419 . S
C1805 C1800 1.425 . S
C1805 C1802 1.409 . S
C1805 C1803 1.415 . S
C1806 H1796 0.930 . S
C1806 C1804 1.419 . S
C1806 C1807 1.362 . S
C1807 H1797 0.930 . S
C1807 C1800 1.409 . S
C1807 C1806 1.362 . S
H1808 C1814 0.930 . S
H1809 C1817 0.930 . S
H1810 C1818 0.930 . S
H1811 C1819 0.930 . S
H1812 C1822 0.930 . S
H1813 C1823 0.930 . S
C1814 H1808 0.930 . S
C1814 C1815 1.355 . S
C1814 C1816 1.415 . S
C1815 C1814 1.355 . S
C1815 C1817 1.419 . S
C1816 C1814 1.415 . S
C1816 C1821 1.425 . S
C1816 C1823 1.409 . S
C1817 H1809 0.930 . S
C1817 C1815 1.419 . S
C1817 C1818 1.362 . S
C1818 H1810 0.930 . S
C1818 C1817 1.362 . S
C1818 C1821 1.409 . S
C1819 H1811 0.930 . S
C1819 C1820 1.355 . S
C1819 C1821 1.415 . S
C1820 C1819 1.355 . S
C1820 C1822 1.419 . S
C1821 C1816 1.425 . S
C1821 C1818 1.409 . S
C1821 C1819 1.415 . S
C1822 H1812 0.930 . S
C1822 C1820 1.419 . S
C1822 C1823 1.362 . S
C1823 H1813 0.930 . S
C1823 C1816 1.409 . S
C1823 C1822 1.362 . S
H1824 C1830 0.930 . S
H1825 C1833 0.930 . S
H1826 C1834 0.930 . S
H1827 C1835 0.930 . S
H1828 C1838 0.930 . S
H1829 C1839 0.930 . S
C1830 H1824 0.930 . S
C1830 C1831 1.355 . S
C1830 C1832 1.415 . S
C1831 C1830 1.355 . S
C1831 C1833 1.419 . S
C1832 C1830 1.415 . S
C1832 C1837 1.425 . S
C1832 C1839 1.409 . S
C1833 H1825 0.930 . S
C1833 C1831 1.419 . S
C1833 C1834 1.362 . S
C1834 H1826 0.930 . S
C1834 C1833 1.362 . S
C1834 C1837 1.409 . S
C1835 H1827 0.930 . S
C1835 C1836 1.355 . S
C1835 C1837 1.415 . S
C1836 C1835 1.355 . S
C1836 C1838 1.419 . S
C1837 C1832 1.425 . S
C1837 C1834 1.409 . S
C1837 C1835 1.415 . S
C1838 H1828 0.930 . S
C1838 C1836 1.419 . S
C1838 C1839 1.362 . S
C1839 H1829 0.930 . S
C1839 C1832 1.409 . S
C1839 C1838 1.362 . S
H1840 C1846 0.930 . S
H1841 C1849 0.930 . S
H1842 C1850 0.930 . S
H1843 C1851 0.930 . S
H1844 C1854 0.930 . S
H1845 C1855 0.930 . S
C1846 H1840 0.930 . S
C1846 C1847 1.355 . S
C1846 C1848 1.415 . S
C1847 C1846 1.355 . S
C1847 C1849 1.419 . S
C1848 C1846 1.415 . S
C1848 C1853 1.425 . S
C1848 C1855 1.409 . S
C1849 H1841 0.930 . S
C1849 C1847 1.419 . S
C1849 C1850 1.362 . S
C1850 H1842 0.930 . S
C1850 C1849 1.362 . S
C1850 C1853 1.409 . S
C1851 H1843 0.930 . S
C1851 C1852 1.355 . S
C1851 C1853 1.415 . S
C1852 C1851 1.355 . S
C1852 C1854 1.419 . S
C1853 C1848 1.425 . S
C1853 C1850 1.409 . S
C1853 C1851 1.415 . S
C1854 H1844 0.930 . S
C1854 C1852 1.419 . S
C1854 C1855 1.362 . S
C1855 H1845 0.930 . S
C1855 C1848 1.409 . S
C1855 C1854 1.362 . S
H1856 C1862 0.930 . S
H1857 C1865 0.930 . S
H1858 C1866 0.930 . S
H1859 C1867 0.930 . S
H1860 C1870 0.930 . S
H1861 C1871 0.930 . S
C1862 H1856 0.930 . S
C1862 C1863 1.355 . S
C1862 C1864 1.415 . S
C1863 C1862 1.355 . S
C1863 C1865 1.419 . S
C1864 C1862 1.415 . S
C1864 C1869 1.425 . S
C1864 C1871 1.409 . S
C1865 H1857 0.930 . S
C1865 C1863 1.419 . S
C1865 C1866 1.362 . S
C1866 H1858 0.930 . S
C1866 C1865 1.362 . S
C1866 C1869 1.409 . S
C1867 H1859 0.930 . S
C1867 C1868 1.355 . S
C1867 C1869 1.415 . S
C1868 C1867 1.355 . S
C1868 C1870 1.419 . S
C1869 C1864 1.425 . S
C1869 C1866 1.409 . S
C1869 C1867 1.415 . S
C1870 H1860 0.930 . S
C1870 C1868 1.419 . S
C1870 C1871 1.362 . S
C1871 H1861 0.930 . S
C1871 C1864 1.409 . S
C1871 C1870 1.362 . S
H1872 C1878 0.930 . S
H1873 C1881 0.930 . S
H1874 C1882 0.930 . S
H1875 C1883 0.930 . S
H1876 C1886 0.930 . S
H1877 C1887 0.930 . S
C1878 H1872 0.930 . S
C1878 C1879 1.355 . S
C1878 C1880 1.415 . S
C1879 C1878 1.355 . S
C1879 C1881 1.419 . S
C1880 C1878 1.415 . S
C1880 C1885 1.425 . S
C1880 C1887 1.409 . S
C1881 H1873 0.930 . S
C1881 C1879 1.419 . S
C1881 C1882 1.362 . S
C1882 H1874 0.930 . S
C1882 C1881 1.362 . S
C1882 C1885 1.409 . S
C1883 H1875 0.930 . S
C1883 C1884 1.355 . S
C1883 C1885 1.415 . S
C1884 C1883 1.355 . S
C1884 C1886 1.419 . S
C1885 C1880 1.425 . S
C1885 C1882 1.409 . S
C1885 C1883 1.415 . S
C1886 H1876 0.930 . S
C1886 C1884 1.419 . S
C1886 C1887 1.362 . S
C1887 H1877 0.930 . S
C1887 C1880 1.409 . S
C1887 C1886 1.362 . S
H1888 C1894 0.930 . S
H1889 C1897 0.930 . S
H1890 C1898 0.930 . S
H1891 C1899 0.930 . S
H1892 C1902 0.930 . S
H1893 C1903 0.930 . S
C1894 H1888 0.930 . S
C1894 C1895 1.355 . S
C1894 C1896 1.415 . S
C1895 C1894 1.355 . S
C1895 C1897 1.419 . S
C1896 C1894 1.415 . S
C1896 C1901 1.425 . S
C1896 C1903 1.409 . S
C1897 H1889 0.930 . S
C1897 C1895 1.419 . S
C1897 C1898 1.362 . S
C1898 H1890 0.930 . S
C1898 C1897 1.362 . S
C1898 C1901 1.409 . S
C1899 H1891 0.930 . S
C1899 C1900 1.355 . S
C1899 C1901 1.415 . S
C1900 C1899 1.355 . S
C1900 C1902 1.419 . S
C1901 C1896 1.425 . S
C1901 C1898 1.409 . S
C1901 C1899 1.415 . S
C1902 H1892 0.930 . S
C1902 C1900 1.419 . S
C1902 C1903 1.362 . S
C1903 H1893 0.930 . S
C1903 C1896 1.409 . S
C1903 C1902 1.362 . S
H1904 C1910 0.930 . S
H1905 C1913 0.930 . S
H1906 C1914 0.930 . S
H1907 C1915 0.930 . S
H1908 C1918 0.930 . S
H1909 C1919 0.930 . S
C1910 H1904 0.930 . S
C1910 C1911 1.355 . S
C1910 C1912 1.415 . S
C1911 C1910 1.355 . S
C1911 C1913 1.419 . S
C1912 C1910 1.415 . S
C1912 C1917 1.425 . S
C1912 C1919 1.409 . S
C1913 H1905 0.930 . S
C1913 C1911 1.419 . S
C1913 C1914 1.362 . S
C1914 H1906 0.930 . S
C1914 C1913 1.362 . S
C1914 C1917 1.409 . S
C1915 H1907 0.930 . S
C1915 C1916 1.355 . S
C1915 C1917 1.415 . S
C1916 C1915 1.355 . S
C1916 C1918 1.419 . S
C1917 C1912 1.425 . S
C1917 C1914 1.409 . S
C1917 C1915 1.415 . S
C1918 H1908 0.930 . S
C1918 C1916 1.419 . S
C1918 C1919 1.362 . S
C1919 H1909 0.930 . S
C1919 C1912 1.409 . S
C1919 C1918 1.362 . S
H1920 C1926 0.930 . S
H1921 C1929 0.930 . S
H1922 C1930 0.930 . S
H1923 C1931 0.930 . S
H1924 C1934 0.930 . S
H1925 C1935 0.930 . S
C1926 H1920 0.930 . S
C1926 C1927 1.355 . S
C1926 C1928 1.415 . S
C1927 C1926 1.355 . S
C1927 C1929 1.419 . S
C1928 C1926 1.415 . S
C1928 C1933 1.425 . S
C1928 C1935 1.409 . S
C1929 H1921 0.930 . S
C1929 C1927 1.419 . S
C1929 C1930 1.362 . S
C1930 H1922 0.930 . S
C1930 C1929 1.362 . S
C1930 C1933 1.409 . S
C1931 H1923 0.930 . S
C1931 C1932 1.355 . S
C1931 C1933 1.415 . S
C1932 C1931 1.355 . S
C1932 C1934 1.419 . S
C1933 C1928 1.425 . S
C1933 C1930 1.409 . S
C1933 C1931 1.415 . S
C1934 H1924 0.930 . S
C1934 C1932 1.419 . S
C1934 C1935 1.362 . S
C1935 H1925 0.930 . S
C1935 C1928 1.409 . S
C1935 C1934 1.362 . S
H1936 C1942 0.930 . S
H1937 C1945 0.930 . S
H1938 C1946 0.930 . S
H1939 C1947 0.930 . S
H1940 C1950 0.930 . S
H1941 C1951 0.930 . S
C1942 H1936 0.930 . S
C1942 C1943 1.355 . S
C1942 C1944 1.415 . S
C1943 C1942 1.355 . S
C1943 C1945 1.419 . S
C1944 C1942 1.415 . S
C1944 C1949 1.425 . S
C1944 C1951 1.409 . S
C1945 H1937 0.930 . S
C1945 C1943 1.419 . S
C1945 C1946 1.362 . S
C1946 H1938 0.930 . S
C1946 C1945 1.362 . S
C1946 C1949 1.409 . S
C1947 H1939 0.930 . S
C1947 C1948 1.355 . S
C1947 C1949 1.415 . S
C1948 C1947 1.355 . S
C1948 C1950 1.419 . S
C1949 C1944 1.425 . S
C1949 C1946 1.409 . S
C1949 C1947 1.415 . S
C1950 H1940 0.930 . S
C1950 C1948 1.419 . S
C1950 C1951 1.362 . S
C1951 H1941 0.930 . S
C1951 C1944 1.409 . S
C1951 C1950 1.362 . S
H1952 C1958 0.930 . S
H1953 C1961 0.930 . S
H1954 C1962 0.930 . S
H1955 C1963 0.930 . S
H1956 C1966 0.930 . S
H1957 C1967 0.930 . S
C1958 H1952 0.930 . S
C1958 C1959 1.355 . S
C1958 C1960 1.415 . S
C1959 C1958 1.355 . S
C1959 C1961 1.419 . S
C1960 C1958 1.415 . S
C1960 C1965 1.425 . S
C1960 C1967 1.409 . S
C1961 H1953 0.930 . S
C1961 C1959 1.419 . S
C1961 C1962 1.362 . S
C1962 H1954 0.930 . S
C1962 C1961 1.362 . S
C1962 C1965 1.409 . S
C1963 H1955 0.930 . S
C1963 C1964 1.355 . S
C1963 C1965 1.415 . S
C1964 C1963 1.355 . S
C1964 C1966 1.419 . S
C1965 C1960 1.425 . S
C1965 C1962 1.409 . S
C1965 C1963 1.415 . S
C1966 H1956 0.930 . S
C1966 C1964 1.419 . S
C1966 C1967 1.362 . S
C1967 H1957 0.930 . S
C1967 C1960 1.409 . S
C1967 C1966 1.362 . S
H1968 C1974 0.930 . S
H1969 C1977 0.930 . S
H1970 C1978 0.930 . S
H1971 C1979 0.930 . S
H1972 C1982 0.930 . S
H1973 C1983 0.930 . S
C1974 H1968 0.930 . S
C1974 C1975 1.355 . S
C1974 C1976 1.415 . S
C1975 C1974 1.355 . S
C1975 C1977 1.419 . S
C1976 C1974 1.415 . S
C1976 C1981 1.425 . S
C1976 C1983 1.409 . S
C1977 H1969 0.930 . S
C1977 C1975 1.419 . S
C1977 C1978 1.362 . S
C1978 H1970 0.930 . S
C1978 C1977 1.362 . S
C1978 C1981 1.409 . S
C1979 H1971 0.930 . S
C1979 C1980 1.355 . S
C1979 C1981 1.415 . S
C1980 C1979 1.355 . S
C1980 C1982 1.419 . S
C1981 C1976 1.425 . S
C1981 C1978 1.409 . S
C1981 C1979 1.415 . S
C1982 H1972 0.930 . S
C1982 C1980 1.419 . S
C1982 C1983 1.362 . S
C1983 H1973 0.930 . S
C1983 C1976 1.409 . S
C1983 C1982 1.362 . S
H1984 C1990 0.930 . S
H1985 C1993 0.930 . S
H1986 C1994 0.930 . S
H1987 C1995 0.930 . S
H1988 C1998 0.930 . S
H1989 C1999 0.930 . S
C1990 H1984 0.930 . S
C1990 C1991 1.355 . S
C1990 C1992 1.415 . S
C1991 C1990 1.355 . S
C1991 C1993 1.419 . S
C1992 C1990 1.415 . S
C1992 C1997 1.425 . S
C1992 C1999 1.409 . S
C1993 H1985 0.930 . S
C1993 C1991 1.419 . S
C1993 C1994 1.362 . S
C1994 H1986 0.930 . S
C1994 C1993 1.362 . S
C1994 C1997 1.409 . S
C1995 H1987 0.930 . S
C1995 C1996 1.355 . S
C1995 C1997 1.415 . S
C1996 C1995 1.355 . S
C1996 C1998 1.419 . S
C1997 C1992 1.425 . S
C1997 C1994 1.409 . S
C1997 C1995 1.415 . S
C1998 H1988 0.930 . S
C1998 C1996 1.419 . S
C1998 C1999 1.362 . S
C1999 H1989 0.930 . S
C1999 C1992 1.409 . S
C1999 C1998 1.362 . S
H2000 C2006 0.930 . S
H2001 C2009 0.930 . S
H2002 C2010 0.930 . S
H2003 C2011 0.930 . S
H2004 C2014 0.930 . S
H2005 C2015 0.930 . S
C2006 H2000 0.930 . S
C2006 C2007 1.355 . S
C2006 C2008 1.415 . S
C2007 C2006 1.355 . S
C2007 C2009 1.419 . S
C2008 C2006 1.415 . S
C2008 C2013 1.425 . S
C2008 C2015 1.409 . S
C2009 H2001 0.930 . S
C2009 C2007 1.419 . S
C2009 C2010 1.362 . S
C2010 H2002 0.930 . S
C2010 C2009 1.362 . S
C2010 C2013 1.409 . S
C2011 H2003 0.930 . S
C2011 C2012 1.355 . S
C2011 C2013 1.415 . S
C2012 C2011 1.355 . S
C2012 C2014 1.419 . S
C2013 C2008 1.425 . S
C2013 C2010 1.409 . S
C2013 C2011 1.415 . S
C2014 H2004 0.930 . S
C2014 C2012 1.419 . S
C2014 C2015 1.362 . S
C2015 H2005 0.930 . S
C2015 C2008 1.409 . S
C2015 C2014 1.362 . S
H2016 C2022 0.930 . S
H2017 C2025 0.930 . S
H2018 C2026 0.930 . S
H2019 C2027 0.930 . S
H2020 C2030 0.930 . S
H2021 C2031 0.930 . S
C2022 H2016 0.930 . S
C2022 C2023 1.355 . S
C2022 C2024 1.415 . S
C2023 C2022 1.355 . S
C2023 C2025 1.419 . S
C2024 C2022 1.415 . S
C2024 C2029 1.425 . S
C2024 C2031 1.409 . S
C2025 H2017 0.930 . S
C2025 C2023 1.419 . S
C2025 C2026 1.362 . S
C2026 H2018 0.930 . S
C2026 C2025 1.362 . S
C2026 C2029 1.409 . S
C2027 H2019 0.930 . S
C2027 C2028 1.355 . S
C2027 C2029 1.415 . S
C2028 C2027 1.355 . S
C2028 C2030 1.419 . S
C2029 C2024 1.425 . S
C2029 C2026 1.409 . S
C2029 C2027 1.415 . S
C2030 H2020 0.930 . S
C2030 C2028 1.419 . S
C2030 C2031 1.362 . S
C2031 H2021 0.930 . S
C2031 C2024 1.409 . S
C2031 C2030 1.362 . S
H2032 C2038 0.930 . S
H2033 C2041 0.930 . S
H2034 C2042 0.930 . S
H2035 C2043 0.930 . S
H2036 C2046 0.930 . S
H2037 C2047 0.930 . S
C2038 H2032 0.930 . S
C2038 C2039 1.355 . S
C2038 C2040 1.415 . S
C2039 C2038 1.355 . S
C2039 C2041 1.419 . S
C2040 C2038 1.415 . S
C2040 C2045 1.425 . S
C2040 C2047 1.409 . S
C2041 H2033 0.930 . S
C2041 C2039 1.419 . S
C2041 C2042 1.362 . S
C2042 H2034 0.930 . S
C2042 C2041 1.362 . S
C2042 C2045 1.409 . S
C2043 H2035 0.930 . S
C2043 C2044 1.355 . S
C2043 C2045 1.415 . S
C2044 C2043 1.355 . S
C2044 C2046 1.419 . S
C2045 C2040 1.425 . S
C2045 C2042 1.409 . S
C2045 C2043 1.415 . S
C2046 H2036 0.930 . S
C2046 C2044 1.419 . S
C2046 C2047 1.362 . S
C2047 H2037 0.930 . S
C2047 C2040 1.409 . S
C2047 C2046 1.362 . S
H2048 C2054 0.930 . S
H2049 C2057 0.930 . S
H2050 C2058 0.930 . S
H2051 C2059 0.930 . S
H2052 C2062 0.930 . S
H2053 C2063 0.930 . S
C2054 H2048 0.930 . S
C2054 C2055 1.355 . S
C2054 C2056 1.415 . S
C2055 C2054 1.355 . S
C2055 C2057 1.419 . S
C2056 C2054 1.415 . S
C2056 C2061 1.425 . S
C2056 C2063 1.409 . S
C2057 H2049 0.930 . S
C2057 C2055 1.419 . S
C2057 C2058 1.362 . S
C2058 H2050 0.930 . S
C2058 C2057 1.362 . S
C2058 C2061 1.409 . S
C2059 H2051 0.930 . S
C2059 C2060 1.355 . S
C2059 C2061 1.415 . S
C2060 C2059 1.355 . S
C2060 C2062 1.419 . S
C2061 C2056 1.425 . S
C2061 C2058 1.409 . S
C2061 C2059 1.415 . S
C2062 H2052 0.930 . S
C2062 C2060 1.419 . S
C2062 C2063 1.362 . S
C2063 H2053 0.930 . S
C2063 C2056 1.409 . S
C2063 C2062 1.362 . S
H2064 C2070 0.930 . S
H2065 C2073 0.930 . S
H2066 C2074 0.930 . S
H2067 C2075 0.930 . S
H2068 C2078 0.930 . S
H2069 C2079 0.930 . S
C2070 H2064 0.930 . S
C2070 C2071 1.355 . S
C2070 C2072 1.415 . S
C2071 C2070 1.355 . S
C2071 C2073 1.419 . S
C2072 C2070 1.415 . S
C2072 C2077 1.425 . S
C2072 C2079 1.409 . S
C2073 H2065 0.930 . S
C2073 C2071 1.419 . S
C2073 C2074 1.362 . S
C2074 H2066 0.930 . S
C2074 C2073 1.362 . S
C2074 C2077 1.409 . S
C2075 H2067 0.930 . S
C2075 C2076 1.355 . S
C2075 C2077 1.415 . S
C2076 C2075 1.355 . S
C2076 C2078 1.419 . S
C2077 C2072 1.425 . S
C2077 C2074 1.409 . S
C2077 C2075 1.415 . S
C2078 H2068 0.930 . S
C2078 C2076 1.419 . S
C2078 C2079 1.362 . S
C2079 H2069 0.930 . S
C2079 C2072 1.409 . S
C2079 C2078 1.362 . S
H2080 C2086 0.930 . S
H2081 C2089 0.930 . S
H2082 C2090 0.930 . S
H2083 C2091 0.930 . S
H2084 C2094 0.941 . S
H2085 C2095 0.930 1_556 S
C2086 H2080 0.930 . S
C2086 C2087 1.355 . S
C2086 C2088 1.415 . S
C2087 C2086 1.355 . S
C2087 C2089 1.419 . S
C2088 C2086 1.415 . S
C2088 C2093 1.425 . S
C2088 C2095 1.409 . S
C2089 H2081 0.930 . S
C2089 C2087 1.419 . S
C2089 C2090 1.362 . S
C2090 H2082 0.930 . S
C2090 C2089 1.362 . S
C2090 C2093 1.409 . S
C2091 H2083 0.930 . S
C2091 C2092 1.355 . S
C2091 C2093 1.415 . S
C2092 C2091 1.355 . S
C2092 C2094 1.419 . S
C2093 C2088 1.425 . S
C2093 C2090 1.409 . S
C2093 C2091 1.415 . S
C2094 H2084 0.941 . S
C2094 C2092 1.419 . S
C2094 C2095 1.362 . S
C2095 H2085 0.930 1_554 S
C2095 C2088 1.409 . S
C2095 C2094 1.362 . S
H2096 C2102 0.930 . S
H2097 C2105 0.930 . S
H2098 C2106 0.930 . S
H2099 C2107 0.930 . S
H2100 C2110 0.930 . S
H2101 C2111 0.930 . S
C2102 H2096 0.930 . S
C2102 C2103 1.355 . S
C2102 C2104 1.415 . S
C2103 C2102 1.355 . S
C2103 C2105 1.419 . S
C2104 C2102 1.415 . S
C2104 C2109 1.425 1_655 S
C2104 C2111 1.409 1_655 S
C2105 H2097 0.930 . S
C2105 C2103 1.419 . S
C2105 C2106 1.362 . S
C2106 H2098 0.930 . S
C2106 C2105 1.362 . S
C2106 C2109 1.409 1_655 S
C2107 H2099 0.930 . S
C2107 C2108 1.355 . S
C2107 C2109 1.415 . S
C2108 C2107 1.355 . S
C2108 C2110 1.419 . S
C2109 C2104 1.425 1_455 S
C2109 C2106 1.409 1_455 S
C2109 C2107 1.415 . S
C2110 H2100 0.930 . S
C2110 C2108 1.419 . S
C2110 C2111 1.362 . S
C2111 H2101 0.930 . S
C2111 C2104 1.409 1_455 S
C2111 C2110 1.362 . S
H2112 C2118 0.930 . S
H2113 C2121 0.930 . S
H2114 C2122 0.930 . S
H2115 C2123 0.930 . S
H2116 C2126 0.930 . S
H2117 C2127 0.930 . S
C2118 H2112 0.930 . S
C2118 C2119 1.355 . S
C2118 C2120 1.415 . S
C2119 C2118 1.355 . S
C2119 C2121 1.419 . S
C2120 C2118 1.415 . S
C2120 C2125 1.425 . S
C2120 C2127 1.409 . S
C2121 H2113 0.930 . S
C2121 C2119 1.419 . S
C2121 C2122 1.362 . S
C2122 H2114 0.930 . S
C2122 C2121 1.362 . S
C2122 C2125 1.409 . S
C2123 H2115 0.930 . S
C2123 C2124 1.355 . S
C2123 C2125 1.415 . S
C2124 C2123 1.355 . S
C2124 C2126 1.419 . S
C2125 C2120 1.425 . S
C2125 C2122 1.409 . S
C2125 C2123 1.415 . S
C2126 H2116 0.930 . S
C2126 C2124 1.419 . S
C2126 C2127 1.362 . S
C2127 H2117 0.930 . S
C2127 C2120 1.409 . S
C2127 C2126 1.362 . S
H2128 C2134 0.930 . S
H2129 C2137 0.930 . S
H2130 C2138 0.930 . S
H2131 C2139 0.930 . S
H2132 C2142 0.930 . S
H2133 C2143 0.930 . S
C2134 H2128 0.930 . S
C2134 C2135 1.355 . S
C2134 C2136 1.415 . S
C2135 C2134 1.355 . S
C2135 C2137 1.419 . S
C2136 C2134 1.415 . S
C2136 C2141 1.425 . S
C2136 C2143 1.409 . S
C2137 H2129 0.930 . S
C2137 C2135 1.419 . S
C2137 C2138 1.362 . S
C2138 H2130 0.930 . S
C2138 C2137 1.362 . S
C2138 C2141 1.409 . S
C2139 H2131 0.930 . S
C2139 C2140 1.355 . S
C2139 C2141 1.415 . S
C2140 C2139 1.355 . S
C2140 C2142 1.419 . S
C2141 C2136 1.425 . S
C2141 C2138 1.409 . S
C2141 C2139 1.415 . S
C2142 H2132 0.930 . S
C2142 C2140 1.419 . S
C2142 C2143 1.362 . S
C2143 H2133 0.930 . S
C2143 C2136 1.409 . S
C2143 C2142 1.362 . S
H2144 C2150 0.930 . S
H2145 C2153 0.930 . S
H2146 C2154 0.930 1_554 S
H2147 C2155 0.930 . S
H2148 C2158 0.930 . S
H2149 C2159 0.930 . S
C2150 H2144 0.930 . S
C2150 C2151 1.355 . S
C2150 C2152 1.415 . S
C2151 C2150 1.355 . S
C2151 C2153 1.419 . S
C2152 C2150 1.415 . S
C2152 C2157 1.425 . S
C2152 C2159 1.409 . S
C2153 H2145 0.930 . S
C2153 C2151 1.419 . S
C2153 C2154 1.362 . S
C2154 H2146 0.930 1_556 S
C2154 C2153 1.362 . S
C2154 C2157 1.409 . S
C2155 H2147 0.930 . S
C2155 C2156 1.355 . S
C2155 C2157 1.415 . S
C2156 C2155 1.355 . S
C2156 C2158 1.419 . S
C2157 C2152 1.425 . S
C2157 C2154 1.409 . S
C2157 C2155 1.415 . S
C2158 H2148 0.930 . S
C2158 C2156 1.419 . S
C2158 C2159 1.362 . S
C2159 H2149 0.930 . S
C2159 C2152 1.409 . S
C2159 C2158 1.362 . S
H2160 C2166 0.930 . S
H2161 C2169 0.930 . S
H2162 C2170 0.930 . S
H2163 C2171 0.930 . S
H2164 C2174 0.930 . S
H2165 C2175 0.930 . S
C2166 H2160 0.930 . S
C2166 C2167 1.355 . S
C2166 C2168 1.415 . S
C2167 C2166 1.355 . S
C2167 C2169 1.419 . S
C2168 C2166 1.415 . S
C2168 C2173 1.425 . S
C2168 C2175 1.409 . S
C2169 H2161 0.930 . S
C2169 C2167 1.419 . S
C2169 C2170 1.362 . S
C2170 H2162 0.930 . S
C2170 C2169 1.362 . S
C2170 C2173 1.409 . S
C2171 H2163 0.930 . S
C2171 C2172 1.355 . S
C2171 C2173 1.415 . S
C2172 C2171 1.355 . S
C2172 C2174 1.419 . S
C2173 C2168 1.425 . S
C2173 C2170 1.409 . S
C2173 C2171 1.415 . S
C2174 H2164 0.930 . S
C2174 C2172 1.419 . S
C2174 C2175 1.362 . S
C2175 H2165 0.930 . S
C2175 C2168 1.409 . S
C2175 C2174 1.362 . S
H2176 C2182 0.930 . S
H2177 C2185 0.930 . S
H2178 C2186 0.930 . S
H2179 C2187 0.930 . S
H2180 C2190 0.930 . S
H2181 C2191 0.930 . S
C2182 H2176 0.930 . S
C2182 C2183 1.355 . S
C2182 C2184 1.415 . S
C2183 C2182 1.355 . S
C2183 C2185 1.419 . S
C2184 C2182 1.415 . S
C2184 C2189 1.425 . S
C2184 C2191 1.409 . S
C2185 H2177 0.930 . S
C2185 C2183 1.419 . S
C2185 C2186 1.362 . S
C2186 H2178 0.930 . S
C2186 C2185 1.362 . S
C2186 C2189 1.409 . S
C2187 H2179 0.930 . S
C2187 C2188 1.355 . S
C2187 C2189 1.415 . S
C2188 C2187 1.355 . S
C2188 C2190 1.419 . S
C2189 C2184 1.425 . S
C2189 C2186 1.409 . S
C2189 C2187 1.415 . S
C2190 H2180 0.930 . S
C2190 C2188 1.419 . S
C2190 C2191 1.362 . S
C2191 H2181 0.930 . S
C2191 C2184 1.409 . S
C2191 C2190 1.362 . S
H2192 C2198 0.930 . S
H2193 C2201 0.930 . S
H2194 C2202 0.930 . S
H2195 C2203 0.930 . S
H2196 C2206 0.930 . S
H2197 C2207 0.930 . S
C2198 H2192 0.930 . S
C2198 C2199 1.355 . S
C2198 C2200 1.415 . S
C2199 C2198 1.355 . S
C2199 C2201 1.419 . S
C2200 C2198 1.415 . S
C2200 C2205 1.425 1_455 S
C2200 C2207 1.409 1_455 S
C2201 H2193 0.930 . S
C2201 C2199 1.419 . S
C2201 C2202 1.362 . S
C2202 H2194 0.930 . S
C2202 C2201 1.362 . S
C2202 C2205 1.409 1_455 S
C2203 H2195 0.930 . S
C2203 C2204 1.355 . S
C2203 C2205 1.415 . S
C2204 C2203 1.355 . S
C2204 C2206 1.419 . S
C2205 C2200 1.425 1_655 S
C2205 C2202 1.409 1_655 S
C2205 C2203 1.415 . S
C2206 H2196 0.930 . S
C2206 C2204 1.419 . S
C2206 C2207 1.362 . S
C2207 H2197 0.930 . S
C2207 C2200 1.409 1_655 S
C2207 C2206 1.362 . S
H2208 C2214 0.930 . S
H2209 C2217 0.930 . S
H2210 C2218 0.930 . S
H2211 C2219 0.930 . S
H2212 C2222 0.930 . S
H2213 C2223 0.930 . S
C2214 H2208 0.930 . S
C2214 C2215 1.355 . S
C2214 C2216 1.415 . S
C2215 C2214 1.355 . S
C2215 C2217 1.419 . S
C2216 C2214 1.415 . S
C2216 C2221 1.425 . S
C2216 C2223 1.409 . S
C2217 H2209 0.930 . S
C2217 C2215 1.419 . S
C2217 C2218 1.362 . S
C2218 H2210 0.930 . S
C2218 C2217 1.362 . S
C2218 C2221 1.409 . S
C2219 H2211 0.930 . S
C2219 C2220 1.355 . S
C2219 C2221 1.415 . S
C2220 C2219 1.355 . S
C2220 C2222 1.419 . S
C2221 C2216 1.425 . S
C2221 C2218 1.409 . S
C2221 C2219 1.415 . S
C2222 H2212 0.930 . S
C2222 C2220 1.419 . S
C2222 C2223 1.362 . S
C2223 H2213 0.930 . S
C2223 C2216 1.409 . S
C2223 C2222 1.362 . S
H2224 C2230 0.930 . S
H2225 C2233 0.930 . S
H2226 C2234 0.930 . S
H2227 C2235 0.930 . S
H2228 C2238 0.930 . S
H2229 C2239 0.930 . S
C2230 H2224 0.930 . S
C2230 C2231 1.355 . S
C2230 C2232 1.415 . S
C2231 C2230 1.355 . S
C2231 C2233 1.419 . S
C2232 C2230 1.415 . S
C2232 C2237 1.425 . S
C2232 C2239 1.409 . S
C2233 H2225 0.930 . S
C2233 C2231 1.419 . S
C2233 C2234 1.362 . S
C2234 H2226 0.930 . S
C2234 C2233 1.362 . S
C2234 C2237 1.409 . S
C2235 H2227 0.930 . S
C2235 C2236 1.355 . S
C2235 C2237 1.415 . S
C2236 C2235 1.355 . S
C2236 C2238 1.419 . S
C2237 C2232 1.425 . S
C2237 C2234 1.409 . S
C2237 C2235 1.415 . S
C2238 H2228 0.930 . S
C2238 C2236 1.419 . S
C2238 C2239 1.362 . S
C2239 H2229 0.930 . S
C2239 C2232 1.409 . S
C2239 C2238 1.362 . S
H2240 C2246 0.930 . S
H2241 C2249 0.930 . S
H2242 C2250 0.930 . S
H2243 C2251 0.930 . S
H2244 C2254 0.930 . S
H2245 C2255 0.930 . S
C2246 H2240 0.930 . S
C2246 C2247 1.355 . S
C2246 C2248 1.415 . S
C2247 C2246 1.355 . S
C2247 C2249 1.419 . S
C2248 C2246 1.415 . S
C2248 C2253 1.425 . S
C2248 C2255 1.409 . S
C2249 H2241 0.930 . S
C2249 C2247 1.419 . S
C2249 C2250 1.362 . S
C2250 H2242 0.930 . S
C2250 C2249 1.362 . S
C2250 C2253 1.409 . S
C2251 H2243 0.930 . S
C2251 C2252 1.355 . S
C2251 C2253 1.415 . S
C2252 C2251 1.355 . S
C2252 C2254 1.419 . S
C2253 C2248 1.425 . S
C2253 C2250 1.409 . S
C2253 C2251 1.415 . S
C2254 H2244 0.930 . S
C2254 C2252 1.419 . S
C2254 C2255 1.362 . S
C2255 H2245 0.930 . S
C2255 C2248 1.409 . S
C2255 C2254 1.362 . S
H2256 C2262 0.930 . S
H2257 C2265 0.930 . S
H2258 C2266 0.930 . S
H2259 C2267 0.930 . S
H2260 C2270 0.930 . S
H2261 C2271 0.930 . S
C2262 H2256 0.930 . S
C2262 C2263 1.355 . S
C2262 C2264 1.415 . S
C2263 C2262 1.355 . S
C2263 C2265 1.419 . S
C2264 C2262 1.415 . S
C2264 C2269 1.425 . S
C2264 C2271 1.409 . S
C2265 H2257 0.930 . S
C2265 C2263 1.419 . S
C2265 C2266 1.362 . S
C2266 H2258 0.930 . S
C2266 C2265 1.362 . S
C2266 C2269 1.409 . S
C2267 H2259 0.930 . S
C2267 C2268 1.355 . S
C2267 C2269 1.415 . S
C2268 C2267 1.355 . S
C2268 C2270 1.419 . S
C2269 C2264 1.425 . S
C2269 C2266 1.409 . S
C2269 C2267 1.415 . S
C2270 H2260 0.930 . S
C2270 C2268 1.419 . S
C2270 C2271 1.362 . S
C2271 H2261 0.930 . S
C2271 C2264 1.409 . S
C2271 C2270 1.362 . S
H2272 C2278 0.930 . S
H2273 C2281 0.930 . S
H2274 C2282 0.930 . S
H2275 C2283 0.930 . S
H2276 C2286 0.930 . S
H2277 C2287 0.930 . S
C2278 H2272 0.930 . S
C2278 C2279 1.355 . S
C2278 C2280 1.415 . S
C2279 C2278 1.355 . S
C2279 C2281 1.419 . S
C2280 C2278 1.415 . S
C2280 C2285 1.425 . S
C2280 C2287 1.409 . S
C2281 H2273 0.930 . S
C2281 C2279 1.419 . S
C2281 C2282 1.362 . S
C2282 H2274 0.930 . S
C2282 C2281 1.362 . S
C2282 C2285 1.409 . S
C2283 H2275 0.930 . S
C2283 C2284 1.355 . S
C2283 C2285 1.415 . S
C2284 C2283 1.355 . S
C2284 C2286 1.419 . S
C2285 C2280 1.425 . S
C2285 C2282 1.409 . S
C2285 C2283 1.415 . S
C2286 H2276 0.930 . S
C2286 C2284 1.419 . S
C2286 C2287 1.362 . S
C2287 H2277 0.930 . S
C2287 C2280 1.409 . S
C2287 C2286 1.362 . S
H2288 C2294 0.930 . S
H2289 C2297 0.930 . S
H2290 C2298 0.930 . S
H2291 C2299 0.930 . S
H2292 C2302 0.930 . S
H2293 C2303 0.930 . S
C2294 H2288 0.930 . S
C2294 C2295 1.355 . S
C2294 C2296 1.415 . S
C2295 C2294 1.355 . S
C2295 C2297 1.419 . S
C2296 C2294 1.415 . S
C2296 C2301 1.425 1_455 S
C2296 C2303 1.409 1_455 S
C2297 H2289 0.930 . S
C2297 C2295 1.419 . S
C2297 C2298 1.362 . S
C2298 H2290 0.930 . S
C2298 C2297 1.362 . S
C2298 C2301 1.409 1_455 S
C2299 H2291 0.930 . S
C2299 C2300 1.355 . S
C2299 C2301 1.415 . S
C2300 C2299 1.355 . S
C2300 C2302 1.419 . S
C2301 C2296 1.425 1_655 S
C2301 C2298 1.409 1_655 S
C2301 C2299 1.415 . S
C2302 H2292 0.930 . S
C2302 C2300 1.419 . S
C2302 C2303 1.362 . S
C2303 H2293 0.930 . S
C2303 C2296 1.409 1_655 S
C2303 C2302 1.362 . S
H2304 C2310 0.930 . S
H2305 C2313 0.930 . S
H2306 C2314 0.930 . S
H2307 C2315 0.930 . S
H2308 C2318 0.930 . S
H2309 C2319 0.930 . S
C2310 H2304 0.930 . S
C2310 C2311 1.355 . S
C2310 C2312 1.415 . S
C2311 C2310 1.355 . S
C2311 C2313 1.419 . S
C2312 C2310 1.415 . S
C2312 C2317 1.425 1_455 S
C2312 C2319 1.409 1_455 S
C2313 H2305 0.930 . S
C2313 C2311 1.419 . S
C2313 C2314 1.362 . S
C2314 H2306 0.930 . S
C2314 C2313 1.362 . S
C2314 C2317 1.409 1_455 S
C2315 H2307 0.930 . S
C2315 C2316 1.355 . S
C2315 C2317 1.415 . S
C2316 C2315 1.355 . S
C2316 C2318 1.419 . S
C2317 C2312 1.425 1_655 S
C2317 C2314 1.409 1_655 S
C2317 C2315 1.415 . S
C2318 H2308 0.930 . S
C2318 C2316 1.419 . S
C2318 C2319 1.362 . S
C2319 H2309 0.930 . S
C2319 C2312 1.409 1_655 S
C2319 C2318 1.362 . S
H2320 C2326 0.930 . S
H2321 C2329 0.930 . S
H2322 C2330 0.930 . S
H2323 C2331 0.930 . S
H2324 C2334 0.930 . S
H2325 C2335 0.930 . S
C2326 H2320 0.930 . S
C2326 C2327 1.355 . S
C2326 C2328 1.415 . S
C2327 C2326 1.355 . S
C2327 C2329 1.419 . S
C2328 C2326 1.415 . S
C2328 C2333 1.425 . S
C2328 C2335 1.409 . S
C2329 H2321 0.930 . S
C2329 C2327 1.419 . S
C2329 C2330 1.362 . S
C2330 H2322 0.930 . S
C2330 C2329 1.362 . S
C2330 C2333 1.409 . S
C2331 H2323 0.930 . S
C2331 C2332 1.355 . S
C2331 C2333 1.415 . S
C2332 C2331 1.355 . S
C2332 C2334 1.419 . S
C2333 C2328 1.425 . S
C2333 C2330 1.409 . S
C2333 C2331 1.415 . S
C2334 H2324 0.930 . S
C2334 C2332 1.419 . S
C2334 C2335 1.362 . S
C2335 H2325 0.930 . S
C2335 C2328 1.409 . S
C2335 C2334 1.362 . S
C1063 C41 1.994 1_545 S
C1068 C28 1.976 . S
C1079 C61 1.989 . S
C1084 C74 2.015 . S
C1095 C94 1.968 . S
C1100 C107 1.998 1_565 S
C1111 C127 1.992 . S
C1116 C8 2.000 1_556 S
C1127 C160 2.003 . S
C1132 C239 2.017 1_565 S
C1143 C140 2.010 1_554 S
C1148 C193 1.979 . S
C1159 C226 1.998 . S
C1164 C173 2.004 1_545 S
C1175 C259 1.984 . S
C1180 C206 2.013 . S
C1191 C305 2.013 1_565 S
C1196 C292 1.985 . S
C1207 C338 2.001 . S
C1212 C325 1.969 . S
C1223 C358 2.002 . S
C1228 C371 2.009 1_545 S
C1239 C272 1.994 1_554 S
C1244 C391 1.977 . S
C1255 C424 1.989 . S
C1260 C503 1.999 1_545 S
C1271 C457 1.991 . S
C1276 C404 1.999 1_556 S
C1287 C437 2.015 1_565 S
C1292 C490 1.988 . S
C1303 C470 2.008 . S
C1308 C523 1.976 . S
C1319 C569 2.017 . S
C1324 C556 2.000 . S
C1335 C589 1.980 . S
C1340 C602 1.995 1_556 S
C1351 C635 2.017 . S
C1356 C622 1.996 . S
C1367 C536 1.997 . S
C1372 C655 1.968 . S
C1383 C767 1.995 . S
C1388 C688 1.979 . S
C1399 C721 2.004 . S
C1404 C668 2.011 . S
C1415 C701 2.000 . S
C1420 C754 1.969 . S
C1431 C787 1.973 . S
C1436 C734 1.994 1_554 S
C1447 C833 1.997 . S
C1452 C820 1.968 . S
C1463 C853 1.990 . S
C1468 C866 1.999 1_554 S
C1479 C886 1.970 . S
C1484 C899 1.995 . S
C1495 C919 1.968 . S
C1500 C800 1.998 . S
C1511 C1031 1.997 . S
C1516 C952 1.968 . S
C1527 C932 2.011 . S
C1532 C985 1.982 . S
C1543 C965 1.996 . S
C1548 C1018 1.984 . S
C1559 C998 1.994 1_556 S
C1564 C1051 1.978 . S
C1575 N203 0.941 . S
C1580 N5 0.908 . S
C1591 N38 0.892 . S
C1596 N236 0.938 . S
C1607 N71 0.894 . S
C1612 N137 0.941 . S
C1623 N104 0.938 . S
C1628 N170 0.913 . S
C1639 N467 0.922 . S
C1644 N269 0.897 . S
C1655 N500 0.911 . S
C1660 N302 0.939 . S
C1671 N335 0.911 . S
C1676 N401 0.939 . S
C1687 N434 0.943 . S
C1692 N368 0.899 . S
C1703 N533 0.906 . S
C1708 N731 0.941 . S
C1719 N764 0.900 . S
C1724 N566 0.943 . S
C1735 N665 0.915 . S
C1740 N599 0.903 . S
C1751 N698 0.896 . S
C1756 N632 0.943 . S
C1767 N995 0.909 . S
C1772 N797 0.908 . S
C1783 N1028 0.941 . S
C1788 N830 0.893 . S
C1799 N929 0.899 . S
C1804 N863 0.920 . S
C1815 N962 0.943 . S
C1820 N896 0.898 . S
C1831 N14 1.005 . S
C1836 N245 0.987 . S
C1847 N47 1.003 . S
C1852 N146 0.996 . S
C1863 N179 0.996 . S
C1868 N80 1.003 . S
C1879 N113 0.956 . S
C1884 N212 0.971 . S
C1895 N278 0.956 . S
C1900 N509 0.970 . S
C1911 N410 1.000 . S
C1916 N311 0.972 . S
C1927 N344 0.990 . S
C1932 N443 1.005 . S
C1943 N377 1.004 . S
C1948 N476 0.992 . S
C1959 N773 0.978 . S
C1964 N542 0.956 . S
C1975 N674 0.987 . S
C1980 N575 0.959 . S
C1991 N608 1.005 . S
C1996 N707 0.986 . S
C2007 N641 0.992 . S
C2012 N740 1.004 . S
C2023 N806 0.999 . S
C2028 N1037 0.969 . S
C2039 N938 0.956 . S
C2044 N839 0.979 . S
C2055 N872 0.987 . S
C2060 N971 0.959 . S
C2071 N905 0.990 . S
C2076 N1004 0.961 . S
C2087 C17 1.355 . S
C2092 C1007 1.378 . S
C2103 C512 1.347 . S
C2108 C50 1.387 . S
C2119 C941 1.346 . S
C2124 C83 1.387 . S
C2135 C116 1.371 . S
C2140 C446 1.362 . S
C2151 C149 1.373 . S
C2156 C875 1.360 . S
C2167 C380 1.347 . S
C2172 C182 1.386 . S
C2183 C215 1.387 . S
C2188 C809 1.347 . S
C2199 C248 1.356 . S
C2204 C314 1.378 . S
C2215 C281 1.346 . S
C2220 C743 1.387 . S
C2231 C347 1.387 . S
C2236 C677 1.346 . S
C2247 C413 1.348 . S
C2252 C611 1.385 . S
C2263 C479 1.383 . S
C2268 C545 1.350 . S
C2279 C578 1.387 . S
C2284 C1040 1.346 . S
C2295 C974 1.347 . S
C2300 C644 1.387 . S
C2311 C908 1.349 . S
C2316 C710 1.384 . S
C2327 C842 1.382 . S
C2332 C776 1.352 . S
