# Generated by pormake.
# Topology etd, (3)-cn, num edge types: 1
# Building blocks:
#     Node 0, Type 0, BuildingBlock: OLANEW_clean_sbu_2, # of connection points: 3
#     Node 1, Type 0, BuildingBlock: OLANEW_clean_sbu_2, # of connection points: 3
#     Node 2, Type 0, BuildingBlock: OLANEW_clean_sbu_2, # of connection points: 3
#     Node 3, Type 0, BuildingBlock: OLANEW_clean_sbu_2, # of connection points: 3
#     Node 4, Type 0, BuildingBlock: OLANEW_clean_sbu_2, # of connection points: 3
#     Node 5, Type 0, BuildingBlock: OLANEW_clean_sbu_2, # of connection points: 3
#     Node 6, Type 0, BuildingBlock: OLANEW_clean_sbu_2, # of connection points: 3
#     Node 7, Type 0, BuildingBlock: OLANEW_clean_sbu_2, # of connection points: 3
#     Node 8, Type 0, BuildingBlock: OLANEW_clean_sbu_2, # of connection points: 3
#     Node 9, Type 0, BuildingBlock: OLANEW_clean_sbu_2, # of connection points: 3
#     Node 10, Type 0, BuildingBlock: OLANEW_clean_sbu_2, # of connection points: 3
#     Node 11, Type 0, BuildingBlock: OLANEW_clean_sbu_2, # of connection points: 3
#     Edge 12, Type (0, 0), BuildingBlock: MIFKUJ_clean_linker_0, # of connection points: 2
#     Edge 13, Type (0, 0), BuildingBlock: MIFKUJ_clean_linker_0, # of connection points: 2
#     Edge 14, Type (0, 0), BuildingBlock: MIFKUJ_clean_linker_0, # of connection points: 2
#     Edge 15, Type (0, 0), BuildingBlock: MIFKUJ_clean_linker_0, # of connection points: 2
#     Edge 16, Type (0, 0), BuildingBlock: MIFKUJ_clean_linker_0, # of connection points: 2
#     Edge 17, Type (0, 0), BuildingBlock: MIFKUJ_clean_linker_0, # of connection points: 2
#     Edge 18, Type (0, 0), BuildingBlock: MIFKUJ_clean_linker_0, # of connection points: 2
#     Edge 19, Type (0, 0), BuildingBlock: MIFKUJ_clean_linker_0, # of connection points: 2
#     Edge 20, Type (0, 0), BuildingBlock: MIFKUJ_clean_linker_0, # of connection points: 2
#     Edge 21, Type (0, 0), BuildingBlock: MIFKUJ_clean_linker_0, # of connection points: 2
#     Edge 22, Type (0, 0), BuildingBlock: MIFKUJ_clean_linker_0, # of connection points: 2
#     Edge 23, Type (0, 0), BuildingBlock: MIFKUJ_clean_linker_0, # of connection points: 2
#     Edge 24, Type (0, 0), BuildingBlock: MIFKUJ_clean_linker_0, # of connection points: 2
#     Edge 25, Type (0, 0), BuildingBlock: MIFKUJ_clean_linker_0, # of connection points: 2
#     Edge 26, Type (0, 0), BuildingBlock: MIFKUJ_clean_linker_0, # of connection points: 2
#     Edge 27, Type (0, 0), BuildingBlock: MIFKUJ_clean_linker_0, # of connection points: 2
#     Edge 28, Type (0, 0), BuildingBlock: MIFKUJ_clean_linker_0, # of connection points: 2
#     Edge 29, Type (0, 0), BuildingBlock: MIFKUJ_clean_linker_0, # of connection points: 2
# Relax obj value: 0.002
# Max RMSD: 0.058
# Mean RMSD: 0.058
data_MOF--net-etd--node1-OLANEW_clean_sbu_2--edge1-MIFKUJ_clean_linker_0
_symmetry_space_group_name_H-M    P1
_symmetry_Int_Tables_number       1
_symmetry_cell_setting            triclinic
loop_
_symmetry_equiv_pos_as_xyz
'x, y, z'
_cell_length_a     78.34719
_cell_length_b     78.337169
_cell_length_c     58.617681
_cell_angle_alpha  89.936136
_cell_angle_beta   90.016922
_cell_angle_gamma 120.00257
loop_
_atom_site_label
_atom_site_type_symbol
_atom_site_fract_x
_atom_site_fract_y
_atom_site_fract_z
_atom_type_partial_charge
O0 O 0.61379 0.15152 0.14521 0.0
Cd1 Cd 0.62306 0.15429 0.10501 0.0
O2 O 0.59979 0.16901 0.13767 0.0
Cd3 Cd 0.58573 0.18671 0.14381 0.0
O4 O 0.57908 0.21039 0.13822 0.0
C5 C 0.59369 0.2274 0.13418 0.0
O6 O 0.6115 0.22971 0.13445 0.0
C7 C 0.60418 0.15965 0.15205 0.0
C8 C 0.59955 0.11917 0.08169 0.0
O9 O 0.61589 0.12273 0.09078 0.0
O10 O 0.59438 0.13226 0.08359 0.0
O11 O 0.41153 0.52674 0.30046 0.0
Cd12 Cd 0.39476 0.51923 0.26358 0.0
O13 O 0.3902 0.4986 0.31639 0.0
Cd14 Cd 0.36948 0.49156 0.28835 0.0
O15 O 0.34519 0.49294 0.27201 0.0
C16 C 0.33373 0.49515 0.28549 0.0
O17 O 0.33701 0.49583 0.30755 0.0
C18 C 0.40624 0.51498 0.31736 0.0
C19 C 0.41911 0.5164 0.23099 0.0
O20 O 0.41978 0.53283 0.2348 0.0
O21 O 0.40659 0.50122 0.24224 0.0
O22 O 0.90337 0.45874 0.41651 0.0
Cd23 Cd 0.90654 0.45944 0.37501 0.0
O24 O 0.87802 0.42908 0.41261 0.0
Cd25 Cd 0.85129 0.40185 0.42248 0.0
O26 O 0.82329 0.37412 0.42445 0.0
C27 C 0.80732 0.37437 0.42716 0.0
O28 O 0.80808 0.39142 0.42944 0.0
C29 C 0.88933 0.44335 0.42552 0.0
C30 C 0.94533 0.47752 0.35938 0.0
O31 O 0.93673 0.48756 0.36281 0.0
O32 O 0.93567 0.45899 0.36369 0.0
O33 O 0.42458 0.86363 0.64314 0.0
Cd34 Cd 0.42518 0.8557 0.60286 0.0
O35 O 0.45526 0.87081 0.64843 0.0
Cd36 Cd 0.4572 0.85773 0.61644 0.0
O37 O 0.46024 0.83349 0.6027 0.0
C38 C 0.46454 0.82449 0.61768 0.0
O39 O 0.46687 0.83061 0.63892 0.0
C40 C 0.43965 0.87001 0.65595 0.0
C41 C 0.43717 0.88878 0.57507 0.0
O42 O 0.4189 0.8772 0.57961 0.0
O43 O 0.44976 0.88468 0.58362 0.0
O44 O 0.51195 0.39622 0.81191 0.0
Cd45 Cd 0.50057 0.38769 0.77253 0.0
O46 O 0.54128 0.40288 0.80056 0.0
Cd47 Cd 0.57206 0.41056 0.80495 0.0
O48 O 0.6023 0.41612 0.80409 0.0
C49 C 0.60534 0.40314 0.79507 0.0
O50 O 0.59024 0.38695 0.7871 0.0
C51 C 0.52987 0.40197 0.81653 0.0
C52 C 0.49759 0.4177 0.75047 0.0
O53 O 0.48281 0.40385 0.76103 0.0
O54 O 0.51379 0.41737 0.7504 0.0
O55 O 0.09168 0.53001 0.91268 0.0
Cd56 Cd 0.08781 0.52244 0.87197 0.0
O57 O 0.11379 0.56013 0.90346 0.0
Cd58 Cd 0.13612 0.59135 0.90665 0.0
O59 O 0.16265 0.62038 0.90616 0.0
C60 C 0.17883 0.62122 0.9011 0.0
O61 O 0.17879 0.60476 0.89668 0.0
C62 C 0.10424 0.54739 0.91887 0.0
C63 C 0.04952 0.50882 0.85642 0.0
O64 O 0.05492 0.4968 0.86367 0.0
O65 O 0.0622 0.52729 0.85672 0.0
O66 O 0.83948 0.42442 0.67614 0.0
Cd67 Cd 0.8298 0.42215 0.71622 0.0
O68 O 0.84711 0.45544 0.67295 0.0
Cd69 Cd 0.83338 0.45504 0.70547 0.0
O70 O 0.80959 0.45052 0.72853 0.0
C71 C 0.79334 0.4345 0.7263 0.0
O72 O 0.79218 0.42154 0.71124 0.0
C73 C 0.84646 0.44019 0.66443 0.0
C74 C 0.8629 0.43597 0.74422 0.0
O75 O 0.85278 0.41769 0.73883 0.0
O76 O 0.8572 0.44764 0.73661 0.0
O77 O 0.44806 0.89803 0.90958 0.0
Cd78 Cd 0.44745 0.89788 0.95124 0.0
O79 O 0.41765 0.87367 0.911 0.0
Cd80 Cd 0.38996 0.849 0.89852 0.0
O81 O 0.3616 0.82201 0.89444 0.0
C82 C 0.36112 0.8059 0.88995 0.0
O83 O 0.3778 0.80601 0.88707 0.0
C84 C 0.43258 0.88549 0.89922 0.0
C85 C 0.47309 0.93469 0.96992 0.0
O86 O 0.47881 0.92224 0.96596 0.0
O87 O 0.45528 0.92975 0.96491 0.0
O88 O 0.59451 0.49004 0.04841 0.0
Cd89 Cd 0.60221 0.5034 0.087 0.0
O90 O 0.58278 0.46041 0.06278 0.0
Cd91 Cd 0.5719 0.42869 0.06074 0.0
O92 O 0.56789 0.39918 0.065 0.0
C93 C 0.58327 0.39764 0.06412 0.0
O94 O 0.6003 0.41349 0.05984 0.0
C95 C 0.58651 0.47154 0.04549 0.0
C96 C 0.57083 0.50547 0.10641 0.0
O97 O 0.58433 0.52008 0.09526 0.0
O98 O 0.5722 0.4899 0.10837 0.0
O99 O 0.15185 0.5771 0.16974 0.0
Cd100 Cd 0.16173 0.57637 0.20929 0.0
O101 O 0.13666 0.54487 0.16561 0.0
Cd102 Cd 0.15067 0.5407 0.19551 0.0
O103 O 0.17206 0.5351 0.21274 0.0
C104 C 0.18388 0.53315 0.19961 0.0
O105 O 0.18233 0.5347 0.17748 0.0
C106 C 0.14106 0.56177 0.15797 0.0
C107 C 0.12938 0.56181 0.23881 0.0
O108 O 0.13918 0.58018 0.23373 0.0
O109 O 0.13498 0.55043 0.23014 0.0
O110 O 0.52584 0.11126 0.39162 0.0
Cd111 Cd 0.51599 0.10639 0.43181 0.0
O112 O 0.55553 0.13274 0.40324 0.0
Cd113 Cd 0.58606 0.15655 0.39915 0.0
O114 O 0.61575 0.18221 0.40051 0.0
C115 C 0.61765 0.19899 0.40474 0.0
O116 O 0.60174 0.20033 0.40767 0.0
C117 C 0.54366 0.12376 0.38695 0.0
C118 C 0.50277 0.06848 0.4488 0.0
O119 O 0.49072 0.07323 0.44003 0.0
O120 O 0.52112 0.08155 0.44909 0.0
O121 O 0.47457 0.58002 0.55394 0.0
Cd122 Cd 0.47925 0.59266 0.59289 0.0
O123 O 0.4953 0.60874 0.53872 0.0
Cd124 Cd 0.49738 0.62589 0.56892 0.0
O125 O 0.49348 0.65002 0.58127 0.0
C126 C 0.48736 0.65738 0.56621 0.0
O127 O 0.48399 0.64999 0.5455 0.0
C128 C 0.48393 0.59025 0.53667 0.0
C129 C 0.48245 0.56639 0.62238 0.0
O130 O 0.46569 0.56489 0.61825 0.0
O131 O 0.49773 0.58051 0.61287 0.0
H132 H 0.62377 0.15639 0.18846 0.0
H133 H 0.61366 0.15158 0.22844 0.0
H134 H 0.56136 0.15377 0.2105 0.0
H135 H 0.57163 0.15891 0.17044 0.0
H136 H 0.5761 0.17291 0.24927 0.0
H137 H 0.55982 0.10961 0.22018 0.0
H138 H 0.56566 0.08512 0.20067 0.0
H139 H 0.60953 0.09386 0.25044 0.0
H140 H 0.60415 0.11862 0.27008 0.0
H141 H 0.52242 0.12463 0.35071 0.0
H142 H 0.53309 0.13212 0.31083 0.0
H143 H 0.58983 0.13978 0.3291 0.0
H144 H 0.57922 0.13226 0.36897 0.0
H145 H 0.57214 0.11557 0.29028 0.0
H146 H 0.58738 0.17912 0.31934 0.0
H147 H 0.57997 0.2026 0.33867 0.0
H148 H 0.53574 0.19179 0.2885 0.0
H149 H 0.54269 0.168 0.26904 0.0
C150 C 0.61019 0.156 0.19307 0.0
C151 C 0.59856 0.15818 0.17635 0.0
C152 C 0.60438 0.15316 0.21591 0.0
C153 C 0.58657 0.15197 0.22245 0.0
C154 C 0.57517 0.15466 0.20587 0.0
C155 C 0.58111 0.15773 0.18299 0.0
C156 C 0.5797 0.14746 0.24649 0.0
C157 C 0.57498 0.16022 0.25812 0.0
C158 C 0.57847 0.13104 0.2582 0.0
C159 C 0.58171 0.11611 0.24648 0.0
C160 C 0.57082 0.10642 0.22687 0.0
C161 C 0.57403 0.09247 0.2158 0.0
C162 C 0.58799 0.08797 0.22428 0.0
C163 C 0.59874 0.09738 0.24388 0.0
C164 C 0.5956 0.11136 0.255 0.0
C165 C 0.53718 0.12796 0.34619 0.0
C166 C 0.55013 0.12821 0.36296 0.0
C167 C 0.54327 0.13231 0.32347 0.0
C168 C 0.56231 0.13671 0.3171 0.0
C169 C 0.57513 0.13658 0.33374 0.0
C170 C 0.56914 0.13249 0.35651 0.0
C171 C 0.56873 0.14109 0.29299 0.0
C172 C 0.57329 0.12825 0.28137 0.0
C173 C 0.56956 0.15728 0.28125 0.0
C174 C 0.56541 0.17162 0.29288 0.0
C175 C 0.57595 0.18161 0.31255 0.0
C176 C 0.57186 0.19501 0.3235 0.0
C177 C 0.55735 0.19865 0.31486 0.0
C178 C 0.54695 0.18893 0.29519 0.0
C179 C 0.55097 0.1755 0.28419 0.0
H180 H 0.55421 0.20903 0.32336 0.0
H181 H 0.59045 0.07717 0.21569 0.0
H182 H 0.45769 0.55205 0.52495 0.0
H183 H 0.44907 0.53824 0.48655 0.0
H184 H 0.49358 0.5937 0.4583 0.0
H185 H 0.50209 0.60772 0.49657 0.0
H186 H 0.45904 0.58155 0.43837 0.0
H187 H 0.49848 0.55255 0.45637 0.0
H188 H 0.50968 0.53358 0.47924 0.0
H189 H 0.45255 0.48189 0.47314 0.0
H190 H 0.44091 0.50062 0.45049 0.0
H191 H 0.44162 0.54842 0.3249 0.0
H192 H 0.45911 0.55997 0.36111 0.0
H193 H 0.41495 0.50696 0.39424 0.0
H194 H 0.3975 0.49511 0.35801 0.0
H195 H 0.45185 0.51847 0.41058 0.0
H196 H 0.41169 0.54804 0.39628 0.0
H197 H 0.39984 0.56678 0.37399 0.0
H198 H 0.45811 0.61732 0.37405 0.0
H199 H 0.47036 0.59877 0.39608 0.0
C200 C 0.46588 0.56122 0.51061 0.0
C201 C 0.48047 0.58104 0.51383 0.0
C202 C 0.461 0.55327 0.48865 0.0
C203 C 0.47073 0.56493 0.46955 0.0
C204 C 0.48586 0.58446 0.4728 0.0
C205 C 0.49071 0.59243 0.49471 0.0
C206 C 0.46388 0.5574 0.44616 0.0
C207 C 0.45788 0.56796 0.43214 0.0
C208 C 0.46182 0.53939 0.43828 0.0
C209 C 0.46877 0.52805 0.45188 0.0
C210 C 0.48825 0.53718 0.46006 0.0
C211 C 0.49469 0.52646 0.47296 0.0
C212 C 0.48182 0.50655 0.47769 0.0
C213 C 0.4625 0.49731 0.46948 0.0
C214 C 0.45598 0.50797 0.45658 0.0
C215 C 0.43575 0.53908 0.3398 0.0
C216 C 0.41802 0.52095 0.33862 0.0
C217 C 0.44576 0.54572 0.36049 0.0
C218 C 0.43814 0.53446 0.38042 0.0
C219 C 0.42105 0.51589 0.37906 0.0
C220 C 0.41106 0.50919 0.35835 0.0
C221 C 0.4471 0.54267 0.40292 0.0
C222 C 0.45333 0.53219 0.41677 0.0
C223 C 0.44933 0.56075 0.41077 0.0
C224 C 0.44198 0.57195 0.3976 0.0
C225 C 0.422 0.5631 0.39138 0.0
C226 C 0.41521 0.57369 0.37882 0.0
C227 C 0.42822 0.59321 0.37255 0.0
C228 C 0.44805 0.60219 0.37888 0.0
C229 C 0.45492 0.59165 0.39141 0.0
H230 H 0.42294 0.60139 0.36283 0.0
H231 H 0.48684 0.49828 0.48767 0.0
H232 H 0.86479 0.47202 0.63594 0.0
H233 H 0.87339 0.47226 0.59587 0.0
H234 H 0.85102 0.40957 0.59862 0.0
H235 H 0.84275 0.40925 0.6389 0.0
H236 H 0.88429 0.42746 0.57424 0.0
H237 H 0.82344 0.42811 0.57578 0.0
H238 H 0.80098 0.44014 0.58701 0.0
H239 H 0.83965 0.49623 0.55612 0.0
H240 H 0.86249 0.48461 0.54496 0.0
H241 H 0.87372 0.41117 0.45389 0.0
H242 H 0.86737 0.41044 0.49486 0.0
H243 H 0.89199 0.47352 0.49452 0.0
H244 H 0.89786 0.47425 0.45345 0.0
H245 H 0.85725 0.45482 0.51761 0.0
H246 H 0.91798 0.45357 0.51579 0.0
H247 H 0.93994 0.44096 0.50444 0.0
H248 H 0.90068 0.38514 0.53552 0.0
H249 H 0.87833 0.39733 0.54679 0.0
C250 C 0.86181 0.45829 0.6281 0.0
C251 C 0.85293 0.44058 0.64059 0.0
C252 C 0.86667 0.45844 0.60515 0.0
C253 C 0.86251 0.44087 0.59413 0.0
C254 C 0.85429 0.42329 0.60675 0.0
C255 C 0.84953 0.42313 0.62977 0.0
C256 C 0.86625 0.44077 0.56932 0.0
C257 C 0.87818 0.43321 0.56183 0.0
C258 C 0.85852 0.44855 0.55314 0.0
C259 C 0.84477 0.45555 0.55973 0.0
C260 C 0.82723 0.44306 0.57152 0.0
C261 C 0.81442 0.44979 0.57786 0.0
C262 C 0.81891 0.46896 0.57234 0.0
C263 C 0.8362 0.4814 0.56041 0.0
C264 C 0.84908 0.47474 0.55406 0.0
C265 C 0.87743 0.42481 0.46246 0.0
C266 C 0.88588 0.4427 0.45038 0.0
C267 C 0.87408 0.42442 0.48594 0.0
C268 C 0.87926 0.44194 0.49775 0.0
C269 C 0.88784 0.45983 0.48573 0.0
C270 C 0.89126 0.46023 0.4623 0.0
C271 C 0.8754 0.44165 0.52255 0.0
C272 C 0.86338 0.44908 0.53003 0.0
C273 C 0.88295 0.43365 0.53866 0.0
C274 C 0.89638 0.4263 0.53192 0.0
C275 C 0.91394 0.43855 0.52003 0.0
C276 C 0.92648 0.43149 0.51365 0.0
C277 C 0.92168 0.41225 0.5192 0.0
C278 C 0.90436 0.40004 0.5312 0.0
C279 C 0.89176 0.40702 0.53761 0.0
H280 H 0.93141 0.40681 0.51424 0.0
H281 H 0.80897 0.47415 0.57725 0.0
H282 H 0.46974 0.88607 0.68682 0.0
H283 H 0.46744 0.89002 0.72776 0.0
H284 H 0.4051 0.8684 0.72124 0.0
H285 H 0.40729 0.86464 0.68004 0.0
H286 H 0.42241 0.89874 0.75195 0.0
H287 H 0.42045 0.83757 0.73812 0.0
H288 H 0.43184 0.81596 0.72191 0.0
H289 H 0.48646 0.84789 0.75837 0.0
H290 H 0.4755 0.86989 0.77455 0.0
H291 H 0.40133 0.87429 0.87011 0.0
H292 H 0.40156 0.87243 0.82845 0.0
H293 H 0.4641 0.89379 0.82973 0.0
H294 H 0.46382 0.89512 0.8714 0.0
H295 H 0.44489 0.86241 0.80151 0.0
H296 H 0.44671 0.92394 0.8149 0.0
H297 H 0.43499 0.94533 0.83097 0.0
H298 H 0.37999 0.91213 0.79557 0.0
H299 H 0.39129 0.89037 0.77952 0.0
C300 C 0.45556 0.88237 0.69399 0.0
C301 C 0.43865 0.87482 0.68017 0.0
C302 C 0.45427 0.88459 0.71743 0.0
C303 C 0.43603 0.87912 0.72759 0.0
C304 C 0.4193 0.8726 0.71373 0.0
C305 C 0.42058 0.87044 0.6902 0.0
C306 C 0.43434 0.87925 0.75279 0.0
C307 C 0.42706 0.8906 0.7628 0.0
C308 C 0.44065 0.86879 0.76693 0.0
C309 C 0.44722 0.85549 0.75738 0.0
C310 C 0.43495 0.84007 0.74255 0.0
C311 C 0.44132 0.82774 0.73339 0.0
C312 C 0.45988 0.83058 0.73907 0.0
C313 C 0.47209 0.84572 0.75397 0.0
C314 C 0.4658 0.85812 0.76316 0.0
C315 C 0.41502 0.87817 0.86156 0.0
C316 C 0.43247 0.88443 0.87404 0.0
C317 C 0.4152 0.87741 0.83772 0.0
C318 C 0.43286 0.88304 0.82599 0.0
C319 C 0.4503 0.88934 0.83844 0.0
C320 C 0.45013 0.89016 0.86223 0.0
C321 C 0.43324 0.88214 0.80073 0.0
C322 C 0.4402 0.87055 0.79068 0.0
C323 C 0.42656 0.8923 0.78662 0.0
C324 C 0.41977 0.9054 0.79621 0.0
C325 C 0.43205 0.9211 0.81069 0.0
C326 C 0.4255 0.93331 0.81977 0.0
C327 C 0.40674 0.93006 0.81435 0.0
C328 C 0.39451 0.91461 0.79978 0.0
C329 C 0.40098 0.90235 0.79068 0.0
H330 H 0.40169 0.93953 0.82139 0.0
H331 H 0.46479 0.82102 0.73195 0.0
H332 H 0.5547 0.43712 0.03155 0.0
H333 H 0.54663 0.42423 0.99269 0.0
H334 H 0.59984 0.47481 0.96805 0.0
H335 H 0.60768 0.48795 0.0069 0.0
H336 H 0.57077 0.46817 0.94151 0.0
H337 H 0.59461 0.42775 0.97331 0.0
H338 H 0.5962 0.40562 0.00213 0.0
H339 H 0.53595 0.36229 0.98842 0.0
H340 H 0.53387 0.3843 0.9598 0.0
H341 H 0.56612 0.43108 0.8305 0.0
H342 H 0.57734 0.44128 0.86966 0.0
H343 H 0.52076 0.39652 0.89501 0.0
H344 H 0.50958 0.38596 0.8558 0.0
H345 H 0.55276 0.39977 0.92078 0.0
H346 H 0.52897 0.44148 0.89069 0.0
H347 H 0.52748 0.46417 0.86263 0.0
H348 H 0.58886 0.50546 0.87347 0.0
H349 H 0.59078 0.48286 0.90138 0.0
C350 C 0.56486 0.44526 0.0179 0.0
C351 C 0.582 0.46332 0.02224 0.0
C352 C 0.56022 0.43792 0.99568 0.0
C353 C 0.57282 0.44836 0.97746 0.0
C354 C 0.58994 0.46645 0.98182 0.0
C355 C 0.59443 0.47392 0.00399 0.0
C356 C 0.56776 0.44083 0.95374 0.0
C357 C 0.56719 0.45332 0.93695 0.0
C358 C 0.56266 0.4213 0.94783 0.0
C359 C 0.56404 0.40776 0.96452 0.0
C360 C 0.58167 0.41354 0.97651 0.0
C361 C 0.58266 0.40102 0.99282 0.0
C362 C 0.56618 0.38259 0.99715 0.0
C363 C 0.5487 0.37659 0.98507 0.0
C364 C 0.54761 0.38907 0.96878 0.0
C365 C 0.55628 0.42303 0.84442 0.0
C366 C 0.5371 0.4075 0.84014 0.0
C367 C 0.56263 0.42902 0.86677 0.0
C368 C 0.54986 0.41967 0.88521 0.0
C369 C 0.53086 0.40385 0.88102 0.0
C370 C 0.52447 0.39793 0.85865 0.0
C371 C 0.5559 0.42718 0.90873 0.0
C372 C 0.55656 0.41466 0.92543 0.0
C373 C 0.56123 0.44673 0.91459 0.0
C374 C 0.56007 0.46039 0.89793 0.0
C375 C 0.54219 0.45533 0.88695 0.0
C376 C 0.54126 0.46818 0.8711 0.0
C377 C 0.55808 0.48622 0.86623 0.0
C378 C 0.57585 0.49147 0.87724 0.0
C379 C 0.57687 0.47865 0.89309 0.0
H380 H 0.55733 0.49616 0.85395 0.0
H381 H 0.56696 0.37295 0.00983 0.0
H382 H 0.07918 0.5275 0.95372 0.0
H383 H 0.08475 0.53369 0.9945 0.0
H384 H 0.14179 0.58438 0.98084 0.0
H385 H 0.13701 0.57715 0.94025 0.0
H386 H 0.14579 0.56563 0.01304 0.0
H387 H 0.09993 0.58756 0.00063 0.0
H388 H 0.06955 0.58629 0.98698 0.0
H389 H 0.03479 0.53609 0.02974 0.0
H390 H 0.06495 0.53688 0.04343 0.0
H391 H 0.15779 0.59407 0.13007 0.0
H392 H 0.15051 0.59545 0.08967 0.0
H393 H 0.10337 0.53504 0.09278 0.0
H394 H 0.11078 0.53338 0.13302 0.0
H395 H 0.09539 0.56293 0.0665 0.0
H396 H 0.14311 0.54053 0.07488 0.0
H397 H 0.17439 0.54403 0.08892 0.0
H398 H 0.20676 0.59912 0.05335 0.0
H399 H 0.17562 0.59607 0.03939 0.0
C400 C 0.09288 0.54005 0.95937 0.0
C401 C 0.1074 0.5522 0.94352 0.0
C402 C 0.09595 0.54373 0.98275 0.0
C403 C 0.11347 0.55986 0.99085 0.0
C404 C 0.128 0.57201 0.97506 0.0
C405 C 0.12508 0.56811 0.95168 0.0
C406 C 0.11717 0.56317 0.0158 0.0
C407 C 0.13488 0.56546 0.02458 0.0
C408 C 0.10292 0.56274 0.03109 0.0
C409 C 0.08472 0.56219 0.02292 0.0
C410 C 0.0858 0.57616 0.007 0.0
C411 C 0.06862 0.57554 0.99928 0.0
C412 C 0.05025 0.56109 0.00745 0.0
C413 C 0.04903 0.54726 0.02341 0.0
C414 C 0.06617 0.54781 0.03119 0.0
C415 C 0.14565 0.58119 0.12227 0.0
C416 C 0.13494 0.56356 0.13465 0.0
C417 C 0.14154 0.58201 0.09921 0.0
C418 C 0.12648 0.56532 0.08832 0.0
C419 C 0.11503 0.54807 0.10096 0.0
C420 C 0.11934 0.54713 0.12388 0.0
C421 C 0.12379 0.56518 0.06335 0.0
C422 C 0.1063 0.56342 0.05471 0.0
C423 C 0.13836 0.56647 0.04812 0.0
C424 C 0.15705 0.56819 0.05633 0.0
C425 C 0.15689 0.55347 0.07023 0.0
C426 C 0.17459 0.55536 0.07814 0.0
C427 C 0.19255 0.57182 0.07209 0.0
C428 C 0.19284 0.5864 0.05806 0.0
C429 C 0.17518 0.5846 0.05014 0.0
H430 H 0.20624 0.57325 0.07822 0.0
H431 H 0.03696 0.56064 0.00145 0.0
H432 H 0.55885 0.2273 0.12847 0.0
H433 H 0.55454 0.25502 0.11709 0.0
H434 H 0.61765 0.29295 0.11465 0.0
H435 H 0.62209 0.2655 0.12619 0.0
H436 H 0.60027 0.31076 0.13564 0.0
H437 H 0.5908 0.27412 0.06611 0.0
H438 H 0.57529 0.24463 0.04156 0.0
H439 H 0.51911 0.24104 0.04973 0.0
H440 H 0.53426 0.27037 0.07459 0.0
H441 H 0.61413 0.39107 0.06905 0.0
H442 H 0.61309 0.36083 0.08146 0.0
H443 H 0.54964 0.33127 0.0847 0.0
H444 H 0.55052 0.3616 0.07223 0.0
H445 H 0.56382 0.30808 0.06522 0.0
H446 H 0.57387 0.34619 0.13261 0.0
H447 H 0.5896 0.37591 0.15673 0.0
H448 H 0.64473 0.37677 0.15253 0.0
H449 H 0.6294 0.3472 0.12808 0.0
C450 C 0.5718 0.24156 0.1256 0.0
C451 C 0.59082 0.24417 0.12817 0.0
C452 C 0.56931 0.25736 0.119 0.0
C453 C 0.58578 0.27601 0.1148 0.0
C454 C 0.60474 0.2787 0.11779 0.0
C455 C 0.60724 0.26295 0.12434 0.0
C456 C 0.58345 0.29281 0.10722 0.0
C457 C 0.59244 0.31021 0.12014 0.0
C458 C 0.57274 0.29192 0.08735 0.0
C459 C 0.56362 0.27429 0.07243 0.0
C460 C 0.57511 0.26694 0.06283 0.0
C461 C 0.56639 0.25027 0.04883 0.0
C462 C 0.54621 0.24093 0.04415 0.0
C463 C 0.53473 0.24827 0.05341 0.0
C464 C 0.54338 0.26492 0.06745 0.0
C465 C 0.59992 0.37813 0.07222 0.0
C466 C 0.58241 0.3788 0.06984 0.0
C467 C 0.59936 0.36087 0.0794 0.0
C468 C 0.58131 0.34391 0.08431 0.0
C469 C 0.56373 0.34425 0.08109 0.0
C470 C 0.56427 0.36159 0.07402 0.0
C471 C 0.581 0.32609 0.09339 0.0
C472 C 0.57149 0.30853 0.08082 0.0
C473 C 0.59124 0.3268 0.11359 0.0
C474 C 0.60052 0.34457 0.12834 0.0
C475 C 0.58939 0.3528 0.13667 0.0
C476 C 0.59823 0.36961 0.15043 0.0
C477 C 0.61816 0.37825 0.15612 0.0
C478 C 0.62929 0.37007 0.14809 0.0
C479 C 0.62053 0.35327 0.1343 0.0
H480 H 0.62498 0.39126 0.16678 0.0
H481 H 0.53949 0.22804 0.03329 0.0
H482 H 0.19134 0.52909 0.2444 0.0
H483 H 0.21639 0.52207 0.25928 0.0
H484 H 0.23578 0.52105 0.19068 0.0
H485 H 0.2107 0.52781 0.17567 0.0
H486 H 0.23239 0.49051 0.21526 0.0
H487 H 0.26214 0.56058 0.22501 0.0
H488 H 0.26402 0.59131 0.23837 0.0
H489 H 0.2587 0.57172 0.3078 0.0
H490 H 0.25651 0.54074 0.29483 0.0
H491 H 0.32431 0.49713 0.2409 0.0
H492 H 0.29822 0.50283 0.22668 0.0
H493 H 0.2803 0.50466 0.2958 0.0
H494 H 0.3065 0.4993 0.31015 0.0
H495 H 0.28255 0.53444 0.2714 0.0
H496 H 0.25329 0.46453 0.2617 0.0
H497 H 0.25148 0.43384 0.24832 0.0
H498 H 0.2559 0.45307 0.17885 0.0
H499 H 0.258 0.48401 0.19183 0.0
C500 C 0.20095 0.52739 0.23249 0.0
C501 C 0.19905 0.52905 0.20885 0.0
C502 C 0.2153 0.52345 0.24102 0.0
C503 C 0.22806 0.52121 0.22608 0.0
C504 C 0.22608 0.52272 0.2025 0.0
C505 C 0.21177 0.52665 0.19397 0.0
C506 C 0.24341 0.51716 0.23495 0.0
C507 C 0.24351 0.50023 0.22733 0.0
C508 C 0.25763 0.52962 0.25109 0.0
C509 C 0.25895 0.54825 0.25893 0.0
C510 C 0.2612 0.56275 0.24312 0.0
C511 C 0.26235 0.58023 0.25062 0.0
C512 C 0.26142 0.58344 0.27392 0.0
C513 C 0.25939 0.5692 0.28976 0.0
C514 C 0.2582 0.55168 0.28234 0.0
C515 C 0.31475 0.49864 0.25307 0.0
C516 C 0.31748 0.49775 0.27666 0.0
C517 C 0.2998 0.50183 0.24492 0.0
C518 C 0.2872 0.50401 0.26019 0.0
C519 C 0.28986 0.50304 0.28372 0.0
C520 C 0.30481 0.49991 0.29188 0.0
C521 C 0.27155 0.50778 0.2517 0.0
C522 C 0.2714 0.52468 0.25938 0.0
C523 C 0.25729 0.49529 0.23562 0.0
C524 C 0.25599 0.47668 0.22776 0.0
C525 C 0.25403 0.46229 0.24358 0.0
C526 C 0.25293 0.44483 0.23606 0.0
C527 C 0.25363 0.44153 0.21275 0.0
C528 C 0.25538 0.45566 0.1969 0.0
C529 C 0.25652 0.47315 0.20433 0.0
H530 H 0.25277 0.428 0.20697 0.0
H531 H 0.26233 0.59699 0.27969 0.0
H532 H 0.80046 0.33683 0.42064 0.0
H533 H 0.76859 0.30649 0.4178 0.0
H534 H 0.73881 0.3395 0.42902 0.0
H535 H 0.7706 0.36989 0.43215 0.0
H536 H 0.72196 0.30551 0.45325 0.0
H537 H 0.74286 0.32516 0.37574 0.0
H538 H 0.76566 0.33475 0.34306 0.0
H539 H 0.76425 0.27931 0.34676 0.0
H540 H 0.74163 0.26949 0.37967 0.0
H541 H 0.62656 0.23676 0.41386 0.0
H542 H 0.65915 0.26578 0.41854 0.0
H543 H 0.68619 0.23039 0.40586 0.0
H544 H 0.6536 0.20126 0.40083 0.0
H545 H 0.70494 0.2648 0.38311 0.0
H546 H 0.68319 0.24459 0.45979 0.0
H547 H 0.66039 0.23492 0.49247 0.0
H548 H 0.66344 0.29118 0.49056 0.0
H549 H 0.68606 0.30109 0.45765 0.0
C550 C 0.78714 0.33764 0.42262 0.0
C551 C 0.78808 0.35582 0.4265 0.0
C552 C 0.76893 0.32029 0.42089 0.0
C553 C 0.75132 0.32078 0.4229 0.0
C554 C 0.75222 0.3388 0.42736 0.0
C555 C 0.77041 0.35616 0.42909 0.0
C556 C 0.73195 0.30256 0.42005 0.0
C557 C 0.71814 0.29672 0.43782 0.0
C558 C 0.72717 0.29083 0.40014 0.0
C559 C 0.74072 0.29668 0.38031 0.0
C560 C 0.74754 0.31508 0.3697 0.0
C561 C 0.76041 0.32055 0.35111 0.0
C562 C 0.76645 0.30767 0.34288 0.0
C563 C 0.75958 0.28928 0.35318 0.0
C564 C 0.74673 0.28375 0.37178 0.0
C565 C 0.63942 0.23511 0.41204 0.0
C566 C 0.63746 0.21666 0.40706 0.0
C567 C 0.65805 0.25172 0.41483 0.0
C568 C 0.6751 0.25021 0.41288 0.0
C569 C 0.67323 0.23188 0.40752 0.0
C570 C 0.65458 0.21525 0.40469 0.0
C571 C 0.69488 0.2678 0.41626 0.0
C572 C 0.70877 0.27352 0.39859 0.0
C573 C 0.69974 0.27941 0.43628 0.0
C574 C 0.68618 0.27351 0.45612 0.0
C575 C 0.67888 0.25484 0.46622 0.0
C576 C 0.66601 0.24933 0.48481 0.0
C577 C 0.66043 0.2624 0.49355 0.0
C578 C 0.66776 0.28105 0.48375 0.0
C579 C 0.68062 0.28663 0.46515 0.0
H580 H 0.65047 0.25811 0.50794 0.0
H581 H 0.77641 0.31193 0.32849 0.0
H582 H 0.49248 0.6762 0.60722 0.0
H583 H 0.48776 0.7042 0.61544 0.0
H584 H 0.47051 0.70432 0.54558 0.0
H585 H 0.47537 0.67654 0.53716 0.0
H586 H 0.49627 0.74097 0.5597 0.0
H587 H 0.43626 0.68632 0.58761 0.0
H588 H 0.41583 0.65627 0.61018 0.0
H589 H 0.44107 0.68833 0.67209 0.0
H590 H 0.46187 0.71853 0.64986 0.0
H591 H 0.4588 0.80643 0.57603 0.0
H592 H 0.46196 0.77766 0.56674 0.0
H593 H 0.47838 0.77509 0.63638 0.0
H594 H 0.47494 0.80351 0.64587 0.0
H595 H 0.45224 0.73927 0.62155 0.0
H596 H 0.51284 0.79374 0.59345 0.0
H597 H 0.5332 0.82375 0.57078 0.0
H598 H 0.50668 0.79193 0.5091 0.0
H599 H 0.48596 0.76177 0.53144 0.0
C600 C 0.48764 0.68216 0.59363 0.0
C601 C 0.48428 0.67412 0.57155 0.0
C602 C 0.48488 0.69811 0.59837 0.0
C603 C 0.47862 0.70624 0.58115 0.0
C604 C 0.47534 0.69828 0.55911 0.0
C605 C 0.47808 0.68235 0.55436 0.0
C606 C 0.47581 0.72326 0.58598 0.0
C607 C 0.48643 0.74051 0.57302 0.0
C608 C 0.46326 0.72277 0.60364 0.0
C609 C 0.45077 0.70464 0.61705 0.0
C610 C 0.43758 0.68692 0.60603 0.0
C611 C 0.42591 0.66987 0.61876 0.0
C612 C 0.42719 0.67038 0.64255 0.0
C613 C 0.44011 0.68795 0.65366 0.0
C614 C 0.45184 0.70505 0.641 0.0
C615 C 0.46312 0.79975 0.58934 0.0
C616 C 0.46666 0.8073 0.61167 0.0
C617 C 0.46498 0.78335 0.584 0.0
C618 C 0.47059 0.77433 0.60083 0.0
C619 C 0.47402 0.78179 0.62313 0.0
C620 C 0.47211 0.7981 0.6285 0.0
C621 C 0.4728 0.75704 0.59537 0.0
C622 C 0.46204 0.73972 0.6082 0.0
C623 C 0.48523 0.75746 0.57759 0.0
C624 C 0.49771 0.77556 0.56413 0.0
C625 C 0.51124 0.79318 0.57506 0.0
C626 C 0.52287 0.81021 0.56227 0.0
C627 C 0.5212 0.80976 0.53852 0.0
C628 C 0.50794 0.79226 0.5275 0.0
C629 C 0.49626 0.77519 0.54022 0.0
H630 H 0.53021 0.82296 0.52864 0.0
H631 H 0.41813 0.65716 0.65237 0.0
H632 H 0.63989 0.43474 0.80998 0.0
H633 H 0.67339 0.44077 0.80413 0.0
H634 H 0.65014 0.38542 0.76846 0.0
H635 H 0.61667 0.37912 0.77456 0.0
H636 H 0.67956 0.39089 0.79638 0.0
H637 H 0.66861 0.42942 0.7397 0.0
H638 H 0.66036 0.45435 0.72654 0.0
H639 H 0.70865 0.49888 0.76522 0.0
H640 H 0.71703 0.47414 0.77884 0.0
H641 H 0.7566 0.40207 0.72462 0.0
H642 H 0.72654 0.39761 0.74243 0.0
H643 H 0.75943 0.45471 0.77424 0.0
H644 H 0.78967 0.45944 0.75613 0.0
H645 H 0.72721 0.4506 0.75362 0.0
H646 H 0.74077 0.41256 0.80622 0.0
H647 H 0.74917 0.38756 0.81856 0.0
H648 H 0.69633 0.34205 0.7874 0.0
H649 H 0.68773 0.36681 0.77458 0.0
C650 C 0.6419 0.4238 0.801 0.0
C651 C 0.62561 0.40651 0.79259 0.0
C652 C 0.66106 0.42729 0.79763 0.0
C653 C 0.66428 0.41365 0.78562 0.0
C654 C 0.64801 0.39615 0.77778 0.0
C655 C 0.62888 0.39261 0.78121 0.0
C656 C 0.68454 0.41778 0.78044 0.0
C657 C 0.68996 0.40388 0.78692 0.0
C658 C 0.69831 0.43503 0.76869 0.0
C659 C 0.6933 0.4499 0.76049 0.0
C660 C 0.67736 0.4445 0.74554 0.0
C661 C 0.67268 0.45859 0.73797 0.0
C662 C 0.68393 0.47817 0.7451 0.0
C663 C 0.69992 0.4837 0.75976 0.0
C664 C 0.70465 0.46966 0.76739 0.0
C665 C 0.75753 0.41361 0.7356 0.0
C666 C 0.77554 0.43114 0.73889 0.0
C667 C 0.74032 0.41098 0.7459 0.0
C668 C 0.74075 0.42574 0.75985 0.0
C669 C 0.75878 0.44311 0.76357 0.0
C670 C 0.77604 0.44576 0.75326 0.0
C671 C 0.72212 0.4235 0.76915 0.0
C672 C 0.71698 0.43775 0.76342 0.0
C673 C 0.70861 0.40656 0.78156 0.0
C674 C 0.71367 0.39159 0.78931 0.0
C675 C 0.731 0.39724 0.80185 0.0
C676 C 0.73579 0.38311 0.80896 0.0
C677 C 0.72331 0.36324 0.80373 0.0
C678 C 0.70599 0.35745 0.79143 0.0
C679 C 0.70113 0.37153 0.78427 0.0
H680 H 0.72704 0.35232 0.80925 0.0
H681 H 0.68029 0.48906 0.73922 0.0
H682 H 0.21556 0.62779 0.89039 0.0
H683 H 0.24618 0.65936 0.88807 0.0
H684 H 0.215 0.68963 0.90686 0.0
H685 H 0.18416 0.65806 0.90894 0.0
H686 H 0.2399 0.70774 0.87163 0.0
H687 H 0.24367 0.68334 0.94544 0.0
H688 H 0.2428 0.65908 0.97295 0.0
H689 H 0.29133 0.6594 0.93853 0.0
H690 H 0.29232 0.68348 0.91061 0.0
H691 H 0.32421 0.80023 0.89791 0.0
H692 H 0.2931 0.76899 0.8989 0.0
H693 H 0.32375 0.73787 0.88151 0.0
H694 H 0.35499 0.76903 0.88085 0.0
H695 H 0.29892 0.72028 0.91615 0.0
H696 H 0.29517 0.74465 0.84229 0.0
H697 H 0.29604 0.76888 0.81473 0.0
H698 H 0.24755 0.76864 0.84914 0.0
H699 H 0.24656 0.7446 0.8771 0.0
C700 C 0.21518 0.64114 0.89408 0.0
C701 C 0.19741 0.64039 0.89993 0.0
C702 C 0.23273 0.65918 0.89281 0.0
C703 C 0.23291 0.67683 0.89753 0.0
C704 C 0.21518 0.67617 0.90318 0.0
C705 C 0.19759 0.65812 0.90443 0.0
C706 C 0.2516 0.69597 0.89639 0.0
C707 C 0.25273 0.71061 0.8816 0.0
C708 C 0.26847 0.69951 0.909 0.0
C709 C 0.26794 0.68507 0.92581 0.0
C710 C 0.25405 0.67812 0.94363 0.0
C711 C 0.25356 0.66442 0.95931 0.0
C712 C 0.26696 0.65766 0.95745 0.0
C713 C 0.28093 0.66463 0.93993 0.0
C714 C 0.28148 0.67832 0.92419 0.0
C715 C 0.32433 0.78676 0.89414 0.0
C716 C 0.3421 0.78713 0.88931 0.0
C717 C 0.30651 0.76892 0.89463 0.0
C718 C 0.30607 0.7511 0.89009 0.0
C719 C 0.32375 0.75144 0.88508 0.0
C720 C 0.34159 0.76928 0.88464 0.0
C721 C 0.28727 0.73206 0.89131 0.0
C722 C 0.2861 0.71744 0.90616 0.0
C723 C 0.27038 0.72854 0.87874 0.0
C724 C 0.27092 0.74297 0.86192 0.0
C725 C 0.2848 0.74989 0.84409 0.0
C726 C 0.28529 0.76356 0.82837 0.0
C727 C 0.27189 0.77034 0.83022 0.0
C728 C 0.25794 0.7634 0.84775 0.0
C729 C 0.25739 0.74974 0.86352 0.0
H730 H 0.2723 0.78092 0.81803 0.0
H731 H 0.26656 0.64706 0.96961 0.0
H732 H 0.56294 0.10621 0.06359 0.0
H733 H 0.54194 0.07504 0.04401 0.0
H734 H 0.5865 0.05858 0.05262 0.0
H735 H 0.60767 0.08978 0.07217 0.0
H736 H 0.57089 0.05086 0.00935 0.0
H737 H 0.54709 0.03866 0.08645 0.0
H738 H 0.53449 0.04509 0.12204 0.0
H739 H 0.48425 0.03965 0.08608 0.0
H740 H 0.4967 0.03346 0.05019 0.0
H741 H 0.51112 0.94885 0.98397 0.0
H742 H 0.53297 0.98054 0.00205 0.0
H743 H 0.48753 0.99618 0.99723 0.0
H744 H 0.46547 0.96438 0.97948 0.0
H745 H 0.50388 0.00441 0.03855 0.0
H746 H 0.52747 0.01651 0.96143 0.0
H747 H 0.54004 0.0102 0.92574 0.0
H748 H 0.59054 0.01595 0.9614 0.0
H749 H 0.57813 0.02203 0.99739 0.0
C750 C 0.5683 0.09598 0.0613 0.0
C751 C 0.58695 0.10044 0.06951 0.0
C752 C 0.55625 0.07815 0.05017 0.0
C753 C 0.5626 0.06443 0.04706 0.0
C754 C 0.58133 0.06896 0.05488 0.0
C755 C 0.59336 0.08677 0.06611 0.0
C756 C 0.54962 0.0453 0.03576 0.0
C757 C 0.55633 0.04057 0.01588 0.0
C758 C 0.53048 0.03211 0.04403 0.0
C759 C 0.52294 0.0358 0.06559 0.0
C760 C 0.53344 0.039 0.08609 0.0
C761 C 0.52631 0.04257 0.10633 0.0
C762 C 0.50861 0.04283 0.10631 0.0
C763 C 0.49797 0.03947 0.08606 0.0
C764 C 0.50506 0.03592 0.06577 0.0
C765 C 0.5058 0.95906 0.98667 0.0
C766 C 0.48656 0.9541 0.98027 0.0
C767 C 0.51834 0.97721 0.99692 0.0
C768 C 0.51195 0.99081 0.00079 0.0
C769 C 0.49277 0.9859 0.99439 0.0
C770 C 0.4802 0.96774 0.9842 0.0
C771 C 0.52508 0.00996 0.01203 0.0
C772 C 0.51842 0.01469 0.03196 0.0
C773 C 0.54425 0.02315 0.00377 0.0
C774 C 0.55176 0.01953 0.98215 0.0
C775 C 0.54117 0.01627 0.9617 0.0
C776 C 0.54829 0.01276 0.94141 0.0
C777 C 0.56605 0.01262 0.94132 0.0
C778 C 0.57676 0.01604 0.96151 0.0
C779 C 0.56971 0.01953 0.98185 0.0
H780 H 0.57153 0.00991 0.92559 0.0
H781 H 0.50311 0.04559 0.12199 0.0
H782 H 0.56487 0.53702 0.10704 0.0
H783 H 0.53797 0.53914 0.1254 0.0
H784 H 0.51254 0.47886 0.148 0.0
H785 H 0.5393 0.47654 0.12955 0.0
H786 H 0.4846 0.48686 0.13134 0.0
H787 H 0.53879 0.51588 0.18445 0.0
H788 H 0.57292 0.53891 0.19651 0.0
H789 H 0.5652 0.58808 0.18018 0.0
H790 H 0.53109 0.56532 0.16773 0.0
H791 H 0.42261 0.48419 0.22111 0.0
H792 H 0.44718 0.48283 0.19677 0.0
H793 H 0.47155 0.54433 0.17997 0.0
H794 H 0.4472 0.5459 0.20463 0.0
H795 H 0.49987 0.53687 0.19164 0.0
H796 H 0.44504 0.50808 0.14068 0.0
H797 H 0.41091 0.4852 0.12852 0.0
H798 H 0.41959 0.43596 0.1403 0.0
H799 H 0.4537 0.45853 0.15285 0.0
C800 C 0.55352 0.52418 0.11585 0.0
C801 C 0.55428 0.50664 0.11695 0.0
C802 C 0.53819 0.52544 0.12637 0.0
C803 C 0.52337 0.50921 0.13825 0.0
C804 C 0.52384 0.49155 0.13893 0.0
C805 C 0.53919 0.49029 0.12846 0.0
C806 C 0.50762 0.51076 0.15041 0.0
C807 C 0.48789 0.49766 0.14468 0.0
C808 C 0.51198 0.5252 0.16739 0.0
C809 C 0.53247 0.5389 0.17493 0.0
C810 C 0.54443 0.5316 0.18326 0.0
C811 C 0.56375 0.5446 0.1902 0.0
C812 C 0.57124 0.56494 0.18905 0.0
C813 C 0.5594 0.57232 0.18102 0.0
C814 C 0.54006 0.55938 0.17403 0.0
C815 C 0.43306 0.49739 0.21206 0.0
C816 C 0.43297 0.51517 0.21484 0.0
C817 C 0.44706 0.49656 0.19805 0.0
C818 C 0.46111 0.51344 0.18638 0.0
C819 C 0.46084 0.53113 0.18881 0.0
C820 C 0.44688 0.53198 0.20286 0.0
C821 C 0.47676 0.51289 0.17269 0.0
C822 C 0.49651 0.52617 0.17816 0.0
C823 C 0.47239 0.49863 0.15545 0.0
C824 C 0.45188 0.485 0.1479 0.0
C825 C 0.43962 0.49236 0.14086 0.0
C826 C 0.42029 0.47945 0.13386 0.0
C827 C 0.41307 0.45914 0.13369 0.0
C828 C 0.4252 0.4517 0.14047 0.0
C829 C 0.44454 0.46455 0.1475 0.0
H830 H 0.3981 0.44917 0.12826 0.0
H831 H 0.58621 0.57499 0.19443 0.0
H832 H 0.11186 0.58144 0.25698 0.0
H833 H 0.08181 0.56767 0.27998 0.0
H834 H 0.07729 0.51049 0.27766 0.0
H835 H 0.10707 0.52406 0.25432 0.0
H836 H 0.04302 0.50748 0.26796 0.0
H837 H 0.0916 0.539 0.32658 0.0
H838 H 0.12036 0.56646 0.34541 0.0
H839 H 0.0901 0.5994 0.34852 0.0
H840 H 0.06124 0.57224 0.32941 0.0
H841 H 0.96693 0.45991 0.34904 0.0
H842 H 0.99938 0.47494 0.33103 0.0
H843 H 0.00185 0.53119 0.32992 0.0
H844 H 0.96945 0.51631 0.34818 0.0
H845 H 0.03731 0.53482 0.34203 0.0
H846 H 0.98923 0.50367 0.28258 0.0
H847 H 0.96042 0.47618 0.26384 0.0
H848 H 0.99003 0.44256 0.26241 0.0
H849 H 0.01893 0.46976 0.28143 0.0
C850 C 0.10455 0.56597 0.26151 0.0
C851 C 0.11183 0.55384 0.25379 0.0
C852 C 0.08742 0.55813 0.27476 0.0
C853 C 0.07738 0.53807 0.28072 0.0
C854 C 0.08478 0.52601 0.27326 0.0
C855 C 0.10183 0.5338 0.25995 0.0
C856 C 0.05864 0.5294 0.2938 0.0
C857 C 0.04188 0.51328 0.28434 0.0
C858 C 0.05699 0.53729 0.31488 0.0
C859 C 0.07433 0.55365 0.32636 0.0
C860 C 0.09114 0.55216 0.3311 0.0
C861 C 0.10745 0.56766 0.34186 0.0
C862 C 0.10708 0.58469 0.3481 0.0
C863 C 0.09037 0.58622 0.34364 0.0
C864 C 0.07403 0.57077 0.33287 0.0
C865 C 0.97442 0.47551 0.34513 0.0
C866 C 0.96554 0.48688 0.34989 0.0
C867 C 0.99295 0.48407 0.33478 0.0
C868 C 0.0029 0.50412 0.32886 0.0
C869 C 0.9944 0.51568 0.33431 0.0
C870 C 0.97585 0.50713 0.34467 0.0
C871 C 0.02183 0.51286 0.31623 0.0
C872 C 0.03855 0.529 0.32572 0.0
C873 C 0.02349 0.50501 0.29516 0.0
C874 C 0.00616 0.48867 0.28364 0.0
C875 C 0.98953 0.49035 0.27843 0.0
C876 C 0.9732 0.47484 0.26773 0.0
C877 C 0.97337 0.45761 0.262 0.0
C878 C 0.9899 0.4559 0.26689 0.0
C879 C 0.00627 0.47136 0.27762 0.0
H880 H 0.96071 0.44562 0.25371 0.0
H881 H 0.11972 0.59667 0.35643 0.0
H882 H 0.52475 0.05367 0.46731 0.0
H883 H 0.51282 0.02196 0.48645 0.0
H884 H 0.4528 0.00704 0.47294 0.0
H885 H 0.4646 0.03879 0.45389 0.0
H886 H 0.45789 0.00021 0.517 0.0
H887 H 0.4734 0.98479 0.44362 0.0
H888 H 0.49419 0.98937 0.41001 0.0
H889 H 0.53603 0.98404 0.45234 0.0
H890 H 0.51562 0.97969 0.48627 0.0
H891 H 0.41395 0.90075 0.55354 0.0
H892 H 0.42455 0.93024 0.53019 0.0
H893 H 0.48532 0.94643 0.54063 0.0
H894 H 0.47482 0.91678 0.56369 0.0
H895 H 0.479 0.95202 0.49703 0.0
H896 H 0.46444 0.96885 0.57044 0.0
H897 H 0.44405 0.96465 0.60433 0.0
H898 H 0.40087 0.96779 0.56215 0.0
H899 H 0.4209 0.97174 0.52795 0.0
C900 C 0.50901 0.04358 0.46823 0.0
C901 C 0.49562 0.04877 0.45908 0.0
C902 C 0.50222 0.02542 0.47911 0.0
C903 C 0.48192 0.01207 0.48099 0.0
C904 C 0.46853 0.01712 0.47166 0.0
C905 C 0.47531 0.03525 0.46072 0.0
C906 C 0.47466 0.99322 0.49355 0.0
C907 C 0.46224 0.98951 0.5124 0.0
C908 C 0.48075 0.97951 0.4879 0.0
C909 C 0.49306 0.9821 0.46753 0.0
C910 C 0.48712 0.98476 0.4458 0.0
C911 C 0.49882 0.98728 0.42668 0.0
C912 C 0.51644 0.98705 0.42905 0.0
C913 C 0.52238 0.98424 0.45053 0.0
C914 C 0.51074 0.98173 0.46971 0.0
C915 C 0.42957 0.91056 0.55084 0.0
C916 C 0.44354 0.90646 0.56058 0.0
C917 C 0.43561 0.92745 0.53754 0.0
C918 C 0.45574 0.94068 0.53389 0.0
C919 C 0.46971 0.93644 0.54324 0.0
C920 C 0.46368 0.91952 0.55649 0.0
C921 C 0.46226 0.95904 0.5205 0.0
C922 C 0.47457 0.96267 0.50154 0.0
C923 C 0.45612 0.97273 0.52608 0.0
C924 C 0.44407 0.97038 0.54661 0.0
C925 C 0.45052 0.96848 0.56837 0.0
C926 C 0.43904 0.96618 0.58764 0.0
C927 C 0.42115 0.9659 0.58538 0.0
C928 C 0.41472 0.96797 0.56386 0.0
C929 C 0.42614 0.97026 0.54454 0.0
H930 H 0.41229 0.96412 0.60032 0.0
H931 H 0.52548 0.989 0.41422 0.0
H932 H 0.52681 0.45016 0.72889 0.0
H933 H 0.52393 0.47591 0.70864 0.0
H934 H 0.46192 0.44678 0.72468 0.0
H935 H 0.46464 0.42089 0.74487 0.0
H936 H 0.46905 0.4578 0.68 0.0
H937 H 0.49372 0.48784 0.7529 0.0
H938 H 0.51647 0.49898 0.7857 0.0
H939 H 0.56447 0.53698 0.74174 0.0
H940 H 0.54205 0.52586 0.70861 0.0
H941 H 0.45287 0.53521 0.64537 0.0
H942 H 0.45535 0.51053 0.66843 0.0
H943 H 0.51792 0.5398 0.65562 0.0
H944 H 0.51563 0.56474 0.63283 0.0
H945 H 0.51006 0.52869 0.69939 0.0
H946 H 0.48607 0.49822 0.62647 0.0
H947 H 0.46377 0.48695 0.59326 0.0
H948 H 0.41504 0.44965 0.63672 0.0
H949 H 0.43701 0.4609 0.67026 0.0
C950 C 0.51256 0.44925 0.72817 0.0
C951 C 0.49595 0.43349 0.73852 0.0
C952 C 0.51096 0.46402 0.71667 0.0
C953 C 0.49274 0.46335 0.71533 0.0
C954 C 0.47612 0.44759 0.72554 0.0
C955 C 0.47772 0.43285 0.73713 0.0
C956 C 0.49095 0.47888 0.70286 0.0
C957 C 0.47779 0.47328 0.68445 0.0
C958 C 0.50273 0.4991 0.70833 0.0
C959 C 0.51624 0.50587 0.72824 0.0
C960 C 0.50916 0.49845 0.7502 0.0
C961 C 0.52199 0.50478 0.76885 0.0
C962 C 0.54191 0.51864 0.7658 0.0
C963 C 0.54904 0.52623 0.74408 0.0
C964 C 0.53627 0.51993 0.72536 0.0
C965 C 0.46718 0.53646 0.64753 0.0
C966 C 0.48404 0.5519 0.63716 0.0
C967 C 0.46856 0.52229 0.66065 0.0
C968 C 0.48678 0.52316 0.66349 0.0
C969 C 0.50371 0.53882 0.65362 0.0
C970 C 0.50236 0.55303 0.64055 0.0
C971 C 0.48816 0.50762 0.6765 0.0
C972 C 0.50126 0.51321 0.69498 0.0
C973 C 0.47639 0.48738 0.67105 0.0
C974 C 0.46315 0.48056 0.65091 0.0
C975 C 0.47057 0.48773 0.62898 0.0
C976 C 0.45799 0.48133 0.61009 0.0
C977 C 0.43799 0.46764 0.61289 0.0
C978 C 0.43053 0.46028 0.63458 0.0
C979 C 0.44304 0.46665 0.65353 0.0
H980 H 0.42828 0.46269 0.59824 0.0
H981 H 0.55182 0.52353 0.78027 0.0
H982 H 0.88844 0.47412 0.75643 0.0
H983 H 0.9192 0.4867 0.7778 0.0
H984 H 0.90917 0.42756 0.78487 0.0
H985 H 0.87828 0.41482 0.76365 0.0
H986 H 0.92271 0.44871 0.82459 0.0
H987 H 0.94043 0.45747 0.74509 0.0
H988 H 0.94117 0.46904 0.70577 0.0
H989 H 0.96935 0.52893 0.7293 0.0
H990 H 0.96852 0.51767 0.76884 0.0
H991 H 0.02012 0.47056 0.85122 0.0
H992 H 0.9875 0.45866 0.8346 0.0
H993 H 0.00066 0.51863 0.82481 0.0
H994 H 0.03346 0.53067 0.84104 0.0
H995 H 0.98513 0.49764 0.78733 0.0
H996 H 0.96869 0.48917 0.86672 0.0
H997 H 0.96802 0.47768 0.90606 0.0
H998 H 0.93759 0.41759 0.88313 0.0
H999 H 0.93832 0.42873 0.84358 0.0
C1000 C 0.8927 0.46376 0.76264 0.0
C1001 C 0.88097 0.44348 0.75821 0.0
C1002 C 0.91032 0.47099 0.7748 0.0
C1003 C 0.91657 0.45808 0.78268 0.0
C1004 C 0.90462 0.43777 0.7789 0.0
C1005 C 0.88701 0.43053 0.7667 0.0
C1006 C 0.93588 0.46583 0.79426 0.0
C1007 C 0.9364 0.45925 0.81638 0.0
C1008 C 0.95366 0.47991 0.78371 0.0
C1009 C 0.95422 0.48671 0.75995 0.0
C1010 C 0.94663 0.47309 0.7419 0.0
C1011 C 0.9471 0.47959 0.71957 0.0
C1012 C 0.95525 0.4997 0.71505 0.0
C1013 C 0.96301 0.51335 0.73284 0.0
C1014 C 0.96256 0.50692 0.75521 0.0
C1015 C 0.01603 0.48123 0.84568 0.0
C1016 C 0.0294 0.50157 0.84743 0.0
C1017 C 0.99733 0.47439 0.83628 0.0
C1018 C 0.99155 0.48775 0.82866 0.0
C1019 C 0.0048 0.50806 0.8306 0.0
C1020 C 0.02353 0.51491 0.83992 0.0
C1021 C 0.97204 0.48056 0.81774 0.0
C1022 C 0.97147 0.48719 0.79565 0.0
C1023 C 0.95423 0.46656 0.82836 0.0
C1024 C 0.95373 0.4598 0.85214 0.0
C1025 C 0.962 0.47351 0.87003 0.0
C1026 C 0.96158 0.46706 0.89238 0.0
C1027 C 0.95281 0.44692 0.89709 0.0
C1028 C 0.9444 0.43319 0.87946 0.0
C1029 C 0.94479 0.43956 0.85707 0.0
H1030 H 0.9525 0.44196 0.9144 0.0
H1031 H 0.95561 0.50471 0.69774 0.0
loop_
_geom_bond_atom_site_label_1
_geom_bond_atom_site_label_2
_geom_bond_distance
_geom_bond_site_symmetry_2
_ccdc_geom_bond_type
O0 Cd1 2.300 . S
O0 C7 1.275 . S
Cd1 O0 2.300 . S
Cd1 O9 2.381 . S
Cd1 O10 2.378 . S
O2 Cd3 2.385 . S
O2 C7 1.255 . S
Cd3 O2 2.385 . S
Cd3 O4 2.317 . S
O4 Cd3 2.317 . S
O4 C5 1.232 . S
C5 O4 1.232 . S
C5 O6 1.218 . S
O6 C5 1.218 . S
C7 O0 1.275 . S
C7 O2 1.255 . S
C8 O9 1.258 . S
C8 O10 1.256 . S
O9 Cd1 2.381 . S
O9 C8 1.258 . S
O10 Cd1 2.378 . S
O10 C8 1.256 . S
O11 Cd12 2.300 . S
O11 C18 1.275 . S
Cd12 O11 2.300 . S
Cd12 O20 2.381 . S
Cd12 O21 2.378 . S
O13 Cd14 2.385 . S
O13 C18 1.255 . S
Cd14 O13 2.385 . S
Cd14 O15 2.317 . S
O15 Cd14 2.317 . S
O15 C16 1.232 . S
C16 O15 1.232 . S
C16 O17 1.218 . S
O17 C16 1.218 . S
C18 O11 1.275 . S
C18 O13 1.255 . S
C19 O20 1.258 . S
C19 O21 1.256 . S
O20 Cd12 2.381 . S
O20 C19 1.258 . S
O21 Cd12 2.378 . S
O21 C19 1.256 . S
O22 Cd23 2.300 . S
O22 C29 1.275 . S
Cd23 O22 2.300 . S
Cd23 O31 2.381 . S
Cd23 O32 2.378 . S
O24 Cd25 2.385 . S
O24 C29 1.255 . S
Cd25 O24 2.385 . S
Cd25 O26 2.317 . S
O26 Cd25 2.317 . S
O26 C27 1.232 . S
C27 O26 1.232 . S
C27 O28 1.218 . S
O28 C27 1.218 . S
C29 O22 1.275 . S
C29 O24 1.255 . S
C30 O31 1.258 . S
C30 O32 1.256 . S
O31 Cd23 2.381 . S
O31 C30 1.258 . S
O32 Cd23 2.378 . S
O32 C30 1.256 . S
O33 Cd34 2.300 . S
O33 C40 1.275 . S
Cd34 O33 2.300 . S
Cd34 O42 2.381 . S
Cd34 O43 2.378 . S
O35 Cd36 2.385 . S
O35 C40 1.255 . S
Cd36 O35 2.385 . S
Cd36 O37 2.317 . S
O37 Cd36 2.317 . S
O37 C38 1.232 . S
C38 O37 1.232 . S
C38 O39 1.218 . S
O39 C38 1.218 . S
C40 O33 1.275 . S
C40 O35 1.255 . S
C41 O42 1.258 . S
C41 O43 1.256 . S
O42 Cd34 2.381 . S
O42 C41 1.258 . S
O43 Cd34 2.378 . S
O43 C41 1.256 . S
O44 Cd45 2.300 . S
O44 C51 1.275 . S
Cd45 O44 2.300 . S
Cd45 O53 2.381 . S
Cd45 O54 2.378 . S
O46 Cd47 2.385 . S
O46 C51 1.255 . S
Cd47 O46 2.385 . S
Cd47 O48 2.317 . S
O48 Cd47 2.317 . S
O48 C49 1.232 . S
C49 O48 1.232 . S
C49 O50 1.218 . S
O50 C49 1.218 . S
C51 O44 1.275 . S
C51 O46 1.255 . S
C52 O53 1.258 . S
C52 O54 1.256 . S
O53 Cd45 2.381 . S
O53 C52 1.258 . S
O54 Cd45 2.378 . S
O54 C52 1.256 . S
O55 Cd56 2.300 . S
O55 C62 1.275 . S
Cd56 O55 2.300 . S
Cd56 O64 2.381 . S
Cd56 O65 2.378 . S
O57 Cd58 2.385 . S
O57 C62 1.255 . S
Cd58 O57 2.385 . S
Cd58 O59 2.317 . S
O59 Cd58 2.317 . S
O59 C60 1.232 . S
C60 O59 1.232 . S
C60 O61 1.218 . S
O61 C60 1.218 . S
C62 O55 1.275 . S
C62 O57 1.255 . S
C63 O64 1.258 . S
C63 O65 1.256 . S
O64 Cd56 2.381 . S
O64 C63 1.258 . S
O65 Cd56 2.378 . S
O65 C63 1.256 . S
O66 Cd67 2.300 . S
O66 C73 1.275 . S
Cd67 O66 2.300 . S
Cd67 O75 2.381 . S
Cd67 O76 2.378 . S
O68 Cd69 2.385 . S
O68 C73 1.255 . S
Cd69 O68 2.385 . S
Cd69 O70 2.317 . S
O70 Cd69 2.317 . S
O70 C71 1.232 . S
C71 O70 1.232 . S
C71 O72 1.218 . S
O72 C71 1.218 . S
C73 O66 1.275 . S
C73 O68 1.255 . S
C74 O75 1.258 . S
C74 O76 1.256 . S
O75 Cd67 2.381 . S
O75 C74 1.258 . S
O76 Cd67 2.378 . S
O76 C74 1.256 . S
O77 Cd78 2.300 . S
O77 C84 1.275 . S
Cd78 O77 2.300 . S
Cd78 O86 2.381 . S
Cd78 O87 2.378 . S
O79 Cd80 2.385 . S
O79 C84 1.255 . S
Cd80 O79 2.385 . S
Cd80 O81 2.317 . S
O81 Cd80 2.317 . S
O81 C82 1.232 . S
C82 O81 1.232 . S
C82 O83 1.218 . S
O83 C82 1.218 . S
C84 O77 1.275 . S
C84 O79 1.255 . S
C85 O86 1.258 . S
C85 O87 1.256 . S
O86 Cd78 2.381 . S
O86 C85 1.258 . S
O87 Cd78 2.378 . S
O87 C85 1.256 . S
O88 Cd89 2.300 . S
O88 C95 1.275 . S
Cd89 O88 2.300 . S
Cd89 O97 2.381 . S
Cd89 O98 2.378 . S
O90 Cd91 2.385 . S
O90 C95 1.255 . S
Cd91 O90 2.385 . S
Cd91 O92 2.317 . S
O92 Cd91 2.317 . S
O92 C93 1.232 . S
C93 O92 1.232 . S
C93 O94 1.218 . S
O94 C93 1.218 . S
C95 O88 1.275 . S
C95 O90 1.255 . S
C96 O97 1.258 . S
C96 O98 1.256 . S
O97 Cd89 2.381 . S
O97 C96 1.258 . S
O98 Cd89 2.378 . S
O98 C96 1.256 . S
O99 Cd100 2.300 . S
O99 C106 1.275 . S
Cd100 O99 2.300 . S
Cd100 O108 2.381 . S
Cd100 O109 2.378 . S
O101 Cd102 2.385 . S
O101 C106 1.255 . S
Cd102 O101 2.385 . S
Cd102 O103 2.317 . S
O103 Cd102 2.317 . S
O103 C104 1.232 . S
C104 O103 1.232 . S
C104 O105 1.218 . S
O105 C104 1.218 . S
C106 O99 1.275 . S
C106 O101 1.255 . S
C107 O108 1.258 . S
C107 O109 1.256 . S
O108 Cd100 2.381 . S
O108 C107 1.258 . S
O109 Cd100 2.378 . S
O109 C107 1.256 . S
O110 Cd111 2.300 . S
O110 C117 1.275 . S
Cd111 O110 2.300 . S
Cd111 O119 2.381 . S
Cd111 O120 2.378 . S
O112 Cd113 2.385 . S
O112 C117 1.255 . S
Cd113 O112 2.385 . S
Cd113 O114 2.317 . S
O114 Cd113 2.317 . S
O114 C115 1.232 . S
C115 O114 1.232 . S
C115 O116 1.218 . S
O116 C115 1.218 . S
C117 O110 1.275 . S
C117 O112 1.255 . S
C118 O119 1.258 . S
C118 O120 1.256 . S
O119 Cd111 2.381 . S
O119 C118 1.258 . S
O120 Cd111 2.378 . S
O120 C118 1.256 . S
O121 Cd122 2.300 . S
O121 C128 1.275 . S
Cd122 O121 2.300 . S
Cd122 O130 2.381 . S
Cd122 O131 2.378 . S
O123 Cd124 2.385 . S
O123 C128 1.255 . S
Cd124 O123 2.385 . S
Cd124 O125 2.317 . S
O125 Cd124 2.317 . S
O125 C126 1.232 . S
C126 O125 1.232 . S
C126 O127 1.218 . S
O127 C126 1.218 . S
C128 O121 1.275 . S
C128 O123 1.255 . S
C129 O130 1.258 . S
C129 O131 1.256 . S
O130 Cd122 2.381 . S
O130 C129 1.258 . S
O131 Cd122 2.378 . S
O131 C129 1.256 . S
H132 C150 0.951 . S
H133 C152 0.951 . S
H134 C154 0.950 . S
H135 C155 0.950 . S
H136 C157 0.950 . S
H137 C160 0.950 . S
H138 C161 0.950 . S
H139 C163 0.950 . S
H140 C164 0.950 . S
H141 C165 0.951 . S
H142 C167 0.951 . S
H143 C169 0.950 . S
H144 C170 0.950 . S
H145 C172 0.950 . S
H146 C175 0.950 . S
H147 C176 0.950 . S
H148 C178 0.950 . S
H149 C179 0.950 . S
C150 H132 0.951 . S
C150 C151 1.366 . S
C150 C152 1.388 . S
C151 C150 1.366 . S
C151 C155 1.385 . S
C152 H133 0.951 . S
C152 C150 1.388 . S
C152 C153 1.366 . S
C153 C152 1.366 . S
C153 C154 1.414 . S
C153 C156 1.499 . S
C154 H134 0.950 . S
C154 C153 1.414 . S
C154 C155 1.374 . S
C155 H135 0.950 . S
C155 C151 1.385 . S
C155 C154 1.374 . S
C156 C153 1.499 . S
C156 C157 1.373 . S
C156 C158 1.389 . S
C157 H136 0.950 . S
C157 C156 1.373 . S
C157 C173 1.377 . S
C158 C156 1.389 . S
C158 C159 1.524 . S
C158 C172 1.377 . S
C159 C158 1.524 . S
C159 C160 1.397 . S
C159 C164 1.363 . S
C160 H137 0.950 . S
C160 C159 1.397 . S
C160 C161 1.334 . S
C161 H138 0.950 . S
C161 C160 1.334 . S
C161 C162 1.287 . S
C162 C161 1.287 . S
C162 C163 1.524 . S
C162 H181 0.913 . S
C163 H139 0.950 . S
C163 C162 1.524 . S
C163 C164 1.415 . S
C164 H140 0.950 . S
C164 C159 1.363 . S
C164 C163 1.415 . S
C165 H141 0.951 . S
C165 C166 1.366 . S
C165 C167 1.388 . S
C166 C165 1.366 . S
C166 C170 1.385 . S
C167 H142 0.951 . S
C167 C165 1.388 . S
C167 C168 1.366 . S
C168 C167 1.366 . S
C168 C169 1.414 . S
C168 C171 1.499 . S
C169 H143 0.950 . S
C169 C168 1.414 . S
C169 C170 1.374 . S
C170 H144 0.950 . S
C170 C166 1.385 . S
C170 C169 1.374 . S
C171 C168 1.499 . S
C171 C172 1.373 . S
C171 C173 1.389 . S
C172 H145 0.950 . S
C172 C158 1.377 . S
C172 C171 1.373 . S
C173 C157 1.377 . S
C173 C171 1.389 . S
C173 C174 1.524 . S
C174 C173 1.524 . S
C174 C175 1.397 . S
C174 C179 1.363 . S
C175 H146 0.950 . S
C175 C174 1.397 . S
C175 C176 1.334 . S
C176 H147 0.950 . S
C176 C175 1.334 . S
C176 C177 1.287 . S
C177 C176 1.287 . S
C177 C178 1.524 . S
C177 H180 0.999 . S
C178 H148 0.950 . S
C178 C177 1.524 . S
C178 C179 1.415 . S
C179 H149 0.950 . S
C179 C174 1.363 . S
C179 C178 1.415 . S
H180 C177 0.999 . S
H181 C162 0.913 . S
H182 C200 0.951 . S
H183 C202 0.951 . S
H184 C204 0.950 . S
H185 C205 0.950 . S
H186 C207 0.950 . S
H187 C210 0.950 . S
H188 C211 0.950 . S
H189 C213 0.950 . S
H190 C214 0.950 . S
H191 C215 0.951 . S
H192 C217 0.951 . S
H193 C219 0.950 . S
H194 C220 0.950 . S
H195 C222 0.950 . S
H196 C225 0.950 . S
H197 C226 0.950 . S
H198 C228 0.950 . S
H199 C229 0.950 . S
C200 H182 0.951 . S
C200 C201 1.366 . S
C200 C202 1.388 . S
C201 C200 1.366 . S
C201 C205 1.385 . S
C202 H183 0.951 . S
C202 C200 1.388 . S
C202 C203 1.366 . S
C203 C202 1.366 . S
C203 C204 1.414 . S
C203 C206 1.499 . S
C204 H184 0.950 . S
C204 C203 1.414 . S
C204 C205 1.374 . S
C205 H185 0.950 . S
C205 C201 1.385 . S
C205 C204 1.374 . S
C206 C203 1.499 . S
C206 C207 1.373 . S
C206 C208 1.389 . S
C207 H186 0.950 . S
C207 C206 1.373 . S
C207 C223 1.377 . S
C208 C206 1.389 . S
C208 C209 1.524 . S
C208 C222 1.377 . S
C209 C208 1.524 . S
C209 C210 1.397 . S
C209 C214 1.363 . S
C210 H187 0.950 . S
C210 C209 1.397 . S
C210 C211 1.334 . S
C211 H188 0.950 . S
C211 C210 1.334 . S
C211 C212 1.287 . S
C212 C211 1.287 . S
C212 C213 1.524 . S
C212 H231 0.913 . S
C213 H189 0.950 . S
C213 C212 1.524 . S
C213 C214 1.415 . S
C214 H190 0.950 . S
C214 C209 1.363 . S
C214 C213 1.415 . S
C215 H191 0.951 . S
C215 C216 1.366 . S
C215 C217 1.388 . S
C216 C215 1.366 . S
C216 C220 1.385 . S
C217 H192 0.951 . S
C217 C215 1.388 . S
C217 C218 1.366 . S
C218 C217 1.366 . S
C218 C219 1.414 . S
C218 C221 1.499 . S
C219 H193 0.950 . S
C219 C218 1.414 . S
C219 C220 1.374 . S
C220 H194 0.950 . S
C220 C216 1.385 . S
C220 C219 1.374 . S
C221 C218 1.499 . S
C221 C222 1.373 . S
C221 C223 1.389 . S
C222 H195 0.950 . S
C222 C208 1.377 . S
C222 C221 1.373 . S
C223 C207 1.377 . S
C223 C221 1.389 . S
C223 C224 1.524 . S
C224 C223 1.524 . S
C224 C225 1.397 . S
C224 C229 1.363 . S
C225 H196 0.950 . S
C225 C224 1.397 . S
C225 C226 1.334 . S
C226 H197 0.950 . S
C226 C225 1.334 . S
C226 C227 1.287 . S
C227 C226 1.287 . S
C227 C228 1.524 . S
C227 H230 0.999 . S
C228 H198 0.950 . S
C228 C227 1.524 . S
C228 C229 1.415 . S
C229 H199 0.950 . S
C229 C224 1.363 . S
C229 C228 1.415 . S
H230 C227 0.999 . S
H231 C212 0.913 . S
H232 C250 0.951 . S
H233 C252 0.951 . S
H234 C254 0.950 . S
H235 C255 0.950 . S
H236 C257 0.950 . S
H237 C260 0.950 . S
H238 C261 0.950 . S
H239 C263 0.950 . S
H240 C264 0.950 . S
H241 C265 0.951 . S
H242 C267 0.951 . S
H243 C269 0.950 . S
H244 C270 0.950 . S
H245 C272 0.950 . S
H246 C275 0.950 . S
H247 C276 0.950 . S
H248 C278 0.950 . S
H249 C279 0.950 . S
C250 H232 0.951 . S
C250 C251 1.366 . S
C250 C252 1.388 . S
C251 C250 1.366 . S
C251 C255 1.385 . S
C252 H233 0.951 . S
C252 C250 1.388 . S
C252 C253 1.366 . S
C253 C252 1.366 . S
C253 C254 1.414 . S
C253 C256 1.499 . S
C254 H234 0.950 . S
C254 C253 1.414 . S
C254 C255 1.374 . S
C255 H235 0.950 . S
C255 C251 1.385 . S
C255 C254 1.374 . S
C256 C253 1.499 . S
C256 C257 1.373 . S
C256 C258 1.389 . S
C257 H236 0.950 . S
C257 C256 1.373 . S
C257 C273 1.377 . S
C258 C256 1.389 . S
C258 C259 1.524 . S
C258 C272 1.377 . S
C259 C258 1.524 . S
C259 C260 1.397 . S
C259 C264 1.363 . S
C260 H237 0.950 . S
C260 C259 1.397 . S
C260 C261 1.334 . S
C261 H238 0.950 . S
C261 C260 1.334 . S
C261 C262 1.287 . S
C262 C261 1.287 . S
C262 C263 1.524 . S
C262 H281 0.913 . S
C263 H239 0.950 . S
C263 C262 1.524 . S
C263 C264 1.415 . S
C264 H240 0.950 . S
C264 C259 1.363 . S
C264 C263 1.415 . S
C265 H241 0.951 . S
C265 C266 1.366 . S
C265 C267 1.388 . S
C266 C265 1.366 . S
C266 C270 1.385 . S
C267 H242 0.951 . S
C267 C265 1.388 . S
C267 C268 1.366 . S
C268 C267 1.366 . S
C268 C269 1.414 . S
C268 C271 1.499 . S
C269 H243 0.950 . S
C269 C268 1.414 . S
C269 C270 1.374 . S
C270 H244 0.950 . S
C270 C266 1.385 . S
C270 C269 1.374 . S
C271 C268 1.499 . S
C271 C272 1.373 . S
C271 C273 1.389 . S
C272 H245 0.950 . S
C272 C258 1.377 . S
C272 C271 1.373 . S
C273 C257 1.377 . S
C273 C271 1.389 . S
C273 C274 1.524 . S
C274 C273 1.524 . S
C274 C275 1.397 . S
C274 C279 1.363 . S
C275 H246 0.950 . S
C275 C274 1.397 . S
C275 C276 1.334 . S
C276 H247 0.950 . S
C276 C275 1.334 . S
C276 C277 1.287 . S
C277 C276 1.287 . S
C277 C278 1.524 . S
C277 H280 0.999 . S
C278 H248 0.950 . S
C278 C277 1.524 . S
C278 C279 1.415 . S
C279 H249 0.950 . S
C279 C274 1.363 . S
C279 C278 1.415 . S
H280 C277 0.999 . S
H281 C262 0.913 . S
H282 C300 0.951 . S
H283 C302 0.951 . S
H284 C304 0.950 . S
H285 C305 0.950 . S
H286 C307 0.950 . S
H287 C310 0.950 . S
H288 C311 0.950 . S
H289 C313 0.950 . S
H290 C314 0.950 . S
H291 C315 0.951 . S
H292 C317 0.951 . S
H293 C319 0.950 . S
H294 C320 0.950 . S
H295 C322 0.950 . S
H296 C325 0.950 . S
H297 C326 0.950 . S
H298 C328 0.950 . S
H299 C329 0.950 . S
C300 H282 0.951 . S
C300 C301 1.366 . S
C300 C302 1.388 . S
C301 C300 1.366 . S
C301 C305 1.385 . S
C302 H283 0.951 . S
C302 C300 1.388 . S
C302 C303 1.366 . S
C303 C302 1.366 . S
C303 C304 1.414 . S
C303 C306 1.499 . S
C304 H284 0.950 . S
C304 C303 1.414 . S
C304 C305 1.374 . S
C305 H285 0.950 . S
C305 C301 1.385 . S
C305 C304 1.374 . S
C306 C303 1.499 . S
C306 C307 1.373 . S
C306 C308 1.389 . S
C307 H286 0.950 . S
C307 C306 1.373 . S
C307 C323 1.377 . S
C308 C306 1.389 . S
C308 C309 1.524 . S
C308 C322 1.377 . S
C309 C308 1.524 . S
C309 C310 1.397 . S
C309 C314 1.363 . S
C310 H287 0.950 . S
C310 C309 1.397 . S
C310 C311 1.334 . S
C311 H288 0.950 . S
C311 C310 1.334 . S
C311 C312 1.287 . S
C312 C311 1.287 . S
C312 C313 1.524 . S
C312 H331 0.913 . S
C313 H289 0.950 . S
C313 C312 1.524 . S
C313 C314 1.415 . S
C314 H290 0.950 . S
C314 C309 1.363 . S
C314 C313 1.415 . S
C315 H291 0.951 . S
C315 C316 1.366 . S
C315 C317 1.388 . S
C316 C315 1.366 . S
C316 C320 1.385 . S
C317 H292 0.951 . S
C317 C315 1.388 . S
C317 C318 1.366 . S
C318 C317 1.366 . S
C318 C319 1.414 . S
C318 C321 1.499 . S
C319 H293 0.950 . S
C319 C318 1.414 . S
C319 C320 1.374 . S
C320 H294 0.950 . S
C320 C316 1.385 . S
C320 C319 1.374 . S
C321 C318 1.499 . S
C321 C322 1.373 . S
C321 C323 1.389 . S
C322 H295 0.950 . S
C322 C308 1.377 . S
C322 C321 1.373 . S
C323 C307 1.377 . S
C323 C321 1.389 . S
C323 C324 1.524 . S
C324 C323 1.524 . S
C324 C325 1.397 . S
C324 C329 1.363 . S
C325 H296 0.950 . S
C325 C324 1.397 . S
C325 C326 1.334 . S
C326 H297 0.950 . S
C326 C325 1.334 . S
C326 C327 1.287 . S
C327 C326 1.287 . S
C327 C328 1.524 . S
C327 H330 0.999 . S
C328 H298 0.950 . S
C328 C327 1.524 . S
C328 C329 1.415 . S
C329 H299 0.950 . S
C329 C324 1.363 . S
C329 C328 1.415 . S
H330 C327 0.999 . S
H331 C312 0.913 . S
H332 C350 0.949 1_554 S
H333 C352 0.951 . S
H334 C354 0.950 . S
H335 C355 0.950 . S
H336 C357 0.950 . S
H337 C360 0.950 . S
H338 C361 0.950 . S
H339 C363 0.950 . S
H340 C364 0.950 . S
H341 C365 0.951 . S
H342 C367 0.951 . S
H343 C369 0.950 . S
H344 C370 0.950 . S
H345 C372 0.950 . S
H346 C375 0.950 . S
H347 C376 0.950 . S
H348 C378 0.950 . S
H349 C379 0.950 . S
C350 H332 0.949 1_556 S
C350 C351 1.363 1_556 S
C350 C352 1.393 . S
C351 C350 1.363 1_554 S
C351 C355 1.385 . S
C352 H333 0.951 . S
C352 C350 1.393 . S
C352 C353 1.366 . S
C353 C352 1.366 . S
C353 C354 1.414 . S
C353 C356 1.499 . S
C354 H334 0.950 . S
C354 C353 1.414 . S
C354 C355 1.374 1_556 S
C355 H335 0.950 . S
C355 C351 1.385 . S
C355 C354 1.374 1_554 S
C356 C353 1.499 . S
C356 C357 1.373 . S
C356 C358 1.389 . S
C357 H336 0.950 . S
C357 C356 1.373 . S
C357 C373 1.377 . S
C358 C356 1.389 . S
C358 C359 1.524 . S
C358 C372 1.377 . S
C359 C358 1.524 . S
C359 C360 1.397 . S
C359 C364 1.363 . S
C360 H337 0.950 . S
C360 C359 1.397 . S
C360 C361 1.334 . S
C361 H338 0.950 . S
C361 C360 1.334 . S
C361 C362 1.287 . S
C362 C361 1.287 . S
C362 C363 1.524 . S
C362 H381 0.913 . S
C363 H339 0.950 . S
C363 C362 1.524 . S
C363 C364 1.415 . S
C364 H340 0.950 . S
C364 C359 1.363 . S
C364 C363 1.415 . S
C365 H341 0.951 . S
C365 C366 1.366 . S
C365 C367 1.388 . S
C366 C365 1.366 . S
C366 C370 1.385 . S
C367 H342 0.951 . S
C367 C365 1.388 . S
C367 C368 1.366 . S
C368 C367 1.366 . S
C368 C369 1.414 . S
C368 C371 1.499 . S
C369 H343 0.950 . S
C369 C368 1.414 . S
C369 C370 1.374 . S
C370 H344 0.950 . S
C370 C366 1.385 . S
C370 C369 1.374 . S
C371 C368 1.499 . S
C371 C372 1.373 . S
C371 C373 1.389 . S
C372 H345 0.950 . S
C372 C358 1.377 . S
C372 C371 1.373 . S
C373 C357 1.377 . S
C373 C371 1.389 . S
C373 C374 1.524 . S
C374 C373 1.524 . S
C374 C375 1.397 . S
C374 C379 1.363 . S
C375 H346 0.950 . S
C375 C374 1.397 . S
C375 C376 1.334 . S
C376 H347 0.950 . S
C376 C375 1.334 . S
C376 C377 1.287 . S
C377 C376 1.287 . S
C377 C378 1.524 . S
C377 H380 0.999 . S
C378 H348 0.950 . S
C378 C377 1.524 . S
C378 C379 1.415 . S
C379 H349 0.950 . S
C379 C374 1.363 . S
C379 C378 1.415 . S
H380 C377 0.999 . S
H381 C362 0.913 . S
H382 C400 0.951 . S
H383 C402 0.951 . S
H384 C404 0.950 . S
H385 C405 0.951 . S
H386 C407 0.950 . S
H387 C410 0.950 . S
H388 C411 0.950 . S
H389 C413 0.950 . S
H390 C414 0.950 . S
H391 C415 0.951 . S
H392 C417 0.951 . S
H393 C419 0.950 . S
H394 C420 0.950 . S
H395 C422 0.950 . S
H396 C425 0.950 . S
H397 C426 0.950 . S
H398 C428 0.950 . S
H399 C429 0.950 . S
C400 H382 0.951 . S
C400 C401 1.366 . S
C400 C402 1.388 1_556 S
C401 C400 1.366 . S
C401 C405 1.386 . S
C402 H383 0.951 . S
C402 C400 1.388 1_554 S
C402 C403 1.366 . S
C403 C402 1.366 . S
C403 C404 1.414 . S
C403 C406 1.499 . S
C404 H384 0.950 . S
C404 C403 1.414 . S
C404 C405 1.371 1_554 S
C405 H385 0.951 . S
C405 C401 1.386 . S
C405 C404 1.371 1_556 S
C406 C403 1.499 . S
C406 C407 1.373 . S
C406 C408 1.389 . S
C407 H386 0.950 . S
C407 C406 1.373 . S
C407 C423 1.377 . S
C408 C406 1.389 . S
C408 C409 1.524 . S
C408 C422 1.377 . S
C409 C408 1.524 . S
C409 C410 1.397 . S
C409 C414 1.363 . S
C410 H387 0.950 . S
C410 C409 1.397 . S
C410 C411 1.334 . S
C411 H388 0.950 . S
C411 C410 1.334 . S
C411 C412 1.287 . S
C412 C411 1.287 . S
C412 C413 1.524 . S
C412 H431 0.913 . S
C413 H389 0.950 . S
C413 C412 1.524 . S
C413 C414 1.415 . S
C414 H390 0.950 . S
C414 C409 1.363 . S
C414 C413 1.415 . S
C415 H391 0.951 . S
C415 C416 1.366 . S
C415 C417 1.388 . S
C416 C415 1.366 . S
C416 C420 1.385 . S
C417 H392 0.951 . S
C417 C415 1.388 . S
C417 C418 1.366 . S
C418 C417 1.366 . S
C418 C419 1.414 . S
C418 C421 1.499 . S
C419 H393 0.950 . S
C419 C418 1.414 . S
C419 C420 1.374 . S
C420 H394 0.950 . S
C420 C416 1.385 . S
C420 C419 1.374 . S
C421 C418 1.499 . S
C421 C422 1.373 . S
C421 C423 1.389 . S
C422 H395 0.950 . S
C422 C408 1.377 . S
C422 C421 1.373 . S
C423 C407 1.377 . S
C423 C421 1.389 . S
C423 C424 1.524 . S
C424 C423 1.524 . S
C424 C425 1.397 . S
C424 C429 1.363 . S
C425 H396 0.950 . S
C425 C424 1.397 . S
C425 C426 1.334 . S
C426 H397 0.950 . S
C426 C425 1.334 . S
C426 C427 1.287 . S
C427 C426 1.287 . S
C427 C428 1.524 . S
C427 H430 0.999 . S
C428 H398 0.950 . S
C428 C427 1.524 . S
C428 C429 1.415 . S
C429 H399 0.950 . S
C429 C424 1.363 . S
C429 C428 1.415 . S
H430 C427 0.999 . S
H431 C412 0.913 . S
H432 C450 0.951 . S
H433 C452 0.951 . S
H434 C454 0.950 . S
H435 C455 0.950 . S
H436 C457 0.950 . S
H437 C460 0.950 . S
H438 C461 0.950 . S
H439 C463 0.950 1_556 S
H440 C464 0.950 . S
H441 C465 0.951 . S
H442 C467 0.951 . S
H443 C469 0.950 . S
H444 C470 0.950 . S
H445 C472 0.950 . S
H446 C475 0.950 . S
H447 C476 0.950 . S
H448 C478 0.950 . S
H449 C479 0.950 . S
C450 H432 0.951 . S
C450 C451 1.366 . S
C450 C452 1.388 . S
C451 C450 1.366 . S
C451 C455 1.385 . S
C452 H433 0.951 . S
C452 C450 1.388 . S
C452 C453 1.366 . S
C453 C452 1.366 . S
C453 C454 1.414 . S
C453 C456 1.499 . S
C454 H434 0.950 . S
C454 C453 1.414 . S
C454 C455 1.374 . S
C455 H435 0.950 . S
C455 C451 1.385 . S
C455 C454 1.374 . S
C456 C453 1.499 . S
C456 C457 1.373 . S
C456 C458 1.389 . S
C457 H436 0.950 . S
C457 C456 1.373 . S
C457 C473 1.377 . S
C458 C456 1.389 . S
C458 C459 1.524 . S
C458 C472 1.377 . S
C459 C458 1.524 . S
C459 C460 1.397 . S
C459 C464 1.363 . S
C460 H437 0.950 . S
C460 C459 1.397 . S
C460 C461 1.334 . S
C461 H438 0.950 . S
C461 C460 1.334 . S
C461 C462 1.285 . S
C462 C461 1.285 . S
C462 C463 1.523 . S
C462 H481 0.915 1_554 S
C463 H439 0.950 1_554 S
C463 C462 1.523 . S
C463 C464 1.415 . S
C464 H440 0.950 . S
C464 C459 1.363 . S
C464 C463 1.415 . S
C465 H441 0.951 . S
C465 C466 1.366 . S
C465 C467 1.388 . S
C466 C465 1.366 . S
C466 C470 1.385 . S
C467 H442 0.951 . S
C467 C465 1.388 . S
C467 C468 1.366 . S
C468 C467 1.366 . S
C468 C469 1.414 . S
C468 C471 1.499 . S
C469 H443 0.950 . S
C469 C468 1.414 . S
C469 C470 1.374 . S
C470 H444 0.950 . S
C470 C466 1.385 . S
C470 C469 1.374 . S
C471 C468 1.499 . S
C471 C472 1.373 . S
C471 C473 1.389 . S
C472 H445 0.950 . S
C472 C458 1.377 . S
C472 C471 1.373 . S
C473 C457 1.377 . S
C473 C471 1.389 . S
C473 C474 1.524 . S
C474 C473 1.524 . S
C474 C475 1.397 . S
C474 C479 1.363 . S
C475 H446 0.950 . S
C475 C474 1.397 . S
C475 C476 1.334 . S
C476 H447 0.950 . S
C476 C475 1.334 . S
C476 C477 1.287 . S
C477 C476 1.287 . S
C477 C478 1.524 . S
C477 H480 0.999 . S
C478 H448 0.950 . S
C478 C477 1.524 . S
C478 C479 1.415 . S
C479 H449 0.950 . S
C479 C474 1.363 . S
C479 C478 1.415 . S
H480 C477 0.999 . S
H481 C462 0.915 1_556 S
H482 C500 0.951 . S
H483 C502 0.951 . S
H484 C504 0.950 . S
H485 C505 0.950 . S
H486 C507 0.950 . S
H487 C510 0.950 . S
H488 C511 0.950 . S
H489 C513 0.950 . S
H490 C514 0.950 . S
H491 C515 0.951 . S
H492 C517 0.951 . S
H493 C519 0.950 . S
H494 C520 0.950 . S
H495 C522 0.950 . S
H496 C525 0.950 . S
H497 C526 0.950 . S
H498 C528 0.950 . S
H499 C529 0.950 . S
C500 H482 0.951 . S
C500 C501 1.366 . S
C500 C502 1.388 . S
C501 C500 1.366 . S
C501 C505 1.385 . S
C502 H483 0.951 . S
C502 C500 1.388 . S
C502 C503 1.366 . S
C503 C502 1.366 . S
C503 C504 1.414 . S
C503 C506 1.499 . S
C504 H484 0.950 . S
C504 C503 1.414 . S
C504 C505 1.374 . S
C505 H485 0.950 . S
C505 C501 1.385 . S
C505 C504 1.374 . S
C506 C503 1.499 . S
C506 C507 1.373 . S
C506 C508 1.389 . S
C507 H486 0.950 . S
C507 C506 1.373 . S
C507 C523 1.377 . S
C508 C506 1.389 . S
C508 C509 1.524 . S
C508 C522 1.377 . S
C509 C508 1.524 . S
C509 C510 1.397 . S
C509 C514 1.363 . S
C510 H487 0.950 . S
C510 C509 1.397 . S
C510 C511 1.334 . S
C511 H488 0.950 . S
C511 C510 1.334 . S
C511 C512 1.287 . S
C512 C511 1.287 . S
C512 C513 1.524 . S
C512 H531 0.913 . S
C513 H489 0.950 . S
C513 C512 1.524 . S
C513 C514 1.415 . S
C514 H490 0.950 . S
C514 C509 1.363 . S
C514 C513 1.415 . S
C515 H491 0.951 . S
C515 C516 1.366 . S
C515 C517 1.388 . S
C516 C515 1.366 . S
C516 C520 1.385 . S
C517 H492 0.951 . S
C517 C515 1.388 . S
C517 C518 1.366 . S
C518 C517 1.366 . S
C518 C519 1.414 . S
C518 C521 1.499 . S
C519 H493 0.950 . S
C519 C518 1.414 . S
C519 C520 1.374 . S
C520 H494 0.950 . S
C520 C516 1.385 . S
C520 C519 1.374 . S
C521 C518 1.499 . S
C521 C522 1.373 . S
C521 C523 1.389 . S
C522 H495 0.950 . S
C522 C508 1.377 . S
C522 C521 1.373 . S
C523 C507 1.377 . S
C523 C521 1.389 . S
C523 C524 1.524 . S
C524 C523 1.524 . S
C524 C525 1.397 . S
C524 C529 1.363 . S
C525 H496 0.950 . S
C525 C524 1.397 . S
C525 C526 1.334 . S
C526 H497 0.950 . S
C526 C525 1.334 . S
C526 C527 1.287 . S
C527 C526 1.287 . S
C527 C528 1.524 . S
C527 H530 0.999 . S
C528 H498 0.950 . S
C528 C527 1.524 . S
C528 C529 1.415 . S
C529 H499 0.950 . S
C529 C524 1.363 . S
C529 C528 1.415 . S
H530 C527 0.999 . S
H531 C512 0.913 . S
H532 C550 0.951 . S
H533 C552 0.951 . S
H534 C554 0.950 . S
H535 C555 0.950 . S
H536 C557 0.950 . S
H537 C560 0.950 . S
H538 C561 0.950 . S
H539 C563 0.950 . S
H540 C564 0.950 . S
H541 C565 0.951 . S
H542 C567 0.951 . S
H543 C569 0.950 . S
H544 C570 0.950 . S
H545 C572 0.950 . S
H546 C575 0.950 . S
H547 C576 0.950 . S
H548 C578 0.950 . S
H549 C579 0.950 . S
C550 H532 0.951 . S
C550 C551 1.366 . S
C550 C552 1.388 . S
C551 C550 1.366 . S
C551 C555 1.385 . S
C552 H533 0.951 . S
C552 C550 1.388 . S
C552 C553 1.366 . S
C553 C552 1.366 . S
C553 C554 1.414 . S
C553 C556 1.499 . S
C554 H534 0.950 . S
C554 C553 1.414 . S
C554 C555 1.374 . S
C555 H535 0.950 . S
C555 C551 1.385 . S
C555 C554 1.374 . S
C556 C553 1.499 . S
C556 C557 1.373 . S
C556 C558 1.389 . S
C557 H536 0.950 . S
C557 C556 1.373 . S
C557 C573 1.377 . S
C558 C556 1.389 . S
C558 C559 1.524 . S
C558 C572 1.377 . S
C559 C558 1.524 . S
C559 C560 1.397 . S
C559 C564 1.363 . S
C560 H537 0.950 . S
C560 C559 1.397 . S
C560 C561 1.334 . S
C561 H538 0.950 . S
C561 C560 1.334 . S
C561 C562 1.287 . S
C562 C561 1.287 . S
C562 C563 1.524 . S
C562 H581 0.913 . S
C563 H539 0.950 . S
C563 C562 1.524 . S
C563 C564 1.415 . S
C564 H540 0.950 . S
C564 C559 1.363 . S
C564 C563 1.415 . S
C565 H541 0.951 . S
C565 C566 1.366 . S
C565 C567 1.388 . S
C566 C565 1.366 . S
C566 C570 1.385 . S
C567 H542 0.951 . S
C567 C565 1.388 . S
C567 C568 1.366 . S
C568 C567 1.366 . S
C568 C569 1.414 . S
C568 C571 1.499 . S
C569 H543 0.950 . S
C569 C568 1.414 . S
C569 C570 1.374 . S
C570 H544 0.950 . S
C570 C566 1.385 . S
C570 C569 1.374 . S
C571 C568 1.499 . S
C571 C572 1.373 . S
C571 C573 1.389 . S
C572 H545 0.950 . S
C572 C558 1.377 . S
C572 C571 1.373 . S
C573 C557 1.377 . S
C573 C571 1.389 . S
C573 C574 1.524 . S
C574 C573 1.524 . S
C574 C575 1.397 . S
C574 C579 1.363 . S
C575 H546 0.950 . S
C575 C574 1.397 . S
C575 C576 1.334 . S
C576 H547 0.950 . S
C576 C575 1.334 . S
C576 C577 1.287 . S
C577 C576 1.287 . S
C577 C578 1.524 . S
C577 H580 0.999 . S
C578 H548 0.950 . S
C578 C577 1.524 . S
C578 C579 1.415 . S
C579 H549 0.950 . S
C579 C574 1.363 . S
C579 C578 1.415 . S
H580 C577 0.999 . S
H581 C562 0.913 . S
H582 C600 0.951 . S
H583 C602 0.951 . S
H584 C604 0.950 . S
H585 C605 0.950 . S
H586 C607 0.950 . S
H587 C610 0.950 . S
H588 C611 0.950 . S
H589 C613 0.950 . S
H590 C614 0.950 . S
H591 C615 0.951 . S
H592 C617 0.951 . S
H593 C619 0.950 . S
H594 C620 0.950 . S
H595 C622 0.950 . S
H596 C625 0.950 . S
H597 C626 0.950 . S
H598 C628 0.950 . S
H599 C629 0.950 . S
C600 H582 0.951 . S
C600 C601 1.366 . S
C600 C602 1.388 . S
C601 C600 1.366 . S
C601 C605 1.385 . S
C602 H583 0.951 . S
C602 C600 1.388 . S
C602 C603 1.366 . S
C603 C602 1.366 . S
C603 C604 1.414 . S
C603 C606 1.499 . S
C604 H584 0.950 . S
C604 C603 1.414 . S
C604 C605 1.374 . S
C605 H585 0.950 . S
C605 C601 1.385 . S
C605 C604 1.374 . S
C606 C603 1.499 . S
C606 C607 1.373 . S
C606 C608 1.389 . S
C607 H586 0.950 . S
C607 C606 1.373 . S
C607 C623 1.377 . S
C608 C606 1.389 . S
C608 C609 1.524 . S
C608 C622 1.377 . S
C609 C608 1.524 . S
C609 C610 1.397 . S
C609 C614 1.363 . S
C610 H587 0.950 . S
C610 C609 1.397 . S
C610 C611 1.334 . S
C611 H588 0.950 . S
C611 C610 1.334 . S
C611 C612 1.287 . S
C612 C611 1.287 . S
C612 C613 1.524 . S
C612 H631 0.913 . S
C613 H589 0.950 . S
C613 C612 1.524 . S
C613 C614 1.415 . S
C614 H590 0.950 . S
C614 C609 1.363 . S
C614 C613 1.415 . S
C615 H591 0.951 . S
C615 C616 1.366 . S
C615 C617 1.388 . S
C616 C615 1.366 . S
C616 C620 1.385 . S
C617 H592 0.951 . S
C617 C615 1.388 . S
C617 C618 1.366 . S
C618 C617 1.366 . S
C618 C619 1.414 . S
C618 C621 1.499 . S
C619 H593 0.950 . S
C619 C618 1.414 . S
C619 C620 1.374 . S
C620 H594 0.950 . S
C620 C616 1.385 . S
C620 C619 1.374 . S
C621 C618 1.499 . S
C621 C622 1.373 . S
C621 C623 1.389 . S
C622 H595 0.950 . S
C622 C608 1.377 . S
C622 C621 1.373 . S
C623 C607 1.377 . S
C623 C621 1.389 . S
C623 C624 1.524 . S
C624 C623 1.524 . S
C624 C625 1.397 . S
C624 C629 1.363 . S
C625 H596 0.950 . S
C625 C624 1.397 . S
C625 C626 1.334 . S
C626 H597 0.950 . S
C626 C625 1.334 . S
C626 C627 1.287 . S
C627 C626 1.287 . S
C627 C628 1.524 . S
C627 H630 0.999 . S
C628 H598 0.950 . S
C628 C627 1.524 . S
C628 C629 1.415 . S
C629 H599 0.950 . S
C629 C624 1.363 . S
C629 C628 1.415 . S
H630 C627 0.999 . S
H631 C612 0.913 . S
H632 C650 0.951 . S
H633 C652 0.951 . S
H634 C654 0.950 . S
H635 C655 0.950 . S
H636 C657 0.950 . S
H637 C660 0.950 . S
H638 C661 0.950 . S
H639 C663 0.950 . S
H640 C664 0.950 . S
H641 C665 0.951 . S
H642 C667 0.951 . S
H643 C669 0.950 . S
H644 C670 0.950 . S
H645 C672 0.950 . S
H646 C675 0.950 . S
H647 C676 0.950 . S
H648 C678 0.950 . S
H649 C679 0.950 . S
C650 H632 0.951 . S
C650 C651 1.366 . S
C650 C652 1.388 . S
C651 C650 1.366 . S
C651 C655 1.385 . S
C652 H633 0.951 . S
C652 C650 1.388 . S
C652 C653 1.366 . S
C653 C652 1.366 . S
C653 C654 1.414 . S
C653 C656 1.499 . S
C654 H634 0.950 . S
C654 C653 1.414 . S
C654 C655 1.374 . S
C655 H635 0.950 . S
C655 C651 1.385 . S
C655 C654 1.374 . S
C656 C653 1.499 . S
C656 C657 1.373 . S
C656 C658 1.389 . S
C657 H636 0.950 . S
C657 C656 1.373 . S
C657 C673 1.377 . S
C658 C656 1.389 . S
C658 C659 1.524 . S
C658 C672 1.377 . S
C659 C658 1.524 . S
C659 C660 1.397 . S
C659 C664 1.363 . S
C660 H637 0.950 . S
C660 C659 1.397 . S
C660 C661 1.334 . S
C661 H638 0.950 . S
C661 C660 1.334 . S
C661 C662 1.287 . S
C662 C661 1.287 . S
C662 C663 1.524 . S
C662 H681 0.913 . S
C663 H639 0.950 . S
C663 C662 1.524 . S
C663 C664 1.415 . S
C664 H640 0.950 . S
C664 C659 1.363 . S
C664 C663 1.415 . S
C665 H641 0.951 . S
C665 C666 1.366 . S
C665 C667 1.388 . S
C666 C665 1.366 . S
C666 C670 1.385 . S
C667 H642 0.951 . S
C667 C665 1.388 . S
C667 C668 1.366 . S
C668 C667 1.366 . S
C668 C669 1.414 . S
C668 C671 1.499 . S
C669 H643 0.950 . S
C669 C668 1.414 . S
C669 C670 1.374 . S
C670 H644 0.950 . S
C670 C666 1.385 . S
C670 C669 1.374 . S
C671 C668 1.499 . S
C671 C672 1.373 . S
C671 C673 1.389 . S
C672 H645 0.950 . S
C672 C658 1.377 . S
C672 C671 1.373 . S
C673 C657 1.377 . S
C673 C671 1.389 . S
C673 C674 1.524 . S
C674 C673 1.524 . S
C674 C675 1.397 . S
C674 C679 1.363 . S
C675 H646 0.950 . S
C675 C674 1.397 . S
C675 C676 1.334 . S
C676 H647 0.950 . S
C676 C675 1.334 . S
C676 C677 1.287 . S
C677 C676 1.287 . S
C677 C678 1.524 . S
C677 H680 0.999 . S
C678 H648 0.950 . S
C678 C677 1.524 . S
C678 C679 1.415 . S
C679 H649 0.950 . S
C679 C674 1.363 . S
C679 C678 1.415 . S
H680 C677 0.999 . S
H681 C662 0.913 . S
H682 C700 0.951 . S
H683 C702 0.951 . S
H684 C704 0.950 . S
H685 C705 0.950 . S
H686 C707 0.950 . S
H687 C710 0.950 . S
H688 C711 0.950 . S
H689 C713 0.950 . S
H690 C714 0.950 . S
H691 C715 0.951 . S
H692 C717 0.951 . S
H693 C719 0.950 . S
H694 C720 0.950 . S
H695 C722 0.950 . S
H696 C725 0.950 . S
H697 C726 0.950 . S
H698 C728 0.950 . S
H699 C729 0.950 . S
C700 H682 0.951 . S
C700 C701 1.366 . S
C700 C702 1.388 . S
C701 C700 1.366 . S
C701 C705 1.385 . S
C702 H683 0.951 . S
C702 C700 1.388 . S
C702 C703 1.366 . S
C703 C702 1.366 . S
C703 C704 1.414 . S
C703 C706 1.499 . S
C704 H684 0.950 . S
C704 C703 1.414 . S
C704 C705 1.374 . S
C705 H685 0.950 . S
C705 C701 1.385 . S
C705 C704 1.374 . S
C706 C703 1.499 . S
C706 C707 1.373 . S
C706 C708 1.389 . S
C707 H686 0.950 . S
C707 C706 1.373 . S
C707 C723 1.377 . S
C708 C706 1.389 . S
C708 C709 1.524 . S
C708 C722 1.377 . S
C709 C708 1.524 . S
C709 C710 1.397 . S
C709 C714 1.363 . S
C710 H687 0.950 . S
C710 C709 1.397 . S
C710 C711 1.334 . S
C711 H688 0.950 . S
C711 C710 1.334 . S
C711 C712 1.287 . S
C712 C711 1.287 . S
C712 C713 1.524 . S
C712 H731 0.913 . S
C713 H689 0.950 . S
C713 C712 1.524 . S
C713 C714 1.415 . S
C714 H690 0.950 . S
C714 C709 1.363 . S
C714 C713 1.415 . S
C715 H691 0.951 . S
C715 C716 1.366 . S
C715 C717 1.388 . S
C716 C715 1.366 . S
C716 C720 1.385 . S
C717 H692 0.951 . S
C717 C715 1.388 . S
C717 C718 1.366 . S
C718 C717 1.366 . S
C718 C719 1.414 . S
C718 C721 1.499 . S
C719 H693 0.950 . S
C719 C718 1.414 . S
C719 C720 1.374 . S
C720 H694 0.950 . S
C720 C716 1.385 . S
C720 C719 1.374 . S
C721 C718 1.499 . S
C721 C722 1.373 . S
C721 C723 1.389 . S
C722 H695 0.950 . S
C722 C708 1.377 . S
C722 C721 1.373 . S
C723 C707 1.377 . S
C723 C721 1.389 . S
C723 C724 1.524 . S
C724 C723 1.524 . S
C724 C725 1.397 . S
C724 C729 1.363 . S
C725 H696 0.950 . S
C725 C724 1.397 . S
C725 C726 1.334 . S
C726 H697 0.950 . S
C726 C725 1.334 . S
C726 C727 1.287 . S
C727 C726 1.287 . S
C727 C728 1.524 . S
C727 H730 0.999 . S
C728 H698 0.950 . S
C728 C727 1.524 . S
C728 C729 1.415 . S
C729 H699 0.950 . S
C729 C724 1.363 . S
C729 C728 1.415 . S
H730 C727 0.999 . S
H731 C712 0.913 . S
H732 C750 0.951 . S
H733 C752 0.951 . S
H734 C754 0.950 . S
H735 C755 0.950 . S
H736 C757 0.950 . S
H737 C760 0.950 . S
H738 C761 0.950 . S
H739 C763 0.950 . S
H740 C764 0.950 . S
H741 C765 0.951 . S
H742 C767 0.951 . S
H743 C769 0.950 . S
H744 C770 0.950 . S
H745 C772 0.950 . S
H746 C775 0.950 . S
H747 C776 0.950 . S
H748 C778 0.950 . S
H749 C779 0.950 . S
C750 H732 0.951 . S
C750 C751 1.366 . S
C750 C752 1.388 . S
C751 C750 1.366 . S
C751 C755 1.385 . S
C752 H733 0.951 . S
C752 C750 1.388 . S
C752 C753 1.366 . S
C753 C752 1.366 . S
C753 C754 1.414 . S
C753 C756 1.499 . S
C754 H734 0.950 . S
C754 C753 1.414 . S
C754 C755 1.374 . S
C755 H735 0.950 . S
C755 C751 1.385 . S
C755 C754 1.374 . S
C756 C753 1.499 . S
C756 C757 1.373 1_554 S
C756 C758 1.428 . S
C757 H736 0.950 . S
C757 C756 1.373 1_556 S
C757 C773 1.342 1_545 S
C758 C756 1.428 . S
C758 C759 1.518 . S
C758 C772 1.341 1_545 S
C759 C758 1.518 . S
C759 C760 1.397 . S
C759 C764 1.364 1_545 S
C760 H737 0.950 . S
C760 C759 1.397 . S
C760 C761 1.334 . S
C761 H738 0.950 . S
C761 C760 1.334 . S
C761 C762 1.272 1_545 S
C762 C761 1.272 1_565 S
C762 C763 1.529 . S
C762 H781 0.916 . S
C763 H739 0.950 . S
C763 C762 1.529 . S
C763 C764 1.415 . S
C764 H740 0.950 . S
C764 C759 1.364 1_565 S
C764 C763 1.415 . S
C765 H741 0.951 . S
C765 C766 1.366 . S
C765 C767 1.388 . S
C766 C765 1.366 . S
C766 C770 1.385 . S
C767 H742 0.951 . S
C767 C765 1.388 . S
C767 C768 1.366 . S
C768 C767 1.366 . S
C768 C769 1.414 . S
C768 C771 1.499 . S
C769 H743 0.950 . S
C769 C768 1.414 . S
C769 C770 1.374 . S
C770 H744 0.950 . S
C770 C766 1.385 . S
C770 C769 1.374 . S
C771 C768 1.499 . S
C771 C772 1.373 1_556 S
C771 C773 1.426 . S
C772 H745 0.950 . S
C772 C758 1.341 1_565 S
C772 C771 1.373 1_554 S
C773 C757 1.342 1_565 S
C773 C771 1.426 . S
C773 C774 1.518 . S
C774 C773 1.518 . S
C774 C775 1.397 . S
C774 C779 1.364 1_565 S
C775 H746 0.950 . S
C775 C774 1.397 . S
C775 C776 1.334 . S
C776 H747 0.950 . S
C776 C775 1.334 . S
C776 C777 1.271 1_565 S
C777 C776 1.271 1_545 S
C777 C778 1.529 . S
C777 H780 1.011 . S
C778 H748 0.950 . S
C778 C777 1.529 . S
C778 C779 1.415 . S
C779 H749 0.950 . S
C779 C774 1.364 1_545 S
C779 C778 1.415 . S
H780 C777 1.011 . S
H781 C762 0.916 . S
H782 C800 0.951 . S
H783 C802 0.951 . S
H784 C804 0.950 . S
H785 C805 0.950 . S
H786 C807 0.950 . S
H787 C810 0.950 . S
H788 C811 0.950 . S
H789 C813 0.950 . S
H790 C814 0.950 . S
H791 C815 0.951 . S
H792 C817 0.951 . S
H793 C819 0.950 . S
H794 C820 0.950 . S
H795 C822 0.950 . S
H796 C825 0.950 . S
H797 C826 0.950 . S
H798 C828 0.950 . S
H799 C829 0.950 . S
C800 H782 0.951 . S
C800 C801 1.366 . S
C800 C802 1.388 . S
C801 C800 1.366 . S
C801 C805 1.385 . S
C802 H783 0.951 . S
C802 C800 1.388 . S
C802 C803 1.366 . S
C803 C802 1.366 . S
C803 C804 1.414 . S
C803 C806 1.499 . S
C804 H784 0.950 . S
C804 C803 1.414 . S
C804 C805 1.374 . S
C805 H785 0.950 . S
C805 C801 1.385 . S
C805 C804 1.374 . S
C806 C803 1.499 . S
C806 C807 1.373 . S
C806 C808 1.389 . S
C807 H786 0.950 . S
C807 C806 1.373 . S
C807 C823 1.377 . S
C808 C806 1.389 . S
C808 C809 1.524 . S
C808 C822 1.377 . S
C809 C808 1.524 . S
C809 C810 1.397 . S
C809 C814 1.363 . S
C810 H787 0.950 . S
C810 C809 1.397 . S
C810 C811 1.334 . S
C811 H788 0.950 . S
C811 C810 1.334 . S
C811 C812 1.287 . S
C812 C811 1.287 . S
C812 C813 1.524 . S
C812 H831 0.913 . S
C813 H789 0.950 . S
C813 C812 1.524 . S
C813 C814 1.415 . S
C814 H790 0.950 . S
C814 C809 1.363 . S
C814 C813 1.415 . S
C815 H791 0.951 . S
C815 C816 1.366 . S
C815 C817 1.388 . S
C816 C815 1.366 . S
C816 C820 1.385 . S
C817 H792 0.951 . S
C817 C815 1.388 . S
C817 C818 1.366 . S
C818 C817 1.366 . S
C818 C819 1.414 . S
C818 C821 1.499 . S
C819 H793 0.950 . S
C819 C818 1.414 . S
C819 C820 1.374 . S
C820 H794 0.950 . S
C820 C816 1.385 . S
C820 C819 1.374 . S
C821 C818 1.499 . S
C821 C822 1.373 . S
C821 C823 1.389 . S
C822 H795 0.950 . S
C822 C808 1.377 . S
C822 C821 1.373 . S
C823 C807 1.377 . S
C823 C821 1.389 . S
C823 C824 1.524 . S
C824 C823 1.524 . S
C824 C825 1.397 . S
C824 C829 1.363 . S
C825 H796 0.950 . S
C825 C824 1.397 . S
C825 C826 1.334 . S
C826 H797 0.950 . S
C826 C825 1.334 . S
C826 C827 1.287 . S
C827 C826 1.287 . S
C827 C828 1.524 . S
C827 H830 0.999 . S
C828 H798 0.950 . S
C828 C827 1.524 . S
C828 C829 1.415 . S
C829 H799 0.950 . S
C829 C824 1.363 . S
C829 C828 1.415 . S
H830 C827 0.999 . S
H831 C812 0.913 . S
H832 C850 0.951 . S
H833 C852 0.951 . S
H834 C854 0.950 . S
H835 C855 0.950 . S
H836 C857 0.950 . S
H837 C860 0.950 . S
H838 C861 0.950 . S
H839 C863 0.950 . S
H840 C864 0.950 1_655 S
H841 C865 0.951 . S
H842 C867 0.951 . S
H843 C869 0.950 . S
H844 C870 0.950 . S
H845 C872 0.950 . S
H846 C875 0.950 . S
H847 C876 0.950 . S
H848 C878 0.950 . S
H849 C879 0.950 1_455 S
C850 H832 0.951 . S
C850 C851 1.366 . S
C850 C852 1.388 . S
C851 C850 1.366 . S
C851 C855 1.385 . S
C852 H833 0.951 . S
C852 C850 1.388 . S
C852 C853 1.366 . S
C853 C852 1.366 . S
C853 C854 1.414 . S
C853 C856 1.499 . S
C854 H834 0.950 . S
C854 C853 1.414 . S
C854 C855 1.374 . S
C855 H835 0.950 . S
C855 C851 1.385 . S
C855 C854 1.374 . S
C856 C853 1.499 . S
C856 C857 1.373 . S
C856 C858 1.389 . S
C857 H836 0.950 . S
C857 C856 1.373 . S
C857 C873 1.377 1_455 S
C858 C856 1.389 . S
C858 C859 1.524 . S
C858 C872 1.377 1_455 S
C859 C858 1.524 . S
C859 C860 1.397 . S
C859 C864 1.363 . S
C860 H837 0.950 . S
C860 C859 1.397 . S
C860 C861 1.334 . S
C861 H838 0.950 . S
C861 C860 1.334 . S
C861 C862 1.287 . S
C862 C861 1.287 . S
C862 C863 1.524 . S
C862 H881 0.913 . S
C863 H839 0.950 . S
C863 C862 1.524 . S
C863 C864 1.415 . S
C864 H840 0.950 1_455 S
C864 C859 1.363 . S
C864 C863 1.415 . S
C865 H841 0.951 . S
C865 C866 1.366 . S
C865 C867 1.388 . S
C866 C865 1.366 . S
C866 C870 1.385 . S
C867 H842 0.951 . S
C867 C865 1.388 . S
C867 C868 1.366 . S
C868 C867 1.366 . S
C868 C869 1.414 . S
C868 C871 1.499 . S
C869 H843 0.950 . S
C869 C868 1.414 . S
C869 C870 1.374 . S
C870 H844 0.950 . S
C870 C866 1.385 . S
C870 C869 1.374 . S
C871 C868 1.499 . S
C871 C872 1.373 . S
C871 C873 1.389 . S
C872 H845 0.950 . S
C872 C858 1.377 1_655 S
C872 C871 1.373 . S
C873 C857 1.377 1_655 S
C873 C871 1.389 . S
C873 C874 1.524 . S
C874 C873 1.524 . S
C874 C875 1.397 . S
C874 C879 1.363 . S
C875 H846 0.950 . S
C875 C874 1.397 . S
C875 C876 1.334 . S
C876 H847 0.950 . S
C876 C875 1.334 . S
C876 C877 1.287 . S
C877 C876 1.287 . S
C877 C878 1.524 . S
C877 H880 0.999 . S
C878 H848 0.950 . S
C878 C877 1.524 . S
C878 C879 1.415 . S
C879 H849 0.950 1_655 S
C879 C874 1.363 . S
C879 C878 1.415 . S
H880 C877 0.999 . S
H881 C862 0.913 . S
H882 C900 0.951 . S
H883 C902 0.951 . S
H884 C904 0.950 . S
H885 C905 0.950 . S
H886 C907 0.950 . S
H887 C910 0.950 . S
H888 C911 0.950 . S
H889 C913 0.950 . S
H890 C914 0.950 . S
H891 C915 0.951 . S
H892 C917 0.951 . S
H893 C919 0.950 . S
H894 C920 0.950 . S
H895 C922 0.950 . S
H896 C925 0.950 . S
H897 C926 0.950 . S
H898 C928 0.950 . S
H899 C929 0.950 . S
C900 H882 0.951 . S
C900 C901 1.366 . S
C900 C902 1.388 . S
C901 C900 1.366 . S
C901 C905 1.385 . S
C902 H883 0.951 . S
C902 C900 1.388 . S
C902 C903 1.366 . S
C903 C902 1.366 . S
C903 C904 1.414 . S
C903 C906 1.499 . S
C904 H884 0.950 . S
C904 C903 1.414 . S
C904 C905 1.374 . S
C905 H885 0.950 . S
C905 C901 1.385 . S
C905 C904 1.374 . S
C906 C903 1.499 . S
C906 C907 1.373 . S
C906 C908 1.389 . S
C907 H886 0.950 . S
C907 C906 1.373 . S
C907 C923 1.377 1_545 S
C908 C906 1.389 . S
C908 C909 1.529 . S
C908 C922 1.377 1_545 S
C909 C908 1.529 . S
C909 C910 1.415 . S
C909 C914 1.340 1_545 S
C910 H887 0.950 . S
C910 C909 1.415 . S
C910 C911 1.334 . S
C911 H888 0.950 . S
C911 C910 1.334 . S
C911 C912 1.287 1_545 S
C912 C911 1.287 1_565 S
C912 C913 1.524 . S
C912 H931 0.913 . S
C913 H889 0.950 . S
C913 C912 1.524 . S
C913 C914 1.415 . S
C914 H890 0.950 . S
C914 C909 1.340 1_565 S
C914 C913 1.415 . S
C915 H891 0.951 . S
C915 C916 1.366 . S
C915 C917 1.388 . S
C916 C915 1.366 . S
C916 C920 1.385 . S
C917 H892 0.951 . S
C917 C915 1.388 . S
C917 C918 1.366 . S
C918 C917 1.366 . S
C918 C919 1.414 . S
C918 C921 1.499 . S
C919 H893 0.950 . S
C919 C918 1.414 . S
C919 C920 1.374 . S
C920 H894 0.950 . S
C920 C916 1.385 . S
C920 C919 1.374 . S
C921 C918 1.499 . S
C921 C922 1.373 . S
C921 C923 1.389 . S
C922 H895 0.950 . S
C922 C908 1.377 1_565 S
C922 C921 1.373 . S
C923 C907 1.377 1_565 S
C923 C921 1.389 . S
C923 C924 1.529 . S
C924 C923 1.529 . S
C924 C925 1.417 . S
C924 C929 1.338 1_565 S
C925 H896 0.950 . S
C925 C924 1.417 . S
C925 C926 1.334 . S
C926 H897 0.950 . S
C926 C925 1.334 . S
C926 C927 1.287 1_565 S
C927 C926 1.287 1_545 S
C927 C928 1.524 . S
C927 H930 0.999 . S
C928 H898 0.950 . S
C928 C927 1.524 . S
C928 C929 1.415 . S
C929 H899 0.950 . S
C929 C924 1.338 1_545 S
C929 C928 1.415 . S
H930 C927 0.999 . S
H931 C912 0.913 . S
H932 C950 0.951 . S
H933 C952 0.951 . S
H934 C954 0.950 . S
H935 C955 0.950 . S
H936 C957 0.950 . S
H937 C960 0.950 . S
H938 C961 0.950 . S
H939 C963 0.950 . S
H940 C964 0.950 . S
H941 C965 0.951 . S
H942 C967 0.951 . S
H943 C969 0.950 . S
H944 C970 0.950 . S
H945 C972 0.950 . S
H946 C975 0.950 . S
H947 C976 0.950 . S
H948 C978 0.950 . S
H949 C979 0.950 . S
C950 H932 0.951 . S
C950 C951 1.366 . S
C950 C952 1.388 . S
C951 C950 1.366 . S
C951 C955 1.385 . S
C952 H933 0.951 . S
C952 C950 1.388 . S
C952 C953 1.366 . S
C953 C952 1.366 . S
C953 C954 1.414 . S
C953 C956 1.499 . S
C954 H934 0.950 . S
C954 C953 1.414 . S
C954 C955 1.374 . S
C955 H935 0.950 . S
C955 C951 1.385 . S
C955 C954 1.374 . S
C956 C953 1.499 . S
C956 C957 1.373 . S
C956 C958 1.389 . S
C957 H936 0.950 . S
C957 C956 1.373 . S
C957 C973 1.377 . S
C958 C956 1.389 . S
C958 C959 1.524 . S
C958 C972 1.377 . S
C959 C958 1.524 . S
C959 C960 1.397 . S
C959 C964 1.363 . S
C960 H937 0.950 . S
C960 C959 1.397 . S
C960 C961 1.334 . S
C961 H938 0.950 . S
C961 C960 1.334 . S
C961 C962 1.287 . S
C962 C961 1.287 . S
C962 C963 1.524 . S
C962 H981 0.913 . S
C963 H939 0.950 . S
C963 C962 1.524 . S
C963 C964 1.415 . S
C964 H940 0.950 . S
C964 C959 1.363 . S
C964 C963 1.415 . S
C965 H941 0.951 . S
C965 C966 1.366 . S
C965 C967 1.388 . S
C966 C965 1.366 . S
C966 C970 1.385 . S
C967 H942 0.951 . S
C967 C965 1.388 . S
C967 C968 1.366 . S
C968 C967 1.366 . S
C968 C969 1.414 . S
C968 C971 1.499 . S
C969 H943 0.950 . S
C969 C968 1.414 . S
C969 C970 1.374 . S
C970 H944 0.950 . S
C970 C966 1.385 . S
C970 C969 1.374 . S
C971 C968 1.499 . S
C971 C972 1.373 . S
C971 C973 1.389 . S
C972 H945 0.950 . S
C972 C958 1.377 . S
C972 C971 1.373 . S
C973 C957 1.377 . S
C973 C971 1.389 . S
C973 C974 1.524 . S
C974 C973 1.524 . S
C974 C975 1.397 . S
C974 C979 1.363 . S
C975 H946 0.950 . S
C975 C974 1.397 . S
C975 C976 1.334 . S
C976 H947 0.950 . S
C976 C975 1.334 . S
C976 C977 1.287 . S
C977 C976 1.287 . S
C977 C978 1.524 . S
C977 H980 0.999 . S
C978 H948 0.950 . S
C978 C977 1.524 . S
C978 C979 1.415 . S
C979 H949 0.950 . S
C979 C974 1.363 . S
C979 C978 1.415 . S
H980 C977 0.999 . S
H981 C962 0.913 . S
H982 C1000 0.951 . S
H983 C1002 0.951 . S
H984 C1004 0.950 . S
H985 C1005 0.950 . S
H986 C1007 0.950 . S
H987 C1010 0.950 . S
H988 C1011 0.950 . S
H989 C1013 0.950 . S
H990 C1014 0.950 . S
H991 C1015 0.951 . S
H992 C1017 0.951 . S
H993 C1019 0.950 . S
H994 C1020 0.950 . S
H995 C1022 0.950 . S
H996 C1025 0.950 . S
H997 C1026 0.950 . S
H998 C1028 0.950 . S
H999 C1029 0.950 . S
C1000 H982 0.951 . S
C1000 C1001 1.366 . S
C1000 C1002 1.388 . S
C1001 C1000 1.366 . S
C1001 C1005 1.385 . S
C1002 H983 0.951 . S
C1002 C1000 1.388 . S
C1002 C1003 1.366 . S
C1003 C1002 1.366 . S
C1003 C1004 1.414 . S
C1003 C1006 1.499 . S
C1004 H984 0.950 . S
C1004 C1003 1.414 . S
C1004 C1005 1.374 . S
C1005 H985 0.950 . S
C1005 C1001 1.385 . S
C1005 C1004 1.374 . S
C1006 C1003 1.499 . S
C1006 C1007 1.373 . S
C1006 C1008 1.389 . S
C1007 H986 0.950 . S
C1007 C1006 1.373 . S
C1007 C1023 1.377 1_655 S
C1008 C1006 1.389 . S
C1008 C1009 1.524 . S
C1008 C1022 1.377 1_655 S
C1009 C1008 1.524 . S
C1009 C1010 1.397 . S
C1009 C1014 1.363 . S
C1010 H987 0.950 . S
C1010 C1009 1.397 . S
C1010 C1011 1.334 . S
C1011 H988 0.950 . S
C1011 C1010 1.334 . S
C1011 C1012 1.287 . S
C1012 C1011 1.287 . S
C1012 C1013 1.524 . S
C1012 H1031 0.913 . S
C1013 H989 0.950 . S
C1013 C1012 1.524 . S
C1013 C1014 1.415 . S
C1014 H990 0.950 . S
C1014 C1009 1.363 . S
C1014 C1013 1.415 . S
C1015 H991 0.951 . S
C1015 C1016 1.366 . S
C1015 C1017 1.388 . S
C1016 C1015 1.366 . S
C1016 C1020 1.385 . S
C1017 H992 0.951 . S
C1017 C1015 1.388 . S
C1017 C1018 1.366 . S
C1018 C1017 1.366 . S
C1018 C1019 1.414 . S
C1018 C1021 1.499 . S
C1019 H993 0.950 . S
C1019 C1018 1.414 . S
C1019 C1020 1.374 . S
C1020 H994 0.950 . S
C1020 C1016 1.385 . S
C1020 C1019 1.374 . S
C1021 C1018 1.499 . S
C1021 C1022 1.373 . S
C1021 C1023 1.389 . S
C1022 H995 0.950 . S
C1022 C1008 1.377 1_455 S
C1022 C1021 1.373 . S
C1023 C1007 1.377 1_455 S
C1023 C1021 1.389 . S
C1023 C1024 1.524 . S
C1024 C1023 1.524 . S
C1024 C1025 1.397 . S
C1024 C1029 1.363 . S
C1025 H996 0.950 . S
C1025 C1024 1.397 . S
C1025 C1026 1.334 . S
C1026 H997 0.950 . S
C1026 C1025 1.334 . S
C1026 C1027 1.287 . S
C1027 C1026 1.287 . S
C1027 C1028 1.524 . S
C1027 H1030 0.999 . S
C1028 H998 0.950 . S
C1028 C1027 1.524 . S
C1028 C1029 1.415 . S
C1029 H999 0.950 . S
C1029 C1024 1.363 . S
C1029 C1028 1.415 . S
H1030 C1027 0.999 . S
H1031 C1012 0.913 . S
C151 C7 1.543 . S
C166 C117 1.542 . S
C201 C128 1.543 . S
C216 C18 1.542 . S
C251 C73 1.542 . S
C266 C29 1.543 . S
C301 C40 1.542 . S
C316 C84 1.543 . S
C351 C95 1.542 . S
C366 C51 1.543 . S
C401 C62 1.543 . S
C416 C106 1.542 . S
C451 C5 1.341 . S
C466 C93 1.341 . S
C501 C104 1.341 . S
C516 C16 1.343 . S
C551 C27 1.341 . S
C566 C115 1.341 . S
C601 C126 1.341 . S
C616 C38 1.342 . S
C651 C49 1.343 . S
C666 C71 1.341 . S
C701 C60 1.341 . S
C716 C82 1.343 . S
C751 C8 1.604 . S
C766 C85 1.604 . S
C801 C96 1.604 . S
C816 C19 1.604 . S
C851 C107 1.604 . S
C866 C30 1.604 . S
C901 C118 1.604 . S
C916 C41 1.604 . S
C951 C52 1.604 . S
C966 C129 1.604 . S
C1001 C74 1.605 . S
C1016 C63 1.604 . S
