# Generated by pormake.
# Topology uou, (4)-cn, num edge types: 1
# Building blocks:
#     Node 0, Type 0, BuildingBlock: NAHDIM_clean_sbu_0, # of connection points: 4
#     Node 1, Type 0, BuildingBlock: NAHDIM_clean_sbu_0, # of connection points: 4
#     Node 2, Type 0, BuildingBlock: NAHDIM_clean_sbu_0, # of connection points: 4
#     Node 3, Type 0, BuildingBlock: NAHDIM_clean_sbu_0, # of connection points: 4
#     Node 4, Type 0, BuildingBlock: NAHDIM_clean_sbu_0, # of connection points: 4
#     Node 5, Type 0, BuildingBlock: NAHDIM_clean_sbu_0, # of connection points: 4
#     Node 6, Type 0, BuildingBlock: NAHDIM_clean_sbu_0, # of connection points: 4
#     Node 7, Type 0, BuildingBlock: NAHDIM_clean_sbu_0, # of connection points: 4
#     Node 8, Type 0, BuildingBlock: NAHDIM_clean_sbu_0, # of connection points: 4
#     Node 9, Type 0, BuildingBlock: NAHDIM_clean_sbu_0, # of connection points: 4
#     Node 10, Type 0, BuildingBlock: NAHDIM_clean_sbu_0, # of connection points: 4
#     Node 11, Type 0, BuildingBlock: NAHDIM_clean_sbu_0, # of connection points: 4
#     Node 12, Type 0, BuildingBlock: NAHDIM_clean_sbu_0, # of connection points: 4
#     Node 13, Type 0, BuildingBlock: NAHDIM_clean_sbu_0, # of connection points: 4
#     Node 14, Type 0, BuildingBlock: NAHDIM_clean_sbu_0, # of connection points: 4
#     Node 15, Type 0, BuildingBlock: NAHDIM_clean_sbu_0, # of connection points: 4
#     Edge 16, Type (0, 0), BuildingBlock: UVAHIK_clean_linker_0, # of connection points: 2
#     Edge 17, Type (0, 0), BuildingBlock: UVAHIK_clean_linker_0, # of connection points: 2
#     Edge 18, Type (0, 0), BuildingBlock: UVAHIK_clean_linker_0, # of connection points: 2
#     Edge 19, Type (0, 0), BuildingBlock: UVAHIK_clean_linker_0, # of connection points: 2
#     Edge 20, Type (0, 0), BuildingBlock: UVAHIK_clean_linker_0, # of connection points: 2
#     Edge 21, Type (0, 0), BuildingBlock: UVAHIK_clean_linker_0, # of connection points: 2
#     Edge 22, Type (0, 0), BuildingBlock: UVAHIK_clean_linker_0, # of connection points: 2
#     Edge 23, Type (0, 0), BuildingBlock: UVAHIK_clean_linker_0, # of connection points: 2
#     Edge 24, Type (0, 0), BuildingBlock: UVAHIK_clean_linker_0, # of connection points: 2
#     Edge 25, Type (0, 0), BuildingBlock: UVAHIK_clean_linker_0, # of connection points: 2
#     Edge 26, Type (0, 0), BuildingBlock: UVAHIK_clean_linker_0, # of connection points: 2
#     Edge 27, Type (0, 0), BuildingBlock: UVAHIK_clean_linker_0, # of connection points: 2
#     Edge 28, Type (0, 0), BuildingBlock: UVAHIK_clean_linker_0, # of connection points: 2
#     Edge 29, Type (0, 0), BuildingBlock: UVAHIK_clean_linker_0, # of connection points: 2
#     Edge 30, Type (0, 0), BuildingBlock: UVAHIK_clean_linker_0, # of connection points: 2
#     Edge 31, Type (0, 0), BuildingBlock: UVAHIK_clean_linker_0, # of connection points: 2
#     Edge 32, Type (0, 0), BuildingBlock: UVAHIK_clean_linker_0, # of connection points: 2
#     Edge 33, Type (0, 0), BuildingBlock: UVAHIK_clean_linker_0, # of connection points: 2
#     Edge 34, Type (0, 0), BuildingBlock: UVAHIK_clean_linker_0, # of connection points: 2
#     Edge 35, Type (0, 0), BuildingBlock: UVAHIK_clean_linker_0, # of connection points: 2
#     Edge 36, Type (0, 0), BuildingBlock: UVAHIK_clean_linker_0, # of connection points: 2
#     Edge 37, Type (0, 0), BuildingBlock: UVAHIK_clean_linker_0, # of connection points: 2
#     Edge 38, Type (0, 0), BuildingBlock: UVAHIK_clean_linker_0, # of connection points: 2
#     Edge 39, Type (0, 0), BuildingBlock: UVAHIK_clean_linker_0, # of connection points: 2
#     Edge 40, Type (0, 0), BuildingBlock: UVAHIK_clean_linker_0, # of connection points: 2
#     Edge 41, Type (0, 0), BuildingBlock: UVAHIK_clean_linker_0, # of connection points: 2
#     Edge 42, Type (0, 0), BuildingBlock: UVAHIK_clean_linker_0, # of connection points: 2
#     Edge 43, Type (0, 0), BuildingBlock: UVAHIK_clean_linker_0, # of connection points: 2
#     Edge 44, Type (0, 0), BuildingBlock: UVAHIK_clean_linker_0, # of connection points: 2
#     Edge 45, Type (0, 0), BuildingBlock: UVAHIK_clean_linker_0, # of connection points: 2
#     Edge 46, Type (0, 0), BuildingBlock: UVAHIK_clean_linker_0, # of connection points: 2
#     Edge 47, Type (0, 0), BuildingBlock: UVAHIK_clean_linker_0, # of connection points: 2
# Relax obj value: 0.110
# Max RMSD: 0.150
# Mean RMSD: 0.150
data_MOF--net-uou--node1-NAHDIM_clean_sbu_0--edge1-UVAHIK_clean_linker_0
_symmetry_space_group_name_H-M    P1
_symmetry_Int_Tables_number       1
_symmetry_cell_setting            triclinic
loop_
_symmetry_equiv_pos_as_xyz
'x, y, z'
_cell_length_a     51.424954
_cell_length_b     50.73365
_cell_length_c     65.702209
_cell_angle_alpha  89.958362
_cell_angle_beta   89.943734
_cell_angle_gamma 90.066334
loop_
_atom_site_label
_atom_site_type_symbol
_atom_site_fract_x
_atom_site_fract_y
_atom_site_fract_z
_atom_type_partial_charge
C0 C 0.09523 0.03857 0.11312 0.0
O1 O 0.07846 0.01907 0.11196 0.0
O2 O 0.04771 0.05433 0.15709 0.0
Zn3 Zn 0.05022 0.06496 0.12783 0.0
O4 O 0.02788 0.0417 0.1105 0.0
C5 C 0.046 0.12031 0.13707 0.0
O6 O 0.06244 0.11413 0.1516 0.0
O7 O 0.08747 0.06101 0.11918 0.0
C8 C 0.00534 0.04843 0.10461 0.0
O9 O -0.00438 0.07105 0.11066 0.0
C10 C 0.04712 0.03046 0.16295 0.0
O11 O 0.04719 0.01149 0.14935 0.0
O12 O 0.0385 0.10252 0.12481 0.0
C13 C 0.36626 0.97477 0.1118 0.0
O14 O 0.38441 0.99298 0.11278 0.0
O15 O 0.4228 0.96067 0.14258 0.0
Zn16 Zn 0.41094 0.94416 0.11646 0.0
O17 O 0.42942 0.96048 0.09282 0.0
C18 C 0.42475 0.89328 0.13317 0.0
O19 O 0.42256 0.90572 0.15061 0.0
O20 O 0.37283 0.95069 0.11312 0.0
C21 C 0.45215 0.95311 0.08787 0.0
O22 O 0.46385 0.93495 0.09877 0.0
C23 C 0.43724 0.98093 0.14396 0.0
O24 O 0.44526 0.99282 0.12733 0.0
O25 O 0.41953 0.90546 0.11676 0.0
C26 C 0.61871 0.9423 0.36181 0.0
O27 O 0.6004 0.96019 0.36356 0.0
O28 O 0.56038 0.93159 0.33431 0.0
Zn29 Zn 0.57343 0.91308 0.35936 0.0
O30 O 0.55765 0.92984 0.38395 0.0
C31 C 0.53877 0.87126 0.35343 0.0
O32 O 0.52412 0.89176 0.34926 0.0
O33 O 0.61212 0.91824 0.36013 0.0
C34 C 0.56548 0.92489 0.40187 0.0
O35 O 0.58431 0.90776 0.40457 0.0
C36 C 0.54799 0.95325 0.33484 0.0
O37 O 0.54292 0.96429 0.35248 0.0
O38 O 0.56238 0.87505 0.35838 0.0
C39 C 0.88076 0.03814 0.36399 0.0
O40 O 0.9004 0.02197 0.36656 0.0
O41 O 0.94728 0.05997 0.3567 0.0
Zn42 Zn 0.91992 0.07454 0.37534 0.0
O43 O 0.92609 0.0611 0.40345 0.0
C44 C 0.93048 0.12528 0.35863 0.0
O45 O 0.93362 0.11097 0.34216 0.0
O46 O 0.88438 0.06271 0.36649 0.0
C47 C 0.94572 0.06883 0.4135 0.0
O48 O 0.96169 0.08606 0.40528 0.0
C49 C 0.95978 0.03855 0.35881 0.0
O50 O 0.95495 0.02306 0.37439 0.0
O51 O 0.92333 0.11405 0.37501 0.0
C52 C 0.89205 0.9509 0.87373 0.0
O53 O 0.90739 0.96897 0.88156 0.0
O54 O 0.96004 0.9484 0.85272 0.0
Zn55 Zn 0.94033 0.926 0.87287 0.0
O56 O 0.94699 0.93902 0.90116 0.0
C57 C 0.97767 0.88586 0.86984 0.0
O58 O 0.99251 0.90681 0.87178 0.0
O59 O 0.90185 0.92906 0.86818 0.0
C60 C 0.9507 0.92401 0.91635 0.0
O61 O 0.95185 0.89839 0.9137 0.0
C62 C 0.9494 0.96062 0.83804 0.0
O63 O 0.92403 0.95964 0.83592 0.0
O64 O 0.95311 0.88876 0.86991 0.0
C65 C 0.62117 0.01367 0.85175 0.0
O66 O 0.60381 0.99518 0.8483 0.0
O67 O 0.5579 0.02574 0.8334 0.0
Zn68 Zn 0.5752 0.04333 0.85712 0.0
O69 O 0.56209 0.02894 0.88364 0.0
C70 C 0.56235 0.09408 0.83968 0.0
O71 O 0.56375 0.0812 0.82238 0.0
O72 O 0.61348 0.0369 0.85571 0.0
C73 C 0.54295 0.03974 0.89257 0.0
O74 O 0.53114 0.05968 0.8838 0.0
C75 C 0.53511 0.01607 0.83374 0.0
O76 O 0.52167 0.01652 0.85074 0.0
O77 O 0.56745 0.0821 0.85619 0.0
C78 C 0.38537 0.04833 0.59183 0.0
O79 O 0.40474 0.03224 0.58801 0.0
O80 O 0.43626 0.06576 0.63258 0.0
Zn81 Zn 0.42773 0.07994 0.60488 0.0
O82 O 0.45043 0.06275 0.584 0.0
C83 C 0.43322 0.13315 0.62005 0.0
O84 O 0.42531 0.12244 0.63719 0.0
O85 O 0.39028 0.07115 0.59888 0.0
C86 C 0.44717 0.06928 0.56553 0.0
O87 O 0.42981 0.08738 0.56109 0.0
C88 C 0.44131 0.04159 0.63573 0.0
O89 O 0.44177 0.02515 0.62031 0.0
O90 O 0.43475 0.11894 0.60418 0.0
C91 C 0.12392 0.95389 0.60888 0.0
O92 O 0.10558 0.97141 0.61215 0.0
O93 O 0.07464 0.94136 0.64443 0.0
Zn94 Zn 0.08076 0.92362 0.61744 0.0
O95 O 0.05965 0.94132 0.59575 0.0
C96 C 0.05279 0.87865 0.6314 0.0
O97 O 0.04167 0.89709 0.6424 0.0
O98 O 0.11821 0.92956 0.6102 0.0
C99 C 0.03673 0.93499 0.59045 0.0
O100 O 0.02506 0.91506 0.5994 0.0
C101 C 0.05803 0.95957 0.64706 0.0
O102 O 0.0438 0.9675 0.63165 0.0
O103 O 0.07106 0.88506 0.61929 0.0
C104 C 0.60861 0.56147 0.09631 0.0
O105 O 0.58906 0.54499 0.09419 0.0
O106 O 0.5516 0.57376 0.12647 0.0
Zn107 Zn 0.56562 0.59338 0.1022 0.0
O108 O 0.54858 0.57933 0.07716 0.0
C109 C 0.55545 0.64326 0.1219 0.0
O110 O 0.56061 0.62978 0.13848 0.0
O111 O 0.60375 0.58562 0.09978 0.0
C112 C 0.52528 0.57105 0.07696 0.0
O113 O 0.51119 0.57259 0.0936 0.0
C114 C 0.56617 0.56804 0.14145 0.0
O115 O 0.59065 0.57546 0.14117 0.0
O116 O 0.55743 0.63202 0.10468 0.0
C117 C 0.86814 0.45923 0.11397 0.0
O118 O 0.88761 0.47595 0.11526 0.0
O119 O 0.92202 0.44672 0.1439 0.0
Zn120 Zn 0.91106 0.4278 0.11836 0.0
O121 O 0.92857 0.44382 0.09404 0.0
C122 C 0.93868 0.38222 0.13181 0.0
O123 O 0.95085 0.40043 0.14233 0.0
O124 O 0.87293 0.43468 0.11495 0.0
C125 C 0.95017 0.43639 0.08666 0.0
O126 O 0.96281 0.41688 0.09529 0.0
C127 C 0.94209 0.46124 0.14521 0.0
O128 O 0.95712 0.46438 0.12922 0.0
O129 O 0.91995 0.38899 0.12029 0.0
C130 C 0.10376 0.46368 0.37794 0.0
O131 O 0.08668 0.48205 0.38239 0.0
O132 O 0.04022 0.4569 0.35381 0.0
Zn133 Zn 0.05709 0.43554 0.37599 0.0
O134 O 0.04563 0.44847 0.40334 0.0
C135 C 0.02454 0.39223 0.36516 0.0
O136 O 0.00968 0.41177 0.35912 0.0
O137 O 0.09576 0.4404 0.37449 0.0
C138 C 0.02196 0.45005 0.40869 0.0
O139 O 0.00367 0.44312 0.39582 0.0
C140 C 0.05249 0.46197 0.33746 0.0
O141 O 0.07664 0.45396 0.33553 0.0
O142 O 0.04668 0.39739 0.37282 0.0
C143 C 0.3748 0.52945 0.35934 0.0
O144 O 0.39177 0.51034 0.357 0.0
O145 O 0.43635 0.53999 0.3371 0.0
Zn146 Zn 0.42181 0.55651 0.3623 0.0
O147 O 0.43472 0.53785 0.38718 0.0
C148 C 0.42268 0.61275 0.35306 0.0
O149 O 0.40244 0.60746 0.34158 0.0
O150 O 0.38306 0.55284 0.3618 0.0
C151 C 0.45426 0.54619 0.39708 0.0
O152 O 0.46692 0.56702 0.39049 0.0
C153 C 0.46048 0.53538 0.33512 0.0
O154 O 0.4763 0.54094 0.3502 0.0
O155 O 0.4332 0.59435 0.36323 0.0
C156 C 0.3737 0.40509 0.85175 0.0
O157 O 0.38852 0.40886 0.83572 0.0
O158 O 0.44046 0.41787 0.85129 0.0
Zn159 Zn 0.42258 0.39513 0.87199 0.0
O160 O 0.43147 0.4096 0.89938 0.0
C161 C 0.43923 0.34793 0.85207 0.0
O162 O 0.43388 0.36185 0.83573 0.0
O163 O 0.38396 0.3978 0.86842 0.0
C164 C 0.45455 0.41742 0.90264 0.0
O165 O 0.47219 0.41431 0.88835 0.0
C166 C 0.43572 0.4424 0.85008 0.0
O167 O 0.41855 0.45297 0.86244 0.0
O168 O 0.4353 0.35798 0.86951 0.0
C169 C 0.12993 0.53587 0.87993 0.0
O170 O 0.11042 0.52265 0.88787 0.0
O171 O 0.07012 0.55758 0.85225 0.0
Zn172 Zn 0.08942 0.57225 0.87614 0.0
O173 O 0.07406 0.55859 0.90207 0.0
C174 C 0.08361 0.62424 0.85928 0.0
O175 O 0.08417 0.61118 0.84203 0.0
O176 O 0.12616 0.55933 0.8738 0.0
C177 C 0.05173 0.56522 0.90849 0.0
O178 O 0.03784 0.58213 0.89796 0.0
C179 C 0.05633 0.53679 0.85241 0.0
O180 O 0.0532 0.52364 0.86947 0.0
O181 O 0.08665 0.61176 0.87589 0.0
C182 C 0.86749 0.54459 0.63678 0.0
O183 O 0.88433 0.52547 0.63958 0.0
O184 O 0.92754 0.55445 0.66043 0.0
Zn185 Zn 0.91476 0.57135 0.63462 0.0
O186 O 0.92845 0.55271 0.60997 0.0
C187 C 0.94721 0.61592 0.64284 0.0
O188 O 0.96001 0.59795 0.65317 0.0
O189 O 0.87589 0.56792 0.63413 0.0
C190 C 0.95231 0.55255 0.60501 0.0
O191 O 0.96934 0.56454 0.61668 0.0
C192 C 0.93922 0.53245 0.66173 0.0
O193 O 0.944 0.51884 0.64515 0.0
O194 O 0.92641 0.60938 0.63367 0.0
C195 C 0.59694 0.47483 0.62396 0.0
O196 O 0.58052 0.49023 0.61432 0.0
O197 O 0.53156 0.4652 0.65471 0.0
Zn198 Zn 0.54994 0.44702 0.63168 0.0
O199 O 0.53629 0.4602 0.60509 0.0
C200 C 0.54609 0.39293 0.61861 0.0
O201 O 0.55628 0.40255 0.60182 0.0
O202 O 0.58839 0.4543 0.63285 0.0
C203 C 0.51489 0.4526 0.59746 0.0
O204 O 0.50029 0.43581 0.60757 0.0
C205 C 0.53946 0.4862 0.66327 0.0
O206 O 0.56083 0.49765 0.65678 0.0
O207 O 0.54249 0.40818 0.63369 0.0
C208 C 0.33153 0.00904 0.10956 0.0
C209 C 0.3387 0.98232 0.10945 0.0
C210 C 0.30547 0.0163 0.10778 0.0
C211 C 0.24143 0.99254 0.09076 0.0
H212 H 0.21486 0.04455 0.12865 0.0
C213 C 0.13199 0.00816 0.10502 0.0
C214 C 0.12309 0.0338 0.10907 0.0
C215 C 0.15852 0.00315 0.10286 0.0
C216 C 0.22203 0.03035 0.1177 0.0
H217 H 0.32421 0.94226 0.10708 0.0
H218 H 0.27862 0.95498 0.10404 0.0
H219 H 0.26085 0.03328 0.12914 0.0
H220 H 0.13494 0.0745 0.11317 0.0
H221 H 0.18128 0.06582 0.10904 0.0
H222 H 0.20256 0.9895 0.0794 0.0
C223 C 0.29322 0.97029 0.10536 0.0
C224 C 0.24838 0.02385 0.11803 0.0
C225 C 0.3193 0.96301 0.10724 0.0
C226 C 0.14121 0.05449 0.11021 0.0
C227 C 0.16776 0.0495 0.10796 0.0
C228 C 0.21508 -0.00086 0.09036 0.0
C229 C 0.28604 0.997 0.10577 0.0
C230 C 0.2583 0.00469 0.1047 0.0
C231 C 0.17675 0.02369 0.1046 0.0
C232 C 0.20503 0.01793 0.10397 0.0
H233 H 0.34602 0.02441 0.11117 0.0
H234 H 0.30051 0.03705 0.10793 0.0
H235 H 0.24864 0.97796 0.08012 0.0
H236 H 0.11854 0.99177 0.10407 0.0
H237 H 0.16479 0.983 0.10052 0.0
C238 C 0.65272 0.97737 0.36185 0.0
C239 C 0.64626 0.95048 0.36082 0.0
C240 C 0.67852 0.98554 0.36023 0.0
C241 C 0.74567 0.96299 0.36664 0.0
H242 H 0.76188 0.02523 0.33468 0.0
C243 C 0.85078 0.00031 0.35733 0.0
C244 C 0.85449 0.02755 0.35996 0.0
C245 C 0.82579 0.98992 0.35517 0.0
C246 C 0.75763 0.00792 0.34375 0.0
H247 H 0.66187 0.91102 0.35745 0.0
H248 H 0.70716 0.92538 0.35462 0.0
H249 H 0.7174 0.00852 0.33553 0.0
H250 H 0.83496 0.06536 0.36175 0.0
H251 H 0.79131 0.04719 0.35822 0.0
H252 H 0.78579 0.96265 0.37518 0.0
C253 C 0.69215 0.94008 0.35677 0.0
C254 C 0.73218 0.99835 0.34424 0.0
C255 C 0.66624 0.93188 0.35834 0.0
C256 C 0.83275 0.04428 0.35974 0.0
C257 C 0.80774 0.03388 0.35761 0.0
C258 C 0.77113 0.97258 0.36617 0.0
C259 C 0.6985 0.96702 0.35756 0.0
C260 C 0.72587 0.976 0.35592 0.0
C261 C 0.80397 0.00654 0.35561 0.0
C262 C 0.77732 0.99535 0.35493 0.0
H263 H 0.63782 0.99223 0.36382 0.0
H264 H 0.68284 0.00639 0.36128 0.0
H265 H 0.74134 0.9459 0.37594 0.0
H266 H 0.86715 0.9869 0.35727 0.0
H267 H 0.82355 0.96883 0.35332 0.0
C268 C 0.85429 0.9816 0.87554 0.0
C269 C 0.86414 0.95653 0.87081 0.0
C270 C 0.828 0.98722 0.87285 0.0
C271 C 0.76914 0.96517 0.84573 0.0
H272 H 0.73406 0.00708 0.88675 0.0
C273 C 0.65772 0.98161 0.84754 0.0
C274 C 0.64915 0.00722 0.85217 0.0
C275 C 0.68405 0.97516 0.84898 0.0
C276 C 0.74366 0.9956 0.87506 0.0
H277 H 0.85416 0.91767 0.85948 0.0
H278 H 0.80799 0.9274 0.85506 0.0
H279 H 0.77967 0.99575 0.89123 0.0
H280 H 0.66155 0.04631 0.86145 0.0
H281 H 0.70748 0.03502 0.86391 0.0
H282 H 0.73289 0.96491 0.82967 0.0
C283 C 0.82074 0.9428 0.8606 0.0
C284 C 0.76978 0.9891 0.87762 0.0
C285 C 0.84714 0.93718 0.86325 0.0
C286 C 0.6675 0.02637 0.85787 0.0
C287 C 0.69379 0.01989 0.85939 0.0
C288 C 0.74292 0.9716 0.84321 0.0
C289 C 0.81089 0.96788 0.86544 0.0
C290 C 0.78288 0.97398 0.86292 0.0
C291 C 0.70228 0.99415 0.85517 0.0
C292 C 0.72999 0.98703 0.85779 0.0
H293 H 0.86689 0.99702 0.88127 0.0
H294 H 0.82113 0.00687 0.87638 0.0
H295 H 0.77877 0.95376 0.83402 0.0
H296 H 0.64406 0.96642 0.84308 0.0
H297 H 0.69003 0.95512 0.84577 0.0
C298 C 0.15685 0.98965 0.6049 0.0
C299 C 0.15065 0.96269 0.60419 0.0
C300 C 0.18213 0.99826 0.601 0.0
C301 C 0.24997 0.97513 0.60085 0.0
H302 H 0.26242 0.04137 0.57292 0.0
C303 C 0.35333 0.01274 0.58399 0.0
C304 C 0.35829 0.03903 0.58954 0.0
C305 C 0.32792 0.00312 0.5834 0.0
C306 C 0.2592 0.02289 0.5808 0.0
H307 H 0.166 0.92361 0.59841 0.0
H308 H 0.2102 0.9387 0.59124 0.0
H309 H 0.21811 0.02449 0.57595 0.0
H310 H 0.3404 0.07611 0.5981 0.0
H311 H 0.2959 0.05924 0.59702 0.0
H312 H 0.29106 0.9736 0.60574 0.0
C313 C 0.19555 0.95315 0.59517 0.0
C314 C 0.23385 0.01323 0.58259 0.0
C315 C 0.17022 0.94451 0.59919 0.0
C316 C 0.33722 0.05575 0.5938 0.0
C317 C 0.31174 0.04614 0.59309 0.0
C318 C 0.27531 0.9847 0.59894 0.0
C319 C 0.20181 0.98013 0.59615 0.0
C320 C 0.2289 0.98941 0.59288 0.0
C321 C 0.3069 0.0196 0.58822 0.0
C322 C 0.28015 0.00883 0.58912 0.0
H323 H 0.14226 0.00419 0.60878 0.0
H324 H 0.18634 0.01911 0.60226 0.0
H325 H 0.24684 0.95694 0.60915 0.0
H326 H 0.36911 -0.00065 0.58052 0.0
H327 H 0.32472 0.98268 0.57935 0.0
C328 C 0.83669 0.49648 0.11179 0.0
C329 C 0.84135 0.4692 0.1115 0.0
C330 C 0.81155 0.50627 0.10955 0.0
C331 C 0.74691 0.48967 0.0898 0.0
H332 H 0.72412 0.54611 0.12537 0.0
C333 C 0.64029 0.52437 0.09382 0.0
C334 C 0.63557 0.55148 0.09617 0.0
C335 C 0.66556 0.51449 0.09482 0.0
C336 C 0.7303 0.53062 0.11512 0.0
H337 H 0.82329 0.43074 0.10854 0.0
H338 H 0.77913 0.44794 0.10464 0.0
H339 H 0.7677 0.52804 0.12917 0.0
H340 H 0.65372 0.5896 0.10088 0.0
H341 H 0.69797 0.57236 0.10232 0.0
H342 H 0.70953 0.49232 0.07568 0.0
C343 C 0.79507 0.4617 0.10649 0.0
C344 C 0.75523 0.52022 0.11735 0.0
C345 C 0.8203 0.45186 0.10882 0.0
C346 C 0.65672 0.56859 0.0991 0.0
C347 C 0.68204 0.5587 0.10005 0.0
C348 C 0.72198 0.50015 0.08751 0.0
C349 C 0.79047 0.48901 0.10692 0.0
C350 C 0.76381 0.49965 0.10471 0.0
C351 C 0.6867 0.53149 0.09813 0.0
C352 C 0.7134 0.52074 0.10016 0.0
H353 H 0.85248 0.5104 0.11377 0.0
H354 H 0.80865 0.52741 0.10967 0.0
H355 H 0.75313 0.47406 0.07967 0.0
H356 H 0.62442 0.51062 0.09158 0.0
H357 H 0.66843 0.49341 0.09353 0.0
C358 C 0.33789 0.49756 0.35691 0.0
C359 C 0.34669 0.52349 0.35992 0.0
C360 C 0.31145 0.49157 0.3582 0.0
C361 C 0.25048 0.51544 0.38061 0.0
H362 H 0.21842 0.46723 0.3423 0.0
C363 C 0.13998 0.49651 0.3791 0.0
C364 C 0.13162 0.47042 0.37611 0.0
C365 C 0.16617 0.50316 0.37693 0.0
C366 C 0.22717 0.48049 0.35325 0.0
H367 H 0.3346 0.56361 0.36632 0.0
H368 H 0.28833 0.55314 0.36847 0.0
H369 H 0.26416 0.47897 0.33835 0.0
H370 H 0.14421 0.43078 0.36866 0.0
H371 H 0.19005 0.44236 0.36511 0.0
H372 H 0.21357 0.51684 0.3956 0.0
C373 C 0.30197 0.5374 0.36532 0.0
C374 C 0.25333 0.48725 0.35096 0.0
C375 C 0.32844 0.54341 0.36398 0.0
C376 C 0.15004 0.45107 0.37102 0.0
C377 C 0.17626 0.45774 0.36886 0.0
C378 C 0.22433 0.50865 0.38292 0.0
C379 C 0.29323 0.51139 0.36256 0.0
C380 C 0.26528 0.50475 0.36464 0.0
C381 C 0.1846 0.48387 0.37174 0.0
C382 C 0.21239 0.49106 0.36929 0.0
H383 H 0.35145 0.48174 0.35378 0.0
H384 H 0.30535 0.4713 0.35622 0.0
H385 H 0.25925 0.52865 0.39159 0.0
H386 H 0.12628 0.51191 0.38297 0.0
H387 H 0.17192 0.52353 0.379 0.0
C388 C 0.16078 0.49939 0.88765 0.0
C389 C 0.15527 0.52281 0.8771 0.0
C390 C 0.18407 0.48605 0.88428 0.0
C391 C 0.2343 0.47518 0.84626 0.0
H392 H 0.27607 0.45221 0.89203 0.0
C393 C 0.33787 0.43249 0.83731 0.0
C394 C 0.34638 0.41388 0.85166 0.0
C395 C 0.31344 0.44422 0.8393 0.0
C396 C 0.26442 0.458 0.87906 0.0
H397 H 0.16983 0.55075 0.85481 0.0
H398 H 0.2106 0.5271 0.84873 0.0
H399 H 0.23618 0.47673 0.89812 0.0
H400 H 0.33536 0.39142 0.87839 0.0
H401 H 0.29233 0.41101 0.88138 0.0
H402 H 0.26221 0.45604 0.82716 0.0
C403 C 0.19681 0.51919 0.85962 0.0
C404 C 0.24168 0.47223 0.88258 0.0
C405 C 0.17362 0.53279 0.86322 0.0
C406 C 0.3294 0.40595 0.86724 0.0
C407 C 0.30484 0.41737 0.86905 0.0
C408 C 0.25692 0.46064 0.84272 0.0
C409 C 0.20216 0.49568 0.8701 0.0
C410 C 0.22646 0.48099 0.86623 0.0
C411 C 0.2969 0.43729 0.85552 0.0
C412 C 0.27228 0.45189 0.85909 0.0
H413 H 0.14702 0.49124 0.89845 0.0
H414 H 0.1877 0.46787 0.89245 0.0
H415 H 0.22268 0.48149 0.8334 0.0
H416 H 0.35062 0.4391 0.8252 0.0
H417 H 0.3081 0.45961 0.82868 0.0
C418 C 0.64289 0.46491 0.63401 0.0
C419 C 0.6247 0.48214 0.62525 0.0
C420 C 0.66904 0.47217 0.63549 0.0
C421 C 0.71751 0.51882 0.61432 0.0
H422 H 0.75636 0.50046 0.66285 0.0
C423 C 0.82129 0.55775 0.6301 0.0
C424 C 0.83938 0.53868 0.6364 0.0
C425 C 0.7948 0.5516 0.62917 0.0
C426 C 0.74577 0.50559 0.64917 0.0
H427 H 0.61964 0.52054 0.61123 0.0
H428 H 0.66505 0.53338 0.61418 0.0
H429 H 0.71067 0.488 0.6602 0.0
H430 H 0.84387 0.4984 0.64699 0.0
H431 H 0.79774 0.4878 0.64545 0.0
H432 H 0.75266 0.53659 0.6034 0.0
C433 C 0.65927 0.51405 0.61955 0.0
C434 C 0.71964 0.49837 0.6476 0.0
C435 C 0.63319 0.50673 0.61796 0.0
C436 C 0.83044 0.51353 0.64204 0.0
C437 C 0.804 0.50748 0.64128 0.0
C438 C 0.7436 0.52619 0.61595 0.0
C439 C 0.67751 0.49688 0.62835 0.0
C440 C 0.70524 0.50477 0.6301 0.0
C441 C 0.78594 0.52638 0.63472 0.0
C442 C 0.75801 0.51951 0.63334 0.0
H443 H 0.63696 0.44576 0.63968 0.0
H444 H 0.68265 0.45829 0.64206 0.0
H445 H 0.70711 0.52372 0.6005 0.0
H446 H 0.8276 0.5773 0.62566 0.0
H447 H 0.78124 0.5666 0.62421 0.0
C448 C 0.99044 0.05035 0.33106 0.0
C449 C 0.97857 0.03081 0.343 0.0
C450 C 0.00597 0.04343 0.31455 0.0
C451 C 0.00921 0.99432 0.2757 0.0
H452 H 0.07003 0.03425 0.25918 0.0
C453 C 0.04288 0.99836 0.19187 0.0
C454 C 0.04643 0.02434 0.18493 0.0
C455 C 0.04117 0.99305 0.21274 0.0
C456 C 0.05317 0.02278 0.26361 0.0
H457 H 0.97438 0.98872 0.34765 0.0
H458 H 0.00115 0.97654 0.31814 0.0
H459 H 0.0556 0.03567 0.29457 0.0
H460 H 0.05187 0.06496 0.19439 0.0
H461 H 0.0486 0.0558 0.23052 0.0
H462 H 0.00562 0.98294 0.24448 0.0
C463 C -0.0014 0.99718 0.32182 0.0
C464 C 0.04501 0.0235 0.28385 0.0
C465 C 0.98339 0.00414 0.33866 0.0
C466 C 0.04902 0.04473 0.19922 0.0
C467 C 0.04745 0.03943 0.21998 0.0
C468 C 0.0173 0.99369 0.2554 0.0
C469 C 0.00966 0.01683 0.30944 0.0
C470 C 0.02226 0.01029 0.28985 0.0
C471 C 0.04322 0.0136 0.22699 0.0
C472 C 0.03861 0.00897 0.24898 0.0
H473 H 0.98717 0.07106 0.33415 0.0
H474 H 0.01394 0.059 0.30511 0.0
H475 H 0.99151 0.98407 0.2799 0.0
H476 H 0.04093 0.98221 0.18122 0.0
H477 H 0.03796 0.97295 0.21772 0.0
C478 C 0.46701 0.00769 0.16602 0.0
C479 C 0.44657 0.98944 0.16416 0.0
C480 C 0.47773 0.01319 0.18511 0.0
C481 C 0.46754 0.00393 0.24073 0.0
H482 H 0.54227 0.99396 0.242 0.0
C483 C 0.54587 0.95451 0.2969 0.0
C484 C 0.53888 0.96548 0.31574 0.0
C485 C 0.53626 0.96509 0.27884 0.0
C486 C 0.52142 0.997 0.24189 0.0
H487 H 0.42025 0.96394 0.18093 0.0
H488 H 0.43899 0.97332 0.21401 0.0
H489 H 0.52034 -0.00046 0.20943 0.0
H490 H 0.517 0.99673 0.33039 0.0
H491 H 0.50005 0.01516 0.29869 0.0
H492 H 0.46843 -0.00039 0.2731 0.0
C493 C 0.4467 0.98355 0.20085 0.0
C494 C 0.50888 0.0005 0.22325 0.0
C495 C 0.43611 0.97796 0.18182 0.0
C496 C 0.52264 0.98775 0.31611 0.0
C497 C 0.5129 0.99829 0.29798 0.0
C498 C 0.48008 0.00043 0.25937 0.0
C499 C 0.46804 0.0007 0.20266 0.0
C500 C 0.48169 0.00293 0.22244 0.0
C501 C 0.51939 0.98686 0.27918 0.0
C502 C 0.50701 0.99587 0.26005 0.0
H503 H 0.47539 0.01696 0.15268 0.0
H504 H 0.49405 0.02665 0.18608 0.0
H505 H 0.44659 0.00614 0.24057 0.0
H506 H 0.55841 0.93741 0.29608 0.0
H507 H 0.54128 0.95555 0.26463 0.0
C508 C 0.03017 0.98345 0.67216 0.0
C509 C 0.05332 0.97002 0.66768 0.0
C510 C 0.02429 0.99047 0.69219 0.0
C511 C 0.03904 0.96798 0.74393 0.0
H512 H 0.99406 0.02605 0.75911 0.0
C513 C 0.99291 0.97042 0.8227 0.0
C514 C 0.96567 0.9725 0.82191 0.0
C515 C 0.00804 0.97762 0.80594 0.0
C516 C 0.00678 0.00985 0.7551 0.0
H517 H 0.08947 0.95532 0.68029 0.0
H518 H 0.07955 0.9682 0.71515 0.0
H519 H 0.01347 0.02502 0.72512 0.0
H520 H 0.93314 0.98591 0.80363 0.0
H521 H 0.95951 0.99814 0.77433 0.0
H522 H 0.03173 0.95232 0.77353 0.0
C523 C 0.06554 0.97259 0.70334 0.0
C524 C 0.01781 0.00919 0.73565 0.0
C525 C 0.07125 0.96527 0.68336 0.0
C526 C 0.95406 0.98383 0.80465 0.0
C527 C 0.96921 0.99106 0.7879 0.0
C528 C 0.02819 0.96874 0.76335 0.0
C529 C 0.0416 0.98447 0.7081 0.0
C530 C 0.03342 0.9878 0.72964 0.0
C531 C -0.00376 0.98709 0.7881 0.0
C532 C 0.01132 0.98924 0.76895 0.0
H533 H 0.01599 0.98743 0.66038 0.0
H534 H 0.00555 -0.00068 0.69529 0.0
H535 H 0.05058 0.95096 0.73979 0.0
H536 H 0.00249 0.96205 0.83588 0.0
H537 H 0.02889 0.97472 0.80662 0.0
C538 C 0.45247 0.0056 0.66039 0.0
C539 C 0.44656 0.0322 0.65661 0.0
C540 C 0.458 0.99702 0.68015 0.0
C541 C 0.48734 0.99052 0.72014 0.0
H542 H 0.45276 0.02193 0.76664 0.0
C543 C 0.5375 0.00743 0.79641 0.0
C544 C 0.52294 0.00743 0.8145 0.0
C545 C 0.52545 0.00288 0.77775 0.0
C546 C 0.46232 0.01247 0.7539 0.0
H547 H 0.44133 0.07056 0.67064 0.0
H548 H 0.45133 0.05574 0.70489 0.0
H549 H 0.43519 0.0287 0.73267 0.0
H550 H 0.48462 0.00083 0.82739 0.0
H551 H 0.46353 0.99271 0.79468 0.0
H552 H 0.51474 0.97468 0.74137 0.0
C553 C 0.45131 0.04136 0.69271 0.0
C554 C 0.45243 0.01666 0.7344 0.0
C555 C 0.44583 0.04993 0.67301 0.0
C556 C 0.49633 0.00118 0.81368 0.0
C557 C 0.48423 0.99663 0.79495 0.0
C558 C 0.4972 0.98626 0.73967 0.0
C559 C 0.45763 0.01487 0.69649 0.0
C560 C 0.46539 0.00656 0.71726 0.0
C561 C 0.49855 0.99817 0.77674 0.0
C562 C 0.48533 0.99801 0.75668 0.0
H563 H 0.45306 0.99142 0.64808 0.0
H564 H 0.46264 0.97644 0.68262 0.0
H565 H 0.4978 0.98248 0.70726 0.0
H566 H 0.55808 0.01202 0.79651 0.0
H567 H 0.53703 0.00454 0.76403 0.0
C568 C 0.52923 0.54634 0.15979 0.0
C569 C 0.55523 0.55488 0.15959 0.0
C570 C 0.5183 0.53594 0.17752 0.0
C571 C 0.53384 0.51126 0.22947 0.0
H572 H 0.46747 0.54285 0.24307 0.0
C573 C 0.49769 0.5275 0.31135 0.0
C574 C 0.47082 0.52699 0.31518 0.0
C575 C 0.50715 0.52338 0.29168 0.0
C576 C 0.48571 0.53331 0.2394 0.0
H577 H 0.59052 0.55803 0.17752 0.0
H578 H 0.57129 0.54048 0.20854 0.0
H579 H 0.48564 0.54941 0.2094 0.0
H580 H 0.43294 0.51953 0.3018 0.0
H581 H 0.44952 0.51203 0.26755 0.0
H582 H 0.53426 0.49609 0.25992 0.0
C583 C 0.55942 0.54144 0.19495 0.0
C584 C 0.49615 0.53709 0.22004 0.0
C585 C 0.57039 0.55173 0.1772 0.0
C586 C 0.45374 0.52045 0.29927 0.0
C587 C 0.46321 0.51622 0.27964 0.0
C588 C 0.52337 0.50749 0.2489 0.0
C589 C 0.5331 0.53397 0.19543 0.0
C590 C 0.52062 0.52666 0.215 0.0
C591 C 0.48993 0.51853 0.2755 0.0
C592 C 0.49947 0.51901 0.2542 0.0
H593 H 0.51713 0.54821 0.14638 0.0
H594 H 0.49807 0.52998 0.17733 0.0
H595 H 0.55256 0.50264 0.22593 0.0
H596 H 0.51135 0.53237 0.32331 0.0
H597 H 0.52783 0.5255 0.28898 0.0
C598 C 0.01172 0.47726 0.32036 0.0
C599 C 0.03881 0.47366 0.31989 0.0
C600 C -0.00165 0.48458 0.30276 0.0
C601 C 0.00617 0.50889 0.24979 0.0
H602 H 0.95061 0.45942 0.23829 0.0
C603 C 0.97539 0.48036 0.16866 0.0
C604 C 0.9497 0.47217 0.16514 0.0
C605 C 0.98334 0.48753 0.18821 0.0
C606 C 0.96559 0.4739 0.24133 0.0
H607 H 0.07334 0.47684 0.30103 0.0
H608 H 0.04998 0.4894 0.27032 0.0
H609 H 0.96982 0.46043 0.27193 0.0
H610 H 0.91167 0.46706 0.17888 0.0
H611 H 0.92533 0.48027 0.21286 0.0
H612 H 0.00238 0.52182 0.2189 0.0
C613 C 0.03907 0.48667 0.28428 0.0
C614 C 0.97664 0.47444 0.26068 0.0
C615 C 0.05243 0.47925 0.30185 0.0
C616 C 0.93172 0.47289 0.18123 0.0
C617 C 0.93957 0.48037 0.2007 0.0
C618 C -0.00504 0.50848 0.23041 0.0
C619 C 0.01182 0.48857 0.28439 0.0
C620 C -0.00249 0.49141 0.26496 0.0
C621 C 0.96567 0.48695 0.20458 0.0
C622 C 0.97502 0.49045 0.2258 0.0
H623 H 0.00068 0.4733 0.33408 0.0
H624 H 0.97736 0.48621 0.30332 0.0
H625 H 0.02206 0.52238 0.25276 0.0
H626 H 0.98968 0.48003 0.15654 0.0
H627 H 0.00365 0.4922 0.19065 0.0
C628 C 0.50226 0.48488 0.68764 0.0
C629 C 0.52631 0.49567 0.68186 0.0
C630 C 0.49152 0.49072 0.70659 0.0
C631 C 0.51396 0.50479 0.75744 0.0
H632 H 0.44003 0.50367 0.76914 0.0
C633 C 0.43769 0.48268 0.82803 0.0
C634 C 0.44819 0.4583 0.834 0.0
C635 C 0.44818 0.49633 0.81142 0.0
C636 C 0.46075 0.50461 0.76624 0.0
H637 H 0.55707 0.52261 0.69077 0.0
H638 H 0.53832 0.53264 0.72407 0.0
H639 H 0.45499 0.51327 0.73466 0.0
H640 H 0.47868 0.42981 0.82809 0.0
H641 H 0.49694 0.45354 0.79928 0.0
H642 H 0.51966 0.49481 0.78878 0.0
C643 C 0.5279 0.51954 0.71393 0.0
C644 C 0.4693 0.50989 0.74646 0.0
C645 C 0.53858 0.51382 0.69486 0.0
C646 C 0.47008 0.44847 0.82375 0.0
C647 C 0.48071 0.46222 0.80738 0.0
C648 C 0.50541 0.49944 0.77718 0.0
C649 C 0.50465 0.5074 0.72022 0.0
C650 C 0.49592 0.50881 0.74169 0.0
C651 C 0.46956 0.486 0.80077 0.0
C652 C 0.4787 0.49808 0.78153 0.0
H653 H 0.49221 0.47102 0.67788 0.0
H654 H 0.47374 0.4808 0.71104 0.0
H655 H 0.5346 0.50371 0.75426 0.0
H656 H 0.42082 0.49073 0.83568 0.0
H657 H 0.43926 0.51464 0.80664 0.0
C658 C 0.02538 0.50751 0.83337 0.0
C659 C 0.04436 0.52747 0.8333 0.0
C660 C 0.01361 0.49958 0.81517 0.0
C661 C 0.97998 0.50455 0.77675 0.0
H662 H 0.01992 0.50088 0.72671 0.0
C663 C 0.94004 0.53595 0.69958 0.0
C664 C 0.94813 0.52296 0.68179 0.0
C665 C 0.94988 0.52855 0.71848 0.0
C666 C 0.00846 0.50125 0.74054 0.0
H667 H 0.06646 0.55419 0.81409 0.0
H668 H 0.04601 0.54044 0.78255 0.0
H669 H 0.04242 0.50191 0.75933 0.0
H670 H 0.97199 0.49124 0.66996 0.0
H671 H 0.98946 0.47844 0.70315 0.0
H672 H 0.94604 0.50493 0.7579 0.0
C673 C 0.0403 0.53076 0.79657 0.0
C674 C 0.02136 0.5021 0.7592 0.0
C675 C 0.05182 0.53884 0.81469 0.0
C676 C 0.9655 0.5017 0.68339 0.0
C677 C 0.97552 0.4944 0.70236 0.0
C678 C 0.96707 0.50379 0.75807 0.0
C679 C 0.02092 0.51123 0.79661 0.0
C680 C 0.00728 0.5048 0.77742 0.0
C681 C 0.96812 0.50806 0.72005 0.0
C682 C 0.98123 0.50316 0.73976 0.0
H683 H 0.01928 0.49836 0.84749 0.0
H684 H -0.00129 0.48447 0.81561 0.0
H685 H 0.96864 0.50667 0.79055 0.0
H686 H 0.92655 0.5523 0.69888 0.0
H687 H 0.94409 0.53973 0.73177 0.0
C688 C 0.01612 0.15332 0.12106 0.0
C689 C 0.03535 0.14732 0.13553 0.0
C690 C 0.00539 0.17858 0.12006 0.0
C691 C 0.01792 0.24765 0.13441 0.0
H692 H 0.94323 0.2555 0.12883 0.0
C693 C 0.96786 0.34755 0.14608 0.0
C694 C 0.94798 0.35465 0.13249 0.0
C695 C 0.97789 0.32202 0.14613 0.0
C696 C 0.96414 0.25365 0.13014 0.0
H697 H 0.05857 0.16323 0.1602 0.0
H698 H 0.03981 0.20729 0.15848 0.0
H699 H 0.96239 0.21149 0.12919 0.0
H700 H 0.92271 0.34035 0.1085 0.0
H701 H 0.94047 0.29568 0.10845 0.0
H702 H 0.01976 0.28972 0.13533 0.0
C703 C 0.03317 0.1925 0.14779 0.0
C704 C 0.97512 0.22844 0.13036 0.0
C705 C 0.04383 0.16721 0.14884 0.0
C706 C 0.93798 0.33547 0.11919 0.0
C707 C 0.9481 0.30986 0.11921 0.0
C708 C 0.00697 0.27281 0.13414 0.0
C709 C 0.01374 0.19843 0.13346 0.0
C710 C 0.00211 0.22518 0.13264 0.0
C711 C 0.96838 0.30295 0.13254 0.0
C712 C 0.97994 0.27612 0.13218 0.0
H713 H 0.00916 0.13845 0.11056 0.0
H714 H 0.99068 0.18263 0.1087 0.0
H715 H 0.03882 0.2458 0.13582 0.0
H716 H 0.97588 0.36178 0.15664 0.0
H717 H 0.99313 0.31722 0.15688 0.0
C718 C 0.44372 0.85365 0.15039 0.0
C719 C 0.43606 0.8665 0.13241 0.0
C720 C 0.45656 0.82941 0.14955 0.0
C721 C 0.4966 0.78919 0.11501 0.0
H722 H 0.48137 0.73279 0.15306 0.0
C723 C 0.53727 0.68394 0.10567 0.0
C724 C 0.54471 0.67024 0.12333 0.0
C725 C 0.52502 0.70842 0.10709 0.0
C726 C 0.4861 0.74849 0.1425 0.0
H727 H 0.43513 0.86353 0.09946 0.0
H728 H 0.45725 0.82114 0.09804 0.0
H729 H 0.45682 0.77384 0.15487 0.0
H730 H 0.5459 0.67195 0.15632 0.0
H731 H 0.5248 0.71485 0.15876 0.0
H732 H 0.52584 0.76387 0.10261 0.0
C733 C 0.45371 0.83002 0.11277 0.0
C734 C 0.47199 0.77198 0.14351 0.0
C735 C 0.44084 0.85422 0.11361 0.0
C736 C 0.54032 0.68193 0.14241 0.0
C737 C 0.52806 0.70642 0.14383 0.0
C738 C 0.51071 0.76573 0.114 0.0
C739 C 0.46205 0.81752 0.13071 0.0
C740 C 0.477 0.79254 0.12972 0.0
C741 C 0.51995 0.71978 0.12619 0.0
C742 C 0.50556 0.74507 0.12769 0.0
H743 H 0.44037 0.86259 0.16512 0.0
H744 H 0.4629 0.82038 0.16364 0.0
H745 H 0.50127 0.80486 0.10441 0.0
H746 H 0.54032 0.67548 0.09073 0.0
H747 H 0.5188 0.71807 0.09322 0.0
C748 C 0.42174 0.66067 0.3436 0.0
C749 C 0.43407 0.63954 0.35349 0.0
C750 C 0.43301 0.68577 0.34363 0.0
C751 C 0.4959 0.71942 0.34914 0.0
H752 H 0.454 0.78117 0.36046 0.0
C753 C 0.54124 0.82273 0.36062 0.0
C754 C 0.52754 0.84443 0.3528 0.0
C755 C 0.53001 0.7976 0.36059 0.0
C756 C 0.46594 0.76419 0.35699 0.0
H757 H 0.46786 0.62824 0.37127 0.0
H758 H 0.48746 0.67197 0.37125 0.0
H759 H 0.43377 0.7377 0.36047 0.0
H760 H 0.49159 0.85669 0.33838 0.0
H761 H 0.47233 0.81293 0.33787 0.0
H762 H 0.52801 0.74583 0.34538 0.0
C763 C 0.46917 0.66909 0.36338 0.0
C764 C 0.45433 0.73928 0.35705 0.0
C765 C 0.45783 0.64408 0.36349 0.0
C766 C 0.50259 0.84042 0.34467 0.0
C767 C 0.49146 0.81532 0.34451 0.0
C768 C 0.50749 0.74435 0.34893 0.0
C769 C 0.45693 0.69018 0.35341 0.0
C770 C 0.46919 0.71665 0.35316 0.0
C771 C 0.50491 0.79362 0.35262 0.0
C772 C 0.49266 0.76705 0.35287 0.0
H773 H 0.40344 0.65782 0.33575 0.0
H774 H 0.42324 0.70164 0.3357 0.0
H775 H 0.50778 0.70233 0.34584 0.0
H776 H 0.56046 0.82521 0.36707 0.0
H777 H 0.5408 0.7814 0.36718 0.0
C778 C 0.98937 0.35973 0.35742 0.0
C779 C 0.015 0.36478 0.36376 0.0
C780 C 0.97988 0.33396 0.35665 0.0
C781 C 0.00037 0.26487 0.35298 0.0
H782 H 0.93162 0.25018 0.37461 0.0
C783 C 0.94934 0.16484 0.34128 0.0
C784 C 0.93771 0.15351 0.35858 0.0
C785 C 0.95812 0.19089 0.34168 0.0
C786 C 0.95088 0.25397 0.36859 0.0
H787 H 0.05089 0.3467 0.374 0.0
H788 H 0.03428 0.30158 0.37255 0.0
H789 H 0.94891 0.295 0.37603 0.0
H790 H 0.92555 0.16088 0.38969 0.0
H791 H 0.94077 0.20647 0.39031 0.0
H792 H 0.00241 0.2238 0.34569 0.0
C793 C 0.02159 0.31763 0.36814 0.0
C794 C 0.96069 0.27964 0.36924 0.0
C795 C 0.03106 0.34346 0.36905 0.0
C796 C 0.93441 0.16903 0.3761 0.0
C797 C 0.94304 0.19516 0.37645 0.0
C798 C 0.99048 0.23923 0.3522 0.0
C799 C -0.00415 0.31265 0.36206 0.0
C800 C 0.98554 0.28535 0.36145 0.0
C801 C 0.9553 0.20623 0.35933 0.0
C802 C 0.96564 0.23352 0.36 0.0
H803 H 0.97648 0.37569 0.35321 0.0
H804 H 0.96007 0.33071 0.35165 0.0
H805 H 0.0195 0.26873 0.34673 0.0
H806 H 0.95216 0.15344 0.32752 0.0
H807 H 0.96717 0.19902 0.32817 0.0
C808 C 0.07407 0.66602 0.87813 0.0
C809 C 0.07659 0.65251 0.85956 0.0
C810 C 0.06512 0.69199 0.87854 0.0
C811 C 0.02593 0.73854 0.84863 0.0
H812 H 0.05408 0.79028 0.88604 0.0
C813 C 0.9739 0.83679 0.86623 0.0
C814 C 0.98951 0.85944 0.86789 0.0
C815 C 0.98528 0.81187 0.86459 0.0
C816 C 0.04613 0.77613 0.87539 0.0
H817 H 0.07253 0.656 0.8268 0.0
H818 H 0.05715 0.70144 0.82753 0.0
H819 H 0.07388 0.74672 0.8839 0.0
H820 H 0.02929 0.8737 0.86894 0.0
H821 H 0.04906 0.83031 0.86592 0.0
H822 H -0.00168 0.76803 0.83998 0.0
C823 C 0.06173 0.69179 0.84179 0.0
C824 C 0.05732 0.7511 0.87431 0.0
C825 C 0.07072 0.66581 0.84137 0.0
C826 C 0.0167 0.85665 0.86777 0.0
C827 C 0.02805 0.83176 0.86615 0.0
C828 C 0.0147 0.76356 0.84973 0.0
C829 C 0.05847 0.70503 0.8604 0.0
C830 C 0.04728 0.73198 0.86098 0.0
C831 C 0.01248 0.80908 0.86459 0.0
C832 C 0.02462 0.7826 0.86318 0.0
H833 H 0.07839 0.65634 0.89243 0.0
H834 H 0.06259 0.70156 0.89314 0.0
H835 H 0.01754 0.72416 0.83837 0.0
H836 H 0.95289 0.83827 0.86631 0.0
H837 H 0.97275 0.79474 0.86365 0.0
C838 C 0.45582 0.31034 0.83103 0.0
C839 C 0.45105 0.32148 0.85025 0.0
C840 C 0.46794 0.28579 0.82936 0.0
C841 C 0.48272 0.22546 0.85873 0.0
H842 H 0.53614 0.21516 0.81779 0.0
C843 C 0.54853 0.13415 0.85902 0.0
C844 C 0.55232 0.12138 0.84027 0.0
C845 C 0.53693 0.15898 0.85979 0.0
C846 C 0.5211 0.21768 0.82917 0.0
H847 H 0.45513 0.31551 0.88281 0.0
H848 H 0.47647 0.27293 0.87989 0.0
H849 H 0.51358 0.2574 0.81989 0.0
H850 H 0.54768 0.12508 0.80757 0.0
H851 H 0.52737 0.16851 0.80896 0.0
H852 H 0.49031 0.18585 0.86809 0.0
C853 C 0.47055 0.28295 0.8661 0.0
C854 C 0.50814 0.24184 0.83035 0.0
C855 C 0.45841 0.30745 0.86776 0.0
C856 C 0.54503 0.13438 0.82226 0.0
C857 C 0.53348 0.15929 0.82304 0.0
C858 C 0.49571 0.20138 0.85758 0.0
C859 C 0.47555 0.27188 0.84688 0.0
C860 C 0.48888 0.24603 0.84521 0.0
C861 C 0.52892 0.17165 0.84184 0.0
C862 C 0.51513 0.19727 0.84286 0.0
H863 H 0.45033 0.32063 0.81724 0.0
H864 H 0.47121 0.27764 0.81435 0.0
H865 H 0.46765 0.22788 0.8701 0.0
H866 H 0.55402 0.12475 0.87318 0.0
H867 H 0.53408 0.16821 0.87448 0.0
C868 C 0.4423 0.1762 0.63736 0.0
C869 C 0.44263 0.16073 0.61962 0.0
C870 C 0.45301 0.20154 0.63731 0.0
C871 C 0.47397 0.25564 0.60309 0.0
H872 H 0.5164 0.27633 0.64918 0.0
C873 C 0.53729 0.34951 0.60182 0.0
C874 C 0.53644 0.36545 0.61929 0.0
C875 C 0.52632 0.32429 0.60202 0.0
C876 C 0.50442 0.27094 0.63629 0.0
H877 H 0.45393 0.16 0.58779 0.0
H878 H 0.47279 0.20402 0.58777 0.0
H879 H 0.49518 0.23332 0.64915 0.0
H880 H 0.52399 0.36714 0.65084 0.0
H881 H 0.50485 0.32318 0.65115 0.0
H882 H 0.48333 0.29322 0.59019 0.0
C883 C 0.46403 0.19672 0.60167 0.0
C884 C 0.4922 0.24632 0.63629 0.0
C885 C 0.45331 0.17141 0.60171 0.0
C886 C 0.525 0.35536 0.63712 0.0
C887 C 0.51411 0.33012 0.63733 0.0
C888 C 0.48624 0.28023 0.60308 0.0
C889 C 0.46428 0.21197 0.61952 0.0
C890 C 0.47683 0.23838 0.61969 0.0
C891 C 0.51436 0.31443 0.61971 0.0
C892 C 0.50162 0.28814 0.61966 0.0
H893 H 0.43414 0.16862 0.65139 0.0
H894 H 0.45251 0.21295 0.65123 0.0
H895 H 0.46197 0.2503 0.5902 0.0
H896 H 0.546 0.35665 0.58785 0.0
H897 H 0.52715 0.31251 0.58829 0.0
C898 C 0.02272 0.8447 0.64581 0.0
C899 C 0.04295 0.85125 0.63232 0.0
C900 C 0.01255 0.81919 0.64628 0.0
C901 C 0.02732 0.75034 0.63267 0.0
H902 H 0.95272 0.7414 0.63821 0.0
C903 C 0.98073 0.64989 0.65142 0.0
C904 C 0.95764 0.64306 0.64128 0.0
C905 C 0.9911 0.67522 0.64962 0.0
C906 C 0.97356 0.74354 0.63647 0.0
H907 H 0.06855 0.83606 0.60886 0.0
H908 H 0.05064 0.79144 0.6096 0.0
H909 H 0.97106 0.78562 0.63596 0.0
H910 H 0.92728 0.65754 0.6213 0.0
H911 H 0.94551 0.70179 0.61805 0.0
H912 H 0.02977 0.70824 0.63291 0.0
C913 C 0.04282 0.80604 0.61994 0.0
C914 C 0.98411 0.76889 0.63542 0.0
C915 C 0.05302 0.83162 0.61946 0.0
C916 C 0.94505 0.6622 0.62937 0.0
C917 C 0.95545 0.68758 0.62757 0.0
C918 C 0.01677 0.72498 0.63373 0.0
C919 C 0.02234 0.7996 0.63326 0.0
C920 C 0.01113 0.7726 0.63367 0.0
C921 C 0.97865 0.69435 0.63762 0.0
C922 C 0.98978 0.72129 0.63579 0.0
H923 H 0.01458 0.8593 0.65599 0.0
H924 H -0.00289 0.81477 0.65698 0.0
H925 H 0.04822 0.75251 0.63145 0.0
H926 H 0.99089 0.63565 0.66077 0.0
H927 H 0.00876 0.67991 0.65784 0.0
C928 C 0.96314 0.92111 0.95309 0.0
C929 C 0.95224 0.93542 0.93694 0.0
C930 C 0.96474 0.93224 0.97251 0.0
C931 C 0.96352 0.99726 -0.00188 0.0
H932 H 0.9583 0.95479 0.04707 0.0
C933 C 0.9721 0.04389 0.07711 0.0
C934 C 0.99208 0.03272 0.08884 0.0
C935 C 0.96253 0.03062 0.06008 0.0
C936 C 0.95968 0.96684 0.03349 0.0
H937 H 0.9335 0.97211 0.92851 0.0
H938 H 0.93543 0.99114 0.96238 0.0
H939 H 0.9508 0.93443 0.01387 0.0
H940 H 0.01627 0.99809 0.09294 0.0
H941 H -0.00068 0.97487 0.06328 0.0
H942 H 0.97237 0.02962 0.01775 0.0
C943 C 0.9436 0.97172 0.96004 0.0
C944 C 0.95559 0.9552 0.01449 0.0
C945 C 0.9424 0.96077 0.94062 0.0
C946 C 0.001 0.00728 0.08408 0.0
C947 C 0.9912 0.9939 0.06719 0.0
C948 C 0.96724 0.00892 0.01709 0.0
C949 C 0.95508 0.95776 0.97619 0.0
C950 C 0.95783 0.97021 -0.00346 0.0
C951 C 0.97252 0.00584 0.05467 0.0
C952 C 0.9657 0.99377 0.03492 0.0
H953 H 0.9709 0.90152 0.95066 0.0
H954 H 0.97407 0.92106 0.98448 0.0
H955 H 0.96597 0.00936 0.98467 0.0
H956 H 0.96478 0.06342 0.08045 0.0
H957 H 0.94793 0.04011 0.05072 0.0
C958 C 0.54864 0.0107 0.92304 0.0
C959 C 0.53478 0.03067 0.91295 0.0
C960 C 0.54146 0.0028 0.94262 0.0
C961 C 0.50499 0.02524 0.9878 0.0
H962 H 0.50395 0.95093 0.00168 0.0
C963 C 0.45245 0.98425 0.05841 0.0
C964 C 0.46451 0.96382 0.06933 0.0
C965 C 0.46316 0.99331 0.04019 0.0
C966 C 0.50452 0.97178 -0.00187 0.0
H967 H 0.5023 0.05777 0.91537 0.0
H968 H 0.48953 0.04368 0.94938 0.0
H969 H 0.51805 0.96461 0.96784 0.0
H970 H 0.49762 0.93737 0.07003 0.0
H971 H 0.51636 0.9533 0.03813 0.0
H972 H 0.49102 0.03234 0.018 0.0
C973 C 0.50624 0.03446 0.94231 0.0
C974 C 0.51256 0.97961 0.97874 0.0
C975 C 0.51344 0.04239 0.92275 0.0
C976 C 0.48784 0.95309 0.06193 0.0
C977 C 0.49849 0.96209 0.04362 0.0
C978 C 0.49689 0.0174 0.00716 0.0
C979 C 0.52025 0.01468 0.95249 0.0
C980 C 0.51264 0.00641 0.97331 0.0
C981 C 0.4861 0.9821 0.03248 0.0
C982 C 0.49634 0.99058 0.01245 0.0
H983 H 0.56524 0.00134 0.91593 0.0
H984 H 0.5528 0.98769 0.95014 0.0
H985 H 0.50531 0.04608 0.9842 0.0
H986 H 0.43448 0.99298 0.06373 0.0
H987 H 0.45303 0.00857 0.03183 0.0
C988 C 0.4558 0.06083 0.52868 0.0
C989 C 0.46123 0.0553 0.54919 0.0
C990 C 0.46786 0.04652 0.51321 0.0
C991 C 0.52411 0.00438 0.50172 0.0
H992 H 0.4806 0.97965 0.45747 0.0
C993 C 0.56156 0.93326 0.43936 0.0
C994 C 0.55381 0.9389 0.41932 0.0
C995 C 0.55054 0.94685 0.45574 0.0
C996 C 0.49307 0.98663 0.46961 0.0
H997 H 0.48405 0.03085 0.56956 0.0
H998 H 0.50511 0.00583 0.54247 0.0
H999 H 0.46136 0.00526 0.48494 0.0
H1000 H 0.52859 0.96334 0.40074 0.0
H1001 H 0.50973 0.98716 0.42918 0.0
H1002 H 0.5559 0.98591 0.48624 0.0
C1003 C 0.4916 0.02132 0.5384 0.0
C1004 C 0.48205 0.0013 0.48533 0.0
C1005 C 0.47945 0.03558 0.5539 0.0
C1006 C 0.53488 0.95838 0.41599 0.0
C1007 C 0.52395 0.97196 0.43232 0.0
C1008 C 0.53519 0.98975 0.48592 0.0
C1009 C 0.48566 0.02644 0.51791 0.0
C1010 C 0.49747 0.01049 0.50146 0.0
C1011 C 0.53159 0.96632 0.45237 0.0
C1012 C 0.5198 0.9809 0.46961 0.0
H1013 H 0.44193 0.07596 0.52454 0.0
H1014 H 0.46321 0.05115 0.49753 0.0
H1015 H 0.53649 0.01139 0.5139 0.0
H1016 H 0.57608 0.91833 0.44241 0.0
H1017 H 0.55665 0.94189 0.47104 0.0
C1018 C -0.00111 0.94266 0.56716 0.0
C1019 C 0.02352 0.9502 0.57434 0.0
C1020 C 0.98693 0.95682 0.55149 0.0
C1021 C 0.98892 0.02075 0.52436 0.0
H1022 H 0.96019 0.98095 0.47931 0.0
C1023 C 0.97329 0.06516 0.44472 0.0
C1024 C 0.9511 0.05751 0.43376 0.0
C1025 C 0.97906 0.05339 0.46338 0.0
C1026 C 0.96772 0.99238 0.49191 0.0
H1027 H 0.05472 0.97878 0.57101 0.0
H1028 H 0.03403 0.00318 0.54366 0.0
H1029 H 0.97549 0.95777 0.50949 0.0
H1030 H 0.91713 0.03205 0.43406 0.0
H1031 H 0.92716 0.01165 0.46669 0.0
H1032 H 0.9817 0.05532 0.50656 0.0
C1033 C 0.02379 0.98656 0.55024 0.0
C1034 C 0.97647 0.97909 0.5092 0.0
C1035 C 0.03574 0.97241 0.56581 0.0
C1036 C 0.93447 0.0383 0.44207 0.0
C1037 C 0.94025 0.02651 0.46072 0.0
C1038 C 0.98018 0.03403 0.50707 0.0
C1039 C -0.00065 0.97884 0.54282 0.0
C1040 C 0.9876 0.99311 0.52544 0.0
C1041 C 0.96275 0.03372 0.47146 0.0
C1042 C 0.96992 0.01994 0.49052 0.0
H1043 H 0.98894 0.92569 0.57348 0.0
H1044 H 0.96798 0.95055 0.54616 0.0
H1045 H -0.00299 0.0321 0.5368 0.0
H1046 H 0.98649 0.07991 0.43872 0.0
H1047 H -0.00329 0.05914 0.47119 0.0
C1048 C 0.53087 0.55539 0.04123 0.0
C1049 C 0.51505 0.55794 0.05856 0.0
C1050 C 0.52214 0.54147 0.02429 0.0
C1051 C 0.4762 0.48948 0.00963 0.0
H1052 H 0.49373 0.5124 0.95497 0.0
C1053 C 0.442 0.43539 0.93673 0.0
C1054 C 0.4608 0.43214 0.92138 0.0
C1055 C 0.44731 0.45096 0.95375 0.0
C1056 C 0.48887 0.50568 0.97016 0.0
H1057 H 0.47734 0.54851 0.07151 0.0
H1058 H 0.46193 0.52435 0.0417 0.0
H1059 H 0.50422 0.54058 0.98385 0.0
H1060 H 0.5001 0.44214 0.91208 0.0
H1061 H 0.50934 0.46922 0.94182 0.0
H1062 H 0.46091 0.4545 -0.00416 0.0
C1063 C 0.48125 0.53286 0.04139 0.0
C1064 C 0.49484 0.5218 0.98668 0.0
C1065 C 0.49002 0.54682 0.0584 0.0
C1066 C 0.48519 0.44429 0.92361 0.0
C1067 C 0.49042 0.45996 0.94056 0.0
C1068 C 0.47011 0.47338 0.99306 0.0
C1069 C 0.49735 0.52981 0.02425 0.0
C1070 C 0.48894 0.51371 0.00662 0.0
C1071 C 0.47144 0.46369 0.95567 0.0
C1072 C 0.47675 0.48117 0.9732 0.0
H1073 H 0.55029 0.56368 0.04086 0.0
H1074 H 0.53517 0.53917 0.01146 0.0
H1075 H 0.47169 0.48255 0.02482 0.0
H1076 H 0.42302 0.42627 0.93545 0.0
H1077 H 0.43228 0.4536 0.96513 0.0
C1078 C 0.94664 0.47015 0.05911 0.0
C1079 C 0.96088 0.44995 0.0686 0.0
C1080 C 0.95654 0.48304 0.04202 0.0
C1081 C 0.01746 0.49773 0.0151 0.0
H1082 H 0.97192 0.51155 0.96929 0.0
C1083 C 0.05594 0.53407 0.93775 0.0
C1084 C 0.04135 0.5532 0.92731 0.0
C1085 C 0.04611 0.52217 0.95528 0.0
C1086 C 0.98479 0.50816 0.98206 0.0
H1087 H -0.00327 0.42748 0.06762 0.0
H1088 H 0.014 0.45001 0.03764 0.0
H1089 H 0.95488 0.48902 -0.00073 0.0
H1090 H 0.00512 0.57503 0.9272 0.0
H1091 H 0.98804 0.5544 0.95803 0.0
H1092 H 0.04736 0.5169 -0.00207 0.0
C1093 C -0.00475 0.45596 0.04357 0.0
C1094 C 0.97505 0.49521 -0.0008 0.0
C1095 C 0.9853 0.44297 0.06066 0.0
C1096 C 0.01679 0.56031 0.93487 0.0
C1097 C 0.00696 0.5484 0.95246 0.0
C1098 C 0.02718 0.51074 -0.00202 0.0
C1099 C 0.98092 0.47608 0.03406 0.0
C1100 C 0.9913 0.4898 0.01588 0.0
C1101 C 0.0215 0.52914 0.96281 0.0
C1102 C 0.01097 0.51602 0.98124 0.0
H1103 H 0.92779 0.47607 0.06487 0.0
H1104 H 0.9452 0.49869 0.03518 0.0
H1105 H 0.03033 0.49419 0.02785 0.0
H1106 H 0.0749 0.52805 0.93229 0.0
H1107 H 0.05764 0.50713 0.96272 0.0
C1108 C 0.98683 0.53942 0.58007 0.0
C1109 C 0.96054 0.53974 0.58588 0.0
C1110 C 0.99431 0.52826 0.56154 0.0
C1111 C 0.97175 0.4833 0.52082 0.0
H1112 H 0.02185 0.52126 0.48775 0.0
C1113 C 0.9893 0.45986 0.43595 0.0
C1114 C 0.01526 0.45951 0.4293 0.0
C1115 C 0.98313 0.46874 0.45549 0.0
C1116 C 0.00805 0.51028 0.49691 0.0
H1117 H 0.92151 0.52822 0.57694 0.0
H1118 H 0.9345 0.50915 0.54457 0.0
H1119 H 0.01052 0.53792 0.52138 0.0
H1120 H 0.05513 0.46814 0.43791 0.0
H1121 H 0.04432 0.48354 0.47197 0.0
H1122 H 0.96905 0.45586 0.49617 0.0
C1123 C 0.94941 0.51718 0.55443 0.0
C1124 C 0.00161 0.51978 0.51619 0.0
C1125 C 0.94195 0.52827 0.57294 0.0
C1126 C 0.03492 0.46821 0.44256 0.0
C1127 C 0.02874 0.47716 0.46204 0.0
C1128 C 0.97814 0.47384 0.5015 0.0
C1129 C 0.97564 0.51722 0.54844 0.0
C1130 C 0.98329 0.50647 0.52832 0.0
C1131 C 0.00279 0.47754 0.4687 0.0
C1132 C -0.00373 0.4873 0.48932 0.0
H1133 H 0.00163 0.54798 0.58975 0.0
H1134 H 0.01473 0.52826 0.55747 0.0
H1135 H 0.95786 0.47237 0.52992 0.0
H1136 H 0.97372 0.4533 0.4261 0.0
H1137 H 0.96292 0.46909 0.46016 0.0
C1138 C 0.48584 0.45062 0.5669 0.0
C1139 C 0.50758 0.46137 0.57683 0.0
C1140 C 0.47989 0.45811 0.54696 0.0
C1141 C 0.50994 0.48744 0.50118 0.0
H1142 H 0.43876 0.50181 0.4853 0.0
C1143 C 0.48313 0.54269 0.42756 0.0
C1144 C 0.46156 0.53358 0.41651 0.0
C1145 C 0.48908 0.53183 0.44651 0.0
C1146 C 0.45869 0.49751 0.48944 0.0
H1147 H 0.53979 0.48883 0.57384 0.0
H1148 H 0.52916 0.50213 0.53931 0.0
H1149 H 0.44802 0.48704 0.51988 0.0
H1150 H 0.42967 0.50549 0.41642 0.0
H1151 H 0.44016 0.48652 0.4495 0.0
H1152 H 0.52065 0.49832 0.47083 0.0
C1153 C 0.51701 0.48754 0.54672 0.0
C1154 C 0.46399 0.48906 0.50923 0.0
C1155 C 0.52298 0.48005 0.56658 0.0
C1156 C 0.44638 0.51301 0.42459 0.0
C1157 C 0.45228 0.50223 0.44358 0.0
C1158 C 0.50466 0.49595 0.48142 0.0
C1159 C 0.49556 0.47648 0.53662 0.0
C1160 C 0.48971 0.48421 0.51537 0.0
C1161 C 0.47353 0.51172 0.45481 0.0
C1162 C 0.47901 0.50131 0.47542 0.0
H1163 H 0.47366 0.43612 0.57438 0.0
H1164 H 0.46333 0.44911 0.53951 0.0
H1165 H 0.52991 0.48336 0.50534 0.0
H1166 H 0.4952 0.55851 0.42175 0.0
H1167 H 0.50544 0.53971 0.45493 0.0
loop_
_geom_bond_atom_site_label_1
_geom_bond_atom_site_label_2
_geom_bond_distance
_geom_bond_site_symmetry_2
_ccdc_geom_bond_type
C0 O1 1.160 . S
C0 O7 1.185 . S
O1 C0 1.160 . S
O2 Zn3 1.899 . S
O2 C10 1.284 . S
Zn3 O2 1.899 . S
Zn3 O4 2.032 . S
Zn3 O7 2.086 . S
Zn3 O12 1.977 . S
O4 Zn3 2.032 . S
O4 C8 1.278 . S
C5 O6 1.203 . S
C5 O12 1.267 . S
O6 C5 1.203 . S
O7 C0 1.185 . S
O7 Zn3 2.086 . S
C8 O4 1.278 . S
C8 O9 1.211 . S
O9 C8 1.211 . S
C10 O2 1.284 . S
C10 O11 1.273 . S
O11 C10 1.273 . S
O12 Zn3 1.977 . S
O12 C5 1.267 . S
C13 O14 1.160 . S
C13 O20 1.185 . S
O14 C13 1.160 . S
O15 Zn16 1.899 . S
O15 C23 1.284 . S
Zn16 O15 1.899 . S
Zn16 O17 2.032 . S
Zn16 O20 2.086 . S
Zn16 O25 1.977 . S
O17 Zn16 2.032 . S
O17 C21 1.278 . S
C18 O19 1.203 . S
C18 O25 1.267 . S
O19 C18 1.203 . S
O20 C13 1.185 . S
O20 Zn16 2.086 . S
C21 O17 1.278 . S
C21 O22 1.211 . S
O22 C21 1.211 . S
C23 O15 1.284 . S
C23 O24 1.273 . S
O24 C23 1.273 . S
O25 Zn16 1.977 . S
O25 C18 1.267 . S
C26 O27 1.160 . S
C26 O33 1.185 . S
O27 C26 1.160 . S
O28 Zn29 1.899 . S
O28 C36 1.284 . S
Zn29 O28 1.899 . S
Zn29 O30 2.032 . S
Zn29 O33 2.086 . S
Zn29 O38 1.977 . S
O30 Zn29 2.032 . S
O30 C34 1.278 . S
C31 O32 1.203 . S
C31 O38 1.267 . S
O32 C31 1.203 . S
O33 C26 1.185 . S
O33 Zn29 2.086 . S
C34 O30 1.278 . S
C34 O35 1.211 . S
O35 C34 1.211 . S
C36 O28 1.284 . S
C36 O37 1.273 . S
O37 C36 1.273 . S
O38 Zn29 1.977 . S
O38 C31 1.267 . S
C39 O40 1.160 . S
C39 O46 1.185 . S
O40 C39 1.160 . S
O41 Zn42 1.899 . S
O41 C49 1.284 . S
Zn42 O41 1.899 . S
Zn42 O43 2.032 . S
Zn42 O46 2.086 . S
Zn42 O51 1.977 . S
O43 Zn42 2.032 . S
O43 C47 1.278 . S
C44 O45 1.203 . S
C44 O51 1.267 . S
O45 C44 1.203 . S
O46 C39 1.185 . S
O46 Zn42 2.086 . S
C47 O43 1.278 . S
C47 O48 1.211 . S
O48 C47 1.211 . S
C49 O41 1.284 . S
C49 O50 1.273 . S
O50 C49 1.273 . S
O51 Zn42 1.977 . S
O51 C44 1.267 . S
C52 O53 1.160 . S
C52 O59 1.185 . S
O53 C52 1.160 . S
O54 Zn55 1.899 . S
O54 C62 1.284 . S
Zn55 O54 1.899 . S
Zn55 O56 2.032 . S
Zn55 O59 2.086 . S
Zn55 O64 1.977 . S
O56 Zn55 2.032 . S
O56 C60 1.278 . S
C57 O58 1.203 . S
C57 O64 1.267 . S
O58 C57 1.203 . S
O59 C52 1.185 . S
O59 Zn55 2.086 . S
C60 O56 1.278 . S
C60 O61 1.211 . S
O61 C60 1.211 . S
C62 O54 1.284 . S
C62 O63 1.273 . S
O63 C62 1.273 . S
O64 Zn55 1.977 . S
O64 C57 1.267 . S
C65 O66 1.160 . S
C65 O72 1.185 . S
O66 C65 1.160 . S
O67 Zn68 1.899 . S
O67 C75 1.284 . S
Zn68 O67 1.899 . S
Zn68 O69 2.032 . S
Zn68 O72 2.086 . S
Zn68 O77 1.977 . S
O69 Zn68 2.032 . S
O69 C73 1.278 . S
C70 O71 1.203 . S
C70 O77 1.267 . S
O71 C70 1.203 . S
O72 C65 1.185 . S
O72 Zn68 2.086 . S
C73 O69 1.278 . S
C73 O74 1.211 . S
O74 C73 1.211 . S
C75 O67 1.284 . S
C75 O76 1.273 . S
O76 C75 1.273 . S
O77 Zn68 1.977 . S
O77 C70 1.267 . S
C78 O79 1.160 . S
C78 O85 1.185 . S
O79 C78 1.160 . S
O80 Zn81 1.899 . S
O80 C88 1.284 . S
Zn81 O80 1.899 . S
Zn81 O82 2.032 . S
Zn81 O85 2.086 . S
Zn81 O90 1.977 . S
O82 Zn81 2.032 . S
O82 C86 1.278 . S
C83 O84 1.203 . S
C83 O90 1.267 . S
O84 C83 1.203 . S
O85 C78 1.185 . S
O85 Zn81 2.086 . S
C86 O82 1.278 . S
C86 O87 1.211 . S
O87 C86 1.211 . S
C88 O80 1.284 . S
C88 O89 1.273 . S
O89 C88 1.273 . S
O90 Zn81 1.977 . S
O90 C83 1.267 . S
C91 O92 1.160 . S
C91 O98 1.185 . S
O92 C91 1.160 . S
O93 Zn94 1.899 . S
O93 C101 1.284 . S
Zn94 O93 1.899 . S
Zn94 O95 2.032 . S
Zn94 O98 2.086 . S
Zn94 O103 1.977 . S
O95 Zn94 2.032 . S
O95 C99 1.278 . S
C96 O97 1.203 . S
C96 O103 1.267 . S
O97 C96 1.203 . S
O98 C91 1.185 . S
O98 Zn94 2.086 . S
C99 O95 1.278 . S
C99 O100 1.211 . S
O100 C99 1.211 . S
C101 O93 1.284 . S
C101 O102 1.273 . S
O102 C101 1.273 . S
O103 Zn94 1.977 . S
O103 C96 1.267 . S
C104 O105 1.160 . S
C104 O111 1.185 . S
O105 C104 1.160 . S
O106 Zn107 1.899 . S
O106 C114 1.284 . S
Zn107 O106 1.899 . S
Zn107 O108 2.032 . S
Zn107 O111 2.086 . S
Zn107 O116 1.977 . S
O108 Zn107 2.032 . S
O108 C112 1.278 . S
C109 O110 1.203 . S
C109 O116 1.267 . S
O110 C109 1.203 . S
O111 C104 1.185 . S
O111 Zn107 2.086 . S
C112 O108 1.278 . S
C112 O113 1.211 . S
O113 C112 1.211 . S
C114 O106 1.284 . S
C114 O115 1.273 . S
O115 C114 1.273 . S
O116 Zn107 1.977 . S
O116 C109 1.267 . S
C117 O118 1.160 . S
C117 O124 1.185 . S
O118 C117 1.160 . S
O119 Zn120 1.899 . S
O119 C127 1.284 . S
Zn120 O119 1.899 . S
Zn120 O121 2.032 . S
Zn120 O124 2.086 . S
Zn120 O129 1.977 . S
O121 Zn120 2.032 . S
O121 C125 1.278 . S
C122 O123 1.203 . S
C122 O129 1.267 . S
O123 C122 1.203 . S
O124 C117 1.185 . S
O124 Zn120 2.086 . S
C125 O121 1.278 . S
C125 O126 1.211 . S
O126 C125 1.211 . S
C127 O119 1.284 . S
C127 O128 1.273 . S
O128 C127 1.273 . S
O129 Zn120 1.977 . S
O129 C122 1.267 . S
C130 O131 1.160 . S
C130 O137 1.185 . S
O131 C130 1.160 . S
O132 Zn133 1.899 . S
O132 C140 1.284 . S
Zn133 O132 1.899 . S
Zn133 O134 2.032 . S
Zn133 O137 2.086 . S
Zn133 O142 1.977 . S
O134 Zn133 2.032 . S
O134 C138 1.278 . S
C135 O136 1.203 . S
C135 O142 1.267 . S
O136 C135 1.203 . S
O137 C130 1.185 . S
O137 Zn133 2.086 . S
C138 O134 1.278 . S
C138 O139 1.211 . S
O139 C138 1.211 . S
C140 O132 1.284 . S
C140 O141 1.273 . S
O141 C140 1.273 . S
O142 Zn133 1.977 . S
O142 C135 1.267 . S
C143 O144 1.160 . S
C143 O150 1.185 . S
O144 C143 1.160 . S
O145 Zn146 1.899 . S
O145 C153 1.284 . S
Zn146 O145 1.899 . S
Zn146 O147 2.032 . S
Zn146 O150 2.086 . S
Zn146 O155 1.977 . S
O147 Zn146 2.032 . S
O147 C151 1.278 . S
C148 O149 1.203 . S
C148 O155 1.267 . S
O149 C148 1.203 . S
O150 C143 1.185 . S
O150 Zn146 2.086 . S
C151 O147 1.278 . S
C151 O152 1.211 . S
O152 C151 1.211 . S
C153 O145 1.284 . S
C153 O154 1.273 . S
O154 C153 1.273 . S
O155 Zn146 1.977 . S
O155 C148 1.267 . S
C156 O157 1.160 . S
C156 O163 1.185 . S
O157 C156 1.160 . S
O158 Zn159 1.899 . S
O158 C166 1.284 . S
Zn159 O158 1.899 . S
Zn159 O160 2.032 . S
Zn159 O163 2.086 . S
Zn159 O168 1.977 . S
O160 Zn159 2.032 . S
O160 C164 1.278 . S
C161 O162 1.203 . S
C161 O168 1.267 . S
O162 C161 1.203 . S
O163 C156 1.185 . S
O163 Zn159 2.086 . S
C164 O160 1.278 . S
C164 O165 1.211 . S
O165 C164 1.211 . S
C166 O158 1.284 . S
C166 O167 1.273 . S
O167 C166 1.273 . S
O168 Zn159 1.977 . S
O168 C161 1.267 . S
C169 O170 1.160 . S
C169 O176 1.185 . S
O170 C169 1.160 . S
O171 Zn172 1.899 . S
O171 C179 1.284 . S
Zn172 O171 1.899 . S
Zn172 O173 2.032 . S
Zn172 O176 2.086 . S
Zn172 O181 1.977 . S
O173 Zn172 2.032 . S
O173 C177 1.278 . S
C174 O175 1.203 . S
C174 O181 1.267 . S
O175 C174 1.203 . S
O176 C169 1.185 . S
O176 Zn172 2.086 . S
C177 O173 1.278 . S
C177 O178 1.211 . S
O178 C177 1.211 . S
C179 O171 1.284 . S
C179 O180 1.273 . S
O180 C179 1.273 . S
O181 Zn172 1.977 . S
O181 C174 1.267 . S
C182 O183 1.160 . S
C182 O189 1.185 . S
O183 C182 1.160 . S
O184 Zn185 1.899 . S
O184 C192 1.284 . S
Zn185 O184 1.899 . S
Zn185 O186 2.032 . S
Zn185 O189 2.086 . S
Zn185 O194 1.977 . S
O186 Zn185 2.032 . S
O186 C190 1.278 . S
C187 O188 1.203 . S
C187 O194 1.267 . S
O188 C187 1.203 . S
O189 C182 1.185 . S
O189 Zn185 2.086 . S
C190 O186 1.278 . S
C190 O191 1.211 . S
O191 C190 1.211 . S
C192 O184 1.284 . S
C192 O193 1.273 . S
O193 C192 1.273 . S
O194 Zn185 1.977 . S
O194 C187 1.267 . S
C195 O196 1.160 . S
C195 O202 1.185 . S
O196 C195 1.160 . S
O197 Zn198 1.899 . S
O197 C205 1.284 . S
Zn198 O197 1.899 . S
Zn198 O199 2.032 . S
Zn198 O202 2.086 . S
Zn198 O207 1.977 . S
O199 Zn198 2.032 . S
O199 C203 1.278 . S
C200 O201 1.203 . S
C200 O207 1.267 . S
O201 C200 1.203 . S
O202 C195 1.185 . S
O202 Zn198 2.086 . S
C203 O199 1.278 . S
C203 O204 1.211 . S
O204 C203 1.211 . S
C205 O197 1.284 . S
C205 O206 1.273 . S
O206 C205 1.273 . S
O207 Zn198 1.977 . S
O207 C200 1.267 . S
C208 C209 1.349 . S
C208 C210 1.327 . S
C208 H233 0.950 . S
C209 C208 1.349 . S
C209 C225 1.349 . S
C210 C208 1.327 . S
C210 C229 1.429 . S
C210 H234 0.963 . S
C211 C228 1.574 . S
C211 C230 1.368 . S
C211 H235 0.949 . S
H212 C216 0.949 . S
C213 C214 1.349 . S
C213 C215 1.327 . S
C213 H236 0.950 . S
C214 C213 1.349 . S
C214 C226 1.349 . S
C215 C213 1.327 . S
C215 C231 1.429 . S
C215 H237 0.963 . S
C216 H212 0.949 . S
C216 C224 1.574 . S
C216 C232 1.368 . S
H217 C225 0.950 . S
H218 C223 0.950 . S
H219 C224 0.949 . S
H220 C226 0.950 . S
H221 C227 0.950 . S
H222 C228 0.949 . S
C223 H218 0.950 . S
C223 C225 1.327 . S
C223 C229 1.429 . S
C224 C216 1.574 . S
C224 H219 0.949 . S
C224 C230 1.368 1_545 S
C225 C209 1.349 . S
C225 H217 0.950 . S
C225 C223 1.327 . S
C226 C214 1.349 . S
C226 H220 0.950 . S
C226 C227 1.327 . S
C227 H221 0.950 . S
C227 C226 1.327 . S
C227 C231 1.429 . S
C228 C211 1.574 . S
C228 H222 0.949 . S
C228 C232 1.368 1_565 S
C229 C210 1.429 . S
C229 C223 1.429 . S
C229 C230 1.523 . S
C230 C211 1.368 . S
C230 C224 1.368 1_565 S
C230 C229 1.523 . S
C231 C215 1.429 . S
C231 C227 1.429 . S
C231 C232 1.523 . S
C232 C216 1.368 . S
C232 C228 1.368 1_545 S
C232 C231 1.523 . S
H233 C208 0.950 . S
H234 C210 0.963 . S
H235 C211 0.949 . S
H236 C213 0.950 . S
H237 C215 0.963 . S
C238 C239 1.349 . S
C238 C240 1.327 . S
C238 H263 0.950 . S
C239 C238 1.349 . S
C239 C255 1.349 . S
C240 C238 1.327 . S
C240 C259 1.429 . S
C240 H264 0.963 . S
C241 C258 1.574 . S
C241 C260 1.368 . S
C241 H265 0.949 . S
H242 C246 0.949 . S
C243 C244 1.349 . S
C243 C245 1.327 . S
C243 H266 0.950 . S
C244 C243 1.349 . S
C244 C256 1.349 . S
C245 C243 1.327 . S
C245 C261 1.429 . S
C245 H267 0.963 . S
C246 H242 0.949 . S
C246 C254 1.574 . S
C246 C262 1.368 . S
H247 C255 0.950 . S
H248 C253 0.950 . S
H249 C254 0.949 . S
H250 C256 0.950 . S
H251 C257 0.950 . S
H252 C258 0.949 . S
C253 H248 0.950 . S
C253 C255 1.327 . S
C253 C259 1.429 . S
C254 C246 1.574 . S
C254 H249 0.949 . S
C254 C260 1.368 1_545 S
C255 C239 1.349 . S
C255 H247 0.950 . S
C255 C253 1.327 . S
C256 C244 1.349 . S
C256 H250 0.950 . S
C256 C257 1.327 . S
C257 H251 0.950 . S
C257 C256 1.327 . S
C257 C261 1.429 . S
C258 C241 1.574 . S
C258 H252 0.949 . S
C258 C262 1.368 1_565 S
C259 C240 1.429 . S
C259 C253 1.429 . S
C259 C260 1.523 . S
C260 C241 1.368 . S
C260 C254 1.368 1_565 S
C260 C259 1.523 . S
C261 C245 1.429 . S
C261 C257 1.429 . S
C261 C262 1.523 . S
C262 C246 1.368 . S
C262 C258 1.368 1_545 S
C262 C261 1.523 . S
H263 C238 0.950 . S
H264 C240 0.963 . S
H265 C241 0.949 . S
H266 C243 0.950 . S
H267 C245 0.963 . S
C268 C269 1.349 . S
C268 C270 1.327 . S
C268 H293 0.950 . S
C269 C268 1.349 . S
C269 C285 1.349 . S
C270 C268 1.327 . S
C270 C289 1.429 . S
C270 H294 0.963 . S
C271 C288 1.574 . S
C271 C290 1.368 . S
C271 H295 0.949 . S
H272 C276 0.949 . S
C273 C274 1.349 . S
C273 C275 1.327 . S
C273 H296 0.950 . S
C274 C273 1.349 . S
C274 C286 1.349 . S
C275 C273 1.327 . S
C275 C291 1.429 . S
C275 H297 0.963 . S
C276 H272 0.949 . S
C276 C284 1.574 . S
C276 C292 1.368 . S
H277 C285 0.950 . S
H278 C283 0.950 . S
H279 C284 0.949 . S
H280 C286 0.950 . S
H281 C287 0.950 . S
H282 C288 0.949 . S
C283 H278 0.950 . S
C283 C285 1.327 . S
C283 C289 1.429 . S
C284 C276 1.574 . S
C284 H279 0.949 . S
C284 C290 1.368 1_545 S
C285 C269 1.349 . S
C285 H277 0.950 . S
C285 C283 1.327 . S
C286 C274 1.349 . S
C286 H280 0.950 . S
C286 C287 1.327 . S
C287 H281 0.950 . S
C287 C286 1.327 . S
C287 C291 1.429 . S
C288 C271 1.574 . S
C288 H282 0.949 . S
C288 C292 1.368 1_565 S
C289 C270 1.429 . S
C289 C283 1.429 . S
C289 C290 1.523 . S
C290 C271 1.368 . S
C290 C284 1.368 1_565 S
C290 C289 1.523 . S
C291 C275 1.429 . S
C291 C287 1.429 . S
C291 C292 1.523 . S
C292 C276 1.368 . S
C292 C288 1.368 1_545 S
C292 C291 1.523 . S
H293 C268 0.950 . S
H294 C270 0.963 . S
H295 C271 0.949 . S
H296 C273 0.950 . S
H297 C275 0.963 . S
C298 C299 1.349 . S
C298 C300 1.327 . S
C298 H323 0.950 . S
C299 C298 1.349 . S
C299 C315 1.349 . S
C300 C298 1.327 . S
C300 C319 1.429 . S
C300 H324 0.963 . S
C301 C318 1.574 . S
C301 C320 1.368 . S
C301 H325 0.949 . S
H302 C306 0.949 . S
C303 C304 1.349 . S
C303 C305 1.327 . S
C303 H326 0.950 . S
C304 C303 1.349 . S
C304 C316 1.349 . S
C305 C303 1.327 . S
C305 C321 1.429 . S
C305 H327 0.963 . S
C306 H302 0.949 . S
C306 C314 1.574 . S
C306 C322 1.368 . S
H307 C315 0.950 . S
H308 C313 0.950 . S
H309 C314 0.949 . S
H310 C316 0.950 . S
H311 C317 0.950 . S
H312 C318 0.949 . S
C313 H308 0.950 . S
C313 C315 1.327 . S
C313 C319 1.429 . S
C314 C306 1.574 . S
C314 H309 0.949 . S
C314 C320 1.368 1_545 S
C315 C299 1.349 . S
C315 H307 0.950 . S
C315 C313 1.327 . S
C316 C304 1.349 . S
C316 H310 0.950 . S
C316 C317 1.327 . S
C317 H311 0.950 . S
C317 C316 1.327 . S
C317 C321 1.429 . S
C318 C301 1.574 . S
C318 H312 0.949 . S
C318 C322 1.368 1_565 S
C319 C300 1.429 . S
C319 C313 1.429 . S
C319 C320 1.523 . S
C320 C301 1.368 . S
C320 C314 1.368 1_565 S
C320 C319 1.523 . S
C321 C305 1.429 . S
C321 C317 1.429 . S
C321 C322 1.523 . S
C322 C306 1.368 . S
C322 C318 1.368 1_545 S
C322 C321 1.523 . S
H323 C298 0.950 . S
H324 C300 0.963 . S
H325 C301 0.949 . S
H326 C303 0.950 . S
H327 C305 0.963 . S
C328 C329 1.349 . S
C328 C330 1.327 . S
C328 H353 0.950 . S
C329 C328 1.349 . S
C329 C345 1.349 . S
C330 C328 1.327 . S
C330 C349 1.429 . S
C330 H354 0.950 . S
C331 C348 1.574 . S
C331 C350 1.368 . S
C331 H355 0.949 . S
H332 C336 0.949 . S
C333 C334 1.349 . S
C333 C335 1.327 . S
C333 H356 0.950 . S
C334 C333 1.349 . S
C334 C346 1.349 . S
C335 C333 1.327 . S
C335 C351 1.429 . S
C335 H357 0.950 . S
C336 H332 0.949 . S
C336 C344 1.574 . S
C336 C352 1.368 . S
H337 C345 0.950 . S
H338 C343 0.950 . S
H339 C344 0.949 . S
H340 C346 0.950 . S
H341 C347 0.950 . S
H342 C348 0.949 . S
C343 H338 0.950 . S
C343 C345 1.327 . S
C343 C349 1.429 . S
C344 C336 1.574 . S
C344 H339 0.949 . S
C344 C350 1.368 . S
C345 C329 1.349 . S
C345 H337 0.950 . S
C345 C343 1.327 . S
C346 C334 1.349 . S
C346 H340 0.950 . S
C346 C347 1.327 . S
C347 H341 0.950 . S
C347 C346 1.327 . S
C347 C351 1.429 . S
C348 C331 1.574 . S
C348 H342 0.949 . S
C348 C352 1.368 . S
C349 C330 1.429 . S
C349 C343 1.429 . S
C349 C350 1.523 . S
C350 C331 1.368 . S
C350 C344 1.368 . S
C350 C349 1.523 . S
C351 C335 1.429 . S
C351 C347 1.429 . S
C351 C352 1.523 . S
C352 C336 1.368 . S
C352 C348 1.368 . S
C352 C351 1.523 . S
H353 C328 0.950 . S
H354 C330 0.950 . S
H355 C331 0.949 . S
H356 C333 0.950 . S
H357 C335 0.950 . S
C358 C359 1.349 . S
C358 C360 1.327 . S
C358 H383 0.950 . S
C359 C358 1.349 . S
C359 C375 1.349 . S
C360 C358 1.327 . S
C360 C379 1.429 . S
C360 H384 0.950 . S
C361 C378 1.574 . S
C361 C380 1.368 . S
C361 H385 0.949 . S
H362 C366 0.949 . S
C363 C364 1.349 . S
C363 C365 1.327 . S
C363 H386 0.950 . S
C364 C363 1.349 . S
C364 C376 1.349 . S
C365 C363 1.327 . S
C365 C381 1.429 . S
C365 H387 0.950 . S
C366 H362 0.949 . S
C366 C374 1.574 . S
C366 C382 1.368 . S
H367 C375 0.950 . S
H368 C373 0.950 . S
H369 C374 0.949 . S
H370 C376 0.950 . S
H371 C377 0.950 . S
H372 C378 0.949 . S
C373 H368 0.950 . S
C373 C375 1.327 . S
C373 C379 1.429 . S
C374 C366 1.574 . S
C374 H369 0.949 . S
C374 C380 1.368 . S
C375 C359 1.349 . S
C375 H367 0.950 . S
C375 C373 1.327 . S
C376 C364 1.349 . S
C376 H370 0.950 . S
C376 C377 1.327 . S
C377 H371 0.950 . S
C377 C376 1.327 . S
C377 C381 1.429 . S
C378 C361 1.574 . S
C378 H372 0.949 . S
C378 C382 1.368 . S
C379 C360 1.429 . S
C379 C373 1.429 . S
C379 C380 1.523 . S
C380 C361 1.368 . S
C380 C374 1.368 . S
C380 C379 1.523 . S
C381 C365 1.429 . S
C381 C377 1.429 . S
C381 C382 1.523 . S
C382 C366 1.368 . S
C382 C378 1.368 . S
C382 C381 1.523 . S
H383 C358 0.950 . S
H384 C360 0.950 . S
H385 C361 0.949 . S
H386 C363 0.950 . S
H387 C365 0.950 . S
C388 C389 1.349 . S
C388 C390 1.327 . S
C388 H413 0.950 . S
C389 C388 1.349 . S
C389 C405 1.349 . S
C390 C388 1.327 . S
C390 C409 1.429 . S
C390 H414 0.950 . S
C391 C408 1.574 . S
C391 C410 1.368 . S
C391 H415 0.949 . S
H392 C396 0.949 . S
C393 C394 1.349 . S
C393 C395 1.327 . S
C393 H416 0.950 . S
C394 C393 1.349 . S
C394 C406 1.349 . S
C395 C393 1.327 . S
C395 C411 1.429 . S
C395 H417 0.950 . S
C396 H392 0.949 . S
C396 C404 1.574 . S
C396 C412 1.368 . S
H397 C405 0.950 . S
H398 C403 0.950 . S
H399 C404 0.949 . S
H400 C406 0.950 . S
H401 C407 0.950 . S
H402 C408 0.949 . S
C403 H398 0.950 . S
C403 C405 1.327 . S
C403 C409 1.429 . S
C404 C396 1.574 . S
C404 H399 0.949 . S
C404 C410 1.368 . S
C405 C389 1.349 . S
C405 H397 0.950 . S
C405 C403 1.327 . S
C406 C394 1.349 . S
C406 H400 0.950 . S
C406 C407 1.327 . S
C407 H401 0.950 . S
C407 C406 1.327 . S
C407 C411 1.429 . S
C408 C391 1.574 . S
C408 H402 0.949 . S
C408 C412 1.368 . S
C409 C390 1.429 . S
C409 C403 1.429 . S
C409 C410 1.523 . S
C410 C391 1.368 . S
C410 C404 1.368 . S
C410 C409 1.523 . S
C411 C395 1.429 . S
C411 C407 1.429 . S
C411 C412 1.523 . S
C412 C396 1.368 . S
C412 C408 1.368 . S
C412 C411 1.523 . S
H413 C388 0.950 . S
H414 C390 0.950 . S
H415 C391 0.949 . S
H416 C393 0.950 . S
H417 C395 0.950 . S
C418 C419 1.349 . S
C418 C420 1.327 . S
C418 H443 0.950 . S
C419 C418 1.349 . S
C419 C435 1.349 . S
C420 C418 1.327 . S
C420 C439 1.429 . S
C420 H444 0.950 . S
C421 C438 1.574 . S
C421 C440 1.368 . S
C421 H445 0.949 . S
H422 C426 0.949 . S
C423 C424 1.349 . S
C423 C425 1.327 . S
C423 H446 0.950 . S
C424 C423 1.349 . S
C424 C436 1.349 . S
C425 C423 1.327 . S
C425 C441 1.429 . S
C425 H447 0.950 . S
C426 H422 0.949 . S
C426 C434 1.574 . S
C426 C442 1.368 . S
H427 C435 0.950 . S
H428 C433 0.950 . S
H429 C434 0.949 . S
H430 C436 0.950 . S
H431 C437 0.950 . S
H432 C438 0.949 . S
C433 H428 0.950 . S
C433 C435 1.327 . S
C433 C439 1.429 . S
C434 C426 1.574 . S
C434 H429 0.949 . S
C434 C440 1.368 . S
C435 C419 1.349 . S
C435 H427 0.950 . S
C435 C433 1.327 . S
C436 C424 1.349 . S
C436 H430 0.950 . S
C436 C437 1.327 . S
C437 H431 0.950 . S
C437 C436 1.327 . S
C437 C441 1.429 . S
C438 C421 1.574 . S
C438 H432 0.949 . S
C438 C442 1.368 . S
C439 C420 1.429 . S
C439 C433 1.429 . S
C439 C440 1.523 . S
C440 C421 1.368 . S
C440 C434 1.368 . S
C440 C439 1.523 . S
C441 C425 1.429 . S
C441 C437 1.429 . S
C441 C442 1.523 . S
C442 C426 1.368 . S
C442 C438 1.368 . S
C442 C441 1.523 . S
H443 C418 0.950 . S
H444 C420 0.950 . S
H445 C421 0.949 . S
H446 C423 0.950 . S
H447 C425 0.950 . S
C448 C449 1.349 . S
C448 C450 1.327 . S
C448 H473 0.950 . S
C449 C448 1.349 . S
C449 C465 1.349 . S
C450 C448 1.327 . S
C450 C469 1.429 . S
C450 H474 0.950 1_655 S
C451 C468 1.574 . S
C451 C470 1.368 . S
C451 H475 0.949 . S
H452 C456 0.949 . S
C453 C454 1.349 . S
C453 C455 1.327 . S
C453 H476 0.950 . S
C454 C453 1.349 . S
C454 C466 1.349 . S
C455 C453 1.327 . S
C455 C471 1.429 . S
C455 H477 0.950 1_455 S
C456 H452 0.949 . S
C456 C464 1.574 . S
C456 C472 1.368 . S
H457 C465 0.950 . S
H458 C463 0.950 . S
H459 C464 0.949 . S
H460 C466 0.950 . S
H461 C467 0.950 . S
H462 C468 0.949 . S
C463 H458 0.950 . S
C463 C465 1.327 . S
C463 C469 1.429 . S
C464 C456 1.574 . S
C464 H459 0.949 . S
C464 C470 1.368 1_455 S
C465 C449 1.349 . S
C465 H457 0.950 . S
C465 C463 1.327 . S
C466 C454 1.349 . S
C466 H460 0.950 . S
C466 C467 1.327 . S
C467 H461 0.950 . S
C467 C466 1.327 . S
C467 C471 1.429 . S
C468 C451 1.574 . S
C468 H462 0.949 . S
C468 C472 1.368 1_655 S
C469 C450 1.429 . S
C469 C463 1.429 . S
C469 C470 1.523 . S
C470 C451 1.368 . S
C470 C464 1.368 1_655 S
C470 C469 1.523 . S
C471 C455 1.429 . S
C471 C467 1.429 . S
C471 C472 1.523 . S
C472 C456 1.368 . S
C472 C468 1.368 1_455 S
C472 C471 1.523 . S
H473 C448 0.950 . S
H474 C450 0.950 1_455 S
H475 C451 0.949 . S
H476 C453 0.950 . S
H477 C455 0.950 1_655 S
C478 C479 1.349 . S
C478 C480 1.327 . S
C478 H503 0.950 . S
C479 C478 1.349 . S
C479 C495 1.349 . S
C480 C478 1.327 . S
C480 C499 1.429 . S
C480 H504 0.950 . S
C481 C498 1.574 . S
C481 C500 1.368 . S
C481 H505 0.949 . S
H482 C486 0.949 . S
C483 C484 1.349 . S
C483 C485 1.327 . S
C483 H506 0.950 . S
C484 C483 1.349 . S
C484 C496 1.349 . S
C485 C483 1.327 . S
C485 C501 1.429 . S
C485 H507 0.950 . S
C486 H482 0.949 . S
C486 C494 1.574 . S
C486 C502 1.368 . S
H487 C495 0.950 . S
H488 C493 0.950 . S
H489 C494 0.949 . S
H490 C496 0.950 . S
H491 C497 0.950 . S
H492 C498 0.949 . S
C493 H488 0.950 . S
C493 C495 1.327 . S
C493 C499 1.429 . S
C494 C486 1.574 . S
C494 H489 0.949 . S
C494 C500 1.368 . S
C495 C479 1.349 . S
C495 H487 0.950 . S
C495 C493 1.327 . S
C496 C484 1.349 . S
C496 H490 0.950 . S
C496 C497 1.327 . S
C497 H491 0.950 . S
C497 C496 1.327 . S
C497 C501 1.429 . S
C498 C481 1.574 . S
C498 H492 0.949 . S
C498 C502 1.368 . S
C499 C480 1.429 . S
C499 C493 1.429 . S
C499 C500 1.523 . S
C500 C481 1.368 . S
C500 C494 1.368 . S
C500 C499 1.523 . S
C501 C485 1.429 . S
C501 C497 1.429 . S
C501 C502 1.523 . S
C502 C486 1.368 . S
C502 C498 1.368 . S
C502 C501 1.523 . S
H503 C478 0.950 . S
H504 C480 0.950 . S
H505 C481 0.949 . S
H506 C483 0.950 . S
H507 C485 0.950 . S
C508 C509 1.349 . S
C508 C510 1.327 . S
C508 H533 0.950 . S
C509 C508 1.349 . S
C509 C525 1.349 . S
C510 C508 1.327 . S
C510 C529 1.429 . S
C510 H534 0.950 1_455 S
C511 C528 1.574 . S
C511 C530 1.368 . S
C511 H535 0.949 . S
H512 C516 0.949 . S
C513 C514 1.349 . S
C513 C515 1.327 . S
C513 H536 0.950 . S
C514 C513 1.349 . S
C514 C526 1.349 . S
C515 C513 1.327 . S
C515 C531 1.429 . S
C515 H537 0.950 1_655 S
C516 H512 0.949 . S
C516 C524 1.574 . S
C516 C532 1.368 . S
H517 C525 0.950 . S
H518 C523 0.950 . S
H519 C524 0.949 . S
H520 C526 0.950 . S
H521 C527 0.950 . S
H522 C528 0.949 . S
C523 H518 0.950 . S
C523 C525 1.327 . S
C523 C529 1.429 . S
C524 C516 1.574 . S
C524 H519 0.949 . S
C524 C530 1.368 1_655 S
C525 C509 1.349 . S
C525 H517 0.950 . S
C525 C523 1.327 . S
C526 C514 1.349 . S
C526 H520 0.950 . S
C526 C527 1.327 . S
C527 H521 0.950 . S
C527 C526 1.327 . S
C527 C531 1.429 . S
C528 C511 1.574 . S
C528 H522 0.949 . S
C528 C532 1.368 1_455 S
C529 C510 1.429 . S
C529 C523 1.429 . S
C529 C530 1.523 . S
C530 C511 1.368 . S
C530 C524 1.368 1_455 S
C530 C529 1.523 . S
C531 C515 1.429 . S
C531 C527 1.429 . S
C531 C532 1.523 . S
C532 C516 1.368 . S
C532 C528 1.368 1_655 S
C532 C531 1.523 . S
H533 C508 0.950 . S
H534 C510 0.950 1_655 S
H535 C511 0.949 . S
H536 C513 0.950 . S
H537 C515 0.950 1_455 S
C538 C539 1.349 . S
C538 C540 1.327 . S
C538 H563 0.950 . S
C539 C538 1.349 . S
C539 C555 1.349 . S
C540 C538 1.327 . S
C540 C559 1.429 . S
C540 H564 0.950 . S
C541 C558 1.574 . S
C541 C560 1.368 . S
C541 H565 0.949 . S
H542 C546 0.949 . S
C543 C544 1.349 . S
C543 C545 1.327 . S
C543 H566 0.950 . S
C544 C543 1.349 . S
C544 C556 1.349 . S
C545 C543 1.327 . S
C545 C561 1.429 . S
C545 H567 0.950 . S
C546 H542 0.949 . S
C546 C554 1.574 . S
C546 C562 1.368 . S
H547 C555 0.950 . S
H548 C553 0.950 . S
H549 C554 0.949 . S
H550 C556 0.950 . S
H551 C557 0.950 . S
H552 C558 0.949 . S
C553 H548 0.950 . S
C553 C555 1.327 . S
C553 C559 1.429 . S
C554 C546 1.574 . S
C554 H549 0.949 . S
C554 C560 1.368 . S
C555 C539 1.349 . S
C555 H547 0.950 . S
C555 C553 1.327 . S
C556 C544 1.349 . S
C556 H550 0.950 . S
C556 C557 1.327 . S
C557 H551 0.950 . S
C557 C556 1.327 . S
C557 C561 1.429 . S
C558 C541 1.574 . S
C558 H552 0.949 . S
C558 C562 1.368 . S
C559 C540 1.429 . S
C559 C553 1.429 . S
C559 C560 1.523 . S
C560 C541 1.368 . S
C560 C554 1.368 . S
C560 C559 1.523 . S
C561 C545 1.429 . S
C561 C557 1.429 . S
C561 C562 1.523 . S
C562 C546 1.368 . S
C562 C558 1.368 . S
C562 C561 1.523 . S
H563 C538 0.950 . S
H564 C540 0.950 . S
H565 C541 0.949 . S
H566 C543 0.950 . S
H567 C545 0.950 . S
C568 C569 1.349 . S
C568 C570 1.327 . S
C568 H593 0.950 . S
C569 C568 1.349 . S
C569 C585 1.349 . S
C570 C568 1.327 . S
C570 C589 1.429 . S
C570 H594 0.950 . S
C571 C588 1.574 . S
C571 C590 1.368 . S
C571 H595 0.949 . S
H572 C576 0.949 . S
C573 C574 1.349 . S
C573 C575 1.327 . S
C573 H596 0.950 . S
C574 C573 1.349 . S
C574 C586 1.349 . S
C575 C573 1.327 . S
C575 C591 1.429 . S
C575 H597 0.950 . S
C576 H572 0.949 . S
C576 C584 1.574 . S
C576 C592 1.368 . S
H577 C585 0.950 . S
H578 C583 0.950 . S
H579 C584 0.949 . S
H580 C586 0.950 . S
H581 C587 0.950 . S
H582 C588 0.949 . S
C583 H578 0.950 . S
C583 C585 1.327 . S
C583 C589 1.429 . S
C584 C576 1.574 . S
C584 H579 0.949 . S
C584 C590 1.368 . S
C585 C569 1.349 . S
C585 H577 0.950 . S
C585 C583 1.327 . S
C586 C574 1.349 . S
C586 H580 0.950 . S
C586 C587 1.327 . S
C587 H581 0.950 . S
C587 C586 1.327 . S
C587 C591 1.429 . S
C588 C571 1.574 . S
C588 H582 0.949 . S
C588 C592 1.368 . S
C589 C570 1.429 . S
C589 C583 1.429 . S
C589 C590 1.523 . S
C590 C571 1.368 . S
C590 C584 1.368 . S
C590 C589 1.523 . S
C591 C575 1.429 . S
C591 C587 1.429 . S
C591 C592 1.523 . S
C592 C576 1.368 . S
C592 C588 1.368 . S
C592 C591 1.523 . S
H593 C568 0.950 . S
H594 C570 0.950 . S
H595 C571 0.949 . S
H596 C573 0.950 . S
H597 C575 0.950 . S
C598 C599 1.349 . S
C598 C600 1.327 . S
C598 H623 0.950 . S
C599 C598 1.349 . S
C599 C615 1.349 . S
C600 C598 1.327 . S
C600 C619 1.429 . S
C600 H624 0.950 1_455 S
C601 C618 1.574 . S
C601 C620 1.368 . S
C601 H625 0.949 . S
H602 C606 0.949 . S
C603 C604 1.349 . S
C603 C605 1.327 . S
C603 H626 0.950 . S
C604 C603 1.349 . S
C604 C616 1.349 . S
C605 C603 1.327 . S
C605 C621 1.429 . S
C605 H627 0.950 1_655 S
C606 H602 0.949 . S
C606 C614 1.574 . S
C606 C622 1.368 . S
H607 C615 0.950 . S
H608 C613 0.950 . S
H609 C614 0.949 . S
H610 C616 0.950 . S
H611 C617 0.950 . S
H612 C618 0.949 . S
C613 H608 0.950 . S
C613 C615 1.327 . S
C613 C619 1.429 . S
C614 C606 1.574 . S
C614 H609 0.949 . S
C614 C620 1.368 1_655 S
C615 C599 1.349 . S
C615 H607 0.950 . S
C615 C613 1.327 . S
C616 C604 1.349 . S
C616 H610 0.950 . S
C616 C617 1.327 . S
C617 H611 0.950 . S
C617 C616 1.327 . S
C617 C621 1.429 . S
C618 C601 1.574 . S
C618 H612 0.949 . S
C618 C622 1.368 1_455 S
C619 C600 1.429 . S
C619 C613 1.429 . S
C619 C620 1.523 . S
C620 C601 1.368 . S
C620 C614 1.368 1_455 S
C620 C619 1.523 . S
C621 C605 1.429 . S
C621 C617 1.429 . S
C621 C622 1.523 . S
C622 C606 1.368 . S
C622 C618 1.368 1_655 S
C622 C621 1.523 . S
H623 C598 0.950 . S
H624 C600 0.950 1_655 S
H625 C601 0.949 . S
H626 C603 0.950 . S
H627 C605 0.950 1_455 S
C628 C629 1.349 . S
C628 C630 1.327 . S
C628 H653 0.950 . S
C629 C628 1.349 . S
C629 C645 1.349 . S
C630 C628 1.327 . S
C630 C649 1.429 . S
C630 H654 0.950 . S
C631 C648 1.574 . S
C631 C650 1.368 . S
C631 H655 0.949 . S
H632 C636 0.949 . S
C633 C634 1.349 . S
C633 C635 1.327 . S
C633 H656 0.950 . S
C634 C633 1.349 . S
C634 C646 1.349 . S
C635 C633 1.327 . S
C635 C651 1.429 . S
C635 H657 0.950 . S
C636 H632 0.949 . S
C636 C644 1.574 . S
C636 C652 1.368 . S
H637 C645 0.950 . S
H638 C643 0.950 . S
H639 C644 0.949 . S
H640 C646 0.950 . S
H641 C647 0.950 . S
H642 C648 0.949 . S
C643 H638 0.950 . S
C643 C645 1.327 . S
C643 C649 1.429 . S
C644 C636 1.574 . S
C644 H639 0.949 . S
C644 C650 1.368 . S
C645 C629 1.349 . S
C645 H637 0.950 . S
C645 C643 1.327 . S
C646 C634 1.349 . S
C646 H640 0.950 . S
C646 C647 1.327 . S
C647 H641 0.950 . S
C647 C646 1.327 . S
C647 C651 1.429 . S
C648 C631 1.574 . S
C648 H642 0.949 . S
C648 C652 1.368 . S
C649 C630 1.429 . S
C649 C643 1.429 . S
C649 C650 1.523 . S
C650 C631 1.368 . S
C650 C644 1.368 . S
C650 C649 1.523 . S
C651 C635 1.429 . S
C651 C647 1.429 . S
C651 C652 1.523 . S
C652 C636 1.368 . S
C652 C648 1.368 . S
C652 C651 1.523 . S
H653 C628 0.950 . S
H654 C630 0.950 . S
H655 C631 0.949 . S
H656 C633 0.950 . S
H657 C635 0.950 . S
C658 C659 1.349 . S
C658 C660 1.327 . S
C658 H683 0.950 . S
C659 C658 1.349 . S
C659 C675 1.349 . S
C660 C658 1.327 . S
C660 C679 1.429 . S
C660 H684 0.950 1_455 S
C661 C678 1.574 . S
C661 C680 1.368 . S
C661 H685 0.949 . S
H662 C666 0.949 . S
C663 C664 1.349 . S
C663 C665 1.327 . S
C663 H686 0.950 . S
C664 C663 1.349 . S
C664 C676 1.349 . S
C665 C663 1.327 . S
C665 C681 1.429 . S
C665 H687 0.950 1_655 S
C666 H662 0.949 . S
C666 C674 1.574 . S
C666 C682 1.368 . S
H667 C675 0.950 . S
H668 C673 0.950 . S
H669 C674 0.949 . S
H670 C676 0.950 . S
H671 C677 0.950 . S
H672 C678 0.949 . S
C673 H668 0.950 . S
C673 C675 1.327 . S
C673 C679 1.429 . S
C674 C666 1.574 . S
C674 H669 0.949 . S
C674 C680 1.368 1_655 S
C675 C659 1.349 . S
C675 H667 0.950 . S
C675 C673 1.327 . S
C676 C664 1.349 . S
C676 H670 0.950 . S
C676 C677 1.327 . S
C677 H671 0.950 . S
C677 C676 1.327 . S
C677 C681 1.429 . S
C678 C661 1.574 . S
C678 H672 0.949 . S
C678 C682 1.368 1_455 S
C679 C660 1.429 . S
C679 C673 1.429 . S
C679 C680 1.523 . S
C680 C661 1.368 . S
C680 C674 1.368 1_455 S
C680 C679 1.523 . S
C681 C665 1.429 . S
C681 C677 1.429 . S
C681 C682 1.523 . S
C682 C666 1.368 . S
C682 C678 1.368 1_655 S
C682 C681 1.523 . S
H683 C658 0.950 . S
H684 C660 0.950 1_655 S
H685 C661 0.949 . S
H686 C663 0.950 . S
H687 C665 0.950 1_455 S
C688 C689 1.349 . S
C688 C690 1.327 . S
C688 H713 0.950 . S
C689 C688 1.349 . S
C689 C705 1.349 . S
C690 C688 1.327 . S
C690 C709 1.429 . S
C690 H714 0.950 . S
C691 C708 1.574 . S
C691 C710 1.368 . S
C691 H715 0.949 . S
H692 C696 0.949 . S
C693 C694 1.349 . S
C693 C695 1.327 . S
C693 H716 0.950 . S
C694 C693 1.349 . S
C694 C706 1.349 . S
C695 C693 1.327 . S
C695 C711 1.429 . S
C695 H717 0.950 . S
C696 H692 0.949 . S
C696 C704 1.574 . S
C696 C712 1.368 . S
H697 C705 0.950 . S
H698 C703 0.950 . S
H699 C704 0.949 . S
H700 C706 0.950 . S
H701 C707 0.950 . S
H702 C708 0.949 . S
C703 H698 0.950 . S
C703 C705 1.327 . S
C703 C709 1.429 . S
C704 C696 1.574 . S
C704 H699 0.949 . S
C704 C710 1.368 1_655 S
C705 C689 1.349 . S
C705 H697 0.950 . S
C705 C703 1.327 . S
C706 C694 1.349 . S
C706 H700 0.950 . S
C706 C707 1.327 . S
C707 H701 0.950 . S
C707 C706 1.327 . S
C707 C711 1.429 . S
C708 C691 1.574 . S
C708 H702 0.949 . S
C708 C712 1.368 1_455 S
C709 C690 1.429 . S
C709 C703 1.429 . S
C709 C710 1.523 . S
C710 C691 1.368 . S
C710 C704 1.368 1_455 S
C710 C709 1.523 . S
C711 C695 1.429 . S
C711 C707 1.429 . S
C711 C712 1.523 . S
C712 C696 1.368 . S
C712 C708 1.368 1_655 S
C712 C711 1.523 . S
H713 C688 0.950 . S
H714 C690 0.950 . S
H715 C691 0.949 . S
H716 C693 0.950 . S
H717 C695 0.950 . S
C718 C719 1.349 . S
C718 C720 1.327 . S
C718 H743 0.950 . S
C719 C718 1.349 . S
C719 C735 1.349 . S
C720 C718 1.327 . S
C720 C739 1.429 . S
C720 H744 0.950 . S
C721 C738 1.574 . S
C721 C740 1.368 . S
C721 H745 0.949 . S
H722 C726 0.949 . S
C723 C724 1.349 . S
C723 C725 1.327 . S
C723 H746 0.950 . S
C724 C723 1.349 . S
C724 C736 1.349 . S
C725 C723 1.327 . S
C725 C741 1.429 . S
C725 H747 0.950 . S
C726 H722 0.949 . S
C726 C734 1.574 . S
C726 C742 1.368 . S
H727 C735 0.950 . S
H728 C733 0.950 . S
H729 C734 0.949 . S
H730 C736 0.950 . S
H731 C737 0.950 . S
H732 C738 0.949 . S
C733 H728 0.950 . S
C733 C735 1.327 . S
C733 C739 1.429 . S
C734 C726 1.574 . S
C734 H729 0.949 . S
C734 C740 1.368 . S
C735 C719 1.349 . S
C735 H727 0.950 . S
C735 C733 1.327 . S
C736 C724 1.349 . S
C736 H730 0.950 . S
C736 C737 1.327 . S
C737 H731 0.950 . S
C737 C736 1.327 . S
C737 C741 1.429 . S
C738 C721 1.574 . S
C738 H732 0.949 . S
C738 C742 1.368 . S
C739 C720 1.429 . S
C739 C733 1.429 . S
C739 C740 1.523 . S
C740 C721 1.368 . S
C740 C734 1.368 . S
C740 C739 1.523 . S
C741 C725 1.429 . S
C741 C737 1.429 . S
C741 C742 1.523 . S
C742 C726 1.368 . S
C742 C738 1.368 . S
C742 C741 1.523 . S
H743 C718 0.950 . S
H744 C720 0.950 . S
H745 C721 0.949 . S
H746 C723 0.950 . S
H747 C725 0.950 . S
C748 C749 1.349 . S
C748 C750 1.327 . S
C748 H773 0.950 . S
C749 C748 1.349 . S
C749 C765 1.349 . S
C750 C748 1.327 . S
C750 C769 1.429 . S
C750 H774 0.950 . S
C751 C768 1.574 . S
C751 C770 1.368 . S
C751 H775 0.949 . S
H752 C756 0.949 . S
C753 C754 1.349 . S
C753 C755 1.327 . S
C753 H776 0.950 . S
C754 C753 1.349 . S
C754 C766 1.349 . S
C755 C753 1.327 . S
C755 C771 1.429 . S
C755 H777 0.950 . S
C756 H752 0.949 . S
C756 C764 1.574 . S
C756 C772 1.368 . S
H757 C765 0.950 . S
H758 C763 0.950 . S
H759 C764 0.949 . S
H760 C766 0.950 . S
H761 C767 0.950 . S
H762 C768 0.949 . S
C763 H758 0.950 . S
C763 C765 1.327 . S
C763 C769 1.429 . S
C764 C756 1.574 . S
C764 H759 0.949 . S
C764 C770 1.368 . S
C765 C749 1.349 . S
C765 H757 0.950 . S
C765 C763 1.327 . S
C766 C754 1.349 . S
C766 H760 0.950 . S
C766 C767 1.327 . S
C767 H761 0.950 . S
C767 C766 1.327 . S
C767 C771 1.429 . S
C768 C751 1.574 . S
C768 H762 0.949 . S
C768 C772 1.368 . S
C769 C750 1.429 . S
C769 C763 1.429 . S
C769 C770 1.523 . S
C770 C751 1.368 . S
C770 C764 1.368 . S
C770 C769 1.523 . S
C771 C755 1.429 . S
C771 C767 1.429 . S
C771 C772 1.523 . S
C772 C756 1.368 . S
C772 C768 1.368 . S
C772 C771 1.523 . S
H773 C748 0.950 . S
H774 C750 0.950 . S
H775 C751 0.949 . S
H776 C753 0.950 . S
H777 C755 0.950 . S
C778 C779 1.349 . S
C778 C780 1.327 . S
C778 H803 0.950 . S
C779 C778 1.349 . S
C779 C795 1.349 . S
C780 C778 1.327 . S
C780 C799 1.429 . S
C780 H804 0.950 . S
C781 C798 1.574 . S
C781 C800 1.368 . S
C781 H805 0.949 . S
H782 C786 0.949 . S
C783 C784 1.349 . S
C783 C785 1.327 . S
C783 H806 0.950 . S
C784 C783 1.349 . S
C784 C796 1.349 . S
C785 C783 1.327 . S
C785 C801 1.429 . S
C785 H807 0.950 . S
C786 H782 0.949 . S
C786 C794 1.574 . S
C786 C802 1.368 . S
H787 C795 0.950 . S
H788 C793 0.950 . S
H789 C794 0.949 . S
H790 C796 0.950 . S
H791 C797 0.950 . S
H792 C798 0.949 . S
C793 H788 0.950 . S
C793 C795 1.327 . S
C793 C799 1.429 . S
C794 C786 1.574 . S
C794 H789 0.949 . S
C794 C800 1.368 1_655 S
C795 C779 1.349 . S
C795 H787 0.950 . S
C795 C793 1.327 . S
C796 C784 1.349 . S
C796 H790 0.950 . S
C796 C797 1.327 . S
C797 H791 0.950 . S
C797 C796 1.327 . S
C797 C801 1.429 . S
C798 C781 1.574 . S
C798 H792 0.949 . S
C798 C802 1.368 1_455 S
C799 C780 1.429 . S
C799 C793 1.429 . S
C799 C800 1.523 . S
C800 C781 1.368 . S
C800 C794 1.368 1_455 S
C800 C799 1.523 . S
C801 C785 1.429 . S
C801 C797 1.429 . S
C801 C802 1.523 . S
C802 C786 1.368 . S
C802 C798 1.368 1_655 S
C802 C801 1.523 . S
H803 C778 0.950 . S
H804 C780 0.950 . S
H805 C781 0.949 . S
H806 C783 0.950 . S
H807 C785 0.950 . S
C808 C809 1.349 . S
C808 C810 1.327 . S
C808 H833 0.950 . S
C809 C808 1.349 . S
C809 C825 1.349 . S
C810 C808 1.327 . S
C810 C829 1.429 . S
C810 H834 0.950 . S
C811 C828 1.574 . S
C811 C830 1.368 1_655 S
C811 H835 0.949 . S
H812 C816 0.949 . S
C813 C814 1.349 . S
C813 C815 1.327 . S
C813 H836 0.950 . S
C814 C813 1.349 . S
C814 C826 1.349 . S
C815 C813 1.327 . S
C815 C831 1.429 . S
C815 H837 0.950 . S
C816 H812 0.949 . S
C816 C824 1.574 . S
C816 C832 1.368 1_455 S
H817 C825 0.950 . S
H818 C823 0.950 . S
H819 C824 0.949 . S
H820 C826 0.950 . S
H821 C827 0.950 . S
H822 C828 0.949 . S
C823 H818 0.950 . S
C823 C825 1.327 . S
C823 C829 1.429 . S
C824 C816 1.574 . S
C824 H819 0.949 . S
C824 C830 1.368 . S
C825 C809 1.349 . S
C825 H817 0.950 . S
C825 C823 1.327 . S
C826 C814 1.349 . S
C826 H820 0.950 . S
C826 C827 1.327 . S
C827 H821 0.950 . S
C827 C826 1.327 . S
C827 C831 1.429 . S
C828 C811 1.574 . S
C828 H822 0.949 . S
C828 C832 1.368 . S
C829 C810 1.429 . S
C829 C823 1.429 . S
C829 C830 1.523 . S
C830 C811 1.368 1_455 S
C830 C824 1.368 . S
C830 C829 1.523 . S
C831 C815 1.429 . S
C831 C827 1.429 . S
C831 C832 1.523 . S
C832 C816 1.368 1_655 S
C832 C828 1.368 . S
C832 C831 1.523 . S
H833 C808 0.950 . S
H834 C810 0.950 . S
H835 C811 0.949 . S
H836 C813 0.950 . S
H837 C815 0.950 . S
C838 C839 1.349 . S
C838 C840 1.327 . S
C838 H863 0.950 . S
C839 C838 1.349 . S
C839 C855 1.349 . S
C840 C838 1.327 . S
C840 C859 1.429 . S
C840 H864 0.950 . S
C841 C858 1.574 . S
C841 C860 1.368 . S
C841 H865 0.949 . S
H842 C846 0.949 . S
C843 C844 1.349 . S
C843 C845 1.327 . S
C843 H866 0.950 . S
C844 C843 1.349 . S
C844 C856 1.349 . S
C845 C843 1.327 . S
C845 C861 1.429 . S
C845 H867 0.950 . S
C846 H842 0.949 . S
C846 C854 1.574 . S
C846 C862 1.368 . S
H847 C855 0.950 . S
H848 C853 0.950 . S
H849 C854 0.949 . S
H850 C856 0.950 . S
H851 C857 0.950 . S
H852 C858 0.949 . S
C853 H848 0.950 . S
C853 C855 1.327 . S
C853 C859 1.429 . S
C854 C846 1.574 . S
C854 H849 0.949 . S
C854 C860 1.368 . S
C855 C839 1.349 . S
C855 H847 0.950 . S
C855 C853 1.327 . S
C856 C844 1.349 . S
C856 H850 0.950 . S
C856 C857 1.327 . S
C857 H851 0.950 . S
C857 C856 1.327 . S
C857 C861 1.429 . S
C858 C841 1.574 . S
C858 H852 0.949 . S
C858 C862 1.368 . S
C859 C840 1.429 . S
C859 C853 1.429 . S
C859 C860 1.523 . S
C860 C841 1.368 . S
C860 C854 1.368 . S
C860 C859 1.523 . S
C861 C845 1.429 . S
C861 C857 1.429 . S
C861 C862 1.523 . S
C862 C846 1.368 . S
C862 C858 1.368 . S
C862 C861 1.523 . S
H863 C838 0.950 . S
H864 C840 0.950 . S
H865 C841 0.949 . S
H866 C843 0.950 . S
H867 C845 0.950 . S
C868 C869 1.349 . S
C868 C870 1.327 . S
C868 H893 0.950 . S
C869 C868 1.349 . S
C869 C885 1.349 . S
C870 C868 1.327 . S
C870 C889 1.429 . S
C870 H894 0.950 . S
C871 C888 1.574 . S
C871 C890 1.368 . S
C871 H895 0.949 . S
H872 C876 0.949 . S
C873 C874 1.349 . S
C873 C875 1.327 . S
C873 H896 0.950 . S
C874 C873 1.349 . S
C874 C886 1.349 . S
C875 C873 1.327 . S
C875 C891 1.429 . S
C875 H897 0.950 . S
C876 H872 0.949 . S
C876 C884 1.574 . S
C876 C892 1.368 . S
H877 C885 0.950 . S
H878 C883 0.950 . S
H879 C884 0.949 . S
H880 C886 0.950 . S
H881 C887 0.950 . S
H882 C888 0.949 . S
C883 H878 0.950 . S
C883 C885 1.327 . S
C883 C889 1.429 . S
C884 C876 1.574 . S
C884 H879 0.949 . S
C884 C890 1.368 . S
C885 C869 1.349 . S
C885 H877 0.950 . S
C885 C883 1.327 . S
C886 C874 1.349 . S
C886 H880 0.950 . S
C886 C887 1.327 . S
C887 H881 0.950 . S
C887 C886 1.327 . S
C887 C891 1.429 . S
C888 C871 1.574 . S
C888 H882 0.949 . S
C888 C892 1.368 . S
C889 C870 1.429 . S
C889 C883 1.429 . S
C889 C890 1.523 . S
C890 C871 1.368 . S
C890 C884 1.368 . S
C890 C889 1.523 . S
C891 C875 1.429 . S
C891 C887 1.429 . S
C891 C892 1.523 . S
C892 C876 1.368 . S
C892 C888 1.368 . S
C892 C891 1.523 . S
H893 C868 0.950 . S
H894 C870 0.950 . S
H895 C871 0.949 . S
H896 C873 0.950 . S
H897 C875 0.950 . S
C898 C899 1.349 . S
C898 C900 1.327 . S
C898 H923 0.950 . S
C899 C898 1.349 . S
C899 C915 1.349 . S
C900 C898 1.327 . S
C900 C919 1.429 . S
C900 H924 0.950 . S
C901 C918 1.574 . S
C901 C920 1.368 . S
C901 H925 0.949 . S
H902 C906 0.949 . S
C903 C904 1.349 . S
C903 C905 1.327 . S
C903 H926 0.950 . S
C904 C903 1.349 . S
C904 C916 1.349 . S
C905 C903 1.327 . S
C905 C921 1.429 . S
C905 H927 0.950 . S
C906 H902 0.949 . S
C906 C914 1.574 . S
C906 C922 1.368 . S
H907 C915 0.950 . S
H908 C913 0.950 . S
H909 C914 0.949 . S
H910 C916 0.950 . S
H911 C917 0.950 . S
H912 C918 0.949 . S
C913 H908 0.950 . S
C913 C915 1.327 . S
C913 C919 1.429 . S
C914 C906 1.574 . S
C914 H909 0.949 . S
C914 C920 1.368 1_655 S
C915 C899 1.349 . S
C915 H907 0.950 . S
C915 C913 1.327 . S
C916 C904 1.349 . S
C916 H910 0.950 . S
C916 C917 1.327 . S
C917 H911 0.950 . S
C917 C916 1.327 . S
C917 C921 1.429 . S
C918 C901 1.574 . S
C918 H912 0.949 . S
C918 C922 1.368 1_455 S
C919 C900 1.429 . S
C919 C913 1.429 . S
C919 C920 1.523 . S
C920 C901 1.368 . S
C920 C914 1.368 1_455 S
C920 C919 1.523 . S
C921 C905 1.429 . S
C921 C917 1.429 . S
C921 C922 1.523 . S
C922 C906 1.368 . S
C922 C918 1.368 1_655 S
C922 C921 1.523 . S
H923 C898 0.950 . S
H924 C900 0.950 . S
H925 C901 0.949 . S
H926 C903 0.950 . S
H927 C905 0.950 . S
C928 C929 1.349 . S
C928 C930 1.327 . S
C928 H953 0.950 . S
C929 C928 1.349 . S
C929 C945 1.349 . S
C930 C928 1.327 . S
C930 C949 1.429 . S
C930 H954 0.950 1_655 S
C931 C948 1.574 1_556 S
C931 C950 1.368 1_545 S
C931 H955 0.949 . S
H932 C936 0.949 . S
C933 C934 1.349 . S
C933 C935 1.327 . S
C933 H956 0.950 . S
C934 C933 1.349 . S
C934 C946 1.349 . S
C935 C933 1.327 . S
C935 C951 1.429 . S
C935 H957 0.950 1_455 S
C936 H932 0.949 . S
C936 C944 1.574 1_554 S
C936 C952 1.368 1_565 S
H937 C945 0.950 . S
H938 C943 0.950 1_545 S
H939 C944 0.949 . S
H940 C946 0.950 . S
H941 C947 0.950 1_565 S
H942 C948 0.949 . S
C943 H938 0.950 1_565 S
C943 C945 1.327 . S
C943 C949 1.429 . S
C944 C936 1.574 1_556 S
C944 H939 0.949 . S
C944 C950 1.368 1_455 S
C945 C929 1.349 . S
C945 H937 0.950 . S
C945 C943 1.327 . S
C946 C934 1.349 . S
C946 H940 0.950 . S
C946 C947 1.327 . S
C947 H941 0.950 1_545 S
C947 C946 1.327 . S
C947 C951 1.429 . S
C948 C931 1.574 1_554 S
C948 H942 0.949 . S
C948 C952 1.368 1_655 S
C949 C930 1.429 . S
C949 C943 1.429 . S
C949 C950 1.523 . S
C950 C931 1.368 1_565 S
C950 C944 1.368 1_655 S
C950 C949 1.523 . S
C951 C935 1.429 . S
C951 C947 1.429 . S
C951 C952 1.523 . S
C952 C936 1.368 1_545 S
C952 C948 1.368 1_455 S
C952 C951 1.523 . S
H953 C928 0.950 . S
H954 C930 0.950 1_455 S
H955 C931 0.949 . S
H956 C933 0.950 . S
H957 C935 0.950 1_655 S
C958 C959 1.349 . S
C958 C960 1.327 . S
C958 H983 0.950 . S
C959 C958 1.349 . S
C959 C975 1.349 . S
C960 C958 1.327 . S
C960 C979 1.429 . S
C960 H984 0.950 1_545 S
C961 C978 1.574 1_556 S
C961 C980 1.368 . S
C961 H985 0.949 . S
H962 C966 0.949 . S
C963 C964 1.349 . S
C963 C965 1.327 . S
C963 H986 0.950 . S
C964 C963 1.349 . S
C964 C976 1.349 . S
C965 C963 1.327 . S
C965 C981 1.429 . S
C965 H987 0.950 1_565 S
C966 H962 0.949 . S
C966 C974 1.574 1_554 S
C966 C982 1.368 . S
H967 C975 0.950 . S
H968 C973 0.950 . S
H969 C974 0.949 . S
H970 C976 0.950 . S
H971 C977 0.950 . S
H972 C978 0.949 . S
C973 H968 0.950 . S
C973 C975 1.327 . S
C973 C979 1.429 . S
C974 C966 1.574 1_556 S
C974 H969 0.949 . S
C974 C980 1.368 1_565 S
C975 C959 1.349 . S
C975 H967 0.950 . S
C975 C973 1.327 . S
C976 C964 1.349 . S
C976 H970 0.950 . S
C976 C977 1.327 . S
C977 H971 0.950 . S
C977 C976 1.327 . S
C977 C981 1.429 . S
C978 C961 1.574 1_554 S
C978 H972 0.949 . S
C978 C982 1.368 1_545 S
C979 C960 1.429 . S
C979 C973 1.429 . S
C979 C980 1.523 . S
C980 C961 1.368 . S
C980 C974 1.368 1_545 S
C980 C979 1.523 . S
C981 C965 1.429 . S
C981 C977 1.429 . S
C981 C982 1.523 . S
C982 C966 1.368 . S
C982 C978 1.368 1_565 S
C982 C981 1.523 . S
H983 C958 0.950 . S
H984 C960 0.950 1_565 S
H985 C961 0.949 . S
H986 C963 0.950 . S
H987 C965 0.950 1_545 S
C988 C989 1.349 . S
C988 C990 1.327 . S
C988 H1013 0.950 . S
C989 C988 1.349 . S
C989 C1005 1.349 . S
C990 C988 1.327 . S
C990 C1009 1.429 . S
C990 H1014 0.950 . S
C991 C1008 1.574 . S
C991 C1010 1.368 1_565 S
C991 H1015 0.949 . S
H992 C996 0.949 . S
C993 C994 1.349 . S
C993 C995 1.327 . S
C993 H1016 0.950 . S
C994 C993 1.349 . S
C994 C1006 1.349 . S
C995 C993 1.327 . S
C995 C1011 1.429 . S
C995 H1017 0.950 . S
C996 H992 0.949 . S
C996 C1004 1.574 . S
C996 C1012 1.368 1_545 S
H997 C1005 0.950 1_565 S
H998 C1003 0.918 1_565 S
H999 C1004 0.949 . S
H1000 C1006 0.950 1_545 S
H1001 C1007 0.918 1_545 S
H1002 C1008 0.949 . S
C1003 H998 0.918 1_545 S
C1003 C1005 1.338 . S
C1003 C1009 1.448 . S
C1004 C996 1.574 . S
C1004 H999 0.949 . S
C1004 C1010 1.368 . S
C1005 C989 1.349 . S
C1005 H997 0.950 1_545 S
C1005 C1003 1.338 . S
C1006 C994 1.349 . S
C1006 H1000 0.950 1_565 S
C1006 C1007 1.338 . S
C1007 H1001 0.918 1_565 S
C1007 C1006 1.338 . S
C1007 C1011 1.448 . S
C1008 C991 1.574 . S
C1008 H1002 0.949 . S
C1008 C1012 1.368 . S
C1009 C990 1.429 . S
C1009 C1003 1.448 . S
C1009 C1010 1.523 . S
C1010 C991 1.368 1_545 S
C1010 C1004 1.368 . S
C1010 C1009 1.523 . S
C1011 C995 1.429 . S
C1011 C1007 1.448 . S
C1011 C1012 1.523 . S
C1012 C996 1.368 1_565 S
C1012 C1008 1.368 . S
C1012 C1011 1.523 . S
H1013 C988 0.950 . S
H1014 C990 0.950 . S
H1015 C991 0.949 . S
H1016 C993 0.950 . S
H1017 C995 0.950 . S
C1018 C1019 1.349 . S
C1018 C1020 1.327 . S
C1018 H1043 0.950 . S
C1019 C1018 1.349 . S
C1019 C1035 1.349 . S
C1020 C1018 1.327 . S
C1020 C1039 1.429 . S
C1020 H1044 0.951 1_455 S
C1021 C1038 1.574 . S
C1021 C1040 1.368 1_545 S
C1021 H1045 0.949 . S
H1022 C1026 0.949 . S
C1023 C1024 1.349 . S
C1023 C1025 1.327 . S
C1023 H1046 0.950 . S
C1024 C1023 1.349 . S
C1024 C1036 1.349 . S
C1025 C1023 1.327 . S
C1025 C1041 1.429 . S
C1025 H1047 0.951 1_655 S
C1026 H1022 0.949 . S
C1026 C1034 1.574 . S
C1026 C1042 1.368 1_565 S
H1027 C1035 0.950 1_545 S
H1028 C1033 0.950 1_545 S
H1029 C1034 0.949 . S
H1030 C1036 0.950 1_565 S
H1031 C1037 0.950 1_565 S
H1032 C1038 0.949 . S
C1033 H1028 0.950 1_565 S
C1033 C1035 1.327 . S
C1033 C1039 1.429 . S
C1034 C1026 1.574 . S
C1034 H1029 0.949 . S
C1034 C1040 1.368 1_655 S
C1035 C1019 1.349 . S
C1035 H1027 0.950 1_565 S
C1035 C1033 1.327 . S
C1036 C1024 1.349 . S
C1036 H1030 0.950 1_545 S
C1036 C1037 1.327 . S
C1037 H1031 0.950 1_545 S
C1037 C1036 1.327 . S
C1037 C1041 1.429 . S
C1038 C1021 1.574 . S
C1038 H1032 0.949 . S
C1038 C1042 1.368 1_455 S
C1039 C1020 1.429 . S
C1039 C1033 1.429 . S
C1039 C1040 1.523 . S
C1040 C1021 1.368 1_565 S
C1040 C1034 1.368 1_455 S
C1040 C1039 1.523 . S
C1041 C1025 1.429 . S
C1041 C1037 1.429 . S
C1041 C1042 1.523 . S
C1042 C1026 1.368 1_545 S
C1042 C1038 1.368 1_655 S
C1042 C1041 1.523 . S
H1043 C1018 0.950 . S
H1044 C1020 0.951 1_655 S
H1045 C1021 0.949 . S
H1046 C1023 0.950 . S
H1047 C1025 0.951 1_455 S
C1048 C1049 1.349 . S
C1048 C1050 1.327 . S
C1048 H1073 0.950 . S
C1049 C1048 1.349 . S
C1049 C1065 1.349 . S
C1050 C1048 1.327 . S
C1050 C1069 1.429 . S
C1050 H1074 0.950 . S
C1051 C1068 1.574 1_554 S
C1051 C1070 1.368 . S
C1051 H1075 0.949 . S
H1052 C1056 0.949 . S
C1053 C1054 1.349 . S
C1053 C1055 1.327 . S
C1053 H1076 0.950 . S
C1054 C1053 1.349 . S
C1054 C1066 1.349 . S
C1055 C1053 1.327 . S
C1055 C1071 1.429 . S
C1055 H1077 0.950 . S
C1056 H1052 0.949 . S
C1056 C1064 1.574 1_556 S
C1056 C1072 1.368 . S
H1057 C1065 0.950 . S
H1058 C1063 0.950 . S
H1059 C1064 0.949 . S
H1060 C1066 0.950 . S
H1061 C1067 0.950 . S
H1062 C1068 0.949 . S
C1063 H1058 0.950 . S
C1063 C1065 1.327 . S
C1063 C1069 1.429 . S
C1064 C1056 1.574 1_554 S
C1064 H1059 0.949 . S
C1064 C1070 1.368 . S
C1065 C1049 1.349 . S
C1065 H1057 0.950 . S
C1065 C1063 1.327 . S
C1066 C1054 1.349 . S
C1066 H1060 0.950 . S
C1066 C1067 1.327 . S
C1067 H1061 0.950 . S
C1067 C1066 1.327 . S
C1067 C1071 1.429 . S
C1068 C1051 1.574 1_556 S
C1068 H1062 0.949 . S
C1068 C1072 1.368 . S
C1069 C1050 1.429 . S
C1069 C1063 1.429 . S
C1069 C1070 1.523 . S
C1070 C1051 1.368 . S
C1070 C1064 1.368 . S
C1070 C1069 1.523 . S
C1071 C1055 1.429 . S
C1071 C1067 1.429 . S
C1071 C1072 1.523 . S
C1072 C1056 1.368 . S
C1072 C1068 1.368 . S
C1072 C1071 1.523 . S
H1073 C1048 0.950 . S
H1074 C1050 0.950 . S
H1075 C1051 0.949 . S
H1076 C1053 0.950 . S
H1077 C1055 0.950 . S
C1078 C1079 1.349 . S
C1078 C1080 1.327 . S
C1078 H1103 0.950 . S
C1079 C1078 1.349 . S
C1079 C1095 1.349 . S
C1080 C1078 1.327 . S
C1080 C1099 1.429 . S
C1080 H1104 0.950 . S
C1081 C1098 1.574 1_554 S
C1081 C1100 1.368 1_455 S
C1081 H1105 0.949 . S
H1082 C1086 0.949 . S
C1083 C1084 1.349 . S
C1083 C1085 1.327 . S
C1083 H1106 0.950 . S
C1084 C1083 1.349 . S
C1084 C1096 1.349 . S
C1085 C1083 1.327 . S
C1085 C1101 1.429 . S
C1085 H1107 0.950 . S
C1086 H1082 0.949 . S
C1086 C1094 1.574 1_556 S
C1086 C1102 1.368 1_655 S
H1087 C1095 0.950 . S
H1088 C1093 0.950 1_455 S
H1089 C1094 0.949 . S
H1090 C1096 0.950 . S
H1091 C1097 0.950 1_655 S
H1092 C1098 0.949 . S
C1093 H1088 0.950 1_655 S
C1093 C1095 1.327 . S
C1093 C1099 1.429 . S
C1094 C1086 1.574 1_554 S
C1094 H1089 0.949 . S
C1094 C1100 1.368 . S
C1095 C1079 1.349 . S
C1095 H1087 0.950 . S
C1095 C1093 1.327 . S
C1096 C1084 1.349 . S
C1096 H1090 0.950 . S
C1096 C1097 1.327 . S
C1097 H1091 0.950 1_455 S
C1097 C1096 1.327 . S
C1097 C1101 1.429 . S
C1098 C1081 1.574 1_556 S
C1098 H1092 0.949 . S
C1098 C1102 1.368 . S
C1099 C1080 1.429 . S
C1099 C1093 1.429 . S
C1099 C1100 1.523 . S
C1100 C1081 1.368 1_655 S
C1100 C1094 1.368 . S
C1100 C1099 1.523 . S
C1101 C1085 1.429 . S
C1101 C1097 1.429 . S
C1101 C1102 1.523 . S
C1102 C1086 1.368 1_455 S
C1102 C1098 1.368 . S
C1102 C1101 1.523 . S
H1103 C1078 0.950 . S
H1104 C1080 0.950 . S
H1105 C1081 0.949 . S
H1106 C1083 0.950 . S
H1107 C1085 0.950 . S
C1108 C1109 1.349 . S
C1108 C1110 1.327 . S
C1108 H1133 0.950 . S
C1109 C1108 1.349 . S
C1109 C1125 1.349 . S
C1110 C1108 1.327 . S
C1110 C1129 1.429 . S
C1110 H1134 0.950 1_655 S
C1111 C1128 1.574 . S
C1111 C1130 1.368 . S
C1111 H1135 0.949 . S
H1112 C1116 0.949 . S
C1113 C1114 1.349 . S
C1113 C1115 1.327 . S
C1113 H1136 0.950 . S
C1114 C1113 1.349 . S
C1114 C1126 1.349 . S
C1115 C1113 1.327 . S
C1115 C1131 1.429 . S
C1115 H1137 0.950 1_455 S
C1116 H1112 0.949 . S
C1116 C1124 1.574 . S
C1116 C1132 1.368 . S
H1117 C1125 0.950 . S
H1118 C1123 0.950 . S
H1119 C1124 0.949 . S
H1120 C1126 0.950 . S
H1121 C1127 0.950 . S
H1122 C1128 0.949 . S
C1123 H1118 0.950 . S
C1123 C1125 1.327 . S
C1123 C1129 1.429 . S
C1124 C1116 1.574 . S
C1124 H1119 0.949 . S
C1124 C1130 1.368 1_455 S
C1125 C1109 1.349 . S
C1125 H1117 0.950 . S
C1125 C1123 1.327 . S
C1126 C1114 1.349 . S
C1126 H1120 0.950 . S
C1126 C1127 1.327 . S
C1127 H1121 0.950 . S
C1127 C1126 1.327 . S
C1127 C1131 1.429 . S
C1128 C1111 1.574 . S
C1128 H1122 0.949 . S
C1128 C1132 1.368 1_655 S
C1129 C1110 1.429 . S
C1129 C1123 1.429 . S
C1129 C1130 1.523 . S
C1130 C1111 1.368 . S
C1130 C1124 1.368 1_655 S
C1130 C1129 1.523 . S
C1131 C1115 1.429 . S
C1131 C1127 1.429 . S
C1131 C1132 1.523 . S
C1132 C1116 1.368 . S
C1132 C1128 1.368 1_455 S
C1132 C1131 1.523 . S
H1133 C1108 0.950 . S
H1134 C1110 0.950 1_455 S
H1135 C1111 0.949 . S
H1136 C1113 0.950 . S
H1137 C1115 0.950 1_655 S
C1138 C1139 1.349 . S
C1138 C1140 1.327 . S
C1138 H1163 0.950 . S
C1139 C1138 1.349 . S
C1139 C1155 1.349 . S
C1140 C1138 1.327 . S
C1140 C1159 1.429 . S
C1140 H1164 0.950 . S
C1141 C1158 1.574 . S
C1141 C1160 1.368 . S
C1141 H1165 0.949 . S
H1142 C1146 0.949 . S
C1143 C1144 1.349 . S
C1143 C1145 1.327 . S
C1143 H1166 0.950 . S
C1144 C1143 1.349 . S
C1144 C1156 1.349 . S
C1145 C1143 1.327 . S
C1145 C1161 1.429 . S
C1145 H1167 0.950 . S
C1146 H1142 0.949 . S
C1146 C1154 1.574 . S
C1146 C1162 1.368 . S
H1147 C1155 0.950 . S
H1148 C1153 0.950 . S
H1149 C1154 0.949 . S
H1150 C1156 0.950 . S
H1151 C1157 0.950 . S
H1152 C1158 0.949 . S
C1153 H1148 0.950 . S
C1153 C1155 1.327 . S
C1153 C1159 1.429 . S
C1154 C1146 1.574 . S
C1154 H1149 0.949 . S
C1154 C1160 1.368 . S
C1155 C1139 1.349 . S
C1155 H1147 0.950 . S
C1155 C1153 1.327 . S
C1156 C1144 1.349 . S
C1156 H1150 0.950 . S
C1156 C1157 1.327 . S
C1157 H1151 0.950 . S
C1157 C1156 1.327 . S
C1157 C1161 1.429 . S
C1158 C1141 1.574 . S
C1158 H1152 0.949 . S
C1158 C1162 1.368 . S
C1159 C1140 1.429 . S
C1159 C1153 1.429 . S
C1159 C1160 1.523 . S
C1160 C1141 1.368 . S
C1160 C1154 1.368 . S
C1160 C1159 1.523 . S
C1161 C1145 1.429 . S
C1161 C1157 1.429 . S
C1161 C1162 1.523 . S
C1162 C1146 1.368 . S
C1162 C1158 1.368 . S
C1162 C1161 1.523 . S
H1163 C1138 0.950 . S
H1164 C1140 0.950 . S
H1165 C1141 0.949 . S
H1166 C1143 0.950 . S
H1167 C1145 0.950 . S
C209 C13 1.446 . S
C214 C0 1.446 . S
C239 C26 1.446 . S
C244 C39 1.446 . S
C269 C52 1.446 . S
C274 C65 1.446 . S
C299 C91 1.446 . S
C304 C78 1.446 . S
C329 C117 1.446 . S
C334 C104 1.446 . S
C359 C143 1.446 . S
C364 C130 1.446 . S
C389 C169 1.446 . S
C394 C156 1.446 . S
C419 C195 1.446 . S
C424 C182 1.446 . S
C449 C49 1.094 . S
C454 C10 1.094 . S
C479 C23 1.094 . S
C484 C36 1.094 . S
C509 C101 1.094 . S
C514 C62 1.094 . S
C539 C88 1.094 . S
C544 C75 1.094 . S
C569 C114 1.094 . S
C574 C153 1.094 . S
C599 C140 1.094 . S
C604 C127 1.094 . S
C629 C205 1.094 . S
C634 C166 1.094 . S
C659 C179 1.094 . S
C664 C192 1.094 . S
C689 C5 1.446 . S
C694 C122 1.446 . S
C719 C18 1.446 . S
C724 C109 1.446 . S
C749 C148 1.446 . S
C754 C31 1.446 . S
C779 C135 1.446 . S
C784 C44 1.446 . S
C809 C174 1.446 . S
C814 C57 1.446 . S
C839 C161 1.446 . S
C844 C70 1.446 . S
C869 C83 1.446 . S
C874 C200 1.446 . S
C899 C96 1.446 . S
C904 C187 1.446 . S
C929 C60 0.894 . S
C934 C8 0.894 . S
C959 C73 0.894 . S
C964 C21 0.894 . S
C989 C86 0.894 . S
C994 C34 0.894 . S
C1019 C99 0.894 . S
C1024 C47 0.894 . S
C1049 C112 0.894 . S
C1054 C164 0.894 . S
C1079 C125 0.894 . S
C1084 C177 0.894 . S
C1109 C190 0.894 . S
C1114 C138 0.894 . S
C1139 C203 0.894 . S
C1144 C151 0.894 . S
