# Generated by pormake.
# Topology wig, (6)-cn, num edge types: 1
# Building blocks:
#     Node 0, Type 0, BuildingBlock: OJICUG_clean_sbu_0, # of connection points: 6
#     Node 1, Type 0, BuildingBlock: OJICUG_clean_sbu_0, # of connection points: 6
#     Node 2, Type 0, BuildingBlock: OJICUG_clean_sbu_0, # of connection points: 6
#     Node 3, Type 0, BuildingBlock: OJICUG_clean_sbu_0, # of connection points: 6
#     Node 4, Type 0, BuildingBlock: OJICUG_clean_sbu_0, # of connection points: 6
#     Node 5, Type 0, BuildingBlock: OJICUG_clean_sbu_0, # of connection points: 6
#     Node 6, Type 0, BuildingBlock: OJICUG_clean_sbu_0, # of connection points: 6
#     Node 7, Type 0, BuildingBlock: OJICUG_clean_sbu_0, # of connection points: 6
#     Node 8, Type 0, BuildingBlock: OJICUG_clean_sbu_0, # of connection points: 6
#     Node 9, Type 0, BuildingBlock: OJICUG_clean_sbu_0, # of connection points: 6
#     Node 10, Type 0, BuildingBlock: OJICUG_clean_sbu_0, # of connection points: 6
#     Node 11, Type 0, BuildingBlock: OJICUG_clean_sbu_0, # of connection points: 6
#     Node 12, Type 0, BuildingBlock: OJICUG_clean_sbu_0, # of connection points: 6
#     Node 13, Type 0, BuildingBlock: OJICUG_clean_sbu_0, # of connection points: 6
#     Node 14, Type 0, BuildingBlock: OJICUG_clean_sbu_0, # of connection points: 6
#     Node 15, Type 0, BuildingBlock: OJICUG_clean_sbu_0, # of connection points: 6
#     Edge 16, Type (0, 0), BuildingBlock: KIFKEQ_clean_linker_1, # of connection points: 2
#     Edge 17, Type (0, 0), BuildingBlock: KIFKEQ_clean_linker_1, # of connection points: 2
#     Edge 18, Type (0, 0), BuildingBlock: KIFKEQ_clean_linker_1, # of connection points: 2
#     Edge 19, Type (0, 0), BuildingBlock: KIFKEQ_clean_linker_1, # of connection points: 2
#     Edge 20, Type (0, 0), BuildingBlock: KIFKEQ_clean_linker_1, # of connection points: 2
#     Edge 21, Type (0, 0), BuildingBlock: KIFKEQ_clean_linker_1, # of connection points: 2
#     Edge 22, Type (0, 0), BuildingBlock: KIFKEQ_clean_linker_1, # of connection points: 2
#     Edge 23, Type (0, 0), BuildingBlock: KIFKEQ_clean_linker_1, # of connection points: 2
#     Edge 24, Type (0, 0), BuildingBlock: KIFKEQ_clean_linker_1, # of connection points: 2
#     Edge 25, Type (0, 0), BuildingBlock: KIFKEQ_clean_linker_1, # of connection points: 2
#     Edge 26, Type (0, 0), BuildingBlock: KIFKEQ_clean_linker_1, # of connection points: 2
#     Edge 27, Type (0, 0), BuildingBlock: KIFKEQ_clean_linker_1, # of connection points: 2
#     Edge 28, Type (0, 0), BuildingBlock: KIFKEQ_clean_linker_1, # of connection points: 2
#     Edge 29, Type (0, 0), BuildingBlock: KIFKEQ_clean_linker_1, # of connection points: 2
#     Edge 30, Type (0, 0), BuildingBlock: KIFKEQ_clean_linker_1, # of connection points: 2
#     Edge 31, Type (0, 0), BuildingBlock: KIFKEQ_clean_linker_1, # of connection points: 2
#     Edge 32, Type (0, 0), BuildingBlock: KIFKEQ_clean_linker_1, # of connection points: 2
#     Edge 33, Type (0, 0), BuildingBlock: KIFKEQ_clean_linker_1, # of connection points: 2
#     Edge 34, Type (0, 0), BuildingBlock: KIFKEQ_clean_linker_1, # of connection points: 2
#     Edge 35, Type (0, 0), BuildingBlock: KIFKEQ_clean_linker_1, # of connection points: 2
#     Edge 36, Type (0, 0), BuildingBlock: KIFKEQ_clean_linker_1, # of connection points: 2
#     Edge 37, Type (0, 0), BuildingBlock: KIFKEQ_clean_linker_1, # of connection points: 2
#     Edge 38, Type (0, 0), BuildingBlock: KIFKEQ_clean_linker_1, # of connection points: 2
#     Edge 39, Type (0, 0), BuildingBlock: KIFKEQ_clean_linker_1, # of connection points: 2
#     Edge 40, Type (0, 0), BuildingBlock: KIFKEQ_clean_linker_1, # of connection points: 2
#     Edge 41, Type (0, 0), BuildingBlock: KIFKEQ_clean_linker_1, # of connection points: 2
#     Edge 42, Type (0, 0), BuildingBlock: KIFKEQ_clean_linker_1, # of connection points: 2
#     Edge 43, Type (0, 0), BuildingBlock: KIFKEQ_clean_linker_1, # of connection points: 2
#     Edge 44, Type (0, 0), BuildingBlock: KIFKEQ_clean_linker_1, # of connection points: 2
#     Edge 45, Type (0, 0), BuildingBlock: KIFKEQ_clean_linker_1, # of connection points: 2
#     Edge 46, Type (0, 0), BuildingBlock: KIFKEQ_clean_linker_1, # of connection points: 2
#     Edge 47, Type (0, 0), BuildingBlock: KIFKEQ_clean_linker_1, # of connection points: 2
#     Edge 48, Type (0, 0), BuildingBlock: KIFKEQ_clean_linker_1, # of connection points: 2
#     Edge 49, Type (0, 0), BuildingBlock: KIFKEQ_clean_linker_1, # of connection points: 2
#     Edge 50, Type (0, 0), BuildingBlock: KIFKEQ_clean_linker_1, # of connection points: 2
#     Edge 51, Type (0, 0), BuildingBlock: KIFKEQ_clean_linker_1, # of connection points: 2
#     Edge 52, Type (0, 0), BuildingBlock: KIFKEQ_clean_linker_1, # of connection points: 2
#     Edge 53, Type (0, 0), BuildingBlock: KIFKEQ_clean_linker_1, # of connection points: 2
#     Edge 54, Type (0, 0), BuildingBlock: KIFKEQ_clean_linker_1, # of connection points: 2
#     Edge 55, Type (0, 0), BuildingBlock: KIFKEQ_clean_linker_1, # of connection points: 2
#     Edge 56, Type (0, 0), BuildingBlock: KIFKEQ_clean_linker_1, # of connection points: 2
#     Edge 57, Type (0, 0), BuildingBlock: KIFKEQ_clean_linker_1, # of connection points: 2
#     Edge 58, Type (0, 0), BuildingBlock: KIFKEQ_clean_linker_1, # of connection points: 2
#     Edge 59, Type (0, 0), BuildingBlock: KIFKEQ_clean_linker_1, # of connection points: 2
#     Edge 60, Type (0, 0), BuildingBlock: KIFKEQ_clean_linker_1, # of connection points: 2
#     Edge 61, Type (0, 0), BuildingBlock: KIFKEQ_clean_linker_1, # of connection points: 2
#     Edge 62, Type (0, 0), BuildingBlock: KIFKEQ_clean_linker_1, # of connection points: 2
#     Edge 63, Type (0, 0), BuildingBlock: KIFKEQ_clean_linker_1, # of connection points: 2
# Relax obj value: 0.258
# Max RMSD: 0.298
# Mean RMSD: 0.298
data_MOF--net-wig--node1-OJICUG_clean_sbu_0--edge1-KIFKEQ_clean_linker_1
_symmetry_space_group_name_H-M    P1
_symmetry_Int_Tables_number       1
_symmetry_cell_setting            triclinic
loop_
_symmetry_equiv_pos_as_xyz
'x, y, z'
_cell_length_a     29.482377
_cell_length_b     29.46433
_cell_length_c     88.970692
_cell_angle_alpha  90.059385
_cell_angle_beta   89.950181
_cell_angle_gamma 90.017952
loop_
_atom_site_label
_atom_site_type_symbol
_atom_site_fract_x
_atom_site_fract_y
_atom_site_fract_z
_atom_type_partial_charge
Sc0 Sc 0.12616 0.2159 0.28879 0.0
Sc1 Sc 0.18563 0.19853 0.25495 0.0
Sc2 Sc 0.21312 0.13396 0.28679 0.0
O3 O 0.1748 0.18257 0.27684 0.0
C4 C 0.20083 0.20171 0.31422 0.0
C5 C 0.17293 0.29536 0.27107 0.0
C6 C 0.28575 0.19036 0.26822 0.0
C7 C 0.08023 0.20994 0.25612 0.0
C8 C 0.11118 0.11177 0.29725 0.0
C9 C 0.20153 0.0923 0.25383 0.0
O10 O 0.1645 0.21914 0.30929 0.0
O11 O 0.18279 0.26975 0.26003 0.0
O12 O 0.27625 0.1639 0.27909 0.0
O13 O 0.08039 0.21966 0.27003 0.0
O14 O 0.15262 0.10082 0.29516 0.0
O15 O 0.19198 0.12932 0.24729 0.0
O16 O 0.09604 0.15192 0.29525 0.0
O17 O 0.11518 0.19644 0.24912 0.0
O18 O 0.20959 0.08962 0.2678 0.0
O19 O 0.15382 0.28142 0.28302 0.0
O20 O 0.22255 0.17149 0.30711 0.0
O21 O 0.25665 0.20364 0.2587 0.0
Sc22 Sc 0.21741 0.855 0.69759 0.0
Sc23 Sc 0.19735 0.78838 0.72987 0.0
Sc24 Sc 0.13193 0.77121 0.69731 0.0
O25 O 0.18208 0.80504 0.70827 0.0
C26 C 0.11432 0.87514 0.68855 0.0
C27 C 0.20872 0.89482 0.7311 0.0
C28 C 0.09065 0.77675 0.73052 0.0
C29 C 0.29505 0.80231 0.71489 0.0
C30 C 0.20225 0.78604 0.67053 0.0
C31 C 0.18428 0.69183 0.71394 0.0
O32 O 0.15527 0.88774 0.69054 0.0
O33 O 0.19926 0.85767 0.73762 0.0
O34 O 0.08768 0.77173 0.71639 0.0
O35 O 0.28263 0.82632 0.70375 0.0
O36 O 0.16939 0.76565 0.67676 0.0
O37 O 0.19924 0.71778 0.72422 0.0
O38 O 0.22268 0.81921 0.67659 0.0
O39 O 0.26811 0.78907 0.72511 0.0
O40 O 0.15874 0.70528 0.70333 0.0
O41 O 0.21679 0.89774 0.7171 0.0
O42 O 0.10112 0.83434 0.69044 0.0
O43 O 0.12795 0.78376 0.73723 0.0
Sc44 Sc 0.76802 0.85532 0.28735 0.0
Sc45 Sc 0.78875 0.79257 0.25469 0.0
Sc46 Sc 0.85012 0.76863 0.28785 0.0
O47 O 0.8026 0.80555 0.27664 0.0
C48 C 0.87081 0.87157 0.29737 0.0
C49 C 0.78292 0.89828 0.25448 0.0
C50 C 0.89475 0.77429 0.25524 0.0
C51 C 0.69021 0.811 0.26838 0.0
C52 C 0.77816 0.78393 0.31399 0.0
C53 C 0.79344 0.69447 0.26974 0.0
O54 O 0.83068 0.88548 0.29471 0.0
O55 O 0.79472 0.86202 0.24785 0.0
O56 O 0.89677 0.76943 0.26938 0.0
O57 O 0.70308 0.82806 0.28077 0.0
O58 O 0.81077 0.76223 0.30809 0.0
O59 O 0.78006 0.72248 0.25984 0.0
O60 O 0.76031 0.81832 0.30785 0.0
O61 O 0.71731 0.8005 0.25785 0.0
O62 O 0.82045 0.70488 0.2804 0.0
O63 O 0.77044 0.89951 0.26816 0.0
O64 O 0.88278 0.83013 0.2959 0.0
O65 O 0.85811 0.78236 0.24832 0.0
Sc66 Sc 0.85003 0.21638 0.69617 0.0
Sc67 Sc 0.7953 0.18082 0.72901 0.0
Sc68 Sc 0.77064 0.12738 0.69483 0.0
O69 O 0.80548 0.1749 0.70663 0.0
C70 C 0.78019 0.20251 0.66945 0.0
C71 C 0.79581 0.28358 0.71721 0.0
C72 C 0.69516 0.16851 0.71534 0.0
C73 C 0.8989 0.20538 0.72799 0.0
C74 C 0.87425 0.11526 0.68514 0.0
C75 C 0.78449 0.07655 0.72641 0.0
O76 O 0.81068 0.22442 0.67628 0.0
O77 O 0.7879 0.25282 0.72689 0.0
O78 O 0.70676 0.1552 0.70226 0.0
O79 O 0.89715 0.21778 0.71439 0.0
O80 O 0.83437 0.09925 0.68721 0.0
O81 O 0.80188 0.1099 0.73327 0.0
O82 O 0.88474 0.15691 0.68741 0.0
O83 O 0.86555 0.1878 0.7348 0.0
O84 O 0.76939 0.07941 0.71308 0.0
O85 O 0.81662 0.27628 0.70487 0.0
O86 O 0.76362 0.16603 0.67453 0.0
O87 O 0.72319 0.17467 0.72603 0.0
Sc88 Sc 0.22007 0.35118 0.94805 0.0
Sc89 Sc 0.20817 0.27771 0.97896 0.0
Sc90 Sc 0.13309 0.26868 0.94832 0.0
O91 O 0.18704 0.29926 0.95845 0.0
C92 C 0.11539 0.37476 0.94285 0.0
C93 C 0.22467 0.38312 0.98241 0.0
C94 C 0.10152 0.27104 0.98268 0.0
C95 C 0.30116 0.29299 0.96093 0.0
C96 C 0.19597 0.28741 0.92012 0.0
C97 C 0.18687 0.18474 0.9618 0.0
O98 O 0.15673 0.38679 0.94434 0.0
O99 O 0.21389 0.3452 0.98814 0.0
O100 O 0.09444 0.26841 0.96865 0.0
O101 O 0.28571 0.31992 0.95102 0.0
O102 O 0.1647 0.26536 0.92662 0.0
O103 O 0.20604 0.20838 0.9719 0.0
O104 O 0.21743 0.31953 0.92639 0.0
O105 O 0.27755 0.27743 0.97171 0.0
O106 O 0.15864 0.20085 0.95241 0.0
O107 O 0.22912 0.38933 0.96837 0.0
O108 O 0.1025 0.33353 0.94352 0.0
O109 O 0.14086 0.27434 0.98836 0.0
Sc110 Sc 0.26877 0.85361 0.03488 0.0
Sc111 Sc 0.27404 0.77826 0.00409 0.0
Sc112 Sc 0.35029 0.76596 0.0342 0.0
O113 O 0.2978 0.79942 0.02437 0.0
C114 C 0.37545 0.87053 0.03918 0.0
C115 C 0.26523 0.88513 0.00055 0.0
C116 C 0.37886 0.76177 -0.00054 0.0
C117 C 0.18348 0.79885 0.02267 0.0
C118 C 0.2902 0.79066 0.06293 0.0
C119 C 0.29162 0.68477 0.02159 0.0
O120 O 0.33438 0.88402 0.03881 0.0
O121 O 0.26796 0.84569 -0.00514 0.0
O122 O 0.38603 0.75682 0.01342 0.0
O123 O 0.20058 0.82772 0.03169 0.0
O124 O 0.32103 0.76845 0.05624 0.0
O125 O 0.27547 0.70841 0.01093 0.0
O126 O 0.26812 0.82236 0.05668 0.0
O127 O 0.20583 0.77947 0.01228 0.0
O128 O 0.31859 0.70054 0.03144 0.0
O129 O 0.2655 0.89243 0.0146 0.0
O130 O 0.38671 0.82897 0.03766 0.0
O131 O 0.34071 0.7734 -0.00595 0.0
Sc132 Sc 0.85276 0.72287 0.95143 0.0
Sc133 Sc 0.77602 0.71463 0.98181 0.0
Sc134 Sc 0.7685 0.63825 0.95137 0.0
O135 O 0.79917 0.69182 0.96158 0.0
C136 C 0.78964 0.70127 0.92327 0.0
C137 C 0.79658 0.80659 0.96391 0.0
C138 C 0.68415 0.69416 0.9642 0.0
C139 C 0.88223 0.72454 0.98608 0.0
C140 C 0.87421 0.6183 0.94574 0.0
C141 C 0.76661 0.60752 0.98572 0.0
O142 O 0.82278 0.72166 0.92938 0.0
O143 O 0.77872 0.78392 0.97452 0.0
O144 O 0.70083 0.66442 0.9554 0.0
O145 O 0.88975 0.72753 0.97207 0.0
O146 O 0.8328 0.60596 0.94624 0.0
O147 O 0.76879 0.64727 0.99127 0.0
O148 O 0.88664 0.65924 0.94764 0.0
O149 O 0.84291 0.71877 0.99162 0.0
O150 O 0.76717 0.59958 0.9717 0.0
O151 O 0.82408 0.78962 0.95444 0.0
O152 O 0.76627 0.6713 0.92996 0.0
O153 O 0.70729 0.71459 0.97414 0.0
Sc154 Sc 0.63433 0.21863 0.03364 0.0
Sc155 Sc 0.70874 0.21473 0.00284 0.0
Sc156 Sc 0.72282 0.13853 0.03285 0.0
O157 O 0.68845 0.19053 0.02307 0.0
C158 C 0.69786 0.199 0.06139 0.0
C159 C 0.68598 0.30534 0.02081 0.0
C160 C 0.80191 0.19988 0.02087 0.0
C161 C 0.60126 0.21922 -0.00039 0.0
C162 C 0.62012 0.1111 0.03818 0.0
C163 C 0.72849 0.11136 -0.00201 0.0
O164 O 0.66918 0.22357 0.05461 0.0
O165 O 0.70766 0.28291 0.01098 0.0
O166 O 0.78655 0.17372 0.03103 0.0
O167 O 0.59406 0.21716 0.01367 0.0
O168 O 0.66092 0.10005 0.03515 0.0
O169 O 0.71326 0.14838 -0.00724 0.0
O170 O 0.60688 0.15227 0.03904 0.0
O171 O 0.6408 0.22021 -0.00608 0.0
O172 O 0.73566 0.10475 0.01188 0.0
O173 O 0.65618 0.28788 0.02939 0.0
O174 O 0.71679 0.16494 0.05532 0.0
O175 O 0.77861 0.21355 0.00972 0.0
Sc176 Sc 0.63739 0.71208 0.78922 0.0
Sc177 Sc 0.69856 0.68961 0.75591 0.0
Sc178 Sc 0.71744 0.62363 0.78801 0.0
O179 O 0.68415 0.67504 0.77771 0.0
C180 C 0.7095 0.69384 0.8151 0.0
C181 C 0.69668 0.78595 0.77197 0.0
C182 C 0.79653 0.66518 0.76892 0.0
C183 C 0.59308 0.71241 0.75663 0.0
C184 C 0.61457 0.60966 0.79836 0.0
C185 C 0.69866 0.58378 0.75487 0.0
O186 O 0.67709 0.7161 0.80936 0.0
O187 O 0.71085 0.75858 0.76196 0.0
O188 O 0.78328 0.64848 0.78131 0.0
O189 O 0.59067 0.71393 0.77085 0.0
O190 O 0.65437 0.59505 0.7956 0.0
O191 O 0.68883 0.62105 0.74852 0.0
O192 O 0.60332 0.65124 0.79692 0.0
O193 O 0.62977 0.70474 0.74965 0.0
O194 O 0.71181 0.58082 0.76846 0.0
O195 O 0.66817 0.77533 0.78216 0.0
O196 O 0.72713 0.6596 0.80873 0.0
O197 O 0.76956 0.67748 0.75861 0.0
Sc198 Sc 0.71014 0.35274 0.19516 0.0
Sc199 Sc 0.69038 0.28947 0.22819 0.0
Sc200 Sc 0.62725 0.26696 0.19583 0.0
O201 O 0.67585 0.30342 0.20639 0.0
C202 C 0.60641 0.36882 0.18588 0.0
C203 C 0.7054 0.39649 0.2278 0.0
C204 C 0.58533 0.28044 0.22892 0.0
C205 C 0.78701 0.29814 0.21264 0.0
C206 C 0.69765 0.28039 0.16905 0.0
C207 C 0.67354 0.19056 0.21459 0.0
O208 O 0.64747 0.38213 0.18702 0.0
O209 O 0.70091 0.35902 0.23463 0.0
O210 O 0.58438 0.26697 0.21534 0.0
O211 O 0.77504 0.32667 0.20263 0.0
O212 O 0.66359 0.26161 0.1751 0.0
O213 O 0.68252 0.21789 0.2252 0.0
O214 O 0.7186 0.31331 0.17504 0.0
O215 O 0.76017 0.28146 0.22236 0.0
O216 O 0.65748 0.20306 0.20204 0.0
O217 O 0.70696 0.39946 0.2136 0.0
O218 O 0.59383 0.32842 0.18885 0.0
O219 O 0.62106 0.29475 0.23533 0.0
Sc220 Sc 0.27025 0.35311 0.78571 0.0
Sc221 Sc 0.29669 0.2875 0.75385 0.0
Sc222 Sc 0.35681 0.27136 0.78744 0.0
O223 O 0.3081 0.30434 0.77566 0.0
C224 C 0.3712 0.37472 0.79685 0.0
C225 C 0.2777 0.39393 0.75284 0.0
C226 C 0.40227 0.28331 0.75469 0.0
C227 C 0.1978 0.29394 0.76774 0.0
C228 C 0.28167 0.2839 0.81279 0.0
C229 C 0.31625 0.19081 0.76881 0.0
O230 O 0.33002 0.38595 0.7946 0.0
O231 O 0.28376 0.35595 0.74641 0.0
O232 O 0.40231 0.27167 0.76847 0.0
O233 O 0.20768 0.3241 0.77747 0.0
O234 O 0.31801 0.26648 0.8078 0.0
O235 O 0.30717 0.21664 0.75782 0.0
O236 O 0.26012 0.31453 0.80581 0.0
O237 O 0.22647 0.27688 0.75868 0.0
O238 O 0.33044 0.2054 0.7814 0.0
O239 O 0.27487 0.39826 0.76698 0.0
O240 O 0.3863 0.33478 0.79456 0.0
O241 O 0.36664 0.29502 0.74767 0.0
Sc242 Sc 0.35617 0.71688 0.19834 0.0
Sc243 Sc 0.29027 0.6968 0.23035 0.0
Sc244 Sc 0.26889 0.63545 0.19694 0.0
O245 O 0.3052 0.68267 0.20855 0.0
C246 C 0.2872 0.70752 0.17102 0.0
C247 C 0.31223 0.79537 0.21723 0.0
C248 C 0.19403 0.69364 0.21414 0.0
C249 C 0.3959 0.70016 0.23159 0.0
C250 C 0.37196 0.61402 0.18811 0.0
C251 C 0.26919 0.59097 0.22959 0.0
O252 O 0.32089 0.72556 0.17753 0.0
O253 O 0.30049 0.76817 0.22756 0.0
O254 O 0.20504 0.66583 0.20377 0.0
O255 O 0.39848 0.71298 0.21797 0.0
O256 O 0.33046 0.60228 0.18941 0.0
O257 O 0.27687 0.6277 0.23655 0.0
O258 O 0.3861 0.65402 0.19094 0.0
O259 O 0.35892 0.68904 0.23791 0.0
O260 O 0.26703 0.58854 0.21537 0.0
O261 O 0.32962 0.78234 0.2049 0.0
O262 O 0.26501 0.67486 0.17667 0.0
O263 O 0.22117 0.70725 0.22429 0.0
Sc264 Sc 0.72345 0.85424 0.44936 0.0
Sc265 Sc 0.71484 0.78252 0.48083 0.0
Sc266 Sc 0.63844 0.77001 0.4508 0.0
O267 O 0.69212 0.80252 0.46037 0.0
C268 C 0.61681 0.87486 0.44551 0.0
C269 C 0.73096 0.88878 0.48331 0.0
C270 C 0.61035 0.76834 0.48565 0.0
C271 C 0.80636 0.79739 0.46206 0.0
C272 C 0.6979 0.79077 0.42175 0.0
C273 C 0.69528 0.68854 0.46365 0.0
O274 O 0.65845 0.88703 0.44532 0.0
O275 O 0.72328 0.85061 0.48943 0.0
O276 O 0.60342 0.76156 0.47176 0.0
O277 O 0.79035 0.82542 0.45257 0.0
O278 O 0.66514 0.77124 0.42831 0.0
O279 O 0.71087 0.71218 0.47445 0.0
O280 O 0.72221 0.82054 0.42809 0.0
O281 O 0.78327 0.78054 0.47275 0.0
O282 O 0.66946 0.70445 0.4535 0.0
O283 O 0.73152 0.8946 0.46919 0.0
O284 O 0.6042 0.83394 0.44765 0.0
O285 O 0.64829 0.78102 0.49091 0.0
Sc286 Sc 0.76956 0.35638 0.53484 0.0
Sc287 Sc 0.78373 0.28192 0.50429 0.0
Sc288 Sc 0.85794 0.27616 0.53504 0.0
O289 O 0.80389 0.30492 0.52468 0.0
C290 C 0.87237 0.38313 0.54061 0.0
C291 C 0.76478 0.38581 0.50021 0.0
C292 C 0.89129 0.27784 0.50106 0.0
C293 C 0.69033 0.2961 0.52225 0.0
C294 C 0.79349 0.29326 0.56282 0.0
C295 C 0.80668 0.1902 0.52139 0.0
O296 O 0.83162 0.3945 0.53764 0.0
O297 O 0.77952 0.34886 0.49474 0.0
O298 O 0.89847 0.2794 0.51512 0.0
O299 O 0.70553 0.32179 0.53257 0.0
O300 O 0.82259 0.26945 0.5559 0.0
O301 O 0.78457 0.21315 0.51183 0.0
O302 O 0.77473 0.32783 0.55704 0.0
O303 O 0.71386 0.28281 0.51109 0.0
O304 O 0.83655 0.20734 0.53001 0.0
O305 O 0.75759 0.39179 0.51414 0.0
O306 O 0.8854 0.34189 0.54113 0.0
O307 O 0.85176 0.27681 0.49538 0.0
Sc308 Sc 0.35851 0.2255 0.44869 0.0
Sc309 Sc 0.28443 0.21812 0.47972 0.0
Sc310 Sc 0.27116 0.14344 0.44917 0.0
O311 O 0.3048 0.19559 0.45921 0.0
C312 C 0.29452 0.20568 0.42085 0.0
C313 C 0.30583 0.31029 0.46208 0.0
C314 C 0.19091 0.20304 0.46203 0.0
C315 C 0.39123 0.22445 0.48296 0.0
C316 C 0.37558 0.11899 0.4437 0.0
C317 C 0.26643 0.11314 0.48365 0.0
O318 O 0.32611 0.22802 0.42707 0.0
O319 O 0.28708 0.28719 0.47239 0.0
O320 O 0.20587 0.17548 0.45219 0.0
O321 O 0.39786 0.22668 0.46888 0.0
O322 O 0.33424 0.10721 0.44545 0.0
O323 O 0.2779 0.15108 0.48925 0.0
O324 O 0.38862 0.16022 0.44406 0.0
O325 O 0.35207 0.22117 0.4888 0.0
O326 O 0.26199 0.10644 0.46964 0.0
O327 O 0.33338 0.29361 0.45256 0.0
O328 O 0.27341 0.17386 0.42739 0.0
O329 O 0.21492 0.21883 0.47268 0.0
Sc330 Sc 0.13915 0.72722 0.53399 0.0
Sc331 Sc 0.21481 0.71714 0.50344 0.0
Sc332 Sc 0.22338 0.64256 0.53437 0.0
O333 O 0.19238 0.69554 0.5239 0.0
C334 C 0.20262 0.70789 0.56213 0.0
C335 C 0.19426 0.81045 0.52038 0.0
C336 C 0.30687 0.69878 0.52144 0.0
C337 C 0.10783 0.72519 0.49961 0.0
C338 C 0.11844 0.62208 0.54023 0.0
C339 C 0.22586 0.61053 0.5 0.0
O340 O 0.1722 0.73055 0.55541 0.0
O341 O 0.2136 0.78667 0.51035 0.0
O342 O 0.29032 0.67097 0.53091 0.0
O343 O 0.10047 0.72746 0.51366 0.0
O344 O 0.15936 0.60918 0.53856 0.0
O345 O 0.22063 0.64958 0.49422 0.0
O346 O 0.10654 0.66354 0.53938 0.0
O347 O 0.14733 0.72161 0.49397 0.0
O348 O 0.2277 0.60374 0.51406 0.0
O349 O 0.16559 0.79439 0.52963 0.0
O350 O 0.22297 0.67452 0.55613 0.0
O351 O 0.28388 0.71645 0.51089 0.0
H352 H 0.32056 0.8402 0.24341 0.0
H353 H 0.28053 0.85859 0.19714 0.0
H354 H 0.28953 0.91409 0.24973 0.0
H355 H 0.24835 0.93326 0.20359 0.0
H356 H 0.23873 0.08406 0.22575 0.0
H357 H 0.2674 0.01356 0.21444 0.0
H358 H 0.20781 0.93694 0.2508 0.0
H359 H 0.18035 0.00683 0.26218 0.0
C360 C 0.30565 0.8605 0.23454 0.0
C361 C 0.30243 0.84366 0.21985 0.0
C362 C 0.28753 0.90259 0.23818 0.0
C363 C 0.26528 0.92866 0.22724 0.0
C364 C 0.26499 0.91352 0.21224 0.0
C365 C 0.28357 0.8711 0.20855 0.0
C366 C 0.2307 0.05193 0.23103 0.0
C367 C 0.20801 0.0507 0.24493 0.0
C368 C 0.24721 0.01173 0.2246 0.0
C369 C 0.24089 0.97011 0.232 0.0
C370 C 0.21427 0.96877 0.2451 0.0
C371 C 0.19829 0.00867 0.25156 0.0
H372 H 0.00417 0.793 0.72189 0.0
H373 H 0.08368 0.74182 0.75896 0.0
H374 H 0.93554 0.76415 0.73366 0.0
H375 H 0.01444 0.71204 0.77069 0.0
H376 H 0.85948 0.70001 0.78843 0.0
H377 H 0.93383 0.73158 0.78136 0.0
H378 H 0.9152 0.6815 0.73614 0.0
H379 H 0.8415 0.65106 0.74307 0.0
C380 C 0.00682 0.77626 0.7327 0.0
C381 C 0.04921 0.76896 0.7394 0.0
C382 C 0.96763 0.75952 0.73939 0.0
C383 C 0.97004 0.73473 0.75284 0.0
C384 C 0.01185 0.73077 0.76026 0.0
C385 C 0.05132 0.74792 0.75357 0.0
C386 C 0.87213 0.69477 0.77713 0.0
C387 C 0.84489 0.67367 0.76621 0.0
C388 C 0.91434 0.713 0.77307 0.0
C389 C 0.9294 0.71008 0.75811 0.0
C390 C 0.9037 0.68541 0.74764 0.0
C391 C 0.86179 0.66764 0.75162 0.0
H392 H 0.79458 0.98417 0.2645 0.0
H393 H 0.75929 0.90685 0.22492 0.0
H394 H 0.76867 0.05326 0.25229 0.0
H395 H 0.73216 0.97637 0.21275 0.0
H396 H 0.71748 0.13099 0.19594 0.0
H397 H 0.7509 0.05795 0.20356 0.0
H398 H 0.68727 0.07122 0.24711 0.0
H399 H 0.65513 0.14368 0.23967 0.0
C400 C 0.78209 0.98218 0.25307 0.0
C401 C 0.77819 0.94026 0.24573 0.0
C402 C 0.76701 0.02159 0.24611 0.0
C403 C 0.74715 0.01973 0.23178 0.0
C404 C 0.74706 0.97852 0.22385 0.0
C405 C 0.76267 0.9389 0.23079 0.0
C406 C 0.70985 0.1174 0.20697 0.0
C407 C 0.68425 0.14274 0.21732 0.0
C408 C 0.72912 0.07599 0.21135 0.0
C409 C 0.72273 0.05987 0.22606 0.0
C410 C 0.69394 0.08365 0.23587 0.0
C411 C 0.67515 0.12479 0.23157 0.0
H412 H 0.16924 0.20956 0.76018 0.0
H413 H 0.12062 0.34293 0.77242 0.0
H414 H 0.09188 0.1862 0.75415 0.0
H415 H 0.04314 0.31958 0.76607 0.0
H416 H 0.95425 0.27687 0.72336 0.0
H417 H 0.02226 0.29732 0.73724 0.0
H418 H 0.00513 0.18003 0.76572 0.0
H419 H 0.93555 0.15982 0.75196 0.0
C420 C 0.14182 0.23356 0.76183 0.0
C421 C 0.15071 0.27824 0.76651 0.0
C422 C 0.09768 0.22002 0.75854 0.0
C423 C 0.062 0.25122 0.75965 0.0
C424 C 0.0704 0.29506 0.7652 0.0
C425 C 0.11452 0.30836 0.76879 0.0
C426 C 0.96484 0.25543 0.7326 0.0
C427 C 0.94008 0.21647 0.73651 0.0
C428 C 0.00333 0.26752 0.74065 0.0
C429 C 0.01827 0.24048 0.7526 0.0
C430 C 0.9937 0.20149 0.7566 0.0
C431 C 0.95429 0.1899 0.74873 0.0
H432 H 0.29599 0.43949 0.97972 0.0
H433 H 0.17861 0.41247 0.00735 0.0
H434 H 0.31255 0.50711 -0.00546 0.0
H435 H 0.19449 0.48169 0.02201 0.0
H436 H 0.20995 0.64752 0.01513 0.0
H437 H 0.19388 0.56749 0.01033 0.0
H438 H 0.33083 0.53298 0.02303 0.0
H439 H 0.3467 0.61324 0.02823 0.0
C440 C 0.27401 0.44794 0.98909 0.0
C441 C 0.23581 0.42132 -0.00764 0.0
C442 C 0.28377 0.48624 -0.00235 0.0
C443 C 0.25495 0.49922 0.00944 0.0
C444 C 0.21733 0.47195 0.01303 0.0
C445 C 0.20822 0.43268 0.00466 0.0
C446 C 0.23615 0.62262 0.01734 0.0
C447 C 0.27968 0.63633 0.02187 0.0
C448 C 0.22683 0.5769 0.01473 0.0
C449 C 0.26119 0.54436 0.01629 0.0
C450 C 0.30383 0.55764 0.02182 0.0
C451 C 0.31287 0.60337 0.02478 0.0
H452 H 0.41311 0.81047 0.97575 0.0
H453 H 0.42875 0.6857 0.00054 0.0
H454 H 0.48339 0.79366 0.96181 0.0
H455 H 0.49765 0.66846 0.98657 0.0
H456 H 0.61374 0.63763 0.95693 0.0
H457 H 0.53271 0.65312 0.96054 0.0
H458 H 0.56425 0.79097 0.97331 0.0
H459 H 0.64475 0.77549 0.96987 0.0
C460 C 0.43094 0.779 0.97789 0.0
C461 C 0.41619 0.74957 0.98927 0.0
C462 C 0.47094 0.76938 0.96997 0.0
C463 C 0.49578 0.72969 0.9731 0.0
C464 C 0.47895 0.69895 0.98377 0.0
C465 C 0.43982 0.70902 0.99187 0.0
C466 C 0.60314 0.67151 0.9601 0.0
C467 C 0.6354 0.70513 0.96339 0.0
C468 C 0.55691 0.68036 0.96217 0.0
C469 C 0.54234 0.72318 0.96726 0.0
C470 C 0.57444 0.75782 0.96926 0.0
C471 C 0.62054 0.74878 0.96745 0.0
H472 H 0.62966 0.37935 0.02062 0.0
H473 H 0.7699 0.33924 0.02407 0.0
H474 H 0.65342 0.45834 0.01655 0.0
H475 H 0.79367 0.41765 0.02041 0.0
H476 H 0.80498 0.52518 0.98224 0.0
H477 H 0.78701 0.45588 -0.00429 0.0
H478 H 0.69642 0.53039 0.02489 0.0
H479 H 0.71502 0.60067 0.01128 0.0
C480 C 0.6654 0.38781 0.02107 0.0
C481 C 0.69811 0.35349 0.02236 0.0
C482 C 0.67903 0.4329 0.01879 0.0
C483 C 0.72545 0.4439 0.01789 0.0
C484 C 0.75774 0.41001 0.02077 0.0
C485 C 0.74418 0.36521 0.02286 0.0
C486 C 0.78203 0.52699 0.99175 0.0
C487 C 0.76135 0.5681 -0.00427 0.0
C488 C 0.77188 0.48735 -0.00047 0.0
C489 C 0.74034 0.48774 0.01139 0.0
C490 C 0.72082 0.52922 0.01579 0.0
C491 C 0.73169 0.56933 0.0081 0.0
H492 H 0.37724 0.34498 0.95727 0.0
H493 H 0.33128 0.20722 0.96322 0.0
H494 H 0.45524 0.32087 0.96259 0.0
H495 H 0.4088 0.18265 0.96786 0.0
H496 H 0.51744 0.18609 0.00519 0.0
H497 H 0.44861 0.19963 0.9911 0.0
H498 H 0.52488 0.27336 0.95756 0.0
H499 H 0.59469 0.2599 0.97194 0.0
C500 C 0.3842 0.30933 0.95913 0.0
C501 C 0.34855 0.27796 0.96014 0.0
C502 C 0.42874 0.29545 0.96211 0.0
C503 C 0.43788 0.25001 0.96595 0.0
C504 C 0.40261 0.21804 0.96528 0.0
C505 C 0.35831 0.23201 0.96259 0.0
C506 C 0.51976 0.20462 -0.0053 0.0
C507 C 0.56131 0.22226 0.98972 0.0
C508 C 0.48033 0.21202 0.98652 0.0
C509 C 0.48134 0.23746 0.97317 0.0
C510 C 0.52318 0.25373 0.96783 0.0
C511 C 0.56303 0.24582 0.97599 0.0
H512 H 0.66286 0.50274 0.76259 0.0
H513 H 0.73713 0.57103 0.72745 0.0
H514 H 0.67944 0.42973 0.75094 0.0
H515 H 0.7563 0.49773 0.71619 0.0
H516 H 0.77176 0.35188 0.69769 0.0
H517 H 0.73789 0.42535 0.70435 0.0
H518 H 0.75016 0.39136 0.75145 0.0
H519 H 0.78217 0.31862 0.74486 0.0
C520 C 0.68201 0.50196 0.75218 0.0
C521 C 0.69916 0.54203 0.74594 0.0
C522 C 0.69191 0.46029 0.74558 0.0
C523 C 0.72045 0.45791 0.73292 0.0
C524 C 0.7343 0.4984 0.72593 0.0
C525 C 0.72339 0.54032 0.73237 0.0
C526 C 0.76724 0.36047 0.70944 0.0
C527 C 0.77917 0.32947 0.72076 0.0
C528 C 0.74776 0.40233 0.71325 0.0
C529 C 0.74027 0.41371 0.72842 0.0
C530 C 0.75377 0.38309 0.73964 0.0
C531 C 0.77264 0.34149 0.73587 0.0
H532 H 0.50046 0.28709 0.21797 0.0
H533 H 0.57489 0.26385 0.25907 0.0
H534 H 0.43016 0.26966 0.23076 0.0
H535 H 0.50333 0.24669 0.27214 0.0
H536 H 0.36782 0.15313 0.27673 0.0
H537 H 0.44345 0.18243 0.27011 0.0
H538 H 0.38141 0.3011 0.25043 0.0
H539 H 0.30723 0.27098 0.25603 0.0
C540 C 0.50161 0.27897 0.22985 0.0
C541 C 0.54299 0.27674 0.23754 0.0
C542 C 0.46131 0.26922 0.23721 0.0
C543 C 0.46134 0.25699 0.25247 0.0
C544 C 0.50256 0.25593 0.26036 0.0
C545 C 0.54323 0.26617 0.25295 0.0
C546 C 0.37068 0.18573 0.2712 0.0
C547 C 0.3317 0.2094 0.26665 0.0
C548 C 0.41379 0.20266 0.26753 0.0
C549 C 0.41803 0.24366 0.25954 0.0
C550 C 0.37908 0.26899 0.25631 0.0
C551 C 0.33652 0.25174 0.25959 0.0
H552 H 0.13463 0.61315 0.71199 0.0
H553 H 0.27064 0.66498 0.71652 0.0
H554 H 0.16227 0.53652 0.7181 0.0
H555 H 0.29833 0.58927 0.72245 0.0
H556 H 0.29937 0.48033 0.76028 0.0
H557 H 0.27934 0.54932 0.74688 0.0
H558 H 0.2185 0.46964 0.71146 0.0
H559 H 0.23909 0.39984 0.72493 0.0
C560 C 0.17054 0.60782 0.71384 0.0
C561 C 0.20055 0.64475 0.71417 0.0
C562 C 0.18637 0.56417 0.71729 0.0
C563 C 0.23229 0.55734 0.72099 0.0
C564 C 0.26267 0.59379 0.71991 0.0
C565 C 0.24688 0.63705 0.71658 0.0
C566 C 0.28238 0.47745 0.74952 0.0
C567 C 0.27078 0.43484 0.74363 0.0
C568 C 0.27109 0.5169 0.74181 0.0
C569 C 0.24745 0.5147 0.72813 0.0
C570 C 0.23668 0.47211 0.722 0.0
C571 C 0.24875 0.43235 0.72963 0.0
H572 H 0.48085 0.67854 0.22284 0.0
H573 H 0.40422 0.73167 0.2603 0.0
H574 H 0.55092 0.70435 0.23452 0.0
H575 H 0.47472 0.75884 0.27189 0.0
H576 H 0.6295 0.77497 0.28846 0.0
H577 H 0.5559 0.7404 0.28207 0.0
H578 H 0.57111 0.78705 0.23633 0.0
H579 H 0.64395 0.82048 0.24259 0.0
C580 C 0.47924 0.69472 0.23377 0.0
C581 C 0.43738 0.70375 0.24061 0.0
C582 C 0.51917 0.70977 0.2404 0.0
C583 C 0.51787 0.7348 0.25385 0.0
C584 C 0.47646 0.73986 0.26147 0.0
C585 C 0.43628 0.72422 0.25488 0.0
C586 C 0.61629 0.77866 0.27717 0.0
C587 C 0.64229 0.79982 0.26594 0.0
C588 C 0.57455 0.75868 0.27351 0.0
C589 C 0.55876 0.75988 0.25861 0.0
C590 C 0.58328 0.78431 0.24778 0.0
C591 C 0.62468 0.80385 0.25138 0.0
H592 H 0.79698 0.94898 0.47714 0.0
H593 H 0.69671 0.91516 0.51072 0.0
H594 H 0.81877 0.01582 0.49149 0.0
H595 H 0.7179 0.98363 0.52503 0.0
H596 H 0.72446 0.14987 0.52037 0.0
H597 H 0.70864 0.06985 0.5156 0.0
H598 H 0.85184 0.04027 0.51805 0.0
H599 H 0.86763 0.12065 0.52319 0.0
C600 C 0.77974 0.95586 0.48766 0.0
C601 C 0.74472 0.92745 0.49274 0.0
C602 C 0.79267 0.99372 0.49597 0.0
C603 C 0.77027 0.00453 0.5094 0.0
C604 C 0.73586 0.97563 0.51474 0.0
C605 C 0.72365 0.93679 0.50656 0.0
C606 C 0.75238 0.12598 0.52036 0.0
C607 C 0.79727 0.14122 0.52196 0.0
C608 C 0.7433 0.08021 0.51776 0.0
C609 C 0.77905 0.04912 0.51641 0.0
C610 C 0.82375 0.06377 0.51909 0.0
C611 C 0.83277 0.10956 0.52203 0.0
H612 H 0.11433 0.15186 0.45818 0.0
H613 H 0.16151 0.28899 0.46472 0.0
H614 H 0.03654 0.17653 0.4636 0.0
H615 H 0.08422 0.31413 0.46944 0.0
H616 H 0.97526 0.31047 0.50675 0.0
H617 H 0.04406 0.29692 0.49259 0.0
H618 H 0.96743 0.22477 0.45875 0.0
H619 H 0.89767 0.23823 0.47319 0.0
C620 C 0.10771 0.18751 0.46019 0.0
C621 C 0.14364 0.21851 0.46133 0.0
C622 C 0.06328 0.20171 0.46323 0.0
C623 C 0.05454 0.24712 0.46725 0.0
C624 C 0.0901 0.27877 0.46671 0.0
C625 C 0.13428 0.26447 0.46398 0.0
C626 C 0.97286 0.29232 0.49617 0.0
C627 C 0.93122 0.27508 0.49113 0.0
C628 C 0.01227 0.2849 0.48796 0.0
C629 C 0.01114 0.25986 0.47451 0.0
C630 C 0.96922 0.24407 0.4691 0.0
C631 C 0.9294 0.25199 0.4773 0.0
H632 H 0.13799 0.8817 0.52674 0.0
H633 H 0.27614 0.84853 0.51488 0.0
H634 H 0.15442 0.96238 0.52257 0.0
H635 H 0.29263 0.92875 0.51099 0.0
H636 H 0.31209 0.08085 0.50827 0.0
H637 H 0.29384 0.01148 0.5225 0.0
H638 H 0.17308 0.99348 0.4957 0.0
H639 H 0.19182 0.06135 0.4814 0.0
C640 C 0.17212 0.89182 0.5237 0.0
C641 C 0.20561 0.85908 0.52086 0.0
C642 C 0.18151 0.93781 0.52134 0.0
C643 C 0.22474 0.95157 0.51644 0.0
C644 C 0.25918 0.91908 0.5149 0.0
C645 C 0.24959 0.87319 0.51696 0.0
C646 C 0.28132 0.06232 0.50569 0.0
C647 C 0.25363 0.07569 0.49367 0.0
C648 C 0.27086 0.02292 0.5138 0.0
C649 C 0.23194 -0.00254 0.51022 0.0
C650 C 0.2029 0.0128 0.49883 0.0
C651 C 0.21389 0.05127 0.49054 0.0
H652 H 0.0246 0.69144 0.50527 0.0
H653 H 0.10085 0.76546 0.47186 0.0
H654 H 0.95534 0.70457 0.49133 0.0
H655 H 0.03053 0.77884 0.45765 0.0
H656 H 0.83725 0.71162 0.46364 0.0
H657 H 0.91517 0.68753 0.46797 0.0
H658 H 0.9604 0.82629 0.46325 0.0
H659 H 0.88202 0.85009 0.45836 0.0
C660 C 0.02657 0.70989 0.49476 0.0
C661 C 0.06794 0.72767 0.48968 0.0
C662 C 0.98691 0.71711 0.48668 0.0
C663 C 0.98747 0.74264 0.47335 0.0
C664 C 0.02916 0.75909 0.4679 0.0
C665 C 0.0693 0.75122 0.47595 0.0
C666 C 0.86409 0.7367 0.46308 0.0
C667 C 0.85388 0.78272 0.46093 0.0
C668 C 0.90862 0.72297 0.46557 0.0
C669 C 0.94369 0.75517 0.46629 0.0
C670 C 0.93406 0.8007 0.46272 0.0
C671 C 0.8893 0.8144 0.45998 0.0
H672 H 0.28424 0.1853 0.32632 0.0
H673 H 0.15521 0.24885 0.336 0.0
H674 H 0.30811 0.19823 0.35216 0.0
H675 H 0.17947 0.26189 0.36187 0.0
H676 H 0.21279 0.19051 0.40785 0.0
H677 H 0.1919 0.2018 0.38172 0.0
H678 H 0.32473 0.25714 0.37251 0.0
H679 H 0.34589 0.24589 0.3989 0.0
C680 C 0.26124 0.20265 0.33389 0.0
C681 C 0.21749 0.21527 0.3292 0.0
C682 C 0.27515 0.21048 0.34864 0.0
C683 C 0.24548 0.23077 0.35898 0.0
C684 C 0.20279 0.24585 0.35409 0.0
C685 C 0.18898 0.23838 0.3393 0.0
C686 C 0.23745 0.20552 0.40031 0.0
C687 C 0.28118 0.21677 0.40534 0.0
C688 C 0.22528 0.21247 0.38539 0.0
C689 C 0.25671 0.23039 0.37514 0.0
C690 C 0.29998 0.24318 0.38024 0.0
C691 C 0.312 0.23681 0.39528 0.0
H692 H 0.18559 0.70491 0.65691 0.0
H693 H 0.24707 0.83617 0.64936 0.0
H694 H 0.19641 0.68593 0.6305 0.0
H695 H 0.25775 0.817 0.62285 0.0
H696 H 0.1855 0.78813 0.5763 0.0
H697 H 0.19679 0.80608 0.60276 0.0
H698 H 0.25566 0.67369 0.60992 0.0
H699 H 0.2445 0.6555 0.58336 0.0
C700 C 0.20206 0.72942 0.64966 0.0
C701 C 0.21496 0.77224 0.65515 0.0
C702 C 0.20858 0.71838 0.63457 0.0
C703 C 0.22768 0.75014 0.62467 0.0
C704 C 0.24268 0.79209 0.63028 0.0
C705 C 0.23671 0.80293 0.64544 0.0
C706 C 0.20132 0.76299 0.58347 0.0
C707 C 0.21361 0.7202 0.57779 0.0
C708 C 0.20819 0.77347 0.59857 0.0
C709 C 0.22705 0.74122 0.60834 0.0
C710 C 0.24089 0.69903 0.60259 0.0
C711 C 0.23456 0.68872 0.58741 0.0
H712 H 0.69717 0.80504 0.32698 0.0
H713 H 0.82298 0.73386 0.33515 0.0
H714 H 0.67584 0.79499 0.35322 0.0
H715 H 0.80139 0.72386 0.36146 0.0
H716 H 0.77848 0.80129 0.40735 0.0
H717 H 0.79524 0.78686 0.38101 0.0
H718 H 0.65856 0.73825 0.37424 0.0
H719 H 0.64157 0.75254 0.40079 0.0
C720 C 0.71989 0.78652 0.33432 0.0
C721 C 0.76211 0.77094 0.32909 0.0
C722 C 0.70744 0.78042 0.34929 0.0
C723 C 0.73717 0.759 0.35934 0.0
C724 C 0.77808 0.74081 0.35392 0.0
C725 C 0.79033 0.74645 0.33887 0.0
C726 C 0.75206 0.78713 0.4003 0.0
C727 C 0.70854 0.77858 0.40607 0.0
C728 C 0.76186 0.77836 0.38526 0.0
C729 C 0.7282 0.76134 0.37564 0.0
C730 C 0.68503 0.75142 0.38147 0.0
C731 C 0.67537 0.75959 0.39662 0.0
H732 H 0.79105 0.2872 0.6578 0.0
H733 H 0.73945 0.15366 0.64706 0.0
H734 H 0.7828 0.3096 0.63164 0.0
H735 H 0.73093 0.17642 0.62082 0.0
H736 H 0.74718 0.34329 0.58378 0.0
H737 H 0.73036 0.32205 0.60974 0.0
H738 H 0.79422 0.19192 0.60252 0.0
H739 H 0.81083 0.21273 0.57668 0.0
C740 C 0.77705 0.26294 0.6499 0.0
C741 C 0.76673 0.2184 0.6544 0.0
C742 C 0.77195 0.27593 0.63496 0.0
C743 C 0.75672 0.24454 0.62422 0.0
C744 C 0.74324 0.20105 0.62889 0.0
C745 C 0.74795 0.18813 0.6439 0.0
C746 C 0.75719 0.30997 0.5877 0.0
C747 C 0.78089 0.27992 0.57825 0.0
C748 C 0.74751 0.29787 0.60253 0.0
C749 C 0.76088 0.25535 0.60808 0.0
C750 C 0.78294 0.22468 0.59847 0.0
C751 C 0.79297 0.23687 0.58372 0.0
H752 H 0.1431 0.24532 0.89901 0.0
H753 H 0.27625 0.303 0.90609 0.0
H754 H 0.16193 0.23215 0.87253 0.0
H755 H 0.29487 0.28966 0.87982 0.0
H756 H 0.19872 0.30071 0.82528 0.0
H757 H 0.17664 0.28992 0.85143 0.0
H758 H 0.30568 0.22649 0.86056 0.0
H759 H 0.32809 0.23725 0.8344 0.0
C760 C 0.17653 0.25453 0.89497 0.0
C761 C 0.20805 0.27566 0.90453 0.0
C762 C 0.18721 0.24704 0.87986 0.0
C763 C 0.22984 0.25978 0.87421 0.0
C764 C 0.26197 0.279 0.88395 0.0
C765 C 0.25111 0.28709 0.89894 0.0
C766 C 0.22211 0.28373 0.83279 0.0
C767 C 0.26549 0.27061 0.82785 0.0
C768 C 0.20926 0.27719 0.84771 0.0
C769 C 0.23968 0.25775 0.85797 0.0
C770 C 0.28184 0.24193 0.85285 0.0
C771 C 0.29457 0.24805 0.83788 0.0
H772 H 0.30603 0.71033 0.07697 0.0
H773 H 0.25161 0.8447 0.08446 0.0
H774 H 0.29455 0.69229 0.10341 0.0
H775 H 0.24048 0.82651 0.11107 0.0
H776 H 0.23975 0.6619 0.14939 0.0
H777 H 0.23086 0.68353 0.12305 0.0
H778 H 0.29979 0.81008 0.13185 0.0
H779 H 0.30896 0.7886 0.15814 0.0
C780 C 0.29132 0.7359 0.08425 0.0
C781 C 0.2801 0.77906 0.07869 0.0
C782 C 0.28433 0.72539 0.09934 0.0
C783 C 0.26654 0.75802 0.10921 0.0
C784 C 0.25428 0.80085 0.10363 0.0
C785 C 0.26059 0.81117 0.08844 0.0
C786 C 0.25219 0.69472 0.14577 0.0
C787 C 0.2756 0.72331 0.15577 0.0
C788 C 0.24722 0.70697 0.13071 0.0
C789 C 0.2649 0.74828 0.12547 0.0
C790 C 0.28562 0.77816 0.13565 0.0
C791 C 0.29117 0.76568 0.15066 0.0
H792 H 0.70821 0.6906 0.90941 0.0
H793 H 0.84615 0.73427 0.90149 0.0
H794 H 0.69149 0.69938 0.88277 0.0
H795 H 0.8293 0.74268 0.87468 0.0
H796 H 0.78825 0.66825 0.82886 0.0
H797 H 0.80942 0.68065 0.85504 0.0
H798 H 0.68786 0.75968 0.8619 0.0
H799 H 0.66652 0.74756 0.8357 0.0
C800 C 0.7348 0.70256 0.90199 0.0
C801 C 0.77857 0.71137 0.90748 0.0
C802 C 0.72511 0.70796 0.88678 0.0
C803 C 0.75917 0.72168 0.87674 0.0
C804 C 0.80257 0.73196 0.88225 0.0
C805 C 0.8121 0.72727 0.89755 0.0
C806 C 0.76637 0.68886 0.83588 0.0
C807 C 0.72541 0.70639 0.83028 0.0
C808 C 0.77871 0.69626 0.85082 0.0
C809 C 0.75009 0.72089 0.86044 0.0
C810 C 0.7103 0.74033 0.85468 0.0
C811 C 0.69821 0.73343 0.83969 0.0
H812 H 0.73567 0.14389 0.08271 0.0
H813 H 0.68573 0.28011 0.07545 0.0
H814 H 0.74826 0.16175 0.10924 0.0
H815 H 0.69834 0.29769 0.10184 0.0
H816 H 0.67826 0.19925 0.15588 0.0
H817 H 0.69002 0.17822 0.12971 0.0
H818 H 0.75944 0.30511 0.12187 0.0
H819 H 0.74766 0.32644 0.14814 0.0
C820 C 0.72798 0.17775 0.08672 0.0
C821 C 0.70913 0.21043 0.07708 0.0
C822 C 0.73519 0.1879 0.10187 0.0
C823 C 0.72433 0.23106 0.10751 0.0
C824 C 0.70753 0.26432 0.09771 0.0
C825 C 0.6998 0.25405 0.08266 0.0
C826 C 0.69672 0.22236 0.14865 0.0
C827 C 0.71135 0.26483 0.15397 0.0
C828 C 0.70383 0.2101 0.13371 0.0
C829 C 0.72533 0.24024 0.12381 0.0
C830 C 0.74246 0.28149 0.12932 0.0
C831 C 0.7358 0.29359 0.14433 0.0
H832 H 0.12352 0.3741 0.27265 0.0
H833 H 0.25881 0.32142 0.26712 0.0
H834 H 0.15059 0.4499 0.26513 0.0
H835 H 0.28581 0.39619 0.2595 0.0
H836 H 0.28239 0.50355 0.22089 0.0
H837 H 0.26103 0.43494 0.23444 0.0
H838 H 0.21136 0.51605 0.27138 0.0
H839 H 0.23343 0.58523 0.25788 0.0
C840 C 0.15919 0.37915 0.27025 0.0
C841 C 0.18919 0.34225 0.27014 0.0
C842 C 0.17465 0.42225 0.26596 0.0
C843 C 0.22007 0.4284 0.26152 0.0
C844 C 0.25052 0.39207 0.26264 0.0
C845 C 0.23516 0.34942 0.26694 0.0
C846 C 0.26737 0.50678 0.23196 0.0
C847 C 0.25968 0.54964 0.23835 0.0
C848 C 0.25531 0.46758 0.23973 0.0
C849 C 0.23469 0.47044 0.25394 0.0
C850 C 0.22721 0.51317 0.26043 0.0
C851 C 0.24011 0.55254 0.25276 0.0
H852 H 0.37492 0.84793 0.70891 0.0
H853 H 0.32075 0.71984 0.72408 0.0
H854 H 0.45137 0.82313 0.71659 0.0
H855 H 0.39595 0.69477 0.7311 0.0
H856 H 0.50627 0.70808 0.76666 0.0
H857 H 0.43766 0.72847 0.75328 0.0
H858 H 0.51628 0.76008 0.71367 0.0
H859 H 0.58596 0.73965 0.72719 0.0
C860 C 0.37959 0.81408 0.71338 0.0
C861 C 0.34204 0.78594 0.71612 0.0
C862 C 0.42312 0.79988 0.71773 0.0
C863 C 0.42914 0.75739 0.72468 0.0
C864 C 0.39207 0.72798 0.72603 0.0
C865 C 0.34904 0.74226 0.72194 0.0
C866 C 0.50913 0.7191 0.75508 0.0
C867 C 0.55151 0.72204 0.74797 0.0
C868 C 0.4698 0.73063 0.7474 0.0
C869 C 0.47179 0.74553 0.73242 0.0
C870 C 0.51402 0.74869 0.72522 0.0
C871 C 0.55366 0.73664 0.73292 0.0
H872 H 0.69248 0.48327 0.21845 0.0
H873 H 0.73334 0.40435 0.25708 0.0
H874 H 0.70966 0.5527 0.23201 0.0
H875 H 0.75054 0.47456 0.27074 0.0
H876 H 0.83707 0.61368 0.27509 0.0
H877 H 0.81008 0.53809 0.26755 0.0
H878 H 0.68187 0.59631 0.25419 0.0
H879 H 0.70887 0.67118 0.26141 0.0
C880 C 0.70467 0.48077 0.2299 0.0
C881 C 0.71162 0.43836 0.23668 0.0
C882 C 0.71424 0.52056 0.23771 0.0
C883 C 0.73126 0.51893 0.25245 0.0
C884 C 0.73754 0.47664 0.25938 0.0
C885 C 0.72741 0.43661 0.25159 0.0
C886 C 0.80278 0.60989 0.27091 0.0
C887 C 0.77537 0.64811 0.26849 0.0
C888 C 0.78731 0.56679 0.26663 0.0
C889 C 0.74423 0.56169 0.26002 0.0
C890 C 0.71555 0.59948 0.25895 0.0
C891 C 0.73102 0.64225 0.26308 0.0
H892 H 0.63445 0.21114 0.6968 0.0
H893 H 0.64993 0.15399 0.74117 0.0
H894 H 0.56209 0.24547 0.70453 0.0
H895 H 0.57799 0.18696 0.74874 0.0
H896 H 0.48771 0.29349 0.7653 0.0
H897 H 0.55719 0.26627 0.75362 0.0
H898 H 0.48233 0.22953 0.71369 0.0
H899 H 0.41259 0.25815 0.7253 0.0
C900 C 0.62171 0.20492 0.70804 0.0
C901 C 0.64774 0.18045 0.71847 0.0
C902 C 0.5806 0.22472 0.71248 0.0
C903 C 0.56525 0.22001 0.72736 0.0
C904 C 0.58978 0.19251 0.73735 0.0
C905 C 0.63069 0.17321 0.73298 0.0
C906 C 0.48628 0.28062 0.7539 0.0
C907 C 0.44483 0.27731 0.74628 0.0
C908 C 0.52592 0.26469 0.74725 0.0
C909 C 0.52478 0.24448 0.73294 0.0
C910 C 0.48405 0.2447 0.72477 0.0
C911 C 0.44425 0.26119 0.73139 0.0
H912 H 0.13175 0.10985 0.96076 0.0
H913 H 0.27178 0.15208 0.96148 0.0
H914 H 0.15534 0.03153 0.96615 0.0
H915 H 0.29547 0.07438 0.96643 0.0
H916 H 0.2979 0.96947 0.00535 0.0
H917 H 0.28129 0.03791 0.99126 0.0
H918 H 0.20263 0.95981 0.95947 0.0
H919 H 0.21973 0.89038 0.97372 0.0
C920 C 0.16757 0.10197 0.9615 0.0
C921 C 0.20004 0.13674 0.961 0.0
C922 C 0.1811 0.05729 0.96454 0.0
C923 C 0.22719 0.0472 0.96698 0.0
C924 C 0.2597 0.0814 0.96487 0.0
C925 C 0.2462 0.12578 0.96204 0.0
C926 C 0.2777 0.96671 -0.00478 0.0
C927 C 0.25999 0.92477 0.99064 0.0
C928 C 0.26842 0.00586 0.98707 0.0
C929 C 0.24079 0.00412 0.97423 0.0
C930 C 0.22403 0.96197 0.96934 0.0
C931 C 0.23403 0.92238 0.97741 0.0
H932 H 0.1509 0.71371 0.02332 0.0
H933 H 0.10893 0.85388 0.02496 0.0
H934 H 0.07258 0.69019 0.0194 0.0
H935 H 0.0301 0.83046 0.02052 0.0
H936 H 0.88856 0.76885 0.01316 0.0
H937 H 0.95867 0.78418 0.02732 0.0
H938 H 0.03423 0.70433 -0.00486 0.0
H939 H 0.9652 0.68957 0.98117 0.0
C940 C 0.12456 0.73936 0.0232 0.0
C941 C 0.13568 0.78555 0.02417 0.0
C942 C 0.07982 0.72595 0.02096 0.0
C943 C 0.04547 0.75855 0.01934 0.0
C944 C 0.05593 0.80461 0.02178 0.0
C945 C 0.10093 0.81805 0.02425 0.0
C946 C 0.92015 0.75386 0.0094 0.0
C947 C 0.92177 0.72823 -0.00392 0.0
C948 C 0.96013 0.76281 0.01742 0.0
C949 C 0.00181 0.74529 0.01237 0.0
C950 C 0.0026 0.71774 -0.00053 0.0
C951 C 0.96313 0.70954 0.99139 0.0
H952 H 0.80605 0.06352 -0.00186 0.0
H953 H 0.67824 0.07618 0.97491 0.0
H954 H 0.82292 -0.00543 0.98409 0.0
H955 H 0.69468 0.00589 0.96096 0.0
H956 H 0.7161 0.84541 0.97097 0.0
H957 H 0.70003 0.92608 0.97371 0.0
H958 H 0.83465 0.95802 0.95775 0.0
H959 H 0.85066 0.87679 0.95479 0.0
C960 C 0.78201 0.05184 0.98977 0.0
C961 C 0.74069 0.07451 0.98766 0.0
C962 C 0.79185 0.01273 0.98162 0.0
C963 C 0.7601 -0.00496 0.97145 0.0
C964 C 0.71972 0.0191 0.96872 0.0
C965 C 0.71031 0.05906 0.97666 0.0
C966 C 0.7419 0.86971 0.96772 0.0
C967 C 0.78489 0.85505 0.96294 0.0
C968 C 0.73249 0.91585 0.9691 0.0
C969 C 0.76616 0.94813 0.96597 0.0
C970 C 0.80817 0.93363 0.96021 0.0
C971 C 0.81732 0.88732 0.95855 0.0
H972 H 0.09499 0.23608 0.0112 0.0
H973 H 0.01793 0.30249 0.9763 0.0
H974 H 0.02492 0.22499 0.02575 0.0
H975 H 0.94892 0.29133 0.99052 0.0
H976 H 0.83024 0.28592 0.01732 0.0
H977 H 0.90771 0.31161 0.01316 0.0
H978 H 0.9565 0.17551 0.02129 0.0
H979 H 0.87858 0.15044 0.02622 0.0
C980 C 0.06329 0.24908 0.00682 0.0
C981 C 0.0616 0.26967 -0.00741 0.0
C982 C 0.02334 0.24257 0.01508 0.0
C983 C 0.98152 0.2574 0.0093 0.0
C984 C 0.98061 0.28016 -0.00457 0.0
C985 C 0.02012 0.28612 0.98718 0.0
C986 C 0.85774 0.26194 0.0187 0.0
C987 C 0.84878 0.21619 0.02181 0.0
C988 C 0.902 0.27654 0.0163 0.0
C989 C 0.93796 0.24532 0.01654 0.0
C990 C 0.92944 0.20036 0.02107 0.0
C991 C 0.88495 0.18591 0.0238 0.0
H992 H 0.82966 0.04515 0.7512 0.0
H993 H 0.71861 0.01443 0.72112 0.0
H994 H 0.80988 0.97856 0.76645 0.0
H995 H 0.69864 0.94913 0.73649 0.0
H996 H 0.64709 0.86344 0.77418 0.0
H997 H 0.67118 0.93881 0.7656 0.0
H998 H 0.80692 0.88825 0.75847 0.0
H999 H 0.78272 0.81291 0.76669 0.0
C1000 C 0.80122 0.02418 0.74785 0.0
C1001 C 0.77588 0.03466 0.73492 0.0
C1002 C 0.78981 0.98651 0.7566 0.0
C1003 C 0.75227 0.95971 0.75273 0.0
C1004 C 0.72718 0.97003 0.73981 0.0
C1005 C 0.73909 0.00692 0.73091 0.0
C1006 C 0.68235 0.86899 0.77128 0.0
C1007 C 0.71304 0.83272 0.7709 0.0
C1008 C 0.69603 0.91182 0.76634 0.0
C1009 C 0.7407 0.91877 0.76132 0.0
C1010 C 0.7724 0.88355 0.76237 0.0
C1011 C 0.75853 0.8406 0.76699 0.0
H1012 H 0.81762 0.21259 0.21617 0.0
H1013 H 0.86234 0.35147 0.21166 0.0
H1014 H 0.89422 0.18982 0.22346 0.0
H1015 H 0.939 0.32875 0.21936 0.0
H1016 H 0.01647 0.27281 0.26283 0.0
H1017 H 0.95094 0.29459 0.24789 0.0
H1018 H 0.98502 0.19303 0.21478 0.0
H1019 H 0.05204 0.17161 0.22961 0.0
C1020 C 0.84429 0.23793 0.21635 0.0
C1021 C 0.83444 0.28376 0.21352 0.0
C1022 C 0.88797 0.22487 0.22042 0.0
C1023 C 0.92202 0.25767 0.22201 0.0
C1024 C 0.913 0.30301 0.21815 0.0
C1025 C 0.86943 0.31594 0.21374 0.0
C1026 C 0.01004 0.25492 0.2524 0.0
C1027 C 0.03907 0.22021 0.24743 0.0
C1028 C 0.97298 0.2679 0.24377 0.0
C1029 C 0.96374 0.24593 0.23014 0.0
C1030 C 0.99211 0.2107 0.2252 0.0
C1031 C 0.03002 0.19834 0.2337 0.0
H1032 H 0.27757 0.13037 0.78851 0.0
H1033 H 0.33334 0.14264 0.7438 0.0
H1034 H 0.24639 0.05538 0.78185 0.0
H1035 H 0.30308 0.0685 0.7373 0.0
H1036 H 0.1916 0.98089 0.72235 0.0
H1037 H 0.21864 0.05007 0.73427 0.0
H1038 H 0.26903 0.97224 0.7718 0.0
H1039 H 0.2411 0.90232 0.75987 0.0
C1040 C 0.28432 0.1164 0.77747 0.0
C1041 C 0.30726 0.14223 0.76658 0.0
C1042 C 0.26633 0.07381 0.77365 0.0
C1043 C 0.27132 0.05702 0.75895 0.0
C1044 C 0.29769 0.08133 0.74858 0.0
C1045 C 0.31528 0.12354 0.75233 0.0
C1046 C 0.20748 0.97858 0.7333 0.0
C1047 C 0.21496 0.93632 0.74009 0.0
C1048 C 0.22312 0.01809 0.74009 0.0
C1049 C 0.24699 0.01613 0.75372 0.0
C1050 C 0.25095 0.97443 0.76123 0.0
C1051 C 0.23489 0.9346 0.75444 0.0
H1052 H 0.98103 0.78448 0.26527 0.0
H1053 H 0.90336 0.75111 0.22556 0.0
H1054 H 0.05087 0.7701 0.25157 0.0
H1055 H 0.97398 0.73649 0.21179 0.0
H1056 H 0.1695 0.77789 0.22263 0.0
H1057 H 0.09389 0.80352 0.22953 0.0
H1058 H 0.03807 0.67549 0.21477 0.0
H1059 H 0.11434 0.64979 0.20762 0.0
C1060 C 0.97892 0.77442 0.25357 0.0
C1061 C 0.9368 0.76882 0.24649 0.0
C1062 C 0.01889 0.76652 0.2457 0.0
C1063 C 0.01764 0.75248 0.23061 0.0
C1064 C 0.97565 0.74734 0.22341 0.0
C1065 C 0.93545 0.7559 0.23126 0.0
C1066 C 0.14095 0.75556 0.22055 0.0
C1067 C 0.14761 0.71151 0.21493 0.0
C1068 C 0.09779 0.77027 0.22448 0.0
C1069 C 0.06053 0.74109 0.22296 0.0
C1070 C 0.06643 0.69856 0.21603 0.0
C1071 C 0.10991 0.68384 0.21198 0.0
H1072 H 0.77577 0.65156 0.47155 0.0
H1073 H 0.64235 0.61694 0.45513 0.0
H1074 H 0.79262 0.57133 0.47522 0.0
H1075 H 0.65899 0.53625 0.45916 0.0
H1076 H 0.68864 0.43591 0.50109 0.0
H1077 H 0.67166 0.50413 0.4867 0.0
H1078 H 0.7978 0.48928 0.46248 0.0
H1079 H 0.81426 0.4196 0.47672 0.0
C1080 C 0.75044 0.62661 0.46843 0.0
C1081 C 0.70756 0.64021 0.46327 0.0
C1082 C 0.76027 0.58076 0.47038 0.0
C1083 C 0.72705 0.54784 0.46747 0.0
C1084 C 0.68513 0.5612 0.46141 0.0
C1085 C 0.67562 0.60717 0.45914 0.0
C1086 C 0.71224 0.44672 0.49246 0.0
C1087 C 0.75294 0.42315 0.49007 0.0
C1088 C 0.70231 0.48536 0.48412 0.0
C1089 C 0.73337 0.50167 0.47347 0.0
C1090 C 0.77327 0.47701 0.47059 0.0
C1091 C 0.7827 0.43746 0.47871 0.0
H1092 H 0.66209 0.21019 0.51826 0.0
H1093 H 0.61347 0.34548 0.52749 0.0
H1094 H 0.58482 0.18495 0.51339 0.0
H1095 H 0.53577 0.32071 0.52201 0.0
H1096 H 0.39742 0.25841 0.51163 0.0
H1097 H 0.46726 0.26997 0.52621 0.0
H1098 H 0.54453 0.20717 0.49051 0.0
H1099 H 0.47572 0.19563 0.47619 0.0
C1100 C 0.63454 0.23421 0.51957 0.0
C1101 C 0.6434 0.27983 0.52296 0.0
C1102 C 0.59042 0.21984 0.51677 0.0
C1103 C 0.55451 0.25112 0.51698 0.0
C1104 C 0.56282 0.29586 0.52181 0.0
C1105 C 0.60717 0.31011 0.52487 0.0
C1106 C 0.42936 0.24635 0.50712 0.0
C1107 C 0.43138 0.22653 0.49275 0.0
C1108 C 0.46918 0.25313 0.51541 0.0
C1109 C 0.51124 0.23932 0.50953 0.0
C1110 C 0.51261 0.21754 0.49548 0.0
C1111 C 0.47321 0.21135 0.48718 0.0
H1112 H 0.27074 0.60503 0.47304 0.0
H1113 H 0.19435 0.52607 0.50515 0.0
H1114 H 0.2885 0.53527 0.45896 0.0
H1115 H 0.21145 0.45732 0.4912 0.0
H1116 H 0.36083 0.38528 0.46096 0.0
H1117 H 0.33688 0.46373 0.4661 0.0
H1118 H 0.19689 0.42049 0.4662 0.0
H1119 H 0.22092 0.34271 0.46144 0.0
C1120 C 0.25694 0.57297 0.47686 0.0
C1121 C 0.23129 0.57069 0.49017 0.0
C1122 C 0.26731 0.53321 0.46889 0.0
C1123 C 0.25118 0.49103 0.47396 0.0
C1124 C 0.22383 0.48939 0.48689 0.0
C1125 C 0.21425 0.5287 0.49494 0.0
C1126 C 0.32498 0.3931 0.4616 0.0
C1127 C 0.2926 0.35824 0.4611 0.0
C1128 C 0.31124 0.43784 0.46449 0.0
C1129 C 0.26507 0.44786 0.4668 0.0
C1130 C 0.2327 0.41353 0.46471 0.0
C1131 C 0.24639 0.36911 0.462 0.0
H1132 H 0.562 0.69122 0.48564 0.0
H1133 H 0.57518 0.81956 0.50863 0.0
H1134 H 0.49361 0.67439 0.49994 0.0
H1135 H 0.50537 0.80316 0.52286 0.0
H1136 H 0.34441 0.78004 0.51458 0.0
H1137 H 0.42462 0.79699 0.51118 0.0
H1138 H 0.45901 0.66216 0.52633 0.0
H1139 H 0.37823 0.64524 0.52994 0.0
C1140 C 0.55049 0.71546 0.49398 0.0
C1141 C 0.57324 0.75684 0.49598 0.0
C1142 C 0.51169 0.70563 0.50228 0.0
C1143 C 0.49432 0.73743 0.51252 0.0
C1144 C 0.5183 0.77806 0.51506 0.0
C1145 C 0.55799 0.78746 0.50695 0.0
C1146 C 0.36917 0.75438 0.51754 0.0
C1147 C 0.35526 0.71106 0.52226 0.0
C1148 C 0.41508 0.76429 0.51576 0.0
C1149 C 0.4479 0.73081 0.51843 0.0
C1150 C 0.43422 0.6885 0.52418 0.0
C1151 C 0.38815 0.67883 0.52624 0.0
H1152 H 0.12043 0.02071 0.29241 0.0
H1153 H 0.02752 0.12042 0.31031 0.0
H1154 H 0.06293 0.96226 0.29519 0.0
H1155 H 0.97051 0.0615 0.31381 0.0
H1156 H 0.86274 0.96369 0.29575 0.0
H1157 H 0.92172 0.02011 0.29839 0.0
H1158 H 0.01756 0.91512 0.31032 0.0
H1159 H 0.95847 0.85798 0.307 0.0
C1160 C 0.08806 0.02995 0.2973 0.0
C1161 C 0.0784 0.07535 0.30099 0.0
C1162 C 0.05503 -0.00372 0.29899 0.0
C1163 C 0.01169 0.00702 0.3046 0.0
C1164 C 0.00304 0.05205 0.3091 0.0
C1165 C 0.03583 0.08586 0.30718 0.0
C1166 C 0.89619 0.95248 0.29914 0.0
C1167 C 0.90581 0.90609 0.30105 0.0
C1168 C 0.93016 0.98509 0.30076 0.0
C1169 C 0.97471 0.97241 0.30453 0.0
C1170 C 0.9839 0.92616 0.30713 0.0
C1171 C 0.94991 0.89336 0.30533 0.0
H1172 H 0.86656 0.03061 0.67267 0.0
H1173 H 0.96525 0.12594 0.68976 0.0
H1174 H 0.92556 0.97319 0.67034 0.0
H1175 H 0.02374 0.06815 0.68811 0.0
H1176 H 0.12824 0.96183 0.67823 0.0
H1177 H 0.07149 0.02058 0.67397 0.0
H1178 H 0.96587 0.92651 0.68691 0.0
H1179 H 0.02217 0.86762 0.69051 0.0
C1180 C 0.90094 0.03944 0.67581 0.0
C1181 C 0.91108 0.08278 0.6815 0.0
C1182 C 0.93477 0.00638 0.6746 0.0
C1183 C 0.97945 0.01559 0.67927 0.0
C1184 C 0.98997 0.05974 0.68424 0.0
C1185 C 0.95627 0.09299 0.68524 0.0
C1186 C 0.09282 0.95359 0.67998 0.0
C1187 C 0.07984 0.90999 0.68476 0.0
C1188 C 0.06024 0.98738 0.67762 0.0
C1189 C 0.01392 0.97858 0.68015 0.0
C1190 C 0.00099 0.93456 0.68455 0.0
C1191 C 0.03345 0.90069 0.68673 0.0
H1192 H 0.02418 0.36591 0.94731 0.0
H1193 H 0.12641 0.46429 0.93505 0.0
H1194 H 0.96673 0.42475 0.94684 0.0
H1195 H 0.06837 0.52314 0.93393 0.0
H1196 H 0.96471 0.62545 0.95188 0.0
H1197 H 0.02248 0.56705 0.94989 0.0
H1198 H 0.92274 0.47375 0.93212 0.0
H1199 H 0.86444 0.53183 0.93475 0.0
C1200 C 0.03432 0.4 0.94422 0.0
C1201 C 0.08004 0.41032 0.94124 0.0
C1202 C 0.00118 0.43385 0.94387 0.0
C1203 C 0.01266 0.47895 0.94035 0.0
C1204 C 0.05826 0.48902 0.93696 0.0
C1205 C 0.09158 0.4552 0.9375 0.0
C1206 C 0.95511 0.59258 0.94744 0.0
C1207 C 0.90983 0.58332 0.94352 0.0
C1208 C 0.98842 0.55903 0.94621 0.0
C1209 C 0.97752 0.51543 0.94085 0.0
C1210 C 0.93238 0.50658 0.93656 0.0
C1211 C 0.8989 0.54 0.93798 0.0
H1212 H 0.46577 0.8573 0.04538 0.0
H1213 H 0.36755 0.9625 0.03617 0.0
H1214 H 0.52552 0.91441 0.04673 0.0
H1215 H 0.42724 0.01913 0.03695 0.0
H1216 H 0.62692 0.02175 0.02991 0.0
H1217 H 0.56851 0.96349 0.03121 0.0
H1218 H 0.47774 0.0591 0.05255 0.0
H1219 H 0.53555 0.11776 0.0507 0.0
C1220 C 0.45688 0.89257 0.04364 0.0
C1221 C 0.41175 0.90522 0.04071 0.0
C1222 C 0.49124 0.92535 0.04432 0.0
C1223 C 0.4814 0.97156 0.04194 0.0
C1224 C 0.43615 0.98411 0.03914 0.0
C1225 C 0.4018 0.95146 0.03861 0.0
C1226 C 0.59462 0.03026 0.03499 0.0
C1227 C 0.5859 0.07457 0.04012 0.0
C1228 C 0.5611 -0.00329 0.03581 0.0
C1229 C 0.51812 0.00647 0.04191 0.0
C1230 C 0.51 0.05047 0.04748 0.0
C1231 C 0.54332 0.08413 0.04651 0.0
H1232 H 0.62085 0.51749 0.79657 0.0
H1233 H 0.52764 0.62507 0.80835 0.0
H1234 H 0.56075 0.46233 0.79927 0.0
H1235 H 0.4674 0.56916 0.8117 0.0
H1236 H 0.45332 0.36423 0.81064 0.0
H1237 H 0.51099 0.42206 0.81483 0.0
H1238 H 0.42143 0.5235 0.79609 0.0
H1239 H 0.3632 0.46609 0.79262 0.0
C1240 C 0.58773 0.52935 0.8001 0.0
C1241 C 0.57907 0.57588 0.80212 0.0
C1242 C 0.55314 0.49748 0.80176 0.0
C1243 C 0.50897 0.51113 0.80567 0.0
C1244 C 0.50078 0.55748 0.80842 0.0
C1245 C 0.5354 0.58953 0.80659 0.0
C1246 C 0.44575 0.39905 0.80766 0.0
C1247 C 0.40389 0.41051 0.80117 0.0
C1248 C 0.4789 0.43221 0.80997 0.0
C1249 C 0.47128 0.47745 0.80558 0.0
C1250 C 0.42848 0.48922 0.79978 0.0
C1251 C 0.39507 0.45618 0.7977 0.0
H1252 H 0.46405 0.61997 0.19067 0.0
H1253 H 0.35728 0.52835 0.17692 0.0
H1254 H 0.51949 0.56023 0.18724 0.0
H1255 H 0.41333 0.46871 0.17288 0.0
H1256 H 0.51496 0.36135 0.19013 0.0
H1257 H 0.45829 0.42056 0.18789 0.0
H1258 H 0.56039 0.51259 0.17089 0.0
H1259 H 0.61767 0.45363 0.17376 0.0
C1260 C 0.45245 0.58732 0.18659 0.0
C1261 C 0.40605 0.57892 0.1842 0.0
C1262 C 0.48445 0.55298 0.18451 0.0
C1263 C 0.47104 0.50939 0.17983 0.0
C1264 C 0.42484 0.50158 0.17677 0.0
C1265 C 0.39268 0.53587 0.17901 0.0
C1266 C 0.52529 0.39397 0.18568 0.0
C1267 C 0.57103 0.40285 0.18228 0.0
C1268 C 0.4926 0.42801 0.18432 0.0
C1269 C 0.50468 0.47167 0.17934 0.0
C1270 C 0.54999 0.47971 0.17509 0.0
C1271 C 0.58284 0.4458 0.17664 0.0
H1272 H 0.52691 0.86836 0.45274 0.0
H1273 H 0.6258 0.96113 0.43429 0.0
H1274 H 0.46909 0.92681 0.45116 0.0
H1275 H 0.56739 0.01923 0.43206 0.0
H1276 H 0.46708 0.12794 0.44744 0.0
H1277 H 0.52446 0.06903 0.44688 0.0
H1278 H 0.42193 0.96993 0.43543 0.0
H1279 H 0.364 0.0289 0.43664 0.0
C1280 C 0.5362 0.90106 0.44812 0.0
C1281 C 0.58114 0.91003 0.4437 0.0
C1282 C 0.50284 0.93463 0.44711 0.0
C1283 C 0.51331 0.978 0.44148 0.0
C1284 C 0.5581 0.9866 0.43673 0.0
C1285 C 0.59164 0.95316 0.43792 0.0
C1286 C 0.45671 0.09367 0.44466 0.0
C1287 C 0.41078 0.08322 0.44211 0.0
C1288 C 0.48982 0.05977 0.44426 0.0
C1289 C 0.47809 0.01446 0.44111 0.0
C1290 C 0.43226 0.00422 0.43817 0.0
C1291 C 0.39899 0.03811 0.43875 0.0
H1292 H 0.86548 0.47348 0.53361 0.0
H1293 H 0.95802 0.37465 0.55217 0.0
H1294 H 0.92465 0.53098 0.53481 0.0
H1295 H 0.01669 0.4325 0.55388 0.0
H1296 H 0.1258 0.53006 0.53659 0.0
H1297 H 0.0659 0.47356 0.53795 0.0
H1298 H 0.96993 0.57795 0.55038 0.0
H1299 H 0.02965 0.63481 0.54849 0.0
C1300 C 0.89819 0.46417 0.5382 0.0
C1301 C 0.90696 0.41929 0.54271 0.0
C1302 C 0.93218 0.49728 0.53895 0.0
C1303 C 0.97573 0.48649 0.54437 0.0
C1304 C 0.98395 0.44194 0.54935 0.0
C1305 C 0.95012 0.40875 0.54846 0.0
C1306 C 0.09204 0.54099 0.53975 0.0
C1307 C 0.08264 0.58712 0.54239 0.0
C1308 C 0.05759 0.50845 0.54061 0.0
C1309 C 0.01284 0.52102 0.54426 0.0
C1310 C 0.00373 0.56702 0.54728 0.0
C1311 C 0.03812 0.59965 0.5463 0.0
loop_
_geom_bond_atom_site_label_1
_geom_bond_atom_site_label_2
_geom_bond_distance
_geom_bond_site_symmetry_2
_ccdc_geom_bond_type
Sc0 O3 2.025 . S
Sc0 O10 2.105 . S
Sc0 O13 2.105 . S
Sc0 O16 2.105 . S
Sc0 O19 2.105 . S
Sc1 O3 2.025 . S
Sc1 O11 2.105 . S
Sc1 O15 2.105 . S
Sc1 O17 2.105 . S
Sc1 O21 2.105 . S
Sc2 O3 2.025 . S
Sc2 O12 2.105 . S
Sc2 O14 2.105 . S
Sc2 O18 2.105 . S
Sc2 O20 2.105 . S
O3 Sc0 2.025 . S
O3 Sc1 2.025 . S
O3 Sc2 2.025 . S
C4 O10 1.268 . S
C4 O20 1.268 . S
C5 O11 1.268 . S
C5 O19 1.268 . S
C6 O12 1.268 . S
C6 O21 1.268 . S
C7 O13 1.268 . S
C7 O17 1.268 . S
C8 O14 1.268 . S
C8 O16 1.268 . S
C9 O15 1.268 . S
C9 O18 1.268 . S
O10 Sc0 2.105 . S
O10 C4 1.268 . S
O11 Sc1 2.105 . S
O11 C5 1.268 . S
O12 Sc2 2.105 . S
O12 C6 1.268 . S
O13 Sc0 2.105 . S
O13 C7 1.268 . S
O14 Sc2 2.105 . S
O14 C8 1.268 . S
O15 Sc1 2.105 . S
O15 C9 1.268 . S
O16 Sc0 2.105 . S
O16 C8 1.268 . S
O17 Sc1 2.105 . S
O17 C7 1.268 . S
O18 Sc2 2.105 . S
O18 C9 1.268 . S
O19 Sc0 2.105 . S
O19 C5 1.268 . S
O20 Sc2 2.105 . S
O20 C4 1.268 . S
O21 Sc1 2.105 . S
O21 C6 1.268 . S
Sc22 O25 2.025 . S
Sc22 O32 2.105 . S
Sc22 O35 2.105 . S
Sc22 O38 2.105 . S
Sc22 O41 2.105 . S
Sc23 O25 2.025 . S
Sc23 O33 2.105 . S
Sc23 O37 2.105 . S
Sc23 O39 2.105 . S
Sc23 O43 2.105 . S
Sc24 O25 2.025 . S
Sc24 O34 2.105 . S
Sc24 O36 2.105 . S
Sc24 O40 2.105 . S
Sc24 O42 2.105 . S
O25 Sc22 2.025 . S
O25 Sc23 2.025 . S
O25 Sc24 2.025 . S
C26 O32 1.268 . S
C26 O42 1.268 . S
C27 O33 1.268 . S
C27 O41 1.268 . S
C28 O34 1.268 . S
C28 O43 1.268 . S
C29 O35 1.268 . S
C29 O39 1.268 . S
C30 O36 1.268 . S
C30 O38 1.268 . S
C31 O37 1.268 . S
C31 O40 1.268 . S
O32 Sc22 2.105 . S
O32 C26 1.268 . S
O33 Sc23 2.105 . S
O33 C27 1.268 . S
O34 Sc24 2.105 . S
O34 C28 1.268 . S
O35 Sc22 2.105 . S
O35 C29 1.268 . S
O36 Sc24 2.105 . S
O36 C30 1.268 . S
O37 Sc23 2.105 . S
O37 C31 1.268 . S
O38 Sc22 2.105 . S
O38 C30 1.268 . S
O39 Sc23 2.105 . S
O39 C29 1.268 . S
O40 Sc24 2.105 . S
O40 C31 1.268 . S
O41 Sc22 2.105 . S
O41 C27 1.268 . S
O42 Sc24 2.105 . S
O42 C26 1.268 . S
O43 Sc23 2.105 . S
O43 C28 1.268 . S
Sc44 O47 2.025 . S
Sc44 O54 2.105 . S
Sc44 O57 2.105 . S
Sc44 O60 2.105 . S
Sc44 O63 2.105 . S
Sc45 O47 2.025 . S
Sc45 O55 2.105 . S
Sc45 O59 2.105 . S
Sc45 O61 2.105 . S
Sc45 O65 2.105 . S
Sc46 O47 2.025 . S
Sc46 O56 2.105 . S
Sc46 O58 2.105 . S
Sc46 O62 2.105 . S
Sc46 O64 2.105 . S
O47 Sc44 2.025 . S
O47 Sc45 2.025 . S
O47 Sc46 2.025 . S
C48 O54 1.268 . S
C48 O64 1.268 . S
C49 O55 1.268 . S
C49 O63 1.268 . S
C50 O56 1.268 . S
C50 O65 1.268 . S
C51 O57 1.268 . S
C51 O61 1.268 . S
C52 O58 1.268 . S
C52 O60 1.268 . S
C53 O59 1.268 . S
C53 O62 1.268 . S
O54 Sc44 2.105 . S
O54 C48 1.268 . S
O55 Sc45 2.105 . S
O55 C49 1.268 . S
O56 Sc46 2.105 . S
O56 C50 1.268 . S
O57 Sc44 2.105 . S
O57 C51 1.268 . S
O58 Sc46 2.105 . S
O58 C52 1.268 . S
O59 Sc45 2.105 . S
O59 C53 1.268 . S
O60 Sc44 2.105 . S
O60 C52 1.268 . S
O61 Sc45 2.105 . S
O61 C51 1.268 . S
O62 Sc46 2.105 . S
O62 C53 1.268 . S
O63 Sc44 2.105 . S
O63 C49 1.268 . S
O64 Sc46 2.105 . S
O64 C48 1.268 . S
O65 Sc45 2.105 . S
O65 C50 1.268 . S
Sc66 O69 2.025 . S
Sc66 O76 2.105 . S
Sc66 O79 2.105 . S
Sc66 O82 2.105 . S
Sc66 O85 2.105 . S
Sc67 O69 2.025 . S
Sc67 O77 2.105 . S
Sc67 O81 2.105 . S
Sc67 O83 2.105 . S
Sc67 O87 2.105 . S
Sc68 O69 2.025 . S
Sc68 O78 2.105 . S
Sc68 O80 2.105 . S
Sc68 O84 2.105 . S
Sc68 O86 2.105 . S
O69 Sc66 2.025 . S
O69 Sc67 2.025 . S
O69 Sc68 2.025 . S
C70 O76 1.268 . S
C70 O86 1.268 . S
C71 O77 1.268 . S
C71 O85 1.268 . S
C72 O78 1.268 . S
C72 O87 1.268 . S
C73 O79 1.268 . S
C73 O83 1.268 . S
C74 O80 1.268 . S
C74 O82 1.268 . S
C75 O81 1.268 . S
C75 O84 1.268 . S
O76 Sc66 2.105 . S
O76 C70 1.268 . S
O77 Sc67 2.105 . S
O77 C71 1.268 . S
O78 Sc68 2.105 . S
O78 C72 1.268 . S
O79 Sc66 2.105 . S
O79 C73 1.268 . S
O80 Sc68 2.105 . S
O80 C74 1.268 . S
O81 Sc67 2.105 . S
O81 C75 1.268 . S
O82 Sc66 2.105 . S
O82 C74 1.268 . S
O83 Sc67 2.105 . S
O83 C73 1.268 . S
O84 Sc68 2.105 . S
O84 C75 1.268 . S
O85 Sc66 2.105 . S
O85 C71 1.268 . S
O86 Sc68 2.105 . S
O86 C70 1.268 . S
O87 Sc67 2.105 . S
O87 C72 1.268 . S
Sc88 O91 2.025 . S
Sc88 O98 2.105 . S
Sc88 O101 2.105 . S
Sc88 O104 2.105 . S
Sc88 O107 2.105 . S
Sc89 O91 2.025 . S
Sc89 O99 2.105 . S
Sc89 O103 2.105 . S
Sc89 O105 2.105 . S
Sc89 O109 2.105 . S
Sc90 O91 2.025 . S
Sc90 O100 2.105 . S
Sc90 O102 2.105 . S
Sc90 O106 2.105 . S
Sc90 O108 2.105 . S
O91 Sc88 2.025 . S
O91 Sc89 2.025 . S
O91 Sc90 2.025 . S
C92 O98 1.268 . S
C92 O108 1.268 . S
C93 O99 1.268 . S
C93 O107 1.268 . S
C94 O100 1.268 . S
C94 O109 1.268 . S
C95 O101 1.268 . S
C95 O105 1.268 . S
C96 O102 1.268 . S
C96 O104 1.268 . S
C97 O103 1.268 . S
C97 O106 1.268 . S
O98 Sc88 2.105 . S
O98 C92 1.268 . S
O99 Sc89 2.105 . S
O99 C93 1.268 . S
O100 Sc90 2.105 . S
O100 C94 1.268 . S
O101 Sc88 2.105 . S
O101 C95 1.268 . S
O102 Sc90 2.105 . S
O102 C96 1.268 . S
O103 Sc89 2.105 . S
O103 C97 1.268 . S
O104 Sc88 2.105 . S
O104 C96 1.268 . S
O105 Sc89 2.105 . S
O105 C95 1.268 . S
O106 Sc90 2.105 . S
O106 C97 1.268 . S
O107 Sc88 2.105 . S
O107 C93 1.268 . S
O108 Sc90 2.105 . S
O108 C92 1.268 . S
O109 Sc89 2.105 . S
O109 C94 1.268 . S
Sc110 O113 2.025 . S
Sc110 O120 2.105 . S
Sc110 O123 2.105 . S
Sc110 O126 2.105 . S
Sc110 O129 2.105 . S
Sc111 O113 2.025 . S
Sc111 O121 2.105 . S
Sc111 O125 2.105 . S
Sc111 O127 2.105 . S
Sc111 O131 2.105 . S
Sc112 O113 2.025 . S
Sc112 O122 2.105 . S
Sc112 O124 2.105 . S
Sc112 O128 2.105 . S
Sc112 O130 2.105 . S
O113 Sc110 2.025 . S
O113 Sc111 2.025 . S
O113 Sc112 2.025 . S
C114 O120 1.268 . S
C114 O130 1.268 . S
C115 O121 1.268 . S
C115 O129 1.268 . S
C116 O122 1.268 . S
C116 O131 1.268 . S
C117 O123 1.268 . S
C117 O127 1.268 . S
C118 O124 1.268 . S
C118 O126 1.268 . S
C119 O125 1.268 . S
C119 O128 1.268 . S
O120 Sc110 2.105 . S
O120 C114 1.268 . S
O121 Sc111 2.105 . S
O121 C115 1.268 . S
O122 Sc112 2.105 . S
O122 C116 1.268 . S
O123 Sc110 2.105 . S
O123 C117 1.268 . S
O124 Sc112 2.105 . S
O124 C118 1.268 . S
O125 Sc111 2.105 . S
O125 C119 1.268 . S
O126 Sc110 2.105 . S
O126 C118 1.268 . S
O127 Sc111 2.105 . S
O127 C117 1.268 . S
O128 Sc112 2.105 . S
O128 C119 1.268 . S
O129 Sc110 2.105 . S
O129 C115 1.268 . S
O130 Sc112 2.105 . S
O130 C114 1.268 . S
O131 Sc111 2.105 . S
O131 C116 1.268 . S
Sc132 O135 2.025 . S
Sc132 O142 2.105 . S
Sc132 O145 2.105 . S
Sc132 O148 2.105 . S
Sc132 O151 2.105 . S
Sc133 O135 2.025 . S
Sc133 O143 2.105 . S
Sc133 O147 2.105 . S
Sc133 O149 2.105 . S
Sc133 O153 2.105 . S
Sc134 O135 2.025 . S
Sc134 O144 2.105 . S
Sc134 O146 2.105 . S
Sc134 O150 2.105 . S
Sc134 O152 2.105 . S
O135 Sc132 2.025 . S
O135 Sc133 2.025 . S
O135 Sc134 2.025 . S
C136 O142 1.268 . S
C136 O152 1.268 . S
C137 O143 1.268 . S
C137 O151 1.268 . S
C138 O144 1.268 . S
C138 O153 1.268 . S
C139 O145 1.268 . S
C139 O149 1.268 . S
C140 O146 1.268 . S
C140 O148 1.268 . S
C141 O147 1.268 . S
C141 O150 1.268 . S
O142 Sc132 2.105 . S
O142 C136 1.268 . S
O143 Sc133 2.105 . S
O143 C137 1.268 . S
O144 Sc134 2.105 . S
O144 C138 1.268 . S
O145 Sc132 2.105 . S
O145 C139 1.268 . S
O146 Sc134 2.105 . S
O146 C140 1.268 . S
O147 Sc133 2.105 . S
O147 C141 1.268 . S
O148 Sc132 2.105 . S
O148 C140 1.268 . S
O149 Sc133 2.105 . S
O149 C139 1.268 . S
O150 Sc134 2.105 . S
O150 C141 1.268 . S
O151 Sc132 2.105 . S
O151 C137 1.268 . S
O152 Sc134 2.105 . S
O152 C136 1.268 . S
O153 Sc133 2.105 . S
O153 C138 1.268 . S
Sc154 O157 2.025 . S
Sc154 O164 2.105 . S
Sc154 O167 2.105 . S
Sc154 O170 2.105 . S
Sc154 O173 2.105 . S
Sc155 O157 2.025 . S
Sc155 O165 2.105 . S
Sc155 O169 2.105 . S
Sc155 O171 2.105 . S
Sc155 O175 2.105 . S
Sc156 O157 2.025 . S
Sc156 O166 2.105 . S
Sc156 O168 2.105 . S
Sc156 O172 2.105 . S
Sc156 O174 2.105 . S
O157 Sc154 2.025 . S
O157 Sc155 2.025 . S
O157 Sc156 2.025 . S
C158 O164 1.268 . S
C158 O174 1.268 . S
C159 O165 1.268 . S
C159 O173 1.268 . S
C160 O166 1.268 . S
C160 O175 1.268 . S
C161 O167 1.268 . S
C161 O171 1.268 . S
C162 O168 1.268 . S
C162 O170 1.268 . S
C163 O169 1.268 . S
C163 O172 1.268 . S
O164 Sc154 2.105 . S
O164 C158 1.268 . S
O165 Sc155 2.105 . S
O165 C159 1.268 . S
O166 Sc156 2.105 . S
O166 C160 1.268 . S
O167 Sc154 2.105 . S
O167 C161 1.268 . S
O168 Sc156 2.105 . S
O168 C162 1.268 . S
O169 Sc155 2.105 . S
O169 C163 1.268 . S
O170 Sc154 2.105 . S
O170 C162 1.268 . S
O171 Sc155 2.105 . S
O171 C161 1.268 . S
O172 Sc156 2.105 . S
O172 C163 1.268 . S
O173 Sc154 2.105 . S
O173 C159 1.268 . S
O174 Sc156 2.105 . S
O174 C158 1.268 . S
O175 Sc155 2.105 . S
O175 C160 1.268 . S
Sc176 O179 2.025 . S
Sc176 O186 2.105 . S
Sc176 O189 2.105 . S
Sc176 O192 2.105 . S
Sc176 O195 2.105 . S
Sc177 O179 2.025 . S
Sc177 O187 2.105 . S
Sc177 O191 2.105 . S
Sc177 O193 2.105 . S
Sc177 O197 2.105 . S
Sc178 O179 2.025 . S
Sc178 O188 2.105 . S
Sc178 O190 2.105 . S
Sc178 O194 2.105 . S
Sc178 O196 2.105 . S
O179 Sc176 2.025 . S
O179 Sc177 2.025 . S
O179 Sc178 2.025 . S
C180 O186 1.268 . S
C180 O196 1.268 . S
C181 O187 1.268 . S
C181 O195 1.268 . S
C182 O188 1.268 . S
C182 O197 1.268 . S
C183 O189 1.268 . S
C183 O193 1.268 . S
C184 O190 1.268 . S
C184 O192 1.268 . S
C185 O191 1.268 . S
C185 O194 1.268 . S
O186 Sc176 2.105 . S
O186 C180 1.268 . S
O187 Sc177 2.105 . S
O187 C181 1.268 . S
O188 Sc178 2.105 . S
O188 C182 1.268 . S
O189 Sc176 2.105 . S
O189 C183 1.268 . S
O190 Sc178 2.105 . S
O190 C184 1.268 . S
O191 Sc177 2.105 . S
O191 C185 1.268 . S
O192 Sc176 2.105 . S
O192 C184 1.268 . S
O193 Sc177 2.105 . S
O193 C183 1.268 . S
O194 Sc178 2.105 . S
O194 C185 1.268 . S
O195 Sc176 2.105 . S
O195 C181 1.268 . S
O196 Sc178 2.105 . S
O196 C180 1.268 . S
O197 Sc177 2.105 . S
O197 C182 1.268 . S
Sc198 O201 2.025 . S
Sc198 O208 2.105 . S
Sc198 O211 2.105 . S
Sc198 O214 2.105 . S
Sc198 O217 2.105 . S
Sc199 O201 2.025 . S
Sc199 O209 2.105 . S
Sc199 O213 2.105 . S
Sc199 O215 2.105 . S
Sc199 O219 2.105 . S
Sc200 O201 2.025 . S
Sc200 O210 2.105 . S
Sc200 O212 2.105 . S
Sc200 O216 2.105 . S
Sc200 O218 2.105 . S
O201 Sc198 2.025 . S
O201 Sc199 2.025 . S
O201 Sc200 2.025 . S
C202 O208 1.268 . S
C202 O218 1.268 . S
C203 O209 1.268 . S
C203 O217 1.268 . S
C204 O210 1.268 . S
C204 O219 1.268 . S
C205 O211 1.268 . S
C205 O215 1.268 . S
C206 O212 1.268 . S
C206 O214 1.268 . S
C207 O213 1.268 . S
C207 O216 1.268 . S
O208 Sc198 2.105 . S
O208 C202 1.268 . S
O209 Sc199 2.105 . S
O209 C203 1.268 . S
O210 Sc200 2.105 . S
O210 C204 1.268 . S
O211 Sc198 2.105 . S
O211 C205 1.268 . S
O212 Sc200 2.105 . S
O212 C206 1.268 . S
O213 Sc199 2.105 . S
O213 C207 1.268 . S
O214 Sc198 2.105 . S
O214 C206 1.268 . S
O215 Sc199 2.105 . S
O215 C205 1.268 . S
O216 Sc200 2.105 . S
O216 C207 1.268 . S
O217 Sc198 2.105 . S
O217 C203 1.268 . S
O218 Sc200 2.105 . S
O218 C202 1.268 . S
O219 Sc199 2.105 . S
O219 C204 1.268 . S
Sc220 O223 2.025 . S
Sc220 O230 2.105 . S
Sc220 O233 2.105 . S
Sc220 O236 2.105 . S
Sc220 O239 2.105 . S
Sc221 O223 2.025 . S
Sc221 O231 2.105 . S
Sc221 O235 2.105 . S
Sc221 O237 2.105 . S
Sc221 O241 2.105 . S
Sc222 O223 2.025 . S
Sc222 O232 2.105 . S
Sc222 O234 2.105 . S
Sc222 O238 2.105 . S
Sc222 O240 2.105 . S
O223 Sc220 2.025 . S
O223 Sc221 2.025 . S
O223 Sc222 2.025 . S
C224 O230 1.268 . S
C224 O240 1.268 . S
C225 O231 1.268 . S
C225 O239 1.268 . S
C226 O232 1.268 . S
C226 O241 1.268 . S
C227 O233 1.268 . S
C227 O237 1.268 . S
C228 O234 1.268 . S
C228 O236 1.268 . S
C229 O235 1.268 . S
C229 O238 1.268 . S
O230 Sc220 2.105 . S
O230 C224 1.268 . S
O231 Sc221 2.105 . S
O231 C225 1.268 . S
O232 Sc222 2.105 . S
O232 C226 1.268 . S
O233 Sc220 2.105 . S
O233 C227 1.268 . S
O234 Sc222 2.105 . S
O234 C228 1.268 . S
O235 Sc221 2.105 . S
O235 C229 1.268 . S
O236 Sc220 2.105 . S
O236 C228 1.268 . S
O237 Sc221 2.105 . S
O237 C227 1.268 . S
O238 Sc222 2.105 . S
O238 C229 1.268 . S
O239 Sc220 2.105 . S
O239 C225 1.268 . S
O240 Sc222 2.105 . S
O240 C224 1.268 . S
O241 Sc221 2.105 . S
O241 C226 1.268 . S
Sc242 O245 2.025 . S
Sc242 O252 2.105 . S
Sc242 O255 2.105 . S
Sc242 O258 2.105 . S
Sc242 O261 2.105 . S
Sc243 O245 2.025 . S
Sc243 O253 2.105 . S
Sc243 O257 2.105 . S
Sc243 O259 2.105 . S
Sc243 O263 2.105 . S
Sc244 O245 2.025 . S
Sc244 O254 2.105 . S
Sc244 O256 2.105 . S
Sc244 O260 2.105 . S
Sc244 O262 2.105 . S
O245 Sc242 2.025 . S
O245 Sc243 2.025 . S
O245 Sc244 2.025 . S
C246 O252 1.268 . S
C246 O262 1.268 . S
C247 O253 1.268 . S
C247 O261 1.268 . S
C248 O254 1.268 . S
C248 O263 1.268 . S
C249 O255 1.268 . S
C249 O259 1.268 . S
C250 O256 1.268 . S
C250 O258 1.268 . S
C251 O257 1.268 . S
C251 O260 1.268 . S
O252 Sc242 2.105 . S
O252 C246 1.268 . S
O253 Sc243 2.105 . S
O253 C247 1.268 . S
O254 Sc244 2.105 . S
O254 C248 1.268 . S
O255 Sc242 2.105 . S
O255 C249 1.268 . S
O256 Sc244 2.105 . S
O256 C250 1.268 . S
O257 Sc243 2.105 . S
O257 C251 1.268 . S
O258 Sc242 2.105 . S
O258 C250 1.268 . S
O259 Sc243 2.105 . S
O259 C249 1.268 . S
O260 Sc244 2.105 . S
O260 C251 1.268 . S
O261 Sc242 2.105 . S
O261 C247 1.268 . S
O262 Sc244 2.105 . S
O262 C246 1.268 . S
O263 Sc243 2.105 . S
O263 C248 1.268 . S
Sc264 O267 2.025 . S
Sc264 O274 2.105 . S
Sc264 O277 2.105 . S
Sc264 O280 2.105 . S
Sc264 O283 2.105 . S
Sc265 O267 2.025 . S
Sc265 O275 2.105 . S
Sc265 O279 2.105 . S
Sc265 O281 2.105 . S
Sc265 O285 2.105 . S
Sc266 O267 2.025 . S
Sc266 O276 2.105 . S
Sc266 O278 2.105 . S
Sc266 O282 2.105 . S
Sc266 O284 2.105 . S
O267 Sc264 2.025 . S
O267 Sc265 2.025 . S
O267 Sc266 2.025 . S
C268 O274 1.268 . S
C268 O284 1.268 . S
C269 O275 1.268 . S
C269 O283 1.268 . S
C270 O276 1.268 . S
C270 O285 1.268 . S
C271 O277 1.268 . S
C271 O281 1.268 . S
C272 O278 1.268 . S
C272 O280 1.268 . S
C273 O279 1.268 . S
C273 O282 1.268 . S
O274 Sc264 2.105 . S
O274 C268 1.268 . S
O275 Sc265 2.105 . S
O275 C269 1.268 . S
O276 Sc266 2.105 . S
O276 C270 1.268 . S
O277 Sc264 2.105 . S
O277 C271 1.268 . S
O278 Sc266 2.105 . S
O278 C272 1.268 . S
O279 Sc265 2.105 . S
O279 C273 1.268 . S
O280 Sc264 2.105 . S
O280 C272 1.268 . S
O281 Sc265 2.105 . S
O281 C271 1.268 . S
O282 Sc266 2.105 . S
O282 C273 1.268 . S
O283 Sc264 2.105 . S
O283 C269 1.268 . S
O284 Sc266 2.105 . S
O284 C268 1.268 . S
O285 Sc265 2.105 . S
O285 C270 1.268 . S
Sc286 O289 2.025 . S
Sc286 O296 2.105 . S
Sc286 O299 2.105 . S
Sc286 O302 2.105 . S
Sc286 O305 2.105 . S
Sc287 O289 2.025 . S
Sc287 O297 2.105 . S
Sc287 O301 2.105 . S
Sc287 O303 2.105 . S
Sc287 O307 2.105 . S
Sc288 O289 2.025 . S
Sc288 O298 2.105 . S
Sc288 O300 2.105 . S
Sc288 O304 2.105 . S
Sc288 O306 2.105 . S
O289 Sc286 2.025 . S
O289 Sc287 2.025 . S
O289 Sc288 2.025 . S
C290 O296 1.268 . S
C290 O306 1.268 . S
C291 O297 1.268 . S
C291 O305 1.268 . S
C292 O298 1.268 . S
C292 O307 1.268 . S
C293 O299 1.268 . S
C293 O303 1.268 . S
C294 O300 1.268 . S
C294 O302 1.268 . S
C295 O301 1.268 . S
C295 O304 1.268 . S
O296 Sc286 2.105 . S
O296 C290 1.268 . S
O297 Sc287 2.105 . S
O297 C291 1.268 . S
O298 Sc288 2.105 . S
O298 C292 1.268 . S
O299 Sc286 2.105 . S
O299 C293 1.268 . S
O300 Sc288 2.105 . S
O300 C294 1.268 . S
O301 Sc287 2.105 . S
O301 C295 1.268 . S
O302 Sc286 2.105 . S
O302 C294 1.268 . S
O303 Sc287 2.105 . S
O303 C293 1.268 . S
O304 Sc288 2.105 . S
O304 C295 1.268 . S
O305 Sc286 2.105 . S
O305 C291 1.268 . S
O306 Sc288 2.105 . S
O306 C290 1.268 . S
O307 Sc287 2.105 . S
O307 C292 1.268 . S
Sc308 O311 2.025 . S
Sc308 O318 2.105 . S
Sc308 O321 2.105 . S
Sc308 O324 2.105 . S
Sc308 O327 2.105 . S
Sc309 O311 2.025 . S
Sc309 O319 2.105 . S
Sc309 O323 2.105 . S
Sc309 O325 2.105 . S
Sc309 O329 2.105 . S
Sc310 O311 2.025 . S
Sc310 O320 2.105 . S
Sc310 O322 2.105 . S
Sc310 O326 2.105 . S
Sc310 O328 2.105 . S
O311 Sc308 2.025 . S
O311 Sc309 2.025 . S
O311 Sc310 2.025 . S
C312 O318 1.268 . S
C312 O328 1.268 . S
C313 O319 1.268 . S
C313 O327 1.268 . S
C314 O320 1.268 . S
C314 O329 1.268 . S
C315 O321 1.268 . S
C315 O325 1.268 . S
C316 O322 1.268 . S
C316 O324 1.268 . S
C317 O323 1.268 . S
C317 O326 1.268 . S
O318 Sc308 2.105 . S
O318 C312 1.268 . S
O319 Sc309 2.105 . S
O319 C313 1.268 . S
O320 Sc310 2.105 . S
O320 C314 1.268 . S
O321 Sc308 2.105 . S
O321 C315 1.268 . S
O322 Sc310 2.105 . S
O322 C316 1.268 . S
O323 Sc309 2.105 . S
O323 C317 1.268 . S
O324 Sc308 2.105 . S
O324 C316 1.268 . S
O325 Sc309 2.105 . S
O325 C315 1.268 . S
O326 Sc310 2.105 . S
O326 C317 1.268 . S
O327 Sc308 2.105 . S
O327 C313 1.268 . S
O328 Sc310 2.105 . S
O328 C312 1.268 . S
O329 Sc309 2.105 . S
O329 C314 1.268 . S
Sc330 O333 2.025 . S
Sc330 O340 2.105 . S
Sc330 O343 2.105 . S
Sc330 O346 2.105 . S
Sc330 O349 2.105 . S
Sc331 O333 2.025 . S
Sc331 O341 2.105 . S
Sc331 O345 2.105 . S
Sc331 O347 2.105 . S
Sc331 O351 2.105 . S
Sc332 O333 2.025 . S
Sc332 O342 2.105 . S
Sc332 O344 2.105 . S
Sc332 O348 2.105 . S
Sc332 O350 2.105 . S
O333 Sc330 2.025 . S
O333 Sc331 2.025 . S
O333 Sc332 2.025 . S
C334 O340 1.268 . S
C334 O350 1.268 . S
C335 O341 1.268 . S
C335 O349 1.268 . S
C336 O342 1.268 . S
C336 O351 1.268 . S
C337 O343 1.268 . S
C337 O347 1.268 . S
C338 O344 1.268 . S
C338 O346 1.268 . S
C339 O345 1.268 . S
C339 O348 1.268 . S
O340 Sc330 2.105 . S
O340 C334 1.268 . S
O341 Sc331 2.105 . S
O341 C335 1.268 . S
O342 Sc332 2.105 . S
O342 C336 1.268 . S
O343 Sc330 2.105 . S
O343 C337 1.268 . S
O344 Sc332 2.105 . S
O344 C338 1.268 . S
O345 Sc331 2.105 . S
O345 C339 1.268 . S
O346 Sc330 2.105 . S
O346 C338 1.268 . S
O347 Sc331 2.105 . S
O347 C337 1.268 . S
O348 Sc332 2.105 . S
O348 C339 1.268 . S
O349 Sc330 2.105 . S
O349 C335 1.268 . S
O350 Sc332 2.105 . S
O350 C334 1.268 . S
O351 Sc331 2.105 . S
O351 C336 1.268 . S
H352 C360 0.950 . S
H353 C365 0.950 . S
H354 C362 0.950 . S
H355 C364 0.950 . S
H356 C366 0.950 . S
H357 C368 0.950 . S
H358 C370 0.950 . S
H359 C371 0.950 . S
C360 H352 0.950 . S
C360 C361 1.386 . S
C360 C362 1.391 . S
C361 C360 1.386 . S
C361 C365 1.393 . S
C362 H354 0.950 . S
C362 C360 1.391 . S
C362 C363 1.400 . S
C363 C362 1.400 . S
C363 C364 1.398 . S
C363 C369 1.491 . S
C364 H355 0.950 . S
C364 C363 1.398 . S
C364 C365 1.391 . S
C365 H353 0.950 . S
C365 C361 1.393 . S
C365 C364 1.391 . S
C366 H356 0.950 . S
C366 C367 1.386 . S
C366 C368 1.391 . S
C367 C366 1.386 . S
C367 C371 1.393 . S
C368 H357 0.950 . S
C368 C366 1.391 . S
C368 C369 1.400 1_545 S
C369 C363 1.491 . S
C369 C368 1.400 1_565 S
C369 C370 1.398 . S
C370 H358 0.950 . S
C370 C369 1.398 . S
C370 C371 1.391 1_565 S
C371 H359 0.950 . S
C371 C367 1.393 . S
C371 C370 1.391 1_545 S
H372 C380 0.950 . S
H373 C385 0.950 . S
H374 C382 0.950 . S
H375 C384 0.950 . S
H376 C386 0.950 . S
H377 C388 0.950 . S
H378 C390 0.950 . S
H379 C391 0.950 . S
C380 H372 0.950 . S
C380 C381 1.386 . S
C380 C382 1.391 1_455 S
C381 C380 1.386 . S
C381 C385 1.393 . S
C382 H374 0.950 . S
C382 C380 1.391 1_655 S
C382 C383 1.400 . S
C383 C382 1.400 . S
C383 C384 1.398 1_655 S
C383 C389 1.491 . S
C384 H375 0.950 . S
C384 C383 1.398 1_455 S
C384 C385 1.391 . S
C385 H373 0.950 . S
C385 C381 1.393 . S
C385 C384 1.391 . S
C386 H376 0.950 . S
C386 C387 1.386 . S
C386 C388 1.391 . S
C387 C386 1.386 . S
C387 C391 1.393 . S
C388 H377 0.950 . S
C388 C386 1.391 . S
C388 C389 1.400 . S
C389 C383 1.491 . S
C389 C388 1.400 . S
C389 C390 1.398 . S
C390 H378 0.950 . S
C390 C389 1.398 . S
C390 C391 1.391 . S
C391 H379 0.950 . S
C391 C387 1.393 . S
C391 C390 1.391 . S
H392 C400 0.950 . S
H393 C405 0.950 . S
H394 C402 0.950 . S
H395 C404 0.950 . S
H396 C406 0.950 . S
H397 C408 0.950 . S
H398 C410 0.950 . S
H399 C411 0.950 . S
C400 H392 0.950 . S
C400 C401 1.386 . S
C400 C402 1.391 1_565 S
C401 C400 1.386 . S
C401 C405 1.393 . S
C402 H394 0.950 . S
C402 C400 1.391 1_545 S
C402 C403 1.400 . S
C403 C402 1.400 . S
C403 C404 1.398 1_545 S
C403 C409 1.491 . S
C404 H395 0.950 . S
C404 C403 1.398 1_565 S
C404 C405 1.391 . S
C405 H393 0.950 . S
C405 C401 1.393 . S
C405 C404 1.391 . S
C406 H396 0.950 . S
C406 C407 1.386 . S
C406 C408 1.391 . S
C407 C406 1.386 . S
C407 C411 1.393 . S
C408 H397 0.950 . S
C408 C406 1.391 . S
C408 C409 1.400 . S
C409 C403 1.491 . S
C409 C408 1.400 . S
C409 C410 1.398 . S
C410 H398 0.950 . S
C410 C409 1.398 . S
C410 C411 1.391 . S
C411 H399 0.950 . S
C411 C407 1.393 . S
C411 C410 1.391 . S
H412 C420 0.950 . S
H413 C425 0.950 . S
H414 C422 0.950 . S
H415 C424 0.950 . S
H416 C426 0.950 . S
H417 C428 0.950 1_455 S
H418 C430 0.950 1_455 S
H419 C431 0.950 . S
C420 H412 0.950 . S
C420 C421 1.386 . S
C420 C422 1.391 . S
C421 C420 1.386 . S
C421 C425 1.393 . S
C422 H414 0.950 . S
C422 C420 1.391 . S
C422 C423 1.400 . S
C423 C422 1.400 . S
C423 C424 1.398 . S
C423 C429 1.491 . S
C424 H415 0.950 . S
C424 C423 1.398 . S
C424 C425 1.391 . S
C425 H413 0.950 . S
C425 C421 1.393 . S
C425 C424 1.391 . S
C426 H416 0.950 . S
C426 C427 1.386 . S
C426 C428 1.391 . S
C427 C426 1.386 . S
C427 C431 1.393 . S
C428 H417 0.950 1_655 S
C428 C426 1.391 . S
C428 C429 1.400 1_655 S
C429 C423 1.491 . S
C429 C428 1.400 1_455 S
C429 C430 1.398 1_455 S
C430 H418 0.950 1_655 S
C430 C429 1.398 1_655 S
C430 C431 1.391 . S
C431 H419 0.950 . S
C431 C427 1.393 . S
C431 C430 1.391 . S
H432 C440 0.950 . S
H433 C445 0.950 . S
H434 C442 0.942 1_556 S
H435 C444 0.950 . S
H436 C446 0.950 . S
H437 C448 0.950 . S
H438 C450 0.950 . S
H439 C451 0.950 . S
C440 H432 0.950 . S
C440 C441 1.386 . S
C440 C442 1.368 1_556 S
C441 C440 1.386 . S
C441 C445 1.393 1_556 S
C442 H434 0.942 1_554 S
C442 C440 1.368 1_554 S
C442 C443 1.436 . S
C443 C442 1.436 . S
C443 C444 1.398 . S
C443 C449 1.491 . S
C444 H435 0.950 . S
C444 C443 1.398 . S
C444 C445 1.391 . S
C445 H433 0.950 . S
C445 C441 1.393 1_554 S
C445 C444 1.391 . S
C446 H436 0.950 . S
C446 C447 1.386 . S
C446 C448 1.391 . S
C447 C446 1.386 . S
C447 C451 1.393 . S
C448 H437 0.950 . S
C448 C446 1.391 . S
C448 C449 1.400 . S
C449 C443 1.491 . S
C449 C448 1.400 . S
C449 C450 1.398 . S
C450 H438 0.950 . S
C450 C449 1.398 . S
C450 C451 1.391 . S
C451 H439 0.950 . S
C451 C447 1.393 . S
C451 C450 1.391 . S
H452 C460 0.950 . S
H453 C465 0.950 . S
H454 C462 0.950 . S
H455 C464 0.950 . S
H456 C466 0.950 . S
H457 C468 0.950 . S
H458 C470 0.950 . S
H459 C471 0.950 . S
C460 H452 0.950 . S
C460 C461 1.386 1_556 S
C460 C462 1.391 . S
C461 C460 1.386 1_554 S
C461 C465 1.393 . S
C462 H454 0.950 . S
C462 C460 1.391 . S
C462 C463 1.400 . S
C463 C462 1.400 . S
C463 C464 1.398 . S
C463 C469 1.491 . S
C464 H455 0.950 . S
C464 C463 1.398 . S
C464 C465 1.391 1_556 S
C465 H453 0.950 . S
C465 C461 1.393 . S
C465 C464 1.391 1_554 S
C466 H456 0.950 . S
C466 C467 1.386 . S
C466 C468 1.391 . S
C467 C466 1.386 . S
C467 C471 1.393 . S
C468 H457 0.950 . S
C468 C466 1.391 . S
C468 C469 1.400 . S
C469 C463 1.491 . S
C469 C468 1.400 . S
C469 C470 1.398 . S
C470 H458 0.950 . S
C470 C469 1.398 . S
C470 C471 1.391 . S
C471 H459 0.950 . S
C471 C467 1.393 . S
C471 C470 1.391 . S
H472 C480 0.950 . S
H473 C485 0.950 . S
H474 C482 0.950 . S
H475 C484 0.950 . S
H476 C486 0.950 1_556 S
H477 C488 0.950 . S
H478 C490 0.950 . S
H479 C491 0.951 1_556 S
C480 H472 0.950 . S
C480 C481 1.386 . S
C480 C482 1.391 . S
C481 C480 1.386 . S
C481 C485 1.393 . S
C482 H474 0.950 . S
C482 C480 1.391 . S
C482 C483 1.400 . S
C483 C482 1.400 . S
C483 C484 1.398 . S
C483 C489 1.491 . S
C484 H475 0.950 . S
C484 C483 1.398 . S
C484 C485 1.391 . S
C485 H473 0.950 . S
C485 C481 1.393 . S
C485 C484 1.391 . S
C486 H476 0.950 1_554 S
C486 C487 1.386 1_554 S
C486 C488 1.391 . S
C487 C486 1.386 1_556 S
C487 C491 1.394 1_556 S
C488 H477 0.950 . S
C488 C486 1.391 . S
C488 C489 1.400 . S
C489 C483 1.491 . S
C489 C488 1.400 . S
C489 C490 1.398 . S
C490 H478 0.950 . S
C490 C489 1.398 . S
C490 C491 1.389 . S
C491 H479 0.951 1_554 S
C491 C487 1.394 1_554 S
C491 C490 1.389 . S
H492 C500 0.950 . S
H493 C505 0.950 . S
H494 C502 0.950 . S
H495 C504 0.950 . S
H496 C506 0.949 . S
H497 C508 0.950 . S
H498 C510 0.950 . S
H499 C511 0.941 1_554 S
C500 H492 0.950 . S
C500 C501 1.386 . S
C500 C502 1.391 . S
C501 C500 1.386 . S
C501 C505 1.393 . S
C502 H494 0.950 . S
C502 C500 1.391 . S
C502 C503 1.400 . S
C503 C502 1.400 . S
C503 C504 1.398 . S
C503 C509 1.491 . S
C504 H495 0.950 . S
C504 C503 1.398 . S
C504 C505 1.391 . S
C505 H493 0.950 . S
C505 C501 1.393 . S
C505 C504 1.391 . S
C506 H496 0.949 . S
C506 C507 1.386 1_556 S
C506 C508 1.391 . S
C507 C506 1.386 1_554 S
C507 C511 1.393 1_554 S
C508 H497 0.950 . S
C508 C506 1.391 . S
C508 C509 1.400 . S
C509 C503 1.491 . S
C509 C508 1.400 . S
C509 C510 1.398 . S
C510 H498 0.950 . S
C510 C509 1.398 . S
C510 C511 1.391 . S
C511 H499 0.941 1_556 S
C511 C507 1.393 1_556 S
C511 C510 1.391 . S
H512 C520 0.950 . S
H513 C525 0.950 . S
H514 C522 0.950 . S
H515 C524 0.950 . S
H516 C526 0.950 . S
H517 C528 0.950 . S
H518 C530 0.950 . S
H519 C531 0.950 . S
C520 H512 0.950 . S
C520 C521 1.386 . S
C520 C522 1.391 . S
C521 C520 1.386 . S
C521 C525 1.393 . S
C522 H514 0.950 . S
C522 C520 1.391 . S
C522 C523 1.400 . S
C523 C522 1.400 . S
C523 C524 1.398 . S
C523 C529 1.491 . S
C524 H515 0.950 . S
C524 C523 1.398 . S
C524 C525 1.391 . S
C525 H513 0.950 . S
C525 C521 1.393 . S
C525 C524 1.391 . S
C526 H516 0.950 . S
C526 C527 1.386 . S
C526 C528 1.391 . S
C527 C526 1.386 . S
C527 C531 1.393 . S
C528 H517 0.950 . S
C528 C526 1.391 . S
C528 C529 1.400 . S
C529 C523 1.491 . S
C529 C528 1.400 . S
C529 C530 1.398 . S
C530 H518 0.950 . S
C530 C529 1.398 . S
C530 C531 1.391 . S
C531 H519 0.950 . S
C531 C527 1.393 . S
C531 C530 1.391 . S
H532 C540 0.950 . S
H533 C545 0.950 . S
H534 C542 0.950 . S
H535 C544 0.950 . S
H536 C546 0.950 . S
H537 C548 0.950 . S
H538 C550 0.950 . S
H539 C551 0.950 . S
C540 H532 0.950 . S
C540 C541 1.386 . S
C540 C542 1.391 . S
C541 C540 1.386 . S
C541 C545 1.393 . S
C542 H534 0.950 . S
C542 C540 1.391 . S
C542 C543 1.400 . S
C543 C542 1.400 . S
C543 C544 1.398 . S
C543 C549 1.491 . S
C544 H535 0.950 . S
C544 C543 1.398 . S
C544 C545 1.391 . S
C545 H533 0.950 . S
C545 C541 1.393 . S
C545 C544 1.391 . S
C546 H536 0.950 . S
C546 C547 1.386 . S
C546 C548 1.391 . S
C547 C546 1.386 . S
C547 C551 1.393 . S
C548 H537 0.950 . S
C548 C546 1.391 . S
C548 C549 1.400 . S
C549 C543 1.491 . S
C549 C548 1.400 . S
C549 C550 1.398 . S
C550 H538 0.950 . S
C550 C549 1.398 . S
C550 C551 1.391 . S
C551 H539 0.950 . S
C551 C547 1.393 . S
C551 C550 1.391 . S
H552 C560 0.950 . S
H553 C565 0.950 . S
H554 C562 0.950 . S
H555 C564 0.950 . S
H556 C566 0.950 . S
H557 C568 0.950 . S
H558 C570 0.950 . S
H559 C571 0.950 . S
C560 H552 0.950 . S
C560 C561 1.386 . S
C560 C562 1.391 . S
C561 C560 1.386 . S
C561 C565 1.393 . S
C562 H554 0.950 . S
C562 C560 1.391 . S
C562 C563 1.400 . S
C563 C562 1.400 . S
C563 C564 1.398 . S
C563 C569 1.491 . S
C564 H555 0.950 . S
C564 C563 1.398 . S
C564 C565 1.391 . S
C565 H553 0.950 . S
C565 C561 1.393 . S
C565 C564 1.391 . S
C566 H556 0.950 . S
C566 C567 1.386 . S
C566 C568 1.391 . S
C567 C566 1.386 . S
C567 C571 1.393 . S
C568 H557 0.950 . S
C568 C566 1.391 . S
C568 C569 1.400 . S
C569 C563 1.491 . S
C569 C568 1.400 . S
C569 C570 1.398 . S
C570 H558 0.950 . S
C570 C569 1.398 . S
C570 C571 1.391 . S
C571 H559 0.950 . S
C571 C567 1.393 . S
C571 C570 1.391 . S
H572 C580 0.950 . S
H573 C585 0.950 . S
H574 C582 0.950 . S
H575 C584 0.950 . S
H576 C586 0.950 . S
H577 C588 0.950 . S
H578 C590 0.950 . S
H579 C591 0.950 . S
C580 H572 0.950 . S
C580 C581 1.386 . S
C580 C582 1.391 . S
C581 C580 1.386 . S
C581 C585 1.393 . S
C582 H574 0.950 . S
C582 C580 1.391 . S
C582 C583 1.400 . S
C583 C582 1.400 . S
C583 C584 1.398 . S
C583 C589 1.491 . S
C584 H575 0.950 . S
C584 C583 1.398 . S
C584 C585 1.391 . S
C585 H573 0.950 . S
C585 C581 1.393 . S
C585 C584 1.391 . S
C586 H576 0.950 . S
C586 C587 1.386 . S
C586 C588 1.391 . S
C587 C586 1.386 . S
C587 C591 1.393 . S
C588 H577 0.950 . S
C588 C586 1.391 . S
C588 C589 1.400 . S
C589 C583 1.491 . S
C589 C588 1.400 . S
C589 C590 1.398 . S
C590 H578 0.950 . S
C590 C589 1.398 . S
C590 C591 1.391 . S
C591 H579 0.950 . S
C591 C587 1.393 . S
C591 C590 1.391 . S
H592 C600 0.950 . S
H593 C605 0.950 . S
H594 C602 0.950 1_545 S
H595 C604 0.950 1_545 S
H596 C606 0.950 . S
H597 C608 0.950 . S
H598 C610 0.950 . S
H599 C611 0.950 . S
C600 H592 0.950 . S
C600 C601 1.386 . S
C600 C602 1.391 . S
C601 C600 1.386 . S
C601 C605 1.393 . S
C602 H594 0.950 1_565 S
C602 C600 1.391 . S
C602 C603 1.400 1_565 S
C603 C602 1.400 1_545 S
C603 C604 1.398 1_545 S
C603 C609 1.491 . S
C604 H595 0.950 1_565 S
C604 C603 1.398 1_565 S
C604 C605 1.391 . S
C605 H593 0.950 . S
C605 C601 1.393 . S
C605 C604 1.391 . S
C606 H596 0.950 . S
C606 C607 1.386 . S
C606 C608 1.391 . S
C607 C606 1.386 . S
C607 C611 1.393 . S
C608 H597 0.950 . S
C608 C606 1.391 . S
C608 C609 1.400 . S
C609 C603 1.491 . S
C609 C608 1.400 . S
C609 C610 1.398 . S
C610 H598 0.950 . S
C610 C609 1.398 . S
C610 C611 1.391 . S
C611 H599 0.950 . S
C611 C607 1.393 . S
C611 C610 1.391 . S
H612 C620 0.950 . S
H613 C625 0.950 . S
H614 C622 0.950 . S
H615 C624 0.950 . S
H616 C626 0.950 . S
H617 C628 0.950 . S
H618 C630 0.950 . S
H619 C631 0.950 . S
C620 H612 0.950 . S
C620 C621 1.386 . S
C620 C622 1.391 . S
C621 C620 1.386 . S
C621 C625 1.393 . S
C622 H614 0.950 . S
C622 C620 1.391 . S
C622 C623 1.400 . S
C623 C622 1.400 . S
C623 C624 1.398 . S
C623 C629 1.491 . S
C624 H615 0.950 . S
C624 C623 1.398 . S
C624 C625 1.391 . S
C625 H613 0.950 . S
C625 C621 1.393 . S
C625 C624 1.391 . S
C626 H616 0.950 . S
C626 C627 1.386 . S
C626 C628 1.391 1_655 S
C627 C626 1.386 . S
C627 C631 1.393 . S
C628 H617 0.950 . S
C628 C626 1.391 1_455 S
C628 C629 1.400 . S
C629 C623 1.491 . S
C629 C628 1.400 . S
C629 C630 1.398 1_455 S
C630 H618 0.950 . S
C630 C629 1.398 1_655 S
C630 C631 1.391 . S
C631 H619 0.950 . S
C631 C627 1.393 . S
C631 C630 1.391 . S
H632 C640 0.950 . S
H633 C645 0.950 . S
H634 C642 0.950 . S
H635 C644 0.950 . S
H636 C646 0.950 . S
H637 C648 0.940 1_565 S
H638 C650 0.959 . S
H639 C651 0.950 . S
C640 H632 0.950 . S
C640 C641 1.386 . S
C640 C642 1.391 . S
C641 C640 1.386 . S
C641 C645 1.393 . S
C642 H634 0.950 . S
C642 C640 1.391 . S
C642 C643 1.400 . S
C643 C642 1.400 . S
C643 C644 1.398 . S
C643 C649 1.491 . S
C644 H635 0.950 . S
C644 C643 1.398 . S
C644 C645 1.391 . S
C645 H633 0.950 . S
C645 C641 1.393 . S
C645 C644 1.391 . S
C646 H636 0.950 . S
C646 C647 1.386 . S
C646 C648 1.406 . S
C647 C646 1.386 . S
C647 C651 1.393 . S
C648 H637 0.940 1_545 S
C648 C646 1.406 . S
C648 C649 1.395 1_545 S
C649 C643 1.491 . S
C649 C648 1.395 1_565 S
C649 C650 1.398 1_565 S
C650 H638 0.959 . S
C650 C649 1.398 1_545 S
C650 C651 1.391 . S
C651 H639 0.950 . S
C651 C647 1.393 . S
C651 C650 1.391 . S
H652 C660 0.950 . S
H653 C665 0.950 . S
H654 C662 0.950 . S
H655 C664 0.950 . S
H656 C666 0.950 . S
H657 C668 0.950 . S
H658 C670 0.950 . S
H659 C671 0.950 . S
C660 H652 0.950 . S
C660 C661 1.386 . S
C660 C662 1.391 1_455 S
C661 C660 1.386 . S
C661 C665 1.393 . S
C662 H654 0.950 . S
C662 C660 1.391 1_655 S
C662 C663 1.400 . S
C663 C662 1.400 . S
C663 C664 1.398 1_655 S
C663 C669 1.491 . S
C664 H655 0.950 . S
C664 C663 1.398 1_455 S
C664 C665 1.391 . S
C665 H653 0.950 . S
C665 C661 1.393 . S
C665 C664 1.391 . S
C666 H656 0.950 . S
C666 C667 1.386 . S
C666 C668 1.391 . S
C667 C666 1.386 . S
C667 C671 1.393 . S
C668 H657 0.950 . S
C668 C666 1.391 . S
C668 C669 1.400 . S
C669 C663 1.491 . S
C669 C668 1.400 . S
C669 C670 1.398 . S
C670 H658 0.950 . S
C670 C669 1.398 . S
C670 C671 1.391 . S
C671 H659 0.950 . S
C671 C667 1.393 . S
C671 C670 1.391 . S
H672 C680 0.950 . S
H673 C685 0.950 . S
H674 C682 0.950 . S
H675 C684 0.950 . S
H676 C686 0.950 . S
H677 C688 0.950 . S
H678 C690 0.950 . S
H679 C691 0.950 . S
C680 H672 0.950 . S
C680 C681 1.386 . S
C680 C682 1.391 . S
C681 C680 1.386 . S
C681 C685 1.393 . S
C682 H674 0.950 . S
C682 C680 1.391 . S
C682 C683 1.400 . S
C683 C682 1.400 . S
C683 C684 1.398 . S
C683 C689 1.491 . S
C684 H675 0.950 . S
C684 C683 1.398 . S
C684 C685 1.391 . S
C685 H673 0.950 . S
C685 C681 1.393 . S
C685 C684 1.391 . S
C686 H676 0.950 . S
C686 C687 1.386 . S
C686 C688 1.391 . S
C687 C686 1.386 . S
C687 C691 1.393 . S
C688 H677 0.950 . S
C688 C686 1.391 . S
C688 C689 1.400 . S
C689 C683 1.491 . S
C689 C688 1.400 . S
C689 C690 1.398 . S
C690 H678 0.950 . S
C690 C689 1.398 . S
C690 C691 1.391 . S
C691 H679 0.950 . S
C691 C687 1.393 . S
C691 C690 1.391 . S
H692 C700 0.950 . S
H693 C705 0.950 . S
H694 C702 0.950 . S
H695 C704 0.950 . S
H696 C706 0.950 . S
H697 C708 0.950 . S
H698 C710 0.950 . S
H699 C711 0.950 . S
C700 H692 0.950 . S
C700 C701 1.386 . S
C700 C702 1.391 . S
C701 C700 1.386 . S
C701 C705 1.393 . S
C702 H694 0.950 . S
C702 C700 1.391 . S
C702 C703 1.400 . S
C703 C702 1.400 . S
C703 C704 1.398 . S
C703 C709 1.491 . S
C704 H695 0.950 . S
C704 C703 1.398 . S
C704 C705 1.391 . S
C705 H693 0.950 . S
C705 C701 1.393 . S
C705 C704 1.391 . S
C706 H696 0.950 . S
C706 C707 1.386 . S
C706 C708 1.391 . S
C707 C706 1.386 . S
C707 C711 1.393 . S
C708 H697 0.950 . S
C708 C706 1.391 . S
C708 C709 1.400 . S
C709 C703 1.491 . S
C709 C708 1.400 . S
C709 C710 1.398 . S
C710 H698 0.950 . S
C710 C709 1.398 . S
C710 C711 1.391 . S
C711 H699 0.950 . S
C711 C707 1.393 . S
C711 C710 1.391 . S
H712 C720 0.950 . S
H713 C725 0.950 . S
H714 C722 0.950 . S
H715 C724 0.950 . S
H716 C726 0.950 . S
H717 C728 0.950 . S
H718 C730 0.950 . S
H719 C731 0.950 . S
C720 H712 0.950 . S
C720 C721 1.386 . S
C720 C722 1.391 . S
C721 C720 1.386 . S
C721 C725 1.393 . S
C722 H714 0.950 . S
C722 C720 1.391 . S
C722 C723 1.400 . S
C723 C722 1.400 . S
C723 C724 1.398 . S
C723 C729 1.491 . S
C724 H715 0.950 . S
C724 C723 1.398 . S
C724 C725 1.391 . S
C725 H713 0.950 . S
C725 C721 1.393 . S
C725 C724 1.391 . S
C726 H716 0.950 . S
C726 C727 1.386 . S
C726 C728 1.391 . S
C727 C726 1.386 . S
C727 C731 1.393 . S
C728 H717 0.950 . S
C728 C726 1.391 . S
C728 C729 1.400 . S
C729 C723 1.491 . S
C729 C728 1.400 . S
C729 C730 1.398 . S
C730 H718 0.950 . S
C730 C729 1.398 . S
C730 C731 1.391 . S
C731 H719 0.950 . S
C731 C727 1.393 . S
C731 C730 1.391 . S
H732 C740 0.950 . S
H733 C745 0.950 . S
H734 C742 0.950 . S
H735 C744 0.950 . S
H736 C746 0.950 . S
H737 C748 0.950 . S
H738 C750 0.950 . S
H739 C751 0.950 . S
C740 H732 0.950 . S
C740 C741 1.386 . S
C740 C742 1.391 . S
C741 C740 1.386 . S
C741 C745 1.393 . S
C742 H734 0.950 . S
C742 C740 1.391 . S
C742 C743 1.400 . S
C743 C742 1.400 . S
C743 C744 1.398 . S
C743 C749 1.491 . S
C744 H735 0.950 . S
C744 C743 1.398 . S
C744 C745 1.391 . S
C745 H733 0.950 . S
C745 C741 1.393 . S
C745 C744 1.391 . S
C746 H736 0.950 . S
C746 C747 1.386 . S
C746 C748 1.391 . S
C747 C746 1.386 . S
C747 C751 1.393 . S
C748 H737 0.950 . S
C748 C746 1.391 . S
C748 C749 1.400 . S
C749 C743 1.491 . S
C749 C748 1.400 . S
C749 C750 1.398 . S
C750 H738 0.950 . S
C750 C749 1.398 . S
C750 C751 1.391 . S
C751 H739 0.950 . S
C751 C747 1.393 . S
C751 C750 1.391 . S
H752 C760 0.950 . S
H753 C765 0.950 . S
H754 C762 0.950 . S
H755 C764 0.950 . S
H756 C766 0.950 . S
H757 C768 0.950 . S
H758 C770 0.950 . S
H759 C771 0.950 . S
C760 H752 0.950 . S
C760 C761 1.386 . S
C760 C762 1.391 . S
C761 C760 1.386 . S
C761 C765 1.393 . S
C762 H754 0.950 . S
C762 C760 1.391 . S
C762 C763 1.400 . S
C763 C762 1.400 . S
C763 C764 1.398 . S
C763 C769 1.491 . S
C764 H755 0.950 . S
C764 C763 1.398 . S
C764 C765 1.391 . S
C765 H753 0.950 . S
C765 C761 1.393 . S
C765 C764 1.391 . S
C766 H756 0.950 . S
C766 C767 1.386 . S
C766 C768 1.391 . S
C767 C766 1.386 . S
C767 C771 1.393 . S
C768 H757 0.950 . S
C768 C766 1.391 . S
C768 C769 1.400 . S
C769 C763 1.491 . S
C769 C768 1.400 . S
C769 C770 1.398 . S
C770 H758 0.950 . S
C770 C769 1.398 . S
C770 C771 1.391 . S
C771 H759 0.950 . S
C771 C767 1.393 . S
C771 C770 1.391 . S
H772 C780 0.950 . S
H773 C785 0.950 . S
H774 C782 0.950 . S
H775 C784 0.950 . S
H776 C786 0.950 . S
H777 C788 0.950 . S
H778 C790 0.950 . S
H779 C791 0.950 . S
C780 H772 0.950 . S
C780 C781 1.386 . S
C780 C782 1.391 . S
C781 C780 1.386 . S
C781 C785 1.393 . S
C782 H774 0.950 . S
C782 C780 1.391 . S
C782 C783 1.400 . S
C783 C782 1.400 . S
C783 C784 1.398 . S
C783 C789 1.491 . S
C784 H775 0.950 . S
C784 C783 1.398 . S
C784 C785 1.391 . S
C785 H773 0.950 . S
C785 C781 1.393 . S
C785 C784 1.391 . S
C786 H776 0.950 . S
C786 C787 1.386 . S
C786 C788 1.391 . S
C787 C786 1.386 . S
C787 C791 1.393 . S
C788 H777 0.950 . S
C788 C786 1.391 . S
C788 C789 1.400 . S
C789 C783 1.491 . S
C789 C788 1.400 . S
C789 C790 1.398 . S
C790 H778 0.950 . S
C790 C789 1.398 . S
C790 C791 1.391 . S
C791 H779 0.950 . S
C791 C787 1.393 . S
C791 C790 1.391 . S
H792 C800 0.950 . S
H793 C805 0.950 . S
H794 C802 0.950 . S
H795 C804 0.950 . S
H796 C806 0.950 . S
H797 C808 0.950 . S
H798 C810 0.950 . S
H799 C811 0.950 . S
C800 H792 0.950 . S
C800 C801 1.386 . S
C800 C802 1.391 . S
C801 C800 1.386 . S
C801 C805 1.393 . S
C802 H794 0.950 . S
C802 C800 1.391 . S
C802 C803 1.400 . S
C803 C802 1.400 . S
C803 C804 1.398 . S
C803 C809 1.491 . S
C804 H795 0.950 . S
C804 C803 1.398 . S
C804 C805 1.391 . S
C805 H793 0.950 . S
C805 C801 1.393 . S
C805 C804 1.391 . S
C806 H796 0.950 . S
C806 C807 1.386 . S
C806 C808 1.391 . S
C807 C806 1.386 . S
C807 C811 1.393 . S
C808 H797 0.950 . S
C808 C806 1.391 . S
C808 C809 1.400 . S
C809 C803 1.491 . S
C809 C808 1.400 . S
C809 C810 1.398 . S
C810 H798 0.950 . S
C810 C809 1.398 . S
C810 C811 1.391 . S
C811 H799 0.950 . S
C811 C807 1.393 . S
C811 C810 1.391 . S
H812 C820 0.950 . S
H813 C825 0.950 . S
H814 C822 0.950 . S
H815 C824 0.950 . S
H816 C826 0.950 . S
H817 C828 0.950 . S
H818 C830 0.950 . S
H819 C831 0.950 . S
C820 H812 0.950 . S
C820 C821 1.386 . S
C820 C822 1.391 . S
C821 C820 1.386 . S
C821 C825 1.393 . S
C822 H814 0.950 . S
C822 C820 1.391 . S
C822 C823 1.400 . S
C823 C822 1.400 . S
C823 C824 1.398 . S
C823 C829 1.491 . S
C824 H815 0.950 . S
C824 C823 1.398 . S
C824 C825 1.391 . S
C825 H813 0.950 . S
C825 C821 1.393 . S
C825 C824 1.391 . S
C826 H816 0.950 . S
C826 C827 1.386 . S
C826 C828 1.391 . S
C827 C826 1.386 . S
C827 C831 1.393 . S
C828 H817 0.950 . S
C828 C826 1.391 . S
C828 C829 1.400 . S
C829 C823 1.491 . S
C829 C828 1.400 . S
C829 C830 1.398 . S
C830 H818 0.950 . S
C830 C829 1.398 . S
C830 C831 1.391 . S
C831 H819 0.950 . S
C831 C827 1.393 . S
C831 C830 1.391 . S
H832 C840 0.950 . S
H833 C845 0.950 . S
H834 C842 0.950 . S
H835 C844 0.950 . S
H836 C846 0.950 . S
H837 C848 0.950 . S
H838 C850 0.950 . S
H839 C851 0.950 . S
C840 H832 0.950 . S
C840 C841 1.386 . S
C840 C842 1.391 . S
C841 C840 1.386 . S
C841 C845 1.393 . S
C842 H834 0.950 . S
C842 C840 1.391 . S
C842 C843 1.400 . S
C843 C842 1.400 . S
C843 C844 1.398 . S
C843 C849 1.491 . S
C844 H835 0.950 . S
C844 C843 1.398 . S
C844 C845 1.391 . S
C845 H833 0.950 . S
C845 C841 1.393 . S
C845 C844 1.391 . S
C846 H836 0.950 . S
C846 C847 1.386 . S
C846 C848 1.391 . S
C847 C846 1.386 . S
C847 C851 1.393 . S
C848 H837 0.950 . S
C848 C846 1.391 . S
C848 C849 1.400 . S
C849 C843 1.491 . S
C849 C848 1.400 . S
C849 C850 1.398 . S
C850 H838 0.950 . S
C850 C849 1.398 . S
C850 C851 1.391 . S
C851 H839 0.950 . S
C851 C847 1.393 . S
C851 C850 1.391 . S
H852 C860 0.950 . S
H853 C865 0.950 . S
H854 C862 0.950 . S
H855 C864 0.950 . S
H856 C866 0.950 . S
H857 C868 0.950 . S
H858 C870 0.950 . S
H859 C871 0.950 . S
C860 H852 0.950 . S
C860 C861 1.386 . S
C860 C862 1.391 . S
C861 C860 1.386 . S
C861 C865 1.393 . S
C862 H854 0.950 . S
C862 C860 1.391 . S
C862 C863 1.400 . S
C863 C862 1.400 . S
C863 C864 1.398 . S
C863 C869 1.491 . S
C864 H855 0.950 . S
C864 C863 1.398 . S
C864 C865 1.391 . S
C865 H853 0.950 . S
C865 C861 1.393 . S
C865 C864 1.391 . S
C866 H856 0.950 . S
C866 C867 1.386 . S
C866 C868 1.391 . S
C867 C866 1.386 . S
C867 C871 1.393 . S
C868 H857 0.950 . S
C868 C866 1.391 . S
C868 C869 1.400 . S
C869 C863 1.491 . S
C869 C868 1.400 . S
C869 C870 1.398 . S
C870 H858 0.950 . S
C870 C869 1.398 . S
C870 C871 1.391 . S
C871 H859 0.950 . S
C871 C867 1.393 . S
C871 C870 1.391 . S
H872 C880 0.950 . S
H873 C885 0.950 . S
H874 C882 0.950 . S
H875 C884 0.950 . S
H876 C886 0.950 . S
H877 C888 0.950 . S
H878 C890 0.950 . S
H879 C891 0.950 . S
C880 H872 0.950 . S
C880 C881 1.386 . S
C880 C882 1.391 . S
C881 C880 1.386 . S
C881 C885 1.393 . S
C882 H874 0.950 . S
C882 C880 1.391 . S
C882 C883 1.400 . S
C883 C882 1.400 . S
C883 C884 1.398 . S
C883 C889 1.491 . S
C884 H875 0.950 . S
C884 C883 1.398 . S
C884 C885 1.391 . S
C885 H873 0.950 . S
C885 C881 1.393 . S
C885 C884 1.391 . S
C886 H876 0.950 . S
C886 C887 1.386 . S
C886 C888 1.391 . S
C887 C886 1.386 . S
C887 C891 1.393 . S
C888 H877 0.950 . S
C888 C886 1.391 . S
C888 C889 1.400 . S
C889 C883 1.491 . S
C889 C888 1.400 . S
C889 C890 1.398 . S
C890 H878 0.950 . S
C890 C889 1.398 . S
C890 C891 1.391 . S
C891 H879 0.950 . S
C891 C887 1.393 . S
C891 C890 1.391 . S
H892 C900 0.950 . S
H893 C905 0.950 . S
H894 C902 0.950 . S
H895 C904 0.950 . S
H896 C906 0.950 . S
H897 C908 0.950 . S
H898 C910 0.950 . S
H899 C911 0.950 . S
C900 H892 0.950 . S
C900 C901 1.386 . S
C900 C902 1.391 . S
C901 C900 1.386 . S
C901 C905 1.393 . S
C902 H894 0.950 . S
C902 C900 1.391 . S
C902 C903 1.400 . S
C903 C902 1.400 . S
C903 C904 1.398 . S
C903 C909 1.491 . S
C904 H895 0.950 . S
C904 C903 1.398 . S
C904 C905 1.391 . S
C905 H893 0.950 . S
C905 C901 1.393 . S
C905 C904 1.391 . S
C906 H896 0.950 . S
C906 C907 1.386 . S
C906 C908 1.391 . S
C907 C906 1.386 . S
C907 C911 1.393 . S
C908 H897 0.950 . S
C908 C906 1.391 . S
C908 C909 1.400 . S
C909 C903 1.491 . S
C909 C908 1.400 . S
C909 C910 1.398 . S
C910 H898 0.950 . S
C910 C909 1.398 . S
C910 C911 1.391 . S
C911 H899 0.950 . S
C911 C907 1.393 . S
C911 C910 1.391 . S
H912 C920 0.950 . S
H913 C925 0.950 . S
H914 C922 0.950 . S
H915 C924 0.950 1_554 S
H916 C926 0.950 . S
H917 C928 0.950 . S
H918 C930 0.950 . S
H919 C931 0.950 . S
C920 H912 0.950 . S
C920 C921 1.386 . S
C920 C922 1.391 . S
C921 C920 1.386 . S
C921 C925 1.393 . S
C922 H914 0.950 . S
C922 C920 1.391 . S
C922 C923 1.400 . S
C923 C922 1.400 . S
C923 C924 1.398 . S
C923 C929 1.491 . S
C924 H915 0.950 1_556 S
C924 C923 1.398 . S
C924 C925 1.391 . S
C925 H913 0.950 . S
C925 C921 1.393 . S
C925 C924 1.391 . S
C926 H916 0.950 . S
C926 C927 1.386 . S
C926 C928 1.391 1_565 S
C927 C926 1.386 . S
C927 C931 1.393 1_554 S
C928 H917 0.950 . S
C928 C926 1.391 1_545 S
C928 C929 1.400 1_554 S
C929 C923 1.491 . S
C929 C928 1.400 1_556 S
C929 C930 1.398 1_545 S
C930 H918 0.950 . S
C930 C929 1.398 1_565 S
C930 C931 1.391 . S
C931 H919 0.950 . S
C931 C927 1.393 1_556 S
C931 C930 1.391 . S
H932 C940 0.950 . S
H933 C945 0.950 . S
H934 C942 0.950 1_556 S
H935 C944 0.950 . S
H936 C946 0.950 . S
H937 C948 0.950 . S
H938 C950 0.950 . S
H939 C951 0.950 . S
C940 H932 0.950 . S
C940 C941 1.386 . S
C940 C942 1.391 . S
C941 C940 1.386 . S
C941 C945 1.393 . S
C942 H934 0.950 1_554 S
C942 C940 1.391 . S
C942 C943 1.400 . S
C943 C942 1.400 . S
C943 C944 1.398 . S
C943 C949 1.491 . S
C944 H935 0.950 . S
C944 C943 1.398 . S
C944 C945 1.391 . S
C945 H933 0.950 . S
C945 C941 1.393 . S
C945 C944 1.391 . S
C946 H936 0.950 . S
C946 C947 1.386 1_554 S
C946 C948 1.391 . S
C947 C946 1.386 1_556 S
C947 C951 1.393 . S
C948 H937 0.950 . S
C948 C946 1.391 . S
C948 C949 1.400 1_655 S
C949 C943 1.491 . S
C949 C948 1.400 1_455 S
C949 C950 1.398 1_554 S
C950 H938 0.950 . S
C950 C949 1.398 1_556 S
C950 C951 1.391 1_455 S
C951 H939 0.950 . S
C951 C947 1.393 . S
C951 C950 1.391 1_655 S
H952 C960 0.950 . S
H953 C965 0.950 . S
H954 C962 0.950 . S
H955 C964 0.950 . S
H956 C966 0.950 . S
H957 C968 0.950 1_554 S
H958 C970 0.950 . S
H959 C971 0.950 . S
C960 H952 0.950 . S
C960 C961 1.386 1_556 S
C960 C962 1.391 . S
C961 C960 1.386 1_554 S
C961 C965 1.393 . S
C962 H954 0.950 . S
C962 C960 1.391 . S
C962 C963 1.400 1_545 S
C963 C962 1.400 1_565 S
C963 C964 1.398 1_556 S
C963 C969 1.491 . S
C964 H955 0.950 . S
C964 C963 1.398 1_554 S
C964 C965 1.391 1_565 S
C965 H953 0.950 . S
C965 C961 1.393 . S
C965 C964 1.391 1_545 S
C966 H956 0.950 . S
C966 C967 1.386 . S
C966 C968 1.391 . S
C967 C966 1.386 . S
C967 C971 1.393 . S
C968 H957 0.950 1_556 S
C968 C966 1.391 . S
C968 C969 1.400 . S
C969 C963 1.491 . S
C969 C968 1.400 . S
C969 C970 1.398 . S
C970 H958 0.950 . S
C970 C969 1.398 . S
C970 C971 1.391 . S
C971 H959 0.950 . S
C971 C967 1.393 . S
C971 C970 1.391 . S
H972 C980 0.964 . S
H973 C985 0.950 . S
H974 C982 0.950 . S
H975 C984 0.950 . S
H976 C986 0.950 . S
H977 C988 0.950 . S
H978 C990 0.950 . S
H979 C991 0.950 . S
C980 H972 0.964 . S
C980 C981 1.403 . S
C980 C982 1.365 1_556 S
C981 C980 1.403 . S
C981 C985 1.393 . S
C982 H974 0.950 . S
C982 C980 1.365 1_554 S
C982 C983 1.400 1_455 S
C983 C982 1.400 1_655 S
C983 C984 1.398 . S
C983 C989 1.491 . S
C984 H975 0.950 . S
C984 C983 1.398 . S
C984 C985 1.391 1_654 S
C985 H973 0.950 . S
C985 C981 1.393 . S
C985 C984 1.391 1_456 S
C986 H976 0.950 . S
C986 C987 1.386 . S
C986 C988 1.391 . S
C987 C986 1.386 . S
C987 C991 1.393 . S
C988 H977 0.950 . S
C988 C986 1.391 . S
C988 C989 1.400 . S
C989 C983 1.491 . S
C989 C988 1.400 . S
C989 C990 1.398 . S
C990 H978 0.950 . S
C990 C989 1.398 . S
C990 C991 1.391 . S
C991 H979 0.950 . S
C991 C987 1.393 . S
C991 C990 1.391 . S
H992 C1000 0.950 . S
H993 C1005 0.950 . S
H994 C1002 0.950 1_565 S
H995 C1004 0.951 1_565 S
H996 C1006 0.950 . S
H997 C1008 0.950 . S
H998 C1010 0.950 . S
H999 C1011 0.950 . S
C1000 H992 0.950 . S
C1000 C1001 1.386 . S
C1000 C1002 1.391 . S
C1001 C1000 1.386 . S
C1001 C1005 1.393 . S
C1002 H994 0.950 1_545 S
C1002 C1000 1.391 . S
C1002 C1003 1.400 1_545 S
C1003 C1002 1.400 1_565 S
C1003 C1004 1.399 1_565 S
C1003 C1009 1.491 . S
C1004 H995 0.951 1_545 S
C1004 C1003 1.399 1_545 S
C1004 C1005 1.389 . S
C1005 H993 0.950 . S
C1005 C1001 1.393 . S
C1005 C1004 1.389 . S
C1006 H996 0.950 . S
C1006 C1007 1.386 . S
C1006 C1008 1.391 . S
C1007 C1006 1.386 . S
C1007 C1011 1.393 . S
C1008 H997 0.950 . S
C1008 C1006 1.391 . S
C1008 C1009 1.400 . S
C1009 C1003 1.491 . S
C1009 C1008 1.400 . S
C1009 C1010 1.398 . S
C1010 H998 0.950 . S
C1010 C1009 1.398 . S
C1010 C1011 1.391 . S
C1011 H999 0.950 . S
C1011 C1007 1.393 . S
C1011 C1010 1.391 . S
H1012 C1020 0.950 . S
H1013 C1025 0.950 . S
H1014 C1022 0.950 . S
H1015 C1024 0.950 . S
H1016 C1026 0.950 . S
H1017 C1028 0.950 . S
H1018 C1030 0.950 1_655 S
H1019 C1031 0.950 . S
C1020 H1012 0.950 . S
C1020 C1021 1.386 . S
C1020 C1022 1.391 . S
C1021 C1020 1.386 . S
C1021 C1025 1.393 . S
C1022 H1014 0.950 . S
C1022 C1020 1.391 . S
C1022 C1023 1.400 . S
C1023 C1022 1.400 . S
C1023 C1024 1.398 . S
C1023 C1029 1.491 . S
C1024 H1015 0.950 . S
C1024 C1023 1.398 . S
C1024 C1025 1.391 . S
C1025 H1013 0.950 . S
C1025 C1021 1.393 . S
C1025 C1024 1.391 . S
C1026 H1016 0.950 . S
C1026 C1027 1.386 . S
C1026 C1028 1.391 1_455 S
C1027 C1026 1.386 . S
C1027 C1031 1.393 . S
C1028 H1017 0.950 . S
C1028 C1026 1.391 1_655 S
C1028 C1029 1.400 . S
C1029 C1023 1.491 . S
C1029 C1028 1.400 . S
C1029 C1030 1.398 1_655 S
C1030 H1018 0.950 1_455 S
C1030 C1029 1.398 1_455 S
C1030 C1031 1.391 . S
C1031 H1019 0.950 . S
C1031 C1027 1.393 . S
C1031 C1030 1.391 . S
H1032 C1040 0.950 . S
H1033 C1045 0.950 . S
H1034 C1042 0.950 . S
H1035 C1044 0.950 . S
H1036 C1046 0.950 . S
H1037 C1048 0.950 . S
H1038 C1050 0.950 . S
H1039 C1051 0.950 . S
C1040 H1032 0.950 . S
C1040 C1041 1.386 . S
C1040 C1042 1.391 . S
C1041 C1040 1.386 . S
C1041 C1045 1.393 . S
C1042 H1034 0.950 . S
C1042 C1040 1.391 . S
C1042 C1043 1.400 . S
C1043 C1042 1.400 . S
C1043 C1044 1.398 . S
C1043 C1049 1.491 . S
C1044 H1035 0.950 . S
C1044 C1043 1.398 . S
C1044 C1045 1.391 . S
C1045 H1033 0.950 . S
C1045 C1041 1.393 . S
C1045 C1044 1.391 . S
C1046 H1036 0.950 . S
C1046 C1047 1.386 . S
C1046 C1048 1.391 1_565 S
C1047 C1046 1.386 . S
C1047 C1051 1.393 . S
C1048 H1037 0.950 . S
C1048 C1046 1.391 1_545 S
C1048 C1049 1.400 . S
C1049 C1043 1.491 . S
C1049 C1048 1.400 . S
C1049 C1050 1.398 1_545 S
C1050 H1038 0.950 . S
C1050 C1049 1.398 1_565 S
C1050 C1051 1.391 . S
C1051 H1039 0.950 . S
C1051 C1047 1.393 . S
C1051 C1050 1.391 . S
H1052 C1060 0.950 . S
H1053 C1065 0.950 . S
H1054 C1062 0.950 . S
H1055 C1064 0.950 . S
H1056 C1066 0.950 . S
H1057 C1068 0.950 . S
H1058 C1070 0.950 . S
H1059 C1071 0.950 . S
C1060 H1052 0.950 . S
C1060 C1061 1.386 . S
C1060 C1062 1.391 1_655 S
C1061 C1060 1.386 . S
C1061 C1065 1.393 . S
C1062 H1054 0.950 . S
C1062 C1060 1.391 1_455 S
C1062 C1063 1.400 . S
C1063 C1062 1.400 . S
C1063 C1064 1.398 1_455 S
C1063 C1069 1.491 . S
C1064 H1055 0.950 . S
C1064 C1063 1.398 1_655 S
C1064 C1065 1.391 . S
C1065 H1053 0.950 . S
C1065 C1061 1.393 . S
C1065 C1064 1.391 . S
C1066 H1056 0.950 . S
C1066 C1067 1.386 . S
C1066 C1068 1.391 . S
C1067 C1066 1.386 . S
C1067 C1071 1.393 . S
C1068 H1057 0.950 . S
C1068 C1066 1.391 . S
C1068 C1069 1.400 . S
C1069 C1063 1.491 . S
C1069 C1068 1.400 . S
C1069 C1070 1.398 . S
C1070 H1058 0.950 . S
C1070 C1069 1.398 . S
C1070 C1071 1.391 . S
C1071 H1059 0.950 . S
C1071 C1067 1.393 . S
C1071 C1070 1.391 . S
H1072 C1080 0.950 . S
H1073 C1085 0.950 . S
H1074 C1082 0.950 . S
H1075 C1084 0.950 . S
H1076 C1086 0.950 . S
H1077 C1088 0.950 . S
H1078 C1090 0.950 . S
H1079 C1091 0.950 . S
C1080 H1072 0.950 . S
C1080 C1081 1.386 . S
C1080 C1082 1.391 . S
C1081 C1080 1.386 . S
C1081 C1085 1.393 . S
C1082 H1074 0.950 . S
C1082 C1080 1.391 . S
C1082 C1083 1.400 . S
C1083 C1082 1.400 . S
C1083 C1084 1.398 . S
C1083 C1089 1.491 . S
C1084 H1075 0.950 . S
C1084 C1083 1.398 . S
C1084 C1085 1.391 . S
C1085 H1073 0.950 . S
C1085 C1081 1.393 . S
C1085 C1084 1.391 . S
C1086 H1076 0.950 . S
C1086 C1087 1.386 . S
C1086 C1088 1.391 . S
C1087 C1086 1.386 . S
C1087 C1091 1.393 . S
C1088 H1077 0.950 . S
C1088 C1086 1.391 . S
C1088 C1089 1.400 . S
C1089 C1083 1.491 . S
C1089 C1088 1.400 . S
C1089 C1090 1.398 . S
C1090 H1078 0.950 . S
C1090 C1089 1.398 . S
C1090 C1091 1.391 . S
C1091 H1079 0.950 . S
C1091 C1087 1.393 . S
C1091 C1090 1.391 . S
H1092 C1100 0.950 . S
H1093 C1105 0.950 . S
H1094 C1102 0.950 . S
H1095 C1104 0.950 . S
H1096 C1106 0.950 . S
H1097 C1108 0.950 . S
H1098 C1110 0.950 . S
H1099 C1111 0.950 . S
C1100 H1092 0.950 . S
C1100 C1101 1.386 . S
C1100 C1102 1.391 . S
C1101 C1100 1.386 . S
C1101 C1105 1.393 . S
C1102 H1094 0.950 . S
C1102 C1100 1.391 . S
C1102 C1103 1.400 . S
C1103 C1102 1.400 . S
C1103 C1104 1.398 . S
C1103 C1109 1.491 . S
C1104 H1095 0.950 . S
C1104 C1103 1.398 . S
C1104 C1105 1.391 . S
C1105 H1093 0.950 . S
C1105 C1101 1.393 . S
C1105 C1104 1.391 . S
C1106 H1096 0.950 . S
C1106 C1107 1.386 . S
C1106 C1108 1.391 . S
C1107 C1106 1.386 . S
C1107 C1111 1.393 . S
C1108 H1097 0.950 . S
C1108 C1106 1.391 . S
C1108 C1109 1.400 . S
C1109 C1103 1.491 . S
C1109 C1108 1.400 . S
C1109 C1110 1.398 . S
C1110 H1098 0.950 . S
C1110 C1109 1.398 . S
C1110 C1111 1.391 . S
C1111 H1099 0.950 . S
C1111 C1107 1.393 . S
C1111 C1110 1.391 . S
H1112 C1120 0.950 . S
H1113 C1125 0.950 . S
H1114 C1122 0.950 . S
H1115 C1124 0.950 . S
H1116 C1126 0.950 . S
H1117 C1128 0.950 . S
H1118 C1130 0.950 . S
H1119 C1131 0.950 . S
C1120 H1112 0.950 . S
C1120 C1121 1.386 . S
C1120 C1122 1.391 . S
C1121 C1120 1.386 . S
C1121 C1125 1.393 . S
C1122 H1114 0.950 . S
C1122 C1120 1.391 . S
C1122 C1123 1.400 . S
C1123 C1122 1.400 . S
C1123 C1124 1.398 . S
C1123 C1129 1.491 . S
C1124 H1115 0.950 . S
C1124 C1123 1.398 . S
C1124 C1125 1.391 . S
C1125 H1113 0.950 . S
C1125 C1121 1.393 . S
C1125 C1124 1.391 . S
C1126 H1116 0.950 . S
C1126 C1127 1.386 . S
C1126 C1128 1.391 . S
C1127 C1126 1.386 . S
C1127 C1131 1.393 . S
C1128 H1117 0.950 . S
C1128 C1126 1.391 . S
C1128 C1129 1.400 . S
C1129 C1123 1.491 . S
C1129 C1128 1.400 . S
C1129 C1130 1.398 . S
C1130 H1118 0.950 . S
C1130 C1129 1.398 . S
C1130 C1131 1.391 . S
C1131 H1119 0.950 . S
C1131 C1127 1.393 . S
C1131 C1130 1.391 . S
H1132 C1140 0.950 . S
H1133 C1145 0.950 . S
H1134 C1142 0.950 . S
H1135 C1144 0.950 . S
H1136 C1146 0.950 . S
H1137 C1148 0.950 . S
H1138 C1150 0.950 . S
H1139 C1151 0.950 . S
C1140 H1132 0.950 . S
C1140 C1141 1.386 . S
C1140 C1142 1.391 . S
C1141 C1140 1.386 . S
C1141 C1145 1.393 . S
C1142 H1134 0.950 . S
C1142 C1140 1.391 . S
C1142 C1143 1.400 . S
C1143 C1142 1.400 . S
C1143 C1144 1.398 . S
C1143 C1149 1.491 . S
C1144 H1135 0.950 . S
C1144 C1143 1.398 . S
C1144 C1145 1.391 . S
C1145 H1133 0.950 . S
C1145 C1141 1.393 . S
C1145 C1144 1.391 . S
C1146 H1136 0.950 . S
C1146 C1147 1.386 . S
C1146 C1148 1.391 . S
C1147 C1146 1.386 . S
C1147 C1151 1.393 . S
C1148 H1137 0.950 . S
C1148 C1146 1.391 . S
C1148 C1149 1.400 . S
C1149 C1143 1.491 . S
C1149 C1148 1.400 . S
C1149 C1150 1.398 . S
C1150 H1138 0.950 . S
C1150 C1149 1.398 . S
C1150 C1151 1.391 . S
C1151 H1139 0.950 . S
C1151 C1147 1.393 . S
C1151 C1150 1.391 . S
H1152 C1160 0.950 . S
H1153 C1165 0.950 . S
H1154 C1162 0.950 1_565 S
H1155 C1164 0.950 1_655 S
H1156 C1166 0.950 . S
H1157 C1168 0.950 1_545 S
H1158 C1170 0.950 1_455 S
H1159 C1171 0.950 . S
C1160 H1152 0.950 . S
C1160 C1161 1.386 . S
C1160 C1162 1.391 . S
C1161 C1160 1.386 . S
C1161 C1165 1.393 . S
C1162 H1154 0.950 1_545 S
C1162 C1160 1.391 . S
C1162 C1163 1.400 . S
C1163 C1162 1.400 . S
C1163 C1164 1.398 . S
C1163 C1169 1.491 1_445 S
C1164 H1155 0.950 1_455 S
C1164 C1163 1.398 . S
C1164 C1165 1.391 . S
C1165 H1153 0.950 . S
C1165 C1161 1.393 . S
C1165 C1164 1.391 . S
C1166 H1156 0.950 . S
C1166 C1167 1.386 . S
C1166 C1168 1.391 . S
C1167 C1166 1.386 . S
C1167 C1171 1.393 . S
C1168 H1157 0.950 1_565 S
C1168 C1166 1.391 . S
C1168 C1169 1.400 . S
C1169 C1163 1.491 1_665 S
C1169 C1168 1.400 . S
C1169 C1170 1.398 . S
C1170 H1158 0.950 1_655 S
C1170 C1169 1.398 . S
C1170 C1171 1.391 . S
C1171 H1159 0.950 . S
C1171 C1167 1.393 . S
C1171 C1170 1.391 . S
H1172 C1180 0.950 . S
H1173 C1185 0.950 . S
H1174 C1182 0.950 1_565 S
H1175 C1184 0.950 1_455 S
H1176 C1186 0.950 . S
H1177 C1188 0.950 1_545 S
H1178 C1190 0.950 1_655 S
H1179 C1191 0.950 . S
C1180 H1172 0.950 . S
C1180 C1181 1.386 . S
C1180 C1182 1.391 . S
C1181 C1180 1.386 . S
C1181 C1185 1.393 . S
C1182 H1174 0.950 1_545 S
C1182 C1180 1.391 . S
C1182 C1183 1.400 . S
C1183 C1182 1.400 . S
C1183 C1184 1.398 . S
C1183 C1189 1.491 1_645 S
C1184 H1175 0.950 1_655 S
C1184 C1183 1.398 . S
C1184 C1185 1.391 . S
C1185 H1173 0.950 . S
C1185 C1181 1.393 . S
C1185 C1184 1.391 . S
C1186 H1176 0.950 . S
C1186 C1187 1.386 . S
C1186 C1188 1.391 . S
C1187 C1186 1.386 . S
C1187 C1191 1.393 . S
C1188 H1177 0.950 1_565 S
C1188 C1186 1.391 . S
C1188 C1189 1.400 . S
C1189 C1183 1.491 1_465 S
C1189 C1188 1.400 . S
C1189 C1190 1.398 . S
C1190 H1178 0.950 1_455 S
C1190 C1189 1.398 . S
C1190 C1191 1.391 . S
C1191 H1179 0.950 . S
C1191 C1187 1.393 . S
C1191 C1190 1.391 . S
H1192 C1200 0.950 . S
H1193 C1205 0.950 . S
H1194 C1202 0.950 1_655 S
H1195 C1204 0.950 . S
H1196 C1206 0.950 . S
H1197 C1208 0.950 1_455 S
H1198 C1210 0.950 . S
H1199 C1211 0.950 . S
C1200 H1192 0.950 . S
C1200 C1201 1.386 . S
C1200 C1202 1.391 . S
C1201 C1200 1.386 . S
C1201 C1205 1.393 . S
C1202 H1194 0.950 1_455 S
C1202 C1200 1.391 . S
C1202 C1203 1.400 . S
C1203 C1202 1.400 . S
C1203 C1204 1.398 . S
C1203 C1209 1.491 1_455 S
C1204 H1195 0.950 . S
C1204 C1203 1.398 . S
C1204 C1205 1.391 . S
C1205 H1193 0.950 . S
C1205 C1201 1.393 . S
C1205 C1204 1.391 . S
C1206 H1196 0.950 . S
C1206 C1207 1.386 . S
C1206 C1208 1.391 . S
C1207 C1206 1.386 . S
C1207 C1211 1.393 . S
C1208 H1197 0.950 1_655 S
C1208 C1206 1.391 . S
C1208 C1209 1.400 . S
C1209 C1203 1.491 1_655 S
C1209 C1208 1.400 . S
C1209 C1210 1.398 . S
C1210 H1198 0.950 . S
C1210 C1209 1.398 . S
C1210 C1211 1.391 . S
C1211 H1199 0.950 . S
C1211 C1207 1.393 . S
C1211 C1210 1.391 . S
H1212 C1220 0.950 . S
H1213 C1225 0.950 . S
H1214 C1222 0.950 . S
H1215 C1224 0.950 . S
H1216 C1226 0.950 . S
H1217 C1228 0.950 . S
H1218 C1230 0.950 . S
H1219 C1231 0.950 . S
C1220 H1212 0.950 . S
C1220 C1221 1.386 . S
C1220 C1222 1.391 . S
C1221 C1220 1.386 . S
C1221 C1225 1.393 . S
C1222 H1214 0.950 . S
C1222 C1220 1.391 . S
C1222 C1223 1.400 . S
C1223 C1222 1.400 . S
C1223 C1224 1.398 . S
C1223 C1229 1.491 1_565 S
C1224 H1215 0.950 . S
C1224 C1223 1.398 . S
C1224 C1225 1.391 . S
C1225 H1213 0.950 . S
C1225 C1221 1.393 . S
C1225 C1224 1.391 . S
C1226 H1216 0.950 . S
C1226 C1227 1.386 . S
C1226 C1228 1.391 . S
C1227 C1226 1.386 . S
C1227 C1231 1.393 . S
C1228 H1217 0.950 . S
C1228 C1226 1.391 . S
C1228 C1229 1.400 . S
C1229 C1223 1.491 1_545 S
C1229 C1228 1.400 . S
C1229 C1230 1.398 . S
C1230 H1218 0.950 . S
C1230 C1229 1.398 . S
C1230 C1231 1.391 . S
C1231 H1219 0.950 . S
C1231 C1227 1.393 . S
C1231 C1230 1.391 . S
H1232 C1240 0.950 . S
H1233 C1245 0.950 . S
H1234 C1242 0.950 . S
H1235 C1244 0.950 . S
H1236 C1246 0.950 . S
H1237 C1248 0.950 . S
H1238 C1250 0.950 . S
H1239 C1251 0.950 . S
C1240 H1232 0.950 . S
C1240 C1241 1.386 . S
C1240 C1242 1.391 . S
C1241 C1240 1.386 . S
C1241 C1245 1.393 . S
C1242 H1234 0.950 . S
C1242 C1240 1.391 . S
C1242 C1243 1.400 . S
C1243 C1242 1.400 . S
C1243 C1244 1.398 . S
C1243 C1249 1.491 . S
C1244 H1235 0.950 . S
C1244 C1243 1.398 . S
C1244 C1245 1.391 . S
C1245 H1233 0.950 . S
C1245 C1241 1.393 . S
C1245 C1244 1.391 . S
C1246 H1236 0.950 . S
C1246 C1247 1.386 . S
C1246 C1248 1.391 . S
C1247 C1246 1.386 . S
C1247 C1251 1.393 . S
C1248 H1237 0.950 . S
C1248 C1246 1.391 . S
C1248 C1249 1.400 . S
C1249 C1243 1.491 . S
C1249 C1248 1.400 . S
C1249 C1250 1.398 . S
C1250 H1238 0.950 . S
C1250 C1249 1.398 . S
C1250 C1251 1.391 . S
C1251 H1239 0.950 . S
C1251 C1247 1.393 . S
C1251 C1250 1.391 . S
H1252 C1260 0.950 . S
H1253 C1265 0.950 . S
H1254 C1262 0.950 . S
H1255 C1264 0.950 . S
H1256 C1266 0.950 . S
H1257 C1268 0.950 . S
H1258 C1270 0.950 . S
H1259 C1271 0.950 . S
C1260 H1252 0.950 . S
C1260 C1261 1.386 . S
C1260 C1262 1.391 . S
C1261 C1260 1.386 . S
C1261 C1265 1.393 . S
C1262 H1254 0.950 . S
C1262 C1260 1.391 . S
C1262 C1263 1.400 . S
C1263 C1262 1.400 . S
C1263 C1264 1.398 . S
C1263 C1269 1.491 . S
C1264 H1255 0.950 . S
C1264 C1263 1.398 . S
C1264 C1265 1.391 . S
C1265 H1253 0.950 . S
C1265 C1261 1.393 . S
C1265 C1264 1.391 . S
C1266 H1256 0.950 . S
C1266 C1267 1.386 . S
C1266 C1268 1.391 . S
C1267 C1266 1.386 . S
C1267 C1271 1.393 . S
C1268 H1257 0.950 . S
C1268 C1266 1.391 . S
C1268 C1269 1.400 . S
C1269 C1263 1.491 . S
C1269 C1268 1.400 . S
C1269 C1270 1.398 . S
C1270 H1258 0.950 . S
C1270 C1269 1.398 . S
C1270 C1271 1.391 . S
C1271 H1259 0.950 . S
C1271 C1267 1.393 . S
C1271 C1270 1.391 . S
H1272 C1280 0.950 . S
H1273 C1285 0.950 . S
H1274 C1282 0.950 . S
H1275 C1284 0.950 1_545 S
H1276 C1286 0.950 . S
H1277 C1288 0.950 . S
H1278 C1290 0.950 1_565 S
H1279 C1291 0.950 . S
C1280 H1272 0.950 . S
C1280 C1281 1.386 . S
C1280 C1282 1.391 . S
C1281 C1280 1.386 . S
C1281 C1285 1.393 . S
C1282 H1274 0.950 . S
C1282 C1280 1.391 . S
C1282 C1283 1.400 . S
C1283 C1282 1.400 . S
C1283 C1284 1.398 . S
C1283 C1289 1.491 1_565 S
C1284 H1275 0.950 1_565 S
C1284 C1283 1.398 . S
C1284 C1285 1.391 . S
C1285 H1273 0.950 . S
C1285 C1281 1.393 . S
C1285 C1284 1.391 . S
C1286 H1276 0.950 . S
C1286 C1287 1.386 . S
C1286 C1288 1.391 . S
C1287 C1286 1.386 . S
C1287 C1291 1.393 . S
C1288 H1277 0.950 . S
C1288 C1286 1.391 . S
C1288 C1289 1.400 . S
C1289 C1283 1.491 1_545 S
C1289 C1288 1.400 . S
C1289 C1290 1.398 . S
C1290 H1278 0.950 1_545 S
C1290 C1289 1.398 . S
C1290 C1291 1.391 . S
C1291 H1279 0.950 . S
C1291 C1287 1.393 . S
C1291 C1290 1.391 . S
H1292 C1300 0.950 . S
H1293 C1305 0.950 . S
H1294 C1302 0.950 . S
H1295 C1304 0.950 1_455 S
H1296 C1306 0.950 . S
H1297 C1308 0.950 . S
H1298 C1310 0.950 1_655 S
H1299 C1311 0.950 . S
C1300 H1292 0.950 . S
C1300 C1301 1.386 . S
C1300 C1302 1.391 . S
C1301 C1300 1.386 . S
C1301 C1305 1.393 . S
C1302 H1294 0.950 . S
C1302 C1300 1.391 . S
C1302 C1303 1.400 . S
C1303 C1302 1.400 . S
C1303 C1304 1.398 . S
C1303 C1309 1.491 1_655 S
C1304 H1295 0.950 1_655 S
C1304 C1303 1.398 . S
C1304 C1305 1.391 . S
C1305 H1293 0.950 . S
C1305 C1301 1.393 . S
C1305 C1304 1.391 . S
C1306 H1296 0.950 . S
C1306 C1307 1.386 . S
C1306 C1308 1.391 . S
C1307 C1306 1.386 . S
C1307 C1311 1.393 . S
C1308 H1297 0.950 . S
C1308 C1306 1.391 . S
C1308 C1309 1.400 . S
C1309 C1303 1.491 1_455 S
C1309 C1308 1.400 . S
C1309 C1310 1.398 . S
C1310 H1298 0.950 1_455 S
C1310 C1309 1.398 . S
C1310 C1311 1.391 . S
C1311 H1299 0.950 . S
C1311 C1307 1.393 . S
C1311 C1310 1.391 . S
C361 C247 1.451 . S
C367 C9 1.437 . S
C381 C28 1.412 . S
C387 C182 1.456 . S
C401 C49 1.437 . S
C407 C207 1.452 . S
C421 C227 1.460 . S
C427 C73 1.428 . S
C441 C93 1.422 . S
C447 C119 1.463 . S
C461 C116 1.418 . S
C467 C138 1.464 . S
C481 C159 1.465 . S
C487 C141 1.414 . S
C501 C95 1.445 . S
C507 C161 1.430 . S
C521 C185 1.435 . S
C527 C71 1.454 . S
C541 C204 1.410 . S
C547 C6 1.461 . S
C561 C31 1.464 . S
C567 C225 1.413 . S
C581 C249 1.418 . S
C587 C51 1.451 . S
C601 C269 1.429 . S
C607 C295 1.460 . S
C621 C314 1.445 . S
C627 C292 1.432 . S
C641 C335 1.464 . S
C647 C317 1.419 . S
C661 C337 1.413 . S
C667 C271 1.455 . S
C681 C4 1.459 . S
C687 C312 1.439 . S
C701 C30 1.433 . S
C707 C334 1.453 . S
C721 C52 1.458 . S
C727 C272 1.437 . S
C741 C70 1.438 . S
C747 C294 1.437 . S
C761 C96 1.433 . S
C767 C228 1.446 . S
C781 C118 1.450 . S
C787 C246 1.432 . S
C801 C136 1.453 . S
C807 C180 1.433 . S
C821 C158 1.445 . S
C827 C206 1.460 . S
C841 C5 1.158 . S
C847 C251 1.137 . S
C861 C29 1.128 . S
C867 C183 1.149 . S
C881 C203 1.161 . S
C887 C53 1.131 . S
C901 C72 1.146 . S
C907 C226 1.158 . S
C921 C97 1.151 . S
C927 C115 1.132 . S
C941 C117 1.154 . S
C947 C139 1.132 . S
C961 C163 1.132 . S
C967 C137 1.150 . S
C981 C94 1.155 . S
C987 C160 1.127 . S
C1001 C75 1.139 . S
C1007 C181 1.136 . S
C1021 C205 1.148 . S
C1027 C7 1.156 . S
C1041 C229 1.145 . S
C1047 C27 1.133 . S
C1061 C50 1.137 . S
C1067 C248 1.138 . S
C1081 C273 1.134 . S
C1087 C291 1.141 . S
C1101 C293 1.156 . S
C1107 C315 1.134 . S
C1121 C339 1.135 . S
C1127 C313 1.142 . S
C1141 C270 1.162 . S
C1147 C336 1.134 . S
C1161 C8 1.712 . S
C1167 C48 1.706 . S
C1181 C74 1.711 . S
C1187 C26 1.706 . S
C1201 C92 1.706 . S
C1207 C140 1.711 . S
C1221 C114 1.708 . S
C1227 C162 1.708 . S
C1241 C184 1.708 . S
C1247 C224 1.708 . S
C1261 C250 1.706 . S
C1267 C202 1.712 . S
C1281 C268 1.707 . S
C1287 C316 1.709 . S
C1301 C290 1.711 . S
C1307 C338 1.706 . S
