# Generated by pormake.
# Topology wju, (5)-cn, num edge types: 1
# Building blocks:
#     Node 0, Type 0, BuildingBlock: XOMCOT_clean_sbu_0, # of connection points: 5
#     Node 1, Type 0, BuildingBlock: XOMCOT_clean_sbu_0, # of connection points: 5
#     Node 2, Type 0, BuildingBlock: XOMCOT_clean_sbu_0, # of connection points: 5
#     Node 3, Type 0, BuildingBlock: XOMCOT_clean_sbu_0, # of connection points: 5
#     Node 4, Type 0, BuildingBlock: XOMCOT_clean_sbu_0, # of connection points: 5
#     Node 5, Type 0, BuildingBlock: XOMCOT_clean_sbu_0, # of connection points: 5
#     Node 6, Type 0, BuildingBlock: XOMCOT_clean_sbu_0, # of connection points: 5
#     Node 7, Type 0, BuildingBlock: XOMCOT_clean_sbu_0, # of connection points: 5
#     Node 8, Type 0, BuildingBlock: XOMCOT_clean_sbu_0, # of connection points: 5
#     Node 9, Type 0, BuildingBlock: XOMCOT_clean_sbu_0, # of connection points: 5
#     Node 10, Type 0, BuildingBlock: XOMCOT_clean_sbu_0, # of connection points: 5
#     Node 11, Type 0, BuildingBlock: XOMCOT_clean_sbu_0, # of connection points: 5
#     Edge 12, Type (0, 0), BuildingBlock: MIFKUJ_clean_linker_0, # of connection points: 2
#     Edge 13, Type (0, 0), BuildingBlock: MIFKUJ_clean_linker_0, # of connection points: 2
#     Edge 14, Type (0, 0), BuildingBlock: MIFKUJ_clean_linker_0, # of connection points: 2
#     Edge 15, Type (0, 0), BuildingBlock: MIFKUJ_clean_linker_0, # of connection points: 2
#     Edge 16, Type (0, 0), BuildingBlock: MIFKUJ_clean_linker_0, # of connection points: 2
#     Edge 17, Type (0, 0), BuildingBlock: MIFKUJ_clean_linker_0, # of connection points: 2
#     Edge 18, Type (0, 0), BuildingBlock: MIFKUJ_clean_linker_0, # of connection points: 2
#     Edge 19, Type (0, 0), BuildingBlock: MIFKUJ_clean_linker_0, # of connection points: 2
#     Edge 20, Type (0, 0), BuildingBlock: MIFKUJ_clean_linker_0, # of connection points: 2
#     Edge 21, Type (0, 0), BuildingBlock: MIFKUJ_clean_linker_0, # of connection points: 2
#     Edge 22, Type (0, 0), BuildingBlock: MIFKUJ_clean_linker_0, # of connection points: 2
#     Edge 23, Type (0, 0), BuildingBlock: MIFKUJ_clean_linker_0, # of connection points: 2
#     Edge 24, Type (0, 0), BuildingBlock: MIFKUJ_clean_linker_0, # of connection points: 2
#     Edge 25, Type (0, 0), BuildingBlock: MIFKUJ_clean_linker_0, # of connection points: 2
#     Edge 26, Type (0, 0), BuildingBlock: MIFKUJ_clean_linker_0, # of connection points: 2
#     Edge 27, Type (0, 0), BuildingBlock: MIFKUJ_clean_linker_0, # of connection points: 2
#     Edge 28, Type (0, 0), BuildingBlock: MIFKUJ_clean_linker_0, # of connection points: 2
#     Edge 29, Type (0, 0), BuildingBlock: MIFKUJ_clean_linker_0, # of connection points: 2
#     Edge 30, Type (0, 0), BuildingBlock: MIFKUJ_clean_linker_0, # of connection points: 2
#     Edge 31, Type (0, 0), BuildingBlock: MIFKUJ_clean_linker_0, # of connection points: 2
#     Edge 32, Type (0, 0), BuildingBlock: MIFKUJ_clean_linker_0, # of connection points: 2
#     Edge 33, Type (0, 0), BuildingBlock: MIFKUJ_clean_linker_0, # of connection points: 2
#     Edge 34, Type (0, 0), BuildingBlock: MIFKUJ_clean_linker_0, # of connection points: 2
#     Edge 35, Type (0, 0), BuildingBlock: MIFKUJ_clean_linker_0, # of connection points: 2
#     Edge 36, Type (0, 0), BuildingBlock: MIFKUJ_clean_linker_0, # of connection points: 2
#     Edge 37, Type (0, 0), BuildingBlock: MIFKUJ_clean_linker_0, # of connection points: 2
#     Edge 38, Type (0, 0), BuildingBlock: MIFKUJ_clean_linker_0, # of connection points: 2
#     Edge 39, Type (0, 0), BuildingBlock: MIFKUJ_clean_linker_0, # of connection points: 2
#     Edge 40, Type (0, 0), BuildingBlock: MIFKUJ_clean_linker_0, # of connection points: 2
#     Edge 41, Type (0, 0), BuildingBlock: MIFKUJ_clean_linker_0, # of connection points: 2
# Relax obj value: 0.107
# Max RMSD: 0.150
# Mean RMSD: 0.150
data_MOF--net-wju--node1-XOMCOT_clean_sbu_0--edge1-MIFKUJ_clean_linker_0
_symmetry_space_group_name_H-M    P1
_symmetry_Int_Tables_number       1
_symmetry_cell_setting            triclinic
loop_
_symmetry_equiv_pos_as_xyz
'x, y, z'
_cell_length_a     35.715784
_cell_length_b     35.757578
_cell_length_c     128.80608
_cell_angle_alpha  90.001936
_cell_angle_beta   89.878015
_cell_angle_gamma 120.01616
loop_
_atom_site_label
_atom_site_type_symbol
_atom_site_fract_x
_atom_site_fract_y
_atom_site_fract_z
_atom_type_partial_charge
Co0 Co 0.31709 0.1226 0.09598 0.0
C1 C 0.32926 0.13614 0.11908 0.0
C2 C 0.26895 0.08083 0.11468 0.0
C3 C 0.27094 0.08294 0.1253 0.0
N4 N 0.30526 0.11408 0.11074 0.0
N5 N 0.30889 0.11749 0.12814 0.0
H6 H 0.36106 0.1645 0.11852 0.0
H7 H 0.24279 0.05631 0.11012 0.0
C8 C 0.23448 0.11231 0.08659 0.0
O9 O 0.25663 0.13982 0.07918 0.0
N10 N 0.3276 0.12886 0.08102 0.0
C11 C 0.35783 0.16277 0.07554 0.0
C12 C 0.35353 0.15195 0.06518 0.0
C13 C 0.30603 0.09756 0.07385 0.0
N14 N 0.32084 0.11097 0.06409 0.0
C15 C 0.37861 0.21214 0.09762 0.0
C16 C 0.32318 0.24433 0.09983 0.0
C17 C 0.36787 0.27329 0.09903 0.0
C18 C 0.39546 0.2564 0.09821 0.0
C19 C 0.30733 0.19948 0.09913 0.0
N20 N 0.33502 0.18396 0.09752 0.0
H21 H 0.4015 0.20115 0.09678 0.0
H22 H 0.27306 0.17774 0.09995 0.0
H23 H 0.38199 0.19331 0.07866 0.0
H24 H 0.27935 0.06589 0.07577 0.0
O25 O 0.37273 0.12802 0.09808 0.0
O26 O 0.31337 0.06597 0.09517 0.0
O27 O 0.25383 0.10384 0.09377 0.0
C28 C 0.355 0.08681 0.09679 0.0
H29 H 0.24592 0.06072 0.13053 0.0
H30 H 0.37365 0.1726 0.05896 0.0
H31 H 0.3008 0.2562 0.10078 0.0
H32 H 0.43024 0.27743 0.09793 0.0
Co33 Co 0.18366 0.31105 0.42851 0.0
C34 C 0.19227 0.3124 0.4519 0.0
C35 C 0.13123 0.26179 0.44631 0.0
C36 C 0.13094 0.25977 0.45693 0.0
N37 N 0.16979 0.29429 0.44305 0.0
N38 N 0.16916 0.29151 0.46048 0.0
H39 H 0.22431 0.3405 0.45213 0.0
H40 H 0.10414 0.24183 0.44134 0.0
C41 C 0.12352 0.22709 0.41657 0.0
O42 O 0.12895 0.24684 0.40765 0.0
N43 N 0.19777 0.32776 0.414 0.0
C44 C 0.19663 0.36053 0.40913 0.0
C45 C 0.20937 0.36204 0.39897 0.0
C46 C 0.2136 0.31141 0.40687 0.0
N47 N 0.21962 0.33086 0.3975 0.0
C48 C 0.14413 0.35736 0.43561 0.0
C49 C 0.08329 0.33564 0.42014 0.0
C50 C 0.09095 0.36917 0.42703 0.0
C51 C 0.12046 0.37848 0.43509 0.0
C52 C 0.10766 0.31482 0.42099 0.0
N53 N 0.13892 0.3271 0.42842 0.0
H54 H 0.1686 0.36718 0.44153 0.0
H55 H 0.10329 0.29131 0.41523 0.0
H56 H 0.18717 0.38194 0.41269 0.0
H57 H 0.2185 0.28438 0.40839 0.0
O58 O 0.23065 0.36667 0.43229 0.0
O59 O 0.23674 0.30866 0.42967 0.0
O60 O 0.14198 0.24829 0.42482 0.0
C61 C 0.25542 0.3498 0.43183 0.0
H62 H 0.10385 0.23772 0.46172 0.0
H63 H 0.21096 0.38448 0.3931 0.0
H64 H 0.06061 0.32731 0.4138 0.0
H65 H 0.12656 0.40325 0.44077 0.0
Co66 Co 0.88512 0.19873 0.7621 0.0
C67 C 0.87512 0.19387 0.78555 0.0
C68 C 0.93467 0.20001 0.78006 0.0
C69 C 0.93549 0.20072 0.79072 0.0
N70 N 0.89697 0.19584 0.77674 0.0
N71 N 0.89808 0.1968 0.79416 0.0
H72 H 0.844 0.19184 0.78581 0.0
H73 H 0.96041 0.20336 0.77501 0.0
C74 C 0.90553 0.13446 0.75151 0.0
O75 O 0.88635 0.13513 0.7429 0.0
N76 N 0.87567 0.2033 0.74738 0.0
C77 C 0.83871 0.19422 0.74251 0.0
C78 C 0.84748 0.2039 0.7321 0.0
C79 C 0.90655 0.21973 0.73992 0.0
N80 N 0.89015 0.21968 0.73046 0.0
C81 C 0.79822 0.16712 0.76837 0.0
C82 C 0.76116 0.08716 0.759 0.0
C83 C 0.73428 0.10207 0.76293 0.0
C84 C 0.75356 0.14165 0.76811 0.0
C85 C 0.80628 0.11353 0.75964 0.0
N86 N 0.82445 0.15394 0.76391 0.0
H87 H 0.8113 0.19862 0.7718 0.0
H88 H 0.8258 0.10182 0.75621 0.0
H89 H 0.80746 0.18153 0.74619 0.0
H90 H 0.9403 0.2308 0.74141 0.0
O91 O 0.8778 0.24741 0.76456 0.0
O92 O 0.94066 0.25231 0.76101 0.0
O93 O 0.9053 0.15563 0.7595 0.0
C94 C 0.91887 0.27179 0.76304 0.0
H95 H 0.96161 0.20391 0.79559 0.0
H96 H 0.82396 0.19884 0.72618 0.0
H97 H 0.74765 0.05647 0.75501 0.0
H98 H 0.73427 0.15392 0.77163 0.0
Co99 Co 0.68288 0.88103 0.09526 0.0
C100 C 0.67357 0.86652 0.11833 0.0
C101 C 0.72151 0.93105 0.11393 0.0
C102 C 0.71909 0.92887 0.12458 0.0
N103 N 0.69286 0.89221 0.10999 0.0
N104 N 0.6891 0.8884 0.12733 0.0
H105 H 0.64834 0.83303 0.11786 0.0
H106 H 0.74253 0.95923 0.10935 0.0
C107 C 0.76664 0.89078 0.08695 0.0
O108 O 0.74485 0.86036 0.08009 0.0
N109 N 0.67381 0.87204 0.08035 0.0
C110 C 0.64016 0.83975 0.07525 0.0
C111 C 0.64359 0.84985 0.06485 0.0
C112 C 0.69682 0.9016 0.07292 0.0
N113 N 0.67925 0.88867 0.0634 0.0
C114 C 0.62255 0.79142 0.09772 0.0
C115 C 0.6791 0.76197 0.10187 0.0
C116 C 0.63447 0.7325 0.10178 0.0
C117 C 0.60632 0.7479 0.09975 0.0
C118 C 0.69424 0.80613 0.1 0.0
N119 N 0.66602 0.82026 0.09758 0.0
H120 H 0.59924 0.80142 0.09625 0.0
H121 H 0.72835 0.82856 0.10075 0.0
H122 H 0.61367 0.81153 0.07874 0.0
H123 H 0.72493 0.93271 0.07454 0.0
O124 O 0.62643 0.87472 0.0967 0.0
O125 O 0.68553 0.93682 0.09352 0.0
O126 O 0.7467 0.90105 0.09362 0.0
C127 C 0.64379 0.91565 0.09496 0.0
H128 H 0.73825 0.9549 0.12992 0.0
H129 H 0.62109 0.83047 0.05883 0.0
H130 H 0.70184 0.75119 0.10361 0.0
H131 H 0.57164 0.7262 0.09961 0.0
Co132 Co 0.78786 0.67883 0.42911 0.0
C133 C 0.79561 0.6735 0.45239 0.0
C134 C 0.78702 0.72597 0.44739 0.0
C135 C 0.7881 0.72598 0.45806 0.0
N136 N 0.79158 0.6931 0.44379 0.0
N137 N 0.79353 0.69307 0.4612 0.0
H138 H 0.79876 0.64504 0.45233 0.0
H139 H 0.78248 0.74812 0.44256 0.0
C140 C 0.85207 0.76322 0.41837 0.0
O141 O 0.8526 0.74258 0.41 0.0
N142 N 0.78261 0.66486 0.41439 0.0
C143 C 0.7902 0.63586 0.40957 0.0
C144 C 0.7806 0.6349 0.39919 0.0
C145 C 0.7671 0.68002 0.40691 0.0
N146 N 0.7664 0.663 0.39746 0.0
C147 C 0.81973 0.62267 0.43442 0.0
C148 C 0.90179 0.66991 0.42618 0.0
C149 C 0.88676 0.62706 0.42925 0.0
C150 C 0.84591 0.60427 0.43385 0.0
C151 C 0.87445 0.6875 0.427 0.0
N152 N 0.83302 0.66317 0.43063 0.0
H153 H 0.78781 0.60303 0.4376 0.0
H154 H 0.88671 0.71998 0.42436 0.0
H155 H 0.80153 0.61629 0.41329 0.0
H156 H 0.75812 0.7043 0.40835 0.0
O157 O 0.73887 0.62263 0.43163 0.0
O158 O 0.73409 0.68068 0.42832 0.0
O159 O 0.83064 0.74241 0.42643 0.0
C160 C 0.71447 0.63937 0.43027 0.0
H161 H 0.78533 0.74863 0.46313 0.0
H162 H 0.78356 0.61457 0.39341 0.0
H163 H 0.93356 0.68903 0.42274 0.0
H164 H 0.8335 0.57168 0.43671 0.0
Co165 Co 0.12007 0.8016 0.76231 0.0
C166 C 0.13143 0.80929 0.78577 0.0
C167 C 0.0697 0.79764 0.78043 0.0
C168 C 0.06973 0.79864 0.7911 0.0
N169 N 0.10818 0.80404 0.77701 0.0
N170 N 0.10851 0.80599 0.79445 0.0
H171 H 0.16382 0.81447 0.78597 0.0
H172 H 0.04305 0.79211 0.77546 0.0
C173 C 0.10073 0.86685 0.75195 0.0
O174 O 0.11918 0.86563 0.74324 0.0
N175 N 0.12963 0.79745 0.74754 0.0
C176 C 0.16651 0.80557 0.74273 0.0
C177 C 0.15799 0.79558 0.73234 0.0
C178 C 0.09897 0.78122 0.74006 0.0
N179 N 0.11551 0.78047 0.73064 0.0
C180 C 0.20646 0.83135 0.76855 0.0
C181 C 0.24521 0.91132 0.75911 0.0
C182 C 0.2713 0.89557 0.76306 0.0
C183 C 0.25119 0.856 0.76828 0.0
C184 C 0.19998 0.88578 0.75978 0.0
N185 N 0.18099 0.84542 0.76412 0.0
H186 H 0.19259 0.79983 0.77204 0.0
H187 H 0.18099 0.89796 0.75629 0.0
H188 H 0.19751 0.81753 0.74645 0.0
H189 H 0.06524 0.77057 0.74149 0.0
O190 O 0.12622 0.75206 0.76454 0.0
O191 O 0.06399 0.7488 0.76113 0.0
O192 O 0.10107 0.84571 0.75993 0.0
C193 C 0.08512 0.72849 0.76294 0.0
H194 H 0.04336 0.79467 0.79601 0.0
H195 H 0.18154 0.79977 0.72648 0.0
H196 H 0.25939 0.94198 0.75508 0.0
H197 H 0.26984 0.8431 0.77182 0.0
Co198 Co 0.88722 0.6833 0.60011 0.0
C199 C 0.8703 0.66829 0.57717 0.0
C200 C 0.936 0.71517 0.58087 0.0
C201 C 0.93222 0.71114 0.57026 0.0
N202 N 0.89735 0.68836 0.58523 0.0
N203 N 0.89095 0.68187 0.56792 0.0
H204 H 0.8364 0.64443 0.578 0.0
H205 H 0.96496 0.73666 0.58514 0.0
C206 C 0.89596 0.76924 0.60543 0.0
O207 O 0.85896 0.74907 0.61042 0.0
N208 N 0.8794 0.6799 0.61529 0.0
C209 C 0.84408 0.67136 0.62097 0.0
C210 C 0.85426 0.67547 0.63134 0.0
C211 C 0.91074 0.68967 0.62248 0.0
N212 N 0.89624 0.68709 0.63233 0.0
C213 C 0.79652 0.6276 0.60045 0.0
C214 C 0.77209 0.67903 0.5898 0.0
C215 C 0.74043 0.63745 0.59293 0.0
C216 C 0.7531 0.61176 0.59828 0.0
C217 C 0.81576 0.694 0.59222 0.0
N218 N 0.82734 0.66864 0.59775 0.0
H219 H 0.80527 0.60688 0.6046 0.0
H220 H 0.84022 0.72525 0.58938 0.0
H221 H 0.81322 0.6648 0.61799 0.0
H222 H 0.94402 0.70008 0.62057 0.0
O223 O 0.87715 0.6252 0.59976 0.0
O224 O 0.94143 0.68312 0.60189 0.0
O225 O 0.91067 0.74781 0.60072 0.0
C226 C 0.91827 0.6412 0.60112 0.0
H227 H 0.95758 0.72936 0.56466 0.0
H228 H 0.83233 0.67073 0.63767 0.0
H229 H 0.76326 0.6994 0.58547 0.0
H230 H 0.72946 0.57936 0.60073 0.0
Co231 Co 0.19507 0.88018 0.93451 0.0
C232 C 0.19266 0.86764 0.91136 0.0
C233 C 0.21102 0.93234 0.91596 0.0
C234 C 0.21206 0.93093 0.90532 0.0
N235 N 0.19916 0.89289 0.91979 0.0
N236 N 0.20048 0.89036 0.90242 0.0
H237 H 0.18301 0.83377 0.91172 0.0
H238 H 0.21846 0.96034 0.92064 0.0
C239 C 0.11926 0.88889 0.94167 0.0
O240 O 0.10615 0.85428 0.94746 0.0
N241 N 0.19196 0.86981 0.94946 0.0
C242 C 0.18757 0.83522 0.95473 0.0
C243 C 0.19168 0.84426 0.96518 0.0
C244 C 0.19923 0.89957 0.95688 0.0
N245 N 0.19907 0.8848 0.96658 0.0
C246 C 0.16397 0.79024 0.93208 0.0
C247 C 0.08048 0.76356 0.92588 0.0
C248 C 0.0942 0.73308 0.92664 0.0
C249 C 0.13652 0.74709 0.92969 0.0
C250 C 0.10967 0.8073 0.9282 0.0
N251 N 0.15054 0.81997 0.93169 0.0
H252 H 0.19639 0.79925 0.93433 0.0
H253 H 0.09953 0.8307 0.92691 0.0
H254 H 0.18324 0.80574 0.9514 0.0
H255 H 0.20504 0.93164 0.95513 0.0
O256 O 0.24454 0.87246 0.93352 0.0
O257 O 0.2488 0.935 0.93676 0.0
O258 O 0.15265 0.90197 0.93587 0.0
C259 C 0.26874 0.9132 0.93543 0.0
H260 H 0.21997 0.95757 0.90008 0.0
H261 H 0.19103 0.82296 0.97123 0.0
H262 H 0.04804 0.75388 0.92331 0.0
H263 H 0.14839 0.72457 0.93031 0.0
Co264 Co 0.32377 0.19944 0.26778 0.0
C265 C 0.33695 0.19766 0.24484 0.0
C266 C 0.27659 0.19373 0.24882 0.0
C267 C 0.27831 0.19035 0.23822 0.0
N268 N 0.31299 0.19779 0.25299 0.0
N269 N 0.31619 0.19297 0.23573 0.0
H270 H 0.36803 0.19953 0.24555 0.0
H271 H 0.25017 0.19255 0.2532 0.0
C272 C 0.24073 0.12598 0.27644 0.0
O273 O 0.26317 0.11629 0.28286 0.0
N274 N 0.33355 0.20187 0.28275 0.0
C275 C 0.36603 0.20146 0.28798 0.0
C276 C 0.36244 0.20823 0.29834 0.0
C277 C 0.31113 0.20974 0.29011 0.0
N278 N 0.32785 0.21339 0.29975 0.0
C279 C 0.38272 0.16822 0.26604 0.0
C280 C 0.3252 0.08319 0.26121 0.0
C281 C 0.36956 0.09719 0.26168 0.0
C282 C 0.3982 0.14026 0.26412 0.0
C283 C 0.31087 0.11283 0.26309 0.0
N284 N 0.33949 0.15458 0.26589 0.0
H285 H 0.40638 0.20131 0.26763 0.0
H286 H 0.27712 0.10227 0.26198 0.0
H287 H 0.39187 0.1982 0.28466 0.0
H288 H 0.28331 0.21304 0.28836 0.0
O289 O 0.3804 0.24853 0.26588 0.0
O290 O 0.32187 0.25302 0.26887 0.0
O291 O 0.26015 0.15684 0.26993 0.0
C292 C 0.36356 0.27278 0.26735 0.0
H293 H 0.25352 0.18595 0.23273 0.0
H294 H 0.38489 0.21082 0.30431 0.0
H295 H 0.30213 0.05018 0.25912 0.0
H296 H 0.43272 0.15248 0.26456 0.0
Co297 Co 0.13163 0.31979 0.60116 0.0
C298 C 0.14943 0.33143 0.5781 0.0
C299 C 0.08588 0.28013 0.58218 0.0
C300 C 0.0908 0.27957 0.57164 0.0
N301 N 0.12256 0.31222 0.58629 0.0
N302 N 0.1307 0.31152 0.56906 0.0
H303 H 0.18241 0.35772 0.57877 0.0
H304 H 0.05791 0.25754 0.58664 0.0
C305 C 0.12701 0.23593 0.60723 0.0
O306 O 0.16316 0.2573 0.61246 0.0
N307 N 0.13823 0.32507 0.61634 0.0
C308 C 0.17342 0.33532 0.62222 0.0
C309 C 0.16218 0.33106 0.63254 0.0
C310 C 0.10592 0.31408 0.62335 0.0
N311 N 0.11968 0.31757 0.63328 0.0
C312 C 0.22123 0.37979 0.60175 0.0
C313 C 0.25201 0.33045 0.59268 0.0
C314 C 0.28163 0.37279 0.59587 0.0
C315 C 0.26538 0.39753 0.60028 0.0
C316 C 0.20739 0.31362 0.59435 0.0
N317 N 0.19269 0.33788 0.5992 0.0
H318 H 0.21012 0.39973 0.60536 0.0
H319 H 0.18481 0.28154 0.59159 0.0
H320 H 0.20494 0.34305 0.61942 0.0
H321 H 0.0725 0.30195 0.62127 0.0
O322 O 0.13806 0.3764 0.60023 0.0
O323 O 0.07549 0.31648 0.60247 0.0
O324 O 0.1116 0.25611 0.60226 0.0
C325 C 0.09666 0.35841 0.60151 0.0
H326 H 0.06717 0.25669 0.56626 0.0
H327 H 0.18373 0.33683 0.639 0.0
H328 H 0.26318 0.31052 0.58902 0.0
H329 H 0.28671 0.43075 0.60256 0.0
Co330 Co 0.80372 0.12414 0.93405 0.0
C331 C 0.81162 0.14081 0.91109 0.0
C332 C 0.79916 0.07737 0.91525 0.0
C333 C 0.80039 0.08052 0.90462 0.0
N334 N 0.80595 0.11493 0.91932 0.0
N335 N 0.80822 0.12029 0.902 0.0
H336 H 0.81721 0.1734 0.9117 0.0
H337 H 0.79325 0.04937 0.91974 0.0
C338 C 0.88004 0.11766 0.94209 0.0
O339 O 0.89199 0.15202 0.94789 0.0
N340 N 0.80025 0.13105 0.94901 0.0
C341 C 0.78703 0.15589 0.95391 0.0
C342 C 0.77904 0.14398 0.96418 0.0
C343 C 0.79922 0.10374 0.95646 0.0
N344 N 0.78672 0.11126 0.96578 0.0
C345 C 0.83361 0.21422 0.9335 0.0
C346 C 0.9189 0.24479 0.92822 0.0
C347 C 0.90494 0.27452 0.93029 0.0
C348 C 0.86143 0.25837 0.93269 0.0
C349 C 0.88953 0.20004 0.92922 0.0
N350 N 0.84779 0.18533 0.93239 0.0
H351 H 0.80013 0.20369 0.93485 0.0
H352 H 0.90033 0.17757 0.92732 0.0
H353 H 0.77984 0.17865 0.95029 0.0
H354 H 0.80427 0.07681 0.95495 0.0
O355 O 0.75369 0.13023 0.93198 0.0
O356 O 0.75061 0.06809 0.93513 0.0
O357 O 0.84701 0.10395 0.93619 0.0
C358 C 0.73002 0.08905 0.93347 0.0
H359 H 0.79629 0.05559 0.8992 0.0
H360 H 0.76647 0.15696 0.96993 0.0
H361 H 0.95205 0.25593 0.92595 0.0
H362 H 0.84855 0.27985 0.93379 0.0
Co363 Co 0.68906 0.80619 0.26704 0.0
C364 C 0.68226 0.81038 0.2438 0.0
C365 C 0.73552 0.80307 0.24881 0.0
C366 C 0.73491 0.80296 0.23814 0.0
N367 N 0.70257 0.80764 0.2524 0.0
N368 N 0.70149 0.80759 0.23499 0.0
H369 H 0.65362 0.81329 0.24388 0.0
H370 H 0.75826 0.79957 0.25367 0.0
C371 C 0.77332 0.87395 0.27711 0.0
O372 O 0.75246 0.87631 0.28526 0.0
N373 N 0.67592 0.80332 0.28179 0.0
C374 C 0.64682 0.81115 0.2865 0.0
C375 C 0.64535 0.80158 0.29691 0.0
C376 C 0.69096 0.78814 0.28938 0.0
N377 N 0.67321 0.78718 0.29874 0.0
C378 C 0.63 0.83425 0.26156 0.0
C379 C 0.67805 0.91981 0.26729 0.0
C380 C 0.63438 0.90269 0.26468 0.0
C381 C 0.61096 0.85984 0.26145 0.0
C382 C 0.69616 0.89269 0.26734 0.0
N383 N 0.67157 0.84978 0.26488 0.0
H384 H 0.61009 0.80125 0.25916 0.0
H385 H 0.72941 0.90648 0.26956 0.0
H386 H 0.62718 0.82215 0.28269 0.0
H387 H 0.71497 0.77867 0.28804 0.0
O388 O 0.63339 0.75604 0.26498 0.0
O389 O 0.69234 0.75329 0.26849 0.0
O390 O 0.75253 0.85024 0.26936 0.0
C391 C 0.65092 0.73259 0.26664 0.0
H392 H 0.7576 0.80015 0.23308 0.0
H393 H 0.62445 0.80412 0.30261 0.0
H394 H 0.69747 0.95324 0.26964 0.0
H395 H 0.57751 0.84572 0.25905 0.0
H396 H 0.32762 0.14413 0.04475 0.0
H397 H 0.30392 0.1047 0.02844 0.0
H398 H 0.25366 0.98416 0.045 0.0
H399 H 0.27858 0.02367 0.06141 0.0
H400 H 0.2976 0.98413 0.02812 0.0
H401 H 0.18621 0.01747 0.03499 0.0
H402 H 0.15541 0.0638 0.03927 0.0
H403 H 0.21091 0.13774 1.0115 0.0
H404 H 0.24262 0.09224 1.00714 0.0
H405 H 0.17824 0.85001 0.98599 0.0
H406 H 0.19684 0.88823 1.0025 0.0
H407 H 0.25685 0.01009 0.98631 0.0
H408 H 0.23927 0.97211 0.96966 0.0
H409 H 0.20641 0.00833 1.00307 0.0
H410 H 0.319 0.97512 0.99655 0.0
H411 H 0.34895 0.92795 0.99239 0.0
H412 H 0.2894 0.85241 0.01973 0.0
H413 H 0.25854 0.89879 0.02397 0.0
C414 C 0.31181 0.10926 0.04497 0.0
C415 C 0.30524 0.08721 0.05446 0.0
C416 C 0.29779 0.08666 0.0356 0.0
C417 C 0.27652 0.04133 0.03545 0.0
C418 C 0.26986 0.01912 0.04489 0.0
C419 C 0.28385 0.04176 0.0543 0.0
C420 C 0.26226 0.01741 0.0254 0.0
C421 C 0.27707 0.98894 0.02273 0.0
C422 C 0.23626 0.02429 0.01821 0.0
C423 C 0.21715 0.05168 0.02079 0.0
C424 C 0.19216 0.04383 0.02984 0.0
C425 C 0.17448 0.0699 0.03227 0.0
C426 C 0.18129 0.10376 0.02567 0.0
C427 C 0.20571 0.11154 0.01661 0.0
C428 C 0.22351 0.08559 1.01415 0.0
C429 C 0.19573 0.88492 0.98586 0.0
C430 C 0.20767 0.90774 0.97638 0.0
C431 C 0.20619 0.90678 0.99536 0.0
C432 C 0.22877 0.95208 0.99567 0.0
C433 C 0.23948 0.9751 0.98627 0.0
C434 C 0.22924 0.95323 0.97673 0.0
C435 C 0.24182 0.9752 1.00582 0.0
C436 C 0.22682 0.0035 1.00849 0.0
C437 C 0.26749 0.96803 1.01304 0.0
C438 C 0.28609 0.94016 1.01052 0.0
C439 C 0.31198 0.94823 1.00163 0.0
C440 C 0.32918 0.92168 0.99926 0.0
C441 C 0.32098 0.88713 1.00578 0.0
C442 C 0.29566 0.87914 0.01468 0.0
C443 C 0.27833 0.90557 0.01708 0.0
H444 H 0.33434 0.86662 1.00393 0.0
H445 H 0.16756 0.1239 0.02756 0.0
H446 H 0.19444 0.33971 0.37826 0.0
H447 H 0.2118 0.31836 0.36175 0.0
H448 H 0.28619 0.27182 0.37788 0.0
H449 H 0.26921 0.29369 0.39451 0.0
H450 H 0.32845 0.31984 0.36041 0.0
H451 H 0.18888 0.20142 0.36889 0.0
H452 H 0.11211 0.16622 0.37401 0.0
H453 H 0.08316 0.21412 0.34639 0.0
H454 H 0.15997 0.25025 0.3412 0.0
H455 H 0.34713 0.19926 0.31928 0.0
H456 H 0.32785 0.21925 0.33564 0.0
H457 H 0.25584 0.26757 0.31918 0.0
H458 H 0.27596 0.24864 0.30262 0.0
H459 H 0.21214 0.21878 0.33675 0.0
H460 H 0.35183 0.33763 0.32836 0.0
H461 H 0.42872 0.3732 0.32333 0.0
H462 H 0.45734 0.32441 0.35083 0.0
H463 H 0.38044 0.28797 0.35596 0.0
C464 C 0.21485 0.32534 0.37832 0.0
C465 C 0.23055 0.31857 0.38774 0.0
C466 C 0.22443 0.31275 0.36886 0.0
C467 C 0.25 0.29311 0.36855 0.0
C468 C 0.26628 0.2868 0.37791 0.0
C469 C 0.25636 0.29907 0.38742 0.0
C470 C 0.25973 0.27941 0.35843 0.0
C471 C 0.30302 0.29724 0.35531 0.0
C472 C 0.22655 0.25076 0.35163 0.0
C473 C 0.18029 0.22893 0.35471 0.0
C474 C 0.16623 0.20478 0.36395 0.0
C475 C 0.12269 0.1846 0.36686 0.0
C476 C 0.09279 0.18802 0.36054 0.0
C477 C 0.10638 0.21155 0.35129 0.0
C478 C 0.14991 0.23187 0.34835 0.0
C479 C 0.32758 0.21454 0.31903 0.0
C480 C 0.31379 0.22284 0.3095 0.0
C481 C 0.31637 0.22578 0.32846 0.0
C482 C 0.29087 0.24547 0.32866 0.0
C483 C 0.27567 0.25251 0.31922 0.0
C484 C 0.28716 0.24152 0.30974 0.0
C485 C 0.28086 0.25917 0.33874 0.0
C486 C 0.23754 0.24137 0.34185 0.0
C487 C 0.314 0.28784 0.34554 0.0
C488 C 0.36028 0.30969 0.34249 0.0
C489 C 0.37444 0.33415 0.33329 0.0
C490 C 0.41804 0.35454 0.33043 0.0
C491 C 0.44787 0.35097 0.33674 0.0
C492 C 0.43417 0.32709 0.34594 0.0
C493 C 0.39059 0.30658 0.34883 0.0
H494 H 0.48162 0.3668 0.33451 0.0
H495 H 0.05909 0.17235 0.3628 0.0
H496 H 0.86743 0.24577 0.7129 0.0
H497 H 0.90459 0.26346 0.69613 0.0
H498 H 0.00168 0.23843 0.70874 0.0
H499 H 0.96462 0.22046 0.72549 0.0
H500 H 0.03848 0.31057 0.69733 0.0
H501 H 0.92061 0.16541 0.69277 0.0
H502 H 0.84424 0.10741 0.69285 0.0
H503 H 0.81384 0.17694 0.6704 0.0
H504 H 0.88997 0.23567 0.67029 0.0
H505 H 0.1361 0.29143 0.65165 0.0
H506 H 0.09546 0.2768 0.66779 0.0
H507 H 0.00445 0.30473 0.65275 0.0
H508 H 0.0453 0.31963 0.63646 0.0
H509 H 0.96314 0.23442 0.66508 0.0
H510 H 0.08152 0.37823 0.66909 0.0
H511 H 0.15789 0.43618 0.66896 0.0
H512 H 0.18726 0.36962 0.69246 0.0
H513 H 0.11114 0.31094 0.69263 0.0
C514 C 0.89652 0.24374 0.71211 0.0
C515 C 0.91286 0.23156 0.72061 0.0
C516 C 0.9178 0.25391 0.70249 0.0
C517 C 0.95577 0.25185 0.7011 0.0
C518 C 0.97251 0.24036 0.7096 0.0
C519 C 0.9513 0.23024 0.71922 0.0
C520 C 0.97818 0.26172 0.69082 0.0
C521 C 0.02208 0.29354 0.69031 0.0
C522 C 0.95662 0.24046 0.68157 0.0
C523 C 0.91089 0.20514 0.6816 0.0
C524 C 0.89757 0.16849 0.68791 0.0
C525 C 0.85434 0.13546 0.68795 0.0
C526 C 0.82419 0.13854 0.68166 0.0
C527 C 0.83723 0.17462 0.67529 0.0
C528 C 0.88041 0.20778 0.67522 0.0
C529 C 0.10771 0.29491 0.65175 0.0
C530 C 0.09437 0.30728 0.64274 0.0
C531 C 0.08437 0.28641 0.66102 0.0
C532 C 0.04724 0.29039 0.66158 0.0
C533 C 0.03308 0.30159 0.65254 0.0
C534 C 0.05642 0.31001 0.64322 0.0
C535 C 0.02356 0.2829 0.67162 0.0
C536 C 0.97946 0.2516 0.6721 0.0
C537 C 0.0449 0.30467 0.68085 0.0
C538 C 0.09068 0.34001 0.68081 0.0
C539 C 0.10432 0.37579 0.67418 0.0
C540 C 0.14756 0.4088 0.6741 0.0
C541 C 0.17743 0.40653 0.68068 0.0
C542 C 0.16409 0.37131 0.68736 0.0
C543 C 0.1209 0.33819 0.68746 0.0
H544 H 0.21089 0.43212 0.68061 0.0
H545 H 0.79074 0.11293 0.6817 0.0
H546 H 0.8378 0.08574 0.97521 0.0
H547 H 0.82478 0.04914 0.99208 0.0
H548 H 0.70093 0.04267 0.99414 0.0
H549 H 0.71538 0.08139 0.97766 0.0
H550 H 0.73394 0.06386 1.01165 0.0
H551 H 0.71761 0.95198 0.98835 0.0
H552 H 0.7389 0.91876 0.97447 0.0
H553 H 0.84787 0.93744 0.99253 0.0
H554 H 0.82751 0.97127 1.00647 0.0
H555 H 0.62899 0.89197 0.04822 0.0
H556 H 0.65284 0.93117 0.03172 0.0
H557 H 0.78571 0.97748 0.04008 0.0
H558 H 0.76186 0.93871 0.05676 0.0
H559 H 0.75431 0.93844 0.01814 0.0
H560 H 0.76318 0.04748 0.042 0.0
H561 H 0.73342 0.07323 0.05574 0.0
H562 H 0.62795 0.05119 0.03586 0.0
H563 H 0.65681 0.02475 0.02204 0.0
C564 C 0.80776 0.07608 0.97928 0.0
C565 C 0.77764 0.08639 0.97519 0.0
C566 C 0.80014 0.055 0.9889 0.0
C567 C 0.76156 0.04254 0.99444 0.0
C568 C 0.7311 0.05208 0.99015 0.0
C569 C 0.73923 0.07406 0.9807 0.0
C570 C 0.75305 0.02077 1.00481 0.0
C571 C 0.73812 0.03621 1.01297 0.0
C572 C 0.75907 0.98502 1.00675 0.0
C573 C 0.77131 0.9646 0.9984 0.0
C574 C 0.74629 0.94928 0.98933 0.0
C575 C 0.75816 0.9303 0.98146 0.0
C576 C 0.79479 0.92612 0.9826 0.0
C577 C 0.81955 0.94078 0.99164 0.0
C578 C 0.80784 0.95983 0.99953 0.0
C579 C 0.66326 0.91035 0.04652 0.0
C580 C 0.69359 0.91227 0.05376 0.0
C581 C 0.67684 0.93277 0.03711 0.0
C582 C 0.721 0.95706 0.03467 0.0
C583 C 0.75147 0.95876 0.04182 0.0
C584 C 0.73788 0.93694 0.05135 0.0
C585 C 0.73489 0.98138 0.02473 0.0
C586 C 0.75067 0.96637 0.01673 0.0
C587 C 0.72873 0.01683 0.02283 0.0
C588 C 0.71198 0.03383 0.03102 0.0
C589 C 0.73351 0.04789 0.04058 0.0
C590 C 0.71682 0.06265 0.04838 0.0
C591 C 0.67876 0.06375 0.04669 0.0
C592 C 0.65742 0.0503 0.03717 0.0
C593 C 0.67397 0.03549 0.02934 0.0
H594 H 0.66583 0.07509 0.05274 0.0
H595 H 0.80394 0.91142 0.9765 0.0
H596 H 0.65784 0.80763 0.31805 0.0
H597 H 0.67208 0.78488 0.33466 0.0
H598 H 0.72453 0.71491 0.31883 0.0
H599 H 0.70844 0.73586 0.30211 0.0
H600 H 0.67641 0.66847 0.33445 0.0
H601 H 0.7901 0.81481 0.33068 0.0
H602 H 0.82234 0.89299 0.32756 0.0
H603 H 0.75595 0.90356 0.35424 0.0
H604 H 0.7228 0.82529 0.35744 0.0
H605 H 0.78639 0.64695 0.37811 0.0
H606 H 0.76847 0.66628 0.3615 0.0
H607 H 0.70408 0.72471 0.37726 0.0
H608 H 0.72099 0.7047 0.394 0.0
H609 H 0.75834 0.7767 0.36174 0.0
H610 H 0.64585 0.62878 0.36544 0.0
H611 H 0.61585 0.55076 0.36836 0.0
H612 H 0.68357 0.54376 0.34152 0.0
H613 H 0.71451 0.6219 0.33853 0.0
C614 C 0.67198 0.78704 0.31803 0.0
C615 C 0.68203 0.77381 0.30864 0.0
C616 C 0.68062 0.77442 0.3276 0.0
C617 C 0.70014 0.74875 0.32806 0.0
C618 C 0.70971 0.73495 0.31872 0.0
C619 C 0.70083 0.74735 0.30912 0.0
C620 C 0.71028 0.73617 0.33828 0.0
C621 C 0.69486 0.69226 0.34035 0.0
C622 C 0.73366 0.76698 0.34611 0.0
C623 C 0.75364 0.8141 0.34424 0.0
C624 C 0.78211 0.83374 0.33584 0.0
C625 C 0.80059 0.87809 0.33406 0.0
C626 C 0.79111 0.90321 0.34069 0.0
C627 C 0.76321 0.88405 0.34911 0.0
C628 C 0.7446 0.8397 0.35091 0.0
C629 C 0.76785 0.6633 0.37814 0.0
C630 C 0.75508 0.67393 0.38754 0.0
C631 C 0.75773 0.6745 0.36857 0.0
C632 C 0.73461 0.69667 0.3681 0.0
C633 C 0.72199 0.70763 0.37742 0.0
C634 C 0.73187 0.69621 0.38702 0.0
C635 C 0.72438 0.70909 0.35789 0.0
C636 C 0.73986 0.75298 0.35583 0.0
C637 C 0.70145 0.67831 0.35004 0.0
C638 C 0.68286 0.6313 0.35183 0.0
C639 C 0.65466 0.61069 0.36022 0.0
C640 C 0.63742 0.56642 0.36188 0.0
C641 C 0.64789 0.54234 0.35515 0.0
C642 C 0.67554 0.56246 0.34673 0.0
C643 C 0.69291 0.60674 0.34505 0.0
H644 H 0.6345 0.50807 0.35645 0.0
H645 H 0.80545 0.93754 0.3393 0.0
H646 H 0.13804 0.75206 0.71343 0.0
H647 H 0.10216 0.73442 0.69655 0.0
H648 H 0.00616 0.76289 0.7084 0.0
H649 H 0.04201 0.78084 0.72529 0.0
H650 H 0.96885 0.69069 0.69696 0.0
H651 H 0.08941 0.83441 0.69267 0.0
H652 H 0.16619 0.89129 0.69309 0.0
H653 H 0.19715 0.82016 0.67121 0.0
H654 H 0.12058 0.76253 0.67076 0.0
H655 H 0.87946 0.71453 0.65048 0.0
H656 H 0.91787 0.72742 0.66686 0.0
H657 H 0.007 0.6946 0.65261 0.0
H658 H 0.96828 0.68128 0.63608 0.0
H659 H 0.04903 0.76549 0.66497 0.0
H660 H 0.92763 0.62325 0.66866 0.0
H661 H 0.85069 0.56684 0.66818 0.0
H662 H 0.82121 0.63525 0.69119 0.0
H663 H 0.89792 0.69242 0.6917 0.0
C664 C 0.10947 0.75486 0.71245 0.0
C665 C 0.09317 0.76815 0.72077 0.0
C666 C 0.0889 0.74469 0.70277 0.0
C667 C 0.05169 0.74783 0.70112 0.0
C668 C 0.0348 0.76017 0.70945 0.0
C669 C 0.05531 0.7703 0.71915 0.0
C670 C 0.03041 0.73843 0.69072 0.0
C671 C 0.98632 0.70743 0.69 0.0
C672 C 0.05333 0.75932 0.68154 0.0
C673 C 0.09935 0.79395 0.68177 0.0
C674 C 0.11265 0.83073 0.68801 0.0
C675 C 0.15612 0.86313 0.68825 0.0
C676 C 0.18655 0.85928 0.6822 0.0
C677 C 0.17355 0.82306 0.6759 0.0
C678 C 0.13012 0.79053 0.67565 0.0
C679 C 0.90693 0.70958 0.6508 0.0
C680 C 0.92036 0.69634 0.64193 0.0
C681 C 0.929 0.71709 0.66021 0.0
C682 C 0.96497 0.71132 0.66106 0.0
C683 C 0.97926 0.69916 0.65217 0.0
C684 C 0.95714 0.69166 0.64271 0.0
C685 C 0.98737 0.7181 0.67125 0.0
C686 C 0.03165 0.74857 0.67193 0.0
C687 C 0.96463 0.69674 0.68041 0.0
C688 C 0.91848 0.66231 0.68016 0.0
C689 C 0.90469 0.62643 0.67357 0.0
C690 C 0.86113 0.59429 0.67329 0.0
C691 C 0.83107 0.59751 0.67963 0.0
C692 C 0.84453 0.63283 0.68627 0.0
C693 C 0.88806 0.66509 0.68657 0.0
H694 H 0.79735 0.57259 0.67941 0.0
H695 H 0.22019 0.8844 0.68239 0.0
H696 H 0.55676 0.87378 0.09307 0.0
H697 H 0.50912 0.90407 0.09282 0.0
H698 H 0.61926 0.0324 0.0955 0.0
H699 H 0.66783 0.00198 0.0957 0.0
H700 H 0.55063 0.01431 0.10954 0.0
H701 H 0.5705 0.00457 0.07314 0.0
H702 H 0.57319 0.96897 0.05699 0.0
H703 H 0.43888 0.87398 0.0605 0.0
H704 H 0.43553 0.9087 0.07676 0.0
H705 H 0.44157 0.12741 0.09958 0.0
H706 H 0.48912 0.09738 0.09895 0.0
H707 H 0.37987 0.97066 0.09332 0.0
H708 H 0.33134 0.00112 0.09371 0.0
H709 H 0.44816 0.98759 0.08072 0.0
H710 H 0.42825 0.99727 0.11715 0.0
H711 H 0.42575 0.03253 0.13339 0.0
H712 H 0.56028 0.12696 0.12999 0.0
H713 H 0.56345 0.09264 0.11366 0.0
C714 C 0.57108 0.90852 0.09357 0.0
C715 C 0.61613 0.93555 0.09443 0.0
C716 C 0.5437 0.92576 0.09338 0.0
C717 C 0.56061 0.97045 0.09407 0.0
C718 C 0.60561 0.99776 0.09493 0.0
C719 C 0.63329 0.98044 0.09501 0.0
C720 C 0.53063 0.9879 0.09422 0.0
C721 C 0.52874 0.00919 0.10318 0.0
C722 C 0.50109 0.97982 0.08605 0.0
C723 C 0.50286 0.95904 0.07622 0.0
C724 C 0.54161 0.9759 0.07052 0.0
C725 C 0.54325 0.95591 0.06133 0.0
C726 C 0.50625 0.91917 0.05774 0.0
C727 C 0.46752 0.90243 0.0633 0.0
C728 C 0.46572 0.92228 0.07249 0.0
C729 C 0.4273 0.09303 0.09826 0.0
C730 C 0.38246 0.06656 0.09677 0.0
C731 C 0.45471 0.07589 0.09794 0.0
C732 C 0.43812 0.03165 0.09627 0.0
C733 C 0.39336 0.00491 0.09468 0.0
C734 C 0.36565 0.02224 0.09496 0.0
C735 C 0.46816 0.01417 0.09605 0.0
C736 C 0.47004 0.99277 0.0871 0.0
C737 C 0.49768 0.02207 0.10425 0.0
C738 C 0.49599 0.04255 0.11413 0.0
C739 C 0.45724 0.02572 0.11983 0.0
C740 C 0.45571 0.04552 0.12906 0.0
C741 C 0.49281 0.08201 0.13271 0.0
C742 C 0.53155 0.0987 0.12715 0.0
C743 C 0.53325 0.07906 0.11792 0.0
H744 H 0.49155 0.0973 0.13985 0.0
H745 H 0.50758 0.90372 0.05063 0.0
H746 H 0.29885 0.43487 0.4368 0.0
H747 H 0.3767 0.48359 0.43716 0.0
H748 H 0.3975 0.37751 0.43005 0.0
H749 H 0.31884 0.328 0.42962 0.0
H750 H 0.45366 0.4357 0.44574 0.0
H751 H 0.40535 0.44014 0.41116 0.0
H752 H 0.35864 0.44782 0.39828 0.0
H753 H 0.40155 0.57675 0.40898 0.0
H754 H 0.44797 0.56954 0.42205 0.0
H755 H 0.66947 0.55213 0.42972 0.0
H756 H 0.59173 0.50439 0.43059 0.0
H757 H 0.57337 0.61462 0.43267 0.0
H758 H 0.65213 0.66322 0.43146 0.0
H759 H 0.51516 0.55525 0.42002 0.0
H760 H 0.56421 0.55279 0.45431 0.0
H761 H 0.60976 0.54585 0.46766 0.0
H762 H 0.56482 0.41502 0.45822 0.0
H763 H 0.51947 0.42136 0.4447 0.0
C764 C 0.31983 0.42163 0.43539 0.0
C765 C 0.30267 0.37757 0.4331 0.0
C766 C 0.36437 0.44963 0.43558 0.0
C767 C 0.39277 0.43426 0.43349 0.0
C768 C 0.37597 0.38995 0.43165 0.0
C769 C 0.33114 0.36176 0.43141 0.0
C770 C 0.43986 0.46506 0.43285 0.0
C771 C 0.46729 0.46149 0.44004 0.0
C772 C 0.45724 0.49951 0.42561 0.0
C773 C 0.42984 0.50414 0.41765 0.0
C774 C 0.40458 0.47001 0.41082 0.0
C775 C 0.37819 0.47429 0.40348 0.0
C776 C 0.37706 0.51272 0.40283 0.0
C777 C 0.40242 0.54699 0.4095 0.0
C778 C 0.4288 0.54283 0.41687 0.0
C779 C 0.64904 0.56641 0.43038 0.0
C780 C 0.66695 0.6115 0.43063 0.0
C781 C 0.60449 0.53896 0.43093 0.0
C782 C 0.57668 0.5558 0.43196 0.0
C783 C 0.59429 0.6009 0.43197 0.0
C784 C 0.63918 0.62861 0.43129 0.0
C785 C 0.52931 0.52589 0.43289 0.0
C786 C 0.5017 0.5296 0.42576 0.0
C787 C 0.51172 0.49175 0.44025 0.0
C788 C 0.53868 0.48768 0.44843 0.0
C789 C 0.56425 0.52263 0.45503 0.0
C790 C 0.59001 0.51879 0.46263 0.0
C791 C 0.59025 0.48005 0.46377 0.0
C792 C 0.56463 0.44502 0.45732 0.0
C793 C 0.53885 0.4487 0.4497 0.0
H794 H 0.61022 0.47715 0.46966 0.0
H795 H 0.35659 0.51598 0.39714 0.0
H796 H 0.1271 0.68355 0.76149 0.0
H797 H 0.09651 0.60572 0.76107 0.0
H798 H 0.96801 0.58774 0.76333 0.0
H799 H 0.99871 0.66672 0.76365 0.0
H800 H 0.98847 0.53685 0.77758 0.0
H801 H 0.99443 0.56918 0.74132 0.0
H802 H 0.029 0.60921 0.72525 0.0
H803 H 0.12425 0.56977 0.72731 0.0
H804 H 0.0907 0.53011 0.7435 0.0
H805 H 0.87691 0.31569 0.7668 0.0
H806 H 0.90576 0.39308 0.76664 0.0
H807 H 0.03288 0.41345 0.7597 0.0
H808 H 0.00366 0.33477 0.75962 0.0
H809 H 0.01266 0.4636 0.74771 0.0
H810 H 0.00926 0.43293 0.78386 0.0
H811 H 0.97744 0.39437 0.80026 0.0
H812 H 0.88072 0.43203 0.79886 0.0
H813 H 0.91157 0.47029 0.78236 0.0
C814 C 0.09227 0.66321 0.76189 0.0
C815 C 0.06519 0.68116 0.76263 0.0
C816 C 0.07491 0.61872 0.7616 0.0
C817 C 0.03013 0.59119 0.76209 0.0
C818 C 0.00274 0.60874 0.76291 0.0
C819 C 0.0202 0.65364 0.76307 0.0
C820 C 0.01269 0.54408 0.76197 0.0
C821 C 0.99291 0.52053 0.77099 0.0
C822 C 0.02025 0.52354 0.75349 0.0
C823 C 0.04024 0.54696 0.74368 0.0
C824 C 0.02296 0.56933 0.7384 0.0
C825 C 0.04234 0.59191 0.72926 0.0
C826 C 0.07886 0.59211 0.72527 0.0
C827 C 0.09599 0.56962 0.73041 0.0
C828 C 0.07677 0.54705 0.73956 0.0
C829 C 0.91112 0.33643 0.76528 0.0
C830 C 0.93814 0.31912 0.76327 0.0
C831 C 0.92756 0.38079 0.76524 0.0
C832 C 0.97153 0.40902 0.76333 0.0
C833 C 0.99881 0.39206 0.76125 0.0
C834 C 0.98221 0.34728 0.76125 0.0
C835 C 0.9882 0.45614 0.76333 0.0
C836 C 0.00801 0.47977 0.7543 0.0
C837 C 0.98101 0.47689 0.77184 0.0
C838 C 0.96254 0.45418 0.78182 0.0
C839 C 0.98101 0.43273 0.78701 0.0
C840 C 0.96318 0.41097 0.79633 0.0
C841 C 0.92702 0.41067 0.80059 0.0
C842 C 0.9087 0.43226 0.79555 0.0
C843 C 0.92638 0.45403 0.78621 0.0
H844 H 0.91325 0.39379 0.80781 0.0
H845 H 0.09382 0.60962 0.7182 0.0
H846 H 0.00988 0.33212 0.6027 0.0
H847 H 0.97735 0.37859 0.60344 0.0
H848 H 0.10445 0.49164 0.60239 0.0
H849 H 0.1369 0.4459 0.60169 0.0
H850 H 0.05348 0.50007 0.61685 0.0
H851 H 0.04352 0.4575 0.58089 0.0
H852 H 0.0218 0.40516 0.56652 0.0
H853 H 0.88835 0.35182 0.57502 0.0
H854 H 0.90935 0.40349 0.58954 0.0
H855 H 0.00378 0.6633 0.60256 0.0
H856 H 0.03282 0.61393 0.60324 0.0
H857 H 0.90318 0.50479 0.602 0.0
H858 H 0.87426 0.55355 0.6011 0.0
H859 H 0.95314 0.49221 0.58926 0.0
H860 H 0.96161 0.53609 0.6247 0.0
H861 H 0.98233 0.58831 0.63906 0.0
H862 H 0.11656 0.63797 0.63196 0.0
H863 H 0.09663 0.58653 0.61743 0.0
C864 C 0.03077 0.36686 0.60264 0.0
C865 C 0.0759 0.38529 0.60207 0.0
C866 C 0.01221 0.39337 0.60305 0.0
C867 C 0.03853 0.43863 0.60292 0.0
C868 C 0.08353 0.45688 0.60253 0.0
C869 C 0.10199 0.43057 0.60207 0.0
C870 C 0.01964 0.4674 0.60292 0.0
C871 C 0.03177 0.49859 0.61078 0.0
C872 C 0.9907 0.46494 0.59512 0.0
C873 C 0.97804 0.43402 0.58637 0.0
C874 C 0.00957 0.43437 0.57974 0.0
C875 C 0.99739 0.40487 0.57156 0.0
C876 C 0.95373 0.3751 0.56988 0.0
C877 C 0.92216 0.37485 0.57635 0.0
C878 C 0.93418 0.40424 0.58455 0.0
C879 C 0.98158 0.62878 0.60245 0.0
C880 C 0.93678 0.61236 0.60177 0.0
C881 C 0.99814 0.60059 0.60288 0.0
C882 C 0.97013 0.55555 0.60275 0.0
C883 C 0.92545 0.53931 0.60208 0.0
C884 C 0.90897 0.56734 0.6016 0.0
C885 C 0.98705 0.52509 0.60318 0.0
C886 C 0.9746 0.49359 0.59538 0.0
C887 C 0.01549 0.52713 0.61108 0.0
C888 C 0.02761 0.55772 0.61991 0.0
C889 C 0.99555 0.55835 0.62615 0.0
C890 C 0.00715 0.58779 0.63433 0.0
C891 C 0.05073 0.61651 0.63641 0.0
C892 C 0.08281 0.61575 0.63033 0.0
C893 C 0.07138 0.58644 0.62213 0.0
H894 H 0.05964 0.63929 0.64274 0.0
H895 H 0.94436 0.35229 0.56354 0.0
H896 H 0.68334 0.12983 0.93293 0.0
H897 H 0.60524 0.09828 0.93383 0.0
H898 H 0.5897 0.97084 0.93554 0.0
H899 H 0.66877 0.00249 0.93469 0.0
H900 H 0.53273 0.97859 0.92133 0.0
H901 H 0.57695 0.01192 0.95676 0.0
H902 H 0.62116 0.05835 0.97116 0.0
H903 H 0.5753 0.14661 0.96506 0.0
H904 H 0.53139 0.1011 0.95049 0.0
H905 H 0.31347 0.87042 0.93529 0.0
H906 H 0.39133 0.9002 0.93543 0.0
H907 H 0.41049 0.02916 0.93678 0.0
H908 H 0.33161 0.99919 0.93683 0.0
H909 H 0.46597 0.01997 0.94963 0.0
H910 H 0.42364 0.98882 0.91405 0.0
H911 H 0.38069 0.94426 0.89928 0.0
H912 H 0.42395 0.85385 0.90527 0.0
H913 H 0.46667 0.89755 0.92018 0.0
C914 C 0.66349 0.09503 0.93348 0.0
C915 C 0.68231 0.06862 0.93375 0.0
C916 C 0.61876 0.07709 0.93403 0.0
C917 C 0.59168 0.0323 0.93486 0.0
C918 C 0.61013 0.00556 0.93494 0.0
C919 C 0.6552 0.02362 0.93447 0.0
C920 C 0.54416 0.01394 0.93559 0.0
C921 C 0.51798 0.98697 0.92761 0.0
C922 C 0.52522 0.02608 0.94362 0.0
C923 C 0.55114 0.05326 0.95247 0.0
C924 C 0.57653 0.0414 0.95843 0.0
C925 C 0.60152 0.06753 0.96663 0.0
C926 C 0.6011 0.10545 0.96901 0.0
C927 C 0.57561 0.11725 0.9632 0.0
C928 C 0.55064 0.09127 0.95498 0.0
C929 C 0.33408 0.90518 0.93564 0.0
C930 C 0.31631 0.93251 0.93595 0.0
C931 C 0.37872 0.92215 0.93568 0.0
C932 C 0.40686 0.96693 0.93591 0.0
C933 C 0.38936 0.99446 0.93653 0.0
C934 C 0.34436 0.97737 0.93655 0.0
C935 C 0.4544 0.98449 0.93536 0.0
C936 C 0.48063 0.01141 0.94336 0.0
C937 C 0.47347 0.97249 0.92731 0.0
C938 C 0.44805 0.94627 0.9183 0.0
C939 C 0.42375 0.95927 0.91227 0.0
C940 C 0.39948 0.93419 0.90386 0.0
C941 C 0.39951 0.8962 0.90135 0.0
C942 C 0.42392 0.88327 0.90723 0.0
C943 C 0.44819 0.9082 0.91565 0.0
H944 H 0.3807 0.87683 0.89484 0.0
H945 H 0.62047 0.12565 0.97536 0.0
H946 H 0.34057 0.33582 0.26711 0.0
H947 H 0.3899 0.41454 0.26732 0.0
H948 H 0.49931 0.3946 0.26872 0.0
H949 H 0.45086 0.31684 0.26846 0.0
H950 H 0.50663 0.45722 0.28247 0.0
H951 H 0.4738 0.41955 0.24632 0.0
H952 H 0.4255 0.38793 0.23126 0.0
H953 H 0.37498 0.47316 0.23617 0.0
H954 H 0.42257 0.50486 0.25137 0.0
H955 H 0.67529 0.67109 0.26937 0.0
H956 H 0.62736 0.59219 0.2696 0.0
H957 H 0.51715 0.60884 0.26456 0.0
H958 H 0.56427 0.68651 0.26407 0.0
H959 H 0.51073 0.54713 0.25269 0.0
H960 H 0.54248 0.5853 0.28872 0.0
H961 H 0.58992 0.61741 0.3039 0.0
H962 H 0.64073 0.53208 0.29966 0.0
H963 H 0.59407 0.49993 0.28434 0.0
C964 C 0.37512 0.34836 0.26748 0.0
C965 C 0.39182 0.3202 0.26769 0.0
C966 C 0.40323 0.39321 0.2676 0.0
C967 C 0.44827 0.41031 0.268 0.0
C968 C 0.46474 0.38212 0.26843 0.0
C969 C 0.43689 0.33762 0.26822 0.0
C970 C 0.47875 0.45751 0.26768 0.0
C971 C 0.50781 0.4769 0.27593 0.0
C972 C 0.47988 0.48315 0.2592 0.0
C973 C 0.45138 0.46423 0.25005 0.0
C974 C 0.45212 0.43129 0.24424 0.0
C975 C 0.42493 0.4134 0.23567 0.0
C976 C 0.3971 0.42844 0.23278 0.0
C977 C 0.3965 0.46149 0.23843 0.0
C978 C 0.42358 0.47944 0.24702 0.0
C979 C 0.64087 0.65775 0.26827 0.0
C980 C 0.62362 0.68501 0.2667 0.0
C981 C 0.61349 0.61276 0.26845 0.0
C982 C 0.56854 0.59459 0.26717 0.0
C983 C 0.55163 0.62196 0.26553 0.0
C984 C 0.57876 0.66653 0.26528 0.0
C985 C 0.53852 0.54718 0.26754 0.0
C986 C 0.50959 0.52762 0.25927 0.0
C987 C 0.53732 0.52151 0.27605 0.0
C988 C 0.56512 0.54053 0.28531 0.0
C989 C 0.564 0.5736 0.29097 0.0
C990 C 0.59072 0.59179 0.29961 0.0
C991 C 0.61841 0.57687 0.30273 0.0
C992 C 0.61933 0.54365 0.29723 0.0
C993 C 0.59275 0.52543 0.28857 0.0
H994 H 0.63907 0.59099 0.30942 0.0
H995 H 0.37608 0.41456 0.22614 0.0
H996 H 0.27351 0.12503 0.22312 0.0
H997 H 0.28933 0.12007 0.20477 0.0
H998 H 0.40171 0.24733 0.20646 0.0
H999 H 0.38637 0.25156 0.22501 0.0
H1000 H 0.33759 0.23009 0.18929 0.0
H1001 H 0.42499 0.17644 0.20366 0.0
H1002 H 0.44055 0.13089 0.21519 0.0
H1003 H 0.33963 0.01677 0.20071 0.0
H1004 H 0.32295 0.06162 0.1892 0.0
H1005 H 0.36561 0.19822 0.13544 0.0
H1006 H 0.38386 0.21938 0.1537 0.0
H1007 H 0.30123 0.08687 0.16308 0.0
H1008 H 0.28505 0.06554 0.14506 0.0
H1009 H 0.3672 0.11886 0.17484 0.0
H1010 H 0.26978 0.16791 0.16336 0.0
H1011 H 0.24713 0.20955 0.15237 0.0
H1012 H 0.35928 0.3277 0.16174 0.0
H1013 H 0.38283 0.28664 0.17271 0.0
C1014 C 0.30206 0.15146 0.21959 0.0
C1015 C 0.32903 0.18843 0.22543 0.0
C1016 C 0.31103 0.14873 0.20914 0.0
C1017 C 0.3467 0.18333 0.20424 0.0
C1018 C 0.37409 0.22024 0.21009 0.0
C1019 C 0.36559 0.22254 0.22066 0.0
C1020 C 0.35356 0.181 0.19291 0.0
C1021 C 0.34514 0.20654 0.1861 0.0
C1022 C 0.36236 0.14957 0.18877 0.0
C1023 C 0.37253 0.12243 0.19561 0.0
C1024 C 0.40587 0.14162 0.20299 0.0
C1025 C 0.41494 0.11593 0.20951 0.0
C1026 C 0.39105 0.07097 0.2087 0.0
C1027 C 0.3581 0.05161 0.20134 0.0
C1028 C 0.34886 0.07716 0.1948 0.0
C1029 C 0.35197 0.17358 0.1414 0.0
C1030 C 0.32317 0.13026 0.13874 0.0
C1031 C 0.36208 0.18575 0.15186 0.0
C1032 C 0.34329 0.1549 0.15987 0.0
C1033 C 0.31611 0.11149 0.15714 0.0
C1034 C 0.30637 0.09936 0.14676 0.0
C1035 C 0.34993 0.16709 0.17112 0.0
C1036 C 0.36069 0.14323 0.17796 0.0
C1037 C 0.34247 0.19954 0.1753 0.0
C1038 C 0.32834 0.22421 0.16873 0.0
C1039 C 0.28975 0.20274 0.16301 0.0
C1040 C 0.27673 0.22623 0.1568 0.0
C1041 C 0.30183 0.27123 0.15633 0.0
C1042 C 0.33993 0.29284 0.1621 0.0
C1043 C 0.35313 0.26948 0.16831 0.0
H1044 H 0.2917 0.28936 0.15151 0.0
H1045 H 0.39811 0.05113 0.21376 0.0
H1046 H 0.21315 0.37089 0.46952 0.0
H1047 H 0.21916 0.38591 0.48831 0.0
H1048 H 0.15443 0.24909 0.49459 0.0
H1049 H 0.14835 0.23429 0.47601 0.0
H1050 H 0.11498 0.28673 0.50415 0.0
H1051 H 0.26225 0.31625 0.49972 0.0
H1052 H 0.33571 0.3546 0.49224 0.0
H1053 H 0.35369 0.47496 0.50392 0.0
H1054 H 0.28007 0.43737 0.51136 0.0
H1055 H 0.12485 0.25047 0.556 0.0
H1056 H 0.14433 0.25911 0.53764 0.0
H1057 H 0.19692 0.39669 0.54023 0.0
H1058 H 0.17774 0.38792 0.55888 0.0
H1059 H 0.24448 0.37219 0.52607 0.0
H1060 H 0.09982 0.34244 0.53159 0.0
H1061 H 0.02674 0.30436 0.53927 0.0
H1062 H 0.00351 0.18576 0.52522 0.0
H1063 H 0.07675 0.22299 0.51759 0.0
C1064 C 0.20124 0.34423 0.47495 0.0
C1065 C 0.17988 0.30139 0.47131 0.0
C1066 C 0.20455 0.35278 0.48568 0.0
C1067 C 0.18688 0.31858 0.4929 0.0
C1068 C 0.16788 0.27603 0.48921 0.0
C1069 C 0.16443 0.26756 0.47858 0.0
C1070 C 0.18443 0.32595 0.50422 0.0
C1071 C 0.14342 0.30525 0.50892 0.0
C1072 C 0.22126 0.35156 0.51044 0.0
C1073 C 0.26547 0.37408 0.50598 0.0
C1074 C 0.28172 0.35095 0.50061 0.0
C1075 C 0.32341 0.37253 0.4964 0.0
C1076 C 0.34929 0.41721 0.49758 0.0
C1077 C 0.33357 0.44037 0.503 0.0
C1078 C 0.29188 0.41894 0.50722 0.0
C1079 C 0.14122 0.28265 0.5527 0.0
C1080 C 0.14926 0.31846 0.5588 0.0
C1081 C 0.1524 0.2876 0.54221 0.0
C1082 C 0.17132 0.32843 0.53749 0.0
C1083 C 0.18221 0.36485 0.5437 0.0
C1084 C 0.1713 0.35988 0.55432 0.0
C1085 C 0.17522 0.33145 0.52596 0.0
C1086 C 0.21615 0.35419 0.52124 0.0
C1087 C 0.13829 0.3079 0.51964 0.0
C1088 C 0.0939 0.28549 0.52407 0.0
C1089 C 0.07923 0.30819 0.53019 0.0
C1090 C 0.03777 0.28676 0.53453 0.0
C1091 C 0.01052 0.24266 0.53275 0.0
C1092 C 0.02465 0.21992 0.52659 0.0
C1093 C 0.06612 0.24119 0.52225 0.0
H1094 H 0.97844 0.22611 0.53612 0.0
H1095 H 0.38157 0.43386 0.49431 0.0
H1096 H 0.82023 0.14489 0.80308 0.0
H1097 H 0.80284 0.13939 0.82165 0.0
H1098 H 0.93188 0.2439 0.82796 0.0
H1099 H 0.94963 0.24759 0.8095 0.0
H1100 H 0.91553 0.18702 0.84128 0.0
H1101 H 0.83452 0.2519 0.82957 0.0
H1102 H 0.78244 0.26055 0.81876 0.0
H1103 H 0.67983 0.13767 0.82927 0.0
H1104 H 0.7314 0.12801 0.84004 0.0
H1105 H 0.86782 0.19913 0.89471 0.0
H1106 H 0.88146 0.2214 0.87635 0.0
H1107 H 0.77217 0.09935 0.86737 0.0
H1108 H 0.75898 0.07704 0.8856 0.0
H1109 H 0.78012 0.17202 0.85592 0.0
H1110 H 0.86583 0.10738 0.8665 0.0
H1111 H 0.91908 0.10208 0.87764 0.0
H1112 H 0.0152 0.23159 0.86938 0.0
H1113 H 0.96226 0.23785 0.85831 0.0
C1114 C 0.84453 0.16696 0.80845 0.0
C1115 C 0.88625 0.19657 0.80488 0.0
C1116 C 0.83461 0.16402 0.81907 0.0
C1117 C 0.86584 0.19158 0.8263 0.0
C1118 C 0.90716 0.22205 0.82263 0.0
C1119 C 0.91731 0.22427 0.81207 0.0
C1120 C 0.85652 0.18709 0.83772 0.0
C1121 C 0.88626 0.18469 0.84444 0.0
C1122 C 0.81809 0.18332 0.84198 0.0
C1123 C 0.78691 0.18908 0.83555 0.0
C1124 C 0.8009 0.22659 0.82953 0.0
C1125 C 0.77146 0.23169 0.82341 0.0
C1126 C 0.72787 0.19964 0.82331 0.0
C1127 C 0.71361 0.16246 0.82935 0.0
C1128 C 0.74292 0.15718 0.83547 0.0
C1129 C 0.84628 0.1776 0.88881 0.0
C1130 C 0.81254 0.1363 0.89154 0.0
C1131 C 0.85414 0.19018 0.87834 0.0
C1132 C 0.82795 0.16188 0.87048 0.0
C1133 C 0.79273 0.12171 0.87328 0.0
C1134 C 0.78536 0.10891 0.88369 0.0
C1135 C 0.83911 0.17213 0.85931 0.0
C1136 C 0.80964 0.17522 0.85268 0.0
C1137 C 0.87804 0.17723 0.85513 0.0
C1138 C 0.90998 0.17325 0.86168 0.0
C1139 C 0.89823 0.13483 0.86712 0.0
C1140 C 0.92836 0.13163 0.87342 0.0
C1141 C 0.97046 0.16652 0.87424 0.0
C1142 C 0.98255 0.20462 0.86875 0.0
C1143 C 0.95251 0.20801 0.86246 0.0
H1144 H 0.99374 0.16399 0.87912 0.0
H1145 H 0.70514 0.20364 0.81857 0.0
H1146 H 0.67283 0.92809 0.14293 0.0
H1147 H 0.66412 0.90846 0.16132 0.0
H1148 H 0.67398 0.79587 0.15402 0.0
H1149 H 0.68062 0.81473 0.13547 0.0
H1150 H 0.62002 0.7771 0.16952 0.0
H1151 H 0.76271 0.89325 0.16262 0.0
H1152 H 0.81812 0.96456 0.15603 0.0
H1153 H 0.77138 0.02667 0.17662 0.0
H1154 H 0.71525 0.95566 0.18322 0.0
H1155 H 0.70681 0.76306 0.21867 0.0
H1156 H 0.69394 0.77147 0.20037 0.0
H1157 H 0.65821 0.86612 0.20885 0.0
H1158 H 0.67078 0.85747 0.22724 0.0
H1159 H 0.72245 0.89308 0.19304 0.0
H1160 H 0.58208 0.7724 0.20073 0.0
H1161 H 0.531 0.69952 0.20732 0.0
H1162 H 0.57968 0.64406 0.18529 0.0
H1163 H 0.63153 0.7167 0.17866 0.0
C1164 C 0.67237 0.89877 0.14526 0.0
C1165 C 0.67771 0.87307 0.13784 0.0
C1166 C 0.6677 0.88768 0.15577 0.0
C1167 C 0.66973 0.85136 0.15915 0.0
C1168 C 0.67263 0.82423 0.15166 0.0
C1169 C 0.67635 0.8349 0.14107 0.0
C1170 C 0.67132 0.84335 0.17048 0.0
C1171 C 0.64273 0.80237 0.17463 0.0
C1172 C 0.70064 0.87634 0.17725 0.0
C1173 C 0.73451 0.91912 0.17334 0.0
C1174 C 0.76407 0.92211 0.16569 0.0
C1175 C 0.79562 0.96247 0.16196 0.0
C1176 C 0.79819 1.00011 0.16588 0.0
C1177 C 0.76929 0.99748 0.17357 0.0
C1178 C 0.73762 0.95718 0.17732 0.0
C1179 C 0.69585 0.78539 0.21663 0.0
C1180 C 0.68996 0.80976 0.22437 0.0
C1181 C 0.68825 0.78996 0.20619 0.0
C1182 C 0.67498 0.81932 0.20324 0.0
C1183 C 0.6683 0.84317 0.21096 0.0
C1184 C 0.67525 0.83808 0.22145 0.0
C1185 C 0.67101 0.82707 0.19205 0.0
C1186 C 0.69947 0.86798 0.18793 0.0
C1187 C 0.64225 0.79379 0.18532 0.0
C1188 C 0.61098 0.75006 0.18926 0.0
C1189 C 0.58217 0.74471 0.19735 0.0
C1190 C 0.55301 0.70343 0.20108 0.0
C1191 C 0.55216 0.66719 0.19675 0.0
C1192 C 0.5804 0.67216 0.18865 0.0
C1193 C 0.60965 0.71338 0.18489 0.0
H1194 H 0.52957 0.63526 0.19965 0.0
H1195 H 0.82265 0.03133 0.16299 0.0
H1196 H 0.74692 0.69516 0.47745 0.0
H1197 H 0.75609 0.68359 0.49574 0.0
H1198 H 0.8571 0.65622 0.48746 0.0
H1199 H 0.84654 0.66619 0.46903 0.0
H1200 H 0.81317 0.60624 0.50286 0.0
H1201 H 0.87815 0.75807 0.49677 0.0
H1202 H 0.88182 0.8254 0.49084 0.0
H1203 H 0.78085 0.80488 0.51222 0.0
H1204 H 0.77616 0.73707 0.51818 0.0
H1205 H 0.92886 0.67072 0.55102 0.0
H1206 H 0.9039 0.66233 0.53302 0.0
H1207 H 0.78885 0.66225 0.54328 0.0
H1208 H 0.81369 0.67013 0.56138 0.0
H1209 H 0.83606 0.72312 0.52728 0.0
H1210 H 0.77766 0.57225 0.53421 0.0
H1211 H 0.7799 0.50788 0.54017 0.0
H1212 H 0.87647 0.53086 0.51721 0.0
H1213 H 0.8753 0.59577 0.51121 0.0
C1214 C 0.77086 0.68637 0.47954 0.0
C1215 C 0.79637 0.68205 0.47183 0.0
C1216 C 0.77625 0.67993 0.49001 0.0
C1217 C 0.80816 0.67019 0.49308 0.0
C1218 C 0.83242 0.66397 0.48534 0.0
C1219 C 0.82642 0.66963 0.47481 0.0
C1220 C 0.81715 0.66815 0.50435 0.0
C1221 C 0.8186 0.63204 0.50816 0.0
C1222 C 0.82368 0.70144 0.51138 0.0
C1223 C 0.82649 0.74226 0.50784 0.0
C1224 C 0.85651 0.76776 0.50015 0.0
C1225 C 0.85881 0.80603 0.4968 0.0
C1226 C 0.8315 0.81935 0.50113 0.0
C1227 C 0.80192 0.79448 0.50886 0.0
C1228 C 0.79945 0.75614 0.51223 0.0
C1229 C 0.89792 0.66821 0.54944 0.0
C1230 C 0.87321 0.67108 0.55759 0.0
C1231 C 0.88362 0.66328 0.53916 0.0
C1232 C 0.84447 0.66159 0.53679 0.0
C1233 C 0.81911 0.66335 0.54494 0.0
C1234 C 0.83312 0.66754 0.55527 0.0
C1235 C 0.83194 0.66128 0.52575 0.0
C1236 C 0.83016 0.69715 0.52198 0.0
C1237 C 0.82597 0.62822 0.51875 0.0
C1238 C 0.82665 0.58911 0.52232 0.0
C1239 C 0.79966 0.5638 0.53049 0.0
C1240 C 0.80067 0.52717 0.53386 0.0
C1241 C 0.82838 0.51534 0.52909 0.0
C1242 C 0.85505 0.54008 0.52091 0.0
C1243 C 0.85419 0.57677 0.51751 0.0
H1244 H 0.82912 0.48696 0.53171 0.0
H1245 H 0.83333 0.84899 0.49852 0.0
H1246 H 0.25438 0.93252 0.88655 0.0
H1247 H 0.24285 0.91324 0.86817 0.0
H1248 H 0.12434 0.79641 0.87578 0.0
H1249 H 0.1369 0.81522 0.89432 0.0
H1250 H 0.16223 0.78102 0.86006 0.0
H1251 H 0.12528 0.88951 0.86727 0.0
H1252 H 0.13595 0.9588 0.87394 0.0
H1253 H 0.24316 0.02777 0.85313 0.0
H1254 H 0.23352 0.95883 0.84644 0.0
H1255 H 0.05934 0.76005 0.81077 0.0
H1256 H 0.0799 0.76992 0.82912 0.0
H1257 H 0.20819 0.87081 0.82085 0.0
H1258 H 0.18775 0.86058 0.8024 0.0
H1259 H 0.16636 0.89336 0.83669 0.0
H1260 H 0.19776 0.78054 0.8289 0.0
H1261 H 0.18177 0.70944 0.82223 0.0
H1262 H 0.07755 0.64645 0.8441 0.0
H1263 H 0.0925 0.71724 0.85081 0.0
C1264 C 0.22616 0.90246 0.8843 0.0
C1265 C 0.19629 0.87558 0.89183 0.0
C1266 C 0.21944 0.89153 0.87378 0.0
C1267 C 0.18204 0.85395 0.8705 0.0
C1268 C 0.15329 0.82575 0.87808 0.0
C1269 C 0.16046 0.8364 0.88867 0.0
C1270 C 0.17217 0.84554 0.85918 0.0
C1271 C 0.16268 0.80545 0.85499 0.0
C1272 C 0.17314 0.87747 0.85246 0.0
C1273 C 0.17894 0.91901 0.85643 0.0
C1274 C 0.15133 0.91945 0.86417 0.0
C1275 C 0.15717 0.95866 0.86795 0.0
C1276 C 0.19028 0.99766 0.86398 0.0
C1277 C 0.21756 0.99753 0.85621 0.0
C1278 C 0.21191 0.9584 0.85241 0.0
C1279 C 0.09202 0.78411 0.81286 0.0
C1280 C 0.12192 0.80965 0.80515 0.0
C1281 C 0.1038 0.78955 0.82334 0.0
C1282 C 0.14561 0.82102 0.82637 0.0
C1283 C 0.17578 0.84625 0.81868 0.0
C1284 C 0.16419 0.84026 0.80816 0.0
C1285 C 0.15685 0.82912 0.83759 0.0
C1286 C 0.16627 0.8691 0.84176 0.0
C1287 C 0.155 0.79684 0.84429 0.0
C1288 C 0.14599 0.75423 0.84029 0.0
C1289 C 0.17117 0.75155 0.83222 0.0
C1290 C 0.16235 0.7113 0.82845 0.0
C1291 C 0.12859 0.67345 0.83272 0.0
C1292 C 0.10365 0.67579 0.84079 0.0
C1293 C 0.11232 0.71597 0.84459 0.0
H1294 H 0.12182 0.64232 0.82979 0.0
H1295 H 0.19475 0.02799 0.86692 0.0
H1296 H 0.57719 0.68388 0.11677 0.0
H1297 H 0.53209 0.60514 0.11713 0.0
H1298 H 0.60164 0.59617 0.09071 0.0
H1299 H 0.64692 0.67532 0.09035 0.0
H1300 H 0.51399 0.5541 0.08761 0.0
H1301 H 0.60998 0.55878 0.11429 0.0
H1302 H 0.65027 0.58304 0.13075 0.0
H1303 H 0.53104 0.53478 0.14761 0.0
H1304 H 0.49004 0.51074 0.13123 0.0
H1305 H 0.42488 0.32906 0.08498 0.0
H1306 H 0.46836 0.40729 0.08626 0.0
H1307 H 0.39941 0.40449 0.11407 0.0
H1308 H 0.35635 0.32515 0.11296 0.0
H1309 H 0.48402 0.45327 0.117 0.0
H1310 H 0.38741 0.44728 0.09083 0.0
H1311 H 0.34569 0.4238 0.07456 0.0
H1312 H 0.46352 0.47579 0.05696 0.0
H1313 H 0.50598 0.49906 0.07314 0.0
C1314 C 0.58373 0.66495 0.11126 0.0
C1315 C 0.61569 0.68553 0.10358 0.0
C1316 C 0.55789 0.61997 0.11145 0.0
C1317 C 0.56338 0.59466 0.10394 0.0
C1318 C 0.59683 0.61507 0.09658 0.0
C1319 C 0.62299 0.66017 0.09644 0.0
C1320 C 0.53168 0.5476 0.10319 0.0
C1321 C 0.50794 0.5319 0.09397 0.0
C1322 C 0.52236 0.519 0.11166 0.0
C1323 C 0.54696 0.53333 0.12152 0.0
C1324 C 0.59236 0.55367 0.1215 0.0
C1325 C 0.61532 0.56731 0.13081 0.0
C1326 C 0.59323 0.56056 0.14021 0.0
C1327 C 0.54811 0.54003 0.14032 0.0
C1328 C 0.52499 0.52635 0.13102 0.0
C1329 C 0.41843 0.34515 0.09128 0.0
C1330 C 0.38727 0.321 0.09889 0.0
C1331 C 0.44322 0.38999 0.09198 0.0
C1332 C 0.43712 0.41207 0.10022 0.0
C1333 C 0.40473 0.38822 0.10763 0.0
C1334 C 0.37981 0.34299 0.10694 0.0
C1335 C 0.46667 0.45956 0.10135 0.0
C1336 C 0.48993 0.47544 0.11064 0.0
C1337 C 0.4753 0.4885 0.09297 0.0
C1338 C 0.44988 0.47464 0.08321 0.0
C1339 C 0.40443 0.45343 0.08349 0.0
C1340 C 0.38065 0.4402 0.07429 0.0
C1341 C 0.40193 0.44822 0.06473 0.0
C1342 C 0.44707 0.46958 0.06437 0.0
C1343 C 0.47102 0.48285 0.07355 0.0
H1344 H 0.38346 0.43795 0.05761 0.0
H1345 H 0.61107 0.57115 0.14742 0.0
H1346 H 0.13101 0.45672 0.4283 0.0
H1347 H 0.09871 0.50261 0.42723 0.0
H1348 H 0.97424 0.39089 0.42106 0.0
H1349 H 0.00654 0.34431 0.42221 0.0
H1350 H 0.99163 0.46237 0.40873 0.0
H1351 H 0.99605 0.4312 0.44491 0.0
H1352 H 0.03091 0.42686 0.46101 0.0
H1353 H 0.11833 0.56377 0.45997 0.0
H1354 H 0.08438 0.56883 0.44377 0.0
H1355 H 0.85596 0.54526 0.42208 0.0
H1356 H 0.89434 0.50547 0.42025 0.0
H1357 H 0.01296 0.61834 0.42965 0.0
H1358 H 0.97397 0.65817 0.43194 0.0
H1359 H 0.00196 0.54907 0.43981 0.0
H1360 H 0.99567 0.5817 0.40421 0.0
H1361 H 0.96177 0.5867 0.38801 0.0
H1362 H 0.87941 0.44889 0.38769 0.0
H1363 H 0.91239 0.44308 0.40398 0.0
C1364 C 0.09667 0.44176 0.42677 0.0
C1365 C 0.0711 0.39673 0.42555 0.0
C1366 C 0.07834 0.46811 0.42612 0.0
C1367 C 0.03397 0.45009 0.42425 0.0
C1368 C 0.00856 0.40539 0.42256 0.0
C1369 C 0.02699 0.37884 0.42321 0.0
C1370 C 0.01419 0.478 0.42447 0.0
C1371 C 0.99336 0.48095 0.41555 0.0
C1372 C 0.01773 0.50324 0.43328 0.0
C1373 C 0.03794 0.50032 0.44307 0.0
C1374 C 0.02292 0.46033 0.44807 0.0
C1375 C 0.04248 0.45774 0.45722 0.0
C1376 C 0.07688 0.49499 0.4615 0.0
C1377 C 0.09171 0.53493 0.45664 0.0
C1378 C 0.0723 0.53768 0.44748 0.0
C1379 C 0.89022 0.56171 0.4238 0.0
C1380 C 0.91181 0.60476 0.4273 0.0
C1381 C 0.91227 0.53902 0.4226 0.0
C1382 C 0.95667 0.55897 0.4247 0.0
C1383 C 0.97869 0.60232 0.42796 0.0
C1384 C 0.95649 0.62513 0.4292 0.0
C1385 C 0.97909 0.53347 0.42407 0.0
C1386 C 1.00042 0.53083 0.43293 0.0
C1387 C 0.97612 0.50868 0.41519 0.0
C1388 C 0.9563 0.51201 0.40537 0.0
C1389 C 0.97011 0.55248 0.40073 0.0
C1390 C 0.95109 0.55545 0.39153 0.0
C1391 C 0.9184 0.51814 0.38684 0.0
C1392 C 0.90473 0.47776 0.39134 0.0
C1393 C 0.92361 0.47461 0.40055 0.0
H1394 H 0.90371 0.52051 0.37971 0.0
H1395 H 0.09199 0.49293 0.46858 0.0
H1396 H 0.3301 0.98305 0.76359 0.0
H1397 H 0.40913 0.01804 0.76186 0.0
H1398 H 0.39862 0.8938 0.75715 0.0
H1399 H 0.32028 0.85894 0.75838 0.0
H1400 H 0.45755 0.94735 0.77352 0.0
H1401 H 0.42191 0.95141 0.73744 0.0
H1402 H 0.38883 0.97014 0.72306 0.0
H1403 H 0.46612 0.10466 0.73065 0.0
H1404 H 0.49921 0.08664 0.74519 0.0
H1405 H 0.67711 0.01427 0.76355 0.0
H1406 H 0.59826 0.97758 0.76178 0.0
H1407 H 0.60552 0.10058 0.75711 0.0
H1408 H 0.68378 0.1368 0.75813 0.0
H1409 H 0.54691 0.04622 0.74525 0.0
H1410 H 0.58018 0.04641 0.78134 0.0
H1411 H 0.61251 0.03191 0.79661 0.0
H1412 H 0.53954 0.89581 0.79037 0.0
H1413 H 0.50717 0.90957 0.77497 0.0
C1414 C 0.3446 0.96331 0.76202 0.0
C1415 C 0.31886 0.91811 0.76134 0.0
C1416 C 0.38967 0.98329 0.76108 0.0
C1417 C 0.40949 0.95831 0.75949 0.0
C1418 C 0.38387 0.91349 0.75851 0.0
C1419 C 0.33908 0.89367 0.75929 0.0
C1420 C 0.45706 0.9783 0.75923 0.0
C1421 C 0.47718 0.96862 0.76729 0.0
C1422 C 0.48242 0.00678 0.75123 0.0
C1423 C 0.46267 0.01763 0.74247 0.0
C1424 C 0.43155 0.98494 0.73611 0.0
C1425 C 0.41286 0.99544 0.72791 0.0
C1426 C 0.42527 0.03856 0.72596 0.0
C1427 C 0.45648 0.07127 0.73218 0.0
C1428 C 0.47523 0.06094 0.74039 0.0
C1429 C 0.66189 0.03334 0.76197 0.0
C1430 C 0.68673 0.07856 0.76123 0.0
C1431 C 0.61679 0.01242 0.76108 0.0
C1432 C 0.59579 0.03643 0.75957 0.0
C1433 C 0.62077 0.08131 0.75836 0.0
C1434 C 0.66563 0.10205 0.7591 0.0
C1435 C 0.54785 0.01546 0.75959 0.0
C1436 C 0.5275 0.02491 0.75149 0.0
C1437 C 0.52227 0.98744 0.76769 0.0
C1438 C 0.54164 0.97906 0.77694 0.0
C1439 C 0.57128 0.01342 0.78318 0.0
C1440 C 0.58957 0.00533 0.79187 0.0
C1441 C 0.57819 0.96298 0.79444 0.0
C1442 C 0.54839 0.92861 0.78835 0.0
C1443 C 0.53004 0.93653 0.77965 0.0
H1444 H 0.59238 0.95678 0.80117 0.0
H1445 H 0.41077 0.04662 0.71961 0.0
H1446 H 0.69594 0.5946 0.57566 0.0
H1447 H 0.61712 0.54767 0.57431 0.0
H1448 H 0.60183 0.58949 0.60465 0.0
H1449 H 0.68044 0.63594 0.60599 0.0
H1450 H 0.56377 0.50233 0.60333 0.0
H1451 H 0.56765 0.61724 0.58259 0.0
H1452 H 0.59172 0.6683 0.56789 0.0
H1453 H 0.54271 0.56248 0.5464 0.0
H1454 H 0.51885 0.51078 0.56098 0.0
H1455 H 0.34291 0.41997 0.61023 0.0
H1456 H 0.42071 0.46211 0.60784 0.0
H1457 H 0.40742 0.41221 0.57674 0.0
H1458 H 0.32834 0.37109 0.57896 0.0
H1459 H 0.46118 0.49656 0.57663 0.0
H1460 H 0.45231 0.38124 0.59675 0.0
H1461 H 0.4288 0.32842 0.61106 0.0
H1462 H 0.48869 0.43164 0.63317 0.0
H1463 H 0.51206 0.48513 0.61901 0.0
C1464 C 0.67544 0.5949 0.58183 0.0
C1465 C 0.6939 0.61936 0.59084 0.0
C1466 C 0.63051 0.56794 0.5811 0.0
C1467 C 0.6035 0.56497 0.58939 0.0
C1468 C 0.62198 0.5912 0.59816 0.0
C1469 C 0.66677 0.61808 0.59889 0.0
C1470 C 0.5567 0.53176 0.58946 0.0
C1471 C 0.54124 0.50139 0.59756 0.0
C1472 C 0.52768 0.52909 0.58163 0.0
C1473 C 0.5419 0.56017 0.57288 0.0
C1474 C 0.56235 0.60487 0.57473 0.0
C1475 C 0.57588 0.63393 0.56642 0.0
C1476 C 0.56887 0.61865 0.55622 0.0
C1477 C 0.54819 0.57428 0.55431 0.0
C1478 C 0.53462 0.54508 0.56259 0.0
C1479 C 0.35643 0.41767 0.60288 0.0
C1480 C 0.32934 0.3924 0.59475 0.0
C1481 C 0.40113 0.44155 0.60156 0.0
C1482 C 0.42026 0.44014 0.59214 0.0
C1483 C 0.39348 0.41381 0.58408 0.0
C1484 C 0.34836 0.38996 0.58539 0.0
C1485 C 0.46793 0.468 0.59073 0.0
C1486 C 0.4837 0.49719 0.58236 0.0
C1487 C 0.4975 0.46931 0.59824 0.0
C1488 C 0.48374 0.43722 0.6068 0.0
C1489 C 0.46025 0.3927 0.60466 0.0
C1490 C 0.44697 0.36263 0.61275 0.0
C1491 C 0.4572 0.37667 0.62302 0.0
C1492 C 0.4808 0.42081 0.62521 0.0
C1493 C 0.49413 0.45102 0.61715 0.0
H1494 H 0.44688 0.35334 0.62927 0.0
H1495 H 0.57937 0.6412 0.54979 0.0
H1496 H 0.02552 0.67434 0.93803 0.0
H1497 H 0.99335 0.59547 0.93737 0.0
H1498 H 0.06965 0.60805 0.91022 0.0
H1499 H 0.10198 0.68679 0.91093 0.0
H1500 H 0.98555 0.5336 0.90973 0.0
H1501 H 0.10871 0.60404 0.9324 0.0
H1502 H 0.15084 0.65244 0.94674 0.0
H1503 H 0.04882 0.57484 0.96817 0.0
H1504 H 0.00571 0.52639 0.95391 0.0
H1505 H 0.96161 0.32396 0.91478 0.0
H1506 H 0.99734 0.40297 0.91294 0.0
H1507 H 0.94606 0.41096 0.94271 0.0
H1508 H 0.91217 0.33301 0.9447 0.0
H1509 H 0.02212 0.47669 0.94088 0.0
H1510 H 0.8968 0.40894 0.91857 0.0
H1511 H 0.85208 0.36109 0.90441 0.0
H1512 H 0.95476 0.43284 0.88263 0.0
H1513 H 1.00031 0.4808 0.8967 0.0
C1514 C 0.03405 0.66006 0.9317 0.0
C1515 C 0.06583 0.68646 0.92448 0.0
C1516 C 0.01604 0.61509 0.93138 0.0
C1517 C 0.02954 0.59589 0.92382 0.0
C1518 C 0.05873 0.62207 0.91611 0.0
C1519 C 0.07702 0.667 0.91649 0.0
C1520 C 0.01698 0.54949 0.92461 0.0
C1521 C 0.99389 0.52117 0.91648 0.0
C1522 C 0.02764 0.53318 0.93345 0.0
C1523 C 0.05382 0.56183 0.94207 0.0
C1524 C 0.09513 0.59747 0.94016 0.0
C1525 C 0.11919 0.6249 0.94827 0.0
C1526 C 0.10248 0.61677 0.95836 0.0
C1527 C 0.0617 0.58112 0.96035 0.0
C1528 C 0.03744 0.55366 0.95226 0.0
C1529 C 0.95909 0.34284 0.92103 0.0
C1530 C 0.93376 0.32226 0.92983 0.0
C1531 C 0.97898 0.38793 0.91992 0.0
C1532 C 0.97355 0.41305 0.92757 0.0
C1533 C 0.95062 0.39258 0.93665 0.0
C1534 C 0.9311 0.34788 0.93777 0.0
C1535 C 0.98965 0.46018 0.92609 0.0
C1536 C 0.01375 0.4889 0.93409 0.0
C1537 C 0.97954 0.47669 0.91717 0.0
C1538 C 0.9521 0.44812 0.9087 0.0
C1539 C 0.90992 0.41432 0.91077 0.0
C1540 C 0.88442 0.38721 0.90276 0.0
C1541 C 0.90061 0.39384 0.89263 0.0
C1542 C 0.94229 0.42769 0.89048 0.0
C1543 C 0.96796 0.45486 0.89847 0.0
H1544 H 0.88083 0.37281 0.88644 0.0
H1545 H 0.12116 0.63804 0.96463 0.0
H1546 H 0.56126 0.88013 0.27554 0.0
H1547 H 0.51533 0.91262 0.27465 0.0
H1548 H 0.60848 0.01274 0.25459 0.0
H1549 H 0.65508 0.98025 0.25558 0.0
H1550 H 0.57214 0.044 0.26842 0.0
H1551 H 0.52176 0.92709 0.24429 0.0
H1552 H 0.49792 0.85261 0.23867 0.0
H1553 H 0.39042 0.80423 0.25977 0.0
H1554 H 0.41403 0.87843 0.26566 0.0
H1555 H 0.43377 0.11084 0.24824 0.0
H1556 H 0.4767 0.07492 0.24825 0.0
H1557 H 0.39059 0.98368 0.27098 0.0
H1558 H 0.34746 0.02 0.27104 0.0
H1559 H 0.423 0.9478 0.2555 0.0
H1560 H 0.47486 0.06542 0.27977 0.0
H1561 H 0.49848 0.14027 0.28502 0.0
H1562 H 0.60353 0.18756 0.26321 0.0
H1563 H 0.58 0.11295 0.25768 0.0
C1564 C 0.57228 0.90951 0.27108 0.0
C1565 C 0.61149 0.92754 0.26555 0.0
C1566 C 0.54591 0.92789 0.27053 0.0
C1567 C 0.55791 0.96446 0.26434 0.0
C1568 C 0.59843 0.98427 0.25934 0.0
C1569 C 0.6251 0.9659 0.25994 0.0
C1570 C 0.52707 0.98044 0.26276 0.0
C1571 C 0.53978 0.02314 0.26546 0.0
C1572 C 0.48446 0.95296 0.25907 0.0
C1573 C 0.46991 0.90831 0.25548 0.0
C1574 C 0.49322 0.90055 0.24779 0.0
C1575 C 0.47973 0.85839 0.24455 0.0
C1576 C 0.44273 0.8237 0.24888 0.0
C1577 C 0.4191 0.83113 0.25644 0.0
C1578 C 0.43251 0.87324 0.25973 0.0
C1579 C 0.42335 0.08243 0.25304 0.0
C1580 C 0.38758 0.0684 0.25972 0.0
C1581 C 0.44797 0.06206 0.25307 0.0
C1582 C 0.43732 0.02724 0.25977 0.0
C1583 C 0.39942 0.01068 0.26578 0.0
C1584 C 0.37469 0.03123 0.26578 0.0
C1585 C 0.46813 0.01122 0.26118 0.0
C1586 C 0.4554 0.96858 0.25845 0.0
C1587 C 0.51076 0.03876 0.26481 0.0
C1588 C 0.5254 0.08362 0.26823 0.0
C1589 C 0.50279 0.09179 0.27603 0.0
C1590 C 0.51618 0.13418 0.27906 0.0
C1591 C 0.55242 0.16866 0.27443 0.0
C1592 C 0.57542 0.16081 0.26678 0.0
C1593 C 0.56208 0.11848 0.26369 0.0
H1594 H 0.56275 0.20146 0.27679 0.0
H1595 H 0.43234 0.79107 0.24636 0.0
H1596 H 0.1806 0.08456 0.10343 0.0
H1597 H 0.10167 0.04859 0.10361 0.0
H1598 H 0.10099 0.05316 0.07012 0.0
H1599 H 0.18013 0.09187 0.07 0.0
H1600 H 0.04238 0.06647 0.07602 0.0
H1601 H 0.07532 0.95731 0.08564 0.0
H1602 H 0.10983 0.92384 0.09561 0.0
H1603 H 0.04781 0.93154 0.12347 0.0
H1604 H 0.01336 0.96559 0.11369 0.0
H1605 H 0.82076 0.89687 0.07116 0.0
H1606 H 0.90004 0.93507 0.07121 0.0
H1607 H 0.90058 0.97243 0.10304 0.0
H1608 H 0.82128 0.93509 0.103 0.0
H1609 H 0.95755 0.93643 0.09789 0.0
H1610 H 0.92329 0.04527 0.08658 0.0
H1611 H 0.8867 0.07258 0.07524 0.0
H1612 H 0.95001 0.05701 0.04858 0.0
H1613 H 0.98648 0.02897 0.05976 0.0
C1614 C 0.16355 0.07798 0.09611 0.0
C1615 C 0.18656 0.09092 0.0867 0.0
C1616 C 0.11828 0.05701 0.0962 0.0
C1617 C 0.09477 0.04689 0.08686 0.0
C1618 C 0.11796 0.06034 0.07745 0.0
C1619 C 0.1633 0.08244 0.07738 0.0
C1620 C 0.04624 0.02258 0.08689 0.0
C1621 C 0.02408 0.03772 0.08071 0.0
C1622 C 0.02165 0.98507 0.09305 0.0
C1623 C 0.0421 0.96438 0.09895 0.0
C1624 C 0.06926 0.95211 0.09391 0.0
C1625 C 0.08878 0.93301 0.09952 0.0
C1626 C 0.08111 0.92567 0.11017 0.0
C1627 C 0.05377 0.9373 0.11522 0.0
C1628 C 0.03421 0.95647 0.10965 0.0
C1629 C 0.83772 0.91308 0.07819 0.0
C1630 C 0.81467 0.91293 0.08708 0.0
C1631 C 0.88304 0.93499 0.07819 0.0
C1632 C 0.90623 0.95666 0.08712 0.0
C1633 C 0.88333 0.9559 0.09607 0.0
C1634 C 0.83803 0.93468 0.09601 0.0
C1635 C 0.95438 0.98053 0.08708 0.0
C1636 C 0.97624 0.96521 0.09323 0.0
C1637 C 0.97863 0.01709 0.08069 0.0
C1638 C 0.95729 0.03464 0.074 0.0
C1639 C 0.92915 0.04736 0.07829 0.0
C1640 C 0.90848 0.06302 0.07189 0.0
C1641 C 0.91593 0.06641 0.06119 0.0
C1642 C 0.94422 0.05431 0.05687 0.0
C1643 C 0.96493 0.03857 0.06324 0.0
H1644 H 0.89986 0.07851 0.05625 0.0
H1645 H 0.09626 0.91089 0.11451 0.0
H1646 H 0.08389 0.17061 0.40053 0.0
H1647 H 0.03718 0.09238 0.40145 0.0
H1648 H 0.051 0.09707 0.43476 0.0
H1649 H 0.09897 0.17521 0.43388 0.0
H1650 H 0.05609 0.03153 0.42766 0.0
H1651 H 0.95724 0.0829 0.42265 0.0
H1652 H 0.92717 0.1242 0.41432 0.0
H1653 H 0.90876 0.05387 0.38598 0.0
H1654 H 0.93928 0.01252 0.3941 0.0
H1655 H 0.87731 0.81652 0.43541 0.0
H1656 H 0.92268 0.89547 0.43566 0.0
H1657 H 0.93241 0.89684 0.40228 0.0
H1658 H 0.88763 0.81815 0.40195 0.0
H1659 H 0.91318 0.95895 0.41025 0.0
H1660 H 0.01468 0.90908 0.41576 0.0
H1661 H 0.04307 0.86749 0.42471 0.0
H1662 H 0.05365 0.93518 0.45307 0.0
H1663 H 0.0247 0.97675 0.44432 0.0
C1664 C 0.07698 0.1551 0.40807 0.0
C1665 C 0.09495 0.17944 0.41714 0.0
C1666 C 0.05002 0.11027 0.40858 0.0
C1667 C 0.03981 0.08872 0.4182 0.0
C1668 C 0.05817 0.11286 0.42725 0.0
C1669 C 0.08548 0.15768 0.42674 0.0
C1670 C 0.01044 0.04103 0.41877 0.0
C1671 C 0.02456 0.01582 0.42399 0.0
C1672 C 0.96943 0.02019 0.41388 0.0
C1673 C 0.95092 0.04489 0.40896 0.0
C1674 C 0.94707 0.07646 0.41462 0.0
C1675 C 0.9299 0.09984 0.40994 0.0
C1676 C 0.91616 0.09174 0.39962 0.0
C1677 C 0.91946 0.06014 0.39397 0.0
C1678 C 0.93666 0.03669 0.39861 0.0
C1679 C 0.8891 0.83364 0.42812 0.0
C1680 C 0.87902 0.811 0.41866 0.0
C1681 C 0.91509 0.87872 0.42828 0.0
C1682 C 0.93106 0.90199 0.41899 0.0
C1683 C 0.92044 0.87953 0.40954 0.0
C1684 C 0.89499 0.83451 0.40938 0.0
C1685 C 0.95907 0.94975 0.41906 0.0
C1686 C 0.94463 0.97487 0.41396 0.0
C1687 C 0.9995 0.9705 0.42417 0.0
C1688 C 0.01706 0.94566 0.42942 0.0
C1689 C 0.02269 0.91481 0.42393 0.0
C1690 C 0.03895 0.8913 0.42896 0.0
C1691 C 0.05003 0.89859 0.43946 0.0
C1692 C 0.04498 0.92951 0.44494 0.0
C1693 C 0.02867 0.95307 0.43995 0.0
H1694 H 0.06263 0.88036 0.44334 0.0
H1695 H 0.90287 0.10988 0.39601 0.0
H1696 H 0.93548 0.11328 0.76884 0.0
H1697 H 0.96755 0.06691 0.76981 0.0
H1698 H 0.95302 0.04704 0.73669 0.0
H1699 H 0.91993 0.09235 0.73569 0.0
H1700 H 0.92979 0.97354 0.74594 0.0
H1701 H 0.05203 0.11701 0.74826 0.0
H1702 H 0.09526 0.19051 0.75539 0.0
H1703 H 0.10038 0.13781 0.78496 0.0
H1704 H 0.05666 0.06393 0.77803 0.0
H1705 H 0.07917 0.90239 0.73596 0.0
H1706 H 0.04486 0.94671 0.73697 0.0
H1707 H 0.04312 0.93861 0.77038 0.0
H1708 H 0.07713 0.89371 0.76946 0.0
H1709 H 0.07309 0.02403 0.76218 0.0
H1710 H 0.95328 0.87968 0.75902 0.0
H1711 H 0.91217 0.80722 0.75122 0.0
H1712 H 0.90498 0.86346 0.72237 0.0
H1713 H 0.94665 0.93636 0.72996 0.0
C1714 C 0.93912 0.09905 0.76176 0.0
C1715 C 0.92516 0.10656 0.75218 0.0
C1716 C 0.95764 0.07267 0.76232 0.0
C1717 C 0.9632 0.05384 0.7533 0.0
C1718 C 0.94904 0.06113 0.74375 0.0
C1719 C 0.93019 0.08715 0.74319 0.0
C1720 C 0.98352 0.02635 0.75377 0.0
C1721 C 0.96133 0.98484 0.7494 0.0
C1722 C 0.02427 0.04058 0.75849 0.0
C1723 C 0.05067 0.08495 0.76266 0.0
C1724 C 0.06209 0.1211 0.7563 0.0
C1725 C 0.08673 0.16282 0.7603 0.0
C1726 C 0.10045 0.16883 0.77063 0.0
C1727 C 0.08966 0.1331 0.77697 0.0
C1728 C 0.06498 0.0913 0.77301 0.0
C1729 C 0.07166 0.91012 0.74353 0.0
C1730 C 0.08086 0.89451 0.75263 0.0
C1731 C 0.05193 0.93532 0.74409 0.0
C1732 C 0.04128 0.94569 0.75375 0.0
C1733 C 0.05109 0.93089 0.76286 0.0
C1734 C 0.07037 0.90515 0.76231 0.0
C1735 C 0.01954 0.9717 0.75424 0.0
C1736 C 0.04145 0.01281 0.75879 0.0
C1737 C 0.97875 0.95732 0.7496 0.0
C1738 C 0.95344 0.91351 0.74503 0.0
C1739 C 0.94326 0.87663 0.75098 0.0
C1740 C 0.91979 0.83547 0.74661 0.0
C1741 C 0.90606 0.83074 0.7363 0.0
C1742 C 0.91568 0.86718 0.73035 0.0
C1743 C 0.93918 0.90842 0.73469 0.0
H1744 H 0.8879 0.79885 0.73292 0.0
H1745 H 0.11953 0.20116 0.77371 0.0
H1746 H 0.8649 0.82451 0.60843 0.0
H1747 H 0.90564 0.9037 0.60826 0.0
H1748 H 0.02328 0.90172 0.60211 0.0
H1749 H 0.98259 0.82243 0.60197 0.0
H1750 H 0.02242 0.9592 0.61978 0.0
H1751 H 0.99132 0.92619 0.58321 0.0
H1752 H 0.94268 0.89044 0.5684 0.0
H1753 H 0.87037 0.95312 0.57603 0.0
H1754 H 0.91821 0.98873 0.59099 0.0
H1755 H 0.16053 0.18292 0.61069 0.0
H1756 H 0.12286 0.10407 0.60995 0.0
H1757 H 0.00368 0.10162 0.60271 0.0
H1758 H 0.04186 0.18053 0.60287 0.0
H1759 H 0.00544 0.04465 0.59174 0.0
H1760 H 0.03019 0.07625 0.62792 0.0
H1761 H 0.0722 0.1101 0.64377 0.0
H1762 H 0.14795 0.04905 0.63856 0.0
H1763 H 0.10675 0.01526 0.62259 0.0
C1764 C 0.89943 0.8409 0.60701 0.0
C1765 C 0.92051 0.81718 0.60519 0.0
C1766 C 0.92262 0.88613 0.60691 0.0
C1767 C 0.96744 0.90852 0.60519 0.0
C1768 C 0.9887 0.88501 0.60347 0.0
C1769 C 0.96538 0.83975 0.60334 0.0
C1770 C 0.99202 0.95651 0.6052 0.0
C1771 C 0.01932 0.97805 0.61359 0.0
C1772 C 0.98662 0.98086 0.59731 0.0
C1773 C 0.95806 0.95974 0.58828 0.0
C1774 C 0.9648 0.93202 0.58179 0.0
C1775 C 0.93742 0.91185 0.57336 0.0
C1776 C 0.90337 0.91941 0.57129 0.0
C1777 C 0.89671 0.94725 0.57764 0.0
C1778 C 0.92397 0.96745 0.58609 0.0
C1779 C 0.12628 0.16554 0.60895 0.0
C1780 C 0.10416 0.18801 0.60689 0.0
C1781 C 0.10462 0.12032 0.60859 0.0
C1782 C 0.06 0.09641 0.60648 0.0
C1783 C 0.03801 0.11899 0.60436 0.0
C1784 C 0.05987 0.16421 0.60448 0.0
C1785 C 0.03632 0.04805 0.60638 0.0
C1786 C 0.00893 0.0262 0.59797 0.0
C1787 C 0.04084 0.02337 0.6144 0.0
C1788 C 0.06568 0.04359 0.624 0.0
C1789 C 0.05602 0.0703 0.63011 0.0
C1790 C 0.07965 0.08943 0.63912 0.0
C1791 C 0.1128 0.08182 0.64215 0.0
C1792 C 0.12231 0.05497 0.63619 0.0
C1793 C 0.09881 0.03579 0.62716 0.0
H1794 H 0.13105 0.09666 0.64913 0.0
H1795 H 0.88222 0.90377 0.56476 0.0
H1796 H 0.96504 0.14956 0.94743 0.0
H1797 H 0.00606 0.11115 0.94732 0.0
H1798 H 0.8922 0.9949 0.9374 0.0
H1799 H 0.85138 0.0333 0.93715 0.0
H1800 H 0.9515 0.99674 0.95694 0.0
H1801 H 0.9457 0.02557 0.91988 0.0
H1802 H 0.95686 0.07477 0.90529 0.0
H1803 H 0.09111 0.15194 0.91325 0.0
H1804 H 0.08052 0.10351 0.928 0.0
H1805 H 0.03381 0.85725 0.94634 0.0
H1806 H 0.99361 0.89601 0.94634 0.0
H1807 H 0.10972 0.01333 0.9376 0.0
H1808 H 0.14923 0.97384 0.93696 0.0
H1809 H 0.05001 0.01372 0.92783 0.0
H1810 H 0.06215 0.9882 0.96366 0.0
H1811 H 0.05614 0.94631 0.97941 0.0
H1812 H 0.91833 0.87229 0.97569 0.0
H1813 H 0.92356 0.91333 0.95983 0.0
C1814 C 0.94874 0.11582 0.94523 0.0
C1815 C 0.90497 0.09454 0.94227 0.0
C1816 C 0.97223 0.09396 0.94516 0.0
C1817 C 0.95216 0.0502 0.94234 0.0
C1818 C 0.90829 0.02866 0.93959 0.0
C1819 C 0.88509 0.05072 0.93942 0.0
C1820 C 0.97698 0.02695 0.94219 0.0
C1821 C 0.9727 0.99993 0.95054 0.0
C1822 C 0.00578 0.03244 0.93402 0.0
C1823 C 0.01219 0.06127 0.92511 0.0
C1824 C 0.97748 0.0533 0.91859 0.0
C1825 C 0.98372 0.08097 0.91027 0.0
C1826 C 0.02464 0.11655 0.90836 0.0
C1827 C 0.05942 0.12443 0.91475 0.0
C1828 C 0.05332 0.09687 0.92308 0.0
C1829 C 0.05074 0.89132 0.94442 0.0
C1830 C 0.09477 0.91247 0.94169 0.0
C1831 C 0.02777 0.91366 0.94449 0.0
C1832 C 0.04859 0.95814 0.94221 0.0
C1833 C 0.09261 0.97916 0.93941 0.0
C1834 C 0.1153 0.95654 0.93907 0.0
C1835 C 0.0245 0.98257 0.9426 0.0
C1836 C 0.02895 0.01016 0.9343 0.0
C1837 C 0.9966 0.97835 0.95096 0.0
C1838 C 0.99331 0.95356 0.9605 0.0
C1839 C 0.03059 0.96277 0.96616 0.0
C1840 C 0.02732 0.93921 0.97511 0.0
C1841 C 0.98689 0.90658 0.97853 0.0
C1842 C 0.94963 0.89752 0.97302 0.0
C1843 C 0.95272 0.92094 0.96405 0.0
H1844 H 0.98443 0.88838 0.98547 0.0
H1845 H 0.02941 0.13794 0.90192 0.0
H1846 H 0.18791 0.05272 0.28765 0.0
H1847 H 0.1088 0.01028 0.28743 0.0
H1848 H 0.10547 0.09794 0.26495 0.0
H1849 H 0.18437 0.1406 0.26516 0.0
H1850 H 0.04575 0.07911 0.27984 0.0
H1851 H 0.08868 1.00029 0.25746 0.0
H1852 H 0.12798 0.9625 0.25261 0.0
H1853 H 0.06399 0.87037 0.27707 0.0
H1854 H 0.02475 0.90801 0.28217 0.0
H1855 H 0.82772 0.8816 0.26111 0.0
H1856 H 0.90673 0.92484 0.26067 0.0
H1857 H 0.90691 0.96839 0.2919 0.0
H1858 H 0.82805 0.92592 0.29235 0.0
H1859 H 0.96834 0.92256 0.27167 0.0
H1860 H 0.99046 0.07058 0.29499 0.0
H1861 H 0.95129 0.10989 0.29838 0.0
H1862 H 0.88518 0.06631 0.26925 0.0
H1863 H 0.92436 0.02724 0.26563 0.0
C1864 C 0.17039 0.06301 0.28266 0.0
C1865 C 0.19265 0.10006 0.2764 0.0
C1866 C 0.1251 0.0386 0.28252 0.0
C1867 C 0.10108 0.05068 0.27611 0.0
C1868 C 0.12321 0.08793 0.26996 0.0
C1869 C 0.16843 0.11222 0.27006 0.0
C1870 C 0.05292 0.02458 0.27581 0.0
C1871 C 0.02885 0.04486 0.27808 0.0
C1872 C 0.0307 0.98002 0.27333 0.0
C1873 C 0.0541 0.95722 0.27026 0.0
C1874 C 0.08325 0.97217 0.26186 0.0
C1875 C 0.10547 0.95075 0.25906 0.0
C1876 C 0.09857 0.91412 0.26454 0.0
C1877 C 0.06935 0.89878 0.27283 0.0
C1878 C 0.04708 0.92013 0.27568 0.0
C1879 C 0.84452 0.90051 0.26788 0.0
C1880 C 0.82136 0.90044 0.27674 0.0
C1881 C 0.88978 0.92511 0.26763 0.0
C1882 C 0.91293 0.95031 0.27621 0.0
C1883 C 0.88989 0.94988 0.28511 0.0
C1884 C 0.84467 0.92541 0.28536 0.0
C1885 C 0.96111 0.97693 0.27587 0.0
C1886 C 0.9852 0.95677 0.27347 0.0
C1887 C 0.98337 0.02178 0.27807 0.0
C1888 C 0.96005 0.04565 0.2801 0.0
C1889 C 0.96769 0.06954 0.2893 0.0
C1890 C 0.94547 0.09176 0.29126 0.0
C1891 C 0.91567 0.09049 0.28405 0.0
C1892 C 0.90815 0.06714 0.27485 0.0
C1893 C 0.93032 0.04491 0.27284 0.0
H1894 H 0.89846 0.10767 0.28559 0.0
H1895 H 0.1158 0.89758 0.26236 0.0
loop_
_geom_bond_atom_site_label_1
_geom_bond_atom_site_label_2
_geom_bond_distance
_geom_bond_site_symmetry_2
_ccdc_geom_bond_type
Co0 N4 2.148 . S
Co0 N10 2.128 . S
Co0 N20 2.194 . S
Co0 O25 2.351 . S
Co0 O26 2.155 . S
Co0 O27 2.096 . S
C1 N4 1.301 . S
C1 N5 1.328 . S
C1 H6 0.930 . S
C2 C3 1.333 . S
C2 N4 1.317 . S
C2 H7 0.930 . S
C3 C2 1.333 . S
C3 N5 1.350 . S
C3 H29 0.931 . S
N4 Co0 2.148 . S
N4 C1 1.301 . S
N4 C2 1.317 . S
N5 C1 1.328 . S
N5 C3 1.350 . S
H6 C1 0.930 . S
H7 C2 0.930 . S
C8 O9 1.224 . S
C8 O27 1.247 . S
O9 C8 1.224 . S
N10 Co0 2.128 . S
N10 C11 1.355 . S
N10 C13 1.311 . S
C11 N10 1.355 . S
C11 C12 1.363 . S
C11 H23 0.929 . S
C12 C11 1.363 . S
C12 N14 1.375 . S
C12 H30 0.931 . S
C13 N10 1.311 . S
C13 N14 1.347 . S
C13 H24 0.929 . S
N14 C12 1.375 . S
N14 C13 1.347 . S
C15 C18 1.365 . S
C15 N20 1.328 . S
C15 H21 0.929 . S
C16 C17 1.362 . S
C16 C19 1.378 . S
C16 H31 0.929 . S
C17 C16 1.362 . S
C17 C18 1.366 . S
C18 C15 1.365 . S
C18 C17 1.366 . S
C18 H32 0.930 . S
C19 C16 1.378 . S
C19 N20 1.315 . S
C19 H22 0.930 . S
N20 Co0 2.194 . S
N20 C15 1.328 . S
N20 C19 1.315 . S
H21 C15 0.929 . S
H22 C19 0.930 . S
H23 C11 0.929 . S
H24 C13 0.929 . S
O25 Co0 2.351 . S
O25 C28 1.244 . S
O26 Co0 2.155 . S
O26 C28 1.240 . S
O27 Co0 2.096 . S
O27 C8 1.247 . S
C28 O25 1.244 . S
C28 O26 1.240 . S
H29 C3 0.931 . S
H30 C12 0.931 . S
H31 C16 0.929 . S
H32 C18 0.930 . S
Co33 N37 2.148 . S
Co33 N43 2.128 . S
Co33 N53 2.194 . S
Co33 O58 2.351 . S
Co33 O59 2.155 . S
Co33 O60 2.096 . S
C34 N37 1.301 . S
C34 N38 1.328 . S
C34 H39 0.930 . S
C35 C36 1.333 . S
C35 N37 1.317 . S
C35 H40 0.930 . S
C36 C35 1.333 . S
C36 N38 1.350 . S
C36 H62 0.931 . S
N37 Co33 2.148 . S
N37 C34 1.301 . S
N37 C35 1.317 . S
N38 C34 1.328 . S
N38 C36 1.350 . S
H39 C34 0.930 . S
H40 C35 0.930 . S
C41 O42 1.224 . S
C41 O60 1.247 . S
O42 C41 1.224 . S
N43 Co33 2.128 . S
N43 C44 1.355 . S
N43 C46 1.311 . S
C44 N43 1.355 . S
C44 C45 1.363 . S
C44 H56 0.929 . S
C45 C44 1.363 . S
C45 N47 1.375 . S
C45 H63 0.931 . S
C46 N43 1.311 . S
C46 N47 1.347 . S
C46 H57 0.929 . S
N47 C45 1.375 . S
N47 C46 1.347 . S
C48 C51 1.365 . S
C48 N53 1.328 . S
C48 H54 0.929 . S
C49 C50 1.362 . S
C49 C52 1.378 . S
C49 H64 0.929 . S
C50 C49 1.362 . S
C50 C51 1.366 . S
C51 C48 1.365 . S
C51 C50 1.366 . S
C51 H65 0.930 . S
C52 C49 1.378 . S
C52 N53 1.315 . S
C52 H55 0.930 . S
N53 Co33 2.194 . S
N53 C48 1.328 . S
N53 C52 1.315 . S
H54 C48 0.929 . S
H55 C52 0.930 . S
H56 C44 0.929 . S
H57 C46 0.929 . S
O58 Co33 2.351 . S
O58 C61 1.244 . S
O59 Co33 2.155 . S
O59 C61 1.240 . S
O60 Co33 2.096 . S
O60 C41 1.247 . S
C61 O58 1.244 . S
C61 O59 1.240 . S
H62 C36 0.931 . S
H63 C45 0.931 . S
H64 C49 0.929 . S
H65 C51 0.930 . S
Co66 N70 2.148 . S
Co66 N76 2.128 . S
Co66 N86 2.194 . S
Co66 O91 2.351 . S
Co66 O92 2.155 . S
Co66 O93 2.096 . S
C67 N70 1.301 . S
C67 N71 1.328 . S
C67 H72 0.930 . S
C68 C69 1.333 . S
C68 N70 1.317 . S
C68 H73 0.930 . S
C69 C68 1.333 . S
C69 N71 1.350 . S
C69 H95 0.931 . S
N70 Co66 2.148 . S
N70 C67 1.301 . S
N70 C68 1.317 . S
N71 C67 1.328 . S
N71 C69 1.350 . S
H72 C67 0.930 . S
H73 C68 0.930 . S
C74 O75 1.224 . S
C74 O93 1.247 . S
O75 C74 1.224 . S
N76 Co66 2.128 . S
N76 C77 1.355 . S
N76 C79 1.311 . S
C77 N76 1.355 . S
C77 C78 1.363 . S
C77 H89 0.929 . S
C78 C77 1.363 . S
C78 N80 1.375 . S
C78 H96 0.931 . S
C79 N76 1.311 . S
C79 N80 1.347 . S
C79 H90 0.929 . S
N80 C78 1.375 . S
N80 C79 1.347 . S
C81 C84 1.365 . S
C81 N86 1.328 . S
C81 H87 0.929 . S
C82 C83 1.362 . S
C82 C85 1.378 . S
C82 H97 0.929 . S
C83 C82 1.362 . S
C83 C84 1.366 . S
C84 C81 1.365 . S
C84 C83 1.366 . S
C84 H98 0.930 . S
C85 C82 1.378 . S
C85 N86 1.315 . S
C85 H88 0.930 . S
N86 Co66 2.194 . S
N86 C81 1.328 . S
N86 C85 1.315 . S
H87 C81 0.929 . S
H88 C85 0.930 . S
H89 C77 0.929 . S
H90 C79 0.929 . S
O91 Co66 2.351 . S
O91 C94 1.244 . S
O92 Co66 2.155 . S
O92 C94 1.240 . S
O93 Co66 2.096 . S
O93 C74 1.247 . S
C94 O91 1.244 . S
C94 O92 1.240 . S
H95 C69 0.931 . S
H96 C78 0.931 . S
H97 C82 0.929 . S
H98 C84 0.930 . S
Co99 N103 2.148 . S
Co99 N109 2.128 . S
Co99 N119 2.194 . S
Co99 O124 2.351 . S
Co99 O125 2.155 . S
Co99 O126 2.096 . S
C100 N103 1.301 . S
C100 N104 1.328 . S
C100 H105 0.930 . S
C101 C102 1.333 . S
C101 N103 1.317 . S
C101 H106 0.930 . S
C102 C101 1.333 . S
C102 N104 1.350 . S
C102 H128 0.931 . S
N103 Co99 2.148 . S
N103 C100 1.301 . S
N103 C101 1.317 . S
N104 C100 1.328 . S
N104 C102 1.350 . S
H105 C100 0.930 . S
H106 C101 0.930 . S
C107 O108 1.224 . S
C107 O126 1.247 . S
O108 C107 1.224 . S
N109 Co99 2.128 . S
N109 C110 1.355 . S
N109 C112 1.311 . S
C110 N109 1.355 . S
C110 C111 1.363 . S
C110 H122 0.929 . S
C111 C110 1.363 . S
C111 N113 1.375 . S
C111 H129 0.931 . S
C112 N109 1.311 . S
C112 N113 1.347 . S
C112 H123 0.929 . S
N113 C111 1.375 . S
N113 C112 1.347 . S
C114 C117 1.365 . S
C114 N119 1.328 . S
C114 H120 0.929 . S
C115 C116 1.362 . S
C115 C118 1.378 . S
C115 H130 0.929 . S
C116 C115 1.362 . S
C116 C117 1.366 . S
C117 C114 1.365 . S
C117 C116 1.366 . S
C117 H131 0.930 . S
C118 C115 1.378 . S
C118 N119 1.315 . S
C118 H121 0.930 . S
N119 Co99 2.194 . S
N119 C114 1.328 . S
N119 C118 1.315 . S
H120 C114 0.929 . S
H121 C118 0.930 . S
H122 C110 0.929 . S
H123 C112 0.929 . S
O124 Co99 2.351 . S
O124 C127 1.244 . S
O125 Co99 2.155 . S
O125 C127 1.240 . S
O126 Co99 2.096 . S
O126 C107 1.247 . S
C127 O124 1.244 . S
C127 O125 1.240 . S
H128 C102 0.931 . S
H129 C111 0.931 . S
H130 C115 0.929 . S
H131 C117 0.930 . S
Co132 N136 2.148 . S
Co132 N142 2.128 . S
Co132 N152 2.194 . S
Co132 O157 2.351 . S
Co132 O158 2.155 . S
Co132 O159 2.096 . S
C133 N136 1.301 . S
C133 N137 1.328 . S
C133 H138 0.930 . S
C134 C135 1.333 . S
C134 N136 1.317 . S
C134 H139 0.930 . S
C135 C134 1.333 . S
C135 N137 1.350 . S
C135 H161 0.931 . S
N136 Co132 2.148 . S
N136 C133 1.301 . S
N136 C134 1.317 . S
N137 C133 1.328 . S
N137 C135 1.350 . S
H138 C133 0.930 . S
H139 C134 0.930 . S
C140 O141 1.224 . S
C140 O159 1.247 . S
O141 C140 1.224 . S
N142 Co132 2.128 . S
N142 C143 1.355 . S
N142 C145 1.311 . S
C143 N142 1.355 . S
C143 C144 1.363 . S
C143 H155 0.929 . S
C144 C143 1.363 . S
C144 N146 1.375 . S
C144 H162 0.931 . S
C145 N142 1.311 . S
C145 N146 1.347 . S
C145 H156 0.929 . S
N146 C144 1.375 . S
N146 C145 1.347 . S
C147 C150 1.365 . S
C147 N152 1.328 . S
C147 H153 0.929 . S
C148 C149 1.362 . S
C148 C151 1.378 . S
C148 H163 0.929 . S
C149 C148 1.362 . S
C149 C150 1.366 . S
C150 C147 1.365 . S
C150 C149 1.366 . S
C150 H164 0.930 . S
C151 C148 1.378 . S
C151 N152 1.315 . S
C151 H154 0.930 . S
N152 Co132 2.194 . S
N152 C147 1.328 . S
N152 C151 1.315 . S
H153 C147 0.929 . S
H154 C151 0.930 . S
H155 C143 0.929 . S
H156 C145 0.929 . S
O157 Co132 2.351 . S
O157 C160 1.244 . S
O158 Co132 2.155 . S
O158 C160 1.240 . S
O159 Co132 2.096 . S
O159 C140 1.247 . S
C160 O157 1.244 . S
C160 O158 1.240 . S
H161 C135 0.931 . S
H162 C144 0.931 . S
H163 C148 0.929 . S
H164 C150 0.930 . S
Co165 N169 2.148 . S
Co165 N175 2.128 . S
Co165 N185 2.194 . S
Co165 O190 2.351 . S
Co165 O191 2.155 . S
Co165 O192 2.096 . S
C166 N169 1.301 . S
C166 N170 1.328 . S
C166 H171 0.930 . S
C167 C168 1.333 . S
C167 N169 1.317 . S
C167 H172 0.930 . S
C168 C167 1.333 . S
C168 N170 1.350 . S
C168 H194 0.931 . S
N169 Co165 2.148 . S
N169 C166 1.301 . S
N169 C167 1.317 . S
N170 C166 1.328 . S
N170 C168 1.350 . S
H171 C166 0.930 . S
H172 C167 0.930 . S
C173 O174 1.224 . S
C173 O192 1.247 . S
O174 C173 1.224 . S
N175 Co165 2.128 . S
N175 C176 1.355 . S
N175 C178 1.311 . S
C176 N175 1.355 . S
C176 C177 1.363 . S
C176 H188 0.929 . S
C177 C176 1.363 . S
C177 N179 1.375 . S
C177 H195 0.931 . S
C178 N175 1.311 . S
C178 N179 1.347 . S
C178 H189 0.929 . S
N179 C177 1.375 . S
N179 C178 1.347 . S
C180 C183 1.365 . S
C180 N185 1.328 . S
C180 H186 0.929 . S
C181 C182 1.362 . S
C181 C184 1.378 . S
C181 H196 0.929 . S
C182 C181 1.362 . S
C182 C183 1.366 . S
C183 C180 1.365 . S
C183 C182 1.366 . S
C183 H197 0.930 . S
C184 C181 1.378 . S
C184 N185 1.315 . S
C184 H187 0.930 . S
N185 Co165 2.194 . S
N185 C180 1.328 . S
N185 C184 1.315 . S
H186 C180 0.929 . S
H187 C184 0.930 . S
H188 C176 0.929 . S
H189 C178 0.929 . S
O190 Co165 2.351 . S
O190 C193 1.244 . S
O191 Co165 2.155 . S
O191 C193 1.240 . S
O192 Co165 2.096 . S
O192 C173 1.247 . S
C193 O190 1.244 . S
C193 O191 1.240 . S
H194 C168 0.931 . S
H195 C177 0.931 . S
H196 C181 0.929 . S
H197 C183 0.930 . S
Co198 N202 2.148 . S
Co198 N208 2.128 . S
Co198 N218 2.194 . S
Co198 O223 2.351 . S
Co198 O224 2.155 . S
Co198 O225 2.096 . S
C199 N202 1.301 . S
C199 N203 1.328 . S
C199 H204 0.930 . S
C200 C201 1.333 . S
C200 N202 1.317 . S
C200 H205 0.930 . S
C201 C200 1.333 . S
C201 N203 1.350 . S
C201 H227 0.931 . S
N202 Co198 2.148 . S
N202 C199 1.301 . S
N202 C200 1.317 . S
N203 C199 1.328 . S
N203 C201 1.350 . S
H204 C199 0.930 . S
H205 C200 0.930 . S
C206 O207 1.224 . S
C206 O225 1.247 . S
O207 C206 1.224 . S
N208 Co198 2.128 . S
N208 C209 1.355 . S
N208 C211 1.311 . S
C209 N208 1.355 . S
C209 C210 1.363 . S
C209 H221 0.929 . S
C210 C209 1.363 . S
C210 N212 1.375 . S
C210 H228 0.931 . S
C211 N208 1.311 . S
C211 N212 1.347 . S
C211 H222 0.929 . S
N212 C210 1.375 . S
N212 C211 1.347 . S
C213 C216 1.365 . S
C213 N218 1.328 . S
C213 H219 0.929 . S
C214 C215 1.362 . S
C214 C217 1.378 . S
C214 H229 0.929 . S
C215 C214 1.362 . S
C215 C216 1.366 . S
C216 C213 1.365 . S
C216 C215 1.366 . S
C216 H230 0.930 . S
C217 C214 1.378 . S
C217 N218 1.315 . S
C217 H220 0.930 . S
N218 Co198 2.194 . S
N218 C213 1.328 . S
N218 C217 1.315 . S
H219 C213 0.929 . S
H220 C217 0.930 . S
H221 C209 0.929 . S
H222 C211 0.929 . S
O223 Co198 2.351 . S
O223 C226 1.244 . S
O224 Co198 2.155 . S
O224 C226 1.240 . S
O225 Co198 2.096 . S
O225 C206 1.247 . S
C226 O223 1.244 . S
C226 O224 1.240 . S
H227 C201 0.931 . S
H228 C210 0.931 . S
H229 C214 0.929 . S
H230 C216 0.930 . S
Co231 N235 2.148 . S
Co231 N241 2.128 . S
Co231 N251 2.194 . S
Co231 O256 2.351 . S
Co231 O257 2.155 . S
Co231 O258 2.096 . S
C232 N235 1.301 . S
C232 N236 1.328 . S
C232 H237 0.930 . S
C233 C234 1.333 . S
C233 N235 1.317 . S
C233 H238 0.930 . S
C234 C233 1.333 . S
C234 N236 1.350 . S
C234 H260 0.931 . S
N235 Co231 2.148 . S
N235 C232 1.301 . S
N235 C233 1.317 . S
N236 C232 1.328 . S
N236 C234 1.350 . S
H237 C232 0.930 . S
H238 C233 0.930 . S
C239 O240 1.224 . S
C239 O258 1.247 . S
O240 C239 1.224 . S
N241 Co231 2.128 . S
N241 C242 1.355 . S
N241 C244 1.311 . S
C242 N241 1.355 . S
C242 C243 1.363 . S
C242 H254 0.929 . S
C243 C242 1.363 . S
C243 N245 1.375 . S
C243 H261 0.931 . S
C244 N241 1.311 . S
C244 N245 1.347 . S
C244 H255 0.929 . S
N245 C243 1.375 . S
N245 C244 1.347 . S
C246 C249 1.365 . S
C246 N251 1.328 . S
C246 H252 0.929 . S
C247 C248 1.362 . S
C247 C250 1.378 . S
C247 H262 0.929 . S
C248 C247 1.362 . S
C248 C249 1.366 . S
C249 C246 1.365 . S
C249 C248 1.366 . S
C249 H263 0.930 . S
C250 C247 1.378 . S
C250 N251 1.315 . S
C250 H253 0.930 . S
N251 Co231 2.194 . S
N251 C246 1.328 . S
N251 C250 1.315 . S
H252 C246 0.929 . S
H253 C250 0.930 . S
H254 C242 0.929 . S
H255 C244 0.929 . S
O256 Co231 2.351 . S
O256 C259 1.244 . S
O257 Co231 2.155 . S
O257 C259 1.240 . S
O258 Co231 2.096 . S
O258 C239 1.247 . S
C259 O256 1.244 . S
C259 O257 1.240 . S
H260 C234 0.931 . S
H261 C243 0.931 . S
H262 C247 0.929 . S
H263 C249 0.930 . S
Co264 N268 2.148 . S
Co264 N274 2.128 . S
Co264 N284 2.194 . S
Co264 O289 2.351 . S
Co264 O290 2.155 . S
Co264 O291 2.096 . S
C265 N268 1.301 . S
C265 N269 1.328 . S
C265 H270 0.930 . S
C266 C267 1.333 . S
C266 N268 1.317 . S
C266 H271 0.930 . S
C267 C266 1.333 . S
C267 N269 1.350 . S
C267 H293 0.931 . S
N268 Co264 2.148 . S
N268 C265 1.301 . S
N268 C266 1.317 . S
N269 C265 1.328 . S
N269 C267 1.350 . S
H270 C265 0.930 . S
H271 C266 0.930 . S
C272 O273 1.224 . S
C272 O291 1.247 . S
O273 C272 1.224 . S
N274 Co264 2.128 . S
N274 C275 1.355 . S
N274 C277 1.311 . S
C275 N274 1.355 . S
C275 C276 1.363 . S
C275 H287 0.929 . S
C276 C275 1.363 . S
C276 N278 1.375 . S
C276 H294 0.931 . S
C277 N274 1.311 . S
C277 N278 1.347 . S
C277 H288 0.929 . S
N278 C276 1.375 . S
N278 C277 1.347 . S
C279 C282 1.365 . S
C279 N284 1.328 . S
C279 H285 0.929 . S
C280 C281 1.362 . S
C280 C283 1.378 . S
C280 H295 0.929 . S
C281 C280 1.362 . S
C281 C282 1.366 . S
C282 C279 1.365 . S
C282 C281 1.366 . S
C282 H296 0.930 . S
C283 C280 1.378 . S
C283 N284 1.315 . S
C283 H286 0.930 . S
N284 Co264 2.194 . S
N284 C279 1.328 . S
N284 C283 1.315 . S
H285 C279 0.929 . S
H286 C283 0.930 . S
H287 C275 0.929 . S
H288 C277 0.929 . S
O289 Co264 2.351 . S
O289 C292 1.244 . S
O290 Co264 2.155 . S
O290 C292 1.240 . S
O291 Co264 2.096 . S
O291 C272 1.247 . S
C292 O289 1.244 . S
C292 O290 1.240 . S
H293 C267 0.931 . S
H294 C276 0.931 . S
H295 C280 0.929 . S
H296 C282 0.930 . S
Co297 N301 2.148 . S
Co297 N307 2.128 . S
Co297 N317 2.194 . S
Co297 O322 2.351 . S
Co297 O323 2.155 . S
Co297 O324 2.096 . S
C298 N301 1.301 . S
C298 N302 1.328 . S
C298 H303 0.930 . S
C299 C300 1.333 . S
C299 N301 1.317 . S
C299 H304 0.930 . S
C300 C299 1.333 . S
C300 N302 1.350 . S
C300 H326 0.931 . S
N301 Co297 2.148 . S
N301 C298 1.301 . S
N301 C299 1.317 . S
N302 C298 1.328 . S
N302 C300 1.350 . S
H303 C298 0.930 . S
H304 C299 0.930 . S
C305 O306 1.224 . S
C305 O324 1.247 . S
O306 C305 1.224 . S
N307 Co297 2.128 . S
N307 C308 1.355 . S
N307 C310 1.311 . S
C308 N307 1.355 . S
C308 C309 1.363 . S
C308 H320 0.929 . S
C309 C308 1.363 . S
C309 N311 1.375 . S
C309 H327 0.931 . S
C310 N307 1.311 . S
C310 N311 1.347 . S
C310 H321 0.929 . S
N311 C309 1.375 . S
N311 C310 1.347 . S
C312 C315 1.365 . S
C312 N317 1.328 . S
C312 H318 0.929 . S
C313 C314 1.362 . S
C313 C316 1.378 . S
C313 H328 0.929 . S
C314 C313 1.362 . S
C314 C315 1.366 . S
C315 C312 1.365 . S
C315 C314 1.366 . S
C315 H329 0.930 . S
C316 C313 1.378 . S
C316 N317 1.315 . S
C316 H319 0.930 . S
N317 Co297 2.194 . S
N317 C312 1.328 . S
N317 C316 1.315 . S
H318 C312 0.929 . S
H319 C316 0.930 . S
H320 C308 0.929 . S
H321 C310 0.929 . S
O322 Co297 2.351 . S
O322 C325 1.244 . S
O323 Co297 2.155 . S
O323 C325 1.240 . S
O324 Co297 2.096 . S
O324 C305 1.247 . S
C325 O322 1.244 . S
C325 O323 1.240 . S
H326 C300 0.931 . S
H327 C309 0.931 . S
H328 C313 0.929 . S
H329 C315 0.930 . S
Co330 N334 2.148 . S
Co330 N340 2.128 . S
Co330 N350 2.194 . S
Co330 O355 2.351 . S
Co330 O356 2.155 . S
Co330 O357 2.096 . S
C331 N334 1.301 . S
C331 N335 1.328 . S
C331 H336 0.930 . S
C332 C333 1.333 . S
C332 N334 1.317 . S
C332 H337 0.930 . S
C333 C332 1.333 . S
C333 N335 1.350 . S
C333 H359 0.931 . S
N334 Co330 2.148 . S
N334 C331 1.301 . S
N334 C332 1.317 . S
N335 C331 1.328 . S
N335 C333 1.350 . S
H336 C331 0.930 . S
H337 C332 0.930 . S
C338 O339 1.224 . S
C338 O357 1.247 . S
O339 C338 1.224 . S
N340 Co330 2.128 . S
N340 C341 1.355 . S
N340 C343 1.311 . S
C341 N340 1.355 . S
C341 C342 1.363 . S
C341 H353 0.929 . S
C342 C341 1.363 . S
C342 N344 1.375 . S
C342 H360 0.931 . S
C343 N340 1.311 . S
C343 N344 1.347 . S
C343 H354 0.929 . S
N344 C342 1.375 . S
N344 C343 1.347 . S
C345 C348 1.365 . S
C345 N350 1.328 . S
C345 H351 0.929 . S
C346 C347 1.362 . S
C346 C349 1.378 . S
C346 H361 0.929 . S
C347 C346 1.362 . S
C347 C348 1.366 . S
C348 C345 1.365 . S
C348 C347 1.366 . S
C348 H362 0.930 . S
C349 C346 1.378 . S
C349 N350 1.315 . S
C349 H352 0.930 . S
N350 Co330 2.194 . S
N350 C345 1.328 . S
N350 C349 1.315 . S
H351 C345 0.929 . S
H352 C349 0.930 . S
H353 C341 0.929 . S
H354 C343 0.929 . S
O355 Co330 2.351 . S
O355 C358 1.244 . S
O356 Co330 2.155 . S
O356 C358 1.240 . S
O357 Co330 2.096 . S
O357 C338 1.247 . S
C358 O355 1.244 . S
C358 O356 1.240 . S
H359 C333 0.931 . S
H360 C342 0.931 . S
H361 C346 0.929 . S
H362 C348 0.930 . S
Co363 N367 2.148 . S
Co363 N373 2.128 . S
Co363 N383 2.194 . S
Co363 O388 2.351 . S
Co363 O389 2.155 . S
Co363 O390 2.096 . S
C364 N367 1.301 . S
C364 N368 1.328 . S
C364 H369 0.930 . S
C365 C366 1.333 . S
C365 N367 1.317 . S
C365 H370 0.930 . S
C366 C365 1.333 . S
C366 N368 1.350 . S
C366 H392 0.931 . S
N367 Co363 2.148 . S
N367 C364 1.301 . S
N367 C365 1.317 . S
N368 C364 1.328 . S
N368 C366 1.350 . S
H369 C364 0.930 . S
H370 C365 0.930 . S
C371 O372 1.224 . S
C371 O390 1.247 . S
O372 C371 1.224 . S
N373 Co363 2.128 . S
N373 C374 1.355 . S
N373 C376 1.311 . S
C374 N373 1.355 . S
C374 C375 1.363 . S
C374 H386 0.929 . S
C375 C374 1.363 . S
C375 N377 1.375 . S
C375 H393 0.931 . S
C376 N373 1.311 . S
C376 N377 1.347 . S
C376 H387 0.929 . S
N377 C375 1.375 . S
N377 C376 1.347 . S
C378 C381 1.365 . S
C378 N383 1.328 . S
C378 H384 0.929 . S
C379 C380 1.362 . S
C379 C382 1.378 . S
C379 H394 0.929 . S
C380 C379 1.362 . S
C380 C381 1.366 . S
C381 C378 1.365 . S
C381 C380 1.366 . S
C381 H395 0.930 . S
C382 C379 1.378 . S
C382 N383 1.315 . S
C382 H385 0.930 . S
N383 Co363 2.194 . S
N383 C378 1.328 . S
N383 C382 1.315 . S
H384 C378 0.929 . S
H385 C382 0.930 . S
H386 C374 0.929 . S
H387 C376 0.929 . S
O388 Co363 2.351 . S
O388 C391 1.244 . S
O389 Co363 2.155 . S
O389 C391 1.240 . S
O390 Co363 2.096 . S
O390 C371 1.247 . S
C391 O388 1.244 . S
C391 O389 1.240 . S
H392 C366 0.931 . S
H393 C375 0.931 . S
H394 C379 0.929 . S
H395 C381 0.930 . S
H396 C414 0.951 . S
H397 C416 0.951 . S
H398 C418 0.950 1_565 S
H399 C419 0.950 . S
H400 C421 0.950 . S
H401 C424 0.950 . S
H402 C425 0.950 . S
H403 C427 0.950 . S
H404 C428 0.950 . S
H405 C429 0.951 . S
H406 C431 0.951 . S
H407 C433 0.950 1_545 S
H408 C434 0.950 . S
H409 C436 0.950 . S
H410 C439 0.950 . S
H411 C440 0.950 . S
H412 C442 0.950 . S
H413 C443 0.950 . S
C414 H396 0.951 . S
C414 C415 1.366 . S
C414 C416 1.388 . S
C415 C414 1.366 . S
C415 C419 1.385 . S
C416 H397 0.951 . S
C416 C414 1.388 . S
C416 C417 1.366 . S
C417 C416 1.366 . S
C417 C418 1.414 . S
C417 C420 1.499 . S
C418 H398 0.950 1_545 S
C418 C417 1.414 . S
C418 C419 1.374 . S
C419 H399 0.950 . S
C419 C415 1.385 . S
C419 C418 1.374 . S
C420 C417 1.499 . S
C420 C421 1.373 1_545 S
C420 C422 1.389 . S
C421 H400 0.950 . S
C421 C420 1.373 1_565 S
C421 C437 1.377 1_554 S
C422 C420 1.389 . S
C422 C423 1.524 . S
C422 C436 1.377 1_554 S
C423 C422 1.524 . S
C423 C424 1.397 . S
C423 C428 1.363 1_554 S
C424 H401 0.950 . S
C424 C423 1.397 . S
C424 C425 1.334 . S
C425 H402 0.950 . S
C425 C424 1.334 . S
C425 C426 1.287 . S
C426 C425 1.287 . S
C426 C427 1.524 1_554 S
C426 H445 0.913 . S
C427 H403 0.950 . S
C427 C426 1.524 1_556 S
C427 C428 1.415 . S
C428 H404 0.950 . S
C428 C423 1.363 1_556 S
C428 C427 1.415 . S
C429 H405 0.951 . S
C429 C430 1.366 . S
C429 C431 1.388 . S
C430 C429 1.366 . S
C430 C434 1.385 . S
C431 H406 0.951 . S
C431 C429 1.388 . S
C431 C432 1.366 . S
C432 C431 1.366 . S
C432 C433 1.414 . S
C432 C435 1.499 . S
C433 H407 0.950 1_565 S
C433 C432 1.414 . S
C433 C434 1.374 . S
C434 H408 0.950 . S
C434 C430 1.385 . S
C434 C433 1.374 . S
C435 C432 1.499 . S
C435 C436 1.373 1_565 S
C435 C437 1.389 . S
C436 H409 0.950 . S
C436 C422 1.377 1_556 S
C436 C435 1.373 1_545 S
C437 C421 1.377 1_556 S
C437 C435 1.389 . S
C437 C438 1.524 . S
C438 C437 1.524 . S
C438 C439 1.397 . S
C438 C443 1.363 1_556 S
C439 H410 0.950 . S
C439 C438 1.397 . S
C439 C440 1.334 . S
C440 H411 0.950 . S
C440 C439 1.334 . S
C440 C441 1.287 . S
C441 C440 1.287 . S
C441 C442 1.524 1_556 S
C441 H444 0.999 . S
C442 H412 0.950 . S
C442 C441 1.524 1_554 S
C442 C443 1.415 . S
C443 H413 0.950 . S
C443 C438 1.363 1_554 S
C443 C442 1.415 . S
H444 C441 0.999 . S
H445 C426 0.913 . S
H446 C464 0.951 . S
H447 C466 0.951 . S
H448 C468 0.950 . S
H449 C469 0.950 . S
H450 C471 0.950 . S
H451 C474 0.950 . S
H452 C475 0.950 . S
H453 C477 0.950 . S
H454 C478 0.950 . S
H455 C479 0.951 . S
H456 C481 0.951 . S
H457 C483 0.950 . S
H458 C484 0.950 . S
H459 C486 0.950 . S
H460 C489 0.950 . S
H461 C490 0.950 . S
H462 C492 0.950 . S
H463 C493 0.950 . S
C464 H446 0.951 . S
C464 C465 1.366 . S
C464 C466 1.388 . S
C465 C464 1.366 . S
C465 C469 1.385 . S
C466 H447 0.951 . S
C466 C464 1.388 . S
C466 C467 1.366 . S
C467 C466 1.366 . S
C467 C468 1.414 . S
C467 C470 1.499 . S
C468 H448 0.950 . S
C468 C467 1.414 . S
C468 C469 1.374 . S
C469 H449 0.950 . S
C469 C465 1.385 . S
C469 C468 1.374 . S
C470 C467 1.499 . S
C470 C471 1.373 . S
C470 C472 1.389 . S
C471 H450 0.950 . S
C471 C470 1.373 . S
C471 C487 1.377 . S
C472 C470 1.389 . S
C472 C473 1.524 . S
C472 C486 1.377 . S
C473 C472 1.524 . S
C473 C474 1.397 . S
C473 C478 1.363 . S
C474 H451 0.950 . S
C474 C473 1.397 . S
C474 C475 1.334 . S
C475 H452 0.950 . S
C475 C474 1.334 . S
C475 C476 1.287 . S
C476 C475 1.287 . S
C476 C477 1.524 . S
C476 H495 0.913 . S
C477 H453 0.950 . S
C477 C476 1.524 . S
C477 C478 1.415 . S
C478 H454 0.950 . S
C478 C473 1.363 . S
C478 C477 1.415 . S
C479 H455 0.951 . S
C479 C480 1.366 . S
C479 C481 1.388 . S
C480 C479 1.366 . S
C480 C484 1.385 . S
C481 H456 0.951 . S
C481 C479 1.388 . S
C481 C482 1.366 . S
C482 C481 1.366 . S
C482 C483 1.414 . S
C482 C485 1.499 . S
C483 H457 0.950 . S
C483 C482 1.414 . S
C483 C484 1.374 . S
C484 H458 0.950 . S
C484 C480 1.385 . S
C484 C483 1.374 . S
C485 C482 1.499 . S
C485 C486 1.373 . S
C485 C487 1.389 . S
C486 H459 0.950 . S
C486 C472 1.377 . S
C486 C485 1.373 . S
C487 C471 1.377 . S
C487 C485 1.389 . S
C487 C488 1.524 . S
C488 C487 1.524 . S
C488 C489 1.397 . S
C488 C493 1.363 . S
C489 H460 0.950 . S
C489 C488 1.397 . S
C489 C490 1.334 . S
C490 H461 0.950 . S
C490 C489 1.334 . S
C490 C491 1.287 . S
C491 C490 1.287 . S
C491 C492 1.524 . S
C491 H494 0.999 . S
C492 H462 0.950 . S
C492 C491 1.524 . S
C492 C493 1.415 . S
C493 H463 0.950 . S
C493 C488 1.363 . S
C493 C492 1.415 . S
H494 C491 0.999 . S
H495 C476 0.913 . S
H496 C514 0.951 . S
H497 C516 0.951 . S
H498 C518 0.950 . S
H499 C519 0.950 . S
H500 C521 0.950 . S
H501 C524 0.950 . S
H502 C525 0.950 . S
H503 C527 0.950 . S
H504 C528 0.950 . S
H505 C529 0.951 . S
H506 C531 0.951 . S
H507 C533 0.950 . S
H508 C534 0.950 . S
H509 C536 0.950 . S
H510 C539 0.950 . S
H511 C540 0.950 . S
H512 C542 0.950 . S
H513 C543 0.950 . S
C514 H496 0.951 . S
C514 C515 1.366 . S
C514 C516 1.388 . S
C515 C514 1.366 . S
C515 C519 1.385 . S
C516 H497 0.951 . S
C516 C514 1.388 . S
C516 C517 1.366 . S
C517 C516 1.366 . S
C517 C518 1.414 . S
C517 C520 1.499 . S
C518 H498 0.950 . S
C518 C517 1.414 . S
C518 C519 1.374 . S
C519 H499 0.950 . S
C519 C515 1.385 . S
C519 C518 1.374 . S
C520 C517 1.499 . S
C520 C521 1.373 1_655 S
C520 C522 1.389 . S
C521 H500 0.950 . S
C521 C520 1.373 1_455 S
C521 C537 1.377 . S
C522 C520 1.389 . S
C522 C523 1.524 . S
C522 C536 1.377 . S
C523 C522 1.524 . S
C523 C524 1.397 . S
C523 C528 1.363 . S
C524 H501 0.950 . S
C524 C523 1.397 . S
C524 C525 1.334 . S
C525 H502 0.950 . S
C525 C524 1.334 . S
C525 C526 1.287 . S
C526 C525 1.287 . S
C526 C527 1.524 . S
C526 H545 0.913 . S
C527 H503 0.950 . S
C527 C526 1.524 . S
C527 C528 1.415 . S
C528 H504 0.950 . S
C528 C523 1.363 . S
C528 C527 1.415 . S
C529 H505 0.951 . S
C529 C530 1.366 . S
C529 C531 1.388 . S
C530 C529 1.366 . S
C530 C534 1.385 . S
C531 H506 0.951 . S
C531 C529 1.388 . S
C531 C532 1.366 . S
C532 C531 1.366 . S
C532 C533 1.414 . S
C532 C535 1.499 . S
C533 H507 0.950 . S
C533 C532 1.414 . S
C533 C534 1.374 . S
C534 H508 0.950 . S
C534 C530 1.385 . S
C534 C533 1.374 . S
C535 C532 1.499 . S
C535 C536 1.373 1_455 S
C535 C537 1.389 . S
C536 H509 0.950 . S
C536 C522 1.377 . S
C536 C535 1.373 1_655 S
C537 C521 1.377 . S
C537 C535 1.389 . S
C537 C538 1.524 . S
C538 C537 1.524 . S
C538 C539 1.397 . S
C538 C543 1.363 . S
C539 H510 0.950 . S
C539 C538 1.397 . S
C539 C540 1.334 . S
C540 H511 0.950 . S
C540 C539 1.334 . S
C540 C541 1.287 . S
C541 C540 1.287 . S
C541 C542 1.524 . S
C541 H544 0.999 . S
C542 H512 0.950 . S
C542 C541 1.524 . S
C542 C543 1.415 . S
C543 H513 0.950 . S
C543 C538 1.363 . S
C543 C542 1.415 . S
H544 C541 0.999 . S
H545 C526 0.913 . S
H546 C564 0.951 . S
H547 C566 0.951 . S
H548 C568 0.950 . S
H549 C569 0.950 . S
H550 C571 0.950 . S
H551 C574 0.950 . S
H552 C575 0.950 . S
H553 C577 0.950 . S
H554 C578 0.950 . S
H555 C579 0.951 . S
H556 C581 0.951 . S
H557 C583 0.950 . S
H558 C584 0.950 . S
H559 C586 0.950 . S
H560 C589 0.950 . S
H561 C590 0.950 . S
H562 C592 0.950 . S
H563 C593 0.950 . S
C564 H546 0.951 . S
C564 C565 1.366 . S
C564 C566 1.388 . S
C565 C564 1.366 . S
C565 C569 1.385 . S
C566 H547 0.951 . S
C566 C564 1.388 . S
C566 C567 1.366 . S
C567 C566 1.366 . S
C567 C568 1.414 . S
C567 C570 1.499 . S
C568 H548 0.950 . S
C568 C567 1.414 . S
C568 C569 1.374 . S
C569 H549 0.950 . S
C569 C565 1.385 . S
C569 C568 1.374 . S
C570 C567 1.499 . S
C570 C571 1.373 . S
C570 C572 1.389 1_545 S
C571 H550 0.950 . S
C571 C570 1.373 . S
C571 C587 1.377 1_556 S
C572 C570 1.389 1_565 S
C572 C573 1.524 . S
C572 C586 1.377 1_556 S
C573 C572 1.524 . S
C573 C574 1.397 . S
C573 C578 1.363 . S
C574 H551 0.950 . S
C574 C573 1.397 . S
C574 C575 1.334 . S
C575 H552 0.950 . S
C575 C574 1.334 . S
C575 C576 1.287 . S
C576 C575 1.287 . S
C576 C577 1.524 . S
C576 H595 0.913 . S
C577 H553 0.950 . S
C577 C576 1.524 . S
C577 C578 1.415 . S
C578 H554 0.950 . S
C578 C573 1.363 . S
C578 C577 1.415 . S
C579 H555 0.951 . S
C579 C580 1.366 . S
C579 C581 1.388 . S
C580 C579 1.366 . S
C580 C584 1.385 . S
C581 H556 0.951 . S
C581 C579 1.388 . S
C581 C582 1.366 . S
C582 C581 1.366 . S
C582 C583 1.414 . S
C582 C585 1.499 . S
C583 H557 0.950 . S
C583 C582 1.414 . S
C583 C584 1.374 . S
C584 H558 0.950 . S
C584 C580 1.385 . S
C584 C583 1.374 . S
C585 C582 1.499 . S
C585 C586 1.373 . S
C585 C587 1.389 1_565 S
C586 H559 0.950 . S
C586 C572 1.377 1_554 S
C586 C585 1.373 . S
C587 C571 1.377 1_554 S
C587 C585 1.389 1_545 S
C587 C588 1.524 . S
C588 C587 1.524 . S
C588 C589 1.397 . S
C588 C593 1.363 . S
C589 H560 0.950 . S
C589 C588 1.397 . S
C589 C590 1.334 . S
C590 H561 0.950 . S
C590 C589 1.334 . S
C590 C591 1.287 . S
C591 C590 1.287 . S
C591 C592 1.524 . S
C591 H594 0.999 . S
C592 H562 0.950 . S
C592 C591 1.524 . S
C592 C593 1.415 . S
C593 H563 0.950 . S
C593 C588 1.363 . S
C593 C592 1.415 . S
H594 C591 0.999 . S
H595 C576 0.913 . S
H596 C614 0.951 . S
H597 C616 0.951 . S
H598 C618 0.950 . S
H599 C619 0.950 . S
H600 C621 0.950 . S
H601 C624 0.950 . S
H602 C625 0.950 . S
H603 C627 0.950 . S
H604 C628 0.950 . S
H605 C629 0.951 . S
H606 C631 0.951 . S
H607 C633 0.950 . S
H608 C634 0.950 . S
H609 C636 0.950 . S
H610 C639 0.950 . S
H611 C640 0.950 . S
H612 C642 0.950 . S
H613 C643 0.950 . S
C614 H596 0.951 . S
C614 C615 1.366 . S
C614 C616 1.388 . S
C615 C614 1.366 . S
C615 C619 1.385 . S
C616 H597 0.951 . S
C616 C614 1.388 . S
C616 C617 1.366 . S
C617 C616 1.366 . S
C617 C618 1.414 . S
C617 C620 1.499 . S
C618 H598 0.950 . S
C618 C617 1.414 . S
C618 C619 1.374 . S
C619 H599 0.950 . S
C619 C615 1.385 . S
C619 C618 1.374 . S
C620 C617 1.499 . S
C620 C621 1.373 . S
C620 C622 1.389 . S
C621 H600 0.950 . S
C621 C620 1.373 . S
C621 C637 1.377 . S
C622 C620 1.389 . S
C622 C623 1.524 . S
C622 C636 1.377 . S
C623 C622 1.524 . S
C623 C624 1.397 . S
C623 C628 1.363 . S
C624 H601 0.950 . S
C624 C623 1.397 . S
C624 C625 1.334 . S
C625 H602 0.950 . S
C625 C624 1.334 . S
C625 C626 1.287 . S
C626 C625 1.287 . S
C626 C627 1.524 . S
C626 H645 0.913 . S
C627 H603 0.950 . S
C627 C626 1.524 . S
C627 C628 1.415 . S
C628 H604 0.950 . S
C628 C623 1.363 . S
C628 C627 1.415 . S
C629 H605 0.951 . S
C629 C630 1.366 . S
C629 C631 1.388 . S
C630 C629 1.366 . S
C630 C634 1.385 . S
C631 H606 0.951 . S
C631 C629 1.388 . S
C631 C632 1.366 . S
C632 C631 1.366 . S
C632 C633 1.414 . S
C632 C635 1.499 . S
C633 H607 0.950 . S
C633 C632 1.414 . S
C633 C634 1.374 . S
C634 H608 0.950 . S
C634 C630 1.385 . S
C634 C633 1.374 . S
C635 C632 1.499 . S
C635 C636 1.373 . S
C635 C637 1.389 . S
C636 H609 0.950 . S
C636 C622 1.377 . S
C636 C635 1.373 . S
C637 C621 1.377 . S
C637 C635 1.389 . S
C637 C638 1.524 . S
C638 C637 1.524 . S
C638 C639 1.397 . S
C638 C643 1.363 . S
C639 H610 0.950 . S
C639 C638 1.397 . S
C639 C640 1.334 . S
C640 H611 0.950 . S
C640 C639 1.334 . S
C640 C641 1.287 . S
C641 C640 1.287 . S
C641 C642 1.524 . S
C641 H644 0.999 . S
C642 H612 0.950 . S
C642 C641 1.524 . S
C642 C643 1.415 . S
C643 H613 0.950 . S
C643 C638 1.363 . S
C643 C642 1.415 . S
H644 C641 0.999 . S
H645 C626 0.913 . S
H646 C664 0.951 . S
H647 C666 0.951 . S
H648 C668 0.950 . S
H649 C669 0.950 . S
H650 C671 0.950 . S
H651 C674 0.950 . S
H652 C675 0.950 . S
H653 C677 0.950 . S
H654 C678 0.950 . S
H655 C679 0.951 . S
H656 C681 0.951 . S
H657 C683 0.950 . S
H658 C684 0.950 . S
H659 C686 0.950 . S
H660 C689 0.950 . S
H661 C690 0.950 . S
H662 C692 0.950 . S
H663 C693 0.950 . S
C664 H646 0.951 . S
C664 C665 1.366 . S
C664 C666 1.388 . S
C665 C664 1.366 . S
C665 C669 1.385 . S
C666 H647 0.951 . S
C666 C664 1.388 . S
C666 C667 1.366 . S
C667 C666 1.366 . S
C667 C668 1.414 . S
C667 C670 1.499 . S
C668 H648 0.950 . S
C668 C667 1.414 . S
C668 C669 1.374 . S
C669 H649 0.950 . S
C669 C665 1.385 . S
C669 C668 1.374 . S
C670 C667 1.499 . S
C670 C671 1.373 1_455 S
C670 C672 1.389 . S
C671 H650 0.950 . S
C671 C670 1.373 1_655 S
C671 C687 1.377 . S
C672 C670 1.389 . S
C672 C673 1.524 . S
C672 C686 1.377 . S
C673 C672 1.524 . S
C673 C674 1.397 . S
C673 C678 1.363 . S
C674 H651 0.950 . S
C674 C673 1.397 . S
C674 C675 1.334 . S
C675 H652 0.950 . S
C675 C674 1.334 . S
C675 C676 1.287 . S
C676 C675 1.287 . S
C676 C677 1.524 . S
C676 H695 0.913 . S
C677 H653 0.950 . S
C677 C676 1.524 . S
C677 C678 1.415 . S
C678 H654 0.950 . S
C678 C673 1.363 . S
C678 C677 1.415 . S
C679 H655 0.951 . S
C679 C680 1.366 . S
C679 C681 1.388 . S
C680 C679 1.366 . S
C680 C684 1.385 . S
C681 H656 0.951 . S
C681 C679 1.388 . S
C681 C682 1.366 . S
C682 C681 1.366 . S
C682 C683 1.414 . S
C682 C685 1.499 . S
C683 H657 0.950 . S
C683 C682 1.414 . S
C683 C684 1.374 . S
C684 H658 0.950 . S
C684 C680 1.385 . S
C684 C683 1.374 . S
C685 C682 1.499 . S
C685 C686 1.373 1_655 S
C685 C687 1.389 . S
C686 H659 0.950 . S
C686 C672 1.377 . S
C686 C685 1.373 1_455 S
C687 C671 1.377 . S
C687 C685 1.389 . S
C687 C688 1.524 . S
C688 C687 1.524 . S
C688 C689 1.397 . S
C688 C693 1.363 . S
C689 H660 0.950 . S
C689 C688 1.397 . S
C689 C690 1.334 . S
C690 H661 0.950 . S
C690 C689 1.334 . S
C690 C691 1.287 . S
C691 C690 1.287 . S
C691 C692 1.524 . S
C691 H694 0.999 . S
C692 H662 0.950 . S
C692 C691 1.524 . S
C692 C693 1.415 . S
C693 H663 0.950 . S
C693 C688 1.363 . S
C693 C692 1.415 . S
H694 C691 0.999 . S
H695 C676 0.913 . S
H696 C714 0.951 . S
H697 C716 0.951 . S
H698 C718 0.950 1_545 S
H699 C719 0.950 . S
H700 C721 0.950 . S
H701 C724 0.950 . S
H702 C725 0.950 . S
H703 C727 0.950 . S
H704 C728 0.950 . S
H705 C729 0.951 . S
H706 C731 0.951 . S
H707 C733 0.950 1_565 S
H708 C734 0.950 . S
H709 C736 0.950 . S
H710 C739 0.950 . S
H711 C740 0.950 . S
H712 C742 0.950 . S
H713 C743 0.950 . S
C714 H696 0.951 . S
C714 C715 1.366 . S
C714 C716 1.388 . S
C715 C714 1.366 . S
C715 C719 1.385 . S
C716 H697 0.951 . S
C716 C714 1.388 . S
C716 C717 1.366 . S
C717 C716 1.366 . S
C717 C718 1.414 . S
C717 C720 1.499 . S
C718 H698 0.950 1_565 S
C718 C717 1.414 . S
C718 C719 1.374 . S
C719 H699 0.950 . S
C719 C715 1.385 . S
C719 C718 1.374 . S
C720 C717 1.499 . S
C720 C721 1.373 1_565 S
C720 C722 1.389 . S
C721 H700 0.950 . S
C721 C720 1.373 1_545 S
C721 C737 1.377 . S
C722 C720 1.389 . S
C722 C723 1.524 . S
C722 C736 1.377 . S
C723 C722 1.524 . S
C723 C724 1.397 . S
C723 C728 1.363 . S
C724 H701 0.950 . S
C724 C723 1.397 . S
C724 C725 1.334 . S
C725 H702 0.950 . S
C725 C724 1.334 . S
C725 C726 1.287 . S
C726 C725 1.287 . S
C726 C727 1.524 . S
C726 H745 0.913 . S
C727 H703 0.950 . S
C727 C726 1.524 . S
C727 C728 1.415 . S
C728 H704 0.950 . S
C728 C723 1.363 . S
C728 C727 1.415 . S
C729 H705 0.951 . S
C729 C730 1.366 . S
C729 C731 1.388 . S
C730 C729 1.366 . S
C730 C734 1.385 . S
C731 H706 0.951 . S
C731 C729 1.388 . S
C731 C732 1.366 . S
C732 C731 1.366 . S
C732 C733 1.414 . S
C732 C735 1.499 . S
C733 H707 0.950 1_545 S
C733 C732 1.414 . S
C733 C734 1.374 . S
C734 H708 0.950 . S
C734 C730 1.385 . S
C734 C733 1.374 . S
C735 C732 1.499 . S
C735 C736 1.373 1_545 S
C735 C737 1.389 . S
C736 H709 0.950 . S
C736 C722 1.377 . S
C736 C735 1.373 1_565 S
C737 C721 1.377 . S
C737 C735 1.389 . S
C737 C738 1.524 . S
C738 C737 1.524 . S
C738 C739 1.397 . S
C738 C743 1.363 . S
C739 H710 0.950 . S
C739 C738 1.397 . S
C739 C740 1.334 . S
C740 H711 0.950 . S
C740 C739 1.334 . S
C740 C741 1.287 . S
C741 C740 1.287 . S
C741 C742 1.524 . S
C741 H744 0.999 . S
C742 H712 0.950 . S
C742 C741 1.524 . S
C742 C743 1.415 . S
C743 H713 0.950 . S
C743 C738 1.363 . S
C743 C742 1.415 . S
H744 C741 0.999 . S
H745 C726 0.913 . S
H746 C764 0.951 . S
H747 C766 0.951 . S
H748 C768 0.950 . S
H749 C769 0.950 . S
H750 C771 0.950 . S
H751 C774 0.950 . S
H752 C775 0.950 . S
H753 C777 0.950 . S
H754 C778 0.950 . S
H755 C779 0.951 . S
H756 C781 0.951 . S
H757 C783 0.950 . S
H758 C784 0.950 . S
H759 C786 0.950 . S
H760 C789 0.950 . S
H761 C790 0.950 . S
H762 C792 0.950 . S
H763 C793 0.950 . S
C764 H746 0.951 . S
C764 C765 1.366 . S
C764 C766 1.388 . S
C765 C764 1.366 . S
C765 C769 1.385 . S
C766 H747 0.951 . S
C766 C764 1.388 . S
C766 C767 1.366 . S
C767 C766 1.366 . S
C767 C768 1.414 . S
C767 C770 1.499 . S
C768 H748 0.950 . S
C768 C767 1.414 . S
C768 C769 1.374 . S
C769 H749 0.950 . S
C769 C765 1.385 . S
C769 C768 1.374 . S
C770 C767 1.499 . S
C770 C771 1.373 . S
C770 C772 1.389 . S
C771 H750 0.950 . S
C771 C770 1.373 . S
C771 C787 1.377 . S
C772 C770 1.389 . S
C772 C773 1.524 . S
C772 C786 1.377 . S
C773 C772 1.524 . S
C773 C774 1.397 . S
C773 C778 1.363 . S
C774 H751 0.950 . S
C774 C773 1.397 . S
C774 C775 1.334 . S
C775 H752 0.950 . S
C775 C774 1.334 . S
C775 C776 1.287 . S
C776 C775 1.287 . S
C776 C777 1.524 . S
C776 H795 0.913 . S
C777 H753 0.950 . S
C777 C776 1.524 . S
C777 C778 1.415 . S
C778 H754 0.950 . S
C778 C773 1.363 . S
C778 C777 1.415 . S
C779 H755 0.951 . S
C779 C780 1.366 . S
C779 C781 1.388 . S
C780 C779 1.366 . S
C780 C784 1.385 . S
C781 H756 0.951 . S
C781 C779 1.388 . S
C781 C782 1.366 . S
C782 C781 1.366 . S
C782 C783 1.414 . S
C782 C785 1.499 . S
C783 H757 0.950 . S
C783 C782 1.414 . S
C783 C784 1.374 . S
C784 H758 0.950 . S
C784 C780 1.385 . S
C784 C783 1.374 . S
C785 C782 1.499 . S
C785 C786 1.373 . S
C785 C787 1.389 . S
C786 H759 0.950 . S
C786 C772 1.377 . S
C786 C785 1.373 . S
C787 C771 1.377 . S
C787 C785 1.389 . S
C787 C788 1.524 . S
C788 C787 1.524 . S
C788 C789 1.397 . S
C788 C793 1.363 . S
C789 H760 0.950 . S
C789 C788 1.397 . S
C789 C790 1.334 . S
C790 H761 0.950 . S
C790 C789 1.334 . S
C790 C791 1.287 . S
C791 C790 1.287 . S
C791 C792 1.524 . S
C791 H794 0.999 . S
C792 H762 0.950 . S
C792 C791 1.524 . S
C792 C793 1.415 . S
C793 H763 0.950 . S
C793 C788 1.363 . S
C793 C792 1.415 . S
H794 C791 0.999 . S
H795 C776 0.913 . S
H796 C814 0.951 . S
H797 C816 0.951 . S
H798 C818 0.950 1_655 S
H799 C819 0.950 . S
H800 C821 0.950 . S
H801 C824 0.950 1_655 S
H802 C825 0.950 . S
H803 C827 0.950 . S
H804 C828 0.950 . S
H805 C829 0.951 . S
H806 C831 0.951 . S
H807 C833 0.950 1_455 S
H808 C834 0.950 . S
H809 C836 0.950 . S
H810 C839 0.950 1_455 S
H811 C840 0.950 . S
H812 C842 0.950 . S
H813 C843 0.950 . S
C814 H796 0.951 . S
C814 C815 1.366 . S
C814 C816 1.388 . S
C815 C814 1.366 . S
C815 C819 1.385 . S
C816 H797 0.951 . S
C816 C814 1.388 . S
C816 C817 1.366 . S
C817 C816 1.366 . S
C817 C818 1.414 . S
C817 C820 1.499 . S
C818 H798 0.950 1_455 S
C818 C817 1.414 . S
C818 C819 1.374 . S
C819 H799 0.950 . S
C819 C815 1.385 . S
C819 C818 1.374 . S
C820 C817 1.499 . S
C820 C821 1.373 1_455 S
C820 C822 1.389 . S
C821 H800 0.950 . S
C821 C820 1.373 1_655 S
C821 C837 1.377 . S
C822 C820 1.389 . S
C822 C823 1.524 . S
C822 C836 1.377 . S
C823 C822 1.524 . S
C823 C824 1.397 . S
C823 C828 1.363 . S
C824 H801 0.950 1_455 S
C824 C823 1.397 . S
C824 C825 1.334 . S
C825 H802 0.950 . S
C825 C824 1.334 . S
C825 C826 1.287 . S
C826 C825 1.287 . S
C826 C827 1.524 . S
C826 H845 0.913 . S
C827 H803 0.950 . S
C827 C826 1.524 . S
C827 C828 1.415 . S
C828 H804 0.950 . S
C828 C823 1.363 . S
C828 C827 1.415 . S
C829 H805 0.951 . S
C829 C830 1.366 . S
C829 C831 1.388 . S
C830 C829 1.366 . S
C830 C834 1.385 . S
C831 H806 0.951 . S
C831 C829 1.388 . S
C831 C832 1.366 . S
C832 C831 1.366 . S
C832 C833 1.414 . S
C832 C835 1.499 . S
C833 H807 0.950 1_655 S
C833 C832 1.414 . S
C833 C834 1.374 . S
C834 H808 0.950 . S
C834 C830 1.385 . S
C834 C833 1.374 . S
C835 C832 1.499 . S
C835 C836 1.373 1_655 S
C835 C837 1.389 . S
C836 H809 0.950 . S
C836 C822 1.377 . S
C836 C835 1.373 1_455 S
C837 C821 1.377 . S
C837 C835 1.389 . S
C837 C838 1.524 . S
C838 C837 1.524 . S
C838 C839 1.397 . S
C838 C843 1.363 . S
C839 H810 0.950 1_655 S
C839 C838 1.397 . S
C839 C840 1.334 . S
C840 H811 0.950 . S
C840 C839 1.334 . S
C840 C841 1.287 . S
C841 C840 1.287 . S
C841 C842 1.524 . S
C841 H844 0.999 . S
C842 H812 0.950 . S
C842 C841 1.524 . S
C842 C843 1.415 . S
C843 H813 0.950 . S
C843 C838 1.363 . S
C843 C842 1.415 . S
H844 C841 0.999 . S
H845 C826 0.913 . S
H846 C864 0.951 . S
H847 C866 0.951 1_655 S
H848 C868 0.950 . S
H849 C869 0.950 . S
H850 C871 0.950 . S
H851 C874 0.950 1_455 S
H852 C875 0.950 . S
H853 C877 0.950 . S
H854 C878 0.950 . S
H855 C879 0.951 . S
H856 C881 0.951 1_455 S
H857 C883 0.950 . S
H858 C884 0.950 . S
H859 C886 0.950 . S
H860 C889 0.950 1_655 S
H861 C890 0.950 . S
H862 C892 0.950 . S
H863 C893 0.950 . S
C864 H846 0.951 . S
C864 C865 1.366 . S
C864 C866 1.388 . S
C865 C864 1.366 . S
C865 C869 1.385 . S
C866 H847 0.951 1_455 S
C866 C864 1.388 . S
C866 C867 1.366 . S
C867 C866 1.366 . S
C867 C868 1.414 . S
C867 C870 1.499 . S
C868 H848 0.950 . S
C868 C867 1.414 . S
C868 C869 1.374 . S
C869 H849 0.950 . S
C869 C865 1.385 . S
C869 C868 1.374 . S
C870 C867 1.499 . S
C870 C871 1.373 . S
C870 C872 1.389 1_455 S
C871 H850 0.950 . S
C871 C870 1.373 . S
C871 C887 1.377 . S
C872 C870 1.389 1_655 S
C872 C873 1.524 . S
C872 C886 1.377 . S
C873 C872 1.524 . S
C873 C874 1.397 . S
C873 C878 1.363 . S
C874 H851 0.950 1_655 S
C874 C873 1.397 . S
C874 C875 1.334 . S
C875 H852 0.950 . S
C875 C874 1.334 . S
C875 C876 1.287 . S
C876 C875 1.287 . S
C876 C877 1.524 . S
C876 H895 0.913 . S
C877 H853 0.950 . S
C877 C876 1.524 . S
C877 C878 1.415 . S
C878 H854 0.950 . S
C878 C873 1.363 . S
C878 C877 1.415 . S
C879 H855 0.951 . S
C879 C880 1.366 . S
C879 C881 1.388 . S
C880 C879 1.366 . S
C880 C884 1.385 . S
C881 H856 0.951 1_655 S
C881 C879 1.388 . S
C881 C882 1.366 . S
C882 C881 1.366 . S
C882 C883 1.414 . S
C882 C885 1.499 . S
C883 H857 0.950 . S
C883 C882 1.414 . S
C883 C884 1.374 . S
C884 H858 0.950 . S
C884 C880 1.385 . S
C884 C883 1.374 . S
C885 C882 1.499 . S
C885 C886 1.373 . S
C885 C887 1.389 1_655 S
C886 H859 0.950 . S
C886 C872 1.377 . S
C886 C885 1.373 . S
C887 C871 1.377 . S
C887 C885 1.389 1_455 S
C887 C888 1.524 . S
C888 C887 1.524 . S
C888 C889 1.397 . S
C888 C893 1.363 . S
C889 H860 0.950 1_455 S
C889 C888 1.397 . S
C889 C890 1.334 . S
C890 H861 0.950 . S
C890 C889 1.334 . S
C890 C891 1.287 . S
C891 C890 1.287 . S
C891 C892 1.524 . S
C891 H894 0.999 . S
C892 H862 0.950 . S
C892 C891 1.524 . S
C892 C893 1.415 . S
C893 H863 0.950 . S
C893 C888 1.363 . S
C893 C892 1.415 . S
H894 C891 0.999 . S
H895 C876 0.913 . S
H896 C914 0.951 . S
H897 C916 0.951 . S
H898 C918 0.950 1_565 S
H899 C919 0.950 . S
H900 C921 0.950 . S
H901 C924 0.950 . S
H902 C925 0.950 . S
H903 C927 0.950 . S
H904 C928 0.950 . S
H905 C929 0.951 . S
H906 C931 0.951 . S
H907 C933 0.950 1_545 S
H908 C934 0.950 . S
H909 C936 0.950 . S
H910 C939 0.950 . S
H911 C940 0.950 . S
H912 C942 0.950 . S
H913 C943 0.950 . S
C914 H896 0.951 . S
C914 C915 1.366 . S
C914 C916 1.388 . S
C915 C914 1.366 . S
C915 C919 1.385 . S
C916 H897 0.951 . S
C916 C914 1.388 . S
C916 C917 1.366 . S
C917 C916 1.366 . S
C917 C918 1.414 . S
C917 C920 1.499 . S
C918 H898 0.950 1_545 S
C918 C917 1.414 . S
C918 C919 1.374 . S
C919 H899 0.950 . S
C919 C915 1.385 . S
C919 C918 1.374 . S
C920 C917 1.499 . S
C920 C921 1.373 1_545 S
C920 C922 1.389 . S
C921 H900 0.950 . S
C921 C920 1.373 1_565 S
C921 C937 1.377 . S
C922 C920 1.389 . S
C922 C923 1.524 . S
C922 C936 1.377 . S
C923 C922 1.524 . S
C923 C924 1.397 . S
C923 C928 1.363 . S
C924 H901 0.950 . S
C924 C923 1.397 . S
C924 C925 1.334 . S
C925 H902 0.950 . S
C925 C924 1.334 . S
C925 C926 1.287 . S
C926 C925 1.287 . S
C926 C927 1.524 . S
C926 H945 0.913 . S
C927 H903 0.950 . S
C927 C926 1.524 . S
C927 C928 1.415 . S
C928 H904 0.950 . S
C928 C923 1.363 . S
C928 C927 1.415 . S
C929 H905 0.951 . S
C929 C930 1.366 . S
C929 C931 1.388 . S
C930 C929 1.366 . S
C930 C934 1.385 . S
C931 H906 0.951 . S
C931 C929 1.388 . S
C931 C932 1.366 . S
C932 C931 1.366 . S
C932 C933 1.414 . S
C932 C935 1.499 . S
C933 H907 0.950 1_565 S
C933 C932 1.414 . S
C933 C934 1.374 . S
C934 H908 0.950 . S
C934 C930 1.385 . S
C934 C933 1.374 . S
C935 C932 1.499 . S
C935 C936 1.373 1_565 S
C935 C937 1.389 . S
C936 H909 0.950 . S
C936 C922 1.377 . S
C936 C935 1.373 1_545 S
C937 C921 1.377 . S
C937 C935 1.389 . S
C937 C938 1.524 . S
C938 C937 1.524 . S
C938 C939 1.397 . S
C938 C943 1.363 . S
C939 H910 0.950 . S
C939 C938 1.397 . S
C939 C940 1.334 . S
C940 H911 0.950 . S
C940 C939 1.334 . S
C940 C941 1.287 . S
C941 C940 1.287 . S
C941 C942 1.524 . S
C941 H944 0.999 . S
C942 H912 0.950 . S
C942 C941 1.524 . S
C942 C943 1.415 . S
C943 H913 0.950 . S
C943 C938 1.363 . S
C943 C942 1.415 . S
H944 C941 0.999 . S
H945 C926 0.913 . S
H946 C964 0.951 . S
H947 C966 0.951 . S
H948 C968 0.950 . S
H949 C969 0.950 . S
H950 C971 0.950 . S
H951 C974 0.950 . S
H952 C975 0.950 . S
H953 C977 0.950 . S
H954 C978 0.950 . S
H955 C979 0.951 . S
H956 C981 0.951 . S
H957 C983 0.950 . S
H958 C984 0.950 . S
H959 C986 0.950 . S
H960 C989 0.950 . S
H961 C990 0.950 . S
H962 C992 0.950 . S
H963 C993 0.950 . S
C964 H946 0.951 . S
C964 C965 1.366 . S
C964 C966 1.388 . S
C965 C964 1.366 . S
C965 C969 1.385 . S
C966 H947 0.951 . S
C966 C964 1.388 . S
C966 C967 1.366 . S
C967 C966 1.366 . S
C967 C968 1.414 . S
C967 C970 1.499 . S
C968 H948 0.950 . S
C968 C967 1.414 . S
C968 C969 1.374 . S
C969 H949 0.950 . S
C969 C965 1.385 . S
C969 C968 1.374 . S
C970 C967 1.499 . S
C970 C971 1.373 . S
C970 C972 1.389 . S
C971 H950 0.950 . S
C971 C970 1.373 . S
C971 C987 1.377 . S
C972 C970 1.389 . S
C972 C973 1.524 . S
C972 C986 1.377 . S
C973 C972 1.524 . S
C973 C974 1.397 . S
C973 C978 1.363 . S
C974 H951 0.950 . S
C974 C973 1.397 . S
C974 C975 1.334 . S
C975 H952 0.950 . S
C975 C974 1.334 . S
C975 C976 1.287 . S
C976 C975 1.287 . S
C976 C977 1.524 . S
C976 H995 0.913 . S
C977 H953 0.950 . S
C977 C976 1.524 . S
C977 C978 1.415 . S
C978 H954 0.950 . S
C978 C973 1.363 . S
C978 C977 1.415 . S
C979 H955 0.951 . S
C979 C980 1.366 . S
C979 C981 1.388 . S
C980 C979 1.366 . S
C980 C984 1.385 . S
C981 H956 0.951 . S
C981 C979 1.388 . S
C981 C982 1.366 . S
C982 C981 1.366 . S
C982 C983 1.414 . S
C982 C985 1.499 . S
C983 H957 0.950 . S
C983 C982 1.414 . S
C983 C984 1.374 . S
C984 H958 0.950 . S
C984 C980 1.385 . S
C984 C983 1.374 . S
C985 C982 1.499 . S
C985 C986 1.373 . S
C985 C987 1.389 . S
C986 H959 0.950 . S
C986 C972 1.377 . S
C986 C985 1.373 . S
C987 C971 1.377 . S
C987 C985 1.389 . S
C987 C988 1.524 . S
C988 C987 1.524 . S
C988 C989 1.397 . S
C988 C993 1.363 . S
C989 H960 0.950 . S
C989 C988 1.397 . S
C989 C990 1.334 . S
C990 H961 0.950 . S
C990 C989 1.334 . S
C990 C991 1.287 . S
C991 C990 1.287 . S
C991 C992 1.524 . S
C991 H994 0.999 . S
C992 H962 0.950 . S
C992 C991 1.524 . S
C992 C993 1.415 . S
C993 H963 0.950 . S
C993 C988 1.363 . S
C993 C992 1.415 . S
H994 C991 0.999 . S
H995 C976 0.913 . S
H996 C1014 0.951 . S
H997 C1016 0.951 . S
H998 C1018 0.950 . S
H999 C1019 0.950 . S
H1000 C1021 0.950 . S
H1001 C1024 0.950 . S
H1002 C1025 0.950 . S
H1003 C1027 0.950 . S
H1004 C1028 0.950 . S
H1005 C1029 0.951 . S
H1006 C1031 0.951 . S
H1007 C1033 0.950 . S
H1008 C1034 0.950 . S
H1009 C1036 0.950 . S
H1010 C1039 0.950 . S
H1011 C1040 0.950 . S
H1012 C1042 0.950 . S
H1013 C1043 0.950 . S
C1014 H996 0.951 . S
C1014 C1015 1.366 . S
C1014 C1016 1.388 . S
C1015 C1014 1.366 . S
C1015 C1019 1.385 . S
C1016 H997 0.951 . S
C1016 C1014 1.388 . S
C1016 C1017 1.366 . S
C1017 C1016 1.366 . S
C1017 C1018 1.414 . S
C1017 C1020 1.499 . S
C1018 H998 0.950 . S
C1018 C1017 1.414 . S
C1018 C1019 1.374 . S
C1019 H999 0.950 . S
C1019 C1015 1.385 . S
C1019 C1018 1.374 . S
C1020 C1017 1.499 . S
C1020 C1021 1.373 . S
C1020 C1022 1.389 . S
C1021 H1000 0.950 . S
C1021 C1020 1.373 . S
C1021 C1037 1.377 . S
C1022 C1020 1.389 . S
C1022 C1023 1.524 . S
C1022 C1036 1.377 . S
C1023 C1022 1.524 . S
C1023 C1024 1.397 . S
C1023 C1028 1.363 . S
C1024 H1001 0.950 . S
C1024 C1023 1.397 . S
C1024 C1025 1.334 . S
C1025 H1002 0.950 . S
C1025 C1024 1.334 . S
C1025 C1026 1.287 . S
C1026 C1025 1.287 . S
C1026 C1027 1.524 . S
C1026 H1045 0.913 . S
C1027 H1003 0.950 . S
C1027 C1026 1.524 . S
C1027 C1028 1.415 . S
C1028 H1004 0.950 . S
C1028 C1023 1.363 . S
C1028 C1027 1.415 . S
C1029 H1005 0.951 . S
C1029 C1030 1.366 . S
C1029 C1031 1.388 . S
C1030 C1029 1.366 . S
C1030 C1034 1.385 . S
C1031 H1006 0.951 . S
C1031 C1029 1.388 . S
C1031 C1032 1.366 . S
C1032 C1031 1.366 . S
C1032 C1033 1.414 . S
C1032 C1035 1.499 . S
C1033 H1007 0.950 . S
C1033 C1032 1.414 . S
C1033 C1034 1.374 . S
C1034 H1008 0.950 . S
C1034 C1030 1.385 . S
C1034 C1033 1.374 . S
C1035 C1032 1.499 . S
C1035 C1036 1.373 . S
C1035 C1037 1.389 . S
C1036 H1009 0.950 . S
C1036 C1022 1.377 . S
C1036 C1035 1.373 . S
C1037 C1021 1.377 . S
C1037 C1035 1.389 . S
C1037 C1038 1.524 . S
C1038 C1037 1.524 . S
C1038 C1039 1.397 . S
C1038 C1043 1.363 . S
C1039 H1010 0.950 . S
C1039 C1038 1.397 . S
C1039 C1040 1.334 . S
C1040 H1011 0.950 . S
C1040 C1039 1.334 . S
C1040 C1041 1.287 . S
C1041 C1040 1.287 . S
C1041 C1042 1.524 . S
C1041 H1044 0.999 . S
C1042 H1012 0.950 . S
C1042 C1041 1.524 . S
C1042 C1043 1.415 . S
C1043 H1013 0.950 . S
C1043 C1038 1.363 . S
C1043 C1042 1.415 . S
H1044 C1041 0.999 . S
H1045 C1026 0.913 . S
H1046 C1064 0.951 . S
H1047 C1066 0.951 . S
H1048 C1068 0.950 . S
H1049 C1069 0.950 . S
H1050 C1071 0.950 . S
H1051 C1074 0.950 . S
H1052 C1075 0.950 . S
H1053 C1077 0.950 . S
H1054 C1078 0.950 . S
H1055 C1079 0.951 . S
H1056 C1081 0.951 . S
H1057 C1083 0.950 . S
H1058 C1084 0.950 . S
H1059 C1086 0.950 . S
H1060 C1089 0.950 . S
H1061 C1090 0.950 . S
H1062 C1092 0.950 . S
H1063 C1093 0.950 . S
C1064 H1046 0.951 . S
C1064 C1065 1.366 . S
C1064 C1066 1.388 . S
C1065 C1064 1.366 . S
C1065 C1069 1.385 . S
C1066 H1047 0.951 . S
C1066 C1064 1.388 . S
C1066 C1067 1.366 . S
C1067 C1066 1.366 . S
C1067 C1068 1.414 . S
C1067 C1070 1.499 . S
C1068 H1048 0.950 . S
C1068 C1067 1.414 . S
C1068 C1069 1.374 . S
C1069 H1049 0.950 . S
C1069 C1065 1.385 . S
C1069 C1068 1.374 . S
C1070 C1067 1.499 . S
C1070 C1071 1.373 . S
C1070 C1072 1.389 . S
C1071 H1050 0.950 . S
C1071 C1070 1.373 . S
C1071 C1087 1.377 . S
C1072 C1070 1.389 . S
C1072 C1073 1.524 . S
C1072 C1086 1.377 . S
C1073 C1072 1.524 . S
C1073 C1074 1.397 . S
C1073 C1078 1.363 . S
C1074 H1051 0.950 . S
C1074 C1073 1.397 . S
C1074 C1075 1.334 . S
C1075 H1052 0.950 . S
C1075 C1074 1.334 . S
C1075 C1076 1.287 . S
C1076 C1075 1.287 . S
C1076 C1077 1.524 . S
C1076 H1095 0.913 . S
C1077 H1053 0.950 . S
C1077 C1076 1.524 . S
C1077 C1078 1.415 . S
C1078 H1054 0.950 . S
C1078 C1073 1.363 . S
C1078 C1077 1.415 . S
C1079 H1055 0.951 . S
C1079 C1080 1.366 . S
C1079 C1081 1.388 . S
C1080 C1079 1.366 . S
C1080 C1084 1.385 . S
C1081 H1056 0.951 . S
C1081 C1079 1.388 . S
C1081 C1082 1.366 . S
C1082 C1081 1.366 . S
C1082 C1083 1.414 . S
C1082 C1085 1.499 . S
C1083 H1057 0.950 . S
C1083 C1082 1.414 . S
C1083 C1084 1.374 . S
C1084 H1058 0.950 . S
C1084 C1080 1.385 . S
C1084 C1083 1.374 . S
C1085 C1082 1.499 . S
C1085 C1086 1.373 . S
C1085 C1087 1.389 . S
C1086 H1059 0.950 . S
C1086 C1072 1.377 . S
C1086 C1085 1.373 . S
C1087 C1071 1.377 . S
C1087 C1085 1.389 . S
C1087 C1088 1.524 . S
C1088 C1087 1.524 . S
C1088 C1089 1.397 . S
C1088 C1093 1.363 . S
C1089 H1060 0.950 . S
C1089 C1088 1.397 . S
C1089 C1090 1.334 . S
C1090 H1061 0.950 . S
C1090 C1089 1.334 . S
C1090 C1091 1.287 . S
C1091 C1090 1.287 . S
C1091 C1092 1.524 . S
C1091 H1094 0.999 1_455 S
C1092 H1062 0.950 . S
C1092 C1091 1.524 . S
C1092 C1093 1.415 . S
C1093 H1063 0.950 . S
C1093 C1088 1.363 . S
C1093 C1092 1.415 . S
H1094 C1091 0.999 1_655 S
H1095 C1076 0.913 . S
H1096 C1114 0.951 . S
H1097 C1116 0.951 . S
H1098 C1118 0.950 . S
H1099 C1119 0.950 . S
H1100 C1121 0.950 . S
H1101 C1124 0.950 . S
H1102 C1125 0.950 . S
H1103 C1127 0.950 . S
H1104 C1128 0.950 . S
H1105 C1129 0.951 . S
H1106 C1131 0.951 . S
H1107 C1133 0.950 . S
H1108 C1134 0.950 . S
H1109 C1136 0.950 . S
H1110 C1139 0.950 . S
H1111 C1140 0.950 . S
H1112 C1142 0.950 1_455 S
H1113 C1143 0.950 . S
C1114 H1096 0.951 . S
C1114 C1115 1.366 . S
C1114 C1116 1.388 . S
C1115 C1114 1.366 . S
C1115 C1119 1.385 . S
C1116 H1097 0.951 . S
C1116 C1114 1.388 . S
C1116 C1117 1.366 . S
C1117 C1116 1.366 . S
C1117 C1118 1.414 . S
C1117 C1120 1.499 . S
C1118 H1098 0.950 . S
C1118 C1117 1.414 . S
C1118 C1119 1.374 . S
C1119 H1099 0.950 . S
C1119 C1115 1.385 . S
C1119 C1118 1.374 . S
C1120 C1117 1.499 . S
C1120 C1121 1.373 . S
C1120 C1122 1.389 . S
C1121 H1100 0.950 . S
C1121 C1120 1.373 . S
C1121 C1137 1.377 . S
C1122 C1120 1.389 . S
C1122 C1123 1.524 . S
C1122 C1136 1.377 . S
C1123 C1122 1.524 . S
C1123 C1124 1.397 . S
C1123 C1128 1.363 . S
C1124 H1101 0.950 . S
C1124 C1123 1.397 . S
C1124 C1125 1.334 . S
C1125 H1102 0.950 . S
C1125 C1124 1.334 . S
C1125 C1126 1.287 . S
C1126 C1125 1.287 . S
C1126 C1127 1.524 . S
C1126 H1145 0.913 . S
C1127 H1103 0.950 . S
C1127 C1126 1.524 . S
C1127 C1128 1.415 . S
C1128 H1104 0.950 . S
C1128 C1123 1.363 . S
C1128 C1127 1.415 . S
C1129 H1105 0.951 . S
C1129 C1130 1.366 . S
C1129 C1131 1.388 . S
C1130 C1129 1.366 . S
C1130 C1134 1.385 . S
C1131 H1106 0.951 . S
C1131 C1129 1.388 . S
C1131 C1132 1.366 . S
C1132 C1131 1.366 . S
C1132 C1133 1.414 . S
C1132 C1135 1.499 . S
C1133 H1107 0.950 . S
C1133 C1132 1.414 . S
C1133 C1134 1.374 . S
C1134 H1108 0.950 . S
C1134 C1130 1.385 . S
C1134 C1133 1.374 . S
C1135 C1132 1.499 . S
C1135 C1136 1.373 . S
C1135 C1137 1.389 . S
C1136 H1109 0.950 . S
C1136 C1122 1.377 . S
C1136 C1135 1.373 . S
C1137 C1121 1.377 . S
C1137 C1135 1.389 . S
C1137 C1138 1.524 . S
C1138 C1137 1.524 . S
C1138 C1139 1.397 . S
C1138 C1143 1.363 . S
C1139 H1110 0.950 . S
C1139 C1138 1.397 . S
C1139 C1140 1.334 . S
C1140 H1111 0.950 . S
C1140 C1139 1.334 . S
C1140 C1141 1.287 . S
C1141 C1140 1.287 . S
C1141 C1142 1.524 . S
C1141 H1144 0.999 . S
C1142 H1112 0.950 1_655 S
C1142 C1141 1.524 . S
C1142 C1143 1.415 . S
C1143 H1113 0.950 . S
C1143 C1138 1.363 . S
C1143 C1142 1.415 . S
H1144 C1141 0.999 . S
H1145 C1126 0.913 . S
H1146 C1164 0.951 . S
H1147 C1166 0.951 . S
H1148 C1168 0.950 . S
H1149 C1169 0.950 . S
H1150 C1171 0.950 . S
H1151 C1174 0.950 . S
H1152 C1175 0.950 . S
H1153 C1177 0.950 1_545 S
H1154 C1178 0.950 . S
H1155 C1179 0.951 . S
H1156 C1181 0.951 . S
H1157 C1183 0.950 . S
H1158 C1184 0.950 . S
H1159 C1186 0.950 . S
H1160 C1189 0.950 . S
H1161 C1190 0.950 . S
H1162 C1192 0.950 . S
H1163 C1193 0.950 . S
C1164 H1146 0.951 . S
C1164 C1165 1.366 . S
C1164 C1166 1.388 . S
C1165 C1164 1.366 . S
C1165 C1169 1.385 . S
C1166 H1147 0.951 . S
C1166 C1164 1.388 . S
C1166 C1167 1.366 . S
C1167 C1166 1.366 . S
C1167 C1168 1.414 . S
C1167 C1170 1.499 . S
C1168 H1148 0.950 . S
C1168 C1167 1.414 . S
C1168 C1169 1.374 . S
C1169 H1149 0.950 . S
C1169 C1165 1.385 . S
C1169 C1168 1.374 . S
C1170 C1167 1.499 . S
C1170 C1171 1.373 . S
C1170 C1172 1.389 . S
C1171 H1150 0.950 . S
C1171 C1170 1.373 . S
C1171 C1187 1.377 . S
C1172 C1170 1.389 . S
C1172 C1173 1.524 . S
C1172 C1186 1.377 . S
C1173 C1172 1.524 . S
C1173 C1174 1.397 . S
C1173 C1178 1.363 . S
C1174 H1151 0.950 . S
C1174 C1173 1.397 . S
C1174 C1175 1.334 . S
C1175 H1152 0.950 . S
C1175 C1174 1.334 . S
C1175 C1176 1.287 . S
C1176 C1175 1.287 . S
C1176 C1177 1.524 . S
C1176 H1195 0.913 1_565 S
C1177 H1153 0.950 1_565 S
C1177 C1176 1.524 . S
C1177 C1178 1.415 . S
C1178 H1154 0.950 . S
C1178 C1173 1.363 . S
C1178 C1177 1.415 . S
C1179 H1155 0.951 . S
C1179 C1180 1.366 . S
C1179 C1181 1.388 . S
C1180 C1179 1.366 . S
C1180 C1184 1.385 . S
C1181 H1156 0.951 . S
C1181 C1179 1.388 . S
C1181 C1182 1.366 . S
C1182 C1181 1.366 . S
C1182 C1183 1.414 . S
C1182 C1185 1.499 . S
C1183 H1157 0.950 . S
C1183 C1182 1.414 . S
C1183 C1184 1.374 . S
C1184 H1158 0.950 . S
C1184 C1180 1.385 . S
C1184 C1183 1.374 . S
C1185 C1182 1.499 . S
C1185 C1186 1.373 . S
C1185 C1187 1.389 . S
C1186 H1159 0.950 . S
C1186 C1172 1.377 . S
C1186 C1185 1.373 . S
C1187 C1171 1.377 . S
C1187 C1185 1.389 . S
C1187 C1188 1.524 . S
C1188 C1187 1.524 . S
C1188 C1189 1.397 . S
C1188 C1193 1.363 . S
C1189 H1160 0.950 . S
C1189 C1188 1.397 . S
C1189 C1190 1.334 . S
C1190 H1161 0.950 . S
C1190 C1189 1.334 . S
C1190 C1191 1.287 . S
C1191 C1190 1.287 . S
C1191 C1192 1.524 . S
C1191 H1194 0.999 . S
C1192 H1162 0.950 . S
C1192 C1191 1.524 . S
C1192 C1193 1.415 . S
C1193 H1163 0.950 . S
C1193 C1188 1.363 . S
C1193 C1192 1.415 . S
H1194 C1191 0.999 . S
H1195 C1176 0.913 1_545 S
H1196 C1214 0.951 . S
H1197 C1216 0.951 . S
H1198 C1218 0.950 . S
H1199 C1219 0.950 . S
H1200 C1221 0.950 . S
H1201 C1224 0.950 . S
H1202 C1225 0.950 . S
H1203 C1227 0.950 . S
H1204 C1228 0.950 . S
H1205 C1229 0.951 . S
H1206 C1231 0.951 . S
H1207 C1233 0.950 . S
H1208 C1234 0.950 . S
H1209 C1236 0.950 . S
H1210 C1239 0.950 . S
H1211 C1240 0.950 . S
H1212 C1242 0.950 . S
H1213 C1243 0.950 . S
C1214 H1196 0.951 . S
C1214 C1215 1.366 . S
C1214 C1216 1.388 . S
C1215 C1214 1.366 . S
C1215 C1219 1.385 . S
C1216 H1197 0.951 . S
C1216 C1214 1.388 . S
C1216 C1217 1.366 . S
C1217 C1216 1.366 . S
C1217 C1218 1.414 . S
C1217 C1220 1.499 . S
C1218 H1198 0.950 . S
C1218 C1217 1.414 . S
C1218 C1219 1.374 . S
C1219 H1199 0.950 . S
C1219 C1215 1.385 . S
C1219 C1218 1.374 . S
C1220 C1217 1.499 . S
C1220 C1221 1.373 . S
C1220 C1222 1.389 . S
C1221 H1200 0.950 . S
C1221 C1220 1.373 . S
C1221 C1237 1.377 . S
C1222 C1220 1.389 . S
C1222 C1223 1.524 . S
C1222 C1236 1.377 . S
C1223 C1222 1.524 . S
C1223 C1224 1.397 . S
C1223 C1228 1.363 . S
C1224 H1201 0.950 . S
C1224 C1223 1.397 . S
C1224 C1225 1.334 . S
C1225 H1202 0.950 . S
C1225 C1224 1.334 . S
C1225 C1226 1.287 . S
C1226 C1225 1.287 . S
C1226 C1227 1.524 . S
C1226 H1245 0.913 . S
C1227 H1203 0.950 . S
C1227 C1226 1.524 . S
C1227 C1228 1.415 . S
C1228 H1204 0.950 . S
C1228 C1223 1.363 . S
C1228 C1227 1.415 . S
C1229 H1205 0.951 . S
C1229 C1230 1.366 . S
C1229 C1231 1.388 . S
C1230 C1229 1.366 . S
C1230 C1234 1.385 . S
C1231 H1206 0.951 . S
C1231 C1229 1.388 . S
C1231 C1232 1.366 . S
C1232 C1231 1.366 . S
C1232 C1233 1.414 . S
C1232 C1235 1.499 . S
C1233 H1207 0.950 . S
C1233 C1232 1.414 . S
C1233 C1234 1.374 . S
C1234 H1208 0.950 . S
C1234 C1230 1.385 . S
C1234 C1233 1.374 . S
C1235 C1232 1.499 . S
C1235 C1236 1.373 . S
C1235 C1237 1.389 . S
C1236 H1209 0.950 . S
C1236 C1222 1.377 . S
C1236 C1235 1.373 . S
C1237 C1221 1.377 . S
C1237 C1235 1.389 . S
C1237 C1238 1.524 . S
C1238 C1237 1.524 . S
C1238 C1239 1.397 . S
C1238 C1243 1.363 . S
C1239 H1210 0.950 . S
C1239 C1238 1.397 . S
C1239 C1240 1.334 . S
C1240 H1211 0.950 . S
C1240 C1239 1.334 . S
C1240 C1241 1.287 . S
C1241 C1240 1.287 . S
C1241 C1242 1.524 . S
C1241 H1244 0.999 . S
C1242 H1212 0.950 . S
C1242 C1241 1.524 . S
C1242 C1243 1.415 . S
C1243 H1213 0.950 . S
C1243 C1238 1.363 . S
C1243 C1242 1.415 . S
H1244 C1241 0.999 . S
H1245 C1226 0.913 . S
H1246 C1264 0.951 . S
H1247 C1266 0.951 . S
H1248 C1268 0.950 . S
H1249 C1269 0.950 . S
H1250 C1271 0.950 . S
H1251 C1274 0.950 . S
H1252 C1275 0.950 . S
H1253 C1277 0.950 1_545 S
H1254 C1278 0.950 . S
H1255 C1279 0.951 . S
H1256 C1281 0.951 . S
H1257 C1283 0.950 . S
H1258 C1284 0.950 . S
H1259 C1286 0.950 . S
H1260 C1289 0.950 . S
H1261 C1290 0.950 . S
H1262 C1292 0.950 . S
H1263 C1293 0.950 . S
C1264 H1246 0.951 . S
C1264 C1265 1.366 . S
C1264 C1266 1.388 . S
C1265 C1264 1.366 . S
C1265 C1269 1.385 . S
C1266 H1247 0.951 . S
C1266 C1264 1.388 . S
C1266 C1267 1.366 . S
C1267 C1266 1.366 . S
C1267 C1268 1.414 . S
C1267 C1270 1.499 . S
C1268 H1248 0.950 . S
C1268 C1267 1.414 . S
C1268 C1269 1.374 . S
C1269 H1249 0.950 . S
C1269 C1265 1.385 . S
C1269 C1268 1.374 . S
C1270 C1267 1.499 . S
C1270 C1271 1.373 . S
C1270 C1272 1.389 . S
C1271 H1250 0.950 . S
C1271 C1270 1.373 . S
C1271 C1287 1.377 . S
C1272 C1270 1.389 . S
C1272 C1273 1.524 . S
C1272 C1286 1.377 . S
C1273 C1272 1.524 . S
C1273 C1274 1.397 . S
C1273 C1278 1.363 . S
C1274 H1251 0.950 . S
C1274 C1273 1.397 . S
C1274 C1275 1.334 . S
C1275 H1252 0.950 . S
C1275 C1274 1.334 . S
C1275 C1276 1.287 . S
C1276 C1275 1.287 . S
C1276 C1277 1.524 . S
C1276 H1295 0.913 . S
C1277 H1253 0.950 1_565 S
C1277 C1276 1.524 . S
C1277 C1278 1.415 . S
C1278 H1254 0.950 . S
C1278 C1273 1.363 . S
C1278 C1277 1.415 . S
C1279 H1255 0.951 . S
C1279 C1280 1.366 . S
C1279 C1281 1.388 . S
C1280 C1279 1.366 . S
C1280 C1284 1.385 . S
C1281 H1256 0.951 . S
C1281 C1279 1.388 . S
C1281 C1282 1.366 . S
C1282 C1281 1.366 . S
C1282 C1283 1.414 . S
C1282 C1285 1.499 . S
C1283 H1257 0.950 . S
C1283 C1282 1.414 . S
C1283 C1284 1.374 . S
C1284 H1258 0.950 . S
C1284 C1280 1.385 . S
C1284 C1283 1.374 . S
C1285 C1282 1.499 . S
C1285 C1286 1.373 . S
C1285 C1287 1.389 . S
C1286 H1259 0.950 . S
C1286 C1272 1.377 . S
C1286 C1285 1.373 . S
C1287 C1271 1.377 . S
C1287 C1285 1.389 . S
C1287 C1288 1.524 . S
C1288 C1287 1.524 . S
C1288 C1289 1.397 . S
C1288 C1293 1.363 . S
C1289 H1260 0.950 . S
C1289 C1288 1.397 . S
C1289 C1290 1.334 . S
C1290 H1261 0.950 . S
C1290 C1289 1.334 . S
C1290 C1291 1.287 . S
C1291 C1290 1.287 . S
C1291 C1292 1.524 . S
C1291 H1294 0.999 . S
C1292 H1262 0.950 . S
C1292 C1291 1.524 . S
C1292 C1293 1.415 . S
C1293 H1263 0.950 . S
C1293 C1288 1.363 . S
C1293 C1292 1.415 . S
H1294 C1291 0.999 . S
H1295 C1276 0.913 . S
H1296 C1314 0.951 . S
H1297 C1316 0.951 . S
H1298 C1318 0.950 . S
H1299 C1319 0.950 . S
H1300 C1321 0.950 . S
H1301 C1324 0.950 . S
H1302 C1325 0.950 . S
H1303 C1327 0.950 . S
H1304 C1328 0.950 . S
H1305 C1329 0.951 . S
H1306 C1331 0.951 . S
H1307 C1333 0.950 . S
H1308 C1334 0.950 . S
H1309 C1336 0.950 . S
H1310 C1339 0.950 . S
H1311 C1340 0.950 . S
H1312 C1342 0.950 . S
H1313 C1343 0.950 . S
C1314 H1296 0.951 . S
C1314 C1315 1.366 . S
C1314 C1316 1.388 . S
C1315 C1314 1.366 . S
C1315 C1319 1.385 . S
C1316 H1297 0.951 . S
C1316 C1314 1.388 . S
C1316 C1317 1.366 . S
C1317 C1316 1.366 . S
C1317 C1318 1.414 . S
C1317 C1320 1.499 . S
C1318 H1298 0.950 . S
C1318 C1317 1.414 . S
C1318 C1319 1.374 . S
C1319 H1299 0.950 . S
C1319 C1315 1.385 . S
C1319 C1318 1.374 . S
C1320 C1317 1.499 . S
C1320 C1321 1.373 . S
C1320 C1322 1.389 . S
C1321 H1300 0.950 . S
C1321 C1320 1.373 . S
C1321 C1337 1.377 . S
C1322 C1320 1.389 . S
C1322 C1323 1.524 . S
C1322 C1336 1.377 . S
C1323 C1322 1.524 . S
C1323 C1324 1.397 . S
C1323 C1328 1.363 . S
C1324 H1301 0.950 . S
C1324 C1323 1.397 . S
C1324 C1325 1.334 . S
C1325 H1302 0.950 . S
C1325 C1324 1.334 . S
C1325 C1326 1.287 . S
C1326 C1325 1.287 . S
C1326 C1327 1.524 . S
C1326 H1345 0.913 . S
C1327 H1303 0.950 . S
C1327 C1326 1.524 . S
C1327 C1328 1.415 . S
C1328 H1304 0.950 . S
C1328 C1323 1.363 . S
C1328 C1327 1.415 . S
C1329 H1305 0.951 . S
C1329 C1330 1.366 . S
C1329 C1331 1.388 . S
C1330 C1329 1.366 . S
C1330 C1334 1.385 . S
C1331 H1306 0.951 . S
C1331 C1329 1.388 . S
C1331 C1332 1.366 . S
C1332 C1331 1.366 . S
C1332 C1333 1.414 . S
C1332 C1335 1.499 . S
C1333 H1307 0.950 . S
C1333 C1332 1.414 . S
C1333 C1334 1.374 . S
C1334 H1308 0.950 . S
C1334 C1330 1.385 . S
C1334 C1333 1.374 . S
C1335 C1332 1.499 . S
C1335 C1336 1.373 . S
C1335 C1337 1.389 . S
C1336 H1309 0.950 . S
C1336 C1322 1.377 . S
C1336 C1335 1.373 . S
C1337 C1321 1.377 . S
C1337 C1335 1.389 . S
C1337 C1338 1.524 . S
C1338 C1337 1.524 . S
C1338 C1339 1.397 . S
C1338 C1343 1.363 . S
C1339 H1310 0.950 . S
C1339 C1338 1.397 . S
C1339 C1340 1.334 . S
C1340 H1311 0.950 . S
C1340 C1339 1.334 . S
C1340 C1341 1.287 . S
C1341 C1340 1.287 . S
C1341 C1342 1.524 . S
C1341 H1344 0.999 . S
C1342 H1312 0.950 . S
C1342 C1341 1.524 . S
C1342 C1343 1.415 . S
C1343 H1313 0.950 . S
C1343 C1338 1.363 . S
C1343 C1342 1.415 . S
H1344 C1341 0.999 . S
H1345 C1326 0.913 . S
H1346 C1364 0.951 . S
H1347 C1366 0.951 . S
H1348 C1368 0.950 1_655 S
H1349 C1369 0.950 . S
H1350 C1371 0.950 . S
H1351 C1374 0.950 . S
H1352 C1375 0.950 . S
H1353 C1377 0.950 . S
H1354 C1378 0.950 . S
H1355 C1379 0.951 . S
H1356 C1381 0.951 . S
H1357 C1383 0.950 1_455 S
H1358 C1384 0.950 . S
H1359 C1386 0.950 . S
H1360 C1389 0.950 . S
H1361 C1390 0.950 . S
H1362 C1392 0.950 . S
H1363 C1393 0.950 . S
C1364 H1346 0.951 . S
C1364 C1365 1.366 . S
C1364 C1366 1.388 . S
C1365 C1364 1.366 . S
C1365 C1369 1.385 . S
C1366 H1347 0.951 . S
C1366 C1364 1.388 . S
C1366 C1367 1.366 . S
C1367 C1366 1.366 . S
C1367 C1368 1.414 . S
C1367 C1370 1.499 . S
C1368 H1348 0.950 1_455 S
C1368 C1367 1.414 . S
C1368 C1369 1.374 . S
C1369 H1349 0.950 . S
C1369 C1365 1.385 . S
C1369 C1368 1.374 . S
C1370 C1367 1.499 . S
C1370 C1371 1.373 1_455 S
C1370 C1372 1.389 . S
C1371 H1350 0.950 . S
C1371 C1370 1.373 1_655 S
C1371 C1387 1.377 . S
C1372 C1370 1.389 . S
C1372 C1373 1.524 . S
C1372 C1386 1.377 . S
C1373 C1372 1.524 . S
C1373 C1374 1.397 . S
C1373 C1378 1.363 . S
C1374 H1351 0.950 . S
C1374 C1373 1.397 . S
C1374 C1375 1.334 . S
C1375 H1352 0.950 . S
C1375 C1374 1.334 . S
C1375 C1376 1.287 . S
C1376 C1375 1.287 . S
C1376 C1377 1.524 . S
C1376 H1395 0.913 . S
C1377 H1353 0.950 . S
C1377 C1376 1.524 . S
C1377 C1378 1.415 . S
C1378 H1354 0.950 . S
C1378 C1373 1.363 . S
C1378 C1377 1.415 . S
C1379 H1355 0.951 . S
C1379 C1380 1.366 . S
C1379 C1381 1.388 . S
C1380 C1379 1.366 . S
C1380 C1384 1.385 . S
C1381 H1356 0.951 . S
C1381 C1379 1.388 . S
C1381 C1382 1.366 . S
C1382 C1381 1.366 . S
C1382 C1383 1.414 . S
C1382 C1385 1.499 . S
C1383 H1357 0.950 1_655 S
C1383 C1382 1.414 . S
C1383 C1384 1.374 . S
C1384 H1358 0.950 . S
C1384 C1380 1.385 . S
C1384 C1383 1.374 . S
C1385 C1382 1.499 . S
C1385 C1386 1.373 1_655 S
C1385 C1387 1.389 . S
C1386 H1359 0.950 . S
C1386 C1372 1.377 . S
C1386 C1385 1.373 1_455 S
C1387 C1371 1.377 . S
C1387 C1385 1.389 . S
C1387 C1388 1.524 . S
C1388 C1387 1.524 . S
C1388 C1389 1.397 . S
C1388 C1393 1.363 . S
C1389 H1360 0.950 . S
C1389 C1388 1.397 . S
C1389 C1390 1.334 . S
C1390 H1361 0.950 . S
C1390 C1389 1.334 . S
C1390 C1391 1.287 . S
C1391 C1390 1.287 . S
C1391 C1392 1.524 . S
C1391 H1394 0.999 . S
C1392 H1362 0.950 . S
C1392 C1391 1.524 . S
C1392 C1393 1.415 . S
C1393 H1363 0.950 . S
C1393 C1388 1.363 . S
C1393 C1392 1.415 . S
H1394 C1391 0.999 . S
H1395 C1376 0.913 . S
H1396 C1414 0.951 . S
H1397 C1416 0.951 1_545 S
H1398 C1418 0.950 . S
H1399 C1419 0.950 . S
H1400 C1421 0.950 . S
H1401 C1424 0.950 . S
H1402 C1425 0.950 . S
H1403 C1427 0.950 . S
H1404 C1428 0.950 . S
H1405 C1429 0.951 . S
H1406 C1431 0.951 1_565 S
H1407 C1433 0.950 . S
H1408 C1434 0.950 . S
H1409 C1436 0.950 . S
H1410 C1439 0.950 . S
H1411 C1440 0.950 . S
H1412 C1442 0.950 . S
H1413 C1443 0.950 . S
C1414 H1396 0.951 . S
C1414 C1415 1.366 . S
C1414 C1416 1.388 . S
C1415 C1414 1.366 . S
C1415 C1419 1.385 . S
C1416 H1397 0.951 1_565 S
C1416 C1414 1.388 . S
C1416 C1417 1.366 . S
C1417 C1416 1.366 . S
C1417 C1418 1.414 . S
C1417 C1420 1.499 . S
C1418 H1398 0.950 . S
C1418 C1417 1.414 . S
C1418 C1419 1.374 . S
C1419 H1399 0.950 . S
C1419 C1415 1.385 . S
C1419 C1418 1.374 . S
C1420 C1417 1.499 . S
C1420 C1421 1.373 . S
C1420 C1422 1.389 1_565 S
C1421 H1400 0.950 . S
C1421 C1420 1.373 . S
C1421 C1437 1.377 . S
C1422 C1420 1.389 1_545 S
C1422 C1423 1.524 . S
C1422 C1436 1.377 . S
C1423 C1422 1.524 . S
C1423 C1424 1.397 1_545 S
C1423 C1428 1.363 . S
C1424 H1401 0.950 . S
C1424 C1423 1.397 1_565 S
C1424 C1425 1.334 . S
C1425 H1402 0.950 . S
C1425 C1424 1.334 . S
C1425 C1426 1.287 1_565 S
C1426 C1425 1.287 1_545 S
C1426 C1427 1.524 . S
C1426 H1445 0.913 . S
C1427 H1403 0.950 . S
C1427 C1426 1.524 . S
C1427 C1428 1.415 . S
C1428 H1404 0.950 . S
C1428 C1423 1.363 . S
C1428 C1427 1.415 . S
C1429 H1405 0.951 . S
C1429 C1430 1.366 . S
C1429 C1431 1.388 . S
C1430 C1429 1.366 . S
C1430 C1434 1.385 . S
C1431 H1406 0.951 1_545 S
C1431 C1429 1.388 . S
C1431 C1432 1.366 . S
C1432 C1431 1.366 . S
C1432 C1433 1.414 . S
C1432 C1435 1.499 . S
C1433 H1407 0.950 . S
C1433 C1432 1.414 . S
C1433 C1434 1.374 . S
C1434 H1408 0.950 . S
C1434 C1430 1.385 . S
C1434 C1433 1.374 . S
C1435 C1432 1.499 . S
C1435 C1436 1.373 . S
C1435 C1437 1.389 1_545 S
C1436 H1409 0.950 . S
C1436 C1422 1.377 . S
C1436 C1435 1.373 . S
C1437 C1421 1.377 . S
C1437 C1435 1.389 1_565 S
C1437 C1438 1.524 . S
C1438 C1437 1.524 . S
C1438 C1439 1.397 1_565 S
C1438 C1443 1.363 . S
C1439 H1410 0.950 . S
C1439 C1438 1.397 1_545 S
C1439 C1440 1.334 . S
C1440 H1411 0.950 . S
C1440 C1439 1.334 . S
C1440 C1441 1.287 1_545 S
C1441 C1440 1.287 1_565 S
C1441 C1442 1.524 . S
C1441 H1444 0.999 . S
C1442 H1412 0.950 . S
C1442 C1441 1.524 . S
C1442 C1443 1.415 . S
C1443 H1413 0.950 . S
C1443 C1438 1.363 . S
C1443 C1442 1.415 . S
H1444 C1441 0.999 . S
H1445 C1426 0.913 . S
H1446 C1464 0.951 . S
H1447 C1466 0.951 . S
H1448 C1468 0.950 . S
H1449 C1469 0.950 . S
H1450 C1471 0.950 . S
H1451 C1474 0.950 . S
H1452 C1475 0.950 . S
H1453 C1477 0.950 . S
H1454 C1478 0.950 . S
H1455 C1479 0.951 . S
H1456 C1481 0.951 . S
H1457 C1483 0.950 . S
H1458 C1484 0.950 . S
H1459 C1486 0.950 . S
H1460 C1489 0.950 . S
H1461 C1490 0.950 . S
H1462 C1492 0.950 . S
H1463 C1493 0.950 . S
C1464 H1446 0.951 . S
C1464 C1465 1.366 . S
C1464 C1466 1.388 . S
C1465 C1464 1.366 . S
C1465 C1469 1.385 . S
C1466 H1447 0.951 . S
C1466 C1464 1.388 . S
C1466 C1467 1.366 . S
C1467 C1466 1.366 . S
C1467 C1468 1.414 . S
C1467 C1470 1.499 . S
C1468 H1448 0.950 . S
C1468 C1467 1.414 . S
C1468 C1469 1.374 . S
C1469 H1449 0.950 . S
C1469 C1465 1.385 . S
C1469 C1468 1.374 . S
C1470 C1467 1.499 . S
C1470 C1471 1.373 . S
C1470 C1472 1.389 . S
C1471 H1450 0.950 . S
C1471 C1470 1.373 . S
C1471 C1487 1.377 . S
C1472 C1470 1.389 . S
C1472 C1473 1.524 . S
C1472 C1486 1.377 . S
C1473 C1472 1.524 . S
C1473 C1474 1.397 . S
C1473 C1478 1.363 . S
C1474 H1451 0.950 . S
C1474 C1473 1.397 . S
C1474 C1475 1.334 . S
C1475 H1452 0.950 . S
C1475 C1474 1.334 . S
C1475 C1476 1.287 . S
C1476 C1475 1.287 . S
C1476 C1477 1.524 . S
C1476 H1495 0.913 . S
C1477 H1453 0.950 . S
C1477 C1476 1.524 . S
C1477 C1478 1.415 . S
C1478 H1454 0.950 . S
C1478 C1473 1.363 . S
C1478 C1477 1.415 . S
C1479 H1455 0.951 . S
C1479 C1480 1.366 . S
C1479 C1481 1.388 . S
C1480 C1479 1.366 . S
C1480 C1484 1.385 . S
C1481 H1456 0.951 . S
C1481 C1479 1.388 . S
C1481 C1482 1.366 . S
C1482 C1481 1.366 . S
C1482 C1483 1.414 . S
C1482 C1485 1.499 . S
C1483 H1457 0.950 . S
C1483 C1482 1.414 . S
C1483 C1484 1.374 . S
C1484 H1458 0.950 . S
C1484 C1480 1.385 . S
C1484 C1483 1.374 . S
C1485 C1482 1.499 . S
C1485 C1486 1.373 . S
C1485 C1487 1.389 . S
C1486 H1459 0.950 . S
C1486 C1472 1.377 . S
C1486 C1485 1.373 . S
C1487 C1471 1.377 . S
C1487 C1485 1.389 . S
C1487 C1488 1.524 . S
C1488 C1487 1.524 . S
C1488 C1489 1.397 . S
C1488 C1493 1.363 . S
C1489 H1460 0.950 . S
C1489 C1488 1.397 . S
C1489 C1490 1.334 . S
C1490 H1461 0.950 . S
C1490 C1489 1.334 . S
C1490 C1491 1.287 . S
C1491 C1490 1.287 . S
C1491 C1492 1.524 . S
C1491 H1494 0.999 . S
C1492 H1462 0.950 . S
C1492 C1491 1.524 . S
C1492 C1493 1.415 . S
C1493 H1463 0.950 . S
C1493 C1488 1.363 . S
C1493 C1492 1.415 . S
H1494 C1491 0.999 . S
H1495 C1476 0.913 . S
H1496 C1514 0.951 . S
H1497 C1516 0.951 1_655 S
H1498 C1518 0.950 . S
H1499 C1519 0.950 . S
H1500 C1521 0.950 . S
H1501 C1524 0.950 . S
H1502 C1525 0.950 . S
H1503 C1527 0.950 . S
H1504 C1528 0.950 . S
H1505 C1529 0.951 . S
H1506 C1531 0.951 1_455 S
H1507 C1533 0.950 . S
H1508 C1534 0.950 . S
H1509 C1536 0.950 . S
H1510 C1539 0.950 . S
H1511 C1540 0.950 . S
H1512 C1542 0.950 . S
H1513 C1543 0.950 . S
C1514 H1496 0.951 . S
C1514 C1515 1.366 . S
C1514 C1516 1.388 . S
C1515 C1514 1.366 . S
C1515 C1519 1.385 . S
C1516 H1497 0.951 1_455 S
C1516 C1514 1.388 . S
C1516 C1517 1.366 . S
C1517 C1516 1.366 . S
C1517 C1518 1.414 . S
C1517 C1520 1.499 . S
C1518 H1498 0.950 . S
C1518 C1517 1.414 . S
C1518 C1519 1.374 . S
C1519 H1499 0.950 . S
C1519 C1515 1.385 . S
C1519 C1518 1.374 . S
C1520 C1517 1.499 . S
C1520 C1521 1.373 . S
C1520 C1522 1.390 . S
C1521 H1500 0.950 . S
C1521 C1520 1.373 . S
C1521 C1537 1.377 1_455 S
C1522 C1520 1.390 . S
C1522 C1523 1.524 . S
C1522 C1536 1.377 1_455 S
C1523 C1522 1.524 . S
C1523 C1524 1.397 . S
C1523 C1528 1.363 1_455 S
C1524 H1501 0.950 . S
C1524 C1523 1.397 . S
C1524 C1525 1.334 . S
C1525 H1502 0.950 . S
C1525 C1524 1.334 . S
C1525 C1526 1.287 . S
C1526 C1525 1.287 . S
C1526 C1527 1.524 1_455 S
C1526 H1545 0.913 . S
C1527 H1503 0.950 . S
C1527 C1526 1.524 1_655 S
C1527 C1528 1.415 . S
C1528 H1504 0.950 . S
C1528 C1523 1.363 1_655 S
C1528 C1527 1.415 . S
C1529 H1505 0.951 . S
C1529 C1530 1.366 . S
C1529 C1531 1.388 . S
C1530 C1529 1.366 . S
C1530 C1534 1.385 . S
C1531 H1506 0.951 1_655 S
C1531 C1529 1.388 . S
C1531 C1532 1.366 . S
C1532 C1531 1.366 . S
C1532 C1533 1.414 . S
C1532 C1535 1.499 . S
C1533 H1507 0.950 . S
C1533 C1532 1.414 . S
C1533 C1534 1.374 . S
C1534 H1508 0.950 . S
C1534 C1530 1.385 . S
C1534 C1533 1.374 . S
C1535 C1532 1.499 . S
C1535 C1536 1.373 . S
C1535 C1537 1.389 . S
C1536 H1509 0.950 . S
C1536 C1522 1.377 1_655 S
C1536 C1535 1.373 . S
C1537 C1521 1.377 1_655 S
C1537 C1535 1.389 . S
C1537 C1538 1.524 . S
C1538 C1537 1.524 . S
C1538 C1539 1.397 . S
C1538 C1543 1.363 1_655 S
C1539 H1510 0.950 . S
C1539 C1538 1.397 . S
C1539 C1540 1.334 . S
C1540 H1511 0.950 . S
C1540 C1539 1.334 . S
C1540 C1541 1.287 . S
C1541 C1540 1.287 . S
C1541 C1542 1.524 1_655 S
C1541 H1544 0.999 . S
C1542 H1512 0.950 . S
C1542 C1541 1.524 1_455 S
C1542 C1543 1.415 . S
C1543 H1513 0.950 . S
C1543 C1538 1.363 1_455 S
C1543 C1542 1.415 . S
H1544 C1541 0.999 . S
H1545 C1526 0.913 . S
H1546 C1564 0.951 . S
H1547 C1566 0.951 . S
H1548 C1568 0.950 1_545 S
H1549 C1569 0.950 . S
H1550 C1571 0.950 . S
H1551 C1574 0.950 . S
H1552 C1575 0.950 . S
H1553 C1577 0.950 . S
H1554 C1578 0.950 . S
H1555 C1579 0.951 . S
H1556 C1581 0.951 . S
H1557 C1583 0.950 1_565 S
H1558 C1584 0.950 . S
H1559 C1586 0.950 . S
H1560 C1589 0.950 . S
H1561 C1590 0.950 . S
H1562 C1592 0.950 . S
H1563 C1593 0.950 . S
C1564 H1546 0.951 . S
C1564 C1565 1.366 . S
C1564 C1566 1.388 . S
C1565 C1564 1.366 . S
C1565 C1569 1.385 . S
C1566 H1547 0.951 . S
C1566 C1564 1.388 . S
C1566 C1567 1.366 . S
C1567 C1566 1.366 . S
C1567 C1568 1.414 . S
C1567 C1570 1.499 . S
C1568 H1548 0.950 1_565 S
C1568 C1567 1.414 . S
C1568 C1569 1.374 . S
C1569 H1549 0.950 . S
C1569 C1565 1.385 . S
C1569 C1568 1.374 . S
C1570 C1567 1.499 . S
C1570 C1571 1.373 1_565 S
C1570 C1572 1.389 . S
C1571 H1550 0.950 . S
C1571 C1570 1.373 1_545 S
C1571 C1587 1.377 . S
C1572 C1570 1.389 . S
C1572 C1573 1.524 . S
C1572 C1586 1.377 . S
C1573 C1572 1.524 . S
C1573 C1574 1.397 . S
C1573 C1578 1.363 . S
C1574 H1551 0.950 . S
C1574 C1573 1.397 . S
C1574 C1575 1.334 . S
C1575 H1552 0.950 . S
C1575 C1574 1.334 . S
C1575 C1576 1.287 . S
C1576 C1575 1.287 . S
C1576 C1577 1.524 . S
C1576 H1595 0.913 . S
C1577 H1553 0.950 . S
C1577 C1576 1.524 . S
C1577 C1578 1.415 . S
C1578 H1554 0.950 . S
C1578 C1573 1.363 . S
C1578 C1577 1.415 . S
C1579 H1555 0.951 . S
C1579 C1580 1.366 . S
C1579 C1581 1.388 . S
C1580 C1579 1.366 . S
C1580 C1584 1.385 . S
C1581 H1556 0.951 . S
C1581 C1579 1.388 . S
C1581 C1582 1.366 . S
C1582 C1581 1.366 . S
C1582 C1583 1.414 . S
C1582 C1585 1.499 . S
C1583 H1557 0.950 1_545 S
C1583 C1582 1.414 . S
C1583 C1584 1.374 . S
C1584 H1558 0.950 . S
C1584 C1580 1.385 . S
C1584 C1583 1.374 . S
C1585 C1582 1.499 . S
C1585 C1586 1.373 1_545 S
C1585 C1587 1.389 . S
C1586 H1559 0.950 . S
C1586 C1572 1.377 . S
C1586 C1585 1.373 1_565 S
C1587 C1571 1.377 . S
C1587 C1585 1.389 . S
C1587 C1588 1.524 . S
C1588 C1587 1.524 . S
C1588 C1589 1.397 . S
C1588 C1593 1.363 . S
C1589 H1560 0.950 . S
C1589 C1588 1.397 . S
C1589 C1590 1.334 . S
C1590 H1561 0.950 . S
C1590 C1589 1.334 . S
C1590 C1591 1.287 . S
C1591 C1590 1.287 . S
C1591 C1592 1.524 . S
C1591 H1594 0.999 . S
C1592 H1562 0.950 . S
C1592 C1591 1.524 . S
C1592 C1593 1.415 . S
C1593 H1563 0.950 . S
C1593 C1588 1.363 . S
C1593 C1592 1.415 . S
H1594 C1591 0.999 . S
H1595 C1576 0.913 . S
H1596 C1614 0.951 . S
H1597 C1616 0.951 . S
H1598 C1618 0.950 . S
H1599 C1619 0.950 . S
H1600 C1621 0.950 . S
H1601 C1624 0.950 . S
H1602 C1625 0.950 . S
H1603 C1627 0.960 . S
H1604 C1628 0.950 . S
H1605 C1629 0.951 . S
H1606 C1631 0.951 . S
H1607 C1633 0.950 . S
H1608 C1634 0.950 . S
H1609 C1636 0.950 . S
H1610 C1639 0.950 . S
H1611 C1640 0.950 . S
H1612 C1642 0.958 . S
H1613 C1643 0.950 . S
C1614 H1596 0.951 . S
C1614 C1615 1.366 . S
C1614 C1616 1.388 . S
C1615 C1614 1.366 . S
C1615 C1619 1.385 . S
C1616 H1597 0.951 . S
C1616 C1614 1.388 . S
C1616 C1617 1.366 . S
C1617 C1616 1.366 . S
C1617 C1618 1.414 . S
C1617 C1620 1.499 . S
C1618 H1598 0.950 . S
C1618 C1617 1.414 . S
C1618 C1619 1.374 . S
C1619 H1599 0.950 . S
C1619 C1615 1.385 . S
C1619 C1618 1.374 . S
C1620 C1617 1.499 . S
C1620 C1621 1.373 . S
C1620 C1622 1.387 1_545 S
C1621 H1600 0.950 . S
C1621 C1620 1.373 . S
C1621 C1637 1.373 1_455 S
C1622 C1620 1.387 1_565 S
C1622 C1623 1.531 . S
C1622 C1636 1.373 1_455 S
C1623 C1622 1.531 . S
C1623 C1624 1.397 . S
C1623 C1628 1.363 1_565 S
C1624 H1601 0.950 . S
C1624 C1623 1.397 . S
C1624 C1625 1.334 . S
C1625 H1602 0.950 . S
C1625 C1624 1.334 . S
C1625 C1626 1.287 . S
C1626 C1625 1.287 . S
C1626 C1627 1.505 1_565 S
C1626 H1645 0.913 . S
C1627 H1603 0.960 . S
C1627 C1626 1.505 1_545 S
C1627 C1628 1.423 . S
C1628 H1604 0.950 . S
C1628 C1623 1.363 1_545 S
C1628 C1627 1.423 . S
C1629 H1605 0.951 . S
C1629 C1630 1.366 . S
C1629 C1631 1.388 . S
C1630 C1629 1.366 . S
C1630 C1634 1.385 . S
C1631 H1606 0.951 . S
C1631 C1629 1.388 . S
C1631 C1632 1.366 . S
C1632 C1631 1.366 . S
C1632 C1633 1.414 . S
C1632 C1635 1.499 . S
C1633 H1607 0.950 . S
C1633 C1632 1.414 . S
C1633 C1634 1.374 . S
C1634 H1608 0.950 . S
C1634 C1630 1.385 . S
C1634 C1633 1.374 . S
C1635 C1632 1.499 . S
C1635 C1636 1.373 . S
C1635 C1637 1.387 1_565 S
C1636 H1609 0.950 . S
C1636 C1622 1.373 1_655 S
C1636 C1635 1.373 . S
C1637 C1621 1.373 1_655 S
C1637 C1635 1.387 1_545 S
C1637 C1638 1.533 . S
C1638 C1637 1.533 . S
C1638 C1639 1.397 . S
C1638 C1643 1.363 1_545 S
C1639 H1610 0.950 . S
C1639 C1638 1.397 . S
C1639 C1640 1.334 . S
C1640 H1611 0.950 . S
C1640 C1639 1.334 . S
C1640 C1641 1.287 . S
C1641 C1640 1.287 . S
C1641 C1642 1.508 1_545 S
C1641 H1644 0.999 . S
C1642 H1612 0.958 . S
C1642 C1641 1.508 1_565 S
C1642 C1643 1.422 . S
C1643 H1613 0.950 . S
C1643 C1638 1.363 1_565 S
C1643 C1642 1.422 . S
H1644 C1641 0.999 . S
H1645 C1626 0.913 . S
H1646 C1664 0.951 . S
H1647 C1666 0.951 . S
H1648 C1668 0.950 . S
H1649 C1669 0.950 . S
H1650 C1671 0.950 . S
H1651 C1674 0.950 . S
H1652 C1675 0.950 . S
H1653 C1677 0.950 . S
H1654 C1678 0.950 . S
H1655 C1679 0.951 . S
H1656 C1681 0.951 . S
H1657 C1683 0.950 . S
H1658 C1684 0.950 . S
H1659 C1686 0.950 . S
H1660 C1689 0.950 . S
H1661 C1690 0.950 . S
H1662 C1692 0.950 . S
H1663 C1693 0.950 . S
C1664 H1646 0.951 . S
C1664 C1665 1.366 . S
C1664 C1666 1.388 . S
C1665 C1664 1.366 . S
C1665 C1669 1.385 . S
C1666 H1647 0.951 . S
C1666 C1664 1.388 . S
C1666 C1667 1.366 . S
C1667 C1666 1.366 . S
C1667 C1668 1.414 . S
C1667 C1670 1.499 . S
C1668 H1648 0.950 . S
C1668 C1667 1.414 . S
C1668 C1669 1.374 . S
C1669 H1649 0.950 . S
C1669 C1665 1.385 . S
C1669 C1668 1.374 . S
C1670 C1667 1.499 . S
C1670 C1671 1.373 . S
C1670 C1672 1.389 1_455 S
C1671 H1650 0.950 . S
C1671 C1670 1.373 . S
C1671 C1687 1.377 1_545 S
C1672 C1670 1.389 1_655 S
C1672 C1673 1.524 . S
C1672 C1686 1.377 1_545 S
C1673 C1672 1.524 . S
C1673 C1674 1.397 . S
C1673 C1678 1.363 . S
C1674 H1651 0.950 . S
C1674 C1673 1.397 . S
C1674 C1675 1.334 . S
C1675 H1652 0.950 . S
C1675 C1674 1.334 . S
C1675 C1676 1.287 . S
C1676 C1675 1.287 . S
C1676 C1677 1.524 . S
C1676 H1695 0.913 . S
C1677 H1653 0.950 . S
C1677 C1676 1.524 . S
C1677 C1678 1.415 . S
C1678 H1654 0.950 . S
C1678 C1673 1.363 . S
C1678 C1677 1.415 . S
C1679 H1655 0.951 . S
C1679 C1680 1.366 . S
C1679 C1681 1.388 . S
C1680 C1679 1.366 . S
C1680 C1684 1.385 . S
C1681 H1656 0.951 . S
C1681 C1679 1.388 . S
C1681 C1682 1.366 . S
C1682 C1681 1.366 . S
C1682 C1683 1.414 . S
C1682 C1685 1.499 . S
C1683 H1657 0.950 . S
C1683 C1682 1.414 . S
C1683 C1684 1.374 . S
C1684 H1658 0.950 . S
C1684 C1680 1.385 . S
C1684 C1683 1.374 . S
C1685 C1682 1.499 . S
C1685 C1686 1.373 . S
C1685 C1687 1.389 1_655 S
C1686 H1659 0.950 . S
C1686 C1672 1.377 1_565 S
C1686 C1685 1.373 . S
C1687 C1671 1.377 1_565 S
C1687 C1685 1.389 1_455 S
C1687 C1688 1.524 . S
C1688 C1687 1.524 . S
C1688 C1689 1.397 . S
C1688 C1693 1.363 . S
C1689 H1660 0.950 . S
C1689 C1688 1.397 . S
C1689 C1690 1.334 . S
C1690 H1661 0.950 . S
C1690 C1689 1.334 . S
C1690 C1691 1.287 . S
C1691 C1690 1.287 . S
C1691 C1692 1.524 . S
C1691 H1694 0.999 . S
C1692 H1662 0.950 . S
C1692 C1691 1.524 . S
C1692 C1693 1.415 . S
C1693 H1663 0.950 . S
C1693 C1688 1.363 . S
C1693 C1692 1.415 . S
H1694 C1691 0.999 . S
H1695 C1676 0.913 . S
H1696 C1714 0.951 . S
H1697 C1716 0.942 1_455 S
H1698 C1718 0.950 . S
H1699 C1719 0.950 . S
H1700 C1721 0.950 . S
H1701 C1724 0.950 . S
H1702 C1725 0.950 . S
H1703 C1727 0.950 . S
H1704 C1728 0.950 . S
H1705 C1729 0.951 . S
H1706 C1731 0.940 1_655 S
H1707 C1733 0.950 . S
H1708 C1734 0.950 . S
H1709 C1736 0.950 . S
H1710 C1739 0.950 . S
H1711 C1740 0.950 . S
H1712 C1742 0.950 . S
H1713 C1743 0.950 . S
C1714 H1696 0.951 . S
C1714 C1715 1.366 . S
C1714 C1716 1.388 . S
C1715 C1714 1.366 . S
C1715 C1719 1.385 . S
C1716 H1697 0.942 1_655 S
C1716 C1714 1.388 . S
C1716 C1717 1.366 . S
C1717 C1716 1.366 . S
C1717 C1718 1.414 . S
C1717 C1720 1.499 . S
C1718 H1698 0.950 . S
C1718 C1717 1.414 . S
C1718 C1719 1.374 . S
C1719 H1699 0.950 . S
C1719 C1715 1.385 . S
C1719 C1718 1.374 . S
C1720 C1717 1.499 . S
C1720 C1721 1.373 1_545 S
C1720 C1722 1.389 1_655 S
C1721 H1700 0.950 . S
C1721 C1720 1.373 1_565 S
C1721 C1737 1.377 . S
C1722 C1720 1.389 1_455 S
C1722 C1723 1.524 . S
C1722 C1736 1.377 . S
C1723 C1722 1.524 . S
C1723 C1724 1.397 . S
C1723 C1728 1.363 . S
C1724 H1701 0.950 . S
C1724 C1723 1.397 . S
C1724 C1725 1.334 . S
C1725 H1702 0.950 . S
C1725 C1724 1.334 . S
C1725 C1726 1.287 . S
C1726 C1725 1.287 . S
C1726 C1727 1.524 . S
C1726 H1745 0.913 . S
C1727 H1703 0.950 . S
C1727 C1726 1.524 . S
C1727 C1728 1.415 . S
C1728 H1704 0.950 . S
C1728 C1723 1.363 . S
C1728 C1727 1.415 . S
C1729 H1705 0.951 . S
C1729 C1730 1.366 . S
C1729 C1731 1.388 . S
C1730 C1729 1.366 . S
C1730 C1734 1.385 . S
C1731 H1706 0.940 1_455 S
C1731 C1729 1.388 . S
C1731 C1732 1.366 . S
C1732 C1731 1.366 . S
C1732 C1733 1.414 . S
C1732 C1735 1.499 . S
C1733 H1707 0.950 . S
C1733 C1732 1.414 . S
C1733 C1734 1.374 . S
C1734 H1708 0.950 . S
C1734 C1730 1.385 . S
C1734 C1733 1.374 . S
C1735 C1732 1.499 . S
C1735 C1736 1.373 1_565 S
C1735 C1737 1.389 1_455 S
C1736 H1709 0.950 . S
C1736 C1722 1.377 . S
C1736 C1735 1.373 1_545 S
C1737 C1721 1.377 . S
C1737 C1735 1.389 1_655 S
C1737 C1738 1.524 . S
C1738 C1737 1.524 . S
C1738 C1739 1.397 . S
C1738 C1743 1.363 . S
C1739 H1710 0.950 . S
C1739 C1738 1.397 . S
C1739 C1740 1.334 . S
C1740 H1711 0.950 . S
C1740 C1739 1.334 . S
C1740 C1741 1.287 . S
C1741 C1740 1.287 . S
C1741 C1742 1.524 . S
C1741 H1744 0.999 . S
C1742 H1712 0.950 . S
C1742 C1741 1.524 . S
C1742 C1743 1.415 . S
C1743 H1713 0.950 . S
C1743 C1738 1.363 . S
C1743 C1742 1.415 . S
H1744 C1741 0.999 . S
H1745 C1726 0.913 . S
H1746 C1764 0.951 . S
H1747 C1766 0.951 . S
H1748 C1768 0.950 1_455 S
H1749 C1769 0.950 . S
H1750 C1771 0.950 . S
H1751 C1774 0.950 . S
H1752 C1775 0.950 . S
H1753 C1777 0.950 . S
H1754 C1778 0.950 . S
H1755 C1779 0.951 . S
H1756 C1781 0.951 . S
H1757 C1783 0.950 1_655 S
H1758 C1784 0.950 . S
H1759 C1786 0.950 . S
H1760 C1789 0.950 . S
H1761 C1790 0.950 . S
H1762 C1792 0.950 . S
H1763 C1793 0.950 . S
C1764 H1746 0.951 . S
C1764 C1765 1.366 . S
C1764 C1766 1.388 . S
C1765 C1764 1.366 . S
C1765 C1769 1.385 . S
C1766 H1747 0.951 . S
C1766 C1764 1.388 . S
C1766 C1767 1.366 . S
C1767 C1766 1.366 . S
C1767 C1768 1.414 . S
C1767 C1770 1.499 . S
C1768 H1748 0.950 1_655 S
C1768 C1767 1.414 . S
C1768 C1769 1.374 . S
C1769 H1749 0.950 . S
C1769 C1765 1.385 . S
C1769 C1768 1.374 . S
C1770 C1767 1.499 . S
C1770 C1771 1.373 1_655 S
C1770 C1772 1.389 . S
C1771 H1750 0.950 . S
C1771 C1770 1.373 1_455 S
C1771 C1787 1.377 1_565 S
C1772 C1770 1.389 . S
C1772 C1773 1.524 . S
C1772 C1786 1.377 1_565 S
C1773 C1772 1.524 . S
C1773 C1774 1.397 . S
C1773 C1778 1.363 . S
C1774 H1751 0.950 . S
C1774 C1773 1.397 . S
C1774 C1775 1.334 . S
C1775 H1752 0.950 . S
C1775 C1774 1.334 . S
C1775 C1776 1.287 . S
C1776 C1775 1.287 . S
C1776 C1777 1.524 . S
C1776 H1795 0.913 . S
C1777 H1753 0.950 . S
C1777 C1776 1.524 . S
C1777 C1778 1.415 . S
C1778 H1754 0.950 . S
C1778 C1773 1.363 . S
C1778 C1777 1.415 . S
C1779 H1755 0.951 . S
C1779 C1780 1.366 . S
C1779 C1781 1.388 . S
C1780 C1779 1.366 . S
C1780 C1784 1.385 . S
C1781 H1756 0.951 . S
C1781 C1779 1.388 . S
C1781 C1782 1.366 . S
C1782 C1781 1.366 . S
C1782 C1783 1.414 . S
C1782 C1785 1.499 . S
C1783 H1757 0.950 1_455 S
C1783 C1782 1.414 . S
C1783 C1784 1.374 . S
C1784 H1758 0.950 . S
C1784 C1780 1.385 . S
C1784 C1783 1.374 . S
C1785 C1782 1.499 . S
C1785 C1786 1.373 1_455 S
C1785 C1787 1.389 . S
C1786 H1759 0.950 . S
C1786 C1772 1.377 1_545 S
C1786 C1785 1.373 1_655 S
C1787 C1771 1.377 1_545 S
C1787 C1785 1.389 . S
C1787 C1788 1.524 . S
C1788 C1787 1.524 . S
C1788 C1789 1.397 . S
C1788 C1793 1.363 . S
C1789 H1760 0.950 . S
C1789 C1788 1.397 . S
C1789 C1790 1.334 . S
C1790 H1761 0.950 . S
C1790 C1789 1.334 . S
C1790 C1791 1.287 . S
C1791 C1790 1.287 . S
C1791 C1792 1.524 . S
C1791 H1794 0.999 . S
C1792 H1762 0.950 . S
C1792 C1791 1.524 . S
C1792 C1793 1.415 . S
C1793 H1763 0.950 . S
C1793 C1788 1.363 . S
C1793 C1792 1.415 . S
H1794 C1791 0.999 . S
H1795 C1776 0.913 . S
H1796 C1814 0.951 . S
H1797 C1816 0.951 . S
H1798 C1818 0.950 1_565 S
H1799 C1819 0.950 . S
H1800 C1821 0.950 . S
H1801 C1824 0.950 1_655 S
H1802 C1825 0.950 . S
H1803 C1827 0.950 . S
H1804 C1828 0.950 . S
H1805 C1829 0.951 . S
H1806 C1831 0.951 . S
H1807 C1833 0.950 1_545 S
H1808 C1834 0.950 . S
H1809 C1836 0.950 . S
H1810 C1839 0.950 1_455 S
H1811 C1840 0.950 . S
H1812 C1842 0.950 . S
H1813 C1843 0.950 . S
C1814 H1796 0.951 . S
C1814 C1815 1.366 . S
C1814 C1816 1.388 . S
C1815 C1814 1.366 . S
C1815 C1819 1.385 . S
C1816 H1797 0.951 . S
C1816 C1814 1.388 . S
C1816 C1817 1.366 . S
C1817 C1816 1.366 . S
C1817 C1818 1.414 . S
C1817 C1820 1.499 . S
C1818 H1798 0.950 1_545 S
C1818 C1817 1.414 . S
C1818 C1819 1.374 . S
C1819 H1799 0.950 . S
C1819 C1815 1.385 . S
C1819 C1818 1.374 . S
C1820 C1817 1.499 . S
C1820 C1821 1.373 1_545 S
C1820 C1822 1.389 1_655 S
C1821 H1800 0.950 . S
C1821 C1820 1.373 1_565 S
C1821 C1837 1.377 . S
C1822 C1820 1.389 1_455 S
C1822 C1823 1.524 . S
C1822 C1836 1.377 . S
C1823 C1822 1.524 . S
C1823 C1824 1.397 . S
C1823 C1828 1.363 . S
C1824 H1801 0.950 1_455 S
C1824 C1823 1.397 . S
C1824 C1825 1.334 . S
C1825 H1802 0.950 . S
C1825 C1824 1.334 . S
C1825 C1826 1.287 . S
C1826 C1825 1.287 . S
C1826 C1827 1.524 . S
C1826 H1845 0.913 . S
C1827 H1803 0.950 . S
C1827 C1826 1.524 . S
C1827 C1828 1.415 . S
C1828 H1804 0.950 . S
C1828 C1823 1.363 . S
C1828 C1827 1.415 . S
C1829 H1805 0.951 . S
C1829 C1830 1.366 . S
C1829 C1831 1.388 . S
C1830 C1829 1.366 . S
C1830 C1834 1.385 . S
C1831 H1806 0.951 . S
C1831 C1829 1.388 . S
C1831 C1832 1.366 . S
C1832 C1831 1.366 . S
C1832 C1833 1.414 . S
C1832 C1835 1.499 . S
C1833 H1807 0.950 1_565 S
C1833 C1832 1.414 . S
C1833 C1834 1.374 . S
C1834 H1808 0.950 . S
C1834 C1830 1.385 . S
C1834 C1833 1.374 . S
C1835 C1832 1.499 . S
C1835 C1836 1.373 1_565 S
C1835 C1837 1.389 1_455 S
C1836 H1809 0.950 . S
C1836 C1822 1.377 . S
C1836 C1835 1.373 1_545 S
C1837 C1821 1.377 . S
C1837 C1835 1.389 1_655 S
C1837 C1838 1.524 . S
C1838 C1837 1.524 . S
C1838 C1839 1.397 . S
C1838 C1843 1.363 . S
C1839 H1810 0.950 1_655 S
C1839 C1838 1.397 . S
C1839 C1840 1.334 . S
C1840 H1811 0.950 . S
C1840 C1839 1.334 . S
C1840 C1841 1.287 . S
C1841 C1840 1.287 . S
C1841 C1842 1.524 . S
C1841 H1844 0.999 . S
C1842 H1812 0.950 . S
C1842 C1841 1.524 . S
C1842 C1843 1.415 . S
C1843 H1813 0.950 . S
C1843 C1838 1.363 . S
C1843 C1842 1.415 . S
H1844 C1841 0.999 . S
H1845 C1826 0.913 . S
H1846 C1864 0.951 . S
H1847 C1866 0.951 . S
H1848 C1868 0.950 . S
H1849 C1869 0.950 . S
H1850 C1871 0.950 . S
H1851 C1874 0.950 1_545 S
H1852 C1875 0.950 . S
H1853 C1877 0.950 . S
H1854 C1878 0.950 . S
H1855 C1879 0.951 . S
H1856 C1881 0.951 . S
H1857 C1883 0.950 . S
H1858 C1884 0.950 . S
H1859 C1886 0.950 . S
H1860 C1889 0.950 1_565 S
H1861 C1890 0.950 . S
H1862 C1892 0.950 . S
H1863 C1893 0.950 . S
C1864 H1846 0.951 . S
C1864 C1865 1.366 . S
C1864 C1866 1.388 . S
C1865 C1864 1.366 . S
C1865 C1869 1.385 . S
C1866 H1847 0.951 . S
C1866 C1864 1.388 . S
C1866 C1867 1.366 . S
C1867 C1866 1.366 . S
C1867 C1868 1.414 . S
C1867 C1870 1.499 . S
C1868 H1848 0.950 . S
C1868 C1867 1.414 . S
C1868 C1869 1.374 . S
C1869 H1849 0.950 . S
C1869 C1865 1.385 . S
C1869 C1868 1.374 . S
C1870 C1867 1.499 . S
C1870 C1871 1.373 . S
C1870 C1872 1.389 1_545 S
C1871 H1850 0.950 . S
C1871 C1870 1.373 . S
C1871 C1887 1.377 1_455 S
C1872 C1870 1.389 1_565 S
C1872 C1873 1.524 . S
C1872 C1886 1.377 1_455 S
C1873 C1872 1.524 . S
C1873 C1874 1.397 . S
C1873 C1878 1.363 . S
C1874 H1851 0.950 1_565 S
C1874 C1873 1.397 . S
C1874 C1875 1.334 . S
C1875 H1852 0.950 . S
C1875 C1874 1.334 . S
C1875 C1876 1.287 . S
C1876 C1875 1.287 . S
C1876 C1877 1.524 . S
C1876 H1895 0.913 . S
C1877 H1853 0.950 . S
C1877 C1876 1.524 . S
C1877 C1878 1.415 . S
C1878 H1854 0.950 . S
C1878 C1873 1.363 . S
C1878 C1877 1.415 . S
C1879 H1855 0.951 . S
C1879 C1880 1.366 . S
C1879 C1881 1.388 . S
C1880 C1879 1.366 . S
C1880 C1884 1.385 . S
C1881 H1856 0.951 . S
C1881 C1879 1.388 . S
C1881 C1882 1.366 . S
C1882 C1881 1.366 . S
C1882 C1883 1.414 . S
C1882 C1885 1.499 . S
C1883 H1857 0.950 . S
C1883 C1882 1.414 . S
C1883 C1884 1.374 . S
C1884 H1858 0.950 . S
C1884 C1880 1.385 . S
C1884 C1883 1.374 . S
C1885 C1882 1.499 . S
C1885 C1886 1.373 . S
C1885 C1887 1.389 1_565 S
C1886 H1859 0.950 . S
C1886 C1872 1.377 1_655 S
C1886 C1885 1.373 . S
C1887 C1871 1.377 1_655 S
C1887 C1885 1.389 1_545 S
C1887 C1888 1.524 . S
C1888 C1887 1.524 . S
C1888 C1889 1.397 . S
C1888 C1893 1.363 . S
C1889 H1860 0.950 1_545 S
C1889 C1888 1.397 . S
C1889 C1890 1.334 . S
C1890 H1861 0.950 . S
C1890 C1889 1.334 . S
C1890 C1891 1.287 . S
C1891 C1890 1.287 . S
C1891 C1892 1.524 . S
C1891 H1894 0.999 . S
C1892 H1862 0.950 . S
C1892 C1891 1.524 . S
C1892 C1893 1.415 . S
C1893 H1863 0.950 . S
C1893 C1888 1.363 . S
C1893 C1892 1.415 . S
H1894 C1891 0.999 . S
H1895 C1876 0.913 . S
C415 N14 1.669 . S
C430 N245 1.670 . S
C465 N47 1.669 . S
C480 N278 1.670 . S
C515 N80 1.669 . S
C530 N311 1.669 . S
C565 N344 1.669 . S
C580 N113 1.669 . S
C615 N377 1.669 . S
C630 N146 1.669 . S
C665 N179 1.669 . S
C680 N212 1.669 . S
C715 C127 1.610 . S
C730 C28 1.610 . S
C765 C61 1.610 . S
C780 C160 1.610 . S
C815 C193 1.611 . S
C830 C94 1.610 . S
C865 C325 1.610 . S
C880 C226 1.610 . S
C915 C358 1.611 . S
C930 C259 1.610 . S
C965 C292 1.610 . S
C980 C391 1.610 . S
C1015 N269 1.559 . S
C1030 N5 1.559 . S
C1065 N38 1.559 . S
C1080 N302 1.559 . S
C1115 N71 1.559 . S
C1130 N335 1.560 . S
C1165 N104 1.559 . S
C1180 N368 1.558 . S
C1215 N137 1.560 . S
C1230 N203 1.559 . S
C1265 N236 1.559 . S
C1280 N170 1.558 . S
C1315 C116 1.029 . S
C1330 C17 1.028 . S
C1365 C50 1.029 . S
C1380 C149 1.028 . S
C1415 C182 1.028 . S
C1430 C83 1.029 . S
C1465 C215 1.029 . S
C1480 C314 1.028 . S
C1515 C248 1.028 . S
C1530 C347 1.029 . S
C1565 C380 1.029 . S
C1580 C281 1.028 . S
C1615 C8 1.208 . S
C1630 C107 1.208 . S
C1665 C41 1.208 . S
C1680 C140 1.208 . S
C1715 C74 1.208 . S
C1730 C173 1.208 . S
C1765 C206 1.208 . S
C1780 C305 1.208 . S
C1815 C338 1.208 . S
C1830 C239 1.208 . S
C1865 C272 1.208 . S
C1880 C371 1.208 . S
