# Generated by pormake.
# Topology mer, (4)-cn, num edge types: 1
# Building blocks:
#     Node 0, Type 0, BuildingBlock: CEKHIL_clean_sbu_0, # of connection points: 4
#     Node 1, Type 0, BuildingBlock: CEKHIL_clean_sbu_0, # of connection points: 4
#     Node 2, Type 0, BuildingBlock: CEKHIL_clean_sbu_0, # of connection points: 4
#     Node 3, Type 0, BuildingBlock: CEKHIL_clean_sbu_0, # of connection points: 4
#     Node 4, Type 0, BuildingBlock: CEKHIL_clean_sbu_0, # of connection points: 4
#     Node 5, Type 0, BuildingBlock: CEKHIL_clean_sbu_0, # of connection points: 4
#     Node 6, Type 0, BuildingBlock: CEKHIL_clean_sbu_0, # of connection points: 4
#     Node 7, Type 0, BuildingBlock: CEKHIL_clean_sbu_0, # of connection points: 4
#     Node 8, Type 0, BuildingBlock: CEKHIL_clean_sbu_0, # of connection points: 4
#     Node 9, Type 0, BuildingBlock: CEKHIL_clean_sbu_0, # of connection points: 4
#     Node 10, Type 0, BuildingBlock: CEKHIL_clean_sbu_0, # of connection points: 4
#     Node 11, Type 0, BuildingBlock: CEKHIL_clean_sbu_0, # of connection points: 4
#     Node 12, Type 0, BuildingBlock: CEKHIL_clean_sbu_0, # of connection points: 4
#     Node 13, Type 0, BuildingBlock: CEKHIL_clean_sbu_0, # of connection points: 4
#     Node 14, Type 0, BuildingBlock: CEKHIL_clean_sbu_0, # of connection points: 4
#     Node 15, Type 0, BuildingBlock: CEKHIL_clean_sbu_0, # of connection points: 4
#     Node 16, Type 0, BuildingBlock: CEKHIL_clean_sbu_0, # of connection points: 4
#     Node 17, Type 0, BuildingBlock: CEKHIL_clean_sbu_0, # of connection points: 4
#     Node 18, Type 0, BuildingBlock: CEKHIL_clean_sbu_0, # of connection points: 4
#     Node 19, Type 0, BuildingBlock: CEKHIL_clean_sbu_0, # of connection points: 4
#     Node 20, Type 0, BuildingBlock: CEKHIL_clean_sbu_0, # of connection points: 4
#     Node 21, Type 0, BuildingBlock: CEKHIL_clean_sbu_0, # of connection points: 4
#     Node 22, Type 0, BuildingBlock: CEKHIL_clean_sbu_0, # of connection points: 4
#     Node 23, Type 0, BuildingBlock: CEKHIL_clean_sbu_0, # of connection points: 4
#     Node 24, Type 0, BuildingBlock: CEKHIL_clean_sbu_0, # of connection points: 4
#     Node 25, Type 0, BuildingBlock: CEKHIL_clean_sbu_0, # of connection points: 4
#     Node 26, Type 0, BuildingBlock: CEKHIL_clean_sbu_0, # of connection points: 4
#     Node 27, Type 0, BuildingBlock: CEKHIL_clean_sbu_0, # of connection points: 4
#     Node 28, Type 0, BuildingBlock: CEKHIL_clean_sbu_0, # of connection points: 4
#     Node 29, Type 0, BuildingBlock: CEKHIL_clean_sbu_0, # of connection points: 4
#     Node 30, Type 0, BuildingBlock: CEKHIL_clean_sbu_0, # of connection points: 4
#     Node 31, Type 0, BuildingBlock: CEKHIL_clean_sbu_0, # of connection points: 4
#     Edge 32, Type (0, 0), BuildingBlock: KIFKEQ_clean_linker_1, # of connection points: 2
#     Edge 33, Type (0, 0), BuildingBlock: KIFKEQ_clean_linker_1, # of connection points: 2
#     Edge 34, Type (0, 0), BuildingBlock: KIFKEQ_clean_linker_1, # of connection points: 2
#     Edge 35, Type (0, 0), BuildingBlock: KIFKEQ_clean_linker_1, # of connection points: 2
#     Edge 36, Type (0, 0), BuildingBlock: KIFKEQ_clean_linker_1, # of connection points: 2
#     Edge 37, Type (0, 0), BuildingBlock: KIFKEQ_clean_linker_1, # of connection points: 2
#     Edge 38, Type (0, 0), BuildingBlock: KIFKEQ_clean_linker_1, # of connection points: 2
#     Edge 39, Type (0, 0), BuildingBlock: KIFKEQ_clean_linker_1, # of connection points: 2
#     Edge 40, Type (0, 0), BuildingBlock: KIFKEQ_clean_linker_1, # of connection points: 2
#     Edge 41, Type (0, 0), BuildingBlock: KIFKEQ_clean_linker_1, # of connection points: 2
#     Edge 42, Type (0, 0), BuildingBlock: KIFKEQ_clean_linker_1, # of connection points: 2
#     Edge 43, Type (0, 0), BuildingBlock: KIFKEQ_clean_linker_1, # of connection points: 2
#     Edge 44, Type (0, 0), BuildingBlock: KIFKEQ_clean_linker_1, # of connection points: 2
#     Edge 45, Type (0, 0), BuildingBlock: KIFKEQ_clean_linker_1, # of connection points: 2
#     Edge 46, Type (0, 0), BuildingBlock: KIFKEQ_clean_linker_1, # of connection points: 2
#     Edge 47, Type (0, 0), BuildingBlock: KIFKEQ_clean_linker_1, # of connection points: 2
#     Edge 48, Type (0, 0), BuildingBlock: KIFKEQ_clean_linker_1, # of connection points: 2
#     Edge 49, Type (0, 0), BuildingBlock: KIFKEQ_clean_linker_1, # of connection points: 2
#     Edge 50, Type (0, 0), BuildingBlock: KIFKEQ_clean_linker_1, # of connection points: 2
#     Edge 51, Type (0, 0), BuildingBlock: KIFKEQ_clean_linker_1, # of connection points: 2
#     Edge 52, Type (0, 0), BuildingBlock: KIFKEQ_clean_linker_1, # of connection points: 2
#     Edge 53, Type (0, 0), BuildingBlock: KIFKEQ_clean_linker_1, # of connection points: 2
#     Edge 54, Type (0, 0), BuildingBlock: KIFKEQ_clean_linker_1, # of connection points: 2
#     Edge 55, Type (0, 0), BuildingBlock: KIFKEQ_clean_linker_1, # of connection points: 2
#     Edge 56, Type (0, 0), BuildingBlock: KIFKEQ_clean_linker_1, # of connection points: 2
#     Edge 57, Type (0, 0), BuildingBlock: KIFKEQ_clean_linker_1, # of connection points: 2
#     Edge 58, Type (0, 0), BuildingBlock: KIFKEQ_clean_linker_1, # of connection points: 2
#     Edge 59, Type (0, 0), BuildingBlock: KIFKEQ_clean_linker_1, # of connection points: 2
#     Edge 60, Type (0, 0), BuildingBlock: KIFKEQ_clean_linker_1, # of connection points: 2
#     Edge 61, Type (0, 0), BuildingBlock: KIFKEQ_clean_linker_1, # of connection points: 2
#     Edge 62, Type (0, 0), BuildingBlock: KIFKEQ_clean_linker_1, # of connection points: 2
#     Edge 63, Type (0, 0), BuildingBlock: KIFKEQ_clean_linker_1, # of connection points: 2
#     Edge 64, Type (0, 0), BuildingBlock: KIFKEQ_clean_linker_1, # of connection points: 2
#     Edge 65, Type (0, 0), BuildingBlock: KIFKEQ_clean_linker_1, # of connection points: 2
#     Edge 66, Type (0, 0), BuildingBlock: KIFKEQ_clean_linker_1, # of connection points: 2
#     Edge 67, Type (0, 0), BuildingBlock: KIFKEQ_clean_linker_1, # of connection points: 2
#     Edge 68, Type (0, 0), BuildingBlock: KIFKEQ_clean_linker_1, # of connection points: 2
#     Edge 69, Type (0, 0), BuildingBlock: KIFKEQ_clean_linker_1, # of connection points: 2
#     Edge 70, Type (0, 0), BuildingBlock: KIFKEQ_clean_linker_1, # of connection points: 2
#     Edge 71, Type (0, 0), BuildingBlock: KIFKEQ_clean_linker_1, # of connection points: 2
#     Edge 72, Type (0, 0), BuildingBlock: KIFKEQ_clean_linker_1, # of connection points: 2
#     Edge 73, Type (0, 0), BuildingBlock: KIFKEQ_clean_linker_1, # of connection points: 2
#     Edge 74, Type (0, 0), BuildingBlock: KIFKEQ_clean_linker_1, # of connection points: 2
#     Edge 75, Type (0, 0), BuildingBlock: KIFKEQ_clean_linker_1, # of connection points: 2
#     Edge 76, Type (0, 0), BuildingBlock: KIFKEQ_clean_linker_1, # of connection points: 2
#     Edge 77, Type (0, 0), BuildingBlock: KIFKEQ_clean_linker_1, # of connection points: 2
#     Edge 78, Type (0, 0), BuildingBlock: KIFKEQ_clean_linker_1, # of connection points: 2
#     Edge 79, Type (0, 0), BuildingBlock: KIFKEQ_clean_linker_1, # of connection points: 2
#     Edge 80, Type (0, 0), BuildingBlock: KIFKEQ_clean_linker_1, # of connection points: 2
#     Edge 81, Type (0, 0), BuildingBlock: KIFKEQ_clean_linker_1, # of connection points: 2
#     Edge 82, Type (0, 0), BuildingBlock: KIFKEQ_clean_linker_1, # of connection points: 2
#     Edge 83, Type (0, 0), BuildingBlock: KIFKEQ_clean_linker_1, # of connection points: 2
#     Edge 84, Type (0, 0), BuildingBlock: KIFKEQ_clean_linker_1, # of connection points: 2
#     Edge 85, Type (0, 0), BuildingBlock: KIFKEQ_clean_linker_1, # of connection points: 2
#     Edge 86, Type (0, 0), BuildingBlock: KIFKEQ_clean_linker_1, # of connection points: 2
#     Edge 87, Type (0, 0), BuildingBlock: KIFKEQ_clean_linker_1, # of connection points: 2
#     Edge 88, Type (0, 0), BuildingBlock: KIFKEQ_clean_linker_1, # of connection points: 2
#     Edge 89, Type (0, 0), BuildingBlock: KIFKEQ_clean_linker_1, # of connection points: 2
#     Edge 90, Type (0, 0), BuildingBlock: KIFKEQ_clean_linker_1, # of connection points: 2
#     Edge 91, Type (0, 0), BuildingBlock: KIFKEQ_clean_linker_1, # of connection points: 2
#     Edge 92, Type (0, 0), BuildingBlock: KIFKEQ_clean_linker_1, # of connection points: 2
#     Edge 93, Type (0, 0), BuildingBlock: KIFKEQ_clean_linker_1, # of connection points: 2
#     Edge 94, Type (0, 0), BuildingBlock: KIFKEQ_clean_linker_1, # of connection points: 2
#     Edge 95, Type (0, 0), BuildingBlock: KIFKEQ_clean_linker_1, # of connection points: 2
# Relax obj value: 0.065
# Max RMSD: 0.119
# Mean RMSD: 0.119
data_MOF--net-mer--node1-CEKHIL_clean_sbu_0--edge1-KIFKEQ_clean_linker_1
_symmetry_space_group_name_H-M    P1
_symmetry_Int_Tables_number       1
_symmetry_cell_setting            triclinic
loop_
_symmetry_equiv_pos_as_xyz
'x, y, z'
_cell_length_a     63.236736
_cell_length_b     63.258085
_cell_length_c     54.17756
_cell_angle_alpha  90.014875
_cell_angle_beta   89.984628
_cell_angle_gamma 89.997938
loop_
_atom_site_label
_atom_site_type_symbol
_atom_site_fract_x
_atom_site_fract_y
_atom_site_fract_z
_atom_type_partial_charge
Co0 Co 0.1159 0.29014 0.357 0.0
O1 O 0.08929 0.30456 0.3583 0.0
O2 O 0.09329 0.27004 0.36315 0.0
C3 C 0.12786 0.30634 0.32271 0.0
O4 O 0.14102 0.26977 0.35555 0.0
Co5 Co 0.15759 0.31593 0.36256 0.0
O6 O 0.1704 0.28936 0.35036 0.0
C7 C 0.13153 0.30715 0.40647 0.0
C8 C 0.08064 0.28626 0.36202 0.0
C9 C 0.16095 0.27156 0.35087 0.0
O10 O 0.11977 0.29467 0.39365 0.0
O11 O 0.1464 0.31828 0.39705 0.0
O12 O 0.115 0.29039 0.32093 0.0
O13 O 0.13126 0.31313 0.34481 0.0
Co14 Co 0.71466 0.11513 0.35578 0.0
O15 O 0.7005 0.08841 0.35703 0.0
O16 O 0.73502 0.09266 0.36164 0.0
C17 C 0.69799 0.1269 0.32163 0.0
O18 O 0.73474 0.14035 0.35438 0.0
Co19 Co 0.6888 0.15674 0.36104 0.0
O20 O 0.71488 0.16913 0.3466 0.0
C21 C 0.69771 0.13076 0.40512 0.0
C22 C 0.7189 0.07988 0.36049 0.0
C23 C 0.73275 0.15987 0.348 0.0
O24 O 0.71035 0.11905 0.39245 0.0
O25 O 0.6864 0.14544 0.39556 0.0
O26 O 0.71425 0.11445 0.31966 0.0
O27 O 0.69137 0.13016 0.34382 0.0
Co28 Co 0.88504 0.71239 0.35168 0.0
O29 O 0.91233 0.69936 0.35157 0.0
O30 O 0.90678 0.73351 0.35772 0.0
C31 C 0.8731 0.69623 0.31727 0.0
O32 O 0.85888 0.73128 0.35197 0.0
Co33 Co 0.84507 0.68416 0.35772 0.0
O34 O 0.83059 0.71022 0.34626 0.0
C35 C 0.87161 0.69359 0.40107 0.0
C36 C 0.92017 0.71795 0.3557 0.0
C37 C 0.83905 0.7285 0.34748 0.0
O38 O 0.88226 0.70702 0.38826 0.0
O39 O 0.85735 0.68162 0.39177 0.0
O40 O 0.88484 0.71303 0.31557 0.0
O41 O 0.87077 0.68879 0.33927 0.0
Co42 Co 0.29013 0.88418 0.35928 0.0
O43 O 0.3048 0.91057 0.36303 0.0
O44 O 0.27002 0.90673 0.36515 0.0
C45 C 0.30774 0.87325 0.32542 0.0
O46 O 0.26939 0.85959 0.35551 0.0
Co47 Co 0.31427 0.84149 0.36363 0.0
O48 O 0.28837 0.83025 0.34774 0.0
C49 C 0.30443 0.86605 0.40861 0.0
C50 C 0.28636 0.91921 0.36599 0.0
C51 C 0.27083 0.84012 0.34871 0.0
O52 O 0.29298 0.87885 0.39585 0.0
O53 O 0.31527 0.85107 0.39893 0.0
O54 O 0.29207 0.88642 0.32336 0.0
O55 O 0.31341 0.8688 0.34771 0.0
Co56 Co 0.11586 0.70898 0.63969 0.0
O57 O 0.08869 0.69563 0.63959 0.0
O58 O 0.0939 0.72982 0.63343 0.0
C59 C 0.12785 0.69308 0.67419 0.0
O60 O 0.14191 0.72821 0.63966 0.0
Co61 Co 0.15604 0.68083 0.6337 0.0
O62 O 0.17069 0.70738 0.64266 0.0
C63 C 0.12974 0.69034 0.59025 0.0
C64 C 0.08067 0.71414 0.63539 0.0
C65 C 0.16203 0.72559 0.64228 0.0
O66 O 0.11883 0.70354 0.60311 0.0
O67 O 0.1441 0.67851 0.59956 0.0
O68 O 0.11571 0.7096 0.67581 0.0
O69 O 0.13044 0.68563 0.65224 0.0
Co70 Co 0.28626 0.11417 0.63725 0.0
O71 O 0.29982 0.08717 0.63481 0.0
O72 O 0.26532 0.09236 0.63102 0.0
C73 C 0.30326 0.12499 0.67161 0.0
O74 O 0.26678 0.13984 0.63944 0.0
Co75 Co 0.31322 0.15519 0.63279 0.0
O76 O 0.28723 0.16834 0.64652 0.0
C77 C 0.3039 0.12983 0.58837 0.0
C78 C 0.28118 0.07924 0.6311 0.0
C79 C 0.26917 0.15942 0.64533 0.0
O80 O 0.29054 0.11868 0.60071 0.0
O81 O 0.31579 0.14387 0.59828 0.0
O82 O 0.28681 0.11276 0.67334 0.0
O83 O 0.30992 0.12845 0.64947 0.0
Co84 Co 0.8848 0.28977 0.64171 0.0
O85 O 0.91191 0.30301 0.63837 0.0
O86 O 0.90631 0.26852 0.63544 0.0
C87 C 0.87462 0.30738 0.67588 0.0
O88 O 0.85901 0.27052 0.64496 0.0
Co89 Co 0.8439 0.31695 0.6375 0.0
O90 O 0.83034 0.29103 0.65055 0.0
C91 C 0.86789 0.30598 0.59256 0.0
C92 C 0.91958 0.28424 0.63484 0.0
C93 C 0.83925 0.27294 0.65008 0.0
O94 O 0.87981 0.29349 0.60515 0.0
O95 O 0.85376 0.31781 0.60236 0.0
O96 O 0.88678 0.29089 0.67771 0.0
O97 O 0.87089 0.31376 0.6537 0.0
Co98 Co 0.70989 0.88555 0.64081 0.0
O99 O 0.69623 0.91255 0.64083 0.0
O100 O 0.73044 0.90768 0.63425 0.0
C101 C 0.69443 0.87345 0.6755 0.0
O102 O 0.72947 0.85983 0.64068 0.0
Co103 Co 0.6826 0.84482 0.63563 0.0
O104 O 0.70923 0.83094 0.64604 0.0
C105 C 0.69102 0.8711 0.59179 0.0
C106 C 0.71463 0.92075 0.63636 0.0
C107 C 0.72728 0.83988 0.64484 0.0
O108 O 0.70407 0.88244 0.60434 0.0
O109 O 0.67976 0.85641 0.60138 0.0
O110 O 0.71094 0.88563 0.67689 0.0
O111 O 0.68679 0.87081 0.65364 0.0
Co112 Co 0.88684 0.71352 0.63577 0.0
O113 O 0.91344 0.69918 0.63273 0.0
O114 O 0.9092 0.73383 0.62944 0.0
C115 C 0.876 0.69647 0.6701 0.0
O116 O 0.86187 0.73388 0.63868 0.0
Co117 Co 0.8446 0.6885 0.63217 0.0
O118 O 0.83307 0.71447 0.64769 0.0
C119 C 0.86897 0.69787 0.58686 0.0
C120 C 0.92187 0.71762 0.62918 0.0
C121 C 0.84254 0.7322 0.64594 0.0
O122 O 0.88175 0.70966 0.59925 0.0
O123 O 0.85409 0.68712 0.59686 0.0
O124 O 0.88871 0.71255 0.67181 0.0
O125 O 0.87191 0.69021 0.64795 0.0
Co126 Co 0.28863 0.88561 0.64357 0.0
O127 O 0.30206 0.91272 0.64292 0.0
O128 O 0.26777 0.90755 0.63741 0.0
C129 C 0.30511 0.87399 0.67795 0.0
O130 O 0.26926 0.85979 0.64412 0.0
Co131 Co 0.316 0.84497 0.63818 0.0
O132 O 0.28981 0.83124 0.6505 0.0
C133 C 0.30688 0.87112 0.59438 0.0
C134 C 0.28352 0.92075 0.63893 0.0
C135 C 0.27169 0.84004 0.6492 0.0
O136 O 0.29361 0.88217 0.60698 0.0
O137 O 0.31865 0.85682 0.60394 0.0
O138 O 0.28846 0.88595 0.67973 0.0
O139 O 0.31215 0.87116 0.65586 0.0
Co140 Co 0.11347 0.28998 0.64095 0.0
O141 O 0.0863 0.3032 0.64194 0.0
O142 O 0.09144 0.26911 0.63493 0.0
C143 C 0.1262 0.30534 0.6754 0.0
O144 O 0.1396 0.27103 0.63982 0.0
Co145 Co 0.1531 0.31868 0.63427 0.0
O146 O 0.16812 0.29219 0.64298 0.0
C147 C 0.12562 0.30994 0.59171 0.0
C148 C 0.07822 0.28475 0.6376 0.0
C149 C 0.15967 0.27387 0.64249 0.0
O150 O 0.11567 0.29591 0.6044 0.0
O151 O 0.13971 0.32214 0.60096 0.0
O152 O 0.11427 0.28868 0.677 0.0
O153 O 0.12805 0.31326 0.65357 0.0
Co154 Co 0.713 0.11421 0.64028 0.0
O155 O 0.69879 0.08766 0.63618 0.0
O156 O 0.7335 0.09208 0.63386 0.0
C157 C 0.69534 0.12437 0.67448 0.0
O158 O 0.73323 0.13913 0.64429 0.0
Co159 Co 0.68803 0.15641 0.63697 0.0
O160 O 0.71366 0.16777 0.65343 0.0
C161 C 0.69856 0.13304 0.5913 0.0
C162 C 0.71734 0.07938 0.63283 0.0
C163 C 0.73141 0.15833 0.6519 0.0
O164 O 0.70988 0.11994 0.60381 0.0
O165 O 0.68765 0.14782 0.60128 0.0
O166 O 0.71141 0.11165 0.67619 0.0
O167 O 0.6894 0.12887 0.6523 0.0
Co168 Co 0.88701 0.29111 0.35748 0.0
O169 O 0.91397 0.30464 0.36084 0.0
O170 O 0.90874 0.27007 0.36357 0.0
C171 C 0.87648 0.3086 0.32339 0.0
O172 O 0.8613 0.27176 0.35426 0.0
Co173 Co 0.84629 0.31855 0.36279 0.0
O174 O 0.83238 0.29235 0.35097 0.0
C175 C 0.87147 0.30813 0.40673 0.0
C176 C 0.92184 0.28594 0.36425 0.0
C177 C 0.84132 0.27427 0.35046 0.0
O178 O 0.88205 0.29455 0.39407 0.0
O179 O 0.85797 0.32076 0.39711 0.0
O180 O 0.88905 0.29243 0.32147 0.0
O181 O 0.87277 0.31491 0.34562 0.0
Co182 Co 0.71111 0.88652 0.35772 0.0
O183 O 0.69886 0.91417 0.35841 0.0
O184 O 0.73293 0.90748 0.36409 0.0
C185 C 0.69483 0.87525 0.32312 0.0
O186 O 0.72912 0.85974 0.35756 0.0
Co187 Co 0.68107 0.8478 0.3636 0.0
O188 O 0.70713 0.83177 0.35553 0.0
C189 C 0.69071 0.87444 0.40656 0.0
C190 C 0.71768 0.92129 0.36295 0.0
C191 C 0.72568 0.83972 0.35548 0.0
O192 O 0.70551 0.88357 0.39423 0.0
O193 O 0.67776 0.86125 0.39692 0.0
O194 O 0.71187 0.88667 0.32162 0.0
O195 O 0.68713 0.87312 0.34503 0.0
Co196 Co 0.11317 0.71292 0.35616 0.0
O197 O 0.08566 0.70043 0.35807 0.0
O198 O 0.09212 0.73468 0.36238 0.0
C199 C 0.12374 0.69581 0.3218 0.0
O200 O 0.1397 0.73127 0.35455 0.0
Co201 Co 0.15261 0.68379 0.36148 0.0
O202 O 0.16786 0.7097 0.35099 0.0
C203 C 0.12647 0.6935 0.40494 0.0
C204 C 0.07844 0.7193 0.36206 0.0
C205 C 0.15962 0.72811 0.35103 0.0
O206 O 0.11699 0.70815 0.39273 0.0
O207 O 0.13966 0.68065 0.3951 0.0
O208 O 0.11219 0.71274 0.32006 0.0
O209 O 0.12655 0.68879 0.3439 0.0
Co210 Co 0.28887 0.11338 0.3534 0.0
O211 O 0.30409 0.0872 0.35521 0.0
O212 O 0.26948 0.09034 0.36017 0.0
C213 C 0.30487 0.12513 0.31879 0.0
O214 O 0.26764 0.13768 0.3517 0.0
Co215 Co 0.3125 0.15633 0.35709 0.0
O216 O 0.28591 0.16709 0.34224 0.0
C217 C 0.30439 0.13146 0.40234 0.0
C218 C 0.28604 0.07813 0.35929 0.0
C219 C 0.26854 0.15706 0.34451 0.0
O220 O 0.29331 0.11813 0.38988 0.0
O221 O 0.31432 0.14693 0.39241 0.0
O222 O 0.28908 0.11203 0.31731 0.0
O223 O 0.31144 0.12918 0.34083 0.0
Co224 Co 0.61459 0.78805 0.8574 0.0
O225 O 0.58712 0.80055 0.85599 0.0
O226 O 0.59303 0.76666 0.8634 0.0
C227 C 0.6271 0.80357 0.82294 0.0
O228 O 0.64121 0.76982 0.85899 0.0
Co229 Co 0.65337 0.81793 0.86411 0.0
O230 O 0.66924 0.7917 0.85647 0.0
C231 C 0.62566 0.80897 0.90639 0.0
C232 C 0.57945 0.78195 0.86041 0.0
C233 C 0.66125 0.77317 0.85691 0.0
O234 O 0.61634 0.79438 0.89389 0.0
O235 O 0.63939 0.82152 0.89706 0.0
O236 O 0.6157 0.78653 0.82135 0.0
O237 O 0.62859 0.81163 0.84472 0.0
Co238 Co 0.21324 0.61403 0.85671 0.0
O239 O 0.19958 0.58715 0.86033 0.0
O240 O 0.23416 0.5923 0.86312 0.0
C241 C 0.19575 0.62423 0.82246 0.0
O242 O 0.23287 0.63946 0.85324 0.0
Co243 Co 0.18675 0.65545 0.8607 0.0
O244 O 0.21265 0.66817 0.8463 0.0
C245 C 0.19645 0.6308 0.90547 0.0
C246 C 0.21828 0.57922 0.86374 0.0
C247 C 0.23061 0.65901 0.84713 0.0
O248 O 0.20967 0.61944 0.89319 0.0
O249 O 0.18444 0.64465 0.89543 0.0
O250 O 0.2119 0.61162 0.82072 0.0
O251 O 0.18956 0.62837 0.84463 0.0
Co252 Co 0.38557 0.20912 0.85328 0.0
O253 O 0.41267 0.19562 0.85269 0.0
O254 O 0.40771 0.22977 0.85948 0.0
C255 C 0.37319 0.19351 0.8187 0.0
O256 O 0.3598 0.22861 0.85408 0.0
Co257 Co 0.34476 0.18199 0.85866 0.0
O258 O 0.33105 0.20846 0.84737 0.0
C259 C 0.37129 0.19047 0.90247 0.0
C260 C 0.42085 0.21405 0.85702 0.0
C261 C 0.33996 0.22648 0.84923 0.0
O262 O 0.38289 0.20321 0.8898 0.0
O263 O 0.35635 0.17946 0.89298 0.0
O264 O 0.38516 0.21016 0.81715 0.0
O265 O 0.37076 0.18595 0.84062 0.0
Co266 Co 0.78633 0.38684 0.85646 0.0
O267 O 0.79991 0.41382 0.85867 0.0
O268 O 0.76538 0.40875 0.86242 0.0
C269 C 0.80352 0.37587 0.82231 0.0
O270 O 0.76692 0.36107 0.85448 0.0
Co271 Co 0.81351 0.34602 0.86155 0.0
O272 O 0.78758 0.33258 0.84804 0.0
C273 C 0.80438 0.37213 0.90539 0.0
C274 C 0.7813 0.42182 0.86231 0.0
C275 C 0.76946 0.34141 0.84894 0.0
O276 O 0.79056 0.38267 0.89305 0.0
O277 O 0.8165 0.35822 0.89561 0.0
O278 O 0.787 0.38798 0.82036 0.0
O279 O 0.81007 0.37257 0.84451 0.0
Co280 Co 0.61501 0.21121 0.14067 0.0
O281 O 0.58829 0.19694 0.14011 0.0
O282 O 0.59245 0.23135 0.13444 0.0
C283 C 0.6271 0.19525 0.17512 0.0
O284 O 0.64013 0.23152 0.14122 0.0
Co285 Co 0.65691 0.18579 0.13589 0.0
O286 O 0.66906 0.21216 0.14976 0.0
C287 C 0.631 0.19404 0.09147 0.0
C288 C 0.57971 0.21524 0.13616 0.0
C289 C 0.65966 0.2299 0.14772 0.0
O290 O 0.61862 0.20609 0.10409 0.0
O291 O 0.64622 0.18355 0.10114 0.0
O292 O 0.61462 0.21151 0.1768 0.0
O293 O 0.63029 0.18824 0.15308 0.0
Co294 Co 0.78901 0.61446 0.13546 0.0
O295 O 0.80165 0.58699 0.13454 0.0
O296 O 0.76745 0.59316 0.1293 0.0
C297 C 0.80542 0.62585 0.16994 0.0
O298 O 0.77063 0.64102 0.136 0.0
Co299 Co 0.81848 0.65357 0.12941 0.0
O300 O 0.79239 0.66913 0.13853 0.0
C301 C 0.80889 0.62691 0.08644 0.0
C302 C 0.78291 0.57957 0.13027 0.0
C303 C 0.77391 0.66102 0.13861 0.0
O304 O 0.79427 0.61758 0.09887 0.0
O305 O 0.82173 0.64024 0.09601 0.0
O306 O 0.78856 0.61418 0.17157 0.0
O307 O 0.8129 0.62814 0.14795 0.0
Co308 Co 0.38673 0.7871 0.14292 0.0
O309 O 0.4128 0.80239 0.14 0.0
O310 O 0.40976 0.76764 0.13641 0.0
C311 C 0.37543 0.80387 0.17721 0.0
O312 O 0.36255 0.76582 0.14599 0.0
Co313 Co 0.34355 0.81042 0.13916 0.0
O314 O 0.33314 0.78424 0.15519 0.0
C315 C 0.36814 0.80166 0.09387 0.0
C316 C 0.42192 0.78425 0.13654 0.0
C317 C 0.34325 0.76687 0.1535 0.0
O318 O 0.38142 0.79059 0.10641 0.0
O319 O 0.35282 0.81186 0.10377 0.0
O320 O 0.38882 0.78835 0.17892 0.0
O321 O 0.37088 0.80982 0.15506 0.0
Co322 Co 0.21206 0.38657 0.13994 0.0
O323 O 0.1972 0.41296 0.13893 0.0
O324 O 0.23173 0.40946 0.13345 0.0
C325 C 0.19635 0.37445 0.17448 0.0
O326 O 0.23285 0.36179 0.14087 0.0
Co327 Co 0.18725 0.34428 0.13508 0.0
O328 O 0.21382 0.33249 0.14878 0.0
C329 C 0.19493 0.3704 0.09084 0.0
C330 C 0.21534 0.42187 0.13486 0.0
C331 C 0.23143 0.34217 0.14706 0.0
O332 O 0.20713 0.38261 0.10343 0.0
O333 O 0.18445 0.35515 0.10045 0.0
O334 O 0.21219 0.38748 0.17602 0.0
O335 O 0.18945 0.37084 0.15246 0.0
Co336 Co 0.38571 0.21056 0.13705 0.0
O337 O 0.41284 0.19714 0.13615 0.0
O338 O 0.40762 0.23154 0.13136 0.0
C339 C 0.3737 0.19408 0.1712 0.0
O340 O 0.35981 0.22982 0.1377 0.0
Co341 Co 0.34552 0.18274 0.13048 0.0
O342 O 0.3309 0.20917 0.14041 0.0
C343 C 0.37285 0.19154 0.0878 0.0
C344 C 0.42079 0.21573 0.13224 0.0
C345 C 0.33972 0.22732 0.1406 0.0
O346 O 0.38262 0.20576 0.10038 0.0
O347 O 0.35898 0.17917 0.09718 0.0
O348 O 0.38581 0.21059 0.17316 0.0
O349 O 0.37121 0.18695 0.14908 0.0
Co350 Co 0.78983 0.38593 0.14033 0.0
O351 O 0.80319 0.41308 0.13955 0.0
O352 O 0.76892 0.40781 0.13393 0.0
C353 C 0.80603 0.37452 0.17493 0.0
O354 O 0.77057 0.35995 0.14106 0.0
Co355 Co 0.81776 0.34555 0.13508 0.0
O356 O 0.79134 0.33127 0.14533 0.0
C357 C 0.80789 0.371 0.091 0.0
C358 C 0.78463 0.42106 0.13555 0.0
C359 C 0.77314 0.33995 0.14466 0.0
O360 O 0.79498 0.38237 0.10374 0.0
O361 O 0.81962 0.35667 0.10055 0.0
O362 O 0.78951 0.38666 0.17645 0.0
O363 O 0.81328 0.37154 0.15295 0.0
Co364 Co 0.61575 0.78979 0.14052 0.0
O365 O 0.58876 0.80349 0.13876 0.0
O366 O 0.59384 0.76904 0.1341 0.0
C367 C 0.62699 0.80623 0.17503 0.0
O368 O 0.64138 0.77015 0.14183 0.0
Co369 Co 0.65688 0.81642 0.13585 0.0
O370 O 0.67011 0.79026 0.14883 0.0
C371 C 0.63136 0.80739 0.09147 0.0
C372 C 0.58079 0.78494 0.13456 0.0
C373 C 0.66108 0.77228 0.14737 0.0
O374 O 0.61975 0.79463 0.10405 0.0
O375 O 0.64601 0.81867 0.10112 0.0
O376 O 0.61473 0.78979 0.17659 0.0
O377 O 0.63028 0.81323 0.15299 0.0
Co378 Co 0.21006 0.6155 0.1407 0.0
O379 O 0.19616 0.58877 0.13677 0.0
O380 O 0.23082 0.59357 0.13449 0.0
C381 C 0.19232 0.62578 0.17474 0.0
O382 O 0.22998 0.64069 0.1446 0.0
Co383 Co 0.18417 0.65719 0.13663 0.0
O384 O 0.21027 0.66986 0.15042 0.0
C385 C 0.19511 0.63346 0.0915 0.0
C386 C 0.2148 0.58069 0.13348 0.0
C387 C 0.22809 0.66044 0.15004 0.0
O388 O 0.20695 0.62096 0.10417 0.0
O389 O 0.18362 0.64788 0.10126 0.0
O390 O 0.20847 0.61318 0.17663 0.0
O391 O 0.18629 0.62994 0.15251 0.0
Co392 Co 0.38645 0.7879 0.85855 0.0
O393 O 0.41394 0.80036 0.8612 0.0
O394 O 0.40743 0.76605 0.86455 0.0
C395 C 0.37613 0.80549 0.8244 0.0
O396 O 0.36 0.76957 0.85603 0.0
Co397 Co 0.34685 0.81683 0.86396 0.0
O398 O 0.33186 0.79114 0.85236 0.0
C399 C 0.37179 0.80565 0.90792 0.0
C400 C 0.42113 0.78141 0.86479 0.0
C401 C 0.34014 0.77274 0.85216 0.0
O402 O 0.38211 0.7919 0.8952 0.0
O403 O 0.35849 0.81852 0.89835 0.0
O404 O 0.38786 0.78869 0.82249 0.0
O405 O 0.37311 0.81222 0.8466 0.0
Co406 Co 0.21263 0.38543 0.85664 0.0
O407 O 0.19981 0.41272 0.85448 0.0
O408 O 0.23372 0.40731 0.86238 0.0
C409 C 0.19745 0.37218 0.8223 0.0
O410 O 0.23116 0.35906 0.85905 0.0
Co411 Co 0.18306 0.34655 0.86411 0.0
O412 O 0.20958 0.33074 0.85773 0.0
C413 C 0.19166 0.37495 0.90583 0.0
C414 C 0.21829 0.42065 0.85898 0.0
C415 C 0.22802 0.33894 0.85794 0.0
O416 O 0.20613 0.38424 0.89311 0.0
O417 O 0.17926 0.36095 0.89678 0.0
O418 O 0.21439 0.38373 0.82062 0.0
O419 O 0.18927 0.37096 0.84406 0.0
Co420 Co 0.61464 0.20989 0.8564 0.0
O421 O 0.58739 0.19677 0.85781 0.0
O422 O 0.59297 0.23114 0.86218 0.0
C423 C 0.62608 0.19301 0.82221 0.0
O424 O 0.64081 0.22881 0.85526 0.0
Co425 Co 0.6545 0.18155 0.86268 0.0
O426 O 0.66943 0.20775 0.85262 0.0
C427 C 0.62805 0.1914 0.90583 0.0
C428 C 0.57964 0.21546 0.86162 0.0
C429 C 0.66087 0.22602 0.85237 0.0
O430 O 0.61807 0.20538 0.89309 0.0
O431 O 0.64173 0.17881 0.89645 0.0
O432 O 0.61416 0.20966 0.8203 0.0
O433 O 0.62872 0.186 0.84436 0.0
Co434 Co 0.79066 0.6155 0.85185 0.0
O435 O 0.80391 0.58826 0.85158 0.0
O436 O 0.76977 0.59364 0.85811 0.0
C437 C 0.80655 0.62757 0.81732 0.0
O438 O 0.77132 0.64136 0.85236 0.0
Co439 Co 0.81785 0.65622 0.85713 0.0
O440 O 0.79155 0.66999 0.84532 0.0
C441 C 0.80914 0.62991 0.90105 0.0
C442 C 0.78536 0.58033 0.85591 0.0
C443 C 0.77351 0.66113 0.84723 0.0
O444 O 0.79641 0.61831 0.88837 0.0
O445 O 0.8202 0.6448 0.89155 0.0
O446 O 0.7898 0.61573 0.81573 0.0
O447 O 0.81401 0.63009 0.83928 0.0
H448 H 0.23215 0.15599 0.37182 0.0
H449 H 0.26093 0.18554 0.30842 0.0
H450 H 0.2032 0.1817 0.37027 0.0
H451 H 0.23167 0.21045 0.30596 0.0
H452 H 0.20202 0.27027 0.33619 0.0
H453 H 0.22467 0.23996 0.33147 0.0
H454 H 0.17276 0.19854 0.35026 0.0
H455 H 0.14978 0.22946 0.35577 0.0
C456 C 0.23187 0.16755 0.35708 0.0
C457 C 0.24888 0.16909 0.34049 0.0
C458 C 0.21528 0.18224 0.35612 0.0
C459 C 0.21536 0.19848 0.33834 0.0
C460 C 0.23144 0.19859 0.32037 0.0
C461 C 0.24814 0.18425 0.32165 0.0
C462 C 0.19523 0.25477 0.33924 0.0
C463 C 0.17402 0.2524 0.34652 0.0
C464 C 0.20826 0.23725 0.33623 0.0
C465 C 0.20054 0.21671 0.3402 0.0
C466 C 0.17922 0.21417 0.34713 0.0
C467 C 0.16605 0.23186 0.35018 0.0
H468 H 0.771 0.15812 0.37166 0.0
H469 H 0.73718 0.19091 0.31407 0.0
H470 H 0.79959 0.18415 0.36896 0.0
H471 H 0.76598 0.21619 0.31042 0.0
H472 H 0.7992 0.27423 0.34024 0.0
H473 H 0.77571 0.24444 0.33644 0.0
H474 H 0.82822 0.20162 0.34677 0.0
H475 H 0.85205 0.23192 0.35144 0.0
C476 C 0.77 0.17054 0.35796 0.0
C477 C 0.75176 0.1728 0.3434 0.0
C478 C 0.78638 0.18541 0.35632 0.0
C479 C 0.78487 0.20256 0.33985 0.0
C480 C 0.76738 0.2036 0.32386 0.0
C481 C 0.75091 0.18906 0.32584 0.0
C482 C 0.80593 0.25853 0.34157 0.0
C483 C 0.8276 0.25556 0.34627 0.0
C484 C 0.79239 0.24133 0.33912 0.0
C485 C 0.80004 0.22054 0.34105 0.0
C486 C 0.82178 0.21743 0.34532 0.0
C487 C 0.83545 0.23479 0.34786 0.0
H488 H 0.84441 0.76862 0.36608 0.0
H489 H 0.80162 0.73013 0.32315 0.0
H490 H 0.81812 0.79711 0.36673 0.0
H491 H 0.77584 0.75855 0.32317 0.0
H492 H 0.72453 0.79686 0.35901 0.0
H493 H 0.75336 0.77203 0.35522 0.0
H494 H 0.79705 0.82349 0.34317 0.0
H495 H 0.76788 0.84881 0.34756 0.0
C496 C 0.8296 0.76642 0.35637 0.0
C497 C 0.82491 0.74701 0.34495 0.0
C498 C 0.81457 0.78274 0.35669 0.0
C499 C 0.79471 0.77993 0.34545 0.0
C500 C 0.79073 0.76102 0.33263 0.0
C501 C 0.80556 0.74474 0.33253 0.0
C502 C 0.74021 0.80304 0.35545 0.0
C503 C 0.74379 0.8249 0.35336 0.0
C504 C 0.75679 0.78871 0.35313 0.0
C505 C 0.77747 0.79572 0.34844 0.0
C506 C 0.78127 0.8176 0.34678 0.0
C507 C 0.76456 0.83207 0.34922 0.0
H508 H 0.14988 0.7707 0.35075 0.0
H509 H 0.20219 0.72709 0.34353 0.0
H510 H 0.17445 0.8004 0.34613 0.0
H511 H 0.2264 0.75636 0.33964 0.0
H512 H 0.26616 0.80853 0.31544 0.0
H513 H 0.23697 0.78364 0.31221 0.0
H514 H 0.20305 0.818 0.36869 0.0
H515 H 0.23209 0.84354 0.37107 0.0
C516 C 0.16654 0.76741 0.34812 0.0
C517 C 0.174 0.74644 0.34751 0.0
C518 C 0.18061 0.78443 0.34557 0.0
C519 C 0.20239 0.7808 0.34227 0.0
C520 C 0.2097 0.75983 0.34153 0.0
C521 C 0.19575 0.74295 0.34402 0.0
C522 C 0.25227 0.81101 0.32679 0.0
C523 C 0.25149 0.82776 0.34374 0.0
C524 C 0.23559 0.79668 0.32508 0.0
C525 C 0.21789 0.79847 0.34067 0.0
C526 C 0.21642 0.81615 0.35639 0.0
C527 C 0.23306 0.83076 0.35781 0.0
H528 H 0.20495 0.72551 0.64065 0.0
H529 H 0.15163 0.76783 0.64831 0.0
H530 H 0.22895 0.75492 0.64454 0.0
H531 H 0.17619 0.79771 0.65274 0.0
H532 H 0.23203 0.84479 0.62907 0.0
H533 H 0.20345 0.81853 0.62901 0.0
H534 H 0.24056 0.77845 0.67687 0.0
H535 H 0.26908 0.80415 0.6763 0.0
C536 C 0.19826 0.7411 0.6434 0.0
C537 C 0.17626 0.74419 0.64443 0.0
C538 C 0.21213 0.75802 0.64578 0.0
C539 C 0.20453 0.77863 0.64946 0.0
C540 C 0.18252 0.78198 0.64999 0.0
C541 C 0.16848 0.76488 0.64752 0.0
C542 C 0.23385 0.8305 0.63989 0.0
C543 C 0.25293 0.82631 0.6523 0.0
C544 C 0.21749 0.81551 0.6399 0.0
C545 C 0.21994 0.7962 0.65249 0.0
C546 C 0.2384 0.79289 0.6664 0.0
C547 C 0.25473 0.80765 0.66616 0.0
H548 H 0.22994 0.15606 0.62404 0.0
H549 H 0.26615 0.19329 0.67574 0.0
H550 H 0.20149 0.18235 0.62549 0.0
H551 H 0.23763 0.21898 0.67796 0.0
H552 H 0.20263 0.27435 0.64521 0.0
H553 H 0.22661 0.24487 0.6486 0.0
H554 H 0.17384 0.20149 0.64881 0.0
H555 H 0.1494 0.23142 0.64478 0.0
C556 C 0.23156 0.16956 0.63618 0.0
C557 C 0.25039 0.17287 0.64941 0.0
C558 C 0.21526 0.18459 0.63707 0.0
C559 C 0.21749 0.20301 0.65141 0.0
C560 C 0.23566 0.20531 0.66614 0.0
C561 C 0.25197 0.19054 0.66497 0.0
C562 C 0.19595 0.2586 0.64606 0.0
C563 C 0.17398 0.25535 0.64479 0.0
C564 C 0.2098 0.24162 0.64823 0.0
C565 C 0.20217 0.22079 0.64938 0.0
C566 C 0.18021 0.21736 0.64795 0.0
C567 C 0.16623 0.2345 0.64571 0.0
H568 H 0.73608 0.1884 0.68707 0.0
H569 H 0.76962 0.15688 0.62826 0.0
H570 H 0.76487 0.21368 0.69117 0.0
H571 H 0.79813 0.18289 0.6314 0.0
H572 H 0.85025 0.23072 0.64819 0.0
H573 H 0.82678 0.2002 0.65317 0.0
H574 H 0.77421 0.24248 0.66591 0.0
H575 H 0.79739 0.27251 0.66181 0.0
C576 C 0.74978 0.18679 0.67519 0.0
C577 C 0.75054 0.17091 0.65713 0.0
C578 C 0.76622 0.20134 0.6774 0.0
C579 C 0.78358 0.2007 0.66117 0.0
C580 C 0.78504 0.18386 0.64425 0.0
C581 C 0.7687 0.16898 0.64237 0.0
C582 C 0.83372 0.23343 0.65237 0.0
C583 C 0.82574 0.25412 0.65451 0.0
C584 C 0.82026 0.21594 0.6551 0.0
C585 C 0.7986 0.21882 0.66009 0.0
C586 C 0.79084 0.23953 0.66265 0.0
C587 C 0.80419 0.25687 0.66002 0.0
H588 H 0.81222 0.73721 0.68067 0.0
H589 H 0.84409 0.77018 0.6217 0.0
H590 H 0.78674 0.76588 0.684 0.0
H591 H 0.8179 0.79866 0.62419 0.0
H592 H 0.76951 0.85104 0.64234 0.0
H593 H 0.80021 0.82758 0.64643 0.0
H594 H 0.75821 0.77452 0.65734 0.0
H595 H 0.72803 0.7976 0.65397 0.0
C596 C 0.81387 0.75076 0.66859 0.0
C597 C 0.82989 0.75137 0.65069 0.0
C598 C 0.79921 0.76714 0.67037 0.0
C599 C 0.79991 0.78431 0.6539 0.0
C600 C 0.8169 0.78568 0.63717 0.0
C601 C 0.83187 0.76937 0.63568 0.0
C602 C 0.76691 0.83438 0.64582 0.0
C603 C 0.74625 0.82626 0.64783 0.0
C604 C 0.78449 0.82095 0.64807 0.0
C605 C 0.78171 0.79919 0.65249 0.0
C606 C 0.76105 0.79124 0.65457 0.0
C607 C 0.74363 0.80454 0.65237 0.0
H608 H 0.70417 0.7745 0.85945 0.0
H609 H 0.65217 0.73077 0.85039 0.0
H610 H 0.72906 0.7458 0.85521 0.0
H611 H 0.67757 0.70169 0.84565 0.0
H612 H 0.73409 0.65538 0.86764 0.0
H613 H 0.70514 0.68118 0.86886 0.0
H614 H 0.74144 0.72314 0.82235 0.0
H615 H 0.77031 0.69785 0.82171 0.0
C616 C 0.69797 0.75875 0.85639 0.0
C617 C 0.67608 0.75505 0.85503 0.0
C618 C 0.71234 0.74225 0.8538 0.0
C619 C 0.70533 0.7215 0.84961 0.0
C620 C 0.68344 0.71754 0.84882 0.0
C621 C 0.66892 0.73419 0.85149 0.0
C622 C 0.73567 0.66999 0.85738 0.0
C623 C 0.75462 0.67479 0.84497 0.0
C624 C 0.7191 0.68473 0.85804 0.0
C625 C 0.72119 0.70439 0.84615 0.0
C626 C 0.73956 0.7084 0.8323 0.0
C627 C 0.75609 0.69387 0.83185 0.0
H628 H 0.26975 0.65576 0.86843 0.0
H629 H 0.2338 0.69222 0.81578 0.0
H630 H 0.29821 0.68194 0.86661 0.0
H631 H 0.26242 0.71779 0.81307 0.0
H632 H 0.29743 0.77364 0.84579 0.0
H633 H 0.27343 0.74426 0.8412 0.0
H634 H 0.32593 0.7006 0.84417 0.0
H635 H 0.35028 0.73036 0.84956 0.0
C636 C 0.26822 0.66905 0.85595 0.0
C637 C 0.24946 0.67221 0.84258 0.0
C638 C 0.28454 0.68402 0.85484 0.0
C639 C 0.28241 0.70223 0.8401 0.0
C640 C 0.26432 0.70432 0.8252 0.0
C641 C 0.24796 0.68961 0.82662 0.0
C642 C 0.30403 0.75784 0.84533 0.0
C643 C 0.32587 0.75444 0.8481 0.0
C644 C 0.29019 0.74091 0.84246 0.0
C645 C 0.29773 0.72001 0.84203 0.0
C646 C 0.3196 0.7165 0.84454 0.0
C647 C 0.33355 0.73355 0.84753 0.0
H648 H 0.34668 0.26651 0.86778 0.0
H649 H 0.3021 0.22914 0.82595 0.0
H650 H 0.321 0.29561 0.86928 0.0
H651 H 0.27692 0.25805 0.82706 0.0
H652 H 0.22735 0.29649 0.86536 0.0
H653 H 0.25612 0.27154 0.86175 0.0
H654 H 0.29925 0.3224 0.84467 0.0
H655 H 0.2701 0.3479 0.84865 0.0
C656 C 0.33162 0.26466 0.85851 0.0
C657 C 0.32625 0.24538 0.84716 0.0
C658 C 0.31695 0.28132 0.85934 0.0
C659 C 0.29679 0.27893 0.84875 0.0
C660 C 0.29211 0.26017 0.83598 0.0
C661 C 0.30659 0.24361 0.83528 0.0
C662 C 0.2429 0.30252 0.86079 0.0
C663 C 0.2463 0.32424 0.85695 0.0
C664 C 0.25942 0.28813 0.85862 0.0
C665 C 0.27987 0.29493 0.85241 0.0
C666 C 0.28361 0.31671 0.8494 0.0
C667 C 0.26693 0.33127 0.85164 0.0
H668 H 0.65035 0.2684 0.84999 0.0
H669 H 0.70376 0.22573 0.84808 0.0
H670 H 0.67456 0.29847 0.8457 0.0
H671 H 0.72755 0.25536 0.84452 0.0
H672 H 0.76681 0.3076 0.81843 0.0
H673 H 0.73856 0.28164 0.81601 0.0
H674 H 0.70199 0.3177 0.86865 0.0
H675 H 0.73016 0.34428 0.87025 0.0
C676 C 0.66717 0.2654 0.84863 0.0
C677 C 0.67504 0.24458 0.8493 0.0
C678 C 0.68104 0.28263 0.84627 0.0
C679 C 0.703 0.27935 0.84448 0.0
C680 C 0.71073 0.25854 0.8452 0.0
C681 C 0.697 0.24145 0.84747 0.0
C682 C 0.75259 0.31016 0.82919 0.0
C683 C 0.75081 0.32778 0.8448 0.0
C684 C 0.73643 0.29523 0.82792 0.0
C685 C 0.71821 0.29727 0.84262 0.0
C686 C 0.7158 0.31563 0.85707 0.0
C687 C 0.73193 0.33083 0.85804 0.0
H688 H 0.65667 0.26815 0.12401 0.0
H689 H 0.69169 0.23484 0.18025 0.0
H690 H 0.68246 0.2971 0.12562 0.0
H691 H 0.71679 0.26386 0.18262 0.0
H692 H 0.7306 0.35037 0.14463 0.0
H693 H 0.70049 0.32607 0.14861 0.0
H694 H 0.74384 0.27349 0.15393 0.0
H695 H 0.77341 0.29728 0.15064 0.0
C696 C 0.66954 0.26731 0.13717 0.0
C697 C 0.67247 0.24912 0.15166 0.0
C698 C 0.68427 0.28389 0.13815 0.0
C699 C 0.70196 0.28256 0.15385 0.0
C700 C 0.70371 0.26511 0.16979 0.0
C701 C 0.68929 0.24851 0.16852 0.0
C702 C 0.73362 0.33363 0.14685 0.0
C703 C 0.75449 0.32587 0.14745 0.0
C704 C 0.71639 0.31972 0.14903 0.0
C705 C 0.71975 0.29786 0.15195 0.0
C706 C 0.7406 0.29025 0.1524 0.0
C707 C 0.75766 0.304 0.15029 0.0
H708 H 0.77508 0.70401 0.1395 0.0
H709 H 0.73146 0.65148 0.1439 0.0
H710 H 0.74611 0.72852 0.14407 0.0
H711 H 0.7021 0.67647 0.14907 0.0
H712 H 0.65614 0.73295 0.12659 0.0
H713 H 0.68213 0.70418 0.12631 0.0
H714 H 0.72206 0.74021 0.17548 0.0
H715 H 0.69661 0.76897 0.17509 0.0
C716 C 0.7593 0.6976 0.14167 0.0
C717 C 0.7557 0.67567 0.14148 0.0
C718 C 0.74263 0.71175 0.14448 0.0
C719 C 0.72179 0.70449 0.14737 0.0
C720 C 0.71799 0.68256 0.14689 0.0
C721 C 0.73481 0.66827 0.144 0.0
C722 C 0.67032 0.73449 0.13766 0.0
C723 C 0.67455 0.75334 0.15049 0.0
C724 C 0.68518 0.71801 0.13754 0.0
C725 C 0.70439 0.72011 0.15043 0.0
C726 C 0.70772 0.73833 0.16476 0.0
C727 C 0.69308 0.75479 0.16464 0.0
H728 H 0.27004 0.64883 0.14587 0.0
H729 H 0.2296 0.70147 0.16504 0.0
H730 H 0.30112 0.67151 0.1512 0.0
H731 H 0.26017 0.72392 0.16955 0.0
H732 H 0.31523 0.76032 0.19039 0.0
H733 H 0.29006 0.73138 0.19413 0.0
H734 H 0.31797 0.70115 0.13038 0.0
H735 H 0.34393 0.72978 0.12755 0.0
C736 C 0.26776 0.66513 0.15139 0.0
C737 C 0.24727 0.67331 0.15491 0.0
C738 C 0.28556 0.67814 0.15432 0.0
C739 C 0.28321 0.69953 0.16094 0.0
C740 C 0.26272 0.70745 0.16498 0.0
C741 C 0.24507 0.69454 0.16211 0.0
C742 C 0.3163 0.74719 0.17758 0.0
C743 C 0.33129 0.74734 0.15851 0.0
C744 C 0.3018 0.73069 0.17958 0.0
C745 C 0.30159 0.71422 0.16213 0.0
C746 C 0.31768 0.71355 0.14416 0.0
C747 C 0.33253 0.72995 0.14248 0.0
H748 H 0.26935 0.34483 0.12253 0.0
H749 H 0.23678 0.31049 0.17992 0.0
H750 H 0.29791 0.31857 0.12331 0.0
H751 H 0.26541 0.28487 0.18138 0.0
H752 H 0.35071 0.26962 0.14058 0.0
H753 H 0.32704 0.30006 0.14552 0.0
H754 H 0.27385 0.25759 0.1522 0.0
H755 H 0.29713 0.2276 0.14786 0.0
C756 C 0.26863 0.33204 0.1358 0.0
C757 C 0.25073 0.32944 0.15086 0.0
C758 C 0.28497 0.31703 0.13628 0.0
C759 C 0.28368 0.29935 0.152 0.0
C760 C 0.2666 0.29794 0.16854 0.0
C761 C 0.25025 0.31267 0.16781 0.0
C762 C 0.33397 0.26684 0.14327 0.0
C763 C 0.32589 0.2461 0.14389 0.0
C764 C 0.32042 0.28428 0.14601 0.0
C765 C 0.29859 0.28127 0.14956 0.0
C766 C 0.29063 0.26054 0.15011 0.0
C767 C 0.30405 0.24325 0.14739 0.0
H768 H 0.94673 0.2515 0.35368 0.0
H769 H 0.94862 0.31463 0.3838 0.0
H770 H 0.9855 0.24996 0.35499 0.0
H771 H 0.9869 0.31284 0.38622 0.0
H772 H 0.05176 0.31686 0.35316 0.0
H773 H 0.01369 0.31476 0.35596 0.0
H774 H 0.01827 0.24951 0.37906 0.0
H775 H 0.05693 0.25148 0.37537 0.0
C776 C 0.95543 0.26483 0.36107 0.0
C777 C 0.94477 0.28332 0.36823 0.0
C778 C 0.97759 0.26394 0.36191 0.0
C779 C 0.98936 0.28146 0.37021 0.0
C780 C 0.97843 0.29932 0.37896 0.0
C781 C 0.95646 0.30032 0.37773 0.0
C782 C 0.04475 0.30204 0.35894 0.0
C783 C 0.05739 0.28438 0.36421 0.0
C784 C 0.02283 0.30087 0.36073 0.0
C785 C 0.01284 0.28206 0.36816 0.0
C786 C 0.02545 0.26423 0.37323 0.0
C787 C 0.04756 0.26537 0.37123 0.0
H788 H 0.75366 0.05617 0.37418 0.0
H789 H 0.68868 0.051 0.35033 0.0
H790 H 0.75561 0.01746 0.37767 0.0
H791 H 0.69078 0.01295 0.35299 0.0
H792 H 0.68966 0.94866 0.38232 0.0
H793 H 0.69215 0.98687 0.38443 0.0
H794 H 0.75508 0.98417 0.35342 0.0
H795 H 0.75283 0.94536 0.3524 0.0
C796 C 0.73987 0.0468 0.36963 0.0
C797 C 0.72094 0.05664 0.36229 0.0
C798 C 0.74101 0.02467 0.37152 0.0
C799 C 0.72323 0.0121 0.36604 0.0
C800 C 0.70459 0.02209 0.3581 0.0
C801 C 0.70342 0.04399 0.35642 0.0
C802 C 0.70415 0.95619 0.37623 0.0
C803 C 0.72092 0.94413 0.36683 0.0
C804 C 0.70555 0.97811 0.3773 0.0
C805 C 0.72359 0.98866 0.36845 0.0
C806 C 0.74095 0.97654 0.36034 0.0
C807 C 0.73966 0.95437 0.35968 0.0
H808 H 0.05428 0.75416 0.35062 0.0
H809 H 0.05107 0.6915 0.38191 0.0
H810 H 0.01542 0.75607 0.35079 0.0
H811 H 0.01277 0.69365 0.383 0.0
H812 H 0.95006 0.68878 0.34539 0.0
H813 H 0.98798 0.69175 0.3494 0.0
H814 H 0.98132 0.7561 0.37499 0.0
H815 H 0.94271 0.75325 0.37034 0.0
C816 C 0.04528 0.74106 0.35806 0.0
C817 C 0.05557 0.72252 0.3658 0.0
C818 C 0.02309 0.74215 0.35822 0.0
C819 C 0.01101 0.7248 0.36636 0.0
C820 C 0.02156 0.70703 0.37589 0.0
C821 C 0.04352 0.70582 0.37538 0.0
C822 C 0.95655 0.70361 0.35193 0.0
C823 C 0.94333 0.72071 0.35779 0.0
C824 C 0.97836 0.70527 0.35438 0.0
C825 C 0.98769 0.72402 0.36302 0.0
C826 C 0.97458 0.74143 0.36835 0.0
C827 C 0.95253 0.73978 0.36576 0.0
H828 H 0.25191 0.94425 0.35658 0.0
H829 H 0.31645 0.94626 0.38238 0.0
H830 H 0.25069 0.98293 0.35674 0.0
H831 H 0.31502 0.98461 0.38371 0.0
H832 H 0.31702 0.04962 0.35015 0.0
H833 H 0.31562 0.01155 0.35397 0.0
H834 H 0.25096 0.01564 0.37953 0.0
H835 H 0.25219 0.05415 0.3747 0.0
C836 C 0.26567 0.95297 0.36276 0.0
C837 C 0.28438 0.94231 0.36912 0.0
C838 C 0.26497 0.97512 0.36296 0.0
C839 C 0.28289 0.98696 0.3698 0.0
C840 C 0.30112 0.97609 0.37759 0.0
C841 C 0.30192 0.95407 0.377 0.0
C842 C 0.30249 0.04247 0.35667 0.0
C843 C 0.28474 0.05492 0.36222 0.0
C844 C 0.30173 0.02057 0.35907 0.0
C845 C 0.28327 0.01043 0.36741 0.0
C846 C 0.2654 0.02288 0.37292 0.0
C847 C 0.26612 0.04494 0.37027 0.0
H848 H 0.05088 0.68518 0.64706 0.0
H849 H 0.05798 0.74882 0.61937 0.0
H850 H 0.0129 0.68803 0.64342 0.0
H851 H 0.01939 0.75151 0.61492 0.0
H852 H 0.94871 0.68753 0.61266 0.0
H853 H 0.98707 0.6886 0.61166 0.0
H854 H 0.98593 0.753 0.63828 0.0
H855 H 0.94712 0.75213 0.63828 0.0
C856 C 0.04431 0.69979 0.63996 0.0
C857 C 0.05748 0.71671 0.63329 0.0
C858 C 0.02246 0.70137 0.63769 0.0
C859 C 0.01304 0.71985 0.6284 0.0
C860 C 0.02614 0.73705 0.62214 0.0
C861 C 0.04821 0.7355 0.6246 0.0
C862 C 0.95662 0.70202 0.61803 0.0
C863 C 0.94497 0.71965 0.62588 0.0
C864 C 0.97863 0.70261 0.6176 0.0
C865 C 0.98963 0.72071 0.62549 0.0
C866 C 0.97796 0.73881 0.63209 0.0
C867 C 0.95576 0.73831 0.63216 0.0
H868 H 0.24853 0.94338 0.62371 0.0
H869 H 0.31287 0.95053 0.64917 0.0
H870 H 0.24587 0.98193 0.61877 0.0
H871 H 0.31007 0.98845 0.64501 0.0
H872 H 0.31027 0.05206 0.61321 0.0
H873 H 0.30875 0.01373 0.61252 0.0
H874 H 0.24524 0.01573 0.64193 0.0
H875 H 0.24654 0.05454 0.64161 0.0
C876 C 0.26201 0.95315 0.62835 0.0
C877 C 0.28098 0.94391 0.63655 0.0
C878 C 0.26048 0.97519 0.6256 0.0
C879 C 0.27788 0.98827 0.63107 0.0
C880 C 0.29656 0.97889 0.6399 0.0
C881 C 0.29811 0.95707 0.64245 0.0
C882 C 0.29587 0.04435 0.61924 0.0
C883 C 0.27864 0.05623 0.62781 0.0
C884 C 0.29502 0.02236 0.61898 0.0
C885 C 0.27707 0.01162 0.62779 0.0
C886 C 0.2593 0.02352 0.63505 0.0
C887 C 0.26005 0.0457 0.63493 0.0
H888 H 0.04886 0.31398 0.64965 0.0
H889 H 0.05499 0.25006 0.62243 0.0
H890 H 0.01086 0.31152 0.64662 0.0
H891 H 0.01626 0.24775 0.61875 0.0
H892 H 0.94402 0.24923 0.64451 0.0
H893 H 0.98283 0.24731 0.64349 0.0
H894 H 0.98509 0.31083 0.61427 0.0
H895 H 0.9468 0.31295 0.6162 0.0
C896 C 0.04208 0.29938 0.64281 0.0
C897 C 0.05499 0.28228 0.63605 0.0
C898 C 0.0202 0.29803 0.64092 0.0
C899 C 0.01049 0.2796 0.63195 0.0
C900 C 0.02329 0.26218 0.62568 0.0
C901 C 0.04542 0.26352 0.62772 0.0
C902 C 0.95291 0.26261 0.63758 0.0
C903 C 0.9425 0.28138 0.63088 0.0
C904 C 0.97508 0.2615 0.63692 0.0
C905 C 0.98707 0.2791 0.62933 0.0
C906 C 0.9764 0.29722 0.62094 0.0
C907 C 0.95443 0.29842 0.62193 0.0
H908 H 0.75164 0.05409 0.64252 0.0
H909 H 0.68786 0.05289 0.61421 0.0
H910 H 0.75265 0.01533 0.64146 0.0
H911 H 0.6891 0.01456 0.61212 0.0
H912 H 0.68493 0.95023 0.64656 0.0
H913 H 0.68759 0.98822 0.64322 0.0
H914 H 0.752 0.98233 0.6174 0.0
H915 H 0.74948 0.94373 0.62153 0.0
C916 C 0.73805 0.04554 0.63558 0.0
C917 C 0.71954 0.05641 0.62886 0.0
C918 C 0.73863 0.02338 0.63488 0.0
C919 C 0.72078 0.01181 0.62721 0.0
C920 C 0.70289 0.02291 0.61887 0.0
C921 C 0.7022 0.0449 0.61993 0.0
C922 C 0.6997 0.95693 0.64009 0.0
C923 C 0.71696 0.94394 0.63415 0.0
C924 C 0.70117 0.97879 0.63799 0.0
C925 C 0.71989 0.98838 0.6296 0.0
C926 C 0.73736 0.97544 0.62394 0.0
C927 C 0.73591 0.95337 0.62621 0.0
H928 H 0.54964 0.81028 0.84726 0.0
H929 H 0.55678 0.74703 0.8762 0.0
H930 H 0.51169 0.80737 0.85066 0.0
H931 H 0.51805 0.74424 0.8801 0.0
H932 H 0.44499 0.74609 0.85429 0.0
H933 H 0.48384 0.74372 0.85475 0.0
H934 H 0.48708 0.80679 0.88513 0.0
H935 H 0.44881 0.80934 0.88388 0.0
C936 C 0.5431 0.79572 0.8545 0.0
C937 C 0.55627 0.77898 0.86177 0.0
C938 C 0.52126 0.7941 0.85657 0.0
C939 C 0.51185 0.77576 0.86618 0.0
C940 C 0.52488 0.75861 0.87273 0.0
C941 C 0.54699 0.76022 0.87056 0.0
C942 C 0.45411 0.75924 0.8614 0.0
C943 C 0.44399 0.77806 0.86859 0.0
C944 C 0.47629 0.75788 0.86172 0.0
C945 C 0.48851 0.77526 0.86943 0.0
C946 C 0.47815 0.79335 0.8784 0.0
C947 C 0.4562 0.7948 0.87777 0.0
H948 H 0.19041 0.44999 0.84328 0.0
H949 H 0.25204 0.44382 0.87691 0.0
H950 H 0.19265 0.48801 0.84658 0.0
H951 H 0.25412 0.48254 0.8808 0.0
H952 H 0.2539 0.55512 0.85617 0.0
H953 H 0.25602 0.51634 0.85628 0.0
H954 H 0.19086 0.51314 0.87997 0.0
H955 H 0.1886 0.55143 0.87907 0.0
C956 C 0.20447 0.45677 0.85152 0.0
C957 C 0.22095 0.44386 0.86011 0.0
C958 C 0.20569 0.47864 0.85356 0.0
C959 C 0.22335 0.48832 0.86448 0.0
C960 C 0.24027 0.47552 0.87238 0.0
C961 C 0.23908 0.45341 0.8702 0.0
C962 C 0.24017 0.54604 0.8617 0.0
C963 C 0.22097 0.55623 0.86718 0.0
C964 C 0.2414 0.52388 0.86183 0.0
C965 C 0.22347 0.51167 0.86761 0.0
C966 C 0.20478 0.52205 0.87473 0.0
C967 C 0.2035 0.54402 0.87433 0.0
H968 H 0.44393 0.24864 0.8726 0.0
H969 H 0.45033 0.18498 0.8447 0.0
H970 H 0.48261 0.25113 0.87633 0.0
H971 H 0.48837 0.18762 0.84771 0.0
H972 H 0.55231 0.18631 0.87888 0.0
H973 H 0.51402 0.18809 0.88002 0.0
H974 H 0.5162 0.25206 0.85214 0.0
H975 H 0.55506 0.25046 0.85193 0.0
C976 C 0.45356 0.23527 0.86716 0.0
C977 C 0.44408 0.21652 0.85865 0.0
C978 C 0.47567 0.23671 0.86921 0.0
C979 C 0.48858 0.21943 0.86274 0.0
C980 C 0.47895 0.20102 0.85356 0.0
C981 C 0.45706 0.19954 0.85169 0.0
C982 C 0.54466 0.20086 0.87324 0.0
C983 C 0.55662 0.21813 0.86495 0.0
C984 C 0.52268 0.20186 0.87377 0.0
C985 C 0.51199 0.22002 0.86555 0.0
C986 C 0.52396 0.23782 0.85855 0.0
C987 C 0.54616 0.23691 0.85836 0.0
H988 H 0.81051 0.44862 0.88056 0.0
H989 H 0.74693 0.44692 0.85168 0.0
H990 H 0.80941 0.48694 0.88142 0.0
H991 H 0.74604 0.48577 0.8516 0.0
H992 H 0.75017 0.55798 0.87094 0.0
H993 H 0.74703 0.51943 0.87535 0.0
H994 H 0.81111 0.51235 0.84891 0.0
H995 H 0.81438 0.55029 0.84522 0.0
C996 C 0.79623 0.4565 0.87447 0.0
C997 C 0.77892 0.44484 0.86571 0.0
C998 C 0.79563 0.47849 0.87482 0.0
C999 C 0.77785 0.48946 0.86596 0.0
C1000 C 0.75999 0.47779 0.85852 0.0
C1001 C 0.76049 0.45559 0.85851 0.0
C1002 C 0.76353 0.54809 0.86614 0.0
C1003 C 0.7826 0.55718 0.858 0.0
C1004 C 0.76171 0.52605 0.86858 0.0
C1005 C 0.77894 0.51282 0.86289 0.0
C1006 C 0.79772 0.52204 0.85415 0.0
C1007 C 0.79956 0.54387 0.85187 0.0
H1008 H 0.44547 0.25066 0.14163 0.0
H1009 H 0.44804 0.18624 0.11553 0.0
H1010 H 0.48429 0.25221 0.14123 0.0
H1011 H 0.48633 0.18798 0.11407 0.0
H1012 H 0.55073 0.18545 0.14777 0.0
H1013 H 0.51264 0.18762 0.14509 0.0
H1014 H 0.51743 0.25151 0.11739 0.0
H1015 H 0.55611 0.24953 0.12095 0.0
C1016 C 0.45433 0.23702 0.13536 0.0
C1017 C 0.44383 0.21821 0.12904 0.0
C1018 C 0.47652 0.23791 0.13505 0.0
C1019 C 0.48846 0.22005 0.12814 0.0
C1020 C 0.47771 0.2018 0.12028 0.0
C1021 C 0.45573 0.20082 0.12097 0.0
C1022 C 0.54376 0.19999 0.14103 0.0
C1023 C 0.55646 0.21725 0.13435 0.0
C1024 C 0.52184 0.20119 0.13933 0.0
C1025 C 0.51191 0.21961 0.13056 0.0
C1026 C 0.52457 0.23711 0.12424 0.0
C1027 C 0.54669 0.23595 0.12617 0.0
H1028 H 0.81141 0.55233 0.1116 0.0
H1029 H 0.74798 0.55513 0.14085 0.0
H1030 H 0.80953 0.51405 0.11036 0.0
H1031 H 0.74632 0.51626 0.14058 0.0
H1032 H 0.74956 0.4438 0.12062 0.0
H1033 H 0.74678 0.48244 0.1165 0.0
H1034 H 0.81089 0.48875 0.14305 0.0
H1035 H 0.81381 0.4508 0.14643 0.0
C1036 C 0.79699 0.54469 0.1177 0.0
C1037 C 0.77997 0.55663 0.12669 0.0
C1038 C 0.79594 0.52273 0.11711 0.0
C1039 C 0.77799 0.51205 0.126 0.0
C1040 C 0.76038 0.52402 0.13365 0.0
C1041 C 0.76133 0.54622 0.13387 0.0
C1042 C 0.763 0.45355 0.12549 0.0
C1043 C 0.78199 0.44424 0.13353 0.0
C1044 C 0.76139 0.47563 0.12322 0.0
C1045 C 0.77875 0.48867 0.129 0.0
C1046 C 0.79742 0.47922 0.13771 0.0
C1047 C 0.79905 0.45737 0.1398 0.0
H1048 H 0.45027 0.81556 0.1445 0.0
H1049 H 0.4461 0.74992 0.12308 0.0
H1050 H 0.48839 0.81397 0.1418 0.0
H1051 H 0.48472 0.74848 0.11932 0.0
H1052 H 0.5558 0.75049 0.14449 0.0
H1053 H 0.51707 0.749 0.14294 0.0
H1054 H 0.51585 0.81234 0.11295 0.0
H1055 H 0.55411 0.81409 0.11578 0.0
C1056 C 0.45752 0.80081 0.13885 0.0
C1057 C 0.44515 0.78289 0.13389 0.0
C1058 C 0.47946 0.79993 0.13711 0.0
C1059 C 0.48973 0.78117 0.12998 0.0
C1060 C 0.47736 0.76315 0.12499 0.0
C1061 C 0.45525 0.76399 0.12701 0.0
C1062 C 0.54714 0.76395 0.13737 0.0
C1063 C 0.55784 0.78253 0.13067 0.0
C1064 C 0.52499 0.76309 0.13638 0.0
C1065 C 0.51325 0.78072 0.12831 0.0
C1066 C 0.52425 0.79872 0.12006 0.0
C1067 C 0.54621 0.7997 0.12152 0.0
H1068 H 0.24965 0.44596 0.12094 0.0
H1069 H 0.18444 0.45037 0.14414 0.0
H1070 H 0.25118 0.48461 0.11737 0.0
H1071 H 0.18612 0.48847 0.14148 0.0
H1072 H 0.18566 0.55395 0.11459 0.0
H1073 H 0.18745 0.51568 0.11185 0.0
H1074 H 0.25088 0.51703 0.14157 0.0
H1075 H 0.24933 0.55573 0.14319 0.0
C1076 C 0.2357 0.45516 0.12531 0.0
C1077 C 0.21688 0.44512 0.13262 0.0
C1078 C 0.23659 0.47727 0.12338 0.0
C1079 C 0.21869 0.48968 0.12882 0.0
C1080 C 0.20005 0.47949 0.13645 0.0
C1081 C 0.19912 0.45756 0.13817 0.0
C1082 C 0.20008 0.5461 0.12027 0.0
C1083 C 0.21725 0.55775 0.12942 0.0
C1084 C 0.20109 0.52413 0.11886 0.0
C1085 C 0.21913 0.51318 0.12706 0.0
C1086 C 0.23676 0.52493 0.13506 0.0
C1087 C 0.23586 0.54707 0.13608 0.0
H1088 H 0.09858 0.29116 0.4339 0.0
H1089 H 0.15707 0.32612 0.44042 0.0
H1090 H 0.09377 0.29334 0.4786 0.0
H1091 H 0.15262 0.32769 0.48472 0.0
H1092 H 0.13386 0.34312 0.56109 0.0
H1093 H 0.13224 0.34365 0.51627 0.0
H1094 H 0.10839 0.2796 0.51636 0.0
H1095 H 0.10925 0.27941 0.56138 0.0
C1096 C 0.11042 0.29926 0.44482 0.0
C1097 C 0.1282 0.3085 0.43352 0.0
C1098 C 0.10769 0.30045 0.47045 0.0
C1099 C 0.12272 0.31082 0.48529 0.0
C1100 C 0.14044 0.32002 0.47389 0.0
C1101 C 0.14309 0.31897 0.44839 0.0
C1102 C 0.12801 0.32924 0.55157 0.0
C1103 C 0.12195 0.31112 0.56477 0.0
C1104 C 0.12719 0.32949 0.52584 0.0
C1105 C 0.1206 0.31151 0.51264 0.0
C1106 C 0.11346 0.29377 0.5259 0.0
C1107 C 0.11402 0.29362 0.55173 0.0
H1108 H 0.71261 0.10009 0.56254 0.0
H1109 H 0.68385 0.16198 0.55818 0.0
H1110 H 0.71144 0.09731 0.51758 0.0
H1111 H 0.68334 0.15951 0.51356 0.0
H1112 H 0.72698 0.11202 0.43543 0.0
H1113 H 0.72695 0.11126 0.48049 0.0
H1114 H 0.66584 0.14189 0.481 0.0
H1115 H 0.66627 0.14336 0.43622 0.0
C1116 C 0.70615 0.11314 0.55202 0.0
C1117 C 0.69823 0.13122 0.56401 0.0
C1118 C 0.70556 0.11158 0.52623 0.0
C1119 C 0.69714 0.1281 0.51189 0.0
C1120 C 0.68946 0.14623 0.52396 0.0
C1121 C 0.68989 0.14772 0.54963 0.0
C1122 C 0.71347 0.11841 0.4452 0.0
C1123 C 0.69677 0.12801 0.43225 0.0
C1124 C 0.7134 0.11791 0.47105 0.0
C1125 C 0.69653 0.12681 0.48445 0.0
C1126 C 0.67937 0.13543 0.47136 0.0
C1127 C 0.67956 0.13615 0.44563 0.0
H1128 H 0.86069 0.66181 0.43262 0.0
H1129 H 0.88987 0.72355 0.43076 0.0
H1130 H 0.86252 0.66189 0.47743 0.0
H1131 H 0.89099 0.724 0.47576 0.0
H1132 H 0.90198 0.71193 0.55814 0.0
H1133 H 0.90536 0.70956 0.51328 0.0
H1134 H 0.84405 0.67954 0.50937 0.0
H1135 H 0.84098 0.68129 0.55386 0.0
C1136 C 0.86754 0.6754 0.44179 0.0
C1137 C 0.8749 0.69278 0.42812 0.0
C1138 C 0.86849 0.67551 0.46751 0.0
C1139 C 0.87654 0.69313 0.48028 0.0
C1140 C 0.88479 0.71012 0.46657 0.0
C1141 C 0.88408 0.7099 0.44075 0.0
C1142 C 0.88927 0.70478 0.54766 0.0
C1143 C 0.87125 0.69674 0.55965 0.0
C1144 C 0.89118 0.70348 0.52194 0.0
C1145 C 0.87506 0.69421 0.50767 0.0
C1146 C 0.85703 0.68632 0.51974 0.0
C1147 C 0.85519 0.68748 0.54534 0.0
H1148 H 0.33889 0.85985 0.56335 0.0
H1149 H 0.27701 0.8888 0.56408 0.0
H1150 H 0.33911 0.86096 0.51852 0.0
H1151 H 0.27687 0.88921 0.51903 0.0
H1152 H 0.2899 0.89928 0.4366 0.0
H1153 H 0.29169 0.90315 0.48143 0.0
H1154 H 0.3217 0.84193 0.48678 0.0
H1155 H 0.32052 0.83836 0.4423 0.0
C1156 C 0.32533 0.86649 0.55393 0.0
C1157 C 0.30782 0.874 0.56728 0.0
C1158 C 0.32539 0.86702 0.52819 0.0
C1159 C 0.30783 0.8748 0.51511 0.0
C1160 C 0.2907 0.8832 0.52848 0.0
C1161 C 0.29075 0.8829 0.55432 0.0
C1162 C 0.29691 0.88667 0.44738 0.0
C1163 C 0.30513 0.86853 0.43581 0.0
C1164 C 0.29787 0.88887 0.47308 0.0
C1165 C 0.30699 0.87294 0.48774 0.0
C1166 C 0.31503 0.85476 0.47609 0.0
C1167 C 0.3142 0.85264 0.45051 0.0
H1168 H 0.11261 0.72431 0.4366 0.0
H1169 H 0.13214 0.65891 0.43405 0.0
H1170 H 0.11087 0.72249 0.48155 0.0
H1171 H 0.12953 0.65678 0.47873 0.0
H1172 H 0.15368 0.66939 0.55628 0.0
H1173 H 0.15001 0.66946 0.51187 0.0
H1174 H 0.09427 0.70867 0.51797 0.0
H1175 H 0.09838 0.70922 0.56281 0.0
C1176 C 0.11613 0.70944 0.44562 0.0
C1177 C 0.12287 0.69186 0.43184 0.0
C1178 C 0.11502 0.70835 0.47139 0.0
C1179 C 0.12037 0.68957 0.48384 0.0
C1180 C 0.12588 0.67167 0.46984 0.0
C1181 C 0.12729 0.67285 0.44419 0.0
C1182 C 0.14051 0.67792 0.54828 0.0
C1183 C 0.12637 0.68936 0.5632 0.0
C1184 C 0.1383 0.67783 0.5227 0.0
C1185 C 0.12177 0.68898 0.51125 0.0
C1186 C 0.10733 0.70011 0.52615 0.0
C1187 C 0.10963 0.70034 0.55186 0.0
H1188 H 0.29032 0.09848 0.43107 0.0
H1189 H 0.32037 0.15976 0.43545 0.0
H1190 H 0.2914 0.09572 0.47603 0.0
H1191 H 0.32081 0.15731 0.48003 0.0
H1192 H 0.33616 0.14149 0.55791 0.0
H1193 H 0.3374 0.13952 0.51316 0.0
H1194 H 0.27549 0.11054 0.5125 0.0
H1195 H 0.27462 0.1118 0.55752 0.0
C1196 C 0.29712 0.11137 0.44158 0.0
C1197 C 0.30531 0.12932 0.42959 0.0
C1198 C 0.29764 0.10983 0.46736 0.0
C1199 C 0.30628 0.12625 0.4817 0.0
C1200 C 0.31446 0.14414 0.46963 0.0
C1201 C 0.31408 0.14561 0.44396 0.0
C1202 C 0.32285 0.13456 0.54825 0.0
C1203 C 0.30518 0.12703 0.56127 0.0
C1204 C 0.32352 0.13352 0.52255 0.0
C1205 C 0.3064 0.12519 0.50914 0.0
C1206 C 0.28903 0.11693 0.52221 0.0
C1207 C 0.28847 0.11775 0.54803 0.0
H1208 H 0.88742 0.27717 0.43683 0.0
H1209 H 0.86165 0.34042 0.43794 0.0
H1210 H 0.88818 0.27695 0.48188 0.0
H1211 H 0.86317 0.34055 0.48273 0.0
H1212 H 0.84072 0.32344 0.55931 0.0
H1213 H 0.84372 0.32423 0.51479 0.0
H1214 H 0.9034 0.29112 0.5192 0.0
H1215 H 0.90004 0.28971 0.56412 0.0
C1216 C 0.88226 0.29115 0.44668 0.0
C1217 C 0.87417 0.30869 0.43384 0.0
C1218 C 0.88279 0.29107 0.4725 0.0
C1219 C 0.87543 0.30862 0.48597 0.0
C1220 C 0.8684 0.32654 0.473 0.0
C1221 C 0.86763 0.32651 0.44728 0.0
C1222 C 0.85456 0.31637 0.55089 0.0
C1223 C 0.87016 0.30655 0.56535 0.0
C1224 C 0.85635 0.31696 0.52528 0.0
C1225 C 0.87392 0.30794 0.51336 0.0
C1226 C 0.88958 0.29807 0.52777 0.0
C1227 C 0.88769 0.29733 0.55351 0.0
H1228 H 0.70833 0.90309 0.56396 0.0
H1229 H 0.67025 0.84652 0.5583 0.0
H1230 H 0.70668 0.90734 0.51918 0.0
H1231 H 0.66923 0.85035 0.51391 0.0
H1232 H 0.65662 0.86804 0.43644 0.0
H1233 H 0.65518 0.87062 0.48118 0.0
H1234 H 0.72038 0.89115 0.48243 0.0
H1235 H 0.72152 0.88939 0.43749 0.0
C1236 C 0.69961 0.89159 0.55322 0.0
C1237 C 0.68944 0.87445 0.56478 0.0
C1238 C 0.69874 0.89397 0.52754 0.0
C1239 C 0.68777 0.87923 0.51289 0.0
C1240 C 0.67744 0.86229 0.52456 0.0
C1241 C 0.67817 0.85999 0.55012 0.0
C1242 C 0.67058 0.87333 0.44624 0.0
C1243 C 0.68927 0.87823 0.43345 0.0
C1244 C 0.6698 0.87471 0.47192 0.0
C1245 C 0.68778 0.88071 0.48549 0.0
C1246 C 0.70618 0.8866 0.4726 0.0
C1247 C 0.70688 0.88549 0.44683 0.0
H1248 H 0.65632 0.82731 0.05757 0.0
H1249 H 0.59878 0.7908 0.06409 0.0
H1250 H 0.65178 0.82875 0.01321 0.0
H1251 H 0.59389 0.79282 0.01946 0.0
H1252 H 0.61006 0.77835 0.93712 0.0
H1253 H 0.60909 0.77905 0.9821 0.0
H1254 H 0.63097 0.84379 0.9813 0.0
H1255 H 0.63268 0.84279 0.93648 0.0
C1256 C 0.64254 0.81979 0.04959 0.0
C1257 C 0.62797 0.80887 0.06445 0.0
C1258 C 0.63983 0.82076 0.02408 0.0
C1259 C 0.62238 0.81101 0.01271 0.0
C1260 C 0.60762 0.80031 0.02758 0.0
C1261 C 0.6104 0.79922 0.05317 0.0
C1262 C 0.61436 0.79282 0.94655 0.0
C1263 C 0.62178 0.8104 0.93327 0.0
C1264 C 0.61374 0.79325 0.97236 0.0
C1265 C 0.62031 0.81136 0.98536 0.0
C1266 C 0.62637 0.82938 0.97192 0.0
C1267 C 0.62723 0.82886 0.9462 0.0
H1268 H 0.16423 0.6424 0.93596 0.0
H1269 H 0.22626 0.61374 0.93637 0.0
H1270 H 0.16323 0.64091 0.98072 0.0
H1271 H 0.22563 0.61299 0.98142 0.0
H1272 H 0.2106 0.60098 0.06303 0.0
H1273 H 0.21006 0.59817 0.01805 0.0
H1274 H 0.17955 0.65921 0.0136 0.0
H1275 H 0.17945 0.66168 0.05819 0.0
C1276 C 0.1777 0.63582 0.94563 0.0
C1277 C 0.19543 0.62841 0.93261 0.0
C1278 C 0.17718 0.63506 0.97134 0.0
C1279 C 0.19449 0.62716 0.98474 0.0
C1280 C 0.21195 0.61905 0.9717 0.0
C1281 C 0.21237 0.61957 0.94587 0.0
C1282 C 0.20373 0.61375 0.0524 0.0
C1283 C 0.19498 0.63151 0.06425 0.0
C1284 C 0.2035 0.61218 0.02662 0.0
C1285 C 0.19463 0.62839 0.01217 0.0
C1286 C 0.18606 0.64618 0.0241 0.0
C1287 C 0.18613 0.64766 0.04976 0.0
H1288 H 0.38828 0.22208 0.05682 0.0
H1289 H 0.36657 0.15735 0.05816 0.0
H1290 H 0.39056 0.22061 0.01189 0.0
H1291 H 0.36973 0.15553 0.01349 0.0
H1292 H 0.3466 0.16979 0.93592 0.0
H1293 H 0.35 0.16917 0.98032 0.0
H1294 H 0.40693 0.20676 0.97537 0.0
H1295 H 0.40309 0.20802 0.9305 0.0
C1296 C 0.38441 0.20741 0.04755 0.0
C1297 C 0.37688 0.18995 0.06097 0.0
C1298 C 0.38582 0.20652 0.02179 0.0
C1299 C 0.38 0.18805 0.00898 0.0
C1300 C 0.37375 0.17021 0.02265 0.0
C1301 C 0.37203 0.17121 0.04829 0.0
C1302 C 0.35997 0.17782 0.94415 0.0
C1303 C 0.37453 0.18902 0.92954 0.0
C1304 C 0.36203 0.17732 0.96975 0.0
C1305 C 0.37882 0.18782 0.98153 0.0
C1306 C 0.39367 0.19869 0.96693 0.0
C1307 C 0.39153 0.19933 0.9412 0.0
H1308 H 0.78993 0.4025 0.06291 0.0
H1309 H 0.82739 0.3455 0.05744 0.0
H1310 H 0.79035 0.40576 0.01795 0.0
H1311 H 0.82714 0.34831 0.01297 0.0
H1312 H 0.83845 0.36463 0.93476 0.0
H1313 H 0.84061 0.3675 0.9794 0.0
H1314 H 0.7759 0.38948 0.98179 0.0
H1315 H 0.77412 0.3875 0.93683 0.0
C1316 C 0.79825 0.39068 0.05217 0.0
C1317 C 0.80865 0.37376 0.06384 0.0
C1318 C 0.7984 0.39249 0.02639 0.0
C1319 C 0.80884 0.37734 0.01176 0.0
C1320 C 0.81933 0.36056 0.02355 0.0
C1321 C 0.81935 0.35886 0.04918 0.0
C1322 C 0.82473 0.37023 0.9448 0.0
C1323 C 0.80602 0.37556 0.93232 0.0
C1324 C 0.82593 0.37179 0.97043 0.0
C1325 C 0.80831 0.37835 0.98431 0.0
C1326 C 0.78983 0.38451 0.97173 0.0
C1327 C 0.78876 0.38326 0.94596 0.0
H1328 H 0.59853 0.20995 0.06314 0.0
H1329 H 0.65712 0.17494 0.0582 0.0
H1330 H 0.59476 0.20797 0.01828 0.0
H1331 H 0.65369 0.17358 0.01379 0.0
H1332 H 0.63641 0.15844 0.93671 0.0
H1333 H 0.63412 0.15786 0.98148 0.0
H1334 H 0.61028 0.2219 0.98105 0.0
H1335 H 0.6118 0.22216 0.93604 0.0
C1336 C 0.6106 0.20186 0.05254 0.0
C1337 C 0.62811 0.19258 0.06435 0.0
C1338 C 0.60847 0.2008 0.02682 0.0
C1339 C 0.62386 0.19051 0.01238 0.0
C1340 C 0.64127 0.18121 0.02428 0.0
C1341 C 0.64332 0.18214 0.04986 0.0
C1342 C 0.63049 0.17234 0.94614 0.0
C1343 C 0.62456 0.19045 0.93283 0.0
C1344 C 0.62927 0.17205 0.97184 0.0
C1345 C 0.6224 0.18997 0.98496 0.0
C1346 C 0.61554 0.20777 0.97159 0.0
C1347 C 0.61651 0.20796 0.94577 0.0
H1348 H 0.84297 0.63331 0.05658 0.0
H1349 H 0.77809 0.61195 0.05547 0.0
H1350 H 0.84448 0.63067 0.01185 0.0
H1351 H 0.77929 0.61013 0.01051 0.0
H1352 H 0.79162 0.59802 0.92893 0.0
H1353 H 0.79303 0.59391 0.97375 0.0
H1354 H 0.83057 0.65085 0.97902 0.0
H1355 H 0.82977 0.65454 0.93462 0.0
C1356 C 0.82902 0.62802 0.04676 0.0
C1357 C 0.81032 0.62312 0.05954 0.0
C1358 C 0.82984 0.6266 0.02108 0.0
C1359 C 0.81188 0.62058 0.00748 0.0
C1360 C 0.79346 0.6147 0.02035 0.0
C1361 C 0.79274 0.61585 0.04614 0.0
C1362 C 0.80032 0.60954 0.93968 0.0
C1363 C 0.81057 0.62662 0.92811 0.0
C1364 C 0.80104 0.60724 0.96539 0.0
C1365 C 0.81196 0.62201 0.98005 0.0
C1366 C 0.82238 0.63889 0.96837 0.0
C1367 C 0.82178 0.64111 0.94279 0.0
H1368 H 0.38873 0.77495 0.93774 0.0
H1369 H 0.36091 0.83733 0.93959 0.0
H1370 H 0.38939 0.77434 0.98279 0.0
H1371 H 0.36222 0.83702 0.98439 0.0
H1372 H 0.34016 0.81815 0.06073 0.0
H1373 H 0.34316 0.81945 0.0162 0.0
H1374 H 0.40423 0.78899 0.02029 0.0
H1375 H 0.40097 0.78711 0.06519 0.0
C1376 C 0.38308 0.78866 0.94773 0.0
C1377 C 0.37447 0.80606 0.93507 0.0
C1378 C 0.38354 0.78835 0.97357 0.0
C1379 C 0.37557 0.8055 0.98724 0.0
C1380 C 0.36797 0.8233 0.97448 0.0
C1381 C 0.36732 0.82353 0.94875 0.0
C1382 C 0.3543 0.81176 0.05225 0.0
C1383 C 0.37034 0.80255 0.06663 0.0
C1384 C 0.35609 0.81265 0.02663 0.0
C1385 C 0.37404 0.80452 0.01462 0.0
C1386 C 0.39012 0.79526 0.02894 0.0
C1387 C 0.38828 0.79426 0.05468 0.0
H1388 H 0.22209 0.39171 0.936 0.0
H1389 H 0.15818 0.36754 0.93636 0.0
H1390 H 0.22172 0.3931 0.98097 0.0
H1391 H 0.15752 0.36965 0.98117 0.0
H1392 H 0.17548 0.34486 0.05719 0.0
H1393 H 0.17351 0.34927 0.01287 0.0
H1394 H 0.20787 0.40814 0.01853 0.0
H1395 H 0.21042 0.4034 0.06318 0.0
C1396 C 0.20779 0.38717 0.94565 0.0
C1397 C 0.19029 0.37917 0.93264 0.0
C1398 C 0.20755 0.38803 0.97145 0.0
C1399 C 0.18972 0.38112 0.98474 0.0
C1400 C 0.17173 0.37453 0.97157 0.0
C1401 C 0.17206 0.37343 0.94585 0.0
C1402 C 0.18254 0.35883 0.04911 0.0
C1403 C 0.19317 0.37373 0.06382 0.0
C1404 C 0.18126 0.36146 0.02361 0.0
C1405 C 0.1904 0.37915 0.01208 0.0
C1406 C 0.20083 0.39423 0.02678 0.0
C1407 C 0.20222 0.39154 0.05239 0.0
H1408 H 0.17409 0.33765 0.17572 0.0
H1409 H 0.19797 0.38757 0.22229 0.0
H1410 H 0.15882 0.32026 0.21147 0.0
H1411 H 0.18136 0.37114 0.258 0.0
H1412 H 0.16463 0.32873 0.32178 0.0
H1413 H 0.18222 0.34399 0.2861 0.0
H1414 H 0.13151 0.32149 0.23929 0.0
H1415 H 0.11489 0.30494 0.27488 0.0
C1416 C 0.1759 0.34499 0.19364 0.0
C1417 C 0.18724 0.36392 0.19628 0.0
C1418 C 0.16695 0.33513 0.21419 0.0
C1419 C 0.16863 0.34427 0.23781 0.0
C1420 C 0.18002 0.36331 0.24031 0.0
C1421 C 0.18943 0.37287 0.21981 0.0
C1422 C 0.15736 0.32696 0.3038 0.0
C1423 C 0.13844 0.31563 0.30104 0.0
C1424 C 0.16734 0.33588 0.28331 0.0
C1425 C 0.15834 0.33415 0.25962 0.0
C1426 C 0.13926 0.32284 0.25702 0.0
C1427 C 0.12958 0.31346 0.27746 0.0
H1428 H 0.62908 0.21079 0.2222 0.0
H1429 H 0.64978 0.15878 0.17656 0.0
H1430 H 0.64732 0.19527 0.25753 0.0
H1431 H 0.66727 0.14283 0.21191 0.0
H1432 H 0.71271 0.12846 0.27422 0.0
H1433 H 0.69649 0.14616 0.23898 0.0
H1434 H 0.64477 0.16652 0.28549 0.0
H1435 H 0.66144 0.14955 0.32077 0.0
C1436 C 0.63742 0.19598 0.21978 0.0
C1437 C 0.63798 0.18598 0.19666 0.0
C1438 C 0.64779 0.18701 0.24004 0.0
C1439 C 0.65878 0.16774 0.23764 0.0
C1440 C 0.65932 0.15783 0.21441 0.0
C1441 C 0.64913 0.1669 0.19415 0.0
C1442 C 0.6979 0.13678 0.27687 0.0
C1443 C 0.68831 0.13758 0.3002 0.0
C1444 C 0.68853 0.14684 0.25666 0.0
C1445 C 0.66924 0.15774 0.25931 0.0
C1446 C 0.65977 0.15859 0.28278 0.0
C1447 C 0.66924 0.14871 0.303 0.0
H1448 H 0.84214 0.64832 0.17158 0.0
H1449 H 0.78977 0.62793 0.21686 0.0
H1450 H 0.85802 0.6657 0.20714 0.0
H1451 H 0.80526 0.64593 0.25234 0.0
H1452 H 0.85081 0.65943 0.31591 0.0
H1453 H 0.83417 0.64286 0.28033 0.0
H1454 H 0.85422 0.69507 0.23447 0.0
H1455 H 0.8715 0.71128 0.27003 0.0
C1456 C 0.83395 0.64769 0.18912 0.0
C1457 C 0.81477 0.63668 0.19148 0.0
C1458 C 0.84297 0.65779 0.20949 0.0
C1459 C 0.83294 0.65725 0.23266 0.0
C1460 C 0.8136 0.64639 0.23489 0.0
C1461 C 0.80466 0.63616 0.21454 0.0
C1462 C 0.85164 0.66738 0.29823 0.0
C1463 C 0.86253 0.6866 0.29572 0.0
C1464 C 0.84197 0.65795 0.27784 0.0
C1465 C 0.84283 0.6676 0.25447 0.0
C1466 C 0.85353 0.68701 0.25208 0.0
C1467 C 0.86333 0.69637 0.27248 0.0
H1468 H 0.33879 0.82642 0.17873 0.0
H1469 H 0.38932 0.80313 0.22481 0.0
H1470 H 0.32196 0.84231 0.21449 0.0
H1471 H 0.37337 0.82027 0.26051 0.0
H1472 H 0.33073 0.83682 0.32452 0.0
H1473 H 0.34625 0.81939 0.2889 0.0
H1474 H 0.32361 0.86996 0.24205 0.0
H1475 H 0.30685 0.8865 0.27761 0.0
C1476 C 0.3464 0.82488 0.19654 0.0
C1477 C 0.36533 0.8135 0.19903 0.0
C1478 C 0.33685 0.83418 0.21708 0.0
C1479 C 0.34628 0.83278 0.24057 0.0
C1480 C 0.36534 0.82141 0.24292 0.0
C1481 C 0.37462 0.81168 0.22243 0.0
C1482 C 0.329 0.84413 0.30657 0.0
C1483 C 0.31752 0.86297 0.3038 0.0
C1484 C 0.33808 0.83423 0.2861 0.0
C1485 C 0.33632 0.8432 0.26241 0.0
C1486 C 0.32497 0.86225 0.2598 0.0
C1487 C 0.31548 0.87187 0.28022 0.0
H1488 H 0.173 0.66076 0.82127 0.0
H1489 H 0.19678 0.61078 0.7747 0.0
H1490 H 0.1578 0.67817 0.78558 0.0
H1491 H 0.18013 0.62721 0.73902 0.0
H1492 H 0.16415 0.66998 0.67521 0.0
H1493 H 0.18127 0.65423 0.71091 0.0
H1494 H 0.13085 0.67771 0.75756 0.0
H1495 H 0.1148 0.69476 0.72196 0.0
C1496 C 0.17476 0.65336 0.80337 0.0
C1497 C 0.18613 0.63445 0.80073 0.0
C1498 C 0.16583 0.66325 0.78283 0.0
C1499 C 0.16753 0.65416 0.75919 0.0
C1500 C 0.1788 0.63504 0.75671 0.0
C1501 C 0.18822 0.62546 0.7772 0.0
C1502 C 0.15686 0.67185 0.69316 0.0
C1503 C 0.1382 0.68361 0.69589 0.0
C1504 C 0.16656 0.66264 0.71368 0.0
C1505 C 0.1575 0.66449 0.73734 0.0
C1506 C 0.13867 0.67624 0.73987 0.0
C1507 C 0.12931 0.68592 0.71943 0.0
H1508 H 0.28855 0.12592 0.71904 0.0
H1509 H 0.33966 0.14789 0.67282 0.0
H1510 H 0.30449 0.1436 0.75449 0.0
H1511 H 0.35603 0.16488 0.7083 0.0
H1512 H 0.37071 0.20931 0.7718 0.0
H1513 H 0.35275 0.1936 0.73637 0.0
H1514 H 0.33381 0.1406 0.78164 0.0
H1515 H 0.35105 0.15669 0.81709 0.0
C1516 C 0.30327 0.13441 0.71651 0.0
C1517 C 0.31289 0.13548 0.6932 0.0
C1518 C 0.31247 0.14447 0.73684 0.0
C1519 C 0.33161 0.15566 0.73432 0.0
C1520 C 0.34114 0.15673 0.7109 0.0
C1521 C 0.33184 0.14683 0.69057 0.0
C1522 C 0.36264 0.19434 0.77413 0.0
C1523 C 0.36231 0.18421 0.79717 0.0
C1524 C 0.35244 0.18526 0.75381 0.0
C1525 C 0.34184 0.16577 0.75608 0.0
C1526 C 0.34148 0.15576 0.77925 0.0
C1527 C 0.35152 0.16492 0.79956 0.0
H1528 H 0.85236 0.34417 0.67704 0.0
H1529 H 0.87336 0.29271 0.72329 0.0
H1530 H 0.83514 0.36057 0.71237 0.0
H1531 H 0.85543 0.30866 0.75856 0.0
H1532 H 0.84061 0.35411 0.82149 0.0
H1533 H 0.85776 0.33759 0.78622 0.0
H1534 H 0.8059 0.35716 0.7395 0.0
H1535 H 0.78918 0.37441 0.77475 0.0
C1536 C 0.85318 0.3363 0.69477 0.0
C1537 C 0.86427 0.3172 0.69745 0.0
C1538 C 0.84316 0.34561 0.715 0.0
C1539 C 0.84382 0.33594 0.73837 0.0
C1540 C 0.85486 0.31674 0.74096 0.0
C1541 C 0.86506 0.30753 0.72074 0.0
C1542 C 0.83288 0.35489 0.80367 0.0
C1543 C 0.8136 0.36562 0.80083 0.0
C1544 C 0.84265 0.34528 0.78345 0.0
C1545 C 0.83324 0.34599 0.75995 0.0
C1546 C 0.81379 0.35659 0.75722 0.0
C1547 C 0.80413 0.36638 0.77743 0.0
H1548 H 0.65852 0.84986 0.67732 0.0
H1549 H 0.71021 0.8722 0.72243 0.0
H1550 H 0.6431 0.83236 0.71302 0.0
H1551 H 0.69515 0.85408 0.75812 0.0
H1552 H 0.64875 0.84071 0.82129 0.0
H1553 H 0.66573 0.85695 0.78571 0.0
H1554 H 0.64781 0.80337 0.74078 0.0
H1555 H 0.6302 0.78747 0.7763 0.0
C1556 C 0.66668 0.85088 0.69486 0.0
C1557 C 0.68551 0.86248 0.69714 0.0
C1558 C 0.65793 0.8407 0.7153 0.0
C1559 C 0.66789 0.84177 0.73847 0.0
C1560 C 0.6869 0.85319 0.74063 0.0
C1561 C 0.69559 0.86349 0.72018 0.0
C1562 C 0.64848 0.83239 0.80382 0.0
C1563 C 0.63805 0.81289 0.80151 0.0
C1564 C 0.65835 0.84162 0.78345 0.0
C1565 C 0.65813 0.83149 0.76035 0.0
C1566 C 0.64799 0.81177 0.7582 0.0
C1567 C 0.63799 0.8026 0.77856 0.0
H1568 H 0.85247 0.6605 0.67134 0.0
H1569 H 0.87571 0.71096 0.71766 0.0
H1570 H 0.83534 0.64434 0.70684 0.0
H1571 H 0.85788 0.69525 0.75315 0.0
H1572 H 0.84379 0.649 0.81569 0.0
H1573 H 0.86021 0.66594 0.78025 0.0
H1574 H 0.80683 0.648 0.73499 0.0
H1575 H 0.79081 0.63032 0.77041 0.0
C1576 C 0.85378 0.66823 0.68912 0.0
C1577 C 0.86552 0.68694 0.69176 0.0
C1578 C 0.84381 0.65905 0.70947 0.0
C1579 C 0.84516 0.66847 0.73293 0.0
C1580 C 0.85677 0.68735 0.73547 0.0
C1581 C 0.86692 0.69643 0.71512 0.0
C1582 C 0.83556 0.64869 0.79817 0.0
C1583 C 0.81607 0.63825 0.79578 0.0
C1584 C 0.84491 0.65855 0.77785 0.0
C1585 C 0.83488 0.65839 0.75469 0.0
C1586 C 0.81519 0.64815 0.75243 0.0
C1587 C 0.80593 0.63811 0.77274 0.0
H1588 H 0.35394 0.84238 0.8233 0.0
H1589 H 0.37433 0.79058 0.77714 0.0
H1590 H 0.33655 0.8587 0.78801 0.0
H1591 H 0.35629 0.80646 0.74196 0.0
H1592 H 0.34201 0.85194 0.67893 0.0
H1593 H 0.35898 0.83539 0.71427 0.0
H1594 H 0.30714 0.85533 0.76083 0.0
H1595 H 0.29056 0.87258 0.72548 0.0
C1596 C 0.35459 0.83442 0.80561 0.0
C1597 C 0.36557 0.81526 0.80294 0.0
C1598 C 0.34447 0.84369 0.7854 0.0
C1599 C 0.34496 0.83392 0.76208 0.0
C1600 C 0.35586 0.81463 0.75952 0.0
C1601 C 0.36612 0.80545 0.77971 0.0
C1602 C 0.33424 0.85278 0.69672 0.0
C1603 C 0.31499 0.86361 0.69947 0.0
C1604 C 0.3439 0.84316 0.71698 0.0
C1605 C 0.33445 0.84397 0.74046 0.0
C1606 C 0.31505 0.85466 0.74312 0.0
C1607 C 0.30546 0.86445 0.72285 0.0
H1608 H 0.14963 0.34143 0.67707 0.0
H1609 H 0.12861 0.2891 0.722 0.0
H1610 H 0.16765 0.35666 0.71258 0.0
H1611 H 0.14721 0.30397 0.75744 0.0
H1612 H 0.16063 0.34994 0.82094 0.0
H1613 H 0.14423 0.33309 0.7854 0.0
H1614 H 0.19709 0.35209 0.7399 0.0
H1615 H 0.21318 0.36955 0.77543 0.0
C1616 C 0.14902 0.3331 0.69451 0.0
C1617 C 0.13761 0.31415 0.69682 0.0
C1618 C 0.15948 0.34174 0.71484 0.0
C1619 C 0.15888 0.33156 0.7379 0.0
C1620 C 0.14772 0.3124 0.74005 0.0
C1621 C 0.13715 0.30382 0.71974 0.0
C1622 C 0.16878 0.35046 0.80336 0.0
C1623 C 0.18813 0.36116 0.80092 0.0
C1624 C 0.15945 0.34067 0.78301 0.0
C1625 C 0.16932 0.34123 0.75975 0.0
C1626 C 0.1889 0.35163 0.75745 0.0
C1627 C 0.19818 0.36153 0.77782 0.0
H1628 H 0.70937 0.12395 0.72219 0.0
H1629 H 0.65906 0.14748 0.67587 0.0
H1630 H 0.69331 0.14114 0.75788 0.0
H1631 H 0.6425 0.16394 0.71159 0.0
H1632 H 0.62858 0.20836 0.77522 0.0
H1633 H 0.64603 0.19221 0.7398 0.0
H1634 H 0.66412 0.13896 0.78516 0.0
H1635 H 0.64739 0.15559 0.82071 0.0
C1636 C 0.69477 0.13265 0.7197 0.0
C1637 C 0.68546 0.13437 0.69627 0.0
C1638 C 0.68548 0.14243 0.74017 0.0
C1639 C 0.66656 0.15397 0.7377 0.0
C1640 C 0.65725 0.15554 0.71418 0.0
C1641 C 0.66665 0.14595 0.6937 0.0
C1642 C 0.63633 0.19322 0.77759 0.0
C1643 C 0.6366 0.18322 0.8007 0.0
C1644 C 0.64624 0.18388 0.75725 0.0
C1645 C 0.65646 0.16419 0.75951 0.0
C1646 C 0.65672 0.15425 0.78275 0.0
C1647 C 0.64699 0.16371 0.80312 0.0
H1648 H 0.82951 0.33848 0.17639 0.0
H1649 H 0.80435 0.38805 0.22255 0.0
H1650 H 0.84559 0.32194 0.21224 0.0
H1651 H 0.82172 0.37255 0.2583 0.0
H1652 H 0.83969 0.331 0.32248 0.0
H1653 H 0.82185 0.34585 0.2868 0.0
H1654 H 0.87282 0.32391 0.23997 0.0
H1655 H 0.88968 0.30768 0.27561 0.0
C1656 C 0.82762 0.34595 0.19424 0.0
C1657 C 0.81567 0.36451 0.19675 0.0
C1658 C 0.83702 0.33658 0.21484 0.0
C1659 C 0.83519 0.34589 0.23838 0.0
C1660 C 0.82321 0.36458 0.24071 0.0
C1661 C 0.81335 0.37362 0.22018 0.0
C1662 C 0.847 0.3293 0.30452 0.0
C1663 C 0.86603 0.31814 0.30177 0.0
C1664 C 0.83686 0.33799 0.28399 0.0
C1665 C 0.84581 0.33624 0.26027 0.0
C1666 C 0.86508 0.32525 0.25772 0.0
C1667 C 0.87491 0.31607 0.27819 0.0
H1668 H 0.62739 0.79141 0.22241 0.0
H1669 H 0.65011 0.84249 0.17666 0.0
H1670 H 0.64468 0.80724 0.25818 0.0
H1671 H 0.66675 0.85873 0.21246 0.0
H1672 H 0.71087 0.87262 0.27642 0.0
H1673 H 0.69524 0.85495 0.24081 0.0
H1674 H 0.64155 0.83668 0.28541 0.0
H1675 H 0.65758 0.8537 0.32112 0.0
C1676 C 0.63599 0.80608 0.22004 0.0
C1677 C 0.63738 0.81573 0.19677 0.0
C1678 C 0.64581 0.81523 0.24056 0.0
C1679 C 0.6571 0.83431 0.23826 0.0
C1680 C 0.65849 0.84387 0.21488 0.0
C1681 C 0.64882 0.83464 0.19437 0.0
C1682 C 0.69575 0.86478 0.27858 0.0
C1683 C 0.68542 0.86459 0.30151 0.0
C1684 C 0.68672 0.85474 0.25815 0.0
C1685 C 0.66707 0.84442 0.26017 0.0
C1686 C 0.65683 0.84418 0.28322 0.0
C1687 C 0.66594 0.85408 0.30367 0.0
H1688 H 0.1444 0.6581 0.32037 0.0
H1689 H 0.12608 0.71092 0.27465 0.0
H1690 H 0.16087 0.64116 0.2849 0.0
H1691 H 0.14329 0.6944 0.23925 0.0
H1692 H 0.15607 0.64895 0.17576 0.0
H1693 H 0.13953 0.66582 0.21125 0.0
H1694 H 0.19027 0.64334 0.25786 0.0
H1695 H 0.20632 0.62578 0.22243 0.0
C1696 C 0.14404 0.66616 0.30273 0.0
C1697 C 0.1339 0.68579 0.30024 0.0
C1698 C 0.15362 0.65652 0.28242 0.0
C1699 C 0.15347 0.66639 0.25915 0.0
C1700 C 0.14342 0.68616 0.25676 0.0
C1701 C 0.13366 0.6957 0.27707 0.0
C1702 C 0.16365 0.64759 0.19361 0.0
C1703 C 0.18243 0.63599 0.19636 0.0
C1704 C 0.15426 0.6574 0.21395 0.0
C1705 C 0.16356 0.65601 0.23747 0.0
C1706 C 0.18246 0.64447 0.24013 0.0
C1707 C 0.19174 0.63448 0.2198 0.0
H1708 H 0.29008 0.12514 0.27131 0.0
H1709 H 0.34064 0.14889 0.31713 0.0
H1710 H 0.30563 0.14276 0.23554 0.0
H1711 H 0.35664 0.16575 0.28142 0.0
H1712 H 0.37071 0.20984 0.21798 0.0
H1713 H 0.35284 0.194 0.2533 0.0
H1714 H 0.33481 0.14061 0.20811 0.0
H1715 H 0.35195 0.15693 0.17264 0.0
C1716 C 0.30458 0.13402 0.27368 0.0
C1717 C 0.31415 0.13563 0.29698 0.0
C1718 C 0.31358 0.14404 0.25318 0.0
C1719 C 0.33244 0.15571 0.25552 0.0
C1720 C 0.34193 0.15726 0.27893 0.0
C1721 C 0.33284 0.14744 0.29941 0.0
C1722 C 0.36287 0.19475 0.21562 0.0
C1723 C 0.36279 0.18458 0.1926 0.0
C1724 C 0.35271 0.18559 0.23589 0.0
C1725 C 0.34244 0.16593 0.23366 0.0
C1726 C 0.34226 0.15589 0.21049 0.0
C1727 C 0.35223 0.16516 0.19017 0.0
loop_
_geom_bond_atom_site_label_1
_geom_bond_atom_site_label_2
_geom_bond_distance
_geom_bond_site_symmetry_2
_ccdc_geom_bond_type
Co0 O1 2.216 . S
Co0 O2 2.091 . S
Co0 O4 2.004 . S
Co0 O10 2.021 . S
Co0 O12 2.137 . S
Co0 O13 2.244 . S
O1 Co0 2.216 . S
O1 C8 1.247 . S
O2 Co0 2.091 . S
O2 C8 1.261 . S
C3 O12 1.247 . S
C3 O13 1.272 . S
O4 Co0 2.004 . S
O4 C9 1.259 . S
Co5 O6 2.061 . S
Co5 O11 2.052 . S
Co5 O13 2.135 . S
O6 Co5 2.061 . S
O6 C9 1.235 . S
C7 O10 1.238 . S
C7 O11 1.241 . S
C8 O1 1.247 . S
C8 O2 1.261 . S
C9 O4 1.259 . S
C9 O6 1.235 . S
O10 Co0 2.021 . S
O10 C7 1.238 . S
O11 Co5 2.052 . S
O11 C7 1.241 . S
O12 Co0 2.137 . S
O12 C3 1.247 . S
O13 Co0 2.244 . S
O13 C3 1.272 . S
O13 Co5 2.135 . S
Co14 O15 2.216 . S
Co14 O16 2.091 . S
Co14 O18 2.004 . S
Co14 O24 2.021 . S
Co14 O26 2.137 . S
Co14 O27 2.244 . S
O15 Co14 2.216 . S
O15 C22 1.247 . S
O16 Co14 2.091 . S
O16 C22 1.261 . S
C17 O26 1.247 . S
C17 O27 1.272 . S
O18 Co14 2.004 . S
O18 C23 1.259 . S
Co19 O20 2.061 . S
Co19 O25 2.052 . S
Co19 O27 2.135 . S
O20 Co19 2.061 . S
O20 C23 1.235 . S
C21 O24 1.238 . S
C21 O25 1.241 . S
C22 O15 1.247 . S
C22 O16 1.261 . S
C23 O18 1.259 . S
C23 O20 1.235 . S
O24 Co14 2.021 . S
O24 C21 1.238 . S
O25 Co19 2.052 . S
O25 C21 1.241 . S
O26 Co14 2.137 . S
O26 C17 1.247 . S
O27 Co14 2.244 . S
O27 C17 1.272 . S
O27 Co19 2.135 . S
Co28 O29 2.216 . S
Co28 O30 2.091 . S
Co28 O32 2.004 . S
Co28 O38 2.021 . S
Co28 O40 2.137 . S
Co28 O41 2.244 . S
O29 Co28 2.216 . S
O29 C36 1.247 . S
O30 Co28 2.091 . S
O30 C36 1.261 . S
C31 O40 1.247 . S
C31 O41 1.272 . S
O32 Co28 2.004 . S
O32 C37 1.259 . S
Co33 O34 2.061 . S
Co33 O39 2.052 . S
Co33 O41 2.135 . S
O34 Co33 2.061 . S
O34 C37 1.235 . S
C35 O38 1.238 . S
C35 O39 1.241 . S
C36 O29 1.247 . S
C36 O30 1.261 . S
C37 O32 1.259 . S
C37 O34 1.235 . S
O38 Co28 2.021 . S
O38 C35 1.238 . S
O39 Co33 2.052 . S
O39 C35 1.241 . S
O40 Co28 2.137 . S
O40 C31 1.247 . S
O41 Co28 2.244 . S
O41 C31 1.272 . S
O41 Co33 2.135 . S
Co42 O43 2.216 . S
Co42 O44 2.091 . S
Co42 O46 2.004 . S
Co42 O52 2.021 . S
Co42 O54 2.137 . S
Co42 O55 2.244 . S
O43 Co42 2.216 . S
O43 C50 1.247 . S
O44 Co42 2.091 . S
O44 C50 1.261 . S
C45 O54 1.247 . S
C45 O55 1.272 . S
O46 Co42 2.004 . S
O46 C51 1.259 . S
Co47 O48 2.061 . S
Co47 O53 2.052 . S
Co47 O55 2.135 . S
O48 Co47 2.061 . S
O48 C51 1.235 . S
C49 O52 1.238 . S
C49 O53 1.241 . S
C50 O43 1.247 . S
C50 O44 1.261 . S
C51 O46 1.259 . S
C51 O48 1.235 . S
O52 Co42 2.021 . S
O52 C49 1.238 . S
O53 Co47 2.052 . S
O53 C49 1.241 . S
O54 Co42 2.137 . S
O54 C45 1.247 . S
O55 Co42 2.244 . S
O55 C45 1.272 . S
O55 Co47 2.135 . S
Co56 O57 2.216 . S
Co56 O58 2.091 . S
Co56 O60 2.004 . S
Co56 O66 2.021 . S
Co56 O68 2.137 . S
Co56 O69 2.244 . S
O57 Co56 2.216 . S
O57 C64 1.247 . S
O58 Co56 2.091 . S
O58 C64 1.261 . S
C59 O68 1.247 . S
C59 O69 1.272 . S
O60 Co56 2.004 . S
O60 C65 1.259 . S
Co61 O62 2.061 . S
Co61 O67 2.052 . S
Co61 O69 2.135 . S
O62 Co61 2.061 . S
O62 C65 1.235 . S
C63 O66 1.238 . S
C63 O67 1.241 . S
C64 O57 1.247 . S
C64 O58 1.261 . S
C65 O60 1.259 . S
C65 O62 1.235 . S
O66 Co56 2.021 . S
O66 C63 1.238 . S
O67 Co61 2.052 . S
O67 C63 1.241 . S
O68 Co56 2.137 . S
O68 C59 1.247 . S
O69 Co56 2.244 . S
O69 C59 1.272 . S
O69 Co61 2.135 . S
Co70 O71 2.216 . S
Co70 O72 2.091 . S
Co70 O74 2.004 . S
Co70 O80 2.021 . S
Co70 O82 2.137 . S
Co70 O83 2.244 . S
O71 Co70 2.216 . S
O71 C78 1.247 . S
O72 Co70 2.091 . S
O72 C78 1.261 . S
C73 O82 1.247 . S
C73 O83 1.272 . S
O74 Co70 2.004 . S
O74 C79 1.259 . S
Co75 O76 2.061 . S
Co75 O81 2.052 . S
Co75 O83 2.135 . S
O76 Co75 2.061 . S
O76 C79 1.235 . S
C77 O80 1.238 . S
C77 O81 1.241 . S
C78 O71 1.247 . S
C78 O72 1.261 . S
C79 O74 1.259 . S
C79 O76 1.235 . S
O80 Co70 2.021 . S
O80 C77 1.238 . S
O81 Co75 2.052 . S
O81 C77 1.241 . S
O82 Co70 2.137 . S
O82 C73 1.247 . S
O83 Co70 2.244 . S
O83 C73 1.272 . S
O83 Co75 2.135 . S
Co84 O85 2.216 . S
Co84 O86 2.091 . S
Co84 O88 2.004 . S
Co84 O94 2.021 . S
Co84 O96 2.137 . S
Co84 O97 2.244 . S
O85 Co84 2.216 . S
O85 C92 1.247 . S
O86 Co84 2.091 . S
O86 C92 1.261 . S
C87 O96 1.247 . S
C87 O97 1.272 . S
O88 Co84 2.004 . S
O88 C93 1.259 . S
Co89 O90 2.061 . S
Co89 O95 2.052 . S
Co89 O97 2.135 . S
O90 Co89 2.061 . S
O90 C93 1.235 . S
C91 O94 1.238 . S
C91 O95 1.241 . S
C92 O85 1.247 . S
C92 O86 1.261 . S
C93 O88 1.259 . S
C93 O90 1.235 . S
O94 Co84 2.021 . S
O94 C91 1.238 . S
O95 Co89 2.052 . S
O95 C91 1.241 . S
O96 Co84 2.137 . S
O96 C87 1.247 . S
O97 Co84 2.244 . S
O97 C87 1.272 . S
O97 Co89 2.135 . S
Co98 O99 2.216 . S
Co98 O100 2.091 . S
Co98 O102 2.004 . S
Co98 O108 2.021 . S
Co98 O110 2.137 . S
Co98 O111 2.244 . S
O99 Co98 2.216 . S
O99 C106 1.247 . S
O100 Co98 2.091 . S
O100 C106 1.261 . S
C101 O110 1.247 . S
C101 O111 1.272 . S
O102 Co98 2.004 . S
O102 C107 1.259 . S
Co103 O104 2.061 . S
Co103 O109 2.052 . S
Co103 O111 2.135 . S
O104 Co103 2.061 . S
O104 C107 1.235 . S
C105 O108 1.238 . S
C105 O109 1.241 . S
C106 O99 1.247 . S
C106 O100 1.261 . S
C107 O102 1.259 . S
C107 O104 1.235 . S
O108 Co98 2.021 . S
O108 C105 1.238 . S
O109 Co103 2.052 . S
O109 C105 1.241 . S
O110 Co98 2.137 . S
O110 C101 1.247 . S
O111 Co98 2.244 . S
O111 C101 1.272 . S
O111 Co103 2.135 . S
Co112 O113 2.216 . S
Co112 O114 2.091 . S
Co112 O116 2.004 . S
Co112 O122 2.021 . S
Co112 O124 2.137 . S
Co112 O125 2.244 . S
O113 Co112 2.216 . S
O113 C120 1.247 . S
O114 Co112 2.091 . S
O114 C120 1.261 . S
C115 O124 1.247 . S
C115 O125 1.272 . S
O116 Co112 2.004 . S
O116 C121 1.259 . S
Co117 O118 2.061 . S
Co117 O123 2.052 . S
Co117 O125 2.135 . S
O118 Co117 2.061 . S
O118 C121 1.235 . S
C119 O122 1.238 . S
C119 O123 1.241 . S
C120 O113 1.247 . S
C120 O114 1.261 . S
C121 O116 1.259 . S
C121 O118 1.235 . S
O122 Co112 2.021 . S
O122 C119 1.238 . S
O123 Co117 2.052 . S
O123 C119 1.241 . S
O124 Co112 2.137 . S
O124 C115 1.247 . S
O125 Co112 2.244 . S
O125 C115 1.272 . S
O125 Co117 2.135 . S
Co126 O127 2.216 . S
Co126 O128 2.091 . S
Co126 O130 2.004 . S
Co126 O136 2.021 . S
Co126 O138 2.137 . S
Co126 O139 2.244 . S
O127 Co126 2.216 . S
O127 C134 1.247 . S
O128 Co126 2.091 . S
O128 C134 1.261 . S
C129 O138 1.247 . S
C129 O139 1.272 . S
O130 Co126 2.004 . S
O130 C135 1.259 . S
Co131 O132 2.061 . S
Co131 O137 2.052 . S
Co131 O139 2.135 . S
O132 Co131 2.061 . S
O132 C135 1.235 . S
C133 O136 1.238 . S
C133 O137 1.241 . S
C134 O127 1.247 . S
C134 O128 1.261 . S
C135 O130 1.259 . S
C135 O132 1.235 . S
O136 Co126 2.021 . S
O136 C133 1.238 . S
O137 Co131 2.052 . S
O137 C133 1.241 . S
O138 Co126 2.137 . S
O138 C129 1.247 . S
O139 Co126 2.244 . S
O139 C129 1.272 . S
O139 Co131 2.135 . S
Co140 O141 2.216 . S
Co140 O142 2.091 . S
Co140 O144 2.004 . S
Co140 O150 2.021 . S
Co140 O152 2.137 . S
Co140 O153 2.244 . S
O141 Co140 2.216 . S
O141 C148 1.247 . S
O142 Co140 2.091 . S
O142 C148 1.261 . S
C143 O152 1.247 . S
C143 O153 1.272 . S
O144 Co140 2.004 . S
O144 C149 1.259 . S
Co145 O146 2.061 . S
Co145 O151 2.052 . S
Co145 O153 2.135 . S
O146 Co145 2.061 . S
O146 C149 1.235 . S
C147 O150 1.238 . S
C147 O151 1.241 . S
C148 O141 1.247 . S
C148 O142 1.261 . S
C149 O144 1.259 . S
C149 O146 1.235 . S
O150 Co140 2.021 . S
O150 C147 1.238 . S
O151 Co145 2.052 . S
O151 C147 1.241 . S
O152 Co140 2.137 . S
O152 C143 1.247 . S
O153 Co140 2.244 . S
O153 C143 1.272 . S
O153 Co145 2.135 . S
Co154 O155 2.216 . S
Co154 O156 2.091 . S
Co154 O158 2.004 . S
Co154 O164 2.021 . S
Co154 O166 2.137 . S
Co154 O167 2.244 . S
O155 Co154 2.216 . S
O155 C162 1.247 . S
O156 Co154 2.091 . S
O156 C162 1.261 . S
C157 O166 1.247 . S
C157 O167 1.272 . S
O158 Co154 2.004 . S
O158 C163 1.259 . S
Co159 O160 2.061 . S
Co159 O165 2.052 . S
Co159 O167 2.135 . S
O160 Co159 2.061 . S
O160 C163 1.235 . S
C161 O164 1.238 . S
C161 O165 1.241 . S
C162 O155 1.247 . S
C162 O156 1.261 . S
C163 O158 1.259 . S
C163 O160 1.235 . S
O164 Co154 2.021 . S
O164 C161 1.238 . S
O165 Co159 2.052 . S
O165 C161 1.241 . S
O166 Co154 2.137 . S
O166 C157 1.247 . S
O167 Co154 2.244 . S
O167 C157 1.272 . S
O167 Co159 2.135 . S
Co168 O169 2.216 . S
Co168 O170 2.091 . S
Co168 O172 2.004 . S
Co168 O178 2.021 . S
Co168 O180 2.137 . S
Co168 O181 2.244 . S
O169 Co168 2.216 . S
O169 C176 1.247 . S
O170 Co168 2.091 . S
O170 C176 1.261 . S
C171 O180 1.247 . S
C171 O181 1.272 . S
O172 Co168 2.004 . S
O172 C177 1.259 . S
Co173 O174 2.061 . S
Co173 O179 2.052 . S
Co173 O181 2.135 . S
O174 Co173 2.061 . S
O174 C177 1.235 . S
C175 O178 1.238 . S
C175 O179 1.241 . S
C176 O169 1.247 . S
C176 O170 1.261 . S
C177 O172 1.259 . S
C177 O174 1.235 . S
O178 Co168 2.021 . S
O178 C175 1.238 . S
O179 Co173 2.052 . S
O179 C175 1.241 . S
O180 Co168 2.137 . S
O180 C171 1.247 . S
O181 Co168 2.244 . S
O181 C171 1.272 . S
O181 Co173 2.135 . S
Co182 O183 2.216 . S
Co182 O184 2.091 . S
Co182 O186 2.004 . S
Co182 O192 2.021 . S
Co182 O194 2.137 . S
Co182 O195 2.244 . S
O183 Co182 2.216 . S
O183 C190 1.247 . S
O184 Co182 2.091 . S
O184 C190 1.261 . S
C185 O194 1.247 . S
C185 O195 1.272 . S
O186 Co182 2.004 . S
O186 C191 1.259 . S
Co187 O188 2.061 . S
Co187 O193 2.052 . S
Co187 O195 2.135 . S
O188 Co187 2.061 . S
O188 C191 1.235 . S
C189 O192 1.238 . S
C189 O193 1.241 . S
C190 O183 1.247 . S
C190 O184 1.261 . S
C191 O186 1.259 . S
C191 O188 1.235 . S
O192 Co182 2.021 . S
O192 C189 1.238 . S
O193 Co187 2.052 . S
O193 C189 1.241 . S
O194 Co182 2.137 . S
O194 C185 1.247 . S
O195 Co182 2.244 . S
O195 C185 1.272 . S
O195 Co187 2.135 . S
Co196 O197 2.216 . S
Co196 O198 2.091 . S
Co196 O200 2.004 . S
Co196 O206 2.021 . S
Co196 O208 2.137 . S
Co196 O209 2.244 . S
O197 Co196 2.216 . S
O197 C204 1.247 . S
O198 Co196 2.091 . S
O198 C204 1.261 . S
C199 O208 1.247 . S
C199 O209 1.272 . S
O200 Co196 2.004 . S
O200 C205 1.259 . S
Co201 O202 2.061 . S
Co201 O207 2.052 . S
Co201 O209 2.135 . S
O202 Co201 2.061 . S
O202 C205 1.235 . S
C203 O206 1.238 . S
C203 O207 1.241 . S
C204 O197 1.247 . S
C204 O198 1.261 . S
C205 O200 1.259 . S
C205 O202 1.235 . S
O206 Co196 2.021 . S
O206 C203 1.238 . S
O207 Co201 2.052 . S
O207 C203 1.241 . S
O208 Co196 2.137 . S
O208 C199 1.247 . S
O209 Co196 2.244 . S
O209 C199 1.272 . S
O209 Co201 2.135 . S
Co210 O211 2.216 . S
Co210 O212 2.091 . S
Co210 O214 2.004 . S
Co210 O220 2.021 . S
Co210 O222 2.137 . S
Co210 O223 2.244 . S
O211 Co210 2.216 . S
O211 C218 1.247 . S
O212 Co210 2.091 . S
O212 C218 1.261 . S
C213 O222 1.247 . S
C213 O223 1.272 . S
O214 Co210 2.004 . S
O214 C219 1.259 . S
Co215 O216 2.061 . S
Co215 O221 2.052 . S
Co215 O223 2.135 . S
O216 Co215 2.061 . S
O216 C219 1.235 . S
C217 O220 1.238 . S
C217 O221 1.241 . S
C218 O211 1.247 . S
C218 O212 1.261 . S
C219 O214 1.259 . S
C219 O216 1.235 . S
O220 Co210 2.021 . S
O220 C217 1.238 . S
O221 Co215 2.052 . S
O221 C217 1.241 . S
O222 Co210 2.137 . S
O222 C213 1.247 . S
O223 Co210 2.244 . S
O223 C213 1.272 . S
O223 Co215 2.135 . S
Co224 O225 2.216 . S
Co224 O226 2.091 . S
Co224 O228 2.004 . S
Co224 O234 2.021 . S
Co224 O236 2.137 . S
Co224 O237 2.244 . S
O225 Co224 2.216 . S
O225 C232 1.247 . S
O226 Co224 2.091 . S
O226 C232 1.261 . S
C227 O236 1.247 . S
C227 O237 1.272 . S
O228 Co224 2.004 . S
O228 C233 1.259 . S
Co229 O230 2.061 . S
Co229 O235 2.052 . S
Co229 O237 2.135 . S
O230 Co229 2.061 . S
O230 C233 1.235 . S
C231 O234 1.238 . S
C231 O235 1.241 . S
C232 O225 1.247 . S
C232 O226 1.261 . S
C233 O228 1.259 . S
C233 O230 1.235 . S
O234 Co224 2.021 . S
O234 C231 1.238 . S
O235 Co229 2.052 . S
O235 C231 1.241 . S
O236 Co224 2.137 . S
O236 C227 1.247 . S
O237 Co224 2.244 . S
O237 C227 1.272 . S
O237 Co229 2.135 . S
Co238 O239 2.216 . S
Co238 O240 2.091 . S
Co238 O242 2.004 . S
Co238 O248 2.021 . S
Co238 O250 2.137 . S
Co238 O251 2.244 . S
O239 Co238 2.216 . S
O239 C246 1.247 . S
O240 Co238 2.091 . S
O240 C246 1.261 . S
C241 O250 1.247 . S
C241 O251 1.272 . S
O242 Co238 2.004 . S
O242 C247 1.259 . S
Co243 O244 2.061 . S
Co243 O249 2.052 . S
Co243 O251 2.135 . S
O244 Co243 2.061 . S
O244 C247 1.235 . S
C245 O248 1.238 . S
C245 O249 1.241 . S
C246 O239 1.247 . S
C246 O240 1.261 . S
C247 O242 1.259 . S
C247 O244 1.235 . S
O248 Co238 2.021 . S
O248 C245 1.238 . S
O249 Co243 2.052 . S
O249 C245 1.241 . S
O250 Co238 2.137 . S
O250 C241 1.247 . S
O251 Co238 2.244 . S
O251 C241 1.272 . S
O251 Co243 2.135 . S
Co252 O253 2.216 . S
Co252 O254 2.091 . S
Co252 O256 2.004 . S
Co252 O262 2.021 . S
Co252 O264 2.137 . S
Co252 O265 2.244 . S
O253 Co252 2.216 . S
O253 C260 1.247 . S
O254 Co252 2.091 . S
O254 C260 1.261 . S
C255 O264 1.247 . S
C255 O265 1.272 . S
O256 Co252 2.004 . S
O256 C261 1.259 . S
Co257 O258 2.061 . S
Co257 O263 2.052 . S
Co257 O265 2.135 . S
O258 Co257 2.061 . S
O258 C261 1.235 . S
C259 O262 1.238 . S
C259 O263 1.241 . S
C260 O253 1.247 . S
C260 O254 1.261 . S
C261 O256 1.259 . S
C261 O258 1.235 . S
O262 Co252 2.021 . S
O262 C259 1.238 . S
O263 Co257 2.052 . S
O263 C259 1.241 . S
O264 Co252 2.137 . S
O264 C255 1.247 . S
O265 Co252 2.244 . S
O265 C255 1.272 . S
O265 Co257 2.135 . S
Co266 O267 2.216 . S
Co266 O268 2.091 . S
Co266 O270 2.004 . S
Co266 O276 2.021 . S
Co266 O278 2.137 . S
Co266 O279 2.244 . S
O267 Co266 2.216 . S
O267 C274 1.247 . S
O268 Co266 2.091 . S
O268 C274 1.261 . S
C269 O278 1.247 . S
C269 O279 1.272 . S
O270 Co266 2.004 . S
O270 C275 1.259 . S
Co271 O272 2.061 . S
Co271 O277 2.052 . S
Co271 O279 2.135 . S
O272 Co271 2.061 . S
O272 C275 1.235 . S
C273 O276 1.238 . S
C273 O277 1.241 . S
C274 O267 1.247 . S
C274 O268 1.261 . S
C275 O270 1.259 . S
C275 O272 1.235 . S
O276 Co266 2.021 . S
O276 C273 1.238 . S
O277 Co271 2.052 . S
O277 C273 1.241 . S
O278 Co266 2.137 . S
O278 C269 1.247 . S
O279 Co266 2.244 . S
O279 C269 1.272 . S
O279 Co271 2.135 . S
Co280 O281 2.216 . S
Co280 O282 2.091 . S
Co280 O284 2.004 . S
Co280 O290 2.021 . S
Co280 O292 2.137 . S
Co280 O293 2.244 . S
O281 Co280 2.216 . S
O281 C288 1.247 . S
O282 Co280 2.091 . S
O282 C288 1.261 . S
C283 O292 1.247 . S
C283 O293 1.272 . S
O284 Co280 2.004 . S
O284 C289 1.259 . S
Co285 O286 2.061 . S
Co285 O291 2.052 . S
Co285 O293 2.135 . S
O286 Co285 2.061 . S
O286 C289 1.235 . S
C287 O290 1.238 . S
C287 O291 1.241 . S
C288 O281 1.247 . S
C288 O282 1.261 . S
C289 O284 1.259 . S
C289 O286 1.235 . S
O290 Co280 2.021 . S
O290 C287 1.238 . S
O291 Co285 2.052 . S
O291 C287 1.241 . S
O292 Co280 2.137 . S
O292 C283 1.247 . S
O293 Co280 2.244 . S
O293 C283 1.272 . S
O293 Co285 2.135 . S
Co294 O295 2.216 . S
Co294 O296 2.091 . S
Co294 O298 2.004 . S
Co294 O304 2.021 . S
Co294 O306 2.137 . S
Co294 O307 2.244 . S
O295 Co294 2.216 . S
O295 C302 1.247 . S
O296 Co294 2.091 . S
O296 C302 1.261 . S
C297 O306 1.247 . S
C297 O307 1.272 . S
O298 Co294 2.004 . S
O298 C303 1.259 . S
Co299 O300 2.061 . S
Co299 O305 2.052 . S
Co299 O307 2.135 . S
O300 Co299 2.061 . S
O300 C303 1.235 . S
C301 O304 1.238 . S
C301 O305 1.241 . S
C302 O295 1.247 . S
C302 O296 1.261 . S
C303 O298 1.259 . S
C303 O300 1.235 . S
O304 Co294 2.021 . S
O304 C301 1.238 . S
O305 Co299 2.052 . S
O305 C301 1.241 . S
O306 Co294 2.137 . S
O306 C297 1.247 . S
O307 Co294 2.244 . S
O307 C297 1.272 . S
O307 Co299 2.135 . S
Co308 O309 2.216 . S
Co308 O310 2.091 . S
Co308 O312 2.004 . S
Co308 O318 2.021 . S
Co308 O320 2.137 . S
Co308 O321 2.244 . S
O309 Co308 2.216 . S
O309 C316 1.247 . S
O310 Co308 2.091 . S
O310 C316 1.261 . S
C311 O320 1.247 . S
C311 O321 1.272 . S
O312 Co308 2.004 . S
O312 C317 1.259 . S
Co313 O314 2.061 . S
Co313 O319 2.052 . S
Co313 O321 2.135 . S
O314 Co313 2.061 . S
O314 C317 1.235 . S
C315 O318 1.238 . S
C315 O319 1.241 . S
C316 O309 1.247 . S
C316 O310 1.261 . S
C317 O312 1.259 . S
C317 O314 1.235 . S
O318 Co308 2.021 . S
O318 C315 1.238 . S
O319 Co313 2.052 . S
O319 C315 1.241 . S
O320 Co308 2.137 . S
O320 C311 1.247 . S
O321 Co308 2.244 . S
O321 C311 1.272 . S
O321 Co313 2.135 . S
Co322 O323 2.216 . S
Co322 O324 2.091 . S
Co322 O326 2.004 . S
Co322 O332 2.021 . S
Co322 O334 2.137 . S
Co322 O335 2.244 . S
O323 Co322 2.216 . S
O323 C330 1.247 . S
O324 Co322 2.091 . S
O324 C330 1.261 . S
C325 O334 1.247 . S
C325 O335 1.272 . S
O326 Co322 2.004 . S
O326 C331 1.259 . S
Co327 O328 2.061 . S
Co327 O333 2.052 . S
Co327 O335 2.135 . S
O328 Co327 2.061 . S
O328 C331 1.235 . S
C329 O332 1.238 . S
C329 O333 1.241 . S
C330 O323 1.247 . S
C330 O324 1.261 . S
C331 O326 1.259 . S
C331 O328 1.235 . S
O332 Co322 2.021 . S
O332 C329 1.238 . S
O333 Co327 2.052 . S
O333 C329 1.241 . S
O334 Co322 2.137 . S
O334 C325 1.247 . S
O335 Co322 2.244 . S
O335 C325 1.272 . S
O335 Co327 2.135 . S
Co336 O337 2.216 . S
Co336 O338 2.091 . S
Co336 O340 2.004 . S
Co336 O346 2.021 . S
Co336 O348 2.137 . S
Co336 O349 2.244 . S
O337 Co336 2.216 . S
O337 C344 1.247 . S
O338 Co336 2.091 . S
O338 C344 1.261 . S
C339 O348 1.247 . S
C339 O349 1.272 . S
O340 Co336 2.004 . S
O340 C345 1.259 . S
Co341 O342 2.061 . S
Co341 O347 2.052 . S
Co341 O349 2.135 . S
O342 Co341 2.061 . S
O342 C345 1.235 . S
C343 O346 1.238 . S
C343 O347 1.241 . S
C344 O337 1.247 . S
C344 O338 1.261 . S
C345 O340 1.259 . S
C345 O342 1.235 . S
O346 Co336 2.021 . S
O346 C343 1.238 . S
O347 Co341 2.052 . S
O347 C343 1.241 . S
O348 Co336 2.137 . S
O348 C339 1.247 . S
O349 Co336 2.244 . S
O349 C339 1.272 . S
O349 Co341 2.135 . S
Co350 O351 2.216 . S
Co350 O352 2.091 . S
Co350 O354 2.004 . S
Co350 O360 2.021 . S
Co350 O362 2.137 . S
Co350 O363 2.244 . S
O351 Co350 2.216 . S
O351 C358 1.247 . S
O352 Co350 2.091 . S
O352 C358 1.261 . S
C353 O362 1.247 . S
C353 O363 1.272 . S
O354 Co350 2.004 . S
O354 C359 1.259 . S
Co355 O356 2.061 . S
Co355 O361 2.052 . S
Co355 O363 2.135 . S
O356 Co355 2.061 . S
O356 C359 1.235 . S
C357 O360 1.238 . S
C357 O361 1.241 . S
C358 O351 1.247 . S
C358 O352 1.261 . S
C359 O354 1.259 . S
C359 O356 1.235 . S
O360 Co350 2.021 . S
O360 C357 1.238 . S
O361 Co355 2.052 . S
O361 C357 1.241 . S
O362 Co350 2.137 . S
O362 C353 1.247 . S
O363 Co350 2.244 . S
O363 C353 1.272 . S
O363 Co355 2.135 . S
Co364 O365 2.216 . S
Co364 O366 2.091 . S
Co364 O368 2.004 . S
Co364 O374 2.021 . S
Co364 O376 2.137 . S
Co364 O377 2.244 . S
O365 Co364 2.216 . S
O365 C372 1.247 . S
O366 Co364 2.091 . S
O366 C372 1.261 . S
C367 O376 1.247 . S
C367 O377 1.272 . S
O368 Co364 2.004 . S
O368 C373 1.259 . S
Co369 O370 2.061 . S
Co369 O375 2.052 . S
Co369 O377 2.135 . S
O370 Co369 2.061 . S
O370 C373 1.235 . S
C371 O374 1.238 . S
C371 O375 1.241 . S
C372 O365 1.247 . S
C372 O366 1.261 . S
C373 O368 1.259 . S
C373 O370 1.235 . S
O374 Co364 2.021 . S
O374 C371 1.238 . S
O375 Co369 2.052 . S
O375 C371 1.241 . S
O376 Co364 2.137 . S
O376 C367 1.247 . S
O377 Co364 2.244 . S
O377 C367 1.272 . S
O377 Co369 2.135 . S
Co378 O379 2.216 . S
Co378 O380 2.091 . S
Co378 O382 2.004 . S
Co378 O388 2.021 . S
Co378 O390 2.137 . S
Co378 O391 2.244 . S
O379 Co378 2.216 . S
O379 C386 1.247 . S
O380 Co378 2.091 . S
O380 C386 1.261 . S
C381 O390 1.247 . S
C381 O391 1.272 . S
O382 Co378 2.004 . S
O382 C387 1.259 . S
Co383 O384 2.061 . S
Co383 O389 2.052 . S
Co383 O391 2.135 . S
O384 Co383 2.061 . S
O384 C387 1.235 . S
C385 O388 1.238 . S
C385 O389 1.241 . S
C386 O379 1.247 . S
C386 O380 1.261 . S
C387 O382 1.259 . S
C387 O384 1.235 . S
O388 Co378 2.021 . S
O388 C385 1.238 . S
O389 Co383 2.052 . S
O389 C385 1.241 . S
O390 Co378 2.137 . S
O390 C381 1.247 . S
O391 Co378 2.244 . S
O391 C381 1.272 . S
O391 Co383 2.135 . S
Co392 O393 2.216 . S
Co392 O394 2.091 . S
Co392 O396 2.004 . S
Co392 O402 2.021 . S
Co392 O404 2.137 . S
Co392 O405 2.244 . S
O393 Co392 2.216 . S
O393 C400 1.247 . S
O394 Co392 2.091 . S
O394 C400 1.261 . S
C395 O404 1.247 . S
C395 O405 1.272 . S
O396 Co392 2.004 . S
O396 C401 1.259 . S
Co397 O398 2.061 . S
Co397 O403 2.052 . S
Co397 O405 2.135 . S
O398 Co397 2.061 . S
O398 C401 1.235 . S
C399 O402 1.238 . S
C399 O403 1.241 . S
C400 O393 1.247 . S
C400 O394 1.261 . S
C401 O396 1.259 . S
C401 O398 1.235 . S
O402 Co392 2.021 . S
O402 C399 1.238 . S
O403 Co397 2.052 . S
O403 C399 1.241 . S
O404 Co392 2.137 . S
O404 C395 1.247 . S
O405 Co392 2.244 . S
O405 C395 1.272 . S
O405 Co397 2.135 . S
Co406 O407 2.216 . S
Co406 O408 2.091 . S
Co406 O410 2.004 . S
Co406 O416 2.021 . S
Co406 O418 2.137 . S
Co406 O419 2.244 . S
O407 Co406 2.216 . S
O407 C414 1.247 . S
O408 Co406 2.091 . S
O408 C414 1.261 . S
C409 O418 1.247 . S
C409 O419 1.272 . S
O410 Co406 2.004 . S
O410 C415 1.259 . S
Co411 O412 2.061 . S
Co411 O417 2.052 . S
Co411 O419 2.135 . S
O412 Co411 2.061 . S
O412 C415 1.235 . S
C413 O416 1.238 . S
C413 O417 1.241 . S
C414 O407 1.247 . S
C414 O408 1.261 . S
C415 O410 1.259 . S
C415 O412 1.235 . S
O416 Co406 2.021 . S
O416 C413 1.238 . S
O417 Co411 2.052 . S
O417 C413 1.241 . S
O418 Co406 2.137 . S
O418 C409 1.247 . S
O419 Co406 2.244 . S
O419 C409 1.272 . S
O419 Co411 2.135 . S
Co420 O421 2.216 . S
Co420 O422 2.091 . S
Co420 O424 2.004 . S
Co420 O430 2.021 . S
Co420 O432 2.137 . S
Co420 O433 2.244 . S
O421 Co420 2.216 . S
O421 C428 1.247 . S
O422 Co420 2.091 . S
O422 C428 1.261 . S
C423 O432 1.247 . S
C423 O433 1.272 . S
O424 Co420 2.004 . S
O424 C429 1.259 . S
Co425 O426 2.061 . S
Co425 O431 2.052 . S
Co425 O433 2.135 . S
O426 Co425 2.061 . S
O426 C429 1.235 . S
C427 O430 1.238 . S
C427 O431 1.241 . S
C428 O421 1.247 . S
C428 O422 1.261 . S
C429 O424 1.259 . S
C429 O426 1.235 . S
O430 Co420 2.021 . S
O430 C427 1.238 . S
O431 Co425 2.052 . S
O431 C427 1.241 . S
O432 Co420 2.137 . S
O432 C423 1.247 . S
O433 Co420 2.244 . S
O433 C423 1.272 . S
O433 Co425 2.135 . S
Co434 O435 2.216 . S
Co434 O436 2.091 . S
Co434 O438 2.004 . S
Co434 O444 2.021 . S
Co434 O446 2.137 . S
Co434 O447 2.244 . S
O435 Co434 2.216 . S
O435 C442 1.247 . S
O436 Co434 2.091 . S
O436 C442 1.261 . S
C437 O446 1.247 . S
C437 O447 1.272 . S
O438 Co434 2.004 . S
O438 C443 1.259 . S
Co439 O440 2.061 . S
Co439 O445 2.052 . S
Co439 O447 2.135 . S
O440 Co439 2.061 . S
O440 C443 1.235 . S
C441 O444 1.238 . S
C441 O445 1.241 . S
C442 O435 1.247 . S
C442 O436 1.261 . S
C443 O438 1.259 . S
C443 O440 1.235 . S
O444 Co434 2.021 . S
O444 C441 1.238 . S
O445 Co439 2.052 . S
O445 C441 1.241 . S
O446 Co434 2.137 . S
O446 C437 1.247 . S
O447 Co434 2.244 . S
O447 C437 1.272 . S
O447 Co439 2.135 . S
H448 C456 0.950 . S
H449 C461 0.950 . S
H450 C458 0.950 . S
H451 C460 0.950 . S
H452 C462 0.950 . S
H453 C464 0.950 . S
H454 C466 0.950 . S
H455 C467 0.950 . S
C456 H448 0.950 . S
C456 C457 1.386 . S
C456 C458 1.391 . S
C457 C456 1.386 . S
C457 C461 1.393 . S
C458 H450 0.950 . S
C458 C456 1.391 . S
C458 C459 1.400 . S
C459 C458 1.400 . S
C459 C460 1.398 . S
C459 C465 1.491 . S
C460 H451 0.950 . S
C460 C459 1.398 . S
C460 C461 1.391 . S
C461 H449 0.950 . S
C461 C457 1.393 . S
C461 C460 1.391 . S
C462 H452 0.950 . S
C462 C463 1.386 . S
C462 C464 1.391 . S
C463 C462 1.386 . S
C463 C467 1.393 . S
C464 H453 0.950 . S
C464 C462 1.391 . S
C464 C465 1.400 . S
C465 C459 1.491 . S
C465 C464 1.400 . S
C465 C466 1.398 . S
C466 H454 0.950 . S
C466 C465 1.398 . S
C466 C467 1.391 . S
C467 H455 0.950 . S
C467 C463 1.393 . S
C467 C466 1.391 . S
H468 C476 0.950 . S
H469 C481 0.950 . S
H470 C478 0.950 . S
H471 C480 0.950 . S
H472 C482 0.950 . S
H473 C484 0.950 . S
H474 C486 0.950 . S
H475 C487 0.950 . S
C476 H468 0.950 . S
C476 C477 1.386 . S
C476 C478 1.391 . S
C477 C476 1.386 . S
C477 C481 1.393 . S
C478 H470 0.950 . S
C478 C476 1.391 . S
C478 C479 1.400 . S
C479 C478 1.400 . S
C479 C480 1.398 . S
C479 C485 1.491 . S
C480 H471 0.950 . S
C480 C479 1.398 . S
C480 C481 1.391 . S
C481 H469 0.950 . S
C481 C477 1.393 . S
C481 C480 1.391 . S
C482 H472 0.950 . S
C482 C483 1.386 . S
C482 C484 1.391 . S
C483 C482 1.386 . S
C483 C487 1.393 . S
C484 H473 0.950 . S
C484 C482 1.391 . S
C484 C485 1.400 . S
C485 C479 1.491 . S
C485 C484 1.400 . S
C485 C486 1.398 . S
C486 H474 0.950 . S
C486 C485 1.398 . S
C486 C487 1.391 . S
C487 H475 0.950 . S
C487 C483 1.393 . S
C487 C486 1.391 . S
H488 C496 0.950 . S
H489 C501 0.950 . S
H490 C498 0.950 . S
H491 C500 0.950 . S
H492 C502 0.950 . S
H493 C504 0.950 . S
H494 C506 0.950 . S
H495 C507 0.950 . S
C496 H488 0.950 . S
C496 C497 1.386 . S
C496 C498 1.391 . S
C497 C496 1.386 . S
C497 C501 1.393 . S
C498 H490 0.950 . S
C498 C496 1.391 . S
C498 C499 1.400 . S
C499 C498 1.400 . S
C499 C500 1.398 . S
C499 C505 1.491 . S
C500 H491 0.950 . S
C500 C499 1.398 . S
C500 C501 1.391 . S
C501 H489 0.950 . S
C501 C497 1.393 . S
C501 C500 1.391 . S
C502 H492 0.950 . S
C502 C503 1.386 . S
C502 C504 1.391 . S
C503 C502 1.386 . S
C503 C507 1.393 . S
C504 H493 0.950 . S
C504 C502 1.391 . S
C504 C505 1.400 . S
C505 C499 1.491 . S
C505 C504 1.400 . S
C505 C506 1.398 . S
C506 H494 0.950 . S
C506 C505 1.398 . S
C506 C507 1.391 . S
C507 H495 0.950 . S
C507 C503 1.393 . S
C507 C506 1.391 . S
H508 C516 0.950 . S
H509 C521 0.950 . S
H510 C518 0.950 . S
H511 C520 0.950 . S
H512 C522 0.950 . S
H513 C524 0.950 . S
H514 C526 0.950 . S
H515 C527 0.950 . S
C516 H508 0.950 . S
C516 C517 1.386 . S
C516 C518 1.391 . S
C517 C516 1.386 . S
C517 C521 1.393 . S
C518 H510 0.950 . S
C518 C516 1.391 . S
C518 C519 1.400 . S
C519 C518 1.400 . S
C519 C520 1.398 . S
C519 C525 1.491 . S
C520 H511 0.950 . S
C520 C519 1.398 . S
C520 C521 1.391 . S
C521 H509 0.950 . S
C521 C517 1.393 . S
C521 C520 1.391 . S
C522 H512 0.950 . S
C522 C523 1.386 . S
C522 C524 1.391 . S
C523 C522 1.386 . S
C523 C527 1.393 . S
C524 H513 0.950 . S
C524 C522 1.391 . S
C524 C525 1.400 . S
C525 C519 1.491 . S
C525 C524 1.400 . S
C525 C526 1.398 . S
C526 H514 0.950 . S
C526 C525 1.398 . S
C526 C527 1.391 . S
C527 H515 0.950 . S
C527 C523 1.393 . S
C527 C526 1.391 . S
H528 C536 0.950 . S
H529 C541 0.950 . S
H530 C538 0.950 . S
H531 C540 0.950 . S
H532 C542 0.950 . S
H533 C544 0.950 . S
H534 C546 0.950 . S
H535 C547 0.950 . S
C536 H528 0.950 . S
C536 C537 1.386 . S
C536 C538 1.391 . S
C537 C536 1.386 . S
C537 C541 1.393 . S
C538 H530 0.950 . S
C538 C536 1.391 . S
C538 C539 1.400 . S
C539 C538 1.400 . S
C539 C540 1.398 . S
C539 C545 1.491 . S
C540 H531 0.950 . S
C540 C539 1.398 . S
C540 C541 1.391 . S
C541 H529 0.950 . S
C541 C537 1.393 . S
C541 C540 1.391 . S
C542 H532 0.950 . S
C542 C543 1.386 . S
C542 C544 1.391 . S
C543 C542 1.386 . S
C543 C547 1.393 . S
C544 H533 0.950 . S
C544 C542 1.391 . S
C544 C545 1.400 . S
C545 C539 1.491 . S
C545 C544 1.400 . S
C545 C546 1.398 . S
C546 H534 0.950 . S
C546 C545 1.398 . S
C546 C547 1.391 . S
C547 H535 0.950 . S
C547 C543 1.393 . S
C547 C546 1.391 . S
H548 C556 0.950 . S
H549 C561 0.950 . S
H550 C558 0.950 . S
H551 C560 0.950 . S
H552 C562 0.950 . S
H553 C564 0.950 . S
H554 C566 0.950 . S
H555 C567 0.950 . S
C556 H548 0.950 . S
C556 C557 1.386 . S
C556 C558 1.391 . S
C557 C556 1.386 . S
C557 C561 1.393 . S
C558 H550 0.950 . S
C558 C556 1.391 . S
C558 C559 1.400 . S
C559 C558 1.400 . S
C559 C560 1.398 . S
C559 C565 1.491 . S
C560 H551 0.950 . S
C560 C559 1.398 . S
C560 C561 1.391 . S
C561 H549 0.950 . S
C561 C557 1.393 . S
C561 C560 1.391 . S
C562 H552 0.950 . S
C562 C563 1.386 . S
C562 C564 1.391 . S
C563 C562 1.386 . S
C563 C567 1.393 . S
C564 H553 0.950 . S
C564 C562 1.391 . S
C564 C565 1.400 . S
C565 C559 1.491 . S
C565 C564 1.400 . S
C565 C566 1.398 . S
C566 H554 0.950 . S
C566 C565 1.398 . S
C566 C567 1.391 . S
C567 H555 0.950 . S
C567 C563 1.393 . S
C567 C566 1.391 . S
H568 C576 0.950 . S
H569 C581 0.950 . S
H570 C578 0.950 . S
H571 C580 0.950 . S
H572 C582 0.950 . S
H573 C584 0.950 . S
H574 C586 0.950 . S
H575 C587 0.950 . S
C576 H568 0.950 . S
C576 C577 1.386 . S
C576 C578 1.391 . S
C577 C576 1.386 . S
C577 C581 1.393 . S
C578 H570 0.950 . S
C578 C576 1.391 . S
C578 C579 1.400 . S
C579 C578 1.400 . S
C579 C580 1.398 . S
C579 C585 1.491 . S
C580 H571 0.950 . S
C580 C579 1.398 . S
C580 C581 1.391 . S
C581 H569 0.950 . S
C581 C577 1.393 . S
C581 C580 1.391 . S
C582 H572 0.950 . S
C582 C583 1.386 . S
C582 C584 1.391 . S
C583 C582 1.386 . S
C583 C587 1.393 . S
C584 H573 0.950 . S
C584 C582 1.391 . S
C584 C585 1.400 . S
C585 C579 1.491 . S
C585 C584 1.400 . S
C585 C586 1.398 . S
C586 H574 0.950 . S
C586 C585 1.398 . S
C586 C587 1.391 . S
C587 H575 0.950 . S
C587 C583 1.393 . S
C587 C586 1.391 . S
H588 C596 0.950 . S
H589 C601 0.950 . S
H590 C598 0.950 . S
H591 C600 0.950 . S
H592 C602 0.950 . S
H593 C604 0.950 . S
H594 C606 0.950 . S
H595 C607 0.950 . S
C596 H588 0.950 . S
C596 C597 1.386 . S
C596 C598 1.391 . S
C597 C596 1.386 . S
C597 C601 1.393 . S
C598 H590 0.950 . S
C598 C596 1.391 . S
C598 C599 1.400 . S
C599 C598 1.400 . S
C599 C600 1.398 . S
C599 C605 1.491 . S
C600 H591 0.950 . S
C600 C599 1.398 . S
C600 C601 1.391 . S
C601 H589 0.950 . S
C601 C597 1.393 . S
C601 C600 1.391 . S
C602 H592 0.950 . S
C602 C603 1.386 . S
C602 C604 1.391 . S
C603 C602 1.386 . S
C603 C607 1.393 . S
C604 H593 0.950 . S
C604 C602 1.391 . S
C604 C605 1.400 . S
C605 C599 1.491 . S
C605 C604 1.400 . S
C605 C606 1.398 . S
C606 H594 0.950 . S
C606 C605 1.398 . S
C606 C607 1.391 . S
C607 H595 0.950 . S
C607 C603 1.393 . S
C607 C606 1.391 . S
H608 C616 0.950 . S
H609 C621 0.950 . S
H610 C618 0.950 . S
H611 C620 0.950 . S
H612 C622 0.950 . S
H613 C624 0.950 . S
H614 C626 0.950 . S
H615 C627 0.950 . S
C616 H608 0.950 . S
C616 C617 1.386 . S
C616 C618 1.391 . S
C617 C616 1.386 . S
C617 C621 1.393 . S
C618 H610 0.950 . S
C618 C616 1.391 . S
C618 C619 1.400 . S
C619 C618 1.400 . S
C619 C620 1.398 . S
C619 C625 1.491 . S
C620 H611 0.950 . S
C620 C619 1.398 . S
C620 C621 1.391 . S
C621 H609 0.950 . S
C621 C617 1.393 . S
C621 C620 1.391 . S
C622 H612 0.950 . S
C622 C623 1.386 . S
C622 C624 1.391 . S
C623 C622 1.386 . S
C623 C627 1.393 . S
C624 H613 0.950 . S
C624 C622 1.391 . S
C624 C625 1.400 . S
C625 C619 1.491 . S
C625 C624 1.400 . S
C625 C626 1.398 . S
C626 H614 0.950 . S
C626 C625 1.398 . S
C626 C627 1.391 . S
C627 H615 0.950 . S
C627 C623 1.393 . S
C627 C626 1.391 . S
H628 C636 0.950 . S
H629 C641 0.950 . S
H630 C638 0.950 . S
H631 C640 0.950 . S
H632 C642 0.950 . S
H633 C644 0.950 . S
H634 C646 0.950 . S
H635 C647 0.950 . S
C636 H628 0.950 . S
C636 C637 1.386 . S
C636 C638 1.391 . S
C637 C636 1.386 . S
C637 C641 1.393 . S
C638 H630 0.950 . S
C638 C636 1.391 . S
C638 C639 1.400 . S
C639 C638 1.400 . S
C639 C640 1.398 . S
C639 C645 1.491 . S
C640 H631 0.950 . S
C640 C639 1.398 . S
C640 C641 1.391 . S
C641 H629 0.950 . S
C641 C637 1.393 . S
C641 C640 1.391 . S
C642 H632 0.950 . S
C642 C643 1.386 . S
C642 C644 1.391 . S
C643 C642 1.386 . S
C643 C647 1.393 . S
C644 H633 0.950 . S
C644 C642 1.391 . S
C644 C645 1.400 . S
C645 C639 1.491 . S
C645 C644 1.400 . S
C645 C646 1.398 . S
C646 H634 0.950 . S
C646 C645 1.398 . S
C646 C647 1.391 . S
C647 H635 0.950 . S
C647 C643 1.393 . S
C647 C646 1.391 . S
H648 C656 0.950 . S
H649 C661 0.950 . S
H650 C658 0.950 . S
H651 C660 0.950 . S
H652 C662 0.950 . S
H653 C664 0.950 . S
H654 C666 0.950 . S
H655 C667 0.950 . S
C656 H648 0.950 . S
C656 C657 1.386 . S
C656 C658 1.391 . S
C657 C656 1.386 . S
C657 C661 1.393 . S
C658 H650 0.950 . S
C658 C656 1.391 . S
C658 C659 1.400 . S
C659 C658 1.400 . S
C659 C660 1.398 . S
C659 C665 1.491 . S
C660 H651 0.950 . S
C660 C659 1.398 . S
C660 C661 1.391 . S
C661 H649 0.950 . S
C661 C657 1.393 . S
C661 C660 1.391 . S
C662 H652 0.950 . S
C662 C663 1.386 . S
C662 C664 1.391 . S
C663 C662 1.386 . S
C663 C667 1.393 . S
C664 H653 0.950 . S
C664 C662 1.391 . S
C664 C665 1.400 . S
C665 C659 1.491 . S
C665 C664 1.400 . S
C665 C666 1.398 . S
C666 H654 0.950 . S
C666 C665 1.398 . S
C666 C667 1.391 . S
C667 H655 0.950 . S
C667 C663 1.393 . S
C667 C666 1.391 . S
H668 C676 0.950 . S
H669 C681 0.950 . S
H670 C678 0.950 . S
H671 C680 0.950 . S
H672 C682 0.950 . S
H673 C684 0.950 . S
H674 C686 0.950 . S
H675 C687 0.950 . S
C676 H668 0.950 . S
C676 C677 1.386 . S
C676 C678 1.391 . S
C677 C676 1.386 . S
C677 C681 1.393 . S
C678 H670 0.950 . S
C678 C676 1.391 . S
C678 C679 1.400 . S
C679 C678 1.400 . S
C679 C680 1.398 . S
C679 C685 1.491 . S
C680 H671 0.950 . S
C680 C679 1.398 . S
C680 C681 1.391 . S
C681 H669 0.950 . S
C681 C677 1.393 . S
C681 C680 1.391 . S
C682 H672 0.950 . S
C682 C683 1.386 . S
C682 C684 1.391 . S
C683 C682 1.386 . S
C683 C687 1.393 . S
C684 H673 0.950 . S
C684 C682 1.391 . S
C684 C685 1.400 . S
C685 C679 1.491 . S
C685 C684 1.400 . S
C685 C686 1.398 . S
C686 H674 0.950 . S
C686 C685 1.398 . S
C686 C687 1.391 . S
C687 H675 0.950 . S
C687 C683 1.393 . S
C687 C686 1.391 . S
H688 C696 0.950 . S
H689 C701 0.950 . S
H690 C698 0.950 . S
H691 C700 0.950 . S
H692 C702 0.950 . S
H693 C704 0.950 . S
H694 C706 0.950 . S
H695 C707 0.950 . S
C696 H688 0.950 . S
C696 C697 1.386 . S
C696 C698 1.391 . S
C697 C696 1.386 . S
C697 C701 1.393 . S
C698 H690 0.950 . S
C698 C696 1.391 . S
C698 C699 1.400 . S
C699 C698 1.400 . S
C699 C700 1.398 . S
C699 C705 1.491 . S
C700 H691 0.950 . S
C700 C699 1.398 . S
C700 C701 1.391 . S
C701 H689 0.950 . S
C701 C697 1.393 . S
C701 C700 1.391 . S
C702 H692 0.950 . S
C702 C703 1.386 . S
C702 C704 1.391 . S
C703 C702 1.386 . S
C703 C707 1.393 . S
C704 H693 0.950 . S
C704 C702 1.391 . S
C704 C705 1.400 . S
C705 C699 1.491 . S
C705 C704 1.400 . S
C705 C706 1.398 . S
C706 H694 0.950 . S
C706 C705 1.398 . S
C706 C707 1.391 . S
C707 H695 0.950 . S
C707 C703 1.393 . S
C707 C706 1.391 . S
H708 C716 0.950 . S
H709 C721 0.950 . S
H710 C718 0.950 . S
H711 C720 0.950 . S
H712 C722 0.950 . S
H713 C724 0.950 . S
H714 C726 0.950 . S
H715 C727 0.950 . S
C716 H708 0.950 . S
C716 C717 1.386 . S
C716 C718 1.391 . S
C717 C716 1.386 . S
C717 C721 1.393 . S
C718 H710 0.950 . S
C718 C716 1.391 . S
C718 C719 1.400 . S
C719 C718 1.400 . S
C719 C720 1.398 . S
C719 C725 1.491 . S
C720 H711 0.950 . S
C720 C719 1.398 . S
C720 C721 1.391 . S
C721 H709 0.950 . S
C721 C717 1.393 . S
C721 C720 1.391 . S
C722 H712 0.950 . S
C722 C723 1.386 . S
C722 C724 1.391 . S
C723 C722 1.386 . S
C723 C727 1.393 . S
C724 H713 0.950 . S
C724 C722 1.391 . S
C724 C725 1.400 . S
C725 C719 1.491 . S
C725 C724 1.400 . S
C725 C726 1.398 . S
C726 H714 0.950 . S
C726 C725 1.398 . S
C726 C727 1.391 . S
C727 H715 0.950 . S
C727 C723 1.393 . S
C727 C726 1.391 . S
H728 C736 0.950 . S
H729 C741 0.950 . S
H730 C738 0.950 . S
H731 C740 0.950 . S
H732 C742 0.950 . S
H733 C744 0.950 . S
H734 C746 0.950 . S
H735 C747 0.950 . S
C736 H728 0.950 . S
C736 C737 1.386 . S
C736 C738 1.391 . S
C737 C736 1.386 . S
C737 C741 1.393 . S
C738 H730 0.950 . S
C738 C736 1.391 . S
C738 C739 1.400 . S
C739 C738 1.400 . S
C739 C740 1.398 . S
C739 C745 1.491 . S
C740 H731 0.950 . S
C740 C739 1.398 . S
C740 C741 1.391 . S
C741 H729 0.950 . S
C741 C737 1.393 . S
C741 C740 1.391 . S
C742 H732 0.950 . S
C742 C743 1.386 . S
C742 C744 1.391 . S
C743 C742 1.386 . S
C743 C747 1.393 . S
C744 H733 0.950 . S
C744 C742 1.391 . S
C744 C745 1.400 . S
C745 C739 1.491 . S
C745 C744 1.400 . S
C745 C746 1.398 . S
C746 H734 0.950 . S
C746 C745 1.398 . S
C746 C747 1.391 . S
C747 H735 0.950 . S
C747 C743 1.393 . S
C747 C746 1.391 . S
H748 C756 0.950 . S
H749 C761 0.950 . S
H750 C758 0.950 . S
H751 C760 0.950 . S
H752 C762 0.950 . S
H753 C764 0.950 . S
H754 C766 0.950 . S
H755 C767 0.950 . S
C756 H748 0.950 . S
C756 C757 1.386 . S
C756 C758 1.391 . S
C757 C756 1.386 . S
C757 C761 1.393 . S
C758 H750 0.950 . S
C758 C756 1.391 . S
C758 C759 1.400 . S
C759 C758 1.400 . S
C759 C760 1.398 . S
C759 C765 1.491 . S
C760 H751 0.950 . S
C760 C759 1.398 . S
C760 C761 1.391 . S
C761 H749 0.950 . S
C761 C757 1.393 . S
C761 C760 1.391 . S
C762 H752 0.950 . S
C762 C763 1.386 . S
C762 C764 1.391 . S
C763 C762 1.386 . S
C763 C767 1.393 . S
C764 H753 0.950 . S
C764 C762 1.391 . S
C764 C765 1.400 . S
C765 C759 1.491 . S
C765 C764 1.400 . S
C765 C766 1.398 . S
C766 H754 0.950 . S
C766 C765 1.398 . S
C766 C767 1.391 . S
C767 H755 0.950 . S
C767 C763 1.393 . S
C767 C766 1.391 . S
H768 C776 0.950 . S
H769 C781 0.950 . S
H770 C778 0.950 . S
H771 C780 0.950 . S
H772 C782 0.950 . S
H773 C784 0.950 . S
H774 C786 0.950 . S
H775 C787 0.950 . S
C776 H768 0.950 . S
C776 C777 1.386 . S
C776 C778 1.391 . S
C777 C776 1.386 . S
C777 C781 1.393 . S
C778 H770 0.950 . S
C778 C776 1.391 . S
C778 C779 1.400 . S
C779 C778 1.400 . S
C779 C780 1.398 . S
C779 C785 1.491 1_655 S
C780 H771 0.950 . S
C780 C779 1.398 . S
C780 C781 1.391 . S
C781 H769 0.950 . S
C781 C777 1.393 . S
C781 C780 1.391 . S
C782 H772 0.950 . S
C782 C783 1.386 . S
C782 C784 1.391 . S
C783 C782 1.386 . S
C783 C787 1.393 . S
C784 H773 0.950 . S
C784 C782 1.391 . S
C784 C785 1.400 . S
C785 C779 1.491 1_455 S
C785 C784 1.400 . S
C785 C786 1.398 . S
C786 H774 0.950 . S
C786 C785 1.398 . S
C786 C787 1.391 . S
C787 H775 0.950 . S
C787 C783 1.393 . S
C787 C786 1.391 . S
H788 C796 0.950 . S
H789 C801 0.950 . S
H790 C798 0.950 . S
H791 C800 0.950 . S
H792 C802 0.950 . S
H793 C804 0.950 . S
H794 C806 0.950 . S
H795 C807 0.950 . S
C796 H788 0.950 . S
C796 C797 1.386 . S
C796 C798 1.391 . S
C797 C796 1.386 . S
C797 C801 1.393 . S
C798 H790 0.950 . S
C798 C796 1.391 . S
C798 C799 1.400 . S
C799 C798 1.400 . S
C799 C800 1.398 . S
C799 C805 1.491 1_545 S
C800 H791 0.950 . S
C800 C799 1.398 . S
C800 C801 1.391 . S
C801 H789 0.950 . S
C801 C797 1.393 . S
C801 C800 1.391 . S
C802 H792 0.950 . S
C802 C803 1.386 . S
C802 C804 1.391 . S
C803 C802 1.386 . S
C803 C807 1.393 . S
C804 H793 0.950 . S
C804 C802 1.391 . S
C804 C805 1.400 . S
C805 C799 1.491 1_565 S
C805 C804 1.400 . S
C805 C806 1.398 . S
C806 H794 0.950 . S
C806 C805 1.398 . S
C806 C807 1.391 . S
C807 H795 0.950 . S
C807 C803 1.393 . S
C807 C806 1.391 . S
H808 C816 0.950 . S
H809 C821 0.950 . S
H810 C818 0.950 . S
H811 C820 0.950 . S
H812 C822 0.950 . S
H813 C824 0.950 . S
H814 C826 0.950 . S
H815 C827 0.950 . S
C816 H808 0.950 . S
C816 C817 1.386 . S
C816 C818 1.391 . S
C817 C816 1.386 . S
C817 C821 1.393 . S
C818 H810 0.950 . S
C818 C816 1.391 . S
C818 C819 1.400 . S
C819 C818 1.400 . S
C819 C820 1.398 . S
C819 C825 1.491 1_455 S
C820 H811 0.950 . S
C820 C819 1.398 . S
C820 C821 1.391 . S
C821 H809 0.950 . S
C821 C817 1.393 . S
C821 C820 1.391 . S
C822 H812 0.950 . S
C822 C823 1.386 . S
C822 C824 1.391 . S
C823 C822 1.386 . S
C823 C827 1.393 . S
C824 H813 0.950 . S
C824 C822 1.391 . S
C824 C825 1.400 . S
C825 C819 1.491 1_655 S
C825 C824 1.400 . S
C825 C826 1.398 . S
C826 H814 0.950 . S
C826 C825 1.398 . S
C826 C827 1.391 . S
C827 H815 0.950 . S
C827 C823 1.393 . S
C827 C826 1.391 . S
H828 C836 0.950 . S
H829 C841 0.950 . S
H830 C838 0.950 . S
H831 C840 0.950 . S
H832 C842 0.950 . S
H833 C844 0.950 . S
H834 C846 0.950 . S
H835 C847 0.950 . S
C836 H828 0.950 . S
C836 C837 1.386 . S
C836 C838 1.391 . S
C837 C836 1.386 . S
C837 C841 1.393 . S
C838 H830 0.950 . S
C838 C836 1.391 . S
C838 C839 1.400 . S
C839 C838 1.400 . S
C839 C840 1.398 . S
C839 C845 1.491 1_565 S
C840 H831 0.950 . S
C840 C839 1.398 . S
C840 C841 1.391 . S
C841 H829 0.950 . S
C841 C837 1.393 . S
C841 C840 1.391 . S
C842 H832 0.950 . S
C842 C843 1.386 . S
C842 C844 1.391 . S
C843 C842 1.386 . S
C843 C847 1.393 . S
C844 H833 0.950 . S
C844 C842 1.391 . S
C844 C845 1.400 . S
C845 C839 1.491 1_545 S
C845 C844 1.400 . S
C845 C846 1.398 . S
C846 H834 0.950 . S
C846 C845 1.398 . S
C846 C847 1.391 . S
C847 H835 0.950 . S
C847 C843 1.393 . S
C847 C846 1.391 . S
H848 C856 0.950 . S
H849 C861 0.950 . S
H850 C858 0.950 . S
H851 C860 0.950 . S
H852 C862 0.950 . S
H853 C864 0.950 . S
H854 C866 0.950 . S
H855 C867 0.950 . S
C856 H848 0.950 . S
C856 C857 1.386 . S
C856 C858 1.391 . S
C857 C856 1.386 . S
C857 C861 1.393 . S
C858 H850 0.950 . S
C858 C856 1.391 . S
C858 C859 1.400 . S
C859 C858 1.400 . S
C859 C860 1.398 . S
C859 C865 1.491 1_455 S
C860 H851 0.950 . S
C860 C859 1.398 . S
C860 C861 1.391 . S
C861 H849 0.950 . S
C861 C857 1.393 . S
C861 C860 1.391 . S
C862 H852 0.950 . S
C862 C863 1.386 . S
C862 C864 1.391 . S
C863 C862 1.386 . S
C863 C867 1.393 . S
C864 H853 0.950 . S
C864 C862 1.391 . S
C864 C865 1.400 . S
C865 C859 1.491 1_655 S
C865 C864 1.400 . S
C865 C866 1.398 . S
C866 H854 0.950 . S
C866 C865 1.398 . S
C866 C867 1.391 . S
C867 H855 0.950 . S
C867 C863 1.393 . S
C867 C866 1.391 . S
H868 C876 0.950 . S
H869 C881 0.950 . S
H870 C878 0.950 . S
H871 C880 0.950 . S
H872 C882 0.950 . S
H873 C884 0.950 . S
H874 C886 0.950 . S
H875 C887 0.950 . S
C876 H868 0.950 . S
C876 C877 1.386 . S
C876 C878 1.391 . S
C877 C876 1.386 . S
C877 C881 1.393 . S
C878 H870 0.950 . S
C878 C876 1.391 . S
C878 C879 1.400 . S
C879 C878 1.400 . S
C879 C880 1.398 . S
C879 C885 1.491 1_565 S
C880 H871 0.950 . S
C880 C879 1.398 . S
C880 C881 1.391 . S
C881 H869 0.950 . S
C881 C877 1.393 . S
C881 C880 1.391 . S
C882 H872 0.950 . S
C882 C883 1.386 . S
C882 C884 1.391 . S
C883 C882 1.386 . S
C883 C887 1.393 . S
C884 H873 0.950 . S
C884 C882 1.391 . S
C884 C885 1.400 . S
C885 C879 1.491 1_545 S
C885 C884 1.400 . S
C885 C886 1.398 . S
C886 H874 0.950 . S
C886 C885 1.398 . S
C886 C887 1.391 . S
C887 H875 0.950 . S
C887 C883 1.393 . S
C887 C886 1.391 . S
H888 C896 0.950 . S
H889 C901 0.950 . S
H890 C898 0.950 . S
H891 C900 0.950 . S
H892 C902 0.950 . S
H893 C904 0.950 . S
H894 C906 0.950 . S
H895 C907 0.950 . S
C896 H888 0.950 . S
C896 C897 1.386 . S
C896 C898 1.391 . S
C897 C896 1.386 . S
C897 C901 1.393 . S
C898 H890 0.950 . S
C898 C896 1.391 . S
C898 C899 1.400 . S
C899 C898 1.400 . S
C899 C900 1.398 . S
C899 C905 1.491 1_455 S
C900 H891 0.950 . S
C900 C899 1.398 . S
C900 C901 1.391 . S
C901 H889 0.950 . S
C901 C897 1.393 . S
C901 C900 1.391 . S
C902 H892 0.950 . S
C902 C903 1.386 . S
C902 C904 1.391 . S
C903 C902 1.386 . S
C903 C907 1.393 . S
C904 H893 0.950 . S
C904 C902 1.391 . S
C904 C905 1.400 . S
C905 C899 1.491 1_655 S
C905 C904 1.400 . S
C905 C906 1.398 . S
C906 H894 0.950 . S
C906 C905 1.398 . S
C906 C907 1.391 . S
C907 H895 0.950 . S
C907 C903 1.393 . S
C907 C906 1.391 . S
H908 C916 0.950 . S
H909 C921 0.950 . S
H910 C918 0.950 . S
H911 C920 0.950 . S
H912 C922 0.950 . S
H913 C924 0.950 . S
H914 C926 0.950 . S
H915 C927 0.950 . S
C916 H908 0.950 . S
C916 C917 1.386 . S
C916 C918 1.391 . S
C917 C916 1.386 . S
C917 C921 1.393 . S
C918 H910 0.950 . S
C918 C916 1.391 . S
C918 C919 1.400 . S
C919 C918 1.400 . S
C919 C920 1.398 . S
C919 C925 1.491 1_545 S
C920 H911 0.950 . S
C920 C919 1.398 . S
C920 C921 1.391 . S
C921 H909 0.950 . S
C921 C917 1.393 . S
C921 C920 1.391 . S
C922 H912 0.950 . S
C922 C923 1.386 . S
C922 C924 1.391 . S
C923 C922 1.386 . S
C923 C927 1.393 . S
C924 H913 0.950 . S
C924 C922 1.391 . S
C924 C925 1.400 . S
C925 C919 1.491 1_565 S
C925 C924 1.400 . S
C925 C926 1.398 . S
C926 H914 0.950 . S
C926 C925 1.398 . S
C926 C927 1.391 . S
C927 H915 0.950 . S
C927 C923 1.393 . S
C927 C926 1.391 . S
H928 C936 0.950 . S
H929 C941 0.950 . S
H930 C938 0.950 . S
H931 C940 0.950 . S
H932 C942 0.950 . S
H933 C944 0.950 . S
H934 C946 0.950 . S
H935 C947 0.950 . S
C936 H928 0.950 . S
C936 C937 1.386 . S
C936 C938 1.391 . S
C937 C936 1.386 . S
C937 C941 1.393 . S
C938 H930 0.950 . S
C938 C936 1.391 . S
C938 C939 1.400 . S
C939 C938 1.400 . S
C939 C940 1.398 . S
C939 C945 1.491 . S
C940 H931 0.950 . S
C940 C939 1.398 . S
C940 C941 1.391 . S
C941 H929 0.950 . S
C941 C937 1.393 . S
C941 C940 1.391 . S
C942 H932 0.950 . S
C942 C943 1.386 . S
C942 C944 1.391 . S
C943 C942 1.386 . S
C943 C947 1.393 . S
C944 H933 0.950 . S
C944 C942 1.391 . S
C944 C945 1.400 . S
C945 C939 1.491 . S
C945 C944 1.400 . S
C945 C946 1.398 . S
C946 H934 0.950 . S
C946 C945 1.398 . S
C946 C947 1.391 . S
C947 H935 0.950 . S
C947 C943 1.393 . S
C947 C946 1.391 . S
H948 C956 0.950 . S
H949 C961 0.950 . S
H950 C958 0.950 . S
H951 C960 0.950 . S
H952 C962 0.950 . S
H953 C964 0.950 . S
H954 C966 0.950 . S
H955 C967 0.950 . S
C956 H948 0.950 . S
C956 C957 1.386 . S
C956 C958 1.391 . S
C957 C956 1.386 . S
C957 C961 1.393 . S
C958 H950 0.950 . S
C958 C956 1.391 . S
C958 C959 1.400 . S
C959 C958 1.400 . S
C959 C960 1.398 . S
C959 C965 1.491 . S
C960 H951 0.950 . S
C960 C959 1.398 . S
C960 C961 1.391 . S
C961 H949 0.950 . S
C961 C957 1.393 . S
C961 C960 1.391 . S
C962 H952 0.950 . S
C962 C963 1.386 . S
C962 C964 1.391 . S
C963 C962 1.386 . S
C963 C967 1.393 . S
C964 H953 0.950 . S
C964 C962 1.391 . S
C964 C965 1.400 . S
C965 C959 1.491 . S
C965 C964 1.400 . S
C965 C966 1.398 . S
C966 H954 0.950 . S
C966 C965 1.398 . S
C966 C967 1.391 . S
C967 H955 0.950 . S
C967 C963 1.393 . S
C967 C966 1.391 . S
H968 C976 0.950 . S
H969 C981 0.950 . S
H970 C978 0.950 . S
H971 C980 0.950 . S
H972 C982 0.950 . S
H973 C984 0.950 . S
H974 C986 0.950 . S
H975 C987 0.950 . S
C976 H968 0.950 . S
C976 C977 1.386 . S
C976 C978 1.391 . S
C977 C976 1.386 . S
C977 C981 1.393 . S
C978 H970 0.950 . S
C978 C976 1.391 . S
C978 C979 1.400 . S
C979 C978 1.400 . S
C979 C980 1.398 . S
C979 C985 1.491 . S
C980 H971 0.950 . S
C980 C979 1.398 . S
C980 C981 1.391 . S
C981 H969 0.950 . S
C981 C977 1.393 . S
C981 C980 1.391 . S
C982 H972 0.950 . S
C982 C983 1.386 . S
C982 C984 1.391 . S
C983 C982 1.386 . S
C983 C987 1.393 . S
C984 H973 0.950 . S
C984 C982 1.391 . S
C984 C985 1.400 . S
C985 C979 1.491 . S
C985 C984 1.400 . S
C985 C986 1.398 . S
C986 H974 0.950 . S
C986 C985 1.398 . S
C986 C987 1.391 . S
C987 H975 0.950 . S
C987 C983 1.393 . S
C987 C986 1.391 . S
H988 C996 0.950 . S
H989 C1001 0.950 . S
H990 C998 0.950 . S
H991 C1000 0.950 . S
H992 C1002 0.950 . S
H993 C1004 0.950 . S
H994 C1006 0.950 . S
H995 C1007 0.950 . S
C996 H988 0.950 . S
C996 C997 1.386 . S
C996 C998 1.391 . S
C997 C996 1.386 . S
C997 C1001 1.393 . S
C998 H990 0.950 . S
C998 C996 1.391 . S
C998 C999 1.400 . S
C999 C998 1.400 . S
C999 C1000 1.398 . S
C999 C1005 1.491 . S
C1000 H991 0.950 . S
C1000 C999 1.398 . S
C1000 C1001 1.391 . S
C1001 H989 0.950 . S
C1001 C997 1.393 . S
C1001 C1000 1.391 . S
C1002 H992 0.950 . S
C1002 C1003 1.386 . S
C1002 C1004 1.391 . S
C1003 C1002 1.386 . S
C1003 C1007 1.393 . S
C1004 H993 0.950 . S
C1004 C1002 1.391 . S
C1004 C1005 1.400 . S
C1005 C999 1.491 . S
C1005 C1004 1.400 . S
C1005 C1006 1.398 . S
C1006 H994 0.950 . S
C1006 C1005 1.398 . S
C1006 C1007 1.391 . S
C1007 H995 0.950 . S
C1007 C1003 1.393 . S
C1007 C1006 1.391 . S
H1008 C1016 0.950 . S
H1009 C1021 0.950 . S
H1010 C1018 0.950 . S
H1011 C1020 0.950 . S
H1012 C1022 0.950 . S
H1013 C1024 0.950 . S
H1014 C1026 0.950 . S
H1015 C1027 0.950 . S
C1016 H1008 0.950 . S
C1016 C1017 1.386 . S
C1016 C1018 1.391 . S
C1017 C1016 1.386 . S
C1017 C1021 1.393 . S
C1018 H1010 0.950 . S
C1018 C1016 1.391 . S
C1018 C1019 1.400 . S
C1019 C1018 1.400 . S
C1019 C1020 1.398 . S
C1019 C1025 1.491 . S
C1020 H1011 0.950 . S
C1020 C1019 1.398 . S
C1020 C1021 1.391 . S
C1021 H1009 0.950 . S
C1021 C1017 1.393 . S
C1021 C1020 1.391 . S
C1022 H1012 0.950 . S
C1022 C1023 1.386 . S
C1022 C1024 1.391 . S
C1023 C1022 1.386 . S
C1023 C1027 1.393 . S
C1024 H1013 0.950 . S
C1024 C1022 1.391 . S
C1024 C1025 1.400 . S
C1025 C1019 1.491 . S
C1025 C1024 1.400 . S
C1025 C1026 1.398 . S
C1026 H1014 0.950 . S
C1026 C1025 1.398 . S
C1026 C1027 1.391 . S
C1027 H1015 0.950 . S
C1027 C1023 1.393 . S
C1027 C1026 1.391 . S
H1028 C1036 0.950 . S
H1029 C1041 0.950 . S
H1030 C1038 0.950 . S
H1031 C1040 0.950 . S
H1032 C1042 0.950 . S
H1033 C1044 0.950 . S
H1034 C1046 0.950 . S
H1035 C1047 0.950 . S
C1036 H1028 0.950 . S
C1036 C1037 1.386 . S
C1036 C1038 1.391 . S
C1037 C1036 1.386 . S
C1037 C1041 1.393 . S
C1038 H1030 0.950 . S
C1038 C1036 1.391 . S
C1038 C1039 1.400 . S
C1039 C1038 1.400 . S
C1039 C1040 1.398 . S
C1039 C1045 1.491 . S
C1040 H1031 0.950 . S
C1040 C1039 1.398 . S
C1040 C1041 1.391 . S
C1041 H1029 0.950 . S
C1041 C1037 1.393 . S
C1041 C1040 1.391 . S
C1042 H1032 0.950 . S
C1042 C1043 1.386 . S
C1042 C1044 1.391 . S
C1043 C1042 1.386 . S
C1043 C1047 1.393 . S
C1044 H1033 0.950 . S
C1044 C1042 1.391 . S
C1044 C1045 1.400 . S
C1045 C1039 1.491 . S
C1045 C1044 1.400 . S
C1045 C1046 1.398 . S
C1046 H1034 0.950 . S
C1046 C1045 1.398 . S
C1046 C1047 1.391 . S
C1047 H1035 0.950 . S
C1047 C1043 1.393 . S
C1047 C1046 1.391 . S
H1048 C1056 0.950 . S
H1049 C1061 0.950 . S
H1050 C1058 0.950 . S
H1051 C1060 0.950 . S
H1052 C1062 0.950 . S
H1053 C1064 0.950 . S
H1054 C1066 0.950 . S
H1055 C1067 0.950 . S
C1056 H1048 0.950 . S
C1056 C1057 1.386 . S
C1056 C1058 1.391 . S
C1057 C1056 1.386 . S
C1057 C1061 1.393 . S
C1058 H1050 0.950 . S
C1058 C1056 1.391 . S
C1058 C1059 1.400 . S
C1059 C1058 1.400 . S
C1059 C1060 1.398 . S
C1059 C1065 1.491 . S
C1060 H1051 0.950 . S
C1060 C1059 1.398 . S
C1060 C1061 1.391 . S
C1061 H1049 0.950 . S
C1061 C1057 1.393 . S
C1061 C1060 1.391 . S
C1062 H1052 0.950 . S
C1062 C1063 1.386 . S
C1062 C1064 1.391 . S
C1063 C1062 1.386 . S
C1063 C1067 1.393 . S
C1064 H1053 0.950 . S
C1064 C1062 1.391 . S
C1064 C1065 1.400 . S
C1065 C1059 1.491 . S
C1065 C1064 1.400 . S
C1065 C1066 1.398 . S
C1066 H1054 0.950 . S
C1066 C1065 1.398 . S
C1066 C1067 1.391 . S
C1067 H1055 0.950 . S
C1067 C1063 1.393 . S
C1067 C1066 1.391 . S
H1068 C1076 0.950 . S
H1069 C1081 0.950 . S
H1070 C1078 0.950 . S
H1071 C1080 0.950 . S
H1072 C1082 0.950 . S
H1073 C1084 0.950 . S
H1074 C1086 0.950 . S
H1075 C1087 0.950 . S
C1076 H1068 0.950 . S
C1076 C1077 1.386 . S
C1076 C1078 1.391 . S
C1077 C1076 1.386 . S
C1077 C1081 1.393 . S
C1078 H1070 0.950 . S
C1078 C1076 1.391 . S
C1078 C1079 1.400 . S
C1079 C1078 1.400 . S
C1079 C1080 1.398 . S
C1079 C1085 1.491 . S
C1080 H1071 0.950 . S
C1080 C1079 1.398 . S
C1080 C1081 1.391 . S
C1081 H1069 0.950 . S
C1081 C1077 1.393 . S
C1081 C1080 1.391 . S
C1082 H1072 0.950 . S
C1082 C1083 1.386 . S
C1082 C1084 1.391 . S
C1083 C1082 1.386 . S
C1083 C1087 1.393 . S
C1084 H1073 0.950 . S
C1084 C1082 1.391 . S
C1084 C1085 1.400 . S
C1085 C1079 1.491 . S
C1085 C1084 1.400 . S
C1085 C1086 1.398 . S
C1086 H1074 0.950 . S
C1086 C1085 1.398 . S
C1086 C1087 1.391 . S
C1087 H1075 0.950 . S
C1087 C1083 1.393 . S
C1087 C1086 1.391 . S
H1088 C1096 0.950 . S
H1089 C1101 0.950 . S
H1090 C1098 0.950 . S
H1091 C1100 0.950 . S
H1092 C1102 0.950 . S
H1093 C1104 0.950 . S
H1094 C1106 0.950 . S
H1095 C1107 0.950 . S
C1096 H1088 0.950 . S
C1096 C1097 1.386 . S
C1096 C1098 1.391 . S
C1097 C1096 1.386 . S
C1097 C1101 1.393 . S
C1098 H1090 0.950 . S
C1098 C1096 1.391 . S
C1098 C1099 1.400 . S
C1099 C1098 1.400 . S
C1099 C1100 1.398 . S
C1099 C1105 1.491 . S
C1100 H1091 0.950 . S
C1100 C1099 1.398 . S
C1100 C1101 1.391 . S
C1101 H1089 0.950 . S
C1101 C1097 1.393 . S
C1101 C1100 1.391 . S
C1102 H1092 0.950 . S
C1102 C1103 1.386 . S
C1102 C1104 1.391 . S
C1103 C1102 1.386 . S
C1103 C1107 1.393 . S
C1104 H1093 0.950 . S
C1104 C1102 1.391 . S
C1104 C1105 1.400 . S
C1105 C1099 1.491 . S
C1105 C1104 1.400 . S
C1105 C1106 1.398 . S
C1106 H1094 0.950 . S
C1106 C1105 1.398 . S
C1106 C1107 1.391 . S
C1107 H1095 0.950 . S
C1107 C1103 1.393 . S
C1107 C1106 1.391 . S
H1108 C1116 0.950 . S
H1109 C1121 0.950 . S
H1110 C1118 0.950 . S
H1111 C1120 0.950 . S
H1112 C1122 0.950 . S
H1113 C1124 0.950 . S
H1114 C1126 0.950 . S
H1115 C1127 0.950 . S
C1116 H1108 0.950 . S
C1116 C1117 1.386 . S
C1116 C1118 1.391 . S
C1117 C1116 1.386 . S
C1117 C1121 1.393 . S
C1118 H1110 0.950 . S
C1118 C1116 1.391 . S
C1118 C1119 1.400 . S
C1119 C1118 1.400 . S
C1119 C1120 1.398 . S
C1119 C1125 1.491 . S
C1120 H1111 0.950 . S
C1120 C1119 1.398 . S
C1120 C1121 1.391 . S
C1121 H1109 0.950 . S
C1121 C1117 1.393 . S
C1121 C1120 1.391 . S
C1122 H1112 0.950 . S
C1122 C1123 1.386 . S
C1122 C1124 1.391 . S
C1123 C1122 1.386 . S
C1123 C1127 1.393 . S
C1124 H1113 0.950 . S
C1124 C1122 1.391 . S
C1124 C1125 1.400 . S
C1125 C1119 1.491 . S
C1125 C1124 1.400 . S
C1125 C1126 1.398 . S
C1126 H1114 0.950 . S
C1126 C1125 1.398 . S
C1126 C1127 1.391 . S
C1127 H1115 0.950 . S
C1127 C1123 1.393 . S
C1127 C1126 1.391 . S
H1128 C1136 0.950 . S
H1129 C1141 0.950 . S
H1130 C1138 0.950 . S
H1131 C1140 0.950 . S
H1132 C1142 0.950 . S
H1133 C1144 0.950 . S
H1134 C1146 0.950 . S
H1135 C1147 0.950 . S
C1136 H1128 0.950 . S
C1136 C1137 1.386 . S
C1136 C1138 1.391 . S
C1137 C1136 1.386 . S
C1137 C1141 1.393 . S
C1138 H1130 0.950 . S
C1138 C1136 1.391 . S
C1138 C1139 1.400 . S
C1139 C1138 1.400 . S
C1139 C1140 1.398 . S
C1139 C1145 1.491 . S
C1140 H1131 0.950 . S
C1140 C1139 1.398 . S
C1140 C1141 1.391 . S
C1141 H1129 0.950 . S
C1141 C1137 1.393 . S
C1141 C1140 1.391 . S
C1142 H1132 0.950 . S
C1142 C1143 1.386 . S
C1142 C1144 1.391 . S
C1143 C1142 1.386 . S
C1143 C1147 1.393 . S
C1144 H1133 0.950 . S
C1144 C1142 1.391 . S
C1144 C1145 1.400 . S
C1145 C1139 1.491 . S
C1145 C1144 1.400 . S
C1145 C1146 1.398 . S
C1146 H1134 0.950 . S
C1146 C1145 1.398 . S
C1146 C1147 1.391 . S
C1147 H1135 0.950 . S
C1147 C1143 1.393 . S
C1147 C1146 1.391 . S
H1148 C1156 0.950 . S
H1149 C1161 0.950 . S
H1150 C1158 0.950 . S
H1151 C1160 0.950 . S
H1152 C1162 0.950 . S
H1153 C1164 0.950 . S
H1154 C1166 0.950 . S
H1155 C1167 0.950 . S
C1156 H1148 0.950 . S
C1156 C1157 1.386 . S
C1156 C1158 1.391 . S
C1157 C1156 1.386 . S
C1157 C1161 1.393 . S
C1158 H1150 0.950 . S
C1158 C1156 1.391 . S
C1158 C1159 1.400 . S
C1159 C1158 1.400 . S
C1159 C1160 1.398 . S
C1159 C1165 1.491 . S
C1160 H1151 0.950 . S
C1160 C1159 1.398 . S
C1160 C1161 1.391 . S
C1161 H1149 0.950 . S
C1161 C1157 1.393 . S
C1161 C1160 1.391 . S
C1162 H1152 0.950 . S
C1162 C1163 1.386 . S
C1162 C1164 1.391 . S
C1163 C1162 1.386 . S
C1163 C1167 1.393 . S
C1164 H1153 0.950 . S
C1164 C1162 1.391 . S
C1164 C1165 1.400 . S
C1165 C1159 1.491 . S
C1165 C1164 1.400 . S
C1165 C1166 1.398 . S
C1166 H1154 0.950 . S
C1166 C1165 1.398 . S
C1166 C1167 1.391 . S
C1167 H1155 0.950 . S
C1167 C1163 1.393 . S
C1167 C1166 1.391 . S
H1168 C1176 0.950 . S
H1169 C1181 0.950 . S
H1170 C1178 0.950 . S
H1171 C1180 0.950 . S
H1172 C1182 0.950 . S
H1173 C1184 0.950 . S
H1174 C1186 0.950 . S
H1175 C1187 0.950 . S
C1176 H1168 0.950 . S
C1176 C1177 1.386 . S
C1176 C1178 1.391 . S
C1177 C1176 1.386 . S
C1177 C1181 1.393 . S
C1178 H1170 0.950 . S
C1178 C1176 1.391 . S
C1178 C1179 1.400 . S
C1179 C1178 1.400 . S
C1179 C1180 1.398 . S
C1179 C1185 1.491 . S
C1180 H1171 0.950 . S
C1180 C1179 1.398 . S
C1180 C1181 1.391 . S
C1181 H1169 0.950 . S
C1181 C1177 1.393 . S
C1181 C1180 1.391 . S
C1182 H1172 0.950 . S
C1182 C1183 1.386 . S
C1182 C1184 1.391 . S
C1183 C1182 1.386 . S
C1183 C1187 1.393 . S
C1184 H1173 0.950 . S
C1184 C1182 1.391 . S
C1184 C1185 1.400 . S
C1185 C1179 1.491 . S
C1185 C1184 1.400 . S
C1185 C1186 1.398 . S
C1186 H1174 0.950 . S
C1186 C1185 1.398 . S
C1186 C1187 1.391 . S
C1187 H1175 0.950 . S
C1187 C1183 1.393 . S
C1187 C1186 1.391 . S
H1188 C1196 0.950 . S
H1189 C1201 0.950 . S
H1190 C1198 0.950 . S
H1191 C1200 0.950 . S
H1192 C1202 0.950 . S
H1193 C1204 0.950 . S
H1194 C1206 0.950 . S
H1195 C1207 0.950 . S
C1196 H1188 0.950 . S
C1196 C1197 1.386 . S
C1196 C1198 1.391 . S
C1197 C1196 1.386 . S
C1197 C1201 1.393 . S
C1198 H1190 0.950 . S
C1198 C1196 1.391 . S
C1198 C1199 1.400 . S
C1199 C1198 1.400 . S
C1199 C1200 1.398 . S
C1199 C1205 1.491 . S
C1200 H1191 0.950 . S
C1200 C1199 1.398 . S
C1200 C1201 1.391 . S
C1201 H1189 0.950 . S
C1201 C1197 1.393 . S
C1201 C1200 1.391 . S
C1202 H1192 0.950 . S
C1202 C1203 1.386 . S
C1202 C1204 1.391 . S
C1203 C1202 1.386 . S
C1203 C1207 1.393 . S
C1204 H1193 0.950 . S
C1204 C1202 1.391 . S
C1204 C1205 1.400 . S
C1205 C1199 1.491 . S
C1205 C1204 1.400 . S
C1205 C1206 1.398 . S
C1206 H1194 0.950 . S
C1206 C1205 1.398 . S
C1206 C1207 1.391 . S
C1207 H1195 0.950 . S
C1207 C1203 1.393 . S
C1207 C1206 1.391 . S
H1208 C1216 0.950 . S
H1209 C1221 0.950 . S
H1210 C1218 0.950 . S
H1211 C1220 0.950 . S
H1212 C1222 0.950 . S
H1213 C1224 0.950 . S
H1214 C1226 0.950 . S
H1215 C1227 0.950 . S
C1216 H1208 0.950 . S
C1216 C1217 1.386 . S
C1216 C1218 1.391 . S
C1217 C1216 1.386 . S
C1217 C1221 1.393 . S
C1218 H1210 0.950 . S
C1218 C1216 1.391 . S
C1218 C1219 1.400 . S
C1219 C1218 1.400 . S
C1219 C1220 1.398 . S
C1219 C1225 1.491 . S
C1220 H1211 0.950 . S
C1220 C1219 1.398 . S
C1220 C1221 1.391 . S
C1221 H1209 0.950 . S
C1221 C1217 1.393 . S
C1221 C1220 1.391 . S
C1222 H1212 0.950 . S
C1222 C1223 1.386 . S
C1222 C1224 1.391 . S
C1223 C1222 1.386 . S
C1223 C1227 1.393 . S
C1224 H1213 0.950 . S
C1224 C1222 1.391 . S
C1224 C1225 1.400 . S
C1225 C1219 1.491 . S
C1225 C1224 1.400 . S
C1225 C1226 1.398 . S
C1226 H1214 0.950 . S
C1226 C1225 1.398 . S
C1226 C1227 1.391 . S
C1227 H1215 0.950 . S
C1227 C1223 1.393 . S
C1227 C1226 1.391 . S
H1228 C1236 0.950 . S
H1229 C1241 0.950 . S
H1230 C1238 0.950 . S
H1231 C1240 0.950 . S
H1232 C1242 0.950 . S
H1233 C1244 0.950 . S
H1234 C1246 0.950 . S
H1235 C1247 0.950 . S
C1236 H1228 0.950 . S
C1236 C1237 1.386 . S
C1236 C1238 1.391 . S
C1237 C1236 1.386 . S
C1237 C1241 1.393 . S
C1238 H1230 0.950 . S
C1238 C1236 1.391 . S
C1238 C1239 1.400 . S
C1239 C1238 1.400 . S
C1239 C1240 1.398 . S
C1239 C1245 1.491 . S
C1240 H1231 0.950 . S
C1240 C1239 1.398 . S
C1240 C1241 1.391 . S
C1241 H1229 0.950 . S
C1241 C1237 1.393 . S
C1241 C1240 1.391 . S
C1242 H1232 0.950 . S
C1242 C1243 1.386 . S
C1242 C1244 1.391 . S
C1243 C1242 1.386 . S
C1243 C1247 1.393 . S
C1244 H1233 0.950 . S
C1244 C1242 1.391 . S
C1244 C1245 1.400 . S
C1245 C1239 1.491 . S
C1245 C1244 1.400 . S
C1245 C1246 1.398 . S
C1246 H1234 0.950 . S
C1246 C1245 1.398 . S
C1246 C1247 1.391 . S
C1247 H1235 0.950 . S
C1247 C1243 1.393 . S
C1247 C1246 1.391 . S
H1248 C1256 0.950 . S
H1249 C1261 0.950 . S
H1250 C1258 0.950 . S
H1251 C1260 0.950 . S
H1252 C1262 0.950 . S
H1253 C1264 0.950 . S
H1254 C1266 0.950 . S
H1255 C1267 0.950 . S
C1256 H1248 0.950 . S
C1256 C1257 1.386 . S
C1256 C1258 1.391 . S
C1257 C1256 1.386 . S
C1257 C1261 1.393 . S
C1258 H1250 0.950 . S
C1258 C1256 1.391 . S
C1258 C1259 1.400 . S
C1259 C1258 1.400 . S
C1259 C1260 1.398 . S
C1259 C1265 1.491 1_554 S
C1260 H1251 0.950 . S
C1260 C1259 1.398 . S
C1260 C1261 1.391 . S
C1261 H1249 0.950 . S
C1261 C1257 1.393 . S
C1261 C1260 1.391 . S
C1262 H1252 0.950 . S
C1262 C1263 1.386 . S
C1262 C1264 1.391 . S
C1263 C1262 1.386 . S
C1263 C1267 1.393 . S
C1264 H1253 0.950 . S
C1264 C1262 1.391 . S
C1264 C1265 1.400 . S
C1265 C1259 1.491 1_556 S
C1265 C1264 1.400 . S
C1265 C1266 1.398 . S
C1266 H1254 0.950 . S
C1266 C1265 1.398 . S
C1266 C1267 1.391 . S
C1267 H1255 0.950 . S
C1267 C1263 1.393 . S
C1267 C1266 1.391 . S
H1268 C1276 0.950 . S
H1269 C1281 0.950 . S
H1270 C1278 0.950 . S
H1271 C1280 0.950 . S
H1272 C1282 0.950 . S
H1273 C1284 0.950 . S
H1274 C1286 0.950 . S
H1275 C1287 0.950 . S
C1276 H1268 0.950 . S
C1276 C1277 1.386 . S
C1276 C1278 1.391 . S
C1277 C1276 1.386 . S
C1277 C1281 1.393 . S
C1278 H1270 0.950 . S
C1278 C1276 1.391 . S
C1278 C1279 1.400 . S
C1279 C1278 1.400 . S
C1279 C1280 1.398 . S
C1279 C1285 1.491 1_556 S
C1280 H1271 0.950 . S
C1280 C1279 1.398 . S
C1280 C1281 1.391 . S
C1281 H1269 0.950 . S
C1281 C1277 1.393 . S
C1281 C1280 1.391 . S
C1282 H1272 0.950 . S
C1282 C1283 1.386 . S
C1282 C1284 1.391 . S
C1283 C1282 1.386 . S
C1283 C1287 1.393 . S
C1284 H1273 0.950 . S
C1284 C1282 1.391 . S
C1284 C1285 1.400 . S
C1285 C1279 1.491 1_554 S
C1285 C1284 1.400 . S
C1285 C1286 1.398 . S
C1286 H1274 0.950 . S
C1286 C1285 1.398 . S
C1286 C1287 1.391 . S
C1287 H1275 0.950 . S
C1287 C1283 1.393 . S
C1287 C1286 1.391 . S
H1288 C1296 0.950 . S
H1289 C1301 0.950 . S
H1290 C1298 0.950 . S
H1291 C1300 0.950 . S
H1292 C1302 0.950 . S
H1293 C1304 0.950 . S
H1294 C1306 0.950 . S
H1295 C1307 0.950 . S
C1296 H1288 0.950 . S
C1296 C1297 1.386 . S
C1296 C1298 1.391 . S
C1297 C1296 1.386 . S
C1297 C1301 1.393 . S
C1298 H1290 0.950 . S
C1298 C1296 1.391 . S
C1298 C1299 1.400 . S
C1299 C1298 1.400 . S
C1299 C1300 1.398 . S
C1299 C1305 1.491 1_554 S
C1300 H1291 0.950 . S
C1300 C1299 1.398 . S
C1300 C1301 1.391 . S
C1301 H1289 0.950 . S
C1301 C1297 1.393 . S
C1301 C1300 1.391 . S
C1302 H1292 0.950 . S
C1302 C1303 1.386 . S
C1302 C1304 1.391 . S
C1303 C1302 1.386 . S
C1303 C1307 1.393 . S
C1304 H1293 0.950 . S
C1304 C1302 1.391 . S
C1304 C1305 1.400 . S
C1305 C1299 1.491 1_556 S
C1305 C1304 1.400 . S
C1305 C1306 1.398 . S
C1306 H1294 0.950 . S
C1306 C1305 1.398 . S
C1306 C1307 1.391 . S
C1307 H1295 0.950 . S
C1307 C1303 1.393 . S
C1307 C1306 1.391 . S
H1308 C1316 0.950 . S
H1309 C1321 0.950 . S
H1310 C1318 0.950 . S
H1311 C1320 0.950 . S
H1312 C1322 0.950 . S
H1313 C1324 0.950 . S
H1314 C1326 0.950 . S
H1315 C1327 0.950 . S
C1316 H1308 0.950 . S
C1316 C1317 1.386 . S
C1316 C1318 1.391 . S
C1317 C1316 1.386 . S
C1317 C1321 1.393 . S
C1318 H1310 0.950 . S
C1318 C1316 1.391 . S
C1318 C1319 1.400 . S
C1319 C1318 1.400 . S
C1319 C1320 1.398 . S
C1319 C1325 1.491 1_554 S
C1320 H1311 0.950 . S
C1320 C1319 1.398 . S
C1320 C1321 1.391 . S
C1321 H1309 0.950 . S
C1321 C1317 1.393 . S
C1321 C1320 1.391 . S
C1322 H1312 0.950 . S
C1322 C1323 1.386 . S
C1322 C1324 1.391 . S
C1323 C1322 1.386 . S
C1323 C1327 1.393 . S
C1324 H1313 0.950 . S
C1324 C1322 1.391 . S
C1324 C1325 1.400 . S
C1325 C1319 1.491 1_556 S
C1325 C1324 1.400 . S
C1325 C1326 1.398 . S
C1326 H1314 0.950 . S
C1326 C1325 1.398 . S
C1326 C1327 1.391 . S
C1327 H1315 0.950 . S
C1327 C1323 1.393 . S
C1327 C1326 1.391 . S
H1328 C1336 0.950 . S
H1329 C1341 0.950 . S
H1330 C1338 0.950 . S
H1331 C1340 0.950 . S
H1332 C1342 0.950 . S
H1333 C1344 0.950 . S
H1334 C1346 0.950 . S
H1335 C1347 0.950 . S
C1336 H1328 0.950 . S
C1336 C1337 1.386 . S
C1336 C1338 1.391 . S
C1337 C1336 1.386 . S
C1337 C1341 1.393 . S
C1338 H1330 0.950 . S
C1338 C1336 1.391 . S
C1338 C1339 1.400 . S
C1339 C1338 1.400 . S
C1339 C1340 1.398 . S
C1339 C1345 1.491 1_554 S
C1340 H1331 0.950 . S
C1340 C1339 1.398 . S
C1340 C1341 1.391 . S
C1341 H1329 0.950 . S
C1341 C1337 1.393 . S
C1341 C1340 1.391 . S
C1342 H1332 0.950 . S
C1342 C1343 1.386 . S
C1342 C1344 1.391 . S
C1343 C1342 1.386 . S
C1343 C1347 1.393 . S
C1344 H1333 0.950 . S
C1344 C1342 1.391 . S
C1344 C1345 1.400 . S
C1345 C1339 1.491 1_556 S
C1345 C1344 1.400 . S
C1345 C1346 1.398 . S
C1346 H1334 0.950 . S
C1346 C1345 1.398 . S
C1346 C1347 1.391 . S
C1347 H1335 0.950 . S
C1347 C1343 1.393 . S
C1347 C1346 1.391 . S
H1348 C1356 0.950 . S
H1349 C1361 0.950 . S
H1350 C1358 0.950 . S
H1351 C1360 0.950 . S
H1352 C1362 0.950 . S
H1353 C1364 0.950 . S
H1354 C1366 0.950 . S
H1355 C1367 0.950 . S
C1356 H1348 0.950 . S
C1356 C1357 1.386 . S
C1356 C1358 1.391 . S
C1357 C1356 1.386 . S
C1357 C1361 1.393 . S
C1358 H1350 0.950 . S
C1358 C1356 1.391 . S
C1358 C1359 1.400 . S
C1359 C1358 1.400 . S
C1359 C1360 1.398 . S
C1359 C1365 1.491 1_554 S
C1360 H1351 0.950 . S
C1360 C1359 1.398 . S
C1360 C1361 1.391 . S
C1361 H1349 0.950 . S
C1361 C1357 1.393 . S
C1361 C1360 1.391 . S
C1362 H1352 0.950 . S
C1362 C1363 1.386 . S
C1362 C1364 1.391 . S
C1363 C1362 1.386 . S
C1363 C1367 1.393 . S
C1364 H1353 0.950 . S
C1364 C1362 1.391 . S
C1364 C1365 1.400 . S
C1365 C1359 1.491 1_556 S
C1365 C1364 1.400 . S
C1365 C1366 1.398 . S
C1366 H1354 0.950 . S
C1366 C1365 1.398 . S
C1366 C1367 1.391 . S
C1367 H1355 0.950 . S
C1367 C1363 1.393 . S
C1367 C1366 1.391 . S
H1368 C1376 0.950 . S
H1369 C1381 0.950 . S
H1370 C1378 0.950 . S
H1371 C1380 0.950 . S
H1372 C1382 0.950 . S
H1373 C1384 0.950 . S
H1374 C1386 0.950 . S
H1375 C1387 0.950 . S
C1376 H1368 0.950 . S
C1376 C1377 1.386 . S
C1376 C1378 1.391 . S
C1377 C1376 1.386 . S
C1377 C1381 1.393 . S
C1378 H1370 0.950 . S
C1378 C1376 1.391 . S
C1378 C1379 1.400 . S
C1379 C1378 1.400 . S
C1379 C1380 1.398 . S
C1379 C1385 1.491 1_556 S
C1380 H1371 0.950 . S
C1380 C1379 1.398 . S
C1380 C1381 1.391 . S
C1381 H1369 0.950 . S
C1381 C1377 1.393 . S
C1381 C1380 1.391 . S
C1382 H1372 0.950 . S
C1382 C1383 1.386 . S
C1382 C1384 1.391 . S
C1383 C1382 1.386 . S
C1383 C1387 1.393 . S
C1384 H1373 0.950 . S
C1384 C1382 1.391 . S
C1384 C1385 1.400 . S
C1385 C1379 1.491 1_554 S
C1385 C1384 1.400 . S
C1385 C1386 1.398 . S
C1386 H1374 0.950 . S
C1386 C1385 1.398 . S
C1386 C1387 1.391 . S
C1387 H1375 0.950 . S
C1387 C1383 1.393 . S
C1387 C1386 1.391 . S
H1388 C1396 0.950 . S
H1389 C1401 0.950 . S
H1390 C1398 0.950 . S
H1391 C1400 0.950 . S
H1392 C1402 0.950 . S
H1393 C1404 0.950 . S
H1394 C1406 0.950 . S
H1395 C1407 0.950 . S
C1396 H1388 0.950 . S
C1396 C1397 1.386 . S
C1396 C1398 1.391 . S
C1397 C1396 1.386 . S
C1397 C1401 1.393 . S
C1398 H1390 0.950 . S
C1398 C1396 1.391 . S
C1398 C1399 1.400 . S
C1399 C1398 1.400 . S
C1399 C1400 1.398 . S
C1399 C1405 1.491 1_556 S
C1400 H1391 0.950 . S
C1400 C1399 1.398 . S
C1400 C1401 1.391 . S
C1401 H1389 0.950 . S
C1401 C1397 1.393 . S
C1401 C1400 1.391 . S
C1402 H1392 0.950 . S
C1402 C1403 1.386 . S
C1402 C1404 1.391 . S
C1403 C1402 1.386 . S
C1403 C1407 1.393 . S
C1404 H1393 0.950 . S
C1404 C1402 1.391 . S
C1404 C1405 1.400 . S
C1405 C1399 1.491 1_554 S
C1405 C1404 1.400 . S
C1405 C1406 1.398 . S
C1406 H1394 0.950 . S
C1406 C1405 1.398 . S
C1406 C1407 1.391 . S
C1407 H1395 0.950 . S
C1407 C1403 1.393 . S
C1407 C1406 1.391 . S
H1408 C1416 0.950 . S
H1409 C1421 0.950 . S
H1410 C1418 0.950 . S
H1411 C1420 0.950 . S
H1412 C1422 0.950 . S
H1413 C1424 0.950 . S
H1414 C1426 0.950 . S
H1415 C1427 0.950 . S
C1416 H1408 0.950 . S
C1416 C1417 1.386 . S
C1416 C1418 1.391 . S
C1417 C1416 1.386 . S
C1417 C1421 1.393 . S
C1418 H1410 0.950 . S
C1418 C1416 1.391 . S
C1418 C1419 1.400 . S
C1419 C1418 1.400 . S
C1419 C1420 1.398 . S
C1419 C1425 1.491 . S
C1420 H1411 0.950 . S
C1420 C1419 1.398 . S
C1420 C1421 1.391 . S
C1421 H1409 0.950 . S
C1421 C1417 1.393 . S
C1421 C1420 1.391 . S
C1422 H1412 0.950 . S
C1422 C1423 1.386 . S
C1422 C1424 1.391 . S
C1423 C1422 1.386 . S
C1423 C1427 1.393 . S
C1424 H1413 0.950 . S
C1424 C1422 1.391 . S
C1424 C1425 1.400 . S
C1425 C1419 1.491 . S
C1425 C1424 1.400 . S
C1425 C1426 1.398 . S
C1426 H1414 0.950 . S
C1426 C1425 1.398 . S
C1426 C1427 1.391 . S
C1427 H1415 0.950 . S
C1427 C1423 1.393 . S
C1427 C1426 1.391 . S
H1428 C1436 0.950 . S
H1429 C1441 0.950 . S
H1430 C1438 0.950 . S
H1431 C1440 0.950 . S
H1432 C1442 0.950 . S
H1433 C1444 0.950 . S
H1434 C1446 0.950 . S
H1435 C1447 0.950 . S
C1436 H1428 0.950 . S
C1436 C1437 1.386 . S
C1436 C1438 1.391 . S
C1437 C1436 1.386 . S
C1437 C1441 1.393 . S
C1438 H1430 0.950 . S
C1438 C1436 1.391 . S
C1438 C1439 1.400 . S
C1439 C1438 1.400 . S
C1439 C1440 1.398 . S
C1439 C1445 1.491 . S
C1440 H1431 0.950 . S
C1440 C1439 1.398 . S
C1440 C1441 1.391 . S
C1441 H1429 0.950 . S
C1441 C1437 1.393 . S
C1441 C1440 1.391 . S
C1442 H1432 0.950 . S
C1442 C1443 1.386 . S
C1442 C1444 1.391 . S
C1443 C1442 1.386 . S
C1443 C1447 1.393 . S
C1444 H1433 0.950 . S
C1444 C1442 1.391 . S
C1444 C1445 1.400 . S
C1445 C1439 1.491 . S
C1445 C1444 1.400 . S
C1445 C1446 1.398 . S
C1446 H1434 0.950 . S
C1446 C1445 1.398 . S
C1446 C1447 1.391 . S
C1447 H1435 0.950 . S
C1447 C1443 1.393 . S
C1447 C1446 1.391 . S
H1448 C1456 0.950 . S
H1449 C1461 0.950 . S
H1450 C1458 0.950 . S
H1451 C1460 0.950 . S
H1452 C1462 0.950 . S
H1453 C1464 0.950 . S
H1454 C1466 0.950 . S
H1455 C1467 0.950 . S
C1456 H1448 0.950 . S
C1456 C1457 1.386 . S
C1456 C1458 1.391 . S
C1457 C1456 1.386 . S
C1457 C1461 1.393 . S
C1458 H1450 0.950 . S
C1458 C1456 1.391 . S
C1458 C1459 1.400 . S
C1459 C1458 1.400 . S
C1459 C1460 1.398 . S
C1459 C1465 1.491 . S
C1460 H1451 0.950 . S
C1460 C1459 1.398 . S
C1460 C1461 1.391 . S
C1461 H1449 0.950 . S
C1461 C1457 1.393 . S
C1461 C1460 1.391 . S
C1462 H1452 0.950 . S
C1462 C1463 1.386 . S
C1462 C1464 1.391 . S
C1463 C1462 1.386 . S
C1463 C1467 1.393 . S
C1464 H1453 0.950 . S
C1464 C1462 1.391 . S
C1464 C1465 1.400 . S
C1465 C1459 1.491 . S
C1465 C1464 1.400 . S
C1465 C1466 1.398 . S
C1466 H1454 0.950 . S
C1466 C1465 1.398 . S
C1466 C1467 1.391 . S
C1467 H1455 0.950 . S
C1467 C1463 1.393 . S
C1467 C1466 1.391 . S
H1468 C1476 0.950 . S
H1469 C1481 0.950 . S
H1470 C1478 0.950 . S
H1471 C1480 0.950 . S
H1472 C1482 0.950 . S
H1473 C1484 0.950 . S
H1474 C1486 0.950 . S
H1475 C1487 0.950 . S
C1476 H1468 0.950 . S
C1476 C1477 1.386 . S
C1476 C1478 1.391 . S
C1477 C1476 1.386 . S
C1477 C1481 1.393 . S
C1478 H1470 0.950 . S
C1478 C1476 1.391 . S
C1478 C1479 1.400 . S
C1479 C1478 1.400 . S
C1479 C1480 1.398 . S
C1479 C1485 1.491 . S
C1480 H1471 0.950 . S
C1480 C1479 1.398 . S
C1480 C1481 1.391 . S
C1481 H1469 0.950 . S
C1481 C1477 1.393 . S
C1481 C1480 1.391 . S
C1482 H1472 0.950 . S
C1482 C1483 1.386 . S
C1482 C1484 1.391 . S
C1483 C1482 1.386 . S
C1483 C1487 1.393 . S
C1484 H1473 0.950 . S
C1484 C1482 1.391 . S
C1484 C1485 1.400 . S
C1485 C1479 1.491 . S
C1485 C1484 1.400 . S
C1485 C1486 1.398 . S
C1486 H1474 0.950 . S
C1486 C1485 1.398 . S
C1486 C1487 1.391 . S
C1487 H1475 0.950 . S
C1487 C1483 1.393 . S
C1487 C1486 1.391 . S
H1488 C1496 0.950 . S
H1489 C1501 0.950 . S
H1490 C1498 0.950 . S
H1491 C1500 0.950 . S
H1492 C1502 0.950 . S
H1493 C1504 0.950 . S
H1494 C1506 0.950 . S
H1495 C1507 0.950 . S
C1496 H1488 0.950 . S
C1496 C1497 1.386 . S
C1496 C1498 1.391 . S
C1497 C1496 1.386 . S
C1497 C1501 1.393 . S
C1498 H1490 0.950 . S
C1498 C1496 1.391 . S
C1498 C1499 1.400 . S
C1499 C1498 1.400 . S
C1499 C1500 1.398 . S
C1499 C1505 1.491 . S
C1500 H1491 0.950 . S
C1500 C1499 1.398 . S
C1500 C1501 1.391 . S
C1501 H1489 0.950 . S
C1501 C1497 1.393 . S
C1501 C1500 1.391 . S
C1502 H1492 0.950 . S
C1502 C1503 1.386 . S
C1502 C1504 1.391 . S
C1503 C1502 1.386 . S
C1503 C1507 1.393 . S
C1504 H1493 0.950 . S
C1504 C1502 1.391 . S
C1504 C1505 1.400 . S
C1505 C1499 1.491 . S
C1505 C1504 1.400 . S
C1505 C1506 1.398 . S
C1506 H1494 0.950 . S
C1506 C1505 1.398 . S
C1506 C1507 1.391 . S
C1507 H1495 0.950 . S
C1507 C1503 1.393 . S
C1507 C1506 1.391 . S
H1508 C1516 0.950 . S
H1509 C1521 0.950 . S
H1510 C1518 0.950 . S
H1511 C1520 0.950 . S
H1512 C1522 0.950 . S
H1513 C1524 0.950 . S
H1514 C1526 0.950 . S
H1515 C1527 0.950 . S
C1516 H1508 0.950 . S
C1516 C1517 1.386 . S
C1516 C1518 1.391 . S
C1517 C1516 1.386 . S
C1517 C1521 1.393 . S
C1518 H1510 0.950 . S
C1518 C1516 1.391 . S
C1518 C1519 1.400 . S
C1519 C1518 1.400 . S
C1519 C1520 1.398 . S
C1519 C1525 1.491 . S
C1520 H1511 0.950 . S
C1520 C1519 1.398 . S
C1520 C1521 1.391 . S
C1521 H1509 0.950 . S
C1521 C1517 1.393 . S
C1521 C1520 1.391 . S
C1522 H1512 0.950 . S
C1522 C1523 1.386 . S
C1522 C1524 1.391 . S
C1523 C1522 1.386 . S
C1523 C1527 1.393 . S
C1524 H1513 0.950 . S
C1524 C1522 1.391 . S
C1524 C1525 1.400 . S
C1525 C1519 1.491 . S
C1525 C1524 1.400 . S
C1525 C1526 1.398 . S
C1526 H1514 0.950 . S
C1526 C1525 1.398 . S
C1526 C1527 1.391 . S
C1527 H1515 0.950 . S
C1527 C1523 1.393 . S
C1527 C1526 1.391 . S
H1528 C1536 0.950 . S
H1529 C1541 0.950 . S
H1530 C1538 0.950 . S
H1531 C1540 0.950 . S
H1532 C1542 0.950 . S
H1533 C1544 0.950 . S
H1534 C1546 0.950 . S
H1535 C1547 0.950 . S
C1536 H1528 0.950 . S
C1536 C1537 1.386 . S
C1536 C1538 1.391 . S
C1537 C1536 1.386 . S
C1537 C1541 1.393 . S
C1538 H1530 0.950 . S
C1538 C1536 1.391 . S
C1538 C1539 1.400 . S
C1539 C1538 1.400 . S
C1539 C1540 1.398 . S
C1539 C1545 1.491 . S
C1540 H1531 0.950 . S
C1540 C1539 1.398 . S
C1540 C1541 1.391 . S
C1541 H1529 0.950 . S
C1541 C1537 1.393 . S
C1541 C1540 1.391 . S
C1542 H1532 0.950 . S
C1542 C1543 1.386 . S
C1542 C1544 1.391 . S
C1543 C1542 1.386 . S
C1543 C1547 1.393 . S
C1544 H1533 0.950 . S
C1544 C1542 1.391 . S
C1544 C1545 1.400 . S
C1545 C1539 1.491 . S
C1545 C1544 1.400 . S
C1545 C1546 1.398 . S
C1546 H1534 0.950 . S
C1546 C1545 1.398 . S
C1546 C1547 1.391 . S
C1547 H1535 0.950 . S
C1547 C1543 1.393 . S
C1547 C1546 1.391 . S
H1548 C1556 0.950 . S
H1549 C1561 0.950 . S
H1550 C1558 0.950 . S
H1551 C1560 0.950 . S
H1552 C1562 0.950 . S
H1553 C1564 0.950 . S
H1554 C1566 0.950 . S
H1555 C1567 0.950 . S
C1556 H1548 0.950 . S
C1556 C1557 1.386 . S
C1556 C1558 1.391 . S
C1557 C1556 1.386 . S
C1557 C1561 1.393 . S
C1558 H1550 0.950 . S
C1558 C1556 1.391 . S
C1558 C1559 1.400 . S
C1559 C1558 1.400 . S
C1559 C1560 1.398 . S
C1559 C1565 1.491 . S
C1560 H1551 0.950 . S
C1560 C1559 1.398 . S
C1560 C1561 1.391 . S
C1561 H1549 0.950 . S
C1561 C1557 1.393 . S
C1561 C1560 1.391 . S
C1562 H1552 0.950 . S
C1562 C1563 1.386 . S
C1562 C1564 1.391 . S
C1563 C1562 1.386 . S
C1563 C1567 1.393 . S
C1564 H1553 0.950 . S
C1564 C1562 1.391 . S
C1564 C1565 1.400 . S
C1565 C1559 1.491 . S
C1565 C1564 1.400 . S
C1565 C1566 1.398 . S
C1566 H1554 0.950 . S
C1566 C1565 1.398 . S
C1566 C1567 1.391 . S
C1567 H1555 0.950 . S
C1567 C1563 1.393 . S
C1567 C1566 1.391 . S
H1568 C1576 0.950 . S
H1569 C1581 0.950 . S
H1570 C1578 0.950 . S
H1571 C1580 0.950 . S
H1572 C1582 0.950 . S
H1573 C1584 0.950 . S
H1574 C1586 0.950 . S
H1575 C1587 0.950 . S
C1576 H1568 0.950 . S
C1576 C1577 1.386 . S
C1576 C1578 1.391 . S
C1577 C1576 1.386 . S
C1577 C1581 1.393 . S
C1578 H1570 0.950 . S
C1578 C1576 1.391 . S
C1578 C1579 1.400 . S
C1579 C1578 1.400 . S
C1579 C1580 1.398 . S
C1579 C1585 1.491 . S
C1580 H1571 0.950 . S
C1580 C1579 1.398 . S
C1580 C1581 1.391 . S
C1581 H1569 0.950 . S
C1581 C1577 1.393 . S
C1581 C1580 1.391 . S
C1582 H1572 0.950 . S
C1582 C1583 1.386 . S
C1582 C1584 1.391 . S
C1583 C1582 1.386 . S
C1583 C1587 1.393 . S
C1584 H1573 0.950 . S
C1584 C1582 1.391 . S
C1584 C1585 1.400 . S
C1585 C1579 1.491 . S
C1585 C1584 1.400 . S
C1585 C1586 1.398 . S
C1586 H1574 0.950 . S
C1586 C1585 1.398 . S
C1586 C1587 1.391 . S
C1587 H1575 0.950 . S
C1587 C1583 1.393 . S
C1587 C1586 1.391 . S
H1588 C1596 0.950 . S
H1589 C1601 0.950 . S
H1590 C1598 0.950 . S
H1591 C1600 0.950 . S
H1592 C1602 0.950 . S
H1593 C1604 0.950 . S
H1594 C1606 0.950 . S
H1595 C1607 0.950 . S
C1596 H1588 0.950 . S
C1596 C1597 1.386 . S
C1596 C1598 1.391 . S
C1597 C1596 1.386 . S
C1597 C1601 1.393 . S
C1598 H1590 0.950 . S
C1598 C1596 1.391 . S
C1598 C1599 1.400 . S
C1599 C1598 1.400 . S
C1599 C1600 1.398 . S
C1599 C1605 1.491 . S
C1600 H1591 0.950 . S
C1600 C1599 1.398 . S
C1600 C1601 1.391 . S
C1601 H1589 0.950 . S
C1601 C1597 1.393 . S
C1601 C1600 1.391 . S
C1602 H1592 0.950 . S
C1602 C1603 1.386 . S
C1602 C1604 1.391 . S
C1603 C1602 1.386 . S
C1603 C1607 1.393 . S
C1604 H1593 0.950 . S
C1604 C1602 1.391 . S
C1604 C1605 1.400 . S
C1605 C1599 1.491 . S
C1605 C1604 1.400 . S
C1605 C1606 1.398 . S
C1606 H1594 0.950 . S
C1606 C1605 1.398 . S
C1606 C1607 1.391 . S
C1607 H1595 0.950 . S
C1607 C1603 1.393 . S
C1607 C1606 1.391 . S
H1608 C1616 0.950 . S
H1609 C1621 0.950 . S
H1610 C1618 0.950 . S
H1611 C1620 0.950 . S
H1612 C1622 0.950 . S
H1613 C1624 0.950 . S
H1614 C1626 0.950 . S
H1615 C1627 0.950 . S
C1616 H1608 0.950 . S
C1616 C1617 1.386 . S
C1616 C1618 1.391 . S
C1617 C1616 1.386 . S
C1617 C1621 1.393 . S
C1618 H1610 0.950 . S
C1618 C1616 1.391 . S
C1618 C1619 1.400 . S
C1619 C1618 1.400 . S
C1619 C1620 1.398 . S
C1619 C1625 1.491 . S
C1620 H1611 0.950 . S
C1620 C1619 1.398 . S
C1620 C1621 1.391 . S
C1621 H1609 0.950 . S
C1621 C1617 1.393 . S
C1621 C1620 1.391 . S
C1622 H1612 0.950 . S
C1622 C1623 1.386 . S
C1622 C1624 1.391 . S
C1623 C1622 1.386 . S
C1623 C1627 1.393 . S
C1624 H1613 0.950 . S
C1624 C1622 1.391 . S
C1624 C1625 1.400 . S
C1625 C1619 1.491 . S
C1625 C1624 1.400 . S
C1625 C1626 1.398 . S
C1626 H1614 0.950 . S
C1626 C1625 1.398 . S
C1626 C1627 1.391 . S
C1627 H1615 0.950 . S
C1627 C1623 1.393 . S
C1627 C1626 1.391 . S
H1628 C1636 0.950 . S
H1629 C1641 0.950 . S
H1630 C1638 0.950 . S
H1631 C1640 0.950 . S
H1632 C1642 0.950 . S
H1633 C1644 0.950 . S
H1634 C1646 0.950 . S
H1635 C1647 0.950 . S
C1636 H1628 0.950 . S
C1636 C1637 1.386 . S
C1636 C1638 1.391 . S
C1637 C1636 1.386 . S
C1637 C1641 1.393 . S
C1638 H1630 0.950 . S
C1638 C1636 1.391 . S
C1638 C1639 1.400 . S
C1639 C1638 1.400 . S
C1639 C1640 1.398 . S
C1639 C1645 1.491 . S
C1640 H1631 0.950 . S
C1640 C1639 1.398 . S
C1640 C1641 1.391 . S
C1641 H1629 0.950 . S
C1641 C1637 1.393 . S
C1641 C1640 1.391 . S
C1642 H1632 0.950 . S
C1642 C1643 1.386 . S
C1642 C1644 1.391 . S
C1643 C1642 1.386 . S
C1643 C1647 1.393 . S
C1644 H1633 0.950 . S
C1644 C1642 1.391 . S
C1644 C1645 1.400 . S
C1645 C1639 1.491 . S
C1645 C1644 1.400 . S
C1645 C1646 1.398 . S
C1646 H1634 0.950 . S
C1646 C1645 1.398 . S
C1646 C1647 1.391 . S
C1647 H1635 0.950 . S
C1647 C1643 1.393 . S
C1647 C1646 1.391 . S
H1648 C1656 0.950 . S
H1649 C1661 0.950 . S
H1650 C1658 0.950 . S
H1651 C1660 0.950 . S
H1652 C1662 0.950 . S
H1653 C1664 0.950 . S
H1654 C1666 0.950 . S
H1655 C1667 0.950 . S
C1656 H1648 0.950 . S
C1656 C1657 1.386 . S
C1656 C1658 1.391 . S
C1657 C1656 1.386 . S
C1657 C1661 1.393 . S
C1658 H1650 0.950 . S
C1658 C1656 1.391 . S
C1658 C1659 1.400 . S
C1659 C1658 1.400 . S
C1659 C1660 1.398 . S
C1659 C1665 1.491 . S
C1660 H1651 0.950 . S
C1660 C1659 1.398 . S
C1660 C1661 1.391 . S
C1661 H1649 0.950 . S
C1661 C1657 1.393 . S
C1661 C1660 1.391 . S
C1662 H1652 0.950 . S
C1662 C1663 1.386 . S
C1662 C1664 1.391 . S
C1663 C1662 1.386 . S
C1663 C1667 1.393 . S
C1664 H1653 0.950 . S
C1664 C1662 1.391 . S
C1664 C1665 1.400 . S
C1665 C1659 1.491 . S
C1665 C1664 1.400 . S
C1665 C1666 1.398 . S
C1666 H1654 0.950 . S
C1666 C1665 1.398 . S
C1666 C1667 1.391 . S
C1667 H1655 0.950 . S
C1667 C1663 1.393 . S
C1667 C1666 1.391 . S
H1668 C1676 0.950 . S
H1669 C1681 0.950 . S
H1670 C1678 0.950 . S
H1671 C1680 0.950 . S
H1672 C1682 0.950 . S
H1673 C1684 0.950 . S
H1674 C1686 0.950 . S
H1675 C1687 0.950 . S
C1676 H1668 0.950 . S
C1676 C1677 1.386 . S
C1676 C1678 1.391 . S
C1677 C1676 1.386 . S
C1677 C1681 1.393 . S
C1678 H1670 0.950 . S
C1678 C1676 1.391 . S
C1678 C1679 1.400 . S
C1679 C1678 1.400 . S
C1679 C1680 1.398 . S
C1679 C1685 1.491 . S
C1680 H1671 0.950 . S
C1680 C1679 1.398 . S
C1680 C1681 1.391 . S
C1681 H1669 0.950 . S
C1681 C1677 1.393 . S
C1681 C1680 1.391 . S
C1682 H1672 0.950 . S
C1682 C1683 1.386 . S
C1682 C1684 1.391 . S
C1683 C1682 1.386 . S
C1683 C1687 1.393 . S
C1684 H1673 0.950 . S
C1684 C1682 1.391 . S
C1684 C1685 1.400 . S
C1685 C1679 1.491 . S
C1685 C1684 1.400 . S
C1685 C1686 1.398 . S
C1686 H1674 0.950 . S
C1686 C1685 1.398 . S
C1686 C1687 1.391 . S
C1687 H1675 0.950 . S
C1687 C1683 1.393 . S
C1687 C1686 1.391 . S
H1688 C1696 0.950 . S
H1689 C1701 0.950 . S
H1690 C1698 0.950 . S
H1691 C1700 0.950 . S
H1692 C1702 0.950 . S
H1693 C1704 0.950 . S
H1694 C1706 0.950 . S
H1695 C1707 0.950 . S
C1696 H1688 0.950 . S
C1696 C1697 1.386 . S
C1696 C1698 1.391 . S
C1697 C1696 1.386 . S
C1697 C1701 1.393 . S
C1698 H1690 0.950 . S
C1698 C1696 1.391 . S
C1698 C1699 1.400 . S
C1699 C1698 1.400 . S
C1699 C1700 1.398 . S
C1699 C1705 1.491 . S
C1700 H1691 0.950 . S
C1700 C1699 1.398 . S
C1700 C1701 1.391 . S
C1701 H1689 0.950 . S
C1701 C1697 1.393 . S
C1701 C1700 1.391 . S
C1702 H1692 0.950 . S
C1702 C1703 1.386 . S
C1702 C1704 1.391 . S
C1703 C1702 1.386 . S
C1703 C1707 1.393 . S
C1704 H1693 0.950 . S
C1704 C1702 1.391 . S
C1704 C1705 1.400 . S
C1705 C1699 1.491 . S
C1705 C1704 1.400 . S
C1705 C1706 1.398 . S
C1706 H1694 0.950 . S
C1706 C1705 1.398 . S
C1706 C1707 1.391 . S
C1707 H1695 0.950 . S
C1707 C1703 1.393 . S
C1707 C1706 1.391 . S
H1708 C1716 0.950 . S
H1709 C1721 0.950 . S
H1710 C1718 0.950 . S
H1711 C1720 0.950 . S
H1712 C1722 0.950 . S
H1713 C1724 0.950 . S
H1714 C1726 0.950 . S
H1715 C1727 0.950 . S
C1716 H1708 0.950 . S
C1716 C1717 1.386 . S
C1716 C1718 1.391 . S
C1717 C1716 1.386 . S
C1717 C1721 1.393 . S
C1718 H1710 0.950 . S
C1718 C1716 1.391 . S
C1718 C1719 1.400 . S
C1719 C1718 1.400 . S
C1719 C1720 1.398 . S
C1719 C1725 1.491 . S
C1720 H1711 0.950 . S
C1720 C1719 1.398 . S
C1720 C1721 1.391 . S
C1721 H1709 0.950 . S
C1721 C1717 1.393 . S
C1721 C1720 1.391 . S
C1722 H1712 0.950 . S
C1722 C1723 1.386 . S
C1722 C1724 1.391 . S
C1723 C1722 1.386 . S
C1723 C1727 1.393 . S
C1724 H1713 0.950 . S
C1724 C1722 1.391 . S
C1724 C1725 1.400 . S
C1725 C1719 1.491 . S
C1725 C1724 1.400 . S
C1725 C1726 1.398 . S
C1726 H1714 0.950 . S
C1726 C1725 1.398 . S
C1726 C1727 1.391 . S
C1727 H1715 0.950 . S
C1727 C1723 1.393 . S
C1727 C1726 1.391 . S
C457 C219 1.462 . S
C463 C9 1.478 . S
C477 C23 1.477 . S
C483 C177 1.463 . S
C497 C37 1.464 . S
C503 C191 1.477 . S
C517 C205 1.463 . S
C523 C51 1.477 . S
C537 C65 1.473 . S
C543 C135 1.468 . S
C557 C79 1.478 . S
C563 C149 1.462 . S
C577 C163 1.477 . S
C583 C93 1.463 . S
C597 C121 1.478 . S
C603 C107 1.462 . S
C617 C233 1.473 . S
C623 C443 1.468 . S
C637 C247 1.469 . S
C643 C401 1.471 . S
C657 C261 1.464 . S
C663 C415 1.476 . S
C677 C429 1.464 . S
C683 C275 1.476 . S
C697 C289 1.477 . S
C703 C359 1.463 . S
C717 C303 1.474 . S
C723 C373 1.467 . S
C737 C387 1.462 . S
C743 C317 1.478 . S
C757 C331 1.477 . S
C763 C345 1.463 . S
C777 C176 1.429 . S
C783 C8 1.429 . S
C797 C22 1.430 . S
C803 C190 1.429 . S
C817 C204 1.431 . S
C823 C36 1.428 . S
C837 C50 1.427 . S
C843 C218 1.431 . S
C857 C64 1.428 . S
C863 C120 1.431 . S
C877 C134 1.431 . S
C883 C78 1.427 . S
C897 C148 1.428 . S
C903 C92 1.431 . S
C917 C162 1.431 . S
C923 C106 1.428 . S
C937 C232 1.431 . S
C943 C400 1.427 . S
C957 C414 1.428 . S
C963 C246 1.431 . S
C977 C260 1.431 . S
C983 C428 1.428 . S
C997 C274 1.428 . S
C1003 C442 1.431 . S
C1017 C344 1.429 . S
C1023 C288 1.430 . S
C1037 C302 1.428 . S
C1043 C358 1.430 . S
C1057 C316 1.431 . S
C1063 C372 1.428 . S
C1077 C330 1.429 . S
C1083 C386 1.429 . S
C1097 C7 1.283 . S
C1103 C147 1.302 . S
C1117 C161 1.288 . S
C1123 C21 1.297 . S
C1137 C35 1.292 . S
C1143 C119 1.293 . S
C1157 C133 1.284 . S
C1163 C49 1.301 . S
C1177 C203 1.302 . S
C1183 C63 1.283 . S
C1197 C217 1.300 . S
C1203 C77 1.284 . S
C1217 C175 1.302 . S
C1223 C91 1.283 . S
C1237 C105 1.283 . S
C1243 C189 1.302 . S
C1257 C371 1.284 . S
C1263 C231 1.301 . S
C1277 C245 1.301 . S
C1283 C385 1.283 . S
C1297 C343 1.296 . S
C1303 C259 1.289 . S
C1317 C357 1.301 . S
C1323 C273 1.284 . S
C1337 C287 1.287 . S
C1343 C427 1.298 . S
C1357 C301 1.295 . S
C1363 C441 1.290 . S
C1377 C399 1.293 . S
C1383 C315 1.291 . S
C1397 C413 1.290 . S
C1403 C329 1.295 . S
C1417 C325 1.184 . S
C1423 C3 1.193 . S
C1437 C283 1.183 . S
C1443 C17 1.180 . S
C1457 C297 1.181 . S
C1463 C31 1.187 . S
C1477 C311 1.183 . S
C1483 C45 1.191 . S
C1497 C241 1.185 . S
C1503 C59 1.195 . S
C1517 C73 1.189 . S
C1523 C255 1.182 . S
C1537 C87 1.182 . S
C1543 C269 1.190 . S
C1557 C101 1.190 . S
C1563 C227 1.200 . S
C1577 C115 1.203 . S
C1583 C437 1.201 . S
C1597 C395 1.200 . S
C1603 C129 1.190 . S
C1617 C143 1.199 . S
C1623 C409 1.189 . S
C1637 C157 1.182 . S
C1643 C423 1.190 . S
C1657 C353 1.193 . S
C1663 C171 1.184 . S
C1677 C367 1.181 . S
C1683 C185 1.187 . S
C1697 C199 1.182 . S
C1703 C381 1.181 . S
C1717 C213 1.181 . S
C1723 C339 1.183 . S
