# Generated by pormake.
# Topology loh, (5)-cn, num edge types: 1
# Building blocks:
#     Node 0, Type 0, BuildingBlock: BEQFEK_clean_sbu_0, # of connection points: 5
#     Node 1, Type 0, BuildingBlock: BEQFEK_clean_sbu_0, # of connection points: 5
#     Node 2, Type 0, BuildingBlock: BEQFEK_clean_sbu_0, # of connection points: 5
#     Node 3, Type 0, BuildingBlock: BEQFEK_clean_sbu_0, # of connection points: 5
#     Node 4, Type 0, BuildingBlock: BEQFEK_clean_sbu_0, # of connection points: 5
#     Node 5, Type 0, BuildingBlock: BEQFEK_clean_sbu_0, # of connection points: 5
#     Node 6, Type 0, BuildingBlock: BEQFEK_clean_sbu_0, # of connection points: 5
#     Node 7, Type 0, BuildingBlock: BEQFEK_clean_sbu_0, # of connection points: 5
#     Edge 8, Type (0, 0), BuildingBlock: XIVTED_clean_linker_0, # of connection points: 2
#     Edge 9, Type (0, 0), BuildingBlock: XIVTED_clean_linker_0, # of connection points: 2
#     Edge 10, Type (0, 0), BuildingBlock: XIVTED_clean_linker_0, # of connection points: 2
#     Edge 11, Type (0, 0), BuildingBlock: XIVTED_clean_linker_0, # of connection points: 2
#     Edge 12, Type (0, 0), BuildingBlock: XIVTED_clean_linker_0, # of connection points: 2
#     Edge 13, Type (0, 0), BuildingBlock: XIVTED_clean_linker_0, # of connection points: 2
#     Edge 14, Type (0, 0), BuildingBlock: XIVTED_clean_linker_0, # of connection points: 2
#     Edge 15, Type (0, 0), BuildingBlock: XIVTED_clean_linker_0, # of connection points: 2
#     Edge 16, Type (0, 0), BuildingBlock: XIVTED_clean_linker_0, # of connection points: 2
#     Edge 17, Type (0, 0), BuildingBlock: XIVTED_clean_linker_0, # of connection points: 2
#     Edge 18, Type (0, 0), BuildingBlock: XIVTED_clean_linker_0, # of connection points: 2
#     Edge 19, Type (0, 0), BuildingBlock: XIVTED_clean_linker_0, # of connection points: 2
#     Edge 20, Type (0, 0), BuildingBlock: XIVTED_clean_linker_0, # of connection points: 2
#     Edge 21, Type (0, 0), BuildingBlock: XIVTED_clean_linker_0, # of connection points: 2
#     Edge 22, Type (0, 0), BuildingBlock: XIVTED_clean_linker_0, # of connection points: 2
#     Edge 23, Type (0, 0), BuildingBlock: XIVTED_clean_linker_0, # of connection points: 2
#     Edge 24, Type (0, 0), BuildingBlock: XIVTED_clean_linker_0, # of connection points: 2
#     Edge 25, Type (0, 0), BuildingBlock: XIVTED_clean_linker_0, # of connection points: 2
#     Edge 26, Type (0, 0), BuildingBlock: XIVTED_clean_linker_0, # of connection points: 2
#     Edge 27, Type (0, 0), BuildingBlock: XIVTED_clean_linker_0, # of connection points: 2
# Relax obj value: 0.183
# Max RMSD: 0.139
# Mean RMSD: 0.139
data_MOF--net-loh--node1-BEQFEK_clean_sbu_0--edge1-XIVTED_clean_linker_0
_symmetry_space_group_name_H-M    P1
_symmetry_Int_Tables_number       1
_symmetry_cell_setting            triclinic
loop_
_symmetry_equiv_pos_as_xyz
'x, y, z'
_cell_length_a     21.93219
_cell_length_b     28.372981
_cell_length_c     44.327281
_cell_angle_alpha  89.888405
_cell_angle_beta   90.181824
_cell_angle_gamma 89.761064
loop_
_atom_site_label
_atom_site_type_symbol
_atom_site_fract_x
_atom_site_fract_y
_atom_site_fract_z
_atom_type_partial_charge
Co0 Co 0.03761 0.35345 0.12556 0.0
Co1 Co 0.05704 0.24964 0.14718 0.0
C2 C 0.95234 0.2741 0.10773 0.0
O3 O 0.97267 0.31583 0.10791 0.0
O4 O 0.97865 0.24166 0.12305 0.0
C5 C 0.95609 0.42959 0.11862 0.0
O6 O 0.91629 0.39908 0.12887 0.0
C7 C 0.04832 0.15706 0.17985 0.0
C8 C 0.14413 0.13351 0.17725 0.0
C9 C 0.08742 0.11976 0.18785 0.0
N10 N 0.08092 0.19036 0.16532 0.0
N11 N 0.13807 0.17581 0.1639 0.0
C12 C 0.98198 0.16258 0.18665 0.0
H13 H 0.95523 0.13952 0.17141 0.0
H14 H 0.96719 0.19961 0.18288 0.0
H15 H 0.97271 0.15225 0.21035 0.0
C16 C 0.04748 0.37404 0.18935 0.0
N17 N 0.04659 0.3428 0.16669 0.0
N18 N 0.05234 0.29966 0.17733 0.0
C19 C 0.05608 0.3026 0.20787 0.0
C20 C 0.05315 0.35003 0.21628 0.0
C21 C 0.04248 0.42634 0.18522 0.0
H22 H 0.07069 0.43759 0.1658 0.0
H23 H 0.99427 0.43575 0.18049 0.0
H24 H 0.05737 0.44568 0.20566 0.0
O25 O 0.11275 0.33981 0.10362 0.0
O26 O 0.12311 0.2645 0.11642 0.0
H27 H 0.09924 0.23759 0.22023 0.0
H28 H 0.07283 0.27255 0.25192 0.0
C29 C 0.06252 0.26119 0.22851 0.0
H30 H 0.01935 0.24099 0.22841 0.0
H31 H 0.17311 0.19483 0.15374 0.0
O32 O 0.01216 0.41819 0.1174 0.0
C33 C 0.14048 0.30056 0.10136 0.0
Co34 Co 0.55761 0.67872 0.62194 0.0
Co35 Co 0.53208 0.78103 0.64481 0.0
C36 C 0.64024 0.76016 0.60648 0.0
O37 O 0.62243 0.71776 0.60591 0.0
O38 O 0.61098 0.79132 0.62144 0.0
C39 C 0.63838 0.60274 0.6111 0.0
O40 O 0.6798 0.63199 0.62131 0.0
C41 C 0.53984 0.87118 0.67974 0.0
C42 C 0.4445 0.89578 0.67644 0.0
C43 C 0.50096 0.90826 0.68812 0.0
N44 N 0.50744 0.8392 0.66395 0.0
N45 N 0.45055 0.85433 0.66212 0.0
C46 C 0.60571 0.8645 0.68745 0.0
H47 H 0.6337 0.8874 0.6727 0.0
H48 H 0.61968 0.82732 0.68366 0.0
H49 H 0.61425 0.87424 0.71132 0.0
C50 C 0.54659 0.655 0.68527 0.0
N51 N 0.54762 0.68729 0.66315 0.0
N52 N 0.53739 0.72962 0.6742 0.0
C53 C 0.52955 0.72504 0.70445 0.0
C54 C 0.53506 0.67742 0.71227 0.0
C55 C 0.55671 0.60332 0.68035 0.0
H56 H 0.52576 0.59069 0.66227 0.0
H57 H 0.60432 0.59753 0.67285 0.0
H58 H 0.54921 0.58229 0.70109 0.0
O59 O 0.4824 0.69268 0.59963 0.0
O60 O 0.46674 0.76688 0.61345 0.0
H61 H 0.50197 0.75184 0.74792 0.0
H62 H 0.55487 0.78818 0.72717 0.0
C63 C 0.5146 0.76488 0.72516 0.0
H64 H 0.47661 0.78606 0.71552 0.0
H65 H 0.41571 0.83633 0.65102 0.0
O66 O 0.58239 0.61437 0.61217 0.0
C67 C 0.45209 0.73085 0.59773 0.0
Co68 Co 0.02717 0.68437 0.91695 0.0
Co69 Co 0.04478 0.78665 0.89217 0.0
C70 C 0.94261 0.76415 0.93398 0.0
O71 O 0.96252 0.72219 0.93444 0.0
O72 O 0.96855 0.79554 0.91786 0.0
C73 C 0.9533 0.60847 0.9338 0.0
O74 O 0.90938 0.63444 0.92218 0.0
C75 C 0.02876 0.87826 0.85868 0.0
C76 C 0.12495 0.89977 0.85442 0.0
C77 C 0.066 0.91442 0.84782 0.0
N78 N 0.06442 0.84437 0.87104 0.0
N79 N 0.1218 0.85759 0.8682 0.0
C80 C 0.9606 0.87669 0.85864 0.0
H81 H 0.94375 0.85065 0.8752 0.0
H82 H 0.94442 0.86583 0.83597 0.0
H83 H 0.9414 0.91202 0.86378 0.0
C84 C 0.03127 0.65927 0.85374 0.0
N85 N 0.03143 0.69196 0.87552 0.0
N86 N 0.03829 0.73424 0.86379 0.0
C87 C 0.04255 0.72929 0.83342 0.0
C88 C 0.03857 0.68142 0.82621 0.0
C89 C 0.02387 0.60757 0.85955 0.0
H90 H 0.97877 0.60142 0.87002 0.0
H91 H 0.0267 0.58636 0.83862 0.0
H92 H 0.05941 0.59552 0.87571 0.0
O93 O 0.10363 0.70101 0.93665 0.0
O94 O 0.11437 0.77526 0.92189 0.0
H95 H 0.05474 0.75672 0.78832 0.0
H96 H 0.01565 0.79544 0.8145 0.0
C97 C 0.0529 0.76918 0.81202 0.0
H98 H 0.0963 0.78696 0.8179 0.0
H99 H 0.15897 0.838 0.87607 0.0
O100 O 0.00837 0.6201 0.92918 0.0
C101 C 0.13222 0.73979 0.93752 0.0
Co102 Co 0.53491 0.35607 0.41398 0.0
Co103 Co 0.51683 0.25303 0.3913 0.0
C104 C 0.61977 0.27566 0.43184 0.0
O105 O 0.59885 0.31734 0.43192 0.0
O106 O 0.59458 0.24379 0.41582 0.0
C107 C 0.61598 0.42993 0.42495 0.0
O108 O 0.65518 0.40088 0.41241 0.0
C109 C 0.52794 0.16124 0.35837 0.0
C110 C 0.43221 0.13776 0.35938 0.0
C111 C 0.48977 0.12401 0.34975 0.0
N112 N 0.49407 0.19444 0.37236 0.0
N113 N 0.43696 0.17999 0.3728 0.0
C114 C 0.59467 0.1668 0.35271 0.0
H115 H 0.60873 0.20385 0.3566 0.0
H116 H 0.60576 0.15648 0.32922 0.0
H117 H 0.62061 0.14381 0.36849 0.0
C118 C 0.52886 0.37859 0.3503 0.0
N119 N 0.5283 0.3468 0.3727 0.0
N120 N 0.52263 0.30398 0.36168 0.0
C121 C 0.52024 0.3077 0.33115 0.0
C122 C 0.52399 0.35529 0.32314 0.0
C123 C 0.53494 0.43063 0.35499 0.0
H124 H 0.50521 0.44199 0.37384 0.0
H125 H 0.58284 0.43872 0.36108 0.0
H126 H 0.52273 0.45088 0.33439 0.0
O127 O 0.45888 0.34216 0.43469 0.0
O128 O 0.44968 0.26699 0.42175 0.0
H129 H 0.47673 0.24368 0.31777 0.0
H130 H 0.50553 0.27886 0.28668 0.0
C131 C 0.51431 0.26685 0.31016 0.0
H132 H 0.55711 0.24591 0.31074 0.0
H133 H 0.40112 0.19894 0.38243 0.0
O134 O 0.55951 0.42007 0.42416 0.0
C135 C 0.43147 0.30295 0.43668 0.0
Co136 Co 0.52647 0.85805 0.12081 0.0
Co137 Co 0.54697 0.75425 0.14259 0.0
C138 C 0.44348 0.77739 0.10241 0.0
O139 O 0.46357 0.81917 0.10261 0.0
O140 O 0.46927 0.7453 0.11821 0.0
C141 C 0.44105 0.93111 0.11474 0.0
O142 O 0.40399 0.8985 0.12485 0.0
C143 C 0.53735 0.66213 0.17525 0.0
C144 C 0.63296 0.6379 0.17344 0.0
C145 C 0.57573 0.62461 0.18361 0.0
N146 N 0.57075 0.69511 0.16092 0.0
N147 N 0.6278 0.6802 0.15995 0.0
C148 C 0.47088 0.66822 0.18158 0.0
H149 H 0.45684 0.70544 0.17793 0.0
H150 H 0.46065 0.65764 0.20514 0.0
H151 H 0.44423 0.6457 0.16597 0.0
C152 C 0.53521 0.87847 0.18469 0.0
N153 N 0.53471 0.84725 0.16201 0.0
N154 N 0.54091 0.80415 0.17265 0.0
C155 C 0.54457 0.80706 0.20319 0.0
C156 C 0.54116 0.85443 0.21161 0.0
C157 C 0.52961 0.93073 0.18057 0.0
H158 H 0.55729 0.94214 0.161 0.0
H159 H 0.48121 0.93985 0.17608 0.0
H160 H 0.54467 0.95019 0.20093 0.0
O161 O 0.60254 0.84546 0.0994 0.0
O162 O 0.61325 0.77007 0.11216 0.0
H163 H 0.58895 0.74248 0.21547 0.0
H164 H 0.56218 0.77716 0.24721 0.0
C165 C 0.55188 0.76571 0.22381 0.0
H166 H 0.50906 0.74508 0.22381 0.0
H167 H 0.66333 0.69893 0.15001 0.0
O168 O 0.49782 0.9223 0.11279 0.0
C169 C 0.63063 0.80631 0.09726 0.0
Co170 Co 0.03819 0.18353 0.61871 0.0
Co171 Co 0.0179 0.2866 0.6417 0.0
C172 C 0.12125 0.26356 0.60089 0.0
O173 O 0.10196 0.22158 0.60097 0.0
O174 O 0.0946 0.29531 0.61646 0.0
C175 C 0.1193 0.10874 0.6089 0.0
O176 O 0.15865 0.13843 0.62054 0.0
C177 C 0.03242 0.3778 0.67513 0.0
C178 C 0.93667 0.40181 0.67692 0.0
C179 C 0.99529 0.41478 0.68516 0.0
N180 N 0.99703 0.34501 0.66175 0.0
N181 N 0.93989 0.35974 0.66306 0.0
C182 C 0.10043 0.3744 0.67685 0.0
H183 H 0.11802 0.34808 0.66064 0.0
H184 H 0.11402 0.36286 0.69984 0.0
H185 H 0.1213 0.40925 0.67228 0.0
C186 C 0.03103 0.16073 0.68231 0.0
N187 N 0.03187 0.19271 0.66 0.0
N188 N 0.02437 0.23537 0.671 0.0
C189 C 0.01884 0.23143 0.7014 0.0
C190 C 0.02273 0.18382 0.70938 0.0
C191 C 0.03799 0.10872 0.67748 0.0
H192 H 0.00694 0.0972 0.65915 0.0
H193 H 0.08547 0.10109 0.67045 0.0
H194 H 0.02844 0.08806 0.69816 0.0
O195 O 0.96182 0.19844 0.59786 0.0
O196 O 0.94968 0.27315 0.61166 0.0
H197 H 0.96567 0.29107 0.71469 0.0
H198 H 1.00192 0.25995 0.74578 0.0
C199 C 0.00736 0.27196 0.7221 0.0
H200 H 0.04606 0.29689 0.72069 0.0
H201 H 0.90298 0.3412 0.6542 0.0
O202 O 0.06288 0.11925 0.60887 0.0
C203 C 0.93277 0.23725 0.59632 0.0
Co204 Co 0.53787 0.17846 0.92166 0.0
Co205 Co 0.55555 0.28078 0.89674 0.0
C206 C 0.4538 0.25933 0.93843 0.0
O207 O 0.47417 0.21754 0.93898 0.0
O208 O 0.47926 0.29066 0.92212 0.0
C209 C 0.45675 0.10786 0.93605 0.0
O210 O 0.4193 0.13204 0.91874 0.0
C211 C 0.54006 0.37191 0.86254 0.0
C212 C 0.63612 0.39393 0.85886 0.0
C213 C 0.57725 0.40812 0.85169 0.0
N214 N 0.57566 0.33842 0.87542 0.0
N215 N 0.63298 0.35195 0.87292 0.0
C216 C 0.47191 0.37006 0.86208 0.0
H217 H 0.4548 0.34392 0.87852 0.0
H218 H 0.45631 0.3592 0.83932 0.0
H219 H 0.45237 0.40532 0.86712 0.0
C220 C 0.54124 0.15317 0.8584 0.0
N221 N 0.54258 0.18581 0.88022 0.0
N222 N 0.54829 0.22817 0.86842 0.0
C223 C 0.54999 0.22329 0.83797 0.0
C224 C 0.54572 0.17543 0.83081 0.0
C225 C 0.53545 0.10134 0.86409 0.0
H226 H 0.56535 0.09084 0.8832 0.0
H227 H 0.48765 0.09337 0.87032 0.0
H228 H 0.54755 0.08033 0.84387 0.0
O229 O 0.6145 0.19404 0.94135 0.0
O230 O 0.62477 0.26861 0.92693 0.0
H231 H 0.5979 0.28351 0.82167 0.0
H232 H 0.55788 0.25075 0.79264 0.0
C233 C 0.55599 0.26338 0.81631 0.0
H234 H 0.51659 0.28761 0.81905 0.0
H235 H 0.67011 0.33273 0.88121 0.0
O236 O 0.51368 0.11534 0.93414 0.0
C237 C 0.64279 0.23297 0.94242 0.0
Co238 Co 0.05107 0.8522 0.41737 0.0
Co239 Co 0.03055 0.74881 0.39589 0.0
C240 C 0.13609 0.7718 0.4349 0.0
O241 O 0.11576 0.81367 0.43484 0.0
O242 O 0.10951 0.73971 0.41961 0.0
C243 C 0.13237 0.92725 0.42666 0.0
O244 O 0.17249 0.89746 0.41563 0.0
C245 C 0.0389 0.65659 0.36301 0.0
C246 C 0.943 0.63382 0.36544 0.0
C247 C 0.99973 0.61973 0.35488 0.0
N248 N 0.00636 0.68998 0.37759 0.0
N249 N 0.94914 0.67591 0.37891 0.0
C250 C 0.10526 0.66167 0.35622 0.0
H251 H 0.12001 0.69863 0.35984 0.0
H252 H 0.11461 0.65117 0.33257 0.0
H253 H 0.13197 0.63853 0.37159 0.0
C254 C 0.04196 0.87351 0.35368 0.0
N255 N 0.04223 0.8421 0.37631 0.0
N256 N 0.03534 0.79914 0.3657 0.0
C257 C 0.03121 0.80239 0.33517 0.0
C258 C 0.03525 0.84981 0.32676 0.0
C259 C 0.0485 0.92562 0.35789 0.0
H260 H 0.01948 0.93747 0.37689 0.0
H261 H 0.09666 0.93366 0.36348 0.0
H262 H 0.03564 0.94551 0.33725 0.0
O263 O 0.97574 0.83927 0.43904 0.0
O264 O 0.96487 0.76384 0.42705 0.0
H265 H 0.98634 0.73835 0.32299 0.0
H266 H 0.01296 0.77301 0.29119 0.0
C267 C 0.02344 0.76127 0.31455 0.0
H268 H 0.06613 0.7402 0.31444 0.0
H269 H 0.91413 0.6951 0.38907 0.0
O270 O 0.07615 0.91652 0.42631 0.0
C271 C 0.94781 0.80038 0.44174 0.0
H272 H 0.41384 0.34579 0.96061 0.0
H273 H 0.19919 0.22019 0.08273 0.0
H274 H 0.37711 0.19652 0.96429 0.0
H275 H 0.19429 0.37059 0.0678 0.0
H276 H 0.27293 0.21267 0.04192 0.0
H277 H 0.33832 0.35782 1.00109 0.0
C278 C 0.38944 0.31576 0.96953 0.0
C279 C 0.40238 0.27007 0.95914 0.0
C280 C 0.25585 0.2474 0.04758 0.0
C281 C 0.31738 0.28334 1.00567 0.0
C282 C 0.21398 0.25172 0.07109 0.0
C283 C 0.19013 0.29604 0.07874 0.0
C284 C 0.27456 0.28766 0.03154 0.0
C285 C 0.2112 0.33564 0.06266 0.0
C286 C 0.34675 0.32255 0.99276 0.0
C287 C 0.36952 0.23237 0.97172 0.0
N288 N 0.2521 0.33053 0.03982 0.0
N289 N 0.32925 0.23981 0.99434 0.0
H290 H 0.39908 0.65911 0.56544 0.0
H291 H 0.21513 0.83558 0.45805 0.0
H292 H 0.39267 0.81006 0.57711 0.0
H293 H 0.17643 0.68654 0.45924 0.0
H294 H 0.28994 0.82417 0.49764 0.0
H295 H 0.3248 0.66619 0.52423 0.0
C296 C 0.38178 0.69374 0.55954 0.0
C297 C 0.40243 0.73413 0.57485 0.0
C298 C 0.26546 0.79377 0.48928 0.0
C299 C 0.31803 0.74233 0.52728 0.0
C300 C 0.22275 0.80015 0.46639 0.0
C301 C 0.18872 0.76197 0.45528 0.0
C302 C 0.27511 0.74875 0.50144 0.0
C303 C 0.20155 0.71696 0.46703 0.0
C304 C 0.33942 0.69765 0.53595 0.0
C305 C 0.3782 0.77793 0.56612 0.0
N306 N 0.24358 0.71159 0.48965 0.0
N307 N 0.33779 0.78084 0.54284 0.0
H308 H 0.40436 0.69177 0.07903 0.0
H309 H 0.18944 0.8204 0.95676 0.0
H310 H 0.36749 0.84133 0.0763 0.0
H311 H 0.18968 0.66949 0.96947 0.0
H312 H 0.26323 0.82738 0.99792 0.0
H313 H 0.33036 0.68107 0.03761 0.0
C314 C 0.38017 0.72214 0.07014 0.0
C315 C 0.39257 0.7675 0.08113 0.0
C316 C 0.24732 0.79267 0.99163 0.0
C317 C 0.30931 0.75577 0.03348 0.0
C318 C 0.20552 0.78868 0.96791 0.0
C319 C 0.18296 0.74437 0.95964 0.0
C320 C 0.26714 0.75207 1.0072 0.0
C321 C 0.20549 0.70448 0.97513 0.0
C322 C 0.33838 0.71612 0.04635 0.0
C323 C 0.36011 0.80568 0.06851 0.0
N324 N 0.24614 0.70927 0.99818 0.0
N325 N 0.32063 0.79898 0.04535 0.0
H326 H 0.37553 0.22231 0.45656 0.0
H327 H 0.15847 0.34957 0.57722 0.0
H328 H 0.37465 0.37327 0.46871 0.0
H329 H 0.19976 0.20066 0.57607 0.0
H330 H 0.23287 0.36095 0.53624 0.0
H331 H 0.30249 0.21517 0.49774 0.0
C332 C 0.35953 0.25402 0.46763 0.0
C333 C 0.38162 0.2984 0.45914 0.0
C334 C 0.22574 0.32592 0.54524 0.0
C335 C 0.29816 0.29049 0.50675 0.0
C336 C 0.18372 0.31951 0.56878 0.0
C337 C 0.17238 0.27409 0.58003 0.0
C338 C 0.25607 0.28658 0.5329 0.0
C339 C 0.20622 0.23632 0.56802 0.0
C340 C 0.31813 0.24993 0.49136 0.0
C341 C 0.35915 0.33825 0.47452 0.0
N342 N 0.24584 0.24336 0.54508 0.0
N343 N 0.31879 0.33337 0.49759 0.0
H344 H 0.69052 0.72621 0.07923 0.0
H345 H 0.90291 0.85087 0.95586 0.0
H346 H 0.68382 0.87638 0.06344 0.0
H347 H 0.86631 0.70162 0.96045 0.0
H348 H 0.82799 0.86336 0.99656 0.0
H349 H 0.76409 0.7186 0.03841 0.0
C350 C 0.7049 0.75769 0.06741 0.0
C351 C 0.68054 0.80194 0.07479 0.0
C352 C 0.8363 0.828 0.98835 0.0
C353 C 0.76476 0.79345 0.02755 0.0
C354 C 0.87864 0.82094 0.965 0.0
C355 C 0.89142 0.77512 0.95477 0.0
C356 C 0.80715 0.78892 1.00155 0.0
C357 C 0.85876 0.73758 0.96765 0.0
C358 C 0.74667 0.75331 0.04388 0.0
C359 C 0.70112 0.84147 0.05849 0.0
N360 N 0.81885 0.74528 0.99038 0.0
N361 N 0.74193 0.8363 0.03561 0.0
H362 H 0.87271 0.31732 0.5776 0.0
H363 H 0.66156 0.1897 0.45431 0.0
H364 H 0.87886 0.16691 0.56319 0.0
H365 H 0.69418 0.33953 0.45848 0.0
H366 H 0.73647 0.17852 0.49539 0.0
H367 H 0.79884 0.32435 0.53651 0.0
C368 C 0.85809 0.28568 0.56606 0.0
C369 C 0.88241 0.24152 0.57389 0.0
C370 C 0.7273 0.21373 0.48703 0.0
C371 C 0.79796 0.24933 0.52636 0.0
C372 C 0.68497 0.22005 0.46344 0.0
C373 C 0.6711 0.26561 0.45295 0.0
C374 C 0.75541 0.25328 0.50021 0.0
C375 C 0.70265 0.30372 0.46587 0.0
C376 C 0.81619 0.28973 0.54237 0.0
C377 C 0.86163 0.20177 0.5579 0.0
N378 N 0.74264 0.29672 0.48882 0.0
N379 N 0.82076 0.20661 0.53489 0.0
H380 H 0.872 0.33797 0.08491 0.0
H381 H 0.70427 0.16206 0.97178 0.0
H382 H 0.91584 0.18961 0.08184 0.0
H383 H 0.69508 0.31369 0.96489 0.0
H384 H 0.77692 0.16964 1.01343 0.0
H385 H 0.79956 0.32729 0.04409 0.0
C386 C 0.86592 0.30284 0.0759 0.0
C387 C 0.90063 0.26462 0.08685 0.0
C388 C 0.75937 0.20121 1.00267 0.0
C389 C 0.81732 0.25231 0.03933 0.0
C390 C 0.71797 0.19702 0.97878 0.0
C391 C 0.69325 0.23739 0.96472 0.0
C392 C 0.77587 0.24611 1.01293 0.0
C393 C 0.71294 0.28161 0.97485 0.0
C394 C 0.82464 0.2969 0.05233 0.0
C395 C 0.89003 0.22001 0.07425 0.0
N396 N 0.7526 0.28474 0.99846 0.0
N397 N 0.84952 0.21511 0.05099 0.0
H398 H 0.7312 0.70122 0.58953 0.0
H399 H 0.88677 0.87259 0.46992 0.0
H400 H 0.66819 0.84428 0.57752 0.0
H401 H 0.89814 0.72077 0.46679 0.0
H402 H 0.81508 0.86652 0.51206 0.0
H403 H 0.80421 0.71241 0.54922 0.0
C404 C 0.73328 0.73539 0.57869 0.0
C405 C 0.6929 0.77175 0.58686 0.0
C406 C 0.83299 0.83462 0.50199 0.0
C407 C 0.77679 0.78465 0.53996 0.0
C408 C 0.87383 0.83794 0.47788 0.0
C409 C 0.89874 0.79705 0.46472 0.0
C410 C 0.81758 0.79012 0.5134 0.0
C411 C 0.88013 0.75323 0.47604 0.0
C412 C 0.77484 0.74159 0.55542 0.0
C413 C 0.69851 0.81536 0.57207 0.0
N414 N 0.84121 0.75099 0.49984 0.0
N415 N 0.73943 0.82053 0.5491 0.0
H416 H 0.14645 0.38728 0.24913 0.0
H417 H 0.91492 0.56551 0.3267 0.0
H418 H 0.95169 0.36996 0.24846 0.0
H419 H 0.10826 0.56867 0.34541 0.0
H420 H 0.92898 0.49194 0.2998 0.0
H421 H 0.13562 0.44966 0.28718 0.0
C422 C 0.10167 0.39516 0.2581 0.0
C423 C 0.04995 0.37281 0.24623 0.0
C424 C 0.96847 0.50866 0.30977 0.0
C425 C 0.03675 0.44568 0.28843 0.0
C426 C 0.96058 0.55106 0.32517 0.0
C427 C 0.01058 0.5747 0.33804 0.0
C428 C 0.02701 0.48915 0.3068 0.0
C429 C 0.06839 0.55338 0.33515 0.0
C430 C 0.09536 0.43128 0.27943 0.0
C431 C 0.99272 0.38563 0.25759 0.0
N432 N 0.07504 0.51212 0.31966 0.0
N433 N 0.98758 0.4216 0.27768 0.0
H434 H 0.61901 0.67221 0.75763 0.0
H435 H 0.47852 0.42986 0.81435 0.0
H436 H 0.44112 0.62328 0.73152 0.0
H437 H 0.64185 0.49008 0.85245 0.0
H438 H 0.45961 0.50341 0.78742 0.0
H439 H 0.62332 0.61076 0.79667 0.0
C440 C 0.57983 0.64971 0.76102 0.0
C441 C 0.52933 0.65307 0.7417 0.0
C442 C 0.4991 0.50083 0.80207 0.0
C443 C 0.53483 0.58129 0.78523 0.0
C444 C 0.50969 0.4587 0.81781 0.0
C445 C 0.56147 0.45353 0.83629 0.0
C446 C 0.54098 0.53809 0.80435 0.0
C447 C 0.60135 0.49215 0.83849 0.0
C448 C 0.58256 0.61416 0.78298 0.0
C449 C 0.48045 0.62216 0.74633 0.0
N450 N 0.59053 0.53247 0.82262 0.0
N451 N 0.48479 0.5871 0.76725 0.0
H452 H 0.09196 0.43399 0.72409 0.0
H453 H 0.95358 0.67703 0.78117 0.0
H454 H 0.93221 0.49789 0.6839 0.0
H455 H 0.13148 0.62609 0.80677 0.0
H456 H 0.94881 0.61619 0.74185 0.0
H457 H 0.11078 0.50664 0.75157 0.0
C458 C 0.06162 0.46346 0.72028 0.0
C459 C 0.01093 0.45961 0.70101 0.0
C460 C 0.98962 0.61902 0.75553 0.0
C461 C 0.03116 0.54314 0.73367 0.0
C462 C 0.99258 0.65416 0.77767 0.0
C463 C 0.04322 0.65671 0.79692 0.0
C464 C 0.03729 0.58584 0.75305 0.0
C465 C 0.09196 0.62548 0.79207 0.0
C466 C 0.07214 0.50509 0.73635 0.0
C467 C 0.97191 0.49897 0.69845 0.0
N468 N 0.08741 0.59089 0.77099 0.0
N469 N 0.98256 0.5388 0.71469 0.0
H470 H 0.62592 0.37224 0.29067 0.0
H471 H 0.46598 0.5755 0.19213 0.0
H472 H 0.43211 0.3963 0.29079 0.0
H473 H 0.65865 0.56846 0.21231 0.0
H474 H 0.45149 0.50262 0.22051 0.0
H475 H 0.63716 0.43397 0.25237 0.0
C476 C 0.58547 0.38921 0.28159 0.0
C477 C 0.52794 0.37862 0.29334 0.0
C478 C 0.49688 0.5172 0.21868 0.0
C479 C 0.54041 0.45085 0.25059 0.0
C480 C 0.50522 0.55952 0.20278 0.0
C481 C 0.56355 0.57967 0.20035 0.0
C482 C 0.54727 0.49424 0.23186 0.0
C483 C 0.61265 0.55497 0.21361 0.0
C484 C 0.5919 0.42503 0.26015 0.0
C485 C 0.47707 0.40283 0.28171 0.0
N486 N 0.60338 0.51393 0.22875 0.0
N487 N 0.4845 0.43819 0.2612 0.0
H488 H 0.44031 0.87044 0.24509 0.0
H489 H 0.59999 0.0745 0.34153 0.0
H490 H 0.63376 0.89481 0.24339 0.0
H491 H 0.40724 0.06757 0.32163 0.0
H492 H 0.61482 1.00112 0.31381 0.0
H493 H 0.42948 0.93206 0.28336 0.0
C494 C 0.48084 0.88741 0.25384 0.0
C495 C 0.53809 0.87704 0.24159 0.0
C496 C 0.56934 1.01585 0.31558 0.0
C497 C 0.52602 0.94917 0.28428 0.0
C498 C 0.56079 0.05845 0.3311 0.0
C499 C 0.50232 0.07879 0.33341 0.0
C500 C 0.51904 0.99279 0.30269 0.0
C501 C 0.45334 0.05398 0.32043 0.0
C502 C 0.47461 0.9232 0.27525 0.0
C503 C 0.58902 0.90122 0.25283 0.0
N504 N 0.46282 1.01267 0.30568 0.0
N505 N 0.58178 0.93659 0.2733 0.0
H506 H 0.96627 0.93748 0.81151 0.0
H507 H 0.10997 0.17687 0.75305 0.0
H508 H 0.13171 0.99577 0.84862 0.0
H509 H 0.92782 0.13282 0.73082 0.0
H510 H 0.11468 0.11567 0.79221 0.0
H511 H 0.94752 1.01156 0.78517 0.0
C512 C 0.99794 0.96601 0.81489 0.0
C513 C 0.05027 0.96016 0.83289 0.0
C514 C 0.07297 0.12013 0.77937 0.0
C515 C 0.02998 0.04526 0.80161 0.0
C516 C 0.07007 0.15553 0.75733 0.0
C517 C 0.01821 0.16009 0.73904 0.0
C518 C 0.02401 0.0886 0.78267 0.0
C519 C 0.96829 0.1307 0.74482 0.0
C520 C 0.98743 1.00845 0.7995 0.0
C521 C 0.09078 0.99839 0.835 0.0
N522 N 0.97278 0.09567 0.76574 0.0
N523 N 0.08006 0.03899 0.81944 0.0
H524 H 0.60982 0.9573 0.69905 0.0
H525 H 0.44409 0.15578 0.79842 0.0
H526 H 0.41647 0.96206 0.7171 0.0
H527 H 0.63851 0.13493 0.79915 0.0
H528 H 0.43457 0.09422 0.76001 0.0
H529 H 0.62247 0.02898 0.72881 0.0
C530 C 0.57007 0.97254 0.70953 0.0
C531 C 0.51207 0.95217 0.70602 0.0
C532 C 0.47956 0.10376 0.76799 0.0
C533 C 0.52621 0.03615 0.73919 0.0
C534 C 0.48499 0.13946 0.78952 0.0
C535 C 0.54222 0.15103 0.80138 0.0
C536 C 0.53178 0.07901 0.75846 0.0
C537 C 0.59373 0.12765 0.78998 0.0
C538 C 0.57734 1.01414 0.72623 0.0
C539 C 0.46225 0.97581 0.71918 0.0
N540 N 0.58731 0.09242 0.76934 0.0
N541 N 0.47048 1.01618 0.73512 0.0
H542 H 0.17248 0.06423 0.21535 0.0
H543 H 0.94148 0.88831 0.29447 0.0
H544 H 0.97869 0.06979 0.19793 0.0
H545 H 0.1361 0.86884 0.29399 0.0
H546 H 0.95186 0.95071 0.25629 0.0
H547 H 0.15851 0.99065 0.24231 0.0
C548 C 0.12673 0.05032 0.21717 0.0
C549 C 0.07661 0.07465 0.20466 0.0
C550 C 0.99217 0.93186 0.26383 0.0
C551 C 0.06028 0.98907 0.23597 0.0
C552 C 0.9861 0.89574 0.28523 0.0
C553 C 0.03793 0.87277 0.2968 0.0
C554 C 0.05065 0.94564 0.25445 0.0
C555 C 0.09497 0.885 0.2851 0.0
C556 C 0.11889 1.0079 0.23261 0.0
C557 C 0.0187 0.05397 0.20791 0.0
N558 N 0.0999 0.92098 0.26493 0.0
N559 N 0.01211 1.01268 0.22344 0.0
H560 H 0.84284 0.5897 0.96071 0.0
H561 H 0.01748 0.51042 0.10806 0.0
H562 H 0.03582 0.55955 0.96734 0.0
H563 H 0.85063 0.43798 0.08593 0.0
H564 H 1.00457 0.5591 0.06302 0.0
H565 H 0.82913 0.55523 1.01132 0.0
C566 C 0.882 0.57516 0.97246 0.0
C567 C 0.94074 0.57802 0.95995 0.0
C568 C 0.96993 0.5334 0.06857 0.0
C569 C 0.92553 0.5413 1.01761 0.0
C570 C 0.97697 0.50601 0.09429 0.0
C571 C 0.93596 0.4695 0.10007 0.0
C572 C 0.92181 0.5239 0.04864 0.0
C573 C 0.88367 0.4655 0.08187 0.0
C574 C 0.87412 0.55618 1.00133 0.0
C575 C 0.98985 0.5587 0.97615 0.0
N576 N 0.87876 0.49166 0.05625 0.0
N577 N 0.98124 0.54194 1.00434 0.0
H578 H 0.57221 0.52579 0.59644 0.0
H579 H 0.72947 0.43646 0.45123 0.0
H580 H 0.74144 0.5964 0.57655 0.0
H581 H 0.5484 0.49701 0.45289 0.0
H582 H 0.75033 0.47311 0.50049 0.0
H583 H 0.5806 0.4832 0.54884 0.0
C584 C 0.61223 0.53101 0.58257 0.0
C585 C 0.6554 0.56534 0.58992 0.0
C586 C 0.70669 0.47886 0.48954 0.0
C587 C 0.66463 0.51752 0.53576 0.0
C588 C 0.69483 0.45854 0.46143 0.0
C589 C 0.63656 0.46298 0.44832 0.0
C590 C 0.65958 0.50276 0.50432 0.0
C591 C 0.59344 0.49191 0.46247 0.0
C592 C 0.61668 0.5071 0.55542 0.0
C593 C 0.70687 0.57047 0.57139 0.0
N594 N 0.60532 0.50977 0.4901 0.0
N595 N 0.70949 0.54752 0.54451 0.0
H596 H 0.4893 0.14387 0.98961 0.0
H597 H 0.33871 0.93435 0.07987 0.0
H598 H 0.3715 0.04027 0.94918 0.0
H599 H 0.49023 0.01832 0.11034 0.0
H600 H 0.32091 0.99076 0.03885 0.0
H601 H 0.46022 0.11591 0.03947 0.0
C602 C 0.45724 0.11502 0.99139 0.0
C603 C 0.4345 0.09279 0.96555 0.0
C604 C 0.35672 0.9976 0.05512 0.0
C605 C 0.40116 0.06066 0.02233 0.0
C606 C 0.3666 0.96572 0.07865 0.0
C607 C 0.41687 0.97149 0.09791 0.0
C608 C 0.39723 0.03527 0.05129 0.0
C609 C 0.45173 1.01242 0.09548 0.0
C610 C 0.4402 0.09944 1.01978 0.0
C611 C 0.39117 0.05716 0.96879 0.0
N612 N 0.44189 0.04243 0.07218 0.0
N613 N 0.37683 0.04126 0.99686 0.0
H614 H 0.23979 0.9322 0.4584 0.0
H615 H 0.055 0.03362 0.589 0.0
H616 H 0.06696 1.00286 0.44515 0.0
H617 H 0.22911 0.10264 0.57971 0.0
H618 H 0.07404 0.99174 0.54192 0.0
H619 H 0.25185 0.97405 0.50662 0.0
C620 C 0.20562 0.95783 0.465 0.0
C621 C 0.15155 0.96348 0.44821 0.0
C622 C 0.10859 1.01526 0.55071 0.0
C623 C 0.16449 1.00942 0.50293 0.0
C624 C 0.09806 0.0388 0.57757 0.0
C625 C 0.13989 0.07235 0.58775 0.0
C626 C 0.16131 0.02519 0.53419 0.0
C627 C 0.19545 0.07733 0.57231 0.0
C628 C 0.2124 0.98116 0.49254 0.0
C629 C 0.10868 0.99689 0.45776 0.0
N630 N 0.20424 0.05462 0.54567 0.0
N631 N 0.11525 1.01768 0.48497 0.0
loop_
_geom_bond_atom_site_label_1
_geom_bond_atom_site_label_2
_geom_bond_distance
_geom_bond_site_symmetry_2
_ccdc_geom_bond_type
Co0 O3 1.970 1_455 S
Co0 N17 1.989 . S
Co0 O25 1.967 . S
Co0 O32 1.920 . S
Co1 O4 1.966 1_455 S
Co1 N10 2.022 . S
Co1 N18 1.993 . S
Co1 O26 1.941 . S
C2 O3 1.258 . S
C2 O4 1.263 . S
O3 Co0 1.970 1_655 S
O3 C2 1.258 . S
O4 Co1 1.966 1_655 S
O4 C2 1.263 . S
C5 O6 1.235 . S
C5 O32 1.289 1_655 S
O6 C5 1.235 . S
C7 C9 1.400 1_655 S
C7 N10 1.351 1_655 S
C7 C12 1.501 . S
C8 C9 1.387 . S
C8 N11 1.341 . S
C9 C7 1.400 1_455 S
C9 C8 1.387 . S
N10 Co1 2.022 . S
N10 C7 1.351 1_455 S
N10 N11 1.365 . S
N11 C8 1.341 . S
N11 N10 1.365 . S
N11 H31 0.862 . S
C12 C7 1.501 . S
C12 H13 0.961 . S
C12 H14 0.961 . S
C12 H15 0.960 . S
H13 C12 0.961 . S
H14 C12 0.961 . S
H15 C12 0.960 . S
C16 N17 1.342 . S
C16 C20 1.401 . S
C16 C21 1.499 . S
N17 Co0 1.989 . S
N17 C16 1.342 . S
N17 N18 1.388 . S
N18 Co1 1.993 . S
N18 N17 1.388 . S
N18 C19 1.346 . S
C19 N18 1.346 . S
C19 C20 1.396 . S
C19 C29 1.510 . S
C20 C16 1.401 . S
C20 C19 1.396 . S
C21 C16 1.499 . S
C21 H22 0.959 . S
C21 H23 0.960 . S
C21 H24 0.961 . S
H22 C21 0.959 . S
H23 C21 0.960 . S
H24 C21 0.961 . S
O25 Co0 1.967 . S
O25 C33 1.258 . S
O26 Co1 1.941 . S
O26 C33 1.266 . S
H27 C29 0.959 . S
H28 C29 0.972 . S
C29 C19 1.510 . S
C29 H27 0.959 . S
C29 H28 0.972 . S
C29 H30 0.960 . S
H30 C29 0.960 . S
H31 N11 0.862 . S
O32 Co0 1.920 . S
O32 C5 1.289 1_455 S
C33 O25 1.258 . S
C33 O26 1.266 . S
Co34 O37 1.970 . S
Co34 N51 1.989 . S
Co34 O59 1.967 . S
Co34 O66 1.920 . S
Co35 O38 1.966 . S
Co35 N44 2.022 . S
Co35 N52 1.993 . S
Co35 O60 1.941 . S
C36 O37 1.258 . S
C36 O38 1.263 . S
O37 Co34 1.970 . S
O37 C36 1.258 . S
O38 Co35 1.966 . S
O38 C36 1.263 . S
C39 O40 1.235 . S
C39 O66 1.289 . S
O40 C39 1.235 . S
C41 C43 1.400 . S
C41 N44 1.351 . S
C41 C46 1.501 . S
C42 C43 1.387 . S
C42 N45 1.341 . S
C43 C41 1.400 . S
C43 C42 1.387 . S
N44 Co35 2.022 . S
N44 C41 1.351 . S
N44 N45 1.365 . S
N45 C42 1.341 . S
N45 N44 1.365 . S
N45 H65 0.862 . S
C46 C41 1.501 . S
C46 H47 0.961 . S
C46 H48 0.961 . S
C46 H49 0.960 . S
H47 C46 0.961 . S
H48 C46 0.961 . S
H49 C46 0.960 . S
C50 N51 1.342 . S
C50 C54 1.401 . S
C50 C55 1.499 . S
N51 Co34 1.989 . S
N51 C50 1.342 . S
N51 N52 1.388 . S
N52 Co35 1.993 . S
N52 N51 1.388 . S
N52 C53 1.346 . S
C53 N52 1.346 . S
C53 C54 1.396 . S
C53 C63 1.510 . S
C54 C50 1.401 . S
C54 C53 1.396 . S
C55 C50 1.499 . S
C55 H56 0.959 . S
C55 H57 0.960 . S
C55 H58 0.961 . S
H56 C55 0.959 . S
H57 C55 0.960 . S
H58 C55 0.961 . S
O59 Co34 1.967 . S
O59 C67 1.258 . S
O60 Co35 1.941 . S
O60 C67 1.266 . S
H61 C63 0.959 . S
H62 C63 0.961 . S
C63 C53 1.510 . S
C63 H61 0.959 . S
C63 H62 0.961 . S
C63 H64 0.960 . S
H64 C63 0.960 . S
H65 N45 0.862 . S
O66 Co34 1.920 . S
O66 C39 1.289 . S
C67 O59 1.258 . S
C67 O60 1.266 . S
Co68 O71 1.970 1_455 S
Co68 N85 1.989 . S
Co68 O93 1.967 . S
Co68 O100 1.920 . S
Co69 O72 1.966 1_455 S
Co69 N78 2.022 . S
Co69 N86 1.993 . S
Co69 O94 1.941 . S
C70 O71 1.258 . S
C70 O72 1.263 . S
O71 Co68 1.970 1_655 S
O71 C70 1.258 . S
O72 Co69 1.966 1_655 S
O72 C70 1.263 . S
C73 O74 1.235 . S
C73 O100 1.289 1_655 S
O74 C73 1.235 . S
C75 C77 1.400 1_655 S
C75 N78 1.351 1_655 S
C75 C80 1.501 . S
C76 C77 1.387 . S
C76 N79 1.341 . S
C77 C75 1.400 1_455 S
C77 C76 1.387 . S
N78 Co69 2.022 . S
N78 C75 1.351 1_455 S
N78 N79 1.365 . S
N79 C76 1.341 . S
N79 N78 1.365 . S
N79 H99 0.862 . S
C80 C75 1.501 . S
C80 H81 0.961 . S
C80 H82 0.961 . S
C80 H83 0.960 . S
H81 C80 0.961 . S
H82 C80 0.961 . S
H83 C80 0.960 . S
C84 N85 1.342 . S
C84 C88 1.401 . S
C84 C89 1.499 . S
N85 Co68 1.989 . S
N85 C84 1.342 . S
N85 N86 1.388 . S
N86 Co69 1.993 . S
N86 N85 1.388 . S
N86 C87 1.346 . S
C87 N86 1.346 . S
C87 C88 1.396 . S
C87 C97 1.510 . S
C88 C84 1.401 . S
C88 C87 1.396 . S
C89 C84 1.499 . S
C89 H90 0.959 . S
C89 H91 0.960 . S
C89 H92 0.961 . S
H90 C89 0.959 . S
H91 C89 0.960 . S
H92 C89 0.961 . S
O93 Co68 1.967 . S
O93 C101 1.258 . S
O94 Co69 1.941 . S
O94 C101 1.266 . S
H95 C97 0.959 . S
H96 C97 0.972 . S
C97 C87 1.510 . S
C97 H95 0.959 . S
C97 H96 0.972 . S
C97 H98 0.960 . S
H98 C97 0.960 . S
H99 N79 0.862 . S
O100 Co68 1.920 . S
O100 C73 1.289 1_455 S
C101 O93 1.258 . S
C101 O94 1.266 . S
Co102 O105 1.970 . S
Co102 N119 1.989 . S
Co102 O127 1.967 . S
Co102 O134 1.920 . S
Co103 O106 1.966 . S
Co103 N112 2.022 . S
Co103 N120 1.993 . S
Co103 O128 1.941 . S
C104 O105 1.258 . S
C104 O106 1.263 . S
O105 Co102 1.970 . S
O105 C104 1.258 . S
O106 Co103 1.966 . S
O106 C104 1.263 . S
C107 O108 1.235 . S
C107 O134 1.289 . S
O108 C107 1.235 . S
C109 C111 1.400 . S
C109 N112 1.351 . S
C109 C114 1.501 . S
C110 C111 1.387 . S
C110 N113 1.341 . S
C111 C109 1.400 . S
C111 C110 1.387 . S
N112 Co103 2.022 . S
N112 C109 1.351 . S
N112 N113 1.365 . S
N113 C110 1.341 . S
N113 N112 1.365 . S
N113 H133 0.862 . S
C114 C109 1.501 . S
C114 H115 0.961 . S
C114 H116 0.961 . S
C114 H117 0.960 . S
H115 C114 0.961 . S
H116 C114 0.961 . S
H117 C114 0.960 . S
C118 N119 1.342 . S
C118 C122 1.401 . S
C118 C123 1.499 . S
N119 Co102 1.989 . S
N119 C118 1.342 . S
N119 N120 1.388 . S
N120 Co103 1.993 . S
N120 N119 1.388 . S
N120 C121 1.346 . S
C121 N120 1.346 . S
C121 C122 1.396 . S
C121 C131 1.510 . S
C122 C118 1.401 . S
C122 C121 1.396 . S
C123 C118 1.499 . S
C123 H124 0.959 . S
C123 H125 0.960 . S
C123 H126 0.961 . S
H124 C123 0.959 . S
H125 C123 0.960 . S
H126 C123 0.961 . S
O127 Co102 1.967 . S
O127 C135 1.258 . S
O128 Co103 1.941 . S
O128 C135 1.266 . S
H129 C131 0.959 . S
H130 C131 0.961 . S
C131 C121 1.510 . S
C131 H129 0.959 . S
C131 H130 0.961 . S
C131 H132 0.960 . S
H132 C131 0.960 . S
H133 N113 0.862 . S
O134 Co102 1.920 . S
O134 C107 1.289 . S
C135 O127 1.258 . S
C135 O128 1.266 . S
Co136 O139 1.970 . S
Co136 N153 1.989 . S
Co136 O161 1.967 . S
Co136 O168 1.920 . S
Co137 O140 1.966 . S
Co137 N146 2.022 . S
Co137 N154 1.993 . S
Co137 O162 1.941 . S
C138 O139 1.258 . S
C138 O140 1.263 . S
O139 Co136 1.970 . S
O139 C138 1.258 . S
O140 Co137 1.966 . S
O140 C138 1.263 . S
C141 O142 1.235 . S
C141 O168 1.289 . S
O142 C141 1.235 . S
C143 C145 1.400 . S
C143 N146 1.351 . S
C143 C148 1.501 . S
C144 C145 1.387 . S
C144 N147 1.341 . S
C145 C143 1.400 . S
C145 C144 1.387 . S
N146 Co137 2.022 . S
N146 C143 1.351 . S
N146 N147 1.365 . S
N147 C144 1.341 . S
N147 N146 1.365 . S
N147 H167 0.862 . S
C148 C143 1.501 . S
C148 H149 0.961 . S
C148 H150 0.961 . S
C148 H151 0.960 . S
H149 C148 0.961 . S
H150 C148 0.961 . S
H151 C148 0.960 . S
C152 N153 1.342 . S
C152 C156 1.401 . S
C152 C157 1.499 . S
N153 Co136 1.989 . S
N153 C152 1.342 . S
N153 N154 1.388 . S
N154 Co137 1.993 . S
N154 N153 1.388 . S
N154 C155 1.346 . S
C155 N154 1.346 . S
C155 C156 1.396 . S
C155 C165 1.510 . S
C156 C152 1.401 . S
C156 C155 1.396 . S
C157 C152 1.499 . S
C157 H158 0.959 . S
C157 H159 0.960 . S
C157 H160 0.961 . S
H158 C157 0.959 . S
H159 C157 0.960 . S
H160 C157 0.961 . S
O161 Co136 1.967 . S
O161 C169 1.258 . S
O162 Co137 1.941 . S
O162 C169 1.266 . S
H163 C165 0.959 . S
H164 C165 0.961 . S
C165 C155 1.510 . S
C165 H163 0.959 . S
C165 H164 0.961 . S
C165 H166 0.960 . S
H166 C165 0.960 . S
H167 N147 0.862 . S
O168 Co136 1.920 . S
O168 C141 1.289 . S
C169 O161 1.258 . S
C169 O162 1.266 . S
Co170 O173 1.970 . S
Co170 N187 1.989 . S
Co170 O195 1.967 1_455 S
Co170 O202 1.920 . S
Co171 O174 1.966 . S
Co171 N180 2.022 . S
Co171 N188 1.993 . S
Co171 O196 1.941 1_455 S
C172 O173 1.258 . S
C172 O174 1.263 . S
O173 Co170 1.970 . S
O173 C172 1.258 . S
O174 Co171 1.966 . S
O174 C172 1.263 . S
C175 O176 1.235 . S
C175 O202 1.289 . S
O176 C175 1.235 . S
C177 C179 1.400 . S
C177 N180 1.351 . S
C177 C182 1.501 . S
C178 C179 1.387 1_655 S
C178 N181 1.341 . S
C179 C177 1.400 . S
C179 C178 1.387 1_455 S
N180 Co171 2.022 . S
N180 C177 1.351 . S
N180 N181 1.365 1_455 S
N181 C178 1.341 . S
N181 N180 1.365 1_655 S
N181 H201 0.862 . S
C182 C177 1.501 . S
C182 H183 0.961 . S
C182 H184 0.961 . S
C182 H185 0.960 . S
H183 C182 0.961 . S
H184 C182 0.961 . S
H185 C182 0.960 . S
C186 N187 1.342 . S
C186 C190 1.401 . S
C186 C191 1.499 . S
N187 Co170 1.989 . S
N187 C186 1.342 . S
N187 N188 1.388 . S
N188 Co171 1.993 . S
N188 N187 1.388 . S
N188 C189 1.346 . S
C189 N188 1.346 . S
C189 C190 1.396 . S
C189 C199 1.510 . S
C190 C186 1.401 . S
C190 C189 1.396 . S
C191 C186 1.499 . S
C191 H192 0.959 . S
C191 H193 0.960 . S
C191 H194 0.961 1_455 S
H192 C191 0.959 . S
H193 C191 0.960 . S
H194 C191 0.961 1_655 S
O195 Co170 1.967 1_655 S
O195 C203 1.258 . S
O196 Co171 1.941 1_655 S
O196 C203 1.266 . S
H197 C199 0.959 1_655 S
H198 C199 0.961 . S
C199 C189 1.510 . S
C199 H197 0.959 1_455 S
C199 H198 0.961 . S
C199 H200 0.960 . S
H200 C199 0.960 . S
H201 N181 0.862 . S
O202 Co170 1.920 . S
O202 C175 1.289 . S
C203 O195 1.258 . S
C203 O196 1.266 . S
Co204 O207 1.970 . S
Co204 N221 1.989 . S
Co204 O229 1.967 . S
Co204 O236 1.920 . S
Co205 O208 1.966 . S
Co205 N214 2.022 . S
Co205 N222 1.993 . S
Co205 O230 1.941 . S
C206 O207 1.258 . S
C206 O208 1.263 . S
O207 Co204 1.970 . S
O207 C206 1.258 . S
O208 Co205 1.966 . S
O208 C206 1.263 . S
C209 O210 1.235 . S
C209 O236 1.289 . S
O210 C209 1.235 . S
C211 C213 1.400 . S
C211 N214 1.351 . S
C211 C216 1.501 . S
C212 C213 1.387 . S
C212 N215 1.341 . S
C213 C211 1.400 . S
C213 C212 1.387 . S
N214 Co205 2.022 . S
N214 C211 1.351 . S
N214 N215 1.365 . S
N215 C212 1.341 . S
N215 N214 1.365 . S
N215 H235 0.862 . S
C216 C211 1.501 . S
C216 H217 0.961 . S
C216 H218 0.961 . S
C216 H219 0.960 . S
H217 C216 0.961 . S
H218 C216 0.961 . S
H219 C216 0.960 . S
C220 N221 1.342 . S
C220 C224 1.401 . S
C220 C225 1.499 . S
N221 Co204 1.989 . S
N221 C220 1.342 . S
N221 N222 1.388 . S
N222 Co205 1.993 . S
N222 N221 1.388 . S
N222 C223 1.346 . S
C223 N222 1.346 . S
C223 C224 1.396 . S
C223 C233 1.510 . S
C224 C220 1.401 . S
C224 C223 1.396 . S
C225 C220 1.499 . S
C225 H226 0.959 . S
C225 H227 0.960 . S
C225 H228 0.961 . S
H226 C225 0.959 . S
H227 C225 0.960 . S
H228 C225 0.961 . S
O229 Co204 1.967 . S
O229 C237 1.258 . S
O230 Co205 1.941 . S
O230 C237 1.266 . S
H231 C233 0.959 . S
H232 C233 0.961 . S
C233 C223 1.510 . S
C233 H231 0.959 . S
C233 H232 0.961 . S
C233 H234 0.960 . S
H234 C233 0.960 . S
H235 N215 0.862 . S
O236 Co204 1.920 . S
O236 C209 1.289 . S
C237 O229 1.258 . S
C237 O230 1.266 . S
Co238 O241 1.970 . S
Co238 N255 1.989 . S
Co238 O263 1.967 1_455 S
Co238 O270 1.920 . S
Co239 O242 1.966 . S
Co239 N248 2.022 . S
Co239 N256 1.993 . S
Co239 O264 1.941 1_455 S
C240 O241 1.258 . S
C240 O242 1.263 . S
O241 Co238 1.970 . S
O241 C240 1.258 . S
O242 Co239 1.966 . S
O242 C240 1.263 . S
C243 O244 1.235 . S
C243 O270 1.289 . S
O244 C243 1.235 . S
C245 C247 1.400 . S
C245 N248 1.351 . S
C245 C250 1.501 . S
C246 C247 1.387 1_655 S
C246 N249 1.341 . S
C247 C245 1.400 . S
C247 C246 1.387 1_455 S
N248 Co239 2.022 . S
N248 C245 1.351 . S
N248 N249 1.365 1_455 S
N249 C246 1.341 . S
N249 N248 1.365 1_655 S
N249 H269 0.862 . S
C250 C245 1.501 . S
C250 H251 0.961 . S
C250 H252 0.961 . S
C250 H253 0.960 . S
H251 C250 0.961 . S
H252 C250 0.961 . S
H253 C250 0.960 . S
C254 N255 1.342 . S
C254 C258 1.401 . S
C254 C259 1.499 . S
N255 Co238 1.989 . S
N255 C254 1.342 . S
N255 N256 1.388 . S
N256 Co239 1.993 . S
N256 N255 1.388 . S
N256 C257 1.346 . S
C257 N256 1.346 . S
C257 C258 1.396 . S
C257 C267 1.510 . S
C258 C254 1.401 . S
C258 C257 1.396 . S
C259 C254 1.499 . S
C259 H260 0.959 . S
C259 H261 0.960 . S
C259 H262 0.961 1_455 S
H260 C259 0.959 . S
H261 C259 0.960 . S
H262 C259 0.961 1_655 S
O263 Co238 1.967 1_655 S
O263 C271 1.258 . S
O264 Co239 1.941 1_655 S
O264 C271 1.266 . S
H265 C267 0.959 1_655 S
H266 C267 0.961 . S
C267 C257 1.510 . S
C267 H265 0.959 1_455 S
C267 H266 0.961 . S
C267 H268 0.960 . S
H268 C267 0.960 . S
H269 N249 0.862 . S
O270 Co238 1.920 . S
O270 C243 1.289 . S
C271 O263 1.258 . S
C271 O264 1.266 . S
H272 C278 0.930 . S
H273 C282 0.930 . S
H274 C287 0.929 . S
H275 C285 0.929 . S
H276 C280 0.929 . S
H277 C286 0.929 . S
C278 H272 0.930 . S
C278 C279 1.367 . S
C278 C286 1.378 . S
C279 C278 1.367 . S
C279 C287 1.433 . S
C280 H276 0.929 . S
C280 C282 1.378 . S
C280 C284 1.350 . S
C281 C284 1.463 1_556 S
C281 C286 1.350 . S
C281 N289 1.427 . S
C282 H273 0.930 . S
C282 C280 1.378 . S
C282 C283 1.367 . S
C283 C282 1.367 . S
C283 C285 1.433 . S
C284 C280 1.350 . S
C284 C281 1.463 1_554 S
C284 N288 1.427 . S
C285 H275 0.929 . S
C285 C283 1.433 . S
C285 N288 1.384 . S
C286 H277 0.929 . S
C286 C278 1.378 . S
C286 C281 1.350 . S
C287 H274 0.929 . S
C287 C279 1.433 . S
C287 N289 1.384 . S
N288 C284 1.427 . S
N288 C285 1.384 . S
N289 C281 1.427 . S
N289 C287 1.384 . S
H290 C296 0.930 . S
H291 C300 0.930 . S
H292 C305 0.929 . S
H293 C303 0.929 . S
H294 C298 0.929 . S
H295 C304 0.929 . S
C296 H290 0.930 . S
C296 C297 1.367 . S
C296 C304 1.378 . S
C297 C296 1.367 . S
C297 C305 1.433 . S
C298 H294 0.929 . S
C298 C300 1.378 . S
C298 C302 1.350 . S
C299 C302 1.463 . S
C299 C304 1.350 . S
C299 N307 1.427 . S
C300 H291 0.930 . S
C300 C298 1.378 . S
C300 C301 1.367 . S
C301 C300 1.367 . S
C301 C303 1.433 . S
C302 C298 1.350 . S
C302 C299 1.463 . S
C302 N306 1.427 . S
C303 H293 0.929 . S
C303 C301 1.433 . S
C303 N306 1.384 . S
C304 H295 0.929 . S
C304 C296 1.378 . S
C304 C299 1.350 . S
C305 H292 0.929 . S
C305 C297 1.433 . S
C305 N307 1.384 . S
N306 C302 1.427 . S
N306 C303 1.384 . S
N307 C299 1.427 . S
N307 C305 1.384 . S
H308 C314 0.930 . S
H309 C318 0.930 . S
H310 C323 0.929 . S
H311 C321 0.929 . S
H312 C316 0.929 . S
H313 C322 0.929 . S
C314 H308 0.930 . S
C314 C315 1.367 . S
C314 C322 1.378 . S
C315 C314 1.367 . S
C315 C323 1.433 . S
C316 H312 0.929 . S
C316 C318 1.378 . S
C316 C320 1.350 . S
C317 C320 1.463 1_554 S
C317 C322 1.350 . S
C317 N325 1.427 . S
C318 H309 0.930 . S
C318 C316 1.378 . S
C318 C319 1.367 . S
C319 C318 1.367 . S
C319 C321 1.433 . S
C320 C316 1.350 . S
C320 C317 1.463 1_556 S
C320 N324 1.427 . S
C321 H311 0.929 . S
C321 C319 1.433 . S
C321 N324 1.384 . S
C322 H313 0.929 . S
C322 C314 1.378 . S
C322 C317 1.350 . S
C323 H310 0.929 . S
C323 C315 1.433 . S
C323 N325 1.384 . S
N324 C320 1.427 . S
N324 C321 1.384 . S
N325 C317 1.427 . S
N325 C323 1.384 . S
H326 C332 0.930 . S
H327 C336 0.930 . S
H328 C341 0.929 . S
H329 C339 0.929 . S
H330 C334 0.929 . S
H331 C340 0.929 . S
C332 H326 0.930 . S
C332 C333 1.367 . S
C332 C340 1.378 . S
C333 C332 1.367 . S
C333 C341 1.433 . S
C334 H330 0.929 . S
C334 C336 1.378 . S
C334 C338 1.350 . S
C335 C338 1.463 . S
C335 C340 1.350 . S
C335 N343 1.427 . S
C336 H327 0.930 . S
C336 C334 1.378 . S
C336 C337 1.367 . S
C337 C336 1.367 . S
C337 C339 1.433 . S
C338 C334 1.350 . S
C338 C335 1.463 . S
C338 N342 1.427 . S
C339 H329 0.929 . S
C339 C337 1.433 . S
C339 N342 1.384 . S
C340 H331 0.929 . S
C340 C332 1.378 . S
C340 C335 1.350 . S
C341 H328 0.929 . S
C341 C333 1.433 . S
C341 N343 1.384 . S
N342 C338 1.427 . S
N342 C339 1.384 . S
N343 C335 1.427 . S
N343 C341 1.384 . S
H344 C350 0.930 . S
H345 C354 0.930 . S
H346 C359 0.929 . S
H347 C357 0.929 . S
H348 C352 0.929 . S
H349 C358 0.929 . S
C350 H344 0.930 . S
C350 C351 1.367 . S
C350 C358 1.378 . S
C351 C350 1.367 . S
C351 C359 1.433 . S
C352 H348 0.929 . S
C352 C354 1.378 . S
C352 C356 1.350 . S
C353 C356 1.463 1_554 S
C353 C358 1.350 . S
C353 N361 1.427 . S
C354 H345 0.930 . S
C354 C352 1.378 . S
C354 C355 1.367 . S
C355 C354 1.367 . S
C355 C357 1.433 . S
C356 C352 1.350 . S
C356 C353 1.463 1_556 S
C356 N360 1.427 . S
C357 H347 0.929 . S
C357 C355 1.433 . S
C357 N360 1.384 . S
C358 H349 0.929 . S
C358 C350 1.378 . S
C358 C353 1.350 . S
C359 H346 0.929 . S
C359 C351 1.433 . S
C359 N361 1.384 . S
N360 C356 1.427 . S
N360 C357 1.384 . S
N361 C353 1.427 . S
N361 C359 1.384 . S
H362 C368 0.930 . S
H363 C372 0.930 . S
H364 C377 0.929 . S
H365 C375 0.929 . S
H366 C370 0.929 . S
H367 C376 0.929 . S
C368 H362 0.930 . S
C368 C369 1.367 . S
C368 C376 1.378 . S
C369 C368 1.367 . S
C369 C377 1.433 . S
C370 H366 0.929 . S
C370 C372 1.378 . S
C370 C374 1.350 . S
C371 C374 1.463 . S
C371 C376 1.350 . S
C371 N379 1.427 . S
C372 H363 0.930 . S
C372 C370 1.378 . S
C372 C373 1.367 . S
C373 C372 1.367 . S
C373 C375 1.433 . S
C374 C370 1.350 . S
C374 C371 1.463 . S
C374 N378 1.427 . S
C375 H365 0.929 . S
C375 C373 1.433 . S
C375 N378 1.384 . S
C376 H367 0.929 . S
C376 C368 1.378 . S
C376 C371 1.350 . S
C377 H364 0.929 . S
C377 C369 1.433 . S
C377 N379 1.384 . S
N378 C374 1.427 . S
N378 C375 1.384 . S
N379 C371 1.427 . S
N379 C377 1.384 . S
H380 C386 0.930 . S
H381 C390 0.930 . S
H382 C395 0.929 . S
H383 C393 0.929 . S
H384 C388 0.929 . S
H385 C394 0.929 . S
C386 H380 0.930 . S
C386 C387 1.367 . S
C386 C394 1.378 . S
C387 C386 1.367 . S
C387 C395 1.433 . S
C388 H384 0.929 . S
C388 C390 1.378 . S
C388 C392 1.350 . S
C389 C392 1.463 1_554 S
C389 C394 1.350 . S
C389 N397 1.427 . S
C390 H381 0.930 . S
C390 C388 1.378 . S
C390 C391 1.367 . S
C391 C390 1.367 . S
C391 C393 1.433 . S
C392 C388 1.350 . S
C392 C389 1.463 1_556 S
C392 N396 1.427 . S
C393 H383 0.929 . S
C393 C391 1.433 . S
C393 N396 1.384 . S
C394 H385 0.929 . S
C394 C386 1.378 . S
C394 C389 1.350 . S
C395 H382 0.929 . S
C395 C387 1.433 . S
C395 N397 1.384 . S
N396 C392 1.427 . S
N396 C393 1.384 . S
N397 C389 1.427 . S
N397 C395 1.384 . S
H398 C404 0.930 . S
H399 C408 0.930 . S
H400 C413 0.929 . S
H401 C411 0.929 . S
H402 C406 0.929 . S
H403 C412 0.929 . S
C404 H398 0.930 . S
C404 C405 1.367 . S
C404 C412 1.378 . S
C405 C404 1.367 . S
C405 C413 1.433 . S
C406 H402 0.929 . S
C406 C408 1.378 . S
C406 C410 1.350 . S
C407 C410 1.463 . S
C407 C412 1.350 . S
C407 N415 1.427 . S
C408 H399 0.930 . S
C408 C406 1.378 . S
C408 C409 1.367 . S
C409 C408 1.367 . S
C409 C411 1.433 . S
C410 C406 1.350 . S
C410 C407 1.463 . S
C410 N414 1.427 . S
C411 H401 0.929 . S
C411 C409 1.433 . S
C411 N414 1.384 . S
C412 H403 0.929 . S
C412 C404 1.378 . S
C412 C407 1.350 . S
C413 H400 0.929 . S
C413 C405 1.433 . S
C413 N415 1.384 . S
N414 C410 1.427 . S
N414 C411 1.384 . S
N415 C407 1.427 . S
N415 C413 1.384 . S
H416 C422 0.930 . S
H417 C426 0.930 . S
H418 C431 0.929 . S
H419 C429 0.929 . S
H420 C424 0.929 . S
H421 C430 0.929 . S
C422 H416 0.930 . S
C422 C423 1.367 . S
C422 C430 1.378 . S
C423 C422 1.367 . S
C423 C431 1.433 . S
C424 H420 0.929 . S
C424 C426 1.378 . S
C424 C428 1.350 . S
C425 C428 1.463 . S
C425 C430 1.350 . S
C425 N433 1.427 . S
C426 H417 0.930 . S
C426 C424 1.378 . S
C426 C427 1.367 . S
C427 C426 1.367 . S
C427 C429 1.433 . S
C428 C424 1.350 . S
C428 C425 1.463 . S
C428 N432 1.427 . S
C429 H419 0.929 . S
C429 C427 1.433 . S
C429 N432 1.384 . S
C430 H421 0.929 . S
C430 C422 1.378 . S
C430 C425 1.350 . S
C431 H418 0.929 . S
C431 C423 1.433 . S
C431 N433 1.384 . S
N432 C428 1.427 . S
N432 C429 1.384 . S
N433 C425 1.427 . S
N433 C431 1.384 . S
H434 C440 0.930 . S
H435 C444 0.930 . S
H436 C449 0.929 . S
H437 C447 0.929 . S
H438 C442 0.929 . S
H439 C448 0.929 . S
C440 H434 0.930 . S
C440 C441 1.367 . S
C440 C448 1.378 . S
C441 C440 1.367 . S
C441 C449 1.433 . S
C442 H438 0.929 . S
C442 C444 1.378 . S
C442 C446 1.350 . S
C443 C446 1.463 . S
C443 C448 1.350 . S
C443 N451 1.427 . S
C444 H435 0.930 . S
C444 C442 1.378 . S
C444 C445 1.367 . S
C445 C444 1.367 . S
C445 C447 1.433 . S
C446 C442 1.350 . S
C446 C443 1.463 . S
C446 N450 1.427 . S
C447 H437 0.929 . S
C447 C445 1.433 . S
C447 N450 1.384 . S
C448 H439 0.929 . S
C448 C440 1.378 . S
C448 C443 1.350 . S
C449 H436 0.929 . S
C449 C441 1.433 . S
C449 N451 1.384 . S
N450 C446 1.427 . S
N450 C447 1.384 . S
N451 C443 1.427 . S
N451 C449 1.384 . S
H452 C458 0.930 . S
H453 C462 0.930 . S
H454 C467 0.929 . S
H455 C465 0.929 . S
H456 C460 0.929 . S
H457 C466 0.929 . S
C458 H452 0.930 . S
C458 C459 1.367 . S
C458 C466 1.378 . S
C459 C458 1.367 . S
C459 C467 1.433 . S
C460 H456 0.929 . S
C460 C462 1.378 . S
C460 C464 1.350 . S
C461 C464 1.463 . S
C461 C466 1.350 . S
C461 N469 1.427 . S
C462 H453 0.930 . S
C462 C460 1.378 . S
C462 C463 1.367 . S
C463 C462 1.367 . S
C463 C465 1.433 . S
C464 C460 1.350 . S
C464 C461 1.463 . S
C464 N468 1.427 . S
C465 H455 0.929 . S
C465 C463 1.433 . S
C465 N468 1.384 . S
C466 H457 0.929 . S
C466 C458 1.378 . S
C466 C461 1.350 . S
C467 H454 0.929 . S
C467 C459 1.433 . S
C467 N469 1.384 . S
N468 C464 1.427 . S
N468 C465 1.384 . S
N469 C461 1.427 . S
N469 C467 1.384 . S
H470 C476 0.930 . S
H471 C480 0.930 . S
H472 C485 0.929 . S
H473 C483 0.929 . S
H474 C478 0.929 . S
H475 C484 0.929 . S
C476 H470 0.930 . S
C476 C477 1.367 . S
C476 C484 1.378 . S
C477 C476 1.367 . S
C477 C485 1.433 . S
C478 H474 0.929 . S
C478 C480 1.378 . S
C478 C482 1.350 . S
C479 C482 1.463 . S
C479 C484 1.350 . S
C479 N487 1.427 . S
C480 H471 0.930 . S
C480 C478 1.378 . S
C480 C481 1.367 . S
C481 C480 1.367 . S
C481 C483 1.433 . S
C482 C478 1.350 . S
C482 C479 1.463 . S
C482 N486 1.427 . S
C483 H473 0.929 . S
C483 C481 1.433 . S
C483 N486 1.384 . S
C484 H475 0.929 . S
C484 C476 1.378 . S
C484 C479 1.350 . S
C485 H472 0.929 . S
C485 C477 1.433 . S
C485 N487 1.384 . S
N486 C482 1.427 . S
N486 C483 1.384 . S
N487 C479 1.427 . S
N487 C485 1.384 . S
H488 C494 0.930 . S
H489 C498 0.930 . S
H490 C503 0.929 . S
H491 C501 0.929 . S
H492 C496 0.929 . S
H493 C502 0.929 . S
C494 H488 0.930 . S
C494 C495 1.367 . S
C494 C502 1.378 1_565 S
C495 C494 1.367 . S
C495 C503 1.433 . S
C496 H492 0.929 . S
C496 C498 1.378 . S
C496 C500 1.350 . S
C497 C500 1.463 . S
C497 C502 1.350 . S
C497 N505 1.427 1_545 S
C498 H489 0.930 . S
C498 C496 1.378 . S
C498 C499 1.367 . S
C499 C498 1.367 . S
C499 C501 1.433 . S
C500 C496 1.350 . S
C500 C497 1.463 . S
C500 N504 1.427 . S
C501 H491 0.929 . S
C501 C499 1.433 . S
C501 N504 1.384 . S
C502 H493 0.929 . S
C502 C494 1.378 1_545 S
C502 C497 1.350 . S
C503 H490 0.929 . S
C503 C495 1.433 . S
C503 N505 1.384 . S
N504 C500 1.427 . S
N504 C501 1.384 . S
N505 C497 1.427 1_565 S
N505 C503 1.384 . S
H506 C512 0.930 . S
H507 C516 0.930 . S
H508 C521 0.929 . S
H509 C519 0.929 . S
H510 C514 0.929 . S
H511 C520 0.929 . S
C512 H506 0.930 . S
C512 C513 1.367 . S
C512 C520 1.378 . S
C513 C512 1.367 . S
C513 C521 1.433 1_655 S
C514 H510 0.929 . S
C514 C516 1.378 . S
C514 C518 1.340 1_545 S
C515 C518 1.473 1_655 S
C515 C520 1.350 . S
C515 N523 1.427 1_655 S
C516 H507 0.930 . S
C516 C514 1.378 . S
C516 C517 1.367 . S
C517 C516 1.367 . S
C517 C519 1.433 1_455 S
C518 C514 1.340 1_565 S
C518 C515 1.473 1_455 S
C518 N522 1.428 1_455 S
C519 H509 0.929 . S
C519 C517 1.433 1_655 S
C519 N522 1.384 1_545 S
C520 H511 0.929 . S
C520 C512 1.378 . S
C520 C515 1.350 . S
C521 H508 0.929 . S
C521 C513 1.433 1_455 S
C521 N523 1.384 . S
N522 C518 1.428 1_655 S
N522 C519 1.384 1_565 S
N523 C515 1.427 1_455 S
N523 C521 1.384 . S
H524 C530 0.930 . S
H525 C534 0.930 . S
H526 C539 0.929 . S
H527 C537 0.929 . S
H528 C532 0.929 . S
H529 C538 0.929 . S
C530 H524 0.930 . S
C530 C531 1.367 . S
C530 C538 1.378 . S
C531 C530 1.367 . S
C531 C539 1.433 . S
C532 H528 0.929 . S
C532 C534 1.378 1_565 S
C532 C536 1.350 . S
C533 C536 1.463 . S
C533 C538 1.350 . S
C533 N541 1.427 . S
C534 H525 0.930 . S
C534 C532 1.378 1_545 S
C534 C535 1.367 . S
C535 C534 1.367 . S
C535 C537 1.433 . S
C536 C532 1.350 . S
C536 C533 1.463 . S
C536 N540 1.427 1_565 S
C537 H527 0.929 . S
C537 C535 1.433 . S
C537 N540 1.384 . S
C538 H529 0.929 . S
C538 C530 1.378 . S
C538 C533 1.350 . S
C539 H526 0.929 . S
C539 C531 1.433 . S
C539 N541 1.384 . S
N540 C536 1.427 1_545 S
N540 C537 1.384 . S
N541 C533 1.427 . S
N541 C539 1.384 . S
H542 C548 0.930 . S
H543 C552 0.930 . S
H544 C557 0.929 . S
H545 C555 0.929 . S
H546 C550 0.929 . S
H547 C556 0.929 . S
C548 H542 0.930 . S
C548 C549 1.367 . S
C548 C556 1.378 . S
C549 C548 1.367 . S
C549 C557 1.433 . S
C550 H546 0.929 . S
C550 C552 1.378 . S
C550 C554 1.342 1_565 S
C551 C554 1.470 1_655 S
C551 C556 1.350 . S
C551 N559 1.427 . S
C552 H543 0.930 . S
C552 C550 1.378 . S
C552 C553 1.367 . S
C553 C552 1.367 . S
C553 C555 1.433 . S
C554 C550 1.342 1_545 S
C554 C551 1.470 1_455 S
C554 N558 1.429 1_455 S
C555 H545 0.929 . S
C555 C553 1.433 . S
C555 N558 1.383 1_465 S
C556 H547 0.929 . S
C556 C548 1.378 . S
C556 C551 1.350 . S
C557 H544 0.929 . S
C557 C549 1.433 . S
C557 N559 1.384 . S
N558 C554 1.429 1_655 S
N558 C555 1.383 1_645 S
N559 C551 1.427 . S
N559 C557 1.384 . S
H560 C566 0.930 . S
H561 C570 0.930 . S
H562 C575 0.929 . S
H563 C573 0.929 . S
H564 C568 0.929 . S
H565 C574 0.929 . S
C566 H560 0.930 . S
C566 C567 1.367 . S
C566 C574 1.378 . S
C567 C566 1.367 . S
C567 C575 1.433 1_655 S
C568 H564 0.929 . S
C568 C570 1.378 . S
C568 C572 1.350 1_455 S
C569 C572 1.463 1_556 S
C569 C574 1.350 . S
C569 N577 1.427 1_655 S
C570 H561 0.930 . S
C570 C568 1.378 . S
C570 C571 1.367 1_455 S
C571 C570 1.367 1_655 S
C571 C573 1.433 . S
C572 C568 1.350 1_655 S
C572 C569 1.463 1_554 S
C572 N576 1.427 . S
C573 H563 0.929 . S
C573 C571 1.433 . S
C573 N576 1.384 . S
C574 H565 0.929 . S
C574 C566 1.378 . S
C574 C569 1.350 . S
C575 H562 0.929 . S
C575 C567 1.433 1_455 S
C575 N577 1.384 . S
N576 C572 1.427 . S
N576 C573 1.384 . S
N577 C569 1.427 1_455 S
N577 C575 1.384 . S
H578 C584 0.930 . S
H579 C588 0.930 . S
H580 C593 0.929 . S
H581 C591 0.929 . S
H582 C586 0.929 . S
H583 C592 0.929 . S
C584 H578 0.930 . S
C584 C585 1.367 . S
C584 C592 1.378 . S
C585 C584 1.367 . S
C585 C593 1.433 . S
C586 H582 0.929 . S
C586 C588 1.378 . S
C586 C590 1.350 . S
C587 C590 1.463 . S
C587 C592 1.350 . S
C587 N595 1.427 . S
C588 H579 0.930 . S
C588 C586 1.378 . S
C588 C589 1.367 . S
C589 C588 1.367 . S
C589 C591 1.433 . S
C590 C586 1.350 . S
C590 C587 1.463 . S
C590 N594 1.427 . S
C591 H581 0.929 . S
C591 C589 1.433 . S
C591 N594 1.384 . S
C592 H583 0.929 . S
C592 C584 1.378 . S
C592 C587 1.350 . S
C593 H580 0.929 . S
C593 C585 1.433 . S
C593 N595 1.384 . S
N594 C590 1.427 . S
N594 C591 1.384 . S
N595 C587 1.427 . S
N595 C593 1.384 . S
H596 C602 0.930 . S
H597 C606 0.930 . S
H598 C611 0.929 . S
H599 C609 0.929 . S
H600 C604 0.929 1_556 S
H601 C610 0.929 1_554 S
C602 H596 0.930 . S
C602 C603 1.367 . S
C602 C610 1.378 . S
C603 C602 1.367 . S
C603 C611 1.433 . S
C604 H600 0.929 1_554 S
C604 C606 1.378 . S
C604 C608 1.350 . S
C605 C608 1.463 1_546 S
C605 C610 1.350 . S
C605 N613 1.427 . S
C606 H597 0.930 . S
C606 C604 1.378 . S
C606 C607 1.367 . S
C607 C606 1.367 . S
C607 C609 1.433 . S
C608 C604 1.350 . S
C608 C605 1.463 1_564 S
C608 N612 1.427 . S
C609 H599 0.929 . S
C609 C607 1.433 . S
C609 N612 1.384 . S
C610 H601 0.929 1_556 S
C610 C602 1.378 . S
C610 C605 1.350 . S
C611 H598 0.929 . S
C611 C603 1.433 . S
C611 N613 1.384 . S
N612 C608 1.427 . S
N612 C609 1.384 . S
N613 C605 1.427 . S
N613 C611 1.384 . S
H614 C620 0.930 . S
H615 C624 0.930 . S
H616 C629 0.929 . S
H617 C627 0.929 . S
H618 C622 0.929 . S
H619 C628 0.929 . S
C620 H614 0.930 . S
C620 C621 1.367 . S
C620 C628 1.378 . S
C621 C620 1.367 . S
C621 C629 1.433 . S
C622 H618 0.929 . S
C622 C624 1.378 . S
C622 C626 1.350 . S
C623 C626 1.463 1_565 S
C623 C628 1.350 . S
C623 N631 1.427 . S
C624 H615 0.930 . S
C624 C622 1.378 . S
C624 C625 1.367 . S
C625 C624 1.367 . S
C625 C627 1.433 . S
C626 C622 1.350 . S
C626 C623 1.463 1_545 S
C626 N630 1.427 . S
C627 H617 0.929 . S
C627 C625 1.433 . S
C627 N630 1.384 . S
C628 H619 0.929 . S
C628 C620 1.378 . S
C628 C623 1.350 . S
C629 H616 0.929 . S
C629 C621 1.433 . S
C629 N631 1.384 . S
N630 C626 1.427 . S
N630 C627 1.384 . S
N631 C623 1.427 . S
N631 C629 1.384 . S
C279 C206 1.587 . S
C283 C33 1.619 . S
C297 C67 1.615 . S
C301 C240 1.579 . S
C315 C138 1.588 . S
C319 C101 1.620 . S
C333 C135 1.616 . S
C337 C172 1.581 . S
C351 C169 1.619 . S
C355 C70 1.587 . S
C369 C203 1.619 . S
C373 C104 1.587 . S
C387 C2 1.576 . S
C391 C237 1.615 . S
C405 C36 1.575 . S
C409 C271 1.615 . S
C423 C20 1.981 . S
C427 C247 1.875 . S
C441 C54 1.980 . S
C445 C213 1.879 . S
C459 C179 1.880 . S
C463 C88 1.980 . S
C477 C122 1.974 . S
C481 C145 1.878 . S
C495 C156 1.974 . S
C499 C111 1.878 . S
C513 C77 1.881 1_655 S
C517 C190 1.980 . S
C531 C43 1.874 . S
C535 C224 1.974 . S
C549 C9 1.878 1_655 S
C553 C258 1.981 . S
C567 C73 0.188 . S
C571 C5 0.204 . S
C585 C39 0.203 . S
C589 C107 0.176 . S
C603 C209 0.171 . S
C607 C141 0.151 . S
C621 C243 0.151 . S
C625 C175 0.178 . S
