# Generated by pormake.
# Topology fcm, (5)-cn, num edge types: 1
# Building blocks:
#     Node 0, Type 0, BuildingBlock: XOMCOT_clean_sbu_1, # of connection points: 5
#     Node 1, Type 0, BuildingBlock: XOMCOT_clean_sbu_1, # of connection points: 5
#     Node 2, Type 0, BuildingBlock: XOMCOT_clean_sbu_1, # of connection points: 5
#     Node 3, Type 0, BuildingBlock: XOMCOT_clean_sbu_1, # of connection points: 5
#     Node 4, Type 0, BuildingBlock: XOMCOT_clean_sbu_1, # of connection points: 5
#     Node 5, Type 0, BuildingBlock: XOMCOT_clean_sbu_1, # of connection points: 5
#     Node 6, Type 0, BuildingBlock: XOMCOT_clean_sbu_1, # of connection points: 5
#     Node 7, Type 0, BuildingBlock: XOMCOT_clean_sbu_1, # of connection points: 5
#     Node 8, Type 0, BuildingBlock: XOMCOT_clean_sbu_1, # of connection points: 5
#     Node 9, Type 0, BuildingBlock: XOMCOT_clean_sbu_1, # of connection points: 5
#     Node 10, Type 0, BuildingBlock: XOMCOT_clean_sbu_1, # of connection points: 5
#     Node 11, Type 0, BuildingBlock: XOMCOT_clean_sbu_1, # of connection points: 5
#     Node 12, Type 0, BuildingBlock: XOMCOT_clean_sbu_1, # of connection points: 5
#     Node 13, Type 0, BuildingBlock: XOMCOT_clean_sbu_1, # of connection points: 5
#     Node 14, Type 0, BuildingBlock: XOMCOT_clean_sbu_1, # of connection points: 5
#     Node 15, Type 0, BuildingBlock: XOMCOT_clean_sbu_1, # of connection points: 5
#     Node 16, Type 0, BuildingBlock: XOMCOT_clean_sbu_1, # of connection points: 5
#     Node 17, Type 0, BuildingBlock: XOMCOT_clean_sbu_1, # of connection points: 5
#     Node 18, Type 0, BuildingBlock: XOMCOT_clean_sbu_1, # of connection points: 5
#     Node 19, Type 0, BuildingBlock: XOMCOT_clean_sbu_1, # of connection points: 5
#     Node 20, Type 0, BuildingBlock: XOMCOT_clean_sbu_1, # of connection points: 5
#     Node 21, Type 0, BuildingBlock: XOMCOT_clean_sbu_1, # of connection points: 5
#     Node 22, Type 0, BuildingBlock: XOMCOT_clean_sbu_1, # of connection points: 5
#     Node 23, Type 0, BuildingBlock: XOMCOT_clean_sbu_1, # of connection points: 5
#     Node 24, Type 0, BuildingBlock: XOMCOT_clean_sbu_1, # of connection points: 5
#     Node 25, Type 0, BuildingBlock: XOMCOT_clean_sbu_1, # of connection points: 5
#     Node 26, Type 0, BuildingBlock: XOMCOT_clean_sbu_1, # of connection points: 5
#     Node 27, Type 0, BuildingBlock: XOMCOT_clean_sbu_1, # of connection points: 5
#     Node 28, Type 0, BuildingBlock: XOMCOT_clean_sbu_1, # of connection points: 5
#     Node 29, Type 0, BuildingBlock: XOMCOT_clean_sbu_1, # of connection points: 5
#     Node 30, Type 0, BuildingBlock: XOMCOT_clean_sbu_1, # of connection points: 5
#     Node 31, Type 0, BuildingBlock: XOMCOT_clean_sbu_1, # of connection points: 5
#     Node 32, Type 0, BuildingBlock: XOMCOT_clean_sbu_1, # of connection points: 5
#     Node 33, Type 0, BuildingBlock: XOMCOT_clean_sbu_1, # of connection points: 5
#     Node 34, Type 0, BuildingBlock: XOMCOT_clean_sbu_1, # of connection points: 5
#     Node 35, Type 0, BuildingBlock: XOMCOT_clean_sbu_1, # of connection points: 5
#     Node 36, Type 0, BuildingBlock: XOMCOT_clean_sbu_1, # of connection points: 5
#     Node 37, Type 0, BuildingBlock: XOMCOT_clean_sbu_1, # of connection points: 5
#     Node 38, Type 0, BuildingBlock: XOMCOT_clean_sbu_1, # of connection points: 5
#     Node 39, Type 0, BuildingBlock: XOMCOT_clean_sbu_1, # of connection points: 5
#     Node 40, Type 0, BuildingBlock: XOMCOT_clean_sbu_1, # of connection points: 5
#     Node 41, Type 0, BuildingBlock: XOMCOT_clean_sbu_1, # of connection points: 5
#     Node 42, Type 0, BuildingBlock: XOMCOT_clean_sbu_1, # of connection points: 5
#     Node 43, Type 0, BuildingBlock: XOMCOT_clean_sbu_1, # of connection points: 5
#     Node 44, Type 0, BuildingBlock: XOMCOT_clean_sbu_1, # of connection points: 5
#     Node 45, Type 0, BuildingBlock: XOMCOT_clean_sbu_1, # of connection points: 5
#     Node 46, Type 0, BuildingBlock: XOMCOT_clean_sbu_1, # of connection points: 5
#     Node 47, Type 0, BuildingBlock: XOMCOT_clean_sbu_1, # of connection points: 5
#     Edge 48, Type (0, 0), None
#     Edge 49, Type (0, 0), None
#     Edge 50, Type (0, 0), None
#     Edge 51, Type (0, 0), None
#     Edge 52, Type (0, 0), None
#     Edge 53, Type (0, 0), None
#     Edge 54, Type (0, 0), None
#     Edge 55, Type (0, 0), None
#     Edge 56, Type (0, 0), None
#     Edge 57, Type (0, 0), None
#     Edge 58, Type (0, 0), None
#     Edge 59, Type (0, 0), None
#     Edge 60, Type (0, 0), None
#     Edge 61, Type (0, 0), None
#     Edge 62, Type (0, 0), None
#     Edge 63, Type (0, 0), None
#     Edge 64, Type (0, 0), None
#     Edge 65, Type (0, 0), None
#     Edge 66, Type (0, 0), None
#     Edge 67, Type (0, 0), None
#     Edge 68, Type (0, 0), None
#     Edge 69, Type (0, 0), None
#     Edge 70, Type (0, 0), None
#     Edge 71, Type (0, 0), None
#     Edge 72, Type (0, 0), None
#     Edge 73, Type (0, 0), None
#     Edge 74, Type (0, 0), None
#     Edge 75, Type (0, 0), None
#     Edge 76, Type (0, 0), None
#     Edge 77, Type (0, 0), None
#     Edge 78, Type (0, 0), None
#     Edge 79, Type (0, 0), None
#     Edge 80, Type (0, 0), None
#     Edge 81, Type (0, 0), None
#     Edge 82, Type (0, 0), None
#     Edge 83, Type (0, 0), None
#     Edge 84, Type (0, 0), None
#     Edge 85, Type (0, 0), None
#     Edge 86, Type (0, 0), None
#     Edge 87, Type (0, 0), None
#     Edge 88, Type (0, 0), None
#     Edge 89, Type (0, 0), None
#     Edge 90, Type (0, 0), None
#     Edge 91, Type (0, 0), None
#     Edge 92, Type (0, 0), None
#     Edge 93, Type (0, 0), None
#     Edge 94, Type (0, 0), None
#     Edge 95, Type (0, 0), None
#     Edge 96, Type (0, 0), None
#     Edge 97, Type (0, 0), None
#     Edge 98, Type (0, 0), None
#     Edge 99, Type (0, 0), None
#     Edge 100, Type (0, 0), None
#     Edge 101, Type (0, 0), None
#     Edge 102, Type (0, 0), None
#     Edge 103, Type (0, 0), None
#     Edge 104, Type (0, 0), None
#     Edge 105, Type (0, 0), None
#     Edge 106, Type (0, 0), None
#     Edge 107, Type (0, 0), None
#     Edge 108, Type (0, 0), None
#     Edge 109, Type (0, 0), None
#     Edge 110, Type (0, 0), None
#     Edge 111, Type (0, 0), None
#     Edge 112, Type (0, 0), None
#     Edge 113, Type (0, 0), None
#     Edge 114, Type (0, 0), None
#     Edge 115, Type (0, 0), None
#     Edge 116, Type (0, 0), None
#     Edge 117, Type (0, 0), None
#     Edge 118, Type (0, 0), None
#     Edge 119, Type (0, 0), None
#     Edge 120, Type (0, 0), None
#     Edge 121, Type (0, 0), None
#     Edge 122, Type (0, 0), None
#     Edge 123, Type (0, 0), None
#     Edge 124, Type (0, 0), None
#     Edge 125, Type (0, 0), None
#     Edge 126, Type (0, 0), None
#     Edge 127, Type (0, 0), None
#     Edge 128, Type (0, 0), None
#     Edge 129, Type (0, 0), None
#     Edge 130, Type (0, 0), None
#     Edge 131, Type (0, 0), None
#     Edge 132, Type (0, 0), None
#     Edge 133, Type (0, 0), None
#     Edge 134, Type (0, 0), None
#     Edge 135, Type (0, 0), None
#     Edge 136, Type (0, 0), None
#     Edge 137, Type (0, 0), None
#     Edge 138, Type (0, 0), None
#     Edge 139, Type (0, 0), None
#     Edge 140, Type (0, 0), None
#     Edge 141, Type (0, 0), None
#     Edge 142, Type (0, 0), None
#     Edge 143, Type (0, 0), None
#     Edge 144, Type (0, 0), None
#     Edge 145, Type (0, 0), None
#     Edge 146, Type (0, 0), None
#     Edge 147, Type (0, 0), None
#     Edge 148, Type (0, 0), None
#     Edge 149, Type (0, 0), None
#     Edge 150, Type (0, 0), None
#     Edge 151, Type (0, 0), None
#     Edge 152, Type (0, 0), None
#     Edge 153, Type (0, 0), None
#     Edge 154, Type (0, 0), None
#     Edge 155, Type (0, 0), None
#     Edge 156, Type (0, 0), None
#     Edge 157, Type (0, 0), None
#     Edge 158, Type (0, 0), None
#     Edge 159, Type (0, 0), None
#     Edge 160, Type (0, 0), None
#     Edge 161, Type (0, 0), None
#     Edge 162, Type (0, 0), None
#     Edge 163, Type (0, 0), None
#     Edge 164, Type (0, 0), None
#     Edge 165, Type (0, 0), None
#     Edge 166, Type (0, 0), None
#     Edge 167, Type (0, 0), None
# Relax obj value: 0.397
# Max RMSD: 0.285
# Mean RMSD: 0.285
data_MOF--net-fcm--node1-XOMCOT_clean_sbu_1--edge1-none
_symmetry_space_group_name_H-M    P1
_symmetry_Int_Tables_number       1
_symmetry_cell_setting            triclinic
loop_
_symmetry_equiv_pos_as_xyz
'x, y, z'
_cell_length_a     35.611726
_cell_length_b     35.611615
_cell_length_c     35.612102
_cell_angle_alpha  89.999876
_cell_angle_beta   89.997886
_cell_angle_gamma 89.999556
loop_
_atom_site_label
_atom_site_type_symbol
_atom_site_fract_x
_atom_site_fract_y
_atom_site_fract_z
_atom_type_partial_charge
C0 C 0.03735 0.98557 0.33326 0.0
C1 C 0.03524 0.97436 0.29647 0.0
N2 N 0.04152 1.00482 0.2753 0.0
N3 N 0.04423 0.02293 0.33507 0.0
C4 C 0.04756 0.0336 0.29884 0.0
H5 H 0.03481 0.96725 0.35734 0.0
Co6 Co 0.05184 0.04578 0.38137 0.0
C7 C 0.11173 0.10503 0.36707 0.0
O8 O 0.09206 0.12946 0.38622 0.0
N9 N 0.06118 0.06358 0.42918 0.0
C10 C 0.08143 0.09066 0.48162 0.0
C11 C 0.0612 0.09601 0.44883 0.0
C12 C 0.07802 0.03844 0.45194 0.0
N13 N 0.09134 0.05419 0.48351 0.0
O14 O 0.00912 0.01656 0.40209 0.0
H15 H 0.04919 0.12221 0.43932 0.0
H16 H 0.08348 0.00967 0.44366 0.0
O17 O 0.09875 0.07174 0.36171 0.0
C18 C 0.97417 0.00913 0.39739 0.0
O19 O 0.95511 0.02483 0.37001 0.0
N20 N 0.01946 0.08819 0.36761 0.0
C21 C 0.9638 0.12555 0.32644 0.0
C22 C 1.00178 0.1288 0.31678 0.0
C23 C 0.02872 0.10936 0.33697 0.0
C24 C 0.98484 0.09411 0.38339 0.0
C25 C 0.95569 0.11099 0.36224 0.0
H26 H 0.05624 0.10911 0.32497 0.0
H27 H 0.97821 0.08207 0.41043 0.0
H28 H 0.05619 0.06089 0.28927 0.0
H29 H 0.02969 0.94632 0.28613 0.0
H30 H 0.08814 0.11179 0.50243 0.0
H31 H 0.01067 0.1436 0.29174 0.0
H32 H 0.9272 0.11033 0.37278 0.0
C33 C 0.27572 0.7873 0.58325 0.0
C34 C 0.28692 0.78519 0.54647 0.0
N35 N 0.25647 0.79151 0.5253 0.0
N36 N 0.23837 0.79422 0.58507 0.0
C37 C 0.2277 0.79757 0.54884 0.0
H38 H 0.29404 0.78474 0.60733 0.0
Co39 Co 0.21552 0.80184 0.63137 0.0
C40 C 0.15627 0.86173 0.61708 0.0
O41 O 0.13184 0.84206 0.63623 0.0
N42 N 0.19772 0.81118 0.67918 0.0
C43 C 0.17065 0.83144 0.73163 0.0
C44 C 0.1653 0.81121 0.69884 0.0
C45 C 0.22286 0.82803 0.70194 0.0
N46 N 0.20712 0.84135 0.73352 0.0
O47 O 0.24474 0.75912 0.6521 0.0
H48 H 0.13909 0.7992 0.68934 0.0
H49 H 0.25163 0.83348 0.69365 0.0
O50 O 0.18956 0.84875 0.61171 0.0
C51 C 0.25217 0.72417 0.6474 0.0
O52 O 0.23647 0.7051 0.62003 0.0
N53 N 0.17311 0.76946 0.61762 0.0
C54 C 0.13574 0.71381 0.57644 0.0
C55 C 0.13249 0.75179 0.56679 0.0
C56 C 0.15194 0.77873 0.58698 0.0
C57 C 0.16718 0.73484 0.6334 0.0
C58 C 0.1503 0.70569 0.61225 0.0
H59 H 0.15219 0.80624 0.57498 0.0
H60 H 0.17922 0.7282 0.66043 0.0
H61 H 0.20042 0.80624 0.53928 0.0
H62 H 0.31496 0.77963 0.53612 0.0
H63 H 0.14952 0.83815 0.75244 0.0
H64 H 0.11769 0.76068 0.54175 0.0
H65 H 0.15096 0.6772 0.62278 0.0
C66 C 0.47393 0.02574 0.83326 0.0
C67 C 0.47604 0.03694 0.79648 0.0
N68 N 0.46978 0.00648 0.77531 0.0
N69 N 0.46706 0.98837 0.83508 0.0
C70 C 0.46374 0.97769 0.79885 0.0
H71 H 0.47646 0.04406 0.85735 0.0
Co72 Co 0.45945 0.96553 0.88138 0.0
C73 C 0.39956 0.90627 0.86709 0.0
O74 O 0.41923 0.88184 0.88626 0.0
N75 N 0.45012 0.94773 0.92919 0.0
C76 C 0.42988 0.92065 0.98164 0.0
C77 C 0.4501 0.9153 0.94885 0.0
C78 C 0.43327 0.97287 0.95195 0.0
N79 N 0.41996 0.95712 0.98353 0.0
O80 O 0.50217 0.99475 0.9021 0.0
H81 H 0.46212 0.8891 0.93934 0.0
H82 H 0.4278 1.00163 0.94366 0.0
O83 O 0.41255 0.93956 0.86172 0.0
C84 C 0.53712 1.00219 0.89739 0.0
O85 O 0.55618 0.98649 0.87001 0.0
N86 N 0.49184 0.92312 0.86762 0.0
C87 C 0.54749 0.88574 0.82646 0.0
C88 C 0.50951 0.88249 0.81681 0.0
C89 C 0.48257 0.90193 0.83699 0.0
C90 C 0.52646 0.9172 0.8834 0.0
C91 C 0.55561 0.90032 0.86225 0.0
H92 H 0.45505 0.90218 0.825 0.0
H93 H 0.5331 0.92925 0.91043 0.0
H94 H 0.45513 0.9504 0.78928 0.0
H95 H 0.48158 0.06498 0.78614 0.0
H96 H 0.42317 0.89952 1.00245 0.0
H97 H 0.50061 0.86768 0.79177 0.0
H98 H 0.5841 0.90098 0.87278 0.0
C99 C 0.23557 0.22402 0.08325 0.0
C100 C 0.22437 0.22613 0.04647 0.0
N101 N 0.25482 0.21979 0.0253 0.0
N102 N 0.27292 0.21709 0.08507 0.0
C103 C 0.28359 0.21372 0.04884 0.0
H104 H 0.21725 0.2266 0.10733 0.0
Co105 Co 0.29577 0.20947 0.13137 0.0
C106 C 0.35502 0.14958 0.11707 0.0
O107 O 0.37945 0.16926 0.13622 0.0
N108 N 0.31357 0.20014 0.17918 0.0
C109 C 0.34066 0.17989 0.23162 0.0
C110 C 0.346 0.20011 0.19883 0.0
C111 C 0.28844 0.18328 0.20194 0.0
N112 N 0.30419 0.16997 0.23352 0.0
O113 O 0.26656 0.2522 0.1521 0.0
H114 H 0.3722 0.21213 0.18932 0.0
H115 H 0.25967 0.17782 0.19366 0.0
O116 O 0.32173 0.16256 0.11171 0.0
C117 C 0.25913 0.28715 0.14741 0.0
O118 O 0.27483 0.30622 0.12003 0.0
N119 N 0.33818 0.24186 0.11761 0.0
C120 C 0.37555 0.2975 0.07644 0.0
C121 C 0.37879 0.25953 0.06678 0.0
C122 C 0.35935 0.23259 0.08697 0.0
C123 C 0.34411 0.27647 0.13339 0.0
C124 C 0.36099 0.30562 0.11224 0.0
H125 H 0.3591 0.20507 0.07497 0.0
H126 H 0.33207 0.2831 0.16043 0.0
H127 H 0.31087 0.20504 0.03928 0.0
H128 H 0.19634 0.2317 0.03612 0.0
H129 H 0.3618 0.17318 0.25243 0.0
H130 H 0.39359 0.25063 0.04173 0.0
H131 H 0.36034 0.33411 0.12278 0.0
C132 C 0.03739 0.02571 0.17803 0.0
C133 C 0.03529 0.03691 0.21481 0.0
N134 N 0.04152 0.00645 0.23598 0.0
N135 N 0.04423 0.98834 0.17621 0.0
C136 C 0.04753 0.97766 0.21245 0.0
H137 H 0.03489 0.04403 0.15394 0.0
Co138 Co 0.05183 0.9655 0.12991 0.0
C139 C 0.11171 0.90623 0.14418 0.0
O140 O 0.09204 0.88181 0.12501 0.0
N141 N 0.06117 0.94771 0.08209 0.0
C142 C 0.08142 0.92065 0.02964 0.0
C143 C 0.06119 0.9153 0.06242 0.0
C144 C 0.07802 0.97286 0.05935 0.0
N145 N 0.09134 0.95713 0.02776 0.0
O146 O 0.00912 0.99474 0.1092 0.0
H147 H 0.04917 0.88909 0.07192 0.0
H148 H 0.08348 1.00162 0.06764 0.0
O149 O 0.09874 0.93952 0.14956 0.0
C150 C 0.97418 1.00218 0.11392 0.0
O151 O 0.95513 0.98649 0.14132 0.0
N152 N 0.01944 0.9231 0.14366 0.0
C153 C 0.96379 0.88574 0.18484 0.0
C154 C 1.00176 0.88247 0.19447 0.0
C155 C 0.02871 0.90191 0.17428 0.0
C156 C 0.98481 0.91719 0.12789 0.0
C157 C 0.95566 0.90032 0.14904 0.0
H158 H 0.05623 0.90214 0.18628 0.0
H159 H 0.97818 0.92925 0.10086 0.0
H160 H 0.05612 0.95036 0.22201 0.0
H161 H 0.02978 0.06496 0.22515 0.0
H162 H 0.08813 0.89953 0.00882 0.0
H163 H 0.01066 0.86766 0.21951 0.0
H164 H 0.92717 0.90099 0.13851 0.0
C165 C 0.23557 0.78745 0.42802 0.0
C166 C 0.22437 0.78534 0.46481 0.0
N167 N 0.25484 0.79153 0.48598 0.0
N168 N 0.27295 0.79425 0.42621 0.0
C169 C 0.28364 0.79752 0.46245 0.0
H170 H 0.21725 0.78497 0.40394 0.0
Co171 Co 0.29579 0.80184 0.37991 0.0
C172 C 0.35507 0.86172 0.39417 0.0
O173 O 0.37948 0.84204 0.375 0.0
N174 N 0.31357 0.81117 0.33209 0.0
C175 C 0.34064 0.83141 0.27963 0.0
C176 C 0.34599 0.81118 0.31242 0.0
C177 C 0.28843 0.82803 0.30934 0.0
N178 N 0.30417 0.84134 0.27776 0.0
O179 O 0.26654 0.75914 0.3592 0.0
H180 H 0.3722 0.79916 0.32191 0.0
H181 H 0.25967 0.8335 0.31764 0.0
O182 O 0.32178 0.84874 0.39956 0.0
C183 C 0.25909 0.7242 0.36394 0.0
O184 O 0.27477 0.70515 0.39134 0.0
N185 N 0.33819 0.76944 0.39365 0.0
C186 C 0.37555 0.71379 0.43483 0.0
C187 C 0.37883 0.75177 0.44445 0.0
C188 C 0.35939 0.77871 0.42427 0.0
C189 C 0.34408 0.73481 0.37789 0.0
C190 C 0.36096 0.70566 0.39904 0.0
H191 H 0.35916 0.80623 0.43626 0.0
H192 H 0.33202 0.72817 0.35086 0.0
H193 H 0.31095 0.80607 0.47202 0.0
H194 H 0.19632 0.77986 0.47515 0.0
H195 H 0.36176 0.83811 0.25881 0.0
H196 H 0.39365 0.76066 0.46949 0.0
H197 H 0.36027 0.67717 0.38852 0.0
C198 C 0.47391 0.98558 0.67804 0.0
C199 C 0.47602 0.97438 0.71482 0.0
N200 N 0.46978 1.00485 0.73599 0.0
N201 N 0.46707 0.02295 0.67622 0.0
C202 C 0.46376 0.03364 0.71245 0.0
H203 H 0.47642 0.96726 0.65395 0.0
Co204 Co 0.45947 0.04579 0.62992 0.0
C205 C 0.39959 0.10506 0.64418 0.0
O206 O 0.41926 0.12947 0.62502 0.0
N207 N 0.45014 0.06357 0.5821 0.0
C208 C 0.42989 0.09064 0.52964 0.0
C209 C 0.45011 0.09599 0.56243 0.0
C210 C 0.43328 0.03843 0.55935 0.0
N211 N 0.41996 0.05417 0.52777 0.0
O212 O 0.50218 0.01655 0.6092 0.0
H213 H 0.46214 0.1222 0.57192 0.0
H214 H 0.42782 0.00967 0.56764 0.0
O215 O 0.41256 0.07177 0.64957 0.0
C216 C 0.53712 0.00911 0.61393 0.0
O217 O 0.55617 0.0248 0.64132 0.0
N218 N 0.49186 0.08819 0.64366 0.0
C219 C 0.54751 0.12556 0.68484 0.0
C220 C 0.50953 0.12882 0.69448 0.0
C221 C 0.48259 0.10938 0.67429 0.0
C222 C 0.52649 0.0941 0.62789 0.0
C223 C 0.55564 0.11097 0.64905 0.0
H224 H 0.45507 0.10915 0.68628 0.0
H225 H 0.53313 0.08204 0.60086 0.0
H226 H 0.45517 0.06093 0.72202 0.0
H227 H 0.48153 0.94634 0.72516 0.0
H228 H 0.42318 0.11176 0.50882 0.0
H229 H 0.50063 0.14364 0.71951 0.0
H230 H 0.58413 0.11029 0.63852 0.0
C231 C 0.27572 0.22381 0.92802 0.0
C232 C 0.28693 0.22593 0.96481 0.0
N233 N 0.25645 0.21976 0.98598 0.0
N234 N 0.23834 0.21704 0.92621 0.0
C235 C 0.22765 0.21378 0.96245 0.0
H236 H 0.29405 0.22628 0.90394 0.0
Co237 Co 0.21551 0.20945 0.87991 0.0
C238 C 0.15623 0.14957 0.89416 0.0
O239 O 0.13182 0.16924 0.87498 0.0
N240 N 0.19772 0.20013 0.83209 0.0
C241 C 0.17066 0.17991 0.77963 0.0
C242 C 0.16531 0.20013 0.81242 0.0
C243 C 0.22286 0.18328 0.80934 0.0
N244 N 0.20713 0.16997 0.77775 0.0
O245 O 0.24476 0.25216 0.85921 0.0
H246 H 0.1391 0.21216 0.82192 0.0
H247 H 0.25162 0.1778 0.81763 0.0
O248 O 0.18951 0.16255 0.89955 0.0
C249 C 0.25221 0.2871 0.86395 0.0
O250 O 0.23652 0.30614 0.89135 0.0
N251 N 0.1731 0.24185 0.89366 0.0
C252 C 0.13573 0.2975 0.93483 0.0
C253 C 0.13245 0.25952 0.94445 0.0
C254 C 0.1519 0.23257 0.92427 0.0
C255 C 0.16721 0.27648 0.87789 0.0
C256 C 0.15034 0.30563 0.89905 0.0
H257 H 0.15213 0.20505 0.93626 0.0
H258 H 0.17928 0.28313 0.85087 0.0
H259 H 0.20033 0.20526 0.97202 0.0
H260 H 0.31498 0.2314 0.97514 0.0
H261 H 0.14953 0.17322 0.75881 0.0
H262 H 0.11763 0.25062 0.96949 0.0
H263 H 0.15102 0.33413 0.88853 0.0
C264 C 0.33325 0.03732 0.98556 0.0
C265 C 0.29646 0.03521 0.97436 0.0
N266 N 0.27529 0.04152 1.00481 0.0
N267 N 0.33506 0.04423 0.02292 0.0
C268 C 0.29883 0.04757 0.03359 0.0
H269 H 0.35733 0.03477 0.96724 0.0
Co270 Co 0.38136 0.05184 0.04577 0.0
C271 C 0.36706 0.11172 0.10503 0.0
O272 O 0.3862 0.09204 0.12946 0.0
N273 N 0.42917 0.06118 0.06358 0.0
C274 C 0.48161 0.08143 0.09066 0.0
C275 C 0.44882 0.06121 0.096 0.0
C276 C 0.45193 0.07803 0.03844 0.0
N277 N 0.48351 0.09135 0.05419 0.0
O278 O 0.4021 0.00913 0.01656 0.0
H279 H 0.43931 0.04919 0.12221 0.0
H280 H 0.44365 0.08349 0.00967 0.0
O281 O 0.36169 0.09875 0.07174 0.0
C282 C 0.3974 0.97418 0.00911 0.0
O283 O 0.37001 0.95511 0.02479 0.0
N284 N 0.3676 0.01945 0.08818 0.0
C285 C 0.32643 0.96379 0.12553 0.0
C286 C 0.31678 1.00177 0.12879 0.0
C287 C 0.33696 0.02872 0.10935 0.0
C288 C 0.38338 0.98483 0.09409 0.0
C289 C 0.36223 0.95568 0.11097 0.0
H290 H 0.32496 0.05623 0.1091 0.0
H291 H 0.41042 0.9782 0.08205 0.0
H292 H 0.28926 0.05622 0.06087 0.0
H293 H 0.28612 0.02965 0.94632 0.0
H294 H 0.50242 0.08814 0.11179 0.0
H295 H 0.29173 0.01066 0.14359 0.0
H296 H 0.37277 0.92719 0.1103 0.0
C297 C 0.22399 0.08325 0.23556 0.0
C298 C 0.2261 0.04646 0.22436 0.0
N299 N 0.21979 0.0253 0.25481 0.0
N300 N 0.21709 0.08507 0.27292 0.0
C301 C 0.21374 0.04884 0.2836 0.0
H302 H 0.22655 0.10733 0.21724 0.0
Co303 Co 0.20947 0.13137 0.29577 0.0
C304 C 0.14959 0.11707 0.35503 0.0
O305 O 0.16927 0.13622 0.37946 0.0
N306 N 0.20014 0.17918 0.31358 0.0
C307 C 0.17989 0.23163 0.34066 0.0
C308 C 0.20011 0.19883 0.346 0.0
C309 C 0.18329 0.20194 0.28844 0.0
N310 N 0.16998 0.23352 0.30419 0.0
O311 O 0.25219 0.1521 0.26655 0.0
H312 H 0.21213 0.18932 0.37221 0.0
H313 H 0.17783 0.19366 0.25967 0.0
O314 O 0.16257 0.1117 0.32174 0.0
C315 C 0.28713 0.14741 0.2591 0.0
O316 O 0.30621 0.12002 0.27478 0.0
N317 N 0.24187 0.11761 0.33817 0.0
C318 C 0.29752 0.07644 0.37554 0.0
C319 C 0.25954 0.06679 0.37879 0.0
C320 C 0.2326 0.08697 0.35935 0.0
C321 C 0.27649 0.13339 0.34409 0.0
C322 C 0.30564 0.11224 0.36096 0.0
H323 H 0.20508 0.07498 0.35911 0.0
H324 H 0.28312 0.16042 0.33204 0.0
H325 H 0.20509 0.03928 0.31088 0.0
H326 H 0.23165 0.03612 0.19633 0.0
H327 H 0.17319 0.25244 0.36179 0.0
H328 H 0.25065 0.04174 0.39359 0.0
H329 H 0.33413 0.12277 0.36029 0.0
C330 C 0.17805 0.97398 0.48556 0.0
C331 C 0.21484 0.97609 0.47436 0.0
N332 N 0.236 0.96979 0.50481 0.0
N333 N 0.17623 0.96708 0.52292 0.0
C334 C 0.21246 0.96374 0.53359 0.0
H335 H 0.15397 0.97653 0.46724 0.0
Co336 Co 0.12993 0.95947 0.54577 0.0
C337 C 0.14423 0.89959 0.60503 0.0
O338 O 0.12508 0.91927 0.62946 0.0
N339 N 0.08212 0.95013 0.56357 0.0
C340 C 0.02967 0.92988 0.59065 0.0
C341 C 0.06246 0.9501 0.596 0.0
C342 C 0.05937 0.93328 0.53843 0.0
N343 N 0.02778 0.91997 0.55418 0.0
O344 O 0.1092 1.00218 0.51655 0.0
H345 H 0.07197 0.96212 0.6222 0.0
H346 H 0.06765 0.92782 0.50967 0.0
O347 O 0.1496 0.91256 0.57174 0.0
C348 C 0.1139 0.03713 0.5091 0.0
O349 O 0.14129 0.0562 0.52477 0.0
N350 N 0.14369 0.99186 0.58817 0.0
C351 C 0.18486 0.04752 0.62553 0.0
C352 C 0.19451 0.00954 0.62879 0.0
C353 C 0.17432 0.9826 0.60935 0.0
C354 C 0.12791 0.02649 0.59408 0.0
C355 C 0.14907 0.05564 0.61095 0.0
H356 H 0.18632 0.95508 0.60911 0.0
H357 H 0.10088 0.03312 0.58204 0.0
H358 H 0.22202 0.9551 0.56088 0.0
H359 H 0.22518 0.98164 0.44632 0.0
H360 H 0.00886 0.92317 0.61178 0.0
H361 H 0.21955 1.00064 0.64359 0.0
H362 H 0.13853 0.08413 0.61028 0.0
C363 C 0.28735 0.92804 0.73556 0.0
C364 C 0.28524 0.96483 0.72436 0.0
N365 N 0.29151 0.986 0.75481 0.0
N366 N 0.29423 0.92623 0.77293 0.0
C367 C 0.29755 0.96246 0.7836 0.0
H368 H 0.28482 0.90396 0.71724 0.0
Co369 Co 0.30184 0.87993 0.79577 0.0
C370 C 0.36171 0.89423 0.85504 0.0
O371 O 0.34203 0.87507 0.87947 0.0
N372 N 0.31118 0.83212 0.81357 0.0
C373 C 0.33144 0.77967 0.84064 0.0
C374 C 0.31121 0.81246 0.84599 0.0
C375 C 0.32803 0.80937 0.78843 0.0
N376 N 0.34135 0.77779 0.80417 0.0
O377 O 0.25913 0.8592 0.76655 0.0
H378 H 0.29919 0.82196 0.8722 0.0
H379 H 0.33349 0.81765 0.75966 0.0
O380 O 0.34874 0.8996 0.82175 0.0
C381 C 0.22419 0.8639 0.7591 0.0
O382 O 0.20512 0.8913 0.77477 0.0
N383 N 0.26944 0.89368 0.83818 0.0
C384 C 0.21378 0.93485 0.87553 0.0
C385 C 0.25175 0.9445 0.87879 0.0
C386 C 0.2787 0.92432 0.85936 0.0
C387 C 0.23482 0.8779 0.84408 0.0
C388 C 0.20567 0.89905 0.86096 0.0
H389 H 0.30622 0.93632 0.85911 0.0
H390 H 0.22819 0.85087 0.83203 0.0
H391 H 0.30617 0.97203 0.81089 0.0
H392 H 0.27971 0.97517 0.69632 0.0
H393 H 0.33815 0.75886 0.86177 0.0
H394 H 0.26065 0.96954 0.8936 0.0
H395 H 0.17717 0.88852 0.86028 0.0
C396 C 0.33328 0.97388 0.52571 0.0
C397 C 0.29649 0.97599 0.53691 0.0
N398 N 0.27532 0.96978 0.50645 0.0
N399 N 0.3351 0.96705 0.48834 0.0
C400 C 0.29886 0.96377 0.47765 0.0
H401 H 0.35736 0.97637 0.54403 0.0
Co402 Co 0.3814 0.95944 0.4655 0.0
C403 C 0.36713 0.89956 0.40623 0.0
O404 O 0.38631 0.91923 0.38182 0.0
N405 N 0.42922 0.95011 0.44771 0.0
C406 C 0.48168 0.92988 0.42065 0.0
C407 C 0.44889 0.9501 0.4153 0.0
C408 C 0.45196 0.93326 0.47286 0.0
N409 N 0.48355 0.91996 0.45712 0.0
O410 O 0.40212 1.00215 0.49473 0.0
H411 H 0.43939 0.96212 0.38909 0.0
H412 H 0.44366 0.9278 0.50162 0.0
O413 O 0.36174 0.91254 0.43952 0.0
C414 C 0.39741 0.0371 0.50219 0.0
O415 O 0.37001 0.05616 0.48651 0.0
N416 N 0.36765 0.99184 0.4231 0.0
C417 C 0.32648 0.04749 0.38573 0.0
C418 C 0.31685 0.00951 0.38246 0.0
C419 C 0.33703 0.98257 0.4019 0.0
C420 C 0.38342 0.02647 0.4172 0.0
C421 C 0.36227 0.05562 0.40032 0.0
H422 H 0.32504 0.95505 0.40214 0.0
H423 H 0.41045 0.03311 0.42926 0.0
H424 H 0.28929 0.9552 0.45035 0.0
H425 H 0.28615 0.98149 0.56496 0.0
H426 H 0.5025 0.92318 0.39953 0.0
H427 H 0.29181 1.00061 0.36764 0.0
H428 H 0.37279 0.08411 0.40101 0.0
C429 C 0.28739 0.08328 0.7757 0.0
C430 C 0.28527 0.04649 0.78691 0.0
N431 N 0.29151 0.02532 0.75645 0.0
N432 N 0.29424 0.08509 0.73834 0.0
C433 C 0.29754 0.04886 0.72766 0.0
H434 H 0.28488 0.10736 0.79403 0.0
Co435 Co 0.30185 0.13139 0.7155 0.0
C436 C 0.36174 0.11712 0.65624 0.0
O437 O 0.34207 0.13629 0.63182 0.0
N438 N 0.31119 0.17921 0.6977 0.0
C439 C 0.33142 0.23167 0.67065 0.0
C440 C 0.31121 0.19888 0.66529 0.0
C441 C 0.32803 0.20196 0.72285 0.0
N442 N 0.34134 0.23355 0.70712 0.0
O443 O 0.25914 0.15212 0.74472 0.0
H444 H 0.29919 0.18938 0.63908 0.0
H445 H 0.33349 0.19367 0.75161 0.0
O446 O 0.34875 0.11173 0.68952 0.0
C447 C 0.22419 0.14742 0.75217 0.0
O448 O 0.20512 0.12003 0.73649 0.0
N449 N 0.26946 0.11765 0.67309 0.0
C450 C 0.21381 0.07647 0.63573 0.0
C451 C 0.25179 0.06683 0.63246 0.0
C452 C 0.27873 0.08702 0.6519 0.0
C453 C 0.23483 0.13342 0.66718 0.0
C454 C 0.20569 0.11226 0.65031 0.0
H455 H 0.30625 0.07502 0.65214 0.0
H456 H 0.2282 0.16045 0.67924 0.0
H457 H 0.30613 0.03929 0.70036 0.0
H458 H 0.27976 0.03615 0.81495 0.0
H459 H 0.33813 0.25249 0.64952 0.0
H460 H 0.26069 0.0418 0.61764 0.0
H461 H 0.17719 0.12279 0.65098 0.0
C462 C 0.17801 0.03743 0.0257 0.0
C463 C 0.2148 0.03532 0.03691 0.0
N464 N 0.23597 0.04153 0.00644 0.0
N465 N 0.1762 0.04424 0.98833 0.0
C466 C 0.21244 0.04753 0.97764 0.0
H467 H 0.15393 0.03494 0.04403 0.0
Co468 Co 0.1299 0.05185 0.96549 0.0
C469 C 0.14417 0.11173 0.90622 0.0
O470 O 0.12499 0.09205 0.88181 0.0
N471 N 0.08208 0.06118 0.9477 0.0
C472 C 0.02962 0.08141 0.92065 0.0
C473 C 0.06241 0.06119 0.91529 0.0
C474 C 0.05933 0.07803 0.97285 0.0
N475 N 0.02775 0.09133 0.95712 0.0
O476 O 0.10918 0.00914 0.99473 0.0
H477 H 0.07191 0.04917 0.88908 0.0
H478 H 0.06763 0.0835 1.00161 0.0
O479 O 0.14956 0.09875 0.93951 0.0
C480 C 0.1139 0.9742 1.00218 0.0
O481 O 0.1413 0.95514 0.98651 0.0
N482 N 0.14365 0.01945 0.92309 0.0
C483 C 0.18482 0.9638 0.88573 0.0
C484 C 0.19445 1.00178 0.88245 0.0
C485 C 0.17427 0.02872 0.90189 0.0
C486 C 0.12788 0.98482 0.9172 0.0
C487 C 0.14903 0.95567 0.90032 0.0
H488 H 0.18626 0.05624 0.90213 0.0
H489 H 0.10085 0.97818 0.92925 0.0
H490 H 0.22201 0.05609 0.95034 0.0
H491 H 0.22514 0.02982 0.06496 0.0
H492 H 0.0088 0.08811 0.89953 0.0
H493 H 0.21949 0.01067 0.86763 0.0
H494 H 0.13851 0.92718 0.901 0.0
C495 C 0.22386 0.92802 0.27571 0.0
C496 C 0.22598 0.9648 0.28691 0.0
N497 N 0.21977 0.98597 0.25645 0.0
N498 N 0.21705 0.9262 0.23834 0.0
C499 C 0.21377 0.96244 0.22765 0.0
H500 H 0.22636 0.90393 0.29403 0.0
Co501 Co 0.20945 0.8799 0.2155 0.0
C502 C 0.14956 0.89417 0.15623 0.0
O503 O 0.16923 0.87499 0.13182 0.0
N504 N 0.20012 0.83209 0.1977 0.0
C505 C 0.1799 0.77962 0.17064 0.0
C506 C 0.20012 0.81242 0.16529 0.0
C507 C 0.18327 0.80934 0.22284 0.0
N508 N 0.16997 0.77774 0.20711 0.0
O509 O 0.25216 0.85919 0.24473 0.0
H510 H 0.21214 0.82192 0.13908 0.0
H511 H 0.1778 0.81763 0.2516 0.0
O512 O 0.16254 0.89956 0.18952 0.0
C513 C 0.2871 0.8639 0.25218 0.0
O514 O 0.30616 0.89129 0.2365 0.0
N515 N 0.24184 0.89366 0.17309 0.0
C516 C 0.29749 0.93484 0.13573 0.0
C517 C 0.25951 0.94446 0.13245 0.0
C518 C 0.23256 0.92427 0.15189 0.0
C519 C 0.27647 0.87789 0.16719 0.0
C520 C 0.30562 0.89905 0.15032 0.0
H521 H 0.20504 0.93627 0.15213 0.0
H522 H 0.28311 0.85086 0.17925 0.0
H523 H 0.20521 0.97201 0.20035 0.0
H524 H 0.23148 0.97514 0.31496 0.0
H525 H 0.17321 0.7588 0.14951 0.0
H526 H 0.2506 0.9695 0.11763 0.0
H527 H 0.33411 0.88853 0.151 0.0
C528 C 0.98557 0.33325 0.03737 0.0
C529 C 0.97436 0.29647 0.03526 0.0
N530 N 1.00481 0.27529 0.04152 0.0
N531 N 0.02293 0.33506 0.04424 0.0
C532 C 0.03361 0.29883 0.04755 0.0
H533 H 0.96725 0.35734 0.03485 0.0
Co534 Co 0.04578 0.38136 0.05185 0.0
C535 C 0.10505 0.36706 0.11172 0.0
O536 O 0.12947 0.38621 0.09204 0.0
N537 N 0.06358 0.42918 0.06118 0.0
C538 C 0.09065 0.48162 0.08145 0.0
C539 C 0.096 0.44883 0.06122 0.0
C540 C 0.03843 0.45193 0.07803 0.0
N541 N 0.05418 0.48351 0.09135 0.0
O542 O 0.01655 0.40209 0.00913 0.0
H543 H 0.12221 0.43933 0.04921 0.0
H544 H 0.00967 0.44365 0.08348 0.0
O545 O 0.07176 0.3617 0.09875 0.0
C546 C 0.00912 0.39737 0.97419 0.0
O547 O 0.02482 0.36998 0.95513 0.0
N548 N 0.08819 0.36761 0.01945 0.0
C549 C 0.12554 0.32644 0.96379 0.0
C550 C 0.1288 0.31678 1.00177 0.0
C551 C 0.10936 0.33697 0.02872 0.0
C552 C 0.09411 0.38339 0.98484 0.0
C553 C 0.11098 0.36225 0.95568 0.0
H554 H 0.10911 0.32497 0.05623 0.0
H555 H 0.08206 0.41043 0.97821 0.0
H556 H 0.06089 0.28925 0.05616 0.0
H557 H 0.94632 0.28613 0.02972 0.0
H558 H 0.11178 0.50243 0.08816 0.0
H559 H 0.1436 0.29173 0.01065 0.0
H560 H 0.11032 0.37279 0.9272 0.0
C561 C 0.48557 0.17804 0.97396 0.0
C562 C 0.47437 0.21483 0.97608 0.0
N563 N 0.50483 0.236 0.96981 0.0
N564 N 0.52293 0.17622 0.96709 0.0
C565 C 0.53362 0.21245 0.96377 0.0
H566 H 0.46724 0.15396 0.97649 0.0
Co567 Co 0.54577 0.12992 0.95947 0.0
C568 C 0.60503 0.14419 0.89958 0.0
O569 O 0.62944 0.12501 0.91925 0.0
N570 N 0.56357 0.08211 0.95012 0.0
C571 C 0.59064 0.02966 0.92988 0.0
C572 C 0.59598 0.06244 0.95013 0.0
C573 C 0.53843 0.05937 0.93324 0.0
N574 N 0.55418 0.0278 0.91991 0.0
O575 O 0.51655 0.10919 1.00218 0.0
H576 H 0.62218 0.07193 0.96218 0.0
H577 H 0.50967 0.06766 0.92777 0.0
O578 O 0.57174 0.14959 0.91256 0.0
C579 C 0.50909 0.1139 0.03712 0.0
O580 O 0.52477 0.1413 0.05619 0.0
N581 N 0.58818 0.14367 0.99186 0.0
C582 C 0.62555 0.18485 0.0475 0.0
C583 C 0.62882 0.19448 0.00952 0.0
C584 C 0.60937 0.17429 0.98258 0.0
C585 C 0.59408 0.1279 0.02649 0.0
C586 C 0.61096 0.14906 0.05563 0.0
H587 H 0.60913 0.18629 0.95506 0.0
H588 H 0.58203 0.10087 0.03313 0.0
H589 H 0.56091 0.22202 0.95515 0.0
H590 H 0.44633 0.22518 0.98161 0.0
H591 H 0.61177 0.00883 0.92321 0.0
H592 H 0.64363 0.21952 1.00062 0.0
H593 H 0.61028 0.13854 0.08413 0.0
C594 C 0.08326 0.23556 0.224 0.0
C595 C 0.04647 0.22437 0.22611 0.0
N596 N 0.02531 0.25482 0.21979 0.0
N597 N 0.08509 0.27292 0.21709 0.0
C598 C 0.04886 0.2836 0.21374 0.0
H599 H 0.10734 0.21724 0.22657 0.0
Co600 Co 0.13138 0.29577 0.20947 0.0
C601 C 0.1171 0.35502 0.14958 0.0
O602 O 0.13627 0.37944 0.16924 0.0
N603 N 0.17919 0.31358 0.20013 0.0
C604 C 0.23164 0.34066 0.17989 0.0
C605 C 0.19885 0.346 0.20013 0.0
C606 C 0.20194 0.28845 0.18325 0.0
N607 N 0.23351 0.30421 0.16992 0.0
O608 O 0.15212 0.26655 0.25218 0.0
H609 H 0.18935 0.37219 0.21217 0.0
H610 H 0.19366 0.25968 0.17778 0.0
O611 O 0.11172 0.32173 0.16256 0.0
C612 C 0.14742 0.25911 0.28713 0.0
O613 O 0.12003 0.27478 0.3062 0.0
N614 N 0.11762 0.33818 0.24186 0.0
C615 C 0.07644 0.37555 0.2975 0.0
C616 C 0.06681 0.37881 0.25952 0.0
C617 C 0.08699 0.35936 0.23258 0.0
C618 C 0.13339 0.34409 0.27648 0.0
C619 C 0.11224 0.36097 0.30562 0.0
H620 H 0.075 0.35912 0.20506 0.0
H621 H 0.16043 0.33204 0.28312 0.0
H622 H 0.0393 0.31088 0.20508 0.0
H623 H 0.03613 0.19634 0.23167 0.0
H624 H 0.25246 0.36179 0.17321 0.0
H625 H 0.04177 0.39362 0.25062 0.0
H626 H 0.12276 0.3603 0.33412 0.0
C627 C 0.02573 0.83327 0.47394 0.0
C628 C 0.03693 0.79649 0.47606 0.0
N629 N 0.00647 0.77532 0.46981 0.0
N630 N 0.98836 0.83509 0.46708 0.0
C631 C 0.97768 0.79886 0.46377 0.0
H632 H 0.04405 0.85735 0.47647 0.0
Co633 Co 0.96552 0.88139 0.45946 0.0
C634 C 0.90627 0.86712 0.39958 0.0
O635 O 0.88186 0.88631 0.41924 0.0
N636 N 0.94773 0.9292 0.45012 0.0
C637 C 0.92065 0.98166 0.42989 0.0
C638 C 0.91531 0.94887 0.45013 0.0
C639 C 0.97286 0.95194 0.43324 0.0
N640 N 0.95711 0.98351 0.41991 0.0
O641 O 0.99475 0.90212 0.50217 0.0
H642 H 0.88912 0.93938 0.46218 0.0
H643 H 1.00162 0.94365 0.42776 0.0
O644 O 0.93955 0.86172 0.41256 0.0
C645 C 1.0022 0.89741 0.53711 0.0
O646 O 0.98653 0.87001 0.55618 0.0
N647 N 0.92311 0.86764 0.49186 0.0
C648 C 0.88575 0.82646 0.5475 0.0
C649 C 0.88248 0.81683 0.50952 0.0
C650 C 0.90192 0.83702 0.48258 0.0
C651 C 0.91721 0.88341 0.52649 0.0
C652 C 0.90034 0.86225 0.55563 0.0
H653 H 0.90216 0.82503 0.45506 0.0
H654 H 0.92927 0.91044 0.53313 0.0
H655 H 0.95039 0.78929 0.45516 0.0
H656 H 0.06497 0.78614 0.48159 0.0
H657 H 0.89953 1.00249 0.42322 0.0
H658 H 0.86766 0.7918 0.50062 0.0
H659 H 0.90102 0.87277 0.58412 0.0
C660 C 0.92803 0.27573 0.22383 0.0
C661 C 0.96482 0.28693 0.22595 0.0
N662 N 0.98599 0.25646 0.21977 0.0
N663 N 0.92622 0.23835 0.21704 0.0
C664 C 0.96246 0.22766 0.21377 0.0
H665 H 0.90395 0.29406 0.22631 0.0
Co666 Co 0.87992 0.21552 0.20945 0.0
C667 C 0.89417 0.15625 0.14957 0.0
O668 O 0.87499 0.13183 0.16924 0.0
N669 N 0.8321 0.19773 0.20014 0.0
C670 C 0.77963 0.17066 0.17993 0.0
C671 C 0.81243 0.16531 0.20014 0.0
C672 C 0.80934 0.22286 0.18328 0.0
N673 N 0.77775 0.20712 0.16999 0.0
O674 O 0.85921 0.24476 0.25216 0.0
H675 H 0.82193 0.13911 0.21218 0.0
H676 H 0.81763 0.25162 0.1778 0.0
O677 O 0.89956 0.18953 0.16255 0.0
C678 C 0.86394 0.25222 0.2871 0.0
O679 O 0.89134 0.23653 0.30615 0.0
N680 N 0.89367 0.17312 0.24185 0.0
C681 C 0.93485 0.13575 0.2975 0.0
C682 C 0.94447 0.13247 0.25951 0.0
C683 C 0.92428 0.15191 0.23257 0.0
C684 C 0.8779 0.16722 0.27648 0.0
C685 C 0.89906 0.15035 0.30563 0.0
H686 H 0.93627 0.15214 0.20505 0.0
H687 H 0.85088 0.17929 0.28313 0.0
H688 H 0.97203 0.20035 0.20523 0.0
H689 H 0.97516 0.31499 0.23143 0.0
H690 H 0.75881 0.14953 0.17325 0.0
H691 H 0.9695 0.11765 0.25061 0.0
H692 H 0.88854 0.15103 0.33412 0.0
C693 C 0.52571 0.67803 0.53737 0.0
C694 C 0.53692 0.71482 0.53526 0.0
N695 N 0.50646 0.73599 0.54151 0.0
N696 N 0.48835 0.67622 0.54422 0.0
C697 C 0.47767 0.71246 0.54754 0.0
H698 H 0.54403 0.65395 0.53485 0.0
Co699 Co 0.4655 0.62992 0.55184 0.0
C700 C 0.40624 0.64421 0.61171 0.0
O701 O 0.38182 0.62505 0.59204 0.0
N702 N 0.44771 0.58211 0.56117 0.0
C703 C 0.42065 0.52966 0.58144 0.0
C704 C 0.41529 0.56244 0.56121 0.0
C705 C 0.47286 0.55936 0.57802 0.0
N706 N 0.45712 0.52778 0.59135 0.0
O707 O 0.49474 0.6092 0.50912 0.0
H708 H 0.38909 0.57194 0.54919 0.0
H709 H 0.50162 0.56765 0.58348 0.0
O710 O 0.43953 0.64958 0.59874 0.0
C711 C 0.50217 0.61391 0.47418 0.0
O712 O 0.48648 0.6413 0.45512 0.0
N713 N 0.4231 0.64367 0.51944 0.0
C714 C 0.38574 0.68484 0.46378 0.0
C715 C 0.38248 0.69449 0.50176 0.0
C716 C 0.40192 0.67431 0.52871 0.0
C717 C 0.41719 0.62789 0.48482 0.0
C718 C 0.40031 0.64904 0.45567 0.0
H719 H 0.40216 0.6863 0.55622 0.0
H720 H 0.42923 0.60085 0.47819 0.0
H721 H 0.45038 0.72203 0.55614 0.0
H722 H 0.56496 0.72516 0.52973 0.0
H723 H 0.39952 0.50884 0.58815 0.0
H724 H 0.36768 0.71954 0.51065 0.0
H725 H 0.40098 0.6385 0.42718 0.0
C726 C 0.08326 0.77571 0.28729 0.0
C727 C 0.04648 0.78691 0.28518 0.0
N728 N 0.02531 0.75646 0.29147 0.0
N729 N 0.08508 0.73835 0.2942 0.0
C730 C 0.04885 0.72768 0.29753 0.0
H731 H 0.10734 0.79403 0.28475 0.0
Co732 Co 0.13137 0.71551 0.30183 0.0
C733 C 0.11708 0.65626 0.36172 0.0
O734 O 0.13625 0.63184 0.34204 0.0
N735 N 0.17919 0.69771 0.31119 0.0
C736 C 0.23163 0.67065 0.33147 0.0
C737 C 0.19886 0.6653 0.31122 0.0
C738 C 0.20192 0.72286 0.32807 0.0
N739 N 0.23348 0.70712 0.34142 0.0
O740 O 0.15212 0.74472 0.25912 0.0
H741 H 0.18937 0.63909 0.29918 0.0
H742 H 0.19363 0.75162 0.33352 0.0
O743 O 0.1117 0.68954 0.34874 0.0
C744 C 0.14742 0.75216 0.22417 0.0
O745 O 0.12003 0.73648 0.2051 0.0
N746 N 0.11763 0.67309 0.26945 0.0
C747 C 0.07646 0.63573 0.21379 0.0
C748 C 0.06681 0.63248 0.25176 0.0
C749 C 0.08699 0.65192 0.27871 0.0
C750 C 0.13341 0.66718 0.23483 0.0
C751 C 0.11226 0.6503 0.20568 0.0
H752 H 0.07499 0.65217 0.30623 0.0
H753 H 0.16045 0.67922 0.2282 0.0
H754 H 0.03928 0.7004 0.30618 0.0
H755 H 0.03614 0.81495 0.27962 0.0
H756 H 0.25245 0.64953 0.33817 0.0
H757 H 0.04176 0.61768 0.26066 0.0
H758 H 0.1228 0.65097 0.17719 0.0
C759 C 0.42803 0.23559 0.78733 0.0
C760 C 0.46482 0.22438 0.78521 0.0
N761 N 0.48599 0.25484 0.79148 0.0
N762 N 0.42622 0.27295 0.79421 0.0
C763 C 0.46245 0.28362 0.79753 0.0
H764 H 0.40395 0.21727 0.78481 0.0
Co765 Co 0.37992 0.29579 0.80184 0.0
C766 C 0.39421 0.35505 0.86172 0.0
O767 O 0.37504 0.37947 0.84204 0.0
N768 N 0.33211 0.31358 0.8112 0.0
C769 C 0.27966 0.34064 0.83148 0.0
C770 C 0.31244 0.346 0.81123 0.0
C771 C 0.30938 0.28844 0.82808 0.0
N772 N 0.27781 0.30418 0.84143 0.0
O773 O 0.35918 0.26657 0.75913 0.0
H774 H 0.32192 0.3722 0.79919 0.0
H775 H 0.31767 0.25968 0.83353 0.0
O776 O 0.3996 0.32176 0.84874 0.0
C777 C 0.36389 0.25913 0.72419 0.0
O778 O 0.39129 0.27481 0.70513 0.0
N779 N 0.39366 0.3382 0.76945 0.0
C780 C 0.43483 0.37556 0.71379 0.0
C781 C 0.44448 0.37882 0.75176 0.0
C782 C 0.4243 0.35938 0.77871 0.0
C783 C 0.37789 0.34411 0.73483 0.0
C784 C 0.39903 0.36099 0.70568 0.0
H785 H 0.4363 0.35914 0.80623 0.0
H786 H 0.35085 0.33206 0.7282 0.0
H787 H 0.47202 0.31091 0.80615 0.0
H788 H 0.47516 0.19634 0.77968 0.0
H789 H 0.25884 0.36176 0.83818 0.0
H790 H 0.46953 0.39363 0.76065 0.0
H791 H 0.3885 0.36031 0.67718 0.0
C792 C 0.53732 0.48557 0.83325 0.0
C793 C 0.53521 0.47437 0.79646 0.0
N794 N 0.54151 0.50482 0.77529 0.0
N795 N 0.54422 0.52293 0.83506 0.0
C796 C 0.54756 0.5336 0.79883 0.0
H797 H 0.53477 0.46725 0.85733 0.0
Co798 Co 0.55183 0.54578 0.88136 0.0
C799 C 0.61173 0.60503 0.86707 0.0
O800 O 0.59205 0.62946 0.88622 0.0
N801 N 0.56117 0.56358 0.92917 0.0
C802 C 0.58142 0.59066 0.98162 0.0
C803 C 0.5612 0.596 0.94882 0.0
C804 C 0.57802 0.53844 0.95193 0.0
N805 N 0.59133 0.55419 0.98351 0.0
O806 O 0.50911 0.51656 0.90209 0.0
H807 H 0.54918 0.62221 0.93932 0.0
H808 H 0.58348 0.50967 0.94365 0.0
O809 O 0.59874 0.57174 0.8617 0.0
C810 C 0.47416 0.50913 0.89739 0.0
O811 O 0.45509 0.52483 0.87001 0.0
N812 N 0.51945 0.58819 0.8676 0.0
C813 C 0.4638 0.62556 0.82643 0.0
C814 C 0.50178 0.6288 0.81678 0.0
C815 C 0.52872 0.60936 0.83696 0.0
C816 C 0.48483 0.59411 0.88339 0.0
C817 C 0.45569 0.61099 0.86224 0.0
H818 H 0.55624 0.60911 0.82497 0.0
H819 H 0.4782 0.58207 0.91042 0.0
H820 H 0.55621 0.56088 0.78926 0.0
H821 H 0.52965 0.44633 0.78612 0.0
H822 H 0.58813 0.61179 1.00242 0.0
H823 H 0.51067 0.6436 0.79173 0.0
H824 H 0.4272 0.61034 0.87278 0.0
C825 C 0.77572 0.28731 0.08327 0.0
C826 C 0.78692 0.2852 0.04648 0.0
N827 N 0.75647 0.29151 0.02532 0.0
N828 N 0.73836 0.29422 0.08509 0.0
C829 C 0.72769 0.29756 0.04886 0.0
H830 H 0.79404 0.28476 0.10735 0.0
Co831 Co 0.71551 0.30184 0.13138 0.0
C832 C 0.65626 0.36174 0.11708 0.0
O833 O 0.63183 0.34206 0.13624 0.0
N834 N 0.69771 0.31119 0.17919 0.0
C835 C 0.67064 0.33145 0.23164 0.0
C836 C 0.66529 0.31122 0.19885 0.0
C837 C 0.72285 0.32803 0.20194 0.0
N838 N 0.70711 0.34135 0.23352 0.0
O839 O 0.74472 0.25913 0.15212 0.0
H840 H 0.63908 0.29921 0.18935 0.0
H841 H 0.75162 0.33349 0.19366 0.0
O842 O 0.68955 0.34875 0.11171 0.0
C843 C 0.75217 0.22418 0.14744 0.0
O844 O 0.73648 0.2051 0.12005 0.0
N845 N 0.6731 0.26946 0.11763 0.0
C846 C 0.63575 0.2138 0.07645 0.0
C847 C 0.63249 0.25178 0.0668 0.0
C848 C 0.65193 0.27873 0.08699 0.0
C849 C 0.66718 0.23484 0.1334 0.0
C850 C 0.65031 0.20569 0.11225 0.0
H851 H 0.65218 0.30624 0.07499 0.0
H852 H 0.67922 0.2282 0.16044 0.0
H853 H 0.70041 0.30622 0.03929 0.0
H854 H 0.81496 0.27964 0.03614 0.0
H855 H 0.64951 0.33816 0.25245 0.0
H856 H 0.61769 0.26068 0.04176 0.0
H857 H 0.65097 0.1772 0.12279 0.0
C858 C 0.97396 0.52574 0.33325 0.0
C859 C 0.97607 0.53694 0.29646 0.0
N860 N 0.96979 0.50648 0.2753 0.0
N861 N 0.96707 0.48838 0.33507 0.0
C862 C 0.96374 0.4777 0.29884 0.0
H863 H 0.9765 0.54406 0.35733 0.0
Co864 Co 0.95946 0.46553 0.38137 0.0
C865 C 0.89957 0.40628 0.36708 0.0
O866 O 0.91924 0.38186 0.38625 0.0
N867 N 0.95012 0.44774 0.42918 0.0
C868 C 0.92988 0.42066 0.48163 0.0
C869 C 0.9501 0.41531 0.44884 0.0
C870 C 0.93327 0.47287 0.45194 0.0
N871 N 0.91996 0.45713 0.48352 0.0
O872 O 1.00217 0.49476 0.40209 0.0
H873 H 0.96213 0.38911 0.43933 0.0
H874 H 0.9278 0.50164 0.44365 0.0
O875 O 0.91255 0.43957 0.36171 0.0
C876 C 0.03712 0.50219 0.39739 0.0
O877 O 0.05619 0.48649 0.37001 0.0
N878 N 0.99184 0.42312 0.36761 0.0
C879 C 0.04749 0.38575 0.32645 0.0
C880 C 0.00951 0.38249 0.3168 0.0
C881 C 0.98257 0.40194 0.33698 0.0
C882 C 0.02646 0.41721 0.38339 0.0
C883 C 0.05561 0.40032 0.36224 0.0
H884 H 0.95505 0.40219 0.32499 0.0
H885 H 0.03309 0.42925 0.41043 0.0
H886 H 0.95511 0.45041 0.28927 0.0
H887 H 0.98162 0.56498 0.28612 0.0
H888 H 0.92318 0.39952 0.50244 0.0
H889 H 1.00061 0.36768 0.29176 0.0
H890 H 0.0841 0.40099 0.37278 0.0
C891 C 0.73557 0.72397 0.58326 0.0
C892 C 0.72437 0.72608 0.54648 0.0
N893 N 0.75482 0.71978 0.52531 0.0
N894 N 0.77293 0.71708 0.58508 0.0
C895 C 0.7836 0.71374 0.54885 0.0
H896 H 0.71725 0.72652 0.60734 0.0
Co897 Co 0.79577 0.70947 0.63138 0.0
C898 C 0.85503 0.64958 0.61708 0.0
O899 O 0.87946 0.66925 0.63624 0.0
N900 N 0.81358 0.70013 0.67919 0.0
C901 C 0.84066 0.67989 0.73163 0.0
C902 C 0.846 0.70011 0.69884 0.0
C903 C 0.78844 0.68328 0.70195 0.0
N904 N 0.80419 0.66997 0.73352 0.0
O905 O 0.76655 0.75219 0.6521 0.0
H906 H 0.8722 0.71213 0.68933 0.0
H907 H 0.75967 0.67782 0.69367 0.0
O908 O 0.82174 0.66256 0.61172 0.0
C909 C 0.75912 0.78714 0.6474 0.0
O910 O 0.77482 0.8062 0.62002 0.0
N911 N 0.83818 0.74185 0.61762 0.0
C912 C 0.87555 0.79751 0.57645 0.0
C913 C 0.8788 0.75953 0.5668 0.0
C914 C 0.85936 0.73258 0.58698 0.0
C915 C 0.8441 0.77647 0.6334 0.0
C916 C 0.86098 0.80562 0.61225 0.0
H917 H 0.85911 0.70507 0.57499 0.0
H918 H 0.83206 0.78311 0.66044 0.0
H919 H 0.81089 0.7051 0.53928 0.0
H920 H 0.69633 0.73163 0.53614 0.0
H921 H 0.86179 0.67318 0.75244 0.0
H922 H 0.89361 0.75063 0.54175 0.0
H923 H 0.86032 0.83411 0.62279 0.0
C924 C 0.53742 0.52572 0.67801 0.0
C925 C 0.53531 0.53692 0.7148 0.0
N926 N 0.54152 0.50645 0.73597 0.0
N927 N 0.54424 0.48834 0.6762 0.0
C928 C 0.54752 0.47766 0.71243 0.0
H929 H 0.53492 0.54404 0.65393 0.0
Co930 Co 0.55184 0.4655 0.6299 0.0
C931 C 0.61172 0.40623 0.64418 0.0
O932 O 0.59205 0.38181 0.625 0.0
N933 N 0.56117 0.44771 0.58209 0.0
C934 C 0.58142 0.42065 0.52963 0.0
C935 C 0.56119 0.41529 0.56242 0.0
C936 C 0.57803 0.47285 0.55934 0.0
N937 N 0.59134 0.45712 0.52775 0.0
O938 O 0.50914 0.49474 0.60918 0.0
H939 H 0.54917 0.38909 0.57191 0.0
H940 H 0.58349 0.50162 0.56763 0.0
O941 O 0.59874 0.43952 0.64956 0.0
C942 C 0.47419 0.5022 0.6139 0.0
O943 O 0.45514 0.48653 0.64131 0.0
N944 N 0.51944 0.4231 0.64365 0.0
C945 C 0.46378 0.38575 0.68483 0.0
C946 C 0.50176 0.38247 0.69446 0.0
C947 C 0.52871 0.4019 0.67427 0.0
C948 C 0.48481 0.41721 0.62788 0.0
C949 C 0.45566 0.40034 0.64904 0.0
H950 H 0.55623 0.40214 0.68626 0.0
H951 H 0.47817 0.42927 0.60085 0.0
H952 H 0.55609 0.45035 0.72201 0.0
H953 H 0.52981 0.56497 0.72514 0.0
H954 H 0.58812 0.39953 0.50881 0.0
H955 H 0.51066 0.36765 0.71949 0.0
H956 H 0.42716 0.40103 0.63852 0.0
C957 C 0.73557 0.28742 0.92804 0.0
C958 C 0.72437 0.28531 0.96483 0.0
N959 N 0.75484 0.29152 0.98599 0.0
N960 N 0.77295 0.29424 0.92622 0.0
C961 C 0.78363 0.29752 0.96246 0.0
H962 H 0.71725 0.28493 0.90396 0.0
Co963 Co 0.79578 0.30184 0.87992 0.0
C964 C 0.85506 0.36171 0.89419 0.0
O965 O 0.87947 0.34204 0.87502 0.0
N966 N 0.81357 0.31117 0.8321 0.0
C967 C 0.84063 0.33141 0.77964 0.0
C968 C 0.84599 0.31119 0.81243 0.0
C969 C 0.78843 0.32803 0.80936 0.0
N970 N 0.80416 0.34134 0.77777 0.0
O971 O 0.76654 0.25913 0.85921 0.0
H972 H 0.87219 0.29916 0.82193 0.0
H973 H 0.75966 0.33349 0.81765 0.0
O974 O 0.82177 0.34874 0.89958 0.0
C975 C 0.75909 0.22419 0.86394 0.0
O976 O 0.77478 0.20514 0.89134 0.0
N977 N 0.83819 0.26944 0.89366 0.0
C978 C 0.87555 0.21378 0.93484 0.0
C979 C 0.87882 0.25176 0.94447 0.0
C980 C 0.85938 0.27871 0.92429 0.0
C981 C 0.84409 0.23481 0.87789 0.0
C982 C 0.86096 0.20566 0.89904 0.0
H983 H 0.85915 0.30623 0.93628 0.0
H984 H 0.83203 0.22817 0.85086 0.0
H985 H 0.81094 0.30609 0.97203 0.0
H986 H 0.69632 0.27981 0.97517 0.0
H987 H 0.86176 0.33812 0.75883 0.0
H988 H 0.89364 0.26065 0.96951 0.0
H989 H 0.86028 0.17717 0.88852 0.0
C990 C 0.97389 0.48558 0.17802 0.0
C991 C 0.976 0.47438 0.21481 0.0
N992 N 0.96978 0.50484 0.23597 0.0
N993 N 0.96706 0.52295 0.1762 0.0
C994 C 0.96377 0.53364 0.21244 0.0
H995 H 0.97639 0.46725 0.15394 0.0
Co996 Co 0.95946 0.54579 0.1299 0.0
C997 C 0.89958 0.60506 0.14418 0.0
O998 O 0.91925 0.62948 0.125 0.0
N999 N 0.95013 0.56358 0.08209 0.0
C1000 C 0.92989 0.59064 0.02963 0.0
C1001 C 0.95011 0.596 0.06242 0.0
C1002 C 0.93327 0.53844 0.05934 0.0
N1003 N 0.91996 0.55417 0.02776 0.0
O1004 O 1.00217 0.51655 0.10918 0.0
H1005 H 0.96214 0.6222 0.07191 0.0
H1006 H 0.92781 0.50967 0.06764 0.0
O1007 O 0.91256 0.57177 0.14956 0.0
C1008 C 0.03711 0.50909 0.1139 0.0
O1009 O 0.05616 0.52476 0.14131 0.0
N1010 N 0.99186 0.58819 0.14365 0.0
C1011 C 0.04752 0.62554 0.18483 0.0
C1012 C 0.00954 0.62883 0.19446 0.0
C1013 C 0.98259 0.60939 0.17427 0.0
C1014 C 0.0265 0.59408 0.12789 0.0
C1015 C 0.05564 0.61095 0.14904 0.0
H1016 H 0.95507 0.60916 0.18626 0.0
H1017 H 0.03313 0.58202 0.10086 0.0
H1018 H 0.9552 0.56094 0.22201 0.0
H1019 H 0.9815 0.44633 0.22515 0.0
H1020 H 0.92318 0.61176 0.00881 0.0
H1021 H 1.00064 0.64365 0.21949 0.0
H1022 H 0.08414 0.61026 0.13852 0.0
C1023 C 0.77572 0.72387 0.42803 0.0
C1024 C 0.78692 0.72599 0.46482 0.0
N1025 N 0.75646 0.71977 0.48599 0.0
N1026 N 0.73835 0.71705 0.42622 0.0
C1027 C 0.72766 0.71377 0.46245 0.0
H1028 H 0.79404 0.72637 0.40395 0.0
Co1029 Co 0.71551 0.70946 0.37992 0.0
C1030 C 0.65624 0.64958 0.39418 0.0
O1031 O 0.63182 0.66925 0.37501 0.0
N1032 N 0.69772 0.70013 0.3321 0.0
C1033 C 0.67066 0.6799 0.27964 0.0
C1034 C 0.66531 0.70012 0.31243 0.0
C1035 C 0.72287 0.68328 0.30935 0.0
N1036 N 0.70713 0.66997 0.27776 0.0
O1037 O 0.74475 0.75217 0.35921 0.0
H1038 H 0.6391 0.71214 0.32193 0.0
H1039 H 0.75163 0.67781 0.31764 0.0
O1040 O 0.68953 0.66255 0.39957 0.0
C1041 C 0.7522 0.78711 0.36393 0.0
O1042 O 0.7365 0.80616 0.39133 0.0
N1043 N 0.6731 0.74185 0.39366 0.0
C1044 C 0.63574 0.7975 0.43484 0.0
C1045 C 0.63247 0.75952 0.44447 0.0
C1046 C 0.65191 0.73258 0.42429 0.0
C1047 C 0.6672 0.77648 0.3779 0.0
C1048 C 0.65033 0.80563 0.39905 0.0
H1049 H 0.65215 0.70506 0.43628 0.0
H1050 H 0.67926 0.78312 0.35087 0.0
H1051 H 0.70036 0.7052 0.47202 0.0
H1052 H 0.81497 0.73149 0.47516 0.0
H1053 H 0.64953 0.6732 0.25882 0.0
H1054 H 0.61765 0.75063 0.46951 0.0
H1055 H 0.65101 0.83412 0.38853 0.0
C1056 C 0.83326 0.53734 0.48556 0.0
C1057 C 0.79647 0.53523 0.47436 0.0
N1058 N 0.7753 0.54151 0.50481 0.0
N1059 N 0.83507 0.54423 0.52293 0.0
C1060 C 0.79883 0.54755 0.5336 0.0
H1061 H 0.85734 0.53481 0.46725 0.0
Co1062 Co 0.88137 0.55184 0.54578 0.0
C1063 C 0.86707 0.61172 0.60504 0.0
O1064 O 0.88622 0.59204 0.62947 0.0
N1065 N 0.92918 0.56118 0.56358 0.0
C1066 C 0.98162 0.58144 0.59065 0.0
C1067 C 0.94883 0.56121 0.596 0.0
C1068 C 0.95193 0.57803 0.53844 0.0
N1069 N 0.98351 0.59135 0.55418 0.0
O1070 O 0.9021 0.50913 0.51655 0.0
H1071 H 0.93933 0.5492 0.62221 0.0
H1072 H 0.94365 0.58349 0.50967 0.0
O1073 O 0.8617 0.59874 0.57175 0.0
C1074 C 0.8974 0.47419 0.50911 0.0
O1075 O 0.87001 0.45511 0.52479 0.0
N1076 N 0.86761 0.51945 0.58818 0.0
C1077 C 0.82644 0.46379 0.62554 0.0
C1078 C 0.81679 0.50176 0.6288 0.0
C1079 C 0.83697 0.52871 0.60936 0.0
C1080 C 0.88339 0.48482 0.59409 0.0
C1081 C 0.86224 0.45567 0.61097 0.0
H1082 H 0.82497 0.55623 0.60911 0.0
H1083 H 0.91043 0.47819 0.58205 0.0
H1084 H 0.78926 0.55618 0.56089 0.0
H1085 H 0.78613 0.52968 0.44632 0.0
H1086 H 1.00243 0.58816 0.61178 0.0
H1087 H 0.79174 0.51066 0.6436 0.0
H1088 H 0.87278 0.42718 0.6103 0.0
C1089 C 0.724 0.58325 0.73556 0.0
C1090 C 0.72611 0.54646 0.72437 0.0
N1091 N 0.71979 0.5253 0.75481 0.0
N1092 N 0.71709 0.58507 0.77292 0.0
C1093 C 0.71374 0.54884 0.78359 0.0
H1094 H 0.72656 0.60733 0.71724 0.0
Co1095 Co 0.70947 0.63137 0.79577 0.0
C1096 C 0.64958 0.61706 0.85503 0.0
O1097 O 0.66926 0.63621 0.87946 0.0
N1098 N 0.70013 0.67918 0.81358 0.0
C1099 C 0.67987 0.73162 0.84066 0.0
C1100 C 0.7001 0.69883 0.846 0.0
C1101 C 0.68328 0.70193 0.78844 0.0
N1102 N 0.66996 0.73351 0.80418 0.0
O1103 O 0.75218 0.6521 0.76656 0.0
H1104 H 0.71211 0.68932 0.87221 0.0
H1105 H 0.67782 0.69365 0.75967 0.0
O1106 O 0.66256 0.6117 0.82174 0.0
C1107 C 0.78713 0.64741 0.75911 0.0
O1108 O 0.8062 0.62002 0.77479 0.0
N1109 N 0.74186 0.61761 0.83818 0.0
C1110 C 0.79752 0.57643 0.87553 0.0
C1111 C 0.75954 0.56678 0.87879 0.0
C1112 C 0.73259 0.58697 0.85935 0.0
C1113 C 0.77648 0.63338 0.84409 0.0
C1114 C 0.80563 0.61223 0.86096 0.0
H1115 H 0.70508 0.57497 0.85911 0.0
H1116 H 0.78311 0.66042 0.83205 0.0
H1117 H 0.70508 0.53928 0.81087 0.0
H1118 H 0.73167 0.53612 0.69633 0.0
H1119 H 0.67316 0.75243 0.86179 0.0
H1120 H 0.75065 0.54173 0.89359 0.0
H1121 H 0.83412 0.62277 0.8603 0.0
C1122 C 0.67804 0.47398 0.98556 0.0
C1123 C 0.71483 0.47609 0.97436 0.0
N1124 N 0.736 0.4698 1.00481 0.0
N1125 N 0.67622 0.46709 0.02292 0.0
C1126 C 0.71246 0.46376 0.0336 0.0
H1127 H 0.65396 0.47652 0.96724 0.0
Co1128 Co 0.62993 0.45947 0.04577 0.0
C1129 C 0.64423 0.39959 0.10503 0.0
O1130 O 0.62507 0.41927 0.12946 0.0
N1131 N 0.58212 0.45013 0.06357 0.0
C1132 C 0.52967 0.42987 0.09064 0.0
C1133 C 0.56246 0.4501 0.09599 0.0
C1134 C 0.55937 0.43328 0.03843 0.0
N1135 N 0.52779 0.41996 0.05417 0.0
O1136 O 0.60919 0.50218 0.01655 0.0
H1137 H 0.57196 0.46211 0.1222 0.0
H1138 H 0.56765 0.42782 0.00966 0.0
O1139 O 0.6496 0.41257 0.07174 0.0
C1140 C 0.61389 0.53713 0.0091 0.0
O1141 O 0.64128 0.5562 0.02477 0.0
N1142 N 0.64368 0.49187 0.08817 0.0
C1143 C 0.68486 0.54753 0.12553 0.0
C1144 C 0.6945 0.50955 0.12879 0.0
C1145 C 0.67432 0.4826 0.10935 0.0
C1146 C 0.62791 0.52649 0.09408 0.0
C1147 C 0.64906 0.55564 0.11095 0.0
H1148 H 0.68631 0.45508 0.10911 0.0
H1149 H 0.60087 0.53313 0.08203 0.0
H1150 H 0.72202 0.45512 0.06088 0.0
H1151 H 0.72517 0.48164 0.94632 0.0
H1152 H 0.50886 0.42315 0.11177 0.0
H1153 H 0.71954 0.50065 0.1436 0.0
H1154 H 0.63853 0.58414 0.11028 0.0
C1155 C 0.78733 0.42805 0.23556 0.0
C1156 C 0.78521 0.46483 0.22436 0.0
N1157 N 0.79149 0.486 0.25481 0.0
N1158 N 0.79421 0.42623 0.27292 0.0
C1159 C 0.79754 0.46247 0.2836 0.0
H1160 H 0.78479 0.40397 0.21724 0.0
Co1161 Co 0.80184 0.37994 0.29577 0.0
C1162 C 0.86172 0.39423 0.35503 0.0
O1163 O 0.84204 0.37507 0.37945 0.0
N1164 N 0.81119 0.33213 0.31357 0.0
C1165 C 0.83147 0.27968 0.34064 0.0
C1166 C 0.81122 0.31246 0.34598 0.0
C1167 C 0.82807 0.30939 0.28843 0.0
N1168 N 0.84142 0.27783 0.30418 0.0
O1169 O 0.75913 0.3592 0.26655 0.0
H1170 H 0.79917 0.32195 0.37218 0.0
H1171 H 0.83353 0.31768 0.25966 0.0
O1172 O 0.84874 0.39961 0.32174 0.0
C1173 C 0.72419 0.36391 0.25911 0.0
O1174 O 0.70513 0.39131 0.27478 0.0
N1175 N 0.76945 0.39368 0.33818 0.0
C1176 C 0.71378 0.43485 0.37553 0.0
C1177 C 0.75176 0.4445 0.37879 0.0
C1178 C 0.77871 0.42432 0.35935 0.0
C1179 C 0.73482 0.3779 0.34409 0.0
C1180 C 0.70567 0.39905 0.36096 0.0
H1181 H 0.80623 0.43632 0.35911 0.0
H1182 H 0.72819 0.35087 0.33204 0.0
H1183 H 0.80618 0.47203 0.31088 0.0
H1184 H 0.77967 0.47518 0.19632 0.0
H1185 H 0.83816 0.25886 0.36176 0.0
H1186 H 0.76065 0.46955 0.3936 0.0
H1187 H 0.67718 0.38852 0.36029 0.0
C1188 C 0.83327 0.4739 0.02571 0.0
C1189 C 0.79649 0.47602 0.03691 0.0
N1190 N 0.77532 0.4698 0.00645 0.0
N1191 N 0.83509 0.46706 0.98834 0.0
C1192 C 0.79886 0.46378 0.97765 0.0
H1193 H 0.85736 0.4764 0.04403 0.0
Co1194 Co 0.88139 0.45945 0.9655 0.0
C1195 C 0.86713 0.39956 0.90625 0.0
O1196 O 0.88632 0.41922 0.88184 0.0
N1197 N 0.92921 0.4501 0.94772 0.0
C1198 C 0.98167 0.42986 0.92065 0.0
C1199 C 0.94888 0.4501 0.9153 0.0
C1200 C 0.95194 0.43322 0.97285 0.0
N1201 N 0.98351 0.41989 0.95711 0.0
O1202 O 0.90212 0.50216 0.99473 0.0
H1203 H 0.9394 0.46215 0.88911 0.0
H1204 H 0.94364 0.42775 1.00162 0.0
O1205 O 0.86173 0.41254 0.93953 0.0
C1206 C 0.89741 0.5371 1.00218 0.0
O1207 O 0.87001 0.55616 0.9865 0.0
N1208 N 0.86765 0.49184 0.92309 0.0
C1209 C 0.82647 0.54749 0.88573 0.0
C1210 C 0.81684 0.50951 0.88245 0.0
C1211 C 0.83703 0.48256 0.9019 0.0
C1212 C 0.88342 0.52647 0.91719 0.0
C1213 C 0.86226 0.55561 0.90032 0.0
H1214 H 0.82504 0.45504 0.90214 0.0
H1215 H 0.91045 0.53311 0.92925 0.0
H1216 H 0.78929 0.4552 0.95035 0.0
H1217 H 0.78615 0.48153 0.06496 0.0
H1218 H 1.0025 0.42318 0.89954 0.0
H1219 H 0.79181 0.50061 0.86763 0.0
H1220 H 0.87278 0.58411 0.901 0.0
C1221 C 0.7874 0.58328 0.27571 0.0
C1222 C 0.78528 0.5465 0.28691 0.0
N1223 N 0.7915 0.52533 0.25645 0.0
N1224 N 0.79423 0.5851 0.23833 0.0
C1225 C 0.79752 0.54886 0.22765 0.0
H1226 H 0.78491 0.60737 0.29403 0.0
Co1227 Co 0.80185 0.6314 0.2155 0.0
C1228 C 0.86173 0.61712 0.15623 0.0
O1229 O 0.84206 0.63629 0.13182 0.0
N1230 N 0.81119 0.67921 0.19771 0.0
C1231 C 0.83145 0.73167 0.17066 0.0
C1232 C 0.81122 0.69888 0.1653 0.0
C1233 C 0.82804 0.70195 0.22286 0.0
N1234 N 0.84136 0.73354 0.20713 0.0
O1235 O 0.75914 0.65212 0.24473 0.0
H1236 H 0.7992 0.68939 0.13909 0.0
H1237 H 0.8335 0.69366 0.25162 0.0
O1238 O 0.84875 0.61173 0.18952 0.0
C1239 C 0.72419 0.64742 0.25218 0.0
O1240 O 0.70513 0.62002 0.2365 0.0
N1241 N 0.76945 0.61765 0.17309 0.0
C1242 C 0.7138 0.57648 0.13573 0.0
C1243 C 0.75178 0.56685 0.13245 0.0
C1244 C 0.77873 0.58703 0.1519 0.0
C1245 C 0.73483 0.63342 0.16719 0.0
C1246 C 0.70568 0.61227 0.15032 0.0
H1247 H 0.80625 0.57503 0.15214 0.0
H1248 H 0.72819 0.66045 0.17925 0.0
H1249 H 0.8061 0.53929 0.20035 0.0
H1250 H 0.77978 0.53616 0.31496 0.0
H1251 H 0.83816 0.75249 0.14954 0.0
H1252 H 0.76068 0.54181 0.11764 0.0
H1253 H 0.67718 0.6228 0.15099 0.0
C1254 C 0.67802 0.5374 0.52571 0.0
C1255 C 0.71481 0.53528 0.53691 0.0
N1256 N 0.73598 0.54151 0.50645 0.0
N1257 N 0.67621 0.54423 0.48833 0.0
C1258 C 0.71244 0.54752 0.47765 0.0
H1259 H 0.65394 0.53489 0.54403 0.0
Co1260 Co 0.62991 0.55185 0.4655 0.0
C1261 C 0.64418 0.61173 0.40624 0.0
O1262 O 0.62499 0.59206 0.38183 0.0
N1263 N 0.58209 0.56119 0.44771 0.0
C1264 C 0.52964 0.58143 0.42064 0.0
C1265 C 0.56242 0.56119 0.4153 0.0
C1266 C 0.55936 0.57807 0.47285 0.0
N1267 N 0.52778 0.5914 0.4571 0.0
O1268 O 0.60918 0.50913 0.49472 0.0
H1269 H 0.57191 0.54914 0.3891 0.0
H1270 H 0.56765 0.58353 0.50161 0.0
O1271 O 0.64957 0.59875 0.43952 0.0
C1272 C 0.61389 0.47419 0.50217 0.0
O1273 O 0.6413 0.45513 0.4865 0.0
N1274 N 0.64365 0.51945 0.42309 0.0
C1275 C 0.68483 0.4638 0.38573 0.0
C1276 C 0.69446 0.50178 0.38245 0.0
C1277 C 0.67428 0.52872 0.40189 0.0
C1278 C 0.62788 0.48482 0.41719 0.0
C1279 C 0.64904 0.45568 0.40031 0.0
H1280 H 0.68627 0.55624 0.40213 0.0
H1281 H 0.60085 0.47819 0.42925 0.0
H1282 H 0.72201 0.5561 0.45035 0.0
H1283 H 0.72514 0.52978 0.56496 0.0
H1284 H 0.50881 0.58811 0.39952 0.0
H1285 H 0.7195 0.51068 0.36763 0.0
H1286 H 0.63851 0.42718 0.40099 0.0
C1287 C 0.72386 0.42802 0.77571 0.0
C1288 C 0.72598 0.4648 0.78692 0.0
N1289 N 0.71978 0.48598 0.75645 0.0
N1290 N 0.71705 0.4262 0.73834 0.0
C1291 C 0.71377 0.46244 0.72765 0.0
H1292 H 0.72635 0.40393 0.79404 0.0
Co1293 Co 0.70945 0.3799 0.7155 0.0
C1294 C 0.64956 0.39417 0.65623 0.0
O1295 O 0.66924 0.375 0.63182 0.0
N1296 N 0.70012 0.33209 0.69771 0.0
C1297 C 0.67988 0.27963 0.67065 0.0
C1298 C 0.7001 0.31242 0.6653 0.0
C1299 C 0.68326 0.30934 0.72286 0.0
N1300 N 0.66996 0.27775 0.70712 0.0
O1301 O 0.75215 0.35918 0.74474 0.0
H1302 H 0.71213 0.32191 0.63909 0.0
H1303 H 0.6778 0.31764 0.75162 0.0
O1304 O 0.66255 0.39956 0.68952 0.0
C1305 C 0.7871 0.36389 0.75219 0.0
O1306 O 0.80616 0.39129 0.73652 0.0
N1307 N 0.74185 0.39365 0.6731 0.0
C1308 C 0.7975 0.43483 0.63574 0.0
C1309 C 0.75952 0.44446 0.63246 0.0
C1310 C 0.73257 0.42427 0.6519 0.0
C1311 C 0.77648 0.37789 0.6672 0.0
C1312 C 0.80562 0.39904 0.65033 0.0
H1313 H 0.70505 0.43626 0.65213 0.0
H1314 H 0.78312 0.35086 0.67926 0.0
H1315 H 0.70521 0.47201 0.70035 0.0
H1316 H 0.73148 0.47514 0.81496 0.0
H1317 H 0.67318 0.2588 0.64953 0.0
H1318 H 0.75062 0.46949 0.61764 0.0
H1319 H 0.83412 0.38852 0.65101 0.0
C1320 C 0.48558 0.83327 0.53737 0.0
C1321 C 0.47438 0.79649 0.53525 0.0
N1322 N 0.50483 0.77531 0.54151 0.0
N1323 N 0.52295 0.83508 0.54423 0.0
C1324 C 0.53362 0.79885 0.54754 0.0
H1325 H 0.46726 0.85736 0.53485 0.0
Co1326 Co 0.54579 0.88138 0.55185 0.0
C1327 C 0.60505 0.86708 0.61173 0.0
O1328 O 0.62947 0.88626 0.59206 0.0
N1329 N 0.56359 0.92919 0.5612 0.0
C1330 C 0.59066 0.98164 0.58146 0.0
C1331 C 0.59601 0.94885 0.56122 0.0
C1332 C 0.53845 0.95193 0.57807 0.0
N1333 N 0.5542 0.98349 0.59141 0.0
O1334 O 0.51657 0.90211 0.50914 0.0
H1335 H 0.62221 0.93936 0.54918 0.0
H1336 H 0.50969 0.94364 0.58353 0.0
O1337 O 0.57176 0.8617 0.59875 0.0
C1338 C 0.50913 0.8974 0.4742 0.0
O1339 O 0.5248 0.87 0.45514 0.0
N1340 N 0.5882 0.86763 0.51946 0.0
C1341 C 0.62555 0.82645 0.4638 0.0
C1342 C 0.62882 0.81681 0.50177 0.0
C1343 C 0.60938 0.83699 0.52872 0.0
C1344 C 0.59411 0.8834 0.48483 0.0
C1345 C 0.61098 0.86225 0.45568 0.0
H1346 H 0.60914 0.82499 0.55624 0.0
H1347 H 0.58206 0.91044 0.4782 0.0
H1348 H 0.56091 0.78928 0.55615 0.0
H1349 H 0.44633 0.78615 0.52972 0.0
H1350 H 0.61178 1.00246 0.58815 0.0
H1351 H 0.64362 0.79176 0.51066 0.0
H1352 H 0.61031 0.87279 0.42719 0.0
C1353 C 0.98556 0.67804 0.47393 0.0
C1354 C 0.97436 0.71483 0.47605 0.0
N1355 N 1.00483 0.736 0.46981 0.0
N1356 N 0.02293 0.67622 0.46708 0.0
C1357 C 0.03361 0.71246 0.46378 0.0
H1358 H 0.96724 0.65396 0.47644 0.0
Co1359 Co 0.04577 0.62993 0.45946 0.0
C1360 C 0.10502 0.6442 0.39957 0.0
O1361 O 0.12944 0.62502 0.41923 0.0
N1362 N 0.06357 0.58212 0.45011 0.0
C1363 C 0.09064 0.52966 0.42988 0.0
C1364 C 0.09598 0.56245 0.45012 0.0
C1365 C 0.03843 0.55938 0.43323 0.0
N1366 N 0.05419 0.5278 0.41991 0.0
O1367 O 0.01654 0.6092 0.50217 0.0
H1368 H 0.12218 0.57194 0.46216 0.0
H1369 H 0.00967 0.56766 0.42776 0.0
O1370 O 0.07174 0.6496 0.41255 0.0
C1371 C 0.00909 0.61391 0.53711 0.0
O1372 O 0.02476 0.64131 0.55617 0.0
N1373 N 0.08818 0.64367 0.49185 0.0
C1374 C 0.12554 0.68485 0.5475 0.0
C1375 C 0.12881 0.69448 0.50952 0.0
C1376 C 0.10937 0.6743 0.48258 0.0
C1377 C 0.09407 0.62791 0.52648 0.0
C1378 C 0.11095 0.64906 0.55562 0.0
H1379 H 0.10914 0.68629 0.45505 0.0
H1380 H 0.08202 0.60088 0.53312 0.0
H1381 H 0.06091 0.72202 0.45518 0.0
H1382 H 0.94632 0.72517 0.48157 0.0
H1383 H 0.11177 0.50884 0.4232 0.0
H1384 H 0.14363 0.71952 0.50062 0.0
H1385 H 0.11027 0.63854 0.58412 0.0
C1386 C 0.58326 0.73556 0.72397 0.0
C1387 C 0.54647 0.72437 0.72608 0.0
N1388 N 0.52531 0.75483 0.7198 0.0
N1389 N 0.58508 0.77293 0.71709 0.0
C1390 C 0.54885 0.78361 0.71376 0.0
H1391 H 0.60734 0.71724 0.72651 0.0
Co1392 Co 0.63138 0.79577 0.70947 0.0
C1393 C 0.6171 0.85503 0.64958 0.0
O1394 O 0.63628 0.87944 0.66925 0.0
N1395 N 0.67919 0.81357 0.70013 0.0
C1396 C 0.73164 0.84065 0.67989 0.0
C1397 C 0.69885 0.84599 0.70013 0.0
C1398 C 0.70193 0.78844 0.68324 0.0
N1399 N 0.7335 0.8042 0.66992 0.0
O1400 O 0.65211 0.76655 0.75218 0.0
H1401 H 0.68936 0.87218 0.71218 0.0
H1402 H 0.69365 0.75968 0.67777 0.0
O1403 O 0.61171 0.82174 0.66256 0.0
C1404 C 0.64741 0.7591 0.78712 0.0
O1405 O 0.62001 0.77477 0.80619 0.0
N1406 N 0.61762 0.83818 0.74186 0.0
C1407 C 0.57644 0.87554 0.79751 0.0
C1408 C 0.56681 0.87881 0.75953 0.0
C1409 C 0.587 0.85936 0.73259 0.0
C1410 C 0.63339 0.84408 0.77649 0.0
C1411 C 0.61224 0.86096 0.80563 0.0
H1412 H 0.57501 0.85913 0.70507 0.0
H1413 H 0.66043 0.83203 0.78312 0.0
H1414 H 0.53929 0.8109 0.70513 0.0
H1415 H 0.53613 0.69633 0.73163 0.0
H1416 H 0.75247 0.86178 0.67322 0.0
H1417 H 0.54177 0.89362 0.75063 0.0
H1418 H 0.62276 0.86028 0.83413 0.0
C1419 C 0.52574 0.33327 0.97391 0.0
C1420 C 0.53694 0.29649 0.97603 0.0
N1421 N 0.50647 0.27532 0.9698 0.0
N1422 N 0.48837 0.33509 0.96707 0.0
C1423 C 0.47768 0.29886 0.96378 0.0
H1424 H 0.54406 0.35735 0.97641 0.0
Co1425 Co 0.46553 0.38139 0.95945 0.0
C1426 C 0.40627 0.36712 0.89956 0.0
O1427 O 0.38186 0.3863 0.91923 0.0
N1428 N 0.44773 0.4292 0.95011 0.0
C1429 C 0.42065 0.48165 0.92989 0.0
C1430 C 0.41531 0.44887 0.95012 0.0
C1431 C 0.47286 0.45194 0.93323 0.0
N1432 N 0.4571 0.48351 0.91991 0.0
O1433 O 0.49475 0.40212 1.00216 0.0
H1434 H 0.38912 0.43937 0.96218 0.0
H1435 H 0.50162 0.44365 0.92775 0.0
O1436 O 0.43955 0.36172 0.91255 0.0
C1437 C 0.50221 0.3974 0.0371 0.0
O1438 O 0.48654 0.37 0.05616 0.0
N1439 N 0.42312 0.36764 0.99185 0.0
C1440 C 0.38575 0.32646 0.04749 0.0
C1441 C 0.38248 0.31683 0.00951 0.0
C1442 C 0.40192 0.33702 0.98257 0.0
C1443 C 0.41722 0.3834 0.02648 0.0
C1444 C 0.40035 0.36225 0.05562 0.0
H1445 H 0.40216 0.32503 0.95505 0.0
H1446 H 0.42928 0.41043 0.03312 0.0
H1447 H 0.45038 0.28929 0.95519 0.0
H1448 H 0.56498 0.28614 0.98154 0.0
H1449 H 0.39952 0.50248 0.92322 0.0
H1450 H 0.36765 0.2918 1.00061 0.0
H1451 H 0.40103 0.37277 0.08412 0.0
C1452 C 0.42803 0.77573 0.72389 0.0
C1453 C 0.46482 0.78693 0.72601 0.0
N1454 N 0.48598 0.75646 0.71979 0.0
N1455 N 0.42621 0.73836 0.71706 0.0
C1456 C 0.46245 0.72767 0.71377 0.0
H1457 H 0.40395 0.79406 0.72639 0.0
Co1458 Co 0.37991 0.71552 0.70945 0.0
C1459 C 0.39418 0.65626 0.64956 0.0
O1460 O 0.37499 0.63185 0.66923 0.0
N1461 N 0.3321 0.69773 0.70012 0.0
C1462 C 0.27964 0.67065 0.6799 0.0
C1463 C 0.31243 0.66531 0.70013 0.0
C1464 C 0.30936 0.72286 0.68324 0.0
N1465 N 0.27778 0.7071 0.66992 0.0
O1466 O 0.35919 0.74475 0.75216 0.0
H1467 H 0.32193 0.63912 0.71218 0.0
H1468 H 0.31765 0.75162 0.67776 0.0
O1469 O 0.39958 0.68954 0.66255 0.0
C1470 C 0.36391 0.75221 0.7871 0.0
O1471 O 0.39131 0.73654 0.80616 0.0
N1472 N 0.39366 0.67311 0.74185 0.0
C1473 C 0.43485 0.63576 0.79749 0.0
C1474 C 0.44447 0.63248 0.75951 0.0
C1475 C 0.42428 0.65192 0.73257 0.0
C1476 C 0.3779 0.66722 0.77648 0.0
C1477 C 0.39906 0.65035 0.80562 0.0
H1478 H 0.43627 0.65215 0.70505 0.0
H1479 H 0.35087 0.67928 0.78312 0.0
H1480 H 0.47202 0.70037 0.7052 0.0
H1481 H 0.47516 0.81498 0.73151 0.0
H1482 H 0.25881 0.64952 0.67323 0.0
H1483 H 0.4695 0.61765 0.75061 0.0
H1484 H 0.38854 0.65103 0.83412 0.0
C1485 C 0.0257 0.17802 0.03737 0.0
C1486 C 0.0369 0.2148 0.03526 0.0
N1487 N 0.00644 0.23597 0.04151 0.0
N1488 N 0.98833 0.1762 0.04422 0.0
C1489 C 0.97765 0.21244 0.04753 0.0
H1490 H 0.04402 0.15393 0.03485 0.0
Co1491 Co 0.96549 0.12991 0.05184 0.0
C1492 C 0.90623 0.14419 0.11172 0.0
O1493 O 0.88181 0.12501 0.09205 0.0
N1494 N 0.9477 0.08209 0.06119 0.0
C1495 C 0.92064 0.02964 0.08145 0.0
C1496 C 0.91528 0.06242 0.06121 0.0
C1497 C 0.97284 0.05936 0.07806 0.0
N1498 N 0.9571 0.02779 0.0914 0.0
O1499 O 0.99471 0.10917 0.00913 0.0
H1500 H 0.88908 0.0719 0.04917 0.0
H1501 H 1.0016 0.06765 0.08352 0.0
O1502 O 0.93951 0.14957 0.09874 0.0
C1503 C 1.00216 0.11388 0.97419 0.0
O1504 O 0.98649 0.14129 0.95513 0.0
N1505 N 0.92308 0.14365 0.01945 0.0
C1506 C 0.88574 0.18483 0.96379 0.0
C1507 C 0.88246 0.19447 1.00177 0.0
C1508 C 0.9019 0.17428 0.02871 0.0
C1509 C 0.91718 0.12788 0.98482 0.0
C1510 C 0.90031 0.14903 0.95567 0.0
H1511 H 0.90213 0.18628 0.05623 0.0
H1512 H 0.92923 0.10084 0.97819 0.0
H1513 H 0.95036 0.22201 0.05614 0.0
H1514 H 0.06495 0.22514 0.02974 0.0
H1515 H 0.89952 0.00881 0.08814 0.0
H1516 H 0.86766 0.21951 0.01066 0.0
H1517 H 0.90099 0.1385 0.92718 0.0
C1518 C 0.58327 0.27572 0.78738 0.0
C1519 C 0.54648 0.28693 0.78526 0.0
N1520 N 0.52531 0.25647 0.79149 0.0
N1521 N 0.58508 0.23835 0.79422 0.0
C1522 C 0.54884 0.22767 0.79751 0.0
H1523 H 0.60735 0.29404 0.78487 0.0
Co1524 Co 0.63137 0.21551 0.80185 0.0
C1525 C 0.61709 0.15625 0.86173 0.0
O1526 O 0.63626 0.13183 0.84206 0.0
N1527 N 0.67919 0.19771 0.8112 0.0
C1528 C 0.73163 0.17065 0.83146 0.0
C1529 C 0.69886 0.1653 0.81122 0.0
C1530 C 0.70192 0.22285 0.82808 0.0
N1531 N 0.73349 0.20711 0.84142 0.0
O1532 O 0.65211 0.24473 0.75914 0.0
H1533 H 0.68937 0.1391 0.79918 0.0
H1534 H 0.69363 0.25162 0.83354 0.0
O1535 O 0.6117 0.18954 0.84875 0.0
C1536 C 0.6474 0.25217 0.72419 0.0
O1537 O 0.62 0.2365 0.70514 0.0
N1538 N 0.61763 0.1731 0.76945 0.0
C1539 C 0.57646 0.13575 0.71379 0.0
C1540 C 0.56682 0.13248 0.75177 0.0
C1541 C 0.587 0.15191 0.77872 0.0
C1542 C 0.63341 0.16719 0.73483 0.0
C1543 C 0.61226 0.15032 0.70568 0.0
H1544 H 0.575 0.15215 0.80624 0.0
H1545 H 0.66044 0.17924 0.7282 0.0
H1546 H 0.53927 0.20038 0.80611 0.0
H1547 H 0.53615 0.31497 0.77974 0.0
H1548 H 0.75246 0.14953 0.83816 0.0
H1549 H 0.54177 0.11767 0.76066 0.0
H1550 H 0.62279 0.151 0.67719 0.0
C1551 C 0.92803 0.73558 0.28742 0.0
C1552 C 0.96481 0.72437 0.28529 0.0
N1553 N 0.98599 0.75483 0.29149 0.0
N1554 N 0.92622 0.77295 0.29423 0.0
C1555 C 0.96246 0.78363 0.2975 0.0
H1556 H 0.90394 0.71726 0.28493 0.0
Co1557 Co 0.87992 0.79579 0.30186 0.0
C1558 C 0.89421 0.85506 0.36173 0.0
O1559 O 0.87503 0.87947 0.34206 0.0
N1560 N 0.83211 0.81359 0.3112 0.0
C1561 C 0.77966 0.84065 0.33146 0.0
C1562 C 0.81244 0.846 0.31122 0.0
C1563 C 0.80938 0.78845 0.32808 0.0
N1564 N 0.7778 0.80419 0.34142 0.0
O1565 O 0.85919 0.76657 0.25915 0.0
H1566 H 0.82193 0.8722 0.29918 0.0
H1567 H 0.81767 0.75968 0.33354 0.0
O1568 O 0.8996 0.82177 0.34875 0.0
C1569 C 0.86391 0.75911 0.22421 0.0
O1570 O 0.89132 0.77478 0.20516 0.0
N1571 N 0.89366 0.8382 0.26946 0.0
C1572 C 0.93484 0.87555 0.21379 0.0
C1573 C 0.94448 0.87883 0.25177 0.0
C1574 C 0.92429 0.85939 0.27872 0.0
C1575 C 0.87789 0.8441 0.23483 0.0
C1576 C 0.89904 0.86097 0.20568 0.0
H1577 H 0.93629 0.85915 0.30624 0.0
H1578 H 0.85086 0.83204 0.2282 0.0
H1579 H 0.97203 0.81093 0.30607 0.0
H1580 H 0.97514 0.69632 0.27979 0.0
H1581 H 0.75883 0.86177 0.33815 0.0
H1582 H 0.96952 0.89364 0.26066 0.0
H1583 H 0.88851 0.86029 0.17718 0.0
loop_
_geom_bond_atom_site_label_1
_geom_bond_atom_site_label_2
_geom_bond_distance
_geom_bond_site_symmetry_2
_ccdc_geom_bond_type
C0 C1 1.351 . S
C0 N3 1.368 1_665 S
C0 H5 0.931 . S
C1 C0 1.351 . S
C1 N2 1.373 1_665 S
C1 H29 0.930 . S
N2 C1 1.373 1_445 S
N2 C4 1.340 . S
N3 C0 1.368 1_445 S
N3 C4 1.321 . S
N3 Co6 2.135 . S
C4 N2 1.340 . S
C4 N3 1.321 . S
C4 H28 0.930 . S
H5 C0 0.931 . S
Co6 N3 2.135 . S
Co6 N9 2.121 . S
Co6 O14 2.055 1_545 S
Co6 O17 2.039 . S
Co6 N20 2.140 1_455 S
C7 O8 1.227 . S
C7 O17 1.265 . S
O8 C7 1.227 . S
N9 Co6 2.121 . S
N9 C11 1.375 . S
N9 C12 1.313 . S
C10 C11 1.338 . S
C10 N13 1.377 . S
C10 H30 0.930 . S
C11 N9 1.375 . S
C11 C10 1.338 . S
C11 H15 0.931 . S
C12 N9 1.313 . S
C12 N13 1.344 . S
C12 H16 0.930 . S
N13 C10 1.377 . S
N13 C12 1.344 . S
O14 Co6 2.055 1_565 S
O14 C18 1.253 1_455 S
H15 C11 0.931 . S
H16 C12 0.930 . S
O17 Co6 2.039 . S
O17 C7 1.265 . S
C18 O14 1.253 1_655 S
C18 O19 1.227 1_565 S
O19 C18 1.227 1_545 S
N20 Co6 2.140 1_655 S
N20 C23 1.346 . S
N20 C24 1.345 . S
C21 C22 1.387 . S
C21 C25 1.391 . S
C22 C21 1.387 . S
C22 C23 1.369 . S
C22 H31 0.929 . S
C23 N20 1.346 . S
C23 C22 1.369 . S
C23 H26 0.928 1_655 S
C24 N20 1.345 . S
C24 C25 1.371 . S
C24 H27 0.931 . S
C25 C21 1.391 . S
C25 C24 1.371 . S
C25 H32 0.930 . S
H26 C23 0.928 1_455 S
H27 C24 0.931 . S
H28 C4 0.930 . S
H29 C1 0.930 . S
H30 C10 0.930 . S
H31 C22 0.929 . S
H32 C25 0.930 . S
C33 C34 1.351 . S
C33 N36 1.368 . S
C33 H38 0.931 . S
C34 C33 1.351 . S
C34 N35 1.373 . S
C34 H62 0.930 . S
N35 C34 1.373 . S
N35 C37 1.340 . S
N36 C33 1.368 . S
N36 C37 1.321 . S
N36 Co39 2.135 . S
C37 N35 1.340 . S
C37 N36 1.321 . S
C37 H61 0.930 . S
H38 C33 0.931 . S
Co39 N36 2.135 . S
Co39 N42 2.121 . S
Co39 O47 2.055 . S
Co39 O50 2.039 . S
Co39 N53 2.140 . S
C40 O41 1.227 . S
C40 O50 1.265 . S
O41 C40 1.227 . S
N42 Co39 2.121 . S
N42 C44 1.375 . S
N42 C45 1.313 . S
C43 C44 1.338 . S
C43 N46 1.377 . S
C43 H63 0.930 . S
C44 N42 1.375 . S
C44 C43 1.338 . S
C44 H48 0.931 . S
C45 N42 1.313 . S
C45 N46 1.344 . S
C45 H49 0.930 . S
N46 C43 1.377 . S
N46 C45 1.344 . S
O47 Co39 2.055 . S
O47 C51 1.253 . S
H48 C44 0.931 . S
H49 C45 0.930 . S
O50 Co39 2.039 . S
O50 C40 1.265 . S
C51 O47 1.253 . S
C51 O52 1.227 . S
O52 C51 1.227 . S
N53 Co39 2.140 . S
N53 C56 1.346 . S
N53 C57 1.345 . S
C54 C55 1.387 . S
C54 C58 1.391 . S
C55 C54 1.387 . S
C55 C56 1.369 . S
C55 H64 0.929 . S
C56 N53 1.346 . S
C56 C55 1.369 . S
C56 H59 0.928 . S
C57 N53 1.345 . S
C57 C58 1.371 . S
C57 H60 0.931 . S
C58 C54 1.391 . S
C58 C57 1.371 . S
C58 H65 0.930 . S
H59 C56 0.928 . S
H60 C57 0.931 . S
H61 C37 0.930 . S
H62 C34 0.930 . S
H63 C43 0.930 . S
H64 C55 0.929 . S
H65 C58 0.930 . S
C66 C67 1.351 . S
C66 N69 1.368 1_545 S
C66 H71 0.931 . S
C67 C66 1.351 . S
C67 N68 1.373 1_545 S
C67 H95 0.930 . S
N68 C67 1.373 1_565 S
N68 C70 1.340 . S
N69 C66 1.368 1_565 S
N69 C70 1.321 . S
N69 Co72 2.135 . S
C70 N68 1.340 . S
C70 N69 1.321 . S
C70 H94 0.930 . S
H71 C66 0.931 . S
Co72 N69 2.135 . S
Co72 N75 2.121 . S
Co72 O80 2.055 1_565 S
Co72 O83 2.039 . S
Co72 N86 2.140 . S
C73 O74 1.227 . S
C73 O83 1.265 . S
O74 C73 1.227 . S
N75 Co72 2.121 . S
N75 C77 1.375 . S
N75 C78 1.313 . S
C76 C77 1.338 . S
C76 N79 1.377 . S
C76 H96 0.930 . S
C77 N75 1.375 . S
C77 C76 1.338 . S
C77 H81 0.931 . S
C78 N75 1.313 . S
C78 N79 1.344 . S
C78 H82 0.930 . S
N79 C76 1.377 . S
N79 C78 1.344 . S
O80 Co72 2.055 1_545 S
O80 C84 1.253 . S
H81 C77 0.931 . S
H82 C78 0.930 . S
O83 Co72 2.039 . S
O83 C73 1.265 . S
C84 O80 1.253 . S
C84 O85 1.227 1_545 S
O85 C84 1.227 1_565 S
N86 Co72 2.140 . S
N86 C89 1.346 . S
N86 C90 1.345 . S
C87 C88 1.387 . S
C87 C91 1.391 . S
C88 C87 1.387 . S
C88 C89 1.369 . S
C88 H97 0.929 . S
C89 N86 1.346 . S
C89 C88 1.369 . S
C89 H92 0.928 . S
C90 N86 1.345 . S
C90 C91 1.371 . S
C90 H93 0.931 . S
C91 C87 1.391 . S
C91 C90 1.371 . S
C91 H98 0.930 . S
H92 C89 0.928 . S
H93 C90 0.931 . S
H94 C70 0.930 . S
H95 C67 0.930 . S
H96 C76 0.930 . S
H97 C88 0.929 . S
H98 C91 0.930 . S
C99 C100 1.351 . S
C99 N102 1.368 . S
C99 H104 0.931 . S
C100 C99 1.351 . S
C100 N101 1.373 . S
C100 H128 0.930 . S
N101 C100 1.373 . S
N101 C103 1.340 . S
N102 C99 1.368 . S
N102 C103 1.321 . S
N102 Co105 2.135 . S
C103 N101 1.340 . S
C103 N102 1.321 . S
C103 H127 0.930 . S
H104 C99 0.931 . S
Co105 N102 2.135 . S
Co105 N108 2.121 . S
Co105 O113 2.055 . S
Co105 O116 2.039 . S
Co105 N119 2.140 . S
C106 O107 1.227 . S
C106 O116 1.265 . S
O107 C106 1.227 . S
N108 Co105 2.121 . S
N108 C110 1.375 . S
N108 C111 1.313 . S
C109 C110 1.338 . S
C109 N112 1.377 . S
C109 H129 0.930 . S
C110 N108 1.375 . S
C110 C109 1.338 . S
C110 H114 0.931 . S
C111 N108 1.313 . S
C111 N112 1.344 . S
C111 H115 0.930 . S
N112 C109 1.377 . S
N112 C111 1.344 . S
O113 Co105 2.055 . S
O113 C117 1.253 . S
H114 C110 0.931 . S
H115 C111 0.930 . S
O116 Co105 2.039 . S
O116 C106 1.265 . S
C117 O113 1.253 . S
C117 O118 1.227 . S
O118 C117 1.227 . S
N119 Co105 2.140 . S
N119 C122 1.346 . S
N119 C123 1.345 . S
C120 C121 1.387 . S
C120 C124 1.391 . S
C121 C120 1.387 . S
C121 C122 1.369 . S
C121 H130 0.929 . S
C122 N119 1.346 . S
C122 C121 1.369 . S
C122 H125 0.928 . S
C123 N119 1.345 . S
C123 C124 1.371 . S
C123 H126 0.931 . S
C124 C120 1.391 . S
C124 C123 1.371 . S
C124 H131 0.930 . S
H125 C122 0.928 . S
H126 C123 0.931 . S
H127 C103 0.930 . S
H128 C100 0.930 . S
H129 C109 0.930 . S
H130 C121 0.929 . S
H131 C124 0.930 . S
C132 C133 1.351 . S
C132 N135 1.368 1_645 S
C132 H137 0.931 . S
C133 C132 1.351 . S
C133 N134 1.373 1_645 S
C133 H161 0.930 . S
N134 C133 1.373 1_465 S
N134 C136 1.340 . S
N135 C132 1.368 1_465 S
N135 C136 1.321 . S
N135 Co138 2.135 . S
C136 N134 1.340 . S
C136 N135 1.321 . S
C136 H160 0.930 . S
H137 C132 0.931 . S
Co138 N135 2.135 . S
Co138 N141 2.121 . S
Co138 O146 2.055 1_565 S
Co138 O149 2.039 . S
Co138 N152 2.140 1_455 S
C139 O140 1.227 . S
C139 O149 1.265 . S
O140 C139 1.227 . S
N141 Co138 2.121 . S
N141 C143 1.375 . S
N141 C144 1.313 . S
C142 C143 1.338 . S
C142 N145 1.377 . S
C142 H162 0.930 . S
C143 N141 1.375 . S
C143 C142 1.338 . S
C143 H147 0.931 . S
C144 N141 1.313 . S
C144 N145 1.344 . S
C144 H148 0.930 . S
N145 C142 1.377 . S
N145 C144 1.344 . S
O146 Co138 2.055 1_545 S
O146 C150 1.253 1_455 S
H147 C143 0.931 . S
H148 C144 0.930 . S
O149 Co138 2.039 . S
O149 C139 1.265 . S
C150 O146 1.253 1_655 S
C150 O151 1.227 1_545 S
O151 C150 1.227 1_565 S
N152 Co138 2.140 1_655 S
N152 C155 1.346 . S
N152 C156 1.345 . S
C153 C154 1.387 . S
C153 C157 1.391 . S
C154 C153 1.387 . S
C154 C155 1.369 . S
C154 H163 0.929 . S
C155 N152 1.346 . S
C155 C154 1.369 . S
C155 H158 0.928 1_655 S
C156 N152 1.345 . S
C156 C157 1.371 . S
C156 H159 0.931 . S
C157 C153 1.391 . S
C157 C156 1.371 . S
C157 H164 0.930 . S
H158 C155 0.928 1_455 S
H159 C156 0.931 . S
H160 C136 0.930 . S
H161 C133 0.930 . S
H162 C142 0.930 . S
H163 C154 0.929 . S
H164 C157 0.930 . S
C165 C166 1.351 . S
C165 N168 1.368 . S
C165 H170 0.931 . S
C166 C165 1.351 . S
C166 N167 1.373 . S
C166 H194 0.930 . S
N167 C166 1.373 . S
N167 C169 1.340 . S
N168 C165 1.368 . S
N168 C169 1.321 . S
N168 Co171 2.135 . S
C169 N167 1.340 . S
C169 N168 1.321 . S
C169 H193 0.930 . S
H170 C165 0.931 . S
Co171 N168 2.135 . S
Co171 N174 2.121 . S
Co171 O179 2.055 . S
Co171 O182 2.039 . S
Co171 N185 2.140 . S
C172 O173 1.227 . S
C172 O182 1.265 . S
O173 C172 1.227 . S
N174 Co171 2.121 . S
N174 C176 1.375 . S
N174 C177 1.313 . S
C175 C176 1.338 . S
C175 N178 1.377 . S
C175 H195 0.930 . S
C176 N174 1.375 . S
C176 C175 1.338 . S
C176 H180 0.931 . S
C177 N174 1.313 . S
C177 N178 1.344 . S
C177 H181 0.930 . S
N178 C175 1.377 . S
N178 C177 1.344 . S
O179 Co171 2.055 . S
O179 C183 1.253 . S
H180 C176 0.931 . S
H181 C177 0.930 . S
O182 Co171 2.039 . S
O182 C172 1.265 . S
C183 O179 1.253 . S
C183 O184 1.227 . S
O184 C183 1.227 . S
N185 Co171 2.140 . S
N185 C188 1.346 . S
N185 C189 1.345 . S
C186 C187 1.387 . S
C186 C190 1.391 . S
C187 C186 1.387 . S
C187 C188 1.369 . S
C187 H196 0.929 . S
C188 N185 1.346 . S
C188 C187 1.369 . S
C188 H191 0.928 . S
C189 N185 1.345 . S
C189 C190 1.371 . S
C189 H192 0.931 . S
C190 C186 1.391 . S
C190 C189 1.371 . S
C190 H197 0.930 . S
H191 C188 0.928 . S
H192 C189 0.931 . S
H193 C169 0.930 . S
H194 C166 0.930 . S
H195 C175 0.930 . S
H196 C187 0.929 . S
H197 C190 0.930 . S
C198 C199 1.351 . S
C198 N201 1.368 1_565 S
C198 H203 0.931 . S
C199 C198 1.351 . S
C199 N200 1.373 1_565 S
C199 H227 0.930 . S
N200 C199 1.373 1_545 S
N200 C202 1.340 . S
N201 C198 1.368 1_545 S
N201 C202 1.321 . S
N201 Co204 2.135 . S
C202 N200 1.340 . S
C202 N201 1.321 . S
C202 H226 0.930 . S
H203 C198 0.931 . S
Co204 N201 2.135 . S
Co204 N207 2.121 . S
Co204 O212 2.055 1_545 S
Co204 O215 2.039 . S
Co204 N218 2.140 . S
C205 O206 1.227 . S
C205 O215 1.265 . S
O206 C205 1.227 . S
N207 Co204 2.121 . S
N207 C209 1.375 . S
N207 C210 1.313 . S
C208 C209 1.338 . S
C208 N211 1.377 . S
C208 H228 0.930 . S
C209 N207 1.375 . S
C209 C208 1.338 . S
C209 H213 0.931 . S
C210 N207 1.313 . S
C210 N211 1.344 . S
C210 H214 0.930 . S
N211 C208 1.377 . S
N211 C210 1.344 . S
O212 Co204 2.055 1_565 S
O212 C216 1.253 . S
H213 C209 0.931 . S
H214 C210 0.930 . S
O215 Co204 2.039 . S
O215 C205 1.265 . S
C216 O212 1.253 . S
C216 O217 1.227 1_565 S
O217 C216 1.227 1_545 S
N218 Co204 2.140 . S
N218 C221 1.346 . S
N218 C222 1.345 . S
C219 C220 1.387 . S
C219 C223 1.391 . S
C220 C219 1.387 . S
C220 C221 1.369 . S
C220 H229 0.929 . S
C221 N218 1.346 . S
C221 C220 1.369 . S
C221 H224 0.928 . S
C222 N218 1.345 . S
C222 C223 1.371 . S
C222 H225 0.931 . S
C223 C219 1.391 . S
C223 C222 1.371 . S
C223 H230 0.930 . S
H224 C221 0.928 . S
H225 C222 0.931 . S
H226 C202 0.930 . S
H227 C199 0.930 . S
H228 C208 0.930 . S
H229 C220 0.929 . S
H230 C223 0.930 . S
C231 C232 1.351 . S
C231 N234 1.368 . S
C231 H236 0.931 . S
C232 C231 1.351 . S
C232 N233 1.373 . S
C232 H260 0.930 . S
N233 C232 1.373 . S
N233 C235 1.340 . S
N234 C231 1.368 . S
N234 C235 1.321 . S
N234 Co237 2.135 . S
C235 N233 1.340 . S
C235 N234 1.321 . S
C235 H259 0.930 . S
H236 C231 0.931 . S
Co237 N234 2.135 . S
Co237 N240 2.121 . S
Co237 O245 2.055 . S
Co237 O248 2.039 . S
Co237 N251 2.140 . S
C238 O239 1.227 . S
C238 O248 1.265 . S
O239 C238 1.227 . S
N240 Co237 2.121 . S
N240 C242 1.375 . S
N240 C243 1.313 . S
C241 C242 1.338 . S
C241 N244 1.377 . S
C241 H261 0.930 . S
C242 N240 1.375 . S
C242 C241 1.338 . S
C242 H246 0.931 . S
C243 N240 1.313 . S
C243 N244 1.344 . S
C243 H247 0.930 . S
N244 C241 1.377 . S
N244 C243 1.344 . S
O245 Co237 2.055 . S
O245 C249 1.253 . S
H246 C242 0.931 . S
H247 C243 0.930 . S
O248 Co237 2.039 . S
O248 C238 1.265 . S
C249 O245 1.253 . S
C249 O250 1.227 . S
O250 C249 1.227 . S
N251 Co237 2.140 . S
N251 C254 1.346 . S
N251 C255 1.345 . S
C252 C253 1.387 . S
C252 C256 1.391 . S
C253 C252 1.387 . S
C253 C254 1.369 . S
C253 H262 0.929 . S
C254 N251 1.346 . S
C254 C253 1.369 . S
C254 H257 0.928 . S
C255 N251 1.345 . S
C255 C256 1.371 . S
C255 H258 0.931 . S
C256 C252 1.391 . S
C256 C255 1.371 . S
C256 H263 0.930 . S
H257 C254 0.928 . S
H258 C255 0.931 . S
H259 C235 0.930 . S
H260 C232 0.930 . S
H261 C241 0.930 . S
H262 C253 0.929 . S
H263 C256 0.930 . S
C264 C265 1.351 . S
C264 N267 1.368 1_566 S
C264 H269 0.931 . S
C265 C264 1.351 . S
C265 N266 1.373 1_566 S
C265 H293 0.930 . S
N266 C265 1.373 1_544 S
N266 C268 1.340 . S
N267 C264 1.368 1_544 S
N267 C268 1.321 . S
N267 Co270 2.135 . S
C268 N266 1.340 . S
C268 N267 1.321 . S
C268 H292 0.930 . S
H269 C264 0.931 . S
Co270 N267 2.135 . S
Co270 N273 2.121 . S
Co270 O278 2.055 1_554 S
Co270 O281 2.039 . S
Co270 N284 2.140 1_545 S
C271 O272 1.227 . S
C271 O281 1.265 . S
O272 C271 1.227 . S
N273 Co270 2.121 . S
N273 C275 1.375 . S
N273 C276 1.313 . S
C274 C275 1.338 . S
C274 N277 1.377 . S
C274 H294 0.930 . S
C275 N273 1.375 . S
C275 C274 1.338 . S
C275 H279 0.931 . S
C276 N273 1.313 . S
C276 N277 1.344 . S
C276 H280 0.930 . S
N277 C274 1.377 . S
N277 C276 1.344 . S
O278 Co270 2.055 1_556 S
O278 C282 1.253 1_545 S
H279 C275 0.931 . S
H280 C276 0.930 . S
O281 Co270 2.039 . S
O281 C271 1.265 . S
C282 O278 1.253 1_565 S
C282 O283 1.227 1_556 S
O283 C282 1.227 1_554 S
N284 Co270 2.140 1_565 S
N284 C287 1.346 . S
N284 C288 1.345 . S
C285 C286 1.387 . S
C285 C289 1.391 . S
C286 C285 1.387 . S
C286 C287 1.369 . S
C286 H295 0.929 . S
C287 N284 1.346 . S
C287 C286 1.369 . S
C287 H290 0.928 1_565 S
C288 N284 1.345 . S
C288 C289 1.371 . S
C288 H291 0.931 . S
C289 C285 1.391 . S
C289 C288 1.371 . S
C289 H296 0.930 . S
H290 C287 0.928 1_545 S
H291 C288 0.931 . S
H292 C268 0.930 . S
H293 C265 0.930 . S
H294 C274 0.930 . S
H295 C286 0.929 . S
H296 C289 0.930 . S
C297 C298 1.351 . S
C297 N300 1.368 . S
C297 H302 0.931 . S
C298 C297 1.351 . S
C298 N299 1.373 . S
C298 H326 0.930 . S
N299 C298 1.373 . S
N299 C301 1.340 . S
N300 C297 1.368 . S
N300 C301 1.321 . S
N300 Co303 2.135 . S
C301 N299 1.340 . S
C301 N300 1.321 . S
C301 H325 0.930 . S
H302 C297 0.931 . S
Co303 N300 2.135 . S
Co303 N306 2.121 . S
Co303 O311 2.055 . S
Co303 O314 2.039 . S
Co303 N317 2.140 . S
C304 O305 1.227 . S
C304 O314 1.265 . S
O305 C304 1.227 . S
N306 Co303 2.121 . S
N306 C308 1.375 . S
N306 C309 1.313 . S
C307 C308 1.338 . S
C307 N310 1.377 . S
C307 H327 0.930 . S
C308 N306 1.375 . S
C308 C307 1.338 . S
C308 H312 0.931 . S
C309 N306 1.313 . S
C309 N310 1.344 . S
C309 H313 0.930 . S
N310 C307 1.377 . S
N310 C309 1.344 . S
O311 Co303 2.055 . S
O311 C315 1.253 . S
H312 C308 0.931 . S
H313 C309 0.930 . S
O314 Co303 2.039 . S
O314 C304 1.265 . S
C315 O311 1.253 . S
C315 O316 1.227 . S
O316 C315 1.227 . S
N317 Co303 2.140 . S
N317 C320 1.346 . S
N317 C321 1.345 . S
C318 C319 1.387 . S
C318 C322 1.391 . S
C319 C318 1.387 . S
C319 C320 1.369 . S
C319 H328 0.929 . S
C320 N317 1.346 . S
C320 C319 1.369 . S
C320 H323 0.928 . S
C321 N317 1.345 . S
C321 C322 1.371 . S
C321 H324 0.931 . S
C322 C318 1.391 . S
C322 C321 1.371 . S
C322 H329 0.930 . S
H323 C320 0.928 . S
H324 C321 0.931 . S
H325 C301 0.930 . S
H326 C298 0.930 . S
H327 C307 0.930 . S
H328 C319 0.929 . S
H329 C322 0.930 . S
C330 C331 1.351 . S
C330 N333 1.368 1_545 S
C330 H335 0.931 . S
C331 C330 1.351 . S
C331 N332 1.373 1_545 S
C331 H359 0.930 . S
N332 C331 1.373 1_565 S
N332 C334 1.340 . S
N333 C330 1.368 1_565 S
N333 C334 1.321 . S
N333 Co336 2.135 . S
C334 N332 1.340 . S
C334 N333 1.321 . S
C334 H358 0.930 . S
H335 C330 0.931 . S
Co336 N333 2.135 . S
Co336 N339 2.121 . S
Co336 O344 2.055 . S
Co336 O347 2.039 . S
Co336 N350 2.140 1_565 S
C337 O338 1.227 . S
C337 O347 1.265 . S
O338 C337 1.227 . S
N339 Co336 2.121 . S
N339 C341 1.375 . S
N339 C342 1.313 . S
C340 C341 1.338 . S
C340 N343 1.377 . S
C340 H360 0.930 . S
C341 N339 1.375 . S
C341 C340 1.338 . S
C341 H345 0.931 . S
C342 N339 1.313 . S
C342 N343 1.344 . S
C342 H346 0.930 . S
N343 C340 1.377 . S
N343 C342 1.344 . S
O344 Co336 2.055 . S
O344 C348 1.253 1_565 S
H345 C341 0.931 . S
H346 C342 0.930 . S
O347 Co336 2.039 . S
O347 C337 1.265 . S
C348 O344 1.253 1_545 S
C348 O349 1.227 . S
O349 C348 1.227 . S
N350 Co336 2.140 1_545 S
N350 C353 1.346 . S
N350 C354 1.345 . S
C351 C352 1.387 . S
C351 C355 1.391 . S
C352 C351 1.387 . S
C352 C353 1.369 . S
C352 H361 0.929 . S
C353 N350 1.346 . S
C353 C352 1.369 . S
C353 H356 0.928 1_545 S
C354 N350 1.345 . S
C354 C355 1.371 . S
C354 H357 0.931 . S
C355 C351 1.391 . S
C355 C354 1.371 . S
C355 H362 0.930 . S
H356 C353 0.928 1_565 S
H357 C354 0.931 . S
H358 C334 0.930 . S
H359 C331 0.930 . S
H360 C340 0.930 . S
H361 C352 0.929 . S
H362 C355 0.930 . S
C363 C364 1.351 . S
C363 N366 1.368 . S
C363 H368 0.931 . S
C364 C363 1.351 . S
C364 N365 1.373 . S
C364 H392 0.930 . S
N365 C364 1.373 . S
N365 C367 1.340 . S
N366 C363 1.368 . S
N366 C367 1.321 . S
N366 Co369 2.135 . S
C367 N365 1.340 . S
C367 N366 1.321 . S
C367 H391 0.930 . S
H368 C363 0.931 . S
Co369 N366 2.135 . S
Co369 N372 2.121 . S
Co369 O377 2.055 . S
Co369 O380 2.039 . S
Co369 N383 2.140 . S
C370 O371 1.227 . S
C370 O380 1.265 . S
O371 C370 1.227 . S
N372 Co369 2.121 . S
N372 C374 1.375 . S
N372 C375 1.313 . S
C373 C374 1.338 . S
C373 N376 1.377 . S
C373 H393 0.930 . S
C374 N372 1.375 . S
C374 C373 1.338 . S
C374 H378 0.931 . S
C375 N372 1.313 . S
C375 N376 1.344 . S
C375 H379 0.930 . S
N376 C373 1.377 . S
N376 C375 1.344 . S
O377 Co369 2.055 . S
O377 C381 1.253 . S
H378 C374 0.931 . S
H379 C375 0.930 . S
O380 Co369 2.039 . S
O380 C370 1.265 . S
C381 O377 1.253 . S
C381 O382 1.227 . S
O382 C381 1.227 . S
N383 Co369 2.140 . S
N383 C386 1.346 . S
N383 C387 1.345 . S
C384 C385 1.387 . S
C384 C388 1.391 . S
C385 C384 1.387 . S
C385 C386 1.369 . S
C385 H394 0.929 . S
C386 N383 1.346 . S
C386 C385 1.369 . S
C386 H389 0.928 . S
C387 N383 1.345 . S
C387 C388 1.371 . S
C387 H390 0.931 . S
C388 C384 1.391 . S
C388 C387 1.371 . S
C388 H395 0.930 . S
H389 C386 0.928 . S
H390 C387 0.931 . S
H391 C367 0.930 . S
H392 C364 0.930 . S
H393 C373 0.930 . S
H394 C385 0.929 . S
H395 C388 0.930 . S
C396 C397 1.351 . S
C396 N399 1.368 1_545 S
C396 H401 0.931 . S
C397 C396 1.351 . S
C397 N398 1.373 1_545 S
C397 H425 0.930 . S
N398 C397 1.373 1_565 S
N398 C400 1.340 . S
N399 C396 1.368 1_565 S
N399 C400 1.321 . S
N399 Co402 2.135 . S
C400 N398 1.340 . S
C400 N399 1.321 . S
C400 H424 0.930 . S
H401 C396 0.931 . S
Co402 N399 2.135 . S
Co402 N405 2.121 . S
Co402 O410 2.055 . S
Co402 O413 2.039 . S
Co402 N416 2.140 1_565 S
C403 O404 1.227 . S
C403 O413 1.265 . S
O404 C403 1.227 . S
N405 Co402 2.121 . S
N405 C407 1.375 . S
N405 C408 1.313 . S
C406 C407 1.338 . S
C406 N409 1.377 . S
C406 H426 0.930 . S
C407 N405 1.375 . S
C407 C406 1.338 . S
C407 H411 0.931 . S
C408 N405 1.313 . S
C408 N409 1.344 . S
C408 H412 0.930 . S
N409 C406 1.377 . S
N409 C408 1.344 . S
O410 Co402 2.055 . S
O410 C414 1.253 1_565 S
H411 C407 0.931 . S
H412 C408 0.930 . S
O413 Co402 2.039 . S
O413 C403 1.265 . S
C414 O410 1.253 1_545 S
C414 O415 1.227 . S
O415 C414 1.227 . S
N416 Co402 2.140 1_545 S
N416 C419 1.346 . S
N416 C420 1.345 . S
C417 C418 1.387 . S
C417 C421 1.391 . S
C418 C417 1.387 . S
C418 C419 1.369 . S
C418 H427 0.929 . S
C419 N416 1.346 . S
C419 C418 1.369 . S
C419 H422 0.928 1_545 S
C420 N416 1.345 . S
C420 C421 1.371 . S
C420 H423 0.931 . S
C421 C417 1.391 . S
C421 C420 1.371 . S
C421 H428 0.930 . S
H422 C419 0.928 1_565 S
H423 C420 0.931 . S
H424 C400 0.930 . S
H425 C397 0.930 . S
H426 C406 0.930 . S
H427 C418 0.929 . S
H428 C421 0.930 . S
C429 C430 1.351 . S
C429 N432 1.368 . S
C429 H434 0.931 . S
C430 C429 1.351 . S
C430 N431 1.373 . S
C430 H458 0.930 . S
N431 C430 1.373 . S
N431 C433 1.340 . S
N432 C429 1.368 . S
N432 C433 1.321 . S
N432 Co435 2.135 . S
C433 N431 1.340 . S
C433 N432 1.321 . S
C433 H457 0.930 . S
H434 C429 0.931 . S
Co435 N432 2.135 . S
Co435 N438 2.121 . S
Co435 O443 2.055 . S
Co435 O446 2.039 . S
Co435 N449 2.140 . S
C436 O437 1.227 . S
C436 O446 1.265 . S
O437 C436 1.227 . S
N438 Co435 2.121 . S
N438 C440 1.375 . S
N438 C441 1.313 . S
C439 C440 1.338 . S
C439 N442 1.377 . S
C439 H459 0.930 . S
C440 N438 1.375 . S
C440 C439 1.338 . S
C440 H444 0.931 . S
C441 N438 1.313 . S
C441 N442 1.344 . S
C441 H445 0.930 . S
N442 C439 1.377 . S
N442 C441 1.344 . S
O443 Co435 2.055 . S
O443 C447 1.253 . S
H444 C440 0.931 . S
H445 C441 0.930 . S
O446 Co435 2.039 . S
O446 C436 1.265 . S
C447 O443 1.253 . S
C447 O448 1.227 . S
O448 C447 1.227 . S
N449 Co435 2.140 . S
N449 C452 1.346 . S
N449 C453 1.345 . S
C450 C451 1.387 . S
C450 C454 1.391 . S
C451 C450 1.387 . S
C451 C452 1.369 . S
C451 H460 0.929 . S
C452 N449 1.346 . S
C452 C451 1.369 . S
C452 H455 0.928 . S
C453 N449 1.345 . S
C453 C454 1.371 . S
C453 H456 0.931 . S
C454 C450 1.391 . S
C454 C453 1.371 . S
C454 H461 0.930 . S
H455 C452 0.928 . S
H456 C453 0.931 . S
H457 C433 0.930 . S
H458 C430 0.930 . S
H459 C439 0.930 . S
H460 C451 0.929 . S
H461 C454 0.930 . S
C462 C463 1.351 . S
C462 N465 1.368 1_564 S
C462 H467 0.931 . S
C463 C462 1.351 . S
C463 N464 1.373 1_564 S
C463 H491 0.930 . S
N464 C463 1.373 1_546 S
N464 C466 1.340 . S
N465 C462 1.368 1_546 S
N465 C466 1.321 . S
N465 Co468 2.135 . S
C466 N464 1.340 . S
C466 N465 1.321 . S
C466 H490 0.930 . S
H467 C462 0.931 . S
Co468 N465 2.135 . S
Co468 N471 2.121 . S
Co468 O476 2.055 1_556 S
Co468 O479 2.039 . S
Co468 N482 2.140 1_545 S
C469 O470 1.227 . S
C469 O479 1.265 . S
O470 C469 1.227 . S
N471 Co468 2.121 . S
N471 C473 1.375 . S
N471 C474 1.313 . S
C472 C473 1.338 . S
C472 N475 1.377 . S
C472 H492 0.930 . S
C473 N471 1.375 . S
C473 C472 1.338 . S
C473 H477 0.931 . S
C474 N471 1.313 . S
C474 N475 1.344 . S
C474 H478 0.930 . S
N475 C472 1.377 . S
N475 C474 1.344 . S
O476 Co468 2.055 1_554 S
O476 C480 1.253 1_545 S
H477 C473 0.931 . S
H478 C474 0.930 . S
O479 Co468 2.039 . S
O479 C469 1.265 . S
C480 O476 1.253 1_565 S
C480 O481 1.227 1_554 S
O481 C480 1.227 1_556 S
N482 Co468 2.140 1_565 S
N482 C485 1.346 . S
N482 C486 1.345 . S
C483 C484 1.387 . S
C483 C487 1.391 . S
C484 C483 1.387 . S
C484 C485 1.369 . S
C484 H493 0.929 . S
C485 N482 1.346 . S
C485 C484 1.369 . S
C485 H488 0.928 1_565 S
C486 N482 1.345 . S
C486 C487 1.371 . S
C486 H489 0.931 . S
C487 C483 1.391 . S
C487 C486 1.371 . S
C487 H494 0.930 . S
H488 C485 0.928 1_545 S
H489 C486 0.931 . S
H490 C466 0.930 . S
H491 C463 0.930 . S
H492 C472 0.930 . S
H493 C484 0.929 . S
H494 C487 0.930 . S
C495 C496 1.351 . S
C495 N498 1.368 . S
C495 H500 0.931 . S
C496 C495 1.351 . S
C496 N497 1.373 . S
C496 H524 0.930 . S
N497 C496 1.373 . S
N497 C499 1.340 . S
N498 C495 1.368 . S
N498 C499 1.321 . S
N498 Co501 2.135 . S
C499 N497 1.340 . S
C499 N498 1.321 . S
C499 H523 0.930 . S
H500 C495 0.931 . S
Co501 N498 2.135 . S
Co501 N504 2.121 . S
Co501 O509 2.055 . S
Co501 O512 2.039 . S
Co501 N515 2.140 . S
C502 O503 1.227 . S
C502 O512 1.265 . S
O503 C502 1.227 . S
N504 Co501 2.121 . S
N504 C506 1.375 . S
N504 C507 1.313 . S
C505 C506 1.338 . S
C505 N508 1.377 . S
C505 H525 0.930 . S
C506 N504 1.375 . S
C506 C505 1.338 . S
C506 H510 0.931 . S
C507 N504 1.313 . S
C507 N508 1.344 . S
C507 H511 0.930 . S
N508 C505 1.377 . S
N508 C507 1.344 . S
O509 Co501 2.055 . S
O509 C513 1.253 . S
H510 C506 0.931 . S
H511 C507 0.930 . S
O512 Co501 2.039 . S
O512 C502 1.265 . S
C513 O509 1.253 . S
C513 O514 1.227 . S
O514 C513 1.227 . S
N515 Co501 2.140 . S
N515 C518 1.346 . S
N515 C519 1.345 . S
C516 C517 1.387 . S
C516 C520 1.391 . S
C517 C516 1.387 . S
C517 C518 1.369 . S
C517 H526 0.929 . S
C518 N515 1.346 . S
C518 C517 1.369 . S
C518 H521 0.928 . S
C519 N515 1.345 . S
C519 C520 1.371 . S
C519 H522 0.931 . S
C520 C516 1.391 . S
C520 C519 1.371 . S
C520 H527 0.930 . S
H521 C518 0.928 . S
H522 C519 0.931 . S
H523 C499 0.930 . S
H524 C496 0.930 . S
H525 C505 0.930 . S
H526 C517 0.929 . S
H527 C520 0.930 . S
C528 C529 1.351 . S
C528 N531 1.368 1_656 S
C528 H533 0.931 . S
C529 C528 1.351 . S
C529 N530 1.373 1_656 S
C529 H557 0.930 . S
N530 C529 1.373 1_454 S
N530 C532 1.340 . S
N531 C528 1.368 1_454 S
N531 C532 1.321 . S
N531 Co534 2.135 . S
C532 N530 1.340 . S
C532 N531 1.321 . S
C532 H556 0.930 . S
H533 C528 0.931 . S
Co534 N531 2.135 . S
Co534 N537 2.121 . S
Co534 O542 2.055 1_455 S
Co534 O545 2.039 . S
Co534 N548 2.140 1_554 S
C535 O536 1.227 . S
C535 O545 1.265 . S
O536 C535 1.227 . S
N537 Co534 2.121 . S
N537 C539 1.375 . S
N537 C540 1.313 . S
C538 C539 1.338 . S
C538 N541 1.377 . S
C538 H558 0.930 . S
C539 N537 1.375 . S
C539 C538 1.338 . S
C539 H543 0.931 . S
C540 N537 1.313 . S
C540 N541 1.344 . S
C540 H544 0.930 . S
N541 C538 1.377 . S
N541 C540 1.344 . S
O542 Co534 2.055 1_655 S
O542 C546 1.253 1_554 S
H543 C539 0.931 . S
H544 C540 0.930 . S
O545 Co534 2.039 . S
O545 C535 1.265 . S
C546 O542 1.253 1_556 S
C546 O547 1.227 1_655 S
O547 C546 1.227 1_455 S
N548 Co534 2.140 1_556 S
N548 C551 1.346 . S
N548 C552 1.345 . S
C549 C550 1.387 . S
C549 C553 1.391 . S
C550 C549 1.387 . S
C550 C551 1.369 . S
C550 H559 0.929 . S
C551 N548 1.346 . S
C551 C550 1.369 . S
C551 H554 0.928 1_556 S
C552 N548 1.345 . S
C552 C553 1.371 . S
C552 H555 0.931 . S
C553 C549 1.391 . S
C553 C552 1.371 . S
C553 H560 0.930 . S
H554 C551 0.928 1_554 S
H555 C552 0.931 . S
H556 C532 0.930 . S
H557 C529 0.930 . S
H558 C538 0.930 . S
H559 C550 0.929 . S
H560 C553 0.930 . S
C561 C562 1.351 . S
C561 N564 1.368 1_554 S
C561 H566 0.931 . S
C562 C561 1.351 . S
C562 N563 1.373 1_554 S
C562 H590 0.930 . S
N563 C562 1.373 1_556 S
N563 C565 1.340 . S
N564 C561 1.368 1_556 S
N564 C565 1.321 . S
N564 Co567 2.135 . S
C565 N563 1.340 . S
C565 N564 1.321 . S
C565 H589 0.930 . S
H566 C561 0.931 . S
Co567 N564 2.135 . S
Co567 N570 2.121 . S
Co567 O575 2.055 . S
Co567 O578 2.039 . S
Co567 N581 2.140 1_556 S
C568 O569 1.227 . S
C568 O578 1.265 . S
O569 C568 1.227 . S
N570 Co567 2.121 . S
N570 C572 1.375 . S
N570 C573 1.313 . S
C571 C572 1.338 . S
C571 N574 1.377 . S
C571 H591 0.930 . S
C572 N570 1.375 . S
C572 C571 1.338 . S
C572 H576 0.931 . S
C573 N570 1.313 . S
C573 N574 1.344 . S
C573 H577 0.930 . S
N574 C571 1.377 . S
N574 C573 1.344 . S
O575 Co567 2.055 . S
O575 C579 1.253 1_556 S
H576 C572 0.931 . S
H577 C573 0.930 . S
O578 Co567 2.039 . S
O578 C568 1.265 . S
C579 O575 1.253 1_554 S
C579 O580 1.227 . S
O580 C579 1.227 . S
N581 Co567 2.140 1_554 S
N581 C584 1.346 . S
N581 C585 1.345 . S
C582 C583 1.387 . S
C582 C586 1.391 . S
C583 C582 1.387 . S
C583 C584 1.369 . S
C583 H592 0.929 . S
C584 N581 1.346 . S
C584 C583 1.369 . S
C584 H587 0.928 1_554 S
C585 N581 1.345 . S
C585 C586 1.371 . S
C585 H588 0.931 . S
C586 C582 1.391 . S
C586 C585 1.371 . S
C586 H593 0.930 . S
H587 C584 0.928 1_556 S
H588 C585 0.931 . S
H589 C565 0.930 . S
H590 C562 0.930 . S
H591 C571 0.930 . S
H592 C583 0.929 . S
H593 C586 0.930 . S
C594 C595 1.351 . S
C594 N597 1.368 . S
C594 H599 0.931 . S
C595 C594 1.351 . S
C595 N596 1.373 . S
C595 H623 0.930 . S
N596 C595 1.373 . S
N596 C598 1.340 . S
N597 C594 1.368 . S
N597 C598 1.321 . S
N597 Co600 2.135 . S
C598 N596 1.340 . S
C598 N597 1.321 . S
C598 H622 0.930 . S
H599 C594 0.931 . S
Co600 N597 2.135 . S
Co600 N603 2.121 . S
Co600 O608 2.055 . S
Co600 O611 2.039 . S
Co600 N614 2.140 . S
C601 O602 1.227 . S
C601 O611 1.265 . S
O602 C601 1.227 . S
N603 Co600 2.121 . S
N603 C605 1.375 . S
N603 C606 1.313 . S
C604 C605 1.338 . S
C604 N607 1.377 . S
C604 H624 0.930 . S
C605 N603 1.375 . S
C605 C604 1.338 . S
C605 H609 0.931 . S
C606 N603 1.313 . S
C606 N607 1.344 . S
C606 H610 0.930 . S
N607 C604 1.377 . S
N607 C606 1.344 . S
O608 Co600 2.055 . S
O608 C612 1.253 . S
H609 C605 0.931 . S
H610 C606 0.930 . S
O611 Co600 2.039 . S
O611 C601 1.265 . S
C612 O608 1.253 . S
C612 O613 1.227 . S
O613 C612 1.227 . S
N614 Co600 2.140 . S
N614 C617 1.346 . S
N614 C618 1.345 . S
C615 C616 1.387 . S
C615 C619 1.391 . S
C616 C615 1.387 . S
C616 C617 1.369 . S
C616 H625 0.929 . S
C617 N614 1.346 . S
C617 C616 1.369 . S
C617 H620 0.928 . S
C618 N614 1.345 . S
C618 C619 1.371 . S
C618 H621 0.931 . S
C619 C615 1.391 . S
C619 C618 1.371 . S
C619 H626 0.930 . S
H620 C617 0.928 . S
H621 C618 0.931 . S
H622 C598 0.930 . S
H623 C595 0.930 . S
H624 C604 0.930 . S
H625 C616 0.929 . S
H626 C619 0.930 . S
C627 C628 1.351 . S
C627 N630 1.368 1_455 S
C627 H632 0.931 . S
C628 C627 1.351 . S
C628 N629 1.373 1_455 S
C628 H656 0.930 . S
N629 C628 1.373 1_655 S
N629 C631 1.340 . S
N630 C627 1.368 1_655 S
N630 C631 1.321 . S
N630 Co633 2.135 . S
C631 N629 1.340 . S
C631 N630 1.321 . S
C631 H655 0.930 . S
H632 C627 0.931 . S
Co633 N630 2.135 . S
Co633 N636 2.121 . S
Co633 O641 2.055 1_655 S
Co633 O644 2.039 . S
Co633 N647 2.140 . S
C634 O635 1.227 . S
C634 O644 1.265 . S
O635 C634 1.227 . S
N636 Co633 2.121 . S
N636 C638 1.375 . S
N636 C639 1.313 . S
C637 C638 1.338 . S
C637 N640 1.377 . S
C637 H657 0.930 . S
C638 N636 1.375 . S
C638 C637 1.338 . S
C638 H642 0.931 . S
C639 N636 1.313 . S
C639 N640 1.344 . S
C639 H643 0.930 . S
N640 C637 1.377 . S
N640 C639 1.344 . S
O641 Co633 2.055 1_455 S
O641 C645 1.253 . S
H642 C638 0.931 . S
H643 C639 0.930 . S
O644 Co633 2.039 . S
O644 C634 1.265 . S
C645 O641 1.253 . S
C645 O646 1.227 1_455 S
O646 C645 1.227 1_655 S
N647 Co633 2.140 . S
N647 C650 1.346 . S
N647 C651 1.345 . S
C648 C649 1.387 . S
C648 C652 1.391 . S
C649 C648 1.387 . S
C649 C650 1.369 . S
C649 H658 0.929 . S
C650 N647 1.346 . S
C650 C649 1.369 . S
C650 H653 0.928 . S
C651 N647 1.345 . S
C651 C652 1.371 . S
C651 H654 0.931 . S
C652 C648 1.391 . S
C652 C651 1.371 . S
C652 H659 0.930 . S
H653 C650 0.928 . S
H654 C651 0.931 . S
H655 C631 0.930 . S
H656 C628 0.930 . S
H657 C637 0.930 . S
H658 C649 0.929 . S
H659 C652 0.930 . S
C660 C661 1.351 . S
C660 N663 1.368 . S
C660 H665 0.931 . S
C661 C660 1.351 . S
C661 N662 1.373 . S
C661 H689 0.930 . S
N662 C661 1.373 . S
N662 C664 1.340 . S
N663 C660 1.368 . S
N663 C664 1.321 . S
N663 Co666 2.135 . S
C664 N662 1.340 . S
C664 N663 1.321 . S
C664 H688 0.930 . S
H665 C660 0.931 . S
Co666 N663 2.135 . S
Co666 N669 2.121 . S
Co666 O674 2.055 . S
Co666 O677 2.039 . S
Co666 N680 2.140 . S
C667 O668 1.227 . S
C667 O677 1.265 . S
O668 C667 1.227 . S
N669 Co666 2.121 . S
N669 C671 1.375 . S
N669 C672 1.313 . S
C670 C671 1.338 . S
C670 N673 1.377 . S
C670 H690 0.930 . S
C671 N669 1.375 . S
C671 C670 1.338 . S
C671 H675 0.931 . S
C672 N669 1.313 . S
C672 N673 1.344 . S
C672 H676 0.930 . S
N673 C670 1.377 . S
N673 C672 1.344 . S
O674 Co666 2.055 . S
O674 C678 1.253 . S
H675 C671 0.931 . S
H676 C672 0.930 . S
O677 Co666 2.039 . S
O677 C667 1.265 . S
C678 O674 1.253 . S
C678 O679 1.227 . S
O679 C678 1.227 . S
N680 Co666 2.140 . S
N680 C683 1.346 . S
N680 C684 1.345 . S
C681 C682 1.387 . S
C681 C685 1.391 . S
C682 C681 1.387 . S
C682 C683 1.369 . S
C682 H691 0.929 . S
C683 N680 1.346 . S
C683 C682 1.369 . S
C683 H686 0.928 . S
C684 N680 1.345 . S
C684 C685 1.371 . S
C684 H687 0.931 . S
C685 C681 1.391 . S
C685 C684 1.371 . S
C685 H692 0.930 . S
H686 C683 0.928 . S
H687 C684 0.931 . S
H688 C664 0.930 . S
H689 C661 0.930 . S
H690 C670 0.930 . S
H691 C682 0.929 . S
H692 C685 0.930 . S
C693 C694 1.351 . S
C693 N696 1.368 . S
C693 H698 0.931 . S
C694 C693 1.351 . S
C694 N695 1.373 . S
C694 H722 0.930 . S
N695 C694 1.373 . S
N695 C697 1.340 . S
N696 C693 1.368 . S
N696 C697 1.321 . S
N696 Co699 2.135 . S
C697 N695 1.340 . S
C697 N696 1.321 . S
C697 H721 0.930 . S
H698 C693 0.931 . S
Co699 N696 2.135 . S
Co699 N702 2.121 . S
Co699 O707 2.055 . S
Co699 O710 2.039 . S
Co699 N713 2.140 . S
C700 O701 1.227 . S
C700 O710 1.265 . S
O701 C700 1.227 . S
N702 Co699 2.121 . S
N702 C704 1.375 . S
N702 C705 1.313 . S
C703 C704 1.338 . S
C703 N706 1.377 . S
C703 H723 0.930 . S
C704 N702 1.375 . S
C704 C703 1.338 . S
C704 H708 0.931 . S
C705 N702 1.313 . S
C705 N706 1.344 . S
C705 H709 0.930 . S
N706 C703 1.377 . S
N706 C705 1.344 . S
O707 Co699 2.055 . S
O707 C711 1.253 . S
H708 C704 0.931 . S
H709 C705 0.930 . S
O710 Co699 2.039 . S
O710 C700 1.265 . S
C711 O707 1.253 . S
C711 O712 1.227 . S
O712 C711 1.227 . S
N713 Co699 2.140 . S
N713 C716 1.346 . S
N713 C717 1.345 . S
C714 C715 1.387 . S
C714 C718 1.391 . S
C715 C714 1.387 . S
C715 C716 1.369 . S
C715 H724 0.929 . S
C716 N713 1.346 . S
C716 C715 1.369 . S
C716 H719 0.928 . S
C717 N713 1.345 . S
C717 C718 1.371 . S
C717 H720 0.931 . S
C718 C714 1.391 . S
C718 C717 1.371 . S
C718 H725 0.930 . S
H719 C716 0.928 . S
H720 C717 0.931 . S
H721 C697 0.930 . S
H722 C694 0.930 . S
H723 C703 0.930 . S
H724 C715 0.929 . S
H725 C718 0.930 . S
C726 C727 1.351 . S
C726 N729 1.368 . S
C726 H731 0.931 . S
C727 C726 1.351 . S
C727 N728 1.373 . S
C727 H755 0.930 . S
N728 C727 1.373 . S
N728 C730 1.340 . S
N729 C726 1.368 . S
N729 C730 1.321 . S
N729 Co732 2.135 . S
C730 N728 1.340 . S
C730 N729 1.321 . S
C730 H754 0.930 . S
H731 C726 0.931 . S
Co732 N729 2.135 . S
Co732 N735 2.121 . S
Co732 O740 2.055 . S
Co732 O743 2.039 . S
Co732 N746 2.140 . S
C733 O734 1.227 . S
C733 O743 1.265 . S
O734 C733 1.227 . S
N735 Co732 2.121 . S
N735 C737 1.375 . S
N735 C738 1.313 . S
C736 C737 1.338 . S
C736 N739 1.377 . S
C736 H756 0.930 . S
C737 N735 1.375 . S
C737 C736 1.338 . S
C737 H741 0.931 . S
C738 N735 1.313 . S
C738 N739 1.344 . S
C738 H742 0.930 . S
N739 C736 1.377 . S
N739 C738 1.344 . S
O740 Co732 2.055 . S
O740 C744 1.253 . S
H741 C737 0.931 . S
H742 C738 0.930 . S
O743 Co732 2.039 . S
O743 C733 1.265 . S
C744 O740 1.253 . S
C744 O745 1.227 . S
O745 C744 1.227 . S
N746 Co732 2.140 . S
N746 C749 1.346 . S
N746 C750 1.345 . S
C747 C748 1.387 . S
C747 C751 1.391 . S
C748 C747 1.387 . S
C748 C749 1.369 . S
C748 H757 0.929 . S
C749 N746 1.346 . S
C749 C748 1.369 . S
C749 H752 0.928 . S
C750 N746 1.345 . S
C750 C751 1.371 . S
C750 H753 0.931 . S
C751 C747 1.391 . S
C751 C750 1.371 . S
C751 H758 0.930 . S
H752 C749 0.928 . S
H753 C750 0.931 . S
H754 C730 0.930 . S
H755 C727 0.930 . S
H756 C736 0.930 . S
H757 C748 0.929 . S
H758 C751 0.930 . S
C759 C760 1.351 . S
C759 N762 1.368 . S
C759 H764 0.931 . S
C760 C759 1.351 . S
C760 N761 1.373 . S
C760 H788 0.930 . S
N761 C760 1.373 . S
N761 C763 1.340 . S
N762 C759 1.368 . S
N762 C763 1.321 . S
N762 Co765 2.135 . S
C763 N761 1.340 . S
C763 N762 1.321 . S
C763 H787 0.930 . S
H764 C759 0.931 . S
Co765 N762 2.135 . S
Co765 N768 2.121 . S
Co765 O773 2.055 . S
Co765 O776 2.039 . S
Co765 N779 2.140 . S
C766 O767 1.227 . S
C766 O776 1.265 . S
O767 C766 1.227 . S
N768 Co765 2.121 . S
N768 C770 1.375 . S
N768 C771 1.313 . S
C769 C770 1.338 . S
C769 N772 1.377 . S
C769 H789 0.930 . S
C770 N768 1.375 . S
C770 C769 1.338 . S
C770 H774 0.931 . S
C771 N768 1.313 . S
C771 N772 1.344 . S
C771 H775 0.930 . S
N772 C769 1.377 . S
N772 C771 1.344 . S
O773 Co765 2.055 . S
O773 C777 1.253 . S
H774 C770 0.931 . S
H775 C771 0.930 . S
O776 Co765 2.039 . S
O776 C766 1.265 . S
C777 O773 1.253 . S
C777 O778 1.227 . S
O778 C777 1.227 . S
N779 Co765 2.140 . S
N779 C782 1.346 . S
N779 C783 1.345 . S
C780 C781 1.387 . S
C780 C784 1.391 . S
C781 C780 1.387 . S
C781 C782 1.369 . S
C781 H790 0.929 . S
C782 N779 1.346 . S
C782 C781 1.369 . S
C782 H785 0.928 . S
C783 N779 1.345 . S
C783 C784 1.371 . S
C783 H786 0.931 . S
C784 C780 1.391 . S
C784 C783 1.371 . S
C784 H791 0.930 . S
H785 C782 0.928 . S
H786 C783 0.931 . S
H787 C763 0.930 . S
H788 C760 0.930 . S
H789 C769 0.930 . S
H790 C781 0.929 . S
H791 C784 0.930 . S
C792 C793 1.351 . S
C792 N795 1.368 . S
C792 H797 0.931 . S
C793 C792 1.351 . S
C793 N794 1.373 . S
C793 H821 0.930 . S
N794 C793 1.373 . S
N794 C796 1.340 . S
N795 C792 1.368 . S
N795 C796 1.321 . S
N795 Co798 2.135 . S
C796 N794 1.340 . S
C796 N795 1.321 . S
C796 H820 0.930 . S
H797 C792 0.931 . S
Co798 N795 2.135 . S
Co798 N801 2.121 . S
Co798 O806 2.055 . S
Co798 O809 2.039 . S
Co798 N812 2.140 . S
C799 O800 1.227 . S
C799 O809 1.265 . S
O800 C799 1.227 . S
N801 Co798 2.121 . S
N801 C803 1.375 . S
N801 C804 1.313 . S
C802 C803 1.338 . S
C802 N805 1.377 . S
C802 H822 0.930 . S
C803 N801 1.375 . S
C803 C802 1.338 . S
C803 H807 0.931 . S
C804 N801 1.313 . S
C804 N805 1.344 . S
C804 H808 0.930 . S
N805 C802 1.377 . S
N805 C804 1.344 . S
O806 Co798 2.055 . S
O806 C810 1.253 . S
H807 C803 0.931 . S
H808 C804 0.930 . S
O809 Co798 2.039 . S
O809 C799 1.265 . S
C810 O806 1.253 . S
C810 O811 1.227 . S
O811 C810 1.227 . S
N812 Co798 2.140 . S
N812 C815 1.346 . S
N812 C816 1.345 . S
C813 C814 1.387 . S
C813 C817 1.391 . S
C814 C813 1.387 . S
C814 C815 1.369 . S
C814 H823 0.929 . S
C815 N812 1.346 . S
C815 C814 1.369 . S
C815 H818 0.928 . S
C816 N812 1.345 . S
C816 C817 1.371 . S
C816 H819 0.931 . S
C817 C813 1.391 . S
C817 C816 1.371 . S
C817 H824 0.930 . S
H818 C815 0.928 . S
H819 C816 0.931 . S
H820 C796 0.930 . S
H821 C793 0.930 . S
H822 C802 0.930 . S
H823 C814 0.929 . S
H824 C817 0.930 . S
C825 C826 1.351 . S
C825 N828 1.368 . S
C825 H830 0.931 . S
C826 C825 1.351 . S
C826 N827 1.373 . S
C826 H854 0.930 . S
N827 C826 1.373 . S
N827 C829 1.340 . S
N828 C825 1.368 . S
N828 C829 1.321 . S
N828 Co831 2.135 . S
C829 N827 1.340 . S
C829 N828 1.321 . S
C829 H853 0.930 . S
H830 C825 0.931 . S
Co831 N828 2.135 . S
Co831 N834 2.121 . S
Co831 O839 2.055 . S
Co831 O842 2.039 . S
Co831 N845 2.140 . S
C832 O833 1.227 . S
C832 O842 1.265 . S
O833 C832 1.227 . S
N834 Co831 2.121 . S
N834 C836 1.375 . S
N834 C837 1.313 . S
C835 C836 1.338 . S
C835 N838 1.377 . S
C835 H855 0.930 . S
C836 N834 1.375 . S
C836 C835 1.338 . S
C836 H840 0.931 . S
C837 N834 1.313 . S
C837 N838 1.344 . S
C837 H841 0.930 . S
N838 C835 1.377 . S
N838 C837 1.344 . S
O839 Co831 2.055 . S
O839 C843 1.253 . S
H840 C836 0.931 . S
H841 C837 0.930 . S
O842 Co831 2.039 . S
O842 C832 1.265 . S
C843 O839 1.253 . S
C843 O844 1.227 . S
O844 C843 1.227 . S
N845 Co831 2.140 . S
N845 C848 1.346 . S
N845 C849 1.345 . S
C846 C847 1.387 . S
C846 C850 1.391 . S
C847 C846 1.387 . S
C847 C848 1.369 . S
C847 H856 0.929 . S
C848 N845 1.346 . S
C848 C847 1.369 . S
C848 H851 0.928 . S
C849 N845 1.345 . S
C849 C850 1.371 . S
C849 H852 0.931 . S
C850 C846 1.391 . S
C850 C849 1.371 . S
C850 H857 0.930 . S
H851 C848 0.928 . S
H852 C849 0.931 . S
H853 C829 0.930 . S
H854 C826 0.930 . S
H855 C835 0.930 . S
H856 C847 0.929 . S
H857 C850 0.930 . S
C858 C859 1.351 . S
C858 N861 1.368 1_455 S
C858 H863 0.931 . S
C859 C858 1.351 . S
C859 N860 1.373 1_455 S
C859 H887 0.930 . S
N860 C859 1.373 1_655 S
N860 C862 1.340 . S
N861 C858 1.368 1_655 S
N861 C862 1.321 . S
N861 Co864 2.135 . S
C862 N860 1.340 . S
C862 N861 1.321 . S
C862 H886 0.930 . S
H863 C858 0.931 . S
Co864 N861 2.135 . S
Co864 N867 2.121 . S
Co864 O872 2.055 . S
Co864 O875 2.039 . S
Co864 N878 2.140 1_655 S
C865 O866 1.227 . S
C865 O875 1.265 . S
O866 C865 1.227 . S
N867 Co864 2.121 . S
N867 C869 1.375 . S
N867 C870 1.313 . S
C868 C869 1.338 . S
C868 N871 1.377 . S
C868 H888 0.930 . S
C869 N867 1.375 . S
C869 C868 1.338 . S
C869 H873 0.931 . S
C870 N867 1.313 . S
C870 N871 1.344 . S
C870 H874 0.930 . S
N871 C868 1.377 . S
N871 C870 1.344 . S
O872 Co864 2.055 . S
O872 C876 1.253 1_655 S
H873 C869 0.931 . S
H874 C870 0.930 . S
O875 Co864 2.039 . S
O875 C865 1.265 . S
C876 O872 1.253 1_455 S
C876 O877 1.227 . S
O877 C876 1.227 . S
N878 Co864 2.140 1_455 S
N878 C881 1.346 . S
N878 C882 1.345 . S
C879 C880 1.387 . S
C879 C883 1.391 . S
C880 C879 1.387 . S
C880 C881 1.369 . S
C880 H889 0.929 . S
C881 N878 1.346 . S
C881 C880 1.369 . S
C881 H884 0.928 1_455 S
C882 N878 1.345 . S
C882 C883 1.371 . S
C882 H885 0.931 . S
C883 C879 1.391 . S
C883 C882 1.371 . S
C883 H890 0.930 . S
H884 C881 0.928 1_655 S
H885 C882 0.931 . S
H886 C862 0.930 . S
H887 C859 0.930 . S
H888 C868 0.930 . S
H889 C880 0.929 . S
H890 C883 0.930 . S
C891 C892 1.351 . S
C891 N894 1.368 . S
C891 H896 0.931 . S
C892 C891 1.351 . S
C892 N893 1.373 . S
C892 H920 0.930 . S
N893 C892 1.373 . S
N893 C895 1.340 . S
N894 C891 1.368 . S
N894 C895 1.321 . S
N894 Co897 2.135 . S
C895 N893 1.340 . S
C895 N894 1.321 . S
C895 H919 0.930 . S
H896 C891 0.931 . S
Co897 N894 2.135 . S
Co897 N900 2.121 . S
Co897 O905 2.055 . S
Co897 O908 2.039 . S
Co897 N911 2.140 . S
C898 O899 1.227 . S
C898 O908 1.265 . S
O899 C898 1.227 . S
N900 Co897 2.121 . S
N900 C902 1.375 . S
N900 C903 1.313 . S
C901 C902 1.338 . S
C901 N904 1.377 . S
C901 H921 0.930 . S
C902 N900 1.375 . S
C902 C901 1.338 . S
C902 H906 0.931 . S
C903 N900 1.313 . S
C903 N904 1.344 . S
C903 H907 0.930 . S
N904 C901 1.377 . S
N904 C903 1.344 . S
O905 Co897 2.055 . S
O905 C909 1.253 . S
H906 C902 0.931 . S
H907 C903 0.930 . S
O908 Co897 2.039 . S
O908 C898 1.265 . S
C909 O905 1.253 . S
C909 O910 1.227 . S
O910 C909 1.227 . S
N911 Co897 2.140 . S
N911 C914 1.346 . S
N911 C915 1.345 . S
C912 C913 1.387 . S
C912 C916 1.391 . S
C913 C912 1.387 . S
C913 C914 1.369 . S
C913 H922 0.929 . S
C914 N911 1.346 . S
C914 C913 1.369 . S
C914 H917 0.928 . S
C915 N911 1.345 . S
C915 C916 1.371 . S
C915 H918 0.931 . S
C916 C912 1.391 . S
C916 C915 1.371 . S
C916 H923 0.930 . S
H917 C914 0.928 . S
H918 C915 0.931 . S
H919 C895 0.930 . S
H920 C892 0.930 . S
H921 C901 0.930 . S
H922 C913 0.929 . S
H923 C916 0.930 . S
C924 C925 1.351 . S
C924 N927 1.368 . S
C924 H929 0.931 . S
C925 C924 1.351 . S
C925 N926 1.373 . S
C925 H953 0.930 . S
N926 C925 1.373 . S
N926 C928 1.340 . S
N927 C924 1.368 . S
N927 C928 1.321 . S
N927 Co930 2.135 . S
C928 N926 1.340 . S
C928 N927 1.321 . S
C928 H952 0.930 . S
H929 C924 0.931 . S
Co930 N927 2.135 . S
Co930 N933 2.121 . S
Co930 O938 2.055 . S
Co930 O941 2.039 . S
Co930 N944 2.140 . S
C931 O932 1.227 . S
C931 O941 1.265 . S
O932 C931 1.227 . S
N933 Co930 2.121 . S
N933 C935 1.375 . S
N933 C936 1.313 . S
C934 C935 1.338 . S
C934 N937 1.377 . S
C934 H954 0.930 . S
C935 N933 1.375 . S
C935 C934 1.338 . S
C935 H939 0.931 . S
C936 N933 1.313 . S
C936 N937 1.344 . S
C936 H940 0.930 . S
N937 C934 1.377 . S
N937 C936 1.344 . S
O938 Co930 2.055 . S
O938 C942 1.253 . S
H939 C935 0.931 . S
H940 C936 0.930 . S
O941 Co930 2.039 . S
O941 C931 1.265 . S
C942 O938 1.253 . S
C942 O943 1.227 . S
O943 C942 1.227 . S
N944 Co930 2.140 . S
N944 C947 1.346 . S
N944 C948 1.345 . S
C945 C946 1.387 . S
C945 C949 1.391 . S
C946 C945 1.387 . S
C946 C947 1.369 . S
C946 H955 0.929 . S
C947 N944 1.346 . S
C947 C946 1.369 . S
C947 H950 0.928 . S
C948 N944 1.345 . S
C948 C949 1.371 . S
C948 H951 0.931 . S
C949 C945 1.391 . S
C949 C948 1.371 . S
C949 H956 0.930 . S
H950 C947 0.928 . S
H951 C948 0.931 . S
H952 C928 0.930 . S
H953 C925 0.930 . S
H954 C934 0.930 . S
H955 C946 0.929 . S
H956 C949 0.930 . S
C957 C958 1.351 . S
C957 N960 1.368 . S
C957 H962 0.931 . S
C958 C957 1.351 . S
C958 N959 1.373 . S
C958 H986 0.930 . S
N959 C958 1.373 . S
N959 C961 1.340 . S
N960 C957 1.368 . S
N960 C961 1.321 . S
N960 Co963 2.135 . S
C961 N959 1.340 . S
C961 N960 1.321 . S
C961 H985 0.930 . S
H962 C957 0.931 . S
Co963 N960 2.135 . S
Co963 N966 2.121 . S
Co963 O971 2.055 . S
Co963 O974 2.039 . S
Co963 N977 2.140 . S
C964 O965 1.227 . S
C964 O974 1.265 . S
O965 C964 1.227 . S
N966 Co963 2.121 . S
N966 C968 1.375 . S
N966 C969 1.313 . S
C967 C968 1.338 . S
C967 N970 1.377 . S
C967 H987 0.930 . S
C968 N966 1.375 . S
C968 C967 1.338 . S
C968 H972 0.931 . S
C969 N966 1.313 . S
C969 N970 1.344 . S
C969 H973 0.930 . S
N970 C967 1.377 . S
N970 C969 1.344 . S
O971 Co963 2.055 . S
O971 C975 1.253 . S
H972 C968 0.931 . S
H973 C969 0.930 . S
O974 Co963 2.039 . S
O974 C964 1.265 . S
C975 O971 1.253 . S
C975 O976 1.227 . S
O976 C975 1.227 . S
N977 Co963 2.140 . S
N977 C980 1.346 . S
N977 C981 1.345 . S
C978 C979 1.387 . S
C978 C982 1.391 . S
C979 C978 1.387 . S
C979 C980 1.369 . S
C979 H988 0.929 . S
C980 N977 1.346 . S
C980 C979 1.369 . S
C980 H983 0.928 . S
C981 N977 1.345 . S
C981 C982 1.371 . S
C981 H984 0.931 . S
C982 C978 1.391 . S
C982 C981 1.371 . S
C982 H989 0.930 . S
H983 C980 0.928 . S
H984 C981 0.931 . S
H985 C961 0.930 . S
H986 C958 0.930 . S
H987 C967 0.930 . S
H988 C979 0.929 . S
H989 C982 0.930 . S
C990 C991 1.351 . S
C990 N993 1.368 1_455 S
C990 H995 0.931 . S
C991 C990 1.351 . S
C991 N992 1.373 1_455 S
C991 H1019 0.930 . S
N992 C991 1.373 1_655 S
N992 C994 1.340 . S
N993 C990 1.368 1_655 S
N993 C994 1.321 . S
N993 Co996 2.135 . S
C994 N992 1.340 . S
C994 N993 1.321 . S
C994 H1018 0.930 . S
H995 C990 0.931 . S
Co996 N993 2.135 . S
Co996 N999 2.121 . S
Co996 O1004 2.055 . S
Co996 O1007 2.039 . S
Co996 N1010 2.140 1_655 S
C997 O998 1.227 . S
C997 O1007 1.265 . S
O998 C997 1.227 . S
N999 Co996 2.121 . S
N999 C1001 1.375 . S
N999 C1002 1.313 . S
C1000 C1001 1.338 . S
C1000 N1003 1.377 . S
C1000 H1020 0.930 . S
C1001 N999 1.375 . S
C1001 C1000 1.338 . S
C1001 H1005 0.931 . S
C1002 N999 1.313 . S
C1002 N1003 1.344 . S
C1002 H1006 0.930 . S
N1003 C1000 1.377 . S
N1003 C1002 1.344 . S
O1004 Co996 2.055 . S
O1004 C1008 1.253 1_655 S
H1005 C1001 0.931 . S
H1006 C1002 0.930 . S
O1007 Co996 2.039 . S
O1007 C997 1.265 . S
C1008 O1004 1.253 1_455 S
C1008 O1009 1.227 . S
O1009 C1008 1.227 . S
N1010 Co996 2.140 1_455 S
N1010 C1013 1.346 . S
N1010 C1014 1.345 . S
C1011 C1012 1.387 . S
C1011 C1015 1.391 . S
C1012 C1011 1.387 . S
C1012 C1013 1.369 . S
C1012 H1021 0.929 . S
C1013 N1010 1.346 . S
C1013 C1012 1.369 . S
C1013 H1016 0.928 1_455 S
C1014 N1010 1.345 . S
C1014 C1015 1.371 . S
C1014 H1017 0.931 . S
C1015 C1011 1.391 . S
C1015 C1014 1.371 . S
C1015 H1022 0.930 . S
H1016 C1013 0.928 1_655 S
H1017 C1014 0.931 . S
H1018 C994 0.930 . S
H1019 C991 0.930 . S
H1020 C1000 0.930 . S
H1021 C1012 0.929 . S
H1022 C1015 0.930 . S
C1023 C1024 1.351 . S
C1023 N1026 1.368 . S
C1023 H1028 0.931 . S
C1024 C1023 1.351 . S
C1024 N1025 1.373 . S
C1024 H1052 0.930 . S
N1025 C1024 1.373 . S
N1025 C1027 1.340 . S
N1026 C1023 1.368 . S
N1026 C1027 1.321 . S
N1026 Co1029 2.135 . S
C1027 N1025 1.340 . S
C1027 N1026 1.321 . S
C1027 H1051 0.930 . S
H1028 C1023 0.931 . S
Co1029 N1026 2.135 . S
Co1029 N1032 2.121 . S
Co1029 O1037 2.055 . S
Co1029 O1040 2.039 . S
Co1029 N1043 2.140 . S
C1030 O1031 1.227 . S
C1030 O1040 1.265 . S
O1031 C1030 1.227 . S
N1032 Co1029 2.121 . S
N1032 C1034 1.375 . S
N1032 C1035 1.313 . S
C1033 C1034 1.338 . S
C1033 N1036 1.377 . S
C1033 H1053 0.930 . S
C1034 N1032 1.375 . S
C1034 C1033 1.338 . S
C1034 H1038 0.931 . S
C1035 N1032 1.313 . S
C1035 N1036 1.344 . S
C1035 H1039 0.930 . S
N1036 C1033 1.377 . S
N1036 C1035 1.344 . S
O1037 Co1029 2.055 . S
O1037 C1041 1.253 . S
H1038 C1034 0.931 . S
H1039 C1035 0.930 . S
O1040 Co1029 2.039 . S
O1040 C1030 1.265 . S
C1041 O1037 1.253 . S
C1041 O1042 1.227 . S
O1042 C1041 1.227 . S
N1043 Co1029 2.140 . S
N1043 C1046 1.346 . S
N1043 C1047 1.345 . S
C1044 C1045 1.387 . S
C1044 C1048 1.391 . S
C1045 C1044 1.387 . S
C1045 C1046 1.369 . S
C1045 H1054 0.929 . S
C1046 N1043 1.346 . S
C1046 C1045 1.369 . S
C1046 H1049 0.928 . S
C1047 N1043 1.345 . S
C1047 C1048 1.371 . S
C1047 H1050 0.931 . S
C1048 C1044 1.391 . S
C1048 C1047 1.371 . S
C1048 H1055 0.930 . S
H1049 C1046 0.928 . S
H1050 C1047 0.931 . S
H1051 C1027 0.930 . S
H1052 C1024 0.930 . S
H1053 C1033 0.930 . S
H1054 C1045 0.929 . S
H1055 C1048 0.930 . S
C1056 C1057 1.351 . S
C1056 N1059 1.368 . S
C1056 H1061 0.931 . S
C1057 C1056 1.351 . S
C1057 N1058 1.373 . S
C1057 H1085 0.930 . S
N1058 C1057 1.373 . S
N1058 C1060 1.340 . S
N1059 C1056 1.368 . S
N1059 C1060 1.321 . S
N1059 Co1062 2.135 . S
C1060 N1058 1.340 . S
C1060 N1059 1.321 . S
C1060 H1084 0.930 . S
H1061 C1056 0.931 . S
Co1062 N1059 2.135 . S
Co1062 N1065 2.121 . S
Co1062 O1070 2.055 . S
Co1062 O1073 2.039 . S
Co1062 N1076 2.140 . S
C1063 O1064 1.227 . S
C1063 O1073 1.265 . S
O1064 C1063 1.227 . S
N1065 Co1062 2.121 . S
N1065 C1067 1.375 . S
N1065 C1068 1.313 . S
C1066 C1067 1.338 . S
C1066 N1069 1.377 . S
C1066 H1086 0.930 . S
C1067 N1065 1.375 . S
C1067 C1066 1.338 . S
C1067 H1071 0.931 . S
C1068 N1065 1.313 . S
C1068 N1069 1.344 . S
C1068 H1072 0.930 . S
N1069 C1066 1.377 . S
N1069 C1068 1.344 . S
O1070 Co1062 2.055 . S
O1070 C1074 1.253 . S
H1071 C1067 0.931 . S
H1072 C1068 0.930 . S
O1073 Co1062 2.039 . S
O1073 C1063 1.265 . S
C1074 O1070 1.253 . S
C1074 O1075 1.227 . S
O1075 C1074 1.227 . S
N1076 Co1062 2.140 . S
N1076 C1079 1.346 . S
N1076 C1080 1.345 . S
C1077 C1078 1.387 . S
C1077 C1081 1.391 . S
C1078 C1077 1.387 . S
C1078 C1079 1.369 . S
C1078 H1087 0.929 . S
C1079 N1076 1.346 . S
C1079 C1078 1.369 . S
C1079 H1082 0.928 . S
C1080 N1076 1.345 . S
C1080 C1081 1.371 . S
C1080 H1083 0.931 . S
C1081 C1077 1.391 . S
C1081 C1080 1.371 . S
C1081 H1088 0.930 . S
H1082 C1079 0.928 . S
H1083 C1080 0.931 . S
H1084 C1060 0.930 . S
H1085 C1057 0.930 . S
H1086 C1066 0.930 . S
H1087 C1078 0.929 . S
H1088 C1081 0.930 . S
C1089 C1090 1.351 . S
C1089 N1092 1.368 . S
C1089 H1094 0.931 . S
C1090 C1089 1.351 . S
C1090 N1091 1.373 . S
C1090 H1118 0.930 . S
N1091 C1090 1.373 . S
N1091 C1093 1.340 . S
N1092 C1089 1.368 . S
N1092 C1093 1.321 . S
N1092 Co1095 2.135 . S
C1093 N1091 1.340 . S
C1093 N1092 1.321 . S
C1093 H1117 0.930 . S
H1094 C1089 0.931 . S
Co1095 N1092 2.135 . S
Co1095 N1098 2.121 . S
Co1095 O1103 2.055 . S
Co1095 O1106 2.039 . S
Co1095 N1109 2.140 . S
C1096 O1097 1.227 . S
C1096 O1106 1.265 . S
O1097 C1096 1.227 . S
N1098 Co1095 2.121 . S
N1098 C1100 1.375 . S
N1098 C1101 1.313 . S
C1099 C1100 1.338 . S
C1099 N1102 1.377 . S
C1099 H1119 0.930 . S
C1100 N1098 1.375 . S
C1100 C1099 1.338 . S
C1100 H1104 0.931 . S
C1101 N1098 1.313 . S
C1101 N1102 1.344 . S
C1101 H1105 0.930 . S
N1102 C1099 1.377 . S
N1102 C1101 1.344 . S
O1103 Co1095 2.055 . S
O1103 C1107 1.253 . S
H1104 C1100 0.931 . S
H1105 C1101 0.930 . S
O1106 Co1095 2.039 . S
O1106 C1096 1.265 . S
C1107 O1103 1.253 . S
C1107 O1108 1.227 . S
O1108 C1107 1.227 . S
N1109 Co1095 2.140 . S
N1109 C1112 1.346 . S
N1109 C1113 1.345 . S
C1110 C1111 1.387 . S
C1110 C1114 1.391 . S
C1111 C1110 1.387 . S
C1111 C1112 1.369 . S
C1111 H1120 0.929 . S
C1112 N1109 1.346 . S
C1112 C1111 1.369 . S
C1112 H1115 0.928 . S
C1113 N1109 1.345 . S
C1113 C1114 1.371 . S
C1113 H1116 0.931 . S
C1114 C1110 1.391 . S
C1114 C1113 1.371 . S
C1114 H1121 0.930 . S
H1115 C1112 0.928 . S
H1116 C1113 0.931 . S
H1117 C1093 0.930 . S
H1118 C1090 0.930 . S
H1119 C1099 0.930 . S
H1120 C1111 0.929 . S
H1121 C1114 0.930 . S
C1122 C1123 1.351 . S
C1122 N1125 1.368 1_556 S
C1122 H1127 0.931 . S
C1123 C1122 1.351 . S
C1123 N1124 1.373 1_556 S
C1123 H1151 0.930 . S
N1124 C1123 1.373 1_554 S
N1124 C1126 1.340 . S
N1125 C1122 1.368 1_554 S
N1125 C1126 1.321 . S
N1125 Co1128 2.135 . S
C1126 N1124 1.340 . S
C1126 N1125 1.321 . S
C1126 H1150 0.930 . S
H1127 C1122 0.931 . S
Co1128 N1125 2.135 . S
Co1128 N1131 2.121 . S
Co1128 O1136 2.055 1_554 S
Co1128 O1139 2.039 . S
Co1128 N1142 2.140 . S
C1129 O1130 1.227 . S
C1129 O1139 1.265 . S
O1130 C1129 1.227 . S
N1131 Co1128 2.121 . S
N1131 C1133 1.375 . S
N1131 C1134 1.313 . S
C1132 C1133 1.338 . S
C1132 N1135 1.377 . S
C1132 H1152 0.930 . S
C1133 N1131 1.375 . S
C1133 C1132 1.338 . S
C1133 H1137 0.931 . S
C1134 N1131 1.313 . S
C1134 N1135 1.344 . S
C1134 H1138 0.930 . S
N1135 C1132 1.377 . S
N1135 C1134 1.344 . S
O1136 Co1128 2.055 1_556 S
O1136 C1140 1.253 . S
H1137 C1133 0.931 . S
H1138 C1134 0.930 . S
O1139 Co1128 2.039 . S
O1139 C1129 1.265 . S
C1140 O1136 1.253 . S
C1140 O1141 1.227 1_556 S
O1141 C1140 1.227 1_554 S
N1142 Co1128 2.140 . S
N1142 C1145 1.346 . S
N1142 C1146 1.345 . S
C1143 C1144 1.387 . S
C1143 C1147 1.391 . S
C1144 C1143 1.387 . S
C1144 C1145 1.369 . S
C1144 H1153 0.929 . S
C1145 N1142 1.346 . S
C1145 C1144 1.369 . S
C1145 H1148 0.928 . S
C1146 N1142 1.345 . S
C1146 C1147 1.371 . S
C1146 H1149 0.931 . S
C1147 C1143 1.391 . S
C1147 C1146 1.371 . S
C1147 H1154 0.930 . S
H1148 C1145 0.928 . S
H1149 C1146 0.931 . S
H1150 C1126 0.930 . S
H1151 C1123 0.930 . S
H1152 C1132 0.930 . S
H1153 C1144 0.929 . S
H1154 C1147 0.930 . S
C1155 C1156 1.351 . S
C1155 N1158 1.368 . S
C1155 H1160 0.931 . S
C1156 C1155 1.351 . S
C1156 N1157 1.373 . S
C1156 H1184 0.930 . S
N1157 C1156 1.373 . S
N1157 C1159 1.340 . S
N1158 C1155 1.368 . S
N1158 C1159 1.321 . S
N1158 Co1161 2.135 . S
C1159 N1157 1.340 . S
C1159 N1158 1.321 . S
C1159 H1183 0.930 . S
H1160 C1155 0.931 . S
Co1161 N1158 2.135 . S
Co1161 N1164 2.121 . S
Co1161 O1169 2.055 . S
Co1161 O1172 2.039 . S
Co1161 N1175 2.140 . S
C1162 O1163 1.227 . S
C1162 O1172 1.265 . S
O1163 C1162 1.227 . S
N1164 Co1161 2.121 . S
N1164 C1166 1.375 . S
N1164 C1167 1.313 . S
C1165 C1166 1.338 . S
C1165 N1168 1.377 . S
C1165 H1185 0.930 . S
C1166 N1164 1.375 . S
C1166 C1165 1.338 . S
C1166 H1170 0.931 . S
C1167 N1164 1.313 . S
C1167 N1168 1.344 . S
C1167 H1171 0.930 . S
N1168 C1165 1.377 . S
N1168 C1167 1.344 . S
O1169 Co1161 2.055 . S
O1169 C1173 1.253 . S
H1170 C1166 0.931 . S
H1171 C1167 0.930 . S
O1172 Co1161 2.039 . S
O1172 C1162 1.265 . S
C1173 O1169 1.253 . S
C1173 O1174 1.227 . S
O1174 C1173 1.227 . S
N1175 Co1161 2.140 . S
N1175 C1178 1.346 . S
N1175 C1179 1.345 . S
C1176 C1177 1.387 . S
C1176 C1180 1.391 . S
C1177 C1176 1.387 . S
C1177 C1178 1.369 . S
C1177 H1186 0.929 . S
C1178 N1175 1.346 . S
C1178 C1177 1.369 . S
C1178 H1181 0.928 . S
C1179 N1175 1.345 . S
C1179 C1180 1.371 . S
C1179 H1182 0.931 . S
C1180 C1176 1.391 . S
C1180 C1179 1.371 . S
C1180 H1187 0.930 . S
H1181 C1178 0.928 . S
H1182 C1179 0.931 . S
H1183 C1159 0.930 . S
H1184 C1156 0.930 . S
H1185 C1165 0.930 . S
H1186 C1177 0.929 . S
H1187 C1180 0.930 . S
C1188 C1189 1.351 . S
C1188 N1191 1.368 1_554 S
C1188 H1193 0.931 . S
C1189 C1188 1.351 . S
C1189 N1190 1.373 1_554 S
C1189 H1217 0.930 . S
N1190 C1189 1.373 1_556 S
N1190 C1192 1.340 . S
N1191 C1188 1.368 1_556 S
N1191 C1192 1.321 . S
N1191 Co1194 2.135 . S
C1192 N1190 1.340 . S
C1192 N1191 1.321 . S
C1192 H1216 0.930 . S
H1193 C1188 0.931 . S
Co1194 N1191 2.135 . S
Co1194 N1197 2.121 . S
Co1194 O1202 2.055 1_556 S
Co1194 O1205 2.039 . S
Co1194 N1208 2.140 . S
C1195 O1196 1.227 . S
C1195 O1205 1.265 . S
O1196 C1195 1.227 . S
N1197 Co1194 2.121 . S
N1197 C1199 1.375 . S
N1197 C1200 1.313 . S
C1198 C1199 1.338 . S
C1198 N1201 1.377 . S
C1198 H1218 0.930 . S
C1199 N1197 1.375 . S
C1199 C1198 1.338 . S
C1199 H1203 0.931 . S
C1200 N1197 1.313 . S
C1200 N1201 1.344 . S
C1200 H1204 0.930 . S
N1201 C1198 1.377 . S
N1201 C1200 1.344 . S
O1202 Co1194 2.055 1_554 S
O1202 C1206 1.253 . S
H1203 C1199 0.931 . S
H1204 C1200 0.930 . S
O1205 Co1194 2.039 . S
O1205 C1195 1.265 . S
C1206 O1202 1.253 . S
C1206 O1207 1.227 1_554 S
O1207 C1206 1.227 1_556 S
N1208 Co1194 2.140 . S
N1208 C1211 1.346 . S
N1208 C1212 1.345 . S
C1209 C1210 1.387 . S
C1209 C1213 1.391 . S
C1210 C1209 1.387 . S
C1210 C1211 1.369 . S
C1210 H1219 0.929 . S
C1211 N1208 1.346 . S
C1211 C1210 1.369 . S
C1211 H1214 0.928 . S
C1212 N1208 1.345 . S
C1212 C1213 1.371 . S
C1212 H1215 0.931 . S
C1213 C1209 1.391 . S
C1213 C1212 1.371 . S
C1213 H1220 0.930 . S
H1214 C1211 0.928 . S
H1215 C1212 0.931 . S
H1216 C1192 0.930 . S
H1217 C1189 0.930 . S
H1218 C1198 0.930 . S
H1219 C1210 0.929 . S
H1220 C1213 0.930 . S
C1221 C1222 1.351 . S
C1221 N1224 1.368 . S
C1221 H1226 0.931 . S
C1222 C1221 1.351 . S
C1222 N1223 1.373 . S
C1222 H1250 0.930 . S
N1223 C1222 1.373 . S
N1223 C1225 1.340 . S
N1224 C1221 1.368 . S
N1224 C1225 1.321 . S
N1224 Co1227 2.135 . S
C1225 N1223 1.340 . S
C1225 N1224 1.321 . S
C1225 H1249 0.930 . S
H1226 C1221 0.931 . S
Co1227 N1224 2.135 . S
Co1227 N1230 2.121 . S
Co1227 O1235 2.055 . S
Co1227 O1238 2.039 . S
Co1227 N1241 2.140 . S
C1228 O1229 1.227 . S
C1228 O1238 1.265 . S
O1229 C1228 1.227 . S
N1230 Co1227 2.121 . S
N1230 C1232 1.375 . S
N1230 C1233 1.313 . S
C1231 C1232 1.338 . S
C1231 N1234 1.377 . S
C1231 H1251 0.930 . S
C1232 N1230 1.375 . S
C1232 C1231 1.338 . S
C1232 H1236 0.931 . S
C1233 N1230 1.313 . S
C1233 N1234 1.344 . S
C1233 H1237 0.930 . S
N1234 C1231 1.377 . S
N1234 C1233 1.344 . S
O1235 Co1227 2.055 . S
O1235 C1239 1.253 . S
H1236 C1232 0.931 . S
H1237 C1233 0.930 . S
O1238 Co1227 2.039 . S
O1238 C1228 1.265 . S
C1239 O1235 1.253 . S
C1239 O1240 1.227 . S
O1240 C1239 1.227 . S
N1241 Co1227 2.140 . S
N1241 C1244 1.346 . S
N1241 C1245 1.345 . S
C1242 C1243 1.387 . S
C1242 C1246 1.391 . S
C1243 C1242 1.387 . S
C1243 C1244 1.369 . S
C1243 H1252 0.929 . S
C1244 N1241 1.346 . S
C1244 C1243 1.369 . S
C1244 H1247 0.928 . S
C1245 N1241 1.345 . S
C1245 C1246 1.371 . S
C1245 H1248 0.931 . S
C1246 C1242 1.391 . S
C1246 C1245 1.371 . S
C1246 H1253 0.930 . S
H1247 C1244 0.928 . S
H1248 C1245 0.931 . S
H1249 C1225 0.930 . S
H1250 C1222 0.930 . S
H1251 C1231 0.930 . S
H1252 C1243 0.929 . S
H1253 C1246 0.930 . S
C1254 C1255 1.351 . S
C1254 N1257 1.368 . S
C1254 H1259 0.931 . S
C1255 C1254 1.351 . S
C1255 N1256 1.373 . S
C1255 H1283 0.930 . S
N1256 C1255 1.373 . S
N1256 C1258 1.340 . S
N1257 C1254 1.368 . S
N1257 C1258 1.321 . S
N1257 Co1260 2.135 . S
C1258 N1256 1.340 . S
C1258 N1257 1.321 . S
C1258 H1282 0.930 . S
H1259 C1254 0.931 . S
Co1260 N1257 2.135 . S
Co1260 N1263 2.121 . S
Co1260 O1268 2.055 . S
Co1260 O1271 2.039 . S
Co1260 N1274 2.140 . S
C1261 O1262 1.227 . S
C1261 O1271 1.265 . S
O1262 C1261 1.227 . S
N1263 Co1260 2.121 . S
N1263 C1265 1.375 . S
N1263 C1266 1.313 . S
C1264 C1265 1.338 . S
C1264 N1267 1.377 . S
C1264 H1284 0.930 . S
C1265 N1263 1.375 . S
C1265 C1264 1.338 . S
C1265 H1269 0.931 . S
C1266 N1263 1.313 . S
C1266 N1267 1.344 . S
C1266 H1270 0.930 . S
N1267 C1264 1.377 . S
N1267 C1266 1.344 . S
O1268 Co1260 2.055 . S
O1268 C1272 1.253 . S
H1269 C1265 0.931 . S
H1270 C1266 0.930 . S
O1271 Co1260 2.039 . S
O1271 C1261 1.265 . S
C1272 O1268 1.253 . S
C1272 O1273 1.227 . S
O1273 C1272 1.227 . S
N1274 Co1260 2.140 . S
N1274 C1277 1.346 . S
N1274 C1278 1.345 . S
C1275 C1276 1.387 . S
C1275 C1279 1.391 . S
C1276 C1275 1.387 . S
C1276 C1277 1.369 . S
C1276 H1285 0.929 . S
C1277 N1274 1.346 . S
C1277 C1276 1.369 . S
C1277 H1280 0.928 . S
C1278 N1274 1.345 . S
C1278 C1279 1.371 . S
C1278 H1281 0.931 . S
C1279 C1275 1.391 . S
C1279 C1278 1.371 . S
C1279 H1286 0.930 . S
H1280 C1277 0.928 . S
H1281 C1278 0.931 . S
H1282 C1258 0.930 . S
H1283 C1255 0.930 . S
H1284 C1264 0.930 . S
H1285 C1276 0.929 . S
H1286 C1279 0.930 . S
C1287 C1288 1.351 . S
C1287 N1290 1.368 . S
C1287 H1292 0.931 . S
C1288 C1287 1.351 . S
C1288 N1289 1.373 . S
C1288 H1316 0.930 . S
N1289 C1288 1.373 . S
N1289 C1291 1.340 . S
N1290 C1287 1.368 . S
N1290 C1291 1.321 . S
N1290 Co1293 2.135 . S
C1291 N1289 1.340 . S
C1291 N1290 1.321 . S
C1291 H1315 0.930 . S
H1292 C1287 0.931 . S
Co1293 N1290 2.135 . S
Co1293 N1296 2.121 . S
Co1293 O1301 2.055 . S
Co1293 O1304 2.039 . S
Co1293 N1307 2.140 . S
C1294 O1295 1.227 . S
C1294 O1304 1.265 . S
O1295 C1294 1.227 . S
N1296 Co1293 2.121 . S
N1296 C1298 1.375 . S
N1296 C1299 1.313 . S
C1297 C1298 1.338 . S
C1297 N1300 1.377 . S
C1297 H1317 0.930 . S
C1298 N1296 1.375 . S
C1298 C1297 1.338 . S
C1298 H1302 0.931 . S
C1299 N1296 1.313 . S
C1299 N1300 1.344 . S
C1299 H1303 0.930 . S
N1300 C1297 1.377 . S
N1300 C1299 1.344 . S
O1301 Co1293 2.055 . S
O1301 C1305 1.253 . S
H1302 C1298 0.931 . S
H1303 C1299 0.930 . S
O1304 Co1293 2.039 . S
O1304 C1294 1.265 . S
C1305 O1301 1.253 . S
C1305 O1306 1.227 . S
O1306 C1305 1.227 . S
N1307 Co1293 2.140 . S
N1307 C1310 1.346 . S
N1307 C1311 1.345 . S
C1308 C1309 1.387 . S
C1308 C1312 1.391 . S
C1309 C1308 1.387 . S
C1309 C1310 1.369 . S
C1309 H1318 0.929 . S
C1310 N1307 1.346 . S
C1310 C1309 1.369 . S
C1310 H1313 0.928 . S
C1311 N1307 1.345 . S
C1311 C1312 1.371 . S
C1311 H1314 0.931 . S
C1312 C1308 1.391 . S
C1312 C1311 1.371 . S
C1312 H1319 0.930 . S
H1313 C1310 0.928 . S
H1314 C1311 0.931 . S
H1315 C1291 0.930 . S
H1316 C1288 0.930 . S
H1317 C1297 0.930 . S
H1318 C1309 0.929 . S
H1319 C1312 0.930 . S
C1320 C1321 1.351 . S
C1320 N1323 1.368 . S
C1320 H1325 0.931 . S
C1321 C1320 1.351 . S
C1321 N1322 1.373 . S
C1321 H1349 0.930 . S
N1322 C1321 1.373 . S
N1322 C1324 1.340 . S
N1323 C1320 1.368 . S
N1323 C1324 1.321 . S
N1323 Co1326 2.135 . S
C1324 N1322 1.340 . S
C1324 N1323 1.321 . S
C1324 H1348 0.930 . S
H1325 C1320 0.931 . S
Co1326 N1323 2.135 . S
Co1326 N1329 2.121 . S
Co1326 O1334 2.055 . S
Co1326 O1337 2.039 . S
Co1326 N1340 2.140 . S
C1327 O1328 1.227 . S
C1327 O1337 1.265 . S
O1328 C1327 1.227 . S
N1329 Co1326 2.121 . S
N1329 C1331 1.375 . S
N1329 C1332 1.313 . S
C1330 C1331 1.338 . S
C1330 N1333 1.377 . S
C1330 H1350 0.930 . S
C1331 N1329 1.375 . S
C1331 C1330 1.338 . S
C1331 H1335 0.931 . S
C1332 N1329 1.313 . S
C1332 N1333 1.344 . S
C1332 H1336 0.930 . S
N1333 C1330 1.377 . S
N1333 C1332 1.344 . S
O1334 Co1326 2.055 . S
O1334 C1338 1.253 . S
H1335 C1331 0.931 . S
H1336 C1332 0.930 . S
O1337 Co1326 2.039 . S
O1337 C1327 1.265 . S
C1338 O1334 1.253 . S
C1338 O1339 1.227 . S
O1339 C1338 1.227 . S
N1340 Co1326 2.140 . S
N1340 C1343 1.346 . S
N1340 C1344 1.345 . S
C1341 C1342 1.387 . S
C1341 C1345 1.391 . S
C1342 C1341 1.387 . S
C1342 C1343 1.369 . S
C1342 H1351 0.929 . S
C1343 N1340 1.346 . S
C1343 C1342 1.369 . S
C1343 H1346 0.928 . S
C1344 N1340 1.345 . S
C1344 C1345 1.371 . S
C1344 H1347 0.931 . S
C1345 C1341 1.391 . S
C1345 C1344 1.371 . S
C1345 H1352 0.930 . S
H1346 C1343 0.928 . S
H1347 C1344 0.931 . S
H1348 C1324 0.930 . S
H1349 C1321 0.930 . S
H1350 C1330 0.930 . S
H1351 C1342 0.929 . S
H1352 C1345 0.930 . S
C1353 C1354 1.351 . S
C1353 N1356 1.368 1_655 S
C1353 H1358 0.931 . S
C1354 C1353 1.351 . S
C1354 N1355 1.373 1_655 S
C1354 H1382 0.930 . S
N1355 C1354 1.373 1_455 S
N1355 C1357 1.340 . S
N1356 C1353 1.368 1_455 S
N1356 C1357 1.321 . S
N1356 Co1359 2.135 . S
C1357 N1355 1.340 . S
C1357 N1356 1.321 . S
C1357 H1381 0.930 . S
H1358 C1353 0.931 . S
Co1359 N1356 2.135 . S
Co1359 N1362 2.121 . S
Co1359 O1367 2.055 1_455 S
Co1359 O1370 2.039 . S
Co1359 N1373 2.140 . S
C1360 O1361 1.227 . S
C1360 O1370 1.265 . S
O1361 C1360 1.227 . S
N1362 Co1359 2.121 . S
N1362 C1364 1.375 . S
N1362 C1365 1.313 . S
C1363 C1364 1.338 . S
C1363 N1366 1.377 . S
C1363 H1383 0.930 . S
C1364 N1362 1.375 . S
C1364 C1363 1.338 . S
C1364 H1368 0.931 . S
C1365 N1362 1.313 . S
C1365 N1366 1.344 . S
C1365 H1369 0.930 . S
N1366 C1363 1.377 . S
N1366 C1365 1.344 . S
O1367 Co1359 2.055 1_655 S
O1367 C1371 1.253 . S
H1368 C1364 0.931 . S
H1369 C1365 0.930 . S
O1370 Co1359 2.039 . S
O1370 C1360 1.265 . S
C1371 O1367 1.253 . S
C1371 O1372 1.227 1_655 S
O1372 C1371 1.227 1_455 S
N1373 Co1359 2.140 . S
N1373 C1376 1.346 . S
N1373 C1377 1.345 . S
C1374 C1375 1.387 . S
C1374 C1378 1.391 . S
C1375 C1374 1.387 . S
C1375 C1376 1.369 . S
C1375 H1384 0.929 . S
C1376 N1373 1.346 . S
C1376 C1375 1.369 . S
C1376 H1379 0.928 . S
C1377 N1373 1.345 . S
C1377 C1378 1.371 . S
C1377 H1380 0.931 . S
C1378 C1374 1.391 . S
C1378 C1377 1.371 . S
C1378 H1385 0.930 . S
H1379 C1376 0.928 . S
H1380 C1377 0.931 . S
H1381 C1357 0.930 . S
H1382 C1354 0.930 . S
H1383 C1363 0.930 . S
H1384 C1375 0.929 . S
H1385 C1378 0.930 . S
C1386 C1387 1.351 . S
C1386 N1389 1.368 . S
C1386 H1391 0.931 . S
C1387 C1386 1.351 . S
C1387 N1388 1.373 . S
C1387 H1415 0.930 . S
N1388 C1387 1.373 . S
N1388 C1390 1.340 . S
N1389 C1386 1.368 . S
N1389 C1390 1.321 . S
N1389 Co1392 2.135 . S
C1390 N1388 1.340 . S
C1390 N1389 1.321 . S
C1390 H1414 0.930 . S
H1391 C1386 0.931 . S
Co1392 N1389 2.135 . S
Co1392 N1395 2.121 . S
Co1392 O1400 2.055 . S
Co1392 O1403 2.039 . S
Co1392 N1406 2.140 . S
C1393 O1394 1.227 . S
C1393 O1403 1.265 . S
O1394 C1393 1.227 . S
N1395 Co1392 2.121 . S
N1395 C1397 1.375 . S
N1395 C1398 1.313 . S
C1396 C1397 1.338 . S
C1396 N1399 1.377 . S
C1396 H1416 0.930 . S
C1397 N1395 1.375 . S
C1397 C1396 1.338 . S
C1397 H1401 0.931 . S
C1398 N1395 1.313 . S
C1398 N1399 1.344 . S
C1398 H1402 0.930 . S
N1399 C1396 1.377 . S
N1399 C1398 1.344 . S
O1400 Co1392 2.055 . S
O1400 C1404 1.253 . S
H1401 C1397 0.931 . S
H1402 C1398 0.930 . S
O1403 Co1392 2.039 . S
O1403 C1393 1.265 . S
C1404 O1400 1.253 . S
C1404 O1405 1.227 . S
O1405 C1404 1.227 . S
N1406 Co1392 2.140 . S
N1406 C1409 1.346 . S
N1406 C1410 1.345 . S
C1407 C1408 1.387 . S
C1407 C1411 1.391 . S
C1408 C1407 1.387 . S
C1408 C1409 1.369 . S
C1408 H1417 0.929 . S
C1409 N1406 1.346 . S
C1409 C1408 1.369 . S
C1409 H1412 0.928 . S
C1410 N1406 1.345 . S
C1410 C1411 1.371 . S
C1410 H1413 0.931 . S
C1411 C1407 1.391 . S
C1411 C1410 1.371 . S
C1411 H1418 0.930 . S
H1412 C1409 0.928 . S
H1413 C1410 0.931 . S
H1414 C1390 0.930 . S
H1415 C1387 0.930 . S
H1416 C1396 0.930 . S
H1417 C1408 0.929 . S
H1418 C1411 0.930 . S
C1419 C1420 1.351 . S
C1419 N1422 1.368 1_554 S
C1419 H1424 0.931 . S
C1420 C1419 1.351 . S
C1420 N1421 1.373 1_554 S
C1420 H1448 0.930 . S
N1421 C1420 1.373 1_556 S
N1421 C1423 1.340 . S
N1422 C1419 1.368 1_556 S
N1422 C1423 1.321 . S
N1422 Co1425 2.135 . S
C1423 N1421 1.340 . S
C1423 N1422 1.321 . S
C1423 H1447 0.930 . S
H1424 C1419 0.931 . S
Co1425 N1422 2.135 . S
Co1425 N1428 2.121 . S
Co1425 O1433 2.055 . S
Co1425 O1436 2.039 . S
Co1425 N1439 2.140 1_556 S
C1426 O1427 1.227 . S
C1426 O1436 1.265 . S
O1427 C1426 1.227 . S
N1428 Co1425 2.121 . S
N1428 C1430 1.375 . S
N1428 C1431 1.313 . S
C1429 C1430 1.338 . S
C1429 N1432 1.377 . S
C1429 H1449 0.930 . S
C1430 N1428 1.375 . S
C1430 C1429 1.338 . S
C1430 H1434 0.931 . S
C1431 N1428 1.313 . S
C1431 N1432 1.344 . S
C1431 H1435 0.930 . S
N1432 C1429 1.377 . S
N1432 C1431 1.344 . S
O1433 Co1425 2.055 . S
O1433 C1437 1.253 1_556 S
H1434 C1430 0.931 . S
H1435 C1431 0.930 . S
O1436 Co1425 2.039 . S
O1436 C1426 1.265 . S
C1437 O1433 1.253 1_554 S
C1437 O1438 1.227 . S
O1438 C1437 1.227 . S
N1439 Co1425 2.140 1_554 S
N1439 C1442 1.346 . S
N1439 C1443 1.345 . S
C1440 C1441 1.387 . S
C1440 C1444 1.391 . S
C1441 C1440 1.387 . S
C1441 C1442 1.369 . S
C1441 H1450 0.929 . S
C1442 N1439 1.346 . S
C1442 C1441 1.369 . S
C1442 H1445 0.928 1_554 S
C1443 N1439 1.345 . S
C1443 C1444 1.371 . S
C1443 H1446 0.931 . S
C1444 C1440 1.391 . S
C1444 C1443 1.371 . S
C1444 H1451 0.930 . S
H1445 C1442 0.928 1_556 S
H1446 C1443 0.931 . S
H1447 C1423 0.930 . S
H1448 C1420 0.930 . S
H1449 C1429 0.930 . S
H1450 C1441 0.929 . S
H1451 C1444 0.930 . S
C1452 C1453 1.351 . S
C1452 N1455 1.368 . S
C1452 H1457 0.931 . S
C1453 C1452 1.351 . S
C1453 N1454 1.373 . S
C1453 H1481 0.930 . S
N1454 C1453 1.373 . S
N1454 C1456 1.340 . S
N1455 C1452 1.368 . S
N1455 C1456 1.321 . S
N1455 Co1458 2.135 . S
C1456 N1454 1.340 . S
C1456 N1455 1.321 . S
C1456 H1480 0.930 . S
H1457 C1452 0.931 . S
Co1458 N1455 2.135 . S
Co1458 N1461 2.121 . S
Co1458 O1466 2.055 . S
Co1458 O1469 2.039 . S
Co1458 N1472 2.140 . S
C1459 O1460 1.227 . S
C1459 O1469 1.265 . S
O1460 C1459 1.227 . S
N1461 Co1458 2.121 . S
N1461 C1463 1.375 . S
N1461 C1464 1.313 . S
C1462 C1463 1.338 . S
C1462 N1465 1.377 . S
C1462 H1482 0.930 . S
C1463 N1461 1.375 . S
C1463 C1462 1.338 . S
C1463 H1467 0.931 . S
C1464 N1461 1.313 . S
C1464 N1465 1.344 . S
C1464 H1468 0.930 . S
N1465 C1462 1.377 . S
N1465 C1464 1.344 . S
O1466 Co1458 2.055 . S
O1466 C1470 1.253 . S
H1467 C1463 0.931 . S
H1468 C1464 0.930 . S
O1469 Co1458 2.039 . S
O1469 C1459 1.265 . S
C1470 O1466 1.253 . S
C1470 O1471 1.227 . S
O1471 C1470 1.227 . S
N1472 Co1458 2.140 . S
N1472 C1475 1.346 . S
N1472 C1476 1.345 . S
C1473 C1474 1.387 . S
C1473 C1477 1.391 . S
C1474 C1473 1.387 . S
C1474 C1475 1.369 . S
C1474 H1483 0.929 . S
C1475 N1472 1.346 . S
C1475 C1474 1.369 . S
C1475 H1478 0.928 . S
C1476 N1472 1.345 . S
C1476 C1477 1.371 . S
C1476 H1479 0.931 . S
C1477 C1473 1.391 . S
C1477 C1476 1.371 . S
C1477 H1484 0.930 . S
H1478 C1475 0.928 . S
H1479 C1476 0.931 . S
H1480 C1456 0.930 . S
H1481 C1453 0.930 . S
H1482 C1462 0.930 . S
H1483 C1474 0.929 . S
H1484 C1477 0.930 . S
C1485 C1486 1.351 . S
C1485 N1488 1.368 1_456 S
C1485 H1490 0.931 . S
C1486 C1485 1.351 . S
C1486 N1487 1.373 1_456 S
C1486 H1514 0.930 . S
N1487 C1486 1.373 1_654 S
N1487 C1489 1.340 . S
N1488 C1485 1.368 1_654 S
N1488 C1489 1.321 . S
N1488 Co1491 2.135 . S
C1489 N1487 1.340 . S
C1489 N1488 1.321 . S
C1489 H1513 0.930 . S
H1490 C1485 0.931 . S
Co1491 N1488 2.135 . S
Co1491 N1494 2.121 . S
Co1491 O1499 2.055 1_655 S
Co1491 O1502 2.039 . S
Co1491 N1505 2.140 1_554 S
C1492 O1493 1.227 . S
C1492 O1502 1.265 . S
O1493 C1492 1.227 . S
N1494 Co1491 2.121 . S
N1494 C1496 1.375 . S
N1494 C1497 1.313 . S
C1495 C1496 1.338 . S
C1495 N1498 1.377 . S
C1495 H1515 0.930 . S
C1496 N1494 1.375 . S
C1496 C1495 1.338 . S
C1496 H1500 0.931 . S
C1497 N1494 1.313 . S
C1497 N1498 1.344 . S
C1497 H1501 0.930 . S
N1498 C1495 1.377 . S
N1498 C1497 1.344 . S
O1499 Co1491 2.055 1_455 S
O1499 C1503 1.253 1_554 S
H1500 C1496 0.931 . S
H1501 C1497 0.930 . S
O1502 Co1491 2.039 . S
O1502 C1492 1.265 . S
C1503 O1499 1.253 1_556 S
C1503 O1504 1.227 1_455 S
O1504 C1503 1.227 1_655 S
N1505 Co1491 2.140 1_556 S
N1505 C1508 1.346 . S
N1505 C1509 1.345 . S
C1506 C1507 1.387 . S
C1506 C1510 1.391 . S
C1507 C1506 1.387 . S
C1507 C1508 1.369 . S
C1507 H1516 0.929 . S
C1508 N1505 1.346 . S
C1508 C1507 1.369 . S
C1508 H1511 0.928 1_556 S
C1509 N1505 1.345 . S
C1509 C1510 1.371 . S
C1509 H1512 0.931 . S
C1510 C1506 1.391 . S
C1510 C1509 1.371 . S
C1510 H1517 0.930 . S
H1511 C1508 0.928 1_554 S
H1512 C1509 0.931 . S
H1513 C1489 0.930 . S
H1514 C1486 0.930 . S
H1515 C1495 0.930 . S
H1516 C1507 0.929 . S
H1517 C1510 0.930 . S
C1518 C1519 1.351 . S
C1518 N1521 1.368 . S
C1518 H1523 0.931 . S
C1519 C1518 1.351 . S
C1519 N1520 1.373 . S
C1519 H1547 0.930 . S
N1520 C1519 1.373 . S
N1520 C1522 1.340 . S
N1521 C1518 1.368 . S
N1521 C1522 1.321 . S
N1521 Co1524 2.135 . S
C1522 N1520 1.340 . S
C1522 N1521 1.321 . S
C1522 H1546 0.930 . S
H1523 C1518 0.931 . S
Co1524 N1521 2.135 . S
Co1524 N1527 2.121 . S
Co1524 O1532 2.055 . S
Co1524 O1535 2.039 . S
Co1524 N1538 2.140 . S
C1525 O1526 1.227 . S
C1525 O1535 1.265 . S
O1526 C1525 1.227 . S
N1527 Co1524 2.121 . S
N1527 C1529 1.375 . S
N1527 C1530 1.313 . S
C1528 C1529 1.338 . S
C1528 N1531 1.377 . S
C1528 H1548 0.930 . S
C1529 N1527 1.375 . S
C1529 C1528 1.338 . S
C1529 H1533 0.931 . S
C1530 N1527 1.313 . S
C1530 N1531 1.344 . S
C1530 H1534 0.930 . S
N1531 C1528 1.377 . S
N1531 C1530 1.344 . S
O1532 Co1524 2.055 . S
O1532 C1536 1.253 . S
H1533 C1529 0.931 . S
H1534 C1530 0.930 . S
O1535 Co1524 2.039 . S
O1535 C1525 1.265 . S
C1536 O1532 1.253 . S
C1536 O1537 1.227 . S
O1537 C1536 1.227 . S
N1538 Co1524 2.140 . S
N1538 C1541 1.346 . S
N1538 C1542 1.345 . S
C1539 C1540 1.387 . S
C1539 C1543 1.391 . S
C1540 C1539 1.387 . S
C1540 C1541 1.369 . S
C1540 H1549 0.929 . S
C1541 N1538 1.346 . S
C1541 C1540 1.369 . S
C1541 H1544 0.928 . S
C1542 N1538 1.345 . S
C1542 C1543 1.371 . S
C1542 H1545 0.931 . S
C1543 C1539 1.391 . S
C1543 C1542 1.371 . S
C1543 H1550 0.930 . S
H1544 C1541 0.928 . S
H1545 C1542 0.931 . S
H1546 C1522 0.930 . S
H1547 C1519 0.930 . S
H1548 C1528 0.930 . S
H1549 C1540 0.929 . S
H1550 C1543 0.930 . S
C1551 C1552 1.351 . S
C1551 N1554 1.368 . S
C1551 H1556 0.931 . S
C1552 C1551 1.351 . S
C1552 N1553 1.373 . S
C1552 H1580 0.930 . S
N1553 C1552 1.373 . S
N1553 C1555 1.340 . S
N1554 C1551 1.368 . S
N1554 C1555 1.321 . S
N1554 Co1557 2.135 . S
C1555 N1553 1.340 . S
C1555 N1554 1.321 . S
C1555 H1579 0.930 . S
H1556 C1551 0.931 . S
Co1557 N1554 2.135 . S
Co1557 N1560 2.121 . S
Co1557 O1565 2.055 . S
Co1557 O1568 2.039 . S
Co1557 N1571 2.140 . S
C1558 O1559 1.227 . S
C1558 O1568 1.265 . S
O1559 C1558 1.227 . S
N1560 Co1557 2.121 . S
N1560 C1562 1.375 . S
N1560 C1563 1.313 . S
C1561 C1562 1.338 . S
C1561 N1564 1.377 . S
C1561 H1581 0.930 . S
C1562 N1560 1.375 . S
C1562 C1561 1.338 . S
C1562 H1566 0.931 . S
C1563 N1560 1.313 . S
C1563 N1564 1.344 . S
C1563 H1567 0.930 . S
N1564 C1561 1.377 . S
N1564 C1563 1.344 . S
O1565 Co1557 2.055 . S
O1565 C1569 1.253 . S
H1566 C1562 0.931 . S
H1567 C1563 0.930 . S
O1568 Co1557 2.039 . S
O1568 C1558 1.265 . S
C1569 O1565 1.253 . S
C1569 O1570 1.227 . S
O1570 C1569 1.227 . S
N1571 Co1557 2.140 . S
N1571 C1574 1.346 . S
N1571 C1575 1.345 . S
C1572 C1573 1.387 . S
C1572 C1576 1.391 . S
C1573 C1572 1.387 . S
C1573 C1574 1.369 . S
C1573 H1582 0.929 . S
C1574 N1571 1.346 . S
C1574 C1573 1.369 . S
C1574 H1577 0.928 . S
C1575 N1571 1.345 . S
C1575 C1576 1.371 . S
C1575 H1578 0.931 . S
C1576 C1572 1.391 . S
C1576 C1575 1.371 . S
C1576 H1583 0.930 . S
H1577 C1574 0.928 . S
H1578 C1575 0.931 . S
H1579 C1555 0.930 . S
H1580 C1552 0.930 . S
H1581 C1561 0.930 . S
H1582 C1573 0.929 . S
H1583 C1576 0.930 . S
N13 C348 3.083 . S
C381 N46 3.083 . S
C282 N79 3.083 . S
C315 N112 3.083 . S
C480 N145 3.083 . S
N178 C513 3.083 . S
C414 N211 3.083 . S
C447 N244 3.083 . S
N277 C579 3.083 . S
N310 C612 3.083 . S
C645 N343 3.083 . S
N376 C1470 3.083 . S
C1338 N409 3.083 . S
N442 C777 3.083 . S
N475 C1503 3.083 . S
C744 N508 3.083 . S
N541 C1008 3.083 . S
C84 N574 3.083 . S
C117 N607 3.083 . S
C18 N640 3.083 . S
N673 C843 3.083 . S
N706 C942 3.083 . S
C183 N739 3.083 . S
C249 N772 3.083 . S
N805 C1140 3.083 . S
N838 C1173 3.083 . S
C1074 N871 3.083 . S
C1107 N904 3.083 . S
C1272 N937 3.083 . S
C1305 N970 3.083 . S
C1206 N1003 3.083 . S
N1036 C1239 3.083 . S
N1069 C1371 3.083 . S
C1404 N1102 3.083 . S
N1135 C1437 3.083 . S
N1168 C678 3.083 . S
N1201 C546 3.083 . S
N1234 C1569 3.083 . S
C711 N1267 3.083 . S
C1536 N1300 3.083 . S
N1333 C216 3.083 . S
C876 N1366 3.083 . S
N1399 C909 3.083 . S
N1432 C810 3.083 . S
C51 N1465 3.083 . S
N1498 C150 3.083 . S
N1531 C975 3.083 . S
C1041 N1564 3.083 . S
C304 C7 2.421 . S
C40 C337 2.421 . S
C370 C73 2.421 . S
C271 C106 2.421 . S
C139 C502 2.421 . S
C172 C403 2.421 . S
C436 C205 2.421 . S
C238 C469 2.421 . S
C601 C535 2.421 . S
C568 C1525 2.421 . S
C1558 C634 2.421 . S
C667 C1492 2.421 . S
C1459 C700 2.421 . S
C1360 C733 2.421 . S
C766 C1426 2.421 . S
C799 C1096 2.421 . S
C1129 C832 2.421 . S
C1162 C865 2.421 . S
C898 C1063 2.421 . S
C1294 C931 2.421 . S
C1195 C964 2.421 . S
C997 C1228 2.421 . S
C1261 C1030 2.421 . S
C1393 C1327 2.421 . S
C681 C21 2.446 . S
C54 C1374 2.446 . S
C87 C1407 2.446 . S
C1440 C120 2.446 . S
C1572 C153 2.446 . S
C714 C186 2.446 . S
C219 C1539 2.446 . S
C252 C549 2.446 . S
C516 C285 2.446 . S
C318 C417 2.446 . S
C351 C450 2.446 . S
C483 C384 2.446 . S
C846 C582 2.446 . S
C615 C879 2.446 . S
C648 C912 2.446 . S
C747 C1011 2.446 . S
C945 C780 2.446 . S
C813 C1473 2.446 . S
C1506 C978 2.446 . S
C1341 C1044 2.446 . S
C1077 C1308 2.446 . S
C1209 C1110 2.446 . S
C1143 C1242 2.446 . S
C1176 C1275 2.446 . S
N134 N2 0.776 1_565 S
N167 N35 0.776 . S
N200 N68 0.776 1_545 S
N233 N101 0.776 1_556 S
N464 N266 0.776 1_556 S
N299 N497 0.776 1_545 S
N332 N398 0.776 . S
N431 N365 0.776 1_545 S
N530 N1487 0.776 1_455 S
N563 N1421 0.776 . S
N662 N596 0.776 1_655 S
N1355 N629 0.776 1_455 S
N1322 N695 0.776 . S
N728 N1553 0.776 1_455 S
N1520 N761 0.776 . S
N926 N794 0.776 . S
N827 N959 0.776 1_554 S
N860 N992 0.776 . S
N893 N1025 0.776 . S
N1058 N1256 0.776 . S
N1091 N1289 0.776 . S
N1190 N1124 0.776 1_556 S
N1157 N1223 0.776 . S
N1454 N1388 0.776 . S
