# Generated by pormake.
# Topology vbj, (5)-cn, num edge types: 1
# Building blocks:
#     Node 0, Type 0, BuildingBlock: XOMCOT_clean_sbu_1, # of connection points: 5
#     Node 1, Type 0, BuildingBlock: XOMCOT_clean_sbu_1, # of connection points: 5
#     Node 2, Type 0, BuildingBlock: XOMCOT_clean_sbu_1, # of connection points: 5
#     Node 3, Type 0, BuildingBlock: XOMCOT_clean_sbu_1, # of connection points: 5
#     Node 4, Type 0, BuildingBlock: XOMCOT_clean_sbu_1, # of connection points: 5
#     Node 5, Type 0, BuildingBlock: XOMCOT_clean_sbu_1, # of connection points: 5
#     Node 6, Type 0, BuildingBlock: XOMCOT_clean_sbu_1, # of connection points: 5
#     Node 7, Type 0, BuildingBlock: XOMCOT_clean_sbu_1, # of connection points: 5
#     Node 8, Type 0, BuildingBlock: XOMCOT_clean_sbu_1, # of connection points: 5
#     Node 9, Type 0, BuildingBlock: XOMCOT_clean_sbu_1, # of connection points: 5
#     Node 10, Type 0, BuildingBlock: XOMCOT_clean_sbu_1, # of connection points: 5
#     Node 11, Type 0, BuildingBlock: XOMCOT_clean_sbu_1, # of connection points: 5
#     Node 12, Type 0, BuildingBlock: XOMCOT_clean_sbu_1, # of connection points: 5
#     Node 13, Type 0, BuildingBlock: XOMCOT_clean_sbu_1, # of connection points: 5
#     Node 14, Type 0, BuildingBlock: XOMCOT_clean_sbu_1, # of connection points: 5
#     Node 15, Type 0, BuildingBlock: XOMCOT_clean_sbu_1, # of connection points: 5
#     Edge 16, Type (0, 0), BuildingBlock: UVAHIK_clean_linker_0, # of connection points: 2
#     Edge 17, Type (0, 0), BuildingBlock: UVAHIK_clean_linker_0, # of connection points: 2
#     Edge 18, Type (0, 0), BuildingBlock: UVAHIK_clean_linker_0, # of connection points: 2
#     Edge 19, Type (0, 0), BuildingBlock: UVAHIK_clean_linker_0, # of connection points: 2
#     Edge 20, Type (0, 0), BuildingBlock: UVAHIK_clean_linker_0, # of connection points: 2
#     Edge 21, Type (0, 0), BuildingBlock: UVAHIK_clean_linker_0, # of connection points: 2
#     Edge 22, Type (0, 0), BuildingBlock: UVAHIK_clean_linker_0, # of connection points: 2
#     Edge 23, Type (0, 0), BuildingBlock: UVAHIK_clean_linker_0, # of connection points: 2
#     Edge 24, Type (0, 0), BuildingBlock: UVAHIK_clean_linker_0, # of connection points: 2
#     Edge 25, Type (0, 0), BuildingBlock: UVAHIK_clean_linker_0, # of connection points: 2
#     Edge 26, Type (0, 0), BuildingBlock: UVAHIK_clean_linker_0, # of connection points: 2
#     Edge 27, Type (0, 0), BuildingBlock: UVAHIK_clean_linker_0, # of connection points: 2
#     Edge 28, Type (0, 0), BuildingBlock: UVAHIK_clean_linker_0, # of connection points: 2
#     Edge 29, Type (0, 0), BuildingBlock: UVAHIK_clean_linker_0, # of connection points: 2
#     Edge 30, Type (0, 0), BuildingBlock: UVAHIK_clean_linker_0, # of connection points: 2
#     Edge 31, Type (0, 0), BuildingBlock: UVAHIK_clean_linker_0, # of connection points: 2
#     Edge 32, Type (0, 0), BuildingBlock: UVAHIK_clean_linker_0, # of connection points: 2
#     Edge 33, Type (0, 0), BuildingBlock: UVAHIK_clean_linker_0, # of connection points: 2
#     Edge 34, Type (0, 0), BuildingBlock: UVAHIK_clean_linker_0, # of connection points: 2
#     Edge 35, Type (0, 0), BuildingBlock: UVAHIK_clean_linker_0, # of connection points: 2
#     Edge 36, Type (0, 0), BuildingBlock: UVAHIK_clean_linker_0, # of connection points: 2
#     Edge 37, Type (0, 0), BuildingBlock: UVAHIK_clean_linker_0, # of connection points: 2
#     Edge 38, Type (0, 0), BuildingBlock: UVAHIK_clean_linker_0, # of connection points: 2
#     Edge 39, Type (0, 0), BuildingBlock: UVAHIK_clean_linker_0, # of connection points: 2
#     Edge 40, Type (0, 0), BuildingBlock: UVAHIK_clean_linker_0, # of connection points: 2
#     Edge 41, Type (0, 0), BuildingBlock: UVAHIK_clean_linker_0, # of connection points: 2
#     Edge 42, Type (0, 0), BuildingBlock: UVAHIK_clean_linker_0, # of connection points: 2
#     Edge 43, Type (0, 0), BuildingBlock: UVAHIK_clean_linker_0, # of connection points: 2
#     Edge 44, Type (0, 0), BuildingBlock: UVAHIK_clean_linker_0, # of connection points: 2
#     Edge 45, Type (0, 0), BuildingBlock: UVAHIK_clean_linker_0, # of connection points: 2
#     Edge 46, Type (0, 0), BuildingBlock: UVAHIK_clean_linker_0, # of connection points: 2
#     Edge 47, Type (0, 0), BuildingBlock: UVAHIK_clean_linker_0, # of connection points: 2
#     Edge 48, Type (0, 0), BuildingBlock: UVAHIK_clean_linker_0, # of connection points: 2
#     Edge 49, Type (0, 0), BuildingBlock: UVAHIK_clean_linker_0, # of connection points: 2
#     Edge 50, Type (0, 0), BuildingBlock: UVAHIK_clean_linker_0, # of connection points: 2
#     Edge 51, Type (0, 0), BuildingBlock: UVAHIK_clean_linker_0, # of connection points: 2
#     Edge 52, Type (0, 0), BuildingBlock: UVAHIK_clean_linker_0, # of connection points: 2
#     Edge 53, Type (0, 0), BuildingBlock: UVAHIK_clean_linker_0, # of connection points: 2
#     Edge 54, Type (0, 0), BuildingBlock: UVAHIK_clean_linker_0, # of connection points: 2
#     Edge 55, Type (0, 0), BuildingBlock: UVAHIK_clean_linker_0, # of connection points: 2
# Relax obj value: 0.102
# Max RMSD: 0.146
# Mean RMSD: 0.146
data_MOF--net-vbj--node1-XOMCOT_clean_sbu_1--edge1-UVAHIK_clean_linker_0
_symmetry_space_group_name_H-M    P1
_symmetry_Int_Tables_number       1
_symmetry_cell_setting            triclinic
loop_
_symmetry_equiv_pos_as_xyz
'x, y, z'
_cell_length_a     33.572185
_cell_length_b     80.602126
_cell_length_c     61.000442
_cell_angle_alpha  90.125482
_cell_angle_beta   89.941198
_cell_angle_gamma 89.992575
loop_
_atom_site_label
_atom_site_type_symbol
_atom_site_fract_x
_atom_site_fract_y
_atom_site_fract_z
_atom_type_partial_charge
C0 C 0.08592 0.16192 0.07134 0.0
C1 C 0.08052 0.17875 0.07038 0.0
N2 N 0.06903 0.18418 0.09032 0.0
N3 N 0.07808 0.15658 0.0918 0.0
C4 C 0.06764 0.17044 0.10306 0.0
H5 H 0.09394 0.15396 0.05776 0.0
Co6 Co 0.0803 0.13404 0.09881 0.0
C7 C 0.02832 0.13182 0.13827 0.0
O8 O 0.00667 0.12033 0.12878 0.0
N9 N 0.08343 0.11069 0.10538 0.0
C10 C 0.0708 0.08348 0.10725 0.0
C11 C 0.05505 0.09886 0.103 0.0
C12 C 0.11625 0.10187 0.11122 0.0
N13 N 0.1095 0.08535 0.11227 0.0
O14 O 0.13264 0.13743 0.11022 0.0
H15 H 0.0248 0.10099 0.09769 0.0
H16 H 0.14502 0.10731 0.11434 0.0
O17 O 0.05732 0.13843 0.12786 0.0
C18 C 0.15565 0.13598 0.0937 0.0
O19 O 0.14044 0.13136 0.07482 0.0
N20 N 0.03138 0.13142 0.08472 0.0
C21 C 0.97288 0.13319 0.05249 0.0
C22 C 0.96719 0.14098 0.07287 0.0
C23 C -0.00263 0.14025 0.0887 0.0
C24 C 0.03675 0.12352 0.06518 0.0
C25 C 0.00775 0.12407 0.04896 0.0
H26 H -0.0054 0.14773 0.10334 0.0
H27 H 0.06486 0.11749 0.0617 0.0
H28 H 0.05878 0.17044 0.12012 0.0
H29 H 0.08335 0.18629 0.0558 0.0
H30 H 0.05534 0.07176 0.10564 0.0
H31 H 0.94097 0.14847 0.07593 0.0
H32 H 0.01328 0.11795 0.03342 0.0
C33 C 0.40399 0.87227 0.07297 0.0
C34 C 0.41325 0.85577 0.07088 0.0
N35 N 0.42671 0.85029 0.09033 0.0
N36 N 0.41172 0.87729 0.09363 0.0
C37 C 0.42519 0.86352 0.10397 0.0
H38 H 0.3947 0.88037 0.05984 0.0
Co39 Co 0.41085 0.89977 0.1013 0.0
C40 C 0.46374 0.89995 0.14072 0.0
O41 O 0.48859 0.9102 0.13117 0.0
N42 N 0.40929 0.92307 0.10859 0.0
C43 C 0.42543 0.94983 0.11224 0.0
C44 C 0.43966 0.93413 0.10851 0.0
C45 C 0.37677 0.9327 0.11251 0.0
N46 N 0.38565 0.94901 0.11454 0.0
O47 O 0.35821 0.89682 0.11248 0.0
H48 H 0.47036 0.93133 0.10478 0.0
H49 H 0.34673 0.92805 0.11291 0.0
O50 O 0.43302 0.89477 0.13038 0.0
C51 C 0.33524 0.89876 0.09609 0.0
O52 O 0.35056 0.90366 0.07737 0.0
N53 N 0.46025 0.90205 0.08743 0.0
C54 C 0.51902 0.90025 0.05519 0.0
C55 C 0.52252 0.89102 0.07459 0.0
C56 C 0.49254 0.89199 0.0905 0.0
C57 C 0.45678 0.9112 0.06877 0.0
C58 C 0.48609 0.91073 0.05267 0.0
H59 H 0.49396 0.88378 0.10446 0.0
H60 H 0.42978 0.91815 0.06576 0.0
H61 H 0.43667 0.86346 0.12055 0.0
H62 H 0.41204 0.84851 0.05594 0.0
H63 H 0.44317 0.96103 0.11258 0.0
H64 H 0.54731 0.88263 0.07703 0.0
H65 H 0.48156 0.91768 0.03769 0.0
C66 C 0.58585 0.87476 0.43878 0.0
C67 C 0.57646 0.8583 0.44119 0.0
N68 N 0.56111 0.85274 0.42216 0.0
N69 N 0.57641 0.87967 0.41834 0.0
C70 C 0.56172 0.8659 0.40844 0.0
H71 H 0.59719 0.88288 0.45145 0.0
Co72 Co 0.57907 0.90193 0.41017 0.0
C73 C 0.52959 0.90336 0.37001 0.0
O74 O 0.50832 0.91529 0.37881 0.0
N75 N 0.58271 0.92516 0.4023 0.0
C76 C 0.5708 0.95239 0.39932 0.0
C77 C 0.55477 0.93721 0.40444 0.0
C78 C 0.61549 0.93366 0.39555 0.0
N79 N 0.60923 0.95019 0.39393 0.0
O80 O 0.63193 0.89806 0.4 0.0
H81 H 0.52455 0.9354 0.41002 0.0
H82 H 0.64397 0.928 0.39216 0.0
O83 O 0.5578 0.89671 0.38099 0.0
C84 C 0.65476 0.90147 0.41606 0.0
O85 O 0.63931 0.90815 0.4338 0.0
N86 N 0.52918 0.90495 0.42321 0.0
C87 C 0.46816 0.90385 0.45419 0.0
C88 C 0.46466 0.8952 0.43428 0.0
C89 C 0.49577 0.8958 0.41899 0.0
C90 C 0.5328 0.91345 0.44244 0.0
C91 C 0.50238 0.91336 0.45792 0.0
H92 H 0.49414 0.88797 0.40463 0.0
H93 H 0.56053 0.91963 0.44627 0.0
H94 H 0.54942 0.86573 0.39205 0.0
H95 H 0.57961 0.85107 0.45603 0.0
H96 H 0.55577 0.96423 0.40064 0.0
H97 H 0.43891 0.88751 0.43095 0.0
H98 H 0.50685 0.91981 0.47333 0.0
C99 C 0.88844 0.1652 0.43266 0.0
C100 C 0.89347 0.18206 0.4333 0.0
N101 N 0.911 0.18693 0.41448 0.0
N102 N 0.90247 0.15927 0.41352 0.0
C103 C 0.91618 0.1728 0.40272 0.0
H104 H 0.8768 0.15764 0.44579 0.0
Co105 Co 0.9045 0.13653 0.40779 0.0
C106 C 0.95573 0.13404 0.36815 0.0
O107 O 0.97829 0.12307 0.37799 0.0
N108 N 0.9058 0.11287 0.40255 0.0
C109 C 0.92313 0.0861 0.40291 0.0
C110 C 0.93574 0.10205 0.40661 0.0
C111 C 0.87532 0.10285 0.39617 0.0
N112 N 0.88475 0.08651 0.39658 0.0
O113 O 0.85166 0.1378 0.3964 0.0
H114 H 0.96514 0.10531 0.41235 0.0
H115 H 0.8461 0.10734 0.39199 0.0
O116 O 0.92646 0.14059 0.37843 0.0
C117 C 0.82878 0.13502 0.41265 0.0
O118 O 0.84458 0.13061 0.43144 0.0
N119 N 0.95377 0.13604 0.42186 0.0
C120 C 0.01324 0.13991 0.45324 0.0
C121 C 0.0179 0.14666 0.43219 0.0
C122 C 0.98722 0.1449 0.41677 0.0
C123 C 0.9492 0.12931 0.44217 0.0
C124 C 0.97867 0.13092 0.458 0.0
H125 H 0.98938 0.15148 0.40142 0.0
H126 H 0.92157 0.12319 0.44637 0.0
H127 H 0.9306 0.17224 0.38687 0.0
H128 H 0.88653 0.18997 0.44714 0.0
H129 H 0.94101 0.07509 0.40517 0.0
H130 H 0.04389 0.154 0.42814 0.0
H131 H 0.97395 0.12555 0.47405 0.0
C132 C 0.88525 0.87216 0.93495 0.0
C133 C 0.89122 0.85537 0.9363 0.0
N134 N 0.91313 0.85042 0.91891 0.0
N135 N 0.90317 0.87798 0.91681 0.0
C136 C 0.91998 0.86448 0.9073 0.0
H137 H 0.86993 0.87979 0.94687 0.0
Co138 Co 0.90476 0.9006 0.91077 0.0
C139 C 0.95495 0.90385 0.87116 0.0
O140 O 0.9741 0.91618 0.88046 0.0
N141 N 0.90542 0.92424 0.90519 0.0
C142 C 0.91868 0.95137 0.90765 0.0
C143 C 0.93228 0.93567 0.91207 0.0
C144 C 0.87613 0.93364 0.8961 0.0
N145 N 0.88296 0.95014 0.89785 0.0
O146 O 0.85229 0.89883 0.89911 0.0
H147 H 0.95997 0.93302 0.92033 0.0
H148 H 0.84952 0.92857 0.88878 0.0
O149 O 0.92755 0.89628 0.88173 0.0
C150 C 0.82825 0.90338 0.91413 0.0
O151 O 0.84273 0.90966 0.93235 0.0
N152 N 0.95365 0.90148 0.92509 0.0
C153 C 0.01313 0.89832 0.95659 0.0
C154 C 0.01933 0.89252 0.93511 0.0
C155 C 0.98869 0.89391 0.91961 0.0
C156 C 0.94743 0.90716 0.94586 0.0
C157 C 0.97686 0.90594 0.96174 0.0
H158 H 0.9924 0.88805 0.90381 0.0
H159 H 0.91872 0.91228 0.95024 0.0
H160 H 0.9376 0.86505 0.89248 0.0
H161 H 0.88144 0.84762 0.94971 0.0
H162 H 0.93312 0.96281 0.91247 0.0
H163 H 0.04667 0.88621 0.93071 0.0
H164 H 0.97089 0.91061 0.97808 0.0
C165 C 0.57948 0.16208 0.93941 0.0
C166 C 0.57448 0.17889 0.94143 0.0
N167 N 0.5688 0.18536 0.9213 0.0
N168 N 0.5769 0.15777 0.91812 0.0
C169 C 0.57058 0.17224 0.90739 0.0
H170 H 0.58335 0.15339 0.95273 0.0
Co171 Co 0.5797 0.13563 0.90864 0.0
C172 C 0.52197 0.13953 0.87079 0.0
O173 O 0.49278 0.13212 0.88121 0.0
N174 N 0.58402 0.11312 0.89929 0.0
C175 C 0.57198 0.08755 0.88692 0.0
C176 C 0.55615 0.10307 0.89038 0.0
C177 C 0.61649 0.1032 0.90123 0.0
N178 N 0.61007 0.08762 0.89374 0.0
O179 O 0.63162 0.14003 0.89704 0.0
H180 H 0.52569 0.10638 0.88727 0.0
H181 H 0.64406 0.10711 0.90868 0.0
O182 O 0.55577 0.14155 0.88014 0.0
C183 C 0.65529 0.13972 0.91334 0.0
O184 O 0.64121 0.1357 0.93271 0.0
N185 N 0.53045 0.1314 0.92278 0.0
C186 C 0.47286 0.12959 0.95597 0.0
C187 C 0.47155 0.14221 0.94015 0.0
C188 C 0.50056 0.14291 0.92376 0.0
C189 C 0.53128 0.1187 0.93754 0.0
C190 C 0.50235 0.11734 0.95388 0.0
H191 H 0.50062 0.15346 0.91285 0.0
H192 H 0.5561 0.11017 0.93781 0.0
H193 H 0.56665 0.17307 0.88983 0.0
H194 H 0.57339 0.18567 0.95674 0.0
H195 H 0.55644 0.07702 0.87997 0.0
H196 H 0.45005 0.15219 0.94119 0.0
H197 H 0.50444 0.1072 0.96542 0.0
C198 C 0.40398 0.16265 0.5722 0.0
C199 C 0.4106 0.17936 0.57036 0.0
N200 N 0.42022 0.18545 0.59028 0.0
N201 N 0.40935 0.158 0.59316 0.0
C202 C 0.41929 0.17216 0.60388 0.0
H203 H 0.39679 0.15427 0.55892 0.0
Co204 Co 0.40507 0.13578 0.60154 0.0
C205 C 0.45704 0.1343 0.64101 0.0
O206 O 0.47826 0.12248 0.63193 0.0
N207 N 0.39978 0.11269 0.60958 0.0
C208 C 0.41063 0.08547 0.6136 0.0
C209 C 0.42756 0.1005 0.60863 0.0
C210 C 0.36602 0.10442 0.61527 0.0
N211 N 0.37174 0.0879 0.61763 0.0
O212 O 0.35294 0.1404 0.61249 0.0
H213 H 0.45821 0.10206 0.60369 0.0
H214 H 0.33734 0.11023 0.61736 0.0
O215 O 0.42819 0.14084 0.63042 0.0
C216 C 0.33017 0.13861 0.59595 0.0
O217 O 0.34535 0.13301 0.57752 0.0
N218 N 0.45393 0.13188 0.58782 0.0
C219 C 0.51436 0.13043 0.55646 0.0
C220 C 0.51916 0.1399 0.57566 0.0
C221 C 0.48824 0.14066 0.59107 0.0
C222 C 0.44885 0.12274 0.56922 0.0
C223 C 0.47881 0.1216 0.55356 0.0
H224 H 0.49089 0.14906 0.60481 0.0
H225 H 0.42041 0.11691 0.56604 0.0
H226 H 0.42612 0.17267 0.6212 0.0
H227 H 0.40982 0.18633 0.55523 0.0
H228 H 0.42547 0.07355 0.61308 0.0
H229 H 0.54591 0.14712 0.57837 0.0
H230 H 0.47312 0.11463 0.53869 0.0
C231 C 0.09603 0.87424 0.57505 0.0
C232 C 0.0893 0.85758 0.57235 0.0
N233 N 0.06965 0.85194 0.5901 0.0
N234 N 0.08084 0.87921 0.59442 0.0
C235 C 0.06526 0.86527 0.60341 0.0
H236 H 0.10953 0.8824 0.56313 0.0
Co237 Co 0.07835 0.90163 0.60202 0.0
C238 C 0.0279 0.90185 0.64202 0.0
O239 O 0.00401 0.91265 0.6328 0.0
N240 N 0.07658 0.92507 0.60926 0.0
C241 C 0.05798 0.95168 0.6111 0.0
C242 C 0.04581 0.93577 0.60672 0.0
C243 C 0.10707 0.93512 0.61557 0.0
N244 N 0.09684 0.95137 0.61639 0.0
O245 O 0.13163 0.90001 0.61258 0.0
H246 H 0.01617 0.93252 0.60137 0.0
H247 H 0.13693 0.93083 0.61867 0.0
O248 O 0.05768 0.89614 0.63129 0.0
C249 C 0.15419 0.90439 0.59682 0.0
O250 O 0.13798 0.91059 0.57904 0.0
N251 N 0.02843 0.90252 0.58856 0.0
C252 C 0.96807 0.89957 0.55742 0.0
C253 C 0.96531 0.89125 0.57758 0.0
C254 C -0.00388 0.89276 0.59292 0.0
C255 C 0.03145 0.91062 0.56905 0.0
C256 C 0.0014 0.90958 0.55346 0.0
H257 H -0.00497 0.88529 0.60758 0.0
H258 H 0.0584 0.91736 0.56519 0.0
H259 H 0.04879 0.86508 0.61866 0.0
H260 H 0.09719 0.85026 0.55809 0.0
H261 H 0.03955 0.96265 0.60991 0.0
H262 H 0.94028 0.88321 0.58113 0.0
H263 H 0.00543 0.9158 0.53789 0.0
C264 C 0.59976 0.66241 0.07339 0.0
C265 C 0.59631 0.67933 0.07195 0.0
N266 N 0.58095 0.68513 0.09092 0.0
N267 N 0.58675 0.6574 0.09317 0.0
C268 C 0.5756 0.67152 0.10358 0.0
H269 H 0.60967 0.65416 0.06049 0.0
Co270 Co 0.5828 0.63502 0.10064 0.0
C271 C 0.52825 0.63667 0.13932 0.0
O272 O 0.50191 0.62727 0.12943 0.0
N273 N 0.57948 0.61174 0.10796 0.0
C274 C 0.55836 0.58555 0.11129 0.0
C275 C 0.54732 0.60162 0.10696 0.0
C276 C 0.60964 0.60124 0.11329 0.0
N277 N 0.59778 0.58526 0.1151 0.0
O278 O 0.63543 0.63632 0.11222 0.0
H279 H 0.51757 0.60534 0.10241 0.0
H280 H 0.64028 0.60497 0.11501 0.0
O281 O 0.56047 0.64072 0.12947 0.0
C282 C 0.65852 0.63249 0.09641 0.0
O283 O 0.64286 0.6269 0.07809 0.0
N284 N 0.53372 0.63441 0.08619 0.0
C285 C 0.476 0.63769 0.05363 0.0
C286 C 0.47364 0.6471 0.073 0.0
C287 C 0.50316 0.64542 0.08903 0.0
C288 C 0.53628 0.62521 0.06748 0.0
C289 C 0.50746 0.62642 0.05121 0.0
H290 H 0.50275 0.6537 0.10297 0.0
H291 H 0.56216 0.6175 0.06465 0.0
H292 H 0.56277 0.67177 0.11984 0.0
H293 H 0.60284 0.68667 0.05755 0.0
H294 H 0.5388 0.57489 0.11113 0.0
H295 H 0.45007 0.6561 0.07537 0.0
H296 H 0.51123 0.61931 0.03627 0.0
C297 C 0.90128 0.37221 0.07205 0.0
C298 C 0.91165 0.35583 0.06993 0.0
N299 N 0.92395 0.35029 0.08959 0.0
N300 N 0.90705 0.3771 0.09295 0.0
C301 C 0.92059 0.36338 0.10339 0.0
H302 H 0.89184 0.3803 0.05893 0.0
Co303 Co 0.90183 0.39934 0.10125 0.0
C304 C 0.95507 0.40117 0.14032 0.0
O305 O 0.9762 0.41289 0.13104 0.0
N306 N 0.89576 0.42239 0.10923 0.0
C307 C 0.90606 0.44964 0.11331 0.0
C308 C 0.92334 0.43466 0.10841 0.0
C309 C 0.86176 0.43057 0.11477 0.0
N310 N 0.86716 0.4471 0.11718 0.0
O311 O 0.85017 0.39439 0.11259 0.0
H312 H 0.95405 0.43319 0.10352 0.0
H313 H 0.83318 0.42466 0.11672 0.0
O314 O 0.92582 0.39466 0.12999 0.0
C315 C 0.82707 0.39588 0.09615 0.0
O316 O 0.84171 0.40147 0.07761 0.0
N317 N 0.95014 0.40356 0.08712 0.0
C318 C 0.0093 0.4053 0.05508 0.0
C319 C 0.01523 0.39596 0.07424 0.0
C320 C 0.98494 0.39505 0.08999 0.0
C321 C 0.944 0.4126 0.06858 0.0
C322 C 0.9733 0.41387 0.05258 0.0
H323 H 0.9885 0.38674 0.10372 0.0
H324 H 0.91521 0.41821 0.06571 0.0
H325 H 0.92998 0.3632 0.12035 0.0
H326 H 0.91123 0.34864 0.05492 0.0
H327 H 0.92069 0.4616 0.11285 0.0
H328 H 0.04239 0.38896 0.07667 0.0
H329 H 0.96676 0.42073 0.03777 0.0
C330 C 0.09086 0.3733 0.4366 0.0
C331 C 0.08254 0.3567 0.43862 0.0
N332 N 0.06845 0.35115 0.4193 0.0
N333 N 0.08194 0.37829 0.41612 0.0
C334 C 0.06872 0.36444 0.4058 0.0
H335 H 0.10084 0.38144 0.44959 0.0
Co336 Co 0.0827 0.40067 0.40837 0.0
C337 C 0.0313 0.40109 0.36858 0.0
O338 O 0.00751 0.4119 0.37792 0.0
N339 N 0.08429 0.42399 0.40094 0.0
C340 C 0.06846 0.45084 0.3979 0.0
C341 C 0.05423 0.43519 0.4019 0.0
C342 C 0.11661 0.43349 0.39606 0.0
N343 N 0.10794 0.44985 0.39446 0.0
O344 O 0.13568 0.39766 0.39784 0.0
H345 H 0.02372 0.43252 0.40624 0.0
H346 H 0.14652 0.42875 0.39464 0.0
O347 O 0.06131 0.39545 0.37911 0.0
C348 C 0.15811 0.40072 0.41419 0.0
O349 O 0.14208 0.40667 0.43223 0.0
N350 N 0.03285 0.40291 0.4218 0.0
C351 C 0.97245 0.40137 0.45314 0.0
C352 C 0.96961 0.39222 0.43359 0.0
C353 C 0.00041 0.39304 0.41814 0.0
C354 C 0.03587 0.41186 0.4407 0.0
C355 C 0.00574 0.41154 0.45635 0.0
H356 H -0.00064 0.38493 0.40404 0.0
H357 H 0.06295 0.41864 0.44417 0.0
H358 H 0.05694 0.36429 0.38929 0.0
H359 H 0.0853 0.34939 0.45341 0.0
H360 H 0.05101 0.46212 0.39813 0.0
H361 H 0.9446 0.38403 0.43065 0.0
H362 H 0.00978 0.4184 0.47148 0.0
C363 C 0.39411 0.6644 0.43786 0.0
C364 C 0.39883 0.68124 0.43964 0.0
N365 N 0.40922 0.6873 0.41986 0.0
N366 N 0.40129 0.65967 0.41705 0.0
C367 C 0.41044 0.67391 0.40638 0.0
H368 H 0.38748 0.656 0.45117 0.0
Co369 Co 0.40169 0.63729 0.4089 0.0
C370 C 0.44957 0.63794 0.36802 0.0
O371 O 0.47515 0.62764 0.37684 0.0
N372 N 0.40131 0.61403 0.401 0.0
C373 C 0.4177 0.58731 0.39641 0.0
C374 C 0.43174 0.60296 0.40096 0.0
C375 C 0.36909 0.60449 0.39613 0.0
N376 N 0.3781 0.58825 0.39357 0.0
O377 O 0.34705 0.63945 0.40056 0.0
H378 H 0.46238 0.60574 0.40485 0.0
H379 H 0.33915 0.6092 0.39471 0.0
O380 O 0.41934 0.64294 0.379 0.0
C381 C 0.32796 0.63623 0.41813 0.0
O382 O 0.34778 0.63085 0.43526 0.0
N383 N 0.45318 0.63582 0.42045 0.0
C384 C 0.51666 0.63835 0.44972 0.0
C385 C 0.5161 0.64782 0.43044 0.0
C386 C 0.48374 0.64654 0.4161 0.0
C387 C 0.45344 0.62656 0.43911 0.0
C388 C 0.48514 0.62738 0.45371 0.0
H389 H 0.48208 0.65494 0.40236 0.0
H390 H 0.42769 0.61915 0.4433 0.0
H391 H 0.41891 0.67439 0.38928 0.0
H392 H 0.39672 0.68831 0.45469 0.0
H393 H 0.43509 0.576 0.39637 0.0
H394 H 0.5396 0.65663 0.42693 0.0
H395 H 0.48361 0.62026 0.46873 0.0
C396 C 0.37622 0.36983 0.92927 0.0
C397 C 0.38525 0.35325 0.93037 0.0
N398 N 0.41188 0.34975 0.91452 0.0
N399 N 0.39715 0.37685 0.91287 0.0
C400 C 0.41858 0.36424 0.90403 0.0
H401 H 0.35738 0.37654 0.94061 0.0
Co402 Co 0.39956 0.39977 0.90918 0.0
C403 C 0.44895 0.4054 0.86968 0.0
O404 O 0.46642 0.41796 0.87947 0.0
N405 N 0.4012 0.42356 0.90608 0.0
C406 C 0.41452 0.45038 0.91154 0.0
C407 C 0.42632 0.43443 0.91585 0.0
C408 C 0.37467 0.43352 0.8956 0.0
N409 N 0.38168 0.44989 0.89894 0.0
O410 O 0.34722 0.39919 0.89699 0.0
H411 H 0.45156 0.43123 0.92592 0.0
H412 H 0.34998 0.42888 0.88604 0.0
O413 O 0.42281 0.3969 0.87998 0.0
C414 C 0.32331 0.40303 0.9124 0.0
O415 O 0.33793 0.40763 0.93143 0.0
N416 N 0.44822 0.39949 0.92387 0.0
C417 C 0.50765 0.39488 0.95511 0.0
C418 C 0.51528 0.39172 0.93283 0.0
C419 C 0.48473 0.3938 0.91739 0.0
C420 C 0.44057 0.40255 0.94543 0.0
C421 C 0.46985 0.40053 0.96124 0.0
H422 H 0.49001 0.39004 0.90066 0.0
H423 H 0.411 0.40633 0.95039 0.0
H424 H 0.44076 0.36584 0.89132 0.0
H425 H 0.37447 0.34454 0.9425 0.0
H426 H 0.42814 0.46147 0.91819 0.0
H427 H 0.54394 0.38699 0.92756 0.0
H428 H 0.46274 0.4032 0.97821 0.0
C429 C 0.09707 0.66379 0.93974 0.0
C430 C 0.08872 0.68037 0.9422 0.0
N431 N 0.07278 0.68596 0.92337 0.0
N432 N 0.0863 0.65886 0.91948 0.0
C433 C 0.07192 0.67271 0.90973 0.0
H434 H 0.10861 0.65564 0.95226 0.0
Co435 Co 0.08719 0.63654 0.91134 0.0
C436 C 0.03519 0.63551 0.87221 0.0
O437 O 0.01371 0.6238 0.8813 0.0
N438 N 0.08899 0.61325 0.90343 0.0
C439 C 0.07588 0.58608 0.90124 0.0
C440 C 0.06088 0.60142 0.90655 0.0
C441 C 0.12066 0.60448 0.89567 0.0
N442 N 0.1138 0.58794 0.89458 0.0
O443 O 0.13946 0.63983 0.9001 0.0
H444 H 0.03126 0.60351 0.91289 0.0
H445 H 0.14874 0.60998 0.89115 0.0
O446 O 0.06453 0.64183 0.88262 0.0
C447 C 0.16329 0.63604 0.91552 0.0
O448 O 0.14877 0.62954 0.93358 0.0
N449 N 0.03793 0.63409 0.92536 0.0
C450 C 0.97775 0.63526 0.9569 0.0
C451 C 0.97389 0.644 0.93712 0.0
C452 C 0.00459 0.64339 0.92158 0.0
C453 C 0.04212 0.62567 0.94457 0.0
C454 C 0.01212 0.62578 0.96032 0.0
H455 H 0.00262 0.65123 0.90729 0.0
H456 H 0.06985 0.61938 0.94808 0.0
H457 H 0.05882 0.6729 0.89353 0.0
H458 H 0.09299 0.68766 0.95694 0.0
H459 H 0.06046 0.5744 0.90325 0.0
H460 H 0.94805 0.6517 0.93403 0.0
H461 H 0.01691 0.61928 0.97562 0.0
C462 C 0.9184 0.6598 0.57313 0.0
C463 C 0.92674 0.6762 0.56928 0.0
N464 N 0.92864 0.68423 0.58869 0.0
N465 N 0.91504 0.65733 0.59486 0.0
C466 C 0.92137 0.67244 0.60398 0.0
H467 H 0.91603 0.65012 0.56089 0.0
Co468 Co 0.90647 0.63638 0.60687 0.0
C469 C 0.90029 0.64327 0.65342 0.0
O470 O 0.86471 0.63652 0.65249 0.0
N471 N 0.8979 0.61499 0.61869 0.0
C472 C 0.90692 0.59142 0.63701 0.0
C473 C 0.92235 0.60688 0.63259 0.0
C474 C 0.86786 0.60415 0.61489 0.0
N475 N 0.87253 0.58974 0.62588 0.0
O476 O 0.85185 0.64205 0.61104 0.0
H477 H 0.94984 0.61189 0.63906 0.0
H478 H 0.84336 0.60653 0.6039 0.0
O479 O 0.9212 0.64437 0.63597 0.0
C480 C 0.8333 0.63855 0.59347 0.0
O481 O 0.85287 0.63159 0.57721 0.0
N482 N 0.9587 0.63082 0.60011 0.0
C483 C 0.02766 0.62814 0.57501 0.0
C484 C 0.02639 0.63873 0.59337 0.0
C485 C 0.99137 0.63992 0.6058 0.0
C486 C 0.9604 0.61959 0.58346 0.0
C487 C -0.00537 0.61796 0.57079 0.0
H488 H 0.98936 0.6492 0.61858 0.0
H489 H 0.93376 0.61297 0.57867 0.0
H490 H 0.92107 0.67469 0.62147 0.0
H491 H 0.93239 0.68162 0.55337 0.0
H492 H 0.91982 0.58221 0.64775 0.0
H493 H 0.05131 0.64673 0.59731 0.0
H494 H -0.00626 0.60985 0.55663 0.0
C495 C 0.60065 0.37238 0.57583 0.0
C496 C 0.59264 0.35574 0.57393 0.0
N497 N 0.57185 0.35095 0.59171 0.0
N498 N 0.58494 0.37815 0.59469 0.0
C499 C 0.56781 0.36474 0.6042 0.0
H500 H 0.61542 0.37999 0.56373 0.0
Co501 Co 0.58402 0.40078 0.601 0.0
C502 C 0.53495 0.40383 0.64094 0.0
O503 O 0.51435 0.41558 0.63132 0.0
N504 N 0.58396 0.42441 0.60696 0.0
C505 C 0.57042 0.45155 0.60576 0.0
C506 C 0.55661 0.43593 0.60107 0.0
C507 C 0.61379 0.43368 0.61581 0.0
N508 N 0.60676 0.45021 0.61484 0.0
O509 O 0.63725 0.39889 0.61158 0.0
H510 H 0.52823 0.43342 0.59346 0.0
H511 H 0.64074 0.42848 0.62254 0.0
O512 O 0.5629 0.3965 0.63045 0.0
C513 C 0.65999 0.40346 0.59598 0.0
O514 O 0.64394 0.40967 0.57816 0.0
N515 N 0.53418 0.4018 0.58752 0.0
C516 C 0.47259 0.39922 0.55709 0.0
C517 C 0.46872 0.39216 0.57803 0.0
C518 C 0.50018 0.39347 0.59304 0.0
C519 C 0.53856 0.4083 0.56707 0.0
C520 C 0.50795 0.4075 0.55181 0.0
H521 H 0.49797 0.387 0.60847 0.0
H522 H 0.5667 0.4138 0.5624 0.0
H523 H 0.55059 0.36525 0.6192 0.0
H524 H 0.60043 0.34786 0.5602 0.0
H525 H 0.55538 0.46302 0.60176 0.0
H526 H 0.44215 0.38534 0.58251 0.0
H527 H 0.51274 0.41262 0.53562 0.0
C528 C 0.40749 0.13677 0.9741 0.0
C529 C 0.44617 0.13011 0.97556 0.0
C530 C 0.38383 0.13849 0.99282 0.0
C531 C 0.35544 0.12116 0.04264 0.0
H532 H 0.32659 0.1653 0.0625 0.0
C533 C 0.22574 0.12844 0.10184 0.0
C534 C 0.19805 0.1401 0.09427 0.0
C535 C 0.26521 0.12896 0.09437 0.0
C536 C 0.3343 0.15288 0.05722 0.0
H537 H 0.48985 0.11999 0.99826 0.0
H538 H 0.44729 0.12217 0.03059 0.0
H539 H 0.37608 0.16192 0.03342 0.0
H540 H 0.18978 0.16211 0.07466 0.0
H541 H 0.25775 0.16309 0.06153 0.0
H542 H 0.31152 0.112 0.06482 0.0
C543 C 0.43595 0.12624 0.01487 0.0
C544 C 0.36272 0.15099 0.04066 0.0
C545 C 0.46001 0.12482 0.99624 0.0
C546 C 0.21098 0.15318 0.08099 0.0
C547 C 0.25014 0.15368 0.07345 0.0
C548 C 0.32638 0.12303 0.05889 0.0
C549 C 0.39798 0.1333 0.0133 0.0
C550 C 0.3726 0.13515 0.03287 0.0
C551 C 0.2772 0.14102 0.079 0.0
C552 C 0.31437 0.13896 0.06586 0.0
H553 H 0.39538 0.14069 0.95851 0.0
H554 H 0.35429 0.14378 0.9913 0.0
H555 H 0.36274 0.10883 0.03677 0.0
H556 H 0.21613 0.11809 0.11183 0.0
H557 H 0.28544 0.11923 0.09938 0.0
C558 C 0.08329 0.90012 0.97052 0.0
C559 C 0.04324 0.89594 0.97405 0.0
C560 C 0.11067 0.89929 0.98775 0.0
C561 C 0.15226 0.90798 0.03041 0.0
H562 H 0.15839 0.87054 0.07016 0.0
C563 C 0.26667 0.90942 0.09802 0.0
C564 C 0.29235 0.89574 0.09688 0.0
C565 C 0.22873 0.90854 0.08872 0.0
C566 C 0.15675 0.88113 0.05929 0.0
H567 H 0.00083 0.8867 0.99793 0.0
H568 H 0.0486 0.88528 0.02798 0.0
H569 H 0.10969 0.87032 0.04028 0.0
H570 H 0.29796 0.87009 0.08701 0.0
H571 H 0.2317 0.86842 0.07084 0.0
H572 H 0.19993 0.91861 0.04876 0.0
C573 C 0.05883 0.88928 0.012 0.0
C574 C 0.12889 0.88102 0.04223 0.0
C575 C 0.03145 0.89023 0.99484 0.0
C576 C 0.27817 0.88065 0.08852 0.0
C577 C 0.24028 0.87976 0.07913 0.0
C578 C 0.17983 0.90814 0.04748 0.0
C579 C 0.09855 0.8941 0.00875 0.0
C580 C 0.12691 0.89432 0.02738 0.0
C581 C 0.21627 0.89403 0.07785 0.0
C582 C 0.18283 0.89463 0.06195 0.0
H583 H 0.09314 0.90456 0.95467 0.0
H584 H 0.14128 0.90286 0.9847 0.0
H585 H 0.15099 0.91852 0.01945 0.0
H586 H 0.2773 0.92128 0.10403 0.0
H587 H 0.21056 0.91964 0.08835 0.0
C588 C 0.72399 0.91078 0.42025 0.0
C589 C 0.69741 0.89777 0.41606 0.0
C590 C 0.7616 0.90752 0.42886 0.0
C591 C 0.80161 0.87845 0.46773 0.0
H592 H 0.89569 0.90603 0.46244 0.0
C593 C 0.92483 0.88095 0.53449 0.0
C594 C 0.93842 0.89697 0.53972 0.0
C595 C 0.90025 0.87837 0.51627 0.0
C596 C 0.86961 0.89822 0.46413 0.0
H597 H 0.68963 0.87114 0.41604 0.0
H598 H 0.75579 0.86531 0.43123 0.0
H599 H 0.84697 0.90548 0.43277 0.0
H600 H 0.93565 0.92291 0.53052 0.0
H601 H 0.89251 0.91846 0.49901 0.0
H602 H 0.82316 0.87185 0.49954 0.0
C603 C 0.7477 0.87803 0.42768 0.0
C604 C 0.8419 0.89782 0.44707 0.0
C605 C 0.71013 0.88133 0.41873 0.0
C606 C 0.9261 0.91039 0.52673 0.0
C607 C 0.90164 0.90782 0.50857 0.0
C608 C 0.82932 0.87886 0.4848 0.0
C609 C 0.77294 0.89117 0.43388 0.0
C610 C 0.80686 0.88842 0.44904 0.0
C611 C 0.88887 0.89176 0.50294 0.0
C612 C 0.86283 0.88925 0.48354 0.0
H613 H 0.71434 0.92354 0.41876 0.0
H614 H 0.78004 0.91794 0.43363 0.0
H615 H 0.77468 0.87124 0.46991 0.0
H616 H 0.93429 0.87033 0.54401 0.0
H617 H 0.89094 0.86584 0.51234 0.0
C618 C 0.7625 0.12218 0.41035 0.0
C619 C 0.78549 0.13665 0.41165 0.0
C620 C 0.72445 0.12176 0.41963 0.0
C621 C 0.64824 0.14666 0.45005 0.0
H622 H 0.65082 0.10894 0.48941 0.0
C623 C 0.56237 0.14572 0.53217 0.0
C624 C 0.54429 0.13074 0.53851 0.0
C625 C 0.58748 0.14626 0.51388 0.0
C626 C 0.64906 0.11941 0.47834 0.0
H627 H 0.78612 0.16237 0.4217 0.0
H628 H 0.71979 0.16177 0.43789 0.0
H629 H 0.69765 0.11036 0.45924 0.0
H630 H 0.5393 0.10452 0.53095 0.0
H631 H 0.58241 0.10551 0.49891 0.0
H632 H 0.60017 0.15589 0.46974 0.0
C633 C 0.73046 0.15078 0.42949 0.0
C634 C 0.67585 0.12019 0.4609 0.0
C635 C 0.76841 0.15119 0.42008 0.0
C636 C 0.55253 0.11628 0.52641 0.0
C637 C 0.57747 0.11683 0.50811 0.0
C638 C 0.62125 0.14586 0.46753 0.0
C639 C 0.70926 0.13575 0.43067 0.0
C640 C 0.67626 0.13394 0.44675 0.0
C641 C 0.59505 0.13184 0.50152 0.0
C642 C 0.62185 0.13234 0.48211 0.0
H643 H 0.77544 0.11073 0.4043 0.0
H644 H 0.70847 0.11009 0.4199 0.0
H645 H 0.6477 0.15738 0.43939 0.0
H646 H 0.55624 0.15713 0.54095 0.0
H647 H 0.60107 0.15797 0.50947 0.0
C648 C 0.77069 0.88424 0.91335 0.0
C649 C 0.78529 0.90053 0.91294 0.0
C650 C 0.73238 0.88108 0.92143 0.0
C651 C 0.64 0.90122 0.94285 0.0
H652 H 0.65701 0.87244 0.99285 0.0
C653 C 0.55982 0.91167 0.02436 0.0
C654 C 0.54713 0.89795 0.03667 0.0
C655 C 0.58294 0.90945 0.00557 0.0
C656 C 0.65125 0.88025 0.97878 0.0
H657 H 0.77086 0.92634 0.91837 0.0
H658 H 0.70391 0.92101 0.93168 0.0
H659 H 0.70474 0.87238 0.96285 0.0
H660 H 0.54887 0.87111 0.03898 0.0
H661 H 0.58974 0.86723 0.00618 0.0
H662 H 0.58745 0.90965 0.95933 0.0
C663 C 0.72147 0.91061 0.9259 0.0
C664 C 0.67853 0.88015 0.96148 0.0
C665 C 0.75982 0.91371 0.9182 0.0
C666 C 0.55876 0.88195 0.03002 0.0
C667 C 0.58191 0.87972 0.01116 0.0
C668 C 0.61267 0.90129 0.96013 0.0
C669 C 0.7083 0.89422 0.92893 0.0
C670 C 0.67407 0.89113 0.94376 0.0
C671 C 0.59387 0.89345 0.99859 0.0
C672 C 0.61892 0.89131 0.9787 0.0
H673 H 0.79024 0.87388 0.90975 0.0
H674 H 0.72285 0.86833 0.92344 0.0
H675 H 0.63559 0.90969 0.92929 0.0
H676 H 0.55168 0.92416 0.02921 0.0
H677 H 0.59255 0.92033 0.9966 0.0
C678 C 0.71308 0.15716 0.9217 0.0
C679 C 0.69807 0.14283 0.9116 0.0
C680 C 0.75156 0.15726 0.93037 0.0
C681 C 0.81062 0.12684 0.95825 0.0
H682 H 0.88413 0.16317 0.96825 0.0
C683 C 0.90365 0.13244 0.0371 0.0
C684 C 0.94444 0.13551 0.03423 0.0
C685 C 0.87754 0.1337 0.01932 0.0
C686 C 0.86398 0.15288 0.96549 0.0
H687 H 0.71229 0.11805 0.90048 0.0
H688 H 0.77982 0.1182 0.91544 0.0
H689 H 0.8356 0.16494 0.93831 0.0
H690 H 0.98978 0.14302 0.01093 0.0
H691 H 0.94402 0.14543 0.97995 0.0
H692 H 0.83783 0.11504 0.98584 0.0
C693 C 0.76194 0.12934 0.91675 0.0
C694 C 0.83631 0.15389 0.94838 0.0
C695 C 0.72352 0.12932 0.90792 0.0
C696 C 0.95846 0.1404 0.01349 0.0
C697 C 0.93233 0.14188 0.99582 0.0
C698 C 0.83784 0.12593 0.97547 0.0
C699 C 0.77526 0.14291 0.9293 0.0
C700 C 0.809 0.14096 0.94478 0.0
C701 C 0.89172 0.13831 0.99848 0.0
C702 C 0.86432 0.13905 0.97949 0.0
H703 H 0.69356 0.16757 0.92511 0.0
H704 H 0.76087 0.16787 0.94001 0.0
H705 H 0.78951 0.11679 0.95618 0.0
H706 H 0.89216 0.12867 0.05293 0.0
H707 H 0.84623 0.13106 0.02184 0.0
C708 C 0.08339 0.13931 0.46726 0.0
C709 C 0.04294 0.14278 0.47076 0.0
C710 C 0.1105 0.14046 0.48459 0.0
C711 C 0.12753 0.15867 0.53912 0.0
H712 H 0.19728 0.12079 0.54675 0.0
C713 C 0.27576 0.15774 0.587 0.0
C714 C 0.28771 0.14262 0.59622 0.0
C715 C 0.23844 0.15915 0.57701 0.0
C716 C 0.17756 0.13135 0.54511 0.0
H717 H -0.00062 0.1511 0.49464 0.0
H718 H 0.04684 0.15327 0.52486 0.0
H719 H 0.14953 0.12093 0.51678 0.0
H720 H 0.26921 0.1177 0.60429 0.0
H721 H 0.20363 0.1202 0.58736 0.0
H722 H 0.1565 0.16924 0.56726 0.0
C723 C 0.05754 0.14952 0.50883 0.0
C724 C 0.15068 0.13154 0.52771 0.0
C725 C 0.0304 0.14817 0.4916 0.0
C726 C 0.26032 0.12956 0.5976 0.0
C727 C 0.22304 0.13093 0.58763 0.0
C728 C 0.15487 0.15858 0.55646 0.0
C729 C 0.09769 0.14534 0.50562 0.0
C730 C 0.12571 0.14525 0.52438 0.0
C731 C 0.21287 0.14536 0.57597 0.0
C732 C 0.18033 0.14494 0.55954 0.0
H733 H 0.09375 0.13513 0.45135 0.0
H734 H 0.14144 0.13735 0.48164 0.0
H735 H 0.10855 0.1694 0.53691 0.0
H736 H 0.29689 0.16783 0.58529 0.0
H737 H 0.23156 0.1704 0.56812 0.0
C738 C 0.21271 0.88585 0.59493 0.0
C739 C 0.19736 0.90195 0.59697 0.0
C740 C 0.25055 0.88338 0.58582 0.0
C741 C 0.34102 0.90496 0.56465 0.0
H742 H 0.32456 0.87706 0.51356 0.0
C743 C 0.42646 0.91559 0.48454 0.0
C744 C 0.43852 0.90183 0.47203 0.0
C745 C 0.40186 0.91354 0.50279 0.0
C746 C 0.33017 0.88464 0.52791 0.0
H747 H 0.21006 0.92808 0.59329 0.0
H748 H 0.27631 0.92391 0.57803 0.0
H749 H 0.27666 0.87641 0.54345 0.0
H750 H 0.4342 0.8751 0.46881 0.0
H751 H 0.39108 0.87148 0.50071 0.0
H752 H 0.39387 0.91361 0.54872 0.0
C753 C 0.25964 0.91314 0.58335 0.0
C754 C 0.30275 0.88421 0.54514 0.0
C755 C 0.22174 0.91557 0.59216 0.0
C756 C 0.42483 0.88598 0.47792 0.0
C757 C 0.40031 0.8839 0.49627 0.0
C758 C 0.36856 0.90533 0.54746 0.0
C759 C 0.27342 0.89702 0.57883 0.0
C760 C 0.30717 0.89476 0.56337 0.0
C761 C 0.38889 0.89764 0.50906 0.0
C762 C 0.3627 0.8956 0.52855 0.0
H763 H 0.19396 0.87518 0.59815 0.0
H764 H 0.2606 0.87082 0.5827 0.0
H765 H 0.34539 0.91311 0.57858 0.0
H766 H 0.43629 0.92798 0.48027 0.0
H767 H 0.39281 0.92445 0.51191 0.0
C768 C 0.72621 0.62133 0.09216 0.0
C769 C 0.70168 0.63491 0.09709 0.0
C770 C 0.76435 0.62384 0.08371 0.0
C771 C 0.80883 0.65317 0.04661 0.0
H772 H 0.90021 0.62395 0.05067 0.0
C773 C 0.9336 0.65268 0.98092 0.0
C774 C 0.94803 0.63697 0.97478 0.0
C775 C 0.90842 0.65442 0.99907 0.0
C776 C 0.87483 0.63217 0.04927 0.0
H777 H 0.69823 0.66166 0.09877 0.0
H778 H 0.76528 0.66615 0.08399 0.0
H779 H 0.85031 0.62394 0.07983 0.0
H780 H 0.94653 0.61074 0.98242 0.0
H781 H 0.9019 0.61368 0.01369 0.0
H782 H 0.83198 0.66078 0.01557 0.0
C783 C 0.75516 0.65357 0.08675 0.0
C784 C 0.84646 0.63226 0.06607 0.0
C785 C 0.71708 0.65102 0.0955 0.0
C786 C 0.93617 0.62302 0.9869 0.0
C787 C 0.91087 0.62474 1.00494 0.0
C788 C 0.83705 0.65302 0.02977 0.0
C789 C 0.77826 0.64 0.07966 0.0
C790 C 0.81257 0.64241 0.06462 0.0
C791 C 0.897 0.64048 0.01141 0.0
C792 C 0.86976 0.64215 0.03056 0.0
H793 H 0.7145 0.60881 0.0929 0.0
H794 H 0.78118 0.61312 0.07829 0.0
H795 H 0.78273 0.66094 0.04479 0.0
H796 H 0.94278 0.66369 0.97211 0.0
H797 H 0.89856 0.66674 1.00368 0.0
C798 C 0.7566 0.40396 0.09938 0.0
C799 C 0.78492 0.39136 0.09655 0.0
C800 C 0.719 0.40252 0.08974 0.0
C801 C 0.65315 0.37501 0.05624 0.0
H802 H 0.63957 0.41496 0.02168 0.0
C803 C 0.52759 0.38402 0.99191 0.0
C804 C 0.53813 0.39201 0.97226 0.0
C805 C 0.55481 0.38277 0.00912 0.0
C806 C 0.64305 0.40369 0.03114 0.0
H807 H 0.79556 0.36686 0.08336 0.0
H808 H 0.72998 0.36418 0.06669 0.0
H809 H 0.68787 0.41461 0.0513 0.0
H810 H 0.58586 0.4044 0.9549 0.0
H811 H 0.63375 0.40212 0.98497 0.0
H812 H 0.6091 0.36397 0.03537 0.0
C813 C 0.73622 0.3751 0.07648 0.0
C814 C 0.67022 0.40357 0.04842 0.0
C815 C 0.77375 0.37655 0.08616 0.0
C816 C 0.57698 0.39816 0.96984 0.0
C817 C 0.60417 0.39701 0.98713 0.0
C818 C 0.62572 0.37516 0.03896 0.0
C819 C 0.70948 0.38853 0.07693 0.0
C820 C 0.67608 0.38916 0.06098 0.0
C821 C 0.59313 0.38956 0.00709 0.0
C822 C 0.62098 0.38943 0.02597 0.0
H823 H 0.76485 0.41561 0.10699 0.0
H824 H 0.69872 0.41295 0.09073 0.0
H825 H 0.65698 0.36372 0.06561 0.0
H826 H 0.49797 0.37896 0.99412 0.0
H827 H 0.54538 0.37699 0.02427 0.0
C828 C 0.21363 0.38094 0.41814 0.0
C829 C 0.20084 0.39724 0.41433 0.0
C830 C 0.25072 0.37805 0.42787 0.0
C831 C 0.34385 0.39832 0.44765 0.0
H832 H 0.32274 0.37358 0.50089 0.0
C833 C 0.43116 0.41053 0.52656 0.0
C834 C 0.44167 0.39709 0.53998 0.0
C835 C 0.40575 0.40827 0.50873 0.0
C836 C 0.32957 0.38026 0.48597 0.0
H837 H 0.2173 0.42314 0.41574 0.0
H838 H 0.28234 0.41817 0.43206 0.0
H839 H 0.27493 0.37277 0.47096 0.0
H840 H 0.43329 0.37078 0.54548 0.0
H841 H 0.38859 0.36678 0.51426 0.0
H842 H 0.39791 0.40625 0.46297 0.0
C843 C 0.26424 0.40757 0.42758 0.0
C844 C 0.30221 0.37973 0.46873 0.0
C845 C 0.22706 0.41045 0.41812 0.0
C846 C 0.42527 0.3814 0.53558 0.0
C847 C 0.39987 0.37911 0.51763 0.0
C848 C 0.3713 0.39879 0.46485 0.0
C849 C 0.27541 0.39143 0.43378 0.0
C850 C 0.30845 0.38917 0.44966 0.0
C851 C 0.39032 0.39248 0.5038 0.0
C852 C 0.36382 0.39021 0.4845 0.0
H853 H 0.19338 0.37062 0.41579 0.0
H854 H 0.25874 0.36547 0.43228 0.0
H855 H 0.34964 0.4056 0.43308 0.0
H856 H 0.44303 0.42281 0.52972 0.0
H857 H 0.39813 0.41894 0.49882 0.0
C858 C 0.2715 0.65287 0.43121 0.0
C859 C 0.28495 0.63846 0.42061 0.0
C860 C 0.23659 0.65253 0.44374 0.0
C861 C 0.18963 0.62206 0.4784 0.0
H862 H 0.11173 0.6563 0.49076 0.0
C863 C 0.07271 0.61488 0.54709 0.0
C864 C 0.06032 0.62914 0.55854 0.0
C865 C 0.09811 0.61616 0.52902 0.0
C866 C 0.13365 0.64671 0.4877 0.0
H867 H 0.27093 0.61298 0.41285 0.0
H868 H 0.20953 0.61237 0.43433 0.0
H869 H 0.15465 0.65874 0.45851 0.0
H870 H 0.06647 0.65591 0.56041 0.0
H871 H 0.11239 0.65805 0.52964 0.0
H872 H 0.17032 0.61034 0.5079 0.0
C873 C 0.22598 0.6239 0.43317 0.0
C874 C 0.1579 0.64805 0.46909 0.0
C875 C 0.26079 0.62429 0.42061 0.0
C876 C 0.07569 0.64463 0.55216 0.0
C877 C 0.10143 0.6459 0.5342 0.0
C878 C 0.16581 0.62081 0.49708 0.0
C879 C 0.21499 0.63769 0.44597 0.0
C880 C 0.18618 0.63573 0.46427 0.0
C881 C 0.11224 0.63172 0.52207 0.0
C882 C 0.13758 0.63313 0.50206 0.0
H883 H 0.29027 0.6638 0.43189 0.0
H884 H 0.22896 0.66334 0.45346 0.0
H885 H 0.21189 0.61257 0.47547 0.0
H886 H 0.0618 0.60273 0.55167 0.0
H887 H 0.1055 0.60496 0.52007 0.0
C888 C 0.26343 0.38628 0.9187 0.0
C889 C 0.28018 0.40102 0.91076 0.0
C890 C 0.22513 0.38634 0.92769 0.0
C891 C 0.16871 0.41655 0.95897 0.0
H892 H 0.09478 0.38023 0.96762 0.0
C893 C 0.04574 0.4196 0.02461 0.0
C894 C 0.03858 0.40513 0.03681 0.0
C895 C 0.07025 0.41918 0.00614 0.0
C896 C 0.11535 0.39044 0.96544 0.0
H897 H 0.26919 0.42684 0.90368 0.0
H898 H 0.20157 0.42688 0.91833 0.0
H899 H 0.14257 0.37907 0.93733 0.0
H900 H 0.05185 0.37886 0.0392 0.0
H901 H 0.09598 0.37826 0.0074 0.0
H902 H 0.14299 0.42764 0.98743 0.0
C903 C 0.21809 0.41533 0.91812 0.0
C904 C 0.14249 0.38982 0.94801 0.0
C905 C 0.25653 0.41528 0.90936 0.0
C906 C 0.05718 0.39028 0.03035 0.0
C907 C 0.08188 0.38987 0.01188 0.0
C908 C 0.14178 0.41715 0.97634 0.0
C909 C 0.20321 0.4012 0.92886 0.0
C910 C 0.16991 0.40277 0.94479 0.0
C911 C 0.08848 0.4043 0.99947 0.0
C912 C 0.11521 0.40399 0.98004 0.0
H913 H 0.28159 0.37523 0.92036 0.0
H914 H 0.2147 0.37524 0.93584 0.0
H915 H 0.19005 0.42656 0.9574 0.0
H916 H 0.03208 0.43127 0.02924 0.0
H917 H 0.07443 0.4305 0.99689 0.0
C918 C 0.2319 0.62587 0.91917 0.0
C919 C 0.20619 0.63904 0.91436 0.0
C920 C 0.2705 0.62898 0.92644 0.0
C921 C 0.31531 0.6594 0.96161 0.0
H922 H 0.40569 0.62959 0.95787 0.0
C923 C 0.43757 0.65657 0.02866 0.0
C924 C 0.44809 0.64041 0.03514 0.0
C925 C 0.41418 0.6591 0.00999 0.0
C926 C 0.38071 0.63805 0.95908 0.0
H927 H 0.20089 0.66569 0.91161 0.0
H928 H 0.26877 0.67127 0.92456 0.0
H929 H 0.35631 0.62982 0.9285 0.0
H930 H 0.44128 0.61428 0.02756 0.0
H931 H 0.40024 0.61867 0.99523 0.0
H932 H 0.33839 0.66695 0.99274 0.0
C933 C 0.25923 0.65852 0.92252 0.0
C934 C 0.35264 0.63826 0.9422 0.0
C935 C 0.22064 0.65535 0.91489 0.0
C936 C 0.43412 0.62688 0.02282 0.0
C937 C 0.41086 0.62941 1.0042 0.0
C938 C 0.34337 0.65918 0.97849 0.0
C939 C 0.28372 0.64537 0.92948 0.0
C940 C 0.31874 0.64842 0.94374 0.0
C941 C 0.40095 0.64554 0.99743 0.0
C942 C 0.37542 0.64798 0.97784 0.0
H943 H 0.22098 0.61322 0.91923 0.0
H944 H 0.28834 0.61856 0.93183 0.0
H945 H 0.28929 0.66723 0.96345 0.0
H946 H 0.4484 0.66727 0.03762 0.0
H947 H 0.40707 0.67168 1.00517 0.0
C948 C 0.56273 0.62726 0.47841 0.0
C949 C 0.54753 0.64088 0.46679 0.0
C950 C 0.58807 0.62967 0.49623 0.0
C951 C 0.65752 0.6592 0.52114 0.0
H952 H 0.64386 0.63085 0.57192 0.0
C953 C 0.77624 0.65769 0.58817 0.0
C954 C 0.79061 0.64149 0.59078 0.0
C955 C 0.73903 0.66034 0.57843 0.0
C956 C 0.64784 0.63896 0.55795 0.0
H957 H 0.54764 0.66774 0.4645 0.0
H958 H 0.59264 0.67194 0.49551 0.0
H959 H 0.59482 0.63009 0.54242 0.0
H960 H 0.77712 0.61541 0.58701 0.0
H961 H 0.71211 0.61991 0.57057 0.0
H962 H 0.71146 0.66753 0.53619 0.0
C963 C 0.58483 0.65939 0.49078 0.0
C964 C 0.61995 0.63845 0.54101 0.0
C965 C 0.55932 0.65698 0.47293 0.0
C966 C 0.7662 0.628 0.58541 0.0
C967 C 0.72896 0.63062 0.57599 0.0
C968 C 0.68547 0.6597 0.5381 0.0
C969 C 0.59889 0.64577 0.50284 0.0
C970 C 0.62528 0.64812 0.52208 0.0
C971 C 0.71581 0.6468 0.5714 0.0
C972 C 0.68166 0.64914 0.55631 0.0
H973 H 0.55462 0.61471 0.47387 0.0
H974 H 0.59927 0.6189 0.50483 0.0
H975 H 0.66248 0.66677 0.50675 0.0
H976 H 0.79509 0.66824 0.59189 0.0
H977 H 0.7295 0.67294 0.5752 0.0
C978 C 0.93044 0.38343 0.47755 0.0
C979 C 0.94312 0.39932 0.47114 0.0
C980 C 0.90622 0.38142 0.49603 0.0
C981 C 0.87428 0.40332 0.54675 0.0
H982 H 0.78272 0.37415 0.54371 0.0
C983 C 0.72766 0.41438 0.59089 0.0
C984 C 0.70312 0.40091 0.59617 0.0
C985 C 0.76558 0.41171 0.58226 0.0
C986 C 0.80875 0.38202 0.54514 0.0
H987 H 0.93922 0.42558 0.47856 0.0
H988 H 0.89643 0.42213 0.51049 0.0
H989 H 0.83052 0.37442 0.51372 0.0
H990 H 0.69946 0.37418 0.59831 0.0
H991 H 0.76614 0.3694 0.58309 0.0
H992 H 0.85122 0.41154 0.57769 0.0
C993 C 0.90605 0.41116 0.50165 0.0
C994 C 0.83608 0.38223 0.52785 0.0
C995 C 0.93028 0.41316 0.48325 0.0
C996 C 0.71833 0.38474 0.59473 0.0
C997 C 0.75619 0.38203 0.58576 0.0
C998 C 0.84689 0.40314 0.56401 0.0
C999 C 0.89416 0.39526 0.50846 0.0
C1000 C 0.86839 0.39331 0.52811 0.0
C1001 C 0.77925 0.39548 0.57834 0.0
C1002 C 0.8131 0.3929 0.56304 0.0
H1003 H 0.94039 0.3725 0.46874 0.0
H1004 H 0.89772 0.36899 0.50088 0.0
H1005 H 0.89946 0.4117 0.54771 0.0
H1006 H 0.7161 0.42692 0.59152 0.0
H1007 H 0.78236 0.42235 0.57658 0.0
C1008 C 0.12627 0.05657 0.12316 0.0
C1009 C 0.13831 0.07222 0.1154 0.0
C1010 C 0.15342 0.04343 0.12456 0.0
C1011 C 0.24867 0.02903 0.10091 0.0
H1012 H 0.2477 0.99775 0.14911 0.0
C1013 C 0.36971 0.97882 0.10946 0.0
C1014 C 0.35818 0.96283 0.11623 0.0
C1015 C 0.343 0.9921 0.11031 0.0
C1016 C 0.24808 1.00626 0.1354 0.0
H1017 H 0.18886 0.0863 0.1034 0.0
H1018 H 0.23628 0.06352 0.10619 0.0
H1019 H 0.20156 0.02119 0.1493 0.0
H1020 H 0.30911 0.94856 0.12966 0.0
H1021 H 0.26224 0.97169 0.13068 0.0
H1022 H 0.2948 1.01411 0.08687 0.0
C1023 C 0.20565 0.06135 0.11096 0.0
C1024 C 0.22165 0.01973 0.13553 0.0
C1025 C 0.17851 0.0745 0.10962 0.0
C1026 C 0.31909 0.9606 0.1241 0.0
C1027 C 0.29227 0.97393 0.12491 0.0
C1028 C 0.27497 1.01558 0.10075 0.0
C1029 C 0.19335 0.04558 0.11817 0.0
C1030 C 0.2217 0.03132 0.11831 0.0
C1031 C 0.30381 0.98985 0.11786 0.0
C1032 C 0.27518 1.00403 0.11803 0.0
H1033 H 0.09567 0.05441 0.12797 0.0
H1034 H 0.14282 0.03146 0.13006 0.0
H1035 H 0.249 0.0375 0.08715 0.0
H1036 H 0.39922 0.98112 0.10305 0.0
H1037 H 0.35321 1.00421 0.10505 0.0
C1038 C 0.62702 0.9787 0.38224 0.0
C1039 C 0.63846 0.96311 0.39045 0.0
C1040 C 0.65451 0.99173 0.38086 0.0
C1041 C 0.74801 1.00616 0.40607 0.0
H1042 H 0.75183 0.03685 0.35725 0.0
C1043 C 0.86911 0.05655 0.401 0.0
C1044 C 0.8583 0.07245 0.39347 0.0
C1045 C 0.84292 0.04314 0.39919 0.0
C1046 C 0.75087 0.02851 0.37114 0.0
H1047 H 0.68827 0.94901 0.40316 0.0
H1048 H 0.73622 0.97159 0.40053 0.0
H1049 H 0.70535 1.01351 0.35637 0.0
H1050 H 0.81104 0.08623 0.37738 0.0
H1051 H 0.76511 0.06299 0.37488 0.0
H1052 H 0.79281 0.02118 0.42107 0.0
C1053 C 0.70584 0.97379 0.39534 0.0
C1054 C 0.72426 1.0151 0.3706 0.0
C1055 C 0.67842 0.96075 0.3966 0.0
C1056 C 0.82057 0.07435 0.38367 0.0
C1057 C 0.79423 0.06091 0.38198 0.0
C1058 C 0.77439 0.01957 0.40666 0.0
C1059 C 0.6941 0.98953 0.38778 0.0
C1060 C 0.72262 1.00372 0.38803 0.0
C1061 C 0.80489 0.04515 0.38995 0.0
C1062 C 0.77636 0.03091 0.38918 0.0
H1063 H 0.59661 0.98091 0.37716 0.0
H1064 H 0.64439 1.0037 0.37505 0.0
H1065 H 0.74698 0.99785 0.41999 0.0
H1066 H 0.89752 0.05438 0.40877 0.0
H1067 H 0.85259 0.03115 0.40513 0.0
C1068 C 0.67904 0.07649 0.89253 0.0
C1069 C 0.63766 0.07382 0.89349 0.0
C1070 C 0.70561 0.06308 0.89192 0.0
C1071 C 0.71287 1.01825 0.90492 0.0
H1072 H 0.80502 0.01943 0.8666 0.0
C1073 C 0.814 0.96089 0.89375 0.0
C1074 C 0.85541 0.96362 0.89371 0.0
C1075 C 0.78732 0.9742 0.89225 0.0
C1076 C 0.77965 0.01895 0.87755 0.0
H1077 H 0.59204 0.0548 0.89491 0.0
H1078 H 0.63812 0.03152 0.89355 0.0
H1079 H 0.75927 0.04297 0.86753 0.0
H1080 H 0.90092 0.98259 0.89084 0.0
H1081 H 0.85457 1.00574 0.88862 0.0
H1082 H 0.73328 0.99433 0.91511 0.0
C1083 C 0.65013 0.04399 0.89341 0.0
C1084 C 0.75341 0.03247 0.8781 0.0
C1085 C 0.62361 0.05738 0.89394 0.0
C1086 C 0.86932 0.97998 0.89125 0.0
C1087 C 0.84264 0.99329 0.88975 0.0
C1088 C 0.7391 1.00476 0.9044 0.0
C1089 C 0.69149 0.04664 0.89236 0.0
C1090 C 0.71965 0.0323 0.8918 0.0
C1091 C 0.80126 0.99062 0.89064 0.0
C1092 C 0.77287 1.0049 0.89071 0.0
H1093 H 0.69093 0.08895 0.89193 0.0
H1094 H 0.73727 0.06561 0.89134 0.0
H1095 H 0.68758 1.01778 0.91594 0.0
H1096 H 0.80199 0.94854 0.8957 0.0
H1097 H 0.75568 0.97161 0.8926 0.0
C1098 C 0.11199 0.98127 0.6113 0.0
C1099 C 0.12297 0.96553 0.61929 0.0
C1100 C 0.13792 0.99478 0.61286 0.0
C1101 C 0.22856 1.01027 0.64124 0.0
H1102 H 0.23458 0.03964 0.59108 0.0
C1103 C 0.35256 0.05985 0.6304 0.0
C1104 C 0.34208 0.07513 0.6209 0.0
C1105 C 0.32489 0.0469 0.6318 0.0
C1106 C 0.23291 0.03172 0.60537 0.0
H1107 H 0.17008 0.95206 0.63587 0.0
H1108 H 0.21563 0.97555 0.63813 0.0
H1109 H 0.18893 1.01623 0.59042 0.0
H1110 H 0.29381 0.08877 0.60575 0.0
H1111 H 0.24534 0.06635 0.60856 0.0
H1112 H 0.27304 0.02575 0.65603 0.0
C1113 C 0.18662 0.97741 0.63081 0.0
C1114 C 0.20668 1.01825 0.605 0.0
C1115 C 0.16056 0.96385 0.62929 0.0
C1116 C 0.30283 0.07728 0.61339 0.0
C1117 C 0.27517 0.06431 0.61473 0.0
C1118 C 0.25492 0.02376 0.64159 0.0
C1119 C 0.1758 0.99302 0.62237 0.0
C1120 C 0.20403 1.00735 0.62293 0.0
C1121 C 0.286 0.04887 0.62366 0.0
C1122 C 0.25739 0.03468 0.62366 0.0
H1123 H 0.08366 0.98318 0.60329 0.0
H1124 H 0.12822 1.00665 0.60651 0.0
H1125 H 0.22701 1.00227 0.65545 0.0
H1126 H 0.38241 0.05782 0.63653 0.0
H1127 H 0.3344 0.03517 0.63865 0.0
C1128 C 0.84759 0.47515 0.12987 0.0
C1129 C 0.83728 0.4598 0.12044 0.0
C1130 C 0.81979 0.48804 0.13122 0.0
C1131 C 0.72763 0.50298 0.10485 0.0
H1132 H 0.72334 0.53307 0.15449 0.0
C1133 C 0.61011 0.55511 0.11028 0.0
C1134 C 0.62272 0.57075 0.11791 0.0
C1135 C 0.63488 0.54122 0.11193 0.0
C1136 C 0.72441 0.52488 0.14041 0.0
H1137 H 0.7891 0.44594 0.10544 0.0
H1138 H 0.74037 0.46831 0.10815 0.0
H1139 H 0.76833 0.50928 0.15535 0.0
H1140 H 0.67131 0.58374 0.13388 0.0
H1141 H 0.71478 0.5596 0.13636 0.0
H1142 H 0.68414 0.51863 0.08978 0.0
C1143 C 0.7702 0.47043 0.11429 0.0
C1144 C 0.75019 0.51122 0.14091 0.0
C1145 C 0.79802 0.45751 0.11299 0.0
C1146 C 0.66065 0.572 0.12759 0.0
C1147 C 0.68547 0.55808 0.12924 0.0
C1148 C 0.70191 0.51664 0.10434 0.0
C1149 C 0.7809 0.48595 0.12313 0.0
C1150 C 0.75225 0.50012 0.1231 0.0
C1151 C 0.67304 0.54253 0.12124 0.0
C1152 C 0.70002 0.52781 0.12207 0.0
H1153 H 0.87741 0.47728 0.13598 0.0
H1154 H 0.82923 0.49984 0.13798 0.0
H1155 H 0.72893 0.4949 0.09066 0.0
H1156 H 0.5814 0.55358 0.10251 0.0
H1157 H 0.62404 0.52942 0.10586 0.0
C1158 C 0.36313 0.55947 0.38154 0.0
C1159 C 0.35076 0.57449 0.3912 0.0
C1160 C 0.33743 0.54578 0.38065 0.0
C1161 C 0.24827 0.52863 0.40826 0.0
H1162 H 0.24185 0.49964 0.35758 0.0
C1163 C 0.12539 0.47936 0.40066 0.0
C1164 C 0.13555 0.46357 0.39248 0.0
C1165 C 0.15237 0.49253 0.39967 0.0
C1166 C 0.24363 0.50751 0.37196 0.0
H1167 H 0.30144 0.58675 0.40745 0.0
H1168 H 0.25645 0.56318 0.40541 0.0
H1169 H 0.28717 0.5234 0.35709 0.0
H1170 H 0.18231 0.44951 0.37639 0.0
H1171 H 0.22974 0.47251 0.37495 0.0
H1172 H 0.2049 0.51284 0.42317 0.0
C1173 C 0.28618 0.56188 0.39871 0.0
C1174 C 0.2696 0.52114 0.37167 0.0
C1175 C 0.31181 0.57554 0.39957 0.0
C1176 C 0.17349 0.46141 0.38302 0.0
C1177 C 0.20058 0.47465 0.38201 0.0
C1178 C 0.2224 0.51506 0.40855 0.0
C1179 C 0.29877 0.54675 0.3895 0.0
C1180 C 0.27195 0.53198 0.38976 0.0
C1181 C 0.19046 0.49034 0.39054 0.0
C1182 C 0.2194 0.5044 0.39033 0.0
H1183 H 0.39282 0.55826 0.3748 0.0
H1184 H 0.34824 0.5343 0.37355 0.0
H1185 H 0.24996 0.53645 0.4227 0.0
H1186 H 0.09681 0.48157 0.40832 0.0
H1187 H 0.14328 0.50448 0.40611 0.0
C1188 C 0.31594 0.46178 0.88855 0.0
C1189 C 0.35671 0.4639 0.89316 0.0
C1190 C 0.29093 0.47553 0.88562 0.0
C1191 C 0.28407 0.51982 0.90072 0.0
H1192 H 0.19735 0.52079 0.85884 0.0
C1193 C 0.18345 0.57753 0.89248 0.0
C1194 C 0.14224 0.57479 0.89022 0.0
C1195 C 0.21061 0.56443 0.89037 0.0
C1196 C 0.2212 0.52067 0.87077 0.0
H1197 H 0.4034 0.48235 0.89651 0.0
H1198 H 0.35998 0.50618 0.89148 0.0
H1199 H 0.24268 0.49708 0.85947 0.0
H1200 H 0.09788 0.55603 0.88276 0.0
H1201 H 0.14493 0.53322 0.8797 0.0
H1202 H 0.26233 0.54315 0.9124 0.0
C1203 C 0.34711 0.49388 0.89072 0.0
C1204 C 0.24724 0.50707 0.8711 0.0
C1205 C 0.37207 0.48015 0.89361 0.0
C1206 C 0.12921 0.55865 0.88499 0.0
C1207 C 0.15637 0.54554 0.88295 0.0
C1208 C 0.258 0.53336 0.90045 0.0
C1209 C 0.30605 0.49177 0.88717 0.0
C1210 C 0.27896 0.50645 0.88613 0.0
C1211 C 0.19742 0.54818 0.88599 0.0
C1212 C 0.22608 0.53398 0.88554 0.0
H1213 H 0.30286 0.44956 0.88801 0.0
H1214 H 0.25943 0.47342 0.88301 0.0
H1215 H 0.30767 0.51964 0.91281 0.0
H1216 H 0.19488 0.58967 0.89658 0.0
H1217 H 0.24203 0.56704 0.89242 0.0
C1218 C 0.80507 0.57747 0.62284 0.0
C1219 C 0.84637 0.57551 0.62572 0.0
C1220 C 0.77968 0.56368 0.62306 0.0
C1221 C 0.77789 0.51853 0.614 0.0
H1222 H 0.67958 0.52004 0.64733 0.0
C1223 C 0.67547 0.461 0.62049 0.0
C1224 C 0.63406 0.4637 0.61956 0.0
C1225 C 0.70195 0.47432 0.62293 0.0
C1226 C 0.70664 0.51943 0.63769 0.0
H1227 H 0.89334 0.55746 0.63066 0.0
H1228 H 0.84908 0.5334 0.63088 0.0
H1229 H 0.72404 0.54396 0.64744 0.0
H1230 H 0.5884 0.48271 0.62161 0.0
H1231 H 0.63421 0.50579 0.625 0.0
H1232 H 0.76023 0.49424 0.60371 0.0
C1233 C 0.83635 0.54561 0.62855 0.0
C1234 C 0.73218 0.53316 0.63782 0.0
C1235 C 0.86167 0.55942 0.62861 0.0
C1236 C 0.61997 0.48006 0.62187 0.0
C1237 C 0.64641 0.49337 0.62413 0.0
C1238 C 0.75216 0.50485 0.61367 0.0
C1239 C 0.79503 0.54758 0.62587 0.0
C1240 C 0.76806 0.5329 0.62593 0.0
C1241 C 0.68784 0.49074 0.62439 0.0
C1242 C 0.71605 0.50511 0.62546 0.0
H1243 H 0.7923 0.58969 0.62075 0.0
H1244 H 0.74802 0.5656 0.62077 0.0
H1245 H 0.80511 0.51799 0.60448 0.0
H1246 H 0.68775 0.44867 0.61871 0.0
H1247 H 0.73356 0.47171 0.62349 0.0
C1248 C 0.93204 0.32527 0.11281 0.0
C1249 C 0.94124 0.33424 0.09375 0.0
C1250 C 0.94591 0.30893 0.11542 0.0
C1251 C 0.98354 0.27386 0.08136 0.0
H1252 H 0.01765 0.25473 0.13652 0.0
C1253 C 0.07394 0.21427 0.08346 0.0
C1254 C 0.05796 0.20106 0.09565 0.0
C1255 C 0.05962 0.23038 0.08614 0.0
C1256 C 0.00786 0.25992 0.12108 0.0
H1257 H 0.97449 0.33375 0.06336 0.0
H1258 H -0.00032 0.30576 0.0681 0.0
H1259 H 0.99306 0.28346 0.13557 0.0
H1260 H 0.01607 0.19474 0.12139 0.0
H1261 H 0.9914 0.22323 0.12639 0.0
H1262 H -0.00061 0.25064 0.06675 0.0
C1263 C 0.9804 0.31085 0.08067 0.0
C1264 C -0.00629 0.27634 0.12051 0.0
C1265 C 0.96617 0.32696 0.07796 0.0
C1266 C 0.02904 0.20461 0.11174 0.0
C1267 C 0.01487 0.22089 0.11458 0.0
C1268 C -0.00196 0.25767 0.08191 0.0
C1269 C 0.96957 0.30139 0.09909 0.0
C1270 C 0.98212 0.28362 0.10051 0.0
C1271 C 0.02922 0.23381 0.10128 0.0
C1272 C 0.011 0.2506 0.10165 0.0
H1273 H 0.91285 0.33064 0.12521 0.0
H1274 H 0.93695 0.30204 0.12983 0.0
H1275 H 0.97365 0.27877 0.06578 0.0
H1276 H 0.097 0.21211 0.07138 0.0
H1277 H 0.07173 0.24016 0.07596 0.0
C1278 C 0.47247 0.82824 0.07854 0.0
C1279 C 0.44548 0.8345 0.09405 0.0
C1280 C 0.48847 0.81238 0.08081 0.0
C1281 C 0.50108 0.77683 0.1194 0.0
H1282 H 0.51608 0.75287 0.06481 0.0
C1283 C 0.53865 0.7058 0.11049 0.0
C1284 C 0.56907 0.70208 0.09531 0.0
C1285 C 0.52447 0.7221 0.11281 0.0
C1286 C 0.51228 0.75943 0.08019 0.0
H1287 H 0.41495 0.82941 0.12449 0.0
H1288 H 0.44185 0.80118 0.12823 0.0
H1289 H 0.48889 0.78075 0.06413 0.0
H1290 H 0.61022 0.71295 0.07194 0.0
H1291 H 0.58484 0.74107 0.07558 0.0
H1292 H 0.52363 0.75496 0.13533 0.0
C1293 C 0.45129 0.80868 0.11447 0.0
C1294 C 0.4969 0.7755 0.07984 0.0
C1295 C 0.43576 0.82478 0.11235 0.0
C1296 C 0.58609 0.71519 0.08333 0.0
C1297 C 0.57168 0.73135 0.08547 0.0
C1298 C 0.51604 0.76056 0.11976 0.0
C1299 C 0.47727 0.80213 0.09844 0.0
C1300 C 0.49178 0.7846 0.09936 0.0
C1301 C 0.54017 0.73494 0.09987 0.0
C1302 C 0.52242 0.75183 0.10009 0.0
H1303 H 0.48102 0.83566 0.06453 0.0
H1304 H 0.50942 0.8081 0.06854 0.0
H1305 H 0.49773 0.78343 0.13477 0.0
H1306 H 0.52465 0.69607 0.11994 0.0
H1307 H 0.50007 0.72452 0.124 0.0
C1308 C 0.54864 0.82806 0.39876 0.0
C1309 C 0.54345 0.83666 0.41862 0.0
C1310 C 0.53391 0.81184 0.3963 0.0
C1311 C 0.50034 0.77617 0.4306 0.0
H1312 H 0.45695 0.75884 0.37628 0.0
C1313 C 0.40686 0.71716 0.42899 0.0
C1314 C 0.42057 0.70427 0.41534 0.0
C1315 C 0.4216 0.73325 0.4268 0.0
C1316 C 0.4693 0.76353 0.39148 0.0
H1317 H 0.5165 0.83559 0.45082 0.0
H1318 H 0.48974 0.80782 0.44641 0.0
H1319 H 0.48297 0.78731 0.37756 0.0
H1320 H 0.45897 0.69861 0.38767 0.0
H1321 H 0.48406 0.72704 0.38353 0.0
H1322 H 0.48549 0.75269 0.44468 0.0
C1323 C 0.50663 0.81309 0.433 0.0
C1324 C 0.48431 0.7798 0.39223 0.0
C1325 C 0.52178 0.82908 0.43554 0.0
C1326 C 0.44763 0.70819 0.39845 0.0
C1327 C 0.46211 0.72445 0.39609 0.0
C1328 C 0.48489 0.76012 0.4299 0.0
C1329 C 0.51329 0.80403 0.41359 0.0
C1330 C 0.49942 0.78643 0.41195 0.0
C1331 C 0.45004 0.737 0.4107 0.0
C1332 C 0.46869 0.7537 0.41047 0.0
H1333 H 0.56526 0.83367 0.38549 0.0
H1334 H 0.53974 0.80528 0.38113 0.0
H1335 H 0.5129 0.78055 0.44589 0.0
H1336 H 0.38524 0.71478 0.44176 0.0
H1337 H 0.41127 0.74276 0.43803 0.0
C1338 C 0.02827 0.32746 0.43169 0.0
C1339 C 0.0514 0.33503 0.41537 0.0
C1340 C 0.01341 0.31146 0.42878 0.0
C1341 C -0.00495 0.27816 0.38739 0.0
H1342 H 0.98922 0.25123 0.43993 0.0
C1343 C 0.95673 0.20643 0.3952 0.0
C1344 C 0.92464 0.20356 0.40962 0.0
C1345 C 0.9727 0.22244 0.3928 0.0
C1346 C 0.99077 0.25861 0.42512 0.0
H1347 H 0.07628 0.33201 0.38291 0.0
H1348 H 0.05139 0.30358 0.37794 0.0
H1349 H 0.01744 0.27895 0.44195 0.0
H1350 H 0.88232 0.21567 0.43134 0.0
H1351 H 0.91108 0.24321 0.42777 0.0
H1352 H 0.96897 0.25726 0.37064 0.0
C1353 C 0.04412 0.31016 0.39291 0.0
C1354 C 0.00659 0.27458 0.42626 0.0
C1355 C 0.0585 0.3264 0.39572 0.0
C1356 C 0.9077 0.21723 0.42061 0.0
C1357 C 0.92394 0.23307 0.41846 0.0
C1358 C 0.97974 0.26196 0.3862 0.0
C1359 C 0.02189 0.30237 0.40961 0.0
C1360 C 0.00802 0.2848 0.40757 0.0
C1361 C 0.95706 0.23577 0.40493 0.0
C1362 C 0.97671 0.25222 0.40518 0.0
H1363 H 0.02157 0.334 0.44678 0.0
H1364 H -0.00476 0.30622 0.44171 0.0
H1365 H -0.0045 0.28562 0.37266 0.0
H1366 H 0.97064 0.19625 0.3865 0.0
H1367 H -0.00165 0.22426 0.38229 0.0
C1368 C 0.91228 0.82021 0.92654 0.0
C1369 C 0.92832 0.83381 0.91504 0.0
C1370 C 0.92917 0.80445 0.92474 0.0
C1371 C 0.98298 0.77527 0.89216 0.0
H1372 H 0.0249 0.75875 0.94714 0.0
C1373 C 0.06101 0.71065 0.90004 0.0
C1374 C 0.05589 0.70219 0.91995 0.0
C1375 C 0.0468 0.72694 0.89759 0.0
C1376 C 0.01284 0.76298 0.93168 0.0
H1377 H 0.97386 0.84091 0.89151 0.0
H1378 H 0.00245 0.81306 0.8879 0.0
H1379 H -0.00327 0.78651 0.94547 0.0
H1380 H 0.02977 0.70363 0.95233 0.0
H1381 H 0.00363 0.73149 0.94792 0.0
H1382 H -0.00273 0.75145 0.87854 0.0
C1383 C 0.97703 0.81492 0.89857 0.0
C1384 C -0.00291 0.77899 0.93073 0.0
C1385 C 0.96051 0.83087 0.90065 0.0
C1386 C 0.03493 0.71002 0.93698 0.0
C1387 C 0.02019 0.72608 0.93445 0.0
C1388 C -0.00185 0.75905 0.89318 0.0
C1389 C 0.962 0.80169 0.91102 0.0
C1390 C 0.98161 0.78522 0.91107 0.0
C1391 C 0.02664 0.73498 0.91492 0.0
C1392 C 0.0127 0.75257 0.91309 0.0
H1393 H 0.88688 0.82167 0.93727 0.0
H1394 H 0.91679 0.79437 0.93432 0.0
H1395 H 0.97101 0.77983 0.87683 0.0
H1396 H 0.07714 0.70485 0.88669 0.0
H1397 H 0.05256 0.73335 0.88234 0.0
C1398 C 0.5692 0.21505 0.93158 0.0
C1399 C 0.55915 0.20248 0.91652 0.0
C1400 C 0.55568 0.23127 0.9287 0.0
C1401 C 0.51916 0.26239 0.89071 0.0
H1402 H 0.45998 0.27851 0.94103 0.0
C1403 C 0.43579 0.3262 0.89198 0.0
C1404 C 0.43322 0.33438 0.91226 0.0
C1405 C 0.45268 0.31027 0.89061 0.0
C1406 C 0.477 0.27442 0.92694 0.0
H1407 H 0.52888 0.19756 0.88576 0.0
H1408 H 0.50605 0.22619 0.8805 0.0
H1409 H 0.48786 0.25074 0.94154 0.0
H1410 H 0.44853 0.33308 0.9466 0.0
H1411 H 0.47969 0.3059 0.94422 0.0
H1412 H 0.50939 0.28633 0.87635 0.0
C1413 C 0.52413 0.22325 0.89467 0.0
C1414 C 0.4927 0.2584 0.92721 0.0
C1415 C 0.53729 0.20687 0.89769 0.0
C1416 C 0.44961 0.32684 0.93086 0.0
C1417 C 0.46712 0.31118 0.92946 0.0
C1418 C 0.50393 0.27863 0.89056 0.0
C1419 C 0.53228 0.23547 0.91051 0.0
C1420 C 0.51428 0.25227 0.90924 0.0
C1421 C 0.46785 0.3024 0.90948 0.0
C1422 C 0.48306 0.28495 0.90884 0.0
H1423 H 0.58691 0.21233 0.94593 0.0
H1424 H 0.56295 0.24052 0.94098 0.0
H1425 H 0.53574 0.25792 0.87664 0.0
H1426 H 0.42319 0.33183 0.87745 0.0
H1427 H 0.45253 0.30394 0.87494 0.0
C1428 C 0.45637 0.20637 0.61297 0.0
C1429 C 0.4317 0.2024 0.59502 0.0
C1430 C 0.47076 0.22261 0.61584 0.0
C1431 C 0.5003 0.25768 0.58322 0.0
H1432 H 0.48538 0.28637 0.63366 0.0
C1433 C 0.53679 0.32663 0.57684 0.0
C1434 C 0.55372 0.33492 0.5948 0.0
C1435 C 0.5216 0.31062 0.57907 0.0
C1436 C 0.4904 0.27845 0.61958 0.0
H1437 H 0.40042 0.2129 0.56714 0.0
H1438 H 0.42655 0.24077 0.57174 0.0
H1439 H 0.4598 0.25782 0.63441 0.0
H1440 H 0.56698 0.33319 0.62939 0.0
H1441 H 0.54147 0.30477 0.63332 0.0
H1442 H 0.53152 0.27776 0.5684 0.0
C1443 C 0.43501 0.23131 0.58344 0.0
C1444 C 0.47564 0.26213 0.62003 0.0
C1445 C 0.42028 0.21525 0.58074 0.0
C1446 C 0.55404 0.32703 0.61531 0.0
C1447 C 0.53934 0.31078 0.61751 0.0
C1448 C 0.51553 0.27378 0.58288 0.0
C1449 C 0.46102 0.23509 0.6007 0.0
C1450 C 0.47972 0.25176 0.60162 0.0
C1451 C 0.52356 0.30224 0.59927 0.0
C1452 C 0.50992 0.28459 0.60079 0.0
H1453 H 0.46586 0.19684 0.62428 0.0
H1454 H 0.49083 0.22525 0.62929 0.0
H1455 H 0.50439 0.24984 0.56894 0.0
H1456 H 0.53534 0.33258 0.56097 0.0
H1457 H 0.50842 0.3048 0.56481 0.0
C1458 C 0.93413 0.71294 0.57473 0.0
C1459 C 0.93893 0.70151 0.59193 0.0
C1460 C 0.9474 0.72927 0.57683 0.0
C1461 C 0.97436 0.76244 0.61516 0.0
H1462 H 0.0388 0.77786 0.56653 0.0
C1463 C 0.05111 0.82773 0.6131 0.0
C1464 C 0.05283 0.83557 0.59256 0.0
C1465 C 0.03704 0.81136 0.61489 0.0
C1466 C 0.02043 0.7739 0.58015 0.0
H1467 H 0.96005 0.69875 0.62534 0.0
H1468 H 0.98259 0.72753 0.62912 0.0
H1469 H 0.01361 0.74962 0.56645 0.0
H1470 H 0.03859 0.83287 0.55812 0.0
H1471 H 0.01339 0.80477 0.56119 0.0
H1472 H 0.98043 0.78696 0.6286 0.0
C1473 C 0.9687 0.72365 0.61394 0.0
C1474 C 0.00614 0.75765 0.58012 0.0
C1475 C 0.95569 0.70716 0.61176 0.0
C1476 C 0.03869 0.82701 0.57407 0.0
C1477 C 0.02433 0.81083 0.57586 0.0
C1478 C 0.98838 0.77887 0.6151 0.0
C1479 C 0.96551 0.73475 0.59628 0.0
C1480 C 0.98245 0.75178 0.59742 0.0
C1481 C 0.02408 0.8026 0.59617 0.0
C1482 C 0.01105 0.78489 0.59736 0.0
H1483 H 0.9204 0.70926 0.55944 0.0
H1484 H 0.94377 0.73763 0.56309 0.0
H1485 H 0.95613 0.75824 0.62872 0.0
H1486 H 0.06181 0.83407 0.62761 0.0
H1487 H 0.03739 0.80543 0.63079 0.0
C1488 C 0.98737 0.12905 0.17233 0.0
C1489 C 0.01928 0.13662 0.16125 0.0
C1490 C 0.97985 0.13258 0.19436 0.0
C1491 C 0.9587 0.1467 0.23878 0.0
H1492 H 0.04975 0.14771 0.27775 0.0
C1493 C 0.9398 0.14939 0.33323 0.0
C1494 C 0.96428 0.1384 0.34498 0.0
C1495 C 0.94703 0.15251 0.31096 0.0
C1496 C 0.02396 0.14746 0.26711 0.0
H1497 H 0.06758 0.15431 0.16456 0.0
H1498 H 0.05421 0.1606 0.20315 0.0
H1499 H 0.06026 0.14691 0.23826 0.0
H1500 H 0.01621 0.12243 0.3426 0.0
H1501 H 0.02832 0.12764 0.30407 0.0
H1502 H 0.92244 0.14634 0.26765 0.0
C1503 C 0.03532 0.15174 0.19478 0.0
C1504 C 0.03 0.14721 0.24441 0.0
C1505 C 0.04288 0.14819 0.17263 0.0
C1506 C -0.00332 0.13097 0.33412 0.0
C1507 C 0.00388 0.13408 0.31197 0.0
C1508 C 0.95266 0.1469 0.26148 0.0
C1509 C 0.00393 0.14383 0.20598 0.0
C1510 C -0.00254 0.14639 0.22995 0.0
C1511 C 0.97897 0.14474 0.3 0.0
C1512 C 0.98524 0.14684 0.27595 0.0
H1513 H 0.96853 0.12007 0.16414 0.0
H1514 H 0.95587 0.12602 0.20247 0.0
H1515 H 0.93292 0.14637 0.22814 0.0
H1516 H 0.91469 0.15538 0.34113 0.0
H1517 H 0.92747 0.16092 0.3023 0.0
C1518 C 0.5047 0.90132 0.17485 0.0
C1519 C 0.47116 0.89506 0.1638 0.0
C1520 C 0.51086 0.89789 0.19698 0.0
C1521 C 0.52718 0.88429 0.24207 0.0
H1522 H 0.43525 0.88829 0.28016 0.0
C1523 C 0.54337 0.88569 0.33666 0.0
C1524 C 0.5208 0.89805 0.34722 0.0
C1525 C 0.53597 0.88161 0.31466 0.0
C1526 C 0.46128 0.88713 0.26977 0.0
H1527 H 0.41847 0.87973 0.16726 0.0
H1528 H 0.42948 0.87356 0.20607 0.0
H1529 H 0.42604 0.88802 0.2406 0.0
H1530 H 0.47209 0.91548 0.34304 0.0
H1531 H 0.45985 0.90865 0.305 0.0
H1532 H 0.5626 0.88444 0.2712 0.0
C1533 C 0.45074 0.88135 0.19757 0.0
C1534 C 0.45594 0.88676 0.24703 0.0
C1535 C 0.4445 0.88482 0.17531 0.0
C1536 C 0.49011 0.90589 0.3355 0.0
C1537 C 0.48279 0.90185 0.31363 0.0
C1538 C 0.53254 0.88476 0.2648 0.0
C1539 C 0.48377 0.88803 0.20876 0.0
C1540 C 0.48891 0.88583 0.23286 0.0
C1541 C 0.50582 0.88979 0.30281 0.0
C1542 C 0.49974 0.8867 0.27892 0.0
H1543 H 0.52592 0.90925 0.16655 0.0
H1544 H 0.53623 0.90352 0.20504 0.0
H1545 H 0.55322 0.88322 0.23167 0.0
H1546 H 0.56711 0.87935 0.34525 0.0
H1547 H 0.55405 0.87214 0.30691 0.0
C1548 C 0.94496 0.88613 0.8375 0.0
C1549 C 0.96525 0.899 0.84836 0.0
C1550 C 0.95356 0.8824 0.81553 0.0
C1551 C 0.02842 0.88994 0.77123 0.0
H1552 H 0.93817 0.88383 0.7325 0.0
C1553 C 0.98614 0.90275 0.6759 0.0
C1554 C 0.02034 0.89688 0.66506 0.0
C1555 C 0.97983 0.89936 0.69805 0.0
C1556 C 0.96375 0.8855 0.74308 0.0
H1557 H 0.01125 0.91773 0.84476 0.0
H1558 H 0.02565 0.91145 0.80669 0.0
H1559 H 0.92758 0.88492 0.77196 0.0
H1560 H 0.07414 0.8823 0.6689 0.0
H1561 H 0.06297 0.87626 0.70778 0.0
H1562 H 0.06428 0.89146 0.74226 0.0
C1563 C 0.00354 0.90402 0.81509 0.0
C1564 C 0.95772 0.88592 0.76577 0.0
C1565 C -0.00501 0.90773 0.83696 0.0
C1566 C 0.04756 0.88706 0.67679 0.0
C1567 C 0.04124 0.88367 0.69908 0.0
C1568 C 0.03443 0.88957 0.74852 0.0
C1569 C 0.98269 0.89144 0.80398 0.0
C1570 C 0.98984 0.88862 0.78012 0.0
C1571 C 0.00749 0.88996 0.71004 0.0
C1572 C 0.00201 0.88782 0.73414 0.0
H1573 H 0.92203 0.8791 0.84584 0.0
H1574 H 0.93721 0.87251 0.80755 0.0
H1575 H 0.05396 0.89172 0.7818 0.0
H1576 H 0.96446 0.91033 0.66743 0.0
H1577 H 0.95386 0.90466 0.70594 0.0
C1578 C 0.54597 0.15226 0.83541 0.0
C1579 C 0.51605 0.1442 0.8475 0.0
C1580 C 0.5407 0.15547 0.813 0.0
C1581 C 0.46325 0.15561 0.76863 0.0
H1582 H 0.55335 0.14633 0.73083 0.0
C1583 C 0.4953 0.13072 0.67576 0.0
C1584 C 0.4664 0.13947 0.66379 0.0
C1585 C 0.50323 0.13472 0.69757 0.0
C1586 C 0.52779 0.14892 0.74113 0.0
H1587 H 0.45667 0.13361 0.84556 0.0
H1588 H 0.44805 0.13873 0.80683 0.0
H1589 H 0.56262 0.14697 0.77032 0.0
H1590 H 0.42397 0.15972 0.66527 0.0
H1591 H 0.43837 0.16697 0.70345 0.0
H1592 H 0.4279 0.15645 0.7395 0.0
C1593 C 0.47527 0.14296 0.81453 0.0
C1594 C 0.53326 0.14954 0.76384 0.0
C1595 C 0.48041 0.13986 0.83684 0.0
C1596 C 0.44626 0.15267 0.67407 0.0
C1597 C 0.45442 0.15677 0.69598 0.0
C1598 C 0.4577 0.15482 0.74592 0.0
C1599 C 0.50545 0.15063 0.80219 0.0
C1600 C 0.50084 0.15242 0.77796 0.0
C1601 C 0.48279 0.14772 0.70809 0.0
C1602 C 0.48968 0.15098 0.73189 0.0
H1603 H 0.57368 0.15586 0.84315 0.0
H1604 H 0.56441 0.16161 0.80412 0.0
H1605 H 0.43772 0.15826 0.77892 0.0
H1606 H 0.51133 0.12043 0.66846 0.0
H1607 H 0.52461 0.12721 0.70637 0.0
C1608 C 0.42572 0.64567 0.3304 0.0
C1609 C 0.45697 0.64363 0.3454 0.0
C1610 C 0.43398 0.64841 0.30814 0.0
C1611 C 0.51652 0.64186 0.26821 0.0
H1612 H 0.44637 0.66524 0.22842 0.0
C1613 C 0.55187 0.64716 0.17591 0.0
C1614 C 0.52063 0.64195 0.16221 0.0
C1615 C 0.54486 0.65033 0.19817 0.0
C1616 C 0.46627 0.65871 0.23939 0.0
H1617 H 0.52103 0.64421 0.34944 0.0
H1618 H 0.53542 0.64986 0.31114 0.0
H1619 H 0.43261 0.66572 0.26779 0.0
H1620 H 0.45718 0.63691 0.16084 0.0
H1621 H 0.44501 0.64262 0.1995 0.0
H1622 H 0.55009 0.63486 0.23982 0.0
C1623 C 0.5046 0.64857 0.31608 0.0
C1624 C 0.45828 0.65889 0.26194 0.0
C1625 C 0.49637 0.64548 0.33812 0.0
C1626 C 0.48197 0.64079 0.17098 0.0
C1627 C 0.47489 0.64418 0.19312 0.0
C1628 C 0.52474 0.64187 0.24576 0.0
C1629 C 0.47365 0.64946 0.3006 0.0
C1630 C 0.48308 0.6503 0.27667 0.0
C1631 C 0.50638 0.64862 0.20707 0.0
C1632 C 0.49947 0.6501 0.23106 0.0
H1633 H 0.39507 0.64421 0.33562 0.0
H1634 H 0.40929 0.64892 0.29676 0.0
H1635 H 0.53584 0.63473 0.27881 0.0
H1636 H 0.58196 0.64818 0.16963 0.0
H1637 H 0.56965 0.65385 0.20854 0.0
C1638 C 0.98963 0.40232 0.33473 0.0
C1639 C 0.02311 0.39591 0.34566 0.0
C1640 C 0.98253 0.39852 0.31277 0.0
C1641 C 0.96356 0.38403 0.26846 0.0
H1642 H 0.0538 0.38655 0.22898 0.0
C1643 C 0.94247 0.38403 0.1742 0.0
C1644 C 0.96504 0.39602 0.16301 0.0
C1645 C 0.95094 0.38018 0.19613 0.0
C1646 C 0.02823 0.3858 0.23976 0.0
H1647 H 0.07478 0.37999 0.34213 0.0
H1648 H 0.06217 0.3732 0.30358 0.0
H1649 H 0.06487 0.38696 0.26841 0.0
H1650 H 0.01497 0.41301 0.16597 0.0
H1651 H 0.02906 0.4066 0.20391 0.0
H1652 H 0.92677 0.38391 0.23985 0.0
C1653 C 0.04166 0.38136 0.31206 0.0
C1654 C 0.03463 0.38582 0.26243 0.0
C1655 C 0.04882 0.38519 0.33417 0.0
C1656 C -0.00312 0.4037 0.17402 0.0
C1657 C 0.00527 0.3999 0.19583 0.0
C1658 C 0.95714 0.38411 0.2458 0.0
C1659 C 0.0086 0.38814 0.30103 0.0
C1660 C 0.0023 0.38545 0.27708 0.0
C1661 C 0.98219 0.38824 0.2073 0.0
C1662 C 0.98932 0.38551 0.23116 0.0
H1663 H 0.96913 0.41061 0.34299 0.0
H1664 H 0.95722 0.40424 0.3048 0.0
H1665 H 0.93797 0.38338 0.27924 0.0
H1666 H 0.91788 0.37781 0.16616 0.0
H1667 H 0.93281 0.37101 0.20438 0.0
C1668 C 0.49001 0.41026 0.83603 0.0
C1669 C 0.46006 0.40118 0.84678 0.0
C1670 C 0.4995 0.40701 0.81415 0.0
C1671 C 0.45616 0.39 0.76363 0.0
H1672 H 0.56441 0.39434 0.74209 0.0
C1673 C 0.55066 0.38906 0.67629 0.0
C1674 C 0.52563 0.39948 0.664 0.0
C1675 C 0.54282 0.38612 0.69855 0.0
C1676 C 0.53408 0.39282 0.74782 0.0
H1677 H 0.41727 0.38122 0.84302 0.0
H1678 H 0.43392 0.37552 0.80468 0.0
H1679 H 0.55172 0.39459 0.78147 0.0
H1680 H 0.472 0.4145 0.6653 0.0
H1681 H 0.45858 0.40946 0.70379 0.0
H1682 H 0.43847 0.38841 0.72997 0.0
C1683 C 0.44981 0.38527 0.81322 0.0
C1684 C 0.52675 0.39317 0.7704 0.0
C1685 C 0.44038 0.3885 0.83521 0.0
C1686 C 0.49201 0.40644 0.67425 0.0
C1687 C 0.48408 0.40344 0.69634 0.0
C1688 C 0.46349 0.38968 0.74105 0.0
C1689 C 0.47928 0.3946 0.80237 0.0
C1690 C 0.4876 0.39216 0.77857 0.0
C1691 C 0.50959 0.39342 0.70887 0.0
C1692 C 0.50243 0.3915 0.73284 0.0
H1693 H 0.50583 0.42012 0.84441 0.0
H1694 H 0.52189 0.41461 0.80626 0.0
H1695 H 0.42564 0.38927 0.7693 0.0
H1696 H 0.57677 0.38349 0.66888 0.0
H1697 H 0.56289 0.37823 0.7077 0.0
C1698 C 0.0527 0.64909 0.83636 0.0
C1699 C 0.0245 0.64138 0.85002 0.0
C1700 C 0.04276 0.65335 0.81475 0.0
C1701 C 0.95729 0.66143 0.77842 0.0
H1702 H 0.0224 0.64294 0.73186 0.0
C1703 C 0.89324 0.64658 0.69393 0.0
C1704 C 0.91706 0.64788 0.67506 0.0
C1705 C 0.90925 0.64946 0.71467 0.0
C1706 C 0.00429 0.64854 0.74458 0.0
H1707 H 0.96346 0.63271 0.8521 0.0
H1708 H 0.94604 0.64039 0.81477 0.0
H1709 H 0.04566 0.64166 0.76977 0.0
H1710 H 0.97629 0.65378 0.66319 0.0
H1711 H 0.00433 0.65899 0.69962 0.0
H1712 H 0.91556 0.66806 0.75348 0.0
C1713 C 0.97583 0.64307 0.82061 0.0
C1714 C 0.01763 0.64777 0.7663 0.0
C1715 C 0.98592 0.63856 0.84196 0.0
C1716 C 0.95714 0.65265 0.67741 0.0
C1717 C 0.97326 0.65553 0.69828 0.0
C1718 C 0.94413 0.66234 0.75674 0.0
C1719 C 0.00422 0.6503 0.80667 0.0
C1720 C -0.00638 0.65371 0.78349 0.0
C1721 C 0.94956 0.65378 0.7172 0.0
C1722 C 0.96677 0.65537 0.73962 0.0
H1723 H 0.0827 0.65138 0.84213 0.0
H1724 H 0.06517 0.65894 0.80434 0.0
H1725 H 0.93846 0.66634 0.79133 0.0
H1726 H 0.86226 0.64293 0.69278 0.0
H1727 H 0.8902 0.64768 0.72881 0.0
loop_
_geom_bond_atom_site_label_1
_geom_bond_atom_site_label_2
_geom_bond_distance
_geom_bond_site_symmetry_2
_ccdc_geom_bond_type
C0 C1 1.351 . S
C0 N3 1.368 . S
C0 H5 0.931 . S
C1 C0 1.351 . S
C1 N2 1.373 . S
C1 H29 0.930 . S
N2 C1 1.373 . S
N2 C4 1.340 . S
N3 C0 1.368 . S
N3 C4 1.321 . S
N3 Co6 2.135 . S
C4 N2 1.340 . S
C4 N3 1.321 . S
C4 H28 0.930 . S
H5 C0 0.931 . S
Co6 N3 2.135 . S
Co6 N9 2.121 . S
Co6 O14 2.055 . S
Co6 O17 2.039 . S
Co6 N20 2.140 . S
C7 O8 1.227 . S
C7 O17 1.265 . S
O8 C7 1.227 . S
N9 Co6 2.121 . S
N9 C11 1.375 . S
N9 C12 1.313 . S
C10 C11 1.338 . S
C10 N13 1.377 . S
C10 H30 0.930 . S
C11 N9 1.375 . S
C11 C10 1.338 . S
C11 H15 0.931 . S
C12 N9 1.313 . S
C12 N13 1.344 . S
C12 H16 0.930 . S
N13 C10 1.377 . S
N13 C12 1.344 . S
O14 Co6 2.055 . S
O14 C18 1.253 . S
H15 C11 0.931 . S
H16 C12 0.930 . S
O17 Co6 2.039 . S
O17 C7 1.265 . S
C18 O14 1.253 . S
C18 O19 1.227 . S
O19 C18 1.227 . S
N20 Co6 2.140 . S
N20 C23 1.346 1_455 S
N20 C24 1.345 . S
C21 C22 1.387 . S
C21 C25 1.391 . S
C22 C21 1.387 . S
C22 C23 1.369 . S
C22 H31 0.929 . S
C23 N20 1.346 1_655 S
C23 C22 1.369 . S
C23 H26 0.928 . S
C24 N20 1.345 . S
C24 C25 1.371 1_455 S
C24 H27 0.931 . S
C25 C21 1.391 . S
C25 C24 1.371 1_655 S
C25 H32 0.930 . S
H26 C23 0.928 . S
H27 C24 0.931 . S
H28 C4 0.930 . S
H29 C1 0.930 . S
H30 C10 0.930 . S
H31 C22 0.929 . S
H32 C25 0.930 . S
C33 C34 1.351 . S
C33 N36 1.368 . S
C33 H38 0.931 . S
C34 C33 1.351 . S
C34 N35 1.373 . S
C34 H62 0.930 . S
N35 C34 1.373 . S
N35 C37 1.340 . S
N36 C33 1.368 . S
N36 C37 1.321 . S
N36 Co39 2.135 . S
C37 N35 1.340 . S
C37 N36 1.321 . S
C37 H61 0.930 . S
H38 C33 0.931 . S
Co39 N36 2.135 . S
Co39 N42 2.121 . S
Co39 O47 2.055 . S
Co39 O50 2.039 . S
Co39 N53 2.140 . S
C40 O41 1.227 . S
C40 O50 1.265 . S
O41 C40 1.227 . S
N42 Co39 2.121 . S
N42 C44 1.375 . S
N42 C45 1.313 . S
C43 C44 1.338 . S
C43 N46 1.377 . S
C43 H63 0.930 . S
C44 N42 1.375 . S
C44 C43 1.338 . S
C44 H48 0.931 . S
C45 N42 1.313 . S
C45 N46 1.344 . S
C45 H49 0.930 . S
N46 C43 1.377 . S
N46 C45 1.344 . S
O47 Co39 2.055 . S
O47 C51 1.253 . S
H48 C44 0.931 . S
H49 C45 0.930 . S
O50 Co39 2.039 . S
O50 C40 1.265 . S
C51 O47 1.253 . S
C51 O52 1.227 . S
O52 C51 1.227 . S
N53 Co39 2.140 . S
N53 C56 1.346 . S
N53 C57 1.345 . S
C54 C55 1.387 . S
C54 C58 1.391 . S
C55 C54 1.387 . S
C55 C56 1.369 . S
C55 H64 0.929 . S
C56 N53 1.346 . S
C56 C55 1.369 . S
C56 H59 0.928 . S
C57 N53 1.345 . S
C57 C58 1.371 . S
C57 H60 0.931 . S
C58 C54 1.391 . S
C58 C57 1.371 . S
C58 H65 0.930 . S
H59 C56 0.928 . S
H60 C57 0.931 . S
H61 C37 0.930 . S
H62 C34 0.930 . S
H63 C43 0.930 . S
H64 C55 0.929 . S
H65 C58 0.930 . S
C66 C67 1.351 . S
C66 N69 1.368 . S
C66 H71 0.931 . S
C67 C66 1.351 . S
C67 N68 1.373 . S
C67 H95 0.930 . S
N68 C67 1.373 . S
N68 C70 1.340 . S
N69 C66 1.368 . S
N69 C70 1.321 . S
N69 Co72 2.135 . S
C70 N68 1.340 . S
C70 N69 1.321 . S
C70 H94 0.930 . S
H71 C66 0.931 . S
Co72 N69 2.135 . S
Co72 N75 2.121 . S
Co72 O80 2.055 . S
Co72 O83 2.039 . S
Co72 N86 2.140 . S
C73 O74 1.227 . S
C73 O83 1.265 . S
O74 C73 1.227 . S
N75 Co72 2.121 . S
N75 C77 1.375 . S
N75 C78 1.313 . S
C76 C77 1.338 . S
C76 N79 1.377 . S
C76 H96 0.930 . S
C77 N75 1.375 . S
C77 C76 1.338 . S
C77 H81 0.931 . S
C78 N75 1.313 . S
C78 N79 1.344 . S
C78 H82 0.930 . S
N79 C76 1.377 . S
N79 C78 1.344 . S
O80 Co72 2.055 . S
O80 C84 1.253 . S
H81 C77 0.931 . S
H82 C78 0.930 . S
O83 Co72 2.039 . S
O83 C73 1.265 . S
C84 O80 1.253 . S
C84 O85 1.227 . S
O85 C84 1.227 . S
N86 Co72 2.140 . S
N86 C89 1.346 . S
N86 C90 1.345 . S
C87 C88 1.387 . S
C87 C91 1.391 . S
C88 C87 1.387 . S
C88 C89 1.369 . S
C88 H97 0.929 . S
C89 N86 1.346 . S
C89 C88 1.369 . S
C89 H92 0.928 . S
C90 N86 1.345 . S
C90 C91 1.371 . S
C90 H93 0.931 . S
C91 C87 1.391 . S
C91 C90 1.371 . S
C91 H98 0.930 . S
H92 C89 0.928 . S
H93 C90 0.931 . S
H94 C70 0.930 . S
H95 C67 0.930 . S
H96 C76 0.930 . S
H97 C88 0.929 . S
H98 C91 0.930 . S
C99 C100 1.351 . S
C99 N102 1.368 . S
C99 H104 0.931 . S
C100 C99 1.351 . S
C100 N101 1.373 . S
C100 H128 0.930 . S
N101 C100 1.373 . S
N101 C103 1.340 . S
N102 C99 1.368 . S
N102 C103 1.321 . S
N102 Co105 2.135 . S
C103 N101 1.340 . S
C103 N102 1.321 . S
C103 H127 0.930 . S
H104 C99 0.931 . S
Co105 N102 2.135 . S
Co105 N108 2.121 . S
Co105 O113 2.055 . S
Co105 O116 2.039 . S
Co105 N119 2.140 . S
C106 O107 1.227 . S
C106 O116 1.265 . S
O107 C106 1.227 . S
N108 Co105 2.121 . S
N108 C110 1.375 . S
N108 C111 1.313 . S
C109 C110 1.338 . S
C109 N112 1.377 . S
C109 H129 0.930 . S
C110 N108 1.375 . S
C110 C109 1.338 . S
C110 H114 0.931 . S
C111 N108 1.313 . S
C111 N112 1.344 . S
C111 H115 0.930 . S
N112 C109 1.377 . S
N112 C111 1.344 . S
O113 Co105 2.055 . S
O113 C117 1.253 . S
H114 C110 0.931 . S
H115 C111 0.930 . S
O116 Co105 2.039 . S
O116 C106 1.265 . S
C117 O113 1.253 . S
C117 O118 1.227 . S
O118 C117 1.227 . S
N119 Co105 2.140 . S
N119 C122 1.346 1_655 S
N119 C123 1.345 . S
C120 C121 1.387 . S
C120 C124 1.391 . S
C121 C120 1.387 . S
C121 C122 1.369 . S
C121 H130 0.929 . S
C122 N119 1.346 1_455 S
C122 C121 1.369 . S
C122 H125 0.928 . S
C123 N119 1.345 . S
C123 C124 1.371 1_655 S
C123 H126 0.931 . S
C124 C120 1.391 . S
C124 C123 1.371 1_455 S
C124 H131 0.930 . S
H125 C122 0.928 . S
H126 C123 0.931 . S
H127 C103 0.930 . S
H128 C100 0.930 . S
H129 C109 0.930 . S
H130 C121 0.929 . S
H131 C124 0.930 . S
C132 C133 1.351 . S
C132 N135 1.368 . S
C132 H137 0.931 . S
C133 C132 1.351 . S
C133 N134 1.373 . S
C133 H161 0.930 . S
N134 C133 1.373 . S
N134 C136 1.340 . S
N135 C132 1.368 . S
N135 C136 1.321 . S
N135 Co138 2.135 . S
C136 N134 1.340 . S
C136 N135 1.321 . S
C136 H160 0.930 . S
H137 C132 0.931 . S
Co138 N135 2.135 . S
Co138 N141 2.121 . S
Co138 O146 2.055 . S
Co138 O149 2.039 . S
Co138 N152 2.140 . S
C139 O140 1.227 . S
C139 O149 1.265 . S
O140 C139 1.227 . S
N141 Co138 2.121 . S
N141 C143 1.375 . S
N141 C144 1.313 . S
C142 C143 1.338 . S
C142 N145 1.377 . S
C142 H162 0.930 . S
C143 N141 1.375 . S
C143 C142 1.338 . S
C143 H147 0.931 . S
C144 N141 1.313 . S
C144 N145 1.344 . S
C144 H148 0.930 . S
N145 C142 1.377 . S
N145 C144 1.344 . S
O146 Co138 2.055 . S
O146 C150 1.253 . S
H147 C143 0.931 . S
H148 C144 0.930 . S
O149 Co138 2.039 . S
O149 C139 1.265 . S
C150 O146 1.253 . S
C150 O151 1.227 . S
O151 C150 1.227 . S
N152 Co138 2.140 . S
N152 C155 1.346 1_655 S
N152 C156 1.345 . S
C153 C154 1.387 . S
C153 C157 1.391 . S
C154 C153 1.387 . S
C154 C155 1.369 . S
C154 H163 0.929 . S
C155 N152 1.346 1_455 S
C155 C154 1.369 . S
C155 H158 0.928 . S
C156 N152 1.345 . S
C156 C157 1.371 1_655 S
C156 H159 0.931 . S
C157 C153 1.391 . S
C157 C156 1.371 1_455 S
C157 H164 0.930 . S
H158 C155 0.928 . S
H159 C156 0.931 . S
H160 C136 0.930 . S
H161 C133 0.930 . S
H162 C142 0.930 . S
H163 C154 0.929 . S
H164 C157 0.930 . S
C165 C166 1.351 . S
C165 N168 1.368 . S
C165 H170 0.931 . S
C166 C165 1.351 . S
C166 N167 1.373 . S
C166 H194 0.930 . S
N167 C166 1.373 . S
N167 C169 1.340 . S
N168 C165 1.368 . S
N168 C169 1.321 . S
N168 Co171 2.135 . S
C169 N167 1.340 . S
C169 N168 1.321 . S
C169 H193 0.930 . S
H170 C165 0.931 . S
Co171 N168 2.135 . S
Co171 N174 2.121 . S
Co171 O179 2.055 . S
Co171 O182 2.039 . S
Co171 N185 2.140 . S
C172 O173 1.227 . S
C172 O182 1.265 . S
O173 C172 1.227 . S
N174 Co171 2.121 . S
N174 C176 1.375 . S
N174 C177 1.313 . S
C175 C176 1.338 . S
C175 N178 1.377 . S
C175 H195 0.930 . S
C176 N174 1.375 . S
C176 C175 1.338 . S
C176 H180 0.931 . S
C177 N174 1.313 . S
C177 N178 1.344 . S
C177 H181 0.930 . S
N178 C175 1.377 . S
N178 C177 1.344 . S
O179 Co171 2.055 . S
O179 C183 1.253 . S
H180 C176 0.931 . S
H181 C177 0.930 . S
O182 Co171 2.039 . S
O182 C172 1.265 . S
C183 O179 1.253 . S
C183 O184 1.227 . S
O184 C183 1.227 . S
N185 Co171 2.140 . S
N185 C188 1.346 . S
N185 C189 1.345 . S
C186 C187 1.387 . S
C186 C190 1.391 . S
C187 C186 1.387 . S
C187 C188 1.369 . S
C187 H196 0.929 . S
C188 N185 1.346 . S
C188 C187 1.369 . S
C188 H191 0.928 . S
C189 N185 1.345 . S
C189 C190 1.371 . S
C189 H192 0.931 . S
C190 C186 1.391 . S
C190 C189 1.371 . S
C190 H197 0.930 . S
H191 C188 0.928 . S
H192 C189 0.931 . S
H193 C169 0.930 . S
H194 C166 0.930 . S
H195 C175 0.930 . S
H196 C187 0.929 . S
H197 C190 0.930 . S
C198 C199 1.351 . S
C198 N201 1.368 . S
C198 H203 0.931 . S
C199 C198 1.351 . S
C199 N200 1.373 . S
C199 H227 0.930 . S
N200 C199 1.373 . S
N200 C202 1.340 . S
N201 C198 1.368 . S
N201 C202 1.321 . S
N201 Co204 2.135 . S
C202 N200 1.340 . S
C202 N201 1.321 . S
C202 H226 0.930 . S
H203 C198 0.931 . S
Co204 N201 2.135 . S
Co204 N207 2.121 . S
Co204 O212 2.055 . S
Co204 O215 2.039 . S
Co204 N218 2.140 . S
C205 O206 1.227 . S
C205 O215 1.265 . S
O206 C205 1.227 . S
N207 Co204 2.121 . S
N207 C209 1.375 . S
N207 C210 1.313 . S
C208 C209 1.338 . S
C208 N211 1.377 . S
C208 H228 0.930 . S
C209 N207 1.375 . S
C209 C208 1.338 . S
C209 H213 0.931 . S
C210 N207 1.313 . S
C210 N211 1.344 . S
C210 H214 0.930 . S
N211 C208 1.377 . S
N211 C210 1.344 . S
O212 Co204 2.055 . S
O212 C216 1.253 . S
H213 C209 0.931 . S
H214 C210 0.930 . S
O215 Co204 2.039 . S
O215 C205 1.265 . S
C216 O212 1.253 . S
C216 O217 1.227 . S
O217 C216 1.227 . S
N218 Co204 2.140 . S
N218 C221 1.346 . S
N218 C222 1.345 . S
C219 C220 1.387 . S
C219 C223 1.391 . S
C220 C219 1.387 . S
C220 C221 1.369 . S
C220 H229 0.929 . S
C221 N218 1.346 . S
C221 C220 1.369 . S
C221 H224 0.928 . S
C222 N218 1.345 . S
C222 C223 1.371 . S
C222 H225 0.931 . S
C223 C219 1.391 . S
C223 C222 1.371 . S
C223 H230 0.930 . S
H224 C221 0.928 . S
H225 C222 0.931 . S
H226 C202 0.930 . S
H227 C199 0.930 . S
H228 C208 0.930 . S
H229 C220 0.929 . S
H230 C223 0.930 . S
C231 C232 1.351 . S
C231 N234 1.368 . S
C231 H236 0.931 . S
C232 C231 1.351 . S
C232 N233 1.373 . S
C232 H260 0.930 . S
N233 C232 1.373 . S
N233 C235 1.340 . S
N234 C231 1.368 . S
N234 C235 1.321 . S
N234 Co237 2.135 . S
C235 N233 1.340 . S
C235 N234 1.321 . S
C235 H259 0.930 . S
H236 C231 0.931 . S
Co237 N234 2.135 . S
Co237 N240 2.121 . S
Co237 O245 2.055 . S
Co237 O248 2.039 . S
Co237 N251 2.140 . S
C238 O239 1.227 . S
C238 O248 1.265 . S
O239 C238 1.227 . S
N240 Co237 2.121 . S
N240 C242 1.375 . S
N240 C243 1.313 . S
C241 C242 1.338 . S
C241 N244 1.377 . S
C241 H261 0.930 . S
C242 N240 1.375 . S
C242 C241 1.338 . S
C242 H246 0.931 . S
C243 N240 1.313 . S
C243 N244 1.344 . S
C243 H247 0.930 . S
N244 C241 1.377 . S
N244 C243 1.344 . S
O245 Co237 2.055 . S
O245 C249 1.253 . S
H246 C242 0.931 . S
H247 C243 0.930 . S
O248 Co237 2.039 . S
O248 C238 1.265 . S
C249 O245 1.253 . S
C249 O250 1.227 . S
O250 C249 1.227 . S
N251 Co237 2.140 . S
N251 C254 1.346 1_455 S
N251 C255 1.345 . S
C252 C253 1.387 . S
C252 C256 1.391 . S
C253 C252 1.387 . S
C253 C254 1.369 . S
C253 H262 0.929 . S
C254 N251 1.346 1_655 S
C254 C253 1.369 . S
C254 H257 0.928 . S
C255 N251 1.345 . S
C255 C256 1.371 1_455 S
C255 H258 0.931 . S
C256 C252 1.391 . S
C256 C255 1.371 1_655 S
C256 H263 0.930 . S
H257 C254 0.928 . S
H258 C255 0.931 . S
H259 C235 0.930 . S
H260 C232 0.930 . S
H261 C241 0.930 . S
H262 C253 0.929 . S
H263 C256 0.930 . S
C264 C265 1.351 . S
C264 N267 1.368 . S
C264 H269 0.931 . S
C265 C264 1.351 . S
C265 N266 1.373 . S
C265 H293 0.930 . S
N266 C265 1.373 . S
N266 C268 1.340 . S
N267 C264 1.368 . S
N267 C268 1.321 . S
N267 Co270 2.135 . S
C268 N266 1.340 . S
C268 N267 1.321 . S
C268 H292 0.930 . S
H269 C264 0.931 . S
Co270 N267 2.135 . S
Co270 N273 2.121 . S
Co270 O278 2.055 . S
Co270 O281 2.039 . S
Co270 N284 2.140 . S
C271 O272 1.227 . S
C271 O281 1.265 . S
O272 C271 1.227 . S
N273 Co270 2.121 . S
N273 C275 1.375 . S
N273 C276 1.313 . S
C274 C275 1.338 . S
C274 N277 1.377 . S
C274 H294 0.930 . S
C275 N273 1.375 . S
C275 C274 1.338 . S
C275 H279 0.931 . S
C276 N273 1.313 . S
C276 N277 1.344 . S
C276 H280 0.930 . S
N277 C274 1.377 . S
N277 C276 1.344 . S
O278 Co270 2.055 . S
O278 C282 1.253 . S
H279 C275 0.931 . S
H280 C276 0.930 . S
O281 Co270 2.039 . S
O281 C271 1.265 . S
C282 O278 1.253 . S
C282 O283 1.227 . S
O283 C282 1.227 . S
N284 Co270 2.140 . S
N284 C287 1.346 . S
N284 C288 1.345 . S
C285 C286 1.387 . S
C285 C289 1.391 . S
C286 C285 1.387 . S
C286 C287 1.369 . S
C286 H295 0.929 . S
C287 N284 1.346 . S
C287 C286 1.369 . S
C287 H290 0.928 . S
C288 N284 1.345 . S
C288 C289 1.371 . S
C288 H291 0.931 . S
C289 C285 1.391 . S
C289 C288 1.371 . S
C289 H296 0.930 . S
H290 C287 0.928 . S
H291 C288 0.931 . S
H292 C268 0.930 . S
H293 C265 0.930 . S
H294 C274 0.930 . S
H295 C286 0.929 . S
H296 C289 0.930 . S
C297 C298 1.351 . S
C297 N300 1.368 . S
C297 H302 0.931 . S
C298 C297 1.351 . S
C298 N299 1.373 . S
C298 H326 0.930 . S
N299 C298 1.373 . S
N299 C301 1.340 . S
N300 C297 1.368 . S
N300 C301 1.321 . S
N300 Co303 2.135 . S
C301 N299 1.340 . S
C301 N300 1.321 . S
C301 H325 0.930 . S
H302 C297 0.931 . S
Co303 N300 2.135 . S
Co303 N306 2.121 . S
Co303 O311 2.055 . S
Co303 O314 2.039 . S
Co303 N317 2.140 . S
C304 O305 1.227 . S
C304 O314 1.265 . S
O305 C304 1.227 . S
N306 Co303 2.121 . S
N306 C308 1.375 . S
N306 C309 1.313 . S
C307 C308 1.338 . S
C307 N310 1.377 . S
C307 H327 0.930 . S
C308 N306 1.375 . S
C308 C307 1.338 . S
C308 H312 0.931 . S
C309 N306 1.313 . S
C309 N310 1.344 . S
C309 H313 0.930 . S
N310 C307 1.377 . S
N310 C309 1.344 . S
O311 Co303 2.055 . S
O311 C315 1.253 . S
H312 C308 0.931 . S
H313 C309 0.930 . S
O314 Co303 2.039 . S
O314 C304 1.265 . S
C315 O311 1.253 . S
C315 O316 1.227 . S
O316 C315 1.227 . S
N317 Co303 2.140 . S
N317 C320 1.346 1_655 S
N317 C321 1.345 . S
C318 C319 1.387 . S
C318 C322 1.391 . S
C319 C318 1.387 . S
C319 C320 1.369 . S
C319 H328 0.929 . S
C320 N317 1.346 1_455 S
C320 C319 1.369 . S
C320 H323 0.928 . S
C321 N317 1.345 . S
C321 C322 1.371 1_655 S
C321 H324 0.931 . S
C322 C318 1.391 . S
C322 C321 1.371 1_455 S
C322 H329 0.930 . S
H323 C320 0.928 . S
H324 C321 0.931 . S
H325 C301 0.930 . S
H326 C298 0.930 . S
H327 C307 0.930 . S
H328 C319 0.929 . S
H329 C322 0.930 . S
C330 C331 1.351 . S
C330 N333 1.368 . S
C330 H335 0.931 . S
C331 C330 1.351 . S
C331 N332 1.373 . S
C331 H359 0.930 . S
N332 C331 1.373 . S
N332 C334 1.340 . S
N333 C330 1.368 . S
N333 C334 1.321 . S
N333 Co336 2.135 . S
C334 N332 1.340 . S
C334 N333 1.321 . S
C334 H358 0.930 . S
H335 C330 0.931 . S
Co336 N333 2.135 . S
Co336 N339 2.121 . S
Co336 O344 2.055 . S
Co336 O347 2.039 . S
Co336 N350 2.140 . S
C337 O338 1.227 . S
C337 O347 1.265 . S
O338 C337 1.227 . S
N339 Co336 2.121 . S
N339 C341 1.375 . S
N339 C342 1.313 . S
C340 C341 1.338 . S
C340 N343 1.377 . S
C340 H360 0.930 . S
C341 N339 1.375 . S
C341 C340 1.338 . S
C341 H345 0.931 . S
C342 N339 1.313 . S
C342 N343 1.344 . S
C342 H346 0.930 . S
N343 C340 1.377 . S
N343 C342 1.344 . S
O344 Co336 2.055 . S
O344 C348 1.253 . S
H345 C341 0.931 . S
H346 C342 0.930 . S
O347 Co336 2.039 . S
O347 C337 1.265 . S
C348 O344 1.253 . S
C348 O349 1.227 . S
O349 C348 1.227 . S
N350 Co336 2.140 . S
N350 C353 1.346 1_455 S
N350 C354 1.345 . S
C351 C352 1.387 . S
C351 C355 1.391 . S
C352 C351 1.387 . S
C352 C353 1.369 . S
C352 H361 0.929 . S
C353 N350 1.346 1_655 S
C353 C352 1.369 . S
C353 H356 0.928 . S
C354 N350 1.345 . S
C354 C355 1.371 1_455 S
C354 H357 0.931 . S
C355 C351 1.391 . S
C355 C354 1.371 1_655 S
C355 H362 0.930 . S
H356 C353 0.928 . S
H357 C354 0.931 . S
H358 C334 0.930 . S
H359 C331 0.930 . S
H360 C340 0.930 . S
H361 C352 0.929 . S
H362 C355 0.930 . S
C363 C364 1.351 . S
C363 N366 1.368 . S
C363 H368 0.931 . S
C364 C363 1.351 . S
C364 N365 1.373 . S
C364 H392 0.930 . S
N365 C364 1.373 . S
N365 C367 1.340 . S
N366 C363 1.368 . S
N366 C367 1.321 . S
N366 Co369 2.135 . S
C367 N365 1.340 . S
C367 N366 1.321 . S
C367 H391 0.930 . S
H368 C363 0.931 . S
Co369 N366 2.135 . S
Co369 N372 2.121 . S
Co369 O377 2.055 . S
Co369 O380 2.039 . S
Co369 N383 2.140 . S
C370 O371 1.227 . S
C370 O380 1.265 . S
O371 C370 1.227 . S
N372 Co369 2.121 . S
N372 C374 1.375 . S
N372 C375 1.313 . S
C373 C374 1.338 . S
C373 N376 1.377 . S
C373 H393 0.930 . S
C374 N372 1.375 . S
C374 C373 1.338 . S
C374 H378 0.931 . S
C375 N372 1.313 . S
C375 N376 1.344 . S
C375 H379 0.930 . S
N376 C373 1.377 . S
N376 C375 1.344 . S
O377 Co369 2.055 . S
O377 C381 1.253 . S
H378 C374 0.931 . S
H379 C375 0.930 . S
O380 Co369 2.039 . S
O380 C370 1.265 . S
C381 O377 1.253 . S
C381 O382 1.227 . S
O382 C381 1.227 . S
N383 Co369 2.140 . S
N383 C386 1.346 . S
N383 C387 1.345 . S
C384 C385 1.387 . S
C384 C388 1.391 . S
C385 C384 1.387 . S
C385 C386 1.369 . S
C385 H394 0.929 . S
C386 N383 1.346 . S
C386 C385 1.369 . S
C386 H389 0.928 . S
C387 N383 1.345 . S
C387 C388 1.371 . S
C387 H390 0.931 . S
C388 C384 1.391 . S
C388 C387 1.371 . S
C388 H395 0.930 . S
H389 C386 0.928 . S
H390 C387 0.931 . S
H391 C367 0.930 . S
H392 C364 0.930 . S
H393 C373 0.930 . S
H394 C385 0.929 . S
H395 C388 0.930 . S
C396 C397 1.351 . S
C396 N399 1.368 . S
C396 H401 0.931 . S
C397 C396 1.351 . S
C397 N398 1.373 . S
C397 H425 0.930 . S
N398 C397 1.373 . S
N398 C400 1.340 . S
N399 C396 1.368 . S
N399 C400 1.321 . S
N399 Co402 2.135 . S
C400 N398 1.340 . S
C400 N399 1.321 . S
C400 H424 0.930 . S
H401 C396 0.931 . S
Co402 N399 2.135 . S
Co402 N405 2.121 . S
Co402 O410 2.055 . S
Co402 O413 2.039 . S
Co402 N416 2.140 . S
C403 O404 1.227 . S
C403 O413 1.265 . S
O404 C403 1.227 . S
N405 Co402 2.121 . S
N405 C407 1.375 . S
N405 C408 1.313 . S
C406 C407 1.338 . S
C406 N409 1.377 . S
C406 H426 0.930 . S
C407 N405 1.375 . S
C407 C406 1.338 . S
C407 H411 0.931 . S
C408 N405 1.313 . S
C408 N409 1.344 . S
C408 H412 0.930 . S
N409 C406 1.377 . S
N409 C408 1.344 . S
O410 Co402 2.055 . S
O410 C414 1.253 . S
H411 C407 0.931 . S
H412 C408 0.930 . S
O413 Co402 2.039 . S
O413 C403 1.265 . S
C414 O410 1.253 . S
C414 O415 1.227 . S
O415 C414 1.227 . S
N416 Co402 2.140 . S
N416 C419 1.346 . S
N416 C420 1.345 . S
C417 C418 1.387 . S
C417 C421 1.391 . S
C418 C417 1.387 . S
C418 C419 1.369 . S
C418 H427 0.929 . S
C419 N416 1.346 . S
C419 C418 1.369 . S
C419 H422 0.928 . S
C420 N416 1.345 . S
C420 C421 1.371 . S
C420 H423 0.931 . S
C421 C417 1.391 . S
C421 C420 1.371 . S
C421 H428 0.930 . S
H422 C419 0.928 . S
H423 C420 0.931 . S
H424 C400 0.930 . S
H425 C397 0.930 . S
H426 C406 0.930 . S
H427 C418 0.929 . S
H428 C421 0.930 . S
C429 C430 1.351 . S
C429 N432 1.368 . S
C429 H434 0.931 . S
C430 C429 1.351 . S
C430 N431 1.373 . S
C430 H458 0.930 . S
N431 C430 1.373 . S
N431 C433 1.340 . S
N432 C429 1.368 . S
N432 C433 1.321 . S
N432 Co435 2.135 . S
C433 N431 1.340 . S
C433 N432 1.321 . S
C433 H457 0.930 . S
H434 C429 0.931 . S
Co435 N432 2.135 . S
Co435 N438 2.121 . S
Co435 O443 2.055 . S
Co435 O446 2.039 . S
Co435 N449 2.140 . S
C436 O437 1.227 . S
C436 O446 1.265 . S
O437 C436 1.227 . S
N438 Co435 2.121 . S
N438 C440 1.375 . S
N438 C441 1.313 . S
C439 C440 1.338 . S
C439 N442 1.377 . S
C439 H459 0.930 . S
C440 N438 1.375 . S
C440 C439 1.338 . S
C440 H444 0.931 . S
C441 N438 1.313 . S
C441 N442 1.344 . S
C441 H445 0.930 . S
N442 C439 1.377 . S
N442 C441 1.344 . S
O443 Co435 2.055 . S
O443 C447 1.253 . S
H444 C440 0.931 . S
H445 C441 0.930 . S
O446 Co435 2.039 . S
O446 C436 1.265 . S
C447 O443 1.253 . S
C447 O448 1.227 . S
O448 C447 1.227 . S
N449 Co435 2.140 . S
N449 C452 1.346 1_455 S
N449 C453 1.345 . S
C450 C451 1.387 . S
C450 C454 1.391 . S
C451 C450 1.387 . S
C451 C452 1.369 . S
C451 H460 0.929 . S
C452 N449 1.346 1_655 S
C452 C451 1.369 . S
C452 H455 0.928 . S
C453 N449 1.345 . S
C453 C454 1.371 1_455 S
C453 H456 0.931 . S
C454 C450 1.391 . S
C454 C453 1.371 1_655 S
C454 H461 0.930 . S
H455 C452 0.928 . S
H456 C453 0.931 . S
H457 C433 0.930 . S
H458 C430 0.930 . S
H459 C439 0.930 . S
H460 C451 0.929 . S
H461 C454 0.930 . S
C462 C463 1.351 . S
C462 N465 1.368 . S
C462 H467 0.931 . S
C463 C462 1.351 . S
C463 N464 1.373 . S
C463 H491 0.930 . S
N464 C463 1.373 . S
N464 C466 1.340 . S
N465 C462 1.368 . S
N465 C466 1.321 . S
N465 Co468 2.135 . S
C466 N464 1.340 . S
C466 N465 1.321 . S
C466 H490 0.930 . S
H467 C462 0.931 . S
Co468 N465 2.135 . S
Co468 N471 2.121 . S
Co468 O476 2.055 . S
Co468 O479 2.039 . S
Co468 N482 2.140 . S
C469 O470 1.227 . S
C469 O479 1.265 . S
O470 C469 1.227 . S
N471 Co468 2.121 . S
N471 C473 1.375 . S
N471 C474 1.313 . S
C472 C473 1.338 . S
C472 N475 1.377 . S
C472 H492 0.930 . S
C473 N471 1.375 . S
C473 C472 1.338 . S
C473 H477 0.931 . S
C474 N471 1.313 . S
C474 N475 1.344 . S
C474 H478 0.930 . S
N475 C472 1.377 . S
N475 C474 1.344 . S
O476 Co468 2.055 . S
O476 C480 1.253 . S
H477 C473 0.931 . S
H478 C474 0.930 . S
O479 Co468 2.039 . S
O479 C469 1.265 . S
C480 O476 1.253 . S
C480 O481 1.227 . S
O481 C480 1.227 . S
N482 Co468 2.140 . S
N482 C485 1.346 1_655 S
N482 C486 1.345 . S
C483 C484 1.387 . S
C483 C487 1.391 . S
C484 C483 1.387 . S
C484 C485 1.369 . S
C484 H493 0.929 . S
C485 N482 1.346 1_455 S
C485 C484 1.369 . S
C485 H488 0.928 . S
C486 N482 1.345 . S
C486 C487 1.371 1_655 S
C486 H489 0.931 . S
C487 C483 1.391 . S
C487 C486 1.371 1_455 S
C487 H494 0.930 . S
H488 C485 0.928 . S
H489 C486 0.931 . S
H490 C466 0.930 . S
H491 C463 0.930 . S
H492 C472 0.930 . S
H493 C484 0.929 . S
H494 C487 0.930 . S
C495 C496 1.351 . S
C495 N498 1.368 . S
C495 H500 0.931 . S
C496 C495 1.351 . S
C496 N497 1.373 . S
C496 H524 0.930 . S
N497 C496 1.373 . S
N497 C499 1.340 . S
N498 C495 1.368 . S
N498 C499 1.321 . S
N498 Co501 2.135 . S
C499 N497 1.340 . S
C499 N498 1.321 . S
C499 H523 0.930 . S
H500 C495 0.931 . S
Co501 N498 2.135 . S
Co501 N504 2.121 . S
Co501 O509 2.055 . S
Co501 O512 2.039 . S
Co501 N515 2.140 . S
C502 O503 1.227 . S
C502 O512 1.265 . S
O503 C502 1.227 . S
N504 Co501 2.121 . S
N504 C506 1.375 . S
N504 C507 1.313 . S
C505 C506 1.338 . S
C505 N508 1.377 . S
C505 H525 0.930 . S
C506 N504 1.375 . S
C506 C505 1.338 . S
C506 H510 0.931 . S
C507 N504 1.313 . S
C507 N508 1.344 . S
C507 H511 0.930 . S
N508 C505 1.377 . S
N508 C507 1.344 . S
O509 Co501 2.055 . S
O509 C513 1.253 . S
H510 C506 0.931 . S
H511 C507 0.930 . S
O512 Co501 2.039 . S
O512 C502 1.265 . S
C513 O509 1.253 . S
C513 O514 1.227 . S
O514 C513 1.227 . S
N515 Co501 2.140 . S
N515 C518 1.346 . S
N515 C519 1.345 . S
C516 C517 1.387 . S
C516 C520 1.391 . S
C517 C516 1.387 . S
C517 C518 1.369 . S
C517 H526 0.929 . S
C518 N515 1.346 . S
C518 C517 1.369 . S
C518 H521 0.928 . S
C519 N515 1.345 . S
C519 C520 1.371 . S
C519 H522 0.931 . S
C520 C516 1.391 . S
C520 C519 1.371 . S
C520 H527 0.930 . S
H521 C518 0.928 . S
H522 C519 0.931 . S
H523 C499 0.930 . S
H524 C496 0.930 . S
H525 C505 0.930 . S
H526 C517 0.929 . S
H527 C520 0.930 . S
C528 C529 1.349 . S
C528 C530 1.327 . S
C528 H553 0.950 . S
C529 C528 1.349 . S
C529 C545 1.349 . S
C530 C528 1.327 . S
C530 C549 1.429 . S
C530 H554 0.950 . S
C531 C548 1.574 . S
C531 C550 1.368 1_554 S
C531 H555 0.949 . S
H532 C536 0.958 . S
C533 C534 1.349 . S
C533 C535 1.327 . S
C533 H556 0.950 . S
C534 C533 1.349 . S
C534 C546 1.349 . S
C535 C533 1.327 . S
C535 C551 1.429 . S
C535 H557 0.950 . S
C536 H532 0.958 . S
C536 C544 1.574 1_554 S
C536 C552 1.368 . S
H537 C545 0.950 . S
H538 C543 0.950 . S
H539 C544 0.949 . S
H540 C546 0.950 . S
H541 C547 0.950 . S
H542 C548 0.949 . S
C543 H538 0.950 . S
C543 C545 1.327 . S
C543 C549 1.429 . S
C544 C536 1.574 1_556 S
C544 H539 0.949 . S
C544 C550 1.368 . S
C545 C529 1.349 . S
C545 H537 0.950 . S
C545 C543 1.327 . S
C546 C534 1.349 . S
C546 H540 0.950 . S
C546 C547 1.327 . S
C547 H541 0.950 . S
C547 C546 1.327 . S
C547 C551 1.429 . S
C548 C531 1.574 . S
C548 H542 0.949 . S
C548 C552 1.368 . S
C549 C530 1.429 . S
C549 C543 1.429 . S
C549 C550 1.523 . S
C550 C531 1.368 1_556 S
C550 C544 1.368 . S
C550 C549 1.523 . S
C551 C535 1.429 . S
C551 C547 1.429 . S
C551 C552 1.523 . S
C552 C536 1.368 . S
C552 C548 1.368 . S
C552 C551 1.523 . S
H553 C528 0.950 . S
H554 C530 0.950 . S
H555 C531 0.949 . S
H556 C533 0.950 . S
H557 C535 0.950 . S
C558 C559 1.349 . S
C558 C560 1.327 . S
C558 H583 0.950 . S
C559 C558 1.349 . S
C559 C575 1.349 . S
C560 C558 1.327 . S
C560 C579 1.429 . S
C560 H584 0.950 . S
C561 C578 1.574 . S
C561 C580 1.368 1_554 S
C561 H585 0.949 . S
H562 C566 0.949 . S
C563 C564 1.349 . S
C563 C565 1.327 . S
C563 H586 0.950 . S
C564 C563 1.349 . S
C564 C576 1.349 . S
C565 C563 1.327 . S
C565 C581 1.429 . S
C565 H587 0.950 . S
C566 H562 0.949 . S
C566 C574 1.574 1_554 S
C566 C582 1.368 . S
H567 C575 0.950 . S
H568 C573 0.950 . S
H569 C574 0.949 . S
H570 C576 0.950 . S
H571 C577 0.950 . S
H572 C578 0.949 . S
C573 H568 0.950 . S
C573 C575 1.327 . S
C573 C579 1.429 . S
C574 C566 1.574 1_556 S
C574 H569 0.949 . S
C574 C580 1.368 . S
C575 C559 1.349 . S
C575 H567 0.950 . S
C575 C573 1.327 . S
C576 C564 1.349 . S
C576 H570 0.950 . S
C576 C577 1.327 . S
C577 H571 0.950 . S
C577 C576 1.327 . S
C577 C581 1.429 . S
C578 C561 1.574 . S
C578 H572 0.949 . S
C578 C582 1.368 . S
C579 C560 1.429 . S
C579 C573 1.429 . S
C579 C580 1.523 . S
C580 C561 1.368 1_556 S
C580 C574 1.368 . S
C580 C579 1.523 . S
C581 C565 1.429 . S
C581 C577 1.429 . S
C581 C582 1.523 . S
C582 C566 1.368 . S
C582 C578 1.368 . S
C582 C581 1.523 . S
H583 C558 0.950 . S
H584 C560 0.950 . S
H585 C561 0.949 . S
H586 C563 0.950 . S
H587 C565 0.950 . S
C588 C589 1.349 . S
C588 C590 1.327 . S
C588 H613 0.950 . S
C589 C588 1.349 . S
C589 C605 1.349 . S
C590 C588 1.327 . S
C590 C609 1.429 . S
C590 H614 0.950 . S
C591 C608 1.574 . S
C591 C610 1.368 . S
C591 H615 0.949 . S
H592 C596 0.949 . S
C593 C594 1.349 . S
C593 C595 1.327 . S
C593 H616 0.950 . S
C594 C593 1.349 . S
C594 C606 1.349 . S
C595 C593 1.327 . S
C595 C611 1.429 . S
C595 H617 0.950 . S
C596 H592 0.949 . S
C596 C604 1.574 . S
C596 C612 1.368 . S
H597 C605 0.950 . S
H598 C603 0.950 . S
H599 C604 0.949 . S
H600 C606 0.950 . S
H601 C607 0.950 . S
H602 C608 0.949 . S
C603 H598 0.950 . S
C603 C605 1.327 . S
C603 C609 1.429 . S
C604 C596 1.574 . S
C604 H599 0.949 . S
C604 C610 1.368 . S
C605 C589 1.349 . S
C605 H597 0.950 . S
C605 C603 1.327 . S
C606 C594 1.349 . S
C606 H600 0.950 . S
C606 C607 1.327 . S
C607 H601 0.950 . S
C607 C606 1.327 . S
C607 C611 1.429 . S
C608 C591 1.574 . S
C608 H602 0.949 . S
C608 C612 1.368 . S
C609 C590 1.429 . S
C609 C603 1.429 . S
C609 C610 1.523 . S
C610 C591 1.368 . S
C610 C604 1.368 . S
C610 C609 1.523 . S
C611 C595 1.429 . S
C611 C607 1.429 . S
C611 C612 1.523 . S
C612 C596 1.368 . S
C612 C608 1.368 . S
C612 C611 1.523 . S
H613 C588 0.950 . S
H614 C590 0.950 . S
H615 C591 0.949 . S
H616 C593 0.950 . S
H617 C595 0.950 . S
C618 C619 1.349 . S
C618 C620 1.327 . S
C618 H643 0.950 . S
C619 C618 1.349 . S
C619 C635 1.349 . S
C620 C618 1.327 . S
C620 C639 1.429 . S
C620 H644 0.950 . S
C621 C638 1.574 . S
C621 C640 1.368 . S
C621 H645 0.949 . S
H622 C626 0.949 . S
C623 C624 1.349 . S
C623 C625 1.327 . S
C623 H646 0.950 . S
C624 C623 1.349 . S
C624 C636 1.349 . S
C625 C623 1.327 . S
C625 C641 1.429 . S
C625 H647 0.950 . S
C626 H622 0.949 . S
C626 C634 1.574 . S
C626 C642 1.368 . S
H627 C635 0.950 . S
H628 C633 0.950 . S
H629 C634 0.949 . S
H630 C636 0.950 . S
H631 C637 0.950 . S
H632 C638 0.949 . S
C633 H628 0.950 . S
C633 C635 1.327 . S
C633 C639 1.429 . S
C634 C626 1.574 . S
C634 H629 0.949 . S
C634 C640 1.368 . S
C635 C619 1.349 . S
C635 H627 0.950 . S
C635 C633 1.327 . S
C636 C624 1.349 . S
C636 H630 0.950 . S
C636 C637 1.327 . S
C637 H631 0.950 . S
C637 C636 1.327 . S
C637 C641 1.429 . S
C638 C621 1.574 . S
C638 H632 0.949 . S
C638 C642 1.368 . S
C639 C620 1.429 . S
C639 C633 1.429 . S
C639 C640 1.523 . S
C640 C621 1.368 . S
C640 C634 1.368 . S
C640 C639 1.523 . S
C641 C625 1.429 . S
C641 C637 1.429 . S
C641 C642 1.523 . S
C642 C626 1.368 . S
C642 C638 1.368 . S
C642 C641 1.523 . S
H643 C618 0.950 . S
H644 C620 0.950 . S
H645 C621 0.949 . S
H646 C623 0.950 . S
H647 C625 0.950 . S
C648 C649 1.349 . S
C648 C650 1.327 . S
C648 H673 0.950 . S
C649 C648 1.349 . S
C649 C665 1.349 . S
C650 C648 1.327 . S
C650 C669 1.429 . S
C650 H674 0.950 . S
C651 C668 1.574 1_556 S
C651 C670 1.368 . S
C651 H675 0.949 . S
H652 C656 0.949 . S
C653 C654 1.349 . S
C653 C655 1.327 . S
C653 H676 0.950 . S
C654 C653 1.349 . S
C654 C666 1.349 . S
C655 C653 1.327 . S
C655 C671 1.429 . S
C655 H677 0.950 . S
C656 H652 0.949 . S
C656 C664 1.574 . S
C656 C672 1.368 1_556 S
H657 C665 0.950 . S
H658 C663 0.950 . S
H659 C664 0.949 . S
H660 C666 0.950 . S
H661 C667 0.950 . S
H662 C668 0.949 . S
C663 H658 0.950 . S
C663 C665 1.327 . S
C663 C669 1.429 . S
C664 C656 1.574 . S
C664 H659 0.949 . S
C664 C670 1.368 . S
C665 C649 1.349 . S
C665 H657 0.950 . S
C665 C663 1.327 . S
C666 C654 1.349 . S
C666 H660 0.950 . S
C666 C667 1.327 . S
C667 H661 0.950 . S
C667 C666 1.327 . S
C667 C671 1.429 . S
C668 C651 1.574 1_554 S
C668 H662 0.949 . S
C668 C672 1.368 . S
C669 C650 1.429 . S
C669 C663 1.429 . S
C669 C670 1.523 . S
C670 C651 1.368 . S
C670 C664 1.368 . S
C670 C669 1.523 . S
C671 C655 1.429 . S
C671 C667 1.429 . S
C671 C672 1.523 . S
C672 C656 1.368 1_554 S
C672 C668 1.368 . S
C672 C671 1.523 . S
H673 C648 0.950 . S
H674 C650 0.950 . S
H675 C651 0.949 . S
H676 C653 0.950 . S
H677 C655 0.950 . S
C678 C679 1.349 . S
C678 C680 1.327 . S
C678 H703 0.950 . S
C679 C678 1.349 . S
C679 C695 1.349 . S
C680 C678 1.327 . S
C680 C699 1.429 . S
C680 H704 0.950 . S
C681 C698 1.574 . S
C681 C700 1.368 . S
C681 H705 0.949 . S
H682 C686 0.949 . S
C683 C684 1.349 . S
C683 C685 1.327 . S
C683 H706 0.950 . S
C684 C683 1.349 . S
C684 C696 1.349 . S
C685 C683 1.327 . S
C685 C701 1.429 . S
C685 H707 0.950 . S
C686 H682 0.949 . S
C686 C694 1.574 1_554 S
C686 C702 1.368 . S
H687 C695 0.950 . S
H688 C693 0.950 . S
H689 C694 0.949 . S
H690 C696 0.950 . S
H691 C697 0.950 . S
H692 C698 0.949 . S
C693 H688 0.950 . S
C693 C695 1.327 . S
C693 C699 1.429 . S
C694 C686 1.574 1_556 S
C694 H689 0.949 . S
C694 C700 1.368 . S
C695 C679 1.349 . S
C695 H687 0.950 . S
C695 C693 1.327 . S
C696 C684 1.349 . S
C696 H690 0.950 . S
C696 C697 1.327 . S
C697 H691 0.950 . S
C697 C696 1.327 . S
C697 C701 1.429 . S
C698 C681 1.574 . S
C698 H692 0.949 . S
C698 C702 1.368 1_556 S
C699 C680 1.429 . S
C699 C693 1.429 . S
C699 C700 1.523 . S
C700 C681 1.368 . S
C700 C694 1.368 . S
C700 C699 1.523 . S
C701 C685 1.429 . S
C701 C697 1.429 . S
C701 C702 1.523 . S
C702 C686 1.368 . S
C702 C698 1.368 1_554 S
C702 C701 1.523 . S
H703 C678 0.950 . S
H704 C680 0.950 . S
H705 C681 0.949 . S
H706 C683 0.950 . S
H707 C685 0.950 . S
C708 C709 1.349 . S
C708 C710 1.327 . S
C708 H733 0.950 . S
C709 C708 1.349 . S
C709 C725 1.349 . S
C710 C708 1.327 . S
C710 C729 1.429 . S
C710 H734 0.950 . S
C711 C728 1.574 . S
C711 C730 1.368 . S
C711 H735 0.949 . S
H712 C716 0.949 . S
C713 C714 1.349 . S
C713 C715 1.327 . S
C713 H736 0.950 . S
C714 C713 1.349 . S
C714 C726 1.349 . S
C715 C713 1.327 . S
C715 C731 1.429 . S
C715 H737 0.950 . S
C716 H712 0.949 . S
C716 C724 1.574 . S
C716 C732 1.368 . S
H717 C725 0.950 . S
H718 C723 0.950 . S
H719 C724 0.949 . S
H720 C726 0.950 . S
H721 C727 0.950 . S
H722 C728 0.949 . S
C723 H718 0.950 . S
C723 C725 1.327 . S
C723 C729 1.429 . S
C724 C716 1.574 . S
C724 H719 0.949 . S
C724 C730 1.368 . S
C725 C709 1.349 . S
C725 H717 0.950 . S
C725 C723 1.327 . S
C726 C714 1.349 . S
C726 H720 0.950 . S
C726 C727 1.327 . S
C727 H721 0.950 . S
C727 C726 1.327 . S
C727 C731 1.429 . S
C728 C711 1.574 . S
C728 H722 0.949 . S
C728 C732 1.368 . S
C729 C710 1.429 . S
C729 C723 1.429 . S
C729 C730 1.523 . S
C730 C711 1.368 . S
C730 C724 1.368 . S
C730 C729 1.523 . S
C731 C715 1.429 . S
C731 C727 1.429 . S
C731 C732 1.523 . S
C732 C716 1.368 . S
C732 C728 1.368 . S
C732 C731 1.523 . S
H733 C708 0.950 . S
H734 C710 0.950 . S
H735 C711 0.949 . S
H736 C713 0.950 . S
H737 C715 0.950 . S
C738 C739 1.349 . S
C738 C740 1.327 . S
C738 H763 0.950 . S
C739 C738 1.349 . S
C739 C755 1.349 . S
C740 C738 1.327 . S
C740 C759 1.429 . S
C740 H764 0.950 . S
C741 C758 1.574 . S
C741 C760 1.368 . S
C741 H765 0.949 . S
H742 C746 0.949 . S
C743 C744 1.349 . S
C743 C745 1.327 . S
C743 H766 0.950 . S
C744 C743 1.349 . S
C744 C756 1.349 . S
C745 C743 1.327 . S
C745 C761 1.429 . S
C745 H767 0.950 . S
C746 H742 0.949 . S
C746 C754 1.574 . S
C746 C762 1.368 . S
H747 C755 0.950 . S
H748 C753 0.950 . S
H749 C754 0.949 . S
H750 C756 0.950 . S
H751 C757 0.950 . S
H752 C758 0.949 . S
C753 H748 0.950 . S
C753 C755 1.327 . S
C753 C759 1.429 . S
C754 C746 1.574 . S
C754 H749 0.949 . S
C754 C760 1.368 . S
C755 C739 1.349 . S
C755 H747 0.950 . S
C755 C753 1.327 . S
C756 C744 1.349 . S
C756 H750 0.950 . S
C756 C757 1.327 . S
C757 H751 0.950 . S
C757 C756 1.327 . S
C757 C761 1.429 . S
C758 C741 1.574 . S
C758 H752 0.949 . S
C758 C762 1.368 . S
C759 C740 1.429 . S
C759 C753 1.429 . S
C759 C760 1.523 . S
C760 C741 1.368 . S
C760 C754 1.368 . S
C760 C759 1.523 . S
C761 C745 1.429 . S
C761 C757 1.429 . S
C761 C762 1.523 . S
C762 C746 1.368 . S
C762 C758 1.368 . S
C762 C761 1.523 . S
H763 C738 0.950 . S
H764 C740 0.950 . S
H765 C741 0.949 . S
H766 C743 0.950 . S
H767 C745 0.950 . S
C768 C769 1.349 . S
C768 C770 1.327 . S
C768 H793 0.950 . S
C769 C768 1.349 . S
C769 C785 1.349 . S
C770 C768 1.327 . S
C770 C789 1.429 . S
C770 H794 0.950 . S
C771 C788 1.574 . S
C771 C790 1.368 . S
C771 H795 0.949 . S
H772 C776 0.949 . S
C773 C774 1.349 . S
C773 C775 1.327 . S
C773 H796 0.950 . S
C774 C773 1.349 . S
C774 C786 1.349 . S
C775 C773 1.327 . S
C775 C791 1.429 . S
C775 H797 0.950 . S
C776 H772 0.949 . S
C776 C784 1.574 1_556 S
C776 C792 1.368 . S
H777 C785 0.950 . S
H778 C783 0.950 . S
H779 C784 0.949 . S
H780 C786 0.950 . S
H781 C787 0.950 . S
H782 C788 0.949 . S
C783 H778 0.950 . S
C783 C785 1.327 . S
C783 C789 1.429 . S
C784 C776 1.574 1_554 S
C784 H779 0.949 . S
C784 C790 1.368 . S
C785 C769 1.349 . S
C785 H777 0.950 . S
C785 C783 1.327 . S
C786 C774 1.349 . S
C786 H780 0.950 . S
C786 C787 1.327 . S
C787 H781 0.950 . S
C787 C786 1.327 . S
C787 C791 1.429 . S
C788 C771 1.574 . S
C788 H782 0.949 . S
C788 C792 1.368 1_554 S
C789 C770 1.429 . S
C789 C783 1.429 . S
C789 C790 1.523 . S
C790 C771 1.368 . S
C790 C784 1.368 . S
C790 C789 1.523 . S
C791 C775 1.429 . S
C791 C787 1.429 . S
C791 C792 1.523 . S
C792 C776 1.368 . S
C792 C788 1.368 1_556 S
C792 C791 1.523 . S
H793 C768 0.950 . S
H794 C770 0.950 . S
H795 C771 0.949 . S
H796 C773 0.950 . S
H797 C775 0.950 . S
C798 C799 1.349 . S
C798 C800 1.327 . S
C798 H823 0.950 . S
C799 C798 1.349 . S
C799 C815 1.349 . S
C800 C798 1.327 . S
C800 C819 1.429 . S
C800 H824 0.950 . S
C801 C818 1.574 . S
C801 C820 1.368 . S
C801 H825 0.949 . S
H802 C806 0.949 . S
C803 C804 1.349 . S
C803 C805 1.327 . S
C803 H826 0.950 . S
C804 C803 1.349 . S
C804 C816 1.349 . S
C805 C803 1.327 . S
C805 C821 1.429 . S
C805 H827 0.950 . S
C806 H802 0.949 . S
C806 C814 1.574 1_556 S
C806 C822 1.368 . S
H807 C815 0.950 . S
H808 C813 0.950 . S
H809 C814 0.949 . S
H810 C816 0.950 . S
H811 C817 0.950 . S
H812 C818 0.949 . S
C813 H808 0.950 . S
C813 C815 1.327 . S
C813 C819 1.429 . S
C814 C806 1.574 1_554 S
C814 H809 0.949 . S
C814 C820 1.368 . S
C815 C799 1.349 . S
C815 H807 0.950 . S
C815 C813 1.327 . S
C816 C804 1.349 . S
C816 H810 0.950 . S
C816 C817 1.327 . S
C817 H811 0.950 . S
C817 C816 1.327 . S
C817 C821 1.429 . S
C818 C801 1.574 . S
C818 H812 0.949 . S
C818 C822 1.368 1_554 S
C819 C800 1.429 . S
C819 C813 1.429 . S
C819 C820 1.523 . S
C820 C801 1.368 . S
C820 C814 1.368 . S
C820 C819 1.523 . S
C821 C805 1.429 . S
C821 C817 1.429 . S
C821 C822 1.523 . S
C822 C806 1.368 . S
C822 C818 1.368 1_556 S
C822 C821 1.523 . S
H823 C798 0.950 . S
H824 C800 0.950 . S
H825 C801 0.949 . S
H826 C803 0.950 . S
H827 C805 0.950 . S
C828 C829 1.349 . S
C828 C830 1.327 . S
C828 H853 0.950 . S
C829 C828 1.349 . S
C829 C845 1.349 . S
C830 C828 1.327 . S
C830 C849 1.429 . S
C830 H854 0.950 . S
C831 C848 1.574 . S
C831 C850 1.368 . S
C831 H855 0.949 . S
H832 C836 0.949 . S
C833 C834 1.349 . S
C833 C835 1.327 . S
C833 H856 0.950 . S
C834 C833 1.349 . S
C834 C846 1.349 . S
C835 C833 1.327 . S
C835 C851 1.429 . S
C835 H857 0.950 . S
C836 H832 0.949 . S
C836 C844 1.574 . S
C836 C852 1.368 . S
H837 C845 0.950 . S
H838 C843 0.950 . S
H839 C844 0.949 . S
H840 C846 0.950 . S
H841 C847 0.950 . S
H842 C848 0.949 . S
C843 H838 0.950 . S
C843 C845 1.327 . S
C843 C849 1.429 . S
C844 C836 1.574 . S
C844 H839 0.949 . S
C844 C850 1.368 . S
C845 C829 1.349 . S
C845 H837 0.950 . S
C845 C843 1.327 . S
C846 C834 1.349 . S
C846 H840 0.950 . S
C846 C847 1.327 . S
C847 H841 0.950 . S
C847 C846 1.327 . S
C847 C851 1.429 . S
C848 C831 1.574 . S
C848 H842 0.949 . S
C848 C852 1.368 . S
C849 C830 1.429 . S
C849 C843 1.429 . S
C849 C850 1.523 . S
C850 C831 1.368 . S
C850 C844 1.368 . S
C850 C849 1.523 . S
C851 C835 1.429 . S
C851 C847 1.429 . S
C851 C852 1.523 . S
C852 C836 1.368 . S
C852 C848 1.368 . S
C852 C851 1.523 . S
H853 C828 0.950 . S
H854 C830 0.950 . S
H855 C831 0.949 . S
H856 C833 0.950 . S
H857 C835 0.950 . S
C858 C859 1.349 . S
C858 C860 1.327 . S
C858 H883 0.950 . S
C859 C858 1.349 . S
C859 C875 1.349 . S
C860 C858 1.327 . S
C860 C879 1.429 . S
C860 H884 0.950 . S
C861 C878 1.574 . S
C861 C880 1.368 . S
C861 H885 0.949 . S
H862 C866 0.949 . S
C863 C864 1.349 . S
C863 C865 1.327 . S
C863 H886 0.950 . S
C864 C863 1.349 . S
C864 C876 1.349 . S
C865 C863 1.327 . S
C865 C881 1.429 . S
C865 H887 0.950 . S
C866 H862 0.949 . S
C866 C874 1.574 . S
C866 C882 1.368 . S
H867 C875 0.950 . S
H868 C873 0.950 . S
H869 C874 0.949 . S
H870 C876 0.950 . S
H871 C877 0.950 . S
H872 C878 0.949 . S
C873 H868 0.950 . S
C873 C875 1.327 . S
C873 C879 1.429 . S
C874 C866 1.574 . S
C874 H869 0.949 . S
C874 C880 1.368 . S
C875 C859 1.349 . S
C875 H867 0.950 . S
C875 C873 1.327 . S
C876 C864 1.349 . S
C876 H870 0.950 . S
C876 C877 1.327 . S
C877 H871 0.950 . S
C877 C876 1.327 . S
C877 C881 1.429 . S
C878 C861 1.574 . S
C878 H872 0.949 . S
C878 C882 1.368 . S
C879 C860 1.429 . S
C879 C873 1.429 . S
C879 C880 1.523 . S
C880 C861 1.368 . S
C880 C874 1.368 . S
C880 C879 1.523 . S
C881 C865 1.429 . S
C881 C877 1.429 . S
C881 C882 1.523 . S
C882 C866 1.368 . S
C882 C878 1.368 . S
C882 C881 1.523 . S
H883 C858 0.950 . S
H884 C860 0.950 . S
H885 C861 0.949 . S
H886 C863 0.950 . S
H887 C865 0.950 . S
C888 C889 1.349 . S
C888 C890 1.327 . S
C888 H913 0.950 . S
C889 C888 1.349 . S
C889 C905 1.349 . S
C890 C888 1.327 . S
C890 C909 1.429 . S
C890 H914 0.950 . S
C891 C908 1.574 . S
C891 C910 1.368 . S
C891 H915 0.949 . S
H892 C896 0.949 . S
C893 C894 1.349 . S
C893 C895 1.327 . S
C893 H916 0.950 . S
C894 C893 1.349 . S
C894 C906 1.349 . S
C895 C893 1.327 . S
C895 C911 1.429 . S
C895 H917 0.950 . S
C896 H892 0.949 . S
C896 C904 1.574 1_554 S
C896 C912 1.368 . S
H897 C905 0.950 . S
H898 C903 0.950 . S
H899 C904 0.949 . S
H900 C906 0.950 . S
H901 C907 0.950 . S
H902 C908 0.949 . S
C903 H898 0.950 . S
C903 C905 1.327 . S
C903 C909 1.429 . S
C904 C896 1.574 1_556 S
C904 H899 0.949 . S
C904 C910 1.368 . S
C905 C889 1.349 . S
C905 H897 0.950 . S
C905 C903 1.327 . S
C906 C894 1.349 . S
C906 H900 0.950 . S
C906 C907 1.327 . S
C907 H901 0.950 . S
C907 C906 1.327 . S
C907 C911 1.429 . S
C908 C891 1.574 . S
C908 H902 0.949 . S
C908 C912 1.368 1_556 S
C909 C890 1.429 . S
C909 C903 1.429 . S
C909 C910 1.523 . S
C910 C891 1.368 . S
C910 C904 1.368 . S
C910 C909 1.523 . S
C911 C895 1.429 . S
C911 C907 1.429 . S
C911 C912 1.523 . S
C912 C896 1.368 . S
C912 C908 1.368 1_554 S
C912 C911 1.523 . S
H913 C888 0.950 . S
H914 C890 0.950 . S
H915 C891 0.949 . S
H916 C893 0.950 . S
H917 C895 0.950 . S
C918 C919 1.349 . S
C918 C920 1.327 . S
C918 H943 0.950 . S
C919 C918 1.349 . S
C919 C935 1.349 . S
C920 C918 1.327 . S
C920 C939 1.429 . S
C920 H944 0.950 . S
C921 C938 1.574 1_556 S
C921 C940 1.368 . S
C921 H945 0.949 . S
H922 C926 0.949 . S
C923 C924 1.349 . S
C923 C925 1.327 . S
C923 H946 0.950 . S
C924 C923 1.349 . S
C924 C936 1.349 . S
C925 C923 1.327 . S
C925 C941 1.429 . S
C925 H947 0.950 . S
C926 H922 0.949 . S
C926 C934 1.574 . S
C926 C942 1.368 1_556 S
H927 C935 0.950 . S
H928 C933 0.950 . S
H929 C934 0.949 . S
H930 C936 0.950 . S
H931 C937 0.950 . S
H932 C938 0.949 . S
C933 H928 0.950 . S
C933 C935 1.327 . S
C933 C939 1.429 . S
C934 C926 1.574 . S
C934 H929 0.949 . S
C934 C940 1.368 . S
C935 C919 1.349 . S
C935 H927 0.950 . S
C935 C933 1.327 . S
C936 C924 1.349 . S
C936 H930 0.950 . S
C936 C937 1.327 . S
C937 H931 0.950 . S
C937 C936 1.327 . S
C937 C941 1.429 . S
C938 C921 1.574 1_554 S
C938 H932 0.949 . S
C938 C942 1.368 . S
C939 C920 1.429 . S
C939 C933 1.429 . S
C939 C940 1.523 . S
C940 C921 1.368 . S
C940 C934 1.368 . S
C940 C939 1.523 . S
C941 C925 1.429 . S
C941 C937 1.429 . S
C941 C942 1.523 . S
C942 C926 1.368 1_554 S
C942 C938 1.368 . S
C942 C941 1.523 . S
H943 C918 0.950 . S
H944 C920 0.950 . S
H945 C921 0.949 . S
H946 C923 0.950 . S
H947 C925 0.950 . S
C948 C949 1.349 . S
C948 C950 1.327 . S
C948 H973 0.950 . S
C949 C948 1.349 . S
C949 C965 1.349 . S
C950 C948 1.327 . S
C950 C969 1.429 . S
C950 H974 0.950 . S
C951 C968 1.574 . S
C951 C970 1.368 . S
C951 H975 0.949 . S
H952 C956 0.949 . S
C953 C954 1.349 . S
C953 C955 1.327 . S
C953 H976 0.950 . S
C954 C953 1.349 . S
C954 C966 1.349 . S
C955 C953 1.327 . S
C955 C971 1.429 . S
C955 H977 0.950 . S
C956 H952 0.949 . S
C956 C964 1.574 . S
C956 C972 1.368 . S
H957 C965 0.950 . S
H958 C963 0.950 . S
H959 C964 0.949 . S
H960 C966 0.950 . S
H961 C967 0.950 . S
H962 C968 0.949 . S
C963 H958 0.950 . S
C963 C965 1.327 . S
C963 C969 1.429 . S
C964 C956 1.574 . S
C964 H959 0.949 . S
C964 C970 1.368 . S
C965 C949 1.349 . S
C965 H957 0.950 . S
C965 C963 1.327 . S
C966 C954 1.349 . S
C966 H960 0.950 . S
C966 C967 1.327 . S
C967 H961 0.950 . S
C967 C966 1.327 . S
C967 C971 1.429 . S
C968 C951 1.574 . S
C968 H962 0.949 . S
C968 C972 1.368 . S
C969 C950 1.429 . S
C969 C963 1.429 . S
C969 C970 1.523 . S
C970 C951 1.368 . S
C970 C964 1.368 . S
C970 C969 1.523 . S
C971 C955 1.429 . S
C971 C967 1.429 . S
C971 C972 1.523 . S
C972 C956 1.368 . S
C972 C968 1.368 . S
C972 C971 1.523 . S
H973 C948 0.950 . S
H974 C950 0.950 . S
H975 C951 0.949 . S
H976 C953 0.950 . S
H977 C955 0.950 . S
C978 C979 1.349 . S
C978 C980 1.327 . S
C978 H1003 0.950 . S
C979 C978 1.349 . S
C979 C995 1.349 . S
C980 C978 1.327 . S
C980 C999 1.429 . S
C980 H1004 0.950 . S
C981 C998 1.574 . S
C981 C1000 1.368 . S
C981 H1005 0.949 . S
H982 C986 0.949 . S
C983 C984 1.349 . S
C983 C985 1.327 . S
C983 H1006 0.950 . S
C984 C983 1.349 . S
C984 C996 1.349 . S
C985 C983 1.327 . S
C985 C1001 1.429 . S
C985 H1007 0.950 . S
C986 H982 0.949 . S
C986 C994 1.574 . S
C986 C1002 1.368 . S
H987 C995 0.950 . S
H988 C993 0.950 . S
H989 C994 0.949 . S
H990 C996 0.950 . S
H991 C997 0.950 . S
H992 C998 0.949 . S
C993 H988 0.950 . S
C993 C995 1.327 . S
C993 C999 1.429 . S
C994 C986 1.574 . S
C994 H989 0.949 . S
C994 C1000 1.368 . S
C995 C979 1.349 . S
C995 H987 0.950 . S
C995 C993 1.327 . S
C996 C984 1.349 . S
C996 H990 0.950 . S
C996 C997 1.327 . S
C997 H991 0.950 . S
C997 C996 1.327 . S
C997 C1001 1.429 . S
C998 C981 1.574 . S
C998 H992 0.949 . S
C998 C1002 1.368 . S
C999 C980 1.429 . S
C999 C993 1.429 . S
C999 C1000 1.523 . S
C1000 C981 1.368 . S
C1000 C994 1.368 . S
C1000 C999 1.523 . S
C1001 C985 1.429 . S
C1001 C997 1.429 . S
C1001 C1002 1.523 . S
C1002 C986 1.368 . S
C1002 C998 1.368 . S
C1002 C1001 1.523 . S
H1003 C978 0.950 . S
H1004 C980 0.950 . S
H1005 C981 0.949 . S
H1006 C983 0.950 . S
H1007 C985 0.950 . S
C1008 C1009 1.349 . S
C1008 C1010 1.327 . S
C1008 H1033 0.950 . S
C1009 C1008 1.349 . S
C1009 C1025 1.349 . S
C1010 C1008 1.327 . S
C1010 C1029 1.429 . S
C1010 H1034 0.950 . S
C1011 C1028 1.574 1_545 S
C1011 C1030 1.368 . S
C1011 H1035 0.949 . S
H1012 C1016 0.949 . S
C1013 C1014 1.349 . S
C1013 C1015 1.327 . S
C1013 H1036 0.950 . S
C1014 C1013 1.349 . S
C1014 C1026 1.349 . S
C1015 C1013 1.327 . S
C1015 C1031 1.429 . S
C1015 H1037 0.950 . S
C1016 H1012 0.949 . S
C1016 C1024 1.574 1_565 S
C1016 C1032 1.368 . S
H1017 C1025 0.950 . S
H1018 C1023 0.950 . S
H1019 C1024 0.949 . S
H1020 C1026 0.950 . S
H1021 C1027 0.950 . S
H1022 C1028 0.949 . S
C1023 H1018 0.950 . S
C1023 C1025 1.327 . S
C1023 C1029 1.429 . S
C1024 C1016 1.574 1_545 S
C1024 H1019 0.949 . S
C1024 C1030 1.368 . S
C1025 C1009 1.349 . S
C1025 H1017 0.950 . S
C1025 C1023 1.327 . S
C1026 C1014 1.349 . S
C1026 H1020 0.950 . S
C1026 C1027 1.327 . S
C1027 H1021 0.950 . S
C1027 C1026 1.327 . S
C1027 C1031 1.429 . S
C1028 C1011 1.574 1_565 S
C1028 H1022 0.949 . S
C1028 C1032 1.368 . S
C1029 C1010 1.429 . S
C1029 C1023 1.429 . S
C1029 C1030 1.523 . S
C1030 C1011 1.368 . S
C1030 C1024 1.368 . S
C1030 C1029 1.523 . S
C1031 C1015 1.429 . S
C1031 C1027 1.429 . S
C1031 C1032 1.523 . S
C1032 C1016 1.368 . S
C1032 C1028 1.368 . S
C1032 C1031 1.523 . S
H1033 C1008 0.950 . S
H1034 C1010 0.950 . S
H1035 C1011 0.949 . S
H1036 C1013 0.950 . S
H1037 C1015 0.950 . S
C1038 C1039 1.349 . S
C1038 C1040 1.327 . S
C1038 H1063 0.950 . S
C1039 C1038 1.349 . S
C1039 C1055 1.349 . S
C1040 C1038 1.327 . S
C1040 C1059 1.429 . S
C1040 H1064 0.950 . S
C1041 C1058 1.574 1_565 S
C1041 C1060 1.368 . S
C1041 H1065 0.949 . S
H1042 C1046 0.949 . S
C1043 C1044 1.349 . S
C1043 C1045 1.327 . S
C1043 H1066 0.950 . S
C1044 C1043 1.349 . S
C1044 C1056 1.349 . S
C1045 C1043 1.327 . S
C1045 C1061 1.429 . S
C1045 H1067 0.950 . S
C1046 H1042 0.949 . S
C1046 C1054 1.574 1_545 S
C1046 C1062 1.368 . S
H1047 C1055 0.950 . S
H1048 C1053 0.950 . S
H1049 C1054 0.949 . S
H1050 C1056 0.950 . S
H1051 C1057 0.950 . S
H1052 C1058 0.949 . S
C1053 H1048 0.950 . S
C1053 C1055 1.327 . S
C1053 C1059 1.429 . S
C1054 C1046 1.574 1_565 S
C1054 H1049 0.949 . S
C1054 C1060 1.368 . S
C1055 C1039 1.349 . S
C1055 H1047 0.950 . S
C1055 C1053 1.327 . S
C1056 C1044 1.349 . S
C1056 H1050 0.950 . S
C1056 C1057 1.327 . S
C1057 H1051 0.950 . S
C1057 C1056 1.327 . S
C1057 C1061 1.429 . S
C1058 C1041 1.574 1_545 S
C1058 H1052 0.949 . S
C1058 C1062 1.368 . S
C1059 C1040 1.429 . S
C1059 C1053 1.429 . S
C1059 C1060 1.523 . S
C1060 C1041 1.368 . S
C1060 C1054 1.368 . S
C1060 C1059 1.523 . S
C1061 C1045 1.429 . S
C1061 C1057 1.429 . S
C1061 C1062 1.523 . S
C1062 C1046 1.368 . S
C1062 C1058 1.368 . S
C1062 C1061 1.523 . S
H1063 C1038 0.950 . S
H1064 C1040 0.950 . S
H1065 C1041 0.949 . S
H1066 C1043 0.950 . S
H1067 C1045 0.950 . S
C1068 C1069 1.349 . S
C1068 C1070 1.327 . S
C1068 H1093 0.950 . S
C1069 C1068 1.349 . S
C1069 C1085 1.349 . S
C1070 C1068 1.327 . S
C1070 C1089 1.429 . S
C1070 H1094 0.950 . S
C1071 C1088 1.574 1_545 S
C1071 C1090 1.368 . S
C1071 H1095 0.949 . S
H1072 C1076 0.949 . S
C1073 C1074 1.349 . S
C1073 C1075 1.327 . S
C1073 H1096 0.950 . S
C1074 C1073 1.349 . S
C1074 C1086 1.349 . S
C1075 C1073 1.327 . S
C1075 C1091 1.429 . S
C1075 H1097 0.950 . S
C1076 H1072 0.949 . S
C1076 C1084 1.574 1_565 S
C1076 C1092 1.368 . S
H1077 C1085 0.950 . S
H1078 C1083 0.950 . S
H1079 C1084 0.949 . S
H1080 C1086 0.950 . S
H1081 C1087 0.950 . S
H1082 C1088 0.949 . S
C1083 H1078 0.950 . S
C1083 C1085 1.327 . S
C1083 C1089 1.429 . S
C1084 C1076 1.574 1_545 S
C1084 H1079 0.949 . S
C1084 C1090 1.368 . S
C1085 C1069 1.349 . S
C1085 H1077 0.950 . S
C1085 C1083 1.327 . S
C1086 C1074 1.349 . S
C1086 H1080 0.950 . S
C1086 C1087 1.327 . S
C1087 H1081 0.950 . S
C1087 C1086 1.327 . S
C1087 C1091 1.429 . S
C1088 C1071 1.574 1_565 S
C1088 H1082 0.949 . S
C1088 C1092 1.368 . S
C1089 C1070 1.429 . S
C1089 C1083 1.429 . S
C1089 C1090 1.523 . S
C1090 C1071 1.368 . S
C1090 C1084 1.368 . S
C1090 C1089 1.523 . S
C1091 C1075 1.429 . S
C1091 C1087 1.429 . S
C1091 C1092 1.523 . S
C1092 C1076 1.368 . S
C1092 C1088 1.368 . S
C1092 C1091 1.523 . S
H1093 C1068 0.950 . S
H1094 C1070 0.950 . S
H1095 C1071 0.949 . S
H1096 C1073 0.950 . S
H1097 C1075 0.950 . S
C1098 C1099 1.349 . S
C1098 C1100 1.327 . S
C1098 H1123 0.950 . S
C1099 C1098 1.349 . S
C1099 C1115 1.349 . S
C1100 C1098 1.327 . S
C1100 C1119 1.429 . S
C1100 H1124 0.950 . S
C1101 C1118 1.574 1_565 S
C1101 C1120 1.368 . S
C1101 H1125 0.949 . S
H1102 C1106 0.949 . S
C1103 C1104 1.349 . S
C1103 C1105 1.327 . S
C1103 H1126 0.950 . S
C1104 C1103 1.349 . S
C1104 C1116 1.349 . S
C1105 C1103 1.327 . S
C1105 C1121 1.429 . S
C1105 H1127 0.950 . S
C1106 H1102 0.949 . S
C1106 C1114 1.574 1_545 S
C1106 C1122 1.368 . S
H1107 C1115 0.950 . S
H1108 C1113 0.950 . S
H1109 C1114 0.949 . S
H1110 C1116 0.950 . S
H1111 C1117 0.950 . S
H1112 C1118 0.949 . S
C1113 H1108 0.950 . S
C1113 C1115 1.327 . S
C1113 C1119 1.429 . S
C1114 C1106 1.574 1_565 S
C1114 H1109 0.949 . S
C1114 C1120 1.368 . S
C1115 C1099 1.349 . S
C1115 H1107 0.950 . S
C1115 C1113 1.327 . S
C1116 C1104 1.349 . S
C1116 H1110 0.950 . S
C1116 C1117 1.327 . S
C1117 H1111 0.950 . S
C1117 C1116 1.327 . S
C1117 C1121 1.429 . S
C1118 C1101 1.574 1_545 S
C1118 H1112 0.949 . S
C1118 C1122 1.368 . S
C1119 C1100 1.429 . S
C1119 C1113 1.429 . S
C1119 C1120 1.523 . S
C1120 C1101 1.368 . S
C1120 C1114 1.368 . S
C1120 C1119 1.523 . S
C1121 C1105 1.429 . S
C1121 C1117 1.429 . S
C1121 C1122 1.523 . S
C1122 C1106 1.368 . S
C1122 C1118 1.368 . S
C1122 C1121 1.523 . S
H1123 C1098 0.950 . S
H1124 C1100 0.950 . S
H1125 C1101 0.949 . S
H1126 C1103 0.950 . S
H1127 C1105 0.950 . S
C1128 C1129 1.349 . S
C1128 C1130 1.327 . S
C1128 H1153 0.950 . S
C1129 C1128 1.349 . S
C1129 C1145 1.349 . S
C1130 C1128 1.327 . S
C1130 C1149 1.429 . S
C1130 H1154 0.950 . S
C1131 C1148 1.574 . S
C1131 C1150 1.368 . S
C1131 H1155 0.949 . S
H1132 C1136 0.949 . S
C1133 C1134 1.349 . S
C1133 C1135 1.327 . S
C1133 H1156 0.950 . S
C1134 C1133 1.349 . S
C1134 C1146 1.349 . S
C1135 C1133 1.327 . S
C1135 C1151 1.429 . S
C1135 H1157 0.950 . S
C1136 H1132 0.949 . S
C1136 C1144 1.574 . S
C1136 C1152 1.368 . S
H1137 C1145 0.950 . S
H1138 C1143 0.950 . S
H1139 C1144 0.949 . S
H1140 C1146 0.950 . S
H1141 C1147 0.950 . S
H1142 C1148 0.949 . S
C1143 H1138 0.950 . S
C1143 C1145 1.327 . S
C1143 C1149 1.429 . S
C1144 C1136 1.574 . S
C1144 H1139 0.949 . S
C1144 C1150 1.368 . S
C1145 C1129 1.349 . S
C1145 H1137 0.950 . S
C1145 C1143 1.327 . S
C1146 C1134 1.349 . S
C1146 H1140 0.950 . S
C1146 C1147 1.327 . S
C1147 H1141 0.950 . S
C1147 C1146 1.327 . S
C1147 C1151 1.429 . S
C1148 C1131 1.574 . S
C1148 H1142 0.949 . S
C1148 C1152 1.368 . S
C1149 C1130 1.429 . S
C1149 C1143 1.429 . S
C1149 C1150 1.523 . S
C1150 C1131 1.368 . S
C1150 C1144 1.368 . S
C1150 C1149 1.523 . S
C1151 C1135 1.429 . S
C1151 C1147 1.429 . S
C1151 C1152 1.523 . S
C1152 C1136 1.368 . S
C1152 C1148 1.368 . S
C1152 C1151 1.523 . S
H1153 C1128 0.950 . S
H1154 C1130 0.950 . S
H1155 C1131 0.949 . S
H1156 C1133 0.950 . S
H1157 C1135 0.950 . S
C1158 C1159 1.349 . S
C1158 C1160 1.327 . S
C1158 H1183 0.950 . S
C1159 C1158 1.349 . S
C1159 C1175 1.349 . S
C1160 C1158 1.327 . S
C1160 C1179 1.429 . S
C1160 H1184 0.950 . S
C1161 C1178 1.574 . S
C1161 C1180 1.368 . S
C1161 H1185 0.949 . S
H1162 C1166 0.949 . S
C1163 C1164 1.349 . S
C1163 C1165 1.327 . S
C1163 H1186 0.950 . S
C1164 C1163 1.349 . S
C1164 C1176 1.349 . S
C1165 C1163 1.327 . S
C1165 C1181 1.429 . S
C1165 H1187 0.950 . S
C1166 H1162 0.949 . S
C1166 C1174 1.574 . S
C1166 C1182 1.368 . S
H1167 C1175 0.950 . S
H1168 C1173 0.950 . S
H1169 C1174 0.949 . S
H1170 C1176 0.950 . S
H1171 C1177 0.950 . S
H1172 C1178 0.949 . S
C1173 H1168 0.950 . S
C1173 C1175 1.327 . S
C1173 C1179 1.429 . S
C1174 C1166 1.574 . S
C1174 H1169 0.949 . S
C1174 C1180 1.368 . S
C1175 C1159 1.349 . S
C1175 H1167 0.950 . S
C1175 C1173 1.327 . S
C1176 C1164 1.349 . S
C1176 H1170 0.950 . S
C1176 C1177 1.327 . S
C1177 H1171 0.950 . S
C1177 C1176 1.327 . S
C1177 C1181 1.429 . S
C1178 C1161 1.574 . S
C1178 H1172 0.949 . S
C1178 C1182 1.368 . S
C1179 C1160 1.429 . S
C1179 C1173 1.429 . S
C1179 C1180 1.523 . S
C1180 C1161 1.368 . S
C1180 C1174 1.368 . S
C1180 C1179 1.523 . S
C1181 C1165 1.429 . S
C1181 C1177 1.429 . S
C1181 C1182 1.523 . S
C1182 C1166 1.368 . S
C1182 C1178 1.368 . S
C1182 C1181 1.523 . S
H1183 C1158 0.950 . S
H1184 C1160 0.950 . S
H1185 C1161 0.949 . S
H1186 C1163 0.950 . S
H1187 C1165 0.950 . S
C1188 C1189 1.349 . S
C1188 C1190 1.327 . S
C1188 H1213 0.950 . S
C1189 C1188 1.349 . S
C1189 C1205 1.349 . S
C1190 C1188 1.327 . S
C1190 C1209 1.429 . S
C1190 H1214 0.950 . S
C1191 C1208 1.574 . S
C1191 C1210 1.368 . S
C1191 H1215 0.949 . S
H1192 C1196 0.949 . S
C1193 C1194 1.349 . S
C1193 C1195 1.327 . S
C1193 H1216 0.950 . S
C1194 C1193 1.349 . S
C1194 C1206 1.349 . S
C1195 C1193 1.327 . S
C1195 C1211 1.429 . S
C1195 H1217 0.950 . S
C1196 H1192 0.949 . S
C1196 C1204 1.574 . S
C1196 C1212 1.368 . S
H1197 C1205 0.950 . S
H1198 C1203 0.950 . S
H1199 C1204 0.949 . S
H1200 C1206 0.950 . S
H1201 C1207 0.950 . S
H1202 C1208 0.949 . S
C1203 H1198 0.950 . S
C1203 C1205 1.327 . S
C1203 C1209 1.429 . S
C1204 C1196 1.574 . S
C1204 H1199 0.949 . S
C1204 C1210 1.368 . S
C1205 C1189 1.349 . S
C1205 H1197 0.950 . S
C1205 C1203 1.327 . S
C1206 C1194 1.349 . S
C1206 H1200 0.950 . S
C1206 C1207 1.327 . S
C1207 H1201 0.950 . S
C1207 C1206 1.327 . S
C1207 C1211 1.429 . S
C1208 C1191 1.574 . S
C1208 H1202 0.949 . S
C1208 C1212 1.368 . S
C1209 C1190 1.429 . S
C1209 C1203 1.429 . S
C1209 C1210 1.523 . S
C1210 C1191 1.368 . S
C1210 C1204 1.368 . S
C1210 C1209 1.523 . S
C1211 C1195 1.429 . S
C1211 C1207 1.429 . S
C1211 C1212 1.523 . S
C1212 C1196 1.368 . S
C1212 C1208 1.368 . S
C1212 C1211 1.523 . S
H1213 C1188 0.950 . S
H1214 C1190 0.950 . S
H1215 C1191 0.949 . S
H1216 C1193 0.950 . S
H1217 C1195 0.950 . S
C1218 C1219 1.349 . S
C1218 C1220 1.327 . S
C1218 H1243 0.950 . S
C1219 C1218 1.349 . S
C1219 C1235 1.349 . S
C1220 C1218 1.327 . S
C1220 C1239 1.429 . S
C1220 H1244 0.950 . S
C1221 C1238 1.574 . S
C1221 C1240 1.368 . S
C1221 H1245 0.949 . S
H1222 C1226 0.949 . S
C1223 C1224 1.349 . S
C1223 C1225 1.327 . S
C1223 H1246 0.950 . S
C1224 C1223 1.349 . S
C1224 C1236 1.349 . S
C1225 C1223 1.327 . S
C1225 C1241 1.429 . S
C1225 H1247 0.950 . S
C1226 H1222 0.949 . S
C1226 C1234 1.574 . S
C1226 C1242 1.368 . S
H1227 C1235 0.950 . S
H1228 C1233 0.950 . S
H1229 C1234 0.949 . S
H1230 C1236 0.950 . S
H1231 C1237 0.950 . S
H1232 C1238 0.949 . S
C1233 H1228 0.950 . S
C1233 C1235 1.327 . S
C1233 C1239 1.429 . S
C1234 C1226 1.574 . S
C1234 H1229 0.949 . S
C1234 C1240 1.368 . S
C1235 C1219 1.349 . S
C1235 H1227 0.950 . S
C1235 C1233 1.327 . S
C1236 C1224 1.349 . S
C1236 H1230 0.950 . S
C1236 C1237 1.327 . S
C1237 H1231 0.950 . S
C1237 C1236 1.327 . S
C1237 C1241 1.429 . S
C1238 C1221 1.574 . S
C1238 H1232 0.949 . S
C1238 C1242 1.368 . S
C1239 C1220 1.429 . S
C1239 C1233 1.429 . S
C1239 C1240 1.523 . S
C1240 C1221 1.368 . S
C1240 C1234 1.368 . S
C1240 C1239 1.523 . S
C1241 C1225 1.429 . S
C1241 C1237 1.429 . S
C1241 C1242 1.523 . S
C1242 C1226 1.368 . S
C1242 C1238 1.368 . S
C1242 C1241 1.523 . S
H1243 C1218 0.950 . S
H1244 C1220 0.950 . S
H1245 C1221 0.949 . S
H1246 C1223 0.950 . S
H1247 C1225 0.950 . S
C1248 C1249 1.349 . S
C1248 C1250 1.327 . S
C1248 H1273 0.950 . S
C1249 C1248 1.349 . S
C1249 C1265 1.349 . S
C1250 C1248 1.327 . S
C1250 C1269 1.429 . S
C1250 H1274 0.950 . S
C1251 C1268 1.574 . S
C1251 C1270 1.368 1_455 S
C1251 H1275 0.949 . S
H1252 C1256 0.949 . S
C1253 C1254 1.349 . S
C1253 C1255 1.327 . S
C1253 H1276 0.950 . S
C1254 C1253 1.349 . S
C1254 C1266 1.349 . S
C1255 C1253 1.327 . S
C1255 C1271 1.429 . S
C1255 H1277 0.950 . S
C1256 H1252 0.949 . S
C1256 C1264 1.574 . S
C1256 C1272 1.368 1_655 S
H1257 C1265 0.950 . S
H1258 C1263 0.950 1_455 S
H1259 C1264 0.949 . S
H1260 C1266 0.950 . S
H1261 C1267 0.950 1_655 S
H1262 C1268 0.949 . S
C1263 H1258 0.950 1_655 S
C1263 C1265 1.327 . S
C1263 C1269 1.429 . S
C1264 C1256 1.574 . S
C1264 H1259 0.949 . S
C1264 C1270 1.368 . S
C1265 C1249 1.349 . S
C1265 H1257 0.950 . S
C1265 C1263 1.327 . S
C1266 C1254 1.349 . S
C1266 H1260 0.950 . S
C1266 C1267 1.327 . S
C1267 H1261 0.950 1_455 S
C1267 C1266 1.327 . S
C1267 C1271 1.429 . S
C1268 C1251 1.574 . S
C1268 H1262 0.949 . S
C1268 C1272 1.368 . S
C1269 C1250 1.429 . S
C1269 C1263 1.429 . S
C1269 C1270 1.523 . S
C1270 C1251 1.368 1_655 S
C1270 C1264 1.368 . S
C1270 C1269 1.523 . S
C1271 C1255 1.429 . S
C1271 C1267 1.429 . S
C1271 C1272 1.523 . S
C1272 C1256 1.368 1_455 S
C1272 C1268 1.368 . S
C1272 C1271 1.523 . S
H1273 C1248 0.950 . S
H1274 C1250 0.950 . S
H1275 C1251 0.949 . S
H1276 C1253 0.950 . S
H1277 C1255 0.950 . S
C1278 C1279 1.349 . S
C1278 C1280 1.327 . S
C1278 H1303 0.950 . S
C1279 C1278 1.349 . S
C1279 C1295 1.349 . S
C1280 C1278 1.327 . S
C1280 C1299 1.429 . S
C1280 H1304 0.950 . S
C1281 C1298 1.574 . S
C1281 C1300 1.368 . S
C1281 H1305 0.949 . S
H1282 C1286 0.949 . S
C1283 C1284 1.349 . S
C1283 C1285 1.327 . S
C1283 H1306 0.950 . S
C1284 C1283 1.349 . S
C1284 C1296 1.349 . S
C1285 C1283 1.327 . S
C1285 C1301 1.429 . S
C1285 H1307 0.950 . S
C1286 H1282 0.949 . S
C1286 C1294 1.574 . S
C1286 C1302 1.368 . S
H1287 C1295 0.950 . S
H1288 C1293 0.950 . S
H1289 C1294 0.949 . S
H1290 C1296 0.950 . S
H1291 C1297 0.950 . S
H1292 C1298 0.949 . S
C1293 H1288 0.950 . S
C1293 C1295 1.327 . S
C1293 C1299 1.429 . S
C1294 C1286 1.574 . S
C1294 H1289 0.949 . S
C1294 C1300 1.368 . S
C1295 C1279 1.349 . S
C1295 H1287 0.950 . S
C1295 C1293 1.327 . S
C1296 C1284 1.349 . S
C1296 H1290 0.950 . S
C1296 C1297 1.327 . S
C1297 H1291 0.950 . S
C1297 C1296 1.327 . S
C1297 C1301 1.429 . S
C1298 C1281 1.574 . S
C1298 H1292 0.949 . S
C1298 C1302 1.368 . S
C1299 C1280 1.429 . S
C1299 C1293 1.429 . S
C1299 C1300 1.523 . S
C1300 C1281 1.368 . S
C1300 C1294 1.368 . S
C1300 C1299 1.523 . S
C1301 C1285 1.429 . S
C1301 C1297 1.429 . S
C1301 C1302 1.523 . S
C1302 C1286 1.368 . S
C1302 C1298 1.368 . S
C1302 C1301 1.523 . S
H1303 C1278 0.950 . S
H1304 C1280 0.950 . S
H1305 C1281 0.949 . S
H1306 C1283 0.950 . S
H1307 C1285 0.950 . S
C1308 C1309 1.349 . S
C1308 C1310 1.327 . S
C1308 H1333 0.950 . S
C1309 C1308 1.349 . S
C1309 C1325 1.349 . S
C1310 C1308 1.327 . S
C1310 C1329 1.429 . S
C1310 H1334 0.950 . S
C1311 C1328 1.574 . S
C1311 C1330 1.368 . S
C1311 H1335 0.949 . S
H1312 C1316 0.949 . S
C1313 C1314 1.349 . S
C1313 C1315 1.327 . S
C1313 H1336 0.950 . S
C1314 C1313 1.349 . S
C1314 C1326 1.349 . S
C1315 C1313 1.327 . S
C1315 C1331 1.429 . S
C1315 H1337 0.950 . S
C1316 H1312 0.949 . S
C1316 C1324 1.574 . S
C1316 C1332 1.368 . S
H1317 C1325 0.950 . S
H1318 C1323 0.950 . S
H1319 C1324 0.949 . S
H1320 C1326 0.950 . S
H1321 C1327 0.950 . S
H1322 C1328 0.949 . S
C1323 H1318 0.950 . S
C1323 C1325 1.327 . S
C1323 C1329 1.429 . S
C1324 C1316 1.574 . S
C1324 H1319 0.949 . S
C1324 C1330 1.368 . S
C1325 C1309 1.349 . S
C1325 H1317 0.950 . S
C1325 C1323 1.327 . S
C1326 C1314 1.349 . S
C1326 H1320 0.950 . S
C1326 C1327 1.327 . S
C1327 H1321 0.950 . S
C1327 C1326 1.327 . S
C1327 C1331 1.429 . S
C1328 C1311 1.574 . S
C1328 H1322 0.949 . S
C1328 C1332 1.368 . S
C1329 C1310 1.429 . S
C1329 C1323 1.429 . S
C1329 C1330 1.523 . S
C1330 C1311 1.368 . S
C1330 C1324 1.368 . S
C1330 C1329 1.523 . S
C1331 C1315 1.429 . S
C1331 C1327 1.429 . S
C1331 C1332 1.523 . S
C1332 C1316 1.368 . S
C1332 C1328 1.368 . S
C1332 C1331 1.523 . S
H1333 C1308 0.950 . S
H1334 C1310 0.950 . S
H1335 C1311 0.949 . S
H1336 C1313 0.950 . S
H1337 C1315 0.950 . S
C1338 C1339 1.349 . S
C1338 C1340 1.327 . S
C1338 H1363 0.950 . S
C1339 C1338 1.349 . S
C1339 C1355 1.349 . S
C1340 C1338 1.327 . S
C1340 C1359 1.429 . S
C1340 H1364 0.950 1_455 S
C1341 C1358 1.574 . S
C1341 C1360 1.368 . S
C1341 H1365 0.949 . S
H1342 C1346 0.949 . S
C1343 C1344 1.349 . S
C1343 C1345 1.327 . S
C1343 H1366 0.950 . S
C1344 C1343 1.349 . S
C1344 C1356 1.349 . S
C1345 C1343 1.327 . S
C1345 C1361 1.429 . S
C1345 H1367 0.950 1_655 S
C1346 H1342 0.949 . S
C1346 C1354 1.574 . S
C1346 C1362 1.368 . S
H1347 C1355 0.950 . S
H1348 C1353 0.950 . S
H1349 C1354 0.949 . S
H1350 C1356 0.950 . S
H1351 C1357 0.950 . S
H1352 C1358 0.949 . S
C1353 H1348 0.950 . S
C1353 C1355 1.327 . S
C1353 C1359 1.429 . S
C1354 C1346 1.574 . S
C1354 H1349 0.949 . S
C1354 C1360 1.368 1_655 S
C1355 C1339 1.349 . S
C1355 H1347 0.950 . S
C1355 C1353 1.327 . S
C1356 C1344 1.349 . S
C1356 H1350 0.950 . S
C1356 C1357 1.327 . S
C1357 H1351 0.950 . S
C1357 C1356 1.327 . S
C1357 C1361 1.429 . S
C1358 C1341 1.574 . S
C1358 H1352 0.949 . S
C1358 C1362 1.368 1_455 S
C1359 C1340 1.429 . S
C1359 C1353 1.429 . S
C1359 C1360 1.523 . S
C1360 C1341 1.368 . S
C1360 C1354 1.368 1_455 S
C1360 C1359 1.523 . S
C1361 C1345 1.429 . S
C1361 C1357 1.429 . S
C1361 C1362 1.523 . S
C1362 C1346 1.368 . S
C1362 C1358 1.368 1_655 S
C1362 C1361 1.523 . S
H1363 C1338 0.950 . S
H1364 C1340 0.950 1_655 S
H1365 C1341 0.949 . S
H1366 C1343 0.950 . S
H1367 C1345 0.950 1_455 S
C1368 C1369 1.349 . S
C1368 C1370 1.327 . S
C1368 H1393 0.950 . S
C1369 C1368 1.349 . S
C1369 C1385 1.349 . S
C1370 C1368 1.327 . S
C1370 C1389 1.429 . S
C1370 H1394 0.950 . S
C1371 C1388 1.574 . S
C1371 C1390 1.368 1_455 S
C1371 H1395 0.949 . S
H1372 C1376 0.949 . S
C1373 C1374 1.349 . S
C1373 C1375 1.327 . S
C1373 H1396 0.950 . S
C1374 C1373 1.349 . S
C1374 C1386 1.349 . S
C1375 C1373 1.327 . S
C1375 C1391 1.429 . S
C1375 H1397 0.950 . S
C1376 H1372 0.949 . S
C1376 C1384 1.574 . S
C1376 C1392 1.368 1_655 S
H1377 C1385 0.950 . S
H1378 C1383 0.950 1_455 S
H1379 C1384 0.949 . S
H1380 C1386 0.950 . S
H1381 C1387 0.950 1_655 S
H1382 C1388 0.949 . S
C1383 H1378 0.950 1_655 S
C1383 C1385 1.327 . S
C1383 C1389 1.429 . S
C1384 C1376 1.574 . S
C1384 H1379 0.949 . S
C1384 C1390 1.368 . S
C1385 C1369 1.349 . S
C1385 H1377 0.950 . S
C1385 C1383 1.327 . S
C1386 C1374 1.349 . S
C1386 H1380 0.950 . S
C1386 C1387 1.327 . S
C1387 H1381 0.950 1_455 S
C1387 C1386 1.327 . S
C1387 C1391 1.429 . S
C1388 C1371 1.574 . S
C1388 H1382 0.949 . S
C1388 C1392 1.368 . S
C1389 C1370 1.429 . S
C1389 C1383 1.429 . S
C1389 C1390 1.523 . S
C1390 C1371 1.368 1_655 S
C1390 C1384 1.368 . S
C1390 C1389 1.523 . S
C1391 C1375 1.429 . S
C1391 C1387 1.429 . S
C1391 C1392 1.523 . S
C1392 C1376 1.368 1_455 S
C1392 C1388 1.368 . S
C1392 C1391 1.523 . S
H1393 C1368 0.950 . S
H1394 C1370 0.950 . S
H1395 C1371 0.949 . S
H1396 C1373 0.950 . S
H1397 C1375 0.950 . S
C1398 C1399 1.349 . S
C1398 C1400 1.327 . S
C1398 H1423 0.950 . S
C1399 C1398 1.349 . S
C1399 C1415 1.349 . S
C1400 C1398 1.327 . S
C1400 C1419 1.429 . S
C1400 H1424 0.950 . S
C1401 C1418 1.574 . S
C1401 C1420 1.368 . S
C1401 H1425 0.949 . S
H1402 C1406 0.949 . S
C1403 C1404 1.349 . S
C1403 C1405 1.327 . S
C1403 H1426 0.950 . S
C1404 C1403 1.349 . S
C1404 C1416 1.349 . S
C1405 C1403 1.327 . S
C1405 C1421 1.429 . S
C1405 H1427 0.950 . S
C1406 H1402 0.949 . S
C1406 C1414 1.574 . S
C1406 C1422 1.368 . S
H1407 C1415 0.950 . S
H1408 C1413 0.950 . S
H1409 C1414 0.949 . S
H1410 C1416 0.950 . S
H1411 C1417 0.950 . S
H1412 C1418 0.949 . S
C1413 H1408 0.950 . S
C1413 C1415 1.327 . S
C1413 C1419 1.429 . S
C1414 C1406 1.574 . S
C1414 H1409 0.949 . S
C1414 C1420 1.368 . S
C1415 C1399 1.349 . S
C1415 H1407 0.950 . S
C1415 C1413 1.327 . S
C1416 C1404 1.349 . S
C1416 H1410 0.950 . S
C1416 C1417 1.327 . S
C1417 H1411 0.950 . S
C1417 C1416 1.327 . S
C1417 C1421 1.429 . S
C1418 C1401 1.574 . S
C1418 H1412 0.949 . S
C1418 C1422 1.368 . S
C1419 C1400 1.429 . S
C1419 C1413 1.429 . S
C1419 C1420 1.523 . S
C1420 C1401 1.368 . S
C1420 C1414 1.368 . S
C1420 C1419 1.523 . S
C1421 C1405 1.429 . S
C1421 C1417 1.429 . S
C1421 C1422 1.523 . S
C1422 C1406 1.368 . S
C1422 C1418 1.368 . S
C1422 C1421 1.523 . S
H1423 C1398 0.950 . S
H1424 C1400 0.950 . S
H1425 C1401 0.949 . S
H1426 C1403 0.950 . S
H1427 C1405 0.950 . S
C1428 C1429 1.349 . S
C1428 C1430 1.327 . S
C1428 H1453 0.950 . S
C1429 C1428 1.349 . S
C1429 C1445 1.349 . S
C1430 C1428 1.327 . S
C1430 C1449 1.429 . S
C1430 H1454 0.950 . S
C1431 C1448 1.574 . S
C1431 C1450 1.368 . S
C1431 H1455 0.949 . S
H1432 C1436 0.949 . S
C1433 C1434 1.349 . S
C1433 C1435 1.327 . S
C1433 H1456 0.950 . S
C1434 C1433 1.349 . S
C1434 C1446 1.349 . S
C1435 C1433 1.327 . S
C1435 C1451 1.429 . S
C1435 H1457 0.950 . S
C1436 H1432 0.949 . S
C1436 C1444 1.574 . S
C1436 C1452 1.368 . S
H1437 C1445 0.950 . S
H1438 C1443 0.950 . S
H1439 C1444 0.949 . S
H1440 C1446 0.950 . S
H1441 C1447 0.950 . S
H1442 C1448 0.949 . S
C1443 H1438 0.950 . S
C1443 C1445 1.327 . S
C1443 C1449 1.429 . S
C1444 C1436 1.574 . S
C1444 H1439 0.949 . S
C1444 C1450 1.368 . S
C1445 C1429 1.349 . S
C1445 H1437 0.950 . S
C1445 C1443 1.327 . S
C1446 C1434 1.349 . S
C1446 H1440 0.950 . S
C1446 C1447 1.327 . S
C1447 H1441 0.950 . S
C1447 C1446 1.327 . S
C1447 C1451 1.429 . S
C1448 C1431 1.574 . S
C1448 H1442 0.949 . S
C1448 C1452 1.368 . S
C1449 C1430 1.429 . S
C1449 C1443 1.429 . S
C1449 C1450 1.523 . S
C1450 C1431 1.368 . S
C1450 C1444 1.368 . S
C1450 C1449 1.523 . S
C1451 C1435 1.429 . S
C1451 C1447 1.429 . S
C1451 C1452 1.523 . S
C1452 C1436 1.368 . S
C1452 C1448 1.368 . S
C1452 C1451 1.523 . S
H1453 C1428 0.950 . S
H1454 C1430 0.950 . S
H1455 C1431 0.949 . S
H1456 C1433 0.950 . S
H1457 C1435 0.950 . S
C1458 C1459 1.349 . S
C1458 C1460 1.327 . S
C1458 H1483 0.950 . S
C1459 C1458 1.349 . S
C1459 C1475 1.349 . S
C1460 C1458 1.327 . S
C1460 C1479 1.429 . S
C1460 H1484 0.950 . S
C1461 C1478 1.574 . S
C1461 C1480 1.368 1_455 S
C1461 H1485 0.949 . S
H1462 C1466 0.949 . S
C1463 C1464 1.349 . S
C1463 C1465 1.327 . S
C1463 H1486 0.950 . S
C1464 C1463 1.349 . S
C1464 C1476 1.349 . S
C1465 C1463 1.327 . S
C1465 C1481 1.429 . S
C1465 H1487 0.950 . S
C1466 H1462 0.949 . S
C1466 C1474 1.574 . S
C1466 C1482 1.368 1_655 S
H1467 C1475 0.950 . S
H1468 C1473 0.950 1_455 S
H1469 C1474 0.949 . S
H1470 C1476 0.950 . S
H1471 C1477 0.950 1_655 S
H1472 C1478 0.949 . S
C1473 H1468 0.950 1_655 S
C1473 C1475 1.327 . S
C1473 C1479 1.429 . S
C1474 C1466 1.574 . S
C1474 H1469 0.949 . S
C1474 C1480 1.368 . S
C1475 C1459 1.349 . S
C1475 H1467 0.950 . S
C1475 C1473 1.327 . S
C1476 C1464 1.349 . S
C1476 H1470 0.950 . S
C1476 C1477 1.327 . S
C1477 H1471 0.950 1_455 S
C1477 C1476 1.327 . S
C1477 C1481 1.429 . S
C1478 C1461 1.574 . S
C1478 H1472 0.949 . S
C1478 C1482 1.368 . S
C1479 C1460 1.429 . S
C1479 C1473 1.429 . S
C1479 C1480 1.523 . S
C1480 C1461 1.368 1_655 S
C1480 C1474 1.368 . S
C1480 C1479 1.523 . S
C1481 C1465 1.429 . S
C1481 C1477 1.429 . S
C1481 C1482 1.523 . S
C1482 C1466 1.368 1_455 S
C1482 C1478 1.368 . S
C1482 C1481 1.523 . S
H1483 C1458 0.950 . S
H1484 C1460 0.950 . S
H1485 C1461 0.949 . S
H1486 C1463 0.950 . S
H1487 C1465 0.950 . S
C1488 C1489 1.349 . S
C1488 C1490 1.327 . S
C1488 H1513 0.950 . S
C1489 C1488 1.349 . S
C1489 C1505 1.349 . S
C1490 C1488 1.327 . S
C1490 C1509 1.429 . S
C1490 H1514 0.950 . S
C1491 C1508 1.574 . S
C1491 C1510 1.368 1_655 S
C1491 H1515 0.949 . S
H1492 C1496 0.949 . S
C1493 C1494 1.349 . S
C1493 C1495 1.327 . S
C1493 H1516 0.950 . S
C1494 C1493 1.349 . S
C1494 C1506 1.349 . S
C1495 C1493 1.327 . S
C1495 C1511 1.429 . S
C1495 H1517 0.950 . S
C1496 H1492 0.949 . S
C1496 C1504 1.574 . S
C1496 C1512 1.368 1_455 S
H1497 C1505 0.950 . S
H1498 C1503 0.950 1_655 S
H1499 C1504 0.949 . S
H1500 C1506 0.950 . S
H1501 C1507 0.950 1_455 S
H1502 C1508 0.949 . S
C1503 H1498 0.950 1_455 S
C1503 C1505 1.327 . S
C1503 C1509 1.429 . S
C1504 C1496 1.574 . S
C1504 H1499 0.949 . S
C1504 C1510 1.368 . S
C1505 C1489 1.349 . S
C1505 H1497 0.950 . S
C1505 C1503 1.327 . S
C1506 C1494 1.349 . S
C1506 H1500 0.950 . S
C1506 C1507 1.327 . S
C1507 H1501 0.950 1_655 S
C1507 C1506 1.327 . S
C1507 C1511 1.429 . S
C1508 C1491 1.574 . S
C1508 H1502 0.949 . S
C1508 C1512 1.368 . S
C1509 C1490 1.429 . S
C1509 C1503 1.429 . S
C1509 C1510 1.523 . S
C1510 C1491 1.368 1_455 S
C1510 C1504 1.368 . S
C1510 C1509 1.523 . S
C1511 C1495 1.429 . S
C1511 C1507 1.429 . S
C1511 C1512 1.523 . S
C1512 C1496 1.368 1_655 S
C1512 C1508 1.368 . S
C1512 C1511 1.523 . S
H1513 C1488 0.950 . S
H1514 C1490 0.950 . S
H1515 C1491 0.949 . S
H1516 C1493 0.950 . S
H1517 C1495 0.950 . S
C1518 C1519 1.349 . S
C1518 C1520 1.327 . S
C1518 H1543 0.950 . S
C1519 C1518 1.349 . S
C1519 C1535 1.349 . S
C1520 C1518 1.327 . S
C1520 C1539 1.429 . S
C1520 H1544 0.950 . S
C1521 C1538 1.574 . S
C1521 C1540 1.368 . S
C1521 H1545 0.949 . S
H1522 C1526 0.949 . S
C1523 C1524 1.349 . S
C1523 C1525 1.327 . S
C1523 H1546 0.950 . S
C1524 C1523 1.349 . S
C1524 C1536 1.349 . S
C1525 C1523 1.327 . S
C1525 C1541 1.429 . S
C1525 H1547 0.950 . S
C1526 H1522 0.949 . S
C1526 C1534 1.574 . S
C1526 C1542 1.368 . S
H1527 C1535 0.950 . S
H1528 C1533 0.950 . S
H1529 C1534 0.949 . S
H1530 C1536 0.950 . S
H1531 C1537 0.950 . S
H1532 C1538 0.949 . S
C1533 H1528 0.950 . S
C1533 C1535 1.327 . S
C1533 C1539 1.429 . S
C1534 C1526 1.574 . S
C1534 H1529 0.949 . S
C1534 C1540 1.368 . S
C1535 C1519 1.349 . S
C1535 H1527 0.950 . S
C1535 C1533 1.327 . S
C1536 C1524 1.349 . S
C1536 H1530 0.950 . S
C1536 C1537 1.327 . S
C1537 H1531 0.950 . S
C1537 C1536 1.327 . S
C1537 C1541 1.429 . S
C1538 C1521 1.574 . S
C1538 H1532 0.949 . S
C1538 C1542 1.368 . S
C1539 C1520 1.429 . S
C1539 C1533 1.429 . S
C1539 C1540 1.523 . S
C1540 C1521 1.368 . S
C1540 C1534 1.368 . S
C1540 C1539 1.523 . S
C1541 C1525 1.429 . S
C1541 C1537 1.429 . S
C1541 C1542 1.523 . S
C1542 C1526 1.368 . S
C1542 C1538 1.368 . S
C1542 C1541 1.523 . S
H1543 C1518 0.950 . S
H1544 C1520 0.950 . S
H1545 C1521 0.949 . S
H1546 C1523 0.950 . S
H1547 C1525 0.950 . S
C1548 C1549 1.349 . S
C1548 C1550 1.327 . S
C1548 H1573 0.950 . S
C1549 C1548 1.349 . S
C1549 C1565 1.349 . S
C1550 C1548 1.327 . S
C1550 C1569 1.429 . S
C1550 H1574 0.950 . S
C1551 C1568 1.574 . S
C1551 C1570 1.368 1_455 S
C1551 H1575 0.949 . S
H1552 C1556 0.949 . S
C1553 C1554 1.349 . S
C1553 C1555 1.327 . S
C1553 H1576 0.950 . S
C1554 C1553 1.349 . S
C1554 C1566 1.349 . S
C1555 C1553 1.327 . S
C1555 C1571 1.429 . S
C1555 H1577 0.950 . S
C1556 H1552 0.949 . S
C1556 C1564 1.574 . S
C1556 C1572 1.368 1_655 S
H1557 C1565 0.950 . S
H1558 C1563 0.950 1_455 S
H1559 C1564 0.949 . S
H1560 C1566 0.950 . S
H1561 C1567 0.950 1_655 S
H1562 C1568 0.949 . S
C1563 H1558 0.950 1_655 S
C1563 C1565 1.327 . S
C1563 C1569 1.429 . S
C1564 C1556 1.574 . S
C1564 H1559 0.949 . S
C1564 C1570 1.368 . S
C1565 C1549 1.349 . S
C1565 H1557 0.950 . S
C1565 C1563 1.327 . S
C1566 C1554 1.349 . S
C1566 H1560 0.950 . S
C1566 C1567 1.327 . S
C1567 H1561 0.950 1_455 S
C1567 C1566 1.327 . S
C1567 C1571 1.429 . S
C1568 C1551 1.574 . S
C1568 H1562 0.949 . S
C1568 C1572 1.368 . S
C1569 C1550 1.429 . S
C1569 C1563 1.429 . S
C1569 C1570 1.523 . S
C1570 C1551 1.368 1_655 S
C1570 C1564 1.368 . S
C1570 C1569 1.523 . S
C1571 C1555 1.429 . S
C1571 C1567 1.429 . S
C1571 C1572 1.523 . S
C1572 C1556 1.368 1_455 S
C1572 C1568 1.368 . S
C1572 C1571 1.523 . S
H1573 C1548 0.950 . S
H1574 C1550 0.950 . S
H1575 C1551 0.949 . S
H1576 C1553 0.950 . S
H1577 C1555 0.950 . S
C1578 C1579 1.349 . S
C1578 C1580 1.327 . S
C1578 H1603 0.950 . S
C1579 C1578 1.349 . S
C1579 C1595 1.349 . S
C1580 C1578 1.327 . S
C1580 C1599 1.429 . S
C1580 H1604 0.950 . S
C1581 C1598 1.574 . S
C1581 C1600 1.368 . S
C1581 H1605 0.949 . S
H1582 C1586 0.949 . S
C1583 C1584 1.349 . S
C1583 C1585 1.327 . S
C1583 H1606 0.950 . S
C1584 C1583 1.349 . S
C1584 C1596 1.349 . S
C1585 C1583 1.327 . S
C1585 C1601 1.429 . S
C1585 H1607 0.950 . S
C1586 H1582 0.949 . S
C1586 C1594 1.574 . S
C1586 C1602 1.368 . S
H1587 C1595 0.950 . S
H1588 C1593 0.950 . S
H1589 C1594 0.949 . S
H1590 C1596 0.950 . S
H1591 C1597 0.950 . S
H1592 C1598 0.949 . S
C1593 H1588 0.950 . S
C1593 C1595 1.327 . S
C1593 C1599 1.429 . S
C1594 C1586 1.574 . S
C1594 H1589 0.949 . S
C1594 C1600 1.368 . S
C1595 C1579 1.349 . S
C1595 H1587 0.950 . S
C1595 C1593 1.327 . S
C1596 C1584 1.349 . S
C1596 H1590 0.950 . S
C1596 C1597 1.327 . S
C1597 H1591 0.950 . S
C1597 C1596 1.327 . S
C1597 C1601 1.429 . S
C1598 C1581 1.574 . S
C1598 H1592 0.949 . S
C1598 C1602 1.368 . S
C1599 C1580 1.429 . S
C1599 C1593 1.429 . S
C1599 C1600 1.523 . S
C1600 C1581 1.368 . S
C1600 C1594 1.368 . S
C1600 C1599 1.523 . S
C1601 C1585 1.429 . S
C1601 C1597 1.429 . S
C1601 C1602 1.523 . S
C1602 C1586 1.368 . S
C1602 C1598 1.368 . S
C1602 C1601 1.523 . S
H1603 C1578 0.950 . S
H1604 C1580 0.950 . S
H1605 C1581 0.949 . S
H1606 C1583 0.950 . S
H1607 C1585 0.950 . S
C1608 C1609 1.349 . S
C1608 C1610 1.327 . S
C1608 H1633 0.950 . S
C1609 C1608 1.349 . S
C1609 C1625 1.349 . S
C1610 C1608 1.327 . S
C1610 C1629 1.429 . S
C1610 H1634 0.950 . S
C1611 C1628 1.574 . S
C1611 C1630 1.368 . S
C1611 H1635 0.949 . S
H1612 C1616 0.949 . S
C1613 C1614 1.349 . S
C1613 C1615 1.327 . S
C1613 H1636 0.950 . S
C1614 C1613 1.349 . S
C1614 C1626 1.349 . S
C1615 C1613 1.327 . S
C1615 C1631 1.429 . S
C1615 H1637 0.950 . S
C1616 H1612 0.949 . S
C1616 C1624 1.574 . S
C1616 C1632 1.368 . S
H1617 C1625 0.950 . S
H1618 C1623 0.950 . S
H1619 C1624 0.949 . S
H1620 C1626 0.950 . S
H1621 C1627 0.950 . S
H1622 C1628 0.949 . S
C1623 H1618 0.950 . S
C1623 C1625 1.327 . S
C1623 C1629 1.429 . S
C1624 C1616 1.574 . S
C1624 H1619 0.949 . S
C1624 C1630 1.368 . S
C1625 C1609 1.349 . S
C1625 H1617 0.950 . S
C1625 C1623 1.327 . S
C1626 C1614 1.349 . S
C1626 H1620 0.950 . S
C1626 C1627 1.327 . S
C1627 H1621 0.950 . S
C1627 C1626 1.327 . S
C1627 C1631 1.429 . S
C1628 C1611 1.574 . S
C1628 H1622 0.949 . S
C1628 C1632 1.368 . S
C1629 C1610 1.429 . S
C1629 C1623 1.429 . S
C1629 C1630 1.523 . S
C1630 C1611 1.368 . S
C1630 C1624 1.368 . S
C1630 C1629 1.523 . S
C1631 C1615 1.429 . S
C1631 C1627 1.429 . S
C1631 C1632 1.523 . S
C1632 C1616 1.368 . S
C1632 C1628 1.368 . S
C1632 C1631 1.523 . S
H1633 C1608 0.950 . S
H1634 C1610 0.950 . S
H1635 C1611 0.949 . S
H1636 C1613 0.950 . S
H1637 C1615 0.950 . S
C1638 C1639 1.349 . S
C1638 C1640 1.327 . S
C1638 H1663 0.950 . S
C1639 C1638 1.349 . S
C1639 C1655 1.349 . S
C1640 C1638 1.327 . S
C1640 C1659 1.429 . S
C1640 H1664 0.950 . S
C1641 C1658 1.574 . S
C1641 C1660 1.368 1_655 S
C1641 H1665 0.949 . S
H1642 C1646 0.949 . S
C1643 C1644 1.349 . S
C1643 C1645 1.327 . S
C1643 H1666 0.950 . S
C1644 C1643 1.349 . S
C1644 C1656 1.349 . S
C1645 C1643 1.327 . S
C1645 C1661 1.429 . S
C1645 H1667 0.950 . S
C1646 H1642 0.949 . S
C1646 C1654 1.574 . S
C1646 C1662 1.368 1_455 S
H1647 C1655 0.950 . S
H1648 C1653 0.950 1_655 S
H1649 C1654 0.949 . S
H1650 C1656 0.950 . S
H1651 C1657 0.950 1_455 S
H1652 C1658 0.949 . S
C1653 H1648 0.950 1_455 S
C1653 C1655 1.327 . S
C1653 C1659 1.429 . S
C1654 C1646 1.574 . S
C1654 H1649 0.949 . S
C1654 C1660 1.368 . S
C1655 C1639 1.349 . S
C1655 H1647 0.950 . S
C1655 C1653 1.327 . S
C1656 C1644 1.349 . S
C1656 H1650 0.950 . S
C1656 C1657 1.327 . S
C1657 H1651 0.950 1_655 S
C1657 C1656 1.327 . S
C1657 C1661 1.429 . S
C1658 C1641 1.574 . S
C1658 H1652 0.949 . S
C1658 C1662 1.368 . S
C1659 C1640 1.429 . S
C1659 C1653 1.429 . S
C1659 C1660 1.523 . S
C1660 C1641 1.368 1_455 S
C1660 C1654 1.368 . S
C1660 C1659 1.523 . S
C1661 C1645 1.429 . S
C1661 C1657 1.429 . S
C1661 C1662 1.523 . S
C1662 C1646 1.368 1_655 S
C1662 C1658 1.368 . S
C1662 C1661 1.523 . S
H1663 C1638 0.950 . S
H1664 C1640 0.950 . S
H1665 C1641 0.949 . S
H1666 C1643 0.950 . S
H1667 C1645 0.950 . S
C1668 C1669 1.349 . S
C1668 C1670 1.327 . S
C1668 H1693 0.950 . S
C1669 C1668 1.349 . S
C1669 C1685 1.349 . S
C1670 C1668 1.327 . S
C1670 C1689 1.429 . S
C1670 H1694 0.950 . S
C1671 C1688 1.574 . S
C1671 C1690 1.368 . S
C1671 H1695 0.949 . S
H1672 C1676 0.949 . S
C1673 C1674 1.349 . S
C1673 C1675 1.327 . S
C1673 H1696 0.950 . S
C1674 C1673 1.349 . S
C1674 C1686 1.349 . S
C1675 C1673 1.327 . S
C1675 C1691 1.429 . S
C1675 H1697 0.950 . S
C1676 H1672 0.949 . S
C1676 C1684 1.574 . S
C1676 C1692 1.368 . S
H1677 C1685 0.950 . S
H1678 C1683 0.950 . S
H1679 C1684 0.949 . S
H1680 C1686 0.950 . S
H1681 C1687 0.950 . S
H1682 C1688 0.949 . S
C1683 H1678 0.950 . S
C1683 C1685 1.327 . S
C1683 C1689 1.429 . S
C1684 C1676 1.574 . S
C1684 H1679 0.949 . S
C1684 C1690 1.368 . S
C1685 C1669 1.349 . S
C1685 H1677 0.950 . S
C1685 C1683 1.327 . S
C1686 C1674 1.349 . S
C1686 H1680 0.950 . S
C1686 C1687 1.327 . S
C1687 H1681 0.950 . S
C1687 C1686 1.327 . S
C1687 C1691 1.429 . S
C1688 C1671 1.574 . S
C1688 H1682 0.949 . S
C1688 C1692 1.368 . S
C1689 C1670 1.429 . S
C1689 C1683 1.429 . S
C1689 C1690 1.523 . S
C1690 C1671 1.368 . S
C1690 C1684 1.368 . S
C1690 C1689 1.523 . S
C1691 C1675 1.429 . S
C1691 C1687 1.429 . S
C1691 C1692 1.523 . S
C1692 C1676 1.368 . S
C1692 C1688 1.368 . S
C1692 C1691 1.523 . S
H1693 C1668 0.950 . S
H1694 C1670 0.950 . S
H1695 C1671 0.949 . S
H1696 C1673 0.950 . S
H1697 C1675 0.950 . S
C1698 C1699 1.349 . S
C1698 C1700 1.327 . S
C1698 H1723 0.950 . S
C1699 C1698 1.349 . S
C1699 C1715 1.349 . S
C1700 C1698 1.327 . S
C1700 C1719 1.429 . S
C1700 H1724 0.950 . S
C1701 C1718 1.574 . S
C1701 C1720 1.368 1_655 S
C1701 H1725 0.949 . S
H1702 C1706 0.949 . S
C1703 C1704 1.349 . S
C1703 C1705 1.327 . S
C1703 H1726 0.950 . S
C1704 C1703 1.349 . S
C1704 C1716 1.349 . S
C1705 C1703 1.327 . S
C1705 C1721 1.429 . S
C1705 H1727 0.950 . S
C1706 H1702 0.949 . S
C1706 C1714 1.574 . S
C1706 C1722 1.368 1_455 S
H1707 C1715 0.950 . S
H1708 C1713 0.950 1_655 S
H1709 C1714 0.949 . S
H1710 C1716 0.950 . S
H1711 C1717 0.950 1_455 S
H1712 C1718 0.949 . S
C1713 H1708 0.950 1_455 S
C1713 C1715 1.327 . S
C1713 C1719 1.429 . S
C1714 C1706 1.574 . S
C1714 H1709 0.949 . S
C1714 C1720 1.368 . S
C1715 C1699 1.349 . S
C1715 H1707 0.950 . S
C1715 C1713 1.327 . S
C1716 C1704 1.349 . S
C1716 H1710 0.950 . S
C1716 C1717 1.327 . S
C1717 H1711 0.950 1_655 S
C1717 C1716 1.327 . S
C1717 C1721 1.429 . S
C1718 C1701 1.574 . S
C1718 H1712 0.949 . S
C1718 C1722 1.368 . S
C1719 C1700 1.429 . S
C1719 C1713 1.429 . S
C1719 C1720 1.523 . S
C1720 C1701 1.368 1_455 S
C1720 C1714 1.368 . S
C1720 C1719 1.523 . S
C1721 C1705 1.429 . S
C1721 C1717 1.429 . S
C1721 C1722 1.523 . S
C1722 C1706 1.368 1_655 S
C1722 C1718 1.368 . S
C1722 C1721 1.523 . S
H1723 C1698 0.950 . S
H1724 C1700 0.950 . S
H1725 C1701 0.949 . S
H1726 C1703 0.950 . S
H1727 C1705 0.950 . S
C529 C186 0.902 . S
C534 C18 0.901 . S
C559 C153 0.902 . S
C564 C51 0.901 . S
C589 C84 0.901 . S
C594 C252 0.902 . S
C619 C117 0.901 . S
C624 C219 0.902 . S
C649 C150 0.901 . S
C654 C54 0.902 . S
C679 C183 0.901 . S
C684 C21 0.902 . S
C709 C120 0.902 . S
C714 C216 0.901 . S
C739 C249 0.901 . S
C744 C87 0.902 . S
C769 C282 0.901 . S
C774 C450 0.902 . S
C799 C315 0.901 . S
C804 C417 0.902 . S
C829 C348 0.901 . S
C834 C516 0.902 . S
C859 C381 0.901 . S
C864 C483 0.902 . S
C889 C414 0.901 . S
C894 C318 0.902 . S
C919 C447 0.901 . S
C924 C285 0.902 . S
C949 C384 0.902 . S
C954 C480 0.901 . S
C979 C351 0.902 . S
C984 C513 0.901 . S
C1009 N13 1.676 . S
C1014 N46 1.676 . S
C1039 N79 1.676 . S
C1044 N112 1.676 . S
C1069 N178 1.676 . S
C1074 N145 1.676 . S
C1099 N244 1.676 . S
C1104 N211 1.676 . S
C1129 N310 1.676 . S
C1134 N277 1.676 . S
C1159 N376 1.676 . S
C1164 N343 1.676 . S
C1189 N409 1.676 . S
C1194 N442 1.676 . S
C1219 N475 1.676 . S
C1224 N508 1.676 . S
C1249 N299 1.541 . S
C1254 N2 1.541 . S
C1279 N35 1.541 . S
C1284 N266 1.541 . S
C1309 N68 1.541 . S
C1314 N365 1.541 . S
C1339 N332 1.541 . S
C1344 N101 1.541 . S
C1369 N134 1.541 . S
C1374 N431 1.541 . S
C1399 N167 1.541 . S
C1404 N398 1.541 . S
C1429 N200 1.541 . S
C1434 N497 1.541 . S
C1459 N464 1.541 . S
C1464 N233 1.541 . S
C1489 C7 1.440 . S
C1494 C106 1.440 . S
C1519 C40 1.440 . S
C1524 C73 1.440 . S
C1549 C139 1.440 . S
C1554 C238 1.440 . S
C1579 C172 1.440 . S
C1584 C205 1.440 . S
C1609 C370 1.440 . S
C1614 C271 1.440 . S
C1639 C337 1.440 . S
C1644 C304 1.440 . S
C1669 C403 1.440 . S
C1674 C502 1.440 . S
C1699 C436 1.440 . S
C1704 C469 1.440 . S
