# Generated by pormake.
# Topology vbm, (6)-cn, num edge types: 1
# Building blocks:
#     Node 0, Type 0, BuildingBlock: MIFKUJ_clean_sbu_0, # of connection points: 6
#     Node 1, Type 0, BuildingBlock: MIFKUJ_clean_sbu_0, # of connection points: 6
#     Node 2, Type 0, BuildingBlock: MIFKUJ_clean_sbu_0, # of connection points: 6
#     Node 3, Type 0, BuildingBlock: MIFKUJ_clean_sbu_0, # of connection points: 6
#     Node 4, Type 0, BuildingBlock: MIFKUJ_clean_sbu_0, # of connection points: 6
#     Node 5, Type 0, BuildingBlock: MIFKUJ_clean_sbu_0, # of connection points: 6
#     Node 6, Type 0, BuildingBlock: MIFKUJ_clean_sbu_0, # of connection points: 6
#     Node 7, Type 0, BuildingBlock: MIFKUJ_clean_sbu_0, # of connection points: 6
#     Node 8, Type 0, BuildingBlock: MIFKUJ_clean_sbu_0, # of connection points: 6
#     Node 9, Type 0, BuildingBlock: MIFKUJ_clean_sbu_0, # of connection points: 6
#     Node 10, Type 0, BuildingBlock: MIFKUJ_clean_sbu_0, # of connection points: 6
#     Node 11, Type 0, BuildingBlock: MIFKUJ_clean_sbu_0, # of connection points: 6
#     Node 12, Type 0, BuildingBlock: MIFKUJ_clean_sbu_0, # of connection points: 6
#     Node 13, Type 0, BuildingBlock: MIFKUJ_clean_sbu_0, # of connection points: 6
#     Node 14, Type 0, BuildingBlock: MIFKUJ_clean_sbu_0, # of connection points: 6
#     Node 15, Type 0, BuildingBlock: MIFKUJ_clean_sbu_0, # of connection points: 6
#     Edge 16, Type (0, 0), BuildingBlock: MIFKUJ_clean_linker_0, # of connection points: 2
#     Edge 17, Type (0, 0), BuildingBlock: MIFKUJ_clean_linker_0, # of connection points: 2
#     Edge 18, Type (0, 0), BuildingBlock: MIFKUJ_clean_linker_0, # of connection points: 2
#     Edge 19, Type (0, 0), BuildingBlock: MIFKUJ_clean_linker_0, # of connection points: 2
#     Edge 20, Type (0, 0), BuildingBlock: MIFKUJ_clean_linker_0, # of connection points: 2
#     Edge 21, Type (0, 0), BuildingBlock: MIFKUJ_clean_linker_0, # of connection points: 2
#     Edge 22, Type (0, 0), BuildingBlock: MIFKUJ_clean_linker_0, # of connection points: 2
#     Edge 23, Type (0, 0), BuildingBlock: MIFKUJ_clean_linker_0, # of connection points: 2
#     Edge 24, Type (0, 0), BuildingBlock: MIFKUJ_clean_linker_0, # of connection points: 2
#     Edge 25, Type (0, 0), BuildingBlock: MIFKUJ_clean_linker_0, # of connection points: 2
#     Edge 26, Type (0, 0), BuildingBlock: MIFKUJ_clean_linker_0, # of connection points: 2
#     Edge 27, Type (0, 0), BuildingBlock: MIFKUJ_clean_linker_0, # of connection points: 2
#     Edge 28, Type (0, 0), BuildingBlock: MIFKUJ_clean_linker_0, # of connection points: 2
#     Edge 29, Type (0, 0), BuildingBlock: MIFKUJ_clean_linker_0, # of connection points: 2
#     Edge 30, Type (0, 0), BuildingBlock: MIFKUJ_clean_linker_0, # of connection points: 2
#     Edge 31, Type (0, 0), BuildingBlock: MIFKUJ_clean_linker_0, # of connection points: 2
#     Edge 32, Type (0, 0), BuildingBlock: MIFKUJ_clean_linker_0, # of connection points: 2
#     Edge 33, Type (0, 0), BuildingBlock: MIFKUJ_clean_linker_0, # of connection points: 2
#     Edge 34, Type (0, 0), BuildingBlock: MIFKUJ_clean_linker_0, # of connection points: 2
#     Edge 35, Type (0, 0), BuildingBlock: MIFKUJ_clean_linker_0, # of connection points: 2
#     Edge 36, Type (0, 0), BuildingBlock: MIFKUJ_clean_linker_0, # of connection points: 2
#     Edge 37, Type (0, 0), BuildingBlock: MIFKUJ_clean_linker_0, # of connection points: 2
#     Edge 38, Type (0, 0), BuildingBlock: MIFKUJ_clean_linker_0, # of connection points: 2
#     Edge 39, Type (0, 0), BuildingBlock: MIFKUJ_clean_linker_0, # of connection points: 2
#     Edge 40, Type (0, 0), BuildingBlock: MIFKUJ_clean_linker_0, # of connection points: 2
#     Edge 41, Type (0, 0), BuildingBlock: MIFKUJ_clean_linker_0, # of connection points: 2
#     Edge 42, Type (0, 0), BuildingBlock: MIFKUJ_clean_linker_0, # of connection points: 2
#     Edge 43, Type (0, 0), BuildingBlock: MIFKUJ_clean_linker_0, # of connection points: 2
#     Edge 44, Type (0, 0), BuildingBlock: MIFKUJ_clean_linker_0, # of connection points: 2
#     Edge 45, Type (0, 0), BuildingBlock: MIFKUJ_clean_linker_0, # of connection points: 2
#     Edge 46, Type (0, 0), BuildingBlock: MIFKUJ_clean_linker_0, # of connection points: 2
#     Edge 47, Type (0, 0), BuildingBlock: MIFKUJ_clean_linker_0, # of connection points: 2
#     Edge 48, Type (0, 0), BuildingBlock: MIFKUJ_clean_linker_0, # of connection points: 2
#     Edge 49, Type (0, 0), BuildingBlock: MIFKUJ_clean_linker_0, # of connection points: 2
#     Edge 50, Type (0, 0), BuildingBlock: MIFKUJ_clean_linker_0, # of connection points: 2
#     Edge 51, Type (0, 0), BuildingBlock: MIFKUJ_clean_linker_0, # of connection points: 2
#     Edge 52, Type (0, 0), BuildingBlock: MIFKUJ_clean_linker_0, # of connection points: 2
#     Edge 53, Type (0, 0), BuildingBlock: MIFKUJ_clean_linker_0, # of connection points: 2
#     Edge 54, Type (0, 0), BuildingBlock: MIFKUJ_clean_linker_0, # of connection points: 2
#     Edge 55, Type (0, 0), BuildingBlock: MIFKUJ_clean_linker_0, # of connection points: 2
#     Edge 56, Type (0, 0), BuildingBlock: MIFKUJ_clean_linker_0, # of connection points: 2
#     Edge 57, Type (0, 0), BuildingBlock: MIFKUJ_clean_linker_0, # of connection points: 2
#     Edge 58, Type (0, 0), BuildingBlock: MIFKUJ_clean_linker_0, # of connection points: 2
#     Edge 59, Type (0, 0), BuildingBlock: MIFKUJ_clean_linker_0, # of connection points: 2
#     Edge 60, Type (0, 0), BuildingBlock: MIFKUJ_clean_linker_0, # of connection points: 2
#     Edge 61, Type (0, 0), BuildingBlock: MIFKUJ_clean_linker_0, # of connection points: 2
#     Edge 62, Type (0, 0), BuildingBlock: MIFKUJ_clean_linker_0, # of connection points: 2
#     Edge 63, Type (0, 0), BuildingBlock: MIFKUJ_clean_linker_0, # of connection points: 2
# Relax obj value: 0.052
# Max RMSD: 0.105
# Mean RMSD: 0.105
data_MOF--net-vbm--node1-MIFKUJ_clean_sbu_0--edge1-MIFKUJ_clean_linker_0
_symmetry_space_group_name_H-M    P1
_symmetry_Int_Tables_number       1
_symmetry_cell_setting            triclinic
loop_
_symmetry_equiv_pos_as_xyz
'x, y, z'
_cell_length_a     84.809861
_cell_length_b     23.422292
_cell_length_c     73.18437
_cell_angle_alpha  90.007732
_cell_angle_beta   90.030538
_cell_angle_gamma 90.007636
loop_
_atom_site_label
_atom_site_type_symbol
_atom_site_fract_x
_atom_site_fract_y
_atom_site_fract_z
_atom_type_partial_charge
Zn0 Zn 0.13403 0.18516 0.12477 0.0
Zn1 Zn 0.11416 0.03219 0.12004 0.0
C2 C 0.16787 0.15659 0.12673 0.0
O3 O 0.16361 0.12041 0.13952 0.0
C4 C 0.0821 0.01483 0.10912 0.0
O5 O 0.08877 0.97476 0.09921 0.0
O6 O 0.12794 0.2692 0.12689 0.0
O7 O 0.12049 0.15135 0.10481 0.0
O8 O 0.1258 0.06228 0.0983 0.0
C9 C 0.13729 0.30692 0.12061 0.0
O10 O 0.15041 0.2911 0.11261 0.0
O11 O 0.15732 0.18401 0.11806 0.0
C12 C 0.12641 0.91794 0.12898 0.0
O13 O 0.13717 0.94525 0.1385 0.0
O14 O 0.11609 0.94627 0.12026 0.0
O15 O 0.12118 0.06241 0.14413 0.0
O16 O 0.13167 0.14776 0.14962 0.0
O17 O 0.09081 0.0481 0.11842 0.0
C18 C 0.12643 0.1147 0.09409 0.0
C19 C 0.12682 0.0992 0.15507 0.0
Zn20 Zn 0.86689 0.8211 0.12743 0.0
Zn21 Zn 0.8813 0.97799 0.1239 0.0
C22 C 0.83576 0.79237 0.13971 0.0
O23 O 0.84377 0.75774 0.15036 0.0
C24 C 0.91467 0.95635 0.11841 0.0
O25 O 0.90958 0.93948 0.10236 0.0
O26 O 0.87221 0.73736 0.12717 0.0
O27 O 0.87244 0.85306 0.10266 0.0
O28 O 0.87791 0.94575 0.09913 0.0
C29 C 0.86457 0.70442 0.11656 0.0
O30 O 0.85388 0.72636 0.10562 0.0
O31 O 0.84322 0.82601 0.1292 0.0
C32 C 0.88371 0.09637 0.13319 0.0
O33 O 0.89421 0.07618 0.14469 0.0
O34 O 0.87614 0.06184 0.12304 0.0
O35 O 0.86705 0.93915 0.14145 0.0
O36 O 0.87649 0.85663 0.14984 0.0
O37 O 0.90471 0.97198 0.13043 0.0
C38 C 0.87558 0.89605 0.09267 0.0
C39 C 0.87391 0.9088 0.15331 0.0
Zn40 Zn 0.13502 0.81223 0.36588 0.0
Zn41 Zn 0.11821 0.97334 0.36882 0.0
C42 C 0.16898 0.83038 0.35674 0.0
O43 O 0.16446 0.86823 0.34457 0.0
C44 C 0.08481 0.95646 0.37359 0.0
O45 O 0.08966 0.94405 0.39015 0.0
O46 O 0.12744 0.7311 0.36664 0.0
O47 O 0.12903 0.85261 0.38955 0.0
O48 O 0.12061 0.94184 0.39374 0.0
C49 C 0.13407 0.69775 0.37799 0.0
O50 O 0.14437 0.71889 0.38958 0.0
O51 O 0.15871 0.80471 0.36632 0.0
C52 C 0.11824 0.09024 0.35777 0.0
O53 O 0.10914 0.06973 0.3448 0.0
O54 O 0.12402 0.05627 0.36953 0.0
O55 O 0.13341 0.93064 0.35348 0.0
O56 O 0.12761 0.84756 0.34215 0.0
O57 O 0.09497 0.96811 0.36132 0.0
C58 C 0.12449 0.8931 0.39995 0.0
C59 C 0.12807 0.9013 0.34041 0.0
Zn60 Zn 0.86291 0.18573 0.36569 0.0
Zn61 Zn 0.88425 0.02961 0.36826 0.0
C62 C 0.83117 0.22635 0.35994 0.0
O63 O 0.83886 0.27082 0.35364 0.0
C64 C 0.91631 0.01339 0.37287 0.0
O65 O 0.90981 0.9865 0.38671 0.0
O66 O 0.86877 0.26952 0.36497 0.0
O67 O 0.87003 0.15176 0.38981 0.0
O68 O 0.8811 0.06587 0.39263 0.0
C69 C 0.8727 0.30022 0.37855 0.0
O70 O 0.87438 0.27649 0.39468 0.0
O71 O 0.8389 0.18279 0.36526 0.0
C72 C 0.87448 0.91256 0.3592 0.0
O73 O 0.8691 0.93556 0.34407 0.0
O74 O 0.88075 0.94443 0.37125 0.0
O75 O 0.86911 0.06056 0.34982 0.0
O76 O 0.87162 0.15104 0.34263 0.0
O77 O 0.90735 0.0391 0.36159 0.0
C78 C 0.87597 0.11209 0.39955 0.0
C79 C 0.87321 0.09873 0.33853 0.0
Zn80 Zn 0.88279 0.97066 0.86674 0.0
Zn81 Zn 0.86712 0.80964 0.86415 0.0
C82 C 0.91516 0.9811 0.87316 0.0
O83 O 0.90884 1.00016 0.88837 0.0
C84 C 0.83299 0.8359 0.85944 0.0
O85 O 0.83726 0.88601 0.85311 0.0
O86 O 0.87781 0.05439 0.8682 0.0
O87 O 0.86831 0.93385 0.84897 0.0
O88 O 0.87473 0.84699 0.84086 0.0
C89 C 0.88185 0.08798 0.8554 0.0
O90 O 0.88881 0.06691 0.84084 0.0
O91 O 0.90606 0.96369 0.86049 0.0
C92 C 0.86961 0.69635 0.87699 0.0
O93 O 0.86052 0.71826 0.88973 0.0
O94 O 0.87492 0.72882 0.86451 0.0
O95 O 0.87255 0.84649 0.88827 0.0
O96 O 0.87963 0.93778 0.89142 0.0
O97 O 0.84346 0.80007 0.86414 0.0
C98 C 0.87421 0.9 0.83741 0.0
C99 C 0.87642 0.88908 0.89808 0.0
Zn100 Zn 0.11627 0.03252 0.86908 0.0
Zn101 Zn 0.13844 0.19086 0.86663 0.0
C102 C 0.08405 0.02579 0.87333 0.0
O103 O 0.08998 0.00816 0.88893 0.0
C104 C 0.17217 0.16617 0.85969 0.0
O105 O 0.16735 0.1293 0.84736 0.0
O106 O 0.12025 0.94748 0.87205 0.0
O107 O 0.13296 0.06834 0.85316 0.0
O108 O 0.13163 0.15565 0.84273 0.0
C109 C 0.12077 0.91352 0.8585 0.0
O110 O 0.11892 0.93371 0.84192 0.0
O111 O 0.09351 0.04105 0.86071 0.0
C112 C 0.12787 0.30409 0.87958 0.0
O113 O 0.12503 0.27913 0.89531 0.0
O114 O 0.13259 0.27438 0.86611 0.0
O115 O 0.13014 0.1514 0.88925 0.0
O116 O 0.11794 0.06839 0.89395 0.0
O117 O 0.16207 0.19375 0.86894 0.0
C118 C 0.12976 0.10246 0.84023 0.0
C119 C 0.12369 0.11513 0.89983 0.0
Zn120 Zn 0.88284 0.02745 0.62615 0.0
Zn121 Zn 0.86458 0.18733 0.62756 0.0
C122 C 0.91491 0.01107 0.62088 0.0
O123 O 0.90822 0.98059 0.60794 0.0
C124 C 0.83319 0.22334 0.63754 0.0
O125 O 0.8412 0.26119 0.64701 0.0
O126 O 0.87771 0.94294 0.62701 0.0
O127 O 0.86776 0.07214 0.64126 0.0
O128 O 0.87324 0.15709 0.65137 0.0
C129 C 0.88602 0.90809 0.63625 0.0
O130 O 0.89767 0.92765 0.6463 0.0
O131 O 0.90611 0.03853 0.63193 0.0
C132 C 0.86297 0.30379 0.61511 0.0
O133 O 0.8511 0.28324 0.6056 0.0
O134 O 0.87102 0.27016 0.62507 0.0
O135 O 0.87125 0.14386 0.6047 0.0
O136 O 0.88038 0.05549 0.60076 0.0
O137 O 0.84065 0.18546 0.62857 0.0
C138 C 0.87333 0.10355 0.65372 0.0
C139 C 0.87617 0.10371 0.59439 0.0
Zn140 Zn 0.11646 0.97879 0.62614 0.0
Zn141 Zn 0.13532 0.82039 0.6277 0.0
C142 C 0.08325 0.97402 0.62108 0.0
O143 O 0.08793 0.97683 0.60402 0.0
C144 C 0.16638 0.7884 0.63761 0.0
O145 O 0.15834 0.75339 0.6481 0.0
O146 O 0.12196 0.06258 0.625 0.0
O147 O 0.13169 0.93951 0.64279 0.0
O148 O 0.12717 0.85179 0.6514 0.0
C149 C 0.11372 0.09929 0.63352 0.0
O150 O 0.1018 0.08198 0.64354 0.0
O151 O 0.09346 0.97244 0.63383 0.0
C152 C 0.13746 0.70391 0.61574 0.0
O153 O 0.14859 0.72555 0.60536 0.0
O154 O 0.12962 0.73689 0.62615 0.0
O155 O 0.12819 0.85905 0.60463 0.0
O156 O 0.11853 0.94651 0.60095 0.0
O157 O 0.15897 0.82437 0.62788 0.0
C158 C 0.12691 0.90483 0.65485 0.0
C159 C 0.1228 0.89855 0.59448 0.0
Zn160 Zn 0.63746 0.69698 0.12598 0.0
Zn161 Zn 0.61591 0.53201 0.12491 0.0
C162 C 0.67081 0.67316 0.13021 0.0
O163 O 0.66605 0.6297 0.14012 0.0
C164 C 0.58439 0.49847 0.11946 0.0
O165 O 0.59151 0.46234 0.10848 0.0
O166 O 0.62864 0.77675 0.12349 0.0
O167 O 0.62976 0.64121 0.1058 0.0
O168 O 0.6193 0.55654 0.09925 0.0
C169 C 0.63588 0.81125 0.113 0.0
O170 O 0.6473 0.79174 0.10262 0.0
O171 O 0.6607 0.70564 0.12281 0.0
C172 C 0.617 0.41653 0.13826 0.0
O173 O 0.60504 0.43484 0.14804 0.0
O174 O 0.62457 0.45206 0.12847 0.0
O175 O 0.62556 0.59546 0.13809 0.0
O176 O 0.63429 0.66932 0.15224 0.0
O177 O 0.59259 0.53342 0.12871 0.0
C178 C 0.62478 0.60471 0.09414 0.0
C179 C 0.62898 0.61895 0.15302 0.0
Zn180 Zn 0.3644 0.31744 0.12721 0.0
Zn181 Zn 0.38325 0.47451 0.12548 0.0
C182 C 0.33304 0.28255 0.13646 0.0
O183 O 0.34095 0.24524 0.14625 0.0
C184 C 0.41551 0.49399 0.12155 0.0
O185 O 0.40938 0.52801 0.10918 0.0
O186 O 0.37052 0.23447 0.12632 0.0
O187 O 0.37108 0.35389 0.10352 0.0
O188 O 0.38008 0.44294 0.10063 0.0
C189 C 0.36361 0.20096 0.11525 0.0
O190 O 0.35312 0.22187 0.10385 0.0
O191 O 0.34058 0.32037 0.12761 0.0
C192 C 0.38636 0.59518 0.13402 0.0
O193 O 0.39716 0.57672 0.14544 0.0
O194 O 0.37872 0.55934 0.1244 0.0
O195 O 0.36842 0.43846 0.14316 0.0
O196 O 0.37292 0.34952 0.15065 0.0
O197 O 0.40641 0.46339 0.13131 0.0
C198 C 0.37604 0.39522 0.09382 0.0
C199 C 0.37334 0.40216 0.15463 0.0
Zn200 Zn 0.63142 0.32336 0.36509 0.0
Zn201 Zn 0.62079 0.47204 0.36842 0.0
C202 C 0.66351 0.29961 0.35767 0.0
O203 O 0.65635 0.26855 0.34523 0.0
C204 C 0.58811 0.47316 0.37965 0.0
O205 O 0.59457 0.49387 0.39456 0.0
O206 O 0.62713 0.23747 0.36393 0.0
O207 O 0.62031 0.35009 0.38791 0.0
O208 O 0.62973 0.43746 0.39118 0.0
C209 C 0.63549 0.20296 0.37329 0.0
O210 O 0.64656 0.22315 0.38405 0.0
O211 O 0.65525 0.33139 0.36804 0.0
C212 C 0.61387 0.59466 0.36545 0.0
O213 O 0.60024 0.57678 0.35914 0.0
O214 O 0.62424 0.55826 0.37024 0.0
O215 O 0.63107 0.44962 0.34512 0.0
O216 O 0.62506 0.35812 0.34087 0.0
O217 O 0.59707 0.45791 0.36658 0.0
C218 C 0.62551 0.39003 0.39799 0.0
C219 C 0.62785 0.4079 0.3347 0.0
Zn220 Zn 0.3651 0.68062 0.36669 0.0
Zn221 Zn 0.38713 0.52843 0.37099 0.0
C222 C 0.33383 0.70283 0.35486 0.0
O223 O 0.34172 0.73535 0.34344 0.0
C224 C 0.41999 0.53326 0.37606 0.0
O225 O 0.41473 0.5244 0.39269 0.0
O226 O 0.36829 0.76649 0.3659 0.0
O227 O 0.37213 0.6498 0.39109 0.0
O228 O 0.38413 0.56609 0.3955 0.0
C229 C 0.37682 0.79632 0.37653 0.0
O230 O 0.38528 0.77079 0.38916 0.0
O231 O 0.34146 0.67132 0.3659 0.0
C232 C 0.3759 0.4118 0.36382 0.0
O233 O 0.36756 0.43674 0.35103 0.0
O234 O 0.38461 0.44222 0.37413 0.0
O235 O 0.37105 0.55731 0.35274 0.0
O236 O 0.37467 0.646 0.34403 0.0
O237 O 0.41004 0.53898 0.36313 0.0
C238 C 0.37839 0.61267 0.4015 0.0
C239 C 0.37495 0.59295 0.3405 0.0
Zn240 Zn 0.38214 0.4745 0.86706 0.0
Zn241 Zn 0.36885 0.31884 0.86496 0.0
C242 C 0.41457 0.49161 0.87249 0.0
O243 O 0.40815 0.52273 0.88544 0.0
C244 C 0.33734 0.29253 0.85274 0.0
O245 O 0.34514 0.25957 0.84136 0.0
O246 O 0.37755 0.55968 0.86695 0.0
O247 O 0.36777 0.43631 0.84923 0.0
O248 O 0.37833 0.35397 0.8422 0.0
C249 C 0.3861 0.59473 0.85808 0.0
O250 O 0.39778 0.57545 0.84805 0.0
O251 O 0.40557 0.46364 0.86178 0.0
C252 C 0.36484 0.20082 0.87449 0.0
O253 O 0.35278 0.22233 0.88341 0.0
O254 O 0.37395 0.23414 0.86568 0.0
O255 O 0.37454 0.35147 0.88952 0.0
O256 O 0.37884 0.44513 0.89216 0.0
O257 O 0.34504 0.32455 0.86356 0.0
C258 C 0.37454 0.40445 0.8377 0.0
C259 C 0.37721 0.39574 0.89911 0.0
Zn260 Zn 0.61622 0.52641 0.86888 0.0
Zn261 Zn 0.63602 0.68598 0.86776 0.0
C262 C 0.58397 0.49717 0.86877 0.0
O263 O 0.59001 0.45657 0.87898 0.0
C264 C 0.66713 0.71984 0.85795 0.0
O265 O 0.659 0.7541 0.84729 0.0
O266 O 0.62207 0.44267 0.8691 0.0
O267 O 0.63127 0.56797 0.85276 0.0
O268 O 0.62843 0.6558 0.84365 0.0
C269 C 0.61761 0.40857 0.8566 0.0
O270 O 0.60939 0.42853 0.84279 0.0
O271 O 0.59308 0.53494 0.86206 0.0
C272 C 0.63626 0.80261 0.88037 0.0
O273 O 0.64667 0.78224 0.89197 0.0
O274 O 0.6296 0.76869 0.86922 0.0
O275 O 0.62864 0.6434 0.89029 0.0
O276 O 0.61847 0.55657 0.89425 0.0
O277 O 0.65978 0.68437 0.86794 0.0
C278 C 0.62677 0.6029 0.84066 0.0
C279 C 0.62314 0.60432 0.90058 0.0
Zn280 Zn 0.38959 0.53118 0.62542 0.0
Zn281 Zn 0.36438 0.69247 0.627 0.0
C282 C 0.42185 0.52082 0.61787 0.0
O283 O 0.41573 0.51178 0.60164 0.0
C284 C 0.33135 0.66724 0.62779 0.0
O285 O 0.33605 0.62154 0.63667 0.0
O286 O 0.38084 0.45057 0.62601 0.0
O287 O 0.37838 0.58924 0.64016 0.0
O288 O 0.36585 0.65945 0.65266 0.0
C289 C 0.38522 0.41436 0.63793 0.0
O290 O 0.39448 0.43113 0.65128 0.0
O291 O 0.41273 0.52984 0.63133 0.0
C292 C 0.36891 0.80671 0.61439 0.0
O293 O 0.36052 0.78653 0.60073 0.0
O294 O 0.37316 0.77278 0.62704 0.0
O295 O 0.37422 0.64057 0.60745 0.0
O296 O 0.38709 0.56163 0.59995 0.0
O297 O 0.34154 0.702 0.62171 0.0
C298 C 0.37269 0.61167 0.6544 0.0
C299 C 0.38036 0.60812 0.5954 0.0
Zn300 Zn 0.62287 0.47343 0.6246 0.0
Zn301 Zn 0.63302 0.32284 0.62696 0.0
C302 C 0.59032 0.47507 0.61636 0.0
O303 O 0.59664 0.49426 0.60116 0.0
C304 C 0.66506 0.29335 0.63648 0.0
O305 O 0.65764 0.25589 0.6467 0.0
O306 O 0.62654 0.55961 0.62421 0.0
O307 O 0.63658 0.44 0.64408 0.0
O308 O 0.62397 0.36002 0.64963 0.0
C309 C 0.61627 0.59529 0.6298 0.0
O310 O 0.60296 0.57648 0.63669 0.0
O311 O 0.59944 0.46037 0.62937 0.0
C312 C 0.63627 0.20359 0.61813 0.0
O313 O 0.64738 0.2242 0.60751 0.0
O314 O 0.62807 0.23777 0.62777 0.0
O315 O 0.62578 0.34927 0.60211 0.0
O316 O 0.62756 0.44394 0.59967 0.0
O317 O 0.65706 0.32951 0.62738 0.0
C318 C 0.62972 0.40693 0.65522 0.0
C319 C 0.62605 0.39471 0.59259 0.0
H320 H 0.18027 0.25191 0.11038 0.0
H321 H 0.2077 0.28351 0.11067 0.0
H322 H 0.22113 0.12791 0.13816 0.0
H323 H 0.1936 0.09744 0.1387 0.0
H324 H 0.2339 0.21394 0.15465 0.0
H325 H 0.22842 0.16133 0.09024 0.0
H326 H 0.21644 0.16875 0.0596 0.0
H327 H 0.22804 0.3471 0.0576 0.0
H328 H 0.23991 0.34089 0.08833 0.0
H329 H 0.31489 0.19165 0.14594 0.0
H330 H 0.28655 0.18035 0.14214 0.0
H331 H 0.28349 0.34893 0.11866 0.0
H332 H 0.31216 0.35995 0.12192 0.0
H333 H 0.26473 0.27444 0.10041 0.0
H334 H 0.2719 0.32853 0.16236 0.0
H335 H 0.28465 0.32518 0.19263 0.0
H336 H 0.2697 0.15132 0.19943 0.0
H337 H 0.25703 0.15338 0.16909 0.0
C338 C 0.18908 0.22406 0.11629 0.0
C339 C 0.18472 0.17211 0.12456 0.0
C340 C 0.20481 0.24216 0.11638 0.0
C341 C 0.21658 0.20799 0.12432 0.0
C342 C 0.21229 0.15524 0.13202 0.0
C343 C 0.19654 0.13765 0.13223 0.0
C344 C 0.23326 0.22774 0.12553 0.0
C345 C 0.24064 0.22653 0.14271 0.0
C346 C 0.24192 0.24731 0.11017 0.0
C347 C 0.2349 0.25074 0.09165 0.0
C348 C 0.22832 0.20219 0.08331 0.0
C349 C 0.22156 0.20618 0.06592 0.0
C350 C 0.22144 0.25839 0.05668 0.0
C351 C 0.22812 0.3067 0.06478 0.0
C352 C 0.23487 0.30296 0.08217 0.0
C353 C 0.30822 0.22655 0.14005 0.0
C354 C 0.31574 0.27702 0.13447 0.0
C355 C 0.29199 0.22001 0.13787 0.0
C356 C 0.28283 0.26421 0.13044 0.0
C357 C 0.29032 0.31438 0.12451 0.0
C358 C 0.30667 0.32071 0.12648 0.0
C359 C 0.26543 0.2576 0.12933 0.0
C360 C 0.2579 0.26209 0.1123 0.0
C361 C 0.25651 0.24181 0.14484 0.0
C362 C 0.26355 0.24107 0.16342 0.0
C363 C 0.27135 0.28956 0.17031 0.0
C364 C 0.27858 0.28787 0.18747 0.0
C365 C 0.278 0.23805 0.19794 0.0
C366 C 0.27012 0.1899 0.19131 0.0
C367 C 0.26288 0.19134 0.17415 0.0
H368 H 0.28364 0.23677 0.2112 0.0
H369 H 0.21619 0.26139 0.04323 0.0
H370 H 0.81539 0.8594 0.12004 0.0
H371 H 0.787 0.84498 0.11579 0.0
H372 H 0.78866 0.69867 0.1515 0.0
H373 H 0.81692 0.71268 0.15587 0.0
H374 H 0.77339 0.67749 0.11828 0.0
H375 H 0.77388 0.82254 0.16614 0.0
H376 H 0.77999 0.917 0.17924 0.0
H377 H 0.75455 0.99857 0.13574 0.0
H378 H 0.7485 0.90459 0.12221 0.0
H379 H 0.69576 0.61526 0.1449 0.0
H380 H 0.72364 0.64099 0.14317 0.0
H381 H 0.712 0.78751 0.11009 0.0
H382 H 0.68409 0.7624 0.11182 0.0
H383 H 0.73209 0.81533 0.13721 0.0
H384 H 0.72913 0.67811 0.09044 0.0
H385 H 0.7219 0.58729 0.07566 0.0
H386 H 0.75135 0.49568 0.11332 0.0
H387 H 0.75853 0.58592 0.12858 0.0
C388 C 0.80968 0.82449 0.12713 0.0
C389 C 0.81842 0.78716 0.1383 0.0
C390 C 0.79347 0.81637 0.12468 0.0
C391 C 0.78578 0.77073 0.13332 0.0
C392 C 0.79442 0.73402 0.14467 0.0
C393 C 0.81056 0.74231 0.14723 0.0
C394 C 0.76879 0.75985 0.13027 0.0
C395 C 0.76434 0.70737 0.12255 0.0
C396 C 0.75706 0.80012 0.13501 0.0
C397 C 0.76094 0.85656 0.14302 0.0
C398 C 0.76976 0.86063 0.15924 0.0
C399 C 0.77318 0.91409 0.16677 0.0
C400 C 0.76772 0.96376 0.15829 0.0
C401 C 0.75882 0.96008 0.14227 0.0
C402 C 0.7554 0.90674 0.13466 0.0
C403 C 0.69914 0.65269 0.13714 0.0
C404 C 0.68773 0.6867 0.12848 0.0
C405 C 0.71507 0.66726 0.13613 0.0
C406 C 0.71986 0.71591 0.12639 0.0
C407 C 0.70852 0.74981 0.11766 0.0
C408 C 0.6926 0.73522 0.11863 0.0
C409 C 0.7367 0.73212 0.12587 0.0
C410 C 0.74113 0.78564 0.13276 0.0
C411 C 0.74842 0.69337 0.11998 0.0
C412 C 0.74428 0.63885 0.11077 0.0
C413 C 0.73397 0.63858 0.09568 0.0
C414 C 0.72989 0.58719 0.0872 0.0
C415 C 0.73613 0.53573 0.09357 0.0
C416 C 0.74651 0.53559 0.10841 0.0
C417 C 0.7506 0.58687 0.11698 0.0
H418 H 0.73296 0.49597 0.08698 0.0
H419 H 0.77035 0.00509 0.16417 0.0
H420 H 0.31494 0.77801 0.33678 0.0
H421 H 0.28682 0.79435 0.34116 0.0
H422 H 0.28513 0.65829 0.38079 0.0
H423 H 0.31349 0.64168 0.37658 0.0
H424 H 0.2597 0.65681 0.35604 0.0
H425 H 0.28391 0.78477 0.39705 0.0
H426 H 0.30277 0.85739 0.40784 0.0
H427 H 0.28424 0.97788 0.36919 0.0
H428 H 0.26541 0.90566 0.35795 0.0
H429 H 0.18182 0.75014 0.37946 0.0
H430 H 0.20959 0.72437 0.3827 0.0
H431 H 0.22217 0.8518 0.34275 0.0
H432 H 0.19439 0.87818 0.33946 0.0
H433 H 0.242 0.85162 0.37319 0.0
H434 H 0.21951 0.71331 0.3306 0.0
H435 H 0.20046 0.63855 0.32185 0.0
H436 H 0.2156 0.53509 0.367 0.0
H437 H 0.23463 0.60959 0.37614 0.0
C438 C 0.30863 0.75115 0.34634 0.0
C439 C 0.31649 0.70866 0.35639 0.0
C440 C 0.29255 0.76079 0.34889 0.0
C441 C 0.28397 0.72808 0.36148 0.0
C442 C 0.2916 0.68417 0.37108 0.0
C443 C 0.30777 0.67476 0.36865 0.0
C444 C 0.26705 0.74074 0.36452 0.0
C445 C 0.25581 0.69905 0.36013 0.0
C446 C 0.26201 0.79583 0.3699 0.0
C447 C 0.27333 0.83956 0.37653 0.0
C448 C 0.28395 0.82657 0.39072 0.0
C449 C 0.29462 0.8677 0.39695 0.0
C450 C 0.29473 0.92217 0.38917 0.0
C451 C 0.28415 0.93564 0.37518 0.0
C452 C 0.27346 0.89463 0.36889 0.0
C453 C 0.19048 0.7729 0.37139 0.0
C454 C 0.18587 0.81608 0.3591 0.0
C455 C 0.20635 0.75798 0.37325 0.0
C456 C 0.21791 0.78583 0.36286 0.0
C457 C 0.2134 0.82979 0.3509 0.0
C458 C 0.19753 0.84466 0.34898 0.0
C459 C 0.23468 0.7684 0.36402 0.0
C460 C 0.24589 0.80921 0.3693 0.0
C461 C 0.23966 0.71222 0.35979 0.0
C462 C 0.22837 0.66721 0.35415 0.0
C463 C 0.2187 0.67476 0.33873 0.0
C464 C 0.20792 0.63242 0.33369 0.0
C465 C 0.20679 0.58217 0.34389 0.0
C466 C 0.21648 0.57407 0.35912 0.0
C467 C 0.22727 0.6163 0.36423 0.0
H468 H 0.19843 0.54946 0.33997 0.0
H469 H 0.303 0.95397 0.39402 0.0
H470 H 0.81292 0.32167 0.36025 0.0
H471 H 0.78433 0.32791 0.36351 0.0
H472 H 0.78138 0.1445 0.36701 0.0
H473 H 0.81022 0.13778 0.36414 0.0
H474 H 0.76034 0.20163 0.34051 0.0
H475 H 0.77467 0.20593 0.40374 0.0
H476 H 0.79011 0.2392 0.43024 0.0
H477 H 0.77259 0.40945 0.42241 0.0
H478 H 0.75719 0.37731 0.3957 0.0
H479 H 0.67917 0.19948 0.35559 0.0
H480 H 0.70725 0.18217 0.35996 0.0
H481 H 0.71443 0.36103 0.37152 0.0
H482 H 0.68591 0.37777 0.36825 0.0
H483 H 0.73369 0.3007 0.3919 0.0
H484 H 0.7214 0.30031 0.32767 0.0
H485 H 0.70684 0.27046 0.30008 0.0
H486 H 0.72155 0.09701 0.30854 0.0
H487 H 0.73605 0.12579 0.33629 0.0
C488 C 0.80623 0.28255 0.36174 0.0
C489 C 0.81382 0.22916 0.36187 0.0
C490 C 0.7899 0.28629 0.36371 0.0
C491 C 0.78079 0.23673 0.36561 0.0
C492 C 0.78826 0.18322 0.36563 0.0
C493 C 0.8047 0.17947 0.364 0.0
C494 C 0.7634 0.24139 0.36674 0.0
C495 C 0.75445 0.22221 0.3519 0.0
C496 C 0.75587 0.26992 0.38136 0.0
C497 C 0.76486 0.28928 0.39763 0.0
C498 C 0.77418 0.25055 0.40759 0.0
C499 C 0.78291 0.26918 0.42267 0.0
C500 C 0.78236 0.32643 0.42798 0.0
C501 C 0.77301 0.36511 0.41827 0.0
C502 C 0.76425 0.34669 0.40318 0.0
C503 C 0.68673 0.23512 0.35913 0.0
C504 C 0.68046 0.2902 0.36121 0.0
C505 C 0.7028 0.2252 0.3616 0.0
C506 C 0.71311 0.27056 0.36548 0.0
C507 C 0.70676 0.32537 0.36835 0.0
C508 C 0.69051 0.33503 0.3664 0.0
C509 C 0.73049 0.26094 0.36557 0.0
C510 C 0.7395 0.27953 0.38058 0.0
C511 C 0.73817 0.23234 0.35097 0.0
C512 C 0.72969 0.21513 0.33412 0.0
C513 C 0.72147 0.25578 0.32368 0.0
C514 C 0.71323 0.23905 0.30801 0.0
C515 C 0.71324 0.18185 0.30259 0.0
C516 C 0.72154 0.14129 0.31277 0.0
C517 C 0.72979 0.15779 0.32845 0.0
H518 H 0.70684 0.16897 0.29047 0.0
H519 H 0.78914 0.3408 0.43964 0.0
H520 H 0.68561 0.80033 0.84179 0.0
H521 H 0.71411 0.81095 0.84394 0.0
H522 H 0.71666 0.66226 0.8786 0.0
H523 H 0.68791 0.65196 0.87684 0.0
H524 H 0.73561 0.74585 0.89123 0.0
H525 H 0.72819 0.65197 0.83461 0.0
H526 H 0.71632 0.63341 0.80444 0.0
H527 H 0.73238 0.79668 0.78534 0.0
H528 H 0.74418 0.81657 0.81549 0.0
H529 H 0.82021 0.74366 0.87698 0.0
H530 H 0.79237 0.71687 0.87888 0.0
H531 H 0.77978 0.86648 0.84777 0.0
H532 H 0.80757 0.89363 0.8458 0.0
H533 H 0.7667 0.76726 0.83423 0.0
H534 H 0.77301 0.8598 0.89329 0.0
H535 H 0.7847 0.87276 0.92387 0.0
H536 H 0.77128 0.70202 0.93851 0.0
H537 H 0.75969 0.68778 0.90792 0.0
C538 C 0.69219 0.76964 0.84982 0.0
C539 C 0.68449 0.725 0.85901 0.0
C540 C 0.70851 0.77572 0.85101 0.0
C541 C 0.71755 0.73686 0.86119 0.0
C542 C 0.70991 0.69259 0.87061 0.0
C543 C 0.69351 0.68665 0.86952 0.0
C544 C 0.73496 0.74311 0.86181 0.0
C545 C 0.74248 0.74952 0.87879 0.0
C546 C 0.74392 0.74782 0.84559 0.0
C547 C 0.73698 0.7359 0.82735 0.0
C548 C 0.72911 0.68407 0.82401 0.0
C549 C 0.7224 0.67329 0.80691 0.0
C550 C 0.72357 0.71388 0.79299 0.0
C551 C 0.73149 0.76528 0.79613 0.0
C552 C 0.73821 0.7763 0.81322 0.0
C553 C 0.81151 0.77101 0.87059 0.0
C554 C 0.81611 0.82068 0.86114 0.0
C555 C 0.7956 0.75578 0.8718 0.0
C556 C 0.78402 0.78981 0.86353 0.0
C557 C 0.78856 0.83966 0.85426 0.0
C558 C 0.80444 0.85516 0.85316 0.0
C559 C 0.76723 0.77227 0.86359 0.0
C560 C 0.75986 0.76316 0.84669 0.0
C561 C 0.75854 0.76403 0.8799 0.0
C562 C 0.76566 0.77249 0.89822 0.0
C563 C 0.7727 0.8248 0.90296 0.0
C564 C 0.77927 0.83243 0.92031 0.0
C565 C 0.77878 0.78818 0.93311 0.0
C566 C 0.77169 0.73623 0.92858 0.0
C567 C 0.76511 0.72837 0.91124 0.0
H568 H 0.78386 0.7942 0.94654 0.0
H569 H 0.71836 0.70547 0.77976 0.0
H570 H 0.31811 0.21812 0.83475 0.0
H571 H 0.28985 0.20453 0.8387 0.0
H572 H 0.28883 0.33929 0.87886 0.0
H573 H 0.31736 0.35258 0.87522 0.0
H574 H 0.27087 0.24899 0.88967 0.0
H575 H 0.27457 0.36577 0.83721 0.0
H576 H 0.28467 0.39783 0.80735 0.0
H577 H 0.26838 0.24251 0.78252 0.0
H578 H 0.25837 0.20913 0.81231 0.0
H579 H 0.18568 0.24562 0.88226 0.0
H580 H 0.21341 0.27359 0.88369 0.0
H581 H 0.22483 0.14521 0.84354 0.0
H582 H 0.19708 0.11763 0.84178 0.0
H583 H 0.23674 0.24797 0.83458 0.0
H584 H 0.23427 0.13175 0.88989 0.0
H585 H 0.22372 0.10723 0.92031 0.0
H586 H 0.23661 0.27308 0.94036 0.0
H587 H 0.24707 0.29884 0.91 0.0
C588 C 0.31191 0.24526 0.84434 0.0
C589 C 0.32 0.28686 0.85452 0.0
C590 C 0.29573 0.23739 0.8466 0.0
C591 C 0.28718 0.27136 0.85891 0.0
C592 C 0.29519 0.31267 0.86925 0.0
C593 C 0.31147 0.32046 0.86705 0.0
C594 C 0.26986 0.26349 0.86061 0.0
C595 C 0.26334 0.24962 0.87769 0.0
C596 C 0.26 0.26472 0.84503 0.0
C597 C 0.26582 0.2848 0.82702 0.0
C598 C 0.27323 0.3383 0.8254 0.0
C599 C 0.27892 0.35673 0.80849 0.0
C600 C 0.27719 0.32219 0.79305 0.0
C601 C 0.26972 0.26921 0.79449 0.0
C602 C 0.26401 0.25055 0.81138 0.0
C603 C 0.19411 0.22289 0.87385 0.0
C604 C 0.18915 0.17953 0.8618 0.0
C605 C 0.20998 0.23883 0.87476 0.0
C606 C 0.22121 0.21136 0.86378 0.0
C607 C 0.21634 0.16707 0.85212 0.0
C608 C 0.20048 0.15125 0.85115 0.0
C609 C 0.23788 0.23068 0.86345 0.0
C610 C 0.24424 0.2475 0.8466 0.0
C611 C 0.24743 0.23326 0.87933 0.0
C612 C 0.24132 0.21739 0.89763 0.0
C613 C 0.23476 0.16311 0.90076 0.0
C614 C 0.22882 0.14897 0.91799 0.0
C615 C 0.22946 0.18862 0.93224 0.0
C616 C 0.2361 0.24243 0.92931 0.0
C617 C 0.24206 0.25679 0.9121 0.0
H618 H 0.22484 0.17761 0.94557 0.0
H619 H 0.28162 0.33651 0.77997 0.0
H620 H 0.68741 0.37728 0.63292 0.0
H621 H 0.716 0.36429 0.6298 0.0
H622 H 0.70939 0.18143 0.62828 0.0
H623 H 0.68114 0.19453 0.63274 0.0
H624 H 0.73119 0.1981 0.64933 0.0
H625 H 0.72149 0.2713 0.58973 0.0
H626 H 0.7124 0.33656 0.56548 0.0
H627 H 0.7422 0.46926 0.58662 0.0
H628 H 0.7513 0.40513 0.61117 0.0
H629 H 0.81212 0.14272 0.62557 0.0
H630 H 0.78343 0.15294 0.62251 0.0
H631 H 0.78652 0.32613 0.64216 0.0
H632 H 0.81507 0.31608 0.64552 0.0
H633 H 0.76712 0.31053 0.60989 0.0
H634 H 0.77519 0.2301 0.67058 0.0
H635 H 0.78485 0.15756 0.69229 0.0
H636 H 0.75785 0.02852 0.66473 0.0
H637 H 0.74821 0.10018 0.64268 0.0
C638 C 0.69215 0.33447 0.63187 0.0
C639 C 0.68217 0.2869 0.63337 0.0
C640 C 0.70848 0.32696 0.62987 0.0
C641 C 0.71501 0.27175 0.62867 0.0
C642 C 0.70481 0.22447 0.62938 0.0
C643 C 0.68863 0.23193 0.63195 0.0
C644 C 0.73245 0.26256 0.62827 0.0
C645 C 0.73891 0.22211 0.64036 0.0
C646 C 0.74278 0.2942 0.61685 0.0
C647 C 0.73693 0.33353 0.60245 0.0
C648 C 0.72596 0.31461 0.58936 0.0
C649 C 0.72084 0.35137 0.57552 0.0
C650 C 0.72668 0.40707 0.57454 0.0
C651 C 0.73766 0.42615 0.58741 0.0
C652 C 0.7428 0.3896 0.60129 0.0
C653 C 0.80667 0.1829 0.62927 0.0
C654 C 0.81584 0.22844 0.63593 0.0
C655 C 0.7903 0.18869 0.62749 0.0
C656 C 0.78288 0.24032 0.63211 0.0
C657 C 0.79203 0.28602 0.63848 0.0
C658 C 0.80833 0.28 0.64053 0.0
C659 C 0.76551 0.2465 0.63084 0.0
C660 C 0.75918 0.2864 0.61856 0.0
C661 C 0.75522 0.21339 0.64168 0.0
C662 C 0.76114 0.17035 0.65486 0.0
C663 C 0.77145 0.18615 0.66904 0.0
C664 C 0.77689 0.14521 0.68143 0.0
C665 C 0.77201 0.08844 0.67986 0.0
C666 C 0.76165 0.07248 0.66591 0.0
C667 C 0.7562 0.11323 0.65347 0.0
H668 H 0.77621 0.05683 0.68949 0.0
H669 H 0.72274 0.43539 0.56379 0.0
H670 H 0.18429 0.69923 0.64914 0.0
H671 H 0.2126 0.68636 0.6455 0.0
H672 H 0.21588 0.8491 0.61814 0.0
H673 H 0.18728 0.86167 0.62129 0.0
H674 H 0.23422 0.76956 0.60154 0.0
H675 H 0.22733 0.83941 0.66195 0.0
H676 H 0.21502 0.84436 0.69242 0.0
H677 H 0.23014 0.67305 0.7038 0.0
H678 H 0.24236 0.66678 0.67328 0.0
H679 H 0.31823 0.76351 0.61328 0.0
H680 H 0.29052 0.79142 0.61378 0.0
H681 H 0.27859 0.63256 0.64024 0.0
H682 H 0.30636 0.60469 0.64014 0.0
H683 H 0.26537 0.72392 0.6571 0.0
H684 H 0.27118 0.65575 0.59466 0.0
H685 H 0.28399 0.65605 0.56441 0.0
H686 H 0.27175 0.83253 0.55729 0.0
H687 H 0.25905 0.83349 0.58762 0.0
C688 C 0.19101 0.73251 0.64244 0.0
C689 C 0.1836 0.78187 0.63574 0.0
C690 C 0.20719 0.72505 0.64034 0.0
C691 C 0.21637 0.76726 0.63185 0.0
C692 C 0.209 0.81616 0.62481 0.0
C693 C 0.19271 0.8234 0.62672 0.0
C694 C 0.23368 0.76019 0.63084 0.0
C695 C 0.2411 0.76048 0.61369 0.0
C696 C 0.24264 0.74848 0.64671 0.0
C697 C 0.2357 0.75254 0.66529 0.0
C698 C 0.22799 0.80272 0.67093 0.0
C699 C 0.22102 0.80576 0.6882 0.0
C700 C 0.22178 0.75902 0.70003 0.0
C701 C 0.22957 0.70923 0.69463 0.0
C702 C 0.23654 0.70594 0.67735 0.0
C703 C 0.3097 0.73421 0.61905 0.0
C704 C 0.31447 0.68179 0.62665 0.0
C705 C 0.29387 0.75025 0.6193 0.0
C706 C 0.28252 0.71388 0.62693 0.0
C707 C 0.28721 0.66121 0.63429 0.0
C708 C 0.30305 0.64523 0.63414 0.0
C709 C 0.26578 0.73112 0.62776 0.0
C710 C 0.25851 0.7333 0.64494 0.0
C711 C 0.25709 0.74593 0.61195 0.0
C712 C 0.26426 0.74479 0.59346 0.0
C713 C 0.27127 0.69467 0.58667 0.0
C714 C 0.27851 0.69462 0.56951 0.0
C715 C 0.27871 0.74431 0.55895 0.0
C716 C 0.2716 0.79408 0.56549 0.0
C717 C 0.26435 0.79438 0.58265 0.0
H718 H 0.28436 0.74422 0.54569 0.0
H719 H 0.21635 0.76142 0.71339 0.0
H720 H 0.10797 0.87084 0.31298 0.0
H721 H 0.10711 0.91017 0.28197 0.0
H722 H 0.14499 0.0259 0.2957 0.0
H723 H 0.14496 0.98987 0.32691 0.0
H724 H 0.12683 0.07869 0.27507 0.0
H725 H 0.14966 0.89046 0.27131 0.0
H726 H 0.15059 0.786 0.27554 0.0
H727 H 0.10913 0.76704 0.24239 0.0
H728 H 0.10783 0.87142 0.23815 0.0
H729 H 0.14707 0.13792 0.18159 0.0
H730 H 0.14786 0.10796 0.21374 0.0
H731 H 0.1074 0.99967 0.20464 0.0
H732 H 0.10701 0.02735 0.17263 0.0
H733 H 0.12842 0.94392 0.22285 0.0
H734 H 0.1059 0.13522 0.22762 0.0
H735 H 0.10624 0.23964 0.22313 0.0
H736 H 0.14923 0.25176 0.2539 0.0
H737 H 0.14917 0.1474 0.25852 0.0
C738 C 0.11594 0.90518 0.30934 0.0
C739 C 0.12657 0.92721 0.32221 0.0
C740 C 0.11557 0.92726 0.29161 0.0
C741 C 0.12632 0.9699 0.28628 0.0
C742 C 0.13661 0.99294 0.29938 0.0
C743 C 0.1366 0.97226 0.31723 0.0
C744 C 0.12713 0.99001 0.26706 0.0
C745 C 0.12736 0.04908 0.26368 0.0
C746 C 0.12772 0.95164 0.25211 0.0
C747 C 0.12858 0.88879 0.25454 0.0
C748 C 0.1407 0.86402 0.265 0.0
C749 C 0.14129 0.80483 0.2674 0.0
C750 C 0.1299 0.76992 0.25927 0.0
C751 C 0.11793 0.79412 0.24869 0.0
C752 C 0.11727 0.85328 0.24627 0.0
C753 C 0.13831 0.10805 0.18657 0.0
C754 C 0.127 0.08489 0.17467 0.0
C755 C 0.13873 0.09108 0.20491 0.0
C756 C 0.12758 0.05191 0.21165 0.0
C757 C 0.11616 0.02967 0.19976 0.0
C758 C 0.11594 0.04565 0.18146 0.0
C759 C 0.12784 0.03238 0.23091 0.0
C760 C 0.12791 0.97339 0.23428 0.0
C761 C 0.12773 0.07076 0.24583 0.0
C762 C 0.12759 0.13353 0.24328 0.0
C763 C 0.11545 0.16017 0.23337 0.0
C764 C 0.11558 0.21934 0.23083 0.0
C765 C 0.12775 0.2523 0.23823 0.0
C766 C 0.13979 0.2262 0.24823 0.0
C767 C 0.1397 0.16708 0.25084 0.0
H768 H 0.12784 0.29808 0.23622 0.0
H769 H 0.13038 0.72412 0.26115 0.0
H770 H 0.86368 0.15741 0.30834 0.0
H771 H 0.86544 0.12631 0.27649 0.0
H772 H 0.88958 0.97309 0.2935 0.0
H773 H 0.88797 0.00437 0.32543 0.0
H774 H 0.90292 0.02228 0.26284 0.0
H775 H 0.85214 0.96457 0.28402 0.0
H776 H 0.82587 0.97474 0.29801 0.0
H777 H 0.81265 0.09515 0.25652 0.0
H778 H 0.83896 0.08646 0.24243 0.0
H779 H 0.88729 0.85484 0.18265 0.0
H780 H 0.88911 0.89081 0.214 0.0
H781 H 0.86806 0.04991 0.1971 0.0
H782 H 0.86631 0.01481 0.16578 0.0
H783 H 0.85337 0.99679 0.22764 0.0
H784 H 0.9048 0.05158 0.20632 0.0
H785 H 0.93052 0.03374 0.19171 0.0
H786 H 0.94199 0.91156 0.2334 0.0
H787 H 0.91619 0.92792 0.24808 0.0
C788 C 0.86953 0.11744 0.30525 0.0
C789 C 0.87551 0.08276 0.31929 0.0
C790 C 0.87043 0.09959 0.2871 0.0
C791 C 0.87744 0.04709 0.28274 0.0
C792 C 0.88403 0.01356 0.29666 0.0
C793 C 0.88299 0.03115 0.31484 0.0
C794 C 0.87755 0.02665 0.26366 0.0
C795 C 0.89209 0.01612 0.25518 0.0
C796 C 0.86339 0.01932 0.2537 0.0
C797 C 0.84762 0.02546 0.26231 0.0
C798 C 0.84371 0.99378 0.278 0.0
C799 C 0.82879 0.99915 0.28592 0.0
C800 C 0.81761 0.03573 0.2782 0.0
C801 C 0.82133 0.06696 0.26252 0.0
C802 C 0.83625 0.06183 0.25456 0.0
C803 C 0.88322 0.89771 0.18557 0.0
C804 C 0.87655 0.93183 0.17179 0.0
C805 C 0.88428 0.91814 0.20344 0.0
C806 C 0.87866 0.97282 0.20776 0.0
C807 C 0.87238 0.00748 0.19398 0.0
C808 C 0.87144 0.98735 0.1761 0.0
C809 C 0.87872 0.99307 0.22681 0.0
C810 C 0.86419 0.00331 0.23529 0.0
C811 C 0.89286 0.99961 0.23679 0.0
C812 C 0.90851 0.9906 0.22821 0.0
C813 C 0.91276 0.0206 0.21231 0.0
C814 C 0.92736 0.01079 0.20402 0.0
C815 C 0.93787 0.97145 0.2116 0.0
C816 C 0.93382 0.94198 0.22753 0.0
C817 C 0.91922 0.95153 0.23585 0.0
H818 H 0.94916 0.96388 0.20516 0.0
H819 H 0.80606 0.03974 0.28433 0.0
H820 H 0.89764 0.11782 0.67766 0.0
H821 H 0.89914 0.08118 0.7092 0.0
H822 H 0.85318 0.00473 0.703 0.0
H823 H 0.85196 0.03883 0.67138 0.0
H824 H 0.86058 0.0854 0.73619 0.0
H825 H 0.8748 0.91495 0.70297 0.0
H826 H 0.89008 0.85981 0.68041 0.0
H827 H 0.93285 0.89816 0.70937 0.0
H828 H 0.9178 0.95442 0.73196 0.0
H829 H 0.85006 0.91102 0.81378 0.0
H830 H 0.85122 0.94701 0.78235 0.0
H831 H 0.90159 0.9689 0.78746 0.0
H832 H 0.9004 0.93189 0.8189 0.0
H833 H 0.89327 0.91957 0.75489 0.0
H834 H 0.87762 0.08273 0.79038 0.0
H835 H 0.86141 0.13566 0.81264 0.0
H836 H 0.82035 0.10932 0.77933 0.0
H837 H 0.83626 0.05549 0.757 0.0
C838 C 0.88799 0.09272 0.68307 0.0
C839 C 0.87475 0.08061 0.67225 0.0
C840 C 0.88883 0.07197 0.70096 0.0
C841 C 0.87625 0.04045 0.70826 0.0
C842 C 0.86298 0.02889 0.69749 0.0
C843 C 0.86235 0.04807 0.67949 0.0
C844 C 0.87673 0.02026 0.72728 0.0
C845 C 0.86763 0.04898 0.74034 0.0
C846 C 0.88612 0.97331 0.73252 0.0
C847 C 0.89522 0.93977 0.71895 0.0
C848 C 0.88749 0.91236 0.70437 0.0
C849 C 0.8961 0.88072 0.69162 0.0
C850 C 0.91244 0.87578 0.69339 0.0
C851 C 0.92019 0.90225 0.70797 0.0
C852 C 0.91163 0.93401 0.72076 0.0
C853 C 0.86135 0.9232 0.80805 0.0
C854 C 0.87516 0.91862 0.81843 0.0
C855 C 0.86201 0.944 0.79023 0.0
C856 C 0.87647 0.96119 0.78269 0.0
C857 C 0.89034 0.95583 0.79306 0.0
C858 C 0.88967 0.93475 0.8109 0.0
C859 C 0.87705 0.98456 0.76396 0.0
C860 C 0.88634 0.95644 0.75088 0.0
C861 C 0.86771 0.03191 0.75869 0.0
C862 C 0.85813 0.06467 0.77207 0.0
C863 C 0.86512 0.08786 0.78786 0.0
C864 C 0.85598 0.1181 0.80048 0.0
C865 C 0.83986 0.12577 0.79741 0.0
C866 C 0.83284 0.10333 0.7817 0.0
C867 C 0.84192 0.07301 0.76904 0.0
H868 H 0.83281 0.14919 0.8072 0.0
H869 H 0.91909 0.85125 0.6835 0.0
H870 H 0.11716 0.15817 0.81095 0.0
H871 H 0.11571 0.12454 0.77935 0.0
H872 H 0.13678 0.9645 0.79547 0.0
H873 H 0.13916 0.99944 0.82677 0.0
H874 H 0.15002 1.00039 0.76577 0.0
H875 H 0.09647 0.97842 0.78541 0.0
H876 H 0.07111 0.0087 0.79872 0.0
H877 H 0.06584 0.13495 0.75661 0.0
H878 H 0.0913 0.106 0.74321 0.0
H879 H 0.13063 0.84198 0.68598 0.0
H880 H 0.13038 0.87682 0.71749 0.0
H881 H 0.11937 0.04634 0.69834 0.0
H882 H 0.11991 0.01203 0.66669 0.0
H883 H 0.10085 0.00646 0.72904 0.0
H884 H 0.15478 0.0248 0.70941 0.0
H885 H 0.17996 0.99143 0.69642 0.0
H886 H 0.18407 0.86662 0.73912 0.0
H887 H 0.15876 0.89862 0.75221 0.0
C888 C 0.12138 0.11568 0.80774 0.0
C889 C 0.12788 0.08077 0.82141 0.0
C890 C 0.12046 0.09636 0.78971 0.0
C891 C 0.12586 0.04153 0.78508 0.0
C892 C 0.13239 0.00674 0.79874 0.0
C893 C 0.13349 0.02632 0.8167 0.0
C894 C 0.12525 0.02115 0.76591 0.0
C895 C 0.1392 1.00095 0.75785 0.0
C896 C 0.11122 0.02306 0.75541 0.0
C897 C 0.09587 0.04041 0.76341 0.0
C898 C 0.08997 0.01294 0.77907 0.0
C899 C 0.07556 0.02981 0.78662 0.0
C900 C 0.06689 0.07381 0.77854 0.0
C901 C 0.07259 0.10093 0.76287 0.0
C902 C 0.087 0.08428 0.75528 0.0
C903 C 0.12798 0.88654 0.68847 0.0
C904 C 0.12527 0.92441 0.6739 0.0
C905 C 0.12793 0.90637 0.70645 0.0
C906 C 0.12497 0.96412 0.71014 0.0
C907 C 0.12171 1.00163 0.6957 0.0
C908 C 0.12202 0.98203 0.67768 0.0
C909 C 0.12555 0.98546 0.72911 0.0
C910 C 0.11162 0.00589 0.73706 0.0
C911 C 0.13955 0.98316 0.73957 0.0
C912 C 0.15476 0.96366 0.73166 0.0
C913 C 0.16095 0.9898 0.71592 0.0
C914 C 0.17527 0.97123 0.70856 0.0
C915 C 0.18358 0.9268 0.7169 0.0
C916 C 0.1776 0.90095 0.73265 0.0
C917 C 0.16327 0.91931 0.74005 0.0
H918 H 0.19468 0.91252 0.7112 0.0
H919 H 0.05574 0.08682 0.78441 0.0
H920 H 0.61495 0.50074 0.31906 0.0
H921 H 0.61403 0.52463 0.28658 0.0
H922 H 0.63779 0.36692 0.27363 0.0
H923 H 0.63833 0.34176 0.30635 0.0
H924 H 0.65062 0.4825 0.25877 0.0
H925 H 0.60452 0.36217 0.2617 0.0
H926 H 0.57949 0.3302 0.27542 0.0
H927 H 0.55931 0.49587 0.26625 0.0
H928 H 0.58433 0.52915 0.25275 0.0
H929 H 0.63776 0.51138 0.16176 0.0
H930 H 0.63684 0.46674 0.19214 0.0
H931 H 0.61374 0.61628 0.21373 0.0
H932 H 0.61541 0.66222 0.1836 0.0
H933 H 0.60081 0.49595 0.22333 0.0
H934 H 0.6454 0.62083 0.2239 0.0
H935 H 0.67032 0.66299 0.21314 0.0
H936 H 0.69335 0.50071 0.21873 0.0
H937 H 0.66839 0.45708 0.22901 0.0
C938 C 0.61987 0.47096 0.30926 0.0
C939 C 0.62671 0.41948 0.31506 0.0
C940 C 0.61931 0.4846 0.29079 0.0
C941 C 0.62583 0.44744 0.27785 0.0
C942 C 0.63268 0.39586 0.28353 0.0
C943 C 0.63291 0.38147 0.30209 0.0
C944 C 0.62575 0.46422 0.25848 0.0
C945 C 0.63984 0.48404 0.25078 0.0
C946 C 0.61151 0.46841 0.24856 0.0
C947 C 0.59634 0.44825 0.25633 0.0
C948 C 0.59478 0.39192 0.26273 0.0
C949 C 0.58059 0.37354 0.27045 0.0
C950 C 0.56782 0.41101 0.27173 0.0
C951 C 0.56921 0.4669 0.26525 0.0
C952 C 0.58339 0.48552 0.25754 0.0
C953 C 0.63234 0.53426 0.17299 0.0
C954 C 0.62666 0.59 0.17054 0.0
C955 C 0.63187 0.50894 0.19025 0.0
C956 C 0.62529 0.53853 0.20505 0.0
C957 C 0.61889 0.59308 0.2024 0.0
C958 C 0.61986 0.61918 0.18529 0.0
C959 C 0.62573 0.51354 0.2235 0.0
C960 C 0.61168 0.49295 0.2311 0.0
C961 C 0.63997 0.50969 0.23348 0.0
C962 C 0.6549 0.5353 0.22676 0.0
C963 C 0.65567 0.59376 0.22242 0.0
C964 C 0.66983 0.61803 0.2165 0.0
C965 C 0.68339 0.58446 0.21512 0.0
C966 C 0.68281 0.52656 0.21969 0.0
C967 C 0.66864 0.50201 0.22551 0.0
H968 H 0.69436 0.60339 0.21062 0.0
H969 H 0.55685 0.39672 0.27773 0.0
H970 H 0.3901 0.6446 0.31202 0.0
H971 H 0.39054 0.61347 0.27996 0.0
H972 H 0.36092 0.46999 0.29363 0.0
H973 H 0.36002 0.50172 0.32531 0.0
H974 H 0.38715 0.44002 0.27288 0.0
H975 H 0.34497 0.57623 0.27281 0.0
H976 H 0.33235 0.6696 0.27806 0.0
H977 H 0.36506 0.74895 0.2412 0.0
H978 H 0.37805 0.65611 0.23595 0.0
H979 H 0.36461 0.34349 0.18511 0.0
H980 H 0.36561 0.37705 0.21668 0.0
H981 H 0.38798 0.53305 0.1988 0.0
H982 H 0.38605 0.50065 0.16708 0.0
H983 H 0.36638 0.55784 0.22195 0.0
H984 H 0.4083 0.41835 0.22162 0.0
H985 H 0.4199 0.32326 0.21621 0.0
H986 H 0.38701 0.24864 0.25387 0.0
H987 H 0.37509 0.34318 0.25935 0.0
C988 C 0.3837 0.60645 0.30813 0.0
C989 C 0.3754 0.57459 0.32124 0.0
C990 C 0.38394 0.58881 0.28988 0.0
C991 C 0.37584 0.53927 0.28455 0.0
C992 C 0.36743 0.50785 0.29758 0.0
C993 C 0.3671 0.52563 0.31572 0.0
C994 C 0.37616 0.51952 0.26541 0.0
C995 C 0.38253 0.46552 0.26172 0.0
C996 C 0.37033 0.55337 0.25094 0.0
C997 C 0.36262 0.60933 0.25418 0.0
C998 C 0.34959 0.61368 0.26598 0.0
C999 C 0.34234 0.66649 0.26893 0.0
C1000 C 0.34794 0.71521 0.26003 0.0
C1001 C 0.36077 0.71119 0.24813 0.0
C1002 C 0.36808 0.65849 0.24516 0.0
C1003 C 0.36991 0.38461 0.18798 0.0
C1004 C 0.37536 0.41959 0.17376 0.0
C1005 C 0.37053 0.40371 0.20602 0.0
C1006 C 0.37713 0.45721 0.21018 0.0
C1007 C 0.38284 0.49164 0.19594 0.0
C1008 C 0.38182 0.47315 0.17787 0.0
C1009 C 0.37754 0.47826 0.22928 0.0
C1010 C 0.37122 0.53248 0.23302 0.0
C1011 C 0.3834 0.44452 0.24383 0.0
C1012 C 0.39074 0.3878 0.24079 0.0
C1013 C 0.4035 0.38162 0.22869 0.0
C1014 C 0.41013 0.32782 0.22562 0.0
C1015 C 0.40417 0.27993 0.23467 0.0
C1016 C 0.39161 0.28577 0.24687 0.0
C1017 C 0.38493 0.33946 0.24998 0.0
H1018 H 0.4093 0.23831 0.23225 0.0
H1019 H 0.3423 0.75605 0.26231 0.0
H1020 H 0.39643 0.37355 0.81215 0.0
H1021 H 0.39775 0.40573 0.78016 0.0
H1022 H 0.35595 0.50739 0.78823 0.0
H1023 H 0.35488 0.47736 0.8202 0.0
H1024 H 0.35773 0.42336 0.75565 0.0
H1025 H 0.38151 0.58317 0.78612 0.0
H1026 H 0.40014 0.62957 0.80728 0.0
H1027 H 0.43913 0.56499 0.77607 0.0
H1028 H 0.42067 0.51709 0.75492 0.0
H1029 H 0.35235 0.6228 0.68268 0.0
H1030 H 0.35428 0.57947 0.71301 0.0
H1031 H 0.3976 0.4964 0.69739 0.0
H1032 H 0.39558 0.53901 0.66673 0.0
H1033 H 0.39681 0.56453 0.73309 0.0
H1034 H 0.37087 0.41153 0.70052 0.0
H1035 H 0.35072 0.36889 0.68039 0.0
H1036 H 0.31414 0.42784 0.71631 0.0
H1037 H 0.33408 0.47124 0.73657 0.0
C1038 C 0.38758 0.40287 0.80705 0.0
C1039 C 0.37557 0.42305 0.81855 0.0
C1040 C 0.38836 0.42121 0.78888 0.0
C1041 C 0.37693 0.45876 0.782 0.0
C1042 C 0.36485 0.47839 0.7934 0.0
C1043 C 0.36431 0.46137 0.81162 0.0
C1044 C 0.37737 0.47715 0.76277 0.0
C1045 C 0.36624 0.45426 0.75067 0.0
C1046 C 0.38856 0.51715 0.75645 0.0
C1047 C 0.39972 0.5457 0.76912 0.0
C1048 C 0.39406 0.57812 0.78392 0.0
C1049 C 0.40458 0.60485 0.79588 0.0
C1050 C 0.42081 0.60002 0.79307 0.0
C1051 C 0.42655 0.56851 0.77827 0.0
C1052 C 0.41606 0.54153 0.76629 0.0
C1053 C 0.36226 0.59513 0.68569 0.0
C1054 C 0.37381 0.584 0.67241 0.0
C1055 C 0.36331 0.57038 0.70296 0.0
C1056 C 0.37606 0.53485 0.70734 0.0
C1057 C 0.38767 0.52373 0.69417 0.0
C1058 C 0.38646 0.54769 0.6767 0.0
C1059 C 0.3772 0.51047 0.72587 0.0
C1060 C 0.38852 0.53268 0.73794 0.0
C1061 C 0.366 0.47048 0.73225 0.0
C1062 C 0.35397 0.44507 0.71997 0.0
C1063 C 0.35852 0.41589 0.70403 0.0
C1064 C 0.34714 0.39143 0.69263 0.0
C1065 C 0.33116 0.39577 0.69705 0.0
C1066 C 0.32653 0.42453 0.7129 0.0
C1067 C 0.33787 0.44897 0.72436 0.0
H1068 H 0.32237 0.37674 0.68822 0.0
H1069 H 0.42893 0.62094 0.80231 0.0
H1070 H 0.64632 0.63156 0.81306 0.0
H1071 H 0.64596 0.59529 0.78174 0.0
H1072 H 0.60462 0.49491 0.79426 0.0
H1073 H 0.60549 0.5295 0.82594 0.0
H1074 H 0.62428 0.43428 0.77481 0.0
H1075 H 0.60359 0.62671 0.76925 0.0
H1076 H 0.6043 0.73128 0.77327 0.0
H1077 H 0.64719 0.74016 0.74225 0.0
H1078 H 0.64685 0.63563 0.73824 0.0
H1079 H 0.60864 0.36995 0.68099 0.0
H1080 H 0.6067 0.40184 0.71282 0.0
H1081 H 0.64712 0.51121 0.70489 0.0
H1082 H 0.64865 0.48153 0.67308 0.0
H1083 H 0.62597 0.567 0.72205 0.0
H1084 H 0.64854 0.37993 0.72852 0.0
H1085 H 0.6498 0.27557 0.72431 0.0
H1086 H 0.60619 0.2562 0.75344 0.0
H1087 H 0.60454 0.36059 0.75759 0.0
C1088 C 0.63711 0.60208 0.80901 0.0
C1089 C 0.62584 0.58339 0.82169 0.0
C1090 C 0.63686 0.58152 0.79114 0.0
C1091 C 0.62504 0.54334 0.78551 0.0
C1092 C 0.6138 0.52451 0.79828 0.0
C1093 C 0.61427 0.5442 0.8163 0.0
C1094 C 0.62457 0.52247 0.76639 0.0
C1095 C 0.62439 0.4633 0.76326 0.0
C1096 C 0.62518 0.5603 0.75131 0.0
C1097 C 0.62523 0.6233 0.75354 0.0
C1098 C 0.61321 0.65095 0.76336 0.0
C1099 C 0.61355 0.71022 0.76563 0.0
C1100 C 0.6258 0.74233 0.75805 0.0
C1101 C 0.63771 0.71526 0.74812 0.0
C1102 C 0.63744 0.65603 0.74582 0.0
C1103 C 0.61713 0.40057 0.68613 0.0
C1104 C 0.62879 0.42331 0.67461 0.0
C1105 C 0.61605 0.41862 0.70431 0.0
C1106 C 0.62686 0.45855 0.7113 0.0
C1107 C 0.6386 0.48061 0.6998 0.0
C1108 C 0.63949 0.46348 0.68162 0.0
C1109 C 0.62588 0.47882 0.73045 0.0
C1110 C 0.62575 0.53791 0.73359 0.0
C1111 C 0.62527 0.44094 0.7455 0.0
C1112 C 0.62633 0.37812 0.74319 0.0
C1113 C 0.63916 0.35345 0.73392 0.0
C1114 C 0.63995 0.29429 0.73156 0.0
C1115 C 0.62806 0.25929 0.73856 0.0
C1116 C 0.61538 0.28337 0.748 0.0
C1117 C 0.61451 0.34253 0.75036 0.0
H1118 H 0.62869 0.2135 0.73671 0.0
H1119 H 0.62604 0.78819 0.75984 0.0
H1120 H 0.10129 0.08645 0.92484 0.0
H1121 H 0.10279 0.09868 0.95815 0.0
H1122 H 0.14871 0.17578 0.9526 0.0
H1123 H 0.14702 0.16591 0.91929 0.0
H1124 H 0.14089 0.06449 0.97881 0.0
H1125 H 0.13018 0.26363 0.96325 0.0
H1126 H 0.11468 0.33822 0.94768 0.0
H1127 H 0.07317 0.28559 0.97674 0.0
H1128 H 0.08837 0.20976 0.99217 0.0
H1129 H 0.15254 0.11654 0.07272 0.0
H1130 H 0.15341 0.12879 0.03941 0.0
H1131 H 0.10278 0.14929 0.03852 0.0
H1132 H 0.10212 0.14027 0.07182 0.0
H1133 H 0.11434 0.21639 0.01469 0.0
H1134 H 0.12211 0.01873 0.02911 0.0
H1135 H 0.13472 0.93541 0.04363 0.0
H1136 H 0.17824 0.97415 0.01634 0.0
H1137 H 0.16593 0.05824 0.00185 0.0
C1138 C 0.1116 0.10663 0.93076 0.0
C1139 C 0.12402 0.12545 0.91962 0.0
C1140 C 0.11243 0.1136 0.94969 0.0
C1141 C 0.12583 0.13824 0.95765 0.0
C1142 C 0.13824 0.15708 0.94657 0.0
C1143 C 0.13723 0.15159 0.92763 0.0
C1144 C 0.12718 0.14162 0.97766 0.0
C1145 C 0.13536 0.09816 0.98673 0.0
C1146 C 0.11946 0.18454 0.98777 0.0
C1147 C 0.11037 0.23054 0.97867 0.0
C1148 C 0.11771 0.26747 0.96614 0.0
C1149 C 0.10898 0.31008 0.95738 0.0
C1150 C 0.09294 0.31652 0.96117 0.0
C1151 C 0.08559 0.28047 0.97378 0.0
C1152 C 0.09426 0.23767 0.98254 0.0
C1153 C 0.1417 0.12475 0.06532 0.0
C1154 C 0.12728 0.12778 0.07459 0.0
C1155 C 0.14216 0.13127 0.04635 0.0
C1156 C 0.12811 0.13883 0.0364 0.0
C1157 C 0.11377 0.1436 0.04586 0.0
C1158 C 0.11337 0.13841 0.06483 0.0
C1159 C 0.12818 0.13913 0.01612 0.0
C1160 C 0.12013 0.18301 0.00691 0.0
C1161 C 0.13572 0.09565 0.00586 0.0
C1162 C 0.14315 0.04518 0.01458 0.0
C1163 C 0.1344 0.00975 0.02632 0.0
C1164 C 0.14149 0.96235 0.03453 0.0
C1165 C 0.15729 0.9496 0.03095 0.0
C1166 C 0.16601 0.98416 0.01913 0.0
C1167 C 0.15899 0.03169 0.01092 0.0
H1168 H 0.16275 0.91286 0.03731 0.0
H1169 H 0.0862 0.34956 0.95438 0.0
H1170 H 0.86623 0.96663 0.92268 0.0
H1171 H 0.8663 0.95799 0.95588 0.0
H1172 H 0.88692 0.78994 0.95149 0.0
H1173 H 0.88589 0.79714 0.91804 0.0
H1174 H 0.86591 0.79181 0.97796 0.0
H1175 H 0.90969 0.91228 0.96113 0.0
H1176 H 0.92223 0.99363 0.94539 0.0
H1177 H 0.89271 0.11043 0.97496 0.0
H1178 H 0.87985 0.0298 0.99068 0.0
H1179 H 0.88488 0.80203 0.0736 0.0
H1180 H 0.88613 0.7917 0.04031 0.0
H1181 H 0.86717 0.96182 0.03409 0.0
H1182 H 0.8668 0.97332 0.06717 0.0
H1183 H 0.89073 0.94976 0.01281 0.0
H1184 H 0.84514 0.83187 0.02729 0.0
H1185 H 0.83162 0.75216 0.04279 0.0
H1186 H 0.86353 0.63279 0.01799 0.0
H1187 H 0.87734 0.7119 0.00249 0.0
C1188 C 0.87074 0.92785 0.92883 0.0
C1189 C 0.87627 0.88284 0.91797 0.0
C1190 C 0.87084 0.92299 0.94776 0.0
C1191 C 0.87707 0.87403 0.95613 0.0
C1192 C 0.88219 0.82825 0.94527 0.0
C1193 C 0.88166 0.83244 0.92625 0.0
C1194 C 0.87849 0.87162 0.97622 0.0
C1195 C 0.87154 0.82587 0.98561 0.0
C1196 C 0.88573 0.91635 0.98614 0.0
C1197 C 0.89378 0.96494 0.97703 0.0
C1198 C 0.90586 0.9553 0.96424 0.0
C1199 C 0.91301 1.0013 0.95532 0.0
C1200 C 0.90826 0.05715 0.95916 0.0
C1201 C 0.89639 0.06716 0.97199 0.0
C1202 C 0.88918 0.02134 0.98094 0.0
C1203 C 0.88098 0.83702 0.06503 0.0
C1204 C 0.87585 0.88858 0.07281 0.0
C1205 C 0.88159 0.83098 0.04608 0.0
C1206 C 0.8766 0.8758 0.03473 0.0
C1207 C 0.87118 0.92682 0.04259 0.0
C1208 C 0.87096 0.93339 0.06146 0.0
C1209 C 0.87753 0.8713 0.01463 0.0
C1210 C 0.88516 0.91546 0.0052 0.0
C1211 C 0.87081 0.82538 0.00475 0.0
C1212 C 0.86237 0.77783 0.01388 0.0
C1213 C 0.84932 0.78865 0.02523 0.0
C1214 C 0.8416 0.74358 0.034 0.0
C1215 C 0.84674 0.68747 0.03142 0.0
C1216 C 0.85958 0.67628 0.02 0.0
C1217 C 0.86734 0.7212 0.0112 0.0
H1218 H 0.84077 0.65265 0.03824 0.0
H1219 H 0.91379 0.09268 0.95222 0.0
H1220 H 0.11204 0.96401 0.42559 0.0
H1221 H 0.11309 0.95367 0.45862 0.0
H1222 H 0.13759 0.79332 0.45279 0.0
H1223 H 0.13647 0.80288 0.41945 0.0
H1224 H 0.11427 0.79077 0.47949 0.0
H1225 H 0.15848 0.9061 0.46377 0.0
H1226 H 0.17259 0.98469 0.44845 0.0
H1227 H 0.14417 0.10732 0.47701 0.0
H1228 H 0.12971 0.02946 0.49229 0.0
H1229 H 0.13387 0.80656 0.57531 0.0
H1230 H 0.13488 0.79525 0.54215 0.0
H1231 H 0.11177 0.95799 0.53543 0.0
H1232 H 0.11087 0.97017 0.5685 0.0
H1233 H 0.1382 0.94931 0.51496 0.0
H1234 H 0.09227 0.83327 0.52807 0.0
H1235 H 0.07782 0.75454 0.5429 0.0
H1236 H 0.10974 0.63293 0.51926 0.0
H1237 H 0.12451 0.71107 0.50448 0.0
C1238 C 0.11763 0.92639 0.43126 0.0
C1239 C 0.12434 0.88455 0.4199 0.0
C1240 C 0.11824 0.92064 0.45014 0.0
C1241 C 0.12568 0.87331 0.45806 0.0
C1242 C 0.1319 0.83032 0.44685 0.0
C1243 C 0.13125 0.83592 0.42785 0.0
C1244 C 0.12709 0.87003 0.4781 0.0
C1245 C 0.11976 0.82477 0.4873 0.0
C1246 C 0.13417 0.91478 0.48815 0.0
C1247 C 0.14294 0.96185 0.47909 0.0
C1248 C 0.15516 0.9498 0.46669 0.0
C1249 C 0.16323 0.99424 0.45803 0.0
C1250 C 0.15926 0.05096 0.46173 0.0
C1251 C 0.14723 0.06336 0.47415 0.0
C1252 C 0.1391 0.01909 0.48283 0.0
C1253 C 0.12888 0.83978 0.56679 0.0
C1254 C 0.12239 0.88953 0.57454 0.0
C1255 C 0.12943 0.83308 0.54786 0.0
C1256 C 0.12338 0.87576 0.53642 0.0
C1257 C 0.11656 0.92472 0.5441 0.0
C1258 C 0.11604 0.93156 0.56299 0.0
C1259 C 0.12483 0.87122 0.51639 0.0
C1260 C 0.13285 0.9149 0.50718 0.0
C1261 C 0.11844 0.82497 0.5064 0.0
C1262 C 0.10961 0.77806 0.51536 0.0
C1263 C 0.0963 0.78979 0.52618 0.0
C1264 C 0.08803 0.74527 0.53454 0.0
C1265 C 0.09289 0.68879 0.53208 0.0
C1266 C 0.10601 0.67671 0.5212 0.0
C1267 C 0.11433 0.72109 0.51282 0.0
H1268 H 0.08647 0.65437 0.53855 0.0
H1269 H 0.16552 0.0853 0.45501 0.0
H1270 H 0.8852 0.02725 0.56832 0.0
H1271 H 0.88599 0.04143 0.5354 0.0
H1272 H 0.86943 0.21428 0.54218 0.0
H1273 H 0.86838 0.2004 0.57531 0.0
H1274 H 0.85364 0.15544 0.51507 0.0
H1275 H 0.90739 0.19191 0.53211 0.0
H1276 H 0.93257 0.17095 0.54762 0.0
H1277 H 0.93728 0.01635 0.51658 0.0
H1278 H 0.91204 0.03591 0.50107 0.0
H1279 H 0.86559 0.20281 0.41998 0.0
H1280 H 0.86671 0.21353 0.45312 0.0
H1281 H 0.88808 0.04691 0.45771 0.0
H1282 H 0.88766 0.03688 0.42462 0.0
H1283 H 0.90237 0.11835 0.4795 0.0
H1284 H 0.84819 0.07115 0.46604 0.0
H1285 H 0.82229 0.08376 0.45123 0.0
H1286 H 0.81766 0.24923 0.47592 0.0
H1287 H 0.84364 0.23786 0.4907 0.0
C1288 C 0.88175 0.0684 0.56288 0.0
C1289 C 0.87674 0.11274 0.57445 0.0
C1290 C 0.88228 0.07648 0.54406 0.0
C1291 C 0.87798 0.12914 0.53645 0.0
C1292 C 0.87286 0.17344 0.54787 0.0
C1293 C 0.8723 0.1654 0.56677 0.0
C1294 C 0.87848 0.13686 0.51646 0.0
C1295 C 0.86435 0.1486 0.50726 0.0
C1296 C 0.89241 0.12658 0.50638 0.0
C1297 C 0.90777 0.1153 0.51547 0.0
C1298 C 0.91376 0.1533 0.52865 0.0
C1299 C 0.92805 0.14168 0.53744 0.0
C1300 C 0.93651 0.09233 0.5331 0.0
C1301 C 0.93072 0.05457 0.51992 0.0
C1302 C 0.91644 0.06596 0.5111 0.0
C1303 C 0.8707 0.16874 0.428 0.0
C1304 C 0.87661 0.11913 0.4196 0.0
C1305 C 0.87121 0.17475 0.44697 0.0
C1306 C 0.87734 0.13079 0.45788 0.0
C1307 C 0.88334 0.08145 0.44953 0.0
C1308 C 0.88301 0.07569 0.4306 0.0
C1309 C 0.87743 0.1354 0.47803 0.0
C1310 C 0.8917 0.12618 0.48728 0.0
C1311 C 0.86357 0.14708 0.48814 0.0
C1312 C 0.84794 0.15396 0.47928 0.0
C1313 C 0.84171 0.11042 0.46818 0.0
C1314 C 0.827 0.11731 0.45982 0.0
C1315 C 0.81836 0.16736 0.46258 0.0
C1316 C 0.82438 0.21055 0.47376 0.0
C1317 C 0.83909 0.2039 0.48214 0.0
H1318 H 0.80698 0.17262 0.45609 0.0
H1319 H 0.94756 0.08336 0.53992 0.0
H1320 H 0.62661 0.52627 0.06706 0.0
H1321 H 0.62793 0.54318 0.03426 0.0
H1322 H 0.62681 0.72499 0.04349 0.0
H1323 H 0.6258 0.7084 0.07671 0.0
H1324 H 0.6041 0.67418 0.0157 0.0
H1325 H 0.65885 0.68491 0.03105 0.0
H1326 H 0.68331 0.65371 0.04626 0.0
H1327 H 0.68187 0.49535 0.01675 0.0
H1328 H 0.65722 0.5251 0.00161 0.0
H1329 H 0.62205 0.70549 0.91906 0.0
H1330 H 0.62322 0.71943 0.95229 0.0
H1331 H 0.62645 0.53727 0.96 0.0
H1332 H 0.62487 0.52282 0.92696 0.0
H1333 H 0.64989 0.60733 0.97929 0.0
H1334 H 0.59422 0.58568 0.96867 0.0
H1335 H 0.56877 0.60831 0.95412 0.0
H1336 H 0.57116 0.77928 0.97513 0.0
H1337 H 0.59681 0.75789 0.98955 0.0
C1338 C 0.6267 0.56993 0.06217 0.0
C1339 C 0.6261 0.61608 0.07441 0.0
C1340 C 0.62749 0.57945 0.04344 0.0
C1341 C 0.62751 0.63523 0.03657 0.0
C1342 C 0.62683 0.68166 0.04866 0.0
C1343 C 0.62633 0.67214 0.06754 0.0
C1344 C 0.62804 0.64367 0.01664 0.0
C1345 C 0.61425 0.66127 0.00769 0.0
C1346 C 0.64117 0.62505 0.00634 0.0
C1347 C 0.65611 0.60715 0.01527 0.0
C1348 C 0.66367 0.64323 0.02791 0.0
C1349 C 0.67759 0.62582 0.0365 0.0
C1350 C 0.68413 0.57255 0.03249 0.0
C1351 C 0.67679 0.53661 0.01985 0.0
C1352 C 0.66285 0.55375 0.01124 0.0
C1353 C 0.62293 0.66847 0.92788 0.0
C1354 C 0.62332 0.61306 0.92049 0.0
C1355 C 0.6236 0.67651 0.94678 0.0
C1356 C 0.62497 0.62934 0.95845 0.0
C1357 C 0.62544 0.57409 0.95112 0.0
C1358 C 0.62443 0.56594 0.93229 0.0
C1359 C 0.6259 0.63712 0.97839 0.0
C1360 C 0.63992 0.62208 0.98729 0.0
C1361 C 0.61293 0.65739 0.98862 0.0
C1362 C 0.59756 0.67049 0.97993 0.0
C1363 C 0.58943 0.62834 0.96998 0.0
C1364 C 0.57494 0.64087 0.96181 0.0
C1365 C 0.56838 0.69528 0.96363 0.0
C1366 C 0.57628 0.73721 0.97368 0.0
C1367 C 0.5908 0.72491 0.98185 0.0
H1368 H 0.55715 0.7049 0.95731 0.0
H1369 H 0.69491 0.55915 0.03917 0.0
H1370 H 0.37146 0.47842 0.92428 0.0
H1371 H 0.37163 0.46872 0.95743 0.0
H1372 H 0.38412 0.29079 0.95226 0.0
H1373 H 0.38335 0.29962 0.91892 0.0
H1374 H 0.36221 0.30664 0.97834 0.0
H1375 H 0.41221 0.39151 0.96275 0.0
H1376 H 0.42921 0.46223 0.9474 0.0
H1377 H 0.40671 0.59766 0.97712 0.0
H1378 H 0.38944 0.52786 0.99246 0.0
H1379 H 0.38017 0.29719 0.07424 0.0
H1380 H 0.38123 0.28788 0.04092 0.0
H1381 H 0.37259 0.46885 0.03548 0.0
H1382 H 0.37235 0.4787 0.0686 0.0
H1383 H 0.39527 0.44021 0.01443 0.0
H1384 H 0.34378 0.36035 0.0278 0.0
H1385 H 0.32523 0.29298 0.04226 0.0
H1386 H 0.34892 0.15218 0.01662 0.0
H1387 H 0.36774 0.21868 0.00219 0.0
C1388 C 0.37429 0.43727 0.93019 0.0
C1389 C 0.37756 0.3899 0.91908 0.0
C1390 C 0.37439 0.4318 0.94911 0.0
C1391 C 0.37821 0.37933 0.95723 0.0
C1392 C 0.38122 0.33166 0.94619 0.0
C1393 C 0.38084 0.33685 0.92721 0.0
C1394 C 0.37923 0.37487 0.97728 0.0
C1395 C 0.36961 0.33514 0.98629 0.0
C1396 C 0.38876 0.41262 0.98752 0.0
C1397 C 0.3995 0.45444 0.97871 0.0
C1398 C 0.41087 0.43638 0.96598 0.0
C1399 C 0.42055 0.47631 0.95727 0.0
C1400 C 0.41903 0.5344 0.96127 0.0
C1401 C 0.40788 0.55266 0.97404 0.0
C1402 C 0.39817 0.51292 0.98277 0.0
C1403 C 0.37849 0.33483 0.06586 0.0
C1404 C 0.37629 0.38872 0.07389 0.0
C1405 C 0.379 0.32943 0.04687 0.0
C1406 C 0.37686 0.37761 0.03574 0.0
C1407 C 0.37438 0.43118 0.04383 0.0
C1408 C 0.37425 0.43679 0.06273 0.0
C1409 C 0.37777 0.37351 0.01564 0.0
C1410 C 0.38793 0.41128 0.00656 0.0
C1411 C 0.3686 0.33438 0.00541 0.0
C1412 C 0.35728 0.29445 0.01411 0.0
C1413 C 0.34511 0.31499 0.02537 0.0
C1414 C 0.33454 0.27697 0.03354 0.0
C1415 C 0.33593 0.21833 0.03041 0.0
C1416 C 0.34787 0.1976 0.01907 0.0
C1417 C 0.35849 0.23543 0.01089 0.0
H1418 H 0.32773 0.18896 0.03674 0.0
H1419 H 0.42651 0.56525 0.95449 0.0
H1420 H 0.63965 0.45912 0.42306 0.0
H1421 H 0.63989 0.44802 0.4562 0.0
H1422 H 0.61252 0.29353 0.45141 0.0
H1423 H 0.61227 0.30398 0.41811 0.0
H1424 H 0.60074 0.37256 0.4772 0.0
H1425 H 0.64904 0.27923 0.46232 0.0
H1426 H 0.675 0.26735 0.44768 0.0
H1427 H 0.69253 0.41396 0.47647 0.0
H1428 H 0.66659 0.42735 0.49106 0.0
H1429 H 0.61383 0.30688 0.57258 0.0
H1430 H 0.61333 0.29798 0.53921 0.0
H1431 H 0.63639 0.46133 0.5342 0.0
H1432 H 0.63664 0.47129 0.56746 0.0
H1433 H 0.65013 0.36486 0.51355 0.0
H1434 H 0.60159 0.46533 0.52515 0.0
H1435 H 0.57582 0.47992 0.54 0.0
H1436 H 0.559 0.32211 0.51735 0.0
H1437 H 0.58481 0.30609 0.50262 0.0
C1438 C 0.63372 0.42265 0.42902 0.0
C1439 C 0.62589 0.38252 0.41798 0.0
C1440 C 0.63394 0.41625 0.44793 0.0
C1441 C 0.62632 0.36978 0.45614 0.0
C1442 C 0.6185 0.32956 0.44523 0.0
C1443 C 0.61839 0.3356 0.42625 0.0
C1444 C 0.62606 0.365 0.4762 0.0
C1445 C 0.6115 0.36961 0.48517 0.0
C1446 C 0.64017 0.36236 0.48647 0.0
C1447 C 0.6558 0.35459 0.47766 0.0
C1448 C 0.65838 0.3093 0.4654 0.0
C1449 C 0.67311 0.30222 0.45713 0.0
C1450 C 0.6854 0.33995 0.46111 0.0
C1451 C 0.68299 0.38479 0.47338 0.0
C1452 C 0.66828 0.39212 0.48167 0.0
C1453 C 0.61874 0.34094 0.56435 0.0
C1454 C 0.62529 0.38977 0.57257 0.0
C1455 C 0.61843 0.3358 0.54537 0.0
C1456 C 0.62487 0.37896 0.53442 0.0
C1457 C 0.63142 0.42762 0.54255 0.0
C1458 C 0.63147 0.43333 0.56149 0.0
C1459 C 0.62488 0.37342 0.51442 0.0
C1460 C 0.63938 0.36686 0.50553 0.0
C1461 C 0.61075 0.37455 0.50422 0.0
C1462 C 0.59521 0.38407 0.51302 0.0
C1463 C 0.59246 0.43339 0.52352 0.0
C1464 C 0.57783 0.442 0.53187 0.0
C1465 C 0.5658 0.40184 0.52969 0.0
C1466 C 0.56835 0.35309 0.51908 0.0
C1467 C 0.58298 0.34422 0.51072 0.0
H1468 H 0.55448 0.40857 0.53617 0.0
H1469 H 0.6968 0.33438 0.4547 0.0
H1470 H 0.3549 0.6463 0.57615 0.0
H1471 H 0.35308 0.65733 0.54273 0.0
H1472 H 0.40235 0.61467 0.5377 0.0
H1473 H 0.40403 0.60108 0.57085 0.0
H1474 H 0.38962 0.71651 0.51587 0.0
H1475 H 0.38305 0.51583 0.52969 0.0
H1476 H 0.37102 0.43171 0.54434 0.0
H1477 H 0.32622 0.4742 0.5206 0.0
H1478 H 0.33794 0.55942 0.50614 0.0
H1479 H 0.40171 0.59143 0.42612 0.0
H1480 H 0.40057 0.60521 0.4594 0.0
H1481 H 0.35282 0.6667 0.45466 0.0
H1482 H 0.35414 0.65547 0.42134 0.0
H1483 H 0.36244 0.5631 0.48122 0.0
H1484 H 0.36968 0.76043 0.46532 0.0
H1485 H 0.38244 0.8408 0.44939 0.0
H1486 H 0.42628 0.80228 0.47606 0.0
H1487 H 0.41383 0.7209 0.4919 0.0
C1488 C 0.36535 0.6402 0.56787 0.0
C1489 C 0.3796 0.62289 0.57591 0.0
C1490 C 0.3643 0.64628 0.54888 0.0
C1491 C 0.37759 0.63668 0.53788 0.0
C1492 C 0.392 0.62231 0.54603 0.0
C1493 C 0.39294 0.61452 0.56489 0.0
C1494 C 0.37639 0.63824 0.51777 0.0
C1495 C 0.38368 0.68305 0.50827 0.0
C1496 C 0.36847 0.59479 0.50797 0.0
C1497 C 0.36129 0.54475 0.51718 0.0
C1498 C 0.37057 0.50793 0.5279 0.0
C1499 C 0.36383 0.45986 0.53609 0.0
C1500 C 0.34785 0.44779 0.53349 0.0
C1501 C 0.33858 0.48377 0.52269 0.0
C1502 C 0.34526 0.53201 0.51451 0.0
C1503 C 0.39106 0.60839 0.43222 0.0
C1504 C 0.37803 0.62253 0.42131 0.0
C1505 C 0.39043 0.61638 0.45112 0.0
C1506 C 0.37664 0.63719 0.45932 0.0
C1507 C 0.36358 0.65106 0.44846 0.0
C1508 C 0.36437 0.64472 0.42952 0.0
C1509 C 0.37564 0.64132 0.47937 0.0
C1510 C 0.36808 0.59722 0.48884 0.0
C1511 C 0.3833 0.68534 0.48911 0.0
C1512 C 0.39088 0.73404 0.47959 0.0
C1513 C 0.3821 0.76857 0.46759 0.0
C1514 C 0.38926 0.81444 0.45862 0.0
C1515 C 0.40518 0.8265 0.46165 0.0
C1516 C 0.41395 0.79279 0.47369 0.0
C1517 C 0.40685 0.74679 0.48267 0.0
H1518 H 0.4107 0.86209 0.45472 0.0
H1519 H 0.34266 0.41042 0.53978 0.0
H1520 H 0.93007 0.02452 0.14331 0.0
H1521 H 0.95868 0.04062 0.1456 0.0
H1522 H 0.96646 0.91785 0.10263 0.0
H1523 H 0.9381 0.90229 0.10007 0.0
H1524 H 0.98683 0.90519 0.13313 0.0
H1525 H 0.96715 0.05106 0.09187 0.0
H1526 H 0.9512 0.13446 0.08289 0.0
H1527 H 0.97213 0.23339 0.12594 0.0
H1528 H 0.98806 0.15022 0.13534 0.0
H1529 H 0.06048 0.94518 0.09282 0.0
H1530 H 0.0322 0.94041 0.09862 0.0
H1531 H 0.03597 0.08085 0.13648 0.0
H1532 H 0.0644 0.08625 0.13067 0.0
H1533 H 0.01001 0.09069 0.11439 0.0
H1534 H 0.03218 0.94942 0.15327 0.0
H1535 H 0.04891 0.86746 0.16169 0.0
H1536 H 0.02375 0.76095 0.12385 0.0
H1537 H 0.007 0.84249 0.11501 0.0
C1538 C 0.93792 1.00049 0.13453 0.0
C1539 C 0.93185 0.96211 0.1215 0.0
C1540 C 0.95422 0.01001 0.13577 0.0
C1541 C 0.96465 0.98062 0.1242 0.0
C1542 C 0.95861 0.94093 0.11168 0.0
C1543 C 0.9424 0.93213 0.11023 0.0
C1544 C 0.98188 0.99132 0.12466 0.0
C1545 C 0.99191 0.94571 0.12902 0.0
C1546 C 0.98849 0.04473 0.11982 0.0
C1547 C 0.97858 0.09414 0.11451 0.0
C1548 C 0.96818 0.09033 0.0996 0.0
C1549 C 0.95919 0.13763 0.09438 0.0
C1550 C 0.96059 0.18912 0.10389 0.0
C1551 C 0.97101 0.19342 0.11863 0.0
C1552 C 0.98001 0.14622 0.12391 0.0
C1553 C 0.05532 0.97543 0.10228 0.0
C1554 C 0.06473 0.01594 0.11134 0.0
C1555 C 0.03915 0.97238 0.10567 0.0
C1556 C 0.03203 0.00957 0.11825 0.0
C1557 C 0.04125 0.0515 0.12682 0.0
C1558 C 0.05749 0.05454 0.12346 0.0
C1559 C 0.01495 0.00402 0.12235 0.0
C1560 C 0.00496 0.05051 0.11888 0.0
C1561 C 0.00836 0.95148 0.12811 0.0
C1562 C 0.0184 0.90222 0.13339 0.0
C1563 C 0.03029 0.90863 0.14664 0.0
C1564 C 0.03976 0.86222 0.15151 0.0
C1565 C 0.03741 0.80906 0.14329 0.0
C1566 C 0.02556 0.80217 0.1302 0.0
C1567 C 0.01605 0.84845 0.12528 0.0
H1568 H 0.04476 0.77318 0.14707 0.0
H1569 H 0.95366 0.22574 0.0998 0.0
H1570 H 0.93479 0.07276 0.34832 0.0
H1571 H 0.9637 0.07114 0.34598 0.0
H1572 H 0.96582 0.94933 0.39014 0.0
H1573 H 0.93728 0.95172 0.39281 0.0
H1574 H 0.98684 0.02955 0.39532 0.0
H1575 H 0.97075 0.91184 0.34395 0.0
H1576 H 0.95691 0.8929 0.31491 0.0
H1577 H 0.98254 0.02888 0.2891 0.0
H1578 H 0.99639 0.04905 0.31806 0.0
H1579 H 0.06121 0.90602 0.3926 0.0
H1580 H 0.03297 0.92269 0.38991 0.0
H1581 H 0.04119 0.03847 0.34506 0.0
H1582 H 0.06967 0.02013 0.3473 0.0
H1583 H 0.01552 0.97732 0.33868 0.0
H1584 H 0.03367 0.08799 0.38952 0.0
H1585 H 0.04748 0.10622 0.41861 0.0
H1586 H 0.01785 0.98405 0.4457 0.0
H1587 H 0.00399 0.96456 0.41673 0.0
C1588 C 0.94146 0.04563 0.35749 0.0
C1589 C 0.93371 0.0125 0.37078 0.0
C1590 C 0.95797 0.04456 0.3561 0.0
C1591 C 0.96697 0.00985 0.36783 0.0
C1592 C 0.95919 0.97668 0.38099 0.0
C1593 C 0.9428 0.97802 0.38246 0.0
C1594 C 0.9845 0.00797 0.36685 0.0
C1595 C 0.99309 0.01774 0.38295 0.0
C1596 C 0.99276 0.99459 0.35058 0.0
C1597 C 0.98446 0.98237 0.3332 0.0
C1598 C 0.97334 0.93797 0.33211 0.0
C1599 C 0.96551 0.92696 0.31567 0.0
C1600 C 0.96881 0.95978 0.30019 0.0
C1601 C 0.97997 0.00357 0.30111 0.0
C1602 C 0.98782 0.01479 0.31753 0.0
C1603 C 0.05702 0.9346 0.38202 0.0
C1604 C 0.06767 0.96201 0.37022 0.0
C1605 C 0.04085 0.94449 0.38059 0.0
C1606 C 0.03494 0.98319 0.36764 0.0
C1607 C 0.04547 0.00884 0.35528 0.0
C1608 C 0.06173 0.99821 0.35652 0.0
C1609 C 0.01778 0.99689 0.36733 0.0
C1610 C 0.00929 0.98976 0.351 0.0
C1611 C 0.00957 0.01272 0.38342 0.0
C1612 C 0.01785 0.02459 0.40091 0.0
C1613 C 0.03016 0.06478 0.40165 0.0
C1614 C 0.03799 0.07537 0.41813 0.0
C1615 C 0.03356 0.04625 0.43398 0.0
C1616 C 0.02127 0.00657 0.43341 0.0
C1617 C 0.01341 0.99581 0.41697 0.0
H1618 H 0.03964 0.0545 0.44672 0.0
H1619 H 0.96274 0.95119 0.28747 0.0
H1620 H 0.06687 0.02511 0.84128 0.0
H1621 H 0.03811 0.01554 0.83828 0.0
H1622 H 0.03356 0.01821 0.89701 0.0
H1623 H 0.06202 0.02597 0.90004 0.0
H1624 H 0.01708 0.93504 0.88444 0.0
H1625 H 0.02269 0.13321 0.86893 0.0
H1626 H 0.0329 0.21582 0.85172 0.0
H1627 H 0.0135 0.1475 0.80211 0.0
H1628 H 0.00332 0.0641 0.81902 0.0
H1629 H 0.93703 0.99806 0.8998 0.0
H1630 H 0.96561 0.00214 0.89676 0.0
H1631 H 0.96156 0.96961 0.83895 0.0
H1632 H 0.93269 0.96544 0.84188 0.0
H1633 H 0.98227 0.05993 0.84747 0.0
H1634 H 0.97411 0.86503 0.8661 0.0
H1635 H 0.96361 0.78769 0.88546 0.0
H1636 H 0.98771 0.85724 0.93203 0.0
H1637 H 0.99818 0.93544 0.91301 0.0
C1638 C 0.05967 0.02425 0.8535 0.0
C1639 C 0.06671 0.0259 0.8709 0.0
C1640 C 0.04324 0.01886 0.85179 0.0
C1641 C 0.0336 0.01604 0.86744 0.0
C1642 C 0.04068 0.01963 0.88473 0.0
C1643 C 0.057 0.02425 0.88644 0.0
C1644 C 0.01624 0.00707 0.86614 0.0
C1645 C 0.00949 0.96273 0.87644 0.0
C1646 C 0.00629 0.04215 0.85539 0.0
C1647 C 0.01243 0.09208 0.84519 0.0
C1648 C 0.02073 0.13556 0.85432 0.0
C1649 C 0.02648 0.18258 0.84463 0.0
C1650 C 0.0239 0.18681 0.82582 0.0
C1651 C 0.01552 0.1441 0.81668 0.0
C1652 C 0.00975 0.09697 0.82631 0.0
C1653 C 0.94216 0.99154 0.88641 0.0
C1654 C 0.93256 0.98131 0.87108 0.0
C1655 C 0.95854 0.99369 0.88472 0.0
C1656 C 0.96574 0.9857 0.86766 0.0
C1657 C 0.95623 0.97572 0.85225 0.0
C1658 C 0.93977 0.97309 0.85396 0.0
C1659 C 0.9832 0.98885 0.86609 0.0
C1660 C 0.98993 0.03192 0.85525 0.0
C1661 C 0.99316 0.95337 0.87667 0.0
C1662 C 0.98684 0.90633 0.88814 0.0
C1663 C 0.97707 0.86409 0.8805 0.0
C1664 C 0.97114 0.82004 0.89141 0.0
C1665 C 0.97497 0.8176 0.90997 0.0
C1666 C 0.98475 0.85918 0.91765 0.0
C1667 C 0.9907 0.90333 0.90681 0.0
H1668 H 0.97037 0.78345 0.91839 0.0
H1669 H 0.02836 0.22325 0.81835 0.0
H1670 H 0.93404 0.08975 0.63789 0.0
H1671 H 0.96303 0.0882 0.63971 0.0
H1672 H 0.96378 0.92936 0.60994 0.0
H1673 H 0.93508 0.93119 0.60773 0.0
H1674 H 0.98232 0.92906 0.64212 0.0
H1675 H 0.97364 0.03752 0.58799 0.0
H1676 H 0.96324 0.11488 0.56862 0.0
H1677 H 0.98748 0.23902 0.60141 0.0
H1678 H 0.99778 0.16239 0.62124 0.0
H1679 H 0.06074 0.90418 0.6077 0.0
H1680 H 0.03209 0.91439 0.61086 0.0
H1681 H 0.03887 0.06267 0.64492 0.0
H1682 H 0.06766 0.05115 0.64231 0.0
H1683 H 0.01679 0.07387 0.61293 0.0
H1684 H 0.02673 0.95815 0.66602 0.0
H1685 H 0.03797 0.87603 0.68258 0.0
H1686 H 0.01183 0.76075 0.64845 0.0
H1687 H 1.00061 0.84223 0.63149 0.0
C1688 C 0.94042 0.05456 0.63177 0.0
C1689 C 0.9323 0.01062 0.62267 0.0
C1690 C 0.95695 0.05385 0.63274 0.0
C1691 C 0.96552 0.00869 0.62492 0.0
C1692 C 0.95739 0.96456 0.61606 0.0
C1693 C 0.94098 0.96579 0.61478 0.0
C1694 C 0.98296 0.00636 0.6262 0.0
C1695 C 0.98985 0.9607 0.63571 0.0
C1696 C 0.99276 0.04789 0.61793 0.0
C1697 C 0.98624 0.09424 0.60634 0.0
C1698 C 0.97654 0.08135 0.59128 0.0
C1699 C 0.97072 0.12506 0.58016 0.0
C1700 C 0.97463 0.18185 0.58383 0.0
C1701 C 0.9844 0.19502 0.59863 0.0
C1702 C 0.99022 0.15146 0.60983 0.0
C1703 C 0.05607 0.93817 0.61616 0.0
C1704 C 0.06628 0.97633 0.62501 0.0
C1705 C 0.03976 0.94414 0.61789 0.0
C1706 C 0.0334 0.9893 0.6281 0.0
C1707 C 0.04359 0.02748 0.63703 0.0
C1708 C 0.05996 0.02057 0.63569 0.0
C1709 C 0.01607 0.99685 0.62895 0.0
C1710 C 0.00922 0.04308 0.61968 0.0
C1711 C 0.00628 0.95541 0.63718 0.0
C1712 C 0.01293 0.9063 0.6474 0.0
C1713 C 0.02349 0.91528 0.66194 0.0
C1714 C 0.02983 0.86885 0.67142 0.0
C1715 C 0.02564 0.8132 0.66655 0.0
C1716 C 0.01507 0.80388 0.6522 0.0
C1717 C 0.0087 0.85018 0.64267 0.0
H1718 H 0.03056 0.7773 0.67391 0.0
H1719 H 0.97015 0.21561 0.57517 0.0
H1720 H 0.435 0.40239 0.12608 0.0
H1721 H 0.46388 0.40357 0.12702 0.0
H1722 H 0.46329 0.58797 0.12515 0.0
H1723 H 0.43457 0.58623 0.12275 0.0
H1724 H 0.48406 0.55667 0.10368 0.0
H1725 H 0.47271 0.50002 0.16543 0.0
H1726 H 0.46118 0.44166 0.1901 0.0
H1727 H 0.4858 0.29401 0.17023 0.0
H1728 H 0.49729 0.35126 0.14529 0.0
H1729 H 0.56545 0.5862 0.13035 0.0
H1730 H 0.53656 0.58665 0.1319 0.0
H1731 H 0.53556 0.41138 0.11387 0.0
H1732 H 0.56438 0.41095 0.11186 0.0
H1733 H 0.51635 0.44012 0.14611 0.0
H1734 H 0.52758 0.50036 0.08438 0.0
H1735 H 0.53984 0.56161 0.06099 0.0
H1736 H 0.51579 0.70779 0.08279 0.0
H1737 H 0.50363 0.64757 0.10659 0.0
C1738 C 0.44111 0.44301 0.12608 0.0
C1739 C 0.43268 0.4942 0.12437 0.0
C1740 C 0.45761 0.44381 0.12673 0.0
C1741 C 0.46588 0.49597 0.12644 0.0
C1742 C 0.45729 0.54714 0.12531 0.0
C1743 C 0.44088 0.5462 0.12404 0.0
C1744 C 0.48344 0.49748 0.12631 0.0
C1745 C 0.49104 0.53188 0.11323 0.0
C1746 C 0.49272 0.46432 0.13845 0.0
C1747 C 0.48573 0.42983 0.15339 0.0
C1748 C 0.47556 0.455 0.16624 0.0
C1749 C 0.46905 0.42213 0.18028 0.0
C1750 C 0.47272 0.36414 0.1817 0.0
C1751 C 0.48294 0.33891 0.1691 0.0
C1752 C 0.48946 0.37155 0.15502 0.0
C1753 C 0.55905 0.54776 0.12677 0.0
C1754 C 0.56709 0.49854 0.12095 0.0
C1755 C 0.5426 0.54817 0.12761 0.0
C1756 C 0.53403 0.49909 0.12294 0.0
C1757 C 0.54204 0.4496 0.11749 0.0
C1758 C 0.55845 0.44951 0.1163 0.0
C1759 C 0.51666 0.49922 0.12366 0.0
C1760 C 0.5092 0.46516 0.13678 0.0
C1761 C 0.50753 0.53326 0.11176 0.0
C1762 C 0.51485 0.56953 0.09744 0.0
C1763 C 0.52505 0.54567 0.08435 0.0
C1764 C 0.53196 0.5802 0.07098 0.0
C1765 C 0.52864 0.6386 0.07044 0.0
C1766 C 0.51838 0.66257 0.08325 0.0
C1767 C 0.51148 0.62826 0.09669 0.0
H1768 H 0.53398 0.66524 0.06006 0.0
H1769 H 0.46767 0.33878 0.19259 0.0
H1770 H 0.443 0.55673 0.40062 0.0
H1771 H 0.47145 0.54796 0.39671 0.0
H1772 H 0.46472 0.49782 0.34056 0.0
H1773 H 0.43597 0.50737 0.34433 0.0
H1774 H 0.48569 0.42471 0.36182 0.0
H1775 H 0.47937 0.62166 0.34657 0.0
H1776 H 0.46929 0.71953 0.3507 0.0
H1777 H 0.49362 0.73225 0.40201 0.0
H1778 H 0.50366 0.63409 0.39831 0.0
H1779 H 0.57044 0.43734 0.35019 0.0
H1780 H 0.54187 0.44744 0.34585 0.0
H1781 H 0.53791 0.52375 0.39928 0.0
H1782 H 0.56627 0.51392 0.40371 0.0
H1783 H 0.52225 0.58559 0.37411 0.0
H1784 H 0.52605 0.38863 0.39168 0.0
H1785 H 0.53504 0.28874 0.38974 0.0
H1786 H 0.51486 0.27412 0.33612 0.0
H1787 H 0.50596 0.37433 0.33763 0.0
C1788 C 0.44754 0.54441 0.38735 0.0
C1789 C 0.43724 0.53289 0.37276 0.0
C1790 C 0.46383 0.53945 0.38515 0.0
C1791 C 0.47022 0.52233 0.36835 0.0
C1792 C 0.46002 0.51115 0.35364 0.0
C1793 C 0.44363 0.51702 0.35576 0.0
C1794 C 0.48758 0.51509 0.36665 0.0
C1795 C 0.49374 0.46006 0.36404 0.0
C1796 C 0.49803 0.56098 0.37003 0.0
C1797 C 0.4922 0.62035 0.3722 0.0
C1798 C 0.48249 0.64518 0.35879 0.0
C1799 C 0.4768 0.70074 0.36105 0.0
C1800 C 0.48079 0.73206 0.37662 0.0
C1801 C 0.49053 0.70793 0.38995 0.0
C1802 C 0.49625 0.65236 0.38776 0.0
C1803 C 0.56345 0.45577 0.36108 0.0
C1804 C 0.57068 0.47478 0.37731 0.0
C1805 C 0.54712 0.4615 0.35858 0.0
C1806 C 0.53771 0.48642 0.37224 0.0
C1807 C 0.5449 0.50467 0.3885 0.0
C1808 C 0.56115 0.49871 0.39105 0.0
C1809 C 0.52044 0.49492 0.36962 0.0
C1810 C 0.51428 0.5503 0.37148 0.0
C1811 C 0.51001 0.44921 0.36571 0.0
C1812 C 0.51555 0.38926 0.36466 0.0
C1813 C 0.5237 0.36435 0.37938 0.0
C1814 C 0.52874 0.30762 0.37838 0.0
C1815 C 0.52558 0.27517 0.36278 0.0
C1816 C 0.51734 0.29937 0.34817 0.0
C1817 C 0.5123 0.35614 0.34909 0.0
H1818 H 0.52947 0.23122 0.36205 0.0
H1819 H 0.47636 0.77505 0.37835 0.0
H1820 H 0.43491 0.57449 0.88334 0.0
H1821 H 0.46364 0.57573 0.88053 0.0
H1822 H 0.46236 0.41136 0.85409 0.0
H1823 H 0.4334 0.41041 0.85642 0.0
H1824 H 0.48488 0.43098 0.88705 0.0
H1825 H 0.4701 0.50472 0.82721 0.0
H1826 H 0.45552 0.57038 0.80705 0.0
H1827 H 0.47729 0.71413 0.83337 0.0
H1828 H 0.49195 0.64913 0.85379 0.0
H1829 H 0.56448 0.40683 0.86448 0.0
H1830 H 0.53575 0.40717 0.86291 0.0
H1831 H 0.53575 0.59118 0.86657 0.0
H1832 H 0.56471 0.59088 0.86693 0.0
H1833 H 0.51331 0.56294 0.84547 0.0
H1834 H 0.52796 0.49946 0.90477 0.0
H1835 H 0.542 0.44173 0.92778 0.0
H1836 H 0.51999 0.28967 0.90716 0.0
H1837 H 0.50594 0.34644 0.88388 0.0
C1838 C 0.44071 0.53861 0.87686 0.0
C1839 C 0.43191 0.49223 0.87013 0.0
C1840 C 0.45712 0.53951 0.87524 0.0
C1841 C 0.46508 0.49366 0.86713 0.0
C1842 C 0.45638 0.44713 0.8604 0.0
C1843 C 0.43988 0.44674 0.86167 0.0
C1844 C 0.48253 0.49437 0.86599 0.0
C1845 C 0.49115 0.45898 0.87774 0.0
C1846 C 0.49061 0.53305 0.85451 0.0
C1847 C 0.482 0.57212 0.84211 0.0
C1848 C 0.47169 0.55035 0.82878 0.0
C1849 C 0.46343 0.58744 0.81728 0.0
C1850 C 0.46542 0.64644 0.81897 0.0
C1851 C 0.47574 0.66843 0.83209 0.0
C1852 C 0.48406 0.63147 0.8436 0.0
C1853 C 0.55833 0.44738 0.86471 0.0
C1854 C 0.56676 0.49881 0.86592 0.0
C1855 C 0.54189 0.44756 0.864 0.0
C1856 C 0.53346 0.49907 0.86522 0.0
C1857 C 0.54192 0.55079 0.86573 0.0
C1858 C 0.55846 0.55067 0.86592 0.0
C1859 C 0.51589 0.49851 0.86632 0.0
C1860 C 0.50717 0.53444 0.85472 0.0
C1861 C 0.50769 0.46144 0.87838 0.0
C1862 C 0.516 0.42715 0.89248 0.0
C1863 C 0.52618 0.45367 0.90508 0.0
C1864 C 0.53413 0.42113 0.91818 0.0
C1865 C 0.53192 0.36206 0.9189 0.0
C1866 C 0.5217 0.33543 0.90657 0.0
C1867 C 0.51372 0.36778 0.89344 0.0
H1868 H 0.5381 0.33693 0.92904 0.0
H1869 H 0.45898 0.67509 0.81007 0.0
H1870 H 0.43881 0.50475 0.64938 0.0
H1871 H 0.46756 0.49676 0.65217 0.0
H1872 H 0.47234 0.53001 0.59441 0.0
H1873 H 0.4438 0.53593 0.59147 0.0
H1874 H 0.48862 0.44115 0.60302 0.0
H1875 H 0.48251 0.62947 0.62816 0.0
H1876 H 0.47157 0.70112 0.64933 0.0
H1877 H 0.49099 0.60976 0.69495 0.0
H1878 H 0.50189 0.53711 0.67404 0.0
H1879 H 0.56849 0.50305 0.59064 0.0
H1880 H 0.54004 0.5095 0.59407 0.0
H1881 H 0.54393 0.45645 0.65032 0.0
H1882 H 0.57274 0.45081 0.64709 0.0
H1883 H 0.5232 0.54714 0.6459 0.0
H1884 H 0.53101 0.3621 0.61806 0.0
H1885 H 0.54134 0.29431 0.59521 0.0
H1886 H 0.51811 0.38722 0.55238 0.0
H1887 H 0.50777 0.45585 0.57495 0.0
C1888 C 0.44605 0.51077 0.63734 0.0
C1889 C 0.43911 0.52033 0.62017 0.0
C1890 C 0.46246 0.50648 0.63896 0.0
C1891 C 0.47212 0.51283 0.62349 0.0
C1892 C 0.46514 0.52443 0.60651 0.0
C1893 C 0.44882 0.5278 0.60484 0.0
C1894 C 0.48942 0.50395 0.62449 0.0
C1895 C 0.49617 0.46484 0.61229 0.0
C1896 C 0.49924 0.53352 0.63696 0.0
C1897 C 0.49289 0.57754 0.64954 0.0
C1898 C 0.48436 0.62445 0.64271 0.0
C1899 C 0.47818 0.66528 0.65466 0.0
C1900 C 0.48055 0.65992 0.67348 0.0
C1901 C 0.48915 0.61381 0.68037 0.0
C1902 C 0.49535 0.57283 0.66848 0.0
C1903 C 0.56337 0.49246 0.60376 0.0
C1904 C 0.57293 0.476 0.61856 0.0
C1905 C 0.54705 0.49607 0.60568 0.0
C1906 C 0.53981 0.48273 0.62237 0.0
C1907 C 0.54927 0.46671 0.63728 0.0
C1908 C 0.56571 0.46315 0.63538 0.0
C1909 C 0.52237 0.48566 0.62399 0.0
C1910 C 0.5156 0.52325 0.63675 0.0
C1911 C 0.51246 0.45555 0.61177 0.0
C1912 C 0.51872 0.41432 0.59819 0.0
C1913 C 0.5282 0.36828 0.60376 0.0
C1914 C 0.53404 0.32966 0.59085 0.0
C1915 C 0.53042 0.33653 0.57235 0.0
C1916 C 0.52092 0.38195 0.56671 0.0
C1917 C 0.51505 0.42066 0.57955 0.0
H1918 H 0.53495 0.30661 0.56238 0.0
H1919 H 0.47574 0.69154 0.68271 0.0
H1920 H 0.14861 0.84386 0.14223 0.0
H1921 H 0.14842 0.73951 0.14047 0.0
H1922 H 0.10354 0.74447 0.11279 0.0
H1923 H 0.10365 0.84884 0.11439 0.0
H1924 H 0.10531 0.66085 0.14086 0.0
H1925 H 0.13426 0.72151 0.08787 0.0
H1926 H 0.15484 0.77464 0.07122 0.0
H1927 H 0.19075 0.68872 0.10214 0.0
H1928 H 0.17036 0.63564 0.11916 0.0
H1929 H 0.10937 0.36395 0.11592 0.0
H1930 H 0.10544 0.46783 0.11658 0.0
H1931 H 0.15425 0.49056 0.1319 0.0
H1932 H 0.15835 0.3878 0.12991 0.0
H1933 H 0.14832 0.562 0.10762 0.0
H1934 H 0.11994 0.50595 0.16231 0.0
H1935 H 0.09967 0.45283 0.1795 0.0
H1936 H 0.06333 0.52931 0.14676 0.0
H1937 H 0.08341 0.58239 0.12924 0.0
C1938 C 0.13869 0.82282 0.13579 0.0
C1939 C 0.1262 0.85471 0.12834 0.0
C1940 C 0.1386 0.76321 0.13478 0.0
C1941 C 0.12601 0.7344 0.12639 0.0
C1942 C 0.11336 0.76595 0.11932 0.0
C1943 C 0.1135 0.82559 0.12017 0.0
C1944 C 0.12628 0.67137 0.12465 0.0
C1945 C 0.1146 0.63904 0.13345 0.0
C1946 C 0.13849 0.64315 0.11513 0.0
C1947 C 0.15077 0.675 0.1049 0.0
C1948 C 0.14654 0.7143 0.09123 0.0
C1949 C 0.15817 0.74433 0.0817 0.0
C1950 C 0.17409 0.73516 0.08565 0.0
C1951 C 0.17841 0.69583 0.09911 0.0
C1952 C 0.16682 0.66573 0.10868 0.0
C1953 C 0.11915 0.39142 0.11959 0.0
C1954 C 0.13415 0.36827 0.12289 0.0
C1955 C 0.11691 0.45071 0.12005 0.0
C1956 C 0.12951 0.4874 0.12448 0.0
C1957 C 0.14435 0.46356 0.1283 0.0
C1958 C 0.14669 0.40478 0.12727 0.0
C1959 C 0.12769 0.55067 0.12449 0.0
C1960 C 0.13901 0.58337 0.11514 0.0
C1961 C 0.11524 0.57905 0.13369 0.0
C1962 C 0.10318 0.5477 0.14437 0.0
C1963 C 0.10763 0.51119 0.15872 0.0
C1964 C 0.09617 0.48112 0.16853 0.0
C1965 C 0.08022 0.48758 0.16419 0.0
C1966 C 0.07569 0.52429 0.15009 0.0
C1967 C 0.0871 0.55442 0.14023 0.0
H1968 H 0.07138 0.46423 0.17179 0.0
H1969 H 0.18308 0.75843 0.07826 0.0
H1970 H 0.90076 0.18127 0.14939 0.0
H1971 H 0.89746 0.28414 0.1458 0.0
H1972 H 0.85812 0.25576 0.10952 0.0
H1973 H 0.86157 0.15251 0.11271 0.0
H1974 H 0.87716 0.33755 0.09645 0.0
H1975 H 0.85238 0.29656 0.15397 0.0
H1976 H 0.85097 0.25612 0.18504 0.0
H1977 H 0.88965 0.36208 0.20189 0.0
H1978 H 0.89145 0.40259 0.17084 0.0
H1979 H 0.84765 0.6217 0.09894 0.0
H1980 H 0.85083 0.51833 0.10134 0.0
H1981 H 0.89004 0.54218 0.13816 0.0
H1982 H 0.88671 0.64563 0.13615 0.0
H1983 H 0.87062 0.4623 0.15073 0.0
H1984 H 0.89548 0.50315 0.09318 0.0
H1985 H 0.89686 0.54383 0.06215 0.0
H1986 H 0.85806 0.43842 0.04531 0.0
H1987 H 0.85629 0.39768 0.07633 0.0
C1988 C 0.89135 0.19683 0.1407 0.0
C1989 C 0.88136 0.1587 0.13142 0.0
C1990 C 0.88947 0.2557 0.13868 0.0
C1991 C 0.87741 0.27766 0.12757 0.0
C1992 C 0.86748 0.23972 0.11818 0.0
C1993 C 0.86943 0.18075 0.12009 0.0
C1994 C 0.87518 0.34023 0.12579 0.0
C1995 C 0.87551 0.36477 0.10829 0.0
C1996 C 0.87336 0.37585 0.14127 0.0
C1997 C 0.87213 0.35227 0.16004 0.0
C1998 C 0.86064 0.31101 0.16428 0.0
C1999 C 0.85977 0.28809 0.18188 0.0
C2000 C 0.87024 0.30643 0.19542 0.0
C2001 C 0.88156 0.34788 0.19139 0.0
C2002 C 0.8825 0.37089 0.17379 0.0
C2003 C 0.85701 0.605 0.10747 0.0
C2004 C 0.86696 0.6419 0.11733 0.0
C2005 C 0.85884 0.54586 0.10879 0.0
C2006 C 0.87078 0.52251 0.11979 0.0
C2007 C 0.88075 0.55927 0.12959 0.0
C2008 C 0.87886 0.6184 0.12838 0.0
C2009 C 0.87269 0.45973 0.1214 0.0
C2010 C 0.87226 0.43512 0.13887 0.0
C2011 C 0.87442 0.42411 0.10589 0.0
C2012 C 0.87566 0.44776 0.08713 0.0
C2013 C 0.88718 0.48889 0.08289 0.0
C2014 C 0.88804 0.51194 0.0653 0.0
C2015 C 0.87753 0.49385 0.05178 0.0
C2016 C 0.86618 0.45246 0.0558 0.0
C2017 C 0.86525 0.42933 0.07338 0.0
H2018 H 0.87819 0.51182 0.03817 0.0
H2019 H 0.86955 0.28859 0.20904 0.0
H2020 H 0.10558 0.17493 0.33671 0.0
H2021 H 0.10869 0.27787 0.34054 0.0
H2022 H 0.13972 0.24954 0.38638 0.0
H2023 H 0.13647 0.14639 0.38285 0.0
H2024 H 0.11833 0.33099 0.39393 0.0
H2025 H 0.15454 0.29087 0.34559 0.0
H2026 H 0.16278 0.24963 0.3161 0.0
H2027 H 0.12882 0.35365 0.28808 0.0
H2028 H 0.12022 0.39503 0.31746 0.0
H2029 H 0.14757 0.61508 0.39914 0.0
H2030 H 0.14517 0.51175 0.39574 0.0
H2031 H 0.11293 0.5355 0.35077 0.0
H2032 H 0.1154 0.63909 0.35392 0.0
H2033 H 0.13558 0.45618 0.34301 0.0
H2034 H 0.09931 0.49519 0.39207 0.0
H2035 H 0.09158 0.53594 0.42181 0.0
H2036 H 0.12654 0.43346 0.44876 0.0
H2037 H 0.13463 0.39264 0.41912 0.0
C2038 C 0.11315 0.19052 0.34754 0.0
C2039 C 0.12081 0.15246 0.35945 0.0
C2040 C 0.11494 0.2494 0.34969 0.0
C2041 C 0.12454 0.27134 0.36365 0.0
C2042 C 0.13224 0.23348 0.37553 0.0
C2043 C 0.13043 0.17456 0.37343 0.0
C2044 C 0.12634 0.33385 0.36601 0.0
C2045 C 0.12232 0.35829 0.38288 0.0
C2046 C 0.13128 0.3695 0.35148 0.0
C2047 C 0.13665 0.3457 0.33374 0.0
C2048 C 0.14877 0.30474 0.33315 0.0
C2049 C 0.15351 0.28137 0.31646 0.0
C2050 C 0.1463 0.29892 0.30024 0.0
C2051 C 0.13438 0.34009 0.30067 0.0
C2052 C 0.12958 0.36358 0.31733 0.0
C2053 C 0.13986 0.59841 0.38862 0.0
C2054 C 0.13163 0.63533 0.37684 0.0
C2055 C 0.1385 0.53931 0.3867 0.0
C2056 C 0.1288 0.516 0.37306 0.0
C2057 C 0.12049 0.55268 0.36136 0.0
C2058 C 0.12184 0.61184 0.36326 0.0
C2059 C 0.12746 0.4533 0.37089 0.0
C2060 C 0.13161 0.42884 0.35406 0.0
C2061 C 0.12272 0.4176 0.38548 0.0
C2062 C 0.11766 0.44122 0.40336 0.0
C2063 C 0.10541 0.48158 0.40432 0.0
C2064 C 0.10096 0.50466 0.42116 0.0
C2065 C 0.10859 0.4874 0.43716 0.0
C2066 C 0.12065 0.44683 0.43635 0.0
C2067 C 0.12516 0.42364 0.41954 0.0
H2068 H 0.10514 0.50538 0.45018 0.0
H2069 H 0.14997 0.2807 0.28734 0.0
H2070 H 0.863 0.36496 0.34962 0.0
H2071 H 0.86361 0.46862 0.34678 0.0
H2072 H 0.88604 0.48139 0.39958 0.0
H2073 H 0.88487 0.37749 0.40282 0.0
H2074 H 0.86411 0.55813 0.39713 0.0
H2075 H 0.90627 0.49944 0.35754 0.0
H2076 H 0.9185 0.44562 0.3323 0.0
H2077 H 0.88673 0.5239 0.29409 0.0
H2078 H 0.87413 0.57752 0.31915 0.0
H2079 H 0.88606 0.85051 0.38797 0.0
H2080 H 0.88614 0.74678 0.39156 0.0
H2081 H 0.8619 0.72876 0.34004 0.0
H2082 H 0.86204 0.83236 0.33617 0.0
H2083 H 0.8854 0.65499 0.34217 0.0
H2084 H 0.84306 0.7125 0.38174 0.0
H2085 H 0.83053 0.76543 0.40697 0.0
H2086 H 0.86259 0.68895 0.44523 0.0
H2087 H 0.8755 0.63628 0.42017 0.0
C2088 C 0.86818 0.38973 0.36058 0.0
C2089 C 0.87399 0.36292 0.37641 0.0
C2090 C 0.86858 0.44912 0.3589 0.0
C2091 C 0.87513 0.48298 0.37282 0.0
C2092 C 0.88097 0.45625 0.38862 0.0
C2093 C 0.88036 0.39682 0.39043 0.0
C2094 C 0.87549 0.54628 0.3711 0.0
C2095 C 0.86901 0.57932 0.38524 0.0
C2096 C 0.8815 0.57404 0.35537 0.0
C2097 C 0.88917 0.54215 0.34026 0.0
C2098 C 0.90182 0.5049 0.34378 0.0
C2099 C 0.90882 0.47444 0.3295 0.0
C2100 C 0.90337 0.48124 0.31161 0.0
C2101 C 0.89093 0.51862 0.30795 0.0
C2102 C 0.88386 0.54908 0.32219 0.0
C2103 C 0.88066 0.82453 0.37744 0.0
C2104 C 0.87398 0.84981 0.36181 0.0
C2105 C 0.88067 0.76518 0.37955 0.0
C2106 C 0.87387 0.72991 0.36617 0.0
C2107 C 0.8672 0.75507 0.35056 0.0
C2108 C 0.86723 0.81437 0.3484 0.0
C2109 C 0.874 0.66674 0.36819 0.0
C2110 C 0.88057 0.63376 0.3541 0.0
C2111 C 0.86809 0.63906 0.38397 0.0
C2112 C 0.86036 0.67094 0.39903 0.0
C2113 C 0.84754 0.70738 0.3955 0.0
C2114 C 0.84035 0.73727 0.40978 0.0
C2115 C 0.84579 0.73069 0.42768 0.0
C2116 C 0.85841 0.69411 0.43135 0.0
C2117 C 0.86567 0.66423 0.41711 0.0
H2118 H 0.8402 0.75382 0.43872 0.0
H2119 H 0.90881 0.45762 0.30057 0.0
H2120 H 0.86878 0.14523 0.88423 0.0
H2121 H 0.8666 0.24842 0.88834 0.0
H2122 H 0.88783 0.27527 0.83548 0.0
H2123 H 0.8902 0.17201 0.83131 0.0
H2124 H 0.9011 0.34251 0.86156 0.0
H2125 H 0.84869 0.29405 0.84179 0.0
H2126 H 0.82347 0.24179 0.84279 0.0
H2127 H 0.81475 0.30525 0.8969 0.0
H2128 H 0.84006 0.35717 0.89635 0.0
H2129 H 0.88397 0.6356 0.8498 0.0
H2130 H 0.88593 0.53203 0.847 0.0
H2131 H 0.86275 0.51197 0.89907 0.0
H2132 H 0.86042 0.61569 0.90179 0.0
H2133 H 0.8505 0.44086 0.87442 0.0
H2134 H 0.90241 0.48933 0.89459 0.0
H2135 H 0.92747 0.54269 0.89403 0.0
H2136 H 0.93713 0.47946 0.84011 0.0
H2137 H 0.912 0.42634 0.84024 0.0
C2138 C 0.8729 0.17302 0.87341 0.0
C2139 C 0.87968 0.15037 0.85744 0.0
C2140 C 0.8716 0.23202 0.87577 0.0
C2141 C 0.87698 0.26951 0.86217 0.0
C2142 C 0.88363 0.24706 0.84616 0.0
C2143 C 0.88493 0.18804 0.84377 0.0
C2144 C 0.87603 0.33218 0.86485 0.0
C2145 C 0.89001 0.36414 0.86414 0.0
C2146 C 0.86161 0.36008 0.86878 0.0
C2147 C 0.84636 0.32903 0.8691 0.0
C2148 C 0.84146 0.29647 0.85397 0.0
C2149 C 0.82714 0.26697 0.85444 0.0
C2150 C 0.81753 0.27007 0.86992 0.0
C2151 C 0.82221 0.30281 0.88493 0.0
C2152 C 0.83654 0.3323 0.88454 0.0
C2153 C 0.87943 0.60923 0.86075 0.0
C2154 C 0.87208 0.63391 0.87604 0.0
C2155 C 0.88058 0.54998 0.85915 0.0
C2156 C 0.87461 0.51423 0.87291 0.0
C2157 C 0.86742 0.53875 0.88829 0.0
C2158 C 0.86618 0.59804 0.88986 0.0
C2159 C 0.87557 0.45125 0.871 0.0
C2160 C 0.8616 0.41922 0.87189 0.0
C2161 C 0.89 0.42319 0.86736 0.0
C2162 C 0.90527 0.4542 0.86737 0.0
C2163 C 0.90984 0.48705 0.88257 0.0
C2164 C 0.92406 0.51724 0.88234 0.0
C2165 C 0.93387 0.51456 0.86703 0.0
C2166 C 0.92951 0.48152 0.85196 0.0
C2167 C 0.91529 0.4513 0.85211 0.0
H2168 H 0.94487 0.53802 0.86687 0.0
H2169 H 0.80644 0.24722 0.87026 0.0
H2170 H 0.14266 0.37096 0.85438 0.0
H2171 H 0.14235 0.47513 0.85214 0.0
H2172 H 0.11109 0.4841 0.89848 0.0
H2173 H 0.11164 0.37956 0.90113 0.0
H2174 H 0.1019 0.55064 0.86613 0.0
H2175 H 0.14575 0.5191 0.90635 0.0
H2176 H 0.17103 0.47728 0.91618 0.0
H2177 H 0.19414 0.5512 0.86967 0.0
H2178 H 0.16891 0.59265 0.85935 0.0
H2179 H 0.10944 0.8495 0.88667 0.0
H2180 H 0.11111 0.74544 0.89031 0.0
H2181 H 0.13834 0.73392 0.84072 0.0
H2182 H 0.13613 0.83775 0.8366 0.0
H2183 H 0.14986 0.66904 0.87496 0.0
H2184 H 0.10679 0.69575 0.83363 0.0
H2185 H 0.08179 0.73633 0.82244 0.0
H2186 H 0.05762 0.66957 0.86934 0.0
H2187 H 0.08259 0.62964 0.88104 0.0
C2188 C 0.13566 0.39501 0.86407 0.0
C2189 C 0.1271 0.36703 0.87789 0.0
C2190 C 0.13558 0.45453 0.86283 0.0
C2191 C 0.12676 0.48719 0.87519 0.0
C2192 C 0.118 0.4595 0.88884 0.0
C2193 C 0.11832 0.3999 0.89033 0.0
C2194 C 0.12646 0.55024 0.87355 0.0
C2195 C 0.11232 0.57664 0.86835 0.0
C2196 C 0.14021 0.58377 0.87588 0.0
C2197 C 0.15538 0.55837 0.88194 0.0
C2198 C 0.15617 0.52585 0.89808 0.0
C2199 C 0.17051 0.50234 0.90377 0.0
C2200 C 0.18417 0.51141 0.89352 0.0
C2201 C 0.18353 0.54409 0.87757 0.0
C2202 C 0.16922 0.56761 0.87179 0.0
C2203 C 0.11585 0.82476 0.87662 0.0
C2204 C 0.12264 0.85148 0.86135 0.0
C2205 C 0.11677 0.76547 0.87869 0.0
C2206 C 0.12483 0.73221 0.86577 0.0
C2207 C 0.13207 0.75899 0.85082 0.0
C2208 C 0.13076 0.81809 0.84846 0.0
C2209 C 0.12528 0.66929 0.86766 0.0
C2210 C 0.13944 0.64297 0.87284 0.0
C2211 C 0.1116 0.63567 0.86514 0.0
C2212 C 0.09663 0.66064 0.85839 0.0
C2213 C 0.09621 0.69058 0.84173 0.0
C2214 C 0.08203 0.71326 0.83526 0.0
C2215 C 0.06814 0.70578 0.84522 0.0
C2216 C 0.0684 0.67553 0.86168 0.0
C2217 C 0.08257 0.65292 0.86825 0.0
H2218 H 0.05715 0.72322 0.84016 0.0
H2219 H 0.19526 0.49325 0.89797 0.0
H2220 H 0.8597 0.85281 0.6239 0.0
H2221 H 0.85601 0.74971 0.62004 0.0
H2222 H 0.90312 0.7199 0.64005 0.0
H2223 H 0.9068 0.82278 0.64433 0.0
H2224 H 0.89496 0.65908 0.60675 0.0
H2225 H 0.87607 0.69303 0.6675 0.0
H2226 H 0.86013 0.74173 0.69093 0.0
H2227 H 0.81766 0.68808 0.66394 0.0
H2228 H 0.83338 0.63997 0.64011 0.0
H2229 H 0.88974 0.35973 0.62575 0.0
H2230 H 0.89362 0.46314 0.62847 0.0
H2231 H 0.84607 0.49166 0.60969 0.0
H2232 H 0.84219 0.38852 0.60661 0.0
H2233 H 0.8544 0.55338 0.64204 0.0
H2234 H 0.87307 0.51895 0.58145 0.0
H2235 H 0.88886 0.47082 0.55775 0.0
H2236 H 0.93151 0.52536 0.58416 0.0
H2237 H 0.91595 0.57302 0.60823 0.0
C2238 C 0.86925 0.82428 0.62754 0.0
C2239 C 0.88351 0.84585 0.63447 0.0
C2240 C 0.86713 0.76548 0.62532 0.0
C2241 C 0.87932 0.72735 0.62973 0.0
C2242 C 0.89361 0.74874 0.63652 0.0
C2243 C 0.89564 0.80744 0.63906 0.0
C2244 C 0.87703 0.66504 0.62749 0.0
C2245 C 0.88624 0.63575 0.61462 0.0
C2246 C 0.86541 0.63509 0.6375 0.0
C2247 C 0.85591 0.66346 0.65189 0.0
C2248 C 0.86334 0.69208 0.66645 0.0
C2249 C 0.85434 0.71951 0.67982 0.0
C2250 C 0.83789 0.71814 0.6789 0.0
C2251 C 0.83041 0.6892 0.66462 0.0
C2252 C 0.83936 0.66183 0.65117 0.0
C2253 C 0.88016 0.38808 0.62208 0.0
C2254 C 0.8657 0.36608 0.61588 0.0
C2255 C 0.88239 0.44705 0.62363 0.0
C2256 C 0.87012 0.48491 0.61927 0.0
C2257 C 0.85566 0.46308 0.61312 0.0
C2258 C 0.85352 0.4042 0.61126 0.0
C2259 C 0.87234 0.54732 0.62132 0.0
C2260 C 0.86312 0.57666 0.63416 0.0
C2261 C 0.88393 0.5773 0.61126 0.0
C2262 C 0.89334 0.549 0.59677 0.0
C2263 C 0.88582 0.52021 0.58232 0.0
C2264 C 0.89472 0.4931 0.56879 0.0
C2265 C 0.91118 0.49487 0.56948 0.0
C2266 C 0.91876 0.52392 0.58367 0.0
C2267 C 0.9099 0.55103 0.59725 0.0
H2268 H 0.91806 0.47387 0.559 0.0
H2269 H 0.83094 0.73938 0.68927 0.0
H2270 H 0.09556 0.18804 0.64528 0.0
H2271 H 0.10041 0.28998 0.64119 0.0
H2272 H 0.14399 0.25261 0.61331 0.0
H2273 H 0.13923 0.15014 0.6173 0.0
H2274 H 0.14687 0.33987 0.63905 0.0
H2275 H 0.11373 0.29162 0.58847 0.0
H2276 H 0.09056 0.25036 0.57295 0.0
H2277 H 0.05998 0.36103 0.60346 0.0
H2278 H 0.08297 0.40248 0.61934 0.0
H2279 H 0.15679 0.62054 0.60234 0.0
H2280 H 0.15351 0.5171 0.60512 0.0
H2281 H 0.1097 0.54249 0.63388 0.0
H2282 H 0.11292 0.64602 0.63129 0.0
H2283 H 0.10777 0.46033 0.60648 0.0
H2284 H 0.14096 0.50726 0.65747 0.0
H2285 H 0.16414 0.5482 0.67304 0.0
H2286 H 0.19473 0.43974 0.64175 0.0
H2287 H 0.17173 0.39874 0.62578 0.0
C2288 C 0.10622 0.20138 0.63832 0.0
C2289 C 0.11699 0.16099 0.63155 0.0
C2290 C 0.10892 0.25967 0.63594 0.0
C2291 C 0.12247 0.27872 0.62679 0.0
C2292 C 0.13344 0.23866 0.62036 0.0
C2293 C 0.13068 0.18021 0.62261 0.0
C2294 C 0.12507 0.34059 0.62395 0.0
C2295 C 0.13847 0.36614 0.63167 0.0
C2296 C 0.11392 0.37484 0.61464 0.0
C2297 C 0.10006 0.34975 0.60522 0.0
C2298 C 0.10205 0.30679 0.59199 0.0
C2299 C 0.08896 0.28345 0.5831 0.0
C2300 C 0.07381 0.30296 0.58725 0.0
C2301 C 0.07173 0.34592 0.60028 0.0
C2302 C 0.08478 0.36939 0.60921 0.0
C2303 C 0.14641 0.60414 0.60917 0.0
C2304 C 0.1351 0.64143 0.61659 0.0
C2305 C 0.14462 0.54506 0.61084 0.0
C2306 C 0.13143 0.52228 0.61983 0.0
C2307 C 0.11997 0.55933 0.62693 0.0
C2308 C 0.12184 0.61841 0.62545 0.0
C2309 C 0.12949 0.45975 0.62171 0.0
C2310 C 0.11622 0.43405 0.61378 0.0
C2311 C 0.14077 0.42544 0.63081 0.0
C2312 C 0.15463 0.45047 0.64025 0.0
C2313 C 0.15264 0.49261 0.65375 0.0
C2314 C 0.16574 0.51572 0.66269 0.0
C2315 C 0.1809 0.49674 0.65834 0.0
C2316 C 0.18298 0.45451 0.64507 0.0
C2317 C 0.16992 0.4313 0.63607 0.0
H2318 H 0.19103 0.51463 0.66529 0.0
H2319 H 0.06369 0.28487 0.58034 0.0
H2320 H 0.65427 0.89648 0.09926 0.0
H2321 H 0.65125 0.9992 0.10369 0.0
H2322 H 0.60865 0.97035 0.13446 0.0
H2323 H 0.61165 0.86702 0.13026 0.0
H2324 H 0.6061 0.05793 0.10835 0.0
H2325 H 0.64057 0.00232 0.15724 0.0
H2326 H 0.66392 0.95788 0.17143 0.0
H2327 H 0.69429 0.06592 0.13971 0.0
H2328 H 0.67112 0.11056 0.12515 0.0
H2329 H 0.59829 0.32947 0.15025 0.0
H2330 H 0.60147 0.22738 0.14461 0.0
H2331 H 0.64486 0.26013 0.11576 0.0
H2332 H 0.64171 0.36281 0.12122 0.0
H2333 H 0.64733 0.17069 0.14021 0.0
H2334 H 0.61322 0.22738 0.0916 0.0
H2335 H 0.59014 0.2702 0.07638 0.0
H2336 H 0.55931 0.15958 0.10657 0.0
H2337 H 0.58221 0.11657 0.12216 0.0
C2338 C 0.64417 0.91186 0.10685 0.0
C2339 C 0.63317 0.87354 0.1144 0.0
C2340 C 0.64254 0.97061 0.10947 0.0
C2341 C 0.62983 0.99227 0.11957 0.0
C2342 C 0.61857 0.95436 0.12669 0.0
C2343 C 0.6203 0.89542 0.12426 0.0
C2344 C 0.62828 0.05459 0.12257 0.0
C2345 C 0.61498 0.08254 0.11556 0.0
C2346 C 0.64014 0.08675 0.13146 0.0
C2347 C 0.65411 0.0593 0.13995 0.0
C2348 C 0.65223 0.01616 0.15313 0.0
C2349 C 0.66543 0.99105 0.16128 0.0
C2350 C 0.68058 0.00894 0.15643 0.0
C2351 C 0.68256 0.05203 0.14343 0.0
C2352 C 0.66939 0.07728 0.13524 0.0
C2353 C 0.60859 0.31508 0.14283 0.0
C2354 C 0.61978 0.35436 0.13623 0.0
C2355 C 0.61031 0.25668 0.13948 0.0
C2356 C 0.62329 0.23625 0.12957 0.0
C2357 C 0.63471 0.27509 0.12336 0.0
C2358 C 0.63291 0.33369 0.12653 0.0
C2359 C 0.62506 0.17415 0.1261 0.0
C2360 C 0.63843 0.14618 0.133 0.0
C2361 C 0.61327 0.14199 0.11704 0.0
C2362 C 0.59943 0.1693 0.10824 0.0
C2363 C 0.60151 0.21275 0.09519 0.0
C2364 C 0.58846 0.23689 0.08644 0.0
C2365 C 0.57327 0.21777 0.09055 0.0
C2366 C 0.57109 0.17446 0.10343 0.0
C2367 C 0.5841 0.15018 0.11222 0.0
H2368 H 0.56318 0.23639 0.08371 0.0
H2369 H 0.69079 0.98951 0.16278 0.0
H2370 H 0.36387 0.6485 0.11325 0.0
H2371 H 0.35995 0.75122 0.10932 0.0
H2372 H 0.39949 0.7845 0.14491 0.0
H2373 H 0.40325 0.68214 0.14923 0.0
H2374 H 0.37558 0.85024 0.15367 0.0
H2375 H 0.40175 0.79958 0.09754 0.0
H2376 H 0.40572 0.74788 0.06855 0.0
H2377 H 0.36103 0.80833 0.04888 0.0
H2378 H 0.35669 0.85978 0.07785 0.0
H2379 H 0.38605 0.14443 0.13507 0.0
H2380 H 0.38958 0.0413 0.13794 0.0
H2381 H 0.35028 0.01345 0.10154 0.0
H2382 H 0.34694 0.11651 0.09822 0.0
H2383 H 0.37339 0.94454 0.09306 0.0
H2384 H 0.34729 0.99621 0.14886 0.0
H2385 H 0.34312 0.04773 0.17784 0.0
H2386 H 0.38732 0.98495 0.19823 0.0
H2387 H 0.39187 0.9337 0.16927 0.0
C2388 C 0.37173 0.67772 0.12024 0.0
C2389 C 0.38384 0.65718 0.1316 0.0
C2390 C 0.36954 0.73641 0.11788 0.0
C2391 C 0.37954 0.77557 0.12666 0.0
C2392 C 0.39163 0.75508 0.138 0.0
C2393 C 0.39376 0.69651 0.14046 0.0
C2394 C 0.37716 0.83797 0.12457 0.0
C2395 C 0.37532 0.871 0.14042 0.0
C2396 C 0.37633 0.86477 0.10726 0.0
C2397 C 0.37882 0.833 0.08996 0.0
C2398 C 0.39269 0.80136 0.08711 0.0
C2399 C 0.39503 0.77221 0.07066 0.0
C2400 C 0.38362 0.77468 0.0569 0.0
C2401 C 0.36985 0.80635 0.05956 0.0
C2402 C 0.36745 0.83553 0.07599 0.0
C2403 C 0.37819 0.11635 0.12762 0.0
C2404 C 0.36621 0.13865 0.11642 0.0
C2405 C 0.38015 0.05739 0.12938 0.0
C2406 C 0.37002 0.01959 0.1202 0.0
C2407 C 0.35821 0.04179 0.10879 0.0
C2408 C 0.35632 0.10073 0.1069 0.0
C2409 C 0.37193 0.95691 0.12218 0.0
C2410 C 0.37364 0.9238 0.10632 0.0
C2411 C 0.37261 0.92999 0.13949 0.0
C2412 C 0.37 0.96162 0.1568 0.0
C2413 C 0.3562 0.99387 0.15944 0.0
C2414 C 0.35375 0.02292 0.17589 0.0
C2415 C 0.36496 0.01975 0.18985 0.0
C2416 C 0.37865 0.98747 0.1874 0.0
C2417 C 0.38117 0.95839 0.17097 0.0
H2418 H 0.36303 0.04218 0.20258 0.0
H2419 H 0.38546 0.75217 0.04416 0.0
H2420 H 0.65847 0.12228 0.37331 0.0
H2421 H 0.65531 0.01833 0.3711 0.0
H2422 H 0.60487 0.03886 0.36796 0.0
H2423 H 0.60801 0.14324 0.3694 0.0
H2424 H 0.61962 0.95486 0.39648 0.0
H2425 H 0.61689 0.00574 0.33272 0.0
H2426 H 0.62614 0.05163 0.30439 0.0
H2427 H 0.66876 0.95285 0.30637 0.0
H2428 H 0.65988 0.90716 0.33496 0.0
H2429 H 0.59236 0.68014 0.36906 0.0
H2430 H 0.5973 0.78298 0.37076 0.0
H2431 H 0.64727 0.75285 0.36596 0.0
H2432 H 0.64244 0.6494 0.36475 0.0
H2433 H 0.63403 0.84136 0.34169 0.0
H2434 H 0.63709 0.78827 0.40432 0.0
H2435 H 0.62875 0.7424 0.43303 0.0
H2436 H 0.58678 0.84488 0.43377 0.0
H2437 H 0.59474 0.89071 0.40485 0.0
C2438 C 0.64671 0.10456 0.37205 0.0
C2439 C 0.63346 0.14059 0.37152 0.0
C2440 C 0.64494 0.04533 0.37076 0.0
C2441 C 0.62987 0.0211 0.36937 0.0
C2442 C 0.6166 0.05693 0.36898 0.0
C2443 C 0.61839 0.11634 0.36973 0.0
C2444 C 0.62801 0.95823 0.36876 0.0
C2445 C 0.62256 0.93004 0.38443 0.0
C2446 C 0.63238 0.92595 0.35323 0.0
C2447 C 0.63783 0.95371 0.33615 0.0
C2448 C 0.62834 0.99442 0.32728 0.0
C2449 C 0.63349 0.02025 0.31113 0.0
C2450 C 0.64806 0.00535 0.30363 0.0
C2451 C 0.65749 0.96449 0.31224 0.0
C2452 C 0.65241 0.93862 0.32841 0.0
C2453 C 0.60441 0.69535 0.36842 0.0
C2454 C 0.61702 0.65673 0.36681 0.0
C2455 C 0.60721 0.75408 0.36943 0.0
C2456 C 0.62264 0.77545 0.3685 0.0
C2457 C 0.63527 0.73713 0.3667 0.0
C2458 C 0.6325 0.67815 0.36611 0.0
C2459 C 0.62542 0.83796 0.36934 0.0
C2460 C 0.6311 0.86611 0.35375 0.0
C2461 C 0.62136 0.87023 0.38499 0.0
C2462 C 0.61641 0.84239 0.40228 0.0
C2463 C 0.62598 0.80053 0.41047 0.0
C2464 C 0.62135 0.77464 0.42682 0.0
C2465 C 0.60722 0.79057 0.43519 0.0
C2466 C 0.59771 0.83249 0.42724 0.0
C2467 C 0.60228 0.85845 0.41087 0.0
H2468 H 0.60366 0.77055 0.44786 0.0
H2469 H 0.65202 0.02532 0.2911 0.0
H2470 H 0.39711 0.87267 0.39235 0.0
H2471 H 0.39663 0.97675 0.39006 0.0
H2472 H 0.3553 0.96721 0.35577 0.0
H2473 H 0.35608 0.86306 0.35745 0.0
H2474 H 0.37427 0.04352 0.34255 0.0
H2475 H 0.35359 0.00714 0.40251 0.0
H2476 H 0.35367 0.96455 0.43333 0.0
H2477 H 0.3968 0.05217 0.44594 0.0
H2478 H 0.39706 0.09485 0.41511 0.0
H2479 H 0.355 0.33753 0.34832 0.0
H2480 H 0.35459 0.23365 0.35066 0.0
H2481 H 0.39591 0.2389 0.38507 0.0
H2482 H 0.39598 0.34326 0.38337 0.0
H2483 H 0.37627 0.16456 0.39812 0.0
H2484 H 0.39666 0.20041 0.33735 0.0
H2485 H 0.39606 0.24175 0.30634 0.0
H2486 H 0.35255 0.15468 0.29521 0.0
H2487 H 0.35281 0.11324 0.32621 0.0
C2488 C 0.38793 0.89272 0.3843 0.0
C2489 C 0.37664 0.85951 0.37509 0.0
C2490 C 0.3876 0.95235 0.38309 0.0
C2491 C 0.37576 0.98015 0.37298 0.0
C2492 C 0.36455 0.94696 0.36366 0.0
C2493 C 0.365 0.88732 0.36466 0.0
C2494 C 0.37516 0.04371 0.37197 0.0
C2495 C 0.3745 0.06993 0.35473 0.0
C2496 C 0.37571 0.07849 0.3878 0.0
C2497 C 0.3754 0.05381 0.40646 0.0
C2498 C 0.36312 0.01712 0.41183 0.0
C2499 C 0.3631 0.99299 0.42931 0.0
C2500 C 0.37525 0.00552 0.44157 0.0
C2501 C 0.3874 0.04246 0.43642 0.0
C2502 C 0.38748 0.06672 0.41896 0.0
C2503 C 0.36399 0.31663 0.35643 0.0
C2504 C 0.37554 0.34873 0.36565 0.0
C2505 C 0.36381 0.25706 0.35765 0.0
C2506 C 0.37542 0.22805 0.36774 0.0
C2507 C 0.38685 0.26012 0.37715 0.0
C2508 C 0.38689 0.31984 0.37616 0.0
C2509 C 0.37555 0.16444 0.36869 0.0
C2510 C 0.37606 0.13818 0.38594 0.0
C2511 C 0.37477 0.12965 0.35285 0.0
C2512 C 0.3747 0.15411 0.33415 0.0
C2513 C 0.38693 0.19032 0.32831 0.0
C2514 C 0.38665 0.21372 0.31074 0.0
C2515 C 0.37425 0.20097 0.29883 0.0
C2516 C 0.36214 0.16457 0.30445 0.0
C2517 C 0.36236 0.14104 0.32201 0.0
H2518 H 0.37405 0.21922 0.28525 0.0
H2519 H 0.37524 0.98667 0.45507 0.0
H2520 H 0.35854 0.65152 0.86456 0.0
H2521 H 0.35487 0.75509 0.86784 0.0
H2522 H 0.40478 0.78092 0.86037 0.0
H2523 H 0.40845 0.67779 0.85643 0.0
H2524 H 0.389 0.84156 0.89207 0.0
H2525 H 0.38668 0.81109 0.82711 0.0
H2526 H 0.37713 0.76454 0.79901 0.0
H2527 H 0.33003 0.82134 0.81051 0.0
H2528 H 0.33926 0.86723 0.83894 0.0
H2529 H 0.39233 0.14133 0.87025 0.0
H2530 H 0.39556 0.03715 0.86878 0.0
H2531 H 0.34533 0.01563 0.87469 0.0
H2532 H 0.34208 0.11941 0.87676 0.0
H2533 H 0.36083 0.95235 0.84431 0.0
H2534 H 0.36295 0.98435 0.9088 0.0
H2535 H 0.37215 0.02969 0.93726 0.0
H2536 H 0.41917 0.96986 0.92701 0.0
H2537 H 0.4103 0.92497 0.89827 0.0
C2538 C 0.3687 0.67938 0.8636 0.0
C2539 C 0.38375 0.65684 0.86013 0.0
C2540 C 0.3666 0.73834 0.86549 0.0
C2541 C 0.37957 0.77539 0.86438 0.0
C2542 C 0.39465 0.75288 0.8613 0.0
C2543 C 0.3967 0.69413 0.85893 0.0
C2544 C 0.37733 0.83785 0.86596 0.0
C2545 C 0.38301 0.86598 0.88156 0.0
C2546 C 0.36922 0.8692 0.85239 0.0
C2547 C 0.36363 0.84189 0.83529 0.0
C2548 C 0.37425 0.81306 0.82378 0.0
C2549 C 0.3689 0.78691 0.80776 0.0
C2550 C 0.35297 0.78981 0.80301 0.0
C2551 C 0.34236 0.819 0.81424 0.0
C2552 C 0.34765 0.84507 0.83031 0.0
C2553 C 0.38201 0.11429 0.87129 0.0
C2554 C 0.36698 0.1383 0.87367 0.0
C2555 C 0.38386 0.05496 0.87049 0.0
C2556 C 0.37067 0.01892 0.87164 0.0
C2557 C 0.35563 0.04283 0.87379 0.0
C2558 C 0.35382 0.102 0.87506 0.0
C2559 C 0.37257 0.95622 0.87039 0.0
C2560 C 0.36682 0.92799 0.85485 0.0
C2561 C 0.38058 0.92481 0.88403 0.0
C2562 C 0.38601 0.952 0.90124 0.0
C2563 C 0.3753 0.98148 0.91248 0.0
C2564 C 0.38044 0.00695 0.9287 0.0
C2565 C 0.39625 0.00285 0.93391 0.0
C2566 C 0.40694 0.97313 0.92292 0.0
C2567 C 0.40186 0.94765 0.90667 0.0
H2568 H 0.4002 0.02254 0.94648 0.0
H2569 H 0.34885 0.76959 0.79059 0.0
H2570 H 0.63531 0.35364 0.88244 0.0
H2571 H 0.63862 0.25073 0.88646 0.0
H2572 H 0.60938 0.21992 0.83924 0.0
H2573 H 0.60594 0.32279 0.83515 0.0
H2574 H 0.60093 0.15323 0.8682 0.0
H2575 H 0.64852 0.20275 0.83655 0.0
H2576 H 0.67308 0.2565 0.83121 0.0
H2577 H 0.69144 0.19846 0.88265 0.0
H2578 H 0.66686 0.14504 0.88844 0.0
H2579 H 0.61765 0.85923 0.85581 0.0
H2580 H 0.61464 0.96223 0.8522 0.0
H2581 H 0.64571 0.99033 0.89803 0.0
H2582 H 0.64903 0.88717 0.90153 0.0
H2583 H 0.65327 0.05883 0.87016 0.0
H2584 H 0.60585 0.00898 0.90185 0.0
H2585 H 0.58133 0.9551 0.90731 0.0
H2586 H 0.56264 0.01398 0.85613 0.0
H2587 H 0.58717 0.06753 0.85023 0.0
C2588 C 0.62966 0.32502 0.87283 0.0
C2589 C 0.62038 0.34644 0.85845 0.0
C2590 C 0.6316 0.26621 0.87513 0.0
C2591 C 0.62431 0.2277 0.86309 0.0
C2592 C 0.6151 0.24893 0.84868 0.0
C2593 C 0.61321 0.30775 0.84632 0.0
C2594 C 0.62602 0.16524 0.86577 0.0
C2595 C 0.61236 0.13242 0.86838 0.0
C2596 C 0.64096 0.13844 0.86649 0.0
C2597 C 0.65577 0.17036 0.86301 0.0
C2598 C 0.65773 0.20184 0.8468 0.0
C2599 C 0.67167 0.23218 0.84368 0.0
C2600 C 0.68379 0.23102 0.85661 0.0
C2601 C 0.68202 0.19939 0.87266 0.0
C2602 C 0.6681 0.16904 0.87586 0.0
C2603 C 0.62375 0.88723 0.86524 0.0
C2604 C 0.63354 0.86492 0.87901 0.0
C2605 C 0.62199 0.94618 0.86317 0.0
C2606 C 0.62984 0.98404 0.87495 0.0
C2607 C 0.63954 0.96191 0.88879 0.0
C2608 C 0.64136 0.90292 0.89083 0.0
C2609 C 0.62817 0.04671 0.87256 0.0
C2610 C 0.64184 0.0796 0.87001 0.0
C2611 C 0.61324 0.07362 0.87194 0.0
C2612 C 0.59841 0.04185 0.87552 0.0
C2613 C 0.59656 0.01011 0.8917 0.0
C2614 C 0.58265 0.97966 0.89488 0.0
C2615 C 0.57045 0.981 0.88205 0.0
C2616 C 0.57211 0.01292 0.86604 0.0
C2617 C 0.58601 0.04337 0.86278 0.0
H2618 H 0.55969 0.95739 0.88454 0.0
H2619 H 0.69458 0.25453 0.85416 0.0
H2620 H 0.36294 0.88921 0.58892 0.0
H2621 H 0.36501 0.99265 0.59261 0.0
H2622 H 0.38234 0.96949 0.64752 0.0
H2623 H 0.38029 0.86576 0.64396 0.0
H2624 H 0.35857 0.0523 0.64509 0.0
H2625 H 0.40755 0.00615 0.61518 0.0
H2626 H 0.42357 0.96111 0.59104 0.0
H2627 H 0.40008 0.06228 0.55037 0.0
H2628 H 0.38377 0.10744 0.57428 0.0
H2629 H 0.38927 0.32843 0.66273 0.0
H2630 H 0.3857 0.22596 0.65789 0.0
H2631 H 0.3699 0.25792 0.60282 0.0
H2632 H 0.37346 0.36068 0.60754 0.0
H2633 H 0.39194 0.17119 0.6044 0.0
H2634 H 0.34372 0.22035 0.63371 0.0
H2635 H 0.32741 0.26629 0.65739 0.0
H2636 H 0.34846 0.15976 0.69844 0.0
H2637 H 0.36512 0.11384 0.67503 0.0
C2638 C 0.36732 0.90601 0.60174 0.0
C2639 C 0.3715 0.86913 0.61612 0.0
C2640 C 0.36849 0.9652 0.60383 0.0
C2641 C 0.37384 0.98881 0.62034 0.0
C2642 C 0.37813 0.95217 0.63468 0.0
C2643 C 0.37707 0.89288 0.63257 0.0
C2644 C 0.37495 0.05175 0.62261 0.0
C2645 C 0.36602 0.07823 0.63636 0.0
C2646 C 0.38429 0.08575 0.61084 0.0
C2647 C 0.39437 0.05986 0.5965 0.0
C2648 C 0.40576 0.01861 0.60108 0.0
C2649 C 0.41489 0.99307 0.58744 0.0
C2650 C 0.41282 0.00874 0.56918 0.0
C2651 C 0.40166 0.05018 0.56453 0.0
C2652 C 0.39249 0.07583 0.57812 0.0
C2653 C 0.38491 0.31377 0.64963 0.0
C2654 C 0.38164 0.35279 0.63554 0.0
C2655 C 0.38286 0.25514 0.64689 0.0
C2656 C 0.37751 0.23424 0.62999 0.0
C2657 C 0.37408 0.27308 0.61594 0.0
C2658 C 0.376 0.33184 0.61872 0.0
C2659 C 0.3757 0.17175 0.62704 0.0
C2660 C 0.38447 0.14533 0.61312 0.0
C2661 C 0.36612 0.13785 0.63857 0.0
C2662 C 0.35578 0.164 0.65263 0.0
C2663 C 0.34494 0.20692 0.6478 0.0
C2664 C 0.33563 0.23296 0.66117 0.0
C2665 C 0.33693 0.21607 0.67942 0.0
C2666 C 0.34748 0.17285 0.6843 0.0
C2667 C 0.35686 0.14675 0.67098 0.0
H2668 H 0.32975 0.23642 0.68976 0.0
H2669 H 0.41987 0.98883 0.55864 0.0
H2670 H 0.59411 0.67945 0.62935 0.0
H2671 H 0.59832 0.7824 0.62661 0.0
H2672 H 0.64856 0.75532 0.62407 0.0
H2673 H 0.64442 0.65178 0.62643 0.0
H2674 H 0.63851 0.84242 0.6494 0.0
H2675 H 0.63241 0.78861 0.58701 0.0
H2676 H 0.61999 0.74341 0.56021 0.0
H2677 H 0.57876 0.8473 0.56751 0.0
H2678 H 0.59083 0.89248 0.59457 0.0
H2679 H 0.65895 0.1222 0.61505 0.0
H2680 H 0.65584 0.01846 0.61778 0.0
H2681 H 0.60602 0.0402 0.62716 0.0
H2682 H 0.60916 0.14439 0.62509 0.0
H2683 H 0.6166 0.95572 0.59802 0.0
H2684 H 0.62282 0.00774 0.66106 0.0
H2685 H 0.6356 0.05266 0.68767 0.0
H2686 H 0.67714 0.95167 0.67875 0.0
H2687 H 0.66471 0.90688 0.65183 0.0
C2688 C 0.60607 0.69533 0.62819 0.0
C2689 C 0.61895 0.65752 0.62812 0.0
C2690 C 0.60844 0.75414 0.62655 0.0
C2691 C 0.62374 0.77638 0.62507 0.0
C2692 C 0.63666 0.73889 0.62517 0.0
C2693 C 0.63428 0.67985 0.62646 0.0
C2694 C 0.62615 0.83894 0.62372 0.0
C2695 C 0.63394 0.86714 0.63803 0.0
C2696 C 0.61988 0.87115 0.60906 0.0
C2697 C 0.61245 0.84341 0.59298 0.0
C2698 C 0.62061 0.80131 0.58306 0.0
C2699 C 0.61366 0.77581 0.56778 0.0
C2700 C 0.59858 0.79233 0.5622 0.0
C2701 C 0.59043 0.83445 0.57188 0.0
C2702 C 0.59733 0.86002 0.58719 0.0
C2703 C 0.64734 0.10484 0.61772 0.0
C2704 C 0.63427 0.14118 0.61982 0.0
C2705 C 0.6456 0.0457 0.61935 0.0
C2706 C 0.63071 0.02188 0.62269 0.0
C2707 C 0.61761 0.05797 0.62461 0.0
C2708 C 0.61941 0.11729 0.62347 0.0
C2709 C 0.62883 0.95912 0.62375 0.0
C2710 C 0.62118 0.93093 0.60936 0.0
C2711 C 0.63528 0.92692 0.6383 0.0
C2712 C 0.64292 0.95463 0.65424 0.0
C2713 C 0.63478 0.99574 0.66458 0.0
C2714 C 0.64193 0.02103 0.67977 0.0
C2715 C 0.6572 0.00521 0.68485 0.0
C2716 C 0.66533 0.96402 0.67476 0.0
C2717 C 0.65824 0.93869 0.65953 0.0
H2718 H 0.66271 0.02472 0.69665 0.0
H2719 H 0.59322 0.77262 0.55034 0.0
loop_
_geom_bond_atom_site_label_1
_geom_bond_atom_site_label_2
_geom_bond_distance
_geom_bond_site_symmetry_2
_ccdc_geom_bond_type
Zn0 O6 1.969 . S
Zn0 O7 1.965 . S
Zn0 O11 2.024 . S
Zn0 O16 1.969 . S
Zn1 O8 1.969 . S
Zn1 O14 1.969 1_545 S
Zn1 O15 1.965 . S
Zn1 O17 2.024 . S
C2 O3 1.229 . S
C2 O11 1.058 . S
O3 C2 1.229 . S
C4 O5 1.229 1_545 S
C4 O17 1.058 . S
O5 C4 1.229 1_565 S
O6 Zn0 1.969 . S
O6 C9 1.267 . S
O7 Zn0 1.965 . S
O7 C18 1.260 . S
O8 Zn1 1.969 . S
O8 C18 1.258 . S
C9 O6 1.267 . S
C9 O10 1.228 . S
O10 C9 1.228 . S
O11 Zn0 2.024 . S
O11 C2 1.058 . S
C12 O13 1.228 . S
C12 O14 1.267 . S
O13 C12 1.228 . S
O14 Zn1 1.969 1_565 S
O14 C12 1.267 . S
O15 Zn1 1.965 . S
O15 C19 1.260 . S
O16 Zn0 1.969 . S
O16 C19 1.258 . S
O17 Zn1 2.024 . S
O17 C4 1.058 . S
C18 O7 1.260 . S
C18 O8 1.258 . S
C19 O15 1.260 . S
C19 O16 1.258 . S
Zn20 O26 1.969 . S
Zn20 O27 1.965 . S
Zn20 O31 2.024 . S
Zn20 O36 1.969 . S
Zn21 O28 1.969 . S
Zn21 O34 1.969 1_565 S
Zn21 O35 1.965 . S
Zn21 O37 2.024 . S
C22 O23 1.229 . S
C22 O31 1.058 . S
O23 C22 1.229 . S
C24 O25 1.229 1_565 S
C24 O37 1.058 . S
O25 C24 1.229 1_545 S
O26 Zn20 1.969 . S
O26 C29 1.267 . S
O27 Zn20 1.965 . S
O27 C38 1.260 . S
O28 Zn21 1.969 . S
O28 C38 1.258 . S
C29 O26 1.267 . S
C29 O30 1.228 . S
O30 C29 1.228 . S
O31 Zn20 2.024 . S
O31 C22 1.058 . S
C32 O33 1.228 . S
C32 O34 1.267 . S
O33 C32 1.228 . S
O34 Zn21 1.969 1_545 S
O34 C32 1.267 . S
O35 Zn21 1.965 . S
O35 C39 1.260 . S
O36 Zn20 1.969 . S
O36 C39 1.258 . S
O37 Zn21 2.024 . S
O37 C24 1.058 . S
C38 O27 1.260 . S
C38 O28 1.258 . S
C39 O35 1.260 . S
C39 O36 1.258 . S
Zn40 O46 1.969 . S
Zn40 O47 1.965 . S
Zn40 O51 2.024 . S
Zn40 O56 1.969 . S
Zn41 O48 1.969 . S
Zn41 O54 1.969 1_565 S
Zn41 O55 1.965 . S
Zn41 O57 2.024 . S
C42 O43 1.229 . S
C42 O51 1.058 . S
O43 C42 1.229 . S
C44 O45 1.229 1_565 S
C44 O57 1.058 . S
O45 C44 1.229 1_545 S
O46 Zn40 1.969 . S
O46 C49 1.267 . S
O47 Zn40 1.965 . S
O47 C58 1.260 . S
O48 Zn41 1.969 . S
O48 C58 1.258 . S
C49 O46 1.267 . S
C49 O50 1.228 . S
O50 C49 1.228 . S
O51 Zn40 2.024 . S
O51 C42 1.058 . S
C52 O53 1.228 . S
C52 O54 1.267 . S
O53 C52 1.228 . S
O54 Zn41 1.969 1_545 S
O54 C52 1.267 . S
O55 Zn41 1.965 . S
O55 C59 1.260 . S
O56 Zn40 1.969 . S
O56 C59 1.258 . S
O57 Zn41 2.024 . S
O57 C44 1.058 . S
C58 O47 1.260 . S
C58 O48 1.258 . S
C59 O55 1.260 . S
C59 O56 1.258 . S
Zn60 O66 1.969 . S
Zn60 O67 1.965 . S
Zn60 O71 2.024 . S
Zn60 O76 1.969 . S
Zn61 O68 1.969 . S
Zn61 O74 1.969 1_545 S
Zn61 O75 1.965 . S
Zn61 O77 2.024 . S
C62 O63 1.229 . S
C62 O71 1.058 . S
O63 C62 1.229 . S
C64 O65 1.229 1_545 S
C64 O77 1.058 . S
O65 C64 1.229 1_565 S
O66 Zn60 1.969 . S
O66 C69 1.267 . S
O67 Zn60 1.965 . S
O67 C78 1.260 . S
O68 Zn61 1.969 . S
O68 C78 1.258 . S
C69 O66 1.267 . S
C69 O70 1.228 . S
O70 C69 1.228 . S
O71 Zn60 2.024 . S
O71 C62 1.058 . S
C72 O73 1.228 . S
C72 O74 1.267 . S
O73 C72 1.228 . S
O74 Zn61 1.969 1_565 S
O74 C72 1.267 . S
O75 Zn61 1.965 . S
O75 C79 1.260 . S
O76 Zn60 1.969 . S
O76 C79 1.258 . S
O77 Zn61 2.024 . S
O77 C64 1.058 . S
C78 O67 1.260 . S
C78 O68 1.258 . S
C79 O75 1.260 . S
C79 O76 1.258 . S
Zn80 O86 1.969 1_565 S
Zn80 O87 1.965 . S
Zn80 O91 2.024 . S
Zn80 O96 1.969 . S
Zn81 O88 1.969 . S
Zn81 O94 1.969 . S
Zn81 O95 1.965 . S
Zn81 O97 2.024 . S
C82 O83 1.229 1_565 S
C82 O91 1.058 . S
O83 C82 1.229 1_545 S
C84 O85 1.229 . S
C84 O97 1.058 . S
O85 C84 1.229 . S
O86 Zn80 1.969 1_545 S
O86 C89 1.267 . S
O87 Zn80 1.965 . S
O87 C98 1.260 . S
O88 Zn81 1.969 . S
O88 C98 1.258 . S
C89 O86 1.267 . S
C89 O90 1.228 . S
O90 C89 1.228 . S
O91 Zn80 2.024 . S
O91 C82 1.058 . S
C92 O93 1.228 . S
C92 O94 1.267 . S
O93 C92 1.228 . S
O94 Zn81 1.969 . S
O94 C92 1.267 . S
O95 Zn81 1.965 . S
O95 C99 1.260 . S
O96 Zn80 1.969 . S
O96 C99 1.258 . S
O97 Zn81 2.024 . S
O97 C84 1.058 . S
C98 O87 1.260 . S
C98 O88 1.258 . S
C99 O95 1.260 . S
C99 O96 1.258 . S
Zn100 O106 1.969 1_545 S
Zn100 O107 1.965 . S
Zn100 O111 2.024 . S
Zn100 O116 1.969 . S
Zn101 O108 1.969 . S
Zn101 O114 1.969 . S
Zn101 O115 1.965 . S
Zn101 O117 2.024 . S
C102 O103 1.229 1_545 S
C102 O111 1.058 . S
O103 C102 1.229 1_565 S
C104 O105 1.229 . S
C104 O117 1.058 . S
O105 C104 1.229 . S
O106 Zn100 1.969 1_565 S
O106 C109 1.267 . S
O107 Zn100 1.965 . S
O107 C118 1.260 . S
O108 Zn101 1.969 . S
O108 C118 1.258 . S
C109 O106 1.267 . S
C109 O110 1.228 . S
O110 C109 1.228 . S
O111 Zn100 2.024 . S
O111 C102 1.058 . S
C112 O113 1.228 . S
C112 O114 1.267 . S
O113 C112 1.228 . S
O114 Zn101 1.969 . S
O114 C112 1.267 . S
O115 Zn101 1.965 . S
O115 C119 1.260 . S
O116 Zn100 1.969 . S
O116 C119 1.258 . S
O117 Zn101 2.024 . S
O117 C104 1.058 . S
C118 O107 1.260 . S
C118 O108 1.258 . S
C119 O115 1.260 . S
C119 O116 1.258 . S
Zn120 O126 1.969 1_545 S
Zn120 O127 1.965 . S
Zn120 O131 2.024 . S
Zn120 O136 1.969 . S
Zn121 O128 1.969 . S
Zn121 O134 1.969 . S
Zn121 O135 1.965 . S
Zn121 O137 2.024 . S
C122 O123 1.229 1_545 S
C122 O131 1.058 . S
O123 C122 1.229 1_565 S
C124 O125 1.229 . S
C124 O137 1.058 . S
O125 C124 1.229 . S
O126 Zn120 1.969 1_565 S
O126 C129 1.267 . S
O127 Zn120 1.965 . S
O127 C138 1.260 . S
O128 Zn121 1.969 . S
O128 C138 1.258 . S
C129 O126 1.267 . S
C129 O130 1.228 . S
O130 C129 1.228 . S
O131 Zn120 2.024 . S
O131 C122 1.058 . S
C132 O133 1.228 . S
C132 O134 1.267 . S
O133 C132 1.228 . S
O134 Zn121 1.969 . S
O134 C132 1.267 . S
O135 Zn121 1.965 . S
O135 C139 1.260 . S
O136 Zn120 1.969 . S
O136 C139 1.258 . S
O137 Zn121 2.024 . S
O137 C124 1.058 . S
C138 O127 1.260 . S
C138 O128 1.258 . S
C139 O135 1.260 . S
C139 O136 1.258 . S
Zn140 O146 1.969 1_565 S
Zn140 O147 1.965 . S
Zn140 O151 2.024 . S
Zn140 O156 1.969 . S
Zn141 O148 1.969 . S
Zn141 O154 1.969 . S
Zn141 O155 1.965 . S
Zn141 O157 2.024 . S
C142 O143 1.229 1_565 S
C142 O151 1.058 . S
O143 C142 1.229 1_545 S
C144 O145 1.229 . S
C144 O157 1.058 . S
O145 C144 1.229 . S
O146 Zn140 1.969 1_545 S
O146 C149 1.267 . S
O147 Zn140 1.965 . S
O147 C158 1.260 . S
O148 Zn141 1.969 . S
O148 C158 1.258 . S
C149 O146 1.267 . S
C149 O150 1.228 . S
O150 C149 1.228 . S
O151 Zn140 2.024 . S
O151 C142 1.058 . S
C152 O153 1.228 . S
C152 O154 1.267 . S
O153 C152 1.228 . S
O154 Zn141 1.969 . S
O154 C152 1.267 . S
O155 Zn141 1.965 . S
O155 C159 1.260 . S
O156 Zn140 1.969 . S
O156 C159 1.258 . S
O157 Zn141 2.024 . S
O157 C144 1.058 . S
C158 O147 1.260 . S
C158 O148 1.258 . S
C159 O155 1.260 . S
C159 O156 1.258 . S
Zn160 O166 1.969 . S
Zn160 O167 1.965 . S
Zn160 O171 2.024 . S
Zn160 O176 1.969 . S
Zn161 O168 1.969 . S
Zn161 O174 1.969 . S
Zn161 O175 1.965 . S
Zn161 O177 2.024 . S
C162 O163 1.229 . S
C162 O171 1.058 . S
O163 C162 1.229 . S
C164 O165 1.229 . S
C164 O177 1.058 . S
O165 C164 1.229 . S
O166 Zn160 1.969 . S
O166 C169 1.267 . S
O167 Zn160 1.965 . S
O167 C178 1.260 . S
O168 Zn161 1.969 . S
O168 C178 1.258 . S
C169 O166 1.267 . S
C169 O170 1.228 . S
O170 C169 1.228 . S
O171 Zn160 2.024 . S
O171 C162 1.058 . S
C172 O173 1.228 . S
C172 O174 1.267 . S
O173 C172 1.228 . S
O174 Zn161 1.969 . S
O174 C172 1.267 . S
O175 Zn161 1.965 . S
O175 C179 1.260 . S
O176 Zn160 1.969 . S
O176 C179 1.258 . S
O177 Zn161 2.024 . S
O177 C164 1.058 . S
C178 O167 1.260 . S
C178 O168 1.258 . S
C179 O175 1.260 . S
C179 O176 1.258 . S
Zn180 O186 1.969 . S
Zn180 O187 1.965 . S
Zn180 O191 2.024 . S
Zn180 O196 1.969 . S
Zn181 O188 1.969 . S
Zn181 O194 1.969 . S
Zn181 O195 1.965 . S
Zn181 O197 2.024 . S
C182 O183 1.229 . S
C182 O191 1.058 . S
O183 C182 1.229 . S
C184 O185 1.229 . S
C184 O197 1.058 . S
O185 C184 1.229 . S
O186 Zn180 1.969 . S
O186 C189 1.267 . S
O187 Zn180 1.965 . S
O187 C198 1.260 . S
O188 Zn181 1.969 . S
O188 C198 1.258 . S
C189 O186 1.267 . S
C189 O190 1.228 . S
O190 C189 1.228 . S
O191 Zn180 2.024 . S
O191 C182 1.058 . S
C192 O193 1.228 . S
C192 O194 1.267 . S
O193 C192 1.228 . S
O194 Zn181 1.969 . S
O194 C192 1.267 . S
O195 Zn181 1.965 . S
O195 C199 1.260 . S
O196 Zn180 1.969 . S
O196 C199 1.258 . S
O197 Zn181 2.024 . S
O197 C184 1.058 . S
C198 O187 1.260 . S
C198 O188 1.258 . S
C199 O195 1.260 . S
C199 O196 1.258 . S
Zn200 O206 1.969 . S
Zn200 O207 1.965 . S
Zn200 O211 2.024 . S
Zn200 O216 1.969 . S
Zn201 O208 1.969 . S
Zn201 O214 1.969 . S
Zn201 O215 1.965 . S
Zn201 O217 2.024 . S
C202 O203 1.229 . S
C202 O211 1.058 . S
O203 C202 1.229 . S
C204 O205 1.229 . S
C204 O217 1.058 . S
O205 C204 1.229 . S
O206 Zn200 1.969 . S
O206 C209 1.267 . S
O207 Zn200 1.965 . S
O207 C218 1.260 . S
O208 Zn201 1.969 . S
O208 C218 1.258 . S
C209 O206 1.267 . S
C209 O210 1.228 . S
O210 C209 1.228 . S
O211 Zn200 2.024 . S
O211 C202 1.058 . S
C212 O213 1.228 . S
C212 O214 1.267 . S
O213 C212 1.228 . S
O214 Zn201 1.969 . S
O214 C212 1.267 . S
O215 Zn201 1.965 . S
O215 C219 1.260 . S
O216 Zn200 1.969 . S
O216 C219 1.258 . S
O217 Zn201 2.024 . S
O217 C204 1.058 . S
C218 O207 1.260 . S
C218 O208 1.258 . S
C219 O215 1.260 . S
C219 O216 1.258 . S
Zn220 O226 1.969 . S
Zn220 O227 1.965 . S
Zn220 O231 2.024 . S
Zn220 O236 1.969 . S
Zn221 O228 1.969 . S
Zn221 O234 1.969 . S
Zn221 O235 1.965 . S
Zn221 O237 2.024 . S
C222 O223 1.229 . S
C222 O231 1.058 . S
O223 C222 1.229 . S
C224 O225 1.229 . S
C224 O237 1.058 . S
O225 C224 1.229 . S
O226 Zn220 1.969 . S
O226 C229 1.267 . S
O227 Zn220 1.965 . S
O227 C238 1.260 . S
O228 Zn221 1.969 . S
O228 C238 1.258 . S
C229 O226 1.267 . S
C229 O230 1.228 . S
O230 C229 1.228 . S
O231 Zn220 2.024 . S
O231 C222 1.058 . S
C232 O233 1.228 . S
C232 O234 1.267 . S
O233 C232 1.228 . S
O234 Zn221 1.969 . S
O234 C232 1.267 . S
O235 Zn221 1.965 . S
O235 C239 1.260 . S
O236 Zn220 1.969 . S
O236 C239 1.258 . S
O237 Zn221 2.024 . S
O237 C224 1.058 . S
C238 O227 1.260 . S
C238 O228 1.258 . S
C239 O235 1.260 . S
C239 O236 1.258 . S
Zn240 O246 1.969 . S
Zn240 O247 1.965 . S
Zn240 O251 2.024 . S
Zn240 O256 1.969 . S
Zn241 O248 1.969 . S
Zn241 O254 1.969 . S
Zn241 O255 1.965 . S
Zn241 O257 2.024 . S
C242 O243 1.229 . S
C242 O251 1.058 . S
O243 C242 1.229 . S
C244 O245 1.229 . S
C244 O257 1.058 . S
O245 C244 1.229 . S
O246 Zn240 1.969 . S
O246 C249 1.267 . S
O247 Zn240 1.965 . S
O247 C258 1.260 . S
O248 Zn241 1.969 . S
O248 C258 1.258 . S
C249 O246 1.267 . S
C249 O250 1.228 . S
O250 C249 1.228 . S
O251 Zn240 2.024 . S
O251 C242 1.058 . S
C252 O253 1.228 . S
C252 O254 1.267 . S
O253 C252 1.228 . S
O254 Zn241 1.969 . S
O254 C252 1.267 . S
O255 Zn241 1.965 . S
O255 C259 1.260 . S
O256 Zn240 1.969 . S
O256 C259 1.258 . S
O257 Zn241 2.024 . S
O257 C244 1.058 . S
C258 O247 1.260 . S
C258 O248 1.258 . S
C259 O255 1.260 . S
C259 O256 1.258 . S
Zn260 O266 1.969 . S
Zn260 O267 1.965 . S
Zn260 O271 2.024 . S
Zn260 O276 1.969 . S
Zn261 O268 1.969 . S
Zn261 O274 1.969 . S
Zn261 O275 1.965 . S
Zn261 O277 2.024 . S
C262 O263 1.229 . S
C262 O271 1.058 . S
O263 C262 1.229 . S
C264 O265 1.229 . S
C264 O277 1.058 . S
O265 C264 1.229 . S
O266 Zn260 1.969 . S
O266 C269 1.267 . S
O267 Zn260 1.965 . S
O267 C278 1.260 . S
O268 Zn261 1.969 . S
O268 C278 1.258 . S
C269 O266 1.267 . S
C269 O270 1.228 . S
O270 C269 1.228 . S
O271 Zn260 2.024 . S
O271 C262 1.058 . S
C272 O273 1.228 . S
C272 O274 1.267 . S
O273 C272 1.228 . S
O274 Zn261 1.969 . S
O274 C272 1.267 . S
O275 Zn261 1.965 . S
O275 C279 1.260 . S
O276 Zn260 1.969 . S
O276 C279 1.258 . S
O277 Zn261 2.024 . S
O277 C264 1.058 . S
C278 O267 1.260 . S
C278 O268 1.258 . S
C279 O275 1.260 . S
C279 O276 1.258 . S
Zn280 O286 1.969 . S
Zn280 O287 1.965 . S
Zn280 O291 2.024 . S
Zn280 O296 1.969 . S
Zn281 O288 1.969 . S
Zn281 O294 1.969 . S
Zn281 O295 1.965 . S
Zn281 O297 2.024 . S
C282 O283 1.229 . S
C282 O291 1.058 . S
O283 C282 1.229 . S
C284 O285 1.229 . S
C284 O297 1.058 . S
O285 C284 1.229 . S
O286 Zn280 1.969 . S
O286 C289 1.267 . S
O287 Zn280 1.965 . S
O287 C298 1.260 . S
O288 Zn281 1.969 . S
O288 C298 1.258 . S
C289 O286 1.267 . S
C289 O290 1.228 . S
O290 C289 1.228 . S
O291 Zn280 2.024 . S
O291 C282 1.058 . S
C292 O293 1.228 . S
C292 O294 1.267 . S
O293 C292 1.228 . S
O294 Zn281 1.969 . S
O294 C292 1.267 . S
O295 Zn281 1.965 . S
O295 C299 1.260 . S
O296 Zn280 1.969 . S
O296 C299 1.258 . S
O297 Zn281 2.024 . S
O297 C284 1.058 . S
C298 O287 1.260 . S
C298 O288 1.258 . S
C299 O295 1.260 . S
C299 O296 1.258 . S
Zn300 O306 1.969 . S
Zn300 O307 1.965 . S
Zn300 O311 2.024 . S
Zn300 O316 1.969 . S
Zn301 O308 1.969 . S
Zn301 O314 1.969 . S
Zn301 O315 1.965 . S
Zn301 O317 2.024 . S
C302 O303 1.229 . S
C302 O311 1.058 . S
O303 C302 1.229 . S
C304 O305 1.229 . S
C304 O317 1.058 . S
O305 C304 1.229 . S
O306 Zn300 1.969 . S
O306 C309 1.267 . S
O307 Zn300 1.965 . S
O307 C318 1.260 . S
O308 Zn301 1.969 . S
O308 C318 1.258 . S
C309 O306 1.267 . S
C309 O310 1.228 . S
O310 C309 1.228 . S
O311 Zn300 2.024 . S
O311 C302 1.058 . S
C312 O313 1.228 . S
C312 O314 1.267 . S
O313 C312 1.228 . S
O314 Zn301 1.969 . S
O314 C312 1.267 . S
O315 Zn301 1.965 . S
O315 C319 1.260 . S
O316 Zn300 1.969 . S
O316 C319 1.258 . S
O317 Zn301 2.024 . S
O317 C304 1.058 . S
C318 O307 1.260 . S
C318 O308 1.258 . S
C319 O315 1.260 . S
C319 O316 1.258 . S
H320 C338 0.951 . S
H321 C340 0.951 . S
H322 C342 0.950 . S
H323 C343 0.950 . S
H324 C345 0.950 . S
H325 C348 0.950 . S
H326 C349 0.950 . S
H327 C351 0.950 . S
H328 C352 0.950 . S
H329 C353 0.951 . S
H330 C355 0.951 . S
H331 C357 0.950 . S
H332 C358 0.950 . S
H333 C360 0.950 . S
H334 C363 0.950 . S
H335 C364 0.950 . S
H336 C366 0.950 . S
H337 C367 0.950 . S
C338 H320 0.951 . S
C338 C339 1.366 . S
C338 C340 1.388 . S
C339 C338 1.366 . S
C339 C343 1.385 . S
C340 H321 0.951 . S
C340 C338 1.388 . S
C340 C341 1.366 . S
C341 C340 1.366 . S
C341 C342 1.414 . S
C341 C344 1.499 . S
C342 H322 0.950 . S
C342 C341 1.414 . S
C342 C343 1.374 . S
C343 H323 0.950 . S
C343 C339 1.385 . S
C343 C342 1.374 . S
C344 C341 1.499 . S
C344 C345 1.373 . S
C344 C346 1.389 . S
C345 H324 0.950 . S
C345 C344 1.373 . S
C345 C361 1.377 . S
C346 C344 1.389 . S
C346 C347 1.524 . S
C346 C360 1.377 . S
C347 C346 1.524 . S
C347 C348 1.397 . S
C347 C352 1.363 . S
C348 H325 0.950 . S
C348 C347 1.397 . S
C348 C349 1.334 . S
C349 H326 0.950 . S
C349 C348 1.334 . S
C349 C350 1.287 . S
C350 C349 1.287 . S
C350 C351 1.524 . S
C350 H369 0.913 . S
C351 H327 0.950 . S
C351 C350 1.524 . S
C351 C352 1.415 . S
C352 H328 0.950 . S
C352 C347 1.363 . S
C352 C351 1.415 . S
C353 H329 0.951 . S
C353 C354 1.366 . S
C353 C355 1.388 . S
C354 C353 1.366 . S
C354 C358 1.385 . S
C355 H330 0.951 . S
C355 C353 1.388 . S
C355 C356 1.366 . S
C356 C355 1.366 . S
C356 C357 1.414 . S
C356 C359 1.499 . S
C357 H331 0.950 . S
C357 C356 1.414 . S
C357 C358 1.374 . S
C358 H332 0.950 . S
C358 C354 1.385 . S
C358 C357 1.374 . S
C359 C356 1.499 . S
C359 C360 1.373 . S
C359 C361 1.389 . S
C360 H333 0.950 . S
C360 C346 1.377 . S
C360 C359 1.373 . S
C361 C345 1.377 . S
C361 C359 1.389 . S
C361 C362 1.524 . S
C362 C361 1.524 . S
C362 C363 1.397 . S
C362 C367 1.363 . S
C363 H334 0.950 . S
C363 C362 1.397 . S
C363 C364 1.334 . S
C364 H335 0.950 . S
C364 C363 1.334 . S
C364 C365 1.287 . S
C365 C364 1.287 . S
C365 C366 1.524 . S
C365 H368 0.999 . S
C366 H336 0.950 . S
C366 C365 1.524 . S
C366 C367 1.415 . S
C367 H337 0.950 . S
C367 C362 1.363 . S
C367 C366 1.415 . S
H368 C365 0.999 . S
H369 C350 0.913 . S
H370 C388 0.951 . S
H371 C390 0.951 . S
H372 C392 0.950 . S
H373 C393 0.950 . S
H374 C395 0.950 . S
H375 C398 0.950 . S
H376 C399 0.950 . S
H377 C401 0.950 . S
H378 C402 0.950 . S
H379 C403 0.951 . S
H380 C405 0.951 . S
H381 C407 0.950 . S
H382 C408 0.950 . S
H383 C410 0.950 . S
H384 C413 0.950 . S
H385 C414 0.950 . S
H386 C416 0.950 . S
H387 C417 0.950 . S
C388 H370 0.951 . S
C388 C389 1.366 . S
C388 C390 1.388 . S
C389 C388 1.366 . S
C389 C393 1.385 . S
C390 H371 0.951 . S
C390 C388 1.388 . S
C390 C391 1.366 . S
C391 C390 1.366 . S
C391 C392 1.414 . S
C391 C394 1.499 . S
C392 H372 0.950 . S
C392 C391 1.414 . S
C392 C393 1.374 . S
C393 H373 0.950 . S
C393 C389 1.385 . S
C393 C392 1.374 . S
C394 C391 1.499 . S
C394 C395 1.373 . S
C394 C396 1.389 . S
C395 H374 0.950 . S
C395 C394 1.373 . S
C395 C411 1.377 . S
C396 C394 1.389 . S
C396 C397 1.524 . S
C396 C410 1.377 . S
C397 C396 1.524 . S
C397 C398 1.397 . S
C397 C402 1.363 . S
C398 H375 0.950 . S
C398 C397 1.397 . S
C398 C399 1.334 . S
C399 H376 0.950 . S
C399 C398 1.334 . S
C399 C400 1.287 . S
C400 C399 1.287 . S
C400 C401 1.524 . S
C400 H419 0.913 . S
C401 H377 0.950 . S
C401 C400 1.524 . S
C401 C402 1.415 . S
C402 H378 0.950 . S
C402 C397 1.363 . S
C402 C401 1.415 . S
C403 H379 0.951 . S
C403 C404 1.366 . S
C403 C405 1.388 . S
C404 C403 1.366 . S
C404 C408 1.385 . S
C405 H380 0.951 . S
C405 C403 1.388 . S
C405 C406 1.366 . S
C406 C405 1.366 . S
C406 C407 1.414 . S
C406 C409 1.499 . S
C407 H381 0.950 . S
C407 C406 1.414 . S
C407 C408 1.374 . S
C408 H382 0.950 . S
C408 C404 1.385 . S
C408 C407 1.374 . S
C409 C406 1.499 . S
C409 C410 1.373 . S
C409 C411 1.389 . S
C410 H383 0.950 . S
C410 C396 1.377 . S
C410 C409 1.373 . S
C411 C395 1.377 . S
C411 C409 1.389 . S
C411 C412 1.524 . S
C412 C411 1.524 . S
C412 C413 1.397 . S
C412 C417 1.363 . S
C413 H384 0.950 . S
C413 C412 1.397 . S
C413 C414 1.334 . S
C414 H385 0.950 . S
C414 C413 1.334 . S
C414 C415 1.287 . S
C415 C414 1.287 . S
C415 C416 1.524 . S
C415 H418 0.999 . S
C416 H386 0.950 . S
C416 C415 1.524 . S
C416 C417 1.415 . S
C417 H387 0.950 . S
C417 C412 1.363 . S
C417 C416 1.415 . S
H418 C415 0.999 . S
H419 C400 0.913 . S
H420 C438 0.951 . S
H421 C440 0.951 . S
H422 C442 0.950 . S
H423 C443 0.950 . S
H424 C445 0.950 . S
H425 C448 0.950 . S
H426 C449 0.950 . S
H427 C451 0.950 . S
H428 C452 0.950 . S
H429 C453 0.951 . S
H430 C455 0.951 . S
H431 C457 0.950 . S
H432 C458 0.950 . S
H433 C460 0.950 . S
H434 C463 0.950 . S
H435 C464 0.950 . S
H436 C466 0.950 . S
H437 C467 0.950 . S
C438 H420 0.951 . S
C438 C439 1.366 . S
C438 C440 1.388 . S
C439 C438 1.366 . S
C439 C443 1.385 . S
C440 H421 0.951 . S
C440 C438 1.388 . S
C440 C441 1.366 . S
C441 C440 1.366 . S
C441 C442 1.414 . S
C441 C444 1.499 . S
C442 H422 0.950 . S
C442 C441 1.414 . S
C442 C443 1.374 . S
C443 H423 0.950 . S
C443 C439 1.385 . S
C443 C442 1.374 . S
C444 C441 1.499 . S
C444 C445 1.373 . S
C444 C446 1.389 . S
C445 H424 0.950 . S
C445 C444 1.373 . S
C445 C461 1.377 . S
C446 C444 1.389 . S
C446 C447 1.524 . S
C446 C460 1.377 . S
C447 C446 1.524 . S
C447 C448 1.397 . S
C447 C452 1.363 . S
C448 H425 0.950 . S
C448 C447 1.397 . S
C448 C449 1.334 . S
C449 H426 0.950 . S
C449 C448 1.334 . S
C449 C450 1.287 . S
C450 C449 1.287 . S
C450 C451 1.524 . S
C450 H469 0.913 . S
C451 H427 0.950 . S
C451 C450 1.524 . S
C451 C452 1.415 . S
C452 H428 0.950 . S
C452 C447 1.363 . S
C452 C451 1.415 . S
C453 H429 0.951 . S
C453 C454 1.366 . S
C453 C455 1.388 . S
C454 C453 1.366 . S
C454 C458 1.385 . S
C455 H430 0.951 . S
C455 C453 1.388 . S
C455 C456 1.366 . S
C456 C455 1.366 . S
C456 C457 1.414 . S
C456 C459 1.499 . S
C457 H431 0.950 . S
C457 C456 1.414 . S
C457 C458 1.374 . S
C458 H432 0.950 . S
C458 C454 1.385 . S
C458 C457 1.374 . S
C459 C456 1.499 . S
C459 C460 1.373 . S
C459 C461 1.389 . S
C460 H433 0.950 . S
C460 C446 1.377 . S
C460 C459 1.373 . S
C461 C445 1.377 . S
C461 C459 1.389 . S
C461 C462 1.524 . S
C462 C461 1.524 . S
C462 C463 1.397 . S
C462 C467 1.363 . S
C463 H434 0.950 . S
C463 C462 1.397 . S
C463 C464 1.334 . S
C464 H435 0.950 . S
C464 C463 1.334 . S
C464 C465 1.287 . S
C465 C464 1.287 . S
C465 C466 1.524 . S
C465 H468 0.999 . S
C466 H436 0.950 . S
C466 C465 1.524 . S
C466 C467 1.415 . S
C467 H437 0.950 . S
C467 C462 1.363 . S
C467 C466 1.415 . S
H468 C465 0.999 . S
H469 C450 0.913 . S
H470 C488 0.951 . S
H471 C490 0.951 . S
H472 C492 0.950 . S
H473 C493 0.950 . S
H474 C495 0.950 . S
H475 C498 0.950 . S
H476 C499 0.950 . S
H477 C501 0.950 . S
H478 C502 0.950 . S
H479 C503 0.951 . S
H480 C505 0.951 . S
H481 C507 0.950 . S
H482 C508 0.950 . S
H483 C510 0.950 . S
H484 C513 0.950 . S
H485 C514 0.950 . S
H486 C516 0.950 . S
H487 C517 0.950 . S
C488 H470 0.951 . S
C488 C489 1.366 . S
C488 C490 1.388 . S
C489 C488 1.366 . S
C489 C493 1.385 . S
C490 H471 0.951 . S
C490 C488 1.388 . S
C490 C491 1.366 . S
C491 C490 1.366 . S
C491 C492 1.414 . S
C491 C494 1.499 . S
C492 H472 0.950 . S
C492 C491 1.414 . S
C492 C493 1.374 . S
C493 H473 0.950 . S
C493 C489 1.385 . S
C493 C492 1.374 . S
C494 C491 1.499 . S
C494 C495 1.373 . S
C494 C496 1.389 . S
C495 H474 0.950 . S
C495 C494 1.373 . S
C495 C511 1.377 . S
C496 C494 1.389 . S
C496 C497 1.524 . S
C496 C510 1.377 . S
C497 C496 1.524 . S
C497 C498 1.397 . S
C497 C502 1.363 . S
C498 H475 0.950 . S
C498 C497 1.397 . S
C498 C499 1.334 . S
C499 H476 0.950 . S
C499 C498 1.334 . S
C499 C500 1.287 . S
C500 C499 1.287 . S
C500 C501 1.524 . S
C500 H519 0.913 . S
C501 H477 0.950 . S
C501 C500 1.524 . S
C501 C502 1.415 . S
C502 H478 0.950 . S
C502 C497 1.363 . S
C502 C501 1.415 . S
C503 H479 0.951 . S
C503 C504 1.366 . S
C503 C505 1.388 . S
C504 C503 1.366 . S
C504 C508 1.385 . S
C505 H480 0.951 . S
C505 C503 1.388 . S
C505 C506 1.366 . S
C506 C505 1.366 . S
C506 C507 1.414 . S
C506 C509 1.499 . S
C507 H481 0.950 . S
C507 C506 1.414 . S
C507 C508 1.374 . S
C508 H482 0.950 . S
C508 C504 1.385 . S
C508 C507 1.374 . S
C509 C506 1.499 . S
C509 C510 1.373 . S
C509 C511 1.389 . S
C510 H483 0.950 . S
C510 C496 1.377 . S
C510 C509 1.373 . S
C511 C495 1.377 . S
C511 C509 1.389 . S
C511 C512 1.524 . S
C512 C511 1.524 . S
C512 C513 1.397 . S
C512 C517 1.363 . S
C513 H484 0.950 . S
C513 C512 1.397 . S
C513 C514 1.334 . S
C514 H485 0.950 . S
C514 C513 1.334 . S
C514 C515 1.287 . S
C515 C514 1.287 . S
C515 C516 1.524 . S
C515 H518 0.999 . S
C516 H486 0.950 . S
C516 C515 1.524 . S
C516 C517 1.415 . S
C517 H487 0.950 . S
C517 C512 1.363 . S
C517 C516 1.415 . S
H518 C515 0.999 . S
H519 C500 0.913 . S
H520 C538 0.951 . S
H521 C540 0.951 . S
H522 C542 0.950 . S
H523 C543 0.950 . S
H524 C545 0.950 . S
H525 C548 0.950 . S
H526 C549 0.950 . S
H527 C551 0.950 . S
H528 C552 0.950 . S
H529 C553 0.951 . S
H530 C555 0.951 . S
H531 C557 0.950 . S
H532 C558 0.950 . S
H533 C560 0.950 . S
H534 C563 0.950 . S
H535 C564 0.950 . S
H536 C566 0.950 . S
H537 C567 0.950 . S
C538 H520 0.951 . S
C538 C539 1.366 . S
C538 C540 1.388 . S
C539 C538 1.366 . S
C539 C543 1.385 . S
C540 H521 0.951 . S
C540 C538 1.388 . S
C540 C541 1.366 . S
C541 C540 1.366 . S
C541 C542 1.414 . S
C541 C544 1.499 . S
C542 H522 0.950 . S
C542 C541 1.414 . S
C542 C543 1.374 . S
C543 H523 0.950 . S
C543 C539 1.385 . S
C543 C542 1.374 . S
C544 C541 1.499 . S
C544 C545 1.373 . S
C544 C546 1.389 . S
C545 H524 0.950 . S
C545 C544 1.373 . S
C545 C561 1.377 . S
C546 C544 1.389 . S
C546 C547 1.524 . S
C546 C560 1.377 . S
C547 C546 1.524 . S
C547 C548 1.397 . S
C547 C552 1.363 . S
C548 H525 0.950 . S
C548 C547 1.397 . S
C548 C549 1.334 . S
C549 H526 0.950 . S
C549 C548 1.334 . S
C549 C550 1.287 . S
C550 C549 1.287 . S
C550 C551 1.524 . S
C550 H569 0.913 . S
C551 H527 0.950 . S
C551 C550 1.524 . S
C551 C552 1.415 . S
C552 H528 0.950 . S
C552 C547 1.363 . S
C552 C551 1.415 . S
C553 H529 0.951 . S
C553 C554 1.366 . S
C553 C555 1.388 . S
C554 C553 1.366 . S
C554 C558 1.385 . S
C555 H530 0.951 . S
C555 C553 1.388 . S
C555 C556 1.366 . S
C556 C555 1.366 . S
C556 C557 1.414 . S
C556 C559 1.499 . S
C557 H531 0.950 . S
C557 C556 1.414 . S
C557 C558 1.374 . S
C558 H532 0.950 . S
C558 C554 1.385 . S
C558 C557 1.374 . S
C559 C556 1.499 . S
C559 C560 1.373 . S
C559 C561 1.389 . S
C560 H533 0.950 . S
C560 C546 1.377 . S
C560 C559 1.373 . S
C561 C545 1.377 . S
C561 C559 1.389 . S
C561 C562 1.524 . S
C562 C561 1.524 . S
C562 C563 1.397 . S
C562 C567 1.363 . S
C563 H534 0.950 . S
C563 C562 1.397 . S
C563 C564 1.334 . S
C564 H535 0.950 . S
C564 C563 1.334 . S
C564 C565 1.287 . S
C565 C564 1.287 . S
C565 C566 1.524 . S
C565 H568 0.999 . S
C566 H536 0.950 . S
C566 C565 1.524 . S
C566 C567 1.415 . S
C567 H537 0.950 . S
C567 C562 1.363 . S
C567 C566 1.415 . S
H568 C565 0.999 . S
H569 C550 0.913 . S
H570 C588 0.951 . S
H571 C590 0.951 . S
H572 C592 0.950 . S
H573 C593 0.950 . S
H574 C595 0.950 . S
H575 C598 0.950 . S
H576 C599 0.950 . S
H577 C601 0.950 . S
H578 C602 0.950 . S
H579 C603 0.951 . S
H580 C605 0.951 . S
H581 C607 0.950 . S
H582 C608 0.950 . S
H583 C610 0.950 . S
H584 C613 0.950 . S
H585 C614 0.950 . S
H586 C616 0.950 . S
H587 C617 0.950 . S
C588 H570 0.951 . S
C588 C589 1.366 . S
C588 C590 1.388 . S
C589 C588 1.366 . S
C589 C593 1.385 . S
C590 H571 0.951 . S
C590 C588 1.388 . S
C590 C591 1.366 . S
C591 C590 1.366 . S
C591 C592 1.414 . S
C591 C594 1.499 . S
C592 H572 0.950 . S
C592 C591 1.414 . S
C592 C593 1.374 . S
C593 H573 0.950 . S
C593 C589 1.385 . S
C593 C592 1.374 . S
C594 C591 1.499 . S
C594 C595 1.373 . S
C594 C596 1.389 . S
C595 H574 0.950 . S
C595 C594 1.373 . S
C595 C611 1.377 . S
C596 C594 1.389 . S
C596 C597 1.524 . S
C596 C610 1.377 . S
C597 C596 1.524 . S
C597 C598 1.397 . S
C597 C602 1.363 . S
C598 H575 0.950 . S
C598 C597 1.397 . S
C598 C599 1.334 . S
C599 H576 0.950 . S
C599 C598 1.334 . S
C599 C600 1.287 . S
C600 C599 1.287 . S
C600 C601 1.524 . S
C600 H619 0.913 . S
C601 H577 0.950 . S
C601 C600 1.524 . S
C601 C602 1.415 . S
C602 H578 0.950 . S
C602 C597 1.363 . S
C602 C601 1.415 . S
C603 H579 0.951 . S
C603 C604 1.366 . S
C603 C605 1.388 . S
C604 C603 1.366 . S
C604 C608 1.385 . S
C605 H580 0.951 . S
C605 C603 1.388 . S
C605 C606 1.366 . S
C606 C605 1.366 . S
C606 C607 1.414 . S
C606 C609 1.499 . S
C607 H581 0.950 . S
C607 C606 1.414 . S
C607 C608 1.374 . S
C608 H582 0.950 . S
C608 C604 1.385 . S
C608 C607 1.374 . S
C609 C606 1.499 . S
C609 C610 1.373 . S
C609 C611 1.389 . S
C610 H583 0.950 . S
C610 C596 1.377 . S
C610 C609 1.373 . S
C611 C595 1.377 . S
C611 C609 1.389 . S
C611 C612 1.524 . S
C612 C611 1.524 . S
C612 C613 1.397 . S
C612 C617 1.363 . S
C613 H584 0.950 . S
C613 C612 1.397 . S
C613 C614 1.334 . S
C614 H585 0.950 . S
C614 C613 1.334 . S
C614 C615 1.287 . S
C615 C614 1.287 . S
C615 C616 1.524 . S
C615 H618 0.999 . S
C616 H586 0.950 . S
C616 C615 1.524 . S
C616 C617 1.415 . S
C617 H587 0.950 . S
C617 C612 1.363 . S
C617 C616 1.415 . S
H618 C615 0.999 . S
H619 C600 0.913 . S
H620 C638 0.951 . S
H621 C640 0.951 . S
H622 C642 0.950 . S
H623 C643 0.950 . S
H624 C645 0.950 . S
H625 C648 0.950 . S
H626 C649 0.950 . S
H627 C651 0.950 . S
H628 C652 0.950 . S
H629 C653 0.951 . S
H630 C655 0.951 . S
H631 C657 0.950 . S
H632 C658 0.950 . S
H633 C660 0.950 . S
H634 C663 0.950 . S
H635 C664 0.950 . S
H636 C666 0.950 . S
H637 C667 0.950 . S
C638 H620 0.951 . S
C638 C639 1.366 . S
C638 C640 1.388 . S
C639 C638 1.366 . S
C639 C643 1.385 . S
C640 H621 0.951 . S
C640 C638 1.388 . S
C640 C641 1.366 . S
C641 C640 1.366 . S
C641 C642 1.414 . S
C641 C644 1.499 . S
C642 H622 0.950 . S
C642 C641 1.414 . S
C642 C643 1.374 . S
C643 H623 0.950 . S
C643 C639 1.385 . S
C643 C642 1.374 . S
C644 C641 1.499 . S
C644 C645 1.373 . S
C644 C646 1.389 . S
C645 H624 0.950 . S
C645 C644 1.373 . S
C645 C661 1.377 . S
C646 C644 1.389 . S
C646 C647 1.524 . S
C646 C660 1.377 . S
C647 C646 1.524 . S
C647 C648 1.397 . S
C647 C652 1.363 . S
C648 H625 0.950 . S
C648 C647 1.397 . S
C648 C649 1.334 . S
C649 H626 0.950 . S
C649 C648 1.334 . S
C649 C650 1.287 . S
C650 C649 1.287 . S
C650 C651 1.524 . S
C650 H669 0.913 . S
C651 H627 0.950 . S
C651 C650 1.524 . S
C651 C652 1.415 . S
C652 H628 0.950 . S
C652 C647 1.363 . S
C652 C651 1.415 . S
C653 H629 0.951 . S
C653 C654 1.366 . S
C653 C655 1.388 . S
C654 C653 1.366 . S
C654 C658 1.385 . S
C655 H630 0.951 . S
C655 C653 1.388 . S
C655 C656 1.366 . S
C656 C655 1.366 . S
C656 C657 1.414 . S
C656 C659 1.499 . S
C657 H631 0.950 . S
C657 C656 1.414 . S
C657 C658 1.374 . S
C658 H632 0.950 . S
C658 C654 1.385 . S
C658 C657 1.374 . S
C659 C656 1.499 . S
C659 C660 1.373 . S
C659 C661 1.389 . S
C660 H633 0.950 . S
C660 C646 1.377 . S
C660 C659 1.373 . S
C661 C645 1.377 . S
C661 C659 1.389 . S
C661 C662 1.524 . S
C662 C661 1.524 . S
C662 C663 1.397 . S
C662 C667 1.363 . S
C663 H634 0.950 . S
C663 C662 1.397 . S
C663 C664 1.334 . S
C664 H635 0.950 . S
C664 C663 1.334 . S
C664 C665 1.287 . S
C665 C664 1.287 . S
C665 C666 1.524 . S
C665 H668 0.999 . S
C666 H636 0.950 . S
C666 C665 1.524 . S
C666 C667 1.415 . S
C667 H637 0.950 . S
C667 C662 1.363 . S
C667 C666 1.415 . S
H668 C665 0.999 . S
H669 C650 0.913 . S
H670 C688 0.951 . S
H671 C690 0.951 . S
H672 C692 0.950 . S
H673 C693 0.950 . S
H674 C695 0.950 . S
H675 C698 0.950 . S
H676 C699 0.950 . S
H677 C701 0.950 . S
H678 C702 0.950 . S
H679 C703 0.951 . S
H680 C705 0.951 . S
H681 C707 0.950 . S
H682 C708 0.950 . S
H683 C710 0.950 . S
H684 C713 0.950 . S
H685 C714 0.950 . S
H686 C716 0.950 . S
H687 C717 0.950 . S
C688 H670 0.951 . S
C688 C689 1.366 . S
C688 C690 1.388 . S
C689 C688 1.366 . S
C689 C693 1.385 . S
C690 H671 0.951 . S
C690 C688 1.388 . S
C690 C691 1.366 . S
C691 C690 1.366 . S
C691 C692 1.414 . S
C691 C694 1.499 . S
C692 H672 0.950 . S
C692 C691 1.414 . S
C692 C693 1.374 . S
C693 H673 0.950 . S
C693 C689 1.385 . S
C693 C692 1.374 . S
C694 C691 1.499 . S
C694 C695 1.373 . S
C694 C696 1.389 . S
C695 H674 0.950 . S
C695 C694 1.373 . S
C695 C711 1.377 . S
C696 C694 1.389 . S
C696 C697 1.524 . S
C696 C710 1.377 . S
C697 C696 1.524 . S
C697 C698 1.397 . S
C697 C702 1.363 . S
C698 H675 0.950 . S
C698 C697 1.397 . S
C698 C699 1.334 . S
C699 H676 0.950 . S
C699 C698 1.334 . S
C699 C700 1.287 . S
C700 C699 1.287 . S
C700 C701 1.524 . S
C700 H719 0.913 . S
C701 H677 0.950 . S
C701 C700 1.524 . S
C701 C702 1.415 . S
C702 H678 0.950 . S
C702 C697 1.363 . S
C702 C701 1.415 . S
C703 H679 0.951 . S
C703 C704 1.366 . S
C703 C705 1.388 . S
C704 C703 1.366 . S
C704 C708 1.385 . S
C705 H680 0.951 . S
C705 C703 1.388 . S
C705 C706 1.366 . S
C706 C705 1.366 . S
C706 C707 1.414 . S
C706 C709 1.499 . S
C707 H681 0.950 . S
C707 C706 1.414 . S
C707 C708 1.374 . S
C708 H682 0.950 . S
C708 C704 1.385 . S
C708 C707 1.374 . S
C709 C706 1.499 . S
C709 C710 1.373 . S
C709 C711 1.389 . S
C710 H683 0.950 . S
C710 C696 1.377 . S
C710 C709 1.373 . S
C711 C695 1.377 . S
C711 C709 1.389 . S
C711 C712 1.524 . S
C712 C711 1.524 . S
C712 C713 1.397 . S
C712 C717 1.363 . S
C713 H684 0.950 . S
C713 C712 1.397 . S
C713 C714 1.334 . S
C714 H685 0.950 . S
C714 C713 1.334 . S
C714 C715 1.287 . S
C715 C714 1.287 . S
C715 C716 1.524 . S
C715 H718 0.999 . S
C716 H686 0.950 . S
C716 C715 1.524 . S
C716 C717 1.415 . S
C717 H687 0.950 . S
C717 C712 1.363 . S
C717 C716 1.415 . S
H718 C715 0.999 . S
H719 C700 0.913 . S
H720 C738 0.951 . S
H721 C740 0.951 . S
H722 C742 0.950 1_545 S
H723 C743 0.950 . S
H724 C745 0.950 . S
H725 C748 0.950 . S
H726 C749 0.950 . S
H727 C751 0.950 . S
H728 C752 0.950 . S
H729 C753 0.951 . S
H730 C755 0.951 . S
H731 C757 0.950 1_565 S
H732 C758 0.950 . S
H733 C760 0.950 . S
H734 C763 0.950 . S
H735 C764 0.950 . S
H736 C766 0.950 . S
H737 C767 0.950 . S
C738 H720 0.951 . S
C738 C739 1.366 . S
C738 C740 1.388 . S
C739 C738 1.366 . S
C739 C743 1.385 . S
C740 H721 0.951 . S
C740 C738 1.388 . S
C740 C741 1.366 . S
C741 C740 1.366 . S
C741 C742 1.414 . S
C741 C744 1.499 . S
C742 H722 0.950 1_565 S
C742 C741 1.414 . S
C742 C743 1.374 . S
C743 H723 0.950 . S
C743 C739 1.385 . S
C743 C742 1.374 . S
C744 C741 1.499 . S
C744 C745 1.373 1_565 S
C744 C746 1.389 . S
C745 H724 0.950 . S
C745 C744 1.373 1_545 S
C745 C761 1.377 . S
C746 C744 1.389 . S
C746 C747 1.524 . S
C746 C760 1.377 . S
C747 C746 1.524 . S
C747 C748 1.397 . S
C747 C752 1.363 . S
C748 H725 0.950 . S
C748 C747 1.397 . S
C748 C749 1.334 . S
C749 H726 0.950 . S
C749 C748 1.334 . S
C749 C750 1.287 . S
C750 C749 1.287 . S
C750 C751 1.524 . S
C750 H769 0.913 . S
C751 H727 0.950 . S
C751 C750 1.524 . S
C751 C752 1.415 . S
C752 H728 0.950 . S
C752 C747 1.363 . S
C752 C751 1.415 . S
C753 H729 0.951 . S
C753 C754 1.366 . S
C753 C755 1.388 . S
C754 C753 1.366 . S
C754 C758 1.385 . S
C755 H730 0.951 . S
C755 C753 1.388 . S
C755 C756 1.366 . S
C756 C755 1.366 . S
C756 C757 1.414 . S
C756 C759 1.499 . S
C757 H731 0.950 1_545 S
C757 C756 1.414 . S
C757 C758 1.374 . S
C758 H732 0.950 . S
C758 C754 1.385 . S
C758 C757 1.374 . S
C759 C756 1.499 . S
C759 C760 1.373 1_545 S
C759 C761 1.389 . S
C760 H733 0.950 . S
C760 C746 1.377 . S
C760 C759 1.373 1_565 S
C761 C745 1.377 . S
C761 C759 1.389 . S
C761 C762 1.524 . S
C762 C761 1.524 . S
C762 C763 1.397 . S
C762 C767 1.363 . S
C763 H734 0.950 . S
C763 C762 1.397 . S
C763 C764 1.334 . S
C764 H735 0.950 . S
C764 C763 1.334 . S
C764 C765 1.287 . S
C765 C764 1.287 . S
C765 C766 1.524 . S
C765 H768 0.999 . S
C766 H736 0.950 . S
C766 C765 1.524 . S
C766 C767 1.415 . S
C767 H737 0.950 . S
C767 C762 1.363 . S
C767 C766 1.415 . S
H768 C765 0.999 . S
H769 C750 0.913 . S
H770 C788 0.951 . S
H771 C790 0.951 . S
H772 C792 0.950 1_565 S
H773 C793 0.950 . S
H774 C795 0.950 . S
H775 C798 0.950 . S
H776 C799 0.950 . S
H777 C801 0.950 . S
H778 C802 0.950 . S
H779 C803 0.951 . S
H780 C805 0.951 . S
H781 C807 0.950 1_545 S
H782 C808 0.950 . S
H783 C810 0.950 . S
H784 C813 0.950 . S
H785 C814 0.950 . S
H786 C816 0.950 . S
H787 C817 0.950 . S
C788 H770 0.951 . S
C788 C789 1.366 . S
C788 C790 1.388 . S
C789 C788 1.366 . S
C789 C793 1.385 . S
C790 H771 0.951 . S
C790 C788 1.388 . S
C790 C791 1.366 . S
C791 C790 1.366 . S
C791 C792 1.414 . S
C791 C794 1.499 . S
C792 H772 0.950 1_545 S
C792 C791 1.414 . S
C792 C793 1.374 . S
C793 H773 0.950 . S
C793 C789 1.385 . S
C793 C792 1.374 . S
C794 C791 1.499 . S
C794 C795 1.373 . S
C794 C796 1.389 . S
C795 H774 0.950 . S
C795 C794 1.373 . S
C795 C811 1.377 1_545 S
C796 C794 1.389 . S
C796 C797 1.524 . S
C796 C810 1.377 1_545 S
C797 C796 1.524 . S
C797 C798 1.397 1_545 S
C797 C802 1.363 . S
C798 H775 0.950 . S
C798 C797 1.397 1_565 S
C798 C799 1.334 . S
C799 H776 0.950 . S
C799 C798 1.334 . S
C799 C800 1.287 1_565 S
C800 C799 1.287 1_545 S
C800 C801 1.524 . S
C800 H819 0.913 . S
C801 H777 0.950 . S
C801 C800 1.524 . S
C801 C802 1.415 . S
C802 H778 0.950 . S
C802 C797 1.363 . S
C802 C801 1.415 . S
C803 H779 0.951 . S
C803 C804 1.366 . S
C803 C805 1.388 . S
C804 C803 1.366 . S
C804 C808 1.385 . S
C805 H780 0.951 . S
C805 C803 1.388 . S
C805 C806 1.366 . S
C806 C805 1.366 . S
C806 C807 1.414 . S
C806 C809 1.499 . S
C807 H781 0.950 1_565 S
C807 C806 1.414 . S
C807 C808 1.374 . S
C808 H782 0.950 . S
C808 C804 1.385 . S
C808 C807 1.374 . S
C809 C806 1.499 . S
C809 C810 1.373 . S
C809 C811 1.389 . S
C810 H783 0.950 . S
C810 C796 1.377 1_565 S
C810 C809 1.373 . S
C811 C795 1.377 1_565 S
C811 C809 1.389 . S
C811 C812 1.524 . S
C812 C811 1.524 . S
C812 C813 1.397 1_565 S
C812 C817 1.363 . S
C813 H784 0.950 . S
C813 C812 1.397 1_545 S
C813 C814 1.334 . S
C814 H785 0.950 . S
C814 C813 1.334 . S
C814 C815 1.287 1_545 S
C815 C814 1.287 1_565 S
C815 C816 1.524 . S
C815 H818 0.999 . S
C816 H786 0.950 . S
C816 C815 1.524 . S
C816 C817 1.415 . S
C817 H787 0.950 . S
C817 C812 1.363 . S
C817 C816 1.415 . S
H818 C815 0.999 . S
H819 C800 0.913 . S
H820 C838 0.951 . S
H821 C840 0.951 . S
H822 C842 0.950 . S
H823 C843 0.950 . S
H824 C845 0.950 . S
H825 C848 0.950 . S
H826 C849 0.950 . S
H827 C851 0.950 . S
H828 C852 0.950 . S
H829 C853 0.951 . S
H830 C855 0.951 . S
H831 C857 0.950 . S
H832 C858 0.950 . S
H833 C860 0.950 . S
H834 C863 0.950 . S
H835 C864 0.950 . S
H836 C866 0.950 . S
H837 C867 0.950 . S
C838 H820 0.951 . S
C838 C839 1.366 . S
C838 C840 1.388 . S
C839 C838 1.366 . S
C839 C843 1.385 . S
C840 H821 0.951 . S
C840 C838 1.388 . S
C840 C841 1.366 . S
C841 C840 1.366 . S
C841 C842 1.414 . S
C841 C844 1.499 . S
C842 H822 0.950 . S
C842 C841 1.414 . S
C842 C843 1.374 . S
C843 H823 0.950 . S
C843 C839 1.385 . S
C843 C842 1.374 . S
C844 C841 1.499 . S
C844 C845 1.373 . S
C844 C846 1.389 1_545 S
C845 H824 0.950 . S
C845 C844 1.373 . S
C845 C861 1.377 . S
C846 C844 1.389 1_565 S
C846 C847 1.524 . S
C846 C860 1.377 . S
C847 C846 1.524 . S
C847 C848 1.397 . S
C847 C852 1.363 . S
C848 H825 0.950 . S
C848 C847 1.397 . S
C848 C849 1.334 . S
C849 H826 0.950 . S
C849 C848 1.334 . S
C849 C850 1.287 . S
C850 C849 1.287 . S
C850 C851 1.524 . S
C850 H869 0.913 . S
C851 H827 0.950 . S
C851 C850 1.524 . S
C851 C852 1.415 . S
C852 H828 0.950 . S
C852 C847 1.363 . S
C852 C851 1.415 . S
C853 H829 0.951 . S
C853 C854 1.366 . S
C853 C855 1.388 . S
C854 C853 1.366 . S
C854 C858 1.385 . S
C855 H830 0.951 . S
C855 C853 1.388 . S
C855 C856 1.366 . S
C856 C855 1.366 . S
C856 C857 1.414 . S
C856 C859 1.499 . S
C857 H831 0.950 . S
C857 C856 1.414 . S
C857 C858 1.374 . S
C858 H832 0.950 . S
C858 C854 1.385 . S
C858 C857 1.374 . S
C859 C856 1.499 . S
C859 C860 1.373 . S
C859 C861 1.389 1_565 S
C860 H833 0.950 . S
C860 C846 1.377 . S
C860 C859 1.373 . S
C861 C845 1.377 . S
C861 C859 1.389 1_545 S
C861 C862 1.524 . S
C862 C861 1.524 . S
C862 C863 1.397 . S
C862 C867 1.363 . S
C863 H834 0.950 . S
C863 C862 1.397 . S
C863 C864 1.334 . S
C864 H835 0.950 . S
C864 C863 1.334 . S
C864 C865 1.287 . S
C865 C864 1.287 . S
C865 C866 1.524 . S
C865 H868 0.999 . S
C866 H836 0.950 . S
C866 C865 1.524 . S
C866 C867 1.415 . S
C867 H837 0.950 . S
C867 C862 1.363 . S
C867 C866 1.415 . S
H868 C865 0.999 . S
H869 C850 0.913 . S
H870 C888 0.951 . S
H871 C890 0.951 . S
H872 C892 0.950 1_565 S
H873 C893 0.950 1_565 S
H874 C895 0.950 . S
H875 C898 0.950 1_565 S
H876 C899 0.950 . S
H877 C901 0.950 . S
H878 C902 0.950 . S
H879 C903 0.951 . S
H880 C905 0.951 . S
H881 C907 0.950 1_545 S
H882 C908 0.950 1_545 S
H883 C910 0.950 . S
H884 C913 0.950 1_545 S
H885 C914 0.950 . S
H886 C916 0.950 . S
H887 C917 0.950 . S
C888 H870 0.951 . S
C888 C889 1.366 . S
C888 C890 1.388 . S
C889 C888 1.366 . S
C889 C893 1.385 . S
C890 H871 0.951 . S
C890 C888 1.388 . S
C890 C891 1.366 . S
C891 C890 1.366 . S
C891 C892 1.414 . S
C891 C894 1.499 . S
C892 H872 0.950 1_545 S
C892 C891 1.414 . S
C892 C893 1.374 . S
C893 H873 0.950 1_545 S
C893 C889 1.385 . S
C893 C892 1.374 . S
C894 C891 1.499 . S
C894 C895 1.373 1_545 S
C894 C896 1.389 . S
C895 H874 0.950 . S
C895 C894 1.373 1_565 S
C895 C911 1.377 . S
C896 C894 1.389 . S
C896 C897 1.524 . S
C896 C910 1.377 . S
C897 C896 1.524 . S
C897 C898 1.397 . S
C897 C902 1.363 . S
C898 H875 0.950 1_545 S
C898 C897 1.397 . S
C898 C899 1.334 . S
C899 H876 0.950 . S
C899 C898 1.334 . S
C899 C900 1.287 . S
C900 C899 1.287 . S
C900 C901 1.524 . S
C900 H919 0.913 . S
C901 H877 0.950 . S
C901 C900 1.524 . S
C901 C902 1.415 . S
C902 H878 0.950 . S
C902 C897 1.363 . S
C902 C901 1.415 . S
C903 H879 0.951 . S
C903 C904 1.366 . S
C903 C905 1.388 . S
C904 C903 1.366 . S
C904 C908 1.385 . S
C905 H880 0.951 . S
C905 C903 1.388 . S
C905 C906 1.366 . S
C906 C905 1.366 . S
C906 C907 1.414 . S
C906 C909 1.499 . S
C907 H881 0.950 1_565 S
C907 C906 1.414 . S
C907 C908 1.374 . S
C908 H882 0.950 1_565 S
C908 C904 1.385 . S
C908 C907 1.374 . S
C909 C906 1.499 . S
C909 C910 1.373 1_565 S
C909 C911 1.389 . S
C910 H883 0.950 . S
C910 C896 1.377 . S
C910 C909 1.373 1_545 S
C911 C895 1.377 . S
C911 C909 1.389 . S
C911 C912 1.524 . S
C912 C911 1.524 . S
C912 C913 1.397 . S
C912 C917 1.363 . S
C913 H884 0.950 1_565 S
C913 C912 1.397 . S
C913 C914 1.334 . S
C914 H885 0.950 . S
C914 C913 1.334 . S
C914 C915 1.287 . S
C915 C914 1.287 . S
C915 C916 1.524 . S
C915 H918 0.999 . S
C916 H886 0.950 . S
C916 C915 1.524 . S
C916 C917 1.415 . S
C917 H887 0.950 . S
C917 C912 1.363 . S
C917 C916 1.415 . S
H918 C915 0.999 . S
H919 C900 0.913 . S
H920 C938 0.951 . S
H921 C940 0.951 . S
H922 C942 0.950 . S
H923 C943 0.950 . S
H924 C945 0.950 . S
H925 C948 0.950 . S
H926 C949 0.950 . S
H927 C951 0.950 . S
H928 C952 0.950 . S
H929 C953 0.951 . S
H930 C955 0.951 . S
H931 C957 0.950 . S
H932 C958 0.950 . S
H933 C960 0.950 . S
H934 C963 0.950 . S
H935 C964 0.950 . S
H936 C966 0.950 . S
H937 C967 0.950 . S
C938 H920 0.951 . S
C938 C939 1.366 . S
C938 C940 1.388 . S
C939 C938 1.366 . S
C939 C943 1.385 . S
C940 H921 0.951 . S
C940 C938 1.388 . S
C940 C941 1.366 . S
C941 C940 1.366 . S
C941 C942 1.414 . S
C941 C944 1.499 . S
C942 H922 0.950 . S
C942 C941 1.414 . S
C942 C943 1.374 . S
C943 H923 0.950 . S
C943 C939 1.385 . S
C943 C942 1.374 . S
C944 C941 1.499 . S
C944 C945 1.373 . S
C944 C946 1.389 . S
C945 H924 0.950 . S
C945 C944 1.373 . S
C945 C961 1.377 . S
C946 C944 1.389 . S
C946 C947 1.524 . S
C946 C960 1.377 . S
C947 C946 1.524 . S
C947 C948 1.397 . S
C947 C952 1.363 . S
C948 H925 0.950 . S
C948 C947 1.397 . S
C948 C949 1.334 . S
C949 H926 0.950 . S
C949 C948 1.334 . S
C949 C950 1.287 . S
C950 C949 1.287 . S
C950 C951 1.524 . S
C950 H969 0.913 . S
C951 H927 0.950 . S
C951 C950 1.524 . S
C951 C952 1.415 . S
C952 H928 0.950 . S
C952 C947 1.363 . S
C952 C951 1.415 . S
C953 H929 0.951 . S
C953 C954 1.366 . S
C953 C955 1.388 . S
C954 C953 1.366 . S
C954 C958 1.385 . S
C955 H930 0.951 . S
C955 C953 1.388 . S
C955 C956 1.366 . S
C956 C955 1.366 . S
C956 C957 1.414 . S
C956 C959 1.499 . S
C957 H931 0.950 . S
C957 C956 1.414 . S
C957 C958 1.374 . S
C958 H932 0.950 . S
C958 C954 1.385 . S
C958 C957 1.374 . S
C959 C956 1.499 . S
C959 C960 1.373 . S
C959 C961 1.389 . S
C960 H933 0.950 . S
C960 C946 1.377 . S
C960 C959 1.373 . S
C961 C945 1.377 . S
C961 C959 1.389 . S
C961 C962 1.524 . S
C962 C961 1.524 . S
C962 C963 1.397 . S
C962 C967 1.363 . S
C963 H934 0.950 . S
C963 C962 1.397 . S
C963 C964 1.334 . S
C964 H935 0.950 . S
C964 C963 1.334 . S
C964 C965 1.287 . S
C965 C964 1.287 . S
C965 C966 1.524 . S
C965 H968 0.999 . S
C966 H936 0.950 . S
C966 C965 1.524 . S
C966 C967 1.415 . S
C967 H937 0.950 . S
C967 C962 1.363 . S
C967 C966 1.415 . S
H968 C965 0.999 . S
H969 C950 0.913 . S
H970 C988 0.951 . S
H971 C990 0.951 . S
H972 C992 0.950 . S
H973 C993 0.950 . S
H974 C995 0.950 . S
H975 C998 0.950 . S
H976 C999 0.950 . S
H977 C1001 0.950 . S
H978 C1002 0.950 . S
H979 C1003 0.951 . S
H980 C1005 0.951 . S
H981 C1007 0.950 . S
H982 C1008 0.950 . S
H983 C1010 0.950 . S
H984 C1013 0.950 . S
H985 C1014 0.950 . S
H986 C1016 0.950 . S
H987 C1017 0.950 . S
C988 H970 0.951 . S
C988 C989 1.366 . S
C988 C990 1.388 . S
C989 C988 1.366 . S
C989 C993 1.385 . S
C990 H971 0.951 . S
C990 C988 1.388 . S
C990 C991 1.366 . S
C991 C990 1.366 . S
C991 C992 1.414 . S
C991 C994 1.499 . S
C992 H972 0.950 . S
C992 C991 1.414 . S
C992 C993 1.374 . S
C993 H973 0.950 . S
C993 C989 1.385 . S
C993 C992 1.374 . S
C994 C991 1.499 . S
C994 C995 1.373 . S
C994 C996 1.389 . S
C995 H974 0.950 . S
C995 C994 1.373 . S
C995 C1011 1.377 . S
C996 C994 1.389 . S
C996 C997 1.524 . S
C996 C1010 1.377 . S
C997 C996 1.524 . S
C997 C998 1.397 . S
C997 C1002 1.363 . S
C998 H975 0.950 . S
C998 C997 1.397 . S
C998 C999 1.334 . S
C999 H976 0.950 . S
C999 C998 1.334 . S
C999 C1000 1.287 . S
C1000 C999 1.287 . S
C1000 C1001 1.524 . S
C1000 H1019 0.913 . S
C1001 H977 0.950 . S
C1001 C1000 1.524 . S
C1001 C1002 1.415 . S
C1002 H978 0.950 . S
C1002 C997 1.363 . S
C1002 C1001 1.415 . S
C1003 H979 0.951 . S
C1003 C1004 1.366 . S
C1003 C1005 1.388 . S
C1004 C1003 1.366 . S
C1004 C1008 1.385 . S
C1005 H980 0.951 . S
C1005 C1003 1.388 . S
C1005 C1006 1.366 . S
C1006 C1005 1.366 . S
C1006 C1007 1.414 . S
C1006 C1009 1.499 . S
C1007 H981 0.950 . S
C1007 C1006 1.414 . S
C1007 C1008 1.374 . S
C1008 H982 0.950 . S
C1008 C1004 1.385 . S
C1008 C1007 1.374 . S
C1009 C1006 1.499 . S
C1009 C1010 1.373 . S
C1009 C1011 1.389 . S
C1010 H983 0.950 . S
C1010 C996 1.377 . S
C1010 C1009 1.373 . S
C1011 C995 1.377 . S
C1011 C1009 1.389 . S
C1011 C1012 1.524 . S
C1012 C1011 1.524 . S
C1012 C1013 1.397 . S
C1012 C1017 1.363 . S
C1013 H984 0.950 . S
C1013 C1012 1.397 . S
C1013 C1014 1.334 . S
C1014 H985 0.950 . S
C1014 C1013 1.334 . S
C1014 C1015 1.287 . S
C1015 C1014 1.287 . S
C1015 C1016 1.524 . S
C1015 H1018 0.999 . S
C1016 H986 0.950 . S
C1016 C1015 1.524 . S
C1016 C1017 1.415 . S
C1017 H987 0.950 . S
C1017 C1012 1.363 . S
C1017 C1016 1.415 . S
H1018 C1015 0.999 . S
H1019 C1000 0.913 . S
H1020 C1038 0.951 . S
H1021 C1040 0.951 . S
H1022 C1042 0.950 . S
H1023 C1043 0.950 . S
H1024 C1045 0.950 . S
H1025 C1048 0.950 . S
H1026 C1049 0.950 . S
H1027 C1051 0.950 . S
H1028 C1052 0.950 . S
H1029 C1053 0.951 . S
H1030 C1055 0.951 . S
H1031 C1057 0.950 . S
H1032 C1058 0.950 . S
H1033 C1060 0.950 . S
H1034 C1063 0.950 . S
H1035 C1064 0.950 . S
H1036 C1066 0.950 . S
H1037 C1067 0.950 . S
C1038 H1020 0.951 . S
C1038 C1039 1.366 . S
C1038 C1040 1.388 . S
C1039 C1038 1.366 . S
C1039 C1043 1.385 . S
C1040 H1021 0.951 . S
C1040 C1038 1.388 . S
C1040 C1041 1.366 . S
C1041 C1040 1.366 . S
C1041 C1042 1.414 . S
C1041 C1044 1.499 . S
C1042 H1022 0.950 . S
C1042 C1041 1.414 . S
C1042 C1043 1.374 . S
C1043 H1023 0.950 . S
C1043 C1039 1.385 . S
C1043 C1042 1.374 . S
C1044 C1041 1.499 . S
C1044 C1045 1.373 . S
C1044 C1046 1.389 . S
C1045 H1024 0.950 . S
C1045 C1044 1.373 . S
C1045 C1061 1.377 . S
C1046 C1044 1.389 . S
C1046 C1047 1.524 . S
C1046 C1060 1.377 . S
C1047 C1046 1.524 . S
C1047 C1048 1.397 . S
C1047 C1052 1.363 . S
C1048 H1025 0.950 . S
C1048 C1047 1.397 . S
C1048 C1049 1.334 . S
C1049 H1026 0.950 . S
C1049 C1048 1.334 . S
C1049 C1050 1.287 . S
C1050 C1049 1.287 . S
C1050 C1051 1.524 . S
C1050 H1069 0.913 . S
C1051 H1027 0.950 . S
C1051 C1050 1.524 . S
C1051 C1052 1.415 . S
C1052 H1028 0.950 . S
C1052 C1047 1.363 . S
C1052 C1051 1.415 . S
C1053 H1029 0.951 . S
C1053 C1054 1.366 . S
C1053 C1055 1.388 . S
C1054 C1053 1.366 . S
C1054 C1058 1.385 . S
C1055 H1030 0.951 . S
C1055 C1053 1.388 . S
C1055 C1056 1.366 . S
C1056 C1055 1.366 . S
C1056 C1057 1.414 . S
C1056 C1059 1.499 . S
C1057 H1031 0.950 . S
C1057 C1056 1.414 . S
C1057 C1058 1.374 . S
C1058 H1032 0.950 . S
C1058 C1054 1.385 . S
C1058 C1057 1.374 . S
C1059 C1056 1.499 . S
C1059 C1060 1.373 . S
C1059 C1061 1.389 . S
C1060 H1033 0.950 . S
C1060 C1046 1.377 . S
C1060 C1059 1.373 . S
C1061 C1045 1.377 . S
C1061 C1059 1.389 . S
C1061 C1062 1.524 . S
C1062 C1061 1.524 . S
C1062 C1063 1.397 . S
C1062 C1067 1.363 . S
C1063 H1034 0.950 . S
C1063 C1062 1.397 . S
C1063 C1064 1.334 . S
C1064 H1035 0.950 . S
C1064 C1063 1.334 . S
C1064 C1065 1.287 . S
C1065 C1064 1.287 . S
C1065 C1066 1.524 . S
C1065 H1068 0.999 . S
C1066 H1036 0.950 . S
C1066 C1065 1.524 . S
C1066 C1067 1.415 . S
C1067 H1037 0.950 . S
C1067 C1062 1.363 . S
C1067 C1066 1.415 . S
H1068 C1065 0.999 . S
H1069 C1050 0.913 . S
H1070 C1088 0.951 . S
H1071 C1090 0.951 . S
H1072 C1092 0.950 . S
H1073 C1093 0.950 . S
H1074 C1095 0.950 . S
H1075 C1098 0.950 . S
H1076 C1099 0.950 . S
H1077 C1101 0.950 . S
H1078 C1102 0.950 . S
H1079 C1103 0.951 . S
H1080 C1105 0.951 . S
H1081 C1107 0.950 . S
H1082 C1108 0.950 . S
H1083 C1110 0.950 . S
H1084 C1113 0.950 . S
H1085 C1114 0.950 . S
H1086 C1116 0.950 . S
H1087 C1117 0.950 . S
C1088 H1070 0.951 . S
C1088 C1089 1.366 . S
C1088 C1090 1.388 . S
C1089 C1088 1.366 . S
C1089 C1093 1.385 . S
C1090 H1071 0.951 . S
C1090 C1088 1.388 . S
C1090 C1091 1.366 . S
C1091 C1090 1.366 . S
C1091 C1092 1.414 . S
C1091 C1094 1.499 . S
C1092 H1072 0.950 . S
C1092 C1091 1.414 . S
C1092 C1093 1.374 . S
C1093 H1073 0.950 . S
C1093 C1089 1.385 . S
C1093 C1092 1.374 . S
C1094 C1091 1.499 . S
C1094 C1095 1.373 . S
C1094 C1096 1.389 . S
C1095 H1074 0.950 . S
C1095 C1094 1.373 . S
C1095 C1111 1.377 . S
C1096 C1094 1.389 . S
C1096 C1097 1.524 . S
C1096 C1110 1.377 . S
C1097 C1096 1.524 . S
C1097 C1098 1.397 . S
C1097 C1102 1.363 . S
C1098 H1075 0.950 . S
C1098 C1097 1.397 . S
C1098 C1099 1.334 . S
C1099 H1076 0.950 . S
C1099 C1098 1.334 . S
C1099 C1100 1.287 . S
C1100 C1099 1.287 . S
C1100 C1101 1.524 . S
C1100 H1119 0.913 . S
C1101 H1077 0.950 . S
C1101 C1100 1.524 . S
C1101 C1102 1.415 . S
C1102 H1078 0.950 . S
C1102 C1097 1.363 . S
C1102 C1101 1.415 . S
C1103 H1079 0.951 . S
C1103 C1104 1.366 . S
C1103 C1105 1.388 . S
C1104 C1103 1.366 . S
C1104 C1108 1.385 . S
C1105 H1080 0.951 . S
C1105 C1103 1.388 . S
C1105 C1106 1.366 . S
C1106 C1105 1.366 . S
C1106 C1107 1.414 . S
C1106 C1109 1.499 . S
C1107 H1081 0.950 . S
C1107 C1106 1.414 . S
C1107 C1108 1.374 . S
C1108 H1082 0.950 . S
C1108 C1104 1.385 . S
C1108 C1107 1.374 . S
C1109 C1106 1.499 . S
C1109 C1110 1.373 . S
C1109 C1111 1.389 . S
C1110 H1083 0.950 . S
C1110 C1096 1.377 . S
C1110 C1109 1.373 . S
C1111 C1095 1.377 . S
C1111 C1109 1.389 . S
C1111 C1112 1.524 . S
C1112 C1111 1.524 . S
C1112 C1113 1.397 . S
C1112 C1117 1.363 . S
C1113 H1084 0.950 . S
C1113 C1112 1.397 . S
C1113 C1114 1.334 . S
C1114 H1085 0.950 . S
C1114 C1113 1.334 . S
C1114 C1115 1.287 . S
C1115 C1114 1.287 . S
C1115 C1116 1.524 . S
C1115 H1118 0.999 . S
C1116 H1086 0.950 . S
C1116 C1115 1.524 . S
C1116 C1117 1.415 . S
C1117 H1087 0.950 . S
C1117 C1112 1.363 . S
C1117 C1116 1.415 . S
H1118 C1115 0.999 . S
H1119 C1100 0.913 . S
H1120 C1138 0.951 . S
H1121 C1140 0.951 . S
H1122 C1142 0.950 . S
H1123 C1143 0.950 . S
H1124 C1145 0.950 . S
H1125 C1148 0.950 . S
H1126 C1149 0.950 . S
H1127 C1151 0.950 . S
H1128 C1152 0.950 . S
H1129 C1153 0.951 . S
H1130 C1155 0.951 . S
H1131 C1157 0.950 . S
H1132 C1158 0.950 . S
H1133 C1160 0.950 . S
H1134 C1163 0.950 1_545 S
H1135 C1164 0.950 . S
H1136 C1166 0.950 . S
H1137 C1167 0.950 . S
C1138 H1120 0.951 . S
C1138 C1139 1.366 . S
C1138 C1140 1.388 . S
C1139 C1138 1.366 . S
C1139 C1143 1.385 . S
C1140 H1121 0.951 . S
C1140 C1138 1.388 . S
C1140 C1141 1.366 . S
C1141 C1140 1.366 . S
C1141 C1142 1.414 . S
C1141 C1144 1.499 . S
C1142 H1122 0.950 . S
C1142 C1141 1.414 . S
C1142 C1143 1.374 . S
C1143 H1123 0.950 . S
C1143 C1139 1.385 . S
C1143 C1142 1.374 . S
C1144 C1141 1.499 . S
C1144 C1145 1.373 . S
C1144 C1146 1.389 . S
C1145 H1124 0.950 . S
C1145 C1144 1.373 . S
C1145 C1161 1.377 1_556 S
C1146 C1144 1.389 . S
C1146 C1147 1.524 . S
C1146 C1160 1.377 1_556 S
C1147 C1146 1.524 . S
C1147 C1148 1.397 . S
C1147 C1152 1.363 . S
C1148 H1125 0.950 . S
C1148 C1147 1.397 . S
C1148 C1149 1.334 . S
C1149 H1126 0.950 . S
C1149 C1148 1.334 . S
C1149 C1150 1.287 . S
C1150 C1149 1.287 . S
C1150 C1151 1.524 . S
C1150 H1169 0.913 . S
C1151 H1127 0.950 . S
C1151 C1150 1.524 . S
C1151 C1152 1.415 . S
C1152 H1128 0.950 . S
C1152 C1147 1.363 . S
C1152 C1151 1.415 . S
C1153 H1129 0.951 . S
C1153 C1154 1.366 . S
C1153 C1155 1.388 . S
C1154 C1153 1.366 . S
C1154 C1158 1.385 . S
C1155 H1130 0.951 . S
C1155 C1153 1.388 . S
C1155 C1156 1.366 . S
C1156 C1155 1.366 . S
C1156 C1157 1.414 . S
C1156 C1159 1.499 . S
C1157 H1131 0.950 . S
C1157 C1156 1.414 . S
C1157 C1158 1.374 . S
C1158 H1132 0.950 . S
C1158 C1154 1.385 . S
C1158 C1157 1.374 . S
C1159 C1156 1.499 . S
C1159 C1160 1.373 . S
C1159 C1161 1.389 . S
C1160 H1133 0.950 . S
C1160 C1146 1.377 1_554 S
C1160 C1159 1.373 . S
C1161 C1145 1.377 1_554 S
C1161 C1159 1.389 . S
C1161 C1162 1.524 . S
C1162 C1161 1.524 . S
C1162 C1163 1.397 1_545 S
C1162 C1167 1.363 . S
C1163 H1134 0.950 1_565 S
C1163 C1162 1.397 1_565 S
C1163 C1164 1.334 . S
C1164 H1135 0.950 . S
C1164 C1163 1.334 . S
C1164 C1165 1.287 . S
C1165 C1164 1.287 . S
C1165 C1166 1.524 . S
C1165 H1168 0.999 . S
C1166 H1136 0.950 . S
C1166 C1165 1.524 . S
C1166 C1167 1.415 1_565 S
C1167 H1137 0.950 . S
C1167 C1162 1.363 . S
C1167 C1166 1.415 1_545 S
H1168 C1165 0.999 . S
H1169 C1150 0.913 . S
H1170 C1188 0.951 . S
H1171 C1190 0.951 . S
H1172 C1192 0.950 . S
H1173 C1193 0.950 . S
H1174 C1195 0.950 . S
H1175 C1198 0.950 . S
H1176 C1199 0.950 . S
H1177 C1201 0.950 . S
H1178 C1202 0.950 . S
H1179 C1203 0.951 . S
H1180 C1205 0.951 . S
H1181 C1207 0.950 . S
H1182 C1208 0.950 . S
H1183 C1210 0.950 . S
H1184 C1213 0.950 . S
H1185 C1214 0.950 . S
H1186 C1216 0.950 . S
H1187 C1217 0.950 . S
C1188 H1170 0.951 . S
C1188 C1189 1.366 . S
C1188 C1190 1.388 . S
C1189 C1188 1.366 . S
C1189 C1193 1.385 . S
C1190 H1171 0.951 . S
C1190 C1188 1.388 . S
C1190 C1191 1.366 . S
C1191 C1190 1.366 . S
C1191 C1192 1.414 . S
C1191 C1194 1.499 . S
C1192 H1172 0.950 . S
C1192 C1191 1.414 . S
C1192 C1193 1.374 . S
C1193 H1173 0.950 . S
C1193 C1189 1.385 . S
C1193 C1192 1.374 . S
C1194 C1191 1.499 . S
C1194 C1195 1.373 . S
C1194 C1196 1.389 . S
C1195 H1174 0.950 . S
C1195 C1194 1.373 . S
C1195 C1211 1.377 1_556 S
C1196 C1194 1.389 . S
C1196 C1197 1.524 . S
C1196 C1210 1.377 1_556 S
C1197 C1196 1.524 . S
C1197 C1198 1.397 . S
C1197 C1202 1.363 1_565 S
C1198 H1175 0.950 . S
C1198 C1197 1.397 . S
C1198 C1199 1.334 1_565 S
C1199 H1176 0.950 . S
C1199 C1198 1.334 1_545 S
C1199 C1200 1.287 . S
C1200 C1199 1.287 . S
C1200 C1201 1.524 . S
C1200 H1219 0.913 . S
C1201 H1177 0.950 . S
C1201 C1200 1.524 . S
C1201 C1202 1.415 . S
C1202 H1178 0.950 . S
C1202 C1197 1.363 1_545 S
C1202 C1201 1.415 . S
C1203 H1179 0.951 . S
C1203 C1204 1.366 . S
C1203 C1205 1.388 . S
C1204 C1203 1.366 . S
C1204 C1208 1.385 . S
C1205 H1180 0.951 . S
C1205 C1203 1.388 . S
C1205 C1206 1.366 . S
C1206 C1205 1.366 . S
C1206 C1207 1.414 . S
C1206 C1209 1.499 . S
C1207 H1181 0.950 . S
C1207 C1206 1.414 . S
C1207 C1208 1.374 . S
C1208 H1182 0.950 . S
C1208 C1204 1.385 . S
C1208 C1207 1.374 . S
C1209 C1206 1.499 . S
C1209 C1210 1.373 . S
C1209 C1211 1.389 . S
C1210 H1183 0.950 . S
C1210 C1196 1.377 1_554 S
C1210 C1209 1.373 . S
C1211 C1195 1.377 1_554 S
C1211 C1209 1.389 . S
C1211 C1212 1.524 . S
C1212 C1211 1.524 . S
C1212 C1213 1.397 . S
C1212 C1217 1.363 . S
C1213 H1184 0.950 . S
C1213 C1212 1.397 . S
C1213 C1214 1.334 . S
C1214 H1185 0.950 . S
C1214 C1213 1.334 . S
C1214 C1215 1.287 . S
C1215 C1214 1.287 . S
C1215 C1216 1.524 . S
C1215 H1218 0.999 . S
C1216 H1186 0.950 . S
C1216 C1215 1.524 . S
C1216 C1217 1.415 . S
C1217 H1187 0.950 . S
C1217 C1212 1.363 . S
C1217 C1216 1.415 . S
H1218 C1215 0.999 . S
H1219 C1200 0.913 . S
H1220 C1238 0.951 . S
H1221 C1240 0.951 . S
H1222 C1242 0.950 . S
H1223 C1243 0.950 . S
H1224 C1245 0.950 . S
H1225 C1248 0.950 . S
H1226 C1249 0.950 1_565 S
H1227 C1251 0.950 . S
H1228 C1252 0.950 . S
H1229 C1253 0.951 . S
H1230 C1255 0.951 . S
H1231 C1257 0.950 . S
H1232 C1258 0.950 . S
H1233 C1260 0.950 . S
H1234 C1263 0.950 . S
H1235 C1264 0.950 . S
H1236 C1266 0.950 . S
H1237 C1267 0.950 . S
C1238 H1220 0.951 . S
C1238 C1239 1.366 . S
C1238 C1240 1.388 . S
C1239 C1238 1.366 . S
C1239 C1243 1.385 . S
C1240 H1221 0.951 . S
C1240 C1238 1.388 . S
C1240 C1241 1.366 . S
C1241 C1240 1.366 . S
C1241 C1242 1.414 . S
C1241 C1244 1.499 . S
C1242 H1222 0.950 . S
C1242 C1241 1.414 . S
C1242 C1243 1.374 . S
C1243 H1223 0.950 . S
C1243 C1239 1.385 . S
C1243 C1242 1.374 . S
C1244 C1241 1.499 . S
C1244 C1245 1.373 . S
C1244 C1246 1.389 . S
C1245 H1224 0.950 . S
C1245 C1244 1.373 . S
C1245 C1261 1.377 . S
C1246 C1244 1.389 . S
C1246 C1247 1.524 . S
C1246 C1260 1.377 . S
C1247 C1246 1.524 . S
C1247 C1248 1.397 . S
C1247 C1252 1.363 1_565 S
C1248 H1225 0.950 . S
C1248 C1247 1.397 . S
C1248 C1249 1.334 1_565 S
C1249 H1226 0.950 1_545 S
C1249 C1248 1.334 1_545 S
C1249 C1250 1.287 . S
C1250 C1249 1.287 . S
C1250 C1251 1.524 . S
C1250 H1269 0.913 . S
C1251 H1227 0.950 . S
C1251 C1250 1.524 . S
C1251 C1252 1.415 . S
C1252 H1228 0.950 . S
C1252 C1247 1.363 1_545 S
C1252 C1251 1.415 . S
C1253 H1229 0.951 . S
C1253 C1254 1.366 . S
C1253 C1255 1.388 . S
C1254 C1253 1.366 . S
C1254 C1258 1.385 . S
C1255 H1230 0.951 . S
C1255 C1253 1.388 . S
C1255 C1256 1.366 . S
C1256 C1255 1.366 . S
C1256 C1257 1.414 . S
C1256 C1259 1.499 . S
C1257 H1231 0.950 . S
C1257 C1256 1.414 . S
C1257 C1258 1.374 . S
C1258 H1232 0.950 . S
C1258 C1254 1.385 . S
C1258 C1257 1.374 . S
C1259 C1256 1.499 . S
C1259 C1260 1.373 . S
C1259 C1261 1.389 . S
C1260 H1233 0.950 . S
C1260 C1246 1.377 . S
C1260 C1259 1.373 . S
C1261 C1245 1.377 . S
C1261 C1259 1.389 . S
C1261 C1262 1.524 . S
C1262 C1261 1.524 . S
C1262 C1263 1.397 . S
C1262 C1267 1.363 . S
C1263 H1234 0.950 . S
C1263 C1262 1.397 . S
C1263 C1264 1.334 . S
C1264 H1235 0.950 . S
C1264 C1263 1.334 . S
C1264 C1265 1.287 . S
C1265 C1264 1.287 . S
C1265 C1266 1.524 . S
C1265 H1268 0.999 . S
C1266 H1236 0.950 . S
C1266 C1265 1.524 . S
C1266 C1267 1.415 . S
C1267 H1237 0.950 . S
C1267 C1262 1.363 . S
C1267 C1266 1.415 . S
H1268 C1265 0.999 . S
H1269 C1250 0.913 . S
H1270 C1288 0.951 . S
H1271 C1290 0.951 . S
H1272 C1292 0.950 . S
H1273 C1293 0.950 . S
H1274 C1295 0.950 . S
H1275 C1298 0.950 . S
H1276 C1299 0.950 . S
H1277 C1301 0.950 . S
H1278 C1302 0.950 . S
H1279 C1303 0.951 . S
H1280 C1305 0.951 . S
H1281 C1307 0.950 . S
H1282 C1308 0.950 . S
H1283 C1310 0.950 . S
H1284 C1313 0.950 . S
H1285 C1314 0.950 . S
H1286 C1316 0.950 . S
H1287 C1317 0.950 . S
C1288 H1270 0.951 . S
C1288 C1289 1.366 . S
C1288 C1290 1.388 . S
C1289 C1288 1.366 . S
C1289 C1293 1.385 . S
C1290 H1271 0.951 . S
C1290 C1288 1.388 . S
C1290 C1291 1.366 . S
C1291 C1290 1.366 . S
C1291 C1292 1.414 . S
C1291 C1294 1.499 . S
C1292 H1272 0.950 . S
C1292 C1291 1.414 . S
C1292 C1293 1.374 . S
C1293 H1273 0.950 . S
C1293 C1289 1.385 . S
C1293 C1292 1.374 . S
C1294 C1291 1.499 . S
C1294 C1295 1.373 . S
C1294 C1296 1.389 . S
C1295 H1274 0.950 . S
C1295 C1294 1.373 . S
C1295 C1311 1.377 . S
C1296 C1294 1.389 . S
C1296 C1297 1.524 . S
C1296 C1310 1.377 . S
C1297 C1296 1.524 . S
C1297 C1298 1.397 . S
C1297 C1302 1.363 . S
C1298 H1275 0.950 . S
C1298 C1297 1.397 . S
C1298 C1299 1.334 . S
C1299 H1276 0.950 . S
C1299 C1298 1.334 . S
C1299 C1300 1.287 . S
C1300 C1299 1.287 . S
C1300 C1301 1.524 . S
C1300 H1319 0.913 . S
C1301 H1277 0.950 . S
C1301 C1300 1.524 . S
C1301 C1302 1.415 . S
C1302 H1278 0.950 . S
C1302 C1297 1.363 . S
C1302 C1301 1.415 . S
C1303 H1279 0.951 . S
C1303 C1304 1.366 . S
C1303 C1305 1.388 . S
C1304 C1303 1.366 . S
C1304 C1308 1.385 . S
C1305 H1280 0.951 . S
C1305 C1303 1.388 . S
C1305 C1306 1.366 . S
C1306 C1305 1.366 . S
C1306 C1307 1.414 . S
C1306 C1309 1.499 . S
C1307 H1281 0.950 . S
C1307 C1306 1.414 . S
C1307 C1308 1.374 . S
C1308 H1282 0.950 . S
C1308 C1304 1.385 . S
C1308 C1307 1.374 . S
C1309 C1306 1.499 . S
C1309 C1310 1.373 . S
C1309 C1311 1.389 . S
C1310 H1283 0.950 . S
C1310 C1296 1.377 . S
C1310 C1309 1.373 . S
C1311 C1295 1.377 . S
C1311 C1309 1.389 . S
C1311 C1312 1.524 . S
C1312 C1311 1.524 . S
C1312 C1313 1.397 . S
C1312 C1317 1.363 . S
C1313 H1284 0.950 . S
C1313 C1312 1.397 . S
C1313 C1314 1.334 . S
C1314 H1285 0.950 . S
C1314 C1313 1.334 . S
C1314 C1315 1.287 . S
C1315 C1314 1.287 . S
C1315 C1316 1.524 . S
C1315 H1318 0.999 . S
C1316 H1286 0.950 . S
C1316 C1315 1.524 . S
C1316 C1317 1.415 . S
C1317 H1287 0.950 . S
C1317 C1312 1.363 . S
C1317 C1316 1.415 . S
H1318 C1315 0.999 . S
H1319 C1300 0.913 . S
H1320 C1338 0.951 . S
H1321 C1340 0.951 . S
H1322 C1342 0.950 . S
H1323 C1343 0.950 . S
H1324 C1345 0.950 . S
H1325 C1348 0.950 . S
H1326 C1349 0.950 . S
H1327 C1351 0.950 . S
H1328 C1352 0.950 . S
H1329 C1353 0.951 . S
H1330 C1355 0.951 . S
H1331 C1357 0.950 . S
H1332 C1358 0.950 . S
H1333 C1360 0.950 . S
H1334 C1363 0.950 . S
H1335 C1364 0.950 . S
H1336 C1366 0.950 . S
H1337 C1367 0.950 . S
C1338 H1320 0.951 . S
C1338 C1339 1.366 . S
C1338 C1340 1.388 . S
C1339 C1338 1.366 . S
C1339 C1343 1.385 . S
C1340 H1321 0.951 . S
C1340 C1338 1.388 . S
C1340 C1341 1.366 . S
C1341 C1340 1.366 . S
C1341 C1342 1.414 . S
C1341 C1344 1.499 . S
C1342 H1322 0.950 . S
C1342 C1341 1.414 . S
C1342 C1343 1.374 . S
C1343 H1323 0.950 . S
C1343 C1339 1.385 . S
C1343 C1342 1.374 . S
C1344 C1341 1.499 . S
C1344 C1345 1.373 . S
C1344 C1346 1.389 . S
C1345 H1324 0.950 . S
C1345 C1344 1.373 . S
C1345 C1361 1.377 1_554 S
C1346 C1344 1.389 . S
C1346 C1347 1.524 . S
C1346 C1360 1.377 1_554 S
C1347 C1346 1.524 . S
C1347 C1348 1.397 . S
C1347 C1352 1.363 . S
C1348 H1325 0.950 . S
C1348 C1347 1.397 . S
C1348 C1349 1.334 . S
C1349 H1326 0.950 . S
C1349 C1348 1.334 . S
C1349 C1350 1.287 . S
C1350 C1349 1.287 . S
C1350 C1351 1.524 . S
C1350 H1369 0.913 . S
C1351 H1327 0.950 . S
C1351 C1350 1.524 . S
C1351 C1352 1.415 . S
C1352 H1328 0.950 . S
C1352 C1347 1.363 . S
C1352 C1351 1.415 . S
C1353 H1329 0.951 . S
C1353 C1354 1.366 . S
C1353 C1355 1.388 . S
C1354 C1353 1.366 . S
C1354 C1358 1.385 . S
C1355 H1330 0.951 . S
C1355 C1353 1.388 . S
C1355 C1356 1.366 . S
C1356 C1355 1.366 . S
C1356 C1357 1.414 . S
C1356 C1359 1.499 . S
C1357 H1331 0.950 . S
C1357 C1356 1.414 . S
C1357 C1358 1.374 . S
C1358 H1332 0.950 . S
C1358 C1354 1.385 . S
C1358 C1357 1.374 . S
C1359 C1356 1.499 . S
C1359 C1360 1.373 . S
C1359 C1361 1.389 . S
C1360 H1333 0.950 . S
C1360 C1346 1.377 1_556 S
C1360 C1359 1.373 . S
C1361 C1345 1.377 1_556 S
C1361 C1359 1.389 . S
C1361 C1362 1.524 . S
C1362 C1361 1.524 . S
C1362 C1363 1.397 . S
C1362 C1367 1.363 . S
C1363 H1334 0.950 . S
C1363 C1362 1.397 . S
C1363 C1364 1.334 . S
C1364 H1335 0.950 . S
C1364 C1363 1.334 . S
C1364 C1365 1.287 . S
C1365 C1364 1.287 . S
C1365 C1366 1.524 . S
C1365 H1368 0.999 . S
C1366 H1336 0.950 . S
C1366 C1365 1.524 . S
C1366 C1367 1.415 . S
C1367 H1337 0.950 . S
C1367 C1362 1.363 . S
C1367 C1366 1.415 . S
H1368 C1365 0.999 . S
H1369 C1350 0.913 . S
H1370 C1388 0.951 . S
H1371 C1390 0.951 . S
H1372 C1392 0.950 . S
H1373 C1393 0.950 . S
H1374 C1395 0.950 . S
H1375 C1398 0.950 . S
H1376 C1399 0.950 . S
H1377 C1401 0.950 . S
H1378 C1402 0.950 . S
H1379 C1403 0.951 . S
H1380 C1405 0.951 . S
H1381 C1407 0.950 . S
H1382 C1408 0.950 . S
H1383 C1410 0.950 . S
H1384 C1413 0.950 . S
H1385 C1414 0.950 . S
H1386 C1416 0.950 . S
H1387 C1417 0.950 . S
C1388 H1370 0.951 . S
C1388 C1389 1.366 . S
C1388 C1390 1.388 . S
C1389 C1388 1.366 . S
C1389 C1393 1.385 . S
C1390 H1371 0.951 . S
C1390 C1388 1.388 . S
C1390 C1391 1.366 . S
C1391 C1390 1.366 . S
C1391 C1392 1.414 . S
C1391 C1394 1.499 . S
C1392 H1372 0.950 . S
C1392 C1391 1.414 . S
C1392 C1393 1.374 . S
C1393 H1373 0.950 . S
C1393 C1389 1.385 . S
C1393 C1392 1.374 . S
C1394 C1391 1.499 . S
C1394 C1395 1.373 . S
C1394 C1396 1.389 . S
C1395 H1374 0.950 . S
C1395 C1394 1.373 . S
C1395 C1411 1.377 1_556 S
C1396 C1394 1.389 . S
C1396 C1397 1.524 . S
C1396 C1410 1.377 1_556 S
C1397 C1396 1.524 . S
C1397 C1398 1.397 . S
C1397 C1402 1.363 . S
C1398 H1375 0.950 . S
C1398 C1397 1.397 . S
C1398 C1399 1.334 . S
C1399 H1376 0.950 . S
C1399 C1398 1.334 . S
C1399 C1400 1.287 . S
C1400 C1399 1.287 . S
C1400 C1401 1.524 . S
C1400 H1419 0.913 . S
C1401 H1377 0.950 . S
C1401 C1400 1.524 . S
C1401 C1402 1.415 . S
C1402 H1378 0.950 . S
C1402 C1397 1.363 . S
C1402 C1401 1.415 . S
C1403 H1379 0.951 . S
C1403 C1404 1.366 . S
C1403 C1405 1.388 . S
C1404 C1403 1.366 . S
C1404 C1408 1.385 . S
C1405 H1380 0.951 . S
C1405 C1403 1.388 . S
C1405 C1406 1.366 . S
C1406 C1405 1.366 . S
C1406 C1407 1.414 . S
C1406 C1409 1.499 . S
C1407 H1381 0.950 . S
C1407 C1406 1.414 . S
C1407 C1408 1.374 . S
C1408 H1382 0.950 . S
C1408 C1404 1.385 . S
C1408 C1407 1.374 . S
C1409 C1406 1.499 . S
C1409 C1410 1.373 . S
C1409 C1411 1.389 . S
C1410 H1383 0.950 . S
C1410 C1396 1.377 1_554 S
C1410 C1409 1.373 . S
C1411 C1395 1.377 1_554 S
C1411 C1409 1.389 . S
C1411 C1412 1.524 . S
C1412 C1411 1.524 . S
C1412 C1413 1.397 . S
C1412 C1417 1.363 . S
C1413 H1384 0.950 . S
C1413 C1412 1.397 . S
C1413 C1414 1.334 . S
C1414 H1385 0.950 . S
C1414 C1413 1.334 . S
C1414 C1415 1.287 . S
C1415 C1414 1.287 . S
C1415 C1416 1.524 . S
C1415 H1418 0.999 . S
C1416 H1386 0.950 . S
C1416 C1415 1.524 . S
C1416 C1417 1.415 . S
C1417 H1387 0.950 . S
C1417 C1412 1.363 . S
C1417 C1416 1.415 . S
H1418 C1415 0.999 . S
H1419 C1400 0.913 . S
H1420 C1438 0.951 . S
H1421 C1440 0.951 . S
H1422 C1442 0.950 . S
H1423 C1443 0.950 . S
H1424 C1445 0.950 . S
H1425 C1448 0.950 . S
H1426 C1449 0.950 . S
H1427 C1451 0.950 . S
H1428 C1452 0.950 . S
H1429 C1453 0.951 . S
H1430 C1455 0.951 . S
H1431 C1457 0.950 . S
H1432 C1458 0.950 . S
H1433 C1460 0.950 . S
H1434 C1463 0.950 . S
H1435 C1464 0.950 . S
H1436 C1466 0.950 . S
H1437 C1467 0.950 . S
C1438 H1420 0.951 . S
C1438 C1439 1.366 . S
C1438 C1440 1.388 . S
C1439 C1438 1.366 . S
C1439 C1443 1.385 . S
C1440 H1421 0.951 . S
C1440 C1438 1.388 . S
C1440 C1441 1.366 . S
C1441 C1440 1.366 . S
C1441 C1442 1.414 . S
C1441 C1444 1.499 . S
C1442 H1422 0.950 . S
C1442 C1441 1.414 . S
C1442 C1443 1.374 . S
C1443 H1423 0.950 . S
C1443 C1439 1.385 . S
C1443 C1442 1.374 . S
C1444 C1441 1.499 . S
C1444 C1445 1.373 . S
C1444 C1446 1.389 . S
C1445 H1424 0.950 . S
C1445 C1444 1.373 . S
C1445 C1461 1.377 . S
C1446 C1444 1.389 . S
C1446 C1447 1.524 . S
C1446 C1460 1.377 . S
C1447 C1446 1.524 . S
C1447 C1448 1.397 . S
C1447 C1452 1.363 . S
C1448 H1425 0.950 . S
C1448 C1447 1.397 . S
C1448 C1449 1.334 . S
C1449 H1426 0.950 . S
C1449 C1448 1.334 . S
C1449 C1450 1.287 . S
C1450 C1449 1.287 . S
C1450 C1451 1.524 . S
C1450 H1469 0.913 . S
C1451 H1427 0.950 . S
C1451 C1450 1.524 . S
C1451 C1452 1.415 . S
C1452 H1428 0.950 . S
C1452 C1447 1.363 . S
C1452 C1451 1.415 . S
C1453 H1429 0.951 . S
C1453 C1454 1.366 . S
C1453 C1455 1.388 . S
C1454 C1453 1.366 . S
C1454 C1458 1.385 . S
C1455 H1430 0.951 . S
C1455 C1453 1.388 . S
C1455 C1456 1.366 . S
C1456 C1455 1.366 . S
C1456 C1457 1.414 . S
C1456 C1459 1.499 . S
C1457 H1431 0.950 . S
C1457 C1456 1.414 . S
C1457 C1458 1.374 . S
C1458 H1432 0.950 . S
C1458 C1454 1.385 . S
C1458 C1457 1.374 . S
C1459 C1456 1.499 . S
C1459 C1460 1.373 . S
C1459 C1461 1.389 . S
C1460 H1433 0.950 . S
C1460 C1446 1.377 . S
C1460 C1459 1.373 . S
C1461 C1445 1.377 . S
C1461 C1459 1.389 . S
C1461 C1462 1.524 . S
C1462 C1461 1.524 . S
C1462 C1463 1.397 . S
C1462 C1467 1.363 . S
C1463 H1434 0.950 . S
C1463 C1462 1.397 . S
C1463 C1464 1.334 . S
C1464 H1435 0.950 . S
C1464 C1463 1.334 . S
C1464 C1465 1.287 . S
C1465 C1464 1.287 . S
C1465 C1466 1.524 . S
C1465 H1468 0.999 . S
C1466 H1436 0.950 . S
C1466 C1465 1.524 . S
C1466 C1467 1.415 . S
C1467 H1437 0.950 . S
C1467 C1462 1.363 . S
C1467 C1466 1.415 . S
H1468 C1465 0.999 . S
H1469 C1450 0.913 . S
H1470 C1488 0.951 . S
H1471 C1490 0.951 . S
H1472 C1492 0.950 . S
H1473 C1493 0.950 . S
H1474 C1495 0.950 . S
H1475 C1498 0.950 . S
H1476 C1499 0.950 . S
H1477 C1501 0.950 . S
H1478 C1502 0.950 . S
H1479 C1503 0.951 . S
H1480 C1505 0.951 . S
H1481 C1507 0.950 . S
H1482 C1508 0.950 . S
H1483 C1510 0.950 . S
H1484 C1513 0.950 . S
H1485 C1514 0.950 . S
H1486 C1516 0.950 . S
H1487 C1517 0.950 . S
C1488 H1470 0.951 . S
C1488 C1489 1.366 . S
C1488 C1490 1.388 . S
C1489 C1488 1.366 . S
C1489 C1493 1.385 . S
C1490 H1471 0.951 . S
C1490 C1488 1.388 . S
C1490 C1491 1.366 . S
C1491 C1490 1.366 . S
C1491 C1492 1.414 . S
C1491 C1494 1.499 . S
C1492 H1472 0.950 . S
C1492 C1491 1.414 . S
C1492 C1493 1.374 . S
C1493 H1473 0.950 . S
C1493 C1489 1.385 . S
C1493 C1492 1.374 . S
C1494 C1491 1.499 . S
C1494 C1495 1.373 . S
C1494 C1496 1.389 . S
C1495 H1474 0.950 . S
C1495 C1494 1.373 . S
C1495 C1511 1.377 . S
C1496 C1494 1.389 . S
C1496 C1497 1.524 . S
C1496 C1510 1.377 . S
C1497 C1496 1.524 . S
C1497 C1498 1.397 . S
C1497 C1502 1.363 . S
C1498 H1475 0.950 . S
C1498 C1497 1.397 . S
C1498 C1499 1.334 . S
C1499 H1476 0.950 . S
C1499 C1498 1.334 . S
C1499 C1500 1.287 . S
C1500 C1499 1.287 . S
C1500 C1501 1.524 . S
C1500 H1519 0.913 . S
C1501 H1477 0.950 . S
C1501 C1500 1.524 . S
C1501 C1502 1.415 . S
C1502 H1478 0.950 . S
C1502 C1497 1.363 . S
C1502 C1501 1.415 . S
C1503 H1479 0.951 . S
C1503 C1504 1.366 . S
C1503 C1505 1.388 . S
C1504 C1503 1.366 . S
C1504 C1508 1.385 . S
C1505 H1480 0.951 . S
C1505 C1503 1.388 . S
C1505 C1506 1.366 . S
C1506 C1505 1.366 . S
C1506 C1507 1.414 . S
C1506 C1509 1.499 . S
C1507 H1481 0.950 . S
C1507 C1506 1.414 . S
C1507 C1508 1.374 . S
C1508 H1482 0.950 . S
C1508 C1504 1.385 . S
C1508 C1507 1.374 . S
C1509 C1506 1.499 . S
C1509 C1510 1.373 . S
C1509 C1511 1.389 . S
C1510 H1483 0.950 . S
C1510 C1496 1.377 . S
C1510 C1509 1.373 . S
C1511 C1495 1.377 . S
C1511 C1509 1.389 . S
C1511 C1512 1.524 . S
C1512 C1511 1.524 . S
C1512 C1513 1.397 . S
C1512 C1517 1.363 . S
C1513 H1484 0.950 . S
C1513 C1512 1.397 . S
C1513 C1514 1.334 . S
C1514 H1485 0.950 . S
C1514 C1513 1.334 . S
C1514 C1515 1.287 . S
C1515 C1514 1.287 . S
C1515 C1516 1.524 . S
C1515 H1518 0.999 . S
C1516 H1486 0.950 . S
C1516 C1515 1.524 . S
C1516 C1517 1.415 . S
C1517 H1487 0.950 . S
C1517 C1512 1.363 . S
C1517 C1516 1.415 . S
H1518 C1515 0.999 . S
H1519 C1500 0.913 . S
H1520 C1538 0.951 . S
H1521 C1540 0.951 . S
H1522 C1542 0.950 . S
H1523 C1543 0.950 . S
H1524 C1545 0.950 . S
H1525 C1548 0.950 . S
H1526 C1549 0.950 . S
H1527 C1551 0.950 . S
H1528 C1552 0.950 . S
H1529 C1553 0.951 . S
H1530 C1555 0.951 . S
H1531 C1557 0.950 . S
H1532 C1558 0.950 . S
H1533 C1560 0.950 . S
H1534 C1563 0.950 . S
H1535 C1564 0.950 . S
H1536 C1566 0.950 . S
H1537 C1567 0.950 . S
C1538 H1520 0.951 . S
C1538 C1539 1.366 1_545 S
C1538 C1540 1.388 . S
C1539 C1538 1.366 1_565 S
C1539 C1543 1.385 . S
C1540 H1521 0.951 . S
C1540 C1538 1.388 . S
C1540 C1541 1.366 1_545 S
C1541 C1540 1.366 1_565 S
C1541 C1542 1.414 . S
C1541 C1544 1.499 . S
C1542 H1522 0.950 . S
C1542 C1541 1.414 . S
C1542 C1543 1.374 . S
C1543 H1523 0.950 . S
C1543 C1539 1.385 . S
C1543 C1542 1.374 . S
C1544 C1541 1.499 . S
C1544 C1545 1.373 . S
C1544 C1546 1.389 1_565 S
C1545 H1524 0.950 . S
C1545 C1544 1.373 . S
C1545 C1561 1.377 1_655 S
C1546 C1544 1.389 1_545 S
C1546 C1547 1.524 . S
C1546 C1560 1.377 1_655 S
C1547 C1546 1.524 . S
C1547 C1548 1.397 . S
C1547 C1552 1.363 . S
C1548 H1525 0.950 . S
C1548 C1547 1.397 . S
C1548 C1549 1.334 . S
C1549 H1526 0.950 . S
C1549 C1548 1.334 . S
C1549 C1550 1.287 . S
C1550 C1549 1.287 . S
C1550 C1551 1.524 . S
C1550 H1569 0.913 . S
C1551 H1527 0.950 . S
C1551 C1550 1.524 . S
C1551 C1552 1.415 . S
C1552 H1528 0.950 . S
C1552 C1547 1.363 . S
C1552 C1551 1.415 . S
C1553 H1529 0.951 . S
C1553 C1554 1.366 1_565 S
C1553 C1555 1.388 . S
C1554 C1553 1.366 1_545 S
C1554 C1558 1.385 . S
C1555 H1530 0.951 . S
C1555 C1553 1.388 . S
C1555 C1556 1.366 1_565 S
C1556 C1555 1.366 1_545 S
C1556 C1557 1.414 . S
C1556 C1559 1.499 . S
C1557 H1531 0.950 . S
C1557 C1556 1.414 . S
C1557 C1558 1.374 . S
C1558 H1532 0.950 . S
C1558 C1554 1.385 . S
C1558 C1557 1.374 . S
C1559 C1556 1.499 . S
C1559 C1560 1.373 . S
C1559 C1561 1.389 1_545 S
C1560 H1533 0.950 . S
C1560 C1546 1.377 1_455 S
C1560 C1559 1.373 . S
C1561 C1545 1.377 1_455 S
C1561 C1559 1.389 1_565 S
C1561 C1562 1.524 . S
C1562 C1561 1.524 . S
C1562 C1563 1.397 . S
C1562 C1567 1.363 . S
C1563 H1534 0.950 . S
C1563 C1562 1.397 . S
C1563 C1564 1.334 . S
C1564 H1535 0.950 . S
C1564 C1563 1.334 . S
C1564 C1565 1.287 . S
C1565 C1564 1.287 . S
C1565 C1566 1.524 . S
C1565 H1568 0.999 . S
C1566 H1536 0.950 . S
C1566 C1565 1.524 . S
C1566 C1567 1.415 . S
C1567 H1537 0.950 . S
C1567 C1562 1.363 . S
C1567 C1566 1.415 . S
H1568 C1565 0.999 . S
H1569 C1550 0.913 . S
H1570 C1588 0.951 . S
H1571 C1590 0.951 . S
H1572 C1592 0.950 . S
H1573 C1593 0.950 . S
H1574 C1595 0.950 . S
H1575 C1598 0.950 . S
H1576 C1599 0.950 . S
H1577 C1601 0.950 . S
H1578 C1602 0.950 . S
H1579 C1603 0.951 . S
H1580 C1605 0.951 . S
H1581 C1607 0.950 . S
H1582 C1608 0.950 . S
H1583 C1610 0.950 . S
H1584 C1613 0.950 . S
H1585 C1614 0.950 . S
H1586 C1616 0.950 . S
H1587 C1617 0.950 . S
C1588 H1570 0.951 . S
C1588 C1589 1.366 . S
C1588 C1590 1.388 . S
C1589 C1588 1.366 . S
C1589 C1593 1.385 1_545 S
C1590 H1571 0.951 . S
C1590 C1588 1.388 . S
C1590 C1591 1.366 . S
C1591 C1590 1.366 . S
C1591 C1592 1.414 1_545 S
C1591 C1594 1.499 . S
C1592 H1572 0.950 . S
C1592 C1591 1.414 1_565 S
C1592 C1593 1.374 . S
C1593 H1573 0.950 . S
C1593 C1589 1.385 1_565 S
C1593 C1592 1.374 . S
C1594 C1591 1.499 . S
C1594 C1595 1.373 . S
C1594 C1596 1.389 1_545 S
C1595 H1574 0.950 . S
C1595 C1594 1.373 . S
C1595 C1611 1.377 1_655 S
C1596 C1594 1.389 1_565 S
C1596 C1597 1.524 . S
C1596 C1610 1.377 1_655 S
C1597 C1596 1.524 . S
C1597 C1598 1.397 . S
C1597 C1602 1.363 1_565 S
C1598 H1575 0.950 . S
C1598 C1597 1.397 . S
C1598 C1599 1.334 . S
C1599 H1576 0.950 . S
C1599 C1598 1.334 . S
C1599 C1600 1.287 . S
C1600 C1599 1.287 . S
C1600 C1601 1.524 1_565 S
C1600 H1619 0.913 . S
C1601 H1577 0.950 . S
C1601 C1600 1.524 1_545 S
C1601 C1602 1.415 . S
C1602 H1578 0.950 . S
C1602 C1597 1.363 1_545 S
C1602 C1601 1.415 . S
C1603 H1579 0.951 . S
C1603 C1604 1.366 . S
C1603 C1605 1.388 . S
C1604 C1603 1.366 . S
C1604 C1608 1.385 1_565 S
C1605 H1580 0.951 . S
C1605 C1603 1.388 . S
C1605 C1606 1.366 . S
C1606 C1605 1.366 . S
C1606 C1607 1.414 1_565 S
C1606 C1609 1.499 . S
C1607 H1581 0.950 . S
C1607 C1606 1.414 1_545 S
C1607 C1608 1.374 . S
C1608 H1582 0.950 . S
C1608 C1604 1.385 1_545 S
C1608 C1607 1.374 . S
C1609 C1606 1.499 . S
C1609 C1610 1.373 . S
C1609 C1611 1.389 1_565 S
C1610 H1583 0.950 . S
C1610 C1596 1.377 1_455 S
C1610 C1609 1.373 . S
C1611 C1595 1.377 1_455 S
C1611 C1609 1.389 1_545 S
C1611 C1612 1.524 . S
C1612 C1611 1.524 . S
C1612 C1613 1.397 . S
C1612 C1617 1.363 1_545 S
C1613 H1584 0.950 . S
C1613 C1612 1.397 . S
C1613 C1614 1.334 . S
C1614 H1585 0.950 . S
C1614 C1613 1.334 . S
C1614 C1615 1.287 . S
C1615 C1614 1.287 . S
C1615 C1616 1.524 1_545 S
C1615 H1618 0.999 . S
C1616 H1586 0.950 . S
C1616 C1615 1.524 1_565 S
C1616 C1617 1.415 . S
C1617 H1587 0.950 . S
C1617 C1612 1.363 1_565 S
C1617 C1616 1.415 . S
H1618 C1615 0.999 . S
H1619 C1600 0.913 . S
H1620 C1638 0.951 . S
H1621 C1640 0.951 . S
H1622 C1642 0.950 . S
H1623 C1643 0.950 . S
H1624 C1645 0.950 . S
H1625 C1648 0.950 . S
H1626 C1649 0.950 . S
H1627 C1651 0.950 . S
H1628 C1652 0.950 . S
H1629 C1653 0.951 . S
H1630 C1655 0.951 . S
H1631 C1657 0.950 . S
H1632 C1658 0.950 . S
H1633 C1660 0.950 . S
H1634 C1663 0.950 . S
H1635 C1664 0.950 . S
H1636 C1666 0.950 . S
H1637 C1667 0.950 . S
C1638 H1620 0.951 . S
C1638 C1639 1.366 . S
C1638 C1640 1.388 . S
C1639 C1638 1.366 . S
C1639 C1643 1.385 . S
C1640 H1621 0.951 . S
C1640 C1638 1.388 . S
C1640 C1641 1.366 . S
C1641 C1640 1.366 . S
C1641 C1642 1.414 . S
C1641 C1644 1.499 . S
C1642 H1622 0.950 . S
C1642 C1641 1.414 . S
C1642 C1643 1.374 . S
C1643 H1623 0.950 . S
C1643 C1639 1.385 . S
C1643 C1642 1.374 . S
C1644 C1641 1.499 . S
C1644 C1645 1.373 1_545 S
C1644 C1646 1.389 . S
C1645 H1624 0.950 . S
C1645 C1644 1.373 1_565 S
C1645 C1661 1.377 1_455 S
C1646 C1644 1.389 . S
C1646 C1647 1.524 . S
C1646 C1660 1.377 1_455 S
C1647 C1646 1.524 . S
C1647 C1648 1.397 . S
C1647 C1652 1.363 . S
C1648 H1625 0.950 . S
C1648 C1647 1.397 . S
C1648 C1649 1.334 . S
C1649 H1626 0.950 . S
C1649 C1648 1.334 . S
C1649 C1650 1.287 . S
C1650 C1649 1.287 . S
C1650 C1651 1.524 . S
C1650 H1669 0.913 . S
C1651 H1627 0.950 . S
C1651 C1650 1.524 . S
C1651 C1652 1.415 . S
C1652 H1628 0.950 . S
C1652 C1647 1.363 . S
C1652 C1651 1.415 . S
C1653 H1629 0.951 . S
C1653 C1654 1.366 . S
C1653 C1655 1.388 . S
C1654 C1653 1.366 . S
C1654 C1658 1.385 . S
C1655 H1630 0.951 . S
C1655 C1653 1.388 . S
C1655 C1656 1.366 . S
C1656 C1655 1.366 . S
C1656 C1657 1.414 . S
C1656 C1659 1.499 . S
C1657 H1631 0.950 . S
C1657 C1656 1.414 . S
C1657 C1658 1.374 . S
C1658 H1632 0.950 . S
C1658 C1654 1.385 . S
C1658 C1657 1.374 . S
C1659 C1656 1.499 . S
C1659 C1660 1.373 1_565 S
C1659 C1661 1.389 . S
C1660 H1633 0.950 . S
C1660 C1646 1.377 1_655 S
C1660 C1659 1.373 1_545 S
C1661 C1645 1.377 1_655 S
C1661 C1659 1.389 . S
C1661 C1662 1.524 . S
C1662 C1661 1.524 . S
C1662 C1663 1.397 . S
C1662 C1667 1.363 . S
C1663 H1634 0.950 . S
C1663 C1662 1.397 . S
C1663 C1664 1.334 . S
C1664 H1635 0.950 . S
C1664 C1663 1.334 . S
C1664 C1665 1.287 . S
C1665 C1664 1.287 . S
C1665 C1666 1.524 . S
C1665 H1668 0.999 . S
C1666 H1636 0.950 . S
C1666 C1665 1.524 . S
C1666 C1667 1.415 . S
C1667 H1637 0.950 . S
C1667 C1662 1.363 . S
C1667 C1666 1.415 . S
H1668 C1665 0.999 . S
H1669 C1650 0.913 . S
H1670 C1688 0.951 . S
H1671 C1690 0.951 . S
H1672 C1692 0.950 . S
H1673 C1693 0.950 . S
H1674 C1695 0.950 . S
H1675 C1698 0.950 . S
H1676 C1699 0.950 . S
H1677 C1701 0.950 . S
H1678 C1702 0.950 1_455 S
H1679 C1703 0.951 . S
H1680 C1705 0.951 . S
H1681 C1707 0.950 . S
H1682 C1708 0.950 . S
H1683 C1710 0.950 . S
H1684 C1713 0.950 . S
H1685 C1714 0.950 . S
H1686 C1716 0.950 . S
H1687 C1717 0.950 1_655 S
C1688 H1670 0.951 . S
C1688 C1689 1.366 . S
C1688 C1690 1.388 . S
C1689 C1688 1.366 . S
C1689 C1693 1.385 1_545 S
C1690 H1671 0.951 . S
C1690 C1688 1.388 . S
C1690 C1691 1.366 . S
C1691 C1690 1.366 . S
C1691 C1692 1.414 1_545 S
C1691 C1694 1.499 . S
C1692 H1672 0.950 . S
C1692 C1691 1.414 1_565 S
C1692 C1693 1.374 . S
C1693 H1673 0.950 . S
C1693 C1689 1.385 1_565 S
C1693 C1692 1.374 . S
C1694 C1691 1.499 . S
C1694 C1695 1.373 1_545 S
C1694 C1696 1.389 . S
C1695 H1674 0.950 . S
C1695 C1694 1.373 1_565 S
C1695 C1711 1.377 1_655 S
C1696 C1694 1.389 . S
C1696 C1697 1.524 . S
C1696 C1710 1.377 1_655 S
C1697 C1696 1.524 . S
C1697 C1698 1.397 . S
C1697 C1702 1.363 . S
C1698 H1675 0.950 . S
C1698 C1697 1.397 . S
C1698 C1699 1.334 . S
C1699 H1676 0.950 . S
C1699 C1698 1.334 . S
C1699 C1700 1.287 . S
C1700 C1699 1.287 . S
C1700 C1701 1.524 . S
C1700 H1719 0.913 . S
C1701 H1677 0.950 . S
C1701 C1700 1.524 . S
C1701 C1702 1.415 . S
C1702 H1678 0.950 1_655 S
C1702 C1697 1.363 . S
C1702 C1701 1.415 . S
C1703 H1679 0.951 . S
C1703 C1704 1.366 . S
C1703 C1705 1.388 . S
C1704 C1703 1.366 . S
C1704 C1708 1.385 1_565 S
C1705 H1680 0.951 . S
C1705 C1703 1.388 . S
C1705 C1706 1.366 . S
C1706 C1705 1.366 . S
C1706 C1707 1.414 1_565 S
C1706 C1709 1.499 . S
C1707 H1681 0.950 . S
C1707 C1706 1.414 1_545 S
C1707 C1708 1.374 . S
C1708 H1682 0.950 . S
C1708 C1704 1.385 1_545 S
C1708 C1707 1.374 . S
C1709 C1706 1.499 . S
C1709 C1710 1.373 1_565 S
C1709 C1711 1.389 . S
C1710 H1683 0.950 . S
C1710 C1696 1.377 1_455 S
C1710 C1709 1.373 1_545 S
C1711 C1695 1.377 1_455 S
C1711 C1709 1.389 . S
C1711 C1712 1.524 . S
C1712 C1711 1.524 . S
C1712 C1713 1.397 . S
C1712 C1717 1.363 . S
C1713 H1684 0.950 . S
C1713 C1712 1.397 . S
C1713 C1714 1.334 . S
C1714 H1685 0.950 . S
C1714 C1713 1.334 . S
C1714 C1715 1.287 . S
C1715 C1714 1.287 . S
C1715 C1716 1.524 . S
C1715 H1718 0.999 . S
C1716 H1686 0.950 . S
C1716 C1715 1.524 . S
C1716 C1717 1.415 . S
C1717 H1687 0.950 1_455 S
C1717 C1712 1.363 . S
C1717 C1716 1.415 . S
H1718 C1715 0.999 . S
H1719 C1700 0.913 . S
H1720 C1738 0.951 . S
H1721 C1740 0.951 . S
H1722 C1742 0.950 . S
H1723 C1743 0.950 . S
H1724 C1745 0.950 . S
H1725 C1748 0.950 . S
H1726 C1749 0.950 . S
H1727 C1751 0.950 . S
H1728 C1752 0.950 . S
H1729 C1753 0.951 . S
H1730 C1755 0.951 . S
H1731 C1757 0.950 . S
H1732 C1758 0.950 . S
H1733 C1760 0.950 . S
H1734 C1763 0.950 . S
H1735 C1764 0.950 . S
H1736 C1766 0.950 . S
H1737 C1767 0.950 . S
C1738 H1720 0.951 . S
C1738 C1739 1.366 . S
C1738 C1740 1.388 . S
C1739 C1738 1.366 . S
C1739 C1743 1.385 . S
C1740 H1721 0.951 . S
C1740 C1738 1.388 . S
C1740 C1741 1.366 . S
C1741 C1740 1.366 . S
C1741 C1742 1.414 . S
C1741 C1744 1.499 . S
C1742 H1722 0.950 . S
C1742 C1741 1.414 . S
C1742 C1743 1.374 . S
C1743 H1723 0.950 . S
C1743 C1739 1.385 . S
C1743 C1742 1.374 . S
C1744 C1741 1.499 . S
C1744 C1745 1.373 . S
C1744 C1746 1.389 . S
C1745 H1724 0.950 . S
C1745 C1744 1.373 . S
C1745 C1761 1.377 . S
C1746 C1744 1.389 . S
C1746 C1747 1.524 . S
C1746 C1760 1.377 . S
C1747 C1746 1.524 . S
C1747 C1748 1.397 . S
C1747 C1752 1.363 . S
C1748 H1725 0.950 . S
C1748 C1747 1.397 . S
C1748 C1749 1.334 . S
C1749 H1726 0.950 . S
C1749 C1748 1.334 . S
C1749 C1750 1.287 . S
C1750 C1749 1.287 . S
C1750 C1751 1.524 . S
C1750 H1769 0.913 . S
C1751 H1727 0.950 . S
C1751 C1750 1.524 . S
C1751 C1752 1.415 . S
C1752 H1728 0.950 . S
C1752 C1747 1.363 . S
C1752 C1751 1.415 . S
C1753 H1729 0.951 . S
C1753 C1754 1.366 . S
C1753 C1755 1.388 . S
C1754 C1753 1.366 . S
C1754 C1758 1.385 . S
C1755 H1730 0.951 . S
C1755 C1753 1.388 . S
C1755 C1756 1.366 . S
C1756 C1755 1.366 . S
C1756 C1757 1.414 . S
C1756 C1759 1.499 . S
C1757 H1731 0.950 . S
C1757 C1756 1.414 . S
C1757 C1758 1.374 . S
C1758 H1732 0.950 . S
C1758 C1754 1.385 . S
C1758 C1757 1.374 . S
C1759 C1756 1.499 . S
C1759 C1760 1.373 . S
C1759 C1761 1.389 . S
C1760 H1733 0.950 . S
C1760 C1746 1.377 . S
C1760 C1759 1.373 . S
C1761 C1745 1.377 . S
C1761 C1759 1.389 . S
C1761 C1762 1.524 . S
C1762 C1761 1.524 . S
C1762 C1763 1.397 . S
C1762 C1767 1.363 . S
C1763 H1734 0.950 . S
C1763 C1762 1.397 . S
C1763 C1764 1.334 . S
C1764 H1735 0.950 . S
C1764 C1763 1.334 . S
C1764 C1765 1.287 . S
C1765 C1764 1.287 . S
C1765 C1766 1.524 . S
C1765 H1768 0.999 . S
C1766 H1736 0.950 . S
C1766 C1765 1.524 . S
C1766 C1767 1.415 . S
C1767 H1737 0.950 . S
C1767 C1762 1.363 . S
C1767 C1766 1.415 . S
H1768 C1765 0.999 . S
H1769 C1750 0.913 . S
H1770 C1788 0.951 . S
H1771 C1790 0.951 . S
H1772 C1792 0.950 . S
H1773 C1793 0.950 . S
H1774 C1795 0.950 . S
H1775 C1798 0.950 . S
H1776 C1799 0.950 . S
H1777 C1801 0.950 . S
H1778 C1802 0.950 . S
H1779 C1803 0.951 . S
H1780 C1805 0.951 . S
H1781 C1807 0.950 . S
H1782 C1808 0.950 . S
H1783 C1810 0.950 . S
H1784 C1813 0.950 . S
H1785 C1814 0.950 . S
H1786 C1816 0.950 . S
H1787 C1817 0.950 . S
C1788 H1770 0.951 . S
C1788 C1789 1.366 . S
C1788 C1790 1.388 . S
C1789 C1788 1.366 . S
C1789 C1793 1.385 . S
C1790 H1771 0.951 . S
C1790 C1788 1.388 . S
C1790 C1791 1.366 . S
C1791 C1790 1.366 . S
C1791 C1792 1.414 . S
C1791 C1794 1.499 . S
C1792 H1772 0.950 . S
C1792 C1791 1.414 . S
C1792 C1793 1.374 . S
C1793 H1773 0.950 . S
C1793 C1789 1.385 . S
C1793 C1792 1.374 . S
C1794 C1791 1.499 . S
C1794 C1795 1.373 . S
C1794 C1796 1.389 . S
C1795 H1774 0.950 . S
C1795 C1794 1.373 . S
C1795 C1811 1.377 . S
C1796 C1794 1.389 . S
C1796 C1797 1.524 . S
C1796 C1810 1.377 . S
C1797 C1796 1.524 . S
C1797 C1798 1.397 . S
C1797 C1802 1.363 . S
C1798 H1775 0.950 . S
C1798 C1797 1.397 . S
C1798 C1799 1.334 . S
C1799 H1776 0.950 . S
C1799 C1798 1.334 . S
C1799 C1800 1.287 . S
C1800 C1799 1.287 . S
C1800 C1801 1.524 . S
C1800 H1819 0.913 . S
C1801 H1777 0.950 . S
C1801 C1800 1.524 . S
C1801 C1802 1.415 . S
C1802 H1778 0.950 . S
C1802 C1797 1.363 . S
C1802 C1801 1.415 . S
C1803 H1779 0.951 . S
C1803 C1804 1.366 . S
C1803 C1805 1.388 . S
C1804 C1803 1.366 . S
C1804 C1808 1.385 . S
C1805 H1780 0.951 . S
C1805 C1803 1.388 . S
C1805 C1806 1.366 . S
C1806 C1805 1.366 . S
C1806 C1807 1.414 . S
C1806 C1809 1.499 . S
C1807 H1781 0.950 . S
C1807 C1806 1.414 . S
C1807 C1808 1.374 . S
C1808 H1782 0.950 . S
C1808 C1804 1.385 . S
C1808 C1807 1.374 . S
C1809 C1806 1.499 . S
C1809 C1810 1.373 . S
C1809 C1811 1.389 . S
C1810 H1783 0.950 . S
C1810 C1796 1.377 . S
C1810 C1809 1.373 . S
C1811 C1795 1.377 . S
C1811 C1809 1.389 . S
C1811 C1812 1.524 . S
C1812 C1811 1.524 . S
C1812 C1813 1.397 . S
C1812 C1817 1.363 . S
C1813 H1784 0.950 . S
C1813 C1812 1.397 . S
C1813 C1814 1.334 . S
C1814 H1785 0.950 . S
C1814 C1813 1.334 . S
C1814 C1815 1.287 . S
C1815 C1814 1.287 . S
C1815 C1816 1.524 . S
C1815 H1818 0.999 . S
C1816 H1786 0.950 . S
C1816 C1815 1.524 . S
C1816 C1817 1.415 . S
C1817 H1787 0.950 . S
C1817 C1812 1.363 . S
C1817 C1816 1.415 . S
H1818 C1815 0.999 . S
H1819 C1800 0.913 . S
H1820 C1838 0.951 . S
H1821 C1840 0.951 . S
H1822 C1842 0.950 . S
H1823 C1843 0.950 . S
H1824 C1845 0.950 . S
H1825 C1848 0.950 . S
H1826 C1849 0.950 . S
H1827 C1851 0.950 . S
H1828 C1852 0.950 . S
H1829 C1853 0.951 . S
H1830 C1855 0.951 . S
H1831 C1857 0.950 . S
H1832 C1858 0.950 . S
H1833 C1860 0.950 . S
H1834 C1863 0.950 . S
H1835 C1864 0.950 . S
H1836 C1866 0.950 . S
H1837 C1867 0.950 . S
C1838 H1820 0.951 . S
C1838 C1839 1.366 . S
C1838 C1840 1.388 . S
C1839 C1838 1.366 . S
C1839 C1843 1.385 . S
C1840 H1821 0.951 . S
C1840 C1838 1.388 . S
C1840 C1841 1.366 . S
C1841 C1840 1.366 . S
C1841 C1842 1.414 . S
C1841 C1844 1.499 . S
C1842 H1822 0.950 . S
C1842 C1841 1.414 . S
C1842 C1843 1.374 . S
C1843 H1823 0.950 . S
C1843 C1839 1.385 . S
C1843 C1842 1.374 . S
C1844 C1841 1.499 . S
C1844 C1845 1.373 . S
C1844 C1846 1.389 . S
C1845 H1824 0.950 . S
C1845 C1844 1.373 . S
C1845 C1861 1.377 . S
C1846 C1844 1.389 . S
C1846 C1847 1.524 . S
C1846 C1860 1.377 . S
C1847 C1846 1.524 . S
C1847 C1848 1.397 . S
C1847 C1852 1.363 . S
C1848 H1825 0.950 . S
C1848 C1847 1.397 . S
C1848 C1849 1.334 . S
C1849 H1826 0.950 . S
C1849 C1848 1.334 . S
C1849 C1850 1.287 . S
C1850 C1849 1.287 . S
C1850 C1851 1.524 . S
C1850 H1869 0.913 . S
C1851 H1827 0.950 . S
C1851 C1850 1.524 . S
C1851 C1852 1.415 . S
C1852 H1828 0.950 . S
C1852 C1847 1.363 . S
C1852 C1851 1.415 . S
C1853 H1829 0.951 . S
C1853 C1854 1.366 . S
C1853 C1855 1.388 . S
C1854 C1853 1.366 . S
C1854 C1858 1.385 . S
C1855 H1830 0.951 . S
C1855 C1853 1.388 . S
C1855 C1856 1.366 . S
C1856 C1855 1.366 . S
C1856 C1857 1.414 . S
C1856 C1859 1.499 . S
C1857 H1831 0.950 . S
C1857 C1856 1.414 . S
C1857 C1858 1.374 . S
C1858 H1832 0.950 . S
C1858 C1854 1.385 . S
C1858 C1857 1.374 . S
C1859 C1856 1.499 . S
C1859 C1860 1.373 . S
C1859 C1861 1.389 . S
C1860 H1833 0.950 . S
C1860 C1846 1.377 . S
C1860 C1859 1.373 . S
C1861 C1845 1.377 . S
C1861 C1859 1.389 . S
C1861 C1862 1.524 . S
C1862 C1861 1.524 . S
C1862 C1863 1.397 . S
C1862 C1867 1.363 . S
C1863 H1834 0.950 . S
C1863 C1862 1.397 . S
C1863 C1864 1.334 . S
C1864 H1835 0.950 . S
C1864 C1863 1.334 . S
C1864 C1865 1.287 . S
C1865 C1864 1.287 . S
C1865 C1866 1.524 . S
C1865 H1868 0.999 . S
C1866 H1836 0.950 . S
C1866 C1865 1.524 . S
C1866 C1867 1.415 . S
C1867 H1837 0.950 . S
C1867 C1862 1.363 . S
C1867 C1866 1.415 . S
H1868 C1865 0.999 . S
H1869 C1850 0.913 . S
H1870 C1888 0.951 . S
H1871 C1890 0.951 . S
H1872 C1892 0.950 . S
H1873 C1893 0.950 . S
H1874 C1895 0.950 . S
H1875 C1898 0.950 . S
H1876 C1899 0.950 . S
H1877 C1901 0.950 . S
H1878 C1902 0.950 . S
H1879 C1903 0.951 . S
H1880 C1905 0.951 . S
H1881 C1907 0.950 . S
H1882 C1908 0.950 . S
H1883 C1910 0.950 . S
H1884 C1913 0.950 . S
H1885 C1914 0.950 . S
H1886 C1916 0.950 . S
H1887 C1917 0.950 . S
C1888 H1870 0.951 . S
C1888 C1889 1.366 . S
C1888 C1890 1.388 . S
C1889 C1888 1.366 . S
C1889 C1893 1.385 . S
C1890 H1871 0.951 . S
C1890 C1888 1.388 . S
C1890 C1891 1.366 . S
C1891 C1890 1.366 . S
C1891 C1892 1.414 . S
C1891 C1894 1.499 . S
C1892 H1872 0.950 . S
C1892 C1891 1.414 . S
C1892 C1893 1.374 . S
C1893 H1873 0.950 . S
C1893 C1889 1.385 . S
C1893 C1892 1.374 . S
C1894 C1891 1.499 . S
C1894 C1895 1.373 . S
C1894 C1896 1.389 . S
C1895 H1874 0.950 . S
C1895 C1894 1.373 . S
C1895 C1911 1.377 . S
C1896 C1894 1.389 . S
C1896 C1897 1.524 . S
C1896 C1910 1.377 . S
C1897 C1896 1.524 . S
C1897 C1898 1.397 . S
C1897 C1902 1.363 . S
C1898 H1875 0.950 . S
C1898 C1897 1.397 . S
C1898 C1899 1.334 . S
C1899 H1876 0.950 . S
C1899 C1898 1.334 . S
C1899 C1900 1.287 . S
C1900 C1899 1.287 . S
C1900 C1901 1.524 . S
C1900 H1919 0.913 . S
C1901 H1877 0.950 . S
C1901 C1900 1.524 . S
C1901 C1902 1.415 . S
C1902 H1878 0.950 . S
C1902 C1897 1.363 . S
C1902 C1901 1.415 . S
C1903 H1879 0.951 . S
C1903 C1904 1.366 . S
C1903 C1905 1.388 . S
C1904 C1903 1.366 . S
C1904 C1908 1.385 . S
C1905 H1880 0.951 . S
C1905 C1903 1.388 . S
C1905 C1906 1.366 . S
C1906 C1905 1.366 . S
C1906 C1907 1.414 . S
C1906 C1909 1.499 . S
C1907 H1881 0.950 . S
C1907 C1906 1.414 . S
C1907 C1908 1.374 . S
C1908 H1882 0.950 . S
C1908 C1904 1.385 . S
C1908 C1907 1.374 . S
C1909 C1906 1.499 . S
C1909 C1910 1.373 . S
C1909 C1911 1.389 . S
C1910 H1883 0.950 . S
C1910 C1896 1.377 . S
C1910 C1909 1.373 . S
C1911 C1895 1.377 . S
C1911 C1909 1.389 . S
C1911 C1912 1.524 . S
C1912 C1911 1.524 . S
C1912 C1913 1.397 . S
C1912 C1917 1.363 . S
C1913 H1884 0.950 . S
C1913 C1912 1.397 . S
C1913 C1914 1.334 . S
C1914 H1885 0.950 . S
C1914 C1913 1.334 . S
C1914 C1915 1.287 . S
C1915 C1914 1.287 . S
C1915 C1916 1.524 . S
C1915 H1918 0.999 . S
C1916 H1886 0.950 . S
C1916 C1915 1.524 . S
C1916 C1917 1.415 . S
C1917 H1887 0.950 . S
C1917 C1912 1.363 . S
C1917 C1916 1.415 . S
H1918 C1915 0.999 . S
H1919 C1900 0.913 . S
H1920 C1938 0.951 . S
H1921 C1940 0.951 . S
H1922 C1942 0.950 . S
H1923 C1943 0.950 . S
H1924 C1945 0.950 . S
H1925 C1948 0.950 . S
H1926 C1949 0.950 . S
H1927 C1951 0.950 . S
H1928 C1952 0.950 . S
H1929 C1953 0.951 . S
H1930 C1955 0.951 . S
H1931 C1957 0.950 . S
H1932 C1958 0.950 . S
H1933 C1960 0.950 . S
H1934 C1963 0.950 . S
H1935 C1964 0.950 . S
H1936 C1966 0.950 . S
H1937 C1967 0.950 . S
C1938 H1920 0.951 . S
C1938 C1939 1.366 . S
C1938 C1940 1.388 . S
C1939 C1938 1.366 . S
C1939 C1943 1.385 . S
C1940 H1921 0.951 . S
C1940 C1938 1.388 . S
C1940 C1941 1.366 . S
C1941 C1940 1.366 . S
C1941 C1942 1.414 . S
C1941 C1944 1.499 . S
C1942 H1922 0.950 . S
C1942 C1941 1.414 . S
C1942 C1943 1.374 . S
C1943 H1923 0.950 . S
C1943 C1939 1.385 . S
C1943 C1942 1.374 . S
C1944 C1941 1.499 . S
C1944 C1945 1.373 . S
C1944 C1946 1.389 . S
C1945 H1924 0.950 . S
C1945 C1944 1.373 . S
C1945 C1961 1.377 . S
C1946 C1944 1.389 . S
C1946 C1947 1.524 . S
C1946 C1960 1.377 . S
C1947 C1946 1.524 . S
C1947 C1948 1.397 . S
C1947 C1952 1.363 . S
C1948 H1925 0.950 . S
C1948 C1947 1.397 . S
C1948 C1949 1.334 . S
C1949 H1926 0.950 . S
C1949 C1948 1.334 . S
C1949 C1950 1.287 . S
C1950 C1949 1.287 . S
C1950 C1951 1.524 . S
C1950 H1969 0.913 . S
C1951 H1927 0.950 . S
C1951 C1950 1.524 . S
C1951 C1952 1.415 . S
C1952 H1928 0.950 . S
C1952 C1947 1.363 . S
C1952 C1951 1.415 . S
C1953 H1929 0.951 . S
C1953 C1954 1.366 . S
C1953 C1955 1.388 . S
C1954 C1953 1.366 . S
C1954 C1958 1.385 . S
C1955 H1930 0.951 . S
C1955 C1953 1.388 . S
C1955 C1956 1.366 . S
C1956 C1955 1.366 . S
C1956 C1957 1.414 . S
C1956 C1959 1.499 . S
C1957 H1931 0.950 . S
C1957 C1956 1.414 . S
C1957 C1958 1.374 . S
C1958 H1932 0.950 . S
C1958 C1954 1.385 . S
C1958 C1957 1.374 . S
C1959 C1956 1.499 . S
C1959 C1960 1.373 . S
C1959 C1961 1.389 . S
C1960 H1933 0.950 . S
C1960 C1946 1.377 . S
C1960 C1959 1.373 . S
C1961 C1945 1.377 . S
C1961 C1959 1.389 . S
C1961 C1962 1.524 . S
C1962 C1961 1.524 . S
C1962 C1963 1.397 . S
C1962 C1967 1.363 . S
C1963 H1934 0.950 . S
C1963 C1962 1.397 . S
C1963 C1964 1.334 . S
C1964 H1935 0.950 . S
C1964 C1963 1.334 . S
C1964 C1965 1.287 . S
C1965 C1964 1.287 . S
C1965 C1966 1.524 . S
C1965 H1968 0.999 . S
C1966 H1936 0.950 . S
C1966 C1965 1.524 . S
C1966 C1967 1.415 . S
C1967 H1937 0.950 . S
C1967 C1962 1.363 . S
C1967 C1966 1.415 . S
H1968 C1965 0.999 . S
H1969 C1950 0.913 . S
H1970 C1988 0.951 . S
H1971 C1990 0.951 . S
H1972 C1992 0.950 . S
H1973 C1993 0.950 . S
H1974 C1995 0.950 . S
H1975 C1998 0.950 . S
H1976 C1999 0.950 . S
H1977 C2001 0.950 . S
H1978 C2002 0.950 . S
H1979 C2003 0.951 . S
H1980 C2005 0.951 . S
H1981 C2007 0.950 . S
H1982 C2008 0.950 . S
H1983 C2010 0.950 . S
H1984 C2013 0.950 . S
H1985 C2014 0.950 . S
H1986 C2016 0.950 . S
H1987 C2017 0.950 . S
C1988 H1970 0.951 . S
C1988 C1989 1.366 . S
C1988 C1990 1.388 . S
C1989 C1988 1.366 . S
C1989 C1993 1.385 . S
C1990 H1971 0.951 . S
C1990 C1988 1.388 . S
C1990 C1991 1.366 . S
C1991 C1990 1.366 . S
C1991 C1992 1.414 . S
C1991 C1994 1.499 . S
C1992 H1972 0.950 . S
C1992 C1991 1.414 . S
C1992 C1993 1.374 . S
C1993 H1973 0.950 . S
C1993 C1989 1.385 . S
C1993 C1992 1.374 . S
C1994 C1991 1.499 . S
C1994 C1995 1.373 . S
C1994 C1996 1.389 . S
C1995 H1974 0.950 . S
C1995 C1994 1.373 . S
C1995 C2011 1.377 . S
C1996 C1994 1.389 . S
C1996 C1997 1.524 . S
C1996 C2010 1.377 . S
C1997 C1996 1.524 . S
C1997 C1998 1.397 . S
C1997 C2002 1.363 . S
C1998 H1975 0.950 . S
C1998 C1997 1.397 . S
C1998 C1999 1.334 . S
C1999 H1976 0.950 . S
C1999 C1998 1.334 . S
C1999 C2000 1.287 . S
C2000 C1999 1.287 . S
C2000 C2001 1.524 . S
C2000 H2019 0.913 . S
C2001 H1977 0.950 . S
C2001 C2000 1.524 . S
C2001 C2002 1.415 . S
C2002 H1978 0.950 . S
C2002 C1997 1.363 . S
C2002 C2001 1.415 . S
C2003 H1979 0.951 . S
C2003 C2004 1.366 . S
C2003 C2005 1.388 . S
C2004 C2003 1.366 . S
C2004 C2008 1.385 . S
C2005 H1980 0.951 . S
C2005 C2003 1.388 . S
C2005 C2006 1.366 . S
C2006 C2005 1.366 . S
C2006 C2007 1.414 . S
C2006 C2009 1.499 . S
C2007 H1981 0.950 . S
C2007 C2006 1.414 . S
C2007 C2008 1.374 . S
C2008 H1982 0.950 . S
C2008 C2004 1.385 . S
C2008 C2007 1.374 . S
C2009 C2006 1.499 . S
C2009 C2010 1.373 . S
C2009 C2011 1.389 . S
C2010 H1983 0.950 . S
C2010 C1996 1.377 . S
C2010 C2009 1.373 . S
C2011 C1995 1.377 . S
C2011 C2009 1.389 . S
C2011 C2012 1.524 . S
C2012 C2011 1.524 . S
C2012 C2013 1.397 . S
C2012 C2017 1.363 . S
C2013 H1984 0.950 . S
C2013 C2012 1.397 . S
C2013 C2014 1.334 . S
C2014 H1985 0.950 . S
C2014 C2013 1.334 . S
C2014 C2015 1.287 . S
C2015 C2014 1.287 . S
C2015 C2016 1.524 . S
C2015 H2018 0.999 . S
C2016 H1986 0.950 . S
C2016 C2015 1.524 . S
C2016 C2017 1.415 . S
C2017 H1987 0.950 . S
C2017 C2012 1.363 . S
C2017 C2016 1.415 . S
H2018 C2015 0.999 . S
H2019 C2000 0.913 . S
H2020 C2038 0.951 . S
H2021 C2040 0.951 . S
H2022 C2042 0.950 . S
H2023 C2043 0.950 . S
H2024 C2045 0.950 . S
H2025 C2048 0.950 . S
H2026 C2049 0.950 . S
H2027 C2051 0.950 . S
H2028 C2052 0.950 . S
H2029 C2053 0.951 . S
H2030 C2055 0.951 . S
H2031 C2057 0.950 . S
H2032 C2058 0.950 . S
H2033 C2060 0.950 . S
H2034 C2063 0.950 . S
H2035 C2064 0.950 . S
H2036 C2066 0.950 . S
H2037 C2067 0.950 . S
C2038 H2020 0.951 . S
C2038 C2039 1.366 . S
C2038 C2040 1.388 . S
C2039 C2038 1.366 . S
C2039 C2043 1.385 . S
C2040 H2021 0.951 . S
C2040 C2038 1.388 . S
C2040 C2041 1.366 . S
C2041 C2040 1.366 . S
C2041 C2042 1.414 . S
C2041 C2044 1.499 . S
C2042 H2022 0.950 . S
C2042 C2041 1.414 . S
C2042 C2043 1.374 . S
C2043 H2023 0.950 . S
C2043 C2039 1.385 . S
C2043 C2042 1.374 . S
C2044 C2041 1.499 . S
C2044 C2045 1.373 . S
C2044 C2046 1.389 . S
C2045 H2024 0.950 . S
C2045 C2044 1.373 . S
C2045 C2061 1.377 . S
C2046 C2044 1.389 . S
C2046 C2047 1.524 . S
C2046 C2060 1.377 . S
C2047 C2046 1.524 . S
C2047 C2048 1.397 . S
C2047 C2052 1.363 . S
C2048 H2025 0.950 . S
C2048 C2047 1.397 . S
C2048 C2049 1.334 . S
C2049 H2026 0.950 . S
C2049 C2048 1.334 . S
C2049 C2050 1.287 . S
C2050 C2049 1.287 . S
C2050 C2051 1.524 . S
C2050 H2069 0.913 . S
C2051 H2027 0.950 . S
C2051 C2050 1.524 . S
C2051 C2052 1.415 . S
C2052 H2028 0.950 . S
C2052 C2047 1.363 . S
C2052 C2051 1.415 . S
C2053 H2029 0.951 . S
C2053 C2054 1.366 . S
C2053 C2055 1.388 . S
C2054 C2053 1.366 . S
C2054 C2058 1.385 . S
C2055 H2030 0.951 . S
C2055 C2053 1.388 . S
C2055 C2056 1.366 . S
C2056 C2055 1.366 . S
C2056 C2057 1.414 . S
C2056 C2059 1.499 . S
C2057 H2031 0.950 . S
C2057 C2056 1.414 . S
C2057 C2058 1.374 . S
C2058 H2032 0.950 . S
C2058 C2054 1.385 . S
C2058 C2057 1.374 . S
C2059 C2056 1.499 . S
C2059 C2060 1.373 . S
C2059 C2061 1.389 . S
C2060 H2033 0.950 . S
C2060 C2046 1.377 . S
C2060 C2059 1.373 . S
C2061 C2045 1.377 . S
C2061 C2059 1.389 . S
C2061 C2062 1.524 . S
C2062 C2061 1.524 . S
C2062 C2063 1.397 . S
C2062 C2067 1.363 . S
C2063 H2034 0.950 . S
C2063 C2062 1.397 . S
C2063 C2064 1.334 . S
C2064 H2035 0.950 . S
C2064 C2063 1.334 . S
C2064 C2065 1.287 . S
C2065 C2064 1.287 . S
C2065 C2066 1.524 . S
C2065 H2068 0.999 . S
C2066 H2036 0.950 . S
C2066 C2065 1.524 . S
C2066 C2067 1.415 . S
C2067 H2037 0.950 . S
C2067 C2062 1.363 . S
C2067 C2066 1.415 . S
H2068 C2065 0.999 . S
H2069 C2050 0.913 . S
H2070 C2088 0.951 . S
H2071 C2090 0.951 . S
H2072 C2092 0.950 . S
H2073 C2093 0.950 . S
H2074 C2095 0.950 . S
H2075 C2098 0.950 . S
H2076 C2099 0.950 . S
H2077 C2101 0.950 . S
H2078 C2102 0.950 . S
H2079 C2103 0.951 . S
H2080 C2105 0.951 . S
H2081 C2107 0.950 . S
H2082 C2108 0.950 . S
H2083 C2110 0.950 . S
H2084 C2113 0.950 . S
H2085 C2114 0.950 . S
H2086 C2116 0.950 . S
H2087 C2117 0.950 . S
C2088 H2070 0.951 . S
C2088 C2089 1.366 . S
C2088 C2090 1.388 . S
C2089 C2088 1.366 . S
C2089 C2093 1.385 . S
C2090 H2071 0.951 . S
C2090 C2088 1.388 . S
C2090 C2091 1.366 . S
C2091 C2090 1.366 . S
C2091 C2092 1.414 . S
C2091 C2094 1.499 . S
C2092 H2072 0.950 . S
C2092 C2091 1.414 . S
C2092 C2093 1.374 . S
C2093 H2073 0.950 . S
C2093 C2089 1.385 . S
C2093 C2092 1.374 . S
C2094 C2091 1.499 . S
C2094 C2095 1.373 . S
C2094 C2096 1.389 . S
C2095 H2074 0.950 . S
C2095 C2094 1.373 . S
C2095 C2111 1.377 . S
C2096 C2094 1.389 . S
C2096 C2097 1.524 . S
C2096 C2110 1.377 . S
C2097 C2096 1.524 . S
C2097 C2098 1.397 . S
C2097 C2102 1.363 . S
C2098 H2075 0.950 . S
C2098 C2097 1.397 . S
C2098 C2099 1.334 . S
C2099 H2076 0.950 . S
C2099 C2098 1.334 . S
C2099 C2100 1.287 . S
C2100 C2099 1.287 . S
C2100 C2101 1.524 . S
C2100 H2119 0.913 . S
C2101 H2077 0.950 . S
C2101 C2100 1.524 . S
C2101 C2102 1.415 . S
C2102 H2078 0.950 . S
C2102 C2097 1.363 . S
C2102 C2101 1.415 . S
C2103 H2079 0.951 . S
C2103 C2104 1.366 . S
C2103 C2105 1.388 . S
C2104 C2103 1.366 . S
C2104 C2108 1.385 . S
C2105 H2080 0.951 . S
C2105 C2103 1.388 . S
C2105 C2106 1.366 . S
C2106 C2105 1.366 . S
C2106 C2107 1.414 . S
C2106 C2109 1.499 . S
C2107 H2081 0.950 . S
C2107 C2106 1.414 . S
C2107 C2108 1.374 . S
C2108 H2082 0.950 . S
C2108 C2104 1.385 . S
C2108 C2107 1.374 . S
C2109 C2106 1.499 . S
C2109 C2110 1.373 . S
C2109 C2111 1.389 . S
C2110 H2083 0.950 . S
C2110 C2096 1.377 . S
C2110 C2109 1.373 . S
C2111 C2095 1.377 . S
C2111 C2109 1.389 . S
C2111 C2112 1.524 . S
C2112 C2111 1.524 . S
C2112 C2113 1.397 . S
C2112 C2117 1.363 . S
C2113 H2084 0.950 . S
C2113 C2112 1.397 . S
C2113 C2114 1.334 . S
C2114 H2085 0.950 . S
C2114 C2113 1.334 . S
C2114 C2115 1.287 . S
C2115 C2114 1.287 . S
C2115 C2116 1.524 . S
C2115 H2118 0.999 . S
C2116 H2086 0.950 . S
C2116 C2115 1.524 . S
C2116 C2117 1.415 . S
C2117 H2087 0.950 . S
C2117 C2112 1.363 . S
C2117 C2116 1.415 . S
H2118 C2115 0.999 . S
H2119 C2100 0.913 . S
H2120 C2138 0.951 . S
H2121 C2140 0.951 . S
H2122 C2142 0.950 . S
H2123 C2143 0.950 . S
H2124 C2145 0.950 . S
H2125 C2148 0.950 . S
H2126 C2149 0.950 . S
H2127 C2151 0.950 . S
H2128 C2152 0.950 . S
H2129 C2153 0.951 . S
H2130 C2155 0.951 . S
H2131 C2157 0.950 . S
H2132 C2158 0.950 . S
H2133 C2160 0.950 . S
H2134 C2163 0.950 . S
H2135 C2164 0.950 . S
H2136 C2166 0.950 . S
H2137 C2167 0.950 . S
C2138 H2120 0.951 . S
C2138 C2139 1.366 . S
C2138 C2140 1.388 . S
C2139 C2138 1.366 . S
C2139 C2143 1.385 . S
C2140 H2121 0.951 . S
C2140 C2138 1.388 . S
C2140 C2141 1.366 . S
C2141 C2140 1.366 . S
C2141 C2142 1.414 . S
C2141 C2144 1.499 . S
C2142 H2122 0.950 . S
C2142 C2141 1.414 . S
C2142 C2143 1.374 . S
C2143 H2123 0.950 . S
C2143 C2139 1.385 . S
C2143 C2142 1.374 . S
C2144 C2141 1.499 . S
C2144 C2145 1.373 . S
C2144 C2146 1.389 . S
C2145 H2124 0.950 . S
C2145 C2144 1.373 . S
C2145 C2161 1.377 . S
C2146 C2144 1.389 . S
C2146 C2147 1.524 . S
C2146 C2160 1.377 . S
C2147 C2146 1.524 . S
C2147 C2148 1.397 . S
C2147 C2152 1.363 . S
C2148 H2125 0.950 . S
C2148 C2147 1.397 . S
C2148 C2149 1.334 . S
C2149 H2126 0.950 . S
C2149 C2148 1.334 . S
C2149 C2150 1.287 . S
C2150 C2149 1.287 . S
C2150 C2151 1.524 . S
C2150 H2169 0.913 . S
C2151 H2127 0.950 . S
C2151 C2150 1.524 . S
C2151 C2152 1.415 . S
C2152 H2128 0.950 . S
C2152 C2147 1.363 . S
C2152 C2151 1.415 . S
C2153 H2129 0.951 . S
C2153 C2154 1.366 . S
C2153 C2155 1.388 . S
C2154 C2153 1.366 . S
C2154 C2158 1.385 . S
C2155 H2130 0.951 . S
C2155 C2153 1.388 . S
C2155 C2156 1.366 . S
C2156 C2155 1.366 . S
C2156 C2157 1.414 . S
C2156 C2159 1.499 . S
C2157 H2131 0.950 . S
C2157 C2156 1.414 . S
C2157 C2158 1.374 . S
C2158 H2132 0.950 . S
C2158 C2154 1.385 . S
C2158 C2157 1.374 . S
C2159 C2156 1.499 . S
C2159 C2160 1.373 . S
C2159 C2161 1.389 . S
C2160 H2133 0.950 . S
C2160 C2146 1.377 . S
C2160 C2159 1.373 . S
C2161 C2145 1.377 . S
C2161 C2159 1.389 . S
C2161 C2162 1.524 . S
C2162 C2161 1.524 . S
C2162 C2163 1.397 . S
C2162 C2167 1.363 . S
C2163 H2134 0.950 . S
C2163 C2162 1.397 . S
C2163 C2164 1.334 . S
C2164 H2135 0.950 . S
C2164 C2163 1.334 . S
C2164 C2165 1.287 . S
C2165 C2164 1.287 . S
C2165 C2166 1.524 . S
C2165 H2168 0.999 . S
C2166 H2136 0.950 . S
C2166 C2165 1.524 . S
C2166 C2167 1.415 . S
C2167 H2137 0.950 . S
C2167 C2162 1.363 . S
C2167 C2166 1.415 . S
H2168 C2165 0.999 . S
H2169 C2150 0.913 . S
H2170 C2188 0.951 . S
H2171 C2190 0.951 . S
H2172 C2192 0.950 . S
H2173 C2193 0.950 . S
H2174 C2195 0.950 . S
H2175 C2198 0.950 . S
H2176 C2199 0.950 . S
H2177 C2201 0.950 . S
H2178 C2202 0.950 . S
H2179 C2203 0.951 . S
H2180 C2205 0.951 . S
H2181 C2207 0.950 . S
H2182 C2208 0.950 . S
H2183 C2210 0.950 . S
H2184 C2213 0.950 . S
H2185 C2214 0.950 . S
H2186 C2216 0.950 . S
H2187 C2217 0.950 . S
C2188 H2170 0.951 . S
C2188 C2189 1.366 . S
C2188 C2190 1.388 . S
C2189 C2188 1.366 . S
C2189 C2193 1.385 . S
C2190 H2171 0.951 . S
C2190 C2188 1.388 . S
C2190 C2191 1.366 . S
C2191 C2190 1.366 . S
C2191 C2192 1.414 . S
C2191 C2194 1.499 . S
C2192 H2172 0.950 . S
C2192 C2191 1.414 . S
C2192 C2193 1.374 . S
C2193 H2173 0.950 . S
C2193 C2189 1.385 . S
C2193 C2192 1.374 . S
C2194 C2191 1.499 . S
C2194 C2195 1.373 . S
C2194 C2196 1.389 . S
C2195 H2174 0.950 . S
C2195 C2194 1.373 . S
C2195 C2211 1.377 . S
C2196 C2194 1.389 . S
C2196 C2197 1.524 . S
C2196 C2210 1.377 . S
C2197 C2196 1.524 . S
C2197 C2198 1.397 . S
C2197 C2202 1.363 . S
C2198 H2175 0.950 . S
C2198 C2197 1.397 . S
C2198 C2199 1.334 . S
C2199 H2176 0.950 . S
C2199 C2198 1.334 . S
C2199 C2200 1.287 . S
C2200 C2199 1.287 . S
C2200 C2201 1.524 . S
C2200 H2219 0.913 . S
C2201 H2177 0.950 . S
C2201 C2200 1.524 . S
C2201 C2202 1.415 . S
C2202 H2178 0.950 . S
C2202 C2197 1.363 . S
C2202 C2201 1.415 . S
C2203 H2179 0.951 . S
C2203 C2204 1.366 . S
C2203 C2205 1.388 . S
C2204 C2203 1.366 . S
C2204 C2208 1.385 . S
C2205 H2180 0.951 . S
C2205 C2203 1.388 . S
C2205 C2206 1.366 . S
C2206 C2205 1.366 . S
C2206 C2207 1.414 . S
C2206 C2209 1.499 . S
C2207 H2181 0.950 . S
C2207 C2206 1.414 . S
C2207 C2208 1.374 . S
C2208 H2182 0.950 . S
C2208 C2204 1.385 . S
C2208 C2207 1.374 . S
C2209 C2206 1.499 . S
C2209 C2210 1.373 . S
C2209 C2211 1.389 . S
C2210 H2183 0.950 . S
C2210 C2196 1.377 . S
C2210 C2209 1.373 . S
C2211 C2195 1.377 . S
C2211 C2209 1.389 . S
C2211 C2212 1.524 . S
C2212 C2211 1.524 . S
C2212 C2213 1.397 . S
C2212 C2217 1.363 . S
C2213 H2184 0.950 . S
C2213 C2212 1.397 . S
C2213 C2214 1.334 . S
C2214 H2185 0.950 . S
C2214 C2213 1.334 . S
C2214 C2215 1.287 . S
C2215 C2214 1.287 . S
C2215 C2216 1.524 . S
C2215 H2218 0.999 . S
C2216 H2186 0.950 . S
C2216 C2215 1.524 . S
C2216 C2217 1.415 . S
C2217 H2187 0.950 . S
C2217 C2212 1.363 . S
C2217 C2216 1.415 . S
H2218 C2215 0.999 . S
H2219 C2200 0.913 . S
H2220 C2238 0.951 . S
H2221 C2240 0.951 . S
H2222 C2242 0.950 . S
H2223 C2243 0.950 . S
H2224 C2245 0.950 . S
H2225 C2248 0.950 . S
H2226 C2249 0.950 . S
H2227 C2251 0.950 . S
H2228 C2252 0.950 . S
H2229 C2253 0.951 . S
H2230 C2255 0.951 . S
H2231 C2257 0.950 . S
H2232 C2258 0.950 . S
H2233 C2260 0.950 . S
H2234 C2263 0.950 . S
H2235 C2264 0.950 . S
H2236 C2266 0.950 . S
H2237 C2267 0.950 . S
C2238 H2220 0.951 . S
C2238 C2239 1.366 . S
C2238 C2240 1.388 . S
C2239 C2238 1.366 . S
C2239 C2243 1.385 . S
C2240 H2221 0.951 . S
C2240 C2238 1.388 . S
C2240 C2241 1.366 . S
C2241 C2240 1.366 . S
C2241 C2242 1.414 . S
C2241 C2244 1.499 . S
C2242 H2222 0.950 . S
C2242 C2241 1.414 . S
C2242 C2243 1.374 . S
C2243 H2223 0.950 . S
C2243 C2239 1.385 . S
C2243 C2242 1.374 . S
C2244 C2241 1.499 . S
C2244 C2245 1.373 . S
C2244 C2246 1.389 . S
C2245 H2224 0.950 . S
C2245 C2244 1.373 . S
C2245 C2261 1.377 . S
C2246 C2244 1.389 . S
C2246 C2247 1.524 . S
C2246 C2260 1.377 . S
C2247 C2246 1.524 . S
C2247 C2248 1.397 . S
C2247 C2252 1.363 . S
C2248 H2225 0.950 . S
C2248 C2247 1.397 . S
C2248 C2249 1.334 . S
C2249 H2226 0.950 . S
C2249 C2248 1.334 . S
C2249 C2250 1.287 . S
C2250 C2249 1.287 . S
C2250 C2251 1.524 . S
C2250 H2269 0.913 . S
C2251 H2227 0.950 . S
C2251 C2250 1.524 . S
C2251 C2252 1.415 . S
C2252 H2228 0.950 . S
C2252 C2247 1.363 . S
C2252 C2251 1.415 . S
C2253 H2229 0.951 . S
C2253 C2254 1.366 . S
C2253 C2255 1.388 . S
C2254 C2253 1.366 . S
C2254 C2258 1.385 . S
C2255 H2230 0.951 . S
C2255 C2253 1.388 . S
C2255 C2256 1.366 . S
C2256 C2255 1.366 . S
C2256 C2257 1.414 . S
C2256 C2259 1.499 . S
C2257 H2231 0.950 . S
C2257 C2256 1.414 . S
C2257 C2258 1.374 . S
C2258 H2232 0.950 . S
C2258 C2254 1.385 . S
C2258 C2257 1.374 . S
C2259 C2256 1.499 . S
C2259 C2260 1.373 . S
C2259 C2261 1.389 . S
C2260 H2233 0.950 . S
C2260 C2246 1.377 . S
C2260 C2259 1.373 . S
C2261 C2245 1.377 . S
C2261 C2259 1.389 . S
C2261 C2262 1.524 . S
C2262 C2261 1.524 . S
C2262 C2263 1.397 . S
C2262 C2267 1.363 . S
C2263 H2234 0.950 . S
C2263 C2262 1.397 . S
C2263 C2264 1.334 . S
C2264 H2235 0.950 . S
C2264 C2263 1.334 . S
C2264 C2265 1.287 . S
C2265 C2264 1.287 . S
C2265 C2266 1.524 . S
C2265 H2268 0.999 . S
C2266 H2236 0.950 . S
C2266 C2265 1.524 . S
C2266 C2267 1.415 . S
C2267 H2237 0.950 . S
C2267 C2262 1.363 . S
C2267 C2266 1.415 . S
H2268 C2265 0.999 . S
H2269 C2250 0.913 . S
H2270 C2288 0.951 . S
H2271 C2290 0.951 . S
H2272 C2292 0.950 . S
H2273 C2293 0.950 . S
H2274 C2295 0.950 . S
H2275 C2298 0.950 . S
H2276 C2299 0.950 . S
H2277 C2301 0.950 . S
H2278 C2302 0.950 . S
H2279 C2303 0.951 . S
H2280 C2305 0.951 . S
H2281 C2307 0.950 . S
H2282 C2308 0.950 . S
H2283 C2310 0.950 . S
H2284 C2313 0.950 . S
H2285 C2314 0.950 . S
H2286 C2316 0.950 . S
H2287 C2317 0.950 . S
C2288 H2270 0.951 . S
C2288 C2289 1.366 . S
C2288 C2290 1.388 . S
C2289 C2288 1.366 . S
C2289 C2293 1.385 . S
C2290 H2271 0.951 . S
C2290 C2288 1.388 . S
C2290 C2291 1.366 . S
C2291 C2290 1.366 . S
C2291 C2292 1.414 . S
C2291 C2294 1.499 . S
C2292 H2272 0.950 . S
C2292 C2291 1.414 . S
C2292 C2293 1.374 . S
C2293 H2273 0.950 . S
C2293 C2289 1.385 . S
C2293 C2292 1.374 . S
C2294 C2291 1.499 . S
C2294 C2295 1.373 . S
C2294 C2296 1.389 . S
C2295 H2274 0.950 . S
C2295 C2294 1.373 . S
C2295 C2311 1.377 . S
C2296 C2294 1.389 . S
C2296 C2297 1.524 . S
C2296 C2310 1.377 . S
C2297 C2296 1.524 . S
C2297 C2298 1.397 . S
C2297 C2302 1.363 . S
C2298 H2275 0.950 . S
C2298 C2297 1.397 . S
C2298 C2299 1.334 . S
C2299 H2276 0.950 . S
C2299 C2298 1.334 . S
C2299 C2300 1.287 . S
C2300 C2299 1.287 . S
C2300 C2301 1.524 . S
C2300 H2319 0.913 . S
C2301 H2277 0.950 . S
C2301 C2300 1.524 . S
C2301 C2302 1.415 . S
C2302 H2278 0.950 . S
C2302 C2297 1.363 . S
C2302 C2301 1.415 . S
C2303 H2279 0.951 . S
C2303 C2304 1.366 . S
C2303 C2305 1.388 . S
C2304 C2303 1.366 . S
C2304 C2308 1.385 . S
C2305 H2280 0.951 . S
C2305 C2303 1.388 . S
C2305 C2306 1.366 . S
C2306 C2305 1.366 . S
C2306 C2307 1.414 . S
C2306 C2309 1.499 . S
C2307 H2281 0.950 . S
C2307 C2306 1.414 . S
C2307 C2308 1.374 . S
C2308 H2282 0.950 . S
C2308 C2304 1.385 . S
C2308 C2307 1.374 . S
C2309 C2306 1.499 . S
C2309 C2310 1.373 . S
C2309 C2311 1.389 . S
C2310 H2283 0.950 . S
C2310 C2296 1.377 . S
C2310 C2309 1.373 . S
C2311 C2295 1.377 . S
C2311 C2309 1.389 . S
C2311 C2312 1.524 . S
C2312 C2311 1.524 . S
C2312 C2313 1.397 . S
C2312 C2317 1.363 . S
C2313 H2284 0.950 . S
C2313 C2312 1.397 . S
C2313 C2314 1.334 . S
C2314 H2285 0.950 . S
C2314 C2313 1.334 . S
C2314 C2315 1.287 . S
C2315 C2314 1.287 . S
C2315 C2316 1.524 . S
C2315 H2318 0.999 . S
C2316 H2286 0.950 . S
C2316 C2315 1.524 . S
C2316 C2317 1.415 . S
C2317 H2287 0.950 . S
C2317 C2312 1.363 . S
C2317 C2316 1.415 . S
H2318 C2315 0.999 . S
H2319 C2300 0.913 . S
H2320 C2338 0.951 . S
H2321 C2340 0.951 . S
H2322 C2342 0.950 . S
H2323 C2343 0.950 . S
H2324 C2345 0.950 . S
H2325 C2348 0.950 . S
H2326 C2349 0.950 . S
H2327 C2351 0.950 . S
H2328 C2352 0.950 . S
H2329 C2353 0.951 . S
H2330 C2355 0.951 . S
H2331 C2357 0.950 . S
H2332 C2358 0.950 . S
H2333 C2360 0.950 . S
H2334 C2363 0.950 . S
H2335 C2364 0.950 . S
H2336 C2366 0.950 . S
H2337 C2367 0.950 . S
C2338 H2320 0.951 . S
C2338 C2339 1.366 . S
C2338 C2340 1.388 . S
C2339 C2338 1.366 . S
C2339 C2343 1.385 . S
C2340 H2321 0.951 . S
C2340 C2338 1.388 . S
C2340 C2341 1.366 . S
C2341 C2340 1.366 . S
C2341 C2342 1.414 . S
C2341 C2344 1.499 1_565 S
C2342 H2322 0.950 . S
C2342 C2341 1.414 . S
C2342 C2343 1.374 . S
C2343 H2323 0.950 . S
C2343 C2339 1.385 . S
C2343 C2342 1.374 . S
C2344 C2341 1.499 1_545 S
C2344 C2345 1.373 . S
C2344 C2346 1.389 . S
C2345 H2324 0.950 . S
C2345 C2344 1.373 . S
C2345 C2361 1.377 . S
C2346 C2344 1.389 . S
C2346 C2347 1.524 . S
C2346 C2360 1.377 . S
C2347 C2346 1.524 . S
C2347 C2348 1.397 . S
C2347 C2352 1.363 . S
C2348 H2325 0.950 . S
C2348 C2347 1.397 . S
C2348 C2349 1.334 1_545 S
C2349 H2326 0.950 . S
C2349 C2348 1.334 1_565 S
C2349 C2350 1.287 1_565 S
C2350 C2349 1.287 1_545 S
C2350 C2351 1.524 . S
C2350 H2369 0.913 1_545 S
C2351 H2327 0.950 . S
C2351 C2350 1.524 . S
C2351 C2352 1.415 . S
C2352 H2328 0.950 . S
C2352 C2347 1.363 . S
C2352 C2351 1.415 . S
C2353 H2329 0.951 . S
C2353 C2354 1.366 . S
C2353 C2355 1.388 . S
C2354 C2353 1.366 . S
C2354 C2358 1.385 . S
C2355 H2330 0.951 . S
C2355 C2353 1.388 . S
C2355 C2356 1.366 . S
C2356 C2355 1.366 . S
C2356 C2357 1.414 . S
C2356 C2359 1.499 . S
C2357 H2331 0.950 . S
C2357 C2356 1.414 . S
C2357 C2358 1.374 . S
C2358 H2332 0.950 . S
C2358 C2354 1.385 . S
C2358 C2357 1.374 . S
C2359 C2356 1.499 . S
C2359 C2360 1.373 . S
C2359 C2361 1.389 . S
C2360 H2333 0.950 . S
C2360 C2346 1.377 . S
C2360 C2359 1.373 . S
C2361 C2345 1.377 . S
C2361 C2359 1.389 . S
C2361 C2362 1.524 . S
C2362 C2361 1.524 . S
C2362 C2363 1.397 . S
C2362 C2367 1.363 . S
C2363 H2334 0.950 . S
C2363 C2362 1.397 . S
C2363 C2364 1.334 . S
C2364 H2335 0.950 . S
C2364 C2363 1.334 . S
C2364 C2365 1.287 . S
C2365 C2364 1.287 . S
C2365 C2366 1.524 . S
C2365 H2368 0.999 . S
C2366 H2336 0.950 . S
C2366 C2365 1.524 . S
C2366 C2367 1.415 . S
C2367 H2337 0.950 . S
C2367 C2362 1.363 . S
C2367 C2366 1.415 . S
H2368 C2365 0.999 . S
H2369 C2350 0.913 1_565 S
H2370 C2388 0.951 . S
H2371 C2390 0.951 . S
H2372 C2392 0.950 . S
H2373 C2393 0.950 . S
H2374 C2395 0.950 . S
H2375 C2398 0.950 . S
H2376 C2399 0.950 . S
H2377 C2401 0.950 . S
H2378 C2402 0.950 . S
H2379 C2403 0.951 . S
H2380 C2405 0.951 . S
H2381 C2407 0.950 . S
H2382 C2408 0.950 . S
H2383 C2410 0.950 . S
H2384 C2413 0.950 . S
H2385 C2414 0.950 . S
H2386 C2416 0.950 . S
H2387 C2417 0.950 . S
C2388 H2370 0.951 . S
C2388 C2389 1.366 . S
C2388 C2390 1.388 . S
C2389 C2388 1.366 . S
C2389 C2393 1.385 . S
C2390 H2371 0.951 . S
C2390 C2388 1.388 . S
C2390 C2391 1.366 . S
C2391 C2390 1.366 . S
C2391 C2392 1.414 . S
C2391 C2394 1.499 . S
C2392 H2372 0.950 . S
C2392 C2391 1.414 . S
C2392 C2393 1.374 . S
C2393 H2373 0.950 . S
C2393 C2389 1.385 . S
C2393 C2392 1.374 . S
C2394 C2391 1.499 . S
C2394 C2395 1.373 . S
C2394 C2396 1.389 . S
C2395 H2374 0.950 . S
C2395 C2394 1.373 . S
C2395 C2411 1.377 . S
C2396 C2394 1.389 . S
C2396 C2397 1.524 . S
C2396 C2410 1.377 . S
C2397 C2396 1.524 . S
C2397 C2398 1.397 . S
C2397 C2402 1.363 . S
C2398 H2375 0.950 . S
C2398 C2397 1.397 . S
C2398 C2399 1.334 . S
C2399 H2376 0.950 . S
C2399 C2398 1.334 . S
C2399 C2400 1.287 . S
C2400 C2399 1.287 . S
C2400 C2401 1.524 . S
C2400 H2419 0.913 . S
C2401 H2377 0.950 . S
C2401 C2400 1.524 . S
C2401 C2402 1.415 . S
C2402 H2378 0.950 . S
C2402 C2397 1.363 . S
C2402 C2401 1.415 . S
C2403 H2379 0.951 . S
C2403 C2404 1.366 . S
C2403 C2405 1.388 . S
C2404 C2403 1.366 . S
C2404 C2408 1.385 . S
C2405 H2380 0.951 . S
C2405 C2403 1.388 . S
C2405 C2406 1.366 . S
C2406 C2405 1.366 . S
C2406 C2407 1.414 . S
C2406 C2409 1.499 1_545 S
C2407 H2381 0.950 . S
C2407 C2406 1.414 . S
C2407 C2408 1.374 . S
C2408 H2382 0.950 . S
C2408 C2404 1.385 . S
C2408 C2407 1.374 . S
C2409 C2406 1.499 1_565 S
C2409 C2410 1.373 . S
C2409 C2411 1.389 . S
C2410 H2383 0.950 . S
C2410 C2396 1.377 . S
C2410 C2409 1.373 . S
C2411 C2395 1.377 . S
C2411 C2409 1.389 . S
C2411 C2412 1.524 . S
C2412 C2411 1.524 . S
C2412 C2413 1.397 . S
C2412 C2417 1.363 . S
C2413 H2384 0.950 . S
C2413 C2412 1.397 . S
C2413 C2414 1.334 1_565 S
C2414 H2385 0.950 . S
C2414 C2413 1.334 1_545 S
C2414 C2415 1.287 1_545 S
C2415 C2414 1.287 1_565 S
C2415 C2416 1.524 . S
C2415 H2418 0.999 1_565 S
C2416 H2386 0.950 . S
C2416 C2415 1.524 . S
C2416 C2417 1.415 . S
C2417 H2387 0.950 . S
C2417 C2412 1.363 . S
C2417 C2416 1.415 . S
H2418 C2415 0.999 1_545 S
H2419 C2400 0.913 . S
H2420 C2438 0.951 . S
H2421 C2440 0.951 . S
H2422 C2442 0.950 . S
H2423 C2443 0.950 . S
H2424 C2445 0.950 . S
H2425 C2448 0.950 . S
H2426 C2449 0.950 . S
H2427 C2451 0.950 . S
H2428 C2452 0.950 . S
H2429 C2453 0.951 . S
H2430 C2455 0.951 . S
H2431 C2457 0.950 . S
H2432 C2458 0.950 . S
H2433 C2460 0.950 . S
H2434 C2463 0.950 . S
H2435 C2464 0.950 . S
H2436 C2466 0.950 . S
H2437 C2467 0.950 . S
C2438 H2420 0.951 . S
C2438 C2439 1.366 . S
C2438 C2440 1.388 . S
C2439 C2438 1.366 . S
C2439 C2443 1.385 . S
C2440 H2421 0.951 . S
C2440 C2438 1.388 . S
C2440 C2441 1.366 . S
C2441 C2440 1.366 . S
C2441 C2442 1.414 . S
C2441 C2444 1.499 1_545 S
C2442 H2422 0.950 . S
C2442 C2441 1.414 . S
C2442 C2443 1.374 . S
C2443 H2423 0.950 . S
C2443 C2439 1.385 . S
C2443 C2442 1.374 . S
C2444 C2441 1.499 1_565 S
C2444 C2445 1.373 . S
C2444 C2446 1.389 . S
C2445 H2424 0.950 . S
C2445 C2444 1.373 . S
C2445 C2461 1.377 . S
C2446 C2444 1.389 . S
C2446 C2447 1.524 . S
C2446 C2460 1.377 . S
C2447 C2446 1.524 . S
C2447 C2448 1.397 . S
C2447 C2452 1.363 . S
C2448 H2425 0.950 . S
C2448 C2447 1.397 . S
C2448 C2449 1.334 1_565 S
C2449 H2426 0.950 . S
C2449 C2448 1.334 1_545 S
C2449 C2450 1.287 1_545 S
C2450 C2449 1.287 1_565 S
C2450 C2451 1.524 . S
C2450 H2469 0.913 1_565 S
C2451 H2427 0.950 . S
C2451 C2450 1.524 . S
C2451 C2452 1.415 . S
C2452 H2428 0.950 . S
C2452 C2447 1.363 . S
C2452 C2451 1.415 . S
C2453 H2429 0.951 . S
C2453 C2454 1.366 . S
C2453 C2455 1.388 . S
C2454 C2453 1.366 . S
C2454 C2458 1.385 . S
C2455 H2430 0.951 . S
C2455 C2453 1.388 . S
C2455 C2456 1.366 . S
C2456 C2455 1.366 . S
C2456 C2457 1.414 . S
C2456 C2459 1.499 . S
C2457 H2431 0.950 . S
C2457 C2456 1.414 . S
C2457 C2458 1.374 . S
C2458 H2432 0.950 . S
C2458 C2454 1.385 . S
C2458 C2457 1.374 . S
C2459 C2456 1.499 . S
C2459 C2460 1.373 . S
C2459 C2461 1.389 . S
C2460 H2433 0.950 . S
C2460 C2446 1.377 . S
C2460 C2459 1.373 . S
C2461 C2445 1.377 . S
C2461 C2459 1.389 . S
C2461 C2462 1.524 . S
C2462 C2461 1.524 . S
C2462 C2463 1.397 . S
C2462 C2467 1.363 . S
C2463 H2434 0.950 . S
C2463 C2462 1.397 . S
C2463 C2464 1.334 . S
C2464 H2435 0.950 . S
C2464 C2463 1.334 . S
C2464 C2465 1.287 . S
C2465 C2464 1.287 . S
C2465 C2466 1.524 . S
C2465 H2468 0.999 . S
C2466 H2436 0.950 . S
C2466 C2465 1.524 . S
C2466 C2467 1.415 . S
C2467 H2437 0.950 . S
C2467 C2462 1.363 . S
C2467 C2466 1.415 . S
H2468 C2465 0.999 . S
H2469 C2450 0.913 1_545 S
H2470 C2488 0.951 . S
H2471 C2490 0.951 . S
H2472 C2492 0.950 . S
H2473 C2493 0.950 . S
H2474 C2495 0.950 . S
H2475 C2498 0.950 . S
H2476 C2499 0.950 . S
H2477 C2501 0.950 . S
H2478 C2502 0.950 . S
H2479 C2503 0.951 . S
H2480 C2505 0.951 . S
H2481 C2507 0.950 . S
H2482 C2508 0.950 . S
H2483 C2510 0.950 . S
H2484 C2513 0.950 . S
H2485 C2514 0.950 . S
H2486 C2516 0.950 . S
H2487 C2517 0.950 . S
C2488 H2470 0.951 . S
C2488 C2489 1.366 . S
C2488 C2490 1.388 . S
C2489 C2488 1.366 . S
C2489 C2493 1.385 . S
C2490 H2471 0.951 . S
C2490 C2488 1.388 . S
C2490 C2491 1.366 . S
C2491 C2490 1.366 . S
C2491 C2492 1.414 . S
C2491 C2494 1.499 1_565 S
C2492 H2472 0.950 . S
C2492 C2491 1.414 . S
C2492 C2493 1.374 . S
C2493 H2473 0.950 . S
C2493 C2489 1.385 . S
C2493 C2492 1.374 . S
C2494 C2491 1.499 1_545 S
C2494 C2495 1.373 . S
C2494 C2496 1.389 . S
C2495 H2474 0.950 . S
C2495 C2494 1.373 . S
C2495 C2511 1.377 . S
C2496 C2494 1.389 . S
C2496 C2497 1.524 . S
C2496 C2510 1.377 . S
C2497 C2496 1.524 . S
C2497 C2498 1.397 . S
C2497 C2502 1.363 . S
C2498 H2475 0.950 . S
C2498 C2497 1.397 . S
C2498 C2499 1.334 1_545 S
C2499 H2476 0.950 . S
C2499 C2498 1.334 1_565 S
C2499 C2500 1.287 1_565 S
C2500 C2499 1.287 1_545 S
C2500 C2501 1.524 . S
C2500 H2519 0.913 1_545 S
C2501 H2477 0.950 . S
C2501 C2500 1.524 . S
C2501 C2502 1.415 . S
C2502 H2478 0.950 . S
C2502 C2497 1.363 . S
C2502 C2501 1.415 . S
C2503 H2479 0.951 . S
C2503 C2504 1.366 . S
C2503 C2505 1.388 . S
C2504 C2503 1.366 . S
C2504 C2508 1.385 . S
C2505 H2480 0.951 . S
C2505 C2503 1.388 . S
C2505 C2506 1.366 . S
C2506 C2505 1.366 . S
C2506 C2507 1.414 . S
C2506 C2509 1.499 . S
C2507 H2481 0.950 . S
C2507 C2506 1.414 . S
C2507 C2508 1.374 . S
C2508 H2482 0.950 . S
C2508 C2504 1.385 . S
C2508 C2507 1.374 . S
C2509 C2506 1.499 . S
C2509 C2510 1.373 . S
C2509 C2511 1.389 . S
C2510 H2483 0.950 . S
C2510 C2496 1.377 . S
C2510 C2509 1.373 . S
C2511 C2495 1.377 . S
C2511 C2509 1.389 . S
C2511 C2512 1.524 . S
C2512 C2511 1.524 . S
C2512 C2513 1.397 . S
C2512 C2517 1.363 . S
C2513 H2484 0.950 . S
C2513 C2512 1.397 . S
C2513 C2514 1.334 . S
C2514 H2485 0.950 . S
C2514 C2513 1.334 . S
C2514 C2515 1.287 . S
C2515 C2514 1.287 . S
C2515 C2516 1.524 . S
C2515 H2518 0.999 . S
C2516 H2486 0.950 . S
C2516 C2515 1.524 . S
C2516 C2517 1.415 . S
C2517 H2487 0.950 . S
C2517 C2512 1.363 . S
C2517 C2516 1.415 . S
H2518 C2515 0.999 . S
H2519 C2500 0.913 1_565 S
H2520 C2538 0.951 . S
H2521 C2540 0.951 . S
H2522 C2542 0.950 . S
H2523 C2543 0.950 . S
H2524 C2545 0.950 . S
H2525 C2548 0.950 . S
H2526 C2549 0.950 . S
H2527 C2551 0.950 . S
H2528 C2552 0.950 . S
H2529 C2553 0.951 . S
H2530 C2555 0.951 . S
H2531 C2557 0.950 . S
H2532 C2558 0.950 . S
H2533 C2560 0.950 . S
H2534 C2563 0.950 . S
H2535 C2564 0.950 . S
H2536 C2566 0.950 . S
H2537 C2567 0.950 . S
C2538 H2520 0.951 . S
C2538 C2539 1.366 . S
C2538 C2540 1.388 . S
C2539 C2538 1.366 . S
C2539 C2543 1.385 . S
C2540 H2521 0.951 . S
C2540 C2538 1.388 . S
C2540 C2541 1.366 . S
C2541 C2540 1.366 . S
C2541 C2542 1.414 . S
C2541 C2544 1.499 . S
C2542 H2522 0.950 . S
C2542 C2541 1.414 . S
C2542 C2543 1.374 . S
C2543 H2523 0.950 . S
C2543 C2539 1.385 . S
C2543 C2542 1.374 . S
C2544 C2541 1.499 . S
C2544 C2545 1.373 . S
C2544 C2546 1.389 . S
C2545 H2524 0.950 . S
C2545 C2544 1.373 . S
C2545 C2561 1.377 . S
C2546 C2544 1.389 . S
C2546 C2547 1.524 . S
C2546 C2560 1.377 . S
C2547 C2546 1.524 . S
C2547 C2548 1.397 . S
C2547 C2552 1.363 . S
C2548 H2525 0.950 . S
C2548 C2547 1.397 . S
C2548 C2549 1.334 . S
C2549 H2526 0.950 . S
C2549 C2548 1.334 . S
C2549 C2550 1.287 . S
C2550 C2549 1.287 . S
C2550 C2551 1.524 . S
C2550 H2569 0.913 . S
C2551 H2527 0.950 . S
C2551 C2550 1.524 . S
C2551 C2552 1.415 . S
C2552 H2528 0.950 . S
C2552 C2547 1.363 . S
C2552 C2551 1.415 . S
C2553 H2529 0.951 . S
C2553 C2554 1.366 . S
C2553 C2555 1.388 . S
C2554 C2553 1.366 . S
C2554 C2558 1.385 . S
C2555 H2530 0.951 . S
C2555 C2553 1.388 . S
C2555 C2556 1.366 . S
C2556 C2555 1.366 . S
C2556 C2557 1.414 . S
C2556 C2559 1.499 1_545 S
C2557 H2531 0.950 . S
C2557 C2556 1.414 . S
C2557 C2558 1.374 . S
C2558 H2532 0.950 . S
C2558 C2554 1.385 . S
C2558 C2557 1.374 . S
C2559 C2556 1.499 1_565 S
C2559 C2560 1.373 . S
C2559 C2561 1.389 . S
C2560 H2533 0.950 . S
C2560 C2546 1.377 . S
C2560 C2559 1.373 . S
C2561 C2545 1.377 . S
C2561 C2559 1.389 . S
C2561 C2562 1.524 . S
C2562 C2561 1.524 . S
C2562 C2563 1.397 . S
C2562 C2567 1.363 . S
C2563 H2534 0.950 . S
C2563 C2562 1.397 . S
C2563 C2564 1.334 1_565 S
C2564 H2535 0.950 . S
C2564 C2563 1.334 1_545 S
C2564 C2565 1.287 1_545 S
C2565 C2564 1.287 1_565 S
C2565 C2566 1.524 . S
C2565 H2568 0.999 1_565 S
C2566 H2536 0.950 . S
C2566 C2565 1.524 . S
C2566 C2567 1.415 . S
C2567 H2537 0.950 . S
C2567 C2562 1.363 . S
C2567 C2566 1.415 . S
H2568 C2565 0.999 1_545 S
H2569 C2550 0.913 . S
H2570 C2588 0.951 . S
H2571 C2590 0.951 . S
H2572 C2592 0.950 . S
H2573 C2593 0.950 . S
H2574 C2595 0.950 . S
H2575 C2598 0.950 . S
H2576 C2599 0.950 . S
H2577 C2601 0.950 . S
H2578 C2602 0.950 . S
H2579 C2603 0.951 . S
H2580 C2605 0.951 . S
H2581 C2607 0.950 . S
H2582 C2608 0.950 . S
H2583 C2610 0.950 . S
H2584 C2613 0.950 . S
H2585 C2614 0.950 . S
H2586 C2616 0.950 . S
H2587 C2617 0.950 . S
C2588 H2570 0.951 . S
C2588 C2589 1.366 . S
C2588 C2590 1.388 . S
C2589 C2588 1.366 . S
C2589 C2593 1.385 . S
C2590 H2571 0.951 . S
C2590 C2588 1.388 . S
C2590 C2591 1.366 . S
C2591 C2590 1.366 . S
C2591 C2592 1.414 . S
C2591 C2594 1.499 . S
C2592 H2572 0.950 . S
C2592 C2591 1.414 . S
C2592 C2593 1.374 . S
C2593 H2573 0.950 . S
C2593 C2589 1.385 . S
C2593 C2592 1.374 . S
C2594 C2591 1.499 . S
C2594 C2595 1.373 . S
C2594 C2596 1.389 . S
C2595 H2574 0.950 . S
C2595 C2594 1.373 . S
C2595 C2611 1.377 . S
C2596 C2594 1.389 . S
C2596 C2597 1.524 . S
C2596 C2610 1.377 . S
C2597 C2596 1.524 . S
C2597 C2598 1.397 . S
C2597 C2602 1.363 . S
C2598 H2575 0.950 . S
C2598 C2597 1.397 . S
C2598 C2599 1.334 . S
C2599 H2576 0.950 . S
C2599 C2598 1.334 . S
C2599 C2600 1.287 . S
C2600 C2599 1.287 . S
C2600 C2601 1.524 . S
C2600 H2619 0.913 . S
C2601 H2577 0.950 . S
C2601 C2600 1.524 . S
C2601 C2602 1.415 . S
C2602 H2578 0.950 . S
C2602 C2597 1.363 . S
C2602 C2601 1.415 . S
C2603 H2579 0.951 . S
C2603 C2604 1.366 . S
C2603 C2605 1.388 . S
C2604 C2603 1.366 . S
C2604 C2608 1.385 . S
C2605 H2580 0.951 . S
C2605 C2603 1.388 . S
C2605 C2606 1.366 . S
C2606 C2605 1.366 . S
C2606 C2607 1.414 . S
C2606 C2609 1.499 1_565 S
C2607 H2581 0.950 . S
C2607 C2606 1.414 . S
C2607 C2608 1.374 . S
C2608 H2582 0.950 . S
C2608 C2604 1.385 . S
C2608 C2607 1.374 . S
C2609 C2606 1.499 1_545 S
C2609 C2610 1.373 . S
C2609 C2611 1.389 . S
C2610 H2583 0.950 . S
C2610 C2596 1.377 . S
C2610 C2609 1.373 . S
C2611 C2595 1.377 . S
C2611 C2609 1.389 . S
C2611 C2612 1.524 . S
C2612 C2611 1.524 . S
C2612 C2613 1.397 . S
C2612 C2617 1.363 . S
C2613 H2584 0.950 . S
C2613 C2612 1.397 . S
C2613 C2614 1.334 1_545 S
C2614 H2585 0.950 . S
C2614 C2613 1.334 1_565 S
C2614 C2615 1.287 . S
C2615 C2614 1.287 . S
C2615 C2616 1.524 1_565 S
C2615 H2618 0.999 . S
C2616 H2586 0.950 . S
C2616 C2615 1.524 1_545 S
C2616 C2617 1.415 . S
C2617 H2587 0.950 . S
C2617 C2612 1.363 . S
C2617 C2616 1.415 . S
H2618 C2615 0.999 . S
H2619 C2600 0.913 . S
H2620 C2638 0.951 . S
H2621 C2640 0.951 . S
H2622 C2642 0.950 . S
H2623 C2643 0.950 . S
H2624 C2645 0.950 . S
H2625 C2648 0.950 . S
H2626 C2649 0.950 . S
H2627 C2651 0.950 . S
H2628 C2652 0.950 . S
H2629 C2653 0.951 . S
H2630 C2655 0.951 . S
H2631 C2657 0.950 . S
H2632 C2658 0.950 . S
H2633 C2660 0.950 . S
H2634 C2663 0.950 . S
H2635 C2664 0.950 . S
H2636 C2666 0.950 . S
H2637 C2667 0.950 . S
C2638 H2620 0.951 . S
C2638 C2639 1.366 . S
C2638 C2640 1.388 . S
C2639 C2638 1.366 . S
C2639 C2643 1.385 . S
C2640 H2621 0.951 . S
C2640 C2638 1.388 . S
C2640 C2641 1.366 . S
C2641 C2640 1.366 . S
C2641 C2642 1.414 . S
C2641 C2644 1.499 1_565 S
C2642 H2622 0.950 . S
C2642 C2641 1.414 . S
C2642 C2643 1.374 . S
C2643 H2623 0.950 . S
C2643 C2639 1.385 . S
C2643 C2642 1.374 . S
C2644 C2641 1.499 1_545 S
C2644 C2645 1.373 . S
C2644 C2646 1.389 . S
C2645 H2624 0.950 . S
C2645 C2644 1.373 . S
C2645 C2661 1.377 . S
C2646 C2644 1.389 . S
C2646 C2647 1.524 . S
C2646 C2660 1.377 . S
C2647 C2646 1.524 . S
C2647 C2648 1.397 . S
C2647 C2652 1.363 . S
C2648 H2625 0.950 . S
C2648 C2647 1.397 . S
C2648 C2649 1.334 1_545 S
C2649 H2626 0.950 . S
C2649 C2648 1.334 1_565 S
C2649 C2650 1.287 . S
C2650 C2649 1.287 . S
C2650 C2651 1.524 1_565 S
C2650 H2669 0.913 . S
C2651 H2627 0.950 . S
C2651 C2650 1.524 1_545 S
C2651 C2652 1.415 . S
C2652 H2628 0.950 . S
C2652 C2647 1.363 . S
C2652 C2651 1.415 . S
C2653 H2629 0.951 . S
C2653 C2654 1.366 . S
C2653 C2655 1.388 . S
C2654 C2653 1.366 . S
C2654 C2658 1.385 . S
C2655 H2630 0.951 . S
C2655 C2653 1.388 . S
C2655 C2656 1.366 . S
C2656 C2655 1.366 . S
C2656 C2657 1.414 . S
C2656 C2659 1.499 . S
C2657 H2631 0.950 . S
C2657 C2656 1.414 . S
C2657 C2658 1.374 . S
C2658 H2632 0.950 . S
C2658 C2654 1.385 . S
C2658 C2657 1.374 . S
C2659 C2656 1.499 . S
C2659 C2660 1.373 . S
C2659 C2661 1.389 . S
C2660 H2633 0.950 . S
C2660 C2646 1.377 . S
C2660 C2659 1.373 . S
C2661 C2645 1.377 . S
C2661 C2659 1.389 . S
C2661 C2662 1.524 . S
C2662 C2661 1.524 . S
C2662 C2663 1.397 . S
C2662 C2667 1.363 . S
C2663 H2634 0.950 . S
C2663 C2662 1.397 . S
C2663 C2664 1.334 . S
C2664 H2635 0.950 . S
C2664 C2663 1.334 . S
C2664 C2665 1.287 . S
C2665 C2664 1.287 . S
C2665 C2666 1.524 . S
C2665 H2668 0.999 . S
C2666 H2636 0.950 . S
C2666 C2665 1.524 . S
C2666 C2667 1.415 . S
C2667 H2637 0.950 . S
C2667 C2662 1.363 . S
C2667 C2666 1.415 . S
H2668 C2665 0.999 . S
H2669 C2650 0.913 . S
H2670 C2688 0.951 . S
H2671 C2690 0.951 . S
H2672 C2692 0.950 . S
H2673 C2693 0.950 . S
H2674 C2695 0.950 . S
H2675 C2698 0.950 . S
H2676 C2699 0.950 . S
H2677 C2701 0.950 . S
H2678 C2702 0.950 . S
H2679 C2703 0.951 . S
H2680 C2705 0.951 . S
H2681 C2707 0.950 . S
H2682 C2708 0.950 . S
H2683 C2710 0.950 . S
H2684 C2713 0.950 . S
H2685 C2714 0.950 . S
H2686 C2716 0.950 . S
H2687 C2717 0.950 . S
C2688 H2670 0.951 . S
C2688 C2689 1.366 . S
C2688 C2690 1.388 . S
C2689 C2688 1.366 . S
C2689 C2693 1.385 . S
C2690 H2671 0.951 . S
C2690 C2688 1.388 . S
C2690 C2691 1.366 . S
C2691 C2690 1.366 . S
C2691 C2692 1.414 . S
C2691 C2694 1.499 . S
C2692 H2672 0.950 . S
C2692 C2691 1.414 . S
C2692 C2693 1.374 . S
C2693 H2673 0.950 . S
C2693 C2689 1.385 . S
C2693 C2692 1.374 . S
C2694 C2691 1.499 . S
C2694 C2695 1.373 . S
C2694 C2696 1.389 . S
C2695 H2674 0.950 . S
C2695 C2694 1.373 . S
C2695 C2711 1.377 . S
C2696 C2694 1.389 . S
C2696 C2697 1.524 . S
C2696 C2710 1.377 . S
C2697 C2696 1.524 . S
C2697 C2698 1.397 . S
C2697 C2702 1.363 . S
C2698 H2675 0.950 . S
C2698 C2697 1.397 . S
C2698 C2699 1.334 . S
C2699 H2676 0.950 . S
C2699 C2698 1.334 . S
C2699 C2700 1.287 . S
C2700 C2699 1.287 . S
C2700 C2701 1.524 . S
C2700 H2719 0.913 . S
C2701 H2677 0.950 . S
C2701 C2700 1.524 . S
C2701 C2702 1.415 . S
C2702 H2678 0.950 . S
C2702 C2697 1.363 . S
C2702 C2701 1.415 . S
C2703 H2679 0.951 . S
C2703 C2704 1.366 . S
C2703 C2705 1.388 . S
C2704 C2703 1.366 . S
C2704 C2708 1.385 . S
C2705 H2680 0.951 . S
C2705 C2703 1.388 . S
C2705 C2706 1.366 . S
C2706 C2705 1.366 . S
C2706 C2707 1.414 . S
C2706 C2709 1.499 1_545 S
C2707 H2681 0.950 . S
C2707 C2706 1.414 . S
C2707 C2708 1.374 . S
C2708 H2682 0.950 . S
C2708 C2704 1.385 . S
C2708 C2707 1.374 . S
C2709 C2706 1.499 1_565 S
C2709 C2710 1.373 . S
C2709 C2711 1.389 . S
C2710 H2683 0.950 . S
C2710 C2696 1.377 . S
C2710 C2709 1.373 . S
C2711 C2695 1.377 . S
C2711 C2709 1.389 . S
C2711 C2712 1.524 . S
C2712 C2711 1.524 . S
C2712 C2713 1.397 . S
C2712 C2717 1.363 . S
C2713 H2684 0.950 . S
C2713 C2712 1.397 . S
C2713 C2714 1.334 1_565 S
C2714 H2685 0.950 . S
C2714 C2713 1.334 1_545 S
C2714 C2715 1.287 1_545 S
C2715 C2714 1.287 1_565 S
C2715 C2716 1.524 . S
C2715 H2718 0.999 1_565 S
C2716 H2686 0.950 . S
C2716 C2715 1.524 . S
C2716 C2717 1.415 . S
C2717 H2687 0.950 . S
C2717 C2712 1.363 . S
C2717 C2716 1.415 . S
H2718 C2715 0.999 1_545 S
H2719 C2700 0.913 . S
C339 C2 1.444 . S
C354 C182 1.444 . S
C389 C22 1.444 . S
C404 C162 1.443 . S
C439 C222 1.445 . S
C454 C42 1.445 . S
C489 C62 1.444 . S
C504 C202 1.444 . S
C539 C264 1.444 . S
C554 C84 1.444 . S
C589 C244 1.444 . S
C604 C104 1.444 . S
C639 C304 1.444 . S
C654 C124 1.444 . S
C689 C144 1.444 . S
C704 C284 1.444 . S
C739 C59 1.566 . S
C754 C19 1.566 . S
C789 C79 1.566 . S
C804 C39 1.566 . S
C839 C138 1.566 . S
C854 C98 1.566 . S
C889 C118 1.566 . S
C904 C158 1.566 . S
C939 C219 1.566 . S
C954 C179 1.566 . S
C989 C239 1.566 . S
C1004 C199 1.566 . S
C1039 C258 1.566 . S
C1054 C298 1.566 . S
C1089 C278 1.566 . S
C1104 C318 1.566 . S
C1139 C119 1.557 . S
C1154 C18 1.557 . S
C1189 C99 1.558 . S
C1204 C38 1.557 . S
C1239 C58 1.557 . S
C1254 C159 1.557 . S
C1289 C139 1.558 . S
C1304 C78 1.557 . S
C1339 C178 1.557 . S
C1354 C279 1.558 . S
C1389 C259 1.558 . S
C1404 C198 1.557 . S
C1439 C218 1.557 . S
C1454 C319 1.558 . S
C1489 C299 1.557 . S
C1504 C238 1.557 . S
C1539 C24 1.534 . S
C1554 C4 1.533 . S
C1589 C64 1.533 . S
C1604 C44 1.533 . S
C1639 C102 1.533 . S
C1654 C82 1.533 . S
C1689 C122 1.533 . S
C1704 C142 1.533 . S
C1739 C184 1.533 . S
C1754 C164 1.533 . S
C1789 C224 1.532 . S
C1804 C204 1.532 . S
C1839 C242 1.533 . S
C1854 C262 1.534 . S
C1889 C282 1.533 . S
C1904 C302 1.533 . S
C1939 C12 1.707 . S
C1954 C9 1.707 . S
C1989 C32 1.707 . S
C2004 C29 1.707 . S
C2039 C52 1.707 . S
C2054 C49 1.707 . S
C2089 C69 1.707 . S
C2104 C72 1.707 . S
C2139 C89 1.707 . S
C2154 C92 1.707 . S
C2189 C112 1.707 . S
C2204 C109 1.707 . S
C2239 C129 1.707 . S
C2254 C132 1.707 . S
C2289 C149 1.707 . S
C2304 C152 1.707 . S
C2339 C169 1.707 . S
C2354 C172 1.707 . S
C2389 C192 1.707 . S
C2404 C189 1.707 . S
C2439 C209 1.707 . S
C2454 C212 1.707 . S
C2489 C229 1.707 . S
C2504 C232 1.707 . S
C2539 C249 1.707 . S
C2554 C252 1.707 . S
C2589 C269 1.707 . S
C2604 C272 1.707 . S
C2639 C292 1.707 . S
C2654 C289 1.707 . S
C2689 C309 1.707 . S
C2704 C312 1.707 . S
