# Generated by pormake.
# Topology xfk, (7)-cn, num edge types: 1
# Building blocks:
#     Node 0, Type 0, BuildingBlock: HICVOG_clean_sbu_0, # of connection points: 7
#     Node 1, Type 0, BuildingBlock: HICVOG_clean_sbu_0, # of connection points: 7
#     Node 2, Type 0, BuildingBlock: HICVOG_clean_sbu_0, # of connection points: 7
#     Node 3, Type 0, BuildingBlock: HICVOG_clean_sbu_0, # of connection points: 7
#     Node 4, Type 0, BuildingBlock: HICVOG_clean_sbu_0, # of connection points: 7
#     Node 5, Type 0, BuildingBlock: HICVOG_clean_sbu_0, # of connection points: 7
#     Node 6, Type 0, BuildingBlock: HICVOG_clean_sbu_0, # of connection points: 7
#     Node 7, Type 0, BuildingBlock: HICVOG_clean_sbu_0, # of connection points: 7
#     Node 8, Type 0, BuildingBlock: HICVOG_clean_sbu_0, # of connection points: 7
#     Node 9, Type 0, BuildingBlock: HICVOG_clean_sbu_0, # of connection points: 7
#     Node 10, Type 0, BuildingBlock: HICVOG_clean_sbu_0, # of connection points: 7
#     Node 11, Type 0, BuildingBlock: HICVOG_clean_sbu_0, # of connection points: 7
#     Node 12, Type 0, BuildingBlock: HICVOG_clean_sbu_0, # of connection points: 7
#     Node 13, Type 0, BuildingBlock: HICVOG_clean_sbu_0, # of connection points: 7
#     Node 14, Type 0, BuildingBlock: HICVOG_clean_sbu_0, # of connection points: 7
#     Node 15, Type 0, BuildingBlock: HICVOG_clean_sbu_0, # of connection points: 7
#     Edge 16, Type (0, 0), BuildingBlock: CIFDUS_clean_linker_0, # of connection points: 2
#     Edge 17, Type (0, 0), BuildingBlock: CIFDUS_clean_linker_0, # of connection points: 2
#     Edge 18, Type (0, 0), BuildingBlock: CIFDUS_clean_linker_0, # of connection points: 2
#     Edge 19, Type (0, 0), BuildingBlock: CIFDUS_clean_linker_0, # of connection points: 2
#     Edge 20, Type (0, 0), BuildingBlock: CIFDUS_clean_linker_0, # of connection points: 2
#     Edge 21, Type (0, 0), BuildingBlock: CIFDUS_clean_linker_0, # of connection points: 2
#     Edge 22, Type (0, 0), BuildingBlock: CIFDUS_clean_linker_0, # of connection points: 2
#     Edge 23, Type (0, 0), BuildingBlock: CIFDUS_clean_linker_0, # of connection points: 2
#     Edge 24, Type (0, 0), BuildingBlock: CIFDUS_clean_linker_0, # of connection points: 2
#     Edge 25, Type (0, 0), BuildingBlock: CIFDUS_clean_linker_0, # of connection points: 2
#     Edge 26, Type (0, 0), BuildingBlock: CIFDUS_clean_linker_0, # of connection points: 2
#     Edge 27, Type (0, 0), BuildingBlock: CIFDUS_clean_linker_0, # of connection points: 2
#     Edge 28, Type (0, 0), BuildingBlock: CIFDUS_clean_linker_0, # of connection points: 2
#     Edge 29, Type (0, 0), BuildingBlock: CIFDUS_clean_linker_0, # of connection points: 2
#     Edge 30, Type (0, 0), BuildingBlock: CIFDUS_clean_linker_0, # of connection points: 2
#     Edge 31, Type (0, 0), BuildingBlock: CIFDUS_clean_linker_0, # of connection points: 2
#     Edge 32, Type (0, 0), BuildingBlock: CIFDUS_clean_linker_0, # of connection points: 2
#     Edge 33, Type (0, 0), BuildingBlock: CIFDUS_clean_linker_0, # of connection points: 2
#     Edge 34, Type (0, 0), BuildingBlock: CIFDUS_clean_linker_0, # of connection points: 2
#     Edge 35, Type (0, 0), BuildingBlock: CIFDUS_clean_linker_0, # of connection points: 2
#     Edge 36, Type (0, 0), BuildingBlock: CIFDUS_clean_linker_0, # of connection points: 2
#     Edge 37, Type (0, 0), BuildingBlock: CIFDUS_clean_linker_0, # of connection points: 2
#     Edge 38, Type (0, 0), BuildingBlock: CIFDUS_clean_linker_0, # of connection points: 2
#     Edge 39, Type (0, 0), BuildingBlock: CIFDUS_clean_linker_0, # of connection points: 2
#     Edge 40, Type (0, 0), BuildingBlock: CIFDUS_clean_linker_0, # of connection points: 2
#     Edge 41, Type (0, 0), BuildingBlock: CIFDUS_clean_linker_0, # of connection points: 2
#     Edge 42, Type (0, 0), BuildingBlock: CIFDUS_clean_linker_0, # of connection points: 2
#     Edge 43, Type (0, 0), BuildingBlock: CIFDUS_clean_linker_0, # of connection points: 2
#     Edge 44, Type (0, 0), BuildingBlock: CIFDUS_clean_linker_0, # of connection points: 2
#     Edge 45, Type (0, 0), BuildingBlock: CIFDUS_clean_linker_0, # of connection points: 2
#     Edge 46, Type (0, 0), BuildingBlock: CIFDUS_clean_linker_0, # of connection points: 2
#     Edge 47, Type (0, 0), BuildingBlock: CIFDUS_clean_linker_0, # of connection points: 2
#     Edge 48, Type (0, 0), BuildingBlock: CIFDUS_clean_linker_0, # of connection points: 2
#     Edge 49, Type (0, 0), BuildingBlock: CIFDUS_clean_linker_0, # of connection points: 2
#     Edge 50, Type (0, 0), BuildingBlock: CIFDUS_clean_linker_0, # of connection points: 2
#     Edge 51, Type (0, 0), BuildingBlock: CIFDUS_clean_linker_0, # of connection points: 2
#     Edge 52, Type (0, 0), BuildingBlock: CIFDUS_clean_linker_0, # of connection points: 2
#     Edge 53, Type (0, 0), BuildingBlock: CIFDUS_clean_linker_0, # of connection points: 2
#     Edge 54, Type (0, 0), BuildingBlock: CIFDUS_clean_linker_0, # of connection points: 2
#     Edge 55, Type (0, 0), BuildingBlock: CIFDUS_clean_linker_0, # of connection points: 2
#     Edge 56, Type (0, 0), BuildingBlock: CIFDUS_clean_linker_0, # of connection points: 2
#     Edge 57, Type (0, 0), BuildingBlock: CIFDUS_clean_linker_0, # of connection points: 2
#     Edge 58, Type (0, 0), BuildingBlock: CIFDUS_clean_linker_0, # of connection points: 2
#     Edge 59, Type (0, 0), BuildingBlock: CIFDUS_clean_linker_0, # of connection points: 2
#     Edge 60, Type (0, 0), BuildingBlock: CIFDUS_clean_linker_0, # of connection points: 2
#     Edge 61, Type (0, 0), BuildingBlock: CIFDUS_clean_linker_0, # of connection points: 2
#     Edge 62, Type (0, 0), BuildingBlock: CIFDUS_clean_linker_0, # of connection points: 2
#     Edge 63, Type (0, 0), BuildingBlock: CIFDUS_clean_linker_0, # of connection points: 2
#     Edge 64, Type (0, 0), BuildingBlock: CIFDUS_clean_linker_0, # of connection points: 2
#     Edge 65, Type (0, 0), BuildingBlock: CIFDUS_clean_linker_0, # of connection points: 2
#     Edge 66, Type (0, 0), BuildingBlock: CIFDUS_clean_linker_0, # of connection points: 2
#     Edge 67, Type (0, 0), BuildingBlock: CIFDUS_clean_linker_0, # of connection points: 2
#     Edge 68, Type (0, 0), BuildingBlock: CIFDUS_clean_linker_0, # of connection points: 2
#     Edge 69, Type (0, 0), BuildingBlock: CIFDUS_clean_linker_0, # of connection points: 2
#     Edge 70, Type (0, 0), BuildingBlock: CIFDUS_clean_linker_0, # of connection points: 2
#     Edge 71, Type (0, 0), BuildingBlock: CIFDUS_clean_linker_0, # of connection points: 2
# Relax obj value: 0.505
# Max RMSD: 0.284
# Mean RMSD: 0.284
data_MOF--net-xfk--node1-HICVOG_clean_sbu_0--edge1-CIFDUS_clean_linker_0
_symmetry_space_group_name_H-M    P1
_symmetry_Int_Tables_number       1
_symmetry_cell_setting            triclinic
loop_
_symmetry_equiv_pos_as_xyz
'x, y, z'
_cell_length_a     34.070784
_cell_length_b     33.986474
_cell_length_c     33.422458
_cell_angle_alpha  89.929139
_cell_angle_beta   89.976162
_cell_angle_gamma 90.376921
loop_
_atom_site_label
_atom_site_type_symbol
_atom_site_fract_x
_atom_site_fract_y
_atom_site_fract_z
_atom_type_partial_charge
Zn0 Zn 0.39662 0.18905 0.107 0.0
C1 C 0.43151 0.1422 1.00049 0.0
N2 N 0.45741 0.17105 0.99231 0.0
C3 C 0.45472 0.1968 1.02256 0.0
N4 N 0.42677 0.18201 0.05092 0.0
N5 N 0.41311 0.14809 1.03587 0.0
C6 C 0.32844 0.05044 1.02588 0.0
O7 O 0.34837 0.03657 0.05632 0.0
O8 O 0.37573 0.24398 0.10544 0.0
Zn9 Zn 0.36116 0.12332 0.05482 0.0
N10 N 0.43708 0.18824 0.14693 0.0
C11 C 0.47639 0.21104 0.20104 0.0
C12 C 0.44912 0.21839 0.17077 0.0
C13 C 0.4501 0.15125 0.15277 0.0
N14 N 0.48966 0.17379 0.20672 0.0
C15 C 0.47722 0.14348 0.1832 0.0
O16 O 0.3542 0.09188 0.11007 0.0
C17 C 0.34129 0.11088 0.14006 0.0
O18 O 0.35044 0.14832 0.14004 0.0
H19 H 0.43708 0.2475 0.16721 0.0
H20 H 0.43763 0.12803 0.1346 0.0
C21 C 0.2904 0.16143 0.07562 0.0
C22 C 0.26435 0.19285 0.07875 0.0
C23 C 0.30747 0.23229 1.03977 0.0
C24 C 0.33357 0.20104 1.03718 0.0
N25 N 0.32512 0.16669 0.05636 0.0
N26 N 0.27368 0.22766 0.0608 0.0
H27 H 0.28334 0.1331 0.08863 0.0
C28 C 0.40007 0.27112 0.09656 0.0
O29 O 0.43696 0.2621 0.09031 0.0
O30 O 0.33318 0.08635 1.01576 0.0
H31 H 0.36023 0.20433 1.02003 0.0
H32 H 0.48637 0.23459 0.22035 0.0
H33 H 0.31391 0.25995 1.02504 0.0
Zn34 Zn 0.03241 0.7463 0.97121 0.0
C35 C 0.08237 0.7966 0.06931 0.0
N36 N 0.09605 0.76303 0.08458 0.0
C37 C 0.08765 0.73539 0.05733 0.0
N38 N 0.06648 0.7535 1.02483 0.0
N39 N 0.06584 0.79207 1.03288 0.0
C40 C 1.00132 0.86307 0.05518 0.0
O41 O 0.99335 0.82637 1.04565 0.0
O42 O 0.0735 0.72786 0.93272 0.0
Zn43 Zn 0.05137 0.84128 0.99866 0.0
N44 N 0.99723 0.70283 0.98329 0.0
C45 C 0.95106 0.67394 1.02805 0.0
C46 C 0.97067 0.70709 1.01328 0.0
C47 C 1.00347 0.66717 0.96627 0.0
N48 N 0.96106 0.63776 1.01425 0.0
C49 C 0.98775 0.63329 0.98424 0.0
O50 O 1.00724 0.85012 0.95357 0.0
C51 C 0.98726 0.82767 0.9307 0.0
O52 O 0.99346 0.79004 0.93518 0.0
H53 H 0.96589 0.73572 1.02645 0.0
H54 H 1.02311 0.66496 0.94107 0.0
C55 C 0.12455 0.88665 0.98919 0.0
C56 C 0.15711 0.89988 0.96669 0.0
C57 C 0.13557 0.86096 0.91198 0.0
C58 C 0.10389 0.84736 0.93459 0.0
N59 N 0.09879 0.86054 0.97261 0.0
N60 N 0.1614 0.88678 0.92849 0.0
H61 H 0.11941 0.89748 1.01912 0.0
C62 C 0.09366 0.70006 0.94732 0.0
O63 O 0.08325 0.68517 0.98197 0.0
O64 O 0.03022 0.8802 1.0384 0.0
H65 H 0.08305 0.82679 0.92179 0.0
H66 H 0.92992 0.67669 0.05203 0.0
H67 H 0.13971 0.85095 0.88156 0.0
Zn68 Zn 0.69643 0.93117 0.07761 0.0
C69 C 0.60198 0.86088 1.04046 0.0
N70 N 0.60945 0.87937 1.00563 0.0
C71 C 0.63797 0.90552 1.01366 0.0
N72 N 0.6477 0.90554 0.05295 0.0
N73 N 0.62646 0.87752 0.07106 0.0
C74 C 0.69353 0.81254 0.16239 0.0
O75 O 0.71265 0.8388 0.18376 0.0
O76 O 0.72733 0.96745 1.041 0.0
Zn77 Zn 0.64772 0.87789 0.13225 0.0
N78 N 0.73183 0.8887 0.08946 0.0
C79 C 0.74914 0.82114 0.0856 0.0
C80 C 0.72282 0.85133 0.07798 0.0
C81 C 0.76688 0.89742 0.10678 0.0
N82 N 0.78393 0.82976 0.10322 0.0
C83 C 0.79383 0.86722 0.11378 0.0
O84 O 0.6925 0.91959 0.16775 0.0
C85 C 0.70491 0.95548 0.16156 0.0
O86 O 0.69661 0.96886 0.12701 0.0
H87 H 0.69555 0.84483 0.06295 0.0
H88 H 0.77391 0.92768 0.11403 0.0
C89 C 0.5803 0.91415 0.15839 0.0
C90 C 0.54855 0.92216 0.18345 0.0
C91 C 0.56065 0.86323 0.21913 0.0
C92 C 0.59262 0.85553 0.19417 0.0
N93 N 0.60177 0.88145 0.16454 0.0
N94 N 0.53961 0.89669 0.21361 0.0
H95 H 0.58926 0.93462 0.13521 0.0
C96 C 0.71602 1.00079 1.02853 0.0
O97 O 0.67993 1.01207 1.03592 0.0
O98 O 0.66584 0.82331 0.13971 0.0
H99 H 0.61046 0.82975 0.19898 0.0
H100 H 0.74222 0.79117 0.07715 0.0
H101 H 0.55312 0.84323 0.24318 0.0
Zn102 Zn 1.0148 0.29527 0.97499 0.0
C103 C 0.96019 0.25525 0.07811 0.0
N104 N 0.94576 0.29021 0.08773 0.0
C105 C 0.95597 0.31454 0.05836 0.0
N106 N 0.97886 0.29311 1.02924 0.0
N107 N 0.97945 0.25582 1.04256 0.0
C108 C 0.04496 0.18908 0.08045 0.0
O109 O 0.04385 0.22766 0.07887 0.0
O110 O 0.97633 0.30918 0.93121 0.0
Zn111 Zn 0.9975 0.20454 1.01517 0.0
N112 N 0.04888 0.3402 0.98411 0.0
C113 C 0.10407 0.36898 1.0169 0.0
C114 C 0.08273 0.33566 1.00508 0.0
C115 C 0.03625 0.37655 0.97371 0.0
N116 N 0.08947 0.40538 1.00919 0.0
C117 C 0.05545 0.40988 0.9884 0.0
O118 O 0.04231 0.19491 0.97282 0.0
C119 C 0.06262 0.21231 0.94603 0.0
O120 O 0.05639 0.24993 0.94293 0.0
H121 H 0.0925 0.30653 1.01331 0.0
H122 H 1.01062 0.37996 0.95536 0.0
C123 C 0.9298 0.15094 0.99516 0.0
C124 C 0.89503 0.14355 0.97328 0.0
C125 C 0.90725 0.20124 0.93487 0.0
C126 C 0.94066 0.20904 0.95742 0.0
N127 N 0.95116 0.18422 0.98738 0.0
N128 N 0.88506 0.16914 0.94363 0.0
H129 H 0.93892 0.13142 1.01889 0.0
C130 C 0.95037 0.33358 0.94181 0.0
O131 O 0.95184 0.34803 0.97803 0.0
O132 O 1.02231 0.16966 0.05738 0.0
H133 H 0.95817 0.23501 0.95143 0.0
H134 H 0.13105 0.36592 1.03363 0.0
H135 H 0.89855 0.22096 0.91108 0.0
Zn136 Zn 0.20694 0.49798 0.2623 0.0
C137 C 0.31839 0.45149 0.29722 0.0
N138 N 0.29532 0.43905 0.32659 0.0
C139 C 0.26011 0.4543 0.32024 0.0
N140 N 0.25906 0.4761 0.28596 0.0
N141 N 0.29574 0.4762 0.27081 0.0
C142 C 0.29823 0.47135 0.14344 0.0
O143 O 0.26469 0.48808 0.13464 0.0
O144 O 0.1793 0.52961 0.30581 0.0
Zn145 Zn 0.29698 0.51504 0.21926 0.0
N146 N 0.18026 0.45188 0.23816 0.0
C147 C 0.18703 0.41345 0.17899 0.0
C148 C 0.19783 0.44556 0.20229 0.0
C149 C 0.15135 0.42691 0.25157 0.0
N150 N 0.15957 0.38795 0.19288 0.0
C151 C 0.14131 0.39327 0.22866 0.0
O152 O 0.25117 0.55587 0.18679 0.0
C153 C 0.21365 0.56198 0.1901 0.0
O154 O 0.19674 0.54177 0.21745 0.0
H155 H 0.22066 0.46538 0.19224 0.0
H156 H 0.13717 0.43213 0.27991 0.0
C157 C 0.37647 0.53355 0.22761 0.0
C158 C 0.4098 0.55738 0.23317 0.0
C159 C 0.36818 0.61201 0.24496 0.0
C160 C 0.33525 0.58826 0.23838 0.0
N161 N 0.34026 0.5496 0.22974 0.0
N162 N 0.40459 0.59612 0.24206 0.0
H163 H 0.37881 0.50235 0.22192 0.0
C164 C 0.20179 0.54864 0.32941 0.0
O165 O 0.23944 0.54077 0.32919 0.0
O166 O 0.31555 0.47953 0.17603 0.0
H167 H 0.30603 0.6004 0.24011 0.0
H168 H 0.2009 0.40832 0.15042 0.0
H169 H 0.36489 0.64287 0.25201 0.0
Zn170 Zn 0.38525 0.63741 0.88385 0.0
C171 C 0.41344 0.6372 0.76707 0.0
N172 N 0.38818 0.60897 0.75641 0.0
C173 C 0.36923 0.59787 0.78985 0.0
N174 N 0.38494 0.62051 0.8225 0.0
N175 N 0.41271 0.64406 0.80678 0.0
C176 C 0.51069 0.71125 0.78457 0.0
O177 O 0.52233 0.67525 0.79225 0.0
O178 O 0.33128 0.65587 0.89335 0.0
Zn179 Zn 0.44063 0.69154 0.83362 0.0
N180 N 0.38649 0.58897 0.91378 0.0
C181 C 0.35474 0.53204 0.94014 0.0
C182 C 0.35418 0.56535 0.91578 0.0
C183 C 0.41944 0.58042 0.93449 0.0
N184 N 0.38789 0.52324 0.96076 0.0
C185 C 0.42047 0.54663 0.95883 0.0
O186 O 0.47791 0.68998 0.88406 0.0
C187 C 0.46079 0.69669 0.91711 0.0
O188 O 0.42491 0.68294 0.91932 0.0
H189 H 0.32803 0.57276 0.89916 0.0
H190 H 0.44471 0.59943 0.93066 0.0
C191 C 0.41075 0.76546 0.85972 0.0
C192 C 0.38155 0.7931 0.86835 0.0
C193 C 0.33278 0.7467 0.84914 0.0
C194 C 0.36182 0.71954 0.84018 0.0
N195 N 0.40012 0.72905 0.84648 0.0
N196 N 0.34327 0.7827 0.86298 0.0
H197 H 0.44154 0.7728 0.86302 0.0
C198 C 0.31805 0.65479 0.92874 0.0
O199 O 0.34132 0.64505 0.95843 0.0
O200 O 0.47732 0.7223 0.79699 0.0
H201 H 0.3538 0.69134 0.82779 0.0
H202 H 0.32921 0.51307 0.94232 0.0
H203 H 0.30221 0.73975 0.84398 0.0
Zn204 Zn 0.74982 0.53145 0.22574 0.0
C205 C 0.79377 0.58665 0.32332 0.0
N206 N 0.75999 0.60033 0.33744 0.0
C207 C 0.7327 0.58929 0.31078 0.0
N208 N 0.75147 0.56648 0.2797 0.0
N209 N 0.78981 0.56721 0.2886 0.0
C210 C 0.8599 0.50242 0.31687 0.0
O211 O 0.82362 0.49439 0.30623 0.0
O212 O 0.74006 0.5741 0.18726 0.0
Zn213 Zn 0.84076 0.55302 0.25877 0.0
N214 N 0.70362 0.49951 0.23053 0.0
C215 C 0.67351 0.43626 0.23033 0.0
C216 C 0.70704 0.45981 0.22779 0.0
C217 C 0.66831 0.51678 0.23651 0.0
N218 N 0.63803 0.45349 0.23536 0.0
C219 C 0.63442 0.49325 0.23871 0.0
O220 O 0.85137 0.5085 0.21603 0.0
C221 C 0.83293 0.48637 0.19158 0.0
O222 O 0.7949 0.49039 0.1919 0.0
H223 H 0.73552 0.44664 0.22347 0.0
H224 H 0.66676 0.54854 0.23818 0.0
C225 C 0.88841 0.62604 0.24588 0.0
C226 C 0.89561 0.66131 0.22457 0.0
C227 C 0.84589 0.64357 0.17811 0.0
C228 C 0.83856 0.60914 0.19941 0.0
N229 N 0.85935 0.60118 0.23309 0.0
N230 N 0.87384 0.6689 0.19134 0.0
H231 H 0.90472 0.6191 0.27272 0.0
C232 C 0.71409 0.58135 0.16124 0.0
O233 O 0.68734 0.55469 0.15257 0.0
O234 O 0.87749 0.53156 0.30079 0.0
H235 H 0.8161 0.5888 0.18947 0.0
H236 H 0.67558 0.40461 0.22796 0.0
H237 H 0.82925 0.65035 0.15145 0.0
Zn238 Zn 0.66707 0.42164 0.86106 0.0
C239 C 0.63775 0.42139 0.74439 0.0
N240 N 0.66443 0.44839 0.73325 0.0
C241 C 0.68263 0.45969 0.76698 0.0
N242 N 0.66564 0.43832 0.79983 0.0
N243 N 0.63708 0.41565 0.78438 0.0
C244 C 0.52755 0.34984 0.77765 0.0
O245 O 0.51542 0.38172 0.79593 0.0
O246 O 0.7218 0.40452 0.87211 0.0
Zn247 Zn 0.60503 0.3703 0.81227 0.0
N248 N 0.66684 0.46944 0.8914 0.0
C249 C 0.70081 0.52568 0.91615 0.0
C250 C 0.69913 0.49313 0.89088 0.0
C251 C 0.63613 0.47693 0.91582 0.0
N252 N 0.66999 0.53334 0.94064 0.0
C253 C 0.63755 0.5097 0.9415 0.0
O254 O 0.57128 0.37494 0.86478 0.0
C255 C 0.5901 0.36493 0.89596 0.0
O256 O 0.6269 0.37628 0.89644 0.0
H257 H 0.72355 0.48642 0.87142 0.0
H258 H 0.6108 0.45771 0.91425 0.0
C259 C 0.62773 0.29204 0.83314 0.0
C260 C 0.65435 0.26201 0.84217 0.0
C261 C 0.70709 0.3074 0.83462 0.0
C262 C 0.6806 0.33661 0.82414 0.0
N263 N 0.64158 0.32879 0.82484 0.0
N264 N 0.6934 0.2708 0.84317 0.0
H265 H 0.59646 0.2863 0.8322 0.0
C266 C 0.75127 0.40498 0.84884 0.0
O267 O 0.74747 0.41408 0.8109 0.0
O268 O 0.56399 0.34203 0.77752 0.0
H269 H 0.69077 0.36512 0.81491 0.0
H270 H 0.72631 0.54481 0.91621 0.0
H271 H 0.73831 0.3134 0.83487 0.0
Zn272 Zn 0.89939 0.67991 0.60595 0.0
C273 C 0.93531 0.63881 0.49673 0.0
N274 N 0.96134 0.66767 0.48973 0.0
C275 C 0.95831 0.69264 0.52052 0.0
N276 N 0.93024 0.67695 0.54856 0.0
N277 N 0.91655 0.64372 0.53202 0.0
C278 C 0.8376 0.54361 0.51762 0.0
O279 O 0.86316 0.52979 0.54336 0.0
O280 O 0.87179 0.73158 0.60684 0.0
Zn281 Zn 0.86489 0.61765 0.54967 0.0
N282 N 0.9399 0.68396 0.64595 0.0
C283 C 0.98624 0.71568 0.6886 0.0
C284 C 0.95904 0.71737 0.65731 0.0
C285 C 0.94635 0.64942 0.66486 0.0
N286 N 0.99272 0.68085 0.70752 0.0
C287 C 0.97282 0.64766 0.69679 0.0
O288 O 0.85941 0.58386 0.60223 0.0
C289 C 0.84656 0.59844 0.63477 0.0
O290 O 0.85522 0.63561 0.63946 0.0
H291 H 0.95324 0.74503 0.64266 0.0
H292 H 0.93116 0.62333 0.65442 0.0
C293 C 0.79213 0.6489 0.56907 0.0
C294 C 0.76261 0.67701 0.57153 0.0
C295 C 0.80491 0.72398 0.54116 0.0
C296 C 0.83402 0.69553 0.53793 0.0
N297 N 0.82746 0.65905 0.55336 0.0
N298 N 0.76989 0.71411 0.55788 0.0
H299 H 0.78697 0.61893 0.57884 0.0
C300 C 0.88726 0.76179 0.59083 0.0
O301 O 0.92216 0.75907 0.57465 0.0
O302 O 0.83658 0.58053 0.5109 0.0
H303 H 0.86155 0.70264 0.52355 0.0
H304 H 1.002 0.74187 0.69784 0.0
H305 H 0.80987 0.75348 0.52996 0.0
Zn306 Zn 0.53365 0.24035 0.46226 0.0
C307 C 0.59735 0.28736 0.55612 0.0
N308 N 0.6117 0.25264 0.56684 0.0
C309 C 0.59846 0.22671 0.5403 0.0
N310 N 0.57412 0.24707 0.51165 0.0
N311 N 0.57596 0.28537 0.52193 0.0
C312 C 0.50816 0.35081 0.55997 0.0
O313 O 0.50918 0.31223 0.55831 0.0
O314 O 0.56761 0.21266 0.42299 0.0
Zn315 Zn 0.55668 0.33713 0.49418 0.0
N316 N 0.49684 0.20096 0.48098 0.0
C317 C 0.4351 0.18403 0.50942 0.0
C318 C 0.46128 0.21234 0.49495 0.0
C319 C 0.50756 0.16245 0.48111 0.0
N320 N 0.44572 0.14557 0.50956 0.0
C321 C 0.48143 0.13361 0.49596 0.0
O322 O 0.51246 0.34329 0.45059 0.0
C323 C 0.49091 0.32483 0.42559 0.0
O324 O 0.49511 0.2866 0.42568 0.0
H325 H 0.45348 0.24314 0.4949 0.0
H326 H 0.53599 0.15474 0.46927 0.0
C327 C 0.62307 0.39632 0.47689 0.0
C328 C 0.65749 0.40555 0.45509 0.0
C329 C 0.6451 0.35098 0.41263 0.0
C330 C 0.61217 0.34118 0.43519 0.0
N331 N 0.60227 0.36288 0.46759 0.0
N332 N 0.66735 0.38233 0.42354 0.0
H333 H 0.61421 0.41461 0.50171 0.0
C334 C 0.587 0.23183 0.39713 0.0
O335 O 0.57217 0.26443 0.38279 0.0
O336 O 0.52958 0.37051 0.53596 0.0
H337 H 0.59451 0.31601 0.42754 0.0
H338 H 0.40658 0.19252 0.52058 0.0
H339 H 0.65345 0.33326 0.38718 0.0
Zn340 Zn 0.19747 0.42528 0.58052 0.0
C341 C 0.10057 0.35799 0.54349 0.0
N342 N 0.11124 0.37367 0.50817 0.0
C343 C 0.13973 0.3996 0.51661 0.0
N344 N 0.14737 0.40162 0.55619 0.0
N345 N 0.12323 0.37626 0.57465 0.0
C346 C 0.14401 0.31235 0.68633 0.0
O347 O 0.13062 0.33538 0.71469 0.0
O348 O 0.23105 0.45803 0.54253 0.0
Zn349 Zn 0.13956 0.38153 0.63677 0.0
N350 N 0.22991 0.38086 0.59515 0.0
C351 C 0.24043 0.31184 0.59935 0.0
C352 C 0.21622 0.34346 0.59051 0.0
C353 C 0.26743 0.38779 0.60715 0.0
N354 N 0.27767 0.3188 0.61172 0.0
C355 C 0.29216 0.356 0.61575 0.0
O356 O 0.18712 0.42082 0.67106 0.0
C357 C 0.20403 0.45461 0.66344 0.0
O358 O 0.19993 0.46608 0.62747 0.0
H359 H 0.18709 0.33796 0.57927 0.0
H360 H 0.27797 0.41769 0.6088 0.0
C361 C 0.08779 0.42834 0.68146 0.0
C362 C 0.05391 0.43707 0.70364 0.0
C363 C 0.029 0.37309 0.68915 0.0
C364 C 0.06245 0.365 0.66674 0.0
N365 N 0.09131 0.39263 0.66394 0.0
N366 N 0.02541 0.40887 0.70678 0.0
H367 H 0.11093 0.44971 0.67678 0.0
C368 C 0.22083 0.4915 0.5293 0.0
O369 O 0.18487 0.5037 0.53573 0.0
O370 O 0.15167 0.32642 0.65202 0.0
H371 H 0.06581 0.33673 0.65233 0.0
H372 H 0.23023 0.28196 0.59511 0.0
H373 H 1.00586 0.35134 0.69217 0.0
Zn374 Zn 0.49688 0.7096 0.51189 0.0
C375 C 0.44924 0.82032 0.55022 0.0
N376 N 0.43556 0.7956 0.57766 0.0
C377 C 0.45101 0.76072 0.56972 0.0
N378 N 0.47339 0.76137 0.53594 0.0
N379 N 0.47445 0.79903 0.52324 0.0
C380 C 0.44799 0.81154 0.42603 0.0
O381 O 0.43784 0.78264 0.44999 0.0
O382 O 0.52628 0.68223 0.55669 0.0
Zn383 Zn 0.51472 0.80376 0.47323 0.0
N384 N 0.45387 0.67956 0.4853 0.0
C385 C 0.41881 0.68016 0.42352 0.0
C386 C 0.44877 0.69438 0.44789 0.0
C387 C 0.43142 0.64835 0.49808 0.0
N388 N 0.39508 0.65097 0.43718 0.0
C389 C 0.4004 0.63427 0.47378 0.0
O390 O 0.55457 0.75725 0.43895 0.0
C391 C 0.56139 0.71954 0.44155 0.0
O392 O 0.54202 0.70168 0.46881 0.0
H393 H 0.46814 0.71729 0.43703 0.0
H394 H 0.43685 0.63476 0.5267 0.0
C395 C 0.53959 0.88326 0.48758 0.0
C396 C 0.5656 0.91297 0.50077 0.0
C397 C 0.61234 0.86362 0.51673 0.0
C398 C 0.58633 0.83448 0.5039 0.0
N399 N 0.55064 0.84488 0.48948 0.0
N400 N 0.60143 0.90193 0.51484 0.0
H401 H 0.51105 0.89017 0.47547 0.0
C402 C 0.54389 0.70486 0.58128 0.0
O403 O 0.53732 0.74282 0.57942 0.0
O404 O 0.4818 0.8269 0.42974 0.0
H405 H 0.59437 0.80377 0.50547 0.0
H406 H 0.41425 0.69242 0.39401 0.0
H407 H 0.64096 0.8559 0.52821 0.0
Zn408 Zn 0.7104 0.99691 0.75453 0.0
C409 C 0.81979 0.95267 0.79668 0.0
N410 N 0.79523 0.9403 0.8249 0.0
C411 C 0.7605 0.95603 0.81685 0.0
N412 N 0.76136 0.97782 0.78256 0.0
N413 N 0.79875 0.9777 0.76936 0.0
C414 C 0.83609 0.97944 0.64301 0.0
O415 O 0.85064 1.0142 0.6339 0.0
O416 O 0.67636 1.0243 0.796 0.0
Zn417 Zn 0.80288 1.01376 0.71623 0.0
N418 N 0.68861 0.94937 0.72929 0.0
C419 C 0.70405 0.90361 0.67782 0.0
C420 C 0.71218 0.9381 0.69863 0.0
C421 C 0.6562 0.92759 0.73943 0.0
N422 N 0.673 0.88106 0.68901 0.0
C423 C 0.64865 0.89167 0.71941 0.0
O424 O 0.75776 0.0536 0.68089 0.0
C425 C 0.71996 0.05937 0.68194 0.0
O426 O 0.70175 0.03997 0.70901 0.0
H427 H 0.73755 0.95579 0.69078 0.0
H428 H 0.63743 0.93721 0.7635 0.0
C429 C 0.88569 0.033 0.72315 0.0
C430 C 0.9176 0.05896 0.72918 0.0
C431 C 0.87249 0.11125 0.73905 0.0
C432 C 0.84118 0.08549 0.73288 0.0
N433 N 0.84833 0.04707 0.72485 0.0
N434 N 0.90971 0.09748 0.73692 0.0
H435 H 0.89022 1.00227 0.71633 0.0
C436 C 0.69483 0.04434 0.82216 0.0
O437 O 0.73325 0.04209 0.82354 0.0
O438 O 0.81684 0.97462 0.67516 0.0
H439 H 0.81129 0.09596 0.73433 0.0
H440 H 0.72274 0.89433 0.65347 0.0
H441 H 0.86732 0.14199 0.74535 0.0
Zn442 Zn 0.88488 0.13466 0.38814 0.0
C443 C 0.91243 0.12802 0.27016 0.0
N444 N 0.88543 0.10089 0.26072 0.0
C445 C 0.86742 0.09153 0.29521 0.0
N446 N 0.88507 0.11391 0.32704 0.0
N447 N 0.91344 0.13544 0.30984 0.0
C448 C 1.01606 0.20063 0.28447 0.0
O449 O 0.02781 0.1639 0.285 0.0
O450 O 0.82984 0.15237 0.39135 0.0
Zn451 Zn 0.94373 0.18126 0.33575 0.0
N452 N 0.88617 0.08898 0.42183 0.0
C453 C 0.85574 0.03766 0.45932 0.0
C454 C 0.85291 0.06997 0.43366 0.0
C455 C 0.92194 0.07735 0.4346 0.0
N456 N 0.89169 1.02571 0.47189 0.0
C457 C 0.92505 0.04498 0.4605 0.0
O458 O 0.97795 0.17691 0.3868 0.0
C459 C 0.96275 0.19021 0.41879 0.0
O460 O 0.92553 0.18155 0.42283 0.0
H461 H 0.82454 0.0798 0.42334 0.0
H462 H 0.94761 0.09284 0.4236 0.0
C463 C 0.92164 0.25893 0.35354 0.0
C464 C 0.89613 0.29071 0.35774 0.0
C465 C 0.84184 0.24773 0.34775 0.0
C466 C 0.86747 0.21654 0.34178 0.0
N467 N 0.90667 0.22249 0.34617 0.0
N468 N 0.85674 0.28406 0.35531 0.0
H469 H 0.95313 0.2632 0.35478 0.0
C470 C 0.8121 0.17695 0.41306 0.0
O471 O 0.83109 0.1957 0.44151 0.0
O472 O 0.98395 0.20981 0.30116 0.0
H473 H 0.85632 0.18819 0.33267 0.0
H474 H 0.82963 1.02204 0.46895 0.0
H475 H 0.81048 0.24347 0.34493 0.0
Zn476 Zn 0.24379 0.0286 0.72819 0.0
C477 C 0.29376 0.07899 0.8273 0.0
N478 N 0.26006 0.0922 0.84231 0.0
C479 C 0.23294 0.08412 0.8144 0.0
N480 N 0.25132 0.06354 0.78177 0.0
N481 N 0.28961 0.06321 0.79062 0.0
C482 C 0.36619 1.00371 0.81343 0.0
O483 O 0.32914 0.99441 0.80771 0.0
O484 O 0.22112 0.0684 0.6905 0.0
Zn485 Zn 0.33901 0.05381 0.75722 0.0
N486 N 0.20268 0.99059 0.74281 0.0
C487 C 0.1829 0.93955 0.78744 0.0
C488 C 0.21212 0.96376 0.77132 0.0
C489 C 0.16515 0.99328 0.72896 0.0
N490 N 0.14502 0.94456 0.77592 0.0
C491 C 0.13491 0.97142 0.74751 0.0
O492 O 0.3473 1.01072 0.71243 0.0
C493 C 0.3281 0.98864 0.68844 0.0
O494 O 0.28989 0.99136 0.69081 0.0
H495 H 0.242 0.9619 0.78207 0.0
H496 H 0.15872 1.01341 0.7049 0.0
C497 C 0.38357 0.12843 0.74423 0.0
C498 C 0.38734 0.16617 0.72659 0.0
C499 C 0.33021 0.15316 0.68779 0.0
C500 C 0.3264 0.11632 0.70559 0.0
N501 N 0.35281 0.10464 0.73352 0.0
N502 N 0.36025 0.17714 0.69884 0.0
H503 H 0.40369 0.11873 0.76719 0.0
C504 C 0.19242 0.08725 0.70514 0.0
O505 O 0.17807 0.07609 0.7398 0.0
O506 O 0.38039 0.03347 0.79526 0.0
H507 H 0.30209 0.0972 0.69774 0.0
H508 H 0.18999 0.9181 0.81022 0.0
H509 H 0.30917 0.16287 0.66572 0.0
Zn510 Zn 0.10493 0.87407 0.30176 0.0
C511 C 0.17798 0.96954 0.26775 0.0
N512 N 0.15347 0.9695 0.23642 0.0
C513 C 0.12587 0.94224 0.24439 0.0
N514 N 0.13091 0.9258 0.28097 0.0
N515 N 0.16351 0.94183 0.29671 0.0
C516 C 0.25182 0.89398 0.33811 0.0
O517 O 0.25478 0.92846 0.32067 0.0
O518 O 0.06598 0.84633 0.26516 0.0
Zn519 Zn 0.16973 0.9137 0.35399 0.0
N520 N 0.14621 0.83586 0.30292 0.0
C521 C 0.21028 0.81468 0.28522 0.0
C522 C 0.18144 0.84353 0.28534 0.0
C523 C 0.13771 0.79969 0.31814 0.0
N524 N 0.20212 0.77885 0.30122 0.0
C525 C 0.16636 0.7704 0.31736 0.0
O526 O 0.12758 0.87086 0.38906 0.0
C527 C 0.09127 0.8584 0.38806 0.0
O528 O 0.07275 0.86727 0.35631 0.0
H529 H 0.18725 0.87171 0.27156 0.0
H530 H 0.10871 0.79369 0.32999 0.0
C531 C 0.14432 0.96699 0.41074 0.0
C532 C 0.14604 0.99594 0.44054 0.0
C533 C 0.2149 1.00062 0.4313 0.0
C534 C 0.213 0.97133 0.40204 0.0
N535 N 0.17759 0.95538 0.3922 0.0
N536 N 0.18141 1.01245 0.44972 0.0
H537 H 0.11668 0.95401 0.40154 0.0
C538 C 0.02939 0.84906 0.27239 0.0
O539 O 1.017 0.87639 0.29701 0.0
O540 O 0.21934 0.88322 0.35322 0.0
H541 H 0.23949 0.96148 0.38764 0.0
H542 H 0.23875 0.82052 0.27207 0.0
H543 H 0.24277 1.01385 0.4393 0.0
H544 H 0.53461 0.97625 0.24076 0.0
H545 H 0.51769 0.95164 0.11536 0.0
H546 H 0.49493 1.01867 0.1042 0.0
H547 H 0.48579 0.0848 0.12863 0.0
H548 H 0.5004 0.11096 0.25419 0.0
H549 H 0.52016 0.04285 0.26654 0.0
C550 C 0.52497 0.9855 0.2113 0.0
C551 C 0.5277 0.95947 0.17887 0.0
C552 C 0.51277 1.02435 0.20496 0.0
C553 C 0.51579 0.97152 0.14062 0.0
C554 C 0.50311 1.00978 0.1342 0.0
C555 C 0.49214 0.07565 0.159 0.0
C556 C 0.49077 0.10285 0.19061 0.0
C557 C 0.5024 0.0366 0.16596 0.0
C558 C 0.50122 0.09059 0.22932 0.0
C559 C 0.51215 0.05161 0.23646 0.0
H560 H 0.08932 0.47959 0.9685 0.0
H561 H 0.97888 0.42667 1.00268 0.0
H562 H 0.94718 0.49072 1.00081 0.0
H563 H 0.9517 0.56242 0.99331 0.0
H564 H 0.06253 0.61495 0.95884 0.0
H565 H 0.09256 0.55087 0.95617 0.0
C566 C 0.05831 0.48224 0.97528 0.0
C567 C 0.03648 0.44865 0.98547 0.0
C568 C 0.0401 0.51915 0.97387 0.0
C569 C 0.99621 0.45218 0.99415 0.0
C570 C 0.97806 0.4888 0.99327 0.0
C571 C 0.98226 0.5598 0.98463 0.0
C572 C 1.00438 0.59379 0.9761 0.0
C573 C 0.99981 0.52257 0.98356 0.0
C574 C 0.0441 0.5897 0.96491 0.0
C575 C 0.06171 0.55283 0.9638 0.0
H576 H 0.47615 0.58395 0.26947 0.0
H577 H 0.43443 0.49515 0.18698 0.0
H578 H 0.49958 0.46725 0.18331 0.0
H579 H 0.56852 0.46774 0.2029 0.0
H580 H 0.61203 0.55778 0.28259 0.0
H581 H 0.54627 0.58582 0.28737 0.0
C582 C 0.48132 0.55858 0.2506 0.0
C583 C 0.44996 0.54116 0.22955 0.0
C584 C 0.51927 0.54295 0.24787 0.0
C585 C 0.45738 0.50845 0.20488 0.0
C586 C 0.49487 0.4926 0.20233 0.0
C587 C 0.56355 0.49339 0.22149 0.0
C588 C 0.59499 0.51067 0.24225 0.0
C589 C 0.52591 0.50944 0.22386 0.0
C590 C 0.58833 0.5442 0.26587 0.0
C591 C 0.55072 0.56013 0.26877 0.0
H592 H 0.57873 0.46263 0.97198 0.0
H593 H 0.61831 0.58354 0.96622 0.0
H594 H 0.55308 0.60575 0.98499 0.0
H595 H 0.48277 0.59165 0.9845 0.0
H596 H 0.44212 0.47132 0.97581 0.0
H597 H 0.50926 0.44812 0.98252 0.0
C598 C 0.57322 0.49388 0.97472 0.0
C599 C 0.60271 0.52149 0.96505 0.0
C600 C 0.53505 0.50657 0.9826 0.0
C601 C 0.59582 0.56163 0.97214 0.0
C602 C 0.55839 0.57442 0.98264 0.0
C603 C 0.48848 0.56031 0.98411 0.0
C604 C 0.45778 0.53335 0.97693 0.0
C605 C 0.52731 0.54729 0.98481 0.0
C606 C 0.46536 0.49283 0.97993 0.0
C607 C 0.50384 0.4795 0.98343 0.0
H608 H 0.04391 0.61924 0.71756 0.0
H609 H 0.92046 0.59026 0.71807 0.0
H610 H 0.93554 0.521 0.72834 0.0
H611 H 0.98345 0.46853 0.72194 0.0
H612 H 0.10733 0.4969 0.72186 0.0
H613 H 0.09229 0.56646 0.72727 0.0
C614 C 1.02037 0.59789 0.7213 0.0
C615 C 0.98131 0.60938 0.71558 0.0
C616 C 0.02927 0.55794 0.72621 0.0
C617 C 0.9509 0.58171 0.72107 0.0
C618 C 0.95947 0.54213 0.7269 0.0
C619 C 1.00735 0.48967 0.72403 0.0
C620 C 0.04634 0.47744 0.71874 0.0
C621 C 0.99857 0.52972 0.727 0.0
C622 C 0.07682 0.50538 0.72307 0.0
C623 C 0.06832 0.54534 0.72665 0.0
H624 H 0.4924 0.94788 0.50149 0.0
H625 H 0.61651 0.97501 0.49849 0.0
H626 H 0.60197 0.04503 0.4975 0.0
H627 H 0.5545 0.09856 0.49779 0.0
H628 H 0.43034 0.07158 0.49763 0.0
H629 H 0.44483 1.0015 0.49963 0.0
C630 C 0.51643 0.96882 0.49974 0.0
C631 C 0.55563 0.95567 0.49941 0.0
C632 C 0.50794 1.00929 0.49879 0.0
C633 C 0.58605 0.98393 0.49874 0.0
C634 C 0.5778 1.02414 0.49806 0.0
C635 C 0.5304 0.07763 0.49726 0.0
C636 C 0.49123 0.09083 0.49679 0.0
C637 C 0.53886 0.03718 0.49797 0.0
C638 C 0.46078 0.06261 0.49787 0.0
C639 C 0.46901 1.02238 0.4989 0.0
H640 H 0.9497 0.98587 0.74503 0.0
H641 H 0.98026 0.10428 0.70876 0.0
H642 H 0.04944 0.08725 0.70874 0.0
H643 H 0.10136 0.04062 0.72272 0.0
H644 H 0.07227 0.92178 0.75844 0.0
H645 H 1.0024 0.93732 0.75469 0.0
C646 C 0.97129 1.00779 0.73627 0.0
C647 C 0.9594 0.04639 0.72676 0.0
C648 C 1.01143 0.99785 0.73633 0.0
C649 C 0.9883 0.07444 0.7165 0.0
C650 C 0.02801 0.06473 0.71634 0.0
C651 C 0.08006 1.01752 0.72851 0.0
C652 C 0.0925 0.97974 0.74024 0.0
C653 C 0.03995 0.02668 0.7266 0.0
C654 C 0.06377 0.95106 0.74914 0.0
C655 C 1.02372 0.95993 0.74707 0.0
H656 H 0.08208 0.95301 0.46291 0.0
H657 H 0.12846 0.07143 0.46023 0.0
H658 H 0.06328 0.09739 0.47497 0.0
H659 H 0.99211 0.08674 0.47567 0.0
H660 H 0.94531 0.96846 0.47145 0.0
H661 H 1.01173 0.942 0.47335 0.0
C662 C 0.07796 0.9845 0.46592 0.0
C663 C 0.10957 1.01045 0.45905 0.0
C664 C 0.0403 0.99917 0.47282 0.0
C665 C 0.10436 0.05097 0.46483 0.0
C666 C 0.06708 0.06581 0.47296 0.0
C667 C 0.99643 0.05516 0.47538 0.0
C668 C 0.96399 0.02957 0.47171 0.0
C669 C 0.03461 0.04026 0.47486 0.0
C670 C 0.96987 0.98875 0.47354 0.0
C671 C 1.00784 0.97362 0.47434 0.0
H672 H 0.32717 0.3006 0.08536 0.0
H673 H 0.44681 0.33447 0.11095 0.0
H674 H 0.42628 0.40221 0.12225 0.0
H675 H 0.37313 0.44919 0.13335 0.0
H676 H 0.25409 0.41677 0.10388 0.0
H677 H 0.2757 0.35106 0.08419 0.0
C678 C 0.34879 0.32297 0.0926 0.0
C679 C 0.38824 0.31257 0.09797 0.0
C680 C 0.33692 0.36193 0.09829 0.0
C681 C 0.41616 0.34182 0.10698 0.0
C682 C 0.40448 0.3805 0.11347 0.0
C683 C 0.35214 0.428 0.1216 0.0
C684 C 0.31207 0.43715 0.12088 0.0
C685 C 0.36478 0.39055 0.11037 0.0
C686 C 0.28506 0.41 0.10506 0.0
C687 C 0.29737 0.37241 0.09411 0.0
H688 H 0.14035 0.64201 0.97281 0.0
H689 H 0.13319 0.73506 0.88507 0.0
H690 H 0.20293 0.72709 0.86965 0.0
H691 H 0.26702 0.6992 0.88749 0.0
H692 H 0.27471 0.61349 0.9823 0.0
H693 H 0.20337 0.61369 0.98959 0.0
C694 C 0.15391 0.66044 0.95009 0.0
C695 C 0.13206 0.68967 0.93074 0.0
C696 C 0.19417 0.65773 0.94363 0.0
C697 C 0.14964 0.71255 0.90058 0.0
C698 C 0.18952 0.70834 0.89214 0.0
C699 C 0.25296 0.68089 0.90986 0.0
C700 C 0.27572 0.65696 0.93481 0.0
C701 C 0.21228 0.68215 0.91468 0.0
C702 C 0.25756 0.63286 0.96351 0.0
C703 C 0.21691 0.63269 0.96739 0.0
H704 H 0.65675 0.75234 0.12458 0.0
H705 H 0.75701 0.77972 0.19895 0.0
H706 H 0.77511 0.71033 0.1998 0.0
H707 H 0.75929 0.64252 0.18431 0.0
H708 H 0.65734 0.61374 0.11307 0.0
H709 H 0.64344 0.68397 0.10523 0.0
C710 C 0.68265 0.74319 0.14092 0.0
C711 C 0.7052 0.77097 0.16228 0.0
C712 C 0.6926 0.70335 0.14158 0.0
C713 C 0.73886 0.75877 0.18288 0.0
C714 C 0.7493 0.71921 0.18318 0.0
C715 C 0.7344 0.65136 0.16634 0.0
C716 C 0.70923 0.62286 0.14947 0.0
C717 C 0.72596 0.69131 0.16325 0.0
C718 C 0.6771 0.63508 0.12643 0.0
C719 C 0.66902 0.67515 0.12222 0.0
H720 H 0.80978 0.35806 0.82223 0.0
H721 H 0.77828 0.44047 0.9147 0.0
H722 H 0.84015 0.42865 0.94906 0.0
H723 H 0.89959 0.39146 0.95572 0.0
H724 H 0.93024 0.30373 0.86801 0.0
H725 H 0.87244 0.32145 0.82816 0.0
C726 C 0.81702 0.37363 0.84959 0.0
C727 C 0.79001 0.39986 0.8663 0.0
C728 C 0.85208 0.36562 0.86993 0.0
C729 C 0.7989 0.4199 0.9018 0.0
C730 C 0.83412 0.41321 0.92133 0.0
C731 C 0.89384 0.37615 0.92783 0.0
C732 C 0.91869 0.346 0.915 0.0
C733 C 0.86036 0.3855 0.90616 0.0
C734 C 0.91126 0.32699 0.87848 0.0
C735 C 0.87822 0.33699 0.85585 0.0
H736 H 0.91621 0.83281 0.56742 0.0
H737 H 0.81461 0.77686 0.62078 0.0
H738 H 0.78661 0.84102 0.6353 0.0
H739 H 0.79551 0.91174 0.64166 0.0
H740 H 0.89827 0.96845 0.59217 0.0
H741 H 0.92096 0.90512 0.56623 0.0
C742 C 0.88771 0.83468 0.58175 0.0
C743 C 0.86794 0.80023 0.59394 0.0
C744 C 0.87213 0.87166 0.59077 0.0
C745 C 0.83074 0.803 0.61182 0.0
C746 C 0.81468 0.83963 0.6201 0.0
C747 C 0.82259 0.91034 0.62464 0.0
C748 C 0.84569 0.94431 0.61952 0.0
C749 C 0.83585 0.87398 0.61109 0.0
C750 C 0.8802 0.94248 0.59668 0.0
C751 C 0.89329 0.90629 0.58218 0.0
H752 H 0.76162 0.22322 0.45456 0.0
H753 H 0.77032 0.15069 0.34894 0.0
H754 H 0.70219 0.1639 0.33246 0.0
H755 H 0.6386 0.19354 0.34969 0.0
H756 H 0.62943 0.26294 0.45686 0.0
H757 H 0.69891 0.25413 0.47076 0.0
C758 C 0.74863 0.21045 0.42791 0.0
C759 C 0.77091 0.18582 0.40336 0.0
C760 C 0.70926 0.21789 0.41861 0.0
C761 C 0.75369 0.1695 0.36875 0.0
C762 C 0.71471 0.1771 0.3591 0.0
C763 C 0.65224 0.2072 0.37556 0.0
C764 C 0.62957 0.22964 0.4017 0.0
C765 C 0.69206 0.20094 0.38399 0.0
C766 C 0.64686 0.24649 0.43579 0.0
C767 C 0.68647 0.24112 0.44397 0.0
H768 H 0.1342 0.13358 0.7318 0.0
H769 H 0.22602 0.12777 0.6429 0.0
H770 H 0.217 0.19748 0.62762 0.0
H771 H 0.18853 0.26113 0.64546 0.0
H772 H 0.10276 0.26808 0.73995 0.0
H773 H 0.10448 0.1966 0.74799 0.0
C774 C 0.15202 0.14742 0.70876 0.0
C775 C 0.18123 0.12584 0.68903 0.0
C776 C 0.14844 0.18777 0.70201 0.0
C777 C 0.20348 0.14388 0.65867 0.0
C778 C 0.19866 0.18378 0.65027 0.0
C779 C 0.17034 0.24696 0.66778 0.0
C780 C 0.14601 0.26966 0.69238 0.0
C781 C 0.17229 0.20621 0.67285 0.0
C782 C 0.1223 0.25113 0.72119 0.0
C783 C 0.12304 0.21034 0.72555 0.0
H784 H 0.32827 0.91686 0.3333 0.0
H785 H 0.25347 0.81743 0.36116 0.0
H786 H 0.30973 0.78075 0.38525 0.0
H787 H 0.37771 0.78037 0.4071 0.0
H788 H 0.45237 0.88108 0.38458 0.0
H789 H 0.39875 0.91365 0.34919 0.0
C790 C 0.32448 0.88689 0.34389 0.0
C791 C 0.28679 0.87001 0.3458 0.0
C792 C 0.35681 0.86641 0.35914 0.0
C793 C 0.2822 0.83116 0.35959 0.0
C794 C 0.31432 0.81019 0.37355 0.0
C795 C 0.38244 0.80927 0.39406 0.0
C796 C 0.41857 0.82865 0.39906 0.0
C797 C 0.35139 0.8281 0.37487 0.0
C798 C 0.42458 0.86573 0.38137 0.0
C799 C 0.39393 0.88441 0.3613 0.0
H800 H 0.33192 0.02934 0.16615 0.0
H801 H 0.27986 0.14284 0.18562 0.0
H802 H 0.23003 0.11207 0.22879 0.0
H803 H 0.1962 0.05153 0.25908 0.0
H804 H 0.24948 0.93859 0.24205 0.0
H805 H 0.30183 0.9697 0.20261 0.0
C806 C 0.31023 0.04798 0.18013 0.0
C807 C 0.31165 0.08995 0.17119 0.0
C808 C 0.28098 0.02957 0.20691 0.0
C809 C 0.28164 0.11145 0.1908 0.0
C810 C 0.25236 0.09337 0.21599 0.0
C811 C 0.22029 0.03346 0.24891 0.0
C812 C 0.21849 0.99153 0.25812 0.0
C813 C 0.2512 0.05228 0.22454 0.0
C814 C 0.24976 0.97039 0.24004 0.0
C815 C 0.27986 0.98856 0.21582 0.0
H816 H 0.97498 0.90817 0.90204 0.0
H817 H 0.92781 0.79136 0.88517 0.0
H818 H 0.87906 0.81795 0.83866 0.0
H819 H 0.84474 0.87475 0.80479 0.0
H820 H 0.89022 0.99193 0.82034 0.0
H821 H 0.94315 0.96532 0.86246 0.0
C822 C 0.95436 0.88797 0.88824 0.0
C823 C 0.95675 0.84636 0.89913 0.0
C824 C 0.92543 0.90398 0.85973 0.0
C825 C 0.92847 0.82267 0.87916 0.0
C826 C 0.89995 0.83827 0.85186 0.0
C827 C 0.86723 0.89487 0.81536 0.0
C828 C 0.86268 0.93643 0.80548 0.0
C829 C 0.89766 0.87891 0.8417 0.0
C830 C 0.89218 0.96031 0.82356 0.0
C831 C 0.92257 0.9447 0.84924 0.0
H832 H 0.80419 0.10163 0.24323 0.0
H833 H 0.84893 1.01346 0.32281 0.0
H834 H 0.8048 0.96437 0.29158 0.0
H835 H 0.75508 0.94326 0.23539 0.0
H836 H 0.71462 0.03511 0.15642 0.0
H837 H 0.7539 0.08291 0.19241 0.0
C838 C 0.80349 0.07213 0.25557 0.0
C839 C 0.82997 0.06379 0.28846 0.0
C840 C 0.77838 0.04297 0.23586 0.0
C841 C 0.82856 1.02347 0.30019 0.0
C842 C 0.80331 0.99448 0.28111 0.0
C843 C 0.75399 0.97374 0.22605 0.0
C844 C 0.72972 0.98365 0.19139 0.0
C845 C 0.77815 1.00324 0.24799 0.0
C846 C 0.7314 1.02441 0.18165 0.0
C847 C 0.75448 0.05271 0.20278 0.0
H848 H 0.18095 0.07356 0.87919 0.0
H849 H 0.19816 0.1511 0.77942 0.0
H850 H 0.15101 0.19751 0.80871 0.0
H851 H 0.10491 0.22 0.86666 0.0
H852 H 0.09243 0.14057 0.96685 0.0
H853 H 0.13549 0.09397 0.93439 0.0
C854 C 0.17308 0.09948 0.86215 0.0
C855 C 0.19224 0.1052 0.82377 0.0
C856 C 0.1463 0.12773 0.88071 0.0
C857 C 0.18261 0.14212 0.80618 0.0
C858 C 0.15583 0.16993 0.82409 0.0
C859 C 0.11135 0.19268 0.88192 0.0
C860 C 0.09344 0.18584 0.92108 0.0
C861 C 0.13738 0.1638 0.86199 0.0
C862 C 0.10395 0.14878 0.93779 0.0
C863 C 0.12923 0.12115 0.91875 0.0
H864 H 0.07599 0.6822 0.12203 0.0
H865 H 0.15536 0.7007 1.02421 0.0
H866 H 0.20089 0.65289 0.05376 0.0
H867 H 0.22224 0.60571 0.11139 0.0
H868 H 0.14097 0.59094 0.20943 0.0
H869 H 0.09519 0.635 0.17686 0.0
C870 C 0.10214 0.67452 0.10541 0.0
C871 C 0.10852 0.69433 0.06731 0.0
C872 C 0.12988 0.64705 0.12412 0.0
C873 C 0.14576 0.68475 0.05052 0.0
C874 C 0.17308 0.65752 0.06862 0.0
C875 C 0.19464 0.61174 0.12614 0.0
C876 C 0.18712 0.59287 0.16481 0.0
C877 C 0.16621 0.63831 0.10605 0.0
C878 C 0.14975 0.6031 0.18081 0.0
C879 C 0.12259 0.62901 0.16166 0.0
H880 H 0.52097 0.85085 1.02145 0.0
H881 H 0.62559 0.78229 1.03542 0.0
H882 H 0.59402 0.72777 0.99918 0.0
H883 H 0.53757 0.69955 0.95629 0.0
H884 H 0.43077 0.76625 0.94875 0.0
H885 H 0.46139 0.81899 0.9881 0.0
C886 C 0.53663 0.82335 1.01884 0.0
C887 C 0.57635 0.82196 1.03479 0.0
C888 C 0.51753 0.79087 0.99717 0.0
C889 C 0.59509 0.78549 1.02698 0.0
C890 C 0.57686 0.75389 1.00484 0.0
C891 C 0.52024 0.72512 0.96372 0.0
C892 C 0.48036 0.72701 0.94819 0.0
C893 C 0.53818 0.75608 0.98873 0.0
C894 C 0.46046 0.76189 0.95934 0.0
C895 C 0.47846 0.79285 0.98227 0.0
H896 H 0.82351 0.44436 0.1122 0.0
H897 H 0.90503 0.45658 0.21029 0.0
H898 H 0.95091 0.41376 0.17635 0.0
H899 H 0.9699 0.36831 0.1206 0.0
H900 H 0.88995 0.3514 1.02294 0.0
H901 H 0.84506 0.39917 0.05299 0.0
C902 C 0.85112 0.43788 0.12671 0.0
C903 C 0.85876 0.45556 0.16583 0.0
C904 C 0.8796 0.41209 0.1058 0.0
C905 C 0.89621 0.44514 0.18141 0.0
C906 C 0.92341 0.42003 0.16146 0.0
C907 C 0.94378 0.37636 0.1041 0.0
C908 C 0.93714 0.35679 0.066 0.0
C909 C 0.91602 0.40313 0.1235 0.0
C910 C 0.89992 0.36691 0.04933 0.0
C911 C 0.87276 0.39396 0.06788 0.0
H912 H 0.53531 0.21547 1.01064 0.0
H913 H 0.42223 0.27017 1.00234 0.0
H914 H 0.45178 0.32433 0.96359 0.0
H915 H 0.50989 0.35552 0.92533 0.0
H916 H 0.62362 0.30231 0.93805 0.0
H917 H 0.59442 0.25056 0.98002 0.0
C918 C 0.51695 0.24007 1.00236 0.0
C919 C 0.47559 0.23787 1.01309 0.0
C920 C 0.53477 0.27212 0.97898 0.0
C921 C 0.45375 0.27023 0.99815 0.0
C922 C 0.47097 0.30148 0.97461 0.0
C923 C 0.5289 0.33316 0.93766 0.0
C924 C 0.5704 0.33479 0.92721 0.0
C925 C 0.51149 0.3028 0.96383 0.0
C926 C 0.59255 0.30396 0.94462 0.0
C927 C 0.57539 0.27357 0.96903 0.0
H928 H 0.74377 0.4518 0.71198 0.0
H929 H 0.70235 0.53745 0.79605 0.0
H930 H 0.74664 0.58706 0.76551 0.0
H931 H 0.79614 0.60938 0.70918 0.0
H932 H 0.83393 0.5194 0.62675 0.0
H933 H 0.79369 0.47143 0.66118 0.0
C934 C 0.74504 0.48085 0.72526 0.0
C935 C 0.7194 0.48832 0.75905 0.0
C936 C 0.77045 0.51027 0.70625 0.0
C937 C 0.72185 0.52808 0.77239 0.0
C938 C 0.74726 0.55738 0.75379 0.0
C939 C 0.79631 0.5793 0.6986 0.0
C940 C 0.82023 0.57013 0.6634 0.0
C941 C 0.7717 0.5495 0.71982 0.0
C942 C 0.81753 0.52973 0.65236 0.0
C943 C 0.79386 0.50125 0.6726 0.0
H944 H 0.36971 0.46233 0.3615 0.0
H945 H 0.36046 0.39174 0.2556 0.0
H946 H 0.40859 0.34553 0.28392 0.0
H947 H 0.45224 0.32019 0.3434 0.0
H948 H 0.45684 0.39349 0.44875 0.0
H949 H 0.41352 0.44036 0.41706 0.0
C950 C 0.37944 0.43813 0.34297 0.0
C951 C 0.36139 0.43419 0.30369 0.0
C952 C 0.40652 0.40976 0.36094 0.0
C953 C 0.37405 0.39931 0.28385 0.0
C954 C 0.40145 0.37147 0.30115 0.0
C955 C 0.4439 0.34614 0.36002 0.0
C956 C 0.45968 0.35106 0.40053 0.0
C957 C 0.41771 0.37539 0.34047 0.0
C958 C 0.44697 0.38666 0.41874 0.0
C959 C 0.42154 0.41448 0.40012 0.0
H960 H 0.20841 0.48944 0.74717 0.0
H961 H 0.2768 0.47623 0.63933 0.0
H962 H 0.33051 0.51186 0.66962 0.0
H963 H 0.36028 0.54978 0.7237 0.0
H964 H 0.29473 0.57503 0.83074 0.0
H965 H 0.24059 0.53279 0.80482 0.0
C966 C 0.2352 0.4935 0.73022 0.0
C967 C 0.23715 0.4767 0.6898 0.0
C968 C 0.26763 0.51722 0.74811 0.0
C969 C 0.27292 0.48558 0.66994 0.0
C970 C 0.30438 0.50705 0.68751 0.0
C971 C 0.33456 0.54666 0.74251 0.0
C972 C 0.33423 0.56701 0.78074 0.0
C973 C 0.30243 0.52335 0.72632 0.0
C974 C 0.29866 0.56047 0.80226 0.0
C975 C 0.26674 0.53607 0.78668 0.0
H976 H 0.69304 0.58914 0.38397 0.0
H977 H 0.67971 0.64034 0.26726 0.0
H978 H 0.62977 0.68542 0.29474 0.0
H979 H 0.59006 0.71517 0.35528 0.0
H980 H 0.60778 0.66105 0.47073 0.0
H981 H 0.65382 0.61529 0.44113 0.0
C982 C 0.67843 0.6089 0.36342 0.0
C983 C 0.69071 0.60778 0.32168 0.0
C984 C 0.65004 0.63654 0.38033 0.0
C985 C 0.67121 0.63683 0.29828 0.0
C986 C 0.64258 0.66401 0.31479 0.0
C987 C 0.60403 0.69383 0.37454 0.0
C988 C 0.59379 0.694 0.41724 0.0
C989 C 0.63179 0.66517 0.35632 0.0
C990 C 0.61338 0.6639 0.43894 0.0
C991 C 0.64036 0.63676 0.42157 0.0
H992 H 0.72351 0.08999 0.59653 0.0
H993 H 0.65426 0.09966 0.70419 0.0
H994 H 0.6091 0.14313 0.66987 0.0
H995 H 0.58791 0.18314 0.61073 0.0
H996 H 0.65444 0.1771 0.50191 0.0
H997 H 0.69869 0.12919 0.5337 0.0
C998 C 0.69883 0.10153 0.61309 0.0
C999 C 0.69451 0.0899 0.65514 0.0
C1000 C 0.67061 0.12761 0.59192 0.0
C1001 C 0.66052 0.10643 0.67316 0.0
C1002 C 0.63375 0.1319 0.65298 0.0
C1003 C 0.61071 0.17009 0.59254 0.0
C1004 C 0.61415 0.1838 0.55136 0.0
C1005 C 0.63791 0.14295 0.61229 0.0
C1006 C 0.64727 0.16699 0.53177 0.0
C1007 C 0.67399 0.13968 0.55096 0.0
H1008 H 0.10968 0.28902 0.49922 0.0
H1009 H 1.02043 0.34711 0.56736 0.0
H1010 H 0.97054 0.30295 0.5376 0.0
H1011 H 0.94954 0.24893 0.48565 0.0
H1012 H 0.04275 0.19419 0.41859 0.0
H1013 H 0.09071 0.23432 0.45325 0.0
C1014 C 0.07962 0.29132 0.50952 0.0
C1015 C 0.07114 0.32157 0.53879 0.0
C1016 C 0.05012 0.26595 0.49071 0.0
C1017 C 0.03032 0.32385 0.54776 0.0
C1018 C 1.00096 0.29852 0.52948 0.0
C1019 C 0.98028 0.24492 0.4787 0.0
C1020 C 0.99054 0.21638 0.44774 0.0
C1021 C 1.00992 0.26945 0.49995 0.0
C1022 C 0.03173 0.21437 0.44091 0.0
C1023 C 0.06014 0.23792 0.46128 0.0
H1024 H 0.32298 0.95533 0.60443 0.0
H1025 H 0.39512 0.95089 0.71043 0.0
H1026 H 0.44078 0.90784 0.67632 0.0
H1027 H 0.46161 0.86679 0.61801 0.0
H1028 H 0.39201 0.86733 0.51109 0.0
H1029 H 0.34731 0.91507 0.54235 0.0
C1030 C 0.34838 0.94497 0.62066 0.0
C1031 C 0.35342 0.95787 0.66214 0.0
C1032 C 0.37684 0.9192 0.59964 0.0
C1033 C 0.38832 0.94297 0.67981 0.0
C1034 C 0.41538 0.9178 0.65977 0.0
C1035 C 0.43802 0.87866 0.60003 0.0
C1036 C 0.43378 0.86348 0.55956 0.0
C1037 C 0.41052 0.9055 0.6196 0.0
C1038 C 0.39971 0.87872 0.54031 0.0
C1039 C 0.37275 0.90585 0.55924 0.0
H1040 H 1.01004 0.8459 0.41363 0.0
H1041 H 0.12589 0.80182 0.43769 0.0
H1042 H 0.09751 0.75214 0.48273 0.0
H1043 H 0.03881 0.71575 0.51313 0.0
H1044 H 0.92339 0.76175 0.49264 0.0
H1045 H 0.95186 0.81421 0.45113 0.0
C1046 C 0.02966 0.82605 0.42902 0.0
C1047 C 0.07153 0.82954 0.42069 0.0
C1048 C 1.01265 0.79699 0.45701 0.0
C1049 C 0.09442 0.80191 0.44224 0.0
C1050 C 0.07776 0.77271 0.46853 0.0
C1051 C 1.01953 0.73835 0.50172 0.0
C1052 C 0.97775 0.73431 0.51029 0.0
C1053 C 0.03677 0.76939 0.47636 0.0
C1054 C 0.95508 0.76371 0.49079 0.0
C1055 C 0.97174 0.79387 0.46548 0.0
H1056 H 0.32872 0.03841 0.88657 0.0
H1057 H 0.33817 0.14325 0.81477 0.0
H1058 H 0.38745 0.1701 0.86045 0.0
H1059 H 0.41753 0.16847 0.92653 0.0
H1060 H 0.41027 0.06387 0.99909 0.0
H1061 H 0.37153 0.03095 0.94641 0.0
C1062 C 0.3431 0.06625 0.88012 0.0
C1063 C 0.331 0.0885 0.84692 0.0
C1064 C 0.37095 0.08163 0.90695 0.0
C1065 C 0.34831 0.12522 0.83939 0.0
C1066 C 0.37595 0.14075 0.86584 0.0
C1067 C 0.40811 0.13816 0.93062 0.0
C1068 C 0.41482 0.11901 0.96729 0.0
C1069 C 0.38598 0.11995 0.9006 0.0
C1070 C 0.40373 0.07953 0.97167 0.0
C1071 C 0.38179 0.06083 0.94159 0.0
H1072 H 0.03698 0.83114 0.12486 0.0
H1073 H 0.14795 0.83992 0.06419 0.0
H1074 H 0.17044 0.88906 0.11261 0.0
H1075 H 0.16126 0.92183 0.17652 0.0
H1076 H 0.04858 0.9199 0.23465 0.0
H1077 H 1.02258 0.87643 0.18159 0.0
C1078 C 0.06497 0.84585 0.12082 0.0
C1079 C 0.09008 0.83382 0.08984 0.0
C1080 C 0.07739 0.87424 0.14862 0.0
C1081 C 0.12766 0.85037 0.0867 0.0
C1082 C 0.1406 0.87797 0.11462 0.0
C1083 C 0.13074 0.91249 0.1773 0.0
C1084 C 0.10721 0.92174 0.2105 0.0
C1085 C 0.11614 0.88903 0.14636 0.0
C1086 C 0.06758 0.9108 0.21047 0.0
C1087 C 0.05279 0.8865 0.18 0.0
H1088 H 0.77372 0.94598 0.89454 0.0
H1089 H 0.67853 0.95503 0.81105 0.0
H1090 H 0.63104 0.94653 0.86595 0.0
H1091 H 0.61812 0.93187 0.93871 0.0
H1092 H 0.71657 0.90054 1.01235 0.0
H1093 H 0.76191 0.92126 0.96056 0.0
C1094 C 0.74258 0.94604 0.88772 0.0
C1095 C 0.72957 0.95288 0.84831 0.0
C1096 C 0.71637 0.93709 0.91846 0.0
C1097 C 0.68914 0.95203 0.84097 0.0
C1098 C 0.66219 0.9464 0.87246 0.0
C1099 C 0.64956 0.93047 0.94345 0.0
C1100 C 0.66432 0.91894 0.98118 0.0
C1101 C 0.67561 0.93856 0.91152 0.0
C1102 C 0.70473 0.91341 0.9855 0.0
C1103 C 0.73066 0.92439 0.95542 0.0
H1104 H 0.96086 0.2657 0.15643 0.0
H1105 H 0.94991 0.1749 0.06801 0.0
H1106 H 0.94195 0.12517 0.12099 0.0
H1107 H 0.93257 0.10981 0.19359 0.0
H1108 H 0.91617 0.20694 0.27374 0.0
H1109 H 0.93986 0.25282 0.22378 0.0
C1110 C 0.95682 0.23499 0.14841 0.0
C1111 C 0.9579 0.22342 0.10813 0.0
C1112 C 0.9476 0.20814 0.1784 0.0
C1113 C 0.95144 0.18385 0.09866 0.0
C1114 C 0.94618 0.15577 0.12905 0.0
C1115 C 0.93513 0.14097 0.20012 0.0
C1116 C 0.92743 0.1548 0.23907 0.0
C1117 C 0.94371 0.1678 0.1692 0.0
C1118 C 0.92676 0.19533 0.24593 0.0
C1119 C 0.93916 0.22167 0.21682 0.0
H1120 H 0.275 0.43294 0.39568 0.0
H1121 H 0.1787 0.46192 0.31855 0.0
H1122 H 0.13262 0.45278 0.3743 0.0
H1123 H 0.12075 0.43293 0.44543 0.0
H1124 H 0.21761 0.38823 0.51412 0.0
H1125 H 0.26317 0.40625 0.46095 0.0
C1126 C 0.24392 0.43725 0.39036 0.0
C1127 C 0.23028 0.44957 0.35252 0.0
C1128 C 0.21811 0.42905 0.42162 0.0
C1129 C 0.18992 0.45428 0.34726 0.0
C1130 C 0.16373 0.44843 0.37921 0.0
C1131 C 0.152 0.42798 0.44877 0.0
C1132 C 0.16664 0.41258 0.48493 0.0
C1133 C 0.17761 0.43564 0.41663 0.0
C1134 C 0.20641 0.4031 0.48791 0.0
C1135 C 0.23227 0.41275 0.45725 0.0
H1136 H 0.44154 0.77544 0.64771 0.0
H1137 H 0.45608 0.67998 0.56574 0.0
H1138 H 0.4529 0.63249 0.62127 0.0
H1139 H 0.44144 0.61957 0.69367 0.0
H1140 H 0.40838 0.71632 0.76914 0.0
H1141 H 0.42375 0.76285 0.71615 0.0
C1142 C 0.44387 0.74422 0.64148 0.0
C1143 C 0.44989 0.7308 0.60208 0.0
C1144 C 0.43935 0.71793 0.67316 0.0
C1145 C 0.45237 0.69045 0.59546 0.0
C1146 C 0.45037 0.66368 0.62736 0.0
C1147 C 0.4387 0.65098 0.6986 0.0
C1148 C 0.42744 0.66502 0.73653 0.0
C1149 C 0.44352 0.67722 0.66645 0.0
C1150 C 0.42065 0.70526 0.74164 0.0
C1151 C 0.42845 0.73175 0.71094 0.0
H1152 H 0.8273 0.54471 0.38138 0.0
H1153 H 0.83808 0.65172 0.31357 0.0
H1154 H 0.88828 0.67593 0.35996 0.0
H1155 H 0.91989 0.6701 0.4252 0.0
H1156 H 0.91522 0.56073 0.49018 0.0
H1157 H 0.87382 0.53178 0.43715 0.0
C1158 C 0.84269 0.57201 0.37541 0.0
C1159 C 0.83071 0.5957 0.34338 0.0
C1160 C 0.87189 0.58517 0.40171 0.0
C1161 C 0.84819 0.6326 0.33735 0.0
C1162 C 0.8765 0.64648 0.36401 0.0
C1163 C 0.91044 0.63962 0.42749 0.0
C1164 C 0.91815 0.61795 0.46246 0.0
C1165 C 0.88726 0.62357 0.39714 0.0
C1166 C 0.90733 0.57829 0.4644 0.0
C1167 C 0.88398 0.56189 0.43416 0.0
H1168 H 0.59751 0.2782 0.63511 0.0
H1169 H 0.60253 0.36727 0.54471 0.0
H1170 H 0.60791 0.41873 0.59601 0.0
H1171 H 0.61674 0.43634 0.66768 0.0
H1172 H 0.63376 0.34266 0.75219 0.0
H1173 H 0.61383 0.29427 0.70315 0.0
C1174 C 0.59978 0.30889 0.62632 0.0
C1175 C 0.59853 0.31952 0.58573 0.0
C1176 C 0.6062 0.33705 0.65579 0.0
C1177 C 0.60214 0.35911 0.57542 0.0
C1178 C 0.60556 0.38814 0.60493 0.0
C1179 C 0.61507 0.40536 0.67538 0.0
C1180 C 0.62267 0.39316 0.71486 0.0
C1181 C 0.60817 0.37728 0.64537 0.0
C1182 C 0.62377 0.35294 0.72359 0.0
C1183 C 0.61353 0.32517 0.69505 0.0
H1184 H 0.1929 0.96252 0.93096 0.0
H1185 H 0.19075 0.89503 1.04025 0.0
H1186 H 0.24438 0.9348 0.06719 0.0
H1187 H 0.29252 0.98771 0.05939 0.0
H1188 H 0.29249 0.05928 0.95276 0.0
H1189 H 0.23953 1.01865 0.92459 0.0
C1190 C 0.2041 0.95679 0.96076 0.0
C1191 C 0.18756 0.92617 0.98386 0.0
C1192 C 0.23488 0.9801 0.97617 0.0
C1193 C 0.20229 0.91898 1.02237 0.0
C1194 C 0.23327 0.94144 1.03757 0.0
C1195 C 0.28123 0.99428 1.0298 0.0
C1196 C 0.29712 1.02587 1.00773 0.0
C1197 C 0.24992 0.97187 1.01466 0.0
C1198 C 0.2813 0.03464 0.96996 0.0
C1199 C 0.25086 1.01156 0.95401 0.0
H1200 H 0.96814 0.83527 0.12177 0.0
H1201 H 0.97002 0.93589 1.04339 0.0
H1202 H 0.90404 0.95387 0.06565 0.0
H1203 H 0.8409 0.92811 0.09043 0.0
H1204 H 0.8386 0.82282 0.16277 0.0
H1205 H 0.9099 0.81953 0.1601 0.0
C1206 C 0.95488 0.86228 0.11117 0.0
C1207 C 0.97319 0.88385 0.08057 0.0
C1208 C 0.91643 0.87091 0.12237 0.0
C1209 C 0.95615 0.91884 0.06695 0.0
C1210 C 0.91821 0.92872 0.07925 0.0
C1211 C 0.85609 0.90572 0.10748 0.0
C1212 C 0.83464 0.8752 0.12606 0.0
C1213 C 0.89707 0.90313 0.1045 0.0
C1214 C 0.85464 0.84624 0.14782 0.0
C1215 C 0.89538 0.84434 0.14631 0.0
H1216 H 0.79568 0.99565 1.03047 0.0
H1217 H 0.70135 0.0688 0.98778 0.0
H1218 H 0.74896 0.11828 0.96556 0.0
H1219 H 0.81651 0.14247 0.96193 0.0
H1220 H 0.91107 0.07047 1.00626 0.0
H1221 H 0.864 1.01895 1.02439 0.0
C1222 C 0.78551 1.02218 1.01581 0.0
C1223 C 0.74493 0.02858 1.01094 0.0
C1224 C 0.81299 0.05091 1.00384 0.0
C1225 C 0.73233 0.06322 0.99209 0.0
C1226 C 0.75953 0.09154 0.9794 0.0
C1227 C 0.82704 0.1154 0.97524 0.0
C1228 C 0.86739 0.11081 0.98317 0.0
C1229 C 0.79983 0.08598 0.98574 0.0
C1230 C 0.88023 0.07545 1.0006 0.0
C1231 C 0.85331 0.04575 1.0107 0.0
H1232 H 0.09419 0.22171 0.13384 0.0
H1233 H 0.07646 0.11673 0.06358 0.0
H1234 H 0.14676 0.10337 0.06583 0.0
H1235 H 0.21292 0.1323 0.0702 0.0
H1236 H 0.22957 0.24379 0.12951 0.0
H1237 H 0.16037 0.24462 0.1483 0.0
C1238 C 0.1056 0.19519 0.12012 0.0
C1239 C 0.0806 0.17112 0.09721 0.0
C1240 C 0.14618 0.18979 0.11838 0.0
C1241 C 0.09528 0.13615 0.08079 0.0
C1242 C 0.13561 0.12886 0.0815 0.0
C1243 C 0.20161 0.15597 0.08855 0.0
C1244 C 0.22588 0.18821 0.09817 0.0
C1245 C 0.16143 0.15716 0.09742 0.0
C1246 C 0.21105 0.21898 0.12149 0.0
C1247 C 0.17158 0.21936 0.13231 0.0
H1248 H 0.13598 0.59067 0.31182 0.0
H1249 H 0.24063 0.59245 0.38453 0.0
H1250 H 0.23465 0.66323 0.39341 0.0
H1251 H 0.20889 0.72542 0.36709 0.0
H1252 H 0.10507 0.72437 0.29355 0.0
H1253 H 0.10123 0.65262 0.29855 0.0
C1254 C 0.1566 0.6063 0.33086 0.0
C1255 C 0.18936 0.58659 0.34654 0.0
C1256 C 0.15367 0.64732 0.33482 0.0
C1257 C 0.21555 0.60714 0.37155 0.0
C1258 C 0.21237 0.64771 0.37636 0.0
C1259 C 0.18478 0.70942 0.3533 0.0
C1260 C 0.15768 0.72969 0.32959 0.0
C1261 C 0.18304 0.66831 0.356 0.0
C1262 C 0.12626 0.70911 0.31198 0.0
C1263 C 0.12423 0.66811 0.31461 0.0
H1264 H 0.64955 0.81243 0.71269 0.0
H1265 H 0.57626 0.90747 0.75359 0.0
H1266 H 0.52619 0.85998 0.77475 0.0
H1267 H 0.50425 0.79123 0.78382 0.0
H1268 H 0.57897 0.69661 0.74472 0.0
H1269 H 0.62725 0.74433 0.72043 0.0
C1270 C 0.62253 0.82294 0.72598 0.0
C1271 C 0.61708 0.86363 0.73186 0.0
C1272 C 0.594 0.79549 0.7383 0.0
C1273 C 0.58184 0.87644 0.74937 0.0
C1274 C 0.55298 0.84925 0.76122 0.0
C1275 C 0.53087 0.78101 0.76949 0.0
C1276 C 0.53798 0.74029 0.76617 0.0
C1277 C 0.5589 0.80867 0.75614 0.0
C1278 C 0.57276 0.72768 0.74779 0.0
C1279 C 0.60041 0.75498 0.73385 0.0
H1280 H 0.92402 0.45978 0.29912 0.0
H1281 H 0.83702 0.47917 0.39051 0.0
H1282 H 0.85023 0.41506 0.41925 0.0
H1283 H 0.87084 0.34806 0.40606 0.0
H1284 H 0.95192 0.32497 0.31017 0.0
H1285 H 0.95721 0.39535 0.2959 0.0
C1286 C 0.9096 0.45066 0.3266 0.0
C1287 C 0.87983 0.47414 0.34284 0.0
C1288 C 0.91524 0.41235 0.34136 0.0
C1289 C 0.8605 0.46192 0.37785 0.0
C1290 C 0.86752 0.42489 0.39396 0.0
C1291 C 0.89083 0.35871 0.38312 0.0
C1292 C 0.91041 0.33168 0.35883 0.0
C1293 C 0.89246 0.3989 0.37413 0.0
C1294 C 0.93654 0.34543 0.32931 0.0
C1295 C 0.93921 0.38567 0.32084 0.0
H1296 H 0.53654 0.27017 0.77212 0.0
H1297 H 0.45268 0.36288 0.75294 0.0
H1298 H 0.40233 0.31421 0.73597 0.0
H1299 H 0.38166 0.24556 0.72755 0.0
H1300 H 0.4639 0.15208 0.75002 0.0
H1301 H 0.51518 0.20071 0.76492 0.0
C1302 C 0.5074 0.27972 0.76359 0.0
C1303 C 0.4985 0.32023 0.76338 0.0
C1304 C 0.47819 0.25139 0.7548 0.0
C1305 C 0.46037 0.33201 0.75313 0.0
C1306 C 0.43153 0.30415 0.74351 0.0
C1307 C 0.4108 0.23569 0.73569 0.0
C1308 C 0.41868 0.19505 0.73779 0.0
C1309 C 0.44002 0.2638 0.74448 0.0
C1310 C 0.45664 0.18301 0.74872 0.0
C1311 C 0.48613 0.21089 0.7569 0.0
H1312 H 0.73589 0.40042 0.45783 0.0
H1313 H 0.64164 0.48169 0.47908 0.0
H1314 H 0.68958 0.53348 0.49603 0.0
H1315 H 0.759 0.55471 0.5067 0.0
H1316 H 0.85151 0.47018 0.4907 0.0
H1317 H 0.80348 0.42048 0.47019 0.0
C1318 C 0.72579 0.42953 0.46605 0.0
C1319 C 0.68532 0.43723 0.46713 0.0
C1320 C 0.75334 0.45863 0.47642 0.0
C1321 C 0.67265 0.47492 0.47836 0.0
C1322 C 0.70008 0.50457 0.48777 0.0
C1323 C 0.76859 0.52568 0.49766 0.0
C1324 C 0.8088 0.51624 0.49947 0.0
C1325 C 0.7406 0.49674 0.48693 0.0
C1326 C 0.82082 0.4782 0.48905 0.0
C1327 C 0.79343 0.44981 0.4773 0.0
H1328 H 0.34192 0.41291 0.58674 0.0
H1329 H 0.33796 0.30942 0.66188 0.0
H1330 H 0.40917 0.30466 0.65887 0.0
H1331 H 0.4695 0.32125 0.62341 0.0
H1332 H 0.47261 0.42103 0.54364 0.0
H1333 H 0.40527 0.43748 0.5621 0.0
C1334 C 0.35659 0.39035 0.604 0.0
C1335 C 0.33455 0.36111 0.62396 0.0
C1336 C 0.39755 0.38715 0.60131 0.0
C1337 C 0.35425 0.3319 0.64577 0.0
C1338 C 0.39499 0.32918 0.64415 0.0
C1339 C 0.4558 0.34732 0.61105 0.0
C1340 C 0.47536 0.36924 0.58144 0.0
C1341 C 0.41659 0.3553 0.62019 0.0
C1342 C 0.4579 0.40347 0.56625 0.0
C1343 C 0.41921 0.41258 0.57644 0.0
H1344 H 0.29986 0.49118 0.54155 0.0
H1345 H 0.20827 0.55376 0.47964 0.0
H1346 H 0.25607 0.60287 0.45687 0.0
H1347 H 0.32317 0.62916 0.45616 0.0
H1348 H 0.41455 0.56874 0.52059 0.0
H1349 H 0.36752 0.51773 0.5408 0.0
C1350 C 0.29049 0.51523 0.52252 0.0
C1351 C 0.25055 0.5187 0.51209 0.0
C1352 C 0.31801 0.54391 0.51028 0.0
C1353 C 0.23878 0.55039 0.48802 0.0
C1354 C 0.2661 0.57848 0.47499 0.0
C1355 C 0.33291 0.60476 0.47453 0.0
C1356 C 0.37235 0.60308 0.48706 0.0
C1357 C 0.30567 0.57576 0.48628 0.0
C1358 C 0.3843 0.57132 0.51108 0.0
C1359 C 0.35745 0.54191 0.52237 0.0
H1360 H 0.58574 0.63863 0.56685 0.0
H1361 H 0.5833 0.74271 0.64063 0.0
H1362 H 0.65398 0.73874 0.65049 0.0
H1363 H 0.71678 0.71627 0.62315 0.0
H1364 H 0.71939 0.6139 0.54719 0.0
H1365 H 0.64839 0.60624 0.55352 0.0
C1366 C 0.60038 0.6594 0.58655 0.0
C1367 C 0.57983 0.69185 0.60159 0.0
C1368 C 0.64123 0.6578 0.59085 0.0
C1369 C 0.5989 0.71806 0.62778 0.0
C1370 C 0.63935 0.71603 0.6332 0.0
C1371 C 0.70178 0.69164 0.6091 0.0
C1372 C 0.72274 0.6662 0.58422 0.0
C1373 C 0.661 0.68781 0.61238 0.0
C1374 C 0.70356 0.63394 0.56645 0.0
C1375 C 0.66297 0.62966 0.56987 0.0
H1376 H 0.63257 0.08743 0.79723 0.0
H1377 H 0.71624 0.07585 0.89327 0.0
H1378 H 0.70323 0.14318 0.9145 0.0
H1379 H 0.68146 0.20882 0.89479 0.0
H1380 H 0.60127 0.2219 0.796 0.0
H1381 H 0.59876 0.15059 0.78735 0.0
C1382 C 0.64664 0.09911 0.82384 0.0
C1383 C 0.67594 0.07722 0.84317 0.0
C1384 C 0.64031 0.13846 0.83481 0.0
C1385 C 0.69401 0.09254 0.87761 0.0
C1386 C 0.68682 0.13109 0.88957 0.0
C1387 C 0.66241 0.19586 0.87229 0.0
C1388 C 0.6422 0.2204 0.84567 0.0
C1389 C 0.66213 0.15502 0.8667 0.0
C1390 C 0.61717 0.20354 0.81689 0.0
C1391 C 0.61605 0.16274 0.81164 0.0
H1392 H 0.14312 0.31571 0.21067 0.0
H1393 H 0.07609 0.40069 0.27761 0.0
H1394 H 0.03089 0.34868 0.29908 0.0
H1395 H 1.01095 0.27899 0.29955 0.0
H1396 H 0.07893 0.19392 0.23391 0.0
H1397 H 0.12301 0.24631 0.21088 0.0
C1398 C 0.11855 0.32304 0.22985 0.0
C1399 C 0.11339 0.36222 0.2427 0.0
C1400 C 0.09273 0.29298 0.24214 0.0
C1401 C 0.08143 0.37087 0.26779 0.0
C1402 C 0.05532 0.34112 0.27983 0.0
C1403 C 0.03519 0.27189 0.27988 0.0
C1404 C 0.04159 0.23248 0.26842 0.0
C1405 C 0.06077 0.30208 0.26727 0.0
C1406 C 0.07339 0.22388 0.24327 0.0
C1407 C 0.09859 0.25386 0.23007 0.0
H1408 H 0.3509 0.96904 0.88356 0.0
H1409 H 0.43457 0.97187 0.78705 0.0
H1410 H 0.45543 0.90502 0.80363 0.0
H1411 H 0.43523 0.84116 0.83251 0.0
H1412 H 0.34644 0.83793 0.92447 0.0
H1413 H 0.34281 0.90957 0.92372 0.0
C1414 C 0.37508 0.95566 0.86753 0.0
C1415 C 0.39087 0.97478 0.83393 0.0
C1416 C 0.38525 0.91669 0.87593 0.0
C1417 C 0.42216 0.95755 0.81318 0.0
C1418 C 0.43357 0.91906 0.82226 0.0
C1419 C 0.41647 0.85629 0.85365 0.0
C1420 C 0.3906 0.83449 0.87805 0.0
C1421 C 0.41321 0.89746 0.85164 0.0
C1422 C 0.3662 0.85428 0.90511 0.0
C1423 C 0.36398 0.89519 0.90452 0.0
H1424 H 0.88672 0.73991 0.22521 0.0
H1425 H 0.97116 0.64942 0.25084 0.0
H1426 H 1.02138 0.69984 0.26426 0.0
H1427 H 0.04109 0.77014 0.26843 0.0
H1428 H 0.95445 0.85981 0.24792 0.0
H1429 H 0.90515 0.80931 0.23295 0.0
C1430 C 0.9161 0.73123 0.23396 0.0
C1431 C 0.92524 0.69103 0.23706 0.0
C1432 C 0.94448 0.76029 0.24202 0.0
C1433 C 0.96328 0.68017 0.24871 0.0
C1434 C 0.99207 0.709 0.25598 0.0
C1435 C 1.01161 0.7785 0.25977 0.0
C1436 C 1.0015 0.81862 0.25837 0.0
C1437 C 0.98307 0.74918 0.25239 0.0
C1438 C 0.96294 0.82915 0.24858 0.0
C1439 C 0.93478 0.8003 0.24014 0.0
loop_
_geom_bond_atom_site_label_1
_geom_bond_atom_site_label_2
_geom_bond_distance
_geom_bond_site_symmetry_2
_ccdc_geom_bond_type
Zn0 N4 2.020 . S
Zn0 O8 2.019 . S
Zn0 N10 2.119 . S
Zn0 O18 1.975 . S
C1 N2 1.334 . S
C1 N5 1.336 1_556 S
N2 C1 1.334 . S
N2 C3 1.334 1_556 S
C3 N2 1.334 1_554 S
C3 N4 1.336 . S
N4 Zn0 2.020 . S
N4 C3 1.336 . S
N4 N5 1.354 . S
N5 C1 1.336 1_554 S
N5 N4 1.354 . S
N5 Zn9 2.020 . S
C6 O7 1.244 . S
C6 O30 1.257 1_565 S
O7 C6 1.244 . S
O8 Zn0 2.019 . S
O8 C28 1.257 . S
Zn9 N5 2.020 . S
Zn9 O16 1.975 . S
Zn9 N25 2.119 . S
Zn9 O30 2.019 . S
N10 Zn0 2.119 . S
N10 C12 1.334 . S
N10 C13 1.328 . S
C11 C12 1.391 1_565 S
C11 N14 1.329 1_565 S
C11 H32 0.930 . S
C12 N10 1.334 . S
C12 C11 1.391 1_545 S
C12 H19 0.930 . S
C13 N10 1.328 . S
C13 C15 1.392 . S
C13 H20 0.930 . S
N14 C11 1.329 1_545 S
N14 C15 1.331 . S
C15 C13 1.392 . S
C15 N14 1.331 . S
O16 Zn9 1.975 . S
O16 C17 1.252 . S
C17 O16 1.252 . S
C17 O18 1.252 . S
O18 Zn0 1.975 . S
O18 C17 1.252 . S
H19 C12 0.930 . S
H20 C13 0.930 . S
C21 C22 1.392 . S
C21 N25 1.328 . S
C21 H27 0.930 . S
C22 C21 1.392 . S
C22 N26 1.331 . S
C23 C24 1.391 . S
C23 N26 1.329 . S
C23 H33 0.930 . S
C24 C23 1.391 . S
C24 N25 1.334 . S
C24 H31 0.930 . S
N25 Zn9 2.119 . S
N25 C21 1.328 . S
N25 C24 1.334 . S
N26 C22 1.331 . S
N26 C23 1.329 . S
H27 C21 0.930 . S
C28 O8 1.257 . S
C28 O29 1.244 . S
O29 C28 1.244 . S
O30 C6 1.257 1_545 S
O30 Zn9 2.019 . S
H31 C24 0.930 . S
H32 C11 0.930 . S
H33 C23 0.930 . S
Zn34 N38 2.020 . S
Zn34 O42 2.019 . S
Zn34 N44 2.119 . S
Zn34 O52 1.975 . S
C35 N36 1.334 . S
C35 N39 1.336 1_554 S
N36 C35 1.334 . S
N36 C37 1.334 1_554 S
C37 N36 1.334 1_556 S
C37 N38 1.336 . S
N38 Zn34 2.020 . S
N38 C37 1.336 . S
N38 N39 1.354 . S
N39 C35 1.336 1_556 S
N39 N38 1.354 . S
N39 Zn43 2.020 . S
C40 O41 1.244 . S
C40 O64 1.257 1_655 S
O41 C40 1.244 . S
O42 Zn34 2.019 . S
O42 C62 1.257 . S
Zn43 N39 2.020 . S
Zn43 O50 1.975 . S
Zn43 N59 2.119 . S
Zn43 O64 2.019 . S
N44 Zn34 2.119 . S
N44 C46 1.334 . S
N44 C47 1.328 . S
C45 C46 1.391 1_655 S
C45 N48 1.329 1_655 S
C45 H66 0.930 . S
C46 N44 1.334 . S
C46 C45 1.391 1_455 S
C46 H53 0.930 . S
C47 N44 1.328 . S
C47 C49 1.392 . S
C47 H54 0.930 . S
N48 C45 1.329 1_455 S
N48 C49 1.331 . S
C49 C47 1.392 . S
C49 N48 1.331 . S
O50 Zn43 1.975 . S
O50 C51 1.252 . S
C51 O50 1.252 . S
C51 O52 1.252 . S
O52 Zn34 1.975 . S
O52 C51 1.252 . S
H53 C46 0.930 . S
H54 C47 0.930 . S
C55 C56 1.392 . S
C55 N59 1.328 . S
C55 H61 0.930 . S
C56 C55 1.392 . S
C56 N60 1.331 . S
C57 C58 1.391 . S
C57 N60 1.329 . S
C57 H67 0.930 . S
C58 C57 1.391 . S
C58 N59 1.334 . S
C58 H65 0.930 . S
N59 Zn43 2.119 . S
N59 C55 1.328 . S
N59 C58 1.334 . S
N60 C56 1.331 . S
N60 C57 1.329 . S
H61 C55 0.930 . S
C62 O42 1.257 . S
C62 O63 1.244 . S
O63 C62 1.244 . S
O64 C40 1.257 1_455 S
O64 Zn43 2.019 . S
H65 C58 0.930 . S
H66 C45 0.930 . S
H67 C57 0.930 . S
Zn68 N72 2.020 . S
Zn68 O76 2.019 . S
Zn68 N78 2.119 . S
Zn68 O86 1.975 . S
C69 N70 1.334 1_554 S
C69 N73 1.336 . S
N70 C69 1.334 1_556 S
N70 C71 1.334 . S
C71 N70 1.334 . S
C71 N72 1.336 1_556 S
N72 Zn68 2.020 . S
N72 C71 1.336 1_554 S
N72 N73 1.354 . S
N73 C69 1.336 . S
N73 N72 1.354 . S
N73 Zn77 2.020 . S
C74 O75 1.244 . S
C74 O98 1.257 . S
O75 C74 1.244 . S
O76 Zn68 2.019 . S
O76 C96 1.257 1_565 S
Zn77 N73 2.020 . S
Zn77 O84 1.975 . S
Zn77 N93 2.119 . S
Zn77 O98 2.019 . S
N78 Zn68 2.119 . S
N78 C80 1.334 . S
N78 C81 1.328 . S
C79 C80 1.391 . S
C79 N82 1.329 . S
C79 H100 0.930 . S
C80 N78 1.334 . S
C80 C79 1.391 . S
C80 H87 0.930 . S
C81 N78 1.328 . S
C81 C83 1.392 . S
C81 H88 0.930 . S
N82 C79 1.329 . S
N82 C83 1.331 . S
C83 C81 1.392 . S
C83 N82 1.331 . S
O84 Zn77 1.975 . S
O84 C85 1.252 . S
C85 O84 1.252 . S
C85 O86 1.252 . S
O86 Zn68 1.975 . S
O86 C85 1.252 . S
H87 C80 0.930 . S
H88 C81 0.930 . S
C89 C90 1.392 . S
C89 N93 1.328 . S
C89 H95 0.930 . S
C90 C89 1.392 . S
C90 N94 1.331 . S
C91 C92 1.391 1_545 S
C91 N94 1.329 1_545 S
C91 H101 0.930 . S
C92 C91 1.391 1_565 S
C92 N93 1.334 . S
C92 H99 0.930 . S
N93 Zn77 2.119 . S
N93 C89 1.328 . S
N93 C92 1.334 . S
N94 C90 1.331 . S
N94 C91 1.329 1_565 S
H95 C89 0.930 . S
C96 O76 1.257 1_545 S
C96 O97 1.244 . S
O97 C96 1.244 . S
O98 C74 1.257 . S
O98 Zn77 2.019 . S
H99 C92 0.930 . S
H100 C79 0.930 . S
H101 C91 0.930 . S
Zn102 N106 2.020 . S
Zn102 O110 2.019 . S
Zn102 N112 2.119 . S
Zn102 O120 1.975 . S
C103 N104 1.334 . S
C103 N107 1.336 1_554 S
N104 C103 1.334 . S
N104 C105 1.334 1_554 S
C105 N104 1.334 1_556 S
C105 N106 1.336 . S
N106 Zn102 2.020 . S
N106 C105 1.336 . S
N106 N107 1.354 . S
N107 C103 1.336 1_556 S
N107 N106 1.354 . S
N107 Zn111 2.020 . S
C108 O109 1.244 . S
C108 O132 1.257 1_455 S
O109 C108 1.244 . S
O110 Zn102 2.019 . S
O110 C130 1.257 . S
Zn111 N107 2.020 . S
Zn111 O118 1.975 . S
Zn111 N127 2.119 . S
Zn111 O132 2.019 . S
N112 Zn102 2.119 . S
N112 C114 1.334 . S
N112 C115 1.328 . S
C113 C114 1.391 1_455 S
C113 N116 1.329 1_455 S
C113 H134 0.930 . S
C114 N112 1.334 . S
C114 C113 1.391 1_655 S
C114 H121 0.930 . S
C115 N112 1.328 . S
C115 C117 1.392 . S
C115 H122 0.930 . S
N116 C113 1.329 1_655 S
N116 C117 1.331 . S
C117 C115 1.392 . S
C117 N116 1.331 . S
O118 Zn111 1.975 . S
O118 C119 1.252 . S
C119 O118 1.252 . S
C119 O120 1.252 . S
O120 Zn102 1.975 . S
O120 C119 1.252 . S
H121 C114 0.930 . S
H122 C115 0.930 . S
C123 C124 1.392 . S
C123 N127 1.328 . S
C123 H129 0.930 . S
C124 C123 1.392 . S
C124 N128 1.331 . S
C125 C126 1.391 . S
C125 N128 1.329 . S
C125 H135 0.930 . S
C126 C125 1.391 . S
C126 N127 1.334 . S
C126 H133 0.930 . S
N127 Zn111 2.119 . S
N127 C123 1.328 . S
N127 C126 1.334 . S
N128 C124 1.331 . S
N128 C125 1.329 . S
H129 C123 0.930 . S
C130 O110 1.257 . S
C130 O131 1.244 . S
O131 C130 1.244 . S
O132 C108 1.257 1_655 S
O132 Zn111 2.019 . S
H133 C126 0.930 . S
H134 C113 0.930 . S
H135 C125 0.930 . S
Zn136 N140 2.020 . S
Zn136 O144 2.019 . S
Zn136 N146 2.119 . S
Zn136 O154 1.975 . S
C137 N138 1.334 . S
C137 N141 1.336 . S
N138 C137 1.334 . S
N138 C139 1.334 . S
C139 N138 1.334 . S
C139 N140 1.336 . S
N140 Zn136 2.020 . S
N140 C139 1.336 . S
N140 N141 1.354 . S
N141 C137 1.336 . S
N141 N140 1.354 . S
N141 Zn145 2.020 . S
C142 O143 1.244 . S
C142 O166 1.257 . S
O143 C142 1.244 . S
O144 Zn136 2.019 . S
O144 C164 1.257 . S
Zn145 N141 2.020 . S
Zn145 O152 1.975 . S
Zn145 N161 2.119 . S
Zn145 O166 2.019 . S
N146 Zn136 2.119 . S
N146 C148 1.334 . S
N146 C149 1.328 . S
C147 C148 1.391 . S
C147 N150 1.329 . S
C147 H168 0.930 . S
C148 N146 1.334 . S
C148 C147 1.391 . S
C148 H155 0.930 . S
C149 N146 1.328 . S
C149 C151 1.392 . S
C149 H156 0.930 . S
N150 C147 1.329 . S
N150 C151 1.331 . S
C151 C149 1.392 . S
C151 N150 1.331 . S
O152 Zn145 1.975 . S
O152 C153 1.252 . S
C153 O152 1.252 . S
C153 O154 1.252 . S
O154 Zn136 1.975 . S
O154 C153 1.252 . S
H155 C148 0.930 . S
H156 C149 0.930 . S
C157 C158 1.392 . S
C157 N161 1.328 . S
C157 H163 0.930 . S
C158 C157 1.392 . S
C158 N162 1.331 . S
C159 C160 1.391 . S
C159 N162 1.329 . S
C159 H169 0.930 . S
C160 C159 1.391 . S
C160 N161 1.334 . S
C160 H167 0.930 . S
N161 Zn145 2.119 . S
N161 C157 1.328 . S
N161 C160 1.334 . S
N162 C158 1.331 . S
N162 C159 1.329 . S
H163 C157 0.930 . S
C164 O144 1.257 . S
C164 O165 1.244 . S
O165 C164 1.244 . S
O166 C142 1.257 . S
O166 Zn145 2.019 . S
H167 C160 0.930 . S
H168 C147 0.930 . S
H169 C159 0.930 . S
Zn170 N174 2.020 . S
Zn170 O178 2.019 . S
Zn170 N180 2.119 . S
Zn170 O188 1.975 . S
C171 N172 1.334 . S
C171 N175 1.336 . S
N172 C171 1.334 . S
N172 C173 1.334 . S
C173 N172 1.334 . S
C173 N174 1.336 . S
N174 Zn170 2.020 . S
N174 C173 1.336 . S
N174 N175 1.354 . S
N175 C171 1.336 . S
N175 N174 1.354 . S
N175 Zn179 2.020 . S
C176 O177 1.244 . S
C176 O200 1.257 . S
O177 C176 1.244 . S
O178 Zn170 2.019 . S
O178 C198 1.257 . S
Zn179 N175 2.020 . S
Zn179 O186 1.975 . S
Zn179 N195 2.119 . S
Zn179 O200 2.019 . S
N180 Zn170 2.119 . S
N180 C182 1.334 . S
N180 C183 1.328 . S
C181 C182 1.391 . S
C181 N184 1.329 . S
C181 H202 0.930 . S
C182 N180 1.334 . S
C182 C181 1.391 . S
C182 H189 0.930 . S
C183 N180 1.328 . S
C183 C185 1.392 . S
C183 H190 0.930 . S
N184 C181 1.329 . S
N184 C185 1.331 . S
C185 C183 1.392 . S
C185 N184 1.331 . S
O186 Zn179 1.975 . S
O186 C187 1.252 . S
C187 O186 1.252 . S
C187 O188 1.252 . S
O188 Zn170 1.975 . S
O188 C187 1.252 . S
H189 C182 0.930 . S
H190 C183 0.930 . S
C191 C192 1.392 . S
C191 N195 1.328 . S
C191 H197 0.930 . S
C192 C191 1.392 . S
C192 N196 1.331 . S
C193 C194 1.391 . S
C193 N196 1.329 . S
C193 H203 0.930 . S
C194 C193 1.391 . S
C194 N195 1.334 . S
C194 H201 0.930 . S
N195 Zn179 2.119 . S
N195 C191 1.328 . S
N195 C194 1.334 . S
N196 C192 1.331 . S
N196 C193 1.329 . S
H197 C191 0.930 . S
C198 O178 1.257 . S
C198 O199 1.244 . S
O199 C198 1.244 . S
O200 C176 1.257 . S
O200 Zn179 2.019 . S
H201 C194 0.930 . S
H202 C181 0.930 . S
H203 C193 0.930 . S
Zn204 N208 2.020 . S
Zn204 O212 2.019 . S
Zn204 N214 2.119 . S
Zn204 O222 1.975 . S
C205 N206 1.334 . S
C205 N209 1.336 . S
N206 C205 1.334 . S
N206 C207 1.334 . S
C207 N206 1.334 . S
C207 N208 1.336 . S
N208 Zn204 2.020 . S
N208 C207 1.336 . S
N208 N209 1.354 . S
N209 C205 1.336 . S
N209 N208 1.354 . S
N209 Zn213 2.020 . S
C210 O211 1.244 . S
C210 O234 1.257 . S
O211 C210 1.244 . S
O212 Zn204 2.019 . S
O212 C232 1.257 . S
Zn213 N209 2.020 . S
Zn213 O220 1.975 . S
Zn213 N229 2.119 . S
Zn213 O234 2.019 . S
N214 Zn204 2.119 . S
N214 C216 1.334 . S
N214 C217 1.328 . S
C215 C216 1.391 . S
C215 N218 1.329 . S
C215 H236 0.930 . S
C216 N214 1.334 . S
C216 C215 1.391 . S
C216 H223 0.930 . S
C217 N214 1.328 . S
C217 C219 1.392 . S
C217 H224 0.930 . S
N218 C215 1.329 . S
N218 C219 1.331 . S
C219 C217 1.392 . S
C219 N218 1.331 . S
O220 Zn213 1.975 . S
O220 C221 1.252 . S
C221 O220 1.252 . S
C221 O222 1.252 . S
O222 Zn204 1.975 . S
O222 C221 1.252 . S
H223 C216 0.930 . S
H224 C217 0.930 . S
C225 C226 1.392 . S
C225 N229 1.328 . S
C225 H231 0.930 . S
C226 C225 1.392 . S
C226 N230 1.331 . S
C227 C228 1.391 . S
C227 N230 1.329 . S
C227 H237 0.930 . S
C228 C227 1.391 . S
C228 N229 1.334 . S
C228 H235 0.930 . S
N229 Zn213 2.119 . S
N229 C225 1.328 . S
N229 C228 1.334 . S
N230 C226 1.331 . S
N230 C227 1.329 . S
H231 C225 0.930 . S
C232 O212 1.257 . S
C232 O233 1.244 . S
O233 C232 1.244 . S
O234 C210 1.257 . S
O234 Zn213 2.019 . S
H235 C228 0.930 . S
H236 C215 0.930 . S
H237 C227 0.930 . S
Zn238 N242 2.020 . S
Zn238 O246 2.019 . S
Zn238 N248 2.119 . S
Zn238 O256 1.975 . S
C239 N240 1.334 . S
C239 N243 1.336 . S
N240 C239 1.334 . S
N240 C241 1.334 . S
C241 N240 1.334 . S
C241 N242 1.336 . S
N242 Zn238 2.020 . S
N242 C241 1.336 . S
N242 N243 1.354 . S
N243 C239 1.336 . S
N243 N242 1.354 . S
N243 Zn247 2.020 . S
C244 O245 1.244 . S
C244 O268 1.257 . S
O245 C244 1.244 . S
O246 Zn238 2.019 . S
O246 C266 1.257 . S
Zn247 N243 2.020 . S
Zn247 O254 1.975 . S
Zn247 N263 2.119 . S
Zn247 O268 2.019 . S
N248 Zn238 2.119 . S
N248 C250 1.334 . S
N248 C251 1.328 . S
C249 C250 1.391 . S
C249 N252 1.329 . S
C249 H270 0.930 . S
C250 N248 1.334 . S
C250 C249 1.391 . S
C250 H257 0.930 . S
C251 N248 1.328 . S
C251 C253 1.392 . S
C251 H258 0.930 . S
N252 C249 1.329 . S
N252 C253 1.331 . S
C253 C251 1.392 . S
C253 N252 1.331 . S
O254 Zn247 1.975 . S
O254 C255 1.252 . S
C255 O254 1.252 . S
C255 O256 1.252 . S
O256 Zn238 1.975 . S
O256 C255 1.252 . S
H257 C250 0.930 . S
H258 C251 0.930 . S
C259 C260 1.392 . S
C259 N263 1.328 . S
C259 H265 0.930 . S
C260 C259 1.392 . S
C260 N264 1.331 . S
C261 C262 1.391 . S
C261 N264 1.329 . S
C261 H271 0.930 . S
C262 C261 1.391 . S
C262 N263 1.334 . S
C262 H269 0.930 . S
N263 Zn247 2.119 . S
N263 C259 1.328 . S
N263 C262 1.334 . S
N264 C260 1.331 . S
N264 C261 1.329 . S
H265 C259 0.930 . S
C266 O246 1.257 . S
C266 O267 1.244 . S
O267 C266 1.244 . S
O268 C244 1.257 . S
O268 Zn247 2.019 . S
H269 C262 0.930 . S
H270 C249 0.930 . S
H271 C261 0.930 . S
Zn272 N276 2.020 . S
Zn272 O280 2.019 . S
Zn272 N282 2.119 . S
Zn272 O290 1.975 . S
C273 N274 1.334 . S
C273 N277 1.336 . S
N274 C273 1.334 . S
N274 C275 1.334 . S
C275 N274 1.334 . S
C275 N276 1.336 . S
N276 Zn272 2.020 . S
N276 C275 1.336 . S
N276 N277 1.354 . S
N277 C273 1.336 . S
N277 N276 1.354 . S
N277 Zn281 2.020 . S
C278 O279 1.244 . S
C278 O302 1.257 . S
O279 C278 1.244 . S
O280 Zn272 2.019 . S
O280 C300 1.257 . S
Zn281 N277 2.020 . S
Zn281 O288 1.975 . S
Zn281 N297 2.119 . S
Zn281 O302 2.019 . S
N282 Zn272 2.119 . S
N282 C284 1.334 . S
N282 C285 1.328 . S
C283 C284 1.391 . S
C283 N286 1.329 . S
C283 H304 0.930 . S
C284 N282 1.334 . S
C284 C283 1.391 . S
C284 H291 0.930 . S
C285 N282 1.328 . S
C285 C287 1.392 . S
C285 H292 0.930 . S
N286 C283 1.329 . S
N286 C287 1.331 . S
C287 C285 1.392 . S
C287 N286 1.331 . S
O288 Zn281 1.975 . S
O288 C289 1.252 . S
C289 O288 1.252 . S
C289 O290 1.252 . S
O290 Zn272 1.975 . S
O290 C289 1.252 . S
H291 C284 0.930 . S
H292 C285 0.930 . S
C293 C294 1.392 . S
C293 N297 1.328 . S
C293 H299 0.930 . S
C294 C293 1.392 . S
C294 N298 1.331 . S
C295 C296 1.391 . S
C295 N298 1.329 . S
C295 H305 0.930 . S
C296 C295 1.391 . S
C296 N297 1.334 . S
C296 H303 0.930 . S
N297 Zn281 2.119 . S
N297 C293 1.328 . S
N297 C296 1.334 . S
N298 C294 1.331 . S
N298 C295 1.329 . S
H299 C293 0.930 . S
C300 O280 1.257 . S
C300 O301 1.244 . S
O301 C300 1.244 . S
O302 C278 1.257 . S
O302 Zn281 2.019 . S
H303 C296 0.930 . S
H304 C283 0.930 . S
H305 C295 0.930 . S
Zn306 N310 2.020 . S
Zn306 O314 2.019 . S
Zn306 N316 2.119 . S
Zn306 O324 1.975 . S
C307 N308 1.334 . S
C307 N311 1.336 . S
N308 C307 1.334 . S
N308 C309 1.334 . S
C309 N308 1.334 . S
C309 N310 1.336 . S
N310 Zn306 2.020 . S
N310 C309 1.336 . S
N310 N311 1.354 . S
N311 C307 1.336 . S
N311 N310 1.354 . S
N311 Zn315 2.020 . S
C312 O313 1.244 . S
C312 O336 1.257 . S
O313 C312 1.244 . S
O314 Zn306 2.019 . S
O314 C334 1.257 . S
Zn315 N311 2.020 . S
Zn315 O322 1.975 . S
Zn315 N331 2.119 . S
Zn315 O336 2.019 . S
N316 Zn306 2.119 . S
N316 C318 1.334 . S
N316 C319 1.328 . S
C317 C318 1.391 . S
C317 N320 1.329 . S
C317 H338 0.930 . S
C318 N316 1.334 . S
C318 C317 1.391 . S
C318 H325 0.930 . S
C319 N316 1.328 . S
C319 C321 1.392 . S
C319 H326 0.930 . S
N320 C317 1.329 . S
N320 C321 1.331 . S
C321 C319 1.392 . S
C321 N320 1.331 . S
O322 Zn315 1.975 . S
O322 C323 1.252 . S
C323 O322 1.252 . S
C323 O324 1.252 . S
O324 Zn306 1.975 . S
O324 C323 1.252 . S
H325 C318 0.930 . S
H326 C319 0.930 . S
C327 C328 1.392 . S
C327 N331 1.328 . S
C327 H333 0.930 . S
C328 C327 1.392 . S
C328 N332 1.331 . S
C329 C330 1.391 . S
C329 N332 1.329 . S
C329 H339 0.930 . S
C330 C329 1.391 . S
C330 N331 1.334 . S
C330 H337 0.930 . S
N331 Zn315 2.119 . S
N331 C327 1.328 . S
N331 C330 1.334 . S
N332 C328 1.331 . S
N332 C329 1.329 . S
H333 C327 0.930 . S
C334 O314 1.257 . S
C334 O335 1.244 . S
O335 C334 1.244 . S
O336 C312 1.257 . S
O336 Zn315 2.019 . S
H337 C330 0.930 . S
H338 C317 0.930 . S
H339 C329 0.930 . S
Zn340 N344 2.020 . S
Zn340 O348 2.019 . S
Zn340 N350 2.119 . S
Zn340 O358 1.975 . S
C341 N342 1.334 . S
C341 N345 1.336 . S
N342 C341 1.334 . S
N342 C343 1.334 . S
C343 N342 1.334 . S
C343 N344 1.336 . S
N344 Zn340 2.020 . S
N344 C343 1.336 . S
N344 N345 1.354 . S
N345 C341 1.336 . S
N345 N344 1.354 . S
N345 Zn349 2.020 . S
C346 O347 1.244 . S
C346 O370 1.257 . S
O347 C346 1.244 . S
O348 Zn340 2.019 . S
O348 C368 1.257 . S
Zn349 N345 2.020 . S
Zn349 O356 1.975 . S
Zn349 N365 2.119 . S
Zn349 O370 2.019 . S
N350 Zn340 2.119 . S
N350 C352 1.334 . S
N350 C353 1.328 . S
C351 C352 1.391 . S
C351 N354 1.329 . S
C351 H372 0.930 . S
C352 N350 1.334 . S
C352 C351 1.391 . S
C352 H359 0.930 . S
C353 N350 1.328 . S
C353 C355 1.392 . S
C353 H360 0.930 . S
N354 C351 1.329 . S
N354 C355 1.331 . S
C355 C353 1.392 . S
C355 N354 1.331 . S
O356 Zn349 1.975 . S
O356 C357 1.252 . S
C357 O356 1.252 . S
C357 O358 1.252 . S
O358 Zn340 1.975 . S
O358 C357 1.252 . S
H359 C352 0.930 . S
H360 C353 0.930 . S
C361 C362 1.392 . S
C361 N365 1.328 . S
C361 H367 0.930 . S
C362 C361 1.392 . S
C362 N366 1.331 . S
C363 C364 1.391 . S
C363 N366 1.329 . S
C363 H373 0.930 . S
C364 C363 1.391 . S
C364 N365 1.334 . S
C364 H371 0.930 . S
N365 Zn349 2.119 . S
N365 C361 1.328 . S
N365 C364 1.334 . S
N366 C362 1.331 . S
N366 C363 1.329 . S
H367 C361 0.930 . S
C368 O348 1.257 . S
C368 O369 1.244 . S
O369 C368 1.244 . S
O370 C346 1.257 . S
O370 Zn349 2.019 . S
H371 C364 0.930 . S
H372 C351 0.930 . S
H373 C363 0.930 . S
Zn374 N378 2.020 . S
Zn374 O382 2.019 . S
Zn374 N384 2.119 . S
Zn374 O392 1.975 . S
C375 N376 1.334 . S
C375 N379 1.336 . S
N376 C375 1.334 . S
N376 C377 1.334 . S
C377 N376 1.334 . S
C377 N378 1.336 . S
N378 Zn374 2.020 . S
N378 C377 1.336 . S
N378 N379 1.354 . S
N379 C375 1.336 . S
N379 N378 1.354 . S
N379 Zn383 2.020 . S
C380 O381 1.244 . S
C380 O404 1.257 . S
O381 C380 1.244 . S
O382 Zn374 2.019 . S
O382 C402 1.257 . S
Zn383 N379 2.020 . S
Zn383 O390 1.975 . S
Zn383 N399 2.119 . S
Zn383 O404 2.019 . S
N384 Zn374 2.119 . S
N384 C386 1.334 . S
N384 C387 1.328 . S
C385 C386 1.391 . S
C385 N388 1.329 . S
C385 H406 0.930 . S
C386 N384 1.334 . S
C386 C385 1.391 . S
C386 H393 0.930 . S
C387 N384 1.328 . S
C387 C389 1.392 . S
C387 H394 0.930 . S
N388 C385 1.329 . S
N388 C389 1.331 . S
C389 C387 1.392 . S
C389 N388 1.331 . S
O390 Zn383 1.975 . S
O390 C391 1.252 . S
C391 O390 1.252 . S
C391 O392 1.252 . S
O392 Zn374 1.975 . S
O392 C391 1.252 . S
H393 C386 0.930 . S
H394 C387 0.930 . S
C395 C396 1.392 . S
C395 N399 1.328 . S
C395 H401 0.930 . S
C396 C395 1.392 . S
C396 N400 1.331 . S
C397 C398 1.391 . S
C397 N400 1.329 . S
C397 H407 0.930 . S
C398 C397 1.391 . S
C398 N399 1.334 . S
C398 H405 0.930 . S
N399 Zn383 2.119 . S
N399 C395 1.328 . S
N399 C398 1.334 . S
N400 C396 1.331 . S
N400 C397 1.329 . S
H401 C395 0.930 . S
C402 O382 1.257 . S
C402 O403 1.244 . S
O403 C402 1.244 . S
O404 C380 1.257 . S
O404 Zn383 2.019 . S
H405 C398 0.930 . S
H406 C385 0.930 . S
H407 C397 0.930 . S
Zn408 N412 2.020 . S
Zn408 O416 2.019 . S
Zn408 N418 2.119 . S
Zn408 O426 1.975 . S
C409 N410 1.334 . S
C409 N413 1.336 . S
N410 C409 1.334 . S
N410 C411 1.334 . S
C411 N410 1.334 . S
C411 N412 1.336 . S
N412 Zn408 2.020 . S
N412 C411 1.336 . S
N412 N413 1.354 . S
N413 C409 1.336 . S
N413 N412 1.354 . S
N413 Zn417 2.020 . S
C414 O415 1.244 . S
C414 O438 1.257 . S
O415 C414 1.244 . S
O416 Zn408 2.019 . S
O416 C436 1.257 1_565 S
Zn417 N413 2.020 . S
Zn417 O424 1.975 . S
Zn417 N433 2.119 . S
Zn417 O438 2.019 . S
N418 Zn408 2.119 . S
N418 C420 1.334 . S
N418 C421 1.328 . S
C419 C420 1.391 . S
C419 N422 1.329 . S
C419 H440 0.930 . S
C420 N418 1.334 . S
C420 C419 1.391 . S
C420 H427 0.930 . S
C421 N418 1.328 . S
C421 C423 1.392 . S
C421 H428 0.930 . S
N422 C419 1.329 . S
N422 C423 1.331 . S
C423 C421 1.392 . S
C423 N422 1.331 . S
O424 Zn417 1.975 . S
O424 C425 1.252 . S
C425 O424 1.252 . S
C425 O426 1.252 . S
O426 Zn408 1.975 . S
O426 C425 1.252 . S
H427 C420 0.930 . S
H428 C421 0.930 . S
C429 C430 1.392 . S
C429 N433 1.328 . S
C429 H435 0.930 . S
C430 C429 1.392 . S
C430 N434 1.331 . S
C431 C432 1.391 1_545 S
C431 N434 1.329 1_545 S
C431 H441 0.930 . S
C432 C431 1.391 1_565 S
C432 N433 1.334 . S
C432 H439 0.930 . S
N433 Zn417 2.119 . S
N433 C429 1.328 . S
N433 C432 1.334 . S
N434 C430 1.331 . S
N434 C431 1.329 1_565 S
H435 C429 0.930 . S
C436 O416 1.257 1_545 S
C436 O437 1.244 . S
O437 C436 1.244 . S
O438 C414 1.257 . S
O438 Zn417 2.019 . S
H439 C432 0.930 . S
H440 C419 0.930 . S
H441 C431 0.930 . S
Zn442 N446 2.020 . S
Zn442 O450 2.019 . S
Zn442 N452 2.119 . S
Zn442 O460 1.975 . S
C443 N444 1.334 . S
C443 N447 1.336 . S
N444 C443 1.334 . S
N444 C445 1.334 . S
C445 N444 1.334 . S
C445 N446 1.336 . S
N446 Zn442 2.020 . S
N446 C445 1.336 . S
N446 N447 1.354 . S
N447 C443 1.336 . S
N447 N446 1.354 . S
N447 Zn451 2.020 . S
C448 O449 1.244 . S
C448 O472 1.257 1_455 S
O449 C448 1.244 . S
O450 Zn442 2.019 . S
O450 C470 1.257 . S
Zn451 N447 2.020 . S
Zn451 O458 1.975 . S
Zn451 N467 2.119 . S
Zn451 O472 2.019 . S
N452 Zn442 2.119 . S
N452 C454 1.334 . S
N452 C455 1.328 . S
C453 C454 1.391 1_455 S
C453 N456 1.329 1_455 S
C453 H474 0.930 . S
C454 N452 1.334 . S
C454 C453 1.391 1_655 S
C454 H461 0.930 . S
C455 N452 1.328 . S
C455 C457 1.392 . S
C455 H462 0.930 . S
N456 C453 1.329 1_655 S
N456 C457 1.331 . S
C457 C455 1.392 . S
C457 N456 1.331 . S
O458 Zn451 1.975 . S
O458 C459 1.252 . S
C459 O458 1.252 . S
C459 O460 1.252 . S
O460 Zn442 1.975 . S
O460 C459 1.252 . S
H461 C454 0.930 . S
H462 C455 0.930 . S
C463 C464 1.392 . S
C463 N467 1.328 . S
C463 H469 0.930 . S
C464 C463 1.392 . S
C464 N468 1.331 . S
C465 C466 1.391 . S
C465 N468 1.329 . S
C465 H475 0.930 . S
C466 C465 1.391 . S
C466 N467 1.334 . S
C466 H473 0.930 . S
N467 Zn451 2.119 . S
N467 C463 1.328 . S
N467 C466 1.334 . S
N468 C464 1.331 . S
N468 C465 1.329 . S
H469 C463 0.930 . S
C470 O450 1.257 . S
C470 O471 1.244 . S
O471 C470 1.244 . S
O472 C448 1.257 1_655 S
O472 Zn451 2.019 . S
H473 C466 0.930 . S
H474 C453 0.930 . S
H475 C465 0.930 . S
Zn476 N480 2.020 . S
Zn476 O484 2.019 . S
Zn476 N486 2.119 . S
Zn476 O494 1.975 . S
C477 N478 1.334 . S
C477 N481 1.336 . S
N478 C477 1.334 . S
N478 C479 1.334 . S
C479 N478 1.334 . S
C479 N480 1.336 . S
N480 Zn476 2.020 . S
N480 C479 1.336 . S
N480 N481 1.354 . S
N481 C477 1.336 . S
N481 N480 1.354 . S
N481 Zn485 2.020 . S
C482 O483 1.244 . S
C482 O506 1.257 1_565 S
O483 C482 1.244 . S
O484 Zn476 2.019 . S
O484 C504 1.257 . S
Zn485 N481 2.020 . S
Zn485 O492 1.975 . S
Zn485 N501 2.119 . S
Zn485 O506 2.019 . S
N486 Zn476 2.119 . S
N486 C488 1.334 . S
N486 C489 1.328 . S
C487 C488 1.391 1_565 S
C487 N490 1.329 1_565 S
C487 H508 0.930 . S
C488 N486 1.334 . S
C488 C487 1.391 1_545 S
C488 H495 0.930 . S
C489 N486 1.328 . S
C489 C491 1.392 . S
C489 H496 0.930 . S
N490 C487 1.329 1_545 S
N490 C491 1.331 . S
C491 C489 1.392 . S
C491 N490 1.331 . S
O492 Zn485 1.975 . S
O492 C493 1.252 . S
C493 O492 1.252 . S
C493 O494 1.252 . S
O494 Zn476 1.975 . S
O494 C493 1.252 . S
H495 C488 0.930 . S
H496 C489 0.930 . S
C497 C498 1.392 . S
C497 N501 1.328 . S
C497 H503 0.930 . S
C498 C497 1.392 . S
C498 N502 1.331 . S
C499 C500 1.391 . S
C499 N502 1.329 . S
C499 H509 0.930 . S
C500 C499 1.391 . S
C500 N501 1.334 . S
C500 H507 0.930 . S
N501 Zn485 2.119 . S
N501 C497 1.328 . S
N501 C500 1.334 . S
N502 C498 1.331 . S
N502 C499 1.329 . S
H503 C497 0.930 . S
C504 O484 1.257 . S
C504 O505 1.244 . S
O505 C504 1.244 . S
O506 C482 1.257 1_545 S
O506 Zn485 2.019 . S
H507 C500 0.930 . S
H508 C487 0.930 . S
H509 C499 0.930 . S
Zn510 N514 2.020 . S
Zn510 O518 2.019 . S
Zn510 N520 2.119 . S
Zn510 O528 1.975 . S
C511 N512 1.334 . S
C511 N515 1.336 . S
N512 C511 1.334 . S
N512 C513 1.334 . S
C513 N512 1.334 . S
C513 N514 1.336 . S
N514 Zn510 2.020 . S
N514 C513 1.336 . S
N514 N515 1.354 . S
N515 C511 1.336 . S
N515 N514 1.354 . S
N515 Zn519 2.020 . S
C516 O517 1.244 . S
C516 O540 1.257 . S
O517 C516 1.244 . S
O518 Zn510 2.019 . S
O518 C538 1.257 1_455 S
Zn519 N515 2.020 . S
Zn519 O526 1.975 . S
Zn519 N535 2.119 . S
Zn519 O540 2.019 . S
N520 Zn510 2.119 . S
N520 C522 1.334 . S
N520 C523 1.328 . S
C521 C522 1.391 . S
C521 N524 1.329 . S
C521 H542 0.930 . S
C522 N520 1.334 . S
C522 C521 1.391 . S
C522 H529 0.930 . S
C523 N520 1.328 . S
C523 C525 1.392 . S
C523 H530 0.930 . S
N524 C521 1.329 . S
N524 C525 1.331 . S
C525 C523 1.392 . S
C525 N524 1.331 . S
O526 Zn519 1.975 . S
O526 C527 1.252 . S
C527 O526 1.252 . S
C527 O528 1.252 . S
O528 Zn510 1.975 . S
O528 C527 1.252 . S
H529 C522 0.930 . S
H530 C523 0.930 . S
C531 C532 1.392 . S
C531 N535 1.328 . S
C531 H537 0.930 . S
C532 C531 1.392 . S
C532 N536 1.331 . S
C533 C534 1.391 1_655 S
C533 N536 1.329 1_655 S
C533 H543 0.930 . S
C534 C533 1.391 1_455 S
C534 N535 1.334 . S
C534 H541 0.930 . S
N535 Zn519 2.119 . S
N535 C531 1.328 . S
N535 C534 1.334 . S
N536 C532 1.331 . S
N536 C533 1.329 1_455 S
H537 C531 0.930 . S
C538 O518 1.257 1_655 S
C538 O539 1.244 . S
O539 C538 1.244 . S
O540 C516 1.257 . S
O540 Zn519 2.019 . S
H541 C534 0.930 . S
H542 C521 0.930 . S
H543 C533 0.930 . S
H544 C550 0.930 . S
H545 C553 0.930 . S
H546 C554 0.930 . S
H547 C555 0.930 . S
H548 C558 0.930 . S
H549 C559 0.930 . S
C550 H544 0.930 . S
C550 C551 1.355 . S
C550 C552 1.415 1_565 S
C551 C550 1.355 . S
C551 C553 1.419 . S
C552 C550 1.415 1_545 S
C552 C557 1.425 1_545 S
C552 C559 1.409 . S
C553 H545 0.930 . S
C553 C551 1.419 . S
C553 C554 1.362 . S
C554 H546 0.930 . S
C554 C553 1.362 . S
C554 C557 1.409 . S
C555 H547 0.930 . S
C555 C556 1.355 . S
C555 C557 1.415 1_545 S
C556 C555 1.355 . S
C556 C558 1.419 . S
C557 C552 1.425 1_565 S
C557 C554 1.409 . S
C557 C555 1.415 1_565 S
C558 H548 0.930 . S
C558 C556 1.419 . S
C558 C559 1.362 . S
C559 H549 0.930 . S
C559 C552 1.409 . S
C559 C558 1.362 . S
H560 C566 0.930 . S
H561 C569 0.930 . S
H562 C570 0.930 . S
H563 C571 0.930 . S
H564 C574 0.930 . S
H565 C575 0.930 . S
C566 H560 0.930 . S
C566 C567 1.355 . S
C566 C568 1.415 1_655 S
C567 C566 1.355 . S
C567 C569 1.419 . S
C568 C566 1.415 1_455 S
C568 C573 1.425 1_455 S
C568 C575 1.409 . S
C569 H561 0.930 . S
C569 C567 1.419 . S
C569 C570 1.362 . S
C570 H562 0.930 . S
C570 C569 1.362 . S
C570 C573 1.409 . S
C571 H563 0.930 . S
C571 C572 1.355 . S
C571 C573 1.415 1_455 S
C572 C571 1.355 . S
C572 C574 1.419 . S
C573 C568 1.425 1_655 S
C573 C570 1.409 . S
C573 C571 1.415 1_655 S
C574 H564 0.930 . S
C574 C572 1.419 . S
C574 C575 1.362 . S
C575 H565 0.930 . S
C575 C568 1.409 . S
C575 C574 1.362 . S
H576 C582 0.930 . S
H577 C585 0.930 . S
H578 C586 0.930 . S
H579 C587 0.930 . S
H580 C590 0.930 . S
H581 C591 0.930 . S
C582 H576 0.930 . S
C582 C583 1.355 . S
C582 C584 1.415 . S
C583 C582 1.355 . S
C583 C585 1.419 . S
C584 C582 1.415 . S
C584 C589 1.425 . S
C584 C591 1.409 . S
C585 H577 0.930 . S
C585 C583 1.419 . S
C585 C586 1.362 . S
C586 H578 0.930 . S
C586 C585 1.362 . S
C586 C589 1.409 . S
C587 H579 0.930 . S
C587 C588 1.355 . S
C587 C589 1.415 . S
C588 C587 1.355 . S
C588 C590 1.419 . S
C589 C584 1.425 . S
C589 C586 1.409 . S
C589 C587 1.415 . S
C590 H580 0.930 . S
C590 C588 1.419 . S
C590 C591 1.362 . S
C591 H581 0.930 . S
C591 C584 1.409 . S
C591 C590 1.362 . S
H592 C598 0.930 . S
H593 C601 0.930 . S
H594 C602 0.930 . S
H595 C603 0.930 . S
H596 C606 0.930 . S
H597 C607 0.930 . S
C598 H592 0.930 . S
C598 C599 1.355 . S
C598 C600 1.415 . S
C599 C598 1.355 . S
C599 C601 1.419 . S
C600 C598 1.415 . S
C600 C605 1.425 . S
C600 C607 1.409 . S
C601 H593 0.930 . S
C601 C599 1.419 . S
C601 C602 1.362 . S
C602 H594 0.930 . S
C602 C601 1.362 . S
C602 C605 1.409 . S
C603 H595 0.930 . S
C603 C604 1.355 . S
C603 C605 1.415 . S
C604 C603 1.355 . S
C604 C606 1.419 . S
C605 C600 1.425 . S
C605 C602 1.409 . S
C605 C603 1.415 . S
C606 H596 0.930 . S
C606 C604 1.419 . S
C606 C607 1.362 . S
C607 H597 0.930 . S
C607 C600 1.409 . S
C607 C606 1.362 . S
H608 C614 0.930 . S
H609 C617 0.930 . S
H610 C618 0.930 . S
H611 C619 0.930 . S
H612 C622 0.930 . S
H613 C623 0.930 . S
C614 H608 0.930 . S
C614 C615 1.355 . S
C614 C616 1.415 1_655 S
C615 C614 1.355 . S
C615 C617 1.419 . S
C616 C614 1.415 1_455 S
C616 C621 1.425 1_455 S
C616 C623 1.409 . S
C617 H609 0.930 . S
C617 C615 1.419 . S
C617 C618 1.362 . S
C618 H610 0.930 . S
C618 C617 1.362 . S
C618 C621 1.409 . S
C619 H611 0.930 . S
C619 C620 1.355 . S
C619 C621 1.415 1_455 S
C620 C619 1.355 . S
C620 C622 1.419 . S
C621 C616 1.425 1_655 S
C621 C618 1.409 . S
C621 C619 1.415 1_655 S
C622 H612 0.930 . S
C622 C620 1.419 . S
C622 C623 1.362 . S
C623 H613 0.930 . S
C623 C616 1.409 . S
C623 C622 1.362 . S
H624 C630 0.930 . S
H625 C633 0.930 . S
H626 C634 0.930 . S
H627 C635 0.930 . S
H628 C638 0.930 . S
H629 C639 0.930 . S
C630 H624 0.930 . S
C630 C631 1.355 . S
C630 C632 1.400 1_565 S
C631 C630 1.355 . S
C631 C633 1.419 . S
C632 C630 1.400 1_545 S
C632 C637 1.425 1_545 S
C632 C639 1.424 . S
C633 H625 0.930 . S
C633 C631 1.419 . S
C633 C634 1.362 . S
C634 H626 0.930 . S
C634 C633 1.362 . S
C634 C637 1.424 . S
C635 H627 0.930 . S
C635 C636 1.355 . S
C635 C637 1.400 1_545 S
C636 C635 1.355 . S
C636 C638 1.419 . S
C637 C632 1.425 1_565 S
C637 C634 1.424 . S
C637 C635 1.400 1_565 S
C638 H628 0.930 . S
C638 C636 1.419 . S
C638 C639 1.362 . S
C639 H629 0.930 . S
C639 C632 1.424 . S
C639 C638 1.362 . S
H640 C646 0.930 . S
H641 C649 0.930 1_545 S
H642 C650 0.930 . S
H643 C651 0.930 . S
H644 C654 0.930 1_565 S
H645 C655 0.930 . S
C646 H640 0.930 . S
C646 C647 1.355 . S
C646 C648 1.415 1_655 S
C647 C646 1.355 . S
C647 C649 1.419 . S
C648 C646 1.415 1_455 S
C648 C653 1.425 1_465 S
C648 C655 1.409 . S
C649 H641 0.930 1_565 S
C649 C647 1.419 . S
C649 C650 1.362 1_565 S
C650 H642 0.930 . S
C650 C649 1.362 1_545 S
C650 C653 1.409 . S
C651 H643 0.930 . S
C651 C652 1.355 . S
C651 C653 1.415 1_455 S
C652 C651 1.355 . S
C652 C654 1.419 . S
C653 C648 1.425 1_645 S
C653 C650 1.409 . S
C653 C651 1.415 1_655 S
C654 H644 0.930 1_545 S
C654 C652 1.419 . S
C654 C655 1.362 1_545 S
C655 H645 0.930 . S
C655 C648 1.409 . S
C655 C654 1.362 1_565 S
H656 C662 0.930 . S
H657 C665 0.930 . S
H658 C666 0.930 1_545 S
H659 C667 0.930 . S
H660 C670 0.930 . S
H661 C671 0.930 1_565 S
C662 H656 0.930 . S
C662 C663 1.355 . S
C662 C664 1.415 1_455 S
C663 C662 1.355 . S
C663 C665 1.419 . S
C664 C662 1.415 1_655 S
C664 C669 1.425 1_665 S
C664 C671 1.409 1_565 S
C665 H657 0.930 . S
C665 C663 1.419 . S
C665 C666 1.362 . S
C666 H658 0.930 1_565 S
C666 C665 1.362 . S
C666 C669 1.409 1_565 S
C667 H659 0.930 . S
C667 C668 1.355 . S
C667 C669 1.415 1_655 S
C668 C667 1.355 . S
C668 C670 1.419 . S
C669 C664 1.425 1_445 S
C669 C666 1.409 1_545 S
C669 C667 1.415 1_455 S
C670 H660 0.930 . S
C670 C668 1.419 . S
C670 C671 1.362 . S
C671 H661 0.930 1_545 S
C671 C664 1.409 1_545 S
C671 C670 1.362 . S
H672 C678 0.930 . S
H673 C681 0.930 . S
H674 C682 0.930 . S
H675 C683 0.930 . S
H676 C686 0.930 . S
H677 C687 0.930 . S
C678 H672 0.930 . S
C678 C679 1.355 . S
C678 C680 1.415 . S
C679 C678 1.355 . S
C679 C681 1.419 . S
C680 C678 1.415 . S
C680 C685 1.425 . S
C680 C687 1.409 . S
C681 H673 0.930 . S
C681 C679 1.419 . S
C681 C682 1.362 . S
C682 H674 0.930 . S
C682 C681 1.362 . S
C682 C685 1.409 . S
C683 H675 0.930 . S
C683 C684 1.355 . S
C683 C685 1.415 . S
C684 C683 1.355 . S
C684 C686 1.419 . S
C685 C680 1.425 . S
C685 C682 1.409 . S
C685 C683 1.415 . S
C686 H676 0.930 . S
C686 C684 1.419 . S
C686 C687 1.362 . S
C687 H677 0.930 . S
C687 C680 1.409 . S
C687 C686 1.362 . S
H688 C694 0.930 . S
H689 C697 0.930 . S
H690 C698 0.930 . S
H691 C699 0.930 . S
H692 C702 0.930 . S
H693 C703 0.930 . S
C694 H688 0.930 . S
C694 C695 1.355 . S
C694 C696 1.415 . S
C695 C694 1.355 . S
C695 C697 1.419 . S
C696 C694 1.415 . S
C696 C701 1.425 . S
C696 C703 1.409 . S
C697 H689 0.930 . S
C697 C695 1.419 . S
C697 C698 1.362 . S
C698 H690 0.930 . S
C698 C697 1.362 . S
C698 C701 1.409 . S
C699 H691 0.930 . S
C699 C700 1.355 . S
C699 C701 1.415 . S
C700 C699 1.355 . S
C700 C702 1.419 . S
C701 C696 1.425 . S
C701 C698 1.409 . S
C701 C699 1.415 . S
C702 H692 0.930 . S
C702 C700 1.419 . S
C702 C703 1.362 . S
C703 H693 0.930 . S
C703 C696 1.409 . S
C703 C702 1.362 . S
H704 C710 0.930 . S
H705 C713 0.930 . S
H706 C714 0.930 . S
H707 C715 0.930 . S
H708 C718 0.930 . S
H709 C719 0.930 . S
C710 H704 0.930 . S
C710 C711 1.355 . S
C710 C712 1.415 . S
C711 C710 1.355 . S
C711 C713 1.419 . S
C712 C710 1.415 . S
C712 C717 1.425 . S
C712 C719 1.409 . S
C713 H705 0.930 . S
C713 C711 1.419 . S
C713 C714 1.362 . S
C714 H706 0.930 . S
C714 C713 1.362 . S
C714 C717 1.409 . S
C715 H707 0.930 . S
C715 C716 1.355 . S
C715 C717 1.415 . S
C716 C715 1.355 . S
C716 C718 1.419 . S
C717 C712 1.425 . S
C717 C714 1.409 . S
C717 C715 1.415 . S
C718 H708 0.930 . S
C718 C716 1.419 . S
C718 C719 1.362 . S
C719 H709 0.930 . S
C719 C712 1.409 . S
C719 C718 1.362 . S
H720 C726 0.930 . S
H721 C729 0.930 . S
H722 C730 0.930 . S
H723 C731 0.930 . S
H724 C734 0.930 . S
H725 C735 0.930 . S
C726 H720 0.930 . S
C726 C727 1.355 . S
C726 C728 1.415 . S
C727 C726 1.355 . S
C727 C729 1.419 . S
C728 C726 1.415 . S
C728 C733 1.425 . S
C728 C735 1.409 . S
C729 H721 0.930 . S
C729 C727 1.419 . S
C729 C730 1.362 . S
C730 H722 0.930 . S
C730 C729 1.362 . S
C730 C733 1.409 . S
C731 H723 0.930 . S
C731 C732 1.355 . S
C731 C733 1.415 . S
C732 C731 1.355 . S
C732 C734 1.419 . S
C733 C728 1.425 . S
C733 C730 1.409 . S
C733 C731 1.415 . S
C734 H724 0.930 . S
C734 C732 1.419 . S
C734 C735 1.362 . S
C735 H725 0.930 . S
C735 C728 1.409 . S
C735 C734 1.362 . S
H736 C742 0.930 . S
H737 C745 0.930 . S
H738 C746 0.930 . S
H739 C747 0.930 . S
H740 C750 0.930 . S
H741 C751 0.930 . S
C742 H736 0.930 . S
C742 C743 1.355 . S
C742 C744 1.415 . S
C743 C742 1.355 . S
C743 C745 1.419 . S
C744 C742 1.415 . S
C744 C749 1.425 . S
C744 C751 1.409 . S
C745 H737 0.930 . S
C745 C743 1.419 . S
C745 C746 1.362 . S
C746 H738 0.930 . S
C746 C745 1.362 . S
C746 C749 1.409 . S
C747 H739 0.930 . S
C747 C748 1.355 . S
C747 C749 1.415 . S
C748 C747 1.355 . S
C748 C750 1.419 . S
C749 C744 1.425 . S
C749 C746 1.409 . S
C749 C747 1.415 . S
C750 H740 0.930 . S
C750 C748 1.419 . S
C750 C751 1.362 . S
C751 H741 0.930 . S
C751 C744 1.409 . S
C751 C750 1.362 . S
H752 C758 0.930 . S
H753 C761 0.930 . S
H754 C762 0.930 . S
H755 C763 0.930 . S
H756 C766 0.930 . S
H757 C767 0.930 . S
C758 H752 0.930 . S
C758 C759 1.355 . S
C758 C760 1.415 . S
C759 C758 1.355 . S
C759 C761 1.419 . S
C760 C758 1.415 . S
C760 C765 1.425 . S
C760 C767 1.409 . S
C761 H753 0.930 . S
C761 C759 1.419 . S
C761 C762 1.362 . S
C762 H754 0.930 . S
C762 C761 1.362 . S
C762 C765 1.409 . S
C763 H755 0.930 . S
C763 C764 1.355 . S
C763 C765 1.415 . S
C764 C763 1.355 . S
C764 C766 1.419 . S
C765 C760 1.425 . S
C765 C762 1.409 . S
C765 C763 1.415 . S
C766 H756 0.930 . S
C766 C764 1.419 . S
C766 C767 1.362 . S
C767 H757 0.930 . S
C767 C760 1.409 . S
C767 C766 1.362 . S
H768 C774 0.930 . S
H769 C777 0.930 . S
H770 C778 0.930 . S
H771 C779 0.930 . S
H772 C782 0.930 . S
H773 C783 0.930 . S
C774 H768 0.930 . S
C774 C775 1.355 . S
C774 C776 1.415 . S
C775 C774 1.355 . S
C775 C777 1.419 . S
C776 C774 1.415 . S
C776 C781 1.425 . S
C776 C783 1.409 . S
C777 H769 0.930 . S
C777 C775 1.419 . S
C777 C778 1.362 . S
C778 H770 0.930 . S
C778 C777 1.362 . S
C778 C781 1.409 . S
C779 H771 0.930 . S
C779 C780 1.355 . S
C779 C781 1.415 . S
C780 C779 1.355 . S
C780 C782 1.419 . S
C781 C776 1.425 . S
C781 C778 1.409 . S
C781 C779 1.415 . S
C782 H772 0.930 . S
C782 C780 1.419 . S
C782 C783 1.362 . S
C783 H773 0.930 . S
C783 C776 1.409 . S
C783 C782 1.362 . S
H784 C790 0.930 . S
H785 C793 0.930 . S
H786 C794 0.930 . S
H787 C795 0.930 . S
H788 C798 0.930 . S
H789 C799 0.930 . S
C790 H784 0.930 . S
C790 C791 1.355 . S
C790 C792 1.415 . S
C791 C790 1.355 . S
C791 C793 1.419 . S
C792 C790 1.415 . S
C792 C797 1.425 . S
C792 C799 1.409 . S
C793 H785 0.930 . S
C793 C791 1.419 . S
C793 C794 1.362 . S
C794 H786 0.930 . S
C794 C793 1.362 . S
C794 C797 1.409 . S
C795 H787 0.930 . S
C795 C796 1.355 . S
C795 C797 1.415 . S
C796 C795 1.355 . S
C796 C798 1.419 . S
C797 C792 1.425 . S
C797 C794 1.409 . S
C797 C795 1.415 . S
C798 H788 0.930 . S
C798 C796 1.419 . S
C798 C799 1.362 . S
C799 H789 0.930 . S
C799 C792 1.409 . S
C799 C798 1.362 . S
H800 C806 0.930 . S
H801 C809 0.930 . S
H802 C810 0.930 . S
H803 C811 0.930 . S
H804 C814 0.930 . S
H805 C815 0.930 . S
C806 H800 0.930 . S
C806 C807 1.355 1_565 S
C806 C808 1.415 . S
C807 C806 1.355 1_545 S
C807 C809 1.419 . S
C808 C806 1.415 . S
C808 C813 1.425 . S
C808 C815 1.409 . S
C809 H801 0.930 . S
C809 C807 1.419 . S
C809 C810 1.362 1_545 S
C810 H802 0.930 . S
C810 C809 1.362 1_565 S
C810 C813 1.409 . S
C811 H803 0.930 . S
C811 C812 1.355 . S
C811 C813 1.415 . S
C812 C811 1.355 . S
C812 C814 1.419 . S
C813 C808 1.425 . S
C813 C810 1.409 . S
C813 C811 1.415 . S
C814 H804 0.930 . S
C814 C812 1.419 . S
C814 C815 1.362 . S
C815 H805 0.930 . S
C815 C808 1.409 . S
C815 C814 1.362 . S
H816 C822 0.930 1_455 S
H817 C825 0.930 . S
H818 C826 0.930 . S
H819 C827 0.930 . S
H820 C830 0.930 . S
H821 C831 0.930 . S
C822 H816 0.930 1_655 S
C822 C823 1.355 1_655 S
C822 C824 1.415 . S
C823 C822 1.355 1_455 S
C823 C825 1.419 1_455 S
C824 C822 1.415 . S
C824 C829 1.425 . S
C824 C831 1.409 . S
C825 H817 0.930 . S
C825 C823 1.419 1_655 S
C825 C826 1.362 . S
C826 H818 0.930 . S
C826 C825 1.362 . S
C826 C829 1.409 . S
C827 H819 0.930 . S
C827 C828 1.355 . S
C827 C829 1.415 . S
C828 C827 1.355 . S
C828 C830 1.419 . S
C829 C824 1.425 . S
C829 C826 1.409 . S
C829 C827 1.415 . S
C830 H820 0.930 . S
C830 C828 1.419 . S
C830 C831 1.362 . S
C831 H821 0.930 . S
C831 C824 1.409 . S
C831 C830 1.362 . S
H832 C838 0.930 . S
H833 C841 0.930 . S
H834 C842 0.930 . S
H835 C843 0.930 . S
H836 C846 0.930 . S
H837 C847 0.930 . S
C838 H832 0.930 . S
C838 C839 1.355 . S
C838 C840 1.415 . S
C839 C838 1.355 . S
C839 C841 1.419 . S
C840 C838 1.415 . S
C840 C845 1.425 . S
C840 C847 1.409 . S
C841 H833 0.930 . S
C841 C839 1.419 . S
C841 C842 1.362 . S
C842 H834 0.930 . S
C842 C841 1.362 . S
C842 C845 1.409 . S
C843 H835 0.930 . S
C843 C844 1.355 . S
C843 C845 1.415 1_565 S
C844 C843 1.355 . S
C844 C846 1.419 1_565 S
C845 C840 1.425 . S
C845 C842 1.409 . S
C845 C843 1.415 1_545 S
C846 H836 0.930 . S
C846 C844 1.419 1_545 S
C846 C847 1.362 . S
C847 H837 0.930 . S
C847 C840 1.409 . S
C847 C846 1.362 . S
H848 C854 0.930 . S
H849 C857 0.930 . S
H850 C858 0.930 . S
H851 C859 0.930 . S
H852 C862 0.930 . S
H853 C863 0.930 1_655 S
C854 H848 0.930 . S
C854 C855 1.355 . S
C854 C856 1.415 . S
C855 C854 1.355 . S
C855 C857 1.419 . S
C856 C854 1.415 . S
C856 C861 1.425 . S
C856 C863 1.409 . S
C857 H849 0.930 . S
C857 C855 1.419 . S
C857 C858 1.362 . S
C858 H850 0.930 . S
C858 C857 1.362 . S
C858 C861 1.409 . S
C859 H851 0.930 . S
C859 C860 1.355 1_455 S
C859 C861 1.415 . S
C860 C859 1.355 1_655 S
C860 C862 1.419 . S
C861 C856 1.425 . S
C861 C858 1.409 . S
C861 C859 1.415 . S
C862 H852 0.930 . S
C862 C860 1.419 . S
C862 C863 1.362 1_655 S
C863 H853 0.930 1_455 S
C863 C856 1.409 . S
C863 C862 1.362 1_455 S
H864 C870 0.930 . S
H865 C873 0.954 . S
H866 C874 0.940 . S
H867 C875 0.930 . S
H868 C878 0.930 . S
H869 C879 0.930 . S
C870 H864 0.930 . S
C870 C871 1.355 . S
C870 C872 1.415 . S
C871 C870 1.355 . S
C871 C873 1.406 1_554 S
C872 C870 1.415 . S
C872 C877 1.425 . S
C872 C879 1.409 . S
C873 H865 0.954 . S
C873 C871 1.406 1_556 S
C873 C874 1.352 1_556 S
C874 H866 0.940 . S
C874 C873 1.352 1_554 S
C874 C877 1.409 . S
C875 H867 0.930 . S
C875 C876 1.355 . S
C875 C877 1.415 . S
C876 C875 1.355 . S
C876 C878 1.419 . S
C877 C872 1.425 . S
C877 C874 1.409 . S
C877 C875 1.415 . S
C878 H868 0.930 . S
C878 C876 1.419 . S
C878 C879 1.362 . S
C879 H869 0.930 . S
C879 C872 1.409 . S
C879 C878 1.362 . S
H880 C886 0.930 . S
H881 C889 0.930 . S
H882 C890 0.930 1_554 S
H883 C891 0.930 . S
H884 C894 0.930 . S
H885 C895 0.930 . S
C886 H880 0.930 . S
C886 C887 1.355 . S
C886 C888 1.415 . S
C887 C886 1.355 . S
C887 C889 1.419 1_556 S
C888 C886 1.415 . S
C888 C893 1.425 . S
C888 C895 1.409 . S
C889 H881 0.930 . S
C889 C887 1.419 1_554 S
C889 C890 1.362 1_554 S
C890 H882 0.930 1_556 S
C890 C889 1.362 1_556 S
C890 C893 1.409 . S
C891 H883 0.930 . S
C891 C892 1.355 . S
C891 C893 1.415 . S
C892 C891 1.355 . S
C892 C894 1.419 . S
C893 C888 1.425 . S
C893 C890 1.409 . S
C893 C891 1.415 . S
C894 H884 0.930 . S
C894 C892 1.419 . S
C894 C895 1.362 . S
C895 H885 0.930 . S
C895 C888 1.409 . S
C895 C894 1.362 . S
H896 C902 0.930 . S
H897 C905 0.930 . S
H898 C906 0.930 . S
H899 C907 0.930 . S
H900 C910 0.930 . S
H901 C911 0.930 . S
C902 H896 0.930 . S
C902 C903 1.355 . S
C902 C904 1.415 . S
C903 C902 1.355 . S
C903 C905 1.419 . S
C904 C902 1.415 . S
C904 C909 1.425 . S
C904 C911 1.409 . S
C905 H897 0.930 . S
C905 C903 1.419 . S
C905 C906 1.362 . S
C906 H898 0.930 . S
C906 C905 1.362 . S
C906 C909 1.409 . S
C907 H899 0.930 . S
C907 C908 1.355 . S
C907 C909 1.415 . S
C908 C907 1.355 . S
C908 C910 1.419 . S
C909 C904 1.425 . S
C909 C906 1.409 . S
C909 C907 1.415 . S
C910 H900 0.930 . S
C910 C908 1.419 . S
C910 C911 1.362 . S
C911 H901 0.930 . S
C911 C904 1.409 . S
C911 C910 1.362 . S
H912 C918 0.930 . S
H913 C921 0.930 . S
H914 C922 0.930 . S
H915 C923 0.930 . S
H916 C926 0.930 . S
H917 C927 0.930 . S
C918 H912 0.930 . S
C918 C919 1.355 . S
C918 C920 1.415 . S
C919 C918 1.355 . S
C919 C921 1.419 . S
C920 C918 1.415 . S
C920 C925 1.425 . S
C920 C927 1.409 . S
C921 H913 0.930 . S
C921 C919 1.419 . S
C921 C922 1.362 . S
C922 H914 0.930 . S
C922 C921 1.362 . S
C922 C925 1.409 . S
C923 H915 0.930 . S
C923 C924 1.355 . S
C923 C925 1.415 . S
C924 C923 1.355 . S
C924 C926 1.419 . S
C925 C920 1.425 . S
C925 C922 1.409 . S
C925 C923 1.415 . S
C926 H916 0.930 . S
C926 C924 1.419 . S
C926 C927 1.362 . S
C927 H917 0.930 . S
C927 C920 1.409 . S
C927 C926 1.362 . S
H928 C934 0.930 . S
H929 C937 0.930 . S
H930 C938 0.930 . S
H931 C939 0.930 . S
H932 C942 0.930 . S
H933 C943 0.930 . S
C934 H928 0.930 . S
C934 C935 1.355 . S
C934 C936 1.415 . S
C935 C934 1.355 . S
C935 C937 1.419 . S
C936 C934 1.415 . S
C936 C941 1.425 . S
C936 C943 1.409 . S
C937 H929 0.930 . S
C937 C935 1.419 . S
C937 C938 1.362 . S
C938 H930 0.930 . S
C938 C937 1.362 . S
C938 C941 1.409 . S
C939 H931 0.930 . S
C939 C940 1.355 . S
C939 C941 1.415 . S
C940 C939 1.355 . S
C940 C942 1.419 . S
C941 C936 1.425 . S
C941 C938 1.409 . S
C941 C939 1.415 . S
C942 H932 0.930 . S
C942 C940 1.419 . S
C942 C943 1.362 . S
C943 H933 0.930 . S
C943 C936 1.409 . S
C943 C942 1.362 . S
H944 C950 0.930 . S
H945 C953 0.930 . S
H946 C954 0.930 . S
H947 C955 0.930 . S
H948 C958 0.930 . S
H949 C959 0.930 . S
C950 H944 0.930 . S
C950 C951 1.355 . S
C950 C952 1.415 . S
C951 C950 1.355 . S
C951 C953 1.419 . S
C952 C950 1.415 . S
C952 C957 1.425 . S
C952 C959 1.409 . S
C953 H945 0.930 . S
C953 C951 1.419 . S
C953 C954 1.362 . S
C954 H946 0.930 . S
C954 C953 1.362 . S
C954 C957 1.409 . S
C955 H947 0.930 . S
C955 C956 1.355 . S
C955 C957 1.415 . S
C956 C955 1.355 . S
C956 C958 1.419 . S
C957 C952 1.425 . S
C957 C954 1.409 . S
C957 C955 1.415 . S
C958 H948 0.930 . S
C958 C956 1.419 . S
C958 C959 1.362 . S
C959 H949 0.930 . S
C959 C952 1.409 . S
C959 C958 1.362 . S
H960 C966 0.930 . S
H961 C969 0.930 . S
H962 C970 0.930 . S
H963 C971 0.930 . S
H964 C974 0.930 . S
H965 C975 0.930 . S
C966 H960 0.930 . S
C966 C967 1.355 . S
C966 C968 1.415 . S
C967 C966 1.355 . S
C967 C969 1.419 . S
C968 C966 1.415 . S
C968 C973 1.425 . S
C968 C975 1.409 . S
C969 H961 0.930 . S
C969 C967 1.419 . S
C969 C970 1.362 . S
C970 H962 0.930 . S
C970 C969 1.362 . S
C970 C973 1.409 . S
C971 H963 0.930 . S
C971 C972 1.355 . S
C971 C973 1.415 . S
C972 C971 1.355 . S
C972 C974 1.419 . S
C973 C968 1.425 . S
C973 C970 1.409 . S
C973 C971 1.415 . S
C974 H964 0.930 . S
C974 C972 1.419 . S
C974 C975 1.362 . S
C975 H965 0.930 . S
C975 C968 1.409 . S
C975 C974 1.362 . S
H976 C982 0.930 . S
H977 C985 0.930 . S
H978 C986 0.930 . S
H979 C987 0.930 . S
H980 C990 0.930 . S
H981 C991 0.930 . S
C982 H976 0.930 . S
C982 C983 1.355 . S
C982 C984 1.415 . S
C983 C982 1.355 . S
C983 C985 1.419 . S
C984 C982 1.415 . S
C984 C989 1.425 . S
C984 C991 1.409 . S
C985 H977 0.930 . S
C985 C983 1.419 . S
C985 C986 1.362 . S
C986 H978 0.930 . S
C986 C985 1.362 . S
C986 C989 1.409 . S
C987 H979 0.930 . S
C987 C988 1.355 . S
C987 C989 1.415 . S
C988 C987 1.355 . S
C988 C990 1.419 . S
C989 C984 1.425 . S
C989 C986 1.409 . S
C989 C987 1.415 . S
C990 H980 0.930 . S
C990 C988 1.419 . S
C990 C991 1.362 . S
C991 H981 0.930 . S
C991 C984 1.409 . S
C991 C990 1.362 . S
H992 C998 0.930 . S
H993 C1001 0.930 . S
H994 C1002 0.930 1_565 S
H995 C1003 0.930 . S
H996 C1006 0.930 . S
H997 C1007 0.930 . S
C998 H992 0.930 . S
C998 C999 1.355 1_545 S
C998 C1000 1.415 . S
C999 C998 1.355 1_565 S
C999 C1001 1.419 . S
C1000 C998 1.415 . S
C1000 C1005 1.425 . S
C1000 C1007 1.409 . S
C1001 H993 0.930 . S
C1001 C999 1.419 . S
C1001 C1002 1.362 1_565 S
C1002 H994 0.930 1_545 S
C1002 C1001 1.362 1_545 S
C1002 C1005 1.409 . S
C1003 H995 0.930 . S
C1003 C1004 1.355 . S
C1003 C1005 1.415 . S
C1004 C1003 1.355 . S
C1004 C1006 1.419 . S
C1005 C1000 1.425 . S
C1005 C1002 1.409 . S
C1005 C1003 1.415 . S
C1006 H996 0.930 . S
C1006 C1004 1.419 . S
C1006 C1007 1.362 . S
C1007 H997 0.930 . S
C1007 C1000 1.409 . S
C1007 C1006 1.362 . S
H1008 C1014 0.930 . S
H1009 C1017 0.930 . S
H1010 C1018 0.930 . S
H1011 C1019 0.930 . S
H1012 C1022 0.930 . S
H1013 C1023 0.930 1_655 S
C1014 H1008 0.930 . S
C1014 C1015 1.355 . S
C1014 C1016 1.415 . S
C1015 C1014 1.355 . S
C1015 C1017 1.419 . S
C1016 C1014 1.415 . S
C1016 C1021 1.425 . S
C1016 C1023 1.409 . S
C1017 H1009 0.930 . S
C1017 C1015 1.419 . S
C1017 C1018 1.362 . S
C1018 H1010 0.930 . S
C1018 C1017 1.362 . S
C1018 C1021 1.409 . S
C1019 H1011 0.930 . S
C1019 C1020 1.355 1_455 S
C1019 C1021 1.415 . S
C1020 C1019 1.355 1_655 S
C1020 C1022 1.419 . S
C1021 C1016 1.425 . S
C1021 C1018 1.409 . S
C1021 C1019 1.415 . S
C1022 H1012 0.930 . S
C1022 C1020 1.419 . S
C1022 C1023 1.362 1_655 S
C1023 H1013 0.930 1_455 S
C1023 C1016 1.409 . S
C1023 C1022 1.362 1_455 S
H1024 C1030 0.930 . S
H1025 C1033 0.930 . S
H1026 C1034 0.930 1_545 S
H1027 C1035 0.930 . S
H1028 C1038 0.930 . S
H1029 C1039 0.930 . S
C1030 H1024 0.930 . S
C1030 C1031 1.355 1_565 S
C1030 C1032 1.415 . S
C1031 C1030 1.355 1_545 S
C1031 C1033 1.419 . S
C1032 C1030 1.415 . S
C1032 C1037 1.425 . S
C1032 C1039 1.409 . S
C1033 H1025 0.930 . S
C1033 C1031 1.419 . S
C1033 C1034 1.362 1_545 S
C1034 H1026 0.930 1_565 S
C1034 C1033 1.362 1_565 S
C1034 C1037 1.409 . S
C1035 H1027 0.930 . S
C1035 C1036 1.355 . S
C1035 C1037 1.415 . S
C1036 C1035 1.355 . S
C1036 C1038 1.419 . S
C1037 C1032 1.425 . S
C1037 C1034 1.409 . S
C1037 C1035 1.415 . S
C1038 H1028 0.930 . S
C1038 C1036 1.419 . S
C1038 C1039 1.362 . S
C1039 H1029 0.930 . S
C1039 C1032 1.409 . S
C1039 C1038 1.362 . S
H1040 C1046 0.930 . S
H1041 C1049 0.930 . S
H1042 C1050 0.930 . S
H1043 C1051 0.930 . S
H1044 C1054 0.930 . S
H1045 C1055 0.930 . S
C1046 H1040 0.930 . S
C1046 C1047 1.355 1_655 S
C1046 C1048 1.415 . S
C1047 C1046 1.355 1_455 S
C1047 C1049 1.419 . S
C1048 C1046 1.415 . S
C1048 C1053 1.425 . S
C1048 C1055 1.409 . S
C1049 H1041 0.930 . S
C1049 C1047 1.419 . S
C1049 C1050 1.362 1_455 S
C1050 H1042 0.930 . S
C1050 C1049 1.362 1_655 S
C1050 C1053 1.409 . S
C1051 H1043 0.930 . S
C1051 C1052 1.355 . S
C1051 C1053 1.415 . S
C1052 C1051 1.355 . S
C1052 C1054 1.419 . S
C1053 C1048 1.425 . S
C1053 C1050 1.409 . S
C1053 C1051 1.415 . S
C1054 H1044 0.930 . S
C1054 C1052 1.419 . S
C1054 C1055 1.362 . S
C1055 H1045 0.930 . S
C1055 C1048 1.409 . S
C1055 C1054 1.362 . S
H1056 C1062 0.930 . S
H1057 C1065 0.930 . S
H1058 C1066 0.930 . S
H1059 C1067 0.930 . S
H1060 C1070 0.930 . S
H1061 C1071 0.930 . S
C1062 H1056 0.930 . S
C1062 C1063 1.355 . S
C1062 C1064 1.415 . S
C1063 C1062 1.355 . S
C1063 C1065 1.419 . S
C1064 C1062 1.415 . S
C1064 C1069 1.425 . S
C1064 C1071 1.409 . S
C1065 H1057 0.930 . S
C1065 C1063 1.419 . S
C1065 C1066 1.362 . S
C1066 H1058 0.930 . S
C1066 C1065 1.362 . S
C1066 C1069 1.409 . S
C1067 H1059 0.930 . S
C1067 C1068 1.355 . S
C1067 C1069 1.415 . S
C1068 C1067 1.355 . S
C1068 C1070 1.419 . S
C1069 C1064 1.425 . S
C1069 C1066 1.409 . S
C1069 C1067 1.415 . S
C1070 H1060 0.930 . S
C1070 C1068 1.419 . S
C1070 C1071 1.362 . S
C1071 H1061 0.930 . S
C1071 C1064 1.409 . S
C1071 C1070 1.362 . S
H1072 C1078 0.930 . S
H1073 C1081 0.930 . S
H1074 C1082 0.930 . S
H1075 C1083 0.930 . S
H1076 C1086 0.930 . S
H1077 C1087 0.930 . S
C1078 H1072 0.930 . S
C1078 C1079 1.355 . S
C1078 C1080 1.415 . S
C1079 C1078 1.355 . S
C1079 C1081 1.419 . S
C1080 C1078 1.415 . S
C1080 C1085 1.425 . S
C1080 C1087 1.409 . S
C1081 H1073 0.930 . S
C1081 C1079 1.419 . S
C1081 C1082 1.362 . S
C1082 H1074 0.930 . S
C1082 C1081 1.362 . S
C1082 C1085 1.409 . S
C1083 H1075 0.930 . S
C1083 C1084 1.355 . S
C1083 C1085 1.415 . S
C1084 C1083 1.355 . S
C1084 C1086 1.419 . S
C1085 C1080 1.425 . S
C1085 C1082 1.409 . S
C1085 C1083 1.415 . S
C1086 H1076 0.930 . S
C1086 C1084 1.419 . S
C1086 C1087 1.362 . S
C1087 H1077 0.930 . S
C1087 C1080 1.409 . S
C1087 C1086 1.362 . S
H1088 C1094 0.930 . S
H1089 C1097 0.930 . S
H1090 C1098 0.930 . S
H1091 C1099 0.930 . S
H1092 C1102 0.930 . S
H1093 C1103 0.930 . S
C1094 H1088 0.930 . S
C1094 C1095 1.355 . S
C1094 C1096 1.415 . S
C1095 C1094 1.355 . S
C1095 C1097 1.419 . S
C1096 C1094 1.415 . S
C1096 C1101 1.425 . S
C1096 C1103 1.409 . S
C1097 H1089 0.930 . S
C1097 C1095 1.419 . S
C1097 C1098 1.362 . S
C1098 H1090 0.930 . S
C1098 C1097 1.362 . S
C1098 C1101 1.409 . S
C1099 H1091 0.930 . S
C1099 C1100 1.355 . S
C1099 C1101 1.415 . S
C1100 C1099 1.355 . S
C1100 C1102 1.419 . S
C1101 C1096 1.425 . S
C1101 C1098 1.409 . S
C1101 C1099 1.415 . S
C1102 H1092 0.930 . S
C1102 C1100 1.419 . S
C1102 C1103 1.362 . S
C1103 H1093 0.930 . S
C1103 C1096 1.409 . S
C1103 C1102 1.362 . S
H1104 C1110 0.930 . S
H1105 C1113 0.930 . S
H1106 C1114 0.930 . S
H1107 C1115 0.930 . S
H1108 C1118 0.930 . S
H1109 C1119 0.930 . S
C1110 H1104 0.930 . S
C1110 C1111 1.355 . S
C1110 C1112 1.415 . S
C1111 C1110 1.355 . S
C1111 C1113 1.419 . S
C1112 C1110 1.415 . S
C1112 C1117 1.425 . S
C1112 C1119 1.409 . S
C1113 H1105 0.930 . S
C1113 C1111 1.419 . S
C1113 C1114 1.362 . S
C1114 H1106 0.930 . S
C1114 C1113 1.362 . S
C1114 C1117 1.409 . S
C1115 H1107 0.930 . S
C1115 C1116 1.355 . S
C1115 C1117 1.415 . S
C1116 C1115 1.355 . S
C1116 C1118 1.419 . S
C1117 C1112 1.425 . S
C1117 C1114 1.409 . S
C1117 C1115 1.415 . S
C1118 H1108 0.930 . S
C1118 C1116 1.419 . S
C1118 C1119 1.362 . S
C1119 H1109 0.930 . S
C1119 C1112 1.409 . S
C1119 C1118 1.362 . S
H1120 C1126 0.930 . S
H1121 C1129 0.930 . S
H1122 C1130 0.930 . S
H1123 C1131 0.930 . S
H1124 C1134 0.930 . S
H1125 C1135 0.930 . S
C1126 H1120 0.930 . S
C1126 C1127 1.355 . S
C1126 C1128 1.415 . S
C1127 C1126 1.355 . S
C1127 C1129 1.419 . S
C1128 C1126 1.415 . S
C1128 C1133 1.425 . S
C1128 C1135 1.409 . S
C1129 H1121 0.930 . S
C1129 C1127 1.419 . S
C1129 C1130 1.362 . S
C1130 H1122 0.930 . S
C1130 C1129 1.362 . S
C1130 C1133 1.409 . S
C1131 H1123 0.930 . S
C1131 C1132 1.355 . S
C1131 C1133 1.415 . S
C1132 C1131 1.355 . S
C1132 C1134 1.419 . S
C1133 C1128 1.425 . S
C1133 C1130 1.409 . S
C1133 C1131 1.415 . S
C1134 H1124 0.930 . S
C1134 C1132 1.419 . S
C1134 C1135 1.362 . S
C1135 H1125 0.930 . S
C1135 C1128 1.409 . S
C1135 C1134 1.362 . S
H1136 C1142 0.930 . S
H1137 C1145 0.930 . S
H1138 C1146 0.930 . S
H1139 C1147 0.930 . S
H1140 C1150 0.930 . S
H1141 C1151 0.930 . S
C1142 H1136 0.930 . S
C1142 C1143 1.355 . S
C1142 C1144 1.415 . S
C1143 C1142 1.355 . S
C1143 C1145 1.419 . S
C1144 C1142 1.415 . S
C1144 C1149 1.425 . S
C1144 C1151 1.409 . S
C1145 H1137 0.930 . S
C1145 C1143 1.419 . S
C1145 C1146 1.362 . S
C1146 H1138 0.930 . S
C1146 C1145 1.362 . S
C1146 C1149 1.409 . S
C1147 H1139 0.930 . S
C1147 C1148 1.355 . S
C1147 C1149 1.415 . S
C1148 C1147 1.355 . S
C1148 C1150 1.419 . S
C1149 C1144 1.425 . S
C1149 C1146 1.409 . S
C1149 C1147 1.415 . S
C1150 H1140 0.930 . S
C1150 C1148 1.419 . S
C1150 C1151 1.362 . S
C1151 H1141 0.930 . S
C1151 C1144 1.409 . S
C1151 C1150 1.362 . S
H1152 C1158 0.930 . S
H1153 C1161 0.930 . S
H1154 C1162 0.930 . S
H1155 C1163 0.930 . S
H1156 C1166 0.930 . S
H1157 C1167 0.930 . S
C1158 H1152 0.930 . S
C1158 C1159 1.355 . S
C1158 C1160 1.415 . S
C1159 C1158 1.355 . S
C1159 C1161 1.419 . S
C1160 C1158 1.415 . S
C1160 C1165 1.425 . S
C1160 C1167 1.409 . S
C1161 H1153 0.930 . S
C1161 C1159 1.419 . S
C1161 C1162 1.362 . S
C1162 H1154 0.930 . S
C1162 C1161 1.362 . S
C1162 C1165 1.409 . S
C1163 H1155 0.930 . S
C1163 C1164 1.355 . S
C1163 C1165 1.415 . S
C1164 C1163 1.355 . S
C1164 C1166 1.419 . S
C1165 C1160 1.425 . S
C1165 C1162 1.409 . S
C1165 C1163 1.415 . S
C1166 H1156 0.930 . S
C1166 C1164 1.419 . S
C1166 C1167 1.362 . S
C1167 H1157 0.930 . S
C1167 C1160 1.409 . S
C1167 C1166 1.362 . S
H1168 C1174 0.930 . S
H1169 C1177 0.930 . S
H1170 C1178 0.930 . S
H1171 C1179 0.930 . S
H1172 C1182 0.930 . S
H1173 C1183 0.930 . S
C1174 H1168 0.930 . S
C1174 C1175 1.355 . S
C1174 C1176 1.415 . S
C1175 C1174 1.355 . S
C1175 C1177 1.419 . S
C1176 C1174 1.415 . S
C1176 C1181 1.425 . S
C1176 C1183 1.409 . S
C1177 H1169 0.930 . S
C1177 C1175 1.419 . S
C1177 C1178 1.362 . S
C1178 H1170 0.930 . S
C1178 C1177 1.362 . S
C1178 C1181 1.409 . S
C1179 H1171 0.930 . S
C1179 C1180 1.355 . S
C1179 C1181 1.415 . S
C1180 C1179 1.355 . S
C1180 C1182 1.419 . S
C1181 C1176 1.425 . S
C1181 C1178 1.409 . S
C1181 C1179 1.415 . S
C1182 H1172 0.930 . S
C1182 C1180 1.419 . S
C1182 C1183 1.362 . S
C1183 H1173 0.930 . S
C1183 C1176 1.409 . S
C1183 C1182 1.362 . S
H1184 C1190 0.930 . S
H1185 C1193 0.930 1_554 S
H1186 C1194 0.930 . S
H1187 C1195 0.930 . S
H1188 C1198 0.930 1_545 S
H1189 C1199 0.930 . S
C1190 H1184 0.930 . S
C1190 C1191 1.355 . S
C1190 C1192 1.415 . S
C1191 C1190 1.355 . S
C1191 C1193 1.419 . S
C1192 C1190 1.415 . S
C1192 C1197 1.423 . S
C1192 C1199 1.409 . S
C1193 H1185 0.930 1_556 S
C1193 C1191 1.419 . S
C1193 C1194 1.362 1_556 S
C1194 H1186 0.930 . S
C1194 C1193 1.362 1_554 S
C1194 C1197 1.410 1_554 S
C1195 H1187 0.930 . S
C1195 C1196 1.355 . S
C1195 C1197 1.416 1_554 S
C1196 C1195 1.355 . S
C1196 C1198 1.419 1_554 S
C1197 C1192 1.423 . S
C1197 C1194 1.410 1_556 S
C1197 C1195 1.416 1_556 S
C1198 H1188 0.930 1_565 S
C1198 C1196 1.419 1_556 S
C1198 C1199 1.362 . S
C1199 H1189 0.930 . S
C1199 C1192 1.409 . S
C1199 C1198 1.362 . S
H1200 C1206 0.930 . S
H1201 C1209 0.930 . S
H1202 C1210 0.930 . S
H1203 C1211 0.930 1_556 S
H1204 C1214 0.930 . S
H1205 C1215 0.930 . S
C1206 H1200 0.930 . S
C1206 C1207 1.355 1_554 S
C1206 C1208 1.415 . S
C1207 C1206 1.355 1_556 S
C1207 C1209 1.419 . S
C1208 C1206 1.415 . S
C1208 C1213 1.425 . S
C1208 C1215 1.409 . S
C1209 H1201 0.930 . S
C1209 C1207 1.419 . S
C1209 C1210 1.362 . S
C1210 H1202 0.930 . S
C1210 C1209 1.362 . S
C1210 C1213 1.409 1_556 S
C1211 H1203 0.930 1_554 S
C1211 C1212 1.355 . S
C1211 C1213 1.415 . S
C1212 C1211 1.355 . S
C1212 C1214 1.419 . S
C1213 C1208 1.425 . S
C1213 C1210 1.409 1_554 S
C1213 C1211 1.415 . S
C1214 H1204 0.930 . S
C1214 C1212 1.419 . S
C1214 C1215 1.362 . S
C1215 H1205 0.930 . S
C1215 C1208 1.409 . S
C1215 C1214 1.362 . S
H1216 C1222 0.930 . S
H1217 C1225 0.930 . S
H1218 C1226 0.930 . S
H1219 C1227 0.930 . S
H1220 C1230 0.927 1_554 S
H1221 C1231 0.930 . S
C1222 H1216 0.930 . S
C1222 C1223 1.355 . S
C1222 C1224 1.415 . S
C1223 C1222 1.355 . S
C1223 C1225 1.419 1_554 S
C1224 C1222 1.415 . S
C1224 C1229 1.425 1_554 S
C1224 C1231 1.409 . S
C1225 H1217 0.930 . S
C1225 C1223 1.419 1_556 S
C1225 C1226 1.362 . S
C1226 H1218 0.930 . S
C1226 C1225 1.362 . S
C1226 C1229 1.409 . S
C1227 H1219 0.930 . S
C1227 C1228 1.355 . S
C1227 C1229 1.415 . S
C1228 C1227 1.355 . S
C1228 C1230 1.425 . S
C1229 C1224 1.425 1_556 S
C1229 C1226 1.409 . S
C1229 C1227 1.415 . S
C1230 H1220 0.927 1_556 S
C1230 C1228 1.425 . S
C1230 C1231 1.359 1_556 S
C1231 H1221 0.930 . S
C1231 C1224 1.409 . S
C1231 C1230 1.359 1_554 S
H1232 C1238 0.930 . S
H1233 C1241 0.930 1_655 S
H1234 C1242 0.930 . S
H1235 C1243 0.930 . S
H1236 C1246 0.930 . S
H1237 C1247 0.930 . S
C1238 H1232 0.930 . S
C1238 C1239 1.355 1_554 S
C1238 C1240 1.415 . S
C1239 C1238 1.355 1_556 S
C1239 C1241 1.419 . S
C1240 C1238 1.415 . S
C1240 C1245 1.425 . S
C1240 C1247 1.409 . S
C1241 H1233 0.930 1_455 S
C1241 C1239 1.419 . S
C1241 C1242 1.362 . S
C1242 H1234 0.930 . S
C1242 C1241 1.362 . S
C1242 C1245 1.409 1_556 S
C1243 H1235 0.930 . S
C1243 C1244 1.355 . S
C1243 C1245 1.415 . S
C1244 C1243 1.355 . S
C1244 C1246 1.419 . S
C1245 C1240 1.425 . S
C1245 C1242 1.409 1_554 S
C1245 C1243 1.415 . S
C1246 H1236 0.930 . S
C1246 C1244 1.419 . S
C1246 C1247 1.362 . S
C1247 H1237 0.930 . S
C1247 C1240 1.409 . S
C1247 C1246 1.362 . S
H1248 C1254 0.930 . S
H1249 C1257 0.930 . S
H1250 C1258 0.930 . S
H1251 C1259 0.930 . S
H1252 C1262 0.930 . S
H1253 C1263 0.930 . S
C1254 H1248 0.930 . S
C1254 C1255 1.355 . S
C1254 C1256 1.415 . S
C1255 C1254 1.355 . S
C1255 C1257 1.419 . S
C1256 C1254 1.415 . S
C1256 C1261 1.425 . S
C1256 C1263 1.409 . S
C1257 H1249 0.930 . S
C1257 C1255 1.419 . S
C1257 C1258 1.362 . S
C1258 H1250 0.930 . S
C1258 C1257 1.362 . S
C1258 C1261 1.409 . S
C1259 H1251 0.930 . S
C1259 C1260 1.355 . S
C1259 C1261 1.415 . S
C1260 C1259 1.355 . S
C1260 C1262 1.419 . S
C1261 C1256 1.425 . S
C1261 C1258 1.409 . S
C1261 C1259 1.415 . S
C1262 H1252 0.930 . S
C1262 C1260 1.419 . S
C1262 C1263 1.362 . S
C1263 H1253 0.930 . S
C1263 C1256 1.409 . S
C1263 C1262 1.362 . S
H1264 C1270 0.930 . S
H1265 C1273 0.930 . S
H1266 C1274 0.930 . S
H1267 C1275 0.930 . S
H1268 C1278 0.930 . S
H1269 C1279 0.930 . S
C1270 H1264 0.930 . S
C1270 C1271 1.355 . S
C1270 C1272 1.415 . S
C1271 C1270 1.355 . S
C1271 C1273 1.419 . S
C1272 C1270 1.415 . S
C1272 C1277 1.425 . S
C1272 C1279 1.409 . S
C1273 H1265 0.930 . S
C1273 C1271 1.419 . S
C1273 C1274 1.362 . S
C1274 H1266 0.930 . S
C1274 C1273 1.362 . S
C1274 C1277 1.409 . S
C1275 H1267 0.930 . S
C1275 C1276 1.355 . S
C1275 C1277 1.415 . S
C1276 C1275 1.355 . S
C1276 C1278 1.419 . S
C1277 C1272 1.425 . S
C1277 C1274 1.409 . S
C1277 C1275 1.415 . S
C1278 H1268 0.930 . S
C1278 C1276 1.419 . S
C1278 C1279 1.362 . S
C1279 H1269 0.930 . S
C1279 C1272 1.409 . S
C1279 C1278 1.362 . S
H1280 C1286 0.930 . S
H1281 C1289 0.930 . S
H1282 C1290 0.930 . S
H1283 C1291 0.930 . S
H1284 C1294 0.930 . S
H1285 C1295 0.930 . S
C1286 H1280 0.930 . S
C1286 C1287 1.355 . S
C1286 C1288 1.415 . S
C1287 C1286 1.355 . S
C1287 C1289 1.419 . S
C1288 C1286 1.415 . S
C1288 C1293 1.425 . S
C1288 C1295 1.409 . S
C1289 H1281 0.930 . S
C1289 C1287 1.419 . S
C1289 C1290 1.362 . S
C1290 H1282 0.930 . S
C1290 C1289 1.362 . S
C1290 C1293 1.409 . S
C1291 H1283 0.930 . S
C1291 C1292 1.355 . S
C1291 C1293 1.415 . S
C1292 C1291 1.355 . S
C1292 C1294 1.419 . S
C1293 C1288 1.425 . S
C1293 C1290 1.409 . S
C1293 C1291 1.415 . S
C1294 H1284 0.930 . S
C1294 C1292 1.419 . S
C1294 C1295 1.362 . S
C1295 H1285 0.930 . S
C1295 C1288 1.409 . S
C1295 C1294 1.362 . S
H1296 C1302 0.930 . S
H1297 C1305 0.930 . S
H1298 C1306 0.930 . S
H1299 C1307 0.930 . S
H1300 C1310 0.930 . S
H1301 C1311 0.930 . S
C1302 H1296 0.930 . S
C1302 C1303 1.355 . S
C1302 C1304 1.415 . S
C1303 C1302 1.355 . S
C1303 C1305 1.419 . S
C1304 C1302 1.415 . S
C1304 C1309 1.425 . S
C1304 C1311 1.409 . S
C1305 H1297 0.930 . S
C1305 C1303 1.419 . S
C1305 C1306 1.362 . S
C1306 H1298 0.930 . S
C1306 C1305 1.362 . S
C1306 C1309 1.409 . S
C1307 H1299 0.930 . S
C1307 C1308 1.355 . S
C1307 C1309 1.415 . S
C1308 C1307 1.355 . S
C1308 C1310 1.419 . S
C1309 C1304 1.425 . S
C1309 C1306 1.409 . S
C1309 C1307 1.415 . S
C1310 H1300 0.930 . S
C1310 C1308 1.419 . S
C1310 C1311 1.362 . S
C1311 H1301 0.930 . S
C1311 C1304 1.409 . S
C1311 C1310 1.362 . S
H1312 C1318 0.930 . S
H1313 C1321 0.930 . S
H1314 C1322 0.930 . S
H1315 C1323 0.930 . S
H1316 C1326 0.930 . S
H1317 C1327 0.930 . S
C1318 H1312 0.930 . S
C1318 C1319 1.355 . S
C1318 C1320 1.415 . S
C1319 C1318 1.355 . S
C1319 C1321 1.419 . S
C1320 C1318 1.415 . S
C1320 C1325 1.425 . S
C1320 C1327 1.409 . S
C1321 H1313 0.930 . S
C1321 C1319 1.419 . S
C1321 C1322 1.362 . S
C1322 H1314 0.930 . S
C1322 C1321 1.362 . S
C1322 C1325 1.409 . S
C1323 H1315 0.930 . S
C1323 C1324 1.355 . S
C1323 C1325 1.415 . S
C1324 C1323 1.355 . S
C1324 C1326 1.419 . S
C1325 C1320 1.425 . S
C1325 C1322 1.409 . S
C1325 C1323 1.415 . S
C1326 H1316 0.930 . S
C1326 C1324 1.419 . S
C1326 C1327 1.362 . S
C1327 H1317 0.930 . S
C1327 C1320 1.409 . S
C1327 C1326 1.362 . S
H1328 C1334 0.930 . S
H1329 C1337 0.930 . S
H1330 C1338 0.930 . S
H1331 C1339 0.930 . S
H1332 C1342 0.930 . S
H1333 C1343 0.930 . S
C1334 H1328 0.930 . S
C1334 C1335 1.355 . S
C1334 C1336 1.415 . S
C1335 C1334 1.355 . S
C1335 C1337 1.419 . S
C1336 C1334 1.415 . S
C1336 C1341 1.425 . S
C1336 C1343 1.409 . S
C1337 H1329 0.930 . S
C1337 C1335 1.419 . S
C1337 C1338 1.362 . S
C1338 H1330 0.930 . S
C1338 C1337 1.362 . S
C1338 C1341 1.409 . S
C1339 H1331 0.930 . S
C1339 C1340 1.355 . S
C1339 C1341 1.415 . S
C1340 C1339 1.355 . S
C1340 C1342 1.419 . S
C1341 C1336 1.425 . S
C1341 C1338 1.409 . S
C1341 C1339 1.415 . S
C1342 H1332 0.930 . S
C1342 C1340 1.419 . S
C1342 C1343 1.362 . S
C1343 H1333 0.930 . S
C1343 C1336 1.409 . S
C1343 C1342 1.362 . S
H1344 C1350 0.930 . S
H1345 C1353 0.930 . S
H1346 C1354 0.930 . S
H1347 C1355 0.930 . S
H1348 C1358 0.930 . S
H1349 C1359 0.930 . S
C1350 H1344 0.930 . S
C1350 C1351 1.355 . S
C1350 C1352 1.415 . S
C1351 C1350 1.355 . S
C1351 C1353 1.419 . S
C1352 C1350 1.415 . S
C1352 C1357 1.425 . S
C1352 C1359 1.409 . S
C1353 H1345 0.930 . S
C1353 C1351 1.419 . S
C1353 C1354 1.362 . S
C1354 H1346 0.930 . S
C1354 C1353 1.362 . S
C1354 C1357 1.409 . S
C1355 H1347 0.930 . S
C1355 C1356 1.355 . S
C1355 C1357 1.415 . S
C1356 C1355 1.355 . S
C1356 C1358 1.419 . S
C1357 C1352 1.425 . S
C1357 C1354 1.409 . S
C1357 C1355 1.415 . S
C1358 H1348 0.930 . S
C1358 C1356 1.419 . S
C1358 C1359 1.362 . S
C1359 H1349 0.930 . S
C1359 C1352 1.409 . S
C1359 C1358 1.362 . S
H1360 C1366 0.930 . S
H1361 C1369 0.930 . S
H1362 C1370 0.930 . S
H1363 C1371 0.930 . S
H1364 C1374 0.930 . S
H1365 C1375 0.930 . S
C1366 H1360 0.930 . S
C1366 C1367 1.355 . S
C1366 C1368 1.415 . S
C1367 C1366 1.355 . S
C1367 C1369 1.419 . S
C1368 C1366 1.415 . S
C1368 C1373 1.425 . S
C1368 C1375 1.409 . S
C1369 H1361 0.930 . S
C1369 C1367 1.419 . S
C1369 C1370 1.362 . S
C1370 H1362 0.930 . S
C1370 C1369 1.362 . S
C1370 C1373 1.409 . S
C1371 H1363 0.930 . S
C1371 C1372 1.355 . S
C1371 C1373 1.415 . S
C1372 C1371 1.355 . S
C1372 C1374 1.419 . S
C1373 C1368 1.425 . S
C1373 C1370 1.409 . S
C1373 C1371 1.415 . S
C1374 H1364 0.930 . S
C1374 C1372 1.419 . S
C1374 C1375 1.362 . S
C1375 H1365 0.930 . S
C1375 C1368 1.409 . S
C1375 C1374 1.362 . S
H1376 C1382 0.930 . S
H1377 C1385 0.930 1_565 S
H1378 C1386 0.930 . S
H1379 C1387 0.930 . S
H1380 C1390 0.930 . S
H1381 C1391 0.930 . S
C1382 H1376 0.930 . S
C1382 C1383 1.355 . S
C1382 C1384 1.415 . S
C1383 C1382 1.355 . S
C1383 C1385 1.419 . S
C1384 C1382 1.415 . S
C1384 C1389 1.425 . S
C1384 C1391 1.409 . S
C1385 H1377 0.930 1_545 S
C1385 C1383 1.419 . S
C1385 C1386 1.362 . S
C1386 H1378 0.930 . S
C1386 C1385 1.362 . S
C1386 C1389 1.409 . S
C1387 H1379 0.930 . S
C1387 C1388 1.355 . S
C1387 C1389 1.415 . S
C1388 C1387 1.355 . S
C1388 C1390 1.419 . S
C1389 C1384 1.425 . S
C1389 C1386 1.409 . S
C1389 C1387 1.415 . S
C1390 H1380 0.930 . S
C1390 C1388 1.419 . S
C1390 C1391 1.362 . S
C1391 H1381 0.930 . S
C1391 C1384 1.409 . S
C1391 C1390 1.362 . S
H1392 C1398 0.930 . S
H1393 C1401 0.930 . S
H1394 C1402 0.930 . S
H1395 C1403 0.930 . S
H1396 C1406 0.930 1_655 S
H1397 C1407 0.930 . S
C1398 H1392 0.930 . S
C1398 C1399 1.355 . S
C1398 C1400 1.415 . S
C1399 C1398 1.355 . S
C1399 C1401 1.419 . S
C1400 C1398 1.415 . S
C1400 C1405 1.425 . S
C1400 C1407 1.409 . S
C1401 H1393 0.930 . S
C1401 C1399 1.419 . S
C1401 C1402 1.362 . S
C1402 H1394 0.930 . S
C1402 C1401 1.362 . S
C1402 C1405 1.409 . S
C1403 H1395 0.930 . S
C1403 C1404 1.355 . S
C1403 C1405 1.415 . S
C1404 C1403 1.355 . S
C1404 C1406 1.419 . S
C1405 C1400 1.425 . S
C1405 C1402 1.409 . S
C1405 C1403 1.415 . S
C1406 H1396 0.930 1_455 S
C1406 C1404 1.419 . S
C1406 C1407 1.362 . S
C1407 H1397 0.930 . S
C1407 C1400 1.409 . S
C1407 C1406 1.362 . S
H1408 C1414 0.930 . S
H1409 C1417 0.930 . S
H1410 C1418 0.930 . S
H1411 C1419 0.930 . S
H1412 C1422 0.930 . S
H1413 C1423 0.930 . S
C1414 H1408 0.930 . S
C1414 C1415 1.355 . S
C1414 C1416 1.415 . S
C1415 C1414 1.355 . S
C1415 C1417 1.419 . S
C1416 C1414 1.415 . S
C1416 C1421 1.425 . S
C1416 C1423 1.409 . S
C1417 H1409 0.930 . S
C1417 C1415 1.419 . S
C1417 C1418 1.362 . S
C1418 H1410 0.930 . S
C1418 C1417 1.362 . S
C1418 C1421 1.409 . S
C1419 H1411 0.930 . S
C1419 C1420 1.355 . S
C1419 C1421 1.415 . S
C1420 C1419 1.355 . S
C1420 C1422 1.419 . S
C1421 C1416 1.425 . S
C1421 C1418 1.409 . S
C1421 C1419 1.415 . S
C1422 H1412 0.930 . S
C1422 C1420 1.419 . S
C1422 C1423 1.362 . S
C1423 H1413 0.930 . S
C1423 C1416 1.409 . S
C1423 C1422 1.362 . S
H1424 C1430 0.930 . S
H1425 C1433 0.930 . S
H1426 C1434 0.930 . S
H1427 C1435 0.930 . S
H1428 C1438 0.930 . S
H1429 C1439 0.930 . S
C1430 H1424 0.930 . S
C1430 C1431 1.355 . S
C1430 C1432 1.415 . S
C1431 C1430 1.355 . S
C1431 C1433 1.419 . S
C1432 C1430 1.415 . S
C1432 C1437 1.425 . S
C1432 C1439 1.409 . S
C1433 H1425 0.930 . S
C1433 C1431 1.419 . S
C1433 C1434 1.362 . S
C1434 H1426 0.930 . S
C1434 C1433 1.362 . S
C1434 C1437 1.409 . S
C1435 H1427 0.930 . S
C1435 C1436 1.355 . S
C1435 C1437 1.415 . S
C1436 C1435 1.355 . S
C1436 C1438 1.419 . S
C1437 C1432 1.425 . S
C1437 C1434 1.409 . S
C1437 C1435 1.415 . S
C1438 H1428 0.930 . S
C1438 C1436 1.419 . S
C1438 C1439 1.362 . S
C1439 H1429 0.930 . S
C1439 C1432 1.409 . S
C1439 C1438 1.362 . S
C551 C90 0.780 . S
C556 C15 0.824 . S
C567 C117 0.709 . S
C572 C49 0.812 . S
C583 C158 0.762 . S
C588 C219 0.640 . S
C599 C253 0.773 . S
C604 C185 0.825 . S
C615 C287 0.604 . S
C620 C362 0.684 . S
C631 C396 0.759 . S
C636 C321 0.637 . S
C647 C430 0.603 . S
C652 C491 0.679 . S
C663 C532 0.824 . S
C668 C457 0.746 . S
C679 C28 0.688 . S
C684 C142 0.644 . S
C695 C62 0.698 . S
C700 C198 0.644 . S
C711 C74 0.844 . S
C716 C232 0.772 . S
C727 C266 0.711 . S
C732 C130 0.806 . S
C743 C300 0.688 . S
C748 C414 0.644 . S
C759 C470 0.665 . S
C764 C334 0.651 . S
C775 C504 0.647 . S
C780 C346 0.716 . S
C791 C516 0.665 . S
C796 C380 0.756 . S
C807 C17 2.990 . S
C812 C511 2.945 . S
C823 C51 2.991 . S
C828 C409 2.936 . S
C839 C445 2.959 . S
C844 C85 2.975 . S
C855 C479 2.941 . S
C860 C119 2.993 . S
C871 C37 2.959 1_554 S
C876 C153 2.975 . S
C887 C69 2.960 1_556 S
C892 C187 2.977 . S
C903 C221 3.000 . S
C908 C105 2.933 1_554 S
C919 C3 2.941 1_556 S
C924 C255 2.994 . S
C935 C241 2.942 . S
C940 C289 2.986 . S
C951 C137 2.928 . S
C956 C323 3.003 . S
C967 C357 2.978 . S
C972 C173 2.958 . S
C983 C207 2.934 . S
C988 C391 2.999 . S
C999 C425 2.994 . S
C1004 C309 2.940 . S
C1015 C341 2.932 . S
C1020 C459 3.000 . S
C1031 C493 3.006 . S
C1036 C375 2.924 . S
C1047 C527 2.993 . S
C1052 C275 2.942 . S
C1063 C477 1.654 . S
C1068 C1 1.676 . S
C1079 C35 1.656 . S
C1084 C513 1.689 . S
C1095 C411 1.713 . S
C1100 C71 1.707 . S
C1111 C103 1.715 . S
C1116 C443 1.704 . S
C1127 C139 1.684 . S
C1132 C343 1.716 . S
C1143 C377 1.716 . S
C1148 C171 1.702 . S
C1159 C205 1.654 . S
C1164 C273 1.684 . S
C1175 C307 1.712 . S
C1180 C239 1.708 . S
C1191 C56 0.765 . S
C1196 C6 0.862 . S
C1207 C40 0.913 . S
C1212 C83 0.913 . S
C1223 C96 0.927 . S
C1228 C124 0.937 . S
C1239 C108 0.851 . S
C1244 C22 0.752 . S
C1255 C164 0.859 . S
C1260 C525 0.759 . S
C1271 C423 0.754 . S
C1276 C176 0.857 . S
C1287 C210 0.902 . S
C1292 C464 0.865 . S
C1303 C244 0.927 . S
C1308 C498 0.939 . S
C1319 C328 0.935 . S
C1324 C278 0.927 . S
C1335 C355 0.821 . S
C1340 C312 0.874 . S
C1351 C368 0.854 . S
C1356 C389 0.746 . S
C1367 C402 0.920 . S
C1372 C294 0.928 . S
C1383 C436 0.855 . S
C1388 C260 0.748 . S
C1399 C151 0.813 . S
C1404 C448 0.882 . S
C1415 C482 0.894 . S
C1420 C192 0.871 . S
C1431 C226 0.939 . S
C1436 C538 0.926 . S
