# Generated by pormake.
# Topology unh, (4)-cn, num edge types: 1
# Building blocks:
#     Node 0, Type 0, BuildingBlock: KOZSID_clean_sbu_0, # of connection points: 4
#     Node 1, Type 0, BuildingBlock: KOZSID_clean_sbu_0, # of connection points: 4
#     Node 2, Type 0, BuildingBlock: KOZSID_clean_sbu_0, # of connection points: 4
#     Node 3, Type 0, BuildingBlock: KOZSID_clean_sbu_0, # of connection points: 4
#     Node 4, Type 0, BuildingBlock: KOZSID_clean_sbu_0, # of connection points: 4
#     Node 5, Type 0, BuildingBlock: KOZSID_clean_sbu_0, # of connection points: 4
#     Edge 6, Type (0, 0), BuildingBlock: UVAHIK_clean_linker_0, # of connection points: 2
#     Edge 7, Type (0, 0), BuildingBlock: UVAHIK_clean_linker_0, # of connection points: 2
#     Edge 8, Type (0, 0), BuildingBlock: UVAHIK_clean_linker_0, # of connection points: 2
#     Edge 9, Type (0, 0), BuildingBlock: UVAHIK_clean_linker_0, # of connection points: 2
#     Edge 10, Type (0, 0), BuildingBlock: UVAHIK_clean_linker_0, # of connection points: 2
#     Edge 11, Type (0, 0), BuildingBlock: UVAHIK_clean_linker_0, # of connection points: 2
#     Edge 12, Type (0, 0), BuildingBlock: UVAHIK_clean_linker_0, # of connection points: 2
#     Edge 13, Type (0, 0), BuildingBlock: UVAHIK_clean_linker_0, # of connection points: 2
#     Edge 14, Type (0, 0), BuildingBlock: UVAHIK_clean_linker_0, # of connection points: 2
#     Edge 15, Type (0, 0), BuildingBlock: UVAHIK_clean_linker_0, # of connection points: 2
#     Edge 16, Type (0, 0), BuildingBlock: UVAHIK_clean_linker_0, # of connection points: 2
#     Edge 17, Type (0, 0), BuildingBlock: UVAHIK_clean_linker_0, # of connection points: 2
# Relax obj value: 0.012
# Max RMSD: 0.271
# Mean RMSD: 0.251
data_MOF--net-unh--node1-KOZSID_clean_sbu_0--edge1-UVAHIK_clean_linker_0
_symmetry_space_group_name_H-M    P1
_symmetry_Int_Tables_number       1
_symmetry_cell_setting            triclinic
loop_
_symmetry_equiv_pos_as_xyz
'x, y, z'
_cell_length_a     67.815474
_cell_length_b     73.115905
_cell_length_c     28.342464
_cell_angle_alpha  89.845875
_cell_angle_beta   90.10062
_cell_angle_gamma 120.14203
loop_
_atom_site_label
_atom_site_type_symbol
_atom_site_fract_x
_atom_site_fract_y
_atom_site_fract_z
_atom_type_partial_charge
C0 C 0.20484 0.60492 0.17683 0.0
C1 C 0.20902 0.61655 0.21794 0.0
C2 C 0.19074 0.61955 0.22418 0.0
C3 C 0.17648 0.60964 0.18662 0.0
N4 N 0.18469 0.60066 0.15722 0.0
Co5 Co 0.16982 0.58503 0.09838 0.0
N6 N 0.14928 0.59712 0.09538 0.0
C7 C 0.14481 0.6064 0.1316 0.0
C8 C 0.12924 0.61247 0.12024 0.0
C9 C 0.12323 0.6063 0.07431 0.0
C10 C 0.13544 0.5967 0.06014 0.0
N11 N 0.15532 0.56947 0.0392 0.0
C12 C 0.14152 0.57181 1.00807 0.0
C13 C 0.13477 0.55695 0.97207 0.0
C14 C 0.14431 0.54473 0.9815 0.0
C15 C 0.15635 0.55272 0.02246 0.0
N16 N 0.18985 0.57252 0.10194 0.0
C17 C 0.18652 0.55498 0.07959 0.0
C18 C 0.20321 0.5501 0.08891 0.0
C19 C 0.21798 0.56554 0.11906 0.0
C20 C 0.20939 0.57902 0.12638 0.0
N21 N 0.1466 0.56147 0.13633 0.0
C22 C 0.11295 0.5353 0.20165 0.0
C23 C 0.10696 0.53935 0.15705 0.0
C24 C 0.12398 0.55236 0.12497 0.0
C25 C 0.13616 0.54322 0.21112 0.0
C26 C 0.15264 0.55605 0.17791 0.0
N27 N 0.19315 0.60909 0.06198 0.0
C28 C 0.22601 0.62455 1.01062 0.0
C29 C 0.23122 0.64506 0.02366 0.0
C30 C 0.21599 0.64693 0.05386 0.0
C31 C 0.19741 0.62896 0.07281 0.0
C32 C 0.20679 0.60679 0.02984 0.0
H33 H 0.18705 0.63133 0.09787 0.0
H34 H 0.20347 0.59123 0.02015 0.0
H35 H 0.11871 0.55596 0.09207 0.0
H36 H 0.17035 0.5625 0.18707 0.0
C37 C 0.15752 0.61134 0.17352 0.0
C38 C 0.21952 0.59709 0.15864 0.0
C39 C 0.13171 0.58555 0.0149 0.0
C40 C 0.1704 0.54619 0.04359 0.0
H41 H 0.22369 0.62221 0.24093 0.0
H42 H 0.18859 0.62861 0.25178 0.0
H43 H 0.12324 0.62071 0.14239 0.0
H44 H 0.11089 0.60824 0.0539 0.0
H45 H 0.12344 0.55463 0.94289 0.0
H46 H 0.14274 0.53164 0.9608 0.0
H47 H 0.20506 0.53745 0.07381 0.0
H48 H 0.23332 0.56675 0.13379 0.0
H49 H 0.08929 0.53354 0.14788 0.0
H50 H 0.14162 0.54006 0.24456 0.0
H51 H 0.2371 0.62215 0.98719 0.0
H52 H 0.21858 0.66227 0.06385 0.0
C53 C 0.60967 0.18449 0.3575 0.0
C54 C 0.60007 0.19322 0.38646 0.0
C55 C 0.57882 0.187 0.36884 0.0
C56 C 0.57651 0.17469 0.33045 0.0
N57 N 0.59477 0.17233 0.32335 0.0
Co58 Co 0.59845 0.15648 0.27023 0.0
N59 N 0.56547 0.14245 0.25344 0.0
C60 C 0.55066 0.14848 0.26753 0.0
C61 C 0.52895 0.13552 0.25087 0.0
C62 C 0.53018 0.12041 0.22453 0.0
C63 C 0.55267 0.12506 0.22655 0.0
N64 N 0.60212 0.14093 0.21667 0.0
C65 C 0.58623 0.12388 0.19262 0.0
C66 C 0.59617 0.11815 0.15714 0.0
C67 C 0.61913 0.13207 0.15935 0.0
C68 C 0.62187 0.14547 0.19578 0.0
N69 N 0.63147 0.17017 0.28683 0.0
C70 C 0.6479 0.17057 0.25936 0.0
C71 C 0.66921 0.18141 0.27887 0.0
C72 C 0.66625 0.18877 0.32091 0.0
C73 C 0.64312 0.18201 0.32482 0.0
N74 N 0.59174 0.13289 0.31316 0.0
C75 C 0.58168 0.09988 0.37739 0.0
C76 C 0.59969 0.10656 0.34498 0.0
C77 C 0.60448 0.12313 0.31329 0.0
C78 C 0.56865 0.10985 0.37601 0.0
C79 C 0.5739 0.12615 0.34392 0.0
N80 N 0.60472 0.18026 0.22802 0.0
C81 C 0.62009 0.21782 0.22019 0.0
C82 C 0.60595 0.2148 0.18154 0.0
C83 C 0.59276 0.19422 0.16369 0.0
C84 C 0.59251 0.17716 0.18732 0.0
C85 C 0.61929 0.2005 0.24261 0.0
H86 H 0.58152 0.1614 0.17404 0.0
H87 H 0.62965 0.20366 0.27338 0.0
H88 H 0.61855 0.12813 0.28914 0.0
H89 H 0.5634 0.13329 0.34425 0.0
C90 C 0.55688 0.16383 0.30262 0.0
C91 C 0.63394 0.19066 0.35978 0.0
C92 C 0.56163 0.11337 0.20092 0.0
C93 C 0.64258 0.15958 0.2168 0.0
H94 H 0.60799 0.20371 0.41613 0.0
H95 H 0.56654 0.19098 0.3824 0.0
H96 H 0.51381 0.13637 0.25864 0.0
H97 H 0.51616 0.10744 0.20613 0.0
H98 H 0.58775 0.10522 0.13241 0.0
H99 H 0.63231 0.1318 0.13839 0.0
H100 H 0.68507 0.18387 0.26409 0.0
H101 H 0.67991 0.19887 0.34457 0.0
H102 H 0.61026 0.09935 0.34468 0.0
H103 H 0.55424 0.10499 0.39941 0.0
H104 H 0.6312 0.23349 0.23428 0.0
H105 H 0.58182 0.19115 0.13335 0.0
C106 C 0.43881 0.60448 0.32367 0.0
C107 C 0.44832 0.62224 0.29477 0.0
C108 C 0.46974 0.63562 0.31178 0.0
C109 C 0.47222 0.6253 0.34979 0.0
N110 N 0.45389 0.606 0.35728 0.0
Co111 Co 0.45035 0.58658 0.41029 0.0
N112 N 0.48345 0.60308 0.42628 0.0
C113 C 0.49828 0.62289 0.41192 0.0
C114 C 0.52003 0.63012 0.4283 0.0
C115 C 0.51881 0.61385 0.4548 0.0
C116 C 0.4963 0.5976 0.45312 0.0
N117 N 0.44684 0.5674 0.46359 0.0
C118 C 0.46278 0.56504 0.4873 0.0
C119 C 0.4529 0.54989 0.52263 0.0
C120 C 0.42996 0.5425 0.52081 0.0
C121 C 0.42715 0.55352 0.48471 0.0
N122 N 0.4172 0.56983 0.39465 0.0
C123 C 0.40084 0.55502 0.42251 0.0
C124 C 0.37939 0.54631 0.40374 0.0
C125 C 0.3822 0.55652 0.36177 0.0
C126 C 0.40536 0.57105 0.35719 0.0
N127 N 0.45658 0.56913 0.36697 0.0
C128 C 0.46747 0.54499 0.30665 0.0
C129 C 0.44845 0.5352 0.33663 0.0
C130 C 0.4434 0.54754 0.36674 0.0
C131 C 0.48058 0.56709 0.30705 0.0
C132 C 0.4748 0.57878 0.33702 0.0
N133 N 0.44458 0.60452 0.45316 0.0
C134 C 0.42921 0.62762 0.46407 0.0
C135 C 0.44275 0.63656 0.50415 0.0
C136 C 0.45613 0.62808 0.51999 0.0
C137 C 0.45659 0.61191 0.49432 0.0
C138 C 0.43032 0.6117 0.43941 0.0
H139 H 0.4674 0.60602 0.5068 0.0
H140 H 0.42034 0.60602 0.40788 0.0
H141 H 0.42898 0.53961 0.39012 0.0
H142 H 0.48534 0.5957 0.3361 0.0
C143 C 0.49198 0.63255 0.37709 0.0
C144 C 0.41454 0.5881 0.32175 0.0
C145 C 0.4874 0.57763 0.47922 0.0
C146 C 0.40636 0.54867 0.46453 0.0
H147 H 0.44026 0.62551 0.26553 0.0
H148 H 0.48202 0.65105 0.29809 0.0
H149 H 0.53516 0.64506 0.42036 0.0
H150 H 0.53286 0.61393 0.47315 0.0
H151 H 0.46138 0.54472 0.54715 0.0
H152 H 0.41683 0.52995 0.54195 0.0
H153 H 0.36357 0.53408 0.4189 0.0
H154 H 0.36847 0.55415 0.3385 0.0
H155 H 0.43788 0.51814 0.3376 0.0
H156 H 0.4952 0.57538 0.28402 0.0
H157 H 0.41864 0.6336 0.45018 0.0
H158 H 0.46651 0.63415 0.55143 0.0
C159 C 0.84659 0.43373 0.67576 0.0
C160 C 0.83531 0.41661 0.70615 0.0
C161 C 0.84255 0.4027 0.69539 0.0
C162 C 0.85777 0.412 0.65912 0.0
N163 N 0.86102 0.43116 0.64689 0.0
Co164 Co 0.87993 0.44861 0.59265 0.0
N165 N 0.89525 0.43154 0.58601 0.0
C166 C 0.88819 0.41237 0.60504 0.0
C167 C 0.90229 0.4045 0.59447 0.0
C168 C 0.91927 0.41967 0.56689 0.0
C169 C 0.91452 0.43595 0.56217 0.0
N170 N 0.89829 0.46565 0.53776 0.0
C171 C 0.91702 0.4669 0.51764 0.0
C172 C 0.92443 0.48074 0.47949 0.0
C173 C 0.90984 0.48845 0.47577 0.0
C174 C 0.89441 0.47893 0.51161 0.0
N175 N 0.86514 0.46614 0.59942 0.0
C176 C 0.86626 0.48058 0.56823 0.0
C177 C 0.85524 0.49093 0.583 0.0
C178 C 0.84611 0.48217 0.62581 0.0
C179 C 0.85184 0.4667 0.63444 0.0
N180 N 0.90427 0.46751 0.63625 0.0
C181 C 0.94033 0.49346 0.69755 0.0
C182 C 0.93408 0.50221 0.66023 0.0
C183 C 0.91594 0.489 0.63022 0.0
C184 C 0.928 0.47147 0.70338 0.0
C185 C 0.91024 0.45889 0.67255 0.0
N186 N 0.85553 0.42912 0.54964 0.0
C187 C 0.81531 0.40554 0.5368 0.0
C188 C 0.81995 0.39399 0.50386 0.0
C189 C 0.84273 0.40147 0.49132 0.0
C190 C 0.86022 0.41933 0.51386 0.0
C191 C 0.83326 0.42292 0.55929 0.0
H192 H 0.87759 0.42448 0.50402 0.0
H193 H 0.82892 0.43048 0.58638 0.0
H194 H 0.91151 0.49616 0.60197 0.0
H195 H 0.90158 0.44207 0.67789 0.0
C196 C 0.87037 0.40387 0.63778 0.0
C197 C 0.84076 0.4505 0.67124 0.0
C198 C 0.92769 0.45468 0.53239 0.0
C199 C 0.87922 0.48516 0.52723 0.0
H200 H 0.82254 0.41407 0.73224 0.0
H201 H 0.83722 0.38755 0.71188 0.0
H202 H 0.90084 0.38983 0.60662 0.0
H203 H 0.93342 0.41882 0.55175 0.0
H204 H 0.93897 0.48497 0.45694 0.0
H205 H 0.91106 0.5004 0.45137 0.0
H206 H 0.85397 0.50334 0.56485 0.0
H207 H 0.83545 0.48599 0.64717 0.0
H208 H 0.94299 0.51914 0.65446 0.0
H209 H 0.93237 0.46387 0.73104 0.0
H210 H 0.79795 0.4004 0.54737 0.0
H211 H 0.84702 0.39324 0.46521 0.0
C212 C 0.44289 0.85067 0.85682 0.0
C213 C 0.45273 0.84131 0.88318 0.0
C214 C 0.47401 0.84835 0.86487 0.0
C215 C 0.47602 0.86162 0.82858 0.0
N216 N 0.45754 0.86383 0.82339 0.0
Co217 Co 0.45309 0.88028 0.77232 0.0
N218 N 0.48595 0.89488 0.75416 0.0
C219 C 0.50115 0.88907 0.76687 0.0
C220 C 0.52263 0.9023 0.74944 0.0
C221 C 0.52084 0.91737 0.72396 0.0
C222 C 0.49827 0.91241 0.72718 0.0
N223 N 0.44856 0.89629 0.72063 0.0
C224 C 0.46404 0.91344 0.69604 0.0
C225 C 0.45347 0.91938 0.66221 0.0
C226 C 0.43057 0.90551 0.66599 0.0
C227 C 0.42845 0.89191 0.70163 0.0
N228 N 0.42022 0.86607 0.7907 0.0
C229 C 0.40337 0.86603 0.76535 0.0
C230 C 0.38237 0.85493 0.78626 0.0
C231 C 0.38602 0.84702 0.82698 0.0
C232 C 0.40915 0.85371 0.82857 0.0
N233 N 0.45989 0.90326 0.81693 0.0
C234 C 0.4704 0.93604 0.88187 0.0
C235 C 0.45204 0.92932 0.85035 0.0
C236 C 0.44705 0.9129 0.81832 0.0
C237 C 0.48344 0.92608 0.87955 0.0
C238 C 0.47795 0.90987 0.84712 0.0
N239 N 0.44672 0.85717 0.72814 0.0
C240 C 0.43119 0.81974 0.71756 0.0
C241 C 0.44555 0.82332 0.67907 0.0
C242 C 0.45882 0.84415 0.66251 0.0
C243 C 0.45899 0.86085 0.68735 0.0
C244 C 0.43198 0.83674 0.74127 0.0
H245 H 0.46996 0.87678 0.67489 0.0
H246 H 0.42147 0.83318 0.77179 0.0
H247 H 0.43277 0.908 0.7948 0.0
H248 H 0.4885 0.90277 0.84652 0.0
C249 C 0.49542 0.87324 0.80065 0.0
C250 C 0.41871 0.84442 0.86094 0.0
C251 C 0.4888 0.92385 0.70212 0.0
C252 C 0.40806 0.87756 0.72353 0.0
H253 H 0.44498 0.82997 0.91157 0.0
H254 H 0.48647 0.84419 0.8765 0.0
H255 H 0.53794 0.90156 0.75589 0.0
H256 H 0.53454 0.93046 0.70511 0.0
H257 H 0.46146 0.93241 0.63749 0.0
H258 H 0.41704 0.90589 0.64649 0.0
H259 H 0.36628 0.85267 0.77325 0.0
H260 H 0.37291 0.83659 0.85144 0.0
H261 H 0.44137 0.93643 0.85086 0.0
H262 H 0.49808 0.93092 0.90231 0.0
H263 H 0.41994 0.80387 0.73057 0.0
H264 H 0.46989 0.84767 0.63226 0.0
C265 C 0.61705 0.43633 0.83403 0.0
C266 C 0.60941 0.41824 0.8068 0.0
C267 C 0.58781 0.40417 0.82179 0.0
C268 C 0.58342 0.41434 0.85726 0.0
N269 N 0.60069 0.43419 0.86501 0.0
Co270 Co 0.60179 0.45314 0.91694 0.0
N271 N 0.56855 0.43506 0.93039 0.0
C272 C 0.55498 0.41509 0.91545 0.0
C273 C 0.53279 0.40659 0.93019 0.0
C274 C 0.53237 0.42217 0.95626 0.0
C275 C 0.5544 0.43931 0.95598 0.0
N276 N 0.60305 0.47179 0.96935 0.0
C277 C 0.58599 0.47272 0.99195 0.0
C278 C 0.59448 0.48803 0.02704 0.0
C279 C 0.61767 0.49705 0.02619 0.0
C280 C 0.62203 0.48678 0.9909 0.0
N281 N 0.63498 0.47163 0.90337 0.0
C282 C 0.65019 0.48774 0.93033 0.0
C283 C 0.67164 0.49836 0.91123 0.0
C284 C 0.67008 0.48804 0.87008 0.0
C285 C 0.64774 0.47144 0.86674 0.0
N286 N 0.59473 0.46948 0.87162 0.0
C287 C 0.58367 0.49181 0.80556 0.0
C288 C 0.60081 0.50257 0.83946 0.0
C289 C 0.6061 0.49113 0.87205 0.0
C290 C 0.57212 0.46966 0.80607 0.0
C291 C 0.57787 0.45891 0.83905 0.0
N292 N 0.60832 0.43617 0.96167 0.0
C293 C 0.62474 0.41393 0.97298 0.0
C294 C 0.60938 0.40296 1.00942 0.0
C295 C 0.59512 0.41051 0.02491 0.0
C296 C 0.59503 0.42729 1.00082 0.0
C297 C 0.624 0.43043 0.94993 0.0
H298 H 0.58321 0.43217 1.01219 0.0
H299 H 0.63524 0.43753 0.92069 0.0
H300 H 0.61939 0.49982 0.89748 0.0
H301 H 0.56846 0.44193 0.83815 0.0
C302 C 0.56297 0.40618 0.88245 0.0
C303 C 0.64089 0.4537 0.83406 0.0
C304 C 0.56163 0.45883 0.98273 0.0
C305 C 0.64342 0.49341 0.97147 0.0
H306 H 0.61879 0.41518 0.78016 0.0
H307 H 0.57673 0.38832 0.80873 0.0
H308 H 0.51847 0.39119 0.92174 0.0
H309 H 0.51759 0.42102 0.97366 0.0
H310 H 0.58495 0.49234 0.05062 0.0
H311 H 0.62993 0.51021 0.04727 0.0
H312 H 0.68664 0.51193 0.92557 0.0
H313 H 0.6841 0.49156 0.84649 0.0
H314 H 0.61031 0.51968 0.84045 0.0
H315 H 0.55841 0.46054 0.78148 0.0
H316 H 0.63673 0.40926 0.96091 0.0
H317 H 0.58322 0.40279 0.05358 0.0
C318 C 0.08971 0.56801 0.99917 0.0
C319 C 0.11212 0.5818 0.98409 0.0
C320 C 0.07134 0.56153 0.96802 0.0
C321 C 0.05814 0.55527 0.83986 0.0
H322 H 0.99857 0.54352 0.88219 0.0
C323 C 0.98045 0.52344 0.71258 0.0
C324 C 0.95971 0.50684 0.72999 0.0
C325 C 0.99914 0.53481 0.74281 0.0
C326 C 1.01505 0.54658 0.8698 0.0
H327 H 0.13298 0.59986 0.92502 0.0
H328 H 0.10086 0.58899 0.87053 0.0
H329 H 0.0309 0.55974 0.93623 0.0
H330 H 0.94221 0.48982 0.79344 0.0
H331 H 0.97465 0.5094 0.84579 0.0
H332 H 0.04221 0.54188 0.77358 0.0
C333 C 0.0974 0.58297 0.90632 0.0
C334 C 0.03364 0.5559 0.90087 0.0
C335 C 0.1158 0.58945 0.93758 0.0
C336 C 0.95797 0.50234 0.77863 0.0
C337 C 0.97656 0.51374 0.80882 0.0
C338 C 0.03955 0.546 0.80874 0.0
C339 C 0.07492 0.5686 0.92084 0.0
C340 C 0.05542 0.56014 0.8866 0.0
C341 C 0.99751 0.52999 0.79132 0.0
C342 C 1.01767 0.54126 0.82344 0.0
H343 H 0.08652 0.56154 0.0346 0.0
H344 H 0.05441 0.55022 0.98047 0.0
H345 H 0.0745 0.55794 0.82765 0.0
H346 H 0.98248 0.52726 0.67531 0.0
H347 H 1.01492 0.54734 0.72811 0.0
C348 C 0.48355 0.95188 0.96266 0.0
C349 C 0.4762 0.95327 0.917 0.0
C350 C 0.49045 0.96847 0.99486 0.0
C351 C 0.48798 1.0171 0.02133 0.0
H352 H 0.54197 0.03153 0.09536 0.0
C353 C 0.53613 0.09443 0.132 0.0
C354 C 0.54648 0.09363 0.1743 0.0
C355 C 0.52545 0.07667 0.10249 0.0
C356 C 0.52665 0.02756 0.07565 0.0
H357 H 0.46991 0.97326 0.87009 0.0
H358 H 0.48194 1.00226 0.9264 0.0
H359 H 0.52754 1.00217 0.04033 0.0
H360 H 0.5536 0.07377 0.21941 0.0
H361 H 0.53441 0.04254 0.16888 0.0
H362 H 0.48724 0.04266 0.05666 0.0
C363 C 0.48221 0.98819 0.93734 0.0
C364 C 0.51837 1.01067 0.04387 0.0
C365 C 0.47529 0.97153 0.905 0.0
C366 C 0.54543 0.07464 0.18726 0.0
C367 C 0.53471 0.05687 0.15792 0.0
C368 C 0.49627 0.03402 0.05329 0.0
C369 C 0.49021 0.987 0.98251 0.0
C370 C 0.49889 1.00514 0.0163 0.0
C371 C 0.52502 0.05776 0.11453 0.0
C372 C 0.51571 0.03947 0.08101 0.0
H373 H 0.484 0.93789 0.97365 0.0
H374 H 0.49599 0.96674 0.02961 0.0
H375 H 0.47282 1.01319 1.00107 0.0
H376 H 0.53724 0.10909 0.12075 0.0
H377 H 0.51847 0.07811 0.06921 0.0
C378 C 0.4578 0.51605 0.24697 0.0
C379 C 0.47403 0.53254 0.27529 0.0
C380 C 0.46449 0.50545 0.21525 0.0
C381 C 0.51095 0.49414 0.19034 0.0
H382 H 0.48911 0.48578 0.06123 0.0
C383 C 0.53721 0.45152 0.0545 0.0
C384 C 0.54509 0.46199 1.01111 0.0
C385 C 0.52557 0.45755 0.08594 0.0
C386 C 0.49533 0.48796 0.09717 0.0
H387 H 0.50989 0.55026 0.29364 0.0
H388 H 0.52149 0.53174 0.23888 0.0
H389 H 0.47487 0.50126 0.11891 0.0
H390 H 0.54678 0.4866 0.966 0.0
H391 H 0.52603 0.49695 0.02043 0.0
H392 H 0.53171 0.48126 0.16861 0.0
C393 C 0.5036 0.52702 0.24091 0.0
C394 C 0.48703 0.49667 0.13033 0.0
C395 C 0.49698 0.53776 0.27207 0.0
C396 C 0.54041 0.47803 0.99887 0.0
C397 C 0.5286 0.48395 0.03012 0.0
C398 C 0.51904 0.48524 0.15738 0.0
C399 C 0.48751 0.51087 0.21172 0.0
C400 C 0.49498 0.50015 0.17719 0.0
C401 C 0.52154 0.47416 0.0746 0.0
C402 C 0.51156 0.48225 0.11021 0.0
H403 H 0.44001 0.51173 0.24844 0.0
H404 H 0.45164 0.49298 0.19353 0.0
H405 H 0.51731 0.49644 0.22618 0.0
H406 H 0.54102 0.43937 0.06499 0.0
H407 H 0.52021 0.44954 0.11966 0.0
C408 C 0.94664 0.44749 0.46495 0.0
C409 C 0.94858 0.45836 0.50701 0.0
C410 C 0.96555 0.45406 0.43529 0.0
C411 C 1.02114 0.50218 0.40827 0.0
H412 H 0.02985 0.464 0.3279 0.0
C413 C 0.09944 0.53203 0.28557 0.0
C414 C 0.09529 0.52431 0.23902 0.0
C415 C 0.08239 0.52293 0.32003 0.0
C416 C 0.02757 0.47488 0.34992 0.0
H417 H 0.97166 0.48412 0.55193 0.0
H418 H 1.00501 0.49514 0.50144 0.0
H419 H 0.9992 0.44968 0.38623 0.0
H420 H 0.06999 0.50045 0.19283 0.0
H421 H 0.04022 0.48454 0.25304 0.0
H422 H 0.04951 0.52736 0.37201 0.0
C423 C 0.98888 0.48181 0.49056 0.0
C424 C 1.00995 0.46667 0.3834 0.0
C425 C 0.9699 0.47533 0.51996 0.0
C426 C 0.07376 0.50689 0.2282 0.0
C427 C 0.05674 0.49766 0.26284 0.0
C428 C 0.03882 0.51035 0.3751 0.0
C429 C 0.98685 0.47167 0.44708 0.0
C430 C 1.00637 0.48021 0.41294 0.0
C431 C 0.06074 0.50575 0.30906 0.0
C432 C 0.04222 0.49684 0.34528 0.0
H433 H 0.93019 0.43466 0.45379 0.0
H434 H 0.96312 0.44598 0.40199 0.0
H435 H 1.01871 0.51321 0.42938 0.0
H436 H 0.11569 0.54558 0.29512 0.0
H437 H 0.08616 0.52944 0.35534 0.0
C438 C 0.56979 0.08458 0.45891 0.0
C439 C 0.57621 0.08275 0.41274 0.0
C440 C 0.56268 0.06798 0.49127 0.0
C441 C 0.56259 1.01807 0.51718 0.0
H442 H 0.50987 1.00597 0.59307 0.0
C443 C 0.51298 0.94163 0.63079 0.0
C444 C 0.50355 0.94316 0.67364 0.0
C445 C 0.52378 0.95911 0.60039 0.0
C446 C 0.52484 1.00927 0.57282 0.0
H447 H 0.58086 0.06208 0.36514 0.0
H448 H 0.56845 0.03299 0.42184 0.0
H449 H 0.52503 0.03523 0.53741 0.0
H450 H 0.4981 0.964 0.71871 0.0
H451 H 0.51745 0.99474 0.6665 0.0
H452 H 0.56226 0.99196 0.55267 0.0
C453 C 0.56902 0.0474 0.43297 0.0
C454 C 0.53353 0.0261 0.54069 0.0
C455 C 0.57617 0.06409 0.40043 0.0
C456 C 0.50553 0.96256 0.6861 0.0
C457 C 0.51636 0.98005 0.65584 0.0
C458 C 0.5539 1.00121 0.54951 0.0
C459 C 0.56177 0.04899 0.47858 0.0
C460 C 0.55258 0.03082 0.5125 0.0
C461 C 0.52525 0.97848 0.61207 0.0
C462 C 0.53492 0.99661 0.57794 0.0
H463 H 0.57011 0.09888 0.47007 0.0
H464 H 0.5578 0.07002 0.52636 0.0
H465 H 0.5774 0.02133 0.4964 0.0
H466 H 0.51119 0.92666 0.62001 0.0
H467 H 0.53011 0.95715 0.56686 0.0
C468 C 0.57179 0.49554 0.72345 0.0
C469 C 0.57754 0.50327 0.76985 0.0
C470 C 0.56435 0.50512 0.69068 0.0
C471 C 0.56266 0.55409 0.66425 0.0
H472 H 0.51083 0.51643 0.58691 0.0
C473 C 0.51212 0.58303 0.54994 0.0
C474 C 0.50269 0.57258 0.50722 0.0
C475 C 0.52325 0.57592 0.58025 0.0
C476 C 0.52556 0.52726 0.60753 0.0
H477 H 0.5805 0.52769 0.81746 0.0
H478 H 0.56763 0.54453 0.76005 0.0
H479 H 0.52639 0.50177 0.64295 0.0
H480 H 0.49765 0.54679 0.46217 0.0
H481 H 0.51768 0.53468 0.5141 0.0
H482 H 0.56176 0.57961 0.62873 0.0
C483 C 0.56898 0.53102 0.74906 0.0
C484 C 0.53447 0.5188 0.6399 0.0
C485 C 0.5764 0.52137 0.78201 0.0
C486 C 0.50507 0.55525 0.49469 0.0
C487 C 0.51628 0.54818 0.52482 0.0
C488 C 0.55378 0.56258 0.63164 0.0
C489 C 0.56249 0.52279 0.70316 0.0
C490 C 0.55316 0.53207 0.6687 0.0
C491 C 0.52511 0.55812 0.56857 0.0
C492 C 0.53509 0.54927 0.60273 0.0
H493 H 0.57296 0.48196 0.71233 0.0
H494 H 0.56002 0.49862 0.6554 0.0
H495 H 0.57719 0.56481 0.6855 0.0
H496 H 0.51002 0.59615 0.56076 0.0
H497 H 0.52951 0.58384 0.61377 0.0
C498 C 0.24173 0.59227 0.22317 0.0
C499 C 0.24159 0.60257 0.18142 0.0
C500 C 0.26181 0.59315 0.2387 0.0
C501 C 0.32462 0.62138 0.22674 0.0
H502 H 0.31783 0.56675 0.25728 0.0
C503 C 0.39533 0.60974 0.31433 0.0
C504 C 0.39805 0.59303 0.2978 0.0
C505 C 0.37767 0.6126 0.29728 0.0
C506 C 0.32006 0.58211 0.24856 0.0
H507 H 0.26221 0.62225 0.12378 0.0
H508 H 0.29762 0.62441 0.15163 0.0
H509 H 0.28429 0.56924 0.23655 0.0
H510 H 0.385 0.56667 0.24945 0.0
H511 H 0.35385 0.57148 0.21978 0.0
H512 H 0.36045 0.63423 0.23919 0.0
C513 C 0.28226 0.61571 0.17249 0.0
C514 C 0.30079 0.58358 0.23724 0.0
C515 C 0.26208 0.61459 0.15665 0.0
C516 C 0.38328 0.5797 0.26258 0.0
C517 C 0.36539 0.58238 0.24598 0.0
C518 C 0.3439 0.61995 0.23877 0.0
C519 C 0.2822 0.60445 0.2129 0.0
C520 C 0.30281 0.60322 0.22617 0.0
C521 C 0.36212 0.59863 0.26377 0.0
C522 C 0.34184 0.60027 0.24965 0.0
H523 H 0.226 0.58254 0.24225 0.0
H524 H 0.26124 0.58447 0.27018 0.0
H525 H 0.32675 0.63674 0.21844 0.0
H526 H 0.40635 0.62012 0.34182 0.0
H527 H 0.37556 0.62517 0.31197 0.0
C528 C 0.65217 0.23013 0.36669 0.0
C529 C 0.65038 0.21115 0.38291 0.0
C530 C 0.66955 0.24967 0.38312 0.0
C531 C 0.72795 0.27531 0.42395 0.0
H532 H 0.71785 0.31996 0.46883 0.0
C533 C 0.80274 0.35503 0.49055 0.0
C534 C 0.80122 0.37341 0.48609 0.0
C535 C 0.78422 0.33521 0.47877 0.0
C536 C 0.72113 0.30788 0.45554 0.0
H537 H 0.66484 0.19773 0.43019 0.0
H538 H 0.69582 0.23208 0.45805 0.0
H539 H 0.68534 0.28554 0.44889 0.0
H540 H 0.77938 0.38557 0.46431 0.0
H541 H 0.74751 0.35127 0.44114 0.0
H542 H 0.76361 0.29765 0.42813 0.0
C543 C 0.68361 0.23173 0.43284 0.0
C544 C 0.7024 0.28805 0.44459 0.0
C545 C 0.66587 0.21212 0.41718 0.0
C546 C 0.78099 0.37163 0.46826 0.0
C547 C 0.76261 0.35187 0.45551 0.0
C548 C 0.74671 0.29526 0.43393 0.0
C549 C 0.6858 0.25071 0.41544 0.0
C550 C 0.70561 0.27154 0.42883 0.0
C551 C 0.76375 0.33324 0.46131 0.0
C552 C 0.74365 0.31191 0.45002 0.0
H553 H 0.64059 0.22987 0.33999 0.0
H554 H 0.67088 0.26403 0.36894 0.0
H555 H 0.73093 0.26296 0.41113 0.0
H556 H 0.81799 0.35588 0.50499 0.0
H557 H 0.78583 0.3214 0.48478 0.0
C558 C 0.44829 0.79065 0.6898 0.0
C559 C 0.44752 0.80545 0.65914 0.0
C560 C 0.44939 0.77337 0.67221 0.0
C561 C 0.46327 0.74393 0.62748 0.0
H562 H 0.42429 0.71259 0.5225 0.0
C563 C 0.46486 0.6727 0.54096 0.0
C564 C 0.44384 0.65544 0.52683 0.0
C565 C 0.46623 0.69139 0.55722 0.0
C566 C 0.43518 0.72109 0.55205 0.0
H567 H 0.44783 0.81387 0.5857 0.0
H568 H 0.44987 0.78356 0.55469 0.0
H569 H 0.42556 0.74487 0.54921 0.0
H570 H 0.40759 0.64403 0.52107 0.0
H571 H 0.40995 0.67648 0.54959 0.0
H572 H 0.47247 0.7199 0.63109 0.0
C573 C 0.44937 0.78531 0.59253 0.0
C574 C 0.43614 0.73977 0.56694 0.0
C575 C 0.44839 0.80276 0.61024 0.0
C576 C 0.42412 0.65711 0.53089 0.0
C577 C 0.42549 0.67578 0.54707 0.0
C578 C 0.46236 0.7253 0.6125 0.0
C579 C 0.44979 0.77035 0.62337 0.0
C580 C 0.45 0.75131 0.60521 0.0
C581 C 0.4466 0.69329 0.55975 0.0
C582 C 0.44811 0.71349 0.57492 0.0
H583 H 0.44806 0.79242 0.7277 0.0
H584 H 0.44944 0.76211 0.69704 0.0
H585 H 0.47434 0.75255 0.65672 0.0
H586 H 0.48044 0.6721 0.53769 0.0
H587 H 0.4828 0.7046 0.56634 0.0
C588 C 0.66338 0.4495 0.76788 0.0
C589 C 0.65918 0.44969 0.81633 0.0
C590 C 0.68178 0.44734 0.75233 0.0
C591 C 0.73826 0.45795 0.79093 0.0
H592 H 0.7332 0.41935 0.69206 0.0
C593 C 0.81593 0.44971 0.7385 0.0
C594 C 0.81856 0.4469 0.69048 0.0
C595 C 0.7956 0.44808 0.75507 0.0
C596 C 0.73508 0.43046 0.7193 0.0
H597 H 0.67058 0.44724 0.88635 0.0
H598 H 0.70262 0.44378 0.85942 0.0
H599 H 0.69949 0.42079 0.7164 0.0
H600 H 0.80188 0.43956 0.62235 0.0
H601 H 0.76699 0.4375 0.65041 0.0
H602 H 0.77383 0.46826 0.79307 0.0
C603 C 0.69184 0.44534 0.83338 0.0
C604 C 0.71566 0.4312 0.73329 0.0
C605 C 0.67338 0.44719 0.84879 0.0
C606 C 0.80029 0.44182 0.65961 0.0
C607 C 0.78017 0.44047 0.67591 0.0
C608 C 0.75772 0.45746 0.77652 0.0
C609 C 0.69646 0.44564 0.78504 0.0
C610 C 0.71703 0.44492 0.76935 0.0
C611 C 0.77754 0.44382 0.72382 0.0
C612 C 0.75648 0.44371 0.74044 0.0
H613 H 0.65274 0.45146 0.7422 0.0
H614 H 0.68497 0.44769 0.71482 0.0
H615 H 0.73992 0.46888 0.81848 0.0
H616 H 0.82975 0.45355 0.76299 0.0
H617 H 0.79416 0.45031 0.79237 0.0
C618 C 0.39089 0.82194 0.92437 0.0
C619 C 0.40257 0.82343 0.8824 0.0
C620 C 0.37394 0.80213 0.94121 0.0
C621 C 0.33233 0.74905 0.89925 0.0
H622 H 0.32862 0.73186 0.02984 0.0
C623 C 0.26175 0.66602 0.96244 0.0
C624 C 0.25254 0.66451 1.0077 0.0
C625 C 0.2812 0.68473 0.94759 0.0
C626 C 0.3291 0.73645 0.99334 0.0
H627 H 0.40619 0.80547 0.82587 0.0
H628 H 0.37642 0.77107 0.85462 0.0
H629 H 0.35995 0.76605 1.00439 0.0
H630 H 0.25764 0.68151 0.07352 0.0
H631 H 0.29026 0.71405 0.04704 0.0
H632 H 0.30116 0.71998 0.88819 0.0
C633 C 0.38027 0.7851 0.87454 0.0
C634 C 0.3472 0.75608 0.97878 0.0
C635 C 0.39738 0.8048 0.85817 0.0
C636 C 0.26371 0.68209 0.03794 0.0
C637 C 0.28287 0.70079 0.02296 0.0
C638 C 0.31403 0.72958 0.91392 0.0
C639 C 0.36813 0.78353 0.91592 0.0
C640 C 0.34902 0.76261 0.93158 0.0
C641 C 0.29192 0.70253 0.97747 0.0
C642 C 0.31204 0.72296 0.96127 0.0
H643 H 0.39451 0.83611 0.94342 0.0
H644 H 0.36481 0.80143 0.97312 0.0
H645 H 0.33313 0.75373 0.86269 0.0
H646 H 0.2537 0.65292 0.93802 0.0
H647 H 0.28779 0.68519 0.91259 0.0
C648 C 0.6047 0.37827 0.07674 0.0
C649 C 0.6074 0.38302 0.02826 0.0
C650 C 0.6033 0.35958 0.09362 0.0
C651 C 0.59096 0.3062 0.05554 0.0
H652 H 0.62543 0.3088 0.16699 0.0
C653 C 0.60397 0.23653 0.11395 0.0
C654 C 0.60419 0.23299 0.16266 0.0
C655 C 0.60336 0.25435 0.09725 0.0
C656 C 0.61543 0.30766 0.13616 0.0
H657 H 0.60981 0.37136 0.95941 0.0
H658 H 0.60768 0.33914 0.98876 0.0
H659 H 0.62567 0.34052 0.13975 0.0
H660 H 0.6026 0.24475 0.23191 0.0
H661 H 0.60128 0.27542 0.20307 0.0
H662 H 0.5807 0.27332 0.05197 0.0
C663 C 0.60663 0.34977 0.01385 0.0
C664 C 0.61558 0.32591 0.12056 0.0
C665 C 0.60816 0.36843 0.99708 0.0
C666 C 0.60305 0.24727 0.19415 0.0
C667 C 0.60233 0.26493 0.17758 0.0
C668 C 0.59074 0.28791 0.07125 0.0
C669 C 0.60431 0.34512 0.06233 0.0
C670 C 0.60341 0.32545 0.07996 0.0
C671 C 0.60279 0.26893 0.12893 0.0
C672 C 0.603 0.28838 0.11178 0.0
H673 H 0.60406 0.38915 0.10169 0.0
H674 H 0.60129 0.35639 0.13117 0.0
H675 H 0.58116 0.3052 0.02445 0.0
H676 H 0.60488 0.22586 0.08879 0.0
H677 H 0.6039 0.25697 0.05954 0.0
loop_
_geom_bond_atom_site_label_1
_geom_bond_atom_site_label_2
_geom_bond_distance
_geom_bond_site_symmetry_2
_ccdc_geom_bond_type
C0 C1 1.443 . S
C0 N4 1.376 . S
C0 C38 1.389 . S
C1 C0 1.443 . S
C1 C2 1.340 . S
C1 H41 0.951 . S
C2 C1 1.340 . S
C2 C3 1.439 . S
C2 H42 0.950 . S
C3 C2 1.439 . S
C3 N4 1.374 . S
C3 C37 1.395 . S
N4 C0 1.376 . S
N4 C3 1.374 . S
N4 Co5 2.008 . S
Co5 N4 2.008 . S
Co5 N6 1.995 . S
Co5 N11 2.008 . S
Co5 N16 1.995 . S
Co5 N21 2.282 . S
Co5 N27 2.282 . S
N6 Co5 1.995 . S
N6 C7 1.376 . S
N6 C10 1.383 . S
C7 N6 1.376 . S
C7 C8 1.446 . S
C7 C37 1.391 . S
C8 C7 1.446 . S
C8 C9 1.339 . S
C8 H43 0.949 . S
C9 C8 1.339 . S
C9 C10 1.439 . S
C9 H44 0.950 . S
C10 N6 1.383 . S
C10 C9 1.439 . S
C10 C39 1.392 . S
N11 Co5 2.008 . S
N11 C12 1.376 . S
N11 C15 1.374 . S
C12 N11 1.376 . S
C12 C13 1.443 . S
C12 C39 1.389 . S
C13 C12 1.443 . S
C13 C14 1.340 . S
C13 H45 0.951 1_554 S
C14 C13 1.340 . S
C14 C15 1.439 . S
C14 H46 0.947 1_554 S
C15 N11 1.374 . S
C15 C14 1.439 . S
C15 C40 1.395 . S
N16 Co5 1.995 . S
N16 C17 1.376 . S
N16 C20 1.383 . S
C17 N16 1.376 . S
C17 C18 1.446 . S
C17 C40 1.391 . S
C18 C17 1.446 . S
C18 C19 1.339 . S
C18 H47 0.949 . S
C19 C18 1.339 . S
C19 C20 1.439 . S
C19 H48 0.950 . S
C20 N16 1.383 . S
C20 C19 1.439 . S
C20 C38 1.392 . S
N21 Co5 2.282 . S
N21 C24 1.332 . S
N21 C26 1.332 . S
C22 C23 1.386 . S
C22 C25 1.388 . S
C23 C22 1.386 . S
C23 C24 1.382 . S
C23 H49 0.950 . S
C24 N21 1.332 . S
C24 C23 1.382 . S
C24 H35 0.952 . S
C25 C22 1.388 . S
C25 C26 1.382 . S
C25 H50 0.950 . S
C26 N21 1.332 . S
C26 C25 1.382 . S
C26 H36 0.948 . S
N27 Co5 2.282 . S
N27 C31 1.332 . S
N27 C32 1.332 . S
C28 C29 1.388 . S
C28 C32 1.382 . S
C28 H51 0.950 1_554 S
C29 C28 1.388 . S
C29 C30 1.386 . S
C30 C29 1.386 . S
C30 C31 1.382 . S
C30 H52 0.950 . S
C31 N27 1.332 . S
C31 C30 1.382 . S
C31 H33 0.952 . S
C32 N27 1.332 . S
C32 C28 1.382 . S
C32 H34 0.948 . S
H33 C31 0.952 . S
H34 C32 0.948 . S
H35 C24 0.952 . S
H36 C26 0.948 . S
C37 C3 1.395 . S
C37 C7 1.391 . S
C38 C0 1.389 . S
C38 C20 1.392 . S
C39 C10 1.392 . S
C39 C12 1.389 . S
C40 C15 1.395 . S
C40 C17 1.391 . S
H41 C1 0.951 . S
H42 C2 0.950 . S
H43 C8 0.949 . S
H44 C9 0.950 . S
H45 C13 0.951 1_556 S
H46 C14 0.947 1_556 S
H47 C18 0.949 . S
H48 C19 0.950 . S
H49 C23 0.950 . S
H50 C25 0.950 . S
H51 C28 0.950 1_556 S
H52 C30 0.950 . S
C53 C54 1.443 . S
C53 N57 1.376 . S
C53 C91 1.389 . S
C54 C53 1.443 . S
C54 C55 1.340 . S
C54 H94 0.951 . S
C55 C54 1.340 . S
C55 C56 1.439 . S
C55 H95 0.950 . S
C56 C55 1.439 . S
C56 N57 1.374 . S
C56 C90 1.395 . S
N57 C53 1.376 . S
N57 C56 1.374 . S
N57 Co58 2.008 . S
Co58 N57 2.008 . S
Co58 N59 1.995 . S
Co58 N64 2.008 . S
Co58 N69 1.995 . S
Co58 N74 2.282 . S
Co58 N80 2.282 . S
N59 Co58 1.995 . S
N59 C60 1.376 . S
N59 C63 1.383 . S
C60 N59 1.376 . S
C60 C61 1.446 . S
C60 C90 1.391 . S
C61 C60 1.446 . S
C61 C62 1.339 . S
C61 H96 0.949 . S
C62 C61 1.339 . S
C62 C63 1.439 . S
C62 H97 0.950 . S
C63 N59 1.383 . S
C63 C62 1.439 . S
C63 C92 1.392 . S
N64 Co58 2.008 . S
N64 C65 1.376 . S
N64 C68 1.374 . S
C65 N64 1.376 . S
C65 C66 1.443 . S
C65 C92 1.389 . S
C66 C65 1.443 . S
C66 C67 1.340 . S
C66 H98 0.951 . S
C67 C66 1.340 . S
C67 C68 1.439 . S
C67 H99 0.950 . S
C68 N64 1.374 . S
C68 C67 1.439 . S
C68 C93 1.395 . S
N69 Co58 1.995 . S
N69 C70 1.376 . S
N69 C73 1.383 . S
C70 N69 1.376 . S
C70 C71 1.446 . S
C70 C93 1.391 . S
C71 C70 1.446 . S
C71 C72 1.339 . S
C71 H100 0.949 . S
C72 C71 1.339 . S
C72 C73 1.439 . S
C72 H101 0.950 . S
C73 N69 1.383 . S
C73 C72 1.439 . S
C73 C91 1.392 . S
N74 Co58 2.282 . S
N74 C77 1.332 . S
N74 C79 1.332 . S
C75 C76 1.386 . S
C75 C78 1.388 . S
C76 C75 1.386 . S
C76 C77 1.382 . S
C76 H102 0.950 . S
C77 N74 1.332 . S
C77 C76 1.382 . S
C77 H88 0.952 . S
C78 C75 1.388 . S
C78 C79 1.382 . S
C78 H103 0.950 . S
C79 N74 1.332 . S
C79 C78 1.382 . S
C79 H89 0.948 . S
N80 Co58 2.282 . S
N80 C84 1.332 . S
N80 C85 1.332 . S
C81 C82 1.388 . S
C81 C85 1.382 . S
C81 H104 0.950 . S
C82 C81 1.388 . S
C82 C83 1.386 . S
C83 C82 1.386 . S
C83 C84 1.382 . S
C83 H105 0.950 . S
C84 N80 1.332 . S
C84 C83 1.382 . S
C84 H86 0.952 . S
C85 N80 1.332 . S
C85 C81 1.382 . S
C85 H87 0.948 . S
H86 C84 0.952 . S
H87 C85 0.948 . S
H88 C77 0.952 . S
H89 C79 0.948 . S
C90 C56 1.395 . S
C90 C60 1.391 . S
C91 C53 1.389 . S
C91 C73 1.392 . S
C92 C63 1.392 . S
C92 C65 1.389 . S
C93 C68 1.395 . S
C93 C70 1.391 . S
H94 C54 0.951 . S
H95 C55 0.950 . S
H96 C61 0.949 . S
H97 C62 0.950 . S
H98 C66 0.951 . S
H99 C67 0.950 . S
H100 C71 0.949 . S
H101 C72 0.950 . S
H102 C76 0.950 . S
H103 C78 0.950 . S
H104 C81 0.950 . S
H105 C83 0.950 . S
C106 C107 1.443 . S
C106 N110 1.376 . S
C106 C144 1.389 . S
C107 C106 1.443 . S
C107 C108 1.340 . S
C107 H147 0.951 . S
C108 C107 1.340 . S
C108 C109 1.439 . S
C108 H148 0.950 . S
C109 C108 1.439 . S
C109 N110 1.374 . S
C109 C143 1.395 . S
N110 C106 1.376 . S
N110 C109 1.374 . S
N110 Co111 2.008 . S
Co111 N110 2.008 . S
Co111 N112 1.995 . S
Co111 N117 2.008 . S
Co111 N122 1.995 . S
Co111 N127 2.282 . S
Co111 N133 2.282 . S
N112 Co111 1.995 . S
N112 C113 1.376 . S
N112 C116 1.383 . S
C113 N112 1.376 . S
C113 C114 1.446 . S
C113 C143 1.391 . S
C114 C113 1.446 . S
C114 C115 1.339 . S
C114 H149 0.949 . S
C115 C114 1.339 . S
C115 C116 1.439 . S
C115 H150 0.950 . S
C116 N112 1.383 . S
C116 C115 1.439 . S
C116 C145 1.392 . S
N117 Co111 2.008 . S
N117 C118 1.376 . S
N117 C121 1.374 . S
C118 N117 1.376 . S
C118 C119 1.443 . S
C118 C145 1.389 . S
C119 C118 1.443 . S
C119 C120 1.340 . S
C119 H151 0.951 . S
C120 C119 1.340 . S
C120 C121 1.439 . S
C120 H152 0.950 . S
C121 N117 1.374 . S
C121 C120 1.439 . S
C121 C146 1.395 . S
N122 Co111 1.995 . S
N122 C123 1.376 . S
N122 C126 1.383 . S
C123 N122 1.376 . S
C123 C124 1.446 . S
C123 C146 1.391 . S
C124 C123 1.446 . S
C124 C125 1.339 . S
C124 H153 0.949 . S
C125 C124 1.339 . S
C125 C126 1.439 . S
C125 H154 0.950 . S
C126 N122 1.383 . S
C126 C125 1.439 . S
C126 C144 1.392 . S
N127 Co111 2.282 . S
N127 C130 1.332 . S
N127 C132 1.332 . S
C128 C129 1.386 . S
C128 C131 1.388 . S
C129 C128 1.386 . S
C129 C130 1.382 . S
C129 H155 0.950 . S
C130 N127 1.332 . S
C130 C129 1.382 . S
C130 H141 0.952 . S
C131 C128 1.388 . S
C131 C132 1.382 . S
C131 H156 0.950 . S
C132 N127 1.332 . S
C132 C131 1.382 . S
C132 H142 0.948 . S
N133 Co111 2.282 . S
N133 C137 1.332 . S
N133 C138 1.332 . S
C134 C135 1.388 . S
C134 C138 1.382 . S
C134 H157 0.950 . S
C135 C134 1.388 . S
C135 C136 1.386 . S
C136 C135 1.386 . S
C136 C137 1.382 . S
C136 H158 0.950 . S
C137 N133 1.332 . S
C137 C136 1.382 . S
C137 H139 0.952 . S
C138 N133 1.332 . S
C138 C134 1.382 . S
C138 H140 0.948 . S
H139 C137 0.952 . S
H140 C138 0.948 . S
H141 C130 0.952 . S
H142 C132 0.948 . S
C143 C109 1.395 . S
C143 C113 1.391 . S
C144 C106 1.389 . S
C144 C126 1.392 . S
C145 C116 1.392 . S
C145 C118 1.389 . S
C146 C121 1.395 . S
C146 C123 1.391 . S
H147 C107 0.951 . S
H148 C108 0.950 . S
H149 C114 0.949 . S
H150 C115 0.950 . S
H151 C119 0.951 . S
H152 C120 0.950 . S
H153 C124 0.949 . S
H154 C125 0.950 . S
H155 C129 0.950 . S
H156 C131 0.950 . S
H157 C134 0.950 . S
H158 C136 0.950 . S
C159 C160 1.443 . S
C159 N163 1.376 . S
C159 C197 1.389 . S
C160 C159 1.443 . S
C160 C161 1.340 . S
C160 H200 0.951 . S
C161 C160 1.340 . S
C161 C162 1.439 . S
C161 H201 0.950 . S
C162 C161 1.439 . S
C162 N163 1.374 . S
C162 C196 1.395 . S
N163 C159 1.376 . S
N163 C162 1.374 . S
N163 Co164 2.008 . S
Co164 N163 2.008 . S
Co164 N165 1.995 . S
Co164 N170 2.008 . S
Co164 N175 1.995 . S
Co164 N180 2.282 . S
Co164 N186 2.282 . S
N165 Co164 1.995 . S
N165 C166 1.376 . S
N165 C169 1.383 . S
C166 N165 1.376 . S
C166 C167 1.446 . S
C166 C196 1.391 . S
C167 C166 1.446 . S
C167 C168 1.339 . S
C167 H202 0.949 . S
C168 C167 1.339 . S
C168 C169 1.439 . S
C168 H203 0.950 . S
C169 N165 1.383 . S
C169 C168 1.439 . S
C169 C198 1.392 . S
N170 Co164 2.008 . S
N170 C171 1.376 . S
N170 C174 1.374 . S
C171 N170 1.376 . S
C171 C172 1.443 . S
C171 C198 1.389 . S
C172 C171 1.443 . S
C172 C173 1.340 . S
C172 H204 0.951 . S
C173 C172 1.340 . S
C173 C174 1.439 . S
C173 H205 0.950 . S
C174 N170 1.374 . S
C174 C173 1.439 . S
C174 C199 1.395 . S
N175 Co164 1.995 . S
N175 C176 1.376 . S
N175 C179 1.383 . S
C176 N175 1.376 . S
C176 C177 1.446 . S
C176 C199 1.391 . S
C177 C176 1.446 . S
C177 C178 1.339 . S
C177 H206 0.949 . S
C178 C177 1.339 . S
C178 C179 1.439 . S
C178 H207 0.950 . S
C179 N175 1.383 . S
C179 C178 1.439 . S
C179 C197 1.392 . S
N180 Co164 2.282 . S
N180 C183 1.332 . S
N180 C185 1.332 . S
C181 C182 1.386 . S
C181 C184 1.388 . S
C182 C181 1.386 . S
C182 C183 1.382 . S
C182 H208 0.950 . S
C183 N180 1.332 . S
C183 C182 1.382 . S
C183 H194 0.952 . S
C184 C181 1.388 . S
C184 C185 1.382 . S
C184 H209 0.950 . S
C185 N180 1.332 . S
C185 C184 1.382 . S
C185 H195 0.948 . S
N186 Co164 2.282 . S
N186 C190 1.332 . S
N186 C191 1.332 . S
C187 C188 1.388 . S
C187 C191 1.382 . S
C187 H210 0.950 . S
C188 C187 1.388 . S
C188 C189 1.386 . S
C189 C188 1.386 . S
C189 C190 1.382 . S
C189 H211 0.950 . S
C190 N186 1.332 . S
C190 C189 1.382 . S
C190 H192 0.952 . S
C191 N186 1.332 . S
C191 C187 1.382 . S
C191 H193 0.948 . S
H192 C190 0.952 . S
H193 C191 0.948 . S
H194 C183 0.952 . S
H195 C185 0.948 . S
C196 C162 1.395 . S
C196 C166 1.391 . S
C197 C159 1.389 . S
C197 C179 1.392 . S
C198 C169 1.392 . S
C198 C171 1.389 . S
C199 C174 1.395 . S
C199 C176 1.391 . S
H200 C160 0.951 . S
H201 C161 0.950 . S
H202 C167 0.949 . S
H203 C168 0.950 . S
H204 C172 0.951 . S
H205 C173 0.950 . S
H206 C177 0.949 . S
H207 C178 0.950 . S
H208 C182 0.950 . S
H209 C184 0.950 . S
H210 C187 0.950 . S
H211 C189 0.950 . S
C212 C213 1.443 . S
C212 N216 1.376 . S
C212 C250 1.389 . S
C213 C212 1.443 . S
C213 C214 1.340 . S
C213 H253 0.951 . S
C214 C213 1.340 . S
C214 C215 1.439 . S
C214 H254 0.950 . S
C215 C214 1.439 . S
C215 N216 1.374 . S
C215 C249 1.395 . S
N216 C212 1.376 . S
N216 C215 1.374 . S
N216 Co217 2.008 . S
Co217 N216 2.008 . S
Co217 N218 1.995 . S
Co217 N223 2.008 . S
Co217 N228 1.995 . S
Co217 N233 2.282 . S
Co217 N239 2.282 . S
N218 Co217 1.995 . S
N218 C219 1.376 . S
N218 C222 1.383 . S
C219 N218 1.376 . S
C219 C220 1.446 . S
C219 C249 1.391 . S
C220 C219 1.446 . S
C220 C221 1.339 . S
C220 H255 0.949 . S
C221 C220 1.339 . S
C221 C222 1.439 . S
C221 H256 0.950 . S
C222 N218 1.383 . S
C222 C221 1.439 . S
C222 C251 1.392 . S
N223 Co217 2.008 . S
N223 C224 1.376 . S
N223 C227 1.374 . S
C224 N223 1.376 . S
C224 C225 1.443 . S
C224 C251 1.389 . S
C225 C224 1.443 . S
C225 C226 1.340 . S
C225 H257 0.951 . S
C226 C225 1.340 . S
C226 C227 1.439 . S
C226 H258 0.950 . S
C227 N223 1.374 . S
C227 C226 1.439 . S
C227 C252 1.395 . S
N228 Co217 1.995 . S
N228 C229 1.376 . S
N228 C232 1.383 . S
C229 N228 1.376 . S
C229 C230 1.446 . S
C229 C252 1.391 . S
C230 C229 1.446 . S
C230 C231 1.339 . S
C230 H259 0.949 . S
C231 C230 1.339 . S
C231 C232 1.439 . S
C231 H260 0.950 . S
C232 N228 1.383 . S
C232 C231 1.439 . S
C232 C250 1.392 . S
N233 Co217 2.282 . S
N233 C236 1.332 . S
N233 C238 1.332 . S
C234 C235 1.386 . S
C234 C237 1.388 . S
C235 C234 1.386 . S
C235 C236 1.382 . S
C235 H261 0.950 . S
C236 N233 1.332 . S
C236 C235 1.382 . S
C236 H247 0.952 . S
C237 C234 1.388 . S
C237 C238 1.382 . S
C237 H262 0.950 . S
C238 N233 1.332 . S
C238 C237 1.382 . S
C238 H248 0.948 . S
N239 Co217 2.282 . S
N239 C243 1.332 . S
N239 C244 1.332 . S
C240 C241 1.388 . S
C240 C244 1.382 . S
C240 H263 0.950 . S
C241 C240 1.388 . S
C241 C242 1.386 . S
C242 C241 1.386 . S
C242 C243 1.382 . S
C242 H264 0.950 . S
C243 N239 1.332 . S
C243 C242 1.382 . S
C243 H245 0.952 . S
C244 N239 1.332 . S
C244 C240 1.382 . S
C244 H246 0.948 . S
H245 C243 0.952 . S
H246 C244 0.948 . S
H247 C236 0.952 . S
H248 C238 0.948 . S
C249 C215 1.395 . S
C249 C219 1.391 . S
C250 C212 1.389 . S
C250 C232 1.392 . S
C251 C222 1.392 . S
C251 C224 1.389 . S
C252 C227 1.395 . S
C252 C229 1.391 . S
H253 C213 0.951 . S
H254 C214 0.950 . S
H255 C220 0.949 . S
H256 C221 0.950 . S
H257 C225 0.951 . S
H258 C226 0.950 . S
H259 C230 0.949 . S
H260 C231 0.950 . S
H261 C235 0.950 . S
H262 C237 0.950 . S
H263 C240 0.950 . S
H264 C242 0.950 . S
C265 C266 1.443 . S
C265 N269 1.376 . S
C265 C303 1.389 . S
C266 C265 1.443 . S
C266 C267 1.340 . S
C266 H306 0.951 . S
C267 C266 1.340 . S
C267 C268 1.439 . S
C267 H307 0.950 . S
C268 C267 1.439 . S
C268 N269 1.374 . S
C268 C302 1.395 . S
N269 C265 1.376 . S
N269 C268 1.374 . S
N269 Co270 2.008 . S
Co270 N269 2.008 . S
Co270 N271 1.995 . S
Co270 N276 2.008 . S
Co270 N281 1.995 . S
Co270 N286 2.282 . S
Co270 N292 2.282 . S
N271 Co270 1.995 . S
N271 C272 1.376 . S
N271 C275 1.383 . S
C272 N271 1.376 . S
C272 C273 1.446 . S
C272 C302 1.391 . S
C273 C272 1.446 . S
C273 C274 1.339 . S
C273 H308 0.949 . S
C274 C273 1.339 . S
C274 C275 1.439 . S
C274 H309 0.950 . S
C275 N271 1.383 . S
C275 C274 1.439 . S
C275 C304 1.392 . S
N276 Co270 2.008 . S
N276 C277 1.376 . S
N276 C280 1.374 . S
C277 N276 1.376 . S
C277 C278 1.443 . S
C277 C304 1.389 . S
C278 C277 1.443 . S
C278 C279 1.340 . S
C278 H310 0.951 . S
C279 C278 1.340 . S
C279 C280 1.439 . S
C279 H311 0.950 . S
C280 N276 1.374 . S
C280 C279 1.439 . S
C280 C305 1.395 . S
N281 Co270 1.995 . S
N281 C282 1.376 . S
N281 C285 1.383 . S
C282 N281 1.376 . S
C282 C283 1.446 . S
C282 C305 1.391 . S
C283 C282 1.446 . S
C283 C284 1.339 . S
C283 H312 0.949 . S
C284 C283 1.339 . S
C284 C285 1.439 . S
C284 H313 0.950 . S
C285 N281 1.383 . S
C285 C284 1.439 . S
C285 C303 1.392 . S
N286 Co270 2.282 . S
N286 C289 1.332 . S
N286 C291 1.332 . S
C287 C288 1.386 . S
C287 C290 1.388 . S
C288 C287 1.386 . S
C288 C289 1.382 . S
C288 H314 0.950 . S
C289 N286 1.332 . S
C289 C288 1.382 . S
C289 H300 0.952 . S
C290 C287 1.388 . S
C290 C291 1.382 . S
C290 H315 0.950 . S
C291 N286 1.332 . S
C291 C290 1.382 . S
C291 H301 0.948 . S
N292 Co270 2.282 . S
N292 C296 1.332 . S
N292 C297 1.332 . S
C293 C294 1.388 . S
C293 C297 1.382 . S
C293 H316 0.950 . S
C294 C293 1.388 . S
C294 C295 1.386 . S
C295 C294 1.386 . S
C295 C296 1.382 . S
C295 H317 0.950 . S
C296 N292 1.332 . S
C296 C295 1.382 . S
C296 H298 0.952 . S
C297 N292 1.332 . S
C297 C293 1.382 . S
C297 H299 0.948 . S
H298 C296 0.952 . S
H299 C297 0.948 . S
H300 C289 0.952 . S
H301 C291 0.948 . S
C302 C268 1.395 . S
C302 C272 1.391 . S
C303 C265 1.389 . S
C303 C285 1.392 . S
C304 C275 1.392 . S
C304 C277 1.389 . S
C305 C280 1.395 . S
C305 C282 1.391 . S
H306 C266 0.951 . S
H307 C267 0.950 . S
H308 C273 0.949 . S
H309 C274 0.950 . S
H310 C278 0.951 . S
H311 C279 0.950 . S
H312 C283 0.949 . S
H313 C284 0.950 . S
H314 C288 0.950 . S
H315 C290 0.950 . S
H316 C293 0.950 . S
H317 C295 0.950 . S
C318 C319 1.349 1_554 S
C318 C320 1.327 1_554 S
C318 H343 0.950 . S
C319 C318 1.349 1_556 S
C319 C335 1.349 . S
C320 C318 1.327 1_556 S
C320 C339 1.429 . S
C320 H344 0.950 . S
C321 C338 1.574 . S
C321 C340 1.368 . S
C321 H345 0.949 . S
H322 C326 0.949 . S
C323 C324 1.349 . S
C323 C325 1.327 . S
C323 H346 0.950 . S
C324 C323 1.349 . S
C324 C336 1.349 . S
C325 C323 1.327 . S
C325 C341 1.429 . S
C325 H347 0.950 . S
C326 H322 0.949 . S
C326 C334 1.574 1_655 S
C326 C342 1.368 . S
H327 C335 0.950 . S
H328 C333 0.950 . S
H329 C334 0.949 . S
H330 C336 0.950 . S
H331 C337 0.950 . S
H332 C338 0.949 . S
C333 H328 0.950 . S
C333 C335 1.327 . S
C333 C339 1.429 . S
C334 C326 1.574 1_455 S
C334 H329 0.949 . S
C334 C340 1.368 . S
C335 C319 1.349 . S
C335 H327 0.950 . S
C335 C333 1.327 . S
C336 C324 1.349 . S
C336 H330 0.950 . S
C336 C337 1.327 . S
C337 H331 0.950 . S
C337 C336 1.327 . S
C337 C341 1.429 . S
C338 C321 1.574 . S
C338 H332 0.949 . S
C338 C342 1.368 1_455 S
C339 C320 1.429 . S
C339 C333 1.429 . S
C339 C340 1.523 . S
C340 C321 1.368 . S
C340 C334 1.368 . S
C340 C339 1.523 . S
C341 C325 1.429 . S
C341 C337 1.429 . S
C341 C342 1.523 . S
C342 C326 1.368 . S
C342 C338 1.368 1_655 S
C342 C341 1.523 . S
H343 C318 0.950 . S
H344 C320 0.950 . S
H345 C321 0.949 . S
H346 C323 0.950 . S
H347 C325 0.950 . S
C348 C349 1.349 . S
C348 C350 1.327 . S
C348 H373 0.950 . S
C349 C348 1.349 . S
C349 C365 1.349 . S
C350 C348 1.327 . S
C350 C369 1.429 . S
C350 H374 0.950 . S
C351 C368 1.574 1_556 S
C351 C370 1.368 1_546 S
C351 H375 0.949 . S
H352 C356 0.949 . S
C353 C354 1.349 . S
C353 C355 1.327 . S
C353 H376 0.950 . S
C354 C353 1.349 . S
C354 C366 1.349 . S
C355 C353 1.327 . S
C355 C371 1.429 . S
C355 H377 0.950 . S
C356 H352 0.949 . S
C356 C364 1.574 1_545 S
C356 C372 1.368 . S
H357 C365 0.950 . S
H358 C363 0.950 . S
H359 C364 0.949 . S
H360 C366 0.950 . S
H361 C367 0.950 . S
H362 C368 0.949 . S
C363 H358 0.950 . S
C363 C365 1.327 . S
C363 C369 1.429 . S
C364 C356 1.574 1_565 S
C364 H359 0.949 . S
C364 C370 1.368 . S
C365 C349 1.349 . S
C365 H357 0.950 . S
C365 C363 1.327 . S
C366 C354 1.349 . S
C366 H360 0.950 . S
C366 C367 1.327 . S
C367 H361 0.950 . S
C367 C366 1.327 . S
C367 C371 1.429 . S
C368 C351 1.574 1_554 S
C368 H362 0.949 . S
C368 C372 1.368 . S
C369 C350 1.429 . S
C369 C363 1.429 . S
C369 C370 1.523 1_556 S
C370 C351 1.368 1_564 S
C370 C364 1.368 . S
C370 C369 1.523 1_554 S
C371 C355 1.429 . S
C371 C367 1.429 . S
C371 C372 1.523 . S
C372 C356 1.368 . S
C372 C368 1.368 . S
C372 C371 1.523 . S
H373 C348 0.950 . S
H374 C350 0.950 . S
H375 C351 0.949 . S
H376 C353 0.950 . S
H377 C355 0.950 . S
C378 C379 1.349 . S
C378 C380 1.327 . S
C378 H403 0.950 . S
C379 C378 1.349 . S
C379 C395 1.349 . S
C380 C378 1.327 . S
C380 C399 1.429 . S
C380 H404 0.950 . S
C381 C398 1.574 . S
C381 C400 1.368 . S
C381 H405 0.949 . S
H382 C386 0.949 . S
C383 C384 1.349 1_554 S
C383 C385 1.327 . S
C383 H406 0.950 . S
C384 C383 1.349 1_556 S
C384 C396 1.349 . S
C385 C383 1.327 . S
C385 C401 1.429 . S
C385 H407 0.950 . S
C386 H382 0.949 . S
C386 C394 1.574 . S
C386 C402 1.368 . S
H387 C395 0.950 . S
H388 C393 0.950 . S
H389 C394 0.949 . S
H390 C396 0.950 . S
H391 C397 0.950 . S
H392 C398 0.949 . S
C393 H388 0.950 . S
C393 C395 1.327 . S
C393 C399 1.429 . S
C394 C386 1.574 . S
C394 H389 0.949 . S
C394 C400 1.368 . S
C395 C379 1.349 . S
C395 H387 0.950 . S
C395 C393 1.327 . S
C396 C384 1.349 . S
C396 H390 0.950 . S
C396 C397 1.327 1_556 S
C397 H391 0.950 . S
C397 C396 1.327 1_554 S
C397 C401 1.429 . S
C398 C381 1.574 . S
C398 H392 0.949 . S
C398 C402 1.368 . S
C399 C380 1.429 . S
C399 C393 1.429 . S
C399 C400 1.523 . S
C400 C381 1.368 . S
C400 C394 1.368 . S
C400 C399 1.523 . S
C401 C385 1.429 . S
C401 C397 1.429 . S
C401 C402 1.523 . S
C402 C386 1.368 . S
C402 C398 1.368 . S
C402 C401 1.523 . S
H403 C378 0.950 . S
H404 C380 0.950 . S
H405 C381 0.949 . S
H406 C383 0.950 . S
H407 C385 0.950 . S
C408 C409 1.349 . S
C408 C410 1.327 . S
C408 H433 0.950 . S
C409 C408 1.349 . S
C409 C425 1.349 . S
C410 C408 1.327 . S
C410 C429 1.429 . S
C410 H434 0.950 . S
C411 C428 1.574 1_655 S
C411 C430 1.368 . S
C411 H435 0.949 . S
H412 C416 0.949 . S
C413 C414 1.349 . S
C413 C415 1.327 . S
C413 H436 0.950 . S
C414 C413 1.349 . S
C414 C426 1.349 . S
C415 C413 1.327 . S
C415 C431 1.429 . S
C415 H437 0.950 . S
C416 H412 0.949 . S
C416 C424 1.574 . S
C416 C432 1.368 1_655 S
H417 C425 0.950 . S
H418 C423 0.950 . S
H419 C424 0.949 . S
H420 C426 0.950 . S
H421 C427 0.950 . S
H422 C428 0.949 . S
C423 H418 0.950 . S
C423 C425 1.327 . S
C423 C429 1.429 . S
C424 C416 1.574 . S
C424 H419 0.949 . S
C424 C430 1.368 . S
C425 C409 1.349 . S
C425 H417 0.950 . S
C425 C423 1.327 . S
C426 C414 1.349 . S
C426 H420 0.950 . S
C426 C427 1.327 . S
C427 H421 0.950 . S
C427 C426 1.327 . S
C427 C431 1.429 . S
C428 C411 1.574 1_455 S
C428 H422 0.949 . S
C428 C432 1.368 . S
C429 C410 1.429 . S
C429 C423 1.429 . S
C429 C430 1.523 . S
C430 C411 1.368 . S
C430 C424 1.368 . S
C430 C429 1.523 . S
C431 C415 1.429 . S
C431 C427 1.429 . S
C431 C432 1.523 . S
C432 C416 1.368 1_455 S
C432 C428 1.368 . S
C432 C431 1.523 . S
H433 C408 0.950 . S
H434 C410 0.950 . S
H435 C411 0.949 . S
H436 C413 0.950 . S
H437 C415 0.950 . S
C438 C439 1.349 . S
C438 C440 1.327 . S
C438 H463 0.950 . S
C439 C438 1.349 . S
C439 C455 1.349 . S
C440 C438 1.327 . S
C440 C459 1.429 . S
C440 H464 0.950 . S
C441 C458 1.574 . S
C441 C460 1.368 1_565 S
C441 H465 0.949 . S
H442 C446 0.949 . S
C443 C444 1.349 . S
C443 C445 1.327 . S
C443 H466 0.950 . S
C444 C443 1.349 . S
C444 C456 1.349 . S
C445 C443 1.327 . S
C445 C461 1.429 . S
C445 H467 0.950 . S
C446 H442 0.949 . S
C446 C454 1.574 1_565 S
C446 C462 1.368 . S
H447 C455 0.950 . S
H448 C453 0.950 . S
H449 C454 0.949 . S
H450 C456 0.950 . S
H451 C457 0.950 . S
H452 C458 0.949 . S
C453 H448 0.950 . S
C453 C455 1.327 . S
C453 C459 1.429 . S
C454 C446 1.574 1_545 S
C454 H449 0.949 . S
C454 C460 1.368 . S
C455 C439 1.349 . S
C455 H447 0.950 . S
C455 C453 1.327 . S
C456 C444 1.349 . S
C456 H450 0.950 . S
C456 C457 1.327 . S
C457 H451 0.950 . S
C457 C456 1.327 . S
C457 C461 1.429 . S
C458 C441 1.574 . S
C458 H452 0.949 . S
C458 C462 1.368 . S
C459 C440 1.429 . S
C459 C453 1.429 . S
C459 C460 1.523 . S
C460 C441 1.368 1_545 S
C460 C454 1.368 . S
C460 C459 1.523 . S
C461 C445 1.429 . S
C461 C457 1.429 . S
C461 C462 1.523 . S
C462 C446 1.368 . S
C462 C458 1.368 . S
C462 C461 1.523 . S
H463 C438 0.950 . S
H464 C440 0.950 . S
H465 C441 0.949 . S
H466 C443 0.950 . S
H467 C445 0.950 . S
C468 C469 1.349 . S
C468 C470 1.327 . S
C468 H493 0.950 . S
C469 C468 1.349 . S
C469 C485 1.349 . S
C470 C468 1.327 . S
C470 C489 1.429 . S
C470 H494 0.950 . S
C471 C488 1.574 . S
C471 C490 1.368 . S
C471 H495 0.949 . S
H472 C476 0.949 . S
C473 C474 1.349 . S
C473 C475 1.327 . S
C473 H496 0.950 . S
C474 C473 1.349 . S
C474 C486 1.349 . S
C475 C473 1.327 . S
C475 C491 1.429 . S
C475 H497 0.950 . S
C476 H472 0.949 . S
C476 C484 1.574 . S
C476 C492 1.368 . S
H477 C485 0.950 . S
H478 C483 0.950 . S
H479 C484 0.949 . S
H480 C486 0.950 . S
H481 C487 0.950 . S
H482 C488 0.949 . S
C483 H478 0.950 . S
C483 C485 1.327 . S
C483 C489 1.429 . S
C484 C476 1.574 . S
C484 H479 0.949 . S
C484 C490 1.368 . S
C485 C469 1.349 . S
C485 H477 0.950 . S
C485 C483 1.327 . S
C486 C474 1.349 . S
C486 H480 0.950 . S
C486 C487 1.327 . S
C487 H481 0.950 . S
C487 C486 1.327 . S
C487 C491 1.429 . S
C488 C471 1.574 . S
C488 H482 0.949 . S
C488 C492 1.368 . S
C489 C470 1.429 . S
C489 C483 1.429 . S
C489 C490 1.523 . S
C490 C471 1.368 . S
C490 C484 1.368 . S
C490 C489 1.523 . S
C491 C475 1.429 . S
C491 C487 1.429 . S
C491 C492 1.523 . S
C492 C476 1.368 . S
C492 C488 1.368 . S
C492 C491 1.523 . S
H493 C468 0.950 . S
H494 C470 0.950 . S
H495 C471 0.949 . S
H496 C473 0.950 . S
H497 C475 0.950 . S
C498 C499 1.349 . S
C498 C500 1.327 . S
C498 H523 0.950 . S
C499 C498 1.349 . S
C499 C515 1.349 . S
C500 C498 1.327 . S
C500 C519 1.429 . S
C500 H524 0.950 . S
C501 C518 1.574 . S
C501 C520 1.368 . S
C501 H525 0.949 . S
H502 C506 0.949 . S
C503 C504 1.349 . S
C503 C505 1.327 . S
C503 H526 0.950 . S
C504 C503 1.349 . S
C504 C516 1.349 . S
C505 C503 1.327 . S
C505 C521 1.429 . S
C505 H527 0.950 . S
C506 H502 0.949 . S
C506 C514 1.574 . S
C506 C522 1.368 . S
H507 C515 0.950 . S
H508 C513 0.950 . S
H509 C514 0.949 . S
H510 C516 0.950 . S
H511 C517 0.950 . S
H512 C518 0.949 . S
C513 H508 0.950 . S
C513 C515 1.327 . S
C513 C519 1.429 . S
C514 C506 1.574 . S
C514 H509 0.949 . S
C514 C520 1.368 . S
C515 C499 1.349 . S
C515 H507 0.950 . S
C515 C513 1.327 . S
C516 C504 1.349 . S
C516 H510 0.950 . S
C516 C517 1.327 . S
C517 H511 0.950 . S
C517 C516 1.327 . S
C517 C521 1.429 . S
C518 C501 1.574 . S
C518 H512 0.949 . S
C518 C522 1.368 . S
C519 C500 1.429 . S
C519 C513 1.429 . S
C519 C520 1.523 . S
C520 C501 1.368 . S
C520 C514 1.368 . S
C520 C519 1.523 . S
C521 C505 1.429 . S
C521 C517 1.429 . S
C521 C522 1.523 . S
C522 C506 1.368 . S
C522 C518 1.368 . S
C522 C521 1.523 . S
H523 C498 0.950 . S
H524 C500 0.950 . S
H525 C501 0.949 . S
H526 C503 0.950 . S
H527 C505 0.950 . S
C528 C529 1.349 . S
C528 C530 1.327 . S
C528 H553 0.950 . S
C529 C528 1.349 . S
C529 C545 1.349 . S
C530 C528 1.327 . S
C530 C549 1.429 . S
C530 H554 0.950 . S
C531 C548 1.574 . S
C531 C550 1.368 . S
C531 H555 0.949 . S
H532 C536 0.949 . S
C533 C534 1.349 . S
C533 C535 1.327 . S
C533 H556 0.950 . S
C534 C533 1.349 . S
C534 C546 1.349 . S
C535 C533 1.327 . S
C535 C551 1.429 . S
C535 H557 0.950 . S
C536 H532 0.949 . S
C536 C544 1.574 . S
C536 C552 1.368 . S
H537 C545 0.950 . S
H538 C543 0.950 . S
H539 C544 0.949 . S
H540 C546 0.950 . S
H541 C547 0.950 . S
H542 C548 0.949 . S
C543 H538 0.950 . S
C543 C545 1.327 . S
C543 C549 1.429 . S
C544 C536 1.574 . S
C544 H539 0.949 . S
C544 C550 1.368 . S
C545 C529 1.349 . S
C545 H537 0.950 . S
C545 C543 1.327 . S
C546 C534 1.349 . S
C546 H540 0.950 . S
C546 C547 1.327 . S
C547 H541 0.950 . S
C547 C546 1.327 . S
C547 C551 1.429 . S
C548 C531 1.574 . S
C548 H542 0.949 . S
C548 C552 1.368 . S
C549 C530 1.429 . S
C549 C543 1.429 . S
C549 C550 1.523 . S
C550 C531 1.368 . S
C550 C544 1.368 . S
C550 C549 1.523 . S
C551 C535 1.429 . S
C551 C547 1.429 . S
C551 C552 1.523 . S
C552 C536 1.368 . S
C552 C548 1.368 . S
C552 C551 1.523 . S
H553 C528 0.950 . S
H554 C530 0.950 . S
H555 C531 0.949 . S
H556 C533 0.950 . S
H557 C535 0.950 . S
C558 C559 1.349 . S
C558 C560 1.327 . S
C558 H583 0.950 . S
C559 C558 1.349 . S
C559 C575 1.349 . S
C560 C558 1.327 . S
C560 C579 1.429 . S
C560 H584 0.950 . S
C561 C578 1.574 . S
C561 C580 1.368 . S
C561 H585 0.949 . S
H562 C566 0.949 . S
C563 C564 1.349 . S
C563 C565 1.327 . S
C563 H586 0.950 . S
C564 C563 1.349 . S
C564 C576 1.349 . S
C565 C563 1.327 . S
C565 C581 1.429 . S
C565 H587 0.950 . S
C566 H562 0.949 . S
C566 C574 1.574 . S
C566 C582 1.368 . S
H567 C575 0.950 . S
H568 C573 0.950 . S
H569 C574 0.949 . S
H570 C576 0.950 . S
H571 C577 0.950 . S
H572 C578 0.949 . S
C573 H568 0.950 . S
C573 C575 1.327 . S
C573 C579 1.429 . S
C574 C566 1.574 . S
C574 H569 0.949 . S
C574 C580 1.368 . S
C575 C559 1.349 . S
C575 H567 0.950 . S
C575 C573 1.327 . S
C576 C564 1.349 . S
C576 H570 0.950 . S
C576 C577 1.327 . S
C577 H571 0.950 . S
C577 C576 1.327 . S
C577 C581 1.429 . S
C578 C561 1.574 . S
C578 H572 0.949 . S
C578 C582 1.368 . S
C579 C560 1.429 . S
C579 C573 1.429 . S
C579 C580 1.523 . S
C580 C561 1.368 . S
C580 C574 1.368 . S
C580 C579 1.523 . S
C581 C565 1.429 . S
C581 C577 1.429 . S
C581 C582 1.523 . S
C582 C566 1.368 . S
C582 C578 1.368 . S
C582 C581 1.523 . S
H583 C558 0.950 . S
H584 C560 0.950 . S
H585 C561 0.949 . S
H586 C563 0.950 . S
H587 C565 0.950 . S
C588 C589 1.349 . S
C588 C590 1.327 . S
C588 H613 0.950 . S
C589 C588 1.349 . S
C589 C605 1.349 . S
C590 C588 1.327 . S
C590 C609 1.429 . S
C590 H614 0.950 . S
C591 C608 1.574 . S
C591 C610 1.368 . S
C591 H615 0.949 . S
H592 C596 0.949 . S
C593 C594 1.349 . S
C593 C595 1.327 . S
C593 H616 0.950 . S
C594 C593 1.349 . S
C594 C606 1.349 . S
C595 C593 1.327 . S
C595 C611 1.429 . S
C595 H617 0.950 . S
C596 H592 0.949 . S
C596 C604 1.574 . S
C596 C612 1.368 . S
H597 C605 0.950 . S
H598 C603 0.950 . S
H599 C604 0.949 . S
H600 C606 0.950 . S
H601 C607 0.950 . S
H602 C608 0.949 . S
C603 H598 0.950 . S
C603 C605 1.327 . S
C603 C609 1.429 . S
C604 C596 1.574 . S
C604 H599 0.949 . S
C604 C610 1.368 . S
C605 C589 1.349 . S
C605 H597 0.950 . S
C605 C603 1.327 . S
C606 C594 1.349 . S
C606 H600 0.950 . S
C606 C607 1.327 . S
C607 H601 0.950 . S
C607 C606 1.327 . S
C607 C611 1.429 . S
C608 C591 1.574 . S
C608 H602 0.949 . S
C608 C612 1.368 . S
C609 C590 1.429 . S
C609 C603 1.429 . S
C609 C610 1.523 . S
C610 C591 1.368 . S
C610 C604 1.368 . S
C610 C609 1.523 . S
C611 C595 1.429 . S
C611 C607 1.429 . S
C611 C612 1.523 . S
C612 C596 1.368 . S
C612 C608 1.368 . S
C612 C611 1.523 . S
H613 C588 0.950 . S
H614 C590 0.950 . S
H615 C591 0.949 . S
H616 C593 0.950 . S
H617 C595 0.950 . S
C618 C619 1.349 . S
C618 C620 1.327 . S
C618 H643 0.950 . S
C619 C618 1.349 . S
C619 C635 1.349 . S
C620 C618 1.327 . S
C620 C639 1.429 . S
C620 H644 0.950 . S
C621 C638 1.574 . S
C621 C640 1.368 . S
C621 H645 0.949 . S
H622 C626 0.949 . S
C623 C624 1.349 . S
C623 C625 1.327 . S
C623 H646 0.950 . S
C624 C623 1.349 . S
C624 C636 1.349 1_556 S
C625 C623 1.327 . S
C625 C641 1.429 . S
C625 H647 0.950 . S
C626 H622 0.949 . S
C626 C634 1.574 . S
C626 C642 1.368 . S
H627 C635 0.950 . S
H628 C633 0.950 . S
H629 C634 0.949 . S
H630 C636 0.950 . S
H631 C637 0.950 1_554 S
H632 C638 0.949 . S
C633 H628 0.950 . S
C633 C635 1.327 . S
C633 C639 1.429 . S
C634 C626 1.574 . S
C634 H629 0.949 . S
C634 C640 1.368 . S
C635 C619 1.349 . S
C635 H627 0.950 . S
C635 C633 1.327 . S
C636 C624 1.349 1_554 S
C636 H630 0.950 . S
C636 C637 1.327 1_554 S
C637 H631 0.950 1_556 S
C637 C636 1.327 1_556 S
C637 C641 1.429 . S
C638 C621 1.574 . S
C638 H632 0.949 . S
C638 C642 1.368 . S
C639 C620 1.429 . S
C639 C633 1.429 . S
C639 C640 1.523 . S
C640 C621 1.368 . S
C640 C634 1.368 . S
C640 C639 1.523 . S
C641 C625 1.429 . S
C641 C637 1.429 . S
C641 C642 1.523 . S
C642 C626 1.368 . S
C642 C638 1.368 . S
C642 C641 1.523 . S
H643 C618 0.950 . S
H644 C620 0.950 . S
H645 C621 0.949 . S
H646 C623 0.950 . S
H647 C625 0.950 . S
C648 C649 1.349 . S
C648 C650 1.327 . S
C648 H673 0.950 . S
C649 C648 1.349 . S
C649 C665 1.349 1_554 S
C650 C648 1.327 . S
C650 C669 1.429 . S
C650 H674 0.950 . S
C651 C668 1.574 . S
C651 C670 1.368 . S
C651 H675 0.949 1_554 S
H652 C656 0.949 . S
C653 C654 1.349 . S
C653 C655 1.327 . S
C653 H676 0.950 . S
C654 C653 1.349 . S
C654 C666 1.349 . S
C655 C653 1.327 . S
C655 C671 1.429 . S
C655 H677 0.950 . S
C656 H652 0.949 . S
C656 C664 1.574 . S
C656 C672 1.368 . S
H657 C665 0.950 . S
H658 C663 0.950 . S
H659 C664 0.949 . S
H660 C666 0.950 . S
H661 C667 0.950 . S
H662 C668 0.949 . S
C663 H658 0.950 . S
C663 C665 1.327 . S
C663 C669 1.429 1_556 S
C664 C656 1.574 . S
C664 H659 0.949 . S
C664 C670 1.368 . S
C665 C649 1.349 1_556 S
C665 H657 0.950 . S
C665 C663 1.327 . S
C666 C654 1.349 . S
C666 H660 0.950 . S
C666 C667 1.327 . S
C667 H661 0.950 . S
C667 C666 1.327 . S
C667 C671 1.429 . S
C668 C651 1.574 . S
C668 H662 0.949 . S
C668 C672 1.368 . S
C669 C650 1.429 . S
C669 C663 1.429 1_554 S
C669 C670 1.523 . S
C670 C651 1.368 . S
C670 C664 1.368 . S
C670 C669 1.523 . S
C671 C655 1.429 . S
C671 C667 1.429 . S
C671 C672 1.523 . S
C672 C656 1.368 . S
C672 C668 1.368 . S
C672 C671 1.523 . S
H673 C648 0.950 . S
H674 C650 0.950 . S
H675 C651 0.949 1_556 S
H676 C653 0.950 . S
H677 C655 0.950 . S
C319 C39 1.944 1_556 S
C324 C181 1.943 . S
C349 C234 1.882 . S
C354 C92 1.881 . S
C379 C128 1.913 . S
C384 C304 1.907 . S
C409 C198 1.944 . S
C414 C22 1.943 . S
C439 C75 1.882 . S
C444 C251 1.881 . S
C469 C287 1.913 . S
C474 C145 1.907 . S
C499 C38 1.930 . S
C504 C144 1.931 . S
C529 C91 1.830 . S
C534 C188 1.822 . S
C559 C241 1.698 . S
C564 C135 1.697 . S
C589 C303 1.932 . S
C594 C197 1.930 . S
C619 C250 1.830 . S
C624 C29 1.822 1_556 S
C649 C294 1.697 1_554 S
C654 C82 1.699 . S
