# Generated by pormake.
# Topology pcl, (4)-cn, num edge types: 1
# Building blocks:
#     Node 0, Type 0, BuildingBlock: GALJAG_clean_sbu_0, # of connection points: 4
#     Node 1, Type 0, BuildingBlock: GALJAG_clean_sbu_0, # of connection points: 4
#     Node 2, Type 0, BuildingBlock: GALJAG_clean_sbu_0, # of connection points: 4
#     Node 3, Type 0, BuildingBlock: GALJAG_clean_sbu_0, # of connection points: 4
#     Node 4, Type 0, BuildingBlock: GALJAG_clean_sbu_0, # of connection points: 4
#     Node 5, Type 0, BuildingBlock: GALJAG_clean_sbu_0, # of connection points: 4
#     Node 6, Type 0, BuildingBlock: GALJAG_clean_sbu_0, # of connection points: 4
#     Node 7, Type 0, BuildingBlock: GALJAG_clean_sbu_0, # of connection points: 4
#     Node 8, Type 0, BuildingBlock: GALJAG_clean_sbu_0, # of connection points: 4
#     Node 9, Type 0, BuildingBlock: GALJAG_clean_sbu_0, # of connection points: 4
#     Node 10, Type 0, BuildingBlock: GALJAG_clean_sbu_0, # of connection points: 4
#     Node 11, Type 0, BuildingBlock: GALJAG_clean_sbu_0, # of connection points: 4
#     Node 12, Type 0, BuildingBlock: GALJAG_clean_sbu_0, # of connection points: 4
#     Node 13, Type 0, BuildingBlock: GALJAG_clean_sbu_0, # of connection points: 4
#     Node 14, Type 0, BuildingBlock: GALJAG_clean_sbu_0, # of connection points: 4
#     Node 15, Type 0, BuildingBlock: GALJAG_clean_sbu_0, # of connection points: 4
#     Edge 16, Type (0, 0), BuildingBlock: XUDNAN_clean_linker_2, # of connection points: 2
#     Edge 17, Type (0, 0), BuildingBlock: XUDNAN_clean_linker_2, # of connection points: 2
#     Edge 18, Type (0, 0), BuildingBlock: XUDNAN_clean_linker_2, # of connection points: 2
#     Edge 19, Type (0, 0), BuildingBlock: XUDNAN_clean_linker_2, # of connection points: 2
#     Edge 20, Type (0, 0), BuildingBlock: XUDNAN_clean_linker_2, # of connection points: 2
#     Edge 21, Type (0, 0), BuildingBlock: XUDNAN_clean_linker_2, # of connection points: 2
#     Edge 22, Type (0, 0), BuildingBlock: XUDNAN_clean_linker_2, # of connection points: 2
#     Edge 23, Type (0, 0), BuildingBlock: XUDNAN_clean_linker_2, # of connection points: 2
#     Edge 24, Type (0, 0), BuildingBlock: XUDNAN_clean_linker_2, # of connection points: 2
#     Edge 25, Type (0, 0), BuildingBlock: XUDNAN_clean_linker_2, # of connection points: 2
#     Edge 26, Type (0, 0), BuildingBlock: XUDNAN_clean_linker_2, # of connection points: 2
#     Edge 27, Type (0, 0), BuildingBlock: XUDNAN_clean_linker_2, # of connection points: 2
#     Edge 28, Type (0, 0), BuildingBlock: XUDNAN_clean_linker_2, # of connection points: 2
#     Edge 29, Type (0, 0), BuildingBlock: XUDNAN_clean_linker_2, # of connection points: 2
#     Edge 30, Type (0, 0), BuildingBlock: XUDNAN_clean_linker_2, # of connection points: 2
#     Edge 31, Type (0, 0), BuildingBlock: XUDNAN_clean_linker_2, # of connection points: 2
#     Edge 32, Type (0, 0), BuildingBlock: XUDNAN_clean_linker_2, # of connection points: 2
#     Edge 33, Type (0, 0), BuildingBlock: XUDNAN_clean_linker_2, # of connection points: 2
#     Edge 34, Type (0, 0), BuildingBlock: XUDNAN_clean_linker_2, # of connection points: 2
#     Edge 35, Type (0, 0), BuildingBlock: XUDNAN_clean_linker_2, # of connection points: 2
#     Edge 36, Type (0, 0), BuildingBlock: XUDNAN_clean_linker_2, # of connection points: 2
#     Edge 37, Type (0, 0), BuildingBlock: XUDNAN_clean_linker_2, # of connection points: 2
#     Edge 38, Type (0, 0), BuildingBlock: XUDNAN_clean_linker_2, # of connection points: 2
#     Edge 39, Type (0, 0), BuildingBlock: XUDNAN_clean_linker_2, # of connection points: 2
#     Edge 40, Type (0, 0), BuildingBlock: XUDNAN_clean_linker_2, # of connection points: 2
#     Edge 41, Type (0, 0), BuildingBlock: XUDNAN_clean_linker_2, # of connection points: 2
#     Edge 42, Type (0, 0), BuildingBlock: XUDNAN_clean_linker_2, # of connection points: 2
#     Edge 43, Type (0, 0), BuildingBlock: XUDNAN_clean_linker_2, # of connection points: 2
#     Edge 44, Type (0, 0), BuildingBlock: XUDNAN_clean_linker_2, # of connection points: 2
#     Edge 45, Type (0, 0), BuildingBlock: XUDNAN_clean_linker_2, # of connection points: 2
#     Edge 46, Type (0, 0), BuildingBlock: XUDNAN_clean_linker_2, # of connection points: 2
#     Edge 47, Type (0, 0), BuildingBlock: XUDNAN_clean_linker_2, # of connection points: 2
# Relax obj value: 0.122
# Max RMSD: 0.108
# Mean RMSD: 0.092
data_MOF--net-pcl--node1-GALJAG_clean_sbu_0--edge1-XUDNAN_clean_linker_2
_symmetry_space_group_name_H-M    P1
_symmetry_Int_Tables_number       1
_symmetry_cell_setting            triclinic
loop_
_symmetry_equiv_pos_as_xyz
'x, y, z'
_cell_length_a     52.965505
_cell_length_b     40.024566
_cell_length_c     43.659943
_cell_angle_alpha  90.028861
_cell_angle_beta   89.995283
_cell_angle_gamma 89.990349
loop_
_atom_site_label
_atom_site_type_symbol
_atom_site_fract_x
_atom_site_fract_y
_atom_site_fract_z
_atom_type_partial_charge
In0 In 0.11754 0.31332 0.08397 0.0
O1 O 0.13314 0.26487 0.06426 0.0
O2 O 0.15339 0.30965 0.05502 0.0
C3 C 0.06968 0.28871 0.08485 0.0
C4 C 0.13961 0.31544 0.13993 0.0
C5 C 0.11343 0.37618 0.06257 0.0
O6 O 0.07939 0.30122 0.06118 0.0
O7 O 0.08425 0.28775 0.10756 0.0
O8 O 0.11081 0.36884 0.09047 0.0
O9 O 0.11822 0.35171 0.04523 0.0
C10 C 0.15216 0.27834 0.05194 0.0
O11 O 0.12592 0.33871 0.12983 0.0
O12 O 0.14228 0.29119 0.12182 0.0
In13 In 0.87297 0.66986 0.57644 0.0
O14 O 0.86337 0.70572 0.53706 0.0
O15 O 0.83305 0.68519 0.56234 0.0
C16 C 0.92109 0.69237 0.57342 0.0
C17 C 0.85655 0.67177 0.63517 0.0
C18 C 0.87789 0.60567 0.55833 0.0
O19 O 0.9038 0.7089 0.58639 0.0
O20 O 0.91393 0.66524 0.56165 0.0
O21 O 0.88405 0.61558 0.58474 0.0
O22 O 0.86886 0.62805 0.54116 0.0
C23 C 0.83981 0.70367 0.54054 0.0
O24 O 0.84827 0.65122 0.61573 0.0
O25 O 0.87314 0.69149 0.62504 0.0
In26 In 0.13659 0.64534 0.92343 0.0
O27 O 0.15093 0.61878 0.88072 0.0
O28 O 0.1441 0.67103 0.8776 0.0
C29 C 0.12473 0.5919 0.95788 0.0
C30 C 0.17908 0.66729 0.95116 0.0
C31 C 0.08961 0.67136 0.92276 0.0
O32 O 0.13089 0.58924 0.93002 0.0
O33 O 0.12451 0.62138 0.96811 0.0
O34 O 0.10716 0.68407 0.93858 0.0
O35 O 0.09606 0.64645 0.90687 0.0
C36 C 0.15123 0.64468 0.86426 0.0
O37 O 0.16098 0.68676 0.94497 0.0
O38 O 0.17568 0.63743 0.94312 0.0
In39 In 0.87884 0.33176 0.42415 0.0
O40 O 0.87068 0.35481 0.3774 0.0
O41 O 0.86009 0.30403 0.38496 0.0
C42 C 0.88917 0.3885 0.45515 0.0
C43 C 0.8374 0.30985 0.45387 0.0
C44 C 0.92483 0.30329 0.41753 0.0
O45 O 0.87955 0.38878 0.42869 0.0
O46 O 0.89418 0.35981 0.46537 0.0
O47 O 0.91196 0.29947 0.44163 0.0
O48 O 0.91443 0.32077 0.39717 0.0
C49 C 0.86072 0.32853 0.3667 0.0
O50 O 0.85653 0.2913 0.45032 0.0
O51 O 0.83958 0.33877 0.44282 0.0
In52 In 0.85535 0.67061 0.9173 0.0
O53 O 0.84334 0.72027 0.93842 0.0
O54 O 0.81685 0.6805 0.93939 0.0
C55 C 0.90524 0.68394 0.92285 0.0
C56 C 0.85651 0.608 0.94063 0.0
C57 C 0.84126 0.67737 0.85801 0.0
O58 O 0.89624 0.66538 0.90225 0.0
O59 O 0.88903 0.69611 0.94088 0.0
O60 O 0.83097 0.65686 0.87601 0.0
O61 O 0.858 0.69539 0.87018 0.0
C62 C 0.82169 0.7104 0.94638 0.0
O63 O 0.8575 0.61417 0.91238 0.0
O64 O 0.85456 0.63349 0.95747 0.0
In65 In 0.15085 0.33782 0.41856 0.0
O66 O 0.15174 0.39478 0.42398 0.0
O67 O 0.13293 0.36608 0.45797 0.0
C68 C 0.16516 0.33396 0.35957 0.0
C69 C 0.19271 0.31727 0.44826 0.0
C70 C 0.10542 0.30743 0.41436 0.0
O71 O 0.15496 0.35985 0.3707 0.0
O72 O 0.16872 0.3105 0.37845 0.0
O73 O 0.11914 0.30423 0.43786 0.0
O74 O 0.11467 0.3254 0.39355 0.0
C75 C 0.13978 0.3946 0.44902 0.0
O76 O 0.17414 0.29797 0.4439 0.0
O77 O 0.19 0.34627 0.43757 0.0
In78 In 0.84376 0.33996 0.08562 0.0
O79 O 0.84543 0.39693 0.07873 0.0
O80 O 0.85794 0.36539 0.04267 0.0
C81 C 0.83304 0.3368 0.14574 0.0
C82 C 0.79953 0.31975 0.06113 0.0
C83 C 0.88868 0.3081 0.08697 0.0
O84 O 0.84197 0.36291 0.13346 0.0
O85 O 0.82896 0.31287 0.12749 0.0
O86 O 0.87336 0.30407 0.06511 0.0
O87 O 0.88137 0.32779 0.10762 0.0
C88 C 0.85409 0.3948 0.05184 0.0
O89 O 0.81876 0.30101 0.06164 0.0
O90 O 0.80274 0.34812 0.07308 0.0
In91 In 0.15305 0.67004 0.58217 0.0
O92 O 0.13891 0.61664 0.58528 0.0
O93 O 0.15965 0.63006 0.54544 0.0
C94 C 0.16593 0.66454 0.64194 0.0
C95 C 0.18741 0.70723 0.55103 0.0
C96 C 0.1052 0.6932 0.57732 0.0
O97 O 0.17307 0.64407 0.62179 0.0
O98 O 0.15289 0.6885 0.63186 0.0
O99 O 0.1212 0.70655 0.59493 0.0
O100 O 0.11357 0.66908 0.5618 0.0
C101 C 0.14774 0.60761 0.55975 0.0
O102 O 0.16392 0.71081 0.54803 0.0
O103 O 0.19372 0.68515 0.57008 0.0
In104 In 0.63787 0.84879 0.07411 0.0
O105 O 0.64735 0.8787 0.11658 0.0
O106 O 0.64224 0.82641 0.12231 0.0
C107 C 0.63175 0.90192 0.03686 0.0
C108 C 0.68152 0.82223 0.05292 0.0
C109 C 0.59005 0.82534 0.07162 0.0
O110 O 0.63547 0.90469 0.06527 0.0
O111 O 0.63109 0.87225 0.02712 0.0
O112 O 0.60813 0.81034 0.05863 0.0
O113 O 0.59633 0.85126 0.08611 0.0
C114 C 0.64696 0.85424 0.13474 0.0
O115 O 0.66141 0.80529 0.05432 0.0
O116 O 0.67949 0.85172 0.06263 0.0
In117 In 0.37171 0.17075 0.57677 0.0
O118 O 0.3569 0.22212 0.5626 0.0
O119 O 0.33394 0.17991 0.55319 0.0
C120 C 0.42134 0.18597 0.57728 0.0
C121 C 0.35407 0.16672 0.63469 0.0
C122 C 0.37613 0.11619 0.54096 0.0
O123 O 0.4054 0.20216 0.56175 0.0
O124 O 0.41214 0.16272 0.59328 0.0
O125 O 0.37111 0.1143 0.56916 0.0
O126 O 0.37863 0.14551 0.53086 0.0
C127 C 0.33654 0.21114 0.5515 0.0
O128 O 0.3484 0.14593 0.61412 0.0
O129 O 0.36887 0.1896 0.62618 0.0
In130 In 0.62015 0.1863 0.92113 0.0
O131 O 0.64042 0.17287 0.87692 0.0
O132 O 0.62374 0.22102 0.8797 0.0
C133 C 0.62071 0.12158 0.93845 0.0
C134 C 0.65435 0.22192 0.95342 0.0
C135 C 0.57001 0.1979 0.92738 0.0
O136 O 0.61871 0.13062 0.91093 0.0
O137 O 0.62251 0.14522 0.95745 0.0
O138 O 0.58567 0.20451 0.94827 0.0
O139 O 0.57967 0.18604 0.90336 0.0
C140 C 0.63594 0.20024 0.86376 0.0
O141 O 0.63254 0.23275 0.94738 0.0
O142 O 0.65897 0.19309 0.94314 0.0
In143 In 0.37455 0.83447 0.41935 0.0
O144 O 0.35293 0.7982 0.45148 0.0
O145 O 0.33203 0.83139 0.42363 0.0
C146 C 0.42053 0.80661 0.42953 0.0
C147 C 0.3658 0.83926 0.35857 0.0
C148 C 0.38088 0.89702 0.4406 0.0
O149 O 0.40539 0.79508 0.40988 0.0
O150 O 0.41199 0.83079 0.44474 0.0
O151 O 0.3888 0.8876 0.41472 0.0
O152 O 0.37001 0.87463 0.45619 0.0
C153 C 0.33146 0.80873 0.44349 0.0
O154 O 0.36514 0.86379 0.37662 0.0
O155 O 0.37131 0.81171 0.37102 0.0
In156 In 0.33788 0.15662 0.91606 0.0
O157 O 0.35521 0.10786 0.93379 0.0
O158 O 0.31648 0.10786 0.92114 0.0
C159 C 0.32725 0.162 0.8557 0.0
C160 C 0.3031 0.18532 0.953 0.0
C161 C 0.38587 0.17758 0.92446 0.0
O162 O 0.32148 0.13687 0.87154 0.0
O163 O 0.33788 0.1852 0.87043 0.0
O164 O 0.37966 0.15628 0.90456 0.0
O165 O 0.36777 0.18865 0.94036 0.0
C166 C 0.33487 0.09157 0.93173 0.0
O167 O 0.31735 0.16185 0.96123 0.0
O168 O 0.30726 0.19618 0.92633 0.0
In169 In 0.65126 0.83459 0.42032 0.0
O170 O 0.64949 0.89041 0.43053 0.0
O171 O 0.65964 0.85774 0.46695 0.0
C172 C 0.65297 0.84681 0.35949 0.0
C173 C 0.6944 0.80162 0.43414 0.0
C174 C 0.60388 0.81051 0.4291 0.0
O175 O 0.65655 0.86912 0.37942 0.0
O176 O 0.64842 0.81815 0.37019 0.0
O177 O 0.62155 0.79251 0.41896 0.0
O178 O 0.61025 0.84004 0.43527 0.0
C179 C 0.65588 0.88742 0.45827 0.0
O180 O 0.67361 0.79482 0.44685 0.0
O181 O 0.69315 0.82413 0.41405 0.0
In182 In 0.35536 0.82389 0.07429 0.0
O183 O 0.33073 0.86725 0.05953 0.0
O184 O 0.36632 0.86216 0.03743 0.0
C185 C 0.34795 0.83166 0.13525 0.0
C186 C 0.32181 0.77927 0.0514 0.0
C187 C 0.40535 0.81292 0.06759 0.0
O188 O 0.34793 0.85552 0.11652 0.0
O189 O 0.35131 0.80332 0.12331 0.0
O190 O 0.38911 0.79737 0.05184 0.0
O191 O 0.39629 0.83387 0.08618 0.0
C192 C 0.34593 0.87832 0.03979 0.0
O193 O 0.34256 0.77012 0.06292 0.0
O194 O 0.31824 0.81029 0.0517 0.0
In195 In 0.65646 0.16735 0.584 0.0
O196 O 0.66947 0.11334 0.58946 0.0
O197 O 0.65273 0.12717 0.54711 0.0
C198 C 0.66173 0.18629 0.64313 0.0
C199 C 0.69229 0.20325 0.55465 0.0
C200 C 0.60642 0.17721 0.57572 0.0
O201 O 0.66358 0.15626 0.63467 0.0
O202 O 0.65779 0.20673 0.62174 0.0
O203 O 0.62296 0.19045 0.55887 0.0
O204 O 0.61507 0.15848 0.59643 0.0
C205 C 0.66245 0.10429 0.56312 0.0
O206 O 0.66927 0.21114 0.55496 0.0
O207 O 0.69749 0.17685 0.56909 0.0
H208 H 0.03253 0.29765 0.04175 0.0
H209 H 0.04589 0.26017 0.13356 0.0
H210 H 1.00011 0.25259 0.14077 0.0
H211 H 0.98127 0.34558 0.05918 0.0
H212 H 0.96361 0.33767 0.02464 0.0
H213 H 0.99745 0.3344 0.02431 0.0
H214 H 0.99423 0.27371 0.00403 0.0
H215 H 0.96026 0.27684 0.00416 0.0
H216 H 0.97562 0.2435 0.02472 0.0
H217 H 0.95374 0.25921 0.14191 0.0
H218 H 0.90934 0.27691 0.13571 0.0
H219 H 0.92484 0.30723 0.0424 0.0
C220 C 0.02584 0.2868 0.06296 0.0
C221 C 0.04275 0.27932 0.08705 0.0
C222 C 0.03328 0.2659 0.11475 0.0
C223 C 0.0073 0.26141 0.11903 0.0
C224 C 0.99103 0.27006 0.09525 0.0
C225 C 0.99988 0.28206 0.06757 0.0
C226 C 0.97824 0.29254 0.04693 0.0
C227 C 0.98027 0.32975 0.03828 0.0
C228 C 0.97702 0.27031 0.01826 0.0
C229 C 0.95595 0.28611 0.06791 0.0
C230 C 0.96379 0.2728 0.09556 0.0
C231 C 0.94722 0.26858 0.12005 0.0
C232 C 0.9221 0.27874 0.11639 0.0
C233 C 0.91375 0.29248 0.08837 0.0
C234 C 0.93069 0.29552 0.0636 0.0
H235 H 0.96014 0.66069 0.54516 0.0
H236 H 0.94276 0.74593 0.60282 0.0
H237 H 0.98842 0.75875 0.60686 0.0
H238 H 0.01306 0.634 0.58556 0.0
H239 H 0.03059 0.62091 0.55227 0.0
H240 H 0.99665 0.62082 0.55145 0.0
H241 H 0.99716 0.65895 0.50347 0.0
H242 H 0.03118 0.65907 0.50407 0.0
H243 H 0.01409 0.69801 0.50466 0.0
H244 H 0.03651 0.75851 0.6085 0.0
H245 H 0.08232 0.74596 0.60661 0.0
H246 H 0.06721 0.66148 0.54711 0.0
C247 C 0.96586 0.68244 0.5582 0.0
C248 C 0.94794 0.70241 0.5736 0.0
C249 C 0.95621 0.73043 0.59068 0.0
C250 C 0.98208 0.73787 0.5931 0.0
C251 C 0.99933 0.7172 0.57807 0.0
C252 C 0.99147 0.69021 0.56075 0.0
C253 C 0.01363 0.6707 0.54821 0.0
C254 C 0.01346 0.63448 0.5601 0.0
C255 C 0.01403 0.67177 0.51301 0.0
C256 C 0.03526 0.69045 0.56168 0.0
C257 C 0.02674 0.7173 0.57873 0.0
C258 C 0.04338 0.73785 0.59483 0.0
C259 C 0.06934 0.73054 0.59366 0.0
C260 C 0.0783 0.70294 0.57651 0.0
C261 C 0.06098 0.68305 0.56006 0.0
H262 H 0.9429 0.65531 0.8894 0.0
H263 H 0.9295 0.72583 0.96311 0.0
H264 H 0.97565 0.73402 0.96867 0.0
H265 H 0.99551 0.61601 0.92277 0.0
H266 H 0.01198 0.60991 0.88707 0.0
H267 H 0.97806 0.61196 0.88751 0.0
H268 H 0.97929 0.66015 0.84788 0.0
H269 H 0.01327 0.65831 0.84737 0.0
H270 H 0.99754 0.69711 0.85603 0.0
H271 H 0.02372 0.73206 0.96753 0.0
H272 H 0.06906 0.71839 0.96128 0.0
H273 H 0.05004 0.64872 0.88872 0.0
C274 C 0.94962 0.6728 0.90649 0.0
C275 C 0.93265 0.69007 0.92575 0.0
C276 C 0.94222 0.71242 0.94807 0.0
C277 C 0.96837 0.71729 0.95131 0.0
C278 C 0.98462 0.69964 0.93203 0.0
C279 C 0.97555 0.67781 0.91009 0.0
C280 C 0.9968 0.66042 0.89333 0.0
C281 C 0.99551 0.62233 0.89797 0.0
C282 C 0.99671 0.66956 0.85913 0.0
C283 C 0.01932 0.67541 0.90957 0.0
C284 C 0.01201 0.69825 0.9316 0.0
C285 C 0.02964 0.7144 0.95018 0.0
C286 C 0.05533 0.70655 0.94644 0.0
C287 C 0.06305 0.68258 0.92447 0.0
C288 C 0.04476 0.6673 0.90559 0.0
H289 H 0.06977 0.29981 0.45943 0.0
H290 H 0.08299 0.28637 0.36226 0.0
H291 H 0.03801 0.27308 0.35462 0.0
H292 H 0.0165 0.23604 0.46726 0.0
H293 H 0.99956 0.2627 0.49345 0.0
H294 H 0.0336 0.26328 0.49278 0.0
H295 H 0.03279 0.3272 0.48365 0.0
H296 H 0.99888 0.32681 0.4841 0.0
H297 H 0.01543 0.34367 0.4515 0.0
H298 H 0.99176 0.27224 0.35535 0.0
H299 H 0.94664 0.2836 0.36452 0.0
H300 H 0.96174 0.29737 0.46126 0.0
C301 C 0.06328 0.29259 0.43686 0.0
C302 C 0.07979 0.29349 0.41148 0.0
C303 C 0.0706 0.28541 0.38199 0.0
C304 C 0.04512 0.2777 0.37747 0.0
C305 C 0.02901 0.27826 0.40268 0.0
C306 C 0.03767 0.28528 0.43189 0.0
C307 C 0.01579 0.2889 0.45414 0.0
C308 C 0.0164 0.26106 0.47834 0.0
C309 C 0.01573 0.32371 0.46921 0.0
C310 C 0.99356 0.28456 0.43256 0.0
C311 C 0.00171 0.27779 0.4031 0.0
C312 C 0.98507 0.27658 0.37843 0.0
C313 C 0.9595 0.28317 0.38381 0.0
C314 C 0.95078 0.29072 0.41362 0.0
C315 C 0.96789 0.29054 0.43844 0.0
H316 H 0.44263 0.84682 0.09713 0.0
H317 H 0.4302 0.76723 0.03136 0.0
H318 H 0.4765 0.75931 0.02679 0.0
H319 H 0.49596 0.88236 0.06038 0.0
H320 H 0.51173 0.89285 0.09569 0.0
H321 H 0.4778 0.89084 0.09444 0.0
H322 H 0.4781 0.84797 0.13896 0.0
H323 H 0.51206 0.84976 0.14027 0.0
H324 H 0.49636 0.81017 0.13528 0.0
H325 H 0.52478 0.76149 0.02894 0.0
H326 H 0.57011 0.77491 0.03618 0.0
H327 H 0.54961 0.85322 0.10026 0.0
C328 C 0.44958 0.82757 0.08186 0.0
C329 C 0.43286 0.80756 0.06464 0.0
C330 C 0.44274 0.78281 0.04478 0.0
C331 C 0.46897 0.7781 0.04211 0.0
C332 C 0.48496 0.79835 0.05947 0.0
C333 C 0.47556 0.82264 0.07889 0.0
C334 C 0.49651 0.84194 0.09434 0.0
C335 C 0.49543 0.87919 0.08568 0.0
C336 C 0.4957 0.83716 0.12928 0.0
C337 C 0.51927 0.82498 0.08045 0.0
C338 C 0.51236 0.79974 0.06053 0.0
C339 C 0.53037 0.78112 0.04459 0.0
C340 C 0.55604 0.78884 0.04888 0.0
C341 C 0.56335 0.81504 0.06881 0.0
C342 C 0.54464 0.83296 0.08494 0.0
H343 H 0.56715 0.14742 0.60606 0.0
H344 H 0.58423 0.22224 0.53719 0.0
H345 H 0.53872 0.23453 0.53185 0.0
H346 H 0.51125 0.116 0.56995 0.0
H347 H 0.49472 0.10906 0.60548 0.0
H348 H 0.52867 0.10699 0.60445 0.0
H349 H 0.5311 0.15168 0.64734 0.0
H350 H 0.49714 0.15404 0.64837 0.0
H351 H 0.51552 0.19131 0.64206 0.0
H352 H 0.4914 0.23844 0.53385 0.0
H353 H 0.44541 0.23152 0.54095 0.0
H354 H 0.45924 0.15355 0.60795 0.0
C355 C 0.56131 0.16643 0.58989 0.0
C356 C 0.57918 0.18395 0.57207 0.0
C357 C 0.57082 0.20851 0.55104 0.0
C358 C 0.54504 0.21574 0.54794 0.0
C359 C 0.5279 0.19812 0.56595 0.0
C360 C 0.53566 0.17383 0.58638 0.0
C361 C 0.51335 0.15782 0.60236 0.0
C362 C 0.51192 0.12025 0.59511 0.0
C363 C 0.51434 0.1641 0.63709 0.0
C364 C 0.49182 0.17679 0.58761 0.0
C365 C 0.50062 0.2001 0.56685 0.0
C366 C 0.48427 0.22032 0.55008 0.0
C367 C 0.4582 0.21626 0.55432 0.0
C368 C 0.44878 0.19206 0.57503 0.0
C369 C 0.46588 0.17237 0.59207 0.0
H370 H 0.53303 0.17561 0.88905 0.0
H371 H 0.54484 0.22859 0.97455 0.0
H372 H 0.49856 0.23243 0.98186 0.0
H373 H 0.47631 0.22028 0.86486 0.0
H374 H 0.46191 0.18322 0.8492 0.0
H375 H 0.49579 0.18723 0.84969 0.0
H376 H 0.49934 0.13128 0.87928 0.0
H377 H 0.46552 0.12713 0.87893 0.0
H378 H 0.48238 0.12617 0.91478 0.0
H379 H 0.45069 0.22826 0.98054 0.0
H380 H 0.40564 0.21461 0.97166 0.0
H381 H 0.42604 0.16294 0.88786 0.0
C382 C 0.52589 0.18846 0.9091 0.0
C383 C 0.54247 0.20202 0.93115 0.0
C384 C 0.53242 0.21816 0.95732 0.0
C385 C 0.50619 0.22051 0.96162 0.0
C386 C 0.49034 0.20651 0.93956 0.0
C387 C 0.49986 0.19076 0.91384 0.0
C388 C 0.479 0.17608 0.8944 0.0
C389 C 0.47821 0.19271 0.86266 0.0
C390 C 0.48173 0.13791 0.89171 0.0
C391 C 0.45622 0.18558 0.91338 0.0
C392 C 0.46305 0.20346 0.93917 0.0
C393 C 0.44514 0.2144 0.96035 0.0
C394 C 0.41963 0.20657 0.95513 0.0
C395 C 0.41241 0.1877 0.92912 0.0
C396 C 0.43099 0.17739 0.90796 0.0
H397 H 0.45824 0.83845 0.46005 0.0
H398 H 0.44329 0.75203 0.40295 0.0
H399 H 0.48908 0.7393 0.40178 0.0
H400 H 0.51059 0.86498 0.42026 0.0
H401 H 0.5277 0.88 0.45318 0.0
H402 H 0.49379 0.87877 0.45389 0.0
H403 H 0.49497 0.84243 0.50299 0.0
H404 H 0.52899 0.84369 0.50254 0.0
H405 H 0.51282 0.80407 0.50311 0.0
H406 H 0.53714 0.73955 0.40291 0.0
H407 H 0.58258 0.75419 0.40415 0.0
H408 H 0.56524 0.84195 0.45849 0.0
C409 C 0.46448 0.81626 0.44804 0.0
C410 C 0.4472 0.79594 0.43193 0.0
C411 C 0.45621 0.7677 0.41573 0.0
C412 C 0.48217 0.76028 0.41499 0.0
C413 C 0.4988 0.78141 0.43051 0.0
C414 C 0.49023 0.80882 0.44675 0.0
C415 C 0.51189 0.82972 0.45873 0.0
C416 C 0.51093 0.86546 0.44572 0.0
C417 C 0.51218 0.82998 0.49394 0.0
C418 C 0.53405 0.81036 0.44602 0.0
C419 C 0.52623 0.7822 0.4303 0.0
C420 C 0.54344 0.76133 0.41545 0.0
C421 C 0.56921 0.7698 0.41629 0.0
C422 C 0.57738 0.79916 0.43145 0.0
C423 C 0.55955 0.81926 0.44686 0.0
H424 H 0.13306 0.3628 0.18444 0.0
H425 H 0.17018 0.26829 0.16587 0.0
H426 H 0.18544 0.26637 0.21931 0.0
H427 H 0.18091 0.3956 0.23915 0.0
H428 H 0.15712 0.41453 0.26306 0.0
H429 H 0.15194 0.41063 0.2224 0.0
H430 H 0.11013 0.37891 0.2327 0.0
H431 H 0.11517 0.38271 0.27327 0.0
H432 H 0.11057 0.34204 0.25641 0.0
H433 H 0.19246 0.2715 0.2758 0.0
H434 H 0.19032 0.28297 0.33132 0.0
H435 H 0.14903 0.37445 0.31308 0.0
C436 C 0.14485 0.34206 0.19146 0.0
C437 C 0.15054 0.31575 0.17104 0.0
C438 C 0.16569 0.28877 0.18115 0.0
C439 C 0.17451 0.28753 0.21141 0.0
C440 C 0.16818 0.31359 0.23116 0.0
C441 C 0.1538 0.34044 0.22157 0.0
C442 C 0.14794 0.36383 0.2479 0.0
C443 C 0.16022 0.39818 0.24281 0.0
C444 C 0.11926 0.36703 0.25286 0.0
C445 C 0.16047 0.34531 0.27402 0.0
C446 C 0.17235 0.31663 0.26381 0.0
C447 C 0.18362 0.29417 0.284 0.0
C448 C 0.18228 0.30087 0.31549 0.0
C449 C 0.1697 0.32972 0.32644 0.0
C450 C 0.15918 0.35253 0.30533 0.0
H451 H 0.87654 0.7072 0.68313 0.0
H452 H 0.81752 0.63639 0.65998 0.0
H453 H 0.80438 0.63452 0.71424 0.0
H454 H 0.89442 0.66889 0.75211 0.0
H455 H 0.9008 0.70731 0.77224 0.0
H456 H 0.90384 0.70569 0.73122 0.0
H457 H 0.87249 0.75511 0.72609 0.0
H458 H 0.8693 0.75682 0.76716 0.0
H459 H 0.84168 0.75212 0.74343 0.0
H460 H 0.79973 0.63707 0.77135 0.0
H461 H 0.80479 0.64247 0.82739 0.0
H462 H 0.86689 0.71152 0.81345 0.0
C463 C 0.86059 0.69172 0.68942 0.0
C464 C 0.84794 0.67206 0.66736 0.0
C465 C 0.82742 0.65171 0.67653 0.0
C466 C 0.81977 0.65059 0.70726 0.0
C467 C 0.8328 0.67 0.72852 0.0
C468 C 0.85279 0.69019 0.72003 0.0
C469 C 0.86471 0.7068 0.74765 0.0
C470 C 0.89259 0.69655 0.75099 0.0
C471 C 0.86187 0.74498 0.74598 0.0
C472 C 0.84866 0.69225 0.77307 0.0
C473 C 0.83018 0.67137 0.76152 0.0
C474 C 0.81392 0.65366 0.78066 0.0
C475 C 0.81694 0.65689 0.81244 0.0
C476 C 0.83611 0.67758 0.82474 0.0
C477 C 0.85183 0.69591 0.80472 0.0
H478 H 0.14142 0.69159 0.82021 0.0
H479 H 0.17764 0.59571 0.83494 0.0
H480 H 0.18898 0.59316 0.78009 0.0
H481 H 0.11361 0.67031 0.7496 0.0
H482 H 0.11749 0.71102 0.73259 0.0
H483 H 0.11466 0.70704 0.77349 0.0
H484 H 0.15706 0.73844 0.7805 0.0
H485 H 0.16006 0.74245 0.73955 0.0
H486 H 0.18498 0.72321 0.76144 0.0
H487 H 0.19434 0.59949 0.72347 0.0
H488 H 0.19107 0.61248 0.66835 0.0
H489 H 0.15016 0.70345 0.69002 0.0
C490 C 0.15211 0.67035 0.81194 0.0
C491 C 0.15887 0.64396 0.83177 0.0
C492 C 0.17236 0.61622 0.82008 0.0
C493 C 0.17898 0.61463 0.78902 0.0
C494 C 0.17184 0.64091 0.76998 0.0
C495 C 0.15858 0.66818 0.78092 0.0
C496 C 0.15146 0.69176 0.7552 0.0
C497 C 0.1226 0.69521 0.75257 0.0
C498 C 0.16415 0.72599 0.75943 0.0
C499 C 0.16242 0.67322 0.72803 0.0
C500 C 0.1744 0.6442 0.73713 0.0
C501 C 0.18517 0.62227 0.71607 0.0
C502 C 0.18324 0.62988 0.68482 0.0
C503 C 0.17043 0.65901 0.67494 0.0
C504 C 0.16026 0.68116 0.69692 0.0
H505 H 0.84934 0.37945 0.19079 0.0
H506 H 0.81122 0.28481 0.17615 0.0
H507 H 0.81117 0.27462 0.23188 0.0
H508 H 0.89024 0.35143 0.24746 0.0
H509 H 0.88953 0.38901 0.27022 0.0
H510 H 0.88374 0.39115 0.22967 0.0
H511 H 0.84077 0.42015 0.2396 0.0
H512 H 0.84652 0.41837 0.28026 0.0
H513 H 0.81806 0.40057 0.26457 0.0
H514 H 0.81924 0.27179 0.28814 0.0
H515 H 0.8337 0.27739 0.34164 0.0
H516 H 0.86648 0.37394 0.32014 0.0
C517 C 0.84041 0.357 0.1994 0.0
C518 C 0.83014 0.333 0.1792 0.0
C519 C 0.81909 0.3036 0.19125 0.0
C520 C 0.81895 0.2976 0.22287 0.0
C521 C 0.82983 0.32132 0.24212 0.0
C522 C 0.84018 0.35057 0.23093 0.0
C523 C 0.8522 0.37086 0.25637 0.0
C524 C 0.88061 0.37589 0.25057 0.0
C525 C 0.83856 0.40448 0.26044 0.0
C526 C 0.84758 0.34801 0.28345 0.0
C527 C 0.83448 0.3197 0.27474 0.0
C528 C 0.82919 0.29407 0.29534 0.0
C529 C 0.83756 0.29741 0.32563 0.0
C530 C 0.85109 0.32615 0.33503 0.0
C531 C 0.85592 0.35187 0.31367 0.0
H532 H 0.64468 0.80321 0.31188 0.0
H533 H 0.66394 0.9063 0.33221 0.0
H534 H 0.66587 0.9186 0.2769 0.0
H535 H 0.68471 0.79463 0.24489 0.0
H536 H 0.66235 0.76924 0.22423 0.0
H537 H 0.66303 0.76814 0.26548 0.0
H538 H 0.61554 0.7836 0.26716 0.0
H539 H 0.6147 0.78468 0.22594 0.0
H540 H 0.60474 0.82065 0.24767 0.0
H541 H 0.66484 0.92023 0.21992 0.0
H542 H 0.66036 0.91137 0.16432 0.0
H543 H 0.64184 0.80716 0.18033 0.0
C544 C 0.64939 0.82833 0.30466 0.0
C545 C 0.65419 0.85382 0.32631 0.0
C546 C 0.6602 0.8864 0.31601 0.0
C547 C 0.66138 0.89362 0.28466 0.0
C548 C 0.65653 0.86798 0.26391 0.0
C549 C 0.65064 0.836 0.27339 0.0
C550 C 0.64577 0.81323 0.24625 0.0
C551 C 0.66512 0.78462 0.24516 0.0
C552 C 0.61857 0.79976 0.2468 0.0
C553 C 0.64968 0.83752 0.22005 0.0
C554 C 0.65596 0.86892 0.23082 0.0
C555 C 0.66004 0.89574 0.21117 0.0
C556 C 0.65744 0.89044 0.17963 0.0
C557 C 0.65082 0.85857 0.16802 0.0
C558 C 0.64708 0.83173 0.18855 0.0
H559 H 0.35006 0.20349 0.81412 0.0
H560 H 0.29788 0.12034 0.82172 0.0
H561 H 0.29644 0.11571 0.7654 0.0
H562 H 0.32355 0.23957 0.74236 0.0
H563 H 0.35438 0.25022 0.72787 0.0
H564 H 0.34866 0.24998 0.76856 0.0
H565 H 0.38587 0.20873 0.77593 0.0
H566 H 0.39156 0.20857 0.73531 0.0
H567 H 0.38597 0.16979 0.75515 0.0
H568 H 0.30397 0.11609 0.70916 0.0
H569 H 0.31932 0.12229 0.65611 0.0
H570 H 0.36703 0.20483 0.68457 0.0
C571 C 0.3378 0.18495 0.80385 0.0
C572 C 0.3239 0.16244 0.82218 0.0
C573 C 0.30856 0.13793 0.80803 0.0
C574 C 0.3076 0.13514 0.77608 0.0
C575 C 0.32207 0.15707 0.75864 0.0
C576 C 0.33677 0.18166 0.77194 0.0
C577 C 0.35202 0.20025 0.74803 0.0
C578 C 0.34418 0.2372 0.74662 0.0
C579 C 0.38054 0.19659 0.75397 0.0
C580 C 0.34408 0.1817 0.71936 0.0
C581 C 0.3266 0.15711 0.72599 0.0
C582 C 0.31739 0.13555 0.70358 0.0
C583 C 0.32629 0.13918 0.67356 0.0
C584 C 0.34428 0.16409 0.66625 0.0
C585 C 0.3531 0.18576 0.68945 0.0
H586 H 0.65295 0.1546 0.82225 0.0
H587 H 0.63413 0.2595 0.83251 0.0
H588 H 0.64308 0.26855 0.7775 0.0
H589 H 0.70324 0.16456 0.76455 0.0
H590 H 0.69379 0.12749 0.74409 0.0
H591 H 0.68891 0.13025 0.78487 0.0
H592 H 0.64129 0.11782 0.77726 0.0
H593 H 0.646 0.11506 0.73655 0.0
H594 H 0.62303 0.14381 0.75184 0.0
H595 H 0.65086 0.26509 0.72076 0.0
H596 H 0.65521 0.24911 0.66635 0.0
H597 H 0.66789 0.14611 0.69327 0.0
C598 C 0.65122 0.17963 0.81306 0.0
C599 C 0.64308 0.20645 0.83161 0.0
C600 C 0.64049 0.23867 0.81866 0.0
C601 C 0.6456 0.24405 0.78751 0.0
C602 C 0.65324 0.21692 0.76972 0.0
C603 C 0.65601 0.18533 0.78204 0.0
C604 C 0.66237 0.15984 0.7576 0.0
C605 C 0.68864 0.14465 0.76311 0.0
C606 C 0.64195 0.13254 0.75571 0.0
C607 C 0.66221 0.18187 0.72947 0.0
C608 C 0.65725 0.21479 0.73697 0.0
C609 C 0.65501 0.23947 0.71464 0.0
C610 C 0.6575 0.23015 0.68382 0.0
C611 C 0.66196 0.19641 0.67565 0.0
C612 C 0.66472 0.17215 0.69885 0.0
H613 H 0.3579 0.78717 0.18175 0.0
H614 H 0.33397 0.88905 0.16382 0.0
H615 H 0.334 0.90076 0.21922 0.0
H616 H 0.32209 0.77601 0.25359 0.0
H617 H 0.34691 0.75217 0.27149 0.0
H618 H 0.34289 0.75073 0.23052 0.0
H619 H 0.38946 0.76888 0.22332 0.0
H620 H 0.39357 0.77063 0.26422 0.0
H621 H 0.40042 0.80685 0.24114 0.0
H622 H 0.33948 0.903 0.27541 0.0
H623 H 0.34902 0.89531 0.33012 0.0
H624 H 0.36961 0.79199 0.31276 0.0
C625 C 0.35221 0.81172 0.18959 0.0
C626 C 0.34581 0.83719 0.16856 0.0
C627 C 0.33888 0.86918 0.17957 0.0
C628 C 0.33882 0.87607 0.21098 0.0
C629 C 0.34571 0.85069 0.23109 0.0
C630 C 0.35216 0.8191 0.22098 0.0
C631 C 0.36002 0.79695 0.24751 0.0
C632 C 0.34189 0.7672 0.25098 0.0
C633 C 0.3875 0.78514 0.24382 0.0
C634 C 0.35737 0.82124 0.27398 0.0
C635 C 0.34896 0.85202 0.26389 0.0
C636 C 0.34584 0.87894 0.28368 0.0
C637 C 0.3514 0.87433 0.3147 0.0
C638 C 0.36 0.84304 0.32568 0.0
C639 C 0.36292 0.81612 0.30502 0.0
H640 H 0.27612 0.24447 0.95121 0.0
H641 H 0.28007 0.14795 0.99629 0.0
H642 H 0.24104 0.16068 0.02457 0.0
H643 H 0.25392 0.28936 0.01901 0.0
H644 H 0.23379 0.31706 0.9975 0.0
H645 H 0.2619 0.30022 0.98013 0.0
H646 H 0.23499 0.27668 0.93552 0.0
H647 H 0.20677 0.29313 0.95294 0.0
H648 H 0.20887 0.24928 0.94386 0.0
H649 H 0.20043 0.18162 0.04527 0.0
H650 H 0.16365 0.21359 0.06384 0.0
H651 H 0.18731 0.29886 0.00961 0.0
C652 C 0.26879 0.22621 0.96721 0.0
C653 C 0.28103 0.19521 0.97154 0.0
C654 C 0.27105 0.17195 0.99277 0.0
C655 C 0.24879 0.17882 0.00879 0.0
C656 C 0.23696 0.20934 0.00377 0.0
C657 C 0.24681 0.23303 0.98408 0.0
C658 C 0.23077 0.26445 0.98416 0.0
C659 C 0.24601 0.29455 0.99591 0.0
C660 C 0.21969 0.27127 0.95222 0.0
C661 C 0.21032 0.25445 0.00672 0.0
C662 C 0.21409 0.22232 0.01728 0.0
C663 C 0.19737 0.20695 0.03745 0.0
C664 C 0.17647 0.2252 0.04771 0.0
C665 C 0.17276 0.25863 0.03822 0.0
C666 C 0.18983 0.27336 0.01731 0.0
H667 H 0.78827 0.70352 0.54512 0.0
H668 H 0.85003 0.74153 0.48987 0.0
H669 H 0.8193 0.7684 0.45507 0.0
H670 H 0.74548 0.68607 0.48272 0.0
H671 H 0.71782 0.69904 0.50365 0.0
H672 H 0.74462 0.68225 0.52385 0.0
H673 H 0.7468 0.73559 0.55743 0.0
H674 H 0.71992 0.75245 0.53748 0.0
H675 H 0.74893 0.77591 0.53922 0.0
H676 H 0.78192 0.79171 0.42684 0.0
H677 H 0.74063 0.81193 0.4083 0.0
H678 H 0.7032 0.7587 0.48203 0.0
C679 C 0.79534 0.71748 0.52569 0.0
C680 C 0.82153 0.72046 0.52014 0.0
C681 C 0.83004 0.73899 0.49453 0.0
C682 C 0.81273 0.75422 0.47461 0.0
C683 C 0.78703 0.75065 0.48064 0.0
C684 C 0.77835 0.73286 0.50562 0.0
C685 C 0.74978 0.7335 0.50738 0.0
C686 C 0.73879 0.69811 0.50421 0.0
C687 C 0.74084 0.75038 0.53714 0.0
C688 C 0.74373 0.75466 0.47961 0.0
C689 C 0.76548 0.76412 0.4644 0.0
C690 C 0.76476 0.78436 0.43849 0.0
C691 C 0.74121 0.79567 0.42811 0.0
C692 C 0.71872 0.78678 0.44366 0.0
C693 C 0.72005 0.76566 0.46952 0.0
H694 H 0.2768 0.79565 0.0252 0.0
H695 H 0.32446 0.71085 0.04748 0.0
H696 H 0.29285 0.67282 0.02434 0.0
H697 H 0.21726 0.75608 0.04072 0.0
H698 H 0.20123 0.77644 0.00945 0.0
H699 H 0.22753 0.79667 0.02788 0.0
H700 H 0.25015 0.80223 0.9755 0.0
H701 H 0.22394 0.78199 0.9569 0.0
H702 H 0.25538 0.76543 0.95253 0.0
H703 H 0.25629 0.64448 0.99806 0.0
H704 H 0.21732 0.62746 0.97135 0.0
H705 H 0.19347 0.73109 0.96675 0.0
C706 C 0.2806 0.76905 0.02531 0.0
C707 C 0.30307 0.75611 0.03814 0.0
C708 C 0.30736 0.72122 0.03777 0.0
C709 C 0.28953 0.6995 0.02469 0.0
C710 C 0.2676 0.71316 0.01214 0.0
C711 C 0.26308 0.74713 0.01241 0.0
C712 C 0.23812 0.75555 0.99731 0.0
C713 C 0.21997 0.77216 0.02022 0.0
C714 C 0.24215 0.7776 0.96887 0.0
C715 C 0.22921 0.72096 0.98852 0.0
C716 C 0.24652 0.69687 0.9972 0.0
C717 C 0.2426 0.66311 0.99122 0.0
C718 C 0.22042 0.65372 0.97599 0.0
C719 C 0.20237 0.67797 0.96701 0.0
C720 C 0.20688 0.71201 0.97342 0.0
H721 H 0.74215 0.18794 0.54298 0.0
H722 H 0.6855 0.26527 0.5309 0.0
H723 H 0.71685 0.30071 0.50487 0.0
H724 H 0.7951 0.24306 0.55683 0.0
H725 H 0.8173 0.21796 0.53561 0.0
H726 H 0.79063 0.19851 0.55398 0.0
H727 H 0.77698 0.17265 0.50216 0.0
H728 H 0.80362 0.19198 0.48364 0.0
H729 H 0.77215 0.19952 0.46955 0.0
H730 H 0.75359 0.32793 0.48081 0.0
H731 H 0.79383 0.34514 0.45767 0.0
H732 H 0.82733 0.25013 0.48339 0.0
C733 C 0.73643 0.21237 0.53491 0.0
C734 C 0.71142 0.22394 0.53901 0.0
C735 C 0.70454 0.25592 0.52797 0.0
C736 C 0.72221 0.27627 0.51322 0.0
C737 C 0.74666 0.26421 0.50951 0.0
C738 C 0.75384 0.233 0.51982 0.0
C739 C 0.7813 0.22601 0.51211 0.0
C740 C 0.79701 0.2211 0.54138 0.0
C741 C 0.78364 0.19575 0.49058 0.0
C742 C 0.78834 0.25822 0.4959 0.0
C743 C 0.76802 0.27987 0.4949 0.0
C744 C 0.76965 0.31122 0.48137 0.0
C745 C 0.79263 0.32075 0.46832 0.0
C746 C 0.81371 0.29896 0.46869 0.0
C747 C 0.81152 0.26727 0.48274 0.0
H748 H 0.69081 0.76095 0.02605 0.0
H749 H 0.7262 0.85541 0.04954 0.0
H750 H 0.76572 0.83675 0.02526 0.0
H751 H 0.74648 0.70908 0.03849 0.0
H752 H 0.73977 0.68183 0.00663 0.0
H753 H 0.71429 0.70212 0.02668 0.0
H754 H 0.69849 0.72746 0.97556 0.0
H755 H 0.72399 0.7074 0.95539 0.0
H756 H 0.71981 0.75199 0.95255 0.0
H757 H 0.80085 0.80925 0.99703 0.0
H758 H 0.83019 0.77332 0.96799 0.0
H759 H 0.77274 0.69615 0.96291 0.0
C760 C 0.70696 0.77754 0.0263 0.0
C761 C 0.70543 0.80962 0.03973 0.0
C762 C 0.72692 0.83071 0.03943 0.0
C763 C 0.74948 0.82037 0.02567 0.0
C764 C 0.75032 0.78882 0.01233 0.0
C765 C 0.72974 0.76757 0.01263 0.0
C766 C 0.73575 0.73509 0.99625 0.0
C767 C 0.73397 0.70527 0.01834 0.0
C768 C 0.71848 0.73022 0.96828 0.0
C769 C 0.76283 0.74156 0.98662 0.0
C770 C 0.7708 0.77274 0.99611 0.0
C771 C 0.7949 0.7847 0.98957 0.0
C772 C 0.81141 0.76414 0.97301 0.0
C773 C 0.80377 0.73196 0.96324 0.0
C774 C 0.77913 0.72061 0.97016 0.0
H775 H 0.29034 0.19295 0.52883 0.0
H776 H 0.33951 0.2785 0.54209 0.0
H777 H 0.30772 0.3149 0.51757 0.0
H778 H 0.26663 0.21669 0.45521 0.0
H779 H 0.23507 0.20178 0.46241 0.0
H780 H 0.26151 0.18251 0.48138 0.0
H781 H 0.24079 0.19408 0.5341 0.0
H782 H 0.21426 0.21336 0.5153 0.0
H783 H 0.23169 0.23614 0.54396 0.0
H784 H 0.27126 0.34159 0.49076 0.0
H785 H 0.23201 0.35741 0.46415 0.0
H786 H 0.20601 0.25467 0.46888 0.0
C787 C 0.29438 0.21936 0.52663 0.0
C788 C 0.31738 0.23297 0.53732 0.0
C789 C 0.322 0.26761 0.53407 0.0
C790 C 0.30407 0.28845 0.52018 0.0
C791 C 0.28163 0.27423 0.5098 0.0
C792 C 0.27667 0.24053 0.51294 0.0
C793 C 0.25107 0.23158 0.49975 0.0
C794 C 0.25374 0.20667 0.4731 0.0
C795 C 0.23341 0.21799 0.52477 0.0
C796 C 0.24247 0.26552 0.48855 0.0
C797 C 0.26042 0.28973 0.49457 0.0
C798 C 0.25702 0.3229 0.48602 0.0
C799 C 0.23467 0.33161 0.47088 0.0
C800 C 0.21596 0.30727 0.46451 0.0
C801 C 0.21993 0.27382 0.47357 0.0
H802 H 0.78787 0.2612 0.03113 0.0
H803 H 0.75617 0.35623 0.05986 0.0
H804 H 0.71555 0.34114 0.03604 0.0
H805 H 0.75701 0.2579 0.95813 0.0
H806 H 0.75165 0.21344 0.95926 0.0
H807 H 0.77819 0.23121 0.97926 0.0
H808 H 0.7629 0.20396 0.0298 0.0
H809 H 0.73634 0.18606 0.00993 0.0
H810 H 0.73125 0.21193 0.04316 0.0
H811 H 0.6787 0.31656 0.00841 0.0
H812 H 0.64771 0.28358 0.97889 0.0
H813 H 0.70302 0.2044 0.96793 0.0
C814 C 0.77233 0.27873 0.03252 0.0
C815 C 0.77516 0.30988 0.04737 0.0
C816 C 0.75443 0.33222 0.04861 0.0
C817 C 0.73127 0.32389 0.03516 0.0
C818 C 0.72911 0.29311 0.02055 0.0
C819 C 0.74902 0.27082 0.01915 0.0
C820 C 0.74169 0.23956 0.00167 0.0
C821 C 0.75811 0.23529 0.97287 0.0
C822 C 0.74313 0.20855 0.02238 0.0
C823 C 0.71462 0.24787 0.9934 0.0
C824 C 0.70776 0.27887 0.00455 0.0
C825 C 0.68381 0.2922 0.99961 0.0
C826 C 0.66635 0.2733 0.98281 0.0
C827 C 0.67295 0.24146 0.97116 0.0
C828 C 0.69742 0.22865 0.97661 0.0
H829 H 0.23926 0.70251 0.55195 0.0
H830 H 0.17716 0.75543 0.50883 0.0
H831 H 0.20744 0.78669 0.47695 0.0
H832 H 0.28272 0.77259 0.55385 0.0
H833 H 0.31011 0.74742 0.54555 0.0
H834 H 0.28362 0.72938 0.56545 0.0
H835 H 0.28063 0.68293 0.52427 0.0
H836 H 0.30704 0.7009 0.50418 0.0
H837 H 0.27753 0.69437 0.48451 0.0
H838 H 0.24377 0.81139 0.44928 0.0
H839 H 0.28445 0.82946 0.42779 0.0
H840 H 0.32382 0.76106 0.48845 0.0
C841 C 0.23208 0.7208 0.5359 0.0
C842 C 0.20585 0.72659 0.53286 0.0
C843 C 0.19716 0.75063 0.51156 0.0
C844 C 0.2142 0.76849 0.49333 0.0
C845 C 0.23989 0.76205 0.4967 0.0
C846 C 0.24888 0.73892 0.51748 0.0
C847 C 0.27749 0.73682 0.5163 0.0
C848 C 0.28917 0.74718 0.54712 0.0
C849 C 0.28618 0.70166 0.50674 0.0
C850 C 0.28311 0.76232 0.49153 0.0
C851 C 0.26107 0.77649 0.48061 0.0
C852 C 0.26116 0.80055 0.45766 0.0
C853 C 0.2844 0.81061 0.44558 0.0
C854 C 0.30732 0.79667 0.45643 0.0
C855 C 0.30662 0.77211 0.47969 0.0
H856 H 0.12899 0.52552 0.94318 0.0
H857 H 0.10808 0.59284 0.01693 0.0
H858 H 0.10075 0.54457 0.05091 0.0
H859 H 0.08387 0.45915 0.96192 0.0
H860 H 0.10567 0.42623 0.95218 0.0
H861 H 0.10758 0.46599 0.93297 0.0
H862 H 0.15454 0.47127 0.94896 0.0
H863 H 0.15275 0.43163 0.96829 0.0
H864 H 0.16289 0.46828 0.9889 0.0
H865 H 0.09812 0.48966 0.07767 0.0
H866 H 0.10005 0.43124 0.09554 0.0
H867 H 0.12263 0.39935 0.00451 0.0
C868 C 0.12255 0.53004 0.96636 0.0
C869 C 0.11903 0.56286 0.97745 0.0
C870 C 0.11086 0.56786 0.00799 0.0
C871 C 0.10661 0.54063 0.02744 0.0
C872 C 0.11056 0.5086 0.01594 0.0
C873 C 0.11827 0.50313 0.98611 0.0
C874 C 0.12216 0.46625 0.97992 0.0
C875 C 0.10371 0.45367 0.95529 0.0
C876 C 0.14972 0.45894 0.971 0.0
C877 C 0.11583 0.45192 0.01108 0.0
C878 C 0.10905 0.47679 0.03145 0.0
C879 C 0.1032 0.46991 0.06189 0.0
C880 C 0.1044 0.43668 0.07183 0.0
C881 C 0.11143 0.41083 0.05138 0.0
C882 C 0.11703 0.4186 0.02058 0.0
H883 H 0.86624 0.57865 0.50238 0.0
H884 H 0.89941 0.55465 0.59058 0.0
H885 H 0.90784 0.49717 0.5727 0.0
H886 H 0.83546 0.49997 0.49081 0.0
H887 H 0.84132 0.49906 0.45015 0.0
H888 H 0.83847 0.53848 0.46972 0.0
H889 H 0.88235 0.55618 0.44906 0.0
H890 H 0.88541 0.51668 0.4296 0.0
H891 H 0.90937 0.52995 0.45628 0.0
H892 H 0.91218 0.44234 0.5456 0.0
H893 H 0.91042 0.39289 0.51189 0.0
H894 H 0.87443 0.45246 0.44122 0.0
C895 C 0.87527 0.56129 0.51792 0.0
C896 C 0.88218 0.57105 0.54787 0.0
C897 C 0.89393 0.54764 0.56756 0.0
C898 C 0.89888 0.515 0.55758 0.0
C899 C 0.89198 0.50622 0.52786 0.0
C900 C 0.88033 0.5286 0.50834 0.0
C901 C 0.87432 0.51257 0.47776 0.0
C902 C 0.84569 0.51251 0.47177 0.0
C903 C 0.88873 0.52988 0.45164 0.0
C904 C 0.88419 0.47757 0.48324 0.0
C905 C 0.89445 0.47453 0.51221 0.0
C906 C 0.90429 0.44442 0.52282 0.0
C907 C 0.90323 0.41651 0.50349 0.0
C908 C 0.89237 0.41889 0.47393 0.0
C909 C 0.88304 0.44996 0.4636 0.0
H910 H 0.84625 0.46145 0.06485 0.0
H911 H 0.87034 0.39372 0.99281 0.0
H912 H 0.87419 0.4411 0.95718 0.0
H913 H 0.80903 0.51469 0.0178 0.0
H914 H 0.81783 0.55281 0.03704 0.0
H915 H 0.81792 0.51385 0.05766 0.0
H916 H 0.86473 0.52311 0.07265 0.0
H917 H 0.86474 0.56222 0.05222 0.0
H918 H 0.88781 0.53062 0.04309 0.0
H919 H 0.87309 0.49453 0.9285 0.0
H920 H 0.86953 0.55211 0.90898 0.0
H921 H 0.84736 0.58634 0.99945 0.0
C922 C 0.8526 0.45671 0.04168 0.0
C923 C 0.85801 0.42391 0.0316 0.0
C924 C 0.86614 0.41864 0.00106 0.0
C925 C 0.86836 0.44537 0.98061 0.0
C926 C 0.86255 0.47729 0.99108 0.0
C927 C 0.85507 0.48323 0.02092 0.0
C928 C 0.84969 0.52005 0.026 0.0
C929 C 0.82197 0.52567 0.03516 0.0
C930 C 0.86783 0.53487 0.04991 0.0
C931 C 0.85507 0.5337 0.99426 0.0
C932 C 0.86239 0.50851 0.97452 0.0
C933 C 0.86761 0.51456 0.94377 0.0
C934 C 0.86544 0.54732 0.93288 0.0
C935 C 0.85827 0.57365 0.95272 0.0
C936 C 0.85306 0.56671 0.98383 0.0
H937 H 0.15878 0.45763 0.43944 0.0
H938 H 0.11246 0.39932 0.50164 0.0
H939 H 0.10886 0.44795 0.53606 0.0
H940 H 0.19343 0.50056 0.49644 0.0
H941 H 0.19465 0.53977 0.47621 0.0
H942 H 0.19229 0.5012 0.45517 0.0
H943 H 0.15199 0.52272 0.42793 0.0
H944 H 0.15435 0.56152 0.44869 0.0
H945 H 0.12571 0.53727 0.45056 0.0
H946 H 0.11214 0.50132 0.56505 0.0
H947 H 0.12064 0.55742 0.58602 0.0
H948 H 0.16484 0.5816 0.50526 0.0
C949 C 0.14755 0.45531 0.46005 0.0
C950 C 0.13581 0.42477 0.46785 0.0
C951 C 0.12154 0.42252 0.4952 0.0
C952 C 0.1194 0.44998 0.51491 0.0
C953 C 0.13159 0.47951 0.5069 0.0
C954 C 0.14524 0.4825 0.48006 0.0
C955 C 0.15711 0.51684 0.47742 0.0
C956 C 0.18609 0.51443 0.47625 0.0
C957 C 0.14666 0.5357 0.44949 0.0
C958 C 0.14822 0.53248 0.50713 0.0
C959 C 0.1335 0.51049 0.52373 0.0
C960 C 0.1235 0.51888 0.5522 0.0
C961 C 0.1285 0.55075 0.56395 0.0
C962 C 0.14336 0.57383 0.54725 0.0
C963 C 0.15337 0.56448 0.5185 0.0
H964 H 0.62697 0.09584 0.99606 0.0
H965 H 0.61526 0.06725 0.90121 0.0
H966 H 0.61615 0.00773 0.9161 0.0
H967 H 0.67013 0.03005 0.01464 0.0
H968 H 0.65807 0.0243 0.05288 0.0
H969 H 0.65597 0.06463 0.0348 0.0
H970 H 0.60758 0.06517 0.04374 0.0
H971 H 0.60953 0.02483 0.06186 0.0
H972 H 0.58868 0.03096 0.02972 0.0
H973 H 0.61883 0.95135 0.94127 0.0
H974 H 0.62334 0.9021 0.97503 0.0
H975 H 0.63339 0.96777 0.05324 0.0
C976 C 0.62452 0.07705 0.97845 0.0
C977 C 0.62102 0.08608 0.9475 0.0
C978 C 0.61796 0.06082 0.92508 0.0
C979 C 0.61842 0.02698 0.9333 0.0
C980 C 0.62196 0.01889 0.96402 0.0
C981 C 0.62496 0.04318 0.98625 0.0
C982 C 0.62881 0.02782 0.01756 0.0
C983 C 0.65479 0.03726 0.03073 0.0
C984 C 0.60737 0.03779 0.03951 0.0
C985 C 0.62756 0.99111 0.00946 0.0
C986 C 0.62356 0.98645 0.97848 0.0
C987 C 0.62193 0.95466 0.96558 0.0
C988 C 0.62451 0.92688 0.9849 0.0
C989 C 0.6287 0.93117 0.01669 0.0
C990 C 0.63016 0.96373 0.02902 0.0
H991 H 0.36826 0.92292 0.49676 0.0
H992 H 0.39912 0.94981 0.40801 0.0
H993 H 0.40178 0.00871 0.42438 0.0
H994 H 0.33023 0.99542 0.50695 0.0
H995 H 0.33618 0.99897 0.54747 0.0
H996 H 0.33735 0.95866 0.52919 0.0
H997 H 0.38285 0.94974 0.54947 0.0
H998 H 0.38178 0.98998 0.56793 0.0
H999 H 0.40677 0.9805 0.54128 0.0
H1000 H 0.39931 0.06481 0.44932 0.0
H1001 H 0.39371 0.11441 0.48229 0.0
H1002 H 0.36551 0.05104 0.55534 0.0
C1003 C 0.37572 0.94119 0.48087 0.0
C1004 C 0.38347 0.93187 0.45112 0.0
C1005 C 0.39312 0.95644 0.43094 0.0
C1006 C 0.39468 0.98994 0.44 0.0
C1007 C 0.38667 0.99839 0.46937 0.0
C1008 C 0.37757 0.97474 0.48961 0.0
C1009 C 0.3701 0.99054 0.51981 0.0
C1010 C 0.34179 0.9856 0.52622 0.0
C1011 C 0.38635 0.97688 0.54618 0.0
C1012 C 0.37617 0.02679 0.51323 0.0
C1013 C 0.38567 0.03076 0.48398 0.0
C1014 C 0.39206 0.06203 0.47235 0.0
C1015 C 0.38874 0.09003 0.4912 0.0
C1016 C 0.37925 0.08649 0.52133 0.0
C1017 C 0.37294 0.05443 0.53244 0.0
H1018 H 0.37872 0.92287 0.01346 0.0
H1019 H 0.29918 0.89963 0.02382 0.0
H1020 H 0.28808 0.94931 0.99317 0.0
H1021 H 0.3714 0.01015 0.0233 0.0
H1022 H 0.39555 0.02162 0.99617 0.0
H1023 H 0.39747 0.98228 0.01598 0.0
H1024 H 0.39993 0.95118 0.96399 0.0
H1025 H 0.39797 0.99049 0.944 0.0
H1026 H 0.37559 0.95777 0.93577 0.0
H1027 H 0.28542 0.00186 0.96312 0.0
H1028 H 0.29104 0.05714 0.93923 0.0
H1029 H 0.37221 0.0487 0.95082 0.0
C1030 C 0.35902 0.92805 0.00879 0.0
C1031 C 0.33976 0.9074 0.02064 0.0
C1032 C 0.31416 0.91522 0.01481 0.0
C1033 C 0.30769 0.94322 0.99732 0.0
C1034 C 0.32706 0.96331 0.98614 0.0
C1035 C 0.3522 0.95636 0.99185 0.0
C1036 C 0.36915 0.98365 0.97937 0.0
C1037 C 0.38427 0.00041 0.00525 0.0
C1038 C 0.3867 0.96994 0.95429 0.0
C1039 C 0.34958 0.00716 0.96612 0.0
C1040 C 0.32547 0.9946 0.96982 0.0
C1041 C 0.30419 0.01195 0.95997 0.0
C1042 C 0.30759 0.04329 0.94639 0.0
C1043 C 0.33205 0.05714 0.9432 0.0
C1044 C 0.3533 0.03863 0.9529 0.0
H1045 H 0.64967 0.07949 0.50673 0.0
H1046 H 0.67987 0.05036 0.59518 0.0
H1047 H 0.68182 0.99162 0.57786 0.0
H1048 H 0.61063 0.00801 0.49546 0.0
H1049 H 0.61653 0.00528 0.45487 0.0
H1050 H 0.61815 0.04513 0.47393 0.0
H1051 H 0.66373 0.05364 0.45377 0.0
H1052 H 0.66222 0.01386 0.43454 0.0
H1053 H 0.68732 0.02224 0.46134 0.0
H1054 H 0.67915 0.93582 0.55144 0.0
H1055 H 0.67339 0.88724 0.51717 0.0
H1056 H 0.64549 0.95306 0.44581 0.0
C1057 C 0.65683 0.06078 0.52239 0.0
C1058 C 0.66462 0.06944 0.5523 0.0
C1059 C 0.67384 0.04426 0.57215 0.0
C1060 C 0.675 0.01084 0.56253 0.0
C1061 C 0.66696 0.0031 0.53298 0.0
C1062 C 0.65819 0.02736 0.51314 0.0
C1063 C 0.65055 0.01242 0.48265 0.0
C1064 C 0.62229 0.01805 0.47638 0.0
C1065 C 0.66694 0.02637 0.45654 0.0
C1066 C 0.65622 0.97591 0.48851 0.0
C1067 C 0.66564 0.97104 0.51769 0.0
C1068 C 0.67189 0.93935 0.5285 0.0
C1069 C 0.66851 0.91192 0.5089 0.0
C1070 C 0.65903 0.91641 0.47886 0.0
C1071 C 0.65284 0.94887 0.46863 0.0
loop_
_geom_bond_atom_site_label_1
_geom_bond_atom_site_label_2
_geom_bond_distance
_geom_bond_site_symmetry_2
_ccdc_geom_bond_type
In0 O1 2.294 . S
In0 O2 2.326 . S
In0 O6 2.266 . S
In0 O7 2.326 . S
In0 O8 2.266 . S
In0 O9 2.326 . S
In0 O11 2.294 . S
In0 O12 2.326 . S
O1 In0 2.294 . S
O1 C10 1.240 . S
O2 In0 2.326 . S
O2 C10 1.252 . S
C3 O6 1.252 . S
C3 O7 1.260 . S
C4 O11 1.240 . S
C4 O12 1.252 . S
C5 O8 1.252 . S
C5 O9 1.260 . S
O6 In0 2.266 . S
O6 C3 1.252 . S
O7 In0 2.326 . S
O7 C3 1.260 . S
O8 In0 2.266 . S
O8 C5 1.252 . S
O9 In0 2.326 . S
O9 C5 1.260 . S
C10 O1 1.240 . S
C10 O2 1.252 . S
O11 In0 2.294 . S
O11 C4 1.240 . S
O12 In0 2.326 . S
O12 C4 1.252 . S
In13 O14 2.294 . S
In13 O15 2.326 . S
In13 O19 2.266 . S
In13 O20 2.326 . S
In13 O21 2.266 . S
In13 O22 2.326 . S
In13 O24 2.294 . S
In13 O25 2.326 . S
O14 In13 2.294 . S
O14 C23 1.240 . S
O15 In13 2.326 . S
O15 C23 1.252 . S
C16 O19 1.252 . S
C16 O20 1.260 . S
C17 O24 1.240 . S
C17 O25 1.252 . S
C18 O21 1.252 . S
C18 O22 1.260 . S
O19 In13 2.266 . S
O19 C16 1.252 . S
O20 In13 2.326 . S
O20 C16 1.260 . S
O21 In13 2.266 . S
O21 C18 1.252 . S
O22 In13 2.326 . S
O22 C18 1.260 . S
C23 O14 1.240 . S
C23 O15 1.252 . S
O24 In13 2.294 . S
O24 C17 1.240 . S
O25 In13 2.326 . S
O25 C17 1.252 . S
In26 O27 2.294 . S
In26 O28 2.326 . S
In26 O32 2.266 . S
In26 O33 2.326 . S
In26 O34 2.266 . S
In26 O35 2.326 . S
In26 O37 2.294 . S
In26 O38 2.326 . S
O27 In26 2.294 . S
O27 C36 1.240 . S
O28 In26 2.326 . S
O28 C36 1.252 . S
C29 O32 1.252 . S
C29 O33 1.260 . S
C30 O37 1.240 . S
C30 O38 1.252 . S
C31 O34 1.252 . S
C31 O35 1.260 . S
O32 In26 2.266 . S
O32 C29 1.252 . S
O33 In26 2.326 . S
O33 C29 1.260 . S
O34 In26 2.266 . S
O34 C31 1.252 . S
O35 In26 2.326 . S
O35 C31 1.260 . S
C36 O27 1.240 . S
C36 O28 1.252 . S
O37 In26 2.294 . S
O37 C30 1.240 . S
O38 In26 2.326 . S
O38 C30 1.252 . S
In39 O40 2.294 . S
In39 O41 2.326 . S
In39 O45 2.266 . S
In39 O46 2.326 . S
In39 O47 2.266 . S
In39 O48 2.326 . S
In39 O50 2.294 . S
In39 O51 2.326 . S
O40 In39 2.294 . S
O40 C49 1.240 . S
O41 In39 2.326 . S
O41 C49 1.252 . S
C42 O45 1.252 . S
C42 O46 1.260 . S
C43 O50 1.240 . S
C43 O51 1.252 . S
C44 O47 1.252 . S
C44 O48 1.260 . S
O45 In39 2.266 . S
O45 C42 1.252 . S
O46 In39 2.326 . S
O46 C42 1.260 . S
O47 In39 2.266 . S
O47 C44 1.252 . S
O48 In39 2.326 . S
O48 C44 1.260 . S
C49 O40 1.240 . S
C49 O41 1.252 . S
O50 In39 2.294 . S
O50 C43 1.240 . S
O51 In39 2.326 . S
O51 C43 1.252 . S
In52 O53 2.294 . S
In52 O54 2.326 . S
In52 O58 2.266 . S
In52 O59 2.326 . S
In52 O60 2.266 . S
In52 O61 2.326 . S
In52 O63 2.294 . S
In52 O64 2.326 . S
O53 In52 2.294 . S
O53 C62 1.240 . S
O54 In52 2.326 . S
O54 C62 1.252 . S
C55 O58 1.252 . S
C55 O59 1.260 . S
C56 O63 1.240 . S
C56 O64 1.252 . S
C57 O60 1.252 . S
C57 O61 1.260 . S
O58 In52 2.266 . S
O58 C55 1.252 . S
O59 In52 2.326 . S
O59 C55 1.260 . S
O60 In52 2.266 . S
O60 C57 1.252 . S
O61 In52 2.326 . S
O61 C57 1.260 . S
C62 O53 1.240 . S
C62 O54 1.252 . S
O63 In52 2.294 . S
O63 C56 1.240 . S
O64 In52 2.326 . S
O64 C56 1.252 . S
In65 O66 2.294 . S
In65 O67 2.326 . S
In65 O71 2.266 . S
In65 O72 2.326 . S
In65 O73 2.266 . S
In65 O74 2.326 . S
In65 O76 2.294 . S
In65 O77 2.326 . S
O66 In65 2.294 . S
O66 C75 1.240 . S
O67 In65 2.326 . S
O67 C75 1.252 . S
C68 O71 1.252 . S
C68 O72 1.260 . S
C69 O76 1.240 . S
C69 O77 1.252 . S
C70 O73 1.252 . S
C70 O74 1.260 . S
O71 In65 2.266 . S
O71 C68 1.252 . S
O72 In65 2.326 . S
O72 C68 1.260 . S
O73 In65 2.266 . S
O73 C70 1.252 . S
O74 In65 2.326 . S
O74 C70 1.260 . S
C75 O66 1.240 . S
C75 O67 1.252 . S
O76 In65 2.294 . S
O76 C69 1.240 . S
O77 In65 2.326 . S
O77 C69 1.252 . S
In78 O79 2.294 . S
In78 O80 2.326 . S
In78 O84 2.266 . S
In78 O85 2.326 . S
In78 O86 2.266 . S
In78 O87 2.326 . S
In78 O89 2.294 . S
In78 O90 2.326 . S
O79 In78 2.294 . S
O79 C88 1.240 . S
O80 In78 2.326 . S
O80 C88 1.252 . S
C81 O84 1.252 . S
C81 O85 1.260 . S
C82 O89 1.240 . S
C82 O90 1.252 . S
C83 O86 1.252 . S
C83 O87 1.260 . S
O84 In78 2.266 . S
O84 C81 1.252 . S
O85 In78 2.326 . S
O85 C81 1.260 . S
O86 In78 2.266 . S
O86 C83 1.252 . S
O87 In78 2.326 . S
O87 C83 1.260 . S
C88 O79 1.240 . S
C88 O80 1.252 . S
O89 In78 2.294 . S
O89 C82 1.240 . S
O90 In78 2.326 . S
O90 C82 1.252 . S
In91 O92 2.294 . S
In91 O93 2.326 . S
In91 O97 2.266 . S
In91 O98 2.326 . S
In91 O99 2.266 . S
In91 O100 2.326 . S
In91 O102 2.294 . S
In91 O103 2.326 . S
O92 In91 2.294 . S
O92 C101 1.240 . S
O93 In91 2.326 . S
O93 C101 1.252 . S
C94 O97 1.252 . S
C94 O98 1.260 . S
C95 O102 1.240 . S
C95 O103 1.252 . S
C96 O99 1.252 . S
C96 O100 1.260 . S
O97 In91 2.266 . S
O97 C94 1.252 . S
O98 In91 2.326 . S
O98 C94 1.260 . S
O99 In91 2.266 . S
O99 C96 1.252 . S
O100 In91 2.326 . S
O100 C96 1.260 . S
C101 O92 1.240 . S
C101 O93 1.252 . S
O102 In91 2.294 . S
O102 C95 1.240 . S
O103 In91 2.326 . S
O103 C95 1.252 . S
In104 O105 2.294 . S
In104 O106 2.326 . S
In104 O110 2.266 . S
In104 O111 2.326 . S
In104 O112 2.266 . S
In104 O113 2.326 . S
In104 O115 2.294 . S
In104 O116 2.326 . S
O105 In104 2.294 . S
O105 C114 1.240 . S
O106 In104 2.326 . S
O106 C114 1.252 . S
C107 O110 1.252 . S
C107 O111 1.260 . S
C108 O115 1.240 . S
C108 O116 1.252 . S
C109 O112 1.252 . S
C109 O113 1.260 . S
O110 In104 2.266 . S
O110 C107 1.252 . S
O111 In104 2.326 . S
O111 C107 1.260 . S
O112 In104 2.266 . S
O112 C109 1.252 . S
O113 In104 2.326 . S
O113 C109 1.260 . S
C114 O105 1.240 . S
C114 O106 1.252 . S
O115 In104 2.294 . S
O115 C108 1.240 . S
O116 In104 2.326 . S
O116 C108 1.252 . S
In117 O118 2.294 . S
In117 O119 2.326 . S
In117 O123 2.266 . S
In117 O124 2.326 . S
In117 O125 2.266 . S
In117 O126 2.326 . S
In117 O128 2.294 . S
In117 O129 2.326 . S
O118 In117 2.294 . S
O118 C127 1.240 . S
O119 In117 2.326 . S
O119 C127 1.252 . S
C120 O123 1.252 . S
C120 O124 1.260 . S
C121 O128 1.240 . S
C121 O129 1.252 . S
C122 O125 1.252 . S
C122 O126 1.260 . S
O123 In117 2.266 . S
O123 C120 1.252 . S
O124 In117 2.326 . S
O124 C120 1.260 . S
O125 In117 2.266 . S
O125 C122 1.252 . S
O126 In117 2.326 . S
O126 C122 1.260 . S
C127 O118 1.240 . S
C127 O119 1.252 . S
O128 In117 2.294 . S
O128 C121 1.240 . S
O129 In117 2.326 . S
O129 C121 1.252 . S
In130 O131 2.294 . S
In130 O132 2.326 . S
In130 O136 2.266 . S
In130 O137 2.326 . S
In130 O138 2.266 . S
In130 O139 2.326 . S
In130 O141 2.294 . S
In130 O142 2.326 . S
O131 In130 2.294 . S
O131 C140 1.240 . S
O132 In130 2.326 . S
O132 C140 1.252 . S
C133 O136 1.252 . S
C133 O137 1.260 . S
C134 O141 1.240 . S
C134 O142 1.252 . S
C135 O138 1.252 . S
C135 O139 1.260 . S
O136 In130 2.266 . S
O136 C133 1.252 . S
O137 In130 2.326 . S
O137 C133 1.260 . S
O138 In130 2.266 . S
O138 C135 1.252 . S
O139 In130 2.326 . S
O139 C135 1.260 . S
C140 O131 1.240 . S
C140 O132 1.252 . S
O141 In130 2.294 . S
O141 C134 1.240 . S
O142 In130 2.326 . S
O142 C134 1.252 . S
In143 O144 2.294 . S
In143 O145 2.326 . S
In143 O149 2.266 . S
In143 O150 2.326 . S
In143 O151 2.266 . S
In143 O152 2.326 . S
In143 O154 2.294 . S
In143 O155 2.326 . S
O144 In143 2.294 . S
O144 C153 1.240 . S
O145 In143 2.326 . S
O145 C153 1.252 . S
C146 O149 1.252 . S
C146 O150 1.260 . S
C147 O154 1.240 . S
C147 O155 1.252 . S
C148 O151 1.252 . S
C148 O152 1.260 . S
O149 In143 2.266 . S
O149 C146 1.252 . S
O150 In143 2.326 . S
O150 C146 1.260 . S
O151 In143 2.266 . S
O151 C148 1.252 . S
O152 In143 2.326 . S
O152 C148 1.260 . S
C153 O144 1.240 . S
C153 O145 1.252 . S
O154 In143 2.294 . S
O154 C147 1.240 . S
O155 In143 2.326 . S
O155 C147 1.252 . S
In156 O157 2.294 . S
In156 O158 2.326 . S
In156 O162 2.266 . S
In156 O163 2.326 . S
In156 O164 2.266 . S
In156 O165 2.326 . S
In156 O167 2.294 . S
In156 O168 2.326 . S
O157 In156 2.294 . S
O157 C166 1.240 . S
O158 In156 2.326 . S
O158 C166 1.252 . S
C159 O162 1.252 . S
C159 O163 1.260 . S
C160 O167 1.240 . S
C160 O168 1.252 . S
C161 O164 1.252 . S
C161 O165 1.260 . S
O162 In156 2.266 . S
O162 C159 1.252 . S
O163 In156 2.326 . S
O163 C159 1.260 . S
O164 In156 2.266 . S
O164 C161 1.252 . S
O165 In156 2.326 . S
O165 C161 1.260 . S
C166 O157 1.240 . S
C166 O158 1.252 . S
O167 In156 2.294 . S
O167 C160 1.240 . S
O168 In156 2.326 . S
O168 C160 1.252 . S
In169 O170 2.294 . S
In169 O171 2.326 . S
In169 O175 2.266 . S
In169 O176 2.326 . S
In169 O177 2.266 . S
In169 O178 2.326 . S
In169 O180 2.294 . S
In169 O181 2.326 . S
O170 In169 2.294 . S
O170 C179 1.240 . S
O171 In169 2.326 . S
O171 C179 1.252 . S
C172 O175 1.252 . S
C172 O176 1.260 . S
C173 O180 1.240 . S
C173 O181 1.252 . S
C174 O177 1.252 . S
C174 O178 1.260 . S
O175 In169 2.266 . S
O175 C172 1.252 . S
O176 In169 2.326 . S
O176 C172 1.260 . S
O177 In169 2.266 . S
O177 C174 1.252 . S
O178 In169 2.326 . S
O178 C174 1.260 . S
C179 O170 1.240 . S
C179 O171 1.252 . S
O180 In169 2.294 . S
O180 C173 1.240 . S
O181 In169 2.326 . S
O181 C173 1.252 . S
In182 O183 2.294 . S
In182 O184 2.326 . S
In182 O188 2.266 . S
In182 O189 2.326 . S
In182 O190 2.266 . S
In182 O191 2.326 . S
In182 O193 2.294 . S
In182 O194 2.326 . S
O183 In182 2.294 . S
O183 C192 1.240 . S
O184 In182 2.326 . S
O184 C192 1.252 . S
C185 O188 1.252 . S
C185 O189 1.260 . S
C186 O193 1.240 . S
C186 O194 1.252 . S
C187 O190 1.252 . S
C187 O191 1.260 . S
O188 In182 2.266 . S
O188 C185 1.252 . S
O189 In182 2.326 . S
O189 C185 1.260 . S
O190 In182 2.266 . S
O190 C187 1.252 . S
O191 In182 2.326 . S
O191 C187 1.260 . S
C192 O183 1.240 . S
C192 O184 1.252 . S
O193 In182 2.294 . S
O193 C186 1.240 . S
O194 In182 2.326 . S
O194 C186 1.252 . S
In195 O196 2.294 . S
In195 O197 2.326 . S
In195 O201 2.266 . S
In195 O202 2.326 . S
In195 O203 2.266 . S
In195 O204 2.326 . S
In195 O206 2.294 . S
In195 O207 2.326 . S
O196 In195 2.294 . S
O196 C205 1.240 . S
O197 In195 2.326 . S
O197 C205 1.252 . S
C198 O201 1.252 . S
C198 O202 1.260 . S
C199 O206 1.240 . S
C199 O207 1.252 . S
C200 O203 1.252 . S
C200 O204 1.260 . S
O201 In195 2.266 . S
O201 C198 1.252 . S
O202 In195 2.326 . S
O202 C198 1.260 . S
O203 In195 2.266 . S
O203 C200 1.252 . S
O204 In195 2.326 . S
O204 C200 1.260 . S
C205 O196 1.240 . S
C205 O197 1.252 . S
O206 In195 2.294 . S
O206 C199 1.240 . S
O207 In195 2.326 . S
O207 C199 1.252 . S
H208 C220 0.930 . S
H209 C222 0.930 . S
H210 C223 0.926 1_655 S
H211 C227 0.959 . S
H212 C227 0.959 . S
H213 C227 0.961 . S
H214 C228 0.960 . S
H215 C228 0.961 . S
H216 C228 0.959 . S
H217 C231 0.929 . S
H218 C232 0.931 . S
H219 C234 0.930 . S
C220 H208 0.930 . S
C220 C221 1.399 . S
C220 C225 1.399 1_455 S
C221 C220 1.399 . S
C221 C222 1.376 . S
C222 H209 0.930 . S
C222 C221 1.376 . S
C222 C223 1.404 . S
C223 H210 0.926 1_455 S
C223 C222 1.404 . S
C223 C224 1.379 1_455 S
C224 C223 1.379 1_655 S
C224 C225 1.394 . S
C224 C230 1.465 . S
C225 C220 1.399 1_655 S
C225 C224 1.394 . S
C225 C226 1.516 . S
C226 C225 1.516 . S
C226 C227 1.502 . S
C226 C228 1.561 . S
C226 C229 1.526 . S
C227 H211 0.959 . S
C227 H212 0.959 . S
C227 H213 0.961 . S
C227 C226 1.502 . S
C228 H214 0.960 . S
C228 H215 0.961 . S
C228 H216 0.959 . S
C228 C226 1.561 . S
C229 C226 1.526 . S
C229 C230 1.396 . S
C229 C234 1.390 . S
C230 C224 1.465 . S
C230 C229 1.396 . S
C230 C231 1.399 . S
C231 H217 0.929 . S
C231 C230 1.399 . S
C231 C232 1.385 . S
C232 H218 0.931 . S
C232 C231 1.385 . S
C232 C233 1.389 . S
C233 C232 1.389 . S
C233 C234 1.387 . S
C234 H219 0.930 . S
C234 C229 1.390 . S
C234 C233 1.387 . S
H235 C247 0.930 . S
H236 C249 0.930 . S
H237 C250 0.930 . S
H238 C254 0.959 . S
H239 C254 0.959 . S
H240 C254 0.961 . S
H241 C255 0.960 . S
H242 C255 0.961 . S
H243 C255 0.959 . S
H244 C258 0.929 . S
H245 C259 0.931 . S
H246 C261 0.930 . S
C247 H235 0.930 . S
C247 C248 1.399 . S
C247 C252 1.399 1_655 S
C248 C247 1.399 . S
C248 C249 1.376 . S
C249 H236 0.930 . S
C249 C248 1.376 . S
C249 C250 1.388 1_655 S
C250 H237 0.930 . S
C250 C249 1.388 1_455 S
C250 C251 1.390 . S
C251 C250 1.390 . S
C251 C252 1.394 . S
C251 C257 1.465 . S
C252 C247 1.399 1_455 S
C252 C251 1.394 . S
C252 C253 1.516 . S
C253 C252 1.516 . S
C253 C254 1.502 . S
C253 C255 1.561 . S
C253 C256 1.526 . S
C254 H238 0.959 . S
C254 H239 0.959 . S
C254 H240 0.961 . S
C254 C253 1.502 . S
C255 H241 0.960 . S
C255 H242 0.961 . S
C255 H243 0.959 . S
C255 C253 1.561 . S
C256 C253 1.526 . S
C256 C257 1.396 . S
C256 C261 1.390 . S
C257 C251 1.465 . S
C257 C256 1.396 . S
C257 C258 1.399 . S
C258 H244 0.929 . S
C258 C257 1.399 . S
C258 C259 1.385 . S
C259 H245 0.931 . S
C259 C258 1.385 . S
C259 C260 1.389 . S
C260 C259 1.389 . S
C260 C261 1.387 . S
C261 H246 0.930 . S
C261 C256 1.390 . S
C261 C260 1.387 . S
H262 C274 0.930 . S
H263 C276 0.930 . S
H264 C277 0.930 . S
H265 C281 0.959 . S
H266 C281 0.959 . S
H267 C281 0.961 . S
H268 C282 0.960 . S
H269 C282 0.961 . S
H270 C282 0.959 . S
H271 C285 0.929 . S
H272 C286 0.931 . S
H273 C288 0.930 . S
C274 H262 0.930 . S
C274 C275 1.399 . S
C274 C279 1.399 . S
C275 C274 1.399 . S
C275 C276 1.376 . S
C276 H263 0.930 . S
C276 C275 1.376 . S
C276 C277 1.388 . S
C277 H264 0.930 . S
C277 C276 1.388 . S
C277 C278 1.390 . S
C278 C277 1.390 . S
C278 C279 1.394 . S
C278 C284 1.465 . S
C279 C274 1.399 . S
C279 C278 1.394 . S
C279 C280 1.516 . S
C280 C279 1.516 . S
C280 C281 1.502 . S
C280 C282 1.561 . S
C280 C283 1.526 . S
C281 H265 0.959 . S
C281 H266 0.959 . S
C281 H267 0.961 . S
C281 C280 1.502 . S
C282 H268 0.960 . S
C282 H269 0.961 . S
C282 H270 0.959 . S
C282 C280 1.561 . S
C283 C280 1.526 . S
C283 C284 1.396 . S
C283 C288 1.390 1_655 S
C284 C278 1.465 . S
C284 C283 1.396 . S
C284 C285 1.399 . S
C285 H271 0.929 . S
C285 C284 1.399 . S
C285 C286 1.385 1_655 S
C286 H272 0.931 . S
C286 C285 1.385 1_455 S
C286 C287 1.389 . S
C287 C286 1.389 . S
C287 C288 1.387 . S
C288 H273 0.930 . S
C288 C283 1.390 1_455 S
C288 C287 1.387 . S
H289 C301 0.930 . S
H290 C303 0.930 . S
H291 C304 0.930 . S
H292 C308 0.959 . S
H293 C308 0.959 . S
H294 C308 0.961 . S
H295 C309 0.960 . S
H296 C309 0.961 . S
H297 C309 0.959 . S
H298 C312 0.927 1_455 S
H299 C313 0.931 . S
H300 C315 0.930 . S
C301 H289 0.930 . S
C301 C302 1.399 . S
C301 C306 1.399 . S
C302 C301 1.399 . S
C302 C303 1.376 . S
C303 H290 0.930 . S
C303 C302 1.376 . S
C303 C304 1.388 . S
C304 H291 0.930 . S
C304 C303 1.388 . S
C304 C305 1.390 . S
C305 C304 1.390 . S
C305 C306 1.394 . S
C305 C311 1.465 . S
C306 C301 1.399 . S
C306 C305 1.394 . S
C306 C307 1.516 . S
C307 C306 1.516 . S
C307 C308 1.502 . S
C307 C309 1.561 . S
C307 C310 1.526 . S
C308 H292 0.959 . S
C308 H293 0.959 . S
C308 H294 0.961 . S
C308 C307 1.502 . S
C309 H295 0.960 . S
C309 H296 0.961 . S
C309 H297 0.959 . S
C309 C307 1.561 . S
C310 C307 1.526 . S
C310 C311 1.396 . S
C310 C315 1.390 1_455 S
C311 C305 1.465 . S
C311 C310 1.396 . S
C311 C312 1.392 1_455 S
C312 H298 0.927 1_655 S
C312 C311 1.392 1_655 S
C312 C313 1.395 . S
C313 H299 0.931 . S
C313 C312 1.395 . S
C313 C314 1.389 . S
C314 C313 1.389 . S
C314 C315 1.387 . S
C315 H300 0.930 . S
C315 C310 1.390 1_655 S
C315 C314 1.387 . S
H316 C328 0.930 . S
H317 C330 0.930 . S
H318 C331 0.930 . S
H319 C335 0.959 . S
H320 C335 0.959 . S
H321 C335 0.961 . S
H322 C336 0.960 . S
H323 C336 0.961 . S
H324 C336 0.959 . S
H325 C339 0.929 . S
H326 C340 0.931 . S
H327 C342 0.930 . S
C328 H316 0.930 . S
C328 C329 1.399 . S
C328 C333 1.399 . S
C329 C328 1.399 . S
C329 C330 1.376 . S
C330 H317 0.930 . S
C330 C329 1.376 . S
C330 C331 1.388 . S
C331 H318 0.930 . S
C331 C330 1.388 . S
C331 C332 1.390 . S
C332 C331 1.390 . S
C332 C333 1.394 . S
C332 C338 1.465 . S
C333 C328 1.399 . S
C333 C332 1.394 . S
C333 C334 1.516 . S
C334 C333 1.516 . S
C334 C335 1.502 . S
C334 C336 1.561 . S
C334 C337 1.526 . S
C335 H319 0.959 . S
C335 H320 0.959 . S
C335 H321 0.961 . S
C335 C334 1.502 . S
C336 H322 0.960 . S
C336 H323 0.961 . S
C336 H324 0.959 . S
C336 C334 1.561 . S
C337 C334 1.526 . S
C337 C338 1.396 . S
C337 C342 1.390 . S
C338 C332 1.465 . S
C338 C337 1.396 . S
C338 C339 1.399 . S
C339 H325 0.929 . S
C339 C338 1.399 . S
C339 C340 1.385 . S
C340 H326 0.931 . S
C340 C339 1.385 . S
C340 C341 1.389 . S
C341 C340 1.389 . S
C341 C342 1.387 . S
C342 H327 0.930 . S
C342 C337 1.390 . S
C342 C341 1.387 . S
H343 C355 0.930 . S
H344 C357 0.930 . S
H345 C358 0.930 . S
H346 C362 0.959 . S
H347 C362 0.959 . S
H348 C362 0.961 . S
H349 C363 0.960 . S
H350 C363 0.961 . S
H351 C363 0.959 . S
H352 C366 0.929 . S
H353 C367 0.931 . S
H354 C369 0.930 . S
C355 H343 0.930 . S
C355 C356 1.399 . S
C355 C360 1.399 . S
C356 C355 1.399 . S
C356 C357 1.376 . S
C357 H344 0.930 . S
C357 C356 1.376 . S
C357 C358 1.388 . S
C358 H345 0.930 . S
C358 C357 1.388 . S
C358 C359 1.390 . S
C359 C358 1.390 . S
C359 C360 1.394 . S
C359 C365 1.465 . S
C360 C355 1.399 . S
C360 C359 1.394 . S
C360 C361 1.516 . S
C361 C360 1.516 . S
C361 C362 1.502 . S
C361 C363 1.561 . S
C361 C364 1.526 . S
C362 H346 0.959 . S
C362 H347 0.959 . S
C362 H348 0.961 . S
C362 C361 1.502 . S
C363 H349 0.960 . S
C363 H350 0.961 . S
C363 H351 0.959 . S
C363 C361 1.561 . S
C364 C361 1.526 . S
C364 C365 1.396 . S
C364 C369 1.390 . S
C365 C359 1.465 . S
C365 C364 1.396 . S
C365 C366 1.399 . S
C366 H352 0.929 . S
C366 C365 1.399 . S
C366 C367 1.385 . S
C367 H353 0.931 . S
C367 C366 1.385 . S
C367 C368 1.389 . S
C368 C367 1.389 . S
C368 C369 1.387 . S
C369 H354 0.930 . S
C369 C364 1.390 . S
C369 C368 1.387 . S
H370 C382 0.930 . S
H371 C384 0.930 . S
H372 C385 0.930 . S
H373 C389 0.959 . S
H374 C389 0.959 . S
H375 C389 0.961 . S
H376 C390 0.960 . S
H377 C390 0.961 . S
H378 C390 0.959 . S
H379 C393 0.929 . S
H380 C394 0.931 . S
H381 C396 0.930 . S
C382 H370 0.930 . S
C382 C383 1.399 . S
C382 C387 1.399 . S
C383 C382 1.399 . S
C383 C384 1.376 . S
C384 H371 0.930 . S
C384 C383 1.376 . S
C384 C385 1.388 . S
C385 H372 0.930 . S
C385 C384 1.388 . S
C385 C386 1.390 . S
C386 C385 1.390 . S
C386 C387 1.394 . S
C386 C392 1.465 . S
C387 C382 1.399 . S
C387 C386 1.394 . S
C387 C388 1.516 . S
C388 C387 1.516 . S
C388 C389 1.502 . S
C388 C390 1.561 . S
C388 C391 1.526 . S
C389 H373 0.959 . S
C389 H374 0.959 . S
C389 H375 0.961 . S
C389 C388 1.502 . S
C390 H376 0.960 . S
C390 H377 0.961 . S
C390 H378 0.959 . S
C390 C388 1.561 . S
C391 C388 1.526 . S
C391 C392 1.396 . S
C391 C396 1.390 . S
C392 C386 1.465 . S
C392 C391 1.396 . S
C392 C393 1.399 . S
C393 H379 0.929 . S
C393 C392 1.399 . S
C393 C394 1.385 . S
C394 H380 0.931 . S
C394 C393 1.385 . S
C394 C395 1.389 . S
C395 C394 1.389 . S
C395 C396 1.387 . S
C396 H381 0.930 . S
C396 C391 1.390 . S
C396 C395 1.387 . S
H397 C409 0.930 . S
H398 C411 0.930 . S
H399 C412 0.930 . S
H400 C416 0.959 . S
H401 C416 0.959 . S
H402 C416 0.961 . S
H403 C417 0.960 . S
H404 C417 0.961 . S
H405 C417 0.959 . S
H406 C420 0.929 . S
H407 C421 0.931 . S
H408 C423 0.930 . S
C409 H397 0.930 . S
C409 C410 1.399 . S
C409 C414 1.399 . S
C410 C409 1.399 . S
C410 C411 1.376 . S
C411 H398 0.930 . S
C411 C410 1.376 . S
C411 C412 1.388 . S
C412 H399 0.930 . S
C412 C411 1.388 . S
C412 C413 1.390 . S
C413 C412 1.390 . S
C413 C414 1.394 . S
C413 C419 1.465 . S
C414 C409 1.399 . S
C414 C413 1.394 . S
C414 C415 1.516 . S
C415 C414 1.516 . S
C415 C416 1.502 . S
C415 C417 1.561 . S
C415 C418 1.526 . S
C416 H400 0.959 . S
C416 H401 0.959 . S
C416 H402 0.961 . S
C416 C415 1.502 . S
C417 H403 0.960 . S
C417 H404 0.961 . S
C417 H405 0.959 . S
C417 C415 1.561 . S
C418 C415 1.526 . S
C418 C419 1.396 . S
C418 C423 1.390 . S
C419 C413 1.465 . S
C419 C418 1.396 . S
C419 C420 1.399 . S
C420 H406 0.929 . S
C420 C419 1.399 . S
C420 C421 1.385 . S
C421 H407 0.931 . S
C421 C420 1.385 . S
C421 C422 1.389 . S
C422 C421 1.389 . S
C422 C423 1.387 . S
C423 H408 0.930 . S
C423 C418 1.390 . S
C423 C422 1.387 . S
H424 C436 0.930 . S
H425 C438 0.930 . S
H426 C439 0.930 . S
H427 C443 0.959 . S
H428 C443 0.959 . S
H429 C443 0.961 . S
H430 C444 0.960 . S
H431 C444 0.961 . S
H432 C444 0.959 . S
H433 C447 0.929 . S
H434 C448 0.931 . S
H435 C450 0.930 . S
C436 H424 0.930 . S
C436 C437 1.399 . S
C436 C441 1.399 . S
C437 C436 1.399 . S
C437 C438 1.376 . S
C438 H425 0.930 . S
C438 C437 1.376 . S
C438 C439 1.388 . S
C439 H426 0.930 . S
C439 C438 1.388 . S
C439 C440 1.390 . S
C440 C439 1.390 . S
C440 C441 1.394 . S
C440 C446 1.465 . S
C441 C436 1.399 . S
C441 C440 1.394 . S
C441 C442 1.516 . S
C442 C441 1.516 . S
C442 C443 1.502 . S
C442 C444 1.561 . S
C442 C445 1.526 . S
C443 H427 0.959 . S
C443 H428 0.959 . S
C443 H429 0.961 . S
C443 C442 1.502 . S
C444 H430 0.960 . S
C444 H431 0.961 . S
C444 H432 0.959 . S
C444 C442 1.561 . S
C445 C442 1.526 . S
C445 C446 1.396 . S
C445 C450 1.390 . S
C446 C440 1.465 . S
C446 C445 1.396 . S
C446 C447 1.399 . S
C447 H433 0.929 . S
C447 C446 1.399 . S
C447 C448 1.385 . S
C448 H434 0.931 . S
C448 C447 1.385 . S
C448 C449 1.389 . S
C449 C448 1.389 . S
C449 C450 1.387 . S
C450 H435 0.930 . S
C450 C445 1.390 . S
C450 C449 1.387 . S
H451 C463 0.930 . S
H452 C465 0.930 . S
H453 C466 0.930 . S
H454 C470 0.959 . S
H455 C470 0.959 . S
H456 C470 0.961 . S
H457 C471 0.960 . S
H458 C471 0.961 . S
H459 C471 0.959 . S
H460 C474 0.929 . S
H461 C475 0.931 . S
H462 C477 0.930 . S
C463 H451 0.930 . S
C463 C464 1.399 . S
C463 C468 1.399 . S
C464 C463 1.399 . S
C464 C465 1.376 . S
C465 H452 0.930 . S
C465 C464 1.376 . S
C465 C466 1.388 . S
C466 H453 0.930 . S
C466 C465 1.388 . S
C466 C467 1.390 . S
C467 C466 1.390 . S
C467 C468 1.394 . S
C467 C473 1.465 . S
C468 C463 1.399 . S
C468 C467 1.394 . S
C468 C469 1.516 . S
C469 C468 1.516 . S
C469 C470 1.502 . S
C469 C471 1.561 . S
C469 C472 1.526 . S
C470 H454 0.959 . S
C470 H455 0.959 . S
C470 H456 0.961 . S
C470 C469 1.502 . S
C471 H457 0.960 . S
C471 H458 0.961 . S
C471 H459 0.959 . S
C471 C469 1.561 . S
C472 C469 1.526 . S
C472 C473 1.396 . S
C472 C477 1.390 . S
C473 C467 1.465 . S
C473 C472 1.396 . S
C473 C474 1.399 . S
C474 H460 0.929 . S
C474 C473 1.399 . S
C474 C475 1.385 . S
C475 H461 0.931 . S
C475 C474 1.385 . S
C475 C476 1.389 . S
C476 C475 1.389 . S
C476 C477 1.387 . S
C477 H462 0.930 . S
C477 C472 1.390 . S
C477 C476 1.387 . S
H478 C490 0.930 . S
H479 C492 0.930 . S
H480 C493 0.930 . S
H481 C497 0.959 . S
H482 C497 0.959 . S
H483 C497 0.961 . S
H484 C498 0.960 . S
H485 C498 0.961 . S
H486 C498 0.959 . S
H487 C501 0.929 . S
H488 C502 0.931 . S
H489 C504 0.930 . S
C490 H478 0.930 . S
C490 C491 1.399 . S
C490 C495 1.399 . S
C491 C490 1.399 . S
C491 C492 1.376 . S
C492 H479 0.930 . S
C492 C491 1.376 . S
C492 C493 1.388 . S
C493 H480 0.930 . S
C493 C492 1.388 . S
C493 C494 1.390 . S
C494 C493 1.390 . S
C494 C495 1.394 . S
C494 C500 1.465 . S
C495 C490 1.399 . S
C495 C494 1.394 . S
C495 C496 1.516 . S
C496 C495 1.516 . S
C496 C497 1.502 . S
C496 C498 1.561 . S
C496 C499 1.526 . S
C497 H481 0.959 . S
C497 H482 0.959 . S
C497 H483 0.961 . S
C497 C496 1.502 . S
C498 H484 0.960 . S
C498 H485 0.961 . S
C498 H486 0.959 . S
C498 C496 1.561 . S
C499 C496 1.526 . S
C499 C500 1.396 . S
C499 C504 1.390 . S
C500 C494 1.465 . S
C500 C499 1.396 . S
C500 C501 1.399 . S
C501 H487 0.929 . S
C501 C500 1.399 . S
C501 C502 1.385 . S
C502 H488 0.931 . S
C502 C501 1.385 . S
C502 C503 1.389 . S
C503 C502 1.389 . S
C503 C504 1.387 . S
C504 H489 0.930 . S
C504 C499 1.390 . S
C504 C503 1.387 . S
H505 C517 0.930 . S
H506 C519 0.930 . S
H507 C520 0.930 . S
H508 C524 0.959 . S
H509 C524 0.959 . S
H510 C524 0.961 . S
H511 C525 0.960 . S
H512 C525 0.961 . S
H513 C525 0.959 . S
H514 C528 0.929 . S
H515 C529 0.931 . S
H516 C531 0.930 . S
C517 H505 0.930 . S
C517 C518 1.399 . S
C517 C522 1.399 . S
C518 C517 1.399 . S
C518 C519 1.376 . S
C519 H506 0.930 . S
C519 C518 1.376 . S
C519 C520 1.388 . S
C520 H507 0.930 . S
C520 C519 1.388 . S
C520 C521 1.390 . S
C521 C520 1.390 . S
C521 C522 1.394 . S
C521 C527 1.465 . S
C522 C517 1.399 . S
C522 C521 1.394 . S
C522 C523 1.516 . S
C523 C522 1.516 . S
C523 C524 1.502 . S
C523 C525 1.561 . S
C523 C526 1.526 . S
C524 H508 0.959 . S
C524 H509 0.959 . S
C524 H510 0.961 . S
C524 C523 1.502 . S
C525 H511 0.960 . S
C525 H512 0.961 . S
C525 H513 0.959 . S
C525 C523 1.561 . S
C526 C523 1.526 . S
C526 C527 1.396 . S
C526 C531 1.390 . S
C527 C521 1.465 . S
C527 C526 1.396 . S
C527 C528 1.399 . S
C528 H514 0.929 . S
C528 C527 1.399 . S
C528 C529 1.385 . S
C529 H515 0.931 . S
C529 C528 1.385 . S
C529 C530 1.389 . S
C530 C529 1.389 . S
C530 C531 1.387 . S
C531 H516 0.930 . S
C531 C526 1.390 . S
C531 C530 1.387 . S
H532 C544 0.930 . S
H533 C546 0.930 . S
H534 C547 0.930 . S
H535 C551 0.959 . S
H536 C551 0.959 . S
H537 C551 0.961 . S
H538 C552 0.960 . S
H539 C552 0.961 . S
H540 C552 0.959 . S
H541 C555 0.929 . S
H542 C556 0.931 . S
H543 C558 0.930 . S
C544 H532 0.930 . S
C544 C545 1.399 . S
C544 C549 1.399 . S
C545 C544 1.399 . S
C545 C546 1.376 . S
C546 H533 0.930 . S
C546 C545 1.376 . S
C546 C547 1.388 . S
C547 H534 0.930 . S
C547 C546 1.388 . S
C547 C548 1.390 . S
C548 C547 1.390 . S
C548 C549 1.394 . S
C548 C554 1.465 . S
C549 C544 1.399 . S
C549 C548 1.394 . S
C549 C550 1.516 . S
C550 C549 1.516 . S
C550 C551 1.502 . S
C550 C552 1.561 . S
C550 C553 1.526 . S
C551 H535 0.959 . S
C551 H536 0.959 . S
C551 H537 0.961 . S
C551 C550 1.502 . S
C552 H538 0.960 . S
C552 H539 0.961 . S
C552 H540 0.959 . S
C552 C550 1.561 . S
C553 C550 1.526 . S
C553 C554 1.396 . S
C553 C558 1.390 . S
C554 C548 1.465 . S
C554 C553 1.396 . S
C554 C555 1.399 . S
C555 H541 0.929 . S
C555 C554 1.399 . S
C555 C556 1.385 . S
C556 H542 0.931 . S
C556 C555 1.385 . S
C556 C557 1.389 . S
C557 C556 1.389 . S
C557 C558 1.387 . S
C558 H543 0.930 . S
C558 C553 1.390 . S
C558 C557 1.387 . S
H559 C571 0.930 . S
H560 C573 0.930 . S
H561 C574 0.930 . S
H562 C578 0.959 . S
H563 C578 0.959 . S
H564 C578 0.961 . S
H565 C579 0.960 . S
H566 C579 0.961 . S
H567 C579 0.959 . S
H568 C582 0.929 . S
H569 C583 0.931 . S
H570 C585 0.930 . S
C571 H559 0.930 . S
C571 C572 1.399 . S
C571 C576 1.399 . S
C572 C571 1.399 . S
C572 C573 1.376 . S
C573 H560 0.930 . S
C573 C572 1.376 . S
C573 C574 1.388 . S
C574 H561 0.930 . S
C574 C573 1.388 . S
C574 C575 1.390 . S
C575 C574 1.390 . S
C575 C576 1.394 . S
C575 C581 1.465 . S
C576 C571 1.399 . S
C576 C575 1.394 . S
C576 C577 1.516 . S
C577 C576 1.516 . S
C577 C578 1.502 . S
C577 C579 1.561 . S
C577 C580 1.526 . S
C578 H562 0.959 . S
C578 H563 0.959 . S
C578 H564 0.961 . S
C578 C577 1.502 . S
C579 H565 0.960 . S
C579 H566 0.961 . S
C579 H567 0.959 . S
C579 C577 1.561 . S
C580 C577 1.526 . S
C580 C581 1.396 . S
C580 C585 1.390 . S
C581 C575 1.465 . S
C581 C580 1.396 . S
C581 C582 1.399 . S
C582 H568 0.929 . S
C582 C581 1.399 . S
C582 C583 1.385 . S
C583 H569 0.931 . S
C583 C582 1.385 . S
C583 C584 1.389 . S
C584 C583 1.389 . S
C584 C585 1.387 . S
C585 H570 0.930 . S
C585 C580 1.390 . S
C585 C584 1.387 . S
H586 C598 0.930 . S
H587 C600 0.930 . S
H588 C601 0.930 . S
H589 C605 0.959 . S
H590 C605 0.959 . S
H591 C605 0.961 . S
H592 C606 0.960 . S
H593 C606 0.961 . S
H594 C606 0.959 . S
H595 C609 0.929 . S
H596 C610 0.931 . S
H597 C612 0.930 . S
C598 H586 0.930 . S
C598 C599 1.399 . S
C598 C603 1.399 . S
C599 C598 1.399 . S
C599 C600 1.376 . S
C600 H587 0.930 . S
C600 C599 1.376 . S
C600 C601 1.388 . S
C601 H588 0.930 . S
C601 C600 1.388 . S
C601 C602 1.390 . S
C602 C601 1.390 . S
C602 C603 1.394 . S
C602 C608 1.465 . S
C603 C598 1.399 . S
C603 C602 1.394 . S
C603 C604 1.516 . S
C604 C603 1.516 . S
C604 C605 1.502 . S
C604 C606 1.561 . S
C604 C607 1.526 . S
C605 H589 0.959 . S
C605 H590 0.959 . S
C605 H591 0.961 . S
C605 C604 1.502 . S
C606 H592 0.960 . S
C606 H593 0.961 . S
C606 H594 0.959 . S
C606 C604 1.561 . S
C607 C604 1.526 . S
C607 C608 1.396 . S
C607 C612 1.390 . S
C608 C602 1.465 . S
C608 C607 1.396 . S
C608 C609 1.399 . S
C609 H595 0.929 . S
C609 C608 1.399 . S
C609 C610 1.385 . S
C610 H596 0.931 . S
C610 C609 1.385 . S
C610 C611 1.389 . S
C611 C610 1.389 . S
C611 C612 1.387 . S
C612 H597 0.930 . S
C612 C607 1.390 . S
C612 C611 1.387 . S
H613 C625 0.930 . S
H614 C627 0.930 . S
H615 C628 0.930 . S
H616 C632 0.959 . S
H617 C632 0.959 . S
H618 C632 0.961 . S
H619 C633 0.960 . S
H620 C633 0.961 . S
H621 C633 0.959 . S
H622 C636 0.929 . S
H623 C637 0.931 . S
H624 C639 0.930 . S
C625 H613 0.930 . S
C625 C626 1.399 . S
C625 C630 1.399 . S
C626 C625 1.399 . S
C626 C627 1.376 . S
C627 H614 0.930 . S
C627 C626 1.376 . S
C627 C628 1.388 . S
C628 H615 0.930 . S
C628 C627 1.388 . S
C628 C629 1.390 . S
C629 C628 1.390 . S
C629 C630 1.394 . S
C629 C635 1.465 . S
C630 C625 1.399 . S
C630 C629 1.394 . S
C630 C631 1.516 . S
C631 C630 1.516 . S
C631 C632 1.502 . S
C631 C633 1.561 . S
C631 C634 1.526 . S
C632 H616 0.959 . S
C632 H617 0.959 . S
C632 H618 0.961 . S
C632 C631 1.502 . S
C633 H619 0.960 . S
C633 H620 0.961 . S
C633 H621 0.959 . S
C633 C631 1.561 . S
C634 C631 1.526 . S
C634 C635 1.396 . S
C634 C639 1.390 . S
C635 C629 1.465 . S
C635 C634 1.396 . S
C635 C636 1.399 . S
C636 H622 0.929 . S
C636 C635 1.399 . S
C636 C637 1.385 . S
C637 H623 0.931 . S
C637 C636 1.385 . S
C637 C638 1.389 . S
C638 C637 1.389 . S
C638 C639 1.387 . S
C639 H624 0.930 . S
C639 C634 1.390 . S
C639 C638 1.387 . S
H640 C652 0.930 . S
H641 C654 0.930 . S
H642 C655 0.930 . S
H643 C659 0.959 . S
H644 C659 0.959 . S
H645 C659 0.961 . S
H646 C660 0.960 . S
H647 C660 0.961 . S
H648 C660 0.959 . S
H649 C663 0.929 . S
H650 C664 0.931 . S
H651 C666 0.930 . S
C652 H640 0.930 . S
C652 C653 1.399 . S
C652 C657 1.399 . S
C653 C652 1.399 . S
C653 C654 1.376 . S
C654 H641 0.930 . S
C654 C653 1.376 . S
C654 C655 1.388 1_556 S
C655 H642 0.930 . S
C655 C654 1.388 1_554 S
C655 C656 1.390 1_554 S
C656 C655 1.390 1_556 S
C656 C657 1.394 . S
C656 C662 1.465 1_556 S
C657 C652 1.399 . S
C657 C656 1.394 . S
C657 C658 1.516 . S
C658 C657 1.516 . S
C658 C659 1.502 . S
C658 C660 1.561 . S
C658 C661 1.526 1_556 S
C659 H643 0.959 . S
C659 H644 0.959 . S
C659 H645 0.961 . S
C659 C658 1.502 . S
C660 H646 0.960 . S
C660 H647 0.961 . S
C660 H648 0.959 . S
C660 C658 1.561 . S
C661 C658 1.526 1_554 S
C661 C662 1.396 . S
C661 C666 1.390 . S
C662 C656 1.465 1_554 S
C662 C661 1.396 . S
C662 C663 1.399 . S
C663 H649 0.929 . S
C663 C662 1.399 . S
C663 C664 1.385 . S
C664 H650 0.931 . S
C664 C663 1.385 . S
C664 C665 1.389 . S
C665 C664 1.389 . S
C665 C666 1.387 . S
C666 H651 0.930 . S
C666 C661 1.390 . S
C666 C665 1.387 . S
H667 C679 0.930 . S
H668 C681 0.930 . S
H669 C682 0.930 . S
H670 C686 0.959 . S
H671 C686 0.959 . S
H672 C686 0.961 . S
H673 C687 0.960 . S
H674 C687 0.961 . S
H675 C687 0.959 . S
H676 C690 0.929 . S
H677 C691 0.931 . S
H678 C693 0.930 . S
C679 H667 0.930 . S
C679 C680 1.399 . S
C679 C684 1.399 . S
C680 C679 1.399 . S
C680 C681 1.376 . S
C681 H668 0.930 . S
C681 C680 1.376 . S
C681 C682 1.388 . S
C682 H669 0.930 . S
C682 C681 1.388 . S
C682 C683 1.390 . S
C683 C682 1.390 . S
C683 C684 1.394 . S
C683 C689 1.465 . S
C684 C679 1.399 . S
C684 C683 1.394 . S
C684 C685 1.516 . S
C685 C684 1.516 . S
C685 C686 1.502 . S
C685 C687 1.561 . S
C685 C688 1.526 . S
C686 H670 0.959 . S
C686 H671 0.959 . S
C686 H672 0.961 . S
C686 C685 1.502 . S
C687 H673 0.960 . S
C687 H674 0.961 . S
C687 H675 0.959 . S
C687 C685 1.561 . S
C688 C685 1.526 . S
C688 C689 1.396 . S
C688 C693 1.390 . S
C689 C683 1.465 . S
C689 C688 1.396 . S
C689 C690 1.399 . S
C690 H676 0.929 . S
C690 C689 1.399 . S
C690 C691 1.385 . S
C691 H677 0.931 . S
C691 C690 1.385 . S
C691 C692 1.389 . S
C692 C691 1.389 . S
C692 C693 1.387 . S
C693 H678 0.930 . S
C693 C688 1.390 . S
C693 C692 1.387 . S
H694 C706 0.930 . S
H695 C708 0.930 . S
H696 C709 0.930 . S
H697 C713 0.959 1_554 S
H698 C713 0.959 . S
H699 C713 0.961 . S
H700 C714 0.960 . S
H701 C714 0.961 . S
H702 C714 0.959 . S
H703 C717 0.929 1_554 S
H704 C718 0.931 . S
H705 C720 0.930 . S
C706 H694 0.930 . S
C706 C707 1.399 . S
C706 C711 1.399 . S
C707 C706 1.399 . S
C707 C708 1.376 . S
C708 H695 0.930 . S
C708 C707 1.376 . S
C708 C709 1.388 . S
C709 H696 0.930 . S
C709 C708 1.388 . S
C709 C710 1.390 . S
C710 C709 1.390 . S
C710 C711 1.394 . S
C710 C716 1.465 1_554 S
C711 C706 1.399 . S
C711 C710 1.394 . S
C711 C712 1.516 1_554 S
C712 C711 1.516 1_556 S
C712 C713 1.502 . S
C712 C714 1.561 . S
C712 C715 1.526 . S
C713 H697 0.959 1_556 S
C713 H698 0.959 . S
C713 H699 0.961 . S
C713 C712 1.502 . S
C714 H700 0.960 . S
C714 H701 0.961 . S
C714 H702 0.959 . S
C714 C712 1.561 . S
C715 C712 1.526 . S
C715 C716 1.396 . S
C715 C720 1.390 . S
C716 C710 1.465 1_556 S
C716 C715 1.396 . S
C716 C717 1.399 . S
C717 H703 0.929 1_556 S
C717 C716 1.399 . S
C717 C718 1.385 . S
C718 H704 0.931 . S
C718 C717 1.385 . S
C718 C719 1.389 . S
C719 C718 1.389 . S
C719 C720 1.387 . S
C720 H705 0.930 . S
C720 C715 1.390 . S
C720 C719 1.387 . S
H721 C733 0.930 . S
H722 C735 0.930 . S
H723 C736 0.930 . S
H724 C740 0.959 . S
H725 C740 0.959 . S
H726 C740 0.961 . S
H727 C741 0.960 . S
H728 C741 0.961 . S
H729 C741 0.959 . S
H730 C744 0.929 . S
H731 C745 0.931 . S
H732 C747 0.930 . S
C733 H721 0.930 . S
C733 C734 1.399 . S
C733 C738 1.399 . S
C734 C733 1.399 . S
C734 C735 1.376 . S
C735 H722 0.930 . S
C735 C734 1.376 . S
C735 C736 1.388 . S
C736 H723 0.930 . S
C736 C735 1.388 . S
C736 C737 1.390 . S
C737 C736 1.390 . S
C737 C738 1.394 . S
C737 C743 1.465 . S
C738 C733 1.399 . S
C738 C737 1.394 . S
C738 C739 1.516 . S
C739 C738 1.516 . S
C739 C740 1.502 . S
C739 C741 1.561 . S
C739 C742 1.526 . S
C740 H724 0.959 . S
C740 H725 0.959 . S
C740 H726 0.961 . S
C740 C739 1.502 . S
C741 H727 0.960 . S
C741 H728 0.961 . S
C741 H729 0.959 . S
C741 C739 1.561 . S
C742 C739 1.526 . S
C742 C743 1.396 . S
C742 C747 1.390 . S
C743 C737 1.465 . S
C743 C742 1.396 . S
C743 C744 1.399 . S
C744 H730 0.929 . S
C744 C743 1.399 . S
C744 C745 1.385 . S
C745 H731 0.931 . S
C745 C744 1.385 . S
C745 C746 1.389 . S
C746 C745 1.389 . S
C746 C747 1.387 . S
C747 H732 0.930 . S
C747 C742 1.390 . S
C747 C746 1.387 . S
H748 C760 0.952 . S
H749 C762 0.930 . S
H750 C763 0.930 . S
H751 C767 0.959 . S
H752 C767 0.959 . S
H753 C767 0.961 . S
H754 C768 0.960 . S
H755 C768 0.961 . S
H756 C768 0.959 . S
H757 C771 0.929 . S
H758 C772 0.931 . S
H759 C774 0.930 . S
C760 H748 0.952 . S
C760 C761 1.399 . S
C760 C765 1.404 . S
C761 C760 1.399 . S
C761 C762 1.376 . S
C762 H749 0.930 . S
C762 C761 1.376 . S
C762 C763 1.388 . S
C763 H750 0.930 . S
C763 C762 1.388 . S
C763 C764 1.390 . S
C764 C763 1.390 . S
C764 C765 1.401 . S
C764 C770 1.475 . S
C765 C760 1.404 . S
C765 C764 1.401 . S
C765 C766 1.504 1_554 S
C766 C765 1.504 1_556 S
C766 C767 1.502 . S
C766 C768 1.561 . S
C766 C769 1.526 . S
C767 H751 0.959 . S
C767 H752 0.959 . S
C767 H753 0.961 . S
C767 C766 1.502 . S
C768 H754 0.960 . S
C768 H755 0.961 . S
C768 H756 0.959 . S
C768 C766 1.561 . S
C769 C766 1.526 . S
C769 C770 1.380 1_556 S
C769 C774 1.390 . S
C770 C764 1.475 . S
C770 C769 1.380 1_554 S
C770 C771 1.403 . S
C771 H757 0.929 . S
C771 C770 1.403 . S
C771 C772 1.385 1_554 S
C772 H758 0.931 . S
C772 C771 1.385 1_556 S
C772 C773 1.389 . S
C773 C772 1.389 . S
C773 C774 1.387 . S
C774 H759 0.930 . S
C774 C769 1.390 . S
C774 C773 1.387 . S
H775 C787 0.930 . S
H776 C789 0.930 . S
H777 C790 0.930 . S
H778 C794 0.959 . S
H779 C794 0.959 . S
H780 C794 0.961 . S
H781 C795 0.960 . S
H782 C795 0.961 . S
H783 C795 0.959 . S
H784 C798 0.929 . S
H785 C799 0.931 . S
H786 C801 0.930 . S
C787 H775 0.930 . S
C787 C788 1.399 . S
C787 C792 1.399 . S
C788 C787 1.399 . S
C788 C789 1.376 . S
C789 H776 0.930 . S
C789 C788 1.376 . S
C789 C790 1.388 . S
C790 H777 0.930 . S
C790 C789 1.388 . S
C790 C791 1.390 . S
C791 C790 1.390 . S
C791 C792 1.394 . S
C791 C797 1.465 . S
C792 C787 1.399 . S
C792 C791 1.394 . S
C792 C793 1.516 . S
C793 C792 1.516 . S
C793 C794 1.502 . S
C793 C795 1.561 . S
C793 C796 1.526 . S
C794 H778 0.959 . S
C794 H779 0.959 . S
C794 H780 0.961 . S
C794 C793 1.502 . S
C795 H781 0.960 . S
C795 H782 0.961 . S
C795 H783 0.959 . S
C795 C793 1.561 . S
C796 C793 1.526 . S
C796 C797 1.396 . S
C796 C801 1.390 . S
C797 C791 1.465 . S
C797 C796 1.396 . S
C797 C798 1.399 . S
C798 H784 0.929 . S
C798 C797 1.399 . S
C798 C799 1.385 . S
C799 H785 0.931 . S
C799 C798 1.385 . S
C799 C800 1.389 . S
C800 C799 1.389 . S
C800 C801 1.387 . S
C801 H786 0.930 . S
C801 C796 1.390 . S
C801 C800 1.387 . S
H802 C814 0.930 . S
H803 C816 0.930 . S
H804 C817 0.930 . S
H805 C821 0.959 1_556 S
H806 C821 0.959 . S
H807 C821 0.961 . S
H808 C822 0.960 . S
H809 C822 0.961 . S
H810 C822 0.959 . S
H811 C825 0.929 . S
H812 C826 0.931 . S
H813 C828 0.930 . S
C814 H802 0.930 . S
C814 C815 1.399 . S
C814 C819 1.399 . S
C815 C814 1.399 . S
C815 C816 1.376 . S
C816 H803 0.930 . S
C816 C815 1.376 . S
C816 C817 1.388 . S
C817 H804 0.930 . S
C817 C816 1.388 . S
C817 C818 1.390 . S
C818 C817 1.390 . S
C818 C819 1.394 . S
C818 C824 1.465 1_554 S
C819 C814 1.399 . S
C819 C818 1.394 . S
C819 C820 1.516 . S
C820 C819 1.516 . S
C820 C821 1.502 . S
C820 C822 1.561 . S
C820 C823 1.526 1_554 S
C821 H805 0.959 1_554 S
C821 H806 0.959 . S
C821 H807 0.961 . S
C821 C820 1.502 . S
C822 H808 0.960 . S
C822 H809 0.961 . S
C822 H810 0.959 . S
C822 C820 1.561 . S
C823 C820 1.526 1_556 S
C823 C824 1.396 . S
C823 C828 1.390 . S
C824 C818 1.465 1_556 S
C824 C823 1.396 . S
C824 C825 1.399 . S
C825 H811 0.929 . S
C825 C824 1.399 . S
C825 C826 1.385 . S
C826 H812 0.931 . S
C826 C825 1.385 . S
C826 C827 1.389 . S
C827 C826 1.389 . S
C827 C828 1.387 . S
C828 H813 0.930 . S
C828 C823 1.390 . S
C828 C827 1.387 . S
H829 C841 0.930 . S
H830 C843 0.930 . S
H831 C844 0.930 . S
H832 C848 0.959 . S
H833 C848 0.959 . S
H834 C848 0.961 . S
H835 C849 0.960 . S
H836 C849 0.961 . S
H837 C849 0.959 . S
H838 C852 0.929 . S
H839 C853 0.931 . S
H840 C855 0.930 . S
C841 H829 0.930 . S
C841 C842 1.399 . S
C841 C846 1.399 . S
C842 C841 1.399 . S
C842 C843 1.376 . S
C843 H830 0.930 . S
C843 C842 1.376 . S
C843 C844 1.388 . S
C844 H831 0.930 . S
C844 C843 1.388 . S
C844 C845 1.390 . S
C845 C844 1.390 . S
C845 C846 1.394 . S
C845 C851 1.465 . S
C846 C841 1.399 . S
C846 C845 1.394 . S
C846 C847 1.516 . S
C847 C846 1.516 . S
C847 C848 1.502 . S
C847 C849 1.561 . S
C847 C850 1.526 . S
C848 H832 0.959 . S
C848 H833 0.959 . S
C848 H834 0.961 . S
C848 C847 1.502 . S
C849 H835 0.960 . S
C849 H836 0.961 . S
C849 H837 0.959 . S
C849 C847 1.561 . S
C850 C847 1.526 . S
C850 C851 1.396 . S
C850 C855 1.390 . S
C851 C845 1.465 . S
C851 C850 1.396 . S
C851 C852 1.399 . S
C852 H838 0.929 . S
C852 C851 1.399 . S
C852 C853 1.385 . S
C853 H839 0.931 . S
C853 C852 1.385 . S
C853 C854 1.389 . S
C854 C853 1.389 . S
C854 C855 1.387 . S
C855 H840 0.930 . S
C855 C850 1.390 . S
C855 C854 1.387 . S
H856 C868 0.930 . S
H857 C870 0.930 . S
H858 C871 0.930 . S
H859 C875 0.959 . S
H860 C875 0.959 . S
H861 C875 0.961 . S
H862 C876 0.960 . S
H863 C876 0.961 . S
H864 C876 0.959 . S
H865 C879 0.929 . S
H866 C880 0.931 . S
H867 C882 0.930 1_556 S
C868 H856 0.930 . S
C868 C869 1.399 . S
C868 C873 1.399 . S
C869 C868 1.399 . S
C869 C870 1.376 1_556 S
C870 H857 0.930 . S
C870 C869 1.376 1_554 S
C870 C871 1.388 . S
C871 H858 0.930 . S
C871 C870 1.388 . S
C871 C872 1.390 . S
C872 C871 1.390 . S
C872 C873 1.394 1_554 S
C872 C878 1.465 . S
C873 C868 1.399 . S
C873 C872 1.394 1_556 S
C873 C874 1.516 . S
C874 C873 1.516 . S
C874 C875 1.502 . S
C874 C876 1.561 . S
C874 C877 1.526 . S
C875 H859 0.959 . S
C875 H860 0.959 . S
C875 H861 0.961 . S
C875 C874 1.502 . S
C876 H862 0.960 . S
C876 H863 0.961 . S
C876 H864 0.959 . S
C876 C874 1.561 . S
C877 C874 1.526 . S
C877 C878 1.396 1_556 S
C877 C882 1.390 1_556 S
C878 C872 1.465 . S
C878 C877 1.396 1_554 S
C878 C879 1.399 . S
C879 H865 0.929 . S
C879 C878 1.399 . S
C879 C880 1.385 . S
C880 H866 0.931 . S
C880 C879 1.385 . S
C880 C881 1.389 . S
C881 C880 1.389 . S
C881 C882 1.387 . S
C882 H867 0.930 1_554 S
C882 C877 1.390 1_554 S
C882 C881 1.387 . S
H883 C895 0.930 . S
H884 C897 0.930 . S
H885 C898 0.930 . S
H886 C902 0.959 . S
H887 C902 0.959 . S
H888 C902 0.961 . S
H889 C903 0.960 . S
H890 C903 0.961 . S
H891 C903 0.959 . S
H892 C906 0.929 . S
H893 C907 0.931 . S
H894 C909 0.930 . S
C895 H883 0.930 . S
C895 C896 1.399 . S
C895 C900 1.399 . S
C896 C895 1.399 . S
C896 C897 1.376 . S
C897 H884 0.930 . S
C897 C896 1.376 . S
C897 C898 1.388 . S
C898 H885 0.930 . S
C898 C897 1.388 . S
C898 C899 1.390 . S
C899 C898 1.390 . S
C899 C900 1.394 . S
C899 C905 1.465 . S
C900 C895 1.399 . S
C900 C899 1.394 . S
C900 C901 1.516 . S
C901 C900 1.516 . S
C901 C902 1.502 . S
C901 C903 1.561 . S
C901 C904 1.526 . S
C902 H886 0.959 . S
C902 H887 0.959 . S
C902 H888 0.961 . S
C902 C901 1.502 . S
C903 H889 0.960 . S
C903 H890 0.961 . S
C903 H891 0.959 . S
C903 C901 1.561 . S
C904 C901 1.526 . S
C904 C905 1.396 . S
C904 C909 1.390 . S
C905 C899 1.465 . S
C905 C904 1.396 . S
C905 C906 1.399 . S
C906 H892 0.929 . S
C906 C905 1.399 . S
C906 C907 1.385 . S
C907 H893 0.931 . S
C907 C906 1.385 . S
C907 C908 1.389 . S
C908 C907 1.389 . S
C908 C909 1.387 . S
C909 H894 0.930 . S
C909 C904 1.390 . S
C909 C908 1.387 . S
H910 C922 0.930 . S
H911 C924 0.931 1_556 S
H912 C925 0.930 . S
H913 C929 0.959 . S
H914 C929 0.959 . S
H915 C929 0.961 . S
H916 C930 0.960 . S
H917 C930 0.961 . S
H918 C930 0.959 . S
H919 C933 0.929 . S
H920 C934 0.931 . S
H921 C936 0.930 1_554 S
C922 H910 0.930 . S
C922 C923 1.399 . S
C922 C927 1.399 . S
C923 C922 1.399 . S
C923 C924 1.376 . S
C924 H911 0.931 1_554 S
C924 C923 1.376 . S
C924 C925 1.388 1_554 S
C925 H912 0.930 . S
C925 C924 1.388 1_556 S
C925 C926 1.390 . S
C926 C925 1.390 . S
C926 C927 1.394 1_556 S
C926 C932 1.465 . S
C927 C922 1.399 . S
C927 C926 1.394 1_554 S
C927 C928 1.516 . S
C928 C927 1.516 . S
C928 C929 1.502 . S
C928 C930 1.561 . S
C928 C931 1.549 . S
C929 H913 0.959 . S
C929 H914 0.959 . S
C929 H915 0.961 . S
C929 C928 1.502 . S
C930 H916 0.960 . S
C930 H917 0.961 . S
C930 H918 0.959 . S
C930 C928 1.561 . S
C931 C928 1.549 . S
C931 C932 1.380 1_554 S
C931 C936 1.382 1_554 S
C932 C926 1.465 . S
C932 C931 1.380 1_556 S
C932 C933 1.399 . S
C933 H919 0.929 . S
C933 C932 1.399 . S
C933 C934 1.385 . S
C934 H920 0.931 . S
C934 C933 1.385 . S
C934 C935 1.389 . S
C935 C934 1.389 . S
C935 C936 1.387 . S
C936 H921 0.930 1_556 S
C936 C931 1.382 1_556 S
C936 C935 1.387 . S
H937 C949 0.930 . S
H938 C951 0.930 . S
H939 C952 0.930 . S
H940 C956 0.959 . S
H941 C956 0.959 . S
H942 C956 0.961 . S
H943 C957 0.960 . S
H944 C957 0.961 . S
H945 C957 0.959 . S
H946 C960 0.929 . S
H947 C961 0.931 . S
H948 C963 0.930 . S
C949 H937 0.930 . S
C949 C950 1.399 . S
C949 C954 1.399 . S
C950 C949 1.399 . S
C950 C951 1.376 . S
C951 H938 0.930 . S
C951 C950 1.376 . S
C951 C952 1.388 . S
C952 H939 0.930 . S
C952 C951 1.388 . S
C952 C953 1.390 . S
C953 C952 1.390 . S
C953 C954 1.394 . S
C953 C959 1.465 . S
C954 C949 1.399 . S
C954 C953 1.394 . S
C954 C955 1.516 . S
C955 C954 1.516 . S
C955 C956 1.502 . S
C955 C957 1.561 . S
C955 C958 1.526 . S
C956 H940 0.959 . S
C956 H941 0.959 . S
C956 H942 0.961 . S
C956 C955 1.502 . S
C957 H943 0.960 . S
C957 H944 0.961 . S
C957 H945 0.959 . S
C957 C955 1.561 . S
C958 C955 1.526 . S
C958 C959 1.396 . S
C958 C963 1.390 . S
C959 C953 1.465 . S
C959 C958 1.396 . S
C959 C960 1.399 . S
C960 H946 0.929 . S
C960 C959 1.399 . S
C960 C961 1.385 . S
C961 H947 0.931 . S
C961 C960 1.385 . S
C961 C962 1.389 . S
C962 C961 1.389 . S
C962 C963 1.387 . S
C963 H948 0.930 . S
C963 C958 1.390 . S
C963 C962 1.387 . S
H964 C976 0.930 . S
H965 C978 0.930 . S
H966 C979 0.930 . S
H967 C983 0.959 1_566 S
H968 C983 0.959 1_565 S
H969 C983 0.961 . S
H970 C984 0.960 . S
H971 C984 0.961 . S
H972 C984 0.959 . S
H973 C987 0.929 . S
H974 C988 0.931 . S
H975 C990 0.930 . S
C976 H964 0.930 . S
C976 C977 1.399 . S
C976 C981 1.400 1_556 S
C977 C976 1.399 . S
C977 C978 1.376 . S
C978 H965 0.930 . S
C978 C977 1.376 . S
C978 C979 1.388 . S
C979 H966 0.930 . S
C979 C978 1.388 . S
C979 C980 1.390 . S
C980 C979 1.390 . S
C980 C981 1.395 1_556 S
C980 C986 1.459 1_546 S
C981 C976 1.400 1_554 S
C981 C980 1.395 1_554 S
C981 C982 1.514 . S
C982 C981 1.514 . S
C982 C983 1.502 . S
C982 C984 1.561 . S
C982 C985 1.526 1_545 S
C983 H967 0.959 1_544 S
C983 H968 0.959 1_545 S
C983 H969 0.961 . S
C983 C982 1.502 . S
C984 H970 0.960 . S
C984 H971 0.961 . S
C984 H972 0.959 . S
C984 C982 1.561 . S
C985 C982 1.526 1_565 S
C985 C986 1.407 . S
C985 C990 1.390 . S
C986 C980 1.459 1_564 S
C986 C985 1.407 . S
C986 C987 1.396 1_554 S
C987 H973 0.929 . S
C987 C986 1.396 1_556 S
C987 C988 1.385 1_556 S
C988 H974 0.931 . S
C988 C987 1.385 1_554 S
C988 C989 1.389 . S
C989 C988 1.389 . S
C989 C990 1.387 . S
C990 H975 0.930 . S
C990 C985 1.390 . S
C990 C989 1.387 . S
H991 C1003 0.930 . S
H992 C1005 0.930 . S
H993 C1006 0.930 . S
H994 C1010 0.959 . S
H995 C1010 0.959 . S
H996 C1010 0.961 . S
H997 C1011 0.960 . S
H998 C1011 0.961 . S
H999 C1011 0.959 . S
H1000 C1014 0.929 . S
H1001 C1015 0.931 . S
H1002 C1017 0.930 . S
C1003 H991 0.930 . S
C1003 C1004 1.399 . S
C1003 C1008 1.399 . S
C1004 C1003 1.399 . S
C1004 C1005 1.376 . S
C1005 H992 0.930 . S
C1005 C1004 1.376 . S
C1005 C1006 1.388 . S
C1006 H993 0.930 . S
C1006 C1005 1.388 . S
C1006 C1007 1.390 . S
C1007 C1006 1.390 . S
C1007 C1008 1.394 . S
C1007 C1013 1.465 1_565 S
C1008 C1003 1.399 . S
C1008 C1007 1.394 . S
C1008 C1009 1.516 . S
C1009 C1008 1.516 . S
C1009 C1010 1.502 . S
C1009 C1011 1.561 . S
C1009 C1012 1.526 1_565 S
C1010 H994 0.959 . S
C1010 H995 0.959 . S
C1010 H996 0.961 . S
C1010 C1009 1.502 . S
C1011 H997 0.960 . S
C1011 H998 0.961 . S
C1011 H999 0.959 . S
C1011 C1009 1.561 . S
C1012 C1009 1.526 1_545 S
C1012 C1013 1.396 . S
C1012 C1017 1.390 . S
C1013 C1007 1.465 1_545 S
C1013 C1012 1.396 . S
C1013 C1014 1.399 . S
C1014 H1000 0.929 . S
C1014 C1013 1.399 . S
C1014 C1015 1.385 . S
C1015 H1001 0.931 . S
C1015 C1014 1.385 . S
C1015 C1016 1.389 . S
C1016 C1015 1.389 . S
C1016 C1017 1.387 . S
C1017 H1002 0.930 . S
C1017 C1012 1.390 . S
C1017 C1016 1.387 . S
H1018 C1030 0.930 1_556 S
H1019 C1032 0.930 . S
H1020 C1033 0.930 . S
H1021 C1037 0.959 . S
H1022 C1037 0.959 . S
H1023 C1037 0.961 . S
H1024 C1038 0.960 . S
H1025 C1038 0.961 . S
H1026 C1038 0.959 . S
H1027 C1041 0.929 . S
H1028 C1042 0.931 1_554 S
H1029 C1044 0.930 . S
C1030 H1018 0.930 1_554 S
C1030 C1031 1.399 . S
C1030 C1035 1.399 1_554 S
C1031 C1030 1.399 . S
C1031 C1032 1.376 . S
C1032 H1019 0.930 . S
C1032 C1031 1.376 . S
C1032 C1033 1.388 . S
C1033 H1020 0.930 . S
C1033 C1032 1.388 . S
C1033 C1034 1.390 . S
C1034 C1033 1.390 . S
C1034 C1035 1.394 1_554 S
C1034 C1040 1.465 1_565 S
C1035 C1030 1.399 1_556 S
C1035 C1034 1.394 1_556 S
C1035 C1036 1.516 . S
C1036 C1035 1.516 . S
C1036 C1037 1.502 . S
C1036 C1038 1.561 . S
C1036 C1039 1.526 1_565 S
C1037 H1021 0.959 . S
C1037 H1022 0.959 . S
C1037 H1023 0.961 . S
C1037 C1036 1.502 . S
C1038 H1024 0.960 . S
C1038 H1025 0.961 . S
C1038 H1026 0.959 . S
C1038 C1036 1.561 . S
C1039 C1036 1.526 1_545 S
C1039 C1040 1.396 1_556 S
C1039 C1044 1.390 . S
C1040 C1034 1.465 1_545 S
C1040 C1039 1.396 1_554 S
C1040 C1041 1.399 . S
C1041 H1027 0.929 . S
C1041 C1040 1.399 . S
C1041 C1042 1.385 1_554 S
C1042 H1028 0.931 1_556 S
C1042 C1041 1.385 1_556 S
C1042 C1043 1.389 . S
C1043 C1042 1.389 . S
C1043 C1044 1.387 . S
C1044 H1029 0.930 . S
C1044 C1039 1.390 . S
C1044 C1043 1.387 . S
H1045 C1057 0.930 . S
H1046 C1059 0.930 . S
H1047 C1060 0.930 . S
H1048 C1064 0.959 . S
H1049 C1064 0.959 . S
H1050 C1064 0.961 . S
H1051 C1065 0.960 . S
H1052 C1065 0.961 . S
H1053 C1065 0.959 . S
H1054 C1068 0.929 . S
H1055 C1069 0.931 . S
H1056 C1071 0.930 . S
C1057 H1045 0.930 . S
C1057 C1058 1.399 . S
C1057 C1062 1.399 . S
C1058 C1057 1.399 . S
C1058 C1059 1.376 . S
C1059 H1046 0.930 . S
C1059 C1058 1.376 . S
C1059 C1060 1.388 . S
C1060 H1047 0.930 . S
C1060 C1059 1.388 . S
C1060 C1061 1.390 . S
C1061 C1060 1.390 . S
C1061 C1062 1.394 . S
C1061 C1067 1.465 1_545 S
C1062 C1057 1.399 . S
C1062 C1061 1.394 . S
C1062 C1063 1.516 . S
C1063 C1062 1.516 . S
C1063 C1064 1.502 . S
C1063 C1065 1.561 . S
C1063 C1066 1.526 1_545 S
C1064 H1048 0.959 . S
C1064 H1049 0.959 . S
C1064 H1050 0.961 . S
C1064 C1063 1.502 . S
C1065 H1051 0.960 . S
C1065 H1052 0.961 . S
C1065 H1053 0.959 . S
C1065 C1063 1.561 . S
C1066 C1063 1.526 1_565 S
C1066 C1067 1.396 . S
C1066 C1071 1.390 . S
C1067 C1061 1.465 1_565 S
C1067 C1066 1.396 . S
C1067 C1068 1.399 . S
C1068 H1054 0.929 . S
C1068 C1067 1.399 . S
C1068 C1069 1.385 . S
C1069 H1055 0.931 . S
C1069 C1068 1.385 . S
C1069 C1070 1.389 . S
C1070 C1069 1.389 . S
C1070 C1071 1.387 . S
C1071 H1056 0.930 . S
C1071 C1066 1.390 . S
C1071 C1070 1.387 . S
C221 C3 1.449 . S
C233 C83 1.447 . S
C248 C16 1.467 . S
C260 C96 1.467 . S
C275 C55 1.452 . S
C287 C31 1.455 . S
C302 C70 1.445 . S
C314 C44 1.449 . S
C329 C187 1.468 . S
C341 C109 1.467 . S
C356 C200 1.458 . S
C368 C120 1.461 . S
C383 C135 1.447 . S
C395 C161 1.444 . S
C410 C146 1.467 . S
C422 C174 1.468 . S
C437 C4 1.574 . S
C449 C68 1.559 . S
C464 C17 1.545 . S
C476 C57 1.563 . S
C491 C36 1.546 . S
C503 C94 1.564 . S
C518 C81 1.568 . S
C530 C49 1.578 . S
C545 C172 1.544 . S
C557 C114 1.542 . S
C572 C159 1.543 . S
C584 C121 1.543 . S
C599 C140 1.572 . S
C611 C198 1.556 . S
C626 C185 1.542 . S
C638 C147 1.544 . S
C653 C160 1.459 . S
C665 C10 1.491 . S
C680 C23 1.479 . S
C692 C173 1.482 . S
C707 C186 1.481 . S
C719 C30 1.461 . S
C734 C199 1.478 . S
C746 C43 1.462 . S
C761 C108 1.478 . S
C773 C62 1.460 . S
C788 C127 1.490 . S
C800 C69 1.457 . S
C815 C82 1.468 . S
C827 C134 1.489 . S
C842 C95 1.474 . S
C854 C153 1.465 . S
C869 C29 1.734 . S
C881 C5 1.714 . S
C896 C18 1.720 . S
C908 C42 1.739 . S
C923 C88 1.361 . S
C935 C56 1.347 . S
C950 C75 1.366 . S
C962 C101 1.349 . S
C977 C133 1.727 . S
C989 C107 1.734 . S
C1004 C148 1.719 . S
C1016 C122 1.739 . S
C1031 C192 1.364 . S
C1043 C166 1.381 . S
C1058 C205 1.363 . S
C1070 C179 1.380 . S
