# Generated by pormake.
# Topology snz, (6)-cn, num edge types: 1
# Building blocks:
#     Node 0, Type 0, BuildingBlock: BETDAH_clean_sbu_0, # of connection points: 6
#     Node 1, Type 0, BuildingBlock: BETDAH_clean_sbu_0, # of connection points: 6
#     Node 2, Type 0, BuildingBlock: BETDAH_clean_sbu_0, # of connection points: 6
#     Node 3, Type 0, BuildingBlock: BETDAH_clean_sbu_0, # of connection points: 6
#     Node 4, Type 0, BuildingBlock: BETDAH_clean_sbu_0, # of connection points: 6
#     Node 5, Type 0, BuildingBlock: BETDAH_clean_sbu_0, # of connection points: 6
#     Node 6, Type 0, BuildingBlock: BETDAH_clean_sbu_0, # of connection points: 6
#     Node 7, Type 0, BuildingBlock: BETDAH_clean_sbu_0, # of connection points: 6
#     Node 8, Type 0, BuildingBlock: BETDAH_clean_sbu_0, # of connection points: 6
#     Edge 9, Type (0, 0), BuildingBlock: AJUNOK_clean_linker_0, # of connection points: 2
#     Edge 10, Type (0, 0), BuildingBlock: AJUNOK_clean_linker_0, # of connection points: 2
#     Edge 11, Type (0, 0), BuildingBlock: AJUNOK_clean_linker_0, # of connection points: 2
#     Edge 12, Type (0, 0), BuildingBlock: AJUNOK_clean_linker_0, # of connection points: 2
#     Edge 13, Type (0, 0), BuildingBlock: AJUNOK_clean_linker_0, # of connection points: 2
#     Edge 14, Type (0, 0), BuildingBlock: AJUNOK_clean_linker_0, # of connection points: 2
#     Edge 15, Type (0, 0), BuildingBlock: AJUNOK_clean_linker_0, # of connection points: 2
#     Edge 16, Type (0, 0), BuildingBlock: AJUNOK_clean_linker_0, # of connection points: 2
#     Edge 17, Type (0, 0), BuildingBlock: AJUNOK_clean_linker_0, # of connection points: 2
#     Edge 18, Type (0, 0), BuildingBlock: AJUNOK_clean_linker_0, # of connection points: 2
#     Edge 19, Type (0, 0), BuildingBlock: AJUNOK_clean_linker_0, # of connection points: 2
#     Edge 20, Type (0, 0), BuildingBlock: AJUNOK_clean_linker_0, # of connection points: 2
#     Edge 21, Type (0, 0), BuildingBlock: AJUNOK_clean_linker_0, # of connection points: 2
#     Edge 22, Type (0, 0), BuildingBlock: AJUNOK_clean_linker_0, # of connection points: 2
#     Edge 23, Type (0, 0), BuildingBlock: AJUNOK_clean_linker_0, # of connection points: 2
#     Edge 24, Type (0, 0), BuildingBlock: AJUNOK_clean_linker_0, # of connection points: 2
#     Edge 25, Type (0, 0), BuildingBlock: AJUNOK_clean_linker_0, # of connection points: 2
#     Edge 26, Type (0, 0), BuildingBlock: AJUNOK_clean_linker_0, # of connection points: 2
#     Edge 27, Type (0, 0), BuildingBlock: AJUNOK_clean_linker_0, # of connection points: 2
#     Edge 28, Type (0, 0), BuildingBlock: AJUNOK_clean_linker_0, # of connection points: 2
#     Edge 29, Type (0, 0), BuildingBlock: AJUNOK_clean_linker_0, # of connection points: 2
#     Edge 30, Type (0, 0), BuildingBlock: AJUNOK_clean_linker_0, # of connection points: 2
#     Edge 31, Type (0, 0), BuildingBlock: AJUNOK_clean_linker_0, # of connection points: 2
#     Edge 32, Type (0, 0), BuildingBlock: AJUNOK_clean_linker_0, # of connection points: 2
#     Edge 33, Type (0, 0), BuildingBlock: AJUNOK_clean_linker_0, # of connection points: 2
#     Edge 34, Type (0, 0), BuildingBlock: AJUNOK_clean_linker_0, # of connection points: 2
#     Edge 35, Type (0, 0), BuildingBlock: AJUNOK_clean_linker_0, # of connection points: 2
# Relax obj value: 0.613
# Max RMSD: 0.285
# Mean RMSD: 0.190
data_MOF--net-snz--node1-BETDAH_clean_sbu_0--edge1-AJUNOK_clean_linker_0
_symmetry_space_group_name_H-M    P1
_symmetry_Int_Tables_number       1
_symmetry_cell_setting            triclinic
loop_
_symmetry_equiv_pos_as_xyz
'x, y, z'
_cell_length_a     54.569234
_cell_length_b     41.732293
_cell_length_c     12.559191
_cell_angle_alpha  97.291073
_cell_angle_beta   97.916661
_cell_angle_gamma 121.32719
loop_
_atom_site_label
_atom_site_type_symbol
_atom_site_fract_x
_atom_site_fract_y
_atom_site_fract_z
_atom_type_partial_charge
Ho0 Ho 0.13322 0.49959 0.25692 0.0
Ho1 Ho 0.10342 0.51246 0.24631 0.0
C2 C 0.07023 0.42374 0.15917 0.0
C3 C 0.17121 0.47822 0.27007 0.0
C4 C 0.18616 0.46382 0.341 0.0
C5 C 0.17577 0.44784 0.42998 0.0
C6 C 0.18783 0.42974 0.48504 0.0
C7 C 0.21038 0.42647 0.45193 0.0
C8 C 0.2211 0.44345 0.36447 0.0
C9 C 0.2092 0.46169 0.31017 0.0
C10 C 0.13409 0.52664 1.02412 0.0
C11 C 0.16279 0.59056 0.3151 0.0
C12 C 0.06563 0.53278 0.25631 0.0
C13 C 0.05056 0.5499 0.20401 0.0
C14 C 0.0548 0.56143 0.10412 0.0
C15 C 0.04111 0.57946 1.06133 0.0
C16 C 1.02298 0.5862 0.11768 0.0
C17 C 1.01945 0.57528 0.21875 0.0
C18 C 0.03297 0.55729 0.26097 0.0
C19 C 0.12699 0.52549 0.50878 0.0
O20 O 0.09532 0.43551 0.22847 0.0
O21 O 0.06777 0.45218 0.13972 0.0
O22 O 0.14284 0.45528 0.23242 0.0
O23 O 0.17897 0.51404 0.29634 0.0
O24 O 0.11711 0.50199 1.07884 0.0
O25 O 0.11757 0.50236 1.08147 0.0
O26 O 0.13688 0.57498 0.2496 0.0
O27 O 0.16754 0.56467 0.34471 0.0
O28 O 0.09398 0.55565 0.29689 0.0
O29 O 0.05802 0.49807 0.21013 0.0
O30 O 0.11391 0.49874 0.41413 0.0
O31 O 0.11408 0.49947 0.41266 0.0
H32 H 0.15791 0.44867 0.45562 0.0
H33 H 0.17934 0.41821 0.5536 0.0
H34 H 0.23817 0.4416 0.33515 0.0
H35 H 0.21746 0.47312 0.24105 0.0
H36 H 0.06868 0.55662 1.05963 0.0
H37 H 0.04433 0.58759 0.98342 0.0
H38 H 1.00627 0.58084 0.26569 0.0
H39 H 1.02989 0.54942 0.33933 0.0
Ho40 Ho 0.64456 0.52382 1.08101 0.0
Ho41 Ho 0.60928 0.52521 1.06764 0.0
C42 C 0.66107 0.6102 0.15009 0.0
C43 C 0.6961 0.53083 0.10473 0.0
C44 C 0.72442 0.55051 1.0653 0.0
C45 C 0.74174 0.59088 1.07658 0.0
C46 C 0.76967 0.60935 1.05052 0.0
C47 C 0.78143 0.58819 1.0118 0.0
C48 C 0.76382 0.54773 0.99875 0.0
C49 C 0.73601 0.52934 1.02559 0.0
C50 C 0.63783 0.53862 0.33427 0.0
C51 C 0.58671 0.4379 1.00854 0.0
C52 C 0.55998 0.52184 1.05004 0.0
C53 C 0.53841 0.50703 0.11936 0.0
C54 C 0.54301 0.49082 0.20539 0.0
C55 C 0.5225 0.47583 0.27017 0.0
C56 C 0.4969 0.47678 0.25062 0.0
C57 C 0.49256 0.49359 0.16548 0.0
C58 C 0.51307 0.50841 0.10003 0.0
C59 C 0.61564 0.50969 0.81428 0.0
O60 O 0.67052 0.59022 0.10244 0.0
O61 O 0.63427 0.58845 0.16236 0.0
O62 O 0.69071 0.55276 0.16642 0.0
O63 O 0.67176 0.50183 1.03727 0.0
O64 O 0.62502 0.51374 0.23608 0.0
O65 O 0.62563 0.51457 0.23461 0.0
O66 O 0.57969 0.46057 1.05599 0.0
O67 O 0.61391 0.45749 0.99326 0.0
O68 O 0.58574 0.55295 0.0992 0.0
O69 O 0.56252 0.49596 0.99221 0.0
O70 O 0.62886 0.53465 0.91232 0.0
O71 O 0.62833 0.53395 0.91363 0.0
H72 H 0.73383 0.60843 0.10665 0.0
H73 H 0.78191 0.6403 1.05958 0.0
H74 H 0.77183 0.53016 0.96951 0.0
H75 H 0.72373 0.4984 1.01701 0.0
H76 H 0.56253 0.48972 0.22246 0.0
H77 H 0.52683 0.46383 0.33644 0.0
H78 H 0.47306 0.49475 0.14857 0.0
H79 H 0.5091 0.52079 1.03419 0.0
Ho80 Ho 0.59835 0.06089 0.87994 0.0
Ho81 Ho 0.63901 0.10535 0.91364 0.0
C82 C 0.58833 0.12595 0.89771 0.0
C83 C 0.54466 1.00059 0.83396 0.0
C84 C 0.52507 0.9831 0.90893 0.0
C85 C 0.52958 1.00574 1.01167 0.0
C86 C 0.51018 0.99039 1.08027 0.0
C87 C 0.48609 0.95165 1.04941 0.0
C88 C 0.48183 0.9289 0.94689 0.0
C89 C 0.50109 0.9445 0.87733 0.0
C90 C 0.61983 0.06499 0.64528 0.0
C91 C 0.63798 0.0309 0.92119 0.0
C92 C 0.69771 0.15499 0.95848 0.0
C93 C 0.72584 0.15975 0.92845 0.0
C94 C 0.72713 0.14533 0.82242 0.0
C95 C 0.7537 0.14936 0.80156 0.0
C96 C 0.78045 0.16793 0.88553 0.0
C97 C 0.77872 0.18181 0.99146 0.0
C98 C 0.75234 0.17788 1.01201 0.0
C99 C 0.62897 0.0794 0.14591 0.0
O100 O 0.57797 0.09354 0.92765 0.0
O101 O 0.61517 0.13933 0.87707 0.0
O102 O 0.56781 0.99831 0.8424 0.0
O103 O 0.55126 0.03499 0.82803 0.0
O104 O 0.61461 0.08296 0.72566 0.0
O105 O 0.61455 0.0821 0.72713 0.0
O106 O 0.65041 0.06001 0.87519 0.0
O107 O 0.61414 0.02528 0.94634 0.0
O108 O 0.67869 0.15792 0.89191 0.0
O109 O 0.68371 0.12791 1.0085 0.0
O110 O 0.62013 0.09324 1.07024 0.0
O111 O 0.6206 0.09301 1.06791 0.0
H112 H 0.54785 0.03567 1.0382 0.0
H113 H 0.51376 1.00926 0.15649 0.0
H114 H 0.46357 0.89897 0.9204 0.0
H115 H 0.49709 0.9265 0.79849 0.0
H116 H 0.70746 0.13046 0.75537 0.0
H117 H 0.7529 0.13694 0.71916 0.0
H118 H 0.79809 0.19636 1.05968 0.0
H119 H 0.75269 0.18913 0.09521 0.0
Ho120 Ho 0.79447 0.86151 0.32921 0.0
Ho121 Ho 0.76559 0.87621 0.3209 0.0
C122 C 0.73607 0.78513 0.29127 0.0
C123 C 0.83041 0.83846 0.31342 0.0
C124 C 0.84768 0.82457 0.36835 0.0
C125 C 0.84311 0.81184 0.46645 0.0
C126 C 0.85699 0.79393 0.5077 0.0
C127 C 0.87555 0.78821 0.45129 0.0
C128 C 0.87974 0.80077 0.35265 0.0
C129 C 0.86612 0.81888 0.31222 0.0
C130 C 0.79205 0.88396 1.09118 0.0
C131 C 0.82952 0.9509 0.39925 0.0
C132 C 0.72935 0.90041 0.30635 0.0
C133 C 0.71374 0.91318 0.23132 0.0
C134 C 0.72351 0.92729 0.13905 0.0
C135 C 0.71138 0.94476 1.08076 0.0
C136 C 0.68932 0.94924 0.11357 0.0
C137 C 0.67925 0.93421 0.20457 0.0
C138 C 0.69122 0.91661 0.26211 0.0
C139 C 0.76737 0.85491 0.56104 0.0
O140 O 0.76255 0.80254 0.35423 0.0
O141 O 0.73057 0.80946 0.25273 0.0
O142 O 0.80189 0.81578 0.29514 0.0
O143 O 0.83943 0.87481 0.34101 0.0
O144 O 0.77547 0.86153 0.15186 0.0
O145 O 0.77597 0.86196 0.15377 0.0
O146 O 0.80388 0.93888 0.33419 0.0
O147 O 0.83186 0.92271 0.42102 0.0
O148 O 0.72039 0.8641 0.29234 0.0
O149 O 0.75795 0.92236 0.33374 0.0
O150 O 0.78381 0.87704 0.49995 0.0
O151 O 0.78337 0.8767 0.49739 0.0
H152 H 0.82842 0.8151 0.50987 0.0
H153 H 0.85329 0.78464 0.5839 0.0
H154 H 0.89316 0.79594 0.30531 0.0
H155 H 0.8693 0.82744 0.23475 0.0
H156 H 0.74103 0.92558 0.11337 0.0
H157 H 0.7194 0.95478 1.00988 0.0
H158 H 0.66261 0.93709 0.2341 0.0
H159 H 0.68351 0.90683 0.33381 0.0
Ho160 Ho 0.2894 0.85163 0.51831 0.0
Ho161 Ho 0.25197 0.84832 0.49915 0.0
C162 C 0.30779 0.93581 0.54435 0.0
C163 C 0.34046 0.85928 0.54083 0.0
C164 C 0.3601 0.8676 0.46348 0.0
C165 C 0.35594 0.88214 0.37233 0.0
C166 C 0.37621 0.89412 0.30561 0.0
C167 C 0.40107 0.89157 0.32758 0.0
C168 C 0.40447 0.87545 0.41632 0.0
C169 C 0.38433 0.86392 0.48409 0.0
C170 C 0.26882 0.83411 0.74889 0.0
C171 C 0.23905 0.76472 0.4724 0.0
C172 C 0.1986 0.83641 0.4663 0.0
C173 C 0.17188 0.82313 0.51446 0.0
C174 C 0.16514 0.79823 0.58736 0.0
C175 C 0.13756 0.78064 0.61624 0.0
C176 C 0.11545 0.78683 0.57226 0.0
C177 C 0.12267 0.81264 0.50174 0.0
C178 C 0.15027 0.83029 0.4732 0.0
C179 C 0.27246 0.86617 0.26848 0.0
O180 O 0.31498 0.91334 0.49663 0.0
O181 O 0.28135 0.91591 0.56565 0.0
O182 O 0.31539 0.82584 0.51388 0.0
O183 O 0.337 0.88704 0.57514 0.0
O184 O 0.2759 0.85877 0.68357 0.0
O185 O 0.27587 0.85803 0.68145 0.0
O186 O 0.2295 0.78522 0.5158 0.0
O187 O 0.26507 0.78604 0.45278 0.0
O188 O 0.22291 0.87036 0.50745 0.0
O189 O 0.20454 0.81071 0.43841 0.0
O190 O 0.26545 0.84157 0.3339 0.0
O191 O 0.26546 0.84228 0.33615 0.0
H192 H 0.33737 0.88519 0.35433 0.0
H193 H 0.37279 0.90637 0.23842 0.0
H194 H 0.42275 0.87182 0.43381 0.0
H195 H 0.38795 0.85267 0.55356 0.0
H196 H 0.18097 0.79156 0.62005 0.0
H197 H 0.13361 0.76207 0.67332 0.0
H198 H 0.10656 0.81836 0.46551 0.0
H199 H 0.15431 0.84861 0.41524 0.0
Ho200 Ho 0.25896 0.26813 0.66903 0.0
Ho201 Ho 0.29952 0.31366 0.69983 0.0
C202 C 0.25962 0.34154 0.63733 0.0
C203 C 0.20042 0.21793 0.62999 0.0
C204 C 0.17302 0.21349 0.66688 0.0
C205 C 0.17289 0.24507 0.72302 0.0
C206 C 0.14631 0.24154 0.74075 0.0
C207 C 0.11823 0.20609 0.70452 0.0
C208 C 0.11863 0.17424 0.65202 0.0
C209 C 0.14515 0.17794 0.6328 0.0
C210 C 0.26908 0.2897 0.43064 0.0
C211 C 0.31026 0.24897 0.7027 0.0
C212 C 0.35284 0.37457 0.74321 0.0
C213 C 0.37337 0.38968 0.67015 0.0
C214 C 0.36649 0.36748 0.56353 0.0
C215 C 0.38611 0.3811 0.49473 0.0
C216 C 0.41304 0.41728 0.53092 0.0
C217 C 0.41961 0.43973 0.63704 0.0
C218 C 0.40001 0.42597 0.70617 0.0
C219 C 0.28903 0.28922 0.93506 0.0
O220 O 0.24667 0.31322 0.68613 0.0
O221 O 0.28409 0.34731 0.61778 0.0
O222 O 0.22003 0.21496 0.69291 0.0
O223 O 0.2138 0.24522 0.57963 0.0
O224 O 0.27813 0.27793 0.51233 0.0
O225 O 0.27763 0.27818 0.51447 0.0
O226 O 0.3211 0.281 0.67093 0.0
O227 O 0.28315 0.23584 0.71982 0.0
O228 O 0.3292 0.37552 0.72014 0.0
O229 O 0.34667 0.34156 0.7629 0.0
O230 O 0.27988 0.30151 0.85515 0.0
O231 O 0.28032 0.30132 0.85354 0.0
H232 H 0.19346 0.27301 0.75194 0.0
H233 H 0.1479 0.26698 0.78369 0.0
H234 H 0.09807 0.14629 0.62209 0.0
H235 H 0.14362 0.15276 0.58811 0.0
H236 H 0.34592 0.33948 0.53359 0.0
H237 H 0.38008 0.36344 0.41276 0.0
H238 H 0.44017 0.46769 0.66721 0.0
H239 H 0.40573 0.44357 0.78794 0.0
Ho240 Ho 0.45312 0.19207 0.71133 0.0
Ho241 Ho 0.44252 0.17794 0.87362 0.0
C242 C 0.40327 0.20758 0.78119 0.0
C243 C 0.44571 0.1921 0.50404 0.0
C244 C 0.43584 0.16031 0.40977 0.0
C245 C 0.41068 0.14784 0.32667 0.0
C246 C 0.39909 0.11476 0.24315 0.0
C247 C 0.41338 0.09481 0.23958 0.0
C248 C 0.43724 0.10593 0.32753 0.0
C249 C 0.44857 0.13854 0.41101 0.0
C250 C 0.49636 0.26302 0.85523 0.0
C251 C 0.49561 0.16825 0.8162 0.0
C252 C 0.43875 0.15371 1.05367 0.0
C253 C 0.42633 0.113 1.05737 0.0
C254 C 0.45118 0.09811 0.11313 0.0
C255 C 0.43763 0.04691 0.10627 0.0
C256 C 0.39568 1.00774 1.03036 0.0
C257 C 0.36969 0.02557 0.97859 0.0
C258 C 0.38674 0.07754 0.99319 0.0
C259 C 0.39939 0.10946 0.71541 0.0
O260 O 0.41384 0.20059 0.69885 0.0
O261 O 0.41497 0.20541 0.87716 0.0
O262 O 0.42579 0.1861 0.55879 0.0
O263 O 0.47151 0.20619 0.56911 0.0
O264 O 0.49977 0.24434 0.77517 0.0
O265 O 0.46942 0.24141 0.86353 0.0
O266 O 0.48526 0.17659 0.89734 0.0
O267 O 0.48286 0.16766 0.71824 0.0
O268 O 0.42021 0.16124 1.00642 0.0
O269 O 0.46319 0.17044 1.02137 0.0
O270 O 0.3951 0.12983 0.78648 0.0
O271 O 0.42732 0.12944 0.72237 0.0
H272 H 0.39973 0.16329 0.32769 0.0
H273 H 0.37955 0.10547 0.1804 0.0
H274 H 0.44766 0.08983 0.32974 0.0
H275 H 0.46708 0.14635 0.47706 0.0
H276 H 0.47417 0.12007 0.1503 0.0
H277 H 0.45293 0.03854 0.13023 0.0
H278 H 0.34718 1.00529 0.93089 0.0
H279 H 0.37326 0.08758 0.96054 0.0
Ho280 Ho 0.94714 0.16805 0.85831 0.0
Ho281 Ho 0.949 0.20379 0.70551 0.0
C282 C 0.89537 0.18643 0.81489 0.0
C283 C 0.93972 0.13177 1.01508 0.0
C284 C 0.94417 0.10081 1.03208 0.0
C285 C 0.92726 0.07466 0.0915 0.0
C286 C 0.93621 0.05175 0.13182 0.0
C287 C 0.96364 0.05747 0.12044 0.0
C288 C 0.97495 0.0749 1.03439 0.0
C289 C 0.96608 0.09791 0.99378 0.0
C290 C 0.92116 0.11376 0.6583 0.0
C291 C 1.00338 0.18966 0.76354 0.0
C292 C 0.95487 0.21911 0.51605 0.0
C293 C 0.96552 0.20013 0.44504 0.0
C294 C 0.99598 0.2149 0.46476 0.0
C295 C 1.00579 0.19021 0.44325 0.0
C296 C 0.9853 0.15054 0.39876 0.0
C297 C 0.95518 0.13703 0.36551 0.0
C298 C 0.94545 0.16154 0.38697 0.0
C299 C 0.97702 0.26091 0.89818 0.0
O300 O 0.91177 0.18099 0.88954 0.0
O301 O 0.90478 0.19449 0.72442 0.0
O302 O 0.96343 0.16545 1.02209 0.0
O303 O 0.91842 0.12228 0.93179 0.0
O304 O 0.94271 0.11983 0.73359 0.0
O305 O 0.91681 0.14037 0.68806 0.0
O306 O 0.98801 0.19667 0.68985 0.0
O307 O 0.99241 0.17895 0.84915 0.0
O308 O 0.97386 0.2433 0.60729 0.0
O309 O 0.92908 0.19593 0.53449 0.0
O310 O 0.95721 0.25681 0.81756 0.0
O311 O 0.97966 0.23209 0.87658 0.0
H312 H 0.90877 0.07434 0.11491 0.0
H313 H 0.92429 0.03499 0.1872 0.0
H314 H 0.99381 0.07616 1.01192 0.0
H315 H 0.97793 0.11567 0.94002 0.0
H316 H 1.0121 0.24474 0.50721 0.0
H317 H 1.02919 0.20188 0.46747 0.0
H318 H 0.93879 0.10698 0.32612 0.0
H319 H 0.92186 0.14919 0.36788 0.0
Ho320 Ho 0.93363 0.65069 0.71879 0.0
Ho321 Ho 0.96265 0.72367 0.86346 0.0
C322 C 1.00113 0.71587 0.70619 0.0
C323 C 0.90985 0.58804 0.56473 0.0
C324 C 0.9218 0.5776 0.47821 0.0
C325 C 0.95105 0.58702 0.50596 0.0
C326 C 0.96967 0.6043 0.43678 0.0
C327 C 0.9593 0.61492 0.34871 0.0
C328 C 0.92868 0.59273 0.30169 0.0
C329 C 0.90958 0.5743 0.36838 0.0
C330 C 0.95959 0.65088 0.92023 0.0
C331 C 0.8956 0.65897 0.874 0.0
C332 C 0.98792 0.78581 1.02098 0.0
C333 C 0.99039 0.79301 0.1405 0.0
C334 C 0.9651 0.77219 0.1799 0.0
C335 C 0.96735 0.75932 0.27515 0.0
C336 C 0.99492 0.76712 0.3303 0.0
C337 C 1.02059 0.79691 0.30817 0.0
C338 C 1.01832 0.80959 0.21182 0.0
C339 C 0.9372 0.72385 0.66131 0.0
O340 O 0.97642 0.6819 0.65727 0.0
O341 O 1.00193 0.7371 0.79494 0.0
O342 O 0.92197 0.59191 0.66633 0.0
O343 O 0.90672 0.6166 0.55481 0.0
O344 O 0.93231 0.62641 0.86817 0.0
O345 O 0.97109 0.67711 0.86794 0.0
O346 O 0.92192 0.68843 0.93436 0.0
O347 O 0.89392 0.64255 0.77434 0.0
O348 O 0.9619 0.77078 0.95559 0.0
O349 O 1.00072 0.76841 0.98984 0.0
O350 O 0.96386 0.74918 0.71701 0.0
O351 O 0.92551 0.6976 0.71335 0.0
H352 H 0.96083 0.58753 0.5878 0.0
H353 H 0.99309 0.61749 0.46685 0.0
H354 H 0.91992 0.59836 0.22875 0.0
H355 H 0.88672 0.56538 0.34287 0.0
H356 H 0.94331 0.76065 0.129 0.0
H357 H 0.94685 0.73807 0.29264 0.0
H358 H 0.04226 0.80596 0.35483 0.0
H359 H 0.03826 0.82729 0.18477 0.0
C360 C 0.1468 0.55313 0.84389 0.0
C361 C 0.12848 0.52108 0.88872 0.0
C362 C 0.14555 0.55248 0.72656 0.0
C363 C 0.12618 0.51953 0.63581 0.0
H364 H 0.16302 0.58035 0.90202 0.0
H365 H 0.16067 0.57942 0.70653 0.0
S366 S 0.07214 0.42492 0.69517 0.0
N367 N 0.08912 0.45309 0.82127 0.0
N368 N 0.08704 0.45187 0.60774 0.0
C369 C 0.10742 0.48648 0.67786 0.0
C370 C 0.10852 0.48724 0.79947 0.0
C371 C 0.64376 0.55382 0.66894 0.0
C372 C 0.62228 0.51837 0.69325 0.0
C373 C 0.64768 0.55877 0.55681 0.0
C374 C 0.63085 0.52934 0.45441 0.0
H375 H 0.65804 0.5786 0.73761 0.0
H376 H 0.66482 0.5871 0.55067 0.0
S377 S 0.57059 0.43031 0.46246 0.0
N378 N 0.58327 0.45282 0.59477 0.0
N379 N 0.59056 0.46214 0.39413 0.0
C380 C 0.60923 0.49387 0.4775 0.0
C381 C 0.60518 0.48872 0.59156 0.0
C382 C 0.63219 0.05594 0.44948 0.0
C383 C 0.62131 0.07296 0.51989 0.0
C384 C 0.63373 0.05885 0.33542 0.0
C385 C 0.62423 0.0787 0.27294 0.0
H386 H 0.64001 0.03943 0.48373 0.0
H387 H 0.64287 0.04455 0.2943 0.0
S388 S 0.5922 0.12917 0.40749 0.0
N389 N 0.5998 0.11137 0.50825 0.0
N390 N 0.60236 0.11629 0.30035 0.0
C391 C 0.61285 0.09602 0.34101 0.0
C392 C 0.61149 0.09331 0.4597 0.0
C393 C 0.75546 0.83714 0.75521 0.0
C394 C 0.7752 0.8637 0.69709 0.0
C395 C 0.75979 0.8426 0.87629 0.0
C396 C 0.78456 0.87578 0.95525 0.0
H397 H 0.73566 0.81082 0.70527 0.0
H398 H 0.7432 0.82003 0.90784 0.0
S399 S 0.84431 0.95607 0.85831 0.0
N400 N 0.82156 0.92592 0.73981 0.0
N401 N 0.82958 0.93603 0.95735 0.0
C402 C 0.80449 0.9026 0.89839 0.0
C403 C 0.80005 0.89693 0.77509 0.0
C404 C 0.27971 0.8799 0.95328 0.0
C405 C 0.26973 0.84355 0.88157 0.0
C406 C 0.28049 0.88577 1.07251 0.0
C407 C 0.27164 0.85646 0.13601 0.0
H408 H 0.28725 0.90472 0.91742 0.0
H409 H 0.28838 0.91469 0.11646 0.0
S410 S 0.24373 0.75518 0.9952 0.0
N411 N 0.25082 0.77732 0.89259 0.0
N412 N 0.25231 0.78819 0.10647 0.0
C413 C 0.26176 0.82009 1.06535 0.0
C414 C 0.2609 0.81403 0.94397 0.0
C415 C 0.26635 0.30216 0.11024 0.0
C416 C 0.28323 0.28981 1.06105 0.0
C417 C 0.26274 0.30162 0.22468 0.0
C418 C 0.27536 0.28888 0.30548 0.0
H419 H 0.2555 0.31253 1.05987 0.0
H420 H 0.24932 0.3117 0.25063 0.0
S421 S 0.3227 0.25406 0.22785 0.0
N422 N 0.31334 0.26458 0.11276 0.0
N423 N 0.30672 0.26389 0.31781 0.0
C424 C 0.29243 0.2767 0.25763 0.0
C425 C 0.29613 0.27716 0.14103 0.0
C426 C 0.38826 0.02661 0.19181 0.0
C427 C 0.40422 0.06155 0.14237 0.0
C428 C 0.38364 0.98965 0.10508 0.0
C429 C 0.3902 0.97979 0.98168 0.0
H430 H 0.38256 0.02576 0.27127 0.0
H431 H 0.37273 0.96371 0.13967 0.0
S432 S 0.43014 0.04696 0.78944 0.0
N433 N 0.43145 0.07919 0.88711 0.0
N434 N 0.41215 1.0036 0.81804 0.0
C435 C 0.40544 1.01141 0.91377 0.0
C436 C 0.41647 0.05594 0.95359 0.0
C437 C 0.97556 0.08433 0.3878 0.0
C438 C 0.99435 0.12272 0.37841 0.0
C439 C 0.97312 0.05371 0.31465 0.0
C440 C 0.98496 0.06197 0.22124 0.0
H441 H 0.96009 0.07771 0.43992 0.0
H442 H 0.95534 0.0246 0.312 0.0
S443 S 0.05506 0.15277 0.23412 0.0
N444 N 0.03967 0.16478 0.32223 0.0
N445 N 0.0334 0.10535 0.18849 0.0
C446 C 1.01259 0.09736 0.24715 0.0
C447 C 1.01609 0.12936 0.31977 0.0
C448 C 0.9607 0.67442 0.41307 0.0
C449 C 0.97363 0.65692 0.3622 0.0
C450 C 0.97171 0.71329 0.42271 0.0
C451 C 0.99496 0.73587 0.37524 0.0
H452 H 0.94113 0.65763 0.44255 0.0
H453 H 0.95962 0.72438 0.45585 0.0
S454 S 0.04289 0.70697 0.26969 0.0
N455 N 1.016 0.66722 0.29451 0.0
N456 N 0.03576 0.74037 0.30251 0.0
C457 C 1.0108 0.72015 0.33854 0.0
C458 C 1.00007 0.68046 0.33296 0.0
C459 C 0.26468 0.39914 0.56979 0.0
C460 C 0.2467 0.3638 0.59843 0.0
C461 C 0.25299 0.41931 0.52536 0.0
C462 C 0.22252 0.40518 0.50588 0.0
H463 H 0.28816 0.41137 0.58113 0.0
H464 H 0.26811 0.44635 0.50581 0.0
S465 S 0.16524 0.31232 0.55844 0.0
N466 N 0.19643 0.31495 0.59975 0.0
N467 N 0.17446 0.35198 0.51518 0.0
C468 C 0.20426 0.36973 0.53395 0.0
C469 C 0.21627 0.34935 0.58007 0.0
C470 C 0.66743 0.67744 0.18471 0.0
C471 C 0.67987 0.65478 0.18735 0.0
C472 C 0.6851 0.71892 0.21613 0.0
C473 C 0.71629 0.74041 0.25584 0.0
H474 H 0.64373 0.66299 0.15597 0.0
H475 H 0.6741 0.73422 0.21038 0.0
S476 S 0.76018 0.69562 0.28357 0.0
N477 N 0.72584 0.65821 0.23455 0.0
N478 N 0.75829 0.73408 0.29646 0.0
C479 C 0.72876 0.71782 0.26054 0.0
C480 C 0.71092 0.67594 0.22587 0.0
C481 C 0.43425 0.9128 1.07602 0.0
C482 C 0.46498 0.93547 0.12208 0.0
C483 C 0.41392 0.8985 0.14257 0.0
C484 C 0.42332 0.90614 0.25845 0.0
H485 H 0.42573 0.90659 0.98771 0.0
H486 H 0.39056 0.88123 0.10257 0.0
S487 S 0.50142 0.96387 0.42099 0.0
N488 N 0.5038 0.96396 0.2914 0.0
N489 N 0.46574 0.93859 0.41637 0.0
C490 C 0.45401 0.92867 0.30566 0.0
C491 C 0.47473 0.943 0.23776 0.0
C492 C 0.56635 0.1625 0.80183 0.0
C493 C 0.56749 0.14153 0.88168 0.0
C494 C 0.54355 0.17073 0.77984 0.0
C495 C 0.52039 0.15922 0.83709 0.0
H496 H 0.58266 0.1717 0.75297 0.0
H497 H 0.54422 0.18652 0.71709 0.0
S498 S 0.51159 0.102 1.0499 0.0
N499 N 0.54157 0.10862 1.01455 0.0
N500 N 0.50074 0.12433 0.9759 0.0
C501 C 0.52161 0.1386 0.9169 0.0
C502 C 0.54428 0.12978 0.93796 0.0
C503 C 0.9974 0.33268 0.97104 0.0
C504 C 1.00081 0.30127 0.97277 0.0
C505 C 1.01938 0.37112 1.032 0.0
C506 C 0.04645 0.38118 0.10017 0.0
H507 H 0.97749 0.32773 0.9202 0.0
H508 H 1.01507 0.3934 1.0244 0.0
S509 S 0.06726 0.31055 0.13749 0.0
N510 N 0.03418 0.28379 1.05146 0.0
N511 N 0.07491 0.35505 0.16542 0.0
C512 C 0.0501 0.35001 0.10433 0.0
C513 C 1.02764 0.31067 1.04143 0.0
C514 C 0.84125 0.60805 0.85017 0.0
C515 C 0.86735 0.64236 0.91508 0.0
C516 C 0.81417 0.59114 0.88233 0.0
C517 C 0.81121 0.60754 0.98112 0.0
H518 H 0.84155 0.59372 0.77267 0.0
H519 H 0.79515 0.56502 0.82778 0.0
S520 S 0.87256 0.69666 0.18502 0.0
N521 N 0.88821 0.69158 1.08608 0.0
N522 N 0.83758 0.66019 0.14606 0.0
C523 C 0.83709 0.64185 1.04761 0.0
C524 C 0.86493 0.659 1.01507 0.0
C525 C 1.00684 0.65421 0.99034 0.0
C526 C 0.97629 0.63688 0.98169 0.0
C527 C 1.02183 0.63768 1.03334 0.0
C528 C 1.00698 0.60345 1.07073 0.0
H529 H 1.01914 0.68017 0.96103 0.0
H530 H 0.04528 0.65197 1.03809 0.0
S531 S 0.92673 0.54509 1.05876 0.0
N532 N 0.93169 0.58261 1.01116 0.0
N533 N 0.9597 0.55186 1.09048 0.0
C534 C 0.97652 0.58597 1.06259 0.0
C535 C 0.96128 0.60263 1.01885 0.0
C536 C 0.56884 0.36728 0.9098 0.0
C537 C 0.56393 0.39302 0.9737 0.0
C538 C 0.54733 0.32635 0.87493 0.0
C539 C 0.51913 0.30754 0.90124 0.0
H540 H 0.58951 0.37885 0.88492 0.0
H541 H 0.55299 0.3091 0.82531 0.0
S542 S 0.49439 0.36035 1.06941 0.0
N543 N 0.52768 0.39494 1.06322 0.0
N544 N 0.48841 0.3197 0.99895 0.0
C545 C 0.51405 0.33281 0.96635 0.0
C546 C 0.53589 0.37458 1.00168 0.0
C547 C 0.85632 0.17473 0.92988 0.0
C548 C 0.86629 0.18265 0.83194 0.0
C549 C 0.82925 0.17015 0.94599 0.0
C550 C 0.80972 0.17271 0.86502 0.0
H551 H 0.8696 0.17185 0.99566 0.0
H552 H 0.8234 0.1639 1.02313 0.0
S553 S 0.82504 0.19421 0.59362 0.0
N554 N 0.85364 0.19346 0.65273 0.0
N555 N 0.80391 0.1852 0.68249 0.0
C556 C 0.8195 0.18077 0.76675 0.0
C557 C 0.84717 0.18564 0.75061 0.0
C558 C 0.6341 0.97462 0.99235 0.0
C559 C 0.65138 1.00888 0.95752 0.0
C560 C 0.64632 0.95539 1.03912 0.0
C561 C 0.67669 0.96938 1.05516 0.0
H562 H 0.61078 0.96268 0.98503 0.0
H563 H 0.63166 0.92926 1.0638 0.0
S564 S 0.7322 0.05897 0.98149 0.0
N565 N 0.7008 0.05612 0.94305 0.0
N566 N 0.72388 0.0209 1.0326 0.0
C567 C 0.69425 1.00351 1.01933 0.0
C568 C 0.68165 0.02295 0.97057 0.0
C569 C 0.18912 0.69881 0.41026 0.0
C570 C 0.22041 0.7201 0.43827 0.0
C571 C 0.17128 0.65779 0.37082 0.0
C572 C 0.18334 0.63481 0.35972 0.0
H573 H 0.17811 0.71411 0.4161 0.0
H574 H 0.14751 0.64382 0.34935 0.0
S575 S 0.26398 0.67513 0.42423 0.0
N576 N 0.2625 0.71384 0.45096 0.0
N577 N 0.22936 0.6377 0.38318 0.0
C578 C 0.21459 0.65557 0.38986 0.0
C579 C 0.23284 0.69759 0.42699 0.0
C580 C 0.46559 0.48303 0.37089 0.0
C581 C 0.47503 0.4607 0.31985 0.0
C582 C 0.44575 0.46893 0.43935 0.0
C583 C 0.43418 0.43168 0.4582 0.0
H584 H 0.47399 0.51192 0.35925 0.0
H585 H 0.43921 0.48722 0.47709 0.0
S586 S 0.45141 0.36133 0.34233 0.0
N587 N 0.4709 0.39921 0.29169 0.0
N588 N 0.43375 0.37278 0.42004 0.0
C589 C 0.44323 0.40893 0.40679 0.0
C590 C 0.46363 0.42341 0.33796 0.0
C591 C 0.89013 0.71948 0.58118 0.0
C592 C 0.92074 0.73666 0.59304 0.0
C593 C 0.87555 0.73588 0.534 0.0
C594 C 0.89093 0.76989 0.49589 0.0
H595 H 0.87755 0.69407 0.61248 0.0
H596 H 0.8521 0.72205 0.52844 0.0
S597 S 0.97111 0.82541 0.50427 0.0
N598 N 0.96567 0.78902 0.55907 0.0
N599 N 0.93846 0.81954 0.47146 0.0
C600 C 0.92131 0.7865 0.50388 0.0
C601 C 0.93612 0.76997 0.55201 0.0
C602 C 0.37995 0.04055 0.59346 0.0
C603 C 0.37567 0.06539 0.66534 0.0
C604 C 0.35816 0.9997 0.55417 0.0
C605 C 0.33017 0.98057 0.58198 0.0
H606 H 0.40061 0.0526 0.56831 0.0
H607 H 0.36356 0.98279 0.50161 0.0
S608 S 0.30608 0.03156 0.7611 0.0
N609 N 0.33941 0.06638 0.75648 0.0
N610 N 0.29984 0.99163 0.68491 0.0
C611 C 0.32535 1.00526 0.65105 0.0
C612 C 0.34744 0.04666 0.6912 0.0
C613 C 0.04011 0.16724 0.77158 0.0
C614 C 0.03278 0.19417 0.74928 0.0
C615 C 0.06698 0.17088 0.75597 0.0
C616 C 0.08897 0.20234 0.72004 0.0
H617 H 1.02464 0.14255 0.79992 0.0
H618 H 0.07072 0.14888 0.77403 0.0
S619 S 0.08171 0.28193 0.65285 0.0
N620 N 0.05092 0.25413 0.69073 0.0
N621 N 0.10039 0.26106 0.66265 0.0
C622 C 0.08196 0.22965 0.69885 0.0
C623 C 0.05443 0.22557 0.713 0.0
C624 C 0.36042 0.21409 0.83735 0.0
C625 C 0.37827 0.21627 0.7616 0.0
C626 C 0.33729 0.22174 0.81684 0.0
C627 C 0.33028 0.23235 0.71905 0.0
H628 H 0.3644 0.20656 0.91434 0.0
H629 H 0.32559 0.2207 0.88061 0.0
S630 S 0.36971 0.24292 0.49272 0.0
N631 N 0.38592 0.23002 0.58272 0.0
N632 N 0.34438 0.24468 0.54662 0.0
C633 C 0.34795 0.23447 0.64332 0.0
C634 C 0.37104 0.22634 0.6634 0.0
C635 C 0.84803 0.02322 0.4644 0.0
C636 C 0.85368 0.9935 0.45481 0.0
C637 C 0.86972 0.06194 0.52656 0.0
C638 C 0.89846 0.07339 0.58249 0.0
H639 H 0.82629 0.01629 0.42632 0.0
H640 H 0.8636 0.08285 0.53287 0.0
S641 S 0.92591 1.00819 0.57741 0.0
N642 N 0.89145 0.97995 0.50354 0.0
N643 N 0.93137 0.05113 0.61683 0.0
C644 C 0.90459 0.04421 0.56999 0.0
C645 C 0.8826 1.00501 0.50768 0.0
C646 C 0.04469 0.77066 0.65505 0.0
C647 C 1.0287 0.73172 0.66225 0.0
C648 C 0.07199 0.78772 0.62381 0.0
C649 C 0.08526 0.76706 0.60018 0.0
H650 H 0.03608 0.78836 0.67464 0.0
H651 H 0.0832 0.81786 0.62135 0.0
S652 S 0.05267 0.66405 0.60725 0.0
N653 N 1.0285 0.6731 0.64363 0.0
N654 N 0.07908 0.7044 0.58339 0.0
C655 C 0.0692 0.72782 0.60561 0.0
C656 C 0.04124 0.71041 0.6367 0.0
loop_
_geom_bond_atom_site_label_1
_geom_bond_atom_site_label_2
_geom_bond_distance
_geom_bond_site_symmetry_2
_ccdc_geom_bond_type
Ho0 C3 2.811 . S
Ho0 O20 2.322 . S
Ho0 O22 2.378 . S
Ho0 O23 2.524 . S
Ho0 O24 2.381 1_554 S
Ho0 O25 2.669 1_554 S
Ho0 O27 2.346 . S
Ho0 O31 2.305 . S
Ho1 C12 2.811 1_455 S
Ho1 O21 2.346 1_455 S
Ho1 O25 2.305 1_554 S
Ho1 O26 2.322 . S
Ho1 O28 2.378 1_455 S
Ho1 O29 2.524 1_554 S
Ho1 O30 2.381 . S
Ho1 O31 2.669 . S
C2 O20 1.259 . S
C2 O21 1.268 1_455 S
C3 Ho0 2.811 . S
C3 C4 1.488 . S
C3 O22 1.215 . S
C3 O23 1.289 . S
C4 C3 1.488 . S
C4 C5 1.348 . S
C4 C9 1.413 . S
C5 C4 1.348 . S
C5 C6 1.442 . S
C5 H32 0.930 . S
C6 C5 1.442 . S
C6 C7 1.381 . S
C6 H33 0.931 . S
C7 C6 1.381 . S
C7 C8 1.321 . S
C8 C7 1.321 . S
C8 C9 1.403 . S
C8 H34 0.934 . S
C9 C4 1.413 . S
C9 C8 1.403 . S
C9 H35 0.930 . S
C10 O24 1.275 . S
C10 O25 1.256 . S
C11 O26 1.259 . S
C11 O27 1.268 . S
C12 Ho1 2.811 1_655 S
C12 C13 1.488 1_554 S
C12 O28 1.215 . S
C12 O29 1.289 1_654 S
C13 C12 1.488 1_556 S
C13 C14 1.348 . S
C13 C18 1.413 1_556 S
C14 C13 1.348 . S
C14 C15 1.442 . S
C14 H36 0.930 1_655 S
C15 C14 1.442 . S
C15 C16 1.381 . S
C15 H37 0.931 . S
C16 C15 1.381 . S
C16 C17 1.321 1_556 S
C17 C16 1.321 1_554 S
C17 C18 1.403 . S
C17 H38 0.934 . S
C18 C13 1.413 1_554 S
C18 C17 1.403 . S
C18 H39 0.930 . S
C19 O30 1.275 . S
C19 O31 1.256 . S
O20 Ho0 2.322 . S
O20 C2 1.259 . S
O21 Ho1 2.346 1_655 S
O21 C2 1.268 1_655 S
O22 Ho0 2.378 . S
O22 C3 1.215 . S
O23 Ho0 2.524 . S
O23 C3 1.289 . S
O24 Ho0 2.381 1_556 S
O24 C10 1.275 . S
O25 Ho0 2.669 1_556 S
O25 Ho1 2.305 1_556 S
O25 C10 1.256 . S
O26 Ho1 2.322 . S
O26 C11 1.259 . S
O27 Ho0 2.346 . S
O27 C11 1.268 . S
O28 Ho1 2.378 1_655 S
O28 C12 1.215 . S
O29 Ho1 2.524 1_556 S
O29 C12 1.289 1_456 S
O30 Ho1 2.381 . S
O30 C19 1.275 . S
O31 Ho0 2.305 . S
O31 Ho1 2.669 . S
O31 C19 1.256 . S
H32 C5 0.930 . S
H33 C6 0.931 . S
H34 C8 0.934 . S
H35 C9 0.930 . S
H36 C14 0.930 1_455 S
H37 C15 0.931 . S
H38 C17 0.934 . S
H39 C18 0.930 . S
Ho40 C43 2.811 . S
Ho40 O60 2.322 . S
Ho40 O62 2.378 . S
Ho40 O63 2.524 . S
Ho40 O64 2.381 . S
Ho40 O65 2.669 . S
Ho40 O67 2.346 . S
Ho40 O71 2.305 . S
Ho41 C52 2.811 . S
Ho41 O61 2.346 . S
Ho41 O65 2.305 . S
Ho41 O66 2.322 . S
Ho41 O68 2.378 . S
Ho41 O69 2.524 . S
Ho41 O70 2.381 1_554 S
Ho41 O71 2.669 . S
C42 O60 1.259 . S
C42 O61 1.268 . S
C43 Ho40 2.811 . S
C43 C44 1.488 . S
C43 O62 1.215 . S
C43 O63 1.289 . S
C44 C43 1.488 . S
C44 C45 1.348 . S
C44 C49 1.413 . S
C45 C44 1.348 . S
C45 C46 1.442 . S
C45 H72 0.930 . S
C46 C45 1.442 . S
C46 C47 1.381 . S
C46 H73 0.931 . S
C47 C46 1.381 . S
C47 C48 1.321 . S
C48 C47 1.321 . S
C48 C49 1.403 . S
C48 H74 0.934 . S
C49 C44 1.413 . S
C49 C48 1.403 . S
C49 H75 0.930 . S
C50 O64 1.275 . S
C50 O65 1.256 . S
C51 O66 1.259 . S
C51 O67 1.268 . S
C52 Ho41 2.811 . S
C52 C53 1.488 . S
C52 O68 1.215 . S
C52 O69 1.289 . S
C53 C52 1.488 . S
C53 C54 1.348 . S
C53 C58 1.413 . S
C54 C53 1.348 . S
C54 C55 1.442 . S
C54 H76 0.930 . S
C55 C54 1.442 . S
C55 C56 1.381 . S
C55 H77 0.931 . S
C56 C55 1.381 . S
C56 C57 1.321 . S
C57 C56 1.321 . S
C57 C58 1.403 . S
C57 H78 0.934 . S
C58 C53 1.413 . S
C58 C57 1.403 . S
C58 H79 0.930 . S
C59 O70 1.275 . S
C59 O71 1.256 1_556 S
O60 Ho40 2.322 . S
O60 C42 1.259 . S
O61 Ho41 2.346 . S
O61 C42 1.268 . S
O62 Ho40 2.378 . S
O62 C43 1.215 . S
O63 Ho40 2.524 . S
O63 C43 1.289 . S
O64 Ho40 2.381 . S
O64 C50 1.275 . S
O65 Ho40 2.669 . S
O65 Ho41 2.305 . S
O65 C50 1.256 . S
O66 Ho41 2.322 . S
O66 C51 1.259 . S
O67 Ho40 2.346 . S
O67 C51 1.268 . S
O68 Ho41 2.378 . S
O68 C52 1.215 . S
O69 Ho41 2.524 . S
O69 C52 1.289 . S
O70 Ho41 2.381 1_556 S
O70 C59 1.275 . S
O71 Ho40 2.305 . S
O71 Ho41 2.669 . S
O71 C59 1.256 1_554 S
H72 C45 0.930 . S
H73 C46 0.931 . S
H74 C48 0.934 . S
H75 C49 0.930 . S
H76 C54 0.930 . S
H77 C55 0.931 . S
H78 C57 0.934 . S
H79 C58 0.930 . S
Ho80 C83 2.811 . S
Ho80 O100 2.322 . S
Ho80 O102 2.378 . S
Ho80 O103 2.524 . S
Ho80 O104 2.381 1_554 S
Ho80 O105 2.669 . S
Ho80 O107 2.346 . S
Ho80 O111 2.305 . S
Ho81 C92 2.811 . S
Ho81 O101 2.346 . S
Ho81 O105 2.305 . S
Ho81 O106 2.322 . S
Ho81 O108 2.378 . S
Ho81 O109 2.524 . S
Ho81 O110 2.381 . S
Ho81 O111 2.669 . S
C82 O100 1.259 . S
C82 O101 1.268 . S
C83 Ho80 2.811 . S
C83 C84 1.488 . S
C83 O102 1.215 . S
C83 O103 1.289 . S
C84 C83 1.488 . S
C84 C85 1.348 . S
C84 C89 1.413 . S
C85 C84 1.348 . S
C85 C86 1.442 . S
C85 H112 0.930 . S
C86 C85 1.442 . S
C86 C87 1.381 . S
C86 H113 0.931 . S
C87 C86 1.381 . S
C87 C88 1.321 . S
C88 C87 1.321 . S
C88 C89 1.403 . S
C88 H114 0.934 1_545 S
C89 C84 1.413 . S
C89 C88 1.403 . S
C89 H115 0.930 . S
C90 O104 1.275 . S
C90 O105 1.256 1_556 S
C91 O106 1.259 . S
C91 O107 1.268 . S
C92 Ho81 2.811 . S
C92 C93 1.488 . S
C92 O108 1.215 . S
C92 O109 1.289 . S
C93 C92 1.488 . S
C93 C94 1.348 . S
C93 C98 1.413 . S
C94 C93 1.348 . S
C94 C95 1.442 . S
C94 H116 0.930 . S
C95 C94 1.442 . S
C95 C96 1.381 . S
C95 H117 0.931 . S
C96 C95 1.381 . S
C96 C97 1.321 . S
C97 C96 1.321 . S
C97 C98 1.403 . S
C97 H118 0.934 . S
C98 C93 1.413 . S
C98 C97 1.403 . S
C98 H119 0.930 . S
C99 O110 1.275 . S
C99 O111 1.256 . S
O100 Ho80 2.322 . S
O100 C82 1.259 . S
O101 Ho81 2.346 . S
O101 C82 1.268 . S
O102 Ho80 2.378 . S
O102 C83 1.215 . S
O103 Ho80 2.524 . S
O103 C83 1.289 . S
O104 Ho80 2.381 1_556 S
O104 C90 1.275 . S
O105 Ho80 2.669 . S
O105 Ho81 2.305 . S
O105 C90 1.256 1_554 S
O106 Ho81 2.322 . S
O106 C91 1.259 . S
O107 Ho80 2.346 . S
O107 C91 1.268 . S
O108 Ho81 2.378 . S
O108 C92 1.215 . S
O109 Ho81 2.524 . S
O109 C92 1.289 . S
O110 Ho81 2.381 . S
O110 C99 1.275 . S
O111 Ho80 2.305 . S
O111 Ho81 2.669 . S
O111 C99 1.256 . S
H112 C85 0.930 . S
H113 C86 0.931 . S
H114 C88 0.934 1_565 S
H115 C89 0.930 . S
H116 C94 0.930 . S
H117 C95 0.931 . S
H118 C97 0.934 . S
H119 C98 0.930 . S
Ho120 C123 2.811 . S
Ho120 O140 2.322 . S
Ho120 O142 2.378 . S
Ho120 O143 2.524 . S
Ho120 O144 2.381 . S
Ho120 O145 2.669 . S
Ho120 O147 2.346 . S
Ho120 O151 2.305 . S
Ho121 C132 2.811 . S
Ho121 O141 2.346 . S
Ho121 O145 2.305 . S
Ho121 O146 2.322 . S
Ho121 O148 2.378 . S
Ho121 O149 2.524 . S
Ho121 O150 2.381 . S
Ho121 O151 2.669 . S
C122 O140 1.259 . S
C122 O141 1.268 . S
C123 Ho120 2.811 . S
C123 C124 1.488 . S
C123 O142 1.215 . S
C123 O143 1.289 . S
C124 C123 1.488 . S
C124 C125 1.348 . S
C124 C129 1.413 . S
C125 C124 1.348 . S
C125 C126 1.442 . S
C125 H152 0.930 . S
C126 C125 1.442 . S
C126 C127 1.381 . S
C126 H153 0.931 . S
C127 C126 1.381 . S
C127 C128 1.321 . S
C128 C127 1.321 . S
C128 C129 1.403 . S
C128 H154 0.934 . S
C129 C124 1.413 . S
C129 C128 1.403 . S
C129 H155 0.930 . S
C130 O144 1.275 . S
C130 O145 1.256 . S
C131 O146 1.259 . S
C131 O147 1.268 . S
C132 Ho121 2.811 . S
C132 C133 1.488 . S
C132 O148 1.215 . S
C132 O149 1.289 . S
C133 C132 1.488 . S
C133 C134 1.348 . S
C133 C138 1.413 . S
C134 C133 1.348 . S
C134 C135 1.442 1_565 S
C134 H156 0.930 . S
C135 C134 1.442 1_545 S
C135 C136 1.381 . S
C135 H157 0.931 . S
C136 C135 1.381 . S
C136 C137 1.321 1_545 S
C137 C136 1.321 1_565 S
C137 C138 1.403 . S
C137 H158 0.934 . S
C138 C133 1.413 . S
C138 C137 1.403 . S
C138 H159 0.930 . S
C139 O150 1.275 . S
C139 O151 1.256 . S
O140 Ho120 2.322 . S
O140 C122 1.259 . S
O141 Ho121 2.346 . S
O141 C122 1.268 . S
O142 Ho120 2.378 . S
O142 C123 1.215 . S
O143 Ho120 2.524 . S
O143 C123 1.289 . S
O144 Ho120 2.381 . S
O144 C130 1.275 . S
O145 Ho120 2.669 . S
O145 Ho121 2.305 . S
O145 C130 1.256 . S
O146 Ho121 2.322 . S
O146 C131 1.259 . S
O147 Ho120 2.346 . S
O147 C131 1.268 . S
O148 Ho121 2.378 . S
O148 C132 1.215 . S
O149 Ho121 2.524 . S
O149 C132 1.289 . S
O150 Ho121 2.381 . S
O150 C139 1.275 . S
O151 Ho120 2.305 . S
O151 Ho121 2.669 . S
O151 C139 1.256 . S
H152 C125 0.930 . S
H153 C126 0.931 . S
H154 C128 0.934 . S
H155 C129 0.930 . S
H156 C134 0.930 . S
H157 C135 0.931 . S
H158 C137 0.934 . S
H159 C138 0.930 . S
Ho160 C163 2.811 . S
Ho160 O180 2.322 . S
Ho160 O182 2.378 . S
Ho160 O183 2.524 . S
Ho160 O184 2.381 . S
Ho160 O185 2.669 . S
Ho160 O187 2.346 . S
Ho160 O191 2.305 . S
Ho161 C172 2.811 . S
Ho161 O181 2.346 . S
Ho161 O185 2.305 . S
Ho161 O186 2.322 . S
Ho161 O188 2.378 . S
Ho161 O189 2.524 . S
Ho161 O190 2.381 . S
Ho161 O191 2.669 . S
C162 O180 1.259 . S
C162 O181 1.268 . S
C163 Ho160 2.811 . S
C163 C164 1.488 . S
C163 O182 1.215 . S
C163 O183 1.289 . S
C164 C163 1.488 . S
C164 C165 1.348 . S
C164 C169 1.413 . S
C165 C164 1.348 . S
C165 C166 1.442 . S
C165 H192 0.930 . S
C166 C165 1.442 . S
C166 C167 1.381 . S
C166 H193 0.931 . S
C167 C166 1.381 . S
C167 C168 1.321 . S
C168 C167 1.321 . S
C168 C169 1.403 . S
C168 H194 0.934 . S
C169 C164 1.413 . S
C169 C168 1.403 . S
C169 H195 0.930 . S
C170 O184 1.275 . S
C170 O185 1.256 . S
C171 O186 1.259 . S
C171 O187 1.268 . S
C172 Ho161 2.811 . S
C172 C173 1.488 . S
C172 O188 1.215 . S
C172 O189 1.289 . S
C173 C172 1.488 . S
C173 C174 1.348 . S
C173 C178 1.413 . S
C174 C173 1.348 . S
C174 C175 1.442 . S
C174 H196 0.930 . S
C175 C174 1.442 . S
C175 C176 1.381 . S
C175 H197 0.931 . S
C176 C175 1.381 . S
C176 C177 1.321 . S
C177 C176 1.321 . S
C177 C178 1.403 . S
C177 H198 0.934 . S
C178 C173 1.413 . S
C178 C177 1.403 . S
C178 H199 0.930 . S
C179 O190 1.275 . S
C179 O191 1.256 . S
O180 Ho160 2.322 . S
O180 C162 1.259 . S
O181 Ho161 2.346 . S
O181 C162 1.268 . S
O182 Ho160 2.378 . S
O182 C163 1.215 . S
O183 Ho160 2.524 . S
O183 C163 1.289 . S
O184 Ho160 2.381 . S
O184 C170 1.275 . S
O185 Ho160 2.669 . S
O185 Ho161 2.305 . S
O185 C170 1.256 . S
O186 Ho161 2.322 . S
O186 C171 1.259 . S
O187 Ho160 2.346 . S
O187 C171 1.268 . S
O188 Ho161 2.378 . S
O188 C172 1.215 . S
O189 Ho161 2.524 . S
O189 C172 1.289 . S
O190 Ho161 2.381 . S
O190 C179 1.275 . S
O191 Ho160 2.305 . S
O191 Ho161 2.669 . S
O191 C179 1.256 . S
H192 C165 0.930 . S
H193 C166 0.931 . S
H194 C168 0.934 . S
H195 C169 0.930 . S
H196 C174 0.930 . S
H197 C175 0.931 . S
H198 C177 0.934 . S
H199 C178 0.930 . S
Ho200 C203 2.811 . S
Ho200 O220 2.322 . S
Ho200 O222 2.378 . S
Ho200 O223 2.524 . S
Ho200 O224 2.381 . S
Ho200 O225 2.669 . S
Ho200 O227 2.346 . S
Ho200 O231 2.305 . S
Ho201 C212 2.811 . S
Ho201 O221 2.346 . S
Ho201 O225 2.305 . S
Ho201 O226 2.322 . S
Ho201 O228 2.378 . S
Ho201 O229 2.524 . S
Ho201 O230 2.381 . S
Ho201 O231 2.669 . S
C202 O220 1.259 . S
C202 O221 1.268 . S
C203 Ho200 2.811 . S
C203 C204 1.488 . S
C203 O222 1.215 . S
C203 O223 1.289 . S
C204 C203 1.488 . S
C204 C205 1.348 . S
C204 C209 1.413 . S
C205 C204 1.348 . S
C205 C206 1.442 . S
C205 H232 0.930 . S
C206 C205 1.442 . S
C206 C207 1.381 . S
C206 H233 0.931 . S
C207 C206 1.381 . S
C207 C208 1.321 . S
C208 C207 1.321 . S
C208 C209 1.403 . S
C208 H234 0.934 . S
C209 C204 1.413 . S
C209 C208 1.403 . S
C209 H235 0.930 . S
C210 O224 1.275 . S
C210 O225 1.256 . S
C211 O226 1.259 . S
C211 O227 1.268 . S
C212 Ho201 2.811 . S
C212 C213 1.488 . S
C212 O228 1.215 . S
C212 O229 1.289 . S
C213 C212 1.488 . S
C213 C214 1.348 . S
C213 C218 1.413 . S
C214 C213 1.348 . S
C214 C215 1.442 . S
C214 H236 0.930 . S
C215 C214 1.442 . S
C215 C216 1.381 . S
C215 H237 0.931 . S
C216 C215 1.381 . S
C216 C217 1.321 . S
C217 C216 1.321 . S
C217 C218 1.403 . S
C217 H238 0.934 . S
C218 C213 1.413 . S
C218 C217 1.403 . S
C218 H239 0.930 . S
C219 O230 1.275 . S
C219 O231 1.256 . S
O220 Ho200 2.322 . S
O220 C202 1.259 . S
O221 Ho201 2.346 . S
O221 C202 1.268 . S
O222 Ho200 2.378 . S
O222 C203 1.215 . S
O223 Ho200 2.524 . S
O223 C203 1.289 . S
O224 Ho200 2.381 . S
O224 C210 1.275 . S
O225 Ho200 2.669 . S
O225 Ho201 2.305 . S
O225 C210 1.256 . S
O226 Ho201 2.322 . S
O226 C211 1.259 . S
O227 Ho200 2.346 . S
O227 C211 1.268 . S
O228 Ho201 2.378 . S
O228 C212 1.215 . S
O229 Ho201 2.524 . S
O229 C212 1.289 . S
O230 Ho201 2.381 . S
O230 C219 1.275 . S
O231 Ho200 2.305 . S
O231 Ho201 2.669 . S
O231 C219 1.256 . S
H232 C205 0.930 . S
H233 C206 0.931 . S
H234 C208 0.934 . S
H235 C209 0.930 . S
H236 C214 0.930 . S
H237 C215 0.931 . S
H238 C217 0.934 . S
H239 C218 0.930 . S
Ho240 C243 2.811 . S
Ho240 O260 2.322 . S
Ho240 O262 2.378 . S
Ho240 O263 2.524 . S
Ho240 O264 2.381 . S
Ho240 O265 2.669 . S
Ho240 O267 2.346 . S
Ho240 O271 2.305 . S
Ho241 C252 2.811 . S
Ho241 O261 2.346 . S
Ho241 O265 2.305 . S
Ho241 O266 2.322 . S
Ho241 O268 2.378 . S
Ho241 O269 2.524 . S
Ho241 O270 2.381 . S
Ho241 O271 2.669 . S
C242 O260 1.259 . S
C242 O261 1.268 . S
C243 Ho240 2.811 . S
C243 C244 1.488 . S
C243 O262 1.215 . S
C243 O263 1.289 . S
C244 C243 1.488 . S
C244 C245 1.348 . S
C244 C249 1.413 . S
C245 C244 1.348 . S
C245 C246 1.442 . S
C245 H272 0.930 . S
C246 C245 1.442 . S
C246 C247 1.381 . S
C246 H273 0.931 . S
C247 C246 1.381 . S
C247 C248 1.321 . S
C248 C247 1.321 . S
C248 C249 1.403 . S
C248 H274 0.934 . S
C249 C244 1.413 . S
C249 C248 1.403 . S
C249 H275 0.930 . S
C250 O264 1.275 . S
C250 O265 1.256 . S
C251 O266 1.259 . S
C251 O267 1.268 . S
C252 Ho241 2.811 . S
C252 C253 1.488 1_556 S
C252 O268 1.215 . S
C252 O269 1.289 . S
C253 C252 1.488 1_554 S
C253 C254 1.348 . S
C253 C258 1.413 . S
C254 C253 1.348 . S
C254 C255 1.442 . S
C254 H276 0.930 . S
C255 C254 1.442 . S
C255 C256 1.381 . S
C255 H277 0.931 . S
C256 C255 1.381 . S
C256 C257 1.321 . S
C257 C256 1.321 . S
C257 C258 1.403 . S
C257 H278 0.934 . S
C258 C253 1.413 . S
C258 C257 1.403 . S
C258 H279 0.930 . S
C259 O270 1.275 . S
C259 O271 1.256 . S
O260 Ho240 2.322 . S
O260 C242 1.259 . S
O261 Ho241 2.346 . S
O261 C242 1.268 . S
O262 Ho240 2.378 . S
O262 C243 1.215 . S
O263 Ho240 2.524 . S
O263 C243 1.289 . S
O264 Ho240 2.381 . S
O264 C250 1.275 . S
O265 Ho240 2.669 . S
O265 Ho241 2.305 . S
O265 C250 1.256 . S
O266 Ho241 2.322 . S
O266 C251 1.259 . S
O267 Ho240 2.346 . S
O267 C251 1.268 . S
O268 Ho241 2.378 . S
O268 C252 1.215 . S
O269 Ho241 2.524 . S
O269 C252 1.289 . S
O270 Ho241 2.381 . S
O270 C259 1.275 . S
O271 Ho240 2.305 . S
O271 Ho241 2.669 . S
O271 C259 1.256 . S
H272 C245 0.930 . S
H273 C246 0.931 . S
H274 C248 0.934 . S
H275 C249 0.930 . S
H276 C254 0.930 . S
H277 C255 0.931 . S
H278 C257 0.934 . S
H279 C258 0.930 . S
Ho280 C283 2.811 . S
Ho280 O300 2.322 . S
Ho280 O302 2.378 . S
Ho280 O303 2.524 . S
Ho280 O304 2.381 . S
Ho280 O305 2.669 . S
Ho280 O307 2.346 . S
Ho280 O311 2.305 . S
Ho281 C292 2.811 . S
Ho281 O301 2.346 . S
Ho281 O305 2.305 . S
Ho281 O306 2.322 . S
Ho281 O308 2.378 . S
Ho281 O309 2.524 . S
Ho281 O310 2.381 . S
Ho281 O311 2.669 . S
C282 O300 1.259 . S
C282 O301 1.268 . S
C283 Ho280 2.811 . S
C283 C284 1.488 1_556 S
C283 O302 1.215 . S
C283 O303 1.289 . S
C284 C283 1.488 1_554 S
C284 C285 1.348 . S
C284 C289 1.413 . S
C285 C284 1.348 . S
C285 C286 1.442 . S
C285 H312 0.930 . S
C286 C285 1.442 . S
C286 C287 1.381 . S
C286 H313 0.931 . S
C287 C286 1.381 . S
C287 C288 1.321 . S
C288 C287 1.321 . S
C288 C289 1.403 . S
C288 H314 0.934 . S
C289 C284 1.413 . S
C289 C288 1.403 . S
C289 H315 0.930 . S
C290 O304 1.275 . S
C290 O305 1.256 . S
C291 O306 1.259 . S
C291 O307 1.268 . S
C292 Ho281 2.811 . S
C292 C293 1.488 . S
C292 O308 1.215 . S
C292 O309 1.289 . S
C293 C292 1.488 . S
C293 C294 1.348 . S
C293 C298 1.413 . S
C294 C293 1.348 . S
C294 C295 1.442 . S
C294 H316 0.930 . S
C295 C294 1.442 . S
C295 C296 1.381 . S
C295 H317 0.931 . S
C296 C295 1.381 . S
C296 C297 1.321 . S
C297 C296 1.321 . S
C297 C298 1.403 . S
C297 H318 0.934 . S
C298 C293 1.413 . S
C298 C297 1.403 . S
C298 H319 0.930 . S
C299 O310 1.275 . S
C299 O311 1.256 . S
O300 Ho280 2.322 . S
O300 C282 1.259 . S
O301 Ho281 2.346 . S
O301 C282 1.268 . S
O302 Ho280 2.378 . S
O302 C283 1.215 . S
O303 Ho280 2.524 . S
O303 C283 1.289 . S
O304 Ho280 2.381 . S
O304 C290 1.275 . S
O305 Ho280 2.669 . S
O305 Ho281 2.305 . S
O305 C290 1.256 . S
O306 Ho281 2.322 . S
O306 C291 1.259 . S
O307 Ho280 2.346 . S
O307 C291 1.268 . S
O308 Ho281 2.378 . S
O308 C292 1.215 . S
O309 Ho281 2.524 . S
O309 C292 1.289 . S
O310 Ho281 2.381 . S
O310 C299 1.275 . S
O311 Ho280 2.305 . S
O311 Ho281 2.669 . S
O311 C299 1.256 . S
H312 C285 0.930 . S
H313 C286 0.931 . S
H314 C288 0.934 . S
H315 C289 0.930 . S
H316 C294 0.930 . S
H317 C295 0.931 . S
H318 C297 0.934 . S
H319 C298 0.930 . S
Ho320 C323 2.811 . S
Ho320 O340 2.322 . S
Ho320 O342 2.378 . S
Ho320 O343 2.524 . S
Ho320 O344 2.381 . S
Ho320 O345 2.669 . S
Ho320 O347 2.346 . S
Ho320 O351 2.305 . S
Ho321 C332 2.811 . S
Ho321 O341 2.346 . S
Ho321 O345 2.305 . S
Ho321 O346 2.322 . S
Ho321 O348 2.378 . S
Ho321 O349 2.524 . S
Ho321 O350 2.381 . S
Ho321 O351 2.669 . S
C322 O340 1.259 . S
C322 O341 1.268 . S
C323 Ho320 2.811 . S
C323 C324 1.488 . S
C323 O342 1.215 . S
C323 O343 1.289 . S
C324 C323 1.488 . S
C324 C325 1.348 . S
C324 C329 1.413 . S
C325 C324 1.348 . S
C325 C326 1.442 . S
C325 H352 0.930 . S
C326 C325 1.442 . S
C326 C327 1.381 . S
C326 H353 0.931 . S
C327 C326 1.381 . S
C327 C328 1.321 . S
C328 C327 1.321 . S
C328 C329 1.403 . S
C328 H354 0.934 . S
C329 C324 1.413 . S
C329 C328 1.403 . S
C329 H355 0.930 . S
C330 O344 1.275 . S
C330 O345 1.256 . S
C331 O346 1.259 . S
C331 O347 1.268 . S
C332 Ho321 2.811 . S
C332 C333 1.488 1_556 S
C332 O348 1.215 . S
C332 O349 1.289 . S
C333 C332 1.488 1_554 S
C333 C334 1.348 . S
C333 C338 1.413 . S
C334 C333 1.348 . S
C334 C335 1.442 . S
C334 H356 0.930 . S
C335 C334 1.442 . S
C335 C336 1.381 . S
C335 H357 0.931 . S
C336 C335 1.381 . S
C336 C337 1.321 . S
C337 C336 1.321 . S
C337 C338 1.403 . S
C337 H358 0.934 . S
C338 C333 1.413 . S
C338 C337 1.403 . S
C338 H359 0.930 . S
C339 O350 1.275 . S
C339 O351 1.256 . S
O340 Ho320 2.322 . S
O340 C322 1.259 . S
O341 Ho321 2.346 . S
O341 C322 1.268 . S
O342 Ho320 2.378 . S
O342 C323 1.215 . S
O343 Ho320 2.524 . S
O343 C323 1.289 . S
O344 Ho320 2.381 . S
O344 C330 1.275 . S
O345 Ho320 2.669 . S
O345 Ho321 2.305 . S
O345 C330 1.256 . S
O346 Ho321 2.322 . S
O346 C331 1.259 . S
O347 Ho320 2.346 . S
O347 C331 1.268 . S
O348 Ho321 2.378 . S
O348 C332 1.215 . S
O349 Ho321 2.524 . S
O349 C332 1.289 . S
O350 Ho321 2.381 . S
O350 C339 1.275 . S
O351 Ho320 2.305 . S
O351 Ho321 2.669 . S
O351 C339 1.256 . S
H352 C325 0.930 . S
H353 C326 0.931 . S
H354 C328 0.934 . S
H355 C329 0.930 . S
H356 C334 0.930 . S
H357 C335 0.931 . S
H358 C337 0.934 . S
H359 C338 0.930 . S
C360 C361 1.369 . S
C360 C362 1.419 . S
C360 H364 0.930 . S
C361 C360 1.369 . S
C361 C370 1.429 . S
C362 C360 1.419 . S
C362 C363 1.363 . S
C362 H365 0.929 . S
C363 C362 1.363 . S
C363 C369 1.428 . S
H364 C360 0.930 . S
H365 C362 0.929 . S
S366 N367 1.613 1_655 S
S366 N368 1.610 1_655 S
N367 S366 1.613 1_455 S
N367 C370 1.350 . S
N368 S366 1.610 1_455 S
N368 C369 1.351 . S
C369 C363 1.428 . S
C369 N368 1.351 . S
C369 C370 1.434 . S
C370 C361 1.429 . S
C370 N367 1.350 . S
C370 C369 1.434 . S
C371 C372 1.369 . S
C371 C373 1.419 . S
C371 H375 0.930 . S
C372 C371 1.369 . S
C372 C381 1.429 . S
C373 C371 1.419 . S
C373 C374 1.363 . S
C373 H376 0.929 . S
C374 C373 1.363 . S
C374 C380 1.428 . S
H375 C371 0.930 . S
H376 C373 0.929 . S
S377 N378 1.613 . S
S377 N379 1.610 . S
N378 S377 1.613 . S
N378 C381 1.350 . S
N379 S377 1.610 . S
N379 C380 1.351 . S
C380 C374 1.428 . S
C380 N379 1.351 . S
C380 C381 1.434 . S
C381 C372 1.429 . S
C381 N378 1.350 . S
C381 C380 1.434 . S
C382 C383 1.369 . S
C382 C384 1.419 . S
C382 H386 0.930 . S
C383 C382 1.369 . S
C383 C392 1.429 . S
C384 C382 1.419 . S
C384 C385 1.363 . S
C384 H387 0.929 . S
C385 C384 1.363 . S
C385 C391 1.428 . S
H386 C382 0.930 . S
H387 C384 0.929 . S
S388 N389 1.613 . S
S388 N390 1.610 . S
N389 S388 1.613 . S
N389 C392 1.350 . S
N390 S388 1.610 . S
N390 C391 1.351 . S
C391 C385 1.428 . S
C391 N390 1.351 . S
C391 C392 1.434 . S
C392 C383 1.429 . S
C392 N389 1.350 . S
C392 C391 1.434 . S
C393 C394 1.369 . S
C393 C395 1.419 . S
C393 H397 0.930 . S
C394 C393 1.369 . S
C394 C403 1.429 . S
C395 C393 1.419 . S
C395 C396 1.363 . S
C395 H398 0.929 . S
C396 C395 1.363 . S
C396 C402 1.428 . S
H397 C393 0.930 . S
H398 C395 0.929 . S
S399 N400 1.613 . S
S399 N401 1.610 . S
N400 S399 1.613 . S
N400 C403 1.350 . S
N401 S399 1.610 . S
N401 C402 1.351 . S
C402 C396 1.428 . S
C402 N401 1.351 . S
C402 C403 1.434 . S
C403 C394 1.429 . S
C403 N400 1.350 . S
C403 C402 1.434 . S
C404 C405 1.369 . S
C404 C406 1.419 . S
C404 H408 0.930 . S
C405 C404 1.369 . S
C405 C414 1.429 . S
C406 C404 1.419 . S
C406 C407 1.363 . S
C406 H409 0.929 . S
C407 C406 1.363 . S
C407 C413 1.428 . S
H408 C404 0.930 . S
H409 C406 0.929 . S
S410 N411 1.613 . S
S410 N412 1.610 . S
N411 S410 1.613 . S
N411 C414 1.350 . S
N412 S410 1.610 . S
N412 C413 1.351 . S
C413 C407 1.428 . S
C413 N412 1.351 . S
C413 C414 1.434 . S
C414 C405 1.429 . S
C414 N411 1.350 . S
C414 C413 1.434 . S
C415 C416 1.369 . S
C415 C417 1.419 . S
C415 H419 0.930 . S
C416 C415 1.369 . S
C416 C425 1.429 . S
C417 C415 1.419 . S
C417 C418 1.363 . S
C417 H420 0.929 . S
C418 C417 1.363 . S
C418 C424 1.428 . S
H419 C415 0.930 . S
H420 C417 0.929 . S
S421 N422 1.613 . S
S421 N423 1.610 . S
N422 S421 1.613 . S
N422 C425 1.350 . S
N423 S421 1.610 . S
N423 C424 1.351 . S
C424 C418 1.428 . S
C424 N423 1.351 . S
C424 C425 1.434 . S
C425 C416 1.429 . S
C425 N422 1.350 . S
C425 C424 1.434 . S
C426 C427 1.369 . S
C426 C428 1.419 . S
C426 H430 0.930 . S
C427 C426 1.369 . S
C427 C436 1.429 . S
C428 C426 1.419 . S
C428 C429 1.363 . S
C428 H431 0.929 . S
C429 C428 1.363 . S
C429 C435 1.428 . S
H430 C426 0.930 . S
H431 C428 0.929 . S
S432 N433 1.613 . S
S432 N434 1.610 . S
N433 S432 1.613 . S
N433 C436 1.350 . S
N434 S432 1.610 . S
N434 C435 1.351 . S
C435 C429 1.428 . S
C435 N434 1.351 . S
C435 C436 1.434 . S
C436 C427 1.429 . S
C436 N433 1.350 . S
C436 C435 1.434 . S
C437 C438 1.369 . S
C437 C439 1.419 . S
C437 H441 0.930 . S
C438 C437 1.369 . S
C438 C447 1.429 . S
C439 C437 1.419 . S
C439 C440 1.363 . S
C439 H442 0.929 . S
C440 C439 1.363 . S
C440 C446 1.428 . S
H441 C437 0.930 . S
H442 C439 0.929 . S
S443 N444 1.613 . S
S443 N445 1.610 . S
N444 S443 1.613 . S
N444 C447 1.350 . S
N445 S443 1.610 . S
N445 C446 1.351 . S
C446 C440 1.428 . S
C446 N445 1.351 . S
C446 C447 1.434 . S
C447 C438 1.429 . S
C447 N444 1.350 . S
C447 C446 1.434 . S
C448 C449 1.369 . S
C448 C450 1.419 . S
C448 H452 0.930 . S
C449 C448 1.369 . S
C449 C458 1.429 . S
C450 C448 1.419 . S
C450 C451 1.363 . S
C450 H453 0.929 . S
C451 C450 1.363 . S
C451 C457 1.428 . S
H452 C448 0.930 . S
H453 C450 0.929 . S
S454 N455 1.613 . S
S454 N456 1.610 . S
N455 S454 1.613 . S
N455 C458 1.350 . S
N456 S454 1.610 . S
N456 C457 1.351 . S
C457 C451 1.428 . S
C457 N456 1.351 . S
C457 C458 1.434 . S
C458 C449 1.429 . S
C458 N455 1.350 . S
C458 C457 1.434 . S
C459 C460 1.369 . S
C459 C461 1.419 . S
C459 H463 0.930 . S
C460 C459 1.369 . S
C460 C469 1.429 . S
C461 C459 1.419 . S
C461 C462 1.363 . S
C461 H464 0.929 . S
C462 C461 1.363 . S
C462 C468 1.428 . S
H463 C459 0.930 . S
H464 C461 0.929 . S
S465 N466 1.613 . S
S465 N467 1.610 . S
N466 S465 1.613 . S
N466 C469 1.350 . S
N467 S465 1.610 . S
N467 C468 1.351 . S
C468 C462 1.428 . S
C468 N467 1.351 . S
C468 C469 1.434 . S
C469 C460 1.429 . S
C469 N466 1.350 . S
C469 C468 1.434 . S
C470 C471 1.369 . S
C470 C472 1.419 . S
C470 H474 0.930 . S
C471 C470 1.369 . S
C471 C480 1.429 . S
C472 C470 1.419 . S
C472 C473 1.363 . S
C472 H475 0.929 . S
C473 C472 1.363 . S
C473 C479 1.428 . S
H474 C470 0.930 . S
H475 C472 0.929 . S
S476 N477 1.613 . S
S476 N478 1.610 . S
N477 S476 1.613 . S
N477 C480 1.350 . S
N478 S476 1.610 . S
N478 C479 1.351 . S
C479 C473 1.428 . S
C479 N478 1.351 . S
C479 C480 1.434 . S
C480 C471 1.429 . S
C480 N477 1.350 . S
C480 C479 1.434 . S
C481 C482 1.377 1_565 S
C481 C483 1.423 . S
C481 H485 0.918 1_565 S
C482 C481 1.377 1_545 S
C482 C491 1.430 1_545 S
C483 C481 1.423 . S
C483 C484 1.363 . S
C483 H486 0.929 . S
C484 C483 1.363 . S
C484 C490 1.428 . S
H485 C481 0.918 1_545 S
H486 C483 0.929 . S
S487 N488 1.613 1_565 S
S487 N489 1.610 . S
N488 S487 1.613 1_545 S
N488 C491 1.349 1_545 S
N489 S487 1.610 . S
N489 C490 1.351 . S
C490 C484 1.428 . S
C490 N489 1.351 . S
C490 C491 1.434 . S
C491 C482 1.430 1_565 S
C491 N488 1.349 1_565 S
C491 C490 1.434 . S
C492 C493 1.369 1_556 S
C492 C494 1.419 . S
C492 H496 0.930 . S
C493 C492 1.369 1_554 S
C493 C502 1.429 . S
C494 C492 1.419 . S
C494 C495 1.363 . S
C494 H497 0.929 . S
C495 C494 1.363 . S
C495 C501 1.428 . S
H496 C492 0.930 . S
H497 C494 0.929 . S
S498 N499 1.613 . S
S498 N500 1.610 1_554 S
N499 S498 1.613 . S
N499 C502 1.350 . S
N500 S498 1.610 1_556 S
N500 C501 1.351 . S
C501 C495 1.428 . S
C501 N500 1.351 . S
C501 C502 1.434 1_556 S
C502 C493 1.429 . S
C502 N499 1.350 . S
C502 C501 1.434 1_554 S
C503 C504 1.369 . S
C503 C505 1.419 . S
C503 H507 0.930 . S
C504 C503 1.369 . S
C504 C513 1.429 . S
C505 C503 1.419 . S
C505 C506 1.386 . S
C505 H508 0.929 . S
C506 C505 1.386 . S
C506 C512 1.408 . S
H507 C503 0.930 . S
H508 C505 0.929 . S
S509 N510 1.606 1_454 S
S509 N511 1.604 . S
N510 S509 1.606 1_656 S
N510 C513 1.350 . S
N511 S509 1.604 . S
N511 C512 1.351 1_454 S
C512 C506 1.408 . S
C512 N511 1.351 1_656 S
C512 C513 1.434 . S
C513 C504 1.429 . S
C513 N510 1.350 . S
C513 C512 1.434 . S
C514 C515 1.369 . S
C514 C516 1.419 1_556 S
C514 H518 0.930 . S
C515 C514 1.369 . S
C515 C524 1.429 . S
C516 C514 1.419 1_554 S
C516 C517 1.363 . S
C516 H519 0.929 . S
C517 C516 1.363 . S
C517 C523 1.428 . S
H518 C514 0.930 . S
H519 C516 0.929 . S
S520 N521 1.617 . S
S520 N522 1.607 1_556 S
N521 S520 1.617 . S
N521 C524 1.350 . S
N522 S520 1.607 1_554 S
N522 C523 1.351 . S
C523 C517 1.428 . S
C523 N522 1.351 . S
C523 C524 1.434 1_554 S
C524 C515 1.429 . S
C524 N521 1.350 . S
C524 C523 1.434 1_556 S
C525 C526 1.369 . S
C525 C527 1.419 . S
C525 H529 0.930 . S
C526 C525 1.369 . S
C526 C535 1.429 . S
C527 C525 1.419 . S
C527 C528 1.363 . S
C527 H530 0.929 . S
C528 C527 1.363 . S
C528 C534 1.428 . S
H529 C525 0.930 . S
H530 C527 0.929 . S
S531 N532 1.613 . S
S531 N533 1.610 . S
N532 S531 1.613 . S
N532 C535 1.350 . S
N533 S531 1.610 . S
N533 C534 1.351 . S
C534 C528 1.428 . S
C534 N533 1.351 . S
C534 C535 1.434 . S
C535 C526 1.429 . S
C535 N532 1.350 . S
C535 C534 1.434 . S
C536 C537 1.369 1_556 S
C536 C538 1.419 . S
C536 H540 0.930 . S
C537 C536 1.369 1_554 S
C537 C546 1.429 . S
C538 C536 1.419 . S
C538 C539 1.363 . S
C538 H541 0.929 . S
C539 C538 1.363 . S
C539 C545 1.428 . S
H540 C536 0.930 . S
H541 C538 0.929 . S
S542 N543 1.613 . S
S542 N544 1.610 . S
N543 S542 1.613 . S
N543 C546 1.350 . S
N544 S542 1.610 . S
N544 C545 1.351 1_554 S
C545 C539 1.428 . S
C545 N544 1.351 1_556 S
C545 C546 1.434 1_556 S
C546 C537 1.429 . S
C546 N543 1.350 . S
C546 C545 1.434 1_554 S
C547 C548 1.369 1_554 S
C547 C549 1.419 . S
C547 H551 0.930 . S
C548 C547 1.369 1_556 S
C548 C557 1.429 . S
C549 C547 1.419 . S
C549 C550 1.363 . S
C549 H552 0.929 . S
C550 C549 1.363 . S
C550 C556 1.428 1_554 S
H551 C547 0.930 . S
H552 C549 0.929 . S
S553 N554 1.613 . S
S553 N555 1.610 . S
N554 S553 1.613 . S
N554 C557 1.350 . S
N555 S553 1.610 . S
N555 C556 1.351 . S
C556 C550 1.428 1_556 S
C556 N555 1.351 . S
C556 C557 1.434 . S
C557 C548 1.429 . S
C557 N554 1.350 . S
C557 C556 1.434 . S
C558 C559 1.369 . S
C558 C560 1.419 . S
C558 H562 0.930 . S
C559 C558 1.369 . S
C559 C568 1.429 . S
C560 C558 1.419 . S
C560 C561 1.363 . S
C560 H563 0.929 1_545 S
C561 C560 1.363 . S
C561 C567 1.428 . S
H562 C558 0.930 . S
H563 C560 0.929 1_565 S
S564 N565 1.613 . S
S564 N566 1.610 . S
N565 S564 1.613 . S
N565 C568 1.350 . S
N566 S564 1.610 . S
N566 C567 1.351 . S
C567 C561 1.428 . S
C567 N566 1.351 . S
C567 C568 1.434 . S
C568 C559 1.429 . S
C568 N565 1.350 . S
C568 C567 1.434 . S
C569 C570 1.369 . S
C569 C571 1.419 . S
C569 H573 0.930 . S
C570 C569 1.369 . S
C570 C579 1.429 . S
C571 C569 1.419 . S
C571 C572 1.363 . S
C571 H574 0.929 . S
C572 C571 1.363 . S
C572 C578 1.428 . S
H573 C569 0.930 . S
H574 C571 0.929 . S
S575 N576 1.613 . S
S575 N577 1.610 . S
N576 S575 1.613 . S
N576 C579 1.350 . S
N577 S575 1.610 . S
N577 C578 1.351 . S
C578 C572 1.428 . S
C578 N577 1.351 . S
C578 C579 1.434 . S
C579 C570 1.429 . S
C579 N576 1.350 . S
C579 C578 1.434 . S
C580 C581 1.369 . S
C580 C582 1.419 . S
C580 H584 0.930 . S
C581 C580 1.369 . S
C581 C590 1.429 . S
C582 C580 1.419 . S
C582 C583 1.363 . S
C582 H585 0.929 . S
C583 C582 1.363 . S
C583 C589 1.428 . S
H584 C580 0.930 . S
H585 C582 0.929 . S
S586 N587 1.613 . S
S586 N588 1.610 . S
N587 S586 1.613 . S
N587 C590 1.350 . S
N588 S586 1.610 . S
N588 C589 1.351 . S
C589 C583 1.428 . S
C589 N588 1.351 . S
C589 C590 1.434 . S
C590 C581 1.429 . S
C590 N587 1.350 . S
C590 C589 1.434 . S
C591 C592 1.369 . S
C591 C593 1.419 . S
C591 H595 0.930 . S
C592 C591 1.369 . S
C592 C601 1.429 . S
C593 C591 1.419 . S
C593 C594 1.363 . S
C593 H596 0.929 . S
C594 C593 1.363 . S
C594 C600 1.428 . S
H595 C591 0.930 . S
H596 C593 0.929 . S
S597 N598 1.613 . S
S597 N599 1.610 . S
N598 S597 1.613 . S
N598 C601 1.350 . S
N599 S597 1.610 . S
N599 C600 1.351 . S
C600 C594 1.428 . S
C600 N599 1.351 . S
C600 C601 1.434 . S
C601 C592 1.429 . S
C601 N598 1.350 . S
C601 C600 1.434 . S
C602 C603 1.369 . S
C602 C604 1.419 1_545 S
C602 H606 0.930 . S
C603 C602 1.369 . S
C603 C612 1.429 . S
C604 C602 1.419 1_565 S
C604 C605 1.363 . S
C604 H607 0.929 . S
C605 C604 1.363 . S
C605 C611 1.428 1_565 S
H606 C602 0.930 . S
H607 C604 0.929 . S
S608 N609 1.613 . S
S608 N610 1.610 1_545 S
N609 S608 1.613 . S
N609 C612 1.350 . S
N610 S608 1.610 1_565 S
N610 C611 1.351 1_565 S
C611 C605 1.428 1_545 S
C611 N610 1.351 1_545 S
C611 C612 1.434 . S
C612 C603 1.429 . S
C612 N609 1.350 . S
C612 C611 1.434 . S
C613 C614 1.369 . S
C613 C615 1.419 . S
C613 H617 0.930 . S
C614 C613 1.369 . S
C614 C623 1.429 1_655 S
C615 C613 1.419 . S
C615 C616 1.363 . S
C615 H618 0.929 . S
C616 C615 1.363 . S
C616 C622 1.428 1_655 S
H617 C613 0.930 . S
H618 C615 0.929 . S
S619 N620 1.613 . S
S619 N621 1.610 . S
N620 S619 1.613 . S
N620 C623 1.350 . S
N621 S619 1.610 . S
N621 C622 1.351 . S
C622 C616 1.428 1_455 S
C622 N621 1.351 . S
C622 C623 1.434 . S
C623 C614 1.429 1_455 S
C623 N620 1.350 . S
C623 C622 1.434 . S
C624 C625 1.369 . S
C624 C626 1.419 . S
C624 H628 0.930 . S
C625 C624 1.369 . S
C625 C634 1.429 . S
C626 C624 1.419 . S
C626 C627 1.363 . S
C626 H629 0.929 . S
C627 C626 1.363 . S
C627 C633 1.428 . S
H628 C624 0.930 . S
H629 C626 0.929 . S
S630 N631 1.613 . S
S630 N632 1.610 . S
N631 S630 1.613 . S
N631 C634 1.350 . S
N632 S630 1.610 . S
N632 C633 1.351 . S
C633 C627 1.428 . S
C633 N632 1.351 . S
C633 C634 1.434 . S
C634 C625 1.429 . S
C634 N631 1.350 . S
C634 C633 1.434 . S
C635 C636 1.369 1_545 S
C635 C637 1.419 . S
C635 H639 0.930 . S
C636 C635 1.369 1_565 S
C636 C645 1.429 . S
C637 C635 1.419 . S
C637 C638 1.363 . S
C637 H640 0.929 . S
C638 C637 1.363 . S
C638 C644 1.428 . S
H639 C635 0.930 . S
H640 C637 0.929 . S
S641 N642 1.613 . S
S641 N643 1.610 1_565 S
N642 S641 1.613 . S
N642 C645 1.350 . S
N643 S641 1.610 1_545 S
N643 C644 1.351 . S
C644 C638 1.428 . S
C644 N643 1.351 . S
C644 C645 1.434 1_545 S
C645 C636 1.429 . S
C645 N642 1.350 . S
C645 C644 1.434 1_565 S
C646 C647 1.369 1_455 S
C646 C648 1.419 . S
C646 H650 0.930 . S
C647 C646 1.369 1_655 S
C647 C656 1.429 . S
C648 C646 1.419 . S
C648 C649 1.363 1_455 S
C648 H651 0.929 . S
C649 C648 1.363 1_655 S
C649 C655 1.428 . S
H650 C646 0.930 . S
H651 C648 0.929 . S
S652 N653 1.613 . S
S652 N654 1.610 . S
N653 S652 1.613 . S
N653 C656 1.350 . S
N654 S652 1.610 . S
N654 C655 1.351 . S
C655 C649 1.428 . S
C655 N654 1.351 . S
C655 C656 1.434 . S
C656 C647 1.429 . S
C656 N653 1.350 . S
C656 C655 1.434 . S
C361 C10 3.609 . S
C363 C19 3.610 . S
C372 C59 3.705 . S
C374 C50 3.705 . S
C383 C90 3.747 . S
C385 C99 3.748 . S
C394 C139 3.609 . S
C396 C130 3.610 1_556 S
C405 C170 3.706 . S
C407 C179 3.705 1_556 S
C416 C219 3.748 . S
C418 C210 3.747 1_556 S
C427 C247 0.333 . S
C429 C256 0.312 . S
C438 C296 0.343 . S
C440 C287 0.319 . S
C449 C327 0.672 . S
C451 C336 0.657 . S
C460 C202 1.605 . S
C462 C7 1.632 . S
C471 C42 2.683 . S
C473 C122 2.723 . S
C482 C87 1.215 . S
C484 C167 1.240 . S
C493 C82 3.112 . S
C495 C251 3.303 . S
C504 C299 1.373 . S
C506 C2 1.269 1_656 S
C515 C331 2.249 . S
C517 C47 2.047 . S
C526 C330 1.157 . S
C528 C16 1.048 . S
C537 C51 2.391 . S
C539 C250 2.479 . S
C548 C282 3.204 . S
C550 C96 2.936 . S
C559 C91 1.605 . S
C561 C136 1.632 . S
C570 C171 2.681 . S
C572 C11 2.722 . S
C581 C56 1.241 . S
C583 C216 1.218 . S
C592 C339 1.159 . S
C594 C127 1.046 . S
C603 C259 2.477 . S
C605 C162 2.386 . S
C614 C291 3.203 . S
C616 C207 2.936 1_655 S
C625 C242 3.303 . S
C627 C211 3.113 . S
C636 C131 1.253 . S
C638 C290 1.372 . S
C647 C322 2.249 . S
C649 C176 2.048 1_655 S
