# Generated by pormake.
# Topology ecc, (8)-cn, num edge types: 1
# Building blocks:
#     Node 0, Type 0, BuildingBlock: EBIMEJ_clean_sbu_0, # of connection points: 8
#     Node 1, Type 0, BuildingBlock: EBIMEJ_clean_sbu_0, # of connection points: 8
#     Node 2, Type 0, BuildingBlock: EBIMEJ_clean_sbu_0, # of connection points: 8
#     Node 3, Type 0, BuildingBlock: EBIMEJ_clean_sbu_0, # of connection points: 8
#     Node 4, Type 0, BuildingBlock: EBIMEJ_clean_sbu_0, # of connection points: 8
#     Node 5, Type 0, BuildingBlock: EBIMEJ_clean_sbu_0, # of connection points: 8
#     Node 6, Type 0, BuildingBlock: EBIMEJ_clean_sbu_0, # of connection points: 8
#     Node 7, Type 0, BuildingBlock: EBIMEJ_clean_sbu_0, # of connection points: 8
#     Node 8, Type 0, BuildingBlock: EBIMEJ_clean_sbu_0, # of connection points: 8
#     Node 9, Type 0, BuildingBlock: EBIMEJ_clean_sbu_0, # of connection points: 8
#     Node 10, Type 0, BuildingBlock: EBIMEJ_clean_sbu_0, # of connection points: 8
#     Node 11, Type 0, BuildingBlock: EBIMEJ_clean_sbu_0, # of connection points: 8
#     Node 12, Type 0, BuildingBlock: EBIMEJ_clean_sbu_0, # of connection points: 8
#     Node 13, Type 0, BuildingBlock: EBIMEJ_clean_sbu_0, # of connection points: 8
#     Node 14, Type 0, BuildingBlock: EBIMEJ_clean_sbu_0, # of connection points: 8
#     Node 15, Type 0, BuildingBlock: EBIMEJ_clean_sbu_0, # of connection points: 8
#     Node 16, Type 0, BuildingBlock: EBIMEJ_clean_sbu_0, # of connection points: 8
#     Node 17, Type 0, BuildingBlock: EBIMEJ_clean_sbu_0, # of connection points: 8
#     Edge 18, Type (0, 0), BuildingBlock: AJUNOK_clean_linker_0, # of connection points: 2
#     Edge 19, Type (0, 0), BuildingBlock: AJUNOK_clean_linker_0, # of connection points: 2
#     Edge 20, Type (0, 0), BuildingBlock: AJUNOK_clean_linker_0, # of connection points: 2
#     Edge 21, Type (0, 0), BuildingBlock: AJUNOK_clean_linker_0, # of connection points: 2
#     Edge 22, Type (0, 0), BuildingBlock: AJUNOK_clean_linker_0, # of connection points: 2
#     Edge 23, Type (0, 0), BuildingBlock: AJUNOK_clean_linker_0, # of connection points: 2
#     Edge 24, Type (0, 0), BuildingBlock: AJUNOK_clean_linker_0, # of connection points: 2
#     Edge 25, Type (0, 0), BuildingBlock: AJUNOK_clean_linker_0, # of connection points: 2
#     Edge 26, Type (0, 0), BuildingBlock: AJUNOK_clean_linker_0, # of connection points: 2
#     Edge 27, Type (0, 0), BuildingBlock: AJUNOK_clean_linker_0, # of connection points: 2
#     Edge 28, Type (0, 0), BuildingBlock: AJUNOK_clean_linker_0, # of connection points: 2
#     Edge 29, Type (0, 0), BuildingBlock: AJUNOK_clean_linker_0, # of connection points: 2
#     Edge 30, Type (0, 0), BuildingBlock: AJUNOK_clean_linker_0, # of connection points: 2
#     Edge 31, Type (0, 0), BuildingBlock: AJUNOK_clean_linker_0, # of connection points: 2
#     Edge 32, Type (0, 0), BuildingBlock: AJUNOK_clean_linker_0, # of connection points: 2
#     Edge 33, Type (0, 0), BuildingBlock: AJUNOK_clean_linker_0, # of connection points: 2
#     Edge 34, Type (0, 0), BuildingBlock: AJUNOK_clean_linker_0, # of connection points: 2
#     Edge 35, Type (0, 0), BuildingBlock: AJUNOK_clean_linker_0, # of connection points: 2
#     Edge 36, Type (0, 0), BuildingBlock: AJUNOK_clean_linker_0, # of connection points: 2
#     Edge 37, Type (0, 0), BuildingBlock: AJUNOK_clean_linker_0, # of connection points: 2
#     Edge 38, Type (0, 0), BuildingBlock: AJUNOK_clean_linker_0, # of connection points: 2
#     Edge 39, Type (0, 0), BuildingBlock: AJUNOK_clean_linker_0, # of connection points: 2
#     Edge 40, Type (0, 0), BuildingBlock: AJUNOK_clean_linker_0, # of connection points: 2
#     Edge 41, Type (0, 0), BuildingBlock: AJUNOK_clean_linker_0, # of connection points: 2
#     Edge 42, Type (0, 0), BuildingBlock: AJUNOK_clean_linker_0, # of connection points: 2
#     Edge 43, Type (0, 0), BuildingBlock: AJUNOK_clean_linker_0, # of connection points: 2
#     Edge 44, Type (0, 0), BuildingBlock: AJUNOK_clean_linker_0, # of connection points: 2
#     Edge 45, Type (0, 0), BuildingBlock: AJUNOK_clean_linker_0, # of connection points: 2
#     Edge 46, Type (0, 0), BuildingBlock: AJUNOK_clean_linker_0, # of connection points: 2
#     Edge 47, Type (0, 0), BuildingBlock: AJUNOK_clean_linker_0, # of connection points: 2
#     Edge 48, Type (0, 0), BuildingBlock: AJUNOK_clean_linker_0, # of connection points: 2
#     Edge 49, Type (0, 0), BuildingBlock: AJUNOK_clean_linker_0, # of connection points: 2
#     Edge 50, Type (0, 0), BuildingBlock: AJUNOK_clean_linker_0, # of connection points: 2
#     Edge 51, Type (0, 0), BuildingBlock: AJUNOK_clean_linker_0, # of connection points: 2
#     Edge 52, Type (0, 0), BuildingBlock: AJUNOK_clean_linker_0, # of connection points: 2
#     Edge 53, Type (0, 0), BuildingBlock: AJUNOK_clean_linker_0, # of connection points: 2
#     Edge 54, Type (0, 0), BuildingBlock: AJUNOK_clean_linker_0, # of connection points: 2
#     Edge 55, Type (0, 0), BuildingBlock: AJUNOK_clean_linker_0, # of connection points: 2
#     Edge 56, Type (0, 0), BuildingBlock: AJUNOK_clean_linker_0, # of connection points: 2
#     Edge 57, Type (0, 0), BuildingBlock: AJUNOK_clean_linker_0, # of connection points: 2
#     Edge 58, Type (0, 0), BuildingBlock: AJUNOK_clean_linker_0, # of connection points: 2
#     Edge 59, Type (0, 0), BuildingBlock: AJUNOK_clean_linker_0, # of connection points: 2
#     Edge 60, Type (0, 0), BuildingBlock: AJUNOK_clean_linker_0, # of connection points: 2
#     Edge 61, Type (0, 0), BuildingBlock: AJUNOK_clean_linker_0, # of connection points: 2
#     Edge 62, Type (0, 0), BuildingBlock: AJUNOK_clean_linker_0, # of connection points: 2
#     Edge 63, Type (0, 0), BuildingBlock: AJUNOK_clean_linker_0, # of connection points: 2
#     Edge 64, Type (0, 0), BuildingBlock: AJUNOK_clean_linker_0, # of connection points: 2
#     Edge 65, Type (0, 0), BuildingBlock: AJUNOK_clean_linker_0, # of connection points: 2
#     Edge 66, Type (0, 0), BuildingBlock: AJUNOK_clean_linker_0, # of connection points: 2
#     Edge 67, Type (0, 0), BuildingBlock: AJUNOK_clean_linker_0, # of connection points: 2
#     Edge 68, Type (0, 0), BuildingBlock: AJUNOK_clean_linker_0, # of connection points: 2
#     Edge 69, Type (0, 0), BuildingBlock: AJUNOK_clean_linker_0, # of connection points: 2
#     Edge 70, Type (0, 0), BuildingBlock: AJUNOK_clean_linker_0, # of connection points: 2
#     Edge 71, Type (0, 0), BuildingBlock: AJUNOK_clean_linker_0, # of connection points: 2
#     Edge 72, Type (0, 0), BuildingBlock: AJUNOK_clean_linker_0, # of connection points: 2
#     Edge 73, Type (0, 0), BuildingBlock: AJUNOK_clean_linker_0, # of connection points: 2
#     Edge 74, Type (0, 0), BuildingBlock: AJUNOK_clean_linker_0, # of connection points: 2
#     Edge 75, Type (0, 0), BuildingBlock: AJUNOK_clean_linker_0, # of connection points: 2
#     Edge 76, Type (0, 0), BuildingBlock: AJUNOK_clean_linker_0, # of connection points: 2
#     Edge 77, Type (0, 0), BuildingBlock: AJUNOK_clean_linker_0, # of connection points: 2
#     Edge 78, Type (0, 0), BuildingBlock: AJUNOK_clean_linker_0, # of connection points: 2
#     Edge 79, Type (0, 0), BuildingBlock: AJUNOK_clean_linker_0, # of connection points: 2
#     Edge 80, Type (0, 0), BuildingBlock: AJUNOK_clean_linker_0, # of connection points: 2
#     Edge 81, Type (0, 0), BuildingBlock: AJUNOK_clean_linker_0, # of connection points: 2
#     Edge 82, Type (0, 0), BuildingBlock: AJUNOK_clean_linker_0, # of connection points: 2
#     Edge 83, Type (0, 0), BuildingBlock: AJUNOK_clean_linker_0, # of connection points: 2
#     Edge 84, Type (0, 0), BuildingBlock: AJUNOK_clean_linker_0, # of connection points: 2
#     Edge 85, Type (0, 0), BuildingBlock: AJUNOK_clean_linker_0, # of connection points: 2
#     Edge 86, Type (0, 0), BuildingBlock: AJUNOK_clean_linker_0, # of connection points: 2
#     Edge 87, Type (0, 0), BuildingBlock: AJUNOK_clean_linker_0, # of connection points: 2
#     Edge 88, Type (0, 0), BuildingBlock: AJUNOK_clean_linker_0, # of connection points: 2
#     Edge 89, Type (0, 0), BuildingBlock: AJUNOK_clean_linker_0, # of connection points: 2
# Relax obj value: 0.333
# Max RMSD: 0.289
# Mean RMSD: 0.289
data_MOF--net-ecc--node1-EBIMEJ_clean_sbu_0--edge1-AJUNOK_clean_linker_0
_symmetry_space_group_name_H-M    P1
_symmetry_Int_Tables_number       1
_symmetry_cell_setting            triclinic
loop_
_symmetry_equiv_pos_as_xyz
'x, y, z'
_cell_length_a     46.48829
_cell_length_b     46.591481
_cell_length_c     19.869114
_cell_angle_alpha  90.080249
_cell_angle_beta   90.076568
_cell_angle_gamma 120.08023
loop_
_atom_site_label
_atom_site_type_symbol
_atom_site_fract_x
_atom_site_fract_y
_atom_site_fract_z
_atom_type_partial_charge
Co0 Co 0.14884 1.01714 0.69825 0.0
Co1 Co 0.19525 0.04721 0.83039 0.0
Co2 Co 0.21111 1.01098 0.72558 0.0
H3 H 0.17914 1.01289 0.73208 0.0
O4 O 0.17088 1.00854 0.77191 0.0
H5 H 0.22608 0.04117 0.83546 0.0
O6 O 0.23572 0.04535 0.79652 0.0
Co7 Co 0.25428 0.03546 0.8792 0.0
O8 O 0.25038 0.06834 0.94857 0.0
O9 O 0.21997 0.08507 0.89133 0.0
O10 O 0.27291 1.01418 0.8076 0.0
O11 O 0.2517 1.01056 0.7026 0.0
O12 O 0.1034 1.01392 0.71083 0.0
O13 O 0.11247 0.97796 0.75085 0.0
O14 O 0.21237 0.99443 0.9158 0.0
O15 O 0.17715 1.01366 0.90695 0.0
C16 C 0.1581 0.96947 0.6172 0.0
C17 C 0.15763 0.06963 0.77992 0.0
C18 C 0.30893 0.05772 0.94278 0.0
C19 C 0.208 0.05994 0.62026 0.0
C20 C 0.23759 0.08731 0.94207 0.0
C21 C 0.27171 1.00792 0.74317 0.0
C22 C 0.09218 0.98806 0.74566 0.0
C23 C 0.18402 0.99168 0.92811 0.0
O24 O 0.14299 0.98567 0.62468 0.0
O25 O 0.18388 0.97527 0.65302 0.0
O26 O 0.15747 0.05588 0.83558 0.0
O27 O 0.17107 0.0643 0.73001 0.0
O28 O 0.28067 0.04405 0.96962 0.0
O29 O 0.30601 0.05833 0.87995 0.0
O30 O 0.17678 0.04763 0.62522 0.0
O31 O 0.22398 0.04972 0.65754 0.0
Co32 Co 0.05286 0.16499 0.70237 0.0
Co33 Co 1.02558 0.18214 0.83294 0.0
Co34 Co 0.0591 0.23377 0.72583 0.0
H35 H 0.05788 0.20027 0.73339 0.0
O36 O 0.06346 0.19732 0.77292 0.0
H37 H 1.0295 0.21808 0.83562 0.0
O38 O 1.02453 0.22278 0.7967 0.0
Co39 Co 0.03461 0.25198 0.87822 0.0
O40 O 1.00132 0.21542 0.94737 0.0
O41 O 0.988 0.16786 0.89481 0.0
O42 O 0.05587 0.29194 0.80752 0.0
O43 O 0.05841 0.27428 0.70214 0.0
O44 O 0.07609 0.14064 0.66933 0.0
O45 O 0.08054 0.15559 0.76973 0.0
O46 O 0.07734 0.25461 0.9142 0.0
O47 O 0.05995 0.20059 0.90809 0.0
C48 C 0.09984 0.22228 0.61822 0.0
C49 C 1.00771 0.11781 0.79576 0.0
C50 C 1.01171 0.28393 0.9393 0.0
C51 C 1.00492 0.17718 0.63371 0.0
C52 C 0.98392 0.18339 0.9429 0.0
C53 C 0.06138 0.29695 0.74302 0.0
C54 C 0.08824 0.14119 0.72619 0.0
C55 C 0.08134 0.22999 0.92772 0.0
O56 O 0.08335 0.19105 0.62708 0.0
O57 O 0.09471 0.24275 0.6535 0.0
O58 O 1.02122 0.13771 0.84516 0.0
O59 O 1.00903 0.12896 0.73688 0.0
O60 O 1.02518 0.26956 0.96777 0.0
O61 O 1.01168 0.28033 0.87661 0.0
O62 O 1.01333 0.15599 0.64854 0.0
O63 O 1.02077 0.20721 0.65699 0.0
Co64 Co 0.90862 0.92156 0.7059 0.0
Co65 Co 0.88963 0.87663 0.83548 0.0
Co66 Co 0.83842 0.85884 0.72728 0.0
H67 H 0.87247 0.89122 0.73499 0.0
O68 O 0.87514 0.89965 0.77458 0.0
H69 H 0.85331 0.84481 0.83747 0.0
O70 O 0.84874 0.83517 0.79854 0.0
Co71 Co 0.81886 0.81597 0.87892 0.0
O72 O 0.85488 0.82023 0.95028 0.0
O73 O 0.90309 0.8528 0.89797 0.0
O74 O 0.77925 0.79639 0.80694 0.0
O75 O 0.79779 0.81776 0.70279 0.0
O76 O 0.9478 0.96838 0.69562 0.0
O77 O 0.91191 0.9579 0.76926 0.0
O78 O 0.8167 0.85622 0.91477 0.0
O79 O 0.87104 0.89249 0.90999 0.0
C80 C 0.85085 0.91061 0.61936 0.0
C81 C 0.95575 0.92317 0.80311 0.0
C82 C 0.78784 0.76042 0.93815 0.0
C83 C 0.89423 0.8609 0.63458 0.0
C84 C 0.88684 0.83375 0.94619 0.0
C85 C 0.775 0.79715 0.74218 0.0
C86 C 0.93878 0.97952 0.74384 0.0
C87 C 0.84161 0.88466 0.92899 0.0
O88 O 0.88211 0.92555 0.62991 0.0
O89 O 0.83002 0.88509 0.65406 0.0
O90 O 0.93439 0.91646 0.8497 0.0
O91 O 0.94714 0.91778 0.74148 0.0
O92 O 0.79749 0.78798 0.96625 0.0
O93 O 0.79542 0.76468 0.87683 0.0
O94 O 0.91533 0.89094 0.64709 0.0
O95 O 0.86473 0.84643 0.66022 0.0
Co96 Co 0.81712 0.03295 0.17367 0.0
Co97 Co 0.85999 0.05565 0.32569 0.0
Co98 Co 0.87762 0.02265 0.21669 0.0
H99 H 0.84579 0.02708 0.21501 0.0
O100 O 0.83612 0.0218 0.25387 0.0
H101 H 0.89253 0.05446 0.31698 0.0
O102 O 0.90075 0.06028 0.2773 0.0
Co103 Co 0.92337 0.04922 0.34503 0.0
O104 O 0.9298 0.08233 0.4169 0.0
O105 O 0.88665 0.09061 0.39873 0.0
O106 O 0.91856 1.00641 0.31083 0.0
O107 O 0.91747 1.01769 0.20263 0.0
O108 O 0.78917 0.03178 0.08978 0.0
O109 O 0.76605 1.00112 0.17055 0.0
O110 O 0.89291 1.01049 0.40006 0.0
O111 O 0.84833 1.01679 0.3925 0.0
C112 C 0.834 0.98207 0.10675 0.0
C113 C 0.79934 0.05881 0.31042 0.0
C114 C 0.98234 0.07852 0.31591 0.0
C115 C 0.88581 0.07852 0.12243 0.0
C116 C 0.91392 0.09741 0.42961 0.0
C117 C 0.9239 1.00293 0.24943 0.0
C118 C 0.76185 1.00957 0.11297 0.0
C119 C 0.86311 1.00142 0.41504 0.0
O120 O 0.82016 1.00018 0.10309 0.0
O121 O 0.85358 0.98532 0.15443 0.0
O122 O 0.81877 0.05493 0.35056 0.0
O123 O 0.79886 0.05402 0.24563 0.0
O124 O 0.97041 0.06023 0.36661 0.0
O125 O 0.96072 0.08067 0.28206 0.0
O126 O 0.85754 0.07532 0.13708 0.0
O127 O 0.89335 0.05681 0.14168 0.0
Co128 Co 0.03678 0.8162 0.17039 0.0
Co129 Co 1.01191 0.83429 0.32328 0.0
Co130 Co 0.04875 0.88684 0.21916 0.0
H131 H 0.04264 0.85007 0.21418 0.0
O132 O 0.04662 0.84443 0.25311 0.0
H133 H 1.01372 0.86818 0.3166 0.0
O134 O 1.00962 0.87208 0.27654 0.0
Co135 Co 1.01753 0.90282 0.34949 0.0
O136 O 0.9861 0.87695 0.42277 0.0
O137 O 0.97647 0.82578 0.39618 0.0
O138 O 0.06505 0.9289 0.3194 0.0
O139 O 0.05715 0.93316 0.2131 0.0
O140 O 0.04337 0.79595 0.08158 0.0
O141 O 0.06288 0.7907 0.17071 0.0
O142 O 0.04953 0.90615 0.42017 0.0
O143 O 0.05061 0.86022 0.39112 0.0
C144 C 0.08813 0.88478 0.10696 0.0
C145 C 1.00953 0.77087 0.30583 0.0
C146 C 0.98812 0.93046 0.30403 0.0
C147 C 0.99305 0.84236 0.12194 0.0
C148 C 0.97051 0.84572 0.43144 0.0
C149 C 0.0703 0.94727 0.26891 0.0
C150 C 0.05993 0.78448 0.1087 0.0
C151 C 0.06147 0.88704 0.42643 0.0
O152 O 0.06833 0.85313 0.09995 0.0
O153 O 0.08694 0.90012 0.15877 0.0
O154 O 1.01146 0.79319 0.3465 0.0
O155 O 1.01589 0.77617 0.24153 0.0
O156 O 1.01477 0.94515 0.33668 0.0
O157 O 0.97715 0.89987 0.30046 0.0
O158 O 0.99561 0.81676 0.13434 0.0
O159 O 1.01538 0.8713 0.14219 0.0
Co160 Co 0.25503 0.25436 0.17184 0.0
Co161 Co 0.2343 0.21039 0.32243 0.0
Co162 Co 0.18344 0.19522 0.21439 0.0
H163 H 0.22026 0.22618 0.21282 0.0
O164 O 0.22504 0.23548 0.25217 0.0
H165 H 0.20046 0.17864 0.31359 0.0
O166 O 0.19701 0.17058 0.27352 0.0
Co167 Co 0.16546 0.14838 0.3455 0.0
O168 O 0.19064 0.14157 0.41914 0.0
O169 O 0.24232 0.18257 0.3942 0.0
O170 O 0.13871 0.16813 0.3097 0.0
O171 O 0.13771 0.15689 0.20321 0.0
O172 O 0.27112 0.28196 0.08289 0.0
O173 O 0.28562 0.30563 0.17457 0.0
O174 O 0.15831 0.17775 0.40718 0.0
O175 O 0.20826 0.22274 0.39116 0.0
C176 C 0.18748 0.23891 0.10483 0.0
C177 C 0.2988 0.26925 0.30811 0.0
C178 C 0.14056 0.08878 0.32072 0.0
C179 C 0.23007 0.18524 0.12087 0.0
C180 C 0.22191 0.1564 0.42827 0.0
C181 C 0.12194 0.15417 0.25743 0.0
C182 C 0.28746 0.30957 0.11183 0.0
C183 C 0.17925 0.20788 0.41931 0.0
O184 O 0.21937 0.2515 0.10058 0.0
O185 O 0.17101 0.22035 0.15344 0.0
O186 O 0.27501 0.25068 0.34773 0.0
O187 O 0.29479 0.27083 0.24344 0.0
O188 O 0.14721 0.10109 0.37883 0.0
O189 O 0.14858 0.11042 0.27629 0.0
O190 O 0.25555 0.21304 0.13669 0.0
O191 O 0.20074 0.17859 0.13837 0.0
Co192 Co 0.81602 0.35009 0.04046 0.0
Co193 Co 0.86403 0.38086 0.17059 0.0
Co194 Co 0.87913 0.34485 0.06352 0.0
H195 H 0.84699 0.3463 0.07228 0.0
O196 O 0.83917 0.34198 0.1125 0.0
H197 H 0.89478 0.37478 0.17317 0.0
O198 O 0.90417 0.37917 0.13403 0.0
Co199 Co 0.92283 0.36817 0.21477 0.0
O200 O 0.91925 0.40067 0.28567 0.0
O201 O 0.88977 0.41906 0.23018 0.0
O202 O 0.9419 0.34804 0.14144 0.0
O203 O 0.91955 0.3449 0.03809 0.0
O204 O 0.76782 0.32818 1.00991 0.0
O205 O 0.77901 0.32905 0.11153 0.0
O206 O 0.88096 0.32655 0.24972 0.0
O207 O 0.8474 0.34777 0.24761 0.0
C208 C 0.82462 0.30196 0.9587 0.0
C209 C 0.82274 0.40043 0.12566 0.0
C210 C 0.97786 0.39017 0.27589 0.0
C211 C 0.87549 0.39588 0.96493 0.0
C212 C 0.90765 0.42071 0.27995 0.0
C213 C 0.94038 0.34264 0.07661 0.0
C214 C 0.75652 0.32093 0.06862 0.0
C215 C 0.85334 0.32472 0.26522 0.0
O216 O 0.80839 0.31674 0.96983 0.0
O217 O 0.85193 0.30945 0.99044 0.0
O218 O 0.82571 0.38846 0.18109 0.0
O219 O 0.83679 0.39683 0.0747 0.0
O220 O 0.95039 0.38069 0.30421 0.0
O221 O 0.97384 0.38663 0.21324 0.0
O222 O 0.84464 0.38443 0.97382 0.0
O223 O 0.89147 0.38383 0.99647 0.0
Co224 Co 0.72119 0.49789 0.03667 0.0
Co225 Co 0.69115 0.51489 0.16645 0.0
Co226 Co 0.72669 0.566 0.05975 0.0
H227 H 0.72548 0.53266 0.06865 0.0
O228 O 0.73011 0.52934 0.10879 0.0
H229 H 0.69668 0.55148 0.16933 0.0
O230 O 0.69233 0.5564 0.13009 0.0
Co231 Co 0.70232 0.58577 0.21114 0.0
O232 O 0.66822 0.54897 0.27983 0.0
O233 O 0.6525 0.50157 0.22437 0.0
O234 O 0.72405 0.62548 0.13849 0.0
O235 O 0.72613 0.606 0.03486 0.0
O236 O 0.7428 0.47132 1.0074 0.0
O237 O 0.74368 0.48383 0.10822 0.0
O238 O 0.74426 0.58658 0.24682 0.0
O239 O 0.72383 0.53187 0.24459 0.0
C240 C 0.76745 0.55367 0.95124 0.0
C241 C 0.6715 0.45409 0.12187 0.0
C242 C 0.67795 0.61679 0.2714 0.0
C243 C 0.67538 0.51121 0.96139 0.0
C244 C 0.64894 0.51716 0.27295 0.0
C245 C 0.72961 0.62946 0.07363 0.0
C246 C 0.75118 0.46871 0.06612 0.0
C247 C 0.7464 0.56111 0.26279 0.0
O248 O 0.75195 0.52263 0.96185 0.0
O249 O 0.76175 0.57404 0.98574 0.0
O250 O 0.6841 0.46931 0.17692 0.0
O251 O 0.67447 0.47142 0.07082 0.0
O252 O 0.69613 0.60731 0.29894 0.0
O253 O 0.67433 0.60908 0.2101 0.0
O254 O 0.68664 0.49175 0.97031 0.0
O255 O 0.68756 0.53923 0.99292 0.0
Co256 Co 0.57044 0.25498 0.03661 0.0
Co257 Co 0.5551 0.20974 0.16892 0.0
Co258 Co 0.50315 0.19057 0.06063 0.0
H259 H 0.5361 0.22354 0.06846 0.0
O260 O 0.53921 0.23191 0.10819 0.0
H261 H 0.51893 0.17759 0.17239 0.0
O262 O 0.51425 0.16782 0.13346 0.0
Co263 Co 0.48516 0.1483 0.21488 0.0
O264 O 0.52216 0.15242 0.28416 0.0
O265 O 0.56976 0.1871 0.23204 0.0
O266 O 0.44534 0.12916 0.14266 0.0
O267 O 0.46315 0.14868 0.03699 0.0
O268 O 0.5968 0.30288 1.0057 0.0
O269 O 0.58521 0.29208 0.10701 0.0
O270 O 0.48381 0.18808 0.25629 0.0
O271 O 0.53721 0.22685 0.24262 0.0
C272 C 0.51289 0.24307 0.953 0.0
C273 C 0.61599 0.25192 0.12329 0.0
C274 C 0.45307 0.09345 0.27627 0.0
C275 C 0.55901 0.19623 0.96237 0.0
C276 C 0.55428 0.16739 0.27997 0.0
C277 C 0.44037 0.1292 0.07789 0.0
C278 C 0.60021 0.31432 0.06423 0.0
C279 C 0.50811 0.21752 0.26607 0.0
O280 O 0.5439 0.26023 0.96437 0.0
O281 O 0.49352 0.21603 0.98588 0.0
O282 O 0.60037 0.24944 0.17765 0.0
O283 O 0.59903 0.23731 0.07169 0.0
O284 O 0.46241 0.12139 0.30229 0.0
O285 O 0.46164 0.09681 0.2155 0.0
O286 O 0.57733 0.22724 0.97033 0.0
O287 O 0.53117 0.17938 0.99444 0.0
Co288 Co 0.48432 0.36675 0.50625 0.0
Co289 Co 0.52717 0.38992 0.65935 0.0
Co290 Co 0.54524 0.35753 0.55007 0.0
H291 H 0.51337 0.36176 0.54807 0.0
O292 O 0.50363 0.35646 0.58688 0.0
H293 H 0.55949 0.38821 0.65176 0.0
O294 O 0.56814 0.39444 0.61251 0.0
Co295 Co 0.58946 0.38182 0.68065 0.0
O296 O 0.59493 0.41358 0.75494 0.0
O297 O 0.55366 0.42437 0.73306 0.0
O298 O 0.58116 0.33785 0.64509 0.0
O299 O 0.58459 0.35217 0.5378 0.0
O300 O 0.45443 0.36588 0.42628 0.0
O301 O 0.43453 0.33112 0.50194 0.0
O302 O 0.55894 0.34466 0.7397 0.0
O303 O 0.51441 0.35064 0.72567 0.0
C304 C 0.50102 0.31597 0.44009 0.0
C305 C 0.46637 0.39285 0.64231 0.0
C306 C 0.6471 0.40891 0.64049 0.0
C307 C 0.55284 0.41305 0.45441 0.0
C308 C 0.57991 0.42967 0.7662 0.0
C309 C 0.58737 0.33469 0.58403 0.0
C310 C 0.42858 0.34076 0.44739 0.0
C311 C 0.52879 0.33556 0.75161 0.0
O312 O 0.48716 0.33399 0.43586 0.0
O313 O 0.52144 0.32021 0.48673 0.0
O314 O 0.48594 0.38948 0.68299 0.0
O315 O 0.46601 0.38788 0.57766 0.0
O316 O 0.63541 0.38636 0.68408 0.0
O317 O 0.62635 0.41692 0.62155 0.0
O318 O 0.5236 0.40808 0.46533 0.0
O319 O 0.56216 0.39315 0.47697 0.0
Co320 Co 0.7046 0.1498 0.50692 0.0
Co321 Co 0.6804 0.17086 0.65745 0.0
Co322 Co 0.71782 0.22094 0.55088 0.0
H323 H 0.71116 0.18411 0.54936 0.0
O324 O 0.71497 0.17893 0.58884 0.0
H325 H 0.68324 0.2054 0.6474 0.0
O326 O 0.67888 0.20811 0.60667 0.0
Co327 Co 0.68858 0.24189 0.67397 0.0
O328 O 0.65772 0.21684 0.7505 0.0
O329 O 0.64527 0.16435 0.72827 0.0
O330 O 0.73425 0.27835 0.64507 0.0
O331 O 0.72638 0.26665 0.53603 0.0
O332 O 0.71083 0.12927 0.41818 0.0
O333 O 0.73073 0.12431 0.50704 0.0
O334 O 0.72406 0.24757 0.73788 0.0
O335 O 0.71867 0.19719 0.72616 0.0
C336 C 0.75675 0.21721 0.44143 0.0
C337 C 0.67775 0.10695 0.64567 0.0
C338 C 0.65561 0.26514 0.6261 0.0
C339 C 0.66134 0.17543 0.45557 0.0
C340 C 0.64087 0.18571 0.76173 0.0
C341 C 0.74246 0.28663 0.58383 0.0
C342 C 0.72753 0.1179 0.4451 0.0
C343 C 0.73291 0.22657 0.75253 0.0
O344 O 0.73593 0.18577 0.43427 0.0
O345 O 0.75649 0.23252 0.49389 0.0
O346 O 0.67891 0.12962 0.68434 0.0
O347 O 0.68425 0.11125 0.58127 0.0
O348 O 0.68546 0.28233 0.6435 0.0
O349 O 0.64393 0.23499 0.63915 0.0
O350 O 0.66287 0.14958 0.4712 0.0
O351 O 0.68487 0.20438 0.4728 0.0
Co352 Co 0.92021 0.58595 0.50538 0.0
Co353 Co 0.90268 0.54275 0.65824 0.0
Co354 Co 0.8505 0.52554 0.55245 0.0
H355 H 0.88667 0.55726 0.54897 0.0
O356 O 0.89191 0.5668 0.58803 0.0
H357 H 0.86963 0.50985 0.64886 0.0
O358 O 0.86668 0.50235 0.60841 0.0
Co359 Co 0.83493 0.47751 0.67753 0.0
O360 O 0.85987 0.47465 0.7563 0.0
O361 O 0.91145 0.51605 0.73134 0.0
O362 O 0.79555 0.48131 0.65033 0.0
O363 O 0.80538 0.4858 0.54019 0.0
O364 O 0.93719 0.61194 0.41457 0.0
O365 O 0.94824 0.6376 0.50404 0.0
O366 O 0.82533 0.50655 0.73605 0.0
O367 O 0.87461 0.55316 0.725 0.0
C368 C 0.85094 0.56803 0.44397 0.0
C369 C 0.96512 0.60422 0.64178 0.0
C370 C 0.81865 0.42242 0.63087 0.0
C371 C 0.89679 0.51703 0.45586 0.0
C372 C 0.89108 0.49027 0.7665 0.0
C373 C 0.78521 0.47637 0.58983 0.0
C374 C 0.95148 0.64027 0.44117 0.0
C375 C 0.84485 0.53701 0.74946 0.0
O376 O 0.88285 0.58176 0.43722 0.0
O377 O 0.83598 0.54976 0.49408 0.0
O378 O 0.9429 0.58433 0.68329 0.0
O379 O 0.95975 0.60455 0.57735 0.0
O380 O 0.81927 0.42825 0.6928 0.0
O381 O 0.82735 0.44761 0.59573 0.0
O382 O 0.92201 0.54532 0.4699 0.0
O383 O 0.86754 0.51004 0.47436 0.0
Co384 Co 0.48378 0.68741 0.36886 0.0
Co385 Co 0.53004 0.71497 0.5016 0.0
Co386 Co 0.54471 0.6788 0.39467 0.0
H387 H 0.51324 0.68159 0.40202 0.0
O388 O 0.50489 0.67697 0.44178 0.0
H389 H 0.56065 0.70849 0.50466 0.0
O390 O 0.56994 0.7128 0.46538 0.0
Co391 Co 0.58917 0.70241 0.5462 0.0
O392 O 0.58782 0.73681 0.61566 0.0
O393 O 0.55577 0.75267 0.56222 0.0
O394 O 0.60695 0.68046 0.47362 0.0
O395 O 0.5847 0.67779 0.37048 0.0
O396 O 0.43593 0.67111 0.3401 0.0
O397 O 0.44687 0.6658 0.43951 0.0
O398 O 0.54762 0.66168 0.58392 0.0
O399 O 0.51196 0.68055 0.57707 0.0
C400 C 0.49044 0.63733 0.28886 0.0
C401 C 0.49394 0.73896 0.45426 0.0
C402 C 0.64423 0.72432 0.6072 0.0
C403 C 0.54296 0.72892 0.29064 0.0
C404 C 0.57535 0.75611 0.61002 0.0
C405 C 0.60488 0.67443 0.40891 0.0
C406 C 0.42462 0.66093 0.398 0.0
C407 C 0.51924 0.65864 0.59704 0.0
O408 O 0.47535 0.65341 0.29862 0.0
O409 O 0.51705 0.64352 0.32194 0.0
O410 O 0.4929 0.72442 0.50936 0.0
O411 O 0.50777 0.73384 0.40479 0.0
O412 O 0.61676 0.71483 0.63554 0.0
O413 O 0.6402 0.72087 0.54452 0.0
O414 O 0.51207 0.71802 0.29694 0.0
O415 O 0.55831 0.71756 0.32654 0.0
Co416 Co 0.38757 0.83207 0.36942 0.0
Co417 Co 0.35716 0.84757 0.5 0.0
Co418 Co 0.39142 0.89956 0.39379 0.0
H419 H 0.39089 0.86646 0.40159 0.0
O420 O 0.39582 0.86318 0.44147 0.0
H421 H 0.36167 0.88378 0.50356 0.0
O422 O 0.35689 0.88867 0.46465 0.0
Co423 Co 0.36704 0.9178 0.54617 0.0
O424 O 0.33454 0.88089 0.61576 0.0
O425 O 0.31925 0.83343 0.56065 0.0
O426 O 0.38808 0.95775 0.47503 0.0
O427 O 0.39024 0.93966 0.36989 0.0
O428 O 0.41754 0.81442 0.33853 0.0
O429 O 0.41026 0.81823 0.44074 0.0
O430 O 0.40935 0.91947 0.5821 0.0
O431 O 0.39074 0.86514 0.57658 0.0
C432 C 0.43292 0.88899 0.28502 0.0
C433 C 0.33961 0.78549 0.45578 0.0
C434 C 0.34369 0.94916 0.60823 0.0
C435 C 0.33932 0.84337 0.2985 0.0
C436 C 0.31639 0.84892 0.61037 0.0
C437 C 0.39347 0.96253 0.4104 0.0
C438 C 0.42399 0.80968 0.39749 0.0
C439 C 0.41255 0.89442 0.59618 0.0
O440 O 0.4175 0.8578 0.29397 0.0
O441 O 0.42696 0.90884 0.32059 0.0
O442 O 0.35173 0.80237 0.50958 0.0
O443 O 0.34134 0.80091 0.40228 0.0
O444 O 0.36419 0.94194 0.63284 0.0
O445 O 0.33693 0.93889 0.54857 0.0
O446 O 0.35015 0.82367 0.30937 0.0
O447 O 0.35261 0.87239 0.32637 0.0
Co448 Co 0.24128 0.58794 0.3675 0.0
Co449 Co 0.22346 0.54322 0.49954 0.0
Co450 Co 0.17154 0.52629 0.39308 0.0
H451 H 0.20575 0.55824 0.39964 0.0
O452 O 0.20918 0.5668 0.43921 0.0
H453 H 0.18692 0.51167 0.50339 0.0
O454 O 0.18177 0.50221 0.46419 0.0
Co455 Co 0.15337 0.48238 0.54653 0.0
O456 O 0.19004 0.48705 0.617 0.0
O457 O 0.23714 0.51939 0.56142 0.0
O458 O 0.11393 0.46233 0.47371 0.0
O459 O 0.13048 0.4855 0.36988 0.0
O460 O 0.28202 0.63328 0.34976 0.0
O461 O 0.25268 0.6258 0.43425 0.0
O462 O 0.15278 0.52247 0.58787 0.0
O463 O 0.2063 0.56102 0.5739 0.0
C464 C 0.18316 0.58058 0.28963 0.0
C465 C 0.28407 0.58057 0.45336 0.0
C466 C 0.12129 0.4279 0.60947 0.0
C467 C 0.22356 0.52906 0.28797 0.0
C468 C 0.22201 0.50112 0.61131 0.0
C469 C 0.10873 0.46385 0.40952 0.0
C470 C 0.27799 0.64595 0.40221 0.0
C471 C 0.17722 0.55181 0.59773 0.0
O472 O 0.2143 0.59644 0.30084 0.0
O473 O 0.16301 0.55311 0.32028 0.0
O474 O 0.26952 0.58162 0.50696 0.0
O475 O 0.26587 0.56608 0.40303 0.0
O476 O 0.13639 0.45605 0.63672 0.0
O477 O 0.12414 0.43082 0.54655 0.0
O478 O 0.24315 0.56001 0.29403 0.0
O479 O 0.19713 0.51334 0.3246 0.0
Co480 Co 0.15029 0.69928 0.83923 0.0
Co481 Co 0.19411 0.72398 0.99027 0.0
Co482 Co 0.20972 0.68808 0.88455 0.0
H483 H 0.17858 0.69344 0.88177 0.0
O484 O 0.16917 0.68918 0.92085 0.0
H485 H 0.22649 0.72228 0.9821 0.0
O486 O 0.23419 0.727 0.94185 0.0
Co487 Co 0.25767 0.71762 1.01104 0.0
O488 O 0.26272 0.74893 0.08546 0.0
O489 O 0.22129 0.75928 0.06226 0.0
O490 O 0.24859 0.67262 0.98234 0.0
O491 O 0.24844 0.68132 0.87265 0.0
O492 O 0.09944 0.68259 0.83657 0.0
O493 O 0.12378 0.68411 0.74897 0.0
O494 O 0.22807 0.68239 0.07575 0.0
O495 O 0.18225 0.68589 0.05836 0.0
C496 C 0.16623 0.64711 0.7757 0.0
C497 C 0.13283 0.72632 0.97516 0.0
C498 C 0.31435 0.74546 0.9637 0.0
C499 C 0.21919 0.74384 0.78995 0.0
C500 C 0.24742 0.76478 0.09605 0.0
C501 C 0.25286 0.66639 0.92199 0.0
C502 C 0.09619 0.67674 0.77439 0.0
C503 C 0.19762 0.67247 0.08698 0.0
O504 O 0.15436 0.66686 0.76902 0.0
O505 O 0.1842 0.64931 0.82574 0.0
O506 O 0.15338 0.7242 1.01516 0.0
O507 O 0.13146 0.72005 0.91082 0.0
O508 O 0.30311 0.72079 1.00206 0.0
O509 O 0.29394 0.75522 0.95458 0.0
O510 O 0.19152 0.7416 0.80612 0.0
O511 O 0.22562 0.721 0.80685 0.0
Co512 Co 0.3715 0.48304 0.83862 0.0
Co513 Co 0.3467 0.50311 0.98818 0.0
Co514 Co 0.38498 0.55415 0.88283 0.0
H515 H 0.37848 0.5174 0.88111 0.0
O516 O 0.38211 0.51202 0.92058 0.0
H517 H 0.34916 0.53705 0.97828 0.0
O518 O 0.3454 0.54048 0.93758 0.0
Co519 Co 0.35353 0.57237 1.00785 0.0
O520 O 0.32138 0.54757 0.08148 0.0
O521 O 0.31027 0.49569 0.05764 0.0
O522 O 0.40049 0.6038 0.97929 0.0
O523 O 0.39273 0.59966 0.86981 0.0
O524 O 0.38019 0.46544 0.74861 0.0
O525 O 0.39427 0.45436 0.83879 0.0
O526 O 0.38969 0.57964 0.0712 0.0
O527 O 0.38432 0.52934 0.05842 0.0
C528 C 0.42416 0.55065 0.77364 0.0
C529 C 0.34486 0.43975 0.97659 0.0
C530 C 0.31806 0.59369 0.96591 0.0
C531 C 0.32877 0.50908 0.78748 0.0
C532 C 0.30464 0.51638 0.09089 0.0
C533 C 0.40462 0.61756 0.92231 0.0
C534 C 0.39381 0.45097 0.77597 0.0
C535 C 0.39856 0.55864 0.08528 0.0
O536 O 0.40305 0.51926 0.76667 0.0
O537 O 0.42392 0.56634 0.8256 0.0
O538 O 0.34543 0.46216 1.01502 0.0
O539 O 0.35158 0.44419 0.91231 0.0
O540 O 0.32204 0.59015 0.02729 0.0
O541 O 0.33392 0.58506 0.92851 0.0
O542 O 0.3297 0.48304 0.8041 0.0
O543 O 0.35269 0.5379 0.80398 0.0
Co544 Co 0.58665 0.92106 0.84107 0.0
Co545 Co 0.56748 0.87681 0.9928 0.0
Co546 Co 0.51706 0.85693 0.88215 0.0
H547 H 0.55265 0.89024 0.88133 0.0
O548 O 0.55636 0.89959 0.92055 0.0
H549 H 0.53372 0.84424 0.98513 0.0
O550 O 0.53169 0.83543 0.94612 0.0
Co551 Co 0.49754 0.81396 1.01363 0.0
O552 O 0.52457 0.80895 0.08698 0.0
O553 O 0.57649 0.8506 0.06542 0.0
O554 O 0.45876 0.81585 0.97336 0.0
O555 O 0.47333 0.81593 0.86679 0.0
O556 O 0.60153 0.94893 0.75225 0.0
O557 O 0.61799 0.97237 0.84365 0.0
O558 O 0.4895 0.84446 0.06966 0.0
O559 O 0.54059 0.88859 0.06006 0.0
C560 C 0.51823 0.90107 0.773 0.0
C561 C 0.63083 0.9381 0.9773 0.0
C562 C 0.46945 0.75569 0.97931 0.0
C563 C 0.56781 0.85287 0.78893 0.0
C564 C 0.55582 0.82402 0.09779 0.0
C565 C 0.45109 0.80924 0.91148 0.0
C566 C 0.61884 0.97645 0.78098 0.0
C567 C 0.51066 0.87427 0.08372 0.0
O568 O 0.55032 0.91872 0.77272 0.0
O569 O 0.50276 0.87861 0.81639 0.0
O570 O 0.60767 0.91834 1.01709 0.0
O571 O 0.62633 0.93923 0.91276 0.0
O572 O 0.45996 0.76662 0.02716 0.0
O573 O 0.49555 0.77775 0.95227 0.0
O574 O 0.59076 0.88292 0.79889 0.0
O575 O 0.5383 0.84171 0.81176 0.0
C576 C 0.10984 0.11525 0.80688 0.0
C577 C 0.10713 0.12451 0.74071 0.0
C578 C 0.12605 0.09724 0.82004 0.0
C579 C 0.14009 0.08826 0.76736 0.0
H580 H 0.09886 0.12142 0.84848 0.0
H581 H 0.12755 0.09036 0.87142 0.0
S582 S 0.13997 0.10787 0.5849 0.0
N583 N 0.12023 0.12442 0.62269 0.0
N584 N 0.1501 0.09059 0.64574 0.0
C585 C 0.13759 0.09789 0.70086 0.0
C586 C 0.12126 0.11605 0.68795 0.0
C587 C 1.00669 0.06833 0.75224 0.0
C588 C 0.99519 0.0822 0.80052 0.0
C589 C 0.98873 0.03481 0.73644 0.0
C590 C 0.95848 1.0138 0.76838 0.0
H591 H 1.02845 0.08388 0.72248 0.0
H592 H 0.998 0.0257 0.69663 0.0
S593 S 0.92039 0.037 0.90677 0.0
N594 N 0.95399 0.07217 0.88601 0.0
N595 N 0.91987 1.00816 0.85732 0.0
C596 C 0.94806 0.02666 0.82125 0.0
C597 C 0.96659 0.06118 0.83726 0.0
C598 C 1.01005 0.97404 0.81167 0.0
C599 C 0.99141 0.93937 0.81662 0.0
C600 C 0.04332 0.98993 0.79119 0.0
C601 C 0.05904 0.97156 0.77677 0.0
H602 H 0.99809 0.98865 0.81786 0.0
H603 H 0.05632 1.01655 0.7837 0.0
S604 S 1.02225 0.88061 0.7937 0.0
N605 N 0.99167 0.8875 0.81301 0.0
N606 N 0.05484 0.91738 0.77791 0.0
C607 C 0.04166 0.93724 0.78883 0.0
C608 C 1.00761 0.9211 0.80816 0.0
C609 C 0.93674 0.93124 0.27232 0.0
C610 C 0.97159 0.94721 0.27391 0.0
C611 C 0.92065 0.94877 0.25479 0.0
C612 C 0.93891 0.98239 0.23637 0.0
H613 H 0.92193 0.9059 0.28975 0.0
H614 H 0.89394 0.9368 0.26117 0.0
S615 S 0.03025 0.03294 0.21791 0.0
N616 N 1.02366 0.9968 0.24603 0.0
N617 N 0.99314 0.0293 0.21042 0.0
C618 C 0.97348 0.99738 0.23034 0.0
C619 C 0.98995 0.97988 0.24997 0.0
C620 C 0.11614 0.04064 0.24059 0.0
C621 C 0.12305 0.05297 0.30706 0.0
C622 C 0.0987 1.00634 0.22769 0.0
C623 C 0.08767 0.98352 0.28098 0.0
H624 H 0.12423 0.05756 0.19833 0.0
H625 H 0.09404 0.9977 0.17603 0.0
S626 S 0.09863 1.00394 0.46461 0.0
N627 N 0.117 0.04009 0.42631 0.0
N628 N 0.08434 0.97633 0.40345 0.0
C629 C 0.09429 0.99595 0.34781 0.0
C630 C 0.11196 0.03052 0.36051 0.0
C631 C 0.0628 0.12793 0.21932 0.0
C632 C 0.08637 0.13055 0.26678 0.0
C633 C 1.02881 0.11076 0.23519 0.0
C634 C 1.01767 0.09534 0.29831 0.0
H635 H 0.07074 0.14059 0.17144 0.0
H636 H 1.01123 0.10993 0.19827 0.0
S637 S 0.06945 0.0929 0.43768 0.0
N638 N 0.09595 0.11509 0.37824 0.0
N639 N 0.03253 0.08203 0.40638 0.0
C640 C 0.0409 0.09645 0.34455 0.0
C641 C 0.07519 0.11424 0.3291 0.0
C642 C 0.79451 0.4314 0.16476 0.0
C643 C 0.80023 0.41369 0.11443 0.0
C644 C 0.77798 0.44891 0.14938 0.0
C645 C 0.7667 0.44894 0.08345 0.0
H646 H 0.80416 0.43303 0.21514 0.0
H647 H 0.77483 0.46318 0.1888 0.0
S648 S 0.7718 0.40299 0.93587 0.0
N649 N 0.79065 0.39517 0.99731 0.0
N650 N 0.75944 0.42727 0.96966 0.0
C651 C 0.77061 0.42981 0.03401 0.0
C652 C 0.78741 0.41234 0.04924 0.0
C653 C 0.64103 0.3952 0.16212 0.0
C654 C 0.65806 0.41833 0.11105 0.0
C655 C 0.6229 0.36115 0.14721 0.0
C656 C 0.62114 0.34957 0.08089 0.0
H657 H 0.64043 0.40348 0.21281 0.0
H658 H 0.60957 0.34392 0.18741 0.0
S659 S 0.66614 0.39962 0.93186 0.0
N660 N 0.67542 0.42663 0.99332 0.0
N661 N 0.6414 0.36325 0.96617 0.0
C662 C 0.63996 0.37224 0.03076 0.0
C663 C 0.6584 0.40653 0.04568 0.0
C664 C 0.70919 0.29484 0.15049 0.0
C665 C 0.72111 0.3062 0.085 0.0
C666 C 0.67498 0.27897 0.16478 0.0
C667 C 0.65201 0.27405 0.11377 0.0
H668 H 0.72623 0.29731 0.19031 0.0
H669 H 0.66642 0.26912 0.21475 0.0
S670 S 0.67148 0.30318 0.93627 0.0
N671 N 0.70781 0.31458 0.97111 0.0
N672 N 0.64417 0.28445 0.99667 0.0
C673 C 0.66413 0.28701 0.04913 0.0
C674 C 0.69856 0.30316 0.03501 0.0
C675 C 0.58499 0.28153 0.60322 0.0
C676 C 0.60065 0.31268 0.57148 0.0
C677 C 0.6023 0.26476 0.61595 0.0
C678 C 0.63596 0.27917 0.59879 0.0
H679 H 0.56007 0.27137 0.62316 0.0
H680 H 0.59007 0.24185 0.64432 0.0
S681 S 0.68565 0.35653 0.50152 0.0
N682 N 0.64941 0.35437 0.51259 0.0
N683 N 0.68247 0.32331 0.53841 0.0
C684 C 0.65075 0.30861 0.56106 0.0
C685 C 0.63285 0.32527 0.54664 0.0
C686 C 0.77879 0.37694 0.55622 0.0
C687 C 0.80524 0.38918 0.60263 0.0
C688 C 0.76095 0.34303 0.5402 0.0
C689 C 0.76882 0.3209 0.57149 0.0
H690 H 0.77045 0.39312 0.53601 0.0
H691 H 0.73942 0.33375 0.50791 0.0
S692 S 0.84353 0.34325 0.6748 0.0
N693 N 0.84373 0.37854 0.66495 0.0
N694 N 0.81054 0.31493 0.63344 0.0
C695 C 0.79834 0.33388 0.60897 0.0
C696 C 0.81632 0.36811 0.62564 0.0
C697 C 0.73424 0.42546 0.61832 0.0
C698 C 0.74944 0.45506 0.58129 0.0
C699 C 0.70069 0.41005 0.63481 0.0
C700 C 0.68112 0.4236 0.61434 0.0
H701 H 0.74901 0.41555 0.63928 0.0
H702 H 0.69043 0.38812 0.66619 0.0
S703 S 0.70831 0.49811 0.50747 0.0
N704 N 0.74225 0.49564 0.51848 0.0
N705 N 0.67831 0.46607 0.54778 0.0
C706 C 0.69531 0.45159 0.57198 0.0
C707 C 0.72979 0.46746 0.55561 0.0
C708 C 0.45858 0.76289 0.49194 0.0
C709 C 0.47715 0.75831 0.44174 0.0
C710 C 0.44194 0.78041 0.47803 0.0
C711 C 0.44332 0.79359 0.41352 0.0
H712 H 0.45657 0.75261 0.54173 0.0
H713 H 0.42735 0.78301 0.51752 0.0
S714 S 0.48937 0.78985 0.26515 0.0
N715 N 0.49663 0.76985 0.32499 0.0
N716 N 0.46523 0.80204 0.30016 0.0
C717 C 0.46216 0.78974 0.36353 0.0
C718 C 0.47913 0.77227 0.37733 0.0
C719 C 0.31067 0.72689 0.4981 0.0
C720 C 0.32971 0.75019 0.44868 0.0
C721 C 0.29519 0.69274 0.48409 0.0
C722 C 0.29863 0.68114 0.42069 0.0
H723 H 0.30604 0.735 0.54593 0.0
H724 H 0.27953 0.67535 0.52219 0.0
S725 S 0.3499 0.73213 0.27807 0.0
N726 N 0.3537 0.75905 0.33627 0.0
N727 N 0.3256 0.6954 0.31156 0.0
C728 C 0.31983 0.70415 0.3733 0.0
C729 C 0.33507 0.73861 0.38689 0.0
C730 C 0.34224 0.62248 0.49018 0.0
C731 C 0.32035 0.60021 0.44169 0.0
C732 C 0.37633 0.64236 0.4761 0.0
C733 C 0.38913 0.64089 0.41282 0.0
H734 H 0.33302 0.62478 0.53875 0.0
H735 H 0.39266 0.65929 0.51439 0.0
S736 S 0.34339 0.58493 0.27077 0.0
N737 N 0.31512 0.57636 0.32924 0.0
N738 N 0.37842 0.61446 0.30338 0.0
C739 C 0.36781 0.61848 0.36466 0.0
C740 C 0.33358 0.59788 0.37903 0.0
C741 C 0.26812 0.59883 0.97345 0.0
C742 C 0.29806 0.60757 0.9411 0.0
C743 C 0.25116 0.61563 0.95924 0.0
C744 C 0.26402 0.64228 0.91372 0.0
H745 H 0.25856 0.57996 1.01225 0.0
H746 H 0.22928 0.60963 0.98851 0.0
S747 S 0.3398 0.67202 0.81023 0.0
N748 N 0.33828 0.64166 0.85592 0.0
N749 N 0.30663 0.67439 0.83108 0.0
C750 C 0.29246 0.64941 0.87667 0.0
C751 C 0.30958 0.63179 0.89028 0.0
C752 C 0.40608 0.66525 0.97699 0.0
C753 C 0.4164 0.65302 0.92315 0.0
C754 C 0.42305 0.6987 0.99334 0.0
C755 C 0.45089 0.72118 0.95621 0.0
H756 H 0.38588 0.64851 1.00942 0.0
H757 H 0.41494 0.70671 0.03697 0.0
S758 S 0.4835 0.70233 0.802 0.0
N759 N 0.4529 0.66594 0.82695 0.0
N760 N 0.48499 0.72985 0.85667 0.0
C761 C 0.45968 0.7098 0.89832 0.0
C762 C 0.44222 0.67537 0.88176 0.0
C763 C 0.3974 0.75762 0.90957 0.0
C764 C 0.41558 0.79168 0.89573 0.0
C765 C 0.36405 0.74246 0.92885 0.0
C766 C 0.34759 0.76077 0.93295 0.0
H767 H 0.40975 0.74326 0.91146 0.0
H768 H 0.3516 0.71664 0.94383 0.0
S769 S 0.38278 0.84942 0.88883 0.0
N770 N 0.41405 0.84244 0.87915 0.0
N771 N 0.35056 0.81362 0.9117 0.0
C772 C 0.36445 0.79398 0.91157 0.0
C773 C 0.3987 0.80954 0.89357 0.0
C774 C 0.226 0.08426 0.50445 0.0
C775 C 0.22516 0.08933 0.57417 0.0
C776 C 0.22997 0.10864 0.457 0.0
C777 C 0.23302 0.13922 0.47679 0.0
H778 H 0.22064 0.06017 0.48608 0.0
H779 H 0.22737 0.10216 0.40407 0.0
S780 S 0.23311 0.16525 0.65318 0.0
N781 N 0.22923 0.12813 0.6604 0.0
N782 N 0.23582 0.17321 0.57168 0.0
C783 C 0.23408 0.14529 0.54638 0.0
C784 C 0.23035 0.1206 0.59475 0.0
C785 C 0.94589 0.13762 0.59981 0.0
C786 C 0.977 0.16554 0.58394 0.0
C787 C 0.923 0.11776 0.54928 0.0
C788 C 0.93026 0.12476 0.48044 0.0
H789 H 0.94039 0.12941 0.65159 0.0
H790 H 0.90089 0.09505 0.56411 0.0
S791 S 1.00788 0.19494 0.41155 0.0
N792 N 1.01308 0.19945 0.49395 0.0
N793 N 0.97063 0.16223 0.39951 0.0
C794 C 0.96043 0.15363 0.46412 0.0
C795 C 0.98358 0.17397 0.51556 0.0
C796 C 0.93502 0.84306 0.60242 0.0
C797 C 0.90566 0.84366 0.58707 0.0
C798 C 0.95371 0.83832 0.55213 0.0
C799 C 0.94403 0.83412 0.48395 0.0
H800 H 0.9452 0.84916 0.65292 0.0
H801 H 0.97767 0.84138 0.56579 0.0
S802 S 0.86871 0.83264 0.41705 0.0
N803 N 0.86709 0.838 0.4989 0.0
N804 N 0.90225 0.82962 0.4046 0.0
C805 C 0.91357 0.83245 0.46871 0.0
C806 C 0.8944 0.83707 0.52006 0.0
C807 C 0.11665 0.20778 0.97791 0.0
C808 C 0.11144 0.23486 0.96777 0.0
C809 C 0.14315 0.21048 1.0175 0.0
C810 C 0.16644 0.24048 0.04881 0.0
H811 H 0.09954 0.18374 0.95647 0.0
H812 H 0.14461 0.18828 0.02611 0.0
S813 S 0.1657 0.31956 0.03782 0.0
N814 N 0.1334 0.29353 0.99171 0.0
N815 N 0.18277 0.29817 0.06612 0.0
C816 C 0.16241 0.26811 0.03774 0.0
C817 C 0.13521 0.26543 0.9973 0.0
C818 C 0.86254 0.96544 1.02185 0.0
C819 C 0.83236 0.95933 0.05111 0.0
C820 C 0.86485 0.94165 0.98186 0.0
C821 C 0.83713 0.90991 0.96937 0.0
H822 H 0.88515 0.98861 0.0323 0.0
H823 H 0.88905 0.94812 0.96205 0.0
S824 S 0.75176 0.8811 0.03376 0.0
N825 N 0.77383 0.91917 0.06409 0.0
N826 N 0.77776 0.87431 0.9891 0.0
C827 C 0.80641 0.90369 0.99698 0.0
C828 C 0.80413 0.92827 0.0377 0.0
C829 C 0.16534 0.93866 0.99786 0.0
C830 C 0.15813 0.96218 0.96876 0.0
C831 C 0.14191 0.91189 0.03828 0.0
C832 C 0.10985 0.90691 0.05088 0.0
H833 H 0.1897 0.94142 0.99103 0.0
H834 H 0.1495 0.89585 0.06216 0.0
S835 S 0.077 0.9595 0.98512 0.0
N836 N 0.11508 0.97691 0.95456 0.0
N837 N 0.07202 0.92743 0.02958 0.0
C838 C 0.10201 0.92953 1.02066 0.0
C839 C 0.1257 0.95673 0.97992 0.0
C840 C 0.84749 0.9217 0.49757 0.0
C841 C 0.84006 0.92525 0.56465 0.0
C842 C 0.85074 0.94448 0.44728 0.0
C843 C 0.84689 0.97212 0.46144 0.0
H844 H 0.85378 0.90287 0.48504 0.0
H845 H 0.8592 0.94203 0.39793 0.0
S846 S 0.82531 0.99173 0.62815 0.0
N847 N 0.82703 0.95761 0.64159 0.0
N848 N 0.83308 1.00026 0.54722 0.0
C849 C 0.83701 0.97457 0.5271 0.0
C850 C 0.83373 0.95129 0.57856 0.0
C851 C 0.1208 0.92887 0.45124 0.0
C852 C 0.09146 0.89987 0.47092 0.0
C853 C 0.14541 0.9493 0.49841 0.0
C854 C 0.14196 0.94166 0.56757 0.0
H855 H 0.12337 0.93747 0.39977 0.0
H856 H 0.16567 0.97293 0.4815 0.0
S857 S 0.07057 0.86807 0.64525 0.0
N858 N 0.06122 0.86403 0.56423 0.0
N859 N 0.10726 0.9021 0.65255 0.0
C860 C 0.11383 0.91157 0.58713 0.0
C861 C 0.08868 0.89082 0.53906 0.0
C862 C 0.13929 0.22712 0.44952 0.0
C863 C 0.1676 0.22491 0.46695 0.0
C864 C 0.11963 0.23122 0.49869 0.0
C865 C 0.12729 0.23326 0.56779 0.0
H866 H 0.13059 0.22277 0.39787 0.0
H867 H 0.09653 0.22959 0.48297 0.0
S868 S 0.19852 0.22874 0.64053 0.0
N869 N 0.20242 0.22575 0.55856 0.0
N870 N 0.16571 0.23323 0.65054 0.0
C871 C 0.15655 0.23291 0.58546 0.0
C872 C 0.1766 0.22881 0.53534 0.0
C873 C 0.94249 0.80959 0.04495 0.0
C874 C 0.96334 0.83868 0.08244 0.0
C875 C 0.91572 0.8066 1.00504 0.0
C876 C 0.90796 0.83222 1.00191 0.0
H877 H 0.94762 0.78933 0.04434 0.0
H878 H 0.90199 0.7847 0.97402 0.0
S879 S 0.95275 0.91265 0.0927 0.0
N880 N 0.97254 0.89303 0.11526 0.0
N881 N 0.92282 0.8872 0.04123 0.0
C882 C 0.92777 0.86081 0.0408 0.0
C883 C 0.9551 0.86406 0.08077 0.0
C884 C 0.20527 0.1307 0.05688 0.0
C885 C 0.23386 0.15966 0.07981 0.0
C886 C 0.20728 0.10683 1.01648 0.0
C887 C 0.23795 0.10996 0.99706 0.0
H888 H 0.18076 0.12661 0.06873 0.0
H889 H 0.18428 0.08594 0.9984 0.0
S890 S 0.32078 0.17979 0.04523 0.0
N891 N 0.29446 0.18913 0.08125 0.0
N892 N 0.29786 0.14412 1.0057 0.0
C893 C 0.26688 0.13805 1.0212 0.0
C894 C 0.26492 0.16279 0.06221 0.0
C895 C 0.96418 0.13406 1.01838 0.0
C896 C 0.96084 0.16122 0.99748 0.0
C897 C 0.94032 0.10834 0.05888 0.0
C898 C 0.91112 0.10773 0.08071 0.0
H899 H 0.98531 0.13212 1.00151 0.0
H900 H 0.94465 0.08824 0.07178 0.0
S901 S 0.8902 0.17337 0.04196 0.0
N902 N 0.9261 0.1863 1.00336 0.0
N903 N 0.88106 0.13811 0.07931 0.0
C904 C 0.90768 0.13522 0.06156 0.0
C905 C 0.93245 0.1618 1.02031 0.0
C906 C 0.90298 0.42518 0.85576 0.0
C907 C 0.89232 0.42641 0.92158 0.0
C908 C 0.90759 0.44933 0.80677 0.0
C909 C 0.90194 0.47582 0.82155 0.0
H910 H 0.90476 0.40384 0.84015 0.0
H911 H 0.91241 0.44534 0.75527 0.0
S912 S 0.87508 0.49107 0.98681 0.0
N913 N 0.87804 0.4576 0.99918 0.0
N914 N 0.88626 0.50204 0.90792 0.0
C915 C 0.89344 0.47837 0.88827 0.0
C916 C 0.88875 0.45398 0.93785 0.0
C917 C 0.59321 0.44682 0.8866 0.0
C918 C 0.59591 0.45621 0.81857 0.0
C919 C 0.61724 0.46714 0.93471 0.0
C920 C 0.64523 0.49783 0.91721 0.0
H921 H 0.57404 0.42222 0.90161 0.0
H922 H 0.61542 0.45736 0.98496 0.0
S923 S 0.66341 0.53463 0.74656 0.0
N924 N 0.62822 0.49914 0.73697 0.0
N925 N 0.67315 0.53717 0.82724 0.0
C926 C 0.64707 0.50854 0.85043 0.0
C927 C 0.62254 0.48779 0.80127 0.0
C928 C 0.58282 0.16778 0.80267 0.0
C929 C 0.61578 0.17565 0.81701 0.0
C930 C 0.56225 0.17022 0.85251 0.0
C931 C 0.57387 0.18068 0.91868 0.0
H932 H 0.57387 0.16255 0.75124 0.0
H933 H 0.53835 0.16688 0.83749 0.0
S934 S 0.65765 0.20271 0.98273 0.0
N935 N 0.65824 0.19293 0.90303 0.0
N936 N 0.62007 0.19702 0.99597 0.0
C937 C 0.60598 0.18639 0.93429 0.0
C938 C 0.62678 0.18407 0.8838 0.0
C939 C 0.77347 0.53616 0.33391 0.0
C940 C 0.77521 0.56467 0.30534 0.0
C941 C 0.79896 0.53793 0.37515 0.0
C942 C 0.82813 0.56822 0.39 0.0
H943 H 0.75175 0.51199 0.32575 0.0
H944 H 0.79536 0.51506 0.39704 0.0
S945 S 0.84681 0.65047 0.32585 0.0
N946 N 0.80988 0.62461 0.29343 0.0
N947 N 0.85773 0.62757 0.37067 0.0
C948 C 0.83102 0.59696 0.36029 0.0
C949 C 0.80466 0.59528 0.31841 0.0
C950 C 0.48245 0.25662 0.40832 0.0
C951 C 0.49593 0.29008 0.38855 0.0
C952 C 0.48512 0.23305 0.3675 0.0
C953 C 0.50268 0.24209 0.3061 0.0
H954 H 0.47077 0.24883 0.45717 0.0
H955 H 0.47476 0.20791 0.38587 0.0
S956 S 0.54141 0.32604 0.22957 0.0
N957 N 0.52608 0.33035 0.30137 0.0
N958 N 0.53222 0.28689 0.22616 0.0
C959 C 0.51562 0.27529 0.28508 0.0
C960 C 0.51203 0.29899 0.32579 0.0
C961 C 0.80775 0.24142 0.36412 0.0
C962 C 0.77792 0.23965 0.38521 0.0
C963 C 0.83166 0.26843 0.32478 0.0
C964 C 0.82717 0.29526 0.30535 0.0
H965 H 0.81339 0.22264 0.38065 0.0
H966 H 0.85428 0.26864 0.31095 0.0
S967 S 0.75283 0.3022 0.3478 0.0
N968 N 0.74516 0.26693 0.38257 0.0
N969 N 0.78925 0.317 0.31058 0.0
C970 C 0.79694 0.29313 0.32527 0.0
C971 C 0.77275 0.2657 0.36456 0.0
C972 C 0.51203 0.27699 0.78221 0.0
C973 C 0.51126 0.30622 0.7977 0.0
C974 C 0.50696 0.25318 0.83182 0.0
C975 C 0.50104 0.25743 0.89964 0.0
H976 H 0.51945 0.27386 0.7323 0.0
H977 H 0.51121 0.23307 0.81824 0.0
S978 S 0.49521 0.32875 0.96676 0.0
N979 N 0.50228 0.33694 0.8856 0.0
N980 N 0.49327 0.29272 0.97861 0.0
C981 C 0.49794 0.28539 0.91481 0.0
C982 C 0.5029 0.30958 0.8641 0.0
C983 C 0.81336 0.28905 0.83735 0.0
C984 C 0.81056 0.2769 0.90316 0.0
C985 C 0.78967 0.27064 0.78739 0.0
C986 C 0.76209 0.23903 0.79976 0.0
H987 H 0.83205 0.31445 0.82623 0.0
H988 H 0.79129 0.28242 0.73994 0.0
S989 S 0.74455 0.19421 0.96192 0.0
N990 N 0.77887 0.22988 0.97693 0.0
N991 N 0.73496 0.19513 0.88209 0.0
C992 C 0.76037 0.22527 0.86364 0.0
C993 C 0.78441 0.24425 0.91534 0.0
C994 C 0.82458 0.56961 0.90905 0.0
C995 C 0.79233 0.56414 0.89536 0.0
C996 C 0.84354 0.56444 0.85945 0.0
C997 C 0.8308 0.55306 0.79426 0.0
H998 H 0.83397 0.57487 0.96018 0.0
H999 H 0.86691 0.5664 0.87414 0.0
S1000 S 0.74869 0.53674 0.73122 0.0
N1001 N 0.74975 0.54858 0.81004 0.0
N1002 N 0.7847 0.53871 0.71797 0.0
C1003 C 0.79958 0.54964 0.77893 0.0
C1004 C 0.7806 0.55521 0.82896 0.0
C1005 C 0.58069 0.13921 0.34657 0.0
C1006 C 0.57648 0.16679 0.33511 0.0
C1007 C 0.60752 0.14184 0.38625 0.0
C1008 C 0.63176 0.17229 0.41566 0.0
H1009 H 0.56408 0.1158 0.32228 0.0
H1010 H 0.60978 0.11996 0.39217 0.0
S1011 S 0.63085 0.25161 0.40352 0.0
N1012 N 0.59825 0.22515 0.35885 0.0
N1013 N 0.64776 0.23021 0.43223 0.0
C1014 C 0.62697 0.19969 0.40591 0.0
C1015 C 0.59976 0.19691 0.36607 0.0
C1016 C 0.93124 0.49927 0.38381 0.0
C1017 C 0.90101 0.49127 0.41641 0.0
C1018 C 0.9347 0.47572 0.34403 0.0
C1019 C 0.90839 0.44276 0.33631 0.0
H1020 H 0.95214 0.52431 0.38692 0.0
H1021 H 0.95763 0.48383 0.31669 0.0
S1022 S 0.82454 0.40797 0.41174 0.0
N1023 N 0.84451 0.44676 0.43848 0.0
N1024 N 0.85139 0.40341 0.36538 0.0
C1025 C 0.87859 0.43421 0.37027 0.0
C1026 C 0.87483 0.45804 0.40983 0.0
C1027 C 0.60616 0.4686 0.43455 0.0
C1028 C 0.57605 0.44169 0.41001 0.0
C1029 C 0.62854 0.49493 0.39186 0.0
C1030 C 0.62202 0.49527 0.32244 0.0
H1031 H 0.61275 0.46905 0.48701 0.0
H1032 H 0.65191 0.51408 0.41262 0.0
S1033 S 0.54698 0.43029 0.23309 0.0
N1034 N 0.54114 0.41748 0.31195 0.0
N1035 N 0.5827 0.46563 0.23219 0.0
C1036 C 0.59164 0.46862 0.29812 0.0
C1037 C 0.56888 0.44229 0.34154 0.0
C1038 C 0.56846 0.78932 0.26104 0.0
C1039 C 0.56036 0.75689 0.2417 0.0
C1040 C 0.57155 0.81329 0.21318 0.0
C1041 C 0.56685 0.80588 0.14384 0.0
H1042 H 0.56915 0.79519 0.31401 0.0
H1043 H 0.57439 0.83654 0.23118 0.0
S1044 S 0.54733 0.72552 0.06639 0.0
N1045 N 0.54957 0.71965 0.14777 0.0
N1046 N 0.55576 0.76426 0.05852 0.0
C1047 C 0.56128 0.77442 0.1238 0.0
C1048 C 0.55795 0.7501 0.17235 0.0
C1049 C 0.31089 0.84193 0.18867 0.0
C1050 C 0.30912 0.82968 0.25429 0.0
C1051 C 0.28762 0.82222 0.13828 0.0
C1052 C 0.26158 0.78967 0.15171 0.0
H1053 H 0.33212 0.86545 0.17438 0.0
H1054 H 0.29194 0.83134 0.08704 0.0
S1055 S 0.24477 0.74689 0.31619 0.0
N1056 N 0.27767 0.78368 0.33046 0.0
N1057 N 0.23471 0.74717 0.23655 0.0
C1058 C 0.25827 0.77832 0.21824 0.0
C1059 C 0.28176 0.79817 0.26919 0.0
C1060 C 0.25083 0.51287 0.12024 0.0
C1061 C 0.27591 0.50558 0.13806 0.0
C1062 C 0.23055 0.51611 0.16901 0.0
C1063 C 0.23418 0.51204 0.23812 0.0
H1064 H 0.24892 0.51919 0.06859 0.0
H1065 H 0.21399 0.52485 0.15293 0.0
S1066 S 0.29465 0.49091 0.31177 0.0
N1067 N 0.30192 0.4928 0.23001 0.0
N1068 N 0.26369 0.4984 0.32135 0.0
C1069 C 0.25752 0.50244 0.25625 0.0
C1070 C 0.27835 0.49932 0.20646 0.0
C1071 C 0.44464 0.87034 0.65263 0.0
C1072 C 0.4421 0.89854 0.63711 0.0
C1073 C 0.47067 0.87234 0.69243 0.0
C1074 C 0.49618 0.90265 0.71897 0.0
H1075 H 0.42585 0.84604 0.63511 0.0
H1076 H 0.47023 0.84943 0.70439 0.0
S1077 S 0.50299 0.98458 0.69211 0.0
N1078 N 0.46894 0.95855 0.65035 0.0
N1079 N 0.51768 0.96194 0.72518 0.0
C1080 C 0.4949 0.93136 0.70234 0.0
C1081 C 0.46803 0.92939 0.66169 0.0
C1082 C 0.15259 0.56582 0.69845 0.0
C1083 C 0.1717 0.57603 0.63895 0.0
C1084 C 0.14883 0.58852 0.73991 0.0
C1085 C 0.16268 0.62233 0.72267 0.0
H1086 H 0.14167 0.5403 0.71482 0.0
H1087 H 0.13585 0.57972 0.7873 0.0
S1088 S 0.21254 0.66153 0.56957 0.0
N1089 N 0.2034 0.62245 0.56369 0.0
N1090 N 0.19523 0.66436 0.63995 0.0
C1091 C 0.1805 0.63251 0.66181 0.0
C1092 C 0.18522 0.60965 0.62052 0.0
C1093 C 0.48084 0.58314 0.71814 0.0
C1094 C 0.44649 0.57218 0.71772 0.0
C1095 C 0.50383 0.61024 0.67807 0.0
C1096 C 0.4939 0.62865 0.63709 0.0
H1097 H 0.49028 0.5715 0.7518 0.0
H1098 H 0.52989 0.61761 0.68137 0.0
S1099 S 0.40655 0.61007 0.61786 0.0
N1100 N 0.40379 0.58186 0.67181 0.0
N1101 N 0.44631 0.63249 0.59804 0.0
C1102 C 0.45944 0.61752 0.6357 0.0
C1103 C 0.43608 0.58961 0.67557 0.0
C1104 C 0.18033 0.65152 0.20501 0.0
C1105 C 0.18077 0.64449 0.1362 0.0
C1106 C 0.17612 0.62827 0.25532 0.0
C1107 C 0.17197 0.59683 0.23926 0.0
H1108 H 0.18629 0.6762 0.22041 0.0
H1109 H 0.17929 0.63618 0.30744 0.0
S1110 S 0.16822 0.56502 0.06661 0.0
N1111 N 0.17405 0.60269 0.05476 0.0
N1112 N 0.16629 0.55938 0.14892 0.0
C1113 C 0.16985 0.58865 0.17061 0.0
C1114 C 0.17426 0.61235 0.11936 0.0
C1115 C 0.45767 0.59797 0.11895 0.0
C1116 C 0.42652 0.57019 0.13496 0.0
C1117 C 0.48095 0.61733 0.16931 0.0
C1118 C 0.4741 0.60995 0.23818 0.0
H1119 H 0.46297 0.60647 0.0673 0.0
H1120 H 0.50306 0.64005 0.15451 0.0
S1121 S 0.39652 0.5398 0.3073 0.0
N1122 N 0.39079 0.53588 0.22496 0.0
N1123 N 0.434 0.5722 0.31917 0.0
C1124 C 0.44385 0.58116 0.25452 0.0
C1125 C 0.42026 0.56134 0.20321 0.0
C1126 C 0.4694 0.89174 0.11485 0.0
C1127 C 0.49878 0.89129 0.13096 0.0
C1128 C 0.45036 0.89637 0.16455 0.0
C1129 C 0.45966 0.90063 0.23295 0.0
H1130 H 0.45952 0.88567 0.06413 0.0
H1131 H 0.42644 0.89322 0.15023 0.0
S1132 S 0.53465 0.90215 0.30201 0.0
N1133 N 0.53679 0.89688 0.22028 0.0
N1134 N 0.50103 0.90512 0.31341 0.0
C1135 C 0.49008 0.90234 0.24901 0.0
C1136 C 0.50959 0.8978 0.19826 0.0
C1137 C 0.27238 0.47542 0.72655 0.0
C1138 C 0.29961 0.50643 0.74701 0.0
C1139 C 0.24564 0.47303 0.68696 0.0
C1140 C 0.24472 0.50155 0.66636 0.0
H1141 H 0.27202 0.45273 0.73988 0.0
H1142 H 0.22642 0.44883 0.66992 0.0
S1143 S 0.30817 0.58856 0.70819 0.0
N1144 N 0.32231 0.56623 0.7445 0.0
N1145 N 0.27289 0.56161 0.67176 0.0
C1146 C 0.27112 0.53244 0.68832 0.0
C1147 C 0.29818 0.53493 0.72803 0.0
C1148 C 0.58077 0.83577 0.67718 0.0
C1149 C 0.57491 0.83016 0.74663 0.0
C1150 C 0.58353 0.81281 0.63493 0.0
C1151 C 0.5813 0.78325 0.65977 0.0
H1152 H 0.58167 0.85737 0.65463 0.0
H1153 H 0.58608 0.81766 0.58132 0.0
S1154 S 0.57043 0.75895 0.83982 0.0
N1155 N 0.56965 0.79405 0.83955 0.0
N1156 N 0.57563 0.7515 0.76066 0.0
C1157 C 0.57751 0.77839 0.72996 0.0
C1158 C 0.57403 0.80156 0.773 0.0
C1159 C 0.27336 0.77335 0.72507 0.0
C1160 C 0.24467 0.77314 0.74884 0.0
C1161 C 0.29705 0.79915 0.68443 0.0
C1162 C 0.29397 0.82672 0.66551 0.0
H1163 H 0.27734 0.75287 0.73643 0.0
H1164 H 0.31776 0.79694 0.66578 0.0
S1165 S 0.22494 0.84019 0.71649 0.0
N1166 N 0.21558 0.80449 0.75207 0.0
N1167 N 0.26028 0.85276 0.67592 0.0
C1168 C 0.26621 0.82775 0.69066 0.0
C1169 C 0.24165 0.80114 0.73198 0.0
C1170 C 0.28616 0.98372 0.64385 0.0
C1171 C 0.29244 0.99465 0.71169 0.0
C1172 C 0.30311 0.9697 0.61167 0.0
C1173 C 0.32751 0.96566 0.64497 0.0
H1174 H 0.26742 0.98545 0.6146 0.0
H1175 H 0.2966 0.96158 0.55996 0.0
S1176 S 0.35531 0.99113 0.82155 0.0
N1177 N 0.32617 1.00111 0.81037 0.0
N1178 N 0.35808 0.97473 0.74972 0.0
C1179 C 0.33472 0.97683 0.71242 0.0
C1180 C 0.31725 0.99124 0.74565 0.0
C1181 C 0.07491 0.33422 0.64138 0.0
C1182 C 0.0739 0.33095 0.71235 0.0
C1183 C 0.08951 0.36534 0.60937 0.0
C1184 C 0.10407 0.39519 0.64619 0.0
H1185 H 0.06476 0.31242 0.6095 0.0
H1186 H 0.08987 0.36593 0.55486 0.0
S1187 S 0.10714 0.40149 0.83293 0.0
N1188 N 0.08805 0.36114 0.81837 0.0
N1189 N 0.11546 0.41949 0.75831 0.0
C1190 C 0.10256 0.39256 0.71715 0.0
C1191 C 0.08751 0.36064 0.75003 0.0
C1192 C 0.68021 0.74507 0.7129 0.0
C1193 C 0.67746 0.74003 0.64242 0.0
C1194 C 0.71155 0.76196 0.74576 0.0
C1195 C 0.7416 0.77478 0.70956 0.0
H1196 H 0.65797 0.73657 0.7429 0.0
H1197 H 0.71218 0.76607 0.79953 0.0
S1198 S 0.74816 0.76592 0.52458 0.0
N1199 N 0.70781 0.74773 0.53843 0.0
N1200 N 0.76595 0.77889 0.59888 0.0
C1201 C 0.73896 0.7687 0.63929 0.0
C1202 C 0.70722 0.75157 0.60617 0.0
C1203 C 0.97895 0.31804 0.07877 0.0
C1204 C 0.96188 0.33098 0.0424 0.0
C1205 C 0.99554 0.30343 0.04561 0.0
C1206 C 0.99589 0.30116 0.97462 0.0
H1207 H 0.97871 0.31826 0.13326 0.0
H1208 H 1.00767 0.29327 0.07596 0.0
S1209 S 0.95696 0.33284 0.85489 0.0
N1210 N 0.94837 0.34184 0.92977 0.0
N1211 N 0.97867 0.31434 0.86939 0.0
C1212 C 0.97981 0.31482 0.93782 0.0
C1213 C 0.96314 0.32971 0.97107 0.0
C1214 C 0.74939 0.69202 0.07461 0.0
C1215 C 0.74279 0.66295 0.03937 0.0
C1216 C 0.76349 0.72337 0.04205 0.0
C1217 C 0.77165 0.72714 0.97277 0.0
H1218 H 0.744 0.69069 0.12788 0.0
H1219 H 0.76832 0.74488 0.07161 0.0
S1220 S 0.75991 0.65967 0.8563 0.0
N1221 N 0.746 0.64107 0.92921 0.0
N1222 N 0.77202 0.69897 0.87043 0.0
C1223 C 0.76497 0.6984 0.93703 0.0
C1224 C 0.75073 0.66673 0.96954 0.0
C1225 C 0.37167 0.08944 0.94336 0.0
C1226 C 0.34177 0.07327 0.97984 0.0
C1227 C 0.40287 0.10605 0.97569 0.0
C1228 C 0.40624 0.10759 0.04673 0.0
H1229 H 0.37106 0.08982 0.88887 0.0
H1230 H 0.42466 0.11838 0.94396 0.0
S1231 S 0.33562 0.06764 0.16644 0.0
N1232 N 0.31754 0.05863 0.09167 0.0
N1233 N 0.37602 0.08975 0.15233 0.0
C1234 C 0.3765 0.0906 0.08402 0.0
C1235 C 0.34448 0.07362 0.05079 0.0
C1236 C 0.78022 0.07724 0.41257 0.0
C1237 C 0.7783 0.07167 0.34217 0.0
C1238 C 0.76338 0.0915 0.4447 0.0
C1239 C 0.74351 0.10108 0.40864 0.0
H1240 H 0.79541 0.07104 0.44386 0.0
H1241 H 0.76646 0.09548 0.49859 0.0
S1242 S 0.72814 0.09084 0.22414 0.0
N1243 N 0.7534 0.07613 0.23785 0.0
N1244 N 0.72184 0.10286 0.29824 0.0
C1245 C 0.74056 0.09509 0.3385 0.0
C1246 C 0.75782 0.08045 0.30546 0.0
C1247 C 0.99562 0.7338 0.40792 0.0
C1248 C 0.99744 0.73696 0.3369 0.0
C1249 C 0.98147 0.70279 0.44031 0.0
C1250 C 0.96819 0.67289 0.40391 0.0
H1251 H 1.00478 0.75559 0.43962 0.0
H1252 H 0.98046 0.70234 0.49479 0.0
S1253 S 0.96777 0.6663 0.21733 0.0
N1254 N 0.98552 0.70661 0.23135 0.0
N1255 N 0.95895 0.64845 0.29213 0.0
C1256 C 0.97053 0.67541 0.33295 0.0
C1257 C 0.98513 0.70725 0.29965 0.0
C1258 C 0.38966 0.33523 0.35089 0.0
C1259 C 0.39585 0.32279 0.41078 0.0
C1260 C 0.35873 0.3179 0.31647 0.0
C1261 C 0.33271 0.28743 0.34069 0.0
H1262 H 0.40877 0.35866 0.33063 0.0
H1263 H 0.355 0.32873 0.27146 0.0
S1264 S 0.33733 0.24259 0.49202 0.0
N1265 N 0.37367 0.27709 0.49015 0.0
N1266 N 0.31673 0.24465 0.42637 0.0
C1267 C 0.33918 0.27447 0.3996 0.0
C1268 C 0.37031 0.29205 0.43434 0.0
C1269 C 0.09579 0.75811 0.10885 0.0
C1270 C 0.07601 0.7677 0.07246 0.0
C1271 C 0.11286 0.74404 0.07699 0.0
C1272 C 0.11128 0.73866 1.00655 0.0
H1273 H 0.09863 0.76198 0.16279 0.0
H1274 H 0.12797 0.73785 0.10853 0.0
S1275 S 0.06131 0.75771 0.88775 0.0
N1276 N 0.05465 0.76954 0.96175 0.0
N1277 N 0.08667 0.74314 0.90185 0.0
C1278 C 0.0908 0.74732 0.96952 0.0
C1279 C 0.07331 0.76179 1.0023 0.0
C1280 C 0.31844 0.37654 0.9732 0.0
C1281 C 0.33389 0.40661 1.00977 0.0
C1282 C 0.3041 0.34534 1.00604 0.0
C1283 C 0.3047 0.34274 0.07691 0.0
H1284 H 0.31631 0.37702 0.91899 0.0
H1285 H 0.29181 0.32305 0.97563 0.0
S1286 S 0.34438 0.41363 0.19626 0.0
N1287 N 0.35058 0.43119 0.1216 0.0
N1288 N 0.32376 0.37332 0.18192 0.0
C1289 C 0.32109 0.37257 0.11371 0.0
C1290 C 0.33561 0.40416 0.08062 0.0
C1291 C 0.67006 0.95006 0.07495 0.0
C1292 C 0.66483 0.9584 1.00931 0.0
C1293 C 0.70111 0.96696 0.10734 0.0
C1294 C 0.729 0.99335 0.07642 0.0
H1295 H 0.65 0.92974 0.102 0.0
H1296 H 0.70326 0.95887 0.15726 0.0
S1297 S 0.72951 0.02665 0.9062 0.0
N1298 N 0.69087 0.99594 0.91526 0.0
N1299 N 0.74924 0.0278 0.97634 0.0
C1300 C 0.72439 1.00248 1.01117 0.0
C1301 C 0.69248 0.98504 0.97771 0.0
C1302 C 0.66588 0.64169 0.37559 0.0
C1303 C 0.66067 0.63269 0.30666 0.0
C1304 C 0.64852 0.6556 0.40864 0.0
C1305 C 0.62504 0.66109 0.3743 0.0
H1306 H 0.68338 0.63776 0.40446 0.0
H1307 H 0.65334 0.6618 0.46155 0.0
S1308 S 0.60194 0.64109 0.19271 0.0
N1309 N 0.63013 0.63017 0.20577 0.0
N1310 N 0.59788 0.65562 0.26552 0.0
C1311 C 0.61993 0.65214 0.30491 0.0
C1312 C 0.63754 0.63819 0.27187 0.0
C1313 C 0.42923 0.03166 0.27764 0.0
C1314 C 0.43611 0.06067 0.31262 0.0
C1315 C 0.4149 1.00062 0.3096 0.0
C1316 C 0.40653 0.99647 0.37888 0.0
H1317 H 0.43541 0.0329 0.22477 0.0
H1318 H 0.41094 0.97967 0.27907 0.0
S1319 S 0.41777 0.06444 0.49347 0.0
N1320 N 0.43222 0.08319 0.42053 0.0
N1321 N 0.40535 0.02485 0.48072 0.0
C1322 C 0.41262 0.02525 0.41445 0.0
C1323 C 0.42732 0.05717 0.38148 0.0
C1324 C 0.04535 0.42803 0.41414 0.0
C1325 C 0.07533 0.44088 0.37768 0.0
C1326 C 1.01396 0.41101 0.3815 0.0
C1327 C 1.0111 0.40589 0.31102 0.0
H1328 H 0.0461 0.43233 0.46785 0.0
H1329 H 0.99176 0.40253 0.41161 0.0
S1330 S 0.08166 0.43169 0.19281 0.0
N1331 N 0.09954 0.44481 0.26699 0.0
N1332 N 0.04132 0.41344 0.20688 0.0
C1333 C 0.04082 0.41738 0.27461 0.0
C1334 C 0.07259 0.43462 0.30751 0.0
C1335 C 0.44304 0.40667 0.74424 0.0
C1336 C 0.44474 0.40509 0.67328 0.0
C1337 C 0.42603 0.42076 0.77625 0.0
C1338 C 0.40967 0.43413 0.73938 0.0
H1339 H 0.45551 0.39741 0.77608 0.0
H1340 H 0.42627 0.42166 0.83074 0.0
S1341 S 0.40453 0.43514 0.55277 0.0
N1342 N 0.42697 0.41731 0.56727 0.0
N1343 N 0.39509 0.44375 0.62742 0.0
C1344 C 0.41022 0.43202 0.6685 0.0
C1345 C 0.4276 0.41752 0.6356 0.0
C1346 C 0.64888 0.04353 0.64244 0.0
C1347 C 0.66634 0.07362 0.67856 0.0
C1348 C 0.63417 1.01232 0.67536 0.0
C1349 C 0.63636 1.00966 0.7459 0.0
H1350 H 0.64545 0.04404 0.58862 0.0
H1351 H 0.62034 0.99008 0.64532 0.0
S1352 S 0.68185 0.08051 0.86353 0.0
N1353 N 0.68675 0.09811 0.78919 0.0
N1354 N 0.65927 0.04022 0.84982 0.0
C1355 C 0.65478 0.03947 0.78209 0.0
C1356 C 0.66967 0.0711 0.74887 0.0
C1357 C 1.00269 0.63598 0.73929 0.0
C1358 C 0.99927 0.62631 0.67095 0.0
C1359 C 0.03397 0.65298 0.77137 0.0
C1360 C 0.06355 0.66093 0.73709 0.0
H1361 H 0.98081 0.62984 0.76893 0.0
H1362 H 0.03483 0.65928 0.82412 0.0
S1363 S 0.06892 0.64142 0.55765 0.0
N1364 N 1.02877 0.62655 0.56996 0.0
N1365 N 0.0873 0.65803 0.63006 0.0
C1366 C 0.06068 0.65204 0.66837 0.0
C1367 C 1.02874 0.63495 0.63543 0.0
loop_
_geom_bond_atom_site_label_1
_geom_bond_atom_site_label_2
_geom_bond_distance
_geom_bond_site_symmetry_2
_ccdc_geom_bond_type
Co0 H3 2.400 1_545 S
Co0 O4 2.009 1_545 S
Co0 O12 2.115 1_545 S
Co0 O13 2.315 1_545 S
Co0 O24 2.053 1_545 S
Co0 O27 2.094 . S
Co0 O30 2.122 . S
Co1 O4 2.126 1_545 S
Co1 H5 2.388 . S
Co1 O6 2.053 . S
Co1 O9 2.047 . S
Co1 O15 2.113 1_545 S
Co1 O26 2.063 . S
Co2 H3 2.388 . S
Co2 O4 2.053 . S
Co2 O6 2.126 1_565 S
Co2 O11 2.063 . S
Co2 O25 2.047 . S
Co2 O31 2.113 1_565 S
H3 Co0 2.400 1_565 S
H3 Co2 2.388 . S
H3 O4 0.760 . S
O4 Co0 2.009 1_565 S
O4 Co1 2.126 1_565 S
O4 Co2 2.053 . S
O4 H3 0.760 . S
H5 Co1 2.388 . S
H5 O6 0.760 . S
H5 Co7 2.400 . S
O6 Co1 2.053 . S
O6 Co2 2.126 1_545 S
O6 H5 0.760 . S
O6 Co7 2.009 . S
Co7 H5 2.400 . S
Co7 O6 2.009 . S
Co7 O8 2.053 . S
Co7 O10 2.094 1_545 S
Co7 O14 2.122 1_545 S
Co7 O28 2.115 . S
Co7 O29 2.315 . S
O8 Co7 2.053 . S
O8 C20 1.259 . S
O9 Co1 2.047 . S
O9 C20 1.257 . S
O10 Co7 2.094 1_565 S
O10 C21 1.253 . S
O11 Co2 2.063 . S
O11 C21 1.268 . S
O12 Co0 2.115 1_565 S
O12 C22 1.281 . S
O13 Co0 2.315 1_565 S
O13 C22 1.252 . S
O14 Co7 2.122 1_565 S
O14 C23 1.272 . S
O15 Co1 2.113 1_565 S
O15 C23 1.245 . S
C16 O24 1.259 . S
C16 O25 1.257 . S
C17 O26 1.268 . S
C17 O27 1.253 . S
C18 O28 1.281 . S
C18 O29 1.252 . S
C19 O30 1.272 . S
C19 O31 1.245 . S
C20 O8 1.259 . S
C20 O9 1.257 . S
C21 O10 1.253 . S
C21 O11 1.268 . S
C22 O12 1.281 . S
C22 O13 1.252 . S
C23 O14 1.272 . S
C23 O15 1.245 . S
O24 Co0 2.053 1_565 S
O24 C16 1.259 . S
O25 Co2 2.047 . S
O25 C16 1.257 . S
O26 Co1 2.063 . S
O26 C17 1.268 . S
O27 Co0 2.094 . S
O27 C17 1.253 . S
O28 Co7 2.115 . S
O28 C18 1.281 . S
O29 Co7 2.315 . S
O29 C18 1.252 . S
O30 Co0 2.122 . S
O30 C19 1.272 . S
O31 Co2 2.113 1_545 S
O31 C19 1.245 . S
Co32 H35 2.400 . S
Co32 O36 2.009 . S
Co32 O44 2.115 . S
Co32 O45 2.315 . S
Co32 O56 2.053 . S
Co32 O59 2.094 1_455 S
Co32 O62 2.122 1_455 S
Co33 O36 2.126 1_655 S
Co33 H37 2.388 . S
Co33 O38 2.053 . S
Co33 O41 2.047 . S
Co33 O47 2.113 1_655 S
Co33 O58 2.063 . S
Co34 H35 2.388 . S
Co34 O36 2.053 . S
Co34 O38 2.126 1_455 S
Co34 O43 2.063 . S
Co34 O57 2.047 . S
Co34 O63 2.113 1_455 S
H35 Co32 2.400 . S
H35 Co34 2.388 . S
H35 O36 0.760 . S
O36 Co32 2.009 . S
O36 Co33 2.126 1_455 S
O36 Co34 2.053 . S
O36 H35 0.760 . S
H37 Co33 2.388 . S
H37 O38 0.760 . S
H37 Co39 2.400 . S
O38 Co33 2.053 . S
O38 Co34 2.126 1_655 S
O38 H37 0.760 . S
O38 Co39 2.009 . S
Co39 H37 2.400 . S
Co39 O38 2.009 . S
Co39 O40 2.053 . S
Co39 O42 2.094 1_655 S
Co39 O46 2.122 1_655 S
Co39 O60 2.115 . S
Co39 O61 2.315 . S
O40 Co39 2.053 . S
O40 C52 1.259 . S
O41 Co33 2.047 . S
O41 C52 1.257 . S
O42 Co39 2.094 1_455 S
O42 C53 1.253 . S
O43 Co34 2.063 . S
O43 C53 1.268 . S
O44 Co32 2.115 . S
O44 C54 1.281 . S
O45 Co32 2.315 . S
O45 C54 1.252 . S
O46 Co39 2.122 1_455 S
O46 C55 1.272 . S
O47 Co33 2.113 1_455 S
O47 C55 1.245 . S
C48 O56 1.259 . S
C48 O57 1.257 . S
C49 O58 1.268 . S
C49 O59 1.253 . S
C50 O60 1.281 . S
C50 O61 1.252 . S
C51 O62 1.272 . S
C51 O63 1.245 . S
C52 O40 1.259 . S
C52 O41 1.257 . S
C53 O42 1.253 . S
C53 O43 1.268 . S
C54 O44 1.281 . S
C54 O45 1.252 . S
C55 O46 1.272 . S
C55 O47 1.245 . S
O56 Co32 2.053 . S
O56 C48 1.259 . S
O57 Co34 2.047 . S
O57 C48 1.257 . S
O58 Co33 2.063 . S
O58 C49 1.268 . S
O59 Co32 2.094 1_655 S
O59 C49 1.253 . S
O60 Co39 2.115 . S
O60 C50 1.281 . S
O61 Co39 2.315 . S
O61 C50 1.252 . S
O62 Co32 2.122 1_655 S
O62 C51 1.272 . S
O63 Co34 2.113 1_655 S
O63 C51 1.245 . S
Co64 H67 2.400 . S
Co64 O68 2.009 . S
Co64 O76 2.115 . S
Co64 O77 2.315 . S
Co64 O88 2.053 . S
Co64 O91 2.094 . S
Co64 O94 2.122 . S
Co65 O68 2.126 . S
Co65 H69 2.388 . S
Co65 O70 2.053 . S
Co65 O73 2.047 . S
Co65 O79 2.113 . S
Co65 O90 2.063 . S
Co66 H67 2.388 . S
Co66 O68 2.053 . S
Co66 O70 2.126 . S
Co66 O75 2.063 . S
Co66 O89 2.047 . S
Co66 O95 2.113 . S
H67 Co64 2.400 . S
H67 Co66 2.388 . S
H67 O68 0.760 . S
O68 Co64 2.009 . S
O68 Co65 2.126 . S
O68 Co66 2.053 . S
O68 H67 0.760 . S
H69 Co65 2.388 . S
H69 O70 0.760 . S
H69 Co71 2.400 . S
O70 Co65 2.053 . S
O70 Co66 2.126 . S
O70 H69 0.760 . S
O70 Co71 2.009 . S
Co71 H69 2.400 . S
Co71 O70 2.009 . S
Co71 O72 2.053 . S
Co71 O74 2.094 . S
Co71 O78 2.122 . S
Co71 O92 2.115 . S
Co71 O93 2.315 . S
O72 Co71 2.053 . S
O72 C84 1.259 . S
O73 Co65 2.047 . S
O73 C84 1.257 . S
O74 Co71 2.094 . S
O74 C85 1.253 . S
O75 Co66 2.063 . S
O75 C85 1.268 . S
O76 Co64 2.115 . S
O76 C86 1.281 . S
O77 Co64 2.315 . S
O77 C86 1.252 . S
O78 Co71 2.122 . S
O78 C87 1.272 . S
O79 Co65 2.113 . S
O79 C87 1.245 . S
C80 O88 1.259 . S
C80 O89 1.257 . S
C81 O90 1.268 . S
C81 O91 1.253 . S
C82 O92 1.281 . S
C82 O93 1.252 . S
C83 O94 1.272 . S
C83 O95 1.245 . S
C84 O72 1.259 . S
C84 O73 1.257 . S
C85 O74 1.253 . S
C85 O75 1.268 . S
C86 O76 1.281 . S
C86 O77 1.252 . S
C87 O78 1.272 . S
C87 O79 1.245 . S
O88 Co64 2.053 . S
O88 C80 1.259 . S
O89 Co66 2.047 . S
O89 C80 1.257 . S
O90 Co65 2.063 . S
O90 C81 1.268 . S
O91 Co64 2.094 . S
O91 C81 1.253 . S
O92 Co71 2.115 . S
O92 C82 1.281 . S
O93 Co71 2.315 . S
O93 C82 1.252 . S
O94 Co64 2.122 . S
O94 C83 1.272 . S
O95 Co66 2.113 . S
O95 C83 1.245 . S
Co96 H99 2.400 1_545 S
Co96 O100 2.020 . S
Co96 O108 2.115 . S
Co96 O109 2.315 1_545 S
Co96 O120 2.053 1_545 S
Co96 O123 2.094 . S
Co96 O126 2.122 . S
Co97 O100 2.139 . S
Co97 H101 2.388 . S
Co97 O102 2.053 . S
Co97 O105 2.047 . S
Co97 O111 2.143 . S
Co97 O122 2.063 . S
Co98 H99 2.388 . S
Co98 O100 2.040 1_565 S
Co98 O102 2.126 1_565 S
Co98 O107 2.063 . S
Co98 O121 2.047 . S
Co98 O127 2.113 1_565 S
H99 Co96 2.400 1_565 S
H99 Co98 2.388 . S
H99 O100 0.745 1_565 S
O100 Co96 2.020 . S
O100 Co97 2.139 . S
O100 Co98 2.040 1_545 S
O100 H99 0.745 1_545 S
H101 Co97 2.388 . S
H101 O102 0.760 . S
H101 Co103 2.400 . S
O102 Co97 2.053 . S
O102 Co98 2.126 1_545 S
O102 H101 0.760 . S
O102 Co103 2.009 . S
Co103 H101 2.400 . S
Co103 O102 2.009 . S
Co103 O104 2.053 . S
Co103 O106 2.094 1_545 S
Co103 O110 2.122 1_545 S
Co103 O124 2.115 . S
Co103 O125 2.315 . S
O104 Co103 2.053 . S
O104 C116 1.259 . S
O105 Co97 2.047 . S
O105 C116 1.257 . S
O106 Co103 2.094 1_565 S
O106 C117 1.253 . S
O107 Co98 2.063 . S
O107 C117 1.268 . S
O108 Co96 2.115 . S
O108 C118 1.281 1_545 S
O109 Co96 2.315 1_565 S
O109 C118 1.252 . S
O110 Co103 2.122 1_565 S
O110 C119 1.272 . S
O111 Co97 2.143 . S
O111 C119 1.211 1_545 S
C112 O120 1.259 . S
C112 O121 1.257 . S
C113 O122 1.268 . S
C113 O123 1.253 . S
C114 O124 1.281 . S
C114 O125 1.252 . S
C115 O126 1.272 . S
C115 O127 1.245 . S
C116 O104 1.259 . S
C116 O105 1.257 . S
C117 O106 1.253 . S
C117 O107 1.268 . S
C118 O108 1.281 1_565 S
C118 O109 1.252 . S
C119 O110 1.272 . S
C119 O111 1.211 1_565 S
O120 Co96 2.053 1_565 S
O120 C112 1.259 . S
O121 Co98 2.047 . S
O121 C112 1.257 . S
O122 Co97 2.063 . S
O122 C113 1.268 . S
O123 Co96 2.094 . S
O123 C113 1.253 . S
O124 Co103 2.115 . S
O124 C114 1.281 . S
O125 Co103 2.315 . S
O125 C114 1.252 . S
O126 Co96 2.122 . S
O126 C115 1.272 . S
O127 Co98 2.113 1_545 S
O127 C115 1.245 . S
Co128 H131 2.400 . S
Co128 O132 2.009 . S
Co128 O140 2.115 . S
Co128 O141 2.315 . S
Co128 O152 2.053 . S
Co128 O155 2.094 1_455 S
Co128 O158 2.122 1_455 S
Co129 O132 2.126 1_655 S
Co129 H133 2.388 . S
Co129 O134 2.053 . S
Co129 O137 2.047 . S
Co129 O143 2.113 1_655 S
Co129 O154 2.063 . S
Co130 H131 2.388 . S
Co130 O132 2.053 . S
Co130 O134 2.126 1_455 S
Co130 O139 2.063 . S
Co130 O153 2.047 . S
Co130 O159 2.113 1_455 S
H131 Co128 2.400 . S
H131 Co130 2.388 . S
H131 O132 0.760 . S
O132 Co128 2.009 . S
O132 Co129 2.126 1_455 S
O132 Co130 2.053 . S
O132 H131 0.760 . S
H133 Co129 2.388 . S
H133 O134 0.760 . S
H133 Co135 2.400 . S
O134 Co129 2.053 . S
O134 Co130 2.126 1_655 S
O134 H133 0.760 . S
O134 Co135 2.009 . S
Co135 H133 2.400 . S
Co135 O134 2.009 . S
Co135 O136 2.053 . S
Co135 O138 2.094 1_655 S
Co135 O142 2.122 1_655 S
Co135 O156 2.115 . S
Co135 O157 2.315 . S
O136 Co135 2.053 . S
O136 C148 1.259 . S
O137 Co129 2.047 . S
O137 C148 1.257 . S
O138 Co135 2.094 1_455 S
O138 C149 1.253 . S
O139 Co130 2.063 . S
O139 C149 1.268 . S
O140 Co128 2.115 . S
O140 C150 1.281 . S
O141 Co128 2.315 . S
O141 C150 1.252 . S
O142 Co135 2.122 1_455 S
O142 C151 1.272 . S
O143 Co129 2.113 1_455 S
O143 C151 1.245 . S
C144 O152 1.259 . S
C144 O153 1.257 . S
C145 O154 1.268 . S
C145 O155 1.253 . S
C146 O156 1.281 . S
C146 O157 1.252 . S
C147 O158 1.272 . S
C147 O159 1.245 . S
C148 O136 1.259 . S
C148 O137 1.257 . S
C149 O138 1.253 . S
C149 O139 1.268 . S
C150 O140 1.281 . S
C150 O141 1.252 . S
C151 O142 1.272 . S
C151 O143 1.245 . S
O152 Co128 2.053 . S
O152 C144 1.259 . S
O153 Co130 2.047 . S
O153 C144 1.257 . S
O154 Co129 2.063 . S
O154 C145 1.268 . S
O155 Co128 2.094 1_655 S
O155 C145 1.253 . S
O156 Co135 2.115 . S
O156 C146 1.281 . S
O157 Co135 2.315 . S
O157 C146 1.252 . S
O158 Co128 2.122 1_655 S
O158 C147 1.272 . S
O159 Co130 2.113 1_655 S
O159 C147 1.245 . S
Co160 H163 2.400 . S
Co160 O164 2.009 . S
Co160 O172 2.115 . S
Co160 O173 2.315 . S
Co160 O184 2.053 . S
Co160 O187 2.094 . S
Co160 O190 2.122 . S
Co161 O164 2.126 . S
Co161 H165 2.388 . S
Co161 O166 2.053 . S
Co161 O169 2.047 . S
Co161 O175 2.113 . S
Co161 O186 2.063 . S
Co162 H163 2.388 . S
Co162 O164 2.053 . S
Co162 O166 2.126 . S
Co162 O171 2.063 . S
Co162 O185 2.047 . S
Co162 O191 2.113 . S
H163 Co160 2.400 . S
H163 Co162 2.388 . S
H163 O164 0.760 . S
O164 Co160 2.009 . S
O164 Co161 2.126 . S
O164 Co162 2.053 . S
O164 H163 0.760 . S
H165 Co161 2.388 . S
H165 O166 0.760 . S
H165 Co167 2.400 . S
O166 Co161 2.053 . S
O166 Co162 2.126 . S
O166 H165 0.760 . S
O166 Co167 2.009 . S
Co167 H165 2.400 . S
Co167 O166 2.009 . S
Co167 O168 2.053 . S
Co167 O170 2.094 . S
Co167 O174 2.122 . S
Co167 O188 2.115 . S
Co167 O189 2.315 . S
O168 Co167 2.053 . S
O168 C180 1.259 . S
O169 Co161 2.047 . S
O169 C180 1.257 . S
O170 Co167 2.094 . S
O170 C181 1.253 . S
O171 Co162 2.063 . S
O171 C181 1.268 . S
O172 Co160 2.115 . S
O172 C182 1.281 . S
O173 Co160 2.315 . S
O173 C182 1.252 . S
O174 Co167 2.122 . S
O174 C183 1.272 . S
O175 Co161 2.113 . S
O175 C183 1.245 . S
C176 O184 1.259 . S
C176 O185 1.257 . S
C177 O186 1.268 . S
C177 O187 1.253 . S
C178 O188 1.281 . S
C178 O189 1.252 . S
C179 O190 1.272 . S
C179 O191 1.245 . S
C180 O168 1.259 . S
C180 O169 1.257 . S
C181 O170 1.253 . S
C181 O171 1.268 . S
C182 O172 1.281 . S
C182 O173 1.252 . S
C183 O174 1.272 . S
C183 O175 1.245 . S
O184 Co160 2.053 . S
O184 C176 1.259 . S
O185 Co162 2.047 . S
O185 C176 1.257 . S
O186 Co161 2.063 . S
O186 C177 1.268 . S
O187 Co160 2.094 . S
O187 C177 1.253 . S
O188 Co167 2.115 . S
O188 C178 1.281 . S
O189 Co167 2.315 . S
O189 C178 1.252 . S
O190 Co160 2.122 . S
O190 C179 1.272 . S
O191 Co162 2.113 . S
O191 C179 1.245 . S
Co192 H195 2.400 1_556 S
Co192 O196 2.009 1_556 S
Co192 O204 2.115 . S
Co192 O205 2.315 1_556 S
Co192 O216 2.053 . S
Co192 O219 2.094 1_556 S
Co192 O222 2.122 . S
Co193 O196 2.126 . S
Co193 H197 2.388 . S
Co193 O198 2.053 . S
Co193 O201 2.047 . S
Co193 O207 2.113 . S
Co193 O218 2.063 . S
Co194 H195 2.388 . S
Co194 O196 2.053 . S
Co194 O198 2.126 . S
Co194 O203 2.063 . S
Co194 O217 2.047 1_554 S
Co194 O223 2.113 1_554 S
H195 Co192 2.400 1_554 S
H195 Co194 2.388 . S
H195 O196 0.760 . S
O196 Co192 2.009 1_554 S
O196 Co193 2.126 . S
O196 Co194 2.053 . S
O196 H195 0.760 . S
H197 Co193 2.388 . S
H197 O198 0.760 . S
H197 Co199 2.400 . S
O198 Co193 2.053 . S
O198 Co194 2.126 . S
O198 H197 0.760 . S
O198 Co199 2.009 . S
Co199 H197 2.400 . S
Co199 O198 2.009 . S
Co199 O200 2.053 . S
Co199 O202 2.094 . S
Co199 O206 2.122 . S
Co199 O220 2.115 . S
Co199 O221 2.315 . S
O200 Co199 2.053 . S
O200 C212 1.259 . S
O201 Co193 2.047 . S
O201 C212 1.257 . S
O202 Co199 2.094 . S
O202 C213 1.253 . S
O203 Co194 2.063 . S
O203 C213 1.268 . S
O204 Co192 2.115 . S
O204 C214 1.281 . S
O205 Co192 2.315 1_554 S
O205 C214 1.252 1_554 S
O206 Co199 2.122 . S
O206 C215 1.272 . S
O207 Co193 2.113 . S
O207 C215 1.245 . S
C208 O216 1.259 . S
C208 O217 1.257 . S
C209 O218 1.268 . S
C209 O219 1.253 . S
C210 O220 1.281 . S
C210 O221 1.252 . S
C211 O222 1.272 . S
C211 O223 1.245 . S
C212 O200 1.259 . S
C212 O201 1.257 . S
C213 O202 1.253 . S
C213 O203 1.268 . S
C214 O204 1.281 . S
C214 O205 1.252 1_556 S
C215 O206 1.272 . S
C215 O207 1.245 . S
O216 Co192 2.053 . S
O216 C208 1.259 . S
O217 Co194 2.047 1_556 S
O217 C208 1.257 . S
O218 Co193 2.063 . S
O218 C209 1.268 . S
O219 Co192 2.094 1_554 S
O219 C209 1.253 . S
O220 Co199 2.115 . S
O220 C210 1.281 . S
O221 Co199 2.315 . S
O221 C210 1.252 . S
O222 Co192 2.122 . S
O222 C211 1.272 . S
O223 Co194 2.113 1_556 S
O223 C211 1.245 . S
Co224 H227 2.400 1_556 S
Co224 O228 2.009 1_556 S
Co224 O236 2.115 . S
Co224 O237 2.315 1_556 S
Co224 O248 2.053 . S
Co224 O251 2.094 1_556 S
Co224 O254 2.122 . S
Co225 O228 2.126 . S
Co225 H229 2.388 . S
Co225 O230 2.053 . S
Co225 O233 2.047 . S
Co225 O239 2.113 . S
Co225 O250 2.063 . S
Co226 H227 2.388 . S
Co226 O228 2.053 . S
Co226 O230 2.126 . S
Co226 O235 2.063 . S
Co226 O249 2.047 1_554 S
Co226 O255 2.113 1_554 S
H227 Co224 2.400 1_554 S
H227 Co226 2.388 . S
H227 O228 0.760 . S
O228 Co224 2.009 1_554 S
O228 Co225 2.126 . S
O228 Co226 2.053 . S
O228 H227 0.760 . S
H229 Co225 2.388 . S
H229 O230 0.760 . S
H229 Co231 2.400 . S
O230 Co225 2.053 . S
O230 Co226 2.126 . S
O230 H229 0.760 . S
O230 Co231 2.009 . S
Co231 H229 2.400 . S
Co231 O230 2.009 . S
Co231 O232 2.053 . S
Co231 O234 2.094 . S
Co231 O238 2.122 . S
Co231 O252 2.115 . S
Co231 O253 2.315 . S
O232 Co231 2.053 . S
O232 C244 1.259 . S
O233 Co225 2.047 . S
O233 C244 1.257 . S
O234 Co231 2.094 . S
O234 C245 1.253 . S
O235 Co226 2.063 . S
O235 C245 1.268 . S
O236 Co224 2.115 . S
O236 C246 1.281 . S
O237 Co224 2.315 1_554 S
O237 C246 1.252 1_554 S
O238 Co231 2.122 . S
O238 C247 1.272 . S
O239 Co225 2.113 . S
O239 C247 1.245 . S
C240 O248 1.259 . S
C240 O249 1.257 . S
C241 O250 1.268 . S
C241 O251 1.253 . S
C242 O252 1.281 . S
C242 O253 1.252 . S
C243 O254 1.272 . S
C243 O255 1.245 . S
C244 O232 1.259 . S
C244 O233 1.257 . S
C245 O234 1.253 . S
C245 O235 1.268 . S
C246 O236 1.281 . S
C246 O237 1.252 1_556 S
C247 O238 1.272 . S
C247 O239 1.245 . S
O248 Co224 2.053 . S
O248 C240 1.259 . S
O249 Co226 2.047 1_556 S
O249 C240 1.257 . S
O250 Co225 2.063 . S
O250 C241 1.268 . S
O251 Co224 2.094 1_554 S
O251 C241 1.253 . S
O252 Co231 2.115 . S
O252 C242 1.281 . S
O253 Co231 2.315 . S
O253 C242 1.252 . S
O254 Co224 2.122 . S
O254 C243 1.272 . S
O255 Co226 2.113 1_556 S
O255 C243 1.245 . S
Co256 H259 2.400 1_556 S
Co256 O260 2.009 1_556 S
Co256 O268 2.115 . S
Co256 O269 2.315 1_556 S
Co256 O280 2.053 . S
Co256 O283 2.094 1_556 S
Co256 O286 2.122 . S
Co257 O260 2.126 . S
Co257 H261 2.388 . S
Co257 O262 2.053 . S
Co257 O265 2.047 . S
Co257 O271 2.113 . S
Co257 O282 2.063 . S
Co258 H259 2.388 . S
Co258 O260 2.053 . S
Co258 O262 2.126 . S
Co258 O267 2.063 . S
Co258 O281 2.047 1_554 S
Co258 O287 2.113 1_554 S
H259 Co256 2.400 1_554 S
H259 Co258 2.388 . S
H259 O260 0.760 . S
O260 Co256 2.009 1_554 S
O260 Co257 2.126 . S
O260 Co258 2.053 . S
O260 H259 0.760 . S
H261 Co257 2.388 . S
H261 O262 0.760 . S
H261 Co263 2.400 . S
O262 Co257 2.053 . S
O262 Co258 2.126 . S
O262 H261 0.760 . S
O262 Co263 2.009 . S
Co263 H261 2.400 . S
Co263 O262 2.009 . S
Co263 O264 2.053 . S
Co263 O266 2.094 . S
Co263 O270 2.122 . S
Co263 O284 2.115 . S
Co263 O285 2.315 . S
O264 Co263 2.053 . S
O264 C276 1.259 . S
O265 Co257 2.047 . S
O265 C276 1.257 . S
O266 Co263 2.094 . S
O266 C277 1.253 . S
O267 Co258 2.063 . S
O267 C277 1.268 . S
O268 Co256 2.115 . S
O268 C278 1.281 . S
O269 Co256 2.315 1_554 S
O269 C278 1.252 1_554 S
O270 Co263 2.122 . S
O270 C279 1.272 . S
O271 Co257 2.113 . S
O271 C279 1.245 . S
C272 O280 1.259 . S
C272 O281 1.257 . S
C273 O282 1.268 . S
C273 O283 1.253 . S
C274 O284 1.281 . S
C274 O285 1.252 . S
C275 O286 1.272 . S
C275 O287 1.245 . S
C276 O264 1.259 . S
C276 O265 1.257 . S
C277 O266 1.253 . S
C277 O267 1.268 . S
C278 O268 1.281 . S
C278 O269 1.252 1_556 S
C279 O270 1.272 . S
C279 O271 1.245 . S
O280 Co256 2.053 . S
O280 C272 1.259 . S
O281 Co258 2.047 1_556 S
O281 C272 1.257 . S
O282 Co257 2.063 . S
O282 C273 1.268 . S
O283 Co256 2.094 1_554 S
O283 C273 1.253 . S
O284 Co263 2.115 . S
O284 C274 1.281 . S
O285 Co263 2.315 . S
O285 C274 1.252 . S
O286 Co256 2.122 . S
O286 C275 1.272 . S
O287 Co258 2.113 1_556 S
O287 C275 1.245 . S
Co288 H291 2.400 . S
Co288 O292 2.009 . S
Co288 O300 2.115 . S
Co288 O301 2.315 . S
Co288 O312 2.053 . S
Co288 O315 2.094 . S
Co288 O318 2.122 . S
Co289 O292 2.126 . S
Co289 H293 2.388 . S
Co289 O294 2.053 . S
Co289 O297 2.047 . S
Co289 O303 2.113 . S
Co289 O314 2.063 . S
Co290 H291 2.388 . S
Co290 O292 2.053 . S
Co290 O294 2.126 . S
Co290 O299 2.063 . S
Co290 O313 2.047 . S
Co290 O319 2.113 . S
H291 Co288 2.400 . S
H291 Co290 2.388 . S
H291 O292 0.760 . S
O292 Co288 2.009 . S
O292 Co289 2.126 . S
O292 Co290 2.053 . S
O292 H291 0.760 . S
H293 Co289 2.388 . S
H293 O294 0.760 . S
H293 Co295 2.400 . S
O294 Co289 2.053 . S
O294 Co290 2.126 . S
O294 H293 0.760 . S
O294 Co295 2.009 . S
Co295 H293 2.400 . S
Co295 O294 2.009 . S
Co295 O296 2.053 . S
Co295 O298 2.094 . S
Co295 O302 2.122 . S
Co295 O316 2.115 . S
Co295 O317 2.315 . S
O296 Co295 2.053 . S
O296 C308 1.259 . S
O297 Co289 2.047 . S
O297 C308 1.257 . S
O298 Co295 2.094 . S
O298 C309 1.253 . S
O299 Co290 2.063 . S
O299 C309 1.268 . S
O300 Co288 2.115 . S
O300 C310 1.281 . S
O301 Co288 2.315 . S
O301 C310 1.252 . S
O302 Co295 2.122 . S
O302 C311 1.272 . S
O303 Co289 2.113 . S
O303 C311 1.245 . S
C304 O312 1.259 . S
C304 O313 1.257 . S
C305 O314 1.268 . S
C305 O315 1.253 . S
C306 O316 1.281 . S
C306 O317 1.252 . S
C307 O318 1.272 . S
C307 O319 1.245 . S
C308 O296 1.259 . S
C308 O297 1.257 . S
C309 O298 1.253 . S
C309 O299 1.268 . S
C310 O300 1.281 . S
C310 O301 1.252 . S
C311 O302 1.272 . S
C311 O303 1.245 . S
O312 Co288 2.053 . S
O312 C304 1.259 . S
O313 Co290 2.047 . S
O313 C304 1.257 . S
O314 Co289 2.063 . S
O314 C305 1.268 . S
O315 Co288 2.094 . S
O315 C305 1.253 . S
O316 Co295 2.115 . S
O316 C306 1.281 . S
O317 Co295 2.315 . S
O317 C306 1.252 . S
O318 Co288 2.122 . S
O318 C307 1.272 . S
O319 Co290 2.113 . S
O319 C307 1.245 . S
Co320 H323 2.400 . S
Co320 O324 2.009 . S
Co320 O332 2.115 . S
Co320 O333 2.315 . S
Co320 O344 2.053 . S
Co320 O347 2.094 . S
Co320 O350 2.122 . S
Co321 O324 2.126 . S
Co321 H325 2.388 . S
Co321 O326 2.053 . S
Co321 O329 2.047 . S
Co321 O335 2.113 . S
Co321 O346 2.063 . S
Co322 H323 2.388 . S
Co322 O324 2.053 . S
Co322 O326 2.126 . S
Co322 O331 2.063 . S
Co322 O345 2.047 . S
Co322 O351 2.113 . S
H323 Co320 2.400 . S
H323 Co322 2.388 . S
H323 O324 0.760 . S
O324 Co320 2.009 . S
O324 Co321 2.126 . S
O324 Co322 2.053 . S
O324 H323 0.760 . S
H325 Co321 2.388 . S
H325 O326 0.760 . S
H325 Co327 2.400 . S
O326 Co321 2.053 . S
O326 Co322 2.126 . S
O326 H325 0.760 . S
O326 Co327 2.009 . S
Co327 H325 2.400 . S
Co327 O326 2.009 . S
Co327 O328 2.053 . S
Co327 O330 2.094 . S
Co327 O334 2.122 . S
Co327 O348 2.115 . S
Co327 O349 2.315 . S
O328 Co327 2.053 . S
O328 C340 1.259 . S
O329 Co321 2.047 . S
O329 C340 1.257 . S
O330 Co327 2.094 . S
O330 C341 1.253 . S
O331 Co322 2.063 . S
O331 C341 1.268 . S
O332 Co320 2.115 . S
O332 C342 1.281 . S
O333 Co320 2.315 . S
O333 C342 1.252 . S
O334 Co327 2.122 . S
O334 C343 1.272 . S
O335 Co321 2.113 . S
O335 C343 1.245 . S
C336 O344 1.259 . S
C336 O345 1.257 . S
C337 O346 1.268 . S
C337 O347 1.253 . S
C338 O348 1.281 . S
C338 O349 1.252 . S
C339 O350 1.272 . S
C339 O351 1.245 . S
C340 O328 1.259 . S
C340 O329 1.257 . S
C341 O330 1.253 . S
C341 O331 1.268 . S
C342 O332 1.281 . S
C342 O333 1.252 . S
C343 O334 1.272 . S
C343 O335 1.245 . S
O344 Co320 2.053 . S
O344 C336 1.259 . S
O345 Co322 2.047 . S
O345 C336 1.257 . S
O346 Co321 2.063 . S
O346 C337 1.268 . S
O347 Co320 2.094 . S
O347 C337 1.253 . S
O348 Co327 2.115 . S
O348 C338 1.281 . S
O349 Co327 2.315 . S
O349 C338 1.252 . S
O350 Co320 2.122 . S
O350 C339 1.272 . S
O351 Co322 2.113 . S
O351 C339 1.245 . S
Co352 H355 2.400 . S
Co352 O356 2.009 . S
Co352 O364 2.115 . S
Co352 O365 2.315 . S
Co352 O376 2.053 . S
Co352 O379 2.094 . S
Co352 O382 2.122 . S
Co353 O356 2.126 . S
Co353 H357 2.388 . S
Co353 O358 2.053 . S
Co353 O361 2.047 . S
Co353 O367 2.113 . S
Co353 O378 2.063 . S
Co354 H355 2.388 . S
Co354 O356 2.053 . S
Co354 O358 2.126 . S
Co354 O363 2.063 . S
Co354 O377 2.047 . S
Co354 O383 2.113 . S
H355 Co352 2.400 . S
H355 Co354 2.388 . S
H355 O356 0.760 . S
O356 Co352 2.009 . S
O356 Co353 2.126 . S
O356 Co354 2.053 . S
O356 H355 0.760 . S
H357 Co353 2.388 . S
H357 O358 0.760 . S
H357 Co359 2.400 . S
O358 Co353 2.053 . S
O358 Co354 2.126 . S
O358 H357 0.760 . S
O358 Co359 2.009 . S
Co359 H357 2.400 . S
Co359 O358 2.009 . S
Co359 O360 2.053 . S
Co359 O362 2.094 . S
Co359 O366 2.122 . S
Co359 O380 2.115 . S
Co359 O381 2.315 . S
O360 Co359 2.053 . S
O360 C372 1.259 . S
O361 Co353 2.047 . S
O361 C372 1.257 . S
O362 Co359 2.094 . S
O362 C373 1.253 . S
O363 Co354 2.063 . S
O363 C373 1.268 . S
O364 Co352 2.115 . S
O364 C374 1.281 . S
O365 Co352 2.315 . S
O365 C374 1.252 . S
O366 Co359 2.122 . S
O366 C375 1.272 . S
O367 Co353 2.113 . S
O367 C375 1.245 . S
C368 O376 1.259 . S
C368 O377 1.257 . S
C369 O378 1.268 . S
C369 O379 1.253 . S
C370 O380 1.281 . S
C370 O381 1.252 . S
C371 O382 1.272 . S
C371 O383 1.245 . S
C372 O360 1.259 . S
C372 O361 1.257 . S
C373 O362 1.253 . S
C373 O363 1.268 . S
C374 O364 1.281 . S
C374 O365 1.252 . S
C375 O366 1.272 . S
C375 O367 1.245 . S
O376 Co352 2.053 . S
O376 C368 1.259 . S
O377 Co354 2.047 . S
O377 C368 1.257 . S
O378 Co353 2.063 . S
O378 C369 1.268 . S
O379 Co352 2.094 . S
O379 C369 1.253 . S
O380 Co359 2.115 . S
O380 C370 1.281 . S
O381 Co359 2.315 . S
O381 C370 1.252 . S
O382 Co352 2.122 . S
O382 C371 1.272 . S
O383 Co354 2.113 . S
O383 C371 1.245 . S
Co384 H387 2.400 . S
Co384 O388 2.009 . S
Co384 O396 2.115 . S
Co384 O397 2.315 . S
Co384 O408 2.053 . S
Co384 O411 2.094 . S
Co384 O414 2.122 . S
Co385 O388 2.126 . S
Co385 H389 2.388 . S
Co385 O390 2.053 . S
Co385 O393 2.047 . S
Co385 O399 2.113 . S
Co385 O410 2.063 . S
Co386 H387 2.388 . S
Co386 O388 2.053 . S
Co386 O390 2.126 . S
Co386 O395 2.063 . S
Co386 O409 2.047 . S
Co386 O415 2.113 . S
H387 Co384 2.400 . S
H387 Co386 2.388 . S
H387 O388 0.760 . S
O388 Co384 2.009 . S
O388 Co385 2.126 . S
O388 Co386 2.053 . S
O388 H387 0.760 . S
H389 Co385 2.388 . S
H389 O390 0.760 . S
H389 Co391 2.400 . S
O390 Co385 2.053 . S
O390 Co386 2.126 . S
O390 H389 0.760 . S
O390 Co391 2.009 . S
Co391 H389 2.400 . S
Co391 O390 2.009 . S
Co391 O392 2.053 . S
Co391 O394 2.094 . S
Co391 O398 2.122 . S
Co391 O412 2.115 . S
Co391 O413 2.315 . S
O392 Co391 2.053 . S
O392 C404 1.259 . S
O393 Co385 2.047 . S
O393 C404 1.257 . S
O394 Co391 2.094 . S
O394 C405 1.253 . S
O395 Co386 2.063 . S
O395 C405 1.268 . S
O396 Co384 2.115 . S
O396 C406 1.281 . S
O397 Co384 2.315 . S
O397 C406 1.252 . S
O398 Co391 2.122 . S
O398 C407 1.272 . S
O399 Co385 2.113 . S
O399 C407 1.245 . S
C400 O408 1.259 . S
C400 O409 1.257 . S
C401 O410 1.268 . S
C401 O411 1.253 . S
C402 O412 1.281 . S
C402 O413 1.252 . S
C403 O414 1.272 . S
C403 O415 1.245 . S
C404 O392 1.259 . S
C404 O393 1.257 . S
C405 O394 1.253 . S
C405 O395 1.268 . S
C406 O396 1.281 . S
C406 O397 1.252 . S
C407 O398 1.272 . S
C407 O399 1.245 . S
O408 Co384 2.053 . S
O408 C400 1.259 . S
O409 Co386 2.047 . S
O409 C400 1.257 . S
O410 Co385 2.063 . S
O410 C401 1.268 . S
O411 Co384 2.094 . S
O411 C401 1.253 . S
O412 Co391 2.115 . S
O412 C402 1.281 . S
O413 Co391 2.315 . S
O413 C402 1.252 . S
O414 Co384 2.122 . S
O414 C403 1.272 . S
O415 Co386 2.113 . S
O415 C403 1.245 . S
Co416 H419 2.400 . S
Co416 O420 2.009 . S
Co416 O428 2.115 . S
Co416 O429 2.315 . S
Co416 O440 2.053 . S
Co416 O443 2.094 . S
Co416 O446 2.122 . S
Co417 O420 2.126 . S
Co417 H421 2.388 . S
Co417 O422 2.053 . S
Co417 O425 2.047 . S
Co417 O431 2.113 . S
Co417 O442 2.063 . S
Co418 H419 2.388 . S
Co418 O420 2.053 . S
Co418 O422 2.126 . S
Co418 O427 2.063 . S
Co418 O441 2.047 . S
Co418 O447 2.113 . S
H419 Co416 2.400 . S
H419 Co418 2.388 . S
H419 O420 0.760 . S
O420 Co416 2.009 . S
O420 Co417 2.126 . S
O420 Co418 2.053 . S
O420 H419 0.760 . S
H421 Co417 2.388 . S
H421 O422 0.760 . S
H421 Co423 2.400 . S
O422 Co417 2.053 . S
O422 Co418 2.126 . S
O422 H421 0.760 . S
O422 Co423 2.009 . S
Co423 H421 2.400 . S
Co423 O422 2.009 . S
Co423 O424 2.053 . S
Co423 O426 2.094 . S
Co423 O430 2.122 . S
Co423 O444 2.115 . S
Co423 O445 2.315 . S
O424 Co423 2.053 . S
O424 C436 1.259 . S
O425 Co417 2.047 . S
O425 C436 1.257 . S
O426 Co423 2.094 . S
O426 C437 1.253 . S
O427 Co418 2.063 . S
O427 C437 1.268 . S
O428 Co416 2.115 . S
O428 C438 1.281 . S
O429 Co416 2.315 . S
O429 C438 1.252 . S
O430 Co423 2.122 . S
O430 C439 1.272 . S
O431 Co417 2.113 . S
O431 C439 1.245 . S
C432 O440 1.259 . S
C432 O441 1.257 . S
C433 O442 1.268 . S
C433 O443 1.253 . S
C434 O444 1.281 . S
C434 O445 1.252 . S
C435 O446 1.272 . S
C435 O447 1.245 . S
C436 O424 1.259 . S
C436 O425 1.257 . S
C437 O426 1.253 . S
C437 O427 1.268 . S
C438 O428 1.281 . S
C438 O429 1.252 . S
C439 O430 1.272 . S
C439 O431 1.245 . S
O440 Co416 2.053 . S
O440 C432 1.259 . S
O441 Co418 2.047 . S
O441 C432 1.257 . S
O442 Co417 2.063 . S
O442 C433 1.268 . S
O443 Co416 2.094 . S
O443 C433 1.253 . S
O444 Co423 2.115 . S
O444 C434 1.281 . S
O445 Co423 2.315 . S
O445 C434 1.252 . S
O446 Co416 2.122 . S
O446 C435 1.272 . S
O447 Co418 2.113 . S
O447 C435 1.245 . S
Co448 H451 2.400 . S
Co448 O452 2.009 . S
Co448 O460 2.115 . S
Co448 O461 2.315 . S
Co448 O472 2.053 . S
Co448 O475 2.094 . S
Co448 O478 2.122 . S
Co449 O452 2.126 . S
Co449 H453 2.388 . S
Co449 O454 2.053 . S
Co449 O457 2.047 . S
Co449 O463 2.113 . S
Co449 O474 2.063 . S
Co450 H451 2.388 . S
Co450 O452 2.053 . S
Co450 O454 2.126 . S
Co450 O459 2.063 . S
Co450 O473 2.047 . S
Co450 O479 2.113 . S
H451 Co448 2.400 . S
H451 Co450 2.388 . S
H451 O452 0.760 . S
O452 Co448 2.009 . S
O452 Co449 2.126 . S
O452 Co450 2.053 . S
O452 H451 0.760 . S
H453 Co449 2.388 . S
H453 O454 0.760 . S
H453 Co455 2.400 . S
O454 Co449 2.053 . S
O454 Co450 2.126 . S
O454 H453 0.760 . S
O454 Co455 2.009 . S
Co455 H453 2.400 . S
Co455 O454 2.009 . S
Co455 O456 2.053 . S
Co455 O458 2.094 . S
Co455 O462 2.122 . S
Co455 O476 2.115 . S
Co455 O477 2.315 . S
O456 Co455 2.053 . S
O456 C468 1.259 . S
O457 Co449 2.047 . S
O457 C468 1.257 . S
O458 Co455 2.094 . S
O458 C469 1.253 . S
O459 Co450 2.063 . S
O459 C469 1.268 . S
O460 Co448 2.115 . S
O460 C470 1.281 . S
O461 Co448 2.315 . S
O461 C470 1.252 . S
O462 Co455 2.122 . S
O462 C471 1.272 . S
O463 Co449 2.113 . S
O463 C471 1.245 . S
C464 O472 1.259 . S
C464 O473 1.257 . S
C465 O474 1.268 . S
C465 O475 1.253 . S
C466 O476 1.281 . S
C466 O477 1.252 . S
C467 O478 1.272 . S
C467 O479 1.245 . S
C468 O456 1.259 . S
C468 O457 1.257 . S
C469 O458 1.253 . S
C469 O459 1.268 . S
C470 O460 1.281 . S
C470 O461 1.252 . S
C471 O462 1.272 . S
C471 O463 1.245 . S
O472 Co448 2.053 . S
O472 C464 1.259 . S
O473 Co450 2.047 . S
O473 C464 1.257 . S
O474 Co449 2.063 . S
O474 C465 1.268 . S
O475 Co448 2.094 . S
O475 C465 1.253 . S
O476 Co455 2.115 . S
O476 C466 1.281 . S
O477 Co455 2.315 . S
O477 C466 1.252 . S
O478 Co448 2.122 . S
O478 C467 1.272 . S
O479 Co450 2.113 . S
O479 C467 1.245 . S
Co480 H483 2.400 . S
Co480 O484 2.009 . S
Co480 O492 2.115 . S
Co480 O493 2.315 . S
Co480 O504 2.053 . S
Co480 O507 2.094 . S
Co480 O510 2.122 . S
Co481 O484 2.126 . S
Co481 H485 2.388 . S
Co481 O486 2.053 . S
Co481 O489 2.047 1_556 S
Co481 O495 2.113 1_556 S
Co481 O506 2.063 . S
Co482 H483 2.388 . S
Co482 O484 2.053 . S
Co482 O486 2.126 . S
Co482 O491 2.063 . S
Co482 O505 2.047 . S
Co482 O511 2.113 . S
H483 Co480 2.400 . S
H483 Co482 2.388 . S
H483 O484 0.760 . S
O484 Co480 2.009 . S
O484 Co481 2.126 . S
O484 Co482 2.053 . S
O484 H483 0.760 . S
H485 Co481 2.388 . S
H485 O486 0.760 . S
H485 Co487 2.400 1_556 S
O486 Co481 2.053 . S
O486 Co482 2.126 . S
O486 H485 0.760 . S
O486 Co487 2.009 1_556 S
Co487 H485 2.400 1_554 S
Co487 O486 2.009 1_554 S
Co487 O488 2.053 . S
Co487 O490 2.094 1_554 S
Co487 O494 2.122 . S
Co487 O508 2.115 . S
Co487 O509 2.315 1_554 S
O488 Co487 2.053 . S
O488 C500 1.259 . S
O489 Co481 2.047 1_554 S
O489 C500 1.257 . S
O490 Co487 2.094 1_556 S
O490 C501 1.253 . S
O491 Co482 2.063 . S
O491 C501 1.268 . S
O492 Co480 2.115 . S
O492 C502 1.281 . S
O493 Co480 2.315 . S
O493 C502 1.252 . S
O494 Co487 2.122 . S
O494 C503 1.272 . S
O495 Co481 2.113 1_554 S
O495 C503 1.245 . S
C496 O504 1.259 . S
C496 O505 1.257 . S
C497 O506 1.268 . S
C497 O507 1.253 . S
C498 O508 1.281 . S
C498 O509 1.252 1_554 S
C499 O510 1.272 . S
C499 O511 1.245 . S
C500 O488 1.259 . S
C500 O489 1.257 . S
C501 O490 1.253 . S
C501 O491 1.268 . S
C502 O492 1.281 . S
C502 O493 1.252 . S
C503 O494 1.272 . S
C503 O495 1.245 . S
O504 Co480 2.053 . S
O504 C496 1.259 . S
O505 Co482 2.047 . S
O505 C496 1.257 . S
O506 Co481 2.063 . S
O506 C497 1.268 . S
O507 Co480 2.094 . S
O507 C497 1.253 . S
O508 Co487 2.115 . S
O508 C498 1.281 . S
O509 Co487 2.315 1_556 S
O509 C498 1.252 1_556 S
O510 Co480 2.122 . S
O510 C499 1.272 . S
O511 Co482 2.113 . S
O511 C499 1.245 . S
Co512 H515 2.400 . S
Co512 O516 2.009 . S
Co512 O524 2.115 . S
Co512 O525 2.315 . S
Co512 O536 2.053 . S
Co512 O539 2.094 . S
Co512 O542 2.122 . S
Co513 O516 2.126 . S
Co513 H517 2.388 . S
Co513 O518 2.053 . S
Co513 O521 2.047 1_556 S
Co513 O527 2.113 1_556 S
Co513 O538 2.063 . S
Co514 H515 2.388 . S
Co514 O516 2.053 . S
Co514 O518 2.126 . S
Co514 O523 2.063 . S
Co514 O537 2.047 . S
Co514 O543 2.113 . S
H515 Co512 2.400 . S
H515 Co514 2.388 . S
H515 O516 0.760 . S
O516 Co512 2.009 . S
O516 Co513 2.126 . S
O516 Co514 2.053 . S
O516 H515 0.760 . S
H517 Co513 2.388 . S
H517 O518 0.760 . S
H517 Co519 2.400 1_556 S
O518 Co513 2.053 . S
O518 Co514 2.126 . S
O518 H517 0.760 . S
O518 Co519 2.009 1_556 S
Co519 H517 2.400 1_554 S
Co519 O518 2.009 1_554 S
Co519 O520 2.053 . S
Co519 O522 2.094 1_554 S
Co519 O526 2.122 . S
Co519 O540 2.115 . S
Co519 O541 2.315 1_554 S
O520 Co519 2.053 . S
O520 C532 1.259 . S
O521 Co513 2.047 1_554 S
O521 C532 1.257 . S
O522 Co519 2.094 1_556 S
O522 C533 1.253 . S
O523 Co514 2.063 . S
O523 C533 1.268 . S
O524 Co512 2.115 . S
O524 C534 1.281 . S
O525 Co512 2.315 . S
O525 C534 1.252 . S
O526 Co519 2.122 . S
O526 C535 1.272 . S
O527 Co513 2.113 1_554 S
O527 C535 1.245 . S
C528 O536 1.259 . S
C528 O537 1.257 . S
C529 O538 1.268 . S
C529 O539 1.253 . S
C530 O540 1.281 . S
C530 O541 1.252 1_554 S
C531 O542 1.272 . S
C531 O543 1.245 . S
C532 O520 1.259 . S
C532 O521 1.257 . S
C533 O522 1.253 . S
C533 O523 1.268 . S
C534 O524 1.281 . S
C534 O525 1.252 . S
C535 O526 1.272 . S
C535 O527 1.245 . S
O536 Co512 2.053 . S
O536 C528 1.259 . S
O537 Co514 2.047 . S
O537 C528 1.257 . S
O538 Co513 2.063 . S
O538 C529 1.268 . S
O539 Co512 2.094 . S
O539 C529 1.253 . S
O540 Co519 2.115 . S
O540 C530 1.281 . S
O541 Co519 2.315 1_556 S
O541 C530 1.252 1_556 S
O542 Co512 2.122 . S
O542 C531 1.272 . S
O543 Co514 2.113 . S
O543 C531 1.245 . S
Co544 H547 2.400 . S
Co544 O548 2.009 . S
Co544 O556 2.115 . S
Co544 O557 2.315 . S
Co544 O568 2.053 . S
Co544 O571 2.094 . S
Co544 O574 2.122 . S
Co545 O548 2.126 . S
Co545 H549 2.388 . S
Co545 O550 2.053 . S
Co545 O553 2.047 1_556 S
Co545 O559 2.113 1_556 S
Co545 O570 2.063 . S
Co546 H547 2.388 . S
Co546 O548 2.053 . S
Co546 O550 2.126 . S
Co546 O555 2.063 . S
Co546 O569 2.047 . S
Co546 O575 2.113 . S
H547 Co544 2.400 . S
H547 Co546 2.388 . S
H547 O548 0.760 . S
O548 Co544 2.009 . S
O548 Co545 2.126 . S
O548 Co546 2.053 . S
O548 H547 0.760 . S
H549 Co545 2.388 . S
H549 O550 0.760 . S
H549 Co551 2.400 1_556 S
O550 Co545 2.053 . S
O550 Co546 2.126 . S
O550 H549 0.760 . S
O550 Co551 2.009 1_556 S
Co551 H549 2.400 1_554 S
Co551 O550 2.009 1_554 S
Co551 O552 2.053 . S
Co551 O554 2.094 1_554 S
Co551 O558 2.122 . S
Co551 O572 2.115 . S
Co551 O573 2.315 1_554 S
O552 Co551 2.053 . S
O552 C564 1.259 . S
O553 Co545 2.047 1_554 S
O553 C564 1.257 . S
O554 Co551 2.094 1_556 S
O554 C565 1.253 . S
O555 Co546 2.063 . S
O555 C565 1.268 . S
O556 Co544 2.115 . S
O556 C566 1.281 . S
O557 Co544 2.315 . S
O557 C566 1.252 . S
O558 Co551 2.122 . S
O558 C567 1.272 . S
O559 Co545 2.113 1_554 S
O559 C567 1.245 . S
C560 O568 1.259 . S
C560 O569 1.257 . S
C561 O570 1.268 . S
C561 O571 1.253 . S
C562 O572 1.281 . S
C562 O573 1.252 1_554 S
C563 O574 1.272 . S
C563 O575 1.245 . S
C564 O552 1.259 . S
C564 O553 1.257 . S
C565 O554 1.253 . S
C565 O555 1.268 . S
C566 O556 1.281 . S
C566 O557 1.252 . S
C567 O558 1.272 . S
C567 O559 1.245 . S
O568 Co544 2.053 . S
O568 C560 1.259 . S
O569 Co546 2.047 . S
O569 C560 1.257 . S
O570 Co545 2.063 . S
O570 C561 1.268 . S
O571 Co544 2.094 . S
O571 C561 1.253 . S
O572 Co551 2.115 . S
O572 C562 1.281 . S
O573 Co551 2.315 1_556 S
O573 C562 1.252 1_556 S
O574 Co544 2.122 . S
O574 C563 1.272 . S
O575 Co546 2.113 . S
O575 C563 1.245 . S
C576 C577 1.369 . S
C576 C578 1.419 . S
C576 H580 0.930 . S
C577 C576 1.369 . S
C577 C586 1.429 . S
C578 C576 1.419 . S
C578 C579 1.363 . S
C578 H581 0.929 . S
C579 C578 1.363 . S
C579 C585 1.428 . S
H580 C576 0.930 . S
H581 C578 0.929 . S
S582 N583 1.613 . S
S582 N584 1.610 . S
N583 S582 1.613 . S
N583 C586 1.350 . S
N584 S582 1.610 . S
N584 C585 1.351 . S
C585 C579 1.428 . S
C585 N584 1.351 . S
C585 C586 1.434 . S
C586 C577 1.429 . S
C586 N583 1.350 . S
C586 C585 1.434 . S
C587 C588 1.369 . S
C587 C589 1.419 . S
C587 H591 0.930 . S
C588 C587 1.369 . S
C588 C597 1.429 . S
C589 C587 1.419 . S
C589 C590 1.363 . S
C589 H592 0.929 . S
C590 C589 1.363 . S
C590 C596 1.428 1_545 S
H591 C587 0.930 . S
H592 C589 0.929 . S
S593 N594 1.613 1_565 S
S593 N595 1.610 . S
N594 S593 1.613 1_545 S
N594 C597 1.350 . S
N595 S593 1.610 . S
N595 C596 1.351 . S
C596 C590 1.428 1_565 S
C596 N595 1.351 . S
C596 C597 1.434 1_565 S
C597 C588 1.429 . S
C597 N594 1.350 . S
C597 C596 1.434 1_545 S
C598 C599 1.369 . S
C598 C600 1.419 1_655 S
C598 H602 0.930 . S
C599 C598 1.369 . S
C599 C608 1.429 . S
C600 C598 1.419 1_455 S
C600 C601 1.363 . S
C600 H603 0.916 1_565 S
C601 C600 1.363 . S
C601 C607 1.428 1_455 S
H602 C598 0.930 . S
H603 C600 0.916 1_545 S
S604 N605 1.613 . S
S604 N606 1.610 . S
N605 S604 1.613 . S
N605 C608 1.350 . S
N606 S604 1.610 . S
N606 C607 1.351 . S
C607 C601 1.428 1_655 S
C607 N606 1.351 . S
C607 C608 1.434 . S
C608 C599 1.429 . S
C608 N605 1.350 . S
C608 C607 1.434 . S
C609 C610 1.369 . S
C609 C611 1.419 . S
C609 H613 0.930 . S
C610 C609 1.369 . S
C610 C619 1.429 . S
C611 C609 1.419 . S
C611 C612 1.363 . S
C611 H614 0.929 . S
C612 C611 1.363 . S
C612 C618 1.429 . S
H613 C609 0.930 . S
H614 C611 0.929 . S
S615 N616 1.613 . S
S615 N617 1.610 1_455 S
N616 S615 1.613 . S
N616 C619 1.350 1_445 S
N617 S615 1.610 1_655 S
N617 C618 1.338 1_545 S
C618 C612 1.429 . S
C618 N617 1.338 1_565 S
C618 C619 1.446 . S
C619 C610 1.429 . S
C619 N616 1.350 1_665 S
C619 C618 1.446 . S
C620 C621 1.369 . S
C620 C622 1.419 1_545 S
C620 H624 0.930 . S
C621 C620 1.369 . S
C621 C630 1.429 1_545 S
C622 C620 1.419 1_565 S
C622 C623 1.363 . S
C622 H625 0.920 . S
C623 C622 1.363 . S
C623 C629 1.428 . S
H624 C620 0.930 . S
H625 C622 0.920 . S
S626 N627 1.613 1_655 S
S626 N628 1.610 . S
N627 S626 1.613 1_455 S
N627 C630 1.350 . S
N628 S626 1.610 . S
N628 C629 1.351 1_655 S
C629 C623 1.428 . S
C629 N628 1.351 1_455 S
C629 C630 1.434 . S
C630 C621 1.429 1_565 S
C630 N627 1.350 . S
C630 C629 1.434 . S
C631 C632 1.369 . S
C631 C633 1.419 1_455 S
C631 H635 0.930 . S
C632 C631 1.369 . S
C632 C641 1.429 . S
C633 C631 1.419 1_655 S
C633 C634 1.363 . S
C633 H636 0.929 . S
C634 C633 1.363 . S
C634 C640 1.428 1_655 S
H635 C631 0.930 . S
H636 C633 0.929 . S
S637 N638 1.613 . S
S637 N639 1.610 . S
N638 S637 1.613 . S
N638 C641 1.350 . S
N639 S637 1.610 . S
N639 C640 1.351 . S
C640 C634 1.428 1_455 S
C640 N639 1.351 . S
C640 C641 1.434 . S
C641 C632 1.429 . S
C641 N638 1.350 . S
C641 C640 1.434 . S
C642 C643 1.369 . S
C642 C644 1.419 . S
C642 H646 0.930 . S
C643 C642 1.369 . S
C643 C652 1.429 . S
C644 C642 1.419 . S
C644 C645 1.363 . S
C644 H647 0.929 . S
C645 C644 1.363 . S
C645 C651 1.428 . S
H646 C642 0.930 . S
H647 C644 0.929 . S
S648 N649 1.613 1_556 S
S648 N650 1.610 . S
N649 S648 1.613 1_554 S
N649 C652 1.350 . S
N650 S648 1.610 . S
N650 C651 1.351 1_556 S
C651 C645 1.428 . S
C651 N650 1.351 1_554 S
C651 C652 1.434 . S
C652 C643 1.429 . S
C652 N649 1.350 . S
C652 C651 1.434 . S
C653 C654 1.369 . S
C653 C655 1.419 . S
C653 H657 0.930 . S
C654 C653 1.369 . S
C654 C663 1.429 . S
C655 C653 1.419 . S
C655 C656 1.363 . S
C655 H658 0.929 . S
C656 C655 1.363 . S
C656 C662 1.426 1_554 S
H657 C653 0.930 . S
H658 C655 0.929 . S
S659 N660 1.613 1_556 S
S659 N661 1.610 . S
N660 S659 1.613 1_554 S
N660 C663 1.350 . S
N661 S659 1.610 . S
N661 C662 1.364 . S
C662 C656 1.426 1_556 S
C662 N661 1.364 . S
C662 C663 1.423 1_556 S
C663 C654 1.429 . S
C663 N660 1.350 . S
C663 C662 1.423 1_554 S
C664 C665 1.369 . S
C664 C666 1.419 . S
C664 H668 0.930 . S
C665 C664 1.369 . S
C665 C674 1.429 . S
C666 C664 1.419 . S
C666 C667 1.363 . S
C666 H669 0.929 . S
C667 C666 1.363 . S
C667 C673 1.428 . S
H668 C664 0.930 . S
H669 C666 0.929 . S
S670 N671 1.613 . S
S670 N672 1.610 1_556 S
N671 S670 1.613 . S
N671 C674 1.350 1_556 S
N672 S670 1.610 1_554 S
N672 C673 1.351 . S
C673 C667 1.428 . S
C673 N672 1.351 . S
C673 C674 1.434 . S
C674 C665 1.429 . S
C674 N671 1.350 1_554 S
C674 C673 1.434 . S
C675 C676 1.369 . S
C675 C677 1.419 . S
C675 H679 0.930 . S
C676 C675 1.369 . S
C676 C685 1.429 . S
C677 C675 1.419 . S
C677 C678 1.363 . S
C677 H680 0.929 . S
C678 C677 1.363 . S
C678 C684 1.428 . S
H679 C675 0.930 . S
H680 C677 0.929 . S
S681 N682 1.613 . S
S681 N683 1.610 . S
N682 S681 1.613 . S
N682 C685 1.350 . S
N683 S681 1.610 . S
N683 C684 1.351 . S
C684 C678 1.428 . S
C684 N683 1.351 . S
C684 C685 1.434 . S
C685 C676 1.429 . S
C685 N682 1.350 . S
C685 C684 1.434 . S
C686 C687 1.369 . S
C686 C688 1.419 . S
C686 H690 0.930 . S
C687 C686 1.369 . S
C687 C696 1.429 . S
C688 C686 1.419 . S
C688 C689 1.363 . S
C688 H691 0.929 . S
C689 C688 1.363 . S
C689 C695 1.428 . S
H690 C686 0.930 . S
H691 C688 0.929 . S
S692 N693 1.613 . S
S692 N694 1.610 . S
N693 S692 1.613 . S
N693 C696 1.350 . S
N694 S692 1.610 . S
N694 C695 1.351 . S
C695 C689 1.428 . S
C695 N694 1.351 . S
C695 C696 1.434 . S
C696 C687 1.429 . S
C696 N693 1.350 . S
C696 C695 1.434 . S
C697 C698 1.369 . S
C697 C699 1.419 . S
C697 H701 0.930 . S
C698 C697 1.369 . S
C698 C707 1.429 . S
C699 C697 1.419 . S
C699 C700 1.363 . S
C699 H702 0.929 . S
C700 C699 1.363 . S
C700 C706 1.428 . S
H701 C697 0.930 . S
H702 C699 0.929 . S
S703 N704 1.613 . S
S703 N705 1.610 . S
N704 S703 1.613 . S
N704 C707 1.350 . S
N705 S703 1.610 . S
N705 C706 1.351 . S
C706 C700 1.428 . S
C706 N705 1.351 . S
C706 C707 1.434 . S
C707 C698 1.429 . S
C707 N704 1.350 . S
C707 C706 1.434 . S
C708 C709 1.369 . S
C708 C710 1.419 . S
C708 H712 0.930 . S
C709 C708 1.369 . S
C709 C718 1.429 . S
C710 C708 1.419 . S
C710 C711 1.363 . S
C710 H713 0.929 . S
C711 C710 1.363 . S
C711 C717 1.428 . S
H712 C708 0.930 . S
H713 C710 0.929 . S
S714 N715 1.613 . S
S714 N716 1.610 . S
N715 S714 1.613 . S
N715 C718 1.350 . S
N716 S714 1.610 . S
N716 C717 1.351 . S
C717 C711 1.428 . S
C717 N716 1.351 . S
C717 C718 1.434 . S
C718 C709 1.429 . S
C718 N715 1.350 . S
C718 C717 1.434 . S
C719 C720 1.369 . S
C719 C721 1.419 . S
C719 H723 0.930 . S
C720 C719 1.369 . S
C720 C729 1.429 . S
C721 C719 1.419 . S
C721 C722 1.363 . S
C721 H724 0.929 . S
C722 C721 1.363 . S
C722 C728 1.428 . S
H723 C719 0.930 . S
H724 C721 0.929 . S
S725 N726 1.613 . S
S725 N727 1.610 . S
N726 S725 1.613 . S
N726 C729 1.350 . S
N727 S725 1.610 . S
N727 C728 1.351 . S
C728 C722 1.428 . S
C728 N727 1.351 . S
C728 C729 1.434 . S
C729 C720 1.429 . S
C729 N726 1.350 . S
C729 C728 1.434 . S
C730 C731 1.369 . S
C730 C732 1.419 . S
C730 H734 0.930 . S
C731 C730 1.369 . S
C731 C740 1.429 . S
C732 C730 1.419 . S
C732 C733 1.363 . S
C732 H735 0.929 . S
C733 C732 1.363 . S
C733 C739 1.428 . S
H734 C730 0.930 . S
H735 C732 0.929 . S
S736 N737 1.613 . S
S736 N738 1.610 . S
N737 S736 1.613 . S
N737 C740 1.350 . S
N738 S736 1.610 . S
N738 C739 1.351 . S
C739 C733 1.428 . S
C739 N738 1.351 . S
C739 C740 1.434 . S
C740 C731 1.429 . S
C740 N737 1.350 . S
C740 C739 1.434 . S
C741 C742 1.369 1_554 S
C741 C743 1.419 1_554 S
C741 H745 0.930 . S
C742 C741 1.369 1_556 S
C742 C751 1.429 . S
C743 C741 1.419 1_556 S
C743 C744 1.363 . S
C743 H746 0.929 . S
C744 C743 1.363 . S
C744 C750 1.428 . S
H745 C741 0.930 . S
H746 C743 0.929 . S
S747 N748 1.613 . S
S747 N749 1.610 . S
N748 S747 1.613 . S
N748 C751 1.350 . S
N749 S747 1.610 . S
N749 C750 1.351 . S
C750 C744 1.428 . S
C750 N749 1.351 . S
C750 C751 1.434 . S
C751 C742 1.429 . S
C751 N748 1.350 . S
C751 C750 1.434 . S
C752 C753 1.369 . S
C752 C754 1.419 1_556 S
C752 H756 0.930 . S
C753 C752 1.369 . S
C753 C762 1.429 . S
C754 C752 1.419 1_554 S
C754 C755 1.363 1_554 S
C754 H757 0.929 . S
C755 C754 1.363 1_556 S
C755 C761 1.428 . S
H756 C752 0.930 . S
H757 C754 0.929 . S
S758 N759 1.613 . S
S758 N760 1.610 . S
N759 S758 1.613 . S
N759 C762 1.350 . S
N760 S758 1.610 . S
N760 C761 1.351 . S
C761 C755 1.428 . S
C761 N760 1.351 . S
C761 C762 1.434 . S
C762 C753 1.429 . S
C762 N759 1.350 . S
C762 C761 1.434 . S
C763 C764 1.369 . S
C763 C765 1.419 . S
C763 H767 0.930 . S
C764 C763 1.369 . S
C764 C773 1.429 . S
C765 C763 1.419 . S
C765 C766 1.363 . S
C765 H768 0.929 1_556 S
C766 C765 1.363 . S
C766 C772 1.428 . S
H767 C763 0.930 . S
H768 C765 0.929 1_554 S
S769 N770 1.613 . S
S769 N771 1.610 . S
N770 S769 1.613 . S
N770 C773 1.350 . S
N771 S769 1.610 . S
N771 C772 1.351 . S
C772 C766 1.428 . S
C772 N771 1.351 . S
C772 C773 1.434 . S
C773 C764 1.429 . S
C773 N770 1.350 . S
C773 C772 1.434 . S
C774 C775 1.369 . S
C774 C776 1.419 . S
C774 H778 0.930 . S
C775 C774 1.369 . S
C775 C784 1.429 . S
C776 C774 1.419 . S
C776 C777 1.363 . S
C776 H779 0.929 . S
C777 C776 1.363 . S
C777 C783 1.428 . S
H778 C774 0.930 . S
H779 C776 0.929 . S
S780 N781 1.613 . S
S780 N782 1.610 . S
N781 S780 1.613 . S
N781 C784 1.350 . S
N782 S780 1.610 . S
N782 C783 1.351 . S
C783 C777 1.428 . S
C783 N782 1.351 . S
C783 C784 1.434 . S
C784 C775 1.429 . S
C784 N781 1.350 . S
C784 C783 1.434 . S
C785 C786 1.369 . S
C785 C787 1.419 . S
C785 H789 0.930 . S
C786 C785 1.369 . S
C786 C795 1.429 . S
C787 C785 1.419 . S
C787 C788 1.363 . S
C787 H790 0.929 . S
C788 C787 1.363 . S
C788 C794 1.428 . S
H789 C785 0.930 . S
H790 C787 0.929 . S
S791 N792 1.613 . S
S791 N793 1.610 . S
N792 S791 1.613 . S
N792 C795 1.350 . S
N793 S791 1.610 . S
N793 C794 1.351 . S
C794 C788 1.428 . S
C794 N793 1.351 . S
C794 C795 1.434 . S
C795 C786 1.429 . S
C795 N792 1.350 . S
C795 C794 1.434 . S
C796 C797 1.369 . S
C796 C798 1.419 . S
C796 H800 0.930 . S
C797 C796 1.369 . S
C797 C806 1.429 . S
C798 C796 1.419 . S
C798 C799 1.363 . S
C798 H801 0.929 . S
C799 C798 1.363 . S
C799 C805 1.428 . S
H800 C796 0.930 . S
H801 C798 0.929 . S
S802 N803 1.613 . S
S802 N804 1.610 . S
N803 S802 1.613 . S
N803 C806 1.350 . S
N804 S802 1.610 . S
N804 C805 1.351 . S
C805 C799 1.428 . S
C805 N804 1.351 . S
C805 C806 1.434 . S
C806 C797 1.429 . S
C806 N803 1.350 . S
C806 C805 1.434 . S
C807 C808 1.369 . S
C807 C809 1.419 . S
C807 H811 0.930 . S
C808 C807 1.369 . S
C808 C817 1.429 1_556 S
C809 C807 1.419 . S
C809 C810 1.363 1_556 S
C809 H812 0.929 . S
C810 C809 1.363 1_554 S
C810 C816 1.428 . S
H811 C807 0.930 . S
H812 C809 0.929 . S
S813 N814 1.613 . S
S813 N815 1.610 . S
N814 S813 1.613 . S
N814 C817 1.350 . S
N815 S813 1.610 . S
N815 C816 1.351 . S
C816 C810 1.428 . S
C816 N815 1.351 . S
C816 C817 1.434 . S
C817 C808 1.429 1_554 S
C817 N814 1.350 . S
C817 C816 1.434 . S
C818 C819 1.369 1_556 S
C818 C820 1.419 . S
C818 H822 0.930 . S
C819 C818 1.369 1_554 S
C819 C828 1.429 . S
C820 C818 1.419 . S
C820 C821 1.363 . S
C820 H823 0.929 . S
C821 C820 1.363 . S
C821 C827 1.420 1_556 S
H822 C818 0.930 . S
H823 C820 0.929 . S
S824 N825 1.613 . S
S824 N826 1.610 . S
N825 S824 1.613 . S
N825 C828 1.350 . S
N826 S824 1.610 . S
N826 C827 1.354 . S
C827 C821 1.420 1_554 S
C827 N826 1.354 . S
C827 C828 1.441 . S
C828 C819 1.429 . S
C828 N825 1.350 . S
C828 C827 1.441 . S
C829 C830 1.369 . S
C829 C831 1.419 . S
C829 H833 0.930 . S
C830 C829 1.369 . S
C830 C839 1.429 1_556 S
C831 C829 1.419 . S
C831 C832 1.363 1_556 S
C831 H834 0.929 . S
C832 C831 1.363 1_554 S
C832 C838 1.428 . S
H833 C829 0.930 . S
H834 C831 0.929 . S
S835 N836 1.613 . S
S835 N837 1.610 . S
N836 S835 1.613 . S
N836 C839 1.350 . S
N837 S835 1.610 . S
N837 C838 1.351 . S
C838 C832 1.428 . S
C838 N837 1.351 . S
C838 C839 1.434 . S
C839 C830 1.429 1_554 S
C839 N836 1.350 . S
C839 C838 1.434 . S
C840 C841 1.369 . S
C840 C842 1.419 . S
C840 H844 0.930 . S
C841 C840 1.369 . S
C841 C850 1.429 . S
C842 C840 1.419 . S
C842 C843 1.363 . S
C842 H845 0.929 . S
C843 C842 1.363 . S
C843 C849 1.428 . S
H844 C840 0.930 . S
H845 C842 0.929 . S
S846 N847 1.613 . S
S846 N848 1.610 . S
N847 S846 1.613 . S
N847 C850 1.350 . S
N848 S846 1.610 . S
N848 C849 1.351 . S
C849 C843 1.428 . S
C849 N848 1.351 . S
C849 C850 1.434 . S
C850 C841 1.429 . S
C850 N847 1.350 . S
C850 C849 1.434 . S
C851 C852 1.369 . S
C851 C853 1.419 . S
C851 H855 0.930 . S
C852 C851 1.369 . S
C852 C861 1.429 . S
C853 C851 1.419 . S
C853 C854 1.363 . S
C853 H856 0.929 . S
C854 C853 1.363 . S
C854 C860 1.428 . S
H855 C851 0.930 . S
H856 C853 0.929 . S
S857 N858 1.613 . S
S857 N859 1.610 . S
N858 S857 1.613 . S
N858 C861 1.350 . S
N859 S857 1.610 . S
N859 C860 1.351 . S
C860 C854 1.428 . S
C860 N859 1.351 . S
C860 C861 1.434 . S
C861 C852 1.429 . S
C861 N858 1.350 . S
C861 C860 1.434 . S
C862 C863 1.369 . S
C862 C864 1.419 . S
C862 H866 0.930 . S
C863 C862 1.369 . S
C863 C872 1.429 . S
C864 C862 1.419 . S
C864 C865 1.363 . S
C864 H867 0.929 . S
C865 C864 1.363 . S
C865 C871 1.428 . S
H866 C862 0.930 . S
H867 C864 0.929 . S
S868 N869 1.613 . S
S868 N870 1.610 . S
N869 S868 1.613 . S
N869 C872 1.350 . S
N870 S868 1.610 . S
N870 C871 1.351 . S
C871 C865 1.428 . S
C871 N870 1.351 . S
C871 C872 1.434 . S
C872 C863 1.429 . S
C872 N869 1.350 . S
C872 C871 1.434 . S
C873 C874 1.369 . S
C873 C875 1.419 1_554 S
C873 H877 0.930 . S
C874 C873 1.369 . S
C874 C883 1.429 . S
C875 C873 1.419 1_556 S
C875 C876 1.363 . S
C875 H878 0.929 . S
C876 C875 1.363 . S
C876 C882 1.428 1_556 S
H877 C873 0.930 . S
H878 C875 0.929 . S
S879 N880 1.613 . S
S879 N881 1.610 . S
N880 S879 1.613 . S
N880 C883 1.350 . S
N881 S879 1.610 . S
N881 C882 1.351 . S
C882 C876 1.428 1_554 S
C882 N881 1.351 . S
C882 C883 1.434 . S
C883 C874 1.429 . S
C883 N880 1.350 . S
C883 C882 1.434 . S
C884 C885 1.369 . S
C884 C886 1.419 1_554 S
C884 H888 0.930 . S
C885 C884 1.369 . S
C885 C894 1.429 . S
C886 C884 1.419 1_556 S
C886 C887 1.363 . S
C886 H889 0.929 . S
C887 C886 1.363 . S
C887 C893 1.428 . S
H888 C884 0.930 . S
H889 C886 0.929 . S
S890 N891 1.613 . S
S890 N892 1.610 1_554 S
N891 S890 1.613 . S
N891 C894 1.350 . S
N892 S890 1.610 1_556 S
N892 C893 1.351 . S
C893 C887 1.428 . S
C893 N892 1.351 . S
C893 C894 1.434 1_556 S
C894 C885 1.429 . S
C894 N891 1.350 . S
C894 C893 1.434 1_554 S
C895 C896 1.369 . S
C895 C897 1.419 1_556 S
C895 H899 0.930 . S
C896 C895 1.369 . S
C896 C905 1.429 . S
C897 C895 1.419 1_554 S
C897 C898 1.363 . S
C897 H900 0.929 . S
C898 C897 1.363 . S
C898 C904 1.428 . S
H899 C895 0.930 . S
H900 C897 0.929 . S
S901 N902 1.613 1_554 S
S901 N903 1.610 . S
N902 S901 1.613 1_556 S
N902 C905 1.350 . S
N903 S901 1.610 . S
N903 C904 1.351 . S
C904 C898 1.428 . S
C904 N903 1.351 . S
C904 C905 1.434 1_554 S
C905 C896 1.429 . S
C905 N902 1.350 . S
C905 C904 1.434 1_556 S
C906 C907 1.369 . S
C906 C908 1.419 . S
C906 H910 0.930 . S
C907 C906 1.369 . S
C907 C916 1.429 . S
C908 C906 1.419 . S
C908 C909 1.363 . S
C908 H911 0.929 . S
C909 C908 1.363 . S
C909 C915 1.428 . S
H910 C906 0.930 . S
H911 C908 0.929 . S
S912 N913 1.613 . S
S912 N914 1.610 . S
N913 S912 1.613 . S
N913 C916 1.350 . S
N914 S912 1.610 . S
N914 C915 1.351 . S
C915 C909 1.428 . S
C915 N914 1.351 . S
C915 C916 1.434 . S
C916 C907 1.429 . S
C916 N913 1.350 . S
C916 C915 1.434 . S
C917 C918 1.369 . S
C917 C919 1.419 . S
C917 H921 0.930 . S
C918 C917 1.369 . S
C918 C927 1.429 . S
C919 C917 1.419 . S
C919 C920 1.363 . S
C919 H922 0.929 . S
C920 C919 1.363 . S
C920 C926 1.428 . S
H921 C917 0.930 . S
H922 C919 0.929 . S
S923 N924 1.613 . S
S923 N925 1.610 . S
N924 S923 1.613 . S
N924 C927 1.350 . S
N925 S923 1.610 . S
N925 C926 1.351 . S
C926 C920 1.428 . S
C926 N925 1.351 . S
C926 C927 1.434 . S
C927 C918 1.429 . S
C927 N924 1.350 . S
C927 C926 1.434 . S
C928 C929 1.369 . S
C928 C930 1.419 . S
C928 H932 0.930 . S
C929 C928 1.369 . S
C929 C938 1.429 . S
C930 C928 1.419 . S
C930 C931 1.363 . S
C930 H933 0.929 . S
C931 C930 1.363 . S
C931 C937 1.428 . S
H932 C928 0.930 . S
H933 C930 0.929 . S
S934 N935 1.613 . S
S934 N936 1.610 . S
N935 S934 1.613 . S
N935 C938 1.350 . S
N936 S934 1.610 . S
N936 C937 1.351 . S
C937 C931 1.428 . S
C937 N936 1.351 . S
C937 C938 1.434 . S
C938 C929 1.429 . S
C938 N935 1.350 . S
C938 C937 1.434 . S
C939 C940 1.369 . S
C939 C941 1.419 . S
C939 H943 0.930 . S
C940 C939 1.369 . S
C940 C949 1.429 . S
C941 C939 1.419 . S
C941 C942 1.363 . S
C941 H944 0.929 . S
C942 C941 1.363 . S
C942 C948 1.428 . S
H943 C939 0.930 . S
H944 C941 0.929 . S
S945 N946 1.613 . S
S945 N947 1.610 . S
N946 S945 1.613 . S
N946 C949 1.350 . S
N947 S945 1.610 . S
N947 C948 1.351 . S
C948 C942 1.428 . S
C948 N947 1.351 . S
C948 C949 1.434 . S
C949 C940 1.429 . S
C949 N946 1.350 . S
C949 C948 1.434 . S
C950 C951 1.369 . S
C950 C952 1.419 . S
C950 H954 0.930 . S
C951 C950 1.369 . S
C951 C960 1.429 . S
C952 C950 1.419 . S
C952 C953 1.363 . S
C952 H955 0.929 . S
C953 C952 1.363 . S
C953 C959 1.428 . S
H954 C950 0.930 . S
H955 C952 0.929 . S
S956 N957 1.613 . S
S956 N958 1.610 . S
N957 S956 1.613 . S
N957 C960 1.350 . S
N958 S956 1.610 . S
N958 C959 1.351 . S
C959 C953 1.428 . S
C959 N958 1.351 . S
C959 C960 1.434 . S
C960 C951 1.429 . S
C960 N957 1.350 . S
C960 C959 1.434 . S
C961 C962 1.369 . S
C961 C963 1.419 . S
C961 H965 0.930 . S
C962 C961 1.369 . S
C962 C971 1.429 . S
C963 C961 1.419 . S
C963 C964 1.363 . S
C963 H966 0.929 . S
C964 C963 1.363 . S
C964 C970 1.428 . S
H965 C961 0.930 . S
H966 C963 0.929 . S
S967 N968 1.613 . S
S967 N969 1.610 . S
N968 S967 1.613 . S
N968 C971 1.350 . S
N969 S967 1.610 . S
N969 C970 1.351 . S
C970 C964 1.428 . S
C970 N969 1.351 . S
C970 C971 1.434 . S
C971 C962 1.429 . S
C971 N968 1.350 . S
C971 C970 1.434 . S
C972 C973 1.369 . S
C972 C974 1.419 . S
C972 H976 0.930 . S
C973 C972 1.369 . S
C973 C982 1.429 . S
C974 C972 1.419 . S
C974 C975 1.363 . S
C974 H977 0.929 . S
C975 C974 1.363 . S
C975 C981 1.428 . S
H976 C972 0.930 . S
H977 C974 0.929 . S
S978 N979 1.613 . S
S978 N980 1.610 . S
N979 S978 1.613 . S
N979 C982 1.350 . S
N980 S978 1.610 . S
N980 C981 1.351 . S
C981 C975 1.428 . S
C981 N980 1.351 . S
C981 C982 1.434 . S
C982 C973 1.429 . S
C982 N979 1.350 . S
C982 C981 1.434 . S
C983 C984 1.369 . S
C983 C985 1.419 . S
C983 H987 0.930 . S
C984 C983 1.369 . S
C984 C993 1.429 . S
C985 C983 1.419 . S
C985 C986 1.363 . S
C985 H988 0.929 . S
C986 C985 1.363 . S
C986 C992 1.428 . S
H987 C983 0.930 . S
H988 C985 0.929 . S
S989 N990 1.613 . S
S989 N991 1.610 . S
N990 S989 1.613 . S
N990 C993 1.350 . S
N991 S989 1.610 . S
N991 C992 1.351 . S
C992 C986 1.428 . S
C992 N991 1.351 . S
C992 C993 1.434 . S
C993 C984 1.429 . S
C993 N990 1.350 . S
C993 C992 1.434 . S
C994 C995 1.369 . S
C994 C996 1.419 . S
C994 H998 0.930 . S
C995 C994 1.369 . S
C995 C1004 1.429 . S
C996 C994 1.419 . S
C996 C997 1.363 . S
C996 H999 0.929 . S
C997 C996 1.363 . S
C997 C1003 1.428 . S
H998 C994 0.930 . S
H999 C996 0.929 . S
S1000 N1001 1.613 . S
S1000 N1002 1.610 . S
N1001 S1000 1.613 . S
N1001 C1004 1.350 . S
N1002 S1000 1.610 . S
N1002 C1003 1.351 . S
C1003 C997 1.428 . S
C1003 N1002 1.351 . S
C1003 C1004 1.434 . S
C1004 C995 1.429 . S
C1004 N1001 1.350 . S
C1004 C1003 1.434 . S
C1005 C1006 1.369 . S
C1005 C1007 1.419 . S
C1005 H1009 0.930 . S
C1006 C1005 1.369 . S
C1006 C1015 1.429 . S
C1007 C1005 1.419 . S
C1007 C1008 1.363 . S
C1007 H1010 0.929 . S
C1008 C1007 1.363 . S
C1008 C1014 1.428 . S
H1009 C1005 0.930 . S
H1010 C1007 0.929 . S
S1011 N1012 1.613 . S
S1011 N1013 1.610 . S
N1012 S1011 1.613 . S
N1012 C1015 1.350 . S
N1013 S1011 1.610 . S
N1013 C1014 1.351 . S
C1014 C1008 1.428 . S
C1014 N1013 1.351 . S
C1014 C1015 1.434 . S
C1015 C1006 1.429 . S
C1015 N1012 1.350 . S
C1015 C1014 1.434 . S
C1016 C1017 1.369 . S
C1016 C1018 1.419 . S
C1016 H1020 0.930 . S
C1017 C1016 1.369 . S
C1017 C1026 1.429 . S
C1018 C1016 1.419 . S
C1018 C1019 1.363 . S
C1018 H1021 0.929 . S
C1019 C1018 1.363 . S
C1019 C1025 1.428 . S
H1020 C1016 0.930 . S
H1021 C1018 0.929 . S
S1022 N1023 1.613 . S
S1022 N1024 1.610 . S
N1023 S1022 1.613 . S
N1023 C1026 1.350 . S
N1024 S1022 1.610 . S
N1024 C1025 1.351 . S
C1025 C1019 1.428 . S
C1025 N1024 1.351 . S
C1025 C1026 1.434 . S
C1026 C1017 1.429 . S
C1026 N1023 1.350 . S
C1026 C1025 1.434 . S
C1027 C1028 1.369 . S
C1027 C1029 1.419 . S
C1027 H1031 0.930 . S
C1028 C1027 1.369 . S
C1028 C1037 1.429 . S
C1029 C1027 1.419 . S
C1029 C1030 1.363 . S
C1029 H1032 0.929 . S
C1030 C1029 1.363 . S
C1030 C1036 1.428 . S
H1031 C1027 0.930 . S
H1032 C1029 0.929 . S
S1033 N1034 1.613 . S
S1033 N1035 1.610 . S
N1034 S1033 1.613 . S
N1034 C1037 1.350 . S
N1035 S1033 1.610 . S
N1035 C1036 1.351 . S
C1036 C1030 1.428 . S
C1036 N1035 1.351 . S
C1036 C1037 1.434 . S
C1037 C1028 1.429 . S
C1037 N1034 1.350 . S
C1037 C1036 1.434 . S
C1038 C1039 1.369 . S
C1038 C1040 1.419 . S
C1038 H1042 0.930 . S
C1039 C1038 1.369 . S
C1039 C1048 1.429 . S
C1040 C1038 1.419 . S
C1040 C1041 1.363 . S
C1040 H1043 0.929 . S
C1041 C1040 1.363 . S
C1041 C1047 1.428 . S
H1042 C1038 0.930 . S
H1043 C1040 0.929 . S
S1044 N1045 1.613 . S
S1044 N1046 1.610 . S
N1045 S1044 1.613 . S
N1045 C1048 1.350 . S
N1046 S1044 1.610 . S
N1046 C1047 1.351 . S
C1047 C1041 1.428 . S
C1047 N1046 1.351 . S
C1047 C1048 1.434 . S
C1048 C1039 1.429 . S
C1048 N1045 1.350 . S
C1048 C1047 1.434 . S
C1049 C1050 1.369 . S
C1049 C1051 1.419 . S
C1049 H1053 0.930 . S
C1050 C1049 1.369 . S
C1050 C1059 1.429 . S
C1051 C1049 1.419 . S
C1051 C1052 1.363 . S
C1051 H1054 0.929 . S
C1052 C1051 1.363 . S
C1052 C1058 1.428 . S
H1053 C1049 0.930 . S
H1054 C1051 0.929 . S
S1055 N1056 1.613 . S
S1055 N1057 1.610 . S
N1056 S1055 1.613 . S
N1056 C1059 1.350 . S
N1057 S1055 1.610 . S
N1057 C1058 1.351 . S
C1058 C1052 1.428 . S
C1058 N1057 1.351 . S
C1058 C1059 1.434 . S
C1059 C1050 1.429 . S
C1059 N1056 1.350 . S
C1059 C1058 1.434 . S
C1060 C1061 1.369 . S
C1060 C1062 1.419 . S
C1060 H1064 0.930 . S
C1061 C1060 1.369 . S
C1061 C1070 1.429 . S
C1062 C1060 1.419 . S
C1062 C1063 1.363 . S
C1062 H1065 0.929 . S
C1063 C1062 1.363 . S
C1063 C1069 1.428 . S
H1064 C1060 0.930 . S
H1065 C1062 0.929 . S
S1066 N1067 1.613 . S
S1066 N1068 1.610 . S
N1067 S1066 1.613 . S
N1067 C1070 1.350 . S
N1068 S1066 1.610 . S
N1068 C1069 1.351 . S
C1069 C1063 1.428 . S
C1069 N1068 1.351 . S
C1069 C1070 1.434 . S
C1070 C1061 1.429 . S
C1070 N1067 1.350 . S
C1070 C1069 1.434 . S
C1071 C1072 1.369 . S
C1071 C1073 1.419 . S
C1071 H1075 0.930 . S
C1072 C1071 1.369 . S
C1072 C1081 1.429 . S
C1073 C1071 1.419 . S
C1073 C1074 1.363 . S
C1073 H1076 0.929 . S
C1074 C1073 1.363 . S
C1074 C1080 1.428 . S
H1075 C1071 0.930 . S
H1076 C1073 0.929 . S
S1077 N1078 1.613 . S
S1077 N1079 1.610 . S
N1078 S1077 1.613 . S
N1078 C1081 1.350 . S
N1079 S1077 1.610 . S
N1079 C1080 1.351 . S
C1080 C1074 1.428 . S
C1080 N1079 1.351 . S
C1080 C1081 1.434 . S
C1081 C1072 1.429 . S
C1081 N1078 1.350 . S
C1081 C1080 1.434 . S
C1082 C1083 1.369 . S
C1082 C1084 1.419 . S
C1082 H1086 0.930 . S
C1083 C1082 1.369 . S
C1083 C1092 1.429 . S
C1084 C1082 1.419 . S
C1084 C1085 1.363 . S
C1084 H1087 0.929 . S
C1085 C1084 1.363 . S
C1085 C1091 1.428 . S
H1086 C1082 0.930 . S
H1087 C1084 0.929 . S
S1088 N1089 1.613 . S
S1088 N1090 1.610 . S
N1089 S1088 1.613 . S
N1089 C1092 1.350 . S
N1090 S1088 1.610 . S
N1090 C1091 1.351 . S
C1091 C1085 1.428 . S
C1091 N1090 1.351 . S
C1091 C1092 1.434 . S
C1092 C1083 1.429 . S
C1092 N1089 1.350 . S
C1092 C1091 1.434 . S
C1093 C1094 1.369 . S
C1093 C1095 1.419 . S
C1093 H1097 0.930 . S
C1094 C1093 1.369 . S
C1094 C1103 1.429 . S
C1095 C1093 1.419 . S
C1095 C1096 1.363 . S
C1095 H1098 0.929 . S
C1096 C1095 1.363 . S
C1096 C1102 1.428 . S
H1097 C1093 0.930 . S
H1098 C1095 0.929 . S
S1099 N1100 1.613 . S
S1099 N1101 1.610 . S
N1100 S1099 1.613 . S
N1100 C1103 1.350 . S
N1101 S1099 1.610 . S
N1101 C1102 1.351 . S
C1102 C1096 1.428 . S
C1102 N1101 1.351 . S
C1102 C1103 1.434 . S
C1103 C1094 1.429 . S
C1103 N1100 1.350 . S
C1103 C1102 1.434 . S
C1104 C1105 1.369 . S
C1104 C1106 1.419 . S
C1104 H1108 0.930 . S
C1105 C1104 1.369 . S
C1105 C1114 1.429 . S
C1106 C1104 1.419 . S
C1106 C1107 1.363 . S
C1106 H1109 0.929 . S
C1107 C1106 1.363 . S
C1107 C1113 1.428 . S
H1108 C1104 0.930 . S
H1109 C1106 0.929 . S
S1110 N1111 1.613 . S
S1110 N1112 1.610 . S
N1111 S1110 1.613 . S
N1111 C1114 1.350 . S
N1112 S1110 1.610 . S
N1112 C1113 1.351 . S
C1113 C1107 1.428 . S
C1113 N1112 1.351 . S
C1113 C1114 1.434 . S
C1114 C1105 1.429 . S
C1114 N1111 1.350 . S
C1114 C1113 1.434 . S
C1115 C1116 1.369 . S
C1115 C1117 1.419 . S
C1115 H1119 0.930 . S
C1116 C1115 1.369 . S
C1116 C1125 1.429 . S
C1117 C1115 1.419 . S
C1117 C1118 1.363 . S
C1117 H1120 0.929 . S
C1118 C1117 1.363 . S
C1118 C1124 1.428 . S
H1119 C1115 0.930 . S
H1120 C1117 0.929 . S
S1121 N1122 1.613 . S
S1121 N1123 1.610 . S
N1122 S1121 1.613 . S
N1122 C1125 1.350 . S
N1123 S1121 1.610 . S
N1123 C1124 1.351 . S
C1124 C1118 1.428 . S
C1124 N1123 1.351 . S
C1124 C1125 1.434 . S
C1125 C1116 1.429 . S
C1125 N1122 1.350 . S
C1125 C1124 1.434 . S
C1126 C1127 1.369 . S
C1126 C1128 1.419 . S
C1126 H1130 0.930 . S
C1127 C1126 1.369 . S
C1127 C1136 1.429 . S
C1128 C1126 1.419 . S
C1128 C1129 1.363 . S
C1128 H1131 0.929 . S
C1129 C1128 1.363 . S
C1129 C1135 1.428 . S
H1130 C1126 0.930 . S
H1131 C1128 0.929 . S
S1132 N1133 1.613 . S
S1132 N1134 1.610 . S
N1133 S1132 1.613 . S
N1133 C1136 1.350 . S
N1134 S1132 1.610 . S
N1134 C1135 1.351 . S
C1135 C1129 1.428 . S
C1135 N1134 1.351 . S
C1135 C1136 1.434 . S
C1136 C1127 1.429 . S
C1136 N1133 1.350 . S
C1136 C1135 1.434 . S
C1137 C1138 1.369 . S
C1137 C1139 1.419 . S
C1137 H1141 0.930 . S
C1138 C1137 1.369 . S
C1138 C1147 1.429 . S
C1139 C1137 1.419 . S
C1139 C1140 1.363 . S
C1139 H1142 0.929 . S
C1140 C1139 1.363 . S
C1140 C1146 1.428 . S
H1141 C1137 0.930 . S
H1142 C1139 0.929 . S
S1143 N1144 1.613 . S
S1143 N1145 1.610 . S
N1144 S1143 1.613 . S
N1144 C1147 1.350 . S
N1145 S1143 1.610 . S
N1145 C1146 1.351 . S
C1146 C1140 1.428 . S
C1146 N1145 1.351 . S
C1146 C1147 1.434 . S
C1147 C1138 1.429 . S
C1147 N1144 1.350 . S
C1147 C1146 1.434 . S
C1148 C1149 1.369 . S
C1148 C1150 1.419 . S
C1148 H1152 0.930 . S
C1149 C1148 1.369 . S
C1149 C1158 1.429 . S
C1150 C1148 1.419 . S
C1150 C1151 1.363 . S
C1150 H1153 0.929 . S
C1151 C1150 1.363 . S
C1151 C1157 1.428 . S
H1152 C1148 0.930 . S
H1153 C1150 0.929 . S
S1154 N1155 1.613 . S
S1154 N1156 1.610 . S
N1155 S1154 1.613 . S
N1155 C1158 1.350 . S
N1156 S1154 1.610 . S
N1156 C1157 1.351 . S
C1157 C1151 1.428 . S
C1157 N1156 1.351 . S
C1157 C1158 1.434 . S
C1158 C1149 1.429 . S
C1158 N1155 1.350 . S
C1158 C1157 1.434 . S
C1159 C1160 1.369 . S
C1159 C1161 1.419 . S
C1159 H1163 0.930 . S
C1160 C1159 1.369 . S
C1160 C1169 1.429 . S
C1161 C1159 1.419 . S
C1161 C1162 1.363 . S
C1161 H1164 0.929 . S
C1162 C1161 1.363 . S
C1162 C1168 1.428 . S
H1163 C1159 0.930 . S
H1164 C1161 0.929 . S
S1165 N1166 1.613 . S
S1165 N1167 1.610 . S
N1166 S1165 1.613 . S
N1166 C1169 1.350 . S
N1167 S1165 1.610 . S
N1167 C1168 1.351 . S
C1168 C1162 1.428 . S
C1168 N1167 1.351 . S
C1168 C1169 1.434 . S
C1169 C1160 1.429 . S
C1169 N1166 1.350 . S
C1169 C1168 1.434 . S
C1170 C1171 1.369 . S
C1170 C1172 1.419 . S
C1170 H1174 0.930 . S
C1171 C1170 1.369 . S
C1171 C1180 1.429 . S
C1172 C1170 1.419 . S
C1172 C1173 1.363 . S
C1172 H1175 0.929 . S
C1173 C1172 1.363 . S
C1173 C1179 1.428 . S
H1174 C1170 0.930 . S
H1175 C1172 0.929 . S
S1176 N1177 1.613 . S
S1176 N1178 1.610 1_545 S
N1177 S1176 1.613 . S
N1177 C1180 1.350 1_545 S
N1178 S1176 1.610 1_565 S
N1178 C1179 1.351 . S
C1179 C1173 1.428 . S
C1179 N1178 1.351 . S
C1179 C1180 1.434 . S
C1180 C1171 1.429 . S
C1180 N1177 1.350 1_565 S
C1180 C1179 1.434 . S
C1181 C1182 1.369 . S
C1181 C1183 1.419 . S
C1181 H1185 0.930 . S
C1182 C1181 1.369 . S
C1182 C1191 1.429 . S
C1183 C1181 1.419 . S
C1183 C1184 1.363 . S
C1183 H1186 0.929 . S
C1184 C1183 1.363 . S
C1184 C1190 1.428 . S
H1185 C1181 0.930 . S
H1186 C1183 0.929 . S
S1187 N1188 1.613 . S
S1187 N1189 1.610 . S
N1188 S1187 1.613 . S
N1188 C1191 1.350 . S
N1189 S1187 1.610 . S
N1189 C1190 1.351 . S
C1190 C1184 1.428 . S
C1190 N1189 1.351 . S
C1190 C1191 1.434 . S
C1191 C1182 1.429 . S
C1191 N1188 1.350 . S
C1191 C1190 1.434 . S
C1192 C1193 1.369 . S
C1192 C1194 1.419 . S
C1192 H1196 0.930 . S
C1193 C1192 1.369 . S
C1193 C1202 1.429 . S
C1194 C1192 1.419 . S
C1194 C1195 1.363 . S
C1194 H1197 0.929 . S
C1195 C1194 1.363 . S
C1195 C1201 1.428 . S
H1196 C1192 0.930 . S
H1197 C1194 0.929 . S
S1198 N1199 1.613 . S
S1198 N1200 1.610 . S
N1199 S1198 1.613 . S
N1199 C1202 1.350 . S
N1200 S1198 1.610 . S
N1200 C1201 1.351 . S
C1201 C1195 1.428 . S
C1201 N1200 1.351 . S
C1201 C1202 1.434 . S
C1202 C1193 1.429 . S
C1202 N1199 1.350 . S
C1202 C1201 1.434 . S
C1203 C1204 1.369 1_554 S
C1203 C1205 1.419 1_554 S
C1203 H1207 0.930 . S
C1204 C1203 1.369 1_556 S
C1204 C1213 1.429 . S
C1205 C1203 1.419 1_556 S
C1205 C1206 1.363 . S
C1205 H1208 0.929 . S
C1206 C1205 1.363 . S
C1206 C1212 1.428 . S
H1207 C1203 0.930 . S
H1208 C1205 0.929 . S
S1209 N1210 1.613 . S
S1209 N1211 1.610 . S
N1210 S1209 1.613 . S
N1210 C1213 1.350 . S
N1211 S1209 1.610 . S
N1211 C1212 1.351 . S
C1212 C1206 1.428 . S
C1212 N1211 1.351 . S
C1212 C1213 1.434 . S
C1213 C1204 1.429 . S
C1213 N1210 1.350 . S
C1213 C1212 1.434 . S
C1214 C1215 1.369 1_554 S
C1214 C1216 1.419 1_554 S
C1214 H1218 0.930 . S
C1215 C1214 1.369 1_556 S
C1215 C1224 1.429 . S
C1216 C1214 1.419 1_556 S
C1216 C1217 1.363 . S
C1216 H1219 0.929 . S
C1217 C1216 1.363 . S
C1217 C1223 1.428 . S
H1218 C1214 0.930 . S
H1219 C1216 0.929 . S
S1220 N1221 1.613 . S
S1220 N1222 1.610 . S
N1221 S1220 1.613 . S
N1221 C1224 1.350 . S
N1222 S1220 1.610 . S
N1222 C1223 1.351 . S
C1223 C1217 1.428 . S
C1223 N1222 1.351 . S
C1223 C1224 1.434 . S
C1224 C1215 1.429 . S
C1224 N1221 1.350 . S
C1224 C1223 1.434 . S
C1225 C1226 1.369 . S
C1225 C1227 1.419 . S
C1225 H1229 0.930 . S
C1226 C1225 1.369 . S
C1226 C1235 1.429 . S
C1227 C1225 1.419 . S
C1227 C1228 1.363 . S
C1227 H1230 0.929 . S
C1228 C1227 1.363 . S
C1228 C1234 1.428 1_556 S
H1229 C1225 0.930 . S
H1230 C1227 0.929 . S
S1231 N1232 1.613 1_554 S
S1231 N1233 1.610 . S
N1232 S1231 1.613 1_556 S
N1232 C1235 1.350 . S
N1233 S1231 1.610 . S
N1233 C1234 1.351 . S
C1234 C1228 1.428 1_554 S
C1234 N1233 1.351 . S
C1234 C1235 1.434 1_554 S
C1235 C1226 1.429 . S
C1235 N1232 1.350 . S
C1235 C1234 1.434 1_556 S
C1236 C1237 1.369 . S
C1236 C1238 1.419 . S
C1236 H1240 0.930 . S
C1237 C1236 1.369 . S
C1237 C1246 1.429 . S
C1238 C1236 1.419 . S
C1238 C1239 1.363 . S
C1238 H1241 0.929 . S
C1239 C1238 1.363 . S
C1239 C1245 1.428 . S
H1240 C1236 0.930 . S
H1241 C1238 0.929 . S
S1242 N1243 1.613 . S
S1242 N1244 1.610 . S
N1243 S1242 1.613 . S
N1243 C1246 1.350 . S
N1244 S1242 1.610 . S
N1244 C1245 1.351 . S
C1245 C1239 1.428 . S
C1245 N1244 1.351 . S
C1245 C1246 1.434 . S
C1246 C1237 1.429 . S
C1246 N1243 1.350 . S
C1246 C1245 1.434 . S
C1247 C1248 1.369 . S
C1247 C1249 1.419 . S
C1247 H1251 0.930 . S
C1248 C1247 1.369 . S
C1248 C1257 1.429 . S
C1249 C1247 1.419 . S
C1249 C1250 1.363 . S
C1249 H1252 0.929 . S
C1250 C1249 1.363 . S
C1250 C1256 1.428 . S
H1251 C1247 0.930 . S
H1252 C1249 0.929 . S
S1253 N1254 1.613 . S
S1253 N1255 1.610 . S
N1254 S1253 1.613 . S
N1254 C1257 1.350 . S
N1255 S1253 1.610 . S
N1255 C1256 1.351 . S
C1256 C1250 1.428 . S
C1256 N1255 1.351 . S
C1256 C1257 1.434 . S
C1257 C1248 1.429 . S
C1257 N1254 1.350 . S
C1257 C1256 1.434 . S
C1258 C1259 1.369 . S
C1258 C1260 1.419 . S
C1258 H1262 0.930 . S
C1259 C1258 1.369 . S
C1259 C1268 1.429 . S
C1260 C1258 1.419 . S
C1260 C1261 1.363 . S
C1260 H1263 0.929 . S
C1261 C1260 1.363 . S
C1261 C1267 1.428 . S
H1262 C1258 0.930 . S
H1263 C1260 0.929 . S
S1264 N1265 1.613 . S
S1264 N1266 1.610 . S
N1265 S1264 1.613 . S
N1265 C1268 1.350 . S
N1266 S1264 1.610 . S
N1266 C1267 1.351 . S
C1267 C1261 1.428 . S
C1267 N1266 1.351 . S
C1267 C1268 1.434 . S
C1268 C1259 1.429 . S
C1268 N1265 1.350 . S
C1268 C1267 1.434 . S
C1269 C1270 1.369 . S
C1269 C1271 1.419 . S
C1269 H1273 0.930 . S
C1270 C1269 1.369 . S
C1270 C1279 1.429 . S
C1271 C1269 1.419 . S
C1271 C1272 1.363 . S
C1271 H1274 0.929 . S
C1272 C1271 1.363 . S
C1272 C1278 1.428 1_554 S
H1273 C1269 0.930 . S
H1274 C1271 0.929 . S
S1275 N1276 1.613 1_556 S
S1275 N1277 1.610 . S
N1276 S1275 1.613 1_554 S
N1276 C1279 1.350 . S
N1277 S1275 1.610 . S
N1277 C1278 1.351 . S
C1278 C1272 1.428 1_556 S
C1278 N1277 1.351 . S
C1278 C1279 1.434 1_556 S
C1279 C1270 1.429 . S
C1279 N1276 1.350 . S
C1279 C1278 1.434 1_554 S
C1280 C1281 1.369 1_556 S
C1280 C1282 1.419 1_556 S
C1280 H1284 0.930 . S
C1281 C1280 1.369 1_554 S
C1281 C1290 1.429 . S
C1282 C1280 1.419 1_554 S
C1282 C1283 1.363 . S
C1282 H1285 0.929 . S
C1283 C1282 1.363 . S
C1283 C1289 1.428 . S
H1284 C1280 0.930 . S
H1285 C1282 0.929 . S
S1286 N1287 1.613 . S
S1286 N1288 1.610 . S
N1287 S1286 1.613 . S
N1287 C1290 1.350 . S
N1288 S1286 1.610 . S
N1288 C1289 1.351 . S
C1289 C1283 1.428 . S
C1289 N1288 1.351 . S
C1289 C1290 1.434 . S
C1290 C1281 1.429 . S
C1290 N1287 1.350 . S
C1290 C1289 1.434 . S
C1291 C1292 1.369 . S
C1291 C1293 1.419 . S
C1291 H1295 0.930 . S
C1292 C1291 1.369 . S
C1292 C1301 1.429 . S
C1293 C1291 1.419 . S
C1293 C1294 1.363 . S
C1293 H1296 0.929 . S
C1294 C1293 1.363 . S
C1294 C1300 1.428 . S
H1295 C1291 0.930 . S
H1296 C1293 0.929 . S
S1297 N1298 1.613 1_544 S
S1297 N1299 1.610 . S
N1298 S1297 1.613 1_566 S
N1298 C1301 1.350 1_556 S
N1299 S1297 1.610 . S
N1299 C1300 1.351 1_545 S
C1300 C1294 1.428 . S
C1300 N1299 1.351 1_565 S
C1300 C1301 1.434 . S
C1301 C1292 1.429 . S
C1301 N1298 1.350 1_554 S
C1301 C1300 1.434 . S
C1302 C1303 1.369 . S
C1302 C1304 1.419 . S
C1302 H1306 0.930 . S
C1303 C1302 1.369 . S
C1303 C1312 1.429 . S
C1304 C1302 1.419 . S
C1304 C1305 1.363 . S
C1304 H1307 0.929 . S
C1305 C1304 1.363 . S
C1305 C1311 1.428 . S
H1306 C1302 0.930 . S
H1307 C1304 0.929 . S
S1308 N1309 1.613 . S
S1308 N1310 1.610 . S
N1309 S1308 1.613 . S
N1309 C1312 1.350 . S
N1310 S1308 1.610 . S
N1310 C1311 1.351 . S
C1311 C1305 1.428 . S
C1311 N1310 1.351 . S
C1311 C1312 1.434 . S
C1312 C1303 1.429 . S
C1312 N1309 1.350 . S
C1312 C1311 1.434 . S
C1313 C1314 1.369 . S
C1313 C1315 1.419 1_545 S
C1313 H1317 0.930 . S
C1314 C1313 1.369 . S
C1314 C1323 1.429 . S
C1315 C1313 1.419 1_565 S
C1315 C1316 1.363 . S
C1315 H1318 0.929 . S
C1316 C1315 1.363 . S
C1316 C1322 1.428 . S
H1317 C1313 0.930 . S
H1318 C1315 0.929 . S
S1319 N1320 1.613 . S
S1319 N1321 1.610 1_545 S
N1320 S1319 1.613 . S
N1320 C1323 1.350 . S
N1321 S1319 1.610 1_565 S
N1321 C1322 1.351 . S
C1322 C1316 1.428 . S
C1322 N1321 1.351 . S
C1322 C1323 1.434 1_565 S
C1323 C1314 1.429 . S
C1323 N1320 1.350 . S
C1323 C1322 1.434 1_545 S
C1324 C1325 1.369 . S
C1324 C1326 1.419 1_455 S
C1324 H1328 0.930 . S
C1325 C1324 1.369 . S
C1325 C1334 1.429 . S
C1326 C1324 1.419 1_655 S
C1326 C1327 1.363 . S
C1326 H1329 0.929 . S
C1327 C1326 1.363 . S
C1327 C1333 1.428 1_655 S
H1328 C1324 0.930 . S
H1329 C1326 0.929 . S
S1330 N1331 1.613 . S
S1330 N1332 1.610 . S
N1331 S1330 1.613 . S
N1331 C1334 1.350 . S
N1332 S1330 1.610 . S
N1332 C1333 1.351 . S
C1333 C1327 1.428 1_455 S
C1333 N1332 1.351 . S
C1333 C1334 1.434 . S
C1334 C1325 1.429 . S
C1334 N1331 1.350 . S
C1334 C1333 1.434 . S
C1335 C1336 1.369 . S
C1335 C1337 1.419 . S
C1335 H1339 0.930 . S
C1336 C1335 1.369 . S
C1336 C1345 1.429 . S
C1337 C1335 1.419 . S
C1337 C1338 1.363 . S
C1337 H1340 0.929 . S
C1338 C1337 1.363 . S
C1338 C1344 1.428 . S
H1339 C1335 0.930 . S
H1340 C1337 0.929 . S
S1341 N1342 1.613 . S
S1341 N1343 1.610 . S
N1342 S1341 1.613 . S
N1342 C1345 1.350 . S
N1343 S1341 1.610 . S
N1343 C1344 1.351 . S
C1344 C1338 1.428 . S
C1344 N1343 1.351 . S
C1344 C1345 1.434 . S
C1345 C1336 1.429 . S
C1345 N1342 1.350 . S
C1345 C1344 1.434 . S
C1346 C1347 1.369 . S
C1346 C1348 1.419 1_545 S
C1346 H1350 0.930 . S
C1347 C1346 1.369 . S
C1347 C1356 1.429 . S
C1348 C1346 1.419 1_565 S
C1348 C1349 1.363 1_565 S
C1348 H1351 0.929 . S
C1349 C1348 1.363 1_545 S
C1349 C1355 1.428 . S
H1350 C1346 0.930 . S
H1351 C1348 0.929 . S
S1352 N1353 1.613 . S
S1352 N1354 1.610 . S
N1353 S1352 1.613 . S
N1353 C1356 1.350 . S
N1354 S1352 1.610 . S
N1354 C1355 1.351 . S
C1355 C1349 1.428 . S
C1355 N1354 1.351 . S
C1355 C1356 1.434 . S
C1356 C1347 1.429 . S
C1356 N1353 1.350 . S
C1356 C1355 1.434 . S
C1357 C1358 1.369 . S
C1357 C1359 1.419 . S
C1357 H1361 0.930 . S
C1358 C1357 1.369 . S
C1358 C1367 1.429 . S
C1359 C1357 1.419 . S
C1359 C1360 1.363 1_655 S
C1359 H1362 0.929 . S
C1360 C1359 1.363 1_455 S
C1360 C1366 1.428 . S
H1361 C1357 0.930 . S
H1362 C1359 0.929 . S
S1363 N1364 1.613 1_455 S
S1363 N1365 1.610 . S
N1364 S1363 1.613 1_655 S
N1364 C1367 1.350 . S
N1365 S1363 1.610 . S
N1365 C1366 1.351 . S
C1366 C1360 1.428 . S
C1366 N1365 1.351 . S
C1366 C1367 1.434 1_455 S
C1367 C1358 1.429 . S
C1367 N1364 1.350 . S
C1367 C1366 1.434 1_655 S
C577 C54 1.465 . S
C579 C17 1.370 . S
C588 C49 1.384 . S
C590 C86 1.455 1_545 S
C599 C81 1.370 . S
C601 C22 1.459 . S
C610 C146 1.463 . S
C612 C117 1.376 . S
C621 C178 1.465 . S
C623 C149 1.371 . S
C632 C181 1.367 . S
C634 C114 1.461 . S
C643 C209 1.371 . S
C645 C246 1.463 1_554 S
C654 C241 1.369 . S
C656 C278 1.463 1_554 S
C665 C214 1.462 1_554 S
C667 C273 1.375 . S
C676 C309 1.383 . S
C678 C338 1.457 . S
C687 C370 1.455 . S
C689 C341 1.374 . S
C698 C373 1.372 . S
C700 C306 1.456 . S
C709 C401 1.368 . S
C711 C438 1.461 . S
C720 C433 1.367 . S
C722 C470 1.462 . S
C731 C465 1.372 . S
C733 C406 1.458 . S
C742 C530 1.457 1_556 S
C744 C501 1.381 . S
C753 C533 1.382 . S
C755 C562 1.453 1_556 S
C764 C565 1.376 . S
C766 C498 1.454 1_556 S
C775 C19 1.471 . S
C777 C180 1.490 . S
C786 C51 1.475 . S
C788 C116 1.486 . S
C797 C83 1.474 . S
C799 C148 1.486 . S
C808 C55 1.839 . S
C810 C176 1.794 . S
C819 C112 1.792 . S
C821 C87 1.839 . S
C830 C23 1.840 . S
C832 C144 1.790 . S
C841 C80 1.494 . S
C843 C119 1.479 . S
C852 C151 1.476 . S
C854 C16 1.487 . S
C863 C183 1.476 . S
C865 C48 1.487 . S
C874 C147 1.838 . S
C876 C84 1.793 . S
C885 C179 1.839 . S
C887 C20 1.794 . S
C896 C52 1.796 . S
C898 C115 1.838 . S
C907 C211 1.474 . S
C909 C372 1.492 . S
C918 C308 1.486 . S
C920 C243 1.476 . S
C929 C340 1.488 . S
C931 C275 1.471 . S
C940 C247 1.838 . S
C942 C368 1.795 . S
C951 C304 1.795 . S
C953 C279 1.838 . S
C962 C336 1.789 . S
C964 C215 1.840 . S
C973 C311 1.478 . S
C975 C272 1.488 . S
C984 C208 1.491 . S
C986 C343 1.479 . S
C995 C240 1.493 . S
C997 C375 1.475 . S
C1006 C276 1.790 . S
C1008 C339 1.839 . S
C1017 C371 1.839 . S
C1019 C212 1.791 . S
C1028 C307 1.840 . S
C1030 C244 1.790 . S
C1039 C403 1.478 . S
C1041 C564 1.488 . S
C1050 C435 1.470 . S
C1052 C500 1.487 . S
C1061 C532 1.493 . S
C1063 C467 1.474 . S
C1072 C439 1.839 . S
C1074 C560 1.794 . S
C1083 C471 1.838 . S
C1085 C496 1.792 . S
C1094 C528 1.795 . S
C1096 C407 1.838 . S
C1105 C503 1.473 . S
C1107 C464 1.492 . S
C1116 C535 1.472 . S
C1118 C400 1.486 . S
C1127 C567 1.479 . S
C1129 C432 1.489 . S
C1138 C531 1.840 . S
C1140 C468 1.790 . S
C1149 C563 1.838 . S
C1151 C404 1.795 . S
C1160 C499 1.838 . S
C1162 C436 1.795 . S
C1171 C21 2.227 . S
C1173 C434 2.136 . S
C1182 C53 2.228 . S
C1184 C466 2.131 . S
C1193 C402 2.138 . S
C1195 C85 2.226 . S
C1204 C213 2.224 1_556 S
C1206 C50 2.135 . S
C1215 C245 2.225 1_556 S
C1217 C82 2.134 . S
C1226 C18 2.130 . S
C1228 C277 2.228 1_556 S
C1237 C113 2.228 . S
C1239 C342 2.132 . S
C1248 C145 2.228 . S
C1250 C374 2.131 . S
C1259 C310 2.131 . S
C1261 C177 2.226 . S
C1270 C150 2.133 . S
C1272 C497 2.228 1_554 S
C1281 C529 2.226 1_554 S
C1283 C182 2.137 . S
C1292 C561 2.228 1_554 S
C1294 C118 2.135 . S
C1303 C242 2.137 . S
C1305 C405 2.225 . S
C1314 C274 2.134 . S
C1316 C437 2.228 . S
C1325 C469 2.225 . S
C1327 C210 2.137 . S
C1336 C305 2.227 . S
C1338 C534 2.131 . S
C1347 C337 2.226 . S
C1349 C566 2.137 1_545 S
C1358 C369 2.226 . S
C1360 C502 2.132 . S
