# Generated by pormake.
# Topology unm, (4)-cn, num edge types: 1
# Building blocks:
#     Node 0, Type 0, BuildingBlock: CEKHIL_clean_sbu_0, # of connection points: 4
#     Node 1, Type 0, BuildingBlock: CEKHIL_clean_sbu_0, # of connection points: 4
#     Node 2, Type 0, BuildingBlock: CEKHIL_clean_sbu_0, # of connection points: 4
#     Node 3, Type 0, BuildingBlock: CEKHIL_clean_sbu_0, # of connection points: 4
#     Node 4, Type 0, BuildingBlock: CEKHIL_clean_sbu_0, # of connection points: 4
#     Node 5, Type 0, BuildingBlock: CEKHIL_clean_sbu_0, # of connection points: 4
#     Node 6, Type 0, BuildingBlock: CEKHIL_clean_sbu_0, # of connection points: 4
#     Node 7, Type 0, BuildingBlock: CEKHIL_clean_sbu_0, # of connection points: 4
#     Edge 8, Type (0, 0), BuildingBlock: MIFKUJ_clean_linker_0, # of connection points: 2
#     Edge 9, Type (0, 0), BuildingBlock: MIFKUJ_clean_linker_0, # of connection points: 2
#     Edge 10, Type (0, 0), BuildingBlock: MIFKUJ_clean_linker_0, # of connection points: 2
#     Edge 11, Type (0, 0), BuildingBlock: MIFKUJ_clean_linker_0, # of connection points: 2
#     Edge 12, Type (0, 0), BuildingBlock: MIFKUJ_clean_linker_0, # of connection points: 2
#     Edge 13, Type (0, 0), BuildingBlock: MIFKUJ_clean_linker_0, # of connection points: 2
#     Edge 14, Type (0, 0), BuildingBlock: MIFKUJ_clean_linker_0, # of connection points: 2
#     Edge 15, Type (0, 0), BuildingBlock: MIFKUJ_clean_linker_0, # of connection points: 2
#     Edge 16, Type (0, 0), BuildingBlock: MIFKUJ_clean_linker_0, # of connection points: 2
#     Edge 17, Type (0, 0), BuildingBlock: MIFKUJ_clean_linker_0, # of connection points: 2
#     Edge 18, Type (0, 0), BuildingBlock: MIFKUJ_clean_linker_0, # of connection points: 2
#     Edge 19, Type (0, 0), BuildingBlock: MIFKUJ_clean_linker_0, # of connection points: 2
#     Edge 20, Type (0, 0), BuildingBlock: MIFKUJ_clean_linker_0, # of connection points: 2
#     Edge 21, Type (0, 0), BuildingBlock: MIFKUJ_clean_linker_0, # of connection points: 2
#     Edge 22, Type (0, 0), BuildingBlock: MIFKUJ_clean_linker_0, # of connection points: 2
#     Edge 23, Type (0, 0), BuildingBlock: MIFKUJ_clean_linker_0, # of connection points: 2
# Relax obj value: 0.187
# Max RMSD: 0.153
# Mean RMSD: 0.153
data_MOF--net-unm--node1-CEKHIL_clean_sbu_0--edge1-MIFKUJ_clean_linker_0
_symmetry_space_group_name_H-M    P1
_symmetry_Int_Tables_number       1
_symmetry_cell_setting            triclinic
loop_
_symmetry_equiv_pos_as_xyz
'x, y, z'
_cell_length_a     32.587334
_cell_length_b     32.580205
_cell_length_c     56.962536
_cell_angle_alpha  90.000994
_cell_angle_beta   90.000835
_cell_angle_gamma 90.003368
loop_
_atom_site_label
_atom_site_type_symbol
_atom_site_fract_x
_atom_site_fract_y
_atom_site_fract_z
_atom_type_partial_charge
Co0 Co 0.18432 0.26355 0.17306 0.0
O1 O 0.23167 0.23223 0.18256 0.0
O2 O 0.23216 0.29863 0.1743 0.0
C3 C 0.14033 0.24123 0.20091 0.0
O4 O 0.1418 0.30642 0.16406 0.0
Co5 Co 0.10509 0.22022 0.15541 0.0
O6 O 0.08047 0.27513 0.16109 0.0
C7 C 0.17612 0.2279 0.12356 0.0
C8 C 0.25213 0.26638 0.18141 0.0
C9 C 0.10242 0.30746 0.16235 0.0
O10 O 0.19485 0.25038 0.13879 0.0
O11 O 0.1417 0.21028 0.12764 0.0
O12 O 0.16715 0.26949 0.20565 0.0
O13 O 0.14462 0.22369 0.18068 0.0
Co14 Co 0.234 0.67921 0.67179 0.0
O15 O 0.26278 0.72722 0.68271 0.0
O16 O 0.19758 0.72613 0.67158 0.0
C17 C 0.25324 0.63532 0.70039 0.0
O18 O 0.19384 0.63575 0.66051 0.0
Co19 Co 0.28235 0.60191 0.6558 0.0
O20 O 0.2274 0.57569 0.65707 0.0
C21 C 0.27562 0.67262 0.62369 0.0
C22 C 0.22848 0.74685 0.67983 0.0
C23 C 0.19434 0.59664 0.6573 0.0
O24 O 0.25147 0.69071 0.63831 0.0
O25 O 0.29362 0.63859 0.62825 0.0
O26 O 0.2236 0.6612 0.70384 0.0
O27 O 0.2738 0.64048 0.68117 0.0
Co28 Co 0.8172 0.74352 0.17409 0.0
O29 O 0.76892 0.77506 0.18187 0.0
O30 O 0.77038 0.70768 0.17662 0.0
C31 C 0.86046 0.77054 0.20092 0.0
O32 O 0.86046 0.70014 0.16736 0.0
Co33 Co 0.89594 0.78519 0.15455 0.0
O34 O 0.92112 0.73063 0.16027 0.0
C35 C 0.82457 0.77377 0.1235 0.0
C36 C 0.74943 0.74024 0.18208 0.0
C37 C 0.8995 0.69868 0.16399 0.0
O38 O 0.80684 0.75176 0.13932 0.0
O39 O 0.85836 0.79286 0.12702 0.0
O40 O 0.83383 0.74282 0.20695 0.0
O41 O 0.85629 0.78482 0.17986 0.0
Co42 Co 0.75335 0.32067 0.67406 0.0
O43 O 0.72012 0.27517 0.68439 0.0
O44 O 0.78614 0.27131 0.67538 0.0
C45 C 0.73282 0.36631 0.70158 0.0
O46 O 0.79821 0.36066 0.66445 0.0
Co47 Co 0.71403 0.40166 0.65585 0.0
O48 O 0.7707 0.42322 0.65894 0.0
C49 C 0.71944 0.33001 0.62417 0.0
C50 C 0.75329 0.25316 0.68311 0.0
C51 C 0.80164 0.39953 0.66083 0.0
O52 O 0.73953 0.30979 0.63988 0.0
O53 O 0.70409 0.36558 0.62794 0.0
O54 O 0.76008 0.33858 0.70656 0.0
O55 O 0.7155 0.3624 0.68128 0.0
Co56 Co 0.68414 0.23601 0.33001 0.0
O57 O 0.7302 0.26816 0.31926 0.0
O58 O 0.7326 0.20198 0.32802 0.0
C59 C 0.63805 0.25708 0.30289 0.0
O60 O 0.6435 0.19225 0.34038 0.0
Co61 Co 0.60434 0.27716 0.34858 0.0
O62 O 0.58115 0.22164 0.34275 0.0
C63 C 0.67741 0.27239 0.37932 0.0
C64 C 0.75143 0.23446 0.3203 0.0
C65 C 0.60421 0.19006 0.34201 0.0
O66 O 0.69641 0.25047 0.36391 0.0
O67 O 0.64204 0.28837 0.3757 0.0
O68 O 0.6648 0.22891 0.29782 0.0
O69 O 0.64315 0.27487 0.32296 0.0
Co70 Co 0.25928 0.17802 0.82894 0.0
O71 O 0.22518 0.22297 0.81869 0.0
O72 O 0.29106 0.22815 0.82758 0.0
C73 C 0.2398 0.1322 0.80118 0.0
O74 O 0.30484 0.13873 0.83867 0.0
Co75 Co 0.22101 0.09616 0.84664 0.0
O76 O 0.27771 0.07552 0.84206 0.0
C77 C 0.2251 0.16755 0.8787 0.0
C78 C 0.25782 0.24575 0.81992 0.0
C79 C 0.3085 0.0996 0.84105 0.0
O80 O 0.24478 0.18845 0.8631 0.0
O81 O 0.21068 0.13162 0.87477 0.0
O82 O 0.26676 0.16034 0.79643 0.0
O83 O 0.22214 0.13572 0.8214 0.0
Co84 Co 0.31697 0.7571 0.3292 0.0
O85 O 0.27143 0.72511 0.31788 0.0
O86 O 0.26778 0.79044 0.32838 0.0
C87 C 0.36258 0.7384 0.30134 0.0
O88 O 0.35768 0.80055 0.34006 0.0
Co89 Co 0.39668 0.71409 0.34665 0.0
O90 O 0.419 0.77071 0.34658 0.0
C91 C 0.32464 0.71815 0.37797 0.0
C92 C 0.24959 0.75828 0.31972 0.0
C93 C 0.39628 0.80242 0.34483 0.0
O94 O 0.30547 0.74066 0.36292 0.0
O95 O 0.35964 0.70184 0.3738 0.0
O96 O 0.3353 0.76644 0.29705 0.0
O97 O 0.35811 0.71921 0.32104 0.0
Co98 Co 0.74832 0.82087 0.82924 0.0
O99 O 0.77967 0.77282 0.82084 0.0
O100 O 0.71296 0.77332 0.82815 0.0
C101 C 0.77256 0.86366 0.80129 0.0
O102 O 0.70514 0.86409 0.83688 0.0
Co103 Co 0.7912 0.90057 0.84671 0.0
O104 O 0.73606 0.92511 0.84238 0.0
C105 C 0.78019 0.83131 0.87952 0.0
C106 C 0.74526 0.75272 0.82178 0.0
C107 C 0.7039 0.90326 0.83994 0.0
O108 O 0.75949 0.81154 0.86389 0.0
O109 O 0.79788 0.86563 0.87536 0.0
O110 O 0.74458 0.83668 0.79629 0.0
O111 O 0.78873 0.8601 0.82192 0.0
H112 H 0.22521 0.28272 0.1001 0.0
H113 H 0.24414 0.28105 0.05835 0.0
H114 H 0.18348 0.16416 0.05088 0.0
H115 H 0.1641 0.16583 0.09228 0.0
H116 H 0.25948 0.16832 0.02738 0.0
H117 H 0.13373 0.24778 0.03641 0.0
H118 H 0.09289 0.30527 0.05215 0.0
H119 H 0.17658 0.3915 0.02118 0.0
H120 H 0.21825 0.33442 0.00554 0.0
H121 H 0.18655 0.13138 0.91587 0.0
H122 H 0.18922 0.15117 0.95693 0.0
H123 H 0.25886 0.25914 0.93899 0.0
H124 H 0.25692 0.23926 0.89734 0.0
H125 H 0.19302 0.27008 0.9748 0.0
H126 H 0.31237 0.19082 0.9601 0.0
H127 H 0.3527 0.13343 0.94391 0.0
H128 H 0.28341 0.04801 0.98542 0.0
H129 H 0.24214 0.10485 0.00157 0.0
C130 C 0.2166 0.25633 0.08964 0.0
C131 C 0.19301 0.22446 0.09946 0.0
C132 C 0.22722 0.25555 0.06578 0.0
C133 C 0.21492 0.22263 0.05149 0.0
C134 C 0.19327 0.18986 0.06158 0.0
C135 C 0.18212 0.19091 0.08524 0.0
C136 C 0.22225 0.22279 0.02575 0.0
C137 C 0.24508 0.19063 0.01589 0.0
C138 C 0.2045 0.25264 0.01078 0.0
C139 C 0.17938 0.28688 0.02009 0.0
C140 C 0.14362 0.279 0.03315 0.0
C141 C 0.12029 0.3115 0.04201 0.0
C142 C 0.13222 0.35201 0.03774 0.0
C143 C 0.16744 0.3601 0.02453 0.0
C144 C 0.19092 0.3277 0.01566 0.0
C145 C 0.20215 0.15964 0.92041 0.0
C146 C 0.2219 0.18347 0.90315 0.0
C147 C 0.20367 0.17084 0.944 0.0
C148 C 0.22474 0.20625 0.95103 0.0
C149 C 0.24261 0.23155 0.93389 0.0
C150 C 0.24142 0.22013 0.91011 0.0
C151 C 0.22921 0.21489 0.97649 0.0
C152 C 0.20846 0.24849 0.9863 0.0
C153 C 0.24913 0.18652 0.99147 0.0
C154 C 0.27395 0.15212 0.98193 0.0
C155 C 0.30548 0.15977 0.96563 0.0
C156 C 0.32855 0.12734 0.95648 0.0
C157 C 0.32058 0.08709 0.9636 0.0
C158 C 0.28954 0.07921 0.97992 0.0
C159 C 0.26632 0.11154 0.9891 0.0
H160 H 0.33849 0.06202 0.9565 0.0
H161 H 0.1141 0.37714 0.04461 0.0
H162 H 0.2264 0.72897 0.60137 0.0
H163 H 0.22786 0.74782 0.5597 0.0
H164 H 0.33509 0.67223 0.54972 0.0
H165 H 0.33404 0.65347 0.59112 0.0
H166 H 0.34072 0.74388 0.52536 0.0
H167 H 0.23956 0.63591 0.53789 0.0
H168 H 0.17693 0.60697 0.55572 0.0
H169 H 0.10545 0.70534 0.52665 0.0
H170 H 0.16782 0.73517 0.50892 0.0
H171 H 0.35277 0.66811 0.41285 0.0
H172 H 0.33606 0.67112 0.4544 0.0
H173 H 0.24368 0.76262 0.4406 0.0
H174 H 0.26052 0.7603 0.39856 0.0
H175 H 0.22301 0.69823 0.47654 0.0
H176 H 0.32309 0.80036 0.45896 0.0
H177 H 0.38578 0.82769 0.44045 0.0
H178 H 0.45897 0.74111 0.47888 0.0
H179 H 0.39661 0.71275 0.49732 0.0
C180 C 0.25077 0.717 0.5904 0.0
C181 C 0.27993 0.68942 0.59958 0.0
C182 C 0.25137 0.72761 0.56655 0.0
C183 C 0.28124 0.71096 0.55153 0.0
C184 C 0.31167 0.68535 0.56095 0.0
C185 C 0.31095 0.67456 0.58466 0.0
C186 C 0.27997 0.71791 0.52575 0.0
C187 C 0.31494 0.73399 0.51472 0.0
C188 C 0.24585 0.70612 0.51184 0.0
C189 C 0.20838 0.68802 0.52234 0.0
C190 C 0.21053 0.65153 0.53546 0.0
C191 C 0.17508 0.63494 0.54552 0.0
C192 C 0.13725 0.65438 0.54238 0.0
C193 C 0.13478 0.69037 0.52911 0.0
C194 C 0.17016 0.70713 0.51905 0.0
C195 C 0.3284 0.68851 0.41842 0.0
C196 C 0.30841 0.71441 0.40228 0.0
C197 C 0.31893 0.69016 0.44226 0.0
C198 C 0.28916 0.71756 0.45059 0.0
C199 C 0.26691 0.74139 0.43448 0.0
C200 C 0.27656 0.73995 0.41046 0.0
C201 C 0.28424 0.72298 0.47628 0.0
C202 C 0.24829 0.70915 0.48725 0.0
C203 C 0.31738 0.73698 0.49019 0.0
C204 C 0.35511 0.75424 0.4794 0.0
C205 C 0.35252 0.78693 0.46333 0.0
C206 C 0.388 0.80264 0.45287 0.0
C207 C 0.42633 0.7861 0.45846 0.0
C208 C 0.42925 0.75388 0.47457 0.0
C209 C 0.39384 0.73801 0.48505 0.0
H210 H 0.45377 0.7983 0.45034 0.0
H211 H 0.10984 0.6415 0.55018 0.0
H212 H 0.83433 0.83444 0.09122 0.0
H213 H 0.81269 0.83442 0.05027 0.0
H214 H 0.75474 0.71662 0.05992 0.0
H215 H 0.77614 0.71658 0.10134 0.0
H216 H 0.80688 0.71996 0.02036 0.0
H217 H 0.69389 0.79319 0.05045 0.0
H218 H 0.65668 0.84415 0.07431 0.0
H219 H 0.71737 0.94201 0.03765 0.0
H220 H 0.75547 0.89164 0.0138 0.0
H221 H 0.7468 0.75996 0.89767 0.0
H222 H 0.74264 0.74005 0.93926 0.0
H223 H 0.80995 0.84886 0.9585 0.0
H224 H 0.81478 0.86867 0.91753 0.0
H225 H 0.73512 0.83772 0.98345 0.0
H226 H 0.85712 0.7611 0.95941 0.0
H227 H 0.89352 0.70908 0.93584 0.0
H228 H 0.81181 0.61571 0.96127 0.0
H229 H 0.77457 0.66736 0.98476 0.0
C230 C 0.8165 0.80873 0.08477 0.0
C231 C 0.80696 0.77551 0.09953 0.0
C232 C 0.80403 0.80882 0.06136 0.0
C233 C 0.78197 0.77559 0.05206 0.0
C234 C 0.77166 0.7426 0.06679 0.0
C235 C 0.78365 0.74277 0.09045 0.0
C236 C 0.7721 0.77515 0.02661 0.0
C237 C 0.79022 0.74509 0.01229 0.0
C238 C 0.75044 0.80795 0.01608 0.0
C239 C 0.72772 0.83855 0.0304 0.0
C240 C 0.69957 0.82557 0.04759 0.0
C241 C 0.67827 0.85436 0.0611 0.0
C242 C 0.6847 0.89629 0.05752 0.0
C243 C 0.71242 0.90951 0.0404 0.0
C244 C 0.73383 0.88084 0.02685 0.0
C245 C 0.76115 0.77936 0.91074 0.0
C246 C 0.78097 0.81605 0.90414 0.0
C247 C 0.75865 0.76796 0.93448 0.0
C248 C 0.77566 0.79323 0.95193 0.0
C249 C 0.7963 0.82913 0.94532 0.0
C250 C 0.79917 0.84027 0.92177 0.0
C251 C 0.77153 0.78367 0.97728 0.0
C252 C 0.75072 0.81194 0.99156 0.0
C253 C 0.79038 0.74908 0.9877 0.0
C254 C 0.81271 0.71816 0.97356 0.0
C255 C 0.84665 0.72956 0.95977 0.0
C256 C 0.86749 0.70013 0.94648 0.0
C257 C 0.85488 0.65914 0.94698 0.0
C258 C 0.82147 0.64748 0.96085 0.0
C259 C 0.8005 0.67682 0.97415 0.0
H260 H 0.87108 0.63639 0.93669 0.0
H261 H 0.66816 0.91853 0.06799 0.0
H262 H 0.73264 0.22209 0.40179 0.0
H263 H 0.75247 0.22459 0.44338 0.0
H264 H 0.68103 0.33491 0.45233 0.0
H265 H 0.6612 0.33265 0.41111 0.0
H266 H 0.75435 0.33843 0.4762 0.0
H267 H 0.6408 0.24227 0.46526 0.0
H268 H 0.60908 0.18016 0.4484 0.0
H269 H 0.70413 0.10572 0.47863 0.0
H270 H 0.73672 0.16754 0.4954 0.0
H271 H 0.67591 0.36172 0.58748 0.0
H272 H 0.68106 0.34354 0.54622 0.0
H273 H 0.76321 0.24431 0.56333 0.0
H274 H 0.75868 0.26257 0.60513 0.0
H275 H 0.70128 0.22636 0.52688 0.0
H276 H 0.80779 0.32108 0.54387 0.0
H277 H 0.83877 0.38293 0.56137 0.0
H278 H 0.75946 0.45931 0.51997 0.0
H279 H 0.72743 0.39786 0.50252 0.0
C280 C 0.7219 0.24734 0.41252 0.0
C281 C 0.6951 0.27703 0.40317 0.0
C282 C 0.73304 0.24856 0.43631 0.0
C283 C 0.71784 0.27969 0.45102 0.0
C284 C 0.69309 0.31058 0.44135 0.0
C285 C 0.68165 0.30916 0.41775 0.0
C286 C 0.725 0.27924 0.47679 0.0
C287 C 0.7429 0.31387 0.48727 0.0
C288 C 0.71122 0.24661 0.49124 0.0
C289 C 0.69145 0.20952 0.48132 0.0
C290 C 0.65509 0.21268 0.46815 0.0
C291 C 0.63693 0.17754 0.45863 0.0
C292 C 0.65465 0.13903 0.46237 0.0
C293 C 0.6905 0.13558 0.4757 0.0
C294 C 0.70881 0.17065 0.48522 0.0
C295 C 0.69475 0.33564 0.58269 0.0
C296 C 0.71729 0.31395 0.59974 0.0
C297 C 0.69768 0.32536 0.559 0.0
C298 C 0.72306 0.29308 0.5517 0.0
C299 C 0.74363 0.26951 0.56865 0.0
C300 C 0.74092 0.27998 0.59252 0.0
C301 C 0.72929 0.28618 0.52619 0.0
C302 C 0.71384 0.25036 0.5158 0.0
C303 C 0.74558 0.31759 0.51177 0.0
C304 C 0.76501 0.35479 0.52199 0.0
C305 C 0.79672 0.35105 0.53862 0.0
C306 C 0.81452 0.38605 0.54851 0.0
C307 C 0.80107 0.42503 0.54181 0.0
C308 C 0.76985 0.42908 0.52515 0.0
C309 C 0.75189 0.39416 0.51522 0.0
H310 H 0.81485 0.45209 0.5495 0.0
H311 H 0.64056 0.11186 0.45499 0.0
H312 H 0.29481 0.33492 0.19461 0.0
H313 H 0.36168 0.33751 0.2141 0.0
H314 H 0.37304 0.2061 0.20698 0.0
H315 H 0.30556 0.20327 0.18839 0.0
H316 H 0.38948 0.22688 0.2497 0.0
H317 H 0.43178 0.27974 0.174 0.0
H318 H 0.42907 0.32739 0.14037 0.0
H319 H 0.45369 0.42897 0.1863 0.0
H320 H 0.45606 0.38198 0.22023 0.0
H321 H 0.60261 0.20103 0.27378 0.0
H322 H 0.53679 0.2067 0.25328 0.0
H323 H 0.52084 0.329 0.28069 0.0
H324 H 0.58627 0.32301 0.30194 0.0
H325 H 0.50633 0.31777 0.22951 0.0
H326 H 0.46502 0.26834 0.3043 0.0
H327 H 0.46059 0.22496 0.33965 0.0
H328 H 0.43051 0.12055 0.29702 0.0
H329 H 0.4354 0.16318 0.26133 0.0
C330 C 0.31192 0.30669 0.19685 0.0
C331 C 0.29493 0.26887 0.19 0.0
C332 C 0.35026 0.30821 0.20794 0.0
C333 C 0.37272 0.27201 0.21193 0.0
C334 C 0.35634 0.23445 0.20423 0.0
C335 C 0.31781 0.23286 0.1935 0.0
C336 C 0.41181 0.27256 0.22552 0.0
C337 C 0.41528 0.24623 0.24495 0.0
C338 C 0.44487 0.29922 0.22011 0.0
C339 C 0.44373 0.32739 0.19967 0.0
C340 C 0.43635 0.31227 0.17694 0.0
C341 C 0.43493 0.33915 0.15782 0.0
C342 C 0.44111 0.38118 0.1612 0.0
C343 C 0.44887 0.39641 0.1837 0.0
C344 C 0.4503 0.36967 0.20288 0.0
C345 C 0.58526 0.22926 0.2753 0.0
C346 C 0.59967 0.26174 0.28929 0.0
C347 C 0.54756 0.23233 0.26372 0.0
C348 C 0.52398 0.26821 0.26553 0.0
C349 C 0.53865 0.30106 0.27909 0.0
C350 C 0.57595 0.29762 0.29117 0.0
C351 C 0.48413 0.27118 0.25308 0.0
C352 C 0.48053 0.29825 0.23403 0.0
C353 C 0.45077 0.24541 0.2589 0.0
C354 C 0.45103 0.21891 0.28009 0.0
C355 C 0.45819 0.23598 0.3024 0.0
C356 C 0.45525 0.2116 0.32253 0.0
C357 C 0.44497 0.17011 0.32059 0.0
C358 C 0.43823 0.15276 0.29849 0.0
C359 C 0.44115 0.177 0.27831 0.0
H360 H 0.44249 0.15134 0.3362 0.0
H361 H 0.43997 0.40195 0.14638 0.0
H362 H 0.16527 0.78176 0.70376 0.0
H363 H 0.16369 0.85007 0.72149 0.0
H364 H 0.28055 0.87798 0.68935 0.0
H365 H 0.28355 0.80833 0.67345 0.0
H366 H 0.28577 0.90103 0.72998 0.0
H367 H 0.17891 0.92335 0.67353 0.0
H368 H 0.1143 0.90944 0.65242 0.0
H369 H 0.04687 0.91984 0.71691 0.0
H370 H 0.11112 0.93331 0.73846 0.0
H371 H 0.28299 0.11222 0.76173 0.0
H372 H 0.278 0.04942 0.7384 0.0
H373 H 0.18161 0.00523 0.78368 0.0
H374 H 0.18634 0.06819 0.80713 0.0
H375 H 0.16524 0.99343 0.73535 0.0
H376 H 0.27696 0.94832 0.79032 0.0
H377 H 0.34293 0.9575 0.81084 0.0
H378 H 0.39992 0.99491 0.74629 0.0
H379 H 0.3345 0.98394 0.72522 0.0
C380 C 0.19022 0.80285 0.70022 0.0
C381 C 0.2245 0.79 0.68726 0.0
C382 C 0.18922 0.84211 0.71022 0.0
C383 C 0.22174 0.86988 0.7066 0.0
C384 C 0.25511 0.85735 0.69262 0.0
C385 C 0.25678 0.81763 0.6834 0.0
C386 C 0.22301 0.91035 0.71897 0.0
C387 C 0.25947 0.92143 0.73054 0.0
C388 C 0.18861 0.93698 0.72057 0.0
C389 C 0.1499 0.92901 0.70763 0.0
C390 C 0.15034 0.92241 0.68323 0.0
C391 C 0.11377 0.91464 0.67119 0.0
C392 C 0.07652 0.91367 0.68333 0.0
C393 C 0.07574 0.92057 0.70753 0.0
C394 C 0.11222 0.92833 0.71966 0.0
C395 C 0.26056 0.08926 0.76667 0.0
C396 C 0.23508 0.09517 0.78631 0.0
C397 C 0.25794 0.05325 0.7534 0.0
C398 C 0.22978 0.02241 0.75946 0.0
C399 C 0.20362 0.0286 0.77872 0.0
C400 C 0.20638 0.06456 0.79211 0.0
C401 C 0.22791 0.98363 0.74577 0.0
C402 C 0.19141 0.97294 0.73422 0.0
C403 C 0.2623 0.95757 0.74374 0.0
C404 C 0.30098 0.96586 0.75635 0.0
C405 C 0.30356 0.95876 0.78059 0.0
C406 C 0.34088 0.9641 0.79227 0.0
C407 C 0.37553 0.97741 0.77996 0.0
C408 C 0.37304 0.98481 0.75584 0.0
C409 C 0.33597 0.97867 0.74398 0.0
H410 H 0.40438 0.98169 0.78905 0.0
H411 H 0.04825 0.90763 0.67397 0.0
H412 H 0.38524 0.78544 0.26397 0.0
H413 H 0.44884 0.78169 0.24151 0.0
H414 H 0.48753 0.67755 0.28277 0.0
H415 H 0.42425 0.68199 0.30584 0.0
H416 H 0.5483 0.72852 0.27877 0.0
H417 H 0.45544 0.66792 0.22449 0.0
H418 H 0.39275 0.66167 0.20053 0.0
H419 H 0.42494 0.77122 0.16289 0.0
H420 H 0.48758 0.77847 0.18685 0.0
H421 H 0.71039 0.67278 0.19932 0.0
H422 H 0.64222 0.66975 0.21739 0.0
H423 H 0.62326 0.79768 0.20147 0.0
H424 H 0.69207 0.80137 0.184 0.0
H425 H 0.55306 0.73116 0.19168 0.0
H426 H 0.64427 0.79216 0.25012 0.0
H427 H 0.70765 0.79372 0.27376 0.0
H428 H 0.678 0.67587 0.30295 0.0
H429 H 0.61472 0.67336 0.27916 0.0
C430 C 0.40709 0.76147 0.26813 0.0
C431 C 0.3997 0.73392 0.28664 0.0
C432 C 0.44342 0.75923 0.25518 0.0
C433 C 0.47285 0.72899 0.2602 0.0
C434 C 0.46529 0.70112 0.27853 0.0
C435 C 0.42906 0.70358 0.29164 0.0
C436 C 0.51224 0.72773 0.247 0.0
C437 C 0.54916 0.72847 0.25973 0.0
C438 C 0.51365 0.72817 0.22212 0.0
C439 C 0.47604 0.72394 0.20762 0.0
C440 C 0.449 0.69087 0.21123 0.0
C441 C 0.4135 0.68711 0.19762 0.0
C442 C 0.40482 0.71608 0.18024 0.0
C443 C 0.43168 0.74882 0.17638 0.0
C444 C 0.46722 0.75275 0.18995 0.0
C445 C 0.6915 0.70014 0.19936 0.0
C446 C 0.70652 0.73736 0.1903 0.0
C447 C 0.65266 0.69835 0.20972 0.0
C448 C 0.62794 0.7335 0.21075 0.0
C449 C 0.64201 0.77025 0.20076 0.0
C450 C 0.68126 0.77231 0.19086 0.0
C451 C 0.58846 0.73238 0.22352 0.0
C452 C 0.55179 0.73108 0.21071 0.0
C453 C 0.58719 0.73082 0.24829 0.0
C454 C 0.62511 0.73233 0.26263 0.0
C455 C 0.65152 0.76637 0.26137 0.0
C456 C 0.68736 0.76748 0.27484 0.0
C457 C 0.69693 0.73484 0.28978 0.0
C458 C 0.6706 0.70108 0.29133 0.0
C459 C 0.63474 0.69981 0.27786 0.0
H460 H 0.72467 0.73576 0.30021 0.0
H461 H 0.37731 0.71312 0.16972 0.0
H462 H 0.70245 0.21931 0.71555 0.0
H463 H 0.70887 0.1526 0.73455 0.0
H464 H 0.81215 0.12371 0.68998 0.0
H465 H 0.8074 0.19188 0.67206 0.0
H466 H 0.7014 0.07985 0.72469 0.0
H467 H 0.87861 0.05952 0.71591 0.0
H468 H 0.94095 0.10248 0.71461 0.0
H469 H 0.8777 0.19887 0.75113 0.0
H470 H 0.8152 0.15631 0.75291 0.0
H471 H 0.74281 0.8775 0.75727 0.0
H472 H 0.74294 0.94207 0.7355 0.0
H473 H 0.81183 0.99955 0.79124 0.0
H474 H 0.81338 0.93452 0.81258 0.0
H475 H 0.83673 0.02969 0.75238 0.0
H476 H 0.70611 0.01155 0.78677 0.0
H477 H 0.64138 0.97689 0.79714 0.0
H478 H 0.608 0.97092 0.72433 0.0
H479 H 0.67274 0.00539 0.71346 0.0
C480 C 0.72639 0.19862 0.7097 0.0
C481 C 0.75456 0.21083 0.69241 0.0
C482 C 0.73005 0.16037 0.72058 0.0
C483 C 0.76148 0.13307 0.71409 0.0
C484 C 0.78839 0.14451 0.6959 0.0
C485 C 0.78544 0.18332 0.68546 0.0
C486 C 0.76618 0.09309 0.72663 0.0
C487 C 0.73109 0.06899 0.73065 0.0
C488 C 0.8046 0.07912 0.73522 0.0
C489 C 0.8421 0.1049 0.73427 0.0
C490 C 0.87806 0.08985 0.72369 0.0
C491 C 0.91341 0.11413 0.72288 0.0
C492 C 0.91323 0.15344 0.73269 0.0
C493 C 0.87775 0.1685 0.74343 0.0
C494 C 0.84234 0.14432 0.74433 0.0
C495 C 0.75854 0.90373 0.76473 0.0
C496 C 0.7776 0.90104 0.7868 0.0
C497 C 0.75833 0.94074 0.75234 0.0
C498 C 0.77647 0.97606 0.76198 0.0
C499 C 0.79739 0.97286 0.78347 0.0
C500 C 0.79815 0.93564 0.79571 0.0
C501 C 0.7721 0.01655 0.75012 0.0
C502 C 0.80717 0.04062 0.74625 0.0
C503 C 0.73335 0.03168 0.74291 0.0
C504 C 0.69448 0.01066 0.74927 0.0
C505 C 0.68513 0.00256 0.77294 0.0
C506 C 0.64841 0.983 0.77893 0.0
C507 C 0.62068 0.97154 0.76142 0.0
C508 C 0.62956 0.97975 0.73787 0.0
C509 C 0.66623 0.99936 0.73179 0.0
H510 H 0.59226 0.95641 0.76611 0.0
H511 H 0.94063 0.17219 0.73204 0.0
H512 H 0.80619 0.29735 0.31619 0.0
H513 H 0.87388 0.2956 0.29774 0.0
H514 H 0.85874 0.16629 0.28356 0.0
H515 H 0.79211 0.16755 0.30333 0.0
H516 H 0.93309 0.17697 0.29321 0.0
H517 H 0.84306 0.24578 0.24078 0.0
H518 H 0.79207 0.29659 0.22744 0.0
H519 H 0.87625 0.3944 0.24255 0.0
H520 H 0.92765 0.34415 0.25635 0.0
H521 H 0.08331 0.17956 0.19904 0.0
H522 H 0.01843 0.17523 0.22092 0.0
H523 H 0.04651 0.28937 0.25569 0.0
H524 H 0.11151 0.29346 0.23439 0.0
H525 H 0.96576 0.28398 0.23414 0.0
H526 H 0.05608 0.20747 0.28617 0.0
H527 H 0.10504 0.15188 0.29505 0.0
H528 H 0.01569 0.06207 0.27426 0.0
H529 H 0.96637 0.11719 0.26495 0.0
C530 C 0.81758 0.26847 0.30938 0.0
C531 C 0.79385 0.23263 0.31111 0.0
C532 C 0.85614 0.26753 0.29862 0.0
C533 C 0.87117 0.23105 0.28857 0.0
C534 C 0.84797 0.1949 0.29102 0.0
C535 C 0.80983 0.19562 0.30234 0.0
C536 C 0.91062 0.23077 0.27522 0.0
C537 C 0.93984 0.20014 0.28009 0.0
C538 C 0.91987 0.26087 0.258 0.0
C539 C 0.88904 0.29123 0.24984 0.0
C540 C 0.8506 0.27815 0.24145 0.0
C541 C 0.82165 0.30683 0.23378 0.0
C542 C 0.83091 0.3487 0.23422 0.0
C543 C 0.86917 0.36196 0.24228 0.0
C544 C 0.89821 0.3334 0.25001 0.0
C545 C 0.07582 0.20342 0.21158 0.0
C546 C 0.1026 0.23667 0.21513 0.0
C547 C 0.03882 0.20092 0.22402 0.0
C548 C 0.0278 0.23195 0.23994 0.0
C549 C 0.05453 0.26508 0.24353 0.0
C550 C 0.09175 0.26723 0.23143 0.0
C551 C 0.98789 0.23068 0.25243 0.0
C552 C 0.95868 0.26094 0.24728 0.0
C553 C 0.97819 0.19956 0.2688 0.0
C554 C 0.00769 0.16646 0.27465 0.0
C555 C 0.04699 0.17588 0.28332 0.0
C556 C 0.07478 0.14445 0.28846 0.0
C557 C 0.06352 0.10347 0.28517 0.0
C558 C 0.02439 0.09383 0.27679 0.0
C559 C 0.9965 0.12515 0.2716 0.0
H560 H 0.08508 0.07918 0.28915 0.0
H561 H 0.80846 0.37086 0.22826 0.0
H562 H 0.32178 0.59686 0.71705 0.0
H563 H 0.32474 0.53327 0.74004 0.0
H564 H 0.19284 0.52227 0.73528 0.0
H565 H 0.18988 0.58743 0.71422 0.0
H566 H 0.2109 0.50037 0.7753 0.0
H567 H 0.26894 0.46347 0.70062 0.0
H568 H 0.31673 0.46881 0.66717 0.0
H569 H 0.41882 0.44786 0.71331 0.0
H570 H 0.37166 0.44289 0.74708 0.0
H571 H 0.19396 0.28749 0.80017 0.0
H572 H 0.19529 0.35524 0.78193 0.0
H573 H 0.32274 0.36872 0.80085 0.0
H574 H 0.32185 0.30034 0.8188 0.0
H575 H 0.30954 0.38975 0.75552 0.0
H576 H 0.24636 0.4241 0.83008 0.0
H577 H 0.19502 0.41542 0.86154 0.0
H578 H 0.09783 0.43645 0.81207 0.0
H579 H 0.1486 0.44467 0.78029 0.0
C580 C 0.29355 0.58081 0.72113 0.0
C581 C 0.25565 0.59699 0.71407 0.0
C582 C 0.29519 0.54423 0.73405 0.0
C583 C 0.25906 0.52214 0.73913 0.0
C584 C 0.22121 0.53851 0.73183 0.0
C585 C 0.21949 0.57576 0.71973 0.0
C586 C 0.26027 0.48234 0.75222 0.0
C587 C 0.23226 0.47613 0.77069 0.0
C588 C 0.28846 0.45056 0.74672 0.0
C589 C 0.31681 0.4532 0.7264 0.0
C590 C 0.3016 0.46022 0.70364 0.0
C591 C 0.32857 0.46316 0.68463 0.0
C592 C 0.37079 0.45877 0.68812 0.0
C593 C 0.38612 0.4513 0.71063 0.0
C594 C 0.35929 0.44838 0.72971 0.0
C595 C 0.22218 0.30502 0.80073 0.0
C596 C 0.25778 0.28853 0.81103 0.0
C597 C 0.22286 0.34388 0.79033 0.0
C598 C 0.25901 0.36736 0.7902 0.0
C599 C 0.29448 0.35122 0.80076 0.0
C600 C 0.29386 0.31222 0.81112 0.0
C601 C 0.26007 0.40801 0.77827 0.0
C602 C 0.28844 0.41426 0.76007 0.0
C603 C 0.23168 0.43947 0.78365 0.0
C604 C 0.20124 0.43503 0.80283 0.0
C605 C 0.21403 0.42677 0.82592 0.0
C606 C 0.18504 0.42191 0.84381 0.0
C607 C 0.14319 0.4254 0.83881 0.0
C608 C 0.13025 0.43384 0.81593 0.0
C609 C 0.15911 0.43871 0.79799 0.0
H610 H 0.1208 0.42157 0.85267 0.0
H611 H 0.39162 0.46109 0.67339 0.0
H612 H 0.21514 0.70615 0.2882 0.0
H613 H 0.14884 0.7123 0.26886 0.0
H614 H 0.12156 0.8197 0.31047 0.0
H615 H 0.18938 0.81498 0.32889 0.0
H616 H 0.07607 0.7065 0.2795 0.0
H617 H 0.0578 0.88456 0.28203 0.0
H618 H 0.10142 0.94646 0.28117 0.0
H619 H 0.19721 0.87832 0.2471 0.0
H620 H 0.15397 0.81621 0.24746 0.0
H621 H 0.87427 0.74665 0.24604 0.0
H622 H 0.93895 0.74899 0.26763 0.0
H623 H 0.99673 0.80992 0.20905 0.0
H624 H 0.93156 0.80928 0.18778 0.0
H625 H 0.02755 0.8392 0.24707 0.0
H626 H 0.00665 0.70523 0.21756 0.0
H627 H 0.97068 0.64005 0.20983 0.0
H628 H 0.96625 0.61479 0.28374 0.0
H629 H 0.00186 0.68009 0.29198 0.0
C630 C 0.19495 0.73099 0.29334 0.0
C631 C 0.20751 0.76017 0.31003 0.0
C632 C 0.1569 0.73448 0.28226 0.0
C633 C 0.13011 0.76682 0.28786 0.0
C634 C 0.14195 0.79508 0.3053 0.0
C635 C 0.18057 0.79216 0.31601 0.0
C636 C 0.09012 0.77078 0.27526 0.0
C637 C 0.06556 0.73562 0.2725 0.0
C638 C 0.07661 0.80838 0.26536 0.0
C639 C 0.10282 0.84562 0.26506 0.0
C640 C 0.08814 0.88282 0.27432 0.0
C641 C 0.1128 0.91794 0.27392 0.0
C642 C 0.15212 0.91628 0.26418 0.0
C643 C 0.16682 0.87953 0.25474 0.0
C644 C 0.14227 0.84434 0.25507 0.0
C645 C 0.90059 0.76113 0.2379 0.0
C646 C 0.89795 0.77726 0.21507 0.0
C647 C 0.93765 0.76221 0.2502 0.0
C648 C 0.97307 0.77866 0.23976 0.0
C649 C 0.96994 0.79682 0.21745 0.0
C650 C 0.93265 0.79632 0.20526 0.0
C651 C 0.0136 0.7751 0.25164 0.0
C652 C 0.03813 0.81023 0.25423 0.0
C653 C 0.02824 0.73701 0.26023 0.0
C654 C 0.00656 0.69779 0.25541 0.0
C655 C 0.99772 0.68596 0.23219 0.0
C656 C 0.97745 0.64896 0.2277 0.0
C657 C 0.96607 0.62337 0.24627 0.0
C658 C 0.97503 0.63469 0.26937 0.0
C659 C 0.9953 0.67167 0.27397 0.0
H660 H 0.95043 0.59471 0.24273 0.0
H661 H 0.17116 0.9435 0.26389 0.0
H662 H 0.76516 0.38121 0.74498 0.0
H663 H 0.76205 0.44511 0.76752 0.0
H664 H 0.68723 0.49992 0.71352 0.0
H665 H 0.68987 0.43603 0.69098 0.0
H666 H 0.75243 0.5487 0.72602 0.0
H667 H 0.64398 0.47563 0.76392 0.0
H668 H 0.6117 0.4172 0.7843 0.0
H669 H 0.69794 0.42899 0.84089 0.0
H670 H 0.73114 0.48716 0.82068 0.0
H671 H 0.67656 0.70465 0.81859 0.0
H672 H 0.67083 0.63687 0.8003 0.0
H673 H 0.80148 0.63558 0.78825 0.0
H674 H 0.80741 0.70343 0.80624 0.0
H675 H 0.70299 0.56088 0.80814 0.0
H676 H 0.81929 0.59499 0.73411 0.0
H677 H 0.84739 0.65445 0.71262 0.0
H678 H 0.73701 0.72243 0.72615 0.0
H679 H 0.70803 0.66319 0.74741 0.0
C680 C 0.74764 0.40671 0.73803 0.0
C681 C 0.72786 0.4036 0.71616 0.0
C682 C 0.74583 0.44317 0.75095 0.0
C683 C 0.72437 0.47725 0.7422 0.0
C684 C 0.70401 0.474 0.72056 0.0
C685 C 0.70546 0.43742 0.70774 0.0
C686 C 0.72477 0.51685 0.75511 0.0
C687 C 0.74161 0.55135 0.74397 0.0
C688 C 0.71021 0.52041 0.77843 0.0
C689 C 0.69029 0.48551 0.79067 0.0
C690 C 0.65629 0.46555 0.78061 0.0
C691 C 0.63778 0.43251 0.79215 0.0
C692 C 0.65282 0.41932 0.81385 0.0
C693 C 0.68635 0.43921 0.82407 0.0
C694 C 0.705 0.47224 0.81259 0.0
C695 C 0.70416 0.6897 0.81233 0.0
C696 C 0.7424 0.70959 0.81369 0.0
C697 C 0.70083 0.65093 0.80191 0.0
C698 C 0.73561 0.63144 0.79257 0.0
C699 C 0.77412 0.65033 0.795 0.0
C700 C 0.77747 0.68907 0.80538 0.0
C701 C 0.73139 0.59251 0.77918 0.0
C702 C 0.71388 0.55817 0.79021 0.0
C703 C 0.74485 0.58917 0.75561 0.0
C704 C 0.7617 0.62478 0.74255 0.0
C705 C 0.80096 0.62257 0.73241 0.0
C706 C 0.81705 0.65624 0.72028 0.0
C707 C 0.79405 0.69224 0.71809 0.0
C708 C 0.75485 0.69458 0.72793 0.0
C709 C 0.7386 0.66098 0.74004 0.0
H710 H 0.80658 0.71828 0.70872 0.0
H711 H 0.63845 0.39375 0.82276 0.0
H712 H 0.9789 0.68141 0.15193 0.0
H713 H 0.01282 0.61467 0.15203 0.0
H714 H 0.90152 0.55766 0.17684 0.0
H715 H 0.86722 0.62441 0.17695 0.0
H716 H 0.96941 0.5298 0.20025 0.0
H717 H 0.92669 0.54869 0.12066 0.0
H718 H 0.91993 0.58503 0.0829 0.0
H719 H 0.05095 0.58547 0.07491 0.0
H720 H 0.05853 0.54964 0.11283 0.0
H721 H 0.02193 0.32343 0.17193 0.0
H722 H 0.98778 0.39021 0.17256 0.0
H723 H 0.1012 0.44922 0.15299 0.0
H724 H 0.13581 0.38251 0.15243 0.0
H725 H 0.03196 0.47573 0.12705 0.0
H726 H 0.07315 0.45307 0.20676 0.0
H727 H 0.07777 0.41453 0.24388 0.0
H728 H 0.94691 0.42027 0.25164 0.0
H729 H 0.94124 0.45745 0.21406 0.0
C730 C 0.96154 0.65475 0.15741 0.0
C731 C 0.92019 0.65825 0.16425 0.0
C732 C 0.98098 0.6166 0.1574 0.0
C733 C 0.95951 0.58123 0.16419 0.0
C734 C 0.91855 0.58464 0.17147 0.0
C735 C 0.89897 0.62278 0.1714 0.0
C736 C 0.97979 0.54063 0.16342 0.0
C737 C 0.9826 0.51766 0.18419 0.0
C738 C 0.9976 0.5253 0.14253 0.0
C739 C 0.99319 0.54687 0.11972 0.0
C740 C 0.95408 0.55687 0.11096 0.0
C741 C 0.9501 0.57731 0.08951 0.0
C742 C 0.98499 0.58766 0.07655 0.0
C743 C 0.02395 0.5775 0.08499 0.0
C744 C 0.02811 0.5571 0.10646 0.0
C745 C 0.03961 0.35057 0.16763 0.0
C746 C 0.08159 0.34772 0.16212 0.0
C747 C 0.02007 0.38867 0.16811 0.0
C748 C 0.0421 0.42452 0.16296 0.0
C749 C 0.08378 0.4218 0.15704 0.0
C750 C 0.10349 0.38373 0.15682 0.0
C751 C 0.0216 0.46494 0.16386 0.0
C752 C 0.01875 0.48786 0.1431 0.0
C753 C 0.00346 0.47999 0.18473 0.0
C754 C 0.00674 0.4576 0.20737 0.0
C755 C 0.04526 0.44559 0.21617 0.0
C756 C 0.04806 0.42394 0.2373 0.0
C757 C 0.01259 0.41463 0.25 0.0
C758 C 0.97428 0.4271 0.24164 0.0
C759 C 0.97125 0.44842 0.22041 0.0
H760 H 0.01481 0.39795 0.26639 0.0
H761 H 0.98184 0.60346 0.05993 0.0
H762 H 0.82153 0.47904 0.65045 0.0
H763 H 0.88978 0.50906 0.64725 0.0
H764 H 0.94427 0.39154 0.66286 0.0
H765 H 0.87592 0.36107 0.66631 0.0
H766 H 0.97916 0.45368 0.68813 0.0
H767 H 0.9461 0.42672 0.60785 0.0
H768 H 0.90359 0.4282 0.57205 0.0
H769 H 0.90786 0.55991 0.5717 0.0
H770 H 0.94992 0.55926 0.6077 0.0
H771 H 0.1809 0.51392 0.65898 0.0
H772 H 0.11527 0.47812 0.65639 0.0
H773 H 0.05296 0.59355 0.64633 0.0
H774 H 0.11856 0.62985 0.64884 0.0
H775 H 0.02392 0.52919 0.61687 0.0
H776 H 0.05289 0.55605 0.69824 0.0
H777 H 0.09738 0.55522 0.73324 0.0
H778 H 0.10114 0.42355 0.73114 0.0
H779 H 0.05727 0.42363 0.69577 0.0
C780 C 0.84793 0.45943 0.65316 0.0
C781 C 0.84317 0.41756 0.65859 0.0
C782 C 0.88696 0.47665 0.65122 0.0
C783 C 0.92202 0.4524 0.65457 0.0
C784 C 0.91752 0.41071 0.66014 0.0
C785 C 0.87844 0.39337 0.66204 0.0
C786 C 0.96333 0.47099 0.65274 0.0
C787 C 0.98922 0.46956 0.6724 0.0
C788 C 0.97603 0.49242 0.63236 0.0
C789 C 0.95089 0.49294 0.61061 0.0
C790 C 0.93771 0.45602 0.60025 0.0
C791 C 0.91372 0.4567 0.5799 0.0
C792 C 0.90294 0.49412 0.56964 0.0
C793 C 0.9162 0.53094 0.57968 0.0
C794 C 0.94016 0.53044 0.60005 0.0
C795 C 0.15335 0.53176 0.65595 0.0
C796 C 0.15493 0.57481 0.65428 0.0
C797 C 0.1159 0.5112 0.6545 0.0
C798 C 0.0794 0.53328 0.65133 0.0
C799 C 0.08091 0.57605 0.64876 0.0
C800 C 0.11836 0.59671 0.65037 0.0
C801 C 0.03942 0.51197 0.65225 0.0
C802 C 0.01385 0.51298 0.63248 0.0
C803 C 0.02696 0.49016 0.6725 0.0
C804 C 0.05212 0.48986 0.69423 0.0
C805 C 0.06337 0.52692 0.70516 0.0
C806 C 0.08847 0.52659 0.72506 0.0
C807 C 0.10212 0.48937 0.73437 0.0
C808 C 0.09055 0.45236 0.72387 0.0
C809 C 0.06556 0.45252 0.7039 0.0
H810 H 0.12164 0.48926 0.74972 0.0
H811 H 0.88441 0.49459 0.55388 0.0
H812 H 0.63086 0.12249 0.36586 0.0
H813 H 0.59608 0.05589 0.36906 0.0
H814 H 0.50039 0.09917 0.32297 0.0
H815 H 0.53431 0.1662 0.32049 0.0
H816 H 0.46816 0.06187 0.36002 0.0
H817 H 0.57687 0.03248 0.30446 0.0
H818 H 0.64888 0.02886 0.29127 0.0
H819 H 0.67767 0.94831 0.34862 0.0
H820 H 0.60593 0.95187 0.36232 0.0
H821 H 0.37067 0.87614 0.32724 0.0
H822 H 0.40638 0.94198 0.32951 0.0
H823 H 0.50094 0.88642 0.37203 0.0
H824 H 0.46621 0.82023 0.36902 0.0
H825 H 0.53507 0.92976 0.33995 0.0
H826 H 0.42676 0.95511 0.39463 0.0
H827 H 0.3554 0.95867 0.40886 0.0
H828 H 0.32636 0.04666 0.35526 0.0
H829 H 0.39742 0.04322 0.34048 0.0
C830 C 0.60241 0.11761 0.35642 0.0
C831 C 0.58476 0.1494 0.34319 0.0
C832 C 0.58264 0.07963 0.35821 0.0
C833 C 0.54554 0.07266 0.34627 0.0
C834 C 0.52855 0.10422 0.33262 0.0
C835 C 0.54785 0.14234 0.33121 0.0
C836 C 0.52379 0.03283 0.34813 0.0
C837 C 0.48263 0.03297 0.35542 0.0
C838 C 0.54309 0.99506 0.34287 0.0
C839 C 0.58615 0.99277 0.33454 0.0
C840 C 0.59863 0.01423 0.31435 0.0
C841 C 0.63939 0.01215 0.30676 0.0
C842 C 0.66786 0.98846 0.31913 0.0
C843 C 0.65561 0.9667 0.33907 0.0
C844 C 0.6149 0.96871 0.34674 0.0
C845 C 0.39882 0.87811 0.33729 0.0
C846 C 0.4157 0.84304 0.3479 0.0
C847 C 0.41915 0.9158 0.33867 0.0
C848 C 0.4562 0.91933 0.35116 0.0
C849 C 0.4725 0.88448 0.36224 0.0
C850 C 0.45258 0.84668 0.36053 0.0
C851 C 0.47913 0.95871 0.35159 0.0
C852 C 0.52056 0.95853 0.34475 0.0
C853 C 0.46014 0.99643 0.35744 0.0
C854 C 0.41735 0.9986 0.36631 0.0
C855 C 0.40509 0.97498 0.38576 0.0
C856 C 0.36469 0.97702 0.39394 0.0
C857 C 0.33634 0.00279 0.38294 0.0
C858 C 0.34834 0.02667 0.36375 0.0
C859 C 0.38868 0.02471 0.35548 0.0
H860 H 0.30508 0.00433 0.38931 0.0
H861 H 0.69939 0.98689 0.31323 0.0
H862 H 0.38103 0.13756 0.85257 0.0
H863 H 0.44918 0.10624 0.85489 0.0
H864 H 0.39767 0.98961 0.83436 0.0
H865 H 0.32952 0.02019 0.83327 0.0
H866 H 0.44924 0.97518 0.86518 0.0
H867 H 0.45406 0.06064 0.79548 0.0
H868 H 0.44879 0.12582 0.77361 0.0
H869 H 0.54293 0.17861 0.81688 0.0
H870 H 0.54844 0.11388 0.83915 0.0
H871 H 0.62907 0.87302 0.82644 0.0
H872 H 0.56283 0.90819 0.8278 0.0
H873 H 0.62117 0.01536 0.85722 0.0
H874 H 0.68755 0.98093 0.85539 0.0
H875 H 0.56827 0.0366 0.82385 0.0
H876 H 0.56533 0.94737 0.89163 0.0
H877 H 0.57055 0.88072 0.91197 0.0
H878 H 0.47197 0.83308 0.87001 0.0
H879 H 0.46651 0.89929 0.84923 0.0
C880 C 0.38434 0.10525 0.84851 0.0
C881 C 0.34998 0.08138 0.8425 0.0
C882 C 0.42337 0.0874 0.8497 0.0
C883 C 0.42888 0.04567 0.84417 0.0
C884 C 0.39439 0.02187 0.83851 0.0
C885 C 0.35541 0.03942 0.83782 0.0
C886 C 0.47022 0.02626 0.84427 0.0
C887 C 0.47507 0.9885 0.85588 0.0
C888 C 0.50442 0.04388 0.83266 0.0
C889 C 0.50138 0.08259 0.8191 0.0
C890 C 0.47348 0.08623 0.80038 0.0
C891 C 0.47048 0.12307 0.78792 0.0
C892 C 0.49544 0.15636 0.79389 0.0
C893 C 0.52358 0.15282 0.81229 0.0
C894 C 0.52669 0.11607 0.82482 0.0
C895 C 0.62778 0.90401 0.8333 0.0
C896 C 0.66357 0.92405 0.84094 0.0
C897 C 0.58988 0.92403 0.83411 0.0
C898 C 0.58698 0.96419 0.84295 0.0
C899 C 0.62269 0.98436 0.85039 0.0
C900 C 0.66061 0.96455 0.84937 0.0
C901 C 0.54679 0.98536 0.84434 0.0
C902 C 0.54232 0.02344 0.83312 0.0
C903 C 0.51278 0.96781 0.85604 0.0
C904 C 0.51572 0.92819 0.86877 0.0
C905 C 0.54492 0.92261 0.88667 0.0
C906 C 0.5479 0.88492 0.89828 0.0
C907 C 0.52166 0.85267 0.89225 0.0
C908 C 0.49229 0.85808 0.87465 0.0
C909 C 0.48921 0.89569 0.86297 0.0
H910 H 0.52404 0.8235 0.90125 0.0
H911 H 0.49303 0.18487 0.78424 0.0
loop_
_geom_bond_atom_site_label_1
_geom_bond_atom_site_label_2
_geom_bond_distance
_geom_bond_site_symmetry_2
_ccdc_geom_bond_type
Co0 O1 2.216 . S
Co0 O2 2.091 . S
Co0 O4 2.004 . S
Co0 O10 2.021 . S
Co0 O12 2.137 . S
Co0 O13 2.244 . S
O1 Co0 2.216 . S
O1 C8 1.247 . S
O2 Co0 2.091 . S
O2 C8 1.261 . S
C3 O12 1.247 . S
C3 O13 1.272 . S
O4 Co0 2.004 . S
O4 C9 1.259 . S
Co5 O6 2.061 . S
Co5 O11 2.052 . S
Co5 O13 2.135 . S
O6 Co5 2.061 . S
O6 C9 1.235 . S
C7 O10 1.238 . S
C7 O11 1.241 . S
C8 O1 1.247 . S
C8 O2 1.261 . S
C9 O4 1.259 . S
C9 O6 1.235 . S
O10 Co0 2.021 . S
O10 C7 1.238 . S
O11 Co5 2.052 . S
O11 C7 1.241 . S
O12 Co0 2.137 . S
O12 C3 1.247 . S
O13 Co0 2.244 . S
O13 C3 1.272 . S
O13 Co5 2.135 . S
Co14 O15 2.216 . S
Co14 O16 2.091 . S
Co14 O18 2.004 . S
Co14 O24 2.021 . S
Co14 O26 2.137 . S
Co14 O27 2.244 . S
O15 Co14 2.216 . S
O15 C22 1.247 . S
O16 Co14 2.091 . S
O16 C22 1.261 . S
C17 O26 1.247 . S
C17 O27 1.272 . S
O18 Co14 2.004 . S
O18 C23 1.259 . S
Co19 O20 2.061 . S
Co19 O25 2.052 . S
Co19 O27 2.135 . S
O20 Co19 2.061 . S
O20 C23 1.235 . S
C21 O24 1.238 . S
C21 O25 1.241 . S
C22 O15 1.247 . S
C22 O16 1.261 . S
C23 O18 1.259 . S
C23 O20 1.235 . S
O24 Co14 2.021 . S
O24 C21 1.238 . S
O25 Co19 2.052 . S
O25 C21 1.241 . S
O26 Co14 2.137 . S
O26 C17 1.247 . S
O27 Co14 2.244 . S
O27 C17 1.272 . S
O27 Co19 2.135 . S
Co28 O29 2.216 . S
Co28 O30 2.091 . S
Co28 O32 2.004 . S
Co28 O38 2.021 . S
Co28 O40 2.137 . S
Co28 O41 2.244 . S
O29 Co28 2.216 . S
O29 C36 1.247 . S
O30 Co28 2.091 . S
O30 C36 1.261 . S
C31 O40 1.247 . S
C31 O41 1.272 . S
O32 Co28 2.004 . S
O32 C37 1.259 . S
Co33 O34 2.061 . S
Co33 O39 2.052 . S
Co33 O41 2.135 . S
O34 Co33 2.061 . S
O34 C37 1.235 . S
C35 O38 1.238 . S
C35 O39 1.241 . S
C36 O29 1.247 . S
C36 O30 1.261 . S
C37 O32 1.259 . S
C37 O34 1.235 . S
O38 Co28 2.021 . S
O38 C35 1.238 . S
O39 Co33 2.052 . S
O39 C35 1.241 . S
O40 Co28 2.137 . S
O40 C31 1.247 . S
O41 Co28 2.244 . S
O41 C31 1.272 . S
O41 Co33 2.135 . S
Co42 O43 2.216 . S
Co42 O44 2.091 . S
Co42 O46 2.004 . S
Co42 O52 2.021 . S
Co42 O54 2.137 . S
Co42 O55 2.244 . S
O43 Co42 2.216 . S
O43 C50 1.247 . S
O44 Co42 2.091 . S
O44 C50 1.261 . S
C45 O54 1.247 . S
C45 O55 1.272 . S
O46 Co42 2.004 . S
O46 C51 1.259 . S
Co47 O48 2.061 . S
Co47 O53 2.052 . S
Co47 O55 2.135 . S
O48 Co47 2.061 . S
O48 C51 1.235 . S
C49 O52 1.238 . S
C49 O53 1.241 . S
C50 O43 1.247 . S
C50 O44 1.261 . S
C51 O46 1.259 . S
C51 O48 1.235 . S
O52 Co42 2.021 . S
O52 C49 1.238 . S
O53 Co47 2.052 . S
O53 C49 1.241 . S
O54 Co42 2.137 . S
O54 C45 1.247 . S
O55 Co42 2.244 . S
O55 C45 1.272 . S
O55 Co47 2.135 . S
Co56 O57 2.216 . S
Co56 O58 2.091 . S
Co56 O60 2.004 . S
Co56 O66 2.021 . S
Co56 O68 2.137 . S
Co56 O69 2.244 . S
O57 Co56 2.216 . S
O57 C64 1.247 . S
O58 Co56 2.091 . S
O58 C64 1.261 . S
C59 O68 1.247 . S
C59 O69 1.272 . S
O60 Co56 2.004 . S
O60 C65 1.259 . S
Co61 O62 2.061 . S
Co61 O67 2.052 . S
Co61 O69 2.135 . S
O62 Co61 2.061 . S
O62 C65 1.235 . S
C63 O66 1.238 . S
C63 O67 1.241 . S
C64 O57 1.247 . S
C64 O58 1.261 . S
C65 O60 1.259 . S
C65 O62 1.235 . S
O66 Co56 2.021 . S
O66 C63 1.238 . S
O67 Co61 2.052 . S
O67 C63 1.241 . S
O68 Co56 2.137 . S
O68 C59 1.247 . S
O69 Co56 2.244 . S
O69 C59 1.272 . S
O69 Co61 2.135 . S
Co70 O71 2.216 . S
Co70 O72 2.091 . S
Co70 O74 2.004 . S
Co70 O80 2.021 . S
Co70 O82 2.137 . S
Co70 O83 2.244 . S
O71 Co70 2.216 . S
O71 C78 1.247 . S
O72 Co70 2.091 . S
O72 C78 1.261 . S
C73 O82 1.247 . S
C73 O83 1.272 . S
O74 Co70 2.004 . S
O74 C79 1.259 . S
Co75 O76 2.061 . S
Co75 O81 2.052 . S
Co75 O83 2.135 . S
O76 Co75 2.061 . S
O76 C79 1.235 . S
C77 O80 1.238 . S
C77 O81 1.241 . S
C78 O71 1.247 . S
C78 O72 1.261 . S
C79 O74 1.259 . S
C79 O76 1.235 . S
O80 Co70 2.021 . S
O80 C77 1.238 . S
O81 Co75 2.052 . S
O81 C77 1.241 . S
O82 Co70 2.137 . S
O82 C73 1.247 . S
O83 Co70 2.244 . S
O83 C73 1.272 . S
O83 Co75 2.135 . S
Co84 O85 2.216 . S
Co84 O86 2.091 . S
Co84 O88 2.004 . S
Co84 O94 2.021 . S
Co84 O96 2.137 . S
Co84 O97 2.244 . S
O85 Co84 2.216 . S
O85 C92 1.247 . S
O86 Co84 2.091 . S
O86 C92 1.261 . S
C87 O96 1.247 . S
C87 O97 1.272 . S
O88 Co84 2.004 . S
O88 C93 1.259 . S
Co89 O90 2.061 . S
Co89 O95 2.052 . S
Co89 O97 2.135 . S
O90 Co89 2.061 . S
O90 C93 1.235 . S
C91 O94 1.238 . S
C91 O95 1.241 . S
C92 O85 1.247 . S
C92 O86 1.261 . S
C93 O88 1.259 . S
C93 O90 1.235 . S
O94 Co84 2.021 . S
O94 C91 1.238 . S
O95 Co89 2.052 . S
O95 C91 1.241 . S
O96 Co84 2.137 . S
O96 C87 1.247 . S
O97 Co84 2.244 . S
O97 C87 1.272 . S
O97 Co89 2.135 . S
Co98 O99 2.216 . S
Co98 O100 2.091 . S
Co98 O102 2.004 . S
Co98 O108 2.021 . S
Co98 O110 2.137 . S
Co98 O111 2.244 . S
O99 Co98 2.216 . S
O99 C106 1.247 . S
O100 Co98 2.091 . S
O100 C106 1.261 . S
C101 O110 1.247 . S
C101 O111 1.272 . S
O102 Co98 2.004 . S
O102 C107 1.259 . S
Co103 O104 2.061 . S
Co103 O109 2.052 . S
Co103 O111 2.135 . S
O104 Co103 2.061 . S
O104 C107 1.235 . S
C105 O108 1.238 . S
C105 O109 1.241 . S
C106 O99 1.247 . S
C106 O100 1.261 . S
C107 O102 1.259 . S
C107 O104 1.235 . S
O108 Co98 2.021 . S
O108 C105 1.238 . S
O109 Co103 2.052 . S
O109 C105 1.241 . S
O110 Co98 2.137 . S
O110 C101 1.247 . S
O111 Co98 2.244 . S
O111 C101 1.272 . S
O111 Co103 2.135 . S
H112 C130 0.951 . S
H113 C132 0.951 . S
H114 C134 0.950 . S
H115 C135 0.950 . S
H116 C137 0.950 . S
H117 C140 0.950 . S
H118 C141 0.950 . S
H119 C143 0.950 . S
H120 C144 0.950 . S
H121 C145 0.951 . S
H122 C147 0.951 . S
H123 C149 0.950 . S
H124 C150 0.950 . S
H125 C152 0.950 . S
H126 C155 0.950 . S
H127 C156 0.950 . S
H128 C158 0.950 . S
H129 C159 0.950 . S
C130 H112 0.951 . S
C130 C131 1.366 . S
C130 C132 1.388 . S
C131 C130 1.366 . S
C131 C135 1.385 . S
C132 H113 0.951 . S
C132 C130 1.388 . S
C132 C133 1.366 . S
C133 C132 1.366 . S
C133 C134 1.414 . S
C133 C136 1.499 . S
C134 H114 0.950 . S
C134 C133 1.414 . S
C134 C135 1.374 . S
C135 H115 0.950 . S
C135 C131 1.385 . S
C135 C134 1.374 . S
C136 C133 1.499 . S
C136 C137 1.373 . S
C136 C138 1.389 . S
C137 H116 0.950 . S
C137 C136 1.373 . S
C137 C153 1.377 1_554 S
C138 C136 1.389 . S
C138 C139 1.524 . S
C138 C152 1.377 1_554 S
C139 C138 1.524 . S
C139 C140 1.397 . S
C139 C144 1.363 1_554 S
C140 H117 0.950 . S
C140 C139 1.397 . S
C140 C141 1.334 . S
C141 H118 0.950 . S
C141 C140 1.334 . S
C141 C142 1.287 . S
C142 C141 1.287 . S
C142 C143 1.524 1_554 S
C142 H161 0.913 . S
C143 H119 0.950 . S
C143 C142 1.524 1_556 S
C143 C144 1.415 . S
C144 H120 0.950 . S
C144 C139 1.363 1_556 S
C144 C143 1.415 . S
C145 H121 0.951 . S
C145 C146 1.366 . S
C145 C147 1.388 . S
C146 C145 1.366 . S
C146 C150 1.385 . S
C147 H122 0.951 . S
C147 C145 1.388 . S
C147 C148 1.366 . S
C148 C147 1.366 . S
C148 C149 1.414 . S
C148 C151 1.499 . S
C149 H123 0.950 . S
C149 C148 1.414 . S
C149 C150 1.374 . S
C150 H124 0.950 . S
C150 C146 1.385 . S
C150 C149 1.374 . S
C151 C148 1.499 . S
C151 C152 1.373 . S
C151 C153 1.389 . S
C152 H125 0.950 . S
C152 C138 1.377 1_556 S
C152 C151 1.373 . S
C153 C137 1.377 1_556 S
C153 C151 1.389 . S
C153 C154 1.524 . S
C154 C153 1.524 . S
C154 C155 1.397 . S
C154 C159 1.363 1_556 S
C155 H126 0.950 . S
C155 C154 1.397 . S
C155 C156 1.334 . S
C156 H127 0.950 . S
C156 C155 1.334 . S
C156 C157 1.287 . S
C157 C156 1.287 . S
C157 C158 1.524 1_556 S
C157 H160 0.999 . S
C158 H128 0.950 . S
C158 C157 1.524 1_554 S
C158 C159 1.415 . S
C159 H129 0.950 . S
C159 C154 1.363 1_554 S
C159 C158 1.415 . S
H160 C157 0.999 . S
H161 C142 0.913 . S
H162 C180 0.951 . S
H163 C182 0.951 . S
H164 C184 0.950 . S
H165 C185 0.950 . S
H166 C187 0.950 . S
H167 C190 0.950 . S
H168 C191 0.950 . S
H169 C193 0.950 . S
H170 C194 0.950 . S
H171 C195 0.951 . S
H172 C197 0.951 . S
H173 C199 0.950 . S
H174 C200 0.950 . S
H175 C202 0.950 . S
H176 C205 0.950 . S
H177 C206 0.950 . S
H178 C208 0.950 . S
H179 C209 0.950 . S
C180 H162 0.951 . S
C180 C181 1.366 . S
C180 C182 1.388 . S
C181 C180 1.366 . S
C181 C185 1.385 . S
C182 H163 0.951 . S
C182 C180 1.388 . S
C182 C183 1.366 . S
C183 C182 1.366 . S
C183 C184 1.414 . S
C183 C186 1.499 . S
C184 H164 0.950 . S
C184 C183 1.414 . S
C184 C185 1.374 . S
C185 H165 0.950 . S
C185 C181 1.385 . S
C185 C184 1.374 . S
C186 C183 1.499 . S
C186 C187 1.373 . S
C186 C188 1.389 . S
C187 H166 0.950 . S
C187 C186 1.373 . S
C187 C203 1.377 . S
C188 C186 1.389 . S
C188 C189 1.524 . S
C188 C202 1.377 . S
C189 C188 1.524 . S
C189 C190 1.397 . S
C189 C194 1.363 . S
C190 H167 0.950 . S
C190 C189 1.397 . S
C190 C191 1.334 . S
C191 H168 0.950 . S
C191 C190 1.334 . S
C191 C192 1.287 . S
C192 C191 1.287 . S
C192 C193 1.524 . S
C192 H211 0.913 . S
C193 H169 0.950 . S
C193 C192 1.524 . S
C193 C194 1.415 . S
C194 H170 0.950 . S
C194 C189 1.363 . S
C194 C193 1.415 . S
C195 H171 0.951 . S
C195 C196 1.366 . S
C195 C197 1.388 . S
C196 C195 1.366 . S
C196 C200 1.385 . S
C197 H172 0.951 . S
C197 C195 1.388 . S
C197 C198 1.366 . S
C198 C197 1.366 . S
C198 C199 1.414 . S
C198 C201 1.499 . S
C199 H173 0.950 . S
C199 C198 1.414 . S
C199 C200 1.374 . S
C200 H174 0.950 . S
C200 C196 1.385 . S
C200 C199 1.374 . S
C201 C198 1.499 . S
C201 C202 1.373 . S
C201 C203 1.389 . S
C202 H175 0.950 . S
C202 C188 1.377 . S
C202 C201 1.373 . S
C203 C187 1.377 . S
C203 C201 1.389 . S
C203 C204 1.524 . S
C204 C203 1.524 . S
C204 C205 1.397 . S
C204 C209 1.363 . S
C205 H176 0.950 . S
C205 C204 1.397 . S
C205 C206 1.334 . S
C206 H177 0.950 . S
C206 C205 1.334 . S
C206 C207 1.287 . S
C207 C206 1.287 . S
C207 C208 1.524 . S
C207 H210 0.999 . S
C208 H178 0.950 . S
C208 C207 1.524 . S
C208 C209 1.415 . S
C209 H179 0.950 . S
C209 C204 1.363 . S
C209 C208 1.415 . S
H210 C207 0.999 . S
H211 C192 0.913 . S
H212 C230 0.951 . S
H213 C232 0.951 . S
H214 C234 0.950 . S
H215 C235 0.950 . S
H216 C237 0.950 . S
H217 C240 0.950 . S
H218 C241 0.950 . S
H219 C243 0.950 . S
H220 C244 0.950 . S
H221 C245 0.951 . S
H222 C247 0.951 . S
H223 C249 0.950 . S
H224 C250 0.950 . S
H225 C252 0.950 . S
H226 C255 0.950 . S
H227 C256 0.950 . S
H228 C258 0.950 . S
H229 C259 0.950 . S
C230 H212 0.951 . S
C230 C231 1.366 . S
C230 C232 1.388 . S
C231 C230 1.366 . S
C231 C235 1.385 . S
C232 H213 0.951 . S
C232 C230 1.388 . S
C232 C233 1.366 . S
C233 C232 1.366 . S
C233 C234 1.414 . S
C233 C236 1.499 . S
C234 H214 0.950 . S
C234 C233 1.414 . S
C234 C235 1.374 . S
C235 H215 0.950 . S
C235 C231 1.385 . S
C235 C234 1.374 . S
C236 C233 1.499 . S
C236 C237 1.373 . S
C236 C238 1.389 . S
C237 H216 0.950 . S
C237 C236 1.373 . S
C237 C253 1.377 1_554 S
C238 C236 1.389 . S
C238 C239 1.524 . S
C238 C252 1.377 1_554 S
C239 C238 1.524 . S
C239 C240 1.397 . S
C239 C244 1.363 . S
C240 H217 0.950 . S
C240 C239 1.397 . S
C240 C241 1.334 . S
C241 H218 0.950 . S
C241 C240 1.334 . S
C241 C242 1.287 . S
C242 C241 1.287 . S
C242 C243 1.524 . S
C242 H261 0.913 . S
C243 H219 0.950 . S
C243 C242 1.524 . S
C243 C244 1.415 . S
C244 H220 0.950 . S
C244 C239 1.363 . S
C244 C243 1.415 . S
C245 H221 0.951 . S
C245 C246 1.366 . S
C245 C247 1.388 . S
C246 C245 1.366 . S
C246 C250 1.385 . S
C247 H222 0.951 . S
C247 C245 1.388 . S
C247 C248 1.366 . S
C248 C247 1.366 . S
C248 C249 1.414 . S
C248 C251 1.499 . S
C249 H223 0.950 . S
C249 C248 1.414 . S
C249 C250 1.374 . S
C250 H224 0.950 . S
C250 C246 1.385 . S
C250 C249 1.374 . S
C251 C248 1.499 . S
C251 C252 1.373 . S
C251 C253 1.389 . S
C252 H225 0.950 . S
C252 C238 1.377 1_556 S
C252 C251 1.373 . S
C253 C237 1.377 1_556 S
C253 C251 1.389 . S
C253 C254 1.524 . S
C254 C253 1.524 . S
C254 C255 1.397 . S
C254 C259 1.363 . S
C255 H226 0.950 . S
C255 C254 1.397 . S
C255 C256 1.334 . S
C256 H227 0.950 . S
C256 C255 1.334 . S
C256 C257 1.287 . S
C257 C256 1.287 . S
C257 C258 1.524 . S
C257 H260 0.999 . S
C258 H228 0.950 . S
C258 C257 1.524 . S
C258 C259 1.415 . S
C259 H229 0.950 . S
C259 C254 1.363 . S
C259 C258 1.415 . S
H260 C257 0.999 . S
H261 C242 0.913 . S
H262 C280 0.951 . S
H263 C282 0.951 . S
H264 C284 0.950 . S
H265 C285 0.950 . S
H266 C287 0.950 . S
H267 C290 0.950 . S
H268 C291 0.950 . S
H269 C293 0.950 . S
H270 C294 0.950 . S
H271 C295 0.951 . S
H272 C297 0.951 . S
H273 C299 0.950 . S
H274 C300 0.950 . S
H275 C302 0.950 . S
H276 C305 0.950 . S
H277 C306 0.950 . S
H278 C308 0.950 . S
H279 C309 0.950 . S
C280 H262 0.951 . S
C280 C281 1.366 . S
C280 C282 1.388 . S
C281 C280 1.366 . S
C281 C285 1.385 . S
C282 H263 0.951 . S
C282 C280 1.388 . S
C282 C283 1.366 . S
C283 C282 1.366 . S
C283 C284 1.414 . S
C283 C286 1.499 . S
C284 H264 0.950 . S
C284 C283 1.414 . S
C284 C285 1.374 . S
C285 H265 0.950 . S
C285 C281 1.385 . S
C285 C284 1.374 . S
C286 C283 1.499 . S
C286 C287 1.373 . S
C286 C288 1.389 . S
C287 H266 0.950 . S
C287 C286 1.373 . S
C287 C303 1.377 . S
C288 C286 1.389 . S
C288 C289 1.524 . S
C288 C302 1.377 . S
C289 C288 1.524 . S
C289 C290 1.397 . S
C289 C294 1.363 . S
C290 H267 0.950 . S
C290 C289 1.397 . S
C290 C291 1.334 . S
C291 H268 0.950 . S
C291 C290 1.334 . S
C291 C292 1.287 . S
C292 C291 1.287 . S
C292 C293 1.524 . S
C292 H311 0.913 . S
C293 H269 0.950 . S
C293 C292 1.524 . S
C293 C294 1.415 . S
C294 H270 0.950 . S
C294 C289 1.363 . S
C294 C293 1.415 . S
C295 H271 0.951 . S
C295 C296 1.366 . S
C295 C297 1.388 . S
C296 C295 1.366 . S
C296 C300 1.385 . S
C297 H272 0.951 . S
C297 C295 1.388 . S
C297 C298 1.366 . S
C298 C297 1.366 . S
C298 C299 1.414 . S
C298 C301 1.499 . S
C299 H273 0.950 . S
C299 C298 1.414 . S
C299 C300 1.374 . S
C300 H274 0.950 . S
C300 C296 1.385 . S
C300 C299 1.374 . S
C301 C298 1.499 . S
C301 C302 1.373 . S
C301 C303 1.389 . S
C302 H275 0.950 . S
C302 C288 1.377 . S
C302 C301 1.373 . S
C303 C287 1.377 . S
C303 C301 1.389 . S
C303 C304 1.524 . S
C304 C303 1.524 . S
C304 C305 1.397 . S
C304 C309 1.363 . S
C305 H276 0.950 . S
C305 C304 1.397 . S
C305 C306 1.334 . S
C306 H277 0.950 . S
C306 C305 1.334 . S
C306 C307 1.287 . S
C307 C306 1.287 . S
C307 C308 1.524 . S
C307 H310 0.999 . S
C308 H278 0.950 . S
C308 C307 1.524 . S
C308 C309 1.415 . S
C309 H279 0.950 . S
C309 C304 1.363 . S
C309 C308 1.415 . S
H310 C307 0.999 . S
H311 C292 0.913 . S
H312 C330 0.951 . S
H313 C332 0.951 . S
H314 C334 0.950 . S
H315 C335 0.950 . S
H316 C337 0.950 . S
H317 C340 0.950 . S
H318 C341 0.950 . S
H319 C343 0.950 . S
H320 C344 0.950 . S
H321 C345 0.951 . S
H322 C347 0.951 . S
H323 C349 0.950 . S
H324 C350 0.950 . S
H325 C352 0.950 . S
H326 C355 0.950 . S
H327 C356 0.950 . S
H328 C358 0.950 . S
H329 C359 0.950 . S
C330 H312 0.951 . S
C330 C331 1.366 . S
C330 C332 1.388 . S
C331 C330 1.366 . S
C331 C335 1.385 . S
C332 H313 0.951 . S
C332 C330 1.388 . S
C332 C333 1.366 . S
C333 C332 1.366 . S
C333 C334 1.414 . S
C333 C336 1.499 . S
C334 H314 0.950 . S
C334 C333 1.414 . S
C334 C335 1.374 . S
C335 H315 0.950 . S
C335 C331 1.385 . S
C335 C334 1.374 . S
C336 C333 1.499 . S
C336 C337 1.373 . S
C336 C338 1.389 . S
C337 H316 0.950 . S
C337 C336 1.373 . S
C337 C353 1.377 . S
C338 C336 1.389 . S
C338 C339 1.524 . S
C338 C352 1.377 . S
C339 C338 1.524 . S
C339 C340 1.397 . S
C339 C344 1.363 . S
C340 H317 0.950 . S
C340 C339 1.397 . S
C340 C341 1.334 . S
C341 H318 0.950 . S
C341 C340 1.334 . S
C341 C342 1.287 . S
C342 C341 1.287 . S
C342 C343 1.524 . S
C342 H361 0.913 . S
C343 H319 0.950 . S
C343 C342 1.524 . S
C343 C344 1.415 . S
C344 H320 0.950 . S
C344 C339 1.363 . S
C344 C343 1.415 . S
C345 H321 0.951 . S
C345 C346 1.366 . S
C345 C347 1.388 . S
C346 C345 1.366 . S
C346 C350 1.385 . S
C347 H322 0.951 . S
C347 C345 1.388 . S
C347 C348 1.366 . S
C348 C347 1.366 . S
C348 C349 1.414 . S
C348 C351 1.499 . S
C349 H323 0.950 . S
C349 C348 1.414 . S
C349 C350 1.374 . S
C350 H324 0.950 . S
C350 C346 1.385 . S
C350 C349 1.374 . S
C351 C348 1.499 . S
C351 C352 1.373 . S
C351 C353 1.389 . S
C352 H325 0.950 . S
C352 C338 1.377 . S
C352 C351 1.373 . S
C353 C337 1.377 . S
C353 C351 1.389 . S
C353 C354 1.524 . S
C354 C353 1.524 . S
C354 C355 1.397 . S
C354 C359 1.363 . S
C355 H326 0.950 . S
C355 C354 1.397 . S
C355 C356 1.334 . S
C356 H327 0.950 . S
C356 C355 1.334 . S
C356 C357 1.287 . S
C357 C356 1.287 . S
C357 C358 1.524 . S
C357 H360 0.999 . S
C358 H328 0.950 . S
C358 C357 1.524 . S
C358 C359 1.415 . S
C359 H329 0.950 . S
C359 C354 1.363 . S
C359 C358 1.415 . S
H360 C357 0.999 . S
H361 C342 0.913 . S
H362 C380 0.951 . S
H363 C382 0.951 . S
H364 C384 0.950 . S
H365 C385 0.950 . S
H366 C387 0.950 . S
H367 C390 0.950 . S
H368 C391 0.950 . S
H369 C393 0.950 . S
H370 C394 0.950 . S
H371 C395 0.951 . S
H372 C397 0.951 . S
H373 C399 0.950 1_565 S
H374 C400 0.950 . S
H375 C402 0.950 . S
H376 C405 0.950 . S
H377 C406 0.950 . S
H378 C408 0.950 . S
H379 C409 0.950 . S
C380 H362 0.951 . S
C380 C381 1.366 . S
C380 C382 1.388 . S
C381 C380 1.366 . S
C381 C385 1.385 . S
C382 H363 0.951 . S
C382 C380 1.388 . S
C382 C383 1.366 . S
C383 C382 1.366 . S
C383 C384 1.414 . S
C383 C386 1.499 . S
C384 H364 0.950 . S
C384 C383 1.414 . S
C384 C385 1.374 . S
C385 H365 0.950 . S
C385 C381 1.385 . S
C385 C384 1.374 . S
C386 C383 1.499 . S
C386 C387 1.373 . S
C386 C388 1.389 . S
C387 H366 0.950 . S
C387 C386 1.373 . S
C387 C403 1.377 . S
C388 C386 1.389 . S
C388 C389 1.524 . S
C388 C402 1.377 . S
C389 C388 1.524 . S
C389 C390 1.397 . S
C389 C394 1.363 . S
C390 H367 0.950 . S
C390 C389 1.397 . S
C390 C391 1.334 . S
C391 H368 0.950 . S
C391 C390 1.334 . S
C391 C392 1.287 . S
C392 C391 1.287 . S
C392 C393 1.524 . S
C392 H411 0.913 . S
C393 H369 0.950 . S
C393 C392 1.524 . S
C393 C394 1.415 . S
C394 H370 0.950 . S
C394 C389 1.363 . S
C394 C393 1.415 . S
C395 H371 0.951 . S
C395 C396 1.366 . S
C395 C397 1.388 . S
C396 C395 1.366 . S
C396 C400 1.385 . S
C397 H372 0.951 . S
C397 C395 1.388 . S
C397 C398 1.353 1_545 S
C398 C397 1.353 1_565 S
C398 C399 1.413 1_565 S
C398 C401 1.512 . S
C399 H373 0.950 1_545 S
C399 C398 1.413 1_545 S
C399 C400 1.374 . S
C400 H374 0.950 . S
C400 C396 1.385 . S
C400 C399 1.374 . S
C401 C398 1.512 . S
C401 C402 1.373 . S
C401 C403 1.389 . S
C402 H375 0.950 . S
C402 C388 1.377 . S
C402 C401 1.373 . S
C403 C387 1.377 . S
C403 C401 1.389 . S
C403 C404 1.524 . S
C404 C403 1.524 . S
C404 C405 1.397 . S
C404 C409 1.363 . S
C405 H376 0.950 . S
C405 C404 1.397 . S
C405 C406 1.334 . S
C406 H377 0.950 . S
C406 C405 1.334 . S
C406 C407 1.287 . S
C407 C406 1.287 . S
C407 C408 1.524 . S
C407 H410 0.999 . S
C408 H378 0.950 . S
C408 C407 1.524 . S
C408 C409 1.415 . S
C409 H379 0.950 . S
C409 C404 1.363 . S
C409 C408 1.415 . S
H410 C407 0.999 . S
H411 C392 0.913 . S
H412 C430 0.951 . S
H413 C432 0.951 . S
H414 C434 0.950 . S
H415 C435 0.950 . S
H416 C437 0.950 . S
H417 C440 0.950 . S
H418 C441 0.950 . S
H419 C443 0.950 . S
H420 C444 0.950 . S
H421 C445 0.951 . S
H422 C447 0.951 . S
H423 C449 0.950 . S
H424 C450 0.950 . S
H425 C452 0.950 . S
H426 C455 0.950 . S
H427 C456 0.950 . S
H428 C458 0.950 . S
H429 C459 0.950 . S
C430 H412 0.951 . S
C430 C431 1.366 . S
C430 C432 1.388 . S
C431 C430 1.366 . S
C431 C435 1.385 . S
C432 H413 0.951 . S
C432 C430 1.388 . S
C432 C433 1.366 . S
C433 C432 1.366 . S
C433 C434 1.414 . S
C433 C436 1.499 . S
C434 H414 0.950 . S
C434 C433 1.414 . S
C434 C435 1.374 . S
C435 H415 0.950 . S
C435 C431 1.385 . S
C435 C434 1.374 . S
C436 C433 1.499 . S
C436 C437 1.373 . S
C436 C438 1.389 . S
C437 H416 0.950 . S
C437 C436 1.373 . S
C437 C453 1.377 . S
C438 C436 1.389 . S
C438 C439 1.524 . S
C438 C452 1.377 . S
C439 C438 1.524 . S
C439 C440 1.397 . S
C439 C444 1.363 . S
C440 H417 0.950 . S
C440 C439 1.397 . S
C440 C441 1.334 . S
C441 H418 0.950 . S
C441 C440 1.334 . S
C441 C442 1.287 . S
C442 C441 1.287 . S
C442 C443 1.524 . S
C442 H461 0.913 . S
C443 H419 0.950 . S
C443 C442 1.524 . S
C443 C444 1.415 . S
C444 H420 0.950 . S
C444 C439 1.363 . S
C444 C443 1.415 . S
C445 H421 0.951 . S
C445 C446 1.366 . S
C445 C447 1.388 . S
C446 C445 1.366 . S
C446 C450 1.385 . S
C447 H422 0.951 . S
C447 C445 1.388 . S
C447 C448 1.366 . S
C448 C447 1.366 . S
C448 C449 1.414 . S
C448 C451 1.499 . S
C449 H423 0.950 . S
C449 C448 1.414 . S
C449 C450 1.374 . S
C450 H424 0.950 . S
C450 C446 1.385 . S
C450 C449 1.374 . S
C451 C448 1.499 . S
C451 C452 1.373 . S
C451 C453 1.389 . S
C452 H425 0.950 . S
C452 C438 1.377 . S
C452 C451 1.373 . S
C453 C437 1.377 . S
C453 C451 1.389 . S
C453 C454 1.524 . S
C454 C453 1.524 . S
C454 C455 1.397 . S
C454 C459 1.363 . S
C455 H426 0.950 . S
C455 C454 1.397 . S
C455 C456 1.334 . S
C456 H427 0.950 . S
C456 C455 1.334 . S
C456 C457 1.287 . S
C457 C456 1.287 . S
C457 C458 1.524 . S
C457 H460 0.999 . S
C458 H428 0.950 . S
C458 C457 1.524 . S
C458 C459 1.415 . S
C459 H429 0.950 . S
C459 C454 1.363 . S
C459 C458 1.415 . S
H460 C457 0.999 . S
H461 C442 0.913 . S
H462 C480 0.951 . S
H463 C482 0.951 . S
H464 C484 0.950 . S
H465 C485 0.950 . S
H466 C487 0.950 . S
H467 C490 0.950 . S
H468 C491 0.950 . S
H469 C493 0.950 . S
H470 C494 0.950 . S
H471 C495 0.951 . S
H472 C497 0.951 . S
H473 C499 0.975 . S
H474 C500 0.950 . S
H475 C502 0.950 . S
H476 C505 0.950 . S
H477 C506 0.946 1_565 S
H478 C508 0.950 . S
H479 C509 0.950 . S
C480 H462 0.951 . S
C480 C481 1.366 . S
C480 C482 1.388 . S
C481 C480 1.366 . S
C481 C485 1.385 . S
C482 H463 0.951 . S
C482 C480 1.388 . S
C482 C483 1.366 . S
C483 C482 1.366 . S
C483 C484 1.414 . S
C483 C486 1.499 . S
C484 H464 0.950 . S
C484 C483 1.414 . S
C484 C485 1.374 . S
C485 H465 0.950 . S
C485 C481 1.385 . S
C485 C484 1.374 . S
C486 C483 1.499 . S
C486 C487 1.373 . S
C486 C488 1.389 . S
C487 H466 0.950 . S
C487 C486 1.373 . S
C487 C503 1.377 . S
C488 C486 1.389 . S
C488 C489 1.524 . S
C488 C502 1.377 . S
C489 C488 1.524 . S
C489 C490 1.397 . S
C489 C494 1.363 . S
C490 H467 0.950 . S
C490 C489 1.397 . S
C490 C491 1.334 . S
C491 H468 0.950 . S
C491 C490 1.334 . S
C491 C492 1.287 . S
C492 C491 1.287 . S
C492 C493 1.524 . S
C492 H511 0.913 . S
C493 H469 0.950 . S
C493 C492 1.524 . S
C493 C494 1.415 . S
C494 H470 0.950 . S
C494 C489 1.363 . S
C494 C493 1.415 . S
C495 H471 0.951 . S
C495 C496 1.366 . S
C495 C497 1.388 . S
C496 C495 1.366 . S
C496 C500 1.385 . S
C497 H472 0.951 . S
C497 C495 1.388 . S
C497 C498 1.361 1_565 S
C498 C497 1.361 1_545 S
C498 C499 1.414 . S
C498 C501 1.503 . S
C499 H473 0.975 . S
C499 C498 1.414 . S
C499 C500 1.350 1_545 S
C500 H474 0.950 . S
C500 C496 1.385 . S
C500 C499 1.350 1_565 S
C501 C498 1.503 . S
C501 C502 1.373 . S
C501 C503 1.389 . S
C502 H475 0.950 . S
C502 C488 1.377 . S
C502 C501 1.373 . S
C503 C487 1.377 . S
C503 C501 1.389 . S
C503 C504 1.524 . S
C504 C503 1.524 . S
C504 C505 1.397 . S
C504 C509 1.363 . S
C505 H476 0.950 . S
C505 C504 1.397 . S
C505 C506 1.334 . S
C506 H477 0.946 1_545 S
C506 C505 1.334 . S
C506 C507 1.287 1_545 S
C507 C506 1.287 1_565 S
C507 C508 1.524 . S
C507 H510 0.999 . S
C508 H478 0.950 . S
C508 C507 1.524 . S
C508 C509 1.415 1_565 S
C509 H479 0.950 . S
C509 C504 1.363 . S
C509 C508 1.415 1_545 S
H510 C507 0.999 . S
H511 C492 0.913 . S
H512 C530 0.951 . S
H513 C532 0.951 . S
H514 C534 0.950 . S
H515 C535 0.950 . S
H516 C537 0.950 . S
H517 C540 0.950 . S
H518 C541 0.950 . S
H519 C543 0.950 . S
H520 C544 0.950 . S
H521 C545 0.951 . S
H522 C547 0.951 1_655 S
H523 C549 0.950 . S
H524 C550 0.950 . S
H525 C552 0.950 . S
H526 C555 0.950 . S
H527 C556 0.950 . S
H528 C558 0.950 . S
H529 C559 0.950 . S
C530 H512 0.951 . S
C530 C531 1.366 . S
C530 C532 1.388 . S
C531 C530 1.366 . S
C531 C535 1.385 . S
C532 H513 0.951 . S
C532 C530 1.388 . S
C532 C533 1.366 . S
C533 C532 1.366 . S
C533 C534 1.414 . S
C533 C536 1.499 . S
C534 H514 0.950 . S
C534 C533 1.414 . S
C534 C535 1.374 . S
C535 H515 0.950 . S
C535 C531 1.385 . S
C535 C534 1.374 . S
C536 C533 1.499 . S
C536 C537 1.373 . S
C536 C538 1.389 . S
C537 H516 0.950 . S
C537 C536 1.373 . S
C537 C553 1.377 . S
C538 C536 1.389 . S
C538 C539 1.524 . S
C538 C552 1.377 . S
C539 C538 1.524 . S
C539 C540 1.397 . S
C539 C544 1.363 . S
C540 H517 0.950 . S
C540 C539 1.397 . S
C540 C541 1.334 . S
C541 H518 0.950 . S
C541 C540 1.334 . S
C541 C542 1.287 . S
C542 C541 1.287 . S
C542 C543 1.524 . S
C542 H561 0.913 . S
C543 H519 0.950 . S
C543 C542 1.524 . S
C543 C544 1.415 . S
C544 H520 0.950 . S
C544 C539 1.363 . S
C544 C543 1.415 . S
C545 H521 0.951 . S
C545 C546 1.366 . S
C545 C547 1.388 . S
C546 C545 1.366 . S
C546 C550 1.385 . S
C547 H522 0.951 1_455 S
C547 C545 1.388 . S
C547 C548 1.366 . S
C548 C547 1.366 . S
C548 C549 1.414 . S
C548 C551 1.499 1_455 S
C549 H523 0.950 . S
C549 C548 1.414 . S
C549 C550 1.374 . S
C550 H524 0.950 . S
C550 C546 1.385 . S
C550 C549 1.374 . S
C551 C548 1.499 1_655 S
C551 C552 1.373 . S
C551 C553 1.389 . S
C552 H525 0.950 . S
C552 C538 1.377 . S
C552 C551 1.373 . S
C553 C537 1.377 . S
C553 C551 1.389 . S
C553 C554 1.524 . S
C554 C553 1.524 . S
C554 C555 1.397 1_655 S
C554 C559 1.363 . S
C555 H526 0.950 . S
C555 C554 1.397 1_455 S
C555 C556 1.334 . S
C556 H527 0.950 . S
C556 C555 1.334 . S
C556 C557 1.287 . S
C557 C556 1.287 . S
C557 C558 1.524 1_455 S
C557 H560 0.999 . S
C558 H528 0.950 . S
C558 C557 1.524 1_655 S
C558 C559 1.415 . S
C559 H529 0.950 . S
C559 C554 1.363 . S
C559 C558 1.415 . S
H560 C557 0.999 . S
H561 C542 0.913 . S
H562 C580 0.951 . S
H563 C582 0.951 . S
H564 C584 0.950 . S
H565 C585 0.950 . S
H566 C587 0.950 . S
H567 C590 0.950 . S
H568 C591 0.950 . S
H569 C593 0.950 . S
H570 C594 0.950 . S
H571 C595 0.951 . S
H572 C597 0.951 . S
H573 C599 0.950 . S
H574 C600 0.950 . S
H575 C602 0.950 . S
H576 C605 0.950 . S
H577 C606 0.950 . S
H578 C608 0.950 . S
H579 C609 0.950 . S
C580 H562 0.951 . S
C580 C581 1.366 . S
C580 C582 1.388 . S
C581 C580 1.366 . S
C581 C585 1.385 . S
C582 H563 0.951 . S
C582 C580 1.388 . S
C582 C583 1.366 . S
C583 C582 1.366 . S
C583 C584 1.414 . S
C583 C586 1.499 . S
C584 H564 0.950 . S
C584 C583 1.414 . S
C584 C585 1.374 . S
C585 H565 0.950 . S
C585 C581 1.385 . S
C585 C584 1.374 . S
C586 C583 1.499 . S
C586 C587 1.373 . S
C586 C588 1.389 . S
C587 H566 0.950 . S
C587 C586 1.373 . S
C587 C603 1.377 . S
C588 C586 1.389 . S
C588 C589 1.524 . S
C588 C602 1.377 . S
C589 C588 1.524 . S
C589 C590 1.397 . S
C589 C594 1.363 . S
C590 H567 0.950 . S
C590 C589 1.397 . S
C590 C591 1.334 . S
C591 H568 0.950 . S
C591 C590 1.334 . S
C591 C592 1.287 . S
C592 C591 1.287 . S
C592 C593 1.524 . S
C592 H611 0.913 . S
C593 H569 0.950 . S
C593 C592 1.524 . S
C593 C594 1.415 . S
C594 H570 0.950 . S
C594 C589 1.363 . S
C594 C593 1.415 . S
C595 H571 0.951 . S
C595 C596 1.366 . S
C595 C597 1.388 . S
C596 C595 1.366 . S
C596 C600 1.385 . S
C597 H572 0.951 . S
C597 C595 1.388 . S
C597 C598 1.366 . S
C598 C597 1.366 . S
C598 C599 1.414 . S
C598 C601 1.499 . S
C599 H573 0.950 . S
C599 C598 1.414 . S
C599 C600 1.374 . S
C600 H574 0.950 . S
C600 C596 1.385 . S
C600 C599 1.374 . S
C601 C598 1.499 . S
C601 C602 1.373 . S
C601 C603 1.389 . S
C602 H575 0.950 . S
C602 C588 1.377 . S
C602 C601 1.373 . S
C603 C587 1.377 . S
C603 C601 1.389 . S
C603 C604 1.524 . S
C604 C603 1.524 . S
C604 C605 1.397 . S
C604 C609 1.363 . S
C605 H576 0.950 . S
C605 C604 1.397 . S
C605 C606 1.334 . S
C606 H577 0.950 . S
C606 C605 1.334 . S
C606 C607 1.287 . S
C607 C606 1.287 . S
C607 C608 1.524 . S
C607 H610 0.999 . S
C608 H578 0.950 . S
C608 C607 1.524 . S
C608 C609 1.415 . S
C609 H579 0.950 . S
C609 C604 1.363 . S
C609 C608 1.415 . S
H610 C607 0.999 . S
H611 C592 0.913 . S
H612 C630 0.951 . S
H613 C632 0.951 . S
H614 C634 0.950 . S
H615 C635 0.950 . S
H616 C637 0.950 . S
H617 C640 0.950 . S
H618 C641 0.950 . S
H619 C643 0.950 . S
H620 C644 0.950 . S
H621 C645 0.951 . S
H622 C647 0.951 . S
H623 C649 0.950 . S
H624 C650 0.950 . S
H625 C652 0.950 . S
H626 C655 0.950 . S
H627 C656 0.950 . S
H628 C658 0.950 . S
H629 C659 0.950 . S
C630 H612 0.951 . S
C630 C631 1.366 . S
C630 C632 1.388 . S
C631 C630 1.366 . S
C631 C635 1.385 . S
C632 H613 0.951 . S
C632 C630 1.388 . S
C632 C633 1.366 . S
C633 C632 1.366 . S
C633 C634 1.414 . S
C633 C636 1.499 . S
C634 H614 0.950 . S
C634 C633 1.414 . S
C634 C635 1.374 . S
C635 H615 0.950 . S
C635 C631 1.385 . S
C635 C634 1.374 . S
C636 C633 1.499 . S
C636 C637 1.373 . S
C636 C638 1.389 . S
C637 H616 0.950 . S
C637 C636 1.373 . S
C637 C653 1.377 . S
C638 C636 1.389 . S
C638 C639 1.524 . S
C638 C652 1.377 . S
C639 C638 1.524 . S
C639 C640 1.397 . S
C639 C644 1.363 . S
C640 H617 0.950 . S
C640 C639 1.397 . S
C640 C641 1.334 . S
C641 H618 0.950 . S
C641 C640 1.334 . S
C641 C642 1.287 . S
C642 C641 1.287 . S
C642 C643 1.524 . S
C642 H661 0.913 . S
C643 H619 0.950 . S
C643 C642 1.524 . S
C643 C644 1.415 . S
C644 H620 0.950 . S
C644 C639 1.363 . S
C644 C643 1.415 . S
C645 H621 0.951 . S
C645 C646 1.366 . S
C645 C647 1.388 . S
C646 C645 1.366 . S
C646 C650 1.385 . S
C647 H622 0.951 . S
C647 C645 1.388 . S
C647 C648 1.365 1_655 S
C648 C647 1.365 1_455 S
C648 C649 1.414 . S
C648 C651 1.499 . S
C649 H623 0.950 . S
C649 C648 1.414 . S
C649 C650 1.374 1_455 S
C650 H624 0.950 . S
C650 C646 1.385 . S
C650 C649 1.374 1_655 S
C651 C648 1.499 . S
C651 C652 1.373 . S
C651 C653 1.389 . S
C652 H625 0.950 . S
C652 C638 1.377 . S
C652 C651 1.373 . S
C653 C637 1.377 . S
C653 C651 1.389 . S
C653 C654 1.524 . S
C654 C653 1.524 . S
C654 C655 1.397 . S
C654 C659 1.363 . S
C655 H626 0.950 . S
C655 C654 1.397 . S
C655 C656 1.334 1_455 S
C656 H627 0.950 . S
C656 C655 1.334 1_655 S
C656 C657 1.287 . S
C657 C656 1.287 . S
C657 C658 1.524 . S
C657 H660 0.999 . S
C658 H628 0.950 . S
C658 C657 1.524 . S
C658 C659 1.415 1_655 S
C659 H629 0.950 . S
C659 C654 1.363 . S
C659 C658 1.415 1_455 S
H660 C657 0.999 . S
H661 C642 0.913 . S
H662 C680 0.951 . S
H663 C682 0.951 . S
H664 C684 0.950 . S
H665 C685 0.950 . S
H666 C687 0.950 . S
H667 C690 0.950 . S
H668 C691 0.950 . S
H669 C693 0.950 . S
H670 C694 0.950 . S
H671 C695 0.951 . S
H672 C697 0.951 . S
H673 C699 0.950 . S
H674 C700 0.950 . S
H675 C702 0.950 . S
H676 C705 0.950 . S
H677 C706 0.950 . S
H678 C708 0.950 . S
H679 C709 0.950 . S
C680 H662 0.951 . S
C680 C681 1.366 . S
C680 C682 1.388 . S
C681 C680 1.366 . S
C681 C685 1.385 . S
C682 H663 0.951 . S
C682 C680 1.388 . S
C682 C683 1.366 . S
C683 C682 1.366 . S
C683 C684 1.414 . S
C683 C686 1.499 . S
C684 H664 0.950 . S
C684 C683 1.414 . S
C684 C685 1.374 . S
C685 H665 0.950 . S
C685 C681 1.385 . S
C685 C684 1.374 . S
C686 C683 1.499 . S
C686 C687 1.373 . S
C686 C688 1.389 . S
C687 H666 0.950 . S
C687 C686 1.373 . S
C687 C703 1.377 . S
C688 C686 1.389 . S
C688 C689 1.524 . S
C688 C702 1.377 . S
C689 C688 1.524 . S
C689 C690 1.397 . S
C689 C694 1.363 . S
C690 H667 0.950 . S
C690 C689 1.397 . S
C690 C691 1.334 . S
C691 H668 0.950 . S
C691 C690 1.334 . S
C691 C692 1.287 . S
C692 C691 1.287 . S
C692 C693 1.524 . S
C692 H711 0.913 . S
C693 H669 0.950 . S
C693 C692 1.524 . S
C693 C694 1.415 . S
C694 H670 0.950 . S
C694 C689 1.363 . S
C694 C693 1.415 . S
C695 H671 0.951 . S
C695 C696 1.366 . S
C695 C697 1.388 . S
C696 C695 1.366 . S
C696 C700 1.385 . S
C697 H672 0.951 . S
C697 C695 1.388 . S
C697 C698 1.366 . S
C698 C697 1.366 . S
C698 C699 1.414 . S
C698 C701 1.499 . S
C699 H673 0.950 . S
C699 C698 1.414 . S
C699 C700 1.374 . S
C700 H674 0.950 . S
C700 C696 1.385 . S
C700 C699 1.374 . S
C701 C698 1.499 . S
C701 C702 1.373 . S
C701 C703 1.389 . S
C702 H675 0.950 . S
C702 C688 1.377 . S
C702 C701 1.373 . S
C703 C687 1.377 . S
C703 C701 1.389 . S
C703 C704 1.524 . S
C704 C703 1.524 . S
C704 C705 1.397 . S
C704 C709 1.363 . S
C705 H676 0.950 . S
C705 C704 1.397 . S
C705 C706 1.334 . S
C706 H677 0.950 . S
C706 C705 1.334 . S
C706 C707 1.287 . S
C707 C706 1.287 . S
C707 C708 1.524 . S
C707 H710 0.999 . S
C708 H678 0.950 . S
C708 C707 1.524 . S
C708 C709 1.415 . S
C709 H679 0.950 . S
C709 C704 1.363 . S
C709 C708 1.415 . S
H710 C707 0.999 . S
H711 C692 0.913 . S
H712 C730 0.951 . S
H713 C732 0.951 . S
H714 C734 0.950 . S
H715 C735 0.950 . S
H716 C737 0.950 . S
H717 C740 0.950 . S
H718 C741 0.950 . S
H719 C743 0.950 . S
H720 C744 0.950 . S
H721 C745 0.951 . S
H722 C747 0.951 . S
H723 C749 0.950 . S
H724 C750 0.950 . S
H725 C752 0.950 . S
H726 C755 0.950 . S
H727 C756 0.950 . S
H728 C758 0.950 . S
H729 C759 0.950 . S
C730 H712 0.951 . S
C730 C731 1.366 . S
C730 C732 1.388 . S
C731 C730 1.366 . S
C731 C735 1.385 . S
C732 H713 0.951 . S
C732 C730 1.388 . S
C732 C733 1.366 . S
C733 C732 1.366 . S
C733 C734 1.414 . S
C733 C736 1.499 . S
C734 H714 0.950 . S
C734 C733 1.414 . S
C734 C735 1.374 . S
C735 H715 0.950 . S
C735 C731 1.385 . S
C735 C734 1.374 . S
C736 C733 1.499 . S
C736 C737 1.373 . S
C736 C738 1.389 . S
C737 H716 0.950 . S
C737 C736 1.373 . S
C737 C753 1.377 1_655 S
C738 C736 1.389 . S
C738 C739 1.524 . S
C738 C752 1.377 1_655 S
C739 C738 1.524 . S
C739 C740 1.397 . S
C739 C744 1.363 1_655 S
C740 H717 0.950 . S
C740 C739 1.397 . S
C740 C741 1.334 . S
C741 H718 0.950 . S
C741 C740 1.334 . S
C741 C742 1.287 . S
C742 C741 1.287 . S
C742 C743 1.524 1_655 S
C742 H761 0.913 . S
C743 H719 0.950 . S
C743 C742 1.524 1_455 S
C743 C744 1.415 . S
C744 H720 0.950 . S
C744 C739 1.363 1_455 S
C744 C743 1.415 . S
C745 H721 0.951 . S
C745 C746 1.366 . S
C745 C747 1.388 . S
C746 C745 1.366 . S
C746 C750 1.385 . S
C747 H722 0.951 . S
C747 C745 1.388 . S
C747 C748 1.366 . S
C748 C747 1.366 . S
C748 C749 1.414 . S
C748 C751 1.499 . S
C749 H723 0.950 . S
C749 C748 1.414 . S
C749 C750 1.374 . S
C750 H724 0.950 . S
C750 C746 1.385 . S
C750 C749 1.374 . S
C751 C748 1.499 . S
C751 C752 1.373 . S
C751 C753 1.389 . S
C752 H725 0.950 . S
C752 C738 1.377 1_455 S
C752 C751 1.373 . S
C753 C737 1.377 1_455 S
C753 C751 1.389 . S
C753 C754 1.524 . S
C754 C753 1.524 . S
C754 C755 1.397 . S
C754 C759 1.363 1_455 S
C755 H726 0.950 . S
C755 C754 1.397 . S
C755 C756 1.334 . S
C756 H727 0.950 . S
C756 C755 1.334 . S
C756 C757 1.287 . S
C757 C756 1.287 . S
C757 C758 1.524 1_455 S
C757 H760 0.999 . S
C758 H728 0.950 . S
C758 C757 1.524 1_655 S
C758 C759 1.415 . S
C759 H729 0.950 . S
C759 C754 1.363 1_655 S
C759 C758 1.415 . S
H760 C757 0.999 . S
H761 C742 0.913 . S
H762 C780 0.951 . S
H763 C782 0.951 . S
H764 C784 0.950 . S
H765 C785 0.950 . S
H766 C787 0.950 . S
H767 C790 0.950 . S
H768 C791 0.950 . S
H769 C793 0.950 . S
H770 C794 0.950 . S
H771 C795 0.951 . S
H772 C797 0.951 . S
H773 C799 0.950 . S
H774 C800 0.950 . S
H775 C802 0.950 . S
H776 C805 0.950 . S
H777 C806 0.950 . S
H778 C808 0.950 . S
H779 C809 0.950 . S
C780 H762 0.951 . S
C780 C781 1.366 . S
C780 C782 1.388 . S
C781 C780 1.366 . S
C781 C785 1.385 . S
C782 H763 0.951 . S
C782 C780 1.388 . S
C782 C783 1.366 . S
C783 C782 1.366 . S
C783 C784 1.414 . S
C783 C786 1.499 . S
C784 H764 0.950 . S
C784 C783 1.414 . S
C784 C785 1.374 . S
C785 H765 0.950 . S
C785 C781 1.385 . S
C785 C784 1.374 . S
C786 C783 1.499 . S
C786 C787 1.373 1_655 S
C786 C788 1.389 . S
C787 H766 0.950 . S
C787 C786 1.373 1_455 S
C787 C803 1.377 . S
C788 C786 1.389 . S
C788 C789 1.524 . S
C788 C802 1.377 . S
C789 C788 1.524 . S
C789 C790 1.397 . S
C789 C794 1.363 . S
C790 H767 0.950 . S
C790 C789 1.397 . S
C790 C791 1.334 . S
C791 H768 0.950 . S
C791 C790 1.334 . S
C791 C792 1.287 . S
C792 C791 1.287 . S
C792 C793 1.524 . S
C792 H811 0.913 . S
C793 H769 0.950 . S
C793 C792 1.524 . S
C793 C794 1.415 . S
C794 H770 0.950 . S
C794 C789 1.363 . S
C794 C793 1.415 . S
C795 H771 0.951 . S
C795 C796 1.366 . S
C795 C797 1.388 . S
C796 C795 1.366 . S
C796 C800 1.385 . S
C797 H772 0.951 . S
C797 C795 1.388 . S
C797 C798 1.366 . S
C798 C797 1.366 . S
C798 C799 1.414 . S
C798 C801 1.499 . S
C799 H773 0.950 . S
C799 C798 1.414 . S
C799 C800 1.374 . S
C800 H774 0.950 . S
C800 C796 1.385 . S
C800 C799 1.374 . S
C801 C798 1.499 . S
C801 C802 1.373 1_455 S
C801 C803 1.389 . S
C802 H775 0.950 . S
C802 C788 1.377 . S
C802 C801 1.373 1_655 S
C803 C787 1.377 . S
C803 C801 1.389 . S
C803 C804 1.524 . S
C804 C803 1.524 . S
C804 C805 1.397 . S
C804 C809 1.363 . S
C805 H776 0.950 . S
C805 C804 1.397 . S
C805 C806 1.334 . S
C806 H777 0.950 . S
C806 C805 1.334 . S
C806 C807 1.287 . S
C807 C806 1.287 . S
C807 C808 1.524 . S
C807 H810 0.999 . S
C808 H778 0.950 . S
C808 C807 1.524 . S
C808 C809 1.415 . S
C809 H779 0.950 . S
C809 C804 1.363 . S
C809 C808 1.415 . S
H810 C807 0.999 . S
H811 C792 0.913 . S
H812 C830 0.951 . S
H813 C832 0.951 . S
H814 C834 0.950 . S
H815 C835 0.950 . S
H816 C837 0.950 . S
H817 C840 0.950 1_545 S
H818 C841 0.950 . S
H819 C843 0.950 . S
H820 C844 0.950 . S
H821 C845 0.951 . S
H822 C847 0.951 . S
H823 C849 0.950 . S
H824 C850 0.950 . S
H825 C852 0.950 . S
H826 C855 0.950 1_565 S
H827 C856 0.950 . S
H828 C858 0.950 . S
H829 C859 0.950 . S
C830 H812 0.951 . S
C830 C831 1.366 . S
C830 C832 1.388 . S
C831 C830 1.366 . S
C831 C835 1.385 . S
C832 H813 0.951 . S
C832 C830 1.388 . S
C832 C833 1.366 . S
C833 C832 1.366 . S
C833 C834 1.414 . S
C833 C836 1.499 . S
C834 H814 0.950 . S
C834 C833 1.414 . S
C834 C835 1.374 . S
C835 H815 0.950 . S
C835 C831 1.385 . S
C835 C834 1.374 . S
C836 C833 1.499 . S
C836 C837 1.373 . S
C836 C838 1.389 1_545 S
C837 H816 0.950 . S
C837 C836 1.373 . S
C837 C853 1.377 . S
C838 C836 1.389 1_565 S
C838 C839 1.524 . S
C838 C852 1.377 . S
C839 C838 1.524 . S
C839 C840 1.397 . S
C839 C844 1.363 . S
C840 H817 0.950 1_565 S
C840 C839 1.397 . S
C840 C841 1.334 . S
C841 H818 0.950 . S
C841 C840 1.334 . S
C841 C842 1.287 . S
C842 C841 1.287 . S
C842 C843 1.524 . S
C842 H861 0.913 . S
C843 H819 0.950 . S
C843 C842 1.524 . S
C843 C844 1.415 . S
C844 H820 0.950 . S
C844 C839 1.363 . S
C844 C843 1.415 . S
C845 H821 0.951 . S
C845 C846 1.366 . S
C845 C847 1.388 . S
C846 C845 1.366 . S
C846 C850 1.385 . S
C847 H822 0.951 . S
C847 C845 1.388 . S
C847 C848 1.366 . S
C848 C847 1.366 . S
C848 C849 1.414 . S
C848 C851 1.499 . S
C849 H823 0.950 . S
C849 C848 1.414 . S
C849 C850 1.374 . S
C850 H824 0.950 . S
C850 C846 1.385 . S
C850 C849 1.374 . S
C851 C848 1.499 . S
C851 C852 1.373 . S
C851 C853 1.389 1_565 S
C852 H825 0.950 . S
C852 C838 1.377 . S
C852 C851 1.373 . S
C853 C837 1.377 . S
C853 C851 1.389 1_545 S
C853 C854 1.524 . S
C854 C853 1.524 . S
C854 C855 1.397 . S
C854 C859 1.363 . S
C855 H826 0.950 1_545 S
C855 C854 1.397 . S
C855 C856 1.334 . S
C856 H827 0.950 . S
C856 C855 1.334 . S
C856 C857 1.287 . S
C857 C856 1.287 . S
C857 C858 1.524 . S
C857 H860 0.999 . S
C858 H828 0.950 . S
C858 C857 1.524 . S
C858 C859 1.415 . S
C859 H829 0.950 . S
C859 C854 1.363 . S
C859 C858 1.415 . S
H860 C857 0.999 . S
H861 C842 0.913 . S
H862 C880 0.951 . S
H863 C882 0.951 . S
H864 C884 0.950 . S
H865 C885 0.950 . S
H866 C887 0.950 . S
H867 C890 0.950 . S
H868 C891 0.950 . S
H869 C893 0.950 . S
H870 C894 0.950 . S
H871 C895 0.951 . S
H872 C897 0.951 . S
H873 C899 0.950 . S
H874 C900 0.950 . S
H875 C902 0.950 . S
H876 C905 0.950 . S
H877 C906 0.950 . S
H878 C908 0.950 . S
H879 C909 0.950 . S
C880 H862 0.951 . S
C880 C881 1.366 . S
C880 C882 1.388 . S
C881 C880 1.366 . S
C881 C885 1.385 . S
C882 H863 0.951 . S
C882 C880 1.388 . S
C882 C883 1.366 . S
C883 C882 1.366 . S
C883 C884 1.414 . S
C883 C886 1.499 . S
C884 H864 0.950 . S
C884 C883 1.414 . S
C884 C885 1.374 . S
C885 H865 0.950 . S
C885 C881 1.385 . S
C885 C884 1.374 . S
C886 C883 1.499 . S
C886 C887 1.373 1_545 S
C886 C888 1.389 . S
C887 H866 0.950 . S
C887 C886 1.373 1_565 S
C887 C903 1.377 . S
C888 C886 1.389 . S
C888 C889 1.524 . S
C888 C902 1.377 . S
C889 C888 1.524 . S
C889 C890 1.397 . S
C889 C894 1.363 . S
C890 H867 0.950 . S
C890 C889 1.397 . S
C890 C891 1.334 . S
C891 H868 0.950 . S
C891 C890 1.334 . S
C891 C892 1.287 . S
C892 C891 1.287 . S
C892 C893 1.524 . S
C892 H911 0.913 . S
C893 H869 0.950 . S
C893 C892 1.524 . S
C893 C894 1.415 . S
C894 H870 0.950 . S
C894 C889 1.363 . S
C894 C893 1.415 . S
C895 H871 0.951 . S
C895 C896 1.366 . S
C895 C897 1.388 . S
C896 C895 1.366 . S
C896 C900 1.385 . S
C897 H872 0.951 . S
C897 C895 1.388 . S
C897 C898 1.366 . S
C898 C897 1.366 . S
C898 C899 1.414 . S
C898 C901 1.499 . S
C899 H873 0.950 . S
C899 C898 1.414 . S
C899 C900 1.374 . S
C900 H874 0.950 . S
C900 C896 1.385 . S
C900 C899 1.374 . S
C901 C898 1.499 . S
C901 C902 1.373 1_565 S
C901 C903 1.389 . S
C902 H875 0.950 . S
C902 C888 1.377 . S
C902 C901 1.373 1_545 S
C903 C887 1.377 . S
C903 C901 1.389 . S
C903 C904 1.524 . S
C904 C903 1.524 . S
C904 C905 1.397 . S
C904 C909 1.363 . S
C905 H876 0.950 . S
C905 C904 1.397 . S
C905 C906 1.334 . S
C906 H877 0.950 . S
C906 C905 1.334 . S
C906 C907 1.287 . S
C907 C906 1.287 . S
C907 C908 1.524 . S
C907 H910 0.999 . S
C908 H878 0.950 . S
C908 C907 1.524 . S
C908 C909 1.415 . S
C909 H879 0.950 . S
C909 C904 1.363 . S
C909 C908 1.415 . S
H910 C907 0.999 . S
H911 C892 0.913 . S
C131 C7 1.268 . S
C146 C77 1.268 . S
C181 C21 1.268 . S
C196 C91 1.268 . S
C231 C35 1.267 . S
C246 C105 1.267 . S
C281 C63 1.268 . S
C296 C49 1.268 . S
C331 C8 1.652 . S
C346 C59 1.631 . S
C381 C22 1.652 . S
C396 C73 1.631 . S
C431 C87 1.630 . S
C446 C36 1.651 . S
C481 C50 1.652 . S
C496 C101 1.631 . S
C531 C64 1.651 . S
C546 C3 1.630 . S
C581 C17 1.630 . S
C596 C78 1.651 . S
C631 C92 1.652 . S
C646 C31 1.631 . S
C681 C45 1.630 . S
C696 C106 1.651 . S
C731 C37 0.427 . S
C746 C9 0.428 . S
C781 C51 0.428 . S
C796 C23 0.429 . S
C831 C65 0.426 . S
C846 C93 0.426 . S
C881 C79 0.426 . S
C896 C107 0.426 . S
