# Generated by pormake.
# Topology sod, (4)-cn, num edge types: 1
# Building blocks:
#     Node 0, Type 0, BuildingBlock: UXUYUI_clean_sbu_0, # of connection points: 4
#     Node 1, Type 0, BuildingBlock: UXUYUI_clean_sbu_0, # of connection points: 4
#     Node 2, Type 0, BuildingBlock: UXUYUI_clean_sbu_0, # of connection points: 4
#     Node 3, Type 0, BuildingBlock: UXUYUI_clean_sbu_0, # of connection points: 4
#     Node 4, Type 0, BuildingBlock: UXUYUI_clean_sbu_0, # of connection points: 4
#     Node 5, Type 0, BuildingBlock: UXUYUI_clean_sbu_0, # of connection points: 4
#     Node 6, Type 0, BuildingBlock: UXUYUI_clean_sbu_0, # of connection points: 4
#     Node 7, Type 0, BuildingBlock: UXUYUI_clean_sbu_0, # of connection points: 4
#     Node 8, Type 0, BuildingBlock: UXUYUI_clean_sbu_0, # of connection points: 4
#     Node 9, Type 0, BuildingBlock: UXUYUI_clean_sbu_0, # of connection points: 4
#     Node 10, Type 0, BuildingBlock: UXUYUI_clean_sbu_0, # of connection points: 4
#     Node 11, Type 0, BuildingBlock: UXUYUI_clean_sbu_0, # of connection points: 4
#     Edge 12, Type (0, 0), BuildingBlock: UVAHIK_clean_linker_0, # of connection points: 2
#     Edge 13, Type (0, 0), BuildingBlock: UVAHIK_clean_linker_0, # of connection points: 2
#     Edge 14, Type (0, 0), BuildingBlock: UVAHIK_clean_linker_0, # of connection points: 2
#     Edge 15, Type (0, 0), BuildingBlock: UVAHIK_clean_linker_0, # of connection points: 2
#     Edge 16, Type (0, 0), BuildingBlock: UVAHIK_clean_linker_0, # of connection points: 2
#     Edge 17, Type (0, 0), BuildingBlock: UVAHIK_clean_linker_0, # of connection points: 2
#     Edge 18, Type (0, 0), BuildingBlock: UVAHIK_clean_linker_0, # of connection points: 2
#     Edge 19, Type (0, 0), BuildingBlock: UVAHIK_clean_linker_0, # of connection points: 2
#     Edge 20, Type (0, 0), BuildingBlock: UVAHIK_clean_linker_0, # of connection points: 2
#     Edge 21, Type (0, 0), BuildingBlock: UVAHIK_clean_linker_0, # of connection points: 2
#     Edge 22, Type (0, 0), BuildingBlock: UVAHIK_clean_linker_0, # of connection points: 2
#     Edge 23, Type (0, 0), BuildingBlock: UVAHIK_clean_linker_0, # of connection points: 2
#     Edge 24, Type (0, 0), BuildingBlock: UVAHIK_clean_linker_0, # of connection points: 2
#     Edge 25, Type (0, 0), BuildingBlock: UVAHIK_clean_linker_0, # of connection points: 2
#     Edge 26, Type (0, 0), BuildingBlock: UVAHIK_clean_linker_0, # of connection points: 2
#     Edge 27, Type (0, 0), BuildingBlock: UVAHIK_clean_linker_0, # of connection points: 2
#     Edge 28, Type (0, 0), BuildingBlock: UVAHIK_clean_linker_0, # of connection points: 2
#     Edge 29, Type (0, 0), BuildingBlock: UVAHIK_clean_linker_0, # of connection points: 2
#     Edge 30, Type (0, 0), BuildingBlock: UVAHIK_clean_linker_0, # of connection points: 2
#     Edge 31, Type (0, 0), BuildingBlock: UVAHIK_clean_linker_0, # of connection points: 2
#     Edge 32, Type (0, 0), BuildingBlock: UVAHIK_clean_linker_0, # of connection points: 2
#     Edge 33, Type (0, 0), BuildingBlock: UVAHIK_clean_linker_0, # of connection points: 2
#     Edge 34, Type (0, 0), BuildingBlock: UVAHIK_clean_linker_0, # of connection points: 2
#     Edge 35, Type (0, 0), BuildingBlock: UVAHIK_clean_linker_0, # of connection points: 2
# Relax obj value: 0.150
# Max RMSD: 0.167
# Mean RMSD: 0.167
data_MOF--net-sod--node1-UXUYUI_clean_sbu_0--edge1-UVAHIK_clean_linker_0
_symmetry_space_group_name_H-M    P1
_symmetry_Int_Tables_number       1
_symmetry_cell_setting            triclinic
loop_
_symmetry_equiv_pos_as_xyz
'x, y, z'
_cell_length_a     74.759102
_cell_length_b     74.666288
_cell_length_c     74.693129
_cell_angle_alpha  89.939849
_cell_angle_beta   90.024829
_cell_angle_gamma 89.982921
loop_
_atom_site_label
_atom_site_type_symbol
_atom_site_fract_x
_atom_site_fract_y
_atom_site_fract_z
_atom_type_partial_charge
Li0 Li 0.97838 0.23571 0.49462 0.0
Li1 Li 0.99445 0.25872 0.51004 0.0
Li2 Li 0.9954 0.25703 0.47785 0.0
Li3 Li 0.01058 0.23513 0.4956 0.0
C4 C 0.95984 0.26592 0.48261 0.0
N5 N 0.93063 0.27403 0.46141 0.0
C6 C 0.94953 0.28111 0.4862 0.0
C7 C 0.95525 0.25482 0.46826 0.0
C8 C 0.93482 0.28499 0.47532 0.0
C9 C 0.94045 0.25916 0.4577 0.0
C10 C 0.98338 0.22955 0.53071 0.0
C11 C 0.97661 0.21214 0.55707 0.0
N12 N 0.96231 0.22291 0.56038 0.0
C13 C 0.96864 0.24047 0.5344 0.0
C14 C 0.98742 0.21529 0.54214 0.0
C15 C 0.95815 0.23689 0.54946 0.0
C16 C 0.95916 0.2045 0.48759 0.0
N17 N 0.95762 0.22118 0.49464 0.0
C18 C 0.92652 0.21666 0.50032 0.0
C19 C 0.94175 0.22741 0.501 0.0
C20 C 0.92765 0.19944 0.49288 0.0
C21 C 0.94424 0.19335 0.4865 0.0
H22 H 0.97199 0.19992 0.48271 0.0
H23 H 0.94086 0.24081 0.50638 0.0
C24 C 0.98737 0.29145 0.52638 0.0
N25 N 0.99411 0.27485 0.52956 0.0
C26 C 0.98647 0.304 0.54015 0.0
C27 C -0.00031 0.2822 0.56015 0.0
C28 C 0.00023 0.27002 0.54601 0.0
C29 C 0.99269 0.29941 0.55729 0.0
H30 H 0.98274 0.2949 0.5131 0.0
H31 H 0.00545 0.25669 0.5482 0.0
C32 C 0.00533 0.22574 0.46028 0.0
N33 N 0.02614 0.21572 0.4314 0.0
C34 C 0.02057 0.23561 0.45579 0.0
C35 C 0.00065 0.2108 0.45004 0.0
C36 C 0.03092 0.23032 0.44115 0.0
C37 C 0.01135 0.20594 0.4355 0.0
C38 C 0.03028 0.26544 0.50467 0.0
C39 C 0.04156 0.27947 0.49958 0.0
C40 C 0.03398 0.25579 0.52029 0.0
C41 C 0.05634 0.28365 0.51024 0.0
C42 C 0.04888 0.26038 0.53059 0.0
N43 N 0.05966 0.2741 0.5254 0.0
C44 C 0.00473 0.28699 0.45751 0.0
C45 C 0.98911 0.26477 0.44106 0.0
C46 C 0.00619 0.29769 0.44227 0.0
N47 N -0.00366 0.27088 0.45661 0.0
C48 C 0.99004 0.27515 0.42555 0.0
C49 C -0.00127 0.29179 0.42607 0.0
H50 H 0.01028 0.29149 0.47009 0.0
H51 H 0.98271 0.2518 0.44066 0.0
C52 C 0.02836 0.20362 0.50503 0.0
N53 N 0.03072 0.2198 0.49705 0.0
C54 C 0.04272 0.19183 0.50683 0.0
C55 C 0.06162 0.21353 0.49197 0.0
C56 C 0.04691 0.22493 0.49053 0.0
C57 C 0.05962 0.19676 0.50025 0.0
H58 H 0.01528 0.19991 0.50998 0.0
H59 H 0.04844 0.23791 0.48431 0.0
O60 O 0.97425 0.262 0.49324 0.0
O61 O 0.99391 0.23272 0.51606 0.0
O62 O 0.99489 0.2306 0.47453 0.0
O63 O 0.01577 0.26126 0.49429 0.0
H64 H 0.95285 0.2898 0.4973 0.0
H65 H 0.96298 0.24296 0.46531 0.0
H66 H 0.92673 0.29671 0.47795 0.0
H67 H 0.93677 0.25068 0.44655 0.0
H68 H 0.97958 0.20114 0.56602 0.0
H69 H 0.96532 0.25163 0.52579 0.0
H70 H -0.00118 0.20674 0.53951 0.0
H71 H 0.94671 0.24523 0.55246 0.0
H72 H 0.91392 0.22187 0.50524 0.0
H73 H 0.94569 0.18007 0.48088 0.0
H74 H 0.9812 0.31722 0.53736 0.0
H75 H 0.00447 0.27811 0.57323 0.0
H76 H 0.02438 0.24726 0.46345 0.0
H77 H 0.98885 0.20305 0.45328 0.0
H78 H 0.04275 0.23784 0.43755 0.0
H79 H 0.00788 0.19441 0.42746 0.0
H80 H 0.03894 0.28704 0.48749 0.0
H81 H 0.02551 0.24483 0.52443 0.0
H82 H 0.06517 0.29448 0.50645 0.0
H83 H 0.05189 0.25302 0.54271 0.0
H84 H 0.01284 0.31054 0.44319 0.0
H85 H 0.98426 0.27012 0.41324 0.0
H86 H 0.04057 0.17892 0.51308 0.0
H87 H 0.07446 0.21789 0.48687 0.0
Li88 Li 0.73528 -0.00256 0.51495 0.0
Li89 Li 0.75754 0.98148 0.49706 0.0
Li90 Li 0.75544 0.01506 0.49716 0.0
Li91 Li 0.73329 -0.00279 0.48121 0.0
C92 C 0.76545 -0.00244 0.53491 0.0
N93 N 0.77239 0.99539 0.57119 0.0
C94 C 0.77319 0.98211 0.54212 0.0
C95 C 0.76147 0.012 0.54612 0.0
C96 C 0.77654 0.98125 0.5605 0.0
C97 C 0.765 0.01061 0.56443 0.0
C98 C 0.72646 0.9594 0.49701 0.0
C99 C 0.72137 0.93297 0.47916 0.0
N100 N 0.71647 0.92386 0.49415 0.0
C101 C 0.7211 0.94984 0.51219 0.0
C102 C 0.72637 0.95095 0.48032 0.0
C103 C 0.71621 0.93187 0.51049 0.0
C104 C 0.70816 0.00847 0.53845 0.0
N105 N 0.72183 -0.00334 0.53647 0.0
C106 C 0.71604 0.98407 0.5653 0.0
C107 C 0.72581 0.98448 0.54941 0.0
C108 C 0.70182 -0.00387 0.56777 0.0
C109 C 0.69792 0.00843 0.55405 0.0
H110 H 0.7051 0.01783 0.52783 0.0
H111 H 0.73658 0.97504 0.5474 0.0
C112 C 0.78795 0.96252 0.48571 0.0
N113 N 0.77302 0.96138 0.49601 0.0
C114 C 0.79921 0.94775 0.48381 0.0
C115 C 0.77991 0.93113 0.50378 0.0
C116 C 0.76904 0.94622 0.50527 0.0
C117 C 0.79513 0.93172 0.49279 0.0
H118 H 0.79107 0.9749 0.47886 0.0
H119 H 0.75746 0.94584 0.51387 0.0
C120 C 0.72613 0.03526 0.4974 0.0
N121 N 0.72114 0.07188 0.49553 0.0
C122 C 0.72021 0.04316 0.4815 0.0
C123 C 0.72926 0.04595 0.51243 0.0
C124 C 0.71782 0.06171 0.4808 0.0
C125 C 0.72674 0.06444 0.51119 0.0
C126 C 0.76401 0.99522 0.4593 0.0
C127 C 0.7708 0.00891 0.44849 0.0
C128 C 0.76219 0.97798 0.45228 0.0
C129 C 0.77526 0.00521 0.43071 0.0
C130 C 0.76682 0.97479 0.43445 0.0
N131 N 0.77317 0.98837 0.42411 0.0
C132 C 0.78058 0.0404 0.50925 0.0
C133 C 0.76637 0.04785 0.48186 0.0
C134 C 0.79078 0.05602 0.50854 0.0
N135 N 0.7687 0.03665 0.49602 0.0
C136 C 0.77633 0.06359 0.48056 0.0
C137 C 0.7888 0.06777 0.49398 0.0
H138 H 0.78237 0.03113 0.52021 0.0
H139 H 0.75687 0.04448 0.47149 0.0
C140 C 0.70293 0.98596 0.46211 0.0
N141 N 0.71795 -0.00385 0.46107 0.0
C142 C 0.69176 0.98416 0.44726 0.0
C143 C 0.71139 0.00392 0.43075 0.0
C144 C 0.72217 0.00532 0.44592 0.0
C145 C 0.69603 0.99309 0.43126 0.0
H146 H 0.69968 0.97915 0.47447 0.0
H147 H 0.73389 0.01375 0.44561 0.0
O148 O 0.762 -0.00141 0.51694 0.0
O149 O 0.73133 0.97703 0.49848 0.0
O150 O 0.72875 0.01714 0.49827 0.0
O151 O 0.75944 -0.00133 0.47672 0.0
H152 H 0.77654 0.97088 0.53363 0.0
H153 H 0.75561 0.0241 0.54076 0.0
H154 H 0.78245 0.96934 0.56628 0.0
H155 H 0.76186 0.02164 0.57328 0.0
H156 H 0.7213 0.92627 0.46632 0.0
H157 H 0.72083 0.95617 0.52518 0.0
H158 H 0.72985 0.95823 0.46833 0.0
H159 H 0.71219 0.92429 0.52217 0.0
H160 H 0.71965 0.97446 0.57555 0.0
H161 H 0.68684 0.01772 0.55516 0.0
H162 H 0.81104 0.94891 0.47554 0.0
H163 H 0.77629 0.91905 0.51097 0.0
H164 H 0.71759 0.03509 0.46978 0.0
H165 H 0.73365 0.04003 0.52489 0.0
H166 H 0.71335 0.06802 0.46855 0.0
H167 H 0.72923 0.07289 0.52269 0.0
H168 H 0.77256 0.02228 0.45372 0.0
H169 H 0.75752 0.96711 0.46056 0.0
H170 H 0.78041 0.01572 0.42217 0.0
H171 H 0.76543 0.96151 0.42886 0.0
H172 H 0.80048 0.05859 0.519 0.0
H173 H 0.77433 0.07236 0.46917 0.0
H174 H 0.67984 0.97601 0.44835 0.0
H175 H 0.71518 0.01103 0.41869 0.0
Li176 Li 0.012 0.75749 0.49784 0.0
Li177 Li 0.99351 0.73807 0.51643 0.0
Li178 Li 0.99481 0.73343 0.48312 0.0
Li179 Li 0.97854 0.75838 0.49661 0.0
C180 C 0.03089 0.72411 0.4994 0.0
N181 N 0.06463 0.70939 0.49568 0.0
C182 C 0.0408 0.71928 0.51453 0.0
C183 C 0.03802 0.72108 0.48237 0.0
C184 C 0.05787 0.71197 0.51238 0.0
C185 C 0.05512 0.71372 0.48077 0.0
C186 C 0.99519 0.7687 0.53454 0.0
C187 C 0.98087 0.76992 0.56345 0.0
N188 N -0.00367 0.77614 0.57075 0.0
C189 C 0.01089 0.77524 0.5423 0.0
C190 C 0.98 0.76616 0.54515 0.0
C191 C 0.01121 0.77887 0.56065 0.0
C192 C 0.03359 0.78591 0.48599 0.0
N193 N 0.03328 0.77129 0.49685 0.0
C194 C 0.06331 0.77686 0.50627 0.0
C195 C 0.04763 0.76676 0.50708 0.0
C196 C 0.06416 0.79175 0.49481 0.0
C197 C 0.04904 0.79627 0.48461 0.0
H198 H 0.02181 0.78955 0.47842 0.0
H199 H 0.04683 0.75547 0.51607 0.0
C200 C 0.97866 0.71462 0.5418 0.0
N201 N 0.99245 0.72605 0.53876 0.0
C202 C 0.97752 0.70533 0.55796 0.0
C203 C 0.00475 0.71987 0.56763 0.0
C204 C 0.00542 0.72878 0.55122 0.0
C205 C 0.99071 0.70786 0.57113 0.0
H206 H 0.96867 0.71252 0.53155 0.0
H207 H 0.0163 0.73787 0.54841 0.0
C208 C 0.00109 0.76324 0.45951 0.0
N209 N 0.01151 0.77139 0.42494 0.0
C210 C 0.98908 0.77144 0.44771 0.0
C211 C 0.01847 0.75942 0.45377 0.0
C212 C 0.99458 0.77538 0.43027 0.0
C213 C 0.02347 0.76359 0.43624 0.0
C214 C 0.95586 0.73105 0.49697 0.0
C215 C 0.94907 0.7249 0.48066 0.0
C216 C 0.94408 0.73608 0.5106 0.0
C217 C 0.93056 0.72414 0.47816 0.0
C218 C 0.92567 0.73515 0.50757 0.0
N219 N 0.91934 0.72926 0.49155 0.0
C220 C -0.001 0.69888 0.46966 0.0
C221 C 0.99072 0.72015 0.44759 0.0
C222 C -0.00072 0.68526 0.4569 0.0
N223 N 0.99489 0.71593 0.46479 0.0
C224 C 0.99104 0.70701 0.43436 0.0
C225 C 0.99534 0.68925 0.43892 0.0
H226 H 0.00201 0.6959 0.48351 0.0
H227 H 0.98702 0.73366 0.44409 0.0
C228 C 0.95464 0.78571 0.50643 0.0
N229 N 0.95827 0.77331 0.49365 0.0
C230 C 0.93949 0.79649 0.505 0.0
C231 C 0.93225 0.78176 0.4771 0.0
C232 C 0.94757 0.77125 0.47908 0.0
C233 C 0.92802 0.79453 0.49023 0.0
H234 H 0.96352 0.78726 0.51772 0.0
H235 H 0.95084 0.76133 0.46908 0.0
O236 O 0.01409 0.73117 0.5013 0.0
O237 O 0.99468 0.76491 0.51663 0.0
O238 O -0.00415 0.75921 0.4766 0.0
O239 O 0.97394 0.73211 0.49957 0.0
H240 H 0.03543 0.72126 0.52781 0.0
H241 H 0.03038 0.72414 0.47048 0.0
H242 H 0.06573 0.70832 0.52399 0.0
H243 H 0.0608 0.71137 0.46766 0.0
H244 H 0.96925 0.76788 0.57184 0.0
H245 H 0.02272 0.77743 0.53428 0.0
H246 H 0.96773 0.76116 0.53936 0.0
H247 H 0.0233 0.78386 0.56685 0.0
H248 H 0.07467 0.77301 0.51441 0.0
H249 H 0.04905 0.80789 0.47592 0.0
H250 H 0.96665 0.69594 0.55992 0.0
H251 H 0.01511 0.72238 0.57744 0.0
H252 H 0.97564 0.77468 0.45195 0.0
H253 H 0.02809 0.75357 0.46282 0.0
H254 H 0.98539 0.78164 0.42098 0.0
H255 H 0.03688 0.7607 0.43165 0.0
H256 H 0.95797 0.72091 0.46998 0.0
H257 H 0.94911 0.74076 0.52333 0.0
H258 H 0.92511 0.71951 0.46557 0.0
H259 H 0.9164 0.73912 0.51795 0.0
H260 H 0.00231 0.67173 0.46114 0.0
H261 H 0.98808 0.71081 0.42068 0.0
H262 H 0.93693 0.80643 0.51523 0.0
H263 H 0.92371 0.77975 0.46557 0.0
Li264 Li 0.23252 0.01127 0.49577 0.0
Li265 Li 0.2572 0.99563 0.51029 0.0
Li266 Li 0.2542 -0.00281 0.47678 0.0
Li267 Li 0.23455 0.97782 0.49421 0.0
C268 C 0.25893 0.03495 0.49634 0.0
N269 N 0.25901 0.07167 0.501 0.0
C270 C 0.26407 0.04233 0.51275 0.0
C271 C 0.25408 0.04627 0.48223 0.0
C272 C 0.26397 0.06092 0.51485 0.0
C273 C 0.25412 0.06479 0.48487 0.0
C274 C 0.22753 0.98809 0.53267 0.0
C275 C 0.22745 0.96526 0.55556 0.0
N276 N 0.21997 0.97708 0.5672 0.0
C277 C 0.21961 -7e-05 0.5448 0.0
C278 C 0.23129 0.97056 0.53804 0.0
C279 C 0.21598 0.99414 0.56222 0.0
C280 C 0.20506 0.0347 0.48485 0.0
N281 N 0.21688 0.03108 0.49819 0.0
C282 C 0.20688 0.05649 0.51482 0.0
C283 C 0.21792 0.04153 0.51305 0.0
C284 C 0.19468 0.06068 0.50115 0.0
C285 C 0.19381 0.04955 0.48603 0.0
H286 H 0.20434 0.02604 0.4733 0.0
H287 H 0.22746 0.03833 0.52344 0.0
C288 C 0.29051 0.99004 0.52636 0.0
N289 N 0.27367 0.99609 0.52957 0.0
C290 C 0.30342 0.99057 0.53983 0.0
C291 C 0.2815 0.00382 0.55959 0.0
C292 C 0.269 0.00299 0.54574 0.0
C293 C 0.299 -0.0024 0.5567 0.0
H294 H 0.29392 0.98489 0.51327 0.0
H295 H 0.25574 0.0083 0.54776 0.0
C296 C 0.22446 0.9947 0.45718 0.0
N297 N 0.21851 0.99357 0.42067 0.0
C298 C 0.21874 0.97884 0.44908 0.0
C299 C 0.22691 0.01005 0.44673 0.0
C300 C 0.21586 0.97852 0.4306 0.0
C301 C 0.22391 0.00919 0.42829 0.0
C302 C 0.26814 0.95976 0.49385 0.0
C303 C 0.27392 0.95039 0.47872 0.0
C304 C 0.27024 0.95207 0.51079 0.0
C305 C 0.2812 0.93328 0.48075 0.0
C306 C 0.27761 0.93494 0.51227 0.0
N307 N 0.28286 0.92595 0.49735 0.0
C308 C 0.27849 0.01302 0.45279 0.0
C309 C 0.26548 0.98601 0.44239 0.0
C310 C 0.28863 0.0145 0.43719 0.0
N311 N 0.26723 -0.00108 0.45508 0.0
C312 C 0.27533 0.98697 0.42658 0.0
C313 C 0.28721 0.0013 0.42388 0.0
H314 H 0.27981 0.02296 0.46321 0.0
H315 H 0.25649 0.97489 0.4446 0.0
C316 C 0.20624 0.95524 0.50416 0.0
N317 N 0.22133 0.95612 0.49407 0.0
C318 C 0.19589 0.93971 0.50426 0.0
C319 C 0.21648 0.92647 0.4831 0.0
C320 C 0.22652 0.94221 0.48355 0.0
C321 C 0.20097 0.92509 0.49359 0.0
H322 H 0.20213 0.96668 0.512 0.0
H323 H 0.2382 0.94348 0.47516 0.0
O324 O 0.25867 0.01676 0.49412 0.0
O325 O 0.23119 0.99359 0.51556 0.0
O326 O 0.22751 0.99521 0.47525 0.0
O327 O 0.26105 0.9766 0.49207 0.0
H328 H 0.26797 0.03382 0.52377 0.0
H329 H 0.25023 0.04081 0.4694 0.0
H330 H 0.26781 0.0668 0.52751 0.0
H331 H 0.25026 0.07368 0.4741 0.0
H332 H 0.23033 0.95173 0.55987 0.0
H333 H 0.21634 0.01347 0.54085 0.0
H334 H 0.23682 0.96103 0.5287 0.0
H335 H 0.20997 0.00321 0.57177 0.0
H336 H 0.20805 0.06481 0.52663 0.0
H337 H 0.18437 0.05214 0.47533 0.0
H338 H 0.3167 0.9855 0.53706 0.0
H339 H 0.27762 0.00968 0.57226 0.0
H340 H 0.21657 0.96689 0.45695 0.0
H341 H 0.23121 0.02246 0.45277 0.0
H342 H 0.21151 0.9663 0.42415 0.0
H343 H 0.22589 0.02094 0.42004 0.0
H344 H 0.27268 0.95619 0.46553 0.0
H345 H 0.26649 0.95931 0.52271 0.0
H346 H 0.28557 0.92583 0.46913 0.0
H347 H 0.27925 0.92883 0.52531 0.0
H348 H 0.29786 0.0256 0.43581 0.0
H349 H 0.27371 0.97659 0.41659 0.0
H350 H 0.1838 0.93931 0.51224 0.0
H351 H 0.22079 0.91551 0.47465 0.0
Li352 Li 0.49698 0.01377 0.23662 0.0
Li353 Li 0.47855 -0.0017 0.25867 0.0
Li354 Li 0.51205 0.99549 0.25835 0.0
Li355 Li 0.49404 0.98026 0.23581 0.0
C356 C 0.49767 0.03508 0.26531 0.0
N357 N 0.49879 0.07186 0.2692 0.0
C358 C 0.48263 0.04435 0.27142 0.0
C359 C 0.51336 0.04448 0.26143 0.0
C360 C 0.48344 0.06296 0.27324 0.0
C361 C 0.51364 0.06308 0.2634 0.0
C362 C 0.45821 -0.00294 0.22643 0.0
C363 C 0.43233 0.97864 0.22073 0.0
N364 N 0.42344 0.99323 0.2144 0.0
C365 C 0.44891 0.01181 0.21961 0.0
C366 C 0.44993 0.98029 0.22678 0.0
C367 C 0.43132 0.00963 0.2137 0.0
C368 C 0.51143 0.03603 0.20987 0.0
N369 N 0.49824 0.03464 0.22229 0.0
C370 C 0.48628 0.06303 0.21372 0.0
C371 C 0.48574 0.04769 0.22435 0.0
C372 C 0.49969 0.06483 0.20067 0.0
C373 C 0.51242 0.05109 0.19886 0.0
H374 H 0.52102 0.02531 0.20833 0.0
H375 H 0.47528 0.04613 0.23421 0.0
C376 C 0.45707 0.9907 0.28865 0.0
N377 N 0.45776 4e-05 0.27305 0.0
C378 C 0.44177 0.99133 0.2993 0.0
C379 C 0.42844 0.01175 0.27797 0.0
C380 C 0.44399 0.01068 0.26772 0.0
C381 C 0.42715 0.00187 0.29392 0.0
H382 H 0.46841 0.98272 0.2928 0.0
H383 H 0.44512 0.01846 0.25559 0.0
C384 C 0.53345 0.99244 0.22984 0.0
N385 N 0.56972 0.98628 0.22617 0.0
C386 C 0.53965 0.97558 0.22459 0.0
C387 C 0.54569 0.00624 0.23297 0.0
C388 C 0.55803 0.97272 0.22287 0.0
C389 C 0.56398 0.00283 0.23112 0.0
C390 C 0.48894 0.95979 0.26759 0.0
C391 C 0.5017 0.94827 0.275 0.0
C392 C 0.47119 0.95409 0.26609 0.0
C393 C 0.49658 0.9311 0.2804 0.0
C394 C 0.46658 0.93684 0.27166 0.0
N395 N 0.47927 0.92578 0.27862 0.0
C396 C 0.53671 0.00653 0.28451 0.0
C397 C 0.54346 0.97859 0.27107 0.0
C398 C 0.55199 0.00545 0.29515 0.0
N399 N 0.53281 0.99326 0.27272 0.0
C400 C 0.55891 0.97696 0.28142 0.0
C401 C 0.56334 0.99052 0.29366 0.0
H402 H 0.52787 0.01791 0.28576 0.0
H403 H 0.53996 0.96817 0.26168 0.0
C404 C 0.48535 0.96296 0.20394 0.0
N405 N 0.49235 0.96014 0.22049 0.0
C406 C 0.48407 0.94889 0.19176 0.0
C407 C 0.49748 0.9293 0.2138 0.0
C408 C 0.49849 0.94377 0.22555 0.0
C409 C 0.49021 0.93178 0.19663 0.0
H410 H 0.48092 0.97622 0.20015 0.0
H411 H 0.50451 0.94198 0.23856 0.0
O412 O 0.49706 0.01687 0.26327 0.0
O413 O 0.47548 -0.001 0.23226 0.0
O414 O 0.5155 0.99545 0.23177 0.0
O415 O 0.49378 0.97664 0.26221 0.0
H416 H 0.47043 0.03729 0.27465 0.0
H417 H 0.52517 0.03751 0.25684 0.0
H418 H 0.47187 0.07032 0.27786 0.0
H419 H 0.52566 0.07054 0.26032 0.0
H420 H 0.42576 0.96573 0.22097 0.0
H421 H 0.45516 0.02485 0.21898 0.0
H422 H 0.45707 0.9686 0.2314 0.0
H423 H 0.42393 0.02097 0.20854 0.0
H424 H 0.47631 0.07335 0.21572 0.0
H425 H 0.52278 0.05174 0.18875 0.0
H426 H 0.44147 0.98381 0.3117 0.0
H427 H 0.41749 0.02005 0.27335 0.0
H428 H 0.53038 0.96479 0.222 0.0
H429 H 0.54114 0.01941 0.23685 0.0
H430 H 0.56301 0.9597 0.21892 0.0
H431 H 0.5736 0.01335 0.23362 0.0
H432 H 0.51544 0.95249 0.27651 0.0
H433 H 0.46101 0.96298 0.26096 0.0
H434 H 0.50635 0.92202 0.28604 0.0
H435 H 0.4529 0.93228 0.27054 0.0
H436 H 0.5547 0.01603 0.30467 0.0
H437 H 0.56734 0.96529 0.27976 0.0
H438 H 0.47871 0.95148 0.17853 0.0
H439 H 0.50234 0.91632 0.21811 0.0
Li440 Li 0.97839 0.4946 0.23429 0.0
Li441 Li -0.00292 0.47623 0.25379 0.0
Li442 Li -0.00421 0.50967 0.25802 0.0
Li443 Li 0.01171 0.49588 0.23308 0.0
C444 C 0.95993 0.49267 0.26811 0.0
N445 N 0.92649 0.49489 0.28373 0.0
C446 C 0.95048 0.4771 0.27239 0.0
C447 C 0.95251 0.50937 0.27215 0.0
C448 C 0.93355 0.47849 0.28016 0.0
C449 C 0.93556 0.51022 0.27995 0.0
C450 C 0.99509 0.45775 0.22326 0.0
C451 C 0.00934 0.42878 0.22218 0.0
N452 N 0.99391 0.42152 0.21583 0.0
C453 C 0.97942 0.45004 0.21659 0.0
C454 C 0.01023 0.44708 0.22594 0.0
C455 C 0.97907 0.43169 0.21296 0.0
C456 C 0.95639 0.50629 0.20611 0.0
N457 N 0.95694 0.49541 0.2207 0.0
C458 C 0.92693 0.48577 0.21539 0.0
C459 C 0.94272 0.48506 0.22534 0.0
C460 C 0.92584 0.49727 0.20055 0.0
C461 C 0.94083 0.50759 0.19591 0.0
H462 H 0.96807 0.51394 0.20235 0.0
H463 H 0.94371 0.47604 0.23658 0.0
C464 C 0.0116 0.45258 0.2789 0.0
N465 N -0.00156 0.45426 0.26648 0.0
C466 C 0.01293 0.43704 0.28917 0.0
C467 C 0.98724 0.42514 0.27352 0.0
C468 C 0.98631 0.441 0.26367 0.0
C469 C 0.00061 0.42305 0.2866 0.0
H470 H 0.02087 0.46346 0.28108 0.0
H471 H 0.97582 0.44277 0.25387 0.0
C472 C 0.98829 0.5328 0.2284 0.0
N473 N 0.97604 0.56688 0.2207 0.0
C474 C -0.00069 0.54499 0.21945 0.0
C475 C 0.97097 0.5379 0.23325 0.0
C476 C 0.9929 0.56218 0.21573 0.0
C477 C 0.96503 0.55519 0.22928 0.0
C478 C 0.03475 0.49574 0.25999 0.0
C479 C 0.04174 0.51227 0.26528 0.0
C480 C 0.04635 0.4818 0.25542 0.0
C481 C 0.06027 0.51466 0.26565 0.0
C482 C 0.0648 0.48473 0.25592 0.0
N483 N 0.07132 0.50096 0.26097 0.0
C484 C 0.99285 0.52299 0.29261 0.0
C485 C -0.00042 0.54538 0.27109 0.0
C486 C 0.99297 0.53568 0.30631 0.0
N487 N -0.004 0.52806 0.27542 0.0
C488 C -0.00041 0.55854 0.28432 0.0
C489 C -0.00374 0.55371 0.30216 0.0
H490 H 0.99023 0.50907 0.29564 0.0
H491 H 0.00264 0.549 0.25746 0.0
C492 C 0.03623 0.48576 0.20628 0.0
N493 N 0.03185 0.4989 0.21805 0.0
C494 C 0.05135 0.48749 0.19552 0.0
C495 C 0.05704 0.51636 0.20903 0.0
C496 C 0.04177 0.51407 0.21951 0.0
C497 C 0.06202 0.50292 0.19687 0.0
H498 H 0.02795 0.47396 0.20521 0.0
H499 H 0.03791 0.52432 0.22896 0.0
O500 O 0.97663 0.49151 0.26065 0.0
O501 O -0.00436 0.47569 0.22696 0.0
O502 O 0.99444 0.51596 0.23221 0.0
O503 O 0.01664 0.49324 0.25927 0.0
H504 H 0.95608 0.46405 0.26959 0.0
H505 H 0.95981 0.52158 0.26953 0.0
H506 H 0.92603 0.46654 0.28338 0.0
H507 H 0.92965 0.52307 0.28308 0.0
H508 H 0.02091 0.42035 0.22432 0.0
H509 H 0.96764 0.45811 0.21427 0.0
H510 H 0.02247 0.45284 0.23105 0.0
H511 H 0.96701 0.42552 0.20787 0.0
H512 H 0.91568 0.47752 0.21931 0.0
H513 H 0.94062 0.51631 0.18431 0.0
H514 H 0.02321 0.43624 0.29936 0.0
H515 H 0.97755 0.41467 0.27095 0.0
H516 H 0.01269 0.54124 0.21544 0.0
H517 H 0.96211 0.52852 0.23974 0.0
H518 H 0.00131 0.57177 0.20888 0.0
H519 H 0.95165 0.55929 0.23296 0.0
H520 H 0.03296 0.5232 0.26889 0.0
H521 H 0.04116 0.4689 0.25142 0.0
H522 H 0.06587 0.52741 0.2696 0.0
H523 H 0.07393 0.4741 0.2523 0.0
H524 H 0.99031 0.5315 0.31994 0.0
H525 H 0.00247 0.57229 0.28069 0.0
H526 H 0.0545 0.47697 0.18606 0.0
H527 H 0.06495 0.52841 0.21058 0.0
Li528 Li 0.48092 0.99569 0.73494 0.0
Li529 Li 0.49556 0.9765 0.7558 0.0
Li530 Li 0.49665 0.01031 0.75929 0.0
Li531 Li 0.51301 0.99383 0.73512 0.0
C532 C 0.45799 0.99326 0.76359 0.0
N533 N 0.42142 0.99233 0.76878 0.0
C534 C 0.44793 0.97896 0.75697 0.0
C535 C 0.44948 0.00708 0.77288 0.0
C536 C 0.42945 0.97874 0.75971 0.0
C537 C 0.43097 0.00636 0.77537 0.0
C538 C 0.49405 0.9567 0.72672 0.0
C539 C 0.50634 0.92682 0.72737 0.0
N540 N 0.49029 0.92018 0.72197 0.0
C541 C 0.47768 0.94957 0.72115 0.0
C542 C 0.50852 0.94524 0.72981 0.0
C543 C 0.47605 0.93108 0.71882 0.0
C544 C 0.46369 0.99151 0.70228 0.0
N545 N 0.46123 -0.00144 0.71886 0.0
C546 C 0.43243 0.00966 0.71045 0.0
C547 C 0.44613 0.00785 0.72302 0.0
C548 C 0.4345 0.00219 0.69334 0.0
C549 C 0.45042 0.99312 0.68927 0.0
H550 H 0.47604 0.98466 0.69914 0.0
H551 H 0.4448 0.01411 0.73596 0.0
C552 C 0.50807 0.95313 0.78216 0.0
N553 N 0.49505 0.95503 0.76961 0.0
C554 C 0.50884 0.93777 0.79274 0.0
C555 C 0.48267 0.92657 0.77743 0.0
C556 C 0.4823 0.94225 0.76726 0.0
C557 C 0.49609 0.92415 0.79039 0.0
H558 H 0.51782 0.96362 0.78407 0.0
H559 H 0.47192 0.9441 0.75743 0.0
C560 C 0.49003 0.02718 0.72214 0.0
N561 N 0.4718 0.04893 0.69842 0.0
C562 C 0.49366 0.0262 0.70382 0.0
C563 C 0.47722 0.03927 0.72843 0.0
C564 C 0.48427 0.0373 0.69203 0.0
C565 C 0.46813 0.05014 0.71621 0.0
C566 C 0.53435 0.99326 0.7635 0.0
C567 C 0.54227 0.00931 0.76894 0.0
C568 C 0.54511 0.97842 0.75973 0.0
C569 C 0.56089 0.01032 0.77029 0.0
C570 C 0.56367 0.97998 0.7612 0.0
N571 N 0.57111 0.99576 0.76639 0.0
C572 C 0.49342 0.02616 0.79299 0.0
C573 C 0.50284 0.04589 0.76992 0.0
C574 C 0.49435 0.03993 0.80555 0.0
N575 N 0.4976 0.02942 0.7756 0.0
C576 C 0.50389 0.06007 0.78202 0.0
C577 C 0.49963 0.05715 0.8001 0.0
H578 H 0.48938 0.01285 0.79705 0.0
H579 H 0.50634 0.04795 0.75602 0.0
C580 C 0.53757 0.98069 0.70981 0.0
N581 N 0.5341 0.99446 0.72114 0.0
C582 C 0.55332 0.98049 0.69984 0.0
C583 C 0.56145 0.00888 0.71309 0.0
C584 C 0.54546 0.00857 0.72273 0.0
C585 C 0.56559 0.99464 0.70152 0.0
H586 H 0.52808 0.96989 0.70843 0.0
H587 H 0.54218 0.01949 0.73164 0.0
O588 O 0.47609 0.99374 0.7611 0.0
O589 O 0.49593 0.97479 0.72907 0.0
O590 O 0.49871 0.01609 0.73383 0.0
O591 O 0.51617 0.9921 0.7618 0.0
H592 H 0.45426 0.96833 0.74949 0.0
H593 H 0.45707 0.01828 0.77805 0.0
H594 H 0.42147 0.96781 0.75455 0.0
H595 H 0.42419 0.01697 0.78252 0.0
H596 H 0.51741 0.91781 0.72981 0.0
H597 H 0.46625 0.95814 0.71886 0.0
H598 H 0.52126 0.95049 0.73418 0.0
H599 H 0.46344 0.92538 0.71459 0.0
H600 H 0.42048 0.01708 0.71397 0.0
H601 H 0.45253 0.98713 0.67624 0.0
H602 H 0.51917 0.93674 0.80286 0.0
H603 H 0.47262 0.9164 0.77505 0.0
H604 H 0.5035 0.01684 0.69877 0.0
H605 H 0.47411 0.04002 0.74256 0.0
H606 H 0.48685 0.03663 0.6778 0.0
H607 H 0.45809 0.05947 0.72086 0.0
H608 H 0.53416 0.02092 0.77194 0.0
H609 H 0.5392 0.96588 0.7556 0.0
H610 H 0.56721 0.02269 0.77438 0.0
H611 H 0.57217 0.96864 0.75821 0.0
H612 H 0.49078 0.03718 0.81933 0.0
H613 H 0.50824 0.07309 0.77734 0.0
H614 H 0.55572 0.96948 0.69073 0.0
H615 H 0.57053 0.02004 0.71484 0.0
Li616 Li -0.00278 0.51812 0.73601 0.0
Li617 Li 0.98148 0.4991 0.7574 0.0
Li618 Li 0.01503 0.49932 0.75515 0.0
Li619 Li -0.00292 0.48459 0.73222 0.0
C620 C -0.00207 0.53658 0.76688 0.0
N621 N -0.00356 0.57266 0.77498 0.0
C622 C 0.9826 0.54383 0.77475 0.0
C623 C 0.01261 0.54763 0.76338 0.0
C624 C 0.98208 0.56211 0.77869 0.0
C625 C 0.01157 0.56585 0.76749 0.0
C626 C 0.95938 0.49952 0.7263 0.0
C627 C 0.93416 0.48031 0.72021 0.0
N628 N 0.92418 0.49492 0.71589 0.0
C629 C 0.94894 0.51432 0.72154 0.0
C630 C 0.95199 0.48236 0.72541 0.0
C631 C 0.93115 0.51173 0.71642 0.0
C632 C 0.00804 0.54369 0.71057 0.0
N633 N -0.00399 0.54032 0.72376 0.0
C634 C 0.98201 0.56869 0.7191 0.0
C635 C 0.98308 0.55235 0.72809 0.0
C636 C 0.99421 0.57256 0.70533 0.0
C637 C 0.00738 0.55979 0.70112 0.0
H638 H 0.01801 0.53376 0.70722 0.0
H639 H 0.97353 0.54922 0.73848 0.0
C640 C 0.96252 0.48688 0.78761 0.0
N641 N 0.96152 0.49765 0.77296 0.0
C642 C 0.94798 0.48544 0.79922 0.0
C643 C 0.93188 0.50664 0.78077 0.0
C644 C 0.9467 0.50761 0.7695 0.0
C645 C 0.93239 0.49538 0.79583 0.0
H646 H 0.97465 0.47947 0.79032 0.0
H647 H 0.94648 0.51654 0.75813 0.0
C648 C 0.03491 0.50105 0.72537 0.0
N649 N 0.07132 0.4991 0.71927 0.0
C650 C 0.04241 0.48551 0.71813 0.0
C651 C 0.04589 0.51569 0.72925 0.0
C652 C 0.06085 0.48476 0.71521 0.0
C653 C 0.06427 0.51441 0.72615 0.0
C654 C 0.99545 0.46114 0.7623 0.0
C655 C 0.0094 0.45025 0.76842 0.0
C656 C 0.97823 0.45402 0.76079 0.0
C657 C 0.00596 0.43233 0.77253 0.0
C658 C 0.97531 0.43604 0.76505 0.0
N659 N 0.98913 0.42564 0.77076 0.0
C660 C 0.04017 0.50963 0.78122 0.0
C661 C 0.04834 0.48402 0.76437 0.0
C662 C 0.05603 0.50863 0.791 0.0
N663 N 0.03669 0.49747 0.76817 0.0
C664 C 0.06441 0.48256 0.77374 0.0
C665 C 0.06842 0.49496 0.78729 0.0
H666 H 0.03054 0.52 0.78418 0.0
H667 H 0.04512 0.4744 0.75407 0.0
C668 C 0.98716 0.46785 0.70005 0.0
N669 N -0.00375 0.46544 0.71562 0.0
C670 C 0.98608 0.454 0.68757 0.0
C671 C 0.00409 0.43562 0.70723 0.0
C672 C 0.00486 0.44984 0.71928 0.0
C673 C 0.99455 0.43758 0.69114 0.0
H674 H 0.98076 0.48056 0.69732 0.0
H675 H 0.01248 0.44846 0.73147 0.0
O676 O -0.00138 0.51873 0.7628 0.0
O677 O 0.97685 0.50186 0.73132 0.0
O678 O 0.0169 0.50195 0.72851 0.0
O679 O -0.00135 0.47871 0.75814 0.0
H680 H 0.97119 0.53545 0.77774 0.0
H681 H 0.02464 0.54223 0.75749 0.0
H682 H 0.97026 0.56791 0.78468 0.0
H683 H 0.02278 0.57458 0.76473 0.0
H684 H 0.92828 0.46709 0.71951 0.0
H685 H 0.95447 0.52769 0.72189 0.0
H686 H 0.95998 0.47069 0.72843 0.0
H687 H 0.92289 0.52309 0.71285 0.0
H688 H 0.97174 0.57817 0.72291 0.0
H689 H 0.01683 0.56201 0.69036 0.0
H690 H 0.94906 0.47689 0.8109 0.0
H691 H 0.92012 0.51453 0.77767 0.0
H692 H 0.03411 0.47411 0.71491 0.0
H693 H 0.04029 0.52789 0.73463 0.0
H694 H 0.06685 0.47278 0.70972 0.0
H695 H 0.07294 0.5256 0.72921 0.0
H696 H 0.02277 0.45556 0.7699 0.0
H697 H 0.96717 0.46235 0.75664 0.0
H698 H 0.01666 0.42374 0.77716 0.0
H699 H 0.96205 0.43038 0.76391 0.0
H700 H 0.05837 0.51824 0.80159 0.0
H701 H 0.07361 0.47189 0.77034 0.0
H702 H 0.97889 0.45623 0.67518 0.0
H703 H 0.01078 0.42319 0.71057 0.0
Li704 Li 0.23219 0.49812 0.01005 0.0
Li705 Li 0.25524 0.48064 0.99499 0.0
Li706 Li 0.25582 0.51421 0.99369 0.0
Li707 Li 0.23442 0.49651 0.9764 0.0
C708 C 0.26285 0.50255 0.03189 0.0
N709 N 0.27202 0.51168 0.06657 0.0
C710 C 0.27014 0.48971 0.04342 0.0
C711 C 0.26054 0.52011 0.03794 0.0
C712 C 0.27459 0.49456 0.06092 0.0
C713 C 0.26518 0.52444 0.05552 0.0
C714 C 0.22713 0.45908 0.99556 0.0
C715 C 0.22999 0.42936 0.98327 0.0
N716 N 0.22435 0.42235 -0.00089 0.0
C717 C 0.22121 0.45159 0.01166 0.0
C718 C 0.2314 0.4479 0.98118 0.0
C719 C 0.21995 0.43299 0.0132 0.0
C720 C 0.20139 0.50885 0.02882 0.0
N721 N 0.21681 0.49931 0.03014 0.0
C722 C 0.21076 0.4924 0.06075 0.0
C723 C 0.22149 0.49088 0.04557 0.0
C724 C 0.19498 0.50258 0.05996 0.0
C725 C 0.19025 0.51075 0.04367 0.0
H726 H 0.19779 0.51507 0.01625 0.0
H727 H 0.23355 0.48294 0.04611 0.0
C728 C 0.28131 0.45591 0.9838 0.0
N729 N 0.26948 0.45975 -0.00296 0.0
C730 C 0.29195 0.44061 0.98487 0.0
C731 C 0.27812 0.43357 0.01329 0.0
C732 C 0.26771 0.44899 0.01163 0.0
C733 C 0.29046 0.42925 -0.0002 0.0
H734 H 0.28263 0.46482 0.97249 0.0
H735 H 0.25818 0.45239 0.02196 0.0
C736 C 0.2237 0.53487 0.99283 0.0
N737 N 0.21202 0.56998 0.99457 0.0
C738 C 0.21782 0.54366 0.97737 0.0
C739 C 0.22329 0.54387 0.00923 0.0
C740 C 0.21207 0.56142 0.9785 0.0
C741 C 0.21743 0.56162 0.00982 0.0
C742 C 0.26446 0.49751 0.95657 0.0
C743 C 0.27099 0.51337 0.94907 0.0
C744 C 0.26147 0.48264 0.94561 0.0
C745 C 0.27418 0.51416 0.93066 0.0
C746 C 0.26479 0.48398 0.92726 0.0
N747 N 0.27101 0.49958 0.92022 0.0
C748 C 0.28613 0.53349 0.00379 0.0
C749 C 0.26596 0.55025 0.98591 0.0
C750 C 0.29718 0.54837 0.0058 0.0
N751 N 0.27067 0.53479 0.9943 0.0
C752 C 0.27663 0.56549 0.98755 0.0
C753 C 0.29236 0.56471 -0.00221 0.0
H754 H 0.28976 0.52091 0.00998 0.0
H755 H 0.25394 0.5508 0.97795 0.0
C756 C 0.20881 0.48239 0.95281 0.0
N757 N 0.22118 0.49557 0.95474 0.0
C758 C 0.19903 0.48093 0.93699 0.0
C759 C 0.21482 0.50672 0.92543 0.0
C760 C 0.22421 0.50773 0.94153 0.0
C761 C 0.202 0.49317 0.923 0.0
H762 H 0.20647 0.47305 0.96362 0.0
H763 H 0.234 0.51819 0.94345 0.0
O764 O 0.25831 0.49797 0.01473 0.0
O765 O 0.22867 0.47726 0.99387 0.0
O766 O 0.22943 0.51747 0.99191 0.0
O767 O 0.26119 0.49652 0.97457 0.0
H768 H 0.27228 0.47613 0.03895 0.0
H769 H 0.25548 0.53035 0.02908 0.0
H770 H 0.28013 0.48472 0.07001 0.0
H771 H 0.26342 0.53798 0.06035 0.0
H772 H 0.23338 0.42054 0.9723 0.0
H773 H 0.21772 0.46005 0.02287 0.0
H774 H 0.23587 0.45347 0.9686 0.0
H775 H 0.21549 0.42701 0.02562 0.0
H776 H 0.2149 0.48588 0.07303 0.0
H777 H 0.178 0.51839 0.04238 0.0
H778 H 0.30152 0.43792 0.97433 0.0
H779 H 0.2765 0.42509 0.02495 0.0
H780 H 0.21778 0.53689 0.96461 0.0
H781 H 0.22719 0.53717 0.02144 0.0
H782 H 0.20762 0.56841 0.96661 0.0
H783 H 0.2171 0.56873 0.02243 0.0
H784 H 0.27351 0.52496 0.95735 0.0
H785 H 0.2565 0.47024 0.95119 0.0
H786 H 0.27915 0.52638 0.92466 0.0
H787 H 0.26241 0.47261 0.91861 0.0
H788 H 0.30943 0.54707 0.01344 0.0
H789 H 0.27243 0.5778 0.98111 0.0
H790 H 0.18902 0.4705 0.93586 0.0
H791 H 0.21766 0.51636 0.91497 0.0
Li792 Li 0.51164 0.25843 -0.00273 0.0
Li793 Li 0.49508 0.23679 0.01355 0.0
Li794 Li 0.49488 0.23553 0.98182 0.0
Li795 Li 0.47838 0.25914 -0.00203 0.0
C796 C 0.53048 0.22867 0.98725 0.0
N797 N 0.56 0.22143 0.96614 0.0
C798 C 0.5426 0.21531 0.99226 0.0
C799 C 0.53345 0.23839 0.97151 0.0
C800 C 0.55742 0.21184 0.98141 0.0
C801 C 0.54842 0.23452 0.96102 0.0
C802 C 0.49857 0.2656 0.03534 0.0
C803 C 0.4888 0.27571 0.06438 0.0
N804 N 0.50464 0.27025 0.07152 0.0
C805 C 0.51477 0.26015 0.04293 0.0
C806 C 0.48548 0.27349 0.04611 0.0
C807 C 0.51757 0.26258 0.06126 0.0
C808 C 0.53183 0.28843 0.9873 0.0
N809 N 0.53238 0.27283 -0.00335 0.0
C810 C 0.563 0.27766 0.00434 0.0
C811 C 0.54752 0.26727 0.00508 0.0
C812 C 0.56286 0.29377 0.99465 0.0
C813 C 0.54705 0.29914 0.98603 0.0
H814 H 0.51955 0.2925 0.98082 0.0
H815 H 0.54762 0.25468 0.01223 0.0
C816 C 0.50633 0.20767 0.03408 0.0
N817 N 0.49535 0.22215 0.03448 0.0
C818 C 0.5075 0.19628 0.04883 0.0
C819 C 0.48569 0.2147 0.06405 0.0
C820 C 0.48505 0.2258 0.04904 0.0
C821 C 0.49709 0.19976 0.06407 0.0
H822 H 0.51412 0.20491 0.02223 0.0
H823 H 0.47633 0.23731 0.04907 0.0
C824 C 0.48445 0.26615 0.96217 0.0
N825 N 0.46364 0.27492 0.93285 0.0
C826 C 0.4693 0.25599 0.95802 0.0
C827 C 0.48903 0.28074 0.95137 0.0
C828 C 0.45895 0.26065 0.94315 0.0
C829 C 0.47834 0.28496 0.93661 0.0
C830 C 0.46158 0.22489 0.00872 0.0
C831 C 0.45867 0.20644 0.00744 0.0
C832 C 0.45192 0.23489 0.02124 0.0
C833 C 0.44618 0.19831 0.01873 0.0
C834 C 0.43953 0.22627 0.03227 0.0
N835 N 0.43694 0.20831 0.03081 0.0
C836 C 0.49257 0.20224 0.9655 0.0
C837 C 0.49885 0.2256 0.94493 0.0
C838 C 0.49289 0.18962 0.95178 0.0
N839 N 0.49523 0.21984 0.96183 0.0
C840 C 0.49939 0.21341 0.93078 0.0
C841 C 0.49626 0.19517 0.93414 0.0
H842 H 0.49049 0.19799 0.97916 0.0
H843 H 0.50151 0.23959 0.94241 0.0
C844 C 0.46021 0.29107 0.00495 0.0
N845 N 0.4582 0.27438 -0.00199 0.0
C846 C 0.44556 0.30257 0.00609 0.0
C847 C 0.42719 0.27965 0.99247 0.0
C848 C 0.44217 0.26853 0.99172 0.0
C849 C 0.42878 0.29685 -0.00013 0.0
H850 H 0.47317 0.29533 0.00975 0.0
H851 H 0.44096 0.25512 0.98641 0.0
O852 O 0.51592 0.23217 -0.00214 0.0
O853 O 0.49548 0.26318 0.01746 0.0
O854 O 0.49478 0.26196 0.97673 0.0
O855 O 0.47387 0.23309 -0.00214 0.0
H856 H 0.54064 0.2077 0.00443 0.0
H857 H 0.52439 0.24886 0.96738 0.0
H858 H 0.56689 0.20153 0.98514 0.0
H859 H 0.55084 0.24194 0.94882 0.0
H860 H 0.47877 0.28174 0.07291 0.0
H861 H 0.52491 0.2538 0.03482 0.0
H862 H 0.47282 0.27769 0.04046 0.0
H863 H 0.52999 0.2583 0.06734 0.0
H864 H 0.575 0.27304 0.01102 0.0
H865 H 0.54641 0.31159 0.97861 0.0
H866 H 0.51623 0.18472 0.04821 0.0
H867 H 0.47752 0.21787 0.07559 0.0
H868 H 0.4656 0.24457 0.96609 0.0
H869 H 0.50073 0.28873 0.95433 0.0
H870 H 0.4472 0.2529 0.93979 0.0
H871 H 0.48172 0.29623 0.92815 0.0
H872 H 0.46594 0.19845 -0.00215 0.0
H873 H 0.45426 0.24908 0.02279 0.0
H874 H 0.44382 0.18404 0.01789 0.0
H875 H 0.43206 0.23385 0.04209 0.0
H876 H 0.49085 0.17562 0.95499 0.0
H877 H 0.50208 0.21821 0.91737 0.0
H878 H 0.44736 0.31583 0.01167 0.0
H879 H 0.41444 0.27471 0.98768 0.0
Li880 Li 0.73489 0.51239 0.99529 0.0
Li881 Li 0.7564 0.49626 0.01374 0.0
Li882 Li 0.7576 0.49548 0.97996 0.0
Li883 Li 0.73481 0.47872 -0.00381 0.0
C884 C 0.76306 0.53424 -0.00305 0.0
N885 N 0.76604 0.57113 -0.00201 0.0
C886 C 0.76662 0.54294 0.01312 0.0
C887 C 0.76133 0.54431 0.98125 0.0
C888 C 0.768 0.5616 0.01339 0.0
C889 C 0.76278 0.56294 0.98207 0.0
C890 C 0.72447 0.49294 0.03306 0.0
C891 C 0.7217 0.47315 0.05847 0.0
N892 N 0.71379 0.48654 0.06793 0.0
C893 C 0.71606 0.50642 0.04295 0.0
C894 C 0.7271 0.47611 0.04081 0.0
C895 C 0.71086 0.50296 0.06058 0.0
C896 C 0.71024 0.53694 0.98015 0.0
N897 N 0.7206 0.53335 0.99467 0.0
C898 C 0.71034 0.5598 0.00937 0.0
C899 C 0.72093 0.54444 0.00908 0.0
C900 C 0.69944 0.56381 0.99461 0.0
C901 C 0.69957 0.55228 0.97978 0.0
H902 H 0.71006 0.5278 0.96896 0.0
H903 H 0.72936 0.54128 0.0204 0.0
C904 C 0.78553 0.48758 0.03586 0.0
N905 N 0.76997 0.49696 0.03517 0.0
C906 C 0.79586 0.48765 0.05141 0.0
C907 C 0.77429 0.50755 0.06503 0.0
C908 C 0.76428 0.50696 0.04928 0.0
C909 C 0.79025 0.49774 0.06623 0.0
H910 H 0.78995 0.48011 0.02429 0.0
H911 H 0.75213 0.5147 0.0482 0.0
C912 C 0.72942 0.49417 0.95724 0.0
N913 N 0.72599 0.49214 0.92044 0.0
C914 C 0.72263 0.47867 0.94926 0.0
C915 C 0.73417 0.50875 0.9465 0.0
C916 C 0.72106 0.47788 0.93064 0.0
C917 C 0.73243 0.50743 0.92792 0.0
C918 C 0.76629 0.45827 -0.00013 0.0
C919 C 0.77261 0.44822 0.98541 0.0
C920 C 0.7657 0.45048 0.01689 0.0
C921 C 0.77767 0.43041 0.9881 0.0
C922 C 0.77091 0.43264 0.01905 0.0
N923 N 0.7767 0.42304 0.00473 0.0
C924 C 0.78602 0.50726 0.95827 0.0
C925 C 0.77069 0.48178 0.94719 0.0
C926 C 0.79754 0.50709 0.94357 0.0
N927 N 0.77291 0.49475 0.95975 0.0
C928 C 0.7819 0.48109 0.93229 0.0
C929 C 0.79556 0.49385 0.93037 0.0
H930 H 0.78764 0.51727 0.96858 0.0
H931 H 0.76023 0.47193 0.94875 0.0
C932 C 0.70557 0.45681 0.00587 0.0
N933 N 0.72068 0.45761 0.99579 0.0
C934 C 0.69503 0.4414 0.00579 0.0
C935 C 0.7154 0.4282 0.9844 0.0
C936 C 0.72565 0.44379 0.98506 0.0
C937 C 0.69993 0.42687 0.99493 0.0
H938 H 0.70158 0.46819 0.01384 0.0
H939 H 0.73735 0.44501 0.97669 0.0
O940 O 0.7614 0.51599 -0.00353 0.0
O941 O 0.72985 0.49618 0.01581 0.0
O942 O 0.7312 0.49512 0.97547 0.0
O943 O 0.76126 0.47577 -0.00256 0.0
H944 H 0.76819 0.5354 0.02536 0.0
H945 H 0.7589 0.53782 0.96857 0.0
H946 H 0.77062 0.5685 0.02585 0.0
H947 H 0.76135 0.57088 0.97003 0.0
H948 H 0.7237 0.46018 0.06462 0.0
H949 H 0.71358 0.51942 0.03713 0.0
H950 H 0.73294 0.46534 0.03319 0.0
H951 H 0.70446 0.51331 0.06842 0.0
H952 H 0.71068 0.56846 0.02099 0.0
H953 H 0.69115 0.55484 0.96825 0.0
H954 H 0.80829 0.48019 0.0517 0.0
H955 H 0.76956 0.51553 0.07617 0.0
H956 H 0.71857 0.46738 0.95734 0.0
H957 H 0.73922 0.52092 0.95241 0.0
H958 H 0.71591 0.46592 0.9243 0.0
H959 H 0.7362 0.51857 0.91946 0.0
H960 H 0.77348 0.45404 0.97221 0.0
H961 H 0.76157 0.45816 0.02839 0.0
H962 H 0.78241 0.42246 0.97697 0.0
H963 H 0.77044 0.42646 0.03215 0.0
H964 H 0.80808 0.51699 0.94275 0.0
H965 H 0.77982 0.47076 0.92234 0.0
H966 H 0.68296 0.44101 0.0138 0.0
H967 H 0.71954 0.4173 0.97578 0.0
Li968 Li 0.49615 0.75772 0.01091 0.0
Li969 Li 0.47875 0.7341 -0.00305 0.0
Li970 Li 0.51138 0.73358 -0.0035 0.0
Li971 Li 0.49454 0.75495 0.97844 0.0
C972 C 0.50231 0.71856 0.02722 0.0
N973 N 0.51742 0.69022 0.04563 0.0
C974 C 0.4938 0.7019 0.0275 0.0
C975 C 0.51846 0.72083 0.0364 0.0
C976 C 0.50166 0.68773 0.03688 0.0
C977 C 0.52591 0.70633 0.04558 0.0
C978 C 0.45708 0.76171 -0.00253 0.0
C979 C 0.42699 0.7584 0.9863 0.0
N980 N 0.42052 0.76291 0.0027 0.0
C981 C 0.45014 0.76636 0.01421 0.0
C982 C 0.44544 0.75777 0.98337 0.0
C983 C 0.43161 0.76689 0.01658 0.0
C984 C 0.49112 0.7914 0.02651 0.0
N985 N 0.49641 0.77433 0.02998 0.0
C986 C 0.50076 0.78118 0.06087 0.0
C987 C 0.50118 0.76903 0.04671 0.0
C988 C 0.4952 0.79888 0.05773 0.0
C989 C 0.49042 0.80397 0.04027 0.0
H990 H 0.48727 0.79515 0.01306 0.0
H991 H 0.50506 0.75531 0.04912 0.0
C992 C 0.45248 0.70974 0.98523 0.0
N993 N 0.45779 0.72012 -0.00084 0.0
C994 C 0.43691 0.69957 0.98653 0.0
C995 C 0.43265 0.71089 0.01656 0.0
C996 C 0.44837 0.72077 0.0147 0.0
C997 C 0.42673 0.70011 0.00234 0.0
H998 H 0.46041 0.70926 0.97316 0.0
H999 H 0.45307 0.72903 0.02562 0.0
C1000 C 0.52441 0.77424 -0.00071 0.0
N1001 N 0.54007 0.80501 0.01251 0.0
C1002 C 0.52103 0.79076 0.99115 0.0
C1003 C 0.53582 0.77335 0.01409 0.0
C1004 C 0.52908 0.80617 -0.00196 0.0
C1005 C 0.54358 0.78907 0.02061 0.0
C1006 C 0.49631 0.7256 0.95881 0.0
C1007 C 0.51268 0.71994 0.95176 0.0
C1008 C 0.48193 0.7289 0.9473 0.0
C1009 C 0.51443 0.71781 0.93326 0.0
C1010 C 0.48423 0.72665 0.92888 0.0
N1011 N 0.50029 0.7212 0.9223 0.0
C1012 C 0.52971 0.70064 -0.00302 0.0
C1013 C 0.54837 0.72631 -0.00406 0.0
C1014 C 0.5446 0.6894 -0.00276 0.0
N1015 N 0.53187 0.71871 -0.00335 0.0
C1016 C 0.56364 0.71556 0.99586 0.0
C1017 C 0.5618 0.69688 -0.00333 0.0
H1018 H 0.5164 0.69498 -0.00296 0.0
H1019 H 0.54966 0.74071 0.99534 0.0
C1020 C 0.48082 0.77915 0.95288 0.0
N1021 N 0.49464 0.76799 0.95672 0.0
C1022 C 0.48106 0.78938 0.93725 0.0
C1023 C 0.50969 0.77628 0.92979 0.0
C1024 C 0.50899 0.7665 0.94569 0.0
C1025 C 0.49565 0.78805 0.92545 0.0
H1026 H 0.46979 0.7804 0.96214 0.0
H1027 H 0.51996 0.75777 0.9493 0.0
O1028 O 0.49492 0.73255 0.01797 0.0
O1029 O 0.47519 0.76079 0.99496 0.0
O1030 O 0.51631 0.75907 0.99303 0.0
O1031 O 0.49439 0.72794 0.97687 0.0
H1032 H 0.48134 0.69985 0.02043 0.0
H1033 H 0.52533 0.73358 0.03617 0.0
H1034 H 0.49526 0.67474 0.03715 0.0
H1035 H 0.53847 0.70786 0.05261 0.0
H1036 H 0.41783 0.75526 0.97554 0.0
H1037 H 0.45893 0.7693 0.02532 0.0
H1038 H 0.45059 0.75404 0.97037 0.0
H1039 H 0.42604 0.77037 0.02948 0.0
H1040 H 0.50433 0.77668 0.07419 0.0
H1041 H 0.48623 0.81753 0.03727 0.0
H1042 H 0.43307 0.69114 0.97539 0.0
H1043 H 0.42517 0.71178 0.02894 0.0
H1044 H 0.51216 0.79171 0.97974 0.0
H1045 H 0.53847 0.76068 0.02063 0.0
H1046 H 0.52653 0.81906 0.99192 0.0
H1047 H 0.55234 0.78859 0.03213 0.0
H1048 H 0.52397 0.71734 0.96044 0.0
H1049 H 0.4692 0.73339 0.95251 0.0
H1050 H 0.52704 0.71351 0.92762 0.0
H1051 H 0.47325 0.72929 0.91981 0.0
H1052 H 0.5427 0.67502 -0.00241 0.0
H1053 H 0.57673 0.72177 0.99539 0.0
H1054 H 0.47014 0.79857 0.93473 0.0
H1055 H 0.52113 0.77467 0.92106 0.0
C1056 C 0.98461 0.3065 0.39951 0.0
C1057 C -9e-05 0.30305 0.40983 0.0
C1058 C 0.98556 0.3178 0.38464 0.0
C1059 C 0.01368 0.35382 0.36546 0.0
H1060 H 0.98393 0.34637 0.32357 0.0
C1061 C 0.01777 0.39968 0.30368 0.0
C1062 C 0.00126 0.40682 0.2981 0.0
C1063 C 0.01837 0.38542 0.31577 0.0
C1064 C 0.99229 0.34858 0.33521 0.0
H1065 H 0.02833 0.30804 0.41241 0.0
H1066 H 0.03018 0.32737 0.38614 0.0
H1067 H 0.98385 0.32419 0.34764 0.0
H1068 H 0.97244 0.40416 0.30053 0.0
H1069 H 0.97356 0.37901 0.32132 0.0
H1070 H 0.02217 0.37815 0.35294 0.0
C1071 C 0.0173 0.32183 0.38978 0.0
C1072 C 0.9922 0.33595 0.34903 0.0
C1073 C 0.01629 0.31071 0.40478 0.0
C1074 C 0.98538 0.39886 0.30433 0.0
C1075 C 0.986 0.38448 0.31627 0.0
C1076 C 0.01393 0.3663 0.35156 0.0
C1077 C 0.0019 0.32572 0.37966 0.0
C1078 C 0.00274 0.33853 0.36443 0.0
C1079 C 0.00249 0.37787 0.32237 0.0
C1080 C 0.00309 0.36391 0.33641 0.0
H1081 H 0.97179 0.30085 0.40324 0.0
H1082 H 0.97337 0.32072 0.37736 0.0
H1083 H 0.0217 0.35646 0.37724 0.0
H1084 H 0.03026 0.40522 0.29886 0.0
H1085 H 0.03126 0.3804 0.32011 0.0
C1086 C 0.68044 0.00623 0.40458 0.0
C1087 C 0.68444 0.99125 0.41526 0.0
C1088 C 0.66912 0.00459 0.38981 0.0
C1089 C 0.63279 0.97663 0.37252 0.0
H1090 H 0.64161 0.00234 0.32825 0.0
C1091 C 0.58385 0.9725 0.31324 0.0
C1092 C 0.5794 0.98894 0.3052 0.0
C1093 C 0.59827 0.97132 0.32507 0.0
C1094 C 0.63893 0.99515 0.34056 0.0
H1095 H 0.6802 0.96269 0.41847 0.0
H1096 H 0.66032 0.95985 0.39271 0.0
H1097 H 0.66395 0.00301 0.35209 0.0
H1098 H 0.5871 0.01683 0.30263 0.0
H1099 H 0.61197 0.01488 0.3236 0.0
H1100 H 0.60762 0.96912 0.36124 0.0
C1101 C 0.66577 0.9729 0.39592 0.0
C1102 C 0.65172 0.99554 0.3542 0.0
C1103 C 0.67711 0.97454 0.41068 0.0
C1104 C 0.59003 0.00404 0.30882 0.0
C1105 C 0.60443 0.00286 0.32065 0.0
C1106 C 0.62001 0.97628 0.35891 0.0
C1107 C 0.66155 0.98794 0.38541 0.0
C1108 C 0.64866 0.98648 0.37041 0.0
C1109 C 0.60854 0.98655 0.32912 0.0
C1110 C 0.62282 0.98573 0.34288 0.0
H1111 H 0.68569 0.01933 0.40789 0.0
H1112 H 0.66589 0.01647 0.38213 0.0
H1113 H 0.62994 0.96972 0.38495 0.0
H1114 H 0.57586 0.96065 0.31082 0.0
H1115 H 0.60124 0.95851 0.33121 0.0
C1116 C 0.98662 0.58338 0.31417 0.0
C1117 C -0.00367 0.56744 0.31637 0.0
C1118 C 0.98668 0.59639 0.32757 0.0
C1119 C -0.00288 0.603 0.37574 0.0
H1120 H -0.00367 0.65319 0.36232 0.0
C1121 C 0.00837 0.66117 0.4257 0.0
C1122 C -0.00439 0.67502 0.42503 0.0
C1123 C 0.00863 0.64786 0.41258 0.0
C1124 C -0.00354 0.63921 0.36623 0.0
H1125 H 0.01391 0.55263 0.33405 0.0
H1126 H 0.01451 0.57558 0.35727 0.0
H1127 H -0.00316 0.63033 0.33907 0.0
H1128 H 0.97289 0.68543 0.41013 0.0
H1129 H 0.9738 0.6625 0.38697 0.0
H1130 H -0.0028 0.61208 0.40295 0.0
C1131 C 0.00643 0.57787 0.34546 0.0
C1132 C -0.00334 0.6261 0.35294 0.0
C1133 C 0.00616 0.56475 0.33215 0.0
C1134 C 0.98315 0.67522 0.4109 0.0
C1135 C 0.98359 0.66205 0.39767 0.0
C1136 C -0.00282 0.61614 0.38903 0.0
C1137 C -0.00334 0.59385 0.34335 0.0
C1138 C -0.00314 0.60781 0.35752 0.0
C1139 C -0.00369 0.64826 0.39841 0.0
C1140 C -0.00328 0.63435 0.38437 0.0
H1141 H 0.97877 0.58565 0.30219 0.0
H1142 H 0.97871 0.60834 0.32562 0.0
H1143 H -0.00303 0.58907 0.37979 0.0
H1144 H 0.01836 0.66074 0.43619 0.0
H1145 H 0.01868 0.63743 0.41332 0.0
C1146 C 0.30694 0.98642 0.40126 0.0
C1147 C 0.29869 0.00204 0.40772 0.0
C1148 C 0.31873 0.98723 0.38681 0.0
C1149 C 0.34908 0.01838 0.36426 0.0
H1150 H 0.35155 0.98084 0.32849 0.0
C1151 C 0.40186 0.01894 0.30793 0.0
C1152 C 0.41069 0.00259 0.30495 0.0
C1153 C 0.38662 0.01963 0.31871 0.0
C1154 C 0.35107 0.99138 0.33844 0.0
H1155 H 0.29575 0.03065 0.4036 0.0
H1156 H 0.31644 0.03207 0.37834 0.0
H1157 H 0.3273 0.98074 0.35035 0.0
H1158 H 0.41017 0.97408 0.3105 0.0
H1159 H 0.38379 0.97533 0.32959 0.0
H1160 H 0.37305 0.0288 0.35262 0.0
C1161 C 0.31394 0.01924 0.38464 0.0
C1162 C 0.33718 0.99133 0.35093 0.0
C1163 C 0.30213 0.01843 0.3991 0.0
C1164 C 0.40379 0.98691 0.31273 0.0
C1165 C 0.38854 0.9876 0.32347 0.0
C1166 C 0.36296 0.01843 0.35176 0.0
C1167 C 0.32254 0.00368 0.37849 0.0
C1168 C 0.33622 0.00466 0.36416 0.0
C1169 C 0.37986 0.00398 0.32668 0.0
C1170 C 0.36427 0.00476 0.33891 0.0
H1171 H 0.30479 0.97363 0.40777 0.0
H1172 H 0.32536 0.97505 0.38257 0.0
H1173 H 0.34884 0.02871 0.37443 0.0
H1174 H 0.40694 0.03127 0.30222 0.0
H1175 H 0.38014 0.03243 0.32083 0.0
C1176 C 0.00834 0.59841 0.6891 0.0
C1177 C 0.99285 0.58948 0.69494 0.0
C1178 C 0.00706 0.61357 0.67822 0.0
C1179 C 0.9761 0.63496 0.64637 0.0
H1180 H 0.0105 0.67378 0.64834 0.0
C1181 C 0.97382 0.69377 0.59658 0.0
C1182 C 0.99019 0.69745 0.58807 0.0
C1183 C 0.97323 0.68278 0.61171 0.0
C1184 C 0.00081 0.66302 0.64766 0.0
H1185 H 0.96382 0.58987 0.69433 0.0
H1186 H 0.96159 0.61665 0.6759 0.0
H1187 H 0.01093 0.65058 0.67141 0.0
H1188 H 0.01884 0.69275 0.58908 0.0
H1189 H 0.0178 0.67379 0.61558 0.0
H1190 H 0.96613 0.64728 0.62252 0.0
C1191 C 0.97475 0.61171 0.67943 0.0
C1192 C 0.00108 0.64971 0.66082 0.0
C1193 C 0.97603 0.59647 0.6902 0.0
C1194 C 0.00603 0.69042 0.59543 0.0
C1195 C 0.00544 0.67953 0.61062 0.0
C1196 C 0.97576 0.64832 0.63331 0.0
C1197 C 0.99025 0.62025 0.67304 0.0
C1198 C 0.98893 0.63535 0.66014 0.0
C1199 C 0.98902 0.67535 0.61872 0.0
C1200 C 0.9883 0.6623 0.63364 0.0
H1201 H 0.0215 0.59356 0.69275 0.0
H1202 H 0.01928 0.61969 0.67341 0.0
H1203 H 0.96675 0.62395 0.64524 0.0
H1204 H 0.96142 0.69926 0.59146 0.0
H1205 H 0.96041 0.67995 0.61783 0.0
C1206 C 0.42431 0.00781 0.66192 0.0
C1207 C 0.42013 0.00366 0.67978 0.0
C1208 C 0.41094 0.00815 0.64889 0.0
C1209 C 0.3619 0.01046 0.64247 0.0
H1210 H 0.37305 0.98867 0.59669 0.0
C1211 C 0.30821 0.99487 0.58892 0.0
C1212 C 0.31266 -0.00121 0.57106 0.0
C1213 C 0.32113 0.99599 0.6024 0.0
C1214 C 0.36979 0.99497 0.60934 0.0
H1215 H 0.39867 -0.00312 0.69807 0.0
H1216 H 0.37528 -0.0027 0.67525 0.0
H1217 H 0.3959 0.99001 0.61988 0.0
H1218 H 0.33405 0.00741 0.55341 0.0
H1219 H 0.35659 0.00923 0.5769 0.0
H1220 H 0.33569 0.01523 0.63189 0.0
C1221 C 0.38886 0.00054 0.67137 0.0
C1222 C 0.38289 0.99577 0.62261 0.0
C1223 C 0.40224 0.00028 0.68443 0.0
C1224 C 0.33027 0.00396 0.56698 0.0
C1225 C 0.34318 0.00504 0.58044 0.0
C1226 C 0.34877 0.0096 0.62918 0.0
C1227 C 0.3931 0.00426 0.65341 0.0
C1228 C 0.37912 0.00357 0.63932 0.0
C1229 C 0.33876 0.00102 0.59827 0.0
C1230 C 0.3526 0.00188 0.61246 0.0
H1231 H 0.43794 0.01077 0.65802 0.0
H1232 H 0.41459 0.01144 0.63524 0.0
H1233 H 0.35864 0.01673 0.65512 0.0
H1234 H 0.29481 0.99064 0.59246 0.0
H1235 H 0.31739 0.99259 0.61599 0.0
C1236 C 0.00675 0.31495 0.58344 0.0
C1237 C 0.99198 0.3126 0.57205 0.0
C1238 C 0.00629 0.32781 0.59699 0.0
C1239 C 0.98301 0.36942 0.60991 0.0
H1240 H 0.00493 0.36036 0.65611 0.0
C1241 C 0.97766 0.41907 0.66878 0.0
C1242 C 0.99361 0.42264 0.67809 0.0
C1243 C 0.97685 0.40513 0.65635 0.0
C1244 C -0.00114 0.3631 0.64322 0.0
H1245 H 0.96497 0.32141 0.56625 0.0
H1246 H 0.96405 0.34372 0.59005 0.0
H1247 H 0.00444 0.33671 0.63359 0.0
H1248 H 0.02126 0.41444 0.68151 0.0
H1249 H 0.01976 0.39001 0.65996 0.0
H1250 H 0.97742 0.3958 0.61958 0.0
C1251 C 0.97614 0.33592 0.58827 0.0
C1252 C -0.0014 0.34959 0.63032 0.0
C1253 C 0.97664 0.32314 0.57466 0.0
C1254 C 0.00869 0.41187 0.67479 0.0
C1255 C 0.00784 0.39789 0.66244 0.0
C1256 C 0.98319 0.38289 0.62284 0.0
C1257 C 0.99102 0.33852 0.59949 0.0
C1258 C 0.99077 0.35263 0.61347 0.0
C1259 C 0.99194 0.39443 0.65305 0.0
C1260 C 0.99122 0.37991 0.63958 0.0
H1261 H 0.01882 0.30715 0.5816 0.0
H1262 H 0.01808 0.32965 0.60522 0.0
H1263 H 0.97714 0.37232 0.59697 0.0
H1264 H 0.96573 0.42692 0.67122 0.0
H1265 H 0.96435 0.40262 0.64946 0.0
C1266 C 0.58868 0.01051 0.68297 0.0
C1267 C 0.58237 0.99464 0.69092 0.0
C1268 C 0.60381 0.01023 0.67201 0.0
C1269 C 0.62818 0.98011 0.6425 0.0
H1270 H 0.66465 0.01702 0.64308 0.0
C1271 C 0.68626 0.97908 0.59221 0.0
C1272 C 0.69076 0.99556 0.58428 0.0
C1273 C 0.67502 0.97848 0.60712 0.0
C1274 C 0.6545 0.00669 0.64267 0.0
H1275 H 0.58756 0.96624 0.69434 0.0
H1276 H 0.61379 0.96575 0.67494 0.0
H1277 H 0.64125 0.01704 0.66591 0.0
H1278 H 0.68757 0.02437 0.58632 0.0
H1279 H 0.6674 0.02328 0.61183 0.0
H1280 H 0.64087 0.9701 0.61896 0.0
C1281 C 0.6069 0.97834 0.67707 0.0
C1282 C 0.64115 0.00669 0.65576 0.0
C1283 C 0.59185 0.97862 0.68811 0.0
C1284 C 0.68413 0.01143 0.5919 0.0
C1285 C 0.67277 0.01082 0.60672 0.0
C1286 C 0.64141 0.9802 0.62934 0.0
C1287 C 0.61287 0.99409 0.66871 0.0
C1288 C 0.62778 0.99349 0.65569 0.0
C1289 C 0.66788 0.99431 0.61436 0.0
C1290 C 0.65463 0.99359 0.62915 0.0
H1291 H 0.58159 0.02303 0.68469 0.0
H1292 H 0.608 0.02254 0.66557 0.0
H1293 H 0.61787 0.96993 0.64196 0.0
H1294 H 0.69099 0.96657 0.58662 0.0
H1295 H 0.67175 0.96555 0.61283 0.0
C1296 C 0.40119 0.31067 0.98675 0.0
C1297 C 0.413 0.30875 0.00125 0.0
C1298 C 0.3866 0.3223 0.98791 0.0
C1299 C 0.37098 0.3619 0.01284 0.0
H1300 H 0.32546 0.3507 0.99057 0.0
C1301 C 0.31078 0.40957 0.0178 0.0
C1302 C 0.3022 0.41337 0.0015 0.0
C1303 C 0.32295 0.39544 0.01903 0.0
C1304 C 0.33813 0.35401 -0.0032 0.0
H1305 H 0.41847 0.31691 0.02855 0.0
H1306 H 0.39289 0.33705 0.03068 0.0
H1307 H 0.34941 0.32845 0.99046 0.0
H1308 H 0.29896 0.40487 0.97394 0.0
H1309 H 0.32036 0.38026 0.97604 0.0
H1310 H 0.35976 0.38748 0.01906 0.0
C1311 C 0.3951 0.32991 0.01826 0.0
C1312 C 0.35185 0.3413 -0.0033 0.0
C1313 C 0.40975 0.31838 0.01706 0.0
C1314 C 0.30555 0.40237 0.98662 0.0
C1315 C 0.31765 0.38818 0.98787 0.0
C1316 C 0.35725 0.37454 0.01302 0.0
C1317 C 0.38346 0.33215 0.00364 0.0
C1318 C 0.3685 0.34518 0.00456 0.0
C1319 C 0.3267 0.38477 0.00401 0.0
C1320 C 0.34075 0.3708 0.00484 0.0
H1321 H 0.40349 0.30353 0.97435 0.0
H1322 H 0.37806 0.32391 0.9763 0.0
H1323 H 0.38373 0.36545 0.01874 0.0
H1324 H 0.30855 0.41789 0.02946 0.0
H1325 H 0.32961 0.393 0.03168 0.0
C1326 C 0.30717 0.59228 0.98557 0.0
C1327 C 0.30378 0.58077 8e-05 0.0
C1328 C 0.31853 0.60697 0.98759 0.0
C1329 C 0.35621 0.62217 0.01478 0.0
H1330 H 0.34689 0.66815 0.99245 0.0
C1331 C 0.40668 0.67988 0.02013 0.0
C1332 C 0.41037 0.68902 0.00409 0.0
C1333 C 0.39199 0.6684 0.02133 0.0
C1334 C 0.34971 0.65536 -0.00132 0.0
H1335 H 0.30902 0.5761 0.02828 0.0
H1336 H 0.329 0.60168 0.03174 0.0
H1337 H 0.32416 0.64468 0.9913 0.0
H1338 H 0.401 0.69398 0.97704 0.0
H1339 H 0.37573 0.67353 0.97895 0.0
H1340 H 0.38191 0.63253 0.02171 0.0
C1341 C 0.32305 0.59918 0.01876 0.0
C1342 C 0.3367 0.64195 -0.00197 0.0
C1343 C 0.31166 0.58452 0.01675 0.0
C1344 C 0.39869 0.6869 0.98949 0.0
C1345 C 0.38406 0.67537 0.99067 0.0
C1346 C 0.36923 0.63553 0.01537 0.0
C1347 C 0.32676 0.61043 0.00415 0.0
C1348 C 0.33992 0.62515 0.0059 0.0
C1349 C 0.38071 0.66576 0.00651 0.0
C1350 C 0.36623 0.6522 0.00713 0.0
H1351 H 0.30145 0.58964 0.97251 0.0
H1352 H 0.32134 0.61528 0.97603 0.0
H1353 H 0.35918 0.60927 0.02074 0.0
H1354 H 0.41546 0.68113 0.0316 0.0
H1355 H 0.38963 0.66138 0.03381 0.0
C1356 C 0.58474 0.31211 0.97719 0.0
C1357 C 0.57907 0.30505 0.99366 0.0
C1358 C 0.59964 0.32334 0.97635 0.0
C1359 C 0.63906 0.33898 0.0025 0.0
H1360 H 0.63524 0.38045 0.97143 0.0
C1361 C 0.68187 0.40294 0.00987 0.0
C1362 C 0.68852 0.41073 0.99409 0.0
C1363 C 0.67026 0.38833 0.00903 0.0
C1364 C 0.63661 0.3688 0.97998 0.0
H1365 H 0.58453 0.304 0.02213 0.0
H1366 H 0.61025 0.32401 0.0208 0.0
H1367 H 0.61155 0.35814 0.97142 0.0
H1368 H 0.6885 0.40924 0.96511 0.0
H1369 H 0.66806 0.38374 0.96364 0.0
H1370 H 0.66387 0.35019 0.01152 0.0
C1371 C 0.60351 0.32056 0.00844 0.0
C1372 C 0.62306 0.35597 0.97996 0.0
C1373 C 0.58873 0.30916 0.00924 0.0
C1374 C 0.68365 0.40341 0.97747 0.0
C1375 C 0.67188 0.38893 0.97663 0.0
C1376 C 0.65254 0.35194 0.00265 0.0
C1377 C 0.60905 0.32792 0.992 0.0
C1378 C 0.62403 0.34097 0.99133 0.0
C1379 C 0.66493 0.38138 0.99239 0.0
C1380 C 0.65135 0.36703 0.99149 0.0
H1381 H 0.57766 0.30891 0.96495 0.0
H1382 H 0.60374 0.32847 0.96342 0.0
H1383 H 0.6404 0.32744 0.0112 0.0
H1384 H 0.68555 0.40825 0.02285 0.0
H1385 H 0.66498 0.38284 0.02137 0.0
C1386 C 0.68631 0.59116 0.98025 0.0
C1387 C 0.68742 0.57954 0.99499 0.0
C1388 C 0.67448 0.60565 0.98048 0.0
C1389 C 0.64599 0.63276 0.01119 0.0
H1390 H 0.61975 0.64349 0.96767 0.0
C1391 C 0.57937 0.67155 0.00961 0.0
C1392 C 0.57773 0.68519 -0.00323 0.0
C1393 C 0.59422 0.66023 0.00952 0.0
C1394 C 0.62715 0.64077 0.97985 0.0
H1395 H 0.67705 0.5738 0.02146 0.0
H1396 H 0.65606 0.5987 0.02172 0.0
H1397 H 0.64308 0.62067 0.96722 0.0
H1398 H 0.59018 0.69778 0.97379 0.0
H1399 H 0.61611 0.67766 0.97342 0.0
H1400 H 0.62939 0.65237 0.02392 0.0
C1401 C 0.66465 0.59705 0.01017 0.0
C1402 C 0.64056 0.62775 0.9796 0.0
C1403 C 0.67662 0.58272 0.01001 0.0
C1404 C 0.59123 0.6874 0.98388 0.0
C1405 C 0.60595 0.67588 0.98361 0.0
C1406 C 0.63241 0.64559 0.01147 0.0
C1407 C 0.66337 0.60867 0.99538 0.0
C1408 C 0.65001 0.62343 0.99533 0.0
C1409 C 0.60755 0.66219 -0.00357 0.0
C1410 C 0.62275 0.64956 0.99585 0.0
H1411 H 0.69465 0.58907 0.96858 0.0
H1412 H 0.67407 0.61449 0.96899 0.0
H1413 H 0.65324 0.63008 0.02345 0.0
H1414 H 0.56917 0.66968 0.01975 0.0
H1415 H 0.59509 0.64968 0.01945 0.0
C1416 C 0.51293 0.8069 0.90362 0.0
C1417 C 0.49656 0.79947 0.90917 0.0
C1418 C 0.51364 0.81849 0.88898 0.0
C1419 C 0.48745 0.83508 0.84991 0.0
H1420 H 0.51822 0.87657 0.85503 0.0
C1421 C 0.48071 0.89999 0.80805 0.0
C1422 C 0.49662 0.90779 0.8017 0.0
C1423 C 0.48129 0.88522 0.81953 0.0
C1424 C 0.50974 0.86494 0.85331 0.0
H1425 H 0.4682 0.79789 0.90312 0.0
H1426 H 0.46932 0.81876 0.87814 0.0
H1427 H 0.51815 0.85366 0.87818 0.0
H1428 H 0.52558 0.90559 0.80178 0.0
H1429 H 0.52653 0.8801 0.8222 0.0
H1430 H 0.47858 0.84691 0.82529 0.0
C1431 C 0.48168 0.81537 0.8849 0.0
C1432 C 0.50973 0.85176 0.86654 0.0
C1433 C 0.48099 0.8036 0.89943 0.0
C1434 C 0.51309 0.90018 0.80673 0.0
C1435 C 0.51366 0.88554 0.81834 0.0
C1436 C 0.48732 0.84841 0.83676 0.0
C1437 C 0.49798 0.82314 0.87964 0.0
C1438 C 0.49853 0.83669 0.86506 0.0
C1439 C 0.49777 0.87806 0.825 0.0
C1440 C 0.49842 0.86348 0.8384 0.0
H1441 H 0.52517 0.80419 0.91089 0.0
H1442 H 0.52649 0.82398 0.88512 0.0
H1443 H 0.47887 0.82353 0.8482 0.0
H1444 H 0.4678 0.90563 0.80465 0.0
H1445 H 0.46885 0.87981 0.82464 0.0
C1446 C 0.18704 0.4754 0.89872 0.0
C1447 C 0.19143 0.4921 0.90622 0.0
C1448 C 0.17615 0.47438 0.88356 0.0
C1449 C 0.15819 0.50071 0.84575 0.0
H1450 H 0.11781 0.46832 0.84926 0.0
C1451 C 0.09452 0.50879 0.80325 0.0
C1452 C 0.08513 0.49338 0.79792 0.0
C1453 C 0.10948 0.5074 0.81434 0.0
C1454 C 0.12919 0.47718 0.84784 0.0
H1455 H 0.18806 0.52084 0.90343 0.0
H1456 H 0.16923 0.51905 0.87689 0.0
H1457 H 0.14067 0.46804 0.87244 0.0
H1458 H 0.08446 0.46437 0.79965 0.0
H1459 H 0.11088 0.46193 0.81858 0.0
H1460 H 0.14657 0.51004 0.82127 0.0
C1461 C 0.17435 0.50676 0.88266 0.0
C1462 C 0.14228 0.47703 0.86116 0.0
C1463 C 0.18515 0.50777 0.89787 0.0
C1464 C 0.09144 0.47651 0.80341 0.0
C1465 C 0.10647 0.47511 0.81443 0.0
C1466 C 0.14515 0.50079 0.83236 0.0
C1467 C 0.16953 0.49005 0.87551 0.0
C1468 C 0.15673 0.48902 0.86042 0.0
C1469 C 0.11547 0.49056 0.82028 0.0
C1470 C 0.13031 0.48926 0.83343 0.0
H1471 H 0.19194 0.46308 0.90462 0.0
H1472 H 0.17281 0.46133 0.87819 0.0
H1473 H 0.16933 0.50993 0.84473 0.0
H1474 H 0.09018 0.52197 0.79902 0.0
H1475 H 0.11598 0.51959 0.81872 0.0
C1476 C 0.50807 0.06908 0.83026 0.0
C1477 C 0.50064 0.07197 0.81323 0.0
C1478 C 0.5085 0.08286 0.84285 0.0
C1479 C 0.50476 0.13203 0.84786 0.0
H1480 H 0.49244 0.11984 0.8968 0.0
C1481 C 0.51031 0.1824 0.90647 0.0
C1482 C 0.4967 0.1819 0.91943 0.0
C1483 C 0.51109 0.16938 0.89307 0.0
C1484 C 0.49577 0.1235 0.88317 0.0
H1485 H 0.48793 0.09157 0.79597 0.0
H1486 H 0.4885 0.11563 0.81804 0.0
H1487 H 0.49338 0.09645 0.8742 0.0
H1488 H 0.47287 0.16785 0.92815 0.0
H1489 H 0.47411 0.14525 0.90469 0.0
H1490 H 0.50667 0.1592 0.8568 0.0
C1491 C 0.49427 0.10279 0.82156 0.0
C1492 C 0.49655 0.11005 0.87026 0.0
C1493 C 0.49391 0.08901 0.80894 0.0
C1494 C 0.48369 0.16838 0.91852 0.0
C1495 C 0.48442 0.15543 0.9051 0.0
C1496 C 0.50395 0.14552 0.86079 0.0
C1497 C 0.50143 0.09982 0.83872 0.0
C1498 C 0.50102 0.11415 0.85245 0.0
C1499 C 0.49824 0.15565 0.89234 0.0
C1500 C 0.49936 0.1414 0.87857 0.0
H1501 H 0.51365 0.05617 0.83383 0.0
H1502 H 0.51441 0.08023 0.85584 0.0
H1503 H 0.50841 0.13559 0.83428 0.0
H1504 H 0.52063 0.19257 0.90697 0.0
H1505 H 0.52201 0.16981 0.88356 0.0
C1506 C 0.90765 0.50989 0.81317 0.0
C1507 C 0.9169 0.4943 0.80815 0.0
C1508 C 0.89336 0.50896 0.82515 0.0
C1509 C 0.87492 0.4806 0.86089 0.0
H1510 H 0.8328 0.51034 0.85473 0.0
C1511 C 0.81488 0.47665 0.90904 0.0
C1512 C 0.80794 0.49312 0.9149 0.0
C1513 C 0.82711 0.47602 0.89493 0.0
C1514 C 0.84453 0.50204 0.85667 0.0
H1515 H 0.9181 0.46546 0.81132 0.0
H1516 H 0.89309 0.46382 0.83224 0.0
H1517 H 0.85616 0.51055 0.8319 0.0
H1518 H 0.80794 0.52179 0.91023 0.0
H1519 H 0.82952 0.52073 0.88578 0.0
H1520 H 0.86341 0.47225 0.88574 0.0
C1521 C 0.89708 0.47679 0.82713 0.0
C1522 C 0.8579 0.50216 0.84362 0.0
C1523 C 0.9114 0.47773 0.81517 0.0
C1524 C 0.81322 0.50892 0.90614 0.0
C1525 C 0.82541 0.50829 0.89201 0.0
C1526 C 0.86155 0.48046 0.87392 0.0
C1527 C 0.88799 0.49241 0.83234 0.0
C1528 C 0.87332 0.49158 0.84568 0.0
C1529 C 0.83261 0.49185 0.88637 0.0
C1530 C 0.8463 0.49131 0.87203 0.0
H1531 H 0.91174 0.52289 0.80819 0.0
H1532 H 0.88682 0.52127 0.82912 0.0
H1533 H 0.88675 0.4725 0.863 0.0
H1534 H 0.81118 0.46426 0.91562 0.0
H1535 H 0.8323 0.46314 0.89076 0.0
C1536 C 0.48404 0.08777 0.18176 0.0
C1537 C 0.50005 0.08063 0.1886 0.0
C1538 C 0.48437 0.10211 0.16977 0.0
C1539 C 0.51304 0.12303 0.13622 0.0
H1540 H 0.47941 0.16246 0.13945 0.0
C1541 C 0.51458 0.18161 0.08614 0.0
C1542 C 0.49799 0.18772 0.07978 0.0
C1543 C 0.51543 0.16977 0.10059 0.0
C1544 C 0.48878 0.15146 0.13828 0.0
H1545 H 0.52895 0.08337 0.18866 0.0
H1546 H 0.52951 0.10826 0.16746 0.0
H1547 H 0.4798 0.13952 0.16276 0.0
H1548 H 0.46928 0.18632 0.08351 0.0
H1549 H 0.47069 0.16541 0.10857 0.0
H1550 H 0.52174 0.1346 0.11155 0.0
C1551 C 0.51673 0.10263 0.17131 0.0
C1552 C 0.48903 0.13837 0.15165 0.0
C1553 C 0.5164 0.08835 0.1834 0.0
C1554 C 0.48226 0.18197 0.08828 0.0
C1555 C 0.48309 0.17003 0.10266 0.0
C1556 C 0.51273 0.13605 0.12281 0.0
C1557 C 0.50073 0.10954 0.16428 0.0
C1558 C 0.50107 0.12397 0.15067 0.0
C1559 C 0.49968 0.1637 0.1089 0.0
C1560 C 0.50051 0.15035 0.12361 0.0
H1561 H 0.47123 0.08197 0.18526 0.0
H1562 H 0.47185 0.10702 0.16437 0.0
H1563 H 0.52229 0.11193 0.13499 0.0
H1564 H 0.52693 0.18605 0.07999 0.0
H1565 H 0.52843 0.1654 0.10527 0.0
C1566 C 0.90076 0.48243 0.18408 0.0
C1567 C 0.90936 0.49819 0.18962 0.0
C1568 C 0.88589 0.48327 0.1728 0.0
C1569 C 0.86466 0.51328 0.1398 0.0
H1570 H 0.82603 0.47871 0.14243 0.0
C1571 C 0.80508 0.51486 0.09092 0.0
C1572 C 0.80133 0.4984 0.08264 0.0
C1573 C 0.81648 0.51559 0.10571 0.0
C1574 C 0.83675 0.48843 0.14156 0.0
H1575 H 0.90874 0.52718 0.18846 0.0
H1576 H 0.88254 0.5287 0.16903 0.0
H1577 H 0.84916 0.47884 0.16553 0.0
H1578 H 0.80591 0.46975 0.08371 0.0
H1579 H 0.82587 0.47104 0.10958 0.0
H1580 H 0.85228 0.52279 0.11578 0.0
C1581 C 0.88753 0.51567 0.173 0.0
C1582 C 0.85002 0.48848 0.15473 0.0
C1583 C 0.90249 0.51482 0.18414 0.0
C1584 C 0.80873 0.48263 0.08975 0.0
C1585 C 0.81999 0.48335 0.10464 0.0
C1586 C 0.85132 0.51332 0.12673 0.0
C1587 C 0.87922 0.4999 0.16694 0.0
C1588 C 0.86429 0.50073 0.15384 0.0
C1589 C 0.82419 0.49986 0.1126 0.0
C1590 C 0.83739 0.50073 0.12734 0.0
H1591 H 0.9059 0.46943 0.18797 0.0
H1592 H 0.88002 0.47085 0.16818 0.0
H1593 H 0.87559 0.5227 0.1385 0.0
H1594 H 0.79963 0.52722 0.08563 0.0
H1595 H 0.81941 0.52848 0.11167 0.0
C1596 C 0.50772 0.81293 0.0855 0.0
C1597 C 0.49403 0.81186 0.07265 0.0
C1598 C 0.5066 0.82524 0.09951 0.0
C1599 C 0.48432 0.86741 0.11226 0.0
H1600 H 0.49986 0.85449 0.16011 0.0
C1601 C 0.47466 0.9146 0.17235 0.0
C1602 C 0.48955 0.9168 0.18363 0.0
C1603 C 0.47445 0.90107 0.15947 0.0
C1604 C 0.49558 0.85831 0.14679 0.0
H1605 H 0.46824 0.82248 0.06466 0.0
H1606 H 0.46621 0.84389 0.08918 0.0
H1607 H 0.50097 0.83223 0.13623 0.0
H1608 H 0.51582 0.9064 0.19034 0.0
H1609 H 0.51539 0.88271 0.16792 0.0
H1610 H 0.47897 0.89348 0.1228 0.0
C1611 C 0.47798 0.83548 0.08823 0.0
C1612 C 0.49625 0.84559 0.13311 0.0
C1613 C 0.47913 0.82323 0.07419 0.0
C1614 C 0.50405 0.90491 0.18202 0.0
C1615 C 0.50381 0.89135 0.16917 0.0
C1616 C 0.4836 0.88009 0.12594 0.0
C1617 C 0.49174 0.83668 0.10101 0.0
C1618 C 0.4907 0.85003 0.11567 0.0
C1619 C 0.48909 0.88942 0.15764 0.0
C1620 C 0.4893 0.8757 0.14332 0.0
H1621 H 0.51944 0.80446 0.08453 0.0
H1622 H 0.51755 0.82602 0.10898 0.0
H1623 H 0.48022 0.87135 0.09892 0.0
H1624 H 0.46316 0.92335 0.17347 0.0
H1625 H 0.4628 0.89971 0.15094 0.0
C1626 C 0.18003 0.48976 0.08712 0.0
C1627 C 0.18341 0.50452 0.07595 0.0
C1628 C 0.16872 0.49145 0.10187 0.0
C1629 C 0.13136 0.51852 0.11832 0.0
H1630 H 0.14101 0.49419 0.16321 0.0
C1631 C 0.08182 0.52157 0.17717 0.0
C1632 C 0.07804 0.50505 0.18539 0.0
C1633 C 0.09628 0.52323 0.16546 0.0
C1634 C 0.13811 0.501 0.15073 0.0
H1635 H 0.1781 0.53279 0.07184 0.0
H1636 H 0.15823 0.53571 0.09759 0.0
H1637 H 0.16349 0.49392 0.1395 0.0
H1638 H 0.08695 0.47757 0.18841 0.0
H1639 H 0.1119 0.48034 0.16766 0.0
H1640 H 0.10584 0.52523 0.1293 0.0
C1641 C 0.16416 0.52278 0.09478 0.0
C1642 C 0.15097 0.50084 0.13717 0.0
C1643 C 0.17549 0.52109 0.08002 0.0
C1644 C 0.08936 0.4904 0.18208 0.0
C1645 C 0.1038 0.49206 0.17037 0.0
C1646 C 0.1185 0.51866 0.13185 0.0
C1647 C 0.16054 0.50794 0.10577 0.0
C1648 C 0.1476 0.50936 0.12073 0.0
C1649 C 0.10726 0.50842 0.16173 0.0
C1650 C 0.12162 0.50966 0.14809 0.0
H1651 H 0.18575 0.47676 0.0842 0.0
H1652 H 0.16596 0.4797 0.10992 0.0
H1653 H 0.12828 0.52501 0.10572 0.0
H1654 H 0.07329 0.53308 0.17937 0.0
H1655 H 0.09873 0.53607 0.15915 0.0
C1656 C 0.81101 0.90512 0.50574 0.0
C1657 C 0.80679 0.91579 0.49082 0.0
C1658 C 0.82231 0.89035 0.50396 0.0
C1659 C 0.85824 0.87294 0.47557 0.0
H1660 H 0.84967 0.82882 0.50165 0.0
C1661 C 0.90735 0.81365 0.47191 0.0
C1662 C 0.91193 0.80599 0.48848 0.0
C1663 C 0.89288 0.8254 0.47057 0.0
C1664 C 0.85227 0.84108 0.49435 0.0
H1665 H 0.81068 0.919 0.46221 0.0
H1666 H 0.83054 0.89325 0.45913 0.0
H1667 H 0.82732 0.85266 0.50236 0.0
H1668 H 0.90442 0.80395 0.51645 0.0
H1669 H 0.87943 0.82474 0.51422 0.0
H1670 H 0.88335 0.8616 0.46792 0.0
C1671 C 0.82526 0.89646 0.47224 0.0
C1672 C 0.83949 0.85472 0.49475 0.0
C1673 C 0.81393 0.91122 0.47402 0.0
C1674 C 0.90138 0.80986 0.50355 0.0
C1675 C 0.88692 0.82159 0.50222 0.0
C1676 C 0.87102 0.85932 0.47519 0.0
C1677 C 0.82966 0.88595 0.48722 0.0
C1678 C 0.84247 0.87089 0.4856 0.0
C1679 C 0.88267 0.8297 0.48577 0.0
C1680 C 0.86831 0.84337 0.4848 0.0
H1681 H 0.80592 0.90843 0.5189 0.0
H1682 H 0.8257 0.88268 0.5158 0.0
H1683 H 0.86102 0.88533 0.46857 0.0
H1684 H 0.91528 0.811 0.46007 0.0
H1685 H 0.8898 0.8313 0.45767 0.0
C1686 C 0.90012 0.186 0.50645 0.0
C1687 C 0.91164 0.18786 0.49172 0.0
C1688 C 0.8854 0.17452 0.50555 0.0
C1689 C 0.86903 0.13517 0.48067 0.0
H1690 H 0.8241 0.14625 0.50413 0.0
C1691 C 0.80858 0.08798 0.47601 0.0
C1692 C 0.80037 0.08379 0.49241 0.0
C1693 C 0.82072 0.10213 0.47485 0.0
C1694 C 0.8366 0.14298 0.49757 0.0
H1695 H 0.91643 0.17982 0.46427 0.0
H1696 H 0.89058 0.15999 0.46256 0.0
H1697 H 0.84814 0.16842 0.50397 0.0
H1698 H 0.79777 0.09163 0.52023 0.0
H1699 H 0.81913 0.1163 0.51823 0.0
H1700 H 0.85756 0.10973 0.47436 0.0
C1701 C 0.89314 0.16702 0.47497 0.0
C1702 C 0.85037 0.15563 0.49751 0.0
C1703 C 0.90793 0.17838 0.47593 0.0
C1704 C 0.80405 0.09445 0.50746 0.0
C1705 C 0.81613 0.10866 0.50628 0.0
C1706 C 0.85525 0.12259 0.48064 0.0
C1707 C 0.88183 0.16478 0.48984 0.0
C1708 C 0.86681 0.1518 0.4892 0.0
C1709 C 0.82483 0.11242 0.49004 0.0
C1710 C 0.83895 0.1263 0.48921 0.0
H1711 H 0.90277 0.19304 0.51884 0.0
H1712 H 0.87712 0.17292 0.51733 0.0
H1713 H 0.88162 0.13162 0.47444 0.0
H1714 H 0.80611 0.07993 0.46421 0.0
H1715 H 0.8271 0.10485 0.46212 0.0
C1716 C 0.08713 0.80853 0.47713 0.0
C1717 C 0.08054 0.80282 0.49379 0.0
C1718 C 0.10208 0.8197 0.4762 0.0
C1719 C 0.14017 0.83728 0.50296 0.0
H1720 H 0.13763 0.87679 0.4693 0.0
C1721 C 0.18272 0.90144 0.5088 0.0
C1722 C 0.18972 0.9088 0.49296 0.0
C1723 C 0.1712 0.88675 0.50813 0.0
C1724 C 0.13867 0.86567 0.47858 0.0
H1725 H 0.08444 0.80414 0.5225 0.0
H1726 H 0.11031 0.82393 0.52094 0.0
H1727 H 0.11406 0.85433 0.46954 0.0
H1728 H 0.1904 0.9064 0.46404 0.0
H1729 H 0.17023 0.88068 0.46288 0.0
H1730 H 0.16454 0.8491 0.51236 0.0
C1731 C 0.10422 0.81949 0.50856 0.0
C1732 C 0.12518 0.85277 0.47871 0.0
C1733 C 0.08937 0.8082 0.50948 0.0
C1734 C 0.1853 0.90092 0.47647 0.0
C1735 C 0.17366 0.88632 0.47579 0.0
C1736 C 0.15361 0.85028 0.50291 0.0
C1737 C 0.11064 0.82553 0.49191 0.0
C1738 C 0.12566 0.83852 0.49103 0.0
C1739 C 0.16634 0.87922 0.4916 0.0
C1740 C 0.15288 0.8647 0.49084 0.0
H1741 H 0.08072 0.80436 0.46482 0.0
H1742 H 0.10687 0.82383 0.46315 0.0
H1743 H 0.14111 0.82631 0.51241 0.0
H1744 H 0.18605 0.90716 0.5217 0.0
H1745 H 0.16564 0.88165 0.52051 0.0
C1746 C 0.078 0.17487 0.51784 0.0
C1747 C 0.07502 0.18438 0.50187 0.0
C1748 C 0.09221 0.1628 0.51919 0.0
C1749 C 0.13497 0.14969 0.4978 0.0
H1750 H 0.12539 0.10378 0.52015 0.0
C1751 C 0.17964 0.08755 0.48784 0.0
C1752 C 0.18271 0.07641 0.5027 0.0
C1753 C 0.16771 0.10189 0.48903 0.0
C1754 C 0.12837 0.11663 0.51411 0.0
H1755 H 0.08459 0.18876 0.47482 0.0
H1756 H 0.10928 0.16756 0.47709 0.0
H1757 H 0.10224 0.12671 0.51984 0.0
H1758 H 0.17592 0.0717 0.53053 0.0
H1759 H 0.15517 0.09687 0.53265 0.0
H1760 H 0.16101 0.13938 0.49173 0.0
C1761 C 0.10085 0.16966 0.48869 0.0
C1762 C 0.11511 0.12978 0.51394 0.0
C1763 C 0.08669 0.18177 0.48737 0.0
C1764 C 0.1739 0.08012 0.51889 0.0
C1765 C 0.16191 0.09442 0.52006 0.0
C1766 C 0.14823 0.1365 0.49793 0.0
C1767 C 0.1037 0.15994 0.50457 0.0
C1768 C 0.11819 0.1464 0.50563 0.0
C1769 C 0.15856 0.10534 0.50509 0.0
C1770 C 0.14499 0.11977 0.50593 0.0
H1771 H 0.0694 0.17683 0.52933 0.0
H1772 H 0.09422 0.15574 0.5317 0.0
H1773 H 0.13787 0.16246 0.49155 0.0
H1774 H 0.1864 0.08514 0.47525 0.0
H1775 H 0.16529 0.10997 0.47722 0.0
loop_
_geom_bond_atom_site_label_1
_geom_bond_atom_site_label_2
_geom_bond_distance
_geom_bond_site_symmetry_2
_ccdc_geom_bond_type
Li0 N17 1.990 . S
Li0 O60 1.956 . S
Li0 O61 1.971 . S
Li0 O62 1.950 1_655 S
Li1 N25 1.991 . S
Li1 O60 1.955 1_455 S
Li1 O61 1.956 1_455 S
Li1 O63 1.976 . S
Li2 N47 1.990 . S
Li2 O60 1.966 . S
Li2 O62 1.956 1_655 S
Li2 O63 1.965 1_655 S
Li3 N53 1.990 . S
Li3 O61 1.960 1_455 S
Li3 O62 1.981 . S
Li3 O63 1.956 . S
C4 C6 1.348 . S
C4 C7 1.356 . S
C4 O60 1.325 . S
N5 C8 1.314 . S
N5 C9 1.279 . S
C6 C4 1.348 . S
C6 C8 1.353 . S
C6 H64 0.929 . S
C7 C4 1.356 . S
C7 C9 1.358 . S
C7 H65 0.930 . S
C8 N5 1.314 . S
C8 C6 1.353 . S
C8 H66 0.930 . S
C9 N5 1.279 . S
C9 C7 1.358 . S
C9 H67 0.930 . S
C10 C13 1.345 1_455 S
C10 C14 1.359 . S
C10 O61 1.325 1_455 S
C11 N12 1.327 . S
C11 C14 1.358 . S
C11 H68 0.930 . S
N12 C11 1.327 . S
N12 C15 1.267 1_455 S
C13 C10 1.345 1_655 S
C13 C15 1.353 . S
C13 H69 0.929 . S
C14 C10 1.359 . S
C14 C11 1.358 . S
C14 H70 0.930 . S
C15 N12 1.267 1_655 S
C15 C13 1.353 . S
C15 H71 0.930 . S
C16 N17 1.314 . S
C16 C21 1.353 . S
C16 H22 0.930 . S
N17 Li0 1.990 . S
N17 C16 1.314 . S
N17 C19 1.279 . S
C18 C19 1.358 . S
C18 C20 1.356 . S
C18 H72 0.930 . S
C19 N17 1.279 . S
C19 C18 1.358 . S
C19 H23 0.930 . S
C20 C18 1.356 . S
C20 C21 1.348 . S
C21 C16 1.353 . S
C21 C20 1.348 . S
C21 H73 0.929 . S
H22 C16 0.930 . S
H23 C19 0.930 . S
C24 N25 1.314 . S
C24 C26 1.353 . S
C24 H30 0.930 . S
N25 Li1 1.991 . S
N25 C24 1.314 . S
N25 C28 1.279 1_455 S
C26 C24 1.353 . S
C26 C29 1.346 . S
C26 H74 0.929 . S
C27 C28 1.358 . S
C27 C29 1.357 1_655 S
C27 H75 0.930 . S
C28 N25 1.279 1_655 S
C28 C27 1.358 . S
C28 H31 0.930 . S
C29 C26 1.346 . S
C29 C27 1.357 1_455 S
H30 C24 0.930 . S
H31 C28 0.930 . S
C32 C34 1.345 . S
C32 C35 1.359 1_455 S
C32 O62 1.325 . S
N33 C36 1.279 1_655 S
N33 C37 1.315 . S
C34 C32 1.345 . S
C34 C36 1.353 . S
C34 H76 0.929 . S
C35 C32 1.359 1_655 S
C35 C37 1.358 . S
C35 H77 0.930 . S
C36 N33 1.279 1_455 S
C36 C34 1.353 . S
C36 H78 0.930 . S
C37 N33 1.315 . S
C37 C35 1.358 . S
C37 H79 0.930 . S
C38 C39 1.348 . S
C38 C40 1.356 . S
C38 O63 1.325 . S
C39 C38 1.348 . S
C39 C41 1.353 . S
C39 H80 0.929 . S
C40 C38 1.356 . S
C40 C42 1.358 . S
C40 H81 0.930 . S
C41 C39 1.353 . S
C41 N43 1.314 . S
C41 H82 0.930 . S
C42 C40 1.358 . S
C42 N43 1.279 . S
C42 H83 0.930 . S
N43 C41 1.314 . S
N43 C42 1.279 . S
C44 C46 1.353 . S
C44 N47 1.314 . S
C44 H50 0.930 . S
C45 N47 1.279 1_455 S
C45 C48 1.358 . S
C45 H51 0.930 . S
C46 C44 1.353 . S
C46 C49 1.346 1_655 S
C46 H84 0.929 . S
N47 Li2 1.990 . S
N47 C44 1.314 . S
N47 C45 1.279 1_655 S
C48 C45 1.358 . S
C48 C49 1.357 . S
C48 H85 0.930 . S
C49 C46 1.346 1_455 S
C49 C48 1.357 . S
H50 C44 0.930 . S
H51 C45 0.930 . S
C52 N53 1.314 . S
C52 C54 1.353 . S
C52 H58 0.930 . S
N53 Li3 1.990 . S
N53 C52 1.314 . S
N53 C56 1.279 . S
C54 C52 1.353 . S
C54 C57 1.348 . S
C54 H86 0.929 . S
C55 C56 1.358 . S
C55 C57 1.356 . S
C55 H87 0.930 . S
C56 N53 1.279 . S
C56 C55 1.358 . S
C56 H59 0.930 . S
C57 C54 1.348 . S
C57 C55 1.356 . S
H58 C52 0.930 . S
H59 C56 0.930 . S
O60 Li0 1.956 . S
O60 Li1 1.955 1_655 S
O60 Li2 1.966 . S
O60 C4 1.325 . S
O61 Li0 1.971 . S
O61 Li1 1.956 1_655 S
O61 Li3 1.960 1_655 S
O61 C10 1.325 1_655 S
O62 Li0 1.950 1_455 S
O62 Li2 1.956 1_455 S
O62 Li3 1.981 . S
O62 C32 1.325 . S
O63 Li1 1.976 . S
O63 Li2 1.965 1_455 S
O63 Li3 1.956 . S
O63 C38 1.325 . S
H64 C6 0.929 . S
H65 C7 0.930 . S
H66 C8 0.930 . S
H67 C9 0.930 . S
H68 C11 0.930 . S
H69 C13 0.929 . S
H70 C14 0.930 . S
H71 C15 0.930 . S
H72 C18 0.930 . S
H73 C21 0.929 . S
H74 C26 0.929 . S
H75 C27 0.930 . S
H76 C34 0.929 . S
H77 C35 0.930 . S
H78 C36 0.930 . S
H79 C37 0.930 . S
H80 C39 0.929 . S
H81 C40 0.930 . S
H82 C41 0.930 . S
H83 C42 0.930 . S
H84 C46 0.929 . S
H85 C48 0.930 . S
H86 C54 0.929 . S
H87 C55 0.930 . S
Li88 N105 1.991 . S
Li88 O148 1.956 1_545 S
Li88 O149 1.955 1_545 S
Li88 O150 1.976 . S
Li89 N113 1.990 . S
Li89 O148 1.971 . S
Li89 O149 1.956 . S
Li89 O151 1.950 1_565 S
Li90 N135 1.990 . S
Li90 O148 1.960 1_545 S
Li90 O150 1.956 . S
Li90 O151 1.981 . S
Li91 N141 1.990 . S
Li91 O149 1.966 . S
Li91 O150 1.965 1_565 S
Li91 O151 1.956 1_565 S
C92 C94 1.345 1_545 S
C92 C95 1.359 . S
C92 O148 1.325 1_545 S
N93 C96 1.267 1_545 S
N93 C97 1.327 . S
C94 C92 1.345 1_565 S
C94 C96 1.353 . S
C94 H152 0.929 . S
C95 C92 1.359 . S
C95 C97 1.358 . S
C95 H153 0.930 . S
C96 N93 1.267 1_565 S
C96 C94 1.353 . S
C96 H154 0.930 . S
C97 N93 1.327 . S
C97 C95 1.358 . S
C97 H155 0.930 . S
C98 C101 1.348 . S
C98 C102 1.356 . S
C98 O149 1.325 . S
C99 N100 1.279 . S
C99 C102 1.358 . S
C99 H156 0.930 . S
N100 C99 1.279 . S
N100 C103 1.314 . S
C101 C98 1.348 . S
C101 C103 1.353 . S
C101 H157 0.929 . S
C102 C98 1.356 . S
C102 C99 1.358 . S
C102 H158 0.930 . S
C103 N100 1.314 . S
C103 C101 1.353 . S
C103 H159 0.930 . S
C104 N105 1.314 . S
C104 C109 1.353 . S
C104 H110 0.930 . S
N105 Li88 1.991 . S
N105 C104 1.314 . S
N105 C107 1.279 1_545 S
C106 C107 1.358 . S
C106 C108 1.357 1_565 S
C106 H160 0.930 . S
C107 N105 1.279 1_565 S
C107 C106 1.358 . S
C107 H111 0.930 . S
C108 C106 1.357 1_545 S
C108 C109 1.346 . S
C109 C104 1.353 . S
C109 C108 1.346 . S
C109 H161 0.929 . S
H110 C104 0.930 . S
H111 C107 0.930 . S
C112 N113 1.314 . S
C112 C114 1.353 . S
C112 H118 0.930 . S
N113 Li89 1.990 . S
N113 C112 1.314 . S
N113 C116 1.279 . S
C114 C112 1.353 . S
C114 C117 1.348 . S
C114 H162 0.929 . S
C115 C116 1.358 . S
C115 C117 1.356 . S
C115 H163 0.930 . S
C116 N113 1.279 . S
C116 C115 1.358 . S
C116 H119 0.930 . S
C117 C114 1.348 . S
C117 C115 1.356 . S
H118 C112 0.930 . S
H119 C116 0.930 . S
C120 C122 1.348 . S
C120 C123 1.356 . S
C120 O150 1.325 . S
N121 C124 1.314 . S
N121 C125 1.279 . S
C122 C120 1.348 . S
C122 C124 1.353 . S
C122 H164 0.929 . S
C123 C120 1.356 . S
C123 C125 1.358 . S
C123 H165 0.930 . S
C124 N121 1.314 . S
C124 C122 1.353 . S
C124 H166 0.930 . S
C125 N121 1.279 . S
C125 C123 1.358 . S
C125 H167 0.930 . S
C126 C127 1.345 . S
C126 C128 1.359 1_545 S
C126 O151 1.325 . S
C127 C126 1.345 . S
C127 C129 1.353 . S
C127 H168 0.929 . S
C128 C126 1.359 1_565 S
C128 C130 1.358 . S
C128 H169 0.930 . S
C129 C127 1.353 . S
C129 N131 1.279 1_545 S
C129 H170 0.930 . S
C130 C128 1.358 . S
C130 N131 1.315 . S
C130 H171 0.930 . S
N131 C129 1.279 1_565 S
N131 C130 1.315 . S
C132 C134 1.353 . S
C132 N135 1.314 . S
C132 H138 0.930 . S
C133 N135 1.279 . S
C133 C136 1.358 . S
C133 H139 0.930 . S
C134 C132 1.353 . S
C134 C137 1.348 . S
C134 H172 0.929 . S
N135 Li90 1.990 . S
N135 C132 1.314 . S
N135 C133 1.279 . S
C136 C133 1.358 . S
C136 C137 1.356 . S
C136 H173 0.930 . S
C137 C134 1.348 . S
C137 C136 1.356 . S
H138 C132 0.930 . S
H139 C133 0.930 . S
C140 N141 1.314 . S
C140 C142 1.353 . S
C140 H146 0.930 . S
N141 Li91 1.990 . S
N141 C140 1.314 . S
N141 C144 1.279 1_565 S
C142 C140 1.353 . S
C142 C145 1.346 1_565 S
C142 H174 0.929 . S
C143 C144 1.358 . S
C143 C145 1.357 . S
C143 H175 0.930 . S
C144 N141 1.279 1_545 S
C144 C143 1.358 . S
C144 H147 0.930 . S
C145 C142 1.346 1_545 S
C145 C143 1.357 . S
H146 C140 0.930 . S
H147 C144 0.930 . S
O148 Li88 1.956 1_565 S
O148 Li89 1.971 . S
O148 Li90 1.960 1_565 S
O148 C92 1.325 1_565 S
O149 Li88 1.955 1_565 S
O149 Li89 1.956 . S
O149 Li91 1.966 . S
O149 C98 1.325 . S
O150 Li88 1.976 . S
O150 Li90 1.956 . S
O150 Li91 1.965 1_545 S
O150 C120 1.325 . S
O151 Li89 1.950 1_545 S
O151 Li90 1.981 . S
O151 Li91 1.956 1_545 S
O151 C126 1.325 . S
H152 C94 0.929 . S
H153 C95 0.930 . S
H154 C96 0.930 . S
H155 C97 0.930 . S
H156 C99 0.930 . S
H157 C101 0.929 . S
H158 C102 0.930 . S
H159 C103 0.930 . S
H160 C106 0.930 . S
H161 C109 0.929 . S
H162 C114 0.929 . S
H163 C115 0.930 . S
H164 C122 0.929 . S
H165 C123 0.930 . S
H166 C124 0.930 . S
H167 C125 0.930 . S
H168 C127 0.929 . S
H169 C128 0.930 . S
H170 C129 0.930 . S
H171 C130 0.930 . S
H172 C134 0.929 . S
H173 C136 0.930 . S
H174 C142 0.929 . S
H175 C143 0.930 . S
Li176 N193 1.990 . S
Li176 O236 1.956 . S
Li176 O237 1.981 . S
Li176 O238 1.960 1_455 S
Li177 N201 1.990 . S
Li177 O236 1.965 1_655 S
Li177 O237 1.956 1_655 S
Li177 O239 1.966 . S
Li178 N223 1.991 . S
Li178 O236 1.976 . S
Li178 O238 1.956 1_455 S
Li178 O239 1.955 1_455 S
Li179 N229 1.990 . S
Li179 O237 1.950 1_655 S
Li179 O238 1.971 . S
Li179 O239 1.956 . S
C180 C182 1.348 . S
C180 C183 1.356 . S
C180 O236 1.325 . S
N181 C184 1.314 . S
N181 C185 1.279 . S
C182 C180 1.348 . S
C182 C184 1.353 . S
C182 H240 0.929 . S
C183 C180 1.356 . S
C183 C185 1.358 . S
C183 H241 0.930 . S
C184 N181 1.314 . S
C184 C182 1.353 . S
C184 H242 0.930 . S
C185 N181 1.279 . S
C185 C183 1.358 . S
C185 H243 0.930 . S
C186 C189 1.345 . S
C186 C190 1.359 1_455 S
C186 O237 1.325 . S
C187 N188 1.315 . S
C187 C190 1.358 . S
C187 H244 0.930 . S
N188 C187 1.315 . S
N188 C191 1.279 1_655 S
C189 C186 1.345 . S
C189 C191 1.353 . S
C189 H245 0.929 . S
C190 C186 1.359 1_655 S
C190 C187 1.358 . S
C190 H246 0.930 . S
C191 N188 1.279 1_455 S
C191 C189 1.353 . S
C191 H247 0.930 . S
C192 N193 1.314 . S
C192 C197 1.353 . S
C192 H198 0.930 . S
N193 Li176 1.990 . S
N193 C192 1.314 . S
N193 C195 1.279 . S
C194 C195 1.358 . S
C194 C196 1.356 . S
C194 H248 0.930 . S
C195 N193 1.279 . S
C195 C194 1.358 . S
C195 H199 0.930 . S
C196 C194 1.356 . S
C196 C197 1.348 . S
C197 C192 1.353 . S
C197 C196 1.348 . S
C197 H249 0.929 . S
H198 C192 0.930 . S
H199 C195 0.930 . S
C200 N201 1.314 . S
C200 C202 1.353 . S
C200 H206 0.930 . S
N201 Li177 1.990 . S
N201 C200 1.314 . S
N201 C204 1.279 1_655 S
C202 C200 1.353 . S
C202 C205 1.346 1_655 S
C202 H250 0.929 . S
C203 C204 1.358 . S
C203 C205 1.357 . S
C203 H251 0.930 . S
C204 N201 1.279 1_455 S
C204 C203 1.358 . S
C204 H207 0.930 . S
C205 C202 1.346 1_455 S
C205 C203 1.357 . S
H206 C200 0.930 . S
H207 C204 0.930 . S
C208 C210 1.345 1_455 S
C208 C211 1.359 . S
C208 O238 1.325 1_455 S
N209 C212 1.267 1_455 S
N209 C213 1.327 . S
C210 C208 1.345 1_655 S
C210 C212 1.353 . S
C210 H252 0.929 . S
C211 C208 1.359 . S
C211 C213 1.358 . S
C211 H253 0.930 . S
C212 N209 1.267 1_655 S
C212 C210 1.353 . S
C212 H254 0.930 . S
C213 N209 1.327 . S
C213 C211 1.358 . S
C213 H255 0.930 . S
C214 C215 1.348 . S
C214 C216 1.356 . S
C214 O239 1.325 . S
C215 C214 1.348 . S
C215 C217 1.353 . S
C215 H256 0.929 . S
C216 C214 1.356 . S
C216 C218 1.358 . S
C216 H257 0.930 . S
C217 C215 1.353 . S
C217 N219 1.314 . S
C217 H258 0.930 . S
C218 C216 1.358 . S
C218 N219 1.279 . S
C218 H259 0.930 . S
N219 C217 1.314 . S
N219 C218 1.279 . S
C220 C222 1.353 . S
C220 N223 1.314 . S
C220 H226 0.930 . S
C221 N223 1.279 1_655 S
C221 C224 1.358 . S
C221 H227 0.930 . S
C222 C220 1.353 . S
C222 C225 1.346 . S
C222 H260 0.929 . S
N223 Li178 1.991 . S
N223 C220 1.314 . S
N223 C221 1.279 1_455 S
C224 C221 1.358 . S
C224 C225 1.357 1_655 S
C224 H261 0.930 . S
C225 C222 1.346 . S
C225 C224 1.357 1_455 S
H226 C220 0.930 . S
H227 C221 0.930 . S
C228 N229 1.314 . S
C228 C230 1.353 . S
C228 H234 0.930 . S
N229 Li179 1.990 . S
N229 C228 1.314 . S
N229 C232 1.279 . S
C230 C228 1.353 . S
C230 C233 1.348 . S
C230 H262 0.929 . S
C231 C232 1.358 . S
C231 C233 1.356 . S
C231 H263 0.930 . S
C232 N229 1.279 . S
C232 C231 1.358 . S
C232 H235 0.930 . S
C233 C230 1.348 . S
C233 C231 1.356 . S
H234 C228 0.930 . S
H235 C232 0.930 . S
O236 Li176 1.956 . S
O236 Li177 1.965 1_455 S
O236 Li178 1.976 . S
O236 C180 1.325 . S
O237 Li176 1.981 . S
O237 Li177 1.956 1_455 S
O237 Li179 1.950 1_455 S
O237 C186 1.325 . S
O238 Li176 1.960 1_655 S
O238 Li178 1.956 1_655 S
O238 Li179 1.971 . S
O238 C208 1.325 1_655 S
O239 Li177 1.966 . S
O239 Li178 1.955 1_655 S
O239 Li179 1.956 . S
O239 C214 1.325 . S
H240 C182 0.929 . S
H241 C183 0.930 . S
H242 C184 0.930 . S
H243 C185 0.930 . S
H244 C187 0.930 . S
H245 C189 0.929 . S
H246 C190 0.930 . S
H247 C191 0.930 . S
H248 C194 0.930 . S
H249 C197 0.929 . S
H250 C202 0.929 . S
H251 C203 0.930 . S
H252 C210 0.929 . S
H253 C211 0.930 . S
H254 C212 0.930 . S
H255 C213 0.930 . S
H256 C215 0.929 . S
H257 C216 0.930 . S
H258 C217 0.930 . S
H259 C218 0.930 . S
H260 C222 0.929 . S
H261 C224 0.930 . S
H262 C230 0.929 . S
H263 C231 0.930 . S
Li264 N281 1.990 . S
Li264 O324 1.956 . S
Li264 O325 1.981 . S
Li264 O326 1.960 1_545 S
Li265 N289 1.990 . S
Li265 O324 1.965 1_565 S
Li265 O325 1.956 1_565 S
Li265 O327 1.966 . S
Li266 N311 1.991 . S
Li266 O324 1.976 . S
Li266 O326 1.956 1_545 S
Li266 O327 1.955 1_545 S
Li267 N317 1.990 . S
Li267 O325 1.950 1_565 S
Li267 O326 1.971 . S
Li267 O327 1.956 . S
C268 C270 1.348 . S
C268 C271 1.356 . S
C268 O324 1.325 . S
N269 C272 1.314 . S
N269 C273 1.279 . S
C270 C268 1.348 . S
C270 C272 1.353 . S
C270 H328 0.929 . S
C271 C268 1.356 . S
C271 C273 1.358 . S
C271 H329 0.930 . S
C272 N269 1.314 . S
C272 C270 1.353 . S
C272 H330 0.930 . S
C273 N269 1.279 . S
C273 C271 1.358 . S
C273 H331 0.930 . S
C274 C277 1.345 . S
C274 C278 1.359 1_545 S
C274 O325 1.325 . S
C275 N276 1.315 . S
C275 C278 1.358 . S
C275 H332 0.930 . S
N276 C275 1.315 . S
N276 C279 1.279 1_565 S
C277 C274 1.345 . S
C277 C279 1.353 . S
C277 H333 0.929 . S
C278 C274 1.359 1_565 S
C278 C275 1.358 . S
C278 H334 0.930 . S
C279 N276 1.279 1_545 S
C279 C277 1.353 . S
C279 H335 0.930 . S
C280 N281 1.314 . S
C280 C285 1.353 . S
C280 H286 0.930 . S
N281 Li264 1.990 . S
N281 C280 1.314 . S
N281 C283 1.279 . S
C282 C283 1.358 . S
C282 C284 1.356 . S
C282 H336 0.930 . S
C283 N281 1.279 . S
C283 C282 1.358 . S
C283 H287 0.930 . S
C284 C282 1.356 . S
C284 C285 1.348 . S
C285 C280 1.353 . S
C285 C284 1.348 . S
C285 H337 0.929 . S
H286 C280 0.930 . S
H287 C283 0.930 . S
C288 N289 1.314 . S
C288 C290 1.353 . S
C288 H294 0.930 . S
N289 Li265 1.990 . S
N289 C288 1.314 . S
N289 C292 1.279 1_565 S
C290 C288 1.353 . S
C290 C293 1.346 1_565 S
C290 H338 0.929 . S
C291 C292 1.358 . S
C291 C293 1.357 . S
C291 H339 0.930 . S
C292 N289 1.279 1_545 S
C292 C291 1.358 . S
C292 H295 0.930 . S
C293 C290 1.346 1_545 S
C293 C291 1.357 . S
H294 C288 0.930 . S
H295 C292 0.930 . S
C296 C298 1.345 1_545 S
C296 C299 1.359 . S
C296 O326 1.325 1_545 S
N297 C300 1.267 1_545 S
N297 C301 1.327 . S
C298 C296 1.345 1_565 S
C298 C300 1.353 . S
C298 H340 0.929 . S
C299 C296 1.359 . S
C299 C301 1.358 . S
C299 H341 0.930 . S
C300 N297 1.267 1_565 S
C300 C298 1.353 . S
C300 H342 0.930 . S
C301 N297 1.327 . S
C301 C299 1.358 . S
C301 H343 0.930 . S
C302 C303 1.348 . S
C302 C304 1.356 . S
C302 O327 1.325 . S
C303 C302 1.348 . S
C303 C305 1.353 . S
C303 H344 0.929 . S
C304 C302 1.356 . S
C304 C306 1.358 . S
C304 H345 0.930 . S
C305 C303 1.353 . S
C305 N307 1.314 . S
C305 H346 0.930 . S
C306 C304 1.358 . S
C306 N307 1.279 . S
C306 H347 0.930 . S
N307 C305 1.314 . S
N307 C306 1.279 . S
C308 C310 1.353 . S
C308 N311 1.314 . S
C308 H314 0.930 . S
C309 N311 1.279 1_565 S
C309 C312 1.358 . S
C309 H315 0.930 . S
C310 C308 1.353 . S
C310 C313 1.346 . S
C310 H348 0.929 . S
N311 Li266 1.991 . S
N311 C308 1.314 . S
N311 C309 1.279 1_545 S
C312 C309 1.358 . S
C312 C313 1.357 1_565 S
C312 H349 0.930 . S
C313 C310 1.346 . S
C313 C312 1.357 1_545 S
H314 C308 0.930 . S
H315 C309 0.930 . S
C316 N317 1.314 . S
C316 C318 1.353 . S
C316 H322 0.930 . S
N317 Li267 1.990 . S
N317 C316 1.314 . S
N317 C320 1.279 . S
C318 C316 1.353 . S
C318 C321 1.348 . S
C318 H350 0.929 . S
C319 C320 1.358 . S
C319 C321 1.356 . S
C319 H351 0.930 . S
C320 N317 1.279 . S
C320 C319 1.358 . S
C320 H323 0.930 . S
C321 C318 1.348 . S
C321 C319 1.356 . S
H322 C316 0.930 . S
H323 C320 0.930 . S
O324 Li264 1.956 . S
O324 Li265 1.965 1_545 S
O324 Li266 1.976 . S
O324 C268 1.325 . S
O325 Li264 1.981 . S
O325 Li265 1.956 1_545 S
O325 Li267 1.950 1_545 S
O325 C274 1.325 . S
O326 Li264 1.960 1_565 S
O326 Li266 1.956 1_565 S
O326 Li267 1.971 . S
O326 C296 1.325 1_565 S
O327 Li265 1.966 . S
O327 Li266 1.955 1_565 S
O327 Li267 1.956 . S
O327 C302 1.325 . S
H328 C270 0.929 . S
H329 C271 0.930 . S
H330 C272 0.930 . S
H331 C273 0.930 . S
H332 C275 0.930 . S
H333 C277 0.929 . S
H334 C278 0.930 . S
H335 C279 0.930 . S
H336 C282 0.930 . S
H337 C285 0.929 . S
H338 C290 0.929 . S
H339 C291 0.930 . S
H340 C298 0.929 . S
H341 C299 0.930 . S
H342 C300 0.930 . S
H343 C301 0.930 . S
H344 C303 0.929 . S
H345 C304 0.930 . S
H346 C305 0.930 . S
H347 C306 0.930 . S
H348 C310 0.929 . S
H349 C312 0.930 . S
H350 C318 0.929 . S
H351 C319 0.930 . S
Li352 N369 1.990 . S
Li352 O412 1.956 . S
Li352 O413 1.981 . S
Li352 O414 1.960 1_545 S
Li353 N377 1.990 . S
Li353 O412 1.965 1_565 S
Li353 O413 1.956 1_565 S
Li353 O415 1.966 . S
Li354 N399 1.991 . S
Li354 O412 1.976 . S
Li354 O414 1.956 1_545 S
Li354 O415 1.955 1_545 S
Li355 N405 1.990 . S
Li355 O413 1.950 1_565 S
Li355 O414 1.971 . S
Li355 O415 1.956 . S
C356 C358 1.348 . S
C356 C359 1.356 . S
C356 O412 1.325 . S
N357 C360 1.314 . S
N357 C361 1.279 . S
C358 C356 1.348 . S
C358 C360 1.353 . S
C358 H416 0.929 . S
C359 C356 1.356 . S
C359 C361 1.358 . S
C359 H417 0.930 . S
C360 N357 1.314 . S
C360 C358 1.353 . S
C360 H418 0.930 . S
C361 N357 1.279 . S
C361 C359 1.358 . S
C361 H419 0.930 . S
C362 C365 1.345 . S
C362 C366 1.359 1_545 S
C362 O413 1.325 . S
C363 N364 1.315 . S
C363 C366 1.358 . S
C363 H420 0.930 . S
N364 C363 1.315 . S
N364 C367 1.279 1_565 S
C365 C362 1.345 . S
C365 C367 1.353 . S
C365 H421 0.929 . S
C366 C362 1.359 1_565 S
C366 C363 1.358 . S
C366 H422 0.930 . S
C367 N364 1.279 1_545 S
C367 C365 1.353 . S
C367 H423 0.930 . S
C368 N369 1.314 . S
C368 C373 1.353 . S
C368 H374 0.930 . S
N369 Li352 1.990 . S
N369 C368 1.314 . S
N369 C371 1.279 . S
C370 C371 1.358 . S
C370 C372 1.356 . S
C370 H424 0.930 . S
C371 N369 1.279 . S
C371 C370 1.358 . S
C371 H375 0.930 . S
C372 C370 1.356 . S
C372 C373 1.348 . S
C373 C368 1.353 . S
C373 C372 1.348 . S
C373 H425 0.929 . S
H374 C368 0.930 . S
H375 C371 0.930 . S
C376 N377 1.314 . S
C376 C378 1.353 . S
C376 H382 0.930 . S
N377 Li353 1.990 . S
N377 C376 1.314 . S
N377 C380 1.279 1_565 S
C378 C376 1.353 . S
C378 C381 1.346 1_565 S
C378 H426 0.929 . S
C379 C380 1.358 . S
C379 C381 1.357 . S
C379 H427 0.930 . S
C380 N377 1.279 1_545 S
C380 C379 1.358 . S
C380 H383 0.930 . S
C381 C378 1.346 1_545 S
C381 C379 1.357 . S
H382 C376 0.930 . S
H383 C380 0.930 . S
C384 C386 1.345 1_545 S
C384 C387 1.359 . S
C384 O414 1.325 1_545 S
N385 C388 1.267 1_545 S
N385 C389 1.327 . S
C386 C384 1.345 1_565 S
C386 C388 1.353 . S
C386 H428 0.929 . S
C387 C384 1.359 . S
C387 C389 1.358 . S
C387 H429 0.930 . S
C388 N385 1.267 1_565 S
C388 C386 1.353 . S
C388 H430 0.930 . S
C389 N385 1.327 . S
C389 C387 1.358 . S
C389 H431 0.930 . S
C390 C391 1.348 . S
C390 C392 1.356 . S
C390 O415 1.325 . S
C391 C390 1.348 . S
C391 C393 1.353 . S
C391 H432 0.929 . S
C392 C390 1.356 . S
C392 C394 1.358 . S
C392 H433 0.930 . S
C393 C391 1.353 . S
C393 N395 1.314 . S
C393 H434 0.930 . S
C394 C392 1.358 . S
C394 N395 1.279 . S
C394 H435 0.930 . S
N395 C393 1.314 . S
N395 C394 1.279 . S
C396 C398 1.353 . S
C396 N399 1.314 . S
C396 H402 0.930 . S
C397 N399 1.279 1_565 S
C397 C400 1.358 . S
C397 H403 0.930 . S
C398 C396 1.353 . S
C398 C401 1.346 . S
C398 H436 0.929 . S
N399 Li354 1.991 . S
N399 C396 1.314 . S
N399 C397 1.279 1_545 S
C400 C397 1.358 . S
C400 C401 1.357 1_565 S
C400 H437 0.930 . S
C401 C398 1.346 . S
C401 C400 1.357 1_545 S
H402 C396 0.930 . S
H403 C397 0.930 . S
C404 N405 1.314 . S
C404 C406 1.353 . S
C404 H410 0.930 . S
N405 Li355 1.990 . S
N405 C404 1.314 . S
N405 C408 1.279 . S
C406 C404 1.353 . S
C406 C409 1.348 . S
C406 H438 0.929 . S
C407 C408 1.358 . S
C407 C409 1.356 . S
C407 H439 0.930 . S
C408 N405 1.279 . S
C408 C407 1.358 . S
C408 H411 0.930 . S
C409 C406 1.348 . S
C409 C407 1.356 . S
H410 C404 0.930 . S
H411 C408 0.930 . S
O412 Li352 1.956 . S
O412 Li353 1.965 1_545 S
O412 Li354 1.976 . S
O412 C356 1.325 . S
O413 Li352 1.981 . S
O413 Li353 1.956 1_545 S
O413 Li355 1.950 1_545 S
O413 C362 1.325 . S
O414 Li352 1.960 1_565 S
O414 Li354 1.956 1_565 S
O414 Li355 1.971 . S
O414 C384 1.325 1_565 S
O415 Li353 1.966 . S
O415 Li354 1.955 1_565 S
O415 Li355 1.956 . S
O415 C390 1.325 . S
H416 C358 0.929 . S
H417 C359 0.930 . S
H418 C360 0.930 . S
H419 C361 0.930 . S
H420 C363 0.930 . S
H421 C365 0.929 . S
H422 C366 0.930 . S
H423 C367 0.930 . S
H424 C370 0.930 . S
H425 C373 0.929 . S
H426 C378 0.929 . S
H427 C379 0.930 . S
H428 C386 0.929 . S
H429 C387 0.930 . S
H430 C388 0.930 . S
H431 C389 0.930 . S
H432 C391 0.929 . S
H433 C392 0.930 . S
H434 C393 0.930 . S
H435 C394 0.930 . S
H436 C398 0.929 . S
H437 C400 0.930 . S
H438 C406 0.929 . S
H439 C407 0.930 . S
Li440 N457 1.990 . S
Li440 O500 1.956 . S
Li440 O501 1.971 . S
Li440 O502 1.950 1_655 S
Li441 N465 1.991 . S
Li441 O500 1.955 1_455 S
Li441 O501 1.956 1_455 S
Li441 O503 1.976 . S
Li442 N487 1.990 . S
Li442 O500 1.966 . S
Li442 O502 1.956 1_655 S
Li442 O503 1.965 1_655 S
Li443 N493 1.990 . S
Li443 O501 1.960 1_455 S
Li443 O502 1.981 . S
Li443 O503 1.956 . S
C444 C446 1.348 . S
C444 C447 1.356 . S
C444 O500 1.325 . S
N445 C448 1.314 . S
N445 C449 1.279 . S
C446 C444 1.348 . S
C446 C448 1.353 . S
C446 H504 0.929 . S
C447 C444 1.356 . S
C447 C449 1.358 . S
C447 H505 0.930 . S
C448 N445 1.314 . S
C448 C446 1.353 . S
C448 H506 0.930 . S
C449 N445 1.279 . S
C449 C447 1.358 . S
C449 H507 0.930 . S
C450 C453 1.345 1_455 S
C450 C454 1.359 . S
C450 O501 1.325 1_455 S
C451 N452 1.326 . S
C451 C454 1.358 . S
C451 H508 0.930 . S
N452 C451 1.326 . S
N452 C455 1.267 1_455 S
C453 C450 1.345 1_655 S
C453 C455 1.353 . S
C453 H509 0.929 . S
C454 C450 1.359 . S
C454 C451 1.358 . S
C454 H510 0.930 . S
C455 N452 1.267 1_655 S
C455 C453 1.353 . S
C455 H511 0.930 . S
C456 N457 1.314 . S
C456 C461 1.353 . S
C456 H462 0.930 . S
N457 Li440 1.990 . S
N457 C456 1.314 . S
N457 C459 1.279 . S
C458 C459 1.358 . S
C458 C460 1.356 . S
C458 H512 0.930 . S
C459 N457 1.279 . S
C459 C458 1.358 . S
C459 H463 0.930 . S
C460 C458 1.356 . S
C460 C461 1.348 . S
C461 C456 1.353 . S
C461 C460 1.348 . S
C461 H513 0.929 . S
H462 C456 0.930 . S
H463 C459 0.930 . S
C464 N465 1.314 . S
C464 C466 1.353 . S
C464 H470 0.930 . S
N465 Li441 1.991 . S
N465 C464 1.314 . S
N465 C468 1.279 1_455 S
C466 C464 1.353 . S
C466 C469 1.346 . S
C466 H514 0.929 . S
C467 C468 1.358 . S
C467 C469 1.357 1_655 S
C467 H515 0.930 . S
C468 N465 1.279 1_655 S
C468 C467 1.358 . S
C468 H471 0.930 . S
C469 C466 1.346 . S
C469 C467 1.357 1_455 S
H470 C464 0.930 . S
H471 C468 0.930 . S
C472 C474 1.345 . S
C472 C475 1.359 1_455 S
C472 O502 1.325 . S
N473 C476 1.279 1_655 S
N473 C477 1.315 . S
C474 C472 1.345 . S
C474 C476 1.353 . S
C474 H516 0.929 . S
C475 C472 1.359 1_655 S
C475 C477 1.358 . S
C475 H517 0.930 . S
C476 N473 1.279 1_455 S
C476 C474 1.353 . S
C476 H518 0.930 . S
C477 N473 1.315 . S
C477 C475 1.358 . S
C477 H519 0.930 . S
C478 C479 1.348 . S
C478 C480 1.356 . S
C478 O503 1.325 . S
C479 C478 1.348 . S
C479 C481 1.353 . S
C479 H520 0.929 . S
C480 C478 1.356 . S
C480 C482 1.358 . S
C480 H521 0.930 . S
C481 C479 1.353 . S
C481 N483 1.314 . S
C481 H522 0.930 . S
C482 C480 1.358 . S
C482 N483 1.279 . S
C482 H523 0.930 . S
N483 C481 1.314 . S
N483 C482 1.279 . S
C484 C486 1.353 . S
C484 N487 1.314 . S
C484 H490 0.930 . S
C485 N487 1.279 1_455 S
C485 C488 1.358 . S
C485 H491 0.930 . S
C486 C484 1.353 . S
C486 C489 1.346 1_655 S
C486 H524 0.929 . S
N487 Li442 1.990 . S
N487 C484 1.314 . S
N487 C485 1.279 1_655 S
C488 C485 1.358 . S
C488 C489 1.357 . S
C488 H525 0.930 . S
C489 C486 1.346 1_455 S
C489 C488 1.357 . S
H490 C484 0.930 . S
H491 C485 0.930 . S
C492 N493 1.314 . S
C492 C494 1.353 . S
C492 H498 0.930 . S
N493 Li443 1.990 . S
N493 C492 1.314 . S
N493 C496 1.279 . S
C494 C492 1.353 . S
C494 C497 1.348 . S
C494 H526 0.929 . S
C495 C496 1.358 . S
C495 C497 1.356 . S
C495 H527 0.930 . S
C496 N493 1.279 . S
C496 C495 1.358 . S
C496 H499 0.930 . S
C497 C494 1.348 . S
C497 C495 1.356 . S
H498 C492 0.930 . S
H499 C496 0.930 . S
O500 Li440 1.956 . S
O500 Li441 1.955 1_655 S
O500 Li442 1.966 . S
O500 C444 1.325 . S
O501 Li440 1.971 . S
O501 Li441 1.956 1_655 S
O501 Li443 1.960 1_655 S
O501 C450 1.325 1_655 S
O502 Li440 1.950 1_455 S
O502 Li442 1.956 1_455 S
O502 Li443 1.981 . S
O502 C472 1.325 . S
O503 Li441 1.976 . S
O503 Li442 1.965 1_455 S
O503 Li443 1.956 . S
O503 C478 1.325 . S
H504 C446 0.929 . S
H505 C447 0.930 . S
H506 C448 0.930 . S
H507 C449 0.930 . S
H508 C451 0.930 . S
H509 C453 0.929 . S
H510 C454 0.930 . S
H511 C455 0.930 . S
H512 C458 0.930 . S
H513 C461 0.929 . S
H514 C466 0.929 . S
H515 C467 0.930 . S
H516 C474 0.929 . S
H517 C475 0.930 . S
H518 C476 0.930 . S
H519 C477 0.930 . S
H520 C479 0.929 . S
H521 C480 0.930 . S
H522 C481 0.930 . S
H523 C482 0.930 . S
H524 C486 0.929 . S
H525 C488 0.930 . S
H526 C494 0.929 . S
H527 C495 0.930 . S
Li528 N545 1.991 . S
Li528 O588 1.956 1_545 S
Li528 O589 1.955 1_545 S
Li528 O590 1.976 . S
Li529 N553 1.990 . S
Li529 O588 1.971 . S
Li529 O589 1.956 . S
Li529 O591 1.950 1_565 S
Li530 N575 1.990 . S
Li530 O588 1.960 1_545 S
Li530 O590 1.956 . S
Li530 O591 1.981 . S
Li531 N581 1.990 . S
Li531 O589 1.966 . S
Li531 O590 1.965 1_565 S
Li531 O591 1.956 1_565 S
C532 C534 1.345 1_545 S
C532 C535 1.359 . S
C532 O588 1.325 1_545 S
N533 C536 1.267 1_545 S
N533 C537 1.326 . S
C534 C532 1.345 1_565 S
C534 C536 1.353 . S
C534 H592 0.929 . S
C535 C532 1.359 . S
C535 C537 1.358 . S
C535 H593 0.930 . S
C536 N533 1.267 1_565 S
C536 C534 1.353 . S
C536 H594 0.930 . S
C537 N533 1.326 . S
C537 C535 1.358 . S
C537 H595 0.930 . S
C538 C541 1.348 . S
C538 C542 1.356 . S
C538 O589 1.325 . S
C539 N540 1.279 . S
C539 C542 1.358 . S
C539 H596 0.930 . S
N540 C539 1.279 . S
N540 C543 1.314 . S
C541 C538 1.348 . S
C541 C543 1.353 . S
C541 H597 0.929 . S
C542 C538 1.356 . S
C542 C539 1.358 . S
C542 H598 0.930 . S
C543 N540 1.314 . S
C543 C541 1.353 . S
C543 H599 0.930 . S
C544 N545 1.314 . S
C544 C549 1.353 . S
C544 H550 0.930 . S
N545 Li528 1.991 . S
N545 C544 1.314 . S
N545 C547 1.279 1_545 S
C546 C547 1.358 . S
C546 C548 1.357 1_565 S
C546 H600 0.930 . S
C547 N545 1.279 1_565 S
C547 C546 1.358 . S
C547 H551 0.930 . S
C548 C546 1.357 1_545 S
C548 C549 1.346 . S
C549 C544 1.353 . S
C549 C548 1.346 . S
C549 H601 0.929 . S
H550 C544 0.930 . S
H551 C547 0.930 . S
C552 N553 1.314 . S
C552 C554 1.353 . S
C552 H558 0.930 . S
N553 Li529 1.990 . S
N553 C552 1.314 . S
N553 C556 1.279 . S
C554 C552 1.353 . S
C554 C557 1.348 . S
C554 H602 0.929 . S
C555 C556 1.358 . S
C555 C557 1.356 . S
C555 H603 0.930 . S
C556 N553 1.279 . S
C556 C555 1.358 . S
C556 H559 0.930 . S
C557 C554 1.348 . S
C557 C555 1.356 . S
H558 C552 0.930 . S
H559 C556 0.930 . S
C560 C562 1.348 . S
C560 C563 1.356 . S
C560 O590 1.325 . S
N561 C564 1.314 . S
N561 C565 1.279 . S
C562 C560 1.348 . S
C562 C564 1.353 . S
C562 H604 0.929 . S
C563 C560 1.356 . S
C563 C565 1.358 . S
C563 H605 0.930 . S
C564 N561 1.314 . S
C564 C562 1.353 . S
C564 H606 0.930 . S
C565 N561 1.279 . S
C565 C563 1.358 . S
C565 H607 0.930 . S
C566 C567 1.345 . S
C566 C568 1.359 1_545 S
C566 O591 1.325 . S
C567 C566 1.345 . S
C567 C569 1.353 . S
C567 H608 0.929 . S
C568 C566 1.359 1_565 S
C568 C570 1.358 . S
C568 H609 0.930 . S
C569 C567 1.353 . S
C569 N571 1.279 1_545 S
C569 H610 0.930 . S
C570 C568 1.358 . S
C570 N571 1.315 . S
C570 H611 0.930 . S
N571 C569 1.279 1_565 S
N571 C570 1.315 . S
C572 C574 1.353 . S
C572 N575 1.314 . S
C572 H578 0.930 . S
C573 N575 1.279 . S
C573 C576 1.358 . S
C573 H579 0.930 . S
C574 C572 1.353 . S
C574 C577 1.348 . S
C574 H612 0.929 . S
N575 Li530 1.990 . S
N575 C572 1.314 . S
N575 C573 1.279 . S
C576 C573 1.358 . S
C576 C577 1.356 . S
C576 H613 0.930 . S
C577 C574 1.348 . S
C577 C576 1.356 . S
H578 C572 0.930 . S
H579 C573 0.930 . S
C580 N581 1.314 . S
C580 C582 1.353 . S
C580 H586 0.930 . S
N581 Li531 1.990 . S
N581 C580 1.314 . S
N581 C584 1.279 1_565 S
C582 C580 1.353 . S
C582 C585 1.346 1_565 S
C582 H614 0.929 . S
C583 C584 1.358 . S
C583 C585 1.357 . S
C583 H615 0.930 . S
C584 N581 1.279 1_545 S
C584 C583 1.358 . S
C584 H587 0.930 . S
C585 C582 1.346 1_545 S
C585 C583 1.357 . S
H586 C580 0.930 . S
H587 C584 0.930 . S
O588 Li528 1.956 1_565 S
O588 Li529 1.971 . S
O588 Li530 1.960 1_565 S
O588 C532 1.325 1_565 S
O589 Li528 1.955 1_565 S
O589 Li529 1.956 . S
O589 Li531 1.966 . S
O589 C538 1.325 . S
O590 Li528 1.976 . S
O590 Li530 1.956 . S
O590 Li531 1.965 1_545 S
O590 C560 1.325 . S
O591 Li529 1.950 1_545 S
O591 Li530 1.981 . S
O591 Li531 1.956 1_545 S
O591 C566 1.325 . S
H592 C534 0.929 . S
H593 C535 0.930 . S
H594 C536 0.930 . S
H595 C537 0.930 . S
H596 C539 0.930 . S
H597 C541 0.929 . S
H598 C542 0.930 . S
H599 C543 0.930 . S
H600 C546 0.930 . S
H601 C549 0.929 . S
H602 C554 0.929 . S
H603 C555 0.930 . S
H604 C562 0.929 . S
H605 C563 0.930 . S
H606 C564 0.930 . S
H607 C565 0.930 . S
H608 C567 0.929 . S
H609 C568 0.930 . S
H610 C569 0.930 . S
H611 C570 0.930 . S
H612 C574 0.929 . S
H613 C576 0.930 . S
H614 C582 0.929 . S
H615 C583 0.930 . S
Li616 N633 1.991 . S
Li616 O676 1.956 1_455 S
Li616 O677 1.955 1_455 S
Li616 O678 1.976 . S
Li617 N641 1.990 . S
Li617 O676 1.971 . S
Li617 O677 1.956 . S
Li617 O679 1.950 1_655 S
Li618 N663 1.990 . S
Li618 O676 1.960 1_455 S
Li618 O678 1.956 . S
Li618 O679 1.981 . S
Li619 N669 1.990 . S
Li619 O677 1.966 . S
Li619 O678 1.965 1_655 S
Li619 O679 1.956 1_655 S
C620 C622 1.345 1_455 S
C620 C623 1.359 . S
C620 O676 1.325 1_455 S
N621 C624 1.267 1_455 S
N621 C625 1.327 . S
C622 C620 1.345 1_655 S
C622 C624 1.353 . S
C622 H680 0.929 . S
C623 C620 1.359 . S
C623 C625 1.358 . S
C623 H681 0.930 . S
C624 N621 1.267 1_655 S
C624 C622 1.353 . S
C624 H682 0.930 . S
C625 N621 1.327 . S
C625 C623 1.358 . S
C625 H683 0.930 . S
C626 C629 1.348 . S
C626 C630 1.356 . S
C626 O677 1.325 . S
C627 N628 1.279 . S
C627 C630 1.358 . S
C627 H684 0.930 . S
N628 C627 1.279 . S
N628 C631 1.314 . S
C629 C626 1.348 . S
C629 C631 1.353 . S
C629 H685 0.929 . S
C630 C626 1.356 . S
C630 C627 1.358 . S
C630 H686 0.930 . S
C631 N628 1.314 . S
C631 C629 1.353 . S
C631 H687 0.930 . S
C632 N633 1.314 . S
C632 C637 1.353 . S
C632 H638 0.930 . S
N633 Li616 1.991 . S
N633 C632 1.314 . S
N633 C635 1.279 1_455 S
C634 C635 1.358 . S
C634 C636 1.357 1_655 S
C634 H688 0.930 . S
C635 N633 1.279 1_655 S
C635 C634 1.358 . S
C635 H639 0.930 . S
C636 C634 1.357 1_455 S
C636 C637 1.346 . S
C637 C632 1.353 . S
C637 C636 1.346 . S
C637 H689 0.929 . S
H638 C632 0.930 . S
H639 C635 0.930 . S
C640 N641 1.314 . S
C640 C642 1.353 . S
C640 H646 0.930 . S
N641 Li617 1.990 . S
N641 C640 1.314 . S
N641 C644 1.279 . S
C642 C640 1.353 . S
C642 C645 1.348 . S
C642 H690 0.929 . S
C643 C644 1.358 . S
C643 C645 1.356 . S
C643 H691 0.930 . S
C644 N641 1.279 . S
C644 C643 1.358 . S
C644 H647 0.930 . S
C645 C642 1.348 . S
C645 C643 1.356 . S
H646 C640 0.930 . S
H647 C644 0.930 . S
C648 C650 1.348 . S
C648 C651 1.356 . S
C648 O678 1.325 . S
N649 C652 1.314 . S
N649 C653 1.279 . S
C650 C648 1.348 . S
C650 C652 1.353 . S
C650 H692 0.929 . S
C651 C648 1.356 . S
C651 C653 1.358 . S
C651 H693 0.930 . S
C652 N649 1.314 . S
C652 C650 1.353 . S
C652 H694 0.930 . S
C653 N649 1.279 . S
C653 C651 1.358 . S
C653 H695 0.930 . S
C654 C655 1.345 . S
C654 C656 1.359 1_455 S
C654 O679 1.325 . S
C655 C654 1.345 . S
C655 C657 1.353 . S
C655 H696 0.929 . S
C656 C654 1.359 1_655 S
C656 C658 1.358 . S
C656 H697 0.930 . S
C657 C655 1.353 . S
C657 N659 1.279 1_455 S
C657 H698 0.930 . S
C658 C656 1.358 . S
C658 N659 1.315 . S
C658 H699 0.930 . S
N659 C657 1.279 1_655 S
N659 C658 1.315 . S
C660 C662 1.353 . S
C660 N663 1.314 . S
C660 H666 0.930 . S
C661 N663 1.279 . S
C661 C664 1.358 . S
C661 H667 0.930 . S
C662 C660 1.353 . S
C662 C665 1.348 . S
C662 H700 0.929 . S
N663 Li618 1.990 . S
N663 C660 1.314 . S
N663 C661 1.279 . S
C664 C661 1.358 . S
C664 C665 1.356 . S
C664 H701 0.930 . S
C665 C662 1.348 . S
C665 C664 1.356 . S
H666 C660 0.930 . S
H667 C661 0.930 . S
C668 N669 1.314 . S
C668 C670 1.353 . S
C668 H674 0.930 . S
N669 Li619 1.990 . S
N669 C668 1.314 . S
N669 C672 1.279 1_655 S
C670 C668 1.353 . S
C670 C673 1.346 1_655 S
C670 H702 0.929 . S
C671 C672 1.358 . S
C671 C673 1.357 . S
C671 H703 0.930 . S
C672 N669 1.279 1_455 S
C672 C671 1.358 . S
C672 H675 0.930 . S
C673 C670 1.346 1_455 S
C673 C671 1.357 . S
H674 C668 0.930 . S
H675 C672 0.930 . S
O676 Li616 1.956 1_655 S
O676 Li617 1.971 . S
O676 Li618 1.960 1_655 S
O676 C620 1.325 1_655 S
O677 Li616 1.955 1_655 S
O677 Li617 1.956 . S
O677 Li619 1.966 . S
O677 C626 1.325 . S
O678 Li616 1.976 . S
O678 Li618 1.956 . S
O678 Li619 1.965 1_455 S
O678 C648 1.325 . S
O679 Li617 1.950 1_455 S
O679 Li618 1.981 . S
O679 Li619 1.956 1_455 S
O679 C654 1.325 . S
H680 C622 0.929 . S
H681 C623 0.930 . S
H682 C624 0.930 . S
H683 C625 0.930 . S
H684 C627 0.930 . S
H685 C629 0.929 . S
H686 C630 0.930 . S
H687 C631 0.930 . S
H688 C634 0.930 . S
H689 C637 0.929 . S
H690 C642 0.929 . S
H691 C643 0.930 . S
H692 C650 0.929 . S
H693 C651 0.930 . S
H694 C652 0.930 . S
H695 C653 0.930 . S
H696 C655 0.929 . S
H697 C656 0.930 . S
H698 C657 0.930 . S
H699 C658 0.930 . S
H700 C662 0.929 . S
H701 C664 0.930 . S
H702 C670 0.929 . S
H703 C671 0.930 . S
Li704 N721 1.990 . S
Li704 O764 1.956 . S
Li704 O765 1.981 . S
Li704 O766 1.960 1_554 S
Li705 N729 1.990 . S
Li705 O764 1.965 1_556 S
Li705 O765 1.956 1_556 S
Li705 O767 1.966 . S
Li706 N751 1.991 . S
Li706 O764 1.976 . S
Li706 O766 1.956 1_554 S
Li706 O767 1.955 1_554 S
Li707 N757 1.990 . S
Li707 O765 1.950 1_556 S
Li707 O766 1.971 . S
Li707 O767 1.956 . S
C708 C710 1.348 . S
C708 C711 1.356 . S
C708 O764 1.325 . S
N709 C712 1.314 . S
N709 C713 1.279 . S
C710 C708 1.348 . S
C710 C712 1.353 . S
C710 H768 0.929 . S
C711 C708 1.356 . S
C711 C713 1.358 . S
C711 H769 0.930 . S
C712 N709 1.314 . S
C712 C710 1.353 . S
C712 H770 0.930 . S
C713 N709 1.279 . S
C713 C711 1.358 . S
C713 H771 0.930 . S
C714 C717 1.345 . S
C714 C718 1.359 1_554 S
C714 O765 1.325 . S
C715 N716 1.315 . S
C715 C718 1.358 . S
C715 H772 0.930 . S
N716 C715 1.315 . S
N716 C719 1.279 1_556 S
C717 C714 1.345 . S
C717 C719 1.353 . S
C717 H773 0.929 . S
C718 C714 1.359 1_556 S
C718 C715 1.358 . S
C718 H774 0.930 . S
C719 N716 1.279 1_554 S
C719 C717 1.353 . S
C719 H775 0.930 . S
C720 N721 1.314 . S
C720 C725 1.353 . S
C720 H726 0.930 . S
N721 Li704 1.990 . S
N721 C720 1.314 . S
N721 C723 1.279 . S
C722 C723 1.358 . S
C722 C724 1.356 . S
C722 H776 0.930 . S
C723 N721 1.279 . S
C723 C722 1.358 . S
C723 H727 0.930 . S
C724 C722 1.356 . S
C724 C725 1.348 . S
C725 C720 1.353 . S
C725 C724 1.348 . S
C725 H777 0.929 . S
H726 C720 0.930 . S
H727 C723 0.930 . S
C728 N729 1.314 . S
C728 C730 1.353 . S
C728 H734 0.930 . S
N729 Li705 1.990 . S
N729 C728 1.314 . S
N729 C732 1.279 1_556 S
C730 C728 1.353 . S
C730 C733 1.346 1_556 S
C730 H778 0.929 . S
C731 C732 1.358 . S
C731 C733 1.357 . S
C731 H779 0.930 . S
C732 N729 1.279 1_554 S
C732 C731 1.358 . S
C732 H735 0.930 . S
C733 C730 1.346 1_554 S
C733 C731 1.357 . S
H734 C728 0.930 . S
H735 C732 0.930 . S
C736 C738 1.345 1_554 S
C736 C739 1.359 . S
C736 O766 1.325 1_554 S
N737 C740 1.267 1_554 S
N737 C741 1.327 . S
C738 C736 1.345 1_556 S
C738 C740 1.353 . S
C738 H780 0.929 . S
C739 C736 1.359 . S
C739 C741 1.358 . S
C739 H781 0.930 . S
C740 N737 1.267 1_556 S
C740 C738 1.353 . S
C740 H782 0.930 . S
C741 N737 1.327 . S
C741 C739 1.358 . S
C741 H783 0.930 . S
C742 C743 1.348 . S
C742 C744 1.356 . S
C742 O767 1.325 . S
C743 C742 1.348 . S
C743 C745 1.353 . S
C743 H784 0.929 . S
C744 C742 1.356 . S
C744 C746 1.358 . S
C744 H785 0.930 . S
C745 C743 1.353 . S
C745 N747 1.314 . S
C745 H786 0.930 . S
C746 C744 1.358 . S
C746 N747 1.279 . S
C746 H787 0.930 . S
N747 C745 1.314 . S
N747 C746 1.279 . S
C748 C750 1.353 . S
C748 N751 1.314 . S
C748 H754 0.930 . S
C749 N751 1.279 1_556 S
C749 C752 1.358 . S
C749 H755 0.930 . S
C750 C748 1.353 . S
C750 C753 1.346 . S
C750 H788 0.929 . S
N751 Li706 1.991 . S
N751 C748 1.314 . S
N751 C749 1.279 1_554 S
C752 C749 1.358 . S
C752 C753 1.357 1_556 S
C752 H789 0.930 . S
C753 C750 1.346 . S
C753 C752 1.357 1_554 S
H754 C748 0.930 . S
H755 C749 0.930 . S
C756 N757 1.314 . S
C756 C758 1.353 . S
C756 H762 0.930 . S
N757 Li707 1.990 . S
N757 C756 1.314 . S
N757 C760 1.279 . S
C758 C756 1.353 . S
C758 C761 1.348 . S
C758 H790 0.929 . S
C759 C760 1.358 . S
C759 C761 1.356 . S
C759 H791 0.930 . S
C760 N757 1.279 . S
C760 C759 1.358 . S
C760 H763 0.930 . S
C761 C758 1.348 . S
C761 C759 1.356 . S
H762 C756 0.930 . S
H763 C760 0.930 . S
O764 Li704 1.956 . S
O764 Li705 1.965 1_554 S
O764 Li706 1.976 . S
O764 C708 1.325 . S
O765 Li704 1.981 . S
O765 Li705 1.956 1_554 S
O765 Li707 1.950 1_554 S
O765 C714 1.325 . S
O766 Li704 1.960 1_556 S
O766 Li706 1.956 1_556 S
O766 Li707 1.971 . S
O766 C736 1.325 1_556 S
O767 Li705 1.966 . S
O767 Li706 1.955 1_556 S
O767 Li707 1.956 . S
O767 C742 1.325 . S
H768 C710 0.929 . S
H769 C711 0.930 . S
H770 C712 0.930 . S
H771 C713 0.930 . S
H772 C715 0.930 . S
H773 C717 0.929 . S
H774 C718 0.930 . S
H775 C719 0.930 . S
H776 C722 0.930 . S
H777 C725 0.929 . S
H778 C730 0.929 . S
H779 C731 0.930 . S
H780 C738 0.929 . S
H781 C739 0.930 . S
H782 C740 0.930 . S
H783 C741 0.930 . S
H784 C743 0.929 . S
H785 C744 0.930 . S
H786 C745 0.930 . S
H787 C746 0.930 . S
H788 C750 0.929 . S
H789 C752 0.930 . S
H790 C758 0.929 . S
H791 C759 0.930 . S
Li792 N809 1.990 . S
Li792 O852 1.956 1_556 S
Li792 O853 1.965 1_556 S
Li792 O854 1.966 . S
Li793 N817 1.990 . S
Li793 O852 1.981 . S
Li793 O853 1.956 . S
Li793 O855 1.960 1_554 S
Li794 N839 1.990 . S
Li794 O852 1.950 1_556 S
Li794 O854 1.956 . S
Li794 O855 1.971 . S
Li795 N845 1.991 . S
Li795 O853 1.976 . S
Li795 O854 1.955 1_554 S
Li795 O855 1.956 1_554 S
C796 C798 1.345 . S
C796 C799 1.359 1_554 S
C796 O852 1.325 . S
N797 C800 1.279 1_556 S
N797 C801 1.315 . S
C798 C796 1.345 . S
C798 C800 1.353 . S
C798 H856 0.929 . S
C799 C796 1.359 1_556 S
C799 C801 1.358 . S
C799 H857 0.930 . S
C800 N797 1.279 1_554 S
C800 C798 1.353 . S
C800 H858 0.930 . S
C801 N797 1.315 . S
C801 C799 1.358 . S
C801 H859 0.930 . S
C802 C805 1.348 . S
C802 C806 1.356 . S
C802 O853 1.325 . S
C803 N804 1.279 . S
C803 C806 1.358 . S
C803 H860 0.930 . S
N804 C803 1.279 . S
N804 C807 1.314 . S
C805 C802 1.348 . S
C805 C807 1.353 . S
C805 H861 0.929 . S
C806 C802 1.356 . S
C806 C803 1.358 . S
C806 H862 0.930 . S
C807 N804 1.314 . S
C807 C805 1.353 . S
C807 H863 0.930 . S
C808 N809 1.314 . S
C808 C813 1.353 . S
C808 H814 0.930 . S
N809 Li792 1.990 . S
N809 C808 1.314 . S
N809 C811 1.279 1_556 S
C810 C811 1.358 . S
C810 C812 1.357 . S
C810 H864 0.930 . S
C811 N809 1.279 1_554 S
C811 C810 1.358 . S
C811 H815 0.930 . S
C812 C810 1.357 . S
C812 C813 1.346 1_554 S
C813 C808 1.353 . S
C813 C812 1.346 1_556 S
C813 H865 0.929 . S
H814 C808 0.930 . S
H815 C811 0.930 . S
C816 N817 1.314 . S
C816 C818 1.353 . S
C816 H822 0.930 . S
N817 Li793 1.990 . S
N817 C816 1.314 . S
N817 C820 1.279 . S
C818 C816 1.353 . S
C818 C821 1.348 . S
C818 H866 0.929 . S
C819 C820 1.358 . S
C819 C821 1.356 . S
C819 H867 0.930 . S
C820 N817 1.279 . S
C820 C819 1.358 . S
C820 H823 0.930 . S
C821 C818 1.348 . S
C821 C819 1.356 . S
H822 C816 0.930 . S
H823 C820 0.930 . S
C824 C826 1.348 . S
C824 C827 1.356 . S
C824 O854 1.325 . S
N825 C828 1.314 . S
N825 C829 1.279 . S
C826 C824 1.348 . S
C826 C828 1.353 . S
C826 H868 0.929 . S
C827 C824 1.356 . S
C827 C829 1.358 . S
C827 H869 0.930 . S
C828 N825 1.314 . S
C828 C826 1.353 . S
C828 H870 0.930 . S
C829 N825 1.279 . S
C829 C827 1.358 . S
C829 H871 0.930 . S
C830 C831 1.345 1_554 S
C830 C832 1.359 . S
C830 O855 1.325 1_554 S
C831 C830 1.345 1_556 S
C831 C833 1.353 . S
C831 H872 0.929 . S
C832 C830 1.359 . S
C832 C834 1.358 . S
C832 H873 0.930 . S
C833 C831 1.353 . S
C833 N835 1.267 1_556 S
C833 H874 0.930 . S
C834 C832 1.358 . S
C834 N835 1.327 . S
C834 H875 0.930 . S
N835 C833 1.267 1_554 S
N835 C834 1.327 . S
C836 C838 1.353 . S
C836 N839 1.314 . S
C836 H842 0.930 . S
C837 N839 1.279 . S
C837 C840 1.358 . S
C837 H843 0.930 . S
C838 C836 1.353 . S
C838 C841 1.348 . S
C838 H876 0.929 . S
N839 Li794 1.990 . S
N839 C836 1.314 . S
N839 C837 1.279 . S
C840 C837 1.358 . S
C840 C841 1.356 . S
C840 H877 0.930 . S
C841 C838 1.348 . S
C841 C840 1.356 . S
H842 C836 0.930 . S
H843 C837 0.930 . S
C844 N845 1.314 . S
C844 C846 1.353 . S
C844 H850 0.930 . S
N845 Li795 1.991 . S
N845 C844 1.314 . S
N845 C848 1.279 1_554 S
C846 C844 1.353 . S
C846 C849 1.346 . S
C846 H878 0.929 . S
C847 C848 1.358 . S
C847 C849 1.357 1_556 S
C847 H879 0.930 . S
C848 N845 1.279 1_556 S
C848 C847 1.358 . S
C848 H851 0.930 . S
C849 C846 1.346 . S
C849 C847 1.357 1_554 S
H850 C844 0.930 . S
H851 C848 0.930 . S
O852 Li792 1.956 1_554 S
O852 Li793 1.981 . S
O852 Li794 1.950 1_554 S
O852 C796 1.325 . S
O853 Li792 1.965 1_554 S
O853 Li793 1.956 . S
O853 Li795 1.976 . S
O853 C802 1.325 . S
O854 Li792 1.966 . S
O854 Li794 1.956 . S
O854 Li795 1.955 1_556 S
O854 C824 1.325 . S
O855 Li793 1.960 1_556 S
O855 Li794 1.971 . S
O855 Li795 1.956 1_556 S
O855 C830 1.325 1_556 S
H856 C798 0.929 . S
H857 C799 0.930 . S
H858 C800 0.930 . S
H859 C801 0.930 . S
H860 C803 0.930 . S
H861 C805 0.929 . S
H862 C806 0.930 . S
H863 C807 0.930 . S
H864 C810 0.930 . S
H865 C813 0.929 . S
H866 C818 0.929 . S
H867 C819 0.930 . S
H868 C826 0.929 . S
H869 C827 0.930 . S
H870 C828 0.930 . S
H871 C829 0.930 . S
H872 C831 0.929 . S
H873 C832 0.930 . S
H874 C833 0.930 . S
H875 C834 0.930 . S
H876 C838 0.929 . S
H877 C840 0.930 . S
H878 C846 0.929 . S
H879 C847 0.930 . S
Li880 N897 1.990 . S
Li880 O940 1.956 1_556 S
Li880 O941 1.965 1_556 S
Li880 O942 1.966 . S
Li881 N905 1.990 . S
Li881 O940 1.981 . S
Li881 O941 1.956 . S
Li881 O943 1.960 1_554 S
Li882 N927 1.990 . S
Li882 O940 1.950 1_556 S
Li882 O942 1.956 . S
Li882 O943 1.971 . S
Li883 N933 1.991 . S
Li883 O941 1.976 . S
Li883 O942 1.955 1_554 S
Li883 O943 1.956 1_554 S
C884 C886 1.345 . S
C884 C887 1.359 1_554 S
C884 O940 1.325 . S
N885 C888 1.279 1_556 S
N885 C889 1.315 . S
C886 C884 1.345 . S
C886 C888 1.353 . S
C886 H944 0.929 . S
C887 C884 1.359 1_556 S
C887 C889 1.358 . S
C887 H945 0.930 . S
C888 N885 1.279 1_554 S
C888 C886 1.353 . S
C888 H946 0.930 . S
C889 N885 1.315 . S
C889 C887 1.358 . S
C889 H947 0.930 . S
C890 C893 1.348 . S
C890 C894 1.356 . S
C890 O941 1.325 . S
C891 N892 1.279 . S
C891 C894 1.358 . S
C891 H948 0.930 . S
N892 C891 1.279 . S
N892 C895 1.314 . S
C893 C890 1.348 . S
C893 C895 1.353 . S
C893 H949 0.929 . S
C894 C890 1.356 . S
C894 C891 1.358 . S
C894 H950 0.930 . S
C895 N892 1.314 . S
C895 C893 1.353 . S
C895 H951 0.930 . S
C896 N897 1.314 . S
C896 C901 1.353 . S
C896 H902 0.930 . S
N897 Li880 1.990 . S
N897 C896 1.314 . S
N897 C899 1.279 1_556 S
C898 C899 1.358 . S
C898 C900 1.357 . S
C898 H952 0.930 . S
C899 N897 1.279 1_554 S
C899 C898 1.358 . S
C899 H903 0.930 . S
C900 C898 1.357 . S
C900 C901 1.346 1_554 S
C901 C896 1.353 . S
C901 C900 1.346 1_556 S
C901 H953 0.929 . S
H902 C896 0.930 . S
H903 C899 0.930 . S
C904 N905 1.314 . S
C904 C906 1.353 . S
C904 H910 0.930 . S
N905 Li881 1.990 . S
N905 C904 1.314 . S
N905 C908 1.279 . S
C906 C904 1.353 . S
C906 C909 1.348 . S
C906 H954 0.929 . S
C907 C908 1.358 . S
C907 C909 1.356 . S
C907 H955 0.930 . S
C908 N905 1.279 . S
C908 C907 1.358 . S
C908 H911 0.930 . S
C909 C906 1.348 . S
C909 C907 1.356 . S
H910 C904 0.930 . S
H911 C908 0.930 . S
C912 C914 1.348 . S
C912 C915 1.356 . S
C912 O942 1.325 . S
N913 C916 1.314 . S
N913 C917 1.279 . S
C914 C912 1.348 . S
C914 C916 1.353 . S
C914 H956 0.929 . S
C915 C912 1.356 . S
C915 C917 1.358 . S
C915 H957 0.930 . S
C916 N913 1.314 . S
C916 C914 1.353 . S
C916 H958 0.930 . S
C917 N913 1.279 . S
C917 C915 1.358 . S
C917 H959 0.930 . S
C918 C919 1.345 1_554 S
C918 C920 1.359 . S
C918 O943 1.325 1_554 S
C919 C918 1.345 1_556 S
C919 C921 1.353 . S
C919 H960 0.929 . S
C920 C918 1.359 . S
C920 C922 1.358 . S
C920 H961 0.930 . S
C921 C919 1.353 . S
C921 N923 1.267 1_556 S
C921 H962 0.930 . S
C922 C920 1.358 . S
C922 N923 1.327 . S
C922 H963 0.930 . S
N923 C921 1.267 1_554 S
N923 C922 1.327 . S
C924 C926 1.353 . S
C924 N927 1.314 . S
C924 H930 0.930 . S
C925 N927 1.279 . S
C925 C928 1.358 . S
C925 H931 0.930 . S
C926 C924 1.353 . S
C926 C929 1.348 . S
C926 H964 0.929 . S
N927 Li882 1.990 . S
N927 C924 1.314 . S
N927 C925 1.279 . S
C928 C925 1.358 . S
C928 C929 1.356 . S
C928 H965 0.930 . S
C929 C926 1.348 . S
C929 C928 1.356 . S
H930 C924 0.930 . S
H931 C925 0.930 . S
C932 N933 1.314 . S
C932 C934 1.353 . S
C932 H938 0.930 . S
N933 Li883 1.991 . S
N933 C932 1.314 . S
N933 C936 1.279 1_554 S
C934 C932 1.353 . S
C934 C937 1.346 . S
C934 H966 0.929 . S
C935 C936 1.358 . S
C935 C937 1.357 1_556 S
C935 H967 0.930 . S
C936 N933 1.279 1_556 S
C936 C935 1.358 . S
C936 H939 0.930 . S
C937 C934 1.346 . S
C937 C935 1.357 1_554 S
H938 C932 0.930 . S
H939 C936 0.930 . S
O940 Li880 1.956 1_554 S
O940 Li881 1.981 . S
O940 Li882 1.950 1_554 S
O940 C884 1.325 . S
O941 Li880 1.965 1_554 S
O941 Li881 1.956 . S
O941 Li883 1.976 . S
O941 C890 1.325 . S
O942 Li880 1.966 . S
O942 Li882 1.956 . S
O942 Li883 1.955 1_556 S
O942 C912 1.325 . S
O943 Li881 1.960 1_556 S
O943 Li882 1.971 . S
O943 Li883 1.956 1_556 S
O943 C918 1.325 1_556 S
H944 C886 0.929 . S
H945 C887 0.930 . S
H946 C888 0.930 . S
H947 C889 0.930 . S
H948 C891 0.930 . S
H949 C893 0.929 . S
H950 C894 0.930 . S
H951 C895 0.930 . S
H952 C898 0.930 . S
H953 C901 0.929 . S
H954 C906 0.929 . S
H955 C907 0.930 . S
H956 C914 0.929 . S
H957 C915 0.930 . S
H958 C916 0.930 . S
H959 C917 0.930 . S
H960 C919 0.929 . S
H961 C920 0.930 . S
H962 C921 0.930 . S
H963 C922 0.930 . S
H964 C926 0.929 . S
H965 C928 0.930 . S
H966 C934 0.929 . S
H967 C935 0.930 . S
Li968 N985 1.990 . S
Li968 O1028 1.956 . S
Li968 O1029 1.981 . S
Li968 O1030 1.960 1_554 S
Li969 N993 1.990 . S
Li969 O1028 1.965 1_556 S
Li969 O1029 1.956 1_556 S
Li969 O1031 1.966 . S
Li970 N1015 1.991 . S
Li970 O1028 1.976 . S
Li970 O1030 1.956 1_554 S
Li970 O1031 1.955 1_554 S
Li971 N1021 1.990 . S
Li971 O1029 1.950 1_556 S
Li971 O1030 1.971 . S
Li971 O1031 1.956 . S
C972 C974 1.348 . S
C972 C975 1.356 . S
C972 O1028 1.325 . S
N973 C976 1.314 . S
N973 C977 1.279 . S
C974 C972 1.348 . S
C974 C976 1.353 . S
C974 H1032 0.929 . S
C975 C972 1.356 . S
C975 C977 1.358 . S
C975 H1033 0.930 . S
C976 N973 1.314 . S
C976 C974 1.353 . S
C976 H1034 0.930 . S
C977 N973 1.279 . S
C977 C975 1.358 . S
C977 H1035 0.930 . S
C978 C981 1.345 . S
C978 C982 1.359 1_554 S
C978 O1029 1.325 . S
C979 N980 1.315 . S
C979 C982 1.358 . S
C979 H1036 0.930 . S
N980 C979 1.315 . S
N980 C983 1.279 1_556 S
C981 C978 1.345 . S
C981 C983 1.353 . S
C981 H1037 0.929 . S
C982 C978 1.359 1_556 S
C982 C979 1.358 . S
C982 H1038 0.930 . S
C983 N980 1.279 1_554 S
C983 C981 1.353 . S
C983 H1039 0.930 . S
C984 N985 1.314 . S
C984 C989 1.353 . S
C984 H990 0.930 . S
N985 Li968 1.990 . S
N985 C984 1.314 . S
N985 C987 1.279 . S
C986 C987 1.358 . S
C986 C988 1.356 . S
C986 H1040 0.930 . S
C987 N985 1.279 . S
C987 C986 1.358 . S
C987 H991 0.930 . S
C988 C986 1.356 . S
C988 C989 1.348 . S
C989 C984 1.353 . S
C989 C988 1.348 . S
C989 H1041 0.929 . S
H990 C984 0.930 . S
H991 C987 0.930 . S
C992 N993 1.314 . S
C992 C994 1.353 . S
C992 H998 0.930 . S
N993 Li969 1.990 . S
N993 C992 1.314 . S
N993 C996 1.279 1_556 S
C994 C992 1.353 . S
C994 C997 1.346 1_556 S
C994 H1042 0.929 . S
C995 C996 1.358 . S
C995 C997 1.357 . S
C995 H1043 0.930 . S
C996 N993 1.279 1_554 S
C996 C995 1.358 . S
C996 H999 0.930 . S
C997 C994 1.346 1_554 S
C997 C995 1.357 . S
H998 C992 0.930 . S
H999 C996 0.930 . S
C1000 C1002 1.345 1_554 S
C1000 C1003 1.359 . S
C1000 O1030 1.325 1_554 S
N1001 C1004 1.267 1_554 S
N1001 C1005 1.327 . S
C1002 C1000 1.345 1_556 S
C1002 C1004 1.353 . S
C1002 H1044 0.929 . S
C1003 C1000 1.359 . S
C1003 C1005 1.358 . S
C1003 H1045 0.930 . S
C1004 N1001 1.267 1_556 S
C1004 C1002 1.353 . S
C1004 H1046 0.930 . S
C1005 N1001 1.327 . S
C1005 C1003 1.358 . S
C1005 H1047 0.930 . S
C1006 C1007 1.348 . S
C1006 C1008 1.356 . S
C1006 O1031 1.325 . S
C1007 C1006 1.348 . S
C1007 C1009 1.353 . S
C1007 H1048 0.929 . S
C1008 C1006 1.356 . S
C1008 C1010 1.358 . S
C1008 H1049 0.930 . S
C1009 C1007 1.353 . S
C1009 N1011 1.314 . S
C1009 H1050 0.930 . S
C1010 C1008 1.358 . S
C1010 N1011 1.279 . S
C1010 H1051 0.930 . S
N1011 C1009 1.314 . S
N1011 C1010 1.279 . S
C1012 C1014 1.353 . S
C1012 N1015 1.314 . S
C1012 H1018 0.930 . S
C1013 N1015 1.279 1_556 S
C1013 C1016 1.358 . S
C1013 H1019 0.930 . S
C1014 C1012 1.353 . S
C1014 C1017 1.346 . S
C1014 H1052 0.929 . S
N1015 Li970 1.991 . S
N1015 C1012 1.314 . S
N1015 C1013 1.279 1_554 S
C1016 C1013 1.358 . S
C1016 C1017 1.357 1_556 S
C1016 H1053 0.930 . S
C1017 C1014 1.346 . S
C1017 C1016 1.357 1_554 S
H1018 C1012 0.930 . S
H1019 C1013 0.930 . S
C1020 N1021 1.314 . S
C1020 C1022 1.353 . S
C1020 H1026 0.930 . S
N1021 Li971 1.990 . S
N1021 C1020 1.314 . S
N1021 C1024 1.279 . S
C1022 C1020 1.353 . S
C1022 C1025 1.348 . S
C1022 H1054 0.929 . S
C1023 C1024 1.358 . S
C1023 C1025 1.356 . S
C1023 H1055 0.930 . S
C1024 N1021 1.279 . S
C1024 C1023 1.358 . S
C1024 H1027 0.930 . S
C1025 C1022 1.348 . S
C1025 C1023 1.356 . S
H1026 C1020 0.930 . S
H1027 C1024 0.930 . S
O1028 Li968 1.956 . S
O1028 Li969 1.965 1_554 S
O1028 Li970 1.976 . S
O1028 C972 1.325 . S
O1029 Li968 1.981 . S
O1029 Li969 1.956 1_554 S
O1029 Li971 1.950 1_554 S
O1029 C978 1.325 . S
O1030 Li968 1.960 1_556 S
O1030 Li970 1.956 1_556 S
O1030 Li971 1.971 . S
O1030 C1000 1.325 1_556 S
O1031 Li969 1.966 . S
O1031 Li970 1.955 1_556 S
O1031 Li971 1.956 . S
O1031 C1006 1.325 . S
H1032 C974 0.929 . S
H1033 C975 0.930 . S
H1034 C976 0.930 . S
H1035 C977 0.930 . S
H1036 C979 0.930 . S
H1037 C981 0.929 . S
H1038 C982 0.930 . S
H1039 C983 0.930 . S
H1040 C986 0.930 . S
H1041 C989 0.929 . S
H1042 C994 0.929 . S
H1043 C995 0.930 . S
H1044 C1002 0.929 . S
H1045 C1003 0.930 . S
H1046 C1004 0.930 . S
H1047 C1005 0.930 . S
H1048 C1007 0.929 . S
H1049 C1008 0.930 . S
H1050 C1009 0.930 . S
H1051 C1010 0.930 . S
H1052 C1014 0.929 . S
H1053 C1016 0.930 . S
H1054 C1022 0.929 . S
H1055 C1023 0.930 . S
C1056 C1057 1.336 1_655 S
C1056 C1058 1.327 . S
C1056 H1081 0.950 . S
C1057 C1056 1.336 1_455 S
C1057 C1073 1.362 . S
C1058 C1056 1.327 . S
C1058 C1077 1.422 1_655 S
C1058 H1082 0.950 . S
C1059 C1076 1.574 . S
C1059 C1078 1.371 . S
C1059 H1083 0.949 . S
H1060 C1064 0.949 . S
C1061 C1062 1.345 1_455 S
C1061 C1063 1.327 . S
C1061 H1084 0.950 . S
C1062 C1061 1.345 1_655 S
C1062 C1074 1.353 . S
C1063 C1061 1.327 . S
C1063 C1079 1.431 1_455 S
C1063 H1085 0.950 . S
C1064 H1060 0.949 . S
C1064 C1072 1.574 . S
C1064 C1080 1.372 1_655 S
H1065 C1073 0.950 . S
H1066 C1071 0.950 . S
H1067 C1072 0.949 . S
H1068 C1074 0.950 . S
H1069 C1075 0.950 . S
H1070 C1076 0.949 . S
C1071 H1066 0.950 . S
C1071 C1073 1.327 . S
C1071 C1077 1.435 . S
C1072 C1064 1.574 . S
C1072 H1067 0.949 . S
C1072 C1078 1.365 1_655 S
C1073 C1057 1.362 . S
C1073 H1065 0.950 . S
C1073 C1071 1.327 . S
C1074 C1062 1.353 . S
C1074 H1068 0.950 . S
C1074 C1075 1.327 . S
C1075 H1069 0.950 . S
C1075 C1074 1.327 . S
C1075 C1079 1.427 . S
C1076 C1059 1.574 . S
C1076 H1070 0.949 . S
C1076 C1080 1.365 . S
C1077 C1058 1.422 1_455 S
C1077 C1071 1.435 . S
C1077 C1078 1.523 . S
C1078 C1059 1.371 . S
C1078 C1072 1.365 1_455 S
C1078 C1077 1.523 . S
C1079 C1063 1.431 1_655 S
C1079 C1075 1.427 . S
C1079 C1080 1.523 1_655 S
C1080 C1064 1.372 1_455 S
C1080 C1076 1.365 . S
C1080 C1079 1.523 1_455 S
H1081 C1056 0.950 . S
H1082 C1058 0.950 . S
H1083 C1059 0.949 . S
H1084 C1061 0.950 . S
H1085 C1063 0.950 . S
C1086 C1087 1.364 . S
C1086 C1088 1.327 . S
C1086 H1111 0.950 . S
C1087 C1086 1.364 . S
C1087 C1103 1.334 1_545 S
C1088 C1086 1.327 . S
C1088 C1107 1.436 . S
C1088 H1112 0.950 . S
C1089 C1106 1.574 . S
C1089 C1108 1.365 1_565 S
C1089 H1113 0.949 . S
H1090 C1094 0.949 . S
C1091 C1092 1.354 . S
C1091 C1093 1.327 . S
C1091 H1114 0.950 . S
C1092 C1091 1.354 . S
C1092 C1104 1.344 1_565 S
C1093 C1091 1.327 . S
C1093 C1109 1.426 . S
C1093 H1115 0.950 . S
C1094 H1090 0.949 . S
C1094 C1102 1.574 . S
C1094 C1110 1.364 . S
H1095 C1103 0.950 . S
H1096 C1101 0.950 . S
H1097 C1102 0.949 . S
H1098 C1104 0.950 . S
H1099 C1105 0.950 . S
H1100 C1106 0.949 . S
C1101 H1096 0.950 . S
C1101 C1103 1.327 . S
C1101 C1107 1.421 1_565 S
C1102 C1094 1.574 . S
C1102 H1097 0.949 . S
C1102 C1108 1.372 . S
C1103 C1087 1.334 1_565 S
C1103 H1095 0.950 . S
C1103 C1101 1.327 . S
C1104 C1092 1.344 1_545 S
C1104 H1098 0.950 . S
C1104 C1105 1.327 . S
C1105 H1099 0.950 . S
C1105 C1104 1.327 . S
C1105 C1109 1.431 1_545 S
C1106 C1089 1.574 . S
C1106 H1100 0.949 . S
C1106 C1110 1.372 1_565 S
C1107 C1088 1.436 . S
C1107 C1101 1.421 1_545 S
C1107 C1108 1.523 . S
C1108 C1089 1.365 1_545 S
C1108 C1102 1.372 . S
C1108 C1107 1.523 . S
C1109 C1093 1.426 . S
C1109 C1105 1.431 1_565 S
C1109 C1110 1.523 1_565 S
C1110 C1094 1.364 . S
C1110 C1106 1.372 1_545 S
C1110 C1109 1.523 1_545 S
H1111 C1086 0.950 . S
H1112 C1088 0.950 . S
H1113 C1089 0.949 . S
H1114 C1091 0.950 . S
H1115 C1093 0.950 . S
C1116 C1117 1.342 1_655 S
C1116 C1118 1.327 . S
C1116 H1141 0.950 . S
C1117 C1116 1.342 1_455 S
C1117 C1133 1.356 . S
C1118 C1116 1.327 . S
C1118 C1137 1.425 1_655 S
C1118 H1142 0.950 . S
C1119 C1136 1.574 . S
C1119 C1138 1.370 . S
C1119 H1143 0.949 . S
H1120 C1124 0.949 . S
C1121 C1122 1.347 1_455 S
C1121 C1123 1.327 . S
C1121 H1144 0.950 . S
C1122 C1121 1.347 1_655 S
C1122 C1134 1.351 . S
C1123 C1121 1.327 . S
C1123 C1139 1.430 1_455 S
C1123 H1145 0.950 . S
C1124 H1120 0.949 . S
C1124 C1132 1.574 . S
C1124 C1140 1.370 1_655 S
H1125 C1133 0.950 . S
H1126 C1131 0.950 . S
H1127 C1132 0.949 . S
H1128 C1134 0.950 . S
H1129 C1135 0.950 . S
H1130 C1136 0.949 . S
C1131 H1126 0.950 . S
C1131 C1133 1.327 . S
C1131 C1137 1.432 . S
C1132 C1124 1.574 . S
C1132 H1127 0.949 . S
C1132 C1138 1.366 1_655 S
C1133 C1117 1.356 . S
C1133 H1125 0.950 . S
C1133 C1131 1.327 . S
C1134 C1122 1.351 . S
C1134 H1128 0.950 . S
C1134 C1135 1.327 . S
C1135 H1129 0.950 . S
C1135 C1134 1.327 . S
C1135 C1139 1.427 . S
C1136 C1119 1.574 . S
C1136 H1130 0.949 . S
C1136 C1140 1.367 . S
C1137 C1118 1.425 1_455 S
C1137 C1131 1.432 . S
C1137 C1138 1.523 . S
C1138 C1119 1.370 . S
C1138 C1132 1.366 1_455 S
C1138 C1137 1.523 . S
C1139 C1123 1.430 1_655 S
C1139 C1135 1.427 . S
C1139 C1140 1.523 1_655 S
C1140 C1124 1.370 1_455 S
C1140 C1136 1.367 . S
C1140 C1139 1.523 1_455 S
H1141 C1116 0.950 . S
H1142 C1118 0.950 . S
H1143 C1119 0.949 . S
H1144 C1121 0.950 . S
H1145 C1123 0.950 . S
C1146 C1147 1.354 . S
C1146 C1148 1.327 . S
C1146 H1171 0.950 . S
C1147 C1146 1.354 . S
C1147 C1163 1.344 1_565 S
C1148 C1146 1.327 . S
C1148 C1167 1.426 . S
C1148 H1172 0.950 . S
C1149 C1166 1.574 . S
C1149 C1168 1.364 . S
C1149 H1173 0.949 . S
H1150 C1154 0.949 . S
C1151 C1152 1.364 . S
C1151 C1153 1.327 . S
C1151 H1174 0.950 . S
C1152 C1151 1.364 . S
C1152 C1164 1.334 1_545 S
C1153 C1151 1.327 . S
C1153 C1169 1.436 . S
C1153 H1175 0.950 . S
C1154 H1150 0.949 . S
C1154 C1162 1.574 . S
C1154 C1170 1.365 1_565 S
H1155 C1163 0.950 . S
H1156 C1161 0.950 . S
H1157 C1162 0.949 . S
H1158 C1164 0.950 . S
H1159 C1165 0.950 . S
H1160 C1166 0.949 . S
C1161 H1156 0.950 . S
C1161 C1163 1.327 . S
C1161 C1167 1.431 1_545 S
C1162 C1154 1.574 . S
C1162 H1157 0.949 . S
C1162 C1168 1.372 1_565 S
C1163 C1147 1.344 1_545 S
C1163 H1155 0.950 . S
C1163 C1161 1.327 . S
C1164 C1152 1.334 1_565 S
C1164 H1158 0.950 . S
C1164 C1165 1.327 . S
C1165 H1159 0.950 . S
C1165 C1164 1.327 . S
C1165 C1169 1.421 1_565 S
C1166 C1149 1.574 . S
C1166 H1160 0.949 . S
C1166 C1170 1.372 . S
C1167 C1148 1.426 . S
C1167 C1161 1.431 1_565 S
C1167 C1168 1.523 1_565 S
C1168 C1149 1.364 . S
C1168 C1162 1.372 1_545 S
C1168 C1167 1.523 1_545 S
C1169 C1153 1.436 . S
C1169 C1165 1.421 1_545 S
C1169 C1170 1.523 . S
C1170 C1154 1.365 1_545 S
C1170 C1166 1.372 . S
C1170 C1169 1.523 . S
H1171 C1146 0.950 . S
H1172 C1148 0.950 . S
H1173 C1149 0.949 . S
H1174 C1151 0.950 . S
H1175 C1153 0.950 . S
C1176 C1177 1.343 1_455 S
C1176 C1178 1.327 . S
C1176 H1201 0.950 . S
C1177 C1176 1.343 1_655 S
C1177 C1193 1.354 . S
C1178 C1176 1.327 . S
C1178 C1197 1.432 1_455 S
C1178 H1202 0.950 . S
C1179 C1196 1.574 . S
C1179 C1198 1.372 1_655 S
C1179 H1203 0.949 . S
H1180 C1184 0.949 . S
C1181 C1182 1.332 1_655 S
C1181 C1183 1.327 . S
C1181 H1204 0.950 . S
C1182 C1181 1.332 1_455 S
C1182 C1194 1.366 . S
C1183 C1181 1.327 . S
C1183 C1199 1.420 1_655 S
C1183 H1205 0.950 . S
C1184 H1180 0.949 . S
C1184 C1192 1.574 . S
C1184 C1200 1.373 . S
H1185 C1193 0.950 . S
H1186 C1191 0.950 . S
H1187 C1192 0.949 . S
H1188 C1194 0.950 . S
H1189 C1195 0.950 . S
H1190 C1196 0.949 . S
C1191 H1186 0.950 . S
C1191 C1193 1.327 . S
C1191 C1197 1.426 . S
C1192 C1184 1.574 . S
C1192 H1187 0.949 . S
C1192 C1198 1.364 . S
C1193 C1177 1.354 . S
C1193 H1185 0.950 . S
C1193 C1191 1.327 . S
C1194 C1182 1.366 . S
C1194 H1188 0.950 . S
C1194 C1195 1.327 . S
C1195 H1189 0.950 . S
C1195 C1194 1.327 . S
C1195 C1199 1.437 . S
C1196 C1179 1.574 . S
C1196 H1190 0.949 . S
C1196 C1200 1.364 1_655 S
C1197 C1178 1.432 1_655 S
C1197 C1191 1.426 . S
C1197 C1198 1.523 1_655 S
C1198 C1179 1.372 1_455 S
C1198 C1192 1.364 . S
C1198 C1197 1.523 1_455 S
C1199 C1183 1.420 1_455 S
C1199 C1195 1.437 . S
C1199 C1200 1.523 . S
C1200 C1184 1.373 . S
C1200 C1196 1.364 1_455 S
C1200 C1199 1.523 . S
H1201 C1176 0.950 . S
H1202 C1178 0.950 . S
H1203 C1179 0.949 . S
H1204 C1181 0.950 . S
H1205 C1183 0.950 . S
C1206 C1207 1.345 1_545 S
C1206 C1208 1.327 . S
C1206 H1231 0.950 . S
C1207 C1206 1.345 1_565 S
C1207 C1223 1.353 . S
C1208 C1206 1.327 . S
C1208 C1227 1.431 1_545 S
C1208 H1232 0.950 . S
C1209 C1226 1.574 . S
C1209 C1228 1.371 1_565 S
C1209 H1233 0.949 . S
H1210 C1214 0.949 . S
C1211 C1212 1.337 1_565 S
C1211 C1213 1.327 . S
C1211 H1234 0.950 . S
C1212 C1211 1.337 1_545 S
C1212 C1224 1.361 . S
C1213 C1211 1.327 . S
C1213 C1229 1.423 1_565 S
C1213 H1235 0.950 . S
C1214 H1210 0.949 . S
C1214 C1222 1.574 . S
C1214 C1230 1.371 . S
H1215 C1223 0.950 . S
H1216 C1221 0.950 . S
H1217 C1222 0.949 . S
H1218 C1224 0.950 . S
H1219 C1225 0.950 . S
H1220 C1226 0.949 . S
C1221 H1216 0.950 . S
C1221 C1223 1.327 . S
C1221 C1227 1.427 . S
C1222 C1214 1.574 . S
C1222 H1217 0.949 . S
C1222 C1228 1.365 . S
C1223 C1207 1.353 . S
C1223 H1215 0.950 . S
C1223 C1221 1.327 . S
C1224 C1212 1.361 . S
C1224 H1218 0.950 . S
C1224 C1225 1.327 . S
C1225 H1219 0.950 . S
C1225 C1224 1.327 . S
C1225 C1229 1.434 . S
C1226 C1209 1.574 . S
C1226 H1220 0.949 . S
C1226 C1230 1.365 1_565 S
C1227 C1208 1.431 1_565 S
C1227 C1221 1.427 . S
C1227 C1228 1.523 1_565 S
C1228 C1209 1.371 1_545 S
C1228 C1222 1.365 . S
C1228 C1227 1.523 1_545 S
C1229 C1213 1.423 1_545 S
C1229 C1225 1.434 . S
C1229 C1230 1.523 . S
C1230 C1214 1.371 . S
C1230 C1226 1.365 1_545 S
C1230 C1229 1.523 . S
H1231 C1206 0.950 . S
H1232 C1208 0.950 . S
H1233 C1209 0.949 . S
H1234 C1211 0.950 . S
H1235 C1213 0.950 . S
C1236 C1237 1.346 1_455 S
C1236 C1238 1.327 . S
C1236 H1261 0.950 . S
C1237 C1236 1.346 1_655 S
C1237 C1253 1.352 . S
C1238 C1236 1.327 . S
C1238 C1257 1.430 1_455 S
C1238 H1262 0.950 . S
C1239 C1256 1.574 . S
C1239 C1258 1.371 1_655 S
C1239 H1263 0.949 . S
H1240 C1244 0.949 . S
C1241 C1242 1.340 1_655 S
C1241 C1243 1.327 . S
C1241 H1264 0.950 . S
C1242 C1241 1.340 1_455 S
C1242 C1254 1.358 . S
C1243 C1241 1.327 . S
C1243 C1259 1.424 1_655 S
C1243 H1265 0.950 . S
C1244 H1240 0.949 . S
C1244 C1252 1.574 . S
C1244 C1260 1.370 . S
H1245 C1253 0.950 . S
H1246 C1251 0.950 . S
H1247 C1252 0.949 . S
H1248 C1254 0.950 . S
H1249 C1255 0.950 . S
H1250 C1256 0.949 . S
C1251 H1246 0.950 . S
C1251 C1253 1.327 . S
C1251 C1257 1.427 . S
C1252 C1244 1.574 . S
C1252 H1247 0.949 . S
C1252 C1258 1.366 . S
C1253 C1237 1.352 . S
C1253 H1245 0.950 . S
C1253 C1251 1.327 . S
C1254 C1242 1.358 . S
C1254 H1248 0.950 . S
C1254 C1255 1.327 . S
C1255 H1249 0.950 . S
C1255 C1254 1.327 . S
C1255 C1259 1.433 . S
C1256 C1239 1.574 . S
C1256 H1250 0.949 . S
C1256 C1260 1.366 1_655 S
C1257 C1238 1.430 1_655 S
C1257 C1251 1.427 . S
C1257 C1258 1.523 1_655 S
C1258 C1239 1.371 1_455 S
C1258 C1252 1.366 . S
C1258 C1257 1.523 1_455 S
C1259 C1243 1.424 1_455 S
C1259 C1255 1.433 . S
C1259 C1260 1.523 . S
C1260 C1244 1.370 . S
C1260 C1256 1.366 1_455 S
C1260 C1259 1.523 . S
H1261 C1236 0.950 . S
H1262 C1238 0.950 . S
H1263 C1239 0.949 . S
H1264 C1241 0.950 . S
H1265 C1243 0.950 . S
C1266 C1267 1.364 . S
C1266 C1268 1.327 . S
C1266 H1291 0.950 . S
C1267 C1266 1.364 . S
C1267 C1283 1.333 1_545 S
C1268 C1266 1.327 . S
C1268 C1287 1.436 . S
C1268 H1292 0.950 . S
C1269 C1286 1.574 . S
C1269 C1288 1.364 1_565 S
C1269 H1293 0.949 . S
H1270 C1274 0.949 . S
C1271 C1272 1.354 . S
C1271 C1273 1.327 . S
C1271 H1294 0.950 . S
C1272 C1271 1.354 . S
C1272 C1284 1.344 1_565 S
C1273 C1271 1.327 . S
C1273 C1289 1.426 . S
C1273 H1295 0.950 . S
C1274 H1270 0.949 . S
C1274 C1282 1.574 . S
C1274 C1290 1.365 . S
H1275 C1283 0.950 . S
H1276 C1281 0.950 . S
H1277 C1282 0.949 . S
H1278 C1284 0.950 . S
H1279 C1285 0.950 . S
H1280 C1286 0.949 . S
C1281 H1276 0.950 . S
C1281 C1283 1.327 . S
C1281 C1287 1.421 1_565 S
C1282 C1274 1.574 . S
C1282 H1277 0.949 . S
C1282 C1288 1.372 . S
C1283 C1267 1.333 1_565 S
C1283 H1275 0.950 . S
C1283 C1281 1.327 . S
C1284 C1272 1.344 1_545 S
C1284 H1278 0.950 . S
C1284 C1285 1.327 . S
C1285 H1279 0.950 . S
C1285 C1284 1.327 . S
C1285 C1289 1.431 1_545 S
C1286 C1269 1.574 . S
C1286 H1280 0.949 . S
C1286 C1290 1.372 1_565 S
C1287 C1268 1.436 . S
C1287 C1281 1.421 1_545 S
C1287 C1288 1.523 . S
C1288 C1269 1.364 1_545 S
C1288 C1282 1.372 . S
C1288 C1287 1.523 . S
C1289 C1273 1.426 . S
C1289 C1285 1.431 1_565 S
C1289 C1290 1.523 1_565 S
C1290 C1274 1.365 . S
C1290 C1286 1.372 1_545 S
C1290 C1289 1.523 1_545 S
H1291 C1266 0.950 . S
H1292 C1268 0.950 . S
H1293 C1269 0.949 . S
H1294 C1271 0.950 . S
H1295 C1273 0.950 . S
C1296 C1297 1.354 . S
C1296 C1298 1.327 . S
C1296 H1321 0.950 . S
C1297 C1296 1.354 . S
C1297 C1313 1.344 1_556 S
C1298 C1296 1.327 . S
C1298 C1317 1.426 . S
C1298 H1322 0.950 . S
C1299 C1316 1.574 . S
C1299 C1318 1.364 . S
C1299 H1323 0.949 . S
H1300 C1304 0.949 . S
C1301 C1302 1.364 . S
C1301 C1303 1.327 . S
C1301 H1324 0.950 . S
C1302 C1301 1.364 . S
C1302 C1314 1.334 1_554 S
C1303 C1301 1.327 . S
C1303 C1319 1.436 . S
C1303 H1325 0.950 . S
C1304 H1300 0.949 . S
C1304 C1312 1.574 . S
C1304 C1320 1.365 1_556 S
H1305 C1313 0.950 . S
H1306 C1311 0.950 . S
H1307 C1312 0.949 . S
H1308 C1314 0.950 . S
H1309 C1315 0.950 . S
H1310 C1316 0.949 . S
C1311 H1306 0.950 . S
C1311 C1313 1.327 . S
C1311 C1317 1.431 1_554 S
C1312 C1304 1.574 . S
C1312 H1307 0.949 . S
C1312 C1318 1.372 1_556 S
C1313 C1297 1.344 1_554 S
C1313 H1305 0.950 . S
C1313 C1311 1.327 . S
C1314 C1302 1.334 1_556 S
C1314 H1308 0.950 . S
C1314 C1315 1.327 . S
C1315 H1309 0.950 . S
C1315 C1314 1.327 . S
C1315 C1319 1.421 1_556 S
C1316 C1299 1.574 . S
C1316 H1310 0.949 . S
C1316 C1320 1.372 . S
C1317 C1298 1.426 . S
C1317 C1311 1.431 1_556 S
C1317 C1318 1.523 1_556 S
C1318 C1299 1.364 . S
C1318 C1312 1.372 1_554 S
C1318 C1317 1.523 1_554 S
C1319 C1303 1.436 . S
C1319 C1315 1.421 1_554 S
C1319 C1320 1.523 . S
C1320 C1304 1.365 1_554 S
C1320 C1316 1.372 . S
C1320 C1319 1.523 . S
H1321 C1296 0.950 . S
H1322 C1298 0.950 . S
H1323 C1299 0.949 . S
H1324 C1301 0.950 . S
H1325 C1303 0.950 . S
C1326 C1327 1.354 . S
C1326 C1328 1.327 . S
C1326 H1351 0.950 . S
C1327 C1326 1.354 . S
C1327 C1343 1.344 1_556 S
C1328 C1326 1.327 . S
C1328 C1347 1.426 . S
C1328 H1352 0.950 . S
C1329 C1346 1.574 . S
C1329 C1348 1.364 . S
C1329 H1353 0.949 . S
H1330 C1334 0.949 . S
C1331 C1332 1.365 . S
C1331 C1333 1.327 . S
C1331 H1354 0.950 . S
C1332 C1331 1.365 . S
C1332 C1344 1.333 1_554 S
C1333 C1331 1.327 . S
C1333 C1349 1.436 . S
C1333 H1355 0.950 . S
C1334 H1330 0.949 . S
C1334 C1342 1.574 . S
C1334 C1350 1.364 1_556 S
H1335 C1343 0.950 . S
H1336 C1341 0.950 . S
H1337 C1342 0.949 . S
H1338 C1344 0.950 . S
H1339 C1345 0.950 . S
H1340 C1346 0.949 . S
C1341 H1336 0.950 . S
C1341 C1343 1.327 . S
C1341 C1347 1.431 1_554 S
C1342 C1334 1.574 . S
C1342 H1337 0.949 . S
C1342 C1348 1.372 1_556 S
C1343 C1327 1.344 1_554 S
C1343 H1335 0.950 . S
C1343 C1341 1.327 . S
C1344 C1332 1.333 1_556 S
C1344 H1338 0.950 . S
C1344 C1345 1.327 . S
C1345 H1339 0.950 . S
C1345 C1344 1.327 . S
C1345 C1349 1.421 1_556 S
C1346 C1329 1.574 . S
C1346 H1340 0.949 . S
C1346 C1350 1.372 . S
C1347 C1328 1.426 . S
C1347 C1341 1.431 1_556 S
C1347 C1348 1.523 1_556 S
C1348 C1329 1.364 . S
C1348 C1342 1.372 1_554 S
C1348 C1347 1.523 1_554 S
C1349 C1333 1.436 . S
C1349 C1345 1.421 1_554 S
C1349 C1350 1.523 . S
C1350 C1334 1.364 1_554 S
C1350 C1346 1.372 . S
C1350 C1349 1.523 . S
H1351 C1326 0.950 . S
H1352 C1328 0.950 . S
H1353 C1329 0.949 . S
H1354 C1331 0.950 . S
H1355 C1333 0.950 . S
C1356 C1357 1.334 1_556 S
C1356 C1358 1.327 . S
C1356 H1381 0.950 . S
C1357 C1356 1.334 1_554 S
C1357 C1373 1.364 . S
C1358 C1356 1.327 . S
C1358 C1377 1.421 1_556 S
C1358 H1382 0.950 . S
C1359 C1376 1.574 . S
C1359 C1378 1.372 . S
C1359 H1383 0.949 . S
H1360 C1364 0.949 . S
C1361 C1362 1.344 1_554 S
C1361 C1363 1.327 . S
C1361 H1384 0.950 . S
C1362 C1361 1.344 1_556 S
C1362 C1374 1.354 . S
C1363 C1361 1.327 . S
C1363 C1379 1.431 1_554 S
C1363 H1385 0.950 . S
C1364 H1360 0.949 . S
C1364 C1372 1.574 . S
C1364 C1380 1.372 1_556 S
H1365 C1373 0.950 . S
H1366 C1371 0.950 . S
H1367 C1372 0.949 . S
H1368 C1374 0.950 . S
H1369 C1375 0.950 . S
H1370 C1376 0.949 . S
C1371 H1366 0.950 . S
C1371 C1373 1.327 . S
C1371 C1377 1.436 . S
C1372 C1364 1.574 . S
C1372 H1367 0.949 . S
C1372 C1378 1.364 1_556 S
C1373 C1357 1.364 . S
C1373 H1365 0.950 . S
C1373 C1371 1.327 . S
C1374 C1362 1.354 . S
C1374 H1368 0.950 . S
C1374 C1375 1.327 . S
C1375 H1369 0.950 . S
C1375 C1374 1.327 . S
C1375 C1379 1.426 . S
C1376 C1359 1.574 . S
C1376 H1370 0.949 . S
C1376 C1380 1.364 . S
C1377 C1358 1.421 1_554 S
C1377 C1371 1.436 . S
C1377 C1378 1.523 . S
C1378 C1359 1.372 . S
C1378 C1372 1.364 1_554 S
C1378 C1377 1.523 . S
C1379 C1363 1.431 1_556 S
C1379 C1375 1.426 . S
C1379 C1380 1.523 1_556 S
C1380 C1364 1.372 1_554 S
C1380 C1376 1.364 . S
C1380 C1379 1.523 1_554 S
H1381 C1356 0.950 . S
H1382 C1358 0.950 . S
H1383 C1359 0.949 . S
H1384 C1361 0.950 . S
H1385 C1363 0.950 . S
C1386 C1387 1.334 1_556 S
C1386 C1388 1.327 . S
C1386 H1411 0.950 . S
C1387 C1386 1.334 1_554 S
C1387 C1403 1.364 . S
C1388 C1386 1.327 . S
C1388 C1407 1.421 1_556 S
C1388 H1412 0.950 . S
C1389 C1406 1.574 . S
C1389 C1408 1.372 . S
C1389 H1413 0.949 . S
H1390 C1394 0.949 . S
C1391 C1392 1.344 1_554 S
C1391 C1393 1.327 . S
C1391 H1414 0.950 . S
C1392 C1391 1.344 1_556 S
C1392 C1404 1.354 . S
C1393 C1391 1.327 . S
C1393 C1409 1.431 1_554 S
C1393 H1415 0.950 . S
C1394 H1390 0.949 . S
C1394 C1402 1.574 . S
C1394 C1410 1.372 1_556 S
H1395 C1403 0.950 . S
H1396 C1401 0.950 . S
H1397 C1402 0.949 . S
H1398 C1404 0.950 . S
H1399 C1405 0.950 . S
H1400 C1406 0.949 . S
C1401 H1396 0.950 . S
C1401 C1403 1.327 . S
C1401 C1407 1.436 . S
C1402 C1394 1.574 . S
C1402 H1397 0.949 . S
C1402 C1408 1.364 1_556 S
C1403 C1387 1.364 . S
C1403 H1395 0.950 . S
C1403 C1401 1.327 . S
C1404 C1392 1.354 . S
C1404 H1398 0.950 . S
C1404 C1405 1.327 . S
C1405 H1399 0.950 . S
C1405 C1404 1.327 . S
C1405 C1409 1.426 . S
C1406 C1389 1.574 . S
C1406 H1400 0.949 . S
C1406 C1410 1.364 . S
C1407 C1388 1.421 1_554 S
C1407 C1401 1.436 . S
C1407 C1408 1.523 . S
C1408 C1389 1.372 . S
C1408 C1402 1.364 1_554 S
C1408 C1407 1.523 . S
C1409 C1393 1.431 1_556 S
C1409 C1405 1.426 . S
C1409 C1410 1.523 1_556 S
C1410 C1394 1.372 1_554 S
C1410 C1406 1.364 . S
C1410 C1409 1.523 1_554 S
H1411 C1386 0.950 . S
H1412 C1388 0.950 . S
H1413 C1389 0.949 . S
H1414 C1391 0.950 . S
H1415 C1393 0.950 . S
C1416 C1417 1.349 . S
C1416 C1418 1.327 . S
C1416 H1441 0.950 . S
C1417 C1416 1.349 . S
C1417 C1433 1.349 . S
C1418 C1416 1.327 . S
C1418 C1437 1.429 . S
C1418 H1442 0.950 . S
C1419 C1436 1.574 . S
C1419 C1438 1.368 . S
C1419 H1443 0.949 . S
H1420 C1424 0.949 . S
C1421 C1422 1.349 . S
C1421 C1423 1.327 . S
C1421 H1444 0.950 . S
C1422 C1421 1.349 . S
C1422 C1434 1.349 . S
C1423 C1421 1.327 . S
C1423 C1439 1.429 . S
C1423 H1445 0.950 . S
C1424 H1420 0.949 . S
C1424 C1432 1.574 . S
C1424 C1440 1.368 . S
H1425 C1433 0.950 . S
H1426 C1431 0.950 . S
H1427 C1432 0.949 . S
H1428 C1434 0.950 . S
H1429 C1435 0.950 . S
H1430 C1436 0.949 . S
C1431 H1426 0.950 . S
C1431 C1433 1.327 . S
C1431 C1437 1.429 . S
C1432 C1424 1.574 . S
C1432 H1427 0.949 . S
C1432 C1438 1.368 . S
C1433 C1417 1.349 . S
C1433 H1425 0.950 . S
C1433 C1431 1.327 . S
C1434 C1422 1.349 . S
C1434 H1428 0.950 . S
C1434 C1435 1.327 . S
C1435 H1429 0.950 . S
C1435 C1434 1.327 . S
C1435 C1439 1.429 . S
C1436 C1419 1.574 . S
C1436 H1430 0.949 . S
C1436 C1440 1.368 . S
C1437 C1418 1.429 . S
C1437 C1431 1.429 . S
C1437 C1438 1.523 . S
C1438 C1419 1.368 . S
C1438 C1432 1.368 . S
C1438 C1437 1.523 . S
C1439 C1423 1.429 . S
C1439 C1435 1.429 . S
C1439 C1440 1.523 . S
C1440 C1424 1.368 . S
C1440 C1436 1.368 . S
C1440 C1439 1.523 . S
H1441 C1416 0.950 . S
H1442 C1418 0.950 . S
H1443 C1419 0.949 . S
H1444 C1421 0.950 . S
H1445 C1423 0.950 . S
C1446 C1447 1.349 . S
C1446 C1448 1.327 . S
C1446 H1471 0.950 . S
C1447 C1446 1.349 . S
C1447 C1463 1.349 . S
C1448 C1446 1.327 . S
C1448 C1467 1.429 . S
C1448 H1472 0.950 . S
C1449 C1466 1.574 . S
C1449 C1468 1.368 . S
C1449 H1473 0.949 . S
H1450 C1454 0.949 . S
C1451 C1452 1.349 . S
C1451 C1453 1.327 . S
C1451 H1474 0.950 . S
C1452 C1451 1.349 . S
C1452 C1464 1.349 . S
C1453 C1451 1.327 . S
C1453 C1469 1.429 . S
C1453 H1475 0.950 . S
C1454 H1450 0.949 . S
C1454 C1462 1.574 . S
C1454 C1470 1.368 . S
H1455 C1463 0.950 . S
H1456 C1461 0.950 . S
H1457 C1462 0.949 . S
H1458 C1464 0.950 . S
H1459 C1465 0.950 . S
H1460 C1466 0.949 . S
C1461 H1456 0.950 . S
C1461 C1463 1.327 . S
C1461 C1467 1.429 . S
C1462 C1454 1.574 . S
C1462 H1457 0.949 . S
C1462 C1468 1.368 . S
C1463 C1447 1.349 . S
C1463 H1455 0.950 . S
C1463 C1461 1.327 . S
C1464 C1452 1.349 . S
C1464 H1458 0.950 . S
C1464 C1465 1.327 . S
C1465 H1459 0.950 . S
C1465 C1464 1.327 . S
C1465 C1469 1.429 . S
C1466 C1449 1.574 . S
C1466 H1460 0.949 . S
C1466 C1470 1.368 . S
C1467 C1448 1.429 . S
C1467 C1461 1.429 . S
C1467 C1468 1.523 . S
C1468 C1449 1.368 . S
C1468 C1462 1.368 . S
C1468 C1467 1.523 . S
C1469 C1453 1.429 . S
C1469 C1465 1.429 . S
C1469 C1470 1.523 . S
C1470 C1454 1.368 . S
C1470 C1466 1.368 . S
C1470 C1469 1.523 . S
H1471 C1446 0.950 . S
H1472 C1448 0.950 . S
H1473 C1449 0.949 . S
H1474 C1451 0.950 . S
H1475 C1453 0.950 . S
C1476 C1477 1.349 . S
C1476 C1478 1.327 . S
C1476 H1501 0.950 . S
C1477 C1476 1.349 . S
C1477 C1493 1.349 . S
C1478 C1476 1.327 . S
C1478 C1497 1.429 . S
C1478 H1502 0.950 . S
C1479 C1496 1.574 . S
C1479 C1498 1.368 . S
C1479 H1503 0.949 . S
H1480 C1484 0.949 . S
C1481 C1482 1.349 . S
C1481 C1483 1.327 . S
C1481 H1504 0.950 . S
C1482 C1481 1.349 . S
C1482 C1494 1.349 . S
C1483 C1481 1.327 . S
C1483 C1499 1.429 . S
C1483 H1505 0.950 . S
C1484 H1480 0.949 . S
C1484 C1492 1.574 . S
C1484 C1500 1.368 . S
H1485 C1493 0.950 . S
H1486 C1491 0.950 . S
H1487 C1492 0.949 . S
H1488 C1494 0.950 . S
H1489 C1495 0.950 . S
H1490 C1496 0.949 . S
C1491 H1486 0.950 . S
C1491 C1493 1.327 . S
C1491 C1497 1.429 . S
C1492 C1484 1.574 . S
C1492 H1487 0.949 . S
C1492 C1498 1.368 . S
C1493 C1477 1.349 . S
C1493 H1485 0.950 . S
C1493 C1491 1.327 . S
C1494 C1482 1.349 . S
C1494 H1488 0.950 . S
C1494 C1495 1.327 . S
C1495 H1489 0.950 . S
C1495 C1494 1.327 . S
C1495 C1499 1.429 . S
C1496 C1479 1.574 . S
C1496 H1490 0.949 . S
C1496 C1500 1.368 . S
C1497 C1478 1.429 . S
C1497 C1491 1.429 . S
C1497 C1498 1.523 . S
C1498 C1479 1.368 . S
C1498 C1492 1.368 . S
C1498 C1497 1.523 . S
C1499 C1483 1.429 . S
C1499 C1495 1.429 . S
C1499 C1500 1.523 . S
C1500 C1484 1.368 . S
C1500 C1496 1.368 . S
C1500 C1499 1.523 . S
H1501 C1476 0.950 . S
H1502 C1478 0.950 . S
H1503 C1479 0.949 . S
H1504 C1481 0.950 . S
H1505 C1483 0.950 . S
C1506 C1507 1.349 . S
C1506 C1508 1.327 . S
C1506 H1531 0.950 . S
C1507 C1506 1.349 . S
C1507 C1523 1.349 . S
C1508 C1506 1.327 . S
C1508 C1527 1.429 . S
C1508 H1532 0.950 . S
C1509 C1526 1.574 . S
C1509 C1528 1.368 . S
C1509 H1533 0.949 . S
H1510 C1514 0.949 . S
C1511 C1512 1.349 . S
C1511 C1513 1.327 . S
C1511 H1534 0.950 . S
C1512 C1511 1.349 . S
C1512 C1524 1.349 . S
C1513 C1511 1.327 . S
C1513 C1529 1.429 . S
C1513 H1535 0.950 . S
C1514 H1510 0.949 . S
C1514 C1522 1.574 . S
C1514 C1530 1.368 . S
H1515 C1523 0.950 . S
H1516 C1521 0.950 . S
H1517 C1522 0.949 . S
H1518 C1524 0.950 . S
H1519 C1525 0.950 . S
H1520 C1526 0.949 . S
C1521 H1516 0.950 . S
C1521 C1523 1.327 . S
C1521 C1527 1.429 . S
C1522 C1514 1.574 . S
C1522 H1517 0.949 . S
C1522 C1528 1.368 . S
C1523 C1507 1.349 . S
C1523 H1515 0.950 . S
C1523 C1521 1.327 . S
C1524 C1512 1.349 . S
C1524 H1518 0.950 . S
C1524 C1525 1.327 . S
C1525 H1519 0.950 . S
C1525 C1524 1.327 . S
C1525 C1529 1.429 . S
C1526 C1509 1.574 . S
C1526 H1520 0.949 . S
C1526 C1530 1.368 . S
C1527 C1508 1.429 . S
C1527 C1521 1.429 . S
C1527 C1528 1.523 . S
C1528 C1509 1.368 . S
C1528 C1522 1.368 . S
C1528 C1527 1.523 . S
C1529 C1513 1.429 . S
C1529 C1525 1.429 . S
C1529 C1530 1.523 . S
C1530 C1514 1.368 . S
C1530 C1526 1.368 . S
C1530 C1529 1.523 . S
H1531 C1506 0.950 . S
H1532 C1508 0.950 . S
H1533 C1509 0.949 . S
H1534 C1511 0.950 . S
H1535 C1513 0.950 . S
C1536 C1537 1.349 . S
C1536 C1538 1.327 . S
C1536 H1561 0.950 . S
C1537 C1536 1.349 . S
C1537 C1553 1.349 . S
C1538 C1536 1.327 . S
C1538 C1557 1.429 . S
C1538 H1562 0.950 . S
C1539 C1556 1.574 . S
C1539 C1558 1.368 . S
C1539 H1563 0.949 . S
H1540 C1544 0.949 . S
C1541 C1542 1.349 . S
C1541 C1543 1.327 . S
C1541 H1564 0.950 . S
C1542 C1541 1.349 . S
C1542 C1554 1.349 . S
C1543 C1541 1.327 . S
C1543 C1559 1.429 . S
C1543 H1565 0.950 . S
C1544 H1540 0.949 . S
C1544 C1552 1.574 . S
C1544 C1560 1.368 . S
H1545 C1553 0.950 . S
H1546 C1551 0.950 . S
H1547 C1552 0.949 . S
H1548 C1554 0.950 . S
H1549 C1555 0.950 . S
H1550 C1556 0.949 . S
C1551 H1546 0.950 . S
C1551 C1553 1.327 . S
C1551 C1557 1.429 . S
C1552 C1544 1.574 . S
C1552 H1547 0.949 . S
C1552 C1558 1.368 . S
C1553 C1537 1.349 . S
C1553 H1545 0.950 . S
C1553 C1551 1.327 . S
C1554 C1542 1.349 . S
C1554 H1548 0.950 . S
C1554 C1555 1.327 . S
C1555 H1549 0.950 . S
C1555 C1554 1.327 . S
C1555 C1559 1.429 . S
C1556 C1539 1.574 . S
C1556 H1550 0.949 . S
C1556 C1560 1.368 . S
C1557 C1538 1.429 . S
C1557 C1551 1.429 . S
C1557 C1558 1.523 . S
C1558 C1539 1.368 . S
C1558 C1552 1.368 . S
C1558 C1557 1.523 . S
C1559 C1543 1.429 . S
C1559 C1555 1.429 . S
C1559 C1560 1.523 . S
C1560 C1544 1.368 . S
C1560 C1556 1.368 . S
C1560 C1559 1.523 . S
H1561 C1536 0.950 . S
H1562 C1538 0.950 . S
H1563 C1539 0.949 . S
H1564 C1541 0.950 . S
H1565 C1543 0.950 . S
C1566 C1567 1.349 . S
C1566 C1568 1.327 . S
C1566 H1591 0.950 . S
C1567 C1566 1.349 . S
C1567 C1583 1.349 . S
C1568 C1566 1.327 . S
C1568 C1587 1.429 . S
C1568 H1592 0.950 . S
C1569 C1586 1.574 . S
C1569 C1588 1.368 . S
C1569 H1593 0.949 . S
H1570 C1574 0.949 . S
C1571 C1572 1.349 . S
C1571 C1573 1.327 . S
C1571 H1594 0.950 . S
C1572 C1571 1.349 . S
C1572 C1584 1.349 . S
C1573 C1571 1.327 . S
C1573 C1589 1.429 . S
C1573 H1595 0.950 . S
C1574 H1570 0.949 . S
C1574 C1582 1.574 . S
C1574 C1590 1.368 . S
H1575 C1583 0.950 . S
H1576 C1581 0.950 . S
H1577 C1582 0.949 . S
H1578 C1584 0.950 . S
H1579 C1585 0.950 . S
H1580 C1586 0.949 . S
C1581 H1576 0.950 . S
C1581 C1583 1.327 . S
C1581 C1587 1.429 . S
C1582 C1574 1.574 . S
C1582 H1577 0.949 . S
C1582 C1588 1.368 . S
C1583 C1567 1.349 . S
C1583 H1575 0.950 . S
C1583 C1581 1.327 . S
C1584 C1572 1.349 . S
C1584 H1578 0.950 . S
C1584 C1585 1.327 . S
C1585 H1579 0.950 . S
C1585 C1584 1.327 . S
C1585 C1589 1.429 . S
C1586 C1569 1.574 . S
C1586 H1580 0.949 . S
C1586 C1590 1.368 . S
C1587 C1568 1.429 . S
C1587 C1581 1.429 . S
C1587 C1588 1.523 . S
C1588 C1569 1.368 . S
C1588 C1582 1.368 . S
C1588 C1587 1.523 . S
C1589 C1573 1.429 . S
C1589 C1585 1.429 . S
C1589 C1590 1.523 . S
C1590 C1574 1.368 . S
C1590 C1586 1.368 . S
C1590 C1589 1.523 . S
H1591 C1566 0.950 . S
H1592 C1568 0.950 . S
H1593 C1569 0.949 . S
H1594 C1571 0.950 . S
H1595 C1573 0.950 . S
C1596 C1597 1.349 . S
C1596 C1598 1.327 . S
C1596 H1621 0.950 . S
C1597 C1596 1.349 . S
C1597 C1613 1.349 . S
C1598 C1596 1.327 . S
C1598 C1617 1.429 . S
C1598 H1622 0.950 . S
C1599 C1616 1.574 . S
C1599 C1618 1.368 . S
C1599 H1623 0.949 . S
H1600 C1604 0.949 . S
C1601 C1602 1.349 . S
C1601 C1603 1.327 . S
C1601 H1624 0.950 . S
C1602 C1601 1.349 . S
C1602 C1614 1.349 . S
C1603 C1601 1.327 . S
C1603 C1619 1.429 . S
C1603 H1625 0.950 . S
C1604 H1600 0.949 . S
C1604 C1612 1.574 . S
C1604 C1620 1.368 . S
H1605 C1613 0.950 . S
H1606 C1611 0.950 . S
H1607 C1612 0.949 . S
H1608 C1614 0.950 . S
H1609 C1615 0.950 . S
H1610 C1616 0.949 . S
C1611 H1606 0.950 . S
C1611 C1613 1.327 . S
C1611 C1617 1.429 . S
C1612 C1604 1.574 . S
C1612 H1607 0.949 . S
C1612 C1618 1.368 . S
C1613 C1597 1.349 . S
C1613 H1605 0.950 . S
C1613 C1611 1.327 . S
C1614 C1602 1.349 . S
C1614 H1608 0.950 . S
C1614 C1615 1.327 . S
C1615 H1609 0.950 . S
C1615 C1614 1.327 . S
C1615 C1619 1.429 . S
C1616 C1599 1.574 . S
C1616 H1610 0.949 . S
C1616 C1620 1.368 . S
C1617 C1598 1.429 . S
C1617 C1611 1.429 . S
C1617 C1618 1.523 . S
C1618 C1599 1.368 . S
C1618 C1612 1.368 . S
C1618 C1617 1.523 . S
C1619 C1603 1.429 . S
C1619 C1615 1.429 . S
C1619 C1620 1.523 . S
C1620 C1604 1.368 . S
C1620 C1616 1.368 . S
C1620 C1619 1.523 . S
H1621 C1596 0.950 . S
H1622 C1598 0.950 . S
H1623 C1599 0.949 . S
H1624 C1601 0.950 . S
H1625 C1603 0.950 . S
C1626 C1627 1.349 . S
C1626 C1628 1.327 . S
C1626 H1651 0.950 . S
C1627 C1626 1.349 . S
C1627 C1643 1.349 . S
C1628 C1626 1.327 . S
C1628 C1647 1.429 . S
C1628 H1652 0.950 . S
C1629 C1646 1.574 . S
C1629 C1648 1.368 . S
C1629 H1653 0.949 . S
H1630 C1634 0.949 . S
C1631 C1632 1.349 . S
C1631 C1633 1.327 . S
C1631 H1654 0.950 . S
C1632 C1631 1.349 . S
C1632 C1644 1.349 . S
C1633 C1631 1.327 . S
C1633 C1649 1.429 . S
C1633 H1655 0.950 . S
C1634 H1630 0.949 . S
C1634 C1642 1.574 . S
C1634 C1650 1.368 . S
H1635 C1643 0.950 . S
H1636 C1641 0.950 . S
H1637 C1642 0.949 . S
H1638 C1644 0.950 . S
H1639 C1645 0.950 . S
H1640 C1646 0.949 . S
C1641 H1636 0.950 . S
C1641 C1643 1.327 . S
C1641 C1647 1.429 . S
C1642 C1634 1.574 . S
C1642 H1637 0.949 . S
C1642 C1648 1.368 . S
C1643 C1627 1.349 . S
C1643 H1635 0.950 . S
C1643 C1641 1.327 . S
C1644 C1632 1.349 . S
C1644 H1638 0.950 . S
C1644 C1645 1.327 . S
C1645 H1639 0.950 . S
C1645 C1644 1.327 . S
C1645 C1649 1.429 . S
C1646 C1629 1.574 . S
C1646 H1640 0.949 . S
C1646 C1650 1.368 . S
C1647 C1628 1.429 . S
C1647 C1641 1.429 . S
C1647 C1648 1.523 . S
C1648 C1629 1.368 . S
C1648 C1642 1.368 . S
C1648 C1647 1.523 . S
C1649 C1633 1.429 . S
C1649 C1645 1.429 . S
C1649 C1650 1.523 . S
C1650 C1634 1.368 . S
C1650 C1646 1.368 . S
C1650 C1649 1.523 . S
H1651 C1626 0.950 . S
H1652 C1628 0.950 . S
H1653 C1629 0.949 . S
H1654 C1631 0.950 . S
H1655 C1633 0.950 . S
C1656 C1657 1.349 . S
C1656 C1658 1.327 . S
C1656 H1681 0.950 . S
C1657 C1656 1.349 . S
C1657 C1673 1.349 . S
C1658 C1656 1.327 . S
C1658 C1677 1.429 . S
C1658 H1682 0.950 . S
C1659 C1676 1.574 . S
C1659 C1678 1.368 . S
C1659 H1683 0.949 . S
H1660 C1664 0.949 . S
C1661 C1662 1.349 . S
C1661 C1663 1.327 . S
C1661 H1684 0.950 . S
C1662 C1661 1.349 . S
C1662 C1674 1.349 . S
C1663 C1661 1.327 . S
C1663 C1679 1.429 . S
C1663 H1685 0.950 . S
C1664 H1660 0.949 . S
C1664 C1672 1.574 . S
C1664 C1680 1.368 . S
H1665 C1673 0.950 . S
H1666 C1671 0.950 . S
H1667 C1672 0.949 . S
H1668 C1674 0.950 . S
H1669 C1675 0.950 . S
H1670 C1676 0.949 . S
C1671 H1666 0.950 . S
C1671 C1673 1.327 . S
C1671 C1677 1.429 . S
C1672 C1664 1.574 . S
C1672 H1667 0.949 . S
C1672 C1678 1.368 . S
C1673 C1657 1.349 . S
C1673 H1665 0.950 . S
C1673 C1671 1.327 . S
C1674 C1662 1.349 . S
C1674 H1668 0.950 . S
C1674 C1675 1.327 . S
C1675 H1669 0.950 . S
C1675 C1674 1.327 . S
C1675 C1679 1.429 . S
C1676 C1659 1.574 . S
C1676 H1670 0.949 . S
C1676 C1680 1.368 . S
C1677 C1658 1.429 . S
C1677 C1671 1.429 . S
C1677 C1678 1.523 . S
C1678 C1659 1.368 . S
C1678 C1672 1.368 . S
C1678 C1677 1.523 . S
C1679 C1663 1.429 . S
C1679 C1675 1.429 . S
C1679 C1680 1.523 . S
C1680 C1664 1.368 . S
C1680 C1676 1.368 . S
C1680 C1679 1.523 . S
H1681 C1656 0.950 . S
H1682 C1658 0.950 . S
H1683 C1659 0.949 . S
H1684 C1661 0.950 . S
H1685 C1663 0.950 . S
C1686 C1687 1.349 . S
C1686 C1688 1.327 . S
C1686 H1711 0.950 . S
C1687 C1686 1.349 . S
C1687 C1703 1.349 . S
C1688 C1686 1.327 . S
C1688 C1707 1.429 . S
C1688 H1712 0.950 . S
C1689 C1706 1.574 . S
C1689 C1708 1.368 . S
C1689 H1713 0.949 . S
H1690 C1694 0.949 . S
C1691 C1692 1.349 . S
C1691 C1693 1.327 . S
C1691 H1714 0.950 . S
C1692 C1691 1.349 . S
C1692 C1704 1.349 . S
C1693 C1691 1.327 . S
C1693 C1709 1.429 . S
C1693 H1715 0.950 . S
C1694 H1690 0.949 . S
C1694 C1702 1.574 . S
C1694 C1710 1.368 . S
H1695 C1703 0.950 . S
H1696 C1701 0.950 . S
H1697 C1702 0.949 . S
H1698 C1704 0.950 . S
H1699 C1705 0.950 . S
H1700 C1706 0.949 . S
C1701 H1696 0.950 . S
C1701 C1703 1.327 . S
C1701 C1707 1.429 . S
C1702 C1694 1.574 . S
C1702 H1697 0.949 . S
C1702 C1708 1.368 . S
C1703 C1687 1.349 . S
C1703 H1695 0.950 . S
C1703 C1701 1.327 . S
C1704 C1692 1.349 . S
C1704 H1698 0.950 . S
C1704 C1705 1.327 . S
C1705 H1699 0.950 . S
C1705 C1704 1.327 . S
C1705 C1709 1.429 . S
C1706 C1689 1.574 . S
C1706 H1700 0.949 . S
C1706 C1710 1.368 . S
C1707 C1688 1.429 . S
C1707 C1701 1.429 . S
C1707 C1708 1.523 . S
C1708 C1689 1.368 . S
C1708 C1702 1.368 . S
C1708 C1707 1.523 . S
C1709 C1693 1.429 . S
C1709 C1705 1.429 . S
C1709 C1710 1.523 . S
C1710 C1694 1.368 . S
C1710 C1706 1.368 . S
C1710 C1709 1.523 . S
H1711 C1686 0.950 . S
H1712 C1688 0.950 . S
H1713 C1689 0.949 . S
H1714 C1691 0.950 . S
H1715 C1693 0.950 . S
C1716 C1717 1.349 . S
C1716 C1718 1.327 . S
C1716 H1741 0.950 . S
C1717 C1716 1.349 . S
C1717 C1733 1.349 . S
C1718 C1716 1.327 . S
C1718 C1737 1.429 . S
C1718 H1742 0.950 . S
C1719 C1736 1.574 . S
C1719 C1738 1.368 . S
C1719 H1743 0.949 . S
H1720 C1724 0.949 . S
C1721 C1722 1.349 . S
C1721 C1723 1.327 . S
C1721 H1744 0.950 . S
C1722 C1721 1.349 . S
C1722 C1734 1.349 . S
C1723 C1721 1.327 . S
C1723 C1739 1.429 . S
C1723 H1745 0.950 . S
C1724 H1720 0.949 . S
C1724 C1732 1.574 . S
C1724 C1740 1.368 . S
H1725 C1733 0.950 . S
H1726 C1731 0.950 . S
H1727 C1732 0.949 . S
H1728 C1734 0.950 . S
H1729 C1735 0.950 . S
H1730 C1736 0.949 . S
C1731 H1726 0.950 . S
C1731 C1733 1.327 . S
C1731 C1737 1.429 . S
C1732 C1724 1.574 . S
C1732 H1727 0.949 . S
C1732 C1738 1.368 . S
C1733 C1717 1.349 . S
C1733 H1725 0.950 . S
C1733 C1731 1.327 . S
C1734 C1722 1.349 . S
C1734 H1728 0.950 . S
C1734 C1735 1.327 . S
C1735 H1729 0.950 . S
C1735 C1734 1.327 . S
C1735 C1739 1.429 . S
C1736 C1719 1.574 . S
C1736 H1730 0.949 . S
C1736 C1740 1.368 . S
C1737 C1718 1.429 . S
C1737 C1731 1.429 . S
C1737 C1738 1.523 . S
C1738 C1719 1.368 . S
C1738 C1732 1.368 . S
C1738 C1737 1.523 . S
C1739 C1723 1.429 . S
C1739 C1735 1.429 . S
C1739 C1740 1.523 . S
C1740 C1724 1.368 . S
C1740 C1736 1.368 . S
C1740 C1739 1.523 . S
H1741 C1716 0.950 . S
H1742 C1718 0.950 . S
H1743 C1719 0.949 . S
H1744 C1721 0.950 . S
H1745 C1723 0.950 . S
C1746 C1747 1.349 . S
C1746 C1748 1.327 . S
C1746 H1771 0.950 . S
C1747 C1746 1.349 . S
C1747 C1763 1.349 . S
C1748 C1746 1.327 . S
C1748 C1767 1.429 . S
C1748 H1772 0.950 . S
C1749 C1766 1.574 . S
C1749 C1768 1.368 . S
C1749 H1773 0.949 . S
H1750 C1754 0.949 . S
C1751 C1752 1.349 . S
C1751 C1753 1.327 . S
C1751 H1774 0.950 . S
C1752 C1751 1.349 . S
C1752 C1764 1.349 . S
C1753 C1751 1.327 . S
C1753 C1769 1.429 . S
C1753 H1775 0.950 . S
C1754 H1750 0.949 . S
C1754 C1762 1.574 . S
C1754 C1770 1.368 . S
H1755 C1763 0.950 . S
H1756 C1761 0.950 . S
H1757 C1762 0.949 . S
H1758 C1764 0.950 . S
H1759 C1765 0.950 . S
H1760 C1766 0.949 . S
C1761 H1756 0.950 . S
C1761 C1763 1.327 . S
C1761 C1767 1.429 . S
C1762 C1754 1.574 . S
C1762 H1757 0.949 . S
C1762 C1768 1.368 . S
C1763 C1747 1.349 . S
C1763 H1755 0.950 . S
C1763 C1761 1.327 . S
C1764 C1752 1.349 . S
C1764 H1758 0.950 . S
C1764 C1765 1.327 . S
C1765 H1759 0.950 . S
C1765 C1764 1.327 . S
C1765 C1769 1.429 . S
C1766 C1749 1.574 . S
C1766 H1760 0.949 . S
C1766 C1770 1.368 . S
C1767 C1748 1.429 . S
C1767 C1761 1.429 . S
C1767 C1768 1.523 . S
C1768 C1749 1.368 . S
C1768 C1762 1.368 . S
C1768 C1767 1.523 . S
C1769 C1753 1.429 . S
C1769 C1765 1.429 . S
C1769 C1770 1.523 . S
C1770 C1754 1.368 . S
C1770 C1766 1.368 . S
C1770 C1769 1.523 . S
H1771 C1746 0.950 . S
H1772 C1748 0.950 . S
H1773 C1749 0.949 . S
H1774 C1751 0.950 . S
H1775 C1753 0.950 . S
C1057 C49 1.146 . S
C1062 C469 1.146 1_655 S
C1087 C145 1.146 . S
C1092 C401 1.146 1_565 S
C1117 C489 1.146 . S
C1122 C225 1.146 1_655 S
C1147 C313 1.146 1_565 S
C1152 C381 1.146 . S
C1177 C636 1.146 1_655 S
C1182 C205 1.146 . S
C1207 C548 1.146 1_565 S
C1212 C293 1.146 . S
C1237 C29 1.146 1_655 S
C1242 C673 1.146 . S
C1267 C585 1.146 . S
C1272 C108 1.146 1_565 S
C1297 C849 1.146 1_556 S
C1302 C733 1.146 . S
C1327 C753 1.146 1_556 S
C1332 C997 1.146 . S
C1357 C812 1.146 . S
C1362 C937 1.146 1_556 S
C1387 C900 1.146 . S
C1392 C1017 1.146 1_556 S
C1417 C1025 1.146 . S
C1422 C557 1.151 . S
C1447 C761 1.146 . S
C1452 C665 1.146 . S
C1477 C577 1.146 . S
C1482 C841 1.147 . S
C1507 C645 1.146 . S
C1512 C929 1.151 . S
C1537 C372 1.146 . S
C1542 C821 1.141 . S
C1567 C460 1.146 . S
C1572 C909 1.145 . S
C1597 C988 1.146 . S
C1602 C409 1.146 . S
C1627 C724 1.146 . S
C1632 C497 1.141 . S
C1657 C117 1.146 . S
C1662 C233 1.150 . S
C1687 C20 1.146 . S
C1692 C137 1.146 . S
C1717 C196 1.146 . S
C1722 C321 1.146 . S
C1747 C57 1.146 . S
C1752 C284 1.142 . S
