# Generated by pormake.
# Topology uou, (4)-cn, num edge types: 1
# Building blocks:
#     Node 0, Type 0, BuildingBlock: QUQFOY_clean_sbu_1, # of connection points: 4
#     Node 1, Type 0, BuildingBlock: QUQFOY_clean_sbu_1, # of connection points: 4
#     Node 2, Type 0, BuildingBlock: QUQFOY_clean_sbu_1, # of connection points: 4
#     Node 3, Type 0, BuildingBlock: QUQFOY_clean_sbu_1, # of connection points: 4
#     Node 4, Type 0, BuildingBlock: QUQFOY_clean_sbu_1, # of connection points: 4
#     Node 5, Type 0, BuildingBlock: QUQFOY_clean_sbu_1, # of connection points: 4
#     Node 6, Type 0, BuildingBlock: QUQFOY_clean_sbu_1, # of connection points: 4
#     Node 7, Type 0, BuildingBlock: QUQFOY_clean_sbu_1, # of connection points: 4
#     Node 8, Type 0, BuildingBlock: QUQFOY_clean_sbu_1, # of connection points: 4
#     Node 9, Type 0, BuildingBlock: QUQFOY_clean_sbu_1, # of connection points: 4
#     Node 10, Type 0, BuildingBlock: QUQFOY_clean_sbu_1, # of connection points: 4
#     Node 11, Type 0, BuildingBlock: QUQFOY_clean_sbu_1, # of connection points: 4
#     Node 12, Type 0, BuildingBlock: QUQFOY_clean_sbu_1, # of connection points: 4
#     Node 13, Type 0, BuildingBlock: QUQFOY_clean_sbu_1, # of connection points: 4
#     Node 14, Type 0, BuildingBlock: QUQFOY_clean_sbu_1, # of connection points: 4
#     Node 15, Type 0, BuildingBlock: QUQFOY_clean_sbu_1, # of connection points: 4
#     Edge 16, Type (0, 0), BuildingBlock: XIVTED_clean_linker_0, # of connection points: 2
#     Edge 17, Type (0, 0), BuildingBlock: XIVTED_clean_linker_0, # of connection points: 2
#     Edge 18, Type (0, 0), BuildingBlock: XIVTED_clean_linker_0, # of connection points: 2
#     Edge 19, Type (0, 0), BuildingBlock: XIVTED_clean_linker_0, # of connection points: 2
#     Edge 20, Type (0, 0), BuildingBlock: XIVTED_clean_linker_0, # of connection points: 2
#     Edge 21, Type (0, 0), BuildingBlock: XIVTED_clean_linker_0, # of connection points: 2
#     Edge 22, Type (0, 0), BuildingBlock: XIVTED_clean_linker_0, # of connection points: 2
#     Edge 23, Type (0, 0), BuildingBlock: XIVTED_clean_linker_0, # of connection points: 2
#     Edge 24, Type (0, 0), BuildingBlock: XIVTED_clean_linker_0, # of connection points: 2
#     Edge 25, Type (0, 0), BuildingBlock: XIVTED_clean_linker_0, # of connection points: 2
#     Edge 26, Type (0, 0), BuildingBlock: XIVTED_clean_linker_0, # of connection points: 2
#     Edge 27, Type (0, 0), BuildingBlock: XIVTED_clean_linker_0, # of connection points: 2
#     Edge 28, Type (0, 0), BuildingBlock: XIVTED_clean_linker_0, # of connection points: 2
#     Edge 29, Type (0, 0), BuildingBlock: XIVTED_clean_linker_0, # of connection points: 2
#     Edge 30, Type (0, 0), BuildingBlock: XIVTED_clean_linker_0, # of connection points: 2
#     Edge 31, Type (0, 0), BuildingBlock: XIVTED_clean_linker_0, # of connection points: 2
#     Edge 32, Type (0, 0), BuildingBlock: XIVTED_clean_linker_0, # of connection points: 2
#     Edge 33, Type (0, 0), BuildingBlock: XIVTED_clean_linker_0, # of connection points: 2
#     Edge 34, Type (0, 0), BuildingBlock: XIVTED_clean_linker_0, # of connection points: 2
#     Edge 35, Type (0, 0), BuildingBlock: XIVTED_clean_linker_0, # of connection points: 2
#     Edge 36, Type (0, 0), BuildingBlock: XIVTED_clean_linker_0, # of connection points: 2
#     Edge 37, Type (0, 0), BuildingBlock: XIVTED_clean_linker_0, # of connection points: 2
#     Edge 38, Type (0, 0), BuildingBlock: XIVTED_clean_linker_0, # of connection points: 2
#     Edge 39, Type (0, 0), BuildingBlock: XIVTED_clean_linker_0, # of connection points: 2
#     Edge 40, Type (0, 0), BuildingBlock: XIVTED_clean_linker_0, # of connection points: 2
#     Edge 41, Type (0, 0), BuildingBlock: XIVTED_clean_linker_0, # of connection points: 2
#     Edge 42, Type (0, 0), BuildingBlock: XIVTED_clean_linker_0, # of connection points: 2
#     Edge 43, Type (0, 0), BuildingBlock: XIVTED_clean_linker_0, # of connection points: 2
#     Edge 44, Type (0, 0), BuildingBlock: XIVTED_clean_linker_0, # of connection points: 2
#     Edge 45, Type (0, 0), BuildingBlock: XIVTED_clean_linker_0, # of connection points: 2
#     Edge 46, Type (0, 0), BuildingBlock: XIVTED_clean_linker_0, # of connection points: 2
#     Edge 47, Type (0, 0), BuildingBlock: XIVTED_clean_linker_0, # of connection points: 2
# Relax obj value: 0.062
# Max RMSD: 0.100
# Mean RMSD: 0.100
data_MOF--net-uou--node1-QUQFOY_clean_sbu_1--edge1-XIVTED_clean_linker_0
_symmetry_space_group_name_H-M    P1
_symmetry_Int_Tables_number       1
_symmetry_cell_setting            triclinic
loop_
_symmetry_equiv_pos_as_xyz
'x, y, z'
_cell_length_a     41.253124
_cell_length_b     38.012535
_cell_length_c     57.035002
_cell_angle_alpha  89.990373
_cell_angle_beta   90.009869
_cell_angle_gamma 90.008243
loop_
_atom_site_label
_atom_site_type_symbol
_atom_site_fract_x
_atom_site_fract_y
_atom_site_fract_z
_atom_type_partial_charge
O0 O 0.04197 0.09299 0.13718 0.0
Cd1 Cd 0.05223 0.04018 0.13487 0.0
Cd2 Cd 0.10835 0.06425 0.11821 0.0
O3 O 0.09143 0.1122 0.13026 0.0
O4 O 0.02023 0.01738 0.15615 0.0
O5 O 0.07314 0.01687 0.16258 0.0
C6 C 0.04421 0.00918 0.1696 0.0
C7 C 0.15956 0.04334 0.1286 0.0
C8 C 0.06207 0.1182 0.13576 0.0
C9 C 0.06462 0.02635 0.08447 0.0
O10 O 0.08924 0.04618 0.0869 0.0
O11 O 0.04762 0.01784 0.10218 0.0
O12 O 0.15619 0.06891 0.11392 0.0
O13 O 0.13373 0.0301 0.1379 0.0
O14 O 0.49877 0.89016 0.13741 0.0
Cd15 Cd 0.48856 0.94302 0.13531 0.0
Cd16 Cd 0.43256 0.91913 0.11837 0.0
O17 O 0.44929 0.87108 0.1304 0.0
O18 O 0.52087 0.96553 0.15649 0.0
O19 O 0.46806 0.96608 0.16329 0.0
C20 C 0.4971 0.97363 0.17014 0.0
C21 C 0.38136 0.94015 0.12868 0.0
C22 C 0.47863 0.865 0.13591 0.0
C23 C 0.47645 0.95719 0.08489 0.0
O24 O 0.45189 0.93723 0.08716 0.0
O25 O 0.49322 0.96571 0.10272 0.0
O26 O 0.38473 0.91463 0.11397 0.0
O27 O 0.40719 0.95328 0.13806 0.0
O28 O 0.5413 0.88982 0.37171 0.0
Cd29 Cd 0.54995 0.94307 0.37357 0.0
Cd30 Cd 0.60653 0.92015 0.39146 0.0
O31 O 0.59044 0.87127 0.38056 0.0
O32 O 0.51761 0.96413 0.35184 0.0
O33 O 0.57055 0.96659 0.34575 0.0
C34 C 0.54146 0.9731 0.33851 0.0
C35 C 0.65996 0.93809 0.38489 0.0
C36 C 0.56145 0.86484 0.37427 0.0
C37 C 0.56048 0.95916 0.42365 0.0
O38 O 0.5857 0.94022 0.42157 0.0
O39 O 0.54328 0.9663 0.4058 0.0
O40 O 0.65286 0.91494 0.40058 0.0
O41 O 0.63672 0.95022 0.37203 0.0
O42 O 1.00096 0.09065 0.37128 0.0
Cd43 Cd 0.99162 0.03754 0.37307 0.0
Cd44 Cd 0.93576 0.06112 0.3912 0.0
O45 O 0.95214 0.10991 0.38036 0.0
O46 O 0.02327 0.01616 0.35096 0.0
O47 O 0.97019 0.01453 0.34541 0.0
C48 C 0.99904 0.00769 0.33783 0.0
C49 C 0.88253 0.04299 0.38412 0.0
C50 C 0.98116 0.11593 0.37397 0.0
C51 C 0.98153 0.02141 0.42317 0.0
O52 O 0.95657 0.04079 0.42125 0.0
O53 O 0.99839 0.014 0.4052 0.0
O54 O 0.88926 0.06604 0.39997 0.0
O55 O 0.90604 0.03108 0.37143 0.0
O56 O 0.95697 0.94377 0.92271 0.0
Cd57 Cd 0.93563 0.92259 0.89309 0.0
Cd58 Cd 0.99233 0.94467 0.8747 0.0
O59 O 0.99945 0.96907 0.90646 0.0
O60 O 0.88954 0.91718 0.90289 0.0
O61 O 0.90457 0.95163 0.87362 0.0
C62 C 0.88177 0.93965 0.88694 0.0
C63 C 1.00009 0.97341 0.8391 0.0
C64 C 0.98231 0.96261 0.92446 0.0
C65 C 0.98067 0.86659 0.87666 0.0
O66 O 1.00091 0.89138 0.87371 0.0
O67 O 0.95169 0.87334 0.88283 0.0
O68 O 0.02422 0.96495 0.85232 0.0
O69 O 0.97115 0.96713 0.84674 0.0
O70 O 0.5821 0.03683 0.92228 0.0
Cd71 Cd 0.60375 0.05804 0.89279 0.0
Cd72 Cd 0.54733 0.03642 0.87407 0.0
O73 O 0.53968 0.01185 0.90572 0.0
O74 O 0.65002 0.06247 0.90241 0.0
O75 O 0.63414 0.02877 0.87297 0.0
C76 C 0.65726 0.04015 0.88624 0.0
C77 C 0.54006 0.00798 0.83832 0.0
C78 C 0.55664 0.01813 0.92384 0.0
C79 C 0.55925 0.11447 0.8764 0.0
O80 O 0.53898 0.08978 0.8732 0.0
O81 O 0.58813 0.10754 0.88273 0.0
O82 O 0.51574 0.01651 0.85133 0.0
O83 O 0.56889 0.01401 0.84626 0.0
O84 O 0.4547 0.04226 0.5861 0.0
Cd85 Cd 0.43391 0.06271 0.61613 0.0
Cd86 Cd 0.49058 0.04032 0.63391 0.0
O87 O 0.49732 0.01658 0.60188 0.0
O88 O 0.38754 0.06779 0.60702 0.0
O89 O 0.40372 0.03284 0.63572 0.0
C90 C 0.38045 0.0448 0.62282 0.0
C91 C 0.49788 0.01078 0.66926 0.0
C92 C 0.47998 0.02341 0.58404 0.0
C93 C 0.47905 0.11842 0.63276 0.0
O94 O 0.49931 0.09357 0.63537 0.0
O95 O 0.45 0.11178 0.62672 0.0
O96 O 0.52218 0.01938 0.65625 0.0
O97 O 0.46905 0.01738 0.66153 0.0
O98 O 0.08437 0.94012 0.58661 0.0
Cd99 Cd 0.10529 0.91977 0.61662 0.0
Cd100 Cd 0.04873 0.94193 0.63457 0.0
O101 O 0.04194 0.96586 0.60259 0.0
O102 O 0.15184 0.91548 0.60778 0.0
O103 O 0.13483 0.94993 0.6365 0.0
C104 C 0.15841 0.93843 0.62371 0.0
C105 C 0.04074 0.97129 0.66992 0.0
C106 C 0.0591 0.95903 0.58467 0.0
C107 C 0.06048 0.86382 0.63319 0.0
O108 O 0.04018 0.88862 0.63588 0.0
O109 O 0.0895 0.87055 0.62711 0.0
O110 O 1.01669 0.96258 0.6567 0.0
O111 O 0.06972 0.96486 0.66243 0.0
O112 O 0.5404 0.59227 0.13871 0.0
Cd113 Cd 0.54906 0.53903 0.13683 0.0
Cd114 Cd 0.60562 0.56179 0.11913 0.0
O115 O 0.58957 0.61075 0.12989 0.0
O116 O 0.51713 0.51788 0.15882 0.0
O117 O 0.57018 0.51556 0.16444 0.0
C118 C 0.54123 0.50898 0.17194 0.0
C119 C 0.65884 0.5436 0.1262 0.0
C120 C 0.56058 0.61722 0.13614 0.0
C121 C 0.55969 0.52282 0.08681 0.0
O122 O 0.58498 0.54164 0.08897 0.0
O123 O 0.54234 0.51581 0.10461 0.0
O124 O 0.65212 0.56666 0.11036 0.0
O125 O 0.63533 0.53169 0.13889 0.0
O126 O 1.0 0.39081 0.13891 0.0
Cd127 Cd 0.99142 0.44408 0.13708 0.0
Cd128 Cd 0.93501 0.42124 0.11888 0.0
O129 O 0.95094 0.37232 0.12978 0.0
O130 O 0.02385 0.46498 0.1588 0.0
O131 O 0.97093 0.46767 0.1649 0.0
C132 C 1.00004 0.47406 0.17213 0.0
C133 C 0.88157 0.43918 0.12535 0.0
C134 C 0.97986 0.36586 0.1362 0.0
C135 C 0.98133 0.46035 0.08697 0.0
O136 O 0.9561 0.44137 0.08888 0.0
O137 O 0.99832 0.46744 0.10493 0.0
O138 O 0.88872 0.41612 0.10962 0.0
O139 O 0.90477 0.45125 0.13828 0.0
O140 O 0.04161 0.3899 0.37285 0.0
Cd141 Cd 0.0526 0.44256 0.37506 0.0
Cd142 Cd 0.10807 0.41761 0.39228 0.0
O143 O 0.09068 0.36988 0.38017 0.0
O144 O 0.02058 0.46564 0.35395 0.0
O145 O 0.07338 0.46552 0.34715 0.0
C146 C 0.04443 0.47354 0.34032 0.0
C147 C 0.15967 0.43776 0.38223 0.0
C148 C 0.06132 0.36436 0.37447 0.0
C149 C 0.06448 0.45644 0.42554 0.0
O150 O 0.08875 0.43603 0.42341 0.0
O151 O 0.04803 0.46525 0.40763 0.0
O152 O 0.15578 0.41227 0.3969 0.0
O153 O 0.13414 0.45135 0.37272 0.0
O154 O 0.49875 0.59206 0.37295 0.0
Cd155 Cd 0.48824 0.53927 0.37507 0.0
Cd156 Cd 0.43244 0.56345 0.39216 0.0
O157 O 0.44941 0.61139 0.38011 0.0
O158 O 0.52001 0.51657 0.3536 0.0
O159 O 0.46707 0.51635 0.34731 0.0
C160 C 0.49594 0.50862 0.34017 0.0
C161 C 0.38083 0.54315 0.38223 0.0
C162 C 0.47874 0.61733 0.37452 0.0
C163 C 0.47643 0.52507 0.42549 0.0
O164 O 0.45192 0.54512 0.42329 0.0
O165 O 0.49309 0.51653 0.40762 0.0
O166 O 0.38473 0.56859 0.39693 0.0
O167 O 0.40635 0.52966 0.37265 0.0
O168 O 0.45489 0.43966 0.92399 0.0
Cd169 Cd 0.43442 0.4193 0.89381 0.0
Cd170 Cd 0.49128 0.44154 0.87632 0.0
O171 O 0.49769 0.46528 0.9084 0.0
O172 O 0.38783 0.41469 0.90245 0.0
O173 O 0.40489 0.44939 0.87387 0.0
C174 C 0.38127 0.4377 0.88654 0.0
C175 C 0.49924 0.47112 0.84106 0.0
C176 C 0.48018 0.45849 0.92616 0.0
C177 C 0.47955 0.36346 0.87743 0.0
O178 O 0.49989 0.38827 0.87492 0.0
O179 O 0.45046 0.37016 0.88334 0.0
O180 O 0.52331 0.46246 0.85429 0.0
O181 O 0.47027 0.46452 0.8485 0.0
O182 O 0.08469 0.54154 0.92375 0.0
Cd183 Cd 0.10579 0.56201 0.89383 0.0
Cd184 Cd 0.04932 0.53971 0.87572 0.0
O185 O 0.0423 0.51584 0.90767 0.0
O186 O 0.15213 0.56688 0.90309 0.0
O187 O 0.13598 0.53213 0.87427 0.0
C188 C 0.15922 0.54395 0.88726 0.0
C189 C 0.04185 0.51022 0.84039 0.0
C190 C 0.05941 0.52264 0.92563 0.0
C191 C 0.06091 0.61783 0.87708 0.0
O192 O 0.04067 0.59299 0.87431 0.0
O193 O 0.0899 0.61116 0.88327 0.0
O194 O 1.0176 0.51897 0.8534 0.0
O195 O 0.07072 0.51669 0.84809 0.0
O196 O 0.95777 0.5375 0.58744 0.0
Cd197 Cd 0.93589 0.55877 0.61681 0.0
Cd198 Cd 0.99211 0.53684 0.63583 0.0
O199 O 0.99991 0.5123 0.60422 0.0
O200 O 0.88985 0.56379 0.60677 0.0
O201 O 0.90483 0.52972 0.63626 0.0
C202 C 0.88207 0.54146 0.62281 0.0
C203 C 0.9993 0.50816 0.67151 0.0
C204 C 0.98316 0.51867 0.58602 0.0
C205 C 0.98049 0.61493 0.63354 0.0
O206 O 1.00066 0.59016 0.63681 0.0
O207 O 0.95166 0.60812 0.62705 0.0
O208 O 0.02364 0.51676 0.65854 0.0
O209 O 0.97049 0.5143 0.66358 0.0
O210 O 0.5822 0.4447 0.58794 0.0
Cd211 Cd 0.60382 0.42353 0.61745 0.0
Cd212 Cd 0.54741 0.44533 0.63619 0.0
O213 O 0.53994 0.46992 0.60452 0.0
O214 O 0.65005 0.41891 0.6078 0.0
O215 O 0.63433 0.45279 0.63719 0.0
C216 C 0.6574 0.44129 0.62392 0.0
C217 C 0.53969 0.47386 0.67187 0.0
C218 C 0.55683 0.46353 0.58639 0.0
C219 C 0.55918 0.36725 0.6339 0.0
O220 O 0.53895 0.39199 0.63706 0.0
O221 O 0.58808 0.37411 0.62759 0.0
O222 O 0.51554 0.46535 0.65868 0.0
O223 O 0.56862 0.46773 0.66416 0.0
H224 H 0.3663 0.00659 0.14359 0.0
H225 H 0.17464 0.9769 0.14353 0.0
H226 H 0.32264 0.90759 0.12432 0.0
H227 H 0.21828 0.07594 0.1243 0.0
H228 H 0.22903 0.9512 0.14724 0.0
H229 H 0.31191 0.03233 0.14727 0.0
C230 C 0.34528 0.99015 0.1405 0.0
C231 C 0.34892 0.95499 0.1335 0.0
C232 C 0.22659 0.97865 0.14246 0.0
C233 C 0.28695 0.98406 0.13794 0.0
C234 C 0.19566 -0.00664 0.14046 0.0
C235 C 0.19201 0.02853 0.13345 0.0
C236 C 0.25399 -0.00052 0.13793 0.0
C237 C 0.22004 0.04864 0.12956 0.0
C238 C 0.31435 0.00488 0.14248 0.0
C239 C 0.32088 0.93489 0.12959 0.0
N240 N 0.24989 0.03385 0.13188 0.0
N241 N 0.29104 0.94969 0.13189 0.0
H242 H 0.70623 0.93742 0.41871 0.0
H243 H 0.85374 0.01087 0.34613 0.0
H244 H 0.68957 0.97069 0.34737 0.0
H245 H 0.8358 0.04255 0.41761 0.0
H246 H 0.79887 0.98504 0.34467 0.0
H247 H 0.76023 0.96368 0.41714 0.0
C248 C 0.71407 0.94991 0.40261 0.0
C249 C 0.69337 0.95197 0.38314 0.0
C250 C 0.80708 -0.0021 0.36054 0.0
C251 C 0.75527 0.98169 0.38124 0.0
C252 C 0.83826 0.0125 0.36142 0.0
C253 C 0.84924 0.02893 0.382 0.0
C254 C 0.7874 -0.00113 0.3806 0.0
C255 C 0.82827 0.03034 0.40134 0.0
C256 C 0.74478 0.96505 0.40181 0.0
C257 C 0.70478 0.96871 0.36278 0.0
N258 N 0.79856 0.01509 0.40028 0.0
N259 N 0.73518 0.9828 0.36227 0.0
H260 H 0.83582 0.93841 0.921 0.0
H261 H 0.68707 0.00955 0.84808 0.0
H262 H 0.85118 0.97128 0.84943 0.0
H263 H 0.7034 0.03905 0.92018 0.0
H264 H 0.74231 0.98472 0.84671 0.0
H265 H 0.7813 0.96336 0.91955 0.0
C266 C 0.8276 0.95055 0.90488 0.0
C267 C 0.8481 0.95286 0.88531 0.0
C268 C 0.73367 -0.00315 0.86271 0.0
C269 C 0.78557 0.98113 0.88354 0.0
C270 C 0.70226 0.01088 0.86354 0.0
C271 C 0.69072 0.02644 0.88426 0.0
C272 C 0.75306 -0.00247 0.88294 0.0
C273 C 0.71136 0.02751 0.90381 0.0
C274 C 0.79658 0.96495 0.90414 0.0
C275 C 0.83616 0.96912 0.86493 0.0
N276 N 0.74133 0.01286 0.90276 0.0
N277 N 0.80549 0.9825 0.86448 0.0
H278 H 0.18711 0.97048 0.6618 0.0
H279 H 0.33397 0.04561 0.58913 0.0
H280 H 0.20497 0.93976 0.59012 0.0
H281 H 0.35105 0.01195 0.66034 0.0
H282 H 0.28006 0.01915 0.59076 0.0
H283 H 0.24179 -0.00318 0.66325 0.0
C284 C 0.20253 0.96917 0.64646 0.0
C285 C 0.19159 0.95285 0.62583 0.0
C286 C 0.29558 0.01774 0.60606 0.0
C287 C 0.25321 0.98349 0.62722 0.0
C288 C 0.32624 0.033 0.60523 0.0
C289 C 0.34705 0.03089 0.62463 0.0
C290 C 0.28524 0.00091 0.6266 0.0
C291 C 0.33577 0.01399 0.64497 0.0
C292 C 0.23361 0.98406 0.64733 0.0
C293 C 0.21248 0.95186 0.60643 0.0
N294 N 0.30542 -0.00024 0.64552 0.0
N295 N 0.24208 0.96738 0.6075 0.0
H296 H 0.83537 0.43861 0.09148 0.0
H297 H 0.68765 0.51138 0.16416 0.0
H298 H 0.85185 0.47153 0.16291 0.0
H299 H 0.70555 0.54328 0.09271 0.0
H300 H 0.74255 0.48565 0.16559 0.0
H301 H 0.7813 0.46469 0.09308 0.0
C302 C 0.82748 0.45099 0.10761 0.0
C303 C 0.84815 0.453 0.12709 0.0
C304 C 0.73433 0.49853 0.14973 0.0
C305 C 0.78617 0.48252 0.12903 0.0
C306 C 0.70313 0.51307 0.14887 0.0
C307 C 0.69213 0.52954 0.1283 0.0
C308 C 0.75401 0.4996 0.12967 0.0
C309 C 0.7131 0.53104 0.10896 0.0
C310 C 0.79673 0.46603 0.10843 0.0
C311 C 0.83667 0.46959 0.14748 0.0
N312 N 0.74283 0.51585 0.11002 0.0
N313 N 0.80624 0.48358 0.14801 0.0
H314 H 0.32265 0.57662 0.38701 0.0
H315 H 0.21785 0.40422 0.38693 0.0
H316 H 0.36462 0.47688 0.36755 0.0
H317 H 0.1759 0.50403 0.36757 0.0
H318 H 0.27201 0.43004 0.38296 0.0
H319 H 0.26849 0.55078 0.38303 0.0
C320 C 0.32043 0.54936 0.3817 0.0
C321 C 0.34812 0.52881 0.37763 0.0
C322 C 0.25094 0.44613 0.37931 0.0
C323 C 0.28638 0.49901 0.37352 0.0
C324 C 0.22006 0.43148 0.38164 0.0
C325 C 0.19238 0.45206 0.3776 0.0
C326 C 0.25413 0.48185 0.37351 0.0
C327 C 0.19663 0.48723 0.37076 0.0
C328 C 0.28956 0.53471 0.37936 0.0
C329 C 0.34388 0.49366 0.37076 0.0
N330 N 0.22694 0.50121 0.3693 0.0
N331 N 0.31358 0.47967 0.36929 0.0
H332 H 0.20549 0.54428 0.92108 0.0
H333 H 0.35275 0.47009 0.84851 0.0
H334 H 0.18875 0.51142 0.84967 0.0
H335 H 0.33445 0.43842 0.91995 0.0
H336 H 0.29804 0.49633 0.84701 0.0
H337 H 0.25938 0.51777 0.91949 0.0
C338 C 0.21329 0.53183 0.90496 0.0
C339 C 0.19259 0.52996 0.88548 0.0
C340 C 0.30613 0.48338 0.86288 0.0
C341 C 0.25437 0.49993 0.88355 0.0
C342 C 0.33722 0.46854 0.86379 0.0
C343 C 0.34806 0.452 0.88437 0.0
C344 C 0.2864 0.48252 0.88293 0.0
C345 C 0.32703 0.45071 0.90369 0.0
C346 C 0.24394 0.51655 0.90414 0.0
C347 C 0.20396 0.51327 0.8651 0.0
N348 N 0.29742 0.46618 0.9026 0.0
N349 N 0.23429 0.49902 0.86457 0.0
H350 H 0.68733 0.47217 0.66194 0.0
H351 H 0.83623 0.54212 0.58864 0.0
H352 H 0.7035 0.44194 0.58996 0.0
H353 H 0.85139 0.51034 0.66045 0.0
H354 H 0.78169 0.51722 0.59017 0.0
H355 H 0.74264 0.49687 0.66317 0.0
C356 C 0.7025 0.47064 0.64647 0.0
C357 C 0.69089 0.45492 0.62583 0.0
C358 C 0.79694 0.51584 0.60562 0.0
C359 C 0.75331 0.48369 0.62699 0.0
C360 C 0.82797 0.53021 0.60483 0.0
C361 C 0.84841 0.5282 0.62444 0.0
C362 C 0.78586 0.5 0.62631 0.0
C363 C 0.83642 0.51225 0.64491 0.0
C364 C 0.73395 0.4846 0.64723 0.0
C365 C 0.71151 0.45361 0.60628 0.0
N366 N 0.80573 0.4989 0.6454 0.0
N367 N 0.74151 0.4682 0.60725 0.0
H368 H 0.95403 -0.00586 0.30355 0.0
H369 H 0.08879 -0.00616 0.20379 0.0
H370 H 0.05694 -0.00832 0.31714 0.0
H371 H 0.9859 -0.00618 0.19001 0.0
H372 H 0.07754 0.98218 0.24513 0.0
H373 H 0.96497 0.98319 0.26205 0.0
C374 C 0.97888 0.99064 0.2979 0.0
C375 C 1.00462 -0.0056 0.31379 0.0
C376 C 0.05742 0.98417 0.23301 0.0
C377 C 1.01737 0.98231 0.26627 0.0
C378 C 0.06385 0.99074 0.20936 0.0
C379 C 0.03824 -0.00462 0.19347 0.0
C380 C 0.02514 0.98249 0.24084 0.0
C381 C 1.00641 0.99087 0.20169 0.0
C382 C 0.98514 0.98449 0.27417 0.0
C383 C 0.03634 0.98945 0.30547 0.0
N384 N 1.00075 0.98522 0.22485 0.0
N385 N 0.04184 0.98418 0.28226 0.0
H386 H 0.55555 -0.00892 0.18958 0.0
H387 H 0.48311 0.99052 0.319 0.0
H388 H 0.45331 0.98622 0.20535 0.0
H389 H 0.58538 0.98579 0.30336 0.0
H390 H 0.47201 0.0019 0.27767 0.0
H391 H 0.56675 0.00212 0.23096 0.0
C392 C 0.53537 -0.00704 0.20167 0.0
C393 C 0.50346 0.98716 0.19403 0.0
C394 C 0.49693 -0.00111 0.28331 0.0
C395 C 0.51619 -0.00056 0.24152 0.0
C396 C 0.50332 -0.00754 0.30694 0.0
C397 C 0.53522 0.98663 0.3146 0.0
C398 C 0.52259 -0.00069 0.26715 0.0
C399 C 0.5604 0.98979 0.2982 0.0
C400 C 0.54182 -0.00083 0.22533 0.0
C401 C 0.47831 0.99019 0.21048 0.0
N402 N 0.55351 -0.00459 0.27518 0.0
N403 N 0.48526 -0.00438 0.2335 0.0
H404 H 0.98265 0.98797 0.69013 0.0
H405 H 0.05805 0.99007 0.81869 0.0
H406 H 0.08529 0.98417 0.70461 0.0
H407 H 0.95542 0.98508 0.80429 0.0
H408 H 0.06823 0.00034 0.77711 0.0
H409 H 0.97238 -0.0007 0.73157 0.0
C410 C 1.0031 0.99009 0.70195 0.0
C411 C 0.03487 0.98456 0.69393 0.0
C412 C 0.04344 -0.00249 0.78307 0.0
C413 C 0.0232 -0.00278 0.74151 0.0
C414 C 0.03757 -0.00828 0.80685 0.0
C415 C 1.00584 0.98616 0.81494 0.0
C416 C 1.01741 -0.00243 0.76721 0.0
C417 C 0.98029 0.9889 0.7988 0.0
C418 C 0.99718 -0.0035 0.72565 0.0
C419 C 0.06039 0.98793 0.71005 0.0
N420 N 0.98667 -0.00608 0.77565 0.0
N421 N 0.05397 -0.00644 0.73313 0.0
H422 H 0.45252 -0.00391 0.70307 0.0
H423 H 0.58548 -0.00558 0.80434 0.0
H424 H 0.55569 -0.0042 0.69046 0.0
H425 H 0.48229 -0.00637 0.81689 0.0
H426 H 0.57514 0.98431 0.76266 0.0
H427 H 0.4629 0.98458 0.74457 0.0
C428 C 0.47733 -0.00701 0.70894 0.0
C429 C 0.50328 -0.00255 0.69332 0.0
C430 C 0.55476 0.98581 0.77459 0.0
C431 C 0.51538 0.9847 0.74086 0.0
C432 C 0.56067 -0.00851 0.79841 0.0
C433 C 0.5347 -0.00458 0.81407 0.0
C434 C 0.52265 0.98427 0.76636 0.0
C435 C 0.50307 -0.00878 0.80541 0.0
C436 C 0.48326 0.9865 0.73267 0.0
C437 C 0.53493 -0.00702 0.70191 0.0
N438 N 0.49793 0.98637 0.78211 0.0
N439 N 0.5401 0.98735 0.72514 0.0
H440 H 0.58603 0.49433 0.20617 0.0
H441 H 0.45119 0.49429 0.30589 0.0
H442 H 0.48311 0.49357 0.19253 0.0
H443 H 0.55407 0.49282 0.31967 0.0
H444 H 0.46233 0.4831 0.26448 0.0
H445 H 0.57491 0.48291 0.24759 0.0
C446 C 0.56112 0.49111 0.21179 0.0
C447 C 0.53545 0.49548 0.19592 0.0
C448 C 0.48247 0.48467 0.27662 0.0
C449 C 0.52251 0.48284 0.24334 0.0
C450 C 0.47609 0.49096 0.3003 0.0
C451 C 0.50175 0.49506 0.31622 0.0
C452 C 0.51473 0.48273 0.26877 0.0
C453 C 0.53353 0.4903 0.30798 0.0
C454 C 0.55477 0.48468 0.23547 0.0
C455 C 0.50367 0.49086 0.20419 0.0
N456 N 0.53914 0.48492 0.28478 0.0
N457 N 0.49808 0.48531 0.22736 0.0
H458 H 0.98618 0.49199 0.321 0.0
H459 H 0.05849 0.49127 0.19157 0.0
H460 H 0.08833 0.48585 0.30515 0.0
H461 H 0.95622 0.48701 0.20729 0.0
H462 H 0.0697 0.50256 0.23289 0.0
H463 H 0.97506 0.50347 0.27967 0.0
C464 C 1.00636 0.49368 0.3089 0.0
C465 C 0.03822 0.48737 0.31649 0.0
C466 C 0.04476 0.49969 0.22727 0.0
C467 C 0.02556 0.50016 0.26906 0.0
C468 C 0.03831 0.4933 0.20364 0.0
C469 C 1.00637 0.48761 0.19601 0.0
C470 C 1.01913 0.5002 0.24345 0.0
C471 C 0.98122 0.49089 0.21243 0.0
C472 C 0.99996 0.50015 0.28527 0.0
C473 C 0.06338 0.49019 0.30005 0.0
N474 N 0.98817 0.49646 0.23544 0.0
N475 N 0.05646 0.49588 0.27704 0.0
H476 H 0.48178 0.49045 0.69235 0.0
H477 H 0.55733 0.48787 0.82086 0.0
H478 H 0.58442 0.4854 0.70666 0.0
H479 H 0.45468 0.48417 0.80641 0.0
H480 H 0.56757 0.49937 0.77942 0.0
H481 H 0.47166 0.50059 0.73394 0.0
C482 C 0.50227 0.49205 0.70418 0.0
C483 C 0.53399 0.48652 0.69605 0.0
C484 C 0.54277 0.49655 0.78535 0.0
C485 C 0.52249 0.49778 0.7438 0.0
C486 C 0.53687 0.49005 0.80904 0.0
C487 C 0.5051 0.4845 0.81707 0.0
C488 C 0.51674 0.49734 0.7695 0.0
C489 C 0.47957 0.48794 0.80097 0.0
C490 C 0.49644 0.49777 0.72796 0.0
C491 C 0.55956 0.4892 0.71217 0.0
N492 N 0.48598 0.49366 0.77789 0.0
N493 N 0.55322 0.49415 0.73534 0.0
H494 H 0.08708 0.49528 0.80654 0.0
H495 H 0.95389 0.49456 0.70549 0.0
H496 H 0.98393 0.4954 0.81928 0.0
H497 H 0.05704 0.49329 0.69281 0.0
H498 H 0.96427 0.4841 0.74712 0.0
H499 H 0.07656 0.48378 0.76506 0.0
C500 C 0.06224 0.49227 0.80071 0.0
C501 C 0.03634 0.49687 0.81635 0.0
C502 C 0.98463 0.48557 0.73517 0.0
C503 C 0.02409 0.48414 0.76885 0.0
C504 C 0.97869 0.49145 0.71137 0.0
C505 C 1.00464 0.49537 0.6957 0.0
C506 C 1.01675 0.48382 0.74336 0.0
C507 C 0.03628 0.49091 0.70431 0.0
C508 C 0.05623 0.48579 0.77699 0.0
C509 C 1.00466 0.4925 0.80781 0.0
N510 N 0.04145 0.48588 0.72759 0.0
N511 N 0.99941 0.48689 0.7846 0.0
H512 H 0.09815 0.17887 0.13719 0.0
H513 H 0.94365 0.30522 0.1345 0.0
H514 H 0.99968 0.14089 0.14174 0.0
H515 H 0.04149 0.34265 0.14476 0.0
H516 H 0.9636 0.24474 0.137 0.0
H517 H 0.07787 0.23917 0.13987 0.0
C518 C 0.0723 0.18317 0.13891 0.0
C519 C 0.0506 0.15474 0.13914 0.0
C520 C 0.98064 0.26622 0.13888 0.0
C521 C 0.0272 0.22371 0.14202 0.0
C522 C 0.96927 0.30076 0.13743 0.0
C523 C 0.99092 0.3291 0.13932 0.0
C524 C 1.01394 0.25996 0.14202 0.0
C525 C 0.02387 0.32168 0.14315 0.0
C526 C 0.06073 0.21761 0.14046 0.0
C527 C 1.01734 0.16195 0.14145 0.0
N528 N 0.03439 0.28787 0.1442 0.0
N529 N 1.00665 0.1957 0.14261 0.0
H530 H 0.44247 0.80437 0.13701 0.0
H531 H 0.59687 0.67782 0.13477 0.0
H532 H 0.54095 0.84218 0.14206 0.0
H533 H 0.49888 0.64045 0.14433 0.0
H534 H 0.57696 0.73831 0.1373 0.0
H535 H 0.46266 0.74403 0.1396 0.0
C536 C 0.4683 0.80002 0.13882 0.0
C537 C 0.49004 0.82842 0.13922 0.0
C538 C 0.55987 0.71684 0.13902 0.0
C539 C 0.51333 0.7594 0.142 0.0
C540 C 0.57123 0.68229 0.13755 0.0
C541 C 0.54952 0.65398 0.13924 0.0
C542 C 0.52655 0.72313 0.14197 0.0
C543 C 0.51653 0.66141 0.14288 0.0
C544 C 0.47982 0.76556 0.14032 0.0
C545 C 0.52327 0.82115 0.14164 0.0
N546 N 0.50605 0.69523 0.14394 0.0
N547 N 0.53391 0.78737 0.14275 0.0
H548 H 0.44282 0.67809 0.37329 0.0
H549 H 0.59758 0.80414 0.37582 0.0
H550 H 0.54118 0.63989 0.36848 0.0
H551 H 0.49976 0.84175 0.36586 0.0
H552 H 0.57752 0.74369 0.37329 0.0
H553 H 0.46322 0.73835 0.37069 0.0
C554 C 0.46867 0.68234 0.37153 0.0
C555 C 0.4903 0.65386 0.3712 0.0
C556 C 0.56051 0.76521 0.37148 0.0
C557 C 0.51385 0.72278 0.36841 0.0
C558 C 0.57195 0.79973 0.37295 0.0
C559 C 0.55033 0.82811 0.37115 0.0
C560 C 0.52718 0.75901 0.36842 0.0
C561 C 0.51735 0.82075 0.3674 0.0
C562 C 0.48031 0.71675 0.37002 0.0
C563 C 0.52357 0.66099 0.36884 0.0
N564 N 0.50677 0.78696 0.36634 0.0
N565 N 0.53433 0.69472 0.36772 0.0
H566 H 0.99872 0.34274 0.36775 0.0
H567 H 0.04306 0.13808 0.36522 0.0
H568 H 0.09646 0.30301 0.37364 0.0
H569 H 0.94585 0.17721 0.3757 0.0
H570 H 0.06262 0.1985 0.36272 0.0
H571 H 0.97881 0.28241 0.36508 0.0
C572 C 1.01607 0.32137 0.36829 0.0
C573 C 0.04936 0.328 0.37106 0.0
C574 C 0.03699 0.19387 0.36547 0.0
C575 C 0.0266 0.25881 0.36801 0.0
C576 C 0.02574 0.15935 0.36683 0.0
C577 C 0.99273 0.1525 0.37081 0.0
C578 C 1.01511 0.22186 0.36796 0.0
C579 C 0.9715 0.18122 0.37273 0.0
C580 C 1.00462 0.28691 0.36685 0.0
C581 C 0.07061 0.29918 0.37164 0.0
N582 N 0.98308 0.21465 0.37134 0.0
N583 N 0.05885 0.26584 0.37019 0.0
H584 H 0.09752 0.67821 0.878 0.0
H585 H 0.94405 0.80622 0.878 0.0
H586 H 0.99905 0.64149 0.87006 0.0
H587 H 0.04248 0.84284 0.86963 0.0
H588 H 0.96367 0.74556 0.87598 0.0
H589 H 0.07787 0.73884 0.8758 0.0
C590 C 0.07182 0.68286 0.87566 0.0
C591 C 0.04992 0.65468 0.87428 0.0
C592 C 0.98093 0.7669 0.87442 0.0
C593 C 0.02724 0.72398 0.87194 0.0
C594 C 0.96974 0.80154 0.87561 0.0
C595 C 0.99163 0.8297 0.87405 0.0
C596 C 1.01428 0.76037 0.8719 0.0
C597 C 0.02467 0.82201 0.87092 0.0
C598 C 0.06061 0.71748 0.87438 0.0
C599 C 1.01686 0.66233 0.87122 0.0
N600 N 0.035 0.78811 0.87013 0.0
N601 N 1.00652 0.69623 0.87033 0.0
H602 H 0.44281 0.30316 0.87784 0.0
H603 H 0.596 0.17471 0.87835 0.0
H604 H 0.54148 0.3397 0.87091 0.0
H605 H 0.4976 0.13849 0.86905 0.0
H606 H 0.57654 0.23546 0.87654 0.0
H607 H 0.46236 0.2425 0.87553 0.0
C608 C 0.46854 0.29847 0.8757 0.0
C609 C 0.49051 0.3266 0.87463 0.0
C610 C 0.55926 0.21418 0.87474 0.0
C611 C 0.51308 0.25726 0.87216 0.0
C612 C 0.57035 0.1795 0.8758 0.0
C613 C 0.54842 0.15142 0.87392 0.0
C614 C 0.52596 0.22085 0.87202 0.0
C615 C 0.51543 0.15925 0.8706 0.0
C616 C 0.47969 0.26383 0.87436 0.0
C617 C 0.52361 0.31889 0.87182 0.0
N618 N 0.5052 0.19319 0.86992 0.0
N619 N 0.53389 0.28498 0.87086 0.0
H620 H 0.44242 0.17879 0.63227 0.0
H621 H 0.59582 0.30694 0.63207 0.0
H622 H 0.54098 0.14206 0.63949 0.0
H623 H 0.49747 0.34336 0.64118 0.0
H624 H 0.57625 0.24624 0.63388 0.0
H625 H 0.46207 0.23941 0.63463 0.0
C626 C 0.46814 0.18343 0.63448 0.0
C627 C 0.49006 0.15525 0.63562 0.0
C628 C 0.55901 0.26755 0.63564 0.0
C629 C 0.51274 0.22455 0.63815 0.0
C630 C 0.57017 0.30221 0.63458 0.0
C631 C 0.54827 0.33033 0.63641 0.0
C632 C 0.52568 0.26095 0.63831 0.0
C633 C 0.51527 0.32256 0.63968 0.0
C634 C 0.47935 0.21804 0.63586 0.0
C635 C 0.52315 0.16291 0.63853 0.0
N636 N 0.50497 0.28864 0.64036 0.0
N637 N 0.53349 0.19679 0.63952 0.0
H638 H 0.09717 0.8035 0.63241 0.0
H639 H 0.94386 0.67525 0.6318 0.0
H640 H 0.99861 0.84006 0.63995 0.0
H641 H 0.0422 0.63878 0.64093 0.0
H642 H 0.96342 0.73594 0.6338 0.0
H643 H 0.07758 0.74283 0.63457 0.0
C644 C 0.07146 0.79881 0.63465 0.0
C645 C 0.04952 0.82695 0.63593 0.0
C646 C 0.98067 0.71462 0.63553 0.0
C647 C 0.02691 0.75761 0.63823 0.0
C648 C 0.96951 0.67996 0.63435 0.0
C649 C 0.99141 0.65184 0.63613 0.0
C650 C 1.01398 0.72121 0.63826 0.0
C651 C 0.0244 0.65959 0.63946 0.0
C652 C 0.06029 0.76417 0.63591 0.0
C653 C 1.01645 0.81924 0.63887 0.0
N654 N 0.0347 0.6935 0.64024 0.0
N655 N 1.00614 0.78533 0.63974 0.0
H656 H 0.9523 0.95208 0.96665 0.0
H657 H 0.09386 0.04076 0.04232 0.0
H658 H 0.03739 -0.00051 0.93587 0.0
H659 H 1.01114 0.98768 0.07237 0.0
H660 H 0.07354 0.02662 1.00318 0.0
H661 H 0.97282 0.96692 0.00547 0.0
C662 C 0.97521 0.96586 0.96801 0.0
C663 C 0.99317 0.97446 0.94791 0.0
C664 C 0.05992 0.01797 0.01835 0.0
C665 C 1.01701 -0.00871 0.99247 0.0
C666 C 0.07156 0.02591 0.04072 0.0
C667 C 0.05417 0.01544 0.06071 0.0
C668 C 0.03062 -0.00051 0.01592 0.0
C669 C 0.02539 -0.00369 0.05751 0.0
C670 C 0.98699 0.97419 0.99024 0.0
C671 C 0.02271 -0.00767 0.95085 0.0
N672 N 1.01448 0.98909 0.03557 0.0
N673 N 0.03375 4e-05 0.97272 0.0
H674 H 0.50191 0.98026 0.93472 0.0
H675 H 0.52927 -0.00278 0.07328 0.0
H676 H 0.58538 0.02976 0.96637 0.0
H677 H 0.44845 0.94173 0.04246 0.0
H678 H 0.54913 0.01083 0.03406 0.0
H679 H 0.48158 0.96603 0.97387 0.0
C680 C 0.51611 0.98789 0.94986 0.0
C681 C 0.54539 0.00631 0.94721 0.0
C682 C 0.527 -0.00425 0.03585 0.0
C683 C 0.52205 0.99046 0.99208 0.0
C684 C 0.51553 0.9881 0.05828 0.0
C685 C 0.48714 0.96823 0.06122 0.0
C686 C 0.51 0.98349 0.01614 0.0
C687 C 0.47044 0.95711 0.04107 0.0
C688 C 0.50441 0.97988 0.97222 0.0
C689 C 0.56268 0.01557 0.96751 0.0
N690 N 0.48217 0.96481 0.01939 0.0
N691 N 0.55069 0.00768 0.98904 0.0
H692 H 0.44907 0.03388 0.54212 0.0
H693 H 0.5912 0.94822 0.46559 0.0
H694 H 0.53511 0.9872 0.57203 0.0
H695 H 0.50537 -0.00465 0.4357 0.0
H696 H 0.57125 0.96272 0.50467 0.0
H697 H 0.46895 0.0192 0.50307 0.0
C698 C 0.47205 0.02031 0.54052 0.0
C699 C 0.49047 0.01184 0.56044 0.0
C700 C 0.55682 0.97 0.48957 0.0
C701 C 0.51352 -0.00479 0.51564 0.0
C702 C 0.56825 0.96184 0.46721 0.0
C703 C 0.54991 0.97052 0.44728 0.0
C704 C 0.52678 0.98694 0.4921 0.0
C705 C 0.52035 0.98815 0.45053 0.0
C706 C 0.48344 0.01205 0.51816 0.0
C707 C 0.52007 -0.00574 0.5572 0.0
N708 N 0.50966 -0.00434 0.47251 0.0
N709 N 0.53072 0.98665 0.53523 0.0
H710 H 1.00473 -0.00313 0.57312 0.0
H711 H 0.03569 0.98321 0.43473 0.0
H712 H 0.08868 0.94701 0.54244 0.0
H713 H 0.95219 0.03394 0.46541 0.0
H714 H 0.05511 0.96894 0.47406 0.0
H715 H 0.98532 0.01118 0.53379 0.0
C716 C 1.01922 0.98916 0.55815 0.0
C717 C 0.04837 0.97064 0.56113 0.0
C718 C 0.03248 0.9831 0.47218 0.0
C719 C 0.0261 0.98665 0.51601 0.0
C720 C 0.0213 -0.00887 0.44971 0.0
C721 C 0.99227 0.00987 0.44672 0.0
C722 C 1.01455 -0.0061 0.49185 0.0
C723 C 0.97471 0.01948 0.46683 0.0
C724 C 1.00805 -0.00278 0.53567 0.0
C725 C 0.06606 0.96129 0.54103 0.0
N726 N 0.98617 0.01149 0.48851 0.0
N727 N 0.0546 0.96928 0.51935 0.0
H728 H 0.59072 0.53356 0.04498 0.0
H729 H 0.44897 0.44803 0.96796 0.0
H730 H 0.50455 0.48677 0.07459 0.0
H731 H 0.53523 0.49469 0.93838 0.0
H732 H 0.46859 0.46274 0.00709 0.0
H733 H 0.57099 0.51904 0.00585 0.0
C734 C 0.56774 0.52001 0.04329 0.0
C735 C 0.54924 0.51143 0.06316 0.0
C736 C 0.48318 0.46987 0.99205 0.0
C737 C 0.52637 0.49499 0.01827 0.0
C738 C 0.47194 0.4616 0.96965 0.0
C739 C 0.4905 0.47007 0.94979 0.0
C740 C 0.51325 0.48671 0.99468 0.0
C741 C 0.52008 0.48764 0.95315 0.0
C742 C 0.55644 0.51184 0.0209 0.0
C743 C 0.51965 0.49389 0.05982 0.0
N744 N 0.53058 0.49526 0.97516 0.0
N745 N 0.50909 0.48636 0.0378 0.0
H746 H 0.03585 0.49797 0.07548 0.0
H747 H 1.00487 0.48501 0.93707 0.0
H748 H 0.95188 0.44822 0.0447 0.0
H749 H 0.08901 0.53436 0.96788 0.0
H750 H 0.98536 0.47066 0.97636 0.0
H751 H 0.0554 0.51216 0.03618 0.0
C752 C 0.02138 0.49025 0.06049 0.0
C753 C 0.99218 0.47181 0.06344 0.0
C754 C 1.00815 0.48452 0.97452 0.0
C755 C 1.01462 0.48769 0.01834 0.0
C756 C 1.01938 0.4926 0.95206 0.0
C757 C 0.04861 0.51099 0.94913 0.0
C758 C 0.02623 0.49494 0.99421 0.0
C759 C 0.06633 0.52019 0.96926 0.0
C760 C 0.03264 0.49823 0.03803 0.0
C761 C 0.97454 0.46244 0.04331 0.0
N762 N 0.0548 0.51217 0.99092 0.0
N763 N 0.98608 0.47038 0.02165 0.0
H764 H 0.0376 0.48013 0.57552 0.0
H765 H 1.01224 0.49751 0.4368 0.0
H766 H 0.95512 0.53073 0.5433 0.0
H767 H 0.09174 0.44045 0.46814 0.0
H768 H 0.99213 0.5115 0.47588 0.0
H769 H 0.05826 0.46562 0.53651 0.0
C770 C 0.02369 0.48795 0.56028 0.0
C771 C 0.99459 0.50675 0.56273 0.0
C772 C 1.01402 0.49599 0.47424 0.0
C773 C 1.01831 0.49057 0.51803 0.0
C774 C 0.02564 0.48812 0.45189 0.0
C775 C 0.05372 0.46769 0.44914 0.0
C776 C 0.03057 0.4834 0.49406 0.0
C777 C 0.06999 0.45626 0.4694 0.0
C778 C 0.03558 0.47977 0.53801 0.0
C779 C 0.97766 0.51624 0.54232 0.0
N780 N 0.05812 0.46419 0.491 0.0
N781 N 0.98984 0.50818 0.52087 0.0
H782 H 0.50231 0.50177 0.57559 0.0
H783 H 0.52914 0.48479 0.43698 0.0
H784 H 0.58535 0.45165 0.54382 0.0
H785 H 0.44864 0.54058 0.46797 0.0
H786 H 0.54908 0.47101 0.47616 0.0
H787 H 0.48195 0.51613 0.53647 0.0
C788 C 0.51641 0.49403 0.56042 0.0
C789 C 0.54558 0.4754 0.56304 0.0
C790 C 0.527 0.48619 0.47441 0.0
C791 C 0.5222 0.49141 0.5182 0.0
C792 C 0.51549 0.49395 0.45201 0.0
C793 C 0.48717 0.51395 0.44913 0.0
C794 C 0.51011 0.49849 0.49416 0.0
C795 C 0.47058 0.5251 0.46932 0.0
C796 C 0.50469 0.50212 0.53808 0.0
C797 C 0.56275 0.46601 0.54271 0.0
N798 N 0.48235 0.5173 0.49097 0.0
N799 N 0.55074 0.47398 0.52119 0.0
loop_
_geom_bond_atom_site_label_1
_geom_bond_atom_site_label_2
_geom_bond_distance
_geom_bond_site_symmetry_2
_ccdc_geom_bond_type
O0 Cd1 2.223 . S
O0 C8 1.315 . S
Cd1 O0 2.223 . S
Cd1 O4 2.297 . S
Cd1 O5 2.439 . S
Cd1 O11 2.240 . S
Cd2 O3 2.240 . S
Cd2 O10 2.223 . S
Cd2 O12 2.297 . S
Cd2 O13 2.439 . S
O3 Cd2 2.240 . S
O3 C8 1.279 . S
O4 Cd1 2.297 . S
O4 C6 1.247 . S
O5 Cd1 2.439 . S
O5 C6 1.208 . S
C6 O4 1.247 . S
C6 O5 1.208 . S
C7 O12 1.247 . S
C7 O13 1.208 . S
C8 O0 1.315 . S
C8 O3 1.279 . S
C9 O10 1.315 . S
C9 O11 1.279 . S
O10 Cd2 2.223 . S
O10 C9 1.315 . S
O11 Cd1 2.240 . S
O11 C9 1.279 . S
O12 Cd2 2.297 . S
O12 C7 1.247 . S
O13 Cd2 2.439 . S
O13 C7 1.208 . S
O14 Cd15 2.223 . S
O14 C22 1.315 . S
Cd15 O14 2.223 . S
Cd15 O18 2.297 . S
Cd15 O19 2.439 . S
Cd15 O25 2.240 . S
Cd16 O17 2.240 . S
Cd16 O24 2.223 . S
Cd16 O26 2.297 . S
Cd16 O27 2.439 . S
O17 Cd16 2.240 . S
O17 C22 1.279 . S
O18 Cd15 2.297 . S
O18 C20 1.247 . S
O19 Cd15 2.439 . S
O19 C20 1.208 . S
C20 O18 1.247 . S
C20 O19 1.208 . S
C21 O26 1.247 . S
C21 O27 1.208 . S
C22 O14 1.315 . S
C22 O17 1.279 . S
C23 O24 1.315 . S
C23 O25 1.279 . S
O24 Cd16 2.223 . S
O24 C23 1.315 . S
O25 Cd15 2.240 . S
O25 C23 1.279 . S
O26 Cd16 2.297 . S
O26 C21 1.247 . S
O27 Cd16 2.439 . S
O27 C21 1.208 . S
O28 Cd29 2.223 . S
O28 C36 1.315 . S
Cd29 O28 2.223 . S
Cd29 O32 2.297 . S
Cd29 O33 2.439 . S
Cd29 O39 2.240 . S
Cd30 O31 2.240 . S
Cd30 O38 2.223 . S
Cd30 O40 2.297 . S
Cd30 O41 2.439 . S
O31 Cd30 2.240 . S
O31 C36 1.279 . S
O32 Cd29 2.297 . S
O32 C34 1.247 . S
O33 Cd29 2.439 . S
O33 C34 1.208 . S
C34 O32 1.247 . S
C34 O33 1.208 . S
C35 O40 1.247 . S
C35 O41 1.208 . S
C36 O28 1.315 . S
C36 O31 1.279 . S
C37 O38 1.315 . S
C37 O39 1.279 . S
O38 Cd30 2.223 . S
O38 C37 1.315 . S
O39 Cd29 2.240 . S
O39 C37 1.279 . S
O40 Cd30 2.297 . S
O40 C35 1.247 . S
O41 Cd30 2.439 . S
O41 C35 1.208 . S
O42 Cd43 2.223 . S
O42 C50 1.315 . S
Cd43 O42 2.223 . S
Cd43 O46 2.297 . S
Cd43 O47 2.439 . S
Cd43 O53 2.240 . S
Cd44 O45 2.240 . S
Cd44 O52 2.223 . S
Cd44 O54 2.297 . S
Cd44 O55 2.439 . S
O45 Cd44 2.240 . S
O45 C50 1.279 . S
O46 Cd43 2.297 . S
O46 C48 1.247 . S
O47 Cd43 2.439 . S
O47 C48 1.208 . S
C48 O46 1.247 . S
C48 O47 1.208 . S
C49 O54 1.247 . S
C49 O55 1.208 . S
C50 O42 1.315 . S
C50 O45 1.279 . S
C51 O52 1.315 . S
C51 O53 1.279 . S
O52 Cd44 2.223 . S
O52 C51 1.315 . S
O53 Cd43 2.240 . S
O53 C51 1.279 . S
O54 Cd44 2.297 . S
O54 C49 1.247 . S
O55 Cd44 2.439 . S
O55 C49 1.208 . S
O56 Cd57 2.223 . S
O56 C64 1.315 . S
Cd57 O56 2.223 . S
Cd57 O60 2.297 . S
Cd57 O61 2.439 . S
Cd57 O67 2.240 . S
Cd58 O59 2.240 . S
Cd58 O66 2.223 . S
Cd58 O68 2.297 . S
Cd58 O69 2.439 . S
O59 Cd58 2.240 . S
O59 C64 1.279 . S
O60 Cd57 2.297 . S
O60 C62 1.247 . S
O61 Cd57 2.439 . S
O61 C62 1.208 . S
C62 O60 1.247 . S
C62 O61 1.208 . S
C63 O68 1.247 . S
C63 O69 1.208 . S
C64 O56 1.315 . S
C64 O59 1.279 . S
C65 O66 1.315 . S
C65 O67 1.279 . S
O66 Cd58 2.223 . S
O66 C65 1.315 . S
O67 Cd57 2.240 . S
O67 C65 1.279 . S
O68 Cd58 2.297 . S
O68 C63 1.247 . S
O69 Cd58 2.439 . S
O69 C63 1.208 . S
O70 Cd71 2.223 . S
O70 C78 1.315 . S
Cd71 O70 2.223 . S
Cd71 O74 2.297 . S
Cd71 O75 2.439 . S
Cd71 O81 2.240 . S
Cd72 O73 2.240 . S
Cd72 O80 2.223 . S
Cd72 O82 2.297 . S
Cd72 O83 2.439 . S
O73 Cd72 2.240 . S
O73 C78 1.279 . S
O74 Cd71 2.297 . S
O74 C76 1.247 . S
O75 Cd71 2.439 . S
O75 C76 1.208 . S
C76 O74 1.247 . S
C76 O75 1.208 . S
C77 O82 1.247 . S
C77 O83 1.208 . S
C78 O70 1.315 . S
C78 O73 1.279 . S
C79 O80 1.315 . S
C79 O81 1.279 . S
O80 Cd72 2.223 . S
O80 C79 1.315 . S
O81 Cd71 2.240 . S
O81 C79 1.279 . S
O82 Cd72 2.297 . S
O82 C77 1.247 . S
O83 Cd72 2.439 . S
O83 C77 1.208 . S
O84 Cd85 2.223 . S
O84 C92 1.315 . S
Cd85 O84 2.223 . S
Cd85 O88 2.297 . S
Cd85 O89 2.439 . S
Cd85 O95 2.240 . S
Cd86 O87 2.240 . S
Cd86 O94 2.223 . S
Cd86 O96 2.297 . S
Cd86 O97 2.439 . S
O87 Cd86 2.240 . S
O87 C92 1.279 . S
O88 Cd85 2.297 . S
O88 C90 1.247 . S
O89 Cd85 2.439 . S
O89 C90 1.208 . S
C90 O88 1.247 . S
C90 O89 1.208 . S
C91 O96 1.247 . S
C91 O97 1.208 . S
C92 O84 1.315 . S
C92 O87 1.279 . S
C93 O94 1.315 . S
C93 O95 1.279 . S
O94 Cd86 2.223 . S
O94 C93 1.315 . S
O95 Cd85 2.240 . S
O95 C93 1.279 . S
O96 Cd86 2.297 . S
O96 C91 1.247 . S
O97 Cd86 2.439 . S
O97 C91 1.208 . S
O98 Cd99 2.223 . S
O98 C106 1.315 . S
Cd99 O98 2.223 . S
Cd99 O102 2.297 . S
Cd99 O103 2.439 . S
Cd99 O109 2.240 . S
Cd100 O101 2.240 . S
Cd100 O108 2.223 . S
Cd100 O110 2.297 . S
Cd100 O111 2.439 . S
O101 Cd100 2.240 . S
O101 C106 1.279 . S
O102 Cd99 2.297 . S
O102 C104 1.247 . S
O103 Cd99 2.439 . S
O103 C104 1.208 . S
C104 O102 1.247 . S
C104 O103 1.208 . S
C105 O110 1.247 . S
C105 O111 1.208 . S
C106 O98 1.315 . S
C106 O101 1.279 . S
C107 O108 1.315 . S
C107 O109 1.279 . S
O108 Cd100 2.223 . S
O108 C107 1.315 . S
O109 Cd99 2.240 . S
O109 C107 1.279 . S
O110 Cd100 2.297 . S
O110 C105 1.247 . S
O111 Cd100 2.439 . S
O111 C105 1.208 . S
O112 Cd113 2.223 . S
O112 C120 1.315 . S
Cd113 O112 2.223 . S
Cd113 O116 2.297 . S
Cd113 O117 2.439 . S
Cd113 O123 2.240 . S
Cd114 O115 2.240 . S
Cd114 O122 2.223 . S
Cd114 O124 2.297 . S
Cd114 O125 2.439 . S
O115 Cd114 2.240 . S
O115 C120 1.279 . S
O116 Cd113 2.297 . S
O116 C118 1.247 . S
O117 Cd113 2.439 . S
O117 C118 1.208 . S
C118 O116 1.247 . S
C118 O117 1.208 . S
C119 O124 1.247 . S
C119 O125 1.208 . S
C120 O112 1.315 . S
C120 O115 1.279 . S
C121 O122 1.315 . S
C121 O123 1.279 . S
O122 Cd114 2.223 . S
O122 C121 1.315 . S
O123 Cd113 2.240 . S
O123 C121 1.279 . S
O124 Cd114 2.297 . S
O124 C119 1.247 . S
O125 Cd114 2.439 . S
O125 C119 1.208 . S
O126 Cd127 2.223 . S
O126 C134 1.315 . S
Cd127 O126 2.223 . S
Cd127 O130 2.297 . S
Cd127 O131 2.439 . S
Cd127 O137 2.240 . S
Cd128 O129 2.240 . S
Cd128 O136 2.223 . S
Cd128 O138 2.297 . S
Cd128 O139 2.439 . S
O129 Cd128 2.240 . S
O129 C134 1.279 . S
O130 Cd127 2.297 . S
O130 C132 1.247 . S
O131 Cd127 2.439 . S
O131 C132 1.208 . S
C132 O130 1.247 . S
C132 O131 1.208 . S
C133 O138 1.247 . S
C133 O139 1.208 . S
C134 O126 1.315 . S
C134 O129 1.279 . S
C135 O136 1.315 . S
C135 O137 1.279 . S
O136 Cd128 2.223 . S
O136 C135 1.315 . S
O137 Cd127 2.240 . S
O137 C135 1.279 . S
O138 Cd128 2.297 . S
O138 C133 1.247 . S
O139 Cd128 2.439 . S
O139 C133 1.208 . S
O140 Cd141 2.223 . S
O140 C148 1.315 . S
Cd141 O140 2.223 . S
Cd141 O144 2.297 . S
Cd141 O145 2.439 . S
Cd141 O151 2.240 . S
Cd142 O143 2.240 . S
Cd142 O150 2.223 . S
Cd142 O152 2.297 . S
Cd142 O153 2.439 . S
O143 Cd142 2.240 . S
O143 C148 1.279 . S
O144 Cd141 2.297 . S
O144 C146 1.247 . S
O145 Cd141 2.439 . S
O145 C146 1.208 . S
C146 O144 1.247 . S
C146 O145 1.208 . S
C147 O152 1.247 . S
C147 O153 1.208 . S
C148 O140 1.315 . S
C148 O143 1.279 . S
C149 O150 1.315 . S
C149 O151 1.279 . S
O150 Cd142 2.223 . S
O150 C149 1.315 . S
O151 Cd141 2.240 . S
O151 C149 1.279 . S
O152 Cd142 2.297 . S
O152 C147 1.247 . S
O153 Cd142 2.439 . S
O153 C147 1.208 . S
O154 Cd155 2.223 . S
O154 C162 1.315 . S
Cd155 O154 2.223 . S
Cd155 O158 2.297 . S
Cd155 O159 2.439 . S
Cd155 O165 2.240 . S
Cd156 O157 2.240 . S
Cd156 O164 2.223 . S
Cd156 O166 2.297 . S
Cd156 O167 2.439 . S
O157 Cd156 2.240 . S
O157 C162 1.279 . S
O158 Cd155 2.297 . S
O158 C160 1.247 . S
O159 Cd155 2.439 . S
O159 C160 1.208 . S
C160 O158 1.247 . S
C160 O159 1.208 . S
C161 O166 1.247 . S
C161 O167 1.208 . S
C162 O154 1.315 . S
C162 O157 1.279 . S
C163 O164 1.315 . S
C163 O165 1.279 . S
O164 Cd156 2.223 . S
O164 C163 1.315 . S
O165 Cd155 2.240 . S
O165 C163 1.279 . S
O166 Cd156 2.297 . S
O166 C161 1.247 . S
O167 Cd156 2.439 . S
O167 C161 1.208 . S
O168 Cd169 2.223 . S
O168 C176 1.315 . S
Cd169 O168 2.223 . S
Cd169 O172 2.297 . S
Cd169 O173 2.439 . S
Cd169 O179 2.240 . S
Cd170 O171 2.240 . S
Cd170 O178 2.223 . S
Cd170 O180 2.297 . S
Cd170 O181 2.439 . S
O171 Cd170 2.240 . S
O171 C176 1.279 . S
O172 Cd169 2.297 . S
O172 C174 1.247 . S
O173 Cd169 2.439 . S
O173 C174 1.208 . S
C174 O172 1.247 . S
C174 O173 1.208 . S
C175 O180 1.247 . S
C175 O181 1.208 . S
C176 O168 1.315 . S
C176 O171 1.279 . S
C177 O178 1.315 . S
C177 O179 1.279 . S
O178 Cd170 2.223 . S
O178 C177 1.315 . S
O179 Cd169 2.240 . S
O179 C177 1.279 . S
O180 Cd170 2.297 . S
O180 C175 1.247 . S
O181 Cd170 2.439 . S
O181 C175 1.208 . S
O182 Cd183 2.223 . S
O182 C190 1.315 . S
Cd183 O182 2.223 . S
Cd183 O186 2.297 . S
Cd183 O187 2.439 . S
Cd183 O193 2.240 . S
Cd184 O185 2.240 . S
Cd184 O192 2.223 . S
Cd184 O194 2.297 . S
Cd184 O195 2.439 . S
O185 Cd184 2.240 . S
O185 C190 1.279 . S
O186 Cd183 2.297 . S
O186 C188 1.247 . S
O187 Cd183 2.439 . S
O187 C188 1.208 . S
C188 O186 1.247 . S
C188 O187 1.208 . S
C189 O194 1.247 . S
C189 O195 1.208 . S
C190 O182 1.315 . S
C190 O185 1.279 . S
C191 O192 1.315 . S
C191 O193 1.279 . S
O192 Cd184 2.223 . S
O192 C191 1.315 . S
O193 Cd183 2.240 . S
O193 C191 1.279 . S
O194 Cd184 2.297 . S
O194 C189 1.247 . S
O195 Cd184 2.439 . S
O195 C189 1.208 . S
O196 Cd197 2.223 . S
O196 C204 1.315 . S
Cd197 O196 2.223 . S
Cd197 O200 2.297 . S
Cd197 O201 2.439 . S
Cd197 O207 2.240 . S
Cd198 O199 2.240 . S
Cd198 O206 2.223 . S
Cd198 O208 2.297 . S
Cd198 O209 2.439 . S
O199 Cd198 2.240 . S
O199 C204 1.279 . S
O200 Cd197 2.297 . S
O200 C202 1.247 . S
O201 Cd197 2.439 . S
O201 C202 1.208 . S
C202 O200 1.247 . S
C202 O201 1.208 . S
C203 O208 1.247 . S
C203 O209 1.208 . S
C204 O196 1.315 . S
C204 O199 1.279 . S
C205 O206 1.315 . S
C205 O207 1.279 . S
O206 Cd198 2.223 . S
O206 C205 1.315 . S
O207 Cd197 2.240 . S
O207 C205 1.279 . S
O208 Cd198 2.297 . S
O208 C203 1.247 . S
O209 Cd198 2.439 . S
O209 C203 1.208 . S
O210 Cd211 2.223 . S
O210 C218 1.315 . S
Cd211 O210 2.223 . S
Cd211 O214 2.297 . S
Cd211 O215 2.439 . S
Cd211 O221 2.240 . S
Cd212 O213 2.240 . S
Cd212 O220 2.223 . S
Cd212 O222 2.297 . S
Cd212 O223 2.439 . S
O213 Cd212 2.240 . S
O213 C218 1.279 . S
O214 Cd211 2.297 . S
O214 C216 1.247 . S
O215 Cd211 2.439 . S
O215 C216 1.208 . S
C216 O214 1.247 . S
C216 O215 1.208 . S
C217 O222 1.247 . S
C217 O223 1.208 . S
C218 O210 1.315 . S
C218 O213 1.279 . S
C219 O220 1.315 . S
C219 O221 1.279 . S
O220 Cd212 2.223 . S
O220 C219 1.315 . S
O221 Cd211 2.240 . S
O221 C219 1.279 . S
O222 Cd212 2.297 . S
O222 C217 1.247 . S
O223 Cd212 2.439 . S
O223 C217 1.208 . S
H224 C230 0.930 . S
H225 C234 0.930 . S
H226 C239 0.929 . S
H227 C237 0.929 . S
H228 C232 0.929 . S
H229 C238 0.929 . S
C230 H224 0.930 . S
C230 C231 1.367 1_545 S
C230 C238 1.378 . S
C231 C230 1.367 1_565 S
C231 C239 1.433 . S
C232 H228 0.929 . S
C232 C234 1.378 . S
C232 C236 1.350 1_565 S
C233 C236 1.463 1_565 S
C233 C238 1.350 1_565 S
C233 N241 1.427 . S
C234 H225 0.930 . S
C234 C232 1.378 . S
C234 C235 1.367 1_565 S
C235 C234 1.367 1_545 S
C235 C237 1.433 . S
C236 C232 1.350 1_545 S
C236 C233 1.463 1_545 S
C236 N240 1.427 . S
C237 H227 0.929 . S
C237 C235 1.433 . S
C237 N240 1.384 . S
C238 H229 0.929 . S
C238 C230 1.378 . S
C238 C233 1.350 1_545 S
C239 H226 0.929 . S
C239 C231 1.433 . S
C239 N241 1.384 . S
N240 C236 1.427 . S
N240 C237 1.384 . S
N241 C233 1.427 . S
N241 C239 1.384 . S
H242 C248 0.930 . S
H243 C252 0.930 . S
H244 C257 0.929 . S
H245 C255 0.929 . S
H246 C250 0.935 . S
H247 C256 0.935 . S
C248 H242 0.930 . S
C248 C249 1.367 . S
C248 C256 1.374 1_565 S
C249 C248 1.367 . S
C249 C257 1.433 . S
C250 H246 0.935 . S
C250 C252 1.374 1_565 S
C250 C254 1.348 1_565 S
C251 C254 1.463 1_565 S
C251 C256 1.348 1_565 S
C251 N259 1.427 . S
C252 H243 0.930 . S
C252 C250 1.374 1_545 S
C252 C253 1.367 . S
C253 C252 1.367 . S
C253 C255 1.433 . S
C254 C250 1.348 1_545 S
C254 C251 1.463 1_545 S
C254 N258 1.427 . S
C255 H245 0.929 . S
C255 C253 1.433 . S
C255 N258 1.384 . S
C256 H247 0.935 . S
C256 C248 1.374 1_545 S
C256 C251 1.348 1_545 S
C257 H244 0.929 . S
C257 C249 1.433 . S
C257 N259 1.384 . S
N258 C254 1.427 . S
N258 C255 1.384 . S
N259 C251 1.427 . S
N259 C257 1.384 . S
H260 C266 0.930 . S
H261 C270 0.930 . S
H262 C275 0.930 . S
H263 C273 0.930 . S
H264 C268 0.929 . S
H265 C274 0.929 . S
C266 H260 0.930 . S
C266 C267 1.367 . S
C266 C274 1.378 . S
C267 C266 1.367 . S
C267 C275 1.433 . S
C268 H264 0.929 . S
C268 C270 1.378 . S
C268 C272 1.350 . S
C269 C272 1.463 1_565 S
C269 C274 1.350 . S
C269 N277 1.427 1_565 S
C270 H261 0.930 . S
C270 C268 1.378 . S
C270 C271 1.367 . S
C271 C270 1.367 . S
C271 C273 1.433 . S
C272 C268 1.350 . S
C272 C269 1.463 1_545 S
C272 N276 1.427 1_545 S
C273 H263 0.930 . S
C273 C271 1.433 . S
C273 N276 1.384 1_545 S
C274 H265 0.929 . S
C274 C266 1.378 . S
C274 C269 1.350 . S
C275 H262 0.930 . S
C275 C267 1.433 . S
C275 N277 1.384 1_565 S
N276 C272 1.427 1_565 S
N276 C273 1.384 1_565 S
N277 C269 1.427 1_545 S
N277 C275 1.384 1_545 S
H278 C284 0.930 . S
H279 C288 0.930 . S
H280 C293 0.929 . S
H281 C291 0.929 . S
H282 C286 0.929 . S
H283 C292 0.929 . S
C284 H278 0.930 . S
C284 C285 1.367 . S
C284 C292 1.378 . S
C285 C284 1.367 . S
C285 C293 1.433 . S
C286 H282 0.929 . S
C286 C288 1.378 . S
C286 C290 1.350 . S
C287 C290 1.463 1_565 S
C287 C292 1.350 . S
C287 N295 1.427 1_565 S
C288 H279 0.930 . S
C288 C286 1.378 . S
C288 C289 1.367 . S
C289 C288 1.367 . S
C289 C291 1.433 . S
C290 C286 1.350 . S
C290 C287 1.463 1_545 S
C290 N294 1.427 1_545 S
C291 H281 0.929 . S
C291 C289 1.433 . S
C291 N294 1.384 1_545 S
C292 H283 0.929 . S
C292 C284 1.378 . S
C292 C287 1.350 . S
C293 H280 0.929 . S
C293 C285 1.433 . S
C293 N295 1.384 1_565 S
N294 C290 1.427 1_565 S
N294 C291 1.384 1_565 S
N295 C287 1.427 1_545 S
N295 C293 1.384 1_545 S
H296 C302 0.930 . S
H297 C306 0.930 . S
H298 C311 0.929 . S
H299 C309 0.929 . S
H300 C304 0.929 . S
H301 C310 0.929 . S
C302 H296 0.930 . S
C302 C303 1.367 . S
C302 C310 1.378 . S
C303 C302 1.367 . S
C303 C311 1.433 . S
C304 H300 0.929 . S
C304 C306 1.378 . S
C304 C308 1.350 . S
C305 C308 1.463 . S
C305 C310 1.350 . S
C305 N313 1.427 . S
C306 H297 0.930 . S
C306 C304 1.378 . S
C306 C307 1.367 . S
C307 C306 1.367 . S
C307 C309 1.433 . S
C308 C304 1.350 . S
C308 C305 1.463 . S
C308 N312 1.427 . S
C309 H299 0.929 . S
C309 C307 1.433 . S
C309 N312 1.384 . S
C310 H301 0.929 . S
C310 C302 1.378 . S
C310 C305 1.350 . S
C311 H298 0.929 . S
C311 C303 1.433 . S
C311 N313 1.384 . S
N312 C308 1.427 . S
N312 C309 1.384 . S
N313 C305 1.427 . S
N313 C311 1.384 . S
H314 C320 0.930 . S
H315 C324 0.930 . S
H316 C329 0.929 . S
H317 C327 0.929 . S
H318 C322 0.929 . S
H319 C328 0.929 . S
C320 H314 0.930 . S
C320 C321 1.367 . S
C320 C328 1.378 . S
C321 C320 1.367 . S
C321 C329 1.433 . S
C322 H318 0.929 . S
C322 C324 1.378 . S
C322 C326 1.350 . S
C323 C326 1.463 . S
C323 C328 1.350 . S
C323 N331 1.427 . S
C324 H315 0.930 . S
C324 C322 1.378 . S
C324 C325 1.367 . S
C325 C324 1.367 . S
C325 C327 1.433 . S
C326 C322 1.350 . S
C326 C323 1.463 . S
C326 N330 1.427 . S
C327 H317 0.929 . S
C327 C325 1.433 . S
C327 N330 1.384 . S
C328 H319 0.929 . S
C328 C320 1.378 . S
C328 C323 1.350 . S
C329 H316 0.929 . S
C329 C321 1.433 . S
C329 N331 1.384 . S
N330 C326 1.427 . S
N330 C327 1.384 . S
N331 C323 1.427 . S
N331 C329 1.384 . S
H332 C338 0.930 . S
H333 C342 0.930 . S
H334 C347 0.929 . S
H335 C345 0.929 . S
H336 C340 0.929 . S
H337 C346 0.929 . S
C338 H332 0.930 . S
C338 C339 1.367 . S
C338 C346 1.378 . S
C339 C338 1.367 . S
C339 C347 1.433 . S
C340 H336 0.929 . S
C340 C342 1.378 . S
C340 C344 1.350 . S
C341 C344 1.463 . S
C341 C346 1.350 . S
C341 N349 1.427 . S
C342 H333 0.930 . S
C342 C340 1.378 . S
C342 C343 1.367 . S
C343 C342 1.367 . S
C343 C345 1.433 . S
C344 C340 1.350 . S
C344 C341 1.463 . S
C344 N348 1.427 . S
C345 H335 0.929 . S
C345 C343 1.433 . S
C345 N348 1.384 . S
C346 H337 0.929 . S
C346 C338 1.378 . S
C346 C341 1.350 . S
C347 H334 0.929 . S
C347 C339 1.433 . S
C347 N349 1.384 . S
N348 C344 1.427 . S
N348 C345 1.384 . S
N349 C341 1.427 . S
N349 C347 1.384 . S
H350 C356 0.930 . S
H351 C360 0.930 . S
H352 C365 0.929 . S
H353 C363 0.929 . S
H354 C358 0.929 . S
H355 C364 0.929 . S
C356 H350 0.930 . S
C356 C357 1.367 . S
C356 C364 1.378 . S
C357 C356 1.367 . S
C357 C365 1.433 . S
C358 H354 0.929 . S
C358 C360 1.378 . S
C358 C362 1.350 . S
C359 C362 1.463 . S
C359 C364 1.350 . S
C359 N367 1.427 . S
C360 H351 0.930 . S
C360 C358 1.378 . S
C360 C361 1.367 . S
C361 C360 1.367 . S
C361 C363 1.433 . S
C362 C358 1.350 . S
C362 C359 1.463 . S
C362 N366 1.427 . S
C363 H353 0.929 . S
C363 C361 1.433 . S
C363 N366 1.384 . S
C364 H355 0.929 . S
C364 C356 1.378 . S
C364 C359 1.350 . S
C365 H352 0.929 . S
C365 C357 1.433 . S
C365 N367 1.384 . S
N366 C362 1.427 . S
N366 C363 1.384 . S
N367 C359 1.427 . S
N367 C365 1.384 . S
H368 C374 0.930 . S
H369 C378 0.930 . S
H370 C383 0.929 . S
H371 C381 0.929 . S
H372 C376 0.929 . S
H373 C382 0.929 . S
C374 H368 0.930 . S
C374 C375 1.367 . S
C374 C382 1.378 . S
C375 C374 1.367 . S
C375 C383 1.433 . S
C376 H372 0.929 . S
C376 C378 1.378 . S
C376 C380 1.350 . S
C377 C380 1.463 1_655 S
C377 C382 1.350 . S
C377 N385 1.427 1_655 S
C378 H369 0.930 . S
C378 C376 1.378 . S
C378 C379 1.367 . S
C379 C378 1.367 . S
C379 C381 1.433 . S
C380 C376 1.350 . S
C380 C377 1.463 1_455 S
C380 N384 1.427 1_455 S
C381 H371 0.929 . S
C381 C379 1.433 . S
C381 N384 1.384 1_455 S
C382 H373 0.929 . S
C382 C374 1.378 . S
C382 C377 1.350 . S
C383 H370 0.929 . S
C383 C375 1.433 . S
C383 N385 1.384 1_655 S
N384 C380 1.427 1_655 S
N384 C381 1.384 1_655 S
N385 C377 1.427 1_455 S
N385 C383 1.384 1_455 S
H386 C392 0.930 . S
H387 C396 0.930 . S
H388 C401 0.929 . S
H389 C399 0.929 . S
H390 C394 0.929 . S
H391 C400 0.929 . S
C392 H386 0.930 . S
C392 C393 1.367 . S
C392 C400 1.378 . S
C393 C392 1.367 . S
C393 C401 1.433 . S
C394 H390 0.929 . S
C394 C396 1.378 . S
C394 C398 1.350 . S
C395 C398 1.463 . S
C395 C400 1.350 . S
C395 N403 1.427 . S
C396 H387 0.930 . S
C396 C394 1.378 . S
C396 C397 1.367 . S
C397 C396 1.367 . S
C397 C399 1.433 . S
C398 C394 1.350 . S
C398 C395 1.463 . S
C398 N402 1.427 . S
C399 H389 0.929 . S
C399 C397 1.433 . S
C399 N402 1.384 . S
C400 H391 0.929 . S
C400 C392 1.378 . S
C400 C395 1.350 . S
C401 H388 0.929 . S
C401 C393 1.433 . S
C401 N403 1.384 . S
N402 C398 1.427 . S
N402 C399 1.384 . S
N403 C395 1.427 . S
N403 C401 1.384 . S
H404 C410 0.930 1_655 S
H405 C414 0.930 1_455 S
H406 C419 0.929 . S
H407 C417 0.929 . S
H408 C412 0.929 . S
H409 C418 0.929 . S
C410 H404 0.930 1_455 S
C410 C411 1.367 . S
C410 C418 1.378 1_455 S
C411 C410 1.367 . S
C411 C419 1.433 . S
C412 H408 0.929 . S
C412 C414 1.378 1_455 S
C412 C416 1.350 1_455 S
C413 C416 1.463 1_455 S
C413 C418 1.350 1_455 S
C413 N421 1.427 . S
C414 H405 0.930 1_655 S
C414 C412 1.378 1_655 S
C414 C415 1.367 . S
C415 C414 1.367 . S
C415 C417 1.433 . S
C416 C412 1.350 1_655 S
C416 C413 1.463 1_655 S
C416 N420 1.427 . S
C417 H407 0.929 . S
C417 C415 1.433 . S
C417 N420 1.384 . S
C418 H409 0.929 . S
C418 C410 1.378 1_655 S
C418 C413 1.350 1_655 S
C419 H406 0.929 . S
C419 C411 1.433 . S
C419 N421 1.384 . S
N420 C416 1.427 . S
N420 C417 1.384 . S
N421 C413 1.427 . S
N421 C419 1.384 . S
H422 C428 0.930 . S
H423 C432 0.930 . S
H424 C437 0.929 . S
H425 C435 0.929 . S
H426 C430 0.929 . S
H427 C436 0.929 . S
C428 H422 0.930 . S
C428 C429 1.367 . S
C428 C436 1.378 . S
C429 C428 1.367 . S
C429 C437 1.433 . S
C430 H426 0.929 . S
C430 C432 1.378 . S
C430 C434 1.350 . S
C431 C434 1.463 . S
C431 C436 1.350 . S
C431 N439 1.427 . S
C432 H423 0.930 . S
C432 C430 1.378 . S
C432 C433 1.367 . S
C433 C432 1.367 . S
C433 C435 1.433 . S
C434 C430 1.350 . S
C434 C431 1.463 . S
C434 N438 1.427 . S
C435 H425 0.929 . S
C435 C433 1.433 . S
C435 N438 1.384 . S
C436 H427 0.929 . S
C436 C428 1.378 . S
C436 C431 1.350 . S
C437 H424 0.929 . S
C437 C429 1.433 . S
C437 N439 1.384 . S
N438 C434 1.427 . S
N438 C435 1.384 . S
N439 C431 1.427 . S
N439 C437 1.384 . S
H440 C446 0.930 . S
H441 C450 0.930 . S
H442 C455 0.929 . S
H443 C453 0.929 . S
H444 C448 0.929 . S
H445 C454 0.929 . S
C446 H440 0.930 . S
C446 C447 1.367 . S
C446 C454 1.378 . S
C447 C446 1.367 . S
C447 C455 1.433 . S
C448 H444 0.929 . S
C448 C450 1.378 . S
C448 C452 1.350 . S
C449 C452 1.463 . S
C449 C454 1.350 . S
C449 N457 1.427 . S
C450 H441 0.930 . S
C450 C448 1.378 . S
C450 C451 1.367 . S
C451 C450 1.367 . S
C451 C453 1.433 . S
C452 C448 1.350 . S
C452 C449 1.463 . S
C452 N456 1.427 . S
C453 H443 0.929 . S
C453 C451 1.433 . S
C453 N456 1.384 . S
C454 H445 0.929 . S
C454 C446 1.378 . S
C454 C449 1.350 . S
C455 H442 0.929 . S
C455 C447 1.433 . S
C455 N457 1.384 . S
N456 C452 1.427 . S
N456 C453 1.384 . S
N457 C449 1.427 . S
N457 C455 1.384 . S
H458 C464 0.930 . S
H459 C468 0.930 . S
H460 C473 0.929 . S
H461 C471 0.929 . S
H462 C466 0.929 . S
H463 C472 0.929 . S
C464 H458 0.930 . S
C464 C465 1.367 1_655 S
C464 C472 1.378 . S
C465 C464 1.367 1_455 S
C465 C473 1.433 . S
C466 H462 0.929 . S
C466 C468 1.378 . S
C466 C470 1.350 1_455 S
C467 C470 1.463 1_455 S
C467 C472 1.350 1_455 S
C467 N475 1.427 . S
C468 H459 0.930 . S
C468 C466 1.378 . S
C468 C469 1.367 1_455 S
C469 C468 1.367 1_655 S
C469 C471 1.433 . S
C470 C466 1.350 1_655 S
C470 C467 1.463 1_655 S
C470 N474 1.427 . S
C471 H461 0.929 . S
C471 C469 1.433 . S
C471 N474 1.384 . S
C472 H463 0.929 . S
C472 C464 1.378 . S
C472 C467 1.350 1_655 S
C473 H460 0.929 . S
C473 C465 1.433 . S
C473 N475 1.384 . S
N474 C470 1.427 . S
N474 C471 1.384 . S
N475 C467 1.427 . S
N475 C473 1.384 . S
H476 C482 0.930 . S
H477 C486 0.930 . S
H478 C491 0.929 . S
H479 C489 0.929 . S
H480 C484 0.929 . S
H481 C490 0.929 . S
C482 H476 0.930 . S
C482 C483 1.367 . S
C482 C490 1.378 . S
C483 C482 1.367 . S
C483 C491 1.433 . S
C484 H480 0.929 . S
C484 C486 1.378 . S
C484 C488 1.350 . S
C485 C488 1.463 . S
C485 C490 1.350 . S
C485 N493 1.427 . S
C486 H477 0.930 . S
C486 C484 1.378 . S
C486 C487 1.367 . S
C487 C486 1.367 . S
C487 C489 1.433 . S
C488 C484 1.350 . S
C488 C485 1.463 . S
C488 N492 1.427 . S
C489 H479 0.929 . S
C489 C487 1.433 . S
C489 N492 1.384 . S
C490 H481 0.929 . S
C490 C482 1.378 . S
C490 C485 1.350 . S
C491 H478 0.929 . S
C491 C483 1.433 . S
C491 N493 1.384 . S
N492 C488 1.427 . S
N492 C489 1.384 . S
N493 C485 1.427 . S
N493 C491 1.384 . S
H494 C500 0.930 . S
H495 C504 0.930 . S
H496 C509 0.929 . S
H497 C507 0.929 . S
H498 C502 0.929 . S
H499 C508 0.929 . S
C500 H494 0.930 . S
C500 C501 1.367 . S
C500 C508 1.378 . S
C501 C500 1.367 . S
C501 C509 1.433 1_455 S
C502 H498 0.929 . S
C502 C504 1.378 . S
C502 C506 1.350 . S
C503 C506 1.463 1_455 S
C503 C508 1.350 . S
C503 N511 1.427 1_455 S
C504 H495 0.930 . S
C504 C502 1.378 . S
C504 C505 1.367 . S
C505 C504 1.367 . S
C505 C507 1.433 1_655 S
C506 C502 1.350 . S
C506 C503 1.463 1_655 S
C506 N510 1.427 1_655 S
C507 H497 0.929 . S
C507 C505 1.433 1_455 S
C507 N510 1.384 . S
C508 H499 0.929 . S
C508 C500 1.378 . S
C508 C503 1.350 . S
C509 H496 0.929 . S
C509 C501 1.433 1_655 S
C509 N511 1.384 . S
N510 C506 1.427 1_455 S
N510 C507 1.384 . S
N511 C503 1.427 1_655 S
N511 C509 1.384 . S
H512 C518 0.930 . S
H513 C522 0.930 . S
H514 C527 0.929 . S
H515 C525 0.929 . S
H516 C520 0.929 . S
H517 C526 0.929 . S
C518 H512 0.930 . S
C518 C519 1.367 . S
C518 C526 1.378 . S
C519 C518 1.367 . S
C519 C527 1.433 1_455 S
C520 H516 0.929 . S
C520 C522 1.378 . S
C520 C524 1.350 . S
C521 C524 1.463 1_455 S
C521 C526 1.350 . S
C521 N529 1.427 1_455 S
C522 H513 0.930 . S
C522 C520 1.378 . S
C522 C523 1.367 . S
C523 C522 1.367 . S
C523 C525 1.433 1_655 S
C524 C520 1.350 . S
C524 C521 1.463 1_655 S
C524 N528 1.427 1_655 S
C525 H515 0.929 . S
C525 C523 1.433 1_455 S
C525 N528 1.384 . S
C526 H517 0.929 . S
C526 C518 1.378 . S
C526 C521 1.350 . S
C527 H514 0.929 . S
C527 C519 1.433 1_655 S
C527 N529 1.384 . S
N528 C524 1.427 1_455 S
N528 C525 1.384 . S
N529 C521 1.427 1_655 S
N529 C527 1.384 . S
H530 C536 0.930 . S
H531 C540 0.930 . S
H532 C545 0.929 . S
H533 C543 0.929 . S
H534 C538 0.929 . S
H535 C544 0.929 . S
C536 H530 0.930 . S
C536 C537 1.367 . S
C536 C544 1.378 . S
C537 C536 1.367 . S
C537 C545 1.433 . S
C538 H534 0.929 . S
C538 C540 1.378 . S
C538 C542 1.350 . S
C539 C542 1.463 . S
C539 C544 1.350 . S
C539 N547 1.427 . S
C540 H531 0.930 . S
C540 C538 1.378 . S
C540 C541 1.367 . S
C541 C540 1.367 . S
C541 C543 1.433 . S
C542 C538 1.350 . S
C542 C539 1.463 . S
C542 N546 1.427 . S
C543 H533 0.929 . S
C543 C541 1.433 . S
C543 N546 1.384 . S
C544 H535 0.929 . S
C544 C536 1.378 . S
C544 C539 1.350 . S
C545 H532 0.929 . S
C545 C537 1.433 . S
C545 N547 1.384 . S
N546 C542 1.427 . S
N546 C543 1.384 . S
N547 C539 1.427 . S
N547 C545 1.384 . S
H548 C554 0.930 . S
H549 C558 0.930 . S
H550 C563 0.929 . S
H551 C561 0.929 . S
H552 C556 0.929 . S
H553 C562 0.929 . S
C554 H548 0.930 . S
C554 C555 1.367 . S
C554 C562 1.378 . S
C555 C554 1.367 . S
C555 C563 1.433 . S
C556 H552 0.929 . S
C556 C558 1.378 . S
C556 C560 1.350 . S
C557 C560 1.463 . S
C557 C562 1.350 . S
C557 N565 1.427 . S
C558 H549 0.930 . S
C558 C556 1.378 . S
C558 C559 1.367 . S
C559 C558 1.367 . S
C559 C561 1.433 . S
C560 C556 1.350 . S
C560 C557 1.463 . S
C560 N564 1.427 . S
C561 H551 0.929 . S
C561 C559 1.433 . S
C561 N564 1.384 . S
C562 H553 0.929 . S
C562 C554 1.378 . S
C562 C557 1.350 . S
C563 H550 0.929 . S
C563 C555 1.433 . S
C563 N565 1.384 . S
N564 C560 1.427 . S
N564 C561 1.384 . S
N565 C557 1.427 . S
N565 C563 1.384 . S
H566 C572 0.930 . S
H567 C576 0.930 . S
H568 C581 0.929 . S
H569 C579 0.929 . S
H570 C574 0.930 . S
H571 C580 0.930 . S
C572 H566 0.930 . S
C572 C573 1.367 . S
C572 C580 1.378 . S
C573 C572 1.367 . S
C573 C581 1.433 . S
C574 H570 0.930 . S
C574 C576 1.378 . S
C574 C578 1.350 . S
C575 C578 1.463 1_455 S
C575 C580 1.350 . S
C575 N583 1.427 . S
C576 H567 0.930 . S
C576 C574 1.378 . S
C576 C577 1.367 . S
C577 C576 1.367 . S
C577 C579 1.433 . S
C578 C574 1.350 . S
C578 C575 1.463 1_655 S
C578 N582 1.427 . S
C579 H569 0.929 . S
C579 C577 1.433 . S
C579 N582 1.384 . S
C580 H571 0.930 . S
C580 C572 1.378 . S
C580 C575 1.350 . S
C581 H568 0.929 . S
C581 C573 1.433 . S
C581 N583 1.384 . S
N582 C578 1.427 . S
N582 C579 1.384 . S
N583 C575 1.427 . S
N583 C581 1.384 . S
H584 C590 0.930 . S
H585 C594 0.930 . S
H586 C599 0.929 . S
H587 C597 0.929 . S
H588 C592 0.929 . S
H589 C598 0.929 . S
C590 H584 0.930 . S
C590 C591 1.367 . S
C590 C598 1.378 . S
C591 C590 1.367 . S
C591 C599 1.433 1_455 S
C592 H588 0.929 . S
C592 C594 1.378 . S
C592 C596 1.350 . S
C593 C596 1.463 1_455 S
C593 C598 1.350 . S
C593 N601 1.427 1_455 S
C594 H585 0.930 . S
C594 C592 1.378 . S
C594 C595 1.367 . S
C595 C594 1.367 . S
C595 C597 1.433 1_655 S
C596 C592 1.350 . S
C596 C593 1.463 1_655 S
C596 N600 1.427 1_655 S
C597 H587 0.929 . S
C597 C595 1.433 1_455 S
C597 N600 1.384 . S
C598 H589 0.929 . S
C598 C590 1.378 . S
C598 C593 1.350 . S
C599 H586 0.929 . S
C599 C591 1.433 1_655 S
C599 N601 1.384 . S
N600 C596 1.427 1_455 S
N600 C597 1.384 . S
N601 C593 1.427 1_655 S
N601 C599 1.384 . S
H602 C608 0.930 . S
H603 C612 0.930 . S
H604 C617 0.929 . S
H605 C615 0.929 . S
H606 C610 0.929 . S
H607 C616 0.929 . S
C608 H602 0.930 . S
C608 C609 1.367 . S
C608 C616 1.378 . S
C609 C608 1.367 . S
C609 C617 1.433 . S
C610 H606 0.929 . S
C610 C612 1.378 . S
C610 C614 1.350 . S
C611 C614 1.463 . S
C611 C616 1.350 . S
C611 N619 1.427 . S
C612 H603 0.930 . S
C612 C610 1.378 . S
C612 C613 1.367 . S
C613 C612 1.367 . S
C613 C615 1.433 . S
C614 C610 1.350 . S
C614 C611 1.463 . S
C614 N618 1.427 . S
C615 H605 0.929 . S
C615 C613 1.433 . S
C615 N618 1.384 . S
C616 H607 0.929 . S
C616 C608 1.378 . S
C616 C611 1.350 . S
C617 H604 0.929 . S
C617 C609 1.433 . S
C617 N619 1.384 . S
N618 C614 1.427 . S
N618 C615 1.384 . S
N619 C611 1.427 . S
N619 C617 1.384 . S
H620 C626 0.930 . S
H621 C630 0.930 . S
H622 C635 0.929 . S
H623 C633 0.929 . S
H624 C628 0.929 . S
H625 C634 0.929 . S
C626 H620 0.930 . S
C626 C627 1.367 . S
C626 C634 1.378 . S
C627 C626 1.367 . S
C627 C635 1.433 . S
C628 H624 0.929 . S
C628 C630 1.378 . S
C628 C632 1.350 . S
C629 C632 1.463 . S
C629 C634 1.350 . S
C629 N637 1.427 . S
C630 H621 0.930 . S
C630 C628 1.378 . S
C630 C631 1.367 . S
C631 C630 1.367 . S
C631 C633 1.433 . S
C632 C628 1.350 . S
C632 C629 1.463 . S
C632 N636 1.427 . S
C633 H623 0.929 . S
C633 C631 1.433 . S
C633 N636 1.384 . S
C634 H625 0.929 . S
C634 C626 1.378 . S
C634 C629 1.350 . S
C635 H622 0.929 . S
C635 C627 1.433 . S
C635 N637 1.384 . S
N636 C632 1.427 . S
N636 C633 1.384 . S
N637 C629 1.427 . S
N637 C635 1.384 . S
H638 C644 0.930 . S
H639 C648 0.930 . S
H640 C653 0.929 . S
H641 C651 0.929 . S
H642 C646 0.929 . S
H643 C652 0.929 . S
C644 H638 0.930 . S
C644 C645 1.367 . S
C644 C652 1.378 . S
C645 C644 1.367 . S
C645 C653 1.433 . S
C646 H642 0.929 . S
C646 C648 1.378 . S
C646 C650 1.350 . S
C647 C650 1.463 1_455 S
C647 C652 1.350 . S
C647 N655 1.427 . S
C648 H639 0.930 . S
C648 C646 1.378 . S
C648 C649 1.367 . S
C649 C648 1.367 . S
C649 C651 1.433 . S
C650 C646 1.350 . S
C650 C647 1.463 1_655 S
C650 N654 1.427 . S
C651 H641 0.929 . S
C651 C649 1.433 . S
C651 N654 1.384 . S
C652 H643 0.929 . S
C652 C644 1.378 . S
C652 C647 1.350 . S
C653 H640 0.929 . S
C653 C645 1.433 . S
C653 N655 1.384 . S
N654 C650 1.427 . S
N654 C651 1.384 . S
N655 C647 1.427 . S
N655 C653 1.384 . S
H656 C662 0.930 . S
H657 C666 0.930 . S
H658 C671 0.939 . S
H659 C669 0.939 . S
H660 C664 0.911 1_655 S
H661 C670 0.911 1_455 S
C662 H656 0.930 . S
C662 C663 1.367 . S
C662 C670 1.391 . S
C663 C662 1.367 . S
C663 C671 1.417 1_565 S
C664 H660 0.911 1_455 S
C664 C666 1.390 . S
C664 C668 1.356 . S
C665 C668 1.463 1_666 S
C665 C670 1.356 . S
C665 N673 1.427 1_565 S
C666 H657 0.930 . S
C666 C664 1.390 . S
C666 C667 1.367 . S
C667 C666 1.367 . S
C667 C669 1.417 1_545 S
C668 C664 1.356 . S
C668 C665 1.463 1_444 S
C668 N672 1.427 1_545 S
C669 H659 0.939 . S
C669 C667 1.417 1_565 S
C669 N672 1.390 . S
C670 H661 0.911 1_655 S
C670 C662 1.391 . S
C670 C665 1.356 . S
C671 H658 0.939 . S
C671 C663 1.417 1_545 S
C671 N673 1.390 . S
N672 C668 1.427 1_565 S
N672 C669 1.390 . S
N673 C665 1.427 1_545 S
N673 C671 1.390 . S
H674 C680 0.930 1_565 S
H675 C684 0.930 1_545 S
H676 C689 0.929 . S
H677 C687 0.929 . S
H678 C682 0.929 . S
H679 C688 0.929 . S
C680 H674 0.930 1_545 S
C680 C681 1.367 . S
C680 C688 1.378 1_545 S
C681 C680 1.367 . S
C681 C689 1.433 . S
C682 H678 0.929 . S
C682 C684 1.378 1_545 S
C682 C686 1.350 1_545 S
C683 C686 1.463 1_546 S
C683 C688 1.350 1_545 S
C683 N691 1.427 . S
C684 H675 0.930 1_565 S
C684 C682 1.378 1_565 S
C684 C685 1.367 . S
C685 C684 1.367 . S
C685 C687 1.433 . S
C686 C682 1.350 1_565 S
C686 C683 1.463 1_564 S
C686 N690 1.427 . S
C687 H677 0.929 . S
C687 C685 1.433 . S
C687 N690 1.384 . S
C688 H679 0.929 . S
C688 C680 1.378 1_565 S
C688 C683 1.350 1_565 S
C689 H676 0.929 . S
C689 C681 1.433 . S
C689 N691 1.384 . S
N690 C686 1.427 . S
N690 C687 1.384 . S
N691 C683 1.427 . S
N691 C689 1.384 . S
H692 C698 0.930 . S
H693 C702 0.930 . S
H694 C707 0.931 1_565 S
H695 C705 0.931 1_545 S
H696 C700 0.929 . S
H697 C706 0.929 . S
C698 H692 0.930 . S
C698 C699 1.367 . S
C698 C706 1.378 . S
C699 C698 1.367 . S
C699 C707 1.431 . S
C700 H696 0.929 . S
C700 C702 1.378 . S
C700 C704 1.350 . S
C701 C704 1.463 1_545 S
C701 C706 1.350 . S
C701 N709 1.427 1_545 S
C702 H693 0.930 . S
C702 C700 1.378 . S
C702 C703 1.367 . S
C703 C702 1.367 . S
C703 C705 1.431 . S
C704 C700 1.350 . S
C704 C701 1.463 1_565 S
C704 N708 1.427 1_565 S
C705 H695 0.931 1_565 S
C705 C703 1.431 . S
C705 N708 1.385 1_565 S
C706 H697 0.929 . S
C706 C698 1.378 . S
C706 C701 1.350 . S
C707 H694 0.931 1_545 S
C707 C699 1.431 . S
C707 N709 1.385 1_545 S
N708 C704 1.427 1_545 S
N708 C705 1.385 1_545 S
N709 C701 1.427 1_565 S
N709 C707 1.385 1_565 S
H710 C716 0.930 1_655 S
H711 C720 0.930 1_455 S
H712 C725 0.929 . S
H713 C723 0.929 . S
H714 C718 0.929 . S
H715 C724 0.929 . S
C716 H710 0.930 1_455 S
C716 C717 1.367 . S
C716 C724 1.378 1_455 S
C717 C716 1.367 . S
C717 C725 1.433 . S
C718 H714 0.929 . S
C718 C720 1.378 1_455 S
C718 C722 1.350 1_455 S
C719 C722 1.463 1_465 S
C719 C724 1.350 1_455 S
C719 N727 1.427 1_565 S
C720 H711 0.930 1_655 S
C720 C718 1.378 1_655 S
C720 C721 1.367 . S
C721 C720 1.367 . S
C721 C723 1.433 . S
C722 C718 1.350 1_655 S
C722 C719 1.463 1_645 S
C722 N726 1.427 1_545 S
C723 H713 0.929 . S
C723 C721 1.433 . S
C723 N726 1.384 1_545 S
C724 H715 0.929 . S
C724 C716 1.378 1_655 S
C724 C719 1.350 1_655 S
C725 H712 0.929 . S
C725 C717 1.433 . S
C725 N727 1.384 1_565 S
N726 C722 1.427 1_565 S
N726 C723 1.384 1_565 S
N727 C719 1.427 1_545 S
N727 C725 1.384 1_545 S
H728 C734 0.930 . S
H729 C738 0.930 . S
H730 C743 0.929 . S
H731 C741 0.929 . S
H732 C736 0.929 1_554 S
H733 C742 0.929 1_556 S
C734 H728 0.930 . S
C734 C735 1.367 . S
C734 C742 1.378 . S
C735 C734 1.367 . S
C735 C743 1.433 . S
C736 H732 0.929 1_556 S
C736 C738 1.378 . S
C736 C740 1.350 . S
C737 C740 1.463 1_554 S
C737 C742 1.350 . S
C737 N745 1.427 . S
C738 H729 0.930 . S
C738 C736 1.378 . S
C738 C739 1.367 . S
C739 C738 1.367 . S
C739 C741 1.433 . S
C740 C736 1.350 . S
C740 C737 1.463 1_556 S
C740 N744 1.427 . S
C741 H731 0.929 . S
C741 C739 1.433 . S
C741 N744 1.384 . S
C742 H733 0.929 1_554 S
C742 C734 1.378 . S
C742 C737 1.350 . S
C743 H730 0.929 . S
C743 C735 1.433 . S
C743 N745 1.384 . S
N744 C740 1.427 . S
N744 C741 1.384 . S
N745 C737 1.427 . S
N745 C743 1.384 . S
H746 C752 0.930 1_455 S
H747 C756 0.930 1_655 S
H748 C761 0.929 . S
H749 C759 0.929 . S
H750 C754 0.929 . S
H751 C760 0.929 . S
C752 H746 0.930 1_655 S
C752 C753 1.367 . S
C752 C760 1.378 1_655 S
C753 C752 1.367 . S
C753 C761 1.433 . S
C754 H750 0.929 . S
C754 C756 1.378 1_655 S
C754 C758 1.350 1_655 S
C755 C758 1.463 1_654 S
C755 C760 1.350 1_655 S
C755 N763 1.427 . S
C756 H747 0.930 1_455 S
C756 C754 1.378 1_455 S
C756 C757 1.367 . S
C757 C756 1.367 . S
C757 C759 1.433 . S
C758 C754 1.350 1_455 S
C758 C755 1.463 1_456 S
C758 N762 1.427 . S
C759 H749 0.929 . S
C759 C757 1.433 . S
C759 N762 1.384 . S
C760 H751 0.929 . S
C760 C752 1.378 1_455 S
C760 C755 1.350 1_455 S
C761 H748 0.929 . S
C761 C753 1.433 . S
C761 N763 1.384 . S
N762 C758 1.427 . S
N762 C759 1.384 . S
N763 C755 1.427 . S
N763 C761 1.384 . S
H764 C770 0.930 . S
H765 C774 0.930 . S
H766 C779 0.929 . S
H767 C777 0.929 . S
H768 C772 0.929 . S
H769 C778 0.929 . S
C770 H764 0.930 . S
C770 C771 1.367 . S
C770 C778 1.378 . S
C771 C770 1.367 . S
C771 C779 1.433 . S
C772 H768 0.929 . S
C772 C774 1.378 . S
C772 C776 1.350 . S
C773 C776 1.463 1_655 S
C773 C778 1.350 . S
C773 N781 1.427 . S
C774 H765 0.930 . S
C774 C772 1.378 . S
C774 C775 1.367 . S
C775 C774 1.367 . S
C775 C777 1.433 . S
C776 C772 1.350 . S
C776 C773 1.463 1_455 S
C776 N780 1.427 . S
C777 H767 0.929 . S
C777 C775 1.433 . S
C777 N780 1.384 . S
C778 H769 0.929 . S
C778 C770 1.378 . S
C778 C773 1.350 . S
C779 H766 0.929 . S
C779 C771 1.433 . S
C779 N781 1.384 . S
N780 C776 1.427 . S
N780 C777 1.384 . S
N781 C773 1.427 . S
N781 C779 1.384 . S
H782 C788 0.930 . S
H783 C792 0.930 . S
H784 C797 0.929 . S
H785 C795 0.929 . S
H786 C790 0.929 . S
H787 C796 0.929 . S
C788 H782 0.930 . S
C788 C789 1.367 . S
C788 C796 1.378 . S
C789 C788 1.367 . S
C789 C797 1.433 . S
C790 H786 0.929 . S
C790 C792 1.378 . S
C790 C794 1.350 . S
C791 C794 1.463 . S
C791 C796 1.350 . S
C791 N799 1.427 . S
C792 H783 0.930 . S
C792 C790 1.378 . S
C792 C793 1.367 . S
C793 C792 1.367 . S
C793 C795 1.433 . S
C794 C790 1.350 . S
C794 C791 1.463 . S
C794 N798 1.427 . S
C795 H785 0.929 . S
C795 C793 1.433 . S
C795 N798 1.384 . S
C796 H787 0.929 . S
C796 C788 1.378 . S
C796 C791 1.350 . S
C797 H784 0.929 . S
C797 C789 1.433 . S
C797 N799 1.384 . S
N798 C794 1.427 . S
N798 C795 1.384 . S
N799 C791 1.427 . S
N799 C797 1.384 . S
C231 C21 1.529 . S
C235 C7 1.527 . S
C249 C35 1.523 . S
C253 C49 1.527 . S
C267 C62 1.519 . S
C271 C76 1.523 . S
C285 C104 1.523 . S
C289 C90 1.519 . S
C303 C133 1.522 . S
C307 C119 1.526 . S
C321 C161 1.517 . S
C325 C147 1.519 . S
C339 C188 1.517 . S
C343 C174 1.520 . S
C357 C216 1.527 . S
C361 C202 1.523 . S
C375 C48 1.518 . S
C379 C6 1.518 . S
C393 C20 1.513 . S
C397 C34 1.513 . S
C411 C105 1.512 . S
C415 C63 1.512 . S
C429 C91 1.519 . S
C433 C77 1.519 . S
C447 C118 1.518 . S
C451 C160 1.518 . S
C465 C146 1.511 . S
C469 C132 1.511 . S
C483 C217 1.512 . S
C487 C175 1.512 . S
C501 C189 1.521 . S
C505 C203 1.521 . S
C519 C8 1.457 . S
C523 C134 1.462 . S
C537 C22 1.463 . S
C541 C120 1.453 . S
C555 C162 1.454 . S
C559 C36 1.463 . S
C573 C148 1.452 . S
C577 C50 1.462 . S
C591 C191 1.462 . S
C595 C65 1.458 . S
C609 C177 1.463 . S
C613 C79 1.456 . S
C627 C93 1.462 . S
C631 C219 1.458 . S
C645 C107 1.463 . S
C649 C205 1.454 . S
C663 C64 1.570 . S
C667 C9 1.570 . S
C681 C78 1.572 . S
C685 C23 1.572 . S
C699 C92 1.568 . S
C703 C37 1.568 . S
C717 C106 1.572 . S
C721 C51 1.572 . S
C735 C121 1.567 . S
C739 C176 1.567 . S
C753 C135 1.572 . S
C757 C190 1.572 . S
C771 C204 1.569 . S
C775 C149 1.569 . S
C789 C218 1.572 . S
C793 C163 1.572 . S
