# Generated by pormake.
# Topology vmh, (6)-cn, num edge types: 1
# Building blocks:
#     Node 0, Type 0, BuildingBlock: IZENUY_clean_sbu_0, # of connection points: 6
#     Node 1, Type 0, BuildingBlock: IZENUY_clean_sbu_0, # of connection points: 6
#     Node 2, Type 0, BuildingBlock: IZENUY_clean_sbu_0, # of connection points: 6
#     Node 3, Type 0, BuildingBlock: IZENUY_clean_sbu_0, # of connection points: 6
#     Node 4, Type 0, BuildingBlock: IZENUY_clean_sbu_0, # of connection points: 6
#     Node 5, Type 0, BuildingBlock: IZENUY_clean_sbu_0, # of connection points: 6
#     Node 6, Type 0, BuildingBlock: IZENUY_clean_sbu_0, # of connection points: 6
#     Node 7, Type 0, BuildingBlock: IZENUY_clean_sbu_0, # of connection points: 6
#     Edge 8, Type (0, 0), BuildingBlock: EZIPEK_clean_linker_0, # of connection points: 2
#     Edge 9, Type (0, 0), BuildingBlock: EZIPEK_clean_linker_0, # of connection points: 2
#     Edge 10, Type (0, 0), BuildingBlock: EZIPEK_clean_linker_0, # of connection points: 2
#     Edge 11, Type (0, 0), BuildingBlock: EZIPEK_clean_linker_0, # of connection points: 2
#     Edge 12, Type (0, 0), BuildingBlock: EZIPEK_clean_linker_0, # of connection points: 2
#     Edge 13, Type (0, 0), BuildingBlock: EZIPEK_clean_linker_0, # of connection points: 2
#     Edge 14, Type (0, 0), BuildingBlock: EZIPEK_clean_linker_0, # of connection points: 2
#     Edge 15, Type (0, 0), BuildingBlock: EZIPEK_clean_linker_0, # of connection points: 2
#     Edge 16, Type (0, 0), BuildingBlock: EZIPEK_clean_linker_0, # of connection points: 2
#     Edge 17, Type (0, 0), BuildingBlock: EZIPEK_clean_linker_0, # of connection points: 2
#     Edge 18, Type (0, 0), BuildingBlock: EZIPEK_clean_linker_0, # of connection points: 2
#     Edge 19, Type (0, 0), BuildingBlock: EZIPEK_clean_linker_0, # of connection points: 2
#     Edge 20, Type (0, 0), BuildingBlock: EZIPEK_clean_linker_0, # of connection points: 2
#     Edge 21, Type (0, 0), BuildingBlock: EZIPEK_clean_linker_0, # of connection points: 2
#     Edge 22, Type (0, 0), BuildingBlock: EZIPEK_clean_linker_0, # of connection points: 2
#     Edge 23, Type (0, 0), BuildingBlock: EZIPEK_clean_linker_0, # of connection points: 2
#     Edge 24, Type (0, 0), BuildingBlock: EZIPEK_clean_linker_0, # of connection points: 2
#     Edge 25, Type (0, 0), BuildingBlock: EZIPEK_clean_linker_0, # of connection points: 2
#     Edge 26, Type (0, 0), BuildingBlock: EZIPEK_clean_linker_0, # of connection points: 2
#     Edge 27, Type (0, 0), BuildingBlock: EZIPEK_clean_linker_0, # of connection points: 2
#     Edge 28, Type (0, 0), BuildingBlock: EZIPEK_clean_linker_0, # of connection points: 2
#     Edge 29, Type (0, 0), BuildingBlock: EZIPEK_clean_linker_0, # of connection points: 2
#     Edge 30, Type (0, 0), BuildingBlock: EZIPEK_clean_linker_0, # of connection points: 2
#     Edge 31, Type (0, 0), BuildingBlock: EZIPEK_clean_linker_0, # of connection points: 2
# Relax obj value: 0.246
# Max RMSD: 0.263
# Mean RMSD: 0.263
data_MOF--net-vmh--node1-IZENUY_clean_sbu_0--edge1-EZIPEK_clean_linker_0
_symmetry_space_group_name_H-M    P1
_symmetry_Int_Tables_number       1
_symmetry_cell_setting            triclinic
loop_
_symmetry_equiv_pos_as_xyz
'x, y, z'
_cell_length_a     20.786188
_cell_length_b     31.79738
_cell_length_c     21.307395
_cell_angle_alpha  90.780294
_cell_angle_beta   107.47001
_cell_angle_gamma 89.570127
loop_
_atom_site_label
_atom_site_type_symbol
_atom_site_fract_x
_atom_site_fract_y
_atom_site_fract_z
_atom_type_partial_charge
Fe0 Fe 0.25214 0.11576 0.13474 0.0
Fe1 Fe 0.2764 0.04135 0.05193 0.0
O2 O 0.28961 0.09454 0.07677 0.0
Fe3 Fe 0.33931 0.12722 0.04291 0.0
O4 O 0.37472 0.15808 0.11982 0.0
O5 O 0.33623 0.12594 0.192 0.0
O6 O 0.25252 0.06596 0.17785 0.0
C7 C 0.28726 0.03262 0.1818 0.0
C8 C 0.24728 0.18534 0.04906 0.0
O9 O 0.31179 1.02233 0.13601 0.0
C10 C 0.26968 0.07459 0.93367 0.0
O11 O 0.16616 0.10456 0.07983 0.0
O12 O 0.19119 0.03928 0.05838 0.0
O13 O 0.26953 0.1627 1.01145 0.0
O14 O 0.24641 0.17037 0.10368 0.0
C15 C 0.41239 0.05676 0.05222 0.0
O16 O 0.23815 0.05621 0.96711 0.0
O17 O 0.31503 0.101 0.96107 0.0
C18 C 0.148 0.06755 0.05775 0.0
O19 O 0.35958 0.03452 0.03893 0.0
O20 O 0.41224 0.09416 0.07118 0.0
C21 C 0.38242 0.14652 0.17846 0.0
Fe22 Fe 0.7883 0.12305 0.41235 0.0
Fe23 Fe 0.75059 0.04151 0.47387 0.0
O24 O 0.74792 0.09709 0.46397 0.0
Fe25 Fe 0.70103 0.12725 0.50705 0.0
O26 O 0.63779 0.13775 0.4298 0.0
O27 O 0.7066 0.15029 0.3686 0.0
O28 O 0.7673 0.08463 0.34691 0.0
C29 C 0.75117 0.04657 0.34141 0.0
C30 C 0.78851 0.19026 0.49612 0.0
O31 O 0.73936 0.02713 0.38791 0.0
C32 C 0.77798 0.07835 0.60452 0.0
O33 O 0.87044 0.09632 0.4487 0.0
O34 O 0.84159 0.03863 0.49202 0.0
O35 O 0.7354 0.17778 0.50389 0.0
O36 O 0.82142 0.16708 0.46899 0.0
C37 C 0.62498 0.05596 0.48639 0.0
O38 O 0.7636 0.04786 0.56278 0.0
O39 O 0.76387 0.11608 0.58556 0.0
C40 C 0.88508 0.06099 0.47755 0.0
O41 O 0.65857 0.03659 0.45498 0.0
O42 O 0.6505 0.08603 0.52235 0.0
C43 C 0.64721 0.14875 0.37609 0.0
Fe44 Fe 0.76488 1.00342 0.97355 0.0
Fe45 Fe 0.79931 0.9248 0.90519 0.0
O46 O 0.75583 0.94879 0.95583 0.0
Fe47 Fe 0.70202 0.91793 0.98746 0.0
O48 O 0.63013 0.94999 0.94862 0.0
O49 O 0.67872 1.01069 0.97887 0.0
O50 O 0.73555 1.01772 0.88643 0.0
C51 C 0.76594 1.00507 0.84618 0.0
C52 C 0.76346 0.97529 0.093 0.0
O53 O 0.8014 0.97195 0.85778 0.0
C54 C 0.79709 0.85909 0.99587 0.0
O55 O 0.85229 1.00544 0.97372 0.0
O56 O 0.88228 0.93927 0.96355 0.0
O57 O 0.7198 0.94788 0.06565 0.0
O58 O 0.79685 0.99356 0.06107 0.0
C59 C 0.66864 0.89358 0.85572 0.0
O60 O 0.80448 0.8721 0.94251 0.0
O61 O 0.76998 0.88298 0.02816 0.0
C62 C 0.89739 0.97752 0.98131 0.0
O63 O 0.71784 0.9119 0.84396 0.0
O64 O 0.67356 0.88352 0.91421 0.0
C65 C 0.6268 0.9877 0.96417 0.0
Fe66 Fe 0.2597 0.92445 0.62169 0.0
Fe67 Fe 0.3558 0.9275 0.53833 0.0
O68 O 0.29482 0.95242 0.56903 0.0
Fe69 Fe 0.27182 1.00554 0.54781 0.0
O70 O 0.25741 1.02026 0.62707 0.0
O71 O 0.28733 0.96341 0.68567 0.0
O72 O 0.34094 0.8964 0.66506 0.0
C73 C 0.40167 0.90518 0.66704 0.0
C74 C 0.14778 0.97587 0.54289 0.0
O75 O 0.41383 0.9231 0.61966 0.0
C76 C 0.28468 0.9673 0.42878 0.0
O77 O 0.23014 0.88183 0.56128 0.0
O78 O 0.32659 0.87445 0.541 0.0
O79 O 0.1838 0.99258 0.51196 0.0
O80 O 0.174 0.95013 0.58963 0.0
C81 C 0.4058 1.00843 0.56363 0.0
O82 O 0.30096 0.93175 0.45469 0.0
O83 O 0.28132 0.99957 0.46397 0.0
C84 C 0.2704 0.85995 0.5401 0.0
O85 O 0.39842 0.97499 0.53086 0.0
O86 O 0.35861 0.02325 0.58292 0.0
C87 C 0.27362 1.00193 0.68217 0.0
Fe88 Fe 0.75949 0.61952 0.14827 0.0
Fe89 Fe 0.7932 0.5406 0.0788 0.0
O90 O 0.80248 0.59548 0.0967 0.0
Fe91 Fe 0.8564 0.62667 0.06512 0.0
O92 O 0.88749 0.65977 0.13976 0.0
O93 O 0.84133 0.63199 0.20915 0.0
O94 O 0.75766 0.573 0.19602 0.0
C95 C 0.79288 0.54004 0.20754 0.0
C96 C 0.76258 0.68614 0.05948 0.0
O97 O 0.82171 0.52623 0.1665 0.0
C98 C 0.79379 0.57029 0.95822 0.0
O99 O 0.67565 0.60488 0.09074 0.0
O100 O 0.70515 0.5388 0.07815 0.0
O101 O 0.78924 0.66257 0.02658 0.0
O102 O 0.75421 0.67244 0.11192 0.0
C103 C 0.93077 0.55633 0.08414 0.0
O104 O 0.76255 0.54979 0.99033 0.0
O105 O 0.83605 0.5983 0.98581 0.0
C106 C 0.66001 0.56656 0.07312 0.0
O107 O 0.87944 0.53299 0.07352 0.0
O108 O 0.92834 0.5939 0.10076 0.0
C109 C 0.89151 0.6495 0.198 0.0
Fe110 Fe 0.29792 0.61291 0.41381 0.0
Fe111 Fe 0.2832 0.5353 0.49204 0.0
O112 O 0.2681 0.58941 0.47491 0.0
Fe113 Fe 0.22694 0.62151 0.51939 0.0
O114 O 0.17806 0.65067 0.44436 0.0
O115 O 0.21058 0.622 0.36347 0.0
O116 O 0.29736 0.56469 0.36639 0.0
C117 C 0.26036 0.53269 0.35905 0.0
C118 C 0.30378 0.68226 0.50126 0.0
O119 O 0.23978 0.52016 0.40597 0.0
C120 C 0.30727 0.5671 0.61813 0.0
O121 O 0.38653 0.60218 0.46382 0.0
O122 O 0.36441 0.53523 0.47655 0.0
O123 O 0.29775 0.65687 0.5427 0.0
O124 O 0.30078 0.66768 0.44514 0.0
C125 C 0.1555 0.54952 0.5125 0.0
O126 O 0.32853 0.54578 0.57808 0.0
O127 O 0.2649 0.59633 0.59828 0.0
C128 C 0.40627 0.56458 0.48158 0.0
O129 O 0.20537 0.52647 0.51304 0.0
O130 O 0.15488 0.58838 0.50319 0.0
C131 C 0.16599 0.64068 0.38366 0.0
Fe132 Fe 0.27077 0.50386 0.98554 0.0
Fe133 Fe 0.30554 0.42484 0.91731 0.0
O134 O 0.26138 0.44909 0.96753 0.0
Fe135 Fe 0.20589 0.41818 0.99738 0.0
O136 O 0.13489 0.4511 0.95926 0.0
O137 O 0.18405 0.51164 0.98848 0.0
O138 O 0.24444 0.51814 0.89777 0.0
C139 C 0.2744 0.50423 0.85771 0.0
C140 C 0.26658 0.47399 0.10511 0.0
O141 O 0.30964 0.4713 0.87012 0.0
C142 C 0.30005 0.35859 1.00602 0.0
O143 O 0.35946 0.50524 0.98847 0.0
O144 O 0.38864 0.43898 0.97661 0.0
O145 O 0.22344 0.4467 0.07629 0.0
O146 O 0.29887 0.49466 0.07412 0.0
C147 C 0.17383 0.3951 0.86503 0.0
O148 O 0.30872 0.37204 0.95352 0.0
O149 O 0.27269 0.38243 0.038 0.0
C150 C 0.40442 0.47724 0.99456 0.0
O151 O 0.22432 0.41283 0.85479 0.0
O152 O 0.17705 0.38473 0.92299 0.0
C153 C 0.13219 0.48865 0.97577 0.0
Fe154 Fe 0.766 0.42881 0.64852 0.0
Fe155 Fe 0.84199 0.42092 0.54624 0.0
O156 O 0.79843 0.45255 0.58956 0.0
Fe157 Fe 0.78488 0.50707 0.57377 0.0
O158 O 0.82694 0.52145 0.66047 0.0
O159 O 0.76845 0.47632 0.69809 0.0
O160 O 0.85253 0.4177 0.69994 0.0
C161 C 0.89817 0.39958 0.6806 0.0
C162 C 0.66005 0.47933 0.58138 0.0
O163 O 0.88732 0.39008 0.62 0.0
C164 C 0.76289 0.47606 0.44765 0.0
O165 O 0.75936 0.37502 0.61361 0.0
O166 O 0.77276 0.3851 0.51885 0.0
O167 O 0.70309 0.50804 0.58783 0.0
O168 O 0.67826 0.44143 0.59809 0.0
C169 C 0.91411 0.49287 0.55688 0.0
O170 O 0.80618 0.44732 0.46795 0.0
O171 O 0.74075 0.49712 0.48736 0.0
C172 C 0.75629 0.36115 0.55714 0.0
O173 O 0.9144 0.45409 0.56663 0.0
O174 O 0.8636 0.5158 0.55429 0.0
C175 C 0.80533 0.50846 0.70653 0.0
C176 C 0.25635 1.01367 0.85317 0.0
C177 C 0.26536 0.05758 0.86675 0.0
C178 C 0.28519 0.06577 0.75936 0.0
C179 C 0.26653 0.02309 0.74299 0.0
N180 N 0.20914 0.96221 0.76937 0.0
N181 N 0.27158 0.12687 0.82352 0.0
C182 C 0.24379 0.99899 0.788 0.0
C183 C 0.27453 0.08418 0.81695 0.0
N184 N 0.26441 0.98487 0.90206 0.0
N185 N 0.31627 0.08825 0.72271 0.0
H186 H 0.26032 0.14149 0.86308 0.0
H187 H 0.27256 0.14735 0.78603 0.0
H188 H 0.32883 0.07557 0.68262 0.0
H189 H 0.33621 0.11811 0.73672 0.0
H190 H 0.26387 0.95253 0.89295 0.0
H191 H 0.28093 0.99202 0.95195 0.0
H192 H 0.18711 0.94637 0.80024 0.0
H193 H 0.19474 0.9501 0.7216 0.0
C194 C 0.77333 0.07335 0.78419 0.0
C195 C 0.76624 0.02872 0.7858 0.0
C196 C 0.80428 0.02295 0.68876 0.0
C197 C 0.7933 0.06624 0.6757 0.0
N198 N 0.77528 0.13493 0.71847 0.0
N199 N 0.75382 0.96374 0.72276 0.0
C200 C 0.77985 0.09236 0.72549 0.0
C201 C 0.7753 1.00437 0.7329 0.0
N202 N 0.77836 0.0974 0.83903 0.0
N203 N 0.841 0.99925 0.65793 0.0
H204 H 0.7236 0.95072 0.74846 0.0
H205 H 0.75762 0.94577 0.68266 0.0
H206 H 0.86634 1.01272 0.62774 0.0
H207 H 0.85218 0.96764 0.66893 0.0
H208 H 0.79058 0.12923 0.8423 0.0
H209 H 0.77657 0.08517 0.88347 0.0
H210 H 0.75496 0.15442 0.74746 0.0
H211 H 0.79316 0.15084 0.68477 0.0
C212 C 0.72238 0.0477 0.21843 0.0
C213 C 0.74826 0.02502 0.27785 0.0
C214 C 0.78034 0.96745 0.21446 0.0
C215 C 0.76301 0.993 0.15769 0.0
N216 N 0.73153 0.06239 0.11135 0.0
N217 N 0.81556 0.96603 0.33331 0.0
C218 C 0.73834 0.0345 0.16128 0.0
C219 C 0.78041 0.98534 0.27625 0.0
N220 N 0.68126 0.08179 0.21561 0.0
N221 N 0.79821 0.92634 0.20987 0.0
H222 H 0.82064 0.97837 0.37999 0.0
H223 H 0.84605 0.93972 0.33445 0.0
H224 H 0.8037 0.91295 0.1668 0.0
H225 H 0.80345 0.90494 0.24771 0.0
H226 H 0.65339 0.09541 0.17149 0.0
H227 H 0.66975 0.09421 0.25615 0.0
H228 H 0.72123 0.09423 0.11583 0.0
H229 H 0.74345 0.0559 0.06836 0.0
C230 C 0.22572 0.99322 0.24667 0.0
C231 C 0.28801 1.00304 0.23608 0.0
C232 C 0.34687 0.97342 0.344 0.0
C233 C 0.28487 0.97364 0.35983 0.0
N234 N 0.1643 0.98333 0.32544 0.0
N235 N 0.40891 0.99749 0.27151 0.0
C236 C 0.2239 0.98319 0.31076 0.0
C237 C 0.34899 0.99115 0.28355 0.0
N238 N 0.16872 0.99135 0.19439 0.0
N239 N 0.40335 0.95559 0.38574 0.0
H240 H 0.41138 1.00401 0.22469 0.0
H241 H 0.45556 0.99655 0.30758 0.0
H242 H 0.40364 0.9405 0.42874 0.0
H243 H 0.44846 0.95161 0.3746 0.0
H244 H 0.12269 0.98053 0.19775 0.0
H245 H 0.17028 0.99521 0.14643 0.0
H246 H 0.11937 0.99478 0.29357 0.0
H247 H 0.16073 0.97415 0.37106 0.0
C248 C 0.84661 0.50913 0.82822 0.0
C249 C 0.81518 0.53158 0.7701 0.0
C250 C 0.77104 0.58197 0.83604 0.0
C251 C 0.79397 0.55537 0.89159 0.0
N252 N 0.84202 0.48816 0.93477 0.0
N253 N 0.74191 0.58804 0.71709 0.0
C254 C 0.82846 0.51742 0.88608 0.0
C255 C 0.77634 0.56801 0.7736 0.0
N256 N 0.89439 0.47961 0.82806 0.0
N257 N 0.74365 0.62032 0.84278 0.0
H258 H 0.74675 0.57961 0.67126 0.0
H259 H 0.70611 0.61145 0.71526 0.0
H260 H 0.73512 0.63024 0.88648 0.0
H261 H 0.73275 0.64301 0.80625 0.0
H262 H 0.92485 0.46536 0.87049 0.0
H263 H 0.90858 0.47336 0.78623 0.0
H264 H 0.86194 0.45852 0.93019 0.0
H265 H 0.82567 0.49081 0.97611 0.0
C266 C 0.29104 0.50923 0.6895 0.0
C267 C 0.3142 0.55056 0.68513 0.0
C268 C 0.30826 0.56479 0.79763 0.0
C269 C 0.27442 0.52591 0.796 0.0
N270 N 0.21608 0.46793 0.72971 0.0
N271 N 0.34297 0.61901 0.7352 0.0
C272 C 0.26008 0.50053 0.73833 0.0
C273 C 0.32201 0.57885 0.73935 0.0
N274 N 0.29949 0.47758 0.64862 0.0
N275 N 0.32979 0.58733 0.85504 0.0
H276 H 0.35899 0.62892 0.69583 0.0
H277 H 0.34215 0.64255 0.76944 0.0
H278 H 0.31918 0.57855 0.89783 0.0
H279 H 0.36136 0.61333 0.86112 0.0
H280 H 0.28634 0.44651 0.65367 0.0
H281 H 0.329 0.48027 0.61723 0.0
H282 H 0.19912 0.45077 0.68581 0.0
H283 H 0.19024 0.46204 0.76328 0.0
C284 C 0.21244 0.53053 0.23811 0.0
C285 C 0.24893 0.50923 0.29573 0.0
C286 C 0.2953 0.46179 0.22766 0.0
C287 C 0.26701 0.48779 0.17231 0.0
N288 N 0.21023 0.55283 0.13008 0.0
N289 N 0.32945 0.45577 0.34687 0.0
C290 C 0.22871 0.52378 0.17893 0.0
C291 C 0.29112 0.47477 0.29091 0.0
N292 N 0.16205 0.55758 0.24027 0.0
N293 N 0.3266 0.42505 0.2199 0.0
H294 H 0.32522 0.46341 0.39323 0.0
H295 H 0.36737 0.43401 0.34762 0.0
H296 H 0.33396 0.41612 0.17526 0.0
H297 H 0.34197 0.40258 0.25657 0.0
H298 H 0.12868 0.57101 0.19863 0.0
H299 H 0.14922 0.56222 0.28325 0.0
H300 H 0.18648 0.58116 0.13476 0.0
H301 H 0.22657 0.55159 0.08861 0.0
C302 C 0.76243 0.47847 0.26827 0.0
C303 C 0.79387 0.51817 0.26942 0.0
C304 C 0.77557 0.53433 0.37536 0.0
C305 C 0.75528 0.49243 0.38043 0.0
N306 N 0.73078 0.42338 0.33137 0.0
N307 N 0.84823 0.57751 0.33516 0.0
C308 C 0.74941 0.46401 0.32669 0.0
C309 C 0.80638 0.54379 0.32676 0.0
N310 N 0.74224 0.45552 0.21118 0.0
N311 N 0.76432 0.56578 0.4152 0.0
H312 H 0.87381 0.58419 0.30168 0.0
H313 H 0.86379 0.595 0.37884 0.0
H314 H 0.73425 0.56235 0.44592 0.0
H315 H 0.77548 0.59717 0.40963 0.0
H316 H 0.7123 0.42878 0.2055 0.0
H317 H 0.75212 0.46461 0.1682 0.0
H318 H 0.73321 0.39988 0.29759 0.0
H319 H 0.71498 0.41312 0.37066 0.0
C320 C 0.49097 0.0616 0.98316 0.0
C321 C 0.4707 0.04081 0.03319 0.0
C322 C 0.54564 0.98165 0.03037 0.0
C323 C 0.56664 1.0027 0.98093 0.0
N324 N 0.56293 0.0628 0.91239 0.0
N325 N 0.47337 0.98027 0.10066 0.0
C326 C 0.53975 0.0425 0.95761 0.0
C327 C 0.49697 1.0008 0.05593 0.0
N328 N 0.46105 0.09849 0.95694 0.0
N329 N 0.57483 0.94453 0.05638 0.0
H330 H 0.4432 0.99468 0.12592 0.0
H331 H 0.48085 0.94839 0.11093 0.0
H332 H 0.60136 0.92448 0.03433 0.0
H333 H 0.57371 0.9333 0.10169 0.0
H334 H 0.46268 0.11012 0.91203 0.0
H335 H 0.43287 0.11771 0.9784 0.0
H336 H 0.55463 0.09451 0.9012 0.0
H337 H 0.59347 0.04832 0.8875 0.0
C338 C 0.45096 0.05859 0.50287 0.0
C339 C 0.46235 0.03355 0.55931 0.0
C340 C 0.57386 1.01366 0.55337 0.0
C341 C 0.5639 0.03953 0.49776 0.0
N342 N 0.4975 0.09232 0.42606 0.0
N343 N 0.5387 0.99742 0.64896 0.0
C344 C 0.5035 0.06354 0.47424 0.0
C345 C 0.52585 1.01486 0.58834 0.0
N346 N 0.38857 0.07566 0.47466 0.0
N347 N 0.62928 0.98812 0.57261 0.0
H348 H 0.50306 0.99902 0.67451 0.0
H349 H 0.58561 0.98556 0.67572 0.0
H350 H 0.6649 0.98628 0.54709 0.0
H351 H 0.63637 0.96592 0.60955 0.0
H352 H 0.37355 0.08858 0.42781 0.0
H353 H 0.3509 0.07555 0.49776 0.0
H354 H 0.45907 0.11465 0.41246 0.0
H355 H 0.53361 0.0949 0.402 0.0
C356 C 1.00426 0.56355 1.00945 0.0
C357 C 0.98765 0.54188 0.06093 0.0
C358 C 0.05363 0.481 0.0451 0.0
C359 C 0.07417 0.50361 0.99672 0.0
N360 N 0.07033 0.56618 0.93331 0.0
N361 N 1.00922 0.48519 0.13777 0.0
C362 C 0.04943 0.5447 0.97894 0.0
C363 C 1.01604 0.50214 0.08145 0.0
N364 N 0.97569 0.60158 0.98767 0.0
N365 N 0.06798 0.43916 0.05618 0.0
H366 H 0.98157 0.49976 0.16549 0.0
H367 H 0.03658 0.45918 0.16082 0.0
H368 H 0.09548 0.42061 0.03312 0.0
H369 H 0.0461 0.42089 0.08444 0.0
H370 H 0.97351 0.61374 0.94195 0.0
H371 H 0.95381 0.62159 1.0143 0.0
H372 H 0.06381 0.59841 0.92581 0.0
H373 H 0.09669 0.55194 0.90404 0.0
C374 C 0.05642 0.5023 0.48333 0.0
C375 C 0.09721 0.53177 0.52723 0.0
C376 C 1.01367 0.53995 0.58664 0.0
C377 C 0.97288 0.51049 0.54266 0.0
N378 N 0.94512 0.47428 0.43764 0.0
N379 N 0.12439 0.56947 0.63103 0.0
C380 C 0.99166 0.49412 0.48819 0.0
C381 C 0.07832 0.54845 0.58148 0.0
N382 N 0.07943 0.48181 0.43734 0.0
N383 N 0.99023 0.56057 0.6322 0.0
H384 H 0.1738 0.57345 0.63138 0.0
H385 H 0.1166 0.57818 0.67547 0.0
H386 H 0.94403 0.55412 0.63957 0.0
H387 H 1.01427 0.5864 0.65964 0.0
H388 H 0.0554 0.45582 0.41031 0.0
H389 H 0.12511 0.48849 0.42906 0.0
H390 H 0.95312 0.46566 0.39326 0.0
H391 H 0.89518 0.47199 0.43609 0.0
C392 C 0.05033 0.03761 0.9698 0.0
C393 C 0.07635 0.05287 0.03557 0.0
C394 C 0.99405 1.00941 0.0677 0.0
C395 C 0.96767 0.99426 1.00191 0.0
N396 N 0.96683 0.99581 0.88889 0.0
N397 N 0.06469 0.06031 0.14382 0.0
C398 C 0.99521 1.00872 0.95263 0.0
C399 C 0.04532 0.04098 0.08344 0.0
N400 N 0.07927 0.05093 0.92388 0.0
N401 N 0.97054 0.99265 0.11533 0.0
H402 H 0.10175 0.08349 0.15609 0.0
H403 H 0.04102 0.05594 0.17986 0.0
H404 H 0.93451 0.96878 0.10505 0.0
H405 H 0.99034 0.99945 0.16531 0.0
H406 H 0.07017 0.0377 0.87712 0.0
H407 H 0.1133 0.07589 0.93338 0.0
H408 H 0.97791 1.0086 0.84869 0.0
H409 H 0.93062 0.97216 0.87591 0.0
C410 C 0.99429 0.03952 0.56095 0.0
C411 C 0.9551 0.04287 0.49414 0.0
C412 C 0.03369 0.99376 0.46313 0.0
C413 C 0.07654 0.99318 0.52922 0.0
N414 N 0.09965 1.02028 0.64027 0.0
N415 N 0.94239 0.02789 0.38001 0.0
C416 C 0.05696 1.01709 0.57795 0.0
C417 C 0.97646 1.02143 0.44477 0.0
N418 N 0.97126 0.05771 0.60871 0.0
N419 N 0.0464 0.96637 0.41828 0.0
H420 H 0.90047 0.04764 0.36491 0.0
H421 H 0.95879 1.01664 0.34129 0.0
H422 H 0.08605 0.94471 0.43101 0.0
H423 H 1.01419 0.96203 0.37074 0.0
H424 H 0.99168 0.05161 0.65868 0.0
H425 H 0.92894 0.0773 0.59808 0.0
H426 H 0.09411 0.04206 0.67525 0.0
H427 H 0.14273 1.00226 0.65611 0.0
C428 C 0.50381 0.50915 0.96791 0.0
C429 C 0.47565 0.49366 1.01625 0.0
C430 C 0.563 0.53255 0.10202 0.0
C431 C 0.58893 0.54983 0.05322 0.0
N432 N 0.57961 0.55857 0.9392 0.0
N433 N 0.47479 0.49321 0.12878 0.0
C434 C 0.55776 0.5392 0.98594 0.0
C435 C 0.5046 0.50604 0.0832 0.0
N436 N 0.47913 0.49456 0.90463 0.0
N437 N 0.59558 0.54063 0.16687 0.0
H438 H 0.43561 0.47137 0.11769 0.0
H439 H 0.48694 0.5051 0.17664 0.0
H440 H 0.63375 0.56293 0.18201 0.0
H441 H 0.58636 0.52458 0.20553 0.0
H442 H 0.49936 0.50184 0.86703 0.0
H443 H 0.44127 0.47194 0.89081 0.0
H444 H 0.55671 0.55538 0.88879 0.0
H445 H 0.61806 0.58092 0.95127 0.0
C446 C 0.56639 0.52231 0.60015 0.0
C447 C 0.58868 0.49443 0.55799 0.0
C448 C 0.50068 0.52276 0.46229 0.0
C449 C 0.47813 0.55045 0.50449 0.0
N450 N 0.48625 0.57554 0.61335 0.0
N451 N 0.58084 0.46956 0.44903 0.0
C452 C 0.51084 0.55022 0.57337 0.0
C453 C 0.55621 0.49482 0.48905 0.0
N454 N 0.6005 0.52289 0.66595 0.0
N455 N 0.4667 0.52236 0.39646 0.0
H456 H 0.6183 0.44704 0.46756 0.0
H457 H 0.56592 0.47124 0.39798 0.0
H458 H 0.42948 0.5445 0.37521 0.0
H459 H 0.47377 0.50003 0.36302 0.0
H460 H 0.59364 0.54542 0.69921 0.0
H461 H 0.63766 0.50075 0.68737 0.0
H462 H 0.50121 0.57393 0.66441 0.0
H463 H 0.44877 0.59804 0.59472 0.0
C464 C 0.48123 0.18796 0.25444 0.0
C465 C 0.45165 0.1489 0.22742 0.0
C466 C 0.55463 0.11183 0.29024 0.0
C467 C 0.58491 0.1505 0.3177 0.0
N468 N 0.58068 0.22586 0.32216 0.0
N469 N 0.4664 0.07488 0.21015 0.0
C470 C 0.54928 0.18885 0.29822 0.0
C471 C 0.49033 0.11142 0.2426 0.0
N472 N 0.44338 0.22383 0.23952 0.0
N473 N 0.58523 0.07462 0.31365 0.0
H474 H 0.41661 0.07096 0.18174 0.0
H475 H 0.49734 0.04925 0.20835 0.0
H476 H 0.63275 0.07326 0.34765 0.0
H477 H 0.56172 0.04542 0.30376 0.0
H478 H 0.459 0.25329 0.25989 0.0
H479 H 0.39406 0.22378 0.208 0.0
H480 H 0.56035 0.25548 0.3082 0.0
H481 H 0.62974 0.22682 0.35421 0.0
C482 C 0.56514 0.85636 0.77846 0.0
C483 C 0.59917 0.89408 0.8063 0.0
C484 C 0.49249 0.93269 0.76261 0.0
C485 C 0.46148 0.89715 0.7258 0.0
N486 N 0.46961 0.82475 0.69521 0.0
N487 N 0.59539 0.96998 0.81075 0.0
C488 C 0.49808 0.85864 0.73308 0.0
C489 C 0.5628 0.93266 0.79419 0.0
N490 N 0.59687 0.81859 0.7949 0.0
N491 N 0.4545 0.9669 0.76798 0.0
H492 H 0.6465 0.97163 0.83404 0.0
H493 H 0.57276 0.99901 0.79581 0.0
H494 H 0.40274 0.96757 0.7463 0.0
H495 H 0.47315 0.9922 0.79975 0.0
H496 H 0.57286 0.78977 0.78145 0.0
H497 H 0.64645 0.81626 0.82541 0.0
H498 H 0.49583 0.79708 0.69257 0.0
H499 H 0.42009 0.82531 0.66404 0.0
C500 C 0.9908 0.60989 0.27319 0.0
C501 C 0.96034 0.64908 0.24929 0.0
C502 C 0.06758 0.68416 0.31114 0.0
C503 C 0.09504 0.64488 0.33808 0.0
N504 N 0.07498 0.57205 0.35555 0.0
N505 N 0.96817 0.72453 0.25076 0.0
C506 C 0.05399 0.60855 0.32266 0.0
C507 C 0.9985 0.6866 0.26977 0.0
N508 N 0.96212 0.57314 0.24507 0.0
N509 N 0.10801 0.71885 0.32399 0.0
H510 H 0.91837 0.72703 0.22086 0.0
H511 H 0.99024 0.75337 0.268 0.0
H512 H 0.15766 0.71794 0.3548 0.0
H513 H 0.09413 0.74774 0.30147 0.0
H514 H 0.98591 0.54399 0.25498 0.0
H515 H 0.91664 0.57213 0.20809 0.0
H516 H 0.04258 0.54701 0.35435 0.0
H517 H 0.12407 0.56736 0.38539 0.0
C518 C 1.00025 0.35774 0.75084 0.0
C519 C 0.96939 0.39681 0.72656 0.0
C520 C 0.07227 0.43364 0.79139 0.0
C521 C 0.10547 0.39482 0.81309 0.0
N522 N 0.10292 0.31925 0.8084 0.0
N523 N 0.98341 0.47101 0.71325 0.0
C524 C 0.06977 0.35659 0.79133 0.0
C525 C 1.0078 0.43423 0.74364 0.0
N526 N 0.96252 0.32193 0.73638 0.0
N527 N 0.10006 0.47062 0.81955 0.0
H528 H 0.93397 0.47465 0.68374 0.0
H529 H 1.01338 0.49743 0.71576 0.0
H530 H 0.14787 0.47246 0.8528 0.0
H531 H 0.07381 0.49906 0.81357 0.0
H532 H 0.97885 0.29277 0.75678 0.0
H533 H 0.91259 0.32202 0.70636 0.0
H534 H 0.08275 0.2901 0.7904 0.0
H535 H 0.15315 0.3177 0.83751 0.0
C536 C 0.24193 0.24581 0.97366 0.0
C537 C 0.24685 0.23206 0.03797 0.0
C538 C 0.30118 0.29904 0.08268 0.0
C539 C 0.29816 0.31213 1.01837 0.0
N540 N 0.28962 0.28917 0.90722 0.0
N541 N 0.25595 0.25379 0.14939 0.0
C542 C 0.2751 0.28319 0.96486 0.0
C543 C 0.26956 0.26088 0.09161 0.0
N544 N 0.20322 0.22355 0.92063 0.0
N545 N 0.33749 0.32236 0.13559 0.0
H546 H 0.22369 0.23006 0.15443 0.0
H547 H 0.26738 0.27512 0.18866 0.0
H548 H 0.36464 0.34886 0.13018 0.0
H549 H 0.34753 0.31275 0.18413 0.0
H550 H 0.19217 0.23398 0.87238 0.0
H551 H 0.17537 0.19735 0.92597 0.0
H552 H 0.27746 0.26742 0.86848 0.0
H553 H 0.3235 0.31173 0.90187 0.0
C554 C 0.81491 0.24766 0.57721 0.0
C555 C 0.80236 0.2353 0.51074 0.0
C556 C 0.74446 0.30216 0.47527 0.0
C557 C 0.75726 0.31492 0.5422 0.0
N558 N 0.78059 0.29178 0.65468 0.0
N559 N 0.76829 0.25301 0.39659 0.0
C560 C 0.78633 0.28564 0.593 0.0
C561 C 0.77156 0.26354 0.45982 0.0
N562 N 0.85342 0.22212 0.62513 0.0
N563 N 0.70186 0.3257 0.4269 0.0
H564 H 0.78881 0.225 0.38494 0.0
H565 H 0.75139 0.27331 0.35706 0.0
H566 H 0.6763 0.35193 0.43756 0.0
H567 H 0.68576 0.31689 0.37744 0.0
H568 H 0.87025 0.2306 0.67475 0.0
H569 H 0.87407 0.19406 0.61362 0.0
H570 H 0.79754 0.27026 0.69253 0.0
H571 H 0.74949 0.31473 0.66553 0.0
C572 C 0.81292 0.80157 0.0784 0.0
C573 C 0.79943 0.81296 1.01151 0.0
C574 C 0.74637 0.74396 0.97781 0.0
C575 C 0.7602 0.73238 0.0446 0.0
N576 N 0.78644 0.75678 0.15787 0.0
N577 N 0.77548 0.78769 0.89886 0.0
C578 C 0.78796 0.76292 0.09498 0.0
C579 C 0.77224 0.78224 0.96134 0.0
N580 N 0.85289 0.82717 0.12619 0.0
N581 N 0.70561 0.71879 0.92991 0.0
H582 H 0.80211 0.81179 0.88569 0.0
H583 H 0.76103 0.76472 0.86208 0.0
H584 H 0.68349 0.69161 0.94098 0.0
H585 H 0.68723 0.72733 0.88069 0.0
H586 H 0.87136 0.81893 0.17552 0.0
H587 H 0.87433 0.8546 0.11506 0.0
H588 H 0.80097 0.77953 0.19497 0.0
H589 H 0.7616 0.73198 0.17161 0.0
C590 C 0.30784 0.7585 0.47035 0.0
C591 C 0.28837 0.72792 0.50906 0.0
C592 C 0.24711 0.78515 0.56611 0.0
C593 C 0.26012 0.8147 0.52237 0.0
N594 N 0.28056 0.82609 0.41843 0.0
N595 N 0.21199 0.71449 0.5748 0.0
C596 C 0.28241 0.80001 0.46926 0.0
C597 C 0.24977 0.74164 0.55139 0.0
N598 N 0.35358 0.74911 0.43765 0.0
N599 N 0.235 0.79772 0.62308 0.0
H600 H 0.20322 0.68335 0.55983 0.0
H601 H 0.18029 0.72477 0.6017 0.0
H602 H 0.23259 0.82902 0.63702 0.0
H603 H 0.23301 0.77647 0.65932 0.0
H604 H 0.37243 0.77175 0.41295 0.0
H605 H 0.37922 0.72048 0.44224 0.0
H606 H 0.29229 0.81592 0.3764 0.0
H607 H 0.25951 0.85617 0.41534 0.0
loop_
_geom_bond_atom_site_label_1
_geom_bond_atom_site_label_2
_geom_bond_distance
_geom_bond_site_symmetry_2
_ccdc_geom_bond_type
Fe0 O2 1.918 . S
Fe0 O5 1.997 . S
Fe0 O6 2.002 . S
Fe0 O11 1.976 . S
Fe0 O14 1.996 . S
Fe1 O2 1.918 . S
Fe1 O9 1.997 1_545 S
Fe1 O12 1.996 . S
Fe1 O16 1.976 1_554 S
Fe1 O19 2.002 1_545 S
O2 Fe0 1.918 . S
O2 Fe1 1.918 . S
O2 Fe3 1.918 . S
Fe3 O2 1.918 . S
Fe3 O4 2.002 . S
Fe3 O13 1.976 1_554 S
Fe3 O17 1.996 1_554 S
Fe3 O20 1.997 . S
O4 Fe3 2.002 . S
O4 C21 1.295 . S
O5 Fe0 1.997 . S
O5 C21 1.235 . S
O6 Fe0 2.002 . S
O6 C7 1.295 . S
C7 O6 1.295 . S
C7 O9 1.235 1_545 S
C8 O13 1.287 1_554 S
C8 O14 1.255 . S
O9 Fe1 1.997 1_565 S
O9 C7 1.235 1_565 S
C10 O16 1.287 . S
C10 O17 1.255 . S
O11 Fe0 1.976 . S
O11 C18 1.287 . S
O12 Fe1 1.996 . S
O12 C18 1.255 . S
O13 Fe3 1.976 1_556 S
O13 C8 1.287 1_556 S
O14 Fe0 1.996 . S
O14 C8 1.255 . S
C15 O19 1.295 1_545 S
C15 O20 1.235 . S
O16 Fe1 1.976 1_556 S
O16 C10 1.287 . S
O17 Fe3 1.996 1_556 S
O17 C10 1.255 . S
C18 O11 1.287 . S
C18 O12 1.255 . S
O19 Fe1 2.002 1_565 S
O19 C15 1.295 1_565 S
O20 Fe3 1.997 . S
O20 C15 1.235 . S
C21 O4 1.295 . S
C21 O5 1.235 . S
Fe22 O24 1.918 . S
Fe22 O27 1.997 . S
Fe22 O28 2.002 . S
Fe22 O33 1.976 . S
Fe22 O36 1.996 . S
Fe23 O24 1.918 . S
Fe23 O31 1.997 1_545 S
Fe23 O34 1.996 . S
Fe23 O38 1.976 . S
Fe23 O41 2.002 1_545 S
O24 Fe22 1.918 . S
O24 Fe23 1.918 . S
O24 Fe25 1.918 . S
Fe25 O24 1.918 . S
Fe25 O26 2.002 . S
Fe25 O35 1.976 . S
Fe25 O39 1.996 . S
Fe25 O42 1.997 . S
O26 Fe25 2.002 . S
O26 C43 1.295 . S
O27 Fe22 1.997 . S
O27 C43 1.235 . S
O28 Fe22 2.002 . S
O28 C29 1.295 . S
C29 O28 1.295 . S
C29 O31 1.235 1_545 S
C30 O35 1.287 . S
C30 O36 1.255 . S
O31 Fe23 1.997 1_565 S
O31 C29 1.235 1_565 S
C32 O38 1.287 . S
C32 O39 1.255 . S
O33 Fe22 1.976 . S
O33 C40 1.287 . S
O34 Fe23 1.996 . S
O34 C40 1.255 . S
O35 Fe25 1.976 . S
O35 C30 1.287 . S
O36 Fe22 1.996 . S
O36 C30 1.255 . S
C37 O41 1.295 1_545 S
C37 O42 1.235 . S
O38 Fe23 1.976 . S
O38 C32 1.287 . S
O39 Fe25 1.996 . S
O39 C32 1.255 . S
C40 O33 1.287 . S
C40 O34 1.255 . S
O41 Fe23 2.002 1_565 S
O41 C37 1.295 1_565 S
O42 Fe25 1.997 . S
O42 C37 1.235 . S
C43 O26 1.295 . S
C43 O27 1.235 . S
Fe44 O46 1.918 . S
Fe44 O49 1.997 1_565 S
Fe44 O50 2.002 1_565 S
Fe44 O55 1.976 . S
Fe44 O58 1.996 1_556 S
Fe45 O46 1.918 . S
Fe45 O53 1.997 . S
Fe45 O56 1.996 . S
Fe45 O60 1.976 . S
Fe45 O63 2.002 . S
O46 Fe44 1.918 . S
O46 Fe45 1.918 . S
O46 Fe47 1.918 . S
Fe47 O46 1.918 . S
Fe47 O48 2.002 . S
Fe47 O57 1.976 1_556 S
Fe47 O61 1.996 1_556 S
Fe47 O64 1.997 . S
O48 Fe47 2.002 . S
O48 C65 1.295 . S
O49 Fe44 1.997 1_545 S
O49 C65 1.235 1_545 S
O50 Fe44 2.002 1_545 S
O50 C51 1.295 1_545 S
C51 O50 1.295 1_565 S
C51 O53 1.235 . S
C52 O57 1.287 . S
C52 O58 1.255 . S
O53 Fe45 1.997 . S
O53 C51 1.235 . S
C54 O60 1.287 . S
C54 O61 1.255 1_556 S
O55 Fe44 1.976 . S
O55 C62 1.287 . S
O56 Fe45 1.996 . S
O56 C62 1.255 . S
O57 Fe47 1.976 1_554 S
O57 C52 1.287 . S
O58 Fe44 1.996 1_554 S
O58 C52 1.255 . S
C59 O63 1.295 . S
C59 O64 1.235 . S
O60 Fe45 1.976 . S
O60 C54 1.287 . S
O61 Fe47 1.996 1_554 S
O61 C54 1.255 1_554 S
C62 O55 1.287 . S
C62 O56 1.255 . S
O63 Fe45 2.002 . S
O63 C59 1.295 . S
O64 Fe47 1.997 . S
O64 C59 1.235 . S
C65 O48 1.295 . S
C65 O49 1.235 1_565 S
Fe66 O68 1.918 . S
Fe66 O71 1.997 . S
Fe66 O72 2.002 . S
Fe66 O77 1.976 . S
Fe66 O80 1.996 . S
Fe67 O68 1.918 . S
Fe67 O75 1.997 . S
Fe67 O78 1.996 . S
Fe67 O82 1.976 . S
Fe67 O85 2.002 . S
O68 Fe66 1.918 . S
O68 Fe67 1.918 . S
O68 Fe69 1.918 . S
Fe69 O68 1.918 . S
Fe69 O70 2.002 1_565 S
Fe69 O79 1.976 . S
Fe69 O83 1.996 . S
Fe69 O86 1.997 1_565 S
O70 Fe69 2.002 1_545 S
O70 C87 1.295 1_545 S
O71 Fe66 1.997 . S
O71 C87 1.235 . S
O72 Fe66 2.002 . S
O72 C73 1.295 . S
C73 O72 1.295 . S
C73 O75 1.235 . S
C74 O79 1.287 . S
C74 O80 1.255 . S
O75 Fe67 1.997 . S
O75 C73 1.235 . S
C76 O82 1.287 . S
C76 O83 1.255 . S
O77 Fe66 1.976 . S
O77 C84 1.287 . S
O78 Fe67 1.996 . S
O78 C84 1.255 . S
O79 Fe69 1.976 . S
O79 C74 1.287 . S
O80 Fe66 1.996 . S
O80 C74 1.255 . S
C81 O85 1.295 . S
C81 O86 1.235 1_565 S
O82 Fe67 1.976 . S
O82 C76 1.287 . S
O83 Fe69 1.996 . S
O83 C76 1.255 . S
C84 O77 1.287 . S
C84 O78 1.255 . S
O85 Fe67 2.002 . S
O85 C81 1.295 . S
O86 Fe69 1.997 1_545 S
O86 C81 1.235 1_545 S
C87 O70 1.295 1_565 S
C87 O71 1.235 . S
Fe88 O90 1.918 . S
Fe88 O93 1.997 . S
Fe88 O94 2.002 . S
Fe88 O99 1.976 . S
Fe88 O102 1.996 . S
Fe89 O90 1.918 . S
Fe89 O97 1.997 . S
Fe89 O100 1.996 . S
Fe89 O104 1.976 1_554 S
Fe89 O107 2.002 . S
O90 Fe88 1.918 . S
O90 Fe89 1.918 . S
O90 Fe91 1.918 . S
Fe91 O90 1.918 . S
Fe91 O92 2.002 . S
Fe91 O101 1.976 1_554 S
Fe91 O105 1.996 1_554 S
Fe91 O108 1.997 . S
O92 Fe91 2.002 . S
O92 C109 1.295 . S
O93 Fe88 1.997 . S
O93 C109 1.235 . S
O94 Fe88 2.002 . S
O94 C95 1.295 . S
C95 O94 1.295 . S
C95 O97 1.235 . S
C96 O101 1.287 1_554 S
C96 O102 1.255 . S
O97 Fe89 1.997 . S
O97 C95 1.235 . S
C98 O104 1.287 . S
C98 O105 1.255 . S
O99 Fe88 1.976 . S
O99 C106 1.287 . S
O100 Fe89 1.996 . S
O100 C106 1.255 . S
O101 Fe91 1.976 1_556 S
O101 C96 1.287 1_556 S
O102 Fe88 1.996 . S
O102 C96 1.255 . S
C103 O107 1.295 . S
C103 O108 1.235 . S
O104 Fe89 1.976 1_556 S
O104 C98 1.287 . S
O105 Fe91 1.996 1_556 S
O105 C98 1.255 . S
C106 O99 1.287 . S
C106 O100 1.255 . S
O107 Fe89 2.002 . S
O107 C103 1.295 . S
O108 Fe91 1.997 . S
O108 C103 1.235 . S
C109 O92 1.295 . S
C109 O93 1.235 . S
Fe110 O112 1.918 . S
Fe110 O115 1.997 . S
Fe110 O116 2.002 . S
Fe110 O121 1.976 . S
Fe110 O124 1.996 . S
Fe111 O112 1.918 . S
Fe111 O119 1.997 . S
Fe111 O122 1.996 . S
Fe111 O126 1.976 . S
Fe111 O129 2.002 . S
O112 Fe110 1.918 . S
O112 Fe111 1.918 . S
O112 Fe113 1.918 . S
Fe113 O112 1.918 . S
Fe113 O114 2.002 . S
Fe113 O123 1.976 . S
Fe113 O127 1.996 . S
Fe113 O130 1.997 . S
O114 Fe113 2.002 . S
O114 C131 1.295 . S
O115 Fe110 1.997 . S
O115 C131 1.235 . S
O116 Fe110 2.002 . S
O116 C117 1.295 . S
C117 O116 1.295 . S
C117 O119 1.235 . S
C118 O123 1.287 . S
C118 O124 1.255 . S
O119 Fe111 1.997 . S
O119 C117 1.235 . S
C120 O126 1.287 . S
C120 O127 1.255 . S
O121 Fe110 1.976 . S
O121 C128 1.287 . S
O122 Fe111 1.996 . S
O122 C128 1.255 . S
O123 Fe113 1.976 . S
O123 C118 1.287 . S
O124 Fe110 1.996 . S
O124 C118 1.255 . S
C125 O129 1.295 . S
C125 O130 1.235 . S
O126 Fe111 1.976 . S
O126 C120 1.287 . S
O127 Fe113 1.996 . S
O127 C120 1.255 . S
C128 O121 1.287 . S
C128 O122 1.255 . S
O129 Fe111 2.002 . S
O129 C125 1.295 . S
O130 Fe113 1.997 . S
O130 C125 1.235 . S
C131 O114 1.295 . S
C131 O115 1.235 . S
Fe132 O134 1.918 . S
Fe132 O137 1.997 . S
Fe132 O138 2.002 . S
Fe132 O143 1.976 . S
Fe132 O146 1.996 1_556 S
Fe133 O134 1.918 . S
Fe133 O141 1.997 . S
Fe133 O144 1.996 . S
Fe133 O148 1.976 . S
Fe133 O151 2.002 . S
O134 Fe132 1.918 . S
O134 Fe133 1.918 . S
O134 Fe135 1.918 . S
Fe135 O134 1.918 . S
Fe135 O136 2.002 . S
Fe135 O145 1.976 1_556 S
Fe135 O149 1.996 1_556 S
Fe135 O152 1.997 . S
O136 Fe135 2.002 . S
O136 C153 1.295 . S
O137 Fe132 1.997 . S
O137 C153 1.235 . S
O138 Fe132 2.002 . S
O138 C139 1.295 . S
C139 O138 1.295 . S
C139 O141 1.235 . S
C140 O145 1.287 . S
C140 O146 1.255 . S
O141 Fe133 1.997 . S
O141 C139 1.235 . S
C142 O148 1.287 . S
C142 O149 1.255 1_556 S
O143 Fe132 1.976 . S
O143 C150 1.287 . S
O144 Fe133 1.996 . S
O144 C150 1.255 . S
O145 Fe135 1.976 1_554 S
O145 C140 1.287 . S
O146 Fe132 1.996 1_554 S
O146 C140 1.255 . S
C147 O151 1.295 . S
C147 O152 1.235 . S
O148 Fe133 1.976 . S
O148 C142 1.287 . S
O149 Fe135 1.996 1_554 S
O149 C142 1.255 1_554 S
C150 O143 1.287 . S
C150 O144 1.255 . S
O151 Fe133 2.002 . S
O151 C147 1.295 . S
O152 Fe135 1.997 . S
O152 C147 1.235 . S
C153 O136 1.295 . S
C153 O137 1.235 . S
Fe154 O156 1.918 . S
Fe154 O159 1.997 . S
Fe154 O160 2.002 . S
Fe154 O165 1.976 . S
Fe154 O168 1.996 . S
Fe155 O156 1.918 . S
Fe155 O163 1.997 . S
Fe155 O166 1.996 . S
Fe155 O170 1.976 . S
Fe155 O173 2.002 . S
O156 Fe154 1.918 . S
O156 Fe155 1.918 . S
O156 Fe157 1.918 . S
Fe157 O156 1.918 . S
Fe157 O158 2.002 . S
Fe157 O167 1.976 . S
Fe157 O171 1.996 . S
Fe157 O174 1.997 . S
O158 Fe157 2.002 . S
O158 C175 1.295 . S
O159 Fe154 1.997 . S
O159 C175 1.235 . S
O160 Fe154 2.002 . S
O160 C161 1.295 . S
C161 O160 1.295 . S
C161 O163 1.235 . S
C162 O167 1.287 . S
C162 O168 1.255 . S
O163 Fe155 1.997 . S
O163 C161 1.235 . S
C164 O170 1.287 . S
C164 O171 1.255 . S
O165 Fe154 1.976 . S
O165 C172 1.287 . S
O166 Fe155 1.996 . S
O166 C172 1.255 . S
O167 Fe157 1.976 . S
O167 C162 1.287 . S
O168 Fe154 1.996 . S
O168 C162 1.255 . S
C169 O173 1.295 . S
C169 O174 1.235 . S
O170 Fe155 1.976 . S
O170 C164 1.287 . S
O171 Fe157 1.996 . S
O171 C164 1.255 . S
C172 O165 1.287 . S
C172 O166 1.255 . S
O173 Fe155 2.002 . S
O173 C169 1.295 . S
O174 Fe157 1.997 . S
O174 C169 1.235 . S
C175 O158 1.295 . S
C175 O159 1.235 . S
C176 C177 1.363 . S
C176 C182 1.379 1_545 S
C176 N184 1.356 1_545 S
C177 C176 1.363 . S
C177 C183 1.363 . S
C178 C179 1.363 . S
C178 C183 1.379 . S
C178 N185 1.356 . S
C179 C178 1.363 . S
C179 C182 1.363 1_545 S
N180 C182 1.356 . S
N180 H192 0.984 . S
N180 H193 0.985 . S
N181 C183 1.356 . S
N181 H186 0.984 . S
N181 H187 0.985 . S
C182 C176 1.379 1_565 S
C182 C179 1.363 1_565 S
C182 N180 1.356 . S
C183 C177 1.363 . S
C183 C178 1.379 . S
C183 N181 1.356 . S
N184 C176 1.356 1_565 S
N184 H190 0.984 . S
N184 H191 0.984 1_565 S
N185 C178 1.356 . S
N185 H188 0.984 . S
N185 H189 0.985 . S
H186 N181 0.984 . S
H187 N181 0.985 . S
H188 N185 0.984 . S
H189 N185 0.985 . S
H190 N184 0.984 . S
H191 N184 0.984 1_545 S
H192 N180 0.984 . S
H193 N180 0.985 . S
C194 C195 1.363 . S
C194 C200 1.379 . S
C194 N202 1.356 . S
C195 C194 1.363 . S
C195 C201 1.363 1_545 S
C196 C197 1.363 . S
C196 C201 1.379 1_545 S
C196 N203 1.356 . S
C197 C196 1.363 . S
C197 C200 1.363 . S
N198 C200 1.356 . S
N198 H210 0.984 . S
N198 H211 0.985 . S
N199 C201 1.356 . S
N199 H204 0.984 . S
N199 H205 0.985 . S
C200 C194 1.379 . S
C200 C197 1.363 . S
C200 N198 1.356 . S
C201 C195 1.363 1_565 S
C201 C196 1.379 1_565 S
C201 N199 1.356 . S
N202 C194 1.356 . S
N202 H208 0.984 . S
N202 H209 0.984 . S
N203 C196 1.356 . S
N203 H206 0.984 . S
N203 H207 0.985 1_545 S
H204 N199 0.984 . S
H205 N199 0.985 . S
H206 N203 0.984 . S
H207 N203 0.985 1_565 S
H208 N202 0.984 . S
H209 N202 0.984 . S
H210 N198 0.984 . S
H211 N198 0.985 . S
C212 C213 1.363 1_545 S
C212 C218 1.379 1_545 S
C212 N220 1.356 . S
C213 C212 1.363 1_565 S
C213 C219 1.363 . S
C214 C215 1.363 . S
C214 C219 1.379 . S
C214 N221 1.356 . S
C215 C214 1.363 . S
C215 C218 1.363 . S
N216 C218 1.356 . S
N216 H228 0.984 1_565 S
N216 H229 0.985 . S
N217 C219 1.356 . S
N217 H222 0.984 . S
N217 H223 0.985 . S
C218 C212 1.379 1_565 S
C218 C215 1.363 . S
C218 N216 1.356 . S
C219 C213 1.363 . S
C219 C214 1.379 . S
C219 N217 1.356 . S
N220 C212 1.356 . S
N220 H226 0.984 . S
N220 H227 0.984 . S
N221 C214 1.356 . S
N221 H224 0.984 . S
N221 H225 0.985 . S
H222 N217 0.984 . S
H223 N217 0.985 . S
H224 N221 0.984 . S
H225 N221 0.985 . S
H226 N220 0.984 . S
H227 N220 0.984 . S
H228 N216 0.984 1_545 S
H229 N216 0.985 . S
C230 C231 1.363 . S
C230 C236 1.379 . S
C230 N238 1.356 . S
C231 C230 1.363 . S
C231 C237 1.363 1_565 S
C232 C233 1.363 . S
C232 C237 1.379 1_565 S
C232 N239 1.356 . S
C233 C232 1.363 . S
C233 C236 1.363 . S
N234 C236 1.356 . S
N234 H246 0.984 . S
N234 H247 0.985 . S
N235 C237 1.356 . S
N235 H240 0.984 . S
N235 H241 0.985 . S
C236 C230 1.379 . S
C236 C233 1.363 . S
C236 N234 1.356 . S
C237 C231 1.363 1_545 S
C237 C232 1.379 1_545 S
C237 N235 1.356 . S
N238 C230 1.356 . S
N238 H244 0.984 . S
N238 H245 0.984 . S
N239 C232 1.356 . S
N239 H242 0.984 . S
N239 H243 0.985 1_565 S
H240 N235 0.984 . S
H241 N235 0.985 . S
H242 N239 0.984 . S
H243 N239 0.985 1_545 S
H244 N238 0.984 . S
H245 N238 0.984 . S
H246 N234 0.984 . S
H247 N234 0.985 . S
C248 C249 1.363 . S
C248 C254 1.379 . S
C248 N256 1.356 . S
C249 C248 1.363 . S
C249 C255 1.363 . S
C250 C251 1.363 . S
C250 C255 1.379 . S
C250 N257 1.356 . S
C251 C250 1.363 . S
C251 C254 1.363 . S
N252 C254 1.356 . S
N252 H264 0.984 . S
N252 H265 0.985 . S
N253 C255 1.356 . S
N253 H258 0.984 . S
N253 H259 0.985 . S
C254 C248 1.379 . S
C254 C251 1.363 . S
C254 N252 1.356 . S
C255 C249 1.363 . S
C255 C250 1.379 . S
C255 N253 1.356 . S
N256 C248 1.356 . S
N256 H262 0.984 . S
N256 H263 0.984 . S
N257 C250 1.356 . S
N257 H260 0.984 . S
N257 H261 0.985 . S
H258 N253 0.984 . S
H259 N253 0.985 . S
H260 N257 0.984 . S
H261 N257 0.985 . S
H262 N256 0.984 . S
H263 N256 0.984 . S
H264 N252 0.984 . S
H265 N252 0.985 . S
C266 C267 1.363 . S
C266 C272 1.379 . S
C266 N274 1.356 . S
C267 C266 1.363 . S
C267 C273 1.363 . S
C268 C269 1.363 . S
C268 C273 1.379 . S
C268 N275 1.356 . S
C269 C268 1.363 . S
C269 C272 1.363 . S
N270 C272 1.356 . S
N270 H282 0.984 . S
N270 H283 0.985 . S
N271 C273 1.356 . S
N271 H276 0.984 . S
N271 H277 0.985 . S
C272 C266 1.379 . S
C272 C269 1.363 . S
C272 N270 1.356 . S
C273 C267 1.363 . S
C273 C268 1.379 . S
C273 N271 1.356 . S
N274 C266 1.356 . S
N274 H280 0.984 . S
N274 H281 0.984 . S
N275 C268 1.356 . S
N275 H278 0.984 . S
N275 H279 0.985 . S
H276 N271 0.984 . S
H277 N271 0.985 . S
H278 N275 0.984 . S
H279 N275 0.985 . S
H280 N274 0.984 . S
H281 N274 0.984 . S
H282 N270 0.984 . S
H283 N270 0.985 . S
C284 C285 1.363 . S
C284 C290 1.379 . S
C284 N292 1.356 . S
C285 C284 1.363 . S
C285 C291 1.363 . S
C286 C287 1.363 . S
C286 C291 1.379 . S
C286 N293 1.356 . S
C287 C286 1.363 . S
C287 C290 1.363 . S
N288 C290 1.356 . S
N288 H300 0.984 . S
N288 H301 0.985 . S
N289 C291 1.356 . S
N289 H294 0.984 . S
N289 H295 0.985 . S
C290 C284 1.379 . S
C290 C287 1.363 . S
C290 N288 1.356 . S
C291 C285 1.363 . S
C291 C286 1.379 . S
C291 N289 1.356 . S
N292 C284 1.356 . S
N292 H298 0.984 . S
N292 H299 0.984 . S
N293 C286 1.356 . S
N293 H296 0.984 . S
N293 H297 0.985 . S
H294 N289 0.984 . S
H295 N289 0.985 . S
H296 N293 0.984 . S
H297 N293 0.985 . S
H298 N292 0.984 . S
H299 N292 0.984 . S
H300 N288 0.984 . S
H301 N288 0.985 . S
C302 C303 1.363 . S
C302 C308 1.379 . S
C302 N310 1.356 . S
C303 C302 1.363 . S
C303 C309 1.363 . S
C304 C305 1.363 . S
C304 C309 1.379 . S
C304 N311 1.356 . S
C305 C304 1.363 . S
C305 C308 1.363 . S
N306 C308 1.356 . S
N306 H318 0.984 . S
N306 H319 0.985 . S
N307 C309 1.356 . S
N307 H312 0.984 . S
N307 H313 0.985 . S
C308 C302 1.379 . S
C308 C305 1.363 . S
C308 N306 1.356 . S
C309 C303 1.363 . S
C309 C304 1.379 . S
C309 N307 1.356 . S
N310 C302 1.356 . S
N310 H316 0.984 . S
N310 H317 0.984 . S
N311 C304 1.356 . S
N311 H314 0.984 . S
N311 H315 0.985 . S
H312 N307 0.984 . S
H313 N307 0.985 . S
H314 N311 0.984 . S
H315 N311 0.985 . S
H316 N310 0.984 . S
H317 N310 0.984 . S
H318 N306 0.984 . S
H319 N306 0.985 . S
C320 C321 1.349 1_546 S
C320 C326 1.379 . S
C320 N328 1.356 . S
C321 C320 1.349 1_564 S
C321 C327 1.377 . S
C322 C323 1.361 1_554 S
C322 C327 1.379 . S
C322 N329 1.356 . S
C323 C322 1.361 1_556 S
C323 C326 1.365 1_565 S
N324 C326 1.356 . S
N324 H336 0.984 . S
N324 H337 0.985 . S
N325 C327 1.356 . S
N325 H330 0.984 . S
N325 H331 0.985 . S
C326 C320 1.379 . S
C326 C323 1.365 1_545 S
C326 N324 1.356 . S
C327 C321 1.377 . S
C327 C322 1.379 . S
C327 N325 1.356 . S
N328 C320 1.356 . S
N328 H334 0.984 . S
N328 H335 0.984 . S
N329 C322 1.356 . S
N329 H332 0.984 . S
N329 H333 0.985 . S
H330 N325 0.984 . S
H331 N325 0.985 . S
H332 N329 0.984 . S
H333 N329 0.985 . S
H334 N328 0.984 . S
H335 N328 0.984 . S
H336 N324 0.984 . S
H337 N324 0.985 . S
C338 C339 1.365 1_545 S
C338 C344 1.379 . S
C338 N346 1.356 . S
C339 C338 1.365 1_565 S
C339 C345 1.361 . S
C340 C341 1.378 . S
C340 C345 1.379 . S
C340 N347 1.356 . S
C341 C340 1.378 . S
C341 C344 1.348 1_565 S
N342 C344 1.356 . S
N342 H354 0.984 . S
N342 H355 0.985 . S
N343 C345 1.356 . S
N343 H348 0.984 . S
N343 H349 0.985 . S
C344 C338 1.379 . S
C344 C341 1.348 1_545 S
C344 N342 1.356 . S
C345 C339 1.361 . S
C345 C340 1.379 . S
C345 N343 1.356 . S
N346 C338 1.356 . S
N346 H352 0.984 . S
N346 H353 0.984 . S
N347 C340 1.356 . S
N347 H350 0.984 . S
N347 H351 0.985 . S
H348 N343 0.984 . S
H349 N343 0.985 . S
H350 N347 0.984 . S
H351 N347 0.985 . S
H352 N346 0.984 . S
H353 N346 0.984 . S
H354 N342 0.984 . S
H355 N342 0.985 . S
C356 C357 1.363 1_556 S
C356 C362 1.379 1_655 S
C356 N364 1.356 . S
C357 C356 1.363 1_554 S
C357 C363 1.363 . S
C358 C359 1.363 1_554 S
C358 C363 1.379 1_455 S
C358 N365 1.356 . S
C359 C358 1.363 1_556 S
C359 C362 1.363 . S
N360 C362 1.356 . S
N360 H372 0.984 . S
N360 H373 0.985 . S
N361 C363 1.356 . S
N361 H366 0.984 . S
N361 H367 0.985 . S
C362 C356 1.379 1_455 S
C362 C359 1.363 . S
C362 N360 1.356 . S
C363 C357 1.363 . S
C363 C358 1.379 1_655 S
C363 N361 1.356 . S
N364 C356 1.356 . S
N364 H370 0.984 . S
N364 H371 0.984 . S
N365 C358 1.356 . S
N365 H368 0.984 . S
N365 H369 0.985 . S
H366 N361 0.984 . S
H367 N361 0.985 . S
H368 N365 0.984 . S
H369 N365 0.985 . S
H370 N364 0.984 . S
H371 N364 0.984 . S
H372 N360 0.984 . S
H373 N360 0.985 . S
C374 C375 1.363 . S
C374 C380 1.379 1_455 S
C374 N382 1.356 . S
C375 C374 1.363 . S
C375 C381 1.363 . S
C376 C377 1.363 . S
C376 C381 1.379 1_655 S
C376 N383 1.356 . S
C377 C376 1.363 . S
C377 C380 1.363 . S
N378 C380 1.356 . S
N378 H390 0.984 . S
N378 H391 0.985 . S
N379 C381 1.356 . S
N379 H384 0.984 . S
N379 H385 0.985 . S
C380 C374 1.379 1_655 S
C380 C377 1.363 . S
C380 N378 1.356 . S
C381 C375 1.363 . S
C381 C376 1.379 1_455 S
C381 N379 1.356 . S
N382 C374 1.356 . S
N382 H388 0.984 . S
N382 H389 0.984 . S
N383 C376 1.356 . S
N383 H386 0.984 . S
N383 H387 0.985 . S
H384 N379 0.984 . S
H385 N379 0.985 . S
H386 N383 0.984 . S
H387 N383 0.985 . S
H388 N382 0.984 . S
H389 N382 0.984 . S
H390 N378 0.984 . S
H391 N378 0.985 . S
C392 C393 1.363 1_556 S
C392 C398 1.379 1_455 S
C392 N400 1.356 . S
C393 C392 1.363 1_554 S
C393 C399 1.363 1_545 S
C394 C395 1.363 1_554 S
C394 C399 1.379 1_655 S
C394 N401 1.356 . S
C395 C394 1.363 1_556 S
C395 C398 1.363 1_565 S
N396 C398 1.356 1_565 S
N396 H408 0.984 1_565 S
N396 H409 0.985 . S
N397 C399 1.356 1_545 S
N397 H402 0.984 . S
N397 H403 0.985 1_545 S
C398 C392 1.379 1_655 S
C398 C395 1.363 1_545 S
C398 N396 1.356 1_545 S
C399 C393 1.363 1_565 S
C399 C394 1.379 1_455 S
C399 N397 1.356 1_565 S
N400 C392 1.356 . S
N400 H406 0.984 1_455 S
N400 H407 0.984 . S
N401 C394 1.356 . S
N401 H404 0.984 . S
N401 H405 0.985 1_655 S
H402 N397 0.984 . S
H403 N397 0.985 1_565 S
H404 N401 0.984 . S
H405 N401 0.985 1_455 S
H406 N400 0.984 1_655 S
H407 N400 0.984 . S
H408 N396 0.984 1_545 S
H409 N396 0.985 . S
C410 C411 1.363 . S
C410 C416 1.379 1_645 S
C410 N418 1.356 . S
C411 C410 1.363 . S
C411 C417 1.363 . S
C412 C413 1.363 . S
C412 C417 1.379 1_465 S
C412 N419 1.356 . S
C413 C412 1.363 . S
C413 C416 1.363 . S
N414 C416 1.356 . S
N414 H426 0.988 . S
N414 H427 0.985 . S
N415 C417 1.356 . S
N415 H420 0.984 . S
N415 H421 0.983 1_545 S
C416 C410 1.379 1_465 S
C416 C413 1.363 . S
C416 N414 1.356 . S
C417 C411 1.363 . S
C417 C412 1.379 1_645 S
C417 N415 1.356 . S
N418 C410 1.356 . S
N418 H424 0.984 . S
N418 H425 0.984 . S
N419 C412 1.356 . S
N419 H422 0.984 . S
N419 H423 0.985 . S
H420 N415 0.984 . S
H421 N415 0.983 1_565 S
H422 N419 0.984 . S
H423 N419 0.985 . S
H424 N418 0.984 . S
H425 N418 0.984 . S
H426 N414 0.988 . S
H427 N414 0.985 . S
C428 C429 1.363 . S
C428 C434 1.379 . S
C428 N436 1.356 . S
C429 C428 1.363 . S
C429 C435 1.363 1_556 S
C430 C431 1.363 . S
C430 C435 1.379 . S
C430 N437 1.356 . S
C431 C430 1.363 . S
C431 C434 1.363 1_554 S
N432 C434 1.356 . S
N432 H444 0.984 . S
N432 H445 0.985 . S
N433 C435 1.356 . S
N433 H438 0.984 . S
N433 H439 0.985 . S
C434 C428 1.379 . S
C434 C431 1.363 1_556 S
C434 N432 1.356 . S
C435 C429 1.363 1_554 S
C435 C430 1.379 . S
C435 N433 1.356 . S
N436 C428 1.356 . S
N436 H442 0.984 . S
N436 H443 0.984 . S
N437 C430 1.356 . S
N437 H440 0.984 . S
N437 H441 0.985 . S
H438 N433 0.984 . S
H439 N433 0.985 . S
H440 N437 0.984 . S
H441 N437 0.985 . S
H442 N436 0.984 . S
H443 N436 0.984 . S
H444 N432 0.984 . S
H445 N432 0.985 . S
C446 C447 1.363 . S
C446 C452 1.379 . S
C446 N454 1.356 . S
C447 C446 1.363 . S
C447 C453 1.363 . S
C448 C449 1.363 . S
C448 C453 1.379 . S
C448 N455 1.356 . S
C449 C448 1.363 . S
C449 C452 1.363 . S
N450 C452 1.356 . S
N450 H462 0.984 . S
N450 H463 0.985 . S
N451 C453 1.356 . S
N451 H456 0.984 . S
N451 H457 0.985 . S
C452 C446 1.379 . S
C452 C449 1.363 . S
C452 N450 1.356 . S
C453 C447 1.363 . S
C453 C448 1.379 . S
C453 N451 1.356 . S
N454 C446 1.356 . S
N454 H460 0.984 . S
N454 H461 0.984 . S
N455 C448 1.356 . S
N455 H458 0.984 . S
N455 H459 0.985 . S
H456 N451 0.984 . S
H457 N451 0.985 . S
H458 N455 0.984 . S
H459 N455 0.985 . S
H460 N454 0.984 . S
H461 N454 0.984 . S
H462 N450 0.984 . S
H463 N450 0.985 . S
C464 C465 1.363 . S
C464 C470 1.379 . S
C464 N472 1.356 . S
C465 C464 1.363 . S
C465 C471 1.363 . S
C466 C467 1.363 . S
C466 C471 1.379 . S
C466 N473 1.356 . S
C467 C466 1.363 . S
C467 C470 1.363 . S
N468 C470 1.356 . S
N468 H480 0.984 . S
N468 H481 0.985 . S
N469 C471 1.356 . S
N469 H474 0.984 . S
N469 H475 0.985 . S
C470 C464 1.379 . S
C470 C467 1.363 . S
C470 N468 1.356 . S
C471 C465 1.363 . S
C471 C466 1.379 . S
C471 N469 1.356 . S
N472 C464 1.356 . S
N472 H478 0.984 . S
N472 H479 0.984 . S
N473 C466 1.356 . S
N473 H476 0.984 . S
N473 H477 0.985 . S
H474 N469 0.984 . S
H475 N469 0.985 . S
H476 N473 0.984 . S
H477 N473 0.985 . S
H478 N472 0.984 . S
H479 N472 0.984 . S
H480 N468 0.984 . S
H481 N468 0.985 . S
C482 C483 1.363 . S
C482 C488 1.379 . S
C482 N490 1.356 . S
C483 C482 1.363 . S
C483 C489 1.363 . S
C484 C485 1.363 . S
C484 C489 1.379 . S
C484 N491 1.356 . S
C485 C484 1.363 . S
C485 C488 1.363 . S
N486 C488 1.356 . S
N486 H498 0.984 . S
N486 H499 0.985 . S
N487 C489 1.356 . S
N487 H492 0.984 . S
N487 H493 0.985 . S
C488 C482 1.379 . S
C488 C485 1.363 . S
C488 N486 1.356 . S
C489 C483 1.363 . S
C489 C484 1.379 . S
C489 N487 1.356 . S
N490 C482 1.356 . S
N490 H496 0.984 . S
N490 H497 0.984 . S
N491 C484 1.356 . S
N491 H494 0.984 . S
N491 H495 0.985 . S
H492 N487 0.984 . S
H493 N487 0.985 . S
H494 N491 0.984 . S
H495 N491 0.985 . S
H496 N490 0.984 . S
H497 N490 0.984 . S
H498 N486 0.984 . S
H499 N486 0.985 . S
C500 C501 1.363 . S
C500 C506 1.379 1_655 S
C500 N508 1.356 . S
C501 C500 1.363 . S
C501 C507 1.363 . S
C502 C503 1.363 . S
C502 C507 1.379 1_455 S
C502 N509 1.356 . S
C503 C502 1.363 . S
C503 C506 1.363 . S
N504 C506 1.356 . S
N504 H516 0.984 . S
N504 H517 0.985 . S
N505 C507 1.356 . S
N505 H510 0.984 . S
N505 H511 0.985 . S
C506 C500 1.379 1_455 S
C506 C503 1.363 . S
C506 N504 1.356 . S
C507 C501 1.363 . S
C507 C502 1.379 1_655 S
C507 N505 1.356 . S
N508 C500 1.356 . S
N508 H514 0.984 . S
N508 H515 0.984 . S
N509 C502 1.356 . S
N509 H512 0.984 . S
N509 H513 0.985 . S
H510 N505 0.984 . S
H511 N505 0.985 . S
H512 N509 0.984 . S
H513 N509 0.985 . S
H514 N508 0.984 . S
H515 N508 0.984 . S
H516 N504 0.984 . S
H517 N504 0.985 . S
C518 C519 1.363 . S
C518 C524 1.379 1_655 S
C518 N526 1.356 . S
C519 C518 1.363 . S
C519 C525 1.363 . S
C520 C521 1.363 . S
C520 C525 1.379 1_455 S
C520 N527 1.356 . S
C521 C520 1.363 . S
C521 C524 1.363 . S
N522 C524 1.356 . S
N522 H534 0.984 . S
N522 H535 0.985 . S
N523 C525 1.356 . S
N523 H528 0.984 . S
N523 H529 0.985 . S
C524 C518 1.379 1_455 S
C524 C521 1.363 . S
C524 N522 1.356 . S
C525 C519 1.363 . S
C525 C520 1.379 1_655 S
C525 N523 1.356 . S
N526 C518 1.356 . S
N526 H532 0.984 . S
N526 H533 0.984 . S
N527 C520 1.356 . S
N527 H530 0.984 . S
N527 H531 0.985 . S
H528 N523 0.984 . S
H529 N523 0.985 . S
H530 N527 0.984 . S
H531 N527 0.985 . S
H532 N526 0.984 . S
H533 N526 0.984 . S
H534 N522 0.984 . S
H535 N522 0.985 . S
C536 C537 1.363 1_556 S
C536 C542 1.379 . S
C536 N544 1.356 . S
C537 C536 1.363 1_554 S
C537 C543 1.363 . S
C538 C539 1.363 1_554 S
C538 C543 1.379 . S
C538 N545 1.356 . S
C539 C538 1.363 1_556 S
C539 C542 1.363 . S
N540 C542 1.356 . S
N540 H552 0.984 . S
N540 H553 0.985 . S
N541 C543 1.356 . S
N541 H546 0.984 . S
N541 H547 0.985 . S
C542 C536 1.379 . S
C542 C539 1.363 . S
C542 N540 1.356 . S
C543 C537 1.363 . S
C543 C538 1.379 . S
C543 N541 1.356 . S
N544 C536 1.356 . S
N544 H550 0.984 . S
N544 H551 0.984 . S
N545 C538 1.356 . S
N545 H548 0.984 . S
N545 H549 0.985 . S
H546 N541 0.984 . S
H547 N541 0.985 . S
H548 N545 0.984 . S
H549 N545 0.985 . S
H550 N544 0.984 . S
H551 N544 0.984 . S
H552 N540 0.984 . S
H553 N540 0.985 . S
C554 C555 1.363 . S
C554 C560 1.379 . S
C554 N562 1.356 . S
C555 C554 1.363 . S
C555 C561 1.363 . S
C556 C557 1.363 . S
C556 C561 1.379 . S
C556 N563 1.356 . S
C557 C556 1.363 . S
C557 C560 1.363 . S
N558 C560 1.356 . S
N558 H570 0.984 . S
N558 H571 0.985 . S
N559 C561 1.356 . S
N559 H564 0.984 . S
N559 H565 0.985 . S
C560 C554 1.379 . S
C560 C557 1.363 . S
C560 N558 1.356 . S
C561 C555 1.363 . S
C561 C556 1.379 . S
C561 N559 1.356 . S
N562 C554 1.356 . S
N562 H568 0.984 . S
N562 H569 0.984 . S
N563 C556 1.356 . S
N563 H566 0.984 . S
N563 H567 0.985 . S
H564 N559 0.984 . S
H565 N559 0.985 . S
H566 N563 0.984 . S
H567 N563 0.985 . S
H568 N562 0.984 . S
H569 N562 0.984 . S
H570 N558 0.984 . S
H571 N558 0.985 . S
C572 C573 1.363 1_554 S
C572 C578 1.379 . S
C572 N580 1.356 . S
C573 C572 1.363 1_556 S
C573 C579 1.363 . S
C574 C575 1.363 1_556 S
C574 C579 1.379 . S
C574 N581 1.356 . S
C575 C574 1.363 1_554 S
C575 C578 1.363 . S
N576 C578 1.356 . S
N576 H588 0.984 . S
N576 H589 0.985 . S
N577 C579 1.356 . S
N577 H582 0.984 . S
N577 H583 0.985 . S
C578 C572 1.379 . S
C578 C575 1.363 . S
C578 N576 1.356 . S
C579 C573 1.363 . S
C579 C574 1.379 . S
C579 N577 1.356 . S
N580 C572 1.356 . S
N580 H586 0.984 . S
N580 H587 0.984 . S
N581 C574 1.356 . S
N581 H584 0.984 . S
N581 H585 0.985 . S
H582 N577 0.984 . S
H583 N577 0.985 . S
H584 N581 0.984 . S
H585 N581 0.985 . S
H586 N580 0.984 . S
H587 N580 0.984 . S
H588 N576 0.984 . S
H589 N576 0.985 . S
C590 C591 1.363 . S
C590 C596 1.379 . S
C590 N598 1.356 . S
C591 C590 1.363 . S
C591 C597 1.363 . S
C592 C593 1.363 . S
C592 C597 1.379 . S
C592 N599 1.356 . S
C593 C592 1.363 . S
C593 C596 1.363 . S
N594 C596 1.356 . S
N594 H606 0.984 . S
N594 H607 0.985 . S
N595 C597 1.356 . S
N595 H600 0.984 . S
N595 H601 0.985 . S
C596 C590 1.379 . S
C596 C593 1.363 . S
C596 N594 1.356 . S
C597 C591 1.363 . S
C597 C592 1.379 . S
C597 N595 1.356 . S
N598 C590 1.356 . S
N598 H604 0.984 . S
N598 H605 0.984 . S
N599 C592 1.356 . S
N599 H602 0.984 . S
N599 H603 0.985 . S
H600 N595 0.984 . S
H601 N595 0.985 . S
H602 N599 0.984 . S
H603 N599 0.985 . S
H604 N598 0.984 . S
H605 N598 0.984 . S
H606 N594 0.984 . S
H607 N594 0.985 . S
C177 C10 1.433 . S
C179 C87 1.450 1_545 S
C195 C51 1.450 1_545 S
C197 C32 1.433 . S
C213 C29 1.437 1_565 S
C215 C52 1.421 . S
C231 C7 1.437 1_565 S
C233 C76 1.421 . S
C249 C175 1.450 . S
C251 C98 1.433 . S
C267 C120 1.433 . S
C269 C139 1.450 . S
C285 C117 1.437 . S
C287 C140 1.421 . S
C303 C95 1.437 . S
C305 C164 1.421 . S
C321 C15 1.081 1_565 S
C323 C65 1.078 . S
C339 C81 1.078 . S
C341 C37 1.081 1_565 S
C357 C103 1.089 . S
C359 C153 1.079 . S
C375 C125 1.089 . S
C377 C169 1.080 . S
C393 C18 1.937 . S
C395 C62 1.952 . S
C411 C40 1.937 . S
C413 C74 1.952 . S
C429 C150 1.952 . S
C431 C106 1.937 . S
C447 C162 1.952 . S
C449 C128 1.937 . S
C465 C21 1.630 . S
C467 C43 1.630 . S
C483 C59 1.625 . S
C485 C73 1.625 . S
C501 C109 1.630 . S
C503 C131 1.630 . S
C519 C161 1.625 . S
C521 C147 1.625 . S
C537 C8 1.452 . S
C539 C142 1.450 . S
C555 C30 1.452 . S
C557 C172 1.450 . S
C573 C54 1.450 . S
C575 C96 1.452 . S
C591 C118 1.452 . S
C593 C84 1.450 . S
