# Generated by pormake.
# Topology zfv, (5)-cn, num edge types: 1
# Building blocks:
#     Node 0, Type 0, BuildingBlock: BEQFEK_clean_sbu_0, # of connection points: 5
#     Node 1, Type 0, BuildingBlock: BEQFEK_clean_sbu_0, # of connection points: 5
#     Node 2, Type 0, BuildingBlock: BEQFEK_clean_sbu_0, # of connection points: 5
#     Node 3, Type 0, BuildingBlock: BEQFEK_clean_sbu_0, # of connection points: 5
#     Node 4, Type 0, BuildingBlock: BEQFEK_clean_sbu_0, # of connection points: 5
#     Node 5, Type 0, BuildingBlock: BEQFEK_clean_sbu_0, # of connection points: 5
#     Node 6, Type 0, BuildingBlock: BEQFEK_clean_sbu_0, # of connection points: 5
#     Node 7, Type 0, BuildingBlock: BEQFEK_clean_sbu_0, # of connection points: 5
#     Node 8, Type 0, BuildingBlock: BEQFEK_clean_sbu_0, # of connection points: 5
#     Node 9, Type 0, BuildingBlock: BEQFEK_clean_sbu_0, # of connection points: 5
#     Node 10, Type 0, BuildingBlock: BEQFEK_clean_sbu_0, # of connection points: 5
#     Node 11, Type 0, BuildingBlock: BEQFEK_clean_sbu_0, # of connection points: 5
#     Node 12, Type 0, BuildingBlock: BEQFEK_clean_sbu_0, # of connection points: 5
#     Node 13, Type 0, BuildingBlock: BEQFEK_clean_sbu_0, # of connection points: 5
#     Node 14, Type 0, BuildingBlock: BEQFEK_clean_sbu_0, # of connection points: 5
#     Node 15, Type 0, BuildingBlock: BEQFEK_clean_sbu_0, # of connection points: 5
#     Edge 16, Type (0, 0), BuildingBlock: TEMPAE_clean_linker_10, # of connection points: 2
#     Edge 17, Type (0, 0), BuildingBlock: TEMPAE_clean_linker_10, # of connection points: 2
#     Edge 18, Type (0, 0), BuildingBlock: TEMPAE_clean_linker_10, # of connection points: 2
#     Edge 19, Type (0, 0), BuildingBlock: TEMPAE_clean_linker_10, # of connection points: 2
#     Edge 20, Type (0, 0), BuildingBlock: TEMPAE_clean_linker_10, # of connection points: 2
#     Edge 21, Type (0, 0), BuildingBlock: TEMPAE_clean_linker_10, # of connection points: 2
#     Edge 22, Type (0, 0), BuildingBlock: TEMPAE_clean_linker_10, # of connection points: 2
#     Edge 23, Type (0, 0), BuildingBlock: TEMPAE_clean_linker_10, # of connection points: 2
#     Edge 24, Type (0, 0), BuildingBlock: TEMPAE_clean_linker_10, # of connection points: 2
#     Edge 25, Type (0, 0), BuildingBlock: TEMPAE_clean_linker_10, # of connection points: 2
#     Edge 26, Type (0, 0), BuildingBlock: TEMPAE_clean_linker_10, # of connection points: 2
#     Edge 27, Type (0, 0), BuildingBlock: TEMPAE_clean_linker_10, # of connection points: 2
#     Edge 28, Type (0, 0), BuildingBlock: TEMPAE_clean_linker_10, # of connection points: 2
#     Edge 29, Type (0, 0), BuildingBlock: TEMPAE_clean_linker_10, # of connection points: 2
#     Edge 30, Type (0, 0), BuildingBlock: TEMPAE_clean_linker_10, # of connection points: 2
#     Edge 31, Type (0, 0), BuildingBlock: TEMPAE_clean_linker_10, # of connection points: 2
#     Edge 32, Type (0, 0), BuildingBlock: TEMPAE_clean_linker_10, # of connection points: 2
#     Edge 33, Type (0, 0), BuildingBlock: TEMPAE_clean_linker_10, # of connection points: 2
#     Edge 34, Type (0, 0), BuildingBlock: TEMPAE_clean_linker_10, # of connection points: 2
#     Edge 35, Type (0, 0), BuildingBlock: TEMPAE_clean_linker_10, # of connection points: 2
#     Edge 36, Type (0, 0), BuildingBlock: TEMPAE_clean_linker_10, # of connection points: 2
#     Edge 37, Type (0, 0), BuildingBlock: TEMPAE_clean_linker_10, # of connection points: 2
#     Edge 38, Type (0, 0), BuildingBlock: TEMPAE_clean_linker_10, # of connection points: 2
#     Edge 39, Type (0, 0), BuildingBlock: TEMPAE_clean_linker_10, # of connection points: 2
#     Edge 40, Type (0, 0), BuildingBlock: TEMPAE_clean_linker_10, # of connection points: 2
#     Edge 41, Type (0, 0), BuildingBlock: TEMPAE_clean_linker_10, # of connection points: 2
#     Edge 42, Type (0, 0), BuildingBlock: TEMPAE_clean_linker_10, # of connection points: 2
#     Edge 43, Type (0, 0), BuildingBlock: TEMPAE_clean_linker_10, # of connection points: 2
#     Edge 44, Type (0, 0), BuildingBlock: TEMPAE_clean_linker_10, # of connection points: 2
#     Edge 45, Type (0, 0), BuildingBlock: TEMPAE_clean_linker_10, # of connection points: 2
#     Edge 46, Type (0, 0), BuildingBlock: TEMPAE_clean_linker_10, # of connection points: 2
#     Edge 47, Type (0, 0), BuildingBlock: TEMPAE_clean_linker_10, # of connection points: 2
#     Edge 48, Type (0, 0), BuildingBlock: TEMPAE_clean_linker_10, # of connection points: 2
#     Edge 49, Type (0, 0), BuildingBlock: TEMPAE_clean_linker_10, # of connection points: 2
#     Edge 50, Type (0, 0), BuildingBlock: TEMPAE_clean_linker_10, # of connection points: 2
#     Edge 51, Type (0, 0), BuildingBlock: TEMPAE_clean_linker_10, # of connection points: 2
#     Edge 52, Type (0, 0), BuildingBlock: TEMPAE_clean_linker_10, # of connection points: 2
#     Edge 53, Type (0, 0), BuildingBlock: TEMPAE_clean_linker_10, # of connection points: 2
#     Edge 54, Type (0, 0), BuildingBlock: TEMPAE_clean_linker_10, # of connection points: 2
#     Edge 55, Type (0, 0), BuildingBlock: TEMPAE_clean_linker_10, # of connection points: 2
# Relax obj value: 0.068
# Max RMSD: 0.133
# Mean RMSD: 0.133
data_MOF--net-zfv--node1-BEQFEK_clean_sbu_0--edge1-TEMPAE_clean_linker_10
_symmetry_space_group_name_H-M    P1
_symmetry_Int_Tables_number       1
_symmetry_cell_setting            triclinic
loop_
_symmetry_equiv_pos_as_xyz
'x, y, z'
_cell_length_a     76.48527
_cell_length_b     76.474144
_cell_length_c     19.536208
_cell_angle_alpha  89.997059
_cell_angle_beta   90.012001
_cell_angle_gamma 89.997821
loop_
_atom_site_label
_atom_site_type_symbol
_atom_site_fract_x
_atom_site_fract_y
_atom_site_fract_z
_atom_type_partial_charge
Co0 Co 0.00979 0.60976 0.14493 0.0
Co1 Co 0.01221 0.61362 0.98626 0.0
C2 C 0.98149 0.62709 0.06375 0.0
O3 O 0.98765 0.6211 0.11951 0.0
O4 O 0.98974 0.62566 0.00733 0.0
C5 C 0.99551 0.5995 0.27586 0.0
O6 O 0.98123 0.59542 0.24211 0.0
C7 C 0.00434 0.61073 0.83881 0.0
C8 C 0.03099 0.60665 0.79778 0.0
C9 C 0.01354 0.60726 0.77921 0.0
N10 N 0.01589 0.61185 0.89052 0.0
N11 N 0.03179 0.60968 0.86544 0.0
C12 C 0.98493 0.61112 0.84802 0.0
H13 H 0.98136 0.60595 0.89922 0.0
H14 H 0.97828 0.60337 0.80764 0.0
H15 H 0.98036 0.62486 0.84472 0.0
C16 C 0.01519 0.57235 0.10939 0.0
N17 N 0.01321 0.58933 0.09263 0.0
N18 N 0.01322 0.59089 0.02556 0.0
C19 C 0.01488 0.57489 0.99743 0.0
C20 C 0.0164 0.56266 0.04951 0.0
C21 C 0.01646 0.56571 0.18124 0.0
H22 H 0.02402 0.57504 0.21306 0.0
H23 H 0.00311 0.56463 0.20304 0.0
H24 H 0.02279 0.55266 0.18302 0.0
O25 O 0.02922 0.62646 0.13276 0.0
O26 O 0.03188 0.62799 0.01985 0.0
H27 H 0.02597 0.57506 0.89697 0.0
H28 H 0.01108 0.55718 0.91188 0.0
C29 C 0.01359 0.5712 0.92231 0.0
H30 H 0.00272 0.57885 0.90003 0.0
H31 H 0.04314 0.60962 0.89508 0.0
O32 O 0.00885 0.60492 0.24347 0.0
C33 C 0.03686 0.63225 0.07962 0.0
Co34 Co 0.65297 0.74657 0.40226 0.0
Co35 Co 0.64575 0.74577 0.24361 0.0
C36 C 0.63319 0.71719 0.33185 0.0
O37 O 0.63958 0.72491 0.38382 0.0
O38 O 0.63455 0.72356 0.27185 0.0
C39 C 0.66184 0.73109 0.53098 0.0
O40 O 0.6601 0.71644 0.4966 0.0
C41 C 0.64728 0.73732 0.09508 0.0
C42 C 0.64159 0.76334 0.05111 0.0
C43 C 0.64543 0.74625 0.03373 0.0
N44 N 0.64479 0.74873 0.14665 0.0
N45 N 0.64132 0.76421 0.11982 0.0
C46 C 0.65046 0.71816 0.10443 0.0
H47 H 0.65216 0.71492 0.15938 0.0
H48 H 0.66227 0.71408 0.07566 0.0
H49 H 0.63921 0.71074 0.08338 0.0
C50 C 0.6893 0.75031 0.35388 0.0
N51 N 0.6721 0.74828 0.34221 0.0
N52 N 0.66927 0.74753 0.2758 0.0
C53 C 0.68471 0.74888 0.24297 0.0
C54 C 0.69791 0.75075 0.29137 0.0
C55 C 0.69708 0.75262 0.42359 0.0
H56 H 0.68853 0.76115 0.45501 0.0
H57 H 0.69791 0.73969 0.44912 0.0
H58 H 0.71035 0.75845 0.42088 0.0
O59 O 0.63754 0.7671 0.39132 0.0
O60 O 0.63147 0.76516 0.28047 0.0
H61 H 0.68005 0.75824 0.14136 0.0
H62 H 0.70069 0.74694 0.15108 0.0
C63 C 0.68681 0.74722 0.16707 0.0
H64 H 0.68068 0.73487 0.15009 0.0
H65 H 0.63889 0.77546 0.14852 0.0
O66 O 0.66025 0.7456 0.49972 0.0
C67 C 0.62955 0.77254 0.33831 0.0
Co68 Co 0.51223 0.38706 0.66973 0.0
Co69 Co 0.51137 0.38384 0.51064 0.0
C70 C 0.54107 0.36957 0.59084 0.0
O71 O 0.53431 0.37534 0.64588 0.0
O72 O 0.53353 0.37144 0.53308 0.0
C73 C 0.52655 0.3971 0.79967 0.0
O74 O 0.54068 0.40104 0.76473 0.0
C75 C 0.51962 0.38677 0.3632 0.0
C76 C 0.49322 0.39238 0.32243 0.0
C77 C 0.5106 0.39089 0.30379 0.0
N78 N 0.50804 0.38612 0.4149 0.0
N79 N 0.49228 0.38921 0.38995 0.0
C80 C 0.53899 0.38525 0.37224 0.0
H81 H 0.54288 0.39021 0.42339 0.0
H82 H 0.54606 0.39257 0.33176 0.0
H83 H 0.54274 0.37126 0.36903 0.0
C84 C 0.50729 0.42462 0.63546 0.0
N85 N 0.50951 0.40771 0.61815 0.0
N86 N 0.51046 0.40641 0.55114 0.0
C87 C 0.50937 0.42252 0.52365 0.0
C88 C 0.50705 0.43457 0.57598 0.0
C89 C 0.50474 0.43092 0.70726 0.0
H90 H 0.4972 0.42115 0.73704 0.0
H91 H 0.51771 0.43256 0.73188 0.0
H92 H 0.49778 0.44365 0.70824 0.0
O93 O 0.49259 0.37078 0.65492 0.0
O94 O 0.4913 0.3696 0.54155 0.0
H95 H 0.49978 0.4237 0.4209 0.0
H96 H 0.51568 0.44035 0.44095 0.0
C97 C 0.51202 0.42648 0.44929 0.0
H98 H 0.52262 0.41817 0.42862 0.0
H99 H 0.48095 0.38978 0.41961 0.0
O100 O 0.51303 0.39174 0.76834 0.0
C101 C 0.48554 0.36526 0.60013 0.0
Co102 Co 0.87008 0.25378 0.89273 0.0
Co103 Co 0.87863 0.24813 0.73639 0.0
C104 C 0.89153 0.27943 0.81547 0.0
O105 O 0.88356 0.27468 0.86939 0.0
O106 O 0.89116 0.27028 0.76092 0.0
C107 C 0.86453 0.26935 0.02531 0.0
O108 O 0.87091 0.2834 0.99585 0.0
C109 C 0.87614 0.25551 0.58809 0.0
C110 C 0.88526 0.23043 0.54461 0.0
C111 C 0.87905 0.24682 0.52669 0.0
N112 N 0.88023 0.24462 0.63981 0.0
N113 N 0.88573 0.22969 0.61336 0.0
C114 C 0.87054 0.27411 0.59762 0.0
H115 H 0.87353 0.27865 0.65021 0.0
H116 H 0.85625 0.27524 0.58945 0.0
H117 H 0.87713 0.28262 0.55951 0.0
C118 C 0.83391 0.25168 0.83913 0.0
N119 N 0.85136 0.25127 0.83032 0.0
N120 N 0.85488 0.2483 0.76535 0.0
C121 C 0.83973 0.24598 0.73131 0.0
C122 C 0.82596 0.24835 0.77657 0.0
C123 C 0.82523 0.25612 0.90552 0.0
H124 H 0.8327 0.26655 0.93201 0.0
H125 H 0.81158 0.26058 0.8976 0.0
H126 H 0.82519 0.24438 0.93887 0.0
O127 O 0.88592 0.23312 0.89026 0.0
O128 O 0.89067 0.22833 0.77962 0.0
H129 H 0.82582 0.2329 0.64975 0.0
H130 H 0.83903 0.25113 0.62374 0.0
C131 C 0.83839 0.23977 0.65878 0.0
H132 H 0.84925 0.2307 0.64682 0.0
H133 H 0.88971 0.21893 0.64229 0.0
O134 O 0.86212 0.25564 0.98957 0.0
C135 C 0.89276 0.22423 0.84211 0.0
Co136 Co 0.01261 0.38826 0.84397 0.0
Co137 Co 0.01096 0.38233 0.00222 0.0
C138 C 0.98283 0.369 0.91447 0.0
O139 O 0.99084 0.37508 0.86249 0.0
O140 O 0.98888 0.37077 0.97489 0.0
C141 C -0.00145 0.39902 0.71431 0.0
O142 O 0.98411 0.40204 0.74881 0.0
C143 C 0.00283 0.384 0.15094 0.0
C144 C 0.02958 0.38816 0.19097 0.0
C145 C 0.0122 0.3874 0.21026 0.0
N146 N 0.01424 0.38313 0.0986 0.0
N147 N 0.03019 0.38528 0.12324 0.0
C148 C 0.98339 0.3835 0.14296 0.0
H149 H 0.97959 0.3875 0.09043 0.0
H150 H 0.97699 0.39214 0.18113 0.0
H151 H 0.97878 0.36993 0.15165 0.0
C152 C 0.01605 0.42519 0.88787 0.0
N153 N 0.01394 0.40802 0.90071 0.0
N154 N 0.01244 0.40559 0.96712 0.0
C155 C 0.01314 0.42125 0.99862 0.0
C156 C 0.0157 0.43414 0.94966 0.0
C157 C 0.01913 0.43264 0.81811 0.0
H158 H 0.02714 0.42349 0.78722 0.0
H159 H 0.00636 0.43438 0.79202 0.0
H160 H 0.02581 0.44551 0.8211 0.0
O161 O 0.03313 0.37316 0.85816 0.0
O162 O 0.03062 0.36775 0.96922 0.0
H163 H 0.02189 0.42025 0.10252 0.0
H164 H 0.00681 0.43783 0.08524 0.0
C165 C 0.01002 0.42401 0.0735 0.0
H166 H -0.00105 0.41578 0.09044 0.0
H167 H 0.04145 0.38558 0.09313 0.0
O168 O 0.01221 0.39416 0.74601 0.0
C169 C 0.03833 0.36554 0.91224 0.0
Co170 Co 0.87177 0.74708 0.08161 0.0
Co171 Co 0.87882 0.74711 0.24029 0.0
C172 C 0.89146 0.71806 0.15428 0.0
O173 O 0.88508 0.72544 0.1015 0.0
O174 O 0.89009 0.72484 0.21358 0.0
C175 C 0.86344 0.7314 0.95256 0.0
O176 O 0.8658 0.71675 0.98636 0.0
C177 C 0.87723 0.73902 0.38891 0.0
C178 C 0.88251 0.76522 0.43216 0.0
C179 C 0.87888 0.7481 0.45001 0.0
N180 N 0.87962 0.75036 0.33705 0.0
N181 N 0.88284 0.76596 0.36343 0.0
C182 C 0.87435 0.7198 0.38008 0.0
H183 H 0.87295 0.7164 0.32518 0.0
H184 H 0.86245 0.71563 0.40801 0.0
H185 H 0.88559 0.71258 0.4023 0.0
C186 C 0.83537 0.75094 0.12914 0.0
N187 N 0.85258 0.7491 0.14119 0.0
N188 N 0.85534 0.74867 0.20768 0.0
C189 C 0.83986 0.75003 0.24018 0.0
C190 C 0.82669 0.75158 0.19148 0.0
C191 C 0.82763 0.75281 0.05914 0.0
H192 H 0.83606 0.76136 0.02735 0.0
H193 H 0.82709 0.73975 0.03441 0.0
H194 H 0.81426 0.7584 0.06122 0.0
O195 O 0.88726 0.76761 0.0914 0.0
O196 O 0.89311 0.76638 0.20259 0.0
H197 H 0.84431 0.75978 0.34138 0.0
H198 H 0.8238 0.74823 0.33192 0.0
C199 C 0.8377 0.7486 0.31614 0.0
H200 H 0.84394 0.73637 0.33385 0.0
H201 H 0.88514 0.77717 0.33439 0.0
O202 O 0.86452 0.74589 0.98425 0.0
C203 C 0.89515 0.77339 0.1441 0.0
Co204 Co 0.51515 0.60786 0.36611 0.0
Co205 Co 0.51264 0.61541 0.52424 0.0
C206 C 0.54314 0.62745 0.44173 0.0
O207 O 0.53695 0.6203 0.38824 0.0
O208 O 0.53503 0.62701 0.49869 0.0
C209 C 0.53074 0.60017 0.23554 0.0
O210 O 0.54545 0.60362 0.26748 0.0
C211 C 0.52053 0.61391 0.67256 0.0
C212 C 0.49448 0.61967 0.71608 0.0
C213 C 0.51154 0.6157 0.73376 0.0
N214 N 0.5092 0.6165 0.62084 0.0
N215 N 0.49369 0.62002 0.64733 0.0
C216 C 0.53968 0.61066 0.66331 0.0
H217 H 0.54287 0.6086 0.60853 0.0
H218 H 0.54383 0.59905 0.69311 0.0
H219 H 0.54711 0.62206 0.68302 0.0
C220 C 0.51 0.57161 0.41518 0.0
N221 N 0.51192 0.58886 0.4265 0.0
N222 N 0.51151 0.59187 0.49284 0.0
C223 C 0.5094 0.57655 0.52597 0.0
C224 C 0.50831 0.56322 0.47787 0.0
C225 C 0.50908 0.56359 0.34541 0.0
H226 H 0.50078 0.57177 0.31164 0.0
H227 H 0.52242 0.56321 0.32306 0.0
H228 H 0.50369 0.55013 0.34721 0.0
O229 O 0.49544 0.62454 0.37233 0.0
O230 O 0.49305 0.6288 0.48444 0.0
H231 H 0.49843 0.58196 0.62453 0.0
H232 H 0.50908 0.56088 0.6191 0.0
C233 C 0.50961 0.57469 0.60227 0.0
H234 H 0.52187 0.58039 0.62234 0.0
H235 H 0.4825 0.62252 0.61839 0.0
O236 O 0.51646 0.60035 0.26895 0.0
C237 C 0.4879 0.63154 0.42351 0.0
Co238 Co 0.64933 0.25037 0.58653 0.0
Co239 Co 0.64605 0.24773 0.74546 0.0
C240 C 0.63146 0.27811 0.66814 0.0
O241 O 0.63734 0.27206 0.61209 0.0
O242 O 0.63335 0.26994 0.72458 0.0
C243 C 0.65803 0.2654 0.45556 0.0
O244 O 0.66091 0.27992 0.48965 0.0
C245 C 0.65007 0.25621 0.8917 0.0
C246 C 0.6516 0.22964 0.93603 0.0
C247 C 0.65259 0.24721 0.95247 0.0
N248 N 0.64793 0.24443 0.84138 0.0
N249 N 0.6486 0.22859 0.86838 0.0
C250 C 0.65112 0.27552 0.88044 0.0
H251 H 0.656 0.27835 0.82811 0.0
H252 H 0.65976 0.28175 0.91906 0.0
H253 H 0.63783 0.2812 0.88543 0.0
C254 C 0.68712 0.24778 0.62068 0.0
N255 N 0.67008 0.24802 0.63817 0.0
N256 N 0.66871 0.24739 0.7053 0.0
C257 C 0.68486 0.24673 0.73268 0.0
C258 C 0.69702 0.24708 0.68012 0.0
C259 C 0.69368 0.24953 0.54885 0.0
H260 H 0.68646 0.2404 0.51497 0.0
H261 H 0.69117 0.26304 0.53072 0.0
H262 H 0.7079 0.24692 0.54515 0.0
O263 O 0.63338 0.23021 0.59986 0.0
O264 O 0.63228 0.22766 0.71287 0.0
H265 H 0.6814 0.23398 0.82912 0.0
H266 H 0.70275 0.24325 0.81805 0.0
C267 C 0.68864 0.24525 0.80768 0.0
H268 H 0.68423 0.25731 0.83396 0.0
H269 H 0.64756 0.21705 0.84018 0.0
O270 O 0.65385 0.25156 0.48759 0.0
C271 C 0.62804 0.22244 0.65348 0.0
Co272 Co 0.36999 0.24526 0.57728 0.0
Co273 Co 0.37688 0.24869 0.73544 0.0
C274 C 0.39044 0.21836 0.65545 0.0
O275 O 0.38319 0.22396 0.60113 0.0
O276 O 0.38943 0.22675 0.71166 0.0
C277 C 0.36376 0.22922 0.44643 0.0
O278 O 0.36864 0.21483 0.47777 0.0
C279 C 0.37558 0.24128 0.88433 0.0
C280 C 0.37971 0.26782 0.92618 0.0
C281 C 0.37674 0.25064 0.94493 0.0
N282 N 0.37753 0.25252 0.83188 0.0
N283 N 0.38008 0.26833 0.8574 0.0
C284 C 0.37342 0.22192 0.87659 0.0
H285 H 0.37384 0.21804 0.822 0.0
H286 H 0.36074 0.21772 0.89851 0.0
H287 H 0.38391 0.2151 0.90541 0.0
C288 C 0.33341 0.24962 0.6243 0.0
N289 N 0.35067 0.2481 0.6365 0.0
N290 N 0.35345 0.24877 0.70293 0.0
C291 C 0.33801 0.25057 0.73528 0.0
C292 C 0.32479 0.25128 0.68655 0.0
C293 C 0.3256 0.25031 0.55412 0.0
H294 H 0.33374 0.25873 0.52062 0.0
H295 H 0.32553 0.23695 0.53198 0.0
H296 H 0.31205 0.25548 0.55515 0.0
O297 O 0.38596 0.26557 0.58283 0.0
O298 O 0.38959 0.26861 0.69505 0.0
H299 H 0.34226 0.26223 0.83348 0.0
H300 H 0.32208 0.24995 0.82769 0.0
C301 C 0.33595 0.25044 0.8115 0.0
H302 H 0.34252 0.23874 0.83239 0.0
H303 H 0.38195 0.27953 0.82775 0.0
O304 O 0.36267 0.24338 0.48022 0.0
C305 C 0.3924 0.2736 0.63398 0.0
Co306 Co 0.15361 0.75113 0.08102 0.0
Co307 Co 0.14663 0.74703 0.23881 0.0
C308 C 0.13444 0.7784 0.16259 0.0
O309 O 0.14139 0.77277 0.10775 0.0
O310 O 0.13504 0.76967 0.21807 0.0
C311 C 0.15836 0.76714 0.94901 0.0
O312 O 0.152 0.78107 0.97936 0.0
C313 C 0.14697 0.75403 0.38702 0.0
C314 C 0.14529 0.72718 0.42865 0.0
C315 C 0.14665 0.74456 0.44758 0.0
N316 N 0.14608 0.74267 0.33461 0.0
N317 N 0.14495 0.72668 0.35985 0.0
C318 C 0.14715 0.77348 0.37832 0.0
H319 H 0.15685 0.7772 0.33867 0.0
H320 H 0.15001 0.78036 0.42697 0.0
H321 H 0.13413 0.77775 0.35969 0.0
C322 C 0.19001 0.7452 0.12745 0.0
N323 N 0.17281 0.74714 0.13973 0.0
N324 N 0.17002 0.74638 0.20614 0.0
C325 C 0.18542 0.74423 0.23845 0.0
C326 C 0.19861 0.74326 0.18966 0.0
C327 C 0.19778 0.74447 0.0572 0.0
H328 H 0.18913 0.73683 0.02281 0.0
H329 H 0.19875 0.75794 0.03647 0.0
H330 H 0.21097 0.73843 0.05779 0.0
O331 O 0.13685 0.73145 0.08494 0.0
O332 O 0.13311 0.72784 0.19684 0.0
H333 H 0.18217 0.73205 0.33621 0.0
H334 H 0.20135 0.74582 0.33052 0.0
C335 C 0.18752 0.74436 0.31469 0.0
H336 H 0.18012 0.75545 0.33642 0.0
H337 H 0.14415 0.71539 0.33 0.0
O338 O 0.16088 0.7533 0.98378 0.0
C339 C 0.1301 0.72336 0.1353 0.0
Co340 Co 0.15308 0.24587 0.92351 0.0
Co341 Co 0.1449 0.24542 0.76525 0.0
C342 C 0.13202 0.21714 0.85422 0.0
O343 O 0.13893 0.22459 0.90584 0.0
O344 O 0.13334 0.22354 0.79425 0.0
C345 C 0.16153 0.23027 0.05261 0.0
O346 O 0.15897 0.21565 0.01885 0.0
C347 C 0.14546 0.23716 0.61624 0.0
C348 C 0.1407 0.26348 0.57332 0.0
C349 C 0.1439 0.2463 0.5552 0.0
N350 N 0.14349 0.24854 0.6683 0.0
N351 N 0.14052 0.2642 0.64207 0.0
C352 C 0.14802 0.21789 0.62485 0.0
H353 H 0.1494 0.21443 0.67971 0.0
H354 H 0.15982 0.21353 0.59667 0.0
H355 H 0.13664 0.21088 0.60271 0.0
C356 C 0.18919 0.24944 0.87122 0.0
N357 N 0.1719 0.24734 0.86155 0.0
N358 N 0.1686 0.24659 0.79546 0.0
C359 C 0.18379 0.24789 0.76091 0.0
C360 C 0.19734 0.24989 0.80769 0.0
C361 C 0.19745 0.25199 0.93995 0.0
H362 H 0.18888 0.2602 0.97255 0.0
H363 H 0.19893 0.23907 0.96519 0.0
H364 H 0.21048 0.25826 0.93558 0.0
O365 O 0.138 0.2667 0.9143 0.0
O366 O 0.1313 0.26506 0.80391 0.0
H367 H 0.17897 0.25736 0.65955 0.0
H368 H 0.1991 0.24507 0.66761 0.0
C369 C 0.18534 0.24605 0.68486 0.0
H370 H 0.17856 0.23397 0.66875 0.0
H371 H 0.1386 0.27547 0.67122 0.0
O372 O 0.16074 0.24475 0.02066 0.0
C373 C 0.12983 0.27237 0.86211 0.0
Co374 Co 0.37198 0.75099 0.4065 0.0
Co375 Co 0.37856 0.74577 0.25017 0.0
C376 C 0.39053 0.77791 0.32124 0.0
O377 O 0.38353 0.77272 0.37661 0.0
O378 O 0.39019 0.7686 0.26722 0.0
C379 C 0.37492 0.76334 0.54063 0.0
O380 O 0.3888 0.77072 0.51362 0.0
C381 C 0.37918 0.75086 0.10097 0.0
C382 C 0.37668 0.72351 0.06525 0.0
C383 C 0.37775 0.74063 0.04263 0.0
N384 N 0.3786 0.74023 0.15567 0.0
N385 N 0.37727 0.72392 0.13398 0.0
C386 C 0.38179 0.77023 0.10539 0.0
H387 H 0.39344 0.77303 0.13735 0.0
H388 H 0.37032 0.77628 0.13083 0.0
H389 H 0.38379 0.77624 0.05435 0.0
C390 C 0.33543 0.74449 0.36274 0.0
N391 N 0.35262 0.74631 0.34981 0.0
N392 N 0.35526 0.74546 0.28339 0.0
C393 C 0.33976 0.74353 0.25159 0.0
C394 C 0.32667 0.74262 0.3008 0.0
C395 C 0.32781 0.74395 0.43325 0.0
H396 H 0.33679 0.7369 0.4683 0.0
H397 H 0.3263 0.75752 0.45247 0.0
H398 H 0.31487 0.7374 0.4335 0.0
O399 O 0.38897 0.73149 0.4052 0.0
O400 O 0.39219 0.72692 0.29369 0.0
H401 H 0.34109 0.73129 0.15331 0.0
H402 H 0.32379 0.74726 0.16091 0.0
C403 C 0.33745 0.74413 0.17549 0.0
H404 H 0.34607 0.75429 0.15351 0.0
H405 H 0.37649 0.71307 0.16628 0.0
O406 O 0.36496 0.75422 0.50269 0.0
C407 C 0.39551 0.72297 0.35551 0.0
Co408 Co 0.50828 0.10626 0.66858 0.0
Co409 Co 0.51293 0.11321 0.51094 0.0
C410 C 0.48199 0.12673 0.58979 0.0
O411 O 0.48715 0.11949 0.64474 0.0
O412 O 0.49079 0.12568 0.53453 0.0
C413 C 0.49246 0.09993 0.80006 0.0
O414 O 0.47802 0.10486 0.76921 0.0
C415 C 0.50527 0.11005 0.36319 0.0
C416 C 0.53024 0.11911 0.31857 0.0
C417 C 0.51378 0.11296 0.3015 0.0
N418 N 0.51631 0.11415 0.41437 0.0
N419 N 0.53119 0.11956 0.38726 0.0
C420 C 0.48667 0.10458 0.37343 0.0
H421 H 0.48267 0.10635 0.42753 0.0
H422 H 0.48512 0.0906 0.35983 0.0
H423 H 0.47799 0.11227 0.33922 0.0
C424 C 0.51094 0.06961 0.62093 0.0
N425 N 0.5108 0.08694 0.60901 0.0
N426 N 0.51307 0.08977 0.5431 0.0
C427 C 0.51524 0.07429 0.51129 0.0
C428 C 0.51373 0.06102 0.55931 0.0
C429 C 0.50752 0.06159 0.68952 0.0
H430 H 0.51896 0.06394 0.72322 0.0
H431 H 0.49602 0.06799 0.71333 0.0
H432 H 0.50507 0.04733 0.68572 0.0
O433 O 0.52883 0.1222 0.66331 0.0
O434 O 0.53271 0.12583 0.55151 0.0
H435 H 0.52929 0.08272 0.42201 0.0
H436 H 0.52652 0.05938 0.42825 0.0
C437 C 0.52017 0.07221 0.43757 0.0
H438 H 0.50825 0.07297 0.40555 0.0
H439 H 0.54201 0.12359 0.41569 0.0
O440 O 0.50655 0.09886 0.76577 0.0
C441 C 0.53727 0.1286 0.61306 0.0
Co442 Co 0.01482 0.88826 0.1452 0.0
Co443 Co 0.01399 0.88101 0.98733 0.0
C444 C 0.04356 0.86866 0.07339 0.0
O445 O 0.03648 0.87513 0.12662 0.0
O446 O 0.03642 0.8699 0.0146 0.0
C447 C 0.02913 0.89791 0.27658 0.0
O448 O 0.04421 0.89847 0.24449 0.0
C449 C 0.02286 0.88369 0.84071 0.0
C450 C 0.99673 0.88024 0.79414 0.0
C451 C 0.01402 0.88377 0.77893 0.0
N452 N 0.01124 0.88038 0.89066 0.0
N453 N 0.99571 0.87805 0.86231 0.0
C454 C 0.04168 0.88801 0.85256 0.0
H455 H 0.04375 0.89238 0.90613 0.0
H456 H 0.04607 0.89829 0.8163 0.0
H457 H 0.04966 0.87613 0.84333 0.0
C458 C 0.01269 0.9249 0.09712 0.0
N459 N 0.01319 0.90756 0.08568 0.0
N460 N 0.01239 0.90458 0.01936 0.0
C461 C 0.01099 0.92002 0.98649 0.0
C462 C 0.01131 0.93339 0.03452 0.0
C463 C 0.01474 0.93299 0.16642 0.0
H464 H 0.02683 0.92791 0.19059 0.0
H465 H 0.01559 0.94744 0.16399 0.0
H466 H 0.00355 0.9291 0.19917 0.0
O467 O 0.9942 0.87277 0.13474 0.0
O468 O 0.99478 0.86667 0.02377 0.0
H469 H -0.00149 0.91238 0.89297 0.0
H470 H 0.00364 0.93525 0.89736 0.0
C471 C 0.00832 0.92197 0.91093 0.0
H472 H 0.02085 0.9195 0.88415 0.0
H473 H 0.98427 0.87565 0.88983 0.0
O474 O 0.01522 0.89494 0.24286 0.0
C475 C 0.98808 0.86482 0.08282 0.0
Co476 Co 0.51015 0.88832 0.33965 0.0
Co477 Co 0.51105 0.87965 0.49745 0.0
C478 C 0.48148 0.86807 0.40965 0.0
O479 O 0.48858 0.87489 0.35721 0.0
O480 O 0.48857 0.86894 0.46858 0.0
C481 C 0.49508 0.89712 0.20951 0.0
O482 O 0.48028 0.89454 0.24208 0.0
C483 C 0.50266 0.88232 0.64518 0.0
C484 C 0.52679 0.87148 0.69077 0.0
C485 C 0.51074 0.87869 0.70722 0.0
N486 N 0.51358 0.87764 0.59438 0.0
N487 N 0.52793 0.8711 0.62212 0.0
C488 C 0.48451 0.88905 0.63412 0.0
H489 H 0.48158 0.89016 0.57865 0.0
H490 H 0.48292 0.90204 0.65846 0.0
H491 H 0.47502 0.88005 0.65873 0.0
C492 C 0.51286 0.92436 0.39315 0.0
N493 N 0.512 0.90695 0.40248 0.0
N494 N 0.51301 0.90342 0.46839 0.0
C495 C 0.51504 0.91855 0.50291 0.0
C496 C 0.51478 0.93228 0.45659 0.0
C497 C 0.51086 0.93307 0.325 0.0
H498 H 0.49934 0.92755 0.29817 0.0
H499 H 0.50919 0.94742 0.32994 0.0
H500 H 0.52258 0.93027 0.29333 0.0
O501 O 0.53073 0.8726 0.34768 0.0
O502 O 0.53007 0.8656 0.45796 0.0
H503 H 0.52511 0.9324 0.59093 0.0
H504 H 0.50595 0.9194 0.6062 0.0
C505 C 0.51852 0.91989 0.57814 0.0
H506 H 0.52692 0.90894 0.59519 0.0
H507 H 0.5386 0.86649 0.59413 0.0
O508 O 0.50939 0.89623 0.24262 0.0
C509 C 0.53676 0.86416 0.39867 0.0
Co510 Co 0.01271 0.11035 0.85388 0.0
Co511 Co 0.00797 0.1141 0.01197 0.0
C512 C 0.03952 0.12815 0.93871 0.0
O513 O 0.03432 0.12204 0.88174 0.0
O514 O 0.03047 0.12662 0.99322 0.0
C515 C 0.02787 0.10218 0.72147 0.0
O516 O 0.04276 0.10002 0.75391 0.0
C517 C 0.01605 0.11013 0.15816 0.0
C518 C 0.98948 0.10948 0.20275 0.0
C519 C 0.00703 0.10805 0.21909 0.0
N520 N 0.00431 0.11248 0.10783 0.0
N521 N 0.98848 0.11232 0.13494 0.0
C522 C 0.03531 0.10851 0.1468 0.0
H523 H 0.03795 0.10308 0.09513 0.0
H524 H 0.04139 0.10008 0.18647 0.0
H525 H 0.04131 0.12171 0.14977 0.0
C526 C 0.01006 0.07269 0.88909 0.0
N527 N 0.00969 0.08978 0.90587 0.0
N528 N 0.0078 0.09133 0.97256 0.0
C529 C 0.00667 0.07524 0.00031 0.0
C530 C 0.00823 0.06292 0.94856 0.0
C531 C 0.01373 0.06608 0.81845 0.0
H532 H 0.02697 0.07041 0.80281 0.0
H533 H 0.0132 0.05162 0.81542 0.0
H534 H 0.00419 0.07182 0.78208 0.0
O535 O 0.99272 0.12666 0.86446 0.0
O536 O 0.98828 0.12797 0.97653 0.0
H537 H 0.00044 0.05775 0.0844 0.0
H538 H 0.01539 0.07531 0.10431 0.0
C539 C 0.00357 0.07169 0.07471 0.0
H540 H 0.99244 0.07968 0.09294 0.0
H541 H 0.97696 0.11363 0.10677 0.0
O542 O 0.01408 0.10569 0.75496 0.0
C543 C 0.98414 0.1322 0.91582 0.0
C544 C 0.01386 0.5898 0.67243 0.0
C545 C 0.00682 0.60369 0.71007 0.0
C546 C 0.0095 0.58742 0.6035 0.0
C547 C -0.00185 0.5995 0.57127 0.0
C548 C 0.99025 0.61299 0.61015 0.0
C549 C 0.99463 0.61487 0.67953 0.0
C550 C 0.01797 0.57269 0.56412 0.0
C551 C 0.97826 0.62624 0.57738 0.0
C552 C 0.00907 0.60842 0.38602 0.0
C553 C 0.9959 0.59923 0.35141 0.0
C554 C 0.00964 0.60887 0.45748 0.0
C555 C 0.99689 0.59964 0.49553 0.0
C556 C 0.98355 0.59028 0.46113 0.0
C557 C 0.98313 0.59029 0.38918 0.0
C558 C 0.02398 0.61918 0.49224 0.0
C559 C 0.96993 0.58009 0.50029 0.0
H560 H 0.02318 0.58106 0.69654 0.0
H561 H 0.98932 0.6257 0.7087 0.0
H562 H 0.0082 0.56587 0.53172 0.0
H563 H 0.02815 0.57809 0.5296 0.0
H564 H 0.02424 0.56298 0.59858 0.0
H565 H 0.97127 0.63427 0.61608 0.0
H566 H 0.98606 0.63512 0.54438 0.0
H567 H 0.96848 0.61969 0.54421 0.0
H568 H 0.01889 0.61551 0.35719 0.0
H569 H 0.97294 0.58316 0.36258 0.0
H570 H 0.03236 0.61027 0.52278 0.0
H571 H 0.01823 0.62885 0.52809 0.0
H572 H 0.0324 0.62625 0.4551 0.0
H573 H 0.97637 0.56976 0.53123 0.0
H574 H 0.96019 0.57384 0.46593 0.0
H575 H 0.96296 0.58883 0.53646 0.0
C576 C 0.66424 0.73272 0.94397 0.0
C577 C 0.64819 0.74002 0.96329 0.0
C578 C 0.66798 0.72937 0.8748 0.0
C579 C 0.6553 0.73335 0.82432 0.0
C580 C 0.63879 0.74004 0.84423 0.0
C581 C 0.63553 0.74349 0.91349 0.0
C582 C 0.6858 0.72248 0.8555 0.0
C583 C 0.62481 0.74422 0.79211 0.0
C584 C 0.66729 0.74595 0.6428 0.0
C585 C 0.66277 0.7308 0.60657 0.0
C586 C 0.66589 0.7466 0.71434 0.0
C587 C 0.65955 0.73182 0.75032 0.0
C588 C 0.65578 0.71621 0.71435 0.0
C589 C 0.65756 0.71584 0.64285 0.0
C590 C 0.67037 0.76339 0.75103 0.0
C591 C 0.64887 0.70023 0.75082 0.0
H592 H 0.67422 0.73055 0.98242 0.0
H593 H 0.62318 0.74928 0.92872 0.0
H594 H 0.68458 0.7112 0.82013 0.0
H595 H 0.6932 0.73282 0.82816 0.0
H596 H 0.69348 0.71836 0.90099 0.0
H597 H 0.61222 0.74792 0.81647 0.0
H598 H 0.62919 0.75521 0.75927 0.0
H599 H 0.62253 0.7328 0.75824 0.0
H600 H 0.67149 0.75749 0.61505 0.0
H601 H 0.65401 0.70409 0.61514 0.0
H602 H 0.67911 0.76071 0.79514 0.0
H603 H 0.65826 0.76942 0.77151 0.0
H604 H 0.67687 0.773 0.71676 0.0
H605 H 0.65714 0.69706 0.79579 0.0
H606 H 0.64831 0.68862 0.71673 0.0
H607 H 0.63549 0.70294 0.77009 0.0
C608 C 0.52883 0.38228 0.20344 0.0
C609 C 0.51742 0.39416 0.23459 0.0
C610 C 0.53298 0.38387 0.13374 0.0
C611 C 0.52566 0.39775 0.09519 0.0
C612 C 0.51521 0.4105 0.12803 0.0
C613 C 0.51105 0.40843 0.19728 0.0
C614 C 0.54403 0.36992 0.10033 0.0
C615 C 0.50739 0.42565 0.08899 0.0
C616 C 0.54002 0.40586 0.9116 0.0
C617 C 0.52656 0.39756 0.87522 0.0
C618 C 0.54005 0.40599 0.98354 0.0
C619 C 0.52645 0.39741 0.01938 0.0
C620 C 0.51297 0.38885 0.98277 0.0
C621 C 0.51313 0.38915 0.91125 0.0
C622 C 0.55447 0.41543 0.02116 0.0
C623 C 0.49829 0.37942 0.01911 0.0
H624 H 0.5336 0.37117 0.23236 0.0
H625 H 0.50234 0.4177 0.22186 0.0
H626 H 0.53555 0.3614 0.06846 0.0
H627 H 0.55392 0.37585 0.06598 0.0
H628 H 0.55082 0.36161 0.13867 0.0
H629 H 0.50191 0.43576 0.12373 0.0
H630 H 0.51734 0.43183 0.05552 0.0
H631 H 0.4967 0.4208 0.05557 0.0
H632 H 0.55042 0.41239 0.88392 0.0
H633 H 0.50277 0.38257 0.88352 0.0
H634 H 0.56117 0.40635 0.05683 0.0
H635 H 0.54883 0.42614 0.05249 0.0
H636 H 0.56432 0.42109 0.98575 0.0
H637 H 0.50371 0.36947 0.05462 0.0
H638 H 0.48925 0.37279 0.98295 0.0
H639 H 0.49064 0.38883 0.05023 0.0
C640 C 0.86069 0.26181 0.43797 0.0
C641 C 0.876 0.25281 0.45576 0.0
C642 C 0.85709 0.26604 0.36937 0.0
C643 C 0.86911 0.26114 0.31769 0.0
C644 C 0.88475 0.25236 0.33576 0.0
C645 C 0.88792 0.24819 0.40449 0.0
C646 C 0.84019 0.27522 0.35198 0.0
C647 C 0.89799 0.24704 0.28229 0.0
C648 C 0.85613 0.2536 0.13275 0.0
C649 C 0.86302 0.26852 0.10086 0.0
C650 C 0.8571 0.2515 0.20403 0.0
C651 C 0.86525 0.26457 0.24426 0.0
C652 C 0.87129 0.28011 0.21284 0.0
C653 C 0.87002 0.28194 0.14151 0.0
C654 C 0.85027 0.23484 0.23576 0.0
C655 C 0.88006 0.29434 0.25396 0.0
H656 H 0.85116 0.2649 0.47711 0.0
H657 H 0.89973 0.24117 0.41821 0.0
H658 H 0.84282 0.28703 0.32067 0.0
H659 H 0.83183 0.26642 0.32087 0.0
H660 H 0.8328 0.27917 0.39843 0.0
H661 H 0.90982 0.24098 0.30519 0.0
H662 H 0.89202 0.23755 0.24628 0.0
H663 H 0.90206 0.25861 0.25193 0.0
H664 H 0.85054 0.24325 0.1018 0.0
H665 H 0.87532 0.29355 0.11741 0.0
H666 H 0.84196 0.23784 0.2808 0.0
H667 H 0.86141 0.2268 0.25404 0.0
H668 H 0.84253 0.22694 0.1989 0.0
H669 H 0.87207 0.29777 0.29937 0.0
H670 H 0.8823 0.30636 0.22324 0.0
H671 H 0.89288 0.28955 0.27292 0.0
C672 C 0.01224 0.40626 0.31315 0.0
C673 C 0.0057 0.39153 0.27922 0.0
C674 C 0.00849 0.4092 0.3823 0.0
C675 C -0.00165 0.39682 0.41862 0.0
C676 C 0.99085 0.38244 0.38342 0.0
C677 C 0.99452 0.38004 0.31359 0.0
C678 C 0.01643 0.42488 0.41752 0.0
C679 C 0.98014 0.36886 0.42056 0.0
C680 C 0.01196 0.39063 0.60309 0.0
C681 C -0.00149 0.39915 0.63868 0.0
C682 C 0.0118 0.38955 0.53164 0.0
C683 C 0.99801 0.39746 0.49454 0.0
C684 C 0.98449 0.4063 0.5299 0.0
C685 C 0.98481 0.4069 0.60183 0.0
C686 C 0.0264 0.37984 0.4959 0.0
C687 C 0.9698 0.41517 0.49177 0.0
H688 H 0.02075 0.41524 0.28599 0.0
H689 H 0.98957 0.36861 0.28711 0.0
H690 H 0.00666 0.43139 0.45087 0.0
H691 H 0.0274 0.42056 0.45061 0.0
H692 H 0.02154 0.4346 0.38028 0.0
H693 H 0.97324 0.35997 0.38457 0.0
H694 H 0.98888 0.36088 0.45346 0.0
H695 H 0.97036 0.37515 0.45444 0.0
H696 H 0.02251 0.38446 0.63118 0.0
H697 H 0.97439 0.4135 0.62914 0.0
H698 H 0.03376 0.38894 0.46236 0.0
H699 H 0.02091 0.36941 0.4628 0.0
H700 H 0.03572 0.37378 0.5325 0.0
H701 H 0.97519 0.42532 0.45709 0.0
H702 H 0.96024 0.42143 0.52687 0.0
H703 H 0.9628 0.40554 0.45933 0.0
C704 C 0.88876 0.7459 0.57045 0.0
C705 C 0.87627 0.74191 0.52059 0.0
C706 C 0.88565 0.74225 0.63965 0.0
C707 C 0.86947 0.7348 0.65942 0.0
C708 C 0.85695 0.73035 0.60892 0.0
C709 C 0.86052 0.73396 0.53982 0.0
C710 C 0.89944 0.74698 0.69185 0.0
C711 C 0.83946 0.72264 0.62812 0.0
C712 C 0.86822 0.71667 0.84003 0.0
C713 C 0.86238 0.73126 0.87704 0.0
C714 C 0.86989 0.71732 0.76853 0.0
C715 C 0.86535 0.73284 0.73335 0.0
C716 C 0.85836 0.7472 0.77007 0.0
C717 C 0.85708 0.74628 0.84159 0.0
C718 C 0.87751 0.7018 0.73122 0.0
C719 C 0.85305 0.76387 0.73422 0.0
H720 H 0.90087 0.75219 0.5553 0.0
H721 H 0.85063 0.73142 0.50139 0.0
H722 H 0.89453 0.75763 0.72527 0.0
H723 H 0.90231 0.73558 0.72514 0.0
H724 H 0.91181 0.75139 0.66757 0.0
H725 H 0.83191 0.71835 0.58253 0.0
H726 H 0.84122 0.71129 0.66282 0.0
H727 H 0.83165 0.73255 0.65619 0.0
H728 H 0.87237 0.70501 0.86715 0.0
H729 H 0.85239 0.75753 0.86994 0.0
H730 H 0.89072 0.70519 0.71186 0.0
H731 H 0.86934 0.69838 0.68624 0.0
H732 H 0.87865 0.69013 0.76476 0.0
H733 H 0.86484 0.77054 0.71395 0.0
H734 H 0.84612 0.77304 0.769 0.0
H735 H 0.84442 0.76092 0.69004 0.0
C736 C 0.52546 0.59698 0.823 0.0
C737 C 0.51775 0.61288 0.80422 0.0
C738 C 0.52931 0.59334 0.89184 0.0
C739 C 0.52533 0.60594 0.94261 0.0
C740 C 0.51801 0.62223 0.92334 0.0
C741 C 0.51413 0.62542 0.85435 0.0
C742 C 0.53687 0.57574 0.91051 0.0
C743 C 0.51374 0.63609 0.97584 0.0
C744 C 0.51506 0.59374 0.12616 0.0
C745 C 0.53036 0.59899 0.15996 0.0
C746 C 0.51363 0.595 0.05475 0.0
C747 C 0.52776 0.60186 0.01639 0.0
C748 C 0.54357 0.6063 0.0498 0.0
C749 C 0.54472 0.60471 0.12124 0.0
C750 C 0.49665 0.58985 0.02082 0.0
C751 C 0.5589 0.61369 0.01066 0.0
H752 H 0.52767 0.58705 0.78441 0.0
H753 H 0.50801 0.63764 0.83958 0.0
H754 H 0.5485 0.57736 0.94384 0.0
H755 H 0.52707 0.56813 0.93989 0.0
H756 H 0.54069 0.56806 0.86462 0.0
H757 H 0.50922 0.64847 0.9519 0.0
H758 H 0.50332 0.63126 0.01054 0.0
H759 H 0.5254 0.63892 0.00777 0.0
H760 H 0.50399 0.58914 0.15571 0.0
H761 H 0.55659 0.60878 0.14697 0.0
H762 H 0.49919 0.58117 0.97644 0.0
H763 H 0.48997 0.60171 0.00113 0.0
H764 H 0.48766 0.58305 0.05667 0.0
H765 H 0.56193 0.60541 0.96558 0.0
H766 H 0.57081 0.61478 0.04292 0.0
H767 H 0.5555 0.6269 0.99126 0.0
C768 C 0.64889 0.25244 0.34473 0.0
C769 C 0.65842 0.26521 0.38011 0.0
C770 C 0.64878 0.25194 0.27321 0.0
C771 C 0.65876 0.26429 0.23603 0.0
C772 C 0.66842 0.27727 0.27132 0.0
C773 C 0.66798 0.27769 0.34324 0.0
C774 C 0.63806 0.23806 0.23748 0.0
C775 C 0.67946 0.2904 0.23322 0.0
C776 C 0.66929 0.24649 0.06101 0.0
C777 C 0.65612 0.25412 0.02134 0.0
C778 C 0.67131 0.25091 0.13008 0.0
C779 C 0.65951 0.26288 0.16036 0.0
C780 C 0.64678 0.27137 0.11942 0.0
C781 C 0.64532 0.26695 0.04991 0.0
C782 C 0.68528 0.24185 0.17163 0.0
C783 C 0.63381 0.28401 0.15007 0.0
H784 H 0.6413 0.2429 0.37304 0.0
H785 H 0.67539 0.28755 0.3706 0.0
H786 H 0.62904 0.24421 0.20003 0.0
H787 H 0.64681 0.22916 0.20859 0.0
H788 H 0.63022 0.23012 0.27388 0.0
H789 H 0.68562 0.30009 0.26808 0.0
H790 H 0.68993 0.2835 0.20463 0.0
H791 H 0.6714 0.2975 0.19505 0.0
H792 H 0.67772 0.23665 0.03842 0.0
H793 H 0.63502 0.27271 0.01914 0.0
H794 H 0.67913 0.23198 0.20557 0.0
H795 H 0.69224 0.25136 0.20475 0.0
H796 H 0.695 0.2351 0.13864 0.0
H797 H 0.62425 0.27666 0.18168 0.0
H798 H 0.62652 0.29134 0.11012 0.0
H799 H 0.64047 0.29349 0.1842 0.0
C800 C 0.35527 0.24428 0.33804 0.0
C801 C 0.36241 0.22964 0.37099 0.0
C802 C 0.35624 0.24606 0.26672 0.0
C803 C 0.36474 0.23299 0.22765 0.0
C804 C 0.37112 0.21774 0.26021 0.0
C805 C 0.36978 0.2162 0.33158 0.0
C806 C 0.34899 0.26237 0.23366 0.0
C807 C 0.38032 0.20357 0.22025 0.0
C808 C 0.35954 0.23495 0.03444 0.0
C809 C 0.37444 0.24448 0.01574 0.0
C810 C 0.35637 0.23068 0.10322 0.0
C811 C 0.36841 0.23611 0.15402 0.0
C812 C 0.38368 0.24538 0.13492 0.0
C813 C 0.38641 0.2496 0.06597 0.0
C814 C 0.33983 0.22102 0.12179 0.0
C815 C 0.39691 0.25126 0.18752 0.0
H816 H 0.34939 0.25462 0.36822 0.0
H817 H 0.37532 0.20484 0.35671 0.0
H818 H 0.35991 0.27055 0.21437 0.0
H819 H 0.34068 0.25892 0.18912 0.0
H820 H 0.34112 0.27032 0.26997 0.0
H821 H 0.38292 0.19179 0.25194 0.0
H822 H 0.37242 0.19966 0.17515 0.0
H823 H 0.39298 0.20863 0.20084 0.0
H824 H 0.34996 0.23156 0.99587 0.0
H825 H 0.39785 0.25709 0.05127 0.0
H826 H 0.33118 0.22972 0.15211 0.0
H827 H 0.34289 0.20952 0.15423 0.0
H828 H 0.33255 0.21652 0.07585 0.0
H829 H 0.39082 0.26086 0.22276 0.0
H830 H 0.40858 0.2574 0.16373 0.0
H831 H 0.40125 0.23996 0.21887 0.0
C832 C 0.13714 0.74488 0.56884 0.0
C833 C 0.14868 0.75079 0.51841 0.0
C834 C 0.13971 0.74923 0.63777 0.0
C835 C 0.15443 0.75938 0.65665 0.0
C836 C 0.16606 0.76553 0.60565 0.0
C837 C 0.16301 0.76117 0.53686 0.0
C838 C 0.12689 0.7426 0.69056 0.0
C839 C 0.18202 0.77615 0.62398 0.0
C840 C 0.15172 0.77951 0.83356 0.0
C841 C 0.15983 0.7666 0.87356 0.0
C842 C 0.15056 0.77776 0.76222 0.0
C843 C 0.15788 0.76287 0.73022 0.0
C844 C 0.1671 0.7504 0.76985 0.0
C845 C 0.16787 0.75236 0.84117 0.0
C846 C 0.14058 0.79129 0.72171 0.0
C847 C 0.17535 0.73449 0.73739 0.0
H848 H 0.12615 0.73672 0.55428 0.0
H849 H 0.17219 0.7653 0.49781 0.0
H850 H 0.13358 0.73344 0.72598 0.0
H851 H 0.12186 0.75364 0.72169 0.0
H852 H 0.11562 0.7357 0.66695 0.0
H853 H 0.18912 0.78087 0.57794 0.0
H854 H 0.17828 0.78759 0.65565 0.0
H855 H 0.19108 0.76806 0.65504 0.0
H856 H 0.14549 0.79058 0.85819 0.0
H857 H 0.17432 0.74244 0.87174 0.0
H858 H 0.12825 0.78545 0.70235 0.0
H859 H 0.14826 0.79557 0.67655 0.0
H860 H 0.13727 0.80296 0.75298 0.0
H861 H 0.16495 0.72561 0.71839 0.0
H862 H 0.18368 0.72713 0.774 0.0
H863 H 0.18343 0.73835 0.69273 0.0
C864 C 0.16252 0.23231 0.46585 0.0
C865 C 0.14671 0.24022 0.48453 0.0
C866 C 0.16638 0.22894 0.39679 0.0
C867 C 0.15408 0.23355 0.34569 0.0
C868 C 0.13782 0.24096 0.36485 0.0
C869 C 0.13443 0.2444 0.43406 0.0
C870 C 0.18395 0.22128 0.37832 0.0
C871 C 0.12425 0.24584 0.31204 0.0
C872 C 0.16729 0.24517 0.16427 0.0
C873 C 0.16221 0.23015 0.1283 0.0
C874 C 0.16563 0.24606 0.23573 0.0
C875 C 0.15846 0.23169 0.27186 0.0
C876 C 0.15409 0.21619 0.2362 0.0
C877 C 0.15614 0.21555 0.16484 0.0
C878 C 0.17078 0.2627 0.27211 0.0
C879 C 0.14627 0.20066 0.2728 0.0
H880 H 0.17226 0.22964 0.50476 0.0
H881 H 0.12229 0.25068 0.44876 0.0
H882 H 0.18232 0.20997 0.34334 0.0
H883 H 0.19182 0.23123 0.3508 0.0
H884 H 0.19137 0.21695 0.42419 0.0
H885 H 0.11179 0.25022 0.33577 0.0
H886 H 0.1293 0.25656 0.27929 0.0
H887 H 0.12148 0.23452 0.27819 0.0
H888 H 0.17213 0.25642 0.13636 0.0
H889 H 0.15214 0.2039 0.13738 0.0
H890 H 0.17923 0.25971 0.31677 0.0
H891 H 0.1589 0.26934 0.29175 0.0
H892 H 0.17784 0.27191 0.23789 0.0
H893 H 0.15429 0.19711 0.31803 0.0
H894 H 0.14515 0.18904 0.23895 0.0
H895 H 0.13303 0.2041 0.29172 0.0
C896 C 0.38394 0.77313 0.65703 0.0
C897 C 0.37243 0.76357 0.61552 0.0
C898 C 0.38359 0.77136 0.72834 0.0
C899 C 0.37145 0.75976 0.7586 0.0
C900 C 0.359 0.75101 0.71737 0.0
C901 C 0.35962 0.75305 0.64612 0.0
C902 C 0.39696 0.78103 0.77085 0.0
C903 C 0.34577 0.73862 0.74802 0.0
C904 C 0.38561 0.73673 0.92063 0.0
C905 C 0.37655 0.74614 0.97067 0.0
C906 C 0.38411 0.74115 0.85139 0.0
C907 C 0.37313 0.75521 0.83197 0.0
C908 C 0.36384 0.7647 0.88235 0.0
C909 C 0.3656 0.75998 0.95136 0.0
C910 C 0.39424 0.73072 0.79901 0.0
C911 C 0.35192 0.77966 0.86327 0.0
H912 H 0.39374 0.78146 0.63373 0.0
H913 H 0.35058 0.74574 0.61434 0.0
H914 H 0.39061 0.78748 0.8152 0.0
H915 H 0.40665 0.77159 0.79142 0.0
H916 H 0.40405 0.79108 0.74061 0.0
H917 H 0.33566 0.73461 0.71029 0.0
H918 H 0.35255 0.72671 0.76669 0.0
H919 H 0.33919 0.74472 0.79262 0.0
H920 H 0.39393 0.72592 0.93579 0.0
H921 H 0.35812 0.76685 0.99004 0.0
H922 H 0.403 0.7395 0.76957 0.0
H923 H 0.38509 0.7246 0.762 0.0
H924 H 0.40228 0.72026 0.82279 0.0
H925 H 0.35926 0.78964 0.83373 0.0
H926 H 0.34604 0.78604 0.90889 0.0
H927 H 0.34123 0.77484 0.82983 0.0
C928 C 0.47898 0.10432 0.91541 0.0
C929 C 0.49295 0.09821 0.87549 0.0
C930 C 0.48038 0.10534 0.98694 0.0
C931 C 0.49606 0.09999 0.01916 0.0
C932 C 0.50974 0.0927 0.9795 0.0
C933 C 0.50804 0.09196 0.90808 0.0
C934 C 0.46552 0.11317 0.02751 0.0
C935 C 0.52658 0.08661 0.01207 0.0
C936 C 0.51132 0.12266 0.18074 0.0
C937 C 0.50747 0.1102 0.23097 0.0
C938 C 0.50707 0.11972 0.11197 0.0
C939 C 0.49902 0.10378 0.09286 0.0
C940 C 0.49476 0.09127 0.14363 0.0
C941 C 0.49904 0.09464 0.21232 0.0
C942 C 0.51166 0.13349 0.0595 0.0
C943 C 0.48638 0.07404 0.12507 0.0
H944 H 0.46723 0.10912 0.89066 0.0
H945 H 0.51881 0.08703 0.87761 0.0
H946 H 0.46242 0.10491 0.07255 0.0
H947 H 0.46946 0.12622 0.047 0.0
H948 H 0.4535 0.11475 0.99617 0.0
H949 H 0.53506 0.07947 0.97533 0.0
H950 H 0.53392 0.09807 0.03173 0.0
H951 H 0.52381 0.07794 0.05628 0.0
H952 H 0.51788 0.13467 0.19526 0.0
H953 H 0.49655 0.08475 0.25073 0.0
H954 H 0.49995 0.13695 0.02883 0.0
H955 H 0.52162 0.12826 0.02363 0.0
H956 H 0.51691 0.14559 0.08335 0.0
H957 H 0.47468 0.07621 0.09256 0.0
H958 H 0.48243 0.06645 0.17103 0.0
H959 H 0.49572 0.06607 0.09484 0.0
C960 C 0.01476 0.90405 0.68037 0.0
C961 C 0.02057 0.88857 0.71094 0.0
C962 C 0.01839 0.90758 0.61143 0.0
C963 C 0.02758 0.89504 0.5721 0.0
C964 C 0.03428 0.8798 0.60409 0.0
C965 C 0.0308 0.87682 0.67367 0.0
C966 C 0.01139 0.92417 0.57972 0.0
C967 C 0.04391 0.866 0.56374 0.0
C968 C 0.01408 0.89113 0.38632 0.0
C969 C 0.02845 0.89842 0.35215 0.0
C970 C 0.01373 0.88995 0.4578 0.0
C971 C 0.02793 0.89662 0.49632 0.0
C972 C 0.04225 0.90451 0.46236 0.0
C973 C 0.04245 0.90513 0.39043 0.0
C974 C -0.00169 0.8812 0.49197 0.0
C975 C 0.05737 0.91216 0.50195 0.0
H976 H 0.00686 0.91311 0.70987 0.0
H977 H 0.03514 0.86481 0.69784 0.0
H978 H 0.02145 0.93039 0.54685 0.0
H979 H 2e-05 0.92101 0.54672 0.0
H980 H 0.00711 0.93373 0.6191 0.0
H981 H 0.04998 0.85599 0.59743 0.0
H982 H 0.03463 0.85935 0.52867 0.0
H983 H 0.05426 0.87201 0.53173 0.0
H984 H 0.00329 0.88579 0.35706 0.0
H985 H 0.05355 0.91083 0.36417 0.0
H986 H 0.99176 0.8905 0.52715 0.0
H987 H 0.00288 0.86996 0.52317 0.0
H988 H 0.98852 0.87639 0.45444 0.0
H989 H 0.0525 0.92184 0.5397 0.0
H990 H 0.06705 0.91865 0.46805 0.0
H991 H 0.0641 0.9017 0.53115 0.0
C992 C 0.51097 0.90147 0.09886 0.0
C993 C 0.49529 0.89821 0.1338 0.0
C994 C 0.51192 0.89997 0.02737 0.0
C995 C 0.49686 0.89497 0.98997 0.0
C996 C 0.48077 0.89263 0.02451 0.0
C997 C 0.48016 0.89435 0.09602 0.0
C998 C 0.52928 0.90283 0.9923 0.0
C999 C 0.46444 0.88728 0.98646 0.0
C1000 C 0.49926 0.8992 0.79616 0.0
C1001 C 0.5048 0.8824 0.77755 0.0
C1002 C 0.49603 0.90341 0.86505 0.0
C1003 C 0.49845 0.89048 0.91612 0.0
C1004 C 0.50347 0.87333 0.89702 0.0
C1005 C 0.50674 0.86956 0.828 0.0
C1006 C 0.49089 0.92187 0.88346 0.0
C1007 C 0.50602 0.85912 0.94977 0.0
H1008 H 0.52268 0.90462 0.12759 0.0
H1009 H 0.46797 0.89185 0.12253 0.0
H1010 H 0.53427 0.89018 0.97249 0.0
H1011 H 0.52771 0.91173 0.94788 0.0
H1012 H 0.53923 0.90844 0.02745 0.0
H1013 H 0.45262 0.88787 0.01942 0.0
H1014 H 0.46237 0.89581 0.94125 0.0
H1015 H 0.46595 0.8737 0.96739 0.0
H1016 H 0.49836 0.90931 0.75751 0.0
H1017 H 0.51117 0.85661 0.81349 0.0
H1018 H 0.50176 0.92824 0.91159 0.0
H1019 H 0.47935 0.92185 0.91784 0.0
H1020 H 0.48781 0.92986 0.83749 0.0
H1021 H 0.5171 0.86257 0.98386 0.0
H1022 H 0.50878 0.84621 0.92603 0.0
H1023 H 0.49419 0.85791 0.98229 0.0
C1024 C 0.00643 0.09147 0.32805 0.0
C1025 C 0.01397 0.10463 0.28801 0.0
C1026 C 0.01114 0.0894 0.39684 0.0
C1027 C 0.02325 0.10116 0.42654 0.0
C1028 C 0.03154 0.11395 0.38528 0.0
C1029 C 0.02688 0.11543 0.31601 0.0
C1030 C 0.00231 0.07534 0.4387 0.0
C1031 C 0.04426 0.12693 0.41535 0.0
C1032 C 0.01404 0.11135 0.61235 0.0
C1033 C 0.02715 0.10188 0.64606 0.0
C1034 C 0.01302 0.11157 0.54091 0.0
C1035 C 0.02515 0.10172 0.50211 0.0
C1036 C 0.03844 0.0921 0.53573 0.0
C1037 C 0.03942 0.09247 0.6076 0.0
C1038 C -0.00116 0.12228 0.50701 0.0
C1039 C 0.05133 0.08116 0.49592 0.0
H1040 H 0.99652 0.08305 0.30587 0.0
H1041 H 0.03256 0.12571 0.28491 0.0
H1042 H 0.01202 0.06831 0.47072 0.0
H1043 H 0.99265 0.08142 0.47373 0.0
H1044 H 0.99537 0.0657 0.40598 0.0
H1045 H 0.05126 0.13444 0.37511 0.0
H1046 H 0.03705 0.1363 0.4483 0.0
H1047 H 0.05403 0.12022 0.44808 0.0
H1048 H 0.00467 0.11883 0.64192 0.0
H1049 H 0.04954 0.08511 0.6337 0.0
H1050 H 0.98976 0.11355 0.47887 0.0
H1051 H 0.00467 0.13139 0.46914 0.0
H1052 H 0.99113 0.13003 0.54448 0.0
H1053 H 0.04426 0.07078 0.46751 0.0
H1054 H 0.06123 0.07491 0.52959 0.0
H1055 H 0.05819 0.08934 0.45747 0.0
C1056 C 0.00708 0.53211 0.075 0.0
C1057 C 0.01844 0.5436 0.04151 0.0
C1058 C 0.00768 0.51411 0.06159 0.0
C1059 C 0.01984 0.5076 0.01319 0.0
C1060 C 0.03177 0.51912 0.98119 0.0
C1061 C 0.031 0.53701 0.99619 0.0
C1062 C 0.99491 0.50214 0.09739 0.0
C1063 C 0.04489 0.51267 0.92927 0.0
C1064 C 0.02911 0.45895 0.01312 0.0
C1065 C 0.01773 0.45307 0.9619 0.0
C1066 C 0.03008 0.47672 0.03005 0.0
C1067 C 0.01958 0.48885 0.99402 0.0
C1068 C 0.00853 0.48302 0.94044 0.0
C1069 C 0.00769 0.46513 0.92518 0.0
C1070 C 0.04197 0.48245 0.08753 0.0
C1071 C 0.99731 0.49564 0.90037 0.0
H1072 H 0.99732 0.53728 0.10977 0.0
H1073 H 0.03992 0.54596 0.97103 0.0
H1074 H 0.98579 0.49641 0.05937 0.0
H1075 H 0.00198 0.49115 0.12206 0.0
H1076 H 0.98714 0.50909 0.13697 0.0
H1077 H 0.0538 0.52321 0.91161 0.0
H1078 H 0.05286 0.50194 0.9513 0.0
H1079 H 0.03793 0.50727 0.88416 0.0
H1080 H 0.03706 0.44957 0.04079 0.0
H1081 H -0.00119 0.46051 0.88586 0.0
H1082 H 0.03411 0.4884 0.12917 0.0
H1083 H 0.0512 0.49259 0.0691 0.0
H1084 H 0.04962 0.4714 0.10917 0.0
H1085 H 0.9877 0.50194 0.93502 0.0
H1086 H 0.99009 0.48911 0.85818 0.0
H1087 H 0.00553 0.50619 0.87829 0.0
C1088 C 0.79615 0.7418 0.16908 0.0
C1089 C 0.80769 0.75296 0.20349 0.0
C1090 C 0.77816 0.74237 0.18237 0.0
C1091 C 0.77169 0.75416 0.23219 0.0
C1092 C 0.78328 0.76565 0.26629 0.0
C1093 C 0.80116 0.76506 0.25078 0.0
C1094 C 0.76613 0.73014 0.14408 0.0
C1095 C 0.77687 0.77823 0.32031 0.0
C1096 C 0.7232 0.76437 0.23094 0.0
C1097 C 0.71688 0.75235 0.27901 0.0
C1098 C 0.74106 0.76519 0.21532 0.0
C1099 C 0.75285 0.75403 0.25006 0.0
C1100 C 0.74658 0.74233 0.3006 0.0
C1101 C 0.72861 0.74152 0.31403 0.0
C1102 C 0.74725 0.77767 0.16053 0.0
C1103 C 0.75882 0.73045 0.33958 0.0
H1104 H 0.80126 0.73239 0.13272 0.0
H1105 H 0.81011 0.77388 0.27645 0.0
H1106 H 0.76006 0.72079 0.18037 0.0
H1107 H 0.75538 0.73764 0.11968 0.0
H1108 H 0.77311 0.7226 0.10389 0.0
H1109 H 0.78757 0.78647 0.34124 0.0
H1110 H 0.76663 0.7869 0.29877 0.0
H1111 H 0.77083 0.77084 0.36308 0.0
H1112 H 0.7141 0.77295 0.20482 0.0
H1113 H 0.72367 0.73218 0.35101 0.0
H1114 H 0.75344 0.77022 0.11823 0.0
H1115 H 0.75732 0.78661 0.18157 0.0
H1116 H 0.73641 0.78563 0.13908 0.0
H1117 H 0.76507 0.72108 0.30382 0.0
H1118 H 0.75198 0.72294 0.38018 0.0
H1119 H 0.76943 0.73823 0.36357 0.0
C1120 C 0.51799 0.53242 0.46122 0.0
C1121 C 0.50639 0.54431 0.49107 0.0
C1122 C 0.51697 0.51454 0.47644 0.0
C1123 C 0.50423 0.50856 0.52356 0.0
C1124 C 0.4923 0.52052 0.55304 0.0
C1125 C 0.49338 0.53827 0.53561 0.0
C1126 C 0.52968 0.50209 0.44288 0.0
C1127 C 0.47868 0.51465 0.604 0.0
C1128 C 0.49357 0.46026 0.51836 0.0
C1129 C 0.50488 0.45366 0.5685 0.0
C1130 C 0.49294 0.47819 0.50407 0.0
C1131 C 0.50355 0.48978 0.5422 0.0
C1132 C 0.51425 0.48327 0.59566 0.0
C1133 C 0.5149 0.46521 0.60782 0.0
C1134 C 0.48151 0.4846 0.44622 0.0
C1135 C 0.52547 0.49532 0.63828 0.0
H1136 H 0.52809 0.53715 0.42697 0.0
H1137 H 0.48423 0.54751 0.55773 0.0
H1138 H 0.53809 0.49593 0.48237 0.0
H1139 H 0.52246 0.49143 0.41668 0.0
H1140 H 0.5382 0.50873 0.40489 0.0
H1141 H 0.47034 0.52562 0.62197 0.0
H1142 H 0.47016 0.50451 0.58084 0.0
H1143 H 0.48516 0.50862 0.64902 0.0
H1144 H 0.48559 0.45129 0.48882 0.0
H1145 H 0.5237 0.46007 0.64637 0.0
H1146 H 0.48982 0.49022 0.40518 0.0
H1147 H 0.47271 0.49516 0.46436 0.0
H1148 H 0.47342 0.47398 0.42383 0.0
H1149 H 0.53587 0.50111 0.60582 0.0
H1150 H 0.53176 0.4884 0.68182 0.0
H1151 H 0.5175 0.50627 0.65871 0.0
C1152 C 0.80094 0.25721 0.7029 0.0
C1153 C 0.80712 0.2481 0.7602 0.0
C1154 C 0.78317 0.25702 0.68576 0.0
C1155 C 0.77132 0.24765 0.72751 0.0
C1156 C 0.7775 0.23841 0.78551 0.0
C1157 C 0.7954 0.23869 0.80102 0.0
C1158 C 0.77704 0.26699 0.62346 0.0
C1159 C 0.7652 0.22835 0.83136 0.0
C1160 C 0.72368 0.26104 0.72747 0.0
C1161 C 0.71616 0.24788 0.68737 0.0
C1162 C 0.74168 0.26122 0.74035 0.0
C1163 C 0.75236 0.24798 0.71184 0.0
C1164 C 0.74486 0.23492 0.66961 0.0
C1165 C 0.72675 0.23499 0.65805 0.0
C1166 C 0.7492 0.27534 0.7857 0.0
C1167 C 0.75589 0.22069 0.63795 0.0
H1168 H 0.81003 0.26464 0.67179 0.0
H1169 H 0.80027 0.23147 0.84482 0.0
H1170 H 0.76983 0.25813 0.58843 0.0
H1171 H 0.76786 0.27748 0.6391 0.0
H1172 H 0.78806 0.27301 0.59486 0.0
H1173 H 0.77215 0.22175 0.87411 0.0
H1174 H 0.75527 0.23733 0.85323 0.0
H1175 H 0.7581 0.21834 0.80116 0.0
H1176 H 0.71537 0.27101 0.74981 0.0
H1177 H 0.7208 0.22475 0.62754 0.0
H1178 H 0.75965 0.28252 0.75814 0.0
H1179 H 0.75526 0.26934 0.83169 0.0
H1180 H 0.73914 0.28487 0.80266 0.0
H1181 H 0.76672 0.22654 0.60791 0.0
H1182 H 0.74816 0.21201 0.60385 0.0
H1183 H 0.76189 0.21261 0.67885 0.0
C1184 C 0.22855 0.24176 0.82663 0.0
C1185 C 0.21614 0.252 0.79255 0.0
C1186 C 0.24632 0.24282 0.80939 0.0
C1187 C 0.25163 0.25409 0.75574 0.0
C1188 C 0.23916 0.26472 0.72214 0.0
C1189 C 0.22158 0.26376 0.74186 0.0
C1190 C 0.25933 0.23162 0.84755 0.0
C1191 C 0.2443 0.27668 0.664 0.0
C1192 C 0.29966 0.26583 0.74436 0.0
C1193 C 0.30584 0.25305 0.69907 0.0
C1194 C 0.28198 0.26645 0.76295 0.0
C1195 C 0.27017 0.25434 0.73362 0.0
C1196 C 0.2762 0.24203 0.6849 0.0
C1197 C 0.29405 0.2414 0.66876 0.0
C1198 C 0.27609 0.27959 0.81584 0.0
C1199 C 0.26389 0.22921 0.65125 0.0
H1200 H 0.22432 0.23263 0.8657 0.0
H1201 H 0.21198 0.27194 0.71653 0.0
H1202 H 0.26513 0.22186 0.8122 0.0
H1203 H 0.27018 0.23982 0.86733 0.0
H1204 H 0.25325 0.22456 0.89117 0.0
H1205 H 0.23302 0.28427 0.64396 0.0
H1206 H 0.25455 0.28596 0.68101 0.0
H1207 H 0.24991 0.26885 0.62152 0.0
H1208 H 0.30879 0.27505 0.76675 0.0
H1209 H 0.29887 0.23149 0.63385 0.0
H1210 H 0.27101 0.27262 0.86154 0.0
H1211 H 0.26524 0.28766 0.79537 0.0
H1212 H 0.28685 0.2884 0.83223 0.0
H1213 H 0.25866 0.22003 0.69016 0.0
H1214 H 0.2704 0.22148 0.61041 0.0
H1215 H 0.25258 0.23623 0.62861 0.0
C1216 C 0.22353 0.72865 0.24884 0.0
C1217 C 0.21755 0.74119 0.20211 0.0
C1218 C 0.24124 0.72774 0.26681 0.0
C1219 C 0.25328 0.73925 0.23529 0.0
C1220 C 0.24741 0.75133 0.18536 0.0
C1221 C 0.22954 0.75231 0.17003 0.0
C1222 C 0.24696 0.71492 0.32118 0.0
C1223 C 0.25996 0.76349 0.14935 0.0
C1224 C 0.29577 0.75158 0.32245 0.0
C1225 C 0.3077 0.7407 0.28873 0.0
C1226 C 0.27787 0.75075 0.30739 0.0
C1227 C 0.27192 0.73911 0.25605 0.0
C1228 C 0.28388 0.72784 0.22286 0.0
C1229 C 0.30161 0.72858 0.24054 0.0
C1230 C 0.2654 0.76264 0.34512 0.0
C1231 C 0.27807 0.71549 0.16699 0.0
H1232 H 0.21426 0.71983 0.27267 0.0
H1233 H 0.22489 0.76209 0.13421 0.0
H1234 H 0.25742 0.70628 0.30112 0.0
H1235 H 0.25251 0.72213 0.36543 0.0
H1236 H 0.236 0.70665 0.33966 0.0
H1237 H 0.2535 0.77107 0.10791 0.0
H1238 H 0.26562 0.77282 0.18672 0.0
H1239 H 0.27095 0.75594 0.12696 0.0
H1240 H 0.30048 0.76108 0.35925 0.0
H1241 H 0.31083 0.71994 0.21538 0.0
H1242 H 0.25435 0.75496 0.3664 0.0
H1243 H 0.2598 0.77236 0.3091 0.0
H1244 H 0.2719 0.76978 0.38761 0.0
H1245 H 0.26758 0.70675 0.18606 0.0
H1246 H 0.28898 0.70731 0.14742 0.0
H1247 H 0.27254 0.72309 0.12369 0.0
C1248 C 0.50382 0.03496 0.49418 0.0
C1249 C 0.51422 0.04205 0.54618 0.0
C1250 C 0.5043 0.01705 0.47954 0.0
C1251 C 0.51545 0.00603 0.51805 0.0
C1252 C 0.52598 0.01315 0.57078 0.0
C1253 C 0.52523 0.03115 0.58425 0.0
C1254 C 0.49283 0.00992 0.42313 0.0
C1255 C 0.53802 0.00176 0.61276 0.0
C1256 C 0.50383 0.95792 0.52185 0.0
C1257 C 0.51524 0.95111 0.47258 0.0
C1258 C 0.50396 0.97575 0.53796 0.0
C1259 C 0.51578 0.98699 0.50376 0.0
C1260 C 0.52746 0.98013 0.45433 0.0
C1261 C 0.52704 0.9622 0.4393 0.0
C1262 C 0.49128 0.98261 0.59079 0.0
C1263 C 0.54025 0.99175 0.41699 0.0
H1264 H 0.49522 0.04346 0.46518 0.0
H1265 H 0.53339 0.03676 0.62397 0.0
H1266 H 0.50097 0.00322 0.38412 0.0
H1267 H 0.48367 6e-05 0.44432 0.0
H1268 H 0.4851 0.02032 0.39744 0.0
H1269 H 0.54542 0.00937 0.65159 0.0
H1270 H 0.53036 0.99149 0.63938 0.0
H1271 H 0.54747 0.99501 0.57875 0.0
H1272 H 0.49464 0.94928 0.54715 0.0
H1273 H 0.53599 0.95681 0.40177 0.0
H1274 H 0.48229 0.99221 0.56678 0.0
H1275 H 0.49847 0.98955 0.63197 0.0
H1276 H 0.48335 0.97202 0.61429 0.0
H1277 H 0.53306 0.00181 0.38731 0.0
H1278 H 0.54875 0.98427 0.38133 0.0
H1279 H 0.54866 -0.00126 0.45429 0.0
C1280 C 0.02234 0.95953 0.97212 0.0
C1281 C 0.01102 0.95237 0.02097 0.0
C1282 C 0.02197 0.97743 0.95706 0.0
C1283 C 0.01022 0.98842 0.99279 0.0
C1284 C -0.00116 0.98125 0.04263 0.0
C1285 C -0.00072 0.96323 0.0557 0.0
C1286 C 0.03416 0.98458 0.90309 0.0
C1287 C 0.9863 0.99262 0.08235 0.0
C1288 C 0.02097 0.03664 0.00429 0.0
C1289 C 0.00928 0.04378 0.9568 0.0
C1290 C 0.02142 0.01861 0.01649 0.0
C1291 C 0.01011 0.00749 0.97922 0.0
C1292 C -0.00141 0.01461 0.92978 0.0
C1293 C -0.0018 0.03276 0.91955 0.0
C1294 C 0.03377 0.01151 0.07006 0.0
C1295 C 0.98654 0.00309 0.88841 0.0
H1296 H 0.03151 0.95108 0.94569 0.0
H1297 H 0.99039 0.95759 0.09283 0.0
H1298 H 0.02657 0.99156 0.86313 0.0
H1299 H 0.04323 0.99422 0.92637 0.0
H1300 H 0.04202 0.97415 0.87818 0.0
H1301 H 0.97846 0.98501 0.11982 0.0
H1302 H 0.99363 0.00291 0.11031 0.0
H1303 H 0.97723 -0.00065 0.04668 0.0
H1304 H 0.02963 0.04524 0.03259 0.0
H1305 H 0.98906 0.03839 0.8833 0.0
H1306 H 0.04277 0.00183 0.04669 0.0
H1307 H 0.02625 0.0046 0.11039 0.0
H1308 H 0.04168 0.02196 0.09457 0.0
H1309 H 0.99419 0.99284 0.86163 0.0
H1310 H 0.97897 0.01061 0.84981 0.0
H1311 H 0.97721 0.99633 0.92292 0.0
C1312 C 0.10497 0.71063 0.07199 0.0
C1313 C 0.11786 0.70893 0.12241 0.0
C1314 C 0.09214 0.69771 0.06359 0.0
C1315 C 0.09269 0.6825 0.10491 0.0
C1316 C 0.10621 0.6804 0.15376 0.0
C1317 C 0.11844 0.69385 0.16295 0.0
C1318 C 0.07759 0.70068 0.01262 0.0
C1319 C 0.10759 0.66409 0.19697 0.0
C1320 C 0.05064 0.65765 0.13766 0.0
C1321 C 0.05141 0.64465 0.08733 0.0
C1322 C 0.06393 0.67018 0.14342 0.0
C1323 C 0.07862 0.66921 0.09944 0.0
C1324 C 0.07969 0.65576 0.04982 0.0
C1325 C 0.06586 0.64382 0.04344 0.0
C1326 C 0.06206 0.68466 0.1955 0.0
C1327 C 0.09543 0.65396 0.00377 0.0
H1328 H 0.10448 0.72242 0.04123 0.0
H1329 H 0.12852 0.69257 0.20167 0.0
H1330 H 0.07706 0.68976 0.97534 0.0
H1331 H 0.06484 0.70097 0.03971 0.0
H1332 H 0.07918 0.71313 0.98401 0.0
H1333 H 0.11983 0.66377 0.22759 0.0
H1334 H 0.09632 0.66333 0.23254 0.0
H1335 H 0.10714 0.65229 0.16395 0.0
H1336 H 0.03935 0.65835 0.1711 0.0
H1337 H 0.06645 0.63365 0.00483 0.0
H1338 H 0.0627 0.69755 0.16954 0.0
H1339 H 0.07301 0.68415 0.23264 0.0
H1340 H 0.04956 0.68383 0.22423 0.0
H1341 H 0.09665 0.66566 0.97059 0.0
H1342 H 0.09466 0.64218 0.97062 0.0
H1343 H 0.10752 0.65317 0.03508 0.0
C1344 C 0.56424 0.85488 0.33959 0.0
C1345 C 0.55132 0.85179 0.38893 0.0
C1346 C 0.57808 0.84304 0.33051 0.0
C1347 C 0.5786 0.82754 0.37015 0.0
C1348 C 0.56549 0.82435 0.41969 0.0
C1349 C 0.55216 0.83665 0.4292 0.0
C1350 C 0.59213 0.84709 0.27862 0.0
C1351 C 0.56529 0.80773 0.46157 0.0
C1352 C 0.60247 0.78787 0.30135 0.0
C1353 C 0.61716 0.78723 0.34416 0.0
C1354 C 0.58993 0.80109 0.30861 0.0
C1355 C 0.59244 0.81427 0.3585 0.0
C1356 C 0.60762 0.81408 0.40006 0.0
C1357 C 0.61968 0.80036 0.39315 0.0
C1358 C 0.57367 0.80056 0.26471 0.0
C1359 C 0.61096 0.8282 0.45246 0.0
H1360 H 0.56365 0.86667 0.30886 0.0
H1361 H 0.54208 0.83419 0.46701 0.0
H1362 H 0.6052 0.84654 0.30327 0.0
H1363 H 0.59201 0.83712 0.2374 0.0
H1364 H 0.5904 0.8602 0.25505 0.0
H1365 H 0.55401 0.80717 0.49734 0.0
H1366 H 0.56468 0.79622 0.42708 0.0
H1367 H 0.57752 0.80662 0.49174 0.0
H1368 H 0.60045 0.77765 0.26371 0.0
H1369 H 0.63114 0.79995 0.4258 0.0
H1370 H 0.57216 0.81302 0.2363 0.0
H1371 H 0.56197 0.79905 0.29777 0.0
H1372 H 0.57391 0.78963 0.22726 0.0
H1373 H 0.60973 0.84129 0.42845 0.0
H1374 H 0.62414 0.82706 0.47596 0.0
H1375 H 0.60103 0.82742 0.4937 0.0
C1376 C 0.47108 0.33947 0.65262 0.0
C1377 C 0.47079 0.35299 0.60439 0.0
C1378 C 0.45769 0.32699 0.65465 0.0
C1379 C 0.44336 0.32852 0.60907 0.0
C1380 C 0.44276 0.34251 0.56166 0.0
C1381 C 0.4567 0.35441 0.55893 0.0
C1382 C 0.45908 0.31193 0.70441 0.0
C1383 C 0.42738 0.34492 0.51409 0.0
C1384 C 0.41734 0.28734 0.57288 0.0
C1385 C 0.40425 0.28844 0.6227 0.0
C1386 C 0.43007 0.30046 0.56714 0.0
C1387 C 0.4292 0.31526 0.61061 0.0
C1388 C 0.4154 0.31683 0.65847 0.0
C1389 C 0.40327 0.30318 0.66497 0.0
C1390 C 0.44492 0.29804 0.51708 0.0
C1391 C 0.41367 0.33271 0.70389 0.0
H1392 H 0.48211 0.33833 0.68723 0.0
H1393 H 0.45649 0.36498 0.52192 0.0
H1394 H 0.44787 0.31212 0.74036 0.0
H1395 H 0.45855 0.29934 0.67624 0.0
H1396 H 0.47138 0.31234 0.73466 0.0
H1397 H 0.42847 0.35706 0.48315 0.0
H1398 H 0.42638 0.33362 0.47877 0.0
H1399 H 0.41506 0.34543 0.54403 0.0
H1400 H 0.41814 0.2758 0.54078 0.0
H1401 H 0.39304 0.304 0.70325 0.0
H1402 H 0.45748 0.29724 0.5454 0.0
H1403 H 0.44581 0.30944 0.48219 0.0
H1404 H 0.44341 0.286 0.48579 0.0
H1405 H 0.42457 0.33301 0.74131 0.0
H1406 H 0.40114 0.3328 0.73259 0.0
H1407 H 0.41453 0.34484 0.67285 0.0
C1408 C 0.95461 0.14356 0.94643 0.0
C1409 C 0.96955 0.14444 0.90508 0.0
C1410 C 0.94087 0.15552 0.9379 0.0
C1411 C 0.94248 0.16903 0.88876 0.0
C1412 C 0.95762 0.16999 0.84717 0.0
C1413 C 0.97084 0.15746 0.855 0.0
C1414 C 0.92464 0.15371 0.98135 0.0
C1415 C 0.96007 0.18452 0.79564 0.0
C1416 C 0.90378 0.19423 0.81853 0.0
C1417 C 0.90421 0.20938 0.85872 0.0
C1418 C 0.91559 0.18053 0.83024 0.0
C1419 C 0.92856 0.18242 0.88143 0.0
C1420 C 0.92886 0.19763 0.92282 0.0
C1421 C 0.91644 0.21082 0.91173 0.0
C1422 C 0.91445 0.16424 0.78682 0.0
C1423 C 0.94282 0.20036 0.97644 0.0
H1424 H 0.95361 0.13339 0.98489 0.0
H1425 H 0.9825 0.15821 0.82356 0.0
H1426 H 0.92318 0.16532 0.01486 0.0
H1427 H 0.91288 0.15311 0.94817 0.0
H1428 H 0.92499 0.14182 0.01404 0.0
H1429 H 0.97283 0.18365 0.76871 0.0
H1430 H 0.94947 0.18411 0.75692 0.0
H1431 H 0.95926 0.19738 0.82171 0.0
H1432 H 0.89421 0.19314 0.77777 0.0
H1433 H 0.91684 0.22266 0.94226 0.0
H1434 H 0.9146 0.15241 0.81975 0.0
H1435 H 0.92598 0.16345 0.75253 0.0
H1436 H 0.90245 0.16401 0.7548 0.0
H1437 H 0.94292 0.18931 0.01315 0.0
H1438 H 0.94094 0.21272 0.00544 0.0
H1439 H 0.95586 0.20073 0.95155 0.0
C1440 C 0.10308 0.28843 0.8263 0.0
C1441 C 0.11768 0.28722 0.8694 0.0
C1442 C 0.09082 0.30186 0.8344 0.0
C1443 C 0.09351 0.31468 0.88557 0.0
C1444 C 0.10852 0.31386 0.92786 0.0
C1445 C 0.12032 0.29995 0.91997 0.0
C1446 C 0.07474 0.30204 0.78946 0.0
C1447 C 0.11204 0.3276 0.98163 0.0
C1448 C 0.06676 0.356 0.86196 0.0
C1449 C 0.05309 0.35322 0.9084 0.0
C1450 C 0.0805 0.34394 0.85628 0.0
C1451 C 0.08017 0.3285 0.89628 0.0
C1452 C 0.06644 0.32573 0.94367 0.0
C1453 C 0.0532 0.33829 0.94994 0.0
C1454 C 0.09521 0.34756 0.80673 0.0
C1455 C 0.06536 0.3092 0.98576 0.0
H1456 H 0.10094 0.27852 0.78749 0.0
H1457 H 0.1317 0.2991 0.95294 0.0
H1458 H 0.06282 0.30118 0.8217 0.0
H1459 H 0.07399 0.3145 0.76063 0.0
H1460 H 0.0746 0.29105 0.75228 0.0
H1461 H 0.12492 0.32575 0.00691 0.0
H1462 H 0.11167 0.34082 0.95822 0.0
H1463 H 0.10169 0.32718 0.02136 0.0
H1464 H 0.06673 0.36765 0.83032 0.0
H1465 H 0.04255 0.33609 0.98552 0.0
H1466 H 0.09486 0.33792 0.76434 0.0
H1467 H 0.10802 0.3461 0.83282 0.0
H1468 H 0.0944 0.3609 0.78448 0.0
H1469 H 0.06421 0.29772 0.95128 0.0
H1470 H 0.05401 0.30923 0.02121 0.0
H1471 H 0.07747 0.30746 0.0162 0.0
C1472 C 0.97288 0.83723 0.05197 0.0
C1473 C 0.97343 0.85253 0.09135 0.0
C1474 C 0.95954 0.82491 0.06113 0.0
C1475 C 0.94611 0.82829 0.1092 0.0
C1476 C 0.94631 0.84399 0.14763 0.0
C1477 C 0.96018 0.85581 0.13912 0.0
C1478 C 0.9601 0.80807 0.02075 0.0
C1479 C 0.93191 0.84825 0.19778 0.0
C1480 C 0.90525 0.80075 0.08635 0.0
C1481 C 0.90757 0.78803 0.13715 0.0
C1482 C 0.91733 0.81442 0.0785 0.0
C1483 C 0.93232 0.81497 0.12103 0.0
C1484 C 0.93465 0.80219 0.17263 0.0
C1485 C 0.92209 0.78902 0.18073 0.0
C1486 C 0.91419 0.82812 0.02426 0.0
C1487 C 0.9507 0.80205 0.2177 0.0
H1488 H 0.98323 0.83464 0.01541 0.0
H1489 H 0.96056 0.86774 0.16912 0.0
H1490 H 0.96067 0.79677 0.05631 0.0
H1491 H 0.94801 0.80665 0.98987 0.0
H1492 H 0.97154 0.80743 0.98582 0.0
H1493 H 0.93334 0.86156 0.21989 0.0
H1494 H 0.919 0.84733 0.17214 0.0
H1495 H 0.93194 0.83862 0.24021 0.0
H1496 H 0.89393 0.80007 0.05306 0.0
H1497 H 0.92396 0.77911 0.21976 0.0
H1498 H 0.92438 0.82716 0.98406 0.0
H1499 H 0.91515 0.84139 0.04695 0.0
H1500 H 0.90117 0.8267 -0.00034 0.0
H1501 H 0.96258 0.80051 0.18562 0.0
H1502 H 0.9504 0.79131 0.25597 0.0
H1503 H 0.95194 0.81467 0.24525 0.0
C1504 C 0.45887 0.64358 0.45623 0.0
C1505 C 0.47331 0.6437 0.41218 0.0
C1506 C 0.44518 0.65559 0.44764 0.0
C1507 C 0.4464 0.66842 0.3956 0.0
C1508 C 0.46103 0.66858 0.35112 0.0
C1509 C 0.47417 0.65597 0.35917 0.0
C1510 C 0.42948 0.6546 0.49432 0.0
C1511 C 0.46306 0.6824 0.29644 0.0
C1512 C 0.40676 0.69315 0.33078 0.0
C1513 C 0.40771 0.70856 0.36928 0.0
C1514 C 0.41886 0.67962 0.34089 0.0
C1515 C 0.43261 0.68195 0.38853 0.0
C1516 C 0.43357 0.69752 0.42765 0.0
C1517 C 0.42086 0.71053 0.41846 0.0
C1518 C 0.41704 0.66294 0.30015 0.0
C1519 C 0.44837 0.70072 0.4773 0.0
H1520 H 0.45822 0.63398 0.49699 0.0
H1521 H 0.48547 0.65612 0.32566 0.0
H1522 H 0.4287 0.66657 0.52621 0.0
H1523 H 0.4173 0.65395 0.46352 0.0
H1524 H 0.42998 0.64306 0.52878 0.0
H1525 H 0.47539 0.68087 0.267 0.0
H1526 H 0.45191 0.68182 0.26021 0.0
H1527 H 0.46293 0.69558 0.32022 0.0
H1528 H 0.39647 0.69166 0.29303 0.0
H1529 H 0.42162 0.72257 0.44763 0.0
H1530 H 0.41727 0.65147 0.33493 0.0
H1531 H 0.42824 0.66157 0.26451 0.0
H1532 H 0.40475 0.66261 0.26986 0.0
H1533 H 0.44871 0.69027 0.5166 0.0
H1534 H 0.44721 0.71355 0.50357 0.0
H1535 H 0.46103 0.70031 0.44963 0.0
C1536 C 0.61766 0.19318 0.69166 0.0
C1537 C 0.6161 0.20746 0.64718 0.0
C1538 C 0.6059 0.17913 0.68807 0.0
C1539 C 0.5919 0.17979 0.64077 0.0
C1540 C 0.59026 0.19426 0.59593 0.0
C1541 C 0.60261 0.20779 0.59883 0.0
C1542 C 0.60844 0.16362 0.73485 0.0
C1543 C 0.5752 0.19569 0.5462 0.0
C1544 C 0.56689 0.13962 0.58351 0.0
C1545 C 0.55211 0.14038 0.6257 0.0
C1546 C 0.58043 0.15185 0.59039 0.0
C1547 C 0.57874 0.16554 0.63868 0.0
C1548 C 0.56394 0.16617 0.68225 0.0
C1549 C 0.55092 0.15335 0.67602 0.0
C1550 C 0.5963 0.15037 0.54481 0.0
C1551 C 0.56142 0.18086 0.73293 0.0
H1552 H 0.6282 0.19293 0.7288 0.0
H1553 H 0.60134 0.21896 0.565 0.0
H1554 H 0.59721 0.16248 0.77043 0.0
H1555 H 0.60893 0.15138 0.70436 0.0
H1556 H 0.62063 0.16464 0.76553 0.0
H1557 H 0.57558 0.20804 0.51625 0.0
H1558 H 0.57541 0.18453 0.50999 0.0
H1559 H 0.56262 0.19509 0.57439 0.0
H1560 H 0.56779 0.12949 0.54479 0.0
H1561 H 0.53935 0.154 0.70803 0.0
H1562 H 0.60843 0.15127 0.57579 0.0
H1563 H 0.59648 0.16137 0.5078 0.0
H1564 H 0.59649 0.13791 0.51564 0.0
H1565 H 0.57284 0.18176 0.76774 0.0
H1566 H 0.54943 0.17917 0.76427 0.0
H1567 H 0.5605 0.19349 0.70512 0.0
C1568 C 0.96332 0.34406 0.94444 0.0
C1569 C 0.96697 0.35848 0.90264 0.0
C1570 C 0.94989 0.33236 0.92742 0.0
C1571 C 0.93959 0.33548 0.86834 0.0
C1572 C 0.94257 0.35059 0.82829 0.0
C1573 C 0.95642 0.36178 0.84535 0.0
C1574 C 0.94728 0.31622 0.97079 0.0
C1575 C 0.93149 0.35466 0.76635 0.0
C1576 C 0.91901 0.29534 0.78759 0.0
C1577 C 0.90264 0.29512 0.81951 0.0
C1578 C 0.93105 0.30873 0.80155 0.0
C1579 C 0.92632 0.32241 0.84689 0.0
C1580 C 0.90932 0.32285 0.87537 0.0
C1581 C 0.89777 0.30903 0.86219 0.0
C1582 C 0.94916 0.30765 0.77113 0.0
C1583 C 0.90359 0.33751 0.92202 0.0
H1584 H 0.97157 0.34142 0.98839 0.0
H1585 H 0.95918 0.37302 0.81324 0.0
H1586 H 0.9336 0.31554 0.98935 0.0
H1587 H 0.94965 0.30436 0.93939 0.0
H1588 H 0.95618 0.3159 0.01574 0.0
H1589 H 0.93431 0.36784 0.74511 0.0
H1590 H 0.93394 0.34481 0.72579 0.0
H1591 H 0.9174 0.35393 0.77967 0.0
H1592 H 0.92283 0.2845 0.75511 0.0
H1593 H 0.88503 0.30889 0.88652 0.0
H1594 H 0.9589 0.3059 0.81272 0.0
H1595 H 0.95245 0.31999 0.74424 0.0
H1596 H 0.9505 0.29663 0.73448 0.0
H1597 H 0.91067 0.33657 0.97145 0.0
H1598 H 0.88933 0.33709 0.93258 0.0
H1599 H 0.90686 0.35037 0.89907 0.0
C1600 C 0.46501 0.15286 0.5524 0.0
C1601 C 0.4662 0.13776 0.59269 0.0
C1602 C 0.45142 0.16491 0.5625 0.0
C1603 C 0.43852 0.16149 0.61278 0.0
C1604 C 0.43907 0.14572 0.65056 0.0
C1605 C 0.45306 0.13414 0.64071 0.0
C1606 C 0.45142 0.18173 0.52196 0.0
C1607 C 0.42526 0.14136 0.70306 0.0
C1608 C 0.4165 0.20111 0.69139 0.0
C1609 C 0.40149 0.2026 0.65081 0.0
C1610 C 0.42852 0.18755 0.68037 0.0
C1611 C 0.42516 0.17496 0.62881 0.0
C1612 C 0.40949 0.17585 0.59044 0.0
C1613 C 0.39795 0.18982 0.60126 0.0
C1614 C 0.44523 0.18721 0.7216 0.0
C1615 C 0.40519 0.16235 0.53659 0.0
H1616 H 0.47522 0.15573 0.51561 0.0
H1617 H 0.45389 0.12237 0.6715 0.0
H1618 H 0.43869 0.18351 0.49568 0.0
H1619 H 0.45316 0.19298 0.55721 0.0
H1620 H 0.46199 0.18208 0.48303 0.0
H1621 H 0.42648 0.12774 0.72223 0.0
H1622 H 0.42638 0.15041 0.74722 0.0
H1623 H 0.41201 0.14312 0.68093 0.0
H1624 H 0.41932 0.21106 0.72937 0.0
H1625 H 0.38624 0.19088 0.57024 0.0
H1626 H 0.45661 0.18884 0.68692 0.0
H1627 H 0.44673 0.1744 0.74754 0.0
H1628 H 0.44565 0.19769 0.76092 0.0
H1629 H 0.41448 0.16352 0.49324 0.0
H1630 H 0.39169 0.16388 0.51645 0.0
H1631 H 0.40663 0.14898 0.55792 0.0
C1632 C 0.62688 0.68995 0.39719 0.0
C1633 C 0.62268 0.70131 0.34334 0.0
C1634 C 0.61574 0.6761 0.41483 0.0
C1635 C 0.59979 0.67398 0.37913 0.0
C1636 C 0.59577 0.6851 0.32324 0.0
C1637 C 0.60743 0.69849 0.30533 0.0
C1638 C 0.62077 0.66412 0.47305 0.0
C1639 C 0.57873 0.68345 0.28471 0.0
C1640 C 0.57194 0.63308 0.38674 0.0
C1641 C 0.55918 0.63794 0.43461 0.0
C1642 C 0.5859 0.64426 0.37113 0.0
C1643 C 0.58675 0.6609 0.40258 0.0
C1644 C 0.57428 0.66557 0.45304 0.0
C1645 C 0.56076 0.65388 0.46921 0.0
C1646 C 0.5993 0.63857 0.31891 0.0
C1647 C 0.57456 0.68334 0.48679 0.0
H1648 H 0.63877 0.69206 0.42624 0.0
H1649 H 0.60412 0.70739 0.26409 0.0
H1650 H 0.61198 0.66641 0.5173 0.0
H1651 H 0.61921 0.65025 0.45756 0.0
H1652 H 0.63447 0.66624 0.49004 0.0
H1653 H 0.57779 0.69286 0.24151 0.0
H1654 H 0.57722 0.67002 0.2642 0.0
H1655 H 0.56763 0.68583 0.32013 0.0
H1656 H 0.57077 0.62066 0.36032 0.0
H1657 H 0.5508 0.6577 0.50575 0.0
H1658 H 0.61271 0.64119 0.33792 0.0
H1659 H 0.59754 0.64618 0.27107 0.0
H1660 H 0.59815 0.62444 0.3064 0.0
H1661 H 0.58753 0.68585 0.51018 0.0
H1662 H 0.56439 0.68463 0.52706 0.0
H1663 H 0.57235 0.69362 0.44763 0.0
C1664 C 0.07133 0.86218 0.135 0.0
C1665 C 0.0596 0.85823 0.08206 0.0
C1666 C 0.08542 0.85107 0.14982 0.0
C1667 C 0.08741 0.83539 0.11221 0.0
C1668 C 0.07593 0.83164 0.0572 0.0
C1669 C 0.06228 0.84328 0.04212 0.0
C1670 C 0.09778 0.85581 0.20717 0.0
C1671 C 0.07745 0.81489 0.01667 0.0
C1672 C 0.12844 0.80768 0.11205 0.0
C1673 C 0.12394 0.79451 0.15876 0.0
C1674 C 0.11713 0.82175 0.09951 0.0
C1675 C 0.10073 0.82229 0.13289 0.0
C1676 C 0.09647 0.80942 0.18235 0.0
C1677 C 0.10828 0.7958 0.19545 0.0
C1678 C 0.1224 0.83557 0.04833 0.0
C1679 C 0.07896 0.80938 0.21814 0.0
H1680 H 0.06932 0.87384 0.16559 0.0
H1681 H 0.05313 0.84015 0.00155 0.0
H1682 H 0.09581 0.84677 0.2509 0.0
H1683 H 0.11155 0.85437 0.19015 0.0
H1684 H 0.09574 0.86941 0.22549 0.0
H1685 H 0.06775 0.81418 0.9744 0.0
H1686 H 0.09074 0.81366 0.99458 0.0
H1687 H 0.07542 0.80353 0.0511 0.0
H1688 H 0.14065 0.80675 0.08408 0.0
H1689 H 0.10474 0.78554 0.23118 0.0
H1690 H 0.11978 0.84882 0.06902 0.0
H1691 H 0.11454 0.83408 0.00098 0.0
H1692 H 0.13646 0.83463 0.03446 0.0
H1693 H 0.07657 0.82218 0.24312 0.0
H1694 H 0.07802 0.79894 0.25749 0.0
H1695 H 0.0684 0.80737 0.17996 0.0
C1696 C 0.89771 0.69025 0.09252 0.0
C1697 C 0.90196 0.70211 0.14466 0.0
C1698 C 0.90876 0.67615 0.07719 0.0
C1699 C 0.92468 0.67428 0.11334 0.0
C1700 C 0.92878 0.68597 0.16734 0.0
C1701 C 0.9172 0.6996 0.18307 0.0
C1702 C 0.90365 0.66357 0.0211 0.0
C1703 C 0.9458 0.68462 0.2062 0.0
C1704 C 0.9524 0.63328 0.11528 0.0
C1705 C 0.96532 0.63749 0.06717 0.0
C1706 C 0.93834 0.64462 0.12753 0.0
C1707 C 0.9376 0.6608 0.09254 0.0
C1708 C 0.95021 0.66475 0.04168 0.0
C1709 C 0.9638 0.65288 0.02882 0.0
C1710 C 0.92478 0.63965 0.18021 0.0
C1711 C 0.95007 0.68203 0.00425 0.0
H1712 H 0.88583 0.69213 0.06318 0.0
H1713 H 0.92054 0.70887 0.22297 0.0
H1714 H 0.91248 0.66524 0.97658 0.0
H1715 H 0.90505 0.64987 0.03905 0.0
H1716 H 0.88998 0.66563 0.0036 0.0
H1717 H 0.94689 0.6946 0.24728 0.0
H1718 H 0.9471 0.67148 0.22962 0.0
H1719 H 0.95694 0.68631 0.17036 0.0
H1720 H 0.95354 0.62129 0.14463 0.0
H1721 H 0.97389 0.65619 0.99206 0.0
H1722 H 0.91143 0.64224 0.16045 0.0
H1723 H 0.92657 0.64773 0.22686 0.0
H1724 H 0.92573 0.62566 0.19499 0.0
H1725 H 0.93711 0.68436 0.98051 0.0
H1726 H 0.96022 0.68267 0.96367 0.0
H1727 H 0.95242 0.6928 0.0412 0.0
C1728 C 0.12411 0.19061 0.92187 0.0
C1729 C 0.12093 0.20166 0.86593 0.0
C1730 C 0.11254 0.177 0.93813 0.0
C1731 C 0.0972 0.17477 0.89864 0.0
C1732 C 0.09413 0.18565 0.84118 0.0
C1733 C 0.10618 0.19882 0.82493 0.0
C1734 C 0.11654 0.16527 0.9983 0.0
C1735 C 0.07775 0.18387 0.7985 0.0
C1736 C 0.06958 0.13376 0.89591 0.0
C1737 C 0.05572 0.13852 0.93894 0.0
C1738 C 0.08387 0.14494 0.88616 0.0
C1739 C 0.08394 0.16151 0.91835 0.0
C1740 C 0.07035 0.16603 0.96443 0.0
C1741 C 0.05649 0.15431 0.97499 0.0
C1742 C 0.09842 0.1394 0.83863 0.0
C1743 C 0.06979 0.18372 0.99868 0.0
H1744 H 0.13559 0.19272 0.95335 0.0
H1745 H 0.10362 0.20745 0.78205 0.0
H1746 H 0.10673 0.16738 0.03927 0.0
H1747 H 0.11567 0.15134 0.98274 0.0
H1748 H 0.12975 0.16775 0.01986 0.0
H1749 H 0.07735 0.19339 0.75556 0.0
H1750 H 0.07682 0.17048 0.77705 0.0
H1751 H 0.06606 0.18595 0.83118 0.0
H1752 H 0.06899 0.12145 0.86838 0.0
H1753 H 0.04567 0.15803 0.00778 0.0
H1754 H 0.11135 0.14222 0.86187 0.0
H1755 H 0.09756 0.14693 0.79023 0.0
H1756 H 0.09773 0.12525 0.82605 0.0
H1757 H 0.08234 0.18647 0.02493 0.0
H1758 H 0.05902 0.18471 0.03664 0.0
H1759 H 0.06791 0.19402 0.95932 0.0
C1760 C 0.62534 0.30734 0.61795 0.0
C1761 C 0.62102 0.29425 0.66525 0.0
C1762 C 0.61412 0.32154 0.60655 0.0
C1763 C 0.59796 0.32228 0.64158 0.0
C1764 C 0.59386 0.30943 0.69139 0.0
C1765 C 0.60561 0.29568 0.70342 0.0
C1766 C 0.61925 0.33533 0.55501 0.0
C1767 C 0.5766 0.3096 0.7289 0.0
C1768 C 0.56932 0.36268 0.64801 0.0
C1769 C 0.55713 0.35904 0.59633 0.0
C1770 C 0.58332 0.3513 0.66089 0.0
C1771 C 0.58474 0.33566 0.62267 0.0
C1772 C 0.57281 0.33225 0.56874 0.0
C1773 C 0.55928 0.34416 0.55552 0.0
C1774 C 0.59616 0.3557 0.717 0.0
C1775 C 0.57373 0.31555 0.5276 0.0
H1776 H 0.63734 0.30626 0.58873 0.0
H1777 H 0.60222 0.28545 0.73951 0.0
H1778 H 0.61098 0.33408 0.50863 0.0
H1779 H 0.61705 0.3486 0.57632 0.0
H1780 H 0.63317 0.33416 0.53942 0.0
H1781 H 0.57572 0.29906 0.7679 0.0
H1782 H 0.5746 0.32236 0.75464 0.0
H1783 H 0.56575 0.30789 0.69171 0.0
H1784 H 0.5677 0.37427 0.67932 0.0
H1785 H 0.54975 0.34128 0.51598 0.0
H1786 H 0.60977 0.35396 0.69859 0.0
H1787 H 0.59427 0.34667 0.76082 0.0
H1788 H 0.59456 0.36933 0.73568 0.0
H1789 H 0.58686 0.31408 0.50424 0.0
H1790 H 0.56377 0.31513 0.48624 0.0
H1791 H 0.57167 0.30417 0.56191 0.0
C1792 C 0.45387 0.86167 0.34659 0.0
C1793 C 0.46548 0.85761 0.39983 0.0
C1794 C 0.4398 0.8506 0.33096 0.0
C1795 C 0.43767 0.83488 0.36819 0.0
C1796 C 0.44906 0.83101 0.4234 0.0
C1797 C 0.4627 0.84257 0.43918 0.0
C1798 C 0.42756 0.85546 0.27338 0.0
C1799 C 0.44738 0.81422 0.46362 0.0
C1800 C 0.39649 0.80745 0.36932 0.0
C1801 C 0.40093 0.79412 0.32323 0.0
C1802 C 0.40784 0.82153 0.38102 0.0
C1803 C 0.42421 0.82193 0.34742 0.0
C1804 C 0.42837 0.80895 0.29826 0.0
C1805 C 0.41652 0.7953 0.286 0.0
C1806 C 0.40268 0.83546 0.43193 0.0
C1807 C 0.44583 0.80877 0.26218 0.0
H1808 H 0.45593 0.87339 0.31648 0.0
H1809 H 0.47175 0.83936 0.48 0.0
H1810 H 0.42941 0.84635 0.22984 0.0
H1811 H 0.41376 0.85426 0.2903 0.0
H1812 H 0.42981 0.86901 0.25483 0.0
H1813 H 0.4571 0.81332 0.50572 0.0
H1814 H 0.43409 0.81313 0.48591 0.0
H1815 H 0.44922 0.80287 0.42896 0.0
H1816 H 0.38435 0.8066 0.39778 0.0
H1817 H 0.42001 0.78493 0.25074 0.0
H1818 H 0.40553 0.84867 0.41123 0.0
H1819 H 0.41044 0.83387 0.4795 0.0
H1820 H 0.38859 0.83473 0.44542 0.0
H1821 H 0.44839 0.8216 0.2377 0.0
H1822 H 0.44658 0.79842 0.22241 0.0
H1823 H 0.45639 0.8065 0.30015 0.0
loop_
_geom_bond_atom_site_label_1
_geom_bond_atom_site_label_2
_geom_bond_distance
_geom_bond_site_symmetry_2
_ccdc_geom_bond_type
Co0 O3 1.970 1_455 S
Co0 N17 1.989 . S
Co0 O25 1.967 . S
Co0 O32 1.920 . S
Co1 O4 1.966 1_556 S
Co1 N10 2.022 . S
Co1 N18 1.993 1_556 S
Co1 O26 1.941 1_556 S
C2 O3 1.258 . S
C2 O4 1.263 1_655 S
O3 Co0 1.970 1_655 S
O3 C2 1.258 . S
O4 Co1 1.966 1_554 S
O4 C2 1.263 1_455 S
C5 O6 1.235 1_455 S
C5 O32 1.289 . S
O6 C5 1.235 1_655 S
C7 C9 1.400 . S
C7 N10 1.351 . S
C7 C12 1.501 1_455 S
C8 C9 1.387 . S
C8 N11 1.341 . S
C9 C7 1.400 . S
C9 C8 1.387 . S
N10 Co1 2.022 . S
N10 C7 1.351 . S
N10 N11 1.365 . S
N11 C8 1.341 . S
N11 N10 1.365 . S
N11 H31 0.862 . S
C12 C7 1.501 1_655 S
C12 H13 0.961 . S
C12 H14 0.961 . S
C12 H15 0.960 . S
H13 C12 0.961 . S
H14 C12 0.961 . S
H15 C12 0.960 . S
C16 N17 1.342 . S
C16 C20 1.401 . S
C16 C21 1.499 . S
N17 Co0 1.989 . S
N17 C16 1.342 . S
N17 N18 1.388 . S
N18 Co1 1.993 1_554 S
N18 N17 1.388 . S
N18 C19 1.346 1_554 S
C19 N18 1.346 1_556 S
C19 C20 1.396 1_556 S
C19 C29 1.510 . S
C20 C16 1.401 . S
C20 C19 1.396 1_554 S
C21 C16 1.499 . S
C21 H22 0.959 . S
C21 H23 0.960 . S
C21 H24 0.961 . S
H22 C21 0.959 . S
H23 C21 0.960 . S
H24 C21 0.961 . S
O25 Co0 1.967 . S
O25 C33 1.258 . S
O26 Co1 1.941 1_554 S
O26 C33 1.266 . S
H27 C29 0.959 . S
H28 C29 0.961 . S
C29 C19 1.510 . S
C29 H27 0.959 . S
C29 H28 0.961 . S
C29 H30 0.960 . S
H30 C29 0.960 . S
H31 N11 0.862 . S
O32 Co0 1.920 . S
O32 C5 1.289 . S
C33 O25 1.258 . S
C33 O26 1.266 . S
Co34 O37 1.970 . S
Co34 N51 1.989 . S
Co34 O59 1.967 . S
Co34 O66 1.920 . S
Co35 O38 1.966 . S
Co35 N44 2.022 . S
Co35 N52 1.993 . S
Co35 O60 1.941 . S
C36 O37 1.258 . S
C36 O38 1.263 . S
O37 Co34 1.970 . S
O37 C36 1.258 . S
O38 Co35 1.966 . S
O38 C36 1.263 . S
C39 O40 1.235 . S
C39 O66 1.289 . S
O40 C39 1.235 . S
C41 C43 1.400 . S
C41 N44 1.351 . S
C41 C46 1.501 . S
C42 C43 1.387 . S
C42 N45 1.341 . S
C43 C41 1.400 . S
C43 C42 1.387 . S
N44 Co35 2.022 . S
N44 C41 1.351 . S
N44 N45 1.365 . S
N45 C42 1.341 . S
N45 N44 1.365 . S
N45 H65 0.862 . S
C46 C41 1.501 . S
C46 H47 0.961 . S
C46 H48 0.961 . S
C46 H49 0.960 . S
H47 C46 0.961 . S
H48 C46 0.961 . S
H49 C46 0.960 . S
C50 N51 1.342 . S
C50 C54 1.401 . S
C50 C55 1.499 . S
N51 Co34 1.989 . S
N51 C50 1.342 . S
N51 N52 1.388 . S
N52 Co35 1.993 . S
N52 N51 1.388 . S
N52 C53 1.346 . S
C53 N52 1.346 . S
C53 C54 1.396 . S
C53 C63 1.510 . S
C54 C50 1.401 . S
C54 C53 1.396 . S
C55 C50 1.499 . S
C55 H56 0.959 . S
C55 H57 0.960 . S
C55 H58 0.961 . S
H56 C55 0.959 . S
H57 C55 0.960 . S
H58 C55 0.961 . S
O59 Co34 1.967 . S
O59 C67 1.258 . S
O60 Co35 1.941 . S
O60 C67 1.266 . S
H61 C63 0.959 . S
H62 C63 0.961 . S
C63 C53 1.510 . S
C63 H61 0.959 . S
C63 H62 0.961 . S
C63 H64 0.960 . S
H64 C63 0.960 . S
H65 N45 0.862 . S
O66 Co34 1.920 . S
O66 C39 1.289 . S
C67 O59 1.258 . S
C67 O60 1.266 . S
Co68 O71 1.970 . S
Co68 N85 1.989 . S
Co68 O93 1.967 . S
Co68 O100 1.920 . S
Co69 O72 1.966 . S
Co69 N78 2.022 . S
Co69 N86 1.993 . S
Co69 O94 1.941 . S
C70 O71 1.258 . S
C70 O72 1.263 . S
O71 Co68 1.970 . S
O71 C70 1.258 . S
O72 Co69 1.966 . S
O72 C70 1.263 . S
C73 O74 1.235 . S
C73 O100 1.289 . S
O74 C73 1.235 . S
C75 C77 1.400 . S
C75 N78 1.351 . S
C75 C80 1.501 . S
C76 C77 1.387 . S
C76 N79 1.341 . S
C77 C75 1.400 . S
C77 C76 1.387 . S
N78 Co69 2.022 . S
N78 C75 1.351 . S
N78 N79 1.365 . S
N79 C76 1.341 . S
N79 N78 1.365 . S
N79 H99 0.862 . S
C80 C75 1.501 . S
C80 H81 0.961 . S
C80 H82 0.961 . S
C80 H83 0.960 . S
H81 C80 0.961 . S
H82 C80 0.961 . S
H83 C80 0.960 . S
C84 N85 1.342 . S
C84 C88 1.401 . S
C84 C89 1.499 . S
N85 Co68 1.989 . S
N85 C84 1.342 . S
N85 N86 1.388 . S
N86 Co69 1.993 . S
N86 N85 1.388 . S
N86 C87 1.346 . S
C87 N86 1.346 . S
C87 C88 1.396 . S
C87 C97 1.510 . S
C88 C84 1.401 . S
C88 C87 1.396 . S
C89 C84 1.499 . S
C89 H90 0.959 . S
C89 H91 0.960 . S
C89 H92 0.961 . S
H90 C89 0.959 . S
H91 C89 0.960 . S
H92 C89 0.961 . S
O93 Co68 1.967 . S
O93 C101 1.258 . S
O94 Co69 1.941 . S
O94 C101 1.266 . S
H95 C97 0.959 . S
H96 C97 0.961 . S
C97 C87 1.510 . S
C97 H95 0.959 . S
C97 H96 0.961 . S
C97 H98 0.960 . S
H98 C97 0.960 . S
H99 N79 0.862 . S
O100 Co68 1.920 . S
O100 C73 1.289 . S
C101 O93 1.258 . S
C101 O94 1.266 . S
Co102 O105 1.970 . S
Co102 N119 1.989 . S
Co102 O127 1.967 . S
Co102 O134 1.932 . S
Co103 O106 1.966 . S
Co103 N112 2.022 . S
Co103 N120 1.993 . S
Co103 O128 1.941 . S
C104 O105 1.258 . S
C104 O106 1.263 . S
O105 Co102 1.970 . S
O105 C104 1.258 . S
O106 Co103 1.966 . S
O106 C104 1.263 . S
C107 O108 1.235 . S
C107 O134 1.282 1_554 S
O108 C107 1.235 . S
C109 C111 1.400 . S
C109 N112 1.351 . S
C109 C114 1.501 . S
C110 C111 1.387 . S
C110 N113 1.341 . S
C111 C109 1.400 . S
C111 C110 1.387 . S
N112 Co103 2.022 . S
N112 C109 1.351 . S
N112 N113 1.365 . S
N113 C110 1.341 . S
N113 N112 1.365 . S
N113 H133 0.862 . S
C114 C109 1.501 . S
C114 H115 0.961 . S
C114 H116 0.961 . S
C114 H117 0.960 . S
H115 C114 0.961 . S
H116 C114 0.961 . S
H117 C114 0.960 . S
C118 N119 1.342 . S
C118 C122 1.401 . S
C118 C123 1.499 . S
N119 Co102 1.989 . S
N119 C118 1.342 . S
N119 N120 1.388 . S
N120 Co103 1.993 . S
N120 N119 1.388 . S
N120 C121 1.346 . S
C121 N120 1.346 . S
C121 C122 1.396 . S
C121 C131 1.510 . S
C122 C118 1.401 . S
C122 C121 1.396 . S
C123 C118 1.499 . S
C123 H124 0.959 . S
C123 H125 0.960 . S
C123 H126 0.961 . S
H124 C123 0.959 . S
H125 C123 0.960 . S
H126 C123 0.961 . S
O127 Co102 1.967 . S
O127 C135 1.258 . S
O128 Co103 1.941 . S
O128 C135 1.266 . S
H129 C131 0.959 . S
H130 C131 0.961 . S
C131 C121 1.510 . S
C131 H129 0.959 . S
C131 H130 0.961 . S
C131 H132 0.960 . S
H132 C131 0.960 . S
H133 N113 0.862 . S
O134 Co102 1.932 . S
O134 C107 1.282 1_556 S
C135 O127 1.258 . S
C135 O128 1.266 . S
Co136 O139 1.970 1_455 S
Co136 N153 1.989 . S
Co136 O161 1.967 . S
Co136 O168 1.920 . S
Co137 O140 1.966 1_554 S
Co137 N146 2.022 . S
Co137 N154 1.993 1_554 S
Co137 O162 1.941 1_554 S
C138 O139 1.258 . S
C138 O140 1.263 1_655 S
O139 Co136 1.970 1_655 S
O139 C138 1.258 . S
O140 Co137 1.966 1_556 S
O140 C138 1.263 1_455 S
C141 O142 1.235 1_455 S
C141 O168 1.289 . S
O142 C141 1.235 1_655 S
C143 C145 1.400 . S
C143 N146 1.351 . S
C143 C148 1.501 1_455 S
C144 C145 1.387 . S
C144 N147 1.341 . S
C145 C143 1.400 . S
C145 C144 1.387 . S
N146 Co137 2.022 . S
N146 C143 1.351 . S
N146 N147 1.365 . S
N147 C144 1.341 . S
N147 N146 1.365 . S
N147 H167 0.862 . S
C148 C143 1.501 1_655 S
C148 H149 0.961 . S
C148 H150 0.961 . S
C148 H151 0.960 . S
H149 C148 0.961 . S
H150 C148 0.961 . S
H151 C148 0.960 . S
C152 N153 1.342 . S
C152 C156 1.401 . S
C152 C157 1.499 . S
N153 Co136 1.989 . S
N153 C152 1.342 . S
N153 N154 1.388 . S
N154 Co137 1.993 1_556 S
N154 N153 1.388 . S
N154 C155 1.346 1_556 S
C155 N154 1.346 1_554 S
C155 C156 1.396 1_554 S
C155 C165 1.510 . S
C156 C152 1.401 . S
C156 C155 1.396 1_556 S
C157 C152 1.499 . S
C157 H158 0.959 . S
C157 H159 0.960 . S
C157 H160 0.961 . S
H158 C157 0.959 . S
H159 C157 0.960 . S
H160 C157 0.961 . S
O161 Co136 1.967 . S
O161 C169 1.258 . S
O162 Co137 1.941 1_556 S
O162 C169 1.266 . S
H163 C165 0.959 . S
H164 C165 0.961 . S
C165 C155 1.510 . S
C165 H163 0.959 . S
C165 H164 0.961 . S
C165 H166 0.960 . S
H166 C165 0.960 . S
H167 N147 0.862 . S
O168 Co136 1.920 . S
O168 C141 1.289 . S
C169 O161 1.258 . S
C169 O162 1.266 . S
Co170 O173 1.970 . S
Co170 N187 1.989 . S
Co170 O195 1.967 . S
Co170 O202 1.932 . S
Co171 O174 1.966 . S
Co171 N180 2.022 . S
Co171 N188 1.993 . S
Co171 O196 1.941 . S
C172 O173 1.258 . S
C172 O174 1.263 . S
O173 Co170 1.970 . S
O173 C172 1.258 . S
O174 Co171 1.966 . S
O174 C172 1.263 . S
C175 O176 1.235 . S
C175 O202 1.282 1_556 S
O176 C175 1.235 . S
C177 C179 1.400 . S
C177 N180 1.351 . S
C177 C182 1.501 . S
C178 C179 1.387 . S
C178 N181 1.341 . S
C179 C177 1.400 . S
C179 C178 1.387 . S
N180 Co171 2.022 . S
N180 C177 1.351 . S
N180 N181 1.365 . S
N181 C178 1.341 . S
N181 N180 1.365 . S
N181 H201 0.862 . S
C182 C177 1.501 . S
C182 H183 0.961 . S
C182 H184 0.961 . S
C182 H185 0.960 . S
H183 C182 0.961 . S
H184 C182 0.961 . S
H185 C182 0.960 . S
C186 N187 1.342 . S
C186 C190 1.401 . S
C186 C191 1.499 . S
N187 Co170 1.989 . S
N187 C186 1.342 . S
N187 N188 1.388 . S
N188 Co171 1.993 . S
N188 N187 1.388 . S
N188 C189 1.346 . S
C189 N188 1.346 . S
C189 C190 1.396 . S
C189 C199 1.510 . S
C190 C186 1.401 . S
C190 C189 1.396 . S
C191 C186 1.499 . S
C191 H192 0.959 . S
C191 H193 0.960 . S
C191 H194 0.961 . S
H192 C191 0.959 . S
H193 C191 0.960 . S
H194 C191 0.961 . S
O195 Co170 1.967 . S
O195 C203 1.258 . S
O196 Co171 1.941 . S
O196 C203 1.266 . S
H197 C199 0.959 . S
H198 C199 0.961 . S
C199 C189 1.510 . S
C199 H197 0.959 . S
C199 H198 0.961 . S
C199 H200 0.960 . S
H200 C199 0.960 . S
H201 N181 0.862 . S
O202 Co170 1.932 . S
O202 C175 1.282 1_554 S
C203 O195 1.258 . S
C203 O196 1.266 . S
Co204 O207 1.970 . S
Co204 N221 1.989 . S
Co204 O229 1.967 . S
Co204 O236 1.920 . S
Co205 O208 1.966 . S
Co205 N214 2.022 . S
Co205 N222 1.993 . S
Co205 O230 1.941 . S
C206 O207 1.258 . S
C206 O208 1.263 . S
O207 Co204 1.970 . S
O207 C206 1.258 . S
O208 Co205 1.966 . S
O208 C206 1.263 . S
C209 O210 1.235 . S
C209 O236 1.289 . S
O210 C209 1.235 . S
C211 C213 1.400 . S
C211 N214 1.351 . S
C211 C216 1.501 . S
C212 C213 1.387 . S
C212 N215 1.341 . S
C213 C211 1.400 . S
C213 C212 1.387 . S
N214 Co205 2.022 . S
N214 C211 1.351 . S
N214 N215 1.365 . S
N215 C212 1.341 . S
N215 N214 1.365 . S
N215 H235 0.862 . S
C216 C211 1.501 . S
C216 H217 0.961 . S
C216 H218 0.961 . S
C216 H219 0.960 . S
H217 C216 0.961 . S
H218 C216 0.961 . S
H219 C216 0.960 . S
C220 N221 1.342 . S
C220 C224 1.401 . S
C220 C225 1.499 . S
N221 Co204 1.989 . S
N221 C220 1.342 . S
N221 N222 1.388 . S
N222 Co205 1.993 . S
N222 N221 1.388 . S
N222 C223 1.346 . S
C223 N222 1.346 . S
C223 C224 1.396 . S
C223 C233 1.510 . S
C224 C220 1.401 . S
C224 C223 1.396 . S
C225 C220 1.499 . S
C225 H226 0.959 . S
C225 H227 0.960 . S
C225 H228 0.961 . S
H226 C225 0.959 . S
H227 C225 0.960 . S
H228 C225 0.961 . S
O229 Co204 1.967 . S
O229 C237 1.258 . S
O230 Co205 1.941 . S
O230 C237 1.266 . S
H231 C233 0.959 . S
H232 C233 0.961 . S
C233 C223 1.510 . S
C233 H231 0.959 . S
C233 H232 0.961 . S
C233 H234 0.960 . S
H234 C233 0.960 . S
H235 N215 0.862 . S
O236 Co204 1.920 . S
O236 C209 1.289 . S
C237 O229 1.258 . S
C237 O230 1.266 . S
Co238 O241 1.970 . S
Co238 N255 1.989 . S
Co238 O263 1.967 . S
Co238 O270 1.920 . S
Co239 O242 1.966 . S
Co239 N248 2.022 . S
Co239 N256 1.993 . S
Co239 O264 1.941 . S
C240 O241 1.258 . S
C240 O242 1.263 . S
O241 Co238 1.970 . S
O241 C240 1.258 . S
O242 Co239 1.966 . S
O242 C240 1.263 . S
C243 O244 1.235 . S
C243 O270 1.289 . S
O244 C243 1.235 . S
C245 C247 1.400 . S
C245 N248 1.351 . S
C245 C250 1.501 . S
C246 C247 1.387 . S
C246 N249 1.341 . S
C247 C245 1.400 . S
C247 C246 1.387 . S
N248 Co239 2.022 . S
N248 C245 1.351 . S
N248 N249 1.365 . S
N249 C246 1.341 . S
N249 N248 1.365 . S
N249 H269 0.862 . S
C250 C245 1.501 . S
C250 H251 0.961 . S
C250 H252 0.961 . S
C250 H253 0.960 . S
H251 C250 0.961 . S
H252 C250 0.961 . S
H253 C250 0.960 . S
C254 N255 1.342 . S
C254 C258 1.401 . S
C254 C259 1.499 . S
N255 Co238 1.989 . S
N255 C254 1.342 . S
N255 N256 1.388 . S
N256 Co239 1.993 . S
N256 N255 1.388 . S
N256 C257 1.346 . S
C257 N256 1.346 . S
C257 C258 1.396 . S
C257 C267 1.510 . S
C258 C254 1.401 . S
C258 C257 1.396 . S
C259 C254 1.499 . S
C259 H260 0.959 . S
C259 H261 0.960 . S
C259 H262 0.961 . S
H260 C259 0.959 . S
H261 C259 0.960 . S
H262 C259 0.961 . S
O263 Co238 1.967 . S
O263 C271 1.258 . S
O264 Co239 1.941 . S
O264 C271 1.266 . S
H265 C267 0.959 . S
H266 C267 0.961 . S
C267 C257 1.510 . S
C267 H265 0.959 . S
C267 H266 0.961 . S
C267 H268 0.960 . S
H268 C267 0.960 . S
H269 N249 0.862 . S
O270 Co238 1.920 . S
O270 C243 1.289 . S
C271 O263 1.258 . S
C271 O264 1.266 . S
Co272 O275 1.970 . S
Co272 N289 1.989 . S
Co272 O297 1.967 . S
Co272 O304 1.920 . S
Co273 O276 1.966 . S
Co273 N282 2.022 . S
Co273 N290 1.993 . S
Co273 O298 1.941 . S
C274 O275 1.258 . S
C274 O276 1.263 . S
O275 Co272 1.970 . S
O275 C274 1.258 . S
O276 Co273 1.966 . S
O276 C274 1.263 . S
C277 O278 1.235 . S
C277 O304 1.289 . S
O278 C277 1.235 . S
C279 C281 1.400 . S
C279 N282 1.351 . S
C279 C284 1.501 . S
C280 C281 1.387 . S
C280 N283 1.341 . S
C281 C279 1.400 . S
C281 C280 1.387 . S
N282 Co273 2.022 . S
N282 C279 1.351 . S
N282 N283 1.365 . S
N283 C280 1.341 . S
N283 N282 1.365 . S
N283 H303 0.862 . S
C284 C279 1.501 . S
C284 H285 0.961 . S
C284 H286 0.961 . S
C284 H287 0.960 . S
H285 C284 0.961 . S
H286 C284 0.961 . S
H287 C284 0.960 . S
C288 N289 1.342 . S
C288 C292 1.401 . S
C288 C293 1.499 . S
N289 Co272 1.989 . S
N289 C288 1.342 . S
N289 N290 1.388 . S
N290 Co273 1.993 . S
N290 N289 1.388 . S
N290 C291 1.346 . S
C291 N290 1.346 . S
C291 C292 1.396 . S
C291 C301 1.510 . S
C292 C288 1.401 . S
C292 C291 1.396 . S
C293 C288 1.499 . S
C293 H294 0.959 . S
C293 H295 0.960 . S
C293 H296 0.961 . S
H294 C293 0.959 . S
H295 C293 0.960 . S
H296 C293 0.961 . S
O297 Co272 1.967 . S
O297 C305 1.258 . S
O298 Co273 1.941 . S
O298 C305 1.266 . S
H299 C301 0.959 . S
H300 C301 0.961 . S
C301 C291 1.510 . S
C301 H299 0.959 . S
C301 H300 0.961 . S
C301 H302 0.960 . S
H302 C301 0.960 . S
H303 N283 0.862 . S
O304 Co272 1.920 . S
O304 C277 1.289 . S
C305 O297 1.258 . S
C305 O298 1.266 . S
Co306 O309 1.970 . S
Co306 N323 1.989 . S
Co306 O331 1.967 . S
Co306 O338 1.932 . S
Co307 O310 1.966 . S
Co307 N316 2.022 . S
Co307 N324 1.993 . S
Co307 O332 1.941 . S
C308 O309 1.258 . S
C308 O310 1.263 . S
O309 Co306 1.970 . S
O309 C308 1.258 . S
O310 Co307 1.966 . S
O310 C308 1.263 . S
C311 O312 1.235 . S
C311 O338 1.282 1_556 S
O312 C311 1.235 . S
C313 C315 1.400 . S
C313 N316 1.351 . S
C313 C318 1.501 . S
C314 C315 1.387 . S
C314 N317 1.341 . S
C315 C313 1.400 . S
C315 C314 1.387 . S
N316 Co307 2.022 . S
N316 C313 1.351 . S
N316 N317 1.365 . S
N317 C314 1.341 . S
N317 N316 1.365 . S
N317 H337 0.862 . S
C318 C313 1.501 . S
C318 H319 0.961 . S
C318 H320 0.961 . S
C318 H321 0.960 . S
H319 C318 0.961 . S
H320 C318 0.961 . S
H321 C318 0.960 . S
C322 N323 1.342 . S
C322 C326 1.401 . S
C322 C327 1.499 . S
N323 Co306 1.989 . S
N323 C322 1.342 . S
N323 N324 1.388 . S
N324 Co307 1.993 . S
N324 N323 1.388 . S
N324 C325 1.346 . S
C325 N324 1.346 . S
C325 C326 1.396 . S
C325 C335 1.510 . S
C326 C322 1.401 . S
C326 C325 1.396 . S
C327 C322 1.499 . S
C327 H328 0.959 . S
C327 H329 0.960 . S
C327 H330 0.961 . S
H328 C327 0.959 . S
H329 C327 0.960 . S
H330 C327 0.961 . S
O331 Co306 1.967 . S
O331 C339 1.258 . S
O332 Co307 1.941 . S
O332 C339 1.266 . S
H333 C335 0.959 . S
H334 C335 0.961 . S
C335 C325 1.510 . S
C335 H333 0.959 . S
C335 H334 0.961 . S
C335 H336 0.960 . S
H336 C335 0.960 . S
H337 N317 0.862 . S
O338 Co306 1.932 . S
O338 C311 1.282 1_554 S
C339 O331 1.258 . S
C339 O332 1.266 . S
Co340 O343 1.970 . S
Co340 N357 1.989 . S
Co340 O365 1.967 . S
Co340 O372 1.932 . S
Co341 O344 1.966 . S
Co341 N350 2.022 . S
Co341 N358 1.993 . S
Co341 O366 1.941 . S
C342 O343 1.258 . S
C342 O344 1.263 . S
O343 Co340 1.970 . S
O343 C342 1.258 . S
O344 Co341 1.966 . S
O344 C342 1.263 . S
C345 O346 1.235 . S
C345 O372 1.282 1_554 S
O346 C345 1.235 . S
C347 C349 1.400 . S
C347 N350 1.351 . S
C347 C352 1.501 . S
C348 C349 1.387 . S
C348 N351 1.341 . S
C349 C347 1.400 . S
C349 C348 1.387 . S
N350 Co341 2.022 . S
N350 C347 1.351 . S
N350 N351 1.365 . S
N351 C348 1.341 . S
N351 N350 1.365 . S
N351 H371 0.862 . S
C352 C347 1.501 . S
C352 H353 0.961 . S
C352 H354 0.961 . S
C352 H355 0.960 . S
H353 C352 0.961 . S
H354 C352 0.961 . S
H355 C352 0.960 . S
C356 N357 1.342 . S
C356 C360 1.401 . S
C356 C361 1.499 . S
N357 Co340 1.989 . S
N357 C356 1.342 . S
N357 N358 1.388 . S
N358 Co341 1.993 . S
N358 N357 1.388 . S
N358 C359 1.346 . S
C359 N358 1.346 . S
C359 C360 1.396 . S
C359 C369 1.510 . S
C360 C356 1.401 . S
C360 C359 1.396 . S
C361 C356 1.499 . S
C361 H362 0.959 . S
C361 H363 0.960 . S
C361 H364 0.961 . S
H362 C361 0.959 . S
H363 C361 0.960 . S
H364 C361 0.961 . S
O365 Co340 1.967 . S
O365 C373 1.258 . S
O366 Co341 1.941 . S
O366 C373 1.266 . S
H367 C369 0.959 . S
H368 C369 0.961 . S
C369 C359 1.510 . S
C369 H367 0.959 . S
C369 H368 0.961 . S
C369 H370 0.960 . S
H370 C369 0.960 . S
H371 N351 0.862 . S
O372 Co340 1.932 . S
O372 C345 1.282 1_556 S
C373 O365 1.258 . S
C373 O366 1.266 . S
Co374 O377 1.970 . S
Co374 N391 1.989 . S
Co374 O399 1.967 . S
Co374 O406 1.920 . S
Co375 O378 1.966 . S
Co375 N384 2.022 . S
Co375 N392 1.993 . S
Co375 O400 1.941 . S
C376 O377 1.258 . S
C376 O378 1.263 . S
O377 Co374 1.970 . S
O377 C376 1.258 . S
O378 Co375 1.966 . S
O378 C376 1.263 . S
C379 O380 1.235 . S
C379 O406 1.289 . S
O380 C379 1.235 . S
C381 C383 1.400 . S
C381 N384 1.351 . S
C381 C386 1.501 . S
C382 C383 1.387 . S
C382 N385 1.341 . S
C383 C381 1.400 . S
C383 C382 1.387 . S
N384 Co375 2.022 . S
N384 C381 1.351 . S
N384 N385 1.365 . S
N385 C382 1.341 . S
N385 N384 1.365 . S
N385 H405 0.862 . S
C386 C381 1.501 . S
C386 H387 0.961 . S
C386 H388 0.961 . S
C386 H389 0.960 . S
H387 C386 0.961 . S
H388 C386 0.961 . S
H389 C386 0.960 . S
C390 N391 1.342 . S
C390 C394 1.401 . S
C390 C395 1.499 . S
N391 Co374 1.989 . S
N391 C390 1.342 . S
N391 N392 1.388 . S
N392 Co375 1.993 . S
N392 N391 1.388 . S
N392 C393 1.346 . S
C393 N392 1.346 . S
C393 C394 1.396 . S
C393 C403 1.510 . S
C394 C390 1.401 . S
C394 C393 1.396 . S
C395 C390 1.499 . S
C395 H396 0.959 . S
C395 H397 0.960 . S
C395 H398 0.961 . S
H396 C395 0.959 . S
H397 C395 0.960 . S
H398 C395 0.961 . S
O399 Co374 1.967 . S
O399 C407 1.258 . S
O400 Co375 1.941 . S
O400 C407 1.266 . S
H401 C403 0.959 . S
H402 C403 0.961 . S
C403 C393 1.510 . S
C403 H401 0.959 . S
C403 H402 0.961 . S
C403 H404 0.960 . S
H404 C403 0.960 . S
H405 N385 0.862 . S
O406 Co374 1.920 . S
O406 C379 1.289 . S
C407 O399 1.258 . S
C407 O400 1.266 . S
Co408 O411 1.970 . S
Co408 N425 1.989 . S
Co408 O433 1.967 . S
Co408 O440 1.920 . S
Co409 O412 1.966 . S
Co409 N418 2.022 . S
Co409 N426 1.993 . S
Co409 O434 1.941 . S
C410 O411 1.258 . S
C410 O412 1.263 . S
O411 Co408 1.970 . S
O411 C410 1.258 . S
O412 Co409 1.966 . S
O412 C410 1.263 . S
C413 O414 1.235 . S
C413 O440 1.289 . S
O414 C413 1.235 . S
C415 C417 1.400 . S
C415 N418 1.351 . S
C415 C420 1.501 . S
C416 C417 1.387 . S
C416 N419 1.341 . S
C417 C415 1.400 . S
C417 C416 1.387 . S
N418 Co409 2.022 . S
N418 C415 1.351 . S
N418 N419 1.365 . S
N419 C416 1.341 . S
N419 N418 1.365 . S
N419 H439 0.862 . S
C420 C415 1.501 . S
C420 H421 0.961 . S
C420 H422 0.961 . S
C420 H423 0.960 . S
H421 C420 0.961 . S
H422 C420 0.961 . S
H423 C420 0.960 . S
C424 N425 1.342 . S
C424 C428 1.401 . S
C424 C429 1.499 . S
N425 Co408 1.989 . S
N425 C424 1.342 . S
N425 N426 1.388 . S
N426 Co409 1.993 . S
N426 N425 1.388 . S
N426 C427 1.346 . S
C427 N426 1.346 . S
C427 C428 1.396 . S
C427 C437 1.510 . S
C428 C424 1.401 . S
C428 C427 1.396 . S
C429 C424 1.499 . S
C429 H430 0.959 . S
C429 H431 0.960 . S
C429 H432 0.961 . S
H430 C429 0.959 . S
H431 C429 0.960 . S
H432 C429 0.961 . S
O433 Co408 1.967 . S
O433 C441 1.258 . S
O434 Co409 1.941 . S
O434 C441 1.266 . S
H435 C437 0.959 . S
H436 C437 0.961 . S
C437 C427 1.510 . S
C437 H435 0.959 . S
C437 H436 0.961 . S
C437 H438 0.960 . S
H438 C437 0.960 . S
H439 N419 0.862 . S
O440 Co408 1.920 . S
O440 C413 1.289 . S
C441 O433 1.258 . S
C441 O434 1.266 . S
Co442 O445 1.970 . S
Co442 N459 1.989 . S
Co442 O467 1.967 1_455 S
Co442 O474 1.920 . S
Co443 O446 1.966 1_556 S
Co443 N452 2.022 . S
Co443 N460 1.993 1_556 S
Co443 O468 1.941 1_456 S
C444 O445 1.258 . S
C444 O446 1.263 . S
O445 Co442 1.970 . S
O445 C444 1.258 . S
O446 Co443 1.966 1_554 S
O446 C444 1.263 . S
C447 O448 1.235 . S
C447 O474 1.289 . S
O448 C447 1.235 . S
C449 C451 1.400 . S
C449 N452 1.351 . S
C449 C454 1.501 . S
C450 C451 1.372 1_655 S
C450 N453 1.345 . S
C451 C449 1.400 . S
C451 C450 1.372 1_455 S
N452 Co443 2.022 . S
N452 C449 1.351 . S
N452 N453 1.365 1_455 S
N453 C450 1.345 . S
N453 N452 1.365 1_655 S
N453 H473 0.862 . S
C454 C449 1.501 . S
C454 H455 0.961 . S
C454 H456 0.961 . S
C454 H457 0.960 . S
H455 C454 0.961 . S
H456 C454 0.961 . S
H457 C454 0.960 . S
C458 N459 1.342 . S
C458 C462 1.401 . S
C458 C463 1.499 . S
N459 Co442 1.989 . S
N459 C458 1.342 . S
N459 N460 1.388 . S
N460 Co443 1.993 1_554 S
N460 N459 1.388 . S
N460 C461 1.346 1_554 S
C461 N460 1.346 1_556 S
C461 C462 1.396 1_556 S
C461 C471 1.510 . S
C462 C458 1.401 . S
C462 C461 1.396 1_554 S
C463 C458 1.499 . S
C463 H464 0.959 . S
C463 H465 0.960 . S
C463 H466 0.961 1_455 S
H464 C463 0.959 . S
H465 C463 0.960 . S
H466 C463 0.961 1_655 S
O467 Co442 1.967 1_655 S
O467 C475 1.258 . S
O468 Co443 1.941 1_654 S
O468 C475 1.266 . S
H469 C471 0.959 1_655 S
H470 C471 0.961 . S
C471 C461 1.510 . S
C471 H469 0.959 1_455 S
C471 H470 0.961 . S
C471 H472 0.960 . S
H472 C471 0.960 . S
H473 N453 0.862 . S
O474 Co442 1.920 . S
O474 C447 1.289 . S
C475 O467 1.258 . S
C475 O468 1.266 . S
Co476 O479 1.970 . S
Co476 N493 1.989 . S
Co476 O501 1.967 . S
Co476 O508 1.920 . S
Co477 O480 1.966 . S
Co477 N486 2.022 . S
Co477 N494 1.993 . S
Co477 O502 1.941 . S
C478 O479 1.258 . S
C478 O480 1.263 . S
O479 Co476 1.970 . S
O479 C478 1.258 . S
O480 Co477 1.966 . S
O480 C478 1.263 . S
C481 O482 1.235 . S
C481 O508 1.289 . S
O482 C481 1.235 . S
C483 C485 1.400 . S
C483 N486 1.351 . S
C483 C488 1.501 . S
C484 C485 1.387 . S
C484 N487 1.341 . S
C485 C483 1.400 . S
C485 C484 1.387 . S
N486 Co477 2.022 . S
N486 C483 1.351 . S
N486 N487 1.365 . S
N487 C484 1.341 . S
N487 N486 1.365 . S
N487 H507 0.862 . S
C488 C483 1.501 . S
C488 H489 0.961 . S
C488 H490 0.961 . S
C488 H491 0.960 . S
H489 C488 0.961 . S
H490 C488 0.961 . S
H491 C488 0.960 . S
C492 N493 1.342 . S
C492 C496 1.401 . S
C492 C497 1.499 . S
N493 Co476 1.989 . S
N493 C492 1.342 . S
N493 N494 1.388 . S
N494 Co477 1.993 . S
N494 N493 1.388 . S
N494 C495 1.346 . S
C495 N494 1.346 . S
C495 C496 1.396 . S
C495 C505 1.510 . S
C496 C492 1.401 . S
C496 C495 1.396 . S
C497 C492 1.499 . S
C497 H498 0.959 . S
C497 H499 0.960 . S
C497 H500 0.961 . S
H498 C497 0.959 . S
H499 C497 0.960 . S
H500 C497 0.961 . S
O501 Co476 1.967 . S
O501 C509 1.258 . S
O502 Co477 1.941 . S
O502 C509 1.266 . S
H503 C505 0.959 . S
H504 C505 0.961 . S
C505 C495 1.510 . S
C505 H503 0.959 . S
C505 H504 0.961 . S
C505 H506 0.960 . S
H506 C505 0.960 . S
H507 N487 0.862 . S
O508 Co476 1.920 . S
O508 C481 1.289 . S
C509 O501 1.258 . S
C509 O502 1.266 . S
Co510 O513 1.970 . S
Co510 N527 1.989 . S
Co510 O535 1.967 1_455 S
Co510 O542 1.920 . S
Co511 O514 1.966 1_554 S
Co511 N520 2.022 . S
Co511 N528 1.993 1_554 S
Co511 O536 1.941 1_454 S
C512 O513 1.258 . S
C512 O514 1.263 . S
O513 Co510 1.970 . S
O513 C512 1.258 . S
O514 Co511 1.966 1_556 S
O514 C512 1.263 . S
C515 O516 1.235 . S
C515 O542 1.289 . S
O516 C515 1.235 . S
C517 C519 1.400 . S
C517 N520 1.351 . S
C517 C522 1.501 . S
C518 C519 1.372 1_655 S
C518 N521 1.345 . S
C519 C517 1.400 . S
C519 C518 1.372 1_455 S
N520 Co511 2.022 . S
N520 C517 1.351 . S
N520 N521 1.365 1_455 S
N521 C518 1.345 . S
N521 N520 1.365 1_655 S
N521 H541 0.862 . S
C522 C517 1.501 . S
C522 H523 0.961 . S
C522 H524 0.961 . S
C522 H525 0.960 . S
H523 C522 0.961 . S
H524 C522 0.961 . S
H525 C522 0.960 . S
C526 N527 1.342 . S
C526 C530 1.401 . S
C526 C531 1.499 . S
N527 Co510 1.989 . S
N527 C526 1.342 . S
N527 N528 1.388 . S
N528 Co511 1.993 1_556 S
N528 N527 1.388 . S
N528 C529 1.346 1_556 S
C529 N528 1.346 1_554 S
C529 C530 1.396 1_554 S
C529 C539 1.510 . S
C530 C526 1.401 . S
C530 C529 1.396 1_556 S
C531 C526 1.499 . S
C531 H532 0.959 . S
C531 H533 0.960 . S
C531 H534 0.961 1_455 S
H532 C531 0.959 . S
H533 C531 0.960 . S
H534 C531 0.961 1_655 S
O535 Co510 1.967 1_655 S
O535 C543 1.258 . S
O536 Co511 1.941 1_656 S
O536 C543 1.266 . S
H537 C539 0.959 1_655 S
H538 C539 0.961 . S
C539 C529 1.510 . S
C539 H537 0.959 1_455 S
C539 H538 0.961 . S
C539 H540 0.960 . S
H540 C539 0.960 . S
H541 N521 0.862 . S
O542 Co510 1.920 . S
O542 C515 1.289 . S
C543 O535 1.258 . S
C543 O536 1.266 . S
C544 C545 1.391 . S
C544 C546 1.394 . S
C544 H560 0.931 . S
C545 C544 1.391 . S
C545 C549 1.376 1_455 S
C546 C544 1.394 . S
C546 C547 1.369 . S
C546 C550 1.531 . S
C547 C546 1.369 . S
C547 C548 1.410 1_455 S
C547 C555 1.503 . S
C548 C547 1.410 1_655 S
C548 C549 1.392 . S
C548 C551 1.511 . S
C549 C545 1.376 1_655 S
C549 C548 1.392 . S
C549 H561 0.929 . S
C550 C546 1.531 . S
C550 H562 0.960 . S
C550 H563 0.962 . S
C550 H564 0.960 . S
C551 C548 1.511 . S
C551 H565 0.961 . S
C551 H566 0.961 . S
C551 H567 0.961 . S
C552 C553 1.370 . S
C552 C554 1.363 . S
C552 H568 0.931 . S
C553 C552 1.370 . S
C553 C557 1.434 . S
C554 C552 1.363 . S
C554 C555 1.370 . S
C554 C558 1.524 . S
C555 C547 1.503 . S
C555 C554 1.370 . S
C555 C556 1.403 1_455 S
C556 C555 1.403 1_655 S
C556 C557 1.402 1_655 S
C556 C559 1.538 . S
C557 C553 1.434 . S
C557 C556 1.402 1_455 S
C557 H569 0.911 1_455 S
C558 C554 1.524 . S
C558 H570 0.956 . S
C558 H571 0.961 . S
C558 H572 0.961 . S
C559 C556 1.538 . S
C559 H573 0.997 . S
C559 H574 0.961 . S
C559 H575 0.960 . S
H560 C544 0.931 . S
H561 C549 0.929 . S
H562 C550 0.960 . S
H563 C550 0.962 . S
H564 C550 0.960 . S
H565 C551 0.961 . S
H566 C551 0.961 . S
H567 C551 0.961 . S
H568 C552 0.931 . S
H569 C557 0.911 1_655 S
H570 C558 0.956 . S
H571 C558 0.961 . S
H572 C558 0.961 . S
H573 C559 0.997 . S
H574 C559 0.961 . S
H575 C559 0.960 . S
C576 C577 1.391 . S
C576 C578 1.394 . S
C576 H592 0.931 . S
C577 C576 1.391 . S
C577 C581 1.376 . S
C578 C576 1.394 . S
C578 C579 1.369 . S
C578 C582 1.531 . S
C579 C578 1.369 . S
C579 C580 1.410 . S
C579 C587 1.503 . S
C580 C579 1.410 . S
C580 C581 1.392 . S
C580 C583 1.511 . S
C581 C577 1.376 . S
C581 C580 1.392 . S
C581 H593 0.929 . S
C582 C578 1.531 . S
C582 H594 0.960 . S
C582 H595 0.962 . S
C582 H596 0.960 . S
C583 C580 1.511 . S
C583 H597 0.961 . S
C583 H598 0.961 . S
C583 H599 0.961 . S
C584 C585 1.370 . S
C584 C586 1.363 . S
C584 H600 0.931 . S
C585 C584 1.370 . S
C585 C589 1.408 . S
C586 C584 1.363 . S
C586 C587 1.370 . S
C586 C590 1.524 . S
C587 C579 1.503 . S
C587 C586 1.370 . S
C587 C588 1.403 . S
C588 C587 1.403 . S
C588 C589 1.404 . S
C588 C591 1.539 . S
C589 C585 1.408 . S
C589 C588 1.404 . S
C589 H601 0.930 . S
C590 C586 1.524 . S
C590 H602 0.956 . S
C590 H603 0.961 . S
C590 H604 0.961 . S
C591 C588 1.539 . S
C591 H605 0.958 . S
C591 H606 0.961 . S
C591 H607 0.960 . S
H592 C576 0.931 . S
H593 C581 0.929 . S
H594 C582 0.960 . S
H595 C582 0.962 . S
H596 C582 0.960 . S
H597 C583 0.961 . S
H598 C583 0.961 . S
H599 C583 0.961 . S
H600 C584 0.931 . S
H601 C589 0.930 . S
H602 C590 0.956 . S
H603 C590 0.961 . S
H604 C590 0.961 . S
H605 C591 0.958 . S
H606 C591 0.961 . S
H607 C591 0.960 . S
C608 C609 1.391 . S
C608 C610 1.394 . S
C608 H624 0.931 . S
C609 C608 1.391 . S
C609 C613 1.376 . S
C610 C608 1.394 . S
C610 C611 1.369 . S
C610 C614 1.531 . S
C611 C610 1.369 . S
C611 C612 1.410 . S
C611 C619 1.503 1_554 S
C612 C611 1.410 . S
C612 C613 1.392 . S
C612 C615 1.511 . S
C613 C609 1.376 . S
C613 C612 1.392 . S
C613 H625 0.929 . S
C614 C610 1.531 . S
C614 H626 0.960 . S
C614 H627 0.962 . S
C614 H628 0.960 . S
C615 C612 1.511 . S
C615 H629 0.961 . S
C615 H630 0.961 . S
C615 H631 0.961 . S
C616 C617 1.370 . S
C616 C618 1.363 . S
C616 H632 0.931 . S
C617 C616 1.370 . S
C617 C621 1.408 . S
C618 C616 1.363 . S
C618 C619 1.370 . S
C618 C622 1.524 1_556 S
C619 C611 1.503 1_556 S
C619 C618 1.370 . S
C619 C620 1.403 . S
C620 C619 1.403 . S
C620 C621 1.404 . S
C620 C623 1.539 . S
C621 C617 1.408 . S
C621 C620 1.404 . S
C621 H633 0.930 . S
C622 C618 1.524 1_554 S
C622 H634 0.956 . S
C622 H635 0.961 . S
C622 H636 0.961 1_554 S
C623 C620 1.539 . S
C623 H637 0.958 . S
C623 H638 0.961 . S
C623 H639 0.960 1_556 S
H624 C608 0.931 . S
H625 C613 0.929 . S
H626 C614 0.960 . S
H627 C614 0.962 . S
H628 C614 0.960 . S
H629 C615 0.961 . S
H630 C615 0.961 . S
H631 C615 0.961 . S
H632 C616 0.931 . S
H633 C621 0.930 . S
H634 C622 0.956 . S
H635 C622 0.961 . S
H636 C622 0.961 1_556 S
H637 C623 0.958 . S
H638 C623 0.961 . S
H639 C623 0.960 1_554 S
C640 C641 1.391 . S
C640 C642 1.394 . S
C640 H656 0.931 . S
C641 C640 1.391 . S
C641 C645 1.376 . S
C642 C640 1.394 . S
C642 C643 1.369 . S
C642 C646 1.531 . S
C643 C642 1.369 . S
C643 C644 1.410 . S
C643 C651 1.503 . S
C644 C643 1.410 . S
C644 C645 1.392 . S
C644 C647 1.511 . S
C645 C641 1.376 . S
C645 C644 1.392 . S
C645 H657 0.929 . S
C646 C642 1.531 . S
C646 H658 0.960 . S
C646 H659 0.962 . S
C646 H660 0.960 . S
C647 C644 1.511 . S
C647 H661 0.961 . S
C647 H662 0.961 . S
C647 H663 0.961 . S
C648 C649 1.370 . S
C648 C650 1.363 . S
C648 H664 0.931 . S
C649 C648 1.370 . S
C649 C653 1.408 . S
C650 C648 1.363 . S
C650 C651 1.370 . S
C650 C654 1.524 . S
C651 C643 1.503 . S
C651 C650 1.370 . S
C651 C652 1.403 . S
C652 C651 1.403 . S
C652 C653 1.404 . S
C652 C655 1.539 . S
C653 C649 1.408 . S
C653 C652 1.404 . S
C653 H665 0.930 . S
C654 C650 1.524 . S
C654 H666 0.956 . S
C654 H667 0.961 . S
C654 H668 0.961 . S
C655 C652 1.539 . S
C655 H669 0.958 . S
C655 H670 0.961 . S
C655 H671 0.960 . S
H656 C640 0.931 . S
H657 C645 0.929 . S
H658 C646 0.960 . S
H659 C646 0.962 . S
H660 C646 0.960 . S
H661 C647 0.961 . S
H662 C647 0.961 . S
H663 C647 0.961 . S
H664 C648 0.931 . S
H665 C653 0.930 . S
H666 C654 0.956 . S
H667 C654 0.961 . S
H668 C654 0.961 . S
H669 C655 0.958 . S
H670 C655 0.961 . S
H671 C655 0.960 . S
C672 C673 1.391 . S
C672 C674 1.394 . S
C672 H688 0.931 . S
C673 C672 1.391 . S
C673 C677 1.376 1_455 S
C674 C672 1.394 . S
C674 C675 1.369 . S
C674 C678 1.531 . S
C675 C674 1.369 . S
C675 C676 1.410 1_455 S
C675 C683 1.503 . S
C676 C675 1.410 1_655 S
C676 C677 1.392 . S
C676 C679 1.511 . S
C677 C673 1.376 1_655 S
C677 C676 1.392 . S
C677 H689 0.929 . S
C678 C674 1.531 . S
C678 H690 0.960 . S
C678 H691 0.962 . S
C678 H692 0.960 . S
C679 C676 1.511 . S
C679 H693 0.961 . S
C679 H694 0.961 . S
C679 H695 0.961 . S
C680 C681 1.370 . S
C680 C682 1.363 . S
C680 H696 0.931 . S
C681 C680 1.370 . S
C681 C685 1.433 . S
C682 C680 1.363 . S
C682 C683 1.370 . S
C682 C686 1.524 . S
C683 C675 1.503 . S
C683 C682 1.370 . S
C683 C684 1.403 1_455 S
C684 C683 1.403 1_655 S
C684 C685 1.402 1_655 S
C684 C687 1.539 . S
C685 C681 1.433 . S
C685 C684 1.402 1_455 S
C685 H697 0.911 1_455 S
C686 C682 1.524 . S
C686 H698 0.956 . S
C686 H699 0.961 . S
C686 H700 0.961 . S
C687 C684 1.539 . S
C687 H701 0.999 . S
C687 H702 0.961 . S
C687 H703 0.960 . S
H688 C672 0.931 . S
H689 C677 0.929 . S
H690 C678 0.960 . S
H691 C678 0.962 . S
H692 C678 0.960 . S
H693 C679 0.961 . S
H694 C679 0.961 . S
H695 C679 0.961 . S
H696 C680 0.931 . S
H697 C685 0.911 1_655 S
H698 C686 0.956 . S
H699 C686 0.961 . S
H700 C686 0.961 . S
H701 C687 0.999 . S
H702 C687 0.961 . S
H703 C687 0.960 . S
C704 C705 1.391 . S
C704 C706 1.394 . S
C704 H720 0.931 . S
C705 C704 1.391 . S
C705 C709 1.376 . S
C706 C704 1.394 . S
C706 C707 1.369 . S
C706 C710 1.531 . S
C707 C706 1.369 . S
C707 C708 1.410 . S
C707 C715 1.503 . S
C708 C707 1.410 . S
C708 C709 1.392 . S
C708 C711 1.511 . S
C709 C705 1.376 . S
C709 C708 1.392 . S
C709 H721 0.929 . S
C710 C706 1.531 . S
C710 H722 0.960 . S
C710 H723 0.962 . S
C710 H724 0.960 . S
C711 C708 1.511 . S
C711 H725 0.961 . S
C711 H726 0.961 . S
C711 H727 0.961 . S
C712 C713 1.370 . S
C712 C714 1.363 . S
C712 H728 0.931 . S
C713 C712 1.370 . S
C713 C717 1.408 . S
C714 C712 1.363 . S
C714 C715 1.370 . S
C714 C718 1.524 . S
C715 C707 1.503 . S
C715 C714 1.370 . S
C715 C716 1.403 . S
C716 C715 1.403 . S
C716 C717 1.404 . S
C716 C719 1.539 . S
C717 C713 1.408 . S
C717 C716 1.404 . S
C717 H729 0.930 . S
C718 C714 1.524 . S
C718 H730 0.956 . S
C718 H731 0.961 . S
C718 H732 0.961 . S
C719 C716 1.539 . S
C719 H733 0.958 . S
C719 H734 0.961 . S
C719 H735 0.960 . S
H720 C704 0.931 . S
H721 C709 0.929 . S
H722 C710 0.960 . S
H723 C710 0.962 . S
H724 C710 0.960 . S
H725 C711 0.961 . S
H726 C711 0.961 . S
H727 C711 0.961 . S
H728 C712 0.931 . S
H729 C717 0.930 . S
H730 C718 0.956 . S
H731 C718 0.961 . S
H732 C718 0.961 . S
H733 C719 0.958 . S
H734 C719 0.961 . S
H735 C719 0.960 . S
C736 C737 1.391 . S
C736 C738 1.394 . S
C736 H752 0.931 . S
C737 C736 1.391 . S
C737 C741 1.376 . S
C738 C736 1.394 . S
C738 C739 1.369 . S
C738 C742 1.531 . S
C739 C738 1.369 . S
C739 C740 1.410 . S
C739 C747 1.503 1_556 S
C740 C739 1.410 . S
C740 C741 1.392 . S
C740 C743 1.511 . S
C741 C737 1.376 . S
C741 C740 1.392 . S
C741 H753 0.929 . S
C742 C738 1.531 . S
C742 H754 0.960 . S
C742 H755 0.962 . S
C742 H756 0.960 . S
C743 C740 1.511 . S
C743 H757 0.961 . S
C743 H758 0.961 . S
C743 H759 0.961 . S
C744 C745 1.370 . S
C744 C746 1.363 . S
C744 H760 0.931 . S
C745 C744 1.370 . S
C745 C749 1.408 . S
C746 C744 1.363 . S
C746 C747 1.370 . S
C746 C750 1.524 1_554 S
C747 C739 1.503 1_554 S
C747 C746 1.370 . S
C747 C748 1.403 . S
C748 C747 1.403 . S
C748 C749 1.404 . S
C748 C751 1.539 . S
C749 C745 1.408 . S
C749 C748 1.404 . S
C749 H761 0.930 . S
C750 C746 1.524 1_556 S
C750 H762 0.956 . S
C750 H763 0.961 . S
C750 H764 0.961 1_556 S
C751 C748 1.539 . S
C751 H765 0.958 . S
C751 H766 0.961 . S
C751 H767 0.960 1_554 S
H752 C736 0.931 . S
H753 C741 0.929 . S
H754 C742 0.960 . S
H755 C742 0.962 . S
H756 C742 0.960 . S
H757 C743 0.961 . S
H758 C743 0.961 . S
H759 C743 0.961 . S
H760 C744 0.931 . S
H761 C749 0.930 . S
H762 C750 0.956 . S
H763 C750 0.961 . S
H764 C750 0.961 1_554 S
H765 C751 0.958 . S
H766 C751 0.961 . S
H767 C751 0.960 1_556 S
C768 C769 1.391 . S
C768 C770 1.394 . S
C768 H784 0.931 . S
C769 C768 1.391 . S
C769 C773 1.376 . S
C770 C768 1.394 . S
C770 C771 1.369 . S
C770 C774 1.531 . S
C771 C770 1.369 . S
C771 C772 1.410 . S
C771 C779 1.503 . S
C772 C771 1.410 . S
C772 C773 1.392 . S
C772 C775 1.511 . S
C773 C769 1.376 . S
C773 C772 1.392 . S
C773 H785 0.929 . S
C774 C770 1.531 . S
C774 H786 0.960 . S
C774 H787 0.962 . S
C774 H788 0.960 . S
C775 C772 1.511 . S
C775 H789 0.961 . S
C775 H790 0.961 . S
C775 H791 0.961 . S
C776 C777 1.370 . S
C776 C778 1.363 . S
C776 H792 0.931 . S
C777 C776 1.370 . S
C777 C781 1.408 . S
C778 C776 1.363 . S
C778 C779 1.370 . S
C778 C782 1.524 . S
C779 C771 1.503 . S
C779 C778 1.370 . S
C779 C780 1.403 . S
C780 C779 1.403 . S
C780 C781 1.404 . S
C780 C783 1.539 . S
C781 C777 1.408 . S
C781 C780 1.404 . S
C781 H793 0.930 . S
C782 C778 1.524 . S
C782 H794 0.956 . S
C782 H795 0.961 . S
C782 H796 0.961 . S
C783 C780 1.539 . S
C783 H797 0.958 . S
C783 H798 0.961 . S
C783 H799 0.960 . S
H784 C768 0.931 . S
H785 C773 0.929 . S
H786 C774 0.960 . S
H787 C774 0.962 . S
H788 C774 0.960 . S
H789 C775 0.961 . S
H790 C775 0.961 . S
H791 C775 0.961 . S
H792 C776 0.931 . S
H793 C781 0.930 . S
H794 C782 0.956 . S
H795 C782 0.961 . S
H796 C782 0.961 . S
H797 C783 0.958 . S
H798 C783 0.961 . S
H799 C783 0.960 . S
C800 C801 1.391 . S
C800 C802 1.394 . S
C800 H816 0.931 . S
C801 C800 1.391 . S
C801 C805 1.376 . S
C802 C800 1.394 . S
C802 C803 1.369 . S
C802 C806 1.531 . S
C803 C802 1.369 . S
C803 C804 1.410 . S
C803 C811 1.503 . S
C804 C803 1.410 . S
C804 C805 1.392 . S
C804 C807 1.511 . S
C805 C801 1.376 . S
C805 C804 1.392 . S
C805 H817 0.929 . S
C806 C802 1.531 . S
C806 H818 0.960 . S
C806 H819 0.962 . S
C806 H820 0.960 . S
C807 C804 1.511 . S
C807 H821 0.961 . S
C807 H822 0.961 . S
C807 H823 0.961 . S
C808 C809 1.370 . S
C808 C810 1.363 . S
C808 H824 0.931 . S
C809 C808 1.370 . S
C809 C813 1.408 . S
C810 C808 1.363 . S
C810 C811 1.370 . S
C810 C814 1.524 . S
C811 C803 1.503 . S
C811 C810 1.370 . S
C811 C812 1.403 . S
C812 C811 1.403 . S
C812 C813 1.404 . S
C812 C815 1.539 . S
C813 C809 1.408 . S
C813 C812 1.404 . S
C813 H825 0.930 . S
C814 C810 1.524 . S
C814 H826 0.956 . S
C814 H827 0.961 . S
C814 H828 0.961 . S
C815 C812 1.539 . S
C815 H829 0.958 . S
C815 H830 0.961 . S
C815 H831 0.960 . S
H816 C800 0.931 . S
H817 C805 0.929 . S
H818 C806 0.960 . S
H819 C806 0.962 . S
H820 C806 0.960 . S
H821 C807 0.961 . S
H822 C807 0.961 . S
H823 C807 0.961 . S
H824 C808 0.931 . S
H825 C813 0.930 . S
H826 C814 0.956 . S
H827 C814 0.961 . S
H828 C814 0.961 . S
H829 C815 0.958 . S
H830 C815 0.961 . S
H831 C815 0.960 . S
C832 C833 1.391 . S
C832 C834 1.394 . S
C832 H848 0.931 . S
C833 C832 1.391 . S
C833 C837 1.376 . S
C834 C832 1.394 . S
C834 C835 1.369 . S
C834 C838 1.531 . S
C835 C834 1.369 . S
C835 C836 1.410 . S
C835 C843 1.503 . S
C836 C835 1.410 . S
C836 C837 1.392 . S
C836 C839 1.511 . S
C837 C833 1.376 . S
C837 C836 1.392 . S
C837 H849 0.929 . S
C838 C834 1.531 . S
C838 H850 0.960 . S
C838 H851 0.962 . S
C838 H852 0.960 . S
C839 C836 1.511 . S
C839 H853 0.961 . S
C839 H854 0.961 . S
C839 H855 0.961 . S
C840 C841 1.370 . S
C840 C842 1.363 . S
C840 H856 0.931 . S
C841 C840 1.370 . S
C841 C845 1.408 . S
C842 C840 1.363 . S
C842 C843 1.370 . S
C842 C846 1.524 . S
C843 C835 1.503 . S
C843 C842 1.370 . S
C843 C844 1.403 . S
C844 C843 1.403 . S
C844 C845 1.404 . S
C844 C847 1.539 . S
C845 C841 1.408 . S
C845 C844 1.404 . S
C845 H857 0.930 . S
C846 C842 1.524 . S
C846 H858 0.956 . S
C846 H859 0.961 . S
C846 H860 0.961 . S
C847 C844 1.539 . S
C847 H861 0.958 . S
C847 H862 0.961 . S
C847 H863 0.960 . S
H848 C832 0.931 . S
H849 C837 0.929 . S
H850 C838 0.960 . S
H851 C838 0.962 . S
H852 C838 0.960 . S
H853 C839 0.961 . S
H854 C839 0.961 . S
H855 C839 0.961 . S
H856 C840 0.931 . S
H857 C845 0.930 . S
H858 C846 0.956 . S
H859 C846 0.961 . S
H860 C846 0.961 . S
H861 C847 0.958 . S
H862 C847 0.961 . S
H863 C847 0.960 . S
C864 C865 1.391 . S
C864 C866 1.394 . S
C864 H880 0.931 . S
C865 C864 1.391 . S
C865 C869 1.376 . S
C866 C864 1.394 . S
C866 C867 1.369 . S
C866 C870 1.531 . S
C867 C866 1.369 . S
C867 C868 1.410 . S
C867 C875 1.503 . S
C868 C867 1.410 . S
C868 C869 1.392 . S
C868 C871 1.511 . S
C869 C865 1.376 . S
C869 C868 1.392 . S
C869 H881 0.929 . S
C870 C866 1.531 . S
C870 H882 0.960 . S
C870 H883 0.962 . S
C870 H884 0.960 . S
C871 C868 1.511 . S
C871 H885 0.961 . S
C871 H886 0.961 . S
C871 H887 0.961 . S
C872 C873 1.370 . S
C872 C874 1.363 . S
C872 H888 0.931 . S
C873 C872 1.370 . S
C873 C877 1.408 . S
C874 C872 1.363 . S
C874 C875 1.370 . S
C874 C878 1.524 . S
C875 C867 1.503 . S
C875 C874 1.370 . S
C875 C876 1.403 . S
C876 C875 1.403 . S
C876 C877 1.404 . S
C876 C879 1.539 . S
C877 C873 1.408 . S
C877 C876 1.404 . S
C877 H889 0.930 . S
C878 C874 1.524 . S
C878 H890 0.956 . S
C878 H891 0.961 . S
C878 H892 0.961 . S
C879 C876 1.539 . S
C879 H893 0.958 . S
C879 H894 0.961 . S
C879 H895 0.960 . S
H880 C864 0.931 . S
H881 C869 0.929 . S
H882 C870 0.960 . S
H883 C870 0.962 . S
H884 C870 0.960 . S
H885 C871 0.961 . S
H886 C871 0.961 . S
H887 C871 0.961 . S
H888 C872 0.931 . S
H889 C877 0.930 . S
H890 C878 0.956 . S
H891 C878 0.961 . S
H892 C878 0.961 . S
H893 C879 0.958 . S
H894 C879 0.961 . S
H895 C879 0.960 . S
C896 C897 1.391 . S
C896 C898 1.394 . S
C896 H912 0.931 . S
C897 C896 1.391 . S
C897 C901 1.376 . S
C898 C896 1.394 . S
C898 C899 1.369 . S
C898 C902 1.531 . S
C899 C898 1.369 . S
C899 C900 1.410 . S
C899 C907 1.503 . S
C900 C899 1.410 . S
C900 C901 1.392 . S
C900 C903 1.511 . S
C901 C897 1.376 . S
C901 C900 1.392 . S
C901 H913 0.929 . S
C902 C898 1.531 . S
C902 H914 0.960 . S
C902 H915 0.962 . S
C902 H916 0.960 . S
C903 C900 1.511 . S
C903 H917 0.961 . S
C903 H918 0.961 . S
C903 H919 0.961 . S
C904 C905 1.370 . S
C904 C906 1.363 . S
C904 H920 0.931 . S
C905 C904 1.370 . S
C905 C909 1.408 . S
C906 C904 1.363 . S
C906 C907 1.370 . S
C906 C910 1.524 . S
C907 C899 1.503 . S
C907 C906 1.370 . S
C907 C908 1.403 . S
C908 C907 1.403 . S
C908 C909 1.404 . S
C908 C911 1.539 . S
C909 C905 1.408 . S
C909 C908 1.404 . S
C909 H921 0.930 . S
C910 C906 1.524 . S
C910 H922 0.956 . S
C910 H923 0.961 . S
C910 H924 0.961 . S
C911 C908 1.539 . S
C911 H925 0.958 . S
C911 H926 0.961 . S
C911 H927 0.960 . S
H912 C896 0.931 . S
H913 C901 0.929 . S
H914 C902 0.960 . S
H915 C902 0.962 . S
H916 C902 0.960 . S
H917 C903 0.961 . S
H918 C903 0.961 . S
H919 C903 0.961 . S
H920 C904 0.931 . S
H921 C909 0.930 . S
H922 C910 0.956 . S
H923 C910 0.961 . S
H924 C910 0.961 . S
H925 C911 0.958 . S
H926 C911 0.961 . S
H927 C911 0.960 . S
C928 C929 1.391 . S
C928 C930 1.394 . S
C928 H944 0.931 . S
C929 C928 1.391 . S
C929 C933 1.376 . S
C930 C928 1.394 . S
C930 C931 1.369 . S
C930 C934 1.531 . S
C931 C930 1.369 . S
C931 C932 1.410 . S
C931 C939 1.503 1_556 S
C932 C931 1.410 . S
C932 C933 1.392 . S
C932 C935 1.511 1_556 S
C933 C929 1.376 . S
C933 C932 1.392 . S
C933 H945 0.929 . S
C934 C930 1.531 . S
C934 H946 0.960 1_556 S
C934 H947 0.960 1_556 S
C934 H948 0.960 . S
C935 C932 1.511 1_554 S
C935 H949 0.961 1_554 S
C935 H950 0.961 . S
C935 H951 0.961 . S
C936 C937 1.370 . S
C936 C938 1.363 . S
C936 H952 0.931 . S
C937 C936 1.370 . S
C937 C941 1.408 . S
C938 C936 1.363 . S
C938 C939 1.370 . S
C938 C942 1.524 . S
C939 C931 1.503 1_554 S
C939 C938 1.370 . S
C939 C940 1.403 . S
C940 C939 1.403 . S
C940 C941 1.404 . S
C940 C943 1.539 . S
C941 C937 1.408 . S
C941 C940 1.404 . S
C941 H953 0.930 . S
C942 C938 1.524 . S
C942 H954 0.956 . S
C942 H955 0.961 . S
C942 H956 0.961 . S
C943 C940 1.539 . S
C943 H957 0.958 . S
C943 H958 0.961 . S
C943 H959 0.960 . S
H944 C928 0.931 . S
H945 C933 0.929 . S
H946 C934 0.960 1_554 S
H947 C934 0.960 1_554 S
H948 C934 0.960 . S
H949 C935 0.961 1_556 S
H950 C935 0.961 . S
H951 C935 0.961 . S
H952 C936 0.931 . S
H953 C941 0.930 . S
H954 C942 0.956 . S
H955 C942 0.961 . S
H956 C942 0.961 . S
H957 C943 0.958 . S
H958 C943 0.961 . S
H959 C943 0.960 . S
C960 C961 1.391 . S
C960 C962 1.394 . S
C960 H976 0.931 . S
C961 C960 1.391 . S
C961 C965 1.376 . S
C962 C960 1.394 . S
C962 C963 1.369 . S
C962 C966 1.531 . S
C963 C962 1.369 . S
C963 C964 1.410 . S
C963 C971 1.503 . S
C964 C963 1.410 . S
C964 C965 1.392 . S
C964 C967 1.511 . S
C965 C961 1.376 . S
C965 C964 1.392 . S
C965 H977 0.929 . S
C966 C962 1.531 . S
C966 H978 0.960 . S
C966 H979 0.962 1_455 S
C966 H980 0.960 . S
C967 C964 1.511 . S
C967 H981 0.961 . S
C967 H982 0.961 . S
C967 H983 0.961 . S
C968 C969 1.370 . S
C968 C970 1.363 . S
C968 H984 0.932 1_455 S
C969 C968 1.370 . S
C969 C973 1.408 . S
C970 C968 1.363 . S
C970 C971 1.370 . S
C970 C974 1.524 1_455 S
C971 C963 1.503 . S
C971 C970 1.370 . S
C971 C972 1.403 . S
C972 C971 1.403 . S
C972 C973 1.404 . S
C972 C975 1.539 . S
C973 C969 1.408 . S
C973 C972 1.404 . S
C973 H985 0.930 . S
C974 C970 1.524 1_655 S
C974 H986 0.956 . S
C974 H987 0.961 1_655 S
C974 H988 0.961 . S
C975 C972 1.539 . S
C975 H989 0.958 . S
C975 H990 0.961 . S
C975 H991 0.960 . S
H976 C960 0.931 . S
H977 C965 0.929 . S
H978 C966 0.960 . S
H979 C966 0.962 1_655 S
H980 C966 0.960 . S
H981 C967 0.961 . S
H982 C967 0.961 . S
H983 C967 0.961 . S
H984 C968 0.932 1_655 S
H985 C973 0.930 . S
H986 C974 0.956 . S
H987 C974 0.961 1_455 S
H988 C974 0.961 . S
H989 C975 0.958 . S
H990 C975 0.961 . S
H991 C975 0.960 . S
C992 C993 1.391 . S
C992 C994 1.394 . S
C992 H1008 0.931 . S
C993 C992 1.391 . S
C993 C997 1.376 . S
C994 C992 1.394 . S
C994 C995 1.369 . S
C994 C998 1.531 1_554 S
C995 C994 1.369 . S
C995 C996 1.410 . S
C995 C1003 1.503 1_554 S
C996 C995 1.410 . S
C996 C997 1.392 . S
C996 C999 1.511 . S
C997 C993 1.376 . S
C997 C996 1.392 . S
C997 H1009 0.929 . S
C998 C994 1.531 1_556 S
C998 H1010 0.960 . S
C998 H1011 0.962 . S
C998 H1012 0.960 1_556 S
C999 C996 1.511 . S
C999 H1013 0.961 . S
C999 H1014 0.961 1_554 S
C999 H1015 0.961 . S
C1000 C1001 1.370 . S
C1000 C1002 1.363 . S
C1000 H1016 0.931 . S
C1001 C1000 1.370 . S
C1001 C1005 1.408 . S
C1002 C1000 1.363 . S
C1002 C1003 1.370 . S
C1002 C1006 1.524 . S
C1003 C995 1.503 1_556 S
C1003 C1002 1.370 . S
C1003 C1004 1.403 . S
C1004 C1003 1.403 . S
C1004 C1005 1.404 . S
C1004 C1007 1.539 . S
C1005 C1001 1.408 . S
C1005 C1004 1.404 . S
C1005 H1017 0.930 . S
C1006 C1002 1.524 . S
C1006 H1018 0.956 . S
C1006 H1019 0.961 . S
C1006 H1020 0.961 . S
C1007 C1004 1.539 . S
C1007 H1021 0.958 . S
C1007 H1022 0.961 . S
C1007 H1023 0.960 . S
H1008 C992 0.931 . S
H1009 C997 0.929 . S
H1010 C998 0.960 . S
H1011 C998 0.962 . S
H1012 C998 0.960 1_554 S
H1013 C999 0.961 . S
H1014 C999 0.961 1_556 S
H1015 C999 0.961 . S
H1016 C1000 0.931 . S
H1017 C1005 0.930 . S
H1018 C1006 0.956 . S
H1019 C1006 0.961 . S
H1020 C1006 0.961 . S
H1021 C1007 0.958 . S
H1022 C1007 0.961 . S
H1023 C1007 0.960 . S
C1024 C1025 1.391 . S
C1024 C1026 1.394 . S
C1024 H1040 0.931 . S
C1025 C1024 1.391 . S
C1025 C1029 1.376 . S
C1026 C1024 1.394 . S
C1026 C1027 1.369 . S
C1026 C1030 1.531 1_455 S
C1027 C1026 1.369 . S
C1027 C1028 1.410 . S
C1027 C1035 1.503 . S
C1028 C1027 1.410 . S
C1028 C1029 1.392 . S
C1028 C1031 1.511 . S
C1029 C1025 1.376 . S
C1029 C1028 1.392 . S
C1029 H1041 0.929 . S
C1030 C1026 1.531 1_655 S
C1030 H1042 0.960 1_655 S
C1030 H1043 0.962 . S
C1030 H1044 0.960 . S
C1031 C1028 1.511 . S
C1031 H1045 0.961 . S
C1031 H1046 0.961 . S
C1031 H1047 0.961 . S
C1032 C1033 1.370 . S
C1032 C1034 1.363 . S
C1032 H1048 0.931 . S
C1033 C1032 1.370 . S
C1033 C1037 1.408 . S
C1034 C1032 1.363 . S
C1034 C1035 1.370 . S
C1034 C1038 1.524 . S
C1035 C1027 1.503 . S
C1035 C1034 1.370 . S
C1035 C1036 1.403 . S
C1036 C1035 1.403 . S
C1036 C1037 1.404 . S
C1036 C1039 1.539 . S
C1037 C1033 1.408 . S
C1037 C1036 1.404 . S
C1037 H1049 0.930 . S
C1038 C1034 1.524 . S
C1038 H1050 0.956 1_455 S
C1038 H1051 0.961 . S
C1038 H1052 0.961 1_455 S
C1039 C1036 1.539 . S
C1039 H1053 0.958 . S
C1039 H1054 0.961 . S
C1039 H1055 0.960 . S
H1040 C1024 0.931 . S
H1041 C1029 0.929 . S
H1042 C1030 0.960 1_455 S
H1043 C1030 0.962 . S
H1044 C1030 0.960 . S
H1045 C1031 0.961 . S
H1046 C1031 0.961 . S
H1047 C1031 0.961 . S
H1048 C1032 0.931 . S
H1049 C1037 0.930 . S
H1050 C1038 0.956 1_655 S
H1051 C1038 0.961 . S
H1052 C1038 0.961 1_655 S
H1053 C1039 0.958 . S
H1054 C1039 0.961 . S
H1055 C1039 0.960 . S
C1056 C1057 1.391 . S
C1056 C1058 1.394 . S
C1056 H1072 0.931 . S
C1057 C1056 1.391 . S
C1057 C1061 1.376 1_554 S
C1058 C1056 1.394 . S
C1058 C1059 1.369 1_554 S
C1058 C1062 1.516 1_455 S
C1059 C1058 1.369 1_556 S
C1059 C1060 1.410 . S
C1059 C1067 1.503 . S
C1060 C1059 1.410 . S
C1060 C1061 1.392 . S
C1060 C1063 1.511 . S
C1061 C1057 1.376 1_556 S
C1061 C1060 1.392 . S
C1061 H1073 0.929 . S
C1062 C1058 1.516 1_655 S
C1062 H1074 0.968 . S
C1062 H1075 0.950 1_655 S
C1062 H1076 0.980 . S
C1063 C1060 1.511 . S
C1063 H1077 0.961 . S
C1063 H1078 0.961 . S
C1063 H1079 0.961 . S
C1064 C1065 1.370 1_554 S
C1064 C1066 1.363 . S
C1064 H1080 0.931 . S
C1065 C1064 1.370 1_556 S
C1065 C1069 1.408 . S
C1066 C1064 1.363 . S
C1066 C1067 1.370 1_554 S
C1066 C1070 1.524 . S
C1067 C1059 1.503 . S
C1067 C1066 1.370 1_556 S
C1067 C1068 1.403 . S
C1068 C1067 1.403 . S
C1068 C1069 1.404 . S
C1068 C1071 1.539 1_455 S
C1069 C1065 1.408 . S
C1069 C1068 1.404 . S
C1069 H1081 0.930 . S
C1070 C1066 1.524 . S
C1070 H1082 0.956 . S
C1070 H1083 0.961 . S
C1070 H1084 0.961 . S
C1071 C1068 1.539 1_655 S
C1071 H1085 0.958 . S
C1071 H1086 0.961 . S
C1071 H1087 0.960 1_655 S
H1072 C1056 0.931 . S
H1073 C1061 0.929 . S
H1074 C1062 0.968 . S
H1075 C1062 0.950 1_455 S
H1076 C1062 0.980 . S
H1077 C1063 0.961 . S
H1078 C1063 0.961 . S
H1079 C1063 0.961 . S
H1080 C1064 0.931 . S
H1081 C1069 0.930 . S
H1082 C1070 0.956 . S
H1083 C1070 0.961 . S
H1084 C1070 0.961 . S
H1085 C1071 0.958 . S
H1086 C1071 0.961 . S
H1087 C1071 0.960 1_455 S
C1088 C1089 1.391 . S
C1088 C1090 1.394 . S
C1088 H1104 0.931 . S
C1089 C1088 1.391 . S
C1089 C1093 1.376 . S
C1090 C1088 1.394 . S
C1090 C1091 1.369 . S
C1090 C1094 1.531 . S
C1091 C1090 1.369 . S
C1091 C1092 1.410 . S
C1091 C1099 1.503 . S
C1092 C1091 1.410 . S
C1092 C1093 1.392 . S
C1092 C1095 1.511 . S
C1093 C1089 1.376 . S
C1093 C1092 1.392 . S
C1093 H1105 0.929 . S
C1094 C1090 1.531 . S
C1094 H1106 0.960 . S
C1094 H1107 0.962 . S
C1094 H1108 0.960 . S
C1095 C1092 1.511 . S
C1095 H1109 0.961 . S
C1095 H1110 0.961 . S
C1095 H1111 0.961 . S
C1096 C1097 1.370 . S
C1096 C1098 1.363 . S
C1096 H1112 0.931 . S
C1097 C1096 1.370 . S
C1097 C1101 1.408 . S
C1098 C1096 1.363 . S
C1098 C1099 1.370 . S
C1098 C1102 1.524 . S
C1099 C1091 1.503 . S
C1099 C1098 1.370 . S
C1099 C1100 1.403 . S
C1100 C1099 1.403 . S
C1100 C1101 1.404 . S
C1100 C1103 1.539 . S
C1101 C1097 1.408 . S
C1101 C1100 1.404 . S
C1101 H1113 0.930 . S
C1102 C1098 1.524 . S
C1102 H1114 0.956 . S
C1102 H1115 0.961 . S
C1102 H1116 0.961 . S
C1103 C1100 1.539 . S
C1103 H1117 0.958 . S
C1103 H1118 0.961 . S
C1103 H1119 0.960 . S
H1104 C1088 0.931 . S
H1105 C1093 0.929 . S
H1106 C1094 0.960 . S
H1107 C1094 0.962 . S
H1108 C1094 0.960 . S
H1109 C1095 0.961 . S
H1110 C1095 0.961 . S
H1111 C1095 0.961 . S
H1112 C1096 0.931 . S
H1113 C1101 0.930 . S
H1114 C1102 0.956 . S
H1115 C1102 0.961 . S
H1116 C1102 0.961 . S
H1117 C1103 0.958 . S
H1118 C1103 0.961 . S
H1119 C1103 0.960 . S
C1120 C1121 1.391 . S
C1120 C1122 1.394 . S
C1120 H1136 0.931 . S
C1121 C1120 1.391 . S
C1121 C1125 1.376 . S
C1122 C1120 1.394 . S
C1122 C1123 1.369 . S
C1122 C1126 1.531 . S
C1123 C1122 1.369 . S
C1123 C1124 1.410 . S
C1123 C1131 1.503 . S
C1124 C1123 1.410 . S
C1124 C1125 1.392 . S
C1124 C1127 1.511 . S
C1125 C1121 1.376 . S
C1125 C1124 1.392 . S
C1125 H1137 0.929 . S
C1126 C1122 1.531 . S
C1126 H1138 0.960 . S
C1126 H1139 0.962 . S
C1126 H1140 0.960 . S
C1127 C1124 1.511 . S
C1127 H1141 0.961 . S
C1127 H1142 0.961 . S
C1127 H1143 0.961 . S
C1128 C1129 1.370 . S
C1128 C1130 1.363 . S
C1128 H1144 0.931 . S
C1129 C1128 1.370 . S
C1129 C1133 1.408 . S
C1130 C1128 1.363 . S
C1130 C1131 1.370 . S
C1130 C1134 1.524 . S
C1131 C1123 1.503 . S
C1131 C1130 1.370 . S
C1131 C1132 1.403 . S
C1132 C1131 1.403 . S
C1132 C1133 1.404 . S
C1132 C1135 1.539 . S
C1133 C1129 1.408 . S
C1133 C1132 1.404 . S
C1133 H1145 0.930 . S
C1134 C1130 1.524 . S
C1134 H1146 0.956 . S
C1134 H1147 0.961 . S
C1134 H1148 0.961 . S
C1135 C1132 1.539 . S
C1135 H1149 0.958 . S
C1135 H1150 0.961 . S
C1135 H1151 0.960 . S
H1136 C1120 0.931 . S
H1137 C1125 0.929 . S
H1138 C1126 0.960 . S
H1139 C1126 0.962 . S
H1140 C1126 0.960 . S
H1141 C1127 0.961 . S
H1142 C1127 0.961 . S
H1143 C1127 0.961 . S
H1144 C1128 0.931 . S
H1145 C1133 0.930 . S
H1146 C1134 0.956 . S
H1147 C1134 0.961 . S
H1148 C1134 0.961 . S
H1149 C1135 0.958 . S
H1150 C1135 0.961 . S
H1151 C1135 0.960 . S
C1152 C1153 1.391 . S
C1152 C1154 1.394 . S
C1152 H1168 0.931 . S
C1153 C1152 1.391 . S
C1153 C1157 1.376 . S
C1154 C1152 1.394 . S
C1154 C1155 1.369 . S
C1154 C1158 1.531 . S
C1155 C1154 1.369 . S
C1155 C1156 1.410 . S
C1155 C1163 1.503 . S
C1156 C1155 1.410 . S
C1156 C1157 1.392 . S
C1156 C1159 1.511 . S
C1157 C1153 1.376 . S
C1157 C1156 1.392 . S
C1157 H1169 0.929 . S
C1158 C1154 1.531 . S
C1158 H1170 0.960 . S
C1158 H1171 0.962 . S
C1158 H1172 0.960 . S
C1159 C1156 1.511 . S
C1159 H1173 0.961 . S
C1159 H1174 0.961 . S
C1159 H1175 0.961 . S
C1160 C1161 1.370 . S
C1160 C1162 1.363 . S
C1160 H1176 0.931 . S
C1161 C1160 1.370 . S
C1161 C1165 1.408 . S
C1162 C1160 1.363 . S
C1162 C1163 1.370 . S
C1162 C1166 1.524 . S
C1163 C1155 1.503 . S
C1163 C1162 1.370 . S
C1163 C1164 1.403 . S
C1164 C1163 1.403 . S
C1164 C1165 1.404 . S
C1164 C1167 1.539 . S
C1165 C1161 1.408 . S
C1165 C1164 1.404 . S
C1165 H1177 0.930 . S
C1166 C1162 1.524 . S
C1166 H1178 0.956 . S
C1166 H1179 0.961 . S
C1166 H1180 0.961 . S
C1167 C1164 1.539 . S
C1167 H1181 0.958 . S
C1167 H1182 0.961 . S
C1167 H1183 0.960 . S
H1168 C1152 0.931 . S
H1169 C1157 0.929 . S
H1170 C1158 0.960 . S
H1171 C1158 0.962 . S
H1172 C1158 0.960 . S
H1173 C1159 0.961 . S
H1174 C1159 0.961 . S
H1175 C1159 0.961 . S
H1176 C1160 0.931 . S
H1177 C1165 0.930 . S
H1178 C1166 0.956 . S
H1179 C1166 0.961 . S
H1180 C1166 0.961 . S
H1181 C1167 0.958 . S
H1182 C1167 0.961 . S
H1183 C1167 0.960 . S
C1184 C1185 1.391 . S
C1184 C1186 1.394 . S
C1184 H1200 0.931 . S
C1185 C1184 1.391 . S
C1185 C1189 1.376 . S
C1186 C1184 1.394 . S
C1186 C1187 1.369 . S
C1186 C1190 1.531 . S
C1187 C1186 1.369 . S
C1187 C1188 1.410 . S
C1187 C1195 1.503 . S
C1188 C1187 1.410 . S
C1188 C1189 1.392 . S
C1188 C1191 1.511 . S
C1189 C1185 1.376 . S
C1189 C1188 1.392 . S
C1189 H1201 0.929 . S
C1190 C1186 1.531 . S
C1190 H1202 0.960 . S
C1190 H1203 0.962 . S
C1190 H1204 0.960 . S
C1191 C1188 1.511 . S
C1191 H1205 0.961 . S
C1191 H1206 0.961 . S
C1191 H1207 0.961 . S
C1192 C1193 1.370 . S
C1192 C1194 1.363 . S
C1192 H1208 0.931 . S
C1193 C1192 1.370 . S
C1193 C1197 1.408 . S
C1194 C1192 1.363 . S
C1194 C1195 1.370 . S
C1194 C1198 1.524 . S
C1195 C1187 1.503 . S
C1195 C1194 1.370 . S
C1195 C1196 1.403 . S
C1196 C1195 1.403 . S
C1196 C1197 1.404 . S
C1196 C1199 1.539 . S
C1197 C1193 1.408 . S
C1197 C1196 1.404 . S
C1197 H1209 0.930 . S
C1198 C1194 1.524 . S
C1198 H1210 0.956 . S
C1198 H1211 0.961 . S
C1198 H1212 0.961 . S
C1199 C1196 1.539 . S
C1199 H1213 0.958 . S
C1199 H1214 0.961 . S
C1199 H1215 0.960 . S
H1200 C1184 0.931 . S
H1201 C1189 0.929 . S
H1202 C1190 0.960 . S
H1203 C1190 0.962 . S
H1204 C1190 0.960 . S
H1205 C1191 0.961 . S
H1206 C1191 0.961 . S
H1207 C1191 0.961 . S
H1208 C1192 0.931 . S
H1209 C1197 0.930 . S
H1210 C1198 0.956 . S
H1211 C1198 0.961 . S
H1212 C1198 0.961 . S
H1213 C1199 0.958 . S
H1214 C1199 0.961 . S
H1215 C1199 0.960 . S
C1216 C1217 1.391 . S
C1216 C1218 1.394 . S
C1216 H1232 0.931 . S
C1217 C1216 1.391 . S
C1217 C1221 1.376 . S
C1218 C1216 1.394 . S
C1218 C1219 1.369 . S
C1218 C1222 1.531 . S
C1219 C1218 1.369 . S
C1219 C1220 1.410 . S
C1219 C1227 1.503 . S
C1220 C1219 1.410 . S
C1220 C1221 1.392 . S
C1220 C1223 1.511 . S
C1221 C1217 1.376 . S
C1221 C1220 1.392 . S
C1221 H1233 0.929 . S
C1222 C1218 1.531 . S
C1222 H1234 0.960 . S
C1222 H1235 0.962 . S
C1222 H1236 0.960 . S
C1223 C1220 1.511 . S
C1223 H1237 0.961 . S
C1223 H1238 0.961 . S
C1223 H1239 0.961 . S
C1224 C1225 1.370 . S
C1224 C1226 1.363 . S
C1224 H1240 0.931 . S
C1225 C1224 1.370 . S
C1225 C1229 1.408 . S
C1226 C1224 1.363 . S
C1226 C1227 1.370 . S
C1226 C1230 1.524 . S
C1227 C1219 1.503 . S
C1227 C1226 1.370 . S
C1227 C1228 1.403 . S
C1228 C1227 1.403 . S
C1228 C1229 1.404 . S
C1228 C1231 1.539 . S
C1229 C1225 1.408 . S
C1229 C1228 1.404 . S
C1229 H1241 0.930 . S
C1230 C1226 1.524 . S
C1230 H1242 0.956 . S
C1230 H1243 0.961 . S
C1230 H1244 0.961 . S
C1231 C1228 1.539 . S
C1231 H1245 0.958 . S
C1231 H1246 0.961 . S
C1231 H1247 0.960 . S
H1232 C1216 0.931 . S
H1233 C1221 0.929 . S
H1234 C1222 0.960 . S
H1235 C1222 0.962 . S
H1236 C1222 0.960 . S
H1237 C1223 0.961 . S
H1238 C1223 0.961 . S
H1239 C1223 0.961 . S
H1240 C1224 0.931 . S
H1241 C1229 0.930 . S
H1242 C1230 0.956 . S
H1243 C1230 0.961 . S
H1244 C1230 0.961 . S
H1245 C1231 0.958 . S
H1246 C1231 0.961 . S
H1247 C1231 0.960 . S
C1248 C1249 1.391 . S
C1248 C1250 1.394 . S
C1248 H1264 0.931 . S
C1249 C1248 1.391 . S
C1249 C1253 1.376 . S
C1250 C1248 1.394 . S
C1250 C1251 1.369 . S
C1250 C1254 1.531 . S
C1251 C1250 1.369 . S
C1251 C1252 1.410 . S
C1251 C1259 1.503 1_545 S
C1252 C1251 1.410 . S
C1252 C1253 1.392 . S
C1252 C1255 1.511 . S
C1253 C1249 1.376 . S
C1253 C1252 1.392 . S
C1253 H1265 0.929 . S
C1254 C1250 1.531 . S
C1254 H1266 0.960 . S
C1254 H1267 0.962 . S
C1254 H1268 0.960 . S
C1255 C1252 1.511 . S
C1255 H1269 0.961 . S
C1255 H1270 0.961 1_545 S
C1255 H1271 0.961 . S
C1256 C1257 1.370 . S
C1256 C1258 1.363 . S
C1256 H1272 0.931 . S
C1257 C1256 1.370 . S
C1257 C1261 1.408 . S
C1258 C1256 1.363 . S
C1258 C1259 1.370 . S
C1258 C1262 1.524 . S
C1259 C1251 1.503 1_565 S
C1259 C1258 1.370 . S
C1259 C1260 1.403 . S
C1260 C1259 1.403 . S
C1260 C1261 1.404 . S
C1260 C1263 1.539 . S
C1261 C1257 1.408 . S
C1261 C1260 1.404 . S
C1261 H1273 0.930 . S
C1262 C1258 1.524 . S
C1262 H1274 0.956 . S
C1262 H1275 0.961 . S
C1262 H1276 0.961 . S
C1263 C1260 1.539 . S
C1263 H1277 0.977 . S
C1263 H1278 0.961 . S
C1263 H1279 0.960 1_565 S
H1264 C1248 0.931 . S
H1265 C1253 0.929 . S
H1266 C1254 0.960 . S
H1267 C1254 0.962 . S
H1268 C1254 0.960 . S
H1269 C1255 0.961 . S
H1270 C1255 0.961 1_565 S
H1271 C1255 0.961 . S
H1272 C1256 0.931 . S
H1273 C1261 0.930 . S
H1274 C1262 0.956 . S
H1275 C1262 0.961 . S
H1276 C1262 0.961 . S
H1277 C1263 0.977 . S
H1278 C1263 0.961 . S
H1279 C1263 0.960 1_545 S
C1280 C1281 1.391 1_556 S
C1280 C1282 1.394 . S
C1280 H1296 0.931 . S
C1281 C1280 1.391 1_554 S
C1281 C1285 1.376 1_455 S
C1282 C1280 1.394 . S
C1282 C1283 1.403 . S
C1282 C1286 1.531 . S
C1283 C1282 1.403 . S
C1283 C1284 1.377 1_456 S
C1283 C1291 1.506 1_565 S
C1284 C1283 1.377 1_654 S
C1284 C1285 1.392 . S
C1284 C1287 1.511 . S
C1285 C1281 1.376 1_655 S
C1285 C1284 1.392 . S
C1285 H1297 0.929 . S
C1286 C1282 1.531 . S
C1286 H1298 0.960 . S
C1286 H1299 0.962 . S
C1286 H1300 0.960 . S
C1287 C1284 1.511 . S
C1287 H1301 0.961 . S
C1287 H1302 0.961 1_565 S
C1287 H1303 0.961 . S
C1288 C1289 1.370 1_554 S
C1288 C1290 1.363 . S
C1288 H1304 0.931 . S
C1289 C1288 1.370 1_556 S
C1289 C1293 1.408 1_455 S
C1290 C1288 1.363 . S
C1290 C1291 1.370 1_554 S
C1290 C1294 1.524 . S
C1291 C1283 1.506 1_545 S
C1291 C1290 1.370 1_556 S
C1291 C1292 1.403 1_455 S
C1292 C1291 1.403 1_655 S
C1292 C1293 1.404 . S
C1292 C1295 1.539 . S
C1293 C1289 1.408 1_655 S
C1293 C1292 1.404 . S
C1293 H1305 0.930 . S
C1294 C1290 1.524 . S
C1294 H1306 0.956 . S
C1294 H1307 0.961 . S
C1294 H1308 0.961 . S
C1295 C1292 1.539 . S
C1295 H1309 0.958 . S
C1295 H1310 0.961 . S
C1295 H1311 0.960 1_545 S
H1296 C1280 0.931 . S
H1297 C1285 0.929 . S
H1298 C1286 0.960 . S
H1299 C1286 0.962 . S
H1300 C1286 0.960 . S
H1301 C1287 0.961 . S
H1302 C1287 0.961 1_545 S
H1303 C1287 0.961 . S
H1304 C1288 0.931 . S
H1305 C1293 0.930 . S
H1306 C1294 0.956 . S
H1307 C1294 0.961 . S
H1308 C1294 0.961 . S
H1309 C1295 0.958 . S
H1310 C1295 0.961 . S
H1311 C1295 0.960 1_565 S
C1312 C1313 1.391 . S
C1312 C1314 1.394 . S
C1312 H1328 0.931 . S
C1313 C1312 1.391 . S
C1313 C1317 1.376 . S
C1314 C1312 1.394 . S
C1314 C1315 1.369 . S
C1314 C1318 1.531 . S
C1315 C1314 1.369 . S
C1315 C1316 1.410 . S
C1315 C1323 1.503 . S
C1316 C1315 1.410 . S
C1316 C1317 1.392 . S
C1316 C1319 1.511 . S
C1317 C1313 1.376 . S
C1317 C1316 1.392 . S
C1317 H1329 0.929 . S
C1318 C1314 1.531 . S
C1318 H1330 0.960 . S
C1318 H1331 0.962 . S
C1318 H1332 0.960 . S
C1319 C1316 1.511 . S
C1319 H1333 0.961 . S
C1319 H1334 0.961 . S
C1319 H1335 0.961 . S
C1320 C1321 1.370 . S
C1320 C1322 1.363 . S
C1320 H1336 0.931 . S
C1321 C1320 1.370 . S
C1321 C1325 1.408 . S
C1322 C1320 1.363 . S
C1322 C1323 1.370 . S
C1322 C1326 1.524 . S
C1323 C1315 1.503 . S
C1323 C1322 1.370 . S
C1323 C1324 1.403 . S
C1324 C1323 1.403 . S
C1324 C1325 1.404 . S
C1324 C1327 1.539 1_554 S
C1325 C1321 1.408 . S
C1325 C1324 1.404 . S
C1325 H1337 0.930 1_554 S
C1326 C1322 1.524 . S
C1326 H1338 0.956 . S
C1326 H1339 0.961 . S
C1326 H1340 0.961 . S
C1327 C1324 1.539 1_556 S
C1327 H1341 0.958 . S
C1327 H1342 0.961 . S
C1327 H1343 0.960 . S
H1328 C1312 0.931 . S
H1329 C1317 0.929 . S
H1330 C1318 0.960 . S
H1331 C1318 0.962 . S
H1332 C1318 0.960 . S
H1333 C1319 0.961 . S
H1334 C1319 0.961 . S
H1335 C1319 0.961 . S
H1336 C1320 0.931 . S
H1337 C1325 0.930 1_556 S
H1338 C1326 0.956 . S
H1339 C1326 0.961 . S
H1340 C1326 0.961 . S
H1341 C1327 0.958 . S
H1342 C1327 0.961 . S
H1343 C1327 0.960 . S
C1344 C1345 1.391 . S
C1344 C1346 1.394 . S
C1344 H1360 0.931 . S
C1345 C1344 1.391 . S
C1345 C1349 1.376 . S
C1346 C1344 1.394 . S
C1346 C1347 1.369 . S
C1346 C1350 1.531 . S
C1347 C1346 1.369 . S
C1347 C1348 1.410 . S
C1347 C1355 1.503 . S
C1348 C1347 1.410 . S
C1348 C1349 1.392 . S
C1348 C1351 1.511 . S
C1349 C1345 1.376 . S
C1349 C1348 1.392 . S
C1349 H1361 0.929 . S
C1350 C1346 1.531 . S
C1350 H1362 0.960 . S
C1350 H1363 0.962 . S
C1350 H1364 0.960 . S
C1351 C1348 1.511 . S
C1351 H1365 0.961 . S
C1351 H1366 0.961 . S
C1351 H1367 0.961 . S
C1352 C1353 1.370 . S
C1352 C1354 1.363 . S
C1352 H1368 0.931 . S
C1353 C1352 1.370 . S
C1353 C1357 1.408 . S
C1354 C1352 1.363 . S
C1354 C1355 1.370 . S
C1354 C1358 1.524 . S
C1355 C1347 1.503 . S
C1355 C1354 1.370 . S
C1355 C1356 1.403 . S
C1356 C1355 1.403 . S
C1356 C1357 1.404 . S
C1356 C1359 1.539 . S
C1357 C1353 1.408 . S
C1357 C1356 1.404 . S
C1357 H1369 0.930 . S
C1358 C1354 1.524 . S
C1358 H1370 0.956 . S
C1358 H1371 0.961 . S
C1358 H1372 0.961 . S
C1359 C1356 1.539 . S
C1359 H1373 0.958 . S
C1359 H1374 0.961 . S
C1359 H1375 0.960 . S
H1360 C1344 0.931 . S
H1361 C1349 0.929 . S
H1362 C1350 0.960 . S
H1363 C1350 0.962 . S
H1364 C1350 0.960 . S
H1365 C1351 0.961 . S
H1366 C1351 0.961 . S
H1367 C1351 0.961 . S
H1368 C1352 0.931 . S
H1369 C1357 0.930 . S
H1370 C1358 0.956 . S
H1371 C1358 0.961 . S
H1372 C1358 0.961 . S
H1373 C1359 0.958 . S
H1374 C1359 0.961 . S
H1375 C1359 0.960 . S
C1376 C1377 1.391 . S
C1376 C1378 1.394 . S
C1376 H1392 0.931 . S
C1377 C1376 1.391 . S
C1377 C1381 1.376 . S
C1378 C1376 1.394 . S
C1378 C1379 1.369 . S
C1378 C1382 1.531 . S
C1379 C1378 1.369 . S
C1379 C1380 1.410 . S
C1379 C1387 1.503 . S
C1380 C1379 1.410 . S
C1380 C1381 1.392 . S
C1380 C1383 1.511 . S
C1381 C1377 1.376 . S
C1381 C1380 1.392 . S
C1381 H1393 0.929 . S
C1382 C1378 1.531 . S
C1382 H1394 0.960 . S
C1382 H1395 0.962 . S
C1382 H1396 0.960 . S
C1383 C1380 1.511 . S
C1383 H1397 0.961 . S
C1383 H1398 0.961 . S
C1383 H1399 0.961 . S
C1384 C1385 1.370 . S
C1384 C1386 1.363 . S
C1384 H1400 0.931 . S
C1385 C1384 1.370 . S
C1385 C1389 1.408 . S
C1386 C1384 1.363 . S
C1386 C1387 1.370 . S
C1386 C1390 1.524 . S
C1387 C1379 1.503 . S
C1387 C1386 1.370 . S
C1387 C1388 1.403 . S
C1388 C1387 1.403 . S
C1388 C1389 1.404 . S
C1388 C1391 1.539 . S
C1389 C1385 1.408 . S
C1389 C1388 1.404 . S
C1389 H1401 0.930 . S
C1390 C1386 1.524 . S
C1390 H1402 0.956 . S
C1390 H1403 0.961 . S
C1390 H1404 0.961 . S
C1391 C1388 1.539 . S
C1391 H1405 0.958 . S
C1391 H1406 0.961 . S
C1391 H1407 0.960 . S
H1392 C1376 0.931 . S
H1393 C1381 0.929 . S
H1394 C1382 0.960 . S
H1395 C1382 0.962 . S
H1396 C1382 0.960 . S
H1397 C1383 0.961 . S
H1398 C1383 0.961 . S
H1399 C1383 0.961 . S
H1400 C1384 0.931 . S
H1401 C1389 0.930 . S
H1402 C1390 0.956 . S
H1403 C1390 0.961 . S
H1404 C1390 0.961 . S
H1405 C1391 0.958 . S
H1406 C1391 0.961 . S
H1407 C1391 0.960 . S
C1408 C1409 1.391 . S
C1408 C1410 1.394 . S
C1408 H1424 0.931 1_556 S
C1409 C1408 1.391 . S
C1409 C1413 1.376 . S
C1410 C1408 1.394 . S
C1410 C1411 1.369 . S
C1410 C1414 1.531 1_556 S
C1411 C1410 1.369 . S
C1411 C1412 1.410 . S
C1411 C1419 1.503 . S
C1412 C1411 1.410 . S
C1412 C1413 1.392 . S
C1412 C1415 1.511 . S
C1413 C1409 1.376 . S
C1413 C1412 1.392 . S
C1413 H1425 0.929 . S
C1414 C1410 1.531 1_554 S
C1414 H1426 0.960 . S
C1414 H1427 0.962 1_554 S
C1414 H1428 0.960 . S
C1415 C1412 1.511 . S
C1415 H1429 0.961 . S
C1415 H1430 0.961 . S
C1415 H1431 0.961 . S
C1416 C1417 1.370 . S
C1416 C1418 1.363 . S
C1416 H1432 0.931 . S
C1417 C1416 1.370 . S
C1417 C1421 1.408 . S
C1418 C1416 1.363 . S
C1418 C1419 1.370 . S
C1418 C1422 1.524 . S
C1419 C1411 1.503 . S
C1419 C1418 1.370 . S
C1419 C1420 1.403 . S
C1420 C1419 1.403 . S
C1420 C1421 1.404 . S
C1420 C1423 1.539 . S
C1421 C1417 1.408 . S
C1421 C1420 1.404 . S
C1421 H1433 0.930 . S
C1422 C1418 1.524 . S
C1422 H1434 0.956 . S
C1422 H1435 0.961 . S
C1422 H1436 0.961 . S
C1423 C1420 1.539 . S
C1423 H1437 0.958 . S
C1423 H1438 0.961 . S
C1423 H1439 0.960 . S
H1424 C1408 0.931 1_554 S
H1425 C1413 0.929 . S
H1426 C1414 0.960 . S
H1427 C1414 0.962 1_556 S
H1428 C1414 0.960 . S
H1429 C1415 0.961 . S
H1430 C1415 0.961 . S
H1431 C1415 0.961 . S
H1432 C1416 0.931 . S
H1433 C1421 0.930 . S
H1434 C1422 0.956 . S
H1435 C1422 0.961 . S
H1436 C1422 0.961 . S
H1437 C1423 0.958 . S
H1438 C1423 0.961 . S
H1439 C1423 0.960 . S
C1440 C1441 1.391 . S
C1440 C1442 1.394 . S
C1440 H1456 0.931 . S
C1441 C1440 1.391 . S
C1441 C1445 1.376 . S
C1442 C1440 1.394 . S
C1442 C1443 1.369 . S
C1442 C1446 1.531 . S
C1443 C1442 1.369 . S
C1443 C1444 1.410 . S
C1443 C1451 1.503 . S
C1444 C1443 1.410 . S
C1444 C1445 1.392 . S
C1444 C1447 1.511 . S
C1445 C1441 1.376 . S
C1445 C1444 1.392 . S
C1445 H1457 0.929 . S
C1446 C1442 1.531 . S
C1446 H1458 0.960 . S
C1446 H1459 0.962 . S
C1446 H1460 0.960 . S
C1447 C1444 1.511 . S
C1447 H1461 0.961 1_556 S
C1447 H1462 0.961 . S
C1447 H1463 0.961 . S
C1448 C1449 1.370 . S
C1448 C1450 1.363 . S
C1448 H1464 0.931 . S
C1449 C1448 1.370 . S
C1449 C1453 1.408 . S
C1450 C1448 1.363 . S
C1450 C1451 1.370 . S
C1450 C1454 1.524 . S
C1451 C1443 1.503 . S
C1451 C1450 1.370 . S
C1451 C1452 1.403 . S
C1452 C1451 1.403 . S
C1452 C1453 1.404 . S
C1452 C1455 1.539 . S
C1453 C1449 1.408 . S
C1453 C1452 1.404 . S
C1453 H1465 0.930 . S
C1454 C1450 1.524 . S
C1454 H1466 0.956 . S
C1454 H1467 0.961 . S
C1454 H1468 0.961 . S
C1455 C1452 1.539 . S
C1455 H1469 0.958 . S
C1455 H1470 0.961 . S
C1455 H1471 0.960 . S
H1456 C1440 0.931 . S
H1457 C1445 0.929 . S
H1458 C1446 0.960 . S
H1459 C1446 0.962 . S
H1460 C1446 0.960 . S
H1461 C1447 0.961 1_554 S
H1462 C1447 0.961 . S
H1463 C1447 0.961 . S
H1464 C1448 0.931 . S
H1465 C1453 0.930 . S
H1466 C1454 0.956 . S
H1467 C1454 0.961 . S
H1468 C1454 0.961 . S
H1469 C1455 0.958 . S
H1470 C1455 0.961 . S
H1471 C1455 0.960 . S
C1472 C1473 1.391 . S
C1472 C1474 1.394 . S
C1472 H1488 0.931 . S
C1473 C1472 1.391 . S
C1473 C1477 1.376 . S
C1474 C1472 1.394 . S
C1474 C1475 1.369 . S
C1474 C1478 1.531 . S
C1475 C1474 1.369 . S
C1475 C1476 1.410 . S
C1475 C1483 1.503 . S
C1476 C1475 1.410 . S
C1476 C1477 1.392 . S
C1476 C1479 1.511 . S
C1477 C1473 1.376 . S
C1477 C1476 1.392 . S
C1477 H1489 0.929 . S
C1478 C1474 1.531 . S
C1478 H1490 0.960 . S
C1478 H1491 0.962 . S
C1478 H1492 0.960 . S
C1479 C1476 1.511 . S
C1479 H1493 0.961 . S
C1479 H1494 0.961 . S
C1479 H1495 0.961 . S
C1480 C1481 1.370 . S
C1480 C1482 1.363 . S
C1480 H1496 0.931 . S
C1481 C1480 1.370 . S
C1481 C1485 1.408 . S
C1482 C1480 1.363 . S
C1482 C1483 1.370 . S
C1482 C1486 1.524 . S
C1483 C1475 1.503 . S
C1483 C1482 1.370 . S
C1483 C1484 1.403 . S
C1484 C1483 1.403 . S
C1484 C1485 1.404 . S
C1484 C1487 1.539 . S
C1485 C1481 1.408 . S
C1485 C1484 1.404 . S
C1485 H1497 0.930 . S
C1486 C1482 1.524 . S
C1486 H1498 0.956 . S
C1486 H1499 0.961 . S
C1486 H1500 0.961 1_554 S
C1487 C1484 1.539 . S
C1487 H1501 0.958 . S
C1487 H1502 0.961 . S
C1487 H1503 0.960 . S
H1488 C1472 0.931 . S
H1489 C1477 0.929 . S
H1490 C1478 0.960 . S
H1491 C1478 0.962 . S
H1492 C1478 0.960 . S
H1493 C1479 0.961 . S
H1494 C1479 0.961 . S
H1495 C1479 0.961 . S
H1496 C1480 0.931 . S
H1497 C1485 0.930 . S
H1498 C1486 0.956 . S
H1499 C1486 0.961 . S
H1500 C1486 0.961 1_556 S
H1501 C1487 0.958 . S
H1502 C1487 0.961 . S
H1503 C1487 0.960 . S
C1504 C1505 1.391 . S
C1504 C1506 1.394 . S
C1504 H1520 0.931 . S
C1505 C1504 1.391 . S
C1505 C1509 1.376 . S
C1506 C1504 1.394 . S
C1506 C1507 1.369 . S
C1506 C1510 1.531 . S
C1507 C1506 1.369 . S
C1507 C1508 1.410 . S
C1507 C1515 1.503 . S
C1508 C1507 1.410 . S
C1508 C1509 1.392 . S
C1508 C1511 1.511 . S
C1509 C1505 1.376 . S
C1509 C1508 1.392 . S
C1509 H1521 0.929 . S
C1510 C1506 1.531 . S
C1510 H1522 0.960 . S
C1510 H1523 0.962 . S
C1510 H1524 0.960 . S
C1511 C1508 1.511 . S
C1511 H1525 0.961 . S
C1511 H1526 0.961 . S
C1511 H1527 0.961 . S
C1512 C1513 1.370 . S
C1512 C1514 1.363 . S
C1512 H1528 0.931 . S
C1513 C1512 1.370 . S
C1513 C1517 1.408 . S
C1514 C1512 1.363 . S
C1514 C1515 1.370 . S
C1514 C1518 1.524 . S
C1515 C1507 1.503 . S
C1515 C1514 1.370 . S
C1515 C1516 1.403 . S
C1516 C1515 1.403 . S
C1516 C1517 1.404 . S
C1516 C1519 1.539 . S
C1517 C1513 1.408 . S
C1517 C1516 1.404 . S
C1517 H1529 0.930 . S
C1518 C1514 1.524 . S
C1518 H1530 0.956 . S
C1518 H1531 0.961 . S
C1518 H1532 0.961 . S
C1519 C1516 1.539 . S
C1519 H1533 0.958 . S
C1519 H1534 0.961 . S
C1519 H1535 0.960 . S
H1520 C1504 0.931 . S
H1521 C1509 0.929 . S
H1522 C1510 0.960 . S
H1523 C1510 0.962 . S
H1524 C1510 0.960 . S
H1525 C1511 0.961 . S
H1526 C1511 0.961 . S
H1527 C1511 0.961 . S
H1528 C1512 0.931 . S
H1529 C1517 0.930 . S
H1530 C1518 0.956 . S
H1531 C1518 0.961 . S
H1532 C1518 0.961 . S
H1533 C1519 0.958 . S
H1534 C1519 0.961 . S
H1535 C1519 0.960 . S
C1536 C1537 1.391 . S
C1536 C1538 1.394 . S
C1536 H1552 0.931 . S
C1537 C1536 1.391 . S
C1537 C1541 1.376 . S
C1538 C1536 1.394 . S
C1538 C1539 1.369 . S
C1538 C1542 1.531 . S
C1539 C1538 1.369 . S
C1539 C1540 1.410 . S
C1539 C1547 1.503 . S
C1540 C1539 1.410 . S
C1540 C1541 1.392 . S
C1540 C1543 1.511 . S
C1541 C1537 1.376 . S
C1541 C1540 1.392 . S
C1541 H1553 0.929 . S
C1542 C1538 1.531 . S
C1542 H1554 0.960 . S
C1542 H1555 0.962 . S
C1542 H1556 0.960 . S
C1543 C1540 1.511 . S
C1543 H1557 0.961 . S
C1543 H1558 0.961 . S
C1543 H1559 0.961 . S
C1544 C1545 1.370 . S
C1544 C1546 1.363 . S
C1544 H1560 0.931 . S
C1545 C1544 1.370 . S
C1545 C1549 1.408 . S
C1546 C1544 1.363 . S
C1546 C1547 1.370 . S
C1546 C1550 1.524 . S
C1547 C1539 1.503 . S
C1547 C1546 1.370 . S
C1547 C1548 1.403 . S
C1548 C1547 1.403 . S
C1548 C1549 1.404 . S
C1548 C1551 1.539 . S
C1549 C1545 1.408 . S
C1549 C1548 1.404 . S
C1549 H1561 0.930 . S
C1550 C1546 1.524 . S
C1550 H1562 0.956 . S
C1550 H1563 0.961 . S
C1550 H1564 0.961 . S
C1551 C1548 1.539 . S
C1551 H1565 0.958 . S
C1551 H1566 0.961 . S
C1551 H1567 0.960 . S
H1552 C1536 0.931 . S
H1553 C1541 0.929 . S
H1554 C1542 0.960 . S
H1555 C1542 0.962 . S
H1556 C1542 0.960 . S
H1557 C1543 0.961 . S
H1558 C1543 0.961 . S
H1559 C1543 0.961 . S
H1560 C1544 0.931 . S
H1561 C1549 0.930 . S
H1562 C1550 0.956 . S
H1563 C1550 0.961 . S
H1564 C1550 0.961 . S
H1565 C1551 0.958 . S
H1566 C1551 0.961 . S
H1567 C1551 0.960 . S
C1568 C1569 1.391 . S
C1568 C1570 1.394 . S
C1568 H1584 0.931 1_556 S
C1569 C1568 1.391 . S
C1569 C1573 1.376 . S
C1570 C1568 1.394 . S
C1570 C1571 1.369 . S
C1570 C1574 1.531 1_556 S
C1571 C1570 1.369 . S
C1571 C1572 1.410 . S
C1571 C1579 1.503 . S
C1572 C1571 1.410 . S
C1572 C1573 1.392 . S
C1572 C1575 1.511 . S
C1573 C1569 1.376 . S
C1573 C1572 1.392 . S
C1573 H1585 0.929 . S
C1574 C1570 1.531 1_554 S
C1574 H1586 0.960 1_554 S
C1574 H1587 0.962 . S
C1574 H1588 0.960 . S
C1575 C1572 1.511 . S
C1575 H1589 0.961 . S
C1575 H1590 0.961 . S
C1575 H1591 0.961 . S
C1576 C1577 1.370 . S
C1576 C1578 1.363 . S
C1576 H1592 0.931 . S
C1577 C1576 1.370 . S
C1577 C1581 1.408 . S
C1578 C1576 1.363 . S
C1578 C1579 1.370 . S
C1578 C1582 1.524 . S
C1579 C1571 1.503 . S
C1579 C1578 1.370 . S
C1579 C1580 1.403 . S
C1580 C1579 1.403 . S
C1580 C1581 1.404 . S
C1580 C1583 1.539 . S
C1581 C1577 1.408 . S
C1581 C1580 1.404 . S
C1581 H1593 0.930 . S
C1582 C1578 1.524 . S
C1582 H1594 0.956 . S
C1582 H1595 0.961 . S
C1582 H1596 0.961 . S
C1583 C1580 1.539 . S
C1583 H1597 0.958 . S
C1583 H1598 0.961 . S
C1583 H1599 0.960 . S
H1584 C1568 0.931 1_554 S
H1585 C1573 0.929 . S
H1586 C1574 0.960 1_556 S
H1587 C1574 0.962 . S
H1588 C1574 0.960 . S
H1589 C1575 0.961 . S
H1590 C1575 0.961 . S
H1591 C1575 0.961 . S
H1592 C1576 0.931 . S
H1593 C1581 0.930 . S
H1594 C1582 0.956 . S
H1595 C1582 0.961 . S
H1596 C1582 0.961 . S
H1597 C1583 0.958 . S
H1598 C1583 0.961 . S
H1599 C1583 0.960 . S
C1600 C1601 1.391 . S
C1600 C1602 1.394 . S
C1600 H1616 0.931 . S
C1601 C1600 1.391 . S
C1601 C1605 1.376 . S
C1602 C1600 1.394 . S
C1602 C1603 1.369 . S
C1602 C1606 1.531 . S
C1603 C1602 1.369 . S
C1603 C1604 1.410 . S
C1603 C1611 1.503 . S
C1604 C1603 1.410 . S
C1604 C1605 1.392 . S
C1604 C1607 1.511 . S
C1605 C1601 1.376 . S
C1605 C1604 1.392 . S
C1605 H1617 0.929 . S
C1606 C1602 1.531 . S
C1606 H1618 0.960 . S
C1606 H1619 0.962 . S
C1606 H1620 0.960 . S
C1607 C1604 1.511 . S
C1607 H1621 0.961 . S
C1607 H1622 0.961 . S
C1607 H1623 0.961 . S
C1608 C1609 1.370 . S
C1608 C1610 1.363 . S
C1608 H1624 0.931 . S
C1609 C1608 1.370 . S
C1609 C1613 1.408 . S
C1610 C1608 1.363 . S
C1610 C1611 1.370 . S
C1610 C1614 1.524 . S
C1611 C1603 1.503 . S
C1611 C1610 1.370 . S
C1611 C1612 1.403 . S
C1612 C1611 1.403 . S
C1612 C1613 1.404 . S
C1612 C1615 1.539 . S
C1613 C1609 1.408 . S
C1613 C1612 1.404 . S
C1613 H1625 0.930 . S
C1614 C1610 1.524 . S
C1614 H1626 0.956 . S
C1614 H1627 0.961 . S
C1614 H1628 0.961 . S
C1615 C1612 1.539 . S
C1615 H1629 0.958 . S
C1615 H1630 0.961 . S
C1615 H1631 0.960 . S
H1616 C1600 0.931 . S
H1617 C1605 0.929 . S
H1618 C1606 0.960 . S
H1619 C1606 0.962 . S
H1620 C1606 0.960 . S
H1621 C1607 0.961 . S
H1622 C1607 0.961 . S
H1623 C1607 0.961 . S
H1624 C1608 0.931 . S
H1625 C1613 0.930 . S
H1626 C1614 0.956 . S
H1627 C1614 0.961 . S
H1628 C1614 0.961 . S
H1629 C1615 0.958 . S
H1630 C1615 0.961 . S
H1631 C1615 0.960 . S
C1632 C1633 1.391 . S
C1632 C1634 1.394 . S
C1632 H1648 0.931 . S
C1633 C1632 1.391 . S
C1633 C1637 1.376 . S
C1634 C1632 1.394 . S
C1634 C1635 1.369 . S
C1634 C1638 1.531 . S
C1635 C1634 1.369 . S
C1635 C1636 1.410 . S
C1635 C1643 1.503 . S
C1636 C1635 1.410 . S
C1636 C1637 1.392 . S
C1636 C1639 1.511 . S
C1637 C1633 1.376 . S
C1637 C1636 1.392 . S
C1637 H1649 0.929 . S
C1638 C1634 1.531 . S
C1638 H1650 0.960 . S
C1638 H1651 0.962 . S
C1638 H1652 0.960 . S
C1639 C1636 1.511 . S
C1639 H1653 0.961 . S
C1639 H1654 0.961 . S
C1639 H1655 0.961 . S
C1640 C1641 1.370 . S
C1640 C1642 1.363 . S
C1640 H1656 0.931 . S
C1641 C1640 1.370 . S
C1641 C1645 1.408 . S
C1642 C1640 1.363 . S
C1642 C1643 1.370 . S
C1642 C1646 1.524 . S
C1643 C1635 1.503 . S
C1643 C1642 1.370 . S
C1643 C1644 1.403 . S
C1644 C1643 1.403 . S
C1644 C1645 1.404 . S
C1644 C1647 1.539 . S
C1645 C1641 1.408 . S
C1645 C1644 1.404 . S
C1645 H1657 0.930 . S
C1646 C1642 1.524 . S
C1646 H1658 0.956 . S
C1646 H1659 0.961 . S
C1646 H1660 0.961 . S
C1647 C1644 1.539 . S
C1647 H1661 0.958 . S
C1647 H1662 0.961 . S
C1647 H1663 0.960 . S
H1648 C1632 0.931 . S
H1649 C1637 0.929 . S
H1650 C1638 0.960 . S
H1651 C1638 0.962 . S
H1652 C1638 0.960 . S
H1653 C1639 0.961 . S
H1654 C1639 0.961 . S
H1655 C1639 0.961 . S
H1656 C1640 0.931 . S
H1657 C1645 0.930 . S
H1658 C1646 0.956 . S
H1659 C1646 0.961 . S
H1660 C1646 0.961 . S
H1661 C1647 0.958 . S
H1662 C1647 0.961 . S
H1663 C1647 0.960 . S
C1664 C1665 1.391 . S
C1664 C1666 1.394 . S
C1664 H1680 0.931 . S
C1665 C1664 1.391 . S
C1665 C1669 1.376 . S
C1666 C1664 1.394 . S
C1666 C1667 1.369 . S
C1666 C1670 1.531 . S
C1667 C1666 1.369 . S
C1667 C1668 1.410 . S
C1667 C1675 1.503 . S
C1668 C1667 1.410 . S
C1668 C1669 1.392 . S
C1668 C1671 1.511 1_554 S
C1669 C1665 1.376 . S
C1669 C1668 1.392 . S
C1669 H1681 0.929 1_554 S
C1670 C1666 1.531 . S
C1670 H1682 0.960 . S
C1670 H1683 0.962 . S
C1670 H1684 0.960 . S
C1671 C1668 1.511 1_556 S
C1671 H1685 0.961 . S
C1671 H1686 0.961 1_556 S
C1671 H1687 0.961 . S
C1672 C1673 1.370 . S
C1672 C1674 1.363 . S
C1672 H1688 0.931 . S
C1673 C1672 1.370 . S
C1673 C1677 1.408 . S
C1674 C1672 1.363 . S
C1674 C1675 1.370 . S
C1674 C1678 1.524 . S
C1675 C1667 1.503 . S
C1675 C1674 1.370 . S
C1675 C1676 1.403 . S
C1676 C1675 1.403 . S
C1676 C1677 1.404 . S
C1676 C1679 1.539 . S
C1677 C1673 1.408 . S
C1677 C1676 1.404 . S
C1677 H1689 0.930 . S
C1678 C1674 1.524 . S
C1678 H1690 0.956 . S
C1678 H1691 0.961 . S
C1678 H1692 0.961 . S
C1679 C1676 1.539 . S
C1679 H1693 0.958 . S
C1679 H1694 0.961 . S
C1679 H1695 0.960 . S
H1680 C1664 0.931 . S
H1681 C1669 0.929 1_556 S
H1682 C1670 0.960 . S
H1683 C1670 0.962 . S
H1684 C1670 0.960 . S
H1685 C1671 0.961 . S
H1686 C1671 0.961 1_554 S
H1687 C1671 0.961 . S
H1688 C1672 0.931 . S
H1689 C1677 0.930 . S
H1690 C1678 0.956 . S
H1691 C1678 0.961 . S
H1692 C1678 0.961 . S
H1693 C1679 0.958 . S
H1694 C1679 0.961 . S
H1695 C1679 0.960 . S
C1696 C1697 1.391 . S
C1696 C1698 1.394 . S
C1696 H1712 0.931 . S
C1697 C1696 1.391 . S
C1697 C1701 1.376 . S
C1698 C1696 1.394 . S
C1698 C1699 1.369 . S
C1698 C1702 1.531 . S
C1699 C1698 1.369 . S
C1699 C1700 1.410 . S
C1699 C1707 1.503 . S
C1700 C1699 1.410 . S
C1700 C1701 1.392 . S
C1700 C1703 1.511 . S
C1701 C1697 1.376 . S
C1701 C1700 1.392 . S
C1701 H1713 0.929 . S
C1702 C1698 1.531 . S
C1702 H1714 0.960 . S
C1702 H1715 0.962 . S
C1702 H1716 0.960 1_554 S
C1703 C1700 1.511 . S
C1703 H1717 0.961 . S
C1703 H1718 0.961 . S
C1703 H1719 0.961 . S
C1704 C1705 1.370 . S
C1704 C1706 1.363 . S
C1704 H1720 0.931 . S
C1705 C1704 1.370 . S
C1705 C1709 1.408 . S
C1706 C1704 1.363 . S
C1706 C1707 1.370 . S
C1706 C1710 1.524 . S
C1707 C1699 1.503 . S
C1707 C1706 1.370 . S
C1707 C1708 1.403 . S
C1708 C1707 1.403 . S
C1708 C1709 1.404 . S
C1708 C1711 1.539 . S
C1709 C1705 1.408 . S
C1709 C1708 1.404 . S
C1709 H1721 0.930 . S
C1710 C1706 1.524 . S
C1710 H1722 0.956 . S
C1710 H1723 0.961 . S
C1710 H1724 0.961 . S
C1711 C1708 1.539 . S
C1711 H1725 0.958 1_554 S
C1711 H1726 0.961 . S
C1711 H1727 0.960 . S
H1712 C1696 0.931 . S
H1713 C1701 0.929 . S
H1714 C1702 0.960 . S
H1715 C1702 0.962 . S
H1716 C1702 0.960 1_556 S
H1717 C1703 0.961 . S
H1718 C1703 0.961 . S
H1719 C1703 0.961 . S
H1720 C1704 0.931 . S
H1721 C1709 0.930 . S
H1722 C1710 0.956 . S
H1723 C1710 0.961 . S
H1724 C1710 0.961 . S
H1725 C1711 0.958 1_556 S
H1726 C1711 0.961 . S
H1727 C1711 0.960 . S
C1728 C1729 1.391 . S
C1728 C1730 1.394 . S
C1728 H1744 0.931 . S
C1729 C1728 1.391 . S
C1729 C1733 1.376 . S
C1730 C1728 1.394 . S
C1730 C1731 1.369 . S
C1730 C1734 1.531 . S
C1731 C1730 1.369 . S
C1731 C1732 1.410 . S
C1731 C1739 1.503 . S
C1732 C1731 1.410 . S
C1732 C1733 1.392 . S
C1732 C1735 1.511 . S
C1733 C1729 1.376 . S
C1733 C1732 1.392 . S
C1733 H1745 0.929 . S
C1734 C1730 1.531 . S
C1734 H1746 0.960 . S
C1734 H1747 0.962 1_556 S
C1734 H1748 0.960 1_556 S
C1735 C1732 1.511 . S
C1735 H1749 0.961 . S
C1735 H1750 0.961 . S
C1735 H1751 0.961 . S
C1736 C1737 1.370 . S
C1736 C1738 1.363 . S
C1736 H1752 0.931 . S
C1737 C1736 1.370 . S
C1737 C1741 1.408 . S
C1738 C1736 1.363 . S
C1738 C1739 1.370 . S
C1738 C1742 1.524 . S
C1739 C1731 1.503 . S
C1739 C1738 1.370 . S
C1739 C1740 1.403 . S
C1740 C1739 1.403 . S
C1740 C1741 1.404 . S
C1740 C1743 1.539 . S
C1741 C1737 1.408 . S
C1741 C1740 1.404 . S
C1741 H1753 0.930 . S
C1742 C1738 1.524 . S
C1742 H1754 0.956 . S
C1742 H1755 0.961 . S
C1742 H1756 0.961 . S
C1743 C1740 1.539 . S
C1743 H1757 0.958 . S
C1743 H1758 0.961 . S
C1743 H1759 0.960 . S
H1744 C1728 0.931 . S
H1745 C1733 0.929 . S
H1746 C1734 0.960 . S
H1747 C1734 0.962 1_554 S
H1748 C1734 0.960 1_554 S
H1749 C1735 0.961 . S
H1750 C1735 0.961 . S
H1751 C1735 0.961 . S
H1752 C1736 0.931 . S
H1753 C1741 0.930 . S
H1754 C1742 0.956 . S
H1755 C1742 0.961 . S
H1756 C1742 0.961 . S
H1757 C1743 0.958 . S
H1758 C1743 0.961 . S
H1759 C1743 0.960 . S
C1760 C1761 1.391 . S
C1760 C1762 1.394 . S
C1760 H1776 0.931 . S
C1761 C1760 1.391 . S
C1761 C1765 1.376 . S
C1762 C1760 1.394 . S
C1762 C1763 1.369 . S
C1762 C1766 1.531 . S
C1763 C1762 1.369 . S
C1763 C1764 1.410 . S
C1763 C1771 1.503 . S
C1764 C1763 1.410 . S
C1764 C1765 1.392 . S
C1764 C1767 1.511 . S
C1765 C1761 1.376 . S
C1765 C1764 1.392 . S
C1765 H1777 0.929 . S
C1766 C1762 1.531 . S
C1766 H1778 0.960 . S
C1766 H1779 0.962 . S
C1766 H1780 0.960 . S
C1767 C1764 1.511 . S
C1767 H1781 0.961 . S
C1767 H1782 0.961 . S
C1767 H1783 0.961 . S
C1768 C1769 1.370 . S
C1768 C1770 1.363 . S
C1768 H1784 0.931 . S
C1769 C1768 1.370 . S
C1769 C1773 1.408 . S
C1770 C1768 1.363 . S
C1770 C1771 1.370 . S
C1770 C1774 1.524 . S
C1771 C1763 1.503 . S
C1771 C1770 1.370 . S
C1771 C1772 1.403 . S
C1772 C1771 1.403 . S
C1772 C1773 1.404 . S
C1772 C1775 1.539 . S
C1773 C1769 1.408 . S
C1773 C1772 1.404 . S
C1773 H1785 0.930 . S
C1774 C1770 1.524 . S
C1774 H1786 0.956 . S
C1774 H1787 0.961 . S
C1774 H1788 0.961 . S
C1775 C1772 1.539 . S
C1775 H1789 0.958 . S
C1775 H1790 0.961 . S
C1775 H1791 0.960 . S
H1776 C1760 0.931 . S
H1777 C1765 0.929 . S
H1778 C1766 0.960 . S
H1779 C1766 0.962 . S
H1780 C1766 0.960 . S
H1781 C1767 0.961 . S
H1782 C1767 0.961 . S
H1783 C1767 0.961 . S
H1784 C1768 0.931 . S
H1785 C1773 0.930 . S
H1786 C1774 0.956 . S
H1787 C1774 0.961 . S
H1788 C1774 0.961 . S
H1789 C1775 0.958 . S
H1790 C1775 0.961 . S
H1791 C1775 0.960 . S
C1792 C1793 1.391 . S
C1792 C1794 1.394 . S
C1792 H1808 0.931 . S
C1793 C1792 1.391 . S
C1793 C1797 1.376 . S
C1794 C1792 1.394 . S
C1794 C1795 1.369 . S
C1794 C1798 1.531 . S
C1795 C1794 1.369 . S
C1795 C1796 1.410 . S
C1795 C1803 1.503 . S
C1796 C1795 1.410 . S
C1796 C1797 1.392 . S
C1796 C1799 1.511 . S
C1797 C1793 1.376 . S
C1797 C1796 1.392 . S
C1797 H1809 0.929 . S
C1798 C1794 1.531 . S
C1798 H1810 0.960 . S
C1798 H1811 0.962 . S
C1798 H1812 0.960 . S
C1799 C1796 1.511 . S
C1799 H1813 0.961 . S
C1799 H1814 0.961 . S
C1799 H1815 0.961 . S
C1800 C1801 1.370 . S
C1800 C1802 1.363 . S
C1800 H1816 0.931 . S
C1801 C1800 1.370 . S
C1801 C1805 1.408 . S
C1802 C1800 1.363 . S
C1802 C1803 1.370 . S
C1802 C1806 1.524 . S
C1803 C1795 1.503 . S
C1803 C1802 1.370 . S
C1803 C1804 1.403 . S
C1804 C1803 1.403 . S
C1804 C1805 1.404 . S
C1804 C1807 1.539 . S
C1805 C1801 1.408 . S
C1805 C1804 1.404 . S
C1805 H1817 0.930 . S
C1806 C1802 1.524 . S
C1806 H1818 0.956 . S
C1806 H1819 0.961 . S
C1806 H1820 0.961 . S
C1807 C1804 1.539 . S
C1807 H1821 0.958 . S
C1807 H1822 0.961 . S
C1807 H1823 0.960 . S
H1808 C1792 0.931 . S
H1809 C1797 0.929 . S
H1810 C1798 0.960 . S
H1811 C1798 0.962 . S
H1812 C1798 0.960 . S
H1813 C1799 0.961 . S
H1814 C1799 0.961 . S
H1815 C1799 0.961 . S
H1816 C1800 0.931 . S
H1817 C1805 0.930 . S
H1818 C1806 0.956 . S
H1819 C1806 0.961 . S
H1820 C1806 0.961 . S
H1821 C1807 0.958 . S
H1822 C1807 0.961 . S
H1823 C1807 0.960 . S
C545 C9 1.347 . S
C553 C5 1.409 . S
C577 C43 1.370 1_556 S
C585 C39 1.404 . S
C609 C77 1.288 . S
C617 C73 1.413 . S
C641 C111 1.364 . S
C649 C107 1.404 . S
C673 C145 1.347 . S
C681 C141 1.409 . S
C705 C179 1.300 . S
C713 C175 1.415 . S
C737 C213 1.365 . S
C745 C209 1.404 . S
C769 C243 1.392 . S
C777 C247 1.347 1_554 S
C801 C277 1.407 . S
C809 C281 1.321 1_554 S
C833 C315 1.284 . S
C841 C311 1.416 . S
C865 C349 1.347 . S
C873 C345 1.405 . S
C897 C379 1.399 . S
C905 C383 1.343 1_556 S
C929 C413 1.409 . S
C937 C417 1.332 . S
C961 C451 1.361 . S
C969 C447 1.407 . S
C993 C481 1.398 . S
C1001 C485 1.332 . S
C1025 C519 1.353 . S
C1033 C515 1.408 . S
C1057 C20 1.464 . S
C1065 C156 1.478 . S
C1089 C190 1.462 . S
C1097 C54 1.476 . S
C1121 C224 1.462 . S
C1129 C88 1.477 . S
C1153 C122 1.486 . S
C1161 C258 1.486 . S
C1185 C360 1.464 . S
C1193 C292 1.475 . S
C1217 C326 1.490 . S
C1225 C394 1.485 . S
C1249 C428 1.477 . S
C1257 C496 1.484 . S
C1281 C462 1.481 . S
C1289 C530 1.485 . S
C1313 C339 1.191 . S
C1321 C33 1.194 . S
C1345 C509 1.199 . S
C1353 C67 1.195 . S
C1377 C101 1.197 . S
C1385 C305 1.196 . S
C1409 C543 1.177 . S
C1417 C135 1.186 . S
C1441 C373 1.175 . S
C1449 C169 1.186 . S
C1473 C475 1.190 . S
C1481 C203 1.193 . S
C1505 C237 1.179 . S
C1513 C407 1.186 . S
C1537 C271 1.181 . S
C1545 C441 1.187 . S
C1569 C138 1.691 . S
C1577 C104 1.698 . S
C1601 C410 1.690 . S
C1609 C274 1.698 . S
C1633 C36 1.681 . S
C1641 C206 1.701 . S
C1665 C444 1.693 . S
C1673 C308 1.696 . S
C1697 C172 1.686 . S
C1705 C2 1.699 . S
C1729 C342 1.695 . S
C1737 C512 1.695 . S
C1761 C240 1.681 . S
C1769 C70 1.701 . S
C1793 C478 1.690 . S
C1801 C376 1.697 . S
