# Generated by pormake.
# Topology dmp, (4)-cn, num edge types: 1
# Building blocks:
#     Node 0, Type 0, BuildingBlock: ESEHIV_clean_sbu_0, # of connection points: 4
#     Node 1, Type 0, BuildingBlock: ESEHIV_clean_sbu_0, # of connection points: 4
#     Node 2, Type 0, BuildingBlock: ESEHIV_clean_sbu_0, # of connection points: 4
#     Node 3, Type 0, BuildingBlock: ESEHIV_clean_sbu_0, # of connection points: 4
#     Edge 4, Type (0, 0), BuildingBlock: TEMPAE_clean_linker_10, # of connection points: 2
#     Edge 5, Type (0, 0), BuildingBlock: TEMPAE_clean_linker_10, # of connection points: 2
#     Edge 6, Type (0, 0), BuildingBlock: TEMPAE_clean_linker_10, # of connection points: 2
#     Edge 7, Type (0, 0), BuildingBlock: TEMPAE_clean_linker_10, # of connection points: 2
#     Edge 8, Type (0, 0), BuildingBlock: TEMPAE_clean_linker_10, # of connection points: 2
#     Edge 9, Type (0, 0), BuildingBlock: TEMPAE_clean_linker_10, # of connection points: 2
#     Edge 10, Type (0, 0), BuildingBlock: TEMPAE_clean_linker_10, # of connection points: 2
#     Edge 11, Type (0, 0), BuildingBlock: TEMPAE_clean_linker_10, # of connection points: 2
# Relax obj value: 0.000
# Max RMSD: 0.009
# Mean RMSD: 0.009
data_MOF--net-dmp--node1-ESEHIV_clean_sbu_0--edge1-TEMPAE_clean_linker_10
_symmetry_space_group_name_H-M    P1
_symmetry_Int_Tables_number       1
_symmetry_cell_setting            triclinic
loop_
_symmetry_equiv_pos_as_xyz
'x, y, z'
_cell_length_a     39.570844
_cell_length_b     25.090418
_cell_length_c     6.1447937
_cell_angle_alpha  90.179028
_cell_angle_beta   90.266553
_cell_angle_gamma 98.954639
loop_
_atom_site_label
_atom_site_type_symbol
_atom_site_fract_x
_atom_site_fract_y
_atom_site_fract_z
_atom_type_partial_charge
Cu0 Cu 0.14033 0.27273 0.23128 0.0
N1 N 0.16496 0.23136 0.05251 0.0
N2 N 0.1971 0.1687 0.95705 0.0
C3 C 0.18089 0.19047 0.12053 0.0
C4 C 0.1905 0.19654 0.77876 0.0
C5 C 0.17016 0.23401 0.83699 0.0
O6 O 0.10621 0.219 0.36809 0.0
C7 C 0.20145 0.33889 0.35847 0.0
O8 O 0.21241 0.32282 0.17167 0.0
H9 H 0.1801 0.17654 0.28594 0.0
H10 H 0.15892 0.25969 0.72876 0.0
N11 N 0.11857 0.32432 0.08849 0.0
N12 N 0.09228 0.39714 0.06641 0.0
C13 C 0.0966 0.35328 0.18429 0.0
C14 C 0.12843 0.35108 0.90474 0.0
C15 C 0.11219 0.39569 0.88971 0.0
C16 C 0.07935 0.20269 0.25612 0.0
O17 O 0.07439 0.22754 0.07367 0.0
H18 H 0.08648 0.34509 0.34626 0.0
H19 H 0.14839 0.34186 0.80005 0.0
O20 O 0.17176 0.31839 0.42406 0.0
H21 H 0.19927 0.18962 0.61719 0.0
H22 H 0.11622 0.4264 0.76503 0.0
Cu23 Cu 0.38825 0.76053 0.22783 0.0
N24 N 0.35799 0.79004 0.04228 0.0
N25 N 0.32335 0.84895 0.94446 0.0
C26 C 0.3492 0.83928 0.07603 0.0
C27 C 0.31568 0.80382 0.82214 0.0
C28 C 0.33684 0.76765 0.88401 0.0
O29 O 0.42453 0.82157 0.27939 0.0
C30 C 0.33897 0.68454 0.37234 0.0
O31 O 0.3417 0.67466 0.16425 0.0
H32 H 0.36029 0.86613 0.20451 0.0
H33 H 0.3354 0.72684 0.82683 0.0
N34 N 0.41054 0.70472 0.12346 0.0
N35 N 0.43823 0.63354 0.15396 0.0
C36 C 0.42742 0.6753 0.25735 0.0
C37 C 0.41078 0.68118 0.92689 0.0
C38 C 0.42774 0.6372 0.94525 0.0
C39 C 0.44036 0.83448 0.1013 0.0
O40 O 0.43117 0.8053 0.92684 0.0
H41 H 0.43033 0.68325 0.43004 0.0
H42 H 0.39863 0.69407 0.78274 0.0
O43 O 0.35905 0.72426 0.45624 0.0
H44 H 0.29557 0.79661 0.70077 0.0
H45 H 0.43157 0.60975 0.815 0.0
Cu46 Cu 0.90337 0.78366 0.71902 0.0
N47 N 0.87518 0.83262 0.61903 0.0
N48 N 0.84311 0.89873 0.63499 0.0
C49 C 0.87225 0.88191 0.70049 0.0
C50 C 0.82679 0.85881 0.50885 0.0
C51 C 0.84649 0.81807 0.50023 0.0
O52 O 0.93354 0.81887 0.94582 0.0
C53 C 0.87759 0.67464 0.85334 0.0
O54 O 0.90817 0.67126 0.92872 0.0
H55 H 0.89023 0.90432 0.8126 0.0
H56 H 0.83924 0.77883 0.42556 0.0
N57 N 0.93444 0.76383 0.51355 0.0
N58 N 0.96985 0.71082 0.37369 0.0
C59 C 0.93801 0.71328 0.44901 0.0
C60 C 0.96522 0.79371 0.47832 0.0
C61 C 0.9869 0.76145 0.3915 0.0
C62 C 0.92611 0.84987 0.09627 0.0
O63 O 0.89392 0.84981 0.14606 0.0
H64 H 0.91922 0.67801 0.47997 0.0
H65 H 0.97265 0.83458 0.53645 0.0
O66 O 0.87108 0.71948 0.78361 0.0
H67 H 0.80143 0.85766 0.44037 0.0
H68 H 1.01404 0.77309 0.36375 0.0
Cu69 Cu 0.64323 0.27264 0.84565 0.0
N70 N 0.66995 0.24186 0.04948 0.0
N71 N 0.70874 0.18684 0.10912 0.0
C72 C 0.681 0.19547 -0.00559 0.0
C73 C 0.71539 0.22961 0.24542 0.0
C74 C 0.69154 0.26365 0.20742 0.0
O75 O 0.61597 0.20887 0.71469 0.0
C76 C 0.68718 0.36427 0.79541 0.0
O77 O 0.67348 0.36914 -0.01276 0.0
H78 H 0.67142 0.17189 0.85315 0.0
H79 H 0.6923 0.30371 0.27391 0.0
N80 N 0.61043 0.3158 0.92853 0.0
N81 N 0.57204 0.37028 0.85758 0.0
C82 C 0.59838 0.3479 0.78091 0.0
C83 C 0.59116 0.31851 0.10745 0.0
C84 C 0.56718 0.35193 0.0631 0.0
C85 C 0.5973 0.18338 0.86209 0.0
O86 O 0.59885 0.20293 0.06073 0.0
H87 H 0.60784 0.35281 0.616 0.0
H88 H 0.59347 0.29636 0.25611 0.0
O89 O 0.6773 0.32156 0.68364 0.0
H90 H 0.73727 0.23772 0.35361 0.0
H91 H 0.54746 0.36141 0.17178 0.0
C92 C 0.27152 0.8912 0.88005 0.0
C93 C 0.30567 0.89542 0.94959 0.0
C94 C 0.25383 0.93566 0.88727 0.0
C95 C 0.27055 0.98617 0.96756 0.0
C96 C 0.30506 0.99055 0.03957 0.0
C97 C 0.32208 0.94538 0.02875 0.0
C98 C 0.21709 0.92687 0.81004 0.0
C99 C 0.32493 0.04245 0.12772 0.0
C100 C 0.24112 0.11861 0.80801 0.0
C101 C 0.21635 0.12405 0.96608 0.0
C102 C 0.25897 0.07435 0.80731 0.0
C103 C 0.25235 0.03432 0.97055 0.0
C104 C 0.22786 0.04014 0.13359 0.0
C105 C 0.21015 0.08467 0.1289 0.0
C106 C 0.28518 0.07134 0.63187 0.0
C107 C 0.21932 0.99877 0.3104 0.0
H108 H 0.25816 0.85276 0.82245 0.0
H109 H 0.34855 0.94959 0.08099 0.0
H110 H 0.20617 0.96459 0.78992 0.0
H111 H 0.21487 0.90472 0.6525 0.0
H112 H 0.20123 0.90097 0.92921 0.0
H113 H 0.34589 0.05734 0.01329 0.0
H114 H 0.30921 0.07479 0.15274 0.0
H115 H 0.33716 0.03461 0.28507 0.0
H116 H 0.24681 0.14923 0.68409 0.0
H117 H 0.19086 0.08785 0.25066 0.0
H118 H 0.28634 0.02912 0.58236 0.0
H119 H 0.31079 0.0892 0.69464 0.0
H120 H 0.27971 0.09455 0.48571 0.0
H121 H 0.19871 0.96682 0.25144 0.0
H122 H 0.20978 1.01723 0.45784 0.0
H123 H 0.24166 0.97937 0.35609 0.0
C124 C 0.20358 0.42323 0.58165 0.0
C125 C 0.22069 0.38758 0.46498 0.0
C126 C 0.22026 0.47453 0.64506 0.0
C127 C 0.25493 0.4914 0.58537 0.0
C128 C 0.27296 0.4537 0.48079 0.0
C129 C 0.25564 0.40232 0.42405 0.0
C130 C 0.19941 0.51074 0.76401 0.0
C131 C 0.31021 0.46732 0.41781 0.0
C132 C 0.28125 0.63317 0.38034 0.0
C133 C 0.31226 0.64846 0.49066 0.0
C134 C 0.26062 0.5838 0.42208 0.0
C135 C 0.27023 0.54992 0.58804 0.0
C136 C 0.29855 0.56965 0.72444 0.0
C137 C 0.32002 0.61805 0.66966 0.0
C138 C 0.2307 0.56588 0.27169 0.0
C139 C 0.30816 0.53783 0.91602 0.0
H140 H 0.17642 0.41292 0.60988 0.0
H141 H 0.26917 0.37452 0.33703 0.0
H142 H 0.21368 0.55149 0.79779 0.0
H143 H 0.1761 0.51476 0.66788 0.0
H144 H 0.19037 0.49149 0.92007 0.0
H145 H 0.3161 0.44354 0.27382 0.0
H146 H 0.31803 0.51061 0.38071 0.0
H147 H 0.32624 0.45675 0.55477 0.0
H148 H 0.27509 0.65716 0.24325 0.0
H149 H 0.34404 0.62935 0.75523 0.0
H150 H 0.20645 0.56291 0.36324 0.0
H151 H 0.23246 0.52553 0.20235 0.0
H152 H 0.22942 0.59457 0.13583 0.0
H153 H 0.31796 0.56552 0.05117 0.0
H154 H 0.32909 0.51547 0.8691 0.0
H155 H 0.28615 0.50868 0.97531 0.0
C156 C 0.76579 0.15814 0.07556 0.0
C157 C 0.73006 0.14653 0.0575 0.0
C158 C 0.78684 0.12097 0.00619 0.0
C159 C 0.77179 0.06995 0.91982 0.0
C160 C 0.73568 0.05921 0.89308 0.0
C161 C 0.71543 0.09689 0.96637 0.0
C162 C 0.82508 0.13879 0.01734 0.0
C163 C 0.71769 1.00895 0.78065 0.0
C164 C 0.83128 0.99149 0.60192 0.0
C165 C 0.82864 0.94363 0.71944 0.0
C166 C 0.81339 0.03319 0.66622 0.0
C167 C 0.79322 0.02772 0.85798 0.0
C168 C 0.79167 0.97953 0.98186 0.0
C169 C 0.80926 0.93811 0.91006 0.0
C170 C 0.8153 0.0816 0.52061 0.0
C171 C 0.76999 0.96941 0.18352 0.0
H172 H 0.77751 0.19722 0.13691 0.0
H173 H 0.68788 0.08769 0.94844 0.0
H174 H 0.83993 0.10489 0.0065 0.0
H175 H 0.83279 0.16706 0.88155 0.0
H176 H 0.83225 0.16163 0.17015 0.0
H177 H 0.69706 1.01914 0.67238 0.0
H178 H 0.73507 0.98821 0.68129 0.0
H179 H 0.70518 0.98054 0.9046 0.0
H180 H 0.84617 0.99518 0.4535 0.0
H181 H 0.80711 0.90057 -0.00041 0.0
H182 H 0.83788 0.11149 0.56673 0.0
H183 H 0.792 0.10105 0.5283 0.0
H184 H 0.81904 0.0694 0.35046 0.0
H185 H 0.76543 1.00719 0.26432 0.0
H186 H 0.78189 0.94464 0.30209 0.0
H187 H 0.74489 0.94579 0.13807 0.0
C188 C 0.83027 0.62334 0.63273 0.0
C189 C 0.85253 0.62535 0.81201 0.0
C190 C 0.80603 0.57748 0.58937 0.0
C191 C 0.80296 0.53304 0.73355 0.0
C192 C 0.82633 0.53416 0.91035 0.0
C193 C 0.85127 0.57994 0.94486 0.0
C194 C 0.78276 0.57839 0.39465 0.0
C195 C 0.82462 0.48785 0.06754 0.0
C196 C 0.71202 0.46033 0.79361 0.0
C197 C 0.71468 0.40764 0.7289 0.0
C198 C 0.74033 0.50132 0.79264 0.0
C199 C 0.77239 0.48985 0.71917 0.0
C200 C 0.77479 0.43697 0.64195 0.0
C201 C 0.74575 0.39648 0.64704 0.0
C202 C 0.73525 0.55596 0.87997 0.0
C203 C 0.80792 0.421 0.56477 0.0
H204 H 0.8318 0.65776 0.52486 0.0
H205 H 0.86892 0.58102 0.08092 0.0
H206 H 0.77256 0.53725 0.33483 0.0
H207 H 0.76088 0.5988 0.44003 0.0
H208 H 0.79643 0.60182 0.25977 0.0
H209 H 0.83932 0.49999 0.21866 0.0
H210 H 0.79777 0.47199 0.11128 0.0
H211 H 0.83578 0.45461 -0.00951 0.0
H212 H 0.6879 0.46902 0.857 0.0
H213 H 0.74803 0.35545 0.60051 0.0
H214 H 0.72247 0.57725 0.75317 0.0
H215 H 0.75933 0.58194 0.92862 0.0
H216 H 0.71806 0.55124 0.02343 0.0
H217 H 0.80403 0.40142 0.40236 0.0
H218 H 0.81555 0.39037 0.67724 0.0
H219 H 0.8292 0.45524 0.55548 0.0
C220 C 0.07145 0.10693 0.3836 0.0
C221 C 0.05741 0.15058 0.30057 0.0
C222 C 0.05277 0.05438 0.37999 0.0
C223 C 1.01869 0.0455 0.29711 0.0
C224 C 1.00414 0.09031 0.22019 0.0
C225 C 0.02364 0.14201 0.22401 0.0
C226 C 0.07118 1.00913 0.45227 0.0
C227 C 0.96846 0.08465 0.1244 0.0
C228 C 0.98279 0.90874 0.05296 0.0
C229 C 0.95273 0.89456 0.17308 0.0
C230 C 1.00535 0.95653 0.09754 0.0
C231 C 0.9988 0.98987 0.27428 0.0
C232 C 0.97013 0.97294 0.40874 0.0
C233 C 0.94701 0.9265 0.35244 0.0
C234 C 0.0351 0.97236 0.94683 0.0
C235 C 0.9624 1.00508 0.60511 0.0
H236 H 0.09789 0.11311 0.43826 0.0
H237 H 1.01274 0.17573 0.15862 0.0
H238 H 0.05469 0.96921 0.45454 0.0
H239 H 0.09292 1.00678 0.3409 0.0
H240 H 0.08254 1.01831 0.6162 0.0
H241 H 0.96757 0.11323 -0.01255 0.0
H242 H 0.95878 0.04345 0.06392 0.0
H243 H 0.9507 0.0952 0.25099 0.0
H244 H 0.98766 0.88431 0.9142 0.0
H245 H 0.92409 0.91594 0.44664 0.0
H246 H 0.03753 1.01562 0.90232 0.0
H247 H 0.03235 0.94768 0.79595 0.0
H248 H 0.05911 0.96583 0.02863 0.0
H249 H 0.94993 0.97796 0.73381 0.0
H250 H 0.94423 0.03255 0.55804 0.0
H251 H 0.98579 0.02959 0.67384 0.0
C252 C 0.59115 0.0851 0.90692 0.0
C253 C 0.57726 0.12958 0.83121 0.0
C254 C 0.57009 0.03663 0.96102 0.0
C255 C 0.53409 0.03184 0.93187 0.0
C256 C 0.52005 0.07695 0.85189 0.0
C257 C 0.54188 0.12511 0.80313 0.0
C258 C 0.58688 0.99231 0.06081 0.0
C259 C 0.48202 0.07725 0.83102 0.0
C260 C 0.48832 0.88681 0.89513 0.0
C261 C 0.46654 0.88316 0.07608 0.0
C262 C 0.51064 0.93438 0.84757 0.0
C263 C 0.51144 0.98003 -0.01484 0.0
C264 C 0.49058 0.97564 0.17403 0.0
C265 C 0.46814 0.92746 0.21608 0.0
C266 C 0.53346 0.9343 0.65088 0.0
C267 C 0.49137 0.02154 0.33286 0.0
H268 H 0.61841 0.08956 0.93981 0.0
H269 H 0.53099 0.16055 0.75662 0.0
H270 H 0.56887 0.96307 0.15576 0.0
H271 H 0.59812 0.97034 0.92943 0.0
H272 H 0.60825 1.00966 0.17021 0.0
H273 H 0.47627 0.09708 0.67678 0.0
H274 H 0.4665 0.03652 0.83684 0.0
H275 H 0.47375 0.10199 0.96488 0.0
H276 H 0.48768 0.85237 0.78724 0.0
H277 H 0.45142 0.92497 0.35619 0.0
H278 H 0.55641 0.91653 0.69736 0.0
H279 H 0.54207 0.9752 0.58496 0.0
H280 H 0.52034 0.90846 0.51923 0.0
H281 H 0.51677 0.04749 0.34006 0.0
H282 H 0.48473 1.00558 0.49749 0.0
H283 H 0.47183 0.04659 0.28546 0.0
C284 C 0.97674 0.62731 0.17524 0.0
C285 C 0.98565 0.66312 0.34828 0.0
C286 C 0.99388 0.58288 0.14048 0.0
C287 C 0.02034 0.57336 0.28583 0.0
C288 C 0.02832 0.60845 0.46649 0.0
C289 C 1.01133 0.65327 0.4931 0.0
C290 C 0.98313 0.54659 0.94773 0.0
C291 C 0.05501 0.59968 0.63208 0.0
C292 C 0.0429 0.43106 0.23296 0.0
C293 C 0.07491 0.44104 0.13203 0.0
C294 C 0.02533 0.47371 0.29066 0.0
C295 C 0.04011 0.52787 0.24574 0.0
C296 C 0.07356 0.53803 0.15616 0.0
C297 C 0.09017 0.49454 0.0979 0.0
C298 C 0.9909 0.45992 0.39846 0.0
C299 C 0.0931 0.59421 0.12622 0.0
H300 H 0.9571 0.63484 0.06285 0.0
H301 H 1.01801 0.68075 0.62852 0.0
H302 H 1.00399 0.52563 0.88803 0.0
H303 H 0.96137 0.51561 -0.00384 0.0
H304 H 0.9741 0.56973 0.81113 0.0
H305 H 0.04896 0.61636 0.79193 0.0
H306 H 0.05701 0.55632 0.65183 0.0
H307 H 0.08023 0.62149 0.58077 0.0
H308 H 0.03128 0.38972 0.2629 0.0
H309 H 0.11558 0.50251 0.02829 0.0
H310 H 0.97102 0.44907 0.27128 0.0
H311 H 0.98406 0.49386 0.49623 0.0
H312 H 0.99038 0.42432 0.50621 0.0
H313 H 0.10712 0.59709 0.96948 0.0
H314 H 0.11273 0.60224 0.25675 0.0
H315 H 0.07681 0.62629 0.13245 0.0
C316 C 0.45358 0.5417 0.15115 0.0
C317 C 0.45567 0.59242 0.24941 0.0
C318 C 0.47188 0.50229 0.23278 0.0
C319 C 0.4917 0.51202 0.42543 0.0
C320 C 0.49262 0.5627 0.53218 0.0
C321 C 0.47523 0.60236 0.44078 0.0
C322 C 0.47041 0.45146 0.10274 0.0
C323 C 0.51257 0.5766 0.7402 0.0
C324 C 0.51655 0.3891 0.71952 0.0
C325 C 0.55203 0.40342 0.73632 0.0
C326 C 0.49658 0.42132 0.60343 0.0
C327 C 0.51248 0.4709 0.51038 0.0
C328 C 0.54884 0.48202 0.50757 0.0
C329 C 0.56805 0.44851 0.62243 0.0
C330 C 0.45854 0.40153 0.58663 0.0
C331 C 0.56812 0.52847 0.38102 0.0
H332 H 0.43811 0.53285 0.00581 0.0
H333 H 0.47739 0.6415 0.51885 0.0
H334 H 0.49213 0.42944 0.13452 0.0
H335 H 0.44583 0.42475 0.13327 0.0
H336 H 0.47035 0.46265 0.93013 0.0
H337 H 0.49997 0.60406 0.84343 0.0
H338 H 0.51576 0.5404 0.8364 0.0
H339 H 0.53827 0.59858 0.69979 0.0
H340 H 0.50442 0.35234 0.79707 0.0
H341 H 0.59573 0.45801 0.6257 0.0
H342 H 0.45365 0.37364 0.44572 0.0
H343 H 0.44338 0.43483 0.5665 0.0
H344 H 0.44906 0.37781 0.73242 0.0
H345 H 0.58956 0.51482 0.29129 0.0
H346 H 0.5797 0.56042 0.49593 0.0
H347 H 0.55183 0.54598 0.26188 0.0
loop_
_geom_bond_atom_site_label_1
_geom_bond_atom_site_label_2
_geom_bond_distance
_geom_bond_site_symmetry_2
_ccdc_geom_bond_type
Cu0 N1 1.999 . S
Cu0 O6 1.974 . S
Cu0 N11 1.985 . S
Cu0 O20 1.959 . S
N1 Cu0 1.999 . S
N1 C3 1.263 . S
N1 C5 1.389 . S
N2 C3 1.358 . S
N2 C4 1.400 . S
C3 N1 1.263 . S
C3 N2 1.358 . S
C3 H9 0.930 . S
C4 N2 1.400 . S
C4 C5 1.351 . S
C4 H21 0.930 . S
C5 N1 1.389 . S
C5 C4 1.351 . S
C5 H10 0.930 . S
O6 Cu0 1.974 . S
O6 C16 1.282 . S
C7 O8 1.261 . S
C7 O20 1.251 . S
O8 C7 1.261 . S
H9 C3 0.930 . S
H10 C5 0.930 . S
N11 Cu0 1.985 . S
N11 C13 1.335 . S
N11 C14 1.390 . S
N12 C13 1.345 . S
N12 C15 1.336 . S
C13 N11 1.335 . S
C13 N12 1.345 . S
C13 H18 0.930 . S
C14 N11 1.390 . S
C14 C15 1.346 . S
C14 H19 0.930 . S
C15 N12 1.336 . S
C15 C14 1.346 . S
C15 H22 0.929 . S
C16 O6 1.282 . S
C16 O17 1.216 1_554 S
O17 C16 1.216 1_556 S
H18 C13 0.930 . S
H19 C14 0.930 . S
O20 Cu0 1.959 . S
O20 C7 1.251 . S
H21 C4 0.930 . S
H22 C15 0.929 . S
Cu23 N24 1.999 . S
Cu23 O29 1.974 . S
Cu23 N34 1.985 . S
Cu23 O43 1.959 . S
N24 Cu23 1.999 . S
N24 C26 1.263 . S
N24 C28 1.389 . S
N25 C26 1.358 . S
N25 C27 1.400 . S
C26 N24 1.263 . S
C26 N25 1.358 . S
C26 H32 0.930 . S
C27 N25 1.400 . S
C27 C28 1.351 . S
C27 H44 0.930 . S
C28 N24 1.389 . S
C28 C27 1.351 . S
C28 H33 0.930 . S
O29 Cu23 1.974 . S
O29 C39 1.282 . S
C30 O31 1.261 . S
C30 O43 1.251 . S
O31 C30 1.261 . S
H32 C26 0.930 . S
H33 C28 0.930 . S
N34 Cu23 1.985 . S
N34 C36 1.335 . S
N34 C37 1.390 . S
N35 C36 1.345 . S
N35 C38 1.336 . S
C36 N34 1.335 . S
C36 N35 1.345 . S
C36 H41 0.930 . S
C37 N34 1.390 . S
C37 C38 1.346 . S
C37 H42 0.930 . S
C38 N35 1.336 . S
C38 C37 1.346 . S
C38 H45 0.929 . S
C39 O29 1.282 . S
C39 O40 1.216 1_554 S
O40 C39 1.216 1_556 S
H41 C36 0.930 . S
H42 C37 0.930 . S
O43 Cu23 1.959 . S
O43 C30 1.251 . S
H44 C27 0.930 . S
H45 C38 0.929 . S
Cu46 N47 1.999 . S
Cu46 O52 1.974 . S
Cu46 N57 1.985 . S
Cu46 O66 1.959 . S
N47 Cu46 1.999 . S
N47 C49 1.263 . S
N47 C51 1.389 . S
N48 C49 1.358 . S
N48 C50 1.400 . S
C49 N47 1.263 . S
C49 N48 1.358 . S
C49 H55 0.930 . S
C50 N48 1.400 . S
C50 C51 1.351 . S
C50 H67 0.930 . S
C51 N47 1.389 . S
C51 C50 1.351 . S
C51 H56 0.930 . S
O52 Cu46 1.974 . S
O52 C62 1.282 . S
C53 O54 1.261 . S
C53 O66 1.251 . S
O54 C53 1.261 . S
H55 C49 0.930 . S
H56 C51 0.930 . S
N57 Cu46 1.985 . S
N57 C59 1.335 . S
N57 C60 1.390 . S
N58 C59 1.345 . S
N58 C61 1.336 . S
C59 N57 1.335 . S
C59 N58 1.345 . S
C59 H64 0.930 . S
C60 N57 1.390 . S
C60 C61 1.346 . S
C60 H65 0.930 . S
C61 N58 1.336 . S
C61 C60 1.346 . S
C61 H68 0.929 . S
C62 O52 1.282 . S
C62 O63 1.216 1_556 S
O63 C62 1.216 1_554 S
H64 C59 0.930 . S
H65 C60 0.930 . S
O66 Cu46 1.959 . S
O66 C53 1.251 . S
H67 C50 0.930 . S
H68 C61 0.929 . S
Cu69 N70 1.999 . S
Cu69 O75 1.974 . S
Cu69 N80 1.985 . S
Cu69 O89 1.959 . S
N70 Cu69 1.999 . S
N70 C72 1.263 . S
N70 C74 1.389 . S
N71 C72 1.358 . S
N71 C73 1.400 . S
C72 N70 1.263 . S
C72 N71 1.358 . S
C72 H78 0.930 . S
C73 N71 1.400 . S
C73 C74 1.351 . S
C73 H90 0.930 . S
C74 N70 1.389 . S
C74 C73 1.351 . S
C74 H79 0.930 . S
O75 Cu69 1.974 . S
O75 C85 1.282 . S
C76 O77 1.261 . S
C76 O89 1.251 . S
O77 C76 1.261 . S
H78 C72 0.930 . S
H79 C74 0.930 . S
N80 Cu69 1.985 . S
N80 C82 1.335 . S
N80 C83 1.390 . S
N81 C82 1.345 . S
N81 C84 1.336 . S
C82 N80 1.335 . S
C82 N81 1.345 . S
C82 H87 0.930 . S
C83 N80 1.390 . S
C83 C84 1.346 . S
C83 H88 0.930 . S
C84 N81 1.336 . S
C84 C83 1.346 . S
C84 H91 0.929 . S
C85 O75 1.282 . S
C85 O86 1.216 1_556 S
O86 C85 1.216 1_554 S
H87 C82 0.930 . S
H88 C83 0.930 . S
O89 Cu69 1.959 . S
O89 C76 1.251 . S
H90 C73 0.930 . S
H91 C84 0.929 . S
C92 C93 1.391 . S
C92 C94 1.394 . S
C92 H108 0.931 . S
C93 C92 1.391 . S
C93 C97 1.376 . S
C94 C92 1.394 . S
C94 C95 1.369 . S
C94 C98 1.531 . S
C95 C94 1.369 . S
C95 C96 1.410 . S
C95 C103 1.503 1_565 S
C96 C95 1.410 . S
C96 C97 1.392 . S
C96 C99 1.511 1_565 S
C97 C93 1.376 . S
C97 C96 1.392 . S
C97 H109 0.929 . S
C98 C94 1.531 . S
C98 H110 0.960 . S
C98 H111 0.962 . S
C98 H112 0.960 . S
C99 C96 1.511 1_545 S
C99 H113 0.961 . S
C99 H114 0.961 . S
C99 H115 0.961 . S
C100 C101 1.370 . S
C100 C102 1.363 . S
C100 H116 0.931 1_554 S
C101 C100 1.370 . S
C101 C105 1.408 . S
C102 C100 1.363 . S
C102 C103 1.370 . S
C102 C106 1.524 1_554 S
C103 C95 1.503 1_545 S
C103 C102 1.370 . S
C103 C104 1.403 . S
C104 C103 1.403 . S
C104 C105 1.404 . S
C104 C107 1.539 . S
C105 C101 1.408 . S
C105 C104 1.404 . S
C105 H117 0.930 . S
C106 C102 1.524 1_556 S
C106 H118 0.956 1_545 S
C106 H119 0.961 . S
C106 H120 0.961 . S
C107 C104 1.539 . S
C107 H121 0.958 1_545 S
C107 H122 0.961 . S
C107 H123 0.960 1_545 S
H108 C92 0.931 . S
H109 C97 0.929 . S
H110 C98 0.960 . S
H111 C98 0.962 . S
H112 C98 0.960 . S
H113 C99 0.961 . S
H114 C99 0.961 . S
H115 C99 0.961 . S
H116 C100 0.931 1_556 S
H117 C105 0.930 . S
H118 C106 0.956 1_565 S
H119 C106 0.961 . S
H120 C106 0.961 . S
H121 C107 0.958 1_565 S
H122 C107 0.961 . S
H123 C107 0.960 1_565 S
C124 C125 1.391 . S
C124 C126 1.394 . S
C124 H140 0.931 . S
C125 C124 1.391 . S
C125 C129 1.376 . S
C126 C124 1.394 . S
C126 C127 1.369 . S
C126 C130 1.531 . S
C127 C126 1.369 . S
C127 C128 1.410 . S
C127 C135 1.503 . S
C128 C127 1.410 . S
C128 C129 1.392 . S
C128 C131 1.511 . S
C129 C125 1.376 . S
C129 C128 1.392 . S
C129 H141 0.929 . S
C130 C126 1.531 . S
C130 H142 0.960 . S
C130 H143 0.962 . S
C130 H144 0.960 . S
C131 C128 1.511 . S
C131 H145 0.961 . S
C131 H146 0.961 . S
C131 H147 0.961 . S
C132 C133 1.370 . S
C132 C134 1.363 . S
C132 H148 0.931 1_554 S
C133 C132 1.370 . S
C133 C137 1.408 . S
C134 C132 1.363 . S
C134 C135 1.370 . S
C134 C138 1.524 1_554 S
C135 C127 1.503 . S
C135 C134 1.370 . S
C135 C136 1.403 . S
C136 C135 1.403 . S
C136 C137 1.404 . S
C136 C139 1.539 . S
C137 C133 1.408 . S
C137 C136 1.404 . S
C137 H149 0.930 . S
C138 C134 1.524 1_556 S
C138 H150 0.956 . S
C138 H151 0.961 . S
C138 H152 0.961 . S
C139 C136 1.539 . S
C139 H153 0.958 . S
C139 H154 0.961 . S
C139 H155 0.960 . S
H140 C124 0.931 . S
H141 C129 0.929 . S
H142 C130 0.960 . S
H143 C130 0.962 . S
H144 C130 0.960 . S
H145 C131 0.961 . S
H146 C131 0.961 . S
H147 C131 0.961 . S
H148 C132 0.931 1_556 S
H149 C137 0.930 . S
H150 C138 0.956 . S
H151 C138 0.961 . S
H152 C138 0.961 . S
H153 C139 0.958 . S
H154 C139 0.961 . S
H155 C139 0.960 . S
C156 C157 1.391 . S
C156 C158 1.394 . S
C156 H172 0.931 . S
C157 C156 1.391 . S
C157 C161 1.376 . S
C158 C156 1.394 . S
C158 C159 1.369 . S
C158 C162 1.531 1_556 S
C159 C158 1.369 . S
C159 C160 1.410 . S
C159 C167 1.503 1_545 S
C160 C159 1.410 . S
C160 C161 1.392 . S
C160 C163 1.511 1_545 S
C161 C157 1.376 . S
C161 C160 1.392 . S
C161 H173 0.929 . S
C162 C158 1.531 1_554 S
C162 H174 0.960 . S
C162 H175 0.962 1_554 S
C162 H176 0.960 . S
C163 C160 1.511 1_565 S
C163 H177 0.961 . S
C163 H178 0.961 . S
C163 H179 0.961 . S
C164 C165 1.370 . S
C164 C166 1.363 . S
C164 H180 0.931 . S
C165 C164 1.370 . S
C165 C169 1.408 . S
C166 C164 1.363 . S
C166 C167 1.370 . S
C166 C170 1.524 1_565 S
C167 C159 1.503 1_565 S
C167 C166 1.370 . S
C167 C168 1.403 . S
C168 C167 1.403 . S
C168 C169 1.404 . S
C168 C171 1.539 1_556 S
C169 C165 1.408 . S
C169 C168 1.404 . S
C169 H181 0.930 1_556 S
C170 C166 1.524 1_545 S
C170 H182 0.956 . S
C170 H183 0.961 . S
C170 H184 0.961 . S
C171 C168 1.539 1_554 S
C171 H185 0.958 . S
C171 H186 0.961 . S
C171 H187 0.960 . S
H172 C156 0.931 . S
H173 C161 0.929 . S
H174 C162 0.960 . S
H175 C162 0.962 1_556 S
H176 C162 0.960 . S
H177 C163 0.961 . S
H178 C163 0.961 . S
H179 C163 0.961 . S
H180 C164 0.931 . S
H181 C169 0.930 1_554 S
H182 C170 0.956 . S
H183 C170 0.961 . S
H184 C170 0.961 . S
H185 C171 0.958 . S
H186 C171 0.961 . S
H187 C171 0.960 . S
C188 C189 1.391 . S
C188 C190 1.394 . S
C188 H204 0.931 . S
C189 C188 1.391 . S
C189 C193 1.376 . S
C190 C188 1.394 . S
C190 C191 1.369 . S
C190 C194 1.531 . S
C191 C190 1.369 . S
C191 C192 1.410 . S
C191 C199 1.503 . S
C192 C191 1.410 . S
C192 C193 1.392 . S
C192 C195 1.511 1_556 S
C193 C189 1.376 . S
C193 C192 1.392 . S
C193 H205 0.929 1_556 S
C194 C190 1.531 . S
C194 H206 0.960 . S
C194 H207 0.962 . S
C194 H208 0.960 . S
C195 C192 1.511 1_554 S
C195 H209 0.961 . S
C195 H210 0.961 . S
C195 H211 0.961 . S
C196 C197 1.370 . S
C196 C198 1.363 . S
C196 H212 0.931 . S
C197 C196 1.370 . S
C197 C201 1.408 . S
C198 C196 1.363 . S
C198 C199 1.370 . S
C198 C202 1.524 . S
C199 C191 1.503 . S
C199 C198 1.370 . S
C199 C200 1.403 . S
C200 C199 1.403 . S
C200 C201 1.404 . S
C200 C203 1.539 . S
C201 C197 1.408 . S
C201 C200 1.404 . S
C201 H213 0.930 . S
C202 C198 1.524 . S
C202 H214 0.956 . S
C202 H215 0.961 1_556 S
C202 H216 0.959 1_556 S
C203 C200 1.539 . S
C203 H217 0.958 . S
C203 H218 0.961 . S
C203 H219 0.960 . S
H204 C188 0.931 . S
H205 C193 0.929 1_554 S
H206 C194 0.960 . S
H207 C194 0.962 . S
H208 C194 0.960 . S
H209 C195 0.961 . S
H210 C195 0.961 . S
H211 C195 0.961 . S
H212 C196 0.931 . S
H213 C201 0.930 . S
H214 C202 0.956 . S
H215 C202 0.961 1_554 S
H216 C202 0.959 1_554 S
H217 C203 0.958 . S
H218 C203 0.961 . S
H219 C203 0.960 . S
C220 C221 1.391 . S
C220 C222 1.394 . S
C220 H236 0.931 . S
C221 C220 1.391 . S
C221 C225 1.376 . S
C222 C220 1.394 . S
C222 C223 1.369 . S
C222 C226 1.531 1_545 S
C223 C222 1.369 . S
C223 C224 1.410 1_554 S
C223 C231 1.503 1_445 S
C224 C223 1.410 1_556 S
C224 C225 1.392 1_556 S
C224 C227 1.511 1_455 S
C225 C221 1.376 . S
C225 C224 1.392 1_554 S
C225 H237 0.929 1_554 S
C226 C222 1.531 1_565 S
C226 H238 0.960 . S
C226 H239 0.962 . S
C226 H240 0.960 . S
C227 C224 1.511 1_655 S
C227 H241 0.961 . S
C227 H242 0.961 . S
C227 H243 0.961 . S
C228 C229 1.370 . S
C228 C230 1.363 . S
C228 H244 0.931 . S
C229 C228 1.370 . S
C229 C233 1.408 1_556 S
C230 C228 1.363 . S
C230 C231 1.370 1_556 S
C230 C234 1.524 1_655 S
C231 C223 1.503 1_665 S
C231 C230 1.370 1_554 S
C231 C232 1.403 . S
C232 C231 1.403 . S
C232 C233 1.404 . S
C232 C235 1.539 . S
C233 C229 1.408 1_554 S
C233 C232 1.404 . S
C233 H245 0.930 . S
C234 C230 1.524 1_455 S
C234 H246 0.956 . S
C234 H247 0.961 1_565 S
C234 H248 0.961 . S
C235 C232 1.539 . S
C235 H249 0.958 . S
C235 H250 0.961 . S
C235 H251 0.960 1_565 S
H236 C220 0.931 . S
H237 C225 0.929 1_556 S
H238 C226 0.960 . S
H239 C226 0.962 . S
H240 C226 0.960 . S
H241 C227 0.961 . S
H242 C227 0.961 . S
H243 C227 0.961 . S
H244 C228 0.931 . S
H245 C233 0.930 . S
H246 C234 0.956 . S
H247 C234 0.961 1_545 S
H248 C234 0.961 . S
H249 C235 0.958 . S
H250 C235 0.961 . S
H251 C235 0.960 1_545 S
C252 C253 1.391 1_554 S
C252 C254 1.394 . S
C252 H268 0.931 . S
C253 C252 1.391 1_556 S
C253 C257 1.376 . S
C254 C252 1.394 . S
C254 C255 1.369 . S
C254 C258 1.531 1_545 S
C255 C254 1.369 . S
C255 C256 1.410 1_554 S
C255 C263 1.503 1_545 S
C256 C255 1.410 1_556 S
C256 C257 1.392 . S
C256 C259 1.511 . S
C257 C253 1.376 . S
C257 C256 1.392 . S
C257 H269 0.929 . S
C258 C254 1.531 1_565 S
C258 H270 0.960 . S
C258 H271 0.962 . S
C258 H272 0.960 . S
C259 C256 1.511 . S
C259 H273 0.961 . S
C259 H274 0.961 . S
C259 H275 0.961 1_556 S
C260 C261 1.370 1_556 S
C260 C262 1.363 . S
C260 H276 0.931 . S
C261 C260 1.370 1_554 S
C261 C265 1.408 . S
C262 C260 1.363 . S
C262 C263 1.370 1_556 S
C262 C266 1.524 . S
C263 C255 1.503 1_565 S
C263 C262 1.370 1_554 S
C263 C264 1.403 . S
C264 C263 1.403 . S
C264 C265 1.404 . S
C264 C267 1.539 1_565 S
C265 C261 1.408 . S
C265 C264 1.404 . S
C265 H277 0.930 . S
C266 C262 1.524 . S
C266 H278 0.956 . S
C266 H279 0.961 . S
C266 H280 0.961 . S
C267 C264 1.539 1_545 S
C267 H281 0.958 . S
C267 H282 0.961 . S
C267 H283 0.960 . S
H268 C252 0.931 . S
H269 C257 0.929 . S
H270 C258 0.960 . S
H271 C258 0.962 . S
H272 C258 0.960 . S
H273 C259 0.961 . S
H274 C259 0.961 . S
H275 C259 0.961 1_554 S
H276 C260 0.931 . S
H277 C265 0.930 . S
H278 C266 0.956 . S
H279 C266 0.961 . S
H280 C266 0.961 . S
H281 C267 0.958 . S
H282 C267 0.961 . S
H283 C267 0.960 . S
C284 C285 1.391 . S
C284 C286 1.394 . S
C284 H300 0.931 . S
C285 C284 1.391 . S
C285 C289 1.376 . S
C286 C284 1.394 . S
C286 C287 1.369 . S
C286 C290 1.531 . S
C287 C286 1.369 . S
C287 C288 1.410 1_655 S
C287 C295 1.503 1_655 S
C288 C287 1.410 1_455 S
C288 C289 1.392 1_455 S
C288 C291 1.511 . S
C289 C285 1.376 . S
C289 C288 1.392 1_655 S
C289 H301 0.929 . S
C290 C286 1.531 . S
C290 H302 0.960 . S
C290 H303 0.962 . S
C290 H304 0.960 . S
C291 C288 1.511 . S
C291 H305 0.961 . S
C291 H306 0.961 . S
C291 H307 0.961 . S
C292 C293 1.370 . S
C292 C294 1.363 . S
C292 H308 0.931 . S
C293 C292 1.370 . S
C293 C297 1.408 . S
C294 C292 1.363 . S
C294 C295 1.370 . S
C294 C298 1.524 1_455 S
C295 C287 1.503 1_455 S
C295 C294 1.370 . S
C295 C296 1.403 . S
C296 C295 1.403 . S
C296 C297 1.404 . S
C296 C299 1.539 . S
C297 C293 1.408 . S
C297 C296 1.404 . S
C297 H309 0.930 . S
C298 C294 1.524 1_655 S
C298 H310 0.956 . S
C298 H311 0.961 . S
C298 H312 0.961 . S
C299 C296 1.539 . S
C299 H313 0.958 . S
C299 H314 0.961 . S
C299 H315 0.960 . S
H300 C284 0.931 . S
H301 C289 0.929 . S
H302 C290 0.960 . S
H303 C290 0.962 . S
H304 C290 0.960 . S
H305 C291 0.961 . S
H306 C291 0.961 . S
H307 C291 0.961 . S
H308 C292 0.931 . S
H309 C297 0.930 . S
H310 C298 0.956 . S
H311 C298 0.961 . S
H312 C298 0.961 . S
H313 C299 0.958 . S
H314 C299 0.961 . S
H315 C299 0.960 . S
C316 C317 1.391 . S
C316 C318 1.394 . S
C316 H332 0.931 . S
C317 C316 1.391 . S
C317 C321 1.376 . S
C318 C316 1.394 . S
C318 C319 1.369 . S
C318 C322 1.531 . S
C319 C318 1.369 . S
C319 C320 1.410 . S
C319 C327 1.503 . S
C320 C319 1.410 . S
C320 C321 1.392 . S
C320 C323 1.511 . S
C321 C317 1.376 . S
C321 C320 1.392 . S
C321 H333 0.929 . S
C322 C318 1.531 . S
C322 H334 0.960 . S
C322 H335 0.962 . S
C322 H336 0.960 1_554 S
C323 C320 1.511 . S
C323 H337 0.961 . S
C323 H338 0.961 . S
C323 H339 0.961 . S
C324 C325 1.370 . S
C324 C326 1.363 . S
C324 H340 0.931 . S
C325 C324 1.370 . S
C325 C329 1.408 . S
C326 C324 1.363 . S
C326 C327 1.370 . S
C326 C330 1.524 . S
C327 C319 1.503 . S
C327 C326 1.370 . S
C327 C328 1.403 . S
C328 C327 1.403 . S
C328 C329 1.404 . S
C328 C331 1.539 . S
C329 C325 1.408 . S
C329 C328 1.404 . S
C329 H341 0.930 . S
C330 C326 1.524 . S
C330 H342 0.956 . S
C330 H343 0.961 . S
C330 H344 0.961 . S
C331 C328 1.539 . S
C331 H345 0.958 . S
C331 H346 0.961 . S
C331 H347 0.960 . S
H332 C316 0.931 . S
H333 C321 0.929 . S
H334 C322 0.960 . S
H335 C322 0.962 . S
H336 C322 0.960 1_556 S
H337 C323 0.961 . S
H338 C323 0.961 . S
H339 C323 0.961 . S
H340 C324 0.931 . S
H341 C329 0.930 . S
H342 C330 0.956 . S
H343 C330 0.961 . S
H344 C330 0.961 . S
H345 C331 0.958 . S
H346 C331 0.961 . S
H347 C331 0.960 . S
C93 N25 1.418 . S
C101 N2 1.441 . S
C125 C7 1.491 . S
C133 C30 1.493 . S
C157 N71 1.476 . S
C165 N48 1.452 . S
C189 C53 1.493 . S
C197 C76 1.489 . S
C221 C16 1.487 . S
C229 C62 1.480 . S
C253 C85 1.461 . S
C261 C39 1.490 . S
C285 N58 1.449 . S
C293 N12 1.476 . S
C317 N35 1.443 . S
C325 N81 1.478 . S
