# Generated by pormake.
# Topology rob, (6)-cn, num edge types: 1
# Building blocks:
#     Node 0, Type 0, BuildingBlock: KUMBOL_clean_sbu_1, # of connection points: 6
#     Node 1, Type 0, BuildingBlock: KUMBOL_clean_sbu_1, # of connection points: 6
#     Node 2, Type 0, BuildingBlock: KUMBOL_clean_sbu_1, # of connection points: 6
#     Node 3, Type 0, BuildingBlock: KUMBOL_clean_sbu_1, # of connection points: 6
#     Edge 4, Type (0, 0), BuildingBlock: ZUJKAS_clean_linker_0, # of connection points: 2
#     Edge 5, Type (0, 0), BuildingBlock: ZUJKAS_clean_linker_0, # of connection points: 2
#     Edge 6, Type (0, 0), BuildingBlock: ZUJKAS_clean_linker_0, # of connection points: 2
#     Edge 7, Type (0, 0), BuildingBlock: ZUJKAS_clean_linker_0, # of connection points: 2
#     Edge 8, Type (0, 0), BuildingBlock: ZUJKAS_clean_linker_0, # of connection points: 2
#     Edge 9, Type (0, 0), BuildingBlock: ZUJKAS_clean_linker_0, # of connection points: 2
#     Edge 10, Type (0, 0), BuildingBlock: ZUJKAS_clean_linker_0, # of connection points: 2
#     Edge 11, Type (0, 0), BuildingBlock: ZUJKAS_clean_linker_0, # of connection points: 2
#     Edge 12, Type (0, 0), BuildingBlock: ZUJKAS_clean_linker_0, # of connection points: 2
#     Edge 13, Type (0, 0), BuildingBlock: ZUJKAS_clean_linker_0, # of connection points: 2
#     Edge 14, Type (0, 0), BuildingBlock: ZUJKAS_clean_linker_0, # of connection points: 2
#     Edge 15, Type (0, 0), BuildingBlock: ZUJKAS_clean_linker_0, # of connection points: 2
# Relax obj value: 0.017
# Max RMSD: 0.099
# Mean RMSD: 0.099
data_MOF--net-rob--node1-KUMBOL_clean_sbu_1--edge1-ZUJKAS_clean_linker_0
_symmetry_space_group_name_H-M    P1
_symmetry_Int_Tables_number       1
_symmetry_cell_setting            triclinic
loop_
_symmetry_equiv_pos_as_xyz
'x, y, z'
_cell_length_a     23.270908
_cell_length_b     31.241184
_cell_length_c     41.750892
_cell_angle_alpha  108.5947
_cell_angle_beta   90.028381
_cell_angle_gamma 90.021503
loop_
_atom_site_label
_atom_site_type_symbol
_atom_site_fract_x
_atom_site_fract_y
_atom_site_fract_z
_atom_type_partial_charge
C0 C 0.11316 0.35644 0.01198 0.0
C1 C 0.0258 0.31289 0.99423 0.0
C2 C 0.08142 0.31743 1.00843 0.0
C3 C 0.00359 0.34714 0.98268 0.0
C4 C 0.09079 0.39106 1.00069 0.0
C5 C 0.03597 0.38609 0.9859 0.0
N6 N 0.16695 0.35971 0.02532 0.0
C7 C 0.19987 0.39715 0.02916 0.0
C8 C 0.12462 0.42937 1.00415 0.0
C9 C 0.17931 0.43247 0.01855 0.0
Gd10 Gd 0.3035 0.21029 0.97622 0.0
Gd11 Gd 0.19791 0.29887 0.0422 0.0
N12 N 0.10445 0.28439 0.01934 0.0
C13 C 0.99363 0.27446 0.99269 0.0
C14 C 0.0711 0.24903 0.02062 0.0
C15 C 0.01599 0.24283 1.00654 0.0
H16 H 0.08547 0.22635 0.0336 0.0
H17 H 0.99032 0.21415 1.00704 0.0
H18 H 0.41659 0.28207 0.98427 0.0
H19 H 0.24179 0.3999 0.04071 0.0
H20 H 0.51271 0.2929 1.00958 0.0
H21 H 0.95074 0.26973 0.98202 0.0
H22 H 0.96111 0.34402 0.97152 0.0
H23 H 0.25893 0.10923 0.97732 0.0
H24 H 0.10896 0.45668 0.99576 0.0
H25 H 0.20562 0.46206 0.0215 0.0
H26 H 0.54201 0.16176 0.0435 0.0
H27 H 0.01818 0.41222 0.97691 0.0
H28 H 0.39261 0.05042 0.02012 0.0
H29 H 0.29518 0.04627 0.99553 0.0
N30 N 0.33445 0.14873 0.9922 0.0
C31 C 0.38862 0.15134 1.00492 0.0
C32 C 0.30115 0.1115 0.98843 0.0
C33 C 0.37689 0.07811 0.0122 0.0
C34 C 0.32177 0.0757 0.99845 0.0
C35 C 0.41109 0.1162 0.01559 0.0
H36 H 0.48425 0.09393 0.03823 0.0
N37 N 0.39772 0.2236 0.99802 0.0
C38 C 0.42079 0.19011 1.00838 0.0
C39 C 0.5094 0.23216 0.02335 0.0
C40 C 0.47687 0.19394 0.0219 0.0
C41 C 0.43125 0.25887 0.99672 0.0
C42 C 0.48684 0.26434 0.01012 0.0
O43 O 0.20045 0.29815 0.98753 0.0
O44 O 0.21624 0.22375 0.95787 0.0
O45 O 0.34777 0.21281 0.93021 0.0
O46 O 0.31155 0.14967 0.93329 0.0
O47 O 0.18898 0.22421 0.03631 0.0
O48 O 0.2132 0.18692 0.98067 0.0
O49 O 0.30273 0.21125 0.03097 0.0
O50 O 0.28453 0.2853 0.06131 0.0
O51 O 0.15098 0.29716 0.08758 0.0
O52 O 0.1895 0.35976 0.08495 0.0
O53 O 0.31333 0.28508 0.98281 0.0
O54 O 0.2883 0.32263 0.03836 0.0
C55 C 0.19553 0.2635 0.95983 0.0
C56 C 0.18674 0.18853 1.00888 0.0
C57 C 0.35882 0.14478 0.88049 0.0
C58 C 0.3995 0.14228 0.82577 0.0
C59 C 0.3677 0.07318 0.83533 0.0
C60 C 0.35137 0.09767 0.86815 0.0
C61 C 0.39141 0.09521 0.81425 0.0
C62 C 0.38357 0.16701 0.85923 0.0
C63 C 0.33924 0.16982 0.91519 0.0
C64 C 0.49917 0.1592 0.03286 0.0
C65 C 0.46639 0.12046 0.02972 0.0
H66 H 0.55266 0.23633 0.0335 0.0
C67 C 0.30651 0.24573 0.05891 0.0
C68 C 0.31573 0.32064 0.01034 0.0
C69 C 0.13884 0.36546 0.13694 0.0
C70 C 0.08857 0.36938 0.18938 0.0
C71 C 0.12632 0.43764 0.18105 0.0
C72 C 0.14687 0.41251 0.1493 0.0
C73 C 0.09725 0.41637 0.20092 0.0
C74 C 0.10997 0.34385 0.15731 0.0
C75 C 0.15977 0.34011 0.10259 0.0
H76 H 0.36185 0.03692 0.82616 0.0
H77 H 0.33273 0.07958 0.88384 0.0
H78 H 0.40407 0.07524 0.78893 0.0
H79 H 0.38926 0.20333 0.86834 0.0
H80 H 0.1328 0.47384 0.19028 0.0
H81 H 0.16881 0.43011 0.13432 0.0
H82 H 0.08196 0.43671 0.22559 0.0
H83 H 0.10326 0.30764 0.14811 0.0
C84 C 0.61779 0.86036 0.01623 0.0
C85 C 0.52877 0.81919 0.99835 0.0
C86 C 0.58464 0.82186 0.01201 0.0
C87 C 0.50753 0.85492 0.98816 0.0
C88 C 0.59643 0.89643 1.00627 0.0
C89 C 0.54125 0.89341 0.99212 0.0
N90 N 0.67182 0.8618 0.02897 0.0
C91 C 0.70601 0.89871 0.03344 0.0
C92 C 0.63158 0.93421 0.01037 0.0
C93 C 0.68653 0.93539 0.02412 0.0
Gd94 Gd 0.80609 0.70992 0.97793 0.0
Gd95 Gd 0.70073 0.79885 0.04381 0.0
N96 N 0.60673 0.78735 0.02156 0.0
C97 C 0.49544 0.781 0.99585 0.0
C98 C 0.57255 0.75188 0.02165 0.0
C99 C 0.51709 0.74759 1.00809 0.0
H100 H 0.58658 0.72755 0.0332 0.0
H101 H 0.49067 0.71891 1.00772 0.0
H102 H 0.91816 0.78232 0.9848 0.0
H103 H 0.74801 0.90015 0.04467 0.0
H104 H 0.01319 0.796 0.01149 0.0
H105 H 0.45231 0.77769 0.98554 0.0
H106 H 0.46485 0.85326 0.97744 0.0
H107 H 0.76352 0.60928 0.98087 0.0
H108 H 0.61672 0.96259 1.00301 0.0
H109 H 0.71383 0.96459 0.02762 0.0
H110 H 0.04357 0.6688 0.05004 0.0
H111 H 0.52422 0.92069 0.98417 0.0
H112 H 0.89713 0.55508 0.02714 0.0
H113 H 0.80057 0.54827 1.00112 0.0
N114 N 0.83792 0.65014 0.99582 0.0
C115 C 0.89167 0.65418 1.00929 0.0
C116 C 0.80548 0.61258 0.99244 0.0
C117 C 0.88113 0.58186 0.01825 0.0
C118 C 0.8265 0.57794 1.00368 0.0
C119 C 0.91446 0.62028 0.02123 0.0
H120 H 0.9873 0.60052 0.04566 0.0
N121 N 0.89954 0.7255 1.00065 0.0
C122 C 0.92291 0.69325 0.01229 0.0
C123 C 0.01034 0.73687 0.02734 0.0
C124 C 0.97852 0.69855 0.02654 0.0
C125 C 0.93268 0.76055 0.99851 0.0
C126 C 0.98773 0.76752 0.01264 0.0
O127 O 0.70053 0.79736 0.98892 0.0
O128 O 0.71971 0.72341 0.9585 0.0
O129 O 0.85307 0.71069 0.93236 0.0
O130 O 0.81446 0.64845 0.93563 0.0
O131 O 0.68972 0.7241 0.03701 0.0
O132 O 0.71574 0.68599 0.98166 0.0
O133 O 0.8024 0.71058 0.03255 0.0
O134 O 0.78794 0.78513 0.06206 0.0
O135 O 0.6559 0.79549 0.0895 0.0
O136 O 0.69261 0.85884 0.08713 0.0
O137 O 0.8145 0.78449 0.98345 0.0
O138 O 0.79129 0.82159 0.03921 0.0
C139 C 0.69704 0.76281 0.961 0.0
C140 C 0.68765 0.68838 1.00956 0.0
C141 C 0.86528 0.64186 0.88351 0.0
C142 C 0.91536 0.63725 0.83087 0.0
C143 C 0.87836 0.56925 0.83998 0.0
C144 C 0.85768 0.59475 0.87161 0.0
C145 C 0.90711 0.59021 0.81978 0.0
C146 C 0.89385 0.66313 0.86282 0.0
C147 C 0.84427 0.66767 0.91773 0.0
C148 C 1.00112 0.66508 0.03881 0.0
C149 C 0.96919 0.62608 0.03616 0.0
H150 H 0.05322 0.74216 0.03803 0.0
C151 C 0.80798 0.74522 0.06017 0.0
C152 C 0.81722 0.82012 0.01089 0.0
C153 C 0.64475 0.8632 0.13959 0.0
C154 C 0.60435 0.86545 0.19434 0.0
C155 C 0.6347 0.9348 0.18463 0.0
C156 C 0.65134 0.91038 0.15187 0.0
C157 C 0.61154 0.91262 0.20574 0.0
C158 C 0.62056 0.84077 0.16091 0.0
C159 C 0.66453 0.83839 0.10488 0.0
H160 H 0.87221 0.53301 0.8311 0.0
H161 H 0.83599 0.5774 0.88685 0.0
H162 H 0.92247 0.56958 0.79522 0.0
H163 H 0.90024 0.69939 0.87169 0.0
H164 H 0.63985 0.97113 0.19372 0.0
H165 H 0.66949 0.92863 0.13614 0.0
H166 H 0.59856 0.93258 0.23101 0.0
H167 H 0.61552 0.8044 0.15186 0.0
C168 C 0.10917 0.65368 0.50729 0.0
C169 C 0.02191 0.69786 0.52295 0.0
C170 C 0.07822 0.69268 0.50972 0.0
C171 C 0.99832 0.66439 0.53487 0.0
C172 C 0.08533 0.61972 0.51879 0.0
C173 C 0.02993 0.62545 0.53279 0.0
N174 N 0.16349 0.64966 0.49466 0.0
C175 C 0.1956 0.61209 0.49175 0.0
C176 C 0.11829 0.58128 0.51629 0.0
C177 C 0.17357 0.57741 0.5026 0.0
Gd178 Gd 0.30231 0.79817 0.54342 0.0
Gd179 Gd 0.19691 0.70945 0.4773 0.0
N180 N 0.10245 0.72485 0.49834 0.0
C181 C 0.99037 0.73599 0.52303 0.0
C182 C 0.06969 0.75966 0.4954 0.0
C183 C 0.01398 0.76654 0.50856 0.0
H184 H 0.08508 0.78134 0.48182 0.0
H185 H 0.98882 0.79485 0.50681 0.0
H186 H 0.41579 0.72606 0.5316 0.0
H187 H 0.23805 0.60881 0.48085 0.0
H188 H 0.51051 0.71639 0.50465 0.0
H189 H 0.94699 0.74118 0.53293 0.0
H190 H 0.95531 0.66803 0.54534 0.0
H191 H 0.25549 0.89958 0.54441 0.0
H192 H 0.10149 0.55447 0.52487 0.0
H193 H 0.19923 0.54772 0.50041 0.0
H194 H 0.53579 0.85015 0.47352 0.0
H195 H 0.01103 0.59987 0.54197 0.0
H196 H 0.38554 0.96073 0.50085 0.0
H197 H 0.28936 0.96359 0.5267 0.0
N198 N 0.33105 0.86075 0.52802 0.0
C199 C 0.38463 0.85886 0.51463 0.0
C200 C 0.29714 0.89784 0.53273 0.0
C201 C 0.37087 0.93258 0.50855 0.0
C202 C 0.31644 0.93425 0.52301 0.0
C203 C 0.40572 0.8946 0.50417 0.0
H204 H 0.47709 0.91804 0.48088 0.0
N205 N 0.39549 0.78587 0.52003 0.0
C206 C 0.41741 0.82012 0.51009 0.0
C207 C 0.50561 0.77838 0.49265 0.0
C208 C 0.47265 0.81686 0.49557 0.0
C209 C 0.42946 0.75015 0.51973 0.0
C210 C 0.48429 0.74528 0.50534 0.0
O211 O 0.19881 0.70993 0.53194 0.0
O212 O 0.21565 0.78413 0.5622 0.0
O213 O 0.34986 0.79553 0.58845 0.0
O214 O 0.31048 0.85827 0.58673 0.0
O215 O 0.18824 0.78422 0.48356 0.0
O216 O 0.21162 0.82114 0.5394 0.0
O217 O 0.30083 0.79701 0.48866 0.0
O218 O 0.28411 0.72271 0.45875 0.0
O219 O 0.15337 0.7107 0.43079 0.0
O220 O 0.18893 0.64796 0.43498 0.0
O221 O 0.31258 0.7235 0.53723 0.0
O222 O 0.28688 0.68545 0.48183 0.0
C223 C 0.19458 0.74431 0.55989 0.0
C224 C 0.18506 0.81954 0.5112 0.0
C225 C 0.36153 0.86327 0.63843 0.0
C226 C 0.41205 0.8667 0.69071 0.0
C227 C 0.37314 0.93505 0.68313 0.0
C228 C 0.35282 0.91022 0.65124 0.0
C229 C 0.40266 0.91359 0.7027 0.0
C230 C 0.39087 0.84145 0.65849 0.0
C231 C 0.34063 0.8383 0.60397 0.0
C232 C 0.49362 0.85227 0.48491 0.0
C233 C 0.46028 0.89102 0.48922 0.0
H234 H 0.54823 0.7746 0.48166 0.0
C235 C 0.30578 0.76231 0.461 0.0
C236 C 0.31419 0.68756 0.50993 0.0
C237 C 0.14225 0.64197 0.38173 0.0
C238 C 0.10178 0.63856 0.32673 0.0
C239 C 0.13287 0.56986 0.33717 0.0
C240 C 0.14932 0.59483 0.36988 0.0
C241 C 0.10942 0.59144 0.31572 0.0
C242 C 0.11786 0.66375 0.36007 0.0
C243 C 0.16166 0.66758 0.41636 0.0
H244 H 0.36612 0.97116 0.6927 0.0
H245 H 0.33049 0.92799 0.63651 0.0
H246 H 0.41775 0.9337 0.7275 0.0
H247 H 0.39809 0.80532 0.64895 0.0
H248 H 0.13838 0.53356 0.32838 0.0
H249 H 0.1677 0.57709 0.3859 0.0
H250 H 0.0966 0.57108 0.29051 0.0
H251 H 0.11253 0.70011 0.3688 0.0
C252 C 0.61607 0.14926 0.50614 0.0
C253 C 0.52813 0.19148 0.52493 0.0
C254 C 0.58338 0.18799 0.5104 0.0
C255 C 0.50711 0.15638 0.53593 0.0
C256 C 0.59495 0.11384 0.51695 0.0
C257 C 0.54041 0.11769 0.53195 0.0
N258 N 0.66959 0.14707 0.49262 0.0
C259 C 0.7034 0.10997 0.48812 0.0
C260 C 0.62972 0.07588 0.51283 0.0
C261 C 0.68409 0.07389 0.49824 0.0
Gd262 Gd 0.80407 0.29798 0.54211 0.0
Gd263 Gd 0.69829 0.20907 0.47647 0.0
N264 N 0.60531 0.22192 0.50009 0.0
C265 C 0.49515 0.22984 0.52745 0.0
C266 C 0.5713 0.25744 0.49997 0.0
C267 C 0.51647 0.26255 0.51436 0.0
H268 H 0.58492 0.28114 0.48773 0.0
H269 H 0.49022 0.2913 0.51472 0.0
H270 H 0.91674 0.22634 0.53584 0.0
H271 H 0.745 0.10799 0.47634 0.0
H272 H 0.0127 0.21406 0.51037 0.0
H273 H 0.4525 0.23377 0.5384 0.0
H274 H 0.46491 0.15868 0.54731 0.0
H275 H 0.76105 0.3988 0.53982 0.0
H276 H 0.61502 0.04797 0.52082 0.0
H277 H 0.71109 0.04456 0.49475 0.0
H278 H 0.04341 0.3428 0.47369 0.0
H279 H 0.52356 0.09091 0.54055 0.0
H280 H 0.89561 0.45525 0.49589 0.0
H281 H 0.79825 0.46075 0.52071 0.0
N282 N 0.83604 0.35863 0.52533 0.0
C283 C 0.89016 0.35529 0.51249 0.0
C284 C 0.80329 0.39601 0.5287 0.0
C285 C 0.8795 0.42804 0.50425 0.0
C286 C 0.82442 0.4312 0.51813 0.0
C287 C 0.91313 0.38979 0.50127 0.0
H288 H 0.98658 0.41077 0.47806 0.0
N289 N 0.8983 0.28364 0.52053 0.0
C290 C 0.92176 0.31642 0.5095 0.0
C291 C 0.00995 0.27374 0.4952 0.0
C292 C 0.97784 0.31188 0.49597 0.0
C293 C 0.93157 0.24868 0.52267 0.0
C294 C 0.9871 0.24246 0.50922 0.0
O295 O 0.70083 0.21028 0.53124 0.0
O296 O 0.71695 0.28474 0.56071 0.0
O297 O 0.84807 0.296 0.58834 0.0
O298 O 0.8125 0.35904 0.58472 0.0
O299 O 0.68822 0.28367 0.4824 0.0
O300 O 0.71388 0.32173 0.53777 0.0
O301 O 0.80215 0.29717 0.4874 0.0
O302 O 0.78447 0.22304 0.45704 0.0
O303 O 0.64997 0.21118 0.43158 0.0
O304 O 0.68956 0.14859 0.43347 0.0
O305 O 0.81347 0.2232 0.53566 0.0
O306 O 0.78907 0.18599 0.48 0.0
C307 C 0.696 0.24507 0.55885 0.0
C308 C 0.68657 0.31963 0.50967 0.0
C309 C 0.85957 0.36435 0.63772 0.0
C310 C 0.90029 0.36723 0.69255 0.0
C311 C 0.86871 0.43616 0.68265 0.0
C312 C 0.85228 0.41147 0.64987 0.0
C313 C 0.89236 0.41432 0.70387 0.0
C314 C 0.88426 0.34231 0.65914 0.0
C315 C 0.83989 0.33908 0.60306 0.0
C316 C 1.00059 0.34593 0.48438 0.0
C317 C 0.96834 0.38476 0.48702 0.0
H318 H 0.05319 0.26903 0.48505 0.0
C319 C 0.80612 0.26273 0.45946 0.0
C320 C 0.81636 0.18784 0.50803 0.0
C321 C 0.63736 0.1431 0.38203 0.0
C322 C 0.58666 0.13951 0.32977 0.0
C323 C 0.62333 0.07095 0.3381 0.0
C324 C 0.64453 0.09597 0.36974 0.0
C325 C 0.59448 0.09243 0.31828 0.0
C326 C 0.60868 0.16491 0.36172 0.0
C327 C 0.65895 0.16833 0.41626 0.0
H328 H 0.86299 0.47244 0.69167 0.0
H329 H 0.83368 0.42941 0.63406 0.0
H330 H 0.90509 0.43444 0.72916 0.0
H331 H 0.88983 0.30598 0.65018 0.0
H332 H 0.62915 0.03469 0.32892 0.0
H333 H 0.66627 0.07822 0.38468 0.0
H334 H 0.57871 0.07217 0.29369 0.0
H335 H 0.60264 0.20119 0.37089 0.0
H336 H 0.64159 0.67078 0.06435 0.0
H337 H 0.57858 0.60815 0.06447 0.0
H338 H 0.58798 0.55573 0.95576 0.0
H339 H 0.65037 0.61857 0.95531 0.0
H340 H 0.47499 0.56141 0.98224 0.0
H341 H 0.62373 0.47489 0.04565 0.0
H342 H 0.61319 0.53397 0.06758 0.0
H343 H 0.6479 0.51657 0.02703 0.0
C344 C 0.63043 0.64586 0.04046 0.0
C345 C 0.65105 0.64966 1.00981 0.0
C346 C 0.5947 0.60994 0.0406 0.0
C347 C 0.5792 0.57704 0.01015 0.0
C348 C 0.59968 0.58069 0.97954 0.0
H349 H 0.35971 0.33928 0.95546 0.0
H350 H 0.42255 0.40198 0.95529 0.0
C351 C 0.63548 0.61655 0.97936 0.0
C352 C 0.5402 0.53953 0.01015 0.0
H353 H 0.52776 0.44799 0.03756 0.0
C354 C 0.48655 0.53645 0.99418 0.0
C355 C 0.55544 0.50717 0.02585 0.0
C356 C 0.61337 0.5079 0.04227 0.0
C357 C 0.44724 0.50226 0.99399 0.0
C358 C 0.46249 0.46986 1.00967 0.0
C359 C 0.51616 0.47295 0.02562 0.0
C360 C 0.42352 0.43233 1.00968 0.0
C361 C 0.38924 0.50168 0.97768 0.0
C362 C 0.40403 0.42815 0.04034 0.0
C363 C 0.36845 0.39218 0.04055 0.0
C364 C 0.35203 0.35951 0.01007 0.0
C365 C 0.37156 0.36386 0.97938 0.0
C366 C 0.40716 0.39984 0.97921 0.0
H367 H 0.3787 0.53491 0.97471 0.0
H368 H 0.38951 0.47606 0.95217 0.0
H369 H 0.35479 0.49255 0.99272 0.0
H370 H 0.4164 0.45276 0.06414 0.0
H371 H 0.35441 0.38972 0.06463 0.0
H372 H 0.34971 0.61692 0.4558 0.0
H373 H 0.4119 0.55405 0.45619 0.0
H374 H 0.42463 0.60787 0.56473 0.0
H375 H 0.36166 0.67056 0.5647 0.0
H376 H 0.52513 0.5592 0.48094 0.0
H377 H 0.37967 0.4753 0.54798 0.0
H378 H 0.35462 0.51682 0.52945 0.0
H379 H 0.39146 0.53438 0.56937 0.0
C380 C 0.36523 0.61521 0.47982 0.0
C381 C 0.35057 0.64874 0.51025 0.0
C382 C 0.40094 0.57932 0.47996 0.0
C383 C 0.42234 0.57603 0.5105 0.0
C384 C 0.40776 0.60934 0.54092 0.0
H385 H 0.65032 0.38989 0.56384 0.0
H386 H 0.58801 0.4527 0.56345 0.0
C387 C 0.37205 0.6453 0.54083 0.0
C388 C 0.46139 0.53848 0.51035 0.0
H389 H 0.47526 0.44781 0.53866 0.0
C390 C 0.51418 0.53469 0.49341 0.0
C391 C 0.44697 0.50668 0.52672 0.0
C392 C 0.38991 0.50809 0.54418 0.0
C393 C 0.55344 0.50034 0.49288 0.0
C394 C 0.53901 0.46852 0.50924 0.0
C395 C 0.48621 0.47231 0.52618 0.0
C396 C 0.57808 0.43098 0.50911 0.0
C397 C 0.61053 0.49899 0.47546 0.0
C398 C 0.59298 0.39781 0.47866 0.0
C399 C 0.62879 0.36192 0.47876 0.0
C400 C 0.65004 0.35837 0.50936 0.0
C401 C 0.635 0.39171 0.53981 0.0
C402 C 0.59922 0.42756 0.53967 0.0
H403 H 0.62083 0.53184 0.47179 0.0
H404 H 0.64579 0.49012 0.49015 0.0
H405 H 0.60897 0.47284 0.45021 0.0
H406 H 0.5763 0.39937 0.45484 0.0
H407 H 0.63946 0.33679 0.45488 0.0
H408 H 0.14643 0.12052 0.95449 0.0
H409 H 0.0838 0.05782 0.95482 0.0
H410 H 0.08134 0.10606 0.06375 0.0
H411 H 0.14471 0.1687 0.06374 0.0
H412 H 0.10026 0.01105 0.03433 0.0
H413 H 0.91094 0.06973 0.97871 0.0
H414 H 0.97652 0.06548 0.9552 0.0
H415 H 0.97097 0.10614 0.99668 0.0
C416 C 0.1328 0.11775 0.97856 0.0
C417 C 0.15029 0.14975 1.00911 0.0
C418 C 0.09667 0.08207 0.97866 0.0
C419 C 0.07723 0.07778 1.00929 0.0
C420 C 0.09559 0.10902 0.03985 0.0
H421 H 0.85943 0.88728 0.06517 0.0
H422 H 0.92222 0.94978 0.06467 0.0
C423 C 0.13167 0.1448 0.03978 0.0
C424 C 0.03805 0.04046 1.0094 0.0
H425 H 0.90437 0.99708 0.98499 0.0
C426 C 0.05734 0.00804 0.02369 0.0
C427 C 0.98217 0.03667 0.99541 0.0
C428 C 0.95854 0.07152 0.98087 0.0
C429 C 0.0225 0.97141 0.02386 0.0
C430 C 0.96656 0.96766 1.00992 0.0
C431 C 0.9473 1.00007 0.99561 0.0
C432 C 0.92726 0.93044 0.01016 0.0
C433 C 0.04627 0.9365 0.0383 0.0
C434 C 0.90786 0.89964 0.97966 0.0
C435 C 0.87158 0.86403 0.97983 0.0
C436 C 0.85383 0.85877 0.01056 0.0
C437 C 0.87238 0.89031 0.04107 0.0
C438 C 0.90863 0.92586 0.04085 0.0
H439 H 0.09392 0.93795 0.03999 0.0
H440 H 0.02903 0.94284 0.06417 0.0
H441 H 0.03326 0.90191 0.02271 0.0
H442 H 0.92145 0.90283 0.9557 0.0
H443 H 0.85772 0.84047 0.95592 0.0
H444 H 0.85682 0.16717 0.56285 0.0
H445 H 0.92019 0.10465 0.56297 0.0
H446 H 0.92123 0.05821 0.45401 0.0
H447 H 0.85855 0.12088 0.45361 0.0
H448 H 0.90212 0.00992 0.53275 0.0
H449 H 0.0933 0.07019 0.47983 0.0
H450 H 0.03279 0.10624 0.4973 0.0
H451 H 0.02845 0.0659 0.45563 0.0
C452 C 0.87066 0.14371 0.53891 0.0
C453 C 0.85301 0.14916 0.50822 0.0
C454 C 0.90674 0.10799 0.53903 0.0
C455 C 0.92606 0.07726 0.50852 0.0
C456 C 0.90762 0.08206 0.47784 0.0
H457 H 0.14617 0.84065 0.45623 0.0
H458 H 0.08288 0.90311 0.45585 0.0
C459 C 0.87147 0.1177 0.47768 0.0
C460 C 0.96515 0.03994 0.50878 0.0
H461 H 0.09962 0.9974 0.48587 0.0
C462 C 0.94539 0.00722 0.52264 0.0
C463 C 0.0215 0.03657 0.4955 0.0
C464 C 0.04565 0.07175 0.48147 0.0
C465 C 0.9802 0.97071 0.52308 0.0
C466 C 0.0366 0.96738 0.50986 0.0
C467 C 0.05634 1.00008 0.49597 0.0
C468 C 0.07578 0.93016 0.51027 0.0
C469 C 0.95594 0.93547 0.53702 0.0
C470 C 0.09357 0.92522 0.54101 0.0
C471 C 0.12961 0.88958 0.54133 0.0
C472 C 0.14868 0.8583 0.51087 0.0
C473 C 0.13181 0.86396 0.48011 0.0
C474 C 0.09579 0.89965 0.47984 0.0
H475 H 0.90826 0.93679 0.53829 0.0
H476 H 0.96923 0.90102 0.52136 0.0
H477 H 0.97257 0.94154 0.56301 0.0
H478 H 0.07948 0.94892 0.56479 0.0
H479 H 0.14194 0.88625 0.56544 0.0
H480 H 0.48369 0.11446 0.2985 0.0
H481 H 0.43842 0.14215 0.25601 0.0
H482 H 0.57397 0.24017 0.26814 0.0
H483 H 0.61983 0.21233 0.31085 0.0
H484 H 0.40165 0.23279 0.25849 0.0
H485 H 0.57587 0.16086 0.16547 0.0
H486 H 0.56515 0.14375 0.20246 0.0
H487 H 0.59705 0.19751 0.20653 0.0
C488 C 0.50355 0.14225 0.29238 0.0
C489 C 0.55553 0.16102 0.30778 0.0
C490 C 0.47757 0.1581 0.26817 0.0
C491 C 0.50321 0.19278 0.2586 0.0
C492 C 0.55382 0.21303 0.27495 0.0
H493 H 0.34399 0.31179 0.11562 0.0
H494 H 0.39315 0.30218 0.16477 0.0
C495 C 0.57969 0.19738 0.29949 0.0
C496 C 0.47802 0.2057 0.23029 0.0
H497 H 0.49847 0.19549 0.14708 0.0
C498 C 0.42304 0.22518 0.23424 0.0
C499 C 0.50574 0.19509 0.19855 0.0
C500 C 0.56407 0.17288 0.19267 0.0
C501 C 0.39483 0.23397 0.20719 0.0
C502 C 0.42241 0.22306 0.1754 0.0
C503 C 0.4776 0.204 0.17154 0.0
C504 C 0.3935 0.22919 0.14544 0.0
C505 C 0.33493 0.25343 0.21243 0.0
C506 C 0.37796 0.19136 0.1181 0.0
C507 C 0.34945 0.1967 0.09012 0.0
C508 C 0.33681 0.24003 0.08859 0.0
C509 C 0.35291 0.27791 0.11595 0.0
C510 C 0.38101 0.27252 0.14409 0.0
H511 H 0.31589 0.25267 0.23664 0.0
H512 H 0.3364 0.28908 0.21277 0.0
H513 H 0.30634 0.23455 0.19134 0.0
H514 H 0.38701 0.1576 0.11869 0.0
H515 H 0.33641 0.16682 0.06998 0.0
H516 H 0.51852 0.8017 0.18191 0.0
H517 H 0.46898 0.77407 0.2235 0.0
H518 H 0.58334 0.85262 0.30147 0.0
H519 H 0.6335 0.8794 0.26012 0.0
H520 H 0.56006 0.76751 0.30669 0.0
H521 H 0.3598 0.85747 0.29333 0.0
H522 H 0.38654 0.81752 0.25504 0.0
H523 H 0.4276 0.86732 0.27594 0.0
C524 C 0.53373 0.81229 0.20778 0.0
C525 C 0.57941 0.84319 0.21784 0.0
C526 C 0.50506 0.79687 0.23158 0.0
C527 C 0.52169 0.81205 0.26576 0.0
C528 C 0.56942 0.84073 0.27534 0.0
H529 H 0.33228 0.84089 0.44859 0.0
H530 H 0.38603 0.84993 0.40087 0.0
C531 C 0.59788 0.85618 0.25169 0.0
C532 C 0.48803 0.8004 0.29214 0.0
H533 H 0.35813 0.81739 0.33244 0.0
C534 C 0.51574 0.77803 0.31215 0.0
C535 C 0.4305 0.81488 0.29963 0.0
C536 C 0.3993 0.84097 0.28012 0.0
C537 C 0.48765 0.77004 0.33954 0.0
C538 C 0.43002 0.78427 0.34685 0.0
C539 C 0.40218 0.80628 0.32668 0.0
C540 C 0.39849 0.77831 0.37613 0.0
C541 C 0.52052 0.7479 0.36117 0.0
C542 C 0.38727 0.73504 0.37807 0.0
C543 C 0.35714 0.72982 0.40562 0.0
C544 C 0.33746 0.76778 0.43172 0.0
C545 C 0.34804 0.81101 0.42941 0.0
C546 C 0.37829 0.81621 0.40194 0.0
H547 H 0.56763 0.74849 0.35702 0.0
H548 H 0.51151 0.76488 0.38841 0.0
H549 H 0.50689 0.71211 0.35473 0.0
H550 H 0.40142 0.70527 0.35815 0.0
H551 H 0.34948 0.69601 0.4065 0.0
H552 H 0.66101 0.69636 0.9041 0.0
H553 H 0.61115 0.70539 0.85498 0.0
H554 H 0.61309 0.84996 0.90149 0.0
H555 H 0.66442 0.84137 0.95018 0.0
H556 H 0.50235 0.80959 0.87259 0.0
H557 H 0.68676 0.7574 0.78377 0.0
H558 H 0.66783 0.72045 0.8075 0.0
H559 H 0.69584 0.77563 0.8291 0.0
C560 C 0.651 0.73013 0.90389 0.0
C561 C 0.66619 0.76818 0.93136 0.0
C562 C 0.6225 0.73518 0.87576 0.0
C563 C 0.60863 0.77833 0.87453 0.0
C564 C 0.6232 0.81633 0.90199 0.0
H565 H 0.51435 0.89318 0.72237 0.0
H566 H 0.56056 0.86565 0.76466 0.0
C567 C 0.65215 0.81133 0.92996 0.0
C568 C 0.57938 0.78411 0.84456 0.0
H569 H 0.60033 0.77582 0.76175 0.0
C570 C 0.52348 0.80184 0.84825 0.0
C571 C 0.60729 0.77418 0.81293 0.0
C572 C 0.66789 0.75613 0.80789 0.0
C573 C 0.49494 0.81041 0.82123 0.0
C574 C 0.523 0.80083 0.78966 0.0
C575 C 0.57869 0.78264 0.78587 0.0
C576 C 0.49736 0.81367 0.76142 0.0
C577 C 0.43579 0.83122 0.82695 0.0
C578 C 0.44737 0.79262 0.74475 0.0
C579 C 0.42095 0.80819 0.72031 0.0
C580 C 0.44395 0.84526 0.71245 0.0
C581 C 0.49538 0.86483 0.72815 0.0
C582 C 0.5219 0.84907 0.75225 0.0
H583 H 0.42358 0.84266 0.85409 0.0
H584 H 0.43354 0.86052 0.81737 0.0
H585 H 0.40374 0.80592 0.8128 0.0
H586 H 0.42808 0.76491 0.75122 0.0
H587 H 0.38126 0.79262 0.70872 0.0
H588 H 0.65252 0.31143 0.61331 0.0
H589 H 0.60267 0.30242 0.66242 0.0
H590 H 0.61927 0.15778 0.6203 0.0
H591 H 0.67082 0.16658 0.57178 0.0
H592 H 0.50104 0.25672 0.66559 0.0
H593 H 0.68409 0.18408 0.71578 0.0
H594 H 0.69292 0.21179 0.68418 0.0
H595 H 0.66826 0.15427 0.67226 0.0
C596 C 0.64588 0.27769 0.61459 0.0
C597 C 0.6654 0.23967 0.58849 0.0
C598 C 0.61718 0.27262 0.64263 0.0
C599 C 0.60787 0.22948 0.64529 0.0
C600 C 0.62681 0.19146 0.61911 0.0
H601 H 0.36991 0.12949 0.76022 0.0
H602 H 0.41955 0.15721 0.71923 0.0
C603 C 0.65561 0.1965 0.59113 0.0
C604 C 0.57767 0.22413 0.67517 0.0
H605 H 0.59174 0.17844 0.73902 0.0
C606 C 0.52103 0.23997 0.68183 0.0
C607 C 0.60408 0.20304 0.69677 0.0
C608 C 0.66588 0.1877 0.69217 0.0
C609 C 0.48935 0.23357 0.70863 0.0
C610 C 0.51471 0.21023 0.72905 0.0
C611 C 0.57213 0.19607 0.72325 0.0
C612 C 0.48145 0.19737 0.75501 0.0
C613 C 0.4289 0.25177 0.71476 0.0
C614 C 0.49965 0.21066 0.78889 0.0
C615 C 0.4713 0.19466 0.81248 0.0
C616 C 0.42485 0.16453 0.80241 0.0
C617 C 0.40579 0.15244 0.76871 0.0
C618 C 0.43383 0.16858 0.74528 0.0
H619 H 0.42239 0.28013 0.70448 0.0
H620 H 0.39822 0.22454 0.70182 0.0
H621 H 0.41854 0.26366 0.74215 0.0
H622 H 0.53655 0.23264 0.79691 0.0
H623 H 0.48726 0.20424 0.83817 0.0
H624 H 0.82931 0.66644 0.07345 0.0
H625 H 0.88064 0.65665 0.12173 0.0
H626 H 0.90435 0.80078 0.16296 0.0
H627 H 0.85466 0.81071 0.11406 0.0
H628 H 0.00385 0.75206 0.16543 0.0
H629 H 0.81772 0.68587 0.21787 0.0
H630 H 0.83172 0.65526 0.17428 0.0
H631 H 0.81003 0.71349 0.18614 0.0
C632 C 0.846 0.69602 0.09256 0.0
C633 C 0.83829 0.7393 0.08973 0.0
C634 C 0.87469 0.69043 0.12041 0.0
C635 C 0.89559 0.72804 0.14626 0.0
C636 C 0.88831 0.7713 0.14342 0.0
H637 H 0.01606 0.70217 0.33894 0.0
H638 H 0.96769 0.7308 0.29752 0.0
C639 C 0.85969 0.77691 0.11551 0.0
C640 C 0.92573 0.7221 0.17597 0.0
H641 H 0.90988 0.67772 0.24041 0.0
C642 C 0.98317 0.73618 0.18202 0.0
C643 C 0.89846 0.70213 0.19799 0.0
C644 C 0.83591 0.68871 0.19402 0.0
C645 C 0.01472 0.72912 0.20864 0.0
C646 C 0.98835 0.70688 0.2295 0.0
C647 C 0.93024 0.69448 0.22429 0.0
C648 C 0.02107 0.69354 0.25544 0.0
C649 C 0.07605 0.74548 0.21412 0.0
C650 C 0.06741 0.66348 0.24564 0.0
C651 C 0.09499 0.64722 0.26916 0.0
C652 C 0.07669 0.66043 0.30304 0.0
C653 C 0.03145 0.69169 0.31312 0.0
C654 C 0.0036 0.70783 0.28944 0.0
H655 H 0.08389 0.7734 0.20355 0.0
H656 H 0.08719 0.75735 0.24142 0.0
H657 H 0.10528 0.71725 0.20108 0.0
H658 H 0.08108 0.65132 0.2195 0.0
H659 H 0.12997 0.62344 0.26064 0.0
H660 H 0.83448 0.3418 0.44816 0.0
H661 H 0.88539 0.35134 0.39966 0.0
H662 H 0.89428 0.20679 0.35406 0.0
H663 H 0.84493 0.19689 0.40305 0.0
H664 H 0.99833 0.31374 0.372 0.0
H665 H 0.81673 0.25593 0.2816 0.0
H666 H 0.80654 0.27455 0.32685 0.0
H667 H 0.83684 0.21999 0.30594 0.0
C668 C 0.8482 0.31201 0.42818 0.0
C669 C 0.83635 0.26861 0.42981 0.0
C670 C 0.87689 0.31753 0.40031 0.0
C671 C 0.89333 0.27978 0.37318 0.0
C672 C 0.88149 0.23638 0.3746 0.0
H673 H 0.12065 0.29621 0.20818 0.0
H674 H 0.0743 0.26859 0.25085 0.0
C675 C 0.85327 0.23082 0.40264 0.0
C676 C 0.92252 0.28606 0.34336 0.0
H677 H 0.90252 0.27644 0.26022 0.0
C678 C 0.97769 0.30522 0.34746 0.0
C679 C 0.89523 0.27515 0.31147 0.0
C680 C 0.83541 0.25552 0.306 0.0
C681 C 0.00611 0.31419 0.32056 0.0
C682 C 0.97867 0.3036 0.28873 0.0
C683 C 0.92369 0.28404 0.28455 0.0
C684 C 0.00421 0.31653 0.26052 0.0
C685 C 0.06444 0.33642 0.32665 0.0
C686 C 0.97915 0.35152 0.25106 0.0
C687 C 0.00545 0.36727 0.22689 0.0
C688 C 0.05714 0.34809 0.2114 0.0
C689 C 0.08074 0.31147 0.2196 0.0
C690 C 0.05457 0.29594 0.24412 0.0
H691 H 0.07621 0.34817 0.35387 0.0
H692 H 0.09743 0.3119 0.31269 0.0
H693 H 0.06555 0.36573 0.31706 0.0
H694 H 0.94021 0.36774 0.26327 0.0
H695 H 0.98603 0.39527 0.22086 0.0
H696 H 0.98776 0.30511 0.6804 0.0
H697 H 0.03682 0.27687 0.72184 0.0
H698 H 0.92023 0.353 0.79934 0.0
H699 H 0.87083 0.38059 0.75819 0.0
H700 H 0.09225 0.33118 0.77982 0.0
H701 H 0.92199 0.23005 0.81423 0.0
H702 H 0.91853 0.24636 0.77648 0.0
H703 H 0.89827 0.28567 0.81671 0.0
C704 C 0.97185 0.3149 0.7061 0.0
C705 C 0.92558 0.34517 0.71606 0.0
C706 C 1.00007 0.29899 0.72978 0.0
C707 C 0.98191 0.31249 0.76367 0.0
C708 C 0.93448 0.34147 0.77329 0.0
H709 H 0.17118 0.34222 0.94704 0.0
H710 H 0.11982 0.35144 0.89857 0.0
C711 C 0.90658 0.35753 0.74978 0.0
C712 C 0.01497 0.29961 0.7897 0.0
H713 H 1.00076 0.25304 0.85309 0.0
C714 C 0.07246 0.31359 0.79557 0.0
C715 C 0.98937 0.27631 0.81008 0.0
C716 C 0.92881 0.25831 0.80389 0.0
C717 C 0.10428 0.30649 0.82205 0.0
C718 C 0.07767 0.28542 0.8436 0.0
C719 C 0.02093 0.26977 0.83689 0.0
C720 C 0.10778 0.27982 0.87345 0.0
C721 C 0.16618 0.32163 0.82672 0.0
C722 C 0.11667 0.2366 0.87604 0.0
C723 C 0.14525 0.23129 0.90405 0.0
C724 C 0.16507 0.26916 0.93021 0.0
C725 C 0.15572 0.31241 0.92765 0.0
C726 C 0.12704 0.3177 0.89969 0.0
H727 H 0.18448 0.32527 0.80314 0.0
H728 H 0.16874 0.35503 0.84666 0.0
H729 H 0.19303 0.29742 0.83468 0.0
H730 H 0.10192 0.20691 0.8562 0.0
H731 H 0.15156 0.19749 0.90527 0.0
H732 H 0.15572 0.80991 0.61642 0.0
H733 H 0.107 0.79969 0.66548 0.0
H734 H 0.11687 0.6552 0.61974 0.0
H735 H 0.16717 0.66507 0.57116 0.0
H736 H 0.00376 0.69238 0.64764 0.0
H737 H 0.18576 0.75061 0.73768 0.0
H738 H 0.1652 0.78652 0.71341 0.0
H739 H 0.19568 0.73205 0.69241 0.0
C740 C 0.14773 0.77592 0.61681 0.0
C741 C 0.16473 0.73825 0.58958 0.0
C742 C 0.11986 0.77019 0.64489 0.0
C743 C 0.10848 0.72671 0.64629 0.0
C744 C 0.12503 0.68907 0.6191 0.0
H745 H 0.01763 0.61119 0.79903 0.0
H746 H 0.06294 0.6385 0.75636 0.0
C747 C 0.15336 0.69477 0.59119 0.0
C748 C 0.07963 0.72024 0.67614 0.0
H749 H 0.10028 0.72983 0.75922 0.0
C750 C 0.02456 0.70092 0.67213 0.0
C751 C 0.10713 0.73118 0.70797 0.0
C752 C 0.16687 0.75098 0.71333 0.0
C753 C 0.99643 0.69184 0.69907 0.0
C754 C 0.02407 0.70249 0.73086 0.0
C755 C 0.07896 0.72218 0.73493 0.0
C756 C 0.99876 0.68959 0.75914 0.0
C757 C 0.93818 0.66947 0.6931 0.0
C758 C 0.94846 0.71017 0.77561 0.0
C759 C 0.92257 0.69476 0.80026 0.0
C760 C 0.94639 0.65827 0.80854 0.0
C761 C 0.99801 0.63907 0.79294 0.0
C762 C 0.02403 0.65471 0.76863 0.0
H763 H 0.9263 0.65764 0.6659 0.0
H764 H 0.93729 0.64019 0.70273 0.0
H765 H 0.90515 0.69392 0.70708 0.0
H766 H 0.92858 0.73745 0.76885 0.0
H767 H 0.88272 0.71004 0.81176 0.0
loop_
_geom_bond_atom_site_label_1
_geom_bond_atom_site_label_2
_geom_bond_distance
_geom_bond_site_symmetry_2
_ccdc_geom_bond_type
C0 C2 1.422 . S
C0 C4 1.415 . S
C0 N6 1.369 . S
C1 C2 1.421 . S
C1 C3 1.417 1_454 S
C1 C13 1.422 1_454 S
C2 C0 1.422 . S
C2 C1 1.421 . S
C2 N12 1.359 . S
C3 C1 1.417 1_656 S
C3 C5 1.329 1_656 S
C3 H22 0.930 . S
C4 C0 1.415 . S
C4 C5 1.437 . S
C4 C8 1.413 . S
C5 C3 1.329 1_454 S
C5 C4 1.437 . S
C5 H27 0.929 1_455 S
N6 C0 1.369 . S
N6 C7 1.338 . S
N6 Gd11 2.622 . S
C7 N6 1.338 . S
C7 C9 1.378 . S
C7 H19 0.929 . S
C8 C4 1.413 . S
C8 C9 1.348 . S
C8 H24 0.931 . S
C9 C7 1.378 . S
C9 C8 1.348 . S
C9 H25 0.930 . S
Gd10 N30 2.622 . S
Gd10 N37 2.570 . S
Gd10 O44 2.353 . S
Gd10 O45 2.468 . S
Gd10 O46 2.427 . S
Gd10 O48 2.388 . S
Gd10 O49 2.386 1_556 S
Gd10 O53 2.307 . S
Gd10 C63 2.805 . S
Gd11 N6 2.622 . S
Gd11 N12 2.570 . S
Gd11 O43 2.386 1_554 S
Gd11 O47 2.307 . S
Gd11 O50 2.353 . S
Gd11 O51 2.468 . S
Gd11 O52 2.427 . S
Gd11 O54 2.388 . S
Gd11 C75 2.805 . S
N12 C2 1.359 . S
N12 Gd11 2.570 . S
N12 C14 1.343 . S
C13 C1 1.422 1_656 S
C13 C15 1.321 . S
C13 H21 0.931 . S
C14 N12 1.343 . S
C14 C15 1.390 1_454 S
C14 H16 0.931 . S
C15 C13 1.321 . S
C15 C14 1.390 1_656 S
C15 H17 0.930 . S
H16 C14 0.931 . S
H17 C15 0.930 . S
H18 C41 0.931 . S
H19 C7 0.929 . S
H20 C42 0.930 . S
H21 C13 0.931 . S
H22 C3 0.930 . S
H23 C32 0.929 . S
H24 C8 0.931 . S
H25 C9 0.930 . S
H26 C64 0.930 . S
H27 C5 0.929 1_655 S
H28 C33 0.931 . S
H29 C34 0.930 . S
N30 Gd10 2.622 . S
N30 C31 1.369 . S
N30 C32 1.338 . S
C31 N30 1.369 . S
C31 C35 1.415 . S
C31 C38 1.422 . S
C32 H23 0.929 . S
C32 N30 1.338 . S
C32 C34 1.378 . S
C33 H28 0.931 . S
C33 C34 1.348 . S
C33 C35 1.413 . S
C34 H29 0.930 . S
C34 C32 1.378 . S
C34 C33 1.348 . S
C35 C31 1.415 . S
C35 C33 1.413 . S
C35 C65 1.437 . S
H36 C65 0.929 . S
N37 Gd10 2.570 . S
N37 C38 1.359 . S
N37 C41 1.343 . S
C38 C31 1.422 . S
C38 N37 1.359 . S
C38 C40 1.421 . S
C39 C40 1.422 1_554 S
C39 C42 1.321 . S
C39 H66 0.931 . S
C40 C38 1.421 . S
C40 C39 1.422 1_556 S
C40 C64 1.417 1_556 S
C41 H18 0.931 . S
C41 N37 1.343 . S
C41 C42 1.390 1_556 S
C42 H20 0.930 . S
C42 C39 1.321 . S
C42 C41 1.390 1_554 S
O43 Gd11 2.386 1_556 S
O43 C55 1.265 . S
O44 Gd10 2.353 . S
O44 C55 1.242 . S
O45 Gd10 2.468 . S
O45 C63 1.263 . S
O46 Gd10 2.427 . S
O46 C63 1.252 . S
O47 Gd11 2.307 . S
O47 C56 1.261 1_554 S
O48 Gd10 2.388 . S
O48 C56 1.252 . S
O49 Gd10 2.386 1_554 S
O49 C67 1.265 . S
O50 Gd11 2.353 . S
O50 C67 1.242 . S
O51 Gd11 2.468 . S
O51 C75 1.263 . S
O52 Gd11 2.427 . S
O52 C75 1.252 . S
O53 Gd10 2.307 . S
O53 C68 1.261 1_556 S
O54 Gd11 2.388 . S
O54 C68 1.252 . S
C55 O43 1.265 . S
C55 O44 1.242 . S
C56 O47 1.261 1_556 S
C56 O48 1.252 . S
C57 C60 1.394 . S
C57 C62 1.370 . S
C57 C63 1.500 . S
C58 C61 1.383 . S
C58 C62 1.395 . S
C59 C60 1.396 . S
C59 C61 1.365 . S
C59 H76 0.929 . S
C60 C57 1.394 . S
C60 C59 1.396 . S
C60 H77 0.930 . S
C61 C58 1.383 . S
C61 C59 1.365 . S
C61 H78 0.931 . S
C62 C57 1.370 . S
C62 C58 1.395 . S
C62 H79 0.930 . S
C63 Gd10 2.805 . S
C63 O45 1.263 . S
C63 O46 1.252 . S
C63 C57 1.500 . S
C64 H26 0.930 . S
C64 C40 1.417 1_554 S
C64 C65 1.329 1_554 S
C65 C35 1.437 . S
C65 H36 0.929 . S
C65 C64 1.329 1_556 S
H66 C39 0.931 . S
C67 O49 1.265 . S
C67 O50 1.242 . S
C68 O53 1.261 1_554 S
C68 O54 1.252 . S
C69 C72 1.394 . S
C69 C74 1.370 . S
C69 C75 1.500 . S
C70 C73 1.383 . S
C70 C74 1.395 . S
C71 C72 1.396 . S
C71 C73 1.365 . S
C71 H80 0.929 . S
C72 C69 1.394 . S
C72 C71 1.396 . S
C72 H81 0.930 . S
C73 C70 1.383 . S
C73 C71 1.365 . S
C73 H82 0.931 . S
C74 C69 1.370 . S
C74 C70 1.395 . S
C74 H83 0.930 . S
C75 Gd11 2.805 . S
C75 O51 1.263 . S
C75 O52 1.252 . S
C75 C69 1.500 . S
H76 C59 0.929 . S
H77 C60 0.930 . S
H78 C61 0.931 . S
H79 C62 0.930 . S
H80 C71 0.929 . S
H81 C72 0.930 . S
H82 C73 0.931 . S
H83 C74 0.930 . S
C84 C86 1.422 . S
C84 C88 1.415 . S
C84 N90 1.369 . S
C85 C86 1.421 . S
C85 C87 1.417 1_554 S
C85 C97 1.422 1_554 S
C86 C84 1.422 . S
C86 C85 1.421 . S
C86 N96 1.359 . S
C87 C85 1.417 1_556 S
C87 C89 1.329 1_556 S
C87 H106 0.930 . S
C88 C84 1.415 . S
C88 C89 1.437 . S
C88 C92 1.413 . S
C89 C87 1.329 1_554 S
C89 C88 1.437 . S
C89 H111 0.929 . S
N90 C84 1.369 . S
N90 C91 1.338 . S
N90 Gd95 2.622 . S
C91 N90 1.338 . S
C91 C93 1.378 . S
C91 H103 0.929 . S
C92 C88 1.413 . S
C92 C93 1.348 . S
C92 H108 0.931 . S
C93 C91 1.378 . S
C93 C92 1.348 . S
C93 H109 0.930 . S
Gd94 N114 2.622 . S
Gd94 N121 2.570 . S
Gd94 O128 2.353 . S
Gd94 O129 2.468 . S
Gd94 O130 2.427 . S
Gd94 O132 2.388 . S
Gd94 O133 2.386 1_556 S
Gd94 O137 2.307 . S
Gd94 C147 2.805 . S
Gd95 N90 2.622 . S
Gd95 N96 2.570 . S
Gd95 O127 2.386 1_554 S
Gd95 O131 2.307 . S
Gd95 O134 2.353 . S
Gd95 O135 2.468 . S
Gd95 O136 2.427 . S
Gd95 O138 2.388 . S
Gd95 C159 2.805 . S
N96 C86 1.359 . S
N96 Gd95 2.570 . S
N96 C98 1.343 . S
C97 C85 1.422 1_556 S
C97 C99 1.321 . S
C97 H105 0.931 . S
C98 N96 1.343 . S
C98 C99 1.390 1_554 S
C98 H100 0.931 . S
C99 C97 1.321 . S
C99 C98 1.390 1_556 S
C99 H101 0.930 . S
H100 C98 0.931 . S
H101 C99 0.930 . S
H102 C125 0.931 . S
H103 C91 0.929 . S
H104 C126 0.930 . S
H105 C97 0.931 . S
H106 C87 0.930 . S
H107 C116 0.929 . S
H108 C92 0.931 . S
H109 C93 0.930 . S
H110 C148 0.930 . S
H111 C89 0.929 . S
H112 C117 0.931 . S
H113 C118 0.930 . S
N114 Gd94 2.622 . S
N114 C115 1.369 . S
N114 C116 1.338 . S
C115 N114 1.369 . S
C115 C119 1.415 . S
C115 C122 1.422 . S
C116 H107 0.929 . S
C116 N114 1.338 . S
C116 C118 1.378 . S
C117 H112 0.931 . S
C117 C118 1.348 . S
C117 C119 1.413 . S
C118 H113 0.930 . S
C118 C116 1.378 . S
C118 C117 1.348 . S
C119 C115 1.415 . S
C119 C117 1.413 . S
C119 C149 1.437 . S
H120 C149 0.929 1_455 S
N121 Gd94 2.570 . S
N121 C122 1.359 . S
N121 C125 1.343 . S
C122 C115 1.422 . S
C122 N121 1.359 . S
C122 C124 1.421 . S
C123 C124 1.422 1_454 S
C123 C126 1.321 . S
C123 H150 0.931 . S
C124 C122 1.421 . S
C124 C123 1.422 1_656 S
C124 C148 1.417 1_656 S
C125 H102 0.931 . S
C125 N121 1.343 . S
C125 C126 1.390 1_656 S
C126 H104 0.930 . S
C126 C123 1.321 . S
C126 C125 1.390 1_454 S
O127 Gd95 2.386 1_556 S
O127 C139 1.265 . S
O128 Gd94 2.353 . S
O128 C139 1.242 . S
O129 Gd94 2.468 . S
O129 C147 1.263 . S
O130 Gd94 2.427 . S
O130 C147 1.252 . S
O131 Gd95 2.307 . S
O131 C140 1.261 1_554 S
O132 Gd94 2.388 . S
O132 C140 1.252 . S
O133 Gd94 2.386 1_554 S
O133 C151 1.265 . S
O134 Gd95 2.353 . S
O134 C151 1.242 . S
O135 Gd95 2.468 . S
O135 C159 1.263 . S
O136 Gd95 2.427 . S
O136 C159 1.252 . S
O137 Gd94 2.307 . S
O137 C152 1.261 1_556 S
O138 Gd95 2.388 . S
O138 C152 1.252 . S
C139 O127 1.265 . S
C139 O128 1.242 . S
C140 O131 1.261 1_556 S
C140 O132 1.252 . S
C141 C144 1.394 . S
C141 C146 1.370 . S
C141 C147 1.500 . S
C142 C145 1.383 . S
C142 C146 1.395 . S
C143 C144 1.396 . S
C143 C145 1.365 . S
C143 H160 0.929 . S
C144 C141 1.394 . S
C144 C143 1.396 . S
C144 H161 0.930 . S
C145 C142 1.383 . S
C145 C143 1.365 . S
C145 H162 0.931 . S
C146 C141 1.370 . S
C146 C142 1.395 . S
C146 H163 0.930 . S
C147 Gd94 2.805 . S
C147 O129 1.263 . S
C147 O130 1.252 . S
C147 C141 1.500 . S
C148 H110 0.930 . S
C148 C124 1.417 1_454 S
C148 C149 1.329 1_454 S
C149 C119 1.437 . S
C149 H120 0.929 1_655 S
C149 C148 1.329 1_656 S
H150 C123 0.931 . S
C151 O133 1.265 . S
C151 O134 1.242 . S
C152 O137 1.261 1_554 S
C152 O138 1.252 . S
C153 C156 1.394 . S
C153 C158 1.370 . S
C153 C159 1.500 . S
C154 C157 1.383 . S
C154 C158 1.395 . S
C155 C156 1.396 . S
C155 C157 1.365 . S
C155 H164 0.929 . S
C156 C153 1.394 . S
C156 C155 1.396 . S
C156 H165 0.930 . S
C157 C154 1.383 . S
C157 C155 1.365 . S
C157 H166 0.931 . S
C158 C153 1.370 . S
C158 C154 1.395 . S
C158 H167 0.930 . S
C159 Gd95 2.805 . S
C159 O135 1.263 . S
C159 O136 1.252 . S
C159 C153 1.500 . S
H160 C143 0.929 . S
H161 C144 0.930 . S
H162 C145 0.931 . S
H163 C146 0.930 . S
H164 C155 0.929 . S
H165 C156 0.930 . S
H166 C157 0.931 . S
H167 C158 0.930 . S
C168 C170 1.422 . S
C168 C172 1.415 . S
C168 N174 1.369 . S
C169 C170 1.421 . S
C169 C171 1.417 1_455 S
C169 C181 1.422 1_455 S
C170 C168 1.422 . S
C170 C169 1.421 . S
C170 N180 1.359 . S
C171 C169 1.417 1_655 S
C171 C173 1.329 1_655 S
C171 H190 0.930 . S
C172 C168 1.415 . S
C172 C173 1.437 . S
C172 C176 1.413 . S
C173 C171 1.329 1_455 S
C173 C172 1.437 . S
C173 H195 0.929 1_455 S
N174 C168 1.369 . S
N174 C175 1.338 . S
N174 Gd179 2.622 . S
C175 N174 1.338 . S
C175 C177 1.378 . S
C175 H187 0.929 . S
C176 C172 1.413 . S
C176 C177 1.348 . S
C176 H192 0.931 . S
C177 C175 1.378 . S
C177 C176 1.348 . S
C177 H193 0.930 . S
Gd178 N198 2.622 . S
Gd178 N205 2.570 . S
Gd178 O212 2.353 . S
Gd178 O213 2.468 . S
Gd178 O214 2.427 . S
Gd178 O216 2.388 . S
Gd178 O217 2.386 . S
Gd178 O221 2.307 . S
Gd178 C231 2.805 . S
Gd179 N174 2.622 . S
Gd179 N180 2.570 . S
Gd179 O211 2.386 . S
Gd179 O215 2.307 . S
Gd179 O218 2.353 . S
Gd179 O219 2.468 . S
Gd179 O220 2.427 . S
Gd179 O222 2.388 . S
Gd179 C243 2.805 . S
N180 C170 1.359 . S
N180 Gd179 2.570 . S
N180 C182 1.343 . S
C181 C169 1.422 1_655 S
C181 C183 1.321 . S
C181 H189 0.931 . S
C182 N180 1.343 . S
C182 C183 1.390 1_455 S
C182 H184 0.931 . S
C183 C181 1.321 . S
C183 C182 1.390 1_655 S
C183 H185 0.930 . S
H184 C182 0.931 . S
H185 C183 0.930 . S
H186 C209 0.931 . S
H187 C175 0.929 . S
H188 C210 0.930 . S
H189 C181 0.931 . S
H190 C171 0.930 . S
H191 C200 0.929 . S
H192 C176 0.931 . S
H193 C177 0.930 . S
H194 C232 0.930 . S
H195 C173 0.929 1_655 S
H196 C201 0.931 . S
H197 C202 0.930 . S
N198 Gd178 2.622 . S
N198 C199 1.369 . S
N198 C200 1.338 . S
C199 N198 1.369 . S
C199 C203 1.415 . S
C199 C206 1.422 . S
C200 H191 0.929 . S
C200 N198 1.338 . S
C200 C202 1.378 . S
C201 H196 0.931 . S
C201 C202 1.348 . S
C201 C203 1.413 . S
C202 H197 0.930 . S
C202 C200 1.378 . S
C202 C201 1.348 . S
C203 C199 1.415 . S
C203 C201 1.413 . S
C203 C233 1.437 . S
H204 C233 0.929 . S
N205 Gd178 2.570 . S
N205 C206 1.359 . S
N205 C209 1.343 . S
C206 C199 1.422 . S
C206 N205 1.359 . S
C206 C208 1.421 . S
C207 C208 1.422 . S
C207 C210 1.321 . S
C207 H234 0.931 . S
C208 C206 1.421 . S
C208 C207 1.422 . S
C208 C232 1.417 . S
C209 H186 0.931 . S
C209 N205 1.343 . S
C209 C210 1.390 . S
C210 H188 0.930 . S
C210 C207 1.321 . S
C210 C209 1.390 . S
O211 Gd179 2.386 . S
O211 C223 1.265 . S
O212 Gd178 2.353 . S
O212 C223 1.242 . S
O213 Gd178 2.468 . S
O213 C231 1.263 . S
O214 Gd178 2.427 . S
O214 C231 1.252 . S
O215 Gd179 2.307 . S
O215 C224 1.261 . S
O216 Gd178 2.388 . S
O216 C224 1.252 . S
O217 Gd178 2.386 . S
O217 C235 1.265 . S
O218 Gd179 2.353 . S
O218 C235 1.242 . S
O219 Gd179 2.468 . S
O219 C243 1.263 . S
O220 Gd179 2.427 . S
O220 C243 1.252 . S
O221 Gd178 2.307 . S
O221 C236 1.261 . S
O222 Gd179 2.388 . S
O222 C236 1.252 . S
C223 O211 1.265 . S
C223 O212 1.242 . S
C224 O215 1.261 . S
C224 O216 1.252 . S
C225 C228 1.394 . S
C225 C230 1.370 . S
C225 C231 1.500 . S
C226 C229 1.383 . S
C226 C230 1.395 . S
C227 C228 1.396 . S
C227 C229 1.365 . S
C227 H244 0.929 . S
C228 C225 1.394 . S
C228 C227 1.396 . S
C228 H245 0.930 . S
C229 C226 1.383 . S
C229 C227 1.365 . S
C229 H246 0.931 . S
C230 C225 1.370 . S
C230 C226 1.395 . S
C230 H247 0.930 . S
C231 Gd178 2.805 . S
C231 O213 1.263 . S
C231 O214 1.252 . S
C231 C225 1.500 . S
C232 H194 0.930 . S
C232 C208 1.417 . S
C232 C233 1.329 . S
C233 C203 1.437 . S
C233 H204 0.929 . S
C233 C232 1.329 . S
H234 C207 0.931 . S
C235 O217 1.265 . S
C235 O218 1.242 . S
C236 O221 1.261 . S
C236 O222 1.252 . S
C237 C240 1.394 . S
C237 C242 1.370 . S
C237 C243 1.500 . S
C238 C241 1.383 . S
C238 C242 1.395 . S
C239 C240 1.396 . S
C239 C241 1.365 . S
C239 H248 0.929 . S
C240 C237 1.394 . S
C240 C239 1.396 . S
C240 H249 0.930 . S
C241 C238 1.383 . S
C241 C239 1.365 . S
C241 H250 0.931 . S
C242 C237 1.370 . S
C242 C238 1.395 . S
C242 H251 0.930 . S
C243 Gd179 2.805 . S
C243 O219 1.263 . S
C243 O220 1.252 . S
C243 C237 1.500 . S
H244 C227 0.929 . S
H245 C228 0.930 . S
H246 C229 0.931 . S
H247 C230 0.930 . S
H248 C239 0.929 . S
H249 C240 0.930 . S
H250 C241 0.931 . S
H251 C242 0.930 . S
C252 C254 1.422 . S
C252 C256 1.415 . S
C252 N258 1.369 . S
C253 C254 1.421 . S
C253 C255 1.417 . S
C253 C265 1.422 . S
C254 C252 1.422 . S
C254 C253 1.421 . S
C254 N264 1.359 . S
C255 C253 1.417 . S
C255 C257 1.329 . S
C255 H274 0.930 . S
C256 C252 1.415 . S
C256 C257 1.437 . S
C256 C260 1.413 . S
C257 C255 1.329 . S
C257 C256 1.437 . S
C257 H279 0.929 . S
N258 C252 1.369 . S
N258 C259 1.338 . S
N258 Gd263 2.622 . S
C259 N258 1.338 . S
C259 C261 1.378 . S
C259 H271 0.929 . S
C260 C256 1.413 . S
C260 C261 1.348 . S
C260 H276 0.931 . S
C261 C259 1.378 . S
C261 C260 1.348 . S
C261 H277 0.930 . S
Gd262 N282 2.622 . S
Gd262 N289 2.570 . S
Gd262 O296 2.353 . S
Gd262 O297 2.468 . S
Gd262 O298 2.427 . S
Gd262 O300 2.388 . S
Gd262 O301 2.386 . S
Gd262 O305 2.307 . S
Gd262 C315 2.805 . S
Gd263 N258 2.622 . S
Gd263 N264 2.570 . S
Gd263 O295 2.386 . S
Gd263 O299 2.307 . S
Gd263 O302 2.353 . S
Gd263 O303 2.468 . S
Gd263 O304 2.427 . S
Gd263 O306 2.388 . S
Gd263 C327 2.805 . S
N264 C254 1.359 . S
N264 Gd263 2.570 . S
N264 C266 1.343 . S
C265 C253 1.422 . S
C265 C267 1.321 . S
C265 H273 0.931 . S
C266 N264 1.343 . S
C266 C267 1.390 . S
C266 H268 0.931 . S
C267 C265 1.321 . S
C267 C266 1.390 . S
C267 H269 0.930 . S
H268 C266 0.931 . S
H269 C267 0.930 . S
H270 C293 0.931 . S
H271 C259 0.929 . S
H272 C294 0.930 . S
H273 C265 0.931 . S
H274 C255 0.930 . S
H275 C284 0.929 . S
H276 C260 0.931 . S
H277 C261 0.930 . S
H278 C316 0.930 . S
H279 C257 0.929 . S
H280 C285 0.931 . S
H281 C286 0.930 . S
N282 Gd262 2.622 . S
N282 C283 1.369 . S
N282 C284 1.338 . S
C283 N282 1.369 . S
C283 C287 1.415 . S
C283 C290 1.422 . S
C284 H275 0.929 . S
C284 N282 1.338 . S
C284 C286 1.378 . S
C285 H280 0.931 . S
C285 C286 1.348 . S
C285 C287 1.413 . S
C286 H281 0.930 . S
C286 C284 1.378 . S
C286 C285 1.348 . S
C287 C283 1.415 . S
C287 C285 1.413 . S
C287 C317 1.437 . S
H288 C317 0.929 1_455 S
N289 Gd262 2.570 . S
N289 C290 1.359 . S
N289 C293 1.343 . S
C290 C283 1.422 . S
C290 N289 1.359 . S
C290 C292 1.421 . S
C291 C292 1.422 1_455 S
C291 C294 1.321 . S
C291 H318 0.931 . S
C292 C290 1.421 . S
C292 C291 1.422 1_655 S
C292 C316 1.417 1_655 S
C293 H270 0.931 . S
C293 N289 1.343 . S
C293 C294 1.390 1_655 S
C294 H272 0.930 . S
C294 C291 1.321 . S
C294 C293 1.390 1_455 S
O295 Gd263 2.386 . S
O295 C307 1.265 . S
O296 Gd262 2.353 . S
O296 C307 1.242 . S
O297 Gd262 2.468 . S
O297 C315 1.263 . S
O298 Gd262 2.427 . S
O298 C315 1.252 . S
O299 Gd263 2.307 . S
O299 C308 1.261 . S
O300 Gd262 2.388 . S
O300 C308 1.252 . S
O301 Gd262 2.386 . S
O301 C319 1.265 . S
O302 Gd263 2.353 . S
O302 C319 1.242 . S
O303 Gd263 2.468 . S
O303 C327 1.263 . S
O304 Gd263 2.427 . S
O304 C327 1.252 . S
O305 Gd262 2.307 . S
O305 C320 1.261 . S
O306 Gd263 2.388 . S
O306 C320 1.252 . S
C307 O295 1.265 . S
C307 O296 1.242 . S
C308 O299 1.261 . S
C308 O300 1.252 . S
C309 C312 1.394 . S
C309 C314 1.370 . S
C309 C315 1.500 . S
C310 C313 1.383 . S
C310 C314 1.395 . S
C311 C312 1.396 . S
C311 C313 1.365 . S
C311 H328 0.929 . S
C312 C309 1.394 . S
C312 C311 1.396 . S
C312 H329 0.930 . S
C313 C310 1.383 . S
C313 C311 1.365 . S
C313 H330 0.931 . S
C314 C309 1.370 . S
C314 C310 1.395 . S
C314 H331 0.930 . S
C315 Gd262 2.805 . S
C315 O297 1.263 . S
C315 O298 1.252 . S
C315 C309 1.500 . S
C316 H278 0.930 . S
C316 C292 1.417 1_455 S
C316 C317 1.329 1_455 S
C317 C287 1.437 . S
C317 H288 0.929 1_655 S
C317 C316 1.329 1_655 S
H318 C291 0.931 . S
C319 O301 1.265 . S
C319 O302 1.242 . S
C320 O305 1.261 . S
C320 O306 1.252 . S
C321 C324 1.394 . S
C321 C326 1.370 . S
C321 C327 1.500 . S
C322 C325 1.383 . S
C322 C326 1.395 . S
C323 C324 1.396 . S
C323 C325 1.365 . S
C323 H332 0.929 . S
C324 C321 1.394 . S
C324 C323 1.396 . S
C324 H333 0.930 . S
C325 C322 1.383 . S
C325 C323 1.365 . S
C325 H334 0.931 . S
C326 C321 1.370 . S
C326 C322 1.395 . S
C326 H335 0.930 . S
C327 Gd263 2.805 . S
C327 O303 1.263 . S
C327 O304 1.252 . S
C327 C321 1.500 . S
H328 C311 0.929 . S
H329 C312 0.930 . S
H330 C313 0.931 . S
H331 C314 0.930 . S
H332 C323 0.929 . S
H333 C324 0.930 . S
H334 C325 0.931 . S
H335 C326 0.930 . S
H336 C344 0.929 . S
H337 C346 0.930 . S
H338 C348 0.930 . S
H339 C351 0.929 . S
H340 C354 0.930 . S
H341 C356 0.960 . S
H342 C356 0.960 . S
H343 C356 0.960 . S
C344 H336 0.929 . S
C344 C345 1.371 1_554 S
C344 C346 1.384 . S
C345 C344 1.371 1_556 S
C345 C351 1.392 . S
C346 H337 0.930 . S
C346 C344 1.384 . S
C346 C347 1.378 . S
C347 C346 1.378 . S
C347 C348 1.385 1_554 S
C347 C352 1.493 . S
C348 H338 0.930 . S
C348 C347 1.385 1_556 S
C348 C351 1.386 . S
H349 C365 0.930 . S
H350 C366 0.931 . S
C351 H339 0.929 . S
C351 C345 1.392 . S
C351 C348 1.386 . S
C352 C347 1.493 . S
C352 C354 1.385 1_554 S
C352 C355 1.418 . S
H353 C359 0.930 . S
C354 H340 0.930 . S
C354 C352 1.385 1_556 S
C354 C357 1.403 . S
C355 C352 1.418 . S
C355 C356 1.524 . S
C355 C359 1.400 . S
C356 H341 0.960 . S
C356 H342 0.960 . S
C356 H343 0.960 . S
C356 C355 1.524 . S
C357 C354 1.403 . S
C357 C358 1.392 . S
C357 C361 1.495 . S
C358 C357 1.392 . S
C358 C359 1.385 1_556 S
C358 C360 1.478 . S
C359 H353 0.930 . S
C359 C355 1.400 . S
C359 C358 1.385 1_554 S
C360 C358 1.478 . S
C360 C362 1.381 1_556 S
C360 C366 1.383 . S
C361 C357 1.495 . S
C361 H367 0.959 . S
C361 H368 0.961 . S
C361 H369 0.960 . S
C362 C360 1.381 1_554 S
C362 C363 1.394 . S
C362 H370 0.930 . S
C363 C362 1.394 . S
C363 C364 1.383 1_554 S
C363 H371 0.929 . S
C364 C363 1.383 1_556 S
C364 C365 1.378 . S
C365 H349 0.930 . S
C365 C364 1.378 . S
C365 C366 1.379 . S
C366 H350 0.931 . S
C366 C360 1.383 . S
C366 C365 1.379 . S
H367 C361 0.959 . S
H368 C361 0.961 . S
H369 C361 0.960 . S
H370 C362 0.930 . S
H371 C363 0.929 . S
H372 C380 0.929 . S
H373 C382 0.930 . S
H374 C384 0.930 . S
H375 C387 0.929 . S
H376 C390 0.930 . S
H377 C392 0.960 . S
H378 C392 0.960 . S
H379 C392 0.960 . S
C380 H372 0.929 . S
C380 C381 1.377 . S
C380 C382 1.384 . S
C381 C380 1.377 . S
C381 C387 1.390 . S
C382 H373 0.930 . S
C382 C380 1.384 . S
C382 C383 1.372 . S
C383 C382 1.372 . S
C383 C384 1.400 . S
C383 C388 1.490 . S
C384 H374 0.930 . S
C384 C383 1.400 . S
C384 C387 1.386 . S
H385 C401 0.930 . S
H386 C402 0.931 . S
C387 H375 0.929 . S
C387 C381 1.390 . S
C387 C384 1.386 . S
C388 C383 1.490 . S
C388 C390 1.395 . S
C388 C391 1.403 . S
H389 C395 0.930 . S
C390 H376 0.930 . S
C390 C388 1.395 . S
C390 C393 1.403 . S
C391 C388 1.403 . S
C391 C392 1.524 . S
C391 C395 1.400 . S
C392 H377 0.960 . S
C392 H378 0.960 . S
C392 H379 0.960 . S
C392 C391 1.524 . S
C393 C390 1.403 . S
C393 C394 1.392 . S
C393 C397 1.495 . S
C394 C393 1.392 . S
C394 C395 1.385 . S
C394 C396 1.478 . S
C395 H389 0.930 . S
C395 C391 1.400 . S
C395 C394 1.385 . S
C396 C394 1.478 . S
C396 C398 1.381 . S
C396 C402 1.383 . S
C397 C393 1.495 . S
C397 H403 0.959 . S
C397 H404 0.961 . S
C397 H405 0.960 . S
C398 C396 1.381 . S
C398 C399 1.394 . S
C398 H406 0.930 . S
C399 C398 1.394 . S
C399 C400 1.383 . S
C399 H407 0.929 . S
C400 C399 1.383 . S
C400 C401 1.377 . S
C401 H385 0.930 . S
C401 C400 1.377 . S
C401 C402 1.379 . S
C402 H386 0.931 . S
C402 C396 1.383 . S
C402 C401 1.379 . S
H403 C397 0.959 . S
H404 C397 0.961 . S
H405 C397 0.960 . S
H406 C398 0.930 . S
H407 C399 0.929 . S
H408 C416 0.929 . S
H409 C418 0.930 . S
H410 C420 0.930 . S
H411 C423 0.929 . S
H412 C426 0.930 . S
H413 C428 0.960 . S
H414 C428 0.960 . S
H415 C428 0.960 . S
C416 H408 0.929 . S
C416 C417 1.377 . S
C416 C418 1.384 . S
C417 C416 1.377 . S
C417 C423 1.390 1_556 S
C418 H409 0.930 . S
C418 C416 1.384 . S
C418 C419 1.372 . S
C419 C418 1.372 . S
C419 C420 1.400 1_556 S
C419 C424 1.490 . S
C420 H410 0.930 . S
C420 C419 1.400 1_554 S
C420 C423 1.386 . S
H421 C437 0.930 . S
H422 C438 0.931 . S
C423 H411 0.929 . S
C423 C417 1.390 1_554 S
C423 C420 1.386 . S
C424 C419 1.490 . S
C424 C426 1.395 1_546 S
C424 C427 1.403 1_455 S
H425 C431 0.930 . S
C426 H412 0.930 . S
C426 C424 1.395 1_564 S
C426 C429 1.403 . S
C427 C424 1.403 1_655 S
C427 C428 1.524 . S
C427 C431 1.400 1_545 S
C428 H413 0.960 . S
C428 H414 0.960 . S
C428 H415 0.960 . S
C428 C427 1.524 . S
C429 C426 1.403 . S
C429 C430 1.392 1_455 S
C429 C433 1.495 . S
C430 C429 1.392 1_655 S
C430 C431 1.385 1_554 S
C430 C432 1.478 . S
C431 H425 0.930 . S
C431 C427 1.400 1_565 S
C431 C430 1.385 1_556 S
C432 C430 1.478 . S
C432 C434 1.381 1_554 S
C432 C438 1.383 . S
C433 C429 1.495 . S
C433 H439 0.959 . S
C433 H440 0.961 . S
C433 H441 0.960 . S
C434 C432 1.381 1_556 S
C434 C435 1.394 . S
C434 H442 0.930 . S
C435 C434 1.394 . S
C435 C436 1.383 1_556 S
C435 H443 0.929 . S
C436 C435 1.383 1_554 S
C436 C437 1.377 . S
C437 H421 0.930 . S
C437 C436 1.377 . S
C437 C438 1.379 . S
C438 H422 0.931 . S
C438 C432 1.383 . S
C438 C437 1.379 . S
H439 C433 0.959 . S
H440 C433 0.961 . S
H441 C433 0.960 . S
H442 C434 0.930 . S
H443 C435 0.929 . S
H444 C452 0.929 . S
H445 C454 0.930 . S
H446 C456 0.930 . S
H447 C459 0.929 . S
H448 C462 0.930 . S
H449 C464 0.960 . S
H450 C464 0.960 . S
H451 C464 0.960 1_655 S
C452 H444 0.929 . S
C452 C453 1.377 . S
C452 C454 1.384 . S
C453 C452 1.377 . S
C453 C459 1.390 . S
C454 H445 0.930 . S
C454 C452 1.384 . S
C454 C455 1.372 . S
C455 C454 1.372 . S
C455 C456 1.400 . S
C455 C460 1.490 . S
C456 H446 0.930 . S
C456 C455 1.400 . S
C456 C459 1.386 . S
H457 C473 0.930 . S
H458 C474 0.931 . S
C459 H447 0.929 . S
C459 C453 1.390 . S
C459 C456 1.386 . S
C460 C455 1.490 . S
C460 C462 1.395 . S
C460 C463 1.403 1_655 S
H461 C467 0.930 . S
C462 H448 0.930 . S
C462 C460 1.395 . S
C462 C465 1.403 1_545 S
C463 C460 1.403 1_455 S
C463 C464 1.524 . S
C463 C467 1.400 1_545 S
C464 H449 0.960 . S
C464 H450 0.960 . S
C464 H451 0.960 1_455 S
C464 C463 1.524 . S
C465 C462 1.403 1_565 S
C465 C466 1.392 1_655 S
C465 C469 1.495 . S
C466 C465 1.392 1_455 S
C466 C467 1.385 . S
C466 C468 1.478 . S
C467 H461 0.930 . S
C467 C463 1.400 1_565 S
C467 C466 1.385 . S
C468 C466 1.478 . S
C468 C470 1.381 . S
C468 C474 1.383 . S
C469 C465 1.495 . S
C469 H475 0.959 . S
C469 H476 0.961 . S
C469 H477 0.960 1_655 S
C470 C468 1.381 . S
C470 C471 1.394 . S
C470 H478 0.930 . S
C471 C470 1.394 . S
C471 C472 1.383 . S
C471 H479 0.929 . S
C472 C471 1.383 . S
C472 C473 1.377 . S
C473 H457 0.930 . S
C473 C472 1.377 . S
C473 C474 1.379 . S
C474 H458 0.931 . S
C474 C468 1.383 . S
C474 C473 1.379 . S
H475 C469 0.959 . S
H476 C469 0.961 . S
H477 C469 0.960 1_455 S
H478 C470 0.930 . S
H479 C471 0.929 . S
H480 C488 0.929 . S
H481 C490 0.930 . S
H482 C492 0.930 . S
H483 C495 0.929 . S
H484 C498 0.930 . S
H485 C500 0.960 . S
H486 C500 0.960 . S
H487 C500 0.960 . S
C488 H480 0.929 . S
C488 C489 1.377 . S
C488 C490 1.384 . S
C489 C488 1.377 . S
C489 C495 1.390 . S
C490 H481 0.930 . S
C490 C488 1.384 . S
C490 C491 1.372 . S
C491 C490 1.372 . S
C491 C492 1.400 . S
C491 C496 1.490 . S
C492 H482 0.930 . S
C492 C491 1.400 . S
C492 C495 1.386 . S
H493 C509 0.930 . S
H494 C510 0.931 . S
C495 H483 0.929 . S
C495 C489 1.390 . S
C495 C492 1.386 . S
C496 C491 1.490 . S
C496 C498 1.395 . S
C496 C499 1.403 . S
H497 C503 0.930 . S
C498 H484 0.930 . S
C498 C496 1.395 . S
C498 C501 1.403 . S
C499 C496 1.403 . S
C499 C500 1.524 . S
C499 C503 1.400 . S
C500 H485 0.960 . S
C500 H486 0.960 . S
C500 H487 0.960 . S
C500 C499 1.524 . S
C501 C498 1.403 . S
C501 C502 1.392 . S
C501 C505 1.495 . S
C502 C501 1.392 . S
C502 C503 1.385 . S
C502 C504 1.478 . S
C503 H497 0.930 . S
C503 C499 1.400 . S
C503 C502 1.385 . S
C504 C502 1.478 . S
C504 C506 1.381 . S
C504 C510 1.383 . S
C505 C501 1.495 . S
C505 H511 0.959 . S
C505 H512 0.961 . S
C505 H513 0.960 . S
C506 C504 1.381 . S
C506 C507 1.394 . S
C506 H514 0.930 . S
C507 C506 1.394 . S
C507 C508 1.383 . S
C507 H515 0.929 . S
C508 C507 1.383 . S
C508 C509 1.377 . S
C509 H493 0.930 . S
C509 C508 1.377 . S
C509 C510 1.379 . S
C510 H494 0.931 . S
C510 C504 1.383 . S
C510 C509 1.379 . S
H511 C505 0.959 . S
H512 C505 0.961 . S
H513 C505 0.960 . S
H514 C506 0.930 . S
H515 C507 0.929 . S
H516 C524 0.929 . S
H517 C526 0.930 . S
H518 C528 0.930 . S
H519 C531 0.929 . S
H520 C534 0.930 . S
H521 C536 0.960 . S
H522 C536 0.960 . S
H523 C536 0.960 . S
C524 H516 0.929 . S
C524 C525 1.377 . S
C524 C526 1.384 . S
C525 C524 1.377 . S
C525 C531 1.390 . S
C526 H517 0.930 . S
C526 C524 1.384 . S
C526 C527 1.372 . S
C527 C526 1.372 . S
C527 C528 1.400 . S
C527 C532 1.490 . S
C528 H518 0.930 . S
C528 C527 1.400 . S
C528 C531 1.386 . S
H529 C545 0.930 . S
H530 C546 0.931 . S
C531 H519 0.929 . S
C531 C525 1.390 . S
C531 C528 1.386 . S
C532 C527 1.490 . S
C532 C534 1.395 . S
C532 C535 1.403 . S
H533 C539 0.930 . S
C534 H520 0.930 . S
C534 C532 1.395 . S
C534 C537 1.403 . S
C535 C532 1.403 . S
C535 C536 1.524 . S
C535 C539 1.400 . S
C536 H521 0.960 . S
C536 H522 0.960 . S
C536 H523 0.960 . S
C536 C535 1.524 . S
C537 C534 1.403 . S
C537 C538 1.392 . S
C537 C541 1.495 . S
C538 C537 1.392 . S
C538 C539 1.385 . S
C538 C540 1.478 . S
C539 H533 0.930 . S
C539 C535 1.400 . S
C539 C538 1.385 . S
C540 C538 1.478 . S
C540 C542 1.381 . S
C540 C546 1.383 . S
C541 C537 1.495 . S
C541 H547 0.959 . S
C541 H548 0.961 . S
C541 H549 0.960 . S
C542 C540 1.381 . S
C542 C543 1.394 . S
C542 H550 0.930 . S
C543 C542 1.394 . S
C543 C544 1.383 . S
C543 H551 0.929 . S
C544 C543 1.383 . S
C544 C545 1.377 . S
C545 H529 0.930 . S
C545 C544 1.377 . S
C545 C546 1.379 . S
C546 H530 0.931 . S
C546 C540 1.383 . S
C546 C545 1.379 . S
H547 C541 0.959 . S
H548 C541 0.961 . S
H549 C541 0.960 . S
H550 C542 0.930 . S
H551 C543 0.929 . S
H552 C560 0.929 . S
H553 C562 0.930 . S
H554 C564 0.930 . S
H555 C567 0.929 . S
H556 C570 0.930 . S
H557 C572 0.960 . S
H558 C572 0.960 . S
H559 C572 0.960 . S
C560 H552 0.929 . S
C560 C561 1.377 . S
C560 C562 1.384 . S
C561 C560 1.377 . S
C561 C567 1.390 . S
C562 H553 0.930 . S
C562 C560 1.384 . S
C562 C563 1.372 . S
C563 C562 1.372 . S
C563 C564 1.400 . S
C563 C568 1.490 . S
C564 H554 0.930 . S
C564 C563 1.400 . S
C564 C567 1.386 . S
H565 C581 0.930 . S
H566 C582 0.931 . S
C567 H555 0.929 . S
C567 C561 1.390 . S
C567 C564 1.386 . S
C568 C563 1.490 . S
C568 C570 1.395 . S
C568 C571 1.403 . S
H569 C575 0.930 . S
C570 H556 0.930 . S
C570 C568 1.395 . S
C570 C573 1.403 . S
C571 C568 1.403 . S
C571 C572 1.524 . S
C571 C575 1.400 . S
C572 H557 0.960 . S
C572 H558 0.960 . S
C572 H559 0.960 . S
C572 C571 1.524 . S
C573 C570 1.403 . S
C573 C574 1.392 . S
C573 C577 1.495 . S
C574 C573 1.392 . S
C574 C575 1.385 . S
C574 C576 1.478 . S
C575 H569 0.930 . S
C575 C571 1.400 . S
C575 C574 1.385 . S
C576 C574 1.478 . S
C576 C578 1.381 . S
C576 C582 1.383 . S
C577 C573 1.495 . S
C577 H583 0.959 . S
C577 H584 0.961 . S
C577 H585 0.960 . S
C578 C576 1.381 . S
C578 C579 1.394 . S
C578 H586 0.930 . S
C579 C578 1.394 . S
C579 C580 1.383 . S
C579 H587 0.929 . S
C580 C579 1.383 . S
C580 C581 1.377 . S
C581 H565 0.930 . S
C581 C580 1.377 . S
C581 C582 1.379 . S
C582 H566 0.931 . S
C582 C576 1.383 . S
C582 C581 1.379 . S
H583 C577 0.959 . S
H584 C577 0.961 . S
H585 C577 0.960 . S
H586 C578 0.930 . S
H587 C579 0.929 . S
H588 C596 0.929 . S
H589 C598 0.930 . S
H590 C600 0.930 . S
H591 C603 0.929 . S
H592 C606 0.930 . S
H593 C608 0.960 . S
H594 C608 0.960 . S
H595 C608 0.960 . S
C596 H588 0.929 . S
C596 C597 1.377 . S
C596 C598 1.384 . S
C597 C596 1.377 . S
C597 C603 1.390 . S
C598 H589 0.930 . S
C598 C596 1.384 . S
C598 C599 1.372 . S
C599 C598 1.372 . S
C599 C600 1.400 . S
C599 C604 1.490 . S
C600 H590 0.930 . S
C600 C599 1.400 . S
C600 C603 1.386 . S
H601 C617 0.930 . S
H602 C618 0.931 . S
C603 H591 0.929 . S
C603 C597 1.390 . S
C603 C600 1.386 . S
C604 C599 1.490 . S
C604 C606 1.395 . S
C604 C607 1.403 . S
H605 C611 0.930 . S
C606 H592 0.930 . S
C606 C604 1.395 . S
C606 C609 1.403 . S
C607 C604 1.403 . S
C607 C608 1.524 . S
C607 C611 1.400 . S
C608 H593 0.960 . S
C608 H594 0.960 . S
C608 H595 0.960 . S
C608 C607 1.524 . S
C609 C606 1.403 . S
C609 C610 1.392 . S
C609 C613 1.495 . S
C610 C609 1.392 . S
C610 C611 1.385 . S
C610 C612 1.478 . S
C611 H605 0.930 . S
C611 C607 1.400 . S
C611 C610 1.385 . S
C612 C610 1.478 . S
C612 C614 1.381 . S
C612 C618 1.383 . S
C613 C609 1.495 . S
C613 H619 0.959 . S
C613 H620 0.961 . S
C613 H621 0.960 . S
C614 C612 1.381 . S
C614 C615 1.394 . S
C614 H622 0.930 . S
C615 C614 1.394 . S
C615 C616 1.383 . S
C615 H623 0.929 . S
C616 C615 1.383 . S
C616 C617 1.377 . S
C617 H601 0.930 . S
C617 C616 1.377 . S
C617 C618 1.379 . S
C618 H602 0.931 . S
C618 C612 1.383 . S
C618 C617 1.379 . S
H619 C613 0.959 . S
H620 C613 0.961 . S
H621 C613 0.960 . S
H622 C614 0.930 . S
H623 C615 0.929 . S
H624 C632 0.929 . S
H625 C634 0.930 . S
H626 C636 0.930 . S
H627 C639 0.929 . S
H628 C642 0.930 . S
H629 C644 0.960 . S
H630 C644 0.960 . S
H631 C644 0.960 . S
C632 H624 0.929 . S
C632 C633 1.377 . S
C632 C634 1.384 . S
C633 C632 1.377 . S
C633 C639 1.390 . S
C634 H625 0.930 . S
C634 C632 1.384 . S
C634 C635 1.372 . S
C635 C634 1.372 . S
C635 C636 1.400 . S
C635 C640 1.490 . S
C636 H626 0.930 . S
C636 C635 1.400 . S
C636 C639 1.386 . S
H637 C653 0.930 1_655 S
H638 C654 0.931 . S
C639 H627 0.929 . S
C639 C633 1.390 . S
C639 C636 1.386 . S
C640 C635 1.490 . S
C640 C642 1.395 . S
C640 C643 1.403 . S
H641 C647 0.930 . S
C642 H628 0.930 . S
C642 C640 1.395 . S
C642 C645 1.403 1_655 S
C643 C640 1.403 . S
C643 C644 1.524 . S
C643 C647 1.400 . S
C644 H629 0.960 . S
C644 H630 0.960 . S
C644 H631 0.960 . S
C644 C643 1.524 . S
C645 C642 1.403 1_455 S
C645 C646 1.392 1_455 S
C645 C649 1.495 . S
C646 C645 1.392 1_655 S
C646 C647 1.385 . S
C646 C648 1.478 1_655 S
C647 H641 0.930 . S
C647 C643 1.400 . S
C647 C646 1.385 . S
C648 C646 1.478 1_455 S
C648 C650 1.381 . S
C648 C654 1.383 1_455 S
C649 C645 1.495 . S
C649 H655 0.959 . S
C649 H656 0.961 . S
C649 H657 0.960 . S
C650 C648 1.381 . S
C650 C651 1.394 . S
C650 H658 0.930 . S
C651 C650 1.394 . S
C651 C652 1.383 . S
C651 H659 0.929 . S
C652 C651 1.383 . S
C652 C653 1.377 . S
C653 H637 0.930 1_455 S
C653 C652 1.377 . S
C653 C654 1.379 1_455 S
C654 H638 0.931 . S
C654 C648 1.383 1_655 S
C654 C653 1.379 1_655 S
H655 C649 0.959 . S
H656 C649 0.961 . S
H657 C649 0.960 . S
H658 C650 0.930 . S
H659 C651 0.929 . S
H660 C668 0.929 . S
H661 C670 0.930 . S
H662 C672 0.930 . S
H663 C675 0.929 . S
H664 C678 0.930 . S
H665 C680 0.960 . S
H666 C680 0.960 . S
H667 C680 0.960 . S
C668 H660 0.929 . S
C668 C669 1.377 . S
C668 C670 1.384 . S
C669 C668 1.377 . S
C669 C675 1.390 . S
C670 H661 0.930 . S
C670 C668 1.384 . S
C670 C671 1.372 . S
C671 C670 1.372 . S
C671 C672 1.400 . S
C671 C676 1.490 . S
C672 H662 0.930 . S
C672 C671 1.400 . S
C672 C675 1.386 . S
H673 C689 0.930 . S
H674 C690 0.931 . S
C675 H663 0.929 . S
C675 C669 1.390 . S
C675 C672 1.386 . S
C676 C671 1.490 . S
C676 C678 1.395 . S
C676 C679 1.403 . S
H677 C683 0.930 . S
C678 H664 0.930 . S
C678 C676 1.395 . S
C678 C681 1.403 . S
C679 C676 1.403 . S
C679 C680 1.524 . S
C679 C683 1.400 . S
C680 H665 0.960 . S
C680 H666 0.960 . S
C680 H667 0.960 . S
C680 C679 1.524 . S
C681 C678 1.403 . S
C681 C682 1.392 . S
C681 C685 1.495 1_655 S
C682 C681 1.392 . S
C682 C683 1.385 . S
C682 C684 1.478 . S
C683 H677 0.930 . S
C683 C679 1.400 . S
C683 C682 1.385 . S
C684 C682 1.478 . S
C684 C686 1.381 . S
C684 C690 1.383 1_655 S
C685 C681 1.495 1_455 S
C685 H691 0.959 . S
C685 H692 0.961 . S
C685 H693 0.960 1_455 S
C686 C684 1.381 . S
C686 C687 1.394 1_655 S
C686 H694 0.930 . S
C687 C686 1.394 1_455 S
C687 C688 1.383 . S
C687 H695 0.929 1_455 S
C688 C687 1.383 . S
C688 C689 1.377 . S
C689 H673 0.930 . S
C689 C688 1.377 . S
C689 C690 1.379 . S
C690 H674 0.931 . S
C690 C684 1.383 1_455 S
C690 C689 1.379 . S
H691 C685 0.959 . S
H692 C685 0.961 . S
H693 C685 0.960 1_655 S
H694 C686 0.930 . S
H695 C687 0.929 1_655 S
H696 C704 0.929 . S
H697 C706 0.930 . S
H698 C708 0.930 . S
H699 C711 0.929 . S
H700 C714 0.930 . S
H701 C716 0.960 . S
H702 C716 0.960 . S
H703 C716 0.960 1_655 S
C704 H696 0.929 . S
C704 C705 1.377 1_455 S
C704 C706 1.384 . S
C705 C704 1.377 1_655 S
C705 C711 1.390 . S
C706 H697 0.930 . S
C706 C704 1.384 . S
C706 C707 1.372 . S
C707 C706 1.372 . S
C707 C708 1.400 1_455 S
C707 C712 1.490 . S
C708 H698 0.930 . S
C708 C707 1.400 1_655 S
C708 C711 1.386 . S
H709 C725 0.930 . S
H710 C726 0.931 . S
C711 H699 0.929 . S
C711 C705 1.390 . S
C711 C708 1.386 . S
C712 C707 1.490 . S
C712 C714 1.395 . S
C712 C715 1.403 . S
H713 C719 0.930 . S
C714 H700 0.930 . S
C714 C712 1.395 . S
C714 C717 1.403 . S
C715 C712 1.403 . S
C715 C716 1.524 . S
C715 C719 1.400 . S
C716 H701 0.960 . S
C716 H702 0.960 . S
C716 H703 0.960 1_455 S
C716 C715 1.524 . S
C717 C714 1.403 . S
C717 C718 1.392 . S
C717 C721 1.495 . S
C718 C717 1.392 . S
C718 C719 1.385 . S
C718 C720 1.478 . S
C719 H713 0.930 . S
C719 C715 1.400 . S
C719 C718 1.385 . S
C720 C718 1.478 . S
C720 C722 1.381 . S
C720 C726 1.383 . S
C721 C717 1.495 . S
C721 H727 0.959 . S
C721 H728 0.961 . S
C721 H729 0.960 . S
C722 C720 1.381 . S
C722 C723 1.394 . S
C722 H730 0.930 . S
C723 C722 1.394 . S
C723 C724 1.383 . S
C723 H731 0.929 . S
C724 C723 1.383 . S
C724 C725 1.377 . S
C725 H709 0.930 . S
C725 C724 1.377 . S
C725 C726 1.379 . S
C726 H710 0.931 . S
C726 C720 1.383 . S
C726 C725 1.379 . S
H727 C721 0.959 . S
H728 C721 0.961 . S
H729 C721 0.960 . S
H730 C722 0.930 . S
H731 C723 0.929 . S
H732 C740 0.929 . S
H733 C742 0.930 . S
H734 C744 0.930 . S
H735 C747 0.929 . S
H736 C750 0.930 . S
H737 C752 0.960 . S
H738 C752 0.960 . S
H739 C752 0.960 . S
C740 H732 0.929 . S
C740 C741 1.377 . S
C740 C742 1.384 . S
C741 C740 1.377 . S
C741 C747 1.390 . S
C742 H733 0.930 . S
C742 C740 1.384 . S
C742 C743 1.372 . S
C743 C742 1.372 . S
C743 C744 1.400 . S
C743 C748 1.490 . S
C744 H734 0.930 . S
C744 C743 1.400 . S
C744 C747 1.386 . S
H745 C761 0.930 1_455 S
H746 C762 0.931 . S
C747 H735 0.929 . S
C747 C741 1.390 . S
C747 C744 1.386 . S
C748 C743 1.490 . S
C748 C750 1.395 . S
C748 C751 1.403 . S
H749 C755 0.930 . S
C750 H736 0.930 . S
C750 C748 1.395 . S
C750 C753 1.403 1_455 S
C751 C748 1.403 . S
C751 C752 1.524 . S
C751 C755 1.400 . S
C752 H737 0.960 . S
C752 H738 0.960 . S
C752 H739 0.960 . S
C752 C751 1.524 . S
C753 C750 1.403 1_655 S
C753 C754 1.392 1_655 S
C753 C757 1.495 . S
C754 C753 1.392 1_455 S
C754 C755 1.385 . S
C754 C756 1.478 1_455 S
C755 H749 0.930 . S
C755 C751 1.400 . S
C755 C754 1.385 . S
C756 C754 1.478 1_655 S
C756 C758 1.381 . S
C756 C762 1.383 1_655 S
C757 C753 1.495 . S
C757 H763 0.959 . S
C757 H764 0.961 . S
C757 H765 0.960 . S
C758 C756 1.381 . S
C758 C759 1.394 . S
C758 H766 0.930 . S
C759 C758 1.394 . S
C759 C760 1.383 . S
C759 H767 0.929 . S
C760 C759 1.383 . S
C760 C761 1.377 . S
C761 H745 0.930 1_655 S
C761 C760 1.377 . S
C761 C762 1.379 1_655 S
C762 H746 0.931 . S
C762 C756 1.383 1_455 S
C762 C761 1.379 1_455 S
H763 C757 0.959 . S
H764 C757 0.961 . S
H765 C757 0.960 . S
H766 C758 0.930 . S
H767 C759 0.929 . S
C345 C140 1.510 . S
C364 C68 1.509 1_556 S
C381 C236 1.502 . S
C400 C308 1.514 . S
C417 C56 1.498 . S
C436 C152 1.487 . S
C453 C320 1.501 . S
C472 C224 1.483 . S
C489 C322 1.171 . S
C508 C67 1.252 . S
C525 C154 1.174 . S
C544 C235 1.258 . S
C561 C139 1.262 . S
C580 C226 1.156 . S
C597 C307 1.260 . S
C616 C58 1.215 . S
C633 C151 1.261 . S
C652 C238 1.179 . S
C669 C319 1.260 . S
C688 C70 1.129 . S
C705 C310 1.186 . S
C724 C55 1.255 . S
C741 C223 1.263 . S
C760 C142 1.148 . S
