# Generated by pormake.
# Topology wmz, (6)-cn, num edge types: 1
# Building blocks:
#     Node 0, Type 0, BuildingBlock: IZENUY_clean_sbu_0, # of connection points: 6
#     Node 1, Type 0, BuildingBlock: IZENUY_clean_sbu_0, # of connection points: 6
#     Node 2, Type 0, BuildingBlock: IZENUY_clean_sbu_0, # of connection points: 6
#     Node 3, Type 0, BuildingBlock: IZENUY_clean_sbu_0, # of connection points: 6
#     Node 4, Type 0, BuildingBlock: IZENUY_clean_sbu_0, # of connection points: 6
#     Node 5, Type 0, BuildingBlock: IZENUY_clean_sbu_0, # of connection points: 6
#     Node 6, Type 0, BuildingBlock: IZENUY_clean_sbu_0, # of connection points: 6
#     Node 7, Type 0, BuildingBlock: IZENUY_clean_sbu_0, # of connection points: 6
#     Node 8, Type 0, BuildingBlock: IZENUY_clean_sbu_0, # of connection points: 6
#     Node 9, Type 0, BuildingBlock: IZENUY_clean_sbu_0, # of connection points: 6
#     Node 10, Type 0, BuildingBlock: IZENUY_clean_sbu_0, # of connection points: 6
#     Node 11, Type 0, BuildingBlock: IZENUY_clean_sbu_0, # of connection points: 6
#     Node 12, Type 0, BuildingBlock: IZENUY_clean_sbu_0, # of connection points: 6
#     Node 13, Type 0, BuildingBlock: IZENUY_clean_sbu_0, # of connection points: 6
#     Node 14, Type 0, BuildingBlock: IZENUY_clean_sbu_0, # of connection points: 6
#     Node 15, Type 0, BuildingBlock: IZENUY_clean_sbu_0, # of connection points: 6
#     Node 16, Type 0, BuildingBlock: IZENUY_clean_sbu_0, # of connection points: 6
#     Node 17, Type 0, BuildingBlock: IZENUY_clean_sbu_0, # of connection points: 6
#     Node 18, Type 0, BuildingBlock: IZENUY_clean_sbu_0, # of connection points: 6
#     Node 19, Type 0, BuildingBlock: IZENUY_clean_sbu_0, # of connection points: 6
#     Node 20, Type 0, BuildingBlock: IZENUY_clean_sbu_0, # of connection points: 6
#     Node 21, Type 0, BuildingBlock: IZENUY_clean_sbu_0, # of connection points: 6
#     Node 22, Type 0, BuildingBlock: IZENUY_clean_sbu_0, # of connection points: 6
#     Node 23, Type 0, BuildingBlock: IZENUY_clean_sbu_0, # of connection points: 6
#     Node 24, Type 0, BuildingBlock: IZENUY_clean_sbu_0, # of connection points: 6
#     Node 25, Type 0, BuildingBlock: IZENUY_clean_sbu_0, # of connection points: 6
#     Node 26, Type 0, BuildingBlock: IZENUY_clean_sbu_0, # of connection points: 6
#     Node 27, Type 0, BuildingBlock: IZENUY_clean_sbu_0, # of connection points: 6
#     Node 28, Type 0, BuildingBlock: IZENUY_clean_sbu_0, # of connection points: 6
#     Node 29, Type 0, BuildingBlock: IZENUY_clean_sbu_0, # of connection points: 6
#     Node 30, Type 0, BuildingBlock: IZENUY_clean_sbu_0, # of connection points: 6
#     Node 31, Type 0, BuildingBlock: IZENUY_clean_sbu_0, # of connection points: 6
#     Node 32, Type 0, BuildingBlock: IZENUY_clean_sbu_0, # of connection points: 6
#     Node 33, Type 0, BuildingBlock: IZENUY_clean_sbu_0, # of connection points: 6
#     Node 34, Type 0, BuildingBlock: IZENUY_clean_sbu_0, # of connection points: 6
#     Node 35, Type 0, BuildingBlock: IZENUY_clean_sbu_0, # of connection points: 6
#     Edge 36, Type (0, 0), BuildingBlock: OJICUG_clean_linker_0, # of connection points: 2
#     Edge 37, Type (0, 0), BuildingBlock: OJICUG_clean_linker_0, # of connection points: 2
#     Edge 38, Type (0, 0), BuildingBlock: OJICUG_clean_linker_0, # of connection points: 2
#     Edge 39, Type (0, 0), BuildingBlock: OJICUG_clean_linker_0, # of connection points: 2
#     Edge 40, Type (0, 0), BuildingBlock: OJICUG_clean_linker_0, # of connection points: 2
#     Edge 41, Type (0, 0), BuildingBlock: OJICUG_clean_linker_0, # of connection points: 2
#     Edge 42, Type (0, 0), BuildingBlock: OJICUG_clean_linker_0, # of connection points: 2
#     Edge 43, Type (0, 0), BuildingBlock: OJICUG_clean_linker_0, # of connection points: 2
#     Edge 44, Type (0, 0), BuildingBlock: OJICUG_clean_linker_0, # of connection points: 2
#     Edge 45, Type (0, 0), BuildingBlock: OJICUG_clean_linker_0, # of connection points: 2
#     Edge 46, Type (0, 0), BuildingBlock: OJICUG_clean_linker_0, # of connection points: 2
#     Edge 47, Type (0, 0), BuildingBlock: OJICUG_clean_linker_0, # of connection points: 2
#     Edge 48, Type (0, 0), BuildingBlock: OJICUG_clean_linker_0, # of connection points: 2
#     Edge 49, Type (0, 0), BuildingBlock: OJICUG_clean_linker_0, # of connection points: 2
#     Edge 50, Type (0, 0), BuildingBlock: OJICUG_clean_linker_0, # of connection points: 2
#     Edge 51, Type (0, 0), BuildingBlock: OJICUG_clean_linker_0, # of connection points: 2
#     Edge 52, Type (0, 0), BuildingBlock: OJICUG_clean_linker_0, # of connection points: 2
#     Edge 53, Type (0, 0), BuildingBlock: OJICUG_clean_linker_0, # of connection points: 2
#     Edge 54, Type (0, 0), BuildingBlock: OJICUG_clean_linker_0, # of connection points: 2
#     Edge 55, Type (0, 0), BuildingBlock: OJICUG_clean_linker_0, # of connection points: 2
#     Edge 56, Type (0, 0), BuildingBlock: OJICUG_clean_linker_0, # of connection points: 2
#     Edge 57, Type (0, 0), BuildingBlock: OJICUG_clean_linker_0, # of connection points: 2
#     Edge 58, Type (0, 0), BuildingBlock: OJICUG_clean_linker_0, # of connection points: 2
#     Edge 59, Type (0, 0), BuildingBlock: OJICUG_clean_linker_0, # of connection points: 2
#     Edge 60, Type (0, 0), BuildingBlock: OJICUG_clean_linker_0, # of connection points: 2
#     Edge 61, Type (0, 0), BuildingBlock: OJICUG_clean_linker_0, # of connection points: 2
#     Edge 62, Type (0, 0), BuildingBlock: OJICUG_clean_linker_0, # of connection points: 2
#     Edge 63, Type (0, 0), BuildingBlock: OJICUG_clean_linker_0, # of connection points: 2
#     Edge 64, Type (0, 0), BuildingBlock: OJICUG_clean_linker_0, # of connection points: 2
#     Edge 65, Type (0, 0), BuildingBlock: OJICUG_clean_linker_0, # of connection points: 2
#     Edge 66, Type (0, 0), BuildingBlock: OJICUG_clean_linker_0, # of connection points: 2
#     Edge 67, Type (0, 0), BuildingBlock: OJICUG_clean_linker_0, # of connection points: 2
#     Edge 68, Type (0, 0), BuildingBlock: OJICUG_clean_linker_0, # of connection points: 2
#     Edge 69, Type (0, 0), BuildingBlock: OJICUG_clean_linker_0, # of connection points: 2
#     Edge 70, Type (0, 0), BuildingBlock: OJICUG_clean_linker_0, # of connection points: 2
#     Edge 71, Type (0, 0), BuildingBlock: OJICUG_clean_linker_0, # of connection points: 2
#     Edge 72, Type (0, 0), BuildingBlock: OJICUG_clean_linker_0, # of connection points: 2
#     Edge 73, Type (0, 0), BuildingBlock: OJICUG_clean_linker_0, # of connection points: 2
#     Edge 74, Type (0, 0), BuildingBlock: OJICUG_clean_linker_0, # of connection points: 2
#     Edge 75, Type (0, 0), BuildingBlock: OJICUG_clean_linker_0, # of connection points: 2
#     Edge 76, Type (0, 0), BuildingBlock: OJICUG_clean_linker_0, # of connection points: 2
#     Edge 77, Type (0, 0), BuildingBlock: OJICUG_clean_linker_0, # of connection points: 2
#     Edge 78, Type (0, 0), BuildingBlock: OJICUG_clean_linker_0, # of connection points: 2
#     Edge 79, Type (0, 0), BuildingBlock: OJICUG_clean_linker_0, # of connection points: 2
#     Edge 80, Type (0, 0), BuildingBlock: OJICUG_clean_linker_0, # of connection points: 2
#     Edge 81, Type (0, 0), BuildingBlock: OJICUG_clean_linker_0, # of connection points: 2
#     Edge 82, Type (0, 0), BuildingBlock: OJICUG_clean_linker_0, # of connection points: 2
#     Edge 83, Type (0, 0), BuildingBlock: OJICUG_clean_linker_0, # of connection points: 2
#     Edge 84, Type (0, 0), BuildingBlock: OJICUG_clean_linker_0, # of connection points: 2
#     Edge 85, Type (0, 0), BuildingBlock: OJICUG_clean_linker_0, # of connection points: 2
#     Edge 86, Type (0, 0), BuildingBlock: OJICUG_clean_linker_0, # of connection points: 2
#     Edge 87, Type (0, 0), BuildingBlock: OJICUG_clean_linker_0, # of connection points: 2
#     Edge 88, Type (0, 0), BuildingBlock: OJICUG_clean_linker_0, # of connection points: 2
#     Edge 89, Type (0, 0), BuildingBlock: OJICUG_clean_linker_0, # of connection points: 2
#     Edge 90, Type (0, 0), BuildingBlock: OJICUG_clean_linker_0, # of connection points: 2
#     Edge 91, Type (0, 0), BuildingBlock: OJICUG_clean_linker_0, # of connection points: 2
#     Edge 92, Type (0, 0), BuildingBlock: OJICUG_clean_linker_0, # of connection points: 2
#     Edge 93, Type (0, 0), BuildingBlock: OJICUG_clean_linker_0, # of connection points: 2
#     Edge 94, Type (0, 0), BuildingBlock: OJICUG_clean_linker_0, # of connection points: 2
#     Edge 95, Type (0, 0), BuildingBlock: OJICUG_clean_linker_0, # of connection points: 2
#     Edge 96, Type (0, 0), BuildingBlock: OJICUG_clean_linker_0, # of connection points: 2
#     Edge 97, Type (0, 0), BuildingBlock: OJICUG_clean_linker_0, # of connection points: 2
#     Edge 98, Type (0, 0), BuildingBlock: OJICUG_clean_linker_0, # of connection points: 2
#     Edge 99, Type (0, 0), BuildingBlock: OJICUG_clean_linker_0, # of connection points: 2
#     Edge 100, Type (0, 0), BuildingBlock: OJICUG_clean_linker_0, # of connection points: 2
#     Edge 101, Type (0, 0), BuildingBlock: OJICUG_clean_linker_0, # of connection points: 2
#     Edge 102, Type (0, 0), BuildingBlock: OJICUG_clean_linker_0, # of connection points: 2
#     Edge 103, Type (0, 0), BuildingBlock: OJICUG_clean_linker_0, # of connection points: 2
#     Edge 104, Type (0, 0), BuildingBlock: OJICUG_clean_linker_0, # of connection points: 2
#     Edge 105, Type (0, 0), BuildingBlock: OJICUG_clean_linker_0, # of connection points: 2
#     Edge 106, Type (0, 0), BuildingBlock: OJICUG_clean_linker_0, # of connection points: 2
#     Edge 107, Type (0, 0), BuildingBlock: OJICUG_clean_linker_0, # of connection points: 2
#     Edge 108, Type (0, 0), BuildingBlock: OJICUG_clean_linker_0, # of connection points: 2
#     Edge 109, Type (0, 0), BuildingBlock: OJICUG_clean_linker_0, # of connection points: 2
#     Edge 110, Type (0, 0), BuildingBlock: OJICUG_clean_linker_0, # of connection points: 2
#     Edge 111, Type (0, 0), BuildingBlock: OJICUG_clean_linker_0, # of connection points: 2
#     Edge 112, Type (0, 0), BuildingBlock: OJICUG_clean_linker_0, # of connection points: 2
#     Edge 113, Type (0, 0), BuildingBlock: OJICUG_clean_linker_0, # of connection points: 2
#     Edge 114, Type (0, 0), BuildingBlock: OJICUG_clean_linker_0, # of connection points: 2
#     Edge 115, Type (0, 0), BuildingBlock: OJICUG_clean_linker_0, # of connection points: 2
#     Edge 116, Type (0, 0), BuildingBlock: OJICUG_clean_linker_0, # of connection points: 2
#     Edge 117, Type (0, 0), BuildingBlock: OJICUG_clean_linker_0, # of connection points: 2
#     Edge 118, Type (0, 0), BuildingBlock: OJICUG_clean_linker_0, # of connection points: 2
#     Edge 119, Type (0, 0), BuildingBlock: OJICUG_clean_linker_0, # of connection points: 2
#     Edge 120, Type (0, 0), BuildingBlock: OJICUG_clean_linker_0, # of connection points: 2
#     Edge 121, Type (0, 0), BuildingBlock: OJICUG_clean_linker_0, # of connection points: 2
#     Edge 122, Type (0, 0), BuildingBlock: OJICUG_clean_linker_0, # of connection points: 2
#     Edge 123, Type (0, 0), BuildingBlock: OJICUG_clean_linker_0, # of connection points: 2
#     Edge 124, Type (0, 0), BuildingBlock: OJICUG_clean_linker_0, # of connection points: 2
#     Edge 125, Type (0, 0), BuildingBlock: OJICUG_clean_linker_0, # of connection points: 2
#     Edge 126, Type (0, 0), BuildingBlock: OJICUG_clean_linker_0, # of connection points: 2
#     Edge 127, Type (0, 0), BuildingBlock: OJICUG_clean_linker_0, # of connection points: 2
#     Edge 128, Type (0, 0), BuildingBlock: OJICUG_clean_linker_0, # of connection points: 2
#     Edge 129, Type (0, 0), BuildingBlock: OJICUG_clean_linker_0, # of connection points: 2
#     Edge 130, Type (0, 0), BuildingBlock: OJICUG_clean_linker_0, # of connection points: 2
#     Edge 131, Type (0, 0), BuildingBlock: OJICUG_clean_linker_0, # of connection points: 2
#     Edge 132, Type (0, 0), BuildingBlock: OJICUG_clean_linker_0, # of connection points: 2
#     Edge 133, Type (0, 0), BuildingBlock: OJICUG_clean_linker_0, # of connection points: 2
#     Edge 134, Type (0, 0), BuildingBlock: OJICUG_clean_linker_0, # of connection points: 2
#     Edge 135, Type (0, 0), BuildingBlock: OJICUG_clean_linker_0, # of connection points: 2
#     Edge 136, Type (0, 0), BuildingBlock: OJICUG_clean_linker_0, # of connection points: 2
#     Edge 137, Type (0, 0), BuildingBlock: OJICUG_clean_linker_0, # of connection points: 2
#     Edge 138, Type (0, 0), BuildingBlock: OJICUG_clean_linker_0, # of connection points: 2
#     Edge 139, Type (0, 0), BuildingBlock: OJICUG_clean_linker_0, # of connection points: 2
#     Edge 140, Type (0, 0), BuildingBlock: OJICUG_clean_linker_0, # of connection points: 2
#     Edge 141, Type (0, 0), BuildingBlock: OJICUG_clean_linker_0, # of connection points: 2
#     Edge 142, Type (0, 0), BuildingBlock: OJICUG_clean_linker_0, # of connection points: 2
#     Edge 143, Type (0, 0), BuildingBlock: OJICUG_clean_linker_0, # of connection points: 2
# Relax obj value: 0.490
# Max RMSD: 0.222
# Mean RMSD: 0.222
data_MOF--net-wmz--node1-IZENUY_clean_sbu_0--edge1-OJICUG_clean_linker_0
_symmetry_space_group_name_H-M    P1
_symmetry_Int_Tables_number       1
_symmetry_cell_setting            triclinic
loop_
_symmetry_equiv_pos_as_xyz
'x, y, z'
_cell_length_a     34.934352
_cell_length_b     35.331836
_cell_length_c     45.040173
_cell_angle_alpha  89.922368
_cell_angle_beta   89.936014
_cell_angle_gamma 119.66715
loop_
_atom_site_label
_atom_site_type_symbol
_atom_site_fract_x
_atom_site_fract_y
_atom_site_fract_z
_atom_type_partial_charge
Fe0 Fe 0.22791 0.19586 0.11379 0.0
Fe1 Fe 0.17508 0.13574 0.06293 0.0
O2 O 0.22516 0.17854 0.07658 0.0
Fe3 Fe 0.27289 0.20375 0.05399 0.0
O4 O 0.29244 0.25728 0.0707 0.0
O5 O 0.23897 0.25002 0.10042 0.0
O6 O 0.16881 0.17903 0.11716 0.0
C7 C 0.13993 0.17288 0.09788 0.0
C8 C 0.3097 0.20047 0.10652 0.0
O9 O 0.14581 0.16528 0.07137 0.0
C10 C 0.23356 0.11497 0.03726 0.0
O11 O 0.21748 0.1419 0.12683 0.0
O12 O 0.15917 0.10686 0.09838 0.0
O13 O 0.30315 0.18895 0.07975 0.0
O14 O 0.28706 0.21517 0.11861 0.0
C15 C 0.21092 0.19268 0.01334 0.0
O16 O 0.20008 0.10297 0.05354 0.0
O17 O 0.26071 0.15485 0.03329 0.0
C18 C 0.18444 0.10653 0.11825 0.0
O19 O 0.18349 0.15701 0.02526 0.0
O20 O 0.24601 0.21943 0.02617 0.0
C21 C 0.26944 0.27242 0.08171 0.0
Fe22 Fe 0.86517 0.03715 0.11276 0.0
Fe23 Fe 0.91846 0.0349 0.0596 0.0
O24 O 0.88102 0.04927 0.07508 0.0
Fe25 Fe 0.85816 0.07567 0.05405 0.0
O26 O 0.80633 0.04833 0.0743 0.0
O27 O 0.80812 0.99689 0.09995 0.0
O28 O 0.87783 0.99287 0.1169 0.0
C29 C 0.88159 0.96787 0.0987 0.0
C30 C 0.8697 0.11791 0.10615 0.0
O31 O 0.88618 0.97793 0.07153 0.0
C32 C 0.94462 0.11354 0.03133 0.0
O33 O 0.92226 0.07729 0.12367 0.0
O34 O 0.95238 0.05017 0.09313 0.0
O35 O 0.88113 0.12175 0.07929 0.0
O36 O 0.85133 0.08061 0.11817 0.0
C37 C 0.85414 1.01507 0.01439 0.0
O38 O 0.9548 0.08974 0.04638 0.0
O39 O 0.9056 0.10632 0.03035 0.0
C40 C 0.95616 0.07721 0.11298 0.0
O41 O 0.89011 1.019 0.02386 0.0
O42 O 0.8345 0.0322 0.02718 0.0
C43 C 0.78774 1.00878 0.08187 0.0
Fe44 Fe 0.99273 0.80274 0.05812 0.0
Fe45 Fe 1.02867 0.84275 0.1188 0.0
O46 O 1.01705 0.84889 0.08144 0.0
Fe47 Fe 1.02934 0.90101 0.06877 0.0
O48 O 1.0432 0.89332 0.0312 0.0
O49 O 1.03613 0.82772 0.03062 0.0
O50 O 1.02421 0.77952 0.07462 0.0
C51 C 0.06237 0.8002 0.08586 0.0
C52 C 0.95005 0.84998 0.04143 0.0
O53 O 0.07081 0.8291 0.10577 0.0
C54 C 0.98597 0.89048 0.122 0.0
O55 O 0.94631 0.77383 0.0833 0.0
O56 O 0.98711 0.78485 0.12233 0.0
O57 O 0.97319 0.88231 0.05774 0.0
O58 O 0.95891 0.81971 0.03786 0.0
C59 C 0.0986 0.92783 0.10563 0.0
O60 O 0.98557 0.85585 0.13052 0.0
O61 O 1.01564 0.91624 0.10436 0.0
C62 C 0.9501 0.76464 0.10973 0.0
O63 O 0.07267 0.89974 0.12405 0.0
O64 O 0.08726 0.92411 0.07875 0.0
C65 C 0.04805 0.86408 0.01858 0.0
Fe66 Fe 0.15299 0.14808 0.37458 0.0
Fe67 Fe 0.21009 0.24476 0.39222 0.0
O68 O 0.19354 0.20214 0.36628 0.0
Fe69 Fe 0.21776 0.21423 0.3305 0.0
O70 O 0.20649 0.1588 0.32154 0.0
O71 O 0.19026 0.12791 0.36489 0.0
O72 O 0.16966 0.15035 0.41294 0.0
C73 C 0.20169 0.17816 0.42803 0.0
C74 C 0.12795 0.16703 0.32113 0.0
O75 O 0.22561 0.21696 0.41946 0.0
C76 C 0.21243 0.28832 0.3418 0.0
O77 O 0.11261 0.16318 0.38528 0.0
O78 O 0.15627 0.2237 0.40933 0.0
O79 O 0.16337 0.20253 0.31545 0.0
O80 O 0.12964 0.13855 0.33721 0.0
C81 C 0.28797 0.25362 0.36923 0.0
O82 O 0.19496 0.27577 0.36702 0.0
O83 O 0.23364 0.27167 0.33065 0.0
C84 C 0.11835 0.19295 0.40309 0.0
O85 O 0.26713 0.27171 0.37939 0.0
O86 O 0.27163 0.22678 0.34747 0.0
C87 C 0.20248 0.12867 0.3385 0.0
Fe88 Fe 0.86364 1.01769 0.33021 0.0
Fe89 Fe 0.91788 0.03363 0.38649 0.0
O90 O 0.86604 1.00865 0.36871 0.0
Fe91 Fe 0.81529 0.97565 0.38751 0.0
O92 O 0.78885 1.00027 0.36618 0.0
O93 O 0.84087 0.05415 0.34072 0.0
O94 O 0.91867 0.06434 0.32506 0.0
C95 C 0.94541 0.09316 0.34211 0.0
C96 C 0.79084 0.93416 0.33461 0.0
O97 O 0.93769 0.08734 0.36944 0.0
C98 C 0.87234 0.95294 0.41651 0.0
O99 O 0.8875 0.98177 0.32314 0.0
O100 O 0.94098 1.01525 0.35704 0.0
O101 O 0.79893 0.93085 0.36133 0.0
O102 O 0.80837 0.97153 0.3231 0.0
C103 C 0.8618 0.04506 0.42694 0.0
O104 O 0.90691 0.98479 0.40637 0.0
O105 O 0.83476 0.94767 0.41116 0.0
C106 C 0.92225 0.98685 0.33667 0.0
O107 O 0.8994 0.05336 0.4176 0.0
O108 O 0.82626 1.01552 0.41616 0.0
C109 C 0.80778 0.04001 0.35859 0.0
Fe110 Fe 0.06915 0.86563 0.34237 0.0
Fe111 Fe 0.10467 0.93266 0.39233 0.0
O112 O 0.09444 0.88234 0.37775 0.0
Fe113 Fe 0.11171 0.85082 0.39852 0.0
O114 O 0.05742 0.80548 0.39939 0.0
O115 O 1.03666 0.80623 0.35325 0.0
O116 O 1.02109 0.87061 0.35289 0.0
C117 C 1.02534 0.9071 0.35978 0.0
C118 C 0.13587 0.84459 0.33967 0.0
O119 O 0.06072 0.93545 0.37173 0.0
C120 C 0.17901 0.92936 0.41295 0.0
O121 O 0.09922 0.92268 0.32666 0.0
O122 O 0.14347 0.96003 0.36344 0.0
O123 O 0.12827 0.8306 0.36614 0.0
O124 O 0.11473 0.86092 0.32805 0.0
C125 C 0.07228 0.88115 0.44044 0.0
O126 O 0.15099 0.94168 0.41556 0.0
O127 O 0.16849 0.89425 0.39998 0.0
C128 C 0.13463 0.95569 0.33619 0.0
O129 O 0.06685 0.90567 0.42244 0.0
O130 O 0.09716 0.8654 0.43441 0.0
C131 C 1.03084 0.78744 0.37861 0.0
Fe132 Fe 0.90777 0.91939 0.88656 0.0
Fe133 Fe 0.81182 0.84902 0.89302 0.0
O134 O 0.86078 0.87444 0.87117 0.0
Fe135 Fe 0.86318 0.85674 0.83463 0.0
O136 O 0.91303 0.85319 0.84128 0.0
O137 O 0.94916 0.91542 0.86385 0.0
O138 O 0.9117 0.88482 0.91435 0.0
C139 C 0.88076 0.86427 0.93277 0.0
C140 C 0.90099 0.94959 0.8325 0.0
O141 O 0.84197 0.8572 0.92796 0.0
C142 C 0.77937 0.84864 0.8356 0.0
O143 O 0.87773 0.93537 0.91183 0.0
O144 O 0.80979 0.8991 0.89689 0.0
O145 O 0.89489 0.91429 0.82009 0.0
O146 O 0.9038 0.95431 0.86019 0.0
C147 C 0.81668 0.77862 0.87048 0.0
O148 O 0.77314 0.83571 0.8622 0.0
O149 O 0.81518 0.85939 0.82276 0.0
C150 C 0.8403 0.93201 0.90922 0.0
O151 O 0.80993 0.79789 0.89143 0.0
O152 O 0.83126 0.79727 0.8452 0.0
C153 C 0.94906 0.88509 0.84921 0.0
Fe154 Fe 0.21846 1.0083 0.83214 0.0
Fe155 Fe 0.15919 1.00719 0.88243 0.0
O156 O 0.19927 0.99478 0.86912 0.0
Fe157 Fe 0.22069 0.96866 0.8917 0.0
O158 O 0.27489 0.99788 0.87456 0.0
O159 O 0.27424 0.04844 0.84683 0.0
O160 O 0.20588 0.05289 0.82774 0.0
C161 C 0.20122 0.07725 0.84619 0.0
C162 C 0.2161 0.92824 0.83948 0.0
O163 O 0.19293 0.06504 0.87295 0.0
C164 C 0.1312 0.92751 0.909 0.0
O165 O 0.1624 0.96786 0.81896 0.0
O166 O 0.13034 0.99528 0.84701 0.0
O167 O 0.20218 0.92353 0.8658 0.0
O168 O 0.2338 0.96562 0.82759 0.0
C169 C 0.21624 0.02437 0.9318 0.0
O170 O 0.12186 0.95103 0.89287 0.0
O171 O 0.17046 0.9361 0.91246 0.0
C172 C 0.12774 0.96818 0.82773 0.0
O173 O 0.18142 1.0198 0.91992 0.0
O174 O 0.23996 1.01119 0.91956 0.0
C175 C 0.29353 0.03715 0.86624 0.0
Fe176 Fe 0.06254 0.1531 0.87712 0.0
Fe177 Fe 0.09535 0.25083 0.88732 0.0
O178 O 0.07313 0.20451 0.86409 0.0
Fe179 Fe 0.062 0.21005 0.8265 0.0
O180 O 1.02028 0.15295 0.82069 0.0
O181 O 1.00484 0.12751 0.86574 0.0
O182 O 0.04613 0.15996 0.91406 0.0
C183 C 1.03912 0.18822 0.92607 0.0
C184 C 0.10765 0.16483 0.82437 0.0
O185 O 0.05114 0.22478 0.91427 0.0
C186 C 0.13823 0.28907 0.83594 0.0
O187 O 0.11876 0.17406 0.88947 0.0
O188 O 0.12985 0.23598 0.90857 0.0
O189 O 0.10678 0.19875 0.81541 0.0
O190 O 0.07869 0.13881 0.84225 0.0
C191 C 1.02539 0.25083 0.85848 0.0
O192 O 0.14215 0.28058 0.86254 0.0
O193 O 0.10154 0.26813 0.82326 0.0
C194 C 0.14082 0.20719 0.90544 0.0
O195 O 0.06329 0.27245 0.86986 0.0
O196 O 1.01796 0.22169 0.83892 0.0
C197 C 0.99439 0.12438 0.83865 0.0
Fe198 Fe 0.88099 0.80534 0.55617 0.0
Fe199 Fe 0.87687 0.83687 0.61845 0.0
O200 O 0.89949 0.84814 0.58219 0.0
Fe201 Fe 0.94074 0.9018 0.57357 0.0
O202 O 0.92347 0.90004 0.53544 0.0
O203 O 0.86648 0.83415 0.5291 0.0
O204 O 0.82407 0.78053 0.56928 0.0
C205 C 0.8048 0.7991 0.5813 0.0
C206 C 0.97289 0.85527 0.54431 0.0
O207 O 0.82293 0.82563 0.60295 0.0
C208 C 0.96685 0.88236 0.6264 0.0
O209 O 0.89466 0.77269 0.58101 0.0
O210 O 0.85887 0.77895 0.61835 0.0
O211 O 0.97973 0.88531 0.5622 0.0
O212 O 0.93451 0.8247 0.53868 0.0
C213 C 0.89314 0.92258 0.61048 0.0
O214 O 0.93133 0.84713 0.63231 0.0
O215 O 0.96519 0.9111 0.61059 0.0
C216 C 0.87761 0.7604 0.60637 0.0
O217 O 0.8899 0.8928 0.62748 0.0
O218 O 0.90468 0.92314 0.58393 0.0
C219 C 0.89114 0.87272 0.52038 0.0
Fe220 Fe 0.23058 0.03199 0.61641 0.0
Fe221 Fe 0.17594 1.01542 0.56023 0.0
O222 O 0.2279 0.04 0.5778 0.0
Fe223 Fe 0.27851 0.07189 0.5586 0.0
O224 O 0.30532 0.04847 0.58076 0.0
O225 O 0.25342 0.99531 0.60661 0.0
O226 O 0.17565 0.98513 0.6216 0.0
C227 C 0.14894 0.95605 0.60462 0.0
C228 C 0.30328 0.11547 0.61048 0.0
O229 O 0.1563 0.9617 0.57721 0.0
C230 C 0.22177 0.09521 0.5297 0.0
O231 O 0.2067 0.06805 0.62306 0.0
O232 O 0.15275 0.0335 0.58984 0.0
O233 O 0.29478 0.11765 0.58368 0.0
O234 O 0.28579 0.07867 0.62289 0.0
C235 C 0.23148 1.0023 0.52008 0.0
O236 O 0.18719 0.0647 0.5409 0.0
O237 O 0.25893 0.09874 0.53388 0.0
C238 C 0.17175 0.06263 0.6097 0.0
O239 O 0.19418 0.99592 0.52874 0.0
O240 O 0.26728 0.03059 0.53124 0.0
C241 C 0.28662 1.00901 0.58891 0.0
Fe242 Fe 1.02444 0.18511 0.6055 0.0
Fe243 Fe 0.9894 0.11792 0.55556 0.0
O244 O 0.99922 0.16824 0.57003 0.0
Fe245 Fe 0.98146 0.19937 0.54915 0.0
O246 O 1.03538 0.24578 0.54885 0.0
O247 O 0.05702 0.24451 0.59467 0.0
O248 O 0.07274 0.18012 0.59523 0.0
C249 C 0.06859 0.14363 0.58829 0.0
C250 C 0.95613 0.2044 0.60788 0.0
O251 O 1.03326 0.11532 0.57632 0.0
C252 C 0.915 0.12026 0.53403 0.0
O253 O 0.99448 0.12819 0.62121 0.0
O254 O 0.95047 0.09048 0.58442 0.0
O255 O 0.96343 0.21835 0.5814 0.0
O256 O 0.97858 0.18964 0.61972 0.0
C257 C 1.02172 0.16935 0.50744 0.0
O258 O 0.94328 0.10827 0.53197 0.0
O259 O 0.92491 0.1553 0.54691 0.0
C260 C 0.95921 0.09507 0.6117 0.0
O261 O 1.02728 0.14499 0.52553 0.0
O262 O 0.9972 0.18553 0.51346 0.0
C263 C 0.06224 0.26375 0.56956 0.0
Fe264 Fe 0.89485 0.52652 0.44346 0.0
Fe265 Fe 0.84895 0.46615 0.39061 0.0
O266 O 0.89687 0.50905 0.40682 0.0
Fe267 Fe 0.94629 0.53293 0.3853 0.0
O268 O 0.95087 0.58521 0.38719 0.0
O269 O 0.92783 0.58601 0.43297 0.0
O270 O 0.84596 0.53184 0.43725 0.0
C271 C 0.80949 0.50134 0.42871 0.0
C272 C 0.97764 0.53191 0.44281 0.0
O273 O 0.80824 0.4713 0.41316 0.0
C274 C 0.91411 0.44965 0.36874 0.0
O275 O 0.86195 0.4687 0.45737 0.0
O276 O 0.84984 0.42898 0.41648 0.0
O277 O 0.98431 0.54432 0.41614 0.0
O278 O 0.94203 0.52243 0.45547 0.0
C279 C 0.87993 0.52372 0.34576 0.0
O280 O 0.87799 0.44897 0.3653 0.0
O281 O 0.94544 0.48148 0.38138 0.0
C282 C 0.85337 0.43305 0.44422 0.0
O283 O 0.8481 0.50337 0.36356 0.0
O284 O 0.91715 0.52668 0.35015 0.0
C285 C 0.94361 0.60464 0.40782 0.0
Fe286 Fe 0.52913 0.40766 0.39 0.0
Fe287 Fe 0.54049 0.37446 0.45026 0.0
O288 O 0.55551 0.38613 0.4124 0.0
Fe289 Fe 0.59721 0.37685 0.39801 0.0
O290 O 0.57354 0.36229 0.36113 0.0
O291 O 0.51164 0.36455 0.36284 0.0
O292 O 0.47585 0.37497 0.40815 0.0
C293 C 0.4613 0.33787 0.42005 0.0
C294 C 0.61798 0.45452 0.37066 0.0
O295 O 0.48473 0.33125 0.43887 0.0
C296 C 0.63137 0.41879 0.4514 0.0
O297 O 0.54537 0.4535 0.41477 0.0
O298 O 0.52149 0.41424 0.45498 0.0
O299 O 0.63067 0.43334 0.38657 0.0
O300 O 0.57765 0.44276 0.36812 0.0
C301 C 0.56018 0.30762 0.43547 0.0
O302 O 0.59661 0.41808 0.46097 0.0
O303 O 0.62856 0.39131 0.43243 0.0
C304 C 0.53454 0.45004 0.44167 0.0
O305 O 0.55666 0.33238 0.4542 0.0
O306 O 0.56697 0.3191 0.40848 0.0
C307 C 0.53769 0.35527 0.34963 0.0
Fe308 Fe 0.65943 0.13001 0.39052 0.0
Fe309 Fe 0.69492 0.17105 0.45104 0.0
O310 O 0.6825 0.17644 0.41369 0.0
Fe311 Fe 0.69282 0.22779 0.40079 0.0
O312 O 0.70813 0.22071 0.36355 0.0
O313 O 0.70284 0.15577 0.36306 0.0
O314 O 0.69199 0.10836 0.40733 0.0
C315 C 0.73031 0.13005 0.41812 0.0
C316 C 0.61391 0.17411 0.37309 0.0
O317 O 0.73842 0.1593 0.43771 0.0
C318 C 0.6497 0.21643 0.45446 0.0
O319 O 0.6134 0.10055 0.41591 0.0
O320 O 0.6552 0.11292 0.45458 0.0
O321 O 0.63629 0.20694 0.38924 0.0
O322 O 0.62439 0.14497 0.36979 0.0
C323 C 0.76203 0.25699 0.4383 0.0
O324 O 0.65077 0.18253 0.46313 0.0
O325 O 0.67773 0.24221 0.436 0.0
C326 C 0.61807 0.09204 0.44237 0.0
O327 O 0.73693 0.22827 0.4565 0.0
O328 O 0.75083 0.25337 0.41135 0.0
C329 C 0.71466 0.19229 0.35129 0.0
Fe330 Fe 0.81882 0.47763 0.70531 0.0
Fe331 Fe 0.87733 0.57534 0.72028 0.0
O332 O 0.85846 0.53126 0.69527 0.0
Fe333 Fe 0.87929 0.5412 0.65855 0.0
O334 O 0.86682 0.4853 0.65031 0.0
O335 O 0.85539 0.45708 0.69438 0.0
O336 O 0.83855 0.48175 0.74304 0.0
C337 C 0.87101 0.51058 0.75725 0.0
C338 C 0.78892 0.49378 0.65276 0.0
O339 O 0.89424 0.54887 0.74763 0.0
C340 C 0.8774 0.61738 0.66946 0.0
O341 O 0.77945 0.49324 0.71737 0.0
O342 O 0.82461 0.55571 0.73893 0.0
O343 O 0.82373 0.52913 0.64573 0.0
O344 O 0.79204 0.46616 0.66896 0.0
C345 C 0.9528 0.58163 0.69428 0.0
O346 O 0.86134 0.60587 0.69513 0.0
O347 O 0.89624 0.59888 0.65754 0.0
C348 C 0.78643 0.52393 0.73467 0.0
O349 O 0.93358 0.60053 0.70586 0.0
O350 O 0.93421 0.55401 0.67323 0.0
C351 C 0.86504 0.45639 0.66752 0.0
Fe352 Fe 0.52223 0.34616 0.66235 0.0
Fe353 Fe 0.57698 0.35715 0.71781 0.0
O354 O 0.525 0.33665 0.70073 0.0
Fe355 Fe 0.4745 0.30722 0.72042 0.0
O356 O 0.449 0.33215 0.69852 0.0
O357 O 0.50194 0.38464 0.67313 0.0
O358 O 0.57829 0.3919 0.65764 0.0
C359 C 0.60603 0.4193 0.67518 0.0
C360 C 0.44747 0.26377 0.66863 0.0
O361 O 0.59906 0.41221 0.70256 0.0
C362 C 0.52785 0.2783 0.74802 0.0
O363 O 0.54322 0.30821 0.65421 0.0
O364 O 0.59825 0.33932 0.68688 0.0
O365 O 0.45576 0.2611 0.69545 0.0
O366 O 0.46597 0.30067 0.65614 0.0
C367 C 0.52542 0.37408 0.75927 0.0
O368 O 0.56264 0.30558 0.73507 0.0
O369 O 0.49245 0.27907 0.74537 0.0
C370 C 0.57757 0.31118 0.6668 0.0
O371 O 0.56106 0.37613 0.75083 0.0
O372 O 0.48882 0.34968 0.74734 0.0
C373 C 0.46883 0.37173 0.69076 0.0
Fe374 Fe 0.7274 0.19237 0.67123 0.0
Fe375 Fe 0.7559 0.25859 0.72175 0.0
O376 O 0.75056 0.2099 0.70714 0.0
Fe377 Fe 0.77036 0.18101 0.72869 0.0
O378 O 0.71824 0.13246 0.728 0.0
O379 O 0.69635 0.13297 0.68207 0.0
O380 O 0.67707 0.19443 0.67997 0.0
C381 C 0.67831 0.22953 0.68702 0.0
C382 C 0.7989 0.17752 0.67056 0.0
O383 O 0.71206 0.25898 0.69969 0.0
C384 C 0.8323 0.26207 0.74425 0.0
O385 O 0.75645 0.24953 0.65581 0.0
O386 O 0.79566 0.2887 0.69407 0.0
O387 O 0.79203 0.16438 0.6972 0.0
O388 O 0.77505 0.19015 0.65813 0.0
C389 C 0.72349 0.20528 0.76893 0.0
O390 O 0.80151 0.27058 0.74652 0.0
O391 O 0.82531 0.22759 0.73181 0.0
C392 C 0.78998 0.28337 0.66649 0.0
O393 O 0.71685 0.22869 0.75063 0.0
O394 O 0.75125 0.19264 0.76387 0.0
C395 C 0.69166 0.11397 0.70722 0.0
Fe396 Fe 0.57974 0.2497 0.21698 0.0
Fe397 Fe 0.48094 0.18533 0.22616 0.0
O398 O 0.52874 0.20796 0.20368 0.0
Fe399 Fe 0.5249 0.18867 0.16694 0.0
O400 O 0.58341 0.20327 0.16352 0.0
O401 O 0.60707 0.2181 0.20907 0.0
O402 O 0.57065 0.22902 0.25493 0.0
C403 C 0.54218 0.19382 0.26691 0.0
C404 C 0.57123 0.27802 0.16113 0.0
O405 O 0.50625 0.16838 0.25437 0.0
C406 C 0.44529 0.18888 0.17336 0.0
O407 O 0.55705 0.2847 0.22578 0.0
O408 O 0.49544 0.23493 0.24621 0.0
O409 O 0.53753 0.24289 0.15278 0.0
O410 O 0.59617 0.27736 0.18114 0.0
C411 C 0.48113 0.11432 0.20119 0.0
O412 O 0.45262 0.20171 0.19986 0.0
O413 O 0.4662 0.17169 0.16198 0.0
C414 C 0.52344 0.27428 0.2416 0.0
O415 O 0.45885 0.13151 0.20985 0.0
O416 O 0.51177 0.13434 0.182 0.0
C417 C 0.61256 0.20976 0.18266 0.0
Fe418 Fe 0.88749 0.34616 0.16562 0.0
Fe419 Fe 0.83441 0.34707 0.21928 0.0
O420 O 0.87181 0.33313 0.20323 0.0
Fe421 Fe 0.89463 0.30619 0.22363 0.0
O422 O 0.94638 0.33381 0.2033 0.0
O423 O 0.94476 0.38598 0.17855 0.0
O424 O 0.87517 0.39086 0.16254 0.0
C425 C 0.87195 0.4155 0.18136 0.0
C426 C 0.88269 0.26506 0.17103 0.0
O427 O 0.86709 0.40443 0.20836 0.0
C428 C 0.80807 0.26761 0.24616 0.0
O429 O 0.83017 0.30636 0.15467 0.0
O430 O 0.80073 0.33339 0.18572 0.0
O431 O 0.87144 0.26076 0.19794 0.0
O432 O 0.901 0.30257 0.1593 0.0
C433 C 0.89844 0.3652 0.26436 0.0
O434 O 0.79791 0.29175 0.23151 0.0
O435 O 0.84719 0.2751 0.24725 0.0
C436 C 0.79644 0.30641 0.1657 0.0
O437 O 0.86241 0.36135 0.25514 0.0
O438 O 0.9185 0.34906 0.2509 0.0
C439 C 0.96512 0.37356 0.19627 0.0
Fe440 Fe 0.7258 0.54276 0.16167 0.0
Fe441 Fe 0.72606 0.48761 0.21363 0.0
O442 O 0.73623 0.53847 0.19961 0.0
Fe443 Fe 0.75749 0.5853 0.22235 0.0
O444 O 0.72549 0.60625 0.20383 0.0
O445 O 0.68171 0.55485 0.17264 0.0
O446 O 0.68357 0.4851 0.1569 0.0
C447 C 0.65774 0.4569 0.1753 0.0
C448 C 0.80209 0.6229 0.17113 0.0
O449 O 0.66826 0.46127 0.20241 0.0
C450 C 0.80361 0.54291 0.24183 0.0
O451 O 0.77061 0.53119 0.15165 0.0
O452 O 0.74225 0.47208 0.17921 0.0
O453 O 0.80493 0.61509 0.19806 0.0
O454 O 0.76597 0.60098 0.15772 0.0
C455 C 0.70213 0.52375 0.26181 0.0
O456 O 0.78241 0.50959 0.22588 0.0
O457 O 0.79179 0.57117 0.24447 0.0
C458 C 0.77145 0.49763 0.16127 0.0
O459 O 0.70984 0.49559 0.25038 0.0
O460 O 0.71274 0.55938 0.24902 0.0
C461 C 0.68827 0.58438 0.1916 0.0
Fe462 Fe 0.54082 0.16993 0.95284 0.0
Fe463 Fe 0.6002 0.2329 0.90534 0.0
O464 O 0.55953 0.17974 0.91557 0.0
Fe465 Fe 0.53788 0.13609 0.89004 0.0
O466 O 0.48249 0.11209 0.90587 0.0
O467 O 0.48556 0.15843 0.94015 0.0
O468 O 0.55487 0.2264 0.96152 0.0
C469 C 0.55675 0.25571 0.94455 0.0
C470 C 0.53976 0.09254 0.93962 0.0
O471 O 0.56569 0.25523 0.91751 0.0
C472 C 0.62846 0.1844 0.87439 0.0
O473 O 0.59642 0.18055 0.96412 0.0
O474 O 0.62833 0.24361 0.94112 0.0
O475 O 0.5537 0.10384 0.9135 0.0
O476 O 0.52288 0.11187 0.95309 0.0
C477 C 0.54557 0.20238 0.85429 0.0
O478 O 0.63747 0.21521 0.89214 0.0
O479 O 0.58937 0.15438 0.87006 0.0
C480 C 0.63129 0.21554 0.95685 0.0
O481 O 0.57944 0.22984 0.86804 0.0
O482 O 0.52101 0.16442 0.8641 0.0
C483 C 0.46502 0.1314 0.91919 0.0
Fe484 Fe 0.94417 0.40718 0.89006 0.0
Fe485 Fe 0.89591 0.36579 0.94757 0.0
O486 O 0.89348 0.3764 0.90936 0.0
Fe487 Fe 0.84161 0.35557 0.89205 0.0
O488 O 0.85841 0.33851 0.85863 0.0
O489 O 0.93073 0.36583 0.86225 0.0
O490 O 0.96997 0.38203 0.91142 0.0
C491 C 0.95039 0.34219 0.91857 0.0
C492 C 0.89 0.43577 0.86325 0.0
O493 O 0.91721 0.32844 0.93619 0.0
C494 C 0.83907 0.39911 0.9437 0.0
O495 O 0.96212 0.45244 0.91589 0.0
O496 O 0.95157 0.41151 0.95447 0.0
O497 O 0.85523 0.40757 0.87577 0.0
O498 O 0.92577 0.43566 0.86579 0.0
C499 C 0.81339 0.29203 0.93369 0.0
O500 O 0.87368 0.40268 0.95632 0.0
O501 O 0.81922 0.3713 0.92333 0.0
C502 C 0.96952 0.4489 0.94279 0.0
O503 O 0.84045 0.3193 0.95156 0.0
O504 O 0.82037 0.30008 0.90637 0.0
C505 C 0.89435 0.34152 0.84998 0.0
Fe506 Fe 0.69006 0.51903 0.9375 0.0
Fe507 Fe 0.65697 0.44985 0.8888 0.0
O508 O 0.66554 0.50035 0.90209 0.0
Fe509 Fe 0.6476 0.53003 0.87979 0.0
O510 O 0.70124 0.57648 0.87892 0.0
O511 O 0.72233 0.5778 0.92529 0.0
O512 O 0.73881 0.51422 0.92855 0.0
C513 C 0.73556 0.47789 0.92249 0.0
C514 C 0.62283 0.53982 0.93782 0.0
O515 O 0.70072 0.44865 0.91063 0.0
C516 C 0.58205 0.44997 0.86635 0.0
O517 O 0.66001 0.46262 0.95437 0.0
O518 O 0.61767 0.42283 0.91745 0.0
O519 O 0.62924 0.55082 0.91076 0.0
O520 O 0.64412 0.52443 0.95056 0.0
C521 C 0.68976 0.49988 0.84008 0.0
O522 O 0.611 0.43878 0.86462 0.0
O523 O 0.5914 0.48546 0.87831 0.0
C524 C 0.62548 0.42861 0.94481 0.0
O525 O 0.69544 0.47645 0.85892 0.0
O526 O 0.66372 0.51464 0.84491 0.0
C527 C 0.72767 0.59564 0.89962 0.0
Fe528 Fe 0.55946 0.85294 0.77185 0.0
Fe529 Fe 0.52627 0.78469 0.72257 0.0
O530 O 0.56707 0.83531 0.73647 0.0
Fe531 Fe 0.61554 0.86604 0.71503 0.0
O532 O 0.60777 0.91218 0.71433 0.0
O533 O 0.58601 0.91202 0.76037 0.0
O534 O 0.50592 0.84762 0.76201 0.0
C535 C 0.47342 0.81103 0.75549 0.0
C536 C 0.64733 0.87303 0.77348 0.0
O537 O 0.48016 0.78242 0.74371 0.0
C538 C 0.60276 0.78677 0.70065 0.0
O539 O 0.53293 0.79638 0.78814 0.0
O540 O 0.5383 0.75785 0.75148 0.0
O541 O 0.65328 0.88615 0.74683 0.0
O542 O 0.61025 0.85801 0.78565 0.0
C543 C 0.5445 0.83537 0.67412 0.0
O544 O 0.56243 0.7747 0.69879 0.0
O545 O 0.62804 0.82203 0.71324 0.0
C546 C 0.53497 0.76314 0.77877 0.0
O547 O 0.51487 0.81121 0.6925 0.0
O548 O 0.58529 0.85123 0.67966 0.0
C549 C 0.59933 0.93058 0.73498 0.0
Fe550 Fe 0.19254 0.73884 0.72441 0.0
Fe551 Fe 0.19959 0.69831 0.78219 0.0
O552 O 0.21141 0.7072 0.74373 0.0
Fe553 Fe 0.23993 0.68358 0.72641 0.0
O554 O 0.20315 0.66409 0.69452 0.0
O555 O 0.1636 0.69762 0.69656 0.0
O556 O 0.14172 0.71456 0.74603 0.0
C557 C 0.12106 0.67494 0.75381 0.0
C558 C 0.2735 0.76347 0.69617 0.0
O559 O 0.14038 0.66124 0.77163 0.0
C560 C 0.28952 0.73026 0.77653 0.0
O561 O 0.22084 0.78448 0.74997 0.0
O562 O 0.19027 0.74444 0.78874 0.0
O563 O 0.27797 0.73335 0.70756 0.0
O564 O 0.23953 0.76648 0.70016 0.0
C565 C 0.20694 0.62334 0.77024 0.0
O566 O 0.25927 0.73485 0.78963 0.0
O567 O 0.2804 0.70166 0.75645 0.0
C568 C 0.20994 0.7816 0.77684 0.0
O569 O 0.20823 0.65182 0.78735 0.0
O570 O 0.20595 0.62947 0.74285 0.0
C571 C 0.17207 0.66987 0.68548 0.0
Fe572 Fe 0.36098 0.50524 0.7857 0.0
Fe573 Fe 0.36303 0.56985 0.74018 0.0
O574 O 0.35055 0.51632 0.74919 0.0
Fe575 Fe 0.32702 0.47339 0.72323 0.0
O576 O 0.35837 0.44843 0.73723 0.0
O577 O 0.40402 0.49383 0.77092 0.0
O578 O 0.40379 0.5612 0.79475 0.0
C579 C 0.43066 0.59097 0.77783 0.0
C580 C 0.28372 0.42917 0.77309 0.0
O581 O 0.42024 0.59144 0.75114 0.0
C582 C 0.2849 0.5226 0.71046 0.0
O583 O 0.31657 0.51568 0.79888 0.0
O584 O 0.34706 0.57946 0.77688 0.0
O585 O 0.27988 0.44112 0.74745 0.0
O586 O 0.32074 0.44739 0.78548 0.0
C587 C 0.38512 0.54042 0.68776 0.0
O588 O 0.30767 0.55302 0.72823 0.0
O589 O 0.29358 0.49264 0.70493 0.0
C590 C 0.31639 0.55084 0.79263 0.0
O591 O 0.37935 0.56772 0.70229 0.0
O592 O 0.37131 0.50204 0.69677 0.0
C593 C 0.39602 0.46714 0.74942 0.0
Fe594 Fe 0.54377 0.87154 -0.00816 0.0
Fe595 Fe 0.48683 0.81461 0.0427 0.0
O596 O 0.52675 0.8663 0.02937 0.0
Fe597 Fe 0.54943 0.91298 0.05218 0.0
O598 O 0.60364 0.93535 0.0351 0.0
O599 O 0.59962 0.88484 0.00443 0.0
O600 O 0.53008 0.81452 -0.01298 0.0
C601 C 0.52805 0.78667 0.00551 0.0
C602 C 0.54448 0.95008 0.00031 0.0
O603 O 0.52096 0.79079 0.03246 0.0
C604 C 0.45992 0.86698 0.06984 0.0
O605 O 0.48741 0.85862 -0.01941 0.0
O606 O 0.45704 0.79885 0.00749 0.0
O607 O 0.53178 0.94144 0.02685 0.0
O608 O 0.56078 0.92942 -0.01223 0.0
C609 C 0.5436 0.85236 0.09232 0.0
O610 O 0.45002 0.83403 0.054 0.0
O611 O 0.49924 0.89702 0.07287 0.0
C612 C 0.45313 0.8243 -0.01039 0.0
O613 O 0.50924 0.82293 0.08004 0.0
O614 O 0.56804 0.88841 0.07985 0.0
C615 C 0.62056 0.91408 0.02401 0.0
Fe616 Fe 0.24102 0.67807 0.05225 0.0
Fe617 Fe 0.13996 0.63802 0.0583 0.0
O618 O 0.18909 0.66386 0.03701 0.0
Fe619 Fe 0.18527 0.67554 -0.00072 0.0
O620 O 0.24243 0.71954 -0.00512 0.0
O621 O 0.26592 0.73499 0.04017 0.0
O622 O 0.22916 0.69438 0.08804 0.0
C623 C 0.1975 0.69878 0.09772 0.0
C624 C 0.23582 0.6349 -0.00077 0.0
O625 O 0.16053 0.68178 0.08515 0.0
C626 C 0.10791 0.59541 0.00635 0.0
O627 O 0.22219 0.62329 0.06554 0.0
O628 O 0.15654 0.60711 0.08181 0.0
O629 O 0.20176 0.63478 -0.01137 0.0
O630 O 0.25938 0.66246 0.0187 0.0
C631 C 0.13683 0.70497 0.03019 0.0
O632 O 0.11582 0.59166 0.03317 0.0
O633 O 0.12766 0.63249 -0.00592 0.0
C634 C 0.18809 0.59952 0.08053 0.0
O635 O 0.11573 0.66563 0.03823 0.0
O636 O 0.16889 0.71629 0.01189 0.0
C637 C 0.27122 0.74483 0.01296 0.0
Fe638 Fe 0.4331 0.51656 0.05745 0.0
Fe639 Fe 0.39184 0.51913 -0.00167 0.0
O640 O 0.40731 0.53861 0.03508 0.0
Fe641 Fe 0.39731 0.57971 0.04861 0.0
O642 O 0.38577 0.55853 0.08645 0.0
O643 O 0.3903 0.49831 0.08545 0.0
O644 O 0.40267 0.46294 0.04051 0.0
C645 C 0.36292 0.44479 0.03232 0.0
C646 C 0.47794 0.60535 0.07381 0.0
O647 O 0.35139 0.46439 0.01348 0.0
C648 C 0.43363 0.60824 -0.00753 0.0
O649 O 0.47818 0.53445 0.03126 0.0
O650 O 0.43512 0.50412 -0.00688 0.0
O651 O 0.45492 0.61534 0.05752 0.0
O652 O 0.46721 0.56608 0.07815 0.0
C653 C 0.32442 0.53911 0.01446 0.0
O654 O 0.43234 0.57333 -0.016 0.0
O655 O 0.40838 0.6076 0.01282 0.0
C656 C 0.47333 0.52278 0.0045 0.0
O657 O 0.34696 0.53258 -0.00482 0.0
O658 O 0.33843 0.54754 0.04079 0.0
C659 C 0.37925 0.52323 0.09816 0.0
Fe660 Fe 0.22857 0.59376 0.55778 0.0
Fe661 Fe 0.13926 0.51215 0.56451 0.0
O662 O 0.18795 0.54347 0.54336 0.0
Fe663 Fe 0.19604 0.52672 0.50777 0.0
O664 O 0.24953 0.53194 0.51761 0.0
O665 O 0.27491 0.59663 0.53666 0.0
O666 O 0.23969 0.56659 0.58751 0.0
C667 C 0.20995 0.54217 0.60572 0.0
C668 C 0.2207 0.61687 0.50188 0.0
O669 O 0.16918 0.52613 0.60002 0.0
C670 C 0.1081 0.50637 0.50592 0.0
O671 O 0.1922 0.6032 0.58168 0.0
O672 O 0.12663 0.55608 0.56698 0.0
O673 O 0.22268 0.58376 0.49209 0.0
O674 O 0.21685 0.62132 0.52922 0.0
C675 C 0.15556 0.44797 0.54366 0.0
O676 O 0.10183 0.4929 0.53251 0.0
O677 O 0.14536 0.52178 0.49396 0.0
C678 C 0.15195 0.59131 0.57961 0.0
O679 O 0.14698 0.46591 0.56457 0.0
O680 O 0.16942 0.46731 0.51854 0.0
C681 C 0.28189 0.56843 0.52449 0.0
Fe682 Fe 0.51599 0.69773 0.55255 0.0
Fe683 Fe 0.56388 0.6431 0.55477 0.0
O684 O 0.54454 0.67415 0.53524 0.0
Fe685 Fe 0.55562 0.6822 0.49666 0.0
O686 O 0.54766 0.72912 0.49156 0.0
O687 O 0.55029 0.75177 0.53611 0.0
O688 O 0.55252 0.71681 0.58466 0.0
C689 C 0.58456 0.71221 0.5932 0.0
C690 C 0.46592 0.651 0.50274 0.0
O691 O 0.59397 0.68541 0.58164 0.0
C692 C 0.544 0.5986 0.50301 0.0
O693 O 0.47776 0.64773 0.57109 0.0
O694 O 0.51784 0.61672 0.57992 0.0
O695 O 0.49581 0.64592 0.48966 0.0
O696 O 0.4756 0.68013 0.52248 0.0
C697 C 0.63474 0.7054 0.52406 0.0
O698 O 0.53439 0.59668 0.53008 0.0
O699 O 0.56389 0.63537 0.49054 0.0
C700 C 0.48318 0.61869 0.58331 0.0
O701 O 0.6139 0.66605 0.53237 0.0
O702 O 0.61514 0.71901 0.50647 0.0
C703 C 0.54927 0.75779 0.50868 0.0
Fe704 Fe 0.39535 0.87586 0.49401 0.0
Fe705 Fe 0.39348 0.81145 0.53961 0.0
O706 O 0.40627 0.86501 0.53045 0.0
Fe707 Fe 0.43052 0.90817 0.5562 0.0
O708 O 0.39943 0.93349 0.54228 0.0
O709 O 0.35285 0.88781 0.50911 0.0
O710 O 0.35205 0.81984 0.48529 0.0
C711 C 0.32541 0.7902 0.50241 0.0
C712 C 0.47332 0.95178 0.50602 0.0
O713 O 0.33617 0.79014 0.52906 0.0
C714 C 0.47182 0.85813 0.56903 0.0
O715 O 0.43922 0.86492 0.48051 0.0
O716 O 0.40882 0.80137 0.50282 0.0
O717 O 0.47744 0.93989 0.53163 0.0
O718 O 0.43607 0.93366 0.49389 0.0
C719 C 0.3724 0.84173 0.59207 0.0
O720 O 0.44887 0.82794 0.55119 0.0
O721 O 0.46375 0.88854 0.57446 0.0
C722 C 0.4393 0.82974 0.48681 0.0
O723 O 0.37775 0.81411 0.57761 0.0
O724 O 0.38646 0.88009 0.58291 0.0
C725 C 0.36153 0.9149 0.53043 0.0
Fe726 Fe 0.21097 0.50588 0.28493 0.0
Fe727 Fe 0.26764 0.56093 0.23337 0.0
O728 O 0.2268 0.51009 0.24719 0.0
Fe729 Fe 0.20176 0.46307 0.22458 0.0
O730 O 0.14834 0.44271 0.2425 0.0
O731 O 0.15536 0.49462 0.27296 0.0
O732 O 0.22711 0.5632 0.29002 0.0
C733 C 0.2295 0.59123 0.27174 0.0
C734 C 0.20662 0.42604 0.27641 0.0
O735 O 0.23618 0.58726 0.24465 0.0
C736 C 0.29065 0.50573 0.20531 0.0
O737 O 0.26709 0.51701 0.29567 0.0
O738 O 0.29888 0.57606 0.26787 0.0
O739 O 0.21868 0.43364 0.24968 0.0
O740 O 0.19169 0.44781 0.28891 0.0
C741 C 0.20812 0.52474 0.18508 0.0
O742 O 0.30221 0.53917 0.22106 0.0
O743 O 0.25074 0.47678 0.20289 0.0
C744 C 0.30185 0.55058 0.28619 0.0
O745 O 0.24366 0.55321 0.19667 0.0
O746 O 0.18355 0.48859 0.19737 0.0
C747 C 0.13293 0.46519 0.25377 0.0
Fe748 Fe 0.56942 0.70994 0.27939 0.0
Fe749 Fe 0.51152 0.71278 0.22967 0.0
O750 O 0.56384 0.72413 0.24257 0.0
Fe751 Fe 0.61123 0.74972 0.21974 0.0
O752 O 0.63522 0.71921 0.23623 0.0
O753 O 0.58375 0.66923 0.26427 0.0
O754 O 0.5119 0.66592 0.28386 0.0
C755 C 0.48291 0.64192 0.26528 0.0
C756 C 0.64822 0.7892 0.27201 0.0
O757 O 0.48668 0.65471 0.23867 0.0
C758 C 0.564 0.79238 0.20318 0.0
O759 O 0.55499 0.75088 0.29313 0.0
O760 O 0.49524 0.72445 0.26544 0.0
O761 O 0.63896 0.79441 0.24584 0.0
O762 O 0.62786 0.75178 0.28379 0.0
C763 C 0.55014 0.69569 0.1795 0.0
O764 O 0.53125 0.7693 0.21961 0.0
O765 O 0.59435 0.78334 0.19958 0.0
C766 C 0.52013 0.75106 0.2848 0.0
O767 O 0.52036 0.70051 0.19191 0.0
O768 O 0.5869 0.70769 0.19161 0.0
C769 C 0.61383 0.67993 0.24455 0.0
Fe770 Fe 0.36631 0.85955 0.27769 0.0
Fe771 Fe 0.351 0.79959 0.22455 0.0
O772 O 0.34775 0.84342 0.24068 0.0
Fe773 Fe 0.32491 0.86964 0.21909 0.0
O774 O 0.37443 0.92064 0.22176 0.0
O775 O 0.39299 0.91928 0.26862 0.0
O776 O 0.42037 0.86471 0.27133 0.0
C777 C 0.42554 0.83369 0.26284 0.0
C778 C 0.29064 0.86708 0.27639 0.0
O779 O 0.39609 0.80358 0.24757 0.0
C780 C 0.27114 0.78706 0.20134 0.0
O781 O 0.3411 0.80159 0.29101 0.0
O782 O 0.31152 0.76319 0.25014 0.0
O783 O 0.29859 0.88168 0.25015 0.0
O784 O 0.31486 0.8552 0.28903 0.0
C785 C 0.37979 0.85633 0.17929 0.0
O786 O 0.30545 0.78403 0.1989 0.0
O787 O 0.2729 0.81957 0.21399 0.0
C788 C 0.31247 0.76678 0.27789 0.0
O789 O 0.39015 0.83563 0.19753 0.0
O790 O 0.34773 0.8628 0.18413 0.0
C791 C 0.39903 0.93876 0.24354 0.0
C792 C 0.26642 0.0752 0.97018 0.0
C793 C 0.22531 0.04042 0.96227 0.0
H794 H 0.30176 0.12633 0.00143 0.0
C795 C 0.19042 1.02406 -0.01727 0.0
H796 H 0.29379 0.08777 0.9547 0.0
C797 C 0.19502 0.04528 0.00957 0.0
C798 C 0.23427 0.08386 0.01585 0.0
H799 H 0.15866 0.99645 -0.02288 0.0
H800 H 0.16642 0.03389 0.02386 0.0
C801 C 0.27086 0.09702 -0.00311 0.0
C802 C 0.98706 0.18656 0.96453 0.0
C803 C 1.02143 0.17926 0.95622 0.0
H804 H 0.93547 0.17151 -0.00415 0.0
C805 C 1.03631 0.15865 -0.02396 0.0
H806 H 0.9757 0.20303 0.94966 0.0
C807 C 1.01407 0.14132 0.00255 0.0
C808 C 0.97606 0.1436 0.00925 0.0
H809 H 0.06373 0.15383 0.97023 0.0
H810 H 1.0245 0.12301 0.01641 0.0
C811 C 0.96425 0.16858 -0.00906 0.0
C812 C 0.92142 0.89836 -0.02154 0.0
C813 C 0.89232 0.86056 0.96308 0.0
H814 H 0.96082 0.92462 0.01713 0.0
C815 C 0.87455 0.81982 -0.02317 0.0
H816 H 0.93425 0.93018 0.96825 0.0
C817 C 0.88982 0.81644 0.00469 0.0
C818 C 0.92214 0.85399 0.01904 0.0
H819 H 0.85113 0.79056 0.96531 0.0
H820 H 0.87888 0.7844 0.01402 0.0
C821 C 0.93579 0.89517 0.00658 0.0
C822 C 0.05763 0.14333 0.43573 0.0
C823 C 0.08289 0.18522 0.42364 0.0
H824 H 1.01942 0.10586 0.47289 0.0
C825 C 0.08216 0.22073 0.43697 0.0
H826 H 0.058 0.11551 0.42595 0.0
C827 C 0.05963 0.21502 0.46362 0.0
C828 C 1.0389 0.17407 0.47739 0.0
H829 H 0.10163 0.25329 0.42795 0.0
H830 H 0.06119 0.24307 0.4745 0.0
C831 C 1.03632 0.13792 0.46278 0.0
C832 C 0.84327 0.87284 0.4794 0.0
C833 C 0.88528 0.88626 0.49086 0.0
H834 H 0.80601 0.88354 0.44617 0.0
C835 C 0.92275 0.9158 0.47481 0.0
H836 H 0.81403 0.84959 0.49134 0.0
C837 C 0.9184 0.9347 0.44894 0.0
C838 C 0.87645 0.92485 0.43894 0.0
H839 H 0.95557 0.92563 0.48292 0.0
H840 H 0.94802 0.95906 0.43792 0.0
C841 C 0.83884 0.89223 0.45359 0.0
C842 C 0.19998 0.91724 0.46195 0.0
C843 C 0.21162 0.94388 0.43658 0.0
H844 H 0.19573 0.91575 0.5095 0.0
C845 C 0.24051 0.98873 0.43928 0.0
H846 H 0.17735 0.88253 0.4603 0.0
C847 C 0.25187 1.00751 0.46738 0.0
C848 C 0.23346 0.9815 0.49267 0.0
H849 H 0.24927 1.00979 0.41998 0.0
H850 H 0.27029 0.0427 0.46918 0.0
C851 C 0.20982 0.93615 0.49006 0.0
C852 C 0.80427 0.95658 -0.02005 0.0
C853 C 0.8404 0.99815 -0.01543 0.0
H854 H 0.77449 0.90227 0.95023 0.0
C855 C 0.86786 1.02158 0.96083 0.0
H856 H 0.78271 0.93843 -0.00178 0.0
C857 C 0.86266 1.00156 0.93347 0.0
C858 C 0.83045 0.95776 0.9299 0.0
H859 H 0.8956 0.05401 0.96417 0.0
H860 H 0.88713 1.01848 0.91632 0.0
C861 C 0.7992 0.9363 0.95247 0.0
C862 C 0.08961 0.85661 -0.02391 0.0
C863 C 0.06176 0.87099 -0.01254 0.0
H864 H 0.13323 0.86274 0.94075 0.0
C865 C 0.04835 0.89452 0.96918 0.0
H866 H 0.09938 0.83748 -0.01036 0.0
C867 C 0.06656 0.90794 0.94107 0.0
C868 C 0.09923 0.89884 0.93125 0.0
H869 H 1.02546 0.90454 -0.02277 0.0
H870 H 0.05839 0.92915 0.92852 0.0
C871 C 0.10849 0.87069 0.94808 0.0
C872 C 0.21371 0.24059 0.97186 0.0
C873 C 0.20373 0.19943 -0.01767 0.0
H874 H 0.202 0.27569 0.93776 0.0
C875 C 0.18321 0.16315 0.96348 0.0
H876 H 0.23057 0.26909 -0.01417 0.0
C877 C 0.16779 0.16691 0.93585 0.0
C878 C 0.17188 0.20685 0.92716 0.0
H879 H 0.17674 0.13128 0.97083 0.0
H880 H 0.14876 0.13765 0.92288 0.0
C881 C 0.19766 0.24429 0.94433 0.0
C882 C 1.0347 0.90495 0.51225 0.0
C883 C 1.00783 0.86262 0.52331 0.0
H884 H 0.07528 0.9437 0.47628 0.0
C885 C 1.00765 0.82717 0.50916 0.0
H886 H 1.03514 0.93281 0.52265 0.0
C887 C 1.03137 0.83366 0.48294 0.0
C888 C 0.05404 0.87534 0.47027 0.0
H889 H 0.98703 0.7943 0.51735 0.0
H890 H 1.02944 0.80583 0.47151 0.0
C891 C 0.05707 0.91117 0.48556 0.0
C892 C 0.25529 0.15591 0.49264 0.0
C893 C 0.21782 0.12398 0.5078 0.0
H894 H 0.27948 0.19886 0.45501 0.0
C895 C 0.17589 0.1159 0.49911 0.0
H896 H 0.28812 0.16326 0.49911 0.0
C897 C 0.17117 0.13582 0.4739 0.0
C898 C 0.20829 0.16463 0.45728 0.0
H899 H 0.14643 0.09213 0.51059 0.0
H900 H 0.13827 0.12721 0.46662 0.0
C901 C 0.25052 0.17635 0.46751 0.0
C902 C 0.84205 0.04058 0.47987 0.0
C903 C 0.85979 0.06613 0.45431 0.0
H904 H 0.84549 0.03917 0.52728 0.0
C905 C 0.88337 0.11157 0.45664 0.0
H906 H 0.82381 1.00535 0.47836 0.0
C907 C 0.89374 0.131 0.4846 0.0
C908 C 0.8825 0.10488 0.51021 0.0
H909 H 0.89708 0.13167 0.43702 0.0
H910 H 0.91631 0.16576 0.48593 0.0
C911 C 0.85386 0.05989 0.50783 0.0
C912 C 0.88839 0.37931 0.34489 0.0
C913 C 0.92249 0.42225 0.3487 0.0
H914 H 0.85389 0.32756 0.31397 0.0
C915 C 0.95519 0.44205 0.32676 0.0
H916 H 0.8629 0.36367 0.36162 0.0
C917 C 0.94991 0.42142 0.29942 0.0
C918 C 0.91206 0.38124 0.29434 0.0
H919 H 0.98147 0.47541 0.32926 0.0
H920 H 0.97274 0.43861 0.28149 0.0
C921 C 0.88294 0.359 0.31764 0.0
C922 C 0.65372 0.52438 0.30241 0.0
C923 C 0.68744 0.51688 0.29277 0.0
H924 H 0.60527 0.51093 0.33596 0.0
C925 C 0.70503 0.4985 0.31238 0.0
H926 H 0.64039 0.53933 0.28781 0.0
C927 C 0.68578 0.48306 0.34002 0.0
C928 C 0.64804 0.48501 0.34813 0.0
H929 H 0.73214 0.49373 0.30561 0.0
H930 H 0.69788 0.46591 0.35362 0.0
C931 C 0.63393 0.50832 0.32999 0.0
C932 C 0.58647 0.21557 0.34422 0.0
C933 C 0.58307 0.17539 0.35149 0.0
H934 H 0.57639 0.2528 0.31089 0.0
C935 C 0.55776 0.13898 0.33332 0.0
H936 H 0.60518 0.24408 0.35793 0.0
C937 C 0.54102 0.144 0.3064 0.0
C938 C 0.54991 0.18551 0.29746 0.0
H939 H 0.55405 0.10743 0.33867 0.0
H940 H 0.52452 0.11638 0.29161 0.0
C941 C 0.57045 0.22069 0.31717 0.0
C942 C 0.75172 0.55178 0.77002 0.0
C943 C 0.75266 0.51641 0.75668 0.0
H944 H 0.72973 0.5737 0.80726 0.0
C945 C 0.72834 0.47463 0.76918 0.0
H946 H 0.77051 0.58426 0.76076 0.0
C947 C 0.70701 0.46909 0.79623 0.0
C948 C 0.70852 0.50495 0.81049 0.0
H949 H 0.72898 0.4469 0.75947 0.0
H950 H 0.69048 0.43709 0.80644 0.0
C951 C 0.72899 0.54587 0.79662 0.0
C952 C 0.57202 0.25737 0.78019 0.0
C953 C 0.53057 0.25016 0.77105 0.0
H954 H 0.60887 0.24783 0.81417 0.0
C955 C 0.49282 0.22101 0.78728 0.0
H956 H 0.60168 0.27903 0.76798 0.0
C957 C 0.49702 0.20276 0.81375 0.0
C958 C 0.53899 0.21412 0.82435 0.0
H959 H 0.46032 0.21433 0.78051 0.0
H960 H 0.46789 0.1822 0.82672 0.0
C961 C 0.5762 0.23982 0.80676 0.0
C962 C 0.9037 0.34765 0.79594 0.0
C963 C 0.89451 0.32211 0.82158 0.0
H964 H 0.89164 0.34733 0.74937 0.0
C965 C 0.87686 0.27703 0.81928 0.0
H966 H 0.91713 0.38258 0.79757 0.0
C967 C 0.86369 0.25702 0.7916 0.0
C968 C 0.86685 0.28207 0.7665 0.0
H969 H 0.86958 0.25707 0.83904 0.0
H970 H 0.8454 0.22176 0.79063 0.0
C971 C 0.88967 0.32763 0.76841 0.0
C972 C 0.48914 0.31324 0.30744 0.0
C973 C 0.53084 0.34295 0.31834 0.0
H974 H 0.45369 0.26834 0.27271 0.0
C975 C 0.5677 0.35902 0.29948 0.0
H976 H 0.46013 0.30162 0.32129 0.0
C977 C 0.56402 0.34102 0.27153 0.0
C978 C 0.52357 0.30603 0.26255 0.0
H979 H 0.6 0.38354 0.30711 0.0
H980 H 0.59376 0.35106 0.25866 0.0
C981 C 0.48551 0.29468 0.27956 0.0
C982 C 0.71659 0.22175 0.30145 0.0
C983 C 0.73171 0.20109 0.32101 0.0
H984 H 0.72806 0.25768 0.26125 0.0
C985 C 0.76588 0.19368 0.31237 0.0
H986 H 0.68929 0.22661 0.30753 0.0
C987 C 0.78842 0.21178 0.28592 0.0
C988 C 0.77655 0.23702 0.26794 0.0
H989 H 0.77739 0.17713 0.32706 0.0
H990 H 0.81716 0.20888 0.28077 0.0
C991 C 0.73856 0.23921 0.27489 0.0
C992 C 0.85715 0.50138 0.29422 0.0
C993 C 0.87019 0.53307 0.3164 0.0
H994 H 0.82643 0.48022 0.25189 0.0
C995 C 0.87 0.57187 0.31122 0.0
H996 H 0.85787 0.47145 0.29811 0.0
C997 C 0.853 0.57741 0.28476 0.0
C998 C 0.83492 0.54353 0.26374 0.0
H999 H 0.88058 0.59668 0.32824 0.0
H1000 H 0.85061 0.60663 0.282 0.0
C1001 C 0.83958 0.50659 0.26783 0.0
C1002 C 0.69015 0.2317 0.84136 0.0
C1003 C 0.66157 0.18978 0.85241 0.0
H1004 H 0.73123 0.26913 0.80516 0.0
C1005 C 0.65828 0.15324 0.83777 0.0
H1006 H 0.69302 0.2604 0.85214 0.0
C1007 C 0.68076 0.15844 0.81115 0.0
C1008 C 0.70542 0.2 0.79869 0.0
H1009 H 0.63634 0.12065 0.84598 0.0
H1010 H 0.67657 0.12994 0.79941 0.0
C1011 C 0.7114 0.23672 0.81435 0.0
C1012 C 0.9245 0.49343 0.82422 0.0
C1013 C 0.88692 0.46413 0.84056 0.0
H1014 H 0.94888 0.53175 0.78447 0.0
C1015 C 0.84531 0.45666 0.8316 0.0
H1016 H 0.95711 0.50028 0.83083 0.0
C1017 C 0.84078 0.47392 0.805 0.0
C1018 C 0.87781 0.49962 0.78729 0.0
H1019 H 0.81579 0.43487 0.84389 0.0
H1020 H 0.80801 0.46557 0.7976 0.0
C1021 C 0.91994 0.51135 0.79772 0.0
C1022 C 0.51081 0.36827 0.81283 0.0
C1023 C 0.52536 0.39435 0.78729 0.0
H1024 H 0.51687 0.36691 0.86001 0.0
C1025 C 0.5464 0.43969 0.78966 0.0
H1026 H 0.49447 0.33307 0.81113 0.0
C1027 C 0.55736 0.45898 0.81763 0.0
C1028 C 0.549 0.43285 0.84303 0.0
H1029 H 0.55755 0.46003 0.76998 0.0
H1030 H 0.57808 0.49405 0.81896 0.0
C1031 C 0.52291 0.38751 0.84072 0.0
C1032 C 0.60301 0.72615 0.67444 0.0
C1033 C 0.61977 0.77117 0.67689 0.0
H1034 H 0.57954 0.6719 0.64479 0.0
C1035 C 0.63585 0.79755 0.65144 0.0
H1036 H 0.58969 0.70527 0.69376 0.0
C1037 C 0.62806 0.7784 0.62342 0.0
C1038 C 0.60618 0.733 0.62093 0.0
H1039 H 0.64825 0.83232 0.65284 0.0
H1040 H 0.63551 0.79869 0.60381 0.0
C1041 C 0.59671 0.70712 0.64647 0.0
C1042 C 0.29928 0.82262 0.65805 0.0
C1043 C 0.30564 0.79163 0.67373 0.0
H1044 H 0.31612 0.8634 0.61939 0.0
C1045 C 0.33909 0.78312 0.6647 0.0
H1046 H 0.2741 0.83028 0.66474 0.0
C1047 C 0.36229 0.80143 0.6387 0.0
C1048 C 0.35301 0.82912 0.62163 0.0
H1049 H 0.3454 0.76006 0.67655 0.0
H1050 H 0.3863 0.79251 0.63129 0.0
C1051 C 0.32312 0.84151 0.63214 0.0
C1052 C 0.22168 0.49211 0.67587 0.0
C1053 C 0.2566 0.52857 0.68944 0.0
H1054 H 0.17887 0.46826 0.63816 0.0
C1055 C 0.27138 0.57025 0.67751 0.0
H1056 H 0.21001 0.4597 0.68479 0.0
C1057 C 0.25501 0.57481 0.65045 0.0
C1058 C 0.22277 0.53792 0.63569 0.0
H1059 H 0.29853 0.59882 0.68748 0.0
H1060 H 0.26875 0.60687 0.64048 0.0
C1061 C 0.20433 0.49689 0.64922 0.0
C1062 C 0.41815 0.89997 0.13498 0.0
C1063 C 0.39438 0.85944 0.14888 0.0
H1064 H 0.45742 0.9342 0.09729 0.0
C1065 C 0.38369 0.82114 0.13344 0.0
H1066 H 0.42539 0.92963 0.14657 0.0
C1067 C 0.40023 0.82346 0.10507 0.0
C1068 C 0.42867 0.86425 0.0924 0.0
H1069 H 0.36396 0.78953 0.14379 0.0
H1070 H 0.39436 0.79354 0.09447 0.0
C1071 C 0.43566 0.90243 0.1068 0.0
C1072 C 0.22918 0.57046 0.10842 0.0
C1073 C 0.18911 0.56894 0.10222 0.0
H1074 H 0.26633 0.55741 0.14031 0.0
C1075 C 0.15243 0.54427 0.12073 0.0
H1076 H 0.25778 0.5884 0.09432 0.0
C1077 C 0.15733 0.52615 0.147 0.0
C1078 C 0.19896 0.53303 0.15493 0.0
H1079 H 0.12086 0.54183 0.11614 0.0
H1080 H 0.12968 0.51006 0.16208 0.0
C1081 C 0.23416 0.55299 0.13479 0.0
C1082 C 0.50453 0.67362 0.10254 0.0
C1083 C 0.50904 0.63753 0.09495 0.0
H1084 H 0.51395 0.72007 0.13612 0.0
C1085 C 0.53564 0.6269 0.11266 0.0
H1086 H 0.48473 0.68296 0.08922 0.0
C1087 C 0.55255 0.64836 0.13952 0.0
C1088 C 0.54259 0.68025 0.14885 0.0
H1089 H 0.54014 0.59955 0.10704 0.0
H1090 H 0.56996 0.63751 0.15401 0.0
C1091 C 0.52079 0.6945 0.12952 0.0
C1092 C 0.15843 0.67288 0.63215 0.0
C1093 C 0.14967 0.64807 0.65815 0.0
H1094 H 0.16441 0.67283 0.58484 0.0
C1095 C 0.1278 0.60257 0.65649 0.0
H1096 H 0.17556 0.70815 0.63317 0.0
C1097 C 0.11949 0.58229 0.62884 0.0
C1098 C 0.13495 0.60763 0.60292 0.0
H1099 H 0.12086 0.58308 0.67646 0.0
H1100 H 0.10728 0.5475 0.6281 0.0
C1101 C 0.15153 0.65271 0.60453 0.0
C1102 C 0.39527 0.58124 0.64137 0.0
C1103 C 0.40454 0.55336 0.65824 0.0
H1104 H 0.41195 0.62274 0.6036 0.0
C1105 C 0.43423 0.54087 0.64749 0.0
H1106 H 0.3714 0.59024 0.64896 0.0
C1107 C 0.45784 0.55977 0.62151 0.0
C1108 C 0.45142 0.59082 0.60599 0.0
H1109 H 0.44118 0.51881 0.66006 0.0
H1110 H 0.48282 0.55194 0.61459 0.0
C1111 C 0.41824 0.59955 0.61529 0.0
C1112 C 0.5514 0.88122 0.63066 0.0
C1113 C 0.5316 0.84016 0.64427 0.0
H1114 H 0.5475 0.91934 0.59499 0.0
C1115 C 0.49829 0.80389 0.62963 0.0
H1116 H 0.57769 0.90935 0.6416 0.0
C1117 C 0.48253 0.80919 0.60254 0.0
C1118 C 0.49896 0.85104 0.59042 0.0
H1119 H 0.48342 0.77179 0.63965 0.0
H1120 H 0.45471 0.78117 0.5926 0.0
C1121 C 0.53461 0.88681 0.60399 0.0
C1122 C 0.35958 0.54529 0.17604 0.0
C1123 C 0.32179 0.50584 0.18327 0.0
H1124 H 0.40712 0.5816 0.14254 0.0
C1125 C 0.30902 0.46933 0.16483 0.0
H1126 H 0.37072 0.5738 0.18997 0.0
C1127 C 0.33019 0.47382 0.13769 0.0
C1128 C 0.36388 0.51487 0.12885 0.0
H1129 H 0.2804 0.43828 0.17016 0.0
H1130 H 0.31783 0.44633 0.12268 0.0
C1131 C 0.38014 0.54989 0.14879 0.0
C1132 C 0.59787 0.84805 0.16329 0.0
C1133 C 0.56055 0.82045 0.18048 0.0
H1134 H 0.62175 0.87978 0.12121 0.0
C1135 C 0.51869 0.81082 0.17053 0.0
H1136 H 0.63061 0.85633 0.17066 0.0
C1137 C 0.51372 0.82318 0.14212 0.0
C1138 C 0.55058 0.8462 0.12358 0.0
H1139 H 0.48935 0.78995 0.1833 0.0
H1140 H 0.48075 0.8128 0.13407 0.0
C1141 C 0.59289 0.86106 0.13495 0.0
C1142 C 0.22464 0.78079 0.15812 0.0
C1143 C 0.23538 0.76045 0.1809 0.0
H1144 H 0.20363 0.77632 0.11275 0.0
C1145 C 0.22375 0.71653 0.17808 0.0
H1146 H 0.23407 0.81491 0.15973 0.0
C1147 C 0.20738 0.69506 0.1513 0.0
C1148 C 0.20188 0.71712 0.12731 0.0
H1149 H 0.23209 0.70045 0.19535 0.0
H1150 H 0.20254 0.66249 0.14855 0.0
C1151 C 0.20787 0.75905 0.13122 0.0
C1152 C 0.36939 0.18073 0.11041 0.0
C1153 C 0.34504 0.19837 0.12341 0.0
H1154 H 0.41988 0.16372 0.11592 0.0
C1155 C 0.35386 0.21267 0.15301 0.0
H1156 H 0.36334 0.16921 0.0877 0.0
C1157 C 0.38622 0.2094 0.16922 0.0
C1158 C 0.41045 0.1916 0.15627 0.0
H1159 H 0.33567 0.2263 0.16376 0.0
H1160 H 0.3922 0.22086 0.19195 0.0
C1161 C 0.40172 0.1774 0.12665 0.0
C1162 C 0.89442 0.23245 0.12487 0.0
C1163 C 0.87927 0.22745 0.15434 0.0
H1164 H 0.90345 0.20191 0.08654 0.0
C1165 C 0.86088 0.18615 0.16773 0.0
H1166 H 0.90872 0.26382 0.11388 0.0
C1167 C 0.85785 0.15069 0.15206 0.0
C1168 C 0.87303 0.15566 0.1226 0.0
H1169 H 0.84881 0.18112 0.19037 0.0
H1170 H 0.84357 0.11935 0.16309 0.0
C1171 C 0.89138 0.19695 0.10918 0.0
C1172 C 0.87132 0.70408 0.11121 0.0
C1173 C 0.91224 0.72829 0.12539 0.0
H1174 H 0.8047 0.65207 0.11441 0.0
C1175 C 0.9165 0.71774 0.15491 0.0
H1176 H 0.86676 0.71134 0.08855 0.0
C1177 C 0.8808 0.68378 0.16983 0.0
C1178 C 0.83991 0.6595 0.15561 0.0
H1179 H 0.94748 0.73576 0.16658 0.0
H1180 H 0.88534 0.67648 0.19249 0.0
C1181 C 0.83566 0.67008 0.1261 0.0
C1182 C 0.18898 0.37897 0.32166 0.0
C1183 C 0.20719 0.39017 0.2929 0.0
H1184 H 0.17619 0.33794 0.35977 0.0
C1185 C 0.22688 0.3676 0.28053 0.0
H1186 H 0.17352 0.3958 0.33184 0.0
C1187 C 0.22861 0.33475 0.29662 0.0
C1188 C 0.2106 0.32363 0.32543 0.0
H1189 H 0.24131 0.37551 0.25852 0.0
H1190 H 0.24409 0.31801 0.28635 0.0
C1191 C 0.19053 0.34591 0.33774 0.0
C1192 C 0.74434 0.90153 0.28924 0.0
C1193 C 0.75557 0.89629 0.31837 0.0
H1194 H 0.70192 0.87232 0.25194 0.0
C1195 C 0.73173 0.85512 0.33191 0.0
H1196 H 0.76195 0.93272 0.27805 0.0
C1197 C 0.69712 0.82031 0.31684 0.0
C1198 C 0.68554 0.82579 0.28785 0.0
H1199 H 0.73945 0.84988 0.35429 0.0
H1200 H 0.67921 0.78916 0.32803 0.0
C1201 C 0.70978 0.86682 0.27422 0.0
C1202 C 0.24159 0.8438 0.32142 0.0
C1203 C 0.25097 0.86151 0.29249 0.0
H1204 H 0.19776 0.82376 0.35877 0.0
C1205 C 0.22061 0.87086 0.27866 0.0
H1206 H 0.26392 0.83567 0.33272 0.0
C1207 C 0.1823 0.86344 0.29354 0.0
C1208 C 0.17329 0.84645 0.32267 0.0
H1209 H 0.22636 0.88392 0.25631 0.0
H1210 H 0.16014 0.8719 0.28233 0.0
C1211 C 0.20328 0.8364 0.33631 0.0
C1212 C 0.67539 0.85412 0.81932 0.0
C1213 C 0.68287 0.87047 0.79004 0.0
H1214 H 0.6992 0.83374 0.85639 0.0
C1215 C 0.72226 0.87913 0.77586 0.0
H1216 H 0.6453 0.84666 0.83095 0.0
C1217 C 0.75302 0.87117 0.79043 0.0
C1218 C 0.74523 0.85426 0.81956 0.0
H1219 H 0.72897 0.89119 0.75325 0.0
H1220 H 0.78302 0.87837 0.77877 0.0
C1221 C 0.70612 0.84616 0.83387 0.0
C1222 C 0.19841 0.85017 0.83732 0.0
C1223 C 0.21563 0.89113 0.82357 0.0
H1224 H 0.18349 0.78393 0.83358 0.0
C1225 C 0.23208 0.89612 0.79441 0.0
H1226 H 0.1855 0.84506 0.85974 0.0
C1227 C 0.23092 0.86089 0.7793 0.0
C1228 C 0.21324 0.81981 0.79299 0.0
H1229 H 0.24562 0.92722 0.78311 0.0
H1230 H 0.24349 0.86577 0.7568 0.0
C1231 C 0.1973 0.81504 0.82227 0.0
C1232 C 0.1693 0.33676 0.79106 0.0
C1233 C 0.17529 0.32516 0.81993 0.0
H1234 H 0.19879 0.37872 0.75351 0.0
C1235 C 0.21709 0.34773 0.83296 0.0
H1236 H 0.13743 0.31991 0.78035 0.0
C1237 C 0.25215 0.38115 0.81751 0.0
C1238 C 0.24625 0.39285 0.78866 0.0
H1239 H 0.22284 0.33949 0.85507 0.0
H1240 H 0.28395 0.39794 0.82833 0.0
C1241 C 0.20443 0.37036 0.7756 0.0
C1242 C 0.8566 0.67583 0.66563 0.0
C1243 C 0.87737 0.6541 0.65356 0.0
H1244 H 0.84026 0.72617 0.66014 0.0
C1245 C 0.89785 0.66725 0.6255 0.0
H1246 H 0.84041 0.66643 0.68705 0.0
C1247 C 0.89775 0.70146 0.60995 0.0
C1248 C 0.87708 0.72326 0.62205 0.0
H1249 H 0.91412 0.65113 0.61545 0.0
H1250 H 0.91402 0.71091 0.58855 0.0
C1251 C 0.85648 0.71001 0.65007 0.0
C1252 C 0.35195 0.15013 0.65457 0.0
C1253 C 0.33944 0.15385 0.6255 0.0
H1254 H 0.39592 0.18152 0.69082 0.0
C1255 C 0.36296 0.19403 0.61069 0.0
H1256 H 0.33464 0.11966 0.66664 0.0
C1257 C 0.39828 0.22953 0.62457 0.0
C1258 C 0.41086 0.22574 0.6536 0.0
H1259 H 0.3543 0.19802 0.58827 0.0
H1260 H 0.41567 0.26001 0.61252 0.0
C1261 C 0.38724 0.1856 0.66843 0.0
C1262 C 0.84737 0.1999 0.62517 0.0
C1263 C 0.83824 0.18248 0.65419 0.0
H1264 H 0.89177 0.22137 0.5881 0.0
C1265 C 0.86941 0.17444 0.66822 0.0
H1266 H 0.82449 0.2071 0.61369 0.0
C1267 C 0.90841 0.18327 0.6536 0.0
C1268 C 0.91744 0.20049 0.62454 0.0
H1269 H 0.86396 0.16172 0.69066 0.0
H1270 H 0.93126 0.17599 0.66505 0.0
C1271 C 0.88638 0.20876 0.61056 0.0
C1272 C 1.00305 0.50914 0.48837 0.0
C1273 C 1.01111 0.52558 0.45912 0.0
H1274 H 1.02666 0.48935 0.52593 0.0
C1275 C 0.05002 0.53283 0.44494 0.0
H1276 H 0.97316 0.5026 0.49992 0.0
C1277 C 0.08036 0.52462 0.45973 0.0
C1278 C 0.07271 0.50888 0.48916 0.0
H1279 H 0.05715 0.54487 0.42233 0.0
H1280 H 0.11032 0.53147 0.44818 0.0
C1281 C 1.03346 0.50093 0.50321 0.0
C1282 C 0.52358 0.5195 0.50188 0.0
C1283 C 0.53908 0.55962 0.48718 0.0
H1284 H 0.51003 0.45345 0.49912 0.0
C1285 C 0.5515 0.56279 0.45716 0.0
H1286 H 0.51368 0.51591 0.52498 0.0
C1287 C 0.54941 0.5271 0.44236 0.0
C1288 C 0.5348 0.48722 0.45717 0.0
H1289 H 0.56342 0.59311 0.44508 0.0
H1290 H 0.55982 0.53102 0.41937 0.0
C1291 C 0.52153 0.48371 0.48705 0.0
C1292 C 0.58767 0.04428 0.48741 0.0
C1293 C 0.58127 0.05593 0.45865 0.0
H1294 H 0.55871 1.00224 0.52503 0.0
C1295 C 0.53923 0.03332 0.44593 0.0
H1296 H 0.61972 0.06114 0.49789 0.0
C1297 C 0.50439 0.99985 0.46154 0.0
C1298 C 0.51068 0.98809 0.49027 0.0
H1299 H 0.53312 0.04154 0.42392 0.0
H1300 H 0.47244 0.98308 0.45092 0.0
C1301 C 0.55274 1.01061 0.50304 0.0
C1302 C 0.55879 0.03239 0.9406 0.0
C1303 C 0.54054 0.05541 0.95448 0.0
H1304 H 0.5744 0.98106 0.94416 0.0
C1305 C 0.5236 0.04336 -0.01653 0.0
H1306 H 0.57224 0.04091 0.91835 0.0
C1307 C 0.52495 1.00932 -0.00173 0.0
C1308 C 0.54331 0.98636 -0.01548 0.0
H1309 H 0.50934 0.06038 -0.00506 0.0
H1310 H 0.51156 1.00105 0.02055 0.0
C1311 C 0.5601 0.99817 0.95545 0.0
C1312 C 0.06139 0.56301 0.96094 0.0
C1313 C 0.07207 0.55801 -0.00971 0.0
H1314 H 1.02064 0.53282 0.92302 0.0
C1315 C 0.04815 0.51703 0.00398 0.0
H1316 H 0.07911 0.59413 0.94969 0.0
C1317 C 1.01456 0.48187 -0.01134 0.0
C1318 C 1.00411 0.48678 0.95924 0.0
H1319 H 0.05544 0.51199 0.02654 0.0
H1320 H 0.99697 0.4507 -0.00012 0.0
C1321 C 1.02779 0.52785 0.94562 0.0
C1322 C 0.58747 0.5419 -0.01431 0.0
C1323 C 0.58667 0.54075 0.9545 0.0
H1324 H 0.5526 0.53735 0.02583 0.0
C1325 C 0.54858 0.53473 0.93976 0.0
H1326 H 0.61621 0.54624 -0.00229 0.0
C1327 C 0.51155 0.52848 0.95594 0.0
C1328 C 0.51216 0.52888 -0.01283 0.0
H1329 H 0.5467 0.53305 0.91575 0.0
H1330 H 0.48244 0.52327 0.944 0.0
C1331 C 0.55087 0.53652 0.00181 0.0
C1332 C 0.26911 0.32805 0.04712 0.0
C1333 C 0.28322 0.3183 0.07402 0.0
H1334 H 0.28243 0.37561 0.01255 0.0
C1335 C 0.32038 0.35152 0.08796 0.0
H1336 H 0.2412 0.30256 0.03543 0.0
C1337 C 0.34432 0.39257 0.07469 0.0
C1338 C 0.3321 0.40203 0.04688 0.0
H1339 H 0.33291 0.34479 0.10811 0.0
H1340 H 0.37391 0.41647 0.08584 0.0
C1341 C 0.293 0.3697 0.0338 0.0
C1342 C 0.69848 0.97052 0.02286 0.0
C1343 C 0.66683 0.92917 0.03253 0.0
H1344 H 0.75906 0.02767 0.03106 0.0
C1345 C 0.67637 0.91154 0.05784 0.0
H1346 H 0.69155 0.98571 0.00427 0.0
C1347 C 0.71627 0.93578 0.0737 0.0
C1348 C 0.74657 0.97867 0.06501 0.0
H1349 H 0.65164 0.88029 0.06656 0.0
H1350 H 0.7221 0.92203 0.09352 0.0
C1351 C 0.73718 0.9949 0.03888 0.0
C1352 C 0.10019 0.72005 0.07276 0.0
C1353 C 0.1253 0.73538 0.04629 0.0
H1354 H 0.06324 0.72973 0.10689 0.0
C1355 C 0.1365 0.77744 0.03647 0.0
H1356 H 0.09041 0.68796 0.08147 0.0
C1357 C 0.12007 0.80163 0.05161 0.0
C1358 C 0.0934 0.78483 0.07727 0.0
H1359 H 0.15562 0.79051 0.01636 0.0
H1360 H 0.12579 0.83222 0.04217 0.0
C1361 C 0.0849 0.74434 0.08797 0.0
C1362 C 0.38003 0.30289 0.42644 0.0
C1363 C 0.41584 0.30429 0.41158 0.0
H1364 H 0.31229 0.28532 0.42497 0.0
C1365 C 0.40831 0.28387 0.38354 0.0
H1366 H 0.38481 0.31919 0.44759 0.0
C1367 C 0.36644 0.26487 0.36987 0.0
C1368 C 0.33134 0.26646 0.38393 0.0
H1369 H 0.4356 0.28506 0.37139 0.0
H1370 H 0.36236 0.25148 0.34774 0.0
C1371 C 0.3385 0.28406 0.41296 0.0
C1372 C 0.7643 0.04878 0.39959 0.0
C1373 C 0.79371 0.06804 0.37542 0.0
H1374 H 0.72454 0.05453 0.4334 0.0
C1375 C 0.80864 0.11235 0.36948 0.0
H1376 H 0.7516 1.01491 0.40545 0.0
C1377 C 0.79208 0.13533 0.38606 0.0
C1378 C 0.76153 0.11489 0.40946 0.0
H1379 H 0.83137 0.12859 0.35136 0.0
H1380 H 0.80092 0.16811 0.37937 0.0
C1381 C 0.74913 0.0718 0.41639 0.0
C1382 C 0.9662 0.68255 0.42256 0.0
C1383 C 0.95665 0.65102 0.40071 0.0
H1384 H 0.99556 0.75052 0.43231 0.0
C1385 C 0.96375 0.66487 0.37056 0.0
H1386 H 0.96082 0.67342 0.44579 0.0
C1387 C 0.98392 0.70909 0.36269 0.0
C1388 C 0.99739 0.7409 0.38473 0.0
H1389 H 0.95591 0.64154 0.3528 0.0
H1390 H 0.99191 0.71836 0.33961 0.0
C1391 C 0.98617 0.72684 0.41463 0.0
C1392 C 0.79837 0.71827 0.90722 0.0
C1393 C 0.80353 0.73213 0.87713 0.0
H1394 H 0.77103 0.66482 0.93822 0.0
C1395 C 0.79097 0.70042 0.85504 0.0
H1396 H 0.80845 0.74175 0.92505 0.0
C1397 C 0.77007 0.65605 0.86285 0.0
C1398 C 0.76086 0.64211 0.89291 0.0
H1399 H 0.79465 0.70956 0.83181 0.0
H1400 H 0.75855 0.6324 0.84506 0.0
C1401 C 0.77724 0.67398 0.91501 0.0
C1402 C 0.40892 0.1322 0.88486 0.0
C1403 C 0.41851 0.11677 0.91123 0.0
H1404 H 0.36213 0.11999 0.84964 0.0
C1405 C 0.38545 0.07804 0.92361 0.0
H1406 H 0.43433 0.16155 0.87444 0.0
C1407 C 0.34496 0.05397 0.90924 0.0
C1408 C 0.33583 0.06762 0.88184 0.0
H1409 H 0.39212 0.06452 0.94325 0.0
H1410 H 0.32134 1.02328 0.91925 0.0
C1411 C 0.3678 0.10815 0.87042 0.0
C1412 C 0.96373 0.24584 0.89034 0.0
C1413 C 0.99394 0.26589 0.86671 0.0
H1414 H 0.92555 0.25332 0.92549 0.0
C1415 C 1.00653 0.30902 0.8597 0.0
H1416 H 0.95477 0.21306 0.89712 0.0
C1417 C 0.99218 0.33251 0.87677 0.0
C1418 C 0.96327 0.31365 0.90122 0.0
H1419 H 1.03094 0.32604 0.84254 0.0
H1420 H 1.00523 0.36645 0.87096 0.0
C1421 C 0.94789 0.26925 0.90714 0.0
C1422 C 0.70676 0.77799 0.53322 0.0
C1423 C 0.67777 0.7338 0.53983 0.0
H1424 H 0.77031 0.83441 0.54194 0.0
C1425 C 0.68923 0.71519 0.56371 0.0
H1426 H 0.6993 0.79372 0.51529 0.0
C1427 C 0.72823 0.7388 0.57966 0.0
C1428 C 0.75816 0.78198 0.5723 0.0
H1429 H 0.66834 0.68146 0.57005 0.0
H1430 H 0.73645 0.72215 0.59657 0.0
C1431 C 0.74694 0.8016 0.549 0.0
C1432 C 0.33169 0.99961 0.54927 0.0
C1433 C 0.30095 0.9806 0.57279 0.0
H1434 H 0.37202 0.99289 0.5163 0.0
C1435 C 0.28457 0.93598 0.57855 0.0
H1436 H 0.3454 0.03367 0.54354 0.0
C1437 C 0.30066 0.91228 0.56232 0.0
C1438 C 0.33224 0.93231 0.53944 0.0
H1439 H 0.26076 0.9199 0.59614 0.0
H1440 H 0.29029 0.87904 0.56877 0.0
C1441 C 0.34659 0.97596 0.53288 0.0
C1442 C 0.13751 0.38608 0.57921 0.0
C1443 C 0.14277 0.40124 0.54944 0.0
H1444 H 0.10854 0.33135 0.60924 0.0
C1445 C 0.12841 0.37017 0.52677 0.0
H1446 H 0.14869 0.40901 0.59745 0.0
C1447 C 0.10576 0.32543 0.53373 0.0
C1448 C 0.09652 0.31032 0.56354 0.0
H1449 H 0.13175 0.38021 0.50374 0.0
H1450 H 0.09298 0.30254 0.5155 0.0
C1451 C 0.11464 0.34135 0.58618 0.0
C1452 C 0.06746 0.66578 0.71365 0.0
C1453 C 0.07863 0.6466 0.73733 0.0
H1454 H 1.02099 0.65945 0.68041 0.0
C1455 C 0.05002 0.602 0.74299 0.0
H1456 H 0.08809 0.69982 0.70797 0.0
C1457 C 1.01042 0.57853 0.72653 0.0
C1458 C 0.99938 0.59876 0.70353 0.0
H1459 H 0.05729 0.5858 0.7607 0.0
H1460 H 0.98725 0.54532 0.73291 0.0
C1461 C 1.02906 0.64236 0.69707 0.0
C1462 C 0.41215 0.40688 0.74801 0.0
C1463 C 0.42568 0.4501 0.74064 0.0
H1464 H 0.41314 0.34894 0.73785 0.0
C1465 C 0.45612 0.46933 0.71702 0.0
H1466 H 0.38753 0.3905 0.76515 0.0
C1467 C 0.47173 0.44522 0.70081 0.0
C1468 C 0.45591 0.40091 0.7073 0.0
H1469 H 0.46578 0.50218 0.70997 0.0
H1470 H 0.49445 0.46062 0.68256 0.0
C1471 C 0.42647 0.38276 0.7316 0.0
C1472 C 0.61694 0.99142 0.69864 0.0
C1473 C 0.61184 0.977 0.72859 0.0
H1474 H 0.64568 0.04549 0.66805 0.0
C1475 C 0.62614 1.00852 0.75093 0.0
H1476 H 0.60573 0.96807 0.68066 0.0
C1477 C 0.64863 0.05301 0.74349 0.0
C1478 C 0.65778 0.06744 0.71354 0.0
H1479 H 0.62291 0.99901 0.77407 0.0
H1480 H 0.6614 0.07626 0.76148 0.0
C1481 C 0.63968 0.03597 0.69119 0.0
C1482 C 0.43028 1.01801 0.25457 0.0
C1483 C 0.43209 0.98528 0.23831 0.0
H1484 H 0.44406 0.08395 0.25535 0.0
C1485 C 0.45607 0.99686 0.21129 0.0
H1486 H 0.41138 1.01013 0.27497 0.0
C1487 C 0.47486 0.0394 0.19969 0.0
C1488 C 0.46934 0.07111 0.21465 0.0
H1489 H 0.45743 0.97201 0.198 0.0
H1490 H 0.49083 0.04649 0.17817 0.0
C1491 C 0.44848 0.06024 0.24284 0.0
C1492 C 1.01585 0.38586 0.23896 0.0
C1493 C 1.00643 0.4031 0.21334 0.0
H1494 H 0.06161 0.39341 0.27306 0.0
C1495 C 1.0368 0.44636 0.20541 0.0
H1496 H 0.99388 0.35283 0.24628 0.0
C1497 C 0.0768 0.46991 0.22137 0.0
C1498 C 0.08653 0.45114 0.24595 0.0
H1499 H 1.03094 0.46099 0.18607 0.0
H1500 H 0.10149 0.50155 0.21322 0.0
C1501 C 0.05469 0.40948 0.25502 0.0
C1502 C 0.61524 0.60815 0.24035 0.0
C1503 C 0.62411 0.64862 0.2287 0.0
H1504 H 0.62765 0.55433 0.23652 0.0
C1505 C 0.64577 0.66134 0.20087 0.0
H1506 H 0.59856 0.59707 0.2615 0.0
C1507 C 0.66108 0.63649 0.18631 0.0
C1508 C 0.65551 0.59798 0.19899 0.0
H1509 H 0.65302 0.69197 0.19071 0.0
H1510 H 0.68078 0.64947 0.16638 0.0
C1511 C 0.63127 0.58334 0.22575 0.0
C1512 C 1.02076 0.14719 0.09851 0.0
C1513 C 1.0018 0.11217 0.11877 0.0
H1514 H 0.07933 0.19313 0.07511 0.0
C1515 C 1.02993 0.10272 0.13548 0.0
H1516 H 0.99986 0.15471 0.0849 0.0
C1517 C 0.07564 0.12581 0.13061 0.0
C1518 C 0.094 0.1576 0.10804 0.0
H1519 H 1.01629 0.07498 0.15039 0.0
H1520 H 0.09608 0.11581 0.14256 0.0
C1521 C 0.06624 0.16902 0.09269 0.0
C1522 C 0.88912 0.89991 0.098 0.0
C1523 C 0.89961 0.94031 0.11046 0.0
H1524 H 0.90547 0.84881 0.09523 0.0
C1525 C 0.93202 0.95741 0.13286 0.0
H1526 H 0.86427 0.88575 0.08085 0.0
C1527 C 0.95673 0.93731 0.14012 0.0
C1528 C 0.94852 0.89857 0.12616 0.0
H1529 H 0.94116 0.98858 0.14293 0.0
H1530 H 0.98489 0.95418 0.15467 0.0
C1531 C 0.9125 0.87862 0.10649 0.0
C1532 C 0.19383 0.04342 0.10748 0.0
C1533 C 0.17683 0.06299 0.12664 0.0
H1534 H 0.18133 0.98497 0.08464 0.0
C1535 C 0.13928 0.03597 0.14354 0.0
H1536 H 0.22253 0.0635 0.09395 0.0
C1537 C 0.11661 0.99081 0.13903 0.0
C1538 C 0.13018 0.97205 0.11672 0.0
H1539 H 0.12468 0.05013 0.15778 0.0
H1540 H 0.08574 0.97134 0.15066 0.0
C1541 C 0.17009 0.99849 0.10192 0.0
C1542 C 0.15364 0.06126 0.3102 0.0
C1543 C 0.19358 0.08694 0.32533 0.0
H1544 H 0.10361 0.99629 0.29901 0.0
C1545 C 0.21987 0.06874 0.33269 0.0
H1546 H 0.13309 0.07492 0.30383 0.0
C1547 C 0.2037 1.02415 0.32871 0.0
C1548 C 0.15976 0.99686 0.3195 0.0
H1549 H 0.25099 0.08803 0.344 0.0
H1550 H 0.22248 1.01005 0.33795 0.0
C1551 C 0.13689 1.01627 0.30708 0.0
C1552 C 0.05213 0.12325 0.3016 0.0
C1553 C 0.08306 0.16086 0.31649 0.0
H1554 H 0.98491 0.07368 0.29725 0.0
C1555 C 0.06716 0.18089 0.33627 0.0
H1556 H 0.06314 0.10636 0.28683 0.0
C1557 C 1.02211 0.16032 0.34413 0.0
C1558 C 0.99166 0.1207 0.33086 0.0
H1559 H 0.09019 0.20989 0.3482 0.0
H1560 H 1.01154 0.17429 0.3615 0.0
C1561 C 1.0071 0.10407 0.30815 0.0
C1562 C 0.92362 0.91661 0.34001 0.0
C1563 C 0.94368 0.96042 0.33055 0.0
H1564 H 0.93353 0.8646 0.35658 0.0
C1565 C 0.98961 0.98329 0.32689 0.0
H1566 H 0.88846 0.8986 0.34414 0.0
C1567 C 1.01518 0.96484 0.33542 0.0
C1568 C 0.99581 0.92229 0.34694 0.0
H1569 H 1.00627 1.01734 0.32051 0.0
H1570 H 0.05061 0.98507 0.33458 0.0
C1571 C 0.9495 0.89744 0.34776 0.0
C1572 C 0.05501 0.94821 0.80675 0.0
C1573 C 0.08217 0.93434 0.82027 0.0
H1574 H 0.99096 0.94225 0.80501 0.0
C1575 C 0.062 0.89669 0.83828 0.0
H1576 H 0.06951 0.97777 0.79354 0.0
C1577 C 1.01697 0.87718 0.84579 0.0
C1578 C 0.99116 0.89438 0.83474 0.0
H1579 H 0.08214 0.88584 0.84971 0.0
H1580 H 1.00351 0.85143 0.86227 0.0
C1581 C 1.01008 0.92836 0.81382 0.0
C1582 C 0.15777 0.09555 0.81049 0.0
C1583 C 0.18757 0.10835 0.83445 0.0
H1584 H 0.10915 0.10481 0.7876 0.0
C1585 C 0.19903 0.14788 0.8487 0.0
H1586 H 0.14793 0.06512 0.79908 0.0
C1587 C 0.17876 0.17228 0.84051 0.0
C1588 C 0.14469 0.15637 0.81925 0.0
H1589 H 0.22195 0.15879 0.8671 0.0
H1590 H 0.18615 0.20103 0.85327 0.0
C1591 C 0.13603 0.11879 0.80339 0.0
C1592 C 0.95651 1.01385 0.80541 0.0
C1593 C 0.91357 0.99061 0.81676 0.0
H1594 H 1.01621 0.07541 0.80395 0.0
C1595 C 0.89384 1.01434 0.82776 0.0
H1596 H 0.97262 0.99676 0.79679 0.0
C1597 C 0.9195 0.05888 0.83376 0.0
C1598 C 0.96429 0.08079 0.82657 0.0
H1599 H 0.86066 0.99716 0.83669 0.0
H1600 H 0.90515 0.07533 0.84584 0.0
C1601 C 0.98175 0.05882 0.81024 0.0
C1602 C 0.89057 0.02636 0.61949 0.0
C1603 C 0.93445 0.05409 0.62858 0.0
H1604 H 0.84371 0.96209 0.60469 0.0
C1605 C 0.95778 0.03529 0.64122 0.0
H1606 H 0.87152 0.04006 0.61009 0.0
C1607 C 0.94148 0.99036 0.63843 0.0
C1608 C 0.90155 0.96418 0.62346 0.0
H1609 H 0.99108 0.0557 0.64912 0.0
H1610 H 0.96239 0.97712 0.64485 0.0
C1611 C 0.87481 0.9818 0.6159 0.0
C1612 C 1.0427 0.92536 0.64589 0.0
C1613 C 1.01161 0.88816 0.63073 0.0
H1614 H 0.10997 0.97473 0.65026 0.0
C1615 C 1.02726 0.86843 0.6105 0.0
H1616 H 1.03187 0.94201 0.66101 0.0
C1617 C 0.07224 0.88899 0.60252 0.0
C1618 C 0.10286 0.92828 0.61606 0.0
H1619 H 1.00409 0.83973 0.59837 0.0
H1620 H 0.08262 0.87532 0.58484 0.0
C1621 C 0.08766 0.94454 0.63917 0.0
C1622 C 0.17039 0.13316 0.60653 0.0
C1623 C 0.15027 0.08918 0.61567 0.0
H1624 H 0.16063 0.18571 0.59086 0.0
C1625 C 0.10439 0.0665 0.61958 0.0
H1626 H 0.2055 0.15107 0.6022 0.0
C1627 C 0.07891 0.08543 0.61188 0.0
C1628 C 0.09828 0.12824 0.60075 0.0
H1629 H 0.08763 0.03234 0.62574 0.0
H1630 H 1.04348 0.06537 0.61301 0.0
C1631 C 0.14461 0.15276 0.59948 0.0
C1632 C 0.70452 0.44048 0.47245 0.0
C1633 C 0.67695 0.45325 0.45821 0.0
H1634 H 0.76879 0.44687 0.47451 0.0
C1635 C 0.69661 0.48971 0.4391 0.0
H1636 H 0.69037 0.41173 0.48645 0.0
C1637 C 0.74152 0.50898 0.43138 0.0
C1638 C 0.76778 0.49288 0.44331 0.0
H1639 H 0.67615 0.49963 0.42711 0.0
H1640 H 0.75454 0.53362 0.41413 0.0
C1641 C 0.7494 0.46017 0.46516 0.0
C1642 C 0.55979 0.23594 0.4322 0.0
C1643 C 0.57283 0.27563 0.44667 0.0
H1644 H 0.57055 0.1816 0.42683 0.0
C1645 C 0.60278 0.28737 0.47045 0.0
H1646 H 0.53658 0.22581 0.41399 0.0
C1647 C 0.62333 0.26289 0.47707 0.0
C1648 C 0.61334 0.22527 0.4608 0.0
H1649 H 0.61368 0.31786 0.48205 0.0
H1650 H 0.6505 0.27603 0.49264 0.0
C1651 C 0.57891 0.21037 0.43988 0.0
C1652 C 0.77339 0.32266 0.46614 0.0
C1653 C 0.79151 0.30104 0.45006 0.0
H1654 H 0.78107 0.38447 0.47894 0.0
C1655 C 0.83618 0.32377 0.44256 0.0
H1656 H 0.73898 0.30554 0.47254 0.0
C1657 C 0.86107 0.36849 0.4482 0.0
C1658 C 0.84079 0.39161 0.45938 0.0
H1659 H 0.85099 0.30771 0.43053 0.0
H1660 H 0.89415 0.38613 0.43912 0.0
C1661 C 0.79782 0.36779 0.4706 0.0
C1662 C 0.81603 0.38989 0.63851 0.0
C1663 C 0.85508 0.41408 0.65488 0.0
H1664 H 0.76458 0.32594 0.6267 0.0
C1665 C 0.87907 0.39403 0.66377 0.0
H1666 H 0.7973 0.405 0.63097 0.0
C1667 C 0.86123 0.34919 0.65995 0.0
C1668 C 0.8177 0.32357 0.6495 0.0
H1669 H 0.90951 0.41215 0.67604 0.0
H1670 H 0.87797 0.33371 0.67033 0.0
C1671 C 0.79743 0.34464 0.63571 0.0
C1672 C 0.68289 0.48601 0.67718 0.0
C1673 C 0.65222 0.44658 0.66381 0.0
H1674 H 0.751 0.53547 0.68108 0.0
C1675 C 0.66741 0.42986 0.64101 0.0
H1676 H 0.67251 0.49995 0.69468 0.0
C1677 C 0.71241 0.44902 0.63426 0.0
C1678 C 0.74352 0.48671 0.64901 0.0
H1679 H 0.64498 0.39953 0.63014 0.0
H1680 H 0.72325 0.43221 0.61927 0.0
C1681 C 0.72786 0.50652 0.66916 0.0
C1682 C 0.602 0.22066 0.68031 0.0
C1683 C 0.64731 0.24245 0.67378 0.0
H1684 H 0.54284 0.22541 0.68197 0.0
C1685 C 0.66519 0.28199 0.65803 0.0
H1686 H 0.58739 0.19049 0.69281 0.0
C1687 C 0.63968 0.30127 0.65114 0.0
C1688 C 0.59549 0.28186 0.6601 0.0
H1689 H 0.69998 0.29978 0.65299 0.0
H1690 H 0.65587 0.33371 0.6416 0.0
C1691 C 0.57633 0.2404 0.67367 0.0
C1692 C 0.72193 0.28117 0.14444 0.0
C1693 C 0.75055 0.27142 0.16029 0.0
H1694 H 0.65558 0.26802 0.13843 0.0
C1695 C 0.73207 0.23592 0.1802 0.0
H1696 H 0.73514 0.30922 0.12981 0.0
C1697 C 0.6867 0.21394 0.1866 0.0
C1698 C 0.65849 0.22556 0.17208 0.0
H1699 H 0.7533 0.22801 0.1931 0.0
H1700 H 0.67407 0.1894 0.20392 0.0
C1701 C 0.67633 0.25788 0.1498 0.0
C1702 C 0.84326 0.50652 0.17761 0.0
C1703 C 0.80876 0.48946 0.15667 0.0
H1704 H 0.88923 0.49571 0.20308 0.0
C1705 C 0.8011 0.45233 0.14069 0.0
H1706 H 0.84985 0.53498 0.19044 0.0
C1707 C 0.82482 0.43087 0.1471 0.0
C1708 C 0.85562 0.44494 0.17053 0.0
H1709 H 0.77393 0.43752 0.12517 0.0
H1710 H 0.81595 0.4008 0.13549 0.0
C1711 C 0.86566 0.48388 0.18507 0.0
C1712 C 0.56196 0.34133 0.17152 0.0
C1713 C 0.57963 0.32187 0.15279 0.0
H1714 H 0.57393 0.39941 0.1947 0.0
C1715 C 0.61835 0.34903 0.137 0.0
H1716 H 0.53233 0.32115 0.18419 0.0
C1717 C 0.64131 0.39402 0.1422 0.0
C1718 C 0.62682 0.41252 0.1641 0.0
H1719 H 0.63347 0.33497 0.12315 0.0
H1720 H 0.67286 0.41352 0.13134 0.0
C1721 C 0.58597 0.38607 0.17782 0.0
C1722 C 0.60567 0.32363 0.97253 0.0
C1723 C 0.56584 0.29778 0.95733 0.0
H1724 H 0.65568 0.38876 -0.01652 0.0
C1725 C 0.53982 0.31609 0.9494 0.0
H1726 H 0.62606 0.30995 -0.02075 0.0
C1727 C 0.55614 0.3608 0.95292 0.0
C1728 C 0.6 0.38815 0.96222 0.0
H1729 H 0.5088 0.29673 0.93801 0.0
H1730 H 0.5376 0.37484 0.9432 0.0
C1731 C 0.62255 0.36874 -0.02479 0.0
C1732 C 0.75228 0.27854 0.96892 0.0
C1733 C 0.76744 0.26361 0.94499 0.0
H1734 H 0.69646 0.2743 -0.00812 0.0
C1735 C 0.73696 0.225 0.93071 0.0
H1736 H 0.77456 0.30819 -0.01944 0.0
C1737 C 0.69209 0.20373 0.93892 0.0
C1738 C 0.67642 0.22206 0.96024 0.0
H1739 H 0.74738 0.2124 0.91238 0.0
H1740 H 0.66901 0.1755 0.92637 0.0
C1741 C 0.70738 0.25866 -0.02405 0.0
C1742 C 0.74776 0.42292 0.94911 0.0
C1743 C 0.76612 0.46421 0.93564 0.0
H1744 H 0.75764 0.3713 0.96478 0.0
C1745 C 0.8122 0.48839 0.93232 0.0
H1746 H 0.7125 0.40318 0.95169 0.0
C1747 C 0.83849 0.46948 0.93956 0.0
C1748 C 0.81918 0.42662 0.95087 0.0
H1749 H 0.82737 0.52015 0.92182 0.0
H1750 H 0.87302 0.48658 0.93344 0.0
C1751 C 0.77386 0.40475 0.95703 0.0
C1752 C 0.36076 0.73513 0.78791 0.0
C1753 C 0.33735 0.75735 0.78297 0.0
H1754 H 0.42078 0.73411 0.78213 0.0
C1755 C 0.36109 0.80088 0.77287 0.0
H1756 H 0.34346 0.70127 0.79477 0.0
C1757 C 0.40649 0.82035 0.76584 0.0
C1758 C 0.42848 0.79612 0.76811 0.0
H1759 H 0.34374 0.81837 0.76771 0.0
H1760 H 0.42328 0.85283 0.75642 0.0
C1761 C 0.40524 0.75392 0.78025 0.0
C1762 C 0.2569 0.61247 0.8049 0.0
C1763 C 0.22565 0.596 0.78171 0.0
H1764 H 0.31028 0.61048 0.82693 0.0
C1765 C 0.21754 0.55692 0.7681 0.0
H1766 H 0.26432 0.6425 0.81602 0.0
C1767 C 0.24224 0.53674 0.77616 0.0
C1768 C 0.27733 0.55663 0.79656 0.0
H1769 H 0.19368 0.54312 0.75034 0.0
H1770 H 0.23708 0.50817 0.76402 0.0
C1771 C 0.28299 0.59368 0.8117 0.0
C1772 C 0.47752 0.70342 0.80878 0.0
C1773 C 0.51969 0.72269 0.79609 0.0
H1774 H 0.41505 0.64478 0.81238 0.0
C1775 C 0.53641 0.69539 0.78711 0.0
H1776 H 0.46424 0.72349 0.81668 0.0
C1777 C 0.508 0.65076 0.78344 0.0
C1778 C 0.46351 0.63264 0.79094 0.0
H1779 H 0.56923 0.70947 0.77769 0.0
H1780 H 0.51977 0.63137 0.7722 0.0
C1781 C 0.44928 0.6584 0.80597 0.0
C1782 C 0.52824 0.71574 0.00833 0.0
C1783 C 0.51436 0.74236 -0.00561 0.0
H1784 H 0.51562 0.65056 0.01533 0.0
C1785 C 0.48113 0.724 0.97266 0.0
H1786 H 0.55377 0.72904 0.02509 0.0
C1787 C 0.4582 0.67897 0.96796 0.0
C1788 C 0.46924 0.65177 -0.01595 0.0
H1789 H 0.46951 0.74371 0.96166 0.0
H1790 H 0.42888 0.66506 0.95428 0.0
C1791 C 0.50663 0.6709 0.00249 0.0
C1792 C 0.3463 0.81336 0.01376 0.0
C1793 C 0.31671 0.77298 0.0011 0.0
H1794 H 0.41352 0.86495 0.0167 0.0
C1795 C 0.33238 0.75651 -0.02151 0.0
H1796 H 0.33534 0.82704 0.03108 0.0
C1797 C 0.37727 0.77721 0.97118 0.0
C1798 C 0.4075 0.81592 -0.01466 0.0
H1799 H 0.31063 0.72535 0.9683 0.0
H1800 H 0.3889 0.76079 0.95647 0.0
C1801 C 0.39102 0.83521 0.00526 0.0
C1802 C 0.28394 0.60884 -0.02323 0.0
C1803 C 0.24657 0.59976 -0.00628 0.0
H1804 H 0.33679 0.59546 0.96934 0.0
C1805 C 0.23089 0.56508 0.01425 0.0
H1806 H 0.29789 0.63633 0.96164 0.0
C1807 C 0.25457 0.54323 0.01999 0.0
C1808 C 0.29346 0.55417 0.0043 0.0
H1809 H 0.20267 0.55776 0.02808 0.0
H1810 H 0.24377 0.51944 0.03776 0.0
C1811 C 0.30656 0.5857 -0.01845 0.0
C1812 C 0.39428 0.64591 0.49247 0.0
C1813 C 0.41797 0.62383 0.4967 0.0
H1814 H 0.33404 0.64623 0.49889 0.0
C1815 C 0.39457 0.57997 0.50618 0.0
H1816 H 0.41132 0.67996 0.48605 0.0
C1817 C 0.34916 0.55998 0.51331 0.0
C1818 C 0.32687 0.58398 0.51175 0.0
H1819 H 0.41216 0.56255 0.51074 0.0
H1820 H 0.33259 0.52721 0.52225 0.0
C1821 C 0.34982 0.62658 0.50022 0.0
C1822 C 0.47246 0.78677 0.46767 0.0
C1823 C 0.47828 0.82392 0.48272 0.0
H1824 H 0.4912 0.73805 0.46327 0.0
C1825 C 0.5137 0.84412 0.50285 0.0
H1826 H 0.44492 0.76977 0.45264 0.0
C1827 C 0.53865 0.82416 0.51074 0.0
C1828 C 0.53041 0.78499 0.49724 0.0
H1829 H 0.51895 0.87279 0.51492 0.0
H1830 H 0.56278 0.83818 0.52833 0.0
C1831 C 0.49877 0.76819 0.47429 0.0
C1832 C 0.21978 0.68517 0.49453 0.0
C1833 C 0.23633 0.6579 0.4851 0.0
H1834 H 0.23647 0.74928 0.50924 0.0
C1835 C 0.27825 0.67726 0.47202 0.0
H1836 H 0.1872 0.67107 0.50432 0.0
C1837 C 0.30638 0.72239 0.47449 0.0
C1838 C 0.29236 0.74823 0.48966 0.0
H1839 H 0.29146 0.65724 0.46387 0.0
H1840 H 0.34044 0.7361 0.46765 0.0
C1841 C 0.2481 0.72991 0.49781 0.0
C1842 C 0.22115 0.65733 0.27561 0.0
C1843 C 0.24346 0.63512 0.28333 0.0
H1844 H 0.22482 0.7193 0.27216 0.0
C1845 C 0.28269 0.65688 0.29987 0.0
H1846 H 0.19053 0.64102 0.26333 0.0
C1847 C 0.30279 0.70188 0.30453 0.0
C1848 C 0.28354 0.7253 0.2929 0.0
H1849 H 0.30014 0.64003 0.3065 0.0
H1850 H 0.33592 0.7188 0.31332 0.0
C1851 C 0.24036 0.70191 0.28141 0.0
C1852 C 0.42058 0.6215 0.30098 0.0
C1853 C 0.43835 0.60986 0.27684 0.0
H1854 H 0.36193 0.61025 0.32388 0.0
C1855 C 0.41117 0.57042 0.26224 0.0
H1856 H 0.44053 0.65184 0.31266 0.0
C1857 C 0.3665 0.54496 0.27023 0.0
C1858 C 0.34743 0.55967 0.29169 0.0
H1859 H 0.42382 0.5604 0.24369 0.0
H1860 H 0.34577 0.51635 0.25715 0.0
C1861 C 0.37556 0.59715 0.30795 0.0
C1862 C 0.468 0.77134 0.30618 0.0
C1863 C 0.50912 0.78515 0.29272 0.0
H1864 H 0.40968 0.77693 0.30738 0.0
C1865 C 0.5269 0.82282 0.27474 0.0
H1866 H 0.45282 0.74182 0.31942 0.0
C1867 C 0.50134 0.84206 0.26688 0.0
C1868 C 0.45814 0.82465 0.27764 0.0
H1869 H 0.55803 0.83367 0.26345 0.0
H1870 H 0.51379 0.86772 0.25033 0.0
C1871 C 0.44287 0.79093 0.29876 0.0
loop_
_geom_bond_atom_site_label_1
_geom_bond_atom_site_label_2
_geom_bond_distance
_geom_bond_site_symmetry_2
_ccdc_geom_bond_type
Fe0 O2 1.918 . S
Fe0 O5 1.997 . S
Fe0 O6 2.002 . S
Fe0 O11 1.976 . S
Fe0 O14 1.996 . S
Fe1 O2 1.918 . S
Fe1 O9 1.997 . S
Fe1 O12 1.996 . S
Fe1 O16 1.976 . S
Fe1 O19 2.002 . S
O2 Fe0 1.918 . S
O2 Fe1 1.918 . S
O2 Fe3 1.918 . S
Fe3 O2 1.918 . S
Fe3 O4 2.002 . S
Fe3 O13 1.976 . S
Fe3 O17 1.996 . S
Fe3 O20 1.997 . S
O4 Fe3 2.002 . S
O4 C21 1.295 . S
O5 Fe0 1.997 . S
O5 C21 1.235 . S
O6 Fe0 2.002 . S
O6 C7 1.295 . S
C7 O6 1.295 . S
C7 O9 1.235 . S
C8 O13 1.287 . S
C8 O14 1.255 . S
O9 Fe1 1.997 . S
O9 C7 1.235 . S
C10 O16 1.287 . S
C10 O17 1.255 . S
O11 Fe0 1.976 . S
O11 C18 1.287 . S
O12 Fe1 1.996 . S
O12 C18 1.255 . S
O13 Fe3 1.976 . S
O13 C8 1.287 . S
O14 Fe0 1.996 . S
O14 C8 1.255 . S
C15 O19 1.295 . S
C15 O20 1.235 . S
O16 Fe1 1.976 . S
O16 C10 1.287 . S
O17 Fe3 1.996 . S
O17 C10 1.255 . S
C18 O11 1.287 . S
C18 O12 1.255 . S
O19 Fe1 2.002 . S
O19 C15 1.295 . S
O20 Fe3 1.997 . S
O20 C15 1.235 . S
C21 O4 1.295 . S
C21 O5 1.235 . S
Fe22 O24 1.918 . S
Fe22 O27 1.997 1_545 S
Fe22 O28 2.002 1_545 S
Fe22 O33 1.976 . S
Fe22 O36 1.996 . S
Fe23 O24 1.918 . S
Fe23 O31 1.997 1_545 S
Fe23 O34 1.996 . S
Fe23 O38 1.976 . S
Fe23 O41 2.002 1_545 S
O24 Fe22 1.918 . S
O24 Fe23 1.918 . S
O24 Fe25 1.918 . S
Fe25 O24 1.918 . S
Fe25 O26 2.002 . S
Fe25 O35 1.976 . S
Fe25 O39 1.996 . S
Fe25 O42 1.998 . S
O26 Fe25 2.002 . S
O26 C43 1.295 1_545 S
O27 Fe22 1.997 1_565 S
O27 C43 1.235 . S
O28 Fe22 2.002 1_565 S
O28 C29 1.295 . S
C29 O28 1.295 . S
C29 O31 1.235 . S
C30 O35 1.287 . S
C30 O36 1.255 . S
O31 Fe23 1.997 1_565 S
O31 C29 1.235 . S
C32 O38 1.287 . S
C32 O39 1.255 . S
O33 Fe22 1.976 . S
O33 C40 1.287 . S
O34 Fe23 1.996 . S
O34 C40 1.255 . S
O35 Fe25 1.976 . S
O35 C30 1.287 . S
O36 Fe22 1.996 . S
O36 C30 1.255 . S
C37 O41 1.295 . S
C37 O42 1.234 1_565 S
O38 Fe23 1.976 . S
O38 C32 1.287 . S
O39 Fe25 1.996 . S
O39 C32 1.255 . S
C40 O33 1.287 . S
C40 O34 1.255 . S
O41 Fe23 2.002 1_565 S
O41 C37 1.295 . S
O42 Fe25 1.998 . S
O42 C37 1.234 1_545 S
C43 O26 1.295 1_565 S
C43 O27 1.235 . S
Fe44 O46 1.918 . S
Fe44 O49 1.997 . S
Fe44 O50 2.002 . S
Fe44 O55 1.976 . S
Fe44 O58 1.996 . S
Fe45 O46 1.918 . S
Fe45 O53 1.997 1_655 S
Fe45 O56 1.996 . S
Fe45 O60 1.976 . S
Fe45 O63 2.002 1_655 S
O46 Fe44 1.918 . S
O46 Fe45 1.918 . S
O46 Fe47 1.918 . S
Fe47 O46 1.918 . S
Fe47 O48 2.002 1_655 S
Fe47 O57 1.976 . S
Fe47 O61 1.996 . S
Fe47 O64 1.997 1_655 S
O48 Fe47 2.002 1_455 S
O48 C65 1.295 . S
O49 Fe44 1.997 . S
O49 C65 1.235 1_655 S
O50 Fe44 2.002 . S
O50 C51 1.295 1_655 S
C51 O50 1.295 1_455 S
C51 O53 1.235 . S
C52 O57 1.287 . S
C52 O58 1.255 . S
O53 Fe45 1.997 1_455 S
O53 C51 1.235 . S
C54 O60 1.287 . S
C54 O61 1.255 . S
O55 Fe44 1.976 . S
O55 C62 1.287 . S
O56 Fe45 1.996 . S
O56 C62 1.255 . S
O57 Fe47 1.976 . S
O57 C52 1.287 . S
O58 Fe44 1.996 . S
O58 C52 1.255 . S
C59 O63 1.295 . S
C59 O64 1.235 . S
O60 Fe45 1.976 . S
O60 C54 1.287 . S
O61 Fe47 1.996 . S
O61 C54 1.255 . S
C62 O55 1.287 . S
C62 O56 1.255 . S
O63 Fe45 2.002 1_455 S
O63 C59 1.295 . S
O64 Fe47 1.997 1_455 S
O64 C59 1.235 . S
C65 O48 1.295 . S
C65 O49 1.235 1_455 S
Fe66 O68 1.918 . S
Fe66 O71 1.997 . S
Fe66 O72 2.002 . S
Fe66 O77 1.976 . S
Fe66 O80 1.996 . S
Fe67 O68 1.918 . S
Fe67 O75 1.997 . S
Fe67 O78 1.996 . S
Fe67 O82 1.976 . S
Fe67 O85 2.002 . S
O68 Fe66 1.918 . S
O68 Fe67 1.918 . S
O68 Fe69 1.918 . S
Fe69 O68 1.918 . S
Fe69 O70 2.002 . S
Fe69 O79 1.976 . S
Fe69 O83 1.996 . S
Fe69 O86 1.997 . S
O70 Fe69 2.002 . S
O70 C87 1.295 . S
O71 Fe66 1.997 . S
O71 C87 1.235 . S
O72 Fe66 2.002 . S
O72 C73 1.295 . S
C73 O72 1.295 . S
C73 O75 1.235 . S
C74 O79 1.287 . S
C74 O80 1.255 . S
O75 Fe67 1.997 . S
O75 C73 1.235 . S
C76 O82 1.287 . S
C76 O83 1.255 . S
O77 Fe66 1.976 . S
O77 C84 1.287 . S
O78 Fe67 1.996 . S
O78 C84 1.255 . S
O79 Fe69 1.976 . S
O79 C74 1.287 . S
O80 Fe66 1.996 . S
O80 C74 1.255 . S
C81 O85 1.295 . S
C81 O86 1.235 . S
O82 Fe67 1.976 . S
O82 C76 1.287 . S
O83 Fe69 1.996 . S
O83 C76 1.255 . S
C84 O77 1.287 . S
C84 O78 1.255 . S
O85 Fe67 2.002 . S
O85 C81 1.295 . S
O86 Fe69 1.997 . S
O86 C81 1.235 . S
C87 O70 1.295 . S
C87 O71 1.235 . S
Fe88 O90 1.918 . S
Fe88 O93 1.997 1_565 S
Fe88 O94 2.002 1_565 S
Fe88 O99 1.976 . S
Fe88 O102 1.996 . S
Fe89 O90 1.918 . S
Fe89 O97 1.997 1_565 S
Fe89 O100 1.996 . S
Fe89 O104 1.976 . S
Fe89 O107 2.002 1_565 S
O90 Fe88 1.918 . S
O90 Fe89 1.918 . S
O90 Fe91 1.918 . S
Fe91 O90 1.918 . S
Fe91 O92 2.002 . S
Fe91 O101 1.976 . S
Fe91 O105 1.996 . S
Fe91 O108 1.997 . S
O92 Fe91 2.002 . S
O92 C109 1.295 1_565 S
O93 Fe88 1.997 1_545 S
O93 C109 1.235 . S
O94 Fe88 2.002 1_545 S
O94 C95 1.295 . S
C95 O94 1.295 . S
C95 O97 1.235 . S
C96 O101 1.287 . S
C96 O102 1.255 . S
O97 Fe89 1.997 1_545 S
O97 C95 1.235 . S
C98 O104 1.287 . S
C98 O105 1.255 . S
O99 Fe88 1.976 . S
O99 C106 1.287 . S
O100 Fe89 1.996 . S
O100 C106 1.255 . S
O101 Fe91 1.976 . S
O101 C96 1.287 . S
O102 Fe88 1.996 . S
O102 C96 1.255 . S
C103 O107 1.295 . S
C103 O108 1.235 1_545 S
O104 Fe89 1.976 . S
O104 C98 1.287 . S
O105 Fe91 1.996 . S
O105 C98 1.255 . S
C106 O99 1.287 . S
C106 O100 1.255 . S
O107 Fe89 2.002 1_545 S
O107 C103 1.295 . S
O108 Fe91 1.997 . S
O108 C103 1.235 1_565 S
C109 O92 1.295 1_545 S
C109 O93 1.235 . S
Fe110 O112 1.918 . S
Fe110 O115 1.997 1_455 S
Fe110 O116 2.002 1_455 S
Fe110 O121 1.976 . S
Fe110 O124 1.996 . S
Fe111 O112 1.918 . S
Fe111 O119 1.997 1_455 S
Fe111 O122 1.996 . S
Fe111 O126 1.976 . S
Fe111 O129 2.002 1_455 S
O112 Fe110 1.918 . S
O112 Fe111 1.918 . S
O112 Fe113 1.918 . S
Fe113 O112 1.918 . S
Fe113 O114 2.002 . S
Fe113 O123 1.976 . S
Fe113 O127 1.996 . S
Fe113 O130 1.998 . S
O114 Fe113 2.002 . S
O114 C131 1.295 1_455 S
O115 Fe110 1.997 1_655 S
O115 C131 1.235 . S
O116 Fe110 2.002 1_655 S
O116 C117 1.295 . S
C117 O116 1.295 . S
C117 O119 1.235 . S
C118 O123 1.287 . S
C118 O124 1.255 . S
O119 Fe111 1.997 1_655 S
O119 C117 1.235 . S
C120 O126 1.287 . S
C120 O127 1.255 . S
O121 Fe110 1.976 . S
O121 C128 1.287 . S
O122 Fe111 1.996 . S
O122 C128 1.255 . S
O123 Fe113 1.976 . S
O123 C118 1.287 . S
O124 Fe110 1.996 . S
O124 C118 1.255 . S
C125 O129 1.295 . S
C125 O130 1.234 1_655 S
O126 Fe111 1.976 . S
O126 C120 1.287 . S
O127 Fe113 1.996 . S
O127 C120 1.255 . S
C128 O121 1.287 . S
C128 O122 1.255 . S
O129 Fe111 2.002 1_655 S
O129 C125 1.295 . S
O130 Fe113 1.998 . S
O130 C125 1.234 1_455 S
C131 O114 1.295 1_655 S
C131 O115 1.235 . S
Fe132 O134 1.918 . S
Fe132 O137 1.997 . S
Fe132 O138 2.002 . S
Fe132 O143 1.976 . S
Fe132 O146 1.996 . S
Fe133 O134 1.918 . S
Fe133 O141 1.997 . S
Fe133 O144 1.996 . S
Fe133 O148 1.976 . S
Fe133 O151 2.002 . S
O134 Fe132 1.918 . S
O134 Fe133 1.918 . S
O134 Fe135 1.918 . S
Fe135 O134 1.918 . S
Fe135 O136 2.002 . S
Fe135 O145 1.976 . S
Fe135 O149 1.996 . S
Fe135 O152 1.997 . S
O136 Fe135 2.002 . S
O136 C153 1.295 . S
O137 Fe132 1.997 . S
O137 C153 1.235 . S
O138 Fe132 2.002 . S
O138 C139 1.295 . S
C139 O138 1.295 . S
C139 O141 1.235 . S
C140 O145 1.287 . S
C140 O146 1.255 . S
O141 Fe133 1.997 . S
O141 C139 1.235 . S
C142 O148 1.287 . S
C142 O149 1.255 . S
O143 Fe132 1.976 . S
O143 C150 1.287 . S
O144 Fe133 1.996 . S
O144 C150 1.255 . S
O145 Fe135 1.976 . S
O145 C140 1.287 . S
O146 Fe132 1.996 . S
O146 C140 1.255 . S
C147 O151 1.295 . S
C147 O152 1.235 . S
O148 Fe133 1.976 . S
O148 C142 1.287 . S
O149 Fe135 1.996 . S
O149 C142 1.255 . S
C150 O143 1.287 . S
C150 O144 1.255 . S
O151 Fe133 2.002 . S
O151 C147 1.295 . S
O152 Fe135 1.997 . S
O152 C147 1.235 . S
C153 O136 1.295 . S
C153 O137 1.235 . S
Fe154 O156 1.918 . S
Fe154 O159 1.997 1_565 S
Fe154 O160 2.002 1_565 S
Fe154 O165 1.976 . S
Fe154 O168 1.996 . S
Fe155 O156 1.918 . S
Fe155 O163 1.997 1_565 S
Fe155 O166 1.996 . S
Fe155 O170 1.976 . S
Fe155 O173 2.002 1_565 S
O156 Fe154 1.918 . S
O156 Fe155 1.918 . S
O156 Fe157 1.918 . S
Fe157 O156 1.918 . S
Fe157 O158 2.002 . S
Fe157 O167 1.976 . S
Fe157 O171 1.996 . S
Fe157 O174 1.998 . S
O158 Fe157 2.002 . S
O158 C175 1.295 1_565 S
O159 Fe154 1.997 1_545 S
O159 C175 1.235 . S
O160 Fe154 2.002 1_545 S
O160 C161 1.295 . S
C161 O160 1.295 . S
C161 O163 1.235 . S
C162 O167 1.287 . S
C162 O168 1.255 . S
O163 Fe155 1.997 1_545 S
O163 C161 1.235 . S
C164 O170 1.287 . S
C164 O171 1.255 . S
O165 Fe154 1.976 . S
O165 C172 1.287 . S
O166 Fe155 1.996 . S
O166 C172 1.255 . S
O167 Fe157 1.976 . S
O167 C162 1.287 . S
O168 Fe154 1.996 . S
O168 C162 1.255 . S
C169 O173 1.295 . S
C169 O174 1.234 1_545 S
O170 Fe155 1.976 . S
O170 C164 1.287 . S
O171 Fe157 1.996 . S
O171 C164 1.255 . S
C172 O165 1.287 . S
C172 O166 1.255 . S
O173 Fe155 2.002 1_545 S
O173 C169 1.295 . S
O174 Fe157 1.998 . S
O174 C169 1.234 1_565 S
C175 O158 1.295 1_545 S
C175 O159 1.235 . S
Fe176 O178 1.918 . S
Fe176 O181 1.997 1_455 S
Fe176 O182 2.002 1_455 S
Fe176 O187 1.976 . S
Fe176 O190 1.996 . S
Fe177 O178 1.918 . S
Fe177 O185 1.997 . S
Fe177 O188 1.996 . S
Fe177 O192 1.976 . S
Fe177 O195 2.002 . S
O178 Fe176 1.918 . S
O178 Fe177 1.918 . S
O178 Fe179 1.918 . S
Fe179 O178 1.918 . S
Fe179 O180 2.002 1_455 S
Fe179 O189 1.976 . S
Fe179 O193 1.996 . S
Fe179 O196 1.997 1_455 S
O180 Fe179 2.002 1_655 S
O180 C197 1.295 . S
O181 Fe176 1.997 1_655 S
O181 C197 1.235 . S
O182 Fe176 2.002 1_655 S
O182 C183 1.295 . S
C183 O182 1.295 . S
C183 O185 1.235 1_655 S
C184 O189 1.287 . S
C184 O190 1.255 . S
O185 Fe177 1.997 . S
O185 C183 1.235 1_455 S
C186 O192 1.287 . S
C186 O193 1.255 . S
O187 Fe176 1.976 . S
O187 C194 1.287 . S
O188 Fe177 1.996 . S
O188 C194 1.255 . S
O189 Fe179 1.976 . S
O189 C184 1.287 . S
O190 Fe176 1.996 . S
O190 C184 1.255 . S
C191 O195 1.295 1_655 S
C191 O196 1.235 . S
O192 Fe177 1.976 . S
O192 C186 1.287 . S
O193 Fe179 1.996 . S
O193 C186 1.255 . S
C194 O187 1.287 . S
C194 O188 1.255 . S
O195 Fe177 2.002 . S
O195 C191 1.295 1_455 S
O196 Fe179 1.997 1_655 S
O196 C191 1.235 . S
C197 O180 1.295 . S
C197 O181 1.235 . S
Fe198 O200 1.918 . S
Fe198 O203 1.997 . S
Fe198 O204 2.002 . S
Fe198 O209 1.976 . S
Fe198 O212 1.996 . S
Fe199 O200 1.918 . S
Fe199 O207 1.997 . S
Fe199 O210 1.996 . S
Fe199 O214 1.976 . S
Fe199 O217 2.002 . S
O200 Fe198 1.918 . S
O200 Fe199 1.918 . S
O200 Fe201 1.918 . S
Fe201 O200 1.918 . S
Fe201 O202 2.002 . S
Fe201 O211 1.976 . S
Fe201 O215 1.996 . S
Fe201 O218 1.997 . S
O202 Fe201 2.002 . S
O202 C219 1.295 . S
O203 Fe198 1.997 . S
O203 C219 1.235 . S
O204 Fe198 2.002 . S
O204 C205 1.295 . S
C205 O204 1.295 . S
C205 O207 1.235 . S
C206 O211 1.287 . S
C206 O212 1.255 . S
O207 Fe199 1.997 . S
O207 C205 1.235 . S
C208 O214 1.287 . S
C208 O215 1.255 . S
O209 Fe198 1.976 . S
O209 C216 1.287 . S
O210 Fe199 1.996 . S
O210 C216 1.255 . S
O211 Fe201 1.976 . S
O211 C206 1.287 . S
O212 Fe198 1.996 . S
O212 C206 1.255 . S
C213 O217 1.295 . S
C213 O218 1.235 . S
O214 Fe199 1.976 . S
O214 C208 1.287 . S
O215 Fe201 1.996 . S
O215 C208 1.255 . S
C216 O209 1.287 . S
C216 O210 1.255 . S
O217 Fe199 2.002 . S
O217 C213 1.295 . S
O218 Fe201 1.997 . S
O218 C213 1.235 . S
C219 O202 1.295 . S
C219 O203 1.235 . S
Fe220 O222 1.918 . S
Fe220 O225 1.997 1_545 S
Fe220 O226 2.002 1_545 S
Fe220 O231 1.976 . S
Fe220 O234 1.996 . S
Fe221 O222 1.918 . S
Fe221 O229 1.997 1_545 S
Fe221 O232 1.996 . S
Fe221 O236 1.976 . S
Fe221 O239 2.002 1_545 S
O222 Fe220 1.918 . S
O222 Fe221 1.918 . S
O222 Fe223 1.918 . S
Fe223 O222 1.918 . S
Fe223 O224 2.002 . S
Fe223 O233 1.976 . S
Fe223 O237 1.996 . S
Fe223 O240 1.997 . S
O224 Fe223 2.002 . S
O224 C241 1.295 1_545 S
O225 Fe220 1.997 1_565 S
O225 C241 1.235 . S
O226 Fe220 2.002 1_565 S
O226 C227 1.295 . S
C227 O226 1.295 . S
C227 O229 1.235 . S
C228 O233 1.287 . S
C228 O234 1.255 . S
O229 Fe221 1.997 1_565 S
O229 C227 1.235 . S
C230 O236 1.287 . S
C230 O237 1.255 . S
O231 Fe220 1.976 . S
O231 C238 1.287 . S
O232 Fe221 1.996 . S
O232 C238 1.255 . S
O233 Fe223 1.976 . S
O233 C228 1.287 . S
O234 Fe220 1.996 . S
O234 C228 1.255 . S
C235 O239 1.295 . S
C235 O240 1.235 1_565 S
O236 Fe221 1.976 . S
O236 C230 1.287 . S
O237 Fe223 1.996 . S
O237 C230 1.255 . S
C238 O231 1.287 . S
C238 O232 1.255 . S
O239 Fe221 2.002 1_565 S
O239 C235 1.295 . S
O240 Fe223 1.997 . S
O240 C235 1.235 1_545 S
C241 O224 1.295 1_565 S
C241 O225 1.235 . S
Fe242 O244 1.918 . S
Fe242 O247 1.997 1_655 S
Fe242 O248 2.002 1_655 S
Fe242 O253 1.976 . S
Fe242 O256 1.996 . S
Fe243 O244 1.918 . S
Fe243 O251 1.997 1_655 S
Fe243 O254 1.996 . S
Fe243 O258 1.976 . S
Fe243 O261 2.002 1_655 S
O244 Fe242 1.918 . S
O244 Fe243 1.918 . S
O244 Fe245 1.918 . S
Fe245 O244 1.918 . S
Fe245 O246 2.002 . S
Fe245 O255 1.976 . S
Fe245 O259 1.996 . S
Fe245 O262 1.998 . S
O246 Fe245 2.002 . S
O246 C263 1.295 1_655 S
O247 Fe242 1.997 1_455 S
O247 C263 1.235 . S
O248 Fe242 2.002 1_455 S
O248 C249 1.295 . S
C249 O248 1.295 . S
C249 O251 1.235 . S
C250 O255 1.287 . S
C250 O256 1.255 . S
O251 Fe243 1.997 1_455 S
O251 C249 1.235 . S
C252 O258 1.287 . S
C252 O259 1.255 . S
O253 Fe242 1.976 . S
O253 C260 1.287 . S
O254 Fe243 1.996 . S
O254 C260 1.255 . S
O255 Fe245 1.976 . S
O255 C250 1.287 . S
O256 Fe242 1.996 . S
O256 C250 1.255 . S
C257 O261 1.295 . S
C257 O262 1.234 1_455 S
O258 Fe243 1.976 . S
O258 C252 1.287 . S
O259 Fe245 1.996 . S
O259 C252 1.255 . S
C260 O253 1.287 . S
C260 O254 1.255 . S
O261 Fe243 2.002 1_455 S
O261 C257 1.295 . S
O262 Fe245 1.998 . S
O262 C257 1.234 1_655 S
C263 O246 1.295 1_455 S
C263 O247 1.235 . S
Fe264 O266 1.918 . S
Fe264 O269 1.997 . S
Fe264 O270 2.002 . S
Fe264 O275 1.976 . S
Fe264 O278 1.996 . S
Fe265 O266 1.918 . S
Fe265 O273 1.997 . S
Fe265 O276 1.996 . S
Fe265 O280 1.976 . S
Fe265 O283 2.002 . S
O266 Fe264 1.918 . S
O266 Fe265 1.918 . S
O266 Fe267 1.918 . S
Fe267 O266 1.918 . S
Fe267 O268 2.002 . S
Fe267 O277 1.976 . S
Fe267 O281 1.996 . S
Fe267 O284 1.997 . S
O268 Fe267 2.002 . S
O268 C285 1.295 . S
O269 Fe264 1.997 . S
O269 C285 1.235 . S
O270 Fe264 2.002 . S
O270 C271 1.295 . S
C271 O270 1.295 . S
C271 O273 1.235 . S
C272 O277 1.287 . S
C272 O278 1.255 . S
O273 Fe265 1.997 . S
O273 C271 1.235 . S
C274 O280 1.287 . S
C274 O281 1.255 . S
O275 Fe264 1.976 . S
O275 C282 1.287 . S
O276 Fe265 1.996 . S
O276 C282 1.255 . S
O277 Fe267 1.976 . S
O277 C272 1.287 . S
O278 Fe264 1.996 . S
O278 C272 1.255 . S
C279 O283 1.295 . S
C279 O284 1.235 . S
O280 Fe265 1.976 . S
O280 C274 1.287 . S
O281 Fe267 1.996 . S
O281 C274 1.255 . S
C282 O275 1.287 . S
C282 O276 1.255 . S
O283 Fe265 2.002 . S
O283 C279 1.295 . S
O284 Fe267 1.997 . S
O284 C279 1.235 . S
C285 O268 1.295 . S
C285 O269 1.235 . S
Fe286 O288 1.918 . S
Fe286 O291 1.997 . S
Fe286 O292 2.002 . S
Fe286 O297 1.976 . S
Fe286 O300 1.996 . S
Fe287 O288 1.918 . S
Fe287 O295 1.997 . S
Fe287 O298 1.996 . S
Fe287 O302 1.976 . S
Fe287 O305 2.002 . S
O288 Fe286 1.918 . S
O288 Fe287 1.918 . S
O288 Fe289 1.918 . S
Fe289 O288 1.918 . S
Fe289 O290 2.002 . S
Fe289 O299 1.976 . S
Fe289 O303 1.996 . S
Fe289 O306 1.997 . S
O290 Fe289 2.002 . S
O290 C307 1.295 . S
O291 Fe286 1.997 . S
O291 C307 1.235 . S
O292 Fe286 2.002 . S
O292 C293 1.295 . S
C293 O292 1.295 . S
C293 O295 1.235 . S
C294 O299 1.287 . S
C294 O300 1.255 . S
O295 Fe287 1.997 . S
O295 C293 1.235 . S
C296 O302 1.287 . S
C296 O303 1.255 . S
O297 Fe286 1.976 . S
O297 C304 1.287 . S
O298 Fe287 1.996 . S
O298 C304 1.255 . S
O299 Fe289 1.976 . S
O299 C294 1.287 . S
O300 Fe286 1.996 . S
O300 C294 1.255 . S
C301 O305 1.295 . S
C301 O306 1.235 . S
O302 Fe287 1.976 . S
O302 C296 1.287 . S
O303 Fe289 1.996 . S
O303 C296 1.255 . S
C304 O297 1.287 . S
C304 O298 1.255 . S
O305 Fe287 2.002 . S
O305 C301 1.295 . S
O306 Fe289 1.997 . S
O306 C301 1.235 . S
C307 O290 1.295 . S
C307 O291 1.235 . S
Fe308 O310 1.918 . S
Fe308 O313 1.997 . S
Fe308 O314 2.002 . S
Fe308 O319 1.976 . S
Fe308 O322 1.996 . S
Fe309 O310 1.918 . S
Fe309 O317 1.997 . S
Fe309 O320 1.996 . S
Fe309 O324 1.976 . S
Fe309 O327 2.002 . S
O310 Fe308 1.918 . S
O310 Fe309 1.918 . S
O310 Fe311 1.918 . S
Fe311 O310 1.918 . S
Fe311 O312 2.002 . S
Fe311 O321 1.976 . S
Fe311 O325 1.996 . S
Fe311 O328 1.997 . S
O312 Fe311 2.002 . S
O312 C329 1.295 . S
O313 Fe308 1.997 . S
O313 C329 1.235 . S
O314 Fe308 2.002 . S
O314 C315 1.295 . S
C315 O314 1.295 . S
C315 O317 1.235 . S
C316 O321 1.287 . S
C316 O322 1.255 . S
O317 Fe309 1.997 . S
O317 C315 1.235 . S
C318 O324 1.287 . S
C318 O325 1.255 . S
O319 Fe308 1.976 . S
O319 C326 1.287 . S
O320 Fe309 1.996 . S
O320 C326 1.255 . S
O321 Fe311 1.976 . S
O321 C316 1.287 . S
O322 Fe308 1.996 . S
O322 C316 1.255 . S
C323 O327 1.295 . S
C323 O328 1.235 . S
O324 Fe309 1.976 . S
O324 C318 1.287 . S
O325 Fe311 1.996 . S
O325 C318 1.255 . S
C326 O319 1.287 . S
C326 O320 1.255 . S
O327 Fe309 2.002 . S
O327 C323 1.295 . S
O328 Fe311 1.997 . S
O328 C323 1.235 . S
C329 O312 1.295 . S
C329 O313 1.235 . S
Fe330 O332 1.918 . S
Fe330 O335 1.997 . S
Fe330 O336 2.002 . S
Fe330 O341 1.976 . S
Fe330 O344 1.996 . S
Fe331 O332 1.918 . S
Fe331 O339 1.997 . S
Fe331 O342 1.996 . S
Fe331 O346 1.976 . S
Fe331 O349 2.002 . S
O332 Fe330 1.918 . S
O332 Fe331 1.918 . S
O332 Fe333 1.918 . S
Fe333 O332 1.918 . S
Fe333 O334 2.002 . S
Fe333 O343 1.976 . S
Fe333 O347 1.996 . S
Fe333 O350 1.997 . S
O334 Fe333 2.002 . S
O334 C351 1.295 . S
O335 Fe330 1.997 . S
O335 C351 1.235 . S
O336 Fe330 2.002 . S
O336 C337 1.295 . S
C337 O336 1.295 . S
C337 O339 1.235 . S
C338 O343 1.287 . S
C338 O344 1.255 . S
O339 Fe331 1.997 . S
O339 C337 1.235 . S
C340 O346 1.287 . S
C340 O347 1.255 . S
O341 Fe330 1.976 . S
O341 C348 1.287 . S
O342 Fe331 1.996 . S
O342 C348 1.255 . S
O343 Fe333 1.976 . S
O343 C338 1.287 . S
O344 Fe330 1.996 . S
O344 C338 1.255 . S
C345 O349 1.295 . S
C345 O350 1.235 . S
O346 Fe331 1.976 . S
O346 C340 1.287 . S
O347 Fe333 1.996 . S
O347 C340 1.255 . S
C348 O341 1.287 . S
C348 O342 1.255 . S
O349 Fe331 2.002 . S
O349 C345 1.295 . S
O350 Fe333 1.997 . S
O350 C345 1.235 . S
C351 O334 1.295 . S
C351 O335 1.235 . S
Fe352 O354 1.918 . S
Fe352 O357 1.997 . S
Fe352 O358 2.002 . S
Fe352 O363 1.976 . S
Fe352 O366 1.996 . S
Fe353 O354 1.918 . S
Fe353 O361 1.997 . S
Fe353 O364 1.996 . S
Fe353 O368 1.976 . S
Fe353 O371 2.002 . S
O354 Fe352 1.918 . S
O354 Fe353 1.918 . S
O354 Fe355 1.918 . S
Fe355 O354 1.918 . S
Fe355 O356 2.002 . S
Fe355 O365 1.976 . S
Fe355 O369 1.996 . S
Fe355 O372 1.997 . S
O356 Fe355 2.002 . S
O356 C373 1.295 . S
O357 Fe352 1.997 . S
O357 C373 1.235 . S
O358 Fe352 2.002 . S
O358 C359 1.295 . S
C359 O358 1.295 . S
C359 O361 1.235 . S
C360 O365 1.287 . S
C360 O366 1.255 . S
O361 Fe353 1.997 . S
O361 C359 1.235 . S
C362 O368 1.287 . S
C362 O369 1.255 . S
O363 Fe352 1.976 . S
O363 C370 1.287 . S
O364 Fe353 1.996 . S
O364 C370 1.255 . S
O365 Fe355 1.976 . S
O365 C360 1.287 . S
O366 Fe352 1.996 . S
O366 C360 1.255 . S
C367 O371 1.295 . S
C367 O372 1.235 . S
O368 Fe353 1.976 . S
O368 C362 1.287 . S
O369 Fe355 1.996 . S
O369 C362 1.255 . S
C370 O363 1.287 . S
C370 O364 1.255 . S
O371 Fe353 2.002 . S
O371 C367 1.295 . S
O372 Fe355 1.997 . S
O372 C367 1.235 . S
C373 O356 1.295 . S
C373 O357 1.235 . S
Fe374 O376 1.918 . S
Fe374 O379 1.997 . S
Fe374 O380 2.002 . S
Fe374 O385 1.976 . S
Fe374 O388 1.996 . S
Fe375 O376 1.918 . S
Fe375 O383 1.997 . S
Fe375 O386 1.996 . S
Fe375 O390 1.976 . S
Fe375 O393 2.002 . S
O376 Fe374 1.918 . S
O376 Fe375 1.918 . S
O376 Fe377 1.918 . S
Fe377 O376 1.918 . S
Fe377 O378 2.002 . S
Fe377 O387 1.976 . S
Fe377 O391 1.996 . S
Fe377 O394 1.997 . S
O378 Fe377 2.002 . S
O378 C395 1.295 . S
O379 Fe374 1.997 . S
O379 C395 1.235 . S
O380 Fe374 2.002 . S
O380 C381 1.295 . S
C381 O380 1.295 . S
C381 O383 1.235 . S
C382 O387 1.287 . S
C382 O388 1.255 . S
O383 Fe375 1.997 . S
O383 C381 1.235 . S
C384 O390 1.287 . S
C384 O391 1.255 . S
O385 Fe374 1.976 . S
O385 C392 1.287 . S
O386 Fe375 1.996 . S
O386 C392 1.255 . S
O387 Fe377 1.976 . S
O387 C382 1.287 . S
O388 Fe374 1.996 . S
O388 C382 1.255 . S
C389 O393 1.295 . S
C389 O394 1.235 . S
O390 Fe375 1.976 . S
O390 C384 1.287 . S
O391 Fe377 1.996 . S
O391 C384 1.255 . S
C392 O385 1.287 . S
C392 O386 1.255 . S
O393 Fe375 2.002 . S
O393 C389 1.295 . S
O394 Fe377 1.997 . S
O394 C389 1.235 . S
C395 O378 1.295 . S
C395 O379 1.235 . S
Fe396 O398 1.918 . S
Fe396 O401 1.997 . S
Fe396 O402 2.002 . S
Fe396 O407 1.976 . S
Fe396 O410 1.996 . S
Fe397 O398 1.918 . S
Fe397 O405 1.997 . S
Fe397 O408 1.996 . S
Fe397 O412 1.976 . S
Fe397 O415 2.002 . S
O398 Fe396 1.918 . S
O398 Fe397 1.918 . S
O398 Fe399 1.918 . S
Fe399 O398 1.918 . S
Fe399 O400 2.002 . S
Fe399 O409 1.976 . S
Fe399 O413 1.996 . S
Fe399 O416 1.997 . S
O400 Fe399 2.002 . S
O400 C417 1.295 . S
O401 Fe396 1.997 . S
O401 C417 1.235 . S
O402 Fe396 2.002 . S
O402 C403 1.295 . S
C403 O402 1.295 . S
C403 O405 1.235 . S
C404 O409 1.287 . S
C404 O410 1.255 . S
O405 Fe397 1.997 . S
O405 C403 1.235 . S
C406 O412 1.287 . S
C406 O413 1.255 . S
O407 Fe396 1.976 . S
O407 C414 1.287 . S
O408 Fe397 1.996 . S
O408 C414 1.255 . S
O409 Fe399 1.976 . S
O409 C404 1.287 . S
O410 Fe396 1.996 . S
O410 C404 1.255 . S
C411 O415 1.295 . S
C411 O416 1.235 . S
O412 Fe397 1.976 . S
O412 C406 1.287 . S
O413 Fe399 1.996 . S
O413 C406 1.255 . S
C414 O407 1.287 . S
C414 O408 1.255 . S
O415 Fe397 2.002 . S
O415 C411 1.295 . S
O416 Fe399 1.997 . S
O416 C411 1.235 . S
C417 O400 1.295 . S
C417 O401 1.235 . S
Fe418 O420 1.918 . S
Fe418 O423 1.997 . S
Fe418 O424 2.002 . S
Fe418 O429 1.976 . S
Fe418 O432 1.996 . S
Fe419 O420 1.918 . S
Fe419 O427 1.997 . S
Fe419 O430 1.996 . S
Fe419 O434 1.976 . S
Fe419 O437 2.002 . S
O420 Fe418 1.918 . S
O420 Fe419 1.918 . S
O420 Fe421 1.918 . S
Fe421 O420 1.918 . S
Fe421 O422 2.002 . S
Fe421 O431 1.976 . S
Fe421 O435 1.996 . S
Fe421 O438 1.997 . S
O422 Fe421 2.002 . S
O422 C439 1.295 . S
O423 Fe418 1.997 . S
O423 C439 1.235 . S
O424 Fe418 2.002 . S
O424 C425 1.295 . S
C425 O424 1.295 . S
C425 O427 1.235 . S
C426 O431 1.287 . S
C426 O432 1.255 . S
O427 Fe419 1.997 . S
O427 C425 1.235 . S
C428 O434 1.287 . S
C428 O435 1.255 . S
O429 Fe418 1.976 . S
O429 C436 1.287 . S
O430 Fe419 1.996 . S
O430 C436 1.255 . S
O431 Fe421 1.976 . S
O431 C426 1.287 . S
O432 Fe418 1.996 . S
O432 C426 1.255 . S
C433 O437 1.295 . S
C433 O438 1.235 . S
O434 Fe419 1.976 . S
O434 C428 1.287 . S
O435 Fe421 1.996 . S
O435 C428 1.255 . S
C436 O429 1.287 . S
C436 O430 1.255 . S
O437 Fe419 2.002 . S
O437 C433 1.295 . S
O438 Fe421 1.997 . S
O438 C433 1.235 . S
C439 O422 1.295 . S
C439 O423 1.235 . S
Fe440 O442 1.918 . S
Fe440 O445 1.997 . S
Fe440 O446 2.002 . S
Fe440 O451 1.976 . S
Fe440 O454 1.996 . S
Fe441 O442 1.918 . S
Fe441 O449 1.997 . S
Fe441 O452 1.996 . S
Fe441 O456 1.976 . S
Fe441 O459 2.002 . S
O442 Fe440 1.918 . S
O442 Fe441 1.918 . S
O442 Fe443 1.918 . S
Fe443 O442 1.918 . S
Fe443 O444 2.002 . S
Fe443 O453 1.976 . S
Fe443 O457 1.996 . S
Fe443 O460 1.997 . S
O444 Fe443 2.002 . S
O444 C461 1.295 . S
O445 Fe440 1.997 . S
O445 C461 1.235 . S
O446 Fe440 2.002 . S
O446 C447 1.295 . S
C447 O446 1.295 . S
C447 O449 1.235 . S
C448 O453 1.287 . S
C448 O454 1.255 . S
O449 Fe441 1.997 . S
O449 C447 1.235 . S
C450 O456 1.287 . S
C450 O457 1.255 . S
O451 Fe440 1.976 . S
O451 C458 1.287 . S
O452 Fe441 1.996 . S
O452 C458 1.255 . S
O453 Fe443 1.976 . S
O453 C448 1.287 . S
O454 Fe440 1.996 . S
O454 C448 1.255 . S
C455 O459 1.295 . S
C455 O460 1.235 . S
O456 Fe441 1.976 . S
O456 C450 1.287 . S
O457 Fe443 1.996 . S
O457 C450 1.255 . S
C458 O451 1.287 . S
C458 O452 1.255 . S
O459 Fe441 2.002 . S
O459 C455 1.295 . S
O460 Fe443 1.997 . S
O460 C455 1.235 . S
C461 O444 1.295 . S
C461 O445 1.235 . S
Fe462 O464 1.918 . S
Fe462 O467 1.997 . S
Fe462 O468 2.002 . S
Fe462 O473 1.976 . S
Fe462 O476 1.996 . S
Fe463 O464 1.918 . S
Fe463 O471 1.997 . S
Fe463 O474 1.996 . S
Fe463 O478 1.976 . S
Fe463 O481 2.002 . S
O464 Fe462 1.918 . S
O464 Fe463 1.918 . S
O464 Fe465 1.918 . S
Fe465 O464 1.918 . S
Fe465 O466 2.002 . S
Fe465 O475 1.976 . S
Fe465 O479 1.996 . S
Fe465 O482 1.997 . S
O466 Fe465 2.002 . S
O466 C483 1.295 . S
O467 Fe462 1.997 . S
O467 C483 1.235 . S
O468 Fe462 2.002 . S
O468 C469 1.295 . S
C469 O468 1.295 . S
C469 O471 1.235 . S
C470 O475 1.287 . S
C470 O476 1.255 . S
O471 Fe463 1.997 . S
O471 C469 1.235 . S
C472 O478 1.287 . S
C472 O479 1.255 . S
O473 Fe462 1.976 . S
O473 C480 1.287 . S
O474 Fe463 1.996 . S
O474 C480 1.255 . S
O475 Fe465 1.976 . S
O475 C470 1.287 . S
O476 Fe462 1.996 . S
O476 C470 1.255 . S
C477 O481 1.295 . S
C477 O482 1.235 . S
O478 Fe463 1.976 . S
O478 C472 1.287 . S
O479 Fe465 1.996 . S
O479 C472 1.255 . S
C480 O473 1.287 . S
C480 O474 1.255 . S
O481 Fe463 2.002 . S
O481 C477 1.295 . S
O482 Fe465 1.997 . S
O482 C477 1.235 . S
C483 O466 1.295 . S
C483 O467 1.235 . S
Fe484 O486 1.918 . S
Fe484 O489 1.997 . S
Fe484 O490 2.002 . S
Fe484 O495 1.976 . S
Fe484 O498 1.996 . S
Fe485 O486 1.918 . S
Fe485 O493 1.997 . S
Fe485 O496 1.996 . S
Fe485 O500 1.976 . S
Fe485 O503 2.002 . S
O486 Fe484 1.918 . S
O486 Fe485 1.918 . S
O486 Fe487 1.918 . S
Fe487 O486 1.918 . S
Fe487 O488 2.002 . S
Fe487 O497 1.976 . S
Fe487 O501 1.996 . S
Fe487 O504 1.997 . S
O488 Fe487 2.002 . S
O488 C505 1.295 . S
O489 Fe484 1.997 . S
O489 C505 1.235 . S
O490 Fe484 2.002 . S
O490 C491 1.295 . S
C491 O490 1.295 . S
C491 O493 1.235 . S
C492 O497 1.287 . S
C492 O498 1.255 . S
O493 Fe485 1.997 . S
O493 C491 1.235 . S
C494 O500 1.287 . S
C494 O501 1.255 . S
O495 Fe484 1.976 . S
O495 C502 1.287 . S
O496 Fe485 1.996 . S
O496 C502 1.255 . S
O497 Fe487 1.976 . S
O497 C492 1.287 . S
O498 Fe484 1.996 . S
O498 C492 1.255 . S
C499 O503 1.295 . S
C499 O504 1.235 . S
O500 Fe485 1.976 . S
O500 C494 1.287 . S
O501 Fe487 1.996 . S
O501 C494 1.255 . S
C502 O495 1.287 . S
C502 O496 1.255 . S
O503 Fe485 2.002 . S
O503 C499 1.295 . S
O504 Fe487 1.997 . S
O504 C499 1.235 . S
C505 O488 1.295 . S
C505 O489 1.235 . S
Fe506 O508 1.918 . S
Fe506 O511 1.997 . S
Fe506 O512 2.002 . S
Fe506 O517 1.976 . S
Fe506 O520 1.996 . S
Fe507 O508 1.918 . S
Fe507 O515 1.997 . S
Fe507 O518 1.996 . S
Fe507 O522 1.976 . S
Fe507 O525 2.002 . S
O508 Fe506 1.918 . S
O508 Fe507 1.918 . S
O508 Fe509 1.918 . S
Fe509 O508 1.918 . S
Fe509 O510 2.002 . S
Fe509 O519 1.976 . S
Fe509 O523 1.996 . S
Fe509 O526 1.997 . S
O510 Fe509 2.002 . S
O510 C527 1.295 . S
O511 Fe506 1.997 . S
O511 C527 1.235 . S
O512 Fe506 2.002 . S
O512 C513 1.295 . S
C513 O512 1.295 . S
C513 O515 1.235 . S
C514 O519 1.287 . S
C514 O520 1.255 . S
O515 Fe507 1.997 . S
O515 C513 1.235 . S
C516 O522 1.287 . S
C516 O523 1.255 . S
O517 Fe506 1.976 . S
O517 C524 1.287 . S
O518 Fe507 1.996 . S
O518 C524 1.255 . S
O519 Fe509 1.976 . S
O519 C514 1.287 . S
O520 Fe506 1.996 . S
O520 C514 1.255 . S
C521 O525 1.295 . S
C521 O526 1.235 . S
O522 Fe507 1.976 . S
O522 C516 1.287 . S
O523 Fe509 1.996 . S
O523 C516 1.255 . S
C524 O517 1.287 . S
C524 O518 1.255 . S
O525 Fe507 2.002 . S
O525 C521 1.295 . S
O526 Fe509 1.997 . S
O526 C521 1.235 . S
C527 O510 1.295 . S
C527 O511 1.235 . S
Fe528 O530 1.918 . S
Fe528 O533 1.997 . S
Fe528 O534 2.002 . S
Fe528 O539 1.976 . S
Fe528 O542 1.996 . S
Fe529 O530 1.918 . S
Fe529 O537 1.997 . S
Fe529 O540 1.996 . S
Fe529 O544 1.976 . S
Fe529 O547 2.002 . S
O530 Fe528 1.918 . S
O530 Fe529 1.918 . S
O530 Fe531 1.918 . S
Fe531 O530 1.918 . S
Fe531 O532 2.002 . S
Fe531 O541 1.976 . S
Fe531 O545 1.996 . S
Fe531 O548 1.997 . S
O532 Fe531 2.002 . S
O532 C549 1.295 . S
O533 Fe528 1.997 . S
O533 C549 1.235 . S
O534 Fe528 2.002 . S
O534 C535 1.295 . S
C535 O534 1.295 . S
C535 O537 1.235 . S
C536 O541 1.287 . S
C536 O542 1.255 . S
O537 Fe529 1.997 . S
O537 C535 1.235 . S
C538 O544 1.287 . S
C538 O545 1.255 . S
O539 Fe528 1.976 . S
O539 C546 1.287 . S
O540 Fe529 1.996 . S
O540 C546 1.255 . S
O541 Fe531 1.976 . S
O541 C536 1.287 . S
O542 Fe528 1.996 . S
O542 C536 1.255 . S
C543 O547 1.295 . S
C543 O548 1.235 . S
O544 Fe529 1.976 . S
O544 C538 1.287 . S
O545 Fe531 1.996 . S
O545 C538 1.255 . S
C546 O539 1.287 . S
C546 O540 1.255 . S
O547 Fe529 2.002 . S
O547 C543 1.295 . S
O548 Fe531 1.997 . S
O548 C543 1.235 . S
C549 O532 1.295 . S
C549 O533 1.235 . S
Fe550 O552 1.918 . S
Fe550 O555 1.997 . S
Fe550 O556 2.002 . S
Fe550 O561 1.976 . S
Fe550 O564 1.996 . S
Fe551 O552 1.918 . S
Fe551 O559 1.997 . S
Fe551 O562 1.996 . S
Fe551 O566 1.976 . S
Fe551 O569 2.002 . S
O552 Fe550 1.918 . S
O552 Fe551 1.918 . S
O552 Fe553 1.918 . S
Fe553 O552 1.918 . S
Fe553 O554 2.002 . S
Fe553 O563 1.976 . S
Fe553 O567 1.996 . S
Fe553 O570 1.997 . S
O554 Fe553 2.002 . S
O554 C571 1.295 . S
O555 Fe550 1.997 . S
O555 C571 1.235 . S
O556 Fe550 2.002 . S
O556 C557 1.295 . S
C557 O556 1.295 . S
C557 O559 1.235 . S
C558 O563 1.287 . S
C558 O564 1.255 . S
O559 Fe551 1.997 . S
O559 C557 1.235 . S
C560 O566 1.287 . S
C560 O567 1.255 . S
O561 Fe550 1.976 . S
O561 C568 1.287 . S
O562 Fe551 1.996 . S
O562 C568 1.255 . S
O563 Fe553 1.976 . S
O563 C558 1.287 . S
O564 Fe550 1.996 . S
O564 C558 1.255 . S
C565 O569 1.295 . S
C565 O570 1.235 . S
O566 Fe551 1.976 . S
O566 C560 1.287 . S
O567 Fe553 1.996 . S
O567 C560 1.255 . S
C568 O561 1.287 . S
C568 O562 1.255 . S
O569 Fe551 2.002 . S
O569 C565 1.295 . S
O570 Fe553 1.997 . S
O570 C565 1.235 . S
C571 O554 1.295 . S
C571 O555 1.235 . S
Fe572 O574 1.918 . S
Fe572 O577 1.997 . S
Fe572 O578 2.002 . S
Fe572 O583 1.976 . S
Fe572 O586 1.996 . S
Fe573 O574 1.918 . S
Fe573 O581 1.997 . S
Fe573 O584 1.996 . S
Fe573 O588 1.976 . S
Fe573 O591 2.002 . S
O574 Fe572 1.918 . S
O574 Fe573 1.918 . S
O574 Fe575 1.918 . S
Fe575 O574 1.918 . S
Fe575 O576 2.002 . S
Fe575 O585 1.976 . S
Fe575 O589 1.996 . S
Fe575 O592 1.997 . S
O576 Fe575 2.002 . S
O576 C593 1.295 . S
O577 Fe572 1.997 . S
O577 C593 1.235 . S
O578 Fe572 2.002 . S
O578 C579 1.295 . S
C579 O578 1.295 . S
C579 O581 1.235 . S
C580 O585 1.287 . S
C580 O586 1.255 . S
O581 Fe573 1.997 . S
O581 C579 1.235 . S
C582 O588 1.287 . S
C582 O589 1.255 . S
O583 Fe572 1.976 . S
O583 C590 1.287 . S
O584 Fe573 1.996 . S
O584 C590 1.255 . S
O585 Fe575 1.976 . S
O585 C580 1.287 . S
O586 Fe572 1.996 . S
O586 C580 1.255 . S
C587 O591 1.295 . S
C587 O592 1.235 . S
O588 Fe573 1.976 . S
O588 C582 1.287 . S
O589 Fe575 1.996 . S
O589 C582 1.255 . S
C590 O583 1.287 . S
C590 O584 1.255 . S
O591 Fe573 2.002 . S
O591 C587 1.295 . S
O592 Fe575 1.997 . S
O592 C587 1.235 . S
C593 O576 1.295 . S
C593 O577 1.235 . S
Fe594 O596 1.918 . S
Fe594 O599 1.997 . S
Fe594 O600 2.002 . S
Fe594 O605 1.976 . S
Fe594 O608 1.996 . S
Fe595 O596 1.918 . S
Fe595 O603 1.997 . S
Fe595 O606 1.996 . S
Fe595 O610 1.976 . S
Fe595 O613 2.002 . S
O596 Fe594 1.918 . S
O596 Fe595 1.918 . S
O596 Fe597 1.918 . S
Fe597 O596 1.918 . S
Fe597 O598 2.002 . S
Fe597 O607 1.976 . S
Fe597 O611 1.996 . S
Fe597 O614 1.997 . S
O598 Fe597 2.002 . S
O598 C615 1.295 . S
O599 Fe594 1.997 . S
O599 C615 1.235 . S
O600 Fe594 2.002 . S
O600 C601 1.295 . S
C601 O600 1.295 . S
C601 O603 1.235 . S
C602 O607 1.287 . S
C602 O608 1.255 . S
O603 Fe595 1.997 . S
O603 C601 1.235 . S
C604 O610 1.287 . S
C604 O611 1.255 . S
O605 Fe594 1.976 . S
O605 C612 1.287 . S
O606 Fe595 1.996 . S
O606 C612 1.255 . S
O607 Fe597 1.976 . S
O607 C602 1.287 . S
O608 Fe594 1.996 . S
O608 C602 1.255 . S
C609 O613 1.295 . S
C609 O614 1.235 . S
O610 Fe595 1.976 . S
O610 C604 1.287 . S
O611 Fe597 1.996 . S
O611 C604 1.255 . S
C612 O605 1.287 . S
C612 O606 1.255 . S
O613 Fe595 2.002 . S
O613 C609 1.295 . S
O614 Fe597 1.997 . S
O614 C609 1.235 . S
C615 O598 1.295 . S
C615 O599 1.235 . S
Fe616 O618 1.918 . S
Fe616 O621 1.997 . S
Fe616 O622 2.002 . S
Fe616 O627 1.976 . S
Fe616 O630 1.996 . S
Fe617 O618 1.918 . S
Fe617 O625 1.997 . S
Fe617 O628 1.996 . S
Fe617 O632 1.976 . S
Fe617 O635 2.002 . S
O618 Fe616 1.918 . S
O618 Fe617 1.918 . S
O618 Fe619 1.918 . S
Fe619 O618 1.918 . S
Fe619 O620 2.002 . S
Fe619 O629 1.976 . S
Fe619 O633 1.996 . S
Fe619 O636 1.997 . S
O620 Fe619 2.002 . S
O620 C637 1.295 . S
O621 Fe616 1.997 . S
O621 C637 1.235 . S
O622 Fe616 2.002 . S
O622 C623 1.295 . S
C623 O622 1.295 . S
C623 O625 1.235 . S
C624 O629 1.287 . S
C624 O630 1.255 . S
O625 Fe617 1.997 . S
O625 C623 1.235 . S
C626 O632 1.287 . S
C626 O633 1.255 . S
O627 Fe616 1.976 . S
O627 C634 1.287 . S
O628 Fe617 1.996 . S
O628 C634 1.255 . S
O629 Fe619 1.976 . S
O629 C624 1.287 . S
O630 Fe616 1.996 . S
O630 C624 1.255 . S
C631 O635 1.295 . S
C631 O636 1.235 . S
O632 Fe617 1.976 . S
O632 C626 1.287 . S
O633 Fe619 1.996 . S
O633 C626 1.255 . S
C634 O627 1.287 . S
C634 O628 1.255 . S
O635 Fe617 2.002 . S
O635 C631 1.295 . S
O636 Fe619 1.997 . S
O636 C631 1.235 . S
C637 O620 1.295 . S
C637 O621 1.235 . S
Fe638 O640 1.918 . S
Fe638 O643 1.997 . S
Fe638 O644 2.002 . S
Fe638 O649 1.976 . S
Fe638 O652 1.996 . S
Fe639 O640 1.918 . S
Fe639 O647 1.997 . S
Fe639 O650 1.996 . S
Fe639 O654 1.976 . S
Fe639 O657 2.002 . S
O640 Fe638 1.918 . S
O640 Fe639 1.918 . S
O640 Fe641 1.918 . S
Fe641 O640 1.918 . S
Fe641 O642 2.002 . S
Fe641 O651 1.976 . S
Fe641 O655 1.996 . S
Fe641 O658 1.997 . S
O642 Fe641 2.002 . S
O642 C659 1.295 . S
O643 Fe638 1.997 . S
O643 C659 1.235 . S
O644 Fe638 2.002 . S
O644 C645 1.295 . S
C645 O644 1.295 . S
C645 O647 1.235 . S
C646 O651 1.287 . S
C646 O652 1.255 . S
O647 Fe639 1.997 . S
O647 C645 1.235 . S
C648 O654 1.287 . S
C648 O655 1.255 . S
O649 Fe638 1.976 . S
O649 C656 1.287 . S
O650 Fe639 1.996 . S
O650 C656 1.255 . S
O651 Fe641 1.976 . S
O651 C646 1.287 . S
O652 Fe638 1.996 . S
O652 C646 1.255 . S
C653 O657 1.295 . S
C653 O658 1.235 . S
O654 Fe639 1.976 . S
O654 C648 1.287 . S
O655 Fe641 1.996 . S
O655 C648 1.255 . S
C656 O649 1.287 . S
C656 O650 1.255 . S
O657 Fe639 2.002 . S
O657 C653 1.295 . S
O658 Fe641 1.997 . S
O658 C653 1.235 . S
C659 O642 1.295 . S
C659 O643 1.235 . S
Fe660 O662 1.918 . S
Fe660 O665 1.997 . S
Fe660 O666 2.002 . S
Fe660 O671 1.976 . S
Fe660 O674 1.996 . S
Fe661 O662 1.918 . S
Fe661 O669 1.997 . S
Fe661 O672 1.996 . S
Fe661 O676 1.976 . S
Fe661 O679 2.002 . S
O662 Fe660 1.918 . S
O662 Fe661 1.918 . S
O662 Fe663 1.918 . S
Fe663 O662 1.918 . S
Fe663 O664 2.002 . S
Fe663 O673 1.976 . S
Fe663 O677 1.996 . S
Fe663 O680 1.997 . S
O664 Fe663 2.002 . S
O664 C681 1.295 . S
O665 Fe660 1.997 . S
O665 C681 1.235 . S
O666 Fe660 2.002 . S
O666 C667 1.295 . S
C667 O666 1.295 . S
C667 O669 1.235 . S
C668 O673 1.287 . S
C668 O674 1.255 . S
O669 Fe661 1.997 . S
O669 C667 1.235 . S
C670 O676 1.287 . S
C670 O677 1.255 . S
O671 Fe660 1.976 . S
O671 C678 1.287 . S
O672 Fe661 1.996 . S
O672 C678 1.255 . S
O673 Fe663 1.976 . S
O673 C668 1.287 . S
O674 Fe660 1.996 . S
O674 C668 1.255 . S
C675 O679 1.295 . S
C675 O680 1.235 . S
O676 Fe661 1.976 . S
O676 C670 1.287 . S
O677 Fe663 1.996 . S
O677 C670 1.255 . S
C678 O671 1.287 . S
C678 O672 1.255 . S
O679 Fe661 2.002 . S
O679 C675 1.295 . S
O680 Fe663 1.997 . S
O680 C675 1.235 . S
C681 O664 1.295 . S
C681 O665 1.235 . S
Fe682 O684 1.918 . S
Fe682 O687 1.997 . S
Fe682 O688 2.002 . S
Fe682 O693 1.976 . S
Fe682 O696 1.996 . S
Fe683 O684 1.918 . S
Fe683 O691 1.997 . S
Fe683 O694 1.996 . S
Fe683 O698 1.976 . S
Fe683 O701 2.002 . S
O684 Fe682 1.918 . S
O684 Fe683 1.918 . S
O684 Fe685 1.918 . S
Fe685 O684 1.918 . S
Fe685 O686 2.002 . S
Fe685 O695 1.976 . S
Fe685 O699 1.996 . S
Fe685 O702 1.997 . S
O686 Fe685 2.002 . S
O686 C703 1.295 . S
O687 Fe682 1.997 . S
O687 C703 1.235 . S
O688 Fe682 2.002 . S
O688 C689 1.295 . S
C689 O688 1.295 . S
C689 O691 1.235 . S
C690 O695 1.287 . S
C690 O696 1.255 . S
O691 Fe683 1.997 . S
O691 C689 1.235 . S
C692 O698 1.287 . S
C692 O699 1.255 . S
O693 Fe682 1.976 . S
O693 C700 1.287 . S
O694 Fe683 1.996 . S
O694 C700 1.255 . S
O695 Fe685 1.976 . S
O695 C690 1.287 . S
O696 Fe682 1.996 . S
O696 C690 1.255 . S
C697 O701 1.295 . S
C697 O702 1.235 . S
O698 Fe683 1.976 . S
O698 C692 1.287 . S
O699 Fe685 1.996 . S
O699 C692 1.255 . S
C700 O693 1.287 . S
C700 O694 1.255 . S
O701 Fe683 2.002 . S
O701 C697 1.295 . S
O702 Fe685 1.997 . S
O702 C697 1.235 . S
C703 O686 1.295 . S
C703 O687 1.235 . S
Fe704 O706 1.918 . S
Fe704 O709 1.997 . S
Fe704 O710 2.002 . S
Fe704 O715 1.976 . S
Fe704 O718 1.996 . S
Fe705 O706 1.918 . S
Fe705 O713 1.997 . S
Fe705 O716 1.996 . S
Fe705 O720 1.976 . S
Fe705 O723 2.002 . S
O706 Fe704 1.918 . S
O706 Fe705 1.918 . S
O706 Fe707 1.918 . S
Fe707 O706 1.918 . S
Fe707 O708 2.002 . S
Fe707 O717 1.976 . S
Fe707 O721 1.996 . S
Fe707 O724 1.997 . S
O708 Fe707 2.002 . S
O708 C725 1.295 . S
O709 Fe704 1.997 . S
O709 C725 1.235 . S
O710 Fe704 2.002 . S
O710 C711 1.295 . S
C711 O710 1.295 . S
C711 O713 1.235 . S
C712 O717 1.287 . S
C712 O718 1.255 . S
O713 Fe705 1.997 . S
O713 C711 1.235 . S
C714 O720 1.287 . S
C714 O721 1.255 . S
O715 Fe704 1.976 . S
O715 C722 1.287 . S
O716 Fe705 1.996 . S
O716 C722 1.255 . S
O717 Fe707 1.976 . S
O717 C712 1.287 . S
O718 Fe704 1.996 . S
O718 C712 1.255 . S
C719 O723 1.295 . S
C719 O724 1.235 . S
O720 Fe705 1.976 . S
O720 C714 1.287 . S
O721 Fe707 1.996 . S
O721 C714 1.255 . S
C722 O715 1.287 . S
C722 O716 1.255 . S
O723 Fe705 2.002 . S
O723 C719 1.295 . S
O724 Fe707 1.997 . S
O724 C719 1.235 . S
C725 O708 1.295 . S
C725 O709 1.235 . S
Fe726 O728 1.918 . S
Fe726 O731 1.997 . S
Fe726 O732 2.002 . S
Fe726 O737 1.976 . S
Fe726 O740 1.996 . S
Fe727 O728 1.918 . S
Fe727 O735 1.997 . S
Fe727 O738 1.996 . S
Fe727 O742 1.976 . S
Fe727 O745 2.002 . S
O728 Fe726 1.918 . S
O728 Fe727 1.918 . S
O728 Fe729 1.918 . S
Fe729 O728 1.918 . S
Fe729 O730 2.002 . S
Fe729 O739 1.976 . S
Fe729 O743 1.996 . S
Fe729 O746 1.997 . S
O730 Fe729 2.002 . S
O730 C747 1.295 . S
O731 Fe726 1.997 . S
O731 C747 1.235 . S
O732 Fe726 2.002 . S
O732 C733 1.295 . S
C733 O732 1.295 . S
C733 O735 1.235 . S
C734 O739 1.287 . S
C734 O740 1.255 . S
O735 Fe727 1.997 . S
O735 C733 1.235 . S
C736 O742 1.287 . S
C736 O743 1.255 . S
O737 Fe726 1.976 . S
O737 C744 1.287 . S
O738 Fe727 1.996 . S
O738 C744 1.255 . S
O739 Fe729 1.976 . S
O739 C734 1.287 . S
O740 Fe726 1.996 . S
O740 C734 1.255 . S
C741 O745 1.295 . S
C741 O746 1.235 . S
O742 Fe727 1.976 . S
O742 C736 1.287 . S
O743 Fe729 1.996 . S
O743 C736 1.255 . S
C744 O737 1.287 . S
C744 O738 1.255 . S
O745 Fe727 2.002 . S
O745 C741 1.295 . S
O746 Fe729 1.997 . S
O746 C741 1.235 . S
C747 O730 1.295 . S
C747 O731 1.235 . S
Fe748 O750 1.918 . S
Fe748 O753 1.997 . S
Fe748 O754 2.002 . S
Fe748 O759 1.976 . S
Fe748 O762 1.996 . S
Fe749 O750 1.918 . S
Fe749 O757 1.997 . S
Fe749 O760 1.996 . S
Fe749 O764 1.976 . S
Fe749 O767 2.002 . S
O750 Fe748 1.918 . S
O750 Fe749 1.918 . S
O750 Fe751 1.918 . S
Fe751 O750 1.918 . S
Fe751 O752 2.002 . S
Fe751 O761 1.976 . S
Fe751 O765 1.996 . S
Fe751 O768 1.997 . S
O752 Fe751 2.002 . S
O752 C769 1.295 . S
O753 Fe748 1.997 . S
O753 C769 1.235 . S
O754 Fe748 2.002 . S
O754 C755 1.295 . S
C755 O754 1.295 . S
C755 O757 1.235 . S
C756 O761 1.287 . S
C756 O762 1.255 . S
O757 Fe749 1.997 . S
O757 C755 1.235 . S
C758 O764 1.287 . S
C758 O765 1.255 . S
O759 Fe748 1.976 . S
O759 C766 1.287 . S
O760 Fe749 1.996 . S
O760 C766 1.255 . S
O761 Fe751 1.976 . S
O761 C756 1.287 . S
O762 Fe748 1.996 . S
O762 C756 1.255 . S
C763 O767 1.295 . S
C763 O768 1.235 . S
O764 Fe749 1.976 . S
O764 C758 1.287 . S
O765 Fe751 1.996 . S
O765 C758 1.255 . S
C766 O759 1.287 . S
C766 O760 1.255 . S
O767 Fe749 2.002 . S
O767 C763 1.295 . S
O768 Fe751 1.997 . S
O768 C763 1.235 . S
C769 O752 1.295 . S
C769 O753 1.235 . S
Fe770 O772 1.918 . S
Fe770 O775 1.997 . S
Fe770 O776 2.002 . S
Fe770 O781 1.976 . S
Fe770 O784 1.996 . S
Fe771 O772 1.918 . S
Fe771 O779 1.997 . S
Fe771 O782 1.996 . S
Fe771 O786 1.976 . S
Fe771 O789 2.002 . S
O772 Fe770 1.918 . S
O772 Fe771 1.918 . S
O772 Fe773 1.918 . S
Fe773 O772 1.918 . S
Fe773 O774 2.002 . S
Fe773 O783 1.976 . S
Fe773 O787 1.996 . S
Fe773 O790 1.997 . S
O774 Fe773 2.002 . S
O774 C791 1.295 . S
O775 Fe770 1.997 . S
O775 C791 1.235 . S
O776 Fe770 2.002 . S
O776 C777 1.295 . S
C777 O776 1.295 . S
C777 O779 1.235 . S
C778 O783 1.287 . S
C778 O784 1.255 . S
O779 Fe771 1.997 . S
O779 C777 1.235 . S
C780 O786 1.287 . S
C780 O787 1.255 . S
O781 Fe770 1.976 . S
O781 C788 1.287 . S
O782 Fe771 1.996 . S
O782 C788 1.255 . S
O783 Fe773 1.976 . S
O783 C778 1.287 . S
O784 Fe770 1.996 . S
O784 C778 1.255 . S
C785 O789 1.295 . S
C785 O790 1.235 . S
O786 Fe771 1.976 . S
O786 C780 1.287 . S
O787 Fe773 1.996 . S
O787 C780 1.255 . S
C788 O781 1.287 . S
C788 O782 1.255 . S
O789 Fe771 2.002 . S
O789 C785 1.295 . S
O790 Fe773 1.997 . S
O790 C785 1.235 . S
C791 O774 1.295 . S
C791 O775 1.235 . S
C792 C793 1.387 . S
C792 H796 0.950 . S
C792 C801 1.390 1_556 S
C793 C792 1.387 . S
C793 C795 1.387 . S
H794 C801 0.950 . S
C795 C793 1.387 . S
C795 C797 1.390 1_556 S
C795 H799 0.950 . S
H796 C792 0.950 . S
C797 C795 1.390 1_554 S
C797 C798 1.387 . S
C797 H800 0.950 . S
C798 C797 1.387 . S
C798 C801 1.387 . S
H799 C795 0.950 . S
H800 C797 0.950 . S
C801 C792 1.390 1_554 S
C801 H794 0.950 . S
C801 C798 1.387 . S
C802 C803 1.387 . S
C802 H806 0.950 . S
C802 C811 1.390 1_556 S
C803 C802 1.387 . S
C803 C805 1.387 . S
H804 C811 0.950 . S
C805 C803 1.387 . S
C805 C807 1.390 1_556 S
C805 H809 0.950 . S
H806 C802 0.950 . S
C807 C805 1.390 1_554 S
C807 C808 1.387 . S
C807 H810 0.950 . S
C808 C807 1.387 . S
C808 C811 1.387 . S
H809 C805 0.950 . S
H810 C807 0.950 . S
C811 C802 1.390 1_554 S
C811 H804 0.950 . S
C811 C808 1.387 . S
C812 C813 1.387 . S
C812 H816 0.950 . S
C812 C821 1.390 1_556 S
C813 C812 1.387 . S
C813 C815 1.387 . S
H814 C821 0.950 . S
C815 C813 1.387 . S
C815 C817 1.390 1_556 S
C815 H819 0.950 . S
H816 C812 0.950 . S
C817 C815 1.390 1_554 S
C817 C818 1.387 . S
C817 H820 0.950 . S
C818 C817 1.387 . S
C818 C821 1.387 . S
H819 C815 0.950 . S
H820 C817 0.950 . S
C821 C812 1.390 1_554 S
C821 H814 0.950 . S
C821 C818 1.387 . S
C822 C823 1.387 . S
C822 H826 0.950 . S
C822 C831 1.390 . S
C823 C822 1.387 . S
C823 C825 1.387 . S
H824 C831 0.950 . S
C825 C823 1.387 . S
C825 C827 1.390 . S
C825 H829 0.950 . S
H826 C822 0.950 . S
C827 C825 1.390 . S
C827 C828 1.387 . S
C827 H830 0.950 . S
C828 C827 1.387 . S
C828 C831 1.387 . S
H829 C825 0.950 . S
H830 C827 0.950 . S
C831 C822 1.390 . S
C831 H824 0.950 . S
C831 C828 1.387 . S
C832 C833 1.387 . S
C832 H836 0.950 . S
C832 C841 1.390 . S
C833 C832 1.387 . S
C833 C835 1.387 . S
H834 C841 0.950 . S
C835 C833 1.387 . S
C835 C837 1.390 . S
C835 H839 0.950 . S
H836 C832 0.950 . S
C837 C835 1.390 . S
C837 C838 1.387 . S
C837 H840 0.950 . S
C838 C837 1.387 . S
C838 C841 1.387 . S
H839 C835 0.950 . S
H840 C837 0.950 . S
C841 C832 1.390 . S
C841 H834 0.950 . S
C841 C838 1.387 . S
C842 C843 1.387 . S
C842 H846 0.950 . S
C842 C851 1.390 . S
C843 C842 1.387 . S
C843 C845 1.387 . S
H844 C851 0.950 . S
C845 C843 1.387 . S
C845 C847 1.390 . S
C845 H849 0.950 . S
H846 C842 0.950 . S
C847 C845 1.390 . S
C847 C848 1.387 . S
C847 H850 0.950 . S
C848 C847 1.387 . S
C848 C851 1.387 . S
H849 C845 0.950 . S
H850 C847 0.950 . S
C851 C842 1.390 . S
C851 H844 0.950 . S
C851 C848 1.387 . S
C852 C853 1.387 . S
C852 H856 0.950 . S
C852 C861 1.390 1_554 S
C853 C852 1.387 . S
C853 C855 1.387 . S
H854 C861 0.950 . S
C855 C853 1.387 . S
C855 C857 1.390 1_554 S
C855 H859 0.950 . S
H856 C852 0.950 . S
C857 C855 1.390 1_556 S
C857 C858 1.387 . S
C857 H860 0.950 . S
C858 C857 1.387 . S
C858 C861 1.387 . S
H859 C855 0.950 . S
H860 C857 0.950 . S
C861 C852 1.390 1_556 S
C861 H854 0.950 . S
C861 C858 1.387 . S
C862 C863 1.387 . S
C862 H866 0.950 . S
C862 C871 1.390 1_554 S
C863 C862 1.387 . S
C863 C865 1.375 1_554 S
H864 C871 0.950 . S
C865 C863 1.375 1_556 S
C865 C867 1.404 . S
C865 H869 0.949 1_556 S
H866 C862 0.950 . S
C867 C865 1.404 . S
C867 C868 1.387 . S
C867 H870 0.950 . S
C868 C867 1.387 . S
C868 C871 1.387 . S
H869 C865 0.949 1_554 S
H870 C867 0.950 . S
C871 C862 1.390 1_556 S
C871 H864 0.950 . S
C871 C868 1.387 . S
C872 C873 1.387 . S
C872 H876 0.950 . S
C872 C881 1.390 1_554 S
C873 C872 1.387 . S
C873 C875 1.387 . S
H874 C881 0.950 . S
C875 C873 1.387 . S
C875 C877 1.390 1_554 S
C875 H879 0.950 . S
H876 C872 0.950 . S
C877 C875 1.390 1_556 S
C877 C878 1.387 . S
C877 H880 0.950 . S
C878 C877 1.387 . S
C878 C881 1.387 . S
H879 C875 0.950 . S
H880 C877 0.950 . S
C881 C872 1.390 1_556 S
C881 H874 0.950 . S
C881 C878 1.387 . S
C882 C883 1.387 . S
C882 H886 0.950 . S
C882 C891 1.390 . S
C883 C882 1.387 . S
C883 C885 1.387 . S
H884 C891 0.950 . S
C885 C883 1.387 . S
C885 C887 1.390 . S
C885 H889 0.950 . S
H886 C882 0.950 . S
C887 C885 1.390 . S
C887 C888 1.387 . S
C887 H890 0.950 . S
C888 C887 1.387 . S
C888 C891 1.387 . S
H889 C885 0.950 . S
H890 C887 0.950 . S
C891 C882 1.390 . S
C891 H884 0.950 . S
C891 C888 1.387 . S
C892 C893 1.387 . S
C892 H896 0.950 . S
C892 C901 1.390 . S
C893 C892 1.387 . S
C893 C895 1.387 . S
H894 C901 0.950 . S
C895 C893 1.387 . S
C895 C897 1.390 . S
C895 H899 0.950 . S
H896 C892 0.950 . S
C897 C895 1.390 . S
C897 C898 1.387 . S
C897 H900 0.950 . S
C898 C897 1.387 . S
C898 C901 1.387 . S
H899 C895 0.950 . S
H900 C897 0.950 . S
C901 C892 1.390 . S
C901 H894 0.950 . S
C901 C898 1.387 . S
C902 C903 1.387 . S
C902 H906 0.950 . S
C902 C911 1.390 . S
C903 C902 1.387 . S
C903 C905 1.387 . S
H904 C911 0.950 . S
C905 C903 1.387 . S
C905 C907 1.390 . S
C905 H909 0.950 . S
H906 C902 0.950 . S
C907 C905 1.390 . S
C907 C908 1.387 . S
C907 H910 0.950 . S
C908 C907 1.387 . S
C908 C911 1.387 . S
H909 C905 0.950 . S
H910 C907 0.950 . S
C911 C902 1.390 . S
C911 H904 0.950 . S
C911 C908 1.387 . S
C912 C913 1.387 . S
C912 H916 0.950 . S
C912 C921 1.390 . S
C913 C912 1.387 . S
C913 C915 1.387 . S
H914 C921 0.950 . S
C915 C913 1.387 . S
C915 C917 1.390 . S
C915 H919 0.950 . S
H916 C912 0.950 . S
C917 C915 1.390 . S
C917 C918 1.387 . S
C917 H920 0.950 . S
C918 C917 1.387 . S
C918 C921 1.387 . S
H919 C915 0.950 . S
H920 C917 0.950 . S
C921 C912 1.390 . S
C921 H914 0.950 . S
C921 C918 1.387 . S
C922 C923 1.387 . S
C922 H926 0.950 . S
C922 C931 1.390 . S
C923 C922 1.387 . S
C923 C925 1.387 . S
H924 C931 0.950 . S
C925 C923 1.387 . S
C925 C927 1.390 . S
C925 H929 0.950 . S
H926 C922 0.950 . S
C927 C925 1.390 . S
C927 C928 1.387 . S
C927 H930 0.950 . S
C928 C927 1.387 . S
C928 C931 1.387 . S
H929 C925 0.950 . S
H930 C927 0.950 . S
C931 C922 1.390 . S
C931 H924 0.950 . S
C931 C928 1.387 . S
C932 C933 1.387 . S
C932 H936 0.950 . S
C932 C941 1.390 . S
C933 C932 1.387 . S
C933 C935 1.387 . S
H934 C941 0.950 . S
C935 C933 1.387 . S
C935 C937 1.390 . S
C935 H939 0.950 . S
H936 C932 0.950 . S
C937 C935 1.390 . S
C937 C938 1.387 . S
C937 H940 0.950 . S
C938 C937 1.387 . S
C938 C941 1.387 . S
H939 C935 0.950 . S
H940 C937 0.950 . S
C941 C932 1.390 . S
C941 H934 0.950 . S
C941 C938 1.387 . S
C942 C943 1.387 . S
C942 H946 0.950 . S
C942 C951 1.390 . S
C943 C942 1.387 . S
C943 C945 1.387 . S
H944 C951 0.950 . S
C945 C943 1.387 . S
C945 C947 1.390 . S
C945 H949 0.950 . S
H946 C942 0.950 . S
C947 C945 1.390 . S
C947 C948 1.387 . S
C947 H950 0.950 . S
C948 C947 1.387 . S
C948 C951 1.387 . S
H949 C945 0.950 . S
H950 C947 0.950 . S
C951 C942 1.390 . S
C951 H944 0.950 . S
C951 C948 1.387 . S
C952 C953 1.387 . S
C952 H956 0.950 . S
C952 C961 1.390 . S
C953 C952 1.387 . S
C953 C955 1.387 . S
H954 C961 0.950 . S
C955 C953 1.387 . S
C955 C957 1.390 . S
C955 H959 0.950 . S
H956 C952 0.950 . S
C957 C955 1.390 . S
C957 C958 1.387 . S
C957 H960 0.950 . S
C958 C957 1.387 . S
C958 C961 1.387 . S
H959 C955 0.950 . S
H960 C957 0.950 . S
C961 C952 1.390 . S
C961 H954 0.950 . S
C961 C958 1.387 . S
C962 C963 1.387 . S
C962 H966 0.950 . S
C962 C971 1.390 . S
C963 C962 1.387 . S
C963 C965 1.387 . S
H964 C971 0.950 . S
C965 C963 1.387 . S
C965 C967 1.390 . S
C965 H969 0.950 . S
H966 C962 0.950 . S
C967 C965 1.390 . S
C967 C968 1.387 . S
C967 H970 0.950 . S
C968 C967 1.387 . S
C968 C971 1.387 . S
H969 C965 0.950 . S
H970 C967 0.950 . S
C971 C962 1.390 . S
C971 H964 0.950 . S
C971 C968 1.387 . S
C972 C973 1.387 . S
C972 H976 0.950 . S
C972 C981 1.390 . S
C973 C972 1.387 . S
C973 C975 1.387 . S
H974 C981 0.950 . S
C975 C973 1.387 . S
C975 C977 1.390 . S
C975 H979 0.950 . S
H976 C972 0.950 . S
C977 C975 1.390 . S
C977 C978 1.387 . S
C977 H980 0.950 . S
C978 C977 1.387 . S
C978 C981 1.387 . S
H979 C975 0.950 . S
H980 C977 0.950 . S
C981 C972 1.390 . S
C981 H974 0.950 . S
C981 C978 1.387 . S
C982 C983 1.387 . S
C982 H986 0.950 . S
C982 C991 1.390 . S
C983 C982 1.387 . S
C983 C985 1.387 . S
H984 C991 0.950 . S
C985 C983 1.387 . S
C985 C987 1.390 . S
C985 H989 0.950 . S
H986 C982 0.950 . S
C987 C985 1.390 . S
C987 C988 1.387 . S
C987 H990 0.950 . S
C988 C987 1.387 . S
C988 C991 1.387 . S
H989 C985 0.950 . S
H990 C987 0.950 . S
C991 C982 1.390 . S
C991 H984 0.950 . S
C991 C988 1.387 . S
C992 C993 1.387 . S
C992 H996 0.950 . S
C992 C1001 1.390 . S
C993 C992 1.387 . S
C993 C995 1.387 . S
H994 C1001 0.950 . S
C995 C993 1.387 . S
C995 C997 1.390 . S
C995 H999 0.950 . S
H996 C992 0.950 . S
C997 C995 1.390 . S
C997 C998 1.387 . S
C997 H1000 0.950 . S
C998 C997 1.387 . S
C998 C1001 1.387 . S
H999 C995 0.950 . S
H1000 C997 0.950 . S
C1001 C992 1.390 . S
C1001 H994 0.950 . S
C1001 C998 1.387 . S
C1002 C1003 1.387 . S
C1002 H1006 0.950 . S
C1002 C1011 1.390 . S
C1003 C1002 1.387 . S
C1003 C1005 1.387 . S
H1004 C1011 0.950 . S
C1005 C1003 1.387 . S
C1005 C1007 1.390 . S
C1005 H1009 0.950 . S
H1006 C1002 0.950 . S
C1007 C1005 1.390 . S
C1007 C1008 1.387 . S
C1007 H1010 0.950 . S
C1008 C1007 1.387 . S
C1008 C1011 1.387 . S
H1009 C1005 0.950 . S
H1010 C1007 0.950 . S
C1011 C1002 1.390 . S
C1011 H1004 0.950 . S
C1011 C1008 1.387 . S
C1012 C1013 1.387 . S
C1012 H1016 0.950 . S
C1012 C1021 1.390 . S
C1013 C1012 1.387 . S
C1013 C1015 1.387 . S
H1014 C1021 0.950 . S
C1015 C1013 1.387 . S
C1015 C1017 1.390 . S
C1015 H1019 0.950 . S
H1016 C1012 0.950 . S
C1017 C1015 1.390 . S
C1017 C1018 1.387 . S
C1017 H1020 0.950 . S
C1018 C1017 1.387 . S
C1018 C1021 1.387 . S
H1019 C1015 0.950 . S
H1020 C1017 0.950 . S
C1021 C1012 1.390 . S
C1021 H1014 0.950 . S
C1021 C1018 1.387 . S
C1022 C1023 1.387 . S
C1022 H1026 0.950 . S
C1022 C1031 1.390 . S
C1023 C1022 1.387 . S
C1023 C1025 1.387 . S
H1024 C1031 0.950 . S
C1025 C1023 1.387 . S
C1025 C1027 1.390 . S
C1025 H1029 0.950 . S
H1026 C1022 0.950 . S
C1027 C1025 1.390 . S
C1027 C1028 1.387 . S
C1027 H1030 0.950 . S
C1028 C1027 1.387 . S
C1028 C1031 1.387 . S
H1029 C1025 0.950 . S
H1030 C1027 0.950 . S
C1031 C1022 1.390 . S
C1031 H1024 0.950 . S
C1031 C1028 1.387 . S
C1032 C1033 1.387 . S
C1032 H1036 0.950 . S
C1032 C1041 1.390 . S
C1033 C1032 1.387 . S
C1033 C1035 1.387 . S
H1034 C1041 0.950 . S
C1035 C1033 1.387 . S
C1035 C1037 1.390 . S
C1035 H1039 0.950 . S
H1036 C1032 0.950 . S
C1037 C1035 1.390 . S
C1037 C1038 1.387 . S
C1037 H1040 0.950 . S
C1038 C1037 1.387 . S
C1038 C1041 1.387 . S
H1039 C1035 0.950 . S
H1040 C1037 0.950 . S
C1041 C1032 1.390 . S
C1041 H1034 0.950 . S
C1041 C1038 1.387 . S
C1042 C1043 1.387 . S
C1042 H1046 0.950 . S
C1042 C1051 1.390 . S
C1043 C1042 1.387 . S
C1043 C1045 1.387 . S
H1044 C1051 0.950 . S
C1045 C1043 1.387 . S
C1045 C1047 1.390 . S
C1045 H1049 0.950 . S
H1046 C1042 0.950 . S
C1047 C1045 1.390 . S
C1047 C1048 1.387 . S
C1047 H1050 0.950 . S
C1048 C1047 1.387 . S
C1048 C1051 1.387 . S
H1049 C1045 0.950 . S
H1050 C1047 0.950 . S
C1051 C1042 1.390 . S
C1051 H1044 0.950 . S
C1051 C1048 1.387 . S
C1052 C1053 1.387 . S
C1052 H1056 0.950 . S
C1052 C1061 1.390 . S
C1053 C1052 1.387 . S
C1053 C1055 1.387 . S
H1054 C1061 0.950 . S
C1055 C1053 1.387 . S
C1055 C1057 1.390 . S
C1055 H1059 0.950 . S
H1056 C1052 0.950 . S
C1057 C1055 1.390 . S
C1057 C1058 1.387 . S
C1057 H1060 0.950 . S
C1058 C1057 1.387 . S
C1058 C1061 1.387 . S
H1059 C1055 0.950 . S
H1060 C1057 0.950 . S
C1061 C1052 1.390 . S
C1061 H1054 0.950 . S
C1061 C1058 1.387 . S
C1062 C1063 1.387 . S
C1062 H1066 0.950 . S
C1062 C1071 1.390 . S
C1063 C1062 1.387 . S
C1063 C1065 1.387 . S
H1064 C1071 0.950 . S
C1065 C1063 1.387 . S
C1065 C1067 1.390 . S
C1065 H1069 0.950 . S
H1066 C1062 0.950 . S
C1067 C1065 1.390 . S
C1067 C1068 1.387 . S
C1067 H1070 0.950 . S
C1068 C1067 1.387 . S
C1068 C1071 1.387 . S
H1069 C1065 0.950 . S
H1070 C1067 0.950 . S
C1071 C1062 1.390 . S
C1071 H1064 0.950 . S
C1071 C1068 1.387 . S
C1072 C1073 1.387 . S
C1072 H1076 0.950 . S
C1072 C1081 1.390 . S
C1073 C1072 1.387 . S
C1073 C1075 1.387 . S
H1074 C1081 0.950 . S
C1075 C1073 1.387 . S
C1075 C1077 1.390 . S
C1075 H1079 0.950 . S
H1076 C1072 0.950 . S
C1077 C1075 1.390 . S
C1077 C1078 1.387 . S
C1077 H1080 0.950 . S
C1078 C1077 1.387 . S
C1078 C1081 1.387 . S
H1079 C1075 0.950 . S
H1080 C1077 0.950 . S
C1081 C1072 1.390 . S
C1081 H1074 0.950 . S
C1081 C1078 1.387 . S
C1082 C1083 1.387 . S
C1082 H1086 0.950 . S
C1082 C1091 1.390 . S
C1083 C1082 1.387 . S
C1083 C1085 1.387 . S
H1084 C1091 0.950 . S
C1085 C1083 1.387 . S
C1085 C1087 1.390 . S
C1085 H1089 0.950 . S
H1086 C1082 0.950 . S
C1087 C1085 1.390 . S
C1087 C1088 1.387 . S
C1087 H1090 0.950 . S
C1088 C1087 1.387 . S
C1088 C1091 1.387 . S
H1089 C1085 0.950 . S
H1090 C1087 0.950 . S
C1091 C1082 1.390 . S
C1091 H1084 0.950 . S
C1091 C1088 1.387 . S
C1092 C1093 1.387 . S
C1092 H1096 0.950 . S
C1092 C1101 1.390 . S
C1093 C1092 1.387 . S
C1093 C1095 1.387 . S
H1094 C1101 0.950 . S
C1095 C1093 1.387 . S
C1095 C1097 1.390 . S
C1095 H1099 0.950 . S
H1096 C1092 0.950 . S
C1097 C1095 1.390 . S
C1097 C1098 1.387 . S
C1097 H1100 0.950 . S
C1098 C1097 1.387 . S
C1098 C1101 1.387 . S
H1099 C1095 0.950 . S
H1100 C1097 0.950 . S
C1101 C1092 1.390 . S
C1101 H1094 0.950 . S
C1101 C1098 1.387 . S
C1102 C1103 1.387 . S
C1102 H1106 0.950 . S
C1102 C1111 1.390 . S
C1103 C1102 1.387 . S
C1103 C1105 1.387 . S
H1104 C1111 0.950 . S
C1105 C1103 1.387 . S
C1105 C1107 1.390 . S
C1105 H1109 0.950 . S
H1106 C1102 0.950 . S
C1107 C1105 1.390 . S
C1107 C1108 1.387 . S
C1107 H1110 0.950 . S
C1108 C1107 1.387 . S
C1108 C1111 1.387 . S
H1109 C1105 0.950 . S
H1110 C1107 0.950 . S
C1111 C1102 1.390 . S
C1111 H1104 0.950 . S
C1111 C1108 1.387 . S
C1112 C1113 1.387 . S
C1112 H1116 0.950 . S
C1112 C1121 1.390 . S
C1113 C1112 1.387 . S
C1113 C1115 1.387 . S
H1114 C1121 0.950 . S
C1115 C1113 1.387 . S
C1115 C1117 1.390 . S
C1115 H1119 0.950 . S
H1116 C1112 0.950 . S
C1117 C1115 1.390 . S
C1117 C1118 1.387 . S
C1117 H1120 0.950 . S
C1118 C1117 1.387 . S
C1118 C1121 1.387 . S
H1119 C1115 0.950 . S
H1120 C1117 0.950 . S
C1121 C1112 1.390 . S
C1121 H1114 0.950 . S
C1121 C1118 1.387 . S
C1122 C1123 1.387 . S
C1122 H1126 0.950 . S
C1122 C1131 1.390 . S
C1123 C1122 1.387 . S
C1123 C1125 1.387 . S
H1124 C1131 0.950 . S
C1125 C1123 1.387 . S
C1125 C1127 1.390 . S
C1125 H1129 0.950 . S
H1126 C1122 0.950 . S
C1127 C1125 1.390 . S
C1127 C1128 1.387 . S
C1127 H1130 0.950 . S
C1128 C1127 1.387 . S
C1128 C1131 1.387 . S
H1129 C1125 0.950 . S
H1130 C1127 0.950 . S
C1131 C1122 1.390 . S
C1131 H1124 0.950 . S
C1131 C1128 1.387 . S
C1132 C1133 1.387 . S
C1132 H1136 0.950 . S
C1132 C1141 1.390 . S
C1133 C1132 1.387 . S
C1133 C1135 1.387 . S
H1134 C1141 0.950 . S
C1135 C1133 1.387 . S
C1135 C1137 1.390 . S
C1135 H1139 0.950 . S
H1136 C1132 0.950 . S
C1137 C1135 1.390 . S
C1137 C1138 1.387 . S
C1137 H1140 0.950 . S
C1138 C1137 1.387 . S
C1138 C1141 1.387 . S
H1139 C1135 0.950 . S
H1140 C1137 0.950 . S
C1141 C1132 1.390 . S
C1141 H1134 0.950 . S
C1141 C1138 1.387 . S
C1142 C1143 1.387 . S
C1142 H1146 0.950 . S
C1142 C1151 1.390 . S
C1143 C1142 1.387 . S
C1143 C1145 1.387 . S
H1144 C1151 0.950 . S
C1145 C1143 1.387 . S
C1145 C1147 1.390 . S
C1145 H1149 0.950 . S
H1146 C1142 0.950 . S
C1147 C1145 1.390 . S
C1147 C1148 1.387 . S
C1147 H1150 0.950 . S
C1148 C1147 1.387 . S
C1148 C1151 1.387 . S
H1149 C1145 0.950 . S
H1150 C1147 0.950 . S
C1151 C1142 1.390 . S
C1151 H1144 0.950 . S
C1151 C1148 1.387 . S
C1152 C1153 1.387 . S
C1152 H1156 0.950 . S
C1152 C1161 1.390 . S
C1153 C1152 1.387 . S
C1153 C1155 1.387 . S
H1154 C1161 0.950 . S
C1155 C1153 1.387 . S
C1155 C1157 1.390 . S
C1155 H1159 0.950 . S
H1156 C1152 0.950 . S
C1157 C1155 1.390 . S
C1157 C1158 1.387 . S
C1157 H1160 0.950 . S
C1158 C1157 1.387 . S
C1158 C1161 1.387 . S
H1159 C1155 0.950 . S
H1160 C1157 0.950 . S
C1161 C1152 1.390 . S
C1161 H1154 0.950 . S
C1161 C1158 1.387 . S
C1162 C1163 1.387 . S
C1162 H1166 0.950 . S
C1162 C1171 1.390 . S
C1163 C1162 1.387 . S
C1163 C1165 1.387 . S
H1164 C1171 0.950 . S
C1165 C1163 1.387 . S
C1165 C1167 1.390 . S
C1165 H1169 0.950 . S
H1166 C1162 0.950 . S
C1167 C1165 1.390 . S
C1167 C1168 1.387 . S
C1167 H1170 0.950 . S
C1168 C1167 1.387 . S
C1168 C1171 1.387 . S
H1169 C1165 0.950 . S
H1170 C1167 0.950 . S
C1171 C1162 1.390 . S
C1171 H1164 0.950 . S
C1171 C1168 1.387 . S
C1172 C1173 1.387 . S
C1172 H1176 0.950 . S
C1172 C1181 1.390 . S
C1173 C1172 1.387 . S
C1173 C1175 1.387 . S
H1174 C1181 0.950 . S
C1175 C1173 1.387 . S
C1175 C1177 1.390 . S
C1175 H1179 0.950 . S
H1176 C1172 0.950 . S
C1177 C1175 1.390 . S
C1177 C1178 1.387 . S
C1177 H1180 0.950 . S
C1178 C1177 1.387 . S
C1178 C1181 1.387 . S
H1179 C1175 0.950 . S
H1180 C1177 0.950 . S
C1181 C1172 1.390 . S
C1181 H1174 0.950 . S
C1181 C1178 1.387 . S
C1182 C1183 1.387 . S
C1182 H1186 0.950 . S
C1182 C1191 1.390 . S
C1183 C1182 1.387 . S
C1183 C1185 1.387 . S
H1184 C1191 0.950 . S
C1185 C1183 1.387 . S
C1185 C1187 1.390 . S
C1185 H1189 0.950 . S
H1186 C1182 0.950 . S
C1187 C1185 1.390 . S
C1187 C1188 1.387 . S
C1187 H1190 0.950 . S
C1188 C1187 1.387 . S
C1188 C1191 1.387 . S
H1189 C1185 0.950 . S
H1190 C1187 0.950 . S
C1191 C1182 1.390 . S
C1191 H1184 0.950 . S
C1191 C1188 1.387 . S
C1192 C1193 1.387 . S
C1192 H1196 0.950 . S
C1192 C1201 1.390 . S
C1193 C1192 1.387 . S
C1193 C1195 1.387 . S
H1194 C1201 0.950 . S
C1195 C1193 1.387 . S
C1195 C1197 1.390 . S
C1195 H1199 0.950 . S
H1196 C1192 0.950 . S
C1197 C1195 1.390 . S
C1197 C1198 1.387 . S
C1197 H1200 0.950 . S
C1198 C1197 1.387 . S
C1198 C1201 1.387 . S
H1199 C1195 0.950 . S
H1200 C1197 0.950 . S
C1201 C1192 1.390 . S
C1201 H1194 0.950 . S
C1201 C1198 1.387 . S
C1202 C1203 1.387 . S
C1202 H1206 0.950 . S
C1202 C1211 1.390 . S
C1203 C1202 1.387 . S
C1203 C1205 1.387 . S
H1204 C1211 0.950 . S
C1205 C1203 1.387 . S
C1205 C1207 1.390 . S
C1205 H1209 0.950 . S
H1206 C1202 0.950 . S
C1207 C1205 1.390 . S
C1207 C1208 1.387 . S
C1207 H1210 0.950 . S
C1208 C1207 1.387 . S
C1208 C1211 1.387 . S
H1209 C1205 0.950 . S
H1210 C1207 0.950 . S
C1211 C1202 1.390 . S
C1211 H1204 0.950 . S
C1211 C1208 1.387 . S
C1212 C1213 1.387 . S
C1212 H1216 0.950 . S
C1212 C1221 1.390 . S
C1213 C1212 1.387 . S
C1213 C1215 1.387 . S
H1214 C1221 0.950 . S
C1215 C1213 1.387 . S
C1215 C1217 1.390 . S
C1215 H1219 0.950 . S
H1216 C1212 0.950 . S
C1217 C1215 1.390 . S
C1217 C1218 1.387 . S
C1217 H1220 0.950 . S
C1218 C1217 1.387 . S
C1218 C1221 1.387 . S
H1219 C1215 0.950 . S
H1220 C1217 0.950 . S
C1221 C1212 1.390 . S
C1221 H1214 0.950 . S
C1221 C1218 1.387 . S
C1222 C1223 1.387 . S
C1222 H1226 0.950 . S
C1222 C1231 1.390 . S
C1223 C1222 1.387 . S
C1223 C1225 1.387 . S
H1224 C1231 0.950 . S
C1225 C1223 1.387 . S
C1225 C1227 1.390 . S
C1225 H1229 0.950 . S
H1226 C1222 0.950 . S
C1227 C1225 1.390 . S
C1227 C1228 1.387 . S
C1227 H1230 0.950 . S
C1228 C1227 1.387 . S
C1228 C1231 1.387 . S
H1229 C1225 0.950 . S
H1230 C1227 0.950 . S
C1231 C1222 1.390 . S
C1231 H1224 0.950 . S
C1231 C1228 1.387 . S
C1232 C1233 1.387 . S
C1232 H1236 0.950 . S
C1232 C1241 1.390 . S
C1233 C1232 1.387 . S
C1233 C1235 1.387 . S
H1234 C1241 0.950 . S
C1235 C1233 1.387 . S
C1235 C1237 1.390 . S
C1235 H1239 0.950 . S
H1236 C1232 0.950 . S
C1237 C1235 1.390 . S
C1237 C1238 1.387 . S
C1237 H1240 0.950 . S
C1238 C1237 1.387 . S
C1238 C1241 1.387 . S
H1239 C1235 0.950 . S
H1240 C1237 0.950 . S
C1241 C1232 1.390 . S
C1241 H1234 0.950 . S
C1241 C1238 1.387 . S
C1242 C1243 1.387 . S
C1242 H1246 0.950 . S
C1242 C1251 1.390 . S
C1243 C1242 1.387 . S
C1243 C1245 1.387 . S
H1244 C1251 0.950 . S
C1245 C1243 1.387 . S
C1245 C1247 1.390 . S
C1245 H1249 0.950 . S
H1246 C1242 0.950 . S
C1247 C1245 1.390 . S
C1247 C1248 1.387 . S
C1247 H1250 0.950 . S
C1248 C1247 1.387 . S
C1248 C1251 1.387 . S
H1249 C1245 0.950 . S
H1250 C1247 0.950 . S
C1251 C1242 1.390 . S
C1251 H1244 0.950 . S
C1251 C1248 1.387 . S
C1252 C1253 1.387 . S
C1252 H1256 0.950 . S
C1252 C1261 1.390 . S
C1253 C1252 1.387 . S
C1253 C1255 1.387 . S
H1254 C1261 0.950 . S
C1255 C1253 1.387 . S
C1255 C1257 1.390 . S
C1255 H1259 0.950 . S
H1256 C1252 0.950 . S
C1257 C1255 1.390 . S
C1257 C1258 1.387 . S
C1257 H1260 0.950 . S
C1258 C1257 1.387 . S
C1258 C1261 1.387 . S
H1259 C1255 0.950 . S
H1260 C1257 0.950 . S
C1261 C1252 1.390 . S
C1261 H1254 0.950 . S
C1261 C1258 1.387 . S
C1262 C1263 1.387 . S
C1262 H1266 0.950 . S
C1262 C1271 1.390 . S
C1263 C1262 1.387 . S
C1263 C1265 1.387 . S
H1264 C1271 0.950 . S
C1265 C1263 1.387 . S
C1265 C1267 1.390 . S
C1265 H1269 0.950 . S
H1266 C1262 0.950 . S
C1267 C1265 1.390 . S
C1267 C1268 1.387 . S
C1267 H1270 0.950 . S
C1268 C1267 1.387 . S
C1268 C1271 1.387 . S
H1269 C1265 0.950 . S
H1270 C1267 0.950 . S
C1271 C1262 1.390 . S
C1271 H1264 0.950 . S
C1271 C1268 1.387 . S
C1272 C1273 1.387 . S
C1272 H1276 0.950 . S
C1272 C1281 1.390 . S
C1273 C1272 1.387 . S
C1273 C1275 1.387 1_655 S
H1274 C1281 0.950 . S
C1275 C1273 1.387 1_455 S
C1275 C1277 1.390 . S
C1275 H1279 0.950 . S
H1276 C1272 0.950 . S
C1277 C1275 1.390 . S
C1277 C1278 1.387 . S
C1277 H1280 0.950 . S
C1278 C1277 1.387 . S
C1278 C1281 1.387 1_455 S
H1279 C1275 0.950 . S
H1280 C1277 0.950 . S
C1281 C1272 1.390 . S
C1281 H1274 0.950 . S
C1281 C1278 1.387 1_655 S
C1282 C1283 1.387 . S
C1282 H1286 0.950 . S
C1282 C1291 1.390 . S
C1283 C1282 1.387 . S
C1283 C1285 1.387 . S
H1284 C1291 0.950 . S
C1285 C1283 1.387 . S
C1285 C1287 1.390 . S
C1285 H1289 0.950 . S
H1286 C1282 0.950 . S
C1287 C1285 1.390 . S
C1287 C1288 1.387 . S
C1287 H1290 0.950 . S
C1288 C1287 1.387 . S
C1288 C1291 1.387 . S
H1289 C1285 0.950 . S
H1290 C1287 0.950 . S
C1291 C1282 1.390 . S
C1291 H1284 0.950 . S
C1291 C1288 1.387 . S
C1292 C1293 1.387 . S
C1292 H1296 0.950 . S
C1292 C1301 1.390 . S
C1293 C1292 1.387 . S
C1293 C1295 1.387 1_545 S
H1294 C1301 0.950 . S
C1295 C1293 1.387 1_565 S
C1295 C1297 1.390 . S
C1295 H1299 0.950 . S
H1296 C1292 0.950 . S
C1297 C1295 1.390 . S
C1297 C1298 1.387 . S
C1297 H1300 0.950 . S
C1298 C1297 1.387 . S
C1298 C1301 1.387 1_565 S
H1299 C1295 0.950 . S
H1300 C1297 0.950 . S
C1301 C1292 1.390 . S
C1301 H1294 0.950 . S
C1301 C1298 1.387 1_545 S
C1302 C1303 1.387 1_565 S
C1302 H1306 0.950 . S
C1302 C1311 1.390 . S
C1303 C1302 1.387 1_545 S
C1303 C1305 1.387 1_556 S
H1304 C1311 0.950 . S
C1305 C1303 1.387 1_554 S
C1305 C1307 1.390 . S
C1305 H1309 0.950 . S
H1306 C1302 0.950 . S
C1307 C1305 1.390 . S
C1307 C1308 1.387 1_545 S
C1307 H1310 0.950 . S
C1308 C1307 1.387 1_565 S
C1308 C1311 1.387 1_554 S
H1309 C1305 0.950 . S
H1310 C1307 0.950 . S
C1311 C1302 1.390 . S
C1311 H1304 0.950 . S
C1311 C1308 1.387 1_556 S
C1312 C1313 1.387 1_556 S
C1312 H1316 0.950 . S
C1312 C1321 1.390 1_455 S
C1313 C1312 1.387 1_554 S
C1313 C1315 1.387 . S
H1314 C1321 0.950 . S
C1315 C1313 1.387 . S
C1315 C1317 1.390 1_455 S
C1315 H1319 0.950 . S
H1316 C1312 0.950 . S
C1317 C1315 1.390 1_655 S
C1317 C1318 1.387 1_554 S
C1317 H1320 0.950 . S
C1318 C1317 1.387 1_556 S
C1318 C1321 1.387 . S
H1319 C1315 0.950 . S
H1320 C1317 0.950 . S
C1321 C1312 1.390 1_655 S
C1321 H1314 0.950 . S
C1321 C1318 1.387 . S
C1322 C1323 1.387 . S
C1322 H1326 0.950 . S
C1322 C1331 1.390 1_556 S
C1323 C1322 1.387 . S
C1323 C1325 1.387 . S
H1324 C1331 0.950 . S
C1325 C1323 1.387 . S
C1325 C1327 1.390 1_556 S
C1325 H1329 0.950 . S
H1326 C1322 0.950 . S
C1327 C1325 1.390 1_554 S
C1327 C1328 1.387 . S
C1327 H1330 0.950 . S
C1328 C1327 1.387 . S
C1328 C1331 1.387 . S
H1329 C1325 0.950 . S
H1330 C1327 0.950 . S
C1331 C1322 1.390 1_554 S
C1331 H1324 0.950 . S
C1331 C1328 1.387 . S
C1332 C1333 1.387 . S
C1332 H1336 0.950 . S
C1332 C1341 1.390 . S
C1333 C1332 1.387 . S
C1333 C1335 1.387 . S
H1334 C1341 0.950 . S
C1335 C1333 1.387 . S
C1335 C1337 1.390 . S
C1335 H1339 0.950 . S
H1336 C1332 0.950 . S
C1337 C1335 1.390 . S
C1337 C1338 1.387 . S
C1337 H1340 0.950 . S
C1338 C1337 1.387 . S
C1338 C1341 1.387 . S
H1339 C1335 0.950 . S
H1340 C1337 0.950 . S
C1341 C1332 1.390 . S
C1341 H1334 0.950 . S
C1341 C1338 1.387 . S
C1342 C1343 1.387 . S
C1342 H1346 0.950 . S
C1342 C1351 1.390 . S
C1343 C1342 1.387 . S
C1343 C1345 1.387 . S
H1344 C1351 0.950 . S
C1345 C1343 1.387 . S
C1345 C1347 1.390 . S
C1345 H1349 0.950 . S
H1346 C1342 0.950 . S
C1347 C1345 1.390 . S
C1347 C1348 1.387 . S
C1347 H1350 0.950 . S
C1348 C1347 1.387 . S
C1348 C1351 1.387 . S
H1349 C1345 0.950 . S
H1350 C1347 0.950 . S
C1351 C1342 1.390 . S
C1351 H1344 0.950 . S
C1351 C1348 1.387 . S
C1352 C1353 1.387 . S
C1352 H1356 0.950 . S
C1352 C1361 1.390 . S
C1353 C1352 1.387 . S
C1353 C1355 1.387 . S
H1354 C1361 0.950 . S
C1355 C1353 1.387 . S
C1355 C1357 1.390 . S
C1355 H1359 0.950 . S
H1356 C1352 0.950 . S
C1357 C1355 1.390 . S
C1357 C1358 1.387 . S
C1357 H1360 0.950 . S
C1358 C1357 1.387 . S
C1358 C1361 1.387 . S
H1359 C1355 0.950 . S
H1360 C1357 0.950 . S
C1361 C1352 1.390 . S
C1361 H1354 0.950 . S
C1361 C1358 1.387 . S
C1362 C1363 1.387 . S
C1362 H1366 0.950 . S
C1362 C1371 1.390 . S
C1363 C1362 1.387 . S
C1363 C1365 1.387 . S
H1364 C1371 0.950 . S
C1365 C1363 1.387 . S
C1365 C1367 1.390 . S
C1365 H1369 0.950 . S
H1366 C1362 0.950 . S
C1367 C1365 1.390 . S
C1367 C1368 1.387 . S
C1367 H1370 0.950 . S
C1368 C1367 1.387 . S
C1368 C1371 1.387 . S
H1369 C1365 0.950 . S
H1370 C1367 0.950 . S
C1371 C1362 1.390 . S
C1371 H1364 0.950 . S
C1371 C1368 1.387 . S
C1372 C1373 1.387 . S
C1372 H1376 0.950 1_545 S
C1372 C1381 1.390 . S
C1373 C1372 1.387 . S
C1373 C1375 1.387 . S
H1374 C1381 0.950 . S
C1375 C1373 1.387 . S
C1375 C1377 1.390 . S
C1375 H1379 0.950 . S
H1376 C1372 0.950 1_565 S
C1377 C1375 1.390 . S
C1377 C1378 1.387 . S
C1377 H1380 0.950 . S
C1378 C1377 1.387 . S
C1378 C1381 1.387 . S
H1379 C1375 0.950 . S
H1380 C1377 0.950 . S
C1381 C1372 1.390 . S
C1381 H1374 0.950 . S
C1381 C1378 1.387 . S
C1382 C1383 1.387 . S
C1382 H1386 0.950 . S
C1382 C1391 1.390 . S
C1383 C1382 1.387 . S
C1383 C1385 1.387 . S
H1384 C1391 0.950 1_455 S
C1385 C1383 1.387 . S
C1385 C1387 1.390 . S
C1385 H1389 0.950 . S
H1386 C1382 0.950 . S
C1387 C1385 1.390 . S
C1387 C1388 1.387 . S
C1387 H1390 0.950 . S
C1388 C1387 1.387 . S
C1388 C1391 1.387 . S
H1389 C1385 0.950 . S
H1390 C1387 0.950 . S
C1391 C1382 1.390 . S
C1391 H1384 0.950 1_655 S
C1391 C1388 1.387 . S
C1392 C1393 1.387 . S
C1392 H1396 0.950 . S
C1392 C1401 1.390 . S
C1393 C1392 1.387 . S
C1393 C1395 1.387 . S
H1394 C1401 0.950 . S
C1395 C1393 1.387 . S
C1395 C1397 1.390 . S
C1395 H1399 0.950 . S
H1396 C1392 0.950 . S
C1397 C1395 1.390 . S
C1397 C1398 1.387 . S
C1397 H1400 0.950 . S
C1398 C1397 1.387 . S
C1398 C1401 1.387 . S
H1399 C1395 0.950 . S
H1400 C1397 0.950 . S
C1401 C1392 1.390 . S
C1401 H1394 0.950 . S
C1401 C1398 1.387 . S
C1402 C1403 1.387 . S
C1402 H1406 0.950 . S
C1402 C1411 1.390 . S
C1403 C1402 1.387 . S
C1403 C1405 1.387 . S
H1404 C1411 0.950 . S
C1405 C1403 1.387 . S
C1405 C1407 1.390 . S
C1405 H1409 0.950 . S
H1406 C1402 0.950 . S
C1407 C1405 1.390 . S
C1407 C1408 1.387 . S
C1407 H1410 0.950 1_545 S
C1408 C1407 1.387 . S
C1408 C1411 1.387 . S
H1409 C1405 0.950 . S
H1410 C1407 0.950 1_565 S
C1411 C1402 1.390 . S
C1411 H1404 0.950 . S
C1411 C1408 1.387 . S
C1412 C1413 1.387 . S
C1412 H1416 0.950 . S
C1412 C1421 1.390 . S
C1413 C1412 1.387 . S
C1413 C1415 1.387 . S
H1414 C1421 0.950 . S
C1415 C1413 1.387 . S
C1415 C1417 1.390 . S
C1415 H1419 0.950 . S
H1416 C1412 0.950 . S
C1417 C1415 1.390 . S
C1417 C1418 1.387 . S
C1417 H1420 0.950 . S
C1418 C1417 1.387 . S
C1418 C1421 1.387 . S
H1419 C1415 0.950 . S
H1420 C1417 0.950 . S
C1421 C1412 1.390 . S
C1421 H1414 0.950 . S
C1421 C1418 1.387 . S
C1422 C1423 1.387 . S
C1422 H1426 0.950 . S
C1422 C1431 1.390 . S
C1423 C1422 1.387 . S
C1423 C1425 1.387 . S
H1424 C1431 0.950 . S
C1425 C1423 1.387 . S
C1425 C1427 1.390 . S
C1425 H1429 0.950 . S
H1426 C1422 0.950 . S
C1427 C1425 1.390 . S
C1427 C1428 1.387 . S
C1427 H1430 0.950 . S
C1428 C1427 1.387 . S
C1428 C1431 1.387 . S
H1429 C1425 0.950 . S
H1430 C1427 0.950 . S
C1431 C1422 1.390 . S
C1431 H1424 0.950 . S
C1431 C1428 1.387 . S
C1432 C1433 1.387 . S
C1432 H1436 0.956 . S
C1432 C1441 1.390 . S
C1433 C1432 1.387 . S
C1433 C1435 1.387 . S
H1434 C1441 0.950 . S
C1435 C1433 1.387 . S
C1435 C1437 1.390 . S
C1435 H1439 0.950 . S
H1436 C1432 0.956 . S
C1437 C1435 1.390 . S
C1437 C1438 1.387 . S
C1437 H1440 0.950 . S
C1438 C1437 1.387 . S
C1438 C1441 1.387 . S
H1439 C1435 0.950 . S
H1440 C1437 0.950 . S
C1441 C1432 1.390 . S
C1441 H1434 0.950 . S
C1441 C1438 1.387 . S
C1442 C1443 1.387 . S
C1442 H1446 0.950 . S
C1442 C1451 1.390 . S
C1443 C1442 1.387 . S
C1443 C1445 1.387 . S
H1444 C1451 0.950 . S
C1445 C1443 1.387 . S
C1445 C1447 1.390 . S
C1445 H1449 0.950 . S
H1446 C1442 0.950 . S
C1447 C1445 1.390 . S
C1447 C1448 1.387 . S
C1447 H1450 0.950 1_455 S
C1448 C1447 1.387 . S
C1448 C1451 1.387 . S
H1449 C1445 0.950 . S
H1450 C1447 0.950 1_655 S
C1451 C1442 1.390 . S
C1451 H1444 0.950 . S
C1451 C1448 1.387 . S
C1452 C1453 1.387 . S
C1452 H1456 0.950 . S
C1452 C1461 1.390 . S
C1453 C1452 1.387 . S
C1453 C1455 1.387 1_455 S
H1454 C1461 0.950 . S
C1455 C1453 1.387 1_655 S
C1455 C1457 1.390 . S
C1455 H1459 0.950 . S
H1456 C1452 0.950 . S
C1457 C1455 1.390 . S
C1457 C1458 1.387 . S
C1457 H1460 0.950 . S
C1458 C1457 1.387 . S
C1458 C1461 1.387 1_655 S
H1459 C1455 0.950 . S
H1460 C1457 0.950 . S
C1461 C1452 1.390 . S
C1461 H1454 0.950 . S
C1461 C1458 1.387 1_455 S
C1462 C1463 1.387 . S
C1462 H1466 0.950 . S
C1462 C1471 1.390 . S
C1463 C1462 1.387 . S
C1463 C1465 1.387 . S
H1464 C1471 0.950 . S
C1465 C1463 1.387 . S
C1465 C1467 1.390 . S
C1465 H1469 0.950 . S
H1466 C1462 0.950 . S
C1467 C1465 1.390 . S
C1467 C1468 1.387 . S
C1467 H1470 0.950 . S
C1468 C1467 1.387 . S
C1468 C1471 1.387 . S
H1469 C1465 0.950 . S
H1470 C1467 0.950 . S
C1471 C1462 1.390 . S
C1471 H1464 0.950 . S
C1471 C1468 1.387 . S
C1472 C1473 1.387 . S
C1472 H1476 0.950 . S
C1472 C1481 1.390 1_565 S
C1473 C1472 1.387 . S
C1473 C1475 1.387 . S
H1474 C1481 0.950 . S
C1475 C1473 1.387 . S
C1475 C1477 1.390 1_565 S
C1475 H1479 0.950 . S
H1476 C1472 0.950 . S
C1477 C1475 1.390 1_545 S
C1477 C1478 1.387 . S
C1477 H1480 0.950 . S
C1478 C1477 1.387 . S
C1478 C1481 1.387 . S
H1479 C1475 0.950 . S
H1480 C1477 0.950 . S
C1481 C1472 1.390 1_545 S
C1481 H1474 0.950 . S
C1481 C1478 1.387 . S
C1482 C1483 1.387 . S
C1482 H1486 0.950 . S
C1482 C1491 1.390 1_565 S
C1483 C1482 1.387 . S
C1483 C1485 1.387 . S
H1484 C1491 0.950 . S
C1485 C1483 1.387 . S
C1485 C1487 1.390 1_565 S
C1485 H1489 0.950 . S
H1486 C1482 0.950 . S
C1487 C1485 1.390 1_545 S
C1487 C1488 1.387 . S
C1487 H1490 0.950 . S
C1488 C1487 1.387 . S
C1488 C1491 1.387 . S
H1489 C1485 0.950 . S
H1490 C1487 0.950 . S
C1491 C1482 1.390 1_545 S
C1491 H1484 0.950 . S
C1491 C1488 1.387 . S
C1492 C1493 1.387 . S
C1492 H1496 0.950 . S
C1492 C1501 1.390 . S
C1493 C1492 1.387 . S
C1493 C1495 1.387 1_655 S
H1494 C1501 0.950 . S
C1495 C1493 1.387 1_455 S
C1495 C1497 1.390 . S
C1495 H1499 0.950 . S
H1496 C1492 0.950 . S
C1497 C1495 1.390 . S
C1497 C1498 1.387 . S
C1497 H1500 0.950 . S
C1498 C1497 1.387 . S
C1498 C1501 1.387 1_455 S
H1499 C1495 0.950 . S
H1500 C1497 0.950 . S
C1501 C1492 1.390 . S
C1501 H1494 0.950 . S
C1501 C1498 1.387 1_655 S
C1502 C1503 1.387 . S
C1502 H1506 0.950 . S
C1502 C1511 1.390 . S
C1503 C1502 1.387 . S
C1503 C1505 1.387 . S
H1504 C1511 0.950 . S
C1505 C1503 1.387 . S
C1505 C1507 1.390 . S
C1505 H1509 0.950 . S
H1506 C1502 0.950 . S
C1507 C1505 1.390 . S
C1507 C1508 1.387 . S
C1507 H1510 0.950 . S
C1508 C1507 1.387 . S
C1508 C1511 1.387 . S
H1509 C1505 0.950 . S
H1510 C1507 0.950 . S
C1511 C1502 1.390 . S
C1511 H1504 0.950 . S
C1511 C1508 1.387 . S
C1512 C1513 1.381 1_455 S
C1512 H1516 0.930 1_455 S
C1512 C1521 1.418 . S
C1513 C1512 1.381 1_655 S
C1513 C1515 1.387 . S
H1514 C1521 0.950 . S
C1515 C1513 1.387 . S
C1515 C1517 1.390 1_655 S
C1515 H1519 0.950 . S
H1516 C1512 0.930 1_655 S
C1517 C1515 1.390 1_455 S
C1517 C1518 1.387 . S
C1517 H1520 0.950 . S
C1518 C1517 1.387 . S
C1518 C1521 1.387 . S
H1519 C1515 0.950 . S
H1520 C1517 0.950 . S
C1521 C1512 1.418 . S
C1521 H1514 0.950 . S
C1521 C1518 1.387 . S
C1522 C1523 1.387 . S
C1522 H1526 0.950 . S
C1522 C1531 1.390 . S
C1523 C1522 1.387 . S
C1523 C1525 1.387 . S
H1524 C1531 0.950 . S
C1525 C1523 1.387 . S
C1525 C1527 1.390 . S
C1525 H1529 0.950 . S
H1526 C1522 0.950 . S
C1527 C1525 1.390 . S
C1527 C1528 1.387 . S
C1527 H1530 0.950 . S
C1528 C1527 1.387 . S
C1528 C1531 1.387 . S
H1529 C1525 0.950 . S
H1530 C1527 0.950 . S
C1531 C1522 1.390 . S
C1531 H1524 0.950 . S
C1531 C1528 1.387 . S
C1532 C1533 1.387 . S
C1532 H1536 0.950 . S
C1532 C1541 1.390 1_545 S
C1533 C1532 1.387 . S
C1533 C1535 1.387 1_545 S
H1534 C1541 0.950 . S
C1535 C1533 1.387 1_565 S
C1535 C1537 1.390 . S
C1535 H1539 0.950 1_565 S
H1536 C1532 0.950 . S
C1537 C1535 1.390 . S
C1537 C1538 1.387 . S
C1537 H1540 0.950 . S
C1538 C1537 1.387 . S
C1538 C1541 1.387 . S
H1539 C1535 0.950 1_545 S
H1540 C1537 0.950 . S
C1541 C1532 1.390 1_565 S
C1541 H1534 0.950 . S
C1541 C1538 1.387 . S
C1542 C1543 1.387 . S
C1542 H1546 0.950 . S
C1542 C1551 1.390 1_545 S
C1543 C1542 1.387 . S
C1543 C1545 1.387 . S
H1544 C1551 0.950 . S
C1545 C1543 1.387 . S
C1545 C1547 1.390 1_545 S
C1545 H1549 0.950 . S
H1546 C1542 0.950 . S
C1547 C1545 1.390 1_565 S
C1547 C1548 1.387 . S
C1547 H1550 0.950 . S
C1548 C1547 1.387 . S
C1548 C1551 1.387 . S
H1549 C1545 0.950 . S
H1550 C1547 0.950 . S
C1551 C1542 1.390 1_565 S
C1551 H1544 0.950 . S
C1551 C1548 1.387 . S
C1552 C1553 1.387 1_655 S
C1552 H1556 0.950 1_655 S
C1552 C1561 1.390 . S
C1553 C1552 1.387 1_455 S
C1553 C1555 1.387 . S
H1554 C1561 0.950 . S
C1555 C1553 1.387 . S
C1555 C1557 1.390 1_455 S
C1555 H1559 0.950 . S
H1556 C1552 0.950 1_455 S
C1557 C1555 1.390 1_655 S
C1557 C1558 1.387 . S
C1557 H1560 0.950 . S
C1558 C1557 1.387 . S
C1558 C1561 1.387 . S
H1559 C1555 0.950 . S
H1560 C1557 0.950 . S
C1561 C1552 1.390 . S
C1561 H1554 0.950 . S
C1561 C1558 1.387 . S
C1562 C1563 1.387 . S
C1562 H1566 0.950 . S
C1562 C1571 1.390 . S
C1563 C1562 1.387 . S
C1563 C1565 1.387 . S
H1564 C1571 0.950 . S
C1565 C1563 1.387 . S
C1565 C1567 1.390 . S
C1565 H1569 0.950 . S
H1566 C1562 0.950 . S
C1567 C1565 1.390 . S
C1567 C1568 1.387 . S
C1567 H1570 0.950 . S
C1568 C1567 1.387 . S
C1568 C1571 1.387 . S
H1569 C1565 0.950 . S
H1570 C1567 0.950 . S
C1571 C1562 1.390 . S
C1571 H1564 0.950 . S
C1571 C1568 1.387 . S
C1572 C1573 1.387 1_655 S
C1572 H1576 0.950 1_655 S
C1572 C1581 1.390 . S
C1573 C1572 1.387 1_455 S
C1573 C1575 1.387 . S
H1574 C1581 0.950 . S
C1575 C1573 1.387 . S
C1575 C1577 1.390 1_455 S
C1575 H1579 0.950 . S
H1576 C1572 0.950 1_455 S
C1577 C1575 1.390 1_655 S
C1577 C1578 1.387 . S
C1577 H1580 0.950 . S
C1578 C1577 1.387 . S
C1578 C1581 1.387 . S
H1579 C1575 0.950 . S
H1580 C1577 0.950 . S
C1581 C1572 1.390 . S
C1581 H1574 0.950 . S
C1581 C1578 1.387 . S
C1582 C1583 1.387 . S
C1582 H1586 0.950 . S
C1582 C1591 1.390 . S
C1583 C1582 1.387 . S
C1583 C1585 1.387 . S
H1584 C1591 0.950 . S
C1585 C1583 1.387 . S
C1585 C1587 1.390 . S
C1585 H1589 0.950 . S
H1586 C1582 0.950 . S
C1587 C1585 1.390 . S
C1587 C1588 1.387 . S
C1587 H1590 0.950 . S
C1588 C1587 1.387 . S
C1588 C1591 1.387 . S
H1589 C1585 0.950 . S
H1590 C1587 0.950 . S
C1591 C1582 1.390 . S
C1591 H1584 0.950 . S
C1591 C1588 1.387 . S
C1592 C1593 1.387 . S
C1592 H1596 0.950 . S
C1592 C1601 1.390 1_565 S
C1593 C1592 1.387 . S
C1593 C1595 1.387 . S
H1594 C1601 0.950 . S
C1595 C1593 1.387 . S
C1595 C1597 1.390 1_565 S
C1595 H1599 0.950 . S
H1596 C1592 0.950 . S
C1597 C1595 1.390 1_545 S
C1597 C1598 1.387 . S
C1597 H1600 0.950 . S
C1598 C1597 1.387 . S
C1598 C1601 1.387 . S
H1599 C1595 0.950 . S
H1600 C1597 0.950 . S
C1601 C1592 1.390 1_545 S
C1601 H1594 0.950 . S
C1601 C1598 1.387 . S
C1602 C1603 1.387 . S
C1602 H1606 0.950 . S
C1602 C1611 1.390 1_545 S
C1603 C1602 1.387 . S
C1603 C1605 1.373 1_545 S
H1604 C1611 0.950 . S
C1605 C1603 1.373 1_565 S
C1605 C1607 1.408 . S
C1605 H1609 0.946 1_565 S
H1606 C1602 0.950 . S
C1607 C1605 1.408 . S
C1607 C1608 1.387 . S
C1607 H1610 0.950 . S
C1608 C1607 1.387 . S
C1608 C1611 1.387 . S
H1609 C1605 0.946 1_545 S
H1610 C1607 0.950 . S
C1611 C1602 1.390 1_565 S
C1611 H1604 0.950 . S
C1611 C1608 1.387 . S
C1612 C1613 1.387 1_455 S
C1612 H1616 0.950 1_455 S
C1612 C1621 1.390 . S
C1613 C1612 1.387 1_655 S
C1613 C1615 1.387 . S
H1614 C1621 0.950 . S
C1615 C1613 1.387 . S
C1615 C1617 1.390 1_655 S
C1615 H1619 0.950 . S
H1616 C1612 0.950 1_655 S
C1617 C1615 1.390 1_455 S
C1617 C1618 1.387 . S
C1617 H1620 0.950 . S
C1618 C1617 1.387 . S
C1618 C1621 1.387 . S
H1619 C1615 0.950 . S
H1620 C1617 0.950 . S
C1621 C1612 1.390 . S
C1621 H1614 0.950 . S
C1621 C1618 1.387 . S
C1622 C1623 1.387 . S
C1622 H1626 0.950 . S
C1622 C1631 1.390 . S
C1623 C1622 1.387 . S
C1623 C1625 1.387 . S
H1624 C1631 0.950 . S
C1625 C1623 1.387 . S
C1625 C1627 1.390 . S
C1625 H1629 0.950 . S
H1626 C1622 0.950 . S
C1627 C1625 1.390 . S
C1627 C1628 1.387 . S
C1627 H1630 0.950 . S
C1628 C1627 1.387 . S
C1628 C1631 1.387 . S
H1629 C1625 0.950 . S
H1630 C1627 0.950 . S
C1631 C1622 1.390 . S
C1631 H1624 0.950 . S
C1631 C1628 1.387 . S
C1632 C1633 1.387 . S
C1632 H1636 0.950 . S
C1632 C1641 1.390 . S
C1633 C1632 1.387 . S
C1633 C1635 1.387 . S
H1634 C1641 0.950 . S
C1635 C1633 1.387 . S
C1635 C1637 1.390 . S
C1635 H1639 0.950 . S
H1636 C1632 0.950 . S
C1637 C1635 1.390 . S
C1637 C1638 1.387 . S
C1637 H1640 0.950 . S
C1638 C1637 1.387 . S
C1638 C1641 1.387 . S
H1639 C1635 0.950 . S
H1640 C1637 0.950 . S
C1641 C1632 1.390 . S
C1641 H1634 0.950 . S
C1641 C1638 1.387 . S
C1642 C1643 1.387 . S
C1642 H1646 0.950 . S
C1642 C1651 1.390 . S
C1643 C1642 1.387 . S
C1643 C1645 1.387 . S
H1644 C1651 0.950 . S
C1645 C1643 1.387 . S
C1645 C1647 1.390 . S
C1645 H1649 0.950 . S
H1646 C1642 0.950 . S
C1647 C1645 1.390 . S
C1647 C1648 1.387 . S
C1647 H1650 0.950 . S
C1648 C1647 1.387 . S
C1648 C1651 1.387 . S
H1649 C1645 0.950 . S
H1650 C1647 0.950 . S
C1651 C1642 1.390 . S
C1651 H1644 0.950 . S
C1651 C1648 1.387 . S
C1652 C1653 1.387 . S
C1652 H1656 0.950 . S
C1652 C1661 1.390 . S
C1653 C1652 1.387 . S
C1653 C1655 1.387 . S
H1654 C1661 0.950 . S
C1655 C1653 1.387 . S
C1655 C1657 1.390 . S
C1655 H1659 0.950 . S
H1656 C1652 0.950 . S
C1657 C1655 1.390 . S
C1657 C1658 1.387 . S
C1657 H1660 0.950 . S
C1658 C1657 1.387 . S
C1658 C1661 1.387 . S
H1659 C1655 0.950 . S
H1660 C1657 0.950 . S
C1661 C1652 1.390 . S
C1661 H1654 0.950 . S
C1661 C1658 1.387 . S
C1662 C1663 1.387 . S
C1662 H1666 0.950 . S
C1662 C1671 1.390 . S
C1663 C1662 1.387 . S
C1663 C1665 1.387 . S
H1664 C1671 0.950 . S
C1665 C1663 1.387 . S
C1665 C1667 1.390 . S
C1665 H1669 0.950 . S
H1666 C1662 0.950 . S
C1667 C1665 1.390 . S
C1667 C1668 1.387 . S
C1667 H1670 0.950 . S
C1668 C1667 1.387 . S
C1668 C1671 1.387 . S
H1669 C1665 0.950 . S
H1670 C1667 0.950 . S
C1671 C1662 1.390 . S
C1671 H1664 0.950 . S
C1671 C1668 1.387 . S
C1672 C1673 1.387 . S
C1672 H1676 0.950 . S
C1672 C1681 1.390 . S
C1673 C1672 1.387 . S
C1673 C1675 1.387 . S
H1674 C1681 0.950 . S
C1675 C1673 1.387 . S
C1675 C1677 1.390 . S
C1675 H1679 0.950 . S
H1676 C1672 0.950 . S
C1677 C1675 1.390 . S
C1677 C1678 1.387 . S
C1677 H1680 0.950 . S
C1678 C1677 1.387 . S
C1678 C1681 1.387 . S
H1679 C1675 0.950 . S
H1680 C1677 0.950 . S
C1681 C1672 1.390 . S
C1681 H1674 0.950 . S
C1681 C1678 1.387 . S
C1682 C1683 1.387 . S
C1682 H1686 0.950 . S
C1682 C1691 1.390 . S
C1683 C1682 1.387 . S
C1683 C1685 1.387 . S
H1684 C1691 0.950 . S
C1685 C1683 1.387 . S
C1685 C1687 1.390 . S
C1685 H1689 0.950 . S
H1686 C1682 0.950 . S
C1687 C1685 1.390 . S
C1687 C1688 1.387 . S
C1687 H1690 0.950 . S
C1688 C1687 1.387 . S
C1688 C1691 1.387 . S
H1689 C1685 0.950 . S
H1690 C1687 0.950 . S
C1691 C1682 1.390 . S
C1691 H1684 0.950 . S
C1691 C1688 1.387 . S
C1692 C1693 1.387 . S
C1692 H1696 0.950 . S
C1692 C1701 1.390 . S
C1693 C1692 1.387 . S
C1693 C1695 1.387 . S
H1694 C1701 0.950 . S
C1695 C1693 1.387 . S
C1695 C1697 1.390 . S
C1695 H1699 0.950 . S
H1696 C1692 0.950 . S
C1697 C1695 1.390 . S
C1697 C1698 1.387 . S
C1697 H1700 0.950 . S
C1698 C1697 1.387 . S
C1698 C1701 1.387 . S
H1699 C1695 0.950 . S
H1700 C1697 0.950 . S
C1701 C1692 1.390 . S
C1701 H1694 0.950 . S
C1701 C1698 1.387 . S
C1702 C1703 1.387 . S
C1702 H1706 0.950 . S
C1702 C1711 1.390 . S
C1703 C1702 1.387 . S
C1703 C1705 1.387 . S
H1704 C1711 0.950 . S
C1705 C1703 1.387 . S
C1705 C1707 1.390 . S
C1705 H1709 0.950 . S
H1706 C1702 0.950 . S
C1707 C1705 1.390 . S
C1707 C1708 1.387 . S
C1707 H1710 0.950 . S
C1708 C1707 1.387 . S
C1708 C1711 1.387 . S
H1709 C1705 0.950 . S
H1710 C1707 0.950 . S
C1711 C1702 1.390 . S
C1711 H1704 0.950 . S
C1711 C1708 1.387 . S
C1712 C1713 1.387 . S
C1712 H1716 0.950 . S
C1712 C1721 1.390 . S
C1713 C1712 1.387 . S
C1713 C1715 1.387 . S
H1714 C1721 0.950 . S
C1715 C1713 1.387 . S
C1715 C1717 1.390 . S
C1715 H1719 0.950 . S
H1716 C1712 0.950 . S
C1717 C1715 1.390 . S
C1717 C1718 1.387 . S
C1717 H1720 0.950 . S
C1718 C1717 1.387 . S
C1718 C1721 1.387 . S
H1719 C1715 0.950 . S
H1720 C1717 0.950 . S
C1721 C1712 1.390 . S
C1721 H1714 0.950 . S
C1721 C1718 1.387 . S
C1722 C1723 1.387 . S
C1722 H1726 0.950 . S
C1722 C1731 1.390 . S
C1723 C1722 1.387 . S
C1723 C1725 1.387 . S
H1724 C1731 0.950 . S
C1725 C1723 1.387 . S
C1725 C1727 1.390 . S
C1725 H1729 0.950 . S
H1726 C1722 0.950 . S
C1727 C1725 1.390 . S
C1727 C1728 1.387 . S
C1727 H1730 0.950 1_556 S
C1728 C1727 1.387 . S
C1728 C1731 1.387 . S
H1729 C1725 0.950 . S
H1730 C1727 0.950 1_554 S
C1731 C1722 1.390 . S
C1731 H1724 0.950 . S
C1731 C1728 1.387 . S
C1732 C1733 1.387 1_554 S
C1732 H1736 0.950 . S
C1732 C1741 1.390 . S
C1733 C1732 1.387 1_556 S
C1733 C1735 1.387 . S
H1734 C1741 0.950 . S
C1735 C1733 1.387 . S
C1735 C1737 1.390 . S
C1735 H1739 0.950 . S
H1736 C1732 0.950 . S
C1737 C1735 1.390 . S
C1737 C1738 1.387 . S
C1737 H1740 0.950 . S
C1738 C1737 1.387 . S
C1738 C1741 1.387 1_556 S
H1739 C1735 0.950 . S
H1740 C1737 0.950 . S
C1741 C1732 1.390 . S
C1741 H1734 0.950 . S
C1741 C1738 1.387 1_554 S
C1742 C1743 1.387 1_554 S
C1742 H1746 0.950 . S
C1742 C1751 1.390 . S
C1743 C1742 1.387 1_556 S
C1743 C1745 1.387 . S
H1744 C1751 0.950 . S
C1745 C1743 1.387 . S
C1745 C1747 1.390 . S
C1745 H1749 0.950 . S
H1746 C1742 0.950 . S
C1747 C1745 1.390 . S
C1747 C1748 1.387 . S
C1747 H1750 0.950 . S
C1748 C1747 1.387 . S
C1748 C1751 1.387 1_556 S
H1749 C1745 0.950 . S
H1750 C1747 0.950 . S
C1751 C1742 1.390 . S
C1751 H1744 0.950 . S
C1751 C1748 1.387 1_554 S
C1752 C1753 1.387 . S
C1752 H1756 0.950 . S
C1752 C1761 1.390 . S
C1753 C1752 1.387 . S
C1753 C1755 1.387 . S
H1754 C1761 0.950 . S
C1755 C1753 1.387 . S
C1755 C1757 1.390 . S
C1755 H1759 0.950 . S
H1756 C1752 0.950 . S
C1757 C1755 1.390 . S
C1757 C1758 1.387 . S
C1757 H1760 0.950 . S
C1758 C1757 1.387 . S
C1758 C1761 1.387 . S
H1759 C1755 0.950 . S
H1760 C1757 0.950 . S
C1761 C1752 1.390 . S
C1761 H1754 0.950 . S
C1761 C1758 1.387 . S
C1762 C1763 1.387 . S
C1762 H1766 0.950 . S
C1762 C1771 1.390 . S
C1763 C1762 1.387 . S
C1763 C1765 1.387 . S
H1764 C1771 0.950 . S
C1765 C1763 1.387 . S
C1765 C1767 1.390 . S
C1765 H1769 0.950 . S
H1766 C1762 0.950 . S
C1767 C1765 1.390 . S
C1767 C1768 1.387 . S
C1767 H1770 0.950 . S
C1768 C1767 1.387 . S
C1768 C1771 1.387 . S
H1769 C1765 0.950 . S
H1770 C1767 0.950 . S
C1771 C1762 1.390 . S
C1771 H1764 0.950 . S
C1771 C1768 1.387 . S
C1772 C1773 1.387 . S
C1772 H1776 0.950 . S
C1772 C1781 1.390 . S
C1773 C1772 1.387 . S
C1773 C1775 1.387 . S
H1774 C1781 0.950 . S
C1775 C1773 1.387 . S
C1775 C1777 1.390 . S
C1775 H1779 0.950 . S
H1776 C1772 0.950 . S
C1777 C1775 1.390 . S
C1777 C1778 1.387 . S
C1777 H1780 0.950 . S
C1778 C1777 1.387 . S
C1778 C1781 1.387 . S
H1779 C1775 0.950 . S
H1780 C1777 0.950 . S
C1781 C1772 1.390 . S
C1781 H1774 0.950 . S
C1781 C1778 1.387 . S
C1782 C1783 1.387 . S
C1782 H1786 0.950 . S
C1782 C1791 1.390 . S
C1783 C1782 1.387 . S
C1783 C1785 1.387 . S
H1784 C1791 0.950 . S
C1785 C1783 1.387 . S
C1785 C1787 1.390 . S
C1785 H1789 0.950 . S
H1786 C1782 0.950 . S
C1787 C1785 1.390 . S
C1787 C1788 1.387 . S
C1787 H1790 0.950 . S
C1788 C1787 1.387 . S
C1788 C1791 1.387 . S
H1789 C1785 0.950 . S
H1790 C1787 0.950 . S
C1791 C1782 1.390 . S
C1791 H1784 0.950 . S
C1791 C1788 1.387 . S
C1792 C1793 1.387 . S
C1792 H1796 0.950 . S
C1792 C1801 1.390 . S
C1793 C1792 1.387 . S
C1793 C1795 1.387 1_554 S
H1794 C1801 0.950 . S
C1795 C1793 1.387 1_556 S
C1795 C1797 1.390 . S
C1795 H1799 0.950 . S
H1796 C1792 0.950 . S
C1797 C1795 1.390 . S
C1797 C1798 1.387 1_556 S
C1797 H1800 0.950 . S
C1798 C1797 1.387 1_554 S
C1798 C1801 1.387 . S
H1799 C1795 0.950 . S
H1800 C1797 0.950 . S
C1801 C1792 1.390 . S
C1801 H1794 0.950 . S
C1801 C1798 1.387 . S
C1802 C1803 1.387 . S
C1802 H1806 0.934 1_554 S
C1802 C1811 1.390 . S
C1803 C1802 1.387 . S
C1803 C1805 1.387 . S
H1804 C1811 0.950 . S
C1805 C1803 1.387 . S
C1805 C1807 1.390 . S
C1805 H1809 0.950 . S
H1806 C1802 0.934 1_556 S
C1807 C1805 1.390 . S
C1807 C1808 1.387 . S
C1807 H1810 0.950 . S
C1808 C1807 1.387 . S
C1808 C1811 1.387 . S
H1809 C1805 0.950 . S
H1810 C1807 0.950 . S
C1811 C1802 1.390 . S
C1811 H1804 0.950 . S
C1811 C1808 1.387 . S
C1812 C1813 1.387 . S
C1812 H1816 0.950 . S
C1812 C1821 1.390 . S
C1813 C1812 1.387 . S
C1813 C1815 1.387 . S
H1814 C1821 0.950 . S
C1815 C1813 1.387 . S
C1815 C1817 1.390 . S
C1815 H1819 0.950 . S
H1816 C1812 0.950 . S
C1817 C1815 1.390 . S
C1817 C1818 1.387 . S
C1817 H1820 0.950 . S
C1818 C1817 1.387 . S
C1818 C1821 1.387 . S
H1819 C1815 0.950 . S
H1820 C1817 0.950 . S
C1821 C1812 1.390 . S
C1821 H1814 0.950 . S
C1821 C1818 1.387 . S
C1822 C1823 1.387 . S
C1822 H1826 0.950 . S
C1822 C1831 1.390 . S
C1823 C1822 1.387 . S
C1823 C1825 1.387 . S
H1824 C1831 0.950 . S
C1825 C1823 1.387 . S
C1825 C1827 1.390 . S
C1825 H1829 0.950 . S
H1826 C1822 0.950 . S
C1827 C1825 1.390 . S
C1827 C1828 1.387 . S
C1827 H1830 0.950 . S
C1828 C1827 1.387 . S
C1828 C1831 1.387 . S
H1829 C1825 0.950 . S
H1830 C1827 0.950 . S
C1831 C1822 1.390 . S
C1831 H1824 0.950 . S
C1831 C1828 1.387 . S
C1832 C1833 1.387 . S
C1832 H1836 0.950 . S
C1832 C1841 1.390 . S
C1833 C1832 1.387 . S
C1833 C1835 1.387 . S
H1834 C1841 0.950 . S
C1835 C1833 1.387 . S
C1835 C1837 1.390 . S
C1835 H1839 0.950 . S
H1836 C1832 0.950 . S
C1837 C1835 1.390 . S
C1837 C1838 1.387 . S
C1837 H1840 0.950 . S
C1838 C1837 1.387 . S
C1838 C1841 1.387 . S
H1839 C1835 0.950 . S
H1840 C1837 0.950 . S
C1841 C1832 1.390 . S
C1841 H1834 0.950 . S
C1841 C1838 1.387 . S
C1842 C1843 1.387 . S
C1842 H1846 0.950 . S
C1842 C1851 1.390 . S
C1843 C1842 1.387 . S
C1843 C1845 1.387 . S
H1844 C1851 0.950 . S
C1845 C1843 1.387 . S
C1845 C1847 1.390 . S
C1845 H1849 0.950 . S
H1846 C1842 0.950 . S
C1847 C1845 1.390 . S
C1847 C1848 1.387 . S
C1847 H1850 0.950 . S
C1848 C1847 1.387 . S
C1848 C1851 1.387 . S
H1849 C1845 0.950 . S
H1850 C1847 0.950 . S
C1851 C1842 1.390 . S
C1851 H1844 0.950 . S
C1851 C1848 1.387 . S
C1852 C1853 1.387 . S
C1852 H1856 0.950 . S
C1852 C1861 1.390 . S
C1853 C1852 1.387 . S
C1853 C1855 1.387 . S
H1854 C1861 0.950 . S
C1855 C1853 1.387 . S
C1855 C1857 1.390 . S
C1855 H1859 0.950 . S
H1856 C1852 0.950 . S
C1857 C1855 1.390 . S
C1857 C1858 1.387 . S
C1857 H1860 0.950 . S
C1858 C1857 1.387 . S
C1858 C1861 1.387 . S
H1859 C1855 0.950 . S
H1860 C1857 0.950 . S
C1861 C1852 1.390 . S
C1861 H1854 0.950 . S
C1861 C1858 1.387 . S
C1862 C1863 1.387 . S
C1862 H1866 0.950 . S
C1862 C1871 1.390 . S
C1863 C1862 1.387 . S
C1863 C1865 1.387 . S
H1864 C1871 0.950 . S
C1865 C1863 1.387 . S
C1865 C1867 1.390 . S
C1865 H1869 0.950 . S
H1866 C1862 0.950 . S
C1867 C1865 1.390 . S
C1867 C1868 1.387 . S
C1867 H1870 0.950 . S
C1868 C1867 1.387 . S
C1868 C1871 1.387 . S
H1869 C1865 0.950 . S
H1870 C1867 0.950 . S
C1871 C1862 1.390 . S
C1871 H1864 0.950 . S
C1871 C1868 1.387 . S
C793 C169 1.004 . S
C798 C10 1.003 . S
C803 C183 1.004 . S
C808 C32 1.003 . S
C813 C139 1.003 . S
C818 C52 1.004 . S
C823 C84 1.004 . S
C828 C257 1.003 . S
C833 C219 1.005 . S
C838 C98 1.002 . S
C843 C120 1.002 . S
C848 C235 1.005 . S
C853 C37 1.002 . S
C858 C150 1.003 . S
C863 C65 1.002 . S
C868 C164 1.004 . S
C873 C15 1.003 . S
C878 C194 1.004 . S
C883 C206 1.002 . S
C888 C125 1.004 . S
C893 C230 1.003 . S
C898 C73 1.002 . S
C903 C103 1.004 . S
C908 C252 1.002 . S
C913 C274 1.004 . S
C918 C433 1.003 . S
C923 C455 1.004 . S
C928 C294 1.003 . S
C933 C316 1.003 . S
C938 C403 1.002 . S
C943 C348 1.003 . S
C948 C521 1.003 . S
C953 C362 1.004 . S
C958 C477 1.002 . S
C963 C505 1.002 . S
C968 C384 1.003 . S
C973 C307 1.002 . S
C978 C414 1.003 . S
C983 C329 1.005 . S
C988 C428 1.001 . S
C993 C279 1.003 . S
C998 C450 1.002 . S
C1003 C472 1.002 . S
C1008 C389 1.003 . S
C1013 C492 1.005 . S
C1018 C337 1.002 . S
C1023 C367 1.004 . S
C1028 C516 1.003 . S
C1033 C538 1.004 . S
C1038 C689 1.002 . S
C1043 C558 1.002 . S
C1048 C719 1.005 . S
C1053 C582 1.002 . S
C1058 C667 1.004 . S
C1063 C785 1.003 . S
C1068 C604 1.002 . S
C1073 C634 1.003 . S
C1078 C741 1.002 . S
C1083 C646 1.003 . S
C1088 C763 1.002 . S
C1093 C571 1.005 . S
C1098 C678 1.002 . S
C1103 C587 1.005 . S
C1108 C700 1.002 . S
C1113 C543 1.003 . S
C1118 C714 1.004 . S
C1123 C736 1.002 . S
C1128 C659 1.004 . S
C1133 C758 1.003 . S
C1138 C609 1.002 . S
C1143 C780 1.005 . S
C1148 C623 1.002 . S
C1153 C8 1.378 . S
C1158 C406 1.378 . S
C1163 C426 1.378 . S
C1168 C30 1.378 . S
C1173 C62 1.378 . S
C1178 C448 1.378 . S
C1183 C734 1.378 . S
C1188 C76 1.378 . S
C1193 C96 1.379 . S
C1198 C756 1.379 . S
C1203 C778 1.378 . S
C1208 C118 1.378 . S
C1213 C536 1.378 . S
C1218 C142 1.378 . S
C1223 C162 1.379 . S
C1228 C568 1.379 . S
C1233 C186 1.378 . S
C1238 C580 1.378 . S
C1243 C340 1.378 . S
C1248 C216 1.378 . S
C1253 C228 1.378 . S
C1258 C360 1.378 . S
C1263 C382 1.378 . S
C1268 C250 1.378 . S
C1273 C272 1.378 . S
C1278 C670 1.378 . S
C1283 C692 1.379 . S
C1288 C304 1.379 . S
C1293 C326 1.379 . S
C1298 C712 1.379 . S
C1303 C470 1.379 . S
C1308 C602 1.379 . S
C1313 C626 1.379 . S
C1318 C502 1.379 . S
C1323 C514 1.378 . S
C1328 C656 1.378 . S
C1333 C21 2.009 . S
C1338 C645 2.009 . S
C1343 C615 2.012 . S
C1348 C43 2.011 . S
C1353 C631 2.012 . S
C1358 C51 2.012 . S
C1363 C293 2.012 . S
C1368 C81 2.010 . S
C1373 C109 2.012 . S
C1378 C315 2.012 . S
C1383 C285 2.012 . S
C1388 C131 2.012 . S
C1393 C147 2.012 . S
C1398 C527 2.012 . S
C1403 C483 2.012 . S
C1408 C175 2.012 . S
C1413 C191 2.012 . S
C1418 C491 2.011 . S
C1423 C697 2.012 . S
C1428 C205 2.012 . S
C1433 C241 2.010 . S
C1438 C725 2.009 . S
C1443 C675 2.012 . S
C1448 C263 2.012 . S
C1453 C557 2.011 . S
C1458 C345 2.012 . S
C1463 C593 2.012 . S
C1468 C373 2.012 . S
C1473 C549 2.009 . S
C1478 C395 2.009 . S
C1483 C791 2.009 . S
C1488 C411 2.009 . S
C1493 C439 2.010 . S
C1498 C747 2.009 . S
C1503 C769 2.012 . S
C1508 C461 2.012 . S
C1513 C40 1.333 . S
C1518 C7 1.331 . S
C1523 C29 1.334 . S
C1528 C54 1.333 . S
C1533 C18 1.333 . S
C1538 C59 1.334 . S
C1543 C87 1.331 . S
C1548 C128 1.336 . S
C1553 C74 1.334 . S
C1558 C95 1.330 . S
C1563 C106 1.333 . S
C1568 C117 1.334 . S
C1573 C172 1.333 . S
C1578 C153 1.334 . S
C1583 C161 1.334 . S
C1588 C184 1.333 . S
C1593 C140 1.332 . S
C1598 C197 1.332 . S
C1603 C260 1.335 . S
C1608 C213 1.330 . S
C1613 C208 1.333 . S
C1618 C227 1.334 . S
C1623 C238 1.333 . S
C1628 C249 1.330 . S
C1633 C296 1.333 . S
C1638 C271 1.330 . S
C1643 C301 1.334 . S
C1648 C318 1.333 . S
C1653 C323 1.333 . S
C1658 C282 1.335 . S
C1663 C351 1.331 . S
C1668 C392 1.336 . S
C1673 C359 1.334 . S
C1678 C338 1.333 . S
C1683 C381 1.334 . S
C1688 C370 1.334 . S
C1693 C436 1.334 . S
C1698 C417 1.334 . S
C1703 C458 1.335 . S
C1708 C425 1.330 . S
C1713 C404 1.335 . S
C1718 C447 1.332 . S
C1723 C469 1.331 . S
C1728 C524 1.332 . S
C1733 C499 1.334 . S
C1738 C480 1.333 . S
C1743 C513 1.334 . S
C1748 C494 1.334 . S
C1753 C560 1.334 . S
C1758 C535 1.330 . S
C1763 C565 1.330 . S
C1768 C590 1.334 . S
C1773 C546 1.336 . S
C1778 C579 1.331 . S
C1783 C601 1.332 . S
C1788 C648 1.332 . S
C1793 C637 1.334 . S
C1798 C612 1.333 . S
C1803 C624 1.335 . S
C1808 C653 1.331 . S
C1813 C690 1.333 . S
C1818 C681 1.334 . S
C1823 C722 1.333 . S
C1828 C703 1.334 . S
C1833 C668 1.335 . S
C1838 C711 1.330 . S
C1843 C733 1.332 . S
C1848 C788 1.335 . S
C1853 C755 1.334 . S
C1858 C744 1.333 . S
C1863 C766 1.333 . S
C1868 C777 1.334 . S
