# Generated by pormake.
# Topology uni, (4)-cn, num edge types: 1
# Building blocks:
#     Node 0, Type 0, BuildingBlock: NAHDIM_clean_sbu_0, # of connection points: 4
#     Node 1, Type 0, BuildingBlock: NAHDIM_clean_sbu_0, # of connection points: 4
#     Node 2, Type 0, BuildingBlock: NAHDIM_clean_sbu_0, # of connection points: 4
#     Node 3, Type 0, BuildingBlock: NAHDIM_clean_sbu_0, # of connection points: 4
#     Node 4, Type 0, BuildingBlock: NAHDIM_clean_sbu_0, # of connection points: 4
#     Node 5, Type 0, BuildingBlock: NAHDIM_clean_sbu_0, # of connection points: 4
#     Edge 6, Type (0, 0), BuildingBlock: FUNLAD_clean_linker_1, # of connection points: 2
#     Edge 7, Type (0, 0), BuildingBlock: FUNLAD_clean_linker_1, # of connection points: 2
#     Edge 8, Type (0, 0), BuildingBlock: FUNLAD_clean_linker_1, # of connection points: 2
#     Edge 9, Type (0, 0), BuildingBlock: FUNLAD_clean_linker_1, # of connection points: 2
#     Edge 10, Type (0, 0), BuildingBlock: FUNLAD_clean_linker_1, # of connection points: 2
#     Edge 11, Type (0, 0), BuildingBlock: FUNLAD_clean_linker_1, # of connection points: 2
#     Edge 12, Type (0, 0), BuildingBlock: FUNLAD_clean_linker_1, # of connection points: 2
#     Edge 13, Type (0, 0), BuildingBlock: FUNLAD_clean_linker_1, # of connection points: 2
#     Edge 14, Type (0, 0), BuildingBlock: FUNLAD_clean_linker_1, # of connection points: 2
#     Edge 15, Type (0, 0), BuildingBlock: FUNLAD_clean_linker_1, # of connection points: 2
#     Edge 16, Type (0, 0), BuildingBlock: FUNLAD_clean_linker_1, # of connection points: 2
#     Edge 17, Type (0, 0), BuildingBlock: FUNLAD_clean_linker_1, # of connection points: 2
# Relax obj value: 0.045
# Max RMSD: 0.077
# Mean RMSD: 0.077
data_MOF--net-uni--node1-NAHDIM_clean_sbu_0--edge1-FUNLAD_clean_linker_1
_symmetry_space_group_name_H-M    P1
_symmetry_Int_Tables_number       1
_symmetry_cell_setting            triclinic
loop_
_symmetry_equiv_pos_as_xyz
'x, y, z'
_cell_length_a     40.360819
_cell_length_b     40.381735
_cell_length_c     24.220095
_cell_angle_alpha  90.070643
_cell_angle_beta   89.653331
_cell_angle_gamma 120.01474
loop_
_atom_site_label
_atom_site_type_symbol
_atom_site_fract_x
_atom_site_fract_y
_atom_site_fract_z
_atom_type_partial_charge
C0 C 0.6627 0.96541 0.09834 0.0
O1 O 0.68657 0.99446 0.12888 0.0
O2 O 0.69705 0.06367 0.0454 0.0
Zn3 Zn 0.64323 0.02048 0.05937 0.0
O4 O 0.62231 0.02746 0.13187 0.0
C5 C 0.62409 0.02161 0.94686 0.0
O6 O 0.65682 0.02251 0.94005 0.0
O7 O 0.64173 0.96993 0.06381 0.0
C8 C 0.59516 0.03472 0.13541 0.0
O9 O 0.58026 0.03959 0.09021 0.0
C10 C 0.70618 0.09768 0.05849 0.0
O11 O 0.68118 0.10399 0.08427 0.0
O12 O 0.61117 0.01984 0.99543 0.0
C13 C 0.7245 0.65703 0.27953 0.0
O14 O 0.71192 0.67217 0.31626 0.0
O15 O 0.67001 0.69804 0.20782 0.0
Zn16 Zn 0.65692 0.64313 0.21962 0.0
O17 O 0.61975 0.61764 0.2833 0.0
C18 C 0.61496 0.61881 0.11576 0.0
O19 O 0.60761 0.64655 0.12516 0.0
O20 O 0.7057 0.6429 0.23555 0.0
C21 C 0.58368 0.60161 0.27718 0.0
O22 O 0.5697 0.60242 0.22878 0.0
C23 C 0.64681 0.71022 0.21566 0.0
O24 O 0.61204 0.68671 0.23381 0.0
O25 O 0.63502 0.61255 0.14981 0.0
C26 C 0.09213 0.74063 0.39045 0.0
O27 O 0.07307 0.73815 0.34545 0.0
O28 O 0.99209 0.66599 0.37878 0.0
Zn29 Zn 0.03737 0.66002 0.39757 0.0
O30 O 0.02249 0.62336 0.46163 0.0
C31 C 0.02888 0.60852 0.30923 0.0
O32 O 0.99382 0.58906 0.3289 0.0
O33 O 0.082 0.71092 0.41969 0.0
C34 C 0.03953 0.60478 0.47141 0.0
O35 O 0.0677 0.60924 0.43896 0.0
C36 C 0.97978 0.68036 0.41454 0.0
O37 O 0.99735 0.69173 0.4621 0.0
O38 O 0.05264 0.63987 0.33181 0.0
C39 C 0.3593 0.07953 0.61071 0.0
O40 O 0.32948 0.04508 0.61572 0.0
O41 O 0.34632 0.9927 0.55101 0.0
Zn42 Zn 0.3972 0.03896 0.57028 0.0
O43 O 0.42133 0.02671 0.63389 0.0
C44 C 0.44147 0.02992 0.48498 0.0
O45 O 0.43032 0.99757 0.51134 0.0
O46 O 0.39063 0.08364 0.59188 0.0
C47 C 0.45678 0.04699 0.64418 0.0
O48 O 0.4785 0.07651 0.61251 0.0
C49 C 0.33128 0.96245 0.58025 0.0
O50 O 0.34849 0.96111 0.62527 0.0
O51 O 0.43126 0.05304 0.50297 0.0
C52 C 0.32278 0.39491 0.76324 0.0
O53 O 0.33914 0.38689 0.80378 0.0
O54 O 0.38511 0.35666 0.70611 0.0
Zn55 Zn 0.39182 0.40977 0.7105 0.0
O56 O 0.42129 0.4381 0.77837 0.0
C57 C 0.44413 0.43312 0.61825 0.0
O58 O 0.44997 0.40618 0.63773 0.0
O59 O 0.33975 0.40518 0.71676 0.0
C60 C 0.4575 0.45832 0.78066 0.0
O61 O 0.47838 0.46087 0.73733 0.0
C62 C 0.40567 0.34652 0.73271 0.0
O63 O 0.43211 0.37081 0.76622 0.0
O64 O 0.42 0.43997 0.64209 0.0
C65 C 0.95974 0.30764 0.87943 0.0
O66 O 0.98799 0.30843 0.85121 0.0
O67 O 0.05722 0.38529 0.88378 0.0
Zn68 Zn 0.01028 0.39062 0.89094 0.0
O69 O 0.01132 0.41932 0.95976 0.0
C70 C 0.04034 0.44634 0.8058 0.0
O71 O 0.07203 0.45385 0.83101 0.0
O72 O 0.96294 0.33864 0.89765 0.0
C73 C 0.03953 0.44959 0.97861 0.0
O74 O 0.07273 0.46518 0.95294 0.0
C75 C 0.07372 0.37847 0.923 0.0
O76 O 0.05987 0.37379 0.97336 0.0
O77 O 0.00848 0.41951 0.82385 0.0
H78 H 0.591 0.02838 0.22604 0.0
C79 C 0.57899 0.03471 0.19022 0.0
H80 H 0.53595 0.04532 0.1612 0.0
H81 H 0.42101 0.96133 0.35756 0.0
H82 H 0.38804 0.91945 0.28064 0.0
H83 H 0.41972 0.92956 0.18983 0.0
H84 H 0.48442 0.98177 0.17529 0.0
C85 C 0.54909 0.04033 0.19687 0.0
C86 C 0.53011 0.03503 0.25173 0.0
C87 C 0.49231 0.00416 0.25963 0.0
C88 C 0.47428 0.99792 0.31224 0.0
C89 C 0.43633 0.96712 0.31873 0.0
C90 C 0.417 0.94286 0.27486 0.0
C91 C 0.43482 0.94859 0.22373 0.0
C92 C 0.472 0.97877 0.21595 0.0
H93 H 0.47105 0.06512 0.41171 0.0
C94 C 0.46404 0.03885 0.43345 0.0
H95 H 0.46697 0.9881 0.43237 0.0
H96 H 0.60085 0.09964 0.24913 0.0
H97 H 0.6346 0.14038 0.32679 0.0
H98 H 0.60511 0.12683 0.41958 0.0
H99 H 0.54145 0.0729 0.43503 0.0
C100 C 0.47496 0.01507 0.41201 0.0
C101 C 0.49411 0.02241 0.35702 0.0
C102 C 0.53193 0.05329 0.34919 0.0
C103 C 0.54963 0.06009 0.2962 0.0
C104 C 0.58664 0.09225 0.28891 0.0
C105 C 0.60625 0.11604 0.33308 0.0
C106 C 0.58959 0.10849 0.38527 0.0
C107 C 0.5529 0.07753 0.3935 0.0
H108 H 0.52672 0.56953 0.31626 0.0
C109 C 0.5571 0.58075 0.323 0.0
H110 H 0.59912 0.58502 0.3787 0.0
H111 H 0.50059 0.54948 0.59593 0.0
H112 H 0.54805 0.61623 0.60921 0.0
H113 H 0.59236 0.65394 0.53393 0.0
H114 H 0.58974 0.62503 0.44505 0.0
C115 C 0.56881 0.57345 0.37095 0.0
C116 C 0.54107 0.55067 0.41558 0.0
C117 C 0.54255 0.56815 0.46703 0.0
C118 C 0.51655 0.54656 0.51016 0.0
C119 C 0.51929 0.56459 0.56151 0.0
C120 C 0.54644 0.60291 0.56973 0.0
C121 C 0.57141 0.62413 0.52737 0.0
C122 C 0.56963 0.60714 0.47656 0.0
H123 H 0.48732 0.44859 0.55261 0.0
C124 C 0.46679 0.45565 0.57025 0.0
H125 H 0.44422 0.49285 0.56654 0.0
H126 H 0.53324 0.50652 0.32474 0.0
H127 H 0.48375 0.44083 0.30991 0.0
H128 H 0.43471 0.40547 0.38132 0.0
H129 H 0.43556 0.4354 0.46854 0.0
C130 C 0.46358 0.48446 0.54831 0.0
C131 C 0.48887 0.50758 0.50167 0.0
C132 C 0.4866 0.4904 0.44962 0.0
C133 C 0.51347 0.51155 0.40718 0.0
C134 C 0.51238 0.49261 0.35734 0.0
C135 C 0.48428 0.45472 0.34844 0.0
C136 C 0.45679 0.43476 0.38872 0.0
C137 C 0.45779 0.45222 0.43878 0.0
H138 H 0.07118 0.49164 0.74428 0.0
C139 C 0.04281 0.46946 0.7573 0.0
H140 H 0.9836 0.44189 0.74021 0.0
H141 H 0.07034 0.61213 0.61009 0.0
H142 H 0.08073 0.63946 0.70174 0.0
H143 H 0.06051 0.59813 0.78441 0.0
H144 H 0.03048 0.52922 0.77575 0.0
C145 C 0.01215 0.4646 0.7291 0.0
C146 C 0.0172 0.48873 0.67972 0.0
C147 C 0.03281 0.52879 0.6854 0.0
C148 C 0.04268 0.55244 0.63767 0.0
C149 C 0.06073 0.59259 0.64472 0.0
C150 C 0.06712 0.60873 0.6972 0.0
C151 C 0.05588 0.58549 0.74373 0.0
C152 C 0.03893 0.54599 0.73817 0.0
H153 H 0.00537 0.57753 0.54645 0.0
C154 C 0.0283 0.57958 0.52024 0.0
H155 H 0.06826 0.56102 0.50738 0.0
H156 H 0.98494 0.41274 0.65443 0.0
H157 H 0.97099 0.38489 0.56276 0.0
H158 H 0.98569 0.4256 0.48004 0.0
H159 H 0.01467 0.49446 0.48844 0.0
C160 C 0.04609 0.56022 0.53399 0.0
C161 C 0.03504 0.53573 0.58431 0.0
C162 C 0.01764 0.49549 0.57875 0.0
C163 C 0.00873 0.47196 0.62649 0.0
C164 C 0.99204 0.43193 0.61962 0.0
C165 C 0.98388 0.41556 0.56722 0.0
C166 C 0.99218 0.43849 0.52064 0.0
C167 C 0.00888 0.47798 0.52606 0.0
H168 H 0.61706 0.02707 0.85783 0.0
C169 C 0.60401 0.02459 0.89815 0.0
H170 H 0.55874 0.02472 0.94214 0.0
H171 H 0.5286 0.11798 0.75949 0.0
H172 H 0.55427 0.16407 0.83397 0.0
H173 H 0.58054 0.15088 0.91739 0.0
H174 H 0.58105 0.0914 0.92704 0.0
C175 C 0.57138 0.02572 0.902 0.0
C176 C 0.55421 0.03274 0.85227 0.0
C177 C 0.55428 0.06775 0.84721 0.0
C178 C 0.53968 0.07562 0.79873 0.0
C179 C 0.53978 0.11069 0.79505 0.0
C180 C 0.55437 0.13741 0.83756 0.0
C181 C 0.56912 0.12996 0.88455 0.0
C182 C 0.56918 0.09563 0.88955 0.0
H183 H 0.45324 0.01364 0.7183 0.0
C184 C 0.47274 0.03746 0.69219 0.0
H185 H 0.52971 0.08184 0.67996 0.0
H186 H 0.54531 0.96088 0.85162 0.0
H187 H 0.52173 0.91564 0.77588 0.0
H188 H 0.501 0.93128 0.68894 0.0
H189 H 0.50303 0.99189 0.67764 0.0
C190 C 0.5101 0.05725 0.70469 0.0
C191 C 0.52518 0.04853 0.75526 0.0
C192 C 0.52521 0.01353 0.76024 0.0
C193 C 0.53891 0.00526 0.80934 0.0
C194 C 0.53672 0.96928 0.8144 0.0
C195 C 0.52301 0.94293 0.77137 0.0
C196 C 0.5112 0.95167 0.72251 0.0
C197 C 0.51227 0.98651 0.71674 0.0
H198 H 0.60903 0.57383 0.05819 0.0
C199 C 0.59955 0.59423 0.06675 0.0
H200 H 0.56449 0.61634 0.04125 0.0
H201 H 0.54839 0.56656 0.79279 0.0
H202 H 0.58584 0.63557 0.78512 0.0
H203 H 0.61193 0.67579 0.86801 0.0
H204 H 0.60039 0.64724 0.95913 0.0
C205 C 0.57366 0.59559 0.03369 0.0
C206 C 0.55866 0.57084 0.98393 0.0
C207 C 0.56624 0.58796 0.93083 0.0
C208 C 0.55183 0.56472 0.88295 0.0
C209 C 0.55908 0.58271 0.83055 0.0
C210 C 0.58051 0.62235 0.82551 0.0
C211 C 0.59516 0.645 0.87218 0.0
C212 C 0.58823 0.62819 0.92429 0.0
H213 H 0.45649 0.47905 0.86443 0.0
C214 C 0.47528 0.47978 0.8315 0.0
H215 H 0.5325 0.50228 0.80489 0.0
H216 H 0.53435 0.52865 0.07966 0.0
H217 H 0.50008 0.45957 0.08706 0.0
H218 H 0.48113 0.41922 0.00365 0.0
H219 H 0.49547 0.44781 0.91238 0.0
C220 C 0.51337 0.50046 0.83802 0.0
C221 C 0.53024 0.52435 0.88818 0.0
C222 C 0.52369 0.50715 0.94118 0.0
C223 C 0.53677 0.53042 0.9892 0.0
C224 C 0.527 0.51247 0.0417 0.0
C225 C 0.50701 0.47277 0.04659 0.0
C226 C 0.49619 0.45006 0.99965 0.0
C227 C 0.50434 0.46687 0.94748 0.0
H228 H 0.00562 0.45255 0.04794 0.0
C229 C 0.03382 0.46697 0.02867 0.0
H230 H 0.08932 0.51545 0.03081 0.0
H231 H 0.02704 0.6111 0.15973 0.0
H232 H 0.04363 0.64293 0.0708 0.0
H233 H 0.06492 0.61788 0.99382 0.0
H234 H 0.06953 0.56068 0.00528 0.0
C235 C 0.06135 0.4998 0.05047 0.0
C236 C 0.05291 0.51719 0.09896 0.0
C237 C 0.05147 0.55131 0.09208 0.0
C238 C 0.03979 0.56611 0.13679 0.0
C239 C 0.03679 0.59917 0.12783 0.0
C240 C 0.04597 0.61761 0.07679 0.0
C241 C 0.05791 0.60348 0.03343 0.0
C242 C 0.06049 0.57064 0.04063 0.0
H243 H 0.07057 0.61133 0.24726 0.0
C244 C 0.04111 0.59443 0.26151 0.0
H245 H 0.98801 0.54392 0.25032 0.0
H246 H 0.05751 0.45411 0.12812 0.0
H247 H 0.04173 0.42262 0.21744 0.0
H248 H 0.02063 0.44772 0.29462 0.0
H249 H 0.01538 0.50456 0.28301 0.0
C250 C 0.01718 0.56173 0.23547 0.0
C251 C 0.03039 0.54718 0.18869 0.0
C252 C 0.0328 0.51361 0.19594 0.0
C253 C 0.04443 0.49881 0.15122 0.0
C254 C 0.04777 0.46595 0.16018 0.0
C255 C 0.03908 0.44775 0.21139 0.0
C256 C 0.02725 0.46191 0.25486 0.0
C257 C 0.02424 0.49451 0.24756 0.0
H258 H 0.68841 0.76913 0.18951 0.0
C259 C 0.65876 0.75018 0.2015 0.0
H260 H 0.60444 0.74483 0.21379 0.0
H261 H 0.66112 0.91959 0.24558 0.0
H262 H 0.6404 0.89551 0.33837 0.0
H263 H 0.62272 0.8294 0.36291 0.0
H264 H 0.62535 0.78685 0.29458 0.0
C265 C 0.63399 0.76324 0.20092 0.0
C266 C 0.64637 0.80359 0.186 0.0
C267 C 0.64524 0.82832 0.22661 0.0
C268 C 0.65615 0.86667 0.21268 0.0
C269 C 0.65382 0.8904 0.2539 0.0
C270 C 0.64187 0.87692 0.30741 0.0
C271 C 0.63186 0.83969 0.32121 0.0
C272 C 0.63345 0.81554 0.2815 0.0
H273 H 0.63438 0.9031 0.08515 0.0
C274 C 0.6573 0.92689 0.10731 0.0
H275 H 0.7005 0.94362 0.16722 0.0
H276 H 0.64811 0.76278 0.09638 0.0
H277 H 0.67207 0.78773 0.00487 0.0
H278 H 0.69662 0.85579 0.98312 0.0
H279 H 0.69645 0.89905 0.05249 0.0
C280 C 0.67827 0.92016 0.14372 0.0
C281 C 0.66856 0.88041 0.15823 0.0
C282 C 0.67078 0.856 0.11799 0.0
C283 C 0.65864 0.81725 0.13144 0.0
C284 C 0.65863 0.79286 0.08932 0.0
C285 C 0.67207 0.80675 0.03641 0.0
C286 C 0.68573 0.84502 0.0241 0.0
C287 C 0.68519 0.86949 0.06423 0.0
H288 H 0.93576 0.6952 0.43678 0.0
C289 C 0.94528 0.68315 0.4044 0.0
H290 H 0.93319 0.65699 0.32586 0.0
H291 H 0.75567 0.59779 0.34817 0.0
H292 H 0.75671 0.53855 0.35674 0.0
H293 H 0.81787 0.53888 0.3625 0.0
H294 H 0.87834 0.5985 0.36013 0.0
C295 C 0.92488 0.67041 0.35776 0.0
C296 C 0.8883 0.67053 0.351 0.0
C297 C 0.85322 0.63536 0.35107 0.0
C298 C 0.81797 0.63513 0.34669 0.0
C299 C 0.78332 0.59964 0.34948 0.0
C300 C 0.78348 0.56539 0.35486 0.0
C301 C 0.81791 0.56557 0.35819 0.0
C302 C 0.85243 0.60004 0.35663 0.0
H303 H 0.76957 0.6439 0.25619 0.0
C304 C 0.76023 0.65628 0.28834 0.0
H305 H 0.77304 0.68368 0.366 0.0
H306 H 0.95055 0.74278 0.3448 0.0
H307 H 0.94956 0.80207 0.33609 0.0
H308 H 0.88843 0.80175 0.32958 0.0
H309 H 0.82793 0.7421 0.33146 0.0
C310 C 0.7813 0.67015 0.3342 0.0
C311 C 0.81793 0.67008 0.34087 0.0
C312 C 0.85303 0.70525 0.34082 0.0
C313 C 0.88827 0.70548 0.34538 0.0
C314 C 0.92293 0.74096 0.34305 0.0
C315 C 0.92278 0.77523 0.33765 0.0
C316 C 0.88837 0.77504 0.33392 0.0
C317 C 0.85383 0.74057 0.3352 0.0
H318 H 0.13287 0.8023 0.37959 0.0
C319 C 0.12532 0.77773 0.40596 0.0
H320 H 0.13857 0.75785 0.47855 0.0
H321 H 0.30423 0.91502 0.42858 0.0
H322 H 0.30827 0.88153 0.34801 0.0
H323 H 0.25383 0.81902 0.32123 0.0
H324 H 0.195 0.78973 0.37469 0.0
C325 C 0.14643 0.78185 0.45087 0.0
C326 C 0.17943 0.81966 0.46638 0.0
C327 C 0.21372 0.83629 0.43468 0.0
C328 C 0.2453 0.87211 0.45055 0.0
C329 C 0.2793 0.88794 0.41839 0.0
C330 C 0.28207 0.86898 0.37207 0.0
C331 C 0.25141 0.83381 0.35697 0.0
C332 C 0.21766 0.81743 0.38787 0.0
H333 H 0.28456 0.90281 0.58902 0.0
C334 C 0.29553 0.92821 0.56324 0.0
H335 H 0.2882 0.95177 0.48962 0.0
H336 H 0.11779 0.79585 0.5357 0.0
H337 H 0.11347 0.82975 0.61566 0.0
H338 H 0.16774 0.8925 0.642 0.0
H339 H 0.22674 0.92158 0.58881 0.0
C340 C 0.27691 0.92706 0.51683 0.0
C341 C 0.24279 0.89089 0.49856 0.0
C342 C 0.20824 0.87462 0.52961 0.0
C343 C 0.1767 0.83876 0.51384 0.0
C344 C 0.14265 0.823 0.54583 0.0
C345 C 0.13973 0.8422 0.59175 0.0
C346 C 0.1703 0.8775 0.60662 0.0
C347 C 0.20414 0.89374 0.57595 0.0
H348 H 0.42303 0.30307 0.74273 0.0
C349 C 0.40253 0.30902 0.72268 0.0
H350 H 0.35679 0.28925 0.66642 0.0
H351 H 0.39921 0.18133 0.53386 0.0
H352 H 0.4106 0.22989 0.46573 0.0
H353 H 0.40754 0.28741 0.49154 0.0
H354 H 0.39277 0.29658 0.58544 0.0
C355 C 0.37663 0.2831 0.68801 0.0
C356 C 0.37749 0.24775 0.6728 0.0
C357 C 0.38647 0.24299 0.6177 0.0
C358 C 0.38894 0.21017 0.60302 0.0
C359 C 0.3975 0.20595 0.54752 0.0
C360 C 0.40403 0.23358 0.50791 0.0
C361 C 0.40226 0.26593 0.52242 0.0
C362 C 0.39365 0.27077 0.57656 0.0
H363 H 0.32834 0.10823 0.64092 0.0
C364 C 0.35616 0.11298 0.62759 0.0
H365 H 0.41423 0.15386 0.61325 0.0
H366 H 0.35436 0.2452 0.78011 0.0
H367 H 0.34536 0.19791 0.84911 0.0
H368 H 0.35503 0.14386 0.8256 0.0
H369 H 0.37291 0.13634 0.73273 0.0
C370 C 0.38648 0.14862 0.62776 0.0
C371 C 0.38276 0.18229 0.64351 0.0
C372 C 0.37385 0.18707 0.6987 0.0
C373 C 0.37024 0.21932 0.713 0.0
C374 C 0.35914 0.22221 0.76757 0.0
C375 C 0.35361 0.1951 0.80752 0.0
C376 C 0.35891 0.1646 0.79423 0.0
C377 C 0.36893 0.16049 0.74057 0.0
H378 H 0.12268 0.37154 0.947 0.0
C379 C 0.10887 0.37673 0.91236 0.0
H380 H 0.11148 0.38844 0.82691 0.0
H381 H 0.29049 0.45796 0.80959 0.0
H382 H 0.28563 0.51515 0.80198 0.0
H383 H 0.22384 0.51259 0.81649 0.0
H384 H 0.16663 0.4528 0.83924 0.0
C385 C 0.12435 0.38199 0.86152 0.0
C386 C 0.16119 0.38284 0.85146 0.0
C387 C 0.1942 0.41784 0.83677 0.0
C388 C 0.22968 0.41917 0.82729 0.0
C389 C 0.26254 0.45493 0.81538 0.0
C390 C 0.26022 0.48812 0.81132 0.0
C391 C 0.22546 0.48669 0.81957 0.0
C392 C 0.19279 0.45212 0.83243 0.0
H393 H 0.2728 0.39951 0.73715 0.0
C394 C 0.28586 0.39349 0.77197 0.0
H395 H 0.28121 0.37933 0.8567 0.0
H396 H 0.10271 0.31046 0.8745 0.0
H397 H 0.10743 0.25311 0.88181 0.0
H398 H 0.16901 0.25545 0.86613 0.0
H399 H 0.22619 0.31513 0.84271 0.0
C400 C 0.26885 0.38621 0.8219 0.0
C401 C 0.23183 0.38522 0.83116 0.0
C402 C 0.19878 0.35021 0.84574 0.0
C403 C 0.16335 0.34894 0.85549 0.0
C404 C 0.13054 0.3133 0.86805 0.0
C405 C 0.13279 0.28007 0.87203 0.0
C406 C 0.16745 0.28138 0.86315 0.0
C407 C 0.2001 0.31589 0.84991 0.0
H408 H 0.92329 0.24468 0.87561 0.0
C409 C 0.92553 0.27057 0.89291 0.0
H410 H 0.9012 0.29355 0.94747 0.0
H411 H 0.74734 0.12575 0.90593 0.0
H412 H 0.74914 0.14794 0.81236 0.0
H413 H 0.80414 0.2083 0.77914 0.0
H414 H 0.85773 0.24676 0.83921 0.0
C415 C 0.89837 0.26802 0.92794 0.0
C416 C 0.86602 0.23049 0.9463 0.0
C417 C 0.83503 0.20827 0.91047 0.0
C418 C 0.80314 0.17363 0.92981 0.0
C419 C 0.77232 0.15223 0.89341 0.0
C420 C 0.77295 0.16466 0.83959 0.0
C421 C 0.80393 0.19863 0.82088 0.0
C422 C 0.83461 0.22037 0.85576 0.0
H423 H 0.75052 0.15863 0.05681 0.0
C424 C 0.74339 0.13044 0.04184 0.0
H425 H 0.75963 0.09941 0.98863 0.0
H426 H 0.92147 0.26542 0.02474 0.0
H427 H 0.92007 0.2427 0.11789 0.0
H428 H 0.86511 0.18224 0.15095 0.0
H429 H 0.81113 0.14424 0.09114 0.0
C430 C 0.76721 0.12705 0.00629 0.0
C431 C 0.80207 0.16158 0.9851 0.0
C432 C 0.83358 0.1832 0.02037 0.0
C433 C 0.86545 0.21783 0.00107 0.0
C434 C 0.89645 0.23898 0.0373 0.0
C435 C 0.89608 0.2262 0.09083 0.0
C436 C 0.86512 0.19219 0.10946 0.0
C437 C 0.83421 0.17077 0.0748 0.0
loop_
_geom_bond_atom_site_label_1
_geom_bond_atom_site_label_2
_geom_bond_distance
_geom_bond_site_symmetry_2
_ccdc_geom_bond_type
C0 O1 1.160 . S
C0 O7 1.185 . S
O1 C0 1.160 . S
O2 Zn3 1.899 . S
O2 C10 1.284 . S
Zn3 O2 1.899 . S
Zn3 O4 2.032 . S
Zn3 O7 2.086 1_545 S
Zn3 O12 1.977 1_544 S
O4 Zn3 2.032 . S
O4 C8 1.278 . S
C5 O6 1.203 . S
C5 O12 1.268 1_545 S
O6 C5 1.203 . S
O7 C0 1.185 . S
O7 Zn3 2.086 1_565 S
C8 O4 1.278 . S
C8 O9 1.211 . S
O9 C8 1.211 . S
C10 O2 1.284 . S
C10 O11 1.273 . S
O11 C10 1.273 . S
O12 Zn3 1.977 1_566 S
O12 C5 1.268 1_565 S
C13 O14 1.160 . S
C13 O20 1.185 . S
O14 C13 1.160 . S
O15 Zn16 1.899 . S
O15 C23 1.284 . S
Zn16 O15 1.899 . S
Zn16 O17 2.032 . S
Zn16 O20 2.086 . S
Zn16 O25 1.977 . S
O17 Zn16 2.032 . S
O17 C21 1.278 . S
C18 O19 1.203 . S
C18 O25 1.267 . S
O19 C18 1.203 . S
O20 C13 1.185 . S
O20 Zn16 2.086 . S
C21 O17 1.278 . S
C21 O22 1.211 . S
O22 C21 1.211 . S
C23 O15 1.284 . S
C23 O24 1.273 . S
O24 C23 1.273 . S
O25 Zn16 1.977 . S
O25 C18 1.267 . S
C26 O27 1.160 . S
C26 O33 1.185 . S
O27 C26 1.160 . S
O28 Zn29 1.899 . S
O28 C36 1.284 1_455 S
Zn29 O28 1.899 . S
Zn29 O30 2.032 . S
Zn29 O33 2.086 . S
Zn29 O38 1.977 . S
O30 Zn29 2.032 . S
O30 C34 1.278 . S
C31 O32 1.203 1_455 S
C31 O38 1.267 . S
O32 C31 1.203 1_655 S
O33 C26 1.185 . S
O33 Zn29 2.086 . S
C34 O30 1.278 . S
C34 O35 1.211 . S
O35 C34 1.211 . S
C36 O28 1.284 1_655 S
C36 O37 1.273 . S
O37 C36 1.273 . S
O38 Zn29 1.977 . S
O38 C31 1.267 . S
C39 O40 1.160 . S
C39 O46 1.185 . S
O40 C39 1.160 . S
O41 Zn42 1.899 . S
O41 C49 1.284 1_545 S
Zn42 O41 1.899 . S
Zn42 O43 2.032 . S
Zn42 O46 2.086 . S
Zn42 O51 1.977 . S
O43 Zn42 2.032 . S
O43 C47 1.278 . S
C44 O45 1.203 1_545 S
C44 O51 1.267 . S
O45 C44 1.203 1_565 S
O46 C39 1.185 . S
O46 Zn42 2.086 . S
C47 O43 1.278 . S
C47 O48 1.211 . S
O48 C47 1.211 . S
C49 O41 1.284 1_565 S
C49 O50 1.273 . S
O50 C49 1.273 . S
O51 Zn42 1.977 . S
O51 C44 1.267 . S
C52 O53 1.160 . S
C52 O59 1.185 . S
O53 C52 1.160 . S
O54 Zn55 1.899 . S
O54 C62 1.284 . S
Zn55 O54 1.899 . S
Zn55 O56 2.032 . S
Zn55 O59 2.086 . S
Zn55 O64 1.977 . S
O56 Zn55 2.032 . S
O56 C60 1.278 . S
C57 O58 1.203 . S
C57 O64 1.267 . S
O58 C57 1.203 . S
O59 C52 1.185 . S
O59 Zn55 2.086 . S
C60 O56 1.278 . S
C60 O61 1.211 . S
O61 C60 1.211 . S
C62 O54 1.284 . S
C62 O63 1.273 . S
O63 C62 1.273 . S
O64 Zn55 1.977 . S
O64 C57 1.267 . S
C65 O66 1.160 . S
C65 O72 1.185 . S
O66 C65 1.160 . S
O67 Zn68 1.899 . S
O67 C75 1.284 . S
Zn68 O67 1.899 . S
Zn68 O69 2.032 . S
Zn68 O72 2.086 1_455 S
Zn68 O77 1.977 1_455 S
O69 Zn68 2.032 . S
O69 C73 1.278 . S
C70 O71 1.203 . S
C70 O77 1.267 1_455 S
O71 C70 1.203 . S
O72 C65 1.185 . S
O72 Zn68 2.086 1_655 S
C73 O69 1.278 . S
C73 O74 1.211 . S
O74 C73 1.211 . S
C75 O67 1.284 . S
C75 O76 1.273 . S
O76 C75 1.273 . S
O77 Zn68 1.977 1_655 S
O77 C70 1.267 1_655 S
H78 C79 0.951 . S
C79 H78 0.951 . S
C79 C85 1.265 . S
H80 C85 0.950 . S
H81 C89 0.949 . S
H82 C90 0.950 . S
H83 C91 0.951 . S
H84 C92 0.951 . S
C85 C79 1.265 . S
C85 H80 0.950 . S
C85 C86 1.478 . S
C86 C85 1.478 . S
C86 C87 1.397 . S
C86 C103 1.394 . S
C87 C86 1.397 . S
C87 C88 1.438 . S
C87 C92 1.429 1_545 S
C88 C87 1.438 . S
C88 C89 1.428 1_545 S
C88 C101 1.394 . S
C89 H81 0.949 . S
C89 C88 1.428 1_565 S
C89 C90 1.345 . S
C90 H82 0.950 . S
C90 C89 1.345 . S
C90 C91 1.424 . S
C91 H83 0.951 . S
C91 C90 1.424 . S
C91 C92 1.347 . S
C92 H84 0.951 . S
C92 C87 1.429 1_565 S
C92 C91 1.347 . S
H93 C94 0.951 . S
C94 H93 0.951 . S
C94 C100 1.265 . S
H95 C100 0.950 . S
H96 C104 0.949 . S
H97 C105 0.950 . S
H98 C106 0.951 . S
H99 C107 0.951 . S
C100 C94 1.265 . S
C100 H95 0.950 . S
C100 C101 1.478 . S
C101 C88 1.394 . S
C101 C100 1.478 . S
C101 C102 1.397 . S
C102 C101 1.397 . S
C102 C103 1.438 . S
C102 C107 1.429 . S
C103 C86 1.394 . S
C103 C102 1.438 . S
C103 C104 1.428 . S
C104 H96 0.949 . S
C104 C103 1.428 . S
C104 C105 1.345 . S
C105 H97 0.950 . S
C105 C104 1.345 . S
C105 C106 1.424 . S
C106 H98 0.951 . S
C106 C105 1.424 . S
C106 C107 1.347 . S
C107 H99 0.951 . S
C107 C102 1.429 . S
C107 C106 1.347 . S
H108 C109 0.951 . S
C109 H108 0.951 . S
C109 C115 1.265 . S
H110 C115 0.950 . S
H111 C119 0.949 . S
H112 C120 0.950 . S
H113 C121 0.951 . S
H114 C122 0.951 . S
C115 C109 1.265 . S
C115 H110 0.950 . S
C115 C116 1.478 . S
C116 C115 1.478 . S
C116 C117 1.397 . S
C116 C133 1.394 . S
C117 C116 1.397 . S
C117 C118 1.438 . S
C117 C122 1.429 . S
C118 C117 1.438 . S
C118 C119 1.428 . S
C118 C131 1.394 . S
C119 H111 0.949 . S
C119 C118 1.428 . S
C119 C120 1.345 . S
C120 H112 0.950 . S
C120 C119 1.345 . S
C120 C121 1.424 . S
C121 H113 0.951 . S
C121 C120 1.424 . S
C121 C122 1.347 . S
C122 H114 0.951 . S
C122 C117 1.429 . S
C122 C121 1.347 . S
H123 C124 0.951 . S
C124 H123 0.951 . S
C124 C130 1.265 . S
H125 C130 0.950 . S
H126 C134 0.949 . S
H127 C135 0.950 . S
H128 C136 0.951 . S
H129 C137 0.951 . S
C130 C124 1.265 . S
C130 H125 0.950 . S
C130 C131 1.478 . S
C131 C118 1.394 . S
C131 C130 1.478 . S
C131 C132 1.397 . S
C132 C131 1.397 . S
C132 C133 1.438 . S
C132 C137 1.429 . S
C133 C116 1.394 . S
C133 C132 1.438 . S
C133 C134 1.428 . S
C134 H126 0.949 . S
C134 C133 1.428 . S
C134 C135 1.345 . S
C135 H127 0.950 . S
C135 C134 1.345 . S
C135 C136 1.424 . S
C136 H128 0.951 . S
C136 C135 1.424 . S
C136 C137 1.347 . S
C137 H129 0.951 . S
C137 C132 1.429 . S
C137 C136 1.347 . S
H138 C139 0.951 . S
C139 H138 0.951 . S
C139 C145 1.265 . S
H140 C145 0.950 1_655 S
H141 C149 0.949 . S
H142 C150 0.950 . S
H143 C151 0.951 . S
H144 C152 0.951 . S
C145 C139 1.265 . S
C145 H140 0.950 1_455 S
C145 C146 1.478 . S
C146 C145 1.478 . S
C146 C147 1.397 . S
C146 C163 1.394 1_455 S
C147 C146 1.397 . S
C147 C148 1.438 . S
C147 C152 1.429 . S
C148 C147 1.438 . S
C148 C149 1.428 . S
C148 C161 1.394 . S
C149 H141 0.949 . S
C149 C148 1.428 . S
C149 C150 1.345 . S
C150 H142 0.950 . S
C150 C149 1.345 . S
C150 C151 1.424 . S
C151 H143 0.951 . S
C151 C150 1.424 . S
C151 C152 1.347 . S
C152 H144 0.951 . S
C152 C147 1.429 . S
C152 C151 1.347 . S
H153 C154 0.951 . S
C154 H153 0.951 . S
C154 C160 1.265 . S
H155 C160 0.950 . S
H156 C164 0.949 . S
H157 C165 0.950 . S
H158 C166 0.951 . S
H159 C167 0.951 . S
C160 C154 1.265 . S
C160 H155 0.950 . S
C160 C161 1.478 . S
C161 C148 1.394 . S
C161 C160 1.478 . S
C161 C162 1.397 . S
C162 C161 1.397 . S
C162 C163 1.438 1_455 S
C162 C167 1.429 1_455 S
C163 C146 1.394 1_655 S
C163 C162 1.438 1_655 S
C163 C164 1.428 . S
C164 H156 0.949 . S
C164 C163 1.428 . S
C164 C165 1.345 . S
C165 H157 0.950 . S
C165 C164 1.345 . S
C165 C166 1.424 . S
C166 H158 0.951 . S
C166 C165 1.424 . S
C166 C167 1.347 . S
C167 H159 0.951 . S
C167 C162 1.429 1_655 S
C167 C166 1.347 . S
H168 C169 0.951 . S
C169 H168 0.951 . S
C169 C175 1.265 . S
H170 C175 0.950 . S
H171 C179 0.949 . S
H172 C180 0.950 . S
H173 C181 0.951 . S
H174 C182 0.951 . S
C175 C169 1.265 . S
C175 H170 0.950 . S
C175 C176 1.478 . S
C176 C175 1.478 . S
C176 C177 1.397 . S
C176 C193 1.394 1_545 S
C177 C176 1.397 . S
C177 C178 1.438 . S
C177 C182 1.429 . S
C178 C177 1.438 . S
C178 C179 1.428 . S
C178 C191 1.394 . S
C179 H171 0.949 . S
C179 C178 1.428 . S
C179 C180 1.345 . S
C180 H172 0.950 . S
C180 C179 1.345 . S
C180 C181 1.424 . S
C181 H173 0.951 . S
C181 C180 1.424 . S
C181 C182 1.347 . S
C182 H174 0.951 . S
C182 C177 1.429 . S
C182 C181 1.347 . S
H183 C184 0.951 . S
C184 H183 0.951 . S
C184 C190 1.265 . S
H185 C190 0.950 . S
H186 C194 0.949 . S
H187 C195 0.950 . S
H188 C196 0.951 . S
H189 C197 0.951 . S
C190 C184 1.265 . S
C190 H185 0.950 . S
C190 C191 1.478 . S
C191 C178 1.394 . S
C191 C190 1.478 . S
C191 C192 1.397 1_545 S
C192 C191 1.397 1_565 S
C192 C193 1.438 . S
C192 C197 1.429 . S
C193 C176 1.394 1_565 S
C193 C192 1.438 . S
C193 C194 1.428 . S
C194 H186 0.949 . S
C194 C193 1.428 . S
C194 C195 1.345 . S
C195 H187 0.950 . S
C195 C194 1.345 . S
C195 C196 1.424 . S
C196 H188 0.951 . S
C196 C195 1.424 . S
C196 C197 1.347 . S
C197 H189 0.951 . S
C197 C192 1.429 . S
C197 C196 1.347 . S
H198 C199 0.951 . S
C199 H198 0.951 . S
C199 C205 1.265 . S
H200 C205 0.950 . S
H201 C209 0.949 . S
H202 C210 0.950 . S
H203 C211 0.951 . S
H204 C212 0.951 . S
C205 C199 1.265 . S
C205 H200 0.950 . S
C205 C206 1.478 . S
C206 C205 1.478 . S
C206 C207 1.397 1_554 S
C206 C223 1.394 . S
C207 C206 1.397 1_556 S
C207 C208 1.438 . S
C207 C212 1.429 . S
C208 C207 1.438 . S
C208 C209 1.428 . S
C208 C221 1.394 . S
C209 H201 0.949 . S
C209 C208 1.428 . S
C209 C210 1.345 . S
C210 H202 0.950 . S
C210 C209 1.345 . S
C210 C211 1.424 . S
C211 H203 0.951 . S
C211 C210 1.424 . S
C211 C212 1.347 . S
C212 H204 0.951 . S
C212 C207 1.429 . S
C212 C211 1.347 . S
H213 C214 0.951 . S
C214 H213 0.951 . S
C214 C220 1.265 . S
H215 C220 0.950 . S
H216 C224 0.949 . S
H217 C225 0.950 . S
H218 C226 0.951 . S
H219 C227 0.951 . S
C220 C214 1.265 . S
C220 H215 0.950 . S
C220 C221 1.478 . S
C221 C208 1.394 . S
C221 C220 1.478 . S
C221 C222 1.397 . S
C222 C221 1.397 . S
C222 C223 1.438 1_556 S
C222 C227 1.429 . S
C223 C206 1.394 . S
C223 C222 1.438 1_554 S
C223 C224 1.428 . S
C224 H216 0.949 . S
C224 C223 1.428 . S
C224 C225 1.345 . S
C225 H217 0.950 . S
C225 C224 1.345 . S
C225 C226 1.424 . S
C226 H218 0.951 . S
C226 C225 1.424 . S
C226 C227 1.347 1_554 S
C227 H219 0.951 . S
C227 C222 1.429 . S
C227 C226 1.347 1_556 S
H228 C229 0.951 1_655 S
C229 H228 0.951 1_455 S
C229 C235 1.265 . S
H230 C235 0.950 . S
H231 C239 0.949 . S
H232 C240 0.950 . S
H233 C241 0.951 . S
H234 C242 0.951 . S
C235 C229 1.265 . S
C235 H230 0.950 . S
C235 C236 1.478 . S
C236 C235 1.478 . S
C236 C237 1.397 . S
C236 C253 1.394 . S
C237 C236 1.397 . S
C237 C238 1.438 . S
C237 C242 1.429 . S
C238 C237 1.438 . S
C238 C239 1.428 . S
C238 C251 1.394 . S
C239 H231 0.949 . S
C239 C238 1.428 . S
C239 C240 1.345 . S
C240 H232 0.950 . S
C240 C239 1.345 . S
C240 C241 1.424 . S
C241 H233 0.951 . S
C241 C240 1.424 . S
C241 C242 1.347 . S
C242 H234 0.951 . S
C242 C237 1.429 . S
C242 C241 1.347 . S
H243 C244 0.951 . S
C244 H243 0.951 . S
C244 C250 1.265 . S
H245 C250 0.950 1_655 S
H246 C254 0.949 . S
H247 C255 0.950 . S
H248 C256 0.951 . S
H249 C257 0.951 . S
C250 C244 1.265 . S
C250 H245 0.950 1_455 S
C250 C251 1.478 . S
C251 C238 1.394 . S
C251 C250 1.478 . S
C251 C252 1.397 . S
C252 C251 1.397 . S
C252 C253 1.438 . S
C252 C257 1.429 1_455 S
C253 C236 1.394 . S
C253 C252 1.438 . S
C253 C254 1.428 . S
C254 H246 0.949 . S
C254 C253 1.428 . S
C254 C255 1.345 1_455 S
C255 H247 0.950 . S
C255 C254 1.345 1_655 S
C255 C256 1.424 . S
C256 H248 0.951 . S
C256 C255 1.424 . S
C256 C257 1.347 . S
C257 H249 0.951 . S
C257 C252 1.429 1_655 S
C257 C256 1.347 . S
H258 C259 0.951 . S
C259 H258 0.951 . S
C259 C265 1.265 . S
H260 C265 0.950 . S
H261 C269 0.949 . S
H262 C270 0.950 . S
H263 C271 0.951 . S
H264 C272 0.951 . S
C265 C259 1.265 . S
C265 H260 0.950 . S
C265 C266 1.478 . S
C266 C265 1.478 . S
C266 C267 1.397 . S
C266 C283 1.394 . S
C267 C266 1.397 . S
C267 C268 1.438 . S
C267 C272 1.429 . S
C268 C267 1.438 . S
C268 C269 1.428 . S
C268 C281 1.394 . S
C269 H261 0.949 . S
C269 C268 1.428 . S
C269 C270 1.345 . S
C270 H262 0.950 . S
C270 C269 1.345 . S
C270 C271 1.424 . S
C271 H263 0.951 . S
C271 C270 1.424 . S
C271 C272 1.347 . S
C272 H264 0.951 . S
C272 C267 1.429 . S
C272 C271 1.347 . S
H273 C274 0.951 . S
C274 H273 0.951 . S
C274 C280 1.265 . S
H275 C280 0.950 . S
H276 C284 0.949 . S
H277 C285 0.950 . S
H278 C286 0.951 1_556 S
H279 C287 0.951 . S
C280 C274 1.265 . S
C280 H275 0.950 . S
C280 C281 1.478 . S
C281 C268 1.394 . S
C281 C280 1.478 . S
C281 C282 1.397 . S
C282 C281 1.397 . S
C282 C283 1.438 . S
C282 C287 1.429 . S
C283 C266 1.394 . S
C283 C282 1.438 . S
C283 C284 1.428 . S
C284 H276 0.949 . S
C284 C283 1.428 . S
C284 C285 1.345 . S
C285 H277 0.950 . S
C285 C284 1.345 . S
C285 C286 1.424 . S
C286 H278 0.951 1_554 S
C286 C285 1.424 . S
C286 C287 1.347 . S
C287 H279 0.951 . S
C287 C282 1.429 . S
C287 C286 1.347 . S
H288 C289 0.951 . S
C289 H288 0.951 . S
C289 C295 1.265 . S
H290 C295 0.950 . S
H291 C299 0.949 . S
H292 C300 0.950 . S
H293 C301 0.951 . S
H294 C302 0.951 . S
C295 C289 1.265 . S
C295 H290 0.950 . S
C295 C296 1.478 . S
C296 C295 1.478 . S
C296 C297 1.397 . S
C296 C313 1.394 . S
C297 C296 1.397 . S
C297 C298 1.438 . S
C297 C302 1.429 . S
C298 C297 1.438 . S
C298 C299 1.428 . S
C298 C311 1.394 . S
C299 H291 0.949 . S
C299 C298 1.428 . S
C299 C300 1.345 . S
C300 H292 0.950 . S
C300 C299 1.345 . S
C300 C301 1.424 . S
C301 H293 0.951 . S
C301 C300 1.424 . S
C301 C302 1.347 . S
C302 H294 0.951 . S
C302 C297 1.429 . S
C302 C301 1.347 . S
H303 C304 0.951 . S
C304 H303 0.951 . S
C304 C310 1.265 . S
H305 C310 0.950 . S
H306 C314 0.949 . S
H307 C315 0.950 . S
H308 C316 0.951 . S
H309 C317 0.951 . S
C310 C304 1.265 . S
C310 H305 0.950 . S
C310 C311 1.478 . S
C311 C298 1.394 . S
C311 C310 1.478 . S
C311 C312 1.397 . S
C312 C311 1.397 . S
C312 C313 1.438 . S
C312 C317 1.429 . S
C313 C296 1.394 . S
C313 C312 1.438 . S
C313 C314 1.428 . S
C314 H306 0.949 . S
C314 C313 1.428 . S
C314 C315 1.345 . S
C315 H307 0.950 . S
C315 C314 1.345 . S
C315 C316 1.424 . S
C316 H308 0.951 . S
C316 C315 1.424 . S
C316 C317 1.347 . S
C317 H309 0.951 . S
C317 C312 1.429 . S
C317 C316 1.347 . S
H318 C319 0.951 . S
C319 H318 0.951 . S
C319 C325 1.265 . S
H320 C325 0.950 . S
H321 C329 0.949 . S
H322 C330 0.950 . S
H323 C331 0.951 . S
H324 C332 0.951 . S
C325 C319 1.265 . S
C325 H320 0.950 . S
C325 C326 1.478 . S
C326 C325 1.478 . S
C326 C327 1.397 . S
C326 C343 1.394 . S
C327 C326 1.397 . S
C327 C328 1.438 . S
C327 C332 1.429 . S
C328 C327 1.438 . S
C328 C329 1.428 . S
C328 C341 1.394 . S
C329 H321 0.949 . S
C329 C328 1.428 . S
C329 C330 1.345 . S
C330 H322 0.950 . S
C330 C329 1.345 . S
C330 C331 1.424 . S
C331 H323 0.951 . S
C331 C330 1.424 . S
C331 C332 1.347 . S
C332 H324 0.951 . S
C332 C327 1.429 . S
C332 C331 1.347 . S
H333 C334 0.951 . S
C334 H333 0.951 . S
C334 C340 1.265 . S
H335 C340 0.950 . S
H336 C344 0.949 . S
H337 C345 0.950 . S
H338 C346 0.951 . S
H339 C347 0.951 . S
C340 C334 1.265 . S
C340 H335 0.950 . S
C340 C341 1.478 . S
C341 C328 1.394 . S
C341 C340 1.478 . S
C341 C342 1.397 . S
C342 C341 1.397 . S
C342 C343 1.438 . S
C342 C347 1.429 . S
C343 C326 1.394 . S
C343 C342 1.438 . S
C343 C344 1.428 . S
C344 H336 0.949 . S
C344 C343 1.428 . S
C344 C345 1.345 . S
C345 H337 0.950 . S
C345 C344 1.345 . S
C345 C346 1.424 . S
C346 H338 0.951 . S
C346 C345 1.424 . S
C346 C347 1.347 . S
C347 H339 0.951 . S
C347 C342 1.429 . S
C347 C346 1.347 . S
H348 C349 0.951 . S
C349 H348 0.951 . S
C349 C355 1.265 . S
H350 C355 0.950 . S
H351 C359 0.949 . S
H352 C360 0.950 . S
H353 C361 0.951 . S
H354 C362 0.951 . S
C355 C349 1.265 . S
C355 H350 0.950 . S
C355 C356 1.478 . S
C356 C355 1.478 . S
C356 C357 1.397 . S
C356 C373 1.394 . S
C357 C356 1.397 . S
C357 C358 1.438 . S
C357 C362 1.429 . S
C358 C357 1.438 . S
C358 C359 1.428 . S
C358 C371 1.394 . S
C359 H351 0.949 . S
C359 C358 1.428 . S
C359 C360 1.345 . S
C360 H352 0.950 . S
C360 C359 1.345 . S
C360 C361 1.424 . S
C361 H353 0.951 . S
C361 C360 1.424 . S
C361 C362 1.347 . S
C362 H354 0.951 . S
C362 C357 1.429 . S
C362 C361 1.347 . S
H363 C364 0.951 . S
C364 H363 0.951 . S
C364 C370 1.265 . S
H365 C370 0.950 . S
H366 C374 0.949 . S
H367 C375 0.950 . S
H368 C376 0.951 . S
H369 C377 0.951 . S
C370 C364 1.265 . S
C370 H365 0.950 . S
C370 C371 1.478 . S
C371 C358 1.394 . S
C371 C370 1.478 . S
C371 C372 1.397 . S
C372 C371 1.397 . S
C372 C373 1.438 . S
C372 C377 1.429 . S
C373 C356 1.394 . S
C373 C372 1.438 . S
C373 C374 1.428 . S
C374 H366 0.949 . S
C374 C373 1.428 . S
C374 C375 1.345 . S
C375 H367 0.950 . S
C375 C374 1.345 . S
C375 C376 1.424 . S
C376 H368 0.951 . S
C376 C375 1.424 . S
C376 C377 1.347 . S
C377 H369 0.951 . S
C377 C372 1.429 . S
C377 C376 1.347 . S
H378 C379 0.951 . S
C379 H378 0.951 . S
C379 C385 1.265 . S
H380 C385 0.950 . S
H381 C389 0.949 . S
H382 C390 0.950 . S
H383 C391 0.951 . S
H384 C392 0.951 . S
C385 C379 1.265 . S
C385 H380 0.950 . S
C385 C386 1.478 . S
C386 C385 1.478 . S
C386 C387 1.397 . S
C386 C403 1.394 . S
C387 C386 1.397 . S
C387 C388 1.438 . S
C387 C392 1.429 . S
C388 C387 1.438 . S
C388 C389 1.428 . S
C388 C401 1.394 . S
C389 H381 0.949 . S
C389 C388 1.428 . S
C389 C390 1.345 . S
C390 H382 0.950 . S
C390 C389 1.345 . S
C390 C391 1.424 . S
C391 H383 0.951 . S
C391 C390 1.424 . S
C391 C392 1.347 . S
C392 H384 0.951 . S
C392 C387 1.429 . S
C392 C391 1.347 . S
H393 C394 0.951 . S
C394 H393 0.951 . S
C394 C400 1.265 . S
H395 C400 0.950 . S
H396 C404 0.949 . S
H397 C405 0.950 . S
H398 C406 0.951 . S
H399 C407 0.951 . S
C400 C394 1.265 . S
C400 H395 0.950 . S
C400 C401 1.478 . S
C401 C388 1.394 . S
C401 C400 1.478 . S
C401 C402 1.397 . S
C402 C401 1.397 . S
C402 C403 1.438 . S
C402 C407 1.429 . S
C403 C386 1.394 . S
C403 C402 1.438 . S
C403 C404 1.428 . S
C404 H396 0.949 . S
C404 C403 1.428 . S
C404 C405 1.345 . S
C405 H397 0.950 . S
C405 C404 1.345 . S
C405 C406 1.424 . S
C406 H398 0.951 . S
C406 C405 1.424 . S
C406 C407 1.347 . S
C407 H399 0.951 . S
C407 C402 1.429 . S
C407 C406 1.347 . S
H408 C409 0.951 . S
C409 H408 0.951 . S
C409 C415 1.265 . S
H410 C415 0.950 . S
H411 C419 0.949 . S
H412 C420 0.950 . S
H413 C421 0.951 . S
H414 C422 0.951 . S
C415 C409 1.265 . S
C415 H410 0.950 . S
C415 C416 1.478 . S
C416 C415 1.478 . S
C416 C417 1.397 . S
C416 C433 1.394 1_556 S
C417 C416 1.397 . S
C417 C418 1.438 . S
C417 C422 1.429 . S
C418 C417 1.438 . S
C418 C419 1.428 . S
C418 C431 1.394 1_556 S
C419 H411 0.949 . S
C419 C418 1.428 . S
C419 C420 1.345 . S
C420 H412 0.950 . S
C420 C419 1.345 . S
C420 C421 1.424 . S
C421 H413 0.951 . S
C421 C420 1.424 . S
C421 C422 1.347 . S
C422 H414 0.951 . S
C422 C417 1.429 . S
C422 C421 1.347 . S
H423 C424 0.951 . S
C424 H423 0.951 . S
C424 C430 1.265 . S
H425 C430 0.950 . S
H426 C434 0.949 . S
H427 C435 0.950 . S
H428 C436 0.951 . S
H429 C437 0.951 . S
C430 C424 1.265 . S
C430 H425 0.950 . S
C430 C431 1.478 . S
C431 C418 1.394 1_554 S
C431 C430 1.478 . S
C431 C432 1.397 . S
C432 C431 1.397 . S
C432 C433 1.438 . S
C432 C437 1.429 . S
C433 C416 1.394 1_554 S
C433 C432 1.438 . S
C433 C434 1.428 . S
C434 H426 0.949 . S
C434 C433 1.428 . S
C434 C435 1.345 . S
C435 H427 0.950 . S
C435 C434 1.345 . S
C435 C436 1.424 . S
C436 H428 0.951 . S
C436 C435 1.424 . S
C436 C437 1.347 . S
C437 H429 0.951 . S
C437 C432 1.429 . S
C437 C436 1.347 . S
C79 C8 1.414 . S
C94 C44 1.386 . S
C109 C21 1.345 . S
C124 C57 1.341 . S
C139 C70 1.356 . S
C154 C34 1.407 . S
C169 C5 1.381 . S
C184 C47 1.415 . S
C199 C18 1.417 . S
C214 C60 1.375 . S
C229 C73 1.371 1_554 S
C244 C31 1.417 . S
C259 C23 1.421 . S
C274 C0 1.417 . S
C289 C36 1.400 . S
C304 C13 1.408 . S
C319 C26 1.368 . S
C334 C49 1.376 . S
C349 C62 1.376 . S
C364 C39 1.371 . S
C379 C75 1.395 . S
C394 C52 1.402 . S
C409 C65 1.367 . S
C424 C10 1.376 . S
