# Generated by pormake.
# Topology unj, (4)-cn, num edge types: 1
# Building blocks:
#     Node 0, Type 0, BuildingBlock: NAHDIM_clean_sbu_0, # of connection points: 4
#     Node 1, Type 0, BuildingBlock: NAHDIM_clean_sbu_0, # of connection points: 4
#     Node 2, Type 0, BuildingBlock: NAHDIM_clean_sbu_0, # of connection points: 4
#     Node 3, Type 0, BuildingBlock: NAHDIM_clean_sbu_0, # of connection points: 4
#     Node 4, Type 0, BuildingBlock: NAHDIM_clean_sbu_0, # of connection points: 4
#     Node 5, Type 0, BuildingBlock: NAHDIM_clean_sbu_0, # of connection points: 4
#     Edge 6, Type (0, 0), BuildingBlock: FUNLAD_clean_linker_1, # of connection points: 2
#     Edge 7, Type (0, 0), BuildingBlock: FUNLAD_clean_linker_1, # of connection points: 2
#     Edge 8, Type (0, 0), BuildingBlock: FUNLAD_clean_linker_1, # of connection points: 2
#     Edge 9, Type (0, 0), BuildingBlock: FUNLAD_clean_linker_1, # of connection points: 2
#     Edge 10, Type (0, 0), BuildingBlock: FUNLAD_clean_linker_1, # of connection points: 2
#     Edge 11, Type (0, 0), BuildingBlock: FUNLAD_clean_linker_1, # of connection points: 2
#     Edge 12, Type (0, 0), BuildingBlock: FUNLAD_clean_linker_1, # of connection points: 2
#     Edge 13, Type (0, 0), BuildingBlock: FUNLAD_clean_linker_1, # of connection points: 2
#     Edge 14, Type (0, 0), BuildingBlock: FUNLAD_clean_linker_1, # of connection points: 2
#     Edge 15, Type (0, 0), BuildingBlock: FUNLAD_clean_linker_1, # of connection points: 2
#     Edge 16, Type (0, 0), BuildingBlock: FUNLAD_clean_linker_1, # of connection points: 2
#     Edge 17, Type (0, 0), BuildingBlock: FUNLAD_clean_linker_1, # of connection points: 2
# Relax obj value: 0.007
# Max RMSD: 0.036
# Mean RMSD: 0.036
data_MOF--net-unj--node1-NAHDIM_clean_sbu_0--edge1-FUNLAD_clean_linker_1
_symmetry_space_group_name_H-M    P1
_symmetry_Int_Tables_number       1
_symmetry_cell_setting            triclinic
loop_
_symmetry_equiv_pos_as_xyz
'x, y, z'
_cell_length_a     35.708884
_cell_length_b     35.660477
_cell_length_c     35.541687
_cell_angle_alpha  90.265709
_cell_angle_beta   89.874038
_cell_angle_gamma 119.55751
loop_
_atom_site_label
_atom_site_type_symbol
_atom_site_fract_x
_atom_site_fract_y
_atom_site_fract_z
_atom_type_partial_charge
C0 C 0.45472 0.28834 0.64291 0.0
O1 O 0.49593 0.30477 0.65004 0.0
O2 O 0.50841 0.27952 0.55629 0.0
Zn3 Zn 0.47488 0.2362 0.59681 0.0
O4 O 0.5141 0.23476 0.63699 0.0
C5 C 0.4552 0.16858 0.54324 0.0
O6 O 0.49016 0.19919 0.5275 0.0
O7 O 0.43632 0.25621 0.62068 0.0
C8 C 0.5366 0.21639 0.63261 0.0
O9 O 0.53562 0.19788 0.60035 0.0
C10 C 0.54913 0.3005 0.55334 0.0
O11 O 0.57318 0.29516 0.57826 0.0
O12 O 0.44111 0.17662 0.57339 0.0
C13 C 0.15722 0.44106 0.78055 0.0
O14 O 0.17313 0.47919 0.79653 0.0
O15 O 0.24753 0.51835 0.71207 0.0
Zn16 Zn 0.24366 0.47704 0.75267 0.0
O17 O 0.26735 0.50875 0.80186 0.0
C18 C 0.27007 0.43225 0.70218 0.0
O19 O 0.24492 0.43893 0.6796 0.0
O20 O 0.18133 0.43262 0.76009 0.0
C21 C 0.30662 0.52592 0.81151 0.0
O22 O 0.33442 0.52326 0.78895 0.0
C23 C 0.25207 0.55534 0.71922 0.0
O24 O 0.25494 0.56815 0.75429 0.0
O25 O 0.27549 0.44626 0.73583 0.0
C26 C 0.71371 0.16258 0.95646 0.0
O27 O 0.68806 0.17891 0.9608 0.0
O28 O 0.72902 0.24231 0.88065 0.0
Zn29 Zn 0.76661 0.24523 0.92417 0.0
O30 O 0.75981 0.27788 0.96754 0.0
C31 C 0.84409 0.2669 0.88079 0.0
O32 O 0.81889 0.23234 0.86094 0.0
O33 O 0.75018 0.18516 0.94101 0.0
C34 C 0.78544 0.28808 0.99528 0.0
O35 O 0.81501 0.27639 0.99533 0.0
C36 C 0.69779 0.24954 0.88508 0.0
O37 O 0.68948 0.25903 0.91867 0.0
O38 O 0.82877 0.27764 0.90839 0.0
C39 C 0.57537 0.72704 0.12671 0.0
O40 O 0.53478 0.69663 0.12562 0.0
O41 O 0.51014 0.73322 0.05186 0.0
Zn42 Zn 0.53959 0.77564 0.09434 0.0
O43 O 0.49805 0.76986 0.13594 0.0
C44 C 0.5449 0.84729 0.05338 0.0
O45 O 0.50393 0.81999 0.04779 0.0
O46 O 0.5857 0.7646 0.11525 0.0
C47 C 0.50587 0.80304 0.15534 0.0
O48 O 0.54022 0.84003 0.14779 0.0
C49 C 0.47031 0.71515 0.04395 0.0
O50 O 0.44441 0.72285 0.06481 0.0
O51 O 0.56736 0.83571 0.07269 0.0
C52 C 0.85944 0.54711 0.26983 0.0
O53 O 0.84222 0.50658 0.25943 0.0
O54 O 0.76711 0.48988 0.2148 0.0
Zn55 Zn 0.77275 0.52616 0.26033 0.0
O56 O 0.74539 0.48634 0.30432 0.0
C57 C 0.75119 0.58518 0.22269 0.0
O58 O 0.78193 0.59026 0.19935 0.0
O59 O 0.83578 0.56446 0.27208 0.0
C60 C 0.72279 0.49241 0.32862 0.0
O61 O 0.71651 0.52557 0.32533 0.0
C62 C 0.73361 0.47268 0.19426 0.0
O63 O 0.70123 0.47902 0.20213 0.0
O64 O 0.74251 0.56038 0.25078 0.0
C65 C 0.30175 0.85067 0.45212 0.0
O66 O 0.33115 0.83892 0.44862 0.0
O67 O 0.2831 0.76592 0.3816 0.0
Zn68 Zn 0.2442 0.76439 0.42401 0.0
O69 O 0.2468 0.72906 0.46735 0.0
C70 C 0.16987 0.72757 0.37278 0.0
O71 O 0.19788 0.73257 0.34653 0.0
O72 O 0.26307 0.8245 0.44299 0.0
C73 C 0.21824 0.68974 0.47156 0.0
O74 O 0.18673 0.67138 0.44711 0.0
C75 C 0.28158 0.73132 0.37017 0.0
O76 O 0.25457 0.69457 0.386 0.0
O77 O 0.18246 0.73884 0.40643 0.0
H78 H 0.44936 0.12049 0.50133 0.0
C79 C 0.43486 0.12497 0.52666 0.0
H80 H 0.38708 0.0942 0.56829 0.0
H81 H 0.33651 0.95919 0.4201 0.0
H82 H 0.32402 0.01095 0.38652 0.0
H83 H 0.33735 0.07874 0.41699 0.0
H84 H 0.36421 0.09551 0.48101 0.0
C85 C 0.40097 0.09075 0.54216 0.0
C86 C 0.38521 0.04671 0.52623 0.0
C87 C 0.36733 0.03633 0.48951 0.0
C88 C 0.35745 0.9962 0.47268 0.0
C89 C 0.34265 0.98817 0.43497 0.0
C90 C 0.33564 0.0178 0.41522 0.0
C91 C 0.34332 0.05604 0.43231 0.0
C92 C 0.35901 0.06539 0.46899 0.0
H93 H 0.28671 0.90067 0.47143 0.0
C94 C 0.31268 0.89345 0.46732 0.0
H95 H 0.37921 0.916 0.47333 0.0
H96 H 0.41712 0.05557 0.59773 0.0
H97 H 0.42586 1.00221 0.63272 0.0
H98 H 0.40536 0.93121 0.60478 0.0
H99 H 0.37637 0.91329 0.54154 0.0
C100 C 0.35317 0.9233 0.47624 0.0
C101 C 0.36325 0.96549 0.4934 0.0
C102 C 0.37946 0.97521 0.53069 0.0
C103 C 0.39058 0.01589 0.54706 0.0
C104 C 0.40765 0.02503 0.58403 0.0
C105 C 0.41288 0.99469 0.60446 0.0
C106 C 0.40139 0.95474 0.58872 0.0
C107 C 0.38486 0.94492 0.55231 0.0
H108 H 0.44942 0.33633 0.67821 0.0
C109 C 0.43176 0.30955 0.65889 0.0
H110 H 0.37298 0.27214 0.63005 0.0
H111 H 0.26692 0.32466 0.74145 0.0
H112 H 0.23857 0.24943 0.75774 0.0
H113 H 0.27078 0.20767 0.73143 0.0
H114 H 0.3314 0.2408 0.68849 0.0
C115 C 0.39156 0.29919 0.64882 0.0
C116 C 0.3713 0.32415 0.66364 0.0
C117 C 0.33599 0.30435 0.68877 0.0
C118 C 0.31768 0.32856 0.70423 0.0
C119 C 0.28226 0.30788 0.7291 0.0
C120 C 0.26565 0.2647 0.73867 0.0
C121 C 0.28376 0.24118 0.72383 0.0
C122 C 0.31855 0.2606 0.6992 0.0
H123 H 0.28771 0.39998 0.65826 0.0
C124 C 0.29146 0.40869 0.68793 0.0
H125 H 0.31733 0.40412 0.74004 0.0
H126 H 0.43502 0.37061 0.61238 0.0
H127 H 0.46457 0.44623 0.59745 0.0
H128 H 0.43618 0.48948 0.62772 0.0
H129 H 0.37754 0.4571 0.67257 0.0
C130 C 0.31464 0.39732 0.71003 0.0
C131 C 0.33467 0.3725 0.69448 0.0
C132 C 0.37008 0.39238 0.66941 0.0
C133 C 0.38776 0.36793 0.6533 0.0
C134 C 0.42153 0.38803 0.62673 0.0
C135 C 0.4386 0.43139 0.61766 0.0
C136 C 0.42252 0.45569 0.63458 0.0
C137 C 0.38866 0.43661 0.66015 0.0
H138 H 0.90864 0.32321 0.88796 0.0
C139 C 0.88989 0.29428 0.87118 0.0
H140 H 0.89052 0.25722 0.82487 0.0
H141 H 0.0494 0.41816 0.74912 0.0
H142 H 0.99228 0.40236 0.70434 0.0
H143 H 0.91742 0.34667 0.71783 0.0
H144 H 0.89921 0.30645 0.77616 0.0
C145 C 0.90898 0.28525 0.84269 0.0
C146 C 0.95482 0.31545 0.83299 0.0
C147 C 0.96499 0.33807 0.79841 0.0
C148 C 0.0082 0.37007 0.79054 0.0
C149 C 0.01726 0.39311 0.75631 0.0
C150 C 0.98474 0.38448 0.7304 0.0
C151 C 0.94259 0.35314 0.738 0.0
C152 C 0.9326 0.33023 0.77161 0.0
H153 H 0.09979 0.3772 0.77168 0.0
C154 C 0.11197 0.40776 0.78649 0.0
H155 H 0.098 0.44357 0.82609 0.0
H156 H 0.94762 0.27293 0.89901 0.0
H157 H 1.00492 0.28831 0.94346 0.0
H158 H 0.07935 0.3456 0.93081 0.0
H159 H 0.09699 0.38755 0.87341 0.0
C160 C 0.08597 0.41385 0.81002 0.0
C161 C 0.04112 0.37909 0.81716 0.0
C162 C 0.03121 0.35553 0.85117 0.0
C163 C 0.98813 0.32321 0.85887 0.0
C164 C 0.97949 0.2989 0.89235 0.0
C165 C 0.01216 0.30714 0.91797 0.0
C166 C 0.05408 0.33934 0.91082 0.0
C167 C 0.06372 0.36325 0.8778 0.0
H168 H 0.54316 0.89891 0.02096 0.0
C169 C 0.5639 0.891 0.03749 0.0
H170 H 0.62604 0.91438 0.0606 0.0
H171 H 0.65188 0.0523 0.92286 0.0
H172 H 0.63817 0.99337 0.88059 0.0
H173 H 0.61854 0.92144 0.90531 0.0
H174 H 0.61184 0.90791 0.97249 0.0
C175 C 0.60519 0.92114 0.04306 0.0
C176 C 0.6223 0.96559 0.02819 0.0
C177 C 0.6277 0.97338 0.98891 0.0
C178 C 0.64072 0.01531 0.97475 0.0
C179 C 0.64359 0.02156 0.93529 0.0
C180 C 0.63556 0.98791 0.91065 0.0
C181 C 0.62438 0.94739 0.92456 0.0
C182 C 0.62042 0.94 0.96319 0.0
H183 H 0.72301 0.10643 0.96557 0.0
C184 C 0.70067 0.11857 0.96941 0.0
H185 H 0.64025 0.10573 0.99075 0.0
H186 H 0.61687 0.96194 0.10507 0.0
H187 H 0.63346 0.02153 0.1476 0.0
H188 H 0.65818 0.09471 0.12321 0.0
H189 H 0.66628 0.10873 0.05612 0.0
C190 C 0.66228 0.09345 0.98566 0.0
C191 C 0.64984 0.0497 1.00002 0.0
C192 C 0.64573 0.04214 0.03935 0.0
C193 C 0.63196 1.00006 0.05344 0.0
C194 C 0.62755 0.99334 0.09283 0.0
C195 C 0.63694 0.02725 0.11758 0.0
C196 C 0.65081 0.06844 0.10384 0.0
C197 C 0.65523 0.07601 0.06524 0.0
H198 H 0.69734 0.59726 0.23406 0.0
C199 C 0.72416 0.60496 0.21517 0.0
H200 H 0.75592 0.63679 0.16531 0.0
H201 H 0.59207 0.63114 0.09293 0.0
H202 H 0.6031 0.5829 0.05199 0.0
H203 H 0.65754 0.56185 0.0672 0.0
H204 H 0.70147 0.58912 0.12327 0.0
C205 C 0.73017 0.63006 0.18514 0.0
C206 C 0.69861 0.64444 0.17555 0.0
C207 C 0.67306 0.62803 0.14268 0.0
C208 C 0.64116 0.6396 0.13423 0.0
C209 C 0.61635 0.62298 0.10103 0.0
C210 C 0.6224 0.59531 0.0772 0.0
C211 C 0.65309 0.58351 0.08574 0.0
C212 C 0.67816 0.5995 0.11804 0.0
H213 H 0.64251 0.7433 0.13834 0.0
C214 C 0.6092 0.71752 0.13917 0.0
H215 H 0.56707 0.65151 0.1497 0.0
H216 H 0.7459 0.68628 0.23799 0.0
H217 H 0.73362 0.73302 0.27989 0.0
H218 H 0.67501 0.74908 0.26761 0.0
H219 H 0.62887 0.71913 0.21303 0.0
C220 C 0.60009 0.67788 0.1501 0.0
C221 C 0.63468 0.66739 0.15873 0.0
C222 C 0.66046 0.6841 0.19147 0.0
C223 C 0.69305 0.67331 0.19947 0.0
C224 C 0.71963 0.69204 0.23137 0.0
C225 C 0.71311 0.71916 0.25553 0.0
C226 C 0.68021 0.72832 0.24854 0.0
C227 C 0.65408 0.71108 0.21696 0.0
H228 H 0.10222 0.70749 0.38609 0.0
C229 C 0.12366 0.7082 0.36399 0.0
H230 H 0.12845 0.69154 0.30781 0.0
H231 H 0.92089 0.5672 0.35398 0.0
H232 H 0.9459 0.53599 0.40135 0.0
H233 H 0.02357 0.56412 0.41155 0.0
H234 H 0.07654 0.62425 0.37519 0.0
C235 C 0.10728 0.69029 0.33037 0.0
C236 C 0.06036 0.67037 0.32217 0.0
C237 C 0.02987 0.63356 0.34235 0.0
C238 C 0.98514 0.61557 0.33485 0.0
C239 C 0.95529 0.58077 0.3572 0.0
C240 C 0.96919 0.56274 0.38471 0.0
C241 C 0.0129 0.5787 0.39057 0.0
C242 C 0.04301 0.61358 0.36968 0.0
H243 H 0.92384 0.55423 0.27635 0.0
C244 C 0.90541 0.57082 0.27996 0.0
H245 H 0.90724 0.62836 0.29774 0.0
H246 H 0.10995 0.7413 0.27888 0.0
H247 H 0.08483 0.77044 0.22974 0.0
H248 H 0.00754 0.73668 0.21442 0.0
H249 H 0.95484 0.67375 0.24839 0.0
C250 C 0.92474 0.61079 0.29463 0.0
C251 C 0.97108 0.63251 0.30546 0.0
C252 C 1.00148 0.66916 0.28527 0.0
C253 C 0.04613 0.68821 0.29372 0.0
C254 C 0.07572 0.72512 0.27333 0.0
C255 C 0.06173 0.74227 0.24508 0.0
C256 C 0.01822 0.72329 0.23648 0.0
C257 C 0.9883 0.68717 0.25622 0.0
H258 H 0.54713 0.33436 0.5024 0.0
C259 C 0.56849 0.32967 0.52115 0.0
H260 H 0.63281 0.34585 0.53248 0.0
H261 H 0.62593 0.39369 0.35121 0.0
H262 H 0.58048 0.31677 0.34194 0.0
H263 H 0.55851 0.26683 0.39571 0.0
H264 H 0.58105 0.2937 0.45913 0.0
C265 C 0.61083 0.34938 0.51364 0.0
C266 C 0.62899 0.37845 0.48063 0.0
C267 C 0.61744 0.3619 0.44349 0.0
C268 C 0.63217 0.39042 0.41227 0.0
C269 C 0.61752 0.37335 0.37578 0.0
C270 C 0.5911 0.32924 0.37007 0.0
C271 C 0.57857 0.30115 0.40035 0.0
C272 C 0.59149 0.31708 0.43667 0.0
H273 H 0.71234 0.43667 0.3629 0.0
C274 C 0.70425 0.46222 0.36031 0.0
H275 H 0.6703 0.49116 0.38389 0.0
H276 H 0.65793 0.42052 0.548 0.0
H277 H 0.70643 0.49703 0.55706 0.0
H278 H 0.73505 0.54601 0.50273 0.0
H279 H 0.71506 0.51885 0.43904 0.0
C280 C 0.67776 0.46512 0.38557 0.0
C281 C 0.66059 0.43512 0.41808 0.0
C282 C 0.67301 0.45147 0.45513 0.0
C283 C 0.65708 0.42314 0.48644 0.0
C284 C 0.66945 0.44048 0.52317 0.0
C285 C 0.69725 0.48437 0.52879 0.0
C286 C 0.71332 0.51195 0.49821 0.0
C287 C 0.7015 0.4959 0.46177 0.0
H288 H 0.19437 0.63091 0.50568 0.0
C289 C 0.21947 0.66446 0.50379 0.0
H290 H 0.27569 0.71449 0.52889 0.0
H291 H 0.17583 0.57017 0.66551 0.0
H292 H 0.12071 0.59078 0.6613 0.0
H293 H 0.1249 0.64232 0.61316 0.0
H294 H 0.18381 0.67282 0.56846 0.0
C295 C 0.24965 0.68138 0.53082 0.0
C296 C 0.24975 0.65458 0.56284 0.0
C297 C 0.21614 0.63864 0.58989 0.0
C298 C 0.2149 0.61063 0.61886 0.0
C299 C 0.17948 0.59303 0.64397 0.0
C300 C 0.14739 0.60436 0.64171 0.0
C301 C 0.14966 0.63323 0.61452 0.0
C302 C 0.18353 0.65028 0.58886 0.0
H303 H 0.25716 0.61505 0.69619 0.0
C304 C 0.25298 0.58364 0.68864 0.0
H305 H 0.24479 0.54065 0.64423 0.0
H306 H 0.31931 0.6805 0.51627 0.0
H307 H 0.37624 0.66246 0.52215 0.0
H308 H 0.37567 0.61628 0.57386 0.0
H309 H 0.31803 0.58763 0.6199 0.0
C310 C 0.24781 0.57145 0.65231 0.0
C311 C 0.24846 0.60035 0.62186 0.0
C312 C 0.28259 0.61717 0.59537 0.0
C313 C 0.28322 0.64427 0.56583 0.0
C314 C 0.31743 0.66012 0.53948 0.0
C315 C 0.35031 0.64998 0.5425 0.0
C316 C 0.34997 0.62395 0.57159 0.0
C317 C 0.31662 0.60765 0.5978 0.0
H318 H 0.64593 0.25625 0.85805 0.0
C319 C 0.67113 0.24814 0.85294 0.0
H320 H 0.70101 0.22786 0.81245 0.0
H321 H 0.53158 0.14958 0.71066 0.0
H322 H 0.52533 0.08412 0.73677 0.0
H323 H 0.57581 0.08721 0.78557 0.0
H324 H 0.63261 0.15595 0.80881 0.0
C325 C 0.67696 0.23743 0.818 0.0
C326 C 0.64894 0.23591 0.78646 0.0
C327 C 0.61683 0.19555 0.77231 0.0
C328 C 0.58841 0.1938 0.7435 0.0
C329 C 0.55509 0.15295 0.73145 0.0
C330 C 0.55089 0.11504 0.74646 0.0
C331 C 0.57925 0.11677 0.77398 0.0
C332 C 0.61176 0.15645 0.78701 0.0
H333 H 0.58536 0.20293 0.65738 0.0
C334 C 0.5643 0.2162 0.66321 0.0
H335 H 0.54364 0.24562 0.70369 0.0
H336 H 0.70921 0.31858 0.80537 0.0
H337 H 0.71619 0.38426 0.77885 0.0
H338 H 0.66717 0.38139 0.72872 0.0
H339 H 0.61094 0.31286 0.70476 0.0
C340 C 0.56383 0.23139 0.69778 0.0
C341 C 0.5931 0.23256 0.7281 0.0
C342 C 0.62556 0.27295 0.74203 0.0
C343 C 0.65364 0.27463 0.77112 0.0
C344 C 0.68644 0.31541 0.78386 0.0
C345 C 0.69098 0.35339 0.76872 0.0
C346 C 0.6634 0.35177 0.74049 0.0
C347 C 0.63114 0.31216 0.72708 0.0
H348 H 0.29621 0.55183 0.86456 0.0
C349 C 0.32033 0.54938 0.84765 0.0
H350 H 0.38593 0.56696 0.84291 0.0
H351 H 0.4499 0.73043 0.94875 0.0
H352 H 0.47522 0.76395 0.88793 0.0
H353 H 0.45491 0.72016 0.82986 0.0
H354 H 0.40896 0.64259 0.83228 0.0
C355 C 0.36117 0.56794 0.86001 0.0
C356 C 0.37451 0.59377 0.89548 0.0
C357 C 0.40212 0.63902 0.89366 0.0
C358 C 0.41436 0.66421 0.92721 0.0
C359 C 0.44059 0.70954 0.92434 0.0
C360 C 0.45511 0.72928 0.88954 0.0
C361 C 0.44364 0.70464 0.85685 0.0
C362 C 0.41732 0.66008 0.85867 0.0
H363 H 0.47768 0.6831 0.99357 0.0
C364 C 0.45456 0.68774 0.01001 0.0
H365 H 0.38973 0.67328 0.01442 0.0
H366 H 0.32421 0.50735 0.90944 0.0
H367 H 0.29863 0.47392 0.9703 0.0
H368 H 0.31869 0.51782 0.0283 0.0
H369 H 0.36473 0.59546 0.02579 0.0
C370 C 0.41365 0.66995 0.99801 0.0
C371 C 0.39965 0.64399 0.96265 0.0
C372 C 0.37188 0.59879 0.96448 0.0
C373 C 0.35967 0.57356 0.93093 0.0
C374 C 0.33344 0.52826 0.93383 0.0
C375 C 0.31877 0.50859 0.96865 0.0
C376 C 0.33012 0.53329 1.00132 0.0
C377 C 0.3565 0.57785 0.99946 0.0
H378 H 0.80784 0.324 0.04867 0.0
C379 C 0.78379 0.31446 0.02657 0.0
H380 H 0.72956 0.31776 0.00696 0.0
H381 H 0.69717 0.3606 0.17546 0.0
H382 H 0.64251 0.28528 0.17152 0.0
H383 H 0.63823 0.24125 0.11623 0.0
H384 H 0.68897 0.27231 0.06467 0.0
C385 C 0.75458 0.32773 0.02819 0.0
C386 C 0.75497 0.35537 0.05978 0.0
C387 C 0.72425 0.33716 0.08905 0.0
C388 C 0.72614 0.36285 0.12051 0.0
C389 C 0.69643 0.34312 0.1503 0.0
C390 C 0.66504 0.29975 0.14853 0.0
C391 C 0.66267 0.27494 0.11744 0.0
C392 C 0.69196 0.29318 0.08803 0.0
H393 H 0.70221 0.43263 0.14412 0.0
C394 C 0.73048 0.44505 0.16207 0.0
H395 H 0.78984 0.44731 0.17217 0.0
H396 H 0.81657 0.40098 0.00688 0.0
H397 H 0.87084 0.47659 0.01022 0.0
H398 H 0.87408 0.52134 0.0646 0.0
H399 H 0.82304 0.49078 0.11592 0.0
C400 C 0.76097 0.43429 0.15494 0.0
C401 C 0.75809 0.40708 0.12202 0.0
C402 C 0.78841 0.42541 0.09239 0.0
C403 C 0.78673 0.39958 0.06116 0.0
C404 C 0.81686 0.41893 0.03159 0.0
C405 C 0.84805 0.46236 0.03306 0.0
C406 C 0.84986 0.48756 0.06366 0.0
C407 C 0.82041 0.46954 0.093 0.0
H408 H 0.30466 0.70061 0.32929 0.0
C409 C 0.30862 0.73143 0.33866 0.0
H410 H 0.34292 0.79897 0.3309 0.0
H411 H 0.49779 0.78453 0.25475 0.0
H412 H 0.52722 0.8088 0.31716 0.0
H413 H 0.48286 0.81443 0.36778 0.0
H414 H 0.40855 0.79529 0.35633 0.0
C415 C 0.33746 0.7677 0.32132 0.0
C416 C 0.36458 0.76625 0.29006 0.0
C417 C 0.4083 0.77881 0.29684 0.0
C418 C 0.43423 0.7767 0.26734 0.0
C419 C 0.47711 0.78717 0.27559 0.0
C420 C 0.49432 0.80078 0.31145 0.0
C421 C 0.46932 0.80386 0.33997 0.0
C422 C 0.42674 0.79285 0.33298 0.0
H423 H 0.48493 0.83099 0.20051 0.0
C424 C 0.47758 0.80093 0.18655 0.0
H425 H 0.43593 0.73357 0.18479 0.0
H426 H 0.28231 0.7411 0.26731 0.0
H427 H 0.25272 0.71698 0.20484 0.0
H428 H 0.29774 0.71397 0.15348 0.0
H429 H 0.37262 0.73505 0.16423 0.0
C430 C 0.44435 0.76382 0.1989 0.0
C431 C 0.41675 0.76347 0.23066 0.0
C432 C 0.37285 0.7505 0.22401 0.0
C433 C 0.34679 0.75203 0.25369 0.0
C434 C 0.30336 0.73991 0.24599 0.0
C435 C 0.28601 0.72619 0.21019 0.0
C436 C 0.31136 0.72452 0.18127 0.0
C437 C 0.35431 0.73664 0.18787 0.0
loop_
_geom_bond_atom_site_label_1
_geom_bond_atom_site_label_2
_geom_bond_distance
_geom_bond_site_symmetry_2
_ccdc_geom_bond_type
C0 O1 1.160 . S
C0 O7 1.185 . S
O1 C0 1.160 . S
O2 Zn3 1.899 . S
O2 C10 1.284 . S
Zn3 O2 1.899 . S
Zn3 O4 2.032 . S
Zn3 O7 2.086 . S
Zn3 O12 1.977 . S
O4 Zn3 2.032 . S
O4 C8 1.278 . S
C5 O6 1.203 . S
C5 O12 1.267 . S
O6 C5 1.203 . S
O7 C0 1.185 . S
O7 Zn3 2.086 . S
C8 O4 1.278 . S
C8 O9 1.211 . S
O9 C8 1.211 . S
C10 O2 1.284 . S
C10 O11 1.273 . S
O11 C10 1.273 . S
O12 Zn3 1.977 . S
O12 C5 1.267 . S
C13 O14 1.160 . S
C13 O20 1.185 . S
O14 C13 1.160 . S
O15 Zn16 1.899 . S
O15 C23 1.284 . S
Zn16 O15 1.899 . S
Zn16 O17 2.032 . S
Zn16 O20 2.086 . S
Zn16 O25 1.977 . S
O17 Zn16 2.032 . S
O17 C21 1.278 . S
C18 O19 1.203 . S
C18 O25 1.267 . S
O19 C18 1.203 . S
O20 C13 1.185 . S
O20 Zn16 2.086 . S
C21 O17 1.278 . S
C21 O22 1.211 . S
O22 C21 1.211 . S
C23 O15 1.284 . S
C23 O24 1.273 . S
O24 C23 1.273 . S
O25 Zn16 1.977 . S
O25 C18 1.267 . S
C26 O27 1.160 . S
C26 O33 1.185 . S
O27 C26 1.160 . S
O28 Zn29 1.899 . S
O28 C36 1.284 . S
Zn29 O28 1.899 . S
Zn29 O30 2.032 . S
Zn29 O33 2.086 . S
Zn29 O38 1.977 . S
O30 Zn29 2.032 . S
O30 C34 1.278 . S
C31 O32 1.203 . S
C31 O38 1.267 . S
O32 C31 1.203 . S
O33 C26 1.185 . S
O33 Zn29 2.086 . S
C34 O30 1.278 . S
C34 O35 1.211 . S
O35 C34 1.211 . S
C36 O28 1.284 . S
C36 O37 1.273 . S
O37 C36 1.273 . S
O38 Zn29 1.977 . S
O38 C31 1.267 . S
C39 O40 1.160 . S
C39 O46 1.185 . S
O40 C39 1.160 . S
O41 Zn42 1.899 . S
O41 C49 1.284 . S
Zn42 O41 1.899 . S
Zn42 O43 2.032 . S
Zn42 O46 2.086 . S
Zn42 O51 1.977 . S
O43 Zn42 2.032 . S
O43 C47 1.278 . S
C44 O45 1.203 . S
C44 O51 1.267 . S
O45 C44 1.203 . S
O46 C39 1.185 . S
O46 Zn42 2.086 . S
C47 O43 1.278 . S
C47 O48 1.211 . S
O48 C47 1.211 . S
C49 O41 1.284 . S
C49 O50 1.273 . S
O50 C49 1.273 . S
O51 Zn42 1.977 . S
O51 C44 1.267 . S
C52 O53 1.160 . S
C52 O59 1.185 . S
O53 C52 1.160 . S
O54 Zn55 1.899 . S
O54 C62 1.284 . S
Zn55 O54 1.899 . S
Zn55 O56 2.032 . S
Zn55 O59 2.086 . S
Zn55 O64 1.977 . S
O56 Zn55 2.032 . S
O56 C60 1.278 . S
C57 O58 1.203 . S
C57 O64 1.267 . S
O58 C57 1.203 . S
O59 C52 1.185 . S
O59 Zn55 2.086 . S
C60 O56 1.278 . S
C60 O61 1.211 . S
O61 C60 1.211 . S
C62 O54 1.284 . S
C62 O63 1.273 . S
O63 C62 1.273 . S
O64 Zn55 1.977 . S
O64 C57 1.267 . S
C65 O66 1.160 . S
C65 O72 1.185 . S
O66 C65 1.160 . S
O67 Zn68 1.899 . S
O67 C75 1.284 . S
Zn68 O67 1.899 . S
Zn68 O69 2.032 . S
Zn68 O72 2.086 . S
Zn68 O77 1.977 . S
O69 Zn68 2.032 . S
O69 C73 1.278 . S
C70 O71 1.203 . S
C70 O77 1.267 . S
O71 C70 1.203 . S
O72 C65 1.185 . S
O72 Zn68 2.086 . S
C73 O69 1.278 . S
C73 O74 1.211 . S
O74 C73 1.211 . S
C75 O67 1.284 . S
C75 O76 1.273 . S
O76 C75 1.273 . S
O77 Zn68 1.977 . S
O77 C70 1.267 . S
H78 C79 0.951 . S
C79 H78 0.951 . S
C79 C85 1.265 . S
H80 C85 0.950 . S
H81 C89 0.949 . S
H82 C90 0.950 . S
H83 C91 0.951 . S
H84 C92 0.951 . S
C85 C79 1.265 . S
C85 H80 0.950 . S
C85 C86 1.478 . S
C86 C85 1.478 . S
C86 C87 1.397 . S
C86 C103 1.394 . S
C87 C86 1.397 . S
C87 C88 1.438 1_545 S
C87 C92 1.429 . S
C88 C87 1.438 1_565 S
C88 C89 1.428 . S
C88 C101 1.394 . S
C89 H81 0.949 . S
C89 C88 1.428 . S
C89 C90 1.345 1_565 S
C90 H82 0.950 . S
C90 C89 1.345 1_545 S
C90 C91 1.424 . S
C91 H83 0.951 . S
C91 C90 1.424 . S
C91 C92 1.347 . S
C92 H84 0.951 . S
C92 C87 1.429 . S
C92 C91 1.347 . S
H93 C94 0.951 . S
C94 H93 0.951 . S
C94 C100 1.265 . S
H95 C100 0.950 . S
H96 C104 0.949 . S
H97 C105 0.950 . S
H98 C106 0.951 . S
H99 C107 0.951 . S
C100 C94 1.265 . S
C100 H95 0.950 . S
C100 C101 1.478 . S
C101 C88 1.394 . S
C101 C100 1.478 . S
C101 C102 1.397 . S
C102 C101 1.397 . S
C102 C103 1.438 1_565 S
C102 C107 1.429 . S
C103 C86 1.394 . S
C103 C102 1.438 1_545 S
C103 C104 1.428 . S
C104 H96 0.949 . S
C104 C103 1.428 . S
C104 C105 1.345 . S
C105 H97 0.950 . S
C105 C104 1.345 . S
C105 C106 1.424 1_545 S
C106 H98 0.951 . S
C106 C105 1.424 1_565 S
C106 C107 1.347 . S
C107 H99 0.951 . S
C107 C102 1.429 . S
C107 C106 1.347 . S
H108 C109 0.951 . S
C109 H108 0.951 . S
C109 C115 1.265 . S
H110 C115 0.950 . S
H111 C119 0.949 . S
H112 C120 0.950 . S
H113 C121 0.951 . S
H114 C122 0.951 . S
C115 C109 1.265 . S
C115 H110 0.950 . S
C115 C116 1.478 . S
C116 C115 1.478 . S
C116 C117 1.397 . S
C116 C133 1.394 . S
C117 C116 1.397 . S
C117 C118 1.438 . S
C117 C122 1.429 . S
C118 C117 1.438 . S
C118 C119 1.428 . S
C118 C131 1.394 . S
C119 H111 0.949 . S
C119 C118 1.428 . S
C119 C120 1.345 . S
C120 H112 0.950 . S
C120 C119 1.345 . S
C120 C121 1.424 . S
C121 H113 0.951 . S
C121 C120 1.424 . S
C121 C122 1.347 . S
C122 H114 0.951 . S
C122 C117 1.429 . S
C122 C121 1.347 . S
H123 C124 0.951 . S
C124 H123 0.951 . S
C124 C130 1.265 . S
H125 C130 0.950 . S
H126 C134 0.949 . S
H127 C135 0.950 . S
H128 C136 0.951 . S
H129 C137 0.951 . S
C130 C124 1.265 . S
C130 H125 0.950 . S
C130 C131 1.478 . S
C131 C118 1.394 . S
C131 C130 1.478 . S
C131 C132 1.397 . S
C132 C131 1.397 . S
C132 C133 1.438 . S
C132 C137 1.429 . S
C133 C116 1.394 . S
C133 C132 1.438 . S
C133 C134 1.428 . S
C134 H126 0.949 . S
C134 C133 1.428 . S
C134 C135 1.345 . S
C135 H127 0.950 . S
C135 C134 1.345 . S
C135 C136 1.424 . S
C136 H128 0.951 . S
C136 C135 1.424 . S
C136 C137 1.347 . S
C137 H129 0.951 . S
C137 C132 1.429 . S
C137 C136 1.347 . S
H138 C139 0.951 . S
C139 H138 0.951 . S
C139 C145 1.265 . S
H140 C145 0.950 . S
H141 C149 0.949 . S
H142 C150 0.950 . S
H143 C151 0.951 . S
H144 C152 0.951 . S
C145 C139 1.265 . S
C145 H140 0.950 . S
C145 C146 1.478 . S
C146 C145 1.478 . S
C146 C147 1.397 . S
C146 C163 1.394 . S
C147 C146 1.397 . S
C147 C148 1.438 1_655 S
C147 C152 1.429 . S
C148 C147 1.438 1_455 S
C148 C149 1.428 . S
C148 C161 1.394 . S
C149 H141 0.949 . S
C149 C148 1.428 . S
C149 C150 1.345 1_455 S
C150 H142 0.950 . S
C150 C149 1.345 1_655 S
C150 C151 1.424 . S
C151 H143 0.951 . S
C151 C150 1.424 . S
C151 C152 1.347 . S
C152 H144 0.951 . S
C152 C147 1.429 . S
C152 C151 1.347 . S
H153 C154 0.951 . S
C154 H153 0.951 . S
C154 C160 1.265 . S
H155 C160 0.950 . S
H156 C164 0.949 . S
H157 C165 0.950 . S
H158 C166 0.951 . S
H159 C167 0.951 . S
C160 C154 1.265 . S
C160 H155 0.950 . S
C160 C161 1.478 . S
C161 C148 1.394 . S
C161 C160 1.478 . S
C161 C162 1.397 . S
C162 C161 1.397 . S
C162 C163 1.438 1_455 S
C162 C167 1.429 . S
C163 C146 1.394 . S
C163 C162 1.438 1_655 S
C163 C164 1.428 . S
C164 H156 0.949 . S
C164 C163 1.428 . S
C164 C165 1.355 . S
C165 H157 0.950 . S
C165 C164 1.355 . S
C165 C166 1.413 1_655 S
C166 H158 0.951 . S
C166 C165 1.413 1_455 S
C166 C167 1.347 . S
C167 H159 0.951 . S
C167 C162 1.429 . S
C167 C166 1.347 . S
H168 C169 0.951 . S
C169 H168 0.951 . S
C169 C175 1.265 . S
H170 C175 0.950 . S
H171 C179 0.949 . S
H172 C180 0.950 . S
H173 C181 0.951 . S
H174 C182 0.951 . S
C175 C169 1.265 . S
C175 H170 0.950 . S
C175 C176 1.478 . S
C176 C175 1.478 . S
C176 C177 1.397 1_554 S
C176 C193 1.394 . S
C177 C176 1.397 1_556 S
C177 C178 1.438 1_565 S
C177 C182 1.429 . S
C178 C177 1.438 1_545 S
C178 C179 1.428 . S
C178 C191 1.394 . S
C179 H171 0.949 . S
C179 C178 1.428 . S
C179 C180 1.345 1_545 S
C180 H172 0.950 . S
C180 C179 1.345 1_565 S
C180 C181 1.424 . S
C181 H173 0.951 . S
C181 C180 1.424 . S
C181 C182 1.347 . S
C182 H174 0.951 . S
C182 C177 1.429 . S
C182 C181 1.347 . S
H183 C184 0.951 . S
C184 H183 0.951 . S
C184 C190 1.265 . S
H185 C190 0.950 . S
H186 C194 0.949 . S
H187 C195 0.948 1_565 S
H188 C196 0.951 . S
H189 C197 0.951 . S
C190 C184 1.265 . S
C190 H185 0.950 . S
C190 C191 1.478 . S
C191 C178 1.394 . S
C191 C190 1.478 . S
C191 C192 1.397 1_556 S
C192 C191 1.397 1_554 S
C192 C193 1.438 1_545 S
C192 C197 1.429 . S
C193 C176 1.394 . S
C193 C192 1.438 1_565 S
C193 C194 1.428 . S
C194 H186 0.949 . S
C194 C193 1.428 . S
C194 C195 1.338 1_565 S
C195 H187 0.948 1_545 S
C195 C194 1.338 1_545 S
C195 C196 1.432 . S
C196 H188 0.951 . S
C196 C195 1.432 . S
C196 C197 1.347 . S
C197 H189 0.951 . S
C197 C192 1.429 . S
C197 C196 1.347 . S
H198 C199 0.951 . S
C199 H198 0.951 . S
C199 C205 1.265 . S
H200 C205 0.950 . S
H201 C209 0.949 . S
H202 C210 0.950 . S
H203 C211 0.951 . S
H204 C212 0.951 . S
C205 C199 1.265 . S
C205 H200 0.950 . S
C205 C206 1.478 . S
C206 C205 1.478 . S
C206 C207 1.397 . S
C206 C223 1.394 . S
C207 C206 1.397 . S
C207 C208 1.438 . S
C207 C212 1.429 . S
C208 C207 1.438 . S
C208 C209 1.428 . S
C208 C221 1.394 . S
C209 H201 0.949 . S
C209 C208 1.428 . S
C209 C210 1.345 . S
C210 H202 0.950 . S
C210 C209 1.345 . S
C210 C211 1.424 . S
C211 H203 0.951 . S
C211 C210 1.424 . S
C211 C212 1.347 . S
C212 H204 0.951 . S
C212 C207 1.429 . S
C212 C211 1.347 . S
H213 C214 0.951 . S
C214 H213 0.951 . S
C214 C220 1.265 . S
H215 C220 0.950 . S
H216 C224 0.949 . S
H217 C225 0.950 . S
H218 C226 0.951 . S
H219 C227 0.951 . S
C220 C214 1.265 . S
C220 H215 0.950 . S
C220 C221 1.478 . S
C221 C208 1.394 . S
C221 C220 1.478 . S
C221 C222 1.397 . S
C222 C221 1.397 . S
C222 C223 1.438 . S
C222 C227 1.429 . S
C223 C206 1.394 . S
C223 C222 1.438 . S
C223 C224 1.428 . S
C224 H216 0.949 . S
C224 C223 1.428 . S
C224 C225 1.345 . S
C225 H217 0.950 . S
C225 C224 1.345 . S
C225 C226 1.424 . S
C226 H218 0.951 . S
C226 C225 1.424 . S
C226 C227 1.347 . S
C227 H219 0.951 . S
C227 C222 1.429 . S
C227 C226 1.347 . S
H228 C229 0.951 . S
C229 H228 0.951 . S
C229 C235 1.265 . S
H230 C235 0.950 . S
H231 C239 0.949 . S
H232 C240 0.950 . S
H233 C241 0.951 . S
H234 C242 0.951 . S
C235 C229 1.265 . S
C235 H230 0.950 . S
C235 C236 1.478 . S
C236 C235 1.478 . S
C236 C237 1.397 . S
C236 C253 1.394 . S
C237 C236 1.397 . S
C237 C238 1.438 1_455 S
C237 C242 1.429 . S
C238 C237 1.438 1_655 S
C238 C239 1.428 . S
C238 C251 1.394 . S
C239 H231 0.949 . S
C239 C238 1.428 . S
C239 C240 1.345 . S
C240 H232 0.950 . S
C240 C239 1.345 . S
C240 C241 1.424 . S
C241 H233 0.951 . S
C241 C240 1.424 . S
C241 C242 1.347 1_655 S
C242 H234 0.951 . S
C242 C237 1.429 . S
C242 C241 1.347 1_455 S
H243 C244 0.951 . S
C244 H243 0.951 . S
C244 C250 1.265 . S
H245 C250 0.950 . S
H246 C254 0.949 . S
H247 C255 0.950 . S
H248 C256 0.951 . S
H249 C257 0.951 . S
C250 C244 1.265 . S
C250 H245 0.950 . S
C250 C251 1.478 . S
C251 C238 1.394 . S
C251 C250 1.478 . S
C251 C252 1.397 1_655 S
C252 C251 1.397 1_455 S
C252 C253 1.438 . S
C252 C257 1.429 1_455 S
C253 C236 1.394 . S
C253 C252 1.438 . S
C253 C254 1.428 . S
C254 H246 0.949 . S
C254 C253 1.428 . S
C254 C255 1.345 . S
C255 H247 0.950 . S
C255 C254 1.345 . S
C255 C256 1.424 . S
C256 H248 0.951 . S
C256 C255 1.424 . S
C256 C257 1.347 1_455 S
C257 H249 0.951 . S
C257 C252 1.429 1_655 S
C257 C256 1.347 1_655 S
H258 C259 0.951 . S
C259 H258 0.951 . S
C259 C265 1.265 . S
H260 C265 0.950 . S
H261 C269 0.949 . S
H262 C270 0.950 . S
H263 C271 0.951 . S
H264 C272 0.951 . S
C265 C259 1.265 . S
C265 H260 0.950 . S
C265 C266 1.478 . S
C266 C265 1.478 . S
C266 C267 1.397 . S
C266 C283 1.394 . S
C267 C266 1.397 . S
C267 C268 1.438 . S
C267 C272 1.429 . S
C268 C267 1.438 . S
C268 C269 1.428 . S
C268 C281 1.394 . S
C269 H261 0.949 . S
C269 C268 1.428 . S
C269 C270 1.345 . S
C270 H262 0.950 . S
C270 C269 1.345 . S
C270 C271 1.424 . S
C271 H263 0.951 . S
C271 C270 1.424 . S
C271 C272 1.347 . S
C272 H264 0.951 . S
C272 C267 1.429 . S
C272 C271 1.347 . S
H273 C274 0.951 . S
C274 H273 0.951 . S
C274 C280 1.265 . S
H275 C280 0.950 . S
H276 C284 0.949 . S
H277 C285 0.950 . S
H278 C286 0.951 . S
H279 C287 0.951 . S
C280 C274 1.265 . S
C280 H275 0.950 . S
C280 C281 1.478 . S
C281 C268 1.394 . S
C281 C280 1.478 . S
C281 C282 1.397 . S
C282 C281 1.397 . S
C282 C283 1.438 . S
C282 C287 1.429 . S
C283 C266 1.394 . S
C283 C282 1.438 . S
C283 C284 1.428 . S
C284 H276 0.949 . S
C284 C283 1.428 . S
C284 C285 1.345 . S
C285 H277 0.950 . S
C285 C284 1.345 . S
C285 C286 1.424 . S
C286 H278 0.951 . S
C286 C285 1.424 . S
C286 C287 1.347 . S
C287 H279 0.951 . S
C287 C282 1.429 . S
C287 C286 1.347 . S
H288 C289 0.951 . S
C289 H288 0.951 . S
C289 C295 1.265 . S
H290 C295 0.950 . S
H291 C299 0.949 . S
H292 C300 0.950 . S
H293 C301 0.951 . S
H294 C302 0.951 . S
C295 C289 1.265 . S
C295 H290 0.950 . S
C295 C296 1.478 . S
C296 C295 1.478 . S
C296 C297 1.397 . S
C296 C313 1.394 . S
C297 C296 1.397 . S
C297 C298 1.438 . S
C297 C302 1.429 . S
C298 C297 1.438 . S
C298 C299 1.428 . S
C298 C311 1.394 . S
C299 H291 0.949 . S
C299 C298 1.428 . S
C299 C300 1.345 . S
C300 H292 0.950 . S
C300 C299 1.345 . S
C300 C301 1.424 . S
C301 H293 0.951 . S
C301 C300 1.424 . S
C301 C302 1.347 . S
C302 H294 0.951 . S
C302 C297 1.429 . S
C302 C301 1.347 . S
H303 C304 0.951 . S
C304 H303 0.951 . S
C304 C310 1.265 . S
H305 C310 0.950 . S
H306 C314 0.949 . S
H307 C315 0.950 . S
H308 C316 0.951 . S
H309 C317 0.951 . S
C310 C304 1.265 . S
C310 H305 0.950 . S
C310 C311 1.478 . S
C311 C298 1.394 . S
C311 C310 1.478 . S
C311 C312 1.397 . S
C312 C311 1.397 . S
C312 C313 1.438 . S
C312 C317 1.429 . S
C313 C296 1.394 . S
C313 C312 1.438 . S
C313 C314 1.428 . S
C314 H306 0.949 . S
C314 C313 1.428 . S
C314 C315 1.345 . S
C315 H307 0.950 . S
C315 C314 1.345 . S
C315 C316 1.424 . S
C316 H308 0.951 . S
C316 C315 1.424 . S
C316 C317 1.347 . S
C317 H309 0.951 . S
C317 C312 1.429 . S
C317 C316 1.347 . S
H318 C319 0.951 . S
C319 H318 0.951 . S
C319 C325 1.265 . S
H320 C325 0.950 . S
H321 C329 0.949 . S
H322 C330 0.950 . S
H323 C331 0.951 . S
H324 C332 0.951 . S
C325 C319 1.265 . S
C325 H320 0.950 . S
C325 C326 1.478 . S
C326 C325 1.478 . S
C326 C327 1.397 . S
C326 C343 1.394 . S
C327 C326 1.397 . S
C327 C328 1.438 . S
C327 C332 1.429 . S
C328 C327 1.438 . S
C328 C329 1.428 . S
C328 C341 1.394 . S
C329 H321 0.949 . S
C329 C328 1.428 . S
C329 C330 1.345 . S
C330 H322 0.950 . S
C330 C329 1.345 . S
C330 C331 1.424 . S
C331 H323 0.951 . S
C331 C330 1.424 . S
C331 C332 1.347 . S
C332 H324 0.951 . S
C332 C327 1.429 . S
C332 C331 1.347 . S
H333 C334 0.951 . S
C334 H333 0.951 . S
C334 C340 1.265 . S
H335 C340 0.950 . S
H336 C344 0.949 . S
H337 C345 0.950 . S
H338 C346 0.951 . S
H339 C347 0.951 . S
C340 C334 1.265 . S
C340 H335 0.950 . S
C340 C341 1.478 . S
C341 C328 1.394 . S
C341 C340 1.478 . S
C341 C342 1.397 . S
C342 C341 1.397 . S
C342 C343 1.438 . S
C342 C347 1.429 . S
C343 C326 1.394 . S
C343 C342 1.438 . S
C343 C344 1.428 . S
C344 H336 0.949 . S
C344 C343 1.428 . S
C344 C345 1.345 . S
C345 H337 0.950 . S
C345 C344 1.345 . S
C345 C346 1.424 . S
C346 H338 0.951 . S
C346 C345 1.424 . S
C346 C347 1.347 . S
C347 H339 0.951 . S
C347 C342 1.429 . S
C347 C346 1.347 . S
H348 C349 0.951 . S
C349 H348 0.951 . S
C349 C355 1.265 . S
H350 C355 0.950 . S
H351 C359 0.949 . S
H352 C360 0.950 . S
H353 C361 0.951 . S
H354 C362 0.951 . S
C355 C349 1.265 . S
C355 H350 0.950 . S
C355 C356 1.478 . S
C356 C355 1.478 . S
C356 C357 1.397 . S
C356 C373 1.394 . S
C357 C356 1.397 . S
C357 C358 1.438 . S
C357 C362 1.429 . S
C358 C357 1.438 . S
C358 C359 1.428 . S
C358 C371 1.394 . S
C359 H351 0.949 . S
C359 C358 1.428 . S
C359 C360 1.345 . S
C360 H352 0.950 . S
C360 C359 1.345 . S
C360 C361 1.424 . S
C361 H353 0.951 . S
C361 C360 1.424 . S
C361 C362 1.347 . S
C362 H354 0.951 . S
C362 C357 1.429 . S
C362 C361 1.347 . S
H363 C364 0.951 . S
C364 H363 0.951 . S
C364 C370 1.265 . S
H365 C370 0.950 1_554 S
H366 C374 0.949 . S
H367 C375 0.950 . S
H368 C376 0.951 1_554 S
H369 C377 0.951 1_554 S
C370 C364 1.265 . S
C370 H365 0.950 1_556 S
C370 C371 1.478 . S
C371 C358 1.394 . S
C371 C370 1.478 . S
C371 C372 1.397 . S
C372 C371 1.397 . S
C372 C373 1.438 . S
C372 C377 1.429 . S
C373 C356 1.394 . S
C373 C372 1.438 . S
C373 C374 1.428 . S
C374 H366 0.949 . S
C374 C373 1.428 . S
C374 C375 1.345 . S
C375 H367 0.950 . S
C375 C374 1.345 . S
C375 C376 1.424 . S
C376 H368 0.951 1_556 S
C376 C375 1.424 . S
C376 C377 1.347 . S
C377 H369 0.951 1_556 S
C377 C372 1.429 . S
C377 C376 1.347 . S
H378 C379 0.951 . S
C379 H378 0.951 . S
C379 C385 1.265 . S
H380 C385 0.950 . S
H381 C389 0.949 . S
H382 C390 0.950 . S
H383 C391 0.951 . S
H384 C392 0.951 . S
C385 C379 1.265 . S
C385 H380 0.950 . S
C385 C386 1.478 . S
C386 C385 1.478 . S
C386 C387 1.397 . S
C386 C403 1.394 . S
C387 C386 1.397 . S
C387 C388 1.438 . S
C387 C392 1.429 . S
C388 C387 1.438 . S
C388 C389 1.428 . S
C388 C401 1.394 . S
C389 H381 0.949 . S
C389 C388 1.428 . S
C389 C390 1.345 . S
C390 H382 0.950 . S
C390 C389 1.345 . S
C390 C391 1.424 . S
C391 H383 0.951 . S
C391 C390 1.424 . S
C391 C392 1.347 . S
C392 H384 0.951 . S
C392 C387 1.429 . S
C392 C391 1.347 . S
H393 C394 0.951 . S
C394 H393 0.951 . S
C394 C400 1.265 . S
H395 C400 0.950 . S
H396 C404 0.949 . S
H397 C405 0.950 . S
H398 C406 0.951 . S
H399 C407 0.951 . S
C400 C394 1.265 . S
C400 H395 0.950 . S
C400 C401 1.478 . S
C401 C388 1.394 . S
C401 C400 1.478 . S
C401 C402 1.397 . S
C402 C401 1.397 . S
C402 C403 1.438 . S
C402 C407 1.429 . S
C403 C386 1.394 . S
C403 C402 1.438 . S
C403 C404 1.428 . S
C404 H396 0.949 . S
C404 C403 1.428 . S
C404 C405 1.345 . S
C405 H397 0.950 . S
C405 C404 1.345 . S
C405 C406 1.424 . S
C406 H398 0.951 . S
C406 C405 1.424 . S
C406 C407 1.347 . S
C407 H399 0.951 . S
C407 C402 1.429 . S
C407 C406 1.347 . S
H408 C409 0.951 . S
C409 H408 0.951 . S
C409 C415 1.265 . S
H410 C415 0.950 . S
H411 C419 0.949 . S
H412 C420 0.950 . S
H413 C421 0.951 . S
H414 C422 0.951 . S
C415 C409 1.265 . S
C415 H410 0.950 . S
C415 C416 1.478 . S
C416 C415 1.478 . S
C416 C417 1.397 . S
C416 C433 1.394 . S
C417 C416 1.397 . S
C417 C418 1.438 . S
C417 C422 1.429 . S
C418 C417 1.438 . S
C418 C419 1.428 . S
C418 C431 1.394 . S
C419 H411 0.949 . S
C419 C418 1.428 . S
C419 C420 1.345 . S
C420 H412 0.950 . S
C420 C419 1.345 . S
C420 C421 1.424 . S
C421 H413 0.951 . S
C421 C420 1.424 . S
C421 C422 1.347 . S
C422 H414 0.951 . S
C422 C417 1.429 . S
C422 C421 1.347 . S
H423 C424 0.951 . S
C424 H423 0.951 . S
C424 C430 1.265 . S
H425 C430 0.950 . S
H426 C434 0.949 . S
H427 C435 0.950 . S
H428 C436 0.951 . S
H429 C437 0.951 . S
C430 C424 1.265 . S
C430 H425 0.950 . S
C430 C431 1.478 . S
C431 C418 1.394 . S
C431 C430 1.478 . S
C431 C432 1.397 . S
C432 C431 1.397 . S
C432 C433 1.438 . S
C432 C437 1.429 . S
C433 C416 1.394 . S
C433 C432 1.438 . S
C433 C434 1.428 . S
C434 H426 0.949 . S
C434 C433 1.428 . S
C434 C435 1.345 . S
C435 H427 0.950 . S
C435 C434 1.345 . S
C435 C436 1.424 . S
C436 H428 0.951 . S
C436 C435 1.424 . S
C436 C437 1.347 . S
C437 H429 0.951 . S
C437 C432 1.429 . S
C437 C436 1.347 . S
C79 C5 1.360 . S
C94 C65 1.425 . S
C109 C0 1.394 . S
C124 C18 1.400 . S
C139 C31 1.387 . S
C154 C13 1.394 . S
C169 C44 1.367 . S
C184 C26 1.417 . S
C199 C57 1.387 . S
C214 C39 1.395 . S
C229 C70 1.431 . S
C244 C52 1.358 . S
C259 C10 1.523 . S
C274 C60 1.523 . S
C289 C73 1.477 . S
C304 C23 1.493 . S
C319 C36 1.494 . S
C334 C8 1.479 . S
C349 C21 1.527 . S
C364 C49 1.534 1_556 S
C379 C34 1.474 1_554 S
C394 C62 1.510 . S
C409 C75 1.499 . S
C424 C47 1.462 . S
