# Generated by pormake.
# Topology deh, (3)-cn, num edge types: 1
# Building blocks:
#     Node 0, Type 0, BuildingBlock: WUSLED_clean_sbu_0, # of connection points: 3
#     Node 1, Type 0, BuildingBlock: WUSLED_clean_sbu_0, # of connection points: 3
#     Node 2, Type 0, BuildingBlock: WUSLED_clean_sbu_0, # of connection points: 3
#     Node 3, Type 0, BuildingBlock: WUSLED_clean_sbu_0, # of connection points: 3
#     Node 4, Type 0, BuildingBlock: WUSLED_clean_sbu_0, # of connection points: 3
#     Node 5, Type 0, BuildingBlock: WUSLED_clean_sbu_0, # of connection points: 3
#     Node 6, Type 0, BuildingBlock: WUSLED_clean_sbu_0, # of connection points: 3
#     Node 7, Type 0, BuildingBlock: WUSLED_clean_sbu_0, # of connection points: 3
#     Node 8, Type 0, BuildingBlock: WUSLED_clean_sbu_0, # of connection points: 3
#     Node 9, Type 0, BuildingBlock: WUSLED_clean_sbu_0, # of connection points: 3
#     Node 10, Type 0, BuildingBlock: WUSLED_clean_sbu_0, # of connection points: 3
#     Node 11, Type 0, BuildingBlock: WUSLED_clean_sbu_0, # of connection points: 3
#     Node 12, Type 0, BuildingBlock: WUSLED_clean_sbu_0, # of connection points: 3
#     Node 13, Type 0, BuildingBlock: WUSLED_clean_sbu_0, # of connection points: 3
#     Node 14, Type 0, BuildingBlock: WUSLED_clean_sbu_0, # of connection points: 3
#     Node 15, Type 0, BuildingBlock: WUSLED_clean_sbu_0, # of connection points: 3
#     Node 16, Type 0, BuildingBlock: WUSLED_clean_sbu_0, # of connection points: 3
#     Node 17, Type 0, BuildingBlock: WUSLED_clean_sbu_0, # of connection points: 3
#     Node 18, Type 0, BuildingBlock: WUSLED_clean_sbu_0, # of connection points: 3
#     Node 19, Type 0, BuildingBlock: WUSLED_clean_sbu_0, # of connection points: 3
#     Node 20, Type 0, BuildingBlock: WUSLED_clean_sbu_0, # of connection points: 3
#     Node 21, Type 0, BuildingBlock: WUSLED_clean_sbu_0, # of connection points: 3
#     Node 22, Type 0, BuildingBlock: WUSLED_clean_sbu_0, # of connection points: 3
#     Node 23, Type 0, BuildingBlock: WUSLED_clean_sbu_0, # of connection points: 3
#     Node 24, Type 0, BuildingBlock: WUSLED_clean_sbu_0, # of connection points: 3
#     Node 25, Type 0, BuildingBlock: WUSLED_clean_sbu_0, # of connection points: 3
#     Node 26, Type 0, BuildingBlock: WUSLED_clean_sbu_0, # of connection points: 3
#     Node 27, Type 0, BuildingBlock: WUSLED_clean_sbu_0, # of connection points: 3
#     Node 28, Type 0, BuildingBlock: WUSLED_clean_sbu_0, # of connection points: 3
#     Node 29, Type 0, BuildingBlock: WUSLED_clean_sbu_0, # of connection points: 3
#     Node 30, Type 0, BuildingBlock: WUSLED_clean_sbu_0, # of connection points: 3
#     Node 31, Type 0, BuildingBlock: WUSLED_clean_sbu_0, # of connection points: 3
#     Edge 32, Type (0, 0), BuildingBlock: TEMPAE_clean_linker_10, # of connection points: 2
#     Edge 33, Type (0, 0), BuildingBlock: TEMPAE_clean_linker_10, # of connection points: 2
#     Edge 34, Type (0, 0), BuildingBlock: TEMPAE_clean_linker_10, # of connection points: 2
#     Edge 35, Type (0, 0), BuildingBlock: TEMPAE_clean_linker_10, # of connection points: 2
#     Edge 36, Type (0, 0), BuildingBlock: TEMPAE_clean_linker_10, # of connection points: 2
#     Edge 37, Type (0, 0), BuildingBlock: TEMPAE_clean_linker_10, # of connection points: 2
#     Edge 38, Type (0, 0), BuildingBlock: TEMPAE_clean_linker_10, # of connection points: 2
#     Edge 39, Type (0, 0), BuildingBlock: TEMPAE_clean_linker_10, # of connection points: 2
#     Edge 40, Type (0, 0), BuildingBlock: TEMPAE_clean_linker_10, # of connection points: 2
#     Edge 41, Type (0, 0), BuildingBlock: TEMPAE_clean_linker_10, # of connection points: 2
#     Edge 42, Type (0, 0), BuildingBlock: TEMPAE_clean_linker_10, # of connection points: 2
#     Edge 43, Type (0, 0), BuildingBlock: TEMPAE_clean_linker_10, # of connection points: 2
#     Edge 44, Type (0, 0), BuildingBlock: TEMPAE_clean_linker_10, # of connection points: 2
#     Edge 45, Type (0, 0), BuildingBlock: TEMPAE_clean_linker_10, # of connection points: 2
#     Edge 46, Type (0, 0), BuildingBlock: TEMPAE_clean_linker_10, # of connection points: 2
#     Edge 47, Type (0, 0), BuildingBlock: TEMPAE_clean_linker_10, # of connection points: 2
#     Edge 48, Type (0, 0), BuildingBlock: TEMPAE_clean_linker_10, # of connection points: 2
#     Edge 49, Type (0, 0), BuildingBlock: TEMPAE_clean_linker_10, # of connection points: 2
#     Edge 50, Type (0, 0), BuildingBlock: TEMPAE_clean_linker_10, # of connection points: 2
#     Edge 51, Type (0, 0), BuildingBlock: TEMPAE_clean_linker_10, # of connection points: 2
#     Edge 52, Type (0, 0), BuildingBlock: TEMPAE_clean_linker_10, # of connection points: 2
#     Edge 53, Type (0, 0), BuildingBlock: TEMPAE_clean_linker_10, # of connection points: 2
#     Edge 54, Type (0, 0), BuildingBlock: TEMPAE_clean_linker_10, # of connection points: 2
#     Edge 55, Type (0, 0), BuildingBlock: TEMPAE_clean_linker_10, # of connection points: 2
#     Edge 56, Type (0, 0), BuildingBlock: TEMPAE_clean_linker_10, # of connection points: 2
#     Edge 57, Type (0, 0), BuildingBlock: TEMPAE_clean_linker_10, # of connection points: 2
#     Edge 58, Type (0, 0), BuildingBlock: TEMPAE_clean_linker_10, # of connection points: 2
#     Edge 59, Type (0, 0), BuildingBlock: TEMPAE_clean_linker_10, # of connection points: 2
#     Edge 60, Type (0, 0), BuildingBlock: TEMPAE_clean_linker_10, # of connection points: 2
#     Edge 61, Type (0, 0), BuildingBlock: TEMPAE_clean_linker_10, # of connection points: 2
#     Edge 62, Type (0, 0), BuildingBlock: TEMPAE_clean_linker_10, # of connection points: 2
#     Edge 63, Type (0, 0), BuildingBlock: TEMPAE_clean_linker_10, # of connection points: 2
#     Edge 64, Type (0, 0), BuildingBlock: TEMPAE_clean_linker_10, # of connection points: 2
#     Edge 65, Type (0, 0), BuildingBlock: TEMPAE_clean_linker_10, # of connection points: 2
#     Edge 66, Type (0, 0), BuildingBlock: TEMPAE_clean_linker_10, # of connection points: 2
#     Edge 67, Type (0, 0), BuildingBlock: TEMPAE_clean_linker_10, # of connection points: 2
#     Edge 68, Type (0, 0), BuildingBlock: TEMPAE_clean_linker_10, # of connection points: 2
#     Edge 69, Type (0, 0), BuildingBlock: TEMPAE_clean_linker_10, # of connection points: 2
#     Edge 70, Type (0, 0), BuildingBlock: TEMPAE_clean_linker_10, # of connection points: 2
#     Edge 71, Type (0, 0), BuildingBlock: TEMPAE_clean_linker_10, # of connection points: 2
#     Edge 72, Type (0, 0), BuildingBlock: TEMPAE_clean_linker_10, # of connection points: 2
#     Edge 73, Type (0, 0), BuildingBlock: TEMPAE_clean_linker_10, # of connection points: 2
#     Edge 74, Type (0, 0), BuildingBlock: TEMPAE_clean_linker_10, # of connection points: 2
#     Edge 75, Type (0, 0), BuildingBlock: TEMPAE_clean_linker_10, # of connection points: 2
#     Edge 76, Type (0, 0), BuildingBlock: TEMPAE_clean_linker_10, # of connection points: 2
#     Edge 77, Type (0, 0), BuildingBlock: TEMPAE_clean_linker_10, # of connection points: 2
#     Edge 78, Type (0, 0), BuildingBlock: TEMPAE_clean_linker_10, # of connection points: 2
#     Edge 79, Type (0, 0), BuildingBlock: TEMPAE_clean_linker_10, # of connection points: 2
# Relax obj value: 0.006
# Max RMSD: 0.035
# Mean RMSD: 0.011
data_MOF--net-deh--node1-WUSLED_clean_sbu_0--edge1-TEMPAE_clean_linker_10
_symmetry_space_group_name_H-M    P1
_symmetry_Int_Tables_number       1
_symmetry_cell_setting            triclinic
loop_
_symmetry_equiv_pos_as_xyz
'x, y, z'
_cell_length_a     72.114173
_cell_length_b     74.340807
_cell_length_c     157.4497
_cell_angle_alpha  89.996784
_cell_angle_beta   90.00622
_cell_angle_gamma 90.031859
loop_
_atom_site_label
_atom_site_type_symbol
_atom_site_fract_x
_atom_site_fract_y
_atom_site_fract_z
_atom_type_partial_charge
C0 C 0.11798 0.04046 0.30814 0.0
C1 C 0.10895 0.0416 0.31602 0.0
C2 C 0.0789 0.03989 0.30896 0.0
C3 C 0.08956 0.04129 0.31643 0.0
C4 C 0.0881 0.03864 0.3011 0.0
C5 C 0.10747 0.03893 0.3007 0.0
U6 U 0.16547 0.04437 0.31859 0.0
O7 O 0.19159 0.0303 0.31574 0.0
O8 O 0.1901 0.05968 0.31465 0.0
C9 C 0.19994 0.0451 0.31324 0.0
C10 C 0.13831 0.04109 0.30759 0.0
C11 C 0.20886 0.04415 0.30485 0.0
C12 C 0.20691 0.0441 0.28944 0.0
C13 C 0.19825 0.04478 0.29739 0.0
C14 C 0.23686 0.04196 0.29634 0.0
C15 C 0.22634 0.04272 0.28882 0.0
C16 C 0.22819 0.04269 0.30428 0.0
C17 C 0.16764 0.04948 0.34289 0.0
C18 C 0.19492 0.05857 0.35089 0.0
C19 C 0.16711 0.04919 0.35831 0.0
C20 C 0.1583 0.04618 0.35053 0.0
C21 C 0.18546 0.05559 0.35859 0.0
C22 C 0.18608 0.0555 0.34309 0.0
C23 C 0.15762 0.04714 0.33483 0.0
O24 O 0.14585 0.05661 0.3096 0.0
O25 O 0.14706 0.02726 0.31091 0.0
O26 O 0.15996 0.03163 0.33097 0.0
O27 O 0.15805 0.06096 0.32962 0.0
H28 H 0.11689 0.04284 0.32183 0.0
H29 H 0.08291 0.04246 0.32257 0.0
H30 H 0.08033 0.03728 0.29525 0.0
H31 H 0.11424 0.03799 0.29458 0.0
H32 H 0.19839 0.0445 0.28378 0.0
H33 H 0.18328 0.04582 0.29772 0.0
H34 H 0.25185 0.0411 0.29609 0.0
H35 H 0.23658 0.04221 0.30999 0.0
H36 H 0.20912 0.06332 0.35089 0.0
H37 H 0.15933 0.04701 0.3641 0.0
H38 H 0.14404 0.04158 0.35049 0.0
H39 H 0.19353 0.05804 0.33724 0.0
C40 C 0.26424 0.86288 0.55454 0.0
C41 C 0.26051 0.85397 0.56221 0.0
C42 C 0.26589 0.82499 0.55541 0.0
C43 C 0.26132 0.83519 0.56264 0.0
C44 C 0.2698 0.83404 0.54776 0.0
C45 C 0.26895 0.85283 0.54734 0.0
U46 U 0.25572 0.90768 0.56525 0.0
O47 O 0.26932 0.93402 0.56368 0.0
O48 O 0.23952 0.9312 0.5612 0.0
C49 C 0.25415 0.94171 0.56081 0.0
C50 C 0.26292 0.88258 0.55401 0.0
C51 C 0.25617 0.95203 0.55288 0.0
C52 C 0.25837 0.95345 0.53749 0.0
C53 C 0.2572 0.94335 0.54498 0.0
C54 C 0.25782 0.98094 0.54574 0.0
C55 C 0.25855 0.97239 0.53777 0.0
C56 C 0.25663 0.97085 0.55321 0.0
C57 C 0.24475 0.90599 0.58924 0.0
C58 C 0.24202 0.93177 0.59866 0.0
C59 C 0.23309 0.90212 0.60358 0.0
C60 C 0.23787 0.89489 0.5957 0.0
C61 C 0.23514 0.92063 0.60518 0.0
C62 C 0.24678 0.92449 0.59074 0.0
C63 C 0.24955 0.89782 0.58103 0.0
O64 O 0.24624 0.88917 0.55526 0.0
O65 O 0.27592 0.89149 0.55809 0.0
O66 O 0.26617 0.90146 0.57805 0.0
O67 O 0.23654 0.89836 0.57519 0.0
H68 H 0.2569 0.86155 0.56785 0.0
H69 H 0.25846 0.82867 0.56865 0.0
H70 H 0.27315 0.82659 0.54206 0.0
H71 H 0.27182 0.8595 0.54136 0.0
H72 H 0.25872 0.94642 0.53146 0.0
H73 H 0.25685 0.9288 0.54461 0.0
H74 H 0.25822 0.99547 0.54621 0.0
H75 H 0.25592 0.97776 0.55927 0.0
H76 H 0.24388 0.94605 0.5997 0.0
H77 H 0.22749 0.8932 0.60838 0.0
H78 H 0.23611 0.88059 0.59463 0.0
H79 H 0.25204 0.93327 0.5858 0.0
C80 C 0.39887 0.97893 0.80804 0.0
C81 C 0.40771 0.97641 0.81589 0.0
C82 C 0.4379 0.98041 0.80918 0.0
C83 C 0.42707 0.97712 0.81645 0.0
C84 C 0.4289 0.98308 0.80134 0.0
C85 C 0.40956 0.98232 0.80079 0.0
U86 U 0.35128 0.97373 0.81817 0.0
O87 O 0.3248 0.98707 0.81525 0.0
O88 O 0.32718 0.95775 0.81411 0.0
C89 C 0.3169 0.97205 0.81273 0.0
C90 C 0.37859 0.9778 0.80732 0.0
C91 C 0.30787 0.97279 0.80436 0.0
C92 C 0.30959 0.97554 0.789 0.0
C93 C 0.31835 0.97505 0.79693 0.0
C94 C 0.2798 0.97156 0.79586 0.0
C95 C 0.2902 0.97375 0.78836 0.0
C96 C 0.28857 0.97108 0.80378 0.0
C97 C 0.34884 0.96857 0.84247 0.0
C98 C 0.32189 0.95841 0.85042 0.0
C99 C 0.34898 0.96946 0.85789 0.0
C100 C 0.3578 0.97262 0.85013 0.0
C101 C 0.33098 0.96216 0.85814 0.0
C102 C 0.33074 0.96163 0.84264 0.0
C103 C 0.35891 0.97115 0.83444 0.0
O104 O 0.37139 0.96207 0.80925 0.0
O105 O 0.36936 0.99137 0.81059 0.0
O106 O 0.35621 0.9866 0.83058 0.0
O107 O 0.35894 0.95732 0.82923 0.0
H108 H 0.39964 0.97382 0.82156 0.0
H109 H 0.43355 0.97521 0.82259 0.0
H110 H 0.43682 0.98541 0.7956 0.0
H111 H 0.40294 0.98425 0.79467 0.0
H112 H 0.31803 0.97703 0.78335 0.0
H113 H 0.3333 0.97634 0.79727 0.0
H114 H 0.26484 0.97038 0.79562 0.0
H115 H 0.28028 0.96938 0.80946 0.0
H116 H 0.30797 0.95294 0.85039 0.0
H117 H 0.35648 0.97227 0.8637 0.0
H118 H 0.37179 0.97795 0.85011 0.0
H119 H 0.32357 0.9585 0.83678 0.0
C120 C 0.25269 0.15523 0.0541 0.0
C121 C 0.25478 0.16411 0.0619 0.0
C122 C 0.25106 0.19313 0.0549 0.0
C123 C 0.25396 0.18289 0.06231 0.0
C124 C 0.24883 0.1841 0.04711 0.0
C125 C 0.24964 0.16531 0.04672 0.0
U126 U 0.26013 0.11026 0.06491 0.0
O127 O 0.24662 0.084 0.06301 0.0
O128 O 0.27661 0.08675 0.06105 0.0
C129 C 0.26199 0.07628 0.06039 0.0
C130 C 0.25404 0.13552 0.0536 0.0
C131 C 0.26057 0.06603 0.05243 0.0
C132 C 0.25677 0.06472 0.03709 0.0
C133 C 0.25768 0.07472 0.04462 0.0
C134 C 0.2615 0.03729 0.04511 0.0
C135 C 0.25878 0.04588 0.03724 0.0
C136 C 0.26239 0.04728 0.05262 0.0
C137 C 0.26874 0.11113 0.08905 0.0
C138 C 0.28058 0.08619 0.09744 0.0
C139 C 0.27073 0.11364 0.1044 0.0
C140 C 0.26605 0.12101 0.09652 0.0
C141 C 0.27824 0.09622 0.10496 0.0
C142 C 0.27584 0.09358 0.08955 0.0
C143 C 0.26474 0.11971 0.08084 0.0
O144 O 0.27059 0.12893 0.05519 0.0
O145 O 0.24066 0.1266 0.0574 0.0
O146 O 0.24841 0.11623 0.07752 0.0
O147 O 0.27827 0.11937 0.07525 0.0
H148 H 0.25721 0.15651 0.06767 0.0
H149 H 0.25595 0.18941 0.06839 0.0
H150 H 0.24633 0.19155 0.04131 0.0
H151 H 0.24797 0.15866 0.04064 0.0
H152 H 0.25486 0.07178 0.03114 0.0
H153 H 0.25628 0.08922 0.04436 0.0
H154 H 0.26282 0.0228 0.04548 0.0
H155 H 0.26456 0.04036 0.0586 0.0
H156 H 0.28615 0.07267 0.09766 0.0
H157 H 0.269 0.12184 0.11003 0.0
H158 H 0.26064 0.13459 0.09625 0.0
H159 H 0.27795 0.08573 0.08383 0.0
C160 C 0.11699 0.97938 0.71193 0.0
C161 C 0.10806 0.97693 0.70409 0.0
C162 C 0.07794 0.9806 0.7109 0.0
C163 C 0.0887 0.97751 0.70358 0.0
C164 C 0.08703 0.9832 0.71872 0.0
C165 C 0.10638 0.98258 0.71922 0.0
U166 U 0.16431 0.97404 0.70159 0.0
O167 O 0.19087 0.98747 0.70432 0.0
O168 O 0.18851 0.95817 0.70557 0.0
C169 C 0.19883 0.97249 0.70686 0.0
C170 C 0.13729 0.97834 0.71258 0.0
C171 C 0.20802 0.97337 0.71518 0.0
C172 C 0.20655 0.97415 0.7306 0.0
C173 C 0.19762 0.97365 0.72271 0.0
C174 C 0.23637 0.97426 0.72351 0.0
C175 C 0.22605 0.97439 0.7311 0.0
C176 C 0.22742 0.97374 0.71563 0.0
C177 C 0.16579 0.96805 0.67731 0.0
C178 C 0.19337 0.96022 0.66925 0.0
C179 C 0.16422 0.96531 0.66197 0.0
C180 C 0.15566 0.96894 0.66974 0.0
C181 C 0.18313 0.96069 0.66163 0.0
C182 C 0.18475 0.96385 0.67704 0.0
C183 C 0.1561 0.97096 0.6854 0.0
O184 O 0.14447 0.96259 0.71072 0.0
O185 O 0.14642 0.99185 0.70918 0.0
O186 O 0.15905 0.98651 0.68914 0.0
O187 O 0.15626 0.9573 0.6907 0.0
H188 H 0.11608 0.97448 0.69839 0.0
H189 H 0.08215 0.97566 0.69745 0.0
H190 H 0.07916 0.98537 0.72449 0.0
H191 H 0.11306 0.98444 0.72532 0.0
H192 H 0.19819 0.97403 0.73631 0.0
H193 H 0.18261 0.97335 0.72248 0.0
H194 H 0.25137 0.9747 0.72365 0.0
H195 H 0.23565 0.9736 0.70987 0.0
H196 H 0.20791 0.95658 0.6692 0.0
H197 H 0.15602 0.96606 0.65622 0.0
H198 H 0.14102 0.97223 0.66984 0.0
H199 H 0.19277 0.9631 0.68285 0.0
C200 C 0.25258 0.86341 0.96583 0.0
C201 C 0.25682 0.85444 0.95823 0.0
C202 C 0.25058 0.82553 0.96495 0.0
C203 C 0.25585 0.83567 0.9578 0.0
C204 C 0.24614 0.83464 0.97253 0.0
C205 C 0.24716 0.85342 0.97295 0.0
U206 U 0.26241 0.90823 0.95532 0.0
O207 O 0.24905 0.93471 0.95678 0.0
O208 O 0.27863 0.9315 0.95967 0.0
C209 C 0.26412 0.94219 0.95988 0.0
C210 C 0.25409 0.8831 0.96638 0.0
C211 C 0.26174 0.95249 0.96779 0.0
C212 C 0.25975 0.95402 0.98319 0.0
C213 C 0.26115 0.94389 0.97572 0.0
C214 C 0.25913 0.98142 0.97486 0.0
C215 C 0.25889 0.97294 0.98286 0.0
C216 C 0.26056 0.97128 0.96741 0.0
C217 C 0.27526 0.90694 0.93152 0.0
C218 C 0.2759 0.93207 0.92163 0.0
C219 C 0.29095 0.904 0.91795 0.0
C220 C 0.28551 0.89668 0.92573 0.0
C221 C 0.28622 0.92177 0.9158 0.0
C222 C 0.27052 0.92473 0.92946 0.0
C223 C 0.26968 0.89862 0.93961 0.0
O224 O 0.27094 0.88951 0.9654 0.0
O225 O 0.24151 0.89215 0.96212 0.0
O226 O 0.25287 0.9023 0.94235 0.0
O227 O 0.28223 0.89882 0.94566 0.0
H228 H 0.26099 0.86197 0.95266 0.0
H229 H 0.25913 0.8291 0.95185 0.0
H230 H 0.24225 0.82724 0.97818 0.0
H231 H 0.24388 0.86014 0.97887 0.0
H232 H 0.25978 0.94706 0.98923 0.0
H233 H 0.26204 0.92936 0.97613 0.0
H234 H 0.2582 0.99592 0.97436 0.0
H235 H 0.26092 0.97814 0.96134 0.0
H236 H 0.27219 0.94585 0.92018 0.0
H237 H 0.29866 0.89564 0.91356 0.0
H238 H 0.28925 0.88291 0.92721 0.0
H239 H 0.26269 0.93292 0.93387 0.0
C240 C 0.39857 0.03852 0.21173 0.0
C241 C 0.40752 0.04203 0.20399 0.0
C242 C 0.43758 0.03673 0.21062 0.0
C243 C 0.42687 0.04117 0.20344 0.0
C244 C 0.42847 0.03309 0.21833 0.0
C245 C 0.40914 0.03399 0.21888 0.0
U246 U 0.35112 0.04568 0.20171 0.0
O247 O 0.32443 0.0323 0.20426 0.0
O248 O 0.32725 0.06139 0.20621 0.0
C249 C 0.31678 0.04707 0.20722 0.0
C250 C 0.3783 0.03978 0.21245 0.0
C251 C 0.30791 0.04543 0.21559 0.0
C252 C 0.30999 0.04364 0.23098 0.0
C253 C 0.31861 0.0447 0.22303 0.0
C254 C 0.2799 0.04377 0.22413 0.0
C255 C 0.29053 0.04324 0.23162 0.0
C256 C 0.28854 0.04487 0.21619 0.0
C257 C 0.34897 0.05456 0.17763 0.0
C258 C 0.32136 0.05367 0.16876 0.0
C259 C 0.34965 0.06711 0.16339 0.0
C260 C 0.35855 0.06321 0.17105 0.0
C261 C 0.33096 0.0624 0.16215 0.0
C262 C 0.33028 0.04985 0.17646 0.0
C263 C 0.35888 0.05063 0.18558 0.0
O264 O 0.37133 0.05582 0.21101 0.0
O265 O 0.36893 0.0268 0.20874 0.0
O266 O 0.35598 0.03467 0.18894 0.0
O267 O 0.35907 0.06366 0.19122 0.0
H268 H 0.39953 0.0455 0.1984 0.0
H269 H 0.43344 0.04386 0.19739 0.0
H270 H 0.4363 0.02987 0.224 0.0
H271 H 0.40244 0.03128 0.2249 0.0
H272 H 0.31857 0.04304 0.23662 0.0
H273 H 0.33361 0.04504 0.22268 0.0
H274 H 0.2649 0.04368 0.2244 0.0
H275 H 0.28007 0.04546 0.21051 0.0
H276 H 0.30691 0.05002 0.16802 0.0
H277 H 0.35749 0.07362 0.1584 0.0
H278 H 0.37299 0.06692 0.17184 0.0
H279 H 0.32262 0.04324 0.18149 0.0
C280 C 0.26404 0.15426 0.46625 0.0
C281 C 0.26078 0.16315 0.45853 0.0
C282 C 0.26605 0.19214 0.46535 0.0
C283 C 0.26178 0.18192 0.45808 0.0
C284 C 0.26948 0.1831 0.47305 0.0
C285 C 0.26847 0.16432 0.47349 0.0
U286 U 0.25415 0.10949 0.45571 0.0
O287 O 0.26738 0.08297 0.45718 0.0
O288 O 0.2378 0.08628 0.46003 0.0
C289 C 0.25226 0.07553 0.46025 0.0
C290 C 0.26246 0.13458 0.4668 0.0
C291 C 0.25457 0.06524 0.46816 0.0
C292 C 0.25865 0.0639 0.48348 0.0
C293 C 0.25722 0.07394 0.47598 0.0
C294 C 0.25504 0.03639 0.4754 0.0
C295 C 0.25742 0.04499 0.48329 0.0
C296 C 0.25362 0.04643 0.46792 0.0
C297 C 0.24155 0.11092 0.43189 0.0
C298 C 0.24006 0.08551 0.42218 0.0
C299 C 0.2267 0.11417 0.41814 0.0
C300 C 0.23216 0.12148 0.42592 0.0
C301 C 0.23056 0.0961 0.41617 0.0
C302 C 0.24545 0.09285 0.43 0.0
C303 C 0.24709 0.11919 0.44 0.0
O304 O 0.2456 0.12823 0.46577 0.0
O305 O 0.27505 0.12548 0.46257 0.0
O306 O 0.26385 0.11541 0.44276 0.0
O307 O 0.23447 0.11901 0.44601 0.0
H308 H 0.25727 0.15556 0.45287 0.0
H309 H 0.25885 0.18844 0.45208 0.0
H310 H 0.27303 0.19054 0.47874 0.0
H311 H 0.27106 0.15766 0.47949 0.0
H312 H 0.26029 0.07097 0.48945 0.0
H313 H 0.25795 0.08849 0.47628 0.0
H314 H 0.25433 0.02186 0.475 0.0
H315 H 0.25163 0.03949 0.46193 0.0
H316 H 0.24309 0.07152 0.42088 0.0
H317 H 0.21965 0.12274 0.41362 0.0
H318 H 0.22907 0.13546 0.42726 0.0
H319 H 0.25262 0.08445 0.43457 0.0
C320 C 0.89863 0.97641 0.71244 0.0
C321 C 0.90753 0.97537 0.70453 0.0
C322 C 0.93767 0.97793 0.71144 0.0
C323 C 0.92689 0.97615 0.70403 0.0
C324 C 0.9286 0.97912 0.71934 0.0
C325 C 0.90926 0.97835 0.71982 0.0
U326 U 0.85099 0.97078 0.70228 0.0
O327 O 0.82707 0.95466 0.70645 0.0
O328 O 0.82445 0.98395 0.70525 0.0
C329 C 0.8167 0.9689 0.70782 0.0
C330 C 0.87835 0.97514 0.7131 0.0
C331 C 0.80775 0.96966 0.71621 0.0
C332 C 0.8096 0.97242 0.73156 0.0
C333 C 0.8183 0.97187 0.72362 0.0
C334 C 0.77973 0.96861 0.72475 0.0
C335 C 0.7902 0.97075 0.73223 0.0
C336 C 0.78845 0.96807 0.71681 0.0
C337 C 0.84789 0.96534 0.67802 0.0
C338 C 0.82339 0.95086 0.66989 0.0
C339 C 0.84546 0.97033 0.6628 0.0
C340 C 0.85431 0.97353 0.67056 0.0
C341 C 0.83004 0.95878 0.66236 0.0
C342 C 0.83218 0.95417 0.67766 0.0
C343 C 0.85823 0.96809 0.68599 0.0
O344 O 0.86903 0.98862 0.70979 0.0
O345 O 0.8713 0.95935 0.71119 0.0
O346 O 0.85871 0.95435 0.69125 0.0
O347 O 0.8556 0.98358 0.68983 0.0
H348 H 0.89949 0.9738 0.69876 0.0
H349 H 0.93344 0.97501 0.69786 0.0
H350 H 0.93646 0.98076 0.72515 0.0
H351 H 0.9026 0.97921 0.72598 0.0
H352 H 0.81809 0.97388 0.7372 0.0
H353 H 0.83326 0.97308 0.72326 0.0
H354 H 0.76477 0.96753 0.72501 0.0
H355 H 0.78009 0.96641 0.71115 0.0
H356 H 0.81141 0.94206 0.66976 0.0
H357 H 0.85103 0.97648 0.65711 0.0
H358 H 0.86642 0.98216 0.67071 0.0
H359 H 0.82688 0.94781 0.68335 0.0
C360 C 0.75257 0.15542 0.4651 0.0
C361 C 0.75611 0.16436 0.45742 0.0
C362 C 0.75043 0.19328 0.46423 0.0
C363 C 0.75507 0.18313 0.45699 0.0
C364 C 0.74665 0.18419 0.47188 0.0
C365 C 0.74774 0.16541 0.47231 0.0
U366 U 0.76103 0.11048 0.45444 0.0
O367 O 0.77818 0.08744 0.45838 0.0
O368 O 0.74827 0.08393 0.45636 0.0
C369 C 0.76381 0.07665 0.45906 0.0
C370 C 0.75431 0.13574 0.46567 0.0
C371 C 0.76267 0.06628 0.46702 0.0
C372 C 0.75115 0.06208 0.48141 0.0
C373 C 0.75209 0.0723 0.47395 0.0
C374 C 0.77158 0.03989 0.47516 0.0
C375 C 0.76087 0.04571 0.48211 0.0
C376 C 0.77242 0.05006 0.4677 0.0
C377 C 0.76963 0.11128 0.43029 0.0
C378 C 0.78227 0.08665 0.42195 0.0
C379 C 0.77109 0.11354 0.41492 0.0
C380 C 0.76632 0.12088 0.42279 0.0
C381 C 0.77929 0.09641 0.4144 0.0
C382 C 0.77744 0.09402 0.42983 0.0
C383 C 0.76544 0.11986 0.43848 0.0
O384 O 0.74114 0.12651 0.46188 0.0
O385 O 0.771 0.12945 0.46412 0.0
O386 O 0.77897 0.11988 0.44407 0.0
O387 O 0.7492 0.11605 0.44181 0.0
H388 H 0.75981 0.15682 0.45178 0.0
H389 H 0.75784 0.18969 0.45098 0.0
H390 H 0.74324 0.19161 0.47759 0.0
H391 H 0.74501 0.15872 0.47829 0.0
H392 H 0.74263 0.06691 0.4866 0.0
H393 H 0.7445 0.08485 0.47357 0.0
H394 H 0.77953 0.02755 0.47551 0.0
H395 H 0.78077 0.04525 0.46244 0.0
H396 H 0.7884 0.07336 0.42176 0.0
H397 H 0.76884 0.12153 0.40926 0.0
H398 H 0.76035 0.13424 0.42303 0.0
H399 H 0.78003 0.08637 0.43557 0.0
C400 C 0.61694 0.03839 0.21175 0.0
C401 C 0.60783 0.04064 0.20395 0.0
C402 C 0.57787 0.03723 0.21094 0.0
C403 C 0.58845 0.04005 0.20354 0.0
C404 C 0.58715 0.03482 0.21872 0.0
C405 C 0.60651 0.03541 0.21912 0.0
U406 U 0.66406 0.04429 0.20125 0.0
O407 O 0.68831 0.06002 0.20531 0.0
O408 O 0.69067 0.03078 0.20375 0.0
C409 C 0.69863 0.04564 0.20644 0.0
C410 C 0.63725 0.03943 0.2123 0.0
C411 C 0.70781 0.04441 0.21476 0.0
C412 C 0.70624 0.0431 0.23017 0.0
C413 C 0.69736 0.04386 0.22228 0.0
C414 C 0.7361 0.0432 0.22311 0.0
C415 C 0.72573 0.04282 0.23069 0.0
C416 C 0.7272 0.044 0.21523 0.0
C417 C 0.66516 0.05154 0.17705 0.0
C418 C 0.6933 0.05506 0.1687 0.0
C419 C 0.66325 0.05904 0.16207 0.0
C420 C 0.65459 0.0553 0.16981 0.0
C421 C 0.6827 0.05909 0.16143 0.0
C422 C 0.68458 0.05136 0.17647 0.0
C423 C 0.65558 0.04822 0.18513 0.0
O424 O 0.6463 0.0261 0.20871 0.0
O425 O 0.64439 0.05528 0.21057 0.0
O426 O 0.65584 0.06161 0.19057 0.0
O427 O 0.65857 0.03248 0.18868 0.0
H428 H 0.61571 0.04301 0.19819 0.0
H429 H 0.58175 0.04214 0.19747 0.0
H430 H 0.57944 0.03237 0.22451 0.0
H431 H 0.61335 0.03361 0.22519 0.0
H432 H 0.69785 0.04261 0.23587 0.0
H433 H 0.68234 0.04409 0.22203 0.0
H434 H 0.75111 0.04321 0.22329 0.0
H435 H 0.73547 0.04445 0.20948 0.0
H436 H 0.7083 0.05514 0.16843 0.0
H437 H 0.65469 0.06183 0.15657 0.0
H438 H 0.63958 0.05544 0.17014 0.0
H439 H 0.69296 0.04854 0.18202 0.0
C440 C 0.76488 0.86257 0.96631 0.0
C441 C 0.76208 0.85366 0.95856 0.0
C442 C 0.76697 0.8247 0.96546 0.0
C443 C 0.76314 0.8349 0.95813 0.0
C444 C 0.76989 0.83375 0.9732 0.0
C445 C 0.76885 0.85253 0.97362 0.0
U446 U 0.7554 0.90735 0.95569 0.0
O447 O 0.73924 0.93071 0.95997 0.0
O448 O 0.76888 0.93377 0.95717 0.0
C449 C 0.75382 0.94131 0.96025 0.0
C450 C 0.76336 0.88226 0.96684 0.0
C451 C 0.75623 0.95144 0.96821 0.0
C452 C 0.75856 0.95251 0.98361 0.0
C453 C 0.75693 0.9426 0.97608 0.0
C454 C 0.75915 0.98015 0.97546 0.0
C455 C 0.7596 0.97143 0.98339 0.0
C456 C 0.75746 0.97023 0.96794 0.0
C457 C 0.74328 0.90569 0.93179 0.0
C458 C 0.74225 0.93083 0.92192 0.0
C459 C 0.72926 0.90201 0.91789 0.0
C460 C 0.73423 0.89495 0.92578 0.0
C461 C 0.7333 0.92 0.91582 0.0
C462 C 0.74719 0.92373 0.92985 0.0
C463 C 0.74853 0.89759 0.93997 0.0
O464 O 0.77607 0.89129 0.96264 0.0
O465 O 0.74655 0.88866 0.96574 0.0
O466 O 0.73579 0.89799 0.94593 0.0
O467 O 0.76527 0.90128 0.94279 0.0
H468 H 0.75893 0.86123 0.95286 0.0
H469 H 0.76059 0.82835 0.9521 0.0
H470 H 0.7731 0.82633 0.97893 0.0
H471 H 0.77108 0.8592 0.97965 0.0
H472 H 0.75909 0.94537 0.9896 0.0
H473 H 0.75608 0.92806 0.9764 0.0
H474 H 0.75969 0.99469 0.97506 0.0
H475 H 0.7569 0.97727 0.96192 0.0
H476 H 0.74566 0.94471 0.92051 0.0
H477 H 0.72205 0.89338 0.91343 0.0
H478 H 0.731 0.88102 0.92719 0.0
H479 H 0.75414 0.93226 0.93443 0.0
C480 C 0.8996 0.04059 0.3075 0.0
C481 C 0.90834 0.04303 0.31538 0.0
C482 C 0.93861 0.03916 0.30874 0.0
C483 C 0.92769 0.04233 0.31599 0.0
C484 C 0.92971 0.03664 0.30087 0.0
C485 C 0.91038 0.03735 0.30026 0.0
U486 U 0.85203 0.04713 0.31745 0.0
O487 O 0.82795 0.06255 0.31296 0.0
O488 O 0.82553 0.03341 0.31488 0.0
C489 C 0.81768 0.0481 0.31194 0.0
C490 C 0.87933 0.04162 0.30674 0.0
C491 C 0.80876 0.04637 0.30357 0.0
C492 C 0.81063 0.0455 0.28816 0.0
C493 C 0.81933 0.04665 0.29609 0.0
C494 C 0.78073 0.04346 0.29512 0.0
C495 C 0.79121 0.04396 0.28758 0.0
C496 C 0.78945 0.04469 0.30304 0.0
C497 C 0.84977 0.05588 0.34156 0.0
C498 C 0.82241 0.05414 0.35055 0.0
C499 C 0.85021 0.06885 0.35571 0.0
C500 C 0.8591 0.0651 0.34803 0.0
C501 C 0.83176 0.06342 0.35707 0.0
C502 C 0.83132 0.05047 0.34283 0.0
C503 C 0.85969 0.0521 0.33359 0.0
O504 O 0.87008 0.02851 0.31041 0.0
O505 O 0.87215 0.05757 0.30819 0.0
O506 O 0.85972 0.06516 0.32797 0.0
O507 O 0.85702 0.03612 0.33021 0.0
H508 H 0.90019 0.04551 0.32104 0.0
H509 H 0.93408 0.04413 0.32216 0.0
H510 H 0.9377 0.03442 0.29514 0.0
H511 H 0.90384 0.03551 0.29412 0.0
H512 H 0.81911 0.0457 0.28249 0.0
H513 H 0.83429 0.04786 0.29639 0.0
H514 H 0.76576 0.04249 0.2949 0.0
H515 H 0.78108 0.04447 0.30876 0.0
H516 H 0.80814 0.04993 0.35139 0.0
H517 H 0.85787 0.0758 0.36063 0.0
H518 H 0.87336 0.06935 0.34716 0.0
H519 H 0.82383 0.04342 0.33788 0.0
C520 C 0.76426 0.1552 0.05432 0.0
C521 C 0.75361 0.16472 0.06028 0.0
C522 C 0.76614 0.19316 0.05511 0.0
C523 C 0.75445 0.18349 0.06064 0.0
C524 C 0.777 0.1835 0.04924 0.0
C525 C 0.77602 0.16471 0.04884 0.0
U526 U 0.75651 0.11003 0.06496 0.0
O527 O 0.74076 0.08625 0.06087 0.0
O528 O 0.77063 0.08399 0.0633 0.0
C529 C 0.75562 0.07605 0.0604 0.0
C530 C 0.7633 0.13543 0.05382 0.0
C531 C 0.75781 0.06598 0.05242 0.0
C532 C 0.75921 0.06492 0.037 0.0
C533 C 0.75785 0.07481 0.04454 0.0
C534 C 0.76089 0.03732 0.04514 0.0
C535 C 0.76065 0.04604 0.03721 0.0
C536 C 0.75946 0.04721 0.05267 0.0
C537 C 0.74574 0.11126 0.08897 0.0
C538 C 0.73848 0.08518 0.09767 0.0
C539 C 0.7387 0.11495 0.10393 0.0
C540 C 0.74349 0.12233 0.09608 0.0
C541 C 0.73609 0.09629 0.10484 0.0
C542 C 0.74329 0.09262 0.08979 0.0
C543 C 0.75028 0.11961 0.08077 0.0
O544 O 0.77648 0.12675 0.05788 0.0
O545 O 0.74676 0.12838 0.05498 0.0
O546 O 0.73724 0.11885 0.07495 0.0
O547 O 0.76693 0.11628 0.07777 0.0
H548 H 0.74451 0.15764 0.06462 0.0
H549 H 0.7457 0.19043 0.06516 0.0
H550 H 0.78639 0.19044 0.04499 0.0
H551 H 0.78448 0.1576 0.04426 0.0
H552 H 0.75921 0.07206 0.031 0.0
H553 H 0.75666 0.08933 0.04424 0.0
H554 H 0.76175 0.0228 0.04553 0.0
H555 H 0.75941 0.04017 0.0587 0.0
H556 H 0.73671 0.07075 0.09816 0.0
H557 H 0.73664 0.12394 0.10926 0.0
H558 H 0.74524 0.13677 0.09554 0.0
H559 H 0.745 0.08387 0.08434 0.0
C560 C 0.61727 0.97759 0.80837 0.0
C561 C 0.60816 0.97638 0.81622 0.0
C562 C 0.5782 0.97886 0.80914 0.0
C563 C 0.58878 0.97703 0.81661 0.0
C564 C 0.58748 0.98021 0.8013 0.0
C565 C 0.60684 0.97957 0.80093 0.0
U566 U 0.66444 0.97252 0.81895 0.0
O567 O 0.68868 0.95651 0.81513 0.0
O568 O 0.69104 0.98584 0.8162 0.0
C569 C 0.699 0.9708 0.81377 0.0
C570 C 0.63759 0.97649 0.80785 0.0
C571 C 0.70822 0.97145 0.80544 0.0
C572 C 0.70675 0.97209 0.79002 0.0
C573 C 0.69782 0.97174 0.79791 0.0
C574 C 0.73657 0.97202 0.79712 0.0
C575 C 0.72626 0.97217 0.78952 0.0
C576 C 0.72762 0.97165 0.805 0.0
C577 C 0.66577 0.96729 0.84327 0.0
C578 C 0.69262 0.95774 0.85145 0.0
C579 C 0.66447 0.96682 0.85868 0.0
C580 C 0.65608 0.97028 0.85085 0.0
C581 C 0.68275 0.96027 0.85908 0.0
C582 C 0.68418 0.96121 0.8436 0.0
C583 C 0.65611 0.96995 0.83515 0.0
O584 O 0.64667 0.9901 0.81119 0.0
O585 O 0.64469 0.96079 0.80986 0.0
O586 O 0.65626 0.95613 0.82994 0.0
O587 O 0.65908 0.98539 0.83131 0.0
H588 H 0.61603 0.97479 0.82204 0.0
H589 H 0.58207 0.97576 0.82273 0.0
H590 H 0.57978 0.98189 0.79545 0.0
H591 H 0.61368 0.98057 0.79482 0.0
H592 H 0.69839 0.97199 0.78431 0.0
H593 H 0.6828 0.97157 0.79814 0.0
H594 H 0.75158 0.97233 0.79697 0.0
H595 H 0.73585 0.97151 0.81075 0.0
H596 H 0.70665 0.95257 0.85153 0.0
H597 H 0.6566 0.9692 0.86443 0.0
H598 H 0.64188 0.97504 0.85071 0.0
H599 H 0.69187 0.95885 0.8378 0.0
C600 C 0.75362 0.86271 0.55407 0.0
C601 C 0.75606 0.8539 0.56188 0.0
C602 C 0.75123 0.82486 0.55503 0.0
C603 C 0.75486 0.83514 0.56235 0.0
C604 C 0.74856 0.83384 0.54725 0.0
C605 C 0.74976 0.85259 0.54678 0.0
U606 U 0.76302 0.90797 0.56441 0.0
O607 O 0.78042 0.93058 0.56011 0.0
O608 O 0.75063 0.9346 0.56226 0.0
C609 C 0.7662 0.94151 0.55937 0.0
C610 C 0.75565 0.88234 0.55344 0.0
C611 C 0.76502 0.9515 0.5513 0.0
C612 C 0.75159 0.9564 0.5373 0.0
C613 C 0.75258 0.94646 0.54485 0.0
C614 C 0.77567 0.9763 0.54249 0.0
C615 C 0.76315 0.97143 0.53604 0.0
C616 C 0.77655 0.96645 0.55005 0.0
C617 C 0.77228 0.90855 0.58853 0.0
C618 C 0.79062 0.92971 0.59681 0.0
C619 C 0.76876 0.90999 0.60387 0.0
C620 C 0.76379 0.90259 0.59603 0.0
C621 C 0.78243 0.92344 0.60436 0.0
C622 C 0.78554 0.92238 0.58895 0.0
C623 C 0.76773 0.89951 0.58046 0.0
O624 O 0.74272 0.89185 0.55724 0.0
O625 O 0.77247 0.88843 0.55487 0.0
O626 O 0.78105 0.89876 0.57477 0.0
O627 O 0.75142 0.90324 0.57718 0.0
H628 H 0.75913 0.86153 0.56757 0.0
H629 H 0.75719 0.82866 0.56842 0.0
H630 H 0.74549 0.82636 0.54151 0.0
H631 H 0.74781 0.85919 0.54071 0.0
H632 H 0.74195 0.9522 0.53241 0.0
H633 H 0.74363 0.93487 0.54565 0.0
H634 H 0.78462 0.9879 0.54175 0.0
H635 H 0.78622 0.97056 0.55494 0.0
H636 H 0.80104 0.9402 0.59698 0.0
H637 H 0.76234 0.90475 0.60957 0.0
H638 H 0.75356 0.89191 0.59584 0.0
H639 H 0.7922 0.9273 0.58324 0.0
C640 C 0.61742 0.51995 0.80806 0.0
C641 C 0.60873 0.51146 0.81497 0.0
C642 C 0.5783 0.51803 0.80894 0.0
C643 C 0.58937 0.51043 0.81538 0.0
C644 C 0.58714 0.5266 0.80207 0.0
C645 C 0.60648 0.52749 0.80163 0.0
U646 U 0.66478 0.5273 0.81834 0.0
O647 O 0.69172 0.51445 0.8159 0.0
O648 O 0.68849 0.54351 0.81396 0.0
C649 C 0.6992 0.52936 0.81299 0.0
C650 C 0.63779 0.52145 0.80751 0.0
C651 C 0.70854 0.52797 0.8047 0.0
C652 C 0.70906 0.51824 0.78995 0.0
C653 C 0.70003 0.51927 0.79781 0.0
C654 C 0.7351 0.53475 0.79576 0.0
C655 C 0.72672 0.526 0.78882 0.0
C656 C 0.7261 0.53569 0.80362 0.0
C657 C 0.66618 0.53564 0.84249 0.0
C658 C 0.69425 0.53842 0.85095 0.0
C659 C 0.66434 0.54503 0.85723 0.0
C660 C 0.65568 0.54096 0.84953 0.0
C661 C 0.68373 0.5438 0.85805 0.0
C662 C 0.68553 0.53438 0.84322 0.0
C663 C 0.65657 0.53175 0.83446 0.0
O664 O 0.64455 0.53753 0.80905 0.0
O665 O 0.64741 0.50846 0.81108 0.0
O666 O 0.65985 0.51593 0.83104 0.0
O667 O 0.65641 0.54491 0.82889 0.0
H668 H 0.61688 0.50563 0.82005 0.0
H669 H 0.58309 0.50355 0.82072 0.0
H670 H 0.57911 0.5329 0.79707 0.0
H671 H 0.61291 0.53423 0.79628 0.0
H672 H 0.70227 0.51122 0.78479 0.0
H673 H 0.68642 0.51327 0.79851 0.0
H674 H 0.74851 0.54115 0.7951 0.0
H675 H 0.73282 0.54258 0.80885 0.0
H676 H 0.70918 0.53721 0.85138 0.0
H677 H 0.65583 0.54946 0.86249 0.0
H678 H 0.64074 0.54212 0.84906 0.0
H679 H 0.69386 0.53031 0.83783 0.0
C680 C 0.76051 0.3672 0.05536 0.0
C681 C 0.77138 0.35854 0.06155 0.0
C682 C 0.7628 0.32927 0.05579 0.0
C683 C 0.77259 0.33975 0.06173 0.0
C684 C 0.75194 0.33798 0.04962 0.0
C685 C 0.75088 0.35675 0.0494 0.0
U686 U 0.75151 0.41264 0.066 0.0
O687 O 0.76437 0.43914 0.06399 0.0
O688 O 0.73461 0.43547 0.06159 0.0
C689 C 0.74903 0.44619 0.06092 0.0
C690 C 0.75878 0.387 0.05504 0.0
C691 C 0.75071 0.45585 0.05277 0.0
C692 C 0.7643 0.45952 0.03873 0.0
C693 C 0.76308 0.45015 0.04643 0.0
C694 C 0.74062 0.48021 0.04358 0.0
C695 C 0.75302 0.47462 0.03721 0.0
C696 C 0.73952 0.47094 0.05129 0.0
C697 C 0.7408 0.41302 0.08997 0.0
C698 C 0.7395 0.43946 0.09905 0.0
C699 C 0.72693 0.41109 0.10399 0.0
C700 C 0.73202 0.40299 0.09634 0.0
C701 C 0.73056 0.42943 0.10544 0.0
C702 C 0.74451 0.43133 0.09135 0.0
C703 C 0.74574 0.40401 0.08196 0.0
O704 O 0.74199 0.39329 0.05635 0.0
O705 O 0.77175 0.39638 0.05891 0.0
O706 O 0.76227 0.40758 0.07885 0.0
O707 O 0.73267 0.4037 0.07615 0.0
H708 H 0.77886 0.36625 0.06628 0.0
H709 H 0.78093 0.33339 0.0666 0.0
H710 H 0.7444 0.33028 0.04491 0.0
H711 H 0.74244 0.36313 0.04456 0.0
H712 H 0.77384 0.45478 0.03391 0.0
H713 H 0.77174 0.43842 0.04741 0.0
H714 H 0.73188 0.49189 0.04263 0.0
H715 H 0.72988 0.47554 0.0561 0.0
H716 H 0.74233 0.45364 0.09995 0.0
H717 H 0.7203 0.40294 0.10882 0.0
H718 H 0.72907 0.38884 0.09538 0.0
H719 H 0.7512 0.43933 0.08648 0.0
C720 C 0.89857 0.49994 0.30892 0.0
C721 C 0.90749 0.49601 0.31662 0.0
C722 C 0.93758 0.5017 0.31009 0.0
C723 C 0.92684 0.49685 0.3172 0.0
C724 C 0.92849 0.50579 0.30242 0.0
C725 C 0.90916 0.5049 0.30184 0.0
U726 U 0.85087 0.49306 0.3188 0.0
O727 O 0.8243 0.50645 0.31606 0.0
O728 O 0.82703 0.47731 0.31427 0.0
C729 C 0.81663 0.49163 0.31315 0.0
C730 C 0.8783 0.49866 0.30815 0.0
C731 C 0.80783 0.49313 0.30475 0.0
C732 C 0.80995 0.49427 0.28935 0.0
C733 C 0.81854 0.49322 0.29731 0.0
C734 C 0.77989 0.49541 0.2962 0.0
C735 C 0.79051 0.49532 0.2887 0.0
C736 C 0.78849 0.4943 0.30415 0.0
C737 C 0.84819 0.48505 0.34293 0.0
C738 C 0.82095 0.47445 0.35054 0.0
C739 C 0.84851 0.48317 0.35833 0.0
C740 C 0.85737 0.48739 0.35069 0.0
C741 C 0.83025 0.4765 0.35835 0.0
C742 C 0.82985 0.47872 0.34289 0.0
C743 C 0.85828 0.48869 0.335 0.0
O744 O 0.87127 0.48266 0.30966 0.0
O745 O 0.86888 0.51174 0.31174 0.0
O746 O 0.8554 0.50453 0.33153 0.0
O747 O 0.85856 0.4755 0.32945 0.0
H748 H 0.89948 0.49221 0.32216 0.0
H749 H 0.93339 0.49382 0.32322 0.0
H750 H 0.93635 0.50934 0.2968 0.0
H751 H 0.90249 0.50793 0.29585 0.0
H752 H 0.81854 0.49438 0.28371 0.0
H753 H 0.83352 0.49241 0.29767 0.0
H754 H 0.76489 0.496 0.29592 0.0
H755 H 0.78001 0.49423 0.30983 0.0
H756 H 0.80683 0.46951 0.35034 0.0
H757 H 0.85618 0.48466 0.3642 0.0
H758 H 0.87156 0.4922 0.35084 0.0
H759 H 0.82253 0.47689 0.33694 0.0
C760 C 0.75323 0.65085 0.55598 0.0
C761 C 0.75729 0.66005 0.56354 0.0
C762 C 0.75089 0.68873 0.55663 0.0
C763 C 0.75614 0.67883 0.56386 0.0
C764 C 0.74665 0.67937 0.5491 0.0
C765 C 0.74784 0.6606 0.54879 0.0
U766 U 0.76308 0.60579 0.56648 0.0
O767 O 0.74986 0.57933 0.56472 0.0
O768 O 0.77948 0.58276 0.56199 0.0
C769 C 0.765 0.57206 0.56159 0.0
C770 C 0.75494 0.63117 0.5555 0.0
C771 C 0.76276 0.56231 0.55352 0.0
C772 C 0.75871 0.56212 0.53819 0.0
C773 C 0.76009 0.57159 0.54586 0.0
C774 C 0.76239 0.53403 0.54581 0.0
C775 C 0.75999 0.54321 0.53807 0.0
C776 C 0.76378 0.5435 0.55346 0.0
C777 C 0.77533 0.60584 0.59029 0.0
C778 C 0.77641 0.57975 0.59961 0.0
C779 C 0.79035 0.60787 0.60406 0.0
C780 C 0.78497 0.61582 0.59641 0.0
C781 C 0.78616 0.58974 0.60576 0.0
C782 C 0.7711 0.58772 0.59191 0.0
C783 C 0.76994 0.61471 0.58231 0.0
O784 O 0.7718 0.62489 0.55659 0.0
O785 O 0.7423 0.62202 0.55969 0.0
O786 O 0.7532 0.61117 0.57944 0.0
O787 O 0.78263 0.61488 0.57633 0.0
H788 H 0.76144 0.6527 0.56917 0.0
H789 H 0.75928 0.6856 0.56978 0.0
H790 H 0.74279 0.68658 0.54339 0.0
H791 H 0.74471 0.6537 0.5429 0.0
H792 H 0.75706 0.56963 0.53235 0.0
H793 H 0.75931 0.58614 0.5458 0.0
H794 H 0.76316 0.51948 0.54596 0.0
H795 H 0.76578 0.53613 0.55932 0.0
H796 H 0.77313 0.56572 0.6007 0.0
H797 H 0.79763 0.61599 0.6087 0.0
H798 H 0.78833 0.62983 0.59528 0.0
H799 H 0.76375 0.57975 0.58724 0.0
C800 C 0.61808 0.5001 0.21139 0.0
C801 C 0.60918 0.49634 0.20366 0.0
C802 C 0.57906 0.50168 0.21022 0.0
C803 C 0.58983 0.49709 0.20309 0.0
C804 C 0.58813 0.5056 0.21792 0.0
C805 C 0.60746 0.5048 0.21849 0.0
U806 U 0.66575 0.49356 0.20146 0.0
O807 O 0.6923 0.507 0.20421 0.0
O808 O 0.68966 0.47783 0.20591 0.0
C809 C 0.70002 0.49218 0.20706 0.0
C810 C 0.63836 0.4989 0.21215 0.0
C811 C 0.70886 0.49359 0.21546 0.0
C812 C 0.70676 0.49473 0.23086 0.0
C813 C 0.69816 0.49377 0.2229 0.0
C814 C 0.73683 0.49561 0.224 0.0
C815 C 0.72622 0.49561 0.23151 0.0
C816 C 0.72821 0.49459 0.21606 0.0
C817 C 0.66827 0.48585 0.17729 0.0
C818 C 0.69558 0.47572 0.16961 0.0
C819 C 0.66772 0.48383 0.16191 0.0
C820 C 0.65891 0.48795 0.16957 0.0
C821 C 0.68611 0.47752 0.16183 0.0
C822 C 0.68673 0.47989 0.17729 0.0
C823 C 0.65824 0.48937 0.18525 0.0
O824 O 0.64544 0.48296 0.21059 0.0
O825 O 0.64772 0.51207 0.20859 0.0
O826 O 0.66112 0.50517 0.18876 0.0
O827 O 0.65805 0.4761 0.19077 0.0
H828 H 0.6172 0.49274 0.1981 0.0
H829 H 0.58329 0.49419 0.19705 0.0
H830 H 0.58025 0.50895 0.22356 0.0
H831 H 0.61412 0.5077 0.22451 0.0
H832 H 0.69819 0.49492 0.2365 0.0
H833 H 0.68317 0.49309 0.22255 0.0
H834 H 0.75183 0.49607 0.22428 0.0
H835 H 0.73668 0.49445 0.21037 0.0
H836 H 0.7098 0.47106 0.16976 0.0
H837 H 0.65992 0.48511 0.15606 0.0
H838 H 0.64464 0.49248 0.16946 0.0
H839 H 0.69419 0.47825 0.18321 0.0
C840 C 0.7534 0.36737 0.46468 0.0
C841 C 0.75581 0.35815 0.45698 0.0
C842 C 0.7514 0.32946 0.46421 0.0
C843 C 0.75479 0.33935 0.45675 0.0
C844 C 0.74884 0.33884 0.47189 0.0
C845 C 0.74983 0.35762 0.47212 0.0
U846 U 0.76262 0.41241 0.45398 0.0
O847 O 0.74915 0.43874 0.45575 0.0
O848 O 0.77886 0.43565 0.45835 0.0
C849 C 0.76427 0.44619 0.45881 0.0
C850 C 0.75495 0.38707 0.46506 0.0
C851 C 0.76209 0.45594 0.46688 0.0
C852 C 0.75959 0.4562 0.48228 0.0
C853 C 0.76091 0.44668 0.47463 0.0
C854 C 0.76028 0.4843 0.47449 0.0
C855 C 0.75941 0.47515 0.48231 0.0
C856 C 0.76162 0.47478 0.46686 0.0
C857 C 0.77444 0.41233 0.43014 0.0
C858 C 0.77566 0.43858 0.42093 0.0
C859 C 0.78893 0.41033 0.41625 0.0
C860 C 0.78367 0.40232 0.4239 0.0
C861 C 0.78503 0.42856 0.41467 0.0
C862 C 0.77048 0.43054 0.42862 0.0
C863 C 0.76926 0.40342 0.43814 0.0
O864 O 0.77173 0.39347 0.46387 0.0
O865 O 0.74214 0.39604 0.4609 0.0
O866 O 0.75254 0.40683 0.44106 0.0
O867 O 0.78206 0.40343 0.44408 0.0
H868 H 0.75865 0.3655 0.45118 0.0
H869 H 0.75703 0.33255 0.45075 0.0
H870 H 0.74596 0.33166 0.47773 0.0
H871 H 0.7479 0.36454 0.47811 0.0
H872 H 0.75915 0.44872 0.48818 0.0
H873 H 0.76127 0.43211 0.47476 0.0
H874 H 0.75988 0.49886 0.47427 0.0
H875 H 0.76244 0.48214 0.46093 0.0
H876 H 0.77261 0.45269 0.41993 0.0
H877 H 0.7959 0.40219 0.41152 0.0
H878 H 0.78682 0.38824 0.42495 0.0
H879 H 0.76345 0.43853 0.43339 0.0
C880 C 0.90062 0.51812 0.71125 0.0
C881 C 0.90936 0.52164 0.70346 0.0
C882 C 0.93957 0.51585 0.70985 0.0
C883 C 0.92868 0.52055 0.70277 0.0
C884 C 0.93066 0.5121 0.7176 0.0
C885 C 0.91136 0.51324 0.71829 0.0
U886 U 0.85289 0.52621 0.70165 0.0
O887 O 0.82587 0.51388 0.70449 0.0
O888 O 0.82981 0.54292 0.7063 0.0
C889 C 0.81893 0.52896 0.7075 0.0
C890 C 0.88042 0.51992 0.71215 0.0
C891 C 0.80989 0.52795 0.7159 0.0
C892 C 0.80602 0.51416 0.72982 0.0
C893 C 0.81491 0.51484 0.72192 0.0
C894 C 0.78724 0.53983 0.72587 0.0
C895 C 0.79211 0.52668 0.73189 0.0
C896 C 0.796 0.54041 0.71795 0.0
C897 C 0.84992 0.53393 0.6775 0.0
C898 C 0.82276 0.54492 0.66997 0.0
C899 C 0.84996 0.53551 0.6621 0.0
C900 C 0.85889 0.53127 0.66971 0.0
C901 C 0.83184 0.54252 0.66212 0.0
C902 C 0.83173 0.54063 0.6776 0.0
C903 C 0.86006 0.53012 0.6854 0.0
O904 O 0.87385 0.53609 0.71065 0.0
O905 O 0.87048 0.50707 0.70866 0.0
O906 O 0.85673 0.51444 0.68893 0.0
O907 O 0.8609 0.54339 0.6909 0.0
H908 H 0.90124 0.52538 0.69794 0.0
H909 H 0.93508 0.52332 0.69668 0.0
H910 H 0.93864 0.50868 0.7232 0.0
H911 H 0.90484 0.51053 0.72436 0.0
H912 H 0.81021 0.50399 0.73436 0.0
H913 H 0.8257 0.50516 0.72052 0.0
H914 H 0.77646 0.54955 0.72725 0.0
H915 H 0.79192 0.55062 0.71341 0.0
H916 H 0.80875 0.55013 0.6702 0.0
H917 H 0.85746 0.53375 0.6562 0.0
H918 H 0.87295 0.52616 0.66953 0.0
H919 H 0.82457 0.5427 0.68357 0.0
C920 C 0.76486 0.65072 0.96398 0.0
C921 C 0.76086 0.6601 0.95646 0.0
C922 C 0.76739 0.68859 0.96353 0.0
C923 C 0.7621 0.67888 0.95624 0.0
C924 C 0.77163 0.67905 0.971 0.0
C925 C 0.77035 0.66027 0.97122 0.0
U926 U 0.75513 0.60588 0.95323 0.0
O927 O 0.76763 0.57919 0.9551 0.0
O928 O 0.73791 0.58311 0.95746 0.0
C929 C 0.75218 0.5722 0.95806 0.0
C930 C 0.76285 0.63105 0.96438 0.0
C931 C 0.75369 0.56232 0.96615 0.0
C932 C 0.76545 0.5594 0.98056 0.0
C933 C 0.76439 0.56895 0.97291 0.0
C934 C 0.74497 0.53663 0.97481 0.0
C935 C 0.75573 0.54311 0.98162 0.0
C936 C 0.744 0.54613 0.96716 0.0
C937 C 0.74493 0.60633 0.92924 0.0
C938 C 0.73576 0.58003 0.92108 0.0
C939 C 0.7383 0.60907 0.91418 0.0
C940 C 0.74364 0.61683 0.92188 0.0
C941 C 0.73411 0.59061 0.9137 0.0
C942 C 0.74109 0.58785 0.92881 0.0
C943 C 0.74979 0.61509 0.93731 0.0
O944 O 0.74599 0.62501 0.96301 0.0
O945 O 0.77566 0.62177 0.96038 0.0
O946 O 0.76619 0.61114 0.94044 0.0
O947 O 0.73663 0.61536 0.94308 0.0
H948 H 0.75664 0.6529 0.9508 0.0
H949 H 0.75896 0.6858 0.95036 0.0
H950 H 0.77554 0.68611 0.97675 0.0
H951 H 0.77342 0.65323 0.97708 0.0
H952 H 0.77402 0.56472 0.98562 0.0
H953 H 0.77191 0.5815 0.97227 0.0
H954 H 0.73702 0.52433 0.97543 0.0
H955 H 0.73556 0.54087 0.96203 0.0
H956 H 0.73249 0.56581 0.92093 0.0
H957 H 0.73745 0.61754 0.9086 0.0
H958 H 0.74662 0.63112 0.92211 0.0
H959 H 0.742 0.57955 0.93445 0.0
C960 C 0.39976 0.49792 0.21194 0.0
C961 C 0.40872 0.4954 0.20412 0.0
C962 C 0.43879 0.49961 0.21092 0.0
C963 C 0.42808 0.49627 0.20361 0.0
C964 C 0.42965 0.50228 0.21872 0.0
C965 C 0.41032 0.50143 0.21921 0.0
U966 U 0.35241 0.48965 0.20195 0.0
O967 O 0.32864 0.47408 0.20667 0.0
O968 O 0.3256 0.50299 0.20425 0.0
C969 C 0.31804 0.48837 0.20743 0.0
C970 C 0.37948 0.49658 0.21262 0.0
C971 C 0.30901 0.49052 0.21575 0.0
C972 C 0.31074 0.49287 0.23113 0.0
C973 C 0.31954 0.49144 0.22323 0.0
C974 C 0.28082 0.49281 0.22412 0.0
C975 C 0.29127 0.49349 0.23167 0.0
C976 C 0.28963 0.49131 0.21624 0.0
C977 C 0.35054 0.47877 0.17804 0.0
C978 C 0.32278 0.47788 0.16927 0.0
C979 C 0.35161 0.46548 0.16396 0.0
C980 C 0.36043 0.47023 0.17154 0.0
C981 C 0.33268 0.46921 0.16274 0.0
C982 C 0.33163 0.48256 0.17688 0.0
C983 C 0.36033 0.48349 0.18593 0.0
O984 O 0.37006 0.50919 0.20866 0.0
O985 O 0.37263 0.48039 0.21144 0.0
O986 O 0.3606 0.47092 0.1918 0.0
O987 O 0.35722 0.49967 0.18899 0.0
H988 H 0.40074 0.49261 0.19844 0.0
H989 H 0.43468 0.49397 0.19753 0.0
H990 H 0.43746 0.50514 0.22444 0.0
H991 H 0.4036 0.50345 0.2253 0.0
H992 H 0.31919 0.49359 0.2368 0.0
H993 H 0.33455 0.49092 0.22296 0.0
H994 H 0.26581 0.49305 0.22432 0.0
H995 H 0.2813 0.49059 0.21052 0.0
H996 H 0.30815 0.48078 0.16854 0.0
H997 H 0.35968 0.45904 0.15902 0.0
H998 H 0.37503 0.46723 0.17231 0.0
H999 H 0.32373 0.48907 0.18186 0.0
C1000 C 0.2532 0.65142 0.96525 0.0
C1001 C 0.2559 0.66071 0.95759 0.0
C1002 C 0.25117 0.68933 0.96483 0.0
C1003 C 0.25488 0.6795 0.95737 0.0
C1004 C 0.24827 0.67988 0.97246 0.0
C1005 C 0.24929 0.6611 0.97266 0.0
U1006 U 0.2611 0.60637 0.95437 0.0
O1007 O 0.27781 0.58311 0.95836 0.0
O1008 O 0.24785 0.58005 0.95644 0.0
C1009 C 0.26328 0.57257 0.95914 0.0
C1010 C 0.2548 0.63172 0.96561 0.0
C1011 C 0.26193 0.56281 0.96724 0.0
C1012 C 0.25809 0.56252 0.98258 0.0
C1013 C 0.25894 0.572 0.9749 0.0
C1014 C 0.26308 0.53459 0.97499 0.0
C1015 C 0.26024 0.54369 0.98272 0.0
C1016 C 0.26391 0.54407 0.96733 0.0
C1017 C 0.26967 0.60625 0.93026 0.0
C1018 C 0.28106 0.5806 0.92224 0.0
C1019 C 0.27199 0.60786 0.9149 0.0
C1020 C 0.26736 0.61577 0.92266 0.0
C1021 C 0.27906 0.59023 0.91459 0.0
C1022 C 0.27636 0.58854 0.93002 0.0
C1023 C 0.26561 0.6153 0.93836 0.0
O1024 O 0.2415 0.62273 0.96179 0.0
O1025 O 0.27141 0.62533 0.96398 0.0
O1026 O 0.27914 0.61532 0.94395 0.0
O1027 O 0.24931 0.61187 0.94172 0.0
H1028 H 0.25898 0.65342 0.9518 0.0
H1029 H 0.25738 0.68635 0.95141 0.0
H1030 H 0.24512 0.687 0.97829 0.0
H1031 H 0.24712 0.65413 0.97862 0.0
H1032 H 0.25609 0.56997 0.98842 0.0
H1033 H 0.25742 0.5865 0.97494 0.0
H1034 H 0.26453 0.52009 0.97485 0.0
H1035 H 0.26618 0.53677 0.96146 0.0
H1036 H 0.28629 0.56694 0.92221 0.0
H1037 H 0.27053 0.61576 0.90916 0.0
H1038 H 0.26226 0.62948 0.92274 0.0
H1039 H 0.27816 0.58096 0.93584 0.0
C1040 C 0.11887 0.51912 0.71138 0.0
C1041 C 0.10995 0.52148 0.70353 0.0
C1042 C 0.07984 0.51734 0.71031 0.0
C1043 C 0.09059 0.52058 0.703 0.0
C1044 C 0.08894 0.51478 0.71813 0.0
C1045 C 0.10827 0.51568 0.71865 0.0
U1046 U 0.16656 0.52674 0.70153 0.0
O1047 O 0.19007 0.54282 0.70617 0.0
O1048 O 0.19331 0.51375 0.7043 0.0
C1049 C 0.20073 0.52866 0.70723 0.0
C1050 C 0.13913 0.52063 0.71211 0.0
C1051 C 0.20965 0.52722 0.71561 0.0
C1052 C 0.20772 0.52439 0.73096 0.0
C1053 C 0.19903 0.52536 0.72302 0.0
C1054 C 0.23771 0.52695 0.72413 0.0
C1055 C 0.22718 0.52526 0.73162 0.0
C1056 C 0.22901 0.52793 0.71621 0.0
C1057 C 0.17001 0.53524 0.67746 0.0
C1058 C 0.1937 0.5519 0.66976 0.0
C1059 C 0.17322 0.53165 0.66219 0.0
C1060 C 0.16438 0.52727 0.66981 0.0
C1061 C 0.18781 0.54421 0.66206 0.0
C1062 C 0.18493 0.5474 0.67741 0.0
C1063 C 0.15958 0.53127 0.6853 0.0
O1064 O 0.14871 0.50772 0.70847 0.0
O1065 O 0.14592 0.53674 0.71065 0.0
O1066 O 0.15863 0.54431 0.69092 0.0
O1067 O 0.16249 0.51539 0.68872 0.0
H1068 H 0.11796 0.52421 0.69785 0.0
H1069 H 0.08402 0.52278 0.6969 0.0
H1070 H 0.08111 0.512 0.72385 0.0
H1071 H 0.11495 0.51378 0.72475 0.0
H1072 H 0.19918 0.52329 0.7366 0.0
H1073 H 0.18403 0.52482 0.72267 0.0
H1074 H 0.25271 0.52739 0.72439 0.0
H1075 H 0.23741 0.52929 0.71054 0.0
H1076 H 0.20504 0.56145 0.66988 0.0
H1077 H 0.16824 0.52563 0.65635 0.0
H1078 H 0.15288 0.51788 0.66972 0.0
H1079 H 0.18963 0.55363 0.68325 0.0
C1080 C 0.26314 0.36613 0.46382 0.0
C1081 C 0.25851 0.35671 0.4564 0.0
C1082 C 0.26557 0.32825 0.46338 0.0
C1083 C 0.25969 0.33793 0.45618 0.0
C1084 C 0.27037 0.33782 0.47077 0.0
C1085 C 0.26915 0.35659 0.47098 0.0
U1086 U 0.25343 0.41113 0.45319 0.0
O1087 O 0.23715 0.43427 0.45763 0.0
O1088 O 0.2668 0.43754 0.45492 0.0
C1089 C 0.25171 0.44488 0.45806 0.0
C1090 C 0.26147 0.38582 0.46422 0.0
C1091 C 0.25402 0.45454 0.46614 0.0
C1092 C 0.25655 0.4546 0.48154 0.0
C1093 C 0.25505 0.44518 0.47387 0.0
C1094 C 0.25636 0.48279 0.47382 0.0
C1095 C 0.25712 0.47353 0.48161 0.0
C1096 C 0.2548 0.47337 0.46616 0.0
C1097 C 0.24128 0.41114 0.42939 0.0
C1098 C 0.23912 0.43768 0.42041 0.0
C1099 C 0.22738 0.40905 0.41538 0.0
C1100 C 0.23276 0.40097 0.423 0.0
C1101 C 0.23045 0.42751 0.414 0.0
C1102 C 0.24443 0.42957 0.42807 0.0
C1103 C 0.24659 0.40218 0.43736 0.0
O1104 O 0.27415 0.39487 0.46001 0.0
O1105 O 0.24462 0.39212 0.46309 0.0
O1106 O 0.23388 0.40209 0.44334 0.0
O1107 O 0.26334 0.40566 0.44023 0.0
H1108 H 0.2539 0.3639 0.45079 0.0
H1109 H 0.2561 0.33099 0.45036 0.0
H1110 H 0.27472 0.33078 0.47645 0.0
H1111 H 0.27273 0.36366 0.47678 0.0
H1112 H 0.25733 0.44706 0.48741 0.0
H1113 H 0.25455 0.43062 0.47397 0.0
H1114 H 0.25655 0.49736 0.47365 0.0
H1115 H 0.25398 0.4808 0.46025 0.0
H1116 H 0.24152 0.45195 0.41956 0.0
H1117 H 0.22097 0.4008 0.41053 0.0
H1118 H 0.23025 0.38672 0.4239 0.0
H1119 H 0.25091 0.43766 0.43297 0.0
C1120 C 0.39895 0.52072 0.80934 0.0
C1121 C 0.40887 0.53263 0.81459 0.0
C1122 C 0.438 0.5188 0.81029 0.0
C1123 C 0.42822 0.53174 0.81501 0.0
C1124 C 0.428 0.50665 0.8052 0.0
C1125 C 0.40865 0.50766 0.80471 0.0
U1126 U 0.35121 0.52913 0.81898 0.0
O1127 O 0.32748 0.54447 0.81408 0.0
O1128 O 0.32448 0.51562 0.81666 0.0
C1129 C 0.3169 0.53014 0.8134 0.0
C1130 C 0.3786 0.52186 0.80857 0.0
C1131 C 0.30783 0.52783 0.80511 0.0
C1132 C 0.30948 0.52487 0.78975 0.0
C1133 C 0.31832 0.52621 0.79764 0.0
C1134 C 0.27958 0.52646 0.79673 0.0
C1135 C 0.28999 0.52514 0.78919 0.0
C1136 C 0.28844 0.52781 0.80461 0.0
C1137 C 0.34895 0.5409 0.84281 0.0
C1138 C 0.32125 0.54146 0.85162 0.0
C1139 C 0.34981 0.55477 0.85676 0.0
C1140 C 0.35867 0.54996 0.84921 0.0
C1141 C 0.331 0.55059 0.85807 0.0
C1142 C 0.33014 0.53671 0.84403 0.0
C1143 C 0.35884 0.53595 0.83497 0.0
O1144 O 0.36916 0.50933 0.81257 0.0
O1145 O 0.3714 0.53801 0.80942 0.0
O1146 O 0.35918 0.54829 0.829 0.0
O1147 O 0.35581 0.51965 0.83204 0.0
H1148 H 0.40168 0.5427 0.81831 0.0
H1149 H 0.43554 0.54113 0.81907 0.0
H1150 H 0.43517 0.49662 0.80144 0.0
H1151 H 0.40126 0.49833 0.80064 0.0
H1152 H 0.31792 0.52407 0.78407 0.0
H1153 H 0.33334 0.52624 0.79791 0.0
H1154 H 0.26457 0.52643 0.79654 0.0
H1155 H 0.28013 0.52901 0.81031 0.0
H1156 H 0.30672 0.5382 0.85241 0.0
H1157 H 0.35777 0.56157 0.86163 0.0
H1158 H 0.3732 0.55326 0.84838 0.0
H1159 H 0.32237 0.52979 0.83913 0.0
C1160 C 0.26267 0.6509 0.55505 0.0
C1161 C 0.26037 0.66005 0.56278 0.0
C1162 C 0.26455 0.68881 0.55557 0.0
C1163 C 0.26132 0.67885 0.56304 0.0
C1164 C 0.26702 0.67949 0.54787 0.0
C1165 C 0.26608 0.66071 0.54762 0.0
U1166 U 0.25446 0.60538 0.56559 0.0
O1167 O 0.23813 0.58219 0.56121 0.0
O1168 O 0.26803 0.57927 0.56338 0.0
C1169 C 0.25279 0.5718 0.56045 0.0
C1170 C 0.26117 0.6312 0.55462 0.0
C1171 C 0.25462 0.56238 0.55228 0.0
C1172 C 0.25567 0.56263 0.53685 0.0
C1173 C 0.25438 0.57187 0.54457 0.0
C1174 C 0.25778 0.53438 0.54447 0.0
C1175 C 0.25732 0.54375 0.5367 0.0
C1176 C 0.25641 0.54363 0.55218 0.0
C1177 C 0.24469 0.60373 0.58959 0.0
C1178 C 0.22752 0.58093 0.59741 0.0
C1179 C 0.24748 0.60172 0.60494 0.0
C1180 C 0.25231 0.60987 0.59725 0.0
C1181 C 0.23484 0.58732 0.60512 0.0
C1182 C 0.23246 0.58901 0.5897 0.0
C1183 C 0.24911 0.61334 0.58165 0.0
O1184 O 0.27432 0.62219 0.55853 0.0
O1185 O 0.24451 0.6247 0.55604 0.0
O1186 O 0.2359 0.61383 0.57589 0.0
O1187 O 0.26563 0.61031 0.57842 0.0
H1188 H 0.25767 0.65265 0.56857 0.0
H1189 H 0.25917 0.68561 0.56905 0.0
H1190 H 0.26978 0.68672 0.54203 0.0
H1191 H 0.26793 0.65384 0.54161 0.0
H1192 H 0.2555 0.57026 0.53099 0.0
H1193 H 0.2531 0.58639 0.54454 0.0
H1194 H 0.25881 0.51985 0.54458 0.0
H1195 H 0.2566 0.5361 0.55807 0.0
H1196 H 0.21791 0.56973 0.59734 0.0
H1197 H 0.25322 0.60706 0.61078 0.0
H1198 H 0.26175 0.62121 0.5973 0.0
H1199 H 0.22651 0.58393 0.58385 0.0
C1200 C 0.1169 0.49899 0.30825 0.0
C1201 C 0.10799 0.49634 0.31607 0.0
C1202 C 0.07786 0.50042 0.3093 0.0
C1203 C 0.08862 0.49707 0.3166 0.0
C1204 C 0.08696 0.50323 0.3015 0.0
C1205 C 0.1063 0.50251 0.30099 0.0
U1206 U 0.16444 0.49244 0.31832 0.0
O1207 O 0.18843 0.47677 0.31392 0.0
O1208 O 0.19102 0.50594 0.31566 0.0
C1209 C 0.19879 0.49113 0.31281 0.0
C1210 C 0.13719 0.49782 0.30755 0.0
C1211 C 0.20777 0.49259 0.30445 0.0
C1212 C 0.206 0.49324 0.28903 0.0
C1213 C 0.19724 0.49226 0.29696 0.0
C1214 C 0.23586 0.49518 0.29603 0.0
C1215 C 0.22543 0.49464 0.28848 0.0
C1216 C 0.22709 0.49414 0.30394 0.0
C1217 C 0.16675 0.4845 0.34245 0.0
C1218 C 0.19423 0.47474 0.35012 0.0
C1219 C 0.16607 0.48182 0.35781 0.0
C1220 C 0.15724 0.48603 0.35017 0.0
C1221 C 0.18462 0.47598 0.35789 0.0
C1222 C 0.18536 0.479 0.34246 0.0
C1223 C 0.15675 0.4881 0.3345 0.0
O1224 O 0.14648 0.51097 0.31116 0.0
O1225 O 0.14426 0.48187 0.30912 0.0
O1226 O 0.15661 0.47488 0.32895 0.0
O1227 O 0.15964 0.50393 0.33102 0.0
H1228 H 0.116 0.49357 0.32174 0.0
H1229 H 0.08207 0.49466 0.32268 0.0
H1230 H 0.07912 0.50611 0.29579 0.0
H1231 H 0.11298 0.50463 0.29491 0.0
H1232 H 0.19755 0.49301 0.28335 0.0
H1233 H 0.18227 0.49117 0.29724 0.0
H1234 H 0.25085 0.49605 0.29582 0.0
H1235 H 0.23543 0.4944 0.30966 0.0
H1236 H 0.20858 0.47046 0.34996 0.0
H1237 H 0.15817 0.48267 0.36365 0.0
H1238 H 0.14284 0.49019 0.35027 0.0
H1239 H 0.19293 0.47779 0.33654 0.0
C1240 C 0.25363 0.36719 0.05596 0.0
C1241 C 0.2571 0.35791 0.06355 0.0
C1242 C 0.2514 0.32929 0.05646 0.0
C1243 C 0.25602 0.33912 0.0638 0.0
C1244 C 0.24778 0.33872 0.04888 0.0
C1245 C 0.24889 0.3575 0.04864 0.0
U1246 U 0.26158 0.41236 0.06673 0.0
O1247 O 0.27808 0.43569 0.06266 0.0
O1248 O 0.24812 0.43858 0.06465 0.0
C1249 C 0.26347 0.44613 0.0619 0.0
C1250 C 0.25518 0.38689 0.05556 0.0
C1251 C 0.26194 0.45585 0.05379 0.0
C1252 C 0.26077 0.4561 0.03836 0.0
C1253 C 0.26172 0.4466 0.04602 0.0
C1254 C 0.25998 0.48418 0.04616 0.0
C1255 C 0.26 0.47504 0.03833 0.0
C1256 C 0.26096 0.47467 0.05381 0.0
C1257 C 0.27055 0.41268 0.09081 0.0
C1258 C 0.28165 0.43856 0.09876 0.0
C1259 C 0.27344 0.4111 0.10615 0.0
C1260 C 0.26871 0.4031 0.09842 0.0
C1261 C 0.28012 0.42887 0.10642 0.0
C1262 C 0.27687 0.43053 0.09101 0.0
C1263 C 0.2664 0.40356 0.08274 0.0
O1264 O 0.24191 0.39586 0.0594 0.0
O1265 O 0.27179 0.39336 0.05711 0.0
O1266 O 0.27984 0.40359 0.0771 0.0
O1267 O 0.25003 0.40689 0.07943 0.0
H1268 H 0.26072 0.36522 0.06928 0.0
H1269 H 0.25869 0.3323 0.06975 0.0
H1270 H 0.24442 0.33156 0.04309 0.0
H1271 H 0.24622 0.36445 0.04272 0.0
H1272 H 0.26102 0.44864 0.03245 0.0
H1273 H 0.26247 0.43204 0.04589 0.0
H1274 H 0.2591 0.49872 0.04638 0.0
H1275 H 0.26102 0.48202 0.05975 0.0
H1276 H 0.28658 0.45233 0.09876 0.0
H1277 H 0.27234 0.40316 0.1119 0.0
H1278 H 0.26391 0.38928 0.09837 0.0
H1279 H 0.27831 0.43816 0.08519 0.0
C1280 C 0.26594 0.03134 0.24144 0.0
C1281 C 0.28131 0.04257 0.24008 0.0
C1282 C 0.2569 0.03086 0.24934 0.0
C1283 C 0.26332 0.04192 0.25605 0.0
C1284 C 0.27889 0.0532 0.25474 0.0
C1285 C 0.2877 0.05337 0.24678 0.0
C1286 C 0.24042 0.01857 0.25051 0.0
C1287 C 0.28612 0.06525 0.26171 0.0
C1288 C 0.22995 0.05396 0.27388 0.0
C1289 C 0.23561 0.04227 0.28038 0.0
C1290 C 0.23879 0.05393 0.26593 0.0
C1291 C 0.25363 0.04188 0.26441 0.0
C1292 C 0.25932 0.02995 0.27092 0.0
C1293 C 0.25027 0.03031 0.27882 0.0
C1294 C 0.23235 0.06692 0.25917 0.0
C1295 C 0.27501 0.01683 0.26954 0.0
H1296 H 0.26106 0.02278 0.23633 0.0
H1297 H 0.29941 0.06225 0.24575 0.0
H1298 H 0.24301 0.00913 0.25583 0.0
H1299 H 0.22798 0.02658 0.25219 0.0
H1300 H 0.23731 0.01062 0.2447 0.0
H1301 H 0.29852 0.07304 0.25971 0.0
H1302 H 0.27515 0.07484 0.26369 0.0
H1303 H 0.28981 0.0571 0.26737 0.0
H1304 H 0.2188 0.0634 0.27506 0.0
H1305 H 0.25457 0.02108 0.28377 0.0
H1306 H 0.22815 0.05944 0.25338 0.0
H1307 H 0.24392 0.07598 0.25734 0.0
H1308 H 0.22047 0.07527 0.26131 0.0
H1309 H 0.27184 1.00796 0.26406 0.0
H1310 H 0.27761 1.00829 0.27521 0.0
H1311 H 0.28793 0.02424 0.26799 0.0
C1312 C 0.24612 0.01969 0.49251 0.0
C1313 C 0.25822 0.03427 0.49128 0.0
C1314 C 0.24654 0.00951 0.50002 0.0
C1315 C 0.25934 0.01401 0.50651 0.0
C1316 C 0.27164 0.02865 0.50531 0.0
C1317 C 0.27093 0.0386 0.49772 0.0
C1318 C 0.23314 0.99405 0.50106 0.0
C1319 C 0.28551 0.03384 0.51206 0.0
C1320 C 0.24799 0.99863 0.52896 0.0
C1321 C 0.25908 0.98321 0.5298 0.0
C1322 C 0.24811 1.00886 0.52146 0.0
C1323 C 0.25956 1.00357 0.5146 0.0
C1324 C 0.27087 0.98809 0.51541 0.0
C1325 C 0.2705 0.97811 0.52299 0.0
C1326 C 0.2358 0.02524 0.52085 0.0
C1327 C 0.2833 0.98203 0.50824 0.0
H1328 H 0.23606 0.0164 0.48764 0.0
H1329 H 0.28047 0.0497 0.49679 0.0
H1330 H 0.24086 0.98142 0.50231 0.0
H1331 H 0.22401 0.99649 0.50661 0.0
H1332 H 0.2243 0.99207 0.49535 0.0
H1333 H 0.29426 0.04543 0.51011 0.0
H1334 H 0.27816 0.03741 0.51802 0.0
H1335 H 0.29467 0.02226 0.51351 0.0
H1336 H 0.23892 1.00253 0.53412 0.0
H1337 H 0.27929 0.96636 0.52362 0.0
H1338 H 0.22566 0.02346 0.51561 0.0
H1339 H 0.24424 0.0373 0.51932 0.0
H1340 H 0.22806 0.02781 0.52682 0.0
H1341 H 0.27483 0.97898 0.50254 0.0
H1342 H 0.29148 0.96988 0.50993 0.0
H1343 H 0.29303 0.99298 0.50649 0.0
C1344 C 0.22892 0.98533 0.74616 0.0
C1345 C 0.23561 0.9746 0.7395 0.0
C1346 C 0.23773 0.98552 0.75412 0.0
C1347 C 0.25364 0.97473 0.75547 0.0
C1348 C 0.26052 0.96393 0.74876 0.0
C1349 C 0.25142 0.96398 0.74087 0.0
C1350 C 0.22999 0.99724 0.7611 0.0
C1351 C 0.27742 0.95221 0.74995 0.0
C1352 C 0.28624 0.98643 0.77367 0.0
C1353 C 0.28083 0.97404 0.77993 0.0
C1354 C 0.2775 0.98684 0.76569 0.0
C1355 C 0.26298 0.97456 0.76392 0.0
C1356 C 0.25745 0.96203 0.7702 0.0
C1357 C 0.26643 0.96192 0.77812 0.0
C1358 C 0.28377 1.00043 0.75917 0.0
C1359 C 0.24208 0.94868 0.76855 0.0
H1360 H 0.21688 0.99376 0.74512 0.0
H1361 H 0.25654 0.95545 0.73581 0.0
H1362 H 0.22613 0.98883 0.76665 0.0
H1363 H 0.24071 1.0069 0.76328 0.0
H1364 H 0.21758 1.00491 0.75902 0.0
H1365 H 0.28118 0.94482 0.74406 0.0
H1366 H 0.28943 0.96055 0.75192 0.0
H1367 H 0.27487 0.94229 0.75508 0.0
H1368 H 0.29718 0.996 0.77505 0.0
H1369 H 0.26234 0.95214 0.78286 0.0
H1370 H 0.27198 0.0092 0.75734 0.0
H1371 H 0.2885 0.99343 0.75334 0.0
H1372 H 0.29524 1.00905 0.76154 0.0
H1373 H 0.22912 0.95589 0.76688 0.0
H1374 H 0.23932 0.93992 0.77412 0.0
H1375 H 0.24574 0.94004 0.76305 0.0
C1376 C 0.24528 0.03904 0.02286 0.0
C1377 C 0.2583 0.03519 0.02923 0.0
C1378 C 0.24475 0.02904 0.01528 0.0
C1379 C 0.25757 0.01485 0.01403 0.0
C1380 C 0.27072 0.01089 0.02044 0.0
C1381 C 0.27094 0.02109 0.02794 0.0
C1382 C 0.2305 0.03366 1.00861 0.0
C1383 C 0.28468 0.99593 0.01934 0.0
C1384 C 0.24721 0.9784 0.9977 0.0
C1385 C 0.2582 0.98384 0.99081 0.0
C1386 C 0.24672 0.98845 1.00527 0.0
C1387 C 0.25748 1.00433 1.00596 0.0
C1388 C 0.26849 0.00996 0.99901 0.0
C1389 C 0.26874 0.99965 0.99154 0.0
C1390 C 0.23477 0.98201 0.01253 0.0
C1391 C 0.2802 0.02678 0.9995 0.0
H1392 H 0.23532 0.04976 0.02384 0.0
H1393 H 0.28122 0.01819 0.03277 0.0
H1394 H 0.23752 0.03739 1.00259 0.0
H1395 H 0.22169 0.02176 1.00726 0.0
H1396 H 0.2214 0.04498 0.01058 0.0
H1397 H 0.2938 0.99437 0.02498 0.0
H1398 H 0.27742 0.983 0.01819 0.0
H1399 H 0.2935 0.99864 0.01371 0.0
H1400 H 0.23884 0.96634 0.99716 0.0
H1401 H 0.2775 1.00382 0.9863 0.0
H1402 H 0.2247 0.99262 0.01433 0.0
H1403 H 0.24354 0.97933 0.01818 0.0
H1404 H 0.227 0.96955 0.01093 0.0
H1405 H 0.27137 0.03853 1.00106 0.0
H1406 H 0.28763 0.02957 0.99346 0.0
H1407 H 0.29057 0.02542 1.00466 0.0
C1408 C 0.75152 0.9615 0.77976 0.0
C1409 C 0.73581 0.97226 0.78113 0.0
C1410 C 0.76061 0.96134 0.77187 0.0
C1411 C 0.75381 0.97215 0.76515 0.0
C1412 C 0.738 0.98308 0.76649 0.0
C1413 C 0.7292 0.98301 0.77445 0.0
C1414 C 0.7774 0.94947 0.7707 0.0
C1415 C 0.73034 0.99482 0.75949 0.0
C1416 C 0.78644 0.98351 0.74692 0.0
C1417 C 0.7809 0.97114 0.74068 0.0
C1418 C 0.77774 0.98402 0.7549 0.0
C1419 C 0.76313 0.97186 0.7567 0.0
C1420 C 0.75747 0.95935 0.75043 0.0
C1421 C 0.76641 0.95913 0.74251 0.0
C1422 C 0.78415 0.99759 0.7614 0.0
C1423 C 0.74199 0.94612 0.75211 0.0
H1424 H 0.75658 0.95296 0.78483 0.0
H1425 H 0.71723 0.99154 0.77548 0.0
H1426 H 0.77476 0.93954 0.76558 0.0
H1427 H 0.78948 0.95771 0.76871 0.0
H1428 H 0.78112 0.94208 0.77659 0.0
H1429 H 0.718 1.00261 0.76157 0.0
H1430 H 0.74114 1.00439 0.7573 0.0
H1431 H 0.7264 0.98641 0.75396 0.0
H1432 H 0.79745 0.99299 0.74552 0.0
H1433 H 0.76221 0.94936 0.73778 0.0
H1434 H 0.78882 0.99058 0.76724 0.0
H1435 H 0.77245 1.00647 0.76323 0.0
H1436 H 0.7957 1.00609 0.75901 0.0
H1437 H 0.74559 0.93749 0.75762 0.0
H1438 H 0.73915 0.93734 0.74655 0.0
H1439 H 0.72909 0.95345 0.75377 0.0
C1440 C 0.77854 0.98744 0.52391 0.0
C1441 C 0.76221 0.98204 0.52803 0.0
C1442 C 0.77793 0.99771 0.51643 0.0
C1443 C 0.76056 1.00283 0.513 0.0
C1444 C 0.74401 0.99739 0.51711 0.0
C1445 C 0.74504 0.987 0.52456 0.0
C1446 C 0.79588 1.00307 0.51219 0.0
C1447 C 0.72524 1.00269 0.51369 0.0
C1448 C 0.76038 0.04309 0.49805 0.0
C1449 C 0.76002 0.03477 0.49005 0.0
C1450 C 0.7602 0.03288 0.50557 0.0
C1451 C 0.75978 0.01386 0.50509 0.0
C1452 C 0.75917 1.00537 0.49705 0.0
C1453 C 0.75921 0.01591 0.48964 0.0
C1454 C 0.76078 0.04245 0.51402 0.0
C1455 C 0.75872 0.98513 0.49626 0.0
H1456 H 0.79185 0.98347 0.5265 0.0
H1457 H 0.73237 0.98303 0.52776 0.0
H1458 H 0.79621 0.99786 0.50559 0.0
H1459 H 0.79688 0.01794 0.51182 0.0
H1460 H 0.80823 0.9979 0.51563 0.0
H1461 H 0.71369 0.99732 0.51762 0.0
H1462 H 0.72409 0.01756 0.51346 0.0
H1463 H 0.72359 0.99768 0.5071 0.0
H1464 H 0.76123 0.05762 0.49845 0.0
H1465 H 0.75858 0.00933 0.4835 0.0
H1466 H 0.77371 0.03888 0.51744 0.0
H1467 H 0.74899 0.03806 0.51804 0.0
H1468 H 0.76019 0.05731 0.51332 0.0
H1469 H 0.77134 0.97929 0.4992 0.0
H1470 H 0.75795 0.98061 0.48954 0.0
H1471 H 0.7466 0.97964 0.49974 0.0
C1472 C 0.76726 0.03107 0.27771 0.0
C1473 C 0.78187 0.04317 0.27916 0.0
C1474 C 0.75807 0.03048 0.26985 0.0
C1475 C 0.76357 0.04231 0.26326 0.0
C1476 C 0.77838 0.05447 0.26466 0.0
C1477 C 0.78736 0.05474 0.27257 0.0
C1478 C 0.74243 0.01723 0.26859 0.0
C1479 C 0.7846 0.06737 0.25782 0.0
C1480 C 0.75069 0.03129 0.2404 0.0
C1481 C 0.73523 0.0424 0.23909 0.0
C1482 C 0.75996 0.03102 0.24825 0.0
C1483 C 0.75367 0.04216 0.25495 0.0
C1484 C 0.73801 0.05333 0.25368 0.0
C1485 C 0.72897 0.0533 0.24577 0.0
C1486 C 0.77654 0.01884 0.24937 0.0
C1487 C 0.73091 0.06547 0.26065 0.0
H1488 H 0.76309 0.02194 0.28273 0.0
H1489 H 0.79848 0.06428 0.27367 0.0
H1490 H 0.72942 0.02454 0.26709 0.0
H1491 H 0.7455 1.00832 0.26312 0.0
H1492 H 0.74004 1.00875 0.2743 0.0
H1493 H 0.79652 0.0758 0.25987 0.0
H1494 H 0.78867 0.05981 0.25203 0.0
H1495 H 0.77297 0.07636 0.25602 0.0
H1496 H 0.75546 0.02267 0.2353 0.0
H1497 H 0.71719 0.0621 0.24478 0.0
H1498 H 0.77412 0.00947 0.25474 0.0
H1499 H 0.78897 0.02696 0.25096 0.0
H1500 H 0.77954 0.01084 0.24357 0.0
H1501 H 0.72738 0.05739 0.26635 0.0
H1502 H 0.71843 0.07317 0.25868 0.0
H1503 H 0.74189 0.07513 0.26254 0.0
C1504 C 0.77364 0.02077 0.02843 0.0
C1505 C 0.76145 0.03539 0.0292 0.0
C1506 C 0.77408 0.01025 0.02101 0.0
C1507 C 0.762 0.01442 0.01419 0.0
C1508 C 0.74981 0.02927 0.0149 0.0
C1509 C 0.7497 0.03958 0.02237 0.0
C1510 C 0.78737 0.99461 0.02049 0.0
C1511 C 0.73666 0.03412 1.00779 0.0
C1512 C 0.77267 0.99694 0.992 0.0
C1513 C 0.76072 0.98208 0.99139 0.0
C1514 C 0.7734 1.00745 0.99941 0.0
C1515 C 0.76186 1.00305 1.00638 0.0
C1516 C 0.74991 0.98797 1.00585 0.0
C1517 C 0.7495 0.97766 0.99837 0.0
C1518 C 0.78642 0.02335 0.99975 0.0
C1519 C 0.73733 0.98287 0.01313 0.0
H1520 H 0.78293 0.01758 0.03362 0.0
H1521 H 0.74008 0.05071 0.02296 0.0
H1522 H 0.77953 0.98189 0.01964 0.0
H1523 H 0.79655 0.99616 0.01488 0.0
H1524 H 0.79614 0.99339 0.02626 0.0
H1525 H 0.72832 0.04628 1.00926 0.0
H1526 H 0.74453 0.03656 1.00185 0.0
H1527 H 0.72707 0.02274 1.00656 0.0
H1528 H 0.78155 1.0003 0.98667 0.0
H1529 H 0.74006 0.96635 0.99791 0.0
H1530 H 0.79599 0.02197 1.00523 0.0
H1531 H 0.7784 0.03591 1.00071 0.0
H1532 H 0.79478 0.02473 0.99386 0.0
H1533 H 0.74564 0.98058 0.01896 0.0
H1534 H 0.72914 0.97054 0.01177 0.0
H1535 H 0.7276 0.99406 0.01449 0.0
C1536 C 0.72628 0.52748 0.77285 0.0
C1537 C 0.73629 0.52518 0.78043 0.0
C1538 C 0.73521 0.52719 0.76492 0.0
C1539 C 0.75465 0.52468 0.76453 0.0
C1540 C 0.76482 0.52218 0.77213 0.0
C1541 C 0.75553 0.52239 0.77997 0.0
C1542 C 0.72385 0.52982 0.75696 0.0
C1543 C 0.78557 0.51948 0.77199 0.0
C1544 C 0.7764 0.5097 0.74365 0.0
C1545 C 0.78272 0.52608 0.7403 0.0
C1546 C 0.7672 0.50903 0.75152 0.0
C1547 C 0.76442 0.52511 0.75618 0.0
C1548 C 0.77092 0.54165 0.75286 0.0
C1549 C 0.77991 0.54194 0.74494 0.0
C1550 C 0.76031 0.49116 0.75481 0.0
C1551 C 0.76842 0.55905 0.75767 0.0
H1552 H 0.71147 0.52988 0.77312 0.0
H1553 H 0.76335 0.52029 0.78576 0.0
H1554 H 0.72837 0.54226 0.75365 0.0
H1555 H 0.72613 0.51844 0.75252 0.0
H1556 H 0.70877 0.53087 0.75832 0.0
H1557 H 0.79143 0.51755 0.77845 0.0
H1558 H 0.78911 0.50758 0.76806 0.0
H1559 H 0.79238 0.53131 0.76903 0.0
H1560 H 0.77835 0.49743 0.74005 0.0
H1561 H 0.78497 0.5546 0.74243 0.0
H1562 H 0.74507 0.49167 0.75571 0.0
H1563 H 0.76658 0.48827 0.76109 0.0
H1564 H 0.76363 0.47989 0.75043 0.0
H1565 H 0.75345 0.56162 0.75874 0.0
H1566 H 0.77445 0.57074 0.75425 0.0
H1567 H 0.7751 0.55803 0.764 0.0
C1568 C 0.75722 0.51413 0.98984 0.0
C1569 C 0.75655 0.53301 0.9898 0.0
C1570 C 0.75722 0.50441 0.99749 0.0
C1571 C 0.75669 0.51375 1.00532 0.0
C1572 C 0.7564 0.5328 1.00534 0.0
C1573 C 0.75626 0.54219 0.9976 0.0
C1574 C 0.75751 0.4841 0.99719 0.0
C1575 C 0.75592 0.54327 0.01356 0.0
C1576 C 0.73775 0.48957 0.02476 0.0
C1577 C 0.75404 0.48447 0.02899 0.0
C1578 C 0.73843 0.499 0.01704 0.0
C1579 C 0.75583 0.5036 0.01348 0.0
C1580 C 0.77234 0.49849 0.01772 0.0
C1581 C 0.77125 0.48892 0.0254 0.0
C1582 C 0.72051 0.50401 0.01268 0.0
C1583 C 0.79116 0.50329 0.01417 0.0
H1584 H 0.75779 0.5069 0.98387 0.0
H1585 H 0.75549 0.55674 0.99765 0.0
H1586 H 0.76959 0.47891 1.0008 0.0
H1587 H 0.74485 0.47866 1.00027 0.0
H1588 H 0.75823 0.47886 0.99059 0.0
H1589 H 0.75665 0.55803 0.0125 0.0
H1590 H 0.74296 0.54018 0.01706 0.0
H1591 H 0.76768 0.53922 0.01768 0.0
H1592 H 0.72442 0.48597 0.02745 0.0
H1593 H 0.78388 0.48518 0.02869 0.0
H1594 H 0.72013 0.49809 1.00622 0.0
H1595 H 0.71964 0.51882 0.01195 0.0
H1596 H 0.70813 0.49931 0.01625 0.0
H1597 H 0.79276 0.49753 1.00772 0.0
H1598 H 0.80267 0.4983 0.01823 0.0
H1599 H 0.79242 0.51811 0.01356 0.0
C1600 C 0.76637 0.50774 0.2788 0.0
C1601 C 0.7813 0.49603 0.28024 0.0
C1602 C 0.7573 0.50825 0.2709 0.0
C1603 C 0.76326 0.49673 0.26428 0.0
C1604 C 0.77841 0.48497 0.26567 0.0
C1605 C 0.78725 0.48478 0.27362 0.0
C1606 C 0.7413 0.52106 0.26965 0.0
C1607 C 0.78514 0.47242 0.25879 0.0
C1608 C 0.72937 0.48505 0.24659 0.0
C1609 C 0.73545 0.49623 0.23997 0.0
C1610 C 0.73822 0.48516 0.25454 0.0
C1611 C 0.7535 0.49677 0.25593 0.0
C1612 C 0.75959 0.50822 0.2493 0.0
C1613 C 0.75052 0.50779 0.2414 0.0
C1614 C 0.73135 0.47269 0.26142 0.0
C1615 C 0.77575 0.52088 0.25054 0.0
H1616 H 0.76184 0.51663 0.28384 0.0
H1617 H 0.79862 0.47554 0.27471 0.0
H1618 H 0.74419 0.53018 0.26423 0.0
H1619 H 0.72854 0.51341 0.26807 0.0
H1620 H 0.73856 0.52934 0.27539 0.0
H1621 H 0.79727 0.46431 0.26084 0.0
H1622 H 0.77381 0.46314 0.25691 0.0
H1623 H 0.78907 0.48023 0.25306 0.0
H1624 H 0.71789 0.47592 0.2455 0.0
H1625 H 0.75514 0.51664 0.23636 0.0
H1626 H 0.72751 0.48054 0.26715 0.0
H1627 H 0.74257 0.4633 0.26331 0.0
H1628 H 0.71913 0.46469 0.25937 0.0
H1629 H 0.77296 0.53004 0.25595 0.0
H1630 H 0.77859 0.52912 0.2448 0.0
H1631 H 0.78842 0.51311 0.25213 0.0
C1632 C 0.76978 0.50071 0.49161 0.0
C1633 C 0.75873 0.48534 0.49046 0.0
C1634 C 0.76958 0.51031 0.49929 0.0
C1635 C 0.75808 0.5044 0.50603 0.0
C1636 C 0.7468 0.48899 0.50491 0.0
C1637 C 0.74725 0.47965 0.49714 0.0
C1638 C 0.78185 0.52665 0.50023 0.0
C1639 C 0.73433 0.48228 0.51193 0.0
C1640 C 0.77135 0.51869 0.52842 0.0
C1641 C 0.75922 0.53312 0.52989 0.0
C1642 C 0.771 0.50914 0.52072 0.0
C1643 C 0.75823 0.51414 0.51431 0.0
C1644 C 0.74588 0.52863 0.51576 0.0
C1645 C 0.74653 0.53794 0.52353 0.0
C1646 C 0.78444 0.49382 0.51942 0.0
C1647 C 0.73205 0.53435 0.50909 0.0
H1648 H 0.7789 0.50506 0.48654 0.0
H1649 H 0.73849 0.46794 0.49628 0.0
H1650 H 0.77338 0.53854 0.50198 0.0
H1651 H 0.79197 0.52446 0.50544 0.0
H1652 H 0.78961 0.52977 0.49431 0.0
H1653 H 0.72618 0.47027 0.51001 0.0
H1654 H 0.74277 0.47876 0.51759 0.0
H1655 H 0.72458 0.49305 0.51388 0.0
H1656 H 0.7814 0.51503 0.53324 0.0
H1657 H 0.73695 0.54891 0.52465 0.0
H1658 H 0.79361 0.49676 0.51393 0.0
H1659 H 0.77675 0.48128 0.51791 0.0
H1660 H 0.79322 0.49137 0.5251 0.0
H1661 H 0.73943 0.53845 0.50322 0.0
H1662 H 0.72325 0.54573 0.51125 0.0
H1663 H 0.72292 0.52287 0.50741 0.0
C1664 C 0.26653 0.50582 0.24129 0.0
C1665 C 0.28184 0.49445 0.24008 0.0
C1666 C 0.25724 0.50649 0.24913 0.0
C1667 C 0.26334 0.49548 0.25592 0.0
C1668 C 0.27887 0.48409 0.25476 0.0
C1669 C 0.28794 0.48373 0.24686 0.0
C1670 C 0.24082 0.5189 0.25013 0.0
C1671 C 0.28576 0.47209 0.26182 0.0
C1672 C 0.24957 0.50717 0.2786 0.0
C1673 C 0.23484 0.49523 0.28006 0.0
C1674 C 0.25884 0.50754 0.27075 0.0
C1675 C 0.25331 0.49564 0.2642 0.0
C1676 C 0.23835 0.48364 0.26561 0.0
C1677 C 0.22929 0.4836 0.27351 0.0
C1678 C 0.27463 0.52062 0.26948 0.0
C1679 C 0.23208 0.47067 0.25881 0.0
H1680 H 0.26189 0.5143 0.23612 0.0
H1681 H 0.2996 0.47475 0.24594 0.0
H1682 H 0.22824 0.51097 0.2517 0.0
H1683 H 0.24326 0.52834 0.25548 0.0
H1684 H 0.23804 0.52685 0.24429 0.0
H1685 H 0.2982 0.46424 0.25994 0.0
H1686 H 0.28925 0.48028 0.26749 0.0
H1687 H 0.27466 0.46256 0.26372 0.0
H1688 H 0.25378 0.51635 0.28359 0.0
H1689 H 0.21808 0.47418 0.27462 0.0
H1690 H 0.27174 0.52941 0.26394 0.0
H1691 H 0.28759 0.51315 0.26807 0.0
H1692 H 0.27701 0.52922 0.27514 0.0
H1693 H 0.2282 0.47815 0.25298 0.0
H1694 H 0.22003 0.46243 0.26086 0.0
H1695 H 0.24363 0.46151 0.2571 0.0
C1696 C 0.2725 0.51967 0.99243 0.0
C1697 C 0.25978 0.53358 0.99089 0.0
C1698 C 0.27232 0.51003 1.0001 0.0
C1699 C 0.25911 0.51441 1.00642 0.0
C1700 C 0.2462 0.5284 1.00492 0.0
C1701 C 0.24669 0.53781 0.99718 0.0
C1702 C 0.28636 0.49525 1.00146 0.0
C1703 C 0.23187 0.53344 0.01149 0.0
C1704 C 0.24866 0.47922 0.02334 0.0
C1705 C 0.25951 0.48524 0.03017 0.0
C1706 C 0.24828 0.48864 0.0156 0.0
C1707 C 0.259 0.50448 0.01466 0.0
C1708 C 0.2699 0.51069 0.02154 0.0
C1709 C 0.27004 0.501 0.0292 0.0
C1710 C 0.23646 0.48159 1.00841 0.0
C1711 C 0.28155 0.5275 0.02079 0.0
H1712 H 0.28283 0.51647 0.98766 0.0
H1713 H 0.23666 0.54838 0.99601 0.0
H1714 H 0.29512 0.49843 1.00706 0.0
H1715 H 0.27917 0.48237 1.00282 0.0
H1716 H 0.29553 0.49333 0.99587 0.0
H1717 H 0.22273 0.54455 1.00933 0.0
H1718 H 0.22313 0.52159 0.01303 0.0
H1719 H 0.23884 0.53764 0.01746 0.0
H1720 H 0.24029 0.46721 0.02407 0.0
H1721 H 0.27869 0.50562 0.03439 0.0
H1722 H 0.2453 0.47859 1.00282 0.0
H1723 H 0.22632 0.49199 1.00643 0.0
H1724 H 0.22878 0.46919 0.01019 0.0
H1725 H 0.29196 0.52581 0.01566 0.0
H1726 H 0.28895 0.53075 0.02679 0.0
H1727 H 0.27269 0.53911 0.01904 0.0
C1728 C 0.25145 0.53614 0.74185 0.0
C1729 C 0.23646 0.52468 0.74008 0.0
C1730 C 0.26027 0.53589 0.7498 0.0
C1731 C 0.25396 0.52391 0.75617 0.0
C1732 C 0.2389 0.51224 0.75442 0.0
C1733 C 0.23034 0.51277 0.7464 0.0
C1734 C 0.27625 0.54858 0.75141 0.0
C1735 C 0.23179 0.49925 0.76103 0.0
C1736 C 0.28693 0.51297 0.77434 0.0
C1737 C 0.28054 0.52448 0.78077 0.0
C1738 C 0.27832 0.51251 0.76633 0.0
C1739 C 0.26294 0.52384 0.7647 0.0
C1740 C 0.25633 0.53537 0.77118 0.0
C1741 C 0.26521 0.53557 0.77912 0.0
C1742 C 0.28576 0.5 0.75959 0.0
C1743 C 0.23999 0.54768 0.7697 0.0
H1744 H 0.25611 0.54557 0.73705 0.0
H1745 H 0.21894 0.5037 0.74505 0.0
H1746 H 0.27279 0.55776 0.75674 0.0
H1747 H 0.28874 0.54087 0.75332 0.0
H1748 H 0.27971 0.55682 0.74574 0.0
H1749 H 0.22009 0.49094 0.75865 0.0
H1750 H 0.24312 0.49016 0.76309 0.0
H1751 H 0.22707 0.50675 0.76673 0.0
H1752 H 0.2986 0.50418 0.77559 0.0
H1753 H 0.26033 0.54471 0.78399 0.0
H1754 H 0.29032 0.50787 0.75398 0.0
H1755 H 0.27466 0.49073 0.75743 0.0
H1756 H 0.29766 0.49186 0.7619 0.0
H1757 H 0.2432 0.55722 0.76448 0.0
H1758 H 0.23628 0.55553 0.77545 0.0
H1759 H 0.22773 0.53972 0.7677 0.0
C1760 C 0.2697 0.49867 0.4906 0.0
C1761 C 0.25806 0.48363 0.48977 0.0
C1762 C 0.27029 0.50861 0.49819 0.0
C1763 C 0.25893 0.50345 0.50511 0.0
C1764 C 0.24728 0.48819 0.50433 0.0
C1765 C 0.24701 0.47846 0.49669 0.0
C1766 C 0.283 0.52472 0.49878 0.0
C1767 C 0.2349 0.48229 0.51155 0.0
C1768 C 0.27066 0.51949 0.52743 0.0
C1769 C 0.2582 0.53381 0.5285 0.0
C1770 C 0.27122 0.50964 0.51982 0.0
C1771 C 0.25897 0.51416 0.51311 0.0
C1772 C 0.2465 0.52871 0.51412 0.0
C1773 C 0.24629 0.53837 0.52179 0.0
C1774 C 0.28481 0.4943 0.51897 0.0
C1775 C 0.23317 0.53391 0.50715 0.0
H1776 H 0.27845 0.50261 0.48532 0.0
H1777 H 0.23781 0.46701 0.49606 0.0
H1778 H 0.27474 0.53704 0.5 0.0
H1779 H 0.29269 0.52307 0.5042 0.0
H1780 H 0.29122 0.52675 0.49289 0.0
H1781 H 0.2269 0.46995 0.50998 0.0
H1782 H 0.24333 0.47965 0.51731 0.0
H1783 H 0.225 0.49319 0.51314 0.0
H1784 H 0.28007 0.51604 0.53254 0.0
H1785 H 0.23647 0.54927 0.52261 0.0
H1786 H 0.29387 0.49649 0.51337 0.0
H1787 H 0.27721 0.48152 0.5179 0.0
H1788 H 0.29369 0.49277 0.52469 0.0
H1789 H 0.24091 0.53699 0.50124 0.0
H1790 H 0.22462 0.54579 0.50886 0.0
H1791 H 0.22377 0.52247 0.50573 0.0
C1792 C 0.23677 0.07786 0.40303 0.0
C1793 C 0.22464 0.08849 0.40787 0.0
C1794 C 0.23157 0.07142 0.39498 0.0
C1795 C 0.2138 0.07567 0.3917 0.0
C1796 C 0.20139 0.08608 0.39663 0.0
C1797 C 0.20696 0.09236 0.40464 0.0
C1798 C 0.2452 0.06039 0.3899 0.0
C1799 C 0.18227 0.09079 0.39341 0.0
C1800 C 0.20434 0.07587 0.36795 0.0
C1801 C 0.19429 0.05986 0.3669 0.0
C1802 C 0.21134 0.08087 0.37594 0.0
C1803 C 0.2082 0.0696 0.38305 0.0
C1804 C 0.19865 0.05312 0.38197 0.0
C1805 C 0.1918 0.04846 0.37391 0.0
C1806 C 0.22146 0.09856 0.37683 0.0
C1807 C 0.19512 0.04069 0.38938 0.0
H1808 H 0.25051 0.07495 0.40546 0.0
H1809 H 0.19742 0.10033 0.4084 0.0
H1810 H 0.23885 0.04737 0.38806 0.0
H1811 H 0.2488 0.06759 0.38395 0.0
H1812 H 0.25817 0.05767 0.39348 0.0
H1813 H 0.17415 0.09869 0.3981 0.0
H1814 H 0.18341 0.09874 0.38747 0.0
H1815 H 0.17447 0.07834 0.39187 0.0
H1816 H 0.20616 0.08485 0.3626 0.0
H1817 H 0.1843 0.03593 0.37312 0.0
H1818 H 0.235 0.09649 0.38002 0.0
H1819 H 0.21323 0.10784 0.38086 0.0
H1820 H 0.22393 0.10514 0.37059 0.0
H1821 H 0.2083 0.03765 0.39272 0.0
H1822 H 0.1886 0.02782 0.38738 0.0
H1823 H 0.18583 0.04739 0.39402 0.0
C1824 C 0.23365 0.91866 0.62109 0.0
C1825 C 0.22972 0.92817 0.61359 0.0
C1826 C 0.22723 0.9247 0.629 0.0
C1827 C 0.21671 0.94074 0.62947 0.0
C1828 C 0.21334 0.95082 0.62199 0.0
C1829 C 0.21985 0.94439 0.61414 0.0
C1830 C 0.23116 0.91358 0.63682 0.0
C1831 C 0.20226 0.96803 0.62223 0.0
C1832 C 0.18235 0.94466 0.64765 0.0
C1833 C 0.19184 0.9558 0.65338 0.0
C1834 C 0.19025 0.93981 0.63984 0.0
C1835 C 0.20812 0.94623 0.63768 0.0
C1836 C 0.2178 0.95751 0.64342 0.0
C1837 C 0.20956 0.96212 0.65122 0.0
C1838 C 0.17952 0.92763 0.63393 0.0
C1839 C 0.23684 0.96468 0.64132 0.0
H1840 H 0.24159 0.9063 0.62075 0.0
H1841 H 0.21661 0.95177 0.60839 0.0
H1842 H 0.23762 0.92204 0.64181 0.0
H1843 H 0.21795 0.9083 0.63945 0.0
H1844 H 0.24047 0.90203 0.63546 0.0
H1845 H 0.20224 0.97508 0.61601 0.0
H1846 H 0.18771 0.965 0.62402 0.0
H1847 H 0.20793 0.97726 0.62712 0.0
H1848 H 0.16879 0.93948 0.64933 0.0
H1849 H 0.2169 0.97087 0.65558 0.0
H1850 H 0.18745 0.91508 0.63279 0.0
H1851 H 0.17758 0.9343 0.62769 0.0
H1852 H 0.16567 0.924 0.63651 0.0
H1853 H 0.24661 0.95336 0.64031 0.0
H1854 H 0.24243 0.97348 0.64642 0.0
H1855 H 0.23633 0.97247 0.63531 0.0
C1856 C 0.27955 0.93916 0.90245 0.0
C1857 C 0.29205 0.92937 0.90748 0.0
C1858 C 0.2847 0.94553 0.89438 0.0
C1859 C 0.30278 0.94207 0.89128 0.0
C1860 C 0.31556 0.93252 0.8964 0.0
C1861 C 0.31004 0.92629 0.90442 0.0
C1862 C 0.27067 0.95563 0.88909 0.0
C1863 C 0.33503 0.92867 0.89336 0.0
C1864 C 0.313 0.94132 0.8676 0.0
C1865 C 0.32219 0.95778 0.86644 0.0
C1866 C 0.30606 0.9363 0.87559 0.0
C1867 C 0.30835 0.94802 0.8826 0.0
C1868 C 0.31703 0.96492 0.88142 0.0
C1869 C 0.32384 0.96959 0.87335 0.0
C1870 C 0.2969 0.91815 0.87659 0.0
C1871 C 0.31963 0.97784 0.88872 0.0
H1872 H 0.26558 0.94145 0.90474 0.0
H1873 H 0.31986 0.91897 0.90833 0.0
H1874 H 0.27638 0.96886 0.88716 0.0
H1875 H 0.26767 0.94799 0.8832 0.0
H1876 H 0.25745 0.95785 0.89255 0.0
H1877 H 0.3434 0.92142 0.8982 0.0
H1878 H 0.33454 0.9204 0.8875 0.0
H1879 H 0.34219 0.94143 0.89175 0.0
H1880 H 0.31184 0.93203 0.86232 0.0
H1881 H 0.33067 0.98245 0.87248 0.0
H1882 H 0.28315 0.91966 0.87967 0.0
H1883 H 0.30548 0.90951 0.88078 0.0
H1884 H 0.29503 0.91117 0.87041 0.0
H1885 H 0.30619 0.98036 0.89193 0.0
H1886 H 0.32552 0.99093 0.88663 0.0
H1887 H 0.3291 0.97183 0.89349 0.0
C1888 C 0.27365 0.09189 0.12064 0.0
C1889 C 0.28435 0.089 0.11332 0.0
C1890 C 0.28006 0.08662 0.12869 0.0
C1891 C 0.2976 0.07823 0.12945 0.0
C1892 C 0.30817 0.07468 0.12206 0.0
C1893 C 0.30143 0.08011 0.11409 0.0
C1894 C 0.26832 0.09055 0.13641 0.0
C1895 C 0.32694 0.06576 0.12259 0.0
C1896 C 0.32435 0.08342 0.15009 0.0
C1897 C 0.32165 0.06662 0.15395 0.0
C1898 C 0.3164 0.08741 0.14218 0.0
C1899 C 0.30547 0.07428 0.138 0.0
C1900 C 0.30242 0.05739 0.14192 0.0
C1901 C 0.31052 0.05377 0.14987 0.0
C1902 C 0.31986 0.10564 0.13825 0.0
C1903 C 0.29091 0.04304 0.13766 0.0
H1904 H 0.26031 0.09849 0.12009 0.0
H1905 H 0.30988 0.07799 0.10849 0.0
H1906 H 0.26634 0.07815 0.14022 0.0
H1907 H 0.27553 0.10047 0.14052 0.0
H1908 H 0.25449 0.09604 0.1347 0.0
H1909 H 0.3328 0.06276 0.11622 0.0
H1910 H 0.33674 0.07468 0.12603 0.0
H1911 H 0.32596 0.05304 0.12624 0.0
H1912 H 0.3327 0.0935 0.15327 0.0
H1913 H 0.30851 0.04071 0.15279 0.0
H1914 H 0.30648 0.11246 0.13694 0.0
H1915 H 0.32712 0.10403 0.13208 0.0
H1916 H 0.32837 0.11448 0.1424 0.0
H1917 H 0.27694 0.04837 0.13612 0.0
H1918 H 0.2893 0.03086 0.14168 0.0
H1919 H 0.29749 0.03906 0.13157 0.0
C1920 C 0.80767 0.93194 0.61454 0.0
C1921 C 0.78869 0.93027 0.61277 0.0
C1922 C 0.81388 0.93725 0.62261 0.0
C1923 C 0.80079 0.94111 0.62907 0.0
C1924 C 0.78159 0.93986 0.62726 0.0
C1925 C 0.77577 0.93438 0.61914 0.0
C1926 C 0.83447 0.93829 0.6243 0.0
C1927 C 0.76722 0.94405 0.63394 0.0
C1928 C 0.8173 0.93657 0.6519 0.0
C1929 C 0.82148 0.95445 0.65401 0.0
C1930 C 0.81029 0.93209 0.64385 0.0
C1931 C 0.80726 0.94583 0.63777 0.0
C1932 C 0.81103 0.96396 0.63994 0.0
C1933 C 0.81817 0.96804 0.64801 0.0
C1934 C 0.80658 0.91259 0.64177 0.0
C1935 C 0.80779 0.97901 0.63367 0.0
H1936 H 0.81772 0.92856 0.60968 0.0
H1937 H 0.76108 0.93329 0.61778 0.0
H1938 H 0.83821 0.95187 0.62665 0.0
H1939 H 0.83832 0.92851 0.62932 0.0
H1940 H 0.84283 0.93537 0.61853 0.0
H1941 H 0.75286 0.94324 0.63141 0.0
H1942 H 0.76854 0.93446 0.6393 0.0
H1943 H 0.76952 0.95774 0.63654 0.0
H1944 H 0.82004 0.92599 0.65646 0.0
H1945 H 0.82118 0.9819 0.64965 0.0
H1946 H 0.81561 0.90827 0.63645 0.0
H1947 H 0.79201 0.91085 0.63967 0.0
H1948 H 0.80912 0.90359 0.64728 0.0
H1949 H 0.8169 0.97719 0.62806 0.0
H1950 H 0.81059 0.99246 0.63647 0.0
H1951 H 0.79325 0.97868 0.63137 0.0
C1952 C 0.7744 0.09152 0.39877 0.0
C1953 C 0.78545 0.08924 0.40603 0.0
C1954 C 0.78078 0.08632 0.39071 0.0
C1955 C 0.79865 0.07865 0.38987 0.0
C1956 C 0.8096 0.07571 0.39721 0.0
C1957 C 0.80287 0.08104 0.4052 0.0
C1958 C 0.76863 0.08959 0.38305 0.0
C1959 C 0.82872 0.06756 0.39659 0.0
C1960 C 0.81203 0.05427 0.3695 0.0
C1961 C 0.82247 0.06746 0.36528 0.0
C1962 C 0.804 0.05774 0.37747 0.0
C1963 C 0.80642 0.07483 0.38129 0.0
C1964 C 0.81663 0.0883 0.37698 0.0
C1965 C 0.82453 0.08445 0.36904 0.0
C1966 C 0.79325 0.04303 0.38188 0.0
C1967 C 0.81939 0.10676 0.38079 0.0
H1968 H 0.7608 0.09759 0.39938 0.0
H1969 H 0.81159 0.0794 0.41075 0.0
H1970 H 0.77526 0.0997 0.37884 0.0
H1971 H 0.76708 0.07703 0.37931 0.0
H1972 H 0.75463 0.09453 0.38483 0.0
H1973 H 0.83491 0.06495 0.40294 0.0
H1974 H 0.82819 0.05472 0.39301 0.0
H1975 H 0.83801 0.0768 0.39305 0.0
H1976 H 0.81052 0.04107 0.36666 0.0
H1977 H 0.83234 0.09479 0.36576 0.0
H1978 H 0.77912 0.04781 0.38349 0.0
H1979 H 0.8002 0.03944 0.38794 0.0
H1980 H 0.79204 0.03071 0.37793 0.0
H1981 H 0.80576 0.11303 0.38216 0.0
H1982 H 0.82736 0.11584 0.37654 0.0
H1983 H 0.82691 0.1056 0.38692 0.0
C1984 C 0.73793 0.09537 0.12076 0.0
C1985 C 0.73028 0.08871 0.11318 0.0
C1986 C 0.73136 0.08965 0.1287 0.0
C1987 C 0.71682 0.07688 0.12911 0.0
C1988 C 0.70957 0.06953 0.1215 0.0
C1989 C 0.71636 0.07555 0.11363 0.0
C1990 C 0.73951 0.09779 0.13666 0.0
C1991 C 0.69411 0.05583 0.12166 0.0
C1992 C 0.70683 0.05363 0.15019 0.0
C1993 C 0.69177 0.06369 0.15323 0.0
C1994 C 0.71514 0.05771 0.14234 0.0
C1995 C 0.70828 0.07225 0.13744 0.0
C1996 C 0.6932 0.08254 0.14053 0.0
C1997 C 0.68514 0.07814 0.14836 0.0
C1998 C 0.73114 0.04639 0.13924 0.0
C1999 C 0.68557 0.09825 0.13555 0.0
H2000 H 0.74893 0.1053 0.12047 0.0
H2001 H 0.71025 0.07043 0.10782 0.0
H2002 H 0.72879 0.10586 0.13998 0.0
H2003 H 0.744 0.08703 0.14109 0.0
H2004 H 0.75157 0.10662 0.13528 0.0
H2005 H 0.69111 0.05029 0.11526 0.0
H2006 H 0.6977 0.04455 0.12597 0.0
H2007 H 0.6813 0.06216 0.12417 0.0
H2008 H 0.71191 0.04236 0.15388 0.0
H2009 H 0.6737 0.08615 0.15073 0.0
H2010 H 0.74347 0.055 0.13812 0.0
H2011 H 0.72752 0.04003 0.13309 0.0
H2012 H 0.73494 0.03565 0.14383 0.0
H2013 H 0.69664 0.10837 0.13448 0.0
H2014 H 0.6738 0.1049 0.13884 0.0
H2015 H 0.68078 0.09364 0.12921 0.0
C2016 C 0.72014 0.94453 0.9066 0.0
C2017 C 0.72795 0.92731 0.90735 0.0
C2018 C 0.71382 0.95098 0.89872 0.0
C2019 C 0.71528 0.93992 0.89142 0.0
C2020 C 0.72369 0.92278 0.89209 0.0
C2021 C 0.72997 0.91673 0.90003 0.0
C2022 C 0.70501 0.96936 0.89826 0.0
C2023 C 0.72554 0.91058 0.88447 0.0
C2024 C 0.68061 0.94622 0.87351 0.0
C2025 C 0.69115 0.95546 0.86742 0.0
C2026 C 0.68825 0.94131 0.88137 0.0
C2027 C 0.70692 0.94572 0.88321 0.0
C2028 C 0.71763 0.95514 0.87712 0.0
C2029 C 0.70963 0.95987 0.86928 0.0
C2030 C 0.67638 0.93116 0.88766 0.0
C2031 C 0.73756 0.96014 0.87887 0.0
H2032 H 0.71839 0.95275 0.91223 0.0
H2033 H 0.73633 0.90356 0.90051 0.0
H2034 H 0.7115 0.97743 0.89313 0.0
H2035 H 0.69008 0.96798 0.89669 0.0
H2036 H 0.70629 0.97686 0.90434 0.0
H2037 H 0.73327 0.89806 0.88596 0.0
H2038 H 0.71156 0.90685 0.8821 0.0
H2039 H 0.73277 0.9177 0.87923 0.0
H2040 H 0.66642 0.9425 0.87207 0.0
H2041 H 0.7178 0.96716 0.86464 0.0
H2042 H 0.67583 0.93854 0.89378 0.0
H2043 H 0.68261 0.9178 0.88896 0.0
H2044 H 0.66199 0.92914 0.88533 0.0
H2045 H 0.73845 0.96836 0.88473 0.0
H2046 H 0.74388 0.96783 0.87355 0.0
H2047 H 0.74588 0.94781 0.87995 0.0
C2048 C 0.68463 0.5436 0.874 0.0
C2049 C 0.69281 0.54859 0.86626 0.0
C2050 C 0.69208 0.54932 0.88179 0.0
C2051 C 0.70819 0.5602 0.88186 0.0
C2052 C 0.71695 0.56469 0.87409 0.0
C2053 C 0.70914 0.55887 0.86638 0.0
C2054 C 0.68233 0.5442 0.88992 0.0
C2055 C 0.7342 0.5762 0.8739 0.0
C2056 C 0.71455 0.59187 0.90056 0.0
C2057 C 0.72756 0.58266 0.90555 0.0
C2058 C 0.70823 0.58473 0.89284 0.0
C2059 C 0.71507 0.56792 0.89001 0.0
C2060 C 0.7282 0.55851 0.89501 0.0
C2061 C 0.73426 0.56597 0.90274 0.0
C2062 C 0.6941 0.59514 0.88774 0.0
C2063 C 0.73588 0.5406 0.89218 0.0
H2064 H 0.67223 0.53537 0.87398 0.0
H2065 H 0.71547 0.56293 0.86044 0.0
H2066 H 0.69223 0.53782 0.89439 0.0
H2067 H 0.67689 0.55647 0.89307 0.0
H2068 H 0.6706 0.5348 0.88882 0.0
H2069 H 0.74021 0.57723 0.86742 0.0
H2070 H 0.73084 0.58995 0.87616 0.0
H2071 H 0.74486 0.57063 0.87824 0.0
H2072 H 0.70908 0.60463 0.90276 0.0
H2073 H 0.74445 0.55885 0.90652 0.0
H2074 H 0.68135 0.58697 0.88692 0.0
H2075 H 0.69963 0.59801 0.8813 0.0
H2076 H 0.69029 0.60809 0.8908 0.0
H2077 H 0.72444 0.53077 0.89138 0.0
H2078 H 0.74606 0.53503 0.89677 0.0
H2079 H 0.74275 0.54207 0.88591 0.0
C2080 C 0.70735 0.43423 0.11705 0.0
C2081 C 0.72485 0.43794 0.11358 0.0
C2082 C 0.70192 0.44153 0.12488 0.0
C2083 C 0.71431 0.45281 0.12939 0.0
C2084 C 0.73192 0.45682 0.12588 0.0
C2085 C 0.73697 0.44938 0.118 0.0
C2086 C 0.68296 0.43704 0.12836 0.0
C2087 C 0.74553 0.46874 0.13052 0.0
C2088 C 0.69227 0.48241 0.14629 0.0
C2089 C 0.69495 0.47212 0.15367 0.0
C2090 C 0.69906 0.47661 0.13839 0.0
C2091 C 0.7088 0.46012 0.13784 0.0
C2092 C 0.71218 0.45001 0.14531 0.0
C2093 C 0.70521 0.45612 0.15312 0.0
C2094 C 0.69525 0.48782 0.13059 0.0
C2095 C 0.72253 0.43238 0.145 0.0
H2096 H 0.69781 0.42563 0.11361 0.0
H2097 H 0.75057 0.45216 0.11539 0.0
H2098 H 0.68435 0.43007 0.13456 0.0
H2099 H 0.675 0.44958 0.1295 0.0
H2100 H 0.67486 0.4283 0.124 0.0
H2101 H 0.75844 0.471 0.12681 0.0
H2102 H 0.7391 0.48196 0.13191 0.0
H2103 H 0.74926 0.46254 0.13669 0.0
H2104 H 0.68463 0.49493 0.14668 0.0
H2105 H 0.70719 0.44799 0.15877 0.0
H2106 H 0.68597 0.48032 0.12622 0.0
H2107 H 0.70834 0.4905 0.1271 0.0
H2108 H 0.68861 0.50088 0.13217 0.0
H2109 H 0.71433 0.42237 0.14135 0.0
H2110 H 0.72524 0.42685 0.15143 0.0
H2111 H 0.73596 0.43411 0.14166 0.0
C2112 C 0.80854 0.43351 0.40319 0.0
C2113 C 0.79086 0.43698 0.40652 0.0
C2114 C 0.81411 0.44075 0.39537 0.0
C2115 C 0.80168 0.45171 0.39072 0.0
C2116 C 0.78388 0.45548 0.39408 0.0
C2117 C 0.7787 0.4481 0.40196 0.0
C2118 C 0.83327 0.43653 0.39205 0.0
C2119 C 0.77022 0.46705 0.3893 0.0
C2120 C 0.82367 0.48145 0.37385 0.0
C2121 C 0.82136 0.47101 0.36649 0.0
C2122 C 0.81678 0.47563 0.38173 0.0
C2123 C 0.80734 0.45897 0.38228 0.0
C2124 C 0.80438 0.44868 0.37483 0.0
C2125 C 0.81142 0.45482 0.36703 0.0
C2126 C 0.82015 0.48704 0.38951 0.0
C2127 C 0.79436 0.43085 0.37515 0.0
H2128 H 0.81811 0.42516 0.40675 0.0
H2129 H 0.76495 0.4507 0.40446 0.0
H2130 H 0.83221 0.42942 0.38587 0.0
H2131 H 0.84105 0.44918 0.39091 0.0
H2132 H 0.84136 0.42801 0.3965 0.0
H2133 H 0.75714 0.46914 0.39289 0.0
H2134 H 0.77646 0.48037 0.3879 0.0
H2135 H 0.76683 0.46069 0.38312 0.0
H2136 H 0.83106 0.49411 0.37346 0.0
H2137 H 0.80974 0.44657 0.36141 0.0
H2138 H 0.8294 0.47976 0.39397 0.0
H2139 H 0.80691 0.48957 0.39289 0.0
H2140 H 0.82664 0.50018 0.38793 0.0
H2141 H 0.80262 0.42108 0.3789 0.0
H2142 H 0.79199 0.42514 0.36872 0.0
H2143 H 0.78078 0.43239 0.37837 0.0
C2144 C 0.77979 0.57063 0.6186 0.0
C2145 C 0.79205 0.58141 0.61391 0.0
C2146 C 0.78503 0.56337 0.6265 0.0
C2147 C 0.80298 0.56692 0.62975 0.0
C2148 C 0.8155 0.57753 0.62497 0.0
C2149 C 0.80988 0.58465 0.61713 0.0
C2150 C 0.77127 0.55217 0.63142 0.0
C2151 C 0.83483 0.5815 0.62817 0.0
C2152 C 0.81324 0.5643 0.6534 0.0
C2153 C 0.82287 0.54795 0.654 0.0
C2154 C 0.80613 0.57034 0.6456 0.0
C2155 C 0.80871 0.5598 0.6382 0.0
C2156 C 0.81783 0.54299 0.63881 0.0
C2157 C 0.82479 0.53727 0.64669 0.0
C2158 C 0.79646 0.58833 0.64522 0.0
C2159 C 0.82078 0.53131 0.63108 0.0
H2160 H 0.76593 0.56821 0.61619 0.0
H2161 H 0.81952 0.59275 0.61347 0.0
H2162 H 0.77728 0.53879 0.63288 0.0
H2163 H 0.76815 0.55877 0.63758 0.0
H2164 H 0.75806 0.55021 0.62791 0.0
H2165 H 0.84298 0.58975 0.62361 0.0
H2166 H 0.83406 0.5888 0.6343 0.0
H2167 H 0.84238 0.56875 0.62934 0.0
H2168 H 0.81186 0.57272 0.65898 0.0
H2169 H 0.83194 0.52448 0.64712 0.0
H2170 H 0.78277 0.58695 0.64207 0.0
H2171 H 0.80481 0.59785 0.64136 0.0
H2172 H 0.79436 0.59427 0.65162 0.0
H2173 H 0.8074 0.52892 0.62779 0.0
H2174 H 0.82705 0.51811 0.63272 0.0
H2175 H 0.83005 0.5383 0.62653 0.0
C2176 C 0.3028 0.44665 0.11514 0.0
C2177 C 0.28618 0.43688 0.11464 0.0
C2178 C 0.30951 0.45296 0.12297 0.0
C2179 C 0.29938 0.44941 0.13049 0.0
C2180 C 0.28228 0.4401 0.13 0.0
C2181 C 0.2759 0.43395 0.12208 0.0
C2182 C 0.3278 0.46285 0.12323 0.0
C2183 C 0.27101 0.43613 0.13786 0.0
C2184 C 0.32693 0.44707 0.15103 0.0
C2185 C 0.32343 0.46397 0.15465 0.0
C2186 C 0.319 0.44213 0.14323 0.0
C2187 C 0.30728 0.45438 0.13892 0.0
C2188 C 0.30344 0.47136 0.1426 0.0
C2189 C 0.31153 0.47594 0.15044 0.0
C2190 C 0.32333 0.42383 0.13957 0.0
C2191 C 0.29106 0.4848 0.13819 0.0
H2192 H 0.31094 0.44882 0.10945 0.0
H2193 H 0.2629 0.42666 0.12173 0.0
H2194 H 0.32625 0.47577 0.12668 0.0
H2195 H 0.33816 0.45469 0.12674 0.0
H2196 H 0.3333 0.46566 0.11678 0.0
H2197 H 0.25746 0.42979 0.13633 0.0
H2198 H 0.27887 0.42693 0.14208 0.0
H2199 H 0.26845 0.44869 0.14148 0.0
H2200 H 0.33588 0.43765 0.15432 0.0
H2201 H 0.30891 0.48908 0.15317 0.0
H2202 H 0.33029 0.42536 0.13332 0.0
H2203 H 0.3103 0.41624 0.13847 0.0
H2204 H 0.33244 0.41575 0.14379 0.0
H2205 H 0.29724 0.48865 0.132 0.0
H2206 H 0.28895 0.49717 0.14202 0.0
H2207 H 0.27734 0.47867 0.13684 0.0
C2208 C 0.30188 0.57298 0.90573 0.0
C2209 C 0.28505 0.58235 0.90634 0.0
C2210 C 0.30849 0.5668 0.89786 0.0
C2211 C 0.29802 0.57005 0.89041 0.0
C2212 C 0.28072 0.57895 0.89101 0.0
C2213 C 0.27445 0.58499 0.89896 0.0
C2214 C 0.32701 0.55736 0.89749 0.0
C2215 C 0.26909 0.58259 0.88323 0.0
C2216 C 0.32489 0.57281 0.8697 0.0
C2217 C 0.32175 0.55577 0.86615 0.0
C2218 C 0.31704 0.57767 0.87752 0.0
C2219 C 0.30575 0.5652 0.88194 0.0
C2220 C 0.30224 0.54808 0.87833 0.0
C2221 C 0.31025 0.54357 0.87047 0.0
C2222 C 0.32102 0.59612 0.88111 0.0
C2223 C 0.29032 0.5344 0.88285 0.0
H2224 H 0.31026 0.57105 0.91137 0.0
H2225 H 0.26129 0.59197 0.8994 0.0
H2226 H 0.32565 0.54436 0.89409 0.0
H2227 H 0.33703 0.56572 0.89388 0.0
H2228 H 0.33282 0.55476 0.90391 0.0
H2229 H 0.25544 0.58861 0.88484 0.0
H2230 H 0.27658 0.59194 0.87893 0.0
H2231 H 0.26671 0.56994 0.87965 0.0
H2232 H 0.33352 0.58239 0.86634 0.0
H2233 H 0.3079 0.53033 0.8678 0.0
H2234 H 0.32824 0.59483 0.8873 0.0
H2235 H 0.30783 0.60339 0.88229 0.0
H2236 H 0.32976 0.60438 0.8768 0.0
H2237 H 0.2968 0.53072 0.889 0.0
H2238 H 0.28834 0.52196 0.87905 0.0
H2239 H 0.27652 0.54023 0.88429 0.0
C2240 C 0.19919 0.56808 0.6521 0.0
C2241 C 0.19627 0.5498 0.65385 0.0
C2242 C 0.20611 0.5737 0.64419 0.0
C2243 C 0.21036 0.56072 0.6379 0.0
C2244 C 0.20785 0.54221 0.63971 0.0
C2245 C 0.20075 0.53698 0.64764 0.0
C2246 C 0.20844 0.59357 0.6425 0.0
C2247 C 0.21242 0.52796 0.63321 0.0
C2248 C 0.20987 0.57643 0.61493 0.0
C2249 C 0.22875 0.57953 0.61337 0.0
C2250 C 0.20374 0.57007 0.62284 0.0
C2251 C 0.21681 0.5666 0.62935 0.0
C2252 C 0.23594 0.56932 0.62776 0.0
C2253 C 0.24167 0.57584 0.6198 0.0
C2254 C 0.18321 0.56749 0.6243 0.0
C2255 C 0.25032 0.56559 0.6345 0.0
H2256 H 0.19553 0.57806 0.65683 0.0
H2257 H 0.19871 0.52282 0.649 0.0
H2258 H 0.22293 0.59649 0.64058 0.0
H2259 H 0.19934 0.59768 0.63717 0.0
H2260 H 0.205 0.60191 0.64814 0.0
H2261 H 0.21049 0.51413 0.63573 0.0
H2262 H 0.20343 0.52963 0.62754 0.0
H2263 H 0.22699 0.52947 0.63105 0.0
H2264 H 0.1998 0.57947 0.61002 0.0
H2265 H 0.2563 0.57804 0.6186 0.0
H2266 H 0.17846 0.57653 0.62947 0.0
H2267 H 0.18038 0.55349 0.62637 0.0
H2268 H 0.17489 0.57033 0.61852 0.0
H2269 H 0.24806 0.57459 0.64002 0.0
H2270 H 0.26468 0.56761 0.63213 0.0
H2271 H 0.24895 0.55155 0.63681 0.0
C2272 C 0.20709 0.43185 0.4024 0.0
C2273 C 0.22447 0.436 0.40589 0.0
C2274 C 0.20142 0.43918 0.39461 0.0
C2275 C 0.21343 0.45095 0.39016 0.0
C2276 C 0.23091 0.4554 0.39369 0.0
C2277 C 0.23621 0.4479 0.40153 0.0
C2278 C 0.1826 0.43421 0.39111 0.0
C2279 C 0.24411 0.46785 0.38913 0.0
C2280 C 0.20424 0.45479 0.36646 0.0
C2281 C 0.19353 0.47051 0.36603 0.0
C2282 C 0.21136 0.4486 0.37423 0.0
C2283 C 0.20766 0.45835 0.38177 0.0
C2284 C 0.19742 0.47457 0.38134 0.0
C2285 C 0.19049 0.48045 0.37348 0.0
C2286 C 0.22224 0.43126 0.37442 0.0
C2287 C 0.19325 0.4854 0.38922 0.0
H2288 H 0.19784 0.42288 0.4058 0.0
H2289 H 0.24972 0.45104 0.40415 0.0
H2290 H 0.17423 0.44653 0.39006 0.0
H2291 H 0.18421 0.42748 0.38486 0.0
H2292 H 0.17481 0.42508 0.39541 0.0
H2293 H 0.25697 0.47036 0.39284 0.0
H2294 H 0.24799 0.46197 0.3829 0.0
H2295 H 0.23727 0.48093 0.38784 0.0
H2296 H 0.2065 0.44692 0.36076 0.0
H2297 H 0.18249 0.49277 0.37318 0.0
H2298 H 0.21437 0.42092 0.37801 0.0
H2299 H 0.23563 0.43328 0.37776 0.0
H2300 H 0.2251 0.426 0.36795 0.0
H2301 H 0.18425 0.47746 0.39354 0.0
H2302 H 0.18615 0.49829 0.38774 0.0
H2303 H 0.20625 0.4884 0.39272 0.0
C2304 C 0.04791 0.0497 0.3034 0.0
C2305 C 0.05827 0.03984 0.30934 0.0
C2306 C 0.02845 0.04957 0.30356 0.0
C2307 C 0.01907 0.03933 0.30981 0.0
C2308 C 0.02941 0.02947 0.31587 0.0
C2309 C 0.04889 0.02985 0.31557 0.0
C2310 C 0.01793 0.06032 0.297 0.0
C2311 C 0.01991 0.01838 0.32262 0.0
C2312 C 0.96875 0.05149 0.31423 0.0
C2313 C 0.95921 0.03873 0.30932 0.0
C2314 C 0.98822 0.05165 0.31457 0.0
C2315 C 0.99841 0.03875 0.30988 0.0
C2316 C 0.98887 0.02565 0.30504 0.0
C2317 C 0.96941 0.02579 0.30481 0.0
C2318 C 0.99789 0.06585 0.31981 0.0
C2319 C 0.99923 0.01162 0.29998 0.0
H2320 H 0.05505 0.05768 0.29866 0.0
H2321 H 0.05678 0.02205 0.32012 0.0
H2322 H 0.00902 0.05124 0.29318 0.0
H2323 H 0.00867 0.07013 0.30019 0.0
H2324 H 0.0273 0.06775 0.29264 0.0
H2325 H 0.02994 0.01182 0.32699 0.0
H2326 H 0.01047 0.02699 0.32642 0.0
H2327 H 0.01128 1.00781 0.3196 0.0
H2328 H 0.961 0.06165 0.31765 0.0
H2329 H 0.96214 0.01572 0.30111 0.0
H2330 H 1.00637 0.07458 0.31561 0.0
H2331 H 1.00748 0.05944 0.32441 0.0
H2332 H 0.98796 0.07444 0.32336 0.0
H2333 H 1.00799 0.01826 0.29511 0.0
H2334 H 0.98975 1.00203 0.29675 0.0
H2335 H 0.00864 1.00392 0.30421 0.0
C2336 C 0.28043 0.79526 0.55177 0.0
C2337 C 0.26627 0.80498 0.55581 0.0
C2338 C 0.28067 0.77637 0.55191 0.0
C2339 C 0.26637 0.76693 0.55618 0.0
C2340 C 0.25216 0.77664 0.56035 0.0
C2341 C 0.25229 0.79553 0.56012 0.0
C2342 C 0.29611 0.7665 0.54742 0.0
C2343 C 0.23664 0.76708 0.56495 0.0
C2344 C 0.25626 0.71884 0.54937 0.0
C2345 C 0.26505 0.70884 0.55576 0.0
C2346 C 0.2566 0.73773 0.54943 0.0
C2347 C 0.26596 0.74688 0.55605 0.0
C2348 C 0.27485 0.73688 0.56254 0.0
C2349 C 0.27428 0.71799 0.56232 0.0
C2350 C 0.24688 0.74789 0.54242 0.0
C2351 C 0.28502 0.74615 0.56969 0.0
H2352 H 0.29142 0.80246 0.54852 0.0
H2353 H 0.24117 0.80292 0.56317 0.0
H2354 H 0.30333 0.75742 0.55193 0.0
H2355 H 0.29028 0.75798 0.54229 0.0
H2356 H 0.30646 0.77582 0.54459 0.0
H2357 H 0.22697 0.7766 0.5681 0.0
H2358 H 0.22865 0.75874 0.56039 0.0
H2359 H 0.24242 0.75787 0.56982 0.0
H2360 H 0.24886 0.7119 0.54436 0.0
H2361 H 0.28128 0.71036 0.56723 0.0
H2362 H 0.25692 0.75665 0.53905 0.0
H2363 H 0.23604 0.75675 0.54516 0.0
H2364 H 0.24027 0.73876 0.53772 0.0
H2365 H 0.29626 0.75471 0.56708 0.0
H2366 H 0.29117 0.73645 0.57425 0.0
H2367 H 0.27539 0.75513 0.57319 0.0
C2368 C 0.46868 0.99384 0.80525 0.0
C2369 C 0.45851 0.98079 0.8097 0.0
C2370 C 0.48815 0.99393 0.80542 0.0
C2371 C 0.49772 0.98064 0.81014 0.0
C2372 C 0.48754 0.9676 0.81476 0.0
C2373 C 0.46807 0.96784 0.81449 0.0
C2374 C 0.4985 1.00811 0.80045 0.0
C2375 C 0.49722 0.95319 0.81985 0.0
C2376 C 0.54709 0.96965 0.80348 0.0
C2377 C 0.55757 0.97918 0.80949 0.0
C2378 C 0.52763 0.96994 0.80365 0.0
C2379 C 0.51837 0.98 0.81 0.0
C2380 C 0.52884 0.98956 0.81613 0.0
C2381 C 0.54831 0.98903 0.8158 0.0
C2382 C 0.51697 0.95949 0.79703 0.0
C2383 C 0.51947 1.00048 0.82298 0.0
H2384 H 0.4614 1.00405 0.80165 0.0
H2385 H 0.46032 0.95759 0.81786 0.0
H2386 H 0.508 0.01563 0.80471 0.0
H2387 H 0.50715 1.00162 0.79549 0.0
H2388 H 0.48901 0.01785 0.79733 0.0
H2389 H 0.48731 0.94448 0.82336 0.0
H2390 H 0.50562 0.9446 0.81556 0.0
H2391 H 0.50689 0.9594 0.82448 0.0
H2392 H 0.55412 0.96177 0.79867 0.0
H2393 H 0.5563 0.99659 0.82042 0.0
H2394 H 0.50804 0.96875 0.79332 0.0
H2395 H 0.50772 0.94957 0.80015 0.0
H2396 H 0.52626 0.95223 0.79256 0.0
H2397 H 0.51081 0.01114 0.82005 0.0
H2398 H 0.52959 1.0069 0.82735 0.0
H2399 H 0.51008 0.99176 0.82675 0.0
C2400 C 0.25969 0.22343 0.04906 0.0
C2401 C 0.25065 0.21315 0.05529 0.0
C2402 C 0.25958 0.2423 0.04936 0.0
C2403 C 0.25021 0.25118 0.05606 0.0
C2404 C 0.24103 0.24091 0.06237 0.0
C2405 C 0.24137 0.22204 0.06191 0.0
C2406 C 0.26959 0.25276 0.04253 0.0
C2407 C 0.23085 0.24988 0.0696 0.0
C2408 C 0.26446 0.2994 0.06087 0.0
C2409 C 0.25069 0.30927 0.05663 0.0
C2410 C 0.26433 0.2805 0.06084 0.0
C2411 C 0.25009 0.27121 0.05646 0.0
C2412 C 0.236 0.28108 0.05228 0.0
C2413 C 0.23648 0.29997 0.05241 0.0
C2414 C 0.27962 0.27047 0.06536 0.0
C2415 C 0.22051 0.27168 0.04758 0.0
H2416 H 0.26712 0.21668 0.044 0.0
H2417 H 0.23416 0.21421 0.06669 0.0
H2418 H 0.25976 0.26188 0.03925 0.0
H2419 H 0.28052 0.26128 0.04543 0.0
H2420 H 0.27613 0.24384 0.03773 0.0
H2421 H 0.22442 0.23998 0.07399 0.0
H2422 H 0.24053 0.25848 0.07327 0.0
H2423 H 0.21981 0.25877 0.06705 0.0
H2424 H 0.27561 0.30646 0.06406 0.0
H2425 H 0.22565 0.30749 0.04922 0.0
H2426 H 0.28761 0.26233 0.06072 0.0
H2427 H 0.27363 0.26102 0.07007 0.0
H2428 H 0.28935 0.27967 0.06869 0.0
H2429 H 0.22634 0.26342 0.04236 0.0
H2430 H 0.21035 0.2813 0.04485 0.0
H2431 H 0.21308 0.26241 0.05193 0.0
C2432 C 0.96734 0.98841 0.70467 0.0
C2433 C 0.95829 0.97837 0.71098 0.0
C2434 C 0.9868 0.98911 0.70426 0.0
C2435 C 0.99747 0.97951 0.71031 0.0
C2436 C 0.98841 0.96924 0.71664 0.0
C2437 C 0.96896 0.96879 0.7169 0.0
C2438 C 0.99595 1.00024 0.69742 0.0
C2439 C 0.99928 0.95875 0.72318 0.0
C2440 C 0.0478 0.96789 0.70561 0.0
C2441 C 0.05732 0.98082 0.71043 0.0
C2442 C 0.02833 0.9675 0.70539 0.0
C2443 C 0.01811 0.98035 0.7101 0.0
C2444 C 0.02763 0.99363 0.71485 0.0
C2445 C 0.0471 0.9937 0.71496 0.0
C2446 C 0.01869 0.9531 0.70026 0.0
C2447 C 0.01724 1.00762 0.71991 0.0
H2448 H 0.9592 0.996 0.70012 0.0
H2449 H 0.96208 0.96077 0.72171 0.0
H2450 H 1.00455 0.01094 0.70036 0.0
H2451 H 1.00537 0.99169 0.69358 0.0
H2452 H 0.9857 1.00663 0.69311 0.0
H2453 H 0.99014 0.95129 0.72764 0.0
H2454 H 0.00857 0.94899 0.71997 0.0
H2455 H 1.00818 0.96802 0.7269 0.0
H2456 H 0.05558 0.95777 0.70217 0.0
H2457 H 0.05436 1.00389 0.71859 0.0
H2458 H 0.00888 0.95933 0.6957 0.0
H2459 H 0.01045 0.94434 0.70454 0.0
H2460 H 0.02862 0.94458 0.69667 0.0
H2461 H 1.0076 0.01512 0.71572 0.0
H2462 H 0.02669 0.01738 0.72305 0.0
H2463 H 0.00874 1.00095 0.72487 0.0
C2464 C 0.26428 0.79594 0.96052 0.0
C2465 C 0.25004 0.80552 0.96458 0.0
C2466 C 0.26426 0.77706 0.96031 0.0
C2467 C 0.24964 0.76746 0.96426 0.0
C2468 C 0.2351 0.77703 0.96827 0.0
C2469 C 0.23548 0.79593 0.96839 0.0
C2470 C 0.28005 0.76736 0.95599 0.0
C2471 C 0.21922 0.7673 0.97251 0.0
C2472 C 0.24191 0.71857 0.95799 0.0
C2473 C 0.25062 0.70936 0.96468 0.0
C2474 C 0.24143 0.73746 0.95778 0.0
C2475 C 0.24986 0.74742 0.96441 0.0
C2476 C 0.25864 0.73822 0.97118 0.0
C2477 C 0.25892 0.71933 0.97123 0.0
C2478 C 0.23189 0.74678 0.95047 0.0
C2479 C 0.26786 0.74833 0.97835 0.0
H2480 H 0.2757 0.80323 0.95765 0.0
H2481 H 0.2243 0.80322 0.97143 0.0
H2482 H 0.2876 0.75897 0.96069 0.0
H2483 H 0.27459 0.75817 0.95104 0.0
H2484 H 0.29006 0.77678 0.953 0.0
H2485 H 0.20874 0.77671 0.97515 0.0
H2486 H 0.21227 0.75826 0.96789 0.0
H2487 H 0.22456 0.75876 0.97774 0.0
H2488 H 0.23527 0.71098 0.95296 0.0
H2489 H 0.26592 0.71235 0.97635 0.0
H2490 H 0.24186 0.75564 0.94711 0.0
H2491 H 0.22055 0.75546 0.95289 0.0
H2492 H 0.22597 0.7371 0.94582 0.0
H2493 H 0.27902 0.75707 0.9758 0.0
H2494 H 0.27395 0.73917 0.98317 0.0
H2495 H 0.25763 0.75721 0.98153 0.0
C2496 C 0.46816 0.02246 0.21417 0.0
C2497 C 0.45819 0.03621 0.21012 0.0
C2498 C 0.48762 0.0222 0.21405 0.0
C2499 C 0.49739 0.03603 0.20978 0.0
C2500 C 0.48742 0.04978 0.20555 0.0
C2501 C 0.46795 0.04971 0.20577 0.0
C2502 C 0.49775 1.00725 0.21859 0.0
C2503 C 0.49733 0.06479 0.20095 0.0
C2504 C 0.54679 0.04571 0.21686 0.0
C2505 C 0.55724 0.03699 0.21057 0.0
C2506 C 0.52733 0.04555 0.21665 0.0
C2507 C 0.51804 0.03645 0.20999 0.0
C2508 C 0.52849 0.02769 0.2036 0.0
C2509 C 0.54796 0.02807 0.20396 0.0
C2510 C 0.5167 0.05511 0.22357 0.0
C2511 C 0.51909 0.01783 0.1964 0.0
H2512 H 0.46071 0.01185 0.21743 0.0
H2513 H 0.46036 0.06049 0.20271 0.0
H2514 H 0.50723 1.00026 0.21413 0.0
H2515 H 0.5064 0.01294 0.22376 0.0
H2516 H 0.48811 0.99718 0.22137 0.0
H2517 H 0.48756 0.07406 0.19769 0.0
H2518 H 0.50577 0.07267 0.20552 0.0
H2519 H 0.50699 0.05914 0.19616 0.0
H2520 H 0.55384 0.05288 0.22191 0.0
H2521 H 0.55592 0.02113 0.19913 0.0
H2522 H 0.5076 0.04542 0.22695 0.0
H2523 H 0.50761 0.06556 0.22075 0.0
H2524 H 0.526 0.06162 0.22828 0.0
H2525 H 0.51026 1.00688 0.19897 0.0
H2526 H 0.5292 0.0119 0.19187 0.0
H2527 H 0.50986 0.02713 0.19287 0.0
C2528 C 0.25192 0.29824 0.45956 0.0
C2529 C 0.26633 0.30823 0.46325 0.0
C2530 C 0.25212 0.27934 0.45966 0.0
C2531 C 0.26709 0.27019 0.46356 0.0
C2532 C 0.28182 0.28018 0.46719 0.0
C2533 C 0.28125 0.29907 0.467 0.0
C2534 C 0.23613 0.26918 0.45574 0.0
C2535 C 0.29808 0.27092 0.47135 0.0
C2536 C 0.25872 0.22252 0.47144 0.0
C2537 C 0.26661 0.21215 0.46493 0.0
C2538 C 0.25886 0.24139 0.47109 0.0
C2539 C 0.26708 0.25016 0.46404 0.0
C2540 C 0.27513 0.2398 0.45746 0.0
C2541 C 0.2748 0.22093 0.45798 0.0
C2542 C 0.25007 0.25195 0.47822 0.0
C2543 C 0.28409 0.24865 0.44987 0.0
H2544 H 0.24024 0.3052 0.45674 0.0
H2545 H 0.29256 0.30669 0.46976 0.0
H2546 H 0.24133 0.25966 0.45087 0.0
H2547 H 0.22899 0.2611 0.46069 0.0
H2548 H 0.22583 0.27828 0.45273 0.0
H2549 H 0.30866 0.28062 0.47367 0.0
H2550 H 0.29319 0.26276 0.47681 0.0
H2551 H 0.30477 0.26158 0.46679 0.0
H2552 H 0.25212 0.21585 0.47677 0.0
H2553 H 0.28113 0.21304 0.45298 0.0
H2554 H 0.23863 0.26037 0.4757 0.0
H2555 H 0.26042 0.26118 0.48109 0.0
H2556 H 0.24443 0.24311 0.48329 0.0
H2557 H 0.27379 0.25713 0.4465 0.0
H2558 H 0.28982 0.23869 0.44531 0.0
H2559 H 0.29546 0.25765 0.45198 0.0
C2560 C 0.76389 0.22284 0.45958 0.0
C2561 C 0.74991 0.21329 0.46385 0.0
C2562 C 0.76392 0.24173 0.45939 0.0
C2563 C 0.74963 0.25134 0.46356 0.0
C2564 C 0.73534 0.2418 0.46778 0.0
C2565 C 0.73567 0.2229 0.46788 0.0
C2566 C 0.77945 0.2514 0.45485 0.0
C2567 C 0.71979 0.25155 0.47225 0.0
C2568 C 0.75952 0.29942 0.47045 0.0
C2569 C 0.75082 0.30943 0.46404 0.0
C2570 C 0.7592 0.28053 0.47038 0.0
C2571 C 0.74994 0.27139 0.46372 0.0
C2572 C 0.74112 0.2814 0.45722 0.0
C2573 C 0.74168 0.30029 0.45745 0.0
C2574 C 0.76886 0.27036 0.4774 0.0
C2575 C 0.73105 0.27214 0.45004 0.0
H2576 H 0.77506 0.21553 0.45654 0.0
H2577 H 0.72469 0.21562 0.47109 0.0
H2578 H 0.77369 0.26063 0.44999 0.0
H2579 H 0.78735 0.25975 0.45944 0.0
H2580 H 0.78921 0.24196 0.45171 0.0
H2581 H 0.70945 0.24216 0.47502 0.0
H2582 H 0.72553 0.26004 0.47742 0.0
H2583 H 0.71259 0.26065 0.46774 0.0
H2584 H 0.76685 0.30636 0.47549 0.0
H2585 H 0.73474 0.30793 0.45253 0.0
H2586 H 0.77979 0.26158 0.47468 0.0
H2587 H 0.75882 0.26151 0.48073 0.0
H2588 H 0.77534 0.27948 0.48214 0.0
H2589 H 0.74076 0.26327 0.44653 0.0
H2590 H 0.72486 0.28186 0.44549 0.0
H2591 H 0.71985 0.26348 0.45261 0.0
C2592 C 0.78265 0.71787 0.96738 0.0
C2593 C 0.76807 0.70861 0.96341 0.0
C2594 C 0.78309 0.73676 0.96757 0.0
C2595 C 0.76857 0.74666 0.96372 0.0
C2596 C 0.75395 0.7374 0.9596 0.0
C2597 C 0.75388 0.71851 0.95949 0.0
C2598 C 0.79898 0.74613 0.97198 0.0
C2599 C 0.73819 0.74746 0.95544 0.0
C2600 C 0.75936 0.79428 0.97145 0.0
C2601 C 0.76764 0.80469 0.96505 0.0
C2602 C 0.75964 0.77541 0.97111 0.0
C2603 C 0.76841 0.76668 0.9642 0.0
C2604 C 0.77686 0.77709 0.95773 0.0
C2605 C 0.77637 0.79595 0.95824 0.0
C2606 C 0.7504 0.7648 0.97811 0.0
C2607 C 0.78641 0.76828 0.95028 0.0
H2608 H 0.79379 0.71033 0.97032 0.0
H2609 H 0.74245 0.71147 0.9565 0.0
H2610 H 0.80594 0.75552 0.96753 0.0
H2611 H 0.79365 0.75427 0.97736 0.0
H2612 H 0.80945 0.73651 0.97446 0.0
H2613 H 0.72817 0.73829 0.95228 0.0
H2614 H 0.73066 0.7555 0.96027 0.0
H2615 H 0.74369 0.757 0.95064 0.0
H2616 H 0.75236 0.80091 0.97667 0.0
H2617 H 0.783 0.80389 0.95332 0.0
H2618 H 0.76059 0.75566 0.98114 0.0
H2619 H 0.7392 0.75629 0.97542 0.0
H2620 H 0.74434 0.77362 0.98308 0.0
H2621 H 0.79769 0.75936 0.95257 0.0
H2622 H 0.79242 0.77828 0.94581 0.0
H2623 H 0.77642 0.75973 0.94676 0.0
C2624 C 0.78093 0.30054 0.05683 0.0
C2625 C 0.7638 0.3093 0.05602 0.0
C2626 C 0.78206 0.28167 0.05682 0.0
C2627 C 0.76564 0.27132 0.05608 0.0
C2628 C 0.74829 0.28011 0.05539 0.0
C2629 C 0.74759 0.29898 0.05533 0.0
C2630 C 0.80084 0.2728 0.05748 0.0
C2631 C 0.73044 0.26957 0.0547 0.0
C2632 C 0.76791 0.22326 0.04786 0.0
C2633 C 0.76673 0.21322 0.0554 0.0
C2634 C 0.76796 0.24215 0.04801 0.0
C2635 C 0.76657 0.25129 0.05587 0.0
C2636 C 0.76555 0.24128 0.06351 0.0
C2637 C 0.76575 0.2224 0.06318 0.0
C2638 C 0.76919 0.25234 0.03973 0.0
C2639 C 0.76399 0.25053 0.07202 0.0
H2640 H 0.79351 0.30847 0.05729 0.0
H2641 H 0.7343 0.3057 0.05482 0.0
H2642 H 0.80118 0.26359 0.06301 0.0
H2643 H 0.80345 0.26455 0.05173 0.0
H2644 H 0.81225 0.28275 0.05814 0.0
H2645 H 0.71806 0.27843 0.05442 0.0
H2646 H 0.7307 0.26107 0.04891 0.0
H2647 H 0.729 0.26041 0.06023 0.0
H2648 H 0.76841 0.21637 0.0418 0.0
H2649 H 0.76517 0.21481 0.06905 0.0
H2650 H 0.78094 0.26197 0.03993 0.0
H2651 H 0.75636 0.2603 0.03875 0.0
H2652 H 0.77109 0.24326 0.03419 0.0
H2653 H 0.77592 0.25973 0.07297 0.0
H2654 H 0.76355 0.24081 0.07738 0.0
H2655 H 0.75122 0.25884 0.0722 0.0
C2656 C 0.74178 0.79608 0.56224 0.0
C2657 C 0.75062 0.80485 0.55545 0.0
C2658 C 0.74131 0.77721 0.56273 0.0
C2659 C 0.7499 0.76683 0.5563 0.0
C2660 C 0.75881 0.77559 0.54944 0.0
C2661 C 0.75907 0.79446 0.5491 0.0
C2662 C 0.73162 0.76837 0.57014 0.0
C2663 C 0.76819 0.76502 0.54246 0.0
C2664 C 0.7643 0.71858 0.56088 0.0
C2665 C 0.75019 0.70875 0.55686 0.0
C2666 C 0.76422 0.73748 0.56087 0.0
C2667 C 0.74967 0.7468 0.55674 0.0
C2668 C 0.73522 0.73697 0.55279 0.0
C2669 C 0.73566 0.71808 0.55289 0.0
C2670 C 0.7799 0.74746 0.56514 0.0
C2671 C 0.71941 0.74641 0.54836 0.0
H2672 H 0.73503 0.80399 0.56712 0.0
H2673 H 0.76618 0.8011 0.54391 0.0
H2674 H 0.72034 0.75951 0.5678 0.0
H2675 H 0.74153 0.75974 0.57367 0.0
H2676 H 0.72561 0.77834 0.57461 0.0
H2677 H 0.77439 0.77385 0.53753 0.0
H2678 H 0.77929 0.75646 0.54519 0.0
H2679 H 0.75803 0.75591 0.53937 0.0
H2680 H 0.77569 0.71149 0.56387 0.0
H2681 H 0.72457 0.71059 0.54988 0.0
H2682 H 0.77432 0.757 0.56991 0.0
H2683 H 0.7876 0.75551 0.56036 0.0
H2684 H 0.7898 0.73824 0.56834 0.0
H2685 H 0.71242 0.75577 0.55281 0.0
H2686 H 0.70895 0.73683 0.54583 0.0
H2687 H 0.72485 0.75458 0.54301 0.0
C2688 C 0.54842 0.51944 0.81719 0.0
C2689 C 0.55765 0.5172 0.8094 0.0
C2690 C 0.52897 0.51915 0.81766 0.0
C2691 C 0.51843 0.51676 0.81015 0.0
C2692 C 0.52762 0.51434 0.80229 0.0
C2693 C 0.54708 0.51447 0.80202 0.0
C2694 C 0.51968 0.52165 0.82617 0.0
C2695 C 0.51688 0.51182 0.79414 0.0
C2696 C 0.468 0.50187 0.81145 0.0
C2697 C 0.4586 0.51826 0.81051 0.0
C2698 C 0.48748 0.5012 0.8115 0.0
C2699 C 0.49778 0.51728 0.81047 0.0
C2700 C 0.48834 0.53387 0.80955 0.0
C2701 C 0.46888 0.53417 0.80962 0.0
C2702 C 0.49703 0.48329 0.81262 0.0
C2703 C 0.49881 0.55129 0.80833 0.0
H2704 H 0.5564 0.5218 0.82291 0.0
H2705 H 0.55403 0.51238 0.796 0.0
H2706 H 0.51132 0.53417 0.82612 0.0
H2707 H 0.51003 0.51033 0.82743 0.0
H2708 H 0.52984 0.52246 0.83146 0.0
H2709 H 0.52611 0.50999 0.78856 0.0
H2710 H 0.50768 0.49991 0.79466 0.0
H2711 H 0.50789 0.52368 0.793 0.0
H2712 H 0.4601 0.48957 0.81223 0.0
H2713 H 0.46166 0.54684 0.80879 0.0
H2714 H 0.50657 0.48385 0.81814 0.0
H2715 H 0.50555 0.48023 0.80694 0.0
H2716 H 0.48702 0.47212 0.81361 0.0
H2717 H 0.50842 0.55352 0.81373 0.0
H2718 H 0.48941 0.56307 0.80782 0.0
H2719 H 0.50735 0.55052 0.80248 0.0
C2720 C 0.04819 0.50933 0.31656 0.0
C2721 C 0.05724 0.50077 0.30978 0.0
C2722 C 0.02873 0.50984 0.31702 0.0
C2723 C 0.01806 0.50158 0.31056 0.0
C2724 C 0.0271 0.49284 0.30373 0.0
C2725 C 0.04656 0.49254 0.30343 0.0
C2726 C 0.01959 0.51931 0.3244 0.0
C2727 C 0.01623 0.48381 0.29672 0.0
C2728 C 0.96791 0.48836 0.31474 0.0
C2729 C 0.95819 0.50215 0.31059 0.0
C2730 C 0.98739 0.48819 0.31492 0.0
C2731 C 0.99741 0.50214 0.31087 0.0
C2732 C 0.98768 0.51629 0.30682 0.0
C2733 C 0.96821 0.51612 0.30673 0.0
C2734 C 0.99725 0.47284 0.31929 0.0
C2735 C 0.99785 0.53147 0.30247 0.0
H2736 H 0.05633 0.5159 0.32145 0.0
H2737 H 0.05342 0.48564 0.29824 0.0
H2738 H 0.01083 0.5305 0.32202 0.0
H2739 H 0.01033 0.50986 0.32783 0.0
H2740 H 0.02985 0.52486 0.32896 0.0
H2741 H 0.02536 0.47753 0.29188 0.0
H2742 H 1.00709 0.47326 0.29944 0.0
H2743 H 1.00717 0.49378 0.29352 0.0
H2744 H 0.96029 0.47743 0.31766 0.0
H2745 H 0.9608 0.52696 0.30362 0.0
H2746 H 1.00707 0.47813 0.3241 0.0
H2747 H 1.0055 0.46516 0.31458 0.0
H2748 H 0.98746 0.46346 0.32247 0.0
H2749 H 1.00751 0.53806 0.30698 0.0
H2750 H 0.98826 0.5418 0.29989 0.0
H2751 H 1.00632 0.52607 0.29717 0.0
C2752 C 0.46844 0.50887 0.20373 0.0
C2753 C 0.45941 0.50009 0.21046 0.0
C2754 C 0.4879 0.5095 0.20329 0.0
C2755 C 0.49859 0.50113 0.20972 0.0
C2756 C 0.48956 0.49218 0.21649 0.0
C2757 C 0.47011 0.49176 0.21678 0.0
C2758 C 0.49702 0.51922 0.19598 0.0
C2759 C 0.50045 0.48302 0.22345 0.0
C2760 C 0.5488 0.4883 0.20548 0.0
C2761 C 0.55845 0.50203 0.20972 0.0
C2762 C 0.52932 0.48802 0.20529 0.0
C2763 C 0.51923 0.50181 0.20943 0.0
C2764 C 0.52889 0.5159 0.21356 0.0
C2765 C 0.54836 0.51583 0.21367 0.0
C2766 C 0.51955 0.47275 0.20083 0.0
C2767 C 0.51864 0.53091 0.218 0.0
H2768 H 0.46028 0.5155 0.19887 0.0
H2769 H 0.46325 0.48471 0.22192 0.0
H2770 H 0.50573 0.53038 0.19843 0.0
H2771 H 0.50632 0.50991 0.1925 0.0
H2772 H 0.48675 0.52484 0.19144 0.0
H2773 H 0.49133 0.47655 0.22825 0.0
H2774 H 0.50965 0.4726 0.22068 0.0
H2775 H 0.50945 0.49295 0.22672 0.0
H2776 H 0.55648 0.47749 0.2025 0.0
H2777 H 0.55572 0.52662 0.21684 0.0
H2778 H 0.50972 0.47811 0.19604 0.0
H2779 H 0.51131 0.4649 0.20549 0.0
H2780 H 0.52939 0.4635 0.19761 0.0
H2781 H 0.50896 0.53757 0.21352 0.0
H2782 H 0.52818 0.54122 0.22065 0.0
H2783 H 0.51018 0.52532 0.22327 0.0
C2784 C 0.96984 0.52894 0.70494 0.0
C2785 C 0.96017 0.51531 0.70924 0.0
C2786 C 0.98931 0.52911 0.70469 0.0
C2787 C 0.99938 0.51531 0.70883 0.0
C2788 C 0.98971 0.50129 0.71301 0.0
C2789 C 0.97023 0.50148 0.71317 0.0
C2790 C 0.99911 0.5443 0.70017 0.0
C2791 C 0.99993 0.48628 0.71746 0.0
C2792 C 0.05016 0.5081 0.70313 0.0
C2793 C 0.05922 0.51691 0.70984 0.0
C2794 C 0.0307 0.50751 0.70269 0.0
C2795 C 0.02003 0.51594 0.70911 0.0
C2796 C 0.02909 0.52495 0.71586 0.0
C2797 C 0.04854 0.52533 0.71614 0.0
C2798 C 0.02155 0.49774 0.6954 0.0
C2799 C 0.01823 0.53419 0.7228 0.0
H2800 H 0.96218 0.53979 0.70196 0.0
H2801 H 0.96286 0.49076 0.7164 0.0
H2802 H 1.00735 0.55221 0.70481 0.0
H2803 H 0.00894 0.53886 0.6954 0.0
H2804 H 0.98929 0.55351 0.69692 0.0
H2805 H 0.99037 0.47599 0.72011 0.0
H2806 H 0.0096 0.47959 0.71298 0.0
H2807 H 0.0084 0.49187 0.72272 0.0
H2808 H 0.0583 0.50141 0.69829 0.0
H2809 H 0.05542 0.53242 0.72127 0.0
H2810 H 0.01225 0.50704 0.69191 0.0
H2811 H 0.01282 0.48661 0.69787 0.0
H2812 H 0.0318 0.49207 0.69087 0.0
H2813 H 0.00905 0.54461 0.72001 0.0
H2814 H 0.02737 0.54068 0.72759 0.0
H2815 H 0.00921 0.5243 0.72609 0.0
loop_
_geom_bond_atom_site_label_1
_geom_bond_atom_site_label_2
_geom_bond_distance
_geom_bond_site_symmetry_2
_ccdc_geom_bond_type
C0 C1 1.264 . S
C0 C5 1.479 . S
C0 C10 1.465 . S
C1 C0 1.264 . S
C1 C3 1.339 . S
C1 H28 0.931 . S
C2 C3 1.395 . S
C2 C4 1.320 . S
C3 C1 1.339 . S
C3 C2 1.395 . S
C3 H29 0.929 . S
C4 C2 1.320 . S
C4 C5 1.405 . S
C4 H30 0.930 . S
C5 C0 1.479 . S
C5 C4 1.405 . S
C5 H31 0.931 . S
U6 O7 2.454 . S
U6 O8 2.458 . S
U6 C9 2.984 . S
U6 C10 2.847 . S
U6 C23 2.882 . S
U6 O24 2.441 . S
U6 O25 2.420 . S
U6 O26 2.455 . S
U6 O27 2.449 . S
O7 U6 2.454 . S
O7 C9 1.353 . S
O8 U6 2.458 . S
O8 C9 1.286 . S
C9 U6 2.984 . S
C9 O7 1.353 . S
C9 O8 1.286 . S
C9 C11 1.363 . S
C10 C0 1.465 . S
C10 U6 2.847 . S
C10 O24 1.249 . S
C10 O25 1.202 . S
C11 C9 1.363 . S
C11 C13 1.408 . S
C11 C16 1.342 . S
C12 C13 1.310 . S
C12 C15 1.461 . S
C12 H32 0.932 . S
C13 C11 1.408 . S
C13 C12 1.310 . S
C13 H33 0.930 . S
C14 C15 1.474 . S
C14 C16 1.285 . S
C14 H34 0.929 . S
C15 C12 1.461 . S
C15 C14 1.474 . S
C16 C11 1.342 . S
C16 C14 1.285 . S
C16 H35 0.930 . S
C17 C20 1.424 . S
C17 C22 1.245 . S
C17 C23 1.428 1_545 S
C18 C21 1.260 . S
C18 C22 1.477 . S
C18 H36 0.932 . S
C19 C20 1.384 . S
C19 C21 1.479 . S
C19 H37 0.929 . S
C20 C17 1.424 . S
C20 C19 1.384 . S
C20 H38 0.928 . S
C21 C18 1.260 . S
C21 C19 1.479 . S
C22 C17 1.245 . S
C22 C18 1.477 . S
C22 H39 0.932 . S
C23 U6 2.882 . S
C23 C17 1.428 1_565 S
C23 O26 1.301 . S
C23 O27 1.282 . S
O24 U6 2.441 . S
O24 C10 1.249 . S
O25 U6 2.420 . S
O25 C10 1.202 . S
O26 U6 2.455 . S
O26 C23 1.301 . S
O27 U6 2.449 . S
O27 C23 1.282 . S
H28 C1 0.931 . S
H29 C3 0.929 . S
H30 C4 0.930 . S
H31 C5 0.931 . S
H32 C12 0.932 . S
H33 C13 0.930 . S
H34 C14 0.929 . S
H35 C16 0.930 . S
H36 C18 0.932 . S
H37 C19 0.929 . S
H38 C20 0.928 . S
H39 C22 0.932 . S
C40 C41 1.264 . S
C40 C45 1.479 . S
C40 C50 1.465 . S
C41 C40 1.264 . S
C41 C43 1.339 . S
C41 H68 0.931 . S
C42 C43 1.395 . S
C42 C44 1.320 . S
C43 C41 1.339 . S
C43 C42 1.395 . S
C43 H69 0.929 . S
C44 C42 1.320 . S
C44 C45 1.405 . S
C44 H70 0.930 . S
C45 C40 1.479 . S
C45 C44 1.405 . S
C45 H71 0.931 . S
U46 O47 2.454 . S
U46 O48 2.458 . S
U46 C49 2.984 . S
U46 C50 2.847 . S
U46 C63 2.882 . S
U46 O64 2.441 . S
U46 O65 2.420 . S
U46 O66 2.455 . S
U46 O67 2.449 . S
O47 U46 2.454 . S
O47 C49 1.353 . S
O48 U46 2.458 . S
O48 C49 1.286 . S
C49 U46 2.984 . S
C49 O47 1.353 . S
C49 O48 1.286 . S
C49 C51 1.363 . S
C50 C40 1.465 . S
C50 U46 2.847 . S
C50 O64 1.249 . S
C50 O65 1.202 . S
C51 C49 1.363 . S
C51 C53 1.408 . S
C51 C56 1.342 . S
C52 C53 1.310 . S
C52 C55 1.461 . S
C52 H72 0.932 . S
C53 C51 1.408 . S
C53 C52 1.310 . S
C53 H73 0.930 . S
C54 C55 1.474 . S
C54 C56 1.285 . S
C54 H74 0.929 . S
C55 C52 1.461 . S
C55 C54 1.474 . S
C56 C51 1.342 . S
C56 C54 1.285 . S
C56 H75 0.930 . S
C57 C60 1.424 . S
C57 C62 1.245 . S
C57 C63 1.428 . S
C58 C61 1.260 . S
C58 C62 1.477 . S
C58 H76 0.932 . S
C59 C60 1.384 . S
C59 C61 1.479 . S
C59 H77 0.929 . S
C60 C57 1.424 . S
C60 C59 1.384 . S
C60 H78 0.928 . S
C61 C58 1.260 . S
C61 C59 1.479 . S
C62 C57 1.245 . S
C62 C58 1.477 . S
C62 H79 0.932 . S
C63 U46 2.882 . S
C63 C57 1.428 . S
C63 O66 1.301 . S
C63 O67 1.282 . S
O64 U46 2.441 . S
O64 C50 1.249 . S
O65 U46 2.420 . S
O65 C50 1.202 . S
O66 U46 2.455 . S
O66 C63 1.301 . S
O67 U46 2.449 . S
O67 C63 1.282 . S
H68 C41 0.931 . S
H69 C43 0.929 . S
H70 C44 0.930 . S
H71 C45 0.931 . S
H72 C52 0.932 . S
H73 C53 0.930 . S
H74 C54 0.929 . S
H75 C56 0.930 . S
H76 C58 0.932 . S
H77 C59 0.929 . S
H78 C60 0.928 . S
H79 C62 0.932 . S
C80 C81 1.264 . S
C80 C85 1.479 . S
C80 C90 1.465 . S
C81 C80 1.264 . S
C81 C83 1.339 . S
C81 H108 0.931 . S
C82 C83 1.395 . S
C82 C84 1.320 . S
C83 C81 1.339 . S
C83 C82 1.395 . S
C83 H109 0.929 . S
C84 C82 1.320 . S
C84 C85 1.405 . S
C84 H110 0.930 . S
C85 C80 1.479 . S
C85 C84 1.405 . S
C85 H111 0.931 . S
U86 O87 2.454 . S
U86 O88 2.458 . S
U86 C89 2.984 . S
U86 C90 2.847 . S
U86 C103 2.882 . S
U86 O104 2.441 . S
U86 O105 2.420 . S
U86 O106 2.455 . S
U86 O107 2.449 . S
O87 U86 2.454 . S
O87 C89 1.353 . S
O88 U86 2.458 . S
O88 C89 1.286 . S
C89 U86 2.984 . S
C89 O87 1.353 . S
C89 O88 1.286 . S
C89 C91 1.363 . S
C90 C80 1.465 . S
C90 U86 2.847 . S
C90 O104 1.249 . S
C90 O105 1.202 . S
C91 C89 1.363 . S
C91 C93 1.408 . S
C91 C96 1.342 . S
C92 C93 1.310 . S
C92 C95 1.461 . S
C92 H112 0.932 . S
C93 C91 1.408 . S
C93 C92 1.310 . S
C93 H113 0.930 . S
C94 C95 1.474 . S
C94 C96 1.285 . S
C94 H114 0.929 . S
C95 C92 1.461 . S
C95 C94 1.474 . S
C96 C91 1.342 . S
C96 C94 1.285 . S
C96 H115 0.930 . S
C97 C100 1.424 . S
C97 C102 1.245 . S
C97 C103 1.428 1_565 S
C98 C101 1.260 . S
C98 C102 1.477 . S
C98 H116 0.932 . S
C99 C100 1.384 . S
C99 C101 1.479 . S
C99 H117 0.929 . S
C100 C97 1.424 . S
C100 C99 1.384 . S
C100 H118 0.928 . S
C101 C98 1.260 . S
C101 C99 1.479 . S
C102 C97 1.245 . S
C102 C98 1.477 . S
C102 H119 0.932 . S
C103 U86 2.882 . S
C103 C97 1.428 1_545 S
C103 O106 1.301 . S
C103 O107 1.282 . S
O104 U86 2.441 . S
O104 C90 1.249 . S
O105 U86 2.420 . S
O105 C90 1.202 . S
O106 U86 2.455 . S
O106 C103 1.301 . S
O107 U86 2.449 . S
O107 C103 1.282 . S
H108 C81 0.931 . S
H109 C83 0.929 . S
H110 C84 0.930 . S
H111 C85 0.931 . S
H112 C92 0.932 . S
H113 C93 0.930 . S
H114 C94 0.929 . S
H115 C96 0.930 . S
H116 C98 0.932 . S
H117 C99 0.929 . S
H118 C100 0.928 . S
H119 C102 0.932 . S
C120 C121 1.264 . S
C120 C125 1.479 . S
C120 C130 1.465 . S
C121 C120 1.264 . S
C121 C123 1.339 . S
C121 H148 0.931 . S
C122 C123 1.395 . S
C122 C124 1.320 . S
C123 C121 1.339 . S
C123 C122 1.395 . S
C123 H149 0.929 . S
C124 C122 1.320 . S
C124 C125 1.405 . S
C124 H150 0.930 . S
C125 C120 1.479 . S
C125 C124 1.405 . S
C125 H151 0.931 . S
U126 O127 2.454 . S
U126 O128 2.458 . S
U126 C129 2.984 . S
U126 C130 2.847 . S
U126 C143 2.882 . S
U126 O144 2.441 . S
U126 O145 2.420 . S
U126 O146 2.455 . S
U126 O147 2.449 . S
O127 U126 2.454 . S
O127 C129 1.353 . S
O128 U126 2.458 . S
O128 C129 1.286 . S
C129 U126 2.984 . S
C129 O127 1.353 . S
C129 O128 1.286 . S
C129 C131 1.363 . S
C130 C120 1.465 . S
C130 U126 2.847 . S
C130 O144 1.249 . S
C130 O145 1.202 . S
C131 C129 1.363 . S
C131 C133 1.408 . S
C131 C136 1.342 . S
C132 C133 1.310 . S
C132 C135 1.461 . S
C132 H152 0.932 . S
C133 C131 1.408 . S
C133 C132 1.310 . S
C133 H153 0.930 . S
C134 C135 1.474 . S
C134 C136 1.285 . S
C134 H154 0.929 . S
C135 C132 1.461 . S
C135 C134 1.474 . S
C136 C131 1.342 . S
C136 C134 1.285 . S
C136 H155 0.930 . S
C137 C140 1.424 . S
C137 C142 1.245 . S
C137 C143 1.428 . S
C138 C141 1.260 . S
C138 C142 1.477 . S
C138 H156 0.932 . S
C139 C140 1.384 . S
C139 C141 1.479 . S
C139 H157 0.929 . S
C140 C137 1.424 . S
C140 C139 1.384 . S
C140 H158 0.928 . S
C141 C138 1.260 . S
C141 C139 1.479 . S
C142 C137 1.245 . S
C142 C138 1.477 . S
C142 H159 0.932 . S
C143 U126 2.882 . S
C143 C137 1.428 . S
C143 O146 1.301 . S
C143 O147 1.282 . S
O144 U126 2.441 . S
O144 C130 1.249 . S
O145 U126 2.420 . S
O145 C130 1.202 . S
O146 U126 2.455 . S
O146 C143 1.301 . S
O147 U126 2.449 . S
O147 C143 1.282 . S
H148 C121 0.931 . S
H149 C123 0.929 . S
H150 C124 0.930 . S
H151 C125 0.931 . S
H152 C132 0.932 . S
H153 C133 0.930 . S
H154 C134 0.929 . S
H155 C136 0.930 . S
H156 C138 0.932 . S
H157 C139 0.929 . S
H158 C140 0.928 . S
H159 C142 0.932 . S
C160 C161 1.264 . S
C160 C165 1.479 . S
C160 C170 1.465 . S
C161 C160 1.264 . S
C161 C163 1.339 . S
C161 H188 0.931 . S
C162 C163 1.395 . S
C162 C164 1.320 . S
C163 C161 1.339 . S
C163 C162 1.395 . S
C163 H189 0.929 . S
C164 C162 1.320 . S
C164 C165 1.405 . S
C164 H190 0.930 . S
C165 C160 1.479 . S
C165 C164 1.405 . S
C165 H191 0.931 . S
U166 O167 2.454 . S
U166 O168 2.458 . S
U166 C169 2.984 . S
U166 C170 2.847 . S
U166 C183 2.882 . S
U166 O184 2.441 . S
U166 O185 2.420 . S
U166 O186 2.455 . S
U166 O187 2.449 . S
O167 U166 2.454 . S
O167 C169 1.353 . S
O168 U166 2.458 . S
O168 C169 1.286 . S
C169 U166 2.984 . S
C169 O167 1.353 . S
C169 O168 1.286 . S
C169 C171 1.363 . S
C170 C160 1.465 . S
C170 U166 2.847 . S
C170 O184 1.249 . S
C170 O185 1.202 . S
C171 C169 1.363 . S
C171 C173 1.408 . S
C171 C176 1.342 . S
C172 C173 1.310 . S
C172 C175 1.461 . S
C172 H192 0.932 . S
C173 C171 1.408 . S
C173 C172 1.310 . S
C173 H193 0.930 . S
C174 C175 1.474 . S
C174 C176 1.285 . S
C174 H194 0.929 . S
C175 C172 1.461 . S
C175 C174 1.474 . S
C176 C171 1.342 . S
C176 C174 1.285 . S
C176 H195 0.930 . S
C177 C180 1.424 . S
C177 C182 1.245 . S
C177 C183 1.428 1_565 S
C178 C181 1.260 . S
C178 C182 1.477 . S
C178 H196 0.932 . S
C179 C180 1.384 . S
C179 C181 1.479 . S
C179 H197 0.929 . S
C180 C177 1.424 . S
C180 C179 1.384 . S
C180 H198 0.928 . S
C181 C178 1.260 . S
C181 C179 1.479 . S
C182 C177 1.245 . S
C182 C178 1.477 . S
C182 H199 0.932 . S
C183 U166 2.882 . S
C183 C177 1.428 1_545 S
C183 O186 1.301 . S
C183 O187 1.282 . S
O184 U166 2.441 . S
O184 C170 1.249 . S
O185 U166 2.420 . S
O185 C170 1.202 . S
O186 U166 2.455 . S
O186 C183 1.301 . S
O187 U166 2.449 . S
O187 C183 1.282 . S
H188 C161 0.931 . S
H189 C163 0.929 . S
H190 C164 0.930 . S
H191 C165 0.931 . S
H192 C172 0.932 . S
H193 C173 0.930 . S
H194 C174 0.929 . S
H195 C176 0.930 . S
H196 C178 0.932 . S
H197 C179 0.929 . S
H198 C180 0.928 . S
H199 C182 0.932 . S
C200 C201 1.264 . S
C200 C205 1.479 . S
C200 C210 1.465 . S
C201 C200 1.264 . S
C201 C203 1.339 . S
C201 H228 0.931 . S
C202 C203 1.395 . S
C202 C204 1.320 . S
C203 C201 1.339 . S
C203 C202 1.395 . S
C203 H229 0.929 . S
C204 C202 1.320 . S
C204 C205 1.405 . S
C204 H230 0.930 . S
C205 C200 1.479 . S
C205 C204 1.405 . S
C205 H231 0.931 . S
U206 O207 2.454 . S
U206 O208 2.458 . S
U206 C209 2.984 . S
U206 C210 2.847 . S
U206 C223 2.882 . S
U206 O224 2.441 . S
U206 O225 2.420 . S
U206 O226 2.455 . S
U206 O227 2.449 . S
O207 U206 2.454 . S
O207 C209 1.353 . S
O208 U206 2.458 . S
O208 C209 1.286 . S
C209 U206 2.984 . S
C209 O207 1.353 . S
C209 O208 1.286 . S
C209 C211 1.363 . S
C210 C200 1.465 . S
C210 U206 2.847 . S
C210 O224 1.249 . S
C210 O225 1.202 . S
C211 C209 1.363 . S
C211 C213 1.408 . S
C211 C216 1.342 . S
C212 C213 1.310 . S
C212 C215 1.461 . S
C212 H232 0.932 . S
C213 C211 1.408 . S
C213 C212 1.310 . S
C213 H233 0.930 . S
C214 C215 1.474 . S
C214 C216 1.285 . S
C214 H234 0.929 . S
C215 C212 1.461 . S
C215 C214 1.474 . S
C216 C211 1.342 . S
C216 C214 1.285 . S
C216 H235 0.930 . S
C217 C220 1.424 . S
C217 C222 1.245 . S
C217 C223 1.428 . S
C218 C221 1.260 . S
C218 C222 1.477 . S
C218 H236 0.932 . S
C219 C220 1.384 . S
C219 C221 1.479 . S
C219 H237 0.929 . S
C220 C217 1.424 . S
C220 C219 1.384 . S
C220 H238 0.928 . S
C221 C218 1.260 . S
C221 C219 1.479 . S
C222 C217 1.245 . S
C222 C218 1.477 . S
C222 H239 0.932 . S
C223 U206 2.882 . S
C223 C217 1.428 . S
C223 O226 1.301 . S
C223 O227 1.282 . S
O224 U206 2.441 . S
O224 C210 1.249 . S
O225 U206 2.420 . S
O225 C210 1.202 . S
O226 U206 2.455 . S
O226 C223 1.301 . S
O227 U206 2.449 . S
O227 C223 1.282 . S
H228 C201 0.931 . S
H229 C203 0.929 . S
H230 C204 0.930 . S
H231 C205 0.931 . S
H232 C212 0.932 . S
H233 C213 0.930 . S
H234 C214 0.929 . S
H235 C216 0.930 . S
H236 C218 0.932 . S
H237 C219 0.929 . S
H238 C220 0.928 . S
H239 C222 0.932 . S
C240 C241 1.264 . S
C240 C245 1.479 . S
C240 C250 1.465 . S
C241 C240 1.264 . S
C241 C243 1.339 . S
C241 H268 0.931 . S
C242 C243 1.395 . S
C242 C244 1.320 . S
C243 C241 1.339 . S
C243 C242 1.395 . S
C243 H269 0.929 . S
C244 C242 1.320 . S
C244 C245 1.405 . S
C244 H270 0.930 . S
C245 C240 1.479 . S
C245 C244 1.405 . S
C245 H271 0.931 . S
U246 O247 2.454 . S
U246 O248 2.458 . S
U246 C249 2.984 . S
U246 C250 2.847 . S
U246 C263 2.882 . S
U246 O264 2.441 . S
U246 O265 2.420 . S
U246 O266 2.455 . S
U246 O267 2.449 . S
O247 U246 2.454 . S
O247 C249 1.353 . S
O248 U246 2.458 . S
O248 C249 1.286 . S
C249 U246 2.984 . S
C249 O247 1.353 . S
C249 O248 1.286 . S
C249 C251 1.363 . S
C250 C240 1.465 . S
C250 U246 2.847 . S
C250 O264 1.249 . S
C250 O265 1.202 . S
C251 C249 1.363 . S
C251 C253 1.408 . S
C251 C256 1.342 . S
C252 C253 1.310 . S
C252 C255 1.461 . S
C252 H272 0.932 . S
C253 C251 1.408 . S
C253 C252 1.310 . S
C253 H273 0.930 . S
C254 C255 1.474 . S
C254 C256 1.285 . S
C254 H274 0.929 . S
C255 C252 1.461 . S
C255 C254 1.474 . S
C256 C251 1.342 . S
C256 C254 1.285 . S
C256 H275 0.930 . S
C257 C260 1.424 . S
C257 C262 1.245 . S
C257 C263 1.428 1_545 S
C258 C261 1.260 . S
C258 C262 1.477 . S
C258 H276 0.932 . S
C259 C260 1.384 . S
C259 C261 1.479 . S
C259 H277 0.929 . S
C260 C257 1.424 . S
C260 C259 1.384 . S
C260 H278 0.928 . S
C261 C258 1.260 . S
C261 C259 1.479 . S
C262 C257 1.245 . S
C262 C258 1.477 . S
C262 H279 0.932 . S
C263 U246 2.882 . S
C263 C257 1.428 1_565 S
C263 O266 1.301 . S
C263 O267 1.282 . S
O264 U246 2.441 . S
O264 C250 1.249 . S
O265 U246 2.420 . S
O265 C250 1.202 . S
O266 U246 2.455 . S
O266 C263 1.301 . S
O267 U246 2.449 . S
O267 C263 1.282 . S
H268 C241 0.931 . S
H269 C243 0.929 . S
H270 C244 0.930 . S
H271 C245 0.931 . S
H272 C252 0.932 . S
H273 C253 0.930 . S
H274 C254 0.929 . S
H275 C256 0.930 . S
H276 C258 0.932 . S
H277 C259 0.929 . S
H278 C260 0.928 . S
H279 C262 0.932 . S
C280 C281 1.264 . S
C280 C285 1.479 . S
C280 C290 1.465 . S
C281 C280 1.264 . S
C281 C283 1.339 . S
C281 H308 0.931 . S
C282 C283 1.395 . S
C282 C284 1.320 . S
C283 C281 1.339 . S
C283 C282 1.395 . S
C283 H309 0.929 . S
C284 C282 1.320 . S
C284 C285 1.405 . S
C284 H310 0.930 . S
C285 C280 1.479 . S
C285 C284 1.405 . S
C285 H311 0.931 . S
U286 O287 2.454 . S
U286 O288 2.458 . S
U286 C289 2.984 . S
U286 C290 2.847 . S
U286 C303 2.882 . S
U286 O304 2.441 . S
U286 O305 2.420 . S
U286 O306 2.455 . S
U286 O307 2.449 . S
O287 U286 2.454 . S
O287 C289 1.353 . S
O288 U286 2.458 . S
O288 C289 1.286 . S
C289 U286 2.984 . S
C289 O287 1.353 . S
C289 O288 1.286 . S
C289 C291 1.363 . S
C290 C280 1.465 . S
C290 U286 2.847 . S
C290 O304 1.249 . S
C290 O305 1.202 . S
C291 C289 1.363 . S
C291 C293 1.408 . S
C291 C296 1.342 . S
C292 C293 1.310 . S
C292 C295 1.461 . S
C292 H312 0.932 . S
C293 C291 1.408 . S
C293 C292 1.310 . S
C293 H313 0.930 . S
C294 C295 1.474 . S
C294 C296 1.285 . S
C294 H314 0.929 . S
C295 C292 1.461 . S
C295 C294 1.474 . S
C296 C291 1.342 . S
C296 C294 1.285 . S
C296 H315 0.930 . S
C297 C300 1.424 . S
C297 C302 1.245 . S
C297 C303 1.428 . S
C298 C301 1.260 . S
C298 C302 1.477 . S
C298 H316 0.932 . S
C299 C300 1.384 . S
C299 C301 1.479 . S
C299 H317 0.929 . S
C300 C297 1.424 . S
C300 C299 1.384 . S
C300 H318 0.928 . S
C301 C298 1.260 . S
C301 C299 1.479 . S
C302 C297 1.245 . S
C302 C298 1.477 . S
C302 H319 0.932 . S
C303 U286 2.882 . S
C303 C297 1.428 . S
C303 O306 1.301 . S
C303 O307 1.282 . S
O304 U286 2.441 . S
O304 C290 1.249 . S
O305 U286 2.420 . S
O305 C290 1.202 . S
O306 U286 2.455 . S
O306 C303 1.301 . S
O307 U286 2.449 . S
O307 C303 1.282 . S
H308 C281 0.931 . S
H309 C283 0.929 . S
H310 C284 0.930 . S
H311 C285 0.931 . S
H312 C292 0.932 . S
H313 C293 0.930 . S
H314 C294 0.929 . S
H315 C296 0.930 . S
H316 C298 0.932 . S
H317 C299 0.929 . S
H318 C300 0.928 . S
H319 C302 0.932 . S
C320 C321 1.264 . S
C320 C325 1.479 1_565 S
C320 C330 1.465 . S
C321 C320 1.264 . S
C321 C323 1.342 . S
C321 H348 0.931 . S
C322 C323 1.388 1_545 S
C322 C324 1.320 . S
C323 C321 1.342 . S
C323 C322 1.388 1_565 S
C323 H349 0.932 . S
C324 C322 1.320 . S
C324 C325 1.405 . S
C324 H350 0.930 . S
C325 C320 1.479 1_545 S
C325 C324 1.405 . S
C325 H351 0.931 . S
U326 O327 2.440 1_565 S
U326 O328 2.458 . S
U326 C329 2.998 . S
U326 C330 2.847 . S
U326 C343 2.882 . S
U326 O344 2.441 . S
U326 O345 2.420 . S
U326 O346 2.455 . S
U326 O347 2.449 . S
O327 U326 2.440 1_545 S
O327 C329 1.349 1_545 S
O328 U326 2.458 . S
O328 C329 1.300 . S
C329 U326 2.998 . S
C329 O327 1.349 1_565 S
C329 O328 1.300 . S
C329 C331 1.353 1_565 S
C330 C320 1.465 . S
C330 U326 2.847 . S
C330 O344 1.249 . S
C330 O345 1.202 . S
C331 C329 1.353 1_545 S
C331 C333 1.408 . S
C331 C336 1.342 . S
C332 C333 1.310 . S
C332 C335 1.461 . S
C332 H352 0.932 . S
C333 C331 1.408 . S
C333 C332 1.310 . S
C333 H353 0.930 . S
C334 C335 1.474 . S
C334 C336 1.285 . S
C334 H354 0.929 . S
C335 C332 1.461 . S
C335 C334 1.474 . S
C336 C331 1.342 . S
C336 C334 1.285 . S
C336 H355 0.937 . S
C337 C340 1.424 . S
C337 C342 1.245 . S
C337 C343 1.428 . S
C338 C341 1.260 . S
C338 C342 1.477 . S
C338 H356 0.932 . S
C339 C340 1.384 . S
C339 C341 1.479 . S
C339 H357 0.929 . S
C340 C337 1.424 . S
C340 C339 1.384 . S
C340 H358 0.928 . S
C341 C338 1.260 . S
C341 C339 1.479 . S
C342 C337 1.245 . S
C342 C338 1.477 . S
C342 H359 0.932 . S
C343 U326 2.882 . S
C343 C337 1.428 . S
C343 O346 1.301 . S
C343 O347 1.282 . S
O344 U326 2.441 . S
O344 C330 1.249 . S
O345 U326 2.420 . S
O345 C330 1.202 . S
O346 U326 2.455 . S
O346 C343 1.301 . S
O347 U326 2.449 . S
O347 C343 1.282 . S
H348 C321 0.931 . S
H349 C323 0.932 . S
H350 C324 0.930 . S
H351 C325 0.931 . S
H352 C332 0.932 . S
H353 C333 0.930 . S
H354 C334 0.929 . S
H355 C336 0.937 . S
H356 C338 0.932 . S
H357 C339 0.929 . S
H358 C340 0.928 . S
H359 C342 0.932 . S
C360 C361 1.264 . S
C360 C365 1.479 . S
C360 C370 1.465 . S
C361 C360 1.264 . S
C361 C363 1.339 . S
C361 H388 0.931 . S
C362 C363 1.395 . S
C362 C364 1.320 . S
C363 C361 1.339 . S
C363 C362 1.395 . S
C363 H389 0.929 . S
C364 C362 1.320 . S
C364 C365 1.405 . S
C364 H390 0.930 . S
C365 C360 1.479 . S
C365 C364 1.405 . S
C365 H391 0.931 . S
U366 O367 2.454 . S
U366 O368 2.458 . S
U366 C369 2.984 . S
U366 C370 2.847 . S
U366 C383 2.882 . S
U366 O384 2.441 . S
U366 O385 2.420 . S
U366 O386 2.455 . S
U366 O387 2.449 . S
O367 U366 2.454 . S
O367 C369 1.353 . S
O368 U366 2.458 . S
O368 C369 1.286 . S
C369 U366 2.984 . S
C369 O367 1.353 . S
C369 O368 1.286 . S
C369 C371 1.363 . S
C370 C360 1.465 . S
C370 U366 2.847 . S
C370 O384 1.249 . S
C370 O385 1.202 . S
C371 C369 1.363 . S
C371 C373 1.408 . S
C371 C376 1.342 . S
C372 C373 1.310 . S
C372 C375 1.461 . S
C372 H392 0.932 . S
C373 C371 1.408 . S
C373 C372 1.310 . S
C373 H393 0.930 . S
C374 C375 1.474 . S
C374 C376 1.285 . S
C374 H394 0.929 . S
C375 C372 1.461 . S
C375 C374 1.474 . S
C376 C371 1.342 . S
C376 C374 1.285 . S
C376 H395 0.930 . S
C377 C380 1.424 . S
C377 C382 1.245 . S
C377 C383 1.428 . S
C378 C381 1.260 . S
C378 C382 1.477 . S
C378 H396 0.932 . S
C379 C380 1.384 . S
C379 C381 1.479 . S
C379 H397 0.929 . S
C380 C377 1.424 . S
C380 C379 1.384 . S
C380 H398 0.928 . S
C381 C378 1.260 . S
C381 C379 1.479 . S
C382 C377 1.245 . S
C382 C378 1.477 . S
C382 H399 0.932 . S
C383 U366 2.882 . S
C383 C377 1.428 . S
C383 O386 1.301 . S
C383 O387 1.282 . S
O384 U366 2.441 . S
O384 C370 1.249 . S
O385 U366 2.420 . S
O385 C370 1.202 . S
O386 U366 2.455 . S
O386 C383 1.301 . S
O387 U366 2.449 . S
O387 C383 1.282 . S
H388 C361 0.931 . S
H389 C363 0.929 . S
H390 C364 0.930 . S
H391 C365 0.931 . S
H392 C372 0.932 . S
H393 C373 0.930 . S
H394 C374 0.929 . S
H395 C376 0.930 . S
H396 C378 0.932 . S
H397 C379 0.929 . S
H398 C380 0.928 . S
H399 C382 0.932 . S
C400 C401 1.264 . S
C400 C405 1.479 1_545 S
C400 C410 1.465 . S
C401 C400 1.264 . S
C401 C403 1.342 . S
C401 H428 0.931 . S
C402 C403 1.388 1_565 S
C402 C404 1.320 . S
C403 C401 1.342 . S
C403 C402 1.388 1_545 S
C403 H429 0.932 . S
C404 C402 1.320 . S
C404 C405 1.405 . S
C404 H430 0.930 . S
C405 C400 1.479 1_565 S
C405 C404 1.405 . S
C405 H431 0.931 . S
U406 O407 2.440 1_545 S
U406 O408 2.458 . S
U406 C409 2.998 . S
U406 C410 2.847 . S
U406 C423 2.882 . S
U406 O424 2.441 . S
U406 O425 2.420 . S
U406 O426 2.455 . S
U406 O427 2.449 . S
O407 U406 2.440 1_565 S
O407 C409 1.349 1_565 S
O408 U406 2.458 . S
O408 C409 1.300 . S
C409 U406 2.998 . S
C409 O407 1.349 1_545 S
C409 O408 1.300 . S
C409 C411 1.353 1_545 S
C410 C400 1.465 . S
C410 U406 2.847 . S
C410 O424 1.249 . S
C410 O425 1.202 . S
C411 C409 1.353 1_565 S
C411 C413 1.408 . S
C411 C416 1.342 . S
C412 C413 1.310 . S
C412 C415 1.461 . S
C412 H432 0.932 . S
C413 C411 1.408 . S
C413 C412 1.310 . S
C413 H433 0.930 . S
C414 C415 1.474 . S
C414 C416 1.285 . S
C414 H434 0.929 . S
C415 C412 1.461 . S
C415 C414 1.474 . S
C416 C411 1.342 . S
C416 C414 1.285 . S
C416 H435 0.937 . S
C417 C420 1.424 . S
C417 C422 1.245 . S
C417 C423 1.428 . S
C418 C421 1.260 . S
C418 C422 1.477 . S
C418 H436 0.932 . S
C419 C420 1.384 . S
C419 C421 1.479 . S
C419 H437 0.929 . S
C420 C417 1.424 . S
C420 C419 1.384 . S
C420 H438 0.928 . S
C421 C418 1.260 . S
C421 C419 1.479 . S
C422 C417 1.245 . S
C422 C418 1.477 . S
C422 H439 0.932 . S
C423 U406 2.882 . S
C423 C417 1.428 . S
C423 O426 1.301 . S
C423 O427 1.282 . S
O424 U406 2.441 . S
O424 C410 1.249 . S
O425 U406 2.420 . S
O425 C410 1.202 . S
O426 U406 2.455 . S
O426 C423 1.301 . S
O427 U406 2.449 . S
O427 C423 1.282 . S
H428 C401 0.931 . S
H429 C403 0.932 . S
H430 C404 0.930 . S
H431 C405 0.931 . S
H432 C412 0.932 . S
H433 C413 0.930 . S
H434 C414 0.929 . S
H435 C416 0.937 . S
H436 C418 0.932 . S
H437 C419 0.929 . S
H438 C420 0.928 . S
H439 C422 0.932 . S
C440 C441 1.264 . S
C440 C445 1.479 . S
C440 C450 1.465 . S
C441 C440 1.264 . S
C441 C443 1.339 . S
C441 H468 0.931 . S
C442 C443 1.395 . S
C442 C444 1.320 . S
C443 C441 1.339 . S
C443 C442 1.395 . S
C443 H469 0.929 . S
C444 C442 1.320 . S
C444 C445 1.405 . S
C444 H470 0.930 . S
C445 C440 1.479 . S
C445 C444 1.405 . S
C445 H471 0.931 . S
U446 O447 2.454 . S
U446 O448 2.458 . S
U446 C449 2.984 . S
U446 C450 2.847 . S
U446 C463 2.882 . S
U446 O464 2.441 . S
U446 O465 2.420 . S
U446 O466 2.455 . S
U446 O467 2.449 . S
O447 U446 2.454 . S
O447 C449 1.353 . S
O448 U446 2.458 . S
O448 C449 1.286 . S
C449 U446 2.984 . S
C449 O447 1.353 . S
C449 O448 1.286 . S
C449 C451 1.363 . S
C450 C440 1.465 . S
C450 U446 2.847 . S
C450 O464 1.249 . S
C450 O465 1.202 . S
C451 C449 1.363 . S
C451 C453 1.408 . S
C451 C456 1.342 . S
C452 C453 1.310 . S
C452 C455 1.461 . S
C452 H472 0.932 . S
C453 C451 1.408 . S
C453 C452 1.310 . S
C453 H473 0.930 . S
C454 C455 1.474 . S
C454 C456 1.285 . S
C454 H474 0.929 . S
C455 C452 1.461 . S
C455 C454 1.474 . S
C456 C451 1.342 . S
C456 C454 1.285 . S
C456 H475 0.930 . S
C457 C460 1.424 . S
C457 C462 1.245 . S
C457 C463 1.428 . S
C458 C461 1.260 . S
C458 C462 1.477 . S
C458 H476 0.932 . S
C459 C460 1.384 . S
C459 C461 1.479 . S
C459 H477 0.929 . S
C460 C457 1.424 . S
C460 C459 1.384 . S
C460 H478 0.928 . S
C461 C458 1.260 . S
C461 C459 1.479 . S
C462 C457 1.245 . S
C462 C458 1.477 . S
C462 H479 0.932 . S
C463 U446 2.882 . S
C463 C457 1.428 . S
C463 O466 1.301 . S
C463 O467 1.282 . S
O464 U446 2.441 . S
O464 C450 1.249 . S
O465 U446 2.420 . S
O465 C450 1.202 . S
O466 U446 2.455 . S
O466 C463 1.301 . S
O467 U446 2.449 . S
O467 C463 1.282 . S
H468 C441 0.931 . S
H469 C443 0.929 . S
H470 C444 0.930 . S
H471 C445 0.931 . S
H472 C452 0.932 . S
H473 C453 0.930 . S
H474 C454 0.929 . S
H475 C456 0.930 . S
H476 C458 0.932 . S
H477 C459 0.929 . S
H478 C460 0.928 . S
H479 C462 0.932 . S
C480 C481 1.264 . S
C480 C485 1.479 1_545 S
C480 C490 1.465 . S
C481 C480 1.264 . S
C481 C483 1.342 . S
C481 H508 0.931 . S
C482 C483 1.388 1_565 S
C482 C484 1.320 . S
C483 C481 1.342 . S
C483 C482 1.388 1_545 S
C483 H509 0.932 . S
C484 C482 1.320 . S
C484 C485 1.405 . S
C484 H510 0.930 . S
C485 C480 1.479 1_565 S
C485 C484 1.405 . S
C485 H511 0.931 . S
U486 O487 2.440 1_545 S
U486 O488 2.458 . S
U486 C489 2.998 . S
U486 C490 2.847 . S
U486 C503 2.882 . S
U486 O504 2.441 . S
U486 O505 2.420 . S
U486 O506 2.455 . S
U486 O507 2.449 . S
O487 U486 2.440 1_565 S
O487 C489 1.349 1_565 S
O488 U486 2.458 . S
O488 C489 1.300 . S
C489 U486 2.998 . S
C489 O487 1.349 1_545 S
C489 O488 1.300 . S
C489 C491 1.353 1_545 S
C490 C480 1.465 . S
C490 U486 2.847 . S
C490 O504 1.249 . S
C490 O505 1.202 . S
C491 C489 1.353 1_565 S
C491 C493 1.408 . S
C491 C496 1.342 . S
C492 C493 1.310 . S
C492 C495 1.461 . S
C492 H512 0.932 . S
C493 C491 1.408 . S
C493 C492 1.310 . S
C493 H513 0.930 . S
C494 C495 1.474 . S
C494 C496 1.285 . S
C494 H514 0.929 . S
C495 C492 1.461 . S
C495 C494 1.474 . S
C496 C491 1.342 . S
C496 C494 1.285 . S
C496 H515 0.937 . S
C497 C500 1.424 . S
C497 C502 1.245 . S
C497 C503 1.428 . S
C498 C501 1.260 . S
C498 C502 1.477 . S
C498 H516 0.932 . S
C499 C500 1.384 . S
C499 C501 1.479 . S
C499 H517 0.929 . S
C500 C497 1.424 . S
C500 C499 1.384 . S
C500 H518 0.928 . S
C501 C498 1.260 . S
C501 C499 1.479 . S
C502 C497 1.245 . S
C502 C498 1.477 . S
C502 H519 0.932 . S
C503 U486 2.882 . S
C503 C497 1.428 . S
C503 O506 1.301 . S
C503 O507 1.282 . S
O504 U486 2.441 . S
O504 C490 1.249 . S
O505 U486 2.420 . S
O505 C490 1.202 . S
O506 U486 2.455 . S
O506 C503 1.301 . S
O507 U486 2.449 . S
O507 C503 1.282 . S
H508 C481 0.931 . S
H509 C483 0.932 . S
H510 C484 0.930 . S
H511 C485 0.931 . S
H512 C492 0.932 . S
H513 C493 0.930 . S
H514 C494 0.929 . S
H515 C496 0.937 . S
H516 C498 0.932 . S
H517 C499 0.929 . S
H518 C500 0.928 . S
H519 C502 0.932 . S
C520 C521 1.264 . S
C520 C525 1.479 . S
C520 C530 1.465 . S
C521 C520 1.264 . S
C521 C523 1.339 . S
C521 H548 0.931 . S
C522 C523 1.395 . S
C522 C524 1.320 . S
C523 C521 1.339 . S
C523 C522 1.395 . S
C523 H549 0.929 . S
C524 C522 1.320 . S
C524 C525 1.405 . S
C524 H550 0.930 . S
C525 C520 1.479 . S
C525 C524 1.405 . S
C525 H551 0.931 . S
U526 O527 2.454 . S
U526 O528 2.458 . S
U526 C529 2.984 . S
U526 C530 2.847 . S
U526 C543 2.882 . S
U526 O544 2.441 . S
U526 O545 2.420 . S
U526 O546 2.455 . S
U526 O547 2.449 . S
O527 U526 2.454 . S
O527 C529 1.353 . S
O528 U526 2.458 . S
O528 C529 1.286 . S
C529 U526 2.984 . S
C529 O527 1.353 . S
C529 O528 1.286 . S
C529 C531 1.363 . S
C530 C520 1.465 . S
C530 U526 2.847 . S
C530 O544 1.249 . S
C530 O545 1.202 . S
C531 C529 1.363 . S
C531 C533 1.408 . S
C531 C536 1.342 . S
C532 C533 1.310 . S
C532 C535 1.461 . S
C532 H552 0.932 . S
C533 C531 1.408 . S
C533 C532 1.310 . S
C533 H553 0.930 . S
C534 C535 1.474 . S
C534 C536 1.285 . S
C534 H554 0.929 . S
C535 C532 1.461 . S
C535 C534 1.474 . S
C536 C531 1.342 . S
C536 C534 1.285 . S
C536 H555 0.930 . S
C537 C540 1.424 . S
C537 C542 1.245 . S
C537 C543 1.428 . S
C538 C541 1.260 . S
C538 C542 1.477 . S
C538 H556 0.932 . S
C539 C540 1.384 . S
C539 C541 1.479 . S
C539 H557 0.929 . S
C540 C537 1.424 . S
C540 C539 1.384 . S
C540 H558 0.928 . S
C541 C538 1.260 . S
C541 C539 1.479 . S
C542 C537 1.245 . S
C542 C538 1.477 . S
C542 H559 0.932 . S
C543 U526 2.882 . S
C543 C537 1.428 . S
C543 O546 1.301 . S
C543 O547 1.282 . S
O544 U526 2.441 . S
O544 C530 1.249 . S
O545 U526 2.420 . S
O545 C530 1.202 . S
O546 U526 2.455 . S
O546 C543 1.301 . S
O547 U526 2.449 . S
O547 C543 1.282 . S
H548 C521 0.931 . S
H549 C523 0.929 . S
H550 C524 0.930 . S
H551 C525 0.931 . S
H552 C532 0.932 . S
H553 C533 0.930 . S
H554 C534 0.929 . S
H555 C536 0.930 . S
H556 C538 0.932 . S
H557 C539 0.929 . S
H558 C540 0.928 . S
H559 C542 0.932 . S
C560 C561 1.264 . S
C560 C565 1.479 1_565 S
C560 C570 1.465 . S
C561 C560 1.264 . S
C561 C563 1.342 . S
C561 H588 0.931 . S
C562 C563 1.388 1_545 S
C562 C564 1.320 . S
C563 C561 1.342 . S
C563 C562 1.388 1_565 S
C563 H589 0.932 . S
C564 C562 1.320 . S
C564 C565 1.405 . S
C564 H590 0.930 . S
C565 C560 1.479 1_545 S
C565 C564 1.405 . S
C565 H591 0.931 . S
U566 O567 2.440 1_565 S
U566 O568 2.458 . S
U566 C569 2.998 . S
U566 C570 2.847 . S
U566 C583 2.882 . S
U566 O584 2.441 . S
U566 O585 2.420 . S
U566 O586 2.455 . S
U566 O587 2.449 . S
O567 U566 2.440 1_545 S
O567 C569 1.349 1_545 S
O568 U566 2.458 . S
O568 C569 1.300 . S
C569 U566 2.998 . S
C569 O567 1.349 1_565 S
C569 O568 1.300 . S
C569 C571 1.353 1_565 S
C570 C560 1.465 . S
C570 U566 2.847 . S
C570 O584 1.249 . S
C570 O585 1.202 . S
C571 C569 1.353 1_545 S
C571 C573 1.408 . S
C571 C576 1.342 . S
C572 C573 1.310 . S
C572 C575 1.461 . S
C572 H592 0.932 . S
C573 C571 1.408 . S
C573 C572 1.310 . S
C573 H593 0.930 . S
C574 C575 1.474 . S
C574 C576 1.285 . S
C574 H594 0.929 . S
C575 C572 1.461 . S
C575 C574 1.474 . S
C576 C571 1.342 . S
C576 C574 1.285 . S
C576 H595 0.937 . S
C577 C580 1.424 . S
C577 C582 1.245 . S
C577 C583 1.428 . S
C578 C581 1.260 . S
C578 C582 1.477 . S
C578 H596 0.932 . S
C579 C580 1.384 . S
C579 C581 1.479 . S
C579 H597 0.929 . S
C580 C577 1.424 . S
C580 C579 1.384 . S
C580 H598 0.928 . S
C581 C578 1.260 . S
C581 C579 1.479 . S
C582 C577 1.245 . S
C582 C578 1.477 . S
C582 H599 0.932 . S
C583 U566 2.882 . S
C583 C577 1.428 . S
C583 O586 1.301 . S
C583 O587 1.282 . S
O584 U566 2.441 . S
O584 C570 1.249 . S
O585 U566 2.420 . S
O585 C570 1.202 . S
O586 U566 2.455 . S
O586 C583 1.301 . S
O587 U566 2.449 . S
O587 C583 1.282 . S
H588 C561 0.931 . S
H589 C563 0.932 . S
H590 C564 0.930 . S
H591 C565 0.931 . S
H592 C572 0.932 . S
H593 C573 0.930 . S
H594 C574 0.929 . S
H595 C576 0.937 . S
H596 C578 0.932 . S
H597 C579 0.929 . S
H598 C580 0.928 . S
H599 C582 0.932 . S
C600 C601 1.264 . S
C600 C605 1.479 . S
C600 C610 1.465 . S
C601 C600 1.264 . S
C601 C603 1.339 . S
C601 H628 0.931 . S
C602 C603 1.395 . S
C602 C604 1.320 . S
C603 C601 1.339 . S
C603 C602 1.395 . S
C603 H629 0.929 . S
C604 C602 1.320 . S
C604 C605 1.405 . S
C604 H630 0.930 . S
C605 C600 1.479 . S
C605 C604 1.405 . S
C605 H631 0.931 . S
U606 O607 2.454 . S
U606 O608 2.458 . S
U606 C609 2.984 . S
U606 C610 2.847 . S
U606 C623 2.882 . S
U606 O624 2.441 . S
U606 O625 2.420 . S
U606 O626 2.455 . S
U606 O627 2.449 . S
O607 U606 2.454 . S
O607 C609 1.353 . S
O608 U606 2.458 . S
O608 C609 1.286 . S
C609 U606 2.984 . S
C609 O607 1.353 . S
C609 O608 1.286 . S
C609 C611 1.363 . S
C610 C600 1.465 . S
C610 U606 2.847 . S
C610 O624 1.249 . S
C610 O625 1.202 . S
C611 C609 1.363 . S
C611 C613 1.408 . S
C611 C616 1.342 . S
C612 C613 1.310 . S
C612 C615 1.461 . S
C612 H632 0.932 . S
C613 C611 1.408 . S
C613 C612 1.310 . S
C613 H633 0.930 . S
C614 C615 1.474 . S
C614 C616 1.285 . S
C614 H634 0.929 . S
C615 C612 1.461 . S
C615 C614 1.474 . S
C616 C611 1.342 . S
C616 C614 1.285 . S
C616 H635 0.930 . S
C617 C620 1.424 . S
C617 C622 1.245 . S
C617 C623 1.428 . S
C618 C621 1.260 . S
C618 C622 1.477 . S
C618 H636 0.932 . S
C619 C620 1.384 . S
C619 C621 1.479 . S
C619 H637 0.929 . S
C620 C617 1.424 . S
C620 C619 1.384 . S
C620 H638 0.928 . S
C621 C618 1.260 . S
C621 C619 1.479 . S
C622 C617 1.245 . S
C622 C618 1.477 . S
C622 H639 0.932 . S
C623 U606 2.882 . S
C623 C617 1.428 . S
C623 O626 1.301 . S
C623 O627 1.282 . S
O624 U606 2.441 . S
O624 C610 1.249 . S
O625 U606 2.420 . S
O625 C610 1.202 . S
O626 U606 2.455 . S
O626 C623 1.301 . S
O627 U606 2.449 . S
O627 C623 1.282 . S
H628 C601 0.931 . S
H629 C603 0.929 . S
H630 C604 0.930 . S
H631 C605 0.931 . S
H632 C612 0.932 . S
H633 C613 0.930 . S
H634 C614 0.929 . S
H635 C616 0.930 . S
H636 C618 0.932 . S
H637 C619 0.929 . S
H638 C620 0.928 . S
H639 C622 0.932 . S
C640 C641 1.264 . S
C640 C645 1.479 . S
C640 C650 1.465 . S
C641 C640 1.264 . S
C641 C643 1.339 . S
C641 H668 0.931 . S
C642 C643 1.395 . S
C642 C644 1.320 . S
C643 C641 1.339 . S
C643 C642 1.395 . S
C643 H669 0.929 . S
C644 C642 1.320 . S
C644 C645 1.405 . S
C644 H670 0.930 . S
C645 C640 1.479 . S
C645 C644 1.405 . S
C645 H671 0.931 . S
U646 O647 2.454 . S
U646 O648 2.458 . S
U646 C649 2.984 . S
U646 C650 2.847 . S
U646 C663 2.882 . S
U646 O664 2.441 . S
U646 O665 2.420 . S
U646 O666 2.455 . S
U646 O667 2.449 . S
O647 U646 2.454 . S
O647 C649 1.353 . S
O648 U646 2.458 . S
O648 C649 1.286 . S
C649 U646 2.984 . S
C649 O647 1.353 . S
C649 O648 1.286 . S
C649 C651 1.363 . S
C650 C640 1.465 . S
C650 U646 2.847 . S
C650 O664 1.249 . S
C650 O665 1.202 . S
C651 C649 1.363 . S
C651 C653 1.408 . S
C651 C656 1.342 . S
C652 C653 1.310 . S
C652 C655 1.461 . S
C652 H672 0.932 . S
C653 C651 1.408 . S
C653 C652 1.310 . S
C653 H673 0.930 . S
C654 C655 1.474 . S
C654 C656 1.285 . S
C654 H674 0.929 . S
C655 C652 1.461 . S
C655 C654 1.474 . S
C656 C651 1.342 . S
C656 C654 1.285 . S
C656 H675 0.930 . S
C657 C660 1.424 . S
C657 C662 1.245 . S
C657 C663 1.428 . S
C658 C661 1.260 . S
C658 C662 1.477 . S
C658 H676 0.932 . S
C659 C660 1.384 . S
C659 C661 1.479 . S
C659 H677 0.929 . S
C660 C657 1.424 . S
C660 C659 1.384 . S
C660 H678 0.928 . S
C661 C658 1.260 . S
C661 C659 1.479 . S
C662 C657 1.245 . S
C662 C658 1.477 . S
C662 H679 0.932 . S
C663 U646 2.882 . S
C663 C657 1.428 . S
C663 O666 1.301 . S
C663 O667 1.282 . S
O664 U646 2.441 . S
O664 C650 1.249 . S
O665 U646 2.420 . S
O665 C650 1.202 . S
O666 U646 2.455 . S
O666 C663 1.301 . S
O667 U646 2.449 . S
O667 C663 1.282 . S
H668 C641 0.931 . S
H669 C643 0.929 . S
H670 C644 0.930 . S
H671 C645 0.931 . S
H672 C652 0.932 . S
H673 C653 0.930 . S
H674 C654 0.929 . S
H675 C656 0.930 . S
H676 C658 0.932 . S
H677 C659 0.929 . S
H678 C660 0.928 . S
H679 C662 0.932 . S
C680 C681 1.264 . S
C680 C685 1.479 . S
C680 C690 1.465 . S
C681 C680 1.264 . S
C681 C683 1.339 . S
C681 H708 0.931 . S
C682 C683 1.395 . S
C682 C684 1.320 . S
C683 C681 1.339 . S
C683 C682 1.395 . S
C683 H709 0.929 . S
C684 C682 1.320 . S
C684 C685 1.405 . S
C684 H710 0.930 . S
C685 C680 1.479 . S
C685 C684 1.405 . S
C685 H711 0.931 . S
U686 O687 2.454 . S
U686 O688 2.458 . S
U686 C689 2.984 . S
U686 C690 2.847 . S
U686 C703 2.882 . S
U686 O704 2.441 . S
U686 O705 2.420 . S
U686 O706 2.455 . S
U686 O707 2.449 . S
O687 U686 2.454 . S
O687 C689 1.353 . S
O688 U686 2.458 . S
O688 C689 1.286 . S
C689 U686 2.984 . S
C689 O687 1.353 . S
C689 O688 1.286 . S
C689 C691 1.363 . S
C690 C680 1.465 . S
C690 U686 2.847 . S
C690 O704 1.249 . S
C690 O705 1.202 . S
C691 C689 1.363 . S
C691 C693 1.408 . S
C691 C696 1.342 . S
C692 C693 1.310 . S
C692 C695 1.461 . S
C692 H712 0.932 . S
C693 C691 1.408 . S
C693 C692 1.310 . S
C693 H713 0.930 . S
C694 C695 1.474 . S
C694 C696 1.285 . S
C694 H714 0.929 . S
C695 C692 1.461 . S
C695 C694 1.474 . S
C696 C691 1.342 . S
C696 C694 1.285 . S
C696 H715 0.930 . S
C697 C700 1.424 . S
C697 C702 1.245 . S
C697 C703 1.428 . S
C698 C701 1.260 . S
C698 C702 1.477 . S
C698 H716 0.932 . S
C699 C700 1.384 . S
C699 C701 1.479 . S
C699 H717 0.929 . S
C700 C697 1.424 . S
C700 C699 1.384 . S
C700 H718 0.928 . S
C701 C698 1.260 . S
C701 C699 1.479 . S
C702 C697 1.245 . S
C702 C698 1.477 . S
C702 H719 0.932 . S
C703 U686 2.882 . S
C703 C697 1.428 . S
C703 O706 1.301 . S
C703 O707 1.282 . S
O704 U686 2.441 . S
O704 C690 1.249 . S
O705 U686 2.420 . S
O705 C690 1.202 . S
O706 U686 2.455 . S
O706 C703 1.301 . S
O707 U686 2.449 . S
O707 C703 1.282 . S
H708 C681 0.931 . S
H709 C683 0.929 . S
H710 C684 0.930 . S
H711 C685 0.931 . S
H712 C692 0.932 . S
H713 C693 0.930 . S
H714 C694 0.929 . S
H715 C696 0.930 . S
H716 C698 0.932 . S
H717 C699 0.929 . S
H718 C700 0.928 . S
H719 C702 0.932 . S
C720 C721 1.264 . S
C720 C725 1.479 . S
C720 C730 1.465 . S
C721 C720 1.264 . S
C721 C723 1.339 . S
C721 H748 0.931 . S
C722 C723 1.395 . S
C722 C724 1.320 . S
C723 C721 1.339 . S
C723 C722 1.395 . S
C723 H749 0.929 . S
C724 C722 1.320 . S
C724 C725 1.405 . S
C724 H750 0.930 . S
C725 C720 1.479 . S
C725 C724 1.405 . S
C725 H751 0.931 . S
U726 O727 2.454 . S
U726 O728 2.458 . S
U726 C729 2.984 . S
U726 C730 2.847 . S
U726 C743 2.882 . S
U726 O744 2.441 . S
U726 O745 2.420 . S
U726 O746 2.455 . S
U726 O747 2.449 . S
O727 U726 2.454 . S
O727 C729 1.353 . S
O728 U726 2.458 . S
O728 C729 1.286 . S
C729 U726 2.984 . S
C729 O727 1.353 . S
C729 O728 1.286 . S
C729 C731 1.363 . S
C730 C720 1.465 . S
C730 U726 2.847 . S
C730 O744 1.249 . S
C730 O745 1.202 . S
C731 C729 1.363 . S
C731 C733 1.408 . S
C731 C736 1.342 . S
C732 C733 1.310 . S
C732 C735 1.461 . S
C732 H752 0.932 . S
C733 C731 1.408 . S
C733 C732 1.310 . S
C733 H753 0.930 . S
C734 C735 1.474 . S
C734 C736 1.285 . S
C734 H754 0.929 . S
C735 C732 1.461 . S
C735 C734 1.474 . S
C736 C731 1.342 . S
C736 C734 1.285 . S
C736 H755 0.930 . S
C737 C740 1.424 . S
C737 C742 1.245 . S
C737 C743 1.428 . S
C738 C741 1.260 . S
C738 C742 1.477 . S
C738 H756 0.932 . S
C739 C740 1.384 . S
C739 C741 1.479 . S
C739 H757 0.929 . S
C740 C737 1.424 . S
C740 C739 1.384 . S
C740 H758 0.928 . S
C741 C738 1.260 . S
C741 C739 1.479 . S
C742 C737 1.245 . S
C742 C738 1.477 . S
C742 H759 0.932 . S
C743 U726 2.882 . S
C743 C737 1.428 . S
C743 O746 1.301 . S
C743 O747 1.282 . S
O744 U726 2.441 . S
O744 C730 1.249 . S
O745 U726 2.420 . S
O745 C730 1.202 . S
O746 U726 2.455 . S
O746 C743 1.301 . S
O747 U726 2.449 . S
O747 C743 1.282 . S
H748 C721 0.931 . S
H749 C723 0.929 . S
H750 C724 0.930 . S
H751 C725 0.931 . S
H752 C732 0.932 . S
H753 C733 0.930 . S
H754 C734 0.929 . S
H755 C736 0.930 . S
H756 C738 0.932 . S
H757 C739 0.929 . S
H758 C740 0.928 . S
H759 C742 0.932 . S
C760 C761 1.264 . S
C760 C765 1.479 . S
C760 C770 1.465 . S
C761 C760 1.264 . S
C761 C763 1.339 . S
C761 H788 0.931 . S
C762 C763 1.395 . S
C762 C764 1.320 . S
C763 C761 1.339 . S
C763 C762 1.395 . S
C763 H789 0.929 . S
C764 C762 1.320 . S
C764 C765 1.405 . S
C764 H790 0.930 . S
C765 C760 1.479 . S
C765 C764 1.405 . S
C765 H791 0.931 . S
U766 O767 2.454 . S
U766 O768 2.458 . S
U766 C769 2.984 . S
U766 C770 2.847 . S
U766 C783 2.882 . S
U766 O784 2.441 . S
U766 O785 2.420 . S
U766 O786 2.455 . S
U766 O787 2.449 . S
O767 U766 2.454 . S
O767 C769 1.353 . S
O768 U766 2.458 . S
O768 C769 1.286 . S
C769 U766 2.984 . S
C769 O767 1.353 . S
C769 O768 1.286 . S
C769 C771 1.363 . S
C770 C760 1.465 . S
C770 U766 2.847 . S
C770 O784 1.249 . S
C770 O785 1.202 . S
C771 C769 1.363 . S
C771 C773 1.408 . S
C771 C776 1.342 . S
C772 C773 1.310 . S
C772 C775 1.461 . S
C772 H792 0.932 . S
C773 C771 1.408 . S
C773 C772 1.310 . S
C773 H793 0.930 . S
C774 C775 1.474 . S
C774 C776 1.285 . S
C774 H794 0.929 . S
C775 C772 1.461 . S
C775 C774 1.474 . S
C776 C771 1.342 . S
C776 C774 1.285 . S
C776 H795 0.930 . S
C777 C780 1.424 . S
C777 C782 1.245 . S
C777 C783 1.428 . S
C778 C781 1.260 . S
C778 C782 1.477 . S
C778 H796 0.932 . S
C779 C780 1.384 . S
C779 C781 1.479 . S
C779 H797 0.929 . S
C780 C777 1.424 . S
C780 C779 1.384 . S
C780 H798 0.928 . S
C781 C778 1.260 . S
C781 C779 1.479 . S
C782 C777 1.245 . S
C782 C778 1.477 . S
C782 H799 0.932 . S
C783 U766 2.882 . S
C783 C777 1.428 . S
C783 O786 1.301 . S
C783 O787 1.282 . S
O784 U766 2.441 . S
O784 C770 1.249 . S
O785 U766 2.420 . S
O785 C770 1.202 . S
O786 U766 2.455 . S
O786 C783 1.301 . S
O787 U766 2.449 . S
O787 C783 1.282 . S
H788 C761 0.931 . S
H789 C763 0.929 . S
H790 C764 0.930 . S
H791 C765 0.931 . S
H792 C772 0.932 . S
H793 C773 0.930 . S
H794 C774 0.929 . S
H795 C776 0.930 . S
H796 C778 0.932 . S
H797 C779 0.929 . S
H798 C780 0.928 . S
H799 C782 0.932 . S
C800 C801 1.264 . S
C800 C805 1.479 . S
C800 C810 1.465 . S
C801 C800 1.264 . S
C801 C803 1.339 . S
C801 H828 0.931 . S
C802 C803 1.395 . S
C802 C804 1.320 . S
C803 C801 1.339 . S
C803 C802 1.395 . S
C803 H829 0.929 . S
C804 C802 1.320 . S
C804 C805 1.405 . S
C804 H830 0.930 . S
C805 C800 1.479 . S
C805 C804 1.405 . S
C805 H831 0.931 . S
U806 O807 2.454 . S
U806 O808 2.458 . S
U806 C809 2.984 . S
U806 C810 2.847 . S
U806 C823 2.882 . S
U806 O824 2.441 . S
U806 O825 2.420 . S
U806 O826 2.455 . S
U806 O827 2.449 . S
O807 U806 2.454 . S
O807 C809 1.353 . S
O808 U806 2.458 . S
O808 C809 1.286 . S
C809 U806 2.984 . S
C809 O807 1.353 . S
C809 O808 1.286 . S
C809 C811 1.363 . S
C810 C800 1.465 . S
C810 U806 2.847 . S
C810 O824 1.249 . S
C810 O825 1.202 . S
C811 C809 1.363 . S
C811 C813 1.408 . S
C811 C816 1.342 . S
C812 C813 1.310 . S
C812 C815 1.461 . S
C812 H832 0.932 . S
C813 C811 1.408 . S
C813 C812 1.310 . S
C813 H833 0.930 . S
C814 C815 1.474 . S
C814 C816 1.285 . S
C814 H834 0.929 . S
C815 C812 1.461 . S
C815 C814 1.474 . S
C816 C811 1.342 . S
C816 C814 1.285 . S
C816 H835 0.930 . S
C817 C820 1.424 . S
C817 C822 1.245 . S
C817 C823 1.428 . S
C818 C821 1.260 . S
C818 C822 1.477 . S
C818 H836 0.932 . S
C819 C820 1.384 . S
C819 C821 1.479 . S
C819 H837 0.929 . S
C820 C817 1.424 . S
C820 C819 1.384 . S
C820 H838 0.928 . S
C821 C818 1.260 . S
C821 C819 1.479 . S
C822 C817 1.245 . S
C822 C818 1.477 . S
C822 H839 0.932 . S
C823 U806 2.882 . S
C823 C817 1.428 . S
C823 O826 1.301 . S
C823 O827 1.282 . S
O824 U806 2.441 . S
O824 C810 1.249 . S
O825 U806 2.420 . S
O825 C810 1.202 . S
O826 U806 2.455 . S
O826 C823 1.301 . S
O827 U806 2.449 . S
O827 C823 1.282 . S
H828 C801 0.931 . S
H829 C803 0.929 . S
H830 C804 0.930 . S
H831 C805 0.931 . S
H832 C812 0.932 . S
H833 C813 0.930 . S
H834 C814 0.929 . S
H835 C816 0.930 . S
H836 C818 0.932 . S
H837 C819 0.929 . S
H838 C820 0.928 . S
H839 C822 0.932 . S
C840 C841 1.264 . S
C840 C845 1.479 . S
C840 C850 1.465 . S
C841 C840 1.264 . S
C841 C843 1.339 . S
C841 H868 0.931 . S
C842 C843 1.395 . S
C842 C844 1.320 . S
C843 C841 1.339 . S
C843 C842 1.395 . S
C843 H869 0.929 . S
C844 C842 1.320 . S
C844 C845 1.405 . S
C844 H870 0.930 . S
C845 C840 1.479 . S
C845 C844 1.405 . S
C845 H871 0.931 . S
U846 O847 2.454 . S
U846 O848 2.458 . S
U846 C849 2.984 . S
U846 C850 2.847 . S
U846 C863 2.882 . S
U846 O864 2.441 . S
U846 O865 2.420 . S
U846 O866 2.455 . S
U846 O867 2.449 . S
O847 U846 2.454 . S
O847 C849 1.353 . S
O848 U846 2.458 . S
O848 C849 1.286 . S
C849 U846 2.984 . S
C849 O847 1.353 . S
C849 O848 1.286 . S
C849 C851 1.363 . S
C850 C840 1.465 . S
C850 U846 2.847 . S
C850 O864 1.249 . S
C850 O865 1.202 . S
C851 C849 1.363 . S
C851 C853 1.408 . S
C851 C856 1.342 . S
C852 C853 1.310 . S
C852 C855 1.461 . S
C852 H872 0.932 . S
C853 C851 1.408 . S
C853 C852 1.310 . S
C853 H873 0.930 . S
C854 C855 1.474 . S
C854 C856 1.285 . S
C854 H874 0.929 . S
C855 C852 1.461 . S
C855 C854 1.474 . S
C856 C851 1.342 . S
C856 C854 1.285 . S
C856 H875 0.930 . S
C857 C860 1.424 . S
C857 C862 1.245 . S
C857 C863 1.428 . S
C858 C861 1.260 . S
C858 C862 1.477 . S
C858 H876 0.932 . S
C859 C860 1.384 . S
C859 C861 1.479 . S
C859 H877 0.929 . S
C860 C857 1.424 . S
C860 C859 1.384 . S
C860 H878 0.928 . S
C861 C858 1.260 . S
C861 C859 1.479 . S
C862 C857 1.245 . S
C862 C858 1.477 . S
C862 H879 0.932 . S
C863 U846 2.882 . S
C863 C857 1.428 . S
C863 O866 1.301 . S
C863 O867 1.282 . S
O864 U846 2.441 . S
O864 C850 1.249 . S
O865 U846 2.420 . S
O865 C850 1.202 . S
O866 U846 2.455 . S
O866 C863 1.301 . S
O867 U846 2.449 . S
O867 C863 1.282 . S
H868 C841 0.931 . S
H869 C843 0.929 . S
H870 C844 0.930 . S
H871 C845 0.931 . S
H872 C852 0.932 . S
H873 C853 0.930 . S
H874 C854 0.929 . S
H875 C856 0.930 . S
H876 C858 0.932 . S
H877 C859 0.929 . S
H878 C860 0.928 . S
H879 C862 0.932 . S
C880 C881 1.264 . S
C880 C885 1.479 . S
C880 C890 1.465 . S
C881 C880 1.264 . S
C881 C883 1.339 . S
C881 H908 0.931 . S
C882 C883 1.395 . S
C882 C884 1.320 . S
C883 C881 1.339 . S
C883 C882 1.395 . S
C883 H909 0.929 . S
C884 C882 1.320 . S
C884 C885 1.405 . S
C884 H910 0.930 . S
C885 C880 1.479 . S
C885 C884 1.405 . S
C885 H911 0.931 . S
U886 O887 2.454 . S
U886 O888 2.458 . S
U886 C889 2.984 . S
U886 C890 2.847 . S
U886 C903 2.882 . S
U886 O904 2.441 . S
U886 O905 2.420 . S
U886 O906 2.455 . S
U886 O907 2.449 . S
O887 U886 2.454 . S
O887 C889 1.353 . S
O888 U886 2.458 . S
O888 C889 1.286 . S
C889 U886 2.984 . S
C889 O887 1.353 . S
C889 O888 1.286 . S
C889 C891 1.363 . S
C890 C880 1.465 . S
C890 U886 2.847 . S
C890 O904 1.249 . S
C890 O905 1.202 . S
C891 C889 1.363 . S
C891 C893 1.408 . S
C891 C896 1.342 . S
C892 C893 1.310 . S
C892 C895 1.461 . S
C892 H912 0.932 . S
C893 C891 1.408 . S
C893 C892 1.310 . S
C893 H913 0.930 . S
C894 C895 1.474 . S
C894 C896 1.285 . S
C894 H914 0.929 . S
C895 C892 1.461 . S
C895 C894 1.474 . S
C896 C891 1.342 . S
C896 C894 1.285 . S
C896 H915 0.930 . S
C897 C900 1.424 . S
C897 C902 1.245 . S
C897 C903 1.428 . S
C898 C901 1.260 . S
C898 C902 1.477 . S
C898 H916 0.932 . S
C899 C900 1.384 . S
C899 C901 1.479 . S
C899 H917 0.929 . S
C900 C897 1.424 . S
C900 C899 1.384 . S
C900 H918 0.928 . S
C901 C898 1.260 . S
C901 C899 1.479 . S
C902 C897 1.245 . S
C902 C898 1.477 . S
C902 H919 0.932 . S
C903 U886 2.882 . S
C903 C897 1.428 . S
C903 O906 1.301 . S
C903 O907 1.282 . S
O904 U886 2.441 . S
O904 C890 1.249 . S
O905 U886 2.420 . S
O905 C890 1.202 . S
O906 U886 2.455 . S
O906 C903 1.301 . S
O907 U886 2.449 . S
O907 C903 1.282 . S
H908 C881 0.931 . S
H909 C883 0.929 . S
H910 C884 0.930 . S
H911 C885 0.931 . S
H912 C892 0.932 . S
H913 C893 0.930 . S
H914 C894 0.929 . S
H915 C896 0.930 . S
H916 C898 0.932 . S
H917 C899 0.929 . S
H918 C900 0.928 . S
H919 C902 0.932 . S
C920 C921 1.264 . S
C920 C925 1.479 . S
C920 C930 1.465 . S
C921 C920 1.264 . S
C921 C923 1.339 . S
C921 H948 0.931 . S
C922 C923 1.395 . S
C922 C924 1.320 . S
C923 C921 1.339 . S
C923 C922 1.395 . S
C923 H949 0.929 . S
C924 C922 1.320 . S
C924 C925 1.405 . S
C924 H950 0.930 . S
C925 C920 1.479 . S
C925 C924 1.405 . S
C925 H951 0.931 . S
U926 O927 2.454 . S
U926 O928 2.458 . S
U926 C929 2.984 . S
U926 C930 2.847 . S
U926 C943 2.882 . S
U926 O944 2.441 . S
U926 O945 2.420 . S
U926 O946 2.455 . S
U926 O947 2.449 . S
O927 U926 2.454 . S
O927 C929 1.353 . S
O928 U926 2.458 . S
O928 C929 1.286 . S
C929 U926 2.984 . S
C929 O927 1.353 . S
C929 O928 1.286 . S
C929 C931 1.363 . S
C930 C920 1.465 . S
C930 U926 2.847 . S
C930 O944 1.249 . S
C930 O945 1.202 . S
C931 C929 1.363 . S
C931 C933 1.408 . S
C931 C936 1.342 . S
C932 C933 1.310 . S
C932 C935 1.461 . S
C932 H952 0.932 . S
C933 C931 1.408 . S
C933 C932 1.310 . S
C933 H953 0.930 . S
C934 C935 1.474 . S
C934 C936 1.285 . S
C934 H954 0.929 . S
C935 C932 1.461 . S
C935 C934 1.474 . S
C936 C931 1.342 . S
C936 C934 1.285 . S
C936 H955 0.930 . S
C937 C940 1.424 . S
C937 C942 1.245 . S
C937 C943 1.428 . S
C938 C941 1.260 . S
C938 C942 1.477 . S
C938 H956 0.932 . S
C939 C940 1.384 . S
C939 C941 1.479 . S
C939 H957 0.929 . S
C940 C937 1.424 . S
C940 C939 1.384 . S
C940 H958 0.928 . S
C941 C938 1.260 . S
C941 C939 1.479 . S
C942 C937 1.245 . S
C942 C938 1.477 . S
C942 H959 0.932 . S
C943 U926 2.882 . S
C943 C937 1.428 . S
C943 O946 1.301 . S
C943 O947 1.282 . S
O944 U926 2.441 . S
O944 C930 1.249 . S
O945 U926 2.420 . S
O945 C930 1.202 . S
O946 U926 2.455 . S
O946 C943 1.301 . S
O947 U926 2.449 . S
O947 C943 1.282 . S
H948 C921 0.931 . S
H949 C923 0.929 . S
H950 C924 0.930 . S
H951 C925 0.931 . S
H952 C932 0.932 . S
H953 C933 0.930 . S
H954 C934 0.929 . S
H955 C936 0.930 . S
H956 C938 0.932 . S
H957 C939 0.929 . S
H958 C940 0.928 . S
H959 C942 0.932 . S
C960 C961 1.264 . S
C960 C965 1.479 . S
C960 C970 1.465 . S
C961 C960 1.264 . S
C961 C963 1.339 . S
C961 H988 0.931 . S
C962 C963 1.395 . S
C962 C964 1.320 . S
C963 C961 1.339 . S
C963 C962 1.395 . S
C963 H989 0.929 . S
C964 C962 1.320 . S
C964 C965 1.405 . S
C964 H990 0.930 . S
C965 C960 1.479 . S
C965 C964 1.405 . S
C965 H991 0.931 . S
U966 O967 2.454 . S
U966 O968 2.458 . S
U966 C969 2.984 . S
U966 C970 2.847 . S
U966 C983 2.882 . S
U966 O984 2.441 . S
U966 O985 2.420 . S
U966 O986 2.455 . S
U966 O987 2.449 . S
O967 U966 2.454 . S
O967 C969 1.353 . S
O968 U966 2.458 . S
O968 C969 1.286 . S
C969 U966 2.984 . S
C969 O967 1.353 . S
C969 O968 1.286 . S
C969 C971 1.363 . S
C970 C960 1.465 . S
C970 U966 2.847 . S
C970 O984 1.249 . S
C970 O985 1.202 . S
C971 C969 1.363 . S
C971 C973 1.408 . S
C971 C976 1.342 . S
C972 C973 1.310 . S
C972 C975 1.461 . S
C972 H992 0.932 . S
C973 C971 1.408 . S
C973 C972 1.310 . S
C973 H993 0.930 . S
C974 C975 1.474 . S
C974 C976 1.285 . S
C974 H994 0.929 . S
C975 C972 1.461 . S
C975 C974 1.474 . S
C976 C971 1.342 . S
C976 C974 1.285 . S
C976 H995 0.930 . S
C977 C980 1.424 . S
C977 C982 1.245 . S
C977 C983 1.428 . S
C978 C981 1.260 . S
C978 C982 1.477 . S
C978 H996 0.932 . S
C979 C980 1.384 . S
C979 C981 1.479 . S
C979 H997 0.929 . S
C980 C977 1.424 . S
C980 C979 1.384 . S
C980 H998 0.928 . S
C981 C978 1.260 . S
C981 C979 1.479 . S
C982 C977 1.245 . S
C982 C978 1.477 . S
C982 H999 0.932 . S
C983 U966 2.882 . S
C983 C977 1.428 . S
C983 O986 1.301 . S
C983 O987 1.282 . S
O984 U966 2.441 . S
O984 C970 1.249 . S
O985 U966 2.420 . S
O985 C970 1.202 . S
O986 U966 2.455 . S
O986 C983 1.301 . S
O987 U966 2.449 . S
O987 C983 1.282 . S
H988 C961 0.931 . S
H989 C963 0.929 . S
H990 C964 0.930 . S
H991 C965 0.931 . S
H992 C972 0.932 . S
H993 C973 0.930 . S
H994 C974 0.929 . S
H995 C976 0.930 . S
H996 C978 0.932 . S
H997 C979 0.929 . S
H998 C980 0.928 . S
H999 C982 0.932 . S
C1000 C1001 1.264 . S
C1000 C1005 1.479 . S
C1000 C1010 1.465 . S
C1001 C1000 1.264 . S
C1001 C1003 1.339 . S
C1001 H1028 0.931 . S
C1002 C1003 1.395 . S
C1002 C1004 1.320 . S
C1003 C1001 1.339 . S
C1003 C1002 1.395 . S
C1003 H1029 0.929 . S
C1004 C1002 1.320 . S
C1004 C1005 1.405 . S
C1004 H1030 0.930 . S
C1005 C1000 1.479 . S
C1005 C1004 1.405 . S
C1005 H1031 0.931 . S
U1006 O1007 2.454 . S
U1006 O1008 2.458 . S
U1006 C1009 2.984 . S
U1006 C1010 2.847 . S
U1006 C1023 2.882 . S
U1006 O1024 2.441 . S
U1006 O1025 2.420 . S
U1006 O1026 2.455 . S
U1006 O1027 2.449 . S
O1007 U1006 2.454 . S
O1007 C1009 1.353 . S
O1008 U1006 2.458 . S
O1008 C1009 1.286 . S
C1009 U1006 2.984 . S
C1009 O1007 1.353 . S
C1009 O1008 1.286 . S
C1009 C1011 1.363 . S
C1010 C1000 1.465 . S
C1010 U1006 2.847 . S
C1010 O1024 1.249 . S
C1010 O1025 1.202 . S
C1011 C1009 1.363 . S
C1011 C1013 1.408 . S
C1011 C1016 1.342 . S
C1012 C1013 1.310 . S
C1012 C1015 1.461 . S
C1012 H1032 0.932 . S
C1013 C1011 1.408 . S
C1013 C1012 1.310 . S
C1013 H1033 0.930 . S
C1014 C1015 1.474 . S
C1014 C1016 1.285 . S
C1014 H1034 0.929 . S
C1015 C1012 1.461 . S
C1015 C1014 1.474 . S
C1016 C1011 1.342 . S
C1016 C1014 1.285 . S
C1016 H1035 0.930 . S
C1017 C1020 1.424 . S
C1017 C1022 1.245 . S
C1017 C1023 1.428 . S
C1018 C1021 1.260 . S
C1018 C1022 1.477 . S
C1018 H1036 0.932 . S
C1019 C1020 1.384 . S
C1019 C1021 1.479 . S
C1019 H1037 0.929 . S
C1020 C1017 1.424 . S
C1020 C1019 1.384 . S
C1020 H1038 0.928 . S
C1021 C1018 1.260 . S
C1021 C1019 1.479 . S
C1022 C1017 1.245 . S
C1022 C1018 1.477 . S
C1022 H1039 0.932 . S
C1023 U1006 2.882 . S
C1023 C1017 1.428 . S
C1023 O1026 1.301 . S
C1023 O1027 1.282 . S
O1024 U1006 2.441 . S
O1024 C1010 1.249 . S
O1025 U1006 2.420 . S
O1025 C1010 1.202 . S
O1026 U1006 2.455 . S
O1026 C1023 1.301 . S
O1027 U1006 2.449 . S
O1027 C1023 1.282 . S
H1028 C1001 0.931 . S
H1029 C1003 0.929 . S
H1030 C1004 0.930 . S
H1031 C1005 0.931 . S
H1032 C1012 0.932 . S
H1033 C1013 0.930 . S
H1034 C1014 0.929 . S
H1035 C1016 0.930 . S
H1036 C1018 0.932 . S
H1037 C1019 0.929 . S
H1038 C1020 0.928 . S
H1039 C1022 0.932 . S
C1040 C1041 1.264 . S
C1040 C1045 1.479 . S
C1040 C1050 1.465 . S
C1041 C1040 1.264 . S
C1041 C1043 1.339 . S
C1041 H1068 0.931 . S
C1042 C1043 1.395 . S
C1042 C1044 1.320 . S
C1043 C1041 1.339 . S
C1043 C1042 1.395 . S
C1043 H1069 0.929 . S
C1044 C1042 1.320 . S
C1044 C1045 1.405 . S
C1044 H1070 0.930 . S
C1045 C1040 1.479 . S
C1045 C1044 1.405 . S
C1045 H1071 0.931 . S
U1046 O1047 2.454 . S
U1046 O1048 2.458 . S
U1046 C1049 2.984 . S
U1046 C1050 2.847 . S
U1046 C1063 2.882 . S
U1046 O1064 2.441 . S
U1046 O1065 2.420 . S
U1046 O1066 2.455 . S
U1046 O1067 2.449 . S
O1047 U1046 2.454 . S
O1047 C1049 1.353 . S
O1048 U1046 2.458 . S
O1048 C1049 1.286 . S
C1049 U1046 2.984 . S
C1049 O1047 1.353 . S
C1049 O1048 1.286 . S
C1049 C1051 1.363 . S
C1050 C1040 1.465 . S
C1050 U1046 2.847 . S
C1050 O1064 1.249 . S
C1050 O1065 1.202 . S
C1051 C1049 1.363 . S
C1051 C1053 1.408 . S
C1051 C1056 1.342 . S
C1052 C1053 1.310 . S
C1052 C1055 1.461 . S
C1052 H1072 0.932 . S
C1053 C1051 1.408 . S
C1053 C1052 1.310 . S
C1053 H1073 0.930 . S
C1054 C1055 1.474 . S
C1054 C1056 1.285 . S
C1054 H1074 0.929 . S
C1055 C1052 1.461 . S
C1055 C1054 1.474 . S
C1056 C1051 1.342 . S
C1056 C1054 1.285 . S
C1056 H1075 0.930 . S
C1057 C1060 1.424 . S
C1057 C1062 1.245 . S
C1057 C1063 1.428 . S
C1058 C1061 1.260 . S
C1058 C1062 1.477 . S
C1058 H1076 0.932 . S
C1059 C1060 1.384 . S
C1059 C1061 1.479 . S
C1059 H1077 0.929 . S
C1060 C1057 1.424 . S
C1060 C1059 1.384 . S
C1060 H1078 0.928 . S
C1061 C1058 1.260 . S
C1061 C1059 1.479 . S
C1062 C1057 1.245 . S
C1062 C1058 1.477 . S
C1062 H1079 0.932 . S
C1063 U1046 2.882 . S
C1063 C1057 1.428 . S
C1063 O1066 1.301 . S
C1063 O1067 1.282 . S
O1064 U1046 2.441 . S
O1064 C1050 1.249 . S
O1065 U1046 2.420 . S
O1065 C1050 1.202 . S
O1066 U1046 2.455 . S
O1066 C1063 1.301 . S
O1067 U1046 2.449 . S
O1067 C1063 1.282 . S
H1068 C1041 0.931 . S
H1069 C1043 0.929 . S
H1070 C1044 0.930 . S
H1071 C1045 0.931 . S
H1072 C1052 0.932 . S
H1073 C1053 0.930 . S
H1074 C1054 0.929 . S
H1075 C1056 0.930 . S
H1076 C1058 0.932 . S
H1077 C1059 0.929 . S
H1078 C1060 0.928 . S
H1079 C1062 0.932 . S
C1080 C1081 1.264 . S
C1080 C1085 1.479 . S
C1080 C1090 1.465 . S
C1081 C1080 1.264 . S
C1081 C1083 1.339 . S
C1081 H1108 0.931 . S
C1082 C1083 1.395 . S
C1082 C1084 1.320 . S
C1083 C1081 1.339 . S
C1083 C1082 1.395 . S
C1083 H1109 0.929 . S
C1084 C1082 1.320 . S
C1084 C1085 1.405 . S
C1084 H1110 0.930 . S
C1085 C1080 1.479 . S
C1085 C1084 1.405 . S
C1085 H1111 0.931 . S
U1086 O1087 2.454 . S
U1086 O1088 2.458 . S
U1086 C1089 2.984 . S
U1086 C1090 2.847 . S
U1086 C1103 2.882 . S
U1086 O1104 2.441 . S
U1086 O1105 2.420 . S
U1086 O1106 2.455 . S
U1086 O1107 2.449 . S
O1087 U1086 2.454 . S
O1087 C1089 1.353 . S
O1088 U1086 2.458 . S
O1088 C1089 1.286 . S
C1089 U1086 2.984 . S
C1089 O1087 1.353 . S
C1089 O1088 1.286 . S
C1089 C1091 1.363 . S
C1090 C1080 1.465 . S
C1090 U1086 2.847 . S
C1090 O1104 1.249 . S
C1090 O1105 1.202 . S
C1091 C1089 1.363 . S
C1091 C1093 1.408 . S
C1091 C1096 1.342 . S
C1092 C1093 1.310 . S
C1092 C1095 1.461 . S
C1092 H1112 0.932 . S
C1093 C1091 1.408 . S
C1093 C1092 1.310 . S
C1093 H1113 0.930 . S
C1094 C1095 1.474 . S
C1094 C1096 1.285 . S
C1094 H1114 0.929 . S
C1095 C1092 1.461 . S
C1095 C1094 1.474 . S
C1096 C1091 1.342 . S
C1096 C1094 1.285 . S
C1096 H1115 0.930 . S
C1097 C1100 1.424 . S
C1097 C1102 1.245 . S
C1097 C1103 1.428 . S
C1098 C1101 1.260 . S
C1098 C1102 1.477 . S
C1098 H1116 0.932 . S
C1099 C1100 1.384 . S
C1099 C1101 1.479 . S
C1099 H1117 0.929 . S
C1100 C1097 1.424 . S
C1100 C1099 1.384 . S
C1100 H1118 0.928 . S
C1101 C1098 1.260 . S
C1101 C1099 1.479 . S
C1102 C1097 1.245 . S
C1102 C1098 1.477 . S
C1102 H1119 0.932 . S
C1103 U1086 2.882 . S
C1103 C1097 1.428 . S
C1103 O1106 1.301 . S
C1103 O1107 1.282 . S
O1104 U1086 2.441 . S
O1104 C1090 1.249 . S
O1105 U1086 2.420 . S
O1105 C1090 1.202 . S
O1106 U1086 2.455 . S
O1106 C1103 1.301 . S
O1107 U1086 2.449 . S
O1107 C1103 1.282 . S
H1108 C1081 0.931 . S
H1109 C1083 0.929 . S
H1110 C1084 0.930 . S
H1111 C1085 0.931 . S
H1112 C1092 0.932 . S
H1113 C1093 0.930 . S
H1114 C1094 0.929 . S
H1115 C1096 0.930 . S
H1116 C1098 0.932 . S
H1117 C1099 0.929 . S
H1118 C1100 0.928 . S
H1119 C1102 0.932 . S
C1120 C1121 1.264 . S
C1120 C1125 1.479 . S
C1120 C1130 1.465 . S
C1121 C1120 1.264 . S
C1121 C1123 1.339 . S
C1121 H1148 0.931 . S
C1122 C1123 1.395 . S
C1122 C1124 1.320 . S
C1123 C1121 1.339 . S
C1123 C1122 1.395 . S
C1123 H1149 0.929 . S
C1124 C1122 1.320 . S
C1124 C1125 1.405 . S
C1124 H1150 0.930 . S
C1125 C1120 1.479 . S
C1125 C1124 1.405 . S
C1125 H1151 0.931 . S
U1126 O1127 2.454 . S
U1126 O1128 2.458 . S
U1126 C1129 2.984 . S
U1126 C1130 2.847 . S
U1126 C1143 2.882 . S
U1126 O1144 2.441 . S
U1126 O1145 2.420 . S
U1126 O1146 2.455 . S
U1126 O1147 2.449 . S
O1127 U1126 2.454 . S
O1127 C1129 1.353 . S
O1128 U1126 2.458 . S
O1128 C1129 1.286 . S
C1129 U1126 2.984 . S
C1129 O1127 1.353 . S
C1129 O1128 1.286 . S
C1129 C1131 1.363 . S
C1130 C1120 1.465 . S
C1130 U1126 2.847 . S
C1130 O1144 1.249 . S
C1130 O1145 1.202 . S
C1131 C1129 1.363 . S
C1131 C1133 1.408 . S
C1131 C1136 1.342 . S
C1132 C1133 1.310 . S
C1132 C1135 1.461 . S
C1132 H1152 0.932 . S
C1133 C1131 1.408 . S
C1133 C1132 1.310 . S
C1133 H1153 0.930 . S
C1134 C1135 1.474 . S
C1134 C1136 1.285 . S
C1134 H1154 0.929 . S
C1135 C1132 1.461 . S
C1135 C1134 1.474 . S
C1136 C1131 1.342 . S
C1136 C1134 1.285 . S
C1136 H1155 0.930 . S
C1137 C1140 1.424 . S
C1137 C1142 1.245 . S
C1137 C1143 1.428 . S
C1138 C1141 1.260 . S
C1138 C1142 1.477 . S
C1138 H1156 0.932 . S
C1139 C1140 1.384 . S
C1139 C1141 1.479 . S
C1139 H1157 0.929 . S
C1140 C1137 1.424 . S
C1140 C1139 1.384 . S
C1140 H1158 0.928 . S
C1141 C1138 1.260 . S
C1141 C1139 1.479 . S
C1142 C1137 1.245 . S
C1142 C1138 1.477 . S
C1142 H1159 0.932 . S
C1143 U1126 2.882 . S
C1143 C1137 1.428 . S
C1143 O1146 1.301 . S
C1143 O1147 1.282 . S
O1144 U1126 2.441 . S
O1144 C1130 1.249 . S
O1145 U1126 2.420 . S
O1145 C1130 1.202 . S
O1146 U1126 2.455 . S
O1146 C1143 1.301 . S
O1147 U1126 2.449 . S
O1147 C1143 1.282 . S
H1148 C1121 0.931 . S
H1149 C1123 0.929 . S
H1150 C1124 0.930 . S
H1151 C1125 0.931 . S
H1152 C1132 0.932 . S
H1153 C1133 0.930 . S
H1154 C1134 0.929 . S
H1155 C1136 0.930 . S
H1156 C1138 0.932 . S
H1157 C1139 0.929 . S
H1158 C1140 0.928 . S
H1159 C1142 0.932 . S
C1160 C1161 1.264 . S
C1160 C1165 1.479 . S
C1160 C1170 1.465 . S
C1161 C1160 1.264 . S
C1161 C1163 1.339 . S
C1161 H1188 0.931 . S
C1162 C1163 1.395 . S
C1162 C1164 1.320 . S
C1163 C1161 1.339 . S
C1163 C1162 1.395 . S
C1163 H1189 0.929 . S
C1164 C1162 1.320 . S
C1164 C1165 1.405 . S
C1164 H1190 0.930 . S
C1165 C1160 1.479 . S
C1165 C1164 1.405 . S
C1165 H1191 0.931 . S
U1166 O1167 2.454 . S
U1166 O1168 2.458 . S
U1166 C1169 2.984 . S
U1166 C1170 2.847 . S
U1166 C1183 2.882 . S
U1166 O1184 2.441 . S
U1166 O1185 2.420 . S
U1166 O1186 2.455 . S
U1166 O1187 2.449 . S
O1167 U1166 2.454 . S
O1167 C1169 1.353 . S
O1168 U1166 2.458 . S
O1168 C1169 1.286 . S
C1169 U1166 2.984 . S
C1169 O1167 1.353 . S
C1169 O1168 1.286 . S
C1169 C1171 1.363 . S
C1170 C1160 1.465 . S
C1170 U1166 2.847 . S
C1170 O1184 1.249 . S
C1170 O1185 1.202 . S
C1171 C1169 1.363 . S
C1171 C1173 1.408 . S
C1171 C1176 1.342 . S
C1172 C1173 1.310 . S
C1172 C1175 1.461 . S
C1172 H1192 0.932 . S
C1173 C1171 1.408 . S
C1173 C1172 1.310 . S
C1173 H1193 0.930 . S
C1174 C1175 1.474 . S
C1174 C1176 1.285 . S
C1174 H1194 0.929 . S
C1175 C1172 1.461 . S
C1175 C1174 1.474 . S
C1176 C1171 1.342 . S
C1176 C1174 1.285 . S
C1176 H1195 0.930 . S
C1177 C1180 1.424 . S
C1177 C1182 1.245 . S
C1177 C1183 1.428 . S
C1178 C1181 1.260 . S
C1178 C1182 1.477 . S
C1178 H1196 0.932 . S
C1179 C1180 1.384 . S
C1179 C1181 1.479 . S
C1179 H1197 0.929 . S
C1180 C1177 1.424 . S
C1180 C1179 1.384 . S
C1180 H1198 0.928 . S
C1181 C1178 1.260 . S
C1181 C1179 1.479 . S
C1182 C1177 1.245 . S
C1182 C1178 1.477 . S
C1182 H1199 0.932 . S
C1183 U1166 2.882 . S
C1183 C1177 1.428 . S
C1183 O1186 1.301 . S
C1183 O1187 1.282 . S
O1184 U1166 2.441 . S
O1184 C1170 1.249 . S
O1185 U1166 2.420 . S
O1185 C1170 1.202 . S
O1186 U1166 2.455 . S
O1186 C1183 1.301 . S
O1187 U1166 2.449 . S
O1187 C1183 1.282 . S
H1188 C1161 0.931 . S
H1189 C1163 0.929 . S
H1190 C1164 0.930 . S
H1191 C1165 0.931 . S
H1192 C1172 0.932 . S
H1193 C1173 0.930 . S
H1194 C1174 0.929 . S
H1195 C1176 0.930 . S
H1196 C1178 0.932 . S
H1197 C1179 0.929 . S
H1198 C1180 0.928 . S
H1199 C1182 0.932 . S
C1200 C1201 1.264 . S
C1200 C1205 1.479 . S
C1200 C1210 1.465 . S
C1201 C1200 1.264 . S
C1201 C1203 1.339 . S
C1201 H1228 0.931 . S
C1202 C1203 1.395 . S
C1202 C1204 1.320 . S
C1203 C1201 1.339 . S
C1203 C1202 1.395 . S
C1203 H1229 0.929 . S
C1204 C1202 1.320 . S
C1204 C1205 1.405 . S
C1204 H1230 0.930 . S
C1205 C1200 1.479 . S
C1205 C1204 1.405 . S
C1205 H1231 0.931 . S
U1206 O1207 2.454 . S
U1206 O1208 2.458 . S
U1206 C1209 2.984 . S
U1206 C1210 2.847 . S
U1206 C1223 2.882 . S
U1206 O1224 2.441 . S
U1206 O1225 2.420 . S
U1206 O1226 2.455 . S
U1206 O1227 2.449 . S
O1207 U1206 2.454 . S
O1207 C1209 1.353 . S
O1208 U1206 2.458 . S
O1208 C1209 1.286 . S
C1209 U1206 2.984 . S
C1209 O1207 1.353 . S
C1209 O1208 1.286 . S
C1209 C1211 1.363 . S
C1210 C1200 1.465 . S
C1210 U1206 2.847 . S
C1210 O1224 1.249 . S
C1210 O1225 1.202 . S
C1211 C1209 1.363 . S
C1211 C1213 1.408 . S
C1211 C1216 1.342 . S
C1212 C1213 1.310 . S
C1212 C1215 1.461 . S
C1212 H1232 0.932 . S
C1213 C1211 1.408 . S
C1213 C1212 1.310 . S
C1213 H1233 0.930 . S
C1214 C1215 1.474 . S
C1214 C1216 1.285 . S
C1214 H1234 0.929 . S
C1215 C1212 1.461 . S
C1215 C1214 1.474 . S
C1216 C1211 1.342 . S
C1216 C1214 1.285 . S
C1216 H1235 0.930 . S
C1217 C1220 1.424 . S
C1217 C1222 1.245 . S
C1217 C1223 1.428 . S
C1218 C1221 1.260 . S
C1218 C1222 1.477 . S
C1218 H1236 0.932 . S
C1219 C1220 1.384 . S
C1219 C1221 1.479 . S
C1219 H1237 0.929 . S
C1220 C1217 1.424 . S
C1220 C1219 1.384 . S
C1220 H1238 0.928 . S
C1221 C1218 1.260 . S
C1221 C1219 1.479 . S
C1222 C1217 1.245 . S
C1222 C1218 1.477 . S
C1222 H1239 0.932 . S
C1223 U1206 2.882 . S
C1223 C1217 1.428 . S
C1223 O1226 1.301 . S
C1223 O1227 1.282 . S
O1224 U1206 2.441 . S
O1224 C1210 1.249 . S
O1225 U1206 2.420 . S
O1225 C1210 1.202 . S
O1226 U1206 2.455 . S
O1226 C1223 1.301 . S
O1227 U1206 2.449 . S
O1227 C1223 1.282 . S
H1228 C1201 0.931 . S
H1229 C1203 0.929 . S
H1230 C1204 0.930 . S
H1231 C1205 0.931 . S
H1232 C1212 0.932 . S
H1233 C1213 0.930 . S
H1234 C1214 0.929 . S
H1235 C1216 0.930 . S
H1236 C1218 0.932 . S
H1237 C1219 0.929 . S
H1238 C1220 0.928 . S
H1239 C1222 0.932 . S
C1240 C1241 1.264 . S
C1240 C1245 1.479 . S
C1240 C1250 1.465 . S
C1241 C1240 1.264 . S
C1241 C1243 1.339 . S
C1241 H1268 0.931 . S
C1242 C1243 1.395 . S
C1242 C1244 1.320 . S
C1243 C1241 1.339 . S
C1243 C1242 1.395 . S
C1243 H1269 0.929 . S
C1244 C1242 1.320 . S
C1244 C1245 1.405 . S
C1244 H1270 0.930 . S
C1245 C1240 1.479 . S
C1245 C1244 1.405 . S
C1245 H1271 0.931 . S
U1246 O1247 2.454 . S
U1246 O1248 2.458 . S
U1246 C1249 2.984 . S
U1246 C1250 2.847 . S
U1246 C1263 2.882 . S
U1246 O1264 2.441 . S
U1246 O1265 2.420 . S
U1246 O1266 2.455 . S
U1246 O1267 2.449 . S
O1247 U1246 2.454 . S
O1247 C1249 1.353 . S
O1248 U1246 2.458 . S
O1248 C1249 1.286 . S
C1249 U1246 2.984 . S
C1249 O1247 1.353 . S
C1249 O1248 1.286 . S
C1249 C1251 1.363 . S
C1250 C1240 1.465 . S
C1250 U1246 2.847 . S
C1250 O1264 1.249 . S
C1250 O1265 1.202 . S
C1251 C1249 1.363 . S
C1251 C1253 1.408 . S
C1251 C1256 1.342 . S
C1252 C1253 1.310 . S
C1252 C1255 1.461 . S
C1252 H1272 0.932 . S
C1253 C1251 1.408 . S
C1253 C1252 1.310 . S
C1253 H1273 0.930 . S
C1254 C1255 1.474 . S
C1254 C1256 1.285 . S
C1254 H1274 0.929 . S
C1255 C1252 1.461 . S
C1255 C1254 1.474 . S
C1256 C1251 1.342 . S
C1256 C1254 1.285 . S
C1256 H1275 0.930 . S
C1257 C1260 1.424 . S
C1257 C1262 1.245 . S
C1257 C1263 1.428 . S
C1258 C1261 1.260 . S
C1258 C1262 1.477 . S
C1258 H1276 0.932 . S
C1259 C1260 1.384 . S
C1259 C1261 1.479 . S
C1259 H1277 0.929 . S
C1260 C1257 1.424 . S
C1260 C1259 1.384 . S
C1260 H1278 0.928 . S
C1261 C1258 1.260 . S
C1261 C1259 1.479 . S
C1262 C1257 1.245 . S
C1262 C1258 1.477 . S
C1262 H1279 0.932 . S
C1263 U1246 2.882 . S
C1263 C1257 1.428 . S
C1263 O1266 1.301 . S
C1263 O1267 1.282 . S
O1264 U1246 2.441 . S
O1264 C1250 1.249 . S
O1265 U1246 2.420 . S
O1265 C1250 1.202 . S
O1266 U1246 2.455 . S
O1266 C1263 1.301 . S
O1267 U1246 2.449 . S
O1267 C1263 1.282 . S
H1268 C1241 0.931 . S
H1269 C1243 0.929 . S
H1270 C1244 0.930 . S
H1271 C1245 0.931 . S
H1272 C1252 0.932 . S
H1273 C1253 0.930 . S
H1274 C1254 0.929 . S
H1275 C1256 0.930 . S
H1276 C1258 0.932 . S
H1277 C1259 0.929 . S
H1278 C1260 0.928 . S
H1279 C1262 0.932 . S
C1280 C1281 1.391 . S
C1280 C1282 1.394 . S
C1280 H1296 0.931 . S
C1281 C1280 1.391 . S
C1281 C1285 1.376 . S
C1282 C1280 1.394 . S
C1282 C1283 1.369 . S
C1282 C1286 1.531 . S
C1283 C1282 1.369 . S
C1283 C1284 1.410 . S
C1283 C1291 1.503 . S
C1284 C1283 1.410 . S
C1284 C1285 1.392 . S
C1284 C1287 1.511 1_565 S
C1285 C1281 1.376 . S
C1285 C1284 1.392 . S
C1285 H1297 0.929 1_565 S
C1286 C1282 1.531 . S
C1286 H1298 0.960 . S
C1286 H1299 0.962 . S
C1286 H1300 0.960 . S
C1287 C1284 1.511 1_545 S
C1287 H1301 0.961 . S
C1287 H1302 0.961 . S
C1287 H1303 0.961 1_545 S
C1288 C1289 1.332 1_545 S
C1288 C1290 1.362 . S
C1288 H1304 0.974 . S
C1289 C1288 1.332 1_565 S
C1289 C1293 1.408 . S
C1290 C1288 1.362 . S
C1290 C1291 1.364 1_545 S
C1290 C1294 1.530 . S
C1291 C1283 1.503 . S
C1291 C1290 1.364 1_565 S
C1291 C1292 1.403 . S
C1292 C1291 1.403 . S
C1292 C1293 1.404 . S
C1292 C1295 1.539 . S
C1293 C1289 1.408 . S
C1293 C1292 1.404 . S
C1293 H1305 0.930 . S
C1294 C1290 1.530 . S
C1294 H1306 0.956 . S
C1294 H1307 0.961 . S
C1294 H1308 0.961 . S
C1295 C1292 1.539 . S
C1295 H1309 0.958 . S
C1295 H1310 0.961 . S
C1295 H1311 0.960 . S
H1296 C1280 0.931 . S
H1297 C1285 0.929 1_545 S
H1298 C1286 0.960 . S
H1299 C1286 0.962 . S
H1300 C1286 0.960 . S
H1301 C1287 0.961 . S
H1302 C1287 0.961 . S
H1303 C1287 0.961 1_565 S
H1304 C1288 0.974 . S
H1305 C1293 0.930 . S
H1306 C1294 0.956 . S
H1307 C1294 0.961 . S
H1308 C1294 0.961 . S
H1309 C1295 0.958 . S
H1310 C1295 0.961 . S
H1311 C1295 0.960 . S
C1312 C1313 1.391 . S
C1312 C1314 1.407 . S
C1312 H1328 0.931 . S
C1313 C1312 1.391 . S
C1313 C1317 1.376 . S
C1314 C1312 1.407 . S
C1314 C1315 1.372 . S
C1314 C1318 1.514 1_545 S
C1315 C1314 1.372 . S
C1315 C1316 1.410 . S
C1315 C1323 1.503 1_545 S
C1316 C1315 1.410 . S
C1316 C1317 1.392 . S
C1316 C1319 1.511 . S
C1317 C1313 1.376 . S
C1317 C1316 1.392 . S
C1317 H1329 0.929 . S
C1318 C1314 1.514 1_565 S
C1318 H1330 0.960 . S
C1318 H1331 0.962 . S
C1318 H1332 0.960 . S
C1319 C1316 1.511 . S
C1319 H1333 0.961 . S
C1319 H1334 0.961 . S
C1319 H1335 0.961 . S
C1320 C1321 1.370 . S
C1320 C1322 1.363 . S
C1320 H1336 0.931 . S
C1321 C1320 1.370 . S
C1321 C1325 1.408 . S
C1322 C1320 1.363 . S
C1322 C1323 1.370 . S
C1322 C1326 1.524 1_565 S
C1323 C1315 1.503 1_565 S
C1323 C1322 1.370 . S
C1323 C1324 1.403 . S
C1324 C1323 1.403 . S
C1324 C1325 1.404 . S
C1324 C1327 1.539 . S
C1325 C1321 1.408 . S
C1325 C1324 1.404 . S
C1325 H1337 0.930 . S
C1326 C1322 1.524 1_545 S
C1326 H1338 0.956 . S
C1326 H1339 0.961 . S
C1326 H1340 0.961 . S
C1327 C1324 1.539 . S
C1327 H1341 0.958 . S
C1327 H1342 0.961 . S
C1327 H1343 0.960 . S
H1328 C1312 0.931 . S
H1329 C1317 0.929 . S
H1330 C1318 0.960 . S
H1331 C1318 0.962 . S
H1332 C1318 0.960 . S
H1333 C1319 0.961 . S
H1334 C1319 0.961 . S
H1335 C1319 0.961 . S
H1336 C1320 0.931 . S
H1337 C1325 0.930 . S
H1338 C1326 0.956 . S
H1339 C1326 0.961 . S
H1340 C1326 0.961 . S
H1341 C1327 0.958 . S
H1342 C1327 0.961 . S
H1343 C1327 0.960 . S
C1344 C1345 1.391 . S
C1344 C1346 1.394 . S
C1344 H1360 0.931 . S
C1345 C1344 1.391 . S
C1345 C1349 1.376 . S
C1346 C1344 1.394 . S
C1346 C1347 1.369 . S
C1346 C1350 1.531 . S
C1347 C1346 1.369 . S
C1347 C1348 1.426 . S
C1347 C1355 1.503 . S
C1348 C1347 1.426 . S
C1348 C1349 1.397 . S
C1348 C1351 1.493 1_545 S
C1349 C1345 1.376 . S
C1349 C1348 1.397 . S
C1349 H1361 0.929 1_545 S
C1350 C1346 1.531 . S
C1350 H1362 0.960 . S
C1350 H1363 0.962 . S
C1350 H1364 0.960 . S
C1351 C1348 1.493 1_565 S
C1351 H1365 0.961 . S
C1351 H1366 0.986 . S
C1351 H1367 0.961 . S
C1352 C1353 1.370 . S
C1352 C1354 1.363 . S
C1352 H1368 0.931 . S
C1353 C1352 1.370 . S
C1353 C1357 1.408 1_545 S
C1354 C1352 1.363 . S
C1354 C1355 1.370 . S
C1354 C1358 1.524 . S
C1355 C1347 1.503 . S
C1355 C1354 1.370 . S
C1355 C1356 1.403 1_545 S
C1356 C1355 1.403 1_565 S
C1356 C1357 1.404 . S
C1356 C1359 1.539 . S
C1357 C1353 1.408 1_565 S
C1357 C1356 1.404 . S
C1357 H1369 0.930 . S
C1358 C1354 1.524 . S
C1358 H1370 0.956 . S
C1358 H1371 0.961 . S
C1358 H1372 0.961 . S
C1359 C1356 1.539 . S
C1359 H1373 0.958 . S
C1359 H1374 0.961 . S
C1359 H1375 0.960 . S
H1360 C1344 0.931 . S
H1361 C1349 0.929 1_565 S
H1362 C1350 0.960 . S
H1363 C1350 0.962 . S
H1364 C1350 0.960 . S
H1365 C1351 0.961 . S
H1366 C1351 0.986 . S
H1367 C1351 0.961 . S
H1368 C1352 0.931 . S
H1369 C1357 0.930 . S
H1370 C1358 0.956 . S
H1371 C1358 0.961 . S
H1372 C1358 0.961 . S
H1373 C1359 0.958 . S
H1374 C1359 0.961 . S
H1375 C1359 0.960 . S
C1376 C1377 1.391 . S
C1376 C1378 1.394 . S
C1376 H1392 0.931 . S
C1377 C1376 1.391 . S
C1377 C1381 1.376 . S
C1378 C1376 1.394 . S
C1378 C1379 1.369 . S
C1378 C1382 1.531 1_554 S
C1379 C1378 1.369 . S
C1379 C1380 1.410 . S
C1379 C1387 1.503 1_544 S
C1380 C1379 1.410 . S
C1380 C1381 1.392 . S
C1380 C1383 1.511 1_545 S
C1381 C1377 1.376 . S
C1381 C1380 1.392 . S
C1381 H1393 0.929 . S
C1382 C1378 1.531 1_556 S
C1382 H1394 0.960 . S
C1382 H1395 0.962 . S
C1382 H1396 0.960 . S
C1383 C1380 1.511 1_565 S
C1383 H1397 0.961 . S
C1383 H1398 0.961 . S
C1383 H1399 0.961 . S
C1384 C1385 1.370 . S
C1384 C1386 1.363 . S
C1384 H1400 0.931 . S
C1385 C1384 1.370 . S
C1385 C1389 1.408 . S
C1386 C1384 1.363 . S
C1386 C1387 1.370 . S
C1386 C1390 1.524 1_556 S
C1387 C1379 1.503 1_566 S
C1387 C1386 1.370 . S
C1387 C1388 1.403 1_565 S
C1388 C1387 1.403 1_545 S
C1388 C1389 1.404 1_545 S
C1388 C1391 1.539 . S
C1389 C1385 1.408 . S
C1389 C1388 1.404 1_565 S
C1389 H1401 0.930 . S
C1390 C1386 1.524 1_554 S
C1390 H1402 0.956 . S
C1390 H1403 0.961 . S
C1390 H1404 0.961 . S
C1391 C1388 1.539 . S
C1391 H1405 0.958 . S
C1391 H1406 0.961 . S
C1391 H1407 0.960 . S
H1392 C1376 0.931 . S
H1393 C1381 0.929 . S
H1394 C1382 0.960 . S
H1395 C1382 0.962 . S
H1396 C1382 0.960 . S
H1397 C1383 0.961 . S
H1398 C1383 0.961 . S
H1399 C1383 0.961 . S
H1400 C1384 0.931 . S
H1401 C1389 0.930 . S
H1402 C1390 0.956 . S
H1403 C1390 0.961 . S
H1404 C1390 0.961 . S
H1405 C1391 0.958 . S
H1406 C1391 0.961 . S
H1407 C1391 0.960 . S
C1408 C1409 1.391 . S
C1408 C1410 1.397 . S
C1408 H1424 0.931 1_545 S
C1409 C1408 1.391 . S
C1409 C1413 1.376 . S
C1410 C1408 1.397 . S
C1410 C1411 1.384 . S
C1410 C1414 1.514 1_545 S
C1411 C1410 1.384 . S
C1411 C1412 1.410 . S
C1411 C1419 1.503 . S
C1412 C1411 1.410 . S
C1412 C1413 1.392 . S
C1412 C1415 1.511 . S
C1413 C1409 1.376 . S
C1413 C1412 1.392 . S
C1413 H1425 0.929 . S
C1414 C1410 1.514 1_565 S
C1414 H1426 0.960 . S
C1414 H1427 0.962 1_565 S
C1414 H1428 0.960 . S
C1415 C1412 1.511 . S
C1415 H1429 0.961 . S
C1415 H1430 0.961 . S
C1415 H1431 0.961 . S
C1416 C1417 1.370 . S
C1416 C1418 1.363 . S
C1416 H1432 0.931 . S
C1417 C1416 1.370 . S
C1417 C1421 1.408 1_545 S
C1418 C1416 1.363 . S
C1418 C1419 1.370 . S
C1418 C1422 1.524 . S
C1419 C1411 1.503 . S
C1419 C1418 1.370 . S
C1419 C1420 1.403 1_545 S
C1420 C1419 1.403 1_565 S
C1420 C1421 1.404 . S
C1420 C1423 1.539 . S
C1421 C1417 1.408 1_565 S
C1421 C1420 1.404 . S
C1421 H1433 0.930 . S
C1422 C1418 1.524 . S
C1422 H1434 0.956 . S
C1422 H1435 0.961 . S
C1422 H1436 0.961 . S
C1423 C1420 1.539 . S
C1423 H1437 0.958 . S
C1423 H1438 0.961 . S
C1423 H1439 0.960 . S
H1424 C1408 0.931 1_565 S
H1425 C1413 0.929 . S
H1426 C1414 0.960 . S
H1427 C1414 0.962 1_545 S
H1428 C1414 0.960 . S
H1429 C1415 0.961 . S
H1430 C1415 0.961 . S
H1431 C1415 0.961 . S
H1432 C1416 0.931 . S
H1433 C1421 0.930 . S
H1434 C1422 0.956 . S
H1435 C1422 0.961 . S
H1436 C1422 0.961 . S
H1437 C1423 0.958 . S
H1438 C1423 0.961 . S
H1439 C1423 0.960 . S
C1440 C1441 1.391 . S
C1440 C1442 1.394 . S
C1440 H1456 0.931 . S
C1441 C1440 1.391 . S
C1441 C1445 1.376 . S
C1442 C1440 1.394 . S
C1442 C1443 1.369 . S
C1442 C1446 1.531 . S
C1443 C1442 1.369 . S
C1443 C1444 1.410 . S
C1443 C1451 1.503 1_565 S
C1444 C1443 1.410 . S
C1444 C1445 1.392 . S
C1444 C1447 1.511 . S
C1445 C1441 1.376 . S
C1445 C1444 1.392 . S
C1445 H1457 0.929 . S
C1446 C1442 1.531 . S
C1446 H1458 0.960 . S
C1446 H1459 0.962 1_565 S
C1446 H1460 0.960 . S
C1447 C1444 1.511 . S
C1447 H1461 0.961 . S
C1447 H1462 0.961 . S
C1447 H1463 0.961 . S
C1448 C1449 1.370 . S
C1448 C1450 1.363 . S
C1448 H1464 0.931 . S
C1449 C1448 1.370 . S
C1449 C1453 1.408 . S
C1450 C1448 1.363 . S
C1450 C1451 1.370 . S
C1450 C1454 1.524 . S
C1451 C1443 1.503 1_545 S
C1451 C1450 1.370 . S
C1451 C1452 1.403 1_545 S
C1452 C1451 1.403 1_565 S
C1452 C1453 1.404 1_565 S
C1452 C1455 1.539 . S
C1453 C1449 1.408 . S
C1453 C1452 1.404 1_545 S
C1453 H1465 0.930 . S
C1454 C1450 1.524 . S
C1454 H1466 0.956 . S
C1454 H1467 0.961 . S
C1454 H1468 0.961 . S
C1455 C1452 1.539 . S
C1455 H1469 0.958 . S
C1455 H1470 0.961 . S
C1455 H1471 0.960 . S
H1456 C1440 0.931 . S
H1457 C1445 0.929 . S
H1458 C1446 0.960 . S
H1459 C1446 0.962 1_545 S
H1460 C1446 0.960 . S
H1461 C1447 0.961 . S
H1462 C1447 0.961 . S
H1463 C1447 0.961 . S
H1464 C1448 0.931 . S
H1465 C1453 0.930 . S
H1466 C1454 0.956 . S
H1467 C1454 0.961 . S
H1468 C1454 0.961 . S
H1469 C1455 0.958 . S
H1470 C1455 0.961 . S
H1471 C1455 0.960 . S
C1472 C1473 1.391 . S
C1472 C1474 1.394 . S
C1472 H1488 0.931 . S
C1473 C1472 1.391 . S
C1473 C1477 1.376 1_565 S
C1474 C1472 1.394 . S
C1474 C1475 1.369 . S
C1474 C1478 1.531 . S
C1475 C1474 1.369 . S
C1475 C1476 1.410 1_565 S
C1475 C1483 1.503 . S
C1476 C1475 1.410 1_545 S
C1476 C1477 1.392 . S
C1476 C1479 1.511 . S
C1477 C1473 1.376 1_545 S
C1477 C1476 1.392 . S
C1477 H1489 0.929 . S
C1478 C1474 1.531 . S
C1478 H1490 0.960 . S
C1478 H1491 0.962 . S
C1478 H1492 0.960 . S
C1479 C1476 1.511 . S
C1479 H1493 0.961 . S
C1479 H1494 0.961 . S
C1479 H1495 0.961 . S
C1480 C1481 1.370 . S
C1480 C1482 1.363 . S
C1480 H1496 0.931 . S
C1481 C1480 1.370 . S
C1481 C1485 1.408 . S
C1482 C1480 1.363 . S
C1482 C1483 1.370 . S
C1482 C1486 1.524 . S
C1483 C1475 1.503 . S
C1483 C1482 1.370 . S
C1483 C1484 1.403 . S
C1484 C1483 1.403 . S
C1484 C1485 1.404 . S
C1484 C1487 1.539 . S
C1485 C1481 1.408 . S
C1485 C1484 1.404 . S
C1485 H1497 0.930 . S
C1486 C1482 1.524 . S
C1486 H1498 0.956 . S
C1486 H1499 0.961 . S
C1486 H1500 0.961 . S
C1487 C1484 1.539 . S
C1487 H1501 0.958 . S
C1487 H1502 0.961 . S
C1487 H1503 0.960 . S
H1488 C1472 0.931 . S
H1489 C1477 0.929 . S
H1490 C1478 0.960 . S
H1491 C1478 0.962 . S
H1492 C1478 0.960 . S
H1493 C1479 0.961 . S
H1494 C1479 0.961 . S
H1495 C1479 0.961 . S
H1496 C1480 0.931 . S
H1497 C1485 0.930 . S
H1498 C1486 0.956 . S
H1499 C1486 0.961 . S
H1500 C1486 0.961 . S
H1501 C1487 0.958 . S
H1502 C1487 0.961 . S
H1503 C1487 0.960 . S
C1504 C1505 1.391 . S
C1504 C1506 1.421 . S
C1504 H1520 0.931 . S
C1505 C1504 1.391 . S
C1505 C1509 1.376 . S
C1506 C1504 1.421 . S
C1506 C1507 1.374 . S
C1506 C1510 1.499 1_545 S
C1507 C1506 1.374 . S
C1507 C1508 1.410 . S
C1507 C1515 1.503 1_544 S
C1508 C1507 1.410 . S
C1508 C1509 1.392 . S
C1508 C1511 1.500 1_554 S
C1509 C1505 1.376 . S
C1509 C1508 1.392 . S
C1509 H1521 0.929 . S
C1510 C1506 1.499 1_565 S
C1510 H1522 0.960 . S
C1510 H1523 0.962 . S
C1510 H1524 0.960 . S
C1511 C1508 1.500 1_556 S
C1511 H1525 0.960 . S
C1511 H1526 0.977 . S
C1511 H1527 0.956 1_556 S
C1512 C1513 1.370 . S
C1512 C1514 1.363 . S
C1512 H1528 0.931 . S
C1513 C1512 1.370 . S
C1513 C1517 1.408 . S
C1514 C1512 1.363 . S
C1514 C1515 1.370 . S
C1514 C1518 1.524 1_565 S
C1515 C1507 1.503 1_566 S
C1515 C1514 1.370 . S
C1515 C1516 1.403 . S
C1516 C1515 1.403 . S
C1516 C1517 1.404 . S
C1516 C1519 1.539 1_556 S
C1517 C1513 1.408 . S
C1517 C1516 1.404 . S
C1517 H1529 0.930 . S
C1518 C1514 1.524 1_545 S
C1518 H1530 0.956 . S
C1518 H1531 0.961 . S
C1518 H1532 0.961 . S
C1519 C1516 1.539 1_554 S
C1519 H1533 0.958 . S
C1519 H1534 0.961 . S
C1519 H1535 0.960 . S
H1520 C1504 0.931 . S
H1521 C1509 0.929 . S
H1522 C1510 0.960 . S
H1523 C1510 0.962 . S
H1524 C1510 0.960 . S
H1525 C1511 0.960 . S
H1526 C1511 0.977 . S
H1527 C1511 0.956 1_554 S
H1528 C1512 0.931 . S
H1529 C1517 0.930 . S
H1530 C1518 0.956 . S
H1531 C1518 0.961 . S
H1532 C1518 0.961 . S
H1533 C1519 0.958 . S
H1534 C1519 0.961 . S
H1535 C1519 0.960 . S
C1536 C1537 1.391 . S
C1536 C1538 1.394 . S
C1536 H1552 0.931 . S
C1537 C1536 1.391 . S
C1537 C1541 1.376 . S
C1538 C1536 1.394 . S
C1538 C1539 1.369 . S
C1538 C1542 1.531 . S
C1539 C1538 1.369 . S
C1539 C1540 1.410 . S
C1539 C1547 1.503 . S
C1540 C1539 1.410 . S
C1540 C1541 1.392 . S
C1540 C1543 1.511 . S
C1541 C1537 1.376 . S
C1541 C1540 1.392 . S
C1541 H1553 0.929 . S
C1542 C1538 1.531 . S
C1542 H1554 0.960 . S
C1542 H1555 0.962 . S
C1542 H1556 0.960 . S
C1543 C1540 1.511 . S
C1543 H1557 0.961 . S
C1543 H1558 0.961 . S
C1543 H1559 0.961 . S
C1544 C1545 1.370 . S
C1544 C1546 1.363 . S
C1544 H1560 0.931 . S
C1545 C1544 1.370 . S
C1545 C1549 1.408 . S
C1546 C1544 1.363 . S
C1546 C1547 1.370 . S
C1546 C1550 1.524 . S
C1547 C1539 1.503 . S
C1547 C1546 1.370 . S
C1547 C1548 1.403 . S
C1548 C1547 1.403 . S
C1548 C1549 1.404 . S
C1548 C1551 1.539 . S
C1549 C1545 1.408 . S
C1549 C1548 1.404 . S
C1549 H1561 0.930 . S
C1550 C1546 1.524 . S
C1550 H1562 0.956 . S
C1550 H1563 0.961 . S
C1550 H1564 0.961 . S
C1551 C1548 1.539 . S
C1551 H1565 0.958 . S
C1551 H1566 0.961 . S
C1551 H1567 0.960 . S
H1552 C1536 0.931 . S
H1553 C1541 0.929 . S
H1554 C1542 0.960 . S
H1555 C1542 0.962 . S
H1556 C1542 0.960 . S
H1557 C1543 0.961 . S
H1558 C1543 0.961 . S
H1559 C1543 0.961 . S
H1560 C1544 0.931 . S
H1561 C1549 0.930 . S
H1562 C1550 0.956 . S
H1563 C1550 0.961 . S
H1564 C1550 0.961 . S
H1565 C1551 0.958 . S
H1566 C1551 0.961 . S
H1567 C1551 0.960 . S
C1568 C1569 1.391 . S
C1568 C1570 1.394 . S
C1568 H1584 0.931 . S
C1569 C1568 1.391 . S
C1569 C1573 1.376 . S
C1570 C1568 1.394 . S
C1570 C1571 1.369 . S
C1570 C1574 1.531 . S
C1571 C1570 1.369 . S
C1571 C1572 1.410 . S
C1571 C1579 1.503 1_556 S
C1572 C1571 1.410 . S
C1572 C1573 1.392 . S
C1572 C1575 1.511 1_556 S
C1573 C1569 1.376 . S
C1573 C1572 1.392 . S
C1573 H1585 0.929 . S
C1574 C1570 1.531 . S
C1574 H1586 0.960 . S
C1574 H1587 0.962 . S
C1574 H1588 0.960 . S
C1575 C1572 1.511 1_554 S
C1575 H1589 0.961 . S
C1575 H1590 0.961 . S
C1575 H1591 0.961 . S
C1576 C1577 1.370 . S
C1576 C1578 1.363 . S
C1576 H1592 0.931 . S
C1577 C1576 1.370 . S
C1577 C1581 1.408 . S
C1578 C1576 1.363 . S
C1578 C1579 1.370 . S
C1578 C1582 1.524 . S
C1579 C1571 1.503 1_554 S
C1579 C1578 1.370 . S
C1579 C1580 1.403 . S
C1580 C1579 1.403 . S
C1580 C1581 1.404 . S
C1580 C1583 1.539 . S
C1581 C1577 1.408 . S
C1581 C1580 1.404 . S
C1581 H1593 0.930 . S
C1582 C1578 1.524 . S
C1582 H1594 0.956 1_554 S
C1582 H1595 0.961 . S
C1582 H1596 0.961 . S
C1583 C1580 1.539 . S
C1583 H1597 0.968 . S
C1583 H1598 0.961 . S
C1583 H1599 0.995 . S
H1584 C1568 0.931 . S
H1585 C1573 0.929 . S
H1586 C1574 0.960 . S
H1587 C1574 0.962 . S
H1588 C1574 0.960 . S
H1589 C1575 0.961 . S
H1590 C1575 0.961 . S
H1591 C1575 0.961 . S
H1592 C1576 0.931 . S
H1593 C1581 0.930 . S
H1594 C1582 0.956 1_556 S
H1595 C1582 0.961 . S
H1596 C1582 0.961 . S
H1597 C1583 0.968 . S
H1598 C1583 0.961 . S
H1599 C1583 0.995 . S
C1600 C1601 1.391 . S
C1600 C1602 1.394 . S
C1600 H1616 0.931 . S
C1601 C1600 1.391 . S
C1601 C1605 1.376 . S
C1602 C1600 1.394 . S
C1602 C1603 1.369 . S
C1602 C1606 1.531 . S
C1603 C1602 1.369 . S
C1603 C1604 1.410 . S
C1603 C1611 1.503 . S
C1604 C1603 1.410 . S
C1604 C1605 1.392 . S
C1604 C1607 1.511 . S
C1605 C1601 1.376 . S
C1605 C1604 1.392 . S
C1605 H1617 0.929 . S
C1606 C1602 1.531 . S
C1606 H1618 0.960 . S
C1606 H1619 0.962 . S
C1606 H1620 0.960 . S
C1607 C1604 1.511 . S
C1607 H1621 0.961 . S
C1607 H1622 0.961 . S
C1607 H1623 0.961 . S
C1608 C1609 1.370 . S
C1608 C1610 1.363 . S
C1608 H1624 0.931 . S
C1609 C1608 1.370 . S
C1609 C1613 1.408 . S
C1610 C1608 1.363 . S
C1610 C1611 1.370 . S
C1610 C1614 1.524 . S
C1611 C1603 1.503 . S
C1611 C1610 1.370 . S
C1611 C1612 1.403 . S
C1612 C1611 1.403 . S
C1612 C1613 1.404 . S
C1612 C1615 1.539 . S
C1613 C1609 1.408 . S
C1613 C1612 1.404 . S
C1613 H1625 0.930 . S
C1614 C1610 1.524 . S
C1614 H1626 0.956 . S
C1614 H1627 0.961 . S
C1614 H1628 0.961 . S
C1615 C1612 1.539 . S
C1615 H1629 0.958 . S
C1615 H1630 0.961 . S
C1615 H1631 0.960 . S
H1616 C1600 0.931 . S
H1617 C1605 0.929 . S
H1618 C1606 0.960 . S
H1619 C1606 0.962 . S
H1620 C1606 0.960 . S
H1621 C1607 0.961 . S
H1622 C1607 0.961 . S
H1623 C1607 0.961 . S
H1624 C1608 0.931 . S
H1625 C1613 0.930 . S
H1626 C1614 0.956 . S
H1627 C1614 0.961 . S
H1628 C1614 0.961 . S
H1629 C1615 0.958 . S
H1630 C1615 0.961 . S
H1631 C1615 0.960 . S
C1632 C1633 1.391 . S
C1632 C1634 1.394 . S
C1632 H1648 0.931 . S
C1633 C1632 1.391 . S
C1633 C1637 1.376 . S
C1634 C1632 1.394 . S
C1634 C1635 1.369 . S
C1634 C1638 1.531 . S
C1635 C1634 1.369 . S
C1635 C1636 1.410 . S
C1635 C1643 1.503 . S
C1636 C1635 1.410 . S
C1636 C1637 1.392 . S
C1636 C1639 1.511 . S
C1637 C1633 1.376 . S
C1637 C1636 1.392 . S
C1637 H1649 0.929 . S
C1638 C1634 1.531 . S
C1638 H1650 0.960 . S
C1638 H1651 0.962 . S
C1638 H1652 0.960 . S
C1639 C1636 1.511 . S
C1639 H1653 0.961 . S
C1639 H1654 0.961 . S
C1639 H1655 0.961 . S
C1640 C1641 1.370 . S
C1640 C1642 1.363 . S
C1640 H1656 0.931 . S
C1641 C1640 1.370 . S
C1641 C1645 1.408 . S
C1642 C1640 1.363 . S
C1642 C1643 1.370 . S
C1642 C1646 1.524 . S
C1643 C1635 1.503 . S
C1643 C1642 1.370 . S
C1643 C1644 1.403 . S
C1644 C1643 1.403 . S
C1644 C1645 1.404 . S
C1644 C1647 1.539 . S
C1645 C1641 1.408 . S
C1645 C1644 1.404 . S
C1645 H1657 0.930 . S
C1646 C1642 1.524 . S
C1646 H1658 0.956 . S
C1646 H1659 0.961 . S
C1646 H1660 0.961 . S
C1647 C1644 1.539 . S
C1647 H1661 0.958 . S
C1647 H1662 0.961 . S
C1647 H1663 0.960 . S
H1648 C1632 0.931 . S
H1649 C1637 0.929 . S
H1650 C1638 0.960 . S
H1651 C1638 0.962 . S
H1652 C1638 0.960 . S
H1653 C1639 0.961 . S
H1654 C1639 0.961 . S
H1655 C1639 0.961 . S
H1656 C1640 0.931 . S
H1657 C1645 0.930 . S
H1658 C1646 0.956 . S
H1659 C1646 0.961 . S
H1660 C1646 0.961 . S
H1661 C1647 0.958 . S
H1662 C1647 0.961 . S
H1663 C1647 0.960 . S
C1664 C1665 1.391 . S
C1664 C1666 1.394 . S
C1664 H1680 0.931 . S
C1665 C1664 1.391 . S
C1665 C1669 1.376 . S
C1666 C1664 1.394 . S
C1666 C1667 1.369 . S
C1666 C1670 1.531 . S
C1667 C1666 1.369 . S
C1667 C1668 1.410 . S
C1667 C1675 1.503 . S
C1668 C1667 1.410 . S
C1668 C1669 1.392 . S
C1668 C1671 1.511 . S
C1669 C1665 1.376 . S
C1669 C1668 1.392 . S
C1669 H1681 0.929 . S
C1670 C1666 1.531 . S
C1670 H1682 0.960 . S
C1670 H1683 0.962 . S
C1670 H1684 0.960 . S
C1671 C1668 1.511 . S
C1671 H1685 0.961 . S
C1671 H1686 0.961 . S
C1671 H1687 0.961 . S
C1672 C1673 1.370 . S
C1672 C1674 1.363 . S
C1672 H1688 0.931 . S
C1673 C1672 1.370 . S
C1673 C1677 1.408 . S
C1674 C1672 1.363 . S
C1674 C1675 1.370 . S
C1674 C1678 1.524 . S
C1675 C1667 1.503 . S
C1675 C1674 1.370 . S
C1675 C1676 1.403 . S
C1676 C1675 1.403 . S
C1676 C1677 1.404 . S
C1676 C1679 1.539 . S
C1677 C1673 1.408 . S
C1677 C1676 1.404 . S
C1677 H1689 0.930 . S
C1678 C1674 1.524 . S
C1678 H1690 0.956 . S
C1678 H1691 0.961 . S
C1678 H1692 0.961 . S
C1679 C1676 1.539 . S
C1679 H1693 0.958 . S
C1679 H1694 0.961 . S
C1679 H1695 0.960 . S
H1680 C1664 0.931 . S
H1681 C1669 0.929 . S
H1682 C1670 0.960 . S
H1683 C1670 0.962 . S
H1684 C1670 0.960 . S
H1685 C1671 0.961 . S
H1686 C1671 0.961 . S
H1687 C1671 0.961 . S
H1688 C1672 0.931 . S
H1689 C1677 0.930 . S
H1690 C1678 0.956 . S
H1691 C1678 0.961 . S
H1692 C1678 0.961 . S
H1693 C1679 0.958 . S
H1694 C1679 0.961 . S
H1695 C1679 0.960 . S
C1696 C1697 1.391 . S
C1696 C1698 1.394 . S
C1696 H1712 0.931 . S
C1697 C1696 1.391 . S
C1697 C1701 1.376 . S
C1698 C1696 1.394 . S
C1698 C1699 1.369 . S
C1698 C1702 1.531 . S
C1699 C1698 1.369 . S
C1699 C1700 1.410 . S
C1699 C1707 1.503 1_556 S
C1700 C1699 1.410 . S
C1700 C1701 1.392 . S
C1700 C1703 1.557 . S
C1701 C1697 1.376 . S
C1701 C1700 1.392 . S
C1701 H1713 0.929 . S
C1702 C1698 1.531 . S
C1702 H1714 0.960 1_556 S
C1702 H1715 0.962 . S
C1702 H1716 0.960 . S
C1703 C1700 1.557 . S
C1703 H1717 1.010 . S
C1703 H1718 0.920 1_556 S
C1703 H1719 0.914 1_556 S
C1704 C1705 1.370 . S
C1704 C1706 1.363 . S
C1704 H1720 0.931 . S
C1705 C1704 1.370 . S
C1705 C1709 1.408 . S
C1706 C1704 1.363 . S
C1706 C1707 1.370 . S
C1706 C1710 1.524 1_554 S
C1707 C1699 1.503 1_554 S
C1707 C1706 1.370 . S
C1707 C1708 1.403 . S
C1708 C1707 1.403 . S
C1708 C1709 1.404 . S
C1708 C1711 1.539 . S
C1709 C1705 1.408 . S
C1709 C1708 1.404 . S
C1709 H1721 0.930 . S
C1710 C1706 1.524 1_556 S
C1710 H1722 0.956 . S
C1710 H1723 0.961 . S
C1710 H1724 0.961 . S
C1711 C1708 1.539 . S
C1711 H1725 0.958 . S
C1711 H1726 0.961 . S
C1711 H1727 0.960 . S
H1712 C1696 0.931 . S
H1713 C1701 0.929 . S
H1714 C1702 0.960 1_554 S
H1715 C1702 0.962 . S
H1716 C1702 0.960 . S
H1717 C1703 1.010 . S
H1718 C1703 0.920 1_554 S
H1719 C1703 0.914 1_554 S
H1720 C1704 0.931 . S
H1721 C1709 0.930 . S
H1722 C1710 0.956 . S
H1723 C1710 0.961 . S
H1724 C1710 0.961 . S
H1725 C1711 0.958 . S
H1726 C1711 0.961 . S
H1727 C1711 0.960 . S
C1728 C1729 1.391 . S
C1728 C1730 1.394 . S
C1728 H1744 0.931 . S
C1729 C1728 1.391 . S
C1729 C1733 1.376 . S
C1730 C1728 1.394 . S
C1730 C1731 1.369 . S
C1730 C1734 1.531 . S
C1731 C1730 1.369 . S
C1731 C1732 1.410 . S
C1731 C1739 1.503 . S
C1732 C1731 1.410 . S
C1732 C1733 1.392 . S
C1732 C1735 1.511 . S
C1733 C1729 1.376 . S
C1733 C1732 1.392 . S
C1733 H1745 0.929 . S
C1734 C1730 1.531 . S
C1734 H1746 0.960 . S
C1734 H1747 0.962 . S
C1734 H1748 0.960 . S
C1735 C1732 1.511 . S
C1735 H1749 0.961 . S
C1735 H1750 0.961 . S
C1735 H1751 0.961 . S
C1736 C1737 1.370 . S
C1736 C1738 1.363 . S
C1736 H1752 0.931 . S
C1737 C1736 1.370 . S
C1737 C1741 1.408 . S
C1738 C1736 1.363 . S
C1738 C1739 1.370 . S
C1738 C1742 1.524 . S
C1739 C1731 1.503 . S
C1739 C1738 1.370 . S
C1739 C1740 1.403 . S
C1740 C1739 1.403 . S
C1740 C1741 1.404 . S
C1740 C1743 1.539 . S
C1741 C1737 1.408 . S
C1741 C1740 1.404 . S
C1741 H1753 0.930 . S
C1742 C1738 1.524 . S
C1742 H1754 0.956 . S
C1742 H1755 0.961 . S
C1742 H1756 0.961 . S
C1743 C1740 1.539 . S
C1743 H1757 0.958 . S
C1743 H1758 0.961 . S
C1743 H1759 0.960 . S
H1744 C1728 0.931 . S
H1745 C1733 0.929 . S
H1746 C1734 0.960 . S
H1747 C1734 0.962 . S
H1748 C1734 0.960 . S
H1749 C1735 0.961 . S
H1750 C1735 0.961 . S
H1751 C1735 0.961 . S
H1752 C1736 0.931 . S
H1753 C1741 0.930 . S
H1754 C1742 0.956 . S
H1755 C1742 0.961 . S
H1756 C1742 0.961 . S
H1757 C1743 0.958 . S
H1758 C1743 0.961 . S
H1759 C1743 0.960 . S
C1760 C1761 1.391 . S
C1760 C1762 1.394 . S
C1760 H1776 0.931 . S
C1761 C1760 1.391 . S
C1761 C1765 1.376 . S
C1762 C1760 1.394 . S
C1762 C1763 1.369 . S
C1762 C1766 1.531 . S
C1763 C1762 1.369 . S
C1763 C1764 1.410 . S
C1763 C1771 1.503 . S
C1764 C1763 1.410 . S
C1764 C1765 1.392 . S
C1764 C1767 1.511 . S
C1765 C1761 1.376 . S
C1765 C1764 1.392 . S
C1765 H1777 0.929 . S
C1766 C1762 1.531 . S
C1766 H1778 0.960 . S
C1766 H1779 0.962 . S
C1766 H1780 0.960 . S
C1767 C1764 1.511 . S
C1767 H1781 0.961 . S
C1767 H1782 0.961 . S
C1767 H1783 0.961 . S
C1768 C1769 1.370 . S
C1768 C1770 1.363 . S
C1768 H1784 0.931 . S
C1769 C1768 1.370 . S
C1769 C1773 1.408 . S
C1770 C1768 1.363 . S
C1770 C1771 1.370 . S
C1770 C1774 1.524 . S
C1771 C1763 1.503 . S
C1771 C1770 1.370 . S
C1771 C1772 1.403 . S
C1772 C1771 1.403 . S
C1772 C1773 1.404 . S
C1772 C1775 1.539 . S
C1773 C1769 1.408 . S
C1773 C1772 1.404 . S
C1773 H1785 0.930 . S
C1774 C1770 1.524 . S
C1774 H1786 0.956 . S
C1774 H1787 0.961 . S
C1774 H1788 0.961 . S
C1775 C1772 1.539 . S
C1775 H1789 0.958 . S
C1775 H1790 0.961 . S
C1775 H1791 0.960 . S
H1776 C1760 0.931 . S
H1777 C1765 0.929 . S
H1778 C1766 0.960 . S
H1779 C1766 0.962 . S
H1780 C1766 0.960 . S
H1781 C1767 0.961 . S
H1782 C1767 0.961 . S
H1783 C1767 0.961 . S
H1784 C1768 0.931 . S
H1785 C1773 0.930 . S
H1786 C1774 0.956 . S
H1787 C1774 0.961 . S
H1788 C1774 0.961 . S
H1789 C1775 0.958 . S
H1790 C1775 0.961 . S
H1791 C1775 0.960 . S
C1792 C1793 1.391 . S
C1792 C1794 1.394 . S
C1792 H1808 0.931 . S
C1793 C1792 1.391 . S
C1793 C1797 1.376 . S
C1794 C1792 1.394 . S
C1794 C1795 1.369 . S
C1794 C1798 1.531 . S
C1795 C1794 1.369 . S
C1795 C1796 1.410 . S
C1795 C1803 1.503 . S
C1796 C1795 1.410 . S
C1796 C1797 1.392 . S
C1796 C1799 1.511 . S
C1797 C1793 1.376 . S
C1797 C1796 1.392 . S
C1797 H1809 0.929 . S
C1798 C1794 1.531 . S
C1798 H1810 0.960 . S
C1798 H1811 0.962 . S
C1798 H1812 0.960 . S
C1799 C1796 1.511 . S
C1799 H1813 0.961 . S
C1799 H1814 0.961 . S
C1799 H1815 0.961 . S
C1800 C1801 1.370 . S
C1800 C1802 1.363 . S
C1800 H1816 0.931 . S
C1801 C1800 1.370 . S
C1801 C1805 1.408 . S
C1802 C1800 1.363 . S
C1802 C1803 1.370 . S
C1802 C1806 1.524 . S
C1803 C1795 1.503 . S
C1803 C1802 1.370 . S
C1803 C1804 1.403 . S
C1804 C1803 1.403 . S
C1804 C1805 1.404 . S
C1804 C1807 1.539 . S
C1805 C1801 1.408 . S
C1805 C1804 1.404 . S
C1805 H1817 0.973 . S
C1806 C1802 1.524 . S
C1806 H1818 0.956 . S
C1806 H1819 0.961 . S
C1806 H1820 0.961 . S
C1807 C1804 1.539 . S
C1807 H1821 0.958 1_545 S
C1807 H1822 0.961 1_545 S
C1807 H1823 0.960 . S
H1808 C1792 0.931 . S
H1809 C1797 0.929 . S
H1810 C1798 0.960 . S
H1811 C1798 0.962 . S
H1812 C1798 0.960 . S
H1813 C1799 0.961 . S
H1814 C1799 0.961 . S
H1815 C1799 0.961 . S
H1816 C1800 0.931 . S
H1817 C1805 0.973 . S
H1818 C1806 0.956 . S
H1819 C1806 0.961 . S
H1820 C1806 0.961 . S
H1821 C1807 0.958 1_565 S
H1822 C1807 0.961 1_565 S
H1823 C1807 0.960 . S
C1824 C1825 1.391 . S
C1824 C1826 1.394 . S
C1824 H1840 0.931 . S
C1825 C1824 1.391 . S
C1825 C1829 1.376 . S
C1826 C1824 1.394 . S
C1826 C1827 1.369 . S
C1826 C1830 1.531 . S
C1827 C1826 1.369 . S
C1827 C1828 1.410 . S
C1827 C1835 1.503 . S
C1828 C1827 1.410 . S
C1828 C1829 1.392 . S
C1828 C1831 1.511 . S
C1829 C1825 1.376 . S
C1829 C1828 1.392 . S
C1829 H1841 0.929 . S
C1830 C1826 1.531 . S
C1830 H1842 0.960 . S
C1830 H1843 0.962 . S
C1830 H1844 0.960 . S
C1831 C1828 1.511 . S
C1831 H1845 0.961 . S
C1831 H1846 0.961 . S
C1831 H1847 0.961 . S
C1832 C1833 1.370 . S
C1832 C1834 1.363 . S
C1832 H1848 0.931 . S
C1833 C1832 1.370 . S
C1833 C1837 1.408 . S
C1834 C1832 1.363 . S
C1834 C1835 1.370 . S
C1834 C1838 1.524 . S
C1835 C1827 1.503 . S
C1835 C1834 1.370 . S
C1835 C1836 1.403 . S
C1836 C1835 1.403 . S
C1836 C1837 1.404 . S
C1836 C1839 1.539 . S
C1837 C1833 1.408 . S
C1837 C1836 1.404 . S
C1837 H1849 0.930 . S
C1838 C1834 1.524 . S
C1838 H1850 0.956 . S
C1838 H1851 0.961 . S
C1838 H1852 0.961 . S
C1839 C1836 1.539 . S
C1839 H1853 0.958 . S
C1839 H1854 0.961 . S
C1839 H1855 0.960 . S
H1840 C1824 0.931 . S
H1841 C1829 0.929 . S
H1842 C1830 0.960 . S
H1843 C1830 0.962 . S
H1844 C1830 0.960 . S
H1845 C1831 0.961 . S
H1846 C1831 0.961 . S
H1847 C1831 0.961 . S
H1848 C1832 0.931 . S
H1849 C1837 0.930 . S
H1850 C1838 0.956 . S
H1851 C1838 0.961 . S
H1852 C1838 0.961 . S
H1853 C1839 0.958 . S
H1854 C1839 0.961 . S
H1855 C1839 0.960 . S
C1856 C1857 1.391 . S
C1856 C1858 1.394 . S
C1856 H1872 0.931 . S
C1857 C1856 1.391 . S
C1857 C1861 1.376 . S
C1858 C1856 1.394 . S
C1858 C1859 1.369 . S
C1858 C1862 1.531 . S
C1859 C1858 1.369 . S
C1859 C1860 1.410 . S
C1859 C1867 1.503 . S
C1860 C1859 1.410 . S
C1860 C1861 1.392 . S
C1860 C1863 1.511 . S
C1861 C1857 1.376 . S
C1861 C1860 1.392 . S
C1861 H1873 0.929 . S
C1862 C1858 1.531 . S
C1862 H1874 0.960 . S
C1862 H1875 0.962 . S
C1862 H1876 0.960 . S
C1863 C1860 1.511 . S
C1863 H1877 0.961 . S
C1863 H1878 0.961 . S
C1863 H1879 0.961 . S
C1864 C1865 1.370 . S
C1864 C1866 1.363 . S
C1864 H1880 0.931 . S
C1865 C1864 1.370 . S
C1865 C1869 1.408 . S
C1866 C1864 1.363 . S
C1866 C1867 1.370 . S
C1866 C1870 1.524 . S
C1867 C1859 1.503 . S
C1867 C1866 1.370 . S
C1867 C1868 1.403 . S
C1868 C1867 1.403 . S
C1868 C1869 1.404 . S
C1868 C1871 1.539 . S
C1869 C1865 1.408 . S
C1869 C1868 1.404 . S
C1869 H1881 0.873 1_565 S
C1870 C1866 1.524 . S
C1870 H1882 0.956 . S
C1870 H1883 0.961 . S
C1870 H1884 0.961 . S
C1871 C1868 1.539 . S
C1871 H1885 0.958 1_565 S
C1871 H1886 0.961 1_565 S
C1871 H1887 0.960 . S
H1872 C1856 0.931 . S
H1873 C1861 0.929 . S
H1874 C1862 0.960 . S
H1875 C1862 0.962 . S
H1876 C1862 0.960 . S
H1877 C1863 0.961 . S
H1878 C1863 0.961 . S
H1879 C1863 0.961 . S
H1880 C1864 0.931 . S
H1881 C1869 0.873 1_545 S
H1882 C1870 0.956 . S
H1883 C1870 0.961 . S
H1884 C1870 0.961 . S
H1885 C1871 0.958 1_545 S
H1886 C1871 0.961 1_545 S
H1887 C1871 0.960 . S
C1888 C1889 1.391 . S
C1888 C1890 1.394 . S
C1888 H1904 0.931 . S
C1889 C1888 1.391 . S
C1889 C1893 1.376 . S
C1890 C1888 1.394 . S
C1890 C1891 1.369 . S
C1890 C1894 1.531 . S
C1891 C1890 1.369 . S
C1891 C1892 1.410 . S
C1891 C1899 1.503 . S
C1892 C1891 1.410 . S
C1892 C1893 1.392 . S
C1892 C1895 1.511 . S
C1893 C1889 1.376 . S
C1893 C1892 1.392 . S
C1893 H1905 0.929 . S
C1894 C1890 1.531 . S
C1894 H1906 0.960 . S
C1894 H1907 0.962 . S
C1894 H1908 0.960 . S
C1895 C1892 1.511 . S
C1895 H1909 0.961 . S
C1895 H1910 0.961 . S
C1895 H1911 0.961 . S
C1896 C1897 1.370 . S
C1896 C1898 1.363 . S
C1896 H1912 0.931 . S
C1897 C1896 1.370 . S
C1897 C1901 1.408 . S
C1898 C1896 1.363 . S
C1898 C1899 1.370 . S
C1898 C1902 1.524 . S
C1899 C1891 1.503 . S
C1899 C1898 1.370 . S
C1899 C1900 1.403 . S
C1900 C1899 1.403 . S
C1900 C1901 1.404 . S
C1900 C1903 1.539 . S
C1901 C1897 1.408 . S
C1901 C1900 1.404 . S
C1901 H1913 0.915 1_545 S
C1902 C1898 1.524 . S
C1902 H1914 0.956 . S
C1902 H1915 0.961 . S
C1902 H1916 0.961 . S
C1903 C1900 1.539 . S
C1903 H1917 0.958 . S
C1903 H1918 0.961 1_545 S
C1903 H1919 0.960 . S
H1904 C1888 0.931 . S
H1905 C1893 0.929 . S
H1906 C1894 0.960 . S
H1907 C1894 0.962 . S
H1908 C1894 0.960 . S
H1909 C1895 0.961 . S
H1910 C1895 0.961 . S
H1911 C1895 0.961 . S
H1912 C1896 0.931 . S
H1913 C1901 0.915 1_565 S
H1914 C1902 0.956 . S
H1915 C1902 0.961 . S
H1916 C1902 0.961 . S
H1917 C1903 0.958 . S
H1918 C1903 0.961 1_565 S
H1919 C1903 0.960 . S
C1920 C1921 1.391 . S
C1920 C1922 1.394 . S
C1920 H1936 0.931 . S
C1921 C1920 1.391 . S
C1921 C1925 1.376 . S
C1922 C1920 1.394 . S
C1922 C1923 1.369 . S
C1922 C1926 1.531 . S
C1923 C1922 1.369 . S
C1923 C1924 1.410 . S
C1923 C1931 1.503 . S
C1924 C1923 1.410 . S
C1924 C1925 1.392 . S
C1924 C1927 1.511 . S
C1925 C1921 1.376 . S
C1925 C1924 1.392 . S
C1925 H1937 0.929 . S
C1926 C1922 1.531 . S
C1926 H1938 0.960 . S
C1926 H1939 0.962 . S
C1926 H1940 0.960 . S
C1927 C1924 1.511 . S
C1927 H1941 0.961 . S
C1927 H1942 0.961 . S
C1927 H1943 0.961 . S
C1928 C1929 1.370 . S
C1928 C1930 1.363 . S
C1928 H1944 0.931 . S
C1929 C1928 1.370 . S
C1929 C1933 1.408 . S
C1930 C1928 1.363 . S
C1930 C1931 1.370 . S
C1930 C1934 1.524 . S
C1931 C1923 1.503 . S
C1931 C1930 1.370 . S
C1931 C1932 1.403 . S
C1932 C1931 1.403 . S
C1932 C1933 1.404 . S
C1932 C1935 1.539 . S
C1933 C1929 1.408 . S
C1933 C1932 1.404 . S
C1933 H1945 0.903 1_565 S
C1934 C1930 1.524 . S
C1934 H1946 0.956 . S
C1934 H1947 0.961 . S
C1934 H1948 0.961 . S
C1935 C1932 1.539 . S
C1935 H1949 0.958 . S
C1935 H1950 0.961 1_565 S
C1935 H1951 0.960 . S
H1936 C1920 0.931 . S
H1937 C1925 0.929 . S
H1938 C1926 0.960 . S
H1939 C1926 0.962 . S
H1940 C1926 0.960 . S
H1941 C1927 0.961 . S
H1942 C1927 0.961 . S
H1943 C1927 0.961 . S
H1944 C1928 0.931 . S
H1945 C1933 0.903 1_545 S
H1946 C1934 0.956 . S
H1947 C1934 0.961 . S
H1948 C1934 0.961 . S
H1949 C1935 0.958 . S
H1950 C1935 0.961 1_545 S
H1951 C1935 0.960 . S
C1952 C1953 1.391 . S
C1952 C1954 1.394 . S
C1952 H1968 0.931 . S
C1953 C1952 1.391 . S
C1953 C1957 1.376 . S
C1954 C1952 1.394 . S
C1954 C1955 1.369 . S
C1954 C1958 1.531 . S
C1955 C1954 1.369 . S
C1955 C1956 1.410 . S
C1955 C1963 1.503 . S
C1956 C1955 1.410 . S
C1956 C1957 1.392 . S
C1956 C1959 1.511 . S
C1957 C1953 1.376 . S
C1957 C1956 1.392 . S
C1957 H1969 0.929 . S
C1958 C1954 1.531 . S
C1958 H1970 0.960 . S
C1958 H1971 0.962 . S
C1958 H1972 0.960 . S
C1959 C1956 1.511 . S
C1959 H1973 0.961 . S
C1959 H1974 0.961 . S
C1959 H1975 0.961 . S
C1960 C1961 1.370 . S
C1960 C1962 1.363 . S
C1960 H1976 0.931 . S
C1961 C1960 1.370 . S
C1961 C1965 1.408 . S
C1962 C1960 1.363 . S
C1962 C1963 1.370 . S
C1962 C1966 1.524 . S
C1963 C1955 1.503 . S
C1963 C1962 1.370 . S
C1963 C1964 1.403 . S
C1964 C1963 1.403 . S
C1964 C1965 1.404 . S
C1964 C1967 1.539 . S
C1965 C1961 1.408 . S
C1965 C1964 1.404 . S
C1965 H1977 0.930 . S
C1966 C1962 1.524 . S
C1966 H1978 0.956 . S
C1966 H1979 0.961 . S
C1966 H1980 0.961 1_545 S
C1967 C1964 1.539 . S
C1967 H1981 0.958 . S
C1967 H1982 0.961 . S
C1967 H1983 0.960 . S
H1968 C1952 0.931 . S
H1969 C1957 0.929 . S
H1970 C1958 0.960 . S
H1971 C1958 0.962 . S
H1972 C1958 0.960 . S
H1973 C1959 0.961 . S
H1974 C1959 0.961 . S
H1975 C1959 0.961 . S
H1976 C1960 0.931 . S
H1977 C1965 0.930 . S
H1978 C1966 0.956 . S
H1979 C1966 0.961 . S
H1980 C1966 0.961 1_565 S
H1981 C1967 0.958 . S
H1982 C1967 0.961 . S
H1983 C1967 0.960 . S
C1984 C1985 1.391 . S
C1984 C1986 1.394 . S
C1984 H2000 0.931 . S
C1985 C1984 1.391 . S
C1985 C1989 1.376 . S
C1986 C1984 1.394 . S
C1986 C1987 1.369 . S
C1986 C1990 1.531 . S
C1987 C1986 1.369 . S
C1987 C1988 1.410 . S
C1987 C1995 1.503 . S
C1988 C1987 1.410 . S
C1988 C1989 1.392 . S
C1988 C1991 1.511 . S
C1989 C1985 1.376 . S
C1989 C1988 1.392 . S
C1989 H2001 0.929 . S
C1990 C1986 1.531 . S
C1990 H2002 0.960 . S
C1990 H2003 0.962 . S
C1990 H2004 0.960 . S
C1991 C1988 1.511 . S
C1991 H2005 0.961 . S
C1991 H2006 0.961 . S
C1991 H2007 0.961 . S
C1992 C1993 1.370 . S
C1992 C1994 1.363 . S
C1992 H2008 0.931 . S
C1993 C1992 1.370 . S
C1993 C1997 1.408 . S
C1994 C1992 1.363 . S
C1994 C1995 1.370 . S
C1994 C1998 1.524 . S
C1995 C1987 1.503 . S
C1995 C1994 1.370 . S
C1995 C1996 1.403 . S
C1996 C1995 1.403 . S
C1996 C1997 1.404 . S
C1996 C1999 1.539 . S
C1997 C1993 1.408 . S
C1997 C1996 1.404 . S
C1997 H2009 0.930 . S
C1998 C1994 1.524 . S
C1998 H2010 0.956 . S
C1998 H2011 0.961 . S
C1998 H2012 0.961 . S
C1999 C1996 1.539 . S
C1999 H2013 0.958 . S
C1999 H2014 0.961 . S
C1999 H2015 0.960 . S
H2000 C1984 0.931 . S
H2001 C1989 0.929 . S
H2002 C1990 0.960 . S
H2003 C1990 0.962 . S
H2004 C1990 0.960 . S
H2005 C1991 0.961 . S
H2006 C1991 0.961 . S
H2007 C1991 0.961 . S
H2008 C1992 0.931 . S
H2009 C1997 0.930 . S
H2010 C1998 0.956 . S
H2011 C1998 0.961 . S
H2012 C1998 0.961 . S
H2013 C1999 0.958 . S
H2014 C1999 0.961 . S
H2015 C1999 0.960 . S
C2016 C2017 1.391 . S
C2016 C2018 1.394 . S
C2016 H2032 0.931 . S
C2017 C2016 1.391 . S
C2017 C2021 1.376 . S
C2018 C2016 1.394 . S
C2018 C2019 1.369 . S
C2018 C2022 1.531 . S
C2019 C2018 1.369 . S
C2019 C2020 1.410 . S
C2019 C2027 1.503 . S
C2020 C2019 1.410 . S
C2020 C2021 1.392 . S
C2020 C2023 1.511 . S
C2021 C2017 1.376 . S
C2021 C2020 1.392 . S
C2021 H2033 0.929 . S
C2022 C2018 1.531 . S
C2022 H2034 0.960 . S
C2022 H2035 0.962 . S
C2022 H2036 0.960 . S
C2023 C2020 1.511 . S
C2023 H2037 0.961 . S
C2023 H2038 0.961 . S
C2023 H2039 0.961 . S
C2024 C2025 1.370 . S
C2024 C2026 1.363 . S
C2024 H2040 0.931 . S
C2025 C2024 1.370 . S
C2025 C2029 1.408 . S
C2026 C2024 1.363 . S
C2026 C2027 1.370 . S
C2026 C2030 1.524 . S
C2027 C2019 1.503 . S
C2027 C2026 1.370 . S
C2027 C2028 1.403 . S
C2028 C2027 1.403 . S
C2028 C2029 1.404 . S
C2028 C2031 1.539 . S
C2029 C2025 1.408 . S
C2029 C2028 1.404 . S
C2029 H2041 0.930 . S
C2030 C2026 1.524 . S
C2030 H2042 0.956 . S
C2030 H2043 0.961 . S
C2030 H2044 0.961 . S
C2031 C2028 1.539 . S
C2031 H2045 0.958 . S
C2031 H2046 0.961 . S
C2031 H2047 0.960 . S
H2032 C2016 0.931 . S
H2033 C2021 0.929 . S
H2034 C2022 0.960 . S
H2035 C2022 0.962 . S
H2036 C2022 0.960 . S
H2037 C2023 0.961 . S
H2038 C2023 0.961 . S
H2039 C2023 0.961 . S
H2040 C2024 0.931 . S
H2041 C2029 0.930 . S
H2042 C2030 0.956 . S
H2043 C2030 0.961 . S
H2044 C2030 0.961 . S
H2045 C2031 0.958 . S
H2046 C2031 0.961 . S
H2047 C2031 0.960 . S
C2048 C2049 1.391 . S
C2048 C2050 1.394 . S
C2048 H2064 0.931 . S
C2049 C2048 1.391 . S
C2049 C2053 1.376 . S
C2050 C2048 1.394 . S
C2050 C2051 1.369 . S
C2050 C2054 1.531 . S
C2051 C2050 1.369 . S
C2051 C2052 1.410 . S
C2051 C2059 1.503 . S
C2052 C2051 1.410 . S
C2052 C2053 1.392 . S
C2052 C2055 1.511 . S
C2053 C2049 1.376 . S
C2053 C2052 1.392 . S
C2053 H2065 0.929 . S
C2054 C2050 1.531 . S
C2054 H2066 0.960 . S
C2054 H2067 0.962 . S
C2054 H2068 0.960 . S
C2055 C2052 1.511 . S
C2055 H2069 0.961 . S
C2055 H2070 0.961 . S
C2055 H2071 0.961 . S
C2056 C2057 1.370 . S
C2056 C2058 1.363 . S
C2056 H2072 0.931 . S
C2057 C2056 1.370 . S
C2057 C2061 1.408 . S
C2058 C2056 1.363 . S
C2058 C2059 1.370 . S
C2058 C2062 1.524 . S
C2059 C2051 1.503 . S
C2059 C2058 1.370 . S
C2059 C2060 1.403 . S
C2060 C2059 1.403 . S
C2060 C2061 1.404 . S
C2060 C2063 1.539 . S
C2061 C2057 1.408 . S
C2061 C2060 1.404 . S
C2061 H2073 0.930 . S
C2062 C2058 1.524 . S
C2062 H2074 0.956 . S
C2062 H2075 0.961 . S
C2062 H2076 0.961 . S
C2063 C2060 1.539 . S
C2063 H2077 0.958 . S
C2063 H2078 0.961 . S
C2063 H2079 0.960 . S
H2064 C2048 0.931 . S
H2065 C2053 0.929 . S
H2066 C2054 0.960 . S
H2067 C2054 0.962 . S
H2068 C2054 0.960 . S
H2069 C2055 0.961 . S
H2070 C2055 0.961 . S
H2071 C2055 0.961 . S
H2072 C2056 0.931 . S
H2073 C2061 0.930 . S
H2074 C2062 0.956 . S
H2075 C2062 0.961 . S
H2076 C2062 0.961 . S
H2077 C2063 0.958 . S
H2078 C2063 0.961 . S
H2079 C2063 0.960 . S
C2080 C2081 1.391 . S
C2080 C2082 1.394 . S
C2080 H2096 0.931 . S
C2081 C2080 1.391 . S
C2081 C2085 1.376 . S
C2082 C2080 1.394 . S
C2082 C2083 1.369 . S
C2082 C2086 1.531 . S
C2083 C2082 1.369 . S
C2083 C2084 1.410 . S
C2083 C2091 1.503 . S
C2084 C2083 1.410 . S
C2084 C2085 1.392 . S
C2084 C2087 1.511 . S
C2085 C2081 1.376 . S
C2085 C2084 1.392 . S
C2085 H2097 0.929 . S
C2086 C2082 1.531 . S
C2086 H2098 0.960 . S
C2086 H2099 0.962 . S
C2086 H2100 0.960 . S
C2087 C2084 1.511 . S
C2087 H2101 0.961 . S
C2087 H2102 0.961 . S
C2087 H2103 0.961 . S
C2088 C2089 1.370 . S
C2088 C2090 1.363 . S
C2088 H2104 0.931 . S
C2089 C2088 1.370 . S
C2089 C2093 1.408 . S
C2090 C2088 1.363 . S
C2090 C2091 1.370 . S
C2090 C2094 1.524 . S
C2091 C2083 1.503 . S
C2091 C2090 1.370 . S
C2091 C2092 1.403 . S
C2092 C2091 1.403 . S
C2092 C2093 1.404 . S
C2092 C2095 1.539 . S
C2093 C2089 1.408 . S
C2093 C2092 1.404 . S
C2093 H2105 0.930 . S
C2094 C2090 1.524 . S
C2094 H2106 0.956 . S
C2094 H2107 0.961 . S
C2094 H2108 0.961 . S
C2095 C2092 1.539 . S
C2095 H2109 0.958 . S
C2095 H2110 0.961 . S
C2095 H2111 0.960 . S
H2096 C2080 0.931 . S
H2097 C2085 0.929 . S
H2098 C2086 0.960 . S
H2099 C2086 0.962 . S
H2100 C2086 0.960 . S
H2101 C2087 0.961 . S
H2102 C2087 0.961 . S
H2103 C2087 0.961 . S
H2104 C2088 0.931 . S
H2105 C2093 0.930 . S
H2106 C2094 0.956 . S
H2107 C2094 0.961 . S
H2108 C2094 0.961 . S
H2109 C2095 0.958 . S
H2110 C2095 0.961 . S
H2111 C2095 0.960 . S
C2112 C2113 1.391 . S
C2112 C2114 1.394 . S
C2112 H2128 0.931 . S
C2113 C2112 1.391 . S
C2113 C2117 1.376 . S
C2114 C2112 1.394 . S
C2114 C2115 1.369 . S
C2114 C2118 1.531 . S
C2115 C2114 1.369 . S
C2115 C2116 1.410 . S
C2115 C2123 1.503 . S
C2116 C2115 1.410 . S
C2116 C2117 1.392 . S
C2116 C2119 1.511 . S
C2117 C2113 1.376 . S
C2117 C2116 1.392 . S
C2117 H2129 0.929 . S
C2118 C2114 1.531 . S
C2118 H2130 0.960 . S
C2118 H2131 0.962 . S
C2118 H2132 0.960 . S
C2119 C2116 1.511 . S
C2119 H2133 0.961 . S
C2119 H2134 0.961 . S
C2119 H2135 0.961 . S
C2120 C2121 1.370 . S
C2120 C2122 1.363 . S
C2120 H2136 0.931 . S
C2121 C2120 1.370 . S
C2121 C2125 1.408 . S
C2122 C2120 1.363 . S
C2122 C2123 1.370 . S
C2122 C2126 1.524 . S
C2123 C2115 1.503 . S
C2123 C2122 1.370 . S
C2123 C2124 1.403 . S
C2124 C2123 1.403 . S
C2124 C2125 1.404 . S
C2124 C2127 1.539 . S
C2125 C2121 1.408 . S
C2125 C2124 1.404 . S
C2125 H2137 0.930 . S
C2126 C2122 1.524 . S
C2126 H2138 0.956 . S
C2126 H2139 0.961 . S
C2126 H2140 0.961 . S
C2127 C2124 1.539 . S
C2127 H2141 0.958 . S
C2127 H2142 0.961 . S
C2127 H2143 0.960 . S
H2128 C2112 0.931 . S
H2129 C2117 0.929 . S
H2130 C2118 0.960 . S
H2131 C2118 0.962 . S
H2132 C2118 0.960 . S
H2133 C2119 0.961 . S
H2134 C2119 0.961 . S
H2135 C2119 0.961 . S
H2136 C2120 0.931 . S
H2137 C2125 0.930 . S
H2138 C2126 0.956 . S
H2139 C2126 0.961 . S
H2140 C2126 0.961 . S
H2141 C2127 0.958 . S
H2142 C2127 0.961 . S
H2143 C2127 0.960 . S
C2144 C2145 1.391 . S
C2144 C2146 1.394 . S
C2144 H2160 0.931 . S
C2145 C2144 1.391 . S
C2145 C2149 1.376 . S
C2146 C2144 1.394 . S
C2146 C2147 1.369 . S
C2146 C2150 1.531 . S
C2147 C2146 1.369 . S
C2147 C2148 1.410 . S
C2147 C2155 1.503 . S
C2148 C2147 1.410 . S
C2148 C2149 1.392 . S
C2148 C2151 1.511 . S
C2149 C2145 1.376 . S
C2149 C2148 1.392 . S
C2149 H2161 0.929 . S
C2150 C2146 1.531 . S
C2150 H2162 0.960 . S
C2150 H2163 0.962 . S
C2150 H2164 0.960 . S
C2151 C2148 1.511 . S
C2151 H2165 0.961 . S
C2151 H2166 0.961 . S
C2151 H2167 0.961 . S
C2152 C2153 1.370 . S
C2152 C2154 1.363 . S
C2152 H2168 0.931 . S
C2153 C2152 1.370 . S
C2153 C2157 1.408 . S
C2154 C2152 1.363 . S
C2154 C2155 1.370 . S
C2154 C2158 1.524 . S
C2155 C2147 1.503 . S
C2155 C2154 1.370 . S
C2155 C2156 1.403 . S
C2156 C2155 1.403 . S
C2156 C2157 1.404 . S
C2156 C2159 1.539 . S
C2157 C2153 1.408 . S
C2157 C2156 1.404 . S
C2157 H2169 0.930 . S
C2158 C2154 1.524 . S
C2158 H2170 0.956 . S
C2158 H2171 0.961 . S
C2158 H2172 0.961 . S
C2159 C2156 1.539 . S
C2159 H2173 0.958 . S
C2159 H2174 0.961 . S
C2159 H2175 0.960 . S
H2160 C2144 0.931 . S
H2161 C2149 0.929 . S
H2162 C2150 0.960 . S
H2163 C2150 0.962 . S
H2164 C2150 0.960 . S
H2165 C2151 0.961 . S
H2166 C2151 0.961 . S
H2167 C2151 0.961 . S
H2168 C2152 0.931 . S
H2169 C2157 0.930 . S
H2170 C2158 0.956 . S
H2171 C2158 0.961 . S
H2172 C2158 0.961 . S
H2173 C2159 0.958 . S
H2174 C2159 0.961 . S
H2175 C2159 0.960 . S
C2176 C2177 1.391 . S
C2176 C2178 1.394 . S
C2176 H2192 0.931 . S
C2177 C2176 1.391 . S
C2177 C2181 1.376 . S
C2178 C2176 1.394 . S
C2178 C2179 1.369 . S
C2178 C2182 1.531 . S
C2179 C2178 1.369 . S
C2179 C2180 1.410 . S
C2179 C2187 1.503 . S
C2180 C2179 1.410 . S
C2180 C2181 1.392 . S
C2180 C2183 1.511 . S
C2181 C2177 1.376 . S
C2181 C2180 1.392 . S
C2181 H2193 0.929 . S
C2182 C2178 1.531 . S
C2182 H2194 0.960 . S
C2182 H2195 0.962 . S
C2182 H2196 0.960 . S
C2183 C2180 1.511 . S
C2183 H2197 0.961 . S
C2183 H2198 0.961 . S
C2183 H2199 0.961 . S
C2184 C2185 1.370 . S
C2184 C2186 1.363 . S
C2184 H2200 0.931 . S
C2185 C2184 1.370 . S
C2185 C2189 1.408 . S
C2186 C2184 1.363 . S
C2186 C2187 1.370 . S
C2186 C2190 1.524 . S
C2187 C2179 1.503 . S
C2187 C2186 1.370 . S
C2187 C2188 1.403 . S
C2188 C2187 1.403 . S
C2188 C2189 1.404 . S
C2188 C2191 1.539 . S
C2189 C2185 1.408 . S
C2189 C2188 1.404 . S
C2189 H2201 0.930 . S
C2190 C2186 1.524 . S
C2190 H2202 0.956 . S
C2190 H2203 0.961 . S
C2190 H2204 0.961 . S
C2191 C2188 1.539 . S
C2191 H2205 0.958 . S
C2191 H2206 0.961 . S
C2191 H2207 0.960 . S
H2192 C2176 0.931 . S
H2193 C2181 0.929 . S
H2194 C2182 0.960 . S
H2195 C2182 0.962 . S
H2196 C2182 0.960 . S
H2197 C2183 0.961 . S
H2198 C2183 0.961 . S
H2199 C2183 0.961 . S
H2200 C2184 0.931 . S
H2201 C2189 0.930 . S
H2202 C2190 0.956 . S
H2203 C2190 0.961 . S
H2204 C2190 0.961 . S
H2205 C2191 0.958 . S
H2206 C2191 0.961 . S
H2207 C2191 0.960 . S
C2208 C2209 1.391 . S
C2208 C2210 1.394 . S
C2208 H2224 0.931 . S
C2209 C2208 1.391 . S
C2209 C2213 1.376 . S
C2210 C2208 1.394 . S
C2210 C2211 1.369 . S
C2210 C2214 1.531 . S
C2211 C2210 1.369 . S
C2211 C2212 1.410 . S
C2211 C2219 1.503 . S
C2212 C2211 1.410 . S
C2212 C2213 1.392 . S
C2212 C2215 1.511 . S
C2213 C2209 1.376 . S
C2213 C2212 1.392 . S
C2213 H2225 0.929 . S
C2214 C2210 1.531 . S
C2214 H2226 0.960 . S
C2214 H2227 0.962 . S
C2214 H2228 0.960 . S
C2215 C2212 1.511 . S
C2215 H2229 0.961 . S
C2215 H2230 0.961 . S
C2215 H2231 0.961 . S
C2216 C2217 1.370 . S
C2216 C2218 1.363 . S
C2216 H2232 0.931 . S
C2217 C2216 1.370 . S
C2217 C2221 1.408 . S
C2218 C2216 1.363 . S
C2218 C2219 1.370 . S
C2218 C2222 1.524 . S
C2219 C2211 1.503 . S
C2219 C2218 1.370 . S
C2219 C2220 1.403 . S
C2220 C2219 1.403 . S
C2220 C2221 1.404 . S
C2220 C2223 1.539 . S
C2221 C2217 1.408 . S
C2221 C2220 1.404 . S
C2221 H2233 0.930 . S
C2222 C2218 1.524 . S
C2222 H2234 0.956 . S
C2222 H2235 0.961 . S
C2222 H2236 0.961 . S
C2223 C2220 1.539 . S
C2223 H2237 0.958 . S
C2223 H2238 0.961 . S
C2223 H2239 0.960 . S
H2224 C2208 0.931 . S
H2225 C2213 0.929 . S
H2226 C2214 0.960 . S
H2227 C2214 0.962 . S
H2228 C2214 0.960 . S
H2229 C2215 0.961 . S
H2230 C2215 0.961 . S
H2231 C2215 0.961 . S
H2232 C2216 0.931 . S
H2233 C2221 0.930 . S
H2234 C2222 0.956 . S
H2235 C2222 0.961 . S
H2236 C2222 0.961 . S
H2237 C2223 0.958 . S
H2238 C2223 0.961 . S
H2239 C2223 0.960 . S
C2240 C2241 1.391 . S
C2240 C2242 1.394 . S
C2240 H2256 0.931 . S
C2241 C2240 1.391 . S
C2241 C2245 1.376 . S
C2242 C2240 1.394 . S
C2242 C2243 1.369 . S
C2242 C2246 1.531 . S
C2243 C2242 1.369 . S
C2243 C2244 1.410 . S
C2243 C2251 1.503 . S
C2244 C2243 1.410 . S
C2244 C2245 1.392 . S
C2244 C2247 1.511 . S
C2245 C2241 1.376 . S
C2245 C2244 1.392 . S
C2245 H2257 0.929 . S
C2246 C2242 1.531 . S
C2246 H2258 0.960 . S
C2246 H2259 0.962 . S
C2246 H2260 0.960 . S
C2247 C2244 1.511 . S
C2247 H2261 0.961 . S
C2247 H2262 0.961 . S
C2247 H2263 0.961 . S
C2248 C2249 1.370 . S
C2248 C2250 1.363 . S
C2248 H2264 0.931 . S
C2249 C2248 1.370 . S
C2249 C2253 1.408 . S
C2250 C2248 1.363 . S
C2250 C2251 1.370 . S
C2250 C2254 1.524 . S
C2251 C2243 1.503 . S
C2251 C2250 1.370 . S
C2251 C2252 1.403 . S
C2252 C2251 1.403 . S
C2252 C2253 1.404 . S
C2252 C2255 1.539 . S
C2253 C2249 1.408 . S
C2253 C2252 1.404 . S
C2253 H2265 0.930 . S
C2254 C2250 1.524 . S
C2254 H2266 0.956 . S
C2254 H2267 0.961 . S
C2254 H2268 0.961 . S
C2255 C2252 1.539 . S
C2255 H2269 0.958 . S
C2255 H2270 0.961 . S
C2255 H2271 0.960 . S
H2256 C2240 0.931 . S
H2257 C2245 0.929 . S
H2258 C2246 0.960 . S
H2259 C2246 0.962 . S
H2260 C2246 0.960 . S
H2261 C2247 0.961 . S
H2262 C2247 0.961 . S
H2263 C2247 0.961 . S
H2264 C2248 0.931 . S
H2265 C2253 0.930 . S
H2266 C2254 0.956 . S
H2267 C2254 0.961 . S
H2268 C2254 0.961 . S
H2269 C2255 0.958 . S
H2270 C2255 0.961 . S
H2271 C2255 0.960 . S
C2272 C2273 1.391 . S
C2272 C2274 1.394 . S
C2272 H2288 0.931 . S
C2273 C2272 1.391 . S
C2273 C2277 1.376 . S
C2274 C2272 1.394 . S
C2274 C2275 1.369 . S
C2274 C2278 1.531 . S
C2275 C2274 1.369 . S
C2275 C2276 1.410 . S
C2275 C2283 1.503 . S
C2276 C2275 1.410 . S
C2276 C2277 1.392 . S
C2276 C2279 1.511 . S
C2277 C2273 1.376 . S
C2277 C2276 1.392 . S
C2277 H2289 0.929 . S
C2278 C2274 1.531 . S
C2278 H2290 0.960 . S
C2278 H2291 0.962 . S
C2278 H2292 0.960 . S
C2279 C2276 1.511 . S
C2279 H2293 0.961 . S
C2279 H2294 0.961 . S
C2279 H2295 0.961 . S
C2280 C2281 1.370 . S
C2280 C2282 1.363 . S
C2280 H2296 0.931 . S
C2281 C2280 1.370 . S
C2281 C2285 1.408 . S
C2282 C2280 1.363 . S
C2282 C2283 1.370 . S
C2282 C2286 1.524 . S
C2283 C2275 1.503 . S
C2283 C2282 1.370 . S
C2283 C2284 1.403 . S
C2284 C2283 1.403 . S
C2284 C2285 1.404 . S
C2284 C2287 1.539 . S
C2285 C2281 1.408 . S
C2285 C2284 1.404 . S
C2285 H2297 0.930 . S
C2286 C2282 1.524 . S
C2286 H2298 0.956 . S
C2286 H2299 0.961 . S
C2286 H2300 0.961 . S
C2287 C2284 1.539 . S
C2287 H2301 0.958 . S
C2287 H2302 0.961 . S
C2287 H2303 0.960 . S
H2288 C2272 0.931 . S
H2289 C2277 0.929 . S
H2290 C2278 0.960 . S
H2291 C2278 0.962 . S
H2292 C2278 0.960 . S
H2293 C2279 0.961 . S
H2294 C2279 0.961 . S
H2295 C2279 0.961 . S
H2296 C2280 0.931 . S
H2297 C2285 0.930 . S
H2298 C2286 0.956 . S
H2299 C2286 0.961 . S
H2300 C2286 0.961 . S
H2301 C2287 0.958 . S
H2302 C2287 0.961 . S
H2303 C2287 0.960 . S
C2304 C2305 1.391 1_545 S
C2304 C2306 1.394 . S
C2304 H2320 0.931 . S
C2305 C2304 1.391 1_565 S
C2305 C2309 1.376 . S
C2306 C2304 1.394 . S
C2306 C2307 1.369 1_545 S
C2306 C2310 1.531 . S
C2307 C2306 1.369 1_565 S
C2307 C2308 1.410 . S
C2307 C2315 1.503 1_455 S
C2308 C2307 1.410 . S
C2308 C2309 1.392 . S
C2308 C2311 1.511 . S
C2309 C2305 1.376 . S
C2309 C2308 1.392 . S
C2309 H2321 0.929 . S
C2310 C2306 1.531 . S
C2310 H2322 0.960 1_455 S
C2310 H2323 0.962 . S
C2310 H2324 0.960 . S
C2311 C2308 1.511 . S
C2311 H2325 0.961 . S
C2311 H2326 0.961 1_455 S
C2311 H2327 0.961 . S
C2312 C2313 1.370 . S
C2312 C2314 1.363 . S
C2312 H2328 0.941 . S
C2313 C2312 1.370 . S
C2313 C2317 1.408 . S
C2314 C2312 1.363 . S
C2314 C2315 1.370 . S
C2314 C2318 1.515 1_565 S
C2315 C2307 1.503 1_655 S
C2315 C2314 1.370 . S
C2315 C2316 1.403 . S
C2316 C2315 1.403 . S
C2316 C2317 1.404 . S
C2316 C2319 1.539 . S
C2317 C2313 1.408 . S
C2317 C2316 1.404 . S
C2317 H2329 0.930 . S
C2318 C2314 1.515 1_545 S
C2318 H2330 1.010 . S
C2318 H2331 0.937 1_645 S
C2318 H2332 0.967 . S
C2319 C2316 1.539 . S
C2319 H2333 0.958 . S
C2319 H2334 0.961 . S
C2319 H2335 0.969 . S
H2320 C2304 0.931 . S
H2321 C2309 0.929 . S
H2322 C2310 0.960 1_655 S
H2323 C2310 0.962 . S
H2324 C2310 0.960 . S
H2325 C2311 0.961 . S
H2326 C2311 0.961 1_655 S
H2327 C2311 0.961 . S
H2328 C2312 0.941 . S
H2329 C2317 0.930 . S
H2330 C2318 1.010 . S
H2331 C2318 0.937 1_465 S
H2332 C2318 0.967 . S
H2333 C2319 0.958 . S
H2334 C2319 0.961 . S
H2335 C2319 0.969 . S
C2336 C2337 1.391 . S
C2336 C2338 1.394 . S
C2336 H2352 0.931 . S
C2337 C2336 1.391 . S
C2337 C2341 1.376 . S
C2338 C2336 1.394 . S
C2338 C2339 1.369 . S
C2338 C2342 1.531 . S
C2339 C2338 1.369 . S
C2339 C2340 1.410 . S
C2339 C2347 1.503 . S
C2340 C2339 1.410 . S
C2340 C2341 1.392 . S
C2340 C2343 1.511 . S
C2341 C2337 1.376 . S
C2341 C2340 1.392 . S
C2341 H2353 0.929 . S
C2342 C2338 1.531 . S
C2342 H2354 0.960 . S
C2342 H2355 0.962 . S
C2342 H2356 0.960 . S
C2343 C2340 1.511 . S
C2343 H2357 0.961 . S
C2343 H2358 0.961 . S
C2343 H2359 0.961 . S
C2344 C2345 1.370 . S
C2344 C2346 1.363 . S
C2344 H2360 0.931 . S
C2345 C2344 1.370 . S
C2345 C2349 1.408 . S
C2346 C2344 1.363 . S
C2346 C2347 1.370 . S
C2346 C2350 1.524 . S
C2347 C2339 1.503 . S
C2347 C2346 1.370 . S
C2347 C2348 1.403 . S
C2348 C2347 1.403 . S
C2348 C2349 1.404 . S
C2348 C2351 1.539 . S
C2349 C2345 1.408 . S
C2349 C2348 1.404 . S
C2349 H2361 0.930 . S
C2350 C2346 1.524 . S
C2350 H2362 0.956 . S
C2350 H2363 0.961 . S
C2350 H2364 0.961 . S
C2351 C2348 1.539 . S
C2351 H2365 0.958 . S
C2351 H2366 0.961 . S
C2351 H2367 0.960 . S
H2352 C2336 0.931 . S
H2353 C2341 0.929 . S
H2354 C2342 0.960 . S
H2355 C2342 0.962 . S
H2356 C2342 0.960 . S
H2357 C2343 0.961 . S
H2358 C2343 0.961 . S
H2359 C2343 0.961 . S
H2360 C2344 0.931 . S
H2361 C2349 0.930 . S
H2362 C2350 0.956 . S
H2363 C2350 0.961 . S
H2364 C2350 0.961 . S
H2365 C2351 0.958 . S
H2366 C2351 0.961 . S
H2367 C2351 0.960 . S
C2368 C2369 1.391 . S
C2368 C2370 1.394 . S
C2368 H2384 0.931 . S
C2369 C2368 1.391 . S
C2369 C2373 1.389 . S
C2370 C2368 1.394 . S
C2370 C2371 1.369 . S
C2370 C2374 1.531 . S
C2371 C2370 1.369 . S
C2371 C2372 1.410 . S
C2371 C2379 1.503 . S
C2372 C2371 1.410 . S
C2372 C2373 1.393 . S
C2372 C2375 1.511 1_545 S
C2373 C2369 1.389 . S
C2373 C2372 1.393 . S
C2373 H2385 0.915 1_545 S
C2374 C2370 1.531 . S
C2374 H2386 0.960 . S
C2374 H2387 0.962 . S
C2374 H2388 0.960 . S
C2375 C2372 1.511 1_565 S
C2375 H2389 0.961 . S
C2375 H2390 0.961 . S
C2375 H2391 0.961 . S
C2376 C2377 1.399 . S
C2376 C2378 1.366 . S
C2376 H2392 0.901 1_545 S
C2377 C2376 1.399 . S
C2377 C2381 1.408 . S
C2378 C2376 1.366 . S
C2378 C2379 1.370 . S
C2378 C2382 1.524 1_545 S
C2379 C2371 1.503 . S
C2379 C2378 1.370 . S
C2379 C2380 1.403 . S
C2380 C2379 1.403 . S
C2380 C2381 1.404 . S
C2380 C2383 1.539 . S
C2381 C2377 1.408 . S
C2381 C2380 1.404 . S
C2381 H2393 0.930 . S
C2382 C2378 1.524 1_565 S
C2382 H2394 0.956 . S
C2382 H2395 0.961 . S
C2382 H2396 0.961 . S
C2383 C2380 1.539 . S
C2383 H2397 0.958 . S
C2383 H2398 0.961 . S
C2383 H2399 0.960 . S
H2384 C2368 0.931 . S
H2385 C2373 0.915 1_565 S
H2386 C2374 0.960 . S
H2387 C2374 0.962 . S
H2388 C2374 0.960 . S
H2389 C2375 0.961 . S
H2390 C2375 0.961 . S
H2391 C2375 0.961 . S
H2392 C2376 0.901 1_565 S
H2393 C2381 0.930 . S
H2394 C2382 0.956 . S
H2395 C2382 0.961 . S
H2396 C2382 0.961 . S
H2397 C2383 0.958 . S
H2398 C2383 0.961 . S
H2399 C2383 0.960 . S
C2400 C2401 1.391 . S
C2400 C2402 1.394 . S
C2400 H2416 0.931 . S
C2401 C2400 1.391 . S
C2401 C2405 1.376 . S
C2402 C2400 1.394 . S
C2402 C2403 1.369 . S
C2402 C2406 1.531 . S
C2403 C2402 1.369 . S
C2403 C2404 1.410 . S
C2403 C2411 1.503 . S
C2404 C2403 1.410 . S
C2404 C2405 1.392 . S
C2404 C2407 1.511 . S
C2405 C2401 1.376 . S
C2405 C2404 1.392 . S
C2405 H2417 0.929 . S
C2406 C2402 1.531 . S
C2406 H2418 0.960 . S
C2406 H2419 0.962 . S
C2406 H2420 0.960 . S
C2407 C2404 1.511 . S
C2407 H2421 0.961 . S
C2407 H2422 0.961 . S
C2407 H2423 0.961 . S
C2408 C2409 1.370 . S
C2408 C2410 1.363 . S
C2408 H2424 0.931 . S
C2409 C2408 1.370 . S
C2409 C2413 1.408 . S
C2410 C2408 1.363 . S
C2410 C2411 1.370 . S
C2410 C2414 1.524 . S
C2411 C2403 1.503 . S
C2411 C2410 1.370 . S
C2411 C2412 1.403 . S
C2412 C2411 1.403 . S
C2412 C2413 1.404 . S
C2412 C2415 1.539 . S
C2413 C2409 1.408 . S
C2413 C2412 1.404 . S
C2413 H2425 0.930 . S
C2414 C2410 1.524 . S
C2414 H2426 0.956 . S
C2414 H2427 0.961 . S
C2414 H2428 0.961 . S
C2415 C2412 1.539 . S
C2415 H2429 0.958 . S
C2415 H2430 0.961 . S
C2415 H2431 0.960 . S
H2416 C2400 0.931 . S
H2417 C2405 0.929 . S
H2418 C2406 0.960 . S
H2419 C2406 0.962 . S
H2420 C2406 0.960 . S
H2421 C2407 0.961 . S
H2422 C2407 0.961 . S
H2423 C2407 0.961 . S
H2424 C2408 0.931 . S
H2425 C2413 0.930 . S
H2426 C2414 0.956 . S
H2427 C2414 0.961 . S
H2428 C2414 0.961 . S
H2429 C2415 0.958 . S
H2430 C2415 0.961 . S
H2431 C2415 0.960 . S
C2432 C2433 1.391 . S
C2432 C2434 1.394 . S
C2432 H2448 0.931 . S
C2433 C2432 1.391 . S
C2433 C2437 1.372 . S
C2434 C2432 1.394 . S
C2434 C2435 1.369 . S
C2434 C2438 1.531 . S
C2435 C2434 1.369 . S
C2435 C2436 1.441 . S
C2435 C2443 1.503 1_655 S
C2436 C2435 1.441 . S
C2436 C2437 1.391 . S
C2436 C2439 1.483 1_545 S
C2437 C2433 1.372 . S
C2437 C2436 1.391 . S
C2437 H2449 0.933 1_545 S
C2438 C2434 1.531 . S
C2438 H2450 0.960 1_655 S
C2438 H2451 0.962 . S
C2438 H2452 0.960 . S
C2439 C2436 1.483 1_565 S
C2439 H2453 0.961 . S
C2439 H2454 0.961 1_655 S
C2439 H2455 0.961 . S
C2440 C2441 1.370 . S
C2440 C2442 1.363 . S
C2440 H2456 0.931 1_545 S
C2441 C2440 1.370 . S
C2441 C2445 1.408 . S
C2442 C2440 1.363 . S
C2442 C2443 1.370 . S
C2442 C2446 1.524 1_545 S
C2443 C2435 1.503 1_455 S
C2443 C2442 1.370 . S
C2443 C2444 1.403 . S
C2444 C2443 1.403 . S
C2444 C2445 1.404 . S
C2444 C2447 1.539 . S
C2445 C2441 1.408 . S
C2445 C2444 1.404 . S
C2445 H2457 0.930 . S
C2446 C2442 1.524 1_565 S
C2446 H2458 0.983 . S
C2446 H2459 0.961 1_455 S
C2446 H2460 0.961 . S
C2447 C2444 1.539 . S
C2447 H2461 0.958 . S
C2447 H2462 0.961 . S
C2447 H2463 0.969 . S
H2448 C2432 0.931 . S
H2449 C2437 0.933 1_565 S
H2450 C2438 0.960 1_455 S
H2451 C2438 0.962 . S
H2452 C2438 0.960 . S
H2453 C2439 0.961 . S
H2454 C2439 0.961 1_455 S
H2455 C2439 0.961 . S
H2456 C2440 0.931 1_565 S
H2457 C2445 0.930 . S
H2458 C2446 0.983 . S
H2459 C2446 0.961 1_655 S
H2460 C2446 0.961 . S
H2461 C2447 0.958 . S
H2462 C2447 0.961 . S
H2463 C2447 0.969 . S
C2464 C2465 1.391 . S
C2464 C2466 1.394 . S
C2464 H2480 0.931 . S
C2465 C2464 1.391 . S
C2465 C2469 1.376 . S
C2466 C2464 1.394 . S
C2466 C2467 1.369 . S
C2466 C2470 1.531 . S
C2467 C2466 1.369 . S
C2467 C2468 1.410 . S
C2467 C2475 1.503 . S
C2468 C2467 1.410 . S
C2468 C2469 1.392 . S
C2468 C2471 1.511 . S
C2469 C2465 1.376 . S
C2469 C2468 1.392 . S
C2469 H2481 0.929 . S
C2470 C2466 1.531 . S
C2470 H2482 0.960 . S
C2470 H2483 0.962 . S
C2470 H2484 0.960 . S
C2471 C2468 1.511 . S
C2471 H2485 0.961 . S
C2471 H2486 0.961 . S
C2471 H2487 0.961 . S
C2472 C2473 1.370 . S
C2472 C2474 1.363 . S
C2472 H2488 0.931 . S
C2473 C2472 1.370 . S
C2473 C2477 1.408 . S
C2474 C2472 1.363 . S
C2474 C2475 1.370 . S
C2474 C2478 1.524 . S
C2475 C2467 1.503 . S
C2475 C2474 1.370 . S
C2475 C2476 1.403 . S
C2476 C2475 1.403 . S
C2476 C2477 1.404 . S
C2476 C2479 1.539 . S
C2477 C2473 1.408 . S
C2477 C2476 1.404 . S
C2477 H2489 0.930 . S
C2478 C2474 1.524 . S
C2478 H2490 0.956 . S
C2478 H2491 0.961 . S
C2478 H2492 0.961 . S
C2479 C2476 1.539 . S
C2479 H2493 0.958 . S
C2479 H2494 0.961 . S
C2479 H2495 0.960 . S
H2480 C2464 0.931 . S
H2481 C2469 0.929 . S
H2482 C2470 0.960 . S
H2483 C2470 0.962 . S
H2484 C2470 0.960 . S
H2485 C2471 0.961 . S
H2486 C2471 0.961 . S
H2487 C2471 0.961 . S
H2488 C2472 0.931 . S
H2489 C2477 0.930 . S
H2490 C2478 0.956 . S
H2491 C2478 0.961 . S
H2492 C2478 0.961 . S
H2493 C2479 0.958 . S
H2494 C2479 0.961 . S
H2495 C2479 0.960 . S
C2496 C2497 1.391 . S
C2496 C2498 1.394 . S
C2496 H2512 0.931 . S
C2497 C2496 1.391 . S
C2497 C2501 1.376 1_565 S
C2498 C2496 1.394 . S
C2498 C2499 1.369 . S
C2498 C2502 1.531 . S
C2499 C2498 1.369 . S
C2499 C2500 1.367 1_565 S
C2499 C2507 1.503 . S
C2500 C2499 1.367 1_545 S
C2500 C2501 1.395 . S
C2500 C2503 1.553 . S
C2501 C2497 1.376 1_545 S
C2501 C2500 1.395 . S
C2501 H2513 0.929 . S
C2502 C2498 1.531 . S
C2502 H2514 0.960 . S
C2502 H2515 0.962 . S
C2502 H2516 0.960 . S
C2503 C2500 1.553 . S
C2503 H2517 0.961 . S
C2503 H2518 0.961 . S
C2503 H2519 0.961 . S
C2504 C2505 1.370 . S
C2504 C2506 1.363 . S
C2504 H2520 0.931 1_565 S
C2505 C2504 1.370 . S
C2505 C2509 1.408 . S
C2506 C2504 1.363 . S
C2506 C2507 1.370 . S
C2506 C2510 1.524 1_565 S
C2507 C2499 1.503 . S
C2507 C2506 1.370 . S
C2507 C2508 1.403 . S
C2508 C2507 1.403 . S
C2508 C2509 1.404 . S
C2508 C2511 1.539 . S
C2509 C2505 1.408 . S
C2509 C2508 1.404 . S
C2509 H2521 0.930 . S
C2510 C2506 1.524 1_545 S
C2510 H2522 0.956 1_545 S
C2510 H2523 0.961 . S
C2510 H2524 0.961 . S
C2511 C2508 1.539 . S
C2511 H2525 0.958 . S
C2511 H2526 0.961 . S
C2511 H2527 0.960 . S
H2512 C2496 0.931 . S
H2513 C2501 0.929 . S
H2514 C2502 0.960 . S
H2515 C2502 0.962 . S
H2516 C2502 0.960 . S
H2517 C2503 0.961 . S
H2518 C2503 0.961 . S
H2519 C2503 0.961 . S
H2520 C2504 0.931 1_545 S
H2521 C2509 0.930 . S
H2522 C2510 0.956 1_565 S
H2523 C2510 0.961 . S
H2524 C2510 0.961 . S
H2525 C2511 0.958 . S
H2526 C2511 0.961 . S
H2527 C2511 0.960 . S
C2528 C2529 1.391 . S
C2528 C2530 1.394 . S
C2528 H2544 0.931 . S
C2529 C2528 1.391 . S
C2529 C2533 1.376 . S
C2530 C2528 1.394 . S
C2530 C2531 1.369 . S
C2530 C2534 1.531 . S
C2531 C2530 1.369 . S
C2531 C2532 1.410 . S
C2531 C2539 1.503 . S
C2532 C2531 1.410 . S
C2532 C2533 1.392 . S
C2532 C2535 1.511 . S
C2533 C2529 1.376 . S
C2533 C2532 1.392 . S
C2533 H2545 0.929 . S
C2534 C2530 1.531 . S
C2534 H2546 0.960 . S
C2534 H2547 0.962 . S
C2534 H2548 0.960 . S
C2535 C2532 1.511 . S
C2535 H2549 0.961 . S
C2535 H2550 0.961 . S
C2535 H2551 0.961 . S
C2536 C2537 1.370 . S
C2536 C2538 1.363 . S
C2536 H2552 0.931 . S
C2537 C2536 1.370 . S
C2537 C2541 1.408 . S
C2538 C2536 1.363 . S
C2538 C2539 1.370 . S
C2538 C2542 1.524 . S
C2539 C2531 1.503 . S
C2539 C2538 1.370 . S
C2539 C2540 1.403 . S
C2540 C2539 1.403 . S
C2540 C2541 1.404 . S
C2540 C2543 1.539 . S
C2541 C2537 1.408 . S
C2541 C2540 1.404 . S
C2541 H2553 0.930 . S
C2542 C2538 1.524 . S
C2542 H2554 0.956 . S
C2542 H2555 0.961 . S
C2542 H2556 0.961 . S
C2543 C2540 1.539 . S
C2543 H2557 0.958 . S
C2543 H2558 0.961 . S
C2543 H2559 0.960 . S
H2544 C2528 0.931 . S
H2545 C2533 0.929 . S
H2546 C2534 0.960 . S
H2547 C2534 0.962 . S
H2548 C2534 0.960 . S
H2549 C2535 0.961 . S
H2550 C2535 0.961 . S
H2551 C2535 0.961 . S
H2552 C2536 0.931 . S
H2553 C2541 0.930 . S
H2554 C2542 0.956 . S
H2555 C2542 0.961 . S
H2556 C2542 0.961 . S
H2557 C2543 0.958 . S
H2558 C2543 0.961 . S
H2559 C2543 0.960 . S
C2560 C2561 1.391 . S
C2560 C2562 1.394 . S
C2560 H2576 0.931 . S
C2561 C2560 1.391 . S
C2561 C2565 1.376 . S
C2562 C2560 1.394 . S
C2562 C2563 1.369 . S
C2562 C2566 1.531 . S
C2563 C2562 1.369 . S
C2563 C2564 1.410 . S
C2563 C2571 1.503 . S
C2564 C2563 1.410 . S
C2564 C2565 1.392 . S
C2564 C2567 1.511 . S
C2565 C2561 1.376 . S
C2565 C2564 1.392 . S
C2565 H2577 0.929 . S
C2566 C2562 1.531 . S
C2566 H2578 0.960 . S
C2566 H2579 0.962 . S
C2566 H2580 0.960 . S
C2567 C2564 1.511 . S
C2567 H2581 0.961 . S
C2567 H2582 0.961 . S
C2567 H2583 0.961 . S
C2568 C2569 1.370 . S
C2568 C2570 1.363 . S
C2568 H2584 0.931 . S
C2569 C2568 1.370 . S
C2569 C2573 1.408 . S
C2570 C2568 1.363 . S
C2570 C2571 1.370 . S
C2570 C2574 1.524 . S
C2571 C2563 1.503 . S
C2571 C2570 1.370 . S
C2571 C2572 1.403 . S
C2572 C2571 1.403 . S
C2572 C2573 1.404 . S
C2572 C2575 1.539 . S
C2573 C2569 1.408 . S
C2573 C2572 1.404 . S
C2573 H2585 0.930 . S
C2574 C2570 1.524 . S
C2574 H2586 0.956 . S
C2574 H2587 0.961 . S
C2574 H2588 0.961 . S
C2575 C2572 1.539 . S
C2575 H2589 0.958 . S
C2575 H2590 0.961 . S
C2575 H2591 0.960 . S
H2576 C2560 0.931 . S
H2577 C2565 0.929 . S
H2578 C2566 0.960 . S
H2579 C2566 0.962 . S
H2580 C2566 0.960 . S
H2581 C2567 0.961 . S
H2582 C2567 0.961 . S
H2583 C2567 0.961 . S
H2584 C2568 0.931 . S
H2585 C2573 0.930 . S
H2586 C2574 0.956 . S
H2587 C2574 0.961 . S
H2588 C2574 0.961 . S
H2589 C2575 0.958 . S
H2590 C2575 0.961 . S
H2591 C2575 0.960 . S
C2592 C2593 1.391 . S
C2592 C2594 1.394 . S
C2592 H2608 0.931 . S
C2593 C2592 1.391 . S
C2593 C2597 1.376 . S
C2594 C2592 1.394 . S
C2594 C2595 1.369 . S
C2594 C2598 1.531 . S
C2595 C2594 1.369 . S
C2595 C2596 1.410 . S
C2595 C2603 1.503 . S
C2596 C2595 1.410 . S
C2596 C2597 1.392 . S
C2596 C2599 1.511 . S
C2597 C2593 1.376 . S
C2597 C2596 1.392 . S
C2597 H2609 0.929 . S
C2598 C2594 1.531 . S
C2598 H2610 0.960 . S
C2598 H2611 0.962 . S
C2598 H2612 0.960 . S
C2599 C2596 1.511 . S
C2599 H2613 0.961 . S
C2599 H2614 0.961 . S
C2599 H2615 0.961 . S
C2600 C2601 1.370 . S
C2600 C2602 1.363 . S
C2600 H2616 0.931 . S
C2601 C2600 1.370 . S
C2601 C2605 1.408 . S
C2602 C2600 1.363 . S
C2602 C2603 1.370 . S
C2602 C2606 1.524 . S
C2603 C2595 1.503 . S
C2603 C2602 1.370 . S
C2603 C2604 1.403 . S
C2604 C2603 1.403 . S
C2604 C2605 1.404 . S
C2604 C2607 1.539 . S
C2605 C2601 1.408 . S
C2605 C2604 1.404 . S
C2605 H2617 0.930 . S
C2606 C2602 1.524 . S
C2606 H2618 0.956 . S
C2606 H2619 0.961 . S
C2606 H2620 0.961 . S
C2607 C2604 1.539 . S
C2607 H2621 0.958 . S
C2607 H2622 0.961 . S
C2607 H2623 0.960 . S
H2608 C2592 0.931 . S
H2609 C2597 0.929 . S
H2610 C2598 0.960 . S
H2611 C2598 0.962 . S
H2612 C2598 0.960 . S
H2613 C2599 0.961 . S
H2614 C2599 0.961 . S
H2615 C2599 0.961 . S
H2616 C2600 0.931 . S
H2617 C2605 0.930 . S
H2618 C2606 0.956 . S
H2619 C2606 0.961 . S
H2620 C2606 0.961 . S
H2621 C2607 0.958 . S
H2622 C2607 0.961 . S
H2623 C2607 0.960 . S
C2624 C2625 1.391 . S
C2624 C2626 1.394 . S
C2624 H2640 0.931 . S
C2625 C2624 1.391 . S
C2625 C2629 1.376 . S
C2626 C2624 1.394 . S
C2626 C2627 1.369 . S
C2626 C2630 1.531 . S
C2627 C2626 1.369 . S
C2627 C2628 1.410 . S
C2627 C2635 1.503 . S
C2628 C2627 1.410 . S
C2628 C2629 1.392 . S
C2628 C2631 1.511 . S
C2629 C2625 1.376 . S
C2629 C2628 1.392 . S
C2629 H2641 0.929 . S
C2630 C2626 1.531 . S
C2630 H2642 0.960 . S
C2630 H2643 0.962 . S
C2630 H2644 0.960 . S
C2631 C2628 1.511 . S
C2631 H2645 0.961 . S
C2631 H2646 0.961 . S
C2631 H2647 0.961 . S
C2632 C2633 1.370 . S
C2632 C2634 1.363 . S
C2632 H2648 0.931 . S
C2633 C2632 1.370 . S
C2633 C2637 1.408 . S
C2634 C2632 1.363 . S
C2634 C2635 1.370 . S
C2634 C2638 1.524 . S
C2635 C2627 1.503 . S
C2635 C2634 1.370 . S
C2635 C2636 1.403 . S
C2636 C2635 1.403 . S
C2636 C2637 1.404 . S
C2636 C2639 1.539 . S
C2637 C2633 1.408 . S
C2637 C2636 1.404 . S
C2637 H2649 0.930 . S
C2638 C2634 1.524 . S
C2638 H2650 0.956 . S
C2638 H2651 0.961 . S
C2638 H2652 0.961 . S
C2639 C2636 1.539 . S
C2639 H2653 0.958 . S
C2639 H2654 0.961 . S
C2639 H2655 0.960 . S
H2640 C2624 0.931 . S
H2641 C2629 0.929 . S
H2642 C2630 0.960 . S
H2643 C2630 0.962 . S
H2644 C2630 0.960 . S
H2645 C2631 0.961 . S
H2646 C2631 0.961 . S
H2647 C2631 0.961 . S
H2648 C2632 0.931 . S
H2649 C2637 0.930 . S
H2650 C2638 0.956 . S
H2651 C2638 0.961 . S
H2652 C2638 0.961 . S
H2653 C2639 0.958 . S
H2654 C2639 0.961 . S
H2655 C2639 0.960 . S
C2656 C2657 1.391 . S
C2656 C2658 1.394 . S
C2656 H2672 0.931 . S
C2657 C2656 1.391 . S
C2657 C2661 1.376 . S
C2658 C2656 1.394 . S
C2658 C2659 1.369 . S
C2658 C2662 1.531 . S
C2659 C2658 1.369 . S
C2659 C2660 1.410 . S
C2659 C2667 1.503 . S
C2660 C2659 1.410 . S
C2660 C2661 1.392 . S
C2660 C2663 1.511 . S
C2661 C2657 1.376 . S
C2661 C2660 1.392 . S
C2661 H2673 0.929 . S
C2662 C2658 1.531 . S
C2662 H2674 0.960 . S
C2662 H2675 0.962 . S
C2662 H2676 0.960 . S
C2663 C2660 1.511 . S
C2663 H2677 0.961 . S
C2663 H2678 0.961 . S
C2663 H2679 0.961 . S
C2664 C2665 1.370 . S
C2664 C2666 1.363 . S
C2664 H2680 0.931 . S
C2665 C2664 1.370 . S
C2665 C2669 1.408 . S
C2666 C2664 1.363 . S
C2666 C2667 1.370 . S
C2666 C2670 1.524 . S
C2667 C2659 1.503 . S
C2667 C2666 1.370 . S
C2667 C2668 1.403 . S
C2668 C2667 1.403 . S
C2668 C2669 1.404 . S
C2668 C2671 1.539 . S
C2669 C2665 1.408 . S
C2669 C2668 1.404 . S
C2669 H2681 0.930 . S
C2670 C2666 1.524 . S
C2670 H2682 0.956 . S
C2670 H2683 0.961 . S
C2670 H2684 0.961 . S
C2671 C2668 1.539 . S
C2671 H2685 0.958 . S
C2671 H2686 0.961 . S
C2671 H2687 0.960 . S
H2672 C2656 0.931 . S
H2673 C2661 0.929 . S
H2674 C2662 0.960 . S
H2675 C2662 0.962 . S
H2676 C2662 0.960 . S
H2677 C2663 0.961 . S
H2678 C2663 0.961 . S
H2679 C2663 0.961 . S
H2680 C2664 0.931 . S
H2681 C2669 0.930 . S
H2682 C2670 0.956 . S
H2683 C2670 0.961 . S
H2684 C2670 0.961 . S
H2685 C2671 0.958 . S
H2686 C2671 0.961 . S
H2687 C2671 0.960 . S
C2688 C2689 1.391 . S
C2688 C2690 1.394 . S
C2688 H2704 0.931 . S
C2689 C2688 1.391 . S
C2689 C2693 1.376 . S
C2690 C2688 1.394 . S
C2690 C2691 1.369 . S
C2690 C2694 1.531 . S
C2691 C2690 1.369 . S
C2691 C2692 1.410 . S
C2691 C2699 1.503 . S
C2692 C2691 1.410 . S
C2692 C2693 1.392 . S
C2692 C2695 1.511 . S
C2693 C2689 1.376 . S
C2693 C2692 1.392 . S
C2693 H2705 0.929 . S
C2694 C2690 1.531 . S
C2694 H2706 0.960 . S
C2694 H2707 0.962 . S
C2694 H2708 0.960 . S
C2695 C2692 1.511 . S
C2695 H2709 0.961 . S
C2695 H2710 0.961 . S
C2695 H2711 0.961 . S
C2696 C2697 1.370 . S
C2696 C2698 1.363 . S
C2696 H2712 0.931 . S
C2697 C2696 1.370 . S
C2697 C2701 1.408 . S
C2698 C2696 1.363 . S
C2698 C2699 1.370 . S
C2698 C2702 1.524 . S
C2699 C2691 1.503 . S
C2699 C2698 1.370 . S
C2699 C2700 1.403 . S
C2700 C2699 1.403 . S
C2700 C2701 1.404 . S
C2700 C2703 1.539 . S
C2701 C2697 1.408 . S
C2701 C2700 1.404 . S
C2701 H2713 0.930 . S
C2702 C2698 1.524 . S
C2702 H2714 0.956 . S
C2702 H2715 0.961 . S
C2702 H2716 0.961 . S
C2703 C2700 1.539 . S
C2703 H2717 0.958 . S
C2703 H2718 0.961 . S
C2703 H2719 0.960 . S
H2704 C2688 0.931 . S
H2705 C2693 0.929 . S
H2706 C2694 0.960 . S
H2707 C2694 0.962 . S
H2708 C2694 0.960 . S
H2709 C2695 0.961 . S
H2710 C2695 0.961 . S
H2711 C2695 0.961 . S
H2712 C2696 0.931 . S
H2713 C2701 0.930 . S
H2714 C2702 0.956 . S
H2715 C2702 0.961 . S
H2716 C2702 0.961 . S
H2717 C2703 0.958 . S
H2718 C2703 0.961 . S
H2719 C2703 0.960 . S
C2720 C2721 1.391 . S
C2720 C2722 1.394 . S
C2720 H2736 0.931 . S
C2721 C2720 1.391 . S
C2721 C2725 1.376 . S
C2722 C2720 1.394 . S
C2722 C2723 1.369 . S
C2722 C2726 1.531 . S
C2723 C2722 1.369 . S
C2723 C2724 1.410 . S
C2723 C2731 1.503 1_455 S
C2724 C2723 1.410 . S
C2724 C2725 1.392 . S
C2724 C2727 1.511 . S
C2725 C2721 1.376 . S
C2725 C2724 1.392 . S
C2725 H2737 0.929 . S
C2726 C2722 1.531 . S
C2726 H2738 0.960 1_455 S
C2726 H2739 0.962 . S
C2726 H2740 0.960 . S
C2727 C2724 1.511 . S
C2727 H2741 0.961 . S
C2727 H2742 0.961 1_455 S
C2727 H2743 0.961 . S
C2728 C2729 1.370 . S
C2728 C2730 1.363 . S
C2728 H2744 0.931 . S
C2729 C2728 1.370 . S
C2729 C2733 1.408 . S
C2730 C2728 1.363 . S
C2730 C2731 1.370 . S
C2730 C2734 1.524 . S
C2731 C2723 1.503 1_655 S
C2731 C2730 1.370 . S
C2731 C2732 1.403 . S
C2732 C2731 1.403 . S
C2732 C2733 1.404 . S
C2732 C2735 1.539 . S
C2733 C2729 1.408 . S
C2733 C2732 1.404 . S
C2733 H2745 0.930 . S
C2734 C2730 1.524 . S
C2734 H2746 0.983 . S
C2734 H2747 0.961 1_655 S
C2734 H2748 0.961 . S
C2735 C2732 1.539 . S
C2735 H2749 0.958 . S
C2735 H2750 0.961 . S
C2735 H2751 0.969 . S
H2736 C2720 0.931 . S
H2737 C2725 0.929 . S
H2738 C2726 0.960 1_655 S
H2739 C2726 0.962 . S
H2740 C2726 0.960 . S
H2741 C2727 0.961 . S
H2742 C2727 0.961 1_655 S
H2743 C2727 0.961 . S
H2744 C2728 0.931 . S
H2745 C2733 0.930 . S
H2746 C2734 0.983 . S
H2747 C2734 0.961 1_455 S
H2748 C2734 0.961 . S
H2749 C2735 0.958 . S
H2750 C2735 0.961 . S
H2751 C2735 0.969 . S
C2752 C2753 1.391 . S
C2752 C2754 1.394 . S
C2752 H2768 0.931 . S
C2753 C2752 1.391 . S
C2753 C2757 1.376 . S
C2754 C2752 1.394 . S
C2754 C2755 1.369 . S
C2754 C2758 1.531 . S
C2755 C2754 1.369 . S
C2755 C2756 1.410 . S
C2755 C2763 1.503 . S
C2756 C2755 1.410 . S
C2756 C2757 1.392 . S
C2756 C2759 1.511 . S
C2757 C2753 1.376 . S
C2757 C2756 1.392 . S
C2757 H2769 0.929 . S
C2758 C2754 1.531 . S
C2758 H2770 0.960 . S
C2758 H2771 0.962 . S
C2758 H2772 0.960 . S
C2759 C2756 1.511 . S
C2759 H2773 0.961 . S
C2759 H2774 0.961 . S
C2759 H2775 0.961 . S
C2760 C2761 1.370 . S
C2760 C2762 1.363 . S
C2760 H2776 0.931 . S
C2761 C2760 1.370 . S
C2761 C2765 1.408 . S
C2762 C2760 1.363 . S
C2762 C2763 1.370 . S
C2762 C2766 1.524 . S
C2763 C2755 1.503 . S
C2763 C2762 1.370 . S
C2763 C2764 1.403 . S
C2764 C2763 1.403 . S
C2764 C2765 1.404 . S
C2764 C2767 1.539 . S
C2765 C2761 1.408 . S
C2765 C2764 1.404 . S
C2765 H2777 0.930 . S
C2766 C2762 1.524 . S
C2766 H2778 0.956 . S
C2766 H2779 0.961 . S
C2766 H2780 0.961 . S
C2767 C2764 1.539 . S
C2767 H2781 0.958 . S
C2767 H2782 0.961 . S
C2767 H2783 0.960 . S
H2768 C2752 0.931 . S
H2769 C2757 0.929 . S
H2770 C2758 0.960 . S
H2771 C2758 0.962 . S
H2772 C2758 0.960 . S
H2773 C2759 0.961 . S
H2774 C2759 0.961 . S
H2775 C2759 0.961 . S
H2776 C2760 0.931 . S
H2777 C2765 0.930 . S
H2778 C2766 0.956 . S
H2779 C2766 0.961 . S
H2780 C2766 0.961 . S
H2781 C2767 0.958 . S
H2782 C2767 0.961 . S
H2783 C2767 0.960 . S
C2784 C2785 1.391 . S
C2784 C2786 1.394 . S
C2784 H2800 0.931 . S
C2785 C2784 1.391 . S
C2785 C2789 1.376 . S
C2786 C2784 1.394 . S
C2786 C2787 1.369 . S
C2786 C2790 1.531 . S
C2787 C2786 1.369 . S
C2787 C2788 1.410 . S
C2787 C2795 1.503 1_655 S
C2788 C2787 1.410 . S
C2788 C2789 1.392 . S
C2788 C2791 1.511 . S
C2789 C2785 1.376 . S
C2789 C2788 1.392 . S
C2789 H2801 0.929 . S
C2790 C2786 1.531 . S
C2790 H2802 0.960 1_655 S
C2790 H2803 0.962 . S
C2790 H2804 0.960 . S
C2791 C2788 1.511 . S
C2791 H2805 0.961 . S
C2791 H2806 0.961 1_655 S
C2791 H2807 0.961 . S
C2792 C2793 1.370 . S
C2792 C2794 1.363 . S
C2792 H2808 0.931 . S
C2793 C2792 1.370 . S
C2793 C2797 1.408 . S
C2794 C2792 1.363 . S
C2794 C2795 1.370 . S
C2794 C2798 1.524 . S
C2795 C2787 1.503 1_455 S
C2795 C2794 1.370 . S
C2795 C2796 1.403 . S
C2796 C2795 1.403 . S
C2796 C2797 1.404 . S
C2796 C2799 1.539 . S
C2797 C2793 1.408 . S
C2797 C2796 1.404 . S
C2797 H2809 0.930 . S
C2798 C2794 1.524 . S
C2798 H2810 0.983 . S
C2798 H2811 0.961 1_455 S
C2798 H2812 0.961 . S
C2799 C2796 1.539 . S
C2799 H2813 0.958 . S
C2799 H2814 0.961 . S
C2799 H2815 0.969 . S
H2800 C2784 0.931 . S
H2801 C2789 0.929 . S
H2802 C2790 0.960 1_455 S
H2803 C2790 0.962 . S
H2804 C2790 0.960 . S
H2805 C2791 0.961 . S
H2806 C2791 0.961 1_455 S
H2807 C2791 0.961 . S
H2808 C2792 0.931 . S
H2809 C2797 0.930 . S
H2810 C2798 0.983 . S
H2811 C2798 0.961 1_655 S
H2812 C2798 0.961 . S
H2813 C2799 0.958 . S
H2814 C2799 0.961 . S
H2815 C2799 0.969 . S
C1281 C255 1.501 . S
C1289 C15 1.505 . S
C1313 C295 1.711 . S
C1321 C55 1.711 . S
C1345 C175 1.494 . S
C1353 C95 1.501 . S
C1377 C135 1.700 . S
C1385 C215 1.709 . S
C1409 C575 1.490 . S
C1417 C335 1.500 . S
C1441 C615 1.698 . S
C1449 C375 1.708 . S
C1473 C495 1.500 . S
C1481 C415 1.499 . S
C1505 C535 1.701 . S
C1513 C455 1.704 . S
C1537 C655 1.691 . S
C1545 C895 1.697 . S
C1569 C935 1.526 . S
C1577 C695 1.525 . S
C1601 C735 1.696 . S
C1609 C815 1.703 . S
C1633 C855 1.527 . S
C1641 C775 1.524 . S
C1665 C975 1.687 . S
C1673 C1215 1.694 . S
C1697 C1015 1.508 . S
C1705 C1255 1.521 . S
C1729 C1055 1.684 . S
C1737 C1135 1.697 . S
C1761 C1095 1.508 . S
C1769 C1175 1.515 . S
C1793 C301 1.507 . S
C1801 C21 1.499 . S
C1825 C61 1.504 . S
C1833 C181 1.497 . S
C1857 C221 1.507 . S
C1865 C101 1.499 . S
C1889 C141 1.506 . S
C1897 C261 1.497 . S
C1921 C621 1.459 . S
C1929 C341 1.491 . S
C1953 C381 1.438 . S
C1961 C501 1.476 . S
C1985 C541 1.430 . S
C1993 C421 1.479 . S
C2017 C461 1.486 . S
C2025 C581 1.482 . S
C2049 C661 1.794 . S
C2057 C941 1.802 . S
C2081 C701 1.800 . S
C2089 C821 1.800 . S
C2113 C861 1.800 . S
C2121 C741 1.800 . S
C2145 C781 1.795 . S
C2153 C901 1.802 . S
C2177 C1261 1.756 . S
C2185 C981 1.763 . S
C2209 C1021 1.758 . S
C2217 C1141 1.762 . S
C2241 C1061 1.750 . S
C2249 C1181 1.758 . S
C2273 C1101 1.727 . S
C2281 C1221 1.764 . S
C2305 C2 1.481 . S
C2313 C482 1.476 . S
C2337 C42 1.644 . S
C2345 C1162 1.628 . S
C2369 C82 1.488 . S
C2377 C562 1.484 . S
C2401 C122 1.647 . S
C2409 C1242 1.621 . S
C2433 C322 1.476 . S
C2441 C162 1.490 . S
C2465 C202 1.652 . S
C2473 C1002 1.613 . S
C2497 C242 1.490 . S
C2505 C402 1.484 . S
C2529 C1082 1.635 . S
C2537 C282 1.651 . S
C2561 C362 1.639 . S
C2569 C842 1.650 . S
C2593 C922 1.648 . S
C2601 C442 1.635 . S
C2625 C682 1.654 . S
C2633 C522 1.628 . S
C2657 C602 1.632 . S
C2665 C762 1.646 . S
C2689 C642 1.706 . S
C2697 C1122 1.672 . S
C2721 C1202 1.686 . S
C2729 C722 1.703 . S
C2753 C962 1.678 . S
C2761 C802 1.703 . S
C2785 C882 1.703 . S
C2793 C1042 1.672 . S
