# Generated by pormake.
# Topology una, (4)-cn, num edge types: 1
# Building blocks:
#     Node 0, Type 0, BuildingBlock: TATPOV_clean_sbu_0, # of connection points: 4
#     Node 1, Type 0, BuildingBlock: TATPOV_clean_sbu_0, # of connection points: 4
#     Node 2, Type 0, BuildingBlock: TATPOV_clean_sbu_0, # of connection points: 4
#     Node 3, Type 0, BuildingBlock: TATPOV_clean_sbu_0, # of connection points: 4
#     Node 4, Type 0, BuildingBlock: TATPOV_clean_sbu_0, # of connection points: 4
#     Node 5, Type 0, BuildingBlock: TATPOV_clean_sbu_0, # of connection points: 4
#     Node 6, Type 0, BuildingBlock: TATPOV_clean_sbu_0, # of connection points: 4
#     Node 7, Type 0, BuildingBlock: TATPOV_clean_sbu_0, # of connection points: 4
#     Node 8, Type 0, BuildingBlock: TATPOV_clean_sbu_0, # of connection points: 4
#     Node 9, Type 0, BuildingBlock: TATPOV_clean_sbu_0, # of connection points: 4
#     Node 10, Type 0, BuildingBlock: TATPOV_clean_sbu_0, # of connection points: 4
#     Node 11, Type 0, BuildingBlock: TATPOV_clean_sbu_0, # of connection points: 4
#     Edge 12, Type (0, 0), BuildingBlock: OJICUG_clean_linker_0, # of connection points: 2
#     Edge 13, Type (0, 0), BuildingBlock: OJICUG_clean_linker_0, # of connection points: 2
#     Edge 14, Type (0, 0), BuildingBlock: OJICUG_clean_linker_0, # of connection points: 2
#     Edge 15, Type (0, 0), BuildingBlock: OJICUG_clean_linker_0, # of connection points: 2
#     Edge 16, Type (0, 0), BuildingBlock: OJICUG_clean_linker_0, # of connection points: 2
#     Edge 17, Type (0, 0), BuildingBlock: OJICUG_clean_linker_0, # of connection points: 2
#     Edge 18, Type (0, 0), BuildingBlock: OJICUG_clean_linker_0, # of connection points: 2
#     Edge 19, Type (0, 0), BuildingBlock: OJICUG_clean_linker_0, # of connection points: 2
#     Edge 20, Type (0, 0), BuildingBlock: OJICUG_clean_linker_0, # of connection points: 2
#     Edge 21, Type (0, 0), BuildingBlock: OJICUG_clean_linker_0, # of connection points: 2
#     Edge 22, Type (0, 0), BuildingBlock: OJICUG_clean_linker_0, # of connection points: 2
#     Edge 23, Type (0, 0), BuildingBlock: OJICUG_clean_linker_0, # of connection points: 2
#     Edge 24, Type (0, 0), BuildingBlock: OJICUG_clean_linker_0, # of connection points: 2
#     Edge 25, Type (0, 0), BuildingBlock: OJICUG_clean_linker_0, # of connection points: 2
#     Edge 26, Type (0, 0), BuildingBlock: OJICUG_clean_linker_0, # of connection points: 2
#     Edge 27, Type (0, 0), BuildingBlock: OJICUG_clean_linker_0, # of connection points: 2
#     Edge 28, Type (0, 0), BuildingBlock: OJICUG_clean_linker_0, # of connection points: 2
#     Edge 29, Type (0, 0), BuildingBlock: OJICUG_clean_linker_0, # of connection points: 2
#     Edge 30, Type (0, 0), BuildingBlock: OJICUG_clean_linker_0, # of connection points: 2
#     Edge 31, Type (0, 0), BuildingBlock: OJICUG_clean_linker_0, # of connection points: 2
#     Edge 32, Type (0, 0), BuildingBlock: OJICUG_clean_linker_0, # of connection points: 2
#     Edge 33, Type (0, 0), BuildingBlock: OJICUG_clean_linker_0, # of connection points: 2
#     Edge 34, Type (0, 0), BuildingBlock: OJICUG_clean_linker_0, # of connection points: 2
#     Edge 35, Type (0, 0), BuildingBlock: OJICUG_clean_linker_0, # of connection points: 2
# Relax obj value: 0.135
# Max RMSD: 0.158
# Mean RMSD: 0.158
data_MOF--net-una--node1-TATPOV_clean_sbu_0--edge1-OJICUG_clean_linker_0
_symmetry_space_group_name_H-M    P1
_symmetry_Int_Tables_number       1
_symmetry_cell_setting            triclinic
loop_
_symmetry_equiv_pos_as_xyz
'x, y, z'
_cell_length_a     43.397909
_cell_length_b     43.341225
_cell_length_c     14.753131
_cell_angle_alpha  89.974936
_cell_angle_beta   90.012731
_cell_angle_gamma 120.03805
loop_
_atom_site_label
_atom_site_type_symbol
_atom_site_fract_x
_atom_site_fract_y
_atom_site_fract_z
_atom_type_partial_charge
Zn0 Zn 0.18747 0.50144 0.11022 0.0
Zn1 Zn 0.1354 0.45121 0.01419 0.0
O2 O 0.17358 0.47211 0.91763 0.0
O3 O 0.21949 0.51003 -0.00014 0.0
O4 O 0.09299 0.41254 0.94907 0.0
O5 O 0.16169 0.5285 0.12742 0.0
O6 O 0.11802 0.48653 0.04736 0.0
C7 C 0.20655 0.49483 0.92469 0.0
C8 C 0.16686 0.43393 0.18224 0.0
O9 O 0.14859 0.42421 0.10949 0.0
O10 O 0.1837 0.46648 0.20409 0.0
C11 C 0.06792 0.38636 0.99084 0.0
O12 O 0.07022 0.38381 0.07904 0.0
C13 C 0.13129 0.51567 0.09153 0.0
Zn14 Zn 0.71909 0.18547 0.2945 0.0
Zn15 Zn 0.69115 0.12732 0.21503 0.0
O16 O 0.71366 0.16029 0.10615 0.0
O17 O 0.74877 0.20901 0.18276 0.0
O18 O 0.66733 0.07807 0.16145 0.0
O19 O 0.67453 0.18632 0.31242 0.0
O20 O 0.64787 0.13071 0.26675 0.0
C21 C 0.73878 0.1926 0.10792 0.0
C22 C 0.74622 0.14685 0.36849 0.0
O23 O 0.73209 0.12982 0.29565 0.0
O24 O 0.73879 0.17 0.39549 0.0
C25 C 0.68431 0.06258 0.13745 0.0
O26 O 0.71902 0.07907 0.14789 0.0
C27 C 0.64616 0.15734 0.29756 0.0
Zn28 Zn 0.53268 0.70055 0.51325 0.0
Zn29 Zn 0.58088 0.69496 0.42276 0.0
O30 O 0.5615 0.71184 0.32191 0.0
O31 O 0.52583 0.72421 0.40034 0.0
O32 O 0.6173 0.68583 0.36295 0.0
O33 O 0.50191 0.64853 0.53585 0.0
O34 O 0.54275 0.64343 0.46015 0.0
C35 C 0.54049 0.72426 0.3259 0.0
C36 C 0.59964 0.74711 0.58352 0.0
O37 O 0.60893 0.73765 0.51148 0.0
O38 O 0.56738 0.73088 0.6076 0.0
C39 C 0.63115 0.69802 0.28581 0.0
O40 O 0.62428 0.72074 0.24437 0.0
C41 C 0.51331 0.62922 0.50306 0.0
Zn42 Zn 0.80572 0.49394 0.62346 0.0
Zn43 Zn 0.85772 0.54358 0.52566 0.0
O44 O 0.81891 0.52254 0.43085 0.0
O45 O 0.77305 0.48548 0.51454 0.0
O46 O 0.89965 0.58148 0.4572 0.0
O47 O 0.83105 0.46638 0.63936 0.0
O48 O 0.8748 0.50802 0.55874 0.0
C49 C 0.78586 0.50028 0.43889 0.0
C50 C 0.82761 0.56187 0.69462 0.0
O51 O 0.84544 0.57124 0.62112 0.0
O52 O 0.8107 0.52939 0.71721 0.0
C53 C 0.92419 0.60971 0.49355 0.0
O54 O 0.92214 0.61546 0.58018 0.0
C55 C 0.86134 0.47888 0.60301 0.0
Zn56 Zn 0.2688 0.80764 0.78625 0.0
Zn57 Zn 0.29664 0.86595 0.70741 0.0
O58 O 0.27458 0.83321 0.59788 0.0
O59 O 0.23975 0.78415 0.67371 0.0
O60 O 0.32045 0.91538 0.65477 0.0
O61 O 0.31342 0.80711 0.80608 0.0
O62 O 0.3399 0.86271 0.76019 0.0
C63 C 0.24973 0.80077 0.59912 0.0
C64 C 0.24093 0.84576 0.85952 0.0
O65 O 0.25537 0.86311 0.78726 0.0
O66 O 0.24825 0.82251 0.88637 0.0
C67 C 0.3034 0.93078 0.63049 0.0
O68 O 0.26862 0.91402 0.63968 0.0
C69 C 0.34173 0.83621 0.79165 0.0
Zn70 Zn 0.45926 0.29559 0.01583 0.0
Zn71 Zn 0.41174 0.30256 0.92529 0.0
O72 O 0.43075 0.28515 0.82483 0.0
O73 O 0.4656 0.27158 0.90304 0.0
O74 O 0.37599 0.31234 0.86408 0.0
O75 O 0.49067 0.34754 0.03847 0.0
O76 O 0.45036 0.3538 0.96345 0.0
C77 C 0.45115 0.27202 0.82865 0.0
C78 C 0.39176 0.25012 0.08579 0.0
O79 O 0.38284 0.26005 0.0139 0.0
O80 O 0.42404 0.26559 0.10971 0.0
C81 C 0.36138 0.29907 0.78831 0.0
O82 O 0.36705 0.27503 0.74981 0.0
C83 C 0.47978 0.36738 0.00634 0.0
Zn84 Zn 0.51488 0.80145 0.82018 0.0
Zn85 Zn 0.54827 0.85976 0.90081 0.0
O86 O 0.53768 0.826 0.00808 0.0
O87 O 0.52112 0.77697 0.92972 0.0
O88 O 0.57637 0.90857 0.9557 0.0
O89 O 0.47062 0.80361 0.80884 0.0
O90 O 0.50239 0.85918 0.85394 0.0
C91 C 0.52911 0.79329 0.00485 0.0
C92 C 0.58034 0.83872 0.74196 0.0
O93 O 0.58461 0.85597 0.81519 0.0
O94 O 0.54925 0.81602 0.71707 0.0
C95 C 0.60841 0.92127 0.98158 0.0
O96 O 0.62388 0.90203 0.97221 0.0
C97 C 0.473 0.83332 0.82536 0.0
Zn98 Zn 0.67958 0.50088 0.9542 0.0
Zn99 Zn 0.68138 0.55196 0.05304 0.0
O100 O 0.69704 0.52868 0.14699 0.0
O101 O 0.70236 0.48978 0.06191 0.0
O102 O 0.68025 0.59126 0.12223 0.0
O103 O 0.6268 0.47609 0.93861 0.0
O104 O 0.628 0.51884 0.02159 0.0
C105 C 0.70558 0.50475 0.13795 0.0
C106 C 0.72885 0.56746 0.88309 0.0
O107 O 0.72175 0.57773 0.95718 0.0
O108 O 0.71108 0.53509 0.85998 0.0
C109 C 0.68046 0.61761 0.0838 0.0
O110 O 0.6831 0.6204 -0.00491 0.0
C111 C 0.61065 0.49001 0.97676 0.0
Zn112 Zn 0.16505 0.71084 0.08051 0.0
Zn113 Zn 0.10706 0.69683 0.16672 0.0
O114 O 0.14216 0.71645 0.27044 0.0
O115 O 0.19251 0.73424 0.19711 0.0
O116 O 0.05947 0.68138 0.22405 0.0
O117 O 0.1493 0.66014 0.05151 0.0
O118 O 0.10033 0.648 0.12459 0.0
C119 C 0.17596 0.73187 0.27 0.0
C120 C 0.13683 0.75184 0.01169 0.0
O121 O 0.11659 0.73886 0.08051 0.0
O122 O 0.15767 0.74061 0.99014 0.0
C123 C 0.05516 0.69402 0.29762 0.0
O124 O 0.08283 0.72063 0.33714 0.0
C125 C 0.11888 0.63764 0.08104 0.0
Zn126 Zn 0.47387 0.1935 0.32218 0.0
Zn127 Zn 0.44011 0.13532 0.40269 0.0
O128 O 0.45103 0.16896 0.51032 0.0
O129 O 0.46807 0.21812 0.43198 0.0
O130 O 0.4117 0.08634 0.45667 0.0
O131 O 0.51793 0.19109 0.31029 0.0
O132 O 0.48588 0.13563 0.35595 0.0
C133 C 0.46 0.20178 0.50713 0.0
C134 C 0.40844 0.15709 0.24413 0.0
O135 O 0.40402 0.13978 0.31737 0.0
O136 O 0.43962 0.17945 0.21903 0.0
C137 C 0.37935 0.07311 0.48027 0.0
O138 O 0.36354 0.09197 0.46946 0.0
C139 C 0.51534 0.16131 0.32713 0.0
Zn140 Zn 0.31448 0.49493 0.44212 0.0
Zn141 Zn 0.31246 0.4441 0.54259 0.0
O142 O 0.29642 0.46753 0.63485 0.0
O143 O 0.29078 0.50585 0.54809 0.0
O144 O 0.3134 0.40512 0.61388 0.0
O145 O 0.36738 0.51997 0.42895 0.0
O146 O 0.36593 0.47718 0.51238 0.0
C147 C 0.28753 0.49116 0.62457 0.0
C148 C 0.26577 0.42823 0.37101 0.0
O149 O 0.27246 0.41814 0.44602 0.0
O150 O 0.28378 0.46051 0.34726 0.0
C151 C 0.31284 0.37825 0.5777 0.0
O152 O 0.30995 0.37449 0.4892 0.0
C153 C 0.38342 0.50608 0.46788 0.0
Zn154 Zn 0.82435 0.28269 0.58992 0.0
Zn155 Zn 0.88204 0.29558 0.67595 0.0
O156 O 0.84704 0.27641 0.77997 0.0
O157 O 0.79685 0.25957 0.70671 0.0
O158 O 0.92976 0.31044 0.73193 0.0
O159 O 0.84085 0.33356 0.56095 0.0
O160 O 0.88951 0.34474 0.63419 0.0
C161 C 0.81328 0.26153 0.77955 0.0
C162 C 0.85124 0.24064 0.52087 0.0
O163 O 0.87155 0.2533 0.58969 0.0
O164 O 0.83091 0.25249 0.4993 0.0
C165 C 0.93421 0.29978 0.80852 0.0
O166 O 0.90641 0.27544 0.85305 0.0
C167 C 0.87138 0.35564 0.59069 0.0
C168 C 0.2034 0.40548 0.18198 0.0
C169 C 0.17794 0.41081 0.22716 0.0
H170 H 0.25305 0.40646 0.19514 0.0
C171 C 0.17543 0.40759 0.32182 0.0
H172 H 0.20608 0.40829 0.10895 0.0
C173 C 0.20156 0.40496 0.37113 0.0
C174 C 0.23115 0.4072 0.32611 0.0
H175 H 0.15628 0.41203 0.35806 0.0
H176 H 0.20178 0.40754 0.44424 0.0
C177 C 0.23034 0.40435 0.23133 0.0
C178 C 0.84032 0.2013 0.39068 0.0
C179 C 0.84095 0.20515 0.48517 0.0
H180 H 0.80763 0.17504 0.2759 0.0
C181 C 0.8154 0.17653 0.53707 0.0
H182 H 0.85985 0.22284 0.34907 0.0
C183 C 0.78445 0.15005 0.4953 0.0
C184 C 0.78015 0.15128 0.40138 0.0
H185 H 0.8155 0.17866 0.6103 0.0
H186 H 0.76183 0.1328 0.53745 0.0
C187 C 0.81013 0.17376 0.34874 0.0
C188 C 0.62057 0.81033 0.56835 0.0
C189 C 0.62107 0.78331 0.62 0.0
H190 H 0.60615 0.85093 0.56915 0.0
C191 C 0.62422 0.78723 0.7145 0.0
H192 H 0.61819 0.80795 0.4952 0.0
C193 C 0.61893 0.81308 0.75697 0.0
C194 C 0.60917 0.83403 0.70501 0.0
H195 H 0.62461 0.76676 0.75585 0.0
H196 H 0.61571 0.81178 0.82999 0.0
C197 C 0.61358 0.83506 0.6107 0.0
C198 C 0.79146 0.5907 0.69442 0.0
C199 C 0.81683 0.58522 0.73954 0.0
H200 H 0.74177 0.58964 0.70753 0.0
C201 C 0.81927 0.58827 0.83424 0.0
H202 H 0.78883 0.58804 0.62135 0.0
C203 C 0.79306 0.59075 0.88356 0.0
C204 C 0.76352 0.58859 0.8385 0.0
H205 H 0.83836 0.58373 0.87046 0.0
H206 H 0.79276 0.58799 0.95664 0.0
C207 C 0.76444 0.59168 0.74376 0.0
C208 C 0.17706 0.81861 0.83937 0.0
C209 C 0.20696 0.84131 0.89201 0.0
H210 H 0.12764 0.76928 0.83977 0.0
C211 C 0.20255 0.8426 0.98585 0.0
H212 H 0.17965 0.81734 0.76657 0.0
C213 C 0.17169 0.81597 0.02765 0.0
C214 C 0.14639 0.78714 0.97588 0.0
H215 H 0.22509 0.86003 0.02798 0.0
H216 H 0.17161 0.81392 0.10091 0.0
C217 C 0.14698 0.79094 0.88137 0.0
C218 C 0.3709 0.18387 0.25944 0.0
C219 C 0.37992 0.16235 0.20751 0.0
H220 H 0.36663 0.23099 0.25824 0.0
C221 C 0.3754 0.16134 0.11324 0.0
H222 H 0.3742 0.18513 0.33243 0.0
C223 C 0.36917 0.18659 0.07083 0.0
C224 C 0.36954 0.21405 0.1224 0.0
H225 H 0.38224 0.14502 0.07173 0.0
H226 H 0.37152 0.18888 -0.00234 0.0
C227 C 0.36638 0.2102 0.21691 0.0
C228 C 0.11442 0.55335 0.00305 0.0
C229 C 0.11524 0.53847 0.08689 0.0
H230 H 0.11514 0.59755 0.93538 0.0
C231 C 0.1095 0.55244 0.16672 0.0
H232 H 0.11951 0.54336 0.94085 0.0
C233 C 0.10569 0.58261 0.16326 0.0
C234 C 0.10901 0.59989 0.08029 0.0
H235 H 0.11065 0.54167 0.23211 0.0
H236 H 0.10409 0.59459 0.22625 0.0
C237 C 0.11198 0.5843 -0.00013 0.0
C238 C 0.61235 0.18887 0.32055 0.0
C239 C 0.61179 0.15644 0.3089 0.0
H240 H 0.58281 0.21557 0.3343 0.0
C241 C 0.57869 0.12467 0.30448 0.0
H242 H 0.63721 0.21394 0.32401 0.0
C243 C 0.54682 0.12562 0.31149 0.0
C244 C 0.54782 0.15842 0.32088 0.0
H245 H 0.57743 0.09927 0.29545 0.0
H246 H 0.52158 0.10096 0.30797 0.0
C247 C 0.58096 0.18986 0.32577 0.0
C248 C 0.44329 0.54468 0.40128 0.0
C249 C 0.42221 0.52807 0.47776 0.0
H250 H 0.49078 0.58972 0.35067 0.0
C251 C 0.43625 0.54053 0.56448 0.0
H252 H 0.4327 0.53574 0.3338 0.0
C253 C 0.46883 0.57211 0.57406 0.0
C254 C 0.48825 0.59072 0.49711 0.0
H255 H 0.42017 0.52845 0.62431 0.0
H256 H 0.47722 0.58366 0.64093 0.0
C257 C 0.4765 0.57549 0.41104 0.0
C258 C 0.88243 0.44136 0.67739 0.0
C259 C 0.87692 0.45567 0.59783 0.0
H260 H 0.88703 0.39862 0.73629 0.0
C261 C 0.87739 0.44076 0.51377 0.0
H262 H 0.88154 0.45216 0.74294 0.0
C263 C 0.8792 0.40947 0.51015 0.0
C264 C 0.88189 0.39356 0.59033 0.0
H265 H 0.87247 0.45102 0.45176 0.0
H266 H 0.87576 0.39625 0.44553 0.0
C267 C 0.88561 0.41083 0.67348 0.0
C268 C 0.37585 0.80521 0.81856 0.0
C269 C 0.3762 0.83743 0.80449 0.0
H270 H 0.40569 0.77891 0.83511 0.0
C271 C 0.40921 0.86928 0.79906 0.0
H272 H 0.35108 0.78009 0.82299 0.0
C273 C 0.44118 0.86859 0.80715 0.0
C274 C 0.4404 0.83597 0.8187 0.0
H275 H 0.41031 0.89452 0.78821 0.0
H276 H 0.46635 0.89329 0.80259 0.0
C277 C 0.40736 0.80447 0.82487 0.0
C278 C 0.51769 0.42134 0.9161 0.0
C279 C 0.5053 0.40581 0.00161 0.0
H280 H 0.56213 0.46119 0.84074 0.0
C281 C 0.5244 0.42393 0.07939 0.0
H282 H 0.50367 0.40747 0.85514 0.0
C283 C 0.5572 0.45536 0.07123 0.0
C284 C 0.57179 0.46816 0.98512 0.0
H285 H 0.51552 0.4121 0.14584 0.0
H286 H 0.57297 0.46706 0.13171 0.0
C287 C 0.55111 0.45201 0.90777 0.0
C288 C 0.28252 0.50048 0.78901 0.0
C289 C 0.27021 0.49859 0.70012 0.0
H290 H 0.2723 0.50211 0.93046 0.0
C291 C 0.23874 0.49951 0.68512 0.0
H292 H 0.30672 0.49972 0.80186 0.0
C293 C 0.21853 0.49973 0.75853 0.0
C294 C 0.23019 0.5003 0.8476 0.0
H295 H 0.22864 0.49773 0.61701 0.0
H296 H 0.19329 0.49839 0.74585 0.0
C297 C 0.26295 0.50197 0.86227 0.0
C298 C 0.79189 0.24008 0.02743 0.0
C299 C 0.75706 0.21089 0.0237 0.0
H300 H 0.83707 0.27877 0.95281 0.0
C301 C 0.7403 0.19926 0.93916 0.0
H302 H 0.80552 0.24954 0.09169 0.0
C303 C 0.75815 0.2165 0.85966 0.0
C304 C 0.79332 0.24511 0.86341 0.0
H305 H 0.7134 0.17691 0.93449 0.0
H306 H 0.74479 0.20683 0.79519 0.0
C307 C 0.80998 0.25677 0.948 0.0
C308 C 0.52787 0.76858 0.25143 0.0
C309 C 0.5348 0.7403 0.24426 0.0
H310 H 0.5213 0.80817 0.18066 0.0
C311 C 0.53849 0.72882 0.15812 0.0
H312 H 0.52518 0.77807 0.31723 0.0
C313 C 0.53564 0.74552 0.0804 0.0
C314 C 0.52991 0.77458 0.08742 0.0
H315 H 0.54383 0.70705 0.15081 0.0
H316 H 0.53896 0.7363 0.01484 0.0
C317 C 0.52589 0.78591 0.17354 0.0
C318 C 0.77319 0.49421 0.2732 0.0
C319 C 0.76212 0.49495 0.36216 0.0
H320 H 0.76286 0.49544 0.13154 0.0
C321 C 0.73013 0.49487 0.37671 0.0
H322 H 0.79785 0.49434 0.26064 0.0
C323 C 0.71079 0.49664 0.3032 0.0
C324 C 0.72255 0.49723 0.21429 0.0
H325 H 0.72129 0.49577 0.44484 0.0
H326 H 0.68724 0.49861 0.31582 0.0
C327 C 0.75317 0.49471 0.19964 0.0
C328 C 0.17913 0.73634 0.43846 0.0
C329 C 0.19578 0.74836 0.35399 0.0
H330 H 0.18341 0.74327 0.5822 0.0
C331 C 0.23076 0.77733 0.35051 0.0
H332 H 0.15218 0.71406 0.44307 0.0
C333 C 0.24844 0.79455 0.43021 0.0
C334 C 0.23168 0.78254 0.51463 0.0
H335 H 0.24411 0.78728 0.28613 0.0
H336 H 0.27518 0.81717 0.42578 0.0
C337 C 0.19704 0.75302 0.51805 0.0
C338 C 0.46238 0.22682 0.75382 0.0
C339 C 0.45626 0.25565 0.74688 0.0
H340 H 0.46767 0.18654 0.68279 0.0
C341 C 0.45268 0.26731 0.66084 0.0
H342 H 0.46495 0.21717 0.81954 0.0
C343 C 0.45485 0.25028 0.58302 0.0
C344 C 0.45977 0.22071 0.58982 0.0
H345 H 0.44796 0.28949 0.6537 0.0
H346 H 0.45164 0.25967 0.51756 0.0
C347 C 0.46368 0.20918 0.67583 0.0
C348 C 0.03152 0.36598 0.84896 0.0
C349 C 0.03504 0.36122 0.94186 0.0
H350 H -0.00295 0.35008 0.7338 0.0
C351 C 0.00606 0.33363 0.98836 0.0
H352 H 0.0534 0.38679 0.81089 0.0
C353 C 0.97368 0.31243 0.94393 0.0
C354 C 0.96964 0.31849 0.85223 0.0
H355 H 0.00798 0.3291 0.05982 0.0
H356 H 0.95148 0.29223 0.98244 0.0
C357 C -0.00082 0.34488 0.80468 0.0
C358 C 0.66441 0.97324 0.04186 0.0
C359 C 0.62794 0.95736 0.02173 0.0
H360 H 0.7109 0.019 0.09383 0.0
C361 C 0.61022 0.97634 0.04017 0.0
H362 H 0.67884 0.95933 0.02837 0.0
C363 C 0.62853 0.0104 0.07802 0.0
C364 C 0.66502 0.02638 0.0978 0.0
H365 H 0.58212 0.96486 0.02565 0.0
H366 H 0.61403 0.02425 0.09137 0.0
C367 C 0.68279 0.00746 0.07924 0.0
C368 C 0.6675 0.63708 0.2316 0.0
C369 C 0.6732 0.64209 0.13763 0.0
H370 H 0.65019 0.65113 0.35234 0.0
C371 C 0.66907 0.66881 0.09499 0.0
H372 H 0.67078 0.61697 0.26682 0.0
C373 C 0.65734 0.68855 0.14429 0.0
C374 C 0.64942 0.68187 0.23711 0.0
H375 H 0.67351 0.67354 0.02282 0.0
H376 H 0.65293 0.70786 0.10867 0.0
C377 C 0.65572 0.65672 0.28075 0.0
C378 C 0.99098 0.64665 0.302 0.0
C379 C 0.02028 0.67552 0.34408 0.0
H380 H 0.93767 0.60345 0.31584 0.0
C381 C 0.01663 0.6845 0.43344 0.0
H382 H 0.99279 0.63915 0.23302 0.0
C383 C 0.98493 0.66388 0.48123 0.0
C384 C 0.95626 0.63395 0.44047 0.0
H385 H 0.03866 0.70665 0.46771 0.0
H386 H 0.98333 0.67077 0.55094 0.0
C387 C 0.95933 0.62614 0.3496 0.0
C388 C 0.3777 0.01803 0.53822 0.0
C389 C 0.3598 0.03677 0.51906 0.0
H390 H 0.37403 0.97005 0.58856 0.0
C391 C 0.32313 0.02039 0.537 0.0
H392 H 0.40596 0.02988 0.52535 0.0
C393 C 0.30473 0.98592 0.57296 0.0
C394 C 0.32269 0.96723 0.59222 0.0
H395 H 0.30855 0.0341 0.5229 0.0
H396 H 0.27647 0.974 0.58589 0.0
C397 C 0.35938 0.9837 0.5746 0.0
C398 C 0.32348 0.32669 0.59392 0.0
C399 C 0.32 0.35422 0.6339 0.0
H400 H 0.33891 0.28725 0.61171 0.0
C401 C 0.3262 0.36044 0.72743 0.0
H402 H 0.31865 0.32104 0.52217 0.0
C403 C 0.33783 0.34113 0.77865 0.0
C404 C 0.34342 0.31509 0.7376 0.0
H405 H 0.32344 0.38121 0.76064 0.0
H406 H 0.34374 0.34762 0.84977 0.0
C407 C 0.33503 0.30726 0.64533 0.0
loop_
_geom_bond_atom_site_label_1
_geom_bond_atom_site_label_2
_geom_bond_distance
_geom_bond_site_symmetry_2
_ccdc_geom_bond_type
Zn0 O3 2.031 . S
Zn0 O5 2.049 . S
Zn0 O10 2.067 . S
Zn1 O2 1.962 1_554 S
Zn1 O4 1.986 . S
Zn1 O6 1.996 . S
Zn1 O9 1.943 . S
O2 Zn1 1.962 1_556 S
O2 C7 1.254 . S
O3 Zn0 2.031 . S
O3 C7 1.269 1_554 S
O4 Zn1 1.986 . S
O4 C11 1.261 1_554 S
O5 Zn0 2.049 . S
O5 C13 1.260 . S
O6 Zn1 1.996 . S
O6 C13 1.257 . S
C7 O2 1.254 . S
C7 O3 1.269 1_556 S
C8 O9 1.249 . S
C8 O10 1.270 . S
O9 Zn1 1.943 . S
O9 C8 1.249 . S
O10 Zn0 2.067 . S
O10 C8 1.270 . S
C11 O4 1.261 1_556 S
C11 O12 1.233 . S
O12 C11 1.233 . S
C13 O5 1.260 . S
C13 O6 1.257 . S
Zn14 O17 2.031 . S
Zn14 O19 2.049 . S
Zn14 O24 2.067 . S
Zn15 O16 1.962 . S
Zn15 O18 1.986 . S
Zn15 O20 1.996 . S
Zn15 O23 1.943 . S
O16 Zn15 1.962 . S
O16 C21 1.254 . S
O17 Zn14 2.031 . S
O17 C21 1.269 . S
O18 Zn15 1.986 . S
O18 C25 1.262 . S
O19 Zn14 2.049 . S
O19 C27 1.260 . S
O20 Zn15 1.996 . S
O20 C27 1.257 . S
C21 O16 1.254 . S
C21 O17 1.269 . S
C22 O23 1.249 . S
C22 O24 1.270 . S
O23 Zn15 1.943 . S
O23 C22 1.249 . S
O24 Zn14 2.067 . S
O24 C22 1.270 . S
C25 O18 1.262 . S
C25 O26 1.232 . S
O26 C25 1.232 . S
C27 O19 1.260 . S
C27 O20 1.257 . S
Zn28 O31 2.031 . S
Zn28 O33 2.049 . S
Zn28 O38 2.067 . S
Zn29 O30 1.962 . S
Zn29 O32 1.986 . S
Zn29 O34 1.996 . S
Zn29 O37 1.943 . S
O30 Zn29 1.962 . S
O30 C35 1.254 . S
O31 Zn28 2.031 . S
O31 C35 1.269 . S
O32 Zn29 1.986 . S
O32 C39 1.262 . S
O33 Zn28 2.049 . S
O33 C41 1.260 . S
O34 Zn29 1.996 . S
O34 C41 1.257 . S
C35 O30 1.254 . S
C35 O31 1.269 . S
C36 O37 1.249 . S
C36 O38 1.270 . S
O37 Zn29 1.943 . S
O37 C36 1.249 . S
O38 Zn28 2.067 . S
O38 C36 1.270 . S
C39 O32 1.262 . S
C39 O40 1.232 . S
O40 C39 1.232 . S
C41 O33 1.260 . S
C41 O34 1.257 . S
Zn42 O45 2.031 . S
Zn42 O47 2.049 . S
Zn42 O52 2.067 . S
Zn43 O44 1.962 . S
Zn43 O46 1.986 . S
Zn43 O48 1.996 . S
Zn43 O51 1.943 . S
O44 Zn43 1.962 . S
O44 C49 1.254 . S
O45 Zn42 2.031 . S
O45 C49 1.269 . S
O46 Zn43 1.986 . S
O46 C53 1.262 . S
O47 Zn42 2.049 . S
O47 C55 1.260 . S
O48 Zn43 1.996 . S
O48 C55 1.257 . S
C49 O44 1.254 . S
C49 O45 1.269 . S
C50 O51 1.249 . S
C50 O52 1.270 . S
O51 Zn43 1.943 . S
O51 C50 1.249 . S
O52 Zn42 2.067 . S
O52 C50 1.270 . S
C53 O46 1.262 . S
C53 O54 1.232 . S
O54 C53 1.232 . S
C55 O47 1.260 . S
C55 O48 1.257 . S
Zn56 O59 2.031 . S
Zn56 O61 2.049 . S
Zn56 O66 2.067 . S
Zn57 O58 1.962 . S
Zn57 O60 1.986 . S
Zn57 O62 1.996 . S
Zn57 O65 1.943 . S
O58 Zn57 1.962 . S
O58 C63 1.254 . S
O59 Zn56 2.031 . S
O59 C63 1.269 . S
O60 Zn57 1.986 . S
O60 C67 1.262 . S
O61 Zn56 2.049 . S
O61 C69 1.260 . S
O62 Zn57 1.996 . S
O62 C69 1.257 . S
C63 O58 1.254 . S
C63 O59 1.269 . S
C64 O65 1.249 . S
C64 O66 1.270 . S
O65 Zn57 1.943 . S
O65 C64 1.249 . S
O66 Zn56 2.067 . S
O66 C64 1.270 . S
C67 O60 1.262 . S
C67 O68 1.232 . S
O68 C67 1.232 . S
C69 O61 1.260 . S
C69 O62 1.257 . S
Zn70 O73 2.031 . S
Zn70 O75 2.049 . S
Zn70 O80 2.067 1_556 S
Zn71 O72 1.962 . S
Zn71 O74 1.986 . S
Zn71 O76 1.996 . S
Zn71 O79 1.943 . S
O72 Zn71 1.962 . S
O72 C77 1.254 . S
O73 Zn70 2.031 . S
O73 C77 1.269 . S
O74 Zn71 1.986 . S
O74 C81 1.262 . S
O75 Zn70 2.049 . S
O75 C83 1.260 . S
O76 Zn71 1.996 . S
O76 C83 1.257 . S
C77 O72 1.254 . S
C77 O73 1.269 . S
C78 O79 1.249 1_554 S
C78 O80 1.270 . S
O79 Zn71 1.943 . S
O79 C78 1.249 1_556 S
O80 Zn70 2.067 1_554 S
O80 C78 1.270 . S
C81 O74 1.262 . S
C81 O82 1.232 . S
O82 C81 1.232 . S
C83 O75 1.260 . S
C83 O76 1.257 . S
Zn84 O87 2.031 . S
Zn84 O89 2.049 . S
Zn84 O94 2.067 . S
Zn85 O86 1.962 1_556 S
Zn85 O88 1.986 . S
Zn85 O90 1.996 . S
Zn85 O93 1.943 . S
O86 Zn85 1.962 1_554 S
O86 C91 1.254 . S
O87 Zn84 2.031 . S
O87 C91 1.269 1_556 S
O88 Zn85 1.986 . S
O88 C95 1.262 . S
O89 Zn84 2.049 . S
O89 C97 1.260 . S
O90 Zn85 1.996 . S
O90 C97 1.257 . S
C91 O86 1.254 . S
C91 O87 1.269 1_554 S
C92 O93 1.249 . S
C92 O94 1.270 . S
O93 Zn85 1.943 . S
O93 C92 1.249 . S
O94 Zn84 2.067 . S
O94 C92 1.270 . S
C95 O88 1.262 . S
C95 O96 1.232 . S
O96 C95 1.232 . S
C97 O89 1.260 . S
C97 O90 1.257 . S
Zn98 O101 2.031 . S
Zn98 O103 2.049 1_554 S
Zn98 O108 2.067 1_554 S
Zn99 O100 1.962 . S
Zn99 O102 1.986 . S
Zn99 O104 1.996 . S
Zn99 O107 1.943 1_554 S
O100 Zn99 1.962 . S
O100 C105 1.254 . S
O101 Zn98 2.031 . S
O101 C105 1.269 . S
O102 Zn99 1.986 . S
O102 C109 1.262 . S
O103 Zn98 2.049 1_556 S
O103 C111 1.260 1_556 S
O104 Zn99 1.996 . S
O104 C111 1.257 . S
C105 O100 1.254 . S
C105 O101 1.269 . S
C106 O107 1.249 . S
C106 O108 1.270 . S
O107 Zn99 1.943 1_556 S
O107 C106 1.249 . S
O108 Zn98 2.067 1_556 S
O108 C106 1.270 . S
C109 O102 1.262 . S
C109 O110 1.232 . S
O110 C109 1.232 . S
C111 O103 1.260 1_554 S
C111 O104 1.257 . S
Zn112 O115 2.031 . S
Zn112 O117 2.049 . S
Zn112 O122 2.067 . S
Zn113 O114 1.962 . S
Zn113 O116 1.986 . S
Zn113 O118 1.996 . S
Zn113 O121 1.943 . S
O114 Zn113 1.962 . S
O114 C119 1.254 . S
O115 Zn112 2.031 . S
O115 C119 1.269 . S
O116 Zn113 1.986 . S
O116 C123 1.262 . S
O117 Zn112 2.049 . S
O117 C125 1.260 . S
O118 Zn113 1.996 . S
O118 C125 1.257 . S
C119 O114 1.254 . S
C119 O115 1.269 . S
C120 O121 1.249 . S
C120 O122 1.270 . S
O121 Zn113 1.943 . S
O121 C120 1.249 . S
O122 Zn112 2.067 . S
O122 C120 1.270 . S
C123 O116 1.262 . S
C123 O124 1.232 . S
O124 C123 1.232 . S
C125 O117 1.260 . S
C125 O118 1.257 . S
Zn126 O129 2.031 . S
Zn126 O131 2.049 . S
Zn126 O136 2.067 . S
Zn127 O128 1.962 . S
Zn127 O130 1.986 . S
Zn127 O132 1.996 . S
Zn127 O135 1.943 . S
O128 Zn127 1.962 . S
O128 C133 1.254 . S
O129 Zn126 2.031 . S
O129 C133 1.269 . S
O130 Zn127 1.986 . S
O130 C137 1.262 . S
O131 Zn126 2.049 . S
O131 C139 1.260 . S
O132 Zn127 1.996 . S
O132 C139 1.257 . S
C133 O128 1.254 . S
C133 O129 1.269 . S
C134 O135 1.249 . S
C134 O136 1.270 . S
O135 Zn127 1.943 . S
O135 C134 1.249 . S
O136 Zn126 2.067 . S
O136 C134 1.270 . S
C137 O130 1.262 . S
C137 O138 1.232 . S
O138 C137 1.232 . S
C139 O131 1.260 . S
C139 O132 1.257 . S
Zn140 O143 2.031 . S
Zn140 O145 2.049 . S
Zn140 O150 2.067 . S
Zn141 O142 1.962 . S
Zn141 O144 1.986 . S
Zn141 O146 1.996 . S
Zn141 O149 1.943 . S
O142 Zn141 1.962 . S
O142 C147 1.254 . S
O143 Zn140 2.031 . S
O143 C147 1.269 . S
O144 Zn141 1.986 . S
O144 C151 1.262 . S
O145 Zn140 2.049 . S
O145 C153 1.260 . S
O146 Zn141 1.996 . S
O146 C153 1.257 . S
C147 O142 1.254 . S
C147 O143 1.269 . S
C148 O149 1.249 . S
C148 O150 1.270 . S
O149 Zn141 1.943 . S
O149 C148 1.249 . S
O150 Zn140 2.067 . S
O150 C148 1.270 . S
C151 O144 1.262 . S
C151 O152 1.232 . S
O152 C151 1.232 . S
C153 O145 1.260 . S
C153 O146 1.257 . S
Zn154 O157 2.031 . S
Zn154 O159 2.049 . S
Zn154 O164 2.067 . S
Zn155 O156 1.962 . S
Zn155 O158 1.986 . S
Zn155 O160 1.996 . S
Zn155 O163 1.943 . S
O156 Zn155 1.962 . S
O156 C161 1.254 . S
O157 Zn154 2.031 . S
O157 C161 1.269 . S
O158 Zn155 1.986 . S
O158 C165 1.262 . S
O159 Zn154 2.049 . S
O159 C167 1.260 . S
O160 Zn155 1.996 . S
O160 C167 1.257 . S
C161 O156 1.254 . S
C161 O157 1.269 . S
C162 O163 1.249 . S
C162 O164 1.270 . S
O163 Zn155 1.943 . S
O163 C162 1.249 . S
O164 Zn154 2.067 . S
O164 C162 1.270 . S
C165 O158 1.262 . S
C165 O166 1.232 . S
O166 C165 1.232 . S
C167 O159 1.260 . S
C167 O160 1.257 . S
C168 C169 1.387 . S
C168 H172 0.950 . S
C168 C177 1.390 . S
C169 C168 1.387 . S
C169 C171 1.387 . S
H170 C177 0.950 . S
C171 C169 1.387 . S
C171 C173 1.390 . S
C171 H175 0.950 . S
H172 C168 0.950 . S
C173 C171 1.390 . S
C173 C174 1.387 . S
C173 H176 0.950 . S
C174 C173 1.387 . S
C174 C177 1.387 . S
H175 C171 0.950 . S
H176 C173 0.950 . S
C177 C168 1.390 . S
C177 H170 0.950 . S
C177 C174 1.387 . S
C178 C179 1.387 . S
C178 H182 0.950 . S
C178 C187 1.390 . S
C179 C178 1.387 . S
C179 C181 1.387 . S
H180 C187 0.950 . S
C181 C179 1.387 . S
C181 C183 1.390 . S
C181 H185 0.950 . S
H182 C178 0.950 . S
C183 C181 1.390 . S
C183 C184 1.387 . S
C183 H186 0.950 . S
C184 C183 1.387 . S
C184 C187 1.387 . S
H185 C181 0.950 . S
H186 C183 0.950 . S
C187 C178 1.390 . S
C187 H180 0.950 . S
C187 C184 1.387 . S
C188 C189 1.387 . S
C188 H192 0.950 . S
C188 C197 1.390 . S
C189 C188 1.387 . S
C189 C191 1.387 . S
H190 C197 0.950 . S
C191 C189 1.387 . S
C191 C193 1.390 . S
C191 H195 0.950 . S
H192 C188 0.950 . S
C193 C191 1.390 . S
C193 C194 1.387 . S
C193 H196 0.950 . S
C194 C193 1.387 . S
C194 C197 1.387 . S
H195 C191 0.950 . S
H196 C193 0.950 . S
C197 C188 1.390 . S
C197 H190 0.950 . S
C197 C194 1.387 . S
C198 C199 1.387 . S
C198 H202 0.950 . S
C198 C207 1.390 . S
C199 C198 1.387 . S
C199 C201 1.387 . S
H200 C207 0.950 . S
C201 C199 1.387 . S
C201 C203 1.390 . S
C201 H205 0.950 . S
H202 C198 0.950 . S
C203 C201 1.390 . S
C203 C204 1.387 . S
C203 H206 0.950 . S
C204 C203 1.387 . S
C204 C207 1.387 . S
H205 C201 0.950 . S
H206 C203 0.950 . S
C207 C198 1.390 . S
C207 H200 0.950 . S
C207 C204 1.387 . S
C208 C209 1.387 . S
C208 H212 0.950 . S
C208 C217 1.390 . S
C209 C208 1.387 . S
C209 C211 1.387 . S
H210 C217 0.950 . S
C211 C209 1.387 . S
C211 C213 1.390 1_556 S
C211 H215 0.950 . S
H212 C208 0.950 . S
C213 C211 1.390 1_554 S
C213 C214 1.387 . S
C213 H216 0.950 . S
C214 C213 1.387 . S
C214 C217 1.387 1_554 S
H215 C211 0.950 . S
H216 C213 0.950 . S
C217 C208 1.390 . S
C217 H210 0.950 . S
C217 C214 1.387 1_556 S
C218 C219 1.387 . S
C218 H222 0.950 . S
C218 C227 1.390 . S
C219 C218 1.387 . S
C219 C221 1.387 . S
H220 C227 0.950 . S
C221 C219 1.387 . S
C221 C223 1.390 . S
C221 H225 0.950 . S
H222 C218 0.950 . S
C223 C221 1.390 . S
C223 C224 1.387 . S
C223 H226 0.950 . S
C224 C223 1.387 . S
C224 C227 1.387 . S
H225 C221 0.950 . S
H226 C223 0.950 . S
C227 C218 1.390 . S
C227 H220 0.950 . S
C227 C224 1.387 . S
C228 C229 1.387 . S
C228 H232 0.950 . S
C228 C237 1.390 . S
C229 C228 1.387 . S
C229 C231 1.387 . S
H230 C237 0.950 . S
C231 C229 1.387 . S
C231 C233 1.390 . S
C231 H235 0.950 . S
H232 C228 0.950 . S
C233 C231 1.390 . S
C233 C234 1.387 . S
C233 H236 0.950 . S
C234 C233 1.387 . S
C234 C237 1.387 . S
H235 C231 0.950 . S
H236 C233 0.950 . S
C237 C228 1.390 . S
C237 H230 0.950 . S
C237 C234 1.387 . S
C238 C239 1.387 . S
C238 H242 0.950 . S
C238 C247 1.390 . S
C239 C238 1.387 . S
C239 C241 1.387 . S
H240 C247 0.950 . S
C241 C239 1.387 . S
C241 C243 1.390 . S
C241 H245 0.950 . S
H242 C238 0.950 . S
C243 C241 1.390 . S
C243 C244 1.387 . S
C243 H246 0.950 . S
C244 C243 1.387 . S
C244 C247 1.387 . S
H245 C241 0.950 . S
H246 C243 0.950 . S
C247 C238 1.390 . S
C247 H240 0.950 . S
C247 C244 1.387 . S
C248 C249 1.387 . S
C248 H252 0.950 . S
C248 C257 1.390 . S
C249 C248 1.387 . S
C249 C251 1.387 . S
H250 C257 0.950 . S
C251 C249 1.387 . S
C251 C253 1.390 . S
C251 H255 0.950 . S
H252 C248 0.950 . S
C253 C251 1.390 . S
C253 C254 1.387 . S
C253 H256 0.950 . S
C254 C253 1.387 . S
C254 C257 1.387 . S
H255 C251 0.950 . S
H256 C253 0.950 . S
C257 C248 1.390 . S
C257 H250 0.950 . S
C257 C254 1.387 . S
C258 C259 1.387 . S
C258 H262 0.950 . S
C258 C267 1.390 . S
C259 C258 1.387 . S
C259 C261 1.387 . S
H260 C267 0.950 . S
C261 C259 1.387 . S
C261 C263 1.390 . S
C261 H265 0.950 . S
H262 C258 0.950 . S
C263 C261 1.390 . S
C263 C264 1.387 . S
C263 H266 0.950 . S
C264 C263 1.387 . S
C264 C267 1.387 . S
H265 C261 0.950 . S
H266 C263 0.950 . S
C267 C258 1.390 . S
C267 H260 0.950 . S
C267 C264 1.387 . S
C268 C269 1.387 . S
C268 H272 0.950 . S
C268 C277 1.390 . S
C269 C268 1.387 . S
C269 C271 1.387 . S
H270 C277 0.950 . S
C271 C269 1.387 . S
C271 C273 1.390 . S
C271 H275 0.950 . S
H272 C268 0.950 . S
C273 C271 1.390 . S
C273 C274 1.387 . S
C273 H276 0.950 . S
C274 C273 1.387 . S
C274 C277 1.387 . S
H275 C271 0.950 . S
H276 C273 0.950 . S
C277 C268 1.390 . S
C277 H270 0.950 . S
C277 C274 1.387 . S
C278 C279 1.387 . S
C278 H282 0.950 . S
C278 C287 1.390 . S
C279 C278 1.387 . S
C279 C281 1.387 1_556 S
H280 C287 0.950 . S
C281 C279 1.387 1_554 S
C281 C283 1.390 . S
C281 H285 0.950 . S
H282 C278 0.950 . S
C283 C281 1.390 . S
C283 C284 1.387 1_554 S
C283 H286 0.950 . S
C284 C283 1.387 1_556 S
C284 C287 1.387 . S
H285 C281 0.950 . S
H286 C283 0.950 . S
C287 C278 1.390 . S
C287 H280 0.950 . S
C287 C284 1.387 . S
C288 C289 1.387 . S
C288 H292 0.950 . S
C288 C297 1.390 . S
C289 C288 1.387 . S
C289 C291 1.387 . S
H290 C297 0.950 . S
C291 C289 1.387 . S
C291 C293 1.390 . S
C291 H295 0.950 . S
H292 C288 0.950 . S
C293 C291 1.390 . S
C293 C294 1.387 . S
C293 H296 0.950 . S
C294 C293 1.387 . S
C294 C297 1.387 . S
H295 C291 0.950 . S
H296 C293 0.950 . S
C297 C288 1.390 . S
C297 H290 0.950 . S
C297 C294 1.387 . S
C298 C299 1.387 . S
C298 H302 0.950 . S
C298 C307 1.390 1_554 S
C299 C298 1.387 . S
C299 C301 1.387 1_554 S
H300 C307 0.950 . S
C301 C299 1.387 1_556 S
C301 C303 1.390 . S
C301 H305 0.950 . S
H302 C298 0.950 . S
C303 C301 1.390 . S
C303 C304 1.387 . S
C303 H306 0.950 . S
C304 C303 1.387 . S
C304 C307 1.387 . S
H305 C301 0.950 . S
H306 C303 0.950 . S
C307 C298 1.390 1_556 S
C307 H300 0.950 . S
C307 C304 1.387 . S
C308 C309 1.387 . S
C308 H312 0.950 . S
C308 C317 1.390 . S
C309 C308 1.387 . S
C309 C311 1.387 . S
H310 C317 0.950 . S
C311 C309 1.387 . S
C311 C313 1.390 . S
C311 H315 0.950 . S
H312 C308 0.950 . S
C313 C311 1.390 . S
C313 C314 1.387 . S
C313 H316 0.950 . S
C314 C313 1.387 . S
C314 C317 1.387 . S
H315 C311 0.950 . S
H316 C313 0.950 . S
C317 C308 1.390 . S
C317 H310 0.950 . S
C317 C314 1.387 . S
C318 C319 1.387 . S
C318 H322 0.950 . S
C318 C327 1.390 . S
C319 C318 1.387 . S
C319 C321 1.387 . S
H320 C327 0.950 . S
C321 C319 1.387 . S
C321 C323 1.390 . S
C321 H325 0.950 . S
H322 C318 0.950 . S
C323 C321 1.390 . S
C323 C324 1.387 . S
C323 H326 0.950 . S
C324 C323 1.387 . S
C324 C327 1.387 . S
H325 C321 0.950 . S
H326 C323 0.950 . S
C327 C318 1.390 . S
C327 H320 0.950 . S
C327 C324 1.387 . S
C328 C329 1.387 . S
C328 H332 0.950 . S
C328 C337 1.390 . S
C329 C328 1.387 . S
C329 C331 1.387 . S
H330 C337 0.950 . S
C331 C329 1.387 . S
C331 C333 1.390 . S
C331 H335 0.950 . S
H332 C328 0.950 . S
C333 C331 1.390 . S
C333 C334 1.387 . S
C333 H336 0.950 . S
C334 C333 1.387 . S
C334 C337 1.387 . S
H335 C331 0.950 . S
H336 C333 0.950 . S
C337 C328 1.390 . S
C337 H330 0.950 . S
C337 C334 1.387 . S
C338 C339 1.387 . S
C338 H342 0.950 . S
C338 C347 1.390 . S
C339 C338 1.387 . S
C339 C341 1.387 . S
H340 C347 0.950 . S
C341 C339 1.387 . S
C341 C343 1.390 . S
C341 H345 0.950 . S
H342 C338 0.950 . S
C343 C341 1.390 . S
C343 C344 1.387 . S
C343 H346 0.950 . S
C344 C343 1.387 . S
C344 C347 1.387 . S
H345 C341 0.950 . S
H346 C343 0.950 . S
C347 C338 1.390 . S
C347 H340 0.950 . S
C347 C344 1.387 . S
C348 C349 1.387 . S
C348 H352 0.950 . S
C348 C357 1.390 1_455 S
C349 C348 1.387 . S
C349 C351 1.387 . S
H350 C357 0.950 . S
C351 C349 1.387 . S
C351 C353 1.390 1_455 S
C351 H355 0.950 . S
H352 C348 0.950 . S
C353 C351 1.390 1_655 S
C353 C354 1.387 . S
C353 H356 0.950 . S
C354 C353 1.387 . S
C354 C357 1.387 . S
H355 C351 0.950 . S
H356 C353 0.950 . S
C357 C348 1.390 1_655 S
C357 H350 0.950 . S
C357 C354 1.387 . S
C358 C359 1.387 1_554 S
C358 H362 0.948 1_554 S
C358 C367 1.390 1_565 S
C359 C358 1.387 1_556 S
C359 C361 1.387 1_556 S
H360 C367 0.950 . S
C361 C359 1.387 1_554 S
C361 C363 1.390 1_565 S
C361 H365 0.949 1_554 S
H362 C358 0.948 1_556 S
C363 C361 1.390 1_545 S
C363 C364 1.387 . S
C363 H366 0.950 . S
C364 C363 1.387 . S
C364 C367 1.387 . S
H365 C361 0.949 1_556 S
H366 C363 0.950 . S
C367 C358 1.390 1_545 S
C367 H360 0.950 . S
C367 C364 1.387 . S
C368 C369 1.387 . S
C368 H372 0.950 . S
C368 C377 1.390 . S
C369 C368 1.387 . S
C369 C371 1.387 . S
H370 C377 0.950 . S
C371 C369 1.387 . S
C371 C373 1.390 . S
C371 H375 0.950 . S
H372 C368 0.950 . S
C373 C371 1.390 . S
C373 C374 1.387 . S
C373 H376 0.950 . S
C374 C373 1.387 . S
C374 C377 1.387 . S
H375 C371 0.950 . S
H376 C373 0.950 . S
C377 C368 1.390 . S
C377 H370 0.950 . S
C377 C374 1.387 . S
C378 C379 1.387 1_655 S
C378 H382 0.950 . S
C378 C387 1.390 . S
C379 C378 1.387 1_455 S
C379 C381 1.387 . S
H380 C387 0.950 . S
C381 C379 1.387 . S
C381 C383 1.390 . S
C381 H385 0.950 . S
H382 C378 0.950 . S
C383 C381 1.390 . S
C383 C384 1.387 1_455 S
C383 H386 0.950 . S
C384 C383 1.387 1_655 S
C384 C387 1.387 . S
H385 C381 0.950 . S
H386 C383 0.950 . S
C387 C378 1.390 . S
C387 H380 0.950 . S
C387 C384 1.387 . S
C388 C389 1.387 . S
C388 H392 0.950 . S
C388 C397 1.390 1_545 S
C389 C388 1.387 . S
C389 C391 1.387 . S
H390 C397 0.950 . S
C391 C389 1.387 . S
C391 C393 1.390 1_545 S
C391 H395 0.950 . S
H392 C388 0.950 . S
C393 C391 1.390 1_565 S
C393 C394 1.387 . S
C393 H396 0.950 . S
C394 C393 1.387 . S
C394 C397 1.387 . S
H395 C391 0.950 . S
H396 C393 0.950 . S
C397 C388 1.390 1_565 S
C397 H390 0.950 . S
C397 C394 1.387 . S
C398 C399 1.387 . S
C398 H402 0.950 . S
C398 C407 1.390 . S
C399 C398 1.387 . S
C399 C401 1.387 . S
H400 C407 0.950 . S
C401 C399 1.387 . S
C401 C403 1.390 . S
C401 H405 0.950 . S
H402 C398 0.950 . S
C403 C401 1.390 . S
C403 C404 1.387 . S
C403 H406 0.950 . S
C404 C403 1.387 . S
C404 C407 1.387 . S
H405 C401 0.950 . S
H406 C403 0.950 . S
C407 C398 1.390 . S
C407 H400 0.950 . S
C407 C404 1.387 . S
C169 C8 1.441 . S
C174 C148 1.441 . S
C179 C162 1.440 . S
C184 C22 1.440 . S
C189 C36 1.440 . S
C194 C92 1.440 . S
C199 C50 1.440 . S
C204 C106 1.440 . S
C209 C64 1.441 . S
C214 C120 1.440 . S
C219 C134 1.441 . S
C224 C78 1.439 . S
C229 C13 1.458 . S
C234 C125 1.458 . S
C239 C27 1.458 . S
C244 C139 1.458 . S
C249 C153 1.460 . S
C254 C41 1.456 . S
C259 C55 1.460 . S
C264 C167 1.457 . S
C269 C69 1.458 . S
C274 C97 1.458 . S
C279 C83 1.456 . S
C284 C111 1.460 1_556 S
C289 C147 1.016 . S
C294 C7 1.016 . S
C299 C21 1.016 . S
C304 C161 1.017 . S
C309 C35 1.015 . S
C314 C91 1.017 . S
C319 C49 1.016 . S
C324 C105 1.016 . S
C329 C119 1.017 . S
C334 C63 1.015 . S
C339 C77 1.015 . S
C344 C133 1.017 . S
C349 C11 1.525 . S
C354 C165 1.523 . S
C359 C95 1.520 . S
C364 C25 1.520 . S
C369 C109 1.523 . S
C374 C39 1.523 . S
C379 C123 1.523 . S
C384 C53 1.522 . S
C389 C137 1.523 . S
C394 C67 1.523 . S
C399 C151 1.520 . S
C404 C81 1.520 . S
