# Generated by pormake.
# Topology noo, (5)-cn, num edge types: 1
# Building blocks:
#     Node 0, Type 0, BuildingBlock: XOMCOT_clean_sbu_0, # of connection points: 5
#     Node 1, Type 0, BuildingBlock: XOMCOT_clean_sbu_0, # of connection points: 5
#     Node 2, Type 0, BuildingBlock: XOMCOT_clean_sbu_0, # of connection points: 5
#     Node 3, Type 0, BuildingBlock: XOMCOT_clean_sbu_0, # of connection points: 5
#     Node 4, Type 0, BuildingBlock: XOMCOT_clean_sbu_0, # of connection points: 5
#     Node 5, Type 0, BuildingBlock: XOMCOT_clean_sbu_0, # of connection points: 5
#     Node 6, Type 0, BuildingBlock: XOMCOT_clean_sbu_0, # of connection points: 5
#     Node 7, Type 0, BuildingBlock: XOMCOT_clean_sbu_0, # of connection points: 5
#     Edge 8, Type (0, 0), BuildingBlock: UVAHIK_clean_linker_0, # of connection points: 2
#     Edge 9, Type (0, 0), BuildingBlock: UVAHIK_clean_linker_0, # of connection points: 2
#     Edge 10, Type (0, 0), BuildingBlock: UVAHIK_clean_linker_0, # of connection points: 2
#     Edge 11, Type (0, 0), BuildingBlock: UVAHIK_clean_linker_0, # of connection points: 2
#     Edge 12, Type (0, 0), BuildingBlock: UVAHIK_clean_linker_0, # of connection points: 2
#     Edge 13, Type (0, 0), BuildingBlock: UVAHIK_clean_linker_0, # of connection points: 2
#     Edge 14, Type (0, 0), BuildingBlock: UVAHIK_clean_linker_0, # of connection points: 2
#     Edge 15, Type (0, 0), BuildingBlock: UVAHIK_clean_linker_0, # of connection points: 2
#     Edge 16, Type (0, 0), BuildingBlock: UVAHIK_clean_linker_0, # of connection points: 2
#     Edge 17, Type (0, 0), BuildingBlock: UVAHIK_clean_linker_0, # of connection points: 2
#     Edge 18, Type (0, 0), BuildingBlock: UVAHIK_clean_linker_0, # of connection points: 2
#     Edge 19, Type (0, 0), BuildingBlock: UVAHIK_clean_linker_0, # of connection points: 2
#     Edge 20, Type (0, 0), BuildingBlock: UVAHIK_clean_linker_0, # of connection points: 2
#     Edge 21, Type (0, 0), BuildingBlock: UVAHIK_clean_linker_0, # of connection points: 2
#     Edge 22, Type (0, 0), BuildingBlock: UVAHIK_clean_linker_0, # of connection points: 2
#     Edge 23, Type (0, 0), BuildingBlock: UVAHIK_clean_linker_0, # of connection points: 2
#     Edge 24, Type (0, 0), BuildingBlock: UVAHIK_clean_linker_0, # of connection points: 2
#     Edge 25, Type (0, 0), BuildingBlock: UVAHIK_clean_linker_0, # of connection points: 2
#     Edge 26, Type (0, 0), BuildingBlock: UVAHIK_clean_linker_0, # of connection points: 2
#     Edge 27, Type (0, 0), BuildingBlock: UVAHIK_clean_linker_0, # of connection points: 2
# Relax obj value: 0.060
# Max RMSD: 0.114
# Mean RMSD: 0.114
data_MOF--net-noo--node1-XOMCOT_clean_sbu_0--edge1-UVAHIK_clean_linker_0
_symmetry_space_group_name_H-M    P1
_symmetry_Int_Tables_number       1
_symmetry_cell_setting            triclinic
loop_
_symmetry_equiv_pos_as_xyz
'x, y, z'
_cell_length_a     49.498199
_cell_length_b     49.519681
_cell_length_c     37.811797
_cell_angle_alpha  89.975351
_cell_angle_beta   89.923179
_cell_angle_gamma 89.947194
loop_
_atom_site_label
_atom_site_type_symbol
_atom_site_fract_x
_atom_site_fract_y
_atom_site_fract_z
_atom_type_partial_charge
Co0 Co 0.43747 0.21993 0.03216 0.0
C1 C 0.46119 0.16529 0.04121 0.0
C2 C 0.4858 0.19605 0.06476 0.0
C3 C 0.49823 0.17142 0.06962 0.0
N4 N 0.46273 0.19221 0.04668 0.0
N5 N 0.48277 0.15206 0.05474 0.0
H6 H 0.44478 0.1556 0.02736 0.0
H7 H 0.49303 0.21541 0.07396 0.0
C8 C 0.47205 0.266 1.00393 0.0
O9 O 0.45283 0.27374 0.98227 0.0
N10 N 0.41179 0.24777 0.01788 0.0
C11 C 0.39412 0.24656 0.99074 0.0
C12 C 0.38113 0.27093 0.98768 0.0
C13 C 0.40853 0.27284 0.03172 0.0
N14 N 0.39022 0.28745 0.01326 0.0
C15 C 0.41809 0.18508 0.97757 0.0
C16 C 0.4531 0.20031 0.92434 0.0
C17 C 0.43268 0.18159 0.91687 0.0
C18 C 0.41549 0.17356 0.94419 0.0
C19 C 0.45548 0.21091 0.9586 0.0
N20 N 0.43728 0.20425 0.98446 0.0
H21 H 0.40388 0.17892 0.99757 0.0
H22 H 0.47208 0.22427 0.96377 0.0
H23 H 0.39098 0.22955 0.97352 0.0
H24 H 0.42033 0.28068 0.05349 0.0
O25 O 0.40816 0.19948 0.05272 0.0
O26 O 0.43237 0.22984 0.0814 0.0
O27 O 0.46928 0.24461 0.02256 0.0
C28 C 0.41315 0.21196 0.08216 0.0
H29 H 0.51703 0.16805 0.08352 0.0
H30 H 0.36631 0.27629 0.96783 0.0
H31 H 0.46715 0.20656 0.90395 0.0
H32 H 0.3994 0.15918 0.93949 0.0
Co33 Co 0.80058 0.43622 0.03889 0.0
C34 C 0.8547 0.46105 0.04553 0.0
C35 C 0.82373 0.48607 0.06812 0.0
C36 C 0.84825 0.49885 0.07215 0.0
N37 N 0.8278 0.46252 0.05118 0.0
N38 N 0.86772 0.4831 0.05792 0.0
H39 H 0.8645 0.44426 0.03249 0.0
H40 H 0.80436 0.49326 0.07739 0.0
C41 C 0.75568 0.4706 0.00565 0.0
O42 O 0.74976 0.45211 0.982 0.0
N43 N 0.7734 0.40934 0.02688 0.0
C44 C 0.77828 0.38528 0.01141 0.0
C45 C 0.75438 0.37178 0.00707 0.0
C46 C 0.74643 0.4095 0.03321 0.0
N47 N 0.73427 0.38704 0.0204 0.0
C48 C 0.8336 0.41324 0.98473 0.0
C49 C 0.82201 0.44899 0.93091 0.0
C50 C 0.83816 0.42634 0.92343 0.0
C51 C 0.84462 0.40899 0.95138 0.0
C52 C 0.8116 0.45274 0.96517 0.0
N53 N 0.81608 0.43401 0.99115 0.0
H54 H 0.83916 0.3993 0.00533 0.0
H55 H 0.8003 0.47085 0.97041 0.0
H56 H 0.79785 0.3775 0.00426 0.0
H57 H 0.73585 0.42595 0.04601 0.0
O58 O 0.82178 0.40838 0.06167 0.0
O59 O 0.79072 0.43311 0.08843 0.0
O60 O 0.77532 0.46709 0.02712 0.0
C61 C 0.80895 0.41425 0.09062 0.0
H62 H 0.85152 0.51798 0.08526 0.0
H63 H 0.75201 0.35199 0.99532 0.0
H64 H 0.8171 0.46351 0.91048 0.0
H65 H 0.8582 0.39206 0.94766 0.0
Co66 Co 0.58375 0.79827 0.04868 0.0
C67 C 0.55892 0.85258 0.04685 0.0
C68 C 0.53136 0.82282 0.06697 0.0
C69 C 0.51875 0.84764 0.06744 0.0
N70 N 0.55646 0.82596 0.05389 0.0
N71 N 0.5361 0.86637 0.05482 0.0
H72 H 0.57707 0.86157 0.03606 0.0
H73 H 0.52296 0.80391 0.07614 0.0
C74 C 0.54961 0.75503 0.01276 0.0
O75 O 0.56681 0.75301 0.98638 0.0
N76 N 0.61172 0.77032 0.0443 0.0
C77 C 0.63865 0.77467 0.04624 0.0
C78 C 0.65206 0.75046 0.04565 0.0
C79 C 0.60933 0.74299 0.04368 0.0
N80 N 0.63369 0.73053 0.04394 0.0
C81 C 0.6129 0.81839 0.98919 0.0
C82 C 0.57007 0.82166 0.9426 0.0
C83 C 0.59548 0.83119 0.93204 0.0
C84 C 0.617 0.82945 0.95578 0.0
C85 C 0.56671 0.81115 0.97679 0.0
N86 N 0.58821 0.80887 0.99932 0.0
H87 H 0.62948 0.81879 0.00745 0.0
H88 H 0.54665 0.80564 0.98547 0.0
H89 H 0.6483 0.79406 0.0494 0.0
H90 H 0.59043 0.7322 0.04493 0.0
O91 O 0.60974 0.82261 0.06948 0.0
O92 O 0.58445 0.79366 0.0995 0.0
O93 O 0.5541 0.77139 0.03819 0.0
C94 C 0.60282 0.81247 0.09989 0.0
H95 H 0.49861 0.85163 0.0773 0.0
H96 H 0.67374 0.7477 0.04678 0.0
H97 H 0.55281 0.82331 0.92514 0.0
H98 H 0.63684 0.83699 0.94873 0.0
Co99 Co 0.22045 0.58461 0.03917 0.0
C100 C 0.16573 0.56162 0.04951 0.0
C101 C 0.19649 0.53701 0.07327 0.0
C102 C 0.17183 0.52473 0.07838 0.0
N103 N 0.19265 0.55999 0.05493 0.0
N104 N 0.1525 0.54018 0.06336 0.0
H105 H 0.15608 0.57787 0.03521 0.0
H106 H 0.21588 0.52965 0.08222 0.0
C107 C 0.26419 0.54814 0.00845 0.0
O108 O 0.27017 0.56585 0.98379 0.0
N109 N 0.24856 0.6095 0.02359 0.0
C110 C 0.24634 0.62898 0.99876 0.0
C111 C 0.27105 0.64093 0.99387 0.0
C112 C 0.27467 0.61061 0.03435 0.0
N113 N 0.28883 0.62938 0.01609 0.0
C114 C 0.18614 0.60493 0.98443 0.0
C115 C 0.19654 0.56637 0.93356 0.0
C116 C 0.17948 0.58806 0.92522 0.0
C117 C 0.17387 0.6071 0.95144 0.0
C118 C 0.20798 0.56458 0.96745 0.0
N119 N 0.20394 0.58456 0.99191 0.0
H120 H 0.18175 0.6204 1.00361 0.0
H121 H 0.21964 0.54689 0.97365 0.0
H122 H 0.22827 0.63438 0.98465 0.0
H123 H 0.28335 0.59722 0.05392 0.0
O124 O 0.20067 0.61444 0.05987 0.0
O125 O 0.23128 0.59007 0.08794 0.0
O126 O 0.24454 0.55238 0.02971 0.0
C127 C 0.21362 0.60951 0.089 0.0
H128 H 0.16842 0.50596 0.09236 0.0
H129 H 0.27569 0.65691 0.97527 0.0
H130 H 0.20071 0.55077 0.91422 0.0
H131 H 0.1607 0.62412 0.94618 0.0
Co132 Co 0.937 0.30128 0.46802 0.0
C133 C 0.96135 0.3555 0.4602 0.0
C134 C 0.98589 0.32479 0.43618 0.0
C135 C 0.9985 0.34938 0.43184 0.0
N136 N 0.96275 0.32865 0.45421 0.0
N137 N 0.98305 0.36869 0.44698 0.0
H138 H 0.94492 0.36513 0.47422 0.0
H139 H 0.99299 0.30548 0.42658 0.0
C140 C 0.97228 0.25616 0.49862 0.0
O141 O 0.95426 0.24992 0.52281 0.0
N142 N 0.91064 0.27392 0.48159 0.0
C143 C 0.88755 0.27846 0.49961 0.0
C144 C 0.87426 0.25448 0.50444 0.0
C145 C 0.91037 0.2471 0.47431 0.0
N146 N 0.88867 0.23466 0.48893 0.0
C147 C 0.91633 0.33427 0.5239 0.0
C148 C 0.95509 0.32331 0.57427 0.0
C149 C 0.93351 0.3404 0.583 0.0
C150 C 0.91431 0.34621 0.5571 0.0
C151 C 0.95671 0.31219 0.54019 0.0
N152 N 0.93667 0.31657 0.51591 0.0
H153 H 0.90115 0.33939 0.50466 0.0
H154 H 0.97441 0.30065 0.53359 0.0
H155 H 0.88028 0.29783 0.50834 0.0
H156 H 0.92609 0.2368 0.45965 0.0
O157 O 0.90828 0.32253 0.44732 0.0
O158 O 0.93208 0.29171 0.41868 0.0
O159 O 0.96835 0.27605 0.47766 0.0
C160 C 0.91316 0.30996 0.41788 0.0
H161 H 0.01736 0.3528 0.41804 0.0
H162 H 0.85521 0.25187 0.5181 0.0
H163 H 0.97081 0.31901 0.59337 0.0
H164 H 0.89744 0.35952 0.56265 0.0
Co165 Co 0.72187 0.93818 0.47639 0.0
C166 C 0.66746 0.96276 0.46922 0.0
C167 C 0.69846 0.98832 0.44797 0.0
C168 C 0.67385 1.00091 0.44352 0.0
N169 N 0.69445 0.96454 0.46439 0.0
N170 N 0.65434 0.98482 0.45692 0.0
H171 H 0.6576 0.94568 0.48143 0.0
H172 H 0.71786 0.99579 0.43922 0.0
C173 C 0.7684 0.9719 0.50666 0.0
O174 O 0.77618 0.95249 0.52806 0.0
N175 N 0.74907 0.91116 0.48807 0.0
C176 C 0.74433 0.8883 0.5064 0.0
C177 C 0.76799 0.87416 0.50984 0.0
C178 C 0.77561 0.90993 0.47921 0.0
N179 N 0.78782 0.88784 0.49321 0.0
C180 C 0.68692 0.91696 0.52972 0.0
C181 C 0.70475 0.94687 0.58652 0.0
C182 C 0.68586 0.92618 0.59249 0.0
C183 C 0.67627 0.91197 0.56311 0.0
C184 C 0.71454 0.95168 0.55218 0.0
N185 N 0.70673 0.93577 0.52442 0.0
H186 H 0.67934 0.90495 0.50822 0.0
H187 H 0.72823 0.96822 0.54855 0.0
H188 H 0.72498 0.8819 0.51643 0.0
H189 H 0.78595 0.92536 0.46409 0.0
O190 O 0.70066 0.91031 0.45404 0.0
O191 O 0.73123 0.93512 0.42657 0.0
O192 O 0.74714 0.96921 0.48779 0.0
C193 C 0.71298 0.91628 0.4248 0.0
H194 H 0.67057 0.02015 0.43063 0.0
H195 H 0.77035 0.85508 0.52348 0.0
H196 H 0.71237 0.95895 0.60817 0.0
H197 H 0.66071 0.89675 0.56573 0.0
Co198 Co 0.08555 0.72137 0.468 0.0
C199 C 0.06118 0.66695 0.46207 0.0
C200 C 0.03585 0.69759 0.43937 0.0
C201 C 0.02323 0.67298 0.43566 0.0
N202 N 0.0595 0.6938 0.45616 0.0
N203 N 0.03916 0.6537 0.44995 0.0
H204 H 0.07808 0.65736 0.47513 0.0
H205 H 0.02844 0.71687 0.43007 0.0
C206 C 0.05097 0.76591 0.50127 0.0
O207 O 0.06964 0.77167 0.52475 0.0
N208 N 0.11217 0.749 0.47952 0.0
C209 C 0.13645 0.74452 0.49457 0.0
C210 C 0.14961 0.76864 0.49873 0.0
C211 C 0.11154 0.77597 0.47323 0.0
N212 N 0.1339 0.78851 0.48574 0.0
C213 C 0.10907 0.6894 0.52283 0.0
C214 C 0.07252 0.70016 0.57608 0.0
C215 C 0.0955 0.68459 0.58398 0.0
C216 C 0.11329 0.67856 0.55629 0.0
C217 C 0.06881 0.71036 0.54171 0.0
N218 N 0.0879 0.70634 0.51601 0.0
H219 H 0.12328 0.68405 0.50243 0.0
H220 H 0.05042 0.72111 0.53612 0.0
H221 H 0.14463 0.72509 0.50156 0.0
H222 H 0.0948 0.78626 0.46069 0.0
O223 O 0.11363 0.70023 0.44565 0.0
O224 O 0.08867 0.7307 0.41821 0.0
O225 O 0.05437 0.74643 0.47953 0.0
C226 C 0.10775 0.71266 0.41644 0.0
H227 H 1.00405 0.66951 0.42275 0.0
H228 H 0.16949 0.77128 0.51012 0.0
H229 H 0.05766 0.70472 0.59624 0.0
H230 H 0.1305 0.66539 0.56024 0.0
Co231 Co 0.29977 0.08367 0.46079 0.0
C232 C 0.35431 0.05916 0.46063 0.0
C233 C 0.32464 0.03257 0.43832 0.0
C234 C 0.34949 0.02006 0.43685 0.0
N235 N 0.32769 0.05696 0.45342 0.0
N236 N 0.36817 0.03679 0.45087 0.0
H237 H 0.36328 0.07679 0.47274 0.0
H238 H 0.30577 0.02464 0.4284 0.0
C239 C 0.25448 0.05079 0.4948 0.0
O240 O 0.24918 0.07001 0.51775 0.0
N241 N 0.27178 0.11101 0.46761 0.0
C242 C 0.27615 0.13727 0.47531 0.0
C243 C 0.25209 0.15098 0.47463 0.0
C244 C 0.24485 0.10942 0.46127 0.0
N245 N 0.23239 0.1335 0.466 0.0
C246 C 0.32686 0.11067 0.51712 0.0
C247 C 0.31829 0.07296 0.56968 0.0
C248 C 0.3314 0.09724 0.57829 0.0
C249 C 0.3363 0.11575 0.55106 0.0
C250 C 0.30935 0.06853 0.53491 0.0
N251 N 0.31224 0.08804 0.50955 0.0
H252 H 0.33195 0.12498 0.4968 0.0
H253 H 0.30056 0.04924 0.52859 0.0
H254 H 0.29555 0.14648 0.47967 0.0
H255 H 0.23465 0.09136 0.45235 0.0
O256 O 0.32241 0.11041 0.43819 0.0
O257 O 0.29291 0.08454 0.41033 0.0
O258 O 0.27384 0.05344 0.47267 0.0
C259 C 0.31113 0.10342 0.4086 0.0
H260 H 0.35354 1.00045 0.42541 0.0
H261 H 0.24927 0.17229 0.47992 0.0
H262 H 0.31478 0.05761 0.58954 0.0
H263 H 0.34776 0.13403 0.5557 0.0
C264 C 0.50495 0.90531 0.04868 0.0
C265 C 0.53137 0.89513 0.05196 0.0
C266 C 0.50017 0.93314 0.04727 0.0
C267 C 0.53084 0.99864 0.07153 0.0
H268 H 0.47604 0.02821 0.00935 0.0
C269 C 0.51509 0.11377 0.05548 0.0
C270 C 0.48839 0.1234 0.05327 0.0
C271 C 0.52061 0.08607 0.05424 0.0
C272 C 0.49121 0.02027 0.02717 0.0
H273 H 0.57354 0.90653 0.05604 0.0
H274 H 0.56527 0.95505 0.05308 0.0
H275 H 0.48539 0.97984 0.00857 0.0
H276 H 0.44653 0.11109 0.04831 0.0
H277 H 0.45612 0.06283 0.04627 0.0
H278 H 0.53656 0.039 0.09032 0.0
C279 C 0.54817 0.94144 0.05196 0.0
C280 C 0.4966 0.9925 0.02669 0.0
C281 C 0.55296 0.91357 0.05326 0.0
C282 C 0.46735 0.10452 0.04961 0.0
C283 C 0.47287 0.07678 0.04841 0.0
C284 C 0.52544 0.02639 0.07204 0.0
C285 C 0.52169 0.95161 0.04916 0.0
C286 C 0.51643 0.9813 0.04894 0.0
C287 C 0.49958 0.06717 0.05079 0.0
C288 C 0.5055 0.03759 0.04994 0.0
H289 H 0.48785 0.89176 0.04715 0.0
H290 H 0.47951 0.94019 0.04542 0.0
H291 H 0.54594 0.99069 0.08945 0.0
H292 H 0.53186 0.12766 0.05765 0.0
H293 H 0.54146 0.07949 0.05551 0.0
C294 C 0.91531 0.46746 0.05608 0.0
C295 C 0.89636 0.48864 0.05678 0.0
C296 C 0.94306 0.47291 0.05585 0.0
C297 C 0.99295 0.52645 0.03567 0.0
H298 H 0.04005 0.48455 0.09649 0.0
C299 C 0.10491 0.55556 0.05902 0.0
C300 C 0.12389 0.53452 0.06176 0.0
C301 C 0.07719 0.54997 0.05779 0.0
C302 C 0.02729 0.49624 0.07897 0.0
H303 H 0.89189 0.53219 0.05688 0.0
H304 H 0.9402 0.5417 0.05679 0.0
H305 H 0.99188 0.47454 0.09488 0.0
H306 H 0.12848 0.49102 0.06434 0.0
H307 H 0.08036 0.48126 0.06189 0.0
H308 H 0.02835 0.54807 0.0196 0.0
C309 C 0.93361 0.52085 0.05632 0.0
C310 C 0.99962 0.49049 0.07809 0.0
C311 C 0.90588 0.51539 0.05677 0.0
C312 C 0.11445 0.50775 0.06291 0.0
C313 C 0.08679 0.50216 0.06153 0.0
C314 C 0.02065 0.53213 0.03644 0.0
C315 C 0.95256 0.49969 0.05606 0.0
C316 C 0.98209 0.50555 0.05649 0.0
C317 C 0.06774 0.52318 0.0591 0.0
C318 C 0.0382 0.51713 0.05814 0.0
H319 H 0.90873 0.44663 0.05636 0.0
H320 H 0.95711 0.45613 0.0553 0.0
H321 H 0.98008 0.53821 0.01838 0.0
H322 H 0.11143 0.57641 0.0585 0.0
H323 H 0.06315 0.56672 0.05644 0.0
C324 C 0.96749 0.41622 0.45105 0.0
C325 C 0.98864 0.39731 0.44859 0.0
C326 C 0.97296 0.44395 0.4521 0.0
C327 C 0.02706 0.49333 0.47178 0.0
H328 H 0.98311 0.54208 0.41588 0.0
C329 C 0.05494 0.60615 0.45233 0.0
C330 C 0.03372 0.62505 0.45146 0.0
C331 C 0.04952 0.57838 0.45278 0.0
C332 C 0.99539 0.52884 0.43205 0.0
H333 H 0.03219 0.39291 0.44606 0.0
H334 H 0.04169 0.44119 0.44755 0.0
H335 H 0.97334 0.49388 0.41549 0.0
H336 H 0.99014 0.62941 0.4516 0.0
H337 H 0.9807 0.58121 0.45273 0.0
H338 H 0.04904 0.5283 0.48848 0.0
C339 C 0.02086 0.43457 0.4488 0.0
C340 C 0.98977 0.50115 0.43178 0.0
C341 C 0.01539 0.40687 0.44755 0.0
C342 C 1.00698 0.61547 0.45158 0.0
C343 C 1.00157 0.58776 0.45218 0.0
C344 C 0.03262 0.52106 0.47216 0.0
C345 C 0.99971 0.45349 0.45094 0.0
C346 C 1.00555 0.48303 0.4516 0.0
C347 C 0.02275 0.56879 0.45253 0.0
C348 C 0.01686 0.53921 0.45227 0.0
H349 H 0.94666 0.40964 0.45162 0.0
H350 H 0.95619 0.45794 0.45409 0.0
H351 H 0.0394 0.47999 0.48773 0.0
H352 H 0.07576 0.61278 0.45183 0.0
H353 H 0.06638 0.56442 0.45256 0.0
C354 C 0.60687 0.9687 0.45867 0.0
C355 C 0.62557 0.99006 0.45751 0.0
C356 C 0.57904 0.97384 0.45885 0.0
C357 C 0.52847 0.02741 0.47753 0.0
H358 H 0.48131 0.98254 0.42073 0.0
C359 C 0.41543 0.0534 0.45436 0.0
C360 C 0.39691 0.03187 0.45363 0.0
C361 C 0.4433 0.04847 0.45572 0.0
C362 C 0.49411 0.99508 0.43711 0.0
H363 H 0.62939 0.03368 0.45627 0.0
H364 H 0.58099 0.04261 0.45602 0.0
H365 H 0.52969 0.97352 0.42149 0.0
H366 H 0.39338 0.98824 0.4551 0.0
H367 H 0.44174 0.97967 0.45761 0.0
H368 H 0.49286 0.04898 0.49313 0.0
C369 C 0.58784 0.02184 0.45705 0.0
C370 C 0.52191 0.98989 0.43753 0.0
C371 C 0.61566 0.0167 0.45677 0.0
C372 C 0.407 1.00532 0.45491 0.0
C373 C 0.4348 1.00039 0.45632 0.0
C374 C 0.50064 0.03258 0.47714 0.0
C375 C 0.56914 1.00048 0.45798 0.0
C376 C 0.53948 1.00597 0.45775 0.0
C377 C 0.45337 0.02187 0.45646 0.0
C378 C 0.48307 0.01647 0.45694 0.0
H379 H 0.61368 0.94793 0.45894 0.0
H380 H 0.56526 0.95689 0.45995 0.0
H381 H 0.54133 0.03998 0.49379 0.0
H382 H 0.40847 0.07409 0.45299 0.0
H383 H 0.45698 0.06552 0.45537 0.0
C384 C 0.29653 0.51363 0.98374 0.0
C385 C 0.27953 0.5224 0.01121 0.0
C386 C 0.31069 0.48918 0.98657 0.0
C387 C 0.31166 0.42455 0.03797 0.0
H388 H 0.38161 0.41608 0.9931 0.0
C389 C 0.37536 0.32615 0.04992 0.0
C390 C 0.38311 0.3155 0.01703 0.0
C391 C 0.3651 0.35255 0.05225 0.0
C392 C 0.3621 0.41818 0.00582 0.0
H393 H 0.26468 0.51263 0.06368 0.0
H394 H 0.28986 0.47071 0.06911 0.0
H395 H 0.35887 0.45979 0.99117 0.0
H396 H 0.38763 0.32426 0.9613 0.0
H397 H 0.37049 0.37043 0.9654 0.0
H398 H 0.3152 0.38289 0.05285 0.0
C399 C 0.29173 0.48213 0.04481 0.0
C400 C 0.34891 0.4432 0.00448 0.0
C401 C 0.27734 0.50635 0.04178 0.0
C402 C 0.38166 0.33204 0.98691 0.0
C403 C 0.37198 0.35848 0.98932 0.0
C404 C 0.32505 0.39966 0.03972 0.0
C405 C 0.3085 0.47303 0.01717 0.0
C406 C 0.32327 0.44668 0.02007 0.0
C407 C 0.36305 0.36888 0.02184 0.0
C408 C 0.35023 0.39608 0.02321 0.0
H409 H 0.29862 0.52545 0.95978 0.0
H410 H 0.32297 0.48277 0.9644 0.0
H411 H 0.2918 0.42613 0.04982 0.0
H412 H 0.37616 0.31367 0.07341 0.0
H413 H 0.35846 0.3601 0.07771 0.0
C414 C 0.51907 0.27251 0.02737 0.0
C415 C 0.49759 0.28167 0.00619 0.0
C416 C 0.54294 0.28746 0.03016 0.0
C417 C 0.58296 0.3396 0.9838 0.0
H418 H 0.62226 0.34228 0.07242 0.0
C419 C 0.69579 0.36542 0.99043 0.0
C420 C 0.70587 0.38055 0.01894 0.0
C421 C 0.66886 0.35723 0.98958 0.0
C422 C 0.61138 0.34208 0.04759 0.0
H423 H 0.4844 0.31404 0.97159 0.0
H424 H 0.52598 0.34018 0.9766 0.0
H425 H 0.57802 0.32056 0.0702 0.0
H426 H 0.69529 0.39964 0.06854 0.0
H427 H 0.64777 0.38525 0.06717 0.0
H428 H 0.61628 0.36105 0.96116 0.0
C429 C 0.52448 0.32122 0.99075 0.0
C430 C 0.58615 0.3293 0.04619 0.0
C431 C 0.50059 0.30624 0.98792 0.0
C432 C 0.68807 0.38803 0.04623 0.0
C433 C 0.66097 0.3796 0.04553 0.0
C434 C 0.60815 0.35234 0.98519 0.0
C435 C 0.54599 0.31203 0.0119 0.0
C436 C 0.57183 0.32746 0.01412 0.0
C437 C 0.65112 0.36389 0.01727 0.0
C438 C 0.62294 0.35327 0.01693 0.0
H439 H 0.51756 0.25367 0.04177 0.0
H440 H 0.55921 0.27948 0.04619 0.0
H441 H 0.57265 0.33848 0.9586 0.0
H442 H 0.70886 0.35968 0.96872 0.0
H443 H 0.66215 0.34493 0.9676 0.0
C444 C 0.62508 0.68433 0.02128 0.0
C445 C 0.63965 0.70201 0.04318 0.0
C446 C 0.63325 0.65729 0.01751 0.0
C447 C 0.67496 0.60409 0.06003 0.0
H448 H 0.68481 0.576 0.96516 0.0
C449 C 0.74696 0.51598 0.03265 0.0
C450 C 0.73967 0.496 0.00803 0.0
C451 C 0.73157 0.53944 0.03649 0.0
C452 C 0.68179 0.58333 0.99185 0.0
H453 H 0.67321 0.70499 0.0796 0.0
H454 H 0.68726 0.65812 0.07344 0.0
H455 H 0.66239 0.61959 0.9738 0.0
H456 H 0.71043 0.48541 0.9677 0.0
H457 H 0.68341 0.52661 0.97447 0.0
H458 H 0.69465 0.56824 0.07819 0.0
C459 C 0.66965 0.66495 0.05898 0.0
C460 C 0.66891 0.60831 0.99681 0.0
C461 C 0.66174 0.69189 0.06234 0.0
C462 C 0.71668 0.50037 0.98688 0.0
C463 C 0.70122 0.52401 0.99071 0.0
C464 C 0.68771 0.57918 0.05511 0.0
C465 C 0.65582 0.64738 0.03612 0.0
C466 C 0.66598 0.61929 0.03092 0.0
C467 C 0.70834 0.54371 0.01588 0.0
C468 C 0.69199 0.56879 0.02092 0.0
H469 H 0.60809 0.69169 0.00606 0.0
H470 H 0.62208 0.64421 0.99986 0.0
H471 H 0.67256 0.61171 0.0867 0.0
H472 H 0.76457 0.51353 0.04927 0.0
H473 H 0.73808 0.55439 0.05556 0.0
C474 C 0.3301 0.64145 0.04941 0.0
C475 C 0.31727 0.63535 0.01735 0.0
C476 C 0.3567 0.65134 0.04955 0.0
C477 C 0.4058 0.68498 0.98867 0.0
H478 H 0.45631 0.67326 0.06539 0.0
C479 C 0.51588 0.72432 0.98339 0.0
C480 C 0.52474 0.73825 0.01361 0.0
C481 C 0.4917 0.70959 0.98409 0.0
C482 C 0.44236 0.67676 0.04381 0.0
H483 H 0.32245 0.63287 0.96071 0.0
H484 H 0.36902 0.64867 0.9608 0.0
H485 H 0.41241 0.65068 0.0664 0.0
H486 H 0.51542 0.74694 0.06856 0.0
H487 H 0.47353 0.72109 0.06976 0.0
H488 H 0.43586 0.71083 0.96599 0.0
C489 C 0.3585 0.64712 0.98583 0.0
C490 C 0.41712 0.6639 0.04444 0.0
C491 C 0.33189 0.63778 0.98571 0.0
C492 C 0.50919 0.73655 0.04474 0.0
C493 C 0.48524 0.72157 0.04554 0.0
C494 C 0.43109 0.69751 0.98786 0.0
C495 C 0.37107 0.65491 0.0176 0.0
C496 C 0.3984 0.6679 0.01691 0.0
C497 C 0.47603 0.70816 0.01513 0.0
C498 C 0.44964 0.6937 0.01548 0.0
H499 H 0.31907 0.63991 0.07408 0.0
H500 H 0.36551 0.65724 0.07457 0.0
H501 H 0.39183 0.68925 0.96739 0.0
H502 H 0.52734 0.72518 0.95901 0.0
H503 H 0.48524 0.6993 0.96028 0.0
C504 C 0.80904 1.00028 0.52172 0.0
C505 C 0.78396 0.99755 0.50465 0.0
C506 C 0.82396 0.02424 0.51871 0.0
C507 C 0.83018 0.08672 0.46405 0.0
H508 H 0.86523 0.11567 0.54738 0.0
C509 C 0.88842 0.18888 0.46187 0.0
C510 C 0.88227 0.20622 0.49019 0.0
C511 C 0.88009 0.16175 0.4626 0.0
C512 C 0.85557 0.10788 0.52382 0.0
H513 H 0.75489 0.01818 0.47127 0.0
H514 H 0.78051 0.05984 0.46656 0.0
H515 H 0.8428 0.07199 0.55056 0.0
H516 H 0.86392 0.20828 0.5422 0.0
H517 H 0.8493 0.16156 0.54336 0.0
H518 H 0.84205 0.1232 0.43775 0.0
C519 C 0.78901 0.04333 0.48169 0.0
C520 C 0.84292 0.08265 0.52555 0.0
C521 C 0.77416 0.01942 0.48465 0.0
C522 C 0.86859 0.19561 0.51969 0.0
C523 C 0.86049 0.16864 0.52055 0.0
C524 C 0.84286 0.11198 0.46232 0.0
C525 C 0.81416 0.04609 0.49858 0.0
C526 C 0.82959 0.07194 0.49589 0.0
C527 C 0.86581 0.15137 0.4919 0.0
C528 C 0.85523 0.12315 0.4924 0.0
H529 H 0.81733 0.9838 0.53712 0.0
H530 H 0.84335 0.02551 0.53183 0.0
H531 H 0.82054 0.07892 0.44049 0.0
H532 H 0.8989 0.19649 0.43879 0.0
H533 H 0.88471 0.14893 0.44019 0.0
C534 C 1.00391 0.77314 0.47836 0.0
C535 C 0.02536 0.78167 0.50001 0.0
C536 C 0.97992 0.78802 0.47645 0.0
C537 C 0.93974 0.83921 0.52514 0.0
H538 H 0.89942 0.84229 0.43733 0.0
C539 C 0.82689 0.86594 0.52188 0.0
C540 C 0.81615 0.88067 0.49335 0.0
C541 C 0.85378 0.85747 0.52181 0.0
C542 C 0.91055 0.842 0.46196 0.0
H543 H 0.03836 0.81286 0.5364 0.0
H544 H 0.99661 0.83905 0.53277 0.0
H545 H 0.94386 0.821 0.43839 0.0
H546 H 0.82568 0.89869 0.44268 0.0
H547 H 0.87311 0.88399 0.44258 0.0
H548 H 0.90658 0.86039 0.54864 0.0
C549 C 0.99818 0.82056 0.51763 0.0
C550 C 0.93593 0.82942 0.46271 0.0
C551 C 0.02219 0.80556 0.51967 0.0
C552 C 0.83333 0.88738 0.46504 0.0
C553 C 0.86042 0.87876 0.4649 0.0
C554 C 0.91443 0.85183 0.52436 0.0
C555 C 0.97668 0.81198 0.49599 0.0
C556 C 0.95066 0.82737 0.49447 0.0
C557 C 0.87092 0.86352 0.49326 0.0
C558 C 0.89921 0.8529 0.49295 0.0
H559 H 1.0055 0.75478 0.46297 0.0
H560 H 0.9637 0.7804 0.46007 0.0
H561 H 0.9503 0.83796 0.55014 0.0
H562 H 0.81445 0.86081 0.54445 0.0
H563 H 0.86091 0.84552 0.54391 0.0
C564 C 0.21496 0.02266 0.51539 0.0
C565 C 0.23808 0.02564 0.49408 0.0
C566 C 0.19947 0.99896 0.51389 0.0
C567 C 0.18707 0.9381 0.4578 0.0
H568 H 0.16109 0.90655 0.54522 0.0
C569 C 0.13094 0.83493 0.4608 0.0
C570 C 0.1399 0.81705 0.48719 0.0
C571 C 0.13872 0.86222 0.46144 0.0
C572 C 0.1682 0.91507 0.52052 0.0
H573 H 0.26298 1.0058 0.45454 0.0
H574 H 0.23649 0.96466 0.45246 0.0
H575 H 0.18341 0.95035 0.54639 0.0
H576 H 0.16275 0.8142 0.53593 0.0
H577 H 0.17654 0.86113 0.53677 0.0
H578 H 0.17294 0.90222 0.43218 0.0
C579 C 0.22989 0.98075 0.46983 0.0
C580 C 0.18076 0.94038 0.52115 0.0
C581 C 0.24528 1.00436 0.47128 0.0
C582 C 0.15589 0.82727 0.51483 0.0
C583 C 0.1635 0.85438 0.51558 0.0
C584 C 0.17454 0.91276 0.45718 0.0
C585 C 0.20673 0.97768 0.49103 0.0
C586 C 0.19092 0.95199 0.48991 0.0
C587 C 0.15534 0.87221 0.48872 0.0
C588 C 0.16548 0.90062 0.48865 0.0
H589 H 0.20871 0.03869 0.53309 0.0
H590 H 0.18164 0.99744 0.5304 0.0
H591 H 0.19418 0.94661 0.4331 0.0
H592 H 0.11862 0.82767 0.43918 0.0
H593 H 0.13186 0.87545 0.44048 0.0
C594 C 1.00105 0.21541 0.51256 0.0
C595 C 0.99778 0.24044 0.49547 0.0
C596 C 0.02475 0.20022 0.50783 0.0
C597 C 0.08384 0.19377 0.44697 0.0
H598 H 0.11752 0.15638 0.5255 0.0
C599 C 0.19621 0.16493 0.4487 0.0
C600 C 0.20411 0.14005 0.46322 0.0
C601 C 0.16929 0.17328 0.45 0.0
C602 C 0.10813 0.16634 0.50317 0.0
H603 H 0.01735 0.26941 0.46085 0.0
H604 H 0.05851 0.24347 0.45328 0.0
H605 H 0.07407 0.17899 0.53412 0.0
H606 H 0.18995 0.10403 0.48975 0.0
H607 H 0.14246 0.11879 0.49246 0.0
H608 H 0.11832 0.18193 0.41639 0.0
C609 C 0.04258 0.23506 0.46955 0.0
C610 C 0.08321 0.17934 0.50809 0.0
C611 C 0.01895 0.25011 0.47413 0.0
C612 C 0.18429 0.12321 0.47811 0.0
C613 C 0.15726 0.13177 0.47995 0.0
C614 C 0.10876 0.18098 0.44215 0.0
C615 C 0.04575 0.20976 0.48597 0.0
C616 C 0.07102 0.19376 0.48024 0.0
C617 C 0.14955 0.15709 0.46626 0.0
C618 C 0.12149 0.16758 0.47035 0.0
H619 H 0.9851 0.2073 0.52907 0.0
H620 H 0.02637 0.18077 0.52075 0.0
H621 H 0.07477 0.204 0.42462 0.0
H622 H 0.21109 0.17824 0.43698 0.0
H623 H 0.16413 0.19297 0.43948 0.0
C624 C 0.3781 0.18533 0.11448 0.0
C625 C 0.39903 0.20446 0.11522 0.0
C626 C 0.36636 0.17612 0.14585 0.0
C627 C 0.35916 0.19094 0.24161 0.0
H628 H 0.34645 0.11383 0.24831 0.0
C629 C 0.33841 0.13691 0.37435 0.0
C630 C 0.31901 0.11622 0.37478 0.0
C631 C 0.34645 0.14872 0.34246 0.0
C632 C 0.34951 0.13545 0.24674 0.0
H633 H 0.42358 0.22952 0.14942 0.0
H634 H 0.40329 0.21324 0.20434 0.0
H635 H 0.36339 0.13295 0.19328 0.0
H636 H 0.29255 0.09188 0.34215 0.0
H637 H 0.3065 0.1126 0.28637 0.0
H638 H 0.3456 0.1933 0.29534 0.0
C639 C 0.39571 0.20556 0.17945 0.0
C640 C 0.35922 0.14645 0.21515 0.0
C641 C 0.40742 0.21484 0.14798 0.0
C642 C 0.30761 0.10773 0.34266 0.0
C643 C 0.3157 0.11951 0.31071 0.0
C644 C 0.34948 0.17992 0.27325 0.0
C645 C 0.37535 0.18574 0.17877 0.0
C646 C 0.36426 0.17432 0.2122 0.0
C647 C 0.3353 0.14008 0.31023 0.0
C648 C 0.34465 0.15202 0.27624 0.0
H649 H 0.37106 0.17704 0.08963 0.0
H650 H 0.35038 0.16125 0.1443 0.0
H651 H 0.36247 0.21253 0.24011 0.0
H652 H 0.34762 0.14389 0.39865 0.0
H653 H 0.36184 0.16425 0.34302 0.0
C654 C 0.80409 0.4095 0.1564 0.0
C655 C 0.81587 0.40097 0.12449 0.0
C656 C 0.81209 0.39801 0.18857 0.0
C657 C 0.84702 0.3387 0.22748 0.0
H658 H 0.86113 0.38738 0.30554 0.0
C659 C 0.90699 0.30656 0.35216 0.0
C660 C 0.89895 0.31738 0.38487 0.0
C661 C 0.89484 0.31533 0.32076 0.0
C662 C 0.8569 0.3734 0.28424 0.0
H663 H 0.84483 0.37328 0.10117 0.0
H664 H 0.85881 0.35336 0.15714 0.0
H665 H 0.84311 0.40518 0.25038 0.0
H666 H 0.87125 0.34519 0.41042 0.0
H667 H 0.84978 0.36008 0.35589 0.0
H668 H 0.86102 0.30694 0.2613 0.0
C669 C 0.84325 0.36875 0.1574 0.0
C670 C 0.84656 0.38364 0.25257 0.0
C671 C 0.83533 0.38029 0.12531 0.0
C672 C 0.87802 0.33656 0.38562 0.0
C673 C 0.86583 0.34525 0.35431 0.0
C674 C 0.85731 0.32844 0.25922 0.0
C675 C 0.83196 0.37766 0.18947 0.0
C676 C 0.84166 0.36646 0.22371 0.0
C677 C 0.87434 0.33506 0.32141 0.0
C678 C 0.86253 0.34569 0.28794 0.0
H679 H 0.78902 0.42537 0.15662 0.0
H680 H 0.80277 0.40511 0.21277 0.0
H681 H 0.84315 0.32486 0.2059 0.0
H682 H 0.92313 0.29182 0.35071 0.0
H683 H 0.9021 0.30724 0.2959 0.0
C684 C 0.71492 0.91285 0.35854 0.0
C685 C 0.705 0.90342 0.3911 0.0
C686 C 0.70524 0.90206 0.32673 0.0
C687 C 0.64589 0.86603 0.29085 0.0
H688 H 0.69218 0.85272 0.20993 0.0
C689 C 0.60726 0.81141 0.16592 0.0
C690 C 0.61534 0.822 0.13311 0.0
C691 C 0.61896 0.82077 0.19727 0.0
C692 C 0.67894 0.85656 0.2322 0.0
H693 H 0.67797 0.8746 0.41592 0.0
H694 H 0.66152 0.85558 0.36074 0.0
H695 H 0.71173 0.86996 0.26473 0.0
H696 H 0.64212 0.85058 0.10739 0.0
H697 H 0.66235 0.86702 0.16203 0.0
H698 H 0.61311 0.85275 0.25843 0.0
C699 C 0.6763 0.87167 0.35959 0.0
C700 C 0.69016 0.86645 0.26359 0.0
C701 C 0.6859 0.88245 0.39126 0.0
C702 C 0.63548 0.84198 0.13227 0.0
C703 C 0.6472 0.85129 0.16357 0.0
C704 C 0.63471 0.85613 0.25954 0.0
C705 C 0.68548 0.88163 0.32691 0.0
C706 C 0.67376 0.87123 0.29334 0.0
C707 C 0.63903 0.84087 0.19647 0.0
C708 C 0.65108 0.85124 0.22984 0.0
H709 H 0.72958 0.92906 0.35758 0.0
H710 H 0.71262 0.91032 0.30201 0.0
H711 H 0.63257 0.86999 0.313 0.0
H712 H 0.59185 0.79593 0.16743 0.0
H713 H 0.61243 0.81207 0.22213 0.0
C714 C 0.14292 0.68696 0.38299 0.0
C715 C 0.12142 0.70551 0.38286 0.0
C716 C 0.15493 0.67869 0.35135 0.0
C717 C 0.16204 0.69583 0.25614 0.0
H718 H 0.17916 0.61968 0.24748 0.0
C719 C 0.18699 0.64411 0.12249 0.0
C720 C 0.20684 0.62379 0.12226 0.0
C721 C 0.17861 0.65587 0.1543 0.0
C722 C 0.17489 0.64107 0.24959 0.0
H723 H 0.096 0.73037 0.34944 0.0
H724 H 0.11676 0.71564 0.29396 0.0
H725 H 0.16039 0.6368 0.30256 0.0
H726 H 0.23411 0.6005 0.15512 0.0
H727 H 0.21966 0.62116 0.21066 0.0
H728 H 0.17621 0.6999 0.2028 0.0
C729 C 0.12457 0.70773 0.31862 0.0
C730 C 0.1641 0.65092 0.28123 0.0
C731 C 0.11258 0.7161 0.35039 0.0
C732 C 0.21874 0.61606 0.15442 0.0
C733 C 0.2103 0.62777 0.18627 0.0
C734 C 0.1728 0.68594 0.22439 0.0
C735 C 0.14568 0.68864 0.31869 0.0
C736 C 0.1575 0.67842 0.28495 0.0
C737 C 0.18983 0.64752 0.18666 0.0
C738 C 0.17932 0.65842 0.22073 0.0
H739 H 0.15035 0.67856 0.40758 0.0
H740 H 0.17147 0.66439 0.35251 0.0
H741 H 0.15753 0.71717 0.2582 0.0
H742 H 0.17738 0.6505 0.09816 0.0
H743 H 0.16264 0.67082 0.15364 0.0
C744 C 0.6109 0.86999 0.89504 0.0
C745 C 0.59984 0.84394 0.89709 0.0
C746 C 0.6178 0.8812 0.86235 0.0
C747 C 0.61033 0.87141 0.76463 0.0
H748 H 0.67554 0.9148 0.76141 0.0
C749 C 0.6701 0.89172 0.63674 0.0
C750 C 0.67619 0.91883 0.62869 0.0
C751 C 0.65955 0.88457 0.66965 0.0
C752 C 0.65714 0.90297 0.76201 0.0
H753 H 0.58684 0.8093 0.86683 0.0
H754 H 0.59977 0.8283 0.80962 0.0
H755 H 0.65887 0.89824 0.81809 0.0
H756 H 0.67669 0.95953 0.65003 0.0
H757 H 0.65924 0.94666 0.70834 0.0
H758 H 0.60961 0.87516 0.70814 0.0
C759 C 0.60248 0.84054 0.83305 0.0
C760 C 0.64743 0.89353 0.79451 0.0
C761 C 0.59512 0.82953 0.86581 0.0
C762 C 0.67242 0.93846 0.6552 0.0
C763 C 0.66228 0.93115 0.68852 0.0
C764 C 0.62033 0.88046 0.73212 0.0
C765 C 0.61431 0.86641 0.8309 0.0
C766 C 0.62395 0.87746 0.79631 0.0
C767 C 0.65536 0.90419 0.69578 0.0
C768 C 0.64391 0.89617 0.73048 0.0
H769 H 0.61452 0.88156 0.91888 0.0
H770 H 0.62613 0.9014 0.86187 0.0
H771 H 0.59192 0.85963 0.76483 0.0
H772 H 0.67353 0.87581 0.61762 0.0
H773 H 0.65493 0.86355 0.67483 0.0
C774 C 0.12829 0.67239 0.63209 0.0
C775 C 0.10135 0.67437 0.62038 0.0
C776 C 0.13444 0.66094 0.66482 0.0
C777 C 0.10904 0.64762 0.75311 0.0
H778 H 0.16386 0.5916 0.75499 0.0
C779 C 0.14061 0.59758 0.88464 0.0
C780 C 0.16818 0.59183 0.88922 0.0
C781 C 0.13052 0.60469 0.85137 0.0
C782 C 0.14876 0.60743 0.75514 0.0
H783 H 0.05967 0.66669 0.63514 0.0
H784 H 0.07053 0.64753 0.69323 0.0
H785 H 0.14989 0.611 0.69866 0.0
H786 H 0.20674 0.5885 0.86258 0.0
H787 H 0.18951 0.60169 0.80473 0.0
H788 H 0.10869 0.64516 0.80953 0.0
C789 C 0.08681 0.65454 0.67641 0.0
C790 C 0.14065 0.61841 0.72277 0.0
C791 C 0.08061 0.66566 0.64323 0.0
C792 C 0.18533 0.59249 0.85967 0.0
C793 C 0.17535 0.60003 0.82647 0.0
C794 C 0.11746 0.63695 0.7856 0.0
C795 C 0.11384 0.65162 0.68717 0.0
C796 C 0.12091 0.63879 0.72144 0.0
C797 C 0.14786 0.60669 0.82192 0.0
C798 C 0.13765 0.61686 0.78714 0.0
H799 H 0.14482 0.67963 0.61589 0.0
H800 H 0.15542 0.65949 0.67278 0.0
H801 H 0.09396 0.66348 0.75284 0.0
H802 H 0.12692 0.59703 0.90701 0.0
H803 H 0.10916 0.60896 0.84892 0.0
C804 C 0.35161 0.0837 0.63715 0.0
C805 C 0.34048 0.1036 0.61495 0.0
C806 C 0.36183 0.0906 0.67054 0.0
C807 C 0.36165 0.14659 0.73712 0.0
H808 H 0.42706 0.11191 0.77065 0.0
C809 C 0.42353 0.18965 0.85272 0.0
C810 C 0.42788 0.17142 0.88058 0.0
C811 C 0.41441 0.18038 0.8199 0.0
C812 C 0.40875 0.12169 0.76157 0.0
H813 H 0.33021 0.14615 0.61143 0.0
H814 H 0.34899 0.15828 0.66816 0.0
H815 H 0.40661 0.09709 0.71512 0.0
H816 H 0.42764 0.1292 0.89558 0.0
H817 H 0.41241 0.1129 0.83776 0.0
H818 H 0.36438 0.17172 0.78306 0.0
C819 C 0.34955 0.13725 0.6604 0.0
C820 C 0.39687 0.11308 0.72992 0.0
C821 C 0.33912 0.13033 0.6274 0.0
C822 C 0.42442 0.14364 0.87446 0.0
C823 C 0.41577 0.13433 0.84145 0.0
C824 C 0.37378 0.15546 0.76833 0.0
C825 C 0.36124 0.11757 0.68242 0.0
C826 C 0.37322 0.12555 0.71711 0.0
C827 C 0.40995 0.15269 0.81419 0.0
C828 C 0.39751 0.14322 0.78078 0.0
H829 H 0.3531 0.06294 0.62842 0.0
H830 H 0.37026 0.07479 0.68694 0.0
H831 H 0.3431 0.15626 0.72878 0.0
H832 H 0.42581 0.21117 0.85688 0.0
H833 H 0.41025 0.19492 0.79919 0.0
C834 C 0.92945 0.33485 0.64859 0.0
C835 C 0.93023 0.35187 0.61895 0.0
C836 C 0.92225 0.3451 0.68179 0.0
C837 C 0.88601 0.40343 0.72225 0.0
H838 H 0.912 0.37147 0.80939 0.0
C839 C 0.857 0.44097 0.8641 0.0
C840 C 0.84846 0.42033 0.88715 0.0
C841 C 0.86821 0.43463 0.83101 0.0
C842 C 0.90459 0.38058 0.78522 0.0
H843 H 0.92572 0.39312 0.60094 0.0
H844 H 0.91433 0.41132 0.65902 0.0
H845 H 0.93129 0.3571 0.75311 0.0
H846 H 0.84356 0.37688 0.89223 0.0
H847 H 0.86378 0.36603 0.83543 0.0
H848 H 0.85952 0.42714 0.75483 0.0
C849 C 0.91825 0.38988 0.65665 0.0
C850 C 0.91551 0.37225 0.7529 0.0
C851 C 0.92503 0.37954 0.6234 0.0
C852 C 0.85067 0.39333 0.87579 0.0
C853 C 0.86218 0.38704 0.84314 0.0
C854 C 0.87538 0.41205 0.75466 0.0
C855 C 0.91606 0.3727 0.68618 0.0
C856 C 0.90604 0.38318 0.72086 0.0
C857 C 0.87135 0.40755 0.82058 0.0
C858 C 0.88421 0.40034 0.7864 0.0
H859 H 0.93306 0.31338 0.64576 0.0
H860 H 0.92045 0.33109 0.70364 0.0
H861 H 0.8778 0.41206 0.69824 0.0
H862 H 0.85575 0.46196 0.87196 0.0
H863 H 0.8751 0.45083 0.814 0.0
loop_
_geom_bond_atom_site_label_1
_geom_bond_atom_site_label_2
_geom_bond_distance
_geom_bond_site_symmetry_2
_ccdc_geom_bond_type
Co0 N4 2.148 . S
Co0 N10 2.128 . S
Co0 N20 2.194 1_554 S
Co0 O25 2.351 . S
Co0 O26 2.155 . S
Co0 O27 2.096 . S
C1 N4 1.301 . S
C1 N5 1.328 . S
C1 H6 0.930 . S
C2 C3 1.333 . S
C2 N4 1.317 . S
C2 H7 0.930 . S
C3 C2 1.333 . S
C3 N5 1.350 . S
C3 H29 0.931 . S
N4 Co0 2.148 . S
N4 C1 1.301 . S
N4 C2 1.317 . S
N5 C1 1.328 . S
N5 C3 1.350 . S
H6 C1 0.930 . S
H7 C2 0.930 . S
C8 O9 1.224 1_554 S
C8 O27 1.247 . S
O9 C8 1.224 1_556 S
N10 Co0 2.128 . S
N10 C11 1.355 . S
N10 C13 1.311 . S
C11 N10 1.355 . S
C11 C12 1.363 . S
C11 H23 0.929 . S
C12 C11 1.363 . S
C12 N14 1.375 . S
C12 H30 0.931 . S
C13 N10 1.311 . S
C13 N14 1.347 . S
C13 H24 0.929 . S
N14 C12 1.375 . S
N14 C13 1.347 . S
C15 C18 1.365 . S
C15 N20 1.328 . S
C15 H21 0.929 1_556 S
C16 C17 1.362 . S
C16 C19 1.378 . S
C16 H31 0.929 . S
C17 C16 1.362 . S
C17 C18 1.366 . S
C18 C15 1.365 . S
C18 C17 1.366 . S
C18 H32 0.930 . S
C19 C16 1.378 . S
C19 N20 1.315 . S
C19 H22 0.930 . S
N20 Co0 2.194 1_556 S
N20 C15 1.328 . S
N20 C19 1.315 . S
H21 C15 0.929 1_554 S
H22 C19 0.930 . S
H23 C11 0.929 . S
H24 C13 0.929 . S
O25 Co0 2.351 . S
O25 C28 1.244 . S
O26 Co0 2.155 . S
O26 C28 1.240 . S
O27 Co0 2.096 . S
O27 C8 1.247 . S
C28 O25 1.244 . S
C28 O26 1.240 . S
H29 C3 0.931 . S
H30 C12 0.931 . S
H31 C16 0.929 . S
H32 C18 0.930 . S
Co33 N37 2.148 . S
Co33 N43 2.128 . S
Co33 N53 2.194 1_554 S
Co33 O58 2.351 . S
Co33 O59 2.155 . S
Co33 O60 2.096 . S
C34 N37 1.301 . S
C34 N38 1.328 . S
C34 H39 0.930 . S
C35 C36 1.333 . S
C35 N37 1.317 . S
C35 H40 0.930 . S
C36 C35 1.333 . S
C36 N38 1.350 . S
C36 H62 0.931 . S
N37 Co33 2.148 . S
N37 C34 1.301 . S
N37 C35 1.317 . S
N38 C34 1.328 . S
N38 C36 1.350 . S
H39 C34 0.930 . S
H40 C35 0.930 . S
C41 O42 1.224 1_554 S
C41 O60 1.247 . S
O42 C41 1.224 1_556 S
N43 Co33 2.128 . S
N43 C44 1.355 . S
N43 C46 1.311 . S
C44 N43 1.355 . S
C44 C45 1.363 . S
C44 H56 0.929 . S
C45 C44 1.363 . S
C45 N47 1.375 . S
C45 H63 0.931 . S
C46 N43 1.311 . S
C46 N47 1.347 . S
C46 H57 0.929 . S
N47 C45 1.375 . S
N47 C46 1.347 . S
C48 C51 1.365 . S
C48 N53 1.328 . S
C48 H54 0.929 1_556 S
C49 C50 1.362 . S
C49 C52 1.378 . S
C49 H64 0.929 . S
C50 C49 1.362 . S
C50 C51 1.366 . S
C51 C48 1.365 . S
C51 C50 1.366 . S
C51 H65 0.930 . S
C52 C49 1.378 . S
C52 N53 1.315 . S
C52 H55 0.930 . S
N53 Co33 2.194 1_556 S
N53 C48 1.328 . S
N53 C52 1.315 . S
H54 C48 0.929 1_554 S
H55 C52 0.930 . S
H56 C44 0.929 . S
H57 C46 0.929 . S
O58 Co33 2.351 . S
O58 C61 1.244 . S
O59 Co33 2.155 . S
O59 C61 1.240 . S
O60 Co33 2.096 . S
O60 C41 1.247 . S
C61 O58 1.244 . S
C61 O59 1.240 . S
H62 C36 0.931 . S
H63 C45 0.931 . S
H64 C49 0.929 . S
H65 C51 0.930 . S
Co66 N70 2.148 . S
Co66 N76 2.128 . S
Co66 N86 2.194 1_554 S
Co66 O91 2.351 . S
Co66 O92 2.155 . S
Co66 O93 2.096 . S
C67 N70 1.301 . S
C67 N71 1.328 . S
C67 H72 0.930 . S
C68 C69 1.333 . S
C68 N70 1.317 . S
C68 H73 0.930 . S
C69 C68 1.333 . S
C69 N71 1.350 . S
C69 H95 0.931 . S
N70 Co66 2.148 . S
N70 C67 1.301 . S
N70 C68 1.317 . S
N71 C67 1.328 . S
N71 C69 1.350 . S
H72 C67 0.930 . S
H73 C68 0.930 . S
C74 O75 1.224 1_554 S
C74 O93 1.247 . S
O75 C74 1.224 1_556 S
N76 Co66 2.128 . S
N76 C77 1.355 . S
N76 C79 1.311 . S
C77 N76 1.355 . S
C77 C78 1.363 . S
C77 H89 0.929 . S
C78 C77 1.363 . S
C78 N80 1.375 . S
C78 H96 0.931 . S
C79 N76 1.311 . S
C79 N80 1.347 . S
C79 H90 0.929 . S
N80 C78 1.375 . S
N80 C79 1.347 . S
C81 C84 1.365 . S
C81 N86 1.328 . S
C81 H87 0.929 1_556 S
C82 C83 1.362 . S
C82 C85 1.378 . S
C82 H97 0.929 . S
C83 C82 1.362 . S
C83 C84 1.366 . S
C84 C81 1.365 . S
C84 C83 1.366 . S
C84 H98 0.930 . S
C85 C82 1.378 . S
C85 N86 1.315 . S
C85 H88 0.930 . S
N86 Co66 2.194 1_556 S
N86 C81 1.328 . S
N86 C85 1.315 . S
H87 C81 0.929 1_554 S
H88 C85 0.930 . S
H89 C77 0.929 . S
H90 C79 0.929 . S
O91 Co66 2.351 . S
O91 C94 1.244 . S
O92 Co66 2.155 . S
O92 C94 1.240 . S
O93 Co66 2.096 . S
O93 C74 1.247 . S
C94 O91 1.244 . S
C94 O92 1.240 . S
H95 C69 0.931 . S
H96 C78 0.931 . S
H97 C82 0.929 . S
H98 C84 0.930 . S
Co99 N103 2.148 . S
Co99 N109 2.128 . S
Co99 N119 2.194 1_554 S
Co99 O124 2.351 . S
Co99 O125 2.155 . S
Co99 O126 2.096 . S
C100 N103 1.301 . S
C100 N104 1.328 . S
C100 H105 0.930 . S
C101 C102 1.333 . S
C101 N103 1.317 . S
C101 H106 0.930 . S
C102 C101 1.333 . S
C102 N104 1.350 . S
C102 H128 0.931 . S
N103 Co99 2.148 . S
N103 C100 1.301 . S
N103 C101 1.317 . S
N104 C100 1.328 . S
N104 C102 1.350 . S
H105 C100 0.930 . S
H106 C101 0.930 . S
C107 O108 1.224 1_554 S
C107 O126 1.247 . S
O108 C107 1.224 1_556 S
N109 Co99 2.128 . S
N109 C110 1.355 . S
N109 C112 1.311 . S
C110 N109 1.355 . S
C110 C111 1.363 . S
C110 H122 0.929 . S
C111 C110 1.363 . S
C111 N113 1.375 . S
C111 H129 0.931 . S
C112 N109 1.311 . S
C112 N113 1.347 . S
C112 H123 0.929 . S
N113 C111 1.375 . S
N113 C112 1.347 . S
C114 C117 1.365 . S
C114 N119 1.328 . S
C114 H120 0.929 1_556 S
C115 C116 1.362 . S
C115 C118 1.378 . S
C115 H130 0.929 . S
C116 C115 1.362 . S
C116 C117 1.366 . S
C117 C114 1.365 . S
C117 C116 1.366 . S
C117 H131 0.930 . S
C118 C115 1.378 . S
C118 N119 1.315 . S
C118 H121 0.930 . S
N119 Co99 2.194 1_556 S
N119 C114 1.328 . S
N119 C118 1.315 . S
H120 C114 0.929 1_554 S
H121 C118 0.930 . S
H122 C110 0.929 . S
H123 C112 0.929 . S
O124 Co99 2.351 . S
O124 C127 1.244 . S
O125 Co99 2.155 . S
O125 C127 1.240 . S
O126 Co99 2.096 . S
O126 C107 1.247 . S
C127 O124 1.244 . S
C127 O125 1.240 . S
H128 C102 0.931 . S
H129 C111 0.931 . S
H130 C115 0.929 . S
H131 C117 0.930 . S
Co132 N136 2.148 . S
Co132 N142 2.128 . S
Co132 N152 2.194 . S
Co132 O157 2.351 . S
Co132 O158 2.155 . S
Co132 O159 2.096 . S
C133 N136 1.301 . S
C133 N137 1.328 . S
C133 H138 0.930 . S
C134 C135 1.333 . S
C134 N136 1.317 . S
C134 H139 0.930 . S
C135 C134 1.333 . S
C135 N137 1.350 . S
C135 H161 0.931 1_655 S
N136 Co132 2.148 . S
N136 C133 1.301 . S
N136 C134 1.317 . S
N137 C133 1.328 . S
N137 C135 1.350 . S
H138 C133 0.930 . S
H139 C134 0.930 . S
C140 O141 1.224 . S
C140 O159 1.247 . S
O141 C140 1.224 . S
N142 Co132 2.128 . S
N142 C143 1.355 . S
N142 C145 1.311 . S
C143 N142 1.355 . S
C143 C144 1.363 . S
C143 H155 0.929 . S
C144 C143 1.363 . S
C144 N146 1.375 . S
C144 H162 0.931 . S
C145 N142 1.311 . S
C145 N146 1.347 . S
C145 H156 0.929 . S
N146 C144 1.375 . S
N146 C145 1.347 . S
C147 C150 1.365 . S
C147 N152 1.328 . S
C147 H153 0.929 . S
C148 C149 1.362 . S
C148 C151 1.378 . S
C148 H163 0.929 . S
C149 C148 1.362 . S
C149 C150 1.366 . S
C150 C147 1.365 . S
C150 C149 1.366 . S
C150 H164 0.930 . S
C151 C148 1.378 . S
C151 N152 1.315 . S
C151 H154 0.930 . S
N152 Co132 2.194 . S
N152 C147 1.328 . S
N152 C151 1.315 . S
H153 C147 0.929 . S
H154 C151 0.930 . S
H155 C143 0.929 . S
H156 C145 0.929 . S
O157 Co132 2.351 . S
O157 C160 1.244 . S
O158 Co132 2.155 . S
O158 C160 1.240 . S
O159 Co132 2.096 . S
O159 C140 1.247 . S
C160 O157 1.244 . S
C160 O158 1.240 . S
H161 C135 0.931 1_455 S
H162 C144 0.931 . S
H163 C148 0.929 . S
H164 C150 0.930 . S
Co165 N169 2.148 . S
Co165 N175 2.128 . S
Co165 N185 2.194 . S
Co165 O190 2.351 . S
Co165 O191 2.155 . S
Co165 O192 2.096 . S
C166 N169 1.301 . S
C166 N170 1.328 . S
C166 H171 0.930 . S
C167 C168 1.333 . S
C167 N169 1.317 . S
C167 H172 0.930 . S
C168 C167 1.333 . S
C168 N170 1.350 . S
C168 H194 0.931 1_565 S
N169 Co165 2.148 . S
N169 C166 1.301 . S
N169 C167 1.317 . S
N170 C166 1.328 . S
N170 C168 1.350 . S
H171 C166 0.930 . S
H172 C167 0.930 . S
C173 O174 1.224 . S
C173 O192 1.247 . S
O174 C173 1.224 . S
N175 Co165 2.128 . S
N175 C176 1.355 . S
N175 C178 1.311 . S
C176 N175 1.355 . S
C176 C177 1.363 . S
C176 H188 0.929 . S
C177 C176 1.363 . S
C177 N179 1.375 . S
C177 H195 0.931 . S
C178 N175 1.311 . S
C178 N179 1.347 . S
C178 H189 0.929 . S
N179 C177 1.375 . S
N179 C178 1.347 . S
C180 C183 1.365 . S
C180 N185 1.328 . S
C180 H186 0.929 . S
C181 C182 1.362 . S
C181 C184 1.378 . S
C181 H196 0.929 . S
C182 C181 1.362 . S
C182 C183 1.366 . S
C183 C180 1.365 . S
C183 C182 1.366 . S
C183 H197 0.930 . S
C184 C181 1.378 . S
C184 N185 1.315 . S
C184 H187 0.930 . S
N185 Co165 2.194 . S
N185 C180 1.328 . S
N185 C184 1.315 . S
H186 C180 0.929 . S
H187 C184 0.930 . S
H188 C176 0.929 . S
H189 C178 0.929 . S
O190 Co165 2.351 . S
O190 C193 1.244 . S
O191 Co165 2.155 . S
O191 C193 1.240 . S
O192 Co165 2.096 . S
O192 C173 1.247 . S
C193 O190 1.244 . S
C193 O191 1.240 . S
H194 C168 0.931 1_545 S
H195 C177 0.931 . S
H196 C181 0.929 . S
H197 C183 0.930 . S
Co198 N202 2.148 . S
Co198 N208 2.128 . S
Co198 N218 2.194 . S
Co198 O223 2.351 . S
Co198 O224 2.155 . S
Co198 O225 2.096 . S
C199 N202 1.301 . S
C199 N203 1.328 . S
C199 H204 0.930 . S
C200 C201 1.333 . S
C200 N202 1.317 . S
C200 H205 0.930 . S
C201 C200 1.333 . S
C201 N203 1.350 . S
C201 H227 0.931 1_455 S
N202 Co198 2.148 . S
N202 C199 1.301 . S
N202 C200 1.317 . S
N203 C199 1.328 . S
N203 C201 1.350 . S
H204 C199 0.930 . S
H205 C200 0.930 . S
C206 O207 1.224 . S
C206 O225 1.247 . S
O207 C206 1.224 . S
N208 Co198 2.128 . S
N208 C209 1.355 . S
N208 C211 1.311 . S
C209 N208 1.355 . S
C209 C210 1.363 . S
C209 H221 0.929 . S
C210 C209 1.363 . S
C210 N212 1.375 . S
C210 H228 0.931 . S
C211 N208 1.311 . S
C211 N212 1.347 . S
C211 H222 0.929 . S
N212 C210 1.375 . S
N212 C211 1.347 . S
C213 C216 1.365 . S
C213 N218 1.328 . S
C213 H219 0.929 . S
C214 C215 1.362 . S
C214 C217 1.378 . S
C214 H229 0.929 . S
C215 C214 1.362 . S
C215 C216 1.366 . S
C216 C213 1.365 . S
C216 C215 1.366 . S
C216 H230 0.930 . S
C217 C214 1.378 . S
C217 N218 1.315 . S
C217 H220 0.930 . S
N218 Co198 2.194 . S
N218 C213 1.328 . S
N218 C217 1.315 . S
H219 C213 0.929 . S
H220 C217 0.930 . S
H221 C209 0.929 . S
H222 C211 0.929 . S
O223 Co198 2.351 . S
O223 C226 1.244 . S
O224 Co198 2.155 . S
O224 C226 1.240 . S
O225 Co198 2.096 . S
O225 C206 1.247 . S
C226 O223 1.244 . S
C226 O224 1.240 . S
H227 C201 0.931 1_655 S
H228 C210 0.931 . S
H229 C214 0.929 . S
H230 C216 0.930 . S
Co231 N235 2.148 . S
Co231 N241 2.128 . S
Co231 N251 2.194 . S
Co231 O256 2.351 . S
Co231 O257 2.155 . S
Co231 O258 2.096 . S
C232 N235 1.301 . S
C232 N236 1.328 . S
C232 H237 0.930 . S
C233 C234 1.333 . S
C233 N235 1.317 . S
C233 H238 0.930 . S
C234 C233 1.333 . S
C234 N236 1.350 . S
C234 H260 0.931 1_545 S
N235 Co231 2.148 . S
N235 C232 1.301 . S
N235 C233 1.317 . S
N236 C232 1.328 . S
N236 C234 1.350 . S
H237 C232 0.930 . S
H238 C233 0.930 . S
C239 O240 1.224 . S
C239 O258 1.247 . S
O240 C239 1.224 . S
N241 Co231 2.128 . S
N241 C242 1.355 . S
N241 C244 1.311 . S
C242 N241 1.355 . S
C242 C243 1.363 . S
C242 H254 0.929 . S
C243 C242 1.363 . S
C243 N245 1.375 . S
C243 H261 0.931 . S
C244 N241 1.311 . S
C244 N245 1.347 . S
C244 H255 0.929 . S
N245 C243 1.375 . S
N245 C244 1.347 . S
C246 C249 1.365 . S
C246 N251 1.328 . S
C246 H252 0.929 . S
C247 C248 1.362 . S
C247 C250 1.378 . S
C247 H262 0.929 . S
C248 C247 1.362 . S
C248 C249 1.366 . S
C249 C246 1.365 . S
C249 C248 1.366 . S
C249 H263 0.930 . S
C250 C247 1.378 . S
C250 N251 1.315 . S
C250 H253 0.930 . S
N251 Co231 2.194 . S
N251 C246 1.328 . S
N251 C250 1.315 . S
H252 C246 0.929 . S
H253 C250 0.930 . S
H254 C242 0.929 . S
H255 C244 0.929 . S
O256 Co231 2.351 . S
O256 C259 1.244 . S
O257 Co231 2.155 . S
O257 C259 1.240 . S
O258 Co231 2.096 . S
O258 C239 1.247 . S
C259 O256 1.244 . S
C259 O257 1.240 . S
H260 C234 0.931 1_565 S
H261 C243 0.931 . S
H262 C247 0.929 . S
H263 C249 0.930 . S
C264 C265 1.349 . S
C264 C266 1.327 . S
C264 H289 0.950 1_554 S
C265 C264 1.349 . S
C265 C281 1.349 . S
C266 C264 1.327 . S
C266 C285 1.429 . S
C266 H290 0.950 1_554 S
C267 C284 1.574 1_565 S
C267 C286 1.368 . S
C267 H291 0.949 . S
H268 C272 0.949 1_556 S
C269 C270 1.349 . S
C269 C271 1.327 . S
C269 H292 0.950 . S
C270 C269 1.349 . S
C270 C282 1.349 . S
C271 C269 1.327 . S
C271 C287 1.429 . S
C271 H293 0.950 . S
C272 H268 0.949 1_554 S
C272 C280 1.574 1_545 S
C272 C288 1.368 . S
H273 C281 0.950 . S
H274 C279 0.950 . S
H275 C280 0.949 1_556 S
H276 C282 0.950 1_556 S
H277 C283 0.950 1_556 S
H278 C284 0.949 . S
C279 H274 0.950 . S
C279 C281 1.327 . S
C279 C285 1.429 . S
C280 C272 1.574 1_565 S
C280 H275 0.949 1_554 S
C280 C286 1.368 . S
C281 C265 1.349 . S
C281 H273 0.950 . S
C281 C279 1.327 . S
C282 C270 1.349 . S
C282 H276 0.950 1_554 S
C282 C283 1.327 . S
C283 H277 0.950 1_554 S
C283 C282 1.327 . S
C283 C287 1.429 . S
C284 C267 1.574 1_545 S
C284 H278 0.949 . S
C284 C288 1.368 . S
C285 C266 1.429 . S
C285 C279 1.429 . S
C285 C286 1.523 . S
C286 C267 1.368 . S
C286 C280 1.368 . S
C286 C285 1.523 . S
C287 C271 1.429 . S
C287 C283 1.429 . S
C287 C288 1.523 . S
C288 C272 1.368 . S
C288 C284 1.368 . S
C288 C287 1.523 . S
H289 C264 0.950 1_556 S
H290 C266 0.950 1_556 S
H291 C267 0.949 . S
H292 C269 0.950 . S
H293 C271 0.950 . S
C294 C295 1.349 . S
C294 C296 1.327 . S
C294 H319 0.950 . S
C295 C294 1.349 . S
C295 C311 1.349 . S
C296 C294 1.327 . S
C296 C315 1.429 . S
C296 H320 0.950 . S
C297 C314 1.574 1_655 S
C297 C316 1.368 . S
C297 H321 0.949 1_554 S
H298 C302 0.949 . S
C299 C300 1.349 . S
C299 C301 1.327 . S
C299 H322 0.950 1_554 S
C300 C299 1.349 . S
C300 C312 1.349 . S
C301 C299 1.327 . S
C301 C317 1.429 . S
C301 H323 0.950 1_554 S
C302 H298 0.949 . S
C302 C310 1.574 1_455 S
C302 C318 1.368 . S
H303 C311 0.950 1_556 S
H304 C309 0.950 1_556 S
H305 C310 0.949 . S
H306 C312 0.950 . S
H307 C313 0.950 . S
H308 C314 0.949 1_556 S
C309 H304 0.950 1_554 S
C309 C311 1.327 . S
C309 C315 1.429 . S
C310 C302 1.574 1_655 S
C310 H305 0.949 . S
C310 C316 1.368 . S
C311 C295 1.349 . S
C311 H303 0.950 1_554 S
C311 C309 1.327 . S
C312 C300 1.349 . S
C312 H306 0.950 . S
C312 C313 1.327 . S
C313 H307 0.950 . S
C313 C312 1.327 . S
C313 C317 1.429 . S
C314 C297 1.574 1_455 S
C314 H308 0.949 1_554 S
C314 C318 1.368 . S
C315 C296 1.429 . S
C315 C309 1.429 . S
C315 C316 1.523 . S
C316 C297 1.368 . S
C316 C310 1.368 . S
C316 C315 1.523 . S
C317 C301 1.429 . S
C317 C313 1.429 . S
C317 C318 1.523 . S
C318 C302 1.368 . S
C318 C314 1.368 . S
C318 C317 1.523 . S
H319 C294 0.950 . S
H320 C296 0.950 . S
H321 C297 0.949 1_556 S
H322 C299 0.950 1_556 S
H323 C301 0.950 1_556 S
C324 C325 1.349 . S
C324 C326 1.327 . S
C324 H349 0.950 . S
C325 C324 1.349 . S
C325 C341 1.349 . S
C326 C324 1.327 . S
C326 C345 1.429 . S
C326 H350 0.950 . S
C327 C344 1.574 . S
C327 C346 1.368 1_455 S
C327 H351 0.949 . S
H328 C332 0.949 . S
C329 C330 1.349 . S
C329 C331 1.327 . S
C329 H352 0.950 . S
C330 C329 1.349 . S
C330 C342 1.349 . S
C331 C329 1.327 . S
C331 C347 1.429 . S
C331 H353 0.950 . S
C332 H328 0.949 . S
C332 C340 1.574 . S
C332 C348 1.368 1_655 S
H333 C341 0.950 . S
H334 C339 0.950 1_455 S
H335 C340 0.949 . S
H336 C342 0.950 . S
H337 C343 0.950 1_655 S
H338 C344 0.949 . S
C339 H334 0.950 1_655 S
C339 C341 1.327 . S
C339 C345 1.429 . S
C340 C332 1.574 . S
C340 H335 0.949 . S
C340 C346 1.368 . S
C341 C325 1.349 . S
C341 H333 0.950 . S
C341 C339 1.327 . S
C342 C330 1.349 . S
C342 H336 0.950 . S
C342 C343 1.327 . S
C343 H337 0.950 1_455 S
C343 C342 1.327 . S
C343 C347 1.429 . S
C344 C327 1.574 . S
C344 H338 0.949 . S
C344 C348 1.368 . S
C345 C326 1.429 . S
C345 C339 1.429 . S
C345 C346 1.523 . S
C346 C327 1.368 1_655 S
C346 C340 1.368 . S
C346 C345 1.523 . S
C347 C331 1.429 . S
C347 C343 1.429 . S
C347 C348 1.523 . S
C348 C332 1.368 1_455 S
C348 C344 1.368 . S
C348 C347 1.523 . S
H349 C324 0.950 . S
H350 C326 0.950 . S
H351 C327 0.949 . S
H352 C329 0.950 . S
H353 C331 0.950 . S
C354 C355 1.349 . S
C354 C356 1.327 . S
C354 H379 0.950 . S
C355 C354 1.349 . S
C355 C371 1.349 . S
C356 C354 1.327 . S
C356 C375 1.429 . S
C356 H380 0.950 . S
C357 C374 1.574 . S
C357 C376 1.368 1_545 S
C357 H381 0.949 . S
H358 C362 0.949 . S
C359 C360 1.349 . S
C359 C361 1.327 . S
C359 H382 0.950 . S
C360 C359 1.349 . S
C360 C372 1.349 . S
C361 C359 1.327 . S
C361 C377 1.429 . S
C361 H383 0.950 . S
C362 H358 0.949 . S
C362 C370 1.574 . S
C362 C378 1.368 1_565 S
H363 C371 0.950 . S
H364 C369 0.950 1_545 S
H365 C370 0.949 . S
H366 C372 0.950 . S
H367 C373 0.950 1_565 S
H368 C374 0.949 . S
C369 H364 0.950 1_565 S
C369 C371 1.327 . S
C369 C375 1.429 . S
C370 C362 1.574 . S
C370 H365 0.949 . S
C370 C376 1.368 . S
C371 C355 1.349 . S
C371 H363 0.950 . S
C371 C369 1.327 . S
C372 C360 1.349 . S
C372 H366 0.950 . S
C372 C373 1.327 . S
C373 H367 0.950 1_545 S
C373 C372 1.327 . S
C373 C377 1.429 . S
C374 C357 1.574 . S
C374 H368 0.949 . S
C374 C378 1.368 . S
C375 C356 1.429 . S
C375 C369 1.429 . S
C375 C376 1.523 . S
C376 C357 1.368 1_565 S
C376 C370 1.368 . S
C376 C375 1.523 . S
C377 C361 1.429 . S
C377 C373 1.429 . S
C377 C378 1.523 . S
C378 C362 1.368 1_545 S
C378 C374 1.368 . S
C378 C377 1.523 . S
H379 C354 0.950 . S
H380 C356 0.950 . S
H381 C357 0.949 . S
H382 C359 0.950 . S
H383 C361 0.950 . S
C384 C385 1.361 . S
C384 C386 1.327 . S
C384 H409 0.938 1_554 S
C385 C384 1.361 . S
C385 C401 1.349 . S
C386 C384 1.327 . S
C386 C405 1.430 . S
C386 H410 0.948 1_554 S
C387 C404 1.574 . S
C387 C406 1.368 . S
C387 H411 0.949 . S
H388 C392 0.954 . S
C389 C390 1.349 . S
C389 C391 1.327 . S
C389 H412 0.950 . S
C390 C389 1.349 . S
C390 C402 1.349 . S
C391 C389 1.327 . S
C391 C407 1.429 . S
C391 H413 0.950 . S
C392 H388 0.954 . S
C392 C400 1.574 . S
C392 C408 1.363 1_556 S
H393 C401 0.950 . S
H394 C399 0.950 . S
H395 C400 0.962 . S
H396 C402 0.950 1_556 S
H397 C403 0.950 1_556 S
H398 C404 0.949 . S
C399 H394 0.950 . S
C399 C401 1.327 . S
C399 C405 1.429 . S
C400 C392 1.574 . S
C400 H395 0.962 . S
C400 C406 1.354 1_556 S
C401 C385 1.349 . S
C401 H393 0.950 . S
C401 C399 1.327 . S
C402 C390 1.349 . S
C402 H396 0.950 1_554 S
C402 C403 1.327 . S
C403 H397 0.950 1_554 S
C403 C402 1.327 . S
C403 C407 1.429 . S
C404 C387 1.574 . S
C404 H398 0.949 . S
C404 C408 1.368 . S
C405 C386 1.430 . S
C405 C399 1.429 . S
C405 C406 1.523 . S
C406 C387 1.368 . S
C406 C400 1.354 1_554 S
C406 C405 1.523 . S
C407 C391 1.429 . S
C407 C403 1.429 . S
C407 C408 1.523 . S
C408 C392 1.363 1_554 S
C408 C404 1.368 . S
C408 C407 1.523 . S
H409 C384 0.938 1_556 S
H410 C386 0.948 1_556 S
H411 C387 0.949 . S
H412 C389 0.950 . S
H413 C391 0.950 . S
C414 C415 1.349 . S
C414 C416 1.327 . S
C414 H439 0.950 . S
C415 C414 1.349 . S
C415 C431 1.351 . S
C416 C414 1.327 . S
C416 C435 1.429 . S
C416 H440 0.950 . S
C417 C434 1.574 . S
C417 C436 1.343 1_556 S
C417 H441 0.973 . S
H418 C422 0.949 . S
C419 C420 1.349 . S
C419 C421 1.327 . S
C419 H442 0.950 1_554 S
C420 C419 1.349 . S
C420 C432 1.349 . S
C421 C419 1.327 . S
C421 C437 1.429 . S
C421 H443 0.950 1_554 S
C422 H418 0.949 . S
C422 C430 1.574 . S
C422 C438 1.368 . S
H423 C431 0.948 1_556 S
H424 C429 0.953 . S
H425 C430 0.949 . S
H426 C432 0.950 . S
H427 C433 0.950 . S
H428 C434 0.964 . S
C429 H424 0.953 . S
C429 C431 1.327 1_556 S
C429 C435 1.426 1_556 S
C430 C422 1.574 . S
C430 H425 0.949 . S
C430 C436 1.368 . S
C431 C415 1.351 . S
C431 H423 0.948 1_554 S
C431 C429 1.327 1_554 S
C432 C420 1.349 . S
C432 H426 0.950 . S
C432 C433 1.327 . S
C433 H427 0.950 . S
C433 C432 1.327 . S
C433 C437 1.429 . S
C434 C417 1.574 . S
C434 H428 0.964 . S
C434 C438 1.352 1_556 S
C435 C416 1.429 . S
C435 C429 1.426 1_554 S
C435 C436 1.523 . S
C436 C417 1.343 1_554 S
C436 C430 1.368 . S
C436 C435 1.523 . S
C437 C421 1.429 . S
C437 C433 1.429 . S
C437 C438 1.523 . S
C438 C422 1.368 . S
C438 C434 1.352 1_554 S
C438 C437 1.523 . S
H439 C414 0.950 . S
H440 C416 0.950 . S
H441 C417 0.973 . S
H442 C419 0.950 1_556 S
H443 C421 0.950 1_556 S
C444 C445 1.349 . S
C444 C446 1.327 . S
C444 H469 0.950 1_554 S
C445 C444 1.349 . S
C445 C461 1.349 . S
C446 C444 1.327 . S
C446 C465 1.429 . S
C446 H470 0.950 1_554 S
C447 C464 1.574 . S
C447 C466 1.368 . S
C447 H471 0.949 . S
H448 C452 0.956 . S
C449 C450 1.349 . S
C449 C451 1.327 . S
C449 H472 0.950 . S
C450 C449 1.349 . S
C450 C462 1.367 . S
C451 C449 1.327 . S
C451 C467 1.429 . S
C451 H473 0.950 . S
C452 H448 0.956 . S
C452 C460 1.574 . S
C452 C468 1.361 1_556 S
H453 C461 0.950 . S
H454 C459 0.950 . S
H455 C460 0.947 . S
H456 C462 0.932 1_556 S
H457 C463 0.942 1_556 S
H458 C464 0.949 . S
C459 H454 0.950 . S
C459 C461 1.327 . S
C459 C465 1.429 . S
C460 C452 1.574 . S
C460 H455 0.947 . S
C460 C466 1.370 1_556 S
C461 C445 1.349 . S
C461 H453 0.950 . S
C461 C459 1.327 . S
C462 C450 1.367 . S
C462 H456 0.932 1_554 S
C462 C463 1.327 . S
C463 H457 0.942 1_554 S
C463 C462 1.327 . S
C463 C467 1.436 . S
C464 C447 1.574 . S
C464 H458 0.949 . S
C464 C468 1.368 . S
C465 C446 1.429 . S
C465 C459 1.429 . S
C465 C466 1.523 . S
C466 C447 1.368 . S
C466 C460 1.370 1_554 S
C466 C465 1.523 . S
C467 C451 1.429 . S
C467 C463 1.436 . S
C467 C468 1.523 . S
C468 C452 1.361 1_554 S
C468 C464 1.368 . S
C468 C467 1.523 . S
H469 C444 0.950 1_556 S
H470 C446 0.950 1_556 S
H471 C447 0.949 . S
H472 C449 0.950 . S
H473 C451 0.950 . S
C474 C475 1.349 . S
C474 C476 1.327 . S
C474 H499 0.950 . S
C475 C474 1.349 . S
C475 C491 1.349 . S
C476 C474 1.327 . S
C476 C495 1.429 . S
C476 H500 0.950 . S
C477 C494 1.574 . S
C477 C496 1.356 1_556 S
C477 H501 0.960 . S
H478 C482 0.949 . S
C479 C480 1.354 . S
C479 C481 1.327 1_554 S
C479 H502 0.944 1_554 S
C480 C479 1.354 . S
C480 C492 1.349 . S
C481 C479 1.327 1_556 S
C481 C497 1.429 1_556 S
C481 H503 0.949 . S
C482 H478 0.949 . S
C482 C490 1.574 . S
C482 C498 1.368 . S
H483 C491 0.950 1_556 S
H484 C489 0.950 1_556 S
H485 C490 0.949 . S
H486 C492 0.950 . S
H487 C493 0.950 . S
H488 C494 0.969 . S
C489 H484 0.950 1_554 S
C489 C491 1.327 . S
C489 C495 1.429 . S
C490 C482 1.574 . S
C490 H485 0.949 . S
C490 C496 1.368 . S
C491 C475 1.349 . S
C491 H483 0.950 1_554 S
C491 C489 1.327 . S
C492 C480 1.349 . S
C492 H486 0.950 . S
C492 C493 1.327 . S
C493 H487 0.950 . S
C493 C492 1.327 . S
C493 C497 1.429 . S
C494 C477 1.574 . S
C494 H488 0.969 . S
C494 C498 1.347 1_556 S
C495 C476 1.429 . S
C495 C489 1.429 . S
C495 C496 1.523 . S
C496 C477 1.356 1_554 S
C496 C490 1.368 . S
C496 C495 1.523 . S
C497 C481 1.429 1_554 S
C497 C493 1.429 . S
C497 C498 1.523 . S
C498 C482 1.368 . S
C498 C494 1.347 1_554 S
C498 C497 1.523 . S
H499 C474 0.950 . S
H500 C476 0.950 . S
H501 C477 0.960 . S
H502 C479 0.944 1_556 S
H503 C481 0.949 . S
C504 C505 1.349 . S
C504 C506 1.327 1_565 S
C504 H529 0.950 . S
C505 C504 1.349 . S
C505 C521 1.349 1_565 S
C506 C504 1.327 1_545 S
C506 C525 1.429 . S
C506 H530 0.950 . S
C507 C524 1.574 . S
C507 C526 1.368 . S
C507 H531 0.949 . S
H508 C512 0.949 . S
C509 C510 1.349 . S
C509 C511 1.327 . S
C509 H532 0.950 . S
C510 C509 1.349 . S
C510 C522 1.349 . S
C511 C509 1.327 . S
C511 C527 1.429 . S
C511 H533 0.950 . S
C512 H508 0.949 . S
C512 C520 1.574 . S
C512 C528 1.368 . S
H513 C521 0.950 . S
H514 C519 0.950 . S
H515 C520 0.949 . S
H516 C522 0.950 . S
H517 C523 0.950 . S
H518 C524 0.949 . S
C519 H514 0.950 . S
C519 C521 1.327 . S
C519 C525 1.429 . S
C520 C512 1.574 . S
C520 H515 0.949 . S
C520 C526 1.368 . S
C521 C505 1.349 1_545 S
C521 H513 0.950 . S
C521 C519 1.327 . S
C522 C510 1.349 . S
C522 H516 0.950 . S
C522 C523 1.327 . S
C523 H517 0.950 . S
C523 C522 1.327 . S
C523 C527 1.429 . S
C524 C507 1.574 . S
C524 H518 0.949 . S
C524 C528 1.368 . S
C525 C506 1.429 . S
C525 C519 1.429 . S
C525 C526 1.523 . S
C526 C507 1.368 . S
C526 C520 1.368 . S
C526 C525 1.523 . S
C527 C511 1.429 . S
C527 C523 1.429 . S
C527 C528 1.523 . S
C528 C512 1.368 . S
C528 C524 1.368 . S
C528 C527 1.523 . S
H529 C504 0.950 . S
H530 C506 0.950 . S
H531 C507 0.949 . S
H532 C509 0.950 . S
H533 C511 0.950 . S
C534 C535 1.349 1_655 S
C534 C536 1.327 . S
C534 H559 0.950 . S
C535 C534 1.349 1_455 S
C535 C551 1.356 . S
C536 C534 1.327 . S
C536 C555 1.429 . S
C536 H560 0.950 . S
C537 C554 1.574 . S
C537 C556 1.368 . S
C537 H561 0.949 . S
H538 C542 0.949 . S
C539 C540 1.349 . S
C539 C541 1.327 . S
C539 H562 0.950 . S
C540 C539 1.349 . S
C540 C552 1.349 . S
C541 C539 1.327 . S
C541 C557 1.429 . S
C541 H563 0.950 . S
C542 H538 0.949 . S
C542 C550 1.574 . S
C542 C558 1.368 . S
H543 C551 0.974 . S
H544 C549 0.950 . S
H545 C550 0.949 . S
H546 C552 0.950 . S
H547 C553 0.950 . S
H548 C554 0.949 . S
C549 H544 0.950 . S
C549 C551 1.297 1_655 S
C549 C555 1.429 . S
C550 C542 1.574 . S
C550 H545 0.949 . S
C550 C556 1.368 . S
C551 C535 1.356 . S
C551 H543 0.974 . S
C551 C549 1.297 1_455 S
C552 C540 1.349 . S
C552 H546 0.950 . S
C552 C553 1.327 . S
C553 H547 0.950 . S
C553 C552 1.327 . S
C553 C557 1.429 . S
C554 C537 1.574 . S
C554 H548 0.949 . S
C554 C558 1.368 . S
C555 C536 1.429 . S
C555 C549 1.429 . S
C555 C556 1.523 . S
C556 C537 1.368 . S
C556 C550 1.368 . S
C556 C555 1.523 . S
C557 C541 1.429 . S
C557 C553 1.429 . S
C557 C558 1.523 . S
C558 C542 1.368 . S
C558 C554 1.368 . S
C558 C557 1.523 . S
H559 C534 0.950 . S
H560 C536 0.950 . S
H561 C537 0.949 . S
H562 C539 0.950 . S
H563 C541 0.950 . S
C564 C565 1.349 . S
C564 C566 1.327 1_545 S
C564 H589 0.950 . S
C565 C564 1.349 . S
C565 C581 1.349 1_545 S
C566 C564 1.327 1_565 S
C566 C585 1.429 . S
C566 H590 0.950 . S
C567 C584 1.574 . S
C567 C586 1.368 . S
C567 H591 0.949 . S
H568 C572 0.949 . S
C569 C570 1.349 . S
C569 C571 1.327 . S
C569 H592 0.950 . S
C570 C569 1.349 . S
C570 C582 1.349 . S
C571 C569 1.327 . S
C571 C587 1.429 . S
C571 H593 0.950 . S
C572 H568 0.949 . S
C572 C580 1.574 . S
C572 C588 1.368 . S
H573 C581 0.950 . S
H574 C579 0.950 . S
H575 C580 0.949 . S
H576 C582 0.950 . S
H577 C583 0.950 . S
H578 C584 0.949 . S
C579 H574 0.950 . S
C579 C581 1.327 . S
C579 C585 1.429 . S
C580 C572 1.574 . S
C580 H575 0.949 . S
C580 C586 1.368 . S
C581 C565 1.349 1_565 S
C581 H573 0.950 . S
C581 C579 1.327 . S
C582 C570 1.349 . S
C582 H576 0.950 . S
C582 C583 1.327 . S
C583 H577 0.950 . S
C583 C582 1.327 . S
C583 C587 1.429 . S
C584 C567 1.574 . S
C584 H578 0.949 . S
C584 C588 1.368 . S
C585 C566 1.429 . S
C585 C579 1.429 . S
C585 C586 1.523 . S
C586 C567 1.368 . S
C586 C580 1.368 . S
C586 C585 1.523 . S
C587 C571 1.429 . S
C587 C583 1.429 . S
C587 C588 1.523 . S
C588 C572 1.368 . S
C588 C584 1.368 . S
C588 C587 1.523 . S
H589 C564 0.950 . S
H590 C566 0.950 . S
H591 C567 0.949 . S
H592 C569 0.950 . S
H593 C571 0.950 . S
C594 C595 1.349 1_455 S
C594 C596 1.327 . S
C594 H619 0.950 1_455 S
C595 C594 1.349 1_655 S
C595 C611 1.349 1_655 S
C596 C594 1.327 . S
C596 C615 1.429 . S
C596 H620 0.950 . S
C597 C614 1.574 . S
C597 C616 1.368 . S
C597 H621 0.949 . S
H598 C602 0.949 . S
C599 C600 1.349 . S
C599 C601 1.327 . S
C599 H622 0.950 . S
C600 C599 1.349 . S
C600 C612 1.349 . S
C601 C599 1.327 . S
C601 C617 1.429 . S
C601 H623 0.950 . S
C602 H598 0.949 . S
C602 C610 1.574 . S
C602 C618 1.368 . S
H603 C611 0.950 . S
H604 C609 0.950 . S
H605 C610 0.949 . S
H606 C612 0.950 . S
H607 C613 0.950 . S
H608 C614 0.949 . S
C609 H604 0.950 . S
C609 C611 1.327 . S
C609 C615 1.429 . S
C610 C602 1.574 . S
C610 H605 0.949 . S
C610 C616 1.368 . S
C611 C595 1.349 1_455 S
C611 H603 0.950 . S
C611 C609 1.327 . S
C612 C600 1.349 . S
C612 H606 0.950 . S
C612 C613 1.327 . S
C613 H607 0.950 . S
C613 C612 1.327 . S
C613 C617 1.429 . S
C614 C597 1.574 . S
C614 H608 0.949 . S
C614 C618 1.368 . S
C615 C596 1.429 . S
C615 C609 1.429 . S
C615 C616 1.523 . S
C616 C597 1.368 . S
C616 C610 1.368 . S
C616 C615 1.523 . S
C617 C601 1.429 . S
C617 C613 1.429 . S
C617 C618 1.523 . S
C618 C602 1.368 . S
C618 C614 1.368 . S
C618 C617 1.523 . S
H619 C594 0.950 1_655 S
H620 C596 0.950 . S
H621 C597 0.949 . S
H622 C599 0.950 . S
H623 C601 0.950 . S
C624 C625 1.349 . S
C624 C626 1.327 . S
C624 H649 0.950 . S
C625 C624 1.349 . S
C625 C641 1.349 . S
C626 C624 1.327 . S
C626 C645 1.429 . S
C626 H650 0.950 . S
C627 C644 1.574 . S
C627 C646 1.368 . S
C627 H651 0.949 . S
H628 C632 0.949 . S
C629 C630 1.349 . S
C629 C631 1.327 . S
C629 H652 0.950 . S
C630 C629 1.349 . S
C630 C642 1.349 . S
C631 C629 1.327 . S
C631 C647 1.429 . S
C631 H653 0.950 . S
C632 H628 0.949 . S
C632 C640 1.574 . S
C632 C648 1.368 . S
H633 C641 0.950 . S
H634 C639 0.950 . S
H635 C640 0.949 . S
H636 C642 0.950 . S
H637 C643 0.950 . S
H638 C644 0.949 . S
C639 H634 0.950 . S
C639 C641 1.327 . S
C639 C645 1.429 . S
C640 C632 1.574 . S
C640 H635 0.949 . S
C640 C646 1.368 . S
C641 C625 1.349 . S
C641 H633 0.950 . S
C641 C639 1.327 . S
C642 C630 1.349 . S
C642 H636 0.950 . S
C642 C643 1.327 . S
C643 H637 0.950 . S
C643 C642 1.327 . S
C643 C647 1.429 . S
C644 C627 1.574 . S
C644 H638 0.949 . S
C644 C648 1.368 . S
C645 C626 1.429 . S
C645 C639 1.429 . S
C645 C646 1.523 . S
C646 C627 1.368 . S
C646 C640 1.368 . S
C646 C645 1.523 . S
C647 C631 1.429 . S
C647 C643 1.429 . S
C647 C648 1.523 . S
C648 C632 1.368 . S
C648 C644 1.368 . S
C648 C647 1.523 . S
H649 C624 0.950 . S
H650 C626 0.950 . S
H651 C627 0.949 . S
H652 C629 0.950 . S
H653 C631 0.950 . S
C654 C655 1.349 . S
C654 C656 1.327 . S
C654 H679 0.950 . S
C655 C654 1.349 . S
C655 C671 1.349 . S
C656 C654 1.327 . S
C656 C675 1.429 . S
C656 H680 0.950 . S
C657 C674 1.574 . S
C657 C676 1.368 . S
C657 H681 0.949 . S
H658 C662 0.949 . S
C659 C660 1.349 . S
C659 C661 1.327 . S
C659 H682 0.950 . S
C660 C659 1.349 . S
C660 C672 1.349 . S
C661 C659 1.327 . S
C661 C677 1.429 . S
C661 H683 0.950 . S
C662 H658 0.949 . S
C662 C670 1.574 . S
C662 C678 1.368 . S
H663 C671 0.950 . S
H664 C669 0.950 . S
H665 C670 0.949 . S
H666 C672 0.950 . S
H667 C673 0.950 . S
H668 C674 0.949 . S
C669 H664 0.950 . S
C669 C671 1.327 . S
C669 C675 1.429 . S
C670 C662 1.574 . S
C670 H665 0.949 . S
C670 C676 1.368 . S
C671 C655 1.349 . S
C671 H663 0.950 . S
C671 C669 1.327 . S
C672 C660 1.349 . S
C672 H666 0.950 . S
C672 C673 1.327 . S
C673 H667 0.950 . S
C673 C672 1.327 . S
C673 C677 1.429 . S
C674 C657 1.574 . S
C674 H668 0.949 . S
C674 C678 1.368 . S
C675 C656 1.429 . S
C675 C669 1.429 . S
C675 C676 1.523 . S
C676 C657 1.368 . S
C676 C670 1.368 . S
C676 C675 1.523 . S
C677 C661 1.429 . S
C677 C673 1.429 . S
C677 C678 1.523 . S
C678 C662 1.368 . S
C678 C674 1.368 . S
C678 C677 1.523 . S
H679 C654 0.950 . S
H680 C656 0.950 . S
H681 C657 0.949 . S
H682 C659 0.950 . S
H683 C661 0.950 . S
C684 C685 1.349 . S
C684 C686 1.327 . S
C684 H709 0.950 . S
C685 C684 1.349 . S
C685 C701 1.349 . S
C686 C684 1.327 . S
C686 C705 1.429 . S
C686 H710 0.950 . S
C687 C704 1.574 . S
C687 C706 1.368 . S
C687 H711 0.949 . S
H688 C692 0.949 . S
C689 C690 1.349 . S
C689 C691 1.327 . S
C689 H712 0.950 . S
C690 C689 1.349 . S
C690 C702 1.349 . S
C691 C689 1.327 . S
C691 C707 1.429 . S
C691 H713 0.950 . S
C692 H688 0.949 . S
C692 C700 1.574 . S
C692 C708 1.368 . S
H693 C701 0.950 . S
H694 C699 0.950 . S
H695 C700 0.949 . S
H696 C702 0.950 . S
H697 C703 0.950 . S
H698 C704 0.949 . S
C699 H694 0.950 . S
C699 C701 1.327 . S
C699 C705 1.429 . S
C700 C692 1.574 . S
C700 H695 0.949 . S
C700 C706 1.368 . S
C701 C685 1.349 . S
C701 H693 0.950 . S
C701 C699 1.327 . S
C702 C690 1.349 . S
C702 H696 0.950 . S
C702 C703 1.327 . S
C703 H697 0.950 . S
C703 C702 1.327 . S
C703 C707 1.429 . S
C704 C687 1.574 . S
C704 H698 0.949 . S
C704 C708 1.368 . S
C705 C686 1.429 . S
C705 C699 1.429 . S
C705 C706 1.523 . S
C706 C687 1.368 . S
C706 C700 1.368 . S
C706 C705 1.523 . S
C707 C691 1.429 . S
C707 C703 1.429 . S
C707 C708 1.523 . S
C708 C692 1.368 . S
C708 C704 1.368 . S
C708 C707 1.523 . S
H709 C684 0.950 . S
H710 C686 0.950 . S
H711 C687 0.949 . S
H712 C689 0.950 . S
H713 C691 0.950 . S
C714 C715 1.349 . S
C714 C716 1.327 . S
C714 H739 0.950 . S
C715 C714 1.349 . S
C715 C731 1.349 . S
C716 C714 1.327 . S
C716 C735 1.429 . S
C716 H740 0.950 . S
C717 C734 1.574 . S
C717 C736 1.368 . S
C717 H741 0.949 . S
H718 C722 0.949 . S
C719 C720 1.349 . S
C719 C721 1.327 . S
C719 H742 0.950 . S
C720 C719 1.349 . S
C720 C732 1.349 . S
C721 C719 1.327 . S
C721 C737 1.429 . S
C721 H743 0.950 . S
C722 H718 0.949 . S
C722 C730 1.574 . S
C722 C738 1.368 . S
H723 C731 0.950 . S
H724 C729 0.950 . S
H725 C730 0.949 . S
H726 C732 0.950 . S
H727 C733 0.950 . S
H728 C734 0.949 . S
C729 H724 0.950 . S
C729 C731 1.327 . S
C729 C735 1.429 . S
C730 C722 1.574 . S
C730 H725 0.949 . S
C730 C736 1.368 . S
C731 C715 1.349 . S
C731 H723 0.950 . S
C731 C729 1.327 . S
C732 C720 1.349 . S
C732 H726 0.950 . S
C732 C733 1.327 . S
C733 H727 0.950 . S
C733 C732 1.327 . S
C733 C737 1.429 . S
C734 C717 1.574 . S
C734 H728 0.949 . S
C734 C738 1.368 . S
C735 C716 1.429 . S
C735 C729 1.429 . S
C735 C736 1.523 . S
C736 C717 1.368 . S
C736 C730 1.368 . S
C736 C735 1.523 . S
C737 C721 1.429 . S
C737 C733 1.429 . S
C737 C738 1.523 . S
C738 C722 1.368 . S
C738 C734 1.368 . S
C738 C737 1.523 . S
H739 C714 0.950 . S
H740 C716 0.950 . S
H741 C717 0.949 . S
H742 C719 0.950 . S
H743 C721 0.950 . S
C744 C745 1.349 . S
C744 C746 1.327 . S
C744 H769 0.950 . S
C745 C744 1.349 . S
C745 C761 1.349 . S
C746 C744 1.327 . S
C746 C765 1.429 . S
C746 H770 0.950 . S
C747 C764 1.574 . S
C747 C766 1.368 . S
C747 H771 0.949 . S
H748 C752 0.949 . S
C749 C750 1.349 . S
C749 C751 1.327 . S
C749 H772 0.950 . S
C750 C749 1.349 . S
C750 C762 1.349 . S
C751 C749 1.327 . S
C751 C767 1.429 . S
C751 H773 0.950 . S
C752 H748 0.949 . S
C752 C760 1.574 . S
C752 C768 1.368 . S
H753 C761 0.950 . S
H754 C759 0.950 . S
H755 C760 0.949 . S
H756 C762 0.950 . S
H757 C763 0.950 . S
H758 C764 0.949 . S
C759 H754 0.950 . S
C759 C761 1.327 . S
C759 C765 1.429 . S
C760 C752 1.574 . S
C760 H755 0.949 . S
C760 C766 1.368 . S
C761 C745 1.349 . S
C761 H753 0.950 . S
C761 C759 1.327 . S
C762 C750 1.349 . S
C762 H756 0.950 . S
C762 C763 1.327 . S
C763 H757 0.950 . S
C763 C762 1.327 . S
C763 C767 1.429 . S
C764 C747 1.574 . S
C764 H758 0.949 . S
C764 C768 1.368 . S
C765 C746 1.429 . S
C765 C759 1.429 . S
C765 C766 1.523 . S
C766 C747 1.368 . S
C766 C760 1.368 . S
C766 C765 1.523 . S
C767 C751 1.429 . S
C767 C763 1.429 . S
C767 C768 1.523 . S
C768 C752 1.368 . S
C768 C764 1.368 . S
C768 C767 1.523 . S
H769 C744 0.950 . S
H770 C746 0.950 . S
H771 C747 0.949 . S
H772 C749 0.950 . S
H773 C751 0.950 . S
C774 C775 1.349 . S
C774 C776 1.327 . S
C774 H799 0.950 . S
C775 C774 1.349 . S
C775 C791 1.349 . S
C776 C774 1.327 . S
C776 C795 1.429 . S
C776 H800 0.950 . S
C777 C794 1.574 . S
C777 C796 1.368 . S
C777 H801 0.949 . S
H778 C782 0.949 . S
C779 C780 1.349 . S
C779 C781 1.327 . S
C779 H802 0.950 . S
C780 C779 1.349 . S
C780 C792 1.349 . S
C781 C779 1.327 . S
C781 C797 1.429 . S
C781 H803 0.950 . S
C782 H778 0.949 . S
C782 C790 1.574 . S
C782 C798 1.368 . S
H783 C791 0.950 . S
H784 C789 0.950 . S
H785 C790 0.949 . S
H786 C792 0.950 . S
H787 C793 0.950 . S
H788 C794 0.949 . S
C789 H784 0.950 . S
C789 C791 1.327 . S
C789 C795 1.429 . S
C790 C782 1.574 . S
C790 H785 0.949 . S
C790 C796 1.368 . S
C791 C775 1.349 . S
C791 H783 0.950 . S
C791 C789 1.327 . S
C792 C780 1.349 . S
C792 H786 0.950 . S
C792 C793 1.327 . S
C793 H787 0.950 . S
C793 C792 1.327 . S
C793 C797 1.429 . S
C794 C777 1.574 . S
C794 H788 0.949 . S
C794 C798 1.368 . S
C795 C776 1.429 . S
C795 C789 1.429 . S
C795 C796 1.523 . S
C796 C777 1.368 . S
C796 C790 1.368 . S
C796 C795 1.523 . S
C797 C781 1.429 . S
C797 C793 1.429 . S
C797 C798 1.523 . S
C798 C782 1.368 . S
C798 C794 1.368 . S
C798 C797 1.523 . S
H799 C774 0.950 . S
H800 C776 0.950 . S
H801 C777 0.949 . S
H802 C779 0.950 . S
H803 C781 0.950 . S
C804 C805 1.349 . S
C804 C806 1.327 . S
C804 H829 0.950 . S
C805 C804 1.349 . S
C805 C821 1.349 . S
C806 C804 1.327 . S
C806 C825 1.429 . S
C806 H830 0.950 . S
C807 C824 1.574 . S
C807 C826 1.368 . S
C807 H831 0.949 . S
H808 C812 0.949 . S
C809 C810 1.349 . S
C809 C811 1.327 . S
C809 H832 0.950 . S
C810 C809 1.349 . S
C810 C822 1.349 . S
C811 C809 1.327 . S
C811 C827 1.429 . S
C811 H833 0.950 . S
C812 H808 0.949 . S
C812 C820 1.574 . S
C812 C828 1.368 . S
H813 C821 0.950 . S
H814 C819 0.950 . S
H815 C820 0.949 . S
H816 C822 0.950 . S
H817 C823 0.950 . S
H818 C824 0.949 . S
C819 H814 0.950 . S
C819 C821 1.327 . S
C819 C825 1.429 . S
C820 C812 1.574 . S
C820 H815 0.949 . S
C820 C826 1.368 . S
C821 C805 1.349 . S
C821 H813 0.950 . S
C821 C819 1.327 . S
C822 C810 1.349 . S
C822 H816 0.950 . S
C822 C823 1.327 . S
C823 H817 0.950 . S
C823 C822 1.327 . S
C823 C827 1.429 . S
C824 C807 1.574 . S
C824 H818 0.949 . S
C824 C828 1.368 . S
C825 C806 1.429 . S
C825 C819 1.429 . S
C825 C826 1.523 . S
C826 C807 1.368 . S
C826 C820 1.368 . S
C826 C825 1.523 . S
C827 C811 1.429 . S
C827 C823 1.429 . S
C827 C828 1.523 . S
C828 C812 1.368 . S
C828 C824 1.368 . S
C828 C827 1.523 . S
H829 C804 0.950 . S
H830 C806 0.950 . S
H831 C807 0.949 . S
H832 C809 0.950 . S
H833 C811 0.950 . S
C834 C835 1.349 . S
C834 C836 1.327 . S
C834 H859 0.950 . S
C835 C834 1.349 . S
C835 C851 1.349 . S
C836 C834 1.327 . S
C836 C855 1.429 . S
C836 H860 0.950 . S
C837 C854 1.574 . S
C837 C856 1.368 . S
C837 H861 0.949 . S
H838 C842 0.949 . S
C839 C840 1.349 . S
C839 C841 1.327 . S
C839 H862 0.950 . S
C840 C839 1.349 . S
C840 C852 1.349 . S
C841 C839 1.327 . S
C841 C857 1.429 . S
C841 H863 0.950 . S
C842 H838 0.949 . S
C842 C850 1.574 . S
C842 C858 1.368 . S
H843 C851 0.950 . S
H844 C849 0.950 . S
H845 C850 0.949 . S
H846 C852 0.950 . S
H847 C853 0.950 . S
H848 C854 0.949 . S
C849 H844 0.950 . S
C849 C851 1.327 . S
C849 C855 1.429 . S
C850 C842 1.574 . S
C850 H845 0.949 . S
C850 C856 1.368 . S
C851 C835 1.349 . S
C851 H843 0.950 . S
C851 C849 1.327 . S
C852 C840 1.349 . S
C852 H846 0.950 . S
C852 C853 1.327 . S
C853 H847 0.950 . S
C853 C852 1.327 . S
C853 C857 1.429 . S
C854 C837 1.574 . S
C854 H848 0.949 . S
C854 C858 1.368 . S
C855 C836 1.429 . S
C855 C849 1.429 . S
C855 C856 1.523 . S
C856 C837 1.368 . S
C856 C850 1.368 . S
C856 C855 1.523 . S
C857 C841 1.429 . S
C857 C853 1.429 . S
C857 C858 1.523 . S
C858 C842 1.368 . S
C858 C854 1.368 . S
C858 C857 1.523 . S
H859 C834 0.950 . S
H860 C836 0.950 . S
H861 C837 0.949 . S
H862 C839 0.950 . S
H863 C841 0.950 . S
C265 N71 1.540 . S
C270 N5 1.540 . S
C295 N38 1.540 . S
C300 N104 1.540 . S
C325 N137 1.540 . S
C330 N203 1.540 . S
C355 N170 1.540 . S
C360 N236 1.540 . S
C385 C107 1.607 . S
C390 N14 1.547 . S
C415 C8 1.607 . S
C420 N47 1.547 . S
C445 N80 1.547 . S
C450 C41 1.607 . S
C475 N113 1.547 . S
C480 C74 1.607 . S
C505 C173 1.607 . S
C510 N146 1.547 . S
C535 C206 1.607 . S
C540 N179 1.547 . S
C565 C239 1.607 . S
C570 N212 1.547 . S
C595 C140 1.607 . S
C600 N245 1.547 . S
C625 C28 1.325 . S
C630 C259 1.325 . S
C655 C61 1.325 . S
C660 C160 1.325 . S
C685 C193 1.325 . S
C690 C94 1.325 . S
C715 C226 1.325 . S
C720 C127 1.325 . S
C745 C83 1.419 . S
C750 C182 1.419 . S
C775 C215 1.419 . S
C780 C116 1.419 . S
C805 C248 1.419 . S
C810 C17 1.419 . S
C835 C149 1.419 . S
C840 C50 1.419 . S
