# Generated by pormake.
# Topology wjr, (5)-cn, num edge types: 1
# Building blocks:
#     Node 0, Type 0, BuildingBlock: BEQFEK_clean_sbu_0, # of connection points: 5
#     Node 1, Type 0, BuildingBlock: BEQFEK_clean_sbu_0, # of connection points: 5
#     Node 2, Type 0, BuildingBlock: BEQFEK_clean_sbu_0, # of connection points: 5
#     Node 3, Type 0, BuildingBlock: BEQFEK_clean_sbu_0, # of connection points: 5
#     Node 4, Type 0, BuildingBlock: BEQFEK_clean_sbu_0, # of connection points: 5
#     Node 5, Type 0, BuildingBlock: BEQFEK_clean_sbu_0, # of connection points: 5
#     Node 6, Type 0, BuildingBlock: BEQFEK_clean_sbu_0, # of connection points: 5
#     Node 7, Type 0, BuildingBlock: BEQFEK_clean_sbu_0, # of connection points: 5
#     Node 8, Type 0, BuildingBlock: BEQFEK_clean_sbu_0, # of connection points: 5
#     Node 9, Type 0, BuildingBlock: BEQFEK_clean_sbu_0, # of connection points: 5
#     Node 10, Type 0, BuildingBlock: BEQFEK_clean_sbu_0, # of connection points: 5
#     Node 11, Type 0, BuildingBlock: BEQFEK_clean_sbu_0, # of connection points: 5
#     Node 12, Type 0, BuildingBlock: BEQFEK_clean_sbu_0, # of connection points: 5
#     Node 13, Type 0, BuildingBlock: BEQFEK_clean_sbu_0, # of connection points: 5
#     Node 14, Type 0, BuildingBlock: BEQFEK_clean_sbu_0, # of connection points: 5
#     Node 15, Type 0, BuildingBlock: BEQFEK_clean_sbu_0, # of connection points: 5
#     Node 16, Type 0, BuildingBlock: BEQFEK_clean_sbu_0, # of connection points: 5
#     Node 17, Type 0, BuildingBlock: BEQFEK_clean_sbu_0, # of connection points: 5
#     Node 18, Type 0, BuildingBlock: BEQFEK_clean_sbu_0, # of connection points: 5
#     Node 19, Type 0, BuildingBlock: BEQFEK_clean_sbu_0, # of connection points: 5
#     Node 20, Type 0, BuildingBlock: BEQFEK_clean_sbu_0, # of connection points: 5
#     Node 21, Type 0, BuildingBlock: BEQFEK_clean_sbu_0, # of connection points: 5
#     Node 22, Type 0, BuildingBlock: BEQFEK_clean_sbu_0, # of connection points: 5
#     Node 23, Type 0, BuildingBlock: BEQFEK_clean_sbu_0, # of connection points: 5
#     Edge 24, Type (0, 0), BuildingBlock: KIFKEQ_clean_linker_1, # of connection points: 2
#     Edge 25, Type (0, 0), BuildingBlock: KIFKEQ_clean_linker_1, # of connection points: 2
#     Edge 26, Type (0, 0), BuildingBlock: KIFKEQ_clean_linker_1, # of connection points: 2
#     Edge 27, Type (0, 0), BuildingBlock: KIFKEQ_clean_linker_1, # of connection points: 2
#     Edge 28, Type (0, 0), BuildingBlock: KIFKEQ_clean_linker_1, # of connection points: 2
#     Edge 29, Type (0, 0), BuildingBlock: KIFKEQ_clean_linker_1, # of connection points: 2
#     Edge 30, Type (0, 0), BuildingBlock: KIFKEQ_clean_linker_1, # of connection points: 2
#     Edge 31, Type (0, 0), BuildingBlock: KIFKEQ_clean_linker_1, # of connection points: 2
#     Edge 32, Type (0, 0), BuildingBlock: KIFKEQ_clean_linker_1, # of connection points: 2
#     Edge 33, Type (0, 0), BuildingBlock: KIFKEQ_clean_linker_1, # of connection points: 2
#     Edge 34, Type (0, 0), BuildingBlock: KIFKEQ_clean_linker_1, # of connection points: 2
#     Edge 35, Type (0, 0), BuildingBlock: KIFKEQ_clean_linker_1, # of connection points: 2
#     Edge 36, Type (0, 0), BuildingBlock: KIFKEQ_clean_linker_1, # of connection points: 2
#     Edge 37, Type (0, 0), BuildingBlock: KIFKEQ_clean_linker_1, # of connection points: 2
#     Edge 38, Type (0, 0), BuildingBlock: KIFKEQ_clean_linker_1, # of connection points: 2
#     Edge 39, Type (0, 0), BuildingBlock: KIFKEQ_clean_linker_1, # of connection points: 2
#     Edge 40, Type (0, 0), BuildingBlock: KIFKEQ_clean_linker_1, # of connection points: 2
#     Edge 41, Type (0, 0), BuildingBlock: KIFKEQ_clean_linker_1, # of connection points: 2
#     Edge 42, Type (0, 0), BuildingBlock: KIFKEQ_clean_linker_1, # of connection points: 2
#     Edge 43, Type (0, 0), BuildingBlock: KIFKEQ_clean_linker_1, # of connection points: 2
#     Edge 44, Type (0, 0), BuildingBlock: KIFKEQ_clean_linker_1, # of connection points: 2
#     Edge 45, Type (0, 0), BuildingBlock: KIFKEQ_clean_linker_1, # of connection points: 2
#     Edge 46, Type (0, 0), BuildingBlock: KIFKEQ_clean_linker_1, # of connection points: 2
#     Edge 47, Type (0, 0), BuildingBlock: KIFKEQ_clean_linker_1, # of connection points: 2
#     Edge 48, Type (0, 0), BuildingBlock: KIFKEQ_clean_linker_1, # of connection points: 2
#     Edge 49, Type (0, 0), BuildingBlock: KIFKEQ_clean_linker_1, # of connection points: 2
#     Edge 50, Type (0, 0), BuildingBlock: KIFKEQ_clean_linker_1, # of connection points: 2
#     Edge 51, Type (0, 0), BuildingBlock: KIFKEQ_clean_linker_1, # of connection points: 2
#     Edge 52, Type (0, 0), BuildingBlock: KIFKEQ_clean_linker_1, # of connection points: 2
#     Edge 53, Type (0, 0), BuildingBlock: KIFKEQ_clean_linker_1, # of connection points: 2
#     Edge 54, Type (0, 0), BuildingBlock: KIFKEQ_clean_linker_1, # of connection points: 2
#     Edge 55, Type (0, 0), BuildingBlock: KIFKEQ_clean_linker_1, # of connection points: 2
#     Edge 56, Type (0, 0), BuildingBlock: KIFKEQ_clean_linker_1, # of connection points: 2
#     Edge 57, Type (0, 0), BuildingBlock: KIFKEQ_clean_linker_1, # of connection points: 2
#     Edge 58, Type (0, 0), BuildingBlock: KIFKEQ_clean_linker_1, # of connection points: 2
#     Edge 59, Type (0, 0), BuildingBlock: KIFKEQ_clean_linker_1, # of connection points: 2
#     Edge 60, Type (0, 0), BuildingBlock: KIFKEQ_clean_linker_1, # of connection points: 2
#     Edge 61, Type (0, 0), BuildingBlock: KIFKEQ_clean_linker_1, # of connection points: 2
#     Edge 62, Type (0, 0), BuildingBlock: KIFKEQ_clean_linker_1, # of connection points: 2
#     Edge 63, Type (0, 0), BuildingBlock: KIFKEQ_clean_linker_1, # of connection points: 2
#     Edge 64, Type (0, 0), BuildingBlock: KIFKEQ_clean_linker_1, # of connection points: 2
#     Edge 65, Type (0, 0), BuildingBlock: KIFKEQ_clean_linker_1, # of connection points: 2
#     Edge 66, Type (0, 0), BuildingBlock: KIFKEQ_clean_linker_1, # of connection points: 2
#     Edge 67, Type (0, 0), BuildingBlock: KIFKEQ_clean_linker_1, # of connection points: 2
#     Edge 68, Type (0, 0), BuildingBlock: KIFKEQ_clean_linker_1, # of connection points: 2
#     Edge 69, Type (0, 0), BuildingBlock: KIFKEQ_clean_linker_1, # of connection points: 2
#     Edge 70, Type (0, 0), BuildingBlock: KIFKEQ_clean_linker_1, # of connection points: 2
#     Edge 71, Type (0, 0), BuildingBlock: KIFKEQ_clean_linker_1, # of connection points: 2
#     Edge 72, Type (0, 0), BuildingBlock: KIFKEQ_clean_linker_1, # of connection points: 2
#     Edge 73, Type (0, 0), BuildingBlock: KIFKEQ_clean_linker_1, # of connection points: 2
#     Edge 74, Type (0, 0), BuildingBlock: KIFKEQ_clean_linker_1, # of connection points: 2
#     Edge 75, Type (0, 0), BuildingBlock: KIFKEQ_clean_linker_1, # of connection points: 2
#     Edge 76, Type (0, 0), BuildingBlock: KIFKEQ_clean_linker_1, # of connection points: 2
#     Edge 77, Type (0, 0), BuildingBlock: KIFKEQ_clean_linker_1, # of connection points: 2
#     Edge 78, Type (0, 0), BuildingBlock: KIFKEQ_clean_linker_1, # of connection points: 2
#     Edge 79, Type (0, 0), BuildingBlock: KIFKEQ_clean_linker_1, # of connection points: 2
#     Edge 80, Type (0, 0), BuildingBlock: KIFKEQ_clean_linker_1, # of connection points: 2
#     Edge 81, Type (0, 0), BuildingBlock: KIFKEQ_clean_linker_1, # of connection points: 2
#     Edge 82, Type (0, 0), BuildingBlock: KIFKEQ_clean_linker_1, # of connection points: 2
#     Edge 83, Type (0, 0), BuildingBlock: KIFKEQ_clean_linker_1, # of connection points: 2
# Relax obj value: 0.370
# Max RMSD: 0.179
# Mean RMSD: 0.179
data_MOF--net-wjr--node1-BEQFEK_clean_sbu_0--edge1-KIFKEQ_clean_linker_1
_symmetry_space_group_name_H-M    P1
_symmetry_Int_Tables_number       1
_symmetry_cell_setting            triclinic
loop_
_symmetry_equiv_pos_as_xyz
'x, y, z'
_cell_length_a     71.324717
_cell_length_b     71.321062
_cell_length_c     49.604376
_cell_angle_alpha  90.007596
_cell_angle_beta   89.993067
_cell_angle_gamma 120.01244
loop_
_atom_site_label
_atom_site_type_symbol
_atom_site_fract_x
_atom_site_fract_y
_atom_site_fract_z
_atom_type_partial_charge
Co0 Co 0.47006 0.08075 0.15244 0.0
Co1 Co 0.46016 0.1142 0.1802 0.0
C2 C 0.50082 0.11401 0.19262 0.0
O3 O 0.49512 0.09813 0.1765 0.0
O4 O 0.48903 0.12259 0.19629 0.0
C5 C 0.49512 0.06534 0.12467 0.0
O6 O 0.51186 0.08376 0.13229 0.0
C7 C 0.461 0.15384 0.20007 0.0
C8 C 0.42654 0.14418 0.19488 0.0
C9 C 0.44636 0.16115 0.20303 0.0
N10 N 0.45024 0.13346 0.19052 0.0
N11 N 0.42964 0.12778 0.18768 0.0
C12 C 0.48498 0.16638 0.20423 0.0
H13 H 0.49317 0.16171 0.18881 0.0
H14 H 0.49121 0.18407 0.20315 0.0
H15 H 0.48881 0.16241 0.22438 0.0
C16 C 0.46511 0.10083 0.1034 0.0
N17 N 0.46483 0.09889 0.13035 0.0
N18 N 0.46094 0.11332 0.14152 0.0
C19 C 0.45873 0.12511 0.1217 0.0
C20 C 0.46141 0.1176 0.09696 0.0
C21 C 0.46825 0.08641 0.08423 0.0
H22 H 0.4583 0.06931 0.09075 0.0
H23 H 0.48551 0.09074 0.08449 0.0
H24 H 0.46363 0.08796 0.06334 0.0
O25 O 0.44446 0.06179 0.17429 0.0
O26 O 0.43889 0.08563 0.19635 0.0
H27 H 0.43851 0.13782 0.13351 0.0
H28 H 0.45781 0.15333 0.10753 0.0
C29 C 0.4553 0.14389 0.12631 0.0
H30 H 0.46661 0.15462 0.14205 0.0
H31 H 0.41776 0.11277 0.18032 0.0
O32 O 0.47615 0.06129 0.13069 0.0
C33 C 0.43416 0.06621 0.19164 0.0
Co34 Co 0.38994 0.4724 0.15171 0.0
Co35 Co 0.3463 0.45919 0.1811 0.0
C36 C 0.38717 0.50066 0.19427 0.0
O37 O 0.3977 0.49721 0.17612 0.0
O38 O 0.36726 0.48722 0.19894 0.0
C39 C 0.4306 0.49763 0.12423 0.0
O40 O 0.4298 0.51442 0.13372 0.0
C41 C 0.30923 0.46187 0.2025 0.0
C42 C 0.2832 0.42762 0.2003 0.0
C43 C 0.28736 0.44813 0.2074 0.0
N44 N 0.3176 0.44999 0.19291 0.0
N45 N 0.30199 0.42953 0.1918 0.0
C46 C 0.32168 0.486 0.20497 0.0
H47 H 0.33366 0.49306 0.18836 0.0
H48 H 0.31073 0.49285 0.20451 0.0
H49 H 0.33065 0.49045 0.22435 0.0
C50 C 0.36333 0.46606 0.10376 0.0
N51 N 0.36582 0.46645 0.13064 0.0
N52 N 0.34738 0.46137 0.14251 0.0
C53 C 0.33254 0.45784 0.12325 0.0
C54 C 0.3422 0.46057 0.09816 0.0
C55 C 0.38102 0.47099 0.08391 0.0
H56 H 0.39458 0.48766 0.08746 0.0
H57 H 0.37539 0.46968 0.06278 0.0
H58 H 0.38723 0.45967 0.0871 0.0
O59 O 0.38437 0.44684 0.17316 0.0
O60 O 0.35326 0.43685 0.19393 0.0
H61 H 0.30106 0.4516 0.1099 0.0
H62 H 0.30869 0.46238 0.14371 0.0
C63 C 0.30944 0.4513 0.12862 0.0
H64 H 0.30094 0.43467 0.13702 0.0
H65 H 0.30412 0.4169 0.18486 0.0
O66 O 0.41502 0.47869 0.12887 0.0
C67 C 0.36933 0.43422 0.18906 0.0
Co68 Co 0.92126 0.38736 0.15277 0.0
Co69 Co 0.88828 0.3446 0.18205 0.0
C70 C 0.88925 0.38592 0.19419 0.0
O71 O 0.90464 0.39574 0.17733 0.0
O72 O 0.88071 0.36561 0.19834 0.0
C73 C 0.93641 0.42744 0.12428 0.0
O74 O 0.91828 0.42605 0.13266 0.0
C75 C 0.8482 0.30645 0.20192 0.0
C76 C 0.85792 0.2815 0.20004 0.0
C77 C 0.84074 0.2846 0.20624 0.0
N78 N 0.86886 0.31576 0.19345 0.0
N79 N 0.87459 0.30078 0.1926 0.0
C80 C 0.83559 0.31799 0.20369 0.0
H81 H 0.84138 0.33097 0.18825 0.0
H82 H 0.81802 0.30658 0.20089 0.0
H83 H 0.83817 0.32563 0.22386 0.0
C84 C 0.90081 0.36103 0.10468 0.0
N85 N 0.90263 0.36355 0.13156 0.0
N86 N 0.88819 0.34554 0.14338 0.0
C87 C 0.87635 0.33101 0.12406 0.0
C88 C 0.88414 0.34035 0.099 0.0
C89 C 0.91445 0.37843 0.08489 0.0
H90 H 0.93182 0.38457 0.08928 0.0
H91 H 0.91133 0.39209 0.08725 0.0
H92 H 0.9109 0.37258 0.06377 0.0
O93 O 0.94059 0.38079 0.17388 0.0
O94 O 0.91722 0.35159 0.1967 0.0
H95 H 0.86471 0.29887 0.1385 0.0
H96 H 0.84944 0.30056 0.11054 0.0
C97 C 0.85815 0.30859 0.12938 0.0
H98 H 0.84666 0.30923 0.1439 0.0
H99 H 0.88979 0.30368 0.18638 0.0
O100 O 0.94036 0.41242 0.13004 0.0
C101 C 0.93656 0.36613 0.19119 0.0
Co102 Co 0.53204 0.92034 0.1515 0.0
Co103 Co 0.54245 0.88783 0.18116 0.0
C104 C 0.50106 0.88734 0.1914 0.0
O105 O 0.50628 0.90268 0.1746 0.0
O106 O 0.51345 0.87966 0.19629 0.0
C107 C 0.5072 0.93551 0.1229 0.0
O108 O 0.49046 0.91728 0.13104 0.0
C109 C 0.54269 0.85083 0.20844 0.0
C110 C 0.57548 0.85741 0.19751 0.0
C111 C 0.55696 0.84302 0.21141 0.0
N112 N 0.5523 0.86878 0.19305 0.0
N113 N 0.57193 0.87266 0.1868 0.0
C114 C 0.52125 0.8428 0.22197 0.0
H115 H 0.51993 0.8567 0.22958 0.0
H116 H 0.50812 0.83394 0.20706 0.0
H117 H 0.5191 0.83199 0.23919 0.0
C118 C 0.53955 0.90091 0.10364 0.0
N119 N 0.53859 0.90256 0.13052 0.0
N120 N 0.54203 0.88805 0.14237 0.0
C121 C 0.54466 0.87617 0.12303 0.0
C122 C 0.5435 0.88421 0.09795 0.0
C123 C 0.53555 0.91439 0.08387 0.0
H124 H 0.51863 0.91088 0.08606 0.0
H125 H 0.5381 0.91105 0.06275 0.0
H126 H 0.54646 0.93179 0.08841 0.0
O127 O 0.55695 0.93978 0.17407 0.0
O128 O 0.56348 0.91678 0.19663 0.0
H129 H 0.56521 0.86336 0.13257 0.0
H130 H 0.54326 0.84653 0.11036 0.0
C131 C 0.54787 0.85731 0.12823 0.0
H132 H 0.53813 0.84797 0.14587 0.0
H133 H 0.58295 0.88582 0.17526 0.0
O134 O 0.52618 0.93947 0.12868 0.0
C135 C 0.5676 0.93598 0.19161 0.0
Co136 Co 0.6112 0.52993 0.15298 0.0
Co137 Co 0.65468 0.54106 0.18143 0.0
C138 C 0.61384 0.50007 0.194 0.0
O139 O 0.6034 0.50475 0.17701 0.0
O140 O 0.63401 0.51261 0.19823 0.0
C141 C 0.57035 0.50524 0.12567 0.0
O142 O 0.57102 0.48826 0.13464 0.0
C143 C 0.69304 0.53929 0.20036 0.0
C144 C 0.7179 0.57401 0.19883 0.0
C145 C 0.71489 0.5537 0.2046 0.0
N146 N 0.68363 0.55065 0.19236 0.0
N147 N 0.69855 0.57138 0.1917 0.0
C148 C 0.68158 0.51512 0.20177 0.0
H149 H 0.66853 0.50803 0.1864 0.0
H150 H 0.69303 0.50905 0.19862 0.0
H151 H 0.67404 0.50986 0.22196 0.0
C152 C 0.63721 0.5365 0.10439 0.0
N153 N 0.63498 0.53576 0.13132 0.0
N154 N 0.6533 0.53992 0.14277 0.0
C155 C 0.66778 0.5431 0.12315 0.0
C156 C 0.65805 0.54122 0.09828 0.0
C157 C 0.61942 0.53217 0.08497 0.0
H158 H 0.61339 0.54354 0.08899 0.0
H159 H 0.60579 0.51548 0.08815 0.0
H160 H 0.62485 0.53386 0.0637 0.0
O161 O 0.6174 0.55547 0.17482 0.0
O162 O 0.64752 0.56268 0.19644 0.0
H163 H 0.69981 0.56451 0.13729 0.0
H164 H 0.69862 0.54806 0.10897 0.0
C165 C 0.69054 0.54823 0.12802 0.0
H166 H 0.69058 0.53626 0.14226 0.0
H167 H 0.69557 0.58371 0.18586 0.0
O168 O 0.58599 0.52408 0.13066 0.0
C169 C 0.63231 0.56664 0.19163 0.0
Co170 Co 0.0798 0.6088 0.15094 0.0
Co171 Co 0.11144 0.65128 0.18167 0.0
C172 C 0.11136 0.61023 0.19288 0.0
O173 O 0.09623 0.60044 0.17569 0.0
O174 O 0.11954 0.63046 0.19742 0.0
C175 C 0.0657 0.56917 0.12163 0.0
O176 O 0.08392 0.57081 0.13006 0.0
C177 C 0.15077 0.69021 0.20188 0.0
C178 C 0.13783 0.71238 0.20734 0.0
C179 C 0.15651 0.71111 0.21004 0.0
N180 N 0.12974 0.67984 0.19479 0.0
N181 N 0.12214 0.69318 0.19819 0.0
C182 C 0.16507 0.68056 0.19904 0.0
H183 H 0.15821 0.66724 0.18402 0.0
H184 H 0.18163 0.69308 0.19282 0.0
H185 H 0.16607 0.67373 0.21873 0.0
C186 C 0.10151 0.63588 0.10379 0.0
N187 N 0.09868 0.63311 0.13056 0.0
N188 N 0.11208 0.65127 0.14296 0.0
C189 C 0.12387 0.66635 0.12414 0.0
C190 C 0.11765 0.65696 0.09876 0.0
C191 C 0.08835 0.61878 0.08344 0.0
H192 H 0.07091 0.61136 0.08843 0.0
H193 H 0.09274 0.6059 0.08428 0.0
H194 H 0.09105 0.62542 0.06268 0.0
O195 O 0.05955 0.6143 0.17187 0.0
O196 O 0.08215 0.64301 0.19593 0.0
H197 H 0.13395 0.69719 0.1421 0.0
H198 H 0.14856 0.69842 0.11168 0.0
C199 C 0.14108 0.68906 0.13034 0.0
H200 H 0.15378 0.68875 0.1429 0.0
H201 H 0.10622 0.68919 0.19406 0.0
O202 O 0.0614 0.58393 0.12757 0.0
C203 C 0.06303 0.62836 0.18984 0.0
Co204 Co 0.92145 0.53171 0.3498 0.0
Co205 Co 0.88635 0.53828 0.32064 0.0
C206 C 0.88792 0.49801 0.3119 0.0
O207 O 0.90423 0.50517 0.32763 0.0
O208 O 0.87849 0.50889 0.3073 0.0
C209 C 0.93725 0.50952 0.38318 0.0
O210 O 0.91734 0.49313 0.3819 0.0
C211 C 0.84907 0.53791 0.29303 0.0
C212 C 0.85509 0.57039 0.30465 0.0
C213 C 0.84113 0.55208 0.2901 0.0
N214 N 0.86671 0.54741 0.30895 0.0
N215 N 0.87024 0.56684 0.31563 0.0
C216 C 0.84154 0.51677 0.27895 0.0
H217 H 0.85566 0.51524 0.27288 0.0
H218 H 0.83148 0.50334 0.29301 0.0
H219 H 0.83191 0.51535 0.26072 0.0
C220 C 0.90243 0.53991 0.39794 0.0
N221 N 0.90344 0.53783 0.37112 0.0
N222 N 0.88774 0.5394 0.35937 0.0
C223 C 0.87564 0.54166 0.37872 0.0
C224 C 0.88481 0.54241 0.40368 0.0
C225 C 0.91735 0.5382 0.41774 0.0
H226 H 0.93429 0.54767 0.41045 0.0
H227 H 0.91302 0.52099 0.41944 0.0
H228 H 0.91615 0.54401 0.43804 0.0
O229 O 0.93951 0.55626 0.32619 0.0
O230 O 0.91451 0.55931 0.30321 0.0
H231 H 0.85989 0.5596 0.36941 0.0
H232 H 0.84471 0.53711 0.39156 0.0
C233 C 0.85546 0.54261 0.37364 0.0
H234 H 0.84663 0.53242 0.35604 0.0
H235 H 0.88318 0.57779 0.32752 0.0
O236 O 0.94186 0.52725 0.37179 0.0
C237 C 0.93423 0.56512 0.30784 0.0
Co238 Co 0.3883 0.91826 0.34647 0.0
Co239 Co 0.3452 0.88741 0.31611 0.0
C240 C 0.38558 0.886 0.30504 0.0
O241 O 0.39594 0.90079 0.32243 0.0
O242 O 0.3656 0.87896 0.30014 0.0
C243 C 0.42843 0.93254 0.37471 0.0
O244 O 0.42711 0.91474 0.36517 0.0
C245 C 0.30631 0.84783 0.29695 0.0
C246 C 0.28417 0.86056 0.28976 0.0
C247 C 0.28549 0.84184 0.28826 0.0
N248 N 0.31662 0.86903 0.30315 0.0
N249 N 0.3033 0.87652 0.29876 0.0
C250 C 0.31598 0.83366 0.30108 0.0
H251 H 0.32913 0.8409 0.31631 0.0
H252 H 0.30343 0.81723 0.30768 0.0
H253 H 0.32305 0.83224 0.28179 0.0
C254 C 0.36084 0.89824 0.39385 0.0
N255 N 0.3637 0.90036 0.36703 0.0
N256 N 0.34543 0.88701 0.3548 0.0
C257 C 0.33028 0.87576 0.37378 0.0
C258 C 0.33962 0.88263 0.39907 0.0
C259 C 0.37834 0.91071 0.41403 0.0
H260 H 0.38524 0.92831 0.41047 0.0
H261 H 0.39151 0.9069 0.41123 0.0
H262 H 0.37229 0.90677 0.43504 0.0
O263 O 0.38352 0.93868 0.32471 0.0
O264 O 0.35383 0.91672 0.3017 0.0
H265 H 0.29976 0.86622 0.35523 0.0
H266 H 0.29782 0.85253 0.38673 0.0
C267 C 0.30734 0.85902 0.3679 0.0
H268 H 0.30707 0.84556 0.3564 0.0
H269 H 0.30726 0.89254 0.30204 0.0
O270 O 0.4133 0.93654 0.36983 0.0
C271 C 0.36923 0.93562 0.30724 0.0
Co272 Co 0.46726 0.38887 0.34843 0.0
Co273 Co 0.45648 0.34592 0.3187 0.0
C274 C 0.49834 0.38711 0.3091 0.0
O275 O 0.49354 0.39723 0.32642 0.0
O276 O 0.48548 0.36719 0.30367 0.0
C277 C 0.48963 0.42722 0.38212 0.0
O278 O 0.50642 0.42434 0.38084 0.0
C279 C 0.45719 0.30893 0.29195 0.0
C280 C 0.42407 0.28261 0.3014 0.0
C281 C 0.443 0.28687 0.28846 0.0
N282 N 0.4471 0.31712 0.30669 0.0
N283 N 0.4273 0.30131 0.31208 0.0
C284 C 0.47907 0.32246 0.27952 0.0
H285 H 0.48054 0.33762 0.27144 0.0
H286 H 0.49167 0.32685 0.29523 0.0
H287 H 0.48192 0.31385 0.26281 0.0
C288 C 0.45879 0.36143 0.39634 0.0
N289 N 0.46014 0.36434 0.36948 0.0
N290 N 0.45673 0.34644 0.35748 0.0
C291 C 0.45385 0.33174 0.37667 0.0
C292 C 0.45477 0.34073 0.40179 0.0
C293 C 0.46224 0.37853 0.41643 0.0
H294 H 0.47968 0.39092 0.41692 0.0
H295 H 0.45721 0.37174 0.437 0.0
H296 H 0.453 0.38652 0.41028 0.0
O297 O 0.44302 0.38358 0.32479 0.0
O298 O 0.43495 0.3532 0.30339 0.0
H299 H 0.45499 0.30338 0.38934 0.0
H300 H 0.461 0.31042 0.35405 0.0
C301 C 0.45081 0.30976 0.37131 0.0
H302 H 0.43359 0.29851 0.36627 0.0
H303 H 0.41593 0.30334 0.32299 0.0
O304 O 0.47207 0.41378 0.37063 0.0
C305 C 0.43165 0.3689 0.30781 0.0
Co306 Co 0.07657 0.46292 0.34857 0.0
Co307 Co 0.11272 0.45724 0.32082 0.0
C308 C 0.10976 0.49671 0.3107 0.0
O309 O 0.09342 0.4895 0.32637 0.0
O310 O 0.11946 0.48605 0.30648 0.0
C311 C 0.05947 0.48413 0.38147 0.0
O312 O 0.07934 0.50065 0.38103 0.0
C313 C 0.15309 0.46179 0.29774 0.0
C314 C 0.14859 0.42944 0.30687 0.0
C315 C 0.16284 0.44922 0.2954 0.0
N316 N 0.13393 0.44993 0.31021 0.0
N317 N 0.13129 0.43057 0.31536 0.0
C318 C 0.16222 0.48496 0.28974 0.0
H319 H 0.16016 0.49405 0.30653 0.0
H320 H 0.17964 0.49262 0.28446 0.0
H321 H 0.15308 0.48582 0.27213 0.0
C322 C 0.0957 0.45606 0.39765 0.0
N323 N 0.09484 0.45775 0.37073 0.0
N324 N 0.11095 0.45659 0.3595 0.0
C325 C 0.12315 0.45502 0.37928 0.0
C326 C 0.11367 0.4543 0.40399 0.0
C327 C 0.08029 0.45739 0.41697 0.0
H328 H 0.06351 0.44786 0.40919 0.0
H329 H 0.08445 0.47454 0.4189 0.0
H330 H 0.08114 0.45139 0.43728 0.0
O331 O 0.05952 0.43799 0.32504 0.0
O332 O 0.0851 0.435 0.30331 0.0
H333 H 0.13966 0.43797 0.36914 0.0
H334 H 0.15372 0.45924 0.39333 0.0
C335 C 0.14368 0.45462 0.37478 0.0
H336 H 0.15309 0.46578 0.35817 0.0
H337 H 0.11774 0.41821 0.32503 0.0
O338 O 0.0553 0.46666 0.36969 0.0
C339 C 0.06524 0.42891 0.30746 0.0
Co340 Co 0.61045 0.07894 0.35015 0.0
Co341 Co 0.65299 0.11325 0.32141 0.0
C342 C 0.61168 0.11268 0.31152 0.0
O343 O 0.60196 0.09645 0.32727 0.0
O344 O 0.63202 0.12161 0.30732 0.0
C345 C 0.57027 0.06268 0.37877 0.0
O346 O 0.57168 0.08108 0.37163 0.0
C347 C 0.6904 0.15038 0.29433 0.0
C348 C 0.71662 0.14415 0.30646 0.0
C349 C 0.71255 0.15827 0.29183 0.0
N350 N 0.68199 0.13265 0.31011 0.0
N351 N 0.69775 0.12899 0.31709 0.0
C352 C 0.67705 0.15808 0.27997 0.0
H353 H 0.66161 0.144 0.27318 0.0
H354 H 0.67319 0.16774 0.2941 0.0
H355 H 0.68564 0.1681 0.26215 0.0
C356 C 0.63694 0.09797 0.39853 0.0
N357 N 0.63443 0.09681 0.37162 0.0
N358 N 0.65216 0.11207 0.36013 0.0
C359 C 0.66635 0.12396 0.37975 0.0
C360 C 0.65724 0.11515 0.4046 0.0
C361 C 0.61968 0.08354 0.418 0.0
H362 H 0.61344 0.06637 0.41236 0.0
H363 H 0.60604 0.0868 0.41676 0.0
H364 H 0.62571 0.08621 0.43906 0.0
O365 O 0.61678 0.06039 0.32721 0.0
O366 O 0.64552 0.08476 0.30456 0.0
H367 H 0.70011 0.13869 0.37123 0.0
H368 H 0.69319 0.15441 0.39304 0.0
C369 C 0.68792 0.1437 0.37507 0.0
H370 H 0.68721 0.15277 0.35733 0.0
H371 H 0.69555 0.11598 0.32898 0.0
O372 O 0.5854 0.05902 0.37244 0.0
C373 C 0.63116 0.06519 0.30926 0.0
Co374 Co 0.53367 0.61198 0.34888 0.0
Co375 Co 0.54318 0.65488 0.32023 0.0
C376 C 0.50192 0.61383 0.31005 0.0
O377 O 0.50742 0.60377 0.32663 0.0
O378 O 0.51416 0.63395 0.30513 0.0
C379 C 0.51122 0.57334 0.38197 0.0
O380 O 0.49451 0.57637 0.38094 0.0
C381 C 0.54151 0.69331 0.30059 0.0
C382 C 0.57622 0.7181 0.30317 0.0
C383 C 0.55606 0.71517 0.29662 0.0
N384 N 0.55265 0.68382 0.30922 0.0
N385 N 0.57337 0.69871 0.31048 0.0
C386 C 0.51739 0.6819 0.29825 0.0
H387 H 0.5099 0.66899 0.31373 0.0
H388 H 0.5113 0.69341 0.30056 0.0
H389 H 0.5126 0.67419 0.27809 0.0
C390 C 0.54184 0.63876 0.39746 0.0
N391 N 0.54035 0.63606 0.37056 0.0
N392 N 0.54337 0.65395 0.35892 0.0
C393 C 0.54626 0.66845 0.37836 0.0
C394 C 0.54561 0.65934 0.40331 0.0
C395 C 0.53859 0.62152 0.4172 0.0
H396 H 0.54786 0.61364 0.41064 0.0
H397 H 0.52118 0.60906 0.41774 0.0
H398 H 0.5437 0.62809 0.43783 0.0
O399 O 0.55828 0.618 0.32541 0.0
O400 O 0.56432 0.64767 0.30366 0.0
H401 H 0.56554 0.70091 0.36431 0.0
H402 H 0.54812 0.69811 0.3922 0.0
C403 C 0.54932 0.69047 0.37327 0.0
H404 H 0.53695 0.68928 0.35875 0.0
H405 H 0.58554 0.69567 0.31687 0.0
O406 O 0.52879 0.58679 0.37051 0.0
C407 C 0.56866 0.63268 0.30805 0.0
Co408 Co 0.52872 0.91937 0.84876 0.0
Co409 Co 0.53895 0.88662 0.81983 0.0
C410 C 0.49864 0.8875 0.80693 0.0
O411 O 0.50415 0.90292 0.82371 0.0
O412 O 0.51043 0.87894 0.80304 0.0
C413 C 0.50283 0.93322 0.87724 0.0
O414 O 0.48655 0.91458 0.86935 0.0
C415 C 0.53732 0.84662 0.80018 0.0
C416 C 0.57197 0.85638 0.80277 0.0
C417 C 0.55178 0.83918 0.79626 0.0
N418 N 0.54855 0.86727 0.80872 0.0
N419 N 0.56925 0.87302 0.81 0.0
C420 C 0.51318 0.83396 0.79806 0.0
H421 H 0.50582 0.83978 0.81323 0.0
H422 H 0.50701 0.8164 0.80102 0.0
H423 H 0.50831 0.83645 0.77773 0.0
C424 C 0.53268 0.89787 0.89707 0.0
N425 N 0.53325 0.90042 0.87019 0.0
N426 N 0.53742 0.88635 0.85852 0.0
C427 C 0.53958 0.87423 0.87793 0.0
C428 C 0.5365 0.88109 0.90292 0.0
C429 C 0.52943 0.91191 0.91676 0.0
H430 H 0.51216 0.90755 0.91653 0.0
H431 H 0.53394 0.90997 0.93755 0.0
H432 H 0.53938 0.92913 0.91074 0.0
O433 O 0.55502 0.93891 0.82831 0.0
O434 O 0.56099 0.91566 0.80544 0.0
H435 H 0.56017 0.86247 0.86421 0.0
H436 H 0.54234 0.84685 0.89142 0.0
C437 C 0.54368 0.85594 0.87268 0.0
H438 H 0.53187 0.84477 0.85766 0.0
H439 H 0.58147 0.88821 0.81637 0.0
O440 O 0.52203 0.93808 0.87114 0.0
C441 C 0.56579 0.93498 0.81108 0.0
Co442 Co 0.60965 0.53112 0.84897 0.0
Co443 Co 0.65258 0.54133 0.81983 0.0
C444 C 0.61143 0.50084 0.80745 0.0
O445 O 0.60155 0.50639 0.82423 0.0
O446 O 0.63176 0.51266 0.80335 0.0
C447 C 0.56983 0.50557 0.87761 0.0
O448 O 0.57193 0.48911 0.86982 0.0
C449 C 0.69117 0.54025 0.79959 0.0
C450 C 0.71589 0.57491 0.80308 0.0
C451 C 0.71305 0.5549 0.79587 0.0
N452 N 0.6816 0.55119 0.80868 0.0
N453 N 0.69645 0.57189 0.8105 0.0
C454 C 0.67983 0.51616 0.7967 0.0
H455 H 0.66671 0.50842 0.81189 0.0
H456 H 0.69132 0.51006 0.79905 0.0
H457 H 0.6724 0.51166 0.77636 0.0
C458 C 0.63524 0.53523 0.89715 0.0
N459 N 0.63324 0.53591 0.8703 0.0
N460 N 0.65144 0.54001 0.85855 0.0
C461 C 0.66571 0.54203 0.8779 0.0
C462 C 0.6558 0.53893 0.90292 0.0
C463 C 0.6179 0.53167 0.91692 0.0
H464 H 0.61064 0.54171 0.91124 0.0
H465 H 0.60499 0.51441 0.91632 0.0
H466 H 0.6243 0.53587 0.93777 0.0
O467 O 0.61615 0.55714 0.8281 0.0
O468 O 0.64528 0.56304 0.80509 0.0
H469 H 0.69817 0.56239 0.8644 0.0
H470 H 0.69559 0.54412 0.89122 0.0
C471 C 0.68798 0.54583 0.87257 0.0
H472 H 0.68718 0.53411 0.85728 0.0
H473 H 0.69336 0.58392 0.81735 0.0
O474 O 0.58435 0.52467 0.87141 0.0
C475 C 0.63069 0.56776 0.81065 0.0
Co476 Co 0.08103 0.61207 0.85018 0.0
Co477 Co 0.11058 0.65606 0.82086 0.0
C478 C 0.11341 0.61634 0.80854 0.0
O479 O 0.09922 0.60548 0.82634 0.0
O480 O 0.11931 0.6361 0.80367 0.0
C481 C 0.06712 0.57156 0.87729 0.0
O482 O 0.085 0.57318 0.86751 0.0
C483 C 0.14992 0.69487 0.80124 0.0
C484 C 0.13885 0.71881 0.80057 0.0
C485 C 0.15666 0.71641 0.79565 0.0
N486 N 0.12908 0.68506 0.80909 0.0
N487 N 0.12256 0.69943 0.80849 0.0
C488 C 0.16333 0.68412 0.80118 0.0
H489 H 0.15748 0.67138 0.81695 0.0
H490 H 0.18067 0.69609 0.80467 0.0
H491 H 0.16169 0.67631 0.78131 0.0
C492 C 0.10005 0.63897 0.89822 0.0
N493 N 0.09819 0.63651 0.87133 0.0
N494 N 0.1112 0.6551 0.85953 0.0
C495 C 0.12205 0.67005 0.87888 0.0
C496 C 0.11517 0.66028 0.90396 0.0
C497 C 0.08794 0.62096 0.91792 0.0
H498 H 0.07028 0.61405 0.91485 0.0
H499 H 0.09179 0.60794 0.91409 0.0
H500 H 0.09214 0.62648 0.9391 0.0
O501 O 0.06046 0.6164 0.82818 0.0
O502 O 0.08099 0.64758 0.80722 0.0
H503 H 0.13009 0.70114 0.8635 0.0
H504 H 0.14588 0.7021 0.89249 0.0
C505 C 0.13826 0.69327 0.87355 0.0
H506 H 0.15096 0.69425 0.85977 0.0
H507 H 0.10704 0.69607 0.81389 0.0
O508 O 0.06294 0.58663 0.87296 0.0
C509 C 0.06251 0.63109 0.81192 0.0
Co510 Co 0.4639 0.07648 0.84817 0.0
Co511 Co 0.45641 0.11089 0.81863 0.0
C512 C 0.4965 0.10887 0.80873 0.0
O513 O 0.48995 0.09308 0.82516 0.0
O514 O 0.48528 0.11791 0.80401 0.0
C515 C 0.4875 0.06088 0.87818 0.0
O516 O 0.50432 0.07958 0.87157 0.0
C517 C 0.46119 0.15163 0.79691 0.0
C518 C 0.42755 0.14515 0.80028 0.0
C519 C 0.44821 0.16072 0.79253 0.0
N520 N 0.44871 0.13157 0.80689 0.0
N521 N 0.42862 0.12778 0.80866 0.0
C522 C 0.4852 0.16223 0.7936 0.0
H523 H 0.49225 0.15788 0.81079 0.0
H524 H 0.4928 0.18011 0.79238 0.0
H525 H 0.48883 0.15616 0.77485 0.0
C526 C 0.45724 0.09657 0.89609 0.0
N527 N 0.45853 0.09505 0.86923 0.0
N528 N 0.45613 0.1102 0.85734 0.0
C529 C 0.45376 0.12229 0.87661 0.0
C530 C 0.45412 0.11383 0.9017 0.0
C531 C 0.4601 0.08238 0.91594 0.0
H532 H 0.44907 0.06514 0.9107 0.0
H533 H 0.47697 0.08557 0.91471 0.0
H534 H 0.4569 0.08537 0.93693 0.0
O535 O 0.43874 0.05814 0.82541 0.0
O536 O 0.43443 0.08246 0.80246 0.0
H537 H 0.43487 0.136 0.86291 0.0
H538 H 0.45322 0.1509 0.88991 0.0
C539 C 0.45125 0.14155 0.87121 0.0
H540 H 0.46337 0.15216 0.85607 0.0
H541 H 0.41568 0.11341 0.81602 0.0
O542 O 0.4687 0.05663 0.87094 0.0
C543 C 0.42903 0.06287 0.80753 0.0
Co544 Co 0.38713 0.4653 0.84898 0.0
Co545 Co 0.34429 0.45549 0.81998 0.0
C546 C 0.38565 0.49581 0.80761 0.0
O547 O 0.39547 0.49013 0.82431 0.0
O548 O 0.36531 0.4841 0.80356 0.0
C549 C 0.42696 0.49049 0.87769 0.0
O550 O 0.42496 0.50706 0.87011 0.0
C551 C 0.30611 0.45734 0.79994 0.0
C552 C 0.28101 0.42277 0.80289 0.0
C553 C 0.28419 0.44297 0.796 0.0
N554 N 0.31538 0.44606 0.80884 0.0
N555 N 0.3003 0.42542 0.81034 0.0
C556 C 0.31777 0.48147 0.79744 0.0
H557 H 0.33084 0.4889 0.81274 0.0
H558 H 0.30647 0.48779 0.79994 0.0
H559 H 0.3253 0.48609 0.77716 0.0
C560 C 0.36173 0.46164 0.89723 0.0
N561 N 0.36364 0.46078 0.87038 0.0
N562 N 0.34547 0.45682 0.85868 0.0
C563 C 0.33132 0.4551 0.87804 0.0
C564 C 0.34128 0.45823 0.90302 0.0
C565 C 0.37911 0.46529 0.91698 0.0
H566 H 0.3921 0.48251 0.91611 0.0
H567 H 0.37278 0.46137 0.93789 0.0
H568 H 0.38623 0.4551 0.91152 0.0
O569 O 0.3803 0.43918 0.82813 0.0
O570 O 0.35119 0.43348 0.80524 0.0
H571 H 0.29887 0.4352 0.86424 0.0
H572 H 0.30155 0.4532 0.89146 0.0
C573 C 0.30917 0.45163 0.87273 0.0
H574 H 0.31019 0.46359 0.85769 0.0
H575 H 0.30314 0.41318 0.81698 0.0
O576 O 0.41237 0.47146 0.87136 0.0
C577 C 0.36566 0.42858 0.81078 0.0
Co578 Co 0.92109 0.38944 0.84931 0.0
Co579 Co 0.88694 0.34679 0.82072 0.0
C580 C 0.88812 0.38851 0.81014 0.0
O581 O 0.9041 0.39824 0.82621 0.0
O582 O 0.87934 0.36819 0.80587 0.0
C583 C 0.93747 0.42946 0.87829 0.0
O584 O 0.91896 0.42802 0.87162 0.0
C585 C 0.8466 0.31016 0.79893 0.0
C586 C 0.85321 0.28324 0.80438 0.0
C587 C 0.83771 0.28801 0.79536 0.0
N588 N 0.86647 0.31808 0.80963 0.0
N589 N 0.87035 0.30192 0.81265 0.0
C590 C 0.83594 0.32336 0.79412 0.0
H591 H 0.8396 0.33484 0.81106 0.0
H592 H 0.81813 0.31295 0.79203 0.0
H593 H 0.8426 0.33295 0.7754 0.0
C594 C 0.90045 0.36389 0.89786 0.0
N595 N 0.90259 0.36586 0.87094 0.0
N596 N 0.88789 0.34782 0.85943 0.0
C597 C 0.87572 0.33375 0.87899 0.0
C598 C 0.88329 0.34356 0.90391 0.0
C599 C 0.91484 0.38114 0.91738 0.0
H600 H 0.93198 0.3881 0.91115 0.0
H601 H 0.91081 0.39427 0.9172 0.0
H602 H 0.91293 0.37472 0.93819 0.0
O603 O 0.93942 0.38248 0.82668 0.0
O604 O 0.91529 0.35344 0.80422 0.0
H605 H 0.86197 0.30073 0.867 0.0
H606 H 0.84667 0.30518 0.89261 0.0
C607 C 0.85642 0.31191 0.87401 0.0
H608 H 0.84617 0.31306 0.85804 0.0
H609 H 0.88463 0.30362 0.82075 0.0
O610 O 0.94119 0.41448 0.87141 0.0
C611 C 0.93481 0.3679 0.80904 0.0
Co612 Co 0.08028 0.47149 0.65432 0.0
Co613 Co 0.11304 0.46087 0.68278 0.0
C614 C 0.11327 0.502 0.69449 0.0
O615 O 0.09778 0.49685 0.67795 0.0
O616 O 0.12115 0.48968 0.69879 0.0
C617 C 0.06503 0.49643 0.62586 0.0
O618 O 0.08324 0.5133 0.63377 0.0
C619 C 0.15003 0.45991 0.70926 0.0
C620 C 0.14345 0.42746 0.69654 0.0
C621 C 0.15777 0.4455 0.71125 0.0
N622 N 0.13217 0.45081 0.69369 0.0
N623 N 0.12831 0.4314 0.68634 0.0
C624 C 0.15809 0.48096 0.72378 0.0
H625 H 0.14421 0.48238 0.73124 0.0
H626 H 0.16748 0.49448 0.70954 0.0
H627 H 0.16847 0.48235 0.74118 0.0
C628 C 0.10059 0.46638 0.60572 0.0
N629 N 0.0984 0.46593 0.63264 0.0
N630 N 0.1128 0.46207 0.644 0.0
C631 C 0.12495 0.46028 0.62429 0.0
C632 C 0.11758 0.46299 0.59947 0.0
C633 C 0.08619 0.46939 0.58637 0.0
H634 H 0.06908 0.45946 0.59283 0.0
H635 H 0.09052 0.48665 0.58643 0.0
H636 H 0.08777 0.46466 0.56556 0.0
O637 O 0.06096 0.44597 0.67615 0.0
O638 O 0.08415 0.43938 0.6981 0.0
H639 H 0.13849 0.4401 0.63223 0.0
H640 H 0.15515 0.46311 0.6113 0.0
C641 C 0.14413 0.45751 0.62899 0.0
H642 H 0.15311 0.46667 0.64714 0.0
H643 H 0.11521 0.42076 0.67441 0.0
O644 O 0.06107 0.47753 0.63207 0.0
C645 C 0.06489 0.43512 0.69323 0.0
Co646 Co 0.61145 0.0766 0.65586 0.0
Co647 Co 0.65358 0.11233 0.68361 0.0
C648 C 0.61116 0.10941 0.69441 0.0
O649 O 0.6019 0.09323 0.67852 0.0
O650 O 0.63154 0.11898 0.69859 0.0
C651 C 0.57309 0.05961 0.62292 0.0
O652 O 0.57636 0.07945 0.62337 0.0
C653 C 0.68968 0.153 0.70586 0.0
C654 C 0.71737 0.14811 0.69729 0.0
C655 C 0.71201 0.16269 0.70817 0.0
N656 N 0.68221 0.13357 0.69403 0.0
N657 N 0.69884 0.13072 0.68917 0.0
C658 C 0.67579 0.16249 0.71304 0.0
H659 H 0.66421 0.15953 0.69643 0.0
H660 H 0.68565 0.18015 0.71687 0.0
H661 H 0.66627 0.15431 0.73136 0.0
C662 C 0.63646 0.09705 0.60665 0.0
N663 N 0.63457 0.09527 0.63363 0.0
N664 N 0.6522 0.11091 0.64487 0.0
C665 C 0.66574 0.12347 0.62508 0.0
C666 C 0.65612 0.11505 0.60032 0.0
C667 C 0.6199 0.08162 0.58717 0.0
H668 H 0.61238 0.06485 0.59504 0.0
H669 H 0.60714 0.086 0.58446 0.0
H670 H 0.62726 0.08233 0.5672 0.0
O671 O 0.61948 0.05936 0.67883 0.0
O672 O 0.64821 0.08455 0.7007 0.0
H673 H 0.69928 0.13986 0.63531 0.0
H674 H 0.6921 0.15407 0.61117 0.0
C675 C 0.6867 0.14394 0.62965 0.0
H676 H 0.68495 0.15328 0.64636 0.0
H677 H 0.69754 0.11697 0.67993 0.0
O678 O 0.58635 0.05546 0.63482 0.0
C679 C 0.6343 0.06477 0.69631 0.0
Co680 Co 0.53151 0.61041 0.65338 0.0
Co681 Co 0.53822 0.65238 0.68185 0.0
C682 C 0.49825 0.6103 0.69173 0.0
O683 O 0.50535 0.60109 0.67605 0.0
O684 O 0.50905 0.63068 0.69602 0.0
C685 C 0.50934 0.57235 0.62012 0.0
O686 O 0.49301 0.57598 0.62107 0.0
C687 C 0.53745 0.68936 0.70882 0.0
C688 C 0.56948 0.71607 0.69618 0.0
C689 C 0.55131 0.71161 0.71111 0.0
N690 N 0.547 0.68126 0.69291 0.0
N691 N 0.56615 0.69732 0.6856 0.0
C692 C 0.51658 0.67569 0.72341 0.0
H693 H 0.51549 0.66031 0.72991 0.0
H694 H 0.50289 0.67174 0.70953 0.0
H695 H 0.51517 0.68413 0.74141 0.0
C696 C 0.53707 0.63614 0.60464 0.0
N697 N 0.53652 0.63392 0.63158 0.0
N698 N 0.5386 0.6515 0.64305 0.0
C699 C 0.54003 0.66534 0.62342 0.0
C700 C 0.53911 0.656 0.59854 0.0
C701 C 0.53605 0.61972 0.585 0.0
H702 H 0.54507 0.612 0.59297 0.0
H703 H 0.5189 0.60707 0.58193 0.0
H704 H 0.543 0.62725 0.5652 0.0
O705 O 0.55667 0.61769 0.67623 0.0
O706 O 0.55991 0.64596 0.6989 0.0
H707 H 0.55755 0.69924 0.63165 0.0
H708 H 0.53438 0.69093 0.61028 0.0
C709 C 0.54057 0.68632 0.62812 0.0
H710 H 0.53075 0.68509 0.64607 0.0
H711 H 0.57707 0.69541 0.67353 0.0
O712 O 0.52696 0.58535 0.63184 0.0
C713 C 0.56583 0.63214 0.6942 0.0
Co714 Co 0.91902 0.53065 0.65304 0.0
Co715 Co 0.88642 0.54118 0.68209 0.0
C716 C 0.88629 0.4999 0.69314 0.0
O717 O 0.90176 0.50532 0.67649 0.0
O718 O 0.87829 0.51211 0.69761 0.0
C719 C 0.9343 0.50595 0.62411 0.0
O720 O 0.91599 0.48906 0.63172 0.0
C721 C 0.84918 0.54142 0.70887 0.0
C722 C 0.85549 0.57396 0.69705 0.0
C723 C 0.84121 0.55561 0.71133 0.0
N724 N 0.86712 0.55092 0.69346 0.0
N725 N 0.87082 0.57039 0.68664 0.0
C726 C 0.84126 0.52017 0.72285 0.0
H727 H 0.85523 0.51905 0.73064 0.0
H728 H 0.83246 0.50685 0.70816 0.0
H729 H 0.83042 0.51818 0.73997 0.0
C730 C 0.89839 0.5358 0.60483 0.0
N731 N 0.90083 0.53635 0.63171 0.0
N732 N 0.88651 0.54021 0.6433 0.0
C733 C 0.87418 0.54193 0.62378 0.0
C734 C 0.88135 0.53915 0.59885 0.0
C735 C 0.9124 0.53241 0.58524 0.0
H736 H 0.92963 0.5424 0.59121 0.0
H737 H 0.90803 0.51514 0.58565 0.0
H738 H 0.91045 0.5368 0.5644 0.0
O739 O 0.93822 0.55572 0.67529 0.0
O740 O 0.91544 0.56281 0.69728 0.0
H741 H 0.86064 0.56199 0.63253 0.0
H742 H 0.84401 0.53933 0.61106 0.0
C743 C 0.85499 0.54464 0.62878 0.0
H744 H 0.84598 0.53519 0.64676 0.0
H745 H 0.88393 0.58129 0.67493 0.0
O746 O 0.93827 0.52481 0.63056 0.0
C747 C 0.93463 0.56675 0.69248 0.0
Co748 Co 0.38731 0.92092 0.64983 0.0
Co749 Co 0.34474 0.88624 0.6779 0.0
C750 C 0.38638 0.88758 0.68874 0.0
O751 O 0.39599 0.90381 0.67299 0.0
O752 O 0.36598 0.87835 0.69273 0.0
C753 C 0.4261 0.93676 0.61773 0.0
O754 O 0.42261 0.91686 0.61903 0.0
C755 C 0.30723 0.84945 0.70557 0.0
C756 C 0.28081 0.85448 0.69086 0.0
C757 C 0.28496 0.84123 0.70719 0.0
N758 N 0.31563 0.86654 0.68868 0.0
N759 N 0.29974 0.86947 0.68016 0.0
C760 C 0.32063 0.84277 0.72171 0.0
H761 H 0.33619 0.85721 0.72735 0.0
H762 H 0.32421 0.83201 0.70926 0.0
H763 H 0.31211 0.83409 0.74034 0.0
C764 C 0.36203 0.90077 0.60079 0.0
N765 N 0.36391 0.90259 0.62776 0.0
N766 N 0.34607 0.88732 0.63904 0.0
C767 C 0.33239 0.87492 0.61925 0.0
C768 C 0.34211 0.88313 0.59447 0.0
C769 C 0.37892 0.91584 0.58135 0.0
H770 H 0.38666 0.93268 0.58902 0.0
H771 H 0.39149 0.91113 0.57916 0.0
H772 H 0.37183 0.91515 0.5612 0.0
O773 O 0.38019 0.93917 0.67216 0.0
O774 O 0.35146 0.9146 0.69457 0.0
H775 H 0.29832 0.85877 0.62621 0.0
H776 H 0.30702 0.84354 0.6062 0.0
C777 C 0.31126 0.8546 0.62374 0.0
H778 H 0.31202 0.84623 0.64219 0.0
H779 H 0.30189 0.88194 0.66723 0.0
O780 O 0.41275 0.94126 0.62868 0.0
C781 C 0.3656 0.93424 0.68984 0.0
Co782 Co 0.46394 0.38722 0.65343 0.0
Co783 Co 0.45827 0.34524 0.68065 0.0
C784 C 0.49761 0.38782 0.69128 0.0
O785 O 0.49035 0.39698 0.67577 0.0
O786 O 0.48703 0.36741 0.6953 0.0
C787 C 0.485 0.42553 0.62059 0.0
O788 O 0.5015 0.42216 0.62076 0.0
C789 C 0.46322 0.3094 0.70295 0.0
C790 C 0.43096 0.28145 0.69368 0.0
C791 C 0.45081 0.28703 0.70499 0.0
N792 N 0.45121 0.31668 0.69083 0.0
N793 N 0.43191 0.2999 0.68556 0.0
C794 C 0.48643 0.32352 0.71077 0.0
H795 H 0.4953 0.33502 0.69417 0.0
H796 H 0.4943 0.31385 0.71532 0.0
H797 H 0.48731 0.33314 0.7288 0.0
C798 C 0.45909 0.36239 0.60393 0.0
N799 N 0.45953 0.36424 0.63093 0.0
N800 N 0.45788 0.34669 0.64194 0.0
C801 C 0.45681 0.33324 0.62198 0.0
C802 C 0.45757 0.34283 0.59733 0.0
C803 C 0.45969 0.37884 0.58468 0.0
H804 H 0.47675 0.39172 0.58156 0.0
H805 H 0.45273 0.37141 0.56485 0.0
H806 H 0.45046 0.38622 0.59301 0.0
O807 O 0.43872 0.37885 0.67666 0.0
O808 O 0.43577 0.35024 0.6982 0.0
H809 H 0.44007 0.29957 0.63151 0.0
H810 H 0.46176 0.30742 0.60767 0.0
C811 C 0.4567 0.31243 0.62622 0.0
H812 H 0.46771 0.31417 0.64301 0.0
H813 H 0.41947 0.30104 0.67607 0.0
O814 O 0.46764 0.41231 0.63264 0.0
C815 C 0.42958 0.36393 0.69409 0.0
H816 H 0.46531 0.02923 0.09792 0.0
H817 H 0.53159 0.06209 0.12568 0.0
H818 H 0.46804 0.99737 0.08689 0.0
H819 H 0.53411 0.0301 0.11581 0.0
H820 H 0.53712 0.97197 0.09676 0.0
H821 H 0.53445 0.00402 0.08674 0.0
H822 H 0.46818 0.97074 0.11497 0.0
H823 H 0.47065 0.93861 0.12384 0.0
C824 C 0.48056 0.02974 0.1013 0.0
C825 C 0.49812 0.04797 0.11312 0.0
C826 C 0.4821 0.01146 0.09509 0.0
C827 C 0.50113 0.01095 0.10094 0.0
C828 C 0.51923 0.02988 0.11078 0.0
C829 C 0.51777 0.04825 0.11664 0.0
C830 C 0.52183 0.97139 0.10017 0.0
C831 C 0.50421 0.95296 0.11157 0.0
C832 C 0.52033 0.98978 0.09456 0.0
C833 C 0.50127 0.99018 0.10057 0.0
C834 C 0.4831 0.97106 0.10987 0.0
C835 C 0.48453 0.9526 0.11515 0.0
H836 H 0.53 0.46952 0.1264 0.0
H837 H 0.56533 0.53582 0.09879 0.0
H838 H 0.49607 0.46827 0.11641 0.0
H839 H 0.53131 0.53437 0.08785 0.0
H840 H 0.47085 0.53345 0.12598 0.0
H841 H 0.50497 0.53491 0.11679 0.0
H842 H 0.47037 0.46922 0.08669 0.0
H843 H 0.43613 0.46756 0.09683 0.0
C844 C 0.53053 0.48362 0.1174 0.0
C845 C 0.55027 0.50291 0.11396 0.0
C846 C 0.51104 0.48288 0.11147 0.0
C847 C 0.51093 0.50137 0.10172 0.0
C848 C 0.53081 0.52003 0.09594 0.0
C849 C 0.55029 0.52082 0.10212 0.0
C850 C 0.47051 0.51951 0.11679 0.0
C851 C 0.45085 0.50024 0.11271 0.0
C852 C 0.49012 0.52036 0.11134 0.0
C853 C 0.49043 0.50202 0.10142 0.0
C854 C 0.47069 0.48345 0.09493 0.0
C855 C 0.45108 0.48253 0.10064 0.0
H856 H 0.02949 0.56251 0.09478 0.0
H857 H 0.06285 0.52962 0.12261 0.0
H858 H 0.99756 0.52773 0.08467 0.0
H859 H 0.03081 0.49494 0.11361 0.0
H860 H 0.9723 0.43345 0.0972 0.0
H861 H 0.0041 0.46794 0.08564 0.0
H862 H 0.97155 0.50157 0.11413 0.0
H863 H 0.93963 0.46717 0.12458 0.0
C864 C 0.03011 0.54784 0.0983 0.0
C865 C 0.04849 0.54873 0.10999 0.0
C866 C 0.01179 0.52791 0.09263 0.0
C867 C 0.01139 0.50849 0.09887 0.0
C868 C 0.03049 0.50951 0.10835 0.0
C869 C 0.0489 0.52944 0.11369 0.0
C870 C 0.97181 0.44823 0.10036 0.0
C871 C 0.95367 0.44768 0.11228 0.0
C872 C 0.99006 0.46799 0.09384 0.0
C873 C 0.99061 0.48759 0.09943 0.0
C874 C 0.97174 0.48685 0.10931 0.0
C875 C 0.95341 0.46709 0.11551 0.0
H876 H 0.06193 0.51865 0.40891 0.0
H877 H 0.01632 0.45495 0.37874 0.0
H878 H 0.03199 0.52463 0.42004 0.0
H879 H 0.9867 0.4612 0.38863 0.0
H880 H 0.93417 0.47356 0.4075 0.0
H881 H 0.96388 0.46698 0.41761 0.0
H882 H 0.00981 0.53221 0.39229 0.0
H883 H 0.98039 0.53898 0.38343 0.0
C884 C 0.04552 0.50583 0.40497 0.0
C885 C 0.04152 0.48652 0.39243 0.0
C886 C 0.02836 0.50927 0.41124 0.0
C887 C 0.00692 0.49357 0.40481 0.0
C888 C 0.00291 0.47363 0.39414 0.0
C889 C 0.02 0.47011 0.38817 0.0
C890 C 0.95065 0.48662 0.40474 0.0
C891 C 0.95491 0.50662 0.39409 0.0
C892 C 0.96768 0.48284 0.41041 0.0
C893 C 0.98926 0.49891 0.40528 0.0
C894 C 0.99348 0.51945 0.39672 0.0
C895 C 0.97652 0.52329 0.39133 0.0
H896 H 0.43473 0.96798 0.40321 0.0
H897 H 0.4682 0.93591 0.37285 0.0
H898 H 0.46933 0.99968 0.41464 0.0
H899 H 0.50269 0.96775 0.38316 0.0
H900 H 0.56388 0.02561 0.4031 0.0
H901 H 0.52923 0.99327 0.41255 0.0
H902 H 0.49597 0.02695 0.38699 0.0
H903 H 0.53051 0.05936 0.37869 0.0
C904 C 0.44948 0.96759 0.39936 0.0
C905 C 0.4488 0.94965 0.38666 0.0
C906 C 0.46931 0.98579 0.40579 0.0
C907 C 0.48886 0.9865 0.39934 0.0
C908 C 0.48803 0.96781 0.38865 0.0
C909 C 0.4682 0.94952 0.38254 0.0
C910 C 0.54913 0.02621 0.40015 0.0
C911 C 0.54985 0.04486 0.38968 0.0
C912 C 0.52928 0.00765 0.40544 0.0
C913 C 0.50976 0.00731 0.40002 0.0
C914 C 0.51062 0.02658 0.39163 0.0
C915 C 0.53047 0.0452 0.38667 0.0
H916 H 0.52458 0.46028 0.40792 0.0
H917 H 0.4594 0.43987 0.3815 0.0
H918 H 0.52986 0.49599 0.41878 0.0
H919 H 0.46494 0.4755 0.39097 0.0
H920 H 0.47622 0.5403 0.40772 0.0
H921 H 0.47089 0.5046 0.41869 0.0
H922 H 0.53576 0.52493 0.39081 0.0
H923 H 0.54134 0.56056 0.38121 0.0
C924 C 0.5113 0.46331 0.40476 0.0
C925 C 0.49176 0.44741 0.39328 0.0
C926 C 0.51434 0.4838 0.41086 0.0
C927 C 0.498 0.48884 0.40526 0.0
C928 C 0.47788 0.47231 0.39581 0.0
C929 C 0.47477 0.45182 0.39005 0.0
C930 C 0.48948 0.53723 0.40456 0.0
C931 C 0.50901 0.55309 0.39303 0.0
C932 C 0.48641 0.51675 0.41073 0.0
C933 C 0.50273 0.51167 0.40517 0.0
C934 C 0.52284 0.52816 0.39562 0.0
C935 C 0.52598 0.54864 0.38979 0.0
H936 H 0.5245 0.05866 0.8794 0.0
H937 H 0.45715 0.02379 0.90278 0.0
H938 H 0.52745 0.02688 0.88877 0.0
H939 H 0.46028 0.99209 0.91343 0.0
H940 H 0.46578 0.93532 0.87517 0.0
H941 H 0.46211 0.96663 0.88505 0.0
H942 H 0.52738 0.00022 0.91666 0.0
H943 H 0.53131 0.96907 0.9055 0.0
C944 C 0.5105 0.0444 0.88742 0.0
C945 C 0.49048 0.04352 0.88978 0.0
C946 C 0.5122 0.02613 0.893 0.0
C947 C 0.49397 0.00671 0.90144 0.0
C948 C 0.47448 0.00658 0.90628 0.0
C949 C 0.47271 0.02476 0.90031 0.0
C950 C 0.47915 0.94919 0.88482 0.0
C951 C 0.49898 0.94997 0.88901 0.0
C952 C 0.47703 0.96717 0.89068 0.0
C953 C 0.49461 0.98618 0.90124 0.0
C954 C 0.51373 0.98608 0.90787 0.0
C955 C 0.51595 0.96821 0.9016 0.0
H956 H 0.43388 0.46095 0.90408 0.0
H957 H 0.46626 0.5275 0.87732 0.0
H958 H 0.46877 0.46431 0.91488 0.0
H959 H 0.50106 0.53065 0.88695 0.0
H960 H 0.56278 0.53476 0.90465 0.0
H961 H 0.52783 0.53125 0.9155 0.0
H962 H 0.4957 0.46525 0.88632 0.0
H963 H 0.53056 0.46854 0.87665 0.0
C964 C 0.44846 0.4764 0.9009 0.0
C965 C 0.44742 0.49385 0.88937 0.0
C966 C 0.46845 0.4783 0.90697 0.0
C967 C 0.48778 0.49759 0.90128 0.0
C968 C 0.48656 0.51557 0.89184 0.0
C969 C 0.46656 0.51375 0.88611 0.0
C970 C 0.54822 0.51935 0.90121 0.0
C971 C 0.54932 0.50205 0.88932 0.0
C972 C 0.52819 0.51736 0.90731 0.0
C973 C 0.50889 0.49814 0.90127 0.0
C974 C 0.51017 0.48027 0.89147 0.0
C975 C 0.5302 0.48218 0.88573 0.0
H976 H 0.94066 0.46917 0.87948 0.0
H977 H 0.97452 0.43554 0.90227 0.0
H978 H 0.97298 0.5036 0.88862 0.0
H979 H 0.00676 0.47005 0.91254 0.0
H980 H 0.06402 0.53195 0.87406 0.0
H981 H 0.03228 0.49719 0.88367 0.0
H982 H 0.0001 0.5297 0.91703 0.0
H983 H 0.0317 0.56459 0.90633 0.0
C984 C 0.95482 0.46911 0.88728 0.0
C985 C 0.95523 0.44972 0.88959 0.0
C986 C 0.97338 0.4889 0.89272 0.0
C987 C 0.99266 0.48966 0.90092 0.0
C988 C 0.99238 0.47008 0.90561 0.0
C989 C 0.97388 0.45031 0.89984 0.0
C990 C 0.05038 0.53169 0.88403 0.0
C991 C 0.05014 0.55095 0.88888 0.0
C992 C 0.03215 0.51171 0.88973 0.0
C993 C 0.01342 0.5106 0.90072 0.0
C994 C 0.01403 0.52997 0.90793 0.0
C995 C 0.03217 0.54995 0.90192 0.0
H996 H 0.9702 0.53616 0.59745 0.0
H997 H 0.93803 0.46975 0.62469 0.0
H998 H 0.00253 0.53414 0.58694 0.0
H999 H 0.97046 0.46792 0.6153 0.0
H1000 H 0.02954 0.46636 0.59842 0.0
H1001 H 0.99739 0.46843 0.58699 0.0
H1002 H 0.02887 0.53441 0.61614 0.0
H1003 H 0.06116 0.53255 0.62645 0.0
C1004 C 0.96994 0.52102 0.60077 0.0
C1005 C 0.95179 0.50324 0.6124 0.0
C1006 C 0.98848 0.51989 0.59486 0.0
C1007 C 0.98931 0.50105 0.60081 0.0
C1008 C 0.97044 0.48268 0.61025 0.0
C1009 C 0.95181 0.48373 0.61583 0.0
C1010 C 0.02972 0.48147 0.60174 0.0
C1011 C 0.04766 0.49917 0.61382 0.0
C1012 C 0.01128 0.48262 0.5953 0.0
C1013 C 0.01032 0.50141 0.60115 0.0
C1014 C 0.02901 0.51971 0.61113 0.0
C1015 C 0.04754 0.51863 0.61724 0.0
H1016 H 0.55936 0.01653 0.62543 0.0
H1017 H 0.54136 0.062 0.59457 0.0
H1018 H 0.52382 0.9868 0.61449 0.0
H1019 H 0.50579 0.03195 0.58235 0.0
H1020 H 0.43942 0.97979 0.6173 0.0
H1021 H 0.4756 0.00942 0.60915 0.0
H1022 H 0.49583 0.96398 0.58491 0.0
H1023 H 0.45951 0.93402 0.59438 0.0
C1024 C 0.54797 0.02016 0.61563 0.0
C1025 C 0.55298 0.04166 0.61149 0.0
C1026 C 0.52757 0.00301 0.60904 0.0
C1027 C 0.51174 0.00692 0.59785 0.0
C1028 C 0.51743 0.02838 0.59154 0.0
C1029 C 0.53782 0.0456 0.59845 0.0
C1030 C 0.45145 0.97606 0.60979 0.0
C1031 C 0.44675 0.95452 0.60719 0.0
C1032 C 0.47225 0.99316 0.6048 0.0
C1033 C 0.48882 0.98914 0.59678 0.0
C1034 C 0.48358 0.96763 0.59172 0.0
C1035 C 0.46275 0.95046 0.59702 0.0
H1036 H 0.45555 0.43914 0.62302 0.0
H1037 H 0.51939 0.45763 0.59301 0.0
H1038 H 0.46154 0.47489 0.613 0.0
H1039 H 0.52511 0.49343 0.58174 0.0
H1040 H 0.53895 0.55891 0.61957 0.0
H1041 H 0.53244 0.52294 0.60993 0.0
H1042 H 0.46731 0.50362 0.58421 0.0
H1043 H 0.4736 0.53969 0.59512 0.0
C1044 C 0.47069 0.45069 0.61359 0.0
C1045 C 0.48723 0.44575 0.60947 0.0
C1046 C 0.47405 0.47121 0.60752 0.0
C1047 C 0.49396 0.48723 0.5969 0.0
C1048 C 0.50977 0.48163 0.5905 0.0
C1049 C 0.50648 0.46111 0.59687 0.0
C1050 C 0.52333 0.54714 0.61143 0.0
C1051 C 0.50659 0.55197 0.60882 0.0
C1052 C 0.51966 0.52647 0.60556 0.0
C1053 C 0.49921 0.51019 0.59668 0.0
C1054 C 0.48309 0.51564 0.59165 0.0
C1055 C 0.48671 0.53632 0.5978 0.0
H1056 H 0.41284 0.25312 0.25952 0.0
H1057 H 0.47947 0.28297 0.28533 0.0
H1058 H 0.41615 0.22458 0.2374 0.0
H1059 H 0.48326 0.25494 0.26176 0.0
H1060 H 0.47017 0.18467 0.2465 0.0
H1061 H 0.47154 0.21697 0.26551 0.0
H1062 H 0.43194 0.21736 0.19975 0.0
H1063 H 0.43004 0.18476 0.1815 0.0
C1064 C 0.42834 0.25378 0.26004 0.0
C1065 C 0.44602 0.27057 0.27363 0.0
C1066 C 0.43033 0.23752 0.2471 0.0
C1067 C 0.45009 0.2376 0.24741 0.0
C1068 C 0.46783 0.2544 0.26109 0.0
C1069 C 0.46577 0.27068 0.2742 0.0
C1070 C 0.46218 0.19199 0.23589 0.0
C1071 C 0.45 0.1823 0.21258 0.0
C1072 C 0.46295 0.21049 0.24674 0.0
C1073 C 0.45163 0.21964 0.23434 0.0
C1074 C 0.44041 0.21047 0.2102 0.0
C1075 C 0.43942 0.19188 0.19963 0.0
H1076 H 0.24662 0.43376 0.18917 0.0
H1077 H 0.29172 0.47339 0.25094 0.0
H1078 H 0.21841 0.43888 0.21005 0.0
H1079 H 0.26336 0.47826 0.2721 0.0
H1080 H 0.19438 0.44346 0.31703 0.0
H1081 H 0.22692 0.44789 0.29463 0.0
H1082 H 0.21 0.47023 0.22275 0.0
H1083 H 0.17757 0.46618 0.24546 0.0
C1084 C 0.25054 0.44383 0.20698 0.0
C1085 C 0.2713 0.45331 0.21839 0.0
C1086 C 0.23449 0.44687 0.21879 0.0
C1087 C 0.23881 0.45903 0.24257 0.0
C1088 C 0.25972 0.4689 0.25369 0.0
C1089 C 0.27591 0.46621 0.24154 0.0
C1090 C 0.19792 0.44976 0.29665 0.0
C1091 C 0.18369 0.45465 0.28296 0.0
C1092 C 0.21652 0.45239 0.28391 0.0
C1093 C 0.22092 0.45945 0.25704 0.0
C1094 C 0.20694 0.46483 0.24353 0.0
C1095 C 0.18853 0.46264 0.2565 0.0
H1096 H 0.81554 0.28621 0.24683 0.0
H1097 H 0.81794 0.244 0.18632 0.0
H1098 H 0.78251 0.25586 0.26534 0.0
H1099 H 0.78464 0.21385 0.20404 0.0
H1100 H 0.74721 0.16112 0.26595 0.0
H1101 H 0.77626 0.19224 0.24332 0.0
H1102 H 0.74466 0.22924 0.26015 0.0
H1103 H 0.71603 0.19819 0.28425 0.0
C1104 C 0.80862 0.27057 0.23704 0.0
C1105 C 0.81923 0.26737 0.2152 0.0
C1106 C 0.78971 0.25317 0.24761 0.0
C1107 C 0.78105 0.23232 0.23639 0.0
C1108 C 0.79113 0.22954 0.2136 0.0
C1109 C 0.81012 0.24681 0.20332 0.0
C1110 C 0.74637 0.17585 0.26469 0.0
C1111 C 0.72909 0.17704 0.2764 0.0
C1112 C 0.76294 0.19367 0.25145 0.0
C1113 C 0.76269 0.21321 0.24954 0.0
C1114 C 0.74535 0.21443 0.26123 0.0
C1115 C 0.72875 0.19653 0.27465 0.0
H1116 H 0.52044 0.80287 0.21683 0.0
H1117 H 0.58804 0.83973 0.23858 0.0
H1118 H 0.51728 0.77145 0.24072 0.0
H1119 H 0.58531 0.80821 0.26092 0.0
H1120 H 0.57347 0.7555 0.31728 0.0
H1121 H 0.571 0.78597 0.29939 0.0
H1122 H 0.5284 0.74487 0.23632 0.0
H1123 H 0.53033 0.71417 0.25505 0.0
C1124 C 0.53451 0.8044 0.22715 0.0
C1125 C 0.55435 0.82395 0.22649 0.0
C1126 C 0.5328 0.78628 0.24043 0.0
C1127 C 0.55098 0.78732 0.25301 0.0
C1128 C 0.57081 0.8069 0.25209 0.0
C1129 C 0.57246 0.82496 0.23902 0.0
C1130 C 0.56331 0.75295 0.29985 0.0
C1131 C 0.55207 0.73255 0.28754 0.0
C1132 C 0.56199 0.77041 0.28947 0.0
C1133 C 0.54978 0.76799 0.26613 0.0
C1134 C 0.53779 0.74729 0.25446 0.0
C1135 C 0.53887 0.72969 0.26515 0.0
H1136 H 0.71339 0.52678 0.24489 0.0
H1137 H 0.75539 0.5715 0.18433 0.0
H1138 H 0.74377 0.52404 0.26309 0.0
H1139 H 0.78557 0.56826 0.20171 0.0
H1140 H 0.83834 0.58373 0.26374 0.0
H1141 H 0.80727 0.5815 0.24085 0.0
H1142 H 0.77038 0.51289 0.25782 0.0
H1143 H 0.80138 0.51548 0.28221 0.0
C1144 C 0.72899 0.53551 0.23501 0.0
C1145 C 0.73213 0.54938 0.21328 0.0
C1146 C 0.7464 0.53395 0.24539 0.0
C1147 C 0.76721 0.54614 0.23407 0.0
C1148 C 0.76992 0.55905 0.21134 0.0
C1149 C 0.75263 0.56083 0.20126 0.0
C1150 C 0.82365 0.56812 0.26245 0.0
C1151 C 0.82246 0.54971 0.27434 0.0
C1152 C 0.80586 0.56678 0.24905 0.0
C1153 C 0.78635 0.54694 0.24714 0.0
C1154 C 0.78516 0.52842 0.25891 0.0
C1155 C 0.80303 0.52981 0.2725 0.0
H1156 H 0.24259 0.82697 0.29327 0.0
H1157 H 0.28781 0.8091 0.26105 0.0
H1158 H 0.2127 0.79441 0.27384 0.0
H1159 H 0.2576 0.77604 0.24231 0.0
H1160 H 0.18881 0.70936 0.23911 0.0
H1161 H 0.22139 0.73995 0.25827 0.0
H1162 H 0.20327 0.78413 0.22369 0.0
H1163 H 0.17124 0.75388 0.20389 0.0
C1164 C 0.24617 0.81596 0.28237 0.0
C1165 C 0.26763 0.82062 0.27896 0.0
C1166 C 0.22903 0.79733 0.27124 0.0
C1167 C 0.2329 0.78284 0.25646 0.0
C1168 C 0.25423 0.78692 0.25384 0.0
C1169 C 0.2715 0.80578 0.26481 0.0
C1170 C 0.1921 0.72558 0.23482 0.0
C1171 C 0.17748 0.72915 0.2197 0.0
C1172 C 0.21067 0.74308 0.24602 0.0
C1173 C 0.21466 0.76431 0.24264 0.0
C1174 C 0.2004 0.76787 0.22691 0.0
C1175 C 0.18207 0.75053 0.21556 0.0
H1176 H 0.52507 0.81368 0.75572 0.0
H1177 H 0.56977 0.81664 0.81647 0.0
H1178 H 0.52261 0.78065 0.73753 0.0
H1179 H 0.56689 0.7834 0.79899 0.0
H1180 H 0.58288 0.74655 0.73681 0.0
H1181 H 0.58038 0.77534 0.75949 0.0
H1182 H 0.51164 0.74272 0.74326 0.0
H1183 H 0.51445 0.71426 0.71922 0.0
C1184 C 0.53386 0.8069 0.76564 0.0
C1185 C 0.54763 0.81767 0.78745 0.0
C1186 C 0.53246 0.78798 0.75525 0.0
C1187 C 0.54476 0.77951 0.76659 0.0
C1188 C 0.55759 0.78975 0.78936 0.0
C1189 C 0.55917 0.80872 0.79948 0.0
C1190 C 0.56719 0.74542 0.73823 0.0
C1191 C 0.5488 0.72792 0.72667 0.0
C1192 C 0.56569 0.76184 0.75148 0.0
C1193 C 0.54574 0.76124 0.75354 0.0
C1194 C 0.52725 0.74367 0.74205 0.0
C1195 C 0.52879 0.72718 0.72866 0.0
H1196 H 0.83783 0.58692 0.7378 0.0
H1197 H 0.80111 0.51908 0.71714 0.0
H1198 H 0.80626 0.58435 0.75985 0.0
H1199 H 0.76961 0.51613 0.74064 0.0
H1200 H 0.71224 0.52927 0.75419 0.0
H1201 H 0.743 0.52735 0.73561 0.0
H1202 H 0.78402 0.57022 0.79851 0.0
H1203 H 0.75348 0.57261 0.81635 0.0
C1204 C 0.82307 0.57133 0.73841 0.0
C1205 C 0.82212 0.55311 0.72626 0.0
C1206 C 0.80499 0.56979 0.7513 0.0
C1207 C 0.78542 0.54995 0.7524 0.0
C1208 C 0.78443 0.53165 0.7402 0.0
C1209 C 0.80258 0.53325 0.72713 0.0
C1210 C 0.72775 0.53788 0.7643 0.0
C1211 C 0.73055 0.5511 0.78666 0.0
C1212 C 0.74539 0.5368 0.75369 0.0
C1213 C 0.76608 0.54885 0.76537 0.0
C1214 C 0.76846 0.56115 0.7886 0.0
C1215 C 0.75096 0.56243 0.79894 0.0
H1216 H 0.28234 0.80223 0.71936 0.0
H1217 H 0.24928 0.83852 0.73005 0.0
H1218 H 0.25354 0.77191 0.74424 0.0
H1219 H 0.2201 0.80805 0.75345 0.0
H1220 H 0.17772 0.75809 0.81241 0.0
H1221 H 0.2109 0.78812 0.79421 0.0
H1222 H 0.21613 0.74438 0.73842 0.0
H1223 H 0.18321 0.71423 0.75735 0.0
C1224 C 0.26917 0.80391 0.72745 0.0
C1225 C 0.26834 0.82297 0.72328 0.0
C1226 C 0.25247 0.78639 0.74132 0.0
C1227 C 0.23455 0.78756 0.75108 0.0
C1228 C 0.23384 0.80669 0.74684 0.0
C1229 C 0.2505 0.82413 0.73314 0.0
C1230 C 0.18617 0.75489 0.79651 0.0
C1231 C 0.17798 0.73386 0.78636 0.0
C1232 C 0.2051 0.77209 0.78596 0.0
C1233 C 0.21608 0.76875 0.76459 0.0
C1234 C 0.20827 0.74752 0.75508 0.0
C1235 C 0.1894 0.73022 0.76591 0.0
H1236 H 0.43634 0.18875 0.81182 0.0
H1237 H 0.47258 0.18043 0.74789 0.0
H1238 H 0.44214 0.22227 0.79083 0.0
H1239 H 0.47818 0.21391 0.72663 0.0
H1240 H 0.44421 0.2494 0.68337 0.0
H1241 H 0.44864 0.22121 0.70546 0.0
H1242 H 0.47306 0.2611 0.77665 0.0
H1243 H 0.4689 0.28951 0.75428 0.0
C1244 C 0.44586 0.19435 0.79351 0.0
C1245 C 0.45414 0.18218 0.78151 0.0
C1246 C 0.4493 0.21355 0.78162 0.0
C1247 C 0.46066 0.22065 0.75719 0.0
C1248 C 0.46942 0.20876 0.74552 0.0
C1249 C 0.46634 0.18974 0.75772 0.0
C1250 C 0.45097 0.25229 0.70351 0.0
C1251 C 0.45638 0.27159 0.71711 0.0
C1252 C 0.45361 0.23626 0.71607 0.0
C1253 C 0.46124 0.23906 0.7427 0.0
C1254 C 0.46721 0.25863 0.75607 0.0
C1255 C 0.46496 0.27488 0.74327 0.0
H1256 H 0.198 0.48167 0.71822 0.0
H1257 H 0.16051 0.41346 0.7367 0.0
H1258 H 0.22911 0.48378 0.7418 0.0
H1259 H 0.19169 0.41524 0.75884 0.0
H1260 H 0.24361 0.4254 0.81594 0.0
H1261 H 0.21351 0.42854 0.79808 0.0
H1262 H 0.25545 0.47213 0.73633 0.0
H1263 H 0.28575 0.4694 0.75489 0.0
C1264 C 0.19627 0.46723 0.72775 0.0
C1265 C 0.17664 0.44751 0.72623 0.0
C1266 C 0.2142 0.46836 0.74086 0.0
C1267 C 0.21287 0.44973 0.75248 0.0
C1268 C 0.1932 0.43003 0.75075 0.0
C1269 C 0.17535 0.42895 0.7378 0.0
C1270 C 0.24642 0.43589 0.79878 0.0
C1271 C 0.26697 0.44719 0.78682 0.0
C1272 C 0.22917 0.43761 0.78843 0.0
C1273 C 0.23195 0.45035 0.76551 0.0
C1274 C 0.25277 0.46235 0.75416 0.0
C1275 C 0.27015 0.46081 0.76478 0.0
H1276 H 0.75016 0.19297 0.68676 0.0
H1277 H 0.70936 0.17925 0.75671 0.0
H1278 H 0.77838 0.22582 0.70846 0.0
H1279 H 0.73778 0.21205 0.77867 0.0
H1280 H 0.80948 0.24843 0.8154 0.0
H1281 H 0.77634 0.22018 0.79425 0.0
H1282 H 0.78569 0.26314 0.72785 0.0
H1283 H 0.81879 0.29155 0.74926 0.0
C1284 C 0.74714 0.19724 0.7066 0.0
C1285 C 0.72761 0.18377 0.72003 0.0
C1286 C 0.76319 0.21606 0.71893 0.0
C1287 C 0.76018 0.22145 0.74518 0.0
C1288 C 0.74042 0.20824 0.75839 0.0
C1289 C 0.72417 0.18961 0.74581 0.0
C1290 C 0.80419 0.25193 0.79654 0.0
C1291 C 0.8165 0.27213 0.78401 0.0
C1292 C 0.7852 0.23586 0.78455 0.0
C1293 C 0.77847 0.23956 0.7595 0.0
C1294 C 0.79054 0.25996 0.74722 0.0
C1295 C 0.80934 0.2762 0.75951 0.0
H1296 H 0.43501 0.06477 0.24594 0.0
H1297 H 0.39934 0.02787 0.17655 0.0
H1298 H 0.41531 0.03322 0.27436 0.0
H1299 H 0.37767 0.99657 0.20516 0.0
H1300 H 0.36757 0.93759 0.25295 0.0
H1301 H 0.37926 0.96959 0.22546 0.0
H1302 H 0.38786 0.00739 0.29762 0.0
H1303 H 0.37829 0.97546 0.32492 0.0
C1304 C 0.42222 0.05001 0.23704 0.0
C1305 C 0.41868 0.04862 0.20916 0.0
C1306 C 0.41071 0.03178 0.25337 0.0
C1307 C 0.39485 0.01183 0.24231 0.0
C1308 C 0.39021 0.01118 0.21454 0.0
C1309 C 0.40235 0.02922 0.19807 0.0
C1310 C 0.37171 0.95275 0.26278 0.0
C1311 C 0.37221 0.95418 0.29095 0.0
C1312 C 0.37831 0.97124 0.247 0.0
C1313 C 0.38492 0.99156 0.25902 0.0
C1314 C 0.38375 0.99243 0.28737 0.0
C1315 C 0.37795 0.97406 0.30315 0.0
H1316 H 0.39633 0.41864 0.17704 0.0
H1317 H 0.34861 0.41275 0.23528 0.0
H1318 H 0.40572 0.3969 0.20575 0.0
H1319 H 0.35805 0.39085 0.26405 0.0
H1320 H 0.41277 0.39287 0.32007 0.0
H1321 H 0.39209 0.40276 0.29018 0.0
H1322 H 0.39418 0.36131 0.22821 0.0
H1323 H 0.41502 0.35135 0.25828 0.0
C1324 C 0.38751 0.41231 0.19572 0.0
C1325 C 0.37194 0.41769 0.20405 0.0
C1326 C 0.39278 0.39969 0.21208 0.0
C1327 C 0.38274 0.3923 0.23727 0.0
C1328 C 0.36619 0.3965 0.24485 0.0
C1329 C 0.36073 0.40896 0.22831 0.0
C1330 C 0.40845 0.38549 0.30027 0.0
C1331 C 0.41576 0.37153 0.29142 0.0
C1332 C 0.39643 0.39104 0.2832 0.0
C1333 C 0.39162 0.38292 0.25677 0.0
C1334 C 0.39781 0.36794 0.24842 0.0
C1335 C 0.40964 0.36216 0.26568 0.0
H1336 H 0.06449 0.43056 0.25311 0.0
H1337 H 0.02789 0.39253 0.32135 0.0
H1338 H 0.03331 0.41051 0.22417 0.0
H1339 H 0.99704 0.37066 0.29217 0.0
H1340 H 0.93804 0.36228 0.24535 0.0
H1341 H 0.9699 0.3728 0.27271 0.0
H1342 H 0.00779 0.38296 0.20025 0.0
H1343 H 0.97603 0.37442 0.17316 0.0
C1344 C 0.04994 0.41717 0.26161 0.0
C1345 C 0.04846 0.41309 0.28935 0.0
C1346 C 0.03193 0.40548 0.24499 0.0
C1347 C 0.01215 0.38897 0.25565 0.0
C1348 C 0.01153 0.3837 0.28317 0.0
C1349 C 0.02932 0.39596 0.29994 0.0
C1350 C 0.95315 0.36641 0.23539 0.0
C1351 C 0.95469 0.36776 0.20724 0.0
C1352 C 0.97156 0.37237 0.25109 0.0
C1353 C 0.99189 0.37919 0.23896 0.0
C1354 C 0.99281 0.37865 0.21057 0.0
C1355 C 0.97453 0.37346 0.19492 0.0
H1356 H 0.59943 0.97566 0.17511 0.0
H1357 H 0.57005 0.93718 0.24605 0.0
H1358 H 0.62125 0.00726 0.20317 0.0
H1359 H 0.5899 0.96888 0.27423 0.0
H1360 H 0.62724 0.02672 0.32426 0.0
H1361 H 0.61822 0.99566 0.29548 0.0
H1362 H 0.61875 0.03287 0.22608 0.0
H1363 H 0.62993 0.0642 0.25478 0.0
C1364 C 0.59781 0.97403 0.19683 0.0
C1365 C 0.58317 0.95409 0.2085 0.0
C1366 C 0.61006 0.99222 0.21302 0.0
C1367 C 0.60721 0.99111 0.24125 0.0
C1368 C 0.59309 0.9707 0.2528 0.0
C1369 C 0.58149 0.95238 0.23663 0.0
C1370 C 0.62603 0.02826 0.30268 0.0
C1371 C 0.62931 0.04775 0.29163 0.0
C1372 C 0.6205 0.01036 0.28611 0.0
C1373 C 0.61713 0.01124 0.25822 0.0
C1374 C 0.62143 0.03127 0.2472 0.0
C1375 C 0.62776 0.04937 0.26368 0.0
H1376 H 0.60297 0.62843 0.32324 0.0
H1377 H 0.56819 0.63096 0.25367 0.0
H1378 H 0.62469 0.61888 0.29462 0.0
H1379 H 0.58797 0.61922 0.22516 0.0
H1380 H 0.62487 0.59859 0.17451 0.0
H1381 H 0.61573 0.62108 0.20221 0.0
H1382 H 0.62277 0.59028 0.2738 0.0
H1383 H 0.63403 0.56978 0.24595 0.0
C1384 C 0.60016 0.62706 0.30168 0.0
C1385 C 0.58406 0.63046 0.29053 0.0
C1386 C 0.61235 0.62123 0.2852 0.0
C1387 C 0.60797 0.61765 0.25734 0.0
C1388 C 0.59234 0.62206 0.24624 0.0
C1389 C 0.58079 0.6287 0.26261 0.0
C1390 C 0.62502 0.59724 0.19626 0.0
C1391 C 0.63016 0.58258 0.20819 0.0
C1392 C 0.61945 0.60988 0.21225 0.0
C1393 C 0.6179 0.60738 0.24053 0.0
C1394 C 0.62402 0.59321 0.25232 0.0
C1395 C 0.63039 0.58124 0.23634 0.0
H1396 H 0.93492 0.56262 0.25355 0.0
H1397 H 0.97212 0.60112 0.3212 0.0
H1398 H 0.96597 0.58216 0.22426 0.0
H1399 H 0.00283 0.62251 0.29164 0.0
H1400 H 0.06162 0.63172 0.24404 0.0
H1401 H 0.02987 0.62057 0.27179 0.0
H1402 H 0.99119 0.60945 0.19984 0.0
H1403 H 0.02292 0.61862 0.17231 0.0
C1404 C 0.9496 0.57596 0.26185 0.0
C1405 C 0.95127 0.58035 0.28953 0.0
C1406 C 0.96753 0.58737 0.24501 0.0
C1407 C 0.98742 0.60393 0.25537 0.0
C1408 C 0.98827 0.60943 0.28286 0.0
C1409 C 0.97057 0.59742 0.29984 0.0
C1410 C 0.04634 0.62719 0.23427 0.0
C1411 C 0.04462 0.62583 0.20612 0.0
C1412 C 0.02798 0.62088 0.2502 0.0
C1413 C 0.0075 0.61369 0.23835 0.0
C1414 C 0.00632 0.61405 0.20997 0.0
C1415 C 0.02457 0.6196 0.19406 0.0
H1416 H 0.59714 0.97423 0.82961 0.0
H1417 H 0.57134 0.93692 0.75694 0.0
H1418 H 0.62086 0.00608 0.80294 0.0
H1419 H 0.59316 0.9689 0.72998 0.0
H1420 H 0.63248 0.02708 0.68198 0.0
H1421 H 0.62265 0.99585 0.71079 0.0
H1422 H 0.61993 0.03221 0.77924 0.0
H1423 H 0.6319 0.06372 0.75068 0.0
C1424 C 0.5967 0.97291 0.80783 0.0
C1425 C 0.58246 0.95321 0.79527 0.0
C1426 C 0.61008 0.99125 0.79241 0.0
C1427 C 0.60882 0.99057 0.764 0.0
C1428 C 0.59514 0.97039 0.75162 0.0
C1429 C 0.5824 0.9519 0.76709 0.0
C1430 C 0.6305 0.02844 0.70342 0.0
C1431 C 0.63301 0.04772 0.71423 0.0
C1432 C 0.62446 0.01042 0.71998 0.0
C1433 C 0.61977 0.01096 0.74752 0.0
C1434 C 0.62355 0.03086 0.75841 0.0
C1435 C 0.63039 0.04908 0.742 0.0
H1436 H 0.6225 0.59917 0.82813 0.0
H1437 H 0.63347 0.57198 0.75635 0.0
H1438 H 0.6132 0.62164 0.80066 0.0
H1439 H 0.62214 0.5925 0.7287 0.0
H1440 H 0.6014 0.62989 0.67954 0.0
H1441 H 0.62356 0.62108 0.70837 0.0
H1442 H 0.58536 0.61933 0.77732 0.0
H1443 H 0.56505 0.6303 0.74865 0.0
C1444 C 0.62305 0.59818 0.80637 0.0
C1445 C 0.62868 0.58391 0.79429 0.0
C1446 C 0.61739 0.61081 0.7905 0.0
C1447 C 0.61628 0.60874 0.76216 0.0
C1448 C 0.623 0.59508 0.75024 0.0
C1449 C 0.62943 0.5831 0.76612 0.0
C1450 C 0.59836 0.62826 0.70105 0.0
C1451 C 0.58164 0.63079 0.71198 0.0
C1452 C 0.6108 0.62285 0.71764 0.0
C1453 C 0.60612 0.61882 0.74539 0.0
C1454 C 0.58995 0.62249 0.75633 0.0
C1455 C 0.5781 0.62872 0.73985 0.0
H1456 H 0.02004 0.60289 0.82335 0.0
H1457 H 0.06129 0.65129 0.76541 0.0
H1458 H 0.98885 0.59277 0.79447 0.0
H1459 H 0.02988 0.64112 0.73645 0.0
H1460 H 0.97753 0.58658 0.67995 0.0
H1461 H 0.00807 0.60733 0.70989 0.0
H1462 H 0.96428 0.60373 0.77246 0.0
H1463 H 0.93351 0.58281 0.74235 0.0
C1464 C 0.0224 0.61168 0.80468 0.0
C1465 C 0.04322 0.62772 0.79654 0.0
C1466 C 0.00445 0.60598 0.78821 0.0
C1467 C 0.00691 0.61605 0.76308 0.0
C1468 C 0.02752 0.63295 0.75561 0.0
C1469 C 0.04549 0.63883 0.77225 0.0
C1470 C 0.9744 0.5906 0.69989 0.0
C1471 C 0.95307 0.58283 0.70888 0.0
C1472 C 0.99195 0.60264 0.71701 0.0
C1473 C 0.98859 0.60704 0.74362 0.0
C1474 C 0.96734 0.60041 0.75212 0.0
C1475 C 0.94974 0.58855 0.73483 0.0
H1476 H 0.39561 0.02387 0.82335 0.0
H1477 H 0.42749 0.06198 0.753 0.0
H1478 H 0.37361 0.99254 0.79495 0.0
H1479 H 0.40736 0.03048 0.72457 0.0
H1480 H 0.37035 0.97292 0.67415 0.0
H1481 H 0.37914 0.00408 0.7026 0.0
H1482 H 0.37599 0.96648 0.77287 0.0
H1483 H 0.36511 0.93508 0.74439 0.0
C1484 C 0.3977 0.0255 0.80168 0.0
C1485 C 0.41314 0.04525 0.79028 0.0
C1486 C 0.38535 0.00745 0.78531 0.0
C1487 C 0.38885 0.00847 0.75722 0.0
C1488 C 0.40369 0.02874 0.74589 0.0
C1489 C 0.41543 0.04696 0.76221 0.0
C1490 C 0.37092 0.97131 0.69581 0.0
C1491 C 0.36703 0.95169 0.70716 0.0
C1492 C 0.37631 0.98927 0.71221 0.0
C1493 C 0.37892 0.98831 0.74028 0.0
C1494 C 0.37393 0.96815 0.75158 0.0
C1495 C 0.36775 0.95001 0.73523 0.0
H1496 H 0.36205 0.4236 0.75657 0.0
H1497 H 0.37393 0.3973 0.82851 0.0
H1498 H 0.37288 0.40261 0.72901 0.0
H1499 H 0.38277 0.3744 0.8012 0.0
H1500 H 0.43071 0.36574 0.74851 0.0
H1501 H 0.4104 0.37655 0.77744 0.0
H1502 H 0.3712 0.37373 0.70909 0.0
H1503 H 0.39333 0.36508 0.67996 0.0
C1504 C 0.36618 0.41258 0.76642 0.0
C1505 C 0.36736 0.41217 0.79458 0.0
C1506 C 0.37233 0.40033 0.7506 0.0
C1507 C 0.37918 0.3868 0.7626 0.0
C1508 C 0.37846 0.38511 0.79097 0.0
C1509 C 0.37308 0.398 0.80675 0.0
C1510 C 0.41741 0.367 0.73992 0.0
C1511 C 0.41359 0.3647 0.71211 0.0
C1512 C 0.40557 0.37315 0.75654 0.0
C1513 C 0.38916 0.37654 0.74581 0.0
C1514 C 0.38415 0.3722 0.71818 0.0
C1515 C 0.39657 0.36685 0.70143 0.0
H1516 H 0.06324 0.43196 0.74762 0.0
H1517 H 0.02571 0.40283 0.67597 0.0
H1518 H 0.03142 0.41107 0.77528 0.0
H1519 H 0.99407 0.38 0.70347 0.0
H1520 H 0.93606 0.36906 0.75458 0.0
H1521 H 0.96772 0.38113 0.72625 0.0
H1522 H 0.00489 0.38228 0.796 0.0
H1523 H 0.97345 0.37236 0.82443 0.0
C1524 C 0.04825 0.42037 0.73792 0.0
C1525 C 0.04682 0.41904 0.70976 0.0
C1526 C 0.02986 0.40816 0.75379 0.0
C1527 C 0.00967 0.39378 0.74189 0.0
C1528 C 0.00889 0.39134 0.7136 0.0
C1529 C 0.02712 0.40418 0.69772 0.0
C1530 C 0.95096 0.37152 0.76363 0.0
C1531 C 0.95242 0.36989 0.7916 0.0
C1532 C 0.96926 0.37839 0.74736 0.0
C1533 C 0.98938 0.38318 0.75859 0.0
C1534 C 0.99013 0.37966 0.78647 0.0
C1535 C 0.97201 0.37359 0.80285 0.0
H1536 H 0.53544 0.10929 0.18042 0.0
H1537 H 0.51073 0.13405 0.24198 0.0
H1538 H 0.56496 0.11484 0.21013 0.0
H1539 H 0.54037 0.13946 0.27193 0.0
H1540 H 0.57101 0.10491 0.32326 0.0
H1541 H 0.54708 0.11126 0.29444 0.0
H1542 H 0.59821 0.14236 0.23565 0.0
H1543 H 0.62233 0.13611 0.26459 0.0
C1544 C 0.53656 0.11631 0.20014 0.0
C1545 C 0.52064 0.12105 0.20894 0.0
C1546 C 0.55357 0.11963 0.2171 0.0
C1547 C 0.55493 0.12748 0.24342 0.0
C1548 C 0.53965 0.13326 0.25179 0.0
C1549 C 0.52276 0.13027 0.2346 0.0
C1550 C 0.57732 0.11349 0.30444 0.0
C1551 C 0.59853 0.11981 0.29611 0.0
C1552 C 0.56363 0.11727 0.28801 0.0
C1553 C 0.57073 0.12721 0.26272 0.0
C1554 C 0.59227 0.13454 0.25498 0.0
C1555 C 0.6061 0.13104 0.27161 0.0
H1556 H 0.46186 0.58393 0.32813 0.0
H1557 H 0.49768 0.61449 0.25589 0.0
H1558 H 0.43055 0.55945 0.30115 0.0
H1559 H 0.46759 0.58882 0.22855 0.0
H1560 H 0.41116 0.5431 0.18016 0.0
H1561 H 0.4353 0.57329 0.20895 0.0
H1562 H 0.41669 0.52929 0.27689 0.0
H1563 H 0.39108 0.50006 0.24839 0.0
C1564 C 0.46291 0.58538 0.30636 0.0
C1565 C 0.48207 0.60108 0.29403 0.0
C1566 C 0.44507 0.57111 0.29073 0.0
C1567 C 0.44629 0.57151 0.2623 0.0
C1568 C 0.46544 0.5879 0.25018 0.0
C1569 C 0.48293 0.60268 0.26586 0.0
C1570 C 0.41191 0.54023 0.20148 0.0
C1571 C 0.39925 0.51941 0.21219 0.0
C1572 C 0.42604 0.55745 0.21804 0.0
C1573 C 0.42862 0.55403 0.24552 0.0
C1574 C 0.4152 0.53309 0.25619 0.0
C1575 C 0.40048 0.51612 0.2398 0.0
H1576 H 0.86492 0.4844 0.26474 0.0
H1577 H 0.89683 0.46599 0.32444 0.0
H1578 H 0.85995 0.4543 0.23614 0.0
H1579 H 0.8917 0.43591 0.29596 0.0
H1580 H 0.86962 0.37622 0.24381 0.0
H1581 H 0.86399 0.40047 0.27346 0.0
H1582 H 0.88847 0.44941 0.21134 0.0
H1583 H 0.89428 0.42543 0.18192 0.0
C1584 C 0.87041 0.47366 0.27206 0.0
C1585 C 0.88145 0.47772 0.29677 0.0
C1586 C 0.86765 0.45649 0.25561 0.0
C1587 C 0.87554 0.44282 0.26375 0.0
C1588 C 0.8853 0.44605 0.28922 0.0
C1589 C 0.88835 0.46338 0.30547 0.0
C1590 C 0.87338 0.39199 0.23632 0.0
C1591 C 0.88256 0.39897 0.2106 0.0
C1592 C 0.87026 0.4059 0.25333 0.0
C1593 C 0.87585 0.42685 0.24474 0.0
C1594 C 0.88382 0.4333 0.21846 0.0
C1595 C 0.88728 0.41959 0.20166 0.0
H1596 H 0.38868 0.88806 0.25078 0.0
H1597 H 0.41101 0.86962 0.32112 0.0
H1598 H 0.41457 0.88431 0.22309 0.0
H1599 H 0.43549 0.86338 0.29327 0.0
H1600 H 0.49764 0.88459 0.24574 0.0
H1601 H 0.46744 0.88012 0.27291 0.0
H1602 H 0.42909 0.86797 0.20039 0.0
H1603 H 0.46045 0.87494 0.17344 0.0
C1604 C 0.39864 0.88234 0.26006 0.0
C1605 C 0.39794 0.87914 0.28797 0.0
C1606 C 0.41354 0.88001 0.24414 0.0
C1607 C 0.42767 0.87371 0.25564 0.0
C1608 C 0.42566 0.86901 0.28351 0.0
C1609 C 0.41134 0.8722 0.29955 0.0
C1610 C 0.48258 0.88067 0.23578 0.0
C1611 C 0.48132 0.8802 0.20759 0.0
C1612 C 0.46504 0.87792 0.25137 0.0
C1613 C 0.44547 0.8739 0.23916 0.0
C1614 C 0.44391 0.87184 0.21081 0.0
C1615 C 0.46178 0.87548 0.19522 0.0
H1616 H 0.61067 0.49973 0.24822 0.0
H1617 H 0.58839 0.45806 0.17867 0.0
H1618 H 0.58478 0.47041 0.27634 0.0
H1619 H 0.5639 0.42767 0.20698 0.0
H1620 H 0.5018 0.38719 0.25476 0.0
H1621 H 0.53196 0.41264 0.22734 0.0
H1622 H 0.5703 0.43981 0.29966 0.0
H1623 H 0.53899 0.41566 0.32683 0.0
C1624 C 0.6007 0.48391 0.23922 0.0
C1625 C 0.60144 0.48106 0.2114 0.0
C1626 C 0.58582 0.46688 0.25539 0.0
C1627 C 0.5717 0.44629 0.24424 0.0
C1628 C 0.57373 0.44325 0.21647 0.0
C1629 C 0.58805 0.46057 0.20016 0.0
C1630 C 0.51684 0.39847 0.26464 0.0
C1631 C 0.5181 0.3996 0.29283 0.0
C1632 C 0.53436 0.41312 0.2489 0.0
C1633 C 0.55392 0.42885 0.26095 0.0
C1634 C 0.55549 0.4287 0.28933 0.0
C1635 C 0.53764 0.41461 0.30506 0.0
H1636 H 0.12945 0.61915 0.24338 0.0
H1637 H 0.10746 0.57131 0.17991 0.0
H1638 H 0.13418 0.59441 0.27316 0.0
H1639 H 0.11236 0.54683 0.20947 0.0
H1640 H 0.09979 0.52816 0.3222 0.0
H1641 H 0.10571 0.55858 0.29387 0.0
H1642 H 0.13975 0.54134 0.23599 0.0
H1643 H 0.13397 0.51088 0.26446 0.0
C1644 C 0.12613 0.6036 0.23558 0.0
C1645 C 0.11792 0.59712 0.20936 0.0
C1646 C 0.12872 0.5894 0.25267 0.0
C1647 C 0.12355 0.56865 0.24368 0.0
C1648 C 0.11665 0.56276 0.21693 0.0
C1649 C 0.11373 0.57676 0.20003 0.0
C1650 C 0.10888 0.53106 0.30367 0.0
C1651 C 0.11624 0.51696 0.29548 0.0
C1652 C 0.1124 0.5486 0.28753 0.0
C1653 C 0.12311 0.55229 0.26265 0.0
C1654 C 0.13133 0.5388 0.255 0.0
C1655 C 0.12809 0.52142 0.27136 0.0
H1656 H 0.48855 0.86762 0.75741 0.0
H1657 H 0.46424 0.89258 0.81921 0.0
H1658 H 0.45865 0.86202 0.7278 0.0
H1659 H 0.43449 0.88688 0.78986 0.0
H1660 H 0.37641 0.86491 0.73629 0.0
H1661 H 0.40104 0.85924 0.76508 0.0
H1662 H 0.45132 0.88955 0.70508 0.0
H1663 H 0.42689 0.8953 0.67645 0.0
C1664 C 0.47659 0.87146 0.76489 0.0
C1665 C 0.47888 0.88075 0.79055 0.0
C1666 C 0.45954 0.86835 0.74791 0.0
C1667 C 0.44426 0.87408 0.75647 0.0
C1668 C 0.44586 0.88211 0.78274 0.0
C1669 C 0.46302 0.88552 0.79949 0.0
C1670 C 0.39256 0.86993 0.72901 0.0
C1671 C 0.39976 0.88075 0.7042 0.0
C1672 C 0.40669 0.86677 0.74554 0.0
C1673 C 0.42815 0.87405 0.7374 0.0
C1674 C 0.43485 0.8836 0.71185 0.0
C1675 C 0.42087 0.88703 0.69552 0.0
H1676 H 0.51188 0.37809 0.7377 0.0
H1677 H 0.52916 0.42901 0.67914 0.0
H1678 H 0.54256 0.403 0.76579 0.0
H1679 H 0.55976 0.45371 0.70707 0.0
H1680 H 0.62035 0.49123 0.75717 0.0
H1681 H 0.59561 0.46134 0.72781 0.0
H1682 H 0.54817 0.43614 0.79169 0.0
H1683 H 0.57263 0.46592 0.82079 0.0
C1684 C 0.52246 0.39443 0.73055 0.0
C1685 C 0.51795 0.40163 0.70632 0.0
C1686 C 0.53997 0.4087 0.74668 0.0
C1687 C 0.55351 0.43032 0.73867 0.0
C1688 C 0.54975 0.43711 0.71368 0.0
C1689 C 0.5321 0.42297 0.69778 0.0
C1690 C 0.60483 0.47903 0.76509 0.0
C1691 C 0.59836 0.48103 0.7912 0.0
C1692 C 0.59064 0.462 0.74826 0.0
C1693 C 0.56992 0.44645 0.75742 0.0
C1694 C 0.56407 0.44774 0.7841 0.0
C1695 C 0.57805 0.4649 0.80072 0.0
H1696 H 0.1258 0.54261 0.6766 0.0
H1697 H 0.11621 0.50543 0.74888 0.0
H1698 H 0.13275 0.57397 0.70353 0.0
H1699 H 0.12074 0.53567 0.77606 0.0
H1700 H 0.13092 0.59186 0.82425 0.0
H1701 H 0.13764 0.56778 0.79627 0.0
H1702 H 0.11607 0.58824 0.72627 0.0
H1703 H 0.11175 0.61374 0.75412 0.0
C1704 C 0.1253 0.54129 0.69838 0.0
C1705 C 0.12057 0.52174 0.71075 0.0
C1706 C 0.12893 0.55917 0.71396 0.0
C1707 C 0.1269 0.55761 0.7423 0.0
C1708 C 0.12291 0.53805 0.75452 0.0
C1709 C 0.12014 0.52049 0.73893 0.0
C1710 C 0.12834 0.59156 0.80269 0.0
C1711 C 0.12098 0.60468 0.79123 0.0
C1712 C 0.1318 0.57746 0.78657 0.0
C1713 C 0.12699 0.57538 0.75875 0.0
C1714 C 0.12042 0.58933 0.74732 0.0
C1715 C 0.11779 0.60401 0.76332 0.0
H1716 H 0.50889 0.13024 0.76034 0.0
H1717 H 0.5296 0.10189 0.82218 0.0
H1718 H 0.53938 0.1357 0.73205 0.0
H1719 H 0.56004 0.10757 0.79409 0.0
H1720 H 0.6201 0.13097 0.74266 0.0
H1721 H 0.5949 0.13615 0.771 0.0
H1722 H 0.54597 0.1073 0.70919 0.0
H1723 H 0.57092 0.1019 0.68108 0.0
C1724 C 0.52019 0.12562 0.76815 0.0
C1725 C 0.5167 0.11543 0.7934 0.0
C1726 C 0.53757 0.12867 0.75191 0.0
C1727 C 0.55204 0.12199 0.76083 0.0
C1728 C 0.54929 0.11305 0.78675 0.0
C1729 C 0.53175 0.10967 0.80276 0.0
C1730 C 0.60412 0.12615 0.73492 0.0
C1731 C 0.59743 0.11584 0.70974 0.0
C1732 C 0.58968 0.12903 0.75119 0.0
C1733 C 0.56846 0.12206 0.74233 0.0
C1734 C 0.56227 0.113 0.71647 0.0
C1735 C 0.57653 0.10978 0.70044 0.0
H1736 H 0.37609 0.50638 0.75826 0.0
H1737 H 0.42506 0.53012 0.82043 0.0
H1738 H 0.40045 0.53671 0.72922 0.0
H1739 H 0.44915 0.56031 0.79164 0.0
H1740 H 0.46599 0.56974 0.67857 0.0
H1741 H 0.43574 0.54463 0.70667 0.0
H1742 H 0.45453 0.59405 0.76762 0.0
H1743 H 0.48487 0.61936 0.73936 0.0
C1744 C 0.39183 0.51829 0.76594 0.0
C1745 C 0.39873 0.51574 0.79154 0.0
C1746 C 0.4058 0.53558 0.74929 0.0
C1747 C 0.42673 0.55085 0.75813 0.0
C1748 C 0.43307 0.54895 0.78432 0.0
C1749 C 0.4193 0.53154 0.80075 0.0
C1750 C 0.46344 0.57542 0.69773 0.0
C1751 C 0.47796 0.5965 0.70684 0.0
C1752 C 0.446 0.56105 0.71375 0.0
C1753 C 0.44282 0.56733 0.73941 0.0
C1754 C 0.45668 0.58874 0.74798 0.0
C1755 C 0.47398 0.60325 0.73175 0.0
H1756 H 0.86658 0.48976 0.74272 0.0
H1757 H 0.89022 0.46498 0.67988 0.0
H1758 H 0.86104 0.45977 0.77204 0.0
H1759 H 0.88465 0.43517 0.70901 0.0
H1760 H 0.86463 0.37789 0.7632 0.0
H1761 H 0.85798 0.40196 0.73465 0.0
H1762 H 0.88899 0.45289 0.79375 0.0
H1763 H 0.89568 0.42902 0.82214 0.0
C1764 C 0.87008 0.47765 0.73493 0.0
C1765 C 0.87906 0.47987 0.70909 0.0
C1766 C 0.86702 0.46055 0.75176 0.0
C1767 C 0.87253 0.44519 0.74288 0.0
C1768 C 0.88007 0.44662 0.71638 0.0
C1769 C 0.88341 0.46381 0.69975 0.0
C1770 C 0.86962 0.39407 0.77033 0.0
C1771 C 0.88092 0.40162 0.79479 0.0
C1772 C 0.86588 0.40787 0.75394 0.0
C1773 C 0.87305 0.42935 0.7619 0.0
C1774 C 0.88309 0.43639 0.78714 0.0
C1775 C 0.88708 0.42274 0.80332 0.0
H1776 H 0.49365 0.13319 0.06014 0.0
H1777 H 0.42792 0.1188 0.07217 0.0
H1778 H 0.49075 0.13855 0.01213 0.0
H1779 H 0.42487 0.12434 0.02386 0.0
H1780 H 0.42152 0.09365 0.93758 0.0
H1781 H 0.42295 0.10117 0.98577 0.0
H1782 H 0.48562 0.15846 0.97516 0.0
H1783 H 0.48408 0.15059 0.9268 0.0
C1784 C 0.47879 0.13184 0.05249 0.0
C1785 C 0.46096 0.12546 0.06958 0.0
C1786 C 0.47713 0.13503 0.02504 0.0
C1787 C 0.45752 0.13174 0.01411 0.0
C1788 C 0.44013 0.12681 0.03166 0.0
C1789 C 0.44188 0.12378 0.05925 0.0
C1790 C 0.43521 0.10824 0.94551 0.0
C1791 C 0.45269 0.12156 0.92876 0.0
C1792 C 0.43604 0.11262 0.97307 0.0
C1793 C 0.4545 0.13033 0.98436 0.0
C1794 C 0.47129 0.14458 0.96709 0.0
C1795 C 0.47037 0.14022 0.93946 0.0
H1796 H 0.3319 0.48729 0.07104 0.0
H1797 H 0.33204 0.42714 0.06442 0.0
H1798 H 0.32417 0.48602 0.02263 0.0
H1799 H 0.32445 0.42572 0.01624 0.0
H1800 H 0.30818 0.42486 0.93006 0.0
H1801 H 0.30061 0.4237 0.97853 0.0
H1802 H 0.34919 0.49137 0.98507 0.0
H1803 H 0.35653 0.49234 0.93692 0.0
C1804 C 0.32953 0.47346 0.05931 0.0
C1805 C 0.33247 0.45728 0.07116 0.0
C1806 C 0.32526 0.47277 0.03166 0.0
C1807 C 0.32382 0.45583 0.01557 0.0
C1808 C 0.32517 0.43884 0.02806 0.0
C1809 C 0.32958 0.43964 0.05559 0.0
C1810 C 0.31662 0.43958 0.94184 0.0
C1811 C 0.33293 0.45867 0.93005 0.0
C1812 C 0.31244 0.43892 0.96952 0.0
C1813 C 0.32441 0.45741 0.98567 0.0
C1814 C 0.3395 0.47692 0.97322 0.0
C1815 C 0.34378 0.4775 0.9457 0.0
H1816 H 0.90519 0.32839 0.06394 0.0
H1817 H 0.8475 0.33287 0.07307 0.0
H1818 H 0.89828 0.32206 0.01566 0.0
H1819 H 0.8403 0.32641 0.02458 0.0
H1820 H 0.86708 0.36016 0.93989 0.0
H1821 H 0.86092 0.35184 0.98785 0.0
H1822 H 0.87535 0.30021 0.97736 0.0
H1823 H 0.88159 0.30879 0.92908 0.0
C1824 C 0.89058 0.32717 0.05563 0.0
C1825 C 0.87684 0.33105 0.07193 0.0
C1826 C 0.88655 0.3235 0.02803 0.0
C1827 C 0.86881 0.32388 0.01624 0.0
C1828 C 0.85418 0.32619 0.03306 0.0
C1829 C 0.85817 0.32973 0.06075 0.0
C1830 C 0.86827 0.34662 0.94778 0.0
C1831 C 0.8749 0.33517 0.93108 0.0
C1832 C 0.86464 0.34175 0.97519 0.0
C1833 C 0.86777 0.32543 0.98646 0.0
C1834 C 0.87297 0.31297 0.96927 0.0
C1835 C 0.87641 0.31776 0.9417 0.0
H1836 H 0.57588 0.90524 0.06207 0.0
H1837 H 0.51427 0.84709 0.07277 0.0
H1838 H 0.57471 0.89787 0.01388 0.0
H1839 H 0.513 0.83936 0.0244 0.0
H1840 H 0.50408 0.86411 0.93945 0.0
H1841 H 0.50709 0.85867 0.9874 0.0
H1842 H 0.57368 0.87516 0.97579 0.0
H1843 H 0.5705 0.88078 0.92755 0.0
C1844 C 0.56248 0.89044 0.05412 0.0
C1845 C 0.54518 0.8767 0.07087 0.0
C1846 C 0.5618 0.88614 0.02656 0.0
C1847 C 0.54367 0.86809 0.01524 0.0
C1848 C 0.52709 0.85349 0.03249 0.0
C1849 C 0.52786 0.85778 0.06013 0.0
C1850 C 0.51912 0.8659 0.9471 0.0
C1851 C 0.53709 0.87295 0.93007 0.0
C1852 C 0.52086 0.86269 0.97452 0.0
C1853 C 0.54069 0.86662 0.98549 0.0
C1854 C 0.55825 0.87218 0.96797 0.0
C1855 C 0.55643 0.87525 0.94041 0.0
H1856 H 0.66792 0.57392 0.06339 0.0
H1857 H 0.66748 0.51358 0.07182 0.0
H1858 H 0.67461 0.57411 0.0151 0.0
H1859 H 0.67429 0.51362 0.02329 0.0
H1860 H 0.64068 0.50563 0.93812 0.0
H1861 H 0.6487 0.50767 0.98617 0.0
H1862 H 0.69769 0.57497 0.97707 0.0
H1863 H 0.68942 0.57275 0.92871 0.0
C1864 C 0.67005 0.5611 0.05491 0.0
C1865 C 0.66725 0.54376 0.07104 0.0
C1866 C 0.67395 0.5612 0.02731 0.0
C1867 C 0.67486 0.54381 0.01532 0.0
C1868 C 0.67352 0.52717 0.03193 0.0
C1869 C 0.66978 0.52718 0.05964 0.0
C1870 C 0.65363 0.52063 0.94632 0.0
C1871 C 0.66441 0.53905 0.92998 0.0
C1872 C 0.65832 0.52181 0.97379 0.0
C1873 C 0.67375 0.54153 0.98549 0.0
C1874 C 0.68561 0.5596 0.96865 0.0
C1875 C 0.68102 0.55833 0.94103 0.0
H1876 H 0.15353 0.67317 0.9293 0.0
H1877 H 0.0909 0.66741 0.93975 0.0
H1878 H 0.16067 0.68022 0.97773 0.0
H1879 H 0.09774 0.67429 0.98794 0.0
H1880 H 0.11369 0.68892 0.07411 0.0
H1881 H 0.1188 0.69788 0.02589 0.0
H1882 H 0.14359 0.65413 0.01492 0.0
H1883 H 0.13854 0.64545 0.06287 0.0
C1884 C 0.14165 0.67417 0.94189 0.0
C1885 C 0.12172 0.66981 0.93108 0.0
C1886 C 0.14562 0.67804 0.96956 0.0
C1887 C 0.12971 0.67767 0.98674 0.0
C1888 C 0.11046 0.67497 0.97532 0.0
C1889 C 0.10647 0.67096 0.94776 0.0
C1890 C 0.12095 0.68191 0.06142 0.0
C1891 C 0.12574 0.66654 0.07194 0.0
C1892 C 0.12373 0.68687 0.03387 0.0
C1893 C 0.13145 0.6766 0.01652 0.0
C1894 C 0.13786 0.66254 0.02768 0.0
C1895 C 0.13492 0.65749 0.05511 0.0
H1896 H 0.90476 0.57557 0.43893 0.0
H1897 H 0.84836 0.51243 0.42939 0.0
H1898 H 0.897 0.57501 0.48693 0.0
H1899 H 0.84014 0.51183 0.47749 0.0
H1900 H 0.86466 0.50578 0.56369 0.0
H1901 H 0.8592 0.50753 0.51552 0.0
H1902 H 0.87403 0.57387 0.52433 0.0
H1903 H 0.87974 0.57198 0.57284 0.0
C1904 C 0.89026 0.5619 0.44708 0.0
C1905 C 0.87717 0.54402 0.43074 0.0
C1906 C 0.88571 0.56158 0.47452 0.0
C1907 C 0.86802 0.54329 0.48613 0.0
C1908 C 0.85402 0.52606 0.46921 0.0
C1909 C 0.85859 0.52643 0.44171 0.0
C1910 C 0.86605 0.52048 0.55538 0.0
C1911 C 0.87275 0.53879 0.5717 0.0
C1912 C 0.86284 0.5215 0.52781 0.0
C1913 C 0.86638 0.54093 0.51598 0.0
C1914 C 0.87142 0.55876 0.5328 0.0
C1915 C 0.87452 0.55766 0.56052 0.0
H1916 H 0.32614 0.903 0.43321 0.0
H1917 H 0.33329 0.84673 0.4257 0.0
H1918 H 0.31997 0.89657 0.48164 0.0
H1919 H 0.32705 0.84006 0.47427 0.0
H1920 H 0.36043 0.86869 0.55854 0.0
H1921 H 0.35245 0.86224 0.51054 0.0
H1922 H 0.29851 0.87323 0.52047 0.0
H1923 H 0.30668 0.87965 0.56886 0.0
C1924 C 0.32548 0.88874 0.44188 0.0
C1925 C 0.33 0.87525 0.42597 0.0
C1926 C 0.32194 0.88501 0.46957 0.0
C1927 C 0.32317 0.86787 0.48183 0.0
C1928 C 0.32615 0.85347 0.46542 0.0
C1929 C 0.32954 0.85714 0.43767 0.0
C1930 C 0.34649 0.86907 0.55053 0.0
C1931 C 0.33419 0.87471 0.56715 0.0
C1932 C 0.34183 0.86528 0.52309 0.0
C1933 C 0.32488 0.8673 0.51166 0.0
C1934 C 0.31173 0.87166 0.5287 0.0
C1935 C 0.31628 0.8752 0.55633 0.0
H1936 H 0.48589 0.33677 0.42824 0.0
H1937 H 0.42092 0.32554 0.43621 0.0
H1938 H 0.48686 0.33057 0.47672 0.0
H1939 H 0.42174 0.31946 0.48458 0.0
H1940 H 0.42661 0.30673 0.57164 0.0
H1941 H 0.42514 0.29888 0.52317 0.0
H1942 H 0.4887 0.35505 0.51319 0.0
H1943 H 0.48999 0.36266 0.56125 0.0
C1944 C 0.47157 0.33219 0.4403 0.0
C1945 C 0.4533 0.3315 0.42878 0.0
C1946 C 0.47214 0.3288 0.46799 0.0
C1947 C 0.45444 0.32469 0.48452 0.0
C1948 C 0.43554 0.32233 0.47242 0.0
C1949 C 0.43504 0.32584 0.44478 0.0
C1950 C 0.44044 0.31691 0.55906 0.0
C1951 C 0.45837 0.33531 0.56988 0.0
C1952 C 0.43958 0.31254 0.5314 0.0
C1953 C 0.45677 0.32638 0.51433 0.0
C1954 C 0.47531 0.34389 0.52575 0.0
C1955 C 0.47604 0.34835 0.55323 0.0
H1956 H 0.09476 0.42186 0.44041 0.0
H1957 H 0.1494 0.48591 0.42912 0.0
H1958 H 0.10247 0.42404 0.48861 0.0
H1959 H 0.15757 0.48816 0.47741 0.0
H1960 H 0.13238 0.49517 0.5626 0.0
H1961 H 0.13768 0.49235 0.5146 0.0
H1962 H 0.12591 0.42729 0.52659 0.0
H1963 H 0.1203 0.43023 0.5749 0.0
C1964 C 0.10888 0.4361 0.44825 0.0
C1965 C 0.12146 0.45375 0.43134 0.0
C1966 C 0.1134 0.43736 0.4758 0.0
C1967 C 0.13055 0.45636 0.48694 0.0
C1968 C 0.14411 0.4734 0.4695 0.0
C1969 C 0.13957 0.47209 0.4419 0.0
C1970 C 0.13154 0.48052 0.55501 0.0
C1971 C 0.12574 0.46284 0.57218 0.0
C1972 C 0.1347 0.47891 0.52755 0.0
C1973 C 0.13204 0.4595 0.51667 0.0
C1974 C 0.12783 0.44236 0.53432 0.0
C1975 C 0.12479 0.44406 0.56193 0.0
H1976 H 0.67123 0.09543 0.43901 0.0
H1977 H 0.66192 0.15041 0.4315 0.0
H1978 H 0.67764 0.10219 0.48734 0.0
H1979 H 0.66844 0.15744 0.48 0.0
H1980 H 0.63684 0.12891 0.56511 0.0
H1981 H 0.6441 0.13534 0.51699 0.0
H1982 H 0.6992 0.12601 0.5255 0.0
H1983 H 0.69171 0.11954 0.57401 0.0
C1984 C 0.67135 0.10944 0.44769 0.0
C1985 C 0.66617 0.12246 0.43181 0.0
C1986 C 0.67508 0.11338 0.4753 0.0
C1987 C 0.67343 0.13029 0.48754 0.0
C1988 C 0.66968 0.14421 0.47116 0.0
C1989 C 0.6661 0.14032 0.44347 0.0
C1990 C 0.65088 0.12891 0.55676 0.0
C1991 C 0.66369 0.12368 0.573 0.0
C1992 C 0.65513 0.13269 0.52925 0.0
C1993 C 0.67218 0.13108 0.51738 0.0
C1994 C 0.68588 0.12722 0.53407 0.0
C1995 C 0.68171 0.12366 0.56175 0.0
H1996 H 0.57139 0.69171 0.57379 0.0
H1997 H 0.50692 0.63789 0.56188 0.0
H1998 H 0.57405 0.69999 0.52538 0.0
H1999 H 0.50937 0.64596 0.51383 0.0
H2000 H 0.51506 0.665 0.42859 0.0
H2001 H 0.51338 0.67119 0.47697 0.0
H2002 H 0.57685 0.67849 0.48739 0.0
H2003 H 0.57837 0.6724 0.43915 0.0
C2004 C 0.55758 0.68214 0.56089 0.0
C2005 C 0.53899 0.66416 0.57127 0.0
C2006 C 0.55911 0.68675 0.53325 0.0
C2007 C 0.54196 0.67357 0.51576 0.0
C2008 C 0.52276 0.6566 0.52673 0.0
C2009 C 0.52136 0.65189 0.5542 0.0
C2010 C 0.52889 0.6687 0.44121 0.0
C2011 C 0.54684 0.66827 0.43045 0.0
C2012 C 0.52791 0.6721 0.46883 0.0
C2013 C 0.54492 0.67518 0.48603 0.0
C2014 C 0.5636 0.67643 0.47469 0.0
C2015 C 0.56448 0.67289 0.44714 0.0
loop_
_geom_bond_atom_site_label_1
_geom_bond_atom_site_label_2
_geom_bond_distance
_geom_bond_site_symmetry_2
_ccdc_geom_bond_type
Co0 O3 1.970 . S
Co0 N17 1.989 . S
Co0 O25 1.967 . S
Co0 O32 1.920 . S
Co1 O4 1.966 . S
Co1 N10 2.022 . S
Co1 N18 1.993 . S
Co1 O26 1.941 . S
C2 O3 1.258 . S
C2 O4 1.263 . S
O3 Co0 1.970 . S
O3 C2 1.258 . S
O4 Co1 1.966 . S
O4 C2 1.263 . S
C5 O6 1.235 . S
C5 O32 1.289 . S
O6 C5 1.235 . S
C7 C9 1.400 . S
C7 N10 1.351 . S
C7 C12 1.501 . S
C8 C9 1.387 . S
C8 N11 1.341 . S
C9 C7 1.400 . S
C9 C8 1.387 . S
N10 Co1 2.022 . S
N10 C7 1.351 . S
N10 N11 1.365 . S
N11 C8 1.341 . S
N11 N10 1.365 . S
N11 H31 0.862 . S
C12 C7 1.501 . S
C12 H13 0.961 . S
C12 H14 0.961 . S
C12 H15 0.960 . S
H13 C12 0.961 . S
H14 C12 0.961 . S
H15 C12 0.960 . S
C16 N17 1.342 . S
C16 C20 1.401 . S
C16 C21 1.499 . S
N17 Co0 1.989 . S
N17 C16 1.342 . S
N17 N18 1.388 . S
N18 Co1 1.993 . S
N18 N17 1.388 . S
N18 C19 1.346 . S
C19 N18 1.346 . S
C19 C20 1.396 . S
C19 C29 1.510 . S
C20 C16 1.401 . S
C20 C19 1.396 . S
C21 C16 1.499 . S
C21 H22 0.959 . S
C21 H23 0.960 . S
C21 H24 0.961 . S
H22 C21 0.959 . S
H23 C21 0.960 . S
H24 C21 0.961 . S
O25 Co0 1.967 . S
O25 C33 1.258 . S
O26 Co1 1.941 . S
O26 C33 1.266 . S
H27 C29 0.959 . S
H28 C29 0.961 . S
C29 C19 1.510 . S
C29 H27 0.959 . S
C29 H28 0.961 . S
C29 H30 0.960 . S
H30 C29 0.960 . S
H31 N11 0.862 . S
O32 Co0 1.920 . S
O32 C5 1.289 . S
C33 O25 1.258 . S
C33 O26 1.266 . S
Co34 O37 1.970 . S
Co34 N51 1.989 . S
Co34 O59 1.967 . S
Co34 O66 1.920 . S
Co35 O38 1.966 . S
Co35 N44 2.022 . S
Co35 N52 1.993 . S
Co35 O60 1.941 . S
C36 O37 1.258 . S
C36 O38 1.263 . S
O37 Co34 1.970 . S
O37 C36 1.258 . S
O38 Co35 1.966 . S
O38 C36 1.263 . S
C39 O40 1.235 . S
C39 O66 1.289 . S
O40 C39 1.235 . S
C41 C43 1.400 . S
C41 N44 1.351 . S
C41 C46 1.501 . S
C42 C43 1.387 . S
C42 N45 1.341 . S
C43 C41 1.400 . S
C43 C42 1.387 . S
N44 Co35 2.022 . S
N44 C41 1.351 . S
N44 N45 1.365 . S
N45 C42 1.341 . S
N45 N44 1.365 . S
N45 H65 0.862 . S
C46 C41 1.501 . S
C46 H47 0.961 . S
C46 H48 0.961 . S
C46 H49 0.960 . S
H47 C46 0.961 . S
H48 C46 0.961 . S
H49 C46 0.960 . S
C50 N51 1.342 . S
C50 C54 1.401 . S
C50 C55 1.499 . S
N51 Co34 1.989 . S
N51 C50 1.342 . S
N51 N52 1.388 . S
N52 Co35 1.993 . S
N52 N51 1.388 . S
N52 C53 1.346 . S
C53 N52 1.346 . S
C53 C54 1.396 . S
C53 C63 1.510 . S
C54 C50 1.401 . S
C54 C53 1.396 . S
C55 C50 1.499 . S
C55 H56 0.959 . S
C55 H57 0.960 . S
C55 H58 0.961 . S
H56 C55 0.959 . S
H57 C55 0.960 . S
H58 C55 0.961 . S
O59 Co34 1.967 . S
O59 C67 1.258 . S
O60 Co35 1.941 . S
O60 C67 1.266 . S
H61 C63 0.959 . S
H62 C63 0.961 . S
C63 C53 1.510 . S
C63 H61 0.959 . S
C63 H62 0.961 . S
C63 H64 0.960 . S
H64 C63 0.960 . S
H65 N45 0.862 . S
O66 Co34 1.920 . S
O66 C39 1.289 . S
C67 O59 1.258 . S
C67 O60 1.266 . S
Co68 O71 1.970 . S
Co68 N85 1.989 . S
Co68 O93 1.967 . S
Co68 O100 1.920 . S
Co69 O72 1.966 . S
Co69 N78 2.022 . S
Co69 N86 1.993 . S
Co69 O94 1.941 . S
C70 O71 1.258 . S
C70 O72 1.263 . S
O71 Co68 1.970 . S
O71 C70 1.258 . S
O72 Co69 1.966 . S
O72 C70 1.263 . S
C73 O74 1.235 . S
C73 O100 1.289 . S
O74 C73 1.235 . S
C75 C77 1.400 . S
C75 N78 1.351 . S
C75 C80 1.501 . S
C76 C77 1.387 . S
C76 N79 1.341 . S
C77 C75 1.400 . S
C77 C76 1.387 . S
N78 Co69 2.022 . S
N78 C75 1.351 . S
N78 N79 1.365 . S
N79 C76 1.341 . S
N79 N78 1.365 . S
N79 H99 0.862 . S
C80 C75 1.501 . S
C80 H81 0.961 . S
C80 H82 0.961 . S
C80 H83 0.960 . S
H81 C80 0.961 . S
H82 C80 0.961 . S
H83 C80 0.960 . S
C84 N85 1.342 . S
C84 C88 1.401 . S
C84 C89 1.499 . S
N85 Co68 1.989 . S
N85 C84 1.342 . S
N85 N86 1.388 . S
N86 Co69 1.993 . S
N86 N85 1.388 . S
N86 C87 1.346 . S
C87 N86 1.346 . S
C87 C88 1.396 . S
C87 C97 1.510 . S
C88 C84 1.401 . S
C88 C87 1.396 . S
C89 C84 1.499 . S
C89 H90 0.959 . S
C89 H91 0.960 . S
C89 H92 0.961 . S
H90 C89 0.959 . S
H91 C89 0.960 . S
H92 C89 0.961 . S
O93 Co68 1.967 . S
O93 C101 1.258 . S
O94 Co69 1.941 . S
O94 C101 1.266 . S
H95 C97 0.959 . S
H96 C97 0.961 . S
C97 C87 1.510 . S
C97 H95 0.959 . S
C97 H96 0.961 . S
C97 H98 0.960 . S
H98 C97 0.960 . S
H99 N79 0.862 . S
O100 Co68 1.920 . S
O100 C73 1.289 . S
C101 O93 1.258 . S
C101 O94 1.266 . S
Co102 O105 1.970 . S
Co102 N119 1.989 . S
Co102 O127 1.967 . S
Co102 O134 1.920 . S
Co103 O106 1.966 . S
Co103 N112 2.022 . S
Co103 N120 1.993 . S
Co103 O128 1.941 . S
C104 O105 1.258 . S
C104 O106 1.263 . S
O105 Co102 1.970 . S
O105 C104 1.258 . S
O106 Co103 1.966 . S
O106 C104 1.263 . S
C107 O108 1.235 . S
C107 O134 1.289 . S
O108 C107 1.235 . S
C109 C111 1.400 . S
C109 N112 1.351 . S
C109 C114 1.501 . S
C110 C111 1.387 . S
C110 N113 1.341 . S
C111 C109 1.400 . S
C111 C110 1.387 . S
N112 Co103 2.022 . S
N112 C109 1.351 . S
N112 N113 1.365 . S
N113 C110 1.341 . S
N113 N112 1.365 . S
N113 H133 0.862 . S
C114 C109 1.501 . S
C114 H115 0.961 . S
C114 H116 0.961 . S
C114 H117 0.960 . S
H115 C114 0.961 . S
H116 C114 0.961 . S
H117 C114 0.960 . S
C118 N119 1.342 . S
C118 C122 1.401 . S
C118 C123 1.499 . S
N119 Co102 1.989 . S
N119 C118 1.342 . S
N119 N120 1.388 . S
N120 Co103 1.993 . S
N120 N119 1.388 . S
N120 C121 1.346 . S
C121 N120 1.346 . S
C121 C122 1.396 . S
C121 C131 1.510 . S
C122 C118 1.401 . S
C122 C121 1.396 . S
C123 C118 1.499 . S
C123 H124 0.959 . S
C123 H125 0.960 . S
C123 H126 0.961 . S
H124 C123 0.959 . S
H125 C123 0.960 . S
H126 C123 0.961 . S
O127 Co102 1.967 . S
O127 C135 1.258 . S
O128 Co103 1.941 . S
O128 C135 1.266 . S
H129 C131 0.959 . S
H130 C131 0.961 . S
C131 C121 1.510 . S
C131 H129 0.959 . S
C131 H130 0.961 . S
C131 H132 0.960 . S
H132 C131 0.960 . S
H133 N113 0.862 . S
O134 Co102 1.920 . S
O134 C107 1.289 . S
C135 O127 1.258 . S
C135 O128 1.266 . S
Co136 O139 1.970 . S
Co136 N153 1.989 . S
Co136 O161 1.967 . S
Co136 O168 1.920 . S
Co137 O140 1.966 . S
Co137 N146 2.022 . S
Co137 N154 1.993 . S
Co137 O162 1.941 . S
C138 O139 1.258 . S
C138 O140 1.263 . S
O139 Co136 1.970 . S
O139 C138 1.258 . S
O140 Co137 1.966 . S
O140 C138 1.263 . S
C141 O142 1.235 . S
C141 O168 1.289 . S
O142 C141 1.235 . S
C143 C145 1.400 . S
C143 N146 1.351 . S
C143 C148 1.501 . S
C144 C145 1.387 . S
C144 N147 1.341 . S
C145 C143 1.400 . S
C145 C144 1.387 . S
N146 Co137 2.022 . S
N146 C143 1.351 . S
N146 N147 1.365 . S
N147 C144 1.341 . S
N147 N146 1.365 . S
N147 H167 0.862 . S
C148 C143 1.501 . S
C148 H149 0.961 . S
C148 H150 0.961 . S
C148 H151 0.960 . S
H149 C148 0.961 . S
H150 C148 0.961 . S
H151 C148 0.960 . S
C152 N153 1.342 . S
C152 C156 1.401 . S
C152 C157 1.499 . S
N153 Co136 1.989 . S
N153 C152 1.342 . S
N153 N154 1.388 . S
N154 Co137 1.993 . S
N154 N153 1.388 . S
N154 C155 1.346 . S
C155 N154 1.346 . S
C155 C156 1.396 . S
C155 C165 1.510 . S
C156 C152 1.401 . S
C156 C155 1.396 . S
C157 C152 1.499 . S
C157 H158 0.959 . S
C157 H159 0.960 . S
C157 H160 0.961 . S
H158 C157 0.959 . S
H159 C157 0.960 . S
H160 C157 0.961 . S
O161 Co136 1.967 . S
O161 C169 1.258 . S
O162 Co137 1.941 . S
O162 C169 1.266 . S
H163 C165 0.959 . S
H164 C165 0.961 . S
C165 C155 1.510 . S
C165 H163 0.959 . S
C165 H164 0.961 . S
C165 H166 0.960 . S
H166 C165 0.960 . S
H167 N147 0.862 . S
O168 Co136 1.920 . S
O168 C141 1.289 . S
C169 O161 1.258 . S
C169 O162 1.266 . S
Co170 O173 1.970 . S
Co170 N187 1.989 . S
Co170 O195 1.967 . S
Co170 O202 1.920 . S
Co171 O174 1.966 . S
Co171 N180 2.022 . S
Co171 N188 1.993 . S
Co171 O196 1.941 . S
C172 O173 1.258 . S
C172 O174 1.263 . S
O173 Co170 1.970 . S
O173 C172 1.258 . S
O174 Co171 1.966 . S
O174 C172 1.263 . S
C175 O176 1.235 . S
C175 O202 1.289 . S
O176 C175 1.235 . S
C177 C179 1.400 . S
C177 N180 1.351 . S
C177 C182 1.501 . S
C178 C179 1.387 . S
C178 N181 1.341 . S
C179 C177 1.400 . S
C179 C178 1.387 . S
N180 Co171 2.022 . S
N180 C177 1.351 . S
N180 N181 1.365 . S
N181 C178 1.341 . S
N181 N180 1.365 . S
N181 H201 0.862 . S
C182 C177 1.501 . S
C182 H183 0.961 . S
C182 H184 0.961 . S
C182 H185 0.960 . S
H183 C182 0.961 . S
H184 C182 0.961 . S
H185 C182 0.960 . S
C186 N187 1.342 . S
C186 C190 1.401 . S
C186 C191 1.499 . S
N187 Co170 1.989 . S
N187 C186 1.342 . S
N187 N188 1.388 . S
N188 Co171 1.993 . S
N188 N187 1.388 . S
N188 C189 1.346 . S
C189 N188 1.346 . S
C189 C190 1.396 . S
C189 C199 1.510 . S
C190 C186 1.401 . S
C190 C189 1.396 . S
C191 C186 1.499 . S
C191 H192 0.959 . S
C191 H193 0.960 . S
C191 H194 0.961 . S
H192 C191 0.959 . S
H193 C191 0.960 . S
H194 C191 0.961 . S
O195 Co170 1.967 . S
O195 C203 1.258 . S
O196 Co171 1.941 . S
O196 C203 1.266 . S
H197 C199 0.959 . S
H198 C199 0.961 . S
C199 C189 1.510 . S
C199 H197 0.959 . S
C199 H198 0.961 . S
C199 H200 0.960 . S
H200 C199 0.960 . S
H201 N181 0.862 . S
O202 Co170 1.920 . S
O202 C175 1.289 . S
C203 O195 1.258 . S
C203 O196 1.266 . S
Co204 O207 1.970 . S
Co204 N221 1.989 . S
Co204 O229 1.967 . S
Co204 O236 1.920 . S
Co205 O208 1.966 . S
Co205 N214 2.022 . S
Co205 N222 1.993 . S
Co205 O230 1.941 . S
C206 O207 1.258 . S
C206 O208 1.263 . S
O207 Co204 1.970 . S
O207 C206 1.258 . S
O208 Co205 1.966 . S
O208 C206 1.263 . S
C209 O210 1.235 . S
C209 O236 1.289 . S
O210 C209 1.235 . S
C211 C213 1.400 . S
C211 N214 1.351 . S
C211 C216 1.501 . S
C212 C213 1.387 . S
C212 N215 1.341 . S
C213 C211 1.400 . S
C213 C212 1.387 . S
N214 Co205 2.022 . S
N214 C211 1.351 . S
N214 N215 1.365 . S
N215 C212 1.341 . S
N215 N214 1.365 . S
N215 H235 0.862 . S
C216 C211 1.501 . S
C216 H217 0.961 . S
C216 H218 0.961 . S
C216 H219 0.960 . S
H217 C216 0.961 . S
H218 C216 0.961 . S
H219 C216 0.960 . S
C220 N221 1.342 . S
C220 C224 1.401 . S
C220 C225 1.499 . S
N221 Co204 1.989 . S
N221 C220 1.342 . S
N221 N222 1.388 . S
N222 Co205 1.993 . S
N222 N221 1.388 . S
N222 C223 1.346 . S
C223 N222 1.346 . S
C223 C224 1.396 . S
C223 C233 1.510 . S
C224 C220 1.401 . S
C224 C223 1.396 . S
C225 C220 1.499 . S
C225 H226 0.959 . S
C225 H227 0.960 . S
C225 H228 0.961 . S
H226 C225 0.959 . S
H227 C225 0.960 . S
H228 C225 0.961 . S
O229 Co204 1.967 . S
O229 C237 1.258 . S
O230 Co205 1.941 . S
O230 C237 1.266 . S
H231 C233 0.959 . S
H232 C233 0.961 . S
C233 C223 1.510 . S
C233 H231 0.959 . S
C233 H232 0.961 . S
C233 H234 0.960 . S
H234 C233 0.960 . S
H235 N215 0.862 . S
O236 Co204 1.920 . S
O236 C209 1.289 . S
C237 O229 1.258 . S
C237 O230 1.266 . S
Co238 O241 1.970 . S
Co238 N255 1.989 . S
Co238 O263 1.967 . S
Co238 O270 1.920 . S
Co239 O242 1.966 . S
Co239 N248 2.022 . S
Co239 N256 1.993 . S
Co239 O264 1.941 . S
C240 O241 1.258 . S
C240 O242 1.263 . S
O241 Co238 1.970 . S
O241 C240 1.258 . S
O242 Co239 1.966 . S
O242 C240 1.263 . S
C243 O244 1.235 . S
C243 O270 1.289 . S
O244 C243 1.235 . S
C245 C247 1.400 . S
C245 N248 1.351 . S
C245 C250 1.501 . S
C246 C247 1.387 . S
C246 N249 1.341 . S
C247 C245 1.400 . S
C247 C246 1.387 . S
N248 Co239 2.022 . S
N248 C245 1.351 . S
N248 N249 1.365 . S
N249 C246 1.341 . S
N249 N248 1.365 . S
N249 H269 0.862 . S
C250 C245 1.501 . S
C250 H251 0.961 . S
C250 H252 0.961 . S
C250 H253 0.960 . S
H251 C250 0.961 . S
H252 C250 0.961 . S
H253 C250 0.960 . S
C254 N255 1.342 . S
C254 C258 1.401 . S
C254 C259 1.499 . S
N255 Co238 1.989 . S
N255 C254 1.342 . S
N255 N256 1.388 . S
N256 Co239 1.993 . S
N256 N255 1.388 . S
N256 C257 1.346 . S
C257 N256 1.346 . S
C257 C258 1.396 . S
C257 C267 1.510 . S
C258 C254 1.401 . S
C258 C257 1.396 . S
C259 C254 1.499 . S
C259 H260 0.959 . S
C259 H261 0.960 . S
C259 H262 0.961 . S
H260 C259 0.959 . S
H261 C259 0.960 . S
H262 C259 0.961 . S
O263 Co238 1.967 . S
O263 C271 1.258 . S
O264 Co239 1.941 . S
O264 C271 1.266 . S
H265 C267 0.959 . S
H266 C267 0.961 . S
C267 C257 1.510 . S
C267 H265 0.959 . S
C267 H266 0.961 . S
C267 H268 0.960 . S
H268 C267 0.960 . S
H269 N249 0.862 . S
O270 Co238 1.920 . S
O270 C243 1.289 . S
C271 O263 1.258 . S
C271 O264 1.266 . S
Co272 O275 1.970 . S
Co272 N289 1.989 . S
Co272 O297 1.967 . S
Co272 O304 1.920 . S
Co273 O276 1.966 . S
Co273 N282 2.022 . S
Co273 N290 1.993 . S
Co273 O298 1.941 . S
C274 O275 1.258 . S
C274 O276 1.263 . S
O275 Co272 1.970 . S
O275 C274 1.258 . S
O276 Co273 1.966 . S
O276 C274 1.263 . S
C277 O278 1.235 . S
C277 O304 1.289 . S
O278 C277 1.235 . S
C279 C281 1.400 . S
C279 N282 1.351 . S
C279 C284 1.501 . S
C280 C281 1.387 . S
C280 N283 1.341 . S
C281 C279 1.400 . S
C281 C280 1.387 . S
N282 Co273 2.022 . S
N282 C279 1.351 . S
N282 N283 1.365 . S
N283 C280 1.341 . S
N283 N282 1.365 . S
N283 H303 0.862 . S
C284 C279 1.501 . S
C284 H285 0.961 . S
C284 H286 0.961 . S
C284 H287 0.960 . S
H285 C284 0.961 . S
H286 C284 0.961 . S
H287 C284 0.960 . S
C288 N289 1.342 . S
C288 C292 1.401 . S
C288 C293 1.499 . S
N289 Co272 1.989 . S
N289 C288 1.342 . S
N289 N290 1.388 . S
N290 Co273 1.993 . S
N290 N289 1.388 . S
N290 C291 1.346 . S
C291 N290 1.346 . S
C291 C292 1.396 . S
C291 C301 1.510 . S
C292 C288 1.401 . S
C292 C291 1.396 . S
C293 C288 1.499 . S
C293 H294 0.959 . S
C293 H295 0.960 . S
C293 H296 0.961 . S
H294 C293 0.959 . S
H295 C293 0.960 . S
H296 C293 0.961 . S
O297 Co272 1.967 . S
O297 C305 1.258 . S
O298 Co273 1.941 . S
O298 C305 1.266 . S
H299 C301 0.959 . S
H300 C301 0.961 . S
C301 C291 1.510 . S
C301 H299 0.959 . S
C301 H300 0.961 . S
C301 H302 0.960 . S
H302 C301 0.960 . S
H303 N283 0.862 . S
O304 Co272 1.920 . S
O304 C277 1.289 . S
C305 O297 1.258 . S
C305 O298 1.266 . S
Co306 O309 1.970 . S
Co306 N323 1.989 . S
Co306 O331 1.967 . S
Co306 O338 1.920 . S
Co307 O310 1.966 . S
Co307 N316 2.022 . S
Co307 N324 1.993 . S
Co307 O332 1.941 . S
C308 O309 1.258 . S
C308 O310 1.263 . S
O309 Co306 1.970 . S
O309 C308 1.258 . S
O310 Co307 1.966 . S
O310 C308 1.263 . S
C311 O312 1.235 . S
C311 O338 1.289 . S
O312 C311 1.235 . S
C313 C315 1.400 . S
C313 N316 1.351 . S
C313 C318 1.501 . S
C314 C315 1.387 . S
C314 N317 1.341 . S
C315 C313 1.400 . S
C315 C314 1.387 . S
N316 Co307 2.022 . S
N316 C313 1.351 . S
N316 N317 1.365 . S
N317 C314 1.341 . S
N317 N316 1.365 . S
N317 H337 0.862 . S
C318 C313 1.501 . S
C318 H319 0.961 . S
C318 H320 0.961 . S
C318 H321 0.960 . S
H319 C318 0.961 . S
H320 C318 0.961 . S
H321 C318 0.960 . S
C322 N323 1.342 . S
C322 C326 1.401 . S
C322 C327 1.499 . S
N323 Co306 1.989 . S
N323 C322 1.342 . S
N323 N324 1.388 . S
N324 Co307 1.993 . S
N324 N323 1.388 . S
N324 C325 1.346 . S
C325 N324 1.346 . S
C325 C326 1.396 . S
C325 C335 1.510 . S
C326 C322 1.401 . S
C326 C325 1.396 . S
C327 C322 1.499 . S
C327 H328 0.959 . S
C327 H329 0.960 . S
C327 H330 0.961 . S
H328 C327 0.959 . S
H329 C327 0.960 . S
H330 C327 0.961 . S
O331 Co306 1.967 . S
O331 C339 1.258 . S
O332 Co307 1.941 . S
O332 C339 1.266 . S
H333 C335 0.959 . S
H334 C335 0.961 . S
C335 C325 1.510 . S
C335 H333 0.959 . S
C335 H334 0.961 . S
C335 H336 0.960 . S
H336 C335 0.960 . S
H337 N317 0.862 . S
O338 Co306 1.920 . S
O338 C311 1.289 . S
C339 O331 1.258 . S
C339 O332 1.266 . S
Co340 O343 1.970 . S
Co340 N357 1.989 . S
Co340 O365 1.967 . S
Co340 O372 1.920 . S
Co341 O344 1.966 . S
Co341 N350 2.022 . S
Co341 N358 1.993 . S
Co341 O366 1.941 . S
C342 O343 1.258 . S
C342 O344 1.263 . S
O343 Co340 1.970 . S
O343 C342 1.258 . S
O344 Co341 1.966 . S
O344 C342 1.263 . S
C345 O346 1.235 . S
C345 O372 1.289 . S
O346 C345 1.235 . S
C347 C349 1.400 . S
C347 N350 1.351 . S
C347 C352 1.501 . S
C348 C349 1.387 . S
C348 N351 1.341 . S
C349 C347 1.400 . S
C349 C348 1.387 . S
N350 Co341 2.022 . S
N350 C347 1.351 . S
N350 N351 1.365 . S
N351 C348 1.341 . S
N351 N350 1.365 . S
N351 H371 0.862 . S
C352 C347 1.501 . S
C352 H353 0.961 . S
C352 H354 0.961 . S
C352 H355 0.960 . S
H353 C352 0.961 . S
H354 C352 0.961 . S
H355 C352 0.960 . S
C356 N357 1.342 . S
C356 C360 1.401 . S
C356 C361 1.499 . S
N357 Co340 1.989 . S
N357 C356 1.342 . S
N357 N358 1.388 . S
N358 Co341 1.993 . S
N358 N357 1.388 . S
N358 C359 1.346 . S
C359 N358 1.346 . S
C359 C360 1.396 . S
C359 C369 1.510 . S
C360 C356 1.401 . S
C360 C359 1.396 . S
C361 C356 1.499 . S
C361 H362 0.959 . S
C361 H363 0.960 . S
C361 H364 0.961 . S
H362 C361 0.959 . S
H363 C361 0.960 . S
H364 C361 0.961 . S
O365 Co340 1.967 . S
O365 C373 1.258 . S
O366 Co341 1.941 . S
O366 C373 1.266 . S
H367 C369 0.959 . S
H368 C369 0.961 . S
C369 C359 1.510 . S
C369 H367 0.959 . S
C369 H368 0.961 . S
C369 H370 0.960 . S
H370 C369 0.960 . S
H371 N351 0.862 . S
O372 Co340 1.920 . S
O372 C345 1.289 . S
C373 O365 1.258 . S
C373 O366 1.266 . S
Co374 O377 1.970 . S
Co374 N391 1.989 . S
Co374 O399 1.967 . S
Co374 O406 1.920 . S
Co375 O378 1.966 . S
Co375 N384 2.022 . S
Co375 N392 1.993 . S
Co375 O400 1.941 . S
C376 O377 1.258 . S
C376 O378 1.263 . S
O377 Co374 1.970 . S
O377 C376 1.258 . S
O378 Co375 1.966 . S
O378 C376 1.263 . S
C379 O380 1.235 . S
C379 O406 1.289 . S
O380 C379 1.235 . S
C381 C383 1.400 . S
C381 N384 1.351 . S
C381 C386 1.501 . S
C382 C383 1.387 . S
C382 N385 1.341 . S
C383 C381 1.400 . S
C383 C382 1.387 . S
N384 Co375 2.022 . S
N384 C381 1.351 . S
N384 N385 1.365 . S
N385 C382 1.341 . S
N385 N384 1.365 . S
N385 H405 0.862 . S
C386 C381 1.501 . S
C386 H387 0.961 . S
C386 H388 0.961 . S
C386 H389 0.960 . S
H387 C386 0.961 . S
H388 C386 0.961 . S
H389 C386 0.960 . S
C390 N391 1.342 . S
C390 C394 1.401 . S
C390 C395 1.499 . S
N391 Co374 1.989 . S
N391 C390 1.342 . S
N391 N392 1.388 . S
N392 Co375 1.993 . S
N392 N391 1.388 . S
N392 C393 1.346 . S
C393 N392 1.346 . S
C393 C394 1.396 . S
C393 C403 1.510 . S
C394 C390 1.401 . S
C394 C393 1.396 . S
C395 C390 1.499 . S
C395 H396 0.959 . S
C395 H397 0.960 . S
C395 H398 0.961 . S
H396 C395 0.959 . S
H397 C395 0.960 . S
H398 C395 0.961 . S
O399 Co374 1.967 . S
O399 C407 1.258 . S
O400 Co375 1.941 . S
O400 C407 1.266 . S
H401 C403 0.959 . S
H402 C403 0.961 . S
C403 C393 1.510 . S
C403 H401 0.959 . S
C403 H402 0.961 . S
C403 H404 0.960 . S
H404 C403 0.960 . S
H405 N385 0.862 . S
O406 Co374 1.920 . S
O406 C379 1.289 . S
C407 O399 1.258 . S
C407 O400 1.266 . S
Co408 O411 1.970 . S
Co408 N425 1.989 . S
Co408 O433 1.967 . S
Co408 O440 1.920 . S
Co409 O412 1.966 . S
Co409 N418 2.022 . S
Co409 N426 1.993 . S
Co409 O434 1.941 . S
C410 O411 1.258 . S
C410 O412 1.263 . S
O411 Co408 1.970 . S
O411 C410 1.258 . S
O412 Co409 1.966 . S
O412 C410 1.263 . S
C413 O414 1.235 . S
C413 O440 1.289 . S
O414 C413 1.235 . S
C415 C417 1.400 . S
C415 N418 1.351 . S
C415 C420 1.501 . S
C416 C417 1.387 . S
C416 N419 1.341 . S
C417 C415 1.400 . S
C417 C416 1.387 . S
N418 Co409 2.022 . S
N418 C415 1.351 . S
N418 N419 1.365 . S
N419 C416 1.341 . S
N419 N418 1.365 . S
N419 H439 0.862 . S
C420 C415 1.501 . S
C420 H421 0.961 . S
C420 H422 0.961 . S
C420 H423 0.960 . S
H421 C420 0.961 . S
H422 C420 0.961 . S
H423 C420 0.960 . S
C424 N425 1.342 . S
C424 C428 1.401 . S
C424 C429 1.499 . S
N425 Co408 1.989 . S
N425 C424 1.342 . S
N425 N426 1.388 . S
N426 Co409 1.993 . S
N426 N425 1.388 . S
N426 C427 1.346 . S
C427 N426 1.346 . S
C427 C428 1.396 . S
C427 C437 1.510 . S
C428 C424 1.401 . S
C428 C427 1.396 . S
C429 C424 1.499 . S
C429 H430 0.959 . S
C429 H431 0.960 . S
C429 H432 0.961 . S
H430 C429 0.959 . S
H431 C429 0.960 . S
H432 C429 0.961 . S
O433 Co408 1.967 . S
O433 C441 1.258 . S
O434 Co409 1.941 . S
O434 C441 1.266 . S
H435 C437 0.959 . S
H436 C437 0.961 . S
C437 C427 1.510 . S
C437 H435 0.959 . S
C437 H436 0.961 . S
C437 H438 0.960 . S
H438 C437 0.960 . S
H439 N419 0.862 . S
O440 Co408 1.920 . S
O440 C413 1.289 . S
C441 O433 1.258 . S
C441 O434 1.266 . S
Co442 O445 1.970 . S
Co442 N459 1.989 . S
Co442 O467 1.967 . S
Co442 O474 1.920 . S
Co443 O446 1.966 . S
Co443 N452 2.022 . S
Co443 N460 1.993 . S
Co443 O468 1.941 . S
C444 O445 1.258 . S
C444 O446 1.263 . S
O445 Co442 1.970 . S
O445 C444 1.258 . S
O446 Co443 1.966 . S
O446 C444 1.263 . S
C447 O448 1.235 . S
C447 O474 1.289 . S
O448 C447 1.235 . S
C449 C451 1.400 . S
C449 N452 1.351 . S
C449 C454 1.501 . S
C450 C451 1.387 . S
C450 N453 1.341 . S
C451 C449 1.400 . S
C451 C450 1.387 . S
N452 Co443 2.022 . S
N452 C449 1.351 . S
N452 N453 1.365 . S
N453 C450 1.341 . S
N453 N452 1.365 . S
N453 H473 0.862 . S
C454 C449 1.501 . S
C454 H455 0.961 . S
C454 H456 0.961 . S
C454 H457 0.960 . S
H455 C454 0.961 . S
H456 C454 0.961 . S
H457 C454 0.960 . S
C458 N459 1.342 . S
C458 C462 1.401 . S
C458 C463 1.499 . S
N459 Co442 1.989 . S
N459 C458 1.342 . S
N459 N460 1.388 . S
N460 Co443 1.993 . S
N460 N459 1.388 . S
N460 C461 1.346 . S
C461 N460 1.346 . S
C461 C462 1.396 . S
C461 C471 1.510 . S
C462 C458 1.401 . S
C462 C461 1.396 . S
C463 C458 1.499 . S
C463 H464 0.959 . S
C463 H465 0.960 . S
C463 H466 0.961 . S
H464 C463 0.959 . S
H465 C463 0.960 . S
H466 C463 0.961 . S
O467 Co442 1.967 . S
O467 C475 1.258 . S
O468 Co443 1.941 . S
O468 C475 1.266 . S
H469 C471 0.959 . S
H470 C471 0.961 . S
C471 C461 1.510 . S
C471 H469 0.959 . S
C471 H470 0.961 . S
C471 H472 0.960 . S
H472 C471 0.960 . S
H473 N453 0.862 . S
O474 Co442 1.920 . S
O474 C447 1.289 . S
C475 O467 1.258 . S
C475 O468 1.266 . S
Co476 O479 1.970 . S
Co476 N493 1.989 . S
Co476 O501 1.967 . S
Co476 O508 1.920 . S
Co477 O480 1.966 . S
Co477 N486 2.022 . S
Co477 N494 1.993 . S
Co477 O502 1.941 . S
C478 O479 1.258 . S
C478 O480 1.263 . S
O479 Co476 1.970 . S
O479 C478 1.258 . S
O480 Co477 1.966 . S
O480 C478 1.263 . S
C481 O482 1.235 . S
C481 O508 1.289 . S
O482 C481 1.235 . S
C483 C485 1.400 . S
C483 N486 1.351 . S
C483 C488 1.501 . S
C484 C485 1.387 . S
C484 N487 1.341 . S
C485 C483 1.400 . S
C485 C484 1.387 . S
N486 Co477 2.022 . S
N486 C483 1.351 . S
N486 N487 1.365 . S
N487 C484 1.341 . S
N487 N486 1.365 . S
N487 H507 0.862 . S
C488 C483 1.501 . S
C488 H489 0.961 . S
C488 H490 0.961 . S
C488 H491 0.960 . S
H489 C488 0.961 . S
H490 C488 0.961 . S
H491 C488 0.960 . S
C492 N493 1.342 . S
C492 C496 1.401 . S
C492 C497 1.499 . S
N493 Co476 1.989 . S
N493 C492 1.342 . S
N493 N494 1.388 . S
N494 Co477 1.993 . S
N494 N493 1.388 . S
N494 C495 1.346 . S
C495 N494 1.346 . S
C495 C496 1.396 . S
C495 C505 1.510 . S
C496 C492 1.401 . S
C496 C495 1.396 . S
C497 C492 1.499 . S
C497 H498 0.959 . S
C497 H499 0.960 . S
C497 H500 0.961 . S
H498 C497 0.959 . S
H499 C497 0.960 . S
H500 C497 0.961 . S
O501 Co476 1.967 . S
O501 C509 1.258 . S
O502 Co477 1.941 . S
O502 C509 1.266 . S
H503 C505 0.959 . S
H504 C505 0.961 . S
C505 C495 1.510 . S
C505 H503 0.959 . S
C505 H504 0.961 . S
C505 H506 0.960 . S
H506 C505 0.960 . S
H507 N487 0.862 . S
O508 Co476 1.920 . S
O508 C481 1.289 . S
C509 O501 1.258 . S
C509 O502 1.266 . S
Co510 O513 1.970 . S
Co510 N527 1.989 . S
Co510 O535 1.967 . S
Co510 O542 1.920 . S
Co511 O514 1.966 . S
Co511 N520 2.022 . S
Co511 N528 1.993 . S
Co511 O536 1.941 . S
C512 O513 1.258 . S
C512 O514 1.263 . S
O513 Co510 1.970 . S
O513 C512 1.258 . S
O514 Co511 1.966 . S
O514 C512 1.263 . S
C515 O516 1.235 . S
C515 O542 1.289 . S
O516 C515 1.235 . S
C517 C519 1.400 . S
C517 N520 1.351 . S
C517 C522 1.501 . S
C518 C519 1.387 . S
C518 N521 1.341 . S
C519 C517 1.400 . S
C519 C518 1.387 . S
N520 Co511 2.022 . S
N520 C517 1.351 . S
N520 N521 1.365 . S
N521 C518 1.341 . S
N521 N520 1.365 . S
N521 H541 0.862 . S
C522 C517 1.501 . S
C522 H523 0.961 . S
C522 H524 0.961 . S
C522 H525 0.960 . S
H523 C522 0.961 . S
H524 C522 0.961 . S
H525 C522 0.960 . S
C526 N527 1.342 . S
C526 C530 1.401 . S
C526 C531 1.499 . S
N527 Co510 1.989 . S
N527 C526 1.342 . S
N527 N528 1.388 . S
N528 Co511 1.993 . S
N528 N527 1.388 . S
N528 C529 1.346 . S
C529 N528 1.346 . S
C529 C530 1.396 . S
C529 C539 1.510 . S
C530 C526 1.401 . S
C530 C529 1.396 . S
C531 C526 1.499 . S
C531 H532 0.959 . S
C531 H533 0.960 . S
C531 H534 0.961 . S
H532 C531 0.959 . S
H533 C531 0.960 . S
H534 C531 0.961 . S
O535 Co510 1.967 . S
O535 C543 1.258 . S
O536 Co511 1.941 . S
O536 C543 1.266 . S
H537 C539 0.959 . S
H538 C539 0.961 . S
C539 C529 1.510 . S
C539 H537 0.959 . S
C539 H538 0.961 . S
C539 H540 0.960 . S
H540 C539 0.960 . S
H541 N521 0.862 . S
O542 Co510 1.920 . S
O542 C515 1.289 . S
C543 O535 1.258 . S
C543 O536 1.266 . S
Co544 O547 1.970 . S
Co544 N561 1.989 . S
Co544 O569 1.967 . S
Co544 O576 1.920 . S
Co545 O548 1.966 . S
Co545 N554 2.022 . S
Co545 N562 1.993 . S
Co545 O570 1.941 . S
C546 O547 1.258 . S
C546 O548 1.263 . S
O547 Co544 1.970 . S
O547 C546 1.258 . S
O548 Co545 1.966 . S
O548 C546 1.263 . S
C549 O550 1.235 . S
C549 O576 1.289 . S
O550 C549 1.235 . S
C551 C553 1.400 . S
C551 N554 1.351 . S
C551 C556 1.501 . S
C552 C553 1.387 . S
C552 N555 1.341 . S
C553 C551 1.400 . S
C553 C552 1.387 . S
N554 Co545 2.022 . S
N554 C551 1.351 . S
N554 N555 1.365 . S
N555 C552 1.341 . S
N555 N554 1.365 . S
N555 H575 0.862 . S
C556 C551 1.501 . S
C556 H557 0.961 . S
C556 H558 0.961 . S
C556 H559 0.960 . S
H557 C556 0.961 . S
H558 C556 0.961 . S
H559 C556 0.960 . S
C560 N561 1.342 . S
C560 C564 1.401 . S
C560 C565 1.499 . S
N561 Co544 1.989 . S
N561 C560 1.342 . S
N561 N562 1.388 . S
N562 Co545 1.993 . S
N562 N561 1.388 . S
N562 C563 1.346 . S
C563 N562 1.346 . S
C563 C564 1.396 . S
C563 C573 1.510 . S
C564 C560 1.401 . S
C564 C563 1.396 . S
C565 C560 1.499 . S
C565 H566 0.959 . S
C565 H567 0.960 . S
C565 H568 0.961 . S
H566 C565 0.959 . S
H567 C565 0.960 . S
H568 C565 0.961 . S
O569 Co544 1.967 . S
O569 C577 1.258 . S
O570 Co545 1.941 . S
O570 C577 1.266 . S
H571 C573 0.959 . S
H572 C573 0.961 . S
C573 C563 1.510 . S
C573 H571 0.959 . S
C573 H572 0.961 . S
C573 H574 0.960 . S
H574 C573 0.960 . S
H575 N555 0.862 . S
O576 Co544 1.920 . S
O576 C549 1.289 . S
C577 O569 1.258 . S
C577 O570 1.266 . S
Co578 O581 1.970 . S
Co578 N595 1.989 . S
Co578 O603 1.967 . S
Co578 O610 1.920 . S
Co579 O582 1.966 . S
Co579 N588 2.022 . S
Co579 N596 1.993 . S
Co579 O604 1.941 . S
C580 O581 1.258 . S
C580 O582 1.263 . S
O581 Co578 1.970 . S
O581 C580 1.258 . S
O582 Co579 1.966 . S
O582 C580 1.263 . S
C583 O584 1.235 . S
C583 O610 1.289 . S
O584 C583 1.235 . S
C585 C587 1.400 . S
C585 N588 1.351 . S
C585 C590 1.501 . S
C586 C587 1.387 . S
C586 N589 1.341 . S
C587 C585 1.400 . S
C587 C586 1.387 . S
N588 Co579 2.022 . S
N588 C585 1.351 . S
N588 N589 1.365 . S
N589 C586 1.341 . S
N589 N588 1.365 . S
N589 H609 0.862 . S
C590 C585 1.501 . S
C590 H591 0.961 . S
C590 H592 0.961 . S
C590 H593 0.960 . S
H591 C590 0.961 . S
H592 C590 0.961 . S
H593 C590 0.960 . S
C594 N595 1.342 . S
C594 C598 1.401 . S
C594 C599 1.499 . S
N595 Co578 1.989 . S
N595 C594 1.342 . S
N595 N596 1.388 . S
N596 Co579 1.993 . S
N596 N595 1.388 . S
N596 C597 1.346 . S
C597 N596 1.346 . S
C597 C598 1.396 . S
C597 C607 1.510 . S
C598 C594 1.401 . S
C598 C597 1.396 . S
C599 C594 1.499 . S
C599 H600 0.959 . S
C599 H601 0.960 . S
C599 H602 0.961 . S
H600 C599 0.959 . S
H601 C599 0.960 . S
H602 C599 0.961 . S
O603 Co578 1.967 . S
O603 C611 1.258 . S
O604 Co579 1.941 . S
O604 C611 1.266 . S
H605 C607 0.959 . S
H606 C607 0.961 . S
C607 C597 1.510 . S
C607 H605 0.959 . S
C607 H606 0.961 . S
C607 H608 0.960 . S
H608 C607 0.960 . S
H609 N589 0.862 . S
O610 Co578 1.920 . S
O610 C583 1.289 . S
C611 O603 1.258 . S
C611 O604 1.266 . S
Co612 O615 1.970 . S
Co612 N629 1.989 . S
Co612 O637 1.967 . S
Co612 O644 1.920 . S
Co613 O616 1.966 . S
Co613 N622 2.022 . S
Co613 N630 1.993 . S
Co613 O638 1.941 . S
C614 O615 1.258 . S
C614 O616 1.263 . S
O615 Co612 1.970 . S
O615 C614 1.258 . S
O616 Co613 1.966 . S
O616 C614 1.263 . S
C617 O618 1.235 . S
C617 O644 1.289 . S
O618 C617 1.235 . S
C619 C621 1.400 . S
C619 N622 1.351 . S
C619 C624 1.501 . S
C620 C621 1.387 . S
C620 N623 1.341 . S
C621 C619 1.400 . S
C621 C620 1.387 . S
N622 Co613 2.022 . S
N622 C619 1.351 . S
N622 N623 1.365 . S
N623 C620 1.341 . S
N623 N622 1.365 . S
N623 H643 0.862 . S
C624 C619 1.501 . S
C624 H625 0.961 . S
C624 H626 0.961 . S
C624 H627 0.960 . S
H625 C624 0.961 . S
H626 C624 0.961 . S
H627 C624 0.960 . S
C628 N629 1.342 . S
C628 C632 1.401 . S
C628 C633 1.499 . S
N629 Co612 1.989 . S
N629 C628 1.342 . S
N629 N630 1.388 . S
N630 Co613 1.993 . S
N630 N629 1.388 . S
N630 C631 1.346 . S
C631 N630 1.346 . S
C631 C632 1.396 . S
C631 C641 1.510 . S
C632 C628 1.401 . S
C632 C631 1.396 . S
C633 C628 1.499 . S
C633 H634 0.959 . S
C633 H635 0.960 . S
C633 H636 0.961 . S
H634 C633 0.959 . S
H635 C633 0.960 . S
H636 C633 0.961 . S
O637 Co612 1.967 . S
O637 C645 1.258 . S
O638 Co613 1.941 . S
O638 C645 1.266 . S
H639 C641 0.959 . S
H640 C641 0.961 . S
C641 C631 1.510 . S
C641 H639 0.959 . S
C641 H640 0.961 . S
C641 H642 0.960 . S
H642 C641 0.960 . S
H643 N623 0.862 . S
O644 Co612 1.920 . S
O644 C617 1.289 . S
C645 O637 1.258 . S
C645 O638 1.266 . S
Co646 O649 1.970 . S
Co646 N663 1.989 . S
Co646 O671 1.967 . S
Co646 O678 1.920 . S
Co647 O650 1.966 . S
Co647 N656 2.022 . S
Co647 N664 1.993 . S
Co647 O672 1.941 . S
C648 O649 1.258 . S
C648 O650 1.263 . S
O649 Co646 1.970 . S
O649 C648 1.258 . S
O650 Co647 1.966 . S
O650 C648 1.263 . S
C651 O652 1.235 . S
C651 O678 1.289 . S
O652 C651 1.235 . S
C653 C655 1.400 . S
C653 N656 1.351 . S
C653 C658 1.501 . S
C654 C655 1.387 . S
C654 N657 1.341 . S
C655 C653 1.400 . S
C655 C654 1.387 . S
N656 Co647 2.022 . S
N656 C653 1.351 . S
N656 N657 1.365 . S
N657 C654 1.341 . S
N657 N656 1.365 . S
N657 H677 0.862 . S
C658 C653 1.501 . S
C658 H659 0.961 . S
C658 H660 0.961 . S
C658 H661 0.960 . S
H659 C658 0.961 . S
H660 C658 0.961 . S
H661 C658 0.960 . S
C662 N663 1.342 . S
C662 C666 1.401 . S
C662 C667 1.499 . S
N663 Co646 1.989 . S
N663 C662 1.342 . S
N663 N664 1.388 . S
N664 Co647 1.993 . S
N664 N663 1.388 . S
N664 C665 1.346 . S
C665 N664 1.346 . S
C665 C666 1.396 . S
C665 C675 1.510 . S
C666 C662 1.401 . S
C666 C665 1.396 . S
C667 C662 1.499 . S
C667 H668 0.959 . S
C667 H669 0.960 . S
C667 H670 0.961 . S
H668 C667 0.959 . S
H669 C667 0.960 . S
H670 C667 0.961 . S
O671 Co646 1.967 . S
O671 C679 1.258 . S
O672 Co647 1.941 . S
O672 C679 1.266 . S
H673 C675 0.959 . S
H674 C675 0.961 . S
C675 C665 1.510 . S
C675 H673 0.959 . S
C675 H674 0.961 . S
C675 H676 0.960 . S
H676 C675 0.960 . S
H677 N657 0.862 . S
O678 Co646 1.920 . S
O678 C651 1.289 . S
C679 O671 1.258 . S
C679 O672 1.266 . S
Co680 O683 1.970 . S
Co680 N697 1.989 . S
Co680 O705 1.967 . S
Co680 O712 1.920 . S
Co681 O684 1.966 . S
Co681 N690 2.022 . S
Co681 N698 1.993 . S
Co681 O706 1.941 . S
C682 O683 1.258 . S
C682 O684 1.263 . S
O683 Co680 1.970 . S
O683 C682 1.258 . S
O684 Co681 1.966 . S
O684 C682 1.263 . S
C685 O686 1.235 . S
C685 O712 1.289 . S
O686 C685 1.235 . S
C687 C689 1.400 . S
C687 N690 1.351 . S
C687 C692 1.501 . S
C688 C689 1.387 . S
C688 N691 1.341 . S
C689 C687 1.400 . S
C689 C688 1.387 . S
N690 Co681 2.022 . S
N690 C687 1.351 . S
N690 N691 1.365 . S
N691 C688 1.341 . S
N691 N690 1.365 . S
N691 H711 0.862 . S
C692 C687 1.501 . S
C692 H693 0.961 . S
C692 H694 0.961 . S
C692 H695 0.960 . S
H693 C692 0.961 . S
H694 C692 0.961 . S
H695 C692 0.960 . S
C696 N697 1.342 . S
C696 C700 1.401 . S
C696 C701 1.499 . S
N697 Co680 1.989 . S
N697 C696 1.342 . S
N697 N698 1.388 . S
N698 Co681 1.993 . S
N698 N697 1.388 . S
N698 C699 1.346 . S
C699 N698 1.346 . S
C699 C700 1.396 . S
C699 C709 1.510 . S
C700 C696 1.401 . S
C700 C699 1.396 . S
C701 C696 1.499 . S
C701 H702 0.959 . S
C701 H703 0.960 . S
C701 H704 0.961 . S
H702 C701 0.959 . S
H703 C701 0.960 . S
H704 C701 0.961 . S
O705 Co680 1.967 . S
O705 C713 1.258 . S
O706 Co681 1.941 . S
O706 C713 1.266 . S
H707 C709 0.959 . S
H708 C709 0.961 . S
C709 C699 1.510 . S
C709 H707 0.959 . S
C709 H708 0.961 . S
C709 H710 0.960 . S
H710 C709 0.960 . S
H711 N691 0.862 . S
O712 Co680 1.920 . S
O712 C685 1.289 . S
C713 O705 1.258 . S
C713 O706 1.266 . S
Co714 O717 1.970 . S
Co714 N731 1.989 . S
Co714 O739 1.967 . S
Co714 O746 1.920 . S
Co715 O718 1.966 . S
Co715 N724 2.022 . S
Co715 N732 1.993 . S
Co715 O740 1.941 . S
C716 O717 1.258 . S
C716 O718 1.263 . S
O717 Co714 1.970 . S
O717 C716 1.258 . S
O718 Co715 1.966 . S
O718 C716 1.263 . S
C719 O720 1.235 . S
C719 O746 1.289 . S
O720 C719 1.235 . S
C721 C723 1.400 . S
C721 N724 1.351 . S
C721 C726 1.501 . S
C722 C723 1.387 . S
C722 N725 1.341 . S
C723 C721 1.400 . S
C723 C722 1.387 . S
N724 Co715 2.022 . S
N724 C721 1.351 . S
N724 N725 1.365 . S
N725 C722 1.341 . S
N725 N724 1.365 . S
N725 H745 0.862 . S
C726 C721 1.501 . S
C726 H727 0.961 . S
C726 H728 0.961 . S
C726 H729 0.960 . S
H727 C726 0.961 . S
H728 C726 0.961 . S
H729 C726 0.960 . S
C730 N731 1.342 . S
C730 C734 1.401 . S
C730 C735 1.499 . S
N731 Co714 1.989 . S
N731 C730 1.342 . S
N731 N732 1.388 . S
N732 Co715 1.993 . S
N732 N731 1.388 . S
N732 C733 1.346 . S
C733 N732 1.346 . S
C733 C734 1.396 . S
C733 C743 1.510 . S
C734 C730 1.401 . S
C734 C733 1.396 . S
C735 C730 1.499 . S
C735 H736 0.959 . S
C735 H737 0.960 . S
C735 H738 0.961 . S
H736 C735 0.959 . S
H737 C735 0.960 . S
H738 C735 0.961 . S
O739 Co714 1.967 . S
O739 C747 1.258 . S
O740 Co715 1.941 . S
O740 C747 1.266 . S
H741 C743 0.959 . S
H742 C743 0.961 . S
C743 C733 1.510 . S
C743 H741 0.959 . S
C743 H742 0.961 . S
C743 H744 0.960 . S
H744 C743 0.960 . S
H745 N725 0.862 . S
O746 Co714 1.920 . S
O746 C719 1.289 . S
C747 O739 1.258 . S
C747 O740 1.266 . S
Co748 O751 1.970 . S
Co748 N765 1.989 . S
Co748 O773 1.967 . S
Co748 O780 1.920 . S
Co749 O752 1.966 . S
Co749 N758 2.022 . S
Co749 N766 1.993 . S
Co749 O774 1.941 . S
C750 O751 1.258 . S
C750 O752 1.263 . S
O751 Co748 1.970 . S
O751 C750 1.258 . S
O752 Co749 1.966 . S
O752 C750 1.263 . S
C753 O754 1.235 . S
C753 O780 1.289 . S
O754 C753 1.235 . S
C755 C757 1.400 . S
C755 N758 1.351 . S
C755 C760 1.501 . S
C756 C757 1.387 . S
C756 N759 1.341 . S
C757 C755 1.400 . S
C757 C756 1.387 . S
N758 Co749 2.022 . S
N758 C755 1.351 . S
N758 N759 1.365 . S
N759 C756 1.341 . S
N759 N758 1.365 . S
N759 H779 0.862 . S
C760 C755 1.501 . S
C760 H761 0.961 . S
C760 H762 0.961 . S
C760 H763 0.960 . S
H761 C760 0.961 . S
H762 C760 0.961 . S
H763 C760 0.960 . S
C764 N765 1.342 . S
C764 C768 1.401 . S
C764 C769 1.499 . S
N765 Co748 1.989 . S
N765 C764 1.342 . S
N765 N766 1.388 . S
N766 Co749 1.993 . S
N766 N765 1.388 . S
N766 C767 1.346 . S
C767 N766 1.346 . S
C767 C768 1.396 . S
C767 C777 1.510 . S
C768 C764 1.401 . S
C768 C767 1.396 . S
C769 C764 1.499 . S
C769 H770 0.959 . S
C769 H771 0.960 . S
C769 H772 0.961 . S
H770 C769 0.959 . S
H771 C769 0.960 . S
H772 C769 0.961 . S
O773 Co748 1.967 . S
O773 C781 1.258 . S
O774 Co749 1.941 . S
O774 C781 1.266 . S
H775 C777 0.959 . S
H776 C777 0.961 . S
C777 C767 1.510 . S
C777 H775 0.959 . S
C777 H776 0.961 . S
C777 H778 0.960 . S
H778 C777 0.960 . S
H779 N759 0.862 . S
O780 Co748 1.920 . S
O780 C753 1.289 . S
C781 O773 1.258 . S
C781 O774 1.266 . S
Co782 O785 1.970 . S
Co782 N799 1.989 . S
Co782 O807 1.967 . S
Co782 O814 1.920 . S
Co783 O786 1.966 . S
Co783 N792 2.022 . S
Co783 N800 1.993 . S
Co783 O808 1.941 . S
C784 O785 1.258 . S
C784 O786 1.263 . S
O785 Co782 1.970 . S
O785 C784 1.258 . S
O786 Co783 1.966 . S
O786 C784 1.263 . S
C787 O788 1.235 . S
C787 O814 1.289 . S
O788 C787 1.235 . S
C789 C791 1.400 . S
C789 N792 1.351 . S
C789 C794 1.501 . S
C790 C791 1.387 . S
C790 N793 1.341 . S
C791 C789 1.400 . S
C791 C790 1.387 . S
N792 Co783 2.022 . S
N792 C789 1.351 . S
N792 N793 1.365 . S
N793 C790 1.341 . S
N793 N792 1.365 . S
N793 H813 0.862 . S
C794 C789 1.501 . S
C794 H795 0.961 . S
C794 H796 0.961 . S
C794 H797 0.960 . S
H795 C794 0.961 . S
H796 C794 0.961 . S
H797 C794 0.960 . S
C798 N799 1.342 . S
C798 C802 1.401 . S
C798 C803 1.499 . S
N799 Co782 1.989 . S
N799 C798 1.342 . S
N799 N800 1.388 . S
N800 Co783 1.993 . S
N800 N799 1.388 . S
N800 C801 1.346 . S
C801 N800 1.346 . S
C801 C802 1.396 . S
C801 C811 1.510 . S
C802 C798 1.401 . S
C802 C801 1.396 . S
C803 C798 1.499 . S
C803 H804 0.959 . S
C803 H805 0.960 . S
C803 H806 0.961 . S
H804 C803 0.959 . S
H805 C803 0.960 . S
H806 C803 0.961 . S
O807 Co782 1.967 . S
O807 C815 1.258 . S
O808 Co783 1.941 . S
O808 C815 1.266 . S
H809 C811 0.959 . S
H810 C811 0.961 . S
C811 C801 1.510 . S
C811 H809 0.959 . S
C811 H810 0.961 . S
C811 H812 0.960 . S
H812 C811 0.960 . S
H813 N793 0.862 . S
O814 Co782 1.920 . S
O814 C787 1.289 . S
C815 O807 1.258 . S
C815 O808 1.266 . S
H816 C824 0.950 . S
H817 C829 0.950 . S
H818 C826 0.950 1_565 S
H819 C828 0.950 . S
H820 C830 0.950 . S
H821 C832 0.950 1_545 S
H822 C834 0.950 . S
H823 C835 0.950 . S
C824 H816 0.950 . S
C824 C825 1.386 . S
C824 C826 1.391 . S
C825 C824 1.386 . S
C825 C829 1.393 . S
C826 H818 0.950 1_545 S
C826 C824 1.391 . S
C826 C827 1.400 . S
C827 C826 1.400 . S
C827 C828 1.398 . S
C827 C833 1.491 1_545 S
C828 H819 0.950 . S
C828 C827 1.398 . S
C828 C829 1.391 . S
C829 H817 0.950 . S
C829 C825 1.393 . S
C829 C828 1.391 . S
C830 H820 0.950 . S
C830 C831 1.386 . S
C830 C832 1.391 . S
C831 C830 1.386 . S
C831 C835 1.393 . S
C832 H821 0.950 1_565 S
C832 C830 1.391 . S
C832 C833 1.400 . S
C833 C827 1.491 1_565 S
C833 C832 1.400 . S
C833 C834 1.398 . S
C834 H822 0.950 . S
C834 C833 1.398 . S
C834 C835 1.391 . S
C835 H823 0.950 . S
C835 C831 1.393 . S
C835 C834 1.391 . S
H836 C844 0.950 . S
H837 C849 0.950 . S
H838 C846 0.950 . S
H839 C848 0.950 . S
H840 C850 0.950 . S
H841 C852 0.950 . S
H842 C854 0.950 . S
H843 C855 0.950 . S
C844 H836 0.950 . S
C844 C845 1.386 . S
C844 C846 1.391 . S
C845 C844 1.386 . S
C845 C849 1.393 . S
C846 H838 0.950 . S
C846 C844 1.391 . S
C846 C847 1.400 . S
C847 C846 1.400 . S
C847 C848 1.398 . S
C847 C853 1.491 . S
C848 H839 0.950 . S
C848 C847 1.398 . S
C848 C849 1.391 . S
C849 H837 0.950 . S
C849 C845 1.393 . S
C849 C848 1.391 . S
C850 H840 0.950 . S
C850 C851 1.386 . S
C850 C852 1.391 . S
C851 C850 1.386 . S
C851 C855 1.393 . S
C852 H841 0.950 . S
C852 C850 1.391 . S
C852 C853 1.400 . S
C853 C847 1.491 . S
C853 C852 1.400 . S
C853 C854 1.398 . S
C854 H842 0.950 . S
C854 C853 1.398 . S
C854 C855 1.391 . S
C855 H843 0.950 . S
C855 C851 1.393 . S
C855 C854 1.391 . S
H856 C864 0.950 . S
H857 C869 0.950 . S
H858 C866 0.950 1_655 S
H859 C868 0.950 . S
H860 C870 0.950 . S
H861 C872 0.950 1_455 S
H862 C874 0.950 . S
H863 C875 0.950 . S
C864 H856 0.950 . S
C864 C865 1.386 . S
C864 C866 1.391 . S
C865 C864 1.386 . S
C865 C869 1.393 . S
C866 H858 0.950 1_455 S
C866 C864 1.391 . S
C866 C867 1.400 . S
C867 C866 1.400 . S
C867 C868 1.398 . S
C867 C873 1.491 1_455 S
C868 H859 0.950 . S
C868 C867 1.398 . S
C868 C869 1.391 . S
C869 H857 0.950 . S
C869 C865 1.393 . S
C869 C868 1.391 . S
C870 H860 0.950 . S
C870 C871 1.386 . S
C870 C872 1.391 . S
C871 C870 1.386 . S
C871 C875 1.393 . S
C872 H861 0.950 1_655 S
C872 C870 1.391 . S
C872 C873 1.400 . S
C873 C867 1.491 1_655 S
C873 C872 1.400 . S
C873 C874 1.398 . S
C874 H862 0.950 . S
C874 C873 1.398 . S
C874 C875 1.391 . S
C875 H863 0.950 . S
C875 C871 1.393 . S
C875 C874 1.391 . S
H876 C884 0.950 . S
H877 C889 0.950 . S
H878 C886 0.950 . S
H879 C888 0.950 1_655 S
H880 C890 0.950 . S
H881 C892 0.950 . S
H882 C894 0.950 1_455 S
H883 C895 0.950 . S
C884 H876 0.950 . S
C884 C885 1.386 . S
C884 C886 1.391 . S
C885 C884 1.386 . S
C885 C889 1.393 . S
C886 H878 0.950 . S
C886 C884 1.391 . S
C886 C887 1.400 . S
C887 C886 1.400 . S
C887 C888 1.398 . S
C887 C893 1.491 1_455 S
C888 H879 0.950 1_455 S
C888 C887 1.398 . S
C888 C889 1.391 . S
C889 H877 0.950 . S
C889 C885 1.393 . S
C889 C888 1.391 . S
C890 H880 0.950 . S
C890 C891 1.386 . S
C890 C892 1.391 . S
C891 C890 1.386 . S
C891 C895 1.393 . S
C892 H881 0.950 . S
C892 C890 1.391 . S
C892 C893 1.400 . S
C893 C887 1.491 1_655 S
C893 C892 1.400 . S
C893 C894 1.398 . S
C894 H882 0.950 1_655 S
C894 C893 1.398 . S
C894 C895 1.391 . S
C895 H883 0.950 . S
C895 C891 1.393 . S
C895 C894 1.391 . S
H896 C904 0.950 . S
H897 C909 0.950 . S
H898 C906 0.950 1_545 S
H899 C908 0.950 . S
H900 C910 0.950 . S
H901 C912 0.950 1_565 S
H902 C914 0.950 . S
H903 C915 0.950 . S
C904 H896 0.950 . S
C904 C905 1.386 . S
C904 C906 1.391 . S
C905 C904 1.386 . S
C905 C909 1.393 . S
C906 H898 0.950 1_565 S
C906 C904 1.391 . S
C906 C907 1.400 . S
C907 C906 1.400 . S
C907 C908 1.398 . S
C907 C913 1.491 1_565 S
C908 H899 0.950 . S
C908 C907 1.398 . S
C908 C909 1.391 . S
C909 H897 0.950 . S
C909 C905 1.393 . S
C909 C908 1.391 . S
C910 H900 0.950 . S
C910 C911 1.386 . S
C910 C912 1.391 . S
C911 C910 1.386 . S
C911 C915 1.393 . S
C912 H901 0.950 1_545 S
C912 C910 1.391 . S
C912 C913 1.400 . S
C913 C907 1.491 1_545 S
C913 C912 1.400 . S
C913 C914 1.398 . S
C914 H902 0.950 . S
C914 C913 1.398 . S
C914 C915 1.391 . S
C915 H903 0.950 . S
C915 C911 1.393 . S
C915 C914 1.391 . S
H916 C924 0.950 . S
H917 C929 0.950 . S
H918 C926 0.950 . S
H919 C928 0.950 . S
H920 C930 0.950 . S
H921 C932 0.950 . S
H922 C934 0.950 . S
H923 C935 0.950 . S
C924 H916 0.950 . S
C924 C925 1.386 . S
C924 C926 1.391 . S
C925 C924 1.386 . S
C925 C929 1.393 . S
C926 H918 0.950 . S
C926 C924 1.391 . S
C926 C927 1.400 . S
C927 C926 1.400 . S
C927 C928 1.398 . S
C927 C933 1.491 . S
C928 H919 0.950 . S
C928 C927 1.398 . S
C928 C929 1.391 . S
C929 H917 0.950 . S
C929 C925 1.393 . S
C929 C928 1.391 . S
C930 H920 0.950 . S
C930 C931 1.386 . S
C930 C932 1.391 . S
C931 C930 1.386 . S
C931 C935 1.393 . S
C932 H921 0.950 . S
C932 C930 1.391 . S
C932 C933 1.400 . S
C933 C927 1.491 . S
C933 C932 1.400 . S
C933 C934 1.398 . S
C934 H922 0.950 . S
C934 C933 1.398 . S
C934 C935 1.391 . S
C935 H923 0.950 . S
C935 C931 1.393 . S
C935 C934 1.391 . S
H936 C944 0.950 . S
H937 C949 0.950 . S
H938 C946 0.950 . S
H939 C948 0.950 1_565 S
H940 C950 0.950 . S
H941 C952 0.950 . S
H942 C954 0.950 1_545 S
H943 C955 0.950 . S
C944 H936 0.950 . S
C944 C945 1.386 . S
C944 C946 1.391 . S
C945 C944 1.386 . S
C945 C949 1.393 . S
C946 H938 0.950 . S
C946 C944 1.391 . S
C946 C947 1.400 . S
C947 C946 1.400 . S
C947 C948 1.398 . S
C947 C953 1.491 1_545 S
C948 H939 0.950 1_545 S
C948 C947 1.398 . S
C948 C949 1.391 . S
C949 H937 0.950 . S
C949 C945 1.393 . S
C949 C948 1.391 . S
C950 H940 0.950 . S
C950 C951 1.386 . S
C950 C952 1.391 . S
C951 C950 1.386 . S
C951 C955 1.393 . S
C952 H941 0.950 . S
C952 C950 1.391 . S
C952 C953 1.400 . S
C953 C947 1.491 1_565 S
C953 C952 1.400 . S
C953 C954 1.398 . S
C954 H942 0.950 1_565 S
C954 C953 1.398 . S
C954 C955 1.391 . S
C955 H943 0.950 . S
C955 C951 1.393 . S
C955 C954 1.391 . S
H956 C964 0.950 . S
H957 C969 0.950 . S
H958 C966 0.950 . S
H959 C968 0.950 . S
H960 C970 0.950 . S
H961 C972 0.950 . S
H962 C974 0.950 . S
H963 C975 0.950 . S
C964 H956 0.950 . S
C964 C965 1.386 . S
C964 C966 1.391 . S
C965 C964 1.386 . S
C965 C969 1.393 . S
C966 H958 0.950 . S
C966 C964 1.391 . S
C966 C967 1.400 . S
C967 C966 1.400 . S
C967 C968 1.398 . S
C967 C973 1.491 . S
C968 H959 0.950 . S
C968 C967 1.398 . S
C968 C969 1.391 . S
C969 H957 0.950 . S
C969 C965 1.393 . S
C969 C968 1.391 . S
C970 H960 0.950 . S
C970 C971 1.386 . S
C970 C972 1.391 . S
C971 C970 1.386 . S
C971 C975 1.393 . S
C972 H961 0.950 . S
C972 C970 1.391 . S
C972 C973 1.400 . S
C973 C967 1.491 . S
C973 C972 1.400 . S
C973 C974 1.398 . S
C974 H962 0.950 . S
C974 C973 1.398 . S
C974 C975 1.391 . S
C975 H963 0.950 . S
C975 C971 1.393 . S
C975 C974 1.391 . S
H976 C984 0.950 . S
H977 C989 0.950 . S
H978 C986 0.950 . S
H979 C988 0.950 1_455 S
H980 C990 0.950 . S
H981 C992 0.950 . S
H982 C994 0.950 1_655 S
H983 C995 0.950 . S
C984 H976 0.950 . S
C984 C985 1.386 . S
C984 C986 1.391 . S
C985 C984 1.386 . S
C985 C989 1.393 . S
C986 H978 0.950 . S
C986 C984 1.391 . S
C986 C987 1.400 . S
C987 C986 1.400 . S
C987 C988 1.398 . S
C987 C993 1.491 1_655 S
C988 H979 0.950 1_655 S
C988 C987 1.398 . S
C988 C989 1.391 . S
C989 H977 0.950 . S
C989 C985 1.393 . S
C989 C988 1.391 . S
C990 H980 0.950 . S
C990 C991 1.386 . S
C990 C992 1.391 . S
C991 C990 1.386 . S
C991 C995 1.393 . S
C992 H981 0.950 . S
C992 C990 1.391 . S
C992 C993 1.400 . S
C993 C987 1.491 1_455 S
C993 C992 1.400 . S
C993 C994 1.398 . S
C994 H982 0.950 1_455 S
C994 C993 1.398 . S
C994 C995 1.391 . S
C995 H983 0.950 . S
C995 C991 1.393 . S
C995 C994 1.391 . S
H996 C1004 0.950 . S
H997 C1009 0.950 . S
H998 C1006 0.950 1_455 S
H999 C1008 0.950 . S
H1000 C1010 0.950 . S
H1001 C1012 0.950 1_655 S
H1002 C1014 0.950 . S
H1003 C1015 0.950 . S
C1004 H996 0.950 . S
C1004 C1005 1.386 . S
C1004 C1006 1.391 . S
C1005 C1004 1.386 . S
C1005 C1009 1.393 . S
C1006 H998 0.950 1_655 S
C1006 C1004 1.391 . S
C1006 C1007 1.400 . S
C1007 C1006 1.400 . S
C1007 C1008 1.398 . S
C1007 C1013 1.491 1_655 S
C1008 H999 0.950 . S
C1008 C1007 1.398 . S
C1008 C1009 1.391 . S
C1009 H997 0.950 . S
C1009 C1005 1.393 . S
C1009 C1008 1.391 . S
C1010 H1000 0.950 . S
C1010 C1011 1.386 . S
C1010 C1012 1.391 . S
C1011 C1010 1.386 . S
C1011 C1015 1.393 . S
C1012 H1001 0.950 1_455 S
C1012 C1010 1.391 . S
C1012 C1013 1.400 . S
C1013 C1007 1.491 1_455 S
C1013 C1012 1.400 . S
C1013 C1014 1.398 . S
C1014 H1002 0.950 . S
C1014 C1013 1.398 . S
C1014 C1015 1.391 . S
C1015 H1003 0.950 . S
C1015 C1011 1.393 . S
C1015 C1014 1.391 . S
H1016 C1024 0.950 . S
H1017 C1029 0.950 . S
H1018 C1026 0.950 . S
H1019 C1028 0.950 . S
H1020 C1030 0.950 . S
H1021 C1032 0.950 . S
H1022 C1034 0.950 . S
H1023 C1035 0.950 . S
C1024 H1016 0.950 . S
C1024 C1025 1.386 . S
C1024 C1026 1.391 . S
C1025 C1024 1.386 . S
C1025 C1029 1.393 . S
C1026 H1018 0.950 . S
C1026 C1024 1.391 . S
C1026 C1027 1.400 . S
C1027 C1026 1.400 . S
C1027 C1028 1.398 . S
C1027 C1033 1.491 1_545 S
C1028 H1019 0.950 . S
C1028 C1027 1.398 . S
C1028 C1029 1.391 . S
C1029 H1017 0.950 . S
C1029 C1025 1.393 . S
C1029 C1028 1.391 . S
C1030 H1020 0.950 . S
C1030 C1031 1.386 . S
C1030 C1032 1.391 . S
C1031 C1030 1.386 . S
C1031 C1035 1.393 . S
C1032 H1021 0.950 . S
C1032 C1030 1.391 . S
C1032 C1033 1.400 . S
C1033 C1027 1.491 1_565 S
C1033 C1032 1.400 . S
C1033 C1034 1.398 . S
C1034 H1022 0.950 . S
C1034 C1033 1.398 . S
C1034 C1035 1.391 . S
C1035 H1023 0.950 . S
C1035 C1031 1.393 . S
C1035 C1034 1.391 . S
H1036 C1044 0.950 . S
H1037 C1049 0.950 . S
H1038 C1046 0.950 . S
H1039 C1048 0.950 . S
H1040 C1050 0.950 . S
H1041 C1052 0.950 . S
H1042 C1054 0.950 . S
H1043 C1055 0.950 . S
C1044 H1036 0.950 . S
C1044 C1045 1.386 . S
C1044 C1046 1.391 . S
C1045 C1044 1.386 . S
C1045 C1049 1.393 . S
C1046 H1038 0.950 . S
C1046 C1044 1.391 . S
C1046 C1047 1.400 . S
C1047 C1046 1.400 . S
C1047 C1048 1.398 . S
C1047 C1053 1.491 . S
C1048 H1039 0.950 . S
C1048 C1047 1.398 . S
C1048 C1049 1.391 . S
C1049 H1037 0.950 . S
C1049 C1045 1.393 . S
C1049 C1048 1.391 . S
C1050 H1040 0.950 . S
C1050 C1051 1.386 . S
C1050 C1052 1.391 . S
C1051 C1050 1.386 . S
C1051 C1055 1.393 . S
C1052 H1041 0.950 . S
C1052 C1050 1.391 . S
C1052 C1053 1.400 . S
C1053 C1047 1.491 . S
C1053 C1052 1.400 . S
C1053 C1054 1.398 . S
C1054 H1042 0.950 . S
C1054 C1053 1.398 . S
C1054 C1055 1.391 . S
C1055 H1043 0.950 . S
C1055 C1051 1.393 . S
C1055 C1054 1.391 . S
H1056 C1064 0.950 . S
H1057 C1069 0.950 . S
H1058 C1066 0.950 . S
H1059 C1068 0.950 . S
H1060 C1070 0.950 . S
H1061 C1072 0.950 . S
H1062 C1074 0.950 . S
H1063 C1075 0.950 . S
C1064 H1056 0.950 . S
C1064 C1065 1.386 . S
C1064 C1066 1.391 . S
C1065 C1064 1.386 . S
C1065 C1069 1.393 . S
C1066 H1058 0.950 . S
C1066 C1064 1.391 . S
C1066 C1067 1.400 . S
C1067 C1066 1.400 . S
C1067 C1068 1.398 . S
C1067 C1073 1.491 . S
C1068 H1059 0.950 . S
C1068 C1067 1.398 . S
C1068 C1069 1.391 . S
C1069 H1057 0.950 . S
C1069 C1065 1.393 . S
C1069 C1068 1.391 . S
C1070 H1060 0.950 . S
C1070 C1071 1.386 . S
C1070 C1072 1.391 . S
C1071 C1070 1.386 . S
C1071 C1075 1.393 . S
C1072 H1061 0.950 . S
C1072 C1070 1.391 . S
C1072 C1073 1.400 . S
C1073 C1067 1.491 . S
C1073 C1072 1.400 . S
C1073 C1074 1.398 . S
C1074 H1062 0.950 . S
C1074 C1073 1.398 . S
C1074 C1075 1.391 . S
C1075 H1063 0.950 . S
C1075 C1071 1.393 . S
C1075 C1074 1.391 . S
H1076 C1084 0.950 . S
H1077 C1089 0.950 . S
H1078 C1086 0.950 . S
H1079 C1088 0.950 . S
H1080 C1090 0.950 . S
H1081 C1092 0.950 . S
H1082 C1094 0.950 . S
H1083 C1095 0.950 . S
C1084 H1076 0.950 . S
C1084 C1085 1.386 . S
C1084 C1086 1.391 . S
C1085 C1084 1.386 . S
C1085 C1089 1.393 . S
C1086 H1078 0.950 . S
C1086 C1084 1.391 . S
C1086 C1087 1.400 . S
C1087 C1086 1.400 . S
C1087 C1088 1.398 . S
C1087 C1093 1.491 . S
C1088 H1079 0.950 . S
C1088 C1087 1.398 . S
C1088 C1089 1.391 . S
C1089 H1077 0.950 . S
C1089 C1085 1.393 . S
C1089 C1088 1.391 . S
C1090 H1080 0.950 . S
C1090 C1091 1.386 . S
C1090 C1092 1.391 . S
C1091 C1090 1.386 . S
C1091 C1095 1.393 . S
C1092 H1081 0.950 . S
C1092 C1090 1.391 . S
C1092 C1093 1.400 . S
C1093 C1087 1.491 . S
C1093 C1092 1.400 . S
C1093 C1094 1.398 . S
C1094 H1082 0.950 . S
C1094 C1093 1.398 . S
C1094 C1095 1.391 . S
C1095 H1083 0.950 . S
C1095 C1091 1.393 . S
C1095 C1094 1.391 . S
H1096 C1104 0.950 . S
H1097 C1109 0.950 . S
H1098 C1106 0.950 . S
H1099 C1108 0.950 . S
H1100 C1110 0.950 . S
H1101 C1112 0.950 . S
H1102 C1114 0.950 . S
H1103 C1115 0.950 . S
C1104 H1096 0.950 . S
C1104 C1105 1.386 . S
C1104 C1106 1.391 . S
C1105 C1104 1.386 . S
C1105 C1109 1.393 . S
C1106 H1098 0.950 . S
C1106 C1104 1.391 . S
C1106 C1107 1.400 . S
C1107 C1106 1.400 . S
C1107 C1108 1.398 . S
C1107 C1113 1.491 . S
C1108 H1099 0.950 . S
C1108 C1107 1.398 . S
C1108 C1109 1.391 . S
C1109 H1097 0.950 . S
C1109 C1105 1.393 . S
C1109 C1108 1.391 . S
C1110 H1100 0.950 . S
C1110 C1111 1.386 . S
C1110 C1112 1.391 . S
C1111 C1110 1.386 . S
C1111 C1115 1.393 . S
C1112 H1101 0.950 . S
C1112 C1110 1.391 . S
C1112 C1113 1.400 . S
C1113 C1107 1.491 . S
C1113 C1112 1.400 . S
C1113 C1114 1.398 . S
C1114 H1102 0.950 . S
C1114 C1113 1.398 . S
C1114 C1115 1.391 . S
C1115 H1103 0.950 . S
C1115 C1111 1.393 . S
C1115 C1114 1.391 . S
H1116 C1124 0.950 . S
H1117 C1129 0.950 . S
H1118 C1126 0.950 . S
H1119 C1128 0.950 . S
H1120 C1130 0.950 . S
H1121 C1132 0.950 . S
H1122 C1134 0.950 . S
H1123 C1135 0.950 . S
C1124 H1116 0.950 . S
C1124 C1125 1.386 . S
C1124 C1126 1.391 . S
C1125 C1124 1.386 . S
C1125 C1129 1.393 . S
C1126 H1118 0.950 . S
C1126 C1124 1.391 . S
C1126 C1127 1.400 . S
C1127 C1126 1.400 . S
C1127 C1128 1.398 . S
C1127 C1133 1.491 . S
C1128 H1119 0.950 . S
C1128 C1127 1.398 . S
C1128 C1129 1.391 . S
C1129 H1117 0.950 . S
C1129 C1125 1.393 . S
C1129 C1128 1.391 . S
C1130 H1120 0.950 . S
C1130 C1131 1.386 . S
C1130 C1132 1.391 . S
C1131 C1130 1.386 . S
C1131 C1135 1.393 . S
C1132 H1121 0.950 . S
C1132 C1130 1.391 . S
C1132 C1133 1.400 . S
C1133 C1127 1.491 . S
C1133 C1132 1.400 . S
C1133 C1134 1.398 . S
C1134 H1122 0.950 . S
C1134 C1133 1.398 . S
C1134 C1135 1.391 . S
C1135 H1123 0.950 . S
C1135 C1131 1.393 . S
C1135 C1134 1.391 . S
H1136 C1144 0.950 . S
H1137 C1149 0.950 . S
H1138 C1146 0.950 . S
H1139 C1148 0.950 . S
H1140 C1150 0.950 . S
H1141 C1152 0.950 . S
H1142 C1154 0.950 . S
H1143 C1155 0.950 . S
C1144 H1136 0.950 . S
C1144 C1145 1.386 . S
C1144 C1146 1.391 . S
C1145 C1144 1.386 . S
C1145 C1149 1.393 . S
C1146 H1138 0.950 . S
C1146 C1144 1.391 . S
C1146 C1147 1.400 . S
C1147 C1146 1.400 . S
C1147 C1148 1.398 . S
C1147 C1153 1.491 . S
C1148 H1139 0.950 . S
C1148 C1147 1.398 . S
C1148 C1149 1.391 . S
C1149 H1137 0.950 . S
C1149 C1145 1.393 . S
C1149 C1148 1.391 . S
C1150 H1140 0.950 . S
C1150 C1151 1.386 . S
C1150 C1152 1.391 . S
C1151 C1150 1.386 . S
C1151 C1155 1.393 . S
C1152 H1141 0.950 . S
C1152 C1150 1.391 . S
C1152 C1153 1.400 . S
C1153 C1147 1.491 . S
C1153 C1152 1.400 . S
C1153 C1154 1.398 . S
C1154 H1142 0.950 . S
C1154 C1153 1.398 . S
C1154 C1155 1.391 . S
C1155 H1143 0.950 . S
C1155 C1151 1.393 . S
C1155 C1154 1.391 . S
H1156 C1164 0.950 . S
H1157 C1169 0.950 . S
H1158 C1166 0.950 . S
H1159 C1168 0.950 . S
H1160 C1170 0.950 . S
H1161 C1172 0.950 . S
H1162 C1174 0.950 . S
H1163 C1175 0.950 . S
C1164 H1156 0.950 . S
C1164 C1165 1.386 . S
C1164 C1166 1.391 . S
C1165 C1164 1.386 . S
C1165 C1169 1.393 . S
C1166 H1158 0.950 . S
C1166 C1164 1.391 . S
C1166 C1167 1.400 . S
C1167 C1166 1.400 . S
C1167 C1168 1.398 . S
C1167 C1173 1.491 . S
C1168 H1159 0.950 . S
C1168 C1167 1.398 . S
C1168 C1169 1.391 . S
C1169 H1157 0.950 . S
C1169 C1165 1.393 . S
C1169 C1168 1.391 . S
C1170 H1160 0.950 . S
C1170 C1171 1.386 . S
C1170 C1172 1.391 . S
C1171 C1170 1.386 . S
C1171 C1175 1.393 . S
C1172 H1161 0.950 . S
C1172 C1170 1.391 . S
C1172 C1173 1.400 . S
C1173 C1167 1.491 . S
C1173 C1172 1.400 . S
C1173 C1174 1.398 . S
C1174 H1162 0.950 . S
C1174 C1173 1.398 . S
C1174 C1175 1.391 . S
C1175 H1163 0.950 . S
C1175 C1171 1.393 . S
C1175 C1174 1.391 . S
H1176 C1184 0.950 . S
H1177 C1189 0.950 . S
H1178 C1186 0.950 . S
H1179 C1188 0.950 . S
H1180 C1190 0.950 . S
H1181 C1192 0.950 . S
H1182 C1194 0.950 . S
H1183 C1195 0.950 . S
C1184 H1176 0.950 . S
C1184 C1185 1.386 . S
C1184 C1186 1.391 . S
C1185 C1184 1.386 . S
C1185 C1189 1.393 . S
C1186 H1178 0.950 . S
C1186 C1184 1.391 . S
C1186 C1187 1.400 . S
C1187 C1186 1.400 . S
C1187 C1188 1.398 . S
C1187 C1193 1.491 . S
C1188 H1179 0.950 . S
C1188 C1187 1.398 . S
C1188 C1189 1.391 . S
C1189 H1177 0.950 . S
C1189 C1185 1.393 . S
C1189 C1188 1.391 . S
C1190 H1180 0.950 . S
C1190 C1191 1.386 . S
C1190 C1192 1.391 . S
C1191 C1190 1.386 . S
C1191 C1195 1.393 . S
C1192 H1181 0.950 . S
C1192 C1190 1.391 . S
C1192 C1193 1.400 . S
C1193 C1187 1.491 . S
C1193 C1192 1.400 . S
C1193 C1194 1.398 . S
C1194 H1182 0.950 . S
C1194 C1193 1.398 . S
C1194 C1195 1.391 . S
C1195 H1183 0.950 . S
C1195 C1191 1.393 . S
C1195 C1194 1.391 . S
H1196 C1204 0.950 . S
H1197 C1209 0.950 . S
H1198 C1206 0.950 . S
H1199 C1208 0.950 . S
H1200 C1210 0.950 . S
H1201 C1212 0.950 . S
H1202 C1214 0.950 . S
H1203 C1215 0.950 . S
C1204 H1196 0.950 . S
C1204 C1205 1.386 . S
C1204 C1206 1.391 . S
C1205 C1204 1.386 . S
C1205 C1209 1.393 . S
C1206 H1198 0.950 . S
C1206 C1204 1.391 . S
C1206 C1207 1.400 . S
C1207 C1206 1.400 . S
C1207 C1208 1.398 . S
C1207 C1213 1.491 . S
C1208 H1199 0.950 . S
C1208 C1207 1.398 . S
C1208 C1209 1.391 . S
C1209 H1197 0.950 . S
C1209 C1205 1.393 . S
C1209 C1208 1.391 . S
C1210 H1200 0.950 . S
C1210 C1211 1.386 . S
C1210 C1212 1.391 . S
C1211 C1210 1.386 . S
C1211 C1215 1.393 . S
C1212 H1201 0.950 . S
C1212 C1210 1.391 . S
C1212 C1213 1.400 . S
C1213 C1207 1.491 . S
C1213 C1212 1.400 . S
C1213 C1214 1.398 . S
C1214 H1202 0.950 . S
C1214 C1213 1.398 . S
C1214 C1215 1.391 . S
C1215 H1203 0.950 . S
C1215 C1211 1.393 . S
C1215 C1214 1.391 . S
H1216 C1224 0.950 . S
H1217 C1229 0.950 . S
H1218 C1226 0.950 . S
H1219 C1228 0.950 . S
H1220 C1230 0.950 . S
H1221 C1232 0.950 . S
H1222 C1234 0.950 . S
H1223 C1235 0.950 . S
C1224 H1216 0.950 . S
C1224 C1225 1.386 . S
C1224 C1226 1.391 . S
C1225 C1224 1.386 . S
C1225 C1229 1.393 . S
C1226 H1218 0.950 . S
C1226 C1224 1.391 . S
C1226 C1227 1.400 . S
C1227 C1226 1.400 . S
C1227 C1228 1.398 . S
C1227 C1233 1.491 . S
C1228 H1219 0.950 . S
C1228 C1227 1.398 . S
C1228 C1229 1.391 . S
C1229 H1217 0.950 . S
C1229 C1225 1.393 . S
C1229 C1228 1.391 . S
C1230 H1220 0.950 . S
C1230 C1231 1.386 . S
C1230 C1232 1.391 . S
C1231 C1230 1.386 . S
C1231 C1235 1.393 . S
C1232 H1221 0.950 . S
C1232 C1230 1.391 . S
C1232 C1233 1.400 . S
C1233 C1227 1.491 . S
C1233 C1232 1.400 . S
C1233 C1234 1.398 . S
C1234 H1222 0.950 . S
C1234 C1233 1.398 . S
C1234 C1235 1.391 . S
C1235 H1223 0.950 . S
C1235 C1231 1.393 . S
C1235 C1234 1.391 . S
H1236 C1244 0.950 . S
H1237 C1249 0.950 . S
H1238 C1246 0.950 . S
H1239 C1248 0.950 . S
H1240 C1250 0.950 . S
H1241 C1252 0.950 . S
H1242 C1254 0.950 . S
H1243 C1255 0.950 . S
C1244 H1236 0.950 . S
C1244 C1245 1.386 . S
C1244 C1246 1.391 . S
C1245 C1244 1.386 . S
C1245 C1249 1.393 . S
C1246 H1238 0.950 . S
C1246 C1244 1.391 . S
C1246 C1247 1.400 . S
C1247 C1246 1.400 . S
C1247 C1248 1.398 . S
C1247 C1253 1.491 . S
C1248 H1239 0.950 . S
C1248 C1247 1.398 . S
C1248 C1249 1.391 . S
C1249 H1237 0.950 . S
C1249 C1245 1.393 . S
C1249 C1248 1.391 . S
C1250 H1240 0.950 . S
C1250 C1251 1.386 . S
C1250 C1252 1.391 . S
C1251 C1250 1.386 . S
C1251 C1255 1.393 . S
C1252 H1241 0.950 . S
C1252 C1250 1.391 . S
C1252 C1253 1.400 . S
C1253 C1247 1.491 . S
C1253 C1252 1.400 . S
C1253 C1254 1.398 . S
C1254 H1242 0.950 . S
C1254 C1253 1.398 . S
C1254 C1255 1.391 . S
C1255 H1243 0.950 . S
C1255 C1251 1.393 . S
C1255 C1254 1.391 . S
H1256 C1264 0.950 . S
H1257 C1269 0.950 . S
H1258 C1266 0.950 . S
H1259 C1268 0.950 . S
H1260 C1270 0.950 . S
H1261 C1272 0.950 . S
H1262 C1274 0.950 . S
H1263 C1275 0.950 . S
C1264 H1256 0.950 . S
C1264 C1265 1.386 . S
C1264 C1266 1.391 . S
C1265 C1264 1.386 . S
C1265 C1269 1.393 . S
C1266 H1258 0.950 . S
C1266 C1264 1.391 . S
C1266 C1267 1.400 . S
C1267 C1266 1.400 . S
C1267 C1268 1.398 . S
C1267 C1273 1.491 . S
C1268 H1259 0.950 . S
C1268 C1267 1.398 . S
C1268 C1269 1.391 . S
C1269 H1257 0.950 . S
C1269 C1265 1.393 . S
C1269 C1268 1.391 . S
C1270 H1260 0.950 . S
C1270 C1271 1.386 . S
C1270 C1272 1.391 . S
C1271 C1270 1.386 . S
C1271 C1275 1.393 . S
C1272 H1261 0.950 . S
C1272 C1270 1.391 . S
C1272 C1273 1.400 . S
C1273 C1267 1.491 . S
C1273 C1272 1.400 . S
C1273 C1274 1.398 . S
C1274 H1262 0.950 . S
C1274 C1273 1.398 . S
C1274 C1275 1.391 . S
C1275 H1263 0.950 . S
C1275 C1271 1.393 . S
C1275 C1274 1.391 . S
H1276 C1284 0.950 . S
H1277 C1289 0.950 . S
H1278 C1286 0.950 . S
H1279 C1288 0.950 . S
H1280 C1290 0.950 . S
H1281 C1292 0.950 . S
H1282 C1294 0.950 . S
H1283 C1295 0.950 . S
C1284 H1276 0.950 . S
C1284 C1285 1.386 . S
C1284 C1286 1.391 . S
C1285 C1284 1.386 . S
C1285 C1289 1.393 . S
C1286 H1278 0.950 . S
C1286 C1284 1.391 . S
C1286 C1287 1.400 . S
C1287 C1286 1.400 . S
C1287 C1288 1.398 . S
C1287 C1293 1.491 . S
C1288 H1279 0.950 . S
C1288 C1287 1.398 . S
C1288 C1289 1.391 . S
C1289 H1277 0.950 . S
C1289 C1285 1.393 . S
C1289 C1288 1.391 . S
C1290 H1280 0.950 . S
C1290 C1291 1.386 . S
C1290 C1292 1.391 . S
C1291 C1290 1.386 . S
C1291 C1295 1.393 . S
C1292 H1281 0.950 . S
C1292 C1290 1.391 . S
C1292 C1293 1.400 . S
C1293 C1287 1.491 . S
C1293 C1292 1.400 . S
C1293 C1294 1.398 . S
C1294 H1282 0.950 . S
C1294 C1293 1.398 . S
C1294 C1295 1.391 . S
C1295 H1283 0.950 . S
C1295 C1291 1.393 . S
C1295 C1294 1.391 . S
H1296 C1304 0.950 . S
H1297 C1309 0.950 . S
H1298 C1306 0.950 . S
H1299 C1308 0.950 1_565 S
H1300 C1310 0.950 . S
H1301 C1312 0.950 . S
H1302 C1314 0.950 1_545 S
H1303 C1315 0.950 . S
C1304 H1296 0.950 . S
C1304 C1305 1.386 . S
C1304 C1306 1.391 . S
C1305 C1304 1.386 . S
C1305 C1309 1.393 . S
C1306 H1298 0.950 . S
C1306 C1304 1.391 . S
C1306 C1307 1.400 . S
C1307 C1306 1.400 . S
C1307 C1308 1.398 . S
C1307 C1313 1.491 1_545 S
C1308 H1299 0.950 1_545 S
C1308 C1307 1.398 . S
C1308 C1309 1.391 . S
C1309 H1297 0.950 . S
C1309 C1305 1.393 . S
C1309 C1308 1.391 . S
C1310 H1300 0.950 . S
C1310 C1311 1.386 . S
C1310 C1312 1.391 . S
C1311 C1310 1.386 . S
C1311 C1315 1.393 . S
C1312 H1301 0.950 . S
C1312 C1310 1.391 . S
C1312 C1313 1.400 . S
C1313 C1307 1.491 1_565 S
C1313 C1312 1.400 . S
C1313 C1314 1.398 . S
C1314 H1302 0.950 1_565 S
C1314 C1313 1.398 . S
C1314 C1315 1.391 . S
C1315 H1303 0.950 . S
C1315 C1311 1.393 . S
C1315 C1314 1.391 . S
H1316 C1324 0.950 . S
H1317 C1329 0.950 . S
H1318 C1326 0.950 . S
H1319 C1328 0.950 . S
H1320 C1330 0.950 . S
H1321 C1332 0.950 . S
H1322 C1334 0.950 . S
H1323 C1335 0.950 . S
C1324 H1316 0.950 . S
C1324 C1325 1.386 . S
C1324 C1326 1.391 . S
C1325 C1324 1.386 . S
C1325 C1329 1.393 . S
C1326 H1318 0.950 . S
C1326 C1324 1.391 . S
C1326 C1327 1.400 . S
C1327 C1326 1.400 . S
C1327 C1328 1.398 . S
C1327 C1333 1.491 . S
C1328 H1319 0.950 . S
C1328 C1327 1.398 . S
C1328 C1329 1.391 . S
C1329 H1317 0.950 . S
C1329 C1325 1.393 . S
C1329 C1328 1.391 . S
C1330 H1320 0.950 . S
C1330 C1331 1.386 . S
C1330 C1332 1.391 . S
C1331 C1330 1.386 . S
C1331 C1335 1.393 . S
C1332 H1321 0.950 . S
C1332 C1330 1.391 . S
C1332 C1333 1.400 . S
C1333 C1327 1.491 . S
C1333 C1332 1.400 . S
C1333 C1334 1.398 . S
C1334 H1322 0.950 . S
C1334 C1333 1.398 . S
C1334 C1335 1.391 . S
C1335 H1323 0.950 . S
C1335 C1331 1.393 . S
C1335 C1334 1.391 . S
H1336 C1344 0.950 . S
H1337 C1349 0.950 . S
H1338 C1346 0.950 . S
H1339 C1348 0.950 1_655 S
H1340 C1350 0.950 . S
H1341 C1352 0.950 . S
H1342 C1354 0.950 1_455 S
H1343 C1355 0.950 . S
C1344 H1336 0.950 . S
C1344 C1345 1.386 . S
C1344 C1346 1.391 . S
C1345 C1344 1.386 . S
C1345 C1349 1.393 . S
C1346 H1338 0.950 . S
C1346 C1344 1.391 . S
C1346 C1347 1.400 . S
C1347 C1346 1.400 . S
C1347 C1348 1.398 . S
C1347 C1353 1.491 1_455 S
C1348 H1339 0.950 1_455 S
C1348 C1347 1.398 . S
C1348 C1349 1.391 . S
C1349 H1337 0.950 . S
C1349 C1345 1.393 . S
C1349 C1348 1.391 . S
C1350 H1340 0.950 . S
C1350 C1351 1.386 . S
C1350 C1352 1.391 . S
C1351 C1350 1.386 . S
C1351 C1355 1.393 . S
C1352 H1341 0.950 . S
C1352 C1350 1.391 . S
C1352 C1353 1.400 . S
C1353 C1347 1.491 1_655 S
C1353 C1352 1.400 . S
C1353 C1354 1.398 . S
C1354 H1342 0.950 1_655 S
C1354 C1353 1.398 . S
C1354 C1355 1.391 . S
C1355 H1343 0.950 . S
C1355 C1351 1.393 . S
C1355 C1354 1.391 . S
H1356 C1364 0.950 . S
H1357 C1369 0.950 . S
H1358 C1366 0.950 . S
H1359 C1368 0.950 . S
H1360 C1370 0.950 . S
H1361 C1372 0.950 . S
H1362 C1374 0.950 . S
H1363 C1375 0.950 . S
C1364 H1356 0.950 . S
C1364 C1365 1.386 . S
C1364 C1366 1.391 . S
C1365 C1364 1.386 . S
C1365 C1369 1.393 . S
C1366 H1358 0.950 . S
C1366 C1364 1.391 . S
C1366 C1367 1.400 . S
C1367 C1366 1.400 . S
C1367 C1368 1.398 . S
C1367 C1373 1.491 1_565 S
C1368 H1359 0.950 . S
C1368 C1367 1.398 . S
C1368 C1369 1.391 . S
C1369 H1357 0.950 . S
C1369 C1365 1.393 . S
C1369 C1368 1.391 . S
C1370 H1360 0.950 . S
C1370 C1371 1.386 . S
C1370 C1372 1.391 . S
C1371 C1370 1.386 . S
C1371 C1375 1.393 . S
C1372 H1361 0.950 . S
C1372 C1370 1.391 . S
C1372 C1373 1.400 . S
C1373 C1367 1.491 1_545 S
C1373 C1372 1.400 . S
C1373 C1374 1.398 . S
C1374 H1362 0.950 . S
C1374 C1373 1.398 . S
C1374 C1375 1.391 . S
C1375 H1363 0.950 . S
C1375 C1371 1.393 . S
C1375 C1374 1.391 . S
H1376 C1384 0.950 . S
H1377 C1389 0.950 . S
H1378 C1386 0.950 . S
H1379 C1388 0.950 . S
H1380 C1390 0.950 . S
H1381 C1392 0.950 . S
H1382 C1394 0.950 . S
H1383 C1395 0.950 . S
C1384 H1376 0.950 . S
C1384 C1385 1.386 . S
C1384 C1386 1.391 . S
C1385 C1384 1.386 . S
C1385 C1389 1.393 . S
C1386 H1378 0.950 . S
C1386 C1384 1.391 . S
C1386 C1387 1.400 . S
C1387 C1386 1.400 . S
C1387 C1388 1.398 . S
C1387 C1393 1.491 . S
C1388 H1379 0.950 . S
C1388 C1387 1.398 . S
C1388 C1389 1.391 . S
C1389 H1377 0.950 . S
C1389 C1385 1.393 . S
C1389 C1388 1.391 . S
C1390 H1380 0.950 . S
C1390 C1391 1.386 . S
C1390 C1392 1.391 . S
C1391 C1390 1.386 . S
C1391 C1395 1.393 . S
C1392 H1381 0.950 . S
C1392 C1390 1.391 . S
C1392 C1393 1.400 . S
C1393 C1387 1.491 . S
C1393 C1392 1.400 . S
C1393 C1394 1.398 . S
C1394 H1382 0.950 . S
C1394 C1393 1.398 . S
C1394 C1395 1.391 . S
C1395 H1383 0.950 . S
C1395 C1391 1.393 . S
C1395 C1394 1.391 . S
H1396 C1404 0.950 . S
H1397 C1409 0.950 . S
H1398 C1406 0.950 . S
H1399 C1408 0.946 . S
H1400 C1410 0.950 . S
H1401 C1412 0.950 . S
H1402 C1414 0.947 . S
H1403 C1415 0.950 . S
C1404 H1396 0.950 . S
C1404 C1405 1.386 . S
C1404 C1406 1.391 . S
C1405 C1404 1.386 . S
C1405 C1409 1.393 . S
C1406 H1398 0.950 . S
C1406 C1404 1.391 . S
C1406 C1407 1.400 . S
C1407 C1406 1.400 . S
C1407 C1408 1.398 . S
C1407 C1413 1.491 1_655 S
C1408 H1399 0.946 . S
C1408 C1407 1.398 . S
C1408 C1409 1.391 . S
C1409 H1397 0.950 . S
C1409 C1405 1.393 . S
C1409 C1408 1.391 . S
C1410 H1400 0.950 . S
C1410 C1411 1.386 . S
C1410 C1412 1.391 . S
C1411 C1410 1.386 . S
C1411 C1415 1.393 . S
C1412 H1401 0.950 . S
C1412 C1410 1.391 . S
C1412 C1413 1.400 . S
C1413 C1407 1.491 1_455 S
C1413 C1412 1.400 . S
C1413 C1414 1.398 . S
C1414 H1402 0.947 . S
C1414 C1413 1.398 . S
C1414 C1415 1.391 . S
C1415 H1403 0.950 . S
C1415 C1411 1.393 . S
C1415 C1414 1.391 . S
H1416 C1424 0.950 . S
H1417 C1429 0.950 . S
H1418 C1426 0.948 1_545 S
H1419 C1428 0.950 . S
H1420 C1430 0.950 . S
H1421 C1432 0.948 1_565 S
H1422 C1434 0.950 . S
H1423 C1435 0.950 . S
C1424 H1416 0.950 . S
C1424 C1425 1.386 . S
C1424 C1426 1.391 . S
C1425 C1424 1.386 . S
C1425 C1429 1.393 . S
C1426 H1418 0.948 1_565 S
C1426 C1424 1.391 . S
C1426 C1427 1.400 . S
C1427 C1426 1.400 . S
C1427 C1428 1.398 . S
C1427 C1433 1.491 1_565 S
C1428 H1419 0.950 . S
C1428 C1427 1.398 . S
C1428 C1429 1.391 . S
C1429 H1417 0.950 . S
C1429 C1425 1.393 . S
C1429 C1428 1.391 . S
C1430 H1420 0.950 . S
C1430 C1431 1.386 . S
C1430 C1432 1.391 . S
C1431 C1430 1.386 . S
C1431 C1435 1.393 . S
C1432 H1421 0.948 1_545 S
C1432 C1430 1.391 . S
C1432 C1433 1.400 . S
C1433 C1427 1.491 1_545 S
C1433 C1432 1.400 . S
C1433 C1434 1.398 . S
C1434 H1422 0.950 . S
C1434 C1433 1.398 . S
C1434 C1435 1.391 . S
C1435 H1423 0.950 . S
C1435 C1431 1.393 . S
C1435 C1434 1.391 . S
H1436 C1444 0.950 . S
H1437 C1449 0.950 . S
H1438 C1446 0.950 . S
H1439 C1448 0.950 . S
H1440 C1450 0.950 . S
H1441 C1452 0.950 . S
H1442 C1454 0.950 . S
H1443 C1455 0.950 . S
C1444 H1436 0.950 . S
C1444 C1445 1.386 . S
C1444 C1446 1.391 . S
C1445 C1444 1.386 . S
C1445 C1449 1.393 . S
C1446 H1438 0.950 . S
C1446 C1444 1.391 . S
C1446 C1447 1.400 . S
C1447 C1446 1.400 . S
C1447 C1448 1.398 . S
C1447 C1453 1.491 . S
C1448 H1439 0.950 . S
C1448 C1447 1.398 . S
C1448 C1449 1.391 . S
C1449 H1437 0.950 . S
C1449 C1445 1.393 . S
C1449 C1448 1.391 . S
C1450 H1440 0.950 . S
C1450 C1451 1.386 . S
C1450 C1452 1.391 . S
C1451 C1450 1.386 . S
C1451 C1455 1.393 . S
C1452 H1441 0.950 . S
C1452 C1450 1.391 . S
C1452 C1453 1.400 . S
C1453 C1447 1.491 . S
C1453 C1452 1.400 . S
C1453 C1454 1.398 . S
C1454 H1442 0.950 . S
C1454 C1453 1.398 . S
C1454 C1455 1.391 . S
C1455 H1443 0.950 . S
C1455 C1451 1.393 . S
C1455 C1454 1.391 . S
H1456 C1464 0.950 . S
H1457 C1469 0.950 . S
H1458 C1466 0.950 . S
H1459 C1468 0.950 . S
H1460 C1470 0.950 . S
H1461 C1472 0.950 . S
H1462 C1474 0.950 . S
H1463 C1475 0.950 . S
C1464 H1456 0.950 . S
C1464 C1465 1.386 . S
C1464 C1466 1.391 . S
C1465 C1464 1.386 . S
C1465 C1469 1.393 . S
C1466 H1458 0.950 . S
C1466 C1464 1.391 . S
C1466 C1467 1.400 . S
C1467 C1466 1.400 . S
C1467 C1468 1.398 . S
C1467 C1473 1.491 1_455 S
C1468 H1459 0.950 . S
C1468 C1467 1.398 . S
C1468 C1469 1.391 . S
C1469 H1457 0.950 . S
C1469 C1465 1.393 . S
C1469 C1468 1.391 . S
C1470 H1460 0.950 . S
C1470 C1471 1.386 . S
C1470 C1472 1.391 . S
C1471 C1470 1.386 . S
C1471 C1475 1.393 . S
C1472 H1461 0.950 . S
C1472 C1470 1.391 . S
C1472 C1473 1.400 . S
C1473 C1467 1.491 1_655 S
C1473 C1472 1.400 . S
C1473 C1474 1.398 . S
C1474 H1462 0.950 . S
C1474 C1473 1.398 . S
C1474 C1475 1.391 . S
C1475 H1463 0.950 . S
C1475 C1471 1.393 . S
C1475 C1474 1.391 . S
H1476 C1484 0.950 . S
H1477 C1489 0.950 . S
H1478 C1486 0.945 1_565 S
H1479 C1488 0.950 . S
H1480 C1490 0.950 . S
H1481 C1492 0.945 1_545 S
H1482 C1494 0.950 . S
H1483 C1495 0.950 . S
C1484 H1476 0.950 . S
C1484 C1485 1.386 . S
C1484 C1486 1.391 . S
C1485 C1484 1.386 . S
C1485 C1489 1.393 . S
C1486 H1478 0.945 1_545 S
C1486 C1484 1.391 . S
C1486 C1487 1.400 . S
C1487 C1486 1.400 . S
C1487 C1488 1.398 . S
C1487 C1493 1.491 1_545 S
C1488 H1479 0.950 . S
C1488 C1487 1.398 . S
C1488 C1489 1.391 . S
C1489 H1477 0.950 . S
C1489 C1485 1.393 . S
C1489 C1488 1.391 . S
C1490 H1480 0.950 . S
C1490 C1491 1.386 . S
C1490 C1492 1.391 . S
C1491 C1490 1.386 . S
C1491 C1495 1.393 . S
C1492 H1481 0.945 1_565 S
C1492 C1490 1.391 . S
C1492 C1493 1.400 . S
C1493 C1487 1.491 1_565 S
C1493 C1492 1.400 . S
C1493 C1494 1.398 . S
C1494 H1482 0.950 . S
C1494 C1493 1.398 . S
C1494 C1495 1.391 . S
C1495 H1483 0.950 . S
C1495 C1491 1.393 . S
C1495 C1494 1.391 . S
H1496 C1504 0.950 . S
H1497 C1509 0.950 . S
H1498 C1506 0.950 . S
H1499 C1508 0.950 . S
H1500 C1510 0.950 . S
H1501 C1512 0.950 . S
H1502 C1514 0.950 . S
H1503 C1515 0.950 . S
C1504 H1496 0.950 . S
C1504 C1505 1.386 . S
C1504 C1506 1.391 . S
C1505 C1504 1.386 . S
C1505 C1509 1.393 . S
C1506 H1498 0.950 . S
C1506 C1504 1.391 . S
C1506 C1507 1.400 . S
C1507 C1506 1.400 . S
C1507 C1508 1.398 . S
C1507 C1513 1.491 . S
C1508 H1499 0.950 . S
C1508 C1507 1.398 . S
C1508 C1509 1.391 . S
C1509 H1497 0.950 . S
C1509 C1505 1.393 . S
C1509 C1508 1.391 . S
C1510 H1500 0.950 . S
C1510 C1511 1.386 . S
C1510 C1512 1.391 . S
C1511 C1510 1.386 . S
C1511 C1515 1.393 . S
C1512 H1501 0.950 . S
C1512 C1510 1.391 . S
C1512 C1513 1.400 . S
C1513 C1507 1.491 . S
C1513 C1512 1.400 . S
C1513 C1514 1.398 . S
C1514 H1502 0.950 . S
C1514 C1513 1.398 . S
C1514 C1515 1.391 . S
C1515 H1503 0.950 . S
C1515 C1511 1.393 . S
C1515 C1514 1.391 . S
H1516 C1524 0.950 . S
H1517 C1529 0.950 . S
H1518 C1526 0.950 . S
H1519 C1528 0.975 . S
H1520 C1530 0.950 . S
H1521 C1532 0.950 . S
H1522 C1534 0.975 . S
H1523 C1535 0.950 . S
C1524 H1516 0.950 . S
C1524 C1525 1.386 . S
C1524 C1526 1.391 . S
C1525 C1524 1.386 . S
C1525 C1529 1.393 . S
C1526 H1518 0.950 . S
C1526 C1524 1.391 . S
C1526 C1527 1.400 . S
C1527 C1526 1.400 . S
C1527 C1528 1.398 . S
C1527 C1533 1.491 1_455 S
C1528 H1519 0.975 . S
C1528 C1527 1.398 . S
C1528 C1529 1.391 . S
C1529 H1517 0.950 . S
C1529 C1525 1.393 . S
C1529 C1528 1.391 . S
C1530 H1520 0.950 . S
C1530 C1531 1.386 . S
C1530 C1532 1.391 . S
C1531 C1530 1.386 . S
C1531 C1535 1.393 . S
C1532 H1521 0.950 . S
C1532 C1530 1.391 . S
C1532 C1533 1.400 . S
C1533 C1527 1.491 1_655 S
C1533 C1532 1.400 . S
C1533 C1534 1.398 . S
C1534 H1522 0.975 . S
C1534 C1533 1.398 . S
C1534 C1535 1.391 . S
C1535 H1523 0.950 . S
C1535 C1531 1.393 . S
C1535 C1534 1.391 . S
H1536 C1544 0.950 . S
H1537 C1549 0.950 . S
H1538 C1546 0.950 . S
H1539 C1548 0.950 . S
H1540 C1550 0.950 . S
H1541 C1552 0.950 . S
H1542 C1554 0.950 . S
H1543 C1555 0.950 . S
C1544 H1536 0.950 . S
C1544 C1545 1.386 . S
C1544 C1546 1.391 . S
C1545 C1544 1.386 . S
C1545 C1549 1.393 . S
C1546 H1538 0.950 . S
C1546 C1544 1.391 . S
C1546 C1547 1.400 . S
C1547 C1546 1.400 . S
C1547 C1548 1.398 . S
C1547 C1553 1.491 . S
C1548 H1539 0.950 . S
C1548 C1547 1.398 . S
C1548 C1549 1.391 . S
C1549 H1537 0.950 . S
C1549 C1545 1.393 . S
C1549 C1548 1.391 . S
C1550 H1540 0.950 . S
C1550 C1551 1.386 . S
C1550 C1552 1.391 . S
C1551 C1550 1.386 . S
C1551 C1555 1.393 . S
C1552 H1541 0.950 . S
C1552 C1550 1.391 . S
C1552 C1553 1.400 . S
C1553 C1547 1.491 . S
C1553 C1552 1.400 . S
C1553 C1554 1.398 . S
C1554 H1542 0.950 . S
C1554 C1553 1.398 . S
C1554 C1555 1.391 . S
C1555 H1543 0.950 . S
C1555 C1551 1.393 . S
C1555 C1554 1.391 . S
H1556 C1564 0.950 . S
H1557 C1569 0.950 . S
H1558 C1566 0.950 . S
H1559 C1568 0.950 . S
H1560 C1570 0.950 . S
H1561 C1572 0.950 . S
H1562 C1574 0.950 . S
H1563 C1575 0.950 . S
C1564 H1556 0.950 . S
C1564 C1565 1.386 . S
C1564 C1566 1.391 . S
C1565 C1564 1.386 . S
C1565 C1569 1.393 . S
C1566 H1558 0.950 . S
C1566 C1564 1.391 . S
C1566 C1567 1.400 . S
C1567 C1566 1.400 . S
C1567 C1568 1.398 . S
C1567 C1573 1.491 . S
C1568 H1559 0.950 . S
C1568 C1567 1.398 . S
C1568 C1569 1.391 . S
C1569 H1557 0.950 . S
C1569 C1565 1.393 . S
C1569 C1568 1.391 . S
C1570 H1560 0.950 . S
C1570 C1571 1.386 . S
C1570 C1572 1.391 . S
C1571 C1570 1.386 . S
C1571 C1575 1.393 . S
C1572 H1561 0.950 . S
C1572 C1570 1.391 . S
C1572 C1573 1.400 . S
C1573 C1567 1.491 . S
C1573 C1572 1.400 . S
C1573 C1574 1.398 . S
C1574 H1562 0.950 . S
C1574 C1573 1.398 . S
C1574 C1575 1.391 . S
C1575 H1563 0.950 . S
C1575 C1571 1.393 . S
C1575 C1574 1.391 . S
H1576 C1584 0.950 . S
H1577 C1589 0.950 . S
H1578 C1586 0.950 . S
H1579 C1588 0.950 . S
H1580 C1590 0.950 . S
H1581 C1592 0.950 . S
H1582 C1594 0.950 . S
H1583 C1595 0.950 . S
C1584 H1576 0.950 . S
C1584 C1585 1.386 . S
C1584 C1586 1.391 . S
C1585 C1584 1.386 . S
C1585 C1589 1.393 . S
C1586 H1578 0.950 . S
C1586 C1584 1.391 . S
C1586 C1587 1.400 . S
C1587 C1586 1.400 . S
C1587 C1588 1.398 . S
C1587 C1593 1.491 . S
C1588 H1579 0.950 . S
C1588 C1587 1.398 . S
C1588 C1589 1.391 . S
C1589 H1577 0.950 . S
C1589 C1585 1.393 . S
C1589 C1588 1.391 . S
C1590 H1580 0.950 . S
C1590 C1591 1.386 . S
C1590 C1592 1.391 . S
C1591 C1590 1.386 . S
C1591 C1595 1.393 . S
C1592 H1581 0.950 . S
C1592 C1590 1.391 . S
C1592 C1593 1.400 . S
C1593 C1587 1.491 . S
C1593 C1592 1.400 . S
C1593 C1594 1.398 . S
C1594 H1582 0.950 . S
C1594 C1593 1.398 . S
C1594 C1595 1.391 . S
C1595 H1583 0.950 . S
C1595 C1591 1.393 . S
C1595 C1594 1.391 . S
H1596 C1604 0.950 . S
H1597 C1609 0.950 . S
H1598 C1606 0.950 . S
H1599 C1608 0.950 . S
H1600 C1610 0.950 . S
H1601 C1612 0.950 . S
H1602 C1614 0.950 . S
H1603 C1615 0.950 . S
C1604 H1596 0.950 . S
C1604 C1605 1.386 . S
C1604 C1606 1.391 . S
C1605 C1604 1.386 . S
C1605 C1609 1.393 . S
C1606 H1598 0.950 . S
C1606 C1604 1.391 . S
C1606 C1607 1.400 . S
C1607 C1606 1.400 . S
C1607 C1608 1.398 . S
C1607 C1613 1.491 . S
C1608 H1599 0.950 . S
C1608 C1607 1.398 . S
C1608 C1609 1.391 . S
C1609 H1597 0.950 . S
C1609 C1605 1.393 . S
C1609 C1608 1.391 . S
C1610 H1600 0.950 . S
C1610 C1611 1.386 . S
C1610 C1612 1.391 . S
C1611 C1610 1.386 . S
C1611 C1615 1.393 . S
C1612 H1601 0.950 . S
C1612 C1610 1.391 . S
C1612 C1613 1.400 . S
C1613 C1607 1.491 . S
C1613 C1612 1.400 . S
C1613 C1614 1.398 . S
C1614 H1602 0.950 . S
C1614 C1613 1.398 . S
C1614 C1615 1.391 . S
C1615 H1603 0.950 . S
C1615 C1611 1.393 . S
C1615 C1614 1.391 . S
H1616 C1624 0.950 . S
H1617 C1629 0.950 . S
H1618 C1626 0.950 . S
H1619 C1628 0.950 . S
H1620 C1630 0.950 . S
H1621 C1632 0.950 . S
H1622 C1634 0.950 . S
H1623 C1635 0.950 . S
C1624 H1616 0.950 . S
C1624 C1625 1.386 . S
C1624 C1626 1.391 . S
C1625 C1624 1.386 . S
C1625 C1629 1.393 . S
C1626 H1618 0.950 . S
C1626 C1624 1.391 . S
C1626 C1627 1.400 . S
C1627 C1626 1.400 . S
C1627 C1628 1.398 . S
C1627 C1633 1.491 . S
C1628 H1619 0.950 . S
C1628 C1627 1.398 . S
C1628 C1629 1.391 . S
C1629 H1617 0.950 . S
C1629 C1625 1.393 . S
C1629 C1628 1.391 . S
C1630 H1620 0.950 . S
C1630 C1631 1.386 . S
C1630 C1632 1.391 . S
C1631 C1630 1.386 . S
C1631 C1635 1.393 . S
C1632 H1621 0.950 . S
C1632 C1630 1.391 . S
C1632 C1633 1.400 . S
C1633 C1627 1.491 . S
C1633 C1632 1.400 . S
C1633 C1634 1.398 . S
C1634 H1622 0.950 . S
C1634 C1633 1.398 . S
C1634 C1635 1.391 . S
C1635 H1623 0.950 . S
C1635 C1631 1.393 . S
C1635 C1634 1.391 . S
H1636 C1644 0.950 . S
H1637 C1649 0.950 . S
H1638 C1646 0.950 . S
H1639 C1648 0.950 . S
H1640 C1650 0.950 . S
H1641 C1652 0.950 . S
H1642 C1654 0.950 . S
H1643 C1655 0.950 . S
C1644 H1636 0.950 . S
C1644 C1645 1.386 . S
C1644 C1646 1.391 . S
C1645 C1644 1.386 . S
C1645 C1649 1.393 . S
C1646 H1638 0.950 . S
C1646 C1644 1.391 . S
C1646 C1647 1.400 . S
C1647 C1646 1.400 . S
C1647 C1648 1.398 . S
C1647 C1653 1.491 . S
C1648 H1639 0.950 . S
C1648 C1647 1.398 . S
C1648 C1649 1.391 . S
C1649 H1637 0.950 . S
C1649 C1645 1.393 . S
C1649 C1648 1.391 . S
C1650 H1640 0.950 . S
C1650 C1651 1.386 . S
C1650 C1652 1.391 . S
C1651 C1650 1.386 . S
C1651 C1655 1.393 . S
C1652 H1641 0.950 . S
C1652 C1650 1.391 . S
C1652 C1653 1.400 . S
C1653 C1647 1.491 . S
C1653 C1652 1.400 . S
C1653 C1654 1.398 . S
C1654 H1642 0.950 . S
C1654 C1653 1.398 . S
C1654 C1655 1.391 . S
C1655 H1643 0.950 . S
C1655 C1651 1.393 . S
C1655 C1654 1.391 . S
H1656 C1664 0.950 . S
H1657 C1669 0.950 . S
H1658 C1666 0.950 . S
H1659 C1668 0.950 . S
H1660 C1670 0.950 . S
H1661 C1672 0.950 . S
H1662 C1674 0.950 . S
H1663 C1675 0.950 . S
C1664 H1656 0.950 . S
C1664 C1665 1.386 . S
C1664 C1666 1.391 . S
C1665 C1664 1.386 . S
C1665 C1669 1.393 . S
C1666 H1658 0.950 . S
C1666 C1664 1.391 . S
C1666 C1667 1.400 . S
C1667 C1666 1.400 . S
C1667 C1668 1.398 . S
C1667 C1673 1.491 . S
C1668 H1659 0.950 . S
C1668 C1667 1.398 . S
C1668 C1669 1.391 . S
C1669 H1657 0.950 . S
C1669 C1665 1.393 . S
C1669 C1668 1.391 . S
C1670 H1660 0.950 . S
C1670 C1671 1.386 . S
C1670 C1672 1.391 . S
C1671 C1670 1.386 . S
C1671 C1675 1.393 . S
C1672 H1661 0.950 . S
C1672 C1670 1.391 . S
C1672 C1673 1.400 . S
C1673 C1667 1.491 . S
C1673 C1672 1.400 . S
C1673 C1674 1.398 . S
C1674 H1662 0.950 . S
C1674 C1673 1.398 . S
C1674 C1675 1.391 . S
C1675 H1663 0.950 . S
C1675 C1671 1.393 . S
C1675 C1674 1.391 . S
H1676 C1684 0.950 . S
H1677 C1689 0.950 . S
H1678 C1686 0.950 . S
H1679 C1688 0.950 . S
H1680 C1690 0.950 . S
H1681 C1692 0.950 . S
H1682 C1694 0.950 . S
H1683 C1695 0.950 . S
C1684 H1676 0.950 . S
C1684 C1685 1.386 . S
C1684 C1686 1.391 . S
C1685 C1684 1.386 . S
C1685 C1689 1.393 . S
C1686 H1678 0.950 . S
C1686 C1684 1.391 . S
C1686 C1687 1.400 . S
C1687 C1686 1.400 . S
C1687 C1688 1.398 . S
C1687 C1693 1.491 . S
C1688 H1679 0.950 . S
C1688 C1687 1.398 . S
C1688 C1689 1.391 . S
C1689 H1677 0.950 . S
C1689 C1685 1.393 . S
C1689 C1688 1.391 . S
C1690 H1680 0.950 . S
C1690 C1691 1.386 . S
C1690 C1692 1.391 . S
C1691 C1690 1.386 . S
C1691 C1695 1.393 . S
C1692 H1681 0.950 . S
C1692 C1690 1.391 . S
C1692 C1693 1.400 . S
C1693 C1687 1.491 . S
C1693 C1692 1.400 . S
C1693 C1694 1.398 . S
C1694 H1682 0.950 . S
C1694 C1693 1.398 . S
C1694 C1695 1.391 . S
C1695 H1683 0.950 . S
C1695 C1691 1.393 . S
C1695 C1694 1.391 . S
H1696 C1704 0.950 . S
H1697 C1709 0.950 . S
H1698 C1706 0.950 . S
H1699 C1708 0.950 . S
H1700 C1710 0.950 . S
H1701 C1712 0.950 . S
H1702 C1714 0.950 . S
H1703 C1715 0.950 . S
C1704 H1696 0.950 . S
C1704 C1705 1.386 . S
C1704 C1706 1.391 . S
C1705 C1704 1.386 . S
C1705 C1709 1.393 . S
C1706 H1698 0.950 . S
C1706 C1704 1.391 . S
C1706 C1707 1.400 . S
C1707 C1706 1.400 . S
C1707 C1708 1.398 . S
C1707 C1713 1.491 . S
C1708 H1699 0.950 . S
C1708 C1707 1.398 . S
C1708 C1709 1.391 . S
C1709 H1697 0.950 . S
C1709 C1705 1.393 . S
C1709 C1708 1.391 . S
C1710 H1700 0.950 . S
C1710 C1711 1.386 . S
C1710 C1712 1.391 . S
C1711 C1710 1.386 . S
C1711 C1715 1.393 . S
C1712 H1701 0.950 . S
C1712 C1710 1.391 . S
C1712 C1713 1.400 . S
C1713 C1707 1.491 . S
C1713 C1712 1.400 . S
C1713 C1714 1.398 . S
C1714 H1702 0.950 . S
C1714 C1713 1.398 . S
C1714 C1715 1.391 . S
C1715 H1703 0.950 . S
C1715 C1711 1.393 . S
C1715 C1714 1.391 . S
H1716 C1724 0.950 . S
H1717 C1729 0.950 . S
H1718 C1726 0.950 . S
H1719 C1728 0.950 . S
H1720 C1730 0.950 . S
H1721 C1732 0.950 . S
H1722 C1734 0.950 . S
H1723 C1735 0.950 . S
C1724 H1716 0.950 . S
C1724 C1725 1.386 . S
C1724 C1726 1.391 . S
C1725 C1724 1.386 . S
C1725 C1729 1.393 . S
C1726 H1718 0.950 . S
C1726 C1724 1.391 . S
C1726 C1727 1.400 . S
C1727 C1726 1.400 . S
C1727 C1728 1.398 . S
C1727 C1733 1.491 . S
C1728 H1719 0.950 . S
C1728 C1727 1.398 . S
C1728 C1729 1.391 . S
C1729 H1717 0.950 . S
C1729 C1725 1.393 . S
C1729 C1728 1.391 . S
C1730 H1720 0.950 . S
C1730 C1731 1.386 . S
C1730 C1732 1.391 . S
C1731 C1730 1.386 . S
C1731 C1735 1.393 . S
C1732 H1721 0.950 . S
C1732 C1730 1.391 . S
C1732 C1733 1.400 . S
C1733 C1727 1.491 . S
C1733 C1732 1.400 . S
C1733 C1734 1.398 . S
C1734 H1722 0.950 . S
C1734 C1733 1.398 . S
C1734 C1735 1.391 . S
C1735 H1723 0.950 . S
C1735 C1731 1.393 . S
C1735 C1734 1.391 . S
H1736 C1744 0.950 . S
H1737 C1749 0.950 . S
H1738 C1746 0.950 . S
H1739 C1748 0.950 . S
H1740 C1750 0.950 . S
H1741 C1752 0.950 . S
H1742 C1754 0.950 . S
H1743 C1755 0.950 . S
C1744 H1736 0.950 . S
C1744 C1745 1.386 . S
C1744 C1746 1.391 . S
C1745 C1744 1.386 . S
C1745 C1749 1.393 . S
C1746 H1738 0.950 . S
C1746 C1744 1.391 . S
C1746 C1747 1.400 . S
C1747 C1746 1.400 . S
C1747 C1748 1.398 . S
C1747 C1753 1.491 . S
C1748 H1739 0.950 . S
C1748 C1747 1.398 . S
C1748 C1749 1.391 . S
C1749 H1737 0.950 . S
C1749 C1745 1.393 . S
C1749 C1748 1.391 . S
C1750 H1740 0.950 . S
C1750 C1751 1.386 . S
C1750 C1752 1.391 . S
C1751 C1750 1.386 . S
C1751 C1755 1.393 . S
C1752 H1741 0.950 . S
C1752 C1750 1.391 . S
C1752 C1753 1.400 . S
C1753 C1747 1.491 . S
C1753 C1752 1.400 . S
C1753 C1754 1.398 . S
C1754 H1742 0.950 . S
C1754 C1753 1.398 . S
C1754 C1755 1.391 . S
C1755 H1743 0.950 . S
C1755 C1751 1.393 . S
C1755 C1754 1.391 . S
H1756 C1764 0.950 . S
H1757 C1769 0.950 . S
H1758 C1766 0.950 . S
H1759 C1768 0.950 . S
H1760 C1770 0.950 . S
H1761 C1772 0.950 . S
H1762 C1774 0.950 . S
H1763 C1775 0.950 . S
C1764 H1756 0.950 . S
C1764 C1765 1.386 . S
C1764 C1766 1.391 . S
C1765 C1764 1.386 . S
C1765 C1769 1.393 . S
C1766 H1758 0.950 . S
C1766 C1764 1.391 . S
C1766 C1767 1.400 . S
C1767 C1766 1.400 . S
C1767 C1768 1.398 . S
C1767 C1773 1.491 . S
C1768 H1759 0.950 . S
C1768 C1767 1.398 . S
C1768 C1769 1.391 . S
C1769 H1757 0.950 . S
C1769 C1765 1.393 . S
C1769 C1768 1.391 . S
C1770 H1760 0.950 . S
C1770 C1771 1.386 . S
C1770 C1772 1.391 . S
C1771 C1770 1.386 . S
C1771 C1775 1.393 . S
C1772 H1761 0.950 . S
C1772 C1770 1.391 . S
C1772 C1773 1.400 . S
C1773 C1767 1.491 . S
C1773 C1772 1.400 . S
C1773 C1774 1.398 . S
C1774 H1762 0.950 . S
C1774 C1773 1.398 . S
C1774 C1775 1.391 . S
C1775 H1763 0.950 . S
C1775 C1771 1.393 . S
C1775 C1774 1.391 . S
H1776 C1784 0.950 . S
H1777 C1789 0.950 . S
H1778 C1786 0.950 . S
H1779 C1788 0.950 . S
H1780 C1790 0.950 . S
H1781 C1792 0.950 . S
H1782 C1794 0.950 . S
H1783 C1795 0.950 . S
C1784 H1776 0.950 . S
C1784 C1785 1.386 . S
C1784 C1786 1.391 . S
C1785 C1784 1.386 . S
C1785 C1789 1.393 . S
C1786 H1778 0.950 . S
C1786 C1784 1.391 . S
C1786 C1787 1.400 . S
C1787 C1786 1.400 . S
C1787 C1788 1.398 . S
C1787 C1793 1.491 1_554 S
C1788 H1779 0.950 . S
C1788 C1787 1.398 . S
C1788 C1789 1.391 . S
C1789 H1777 0.950 . S
C1789 C1785 1.393 . S
C1789 C1788 1.391 . S
C1790 H1780 0.950 . S
C1790 C1791 1.386 . S
C1790 C1792 1.391 . S
C1791 C1790 1.386 . S
C1791 C1795 1.393 . S
C1792 H1781 0.950 . S
C1792 C1790 1.391 . S
C1792 C1793 1.400 . S
C1793 C1787 1.491 1_556 S
C1793 C1792 1.400 . S
C1793 C1794 1.398 . S
C1794 H1782 0.950 . S
C1794 C1793 1.398 . S
C1794 C1795 1.391 . S
C1795 H1783 0.950 . S
C1795 C1791 1.393 . S
C1795 C1794 1.391 . S
H1796 C1804 0.950 . S
H1797 C1809 0.950 . S
H1798 C1806 0.950 . S
H1799 C1808 0.950 . S
H1800 C1810 0.950 . S
H1801 C1812 0.950 . S
H1802 C1814 0.950 . S
H1803 C1815 0.950 . S
C1804 H1796 0.950 . S
C1804 C1805 1.386 . S
C1804 C1806 1.391 . S
C1805 C1804 1.386 . S
C1805 C1809 1.393 . S
C1806 H1798 0.950 . S
C1806 C1804 1.391 . S
C1806 C1807 1.400 . S
C1807 C1806 1.400 . S
C1807 C1808 1.398 . S
C1807 C1813 1.491 1_554 S
C1808 H1799 0.950 . S
C1808 C1807 1.398 . S
C1808 C1809 1.391 . S
C1809 H1797 0.950 . S
C1809 C1805 1.393 . S
C1809 C1808 1.391 . S
C1810 H1800 0.950 . S
C1810 C1811 1.386 . S
C1810 C1812 1.391 . S
C1811 C1810 1.386 . S
C1811 C1815 1.393 . S
C1812 H1801 0.950 . S
C1812 C1810 1.391 . S
C1812 C1813 1.400 . S
C1813 C1807 1.491 1_556 S
C1813 C1812 1.400 . S
C1813 C1814 1.398 . S
C1814 H1802 0.950 . S
C1814 C1813 1.398 . S
C1814 C1815 1.391 . S
C1815 H1803 0.950 . S
C1815 C1811 1.393 . S
C1815 C1814 1.391 . S
H1816 C1824 0.950 . S
H1817 C1829 0.950 . S
H1818 C1826 0.950 . S
H1819 C1828 0.950 . S
H1820 C1830 0.950 . S
H1821 C1832 0.950 . S
H1822 C1834 0.950 . S
H1823 C1835 0.950 . S
C1824 H1816 0.950 . S
C1824 C1825 1.386 . S
C1824 C1826 1.391 . S
C1825 C1824 1.386 . S
C1825 C1829 1.393 . S
C1826 H1818 0.950 . S
C1826 C1824 1.391 . S
C1826 C1827 1.400 . S
C1827 C1826 1.400 . S
C1827 C1828 1.398 . S
C1827 C1833 1.491 1_554 S
C1828 H1819 0.950 . S
C1828 C1827 1.398 . S
C1828 C1829 1.391 . S
C1829 H1817 0.950 . S
C1829 C1825 1.393 . S
C1829 C1828 1.391 . S
C1830 H1820 0.950 . S
C1830 C1831 1.386 . S
C1830 C1832 1.391 . S
C1831 C1830 1.386 . S
C1831 C1835 1.393 . S
C1832 H1821 0.950 . S
C1832 C1830 1.391 . S
C1832 C1833 1.400 . S
C1833 C1827 1.491 1_556 S
C1833 C1832 1.400 . S
C1833 C1834 1.398 . S
C1834 H1822 0.950 . S
C1834 C1833 1.398 . S
C1834 C1835 1.391 . S
C1835 H1823 0.950 . S
C1835 C1831 1.393 . S
C1835 C1834 1.391 . S
H1836 C1844 0.950 . S
H1837 C1849 0.950 . S
H1838 C1846 0.950 . S
H1839 C1848 0.950 . S
H1840 C1850 0.950 . S
H1841 C1852 0.950 . S
H1842 C1854 0.950 . S
H1843 C1855 0.950 . S
C1844 H1836 0.950 . S
C1844 C1845 1.386 . S
C1844 C1846 1.391 . S
C1845 C1844 1.386 . S
C1845 C1849 1.393 . S
C1846 H1838 0.950 . S
C1846 C1844 1.391 . S
C1846 C1847 1.400 . S
C1847 C1846 1.400 . S
C1847 C1848 1.398 . S
C1847 C1853 1.491 1_554 S
C1848 H1839 0.950 . S
C1848 C1847 1.398 . S
C1848 C1849 1.391 . S
C1849 H1837 0.950 . S
C1849 C1845 1.393 . S
C1849 C1848 1.391 . S
C1850 H1840 0.950 . S
C1850 C1851 1.386 . S
C1850 C1852 1.391 . S
C1851 C1850 1.386 . S
C1851 C1855 1.393 . S
C1852 H1841 0.950 . S
C1852 C1850 1.391 . S
C1852 C1853 1.400 . S
C1853 C1847 1.491 1_556 S
C1853 C1852 1.400 . S
C1853 C1854 1.398 . S
C1854 H1842 0.950 . S
C1854 C1853 1.398 . S
C1854 C1855 1.391 . S
C1855 H1843 0.950 . S
C1855 C1851 1.393 . S
C1855 C1854 1.391 . S
H1856 C1864 0.950 . S
H1857 C1869 0.950 . S
H1858 C1866 0.950 . S
H1859 C1868 0.950 . S
H1860 C1870 0.950 . S
H1861 C1872 0.950 . S
H1862 C1874 0.950 . S
H1863 C1875 0.950 . S
C1864 H1856 0.950 . S
C1864 C1865 1.386 . S
C1864 C1866 1.391 . S
C1865 C1864 1.386 . S
C1865 C1869 1.393 . S
C1866 H1858 0.950 . S
C1866 C1864 1.391 . S
C1866 C1867 1.400 . S
C1867 C1866 1.400 . S
C1867 C1868 1.398 . S
C1867 C1873 1.491 1_554 S
C1868 H1859 0.950 . S
C1868 C1867 1.398 . S
C1868 C1869 1.391 . S
C1869 H1857 0.950 . S
C1869 C1865 1.393 . S
C1869 C1868 1.391 . S
C1870 H1860 0.950 . S
C1870 C1871 1.386 . S
C1870 C1872 1.391 . S
C1871 C1870 1.386 . S
C1871 C1875 1.393 . S
C1872 H1861 0.950 . S
C1872 C1870 1.391 . S
C1872 C1873 1.400 . S
C1873 C1867 1.491 1_556 S
C1873 C1872 1.400 . S
C1873 C1874 1.398 . S
C1874 H1862 0.950 . S
C1874 C1873 1.398 . S
C1874 C1875 1.391 . S
C1875 H1863 0.950 . S
C1875 C1871 1.393 . S
C1875 C1874 1.391 . S
H1876 C1884 0.950 . S
H1877 C1889 0.950 . S
H1878 C1886 0.950 . S
H1879 C1888 0.950 . S
H1880 C1890 0.950 . S
H1881 C1892 0.950 . S
H1882 C1894 0.950 . S
H1883 C1895 0.950 . S
C1884 H1876 0.950 . S
C1884 C1885 1.386 . S
C1884 C1886 1.391 . S
C1885 C1884 1.386 . S
C1885 C1889 1.393 . S
C1886 H1878 0.950 . S
C1886 C1884 1.391 . S
C1886 C1887 1.400 . S
C1887 C1886 1.400 . S
C1887 C1888 1.398 . S
C1887 C1893 1.491 1_556 S
C1888 H1879 0.950 . S
C1888 C1887 1.398 . S
C1888 C1889 1.391 . S
C1889 H1877 0.950 . S
C1889 C1885 1.393 . S
C1889 C1888 1.391 . S
C1890 H1880 0.950 . S
C1890 C1891 1.386 . S
C1890 C1892 1.391 . S
C1891 C1890 1.386 . S
C1891 C1895 1.393 . S
C1892 H1881 0.950 . S
C1892 C1890 1.391 . S
C1892 C1893 1.400 . S
C1893 C1887 1.491 1_554 S
C1893 C1892 1.400 . S
C1893 C1894 1.398 . S
C1894 H1882 0.950 . S
C1894 C1893 1.398 . S
C1894 C1895 1.391 . S
C1895 H1883 0.950 . S
C1895 C1891 1.393 . S
C1895 C1894 1.391 . S
H1896 C1904 0.950 . S
H1897 C1909 0.950 . S
H1898 C1906 0.950 . S
H1899 C1908 0.950 . S
H1900 C1910 0.950 . S
H1901 C1912 0.950 . S
H1902 C1914 0.950 . S
H1903 C1915 0.950 . S
C1904 H1896 0.950 . S
C1904 C1905 1.386 . S
C1904 C1906 1.391 . S
C1905 C1904 1.386 . S
C1905 C1909 1.393 . S
C1906 H1898 0.950 . S
C1906 C1904 1.391 . S
C1906 C1907 1.400 . S
C1907 C1906 1.400 . S
C1907 C1908 1.398 . S
C1907 C1913 1.491 . S
C1908 H1899 0.950 . S
C1908 C1907 1.398 . S
C1908 C1909 1.391 . S
C1909 H1897 0.950 . S
C1909 C1905 1.393 . S
C1909 C1908 1.391 . S
C1910 H1900 0.950 . S
C1910 C1911 1.386 . S
C1910 C1912 1.391 . S
C1911 C1910 1.386 . S
C1911 C1915 1.393 . S
C1912 H1901 0.950 . S
C1912 C1910 1.391 . S
C1912 C1913 1.400 . S
C1913 C1907 1.491 . S
C1913 C1912 1.400 . S
C1913 C1914 1.398 . S
C1914 H1902 0.950 . S
C1914 C1913 1.398 . S
C1914 C1915 1.391 . S
C1915 H1903 0.950 . S
C1915 C1911 1.393 . S
C1915 C1914 1.391 . S
H1916 C1924 0.950 . S
H1917 C1929 0.950 . S
H1918 C1926 0.950 . S
H1919 C1928 0.950 . S
H1920 C1930 0.950 . S
H1921 C1932 0.950 . S
H1922 C1934 0.950 . S
H1923 C1935 0.950 . S
C1924 H1916 0.950 . S
C1924 C1925 1.386 . S
C1924 C1926 1.391 . S
C1925 C1924 1.386 . S
C1925 C1929 1.393 . S
C1926 H1918 0.950 . S
C1926 C1924 1.391 . S
C1926 C1927 1.400 . S
C1927 C1926 1.400 . S
C1927 C1928 1.398 . S
C1927 C1933 1.491 . S
C1928 H1919 0.950 . S
C1928 C1927 1.398 . S
C1928 C1929 1.391 . S
C1929 H1917 0.950 . S
C1929 C1925 1.393 . S
C1929 C1928 1.391 . S
C1930 H1920 0.950 . S
C1930 C1931 1.386 . S
C1930 C1932 1.391 . S
C1931 C1930 1.386 . S
C1931 C1935 1.393 . S
C1932 H1921 0.950 . S
C1932 C1930 1.391 . S
C1932 C1933 1.400 . S
C1933 C1927 1.491 . S
C1933 C1932 1.400 . S
C1933 C1934 1.398 . S
C1934 H1922 0.950 . S
C1934 C1933 1.398 . S
C1934 C1935 1.391 . S
C1935 H1923 0.950 . S
C1935 C1931 1.393 . S
C1935 C1934 1.391 . S
H1936 C1944 0.950 . S
H1937 C1949 0.950 . S
H1938 C1946 0.950 . S
H1939 C1948 0.950 . S
H1940 C1950 0.950 . S
H1941 C1952 0.950 . S
H1942 C1954 0.950 . S
H1943 C1955 0.950 . S
C1944 H1936 0.950 . S
C1944 C1945 1.386 . S
C1944 C1946 1.391 . S
C1945 C1944 1.386 . S
C1945 C1949 1.393 . S
C1946 H1938 0.950 . S
C1946 C1944 1.391 . S
C1946 C1947 1.400 . S
C1947 C1946 1.400 . S
C1947 C1948 1.398 . S
C1947 C1953 1.491 . S
C1948 H1939 0.950 . S
C1948 C1947 1.398 . S
C1948 C1949 1.391 . S
C1949 H1937 0.950 . S
C1949 C1945 1.393 . S
C1949 C1948 1.391 . S
C1950 H1940 0.950 . S
C1950 C1951 1.386 . S
C1950 C1952 1.391 . S
C1951 C1950 1.386 . S
C1951 C1955 1.393 . S
C1952 H1941 0.950 . S
C1952 C1950 1.391 . S
C1952 C1953 1.400 . S
C1953 C1947 1.491 . S
C1953 C1952 1.400 . S
C1953 C1954 1.398 . S
C1954 H1942 0.950 . S
C1954 C1953 1.398 . S
C1954 C1955 1.391 . S
C1955 H1943 0.950 . S
C1955 C1951 1.393 . S
C1955 C1954 1.391 . S
H1956 C1964 0.950 . S
H1957 C1969 0.950 . S
H1958 C1966 0.950 . S
H1959 C1968 0.950 . S
H1960 C1970 0.950 . S
H1961 C1972 0.950 . S
H1962 C1974 0.950 . S
H1963 C1975 0.950 . S
C1964 H1956 0.950 . S
C1964 C1965 1.386 . S
C1964 C1966 1.391 . S
C1965 C1964 1.386 . S
C1965 C1969 1.393 . S
C1966 H1958 0.950 . S
C1966 C1964 1.391 . S
C1966 C1967 1.400 . S
C1967 C1966 1.400 . S
C1967 C1968 1.398 . S
C1967 C1973 1.491 . S
C1968 H1959 0.950 . S
C1968 C1967 1.398 . S
C1968 C1969 1.391 . S
C1969 H1957 0.950 . S
C1969 C1965 1.393 . S
C1969 C1968 1.391 . S
C1970 H1960 0.950 . S
C1970 C1971 1.386 . S
C1970 C1972 1.391 . S
C1971 C1970 1.386 . S
C1971 C1975 1.393 . S
C1972 H1961 0.950 . S
C1972 C1970 1.391 . S
C1972 C1973 1.400 . S
C1973 C1967 1.491 . S
C1973 C1972 1.400 . S
C1973 C1974 1.398 . S
C1974 H1962 0.950 . S
C1974 C1973 1.398 . S
C1974 C1975 1.391 . S
C1975 H1963 0.950 . S
C1975 C1971 1.393 . S
C1975 C1974 1.391 . S
H1976 C1984 0.950 . S
H1977 C1989 0.950 . S
H1978 C1986 0.950 . S
H1979 C1988 0.950 . S
H1980 C1990 0.950 . S
H1981 C1992 0.950 . S
H1982 C1994 0.950 . S
H1983 C1995 0.950 . S
C1984 H1976 0.950 . S
C1984 C1985 1.386 . S
C1984 C1986 1.391 . S
C1985 C1984 1.386 . S
C1985 C1989 1.393 . S
C1986 H1978 0.950 . S
C1986 C1984 1.391 . S
C1986 C1987 1.400 . S
C1987 C1986 1.400 . S
C1987 C1988 1.398 . S
C1987 C1993 1.491 . S
C1988 H1979 0.950 . S
C1988 C1987 1.398 . S
C1988 C1989 1.391 . S
C1989 H1977 0.950 . S
C1989 C1985 1.393 . S
C1989 C1988 1.391 . S
C1990 H1980 0.950 . S
C1990 C1991 1.386 . S
C1990 C1992 1.391 . S
C1991 C1990 1.386 . S
C1991 C1995 1.393 . S
C1992 H1981 0.950 . S
C1992 C1990 1.391 . S
C1992 C1993 1.400 . S
C1993 C1987 1.491 . S
C1993 C1992 1.400 . S
C1993 C1994 1.398 . S
C1994 H1982 0.950 . S
C1994 C1993 1.398 . S
C1994 C1995 1.391 . S
C1995 H1983 0.950 . S
C1995 C1991 1.393 . S
C1995 C1994 1.391 . S
H1996 C2004 0.950 . S
H1997 C2009 0.950 . S
H1998 C2006 0.950 . S
H1999 C2008 0.950 . S
H2000 C2010 0.950 . S
H2001 C2012 0.950 . S
H2002 C2014 0.950 . S
H2003 C2015 0.950 . S
C2004 H1996 0.950 . S
C2004 C2005 1.386 . S
C2004 C2006 1.391 . S
C2005 C2004 1.386 . S
C2005 C2009 1.393 . S
C2006 H1998 0.950 . S
C2006 C2004 1.391 . S
C2006 C2007 1.400 . S
C2007 C2006 1.400 . S
C2007 C2008 1.398 . S
C2007 C2013 1.491 . S
C2008 H1999 0.950 . S
C2008 C2007 1.398 . S
C2008 C2009 1.391 . S
C2009 H1997 0.950 . S
C2009 C2005 1.393 . S
C2009 C2008 1.391 . S
C2010 H2000 0.950 . S
C2010 C2011 1.386 . S
C2010 C2012 1.391 . S
C2011 C2010 1.386 . S
C2011 C2015 1.393 . S
C2012 H2001 0.950 . S
C2012 C2010 1.391 . S
C2012 C2013 1.400 . S
C2013 C2007 1.491 . S
C2013 C2012 1.400 . S
C2013 C2014 1.398 . S
C2014 H2002 0.950 . S
C2014 C2013 1.398 . S
C2014 C2015 1.391 . S
C2015 H2003 0.950 . S
C2015 C2011 1.393 . S
C2015 C2014 1.391 . S
C825 C5 0.704 . S
C831 C107 0.677 . S
C845 C141 0.680 . S
C851 C39 0.708 . S
C865 C175 0.703 . S
C871 C73 0.677 . S
C885 C311 0.676 . S
C891 C209 0.701 . S
C905 C243 0.708 . S
C911 C345 0.680 . S
C925 C277 0.677 . S
C931 C379 0.694 . S
C945 C515 0.710 . S
C951 C413 0.688 . S
C965 C549 0.677 . S
C971 C447 0.702 . S
C985 C583 0.710 . S
C991 C481 0.686 . S
C1005 C719 0.676 . S
C1011 C617 0.698 . S
C1025 C651 0.680 . S
C1031 C753 0.689 . S
C1045 C787 0.678 . S
C1051 C685 0.692 . S
C1065 C281 1.744 . S
C1071 C9 1.728 . S
C1085 C43 1.729 . S
C1091 C315 1.747 . S
C1105 C77 1.754 . S
C1111 C349 1.749 . S
C1125 C111 1.747 . S
C1131 C383 1.755 . S
C1145 C145 1.755 . S
C1151 C213 1.746 . S
C1165 C247 1.734 . S
C1171 C179 1.731 . S
C1185 C417 1.728 . S
C1191 C689 1.741 . S
C1205 C723 1.743 . S
C1211 C451 1.756 . S
C1225 C757 1.735 . S
C1231 C485 1.731 . S
C1245 C519 1.750 . S
C1251 C791 1.730 . S
C1265 C621 1.735 . S
C1271 C553 1.731 . S
C1285 C655 1.752 . S
C1291 C587 1.732 . S
C1305 C33 1.086 . S
C1311 C271 1.057 . S
C1325 C67 1.071 . S
C1331 C305 1.074 . S
C1345 C339 1.086 . S
C1351 C101 1.057 . S
C1365 C135 1.061 . S
C1371 C373 1.081 . S
C1385 C407 1.061 . S
C1391 C169 1.083 . S
C1405 C237 1.081 . S
C1411 C203 1.061 . S
C1425 C441 1.083 . S
C1431 C679 1.061 . S
C1445 C475 1.082 . S
C1451 C713 1.060 . S
C1465 C509 1.079 . S
C1471 C747 1.063 . S
C1485 C543 1.083 . S
C1491 C781 1.061 . S
C1505 C577 1.057 . S
C1511 C815 1.086 . S
C1525 C645 1.062 . S
C1531 C611 1.080 . S
C1545 C2 1.245 . S
C1551 C342 1.238 . S
C1565 C376 1.256 . S
C1571 C36 1.238 . S
C1585 C206 1.257 . S
C1591 C70 1.265 . S
C1605 C240 1.238 . S
C1611 C104 1.256 . S
C1625 C138 1.239 . S
C1631 C274 1.258 . S
C1645 C172 1.243 . S
C1651 C308 1.263 . S
C1665 C410 1.241 . S
C1671 C750 1.241 . S
C1685 C784 1.239 . S
C1691 C444 1.243 . S
C1705 C614 1.242 . S
C1711 C478 1.262 . S
C1725 C512 1.245 . S
C1731 C648 1.238 . S
C1745 C546 1.239 . S
C1751 C682 1.258 . S
C1765 C716 1.245 . S
C1771 C580 1.238 . S
C1785 C20 1.429 . S
C1791 C530 1.448 . S
C1805 C54 1.430 . S
C1811 C564 1.447 . S
C1825 C88 1.446 . S
C1831 C598 1.431 . S
C1845 C122 1.449 . S
C1851 C428 1.428 . S
C1865 C156 1.434 . S
C1871 C462 1.443 . S
C1885 C496 1.447 . S
C1891 C190 1.430 . S
C1905 C224 1.447 . S
C1911 C734 1.430 . S
C1925 C258 1.444 . S
C1931 C768 1.434 . S
C1945 C292 1.430 . S
C1951 C802 1.447 . S
C1965 C326 1.443 . S
C1971 C632 1.434 . S
C1985 C360 1.436 . S
C1991 C666 1.441 . S
C2005 C700 1.430 . S
C2011 C394 1.447 . S
