# Generated by pormake.
# Topology sod-g, (3)-cn, num edge types: 1
# Building blocks:
#     Node 0, Type 0, BuildingBlock: WUSLED_clean_sbu_0, # of connection points: 3
#     Node 1, Type 0, BuildingBlock: WUSLED_clean_sbu_0, # of connection points: 3
#     Node 2, Type 0, BuildingBlock: WUSLED_clean_sbu_0, # of connection points: 3
#     Node 3, Type 0, BuildingBlock: WUSLED_clean_sbu_0, # of connection points: 3
#     Node 4, Type 0, BuildingBlock: WUSLED_clean_sbu_0, # of connection points: 3
#     Node 5, Type 0, BuildingBlock: WUSLED_clean_sbu_0, # of connection points: 3
#     Node 6, Type 0, BuildingBlock: WUSLED_clean_sbu_0, # of connection points: 3
#     Node 7, Type 0, BuildingBlock: WUSLED_clean_sbu_0, # of connection points: 3
#     Node 8, Type 0, BuildingBlock: WUSLED_clean_sbu_0, # of connection points: 3
#     Node 9, Type 0, BuildingBlock: WUSLED_clean_sbu_0, # of connection points: 3
#     Node 10, Type 0, BuildingBlock: WUSLED_clean_sbu_0, # of connection points: 3
#     Node 11, Type 0, BuildingBlock: WUSLED_clean_sbu_0, # of connection points: 3
#     Node 12, Type 0, BuildingBlock: WUSLED_clean_sbu_0, # of connection points: 3
#     Node 13, Type 0, BuildingBlock: WUSLED_clean_sbu_0, # of connection points: 3
#     Node 14, Type 0, BuildingBlock: WUSLED_clean_sbu_0, # of connection points: 3
#     Node 15, Type 0, BuildingBlock: WUSLED_clean_sbu_0, # of connection points: 3
#     Node 16, Type 0, BuildingBlock: WUSLED_clean_sbu_0, # of connection points: 3
#     Node 17, Type 0, BuildingBlock: WUSLED_clean_sbu_0, # of connection points: 3
#     Node 18, Type 0, BuildingBlock: WUSLED_clean_sbu_0, # of connection points: 3
#     Node 19, Type 0, BuildingBlock: WUSLED_clean_sbu_0, # of connection points: 3
#     Node 20, Type 0, BuildingBlock: WUSLED_clean_sbu_0, # of connection points: 3
#     Node 21, Type 0, BuildingBlock: WUSLED_clean_sbu_0, # of connection points: 3
#     Node 22, Type 0, BuildingBlock: WUSLED_clean_sbu_0, # of connection points: 3
#     Node 23, Type 0, BuildingBlock: WUSLED_clean_sbu_0, # of connection points: 3
#     Node 24, Type 0, BuildingBlock: WUSLED_clean_sbu_0, # of connection points: 3
#     Node 25, Type 0, BuildingBlock: WUSLED_clean_sbu_0, # of connection points: 3
#     Node 26, Type 0, BuildingBlock: WUSLED_clean_sbu_0, # of connection points: 3
#     Node 27, Type 0, BuildingBlock: WUSLED_clean_sbu_0, # of connection points: 3
#     Node 28, Type 0, BuildingBlock: WUSLED_clean_sbu_0, # of connection points: 3
#     Node 29, Type 0, BuildingBlock: WUSLED_clean_sbu_0, # of connection points: 3
#     Node 30, Type 0, BuildingBlock: WUSLED_clean_sbu_0, # of connection points: 3
#     Node 31, Type 0, BuildingBlock: WUSLED_clean_sbu_0, # of connection points: 3
#     Node 32, Type 0, BuildingBlock: WUSLED_clean_sbu_0, # of connection points: 3
#     Node 33, Type 0, BuildingBlock: WUSLED_clean_sbu_0, # of connection points: 3
#     Node 34, Type 0, BuildingBlock: WUSLED_clean_sbu_0, # of connection points: 3
#     Node 35, Type 0, BuildingBlock: WUSLED_clean_sbu_0, # of connection points: 3
#     Node 36, Type 0, BuildingBlock: WUSLED_clean_sbu_0, # of connection points: 3
#     Node 37, Type 0, BuildingBlock: WUSLED_clean_sbu_0, # of connection points: 3
#     Node 38, Type 0, BuildingBlock: WUSLED_clean_sbu_0, # of connection points: 3
#     Node 39, Type 0, BuildingBlock: WUSLED_clean_sbu_0, # of connection points: 3
#     Node 40, Type 0, BuildingBlock: WUSLED_clean_sbu_0, # of connection points: 3
#     Node 41, Type 0, BuildingBlock: WUSLED_clean_sbu_0, # of connection points: 3
#     Node 42, Type 0, BuildingBlock: WUSLED_clean_sbu_0, # of connection points: 3
#     Node 43, Type 0, BuildingBlock: WUSLED_clean_sbu_0, # of connection points: 3
#     Node 44, Type 0, BuildingBlock: WUSLED_clean_sbu_0, # of connection points: 3
#     Node 45, Type 0, BuildingBlock: WUSLED_clean_sbu_0, # of connection points: 3
#     Node 46, Type 0, BuildingBlock: WUSLED_clean_sbu_0, # of connection points: 3
#     Node 47, Type 0, BuildingBlock: WUSLED_clean_sbu_0, # of connection points: 3
#     Edge 48, Type (0, 0), BuildingBlock: AJUNOK_clean_linker_0, # of connection points: 2
#     Edge 49, Type (0, 0), BuildingBlock: AJUNOK_clean_linker_0, # of connection points: 2
#     Edge 50, Type (0, 0), BuildingBlock: AJUNOK_clean_linker_0, # of connection points: 2
#     Edge 51, Type (0, 0), BuildingBlock: AJUNOK_clean_linker_0, # of connection points: 2
#     Edge 52, Type (0, 0), BuildingBlock: AJUNOK_clean_linker_0, # of connection points: 2
#     Edge 53, Type (0, 0), BuildingBlock: AJUNOK_clean_linker_0, # of connection points: 2
#     Edge 54, Type (0, 0), BuildingBlock: AJUNOK_clean_linker_0, # of connection points: 2
#     Edge 55, Type (0, 0), BuildingBlock: AJUNOK_clean_linker_0, # of connection points: 2
#     Edge 56, Type (0, 0), BuildingBlock: AJUNOK_clean_linker_0, # of connection points: 2
#     Edge 57, Type (0, 0), BuildingBlock: AJUNOK_clean_linker_0, # of connection points: 2
#     Edge 58, Type (0, 0), BuildingBlock: AJUNOK_clean_linker_0, # of connection points: 2
#     Edge 59, Type (0, 0), BuildingBlock: AJUNOK_clean_linker_0, # of connection points: 2
#     Edge 60, Type (0, 0), BuildingBlock: AJUNOK_clean_linker_0, # of connection points: 2
#     Edge 61, Type (0, 0), BuildingBlock: AJUNOK_clean_linker_0, # of connection points: 2
#     Edge 62, Type (0, 0), BuildingBlock: AJUNOK_clean_linker_0, # of connection points: 2
#     Edge 63, Type (0, 0), BuildingBlock: AJUNOK_clean_linker_0, # of connection points: 2
#     Edge 64, Type (0, 0), BuildingBlock: AJUNOK_clean_linker_0, # of connection points: 2
#     Edge 65, Type (0, 0), BuildingBlock: AJUNOK_clean_linker_0, # of connection points: 2
#     Edge 66, Type (0, 0), BuildingBlock: AJUNOK_clean_linker_0, # of connection points: 2
#     Edge 67, Type (0, 0), BuildingBlock: AJUNOK_clean_linker_0, # of connection points: 2
#     Edge 68, Type (0, 0), BuildingBlock: AJUNOK_clean_linker_0, # of connection points: 2
#     Edge 69, Type (0, 0), BuildingBlock: AJUNOK_clean_linker_0, # of connection points: 2
#     Edge 70, Type (0, 0), BuildingBlock: AJUNOK_clean_linker_0, # of connection points: 2
#     Edge 71, Type (0, 0), BuildingBlock: AJUNOK_clean_linker_0, # of connection points: 2
#     Edge 72, Type (0, 0), BuildingBlock: AJUNOK_clean_linker_0, # of connection points: 2
#     Edge 73, Type (0, 0), BuildingBlock: AJUNOK_clean_linker_0, # of connection points: 2
#     Edge 74, Type (0, 0), BuildingBlock: AJUNOK_clean_linker_0, # of connection points: 2
#     Edge 75, Type (0, 0), BuildingBlock: AJUNOK_clean_linker_0, # of connection points: 2
#     Edge 76, Type (0, 0), BuildingBlock: AJUNOK_clean_linker_0, # of connection points: 2
#     Edge 77, Type (0, 0), BuildingBlock: AJUNOK_clean_linker_0, # of connection points: 2
#     Edge 78, Type (0, 0), BuildingBlock: AJUNOK_clean_linker_0, # of connection points: 2
#     Edge 79, Type (0, 0), BuildingBlock: AJUNOK_clean_linker_0, # of connection points: 2
#     Edge 80, Type (0, 0), BuildingBlock: AJUNOK_clean_linker_0, # of connection points: 2
#     Edge 81, Type (0, 0), BuildingBlock: AJUNOK_clean_linker_0, # of connection points: 2
#     Edge 82, Type (0, 0), BuildingBlock: AJUNOK_clean_linker_0, # of connection points: 2
#     Edge 83, Type (0, 0), BuildingBlock: AJUNOK_clean_linker_0, # of connection points: 2
#     Edge 84, Type (0, 0), BuildingBlock: AJUNOK_clean_linker_0, # of connection points: 2
#     Edge 85, Type (0, 0), BuildingBlock: AJUNOK_clean_linker_0, # of connection points: 2
#     Edge 86, Type (0, 0), BuildingBlock: AJUNOK_clean_linker_0, # of connection points: 2
#     Edge 87, Type (0, 0), BuildingBlock: AJUNOK_clean_linker_0, # of connection points: 2
#     Edge 88, Type (0, 0), BuildingBlock: AJUNOK_clean_linker_0, # of connection points: 2
#     Edge 89, Type (0, 0), BuildingBlock: AJUNOK_clean_linker_0, # of connection points: 2
#     Edge 90, Type (0, 0), BuildingBlock: AJUNOK_clean_linker_0, # of connection points: 2
#     Edge 91, Type (0, 0), BuildingBlock: AJUNOK_clean_linker_0, # of connection points: 2
#     Edge 92, Type (0, 0), BuildingBlock: AJUNOK_clean_linker_0, # of connection points: 2
#     Edge 93, Type (0, 0), BuildingBlock: AJUNOK_clean_linker_0, # of connection points: 2
#     Edge 94, Type (0, 0), BuildingBlock: AJUNOK_clean_linker_0, # of connection points: 2
#     Edge 95, Type (0, 0), BuildingBlock: AJUNOK_clean_linker_0, # of connection points: 2
#     Edge 96, Type (0, 0), BuildingBlock: AJUNOK_clean_linker_0, # of connection points: 2
#     Edge 97, Type (0, 0), BuildingBlock: AJUNOK_clean_linker_0, # of connection points: 2
#     Edge 98, Type (0, 0), BuildingBlock: AJUNOK_clean_linker_0, # of connection points: 2
#     Edge 99, Type (0, 0), BuildingBlock: AJUNOK_clean_linker_0, # of connection points: 2
#     Edge 100, Type (0, 0), BuildingBlock: AJUNOK_clean_linker_0, # of connection points: 2
#     Edge 101, Type (0, 0), BuildingBlock: AJUNOK_clean_linker_0, # of connection points: 2
#     Edge 102, Type (0, 0), BuildingBlock: AJUNOK_clean_linker_0, # of connection points: 2
#     Edge 103, Type (0, 0), BuildingBlock: AJUNOK_clean_linker_0, # of connection points: 2
#     Edge 104, Type (0, 0), BuildingBlock: AJUNOK_clean_linker_0, # of connection points: 2
#     Edge 105, Type (0, 0), BuildingBlock: AJUNOK_clean_linker_0, # of connection points: 2
#     Edge 106, Type (0, 0), BuildingBlock: AJUNOK_clean_linker_0, # of connection points: 2
#     Edge 107, Type (0, 0), BuildingBlock: AJUNOK_clean_linker_0, # of connection points: 2
#     Edge 108, Type (0, 0), BuildingBlock: AJUNOK_clean_linker_0, # of connection points: 2
#     Edge 109, Type (0, 0), BuildingBlock: AJUNOK_clean_linker_0, # of connection points: 2
#     Edge 110, Type (0, 0), BuildingBlock: AJUNOK_clean_linker_0, # of connection points: 2
#     Edge 111, Type (0, 0), BuildingBlock: AJUNOK_clean_linker_0, # of connection points: 2
#     Edge 112, Type (0, 0), BuildingBlock: AJUNOK_clean_linker_0, # of connection points: 2
#     Edge 113, Type (0, 0), BuildingBlock: AJUNOK_clean_linker_0, # of connection points: 2
#     Edge 114, Type (0, 0), BuildingBlock: AJUNOK_clean_linker_0, # of connection points: 2
#     Edge 115, Type (0, 0), BuildingBlock: AJUNOK_clean_linker_0, # of connection points: 2
#     Edge 116, Type (0, 0), BuildingBlock: AJUNOK_clean_linker_0, # of connection points: 2
#     Edge 117, Type (0, 0), BuildingBlock: AJUNOK_clean_linker_0, # of connection points: 2
#     Edge 118, Type (0, 0), BuildingBlock: AJUNOK_clean_linker_0, # of connection points: 2
#     Edge 119, Type (0, 0), BuildingBlock: AJUNOK_clean_linker_0, # of connection points: 2
# Relax obj value: 0.190
# Max RMSD: 0.121
# Mean RMSD: 0.121
data_MOF--net-sod-g--node1-WUSLED_clean_sbu_0--edge1-AJUNOK_clean_linker_0
_symmetry_space_group_name_H-M    P1
_symmetry_Int_Tables_number       1
_symmetry_cell_setting            triclinic
loop_
_symmetry_equiv_pos_as_xyz
'x, y, z'
_cell_length_a     117.74057
_cell_length_b     117.70062
_cell_length_c     117.7357
_cell_angle_alpha  89.993035
_cell_angle_beta   90.016426
_cell_angle_gamma 90.024814
loop_
_atom_site_label
_atom_site_type_symbol
_atom_site_fract_x
_atom_site_fract_y
_atom_site_fract_z
_atom_type_partial_charge
C0 C 0.07963 0.45081 0.20936 0.0
C1 C 0.06953 0.45412 0.21474 0.0
C2 C 0.07503 0.44357 0.23176 0.0
C3 C 0.06724 0.45052 0.22586 0.0
C4 C 0.08497 0.44008 0.22618 0.0
C5 C 0.08723 0.44366 0.21509 0.0
U6 U 0.0768 0.46824 0.18113 0.0
O7 O 0.09004 0.48033 0.17587 0.0
O8 O 0.08609 0.46544 0.16505 0.0
C9 C 0.09269 0.47427 0.16689 0.0
C10 C 0.0833 0.45575 0.19849 0.0
C11 C 0.09899 0.47963 0.15759 0.0
C12 C 0.11729 0.48624 0.15084 0.0
C13 C 0.11082 0.4803 0.15874 0.0
C14 C 0.10024 0.49053 0.14011 0.0
C15 C 0.11205 0.49163 0.14161 0.0
C16 C 0.0937 0.48459 0.14814 0.0
C17 C 0.04539 0.48098 0.17653 0.0
C18 C 0.03363 0.49076 0.16261 0.0
C19 C 0.02665 0.48772 0.18173 0.0
C20 C 0.03673 0.48226 0.18456 0.0
C21 C 0.0249 0.49195 0.17072 0.0
C22 C 0.04384 0.48523 0.16549 0.0
C23 C 0.05568 0.47506 0.18035 0.0
O24 O 0.07923 0.45136 0.18906 0.0
O25 O 0.08396 0.46687 0.19825 0.0
O26 O 0.06368 0.48082 0.1856 0.0
O27 O 0.05926 0.46596 0.17493 0.0
H28 H 0.06364 0.45978 0.21051 0.0
H29 H 0.05961 0.45354 0.23 0.0
H30 H 0.0911 0.43472 0.23046 0.0
H31 H 0.09513 0.44113 0.21111 0.0
H32 H 0.12639 0.48689 0.15209 0.0
H33 H 0.11504 0.47648 0.16598 0.0
H34 H 0.09606 0.49464 0.13302 0.0
H35 H 0.08456 0.48414 0.14714 0.0
H36 H 0.03253 0.49404 0.15409 0.0
H37 H 0.0203 0.48882 0.18829 0.0
H38 H 0.0378 0.47907 0.19313 0.0
H39 H 0.05046 0.48432 0.15917 0.0
C40 C 0.5599 0.08102 0.2086 0.0
C41 C 0.55645 0.07104 0.21412 0.0
C42 C 0.567 0.07669 0.23101 0.0
C43 C 0.55997 0.0689 0.22528 0.0
C44 C 0.57088 0.08638 0.22525 0.0
C45 C 0.56734 0.08852 0.21413 0.0
U46 U 0.54258 0.07805 0.18036 0.0
O47 O 0.5299 0.09073 0.17519 0.0
O48 O 0.5452 0.08794 0.1646 0.0
C49 C 0.53599 0.09399 0.16643 0.0
C50 C 0.55472 0.08474 0.19788 0.0
C51 C 0.53038 0.1 0.1571 0.0
C52 C 0.5251 0.11822 0.14909 0.0
C53 C 0.53102 0.11187 0.15712 0.0
C54 C 0.51797 0.10083 0.14067 0.0
C55 C 0.51852 0.11279 0.14075 0.0
C56 C 0.52387 0.09444 0.14883 0.0
C57 C 0.53162 0.04639 0.17404 0.0
C58 C 0.51618 0.03672 0.16425 0.0
C59 C 0.52942 0.026 0.1758 0.0
C60 C 0.53535 0.03593 0.17824 0.0
C61 C 0.51958 0.02631 0.16909 0.0
C62 C 0.52216 0.04677 0.16676 0.0
C63 C 0.5371 0.05657 0.17876 0.0
O64 O 0.55931 0.08122 0.18833 0.0
O65 O 0.54358 0.08478 0.19767 0.0
O66 O 0.53076 0.06409 0.18406 0.0
O67 O 0.54617 0.06082 0.1738 0.0
H68 H 0.55067 0.06518 0.21 0.0
H69 H 0.55695 0.06134 0.22956 0.0
H70 H 0.57619 0.09256 0.22952 0.0
H71 H 0.56997 0.09633 0.21003 0.0
H72 H 0.52543 0.1274 0.14963 0.0
H73 H 0.53589 0.11629 0.16357 0.0
H74 H 0.51294 0.09643 0.13434 0.0
H75 H 0.52323 0.08526 0.14879 0.0
H76 H 0.50857 0.0372 0.15911 0.0
H77 H 0.53227 0.01811 0.1796 0.0
H78 H 0.54259 0.03549 0.18391 0.0
H79 H 0.51914 0.05481 0.16346 0.0
C80 C 0.92921 0.56014 0.20876 0.0
C81 C 0.9406 0.56077 0.21225 0.0
C82 C 0.93461 0.56681 0.23122 0.0
C83 C 0.94328 0.56421 0.22336 0.0
C84 C 0.92329 0.56667 0.22744 0.0
C85 C 0.92064 0.56338 0.21634 0.0
U86 U 0.9343 0.5433 0.18084 0.0
O87 O 0.92321 0.52971 0.1744 0.0
O88 O 0.9262 0.54517 0.1639 0.0
C89 C 0.92128 0.53518 0.16487 0.0
C90 C 0.9258 0.55517 0.19777 0.0
C91 C 0.9131 0.53078 0.15653 0.0
C92 C 0.89417 0.52411 0.15174 0.0
C93 C 0.90154 0.52973 0.15921 0.0
C94 C 0.90978 0.52092 0.13871 0.0
C95 C 0.8983 0.51939 0.14158 0.0
C96 C 0.91712 0.52658 0.14614 0.0
C97 C 0.96573 0.53272 0.17579 0.0
C98 C 0.97384 0.51782 0.16399 0.0
C99 C 0.98583 0.52838 0.17698 0.0
C100 C 0.97651 0.53482 0.18035 0.0
C101 C 0.98456 0.51967 0.16898 0.0
C102 C 0.96444 0.52436 0.16736 0.0
C103 C 0.95611 0.53867 0.18109 0.0
O104 O 0.92978 0.55986 0.18844 0.0
O105 O 0.92583 0.54403 0.19742 0.0
O106 O 0.94843 0.53235 0.18616 0.0
O107 O 0.95187 0.54757 0.17584 0.0
H108 H 0.94737 0.55833 0.20651 0.0
H109 H 0.95213 0.56461 0.22585 0.0
H110 H 0.91639 0.56862 0.2332 0.0
H111 H 0.9118 0.56295 0.21381 0.0
H112 H 0.8853 0.52319 0.15403 0.0
H113 H 0.89829 0.53297 0.16718 0.0
H114 H 0.91316 0.51733 0.13095 0.0
H115 H 0.92604 0.52725 0.144 0.0
H116 H 0.9727 0.5111 0.15781 0.0
H117 H 0.99395 0.52983 0.18107 0.0
H118 H 0.97763 0.54116 0.18694 0.0
H119 H 0.95616 0.52262 0.16374 0.0
C120 C 0.45062 0.93049 0.20894 0.0
C121 C 0.45254 0.94108 0.21408 0.0
C122 C 0.44313 0.93444 0.23135 0.0
C123 C 0.44875 0.94306 0.22521 0.0
C124 C 0.44078 0.92409 0.22591 0.0
C125 C 0.44453 0.92214 0.21484 0.0
U126 U 0.46784 0.93424 0.18058 0.0
O127 O 0.48064 0.9217 0.17527 0.0
O128 O 0.4653 0.92456 0.16468 0.0
C129 C 0.47456 0.91856 0.16646 0.0
C130 C 0.45588 0.92725 0.1981 0.0
C131 C 0.47981 0.91192 0.15734 0.0
C132 C 0.48607 0.89336 0.15096 0.0
C133 C 0.4801 0.90009 0.15864 0.0
C134 C 0.49112 0.91018 0.14019 0.0
C135 C 0.49186 0.89835 0.14183 0.0
C136 C 0.48517 0.91697 0.14798 0.0
C137 C 0.47884 0.96595 0.17463 0.0
C138 C 0.49347 0.97569 0.16373 0.0
C139 C 0.48207 0.98609 0.17734 0.0
C140 C 0.47605 0.97625 0.17985 0.0
C141 C 0.49106 0.98588 0.16953 0.0
C142 C 0.48741 0.9657 0.16632 0.0
C143 C 0.47333 0.95574 0.17923 0.0
O144 O 0.4512 0.9309 0.18864 0.0
O145 O 0.46702 0.92738 0.19786 0.0
O146 O 0.47965 0.94817 0.18446 0.0
O147 O 0.46428 0.95155 0.1742 0.0
H148 H 0.45727 0.94762 0.20967 0.0
H149 H 0.45065 0.95114 0.22919 0.0
H150 H 0.43623 0.9174 0.23029 0.0
H151 H 0.443 0.91391 0.211 0.0
H152 H 0.48637 0.88425 0.15229 0.0
H153 H 0.47597 0.89607 0.16582 0.0
H154 H 0.4955 0.91418 0.13316 0.0
H155 H 0.48502 0.9261 0.14689 0.0
H156 H 0.50042 0.9753 0.15771 0.0
H157 H 0.48 0.99382 0.18189 0.0
H158 H 0.4695 0.97658 0.18631 0.0
H159 H 0.48969 0.95779 0.16222 0.0
C160 C 0.07999 0.56075 0.80152 0.0
C161 C 0.06996 0.55753 0.79595 0.0
C162 C 0.07601 0.56783 0.77906 0.0
C163 C 0.06799 0.56105 0.78475 0.0
C164 C 0.08577 0.57145 0.78483 0.0
C165 C 0.08775 0.56789 0.79597 0.0
U166 U 0.07731 0.54349 0.83001 0.0
O167 O 0.09049 0.53126 0.83493 0.0
O168 O 0.08736 0.5464 0.84561 0.0
C169 C 0.0937 0.53739 0.84368 0.0
C170 C 0.08352 0.55561 0.81233 0.0
C171 C 0.09947 0.53166 0.85307 0.0
C172 C 0.11746 0.52538 0.86089 0.0
C173 C 0.11136 0.53146 0.85279 0.0
C174 C 0.09982 0.51988 0.86997 0.0
C175 C 0.11178 0.51938 0.86948 0.0
C176 C 0.09367 0.52594 0.86175 0.0
C177 C 0.04573 0.53184 0.83629 0.0
C178 C 0.03586 0.51691 0.84665 0.0
C179 C 0.02563 0.5287 0.83322 0.0
C180 C 0.0355 0.53481 0.83103 0.0
C181 C 0.02578 0.51946 0.84073 0.0
C182 C 0.04586 0.52305 0.84437 0.0
C183 C 0.05605 0.53737 0.83195 0.0
O184 O 0.07992 0.56022 0.82184 0.0
O185 O 0.08369 0.54447 0.81258 0.0
O186 O 0.06367 0.53119 0.82662 0.0
O187 O 0.06007 0.54656 0.83687 0.0
H188 H 0.06391 0.55195 0.80008 0.0
H189 H 0.06038 0.55823 0.78041 0.0
H190 H 0.09208 0.57662 0.78056 0.0
H191 H 0.09562 0.57033 0.8001 0.0
H192 H 0.12663 0.52512 0.86022 0.0
H193 H 0.11595 0.53581 0.8461 0.0
H194 H 0.09523 0.51552 0.87664 0.0
H195 H 0.08448 0.52604 0.86206 0.0
H196 H 0.03613 0.50981 0.85248 0.0
H197 H 0.01796 0.53086 0.82861 0.0
H198 H 0.03526 0.54154 0.82474 0.0
H199 H 0.05372 0.52065 0.84852 0.0
C200 C 0.45058 0.0805 0.80163 0.0
C201 C 0.45274 0.06993 0.79653 0.0
C202 C 0.44323 0.07629 0.77929 0.0
C203 C 0.44905 0.06784 0.7854 0.0
C204 C 0.44072 0.08665 0.78456 0.0
C205 C 0.44437 0.08873 0.79565 0.0
U206 U 0.46815 0.07688 0.82971 0.0
O207 O 0.48114 0.08939 0.83476 0.0
O208 O 0.46599 0.08657 0.84564 0.0
C209 C 0.47525 0.09253 0.8437 0.0
C210 C 0.45588 0.0839 0.81241 0.0
C211 C 0.48068 0.09908 0.85278 0.0
C212 C 0.48734 0.11749 0.85922 0.0
C213 C 0.48162 0.11084 0.85128 0.0
C214 C 0.49099 0.1007 0.87057 0.0
C215 C 0.49206 0.11254 0.86901 0.0
C216 C 0.48534 0.094 0.86248 0.0
C217 C 0.4796 0.04546 0.83568 0.0
C218 C 0.49289 0.03633 0.84862 0.0
C219 C 0.485 0.02578 0.8328 0.0
C220 C 0.47873 0.03527 0.82959 0.0
C221 C 0.49226 0.02627 0.8422 0.0
C222 C 0.48656 0.04594 0.84537 0.0
C223 C 0.47369 0.05534 0.83087 0.0
O224 O 0.45137 0.08019 0.82193 0.0
O225 O 0.46702 0.08387 0.81251 0.0
O226 O 0.47978 0.06293 0.82538 0.0
O227 O 0.46483 0.05958 0.8362 0.0
H228 H 0.4576 0.06351 0.80098 0.0
H229 H 0.45104 0.05979 0.78141 0.0
H230 H 0.43629 0.09327 0.77995 0.0
H231 H 0.44276 0.09697 0.79941 0.0
H232 H 0.48832 0.12647 0.85749 0.0
H233 H 0.47814 0.11488 0.84377 0.0
H234 H 0.49454 0.09663 0.87801 0.0
H235 H 0.48473 0.0849 0.86372 0.0
H236 H 0.49855 0.03685 0.85586 0.0
H237 H 0.4845 0.01815 0.82766 0.0
H238 H 0.47345 0.03477 0.82206 0.0
H239 H 0.48734 0.05376 0.85017 0.0
C240 C 0.93006 0.45069 0.80159 0.0
C241 C 0.9413 0.45028 0.79768 0.0
C242 C 0.93465 0.44332 0.77925 0.0
C243 C 0.94359 0.44651 0.7866 0.0
C244 C 0.92346 0.44365 0.7834 0.0
C245 C 0.92124 0.44715 0.79447 0.0
U246 U 0.93358 0.46786 0.83001 0.0
O247 O 0.92075 0.4805 0.83492 0.0
O248 O 0.92366 0.46538 0.84576 0.0
C249 C 0.91752 0.47451 0.84376 0.0
C250 C 0.92685 0.45586 0.81245 0.0
C251 C 0.91136 0.48017 0.85295 0.0
C252 C 0.89348 0.4882 0.85925 0.0
C253 C 0.8998 0.48233 0.85118 0.0
C254 C 0.91013 0.48949 0.87129 0.0
C255 C 0.89857 0.49198 0.86936 0.0
C256 C 0.91653 0.48368 0.86308 0.0
C257 C 0.96508 0.47907 0.83652 0.0
C258 C 0.97474 0.49548 0.84458 0.0
C259 C 0.98563 0.48032 0.83592 0.0
C260 C 0.97564 0.47439 0.83371 0.0
C261 C 0.98527 0.49113 0.84093 0.0
C262 C 0.96465 0.48951 0.84231 0.0
C263 C 0.95501 0.4735 0.83167 0.0
O264 O 0.93053 0.45119 0.82191 0.0
O265 O 0.92689 0.467 0.81267 0.0
O266 O 0.94745 0.47979 0.82637 0.0
O267 O 0.95084 0.46435 0.83655 0.0
H268 H 0.94822 0.45311 0.80305 0.0
H269 H 0.95231 0.44632 0.78371 0.0
H270 H 0.9163 0.44174 0.77796 0.0
H271 H 0.91249 0.44758 0.79732 0.0
H272 H 0.88465 0.49 0.85742 0.0
H273 H 0.89568 0.47963 0.8434 0.0
H274 H 0.91423 0.49201 0.87913 0.0
H275 H 0.92544 0.482 0.8646 0.0
H276 H 0.97427 0.50378 0.84853 0.0
H277 H 0.99363 0.47668 0.8332 0.0
H278 H 0.97614 0.46638 0.82919 0.0
H279 H 0.95656 0.49326 0.84455 0.0
C280 C 0.56023 0.92983 0.80201 0.0
C281 C 0.56195 0.94108 0.79848 0.0
C282 C 0.56757 0.93435 0.77962 0.0
C283 C 0.5657 0.94331 0.78737 0.0
C284 C 0.56587 0.92313 0.78335 0.0
C285 C 0.56239 0.92093 0.79444 0.0
U286 U 0.54281 0.93325 0.83037 0.0
O287 O 0.53078 0.9199 0.83539 0.0
O288 O 0.54558 0.92372 0.84633 0.0
C289 C 0.53679 0.91709 0.84436 0.0
C290 C 0.55531 0.92677 0.81306 0.0
C291 C 0.53106 0.91122 0.8537 0.0
C292 C 0.52525 0.8931 0.86163 0.0
C293 C 0.5313 0.89932 0.8536 0.0
C294 C 0.51882 0.91065 0.87027 0.0
C295 C 0.51881 0.89867 0.86996 0.0
C296 C 0.52489 0.91691 0.86213 0.0
C297 C 0.52964 0.96451 0.83502 0.0
C298 C 0.52152 0.97716 0.84924 0.0
C299 C 0.5215 0.98255 0.82939 0.0
C300 C 0.5269 0.97243 0.82662 0.0
C301 C 0.51876 0.98513 0.84071 0.0
C302 C 0.52694 0.96687 0.84641 0.0
C303 C 0.53573 0.95428 0.83125 0.0
O304 O 0.55968 0.93115 0.82237 0.0
O305 O 0.54421 0.92602 0.8133 0.0
O306 O 0.53015 0.94627 0.82581 0.0
O307 O 0.5448 0.95076 0.83675 0.0
H308 H 0.56021 0.94808 0.80419 0.0
H309 H 0.56694 0.95206 0.7848 0.0
H310 H 0.56673 0.91601 0.77761 0.0
H311 H 0.56095 0.91219 0.79699 0.0
H312 H 0.52535 0.88391 0.86112 0.0
H313 H 0.53599 0.8948 0.84708 0.0
H314 H 0.51409 0.91515 0.87674 0.0
H315 H 0.52462 0.92611 0.86231 0.0
H316 H 0.51969 0.97893 0.85807 0.0
H317 H 0.51938 0.98835 0.82256 0.0
H318 H 0.52899 0.9708 0.8178 0.0
H319 H 0.52908 0.96087 0.85305 0.0
C320 C 0.20897 0.08117 0.45055 0.0
C321 C 0.21277 0.06989 0.44994 0.0
C322 C 0.23135 0.07646 0.44331 0.0
C323 C 0.22387 0.06755 0.44624 0.0
C324 C 0.22733 0.0877 0.44385 0.0
C325 C 0.21624 0.08998 0.44728 0.0
U326 U 0.18077 0.07697 0.46767 0.0
O327 O 0.17545 0.08924 0.48078 0.0
O328 O 0.16468 0.0864 0.46555 0.0
C329 C 0.16648 0.09229 0.47488 0.0
C330 C 0.19805 0.08437 0.45565 0.0
C331 C 0.15732 0.09878 0.48027 0.0
C332 C 0.1509 0.11702 0.48739 0.0
C333 C 0.15889 0.1105 0.48159 0.0
C334 C 0.13936 0.10021 0.49028 0.0
C335 C 0.14111 0.11195 0.49197 0.0
C336 C 0.14747 0.09364 0.48452 0.0
C337 C 0.17505 0.04554 0.47886 0.0
C338 C 0.16342 0.03687 0.49356 0.0
C339 C 0.17687 0.02543 0.48297 0.0
C340 C 0.18 0.03495 0.47669 0.0
C341 C 0.16874 0.02634 0.4916 0.0
C342 C 0.16654 0.04647 0.48717 0.0
C343 C 0.18 0.05537 0.47299 0.0
O344 O 0.18866 0.0805 0.451 0.0
O345 O 0.19782 0.08435 0.46678 0.0
O346 O 0.18526 0.06301 0.4792 0.0
O347 O 0.17473 0.05957 0.46408 0.0
H348 H 0.2073 0.06297 0.45256 0.0
H349 H 0.22665 0.05879 0.44589 0.0
H350 H 0.23286 0.09483 0.44215 0.0
H351 H 0.21349 0.09875 0.44787 0.0
H352 H 0.15257 0.12599 0.48856 0.0
H353 H 0.16647 0.1146 0.47833 0.0
H354 H 0.13176 0.0961 0.49341 0.0
H355 H 0.14613 0.08459 0.48352 0.0
H356 H 0.15715 0.03772 0.50023 0.0
H357 H 0.18122 0.01746 0.48146 0.0
H358 H 0.18666 0.03412 0.47039 0.0
H359 H 0.16265 0.05461 0.48898 0.0
C360 C 0.93023 0.20954 0.4507 0.0
C361 C 0.9411 0.21432 0.4519 0.0
C362 C 0.9344 0.23177 0.44303 0.0
C363 C 0.94317 0.2254 0.44802 0.0
C364 C 0.92369 0.22683 0.44152 0.0
C365 C 0.92165 0.21577 0.44529 0.0
U366 U 0.93466 0.18143 0.46797 0.0
O367 O 0.9226 0.17544 0.48086 0.0
O368 O 0.9254 0.16522 0.46525 0.0
C369 C 0.91961 0.16663 0.4747 0.0
C370 C 0.92707 0.19867 0.45596 0.0
C371 C 0.91318 0.15735 0.47996 0.0
C372 C 0.89494 0.14807 0.48238 0.0
C373 C 0.90187 0.15576 0.47662 0.0
C374 C 0.91066 0.14319 0.49474 0.0
C375 C 0.89913 0.14194 0.49174 0.0
C376 C 0.91763 0.1509 0.48891 0.0
C377 C 0.96602 0.17549 0.47908 0.0
C378 C 0.97457 0.1638 0.49382 0.0
C379 C 0.98627 0.17655 0.48266 0.0
C380 C 0.97675 0.17994 0.47654 0.0
C381 C 0.98531 0.16853 0.49143 0.0
C382 C 0.96495 0.16725 0.48764 0.0
C383 C 0.95628 0.18069 0.47326 0.0
O384 O 0.93097 0.18929 0.45133 0.0
O385 O 0.92719 0.19847 0.4671 0.0
O386 O 0.94861 0.1858 0.47956 0.0
O387 O 0.9521 0.17565 0.46421 0.0
H388 H 0.94781 0.20965 0.45612 0.0
H389 H 0.95149 0.22915 0.44927 0.0
H390 H 0.91683 0.23164 0.43771 0.0
H391 H 0.9132 0.21222 0.44436 0.0
H392 H 0.88624 0.14704 0.47958 0.0
H393 H 0.8983 0.16072 0.46974 0.0
H394 H 0.91417 0.13855 0.50185 0.0
H395 H 0.92636 0.15206 0.49159 0.0
H396 H 0.97362 0.15765 0.5006 0.0
H397 H 0.99433 0.18061 0.48085 0.0
H398 H 0.9777 0.18642 0.47008 0.0
H399 H 0.95669 0.16377 0.48976 0.0
C400 C 0.80173 0.93083 0.45017 0.0
C401 C 0.79647 0.94112 0.4531 0.0
C402 C 0.77928 0.9351 0.4433 0.0
C403 C 0.78527 0.94323 0.44968 0.0
C404 C 0.78474 0.92509 0.43994 0.0
C405 C 0.7959 0.92297 0.44338 0.0
U406 U 0.83009 0.9336 0.46749 0.0
O407 O 0.83505 0.92056 0.47987 0.0
O408 O 0.84578 0.92366 0.46475 0.0
C409 C 0.84384 0.91738 0.47379 0.0
C410 C 0.8125 0.92721 0.45532 0.0
C411 C 0.85318 0.91147 0.47949 0.0
C412 C 0.86057 0.89344 0.48613 0.0
C413 C 0.85247 0.89962 0.48015 0.0
C414 C 0.87053 0.91091 0.49059 0.0
C415 C 0.86963 0.89899 0.49155 0.0
C416 C 0.86229 0.91714 0.48463 0.0
C417 C 0.83652 0.96511 0.47897 0.0
C418 C 0.84632 0.97473 0.49443 0.0
C419 C 0.83464 0.98547 0.48132 0.0
C420 C 0.83224 0.97558 0.47533 0.0
C421 C 0.84141 0.98514 0.49113 0.0
C422 C 0.84384 0.96471 0.48839 0.0
C423 C 0.83188 0.95495 0.4734 0.0
O424 O 0.82202 0.93081 0.45075 0.0
O425 O 0.81271 0.92707 0.46646 0.0
O426 O 0.82657 0.94734 0.47963 0.0
O427 O 0.83678 0.95086 0.46423 0.0
H428 H 0.80081 0.94724 0.45842 0.0
H429 H 0.78112 0.951 0.45235 0.0
H430 H 0.78021 0.91869 0.43512 0.0
H431 H 0.79979 0.91493 0.44118 0.0
H432 H 0.85956 0.88431 0.48675 0.0
H433 H 0.84545 0.89513 0.47621 0.0
H434 H 0.87755 0.9154 0.49447 0.0
H435 H 0.86295 0.92631 0.48416 0.0
H436 H 0.85151 0.97423 0.50201 0.0
H437 H 0.83079 0.99336 0.47854 0.0
H438 H 0.82653 0.97604 0.46812 0.0
H439 H 0.84721 0.95667 0.49134 0.0
C440 C 0.08008 0.80141 0.45069 0.0
C441 C 0.07014 0.79596 0.45436 0.0
C442 C 0.07521 0.77913 0.44335 0.0
C443 C 0.06774 0.78488 0.45073 0.0
C444 C 0.08495 0.7848 0.43945 0.0
C445 C 0.08734 0.79584 0.44308 0.0
U446 U 0.07728 0.82982 0.4676 0.0
O447 O 0.09005 0.83529 0.48006 0.0
O448 O 0.08702 0.84565 0.46466 0.0
C449 C 0.09321 0.84399 0.47382 0.0
C450 C 0.08393 0.81219 0.45565 0.0
C451 C 0.09902 0.8535 0.47935 0.0
C452 C 0.11708 0.86219 0.48419 0.0
C453 C 0.11086 0.85408 0.47822 0.0
C454 C 0.09963 0.86949 0.49232 0.0
C455 C 0.11156 0.86985 0.49144 0.0
C456 C 0.09337 0.86133 0.4863 0.0
C457 C 0.04579 0.83582 0.479 0.0
C458 C 0.03666 0.8471 0.49369 0.0
C459 C 0.02577 0.83317 0.48312 0.0
C460 C 0.03539 0.83046 0.47681 0.0
C461 C 0.02638 0.84131 0.49176 0.0
C462 C 0.04636 0.84438 0.4873 0.0
C463 C 0.05583 0.83112 0.4733 0.0
O464 O 0.08034 0.82166 0.45097 0.0
O465 O 0.08414 0.81256 0.46679 0.0
O466 O 0.0635 0.82596 0.47956 0.0
O467 O 0.05993 0.8362 0.46423 0.0
H468 H 0.0645 0.80008 0.46034 0.0
H469 H 0.06029 0.78065 0.45408 0.0
H470 H 0.09084 0.78063 0.43374 0.0
H471 H 0.09511 0.79989 0.44026 0.0
H472 H 0.12625 0.86223 0.48344 0.0
H473 H 0.11535 0.84801 0.47295 0.0
H474 H 0.09519 0.87541 0.49778 0.0
H475 H 0.08423 0.86096 0.48727 0.0
H476 H 0.03725 0.85338 0.50039 0.0
H477 H 0.01797 0.82849 0.48164 0.0
H478 H 0.03483 0.82374 0.47053 0.0
H479 H 0.05434 0.84858 0.48912 0.0
C480 C 0.20882 0.93015 0.55968 0.0
C481 C 0.21243 0.94144 0.56093 0.0
C482 C 0.23115 0.9348 0.56709 0.0
C483 C 0.22351 0.94374 0.56471 0.0
C484 C 0.22732 0.92355 0.56586 0.0
C485 C 0.21626 0.92129 0.56235 0.0
U486 U 0.18049 0.93341 0.54223 0.0
O487 O 0.17531 0.92007 0.53028 0.0
O488 O 0.16456 0.92387 0.54521 0.0
C489 C 0.16643 0.91725 0.53639 0.0
C490 C 0.19783 0.92699 0.55472 0.0
C491 C 0.15699 0.91144 0.53075 0.0
C492 C 0.14826 0.89336 0.52603 0.0
C493 C 0.15634 0.89961 0.532 0.0
C494 C 0.14122 0.91074 0.5175 0.0
C495 C 0.14069 0.89885 0.51866 0.0
C496 C 0.14933 0.91704 0.52356 0.0
C497 C 0.1759 0.96489 0.52951 0.0
C498 C 0.16224 0.97686 0.51966 0.0
C499 C 0.18134 0.9837 0.52314 0.0
C500 C 0.18401 0.97352 0.52851 0.0
C501 C 0.17042 0.98556 0.51873 0.0
C502 C 0.16495 0.96656 0.5251 0.0
C503 C 0.17953 0.95446 0.53529 0.0
O504 O 0.18849 0.93128 0.5591 0.0
O505 O 0.19761 0.92627 0.54361 0.0
O506 O 0.18482 0.94648 0.52953 0.0
O507 O 0.17413 0.9509 0.5444 0.0
H508 H 0.20681 0.9484 0.55879 0.0
H509 H 0.22616 0.95251 0.56559 0.0
H510 H 0.23298 0.91642 0.56712 0.0
H511 H 0.21364 0.91252 0.56129 0.0
H512 H 0.14811 0.8842 0.52693 0.0
H513 H 0.16231 0.89515 0.53741 0.0
H514 H 0.13542 0.91511 0.51184 0.0
H515 H 0.14979 0.92616 0.52246 0.0
H516 H 0.15378 0.97805 0.51624 0.0
H517 H 0.18795 0.99004 0.52224 0.0
H518 H 0.19251 0.97236 0.53184 0.0
H519 H 0.15858 0.95995 0.52579 0.0
C520 C 0.08108 0.20932 0.56008 0.0
C521 C 0.06993 0.21356 0.55976 0.0
C522 C 0.07656 0.23156 0.56757 0.0
C523 C 0.06767 0.22462 0.56359 0.0
C524 C 0.08759 0.22717 0.56813 0.0
C525 C 0.08981 0.21612 0.56448 0.0
U526 U 0.07688 0.18132 0.5426 0.0
O527 O 0.08925 0.17596 0.52959 0.0
O528 O 0.08613 0.16513 0.54472 0.0
C529 C 0.09213 0.16692 0.53546 0.0
C530 C 0.0843 0.19845 0.55485 0.0
C531 C 0.09862 0.15772 0.53015 0.0
C532 C 0.1168 0.15134 0.52284 0.0
C533 C 0.11031 0.15938 0.52861 0.0
C534 C 0.10007 0.13957 0.52045 0.0
C535 C 0.11172 0.14145 0.5186 0.0
C536 C 0.09351 0.14771 0.52617 0.0
C537 C 0.04535 0.17616 0.53118 0.0
C538 C 0.03554 0.16256 0.51909 0.0
C539 C 0.02576 0.17939 0.52576 0.0
C540 C 0.03546 0.18271 0.53162 0.0
C541 C 0.02567 0.16936 0.51931 0.0
C542 C 0.04538 0.16597 0.52497 0.0
C543 C 0.05534 0.18076 0.53706 0.0
O544 O 0.08035 0.18903 0.55937 0.0
O545 O 0.08434 0.19834 0.54372 0.0
O546 O 0.06306 0.18603 0.53095 0.0
O547 O 0.05943 0.17533 0.54592 0.0
H548 H 0.0631 0.20847 0.55626 0.0
H549 H 0.0591 0.22792 0.56303 0.0
H550 H 0.09454 0.23238 0.57119 0.0
H551 H 0.09846 0.213 0.56472 0.0
H552 H 0.12578 0.15291 0.52156 0.0
H553 H 0.11439 0.16704 0.53168 0.0
H554 H 0.09601 0.13198 0.51718 0.0
H555 H 0.08448 0.14633 0.52727 0.0
H556 H 0.03568 0.15469 0.51433 0.0
H557 H 0.0184 0.18491 0.52601 0.0
H558 H 0.0353 0.19061 0.53636 0.0
H559 H 0.05296 0.16077 0.52458 0.0
C560 C 0.80199 0.08093 0.55978 0.0
C561 C 0.79826 0.06962 0.55999 0.0
C562 C 0.77953 0.07587 0.56643 0.0
C563 C 0.78713 0.0671 0.56343 0.0
C564 C 0.78357 0.0871 0.56672 0.0
C565 C 0.79468 0.08958 0.56344 0.0
U566 U 0.83046 0.0772 0.54296 0.0
O567 O 0.8362 0.08959 0.53028 0.0
O568 O 0.84645 0.08678 0.54584 0.0
C569 C 0.84492 0.09272 0.53649 0.0
C570 C 0.81293 0.08432 0.55482 0.0
C571 C 0.8543 0.09885 0.53106 0.0
C572 C 0.86358 0.11702 0.5281 0.0
C573 C 0.85593 0.11024 0.53408 0.0
C574 C 0.86838 0.10097 0.51614 0.0
C575 C 0.86964 0.11258 0.51882 0.0
C576 C 0.86069 0.09415 0.52219 0.0
C577 C 0.83609 0.04545 0.53195 0.0
C578 C 0.84691 0.03567 0.5173 0.0
C579 C 0.83325 0.02533 0.52872 0.0
C580 C 0.83081 0.03519 0.53475 0.0
C581 C 0.84105 0.0255 0.51972 0.0
C582 C 0.84439 0.04566 0.52337 0.0
C583 C 0.83157 0.0557 0.53745 0.0
O584 O 0.82228 0.08045 0.55954 0.0
O585 O 0.81332 0.08442 0.54369 0.0
O586 O 0.82648 0.06335 0.53111 0.0
O587 O 0.8366 0.05981 0.54654 0.0
H588 H 0.8038 0.06282 0.55723 0.0
H589 H 0.78439 0.05831 0.56349 0.0
H590 H 0.77799 0.09405 0.56899 0.0
H591 H 0.79744 0.09836 0.56332 0.0
H592 H 0.86462 0.1258 0.53066 0.0
H593 H 0.85101 0.11402 0.54088 0.0
H594 H 0.87299 0.09728 0.5091 0.0
H595 H 0.85949 0.08537 0.51974 0.0
H596 H 0.85292 0.03603 0.51035 0.0
H597 H 0.82866 0.01763 0.53081 0.0
H598 H 0.82435 0.03488 0.5413 0.0
H599 H 0.84853 0.05355 0.52109 0.0
C600 C 0.93123 0.80172 0.55977 0.0
C601 C 0.94233 0.79745 0.55986 0.0
C602 C 0.93531 0.77923 0.56711 0.0
C603 C 0.94437 0.78631 0.56362 0.0
C604 C 0.92426 0.78375 0.56712 0.0
C605 C 0.92229 0.79489 0.56363 0.0
U606 U 0.93264 0.83072 0.54236 0.0
O607 O 0.91812 0.83479 0.53142 0.0
O608 O 0.92193 0.84566 0.54616 0.0
C609 C 0.91508 0.84356 0.53758 0.0
C610 C 0.92819 0.81267 0.55466 0.0
C611 C 0.90973 0.85306 0.53156 0.0
C612 C 0.89219 0.86096 0.5242 0.0
C613 C 0.89789 0.85268 0.53042 0.0
C614 C 0.91008 0.87042 0.52039 0.0
C615 C 0.89823 0.86981 0.51907 0.0
C616 C 0.91586 0.86202 0.52662 0.0
C617 C 0.96407 0.83664 0.52926 0.0
C618 C 0.97822 0.8491 0.52085 0.0
C619 C 0.98186 0.82889 0.52236 0.0
C620 C 0.97127 0.82734 0.52748 0.0
C621 C 0.98545 0.83978 0.51894 0.0
C622 C 0.96764 0.84754 0.52603 0.0
C623 C 0.95265 0.83494 0.53394 0.0
O624 O 0.93206 0.82217 0.55911 0.0
O625 O 0.92736 0.81291 0.54355 0.0
O626 O 0.94526 0.82833 0.52879 0.0
O627 O 0.94942 0.83918 0.54376 0.0
H628 H 0.94933 0.80258 0.5568 0.0
H629 H 0.953 0.78315 0.56356 0.0
H630 H 0.91699 0.77856 0.56929 0.0
H631 H 0.91364 0.79803 0.56346 0.0
H632 H 0.88305 0.86035 0.52325 0.0
H633 H 0.89305 0.8458 0.53417 0.0
H634 H 0.91485 0.87722 0.51643 0.0
H635 H 0.92502 0.86242 0.5274 0.0
H636 H 0.98073 0.85757 0.51828 0.0
H637 H 0.98708 0.82149 0.52076 0.0
H638 H 0.96862 0.81886 0.52989 0.0
H639 H 0.96212 0.8548 0.52727 0.0
C640 C 0.45041 0.20953 0.08073 0.0
C641 C 0.45128 0.2141 0.06975 0.0
C642 C 0.44317 0.2319 0.07652 0.0
C643 C 0.44758 0.22523 0.06764 0.0
C644 C 0.44197 0.22714 0.08736 0.0
C645 C 0.44552 0.21603 0.08942 0.0
U646 U 0.46756 0.1813 0.07657 0.0
O647 O 0.48029 0.17564 0.08902 0.0
O648 O 0.4649 0.16521 0.08592 0.0
C649 C 0.47413 0.16683 0.09202 0.0
C650 C 0.45555 0.19862 0.0839 0.0
C651 C 0.47946 0.15744 0.0982 0.0
C652 C 0.48472 0.14956 0.11652 0.0
C653 C 0.47889 0.15763 0.11009 0.0
C654 C 0.49161 0.14083 0.09918 0.0
C655 C 0.49123 0.14121 0.11111 0.0
C656 C 0.48571 0.14892 0.09272 0.0
C657 C 0.4789 0.17557 0.04514 0.0
C658 C 0.4926 0.16302 0.03614 0.0
C659 C 0.48332 0.17773 0.02514 0.0
C660 C 0.47722 0.18101 0.03471 0.0
C661 C 0.49125 0.16885 0.02574 0.0
C662 C 0.4865 0.1664 0.04583 0.0
C663 C 0.4731 0.18048 0.05503 0.0
O664 O 0.45091 0.18926 0.07996 0.0
O665 O 0.46669 0.19838 0.0839 0.0
O666 O 0.47934 0.1856 0.06274 0.0
O667 O 0.46406 0.17534 0.05912 0.0
H668 H 0.45514 0.20923 0.06296 0.0
H669 H 0.4486 0.22882 0.05922 0.0
H670 H 0.43857 0.23213 0.0943 0.0
H671 H 0.44485 0.21264 0.09795 0.0
H672 H 0.48445 0.15007 0.12571 0.0
H673 H 0.47417 0.16423 0.11444 0.0
H674 H 0.49667 0.13444 0.09492 0.0
H675 H 0.48627 0.14871 0.08354 0.0
H676 H 0.49851 0.156 0.03681 0.0
H677 H 0.48216 0.1825 0.01736 0.0
H678 H 0.47142 0.18814 0.03405 0.0
H679 H 0.48788 0.16208 0.05383 0.0
C680 C 0.45096 0.80156 0.93004 0.0
C681 C 0.4517 0.797 0.94104 0.0
C682 C 0.4435 0.77925 0.93421 0.0
C683 C 0.44789 0.78589 0.94313 0.0
C684 C 0.44242 0.78402 0.92336 0.0
C685 C 0.44608 0.7951 0.92132 0.0
U686 U 0.46821 0.82978 0.93422 0.0
O687 O 0.48105 0.83535 0.92182 0.0
O688 O 0.46565 0.84581 0.92474 0.0
C689 C 0.47493 0.84415 0.91873 0.0
C690 C 0.45621 0.81243 0.92691 0.0
C691 C 0.48026 0.85349 0.91246 0.0
C692 C 0.48565 0.86116 0.89409 0.0
C693 C 0.4799 0.85307 0.90056 0.0
C694 C 0.49205 0.87037 0.91138 0.0
C695 C 0.49187 0.86977 0.89946 0.0
C696 C 0.48624 0.86224 0.91789 0.0
C697 C 0.47933 0.83595 0.9656 0.0
C698 C 0.49396 0.84766 0.97431 0.0
C699 C 0.48281 0.83477 0.98587 0.0
C700 C 0.47676 0.83142 0.97629 0.0
C701 C 0.49155 0.84284 0.985 0.0
C702 C 0.48784 0.84425 0.96463 0.0
C703 C 0.47358 0.8308 0.9558 0.0
O704 O 0.45157 0.82184 0.93072 0.0
O705 O 0.46735 0.81263 0.92703 0.0
O706 O 0.47989 0.82563 0.94818 0.0
O707 O 0.46454 0.83583 0.95159 0.0
H708 H 0.45554 0.80185 0.94786 0.0
H709 H 0.44881 0.78231 0.95155 0.0
H710 H 0.43903 0.77905 0.91639 0.0
H711 H 0.4455 0.79849 0.91278 0.0
H712 H 0.48549 0.86054 0.88491 0.0
H713 H 0.47537 0.8463 0.89626 0.0
H714 H 0.49684 0.87698 0.91562 0.0
H715 H 0.48662 0.86264 0.92707 0.0
H716 H 0.50072 0.85384 0.97343 0.0
H717 H 0.48099 0.83064 0.99389 0.0
H718 H 0.47032 0.82489 0.97716 0.0
H719 H 0.48998 0.8478 0.95642 0.0
C720 C 0.20889 0.45128 0.92956 0.0
C721 C 0.21148 0.44793 0.9407 0.0
C722 C 0.23104 0.44391 0.93498 0.0
C723 C 0.22246 0.44413 0.94336 0.0
C724 C 0.22819 0.44693 0.9238 0.0
C725 C 0.21724 0.45052 0.92114 0.0
U726 U 0.18015 0.46785 0.93298 0.0
O727 O 0.17484 0.48035 0.92018 0.0
O728 O 0.16437 0.46501 0.92317 0.0
C729 C 0.16612 0.47416 0.91699 0.0
C730 C 0.19787 0.45609 0.92624 0.0
C731 C 0.15671 0.47974 0.91109 0.0
C732 C 0.14905 0.486 0.893 0.0
C733 C 0.15714 0.47998 0.89919 0.0
C734 C 0.13976 0.49144 0.91057 0.0
C735 C 0.14039 0.49186 0.89865 0.0
C736 C 0.14792 0.48539 0.9168 0.0
C737 C 0.17422 0.47912 0.96465 0.0
C738 C 0.16394 0.49417 0.9744 0.0
C739 C 0.17704 0.48216 0.98481 0.0
C740 C 0.17928 0.47605 0.97495 0.0
C741 C 0.16967 0.49151 0.98456 0.0
C742 C 0.16627 0.48803 0.96442 0.0
C743 C 0.17869 0.47362 0.95438 0.0
O744 O 0.18853 0.45131 0.93007 0.0
O745 O 0.19739 0.46722 0.92602 0.0
O746 O 0.18383 0.47993 0.94673 0.0
O747 O 0.17375 0.46446 0.95032 0.0
H748 H 0.2051 0.4484 0.94732 0.0
H749 H 0.22424 0.44148 0.95198 0.0
H750 H 0.23452 0.44692 0.91713 0.0
H751 H 0.21537 0.45304 0.91248 0.0
H752 H 0.14968 0.48629 0.88382 0.0
H753 H 0.16393 0.47571 0.89466 0.0
H754 H 0.1331 0.49597 0.91502 0.0
H755 H 0.14753 0.48532 0.92599 0.0
H756 H 0.15822 0.50136 0.97405 0.0
H757 H 0.18151 0.47994 0.99254 0.0
H758 H 0.18547 0.46924 0.97527 0.0
H759 H 0.16229 0.49052 0.9565 0.0
C760 C 0.55955 0.20883 0.92938 0.0
C761 C 0.56049 0.21252 0.94069 0.0
C762 C 0.56699 0.23119 0.93418 0.0
C763 C 0.56427 0.22359 0.94306 0.0
C764 C 0.56612 0.22729 0.92292 0.0
C765 C 0.56259 0.21622 0.92059 0.0
U766 U 0.54238 0.181 0.93454 0.0
O767 O 0.52903 0.17468 0.92304 0.0
O768 O 0.5444 0.16414 0.92643 0.0
C769 C 0.53462 0.16521 0.92113 0.0
C770 C 0.55446 0.19785 0.92622 0.0
C771 C 0.53031 0.15662 0.91321 0.0
C772 C 0.52376 0.15136 0.89438 0.0
C773 C 0.52925 0.15905 0.90159 0.0
C774 C 0.52074 0.13859 0.91025 0.0
C775 C 0.51925 0.1412 0.89872 0.0
C776 C 0.52624 0.14627 0.91745 0.0
C777 C 0.5315 0.17627 0.96607 0.0
C778 C 0.51773 0.16373 0.97506 0.0
C779 C 0.52727 0.17826 0.9861 0.0
C780 C 0.53328 0.18162 0.97651 0.0
C781 C 0.51942 0.16929 0.98554 0.0
C782 C 0.52377 0.1672 0.96534 0.0
C783 C 0.53737 0.18124 0.95623 0.0
O784 O 0.55906 0.18854 0.93035 0.0
O785 O 0.54332 0.19761 0.92617 0.0
O786 O 0.53111 0.18622 0.94846 0.0
O787 O 0.54631 0.17595 0.95216 0.0
H788 H 0.55808 0.20696 0.94762 0.0
H789 H 0.56487 0.22628 0.95184 0.0
H790 H 0.56767 0.2329 0.91581 0.0
H791 H 0.56178 0.21357 0.91181 0.0
H792 H 0.52272 0.15348 0.88548 0.0
H793 H 0.53236 0.16701 0.89817 0.0
H794 H 0.51722 0.13085 0.91377 0.0
H795 H 0.52691 0.14434 0.92643 0.0
H796 H 0.51166 0.15685 0.97438 0.0
H797 H 0.52849 0.18301 0.99388 0.0
H798 H 0.53911 0.18872 0.97719 0.0
H799 H 0.52224 0.16301 0.95729 0.0
C800 C 0.8019 0.56017 0.92979 0.0
C801 C 0.79809 0.56087 0.94106 0.0
C802 C 0.77951 0.56743 0.93444 0.0
C803 C 0.787 0.56458 0.94337 0.0
C804 C 0.78352 0.56678 0.92321 0.0
C805 C 0.79461 0.56333 0.92095 0.0
U806 U 0.82985 0.54268 0.93403 0.0
O807 O 0.83522 0.52985 0.92149 0.0
O808 O 0.84616 0.54483 0.92504 0.0
C809 C 0.84436 0.53569 0.91886 0.0
C810 C 0.81285 0.55512 0.92663 0.0
C811 C 0.85352 0.53051 0.91223 0.0
C812 C 0.85962 0.52305 0.89402 0.0
C813 C 0.85166 0.52882 0.9006 0.0
C814 C 0.87173 0.52097 0.91056 0.0
C815 C 0.86963 0.51894 0.89897 0.0
C816 C 0.86366 0.52671 0.91719 0.0
C817 C 0.83413 0.53062 0.96553 0.0
C818 C 0.84776 0.51928 0.97617 0.0
C819 C 0.82991 0.5248 0.98481 0.0
C820 C 0.82687 0.53048 0.97492 0.0
C821 C 0.84041 0.51921 0.98563 0.0
C822 C 0.84465 0.52501 0.96614 0.0
C823 C 0.82999 0.53662 0.95542 0.0
O824 O 0.82219 0.55954 0.93088 0.0
O825 O 0.813 0.54399 0.92626 0.0
O826 O 0.82481 0.53072 0.94749 0.0
O827 O 0.8356 0.54552 0.95164 0.0
H828 H 0.80357 0.55832 0.948 0.0
H829 H 0.78421 0.56501 0.95212 0.0
H830 H 0.77798 0.56842 0.91607 0.0
H831 H 0.79736 0.56268 0.91219 0.0
H832 H 0.85788 0.52164 0.88509 0.0
H833 H 0.84388 0.53175 0.89663 0.0
H834 H 0.87939 0.5178 0.91453 0.0
H835 H 0.8652 0.52793 0.92618 0.0
H836 H 0.85585 0.51493 0.97655 0.0
H837 H 0.82389 0.52459 0.99176 0.0
H838 H 0.81869 0.53468 0.97456 0.0
H839 H 0.85035 0.52501 0.95893 0.0
C840 C 0.55969 0.80208 0.0814 0.0
C841 C 0.55707 0.7968 0.07103 0.0
C842 C 0.56738 0.77977 0.07694 0.0
C843 C 0.5609 0.78573 0.06882 0.0
C844 C 0.57051 0.7854 0.087 0.0
C845 C 0.56663 0.7964 0.08922 0.0
U846 U 0.54206 0.82941 0.07619 0.0
O847 O 0.52855 0.83582 0.08723 0.0
O848 O 0.54375 0.8466 0.08398 0.0
C849 C 0.53384 0.84549 0.08901 0.0
C850 C 0.55438 0.8129 0.08485 0.0
C851 C 0.52939 0.85351 0.09751 0.0
C852 C 0.52061 0.85732 0.1158 0.0
C853 C 0.5259 0.84978 0.10828 0.0
C854 C 0.52254 0.87245 0.10197 0.0
C855 C 0.51874 0.86873 0.11267 0.0
C856 C 0.52784 0.86491 0.09449 0.0
C857 C 0.53143 0.83362 0.04461 0.0
C858 C 0.51941 0.84763 0.03528 0.0
C859 C 0.52577 0.83098 0.025 0.0
C860 C 0.53168 0.82733 0.03455 0.0
C861 C 0.51947 0.8411 0.02523 0.0
C862 C 0.52535 0.84389 0.04497 0.0
C863 C 0.53739 0.82871 0.05442 0.0
O864 O 0.55882 0.82233 0.08082 0.0
O865 O 0.54323 0.81295 0.08483 0.0
O866 O 0.53115 0.82367 0.06217 0.0
O867 O 0.54617 0.83422 0.05856 0.0
H868 H 0.55172 0.80104 0.06486 0.0
H869 H 0.55837 0.78167 0.06096 0.0
H870 H 0.57579 0.78124 0.09327 0.0
H871 H 0.56877 0.80036 0.09725 0.0
H872 H 0.51761 0.8541 0.12387 0.0
H873 H 0.52702 0.84099 0.11076 0.0
H874 H 0.52129 0.88117 0.09932 0.0
H875 H 0.53043 0.86792 0.08618 0.0
H876 H 0.51476 0.85556 0.03567 0.0
H877 H 0.52588 0.82565 0.0175 0.0
H878 H 0.53631 0.81938 0.03414 0.0
H879 H 0.5251 0.8489 0.05268 0.0
C880 C 0.20891 0.56015 0.08008 0.0
C881 C 0.21407 0.5577 0.0696 0.0
C882 C 0.23127 0.56736 0.07583 0.0
C883 C 0.22522 0.56132 0.0675 0.0
C884 C 0.22592 0.57021 0.08605 0.0
C885 C 0.21481 0.56663 0.08815 0.0
U886 U 0.18074 0.54262 0.07684 0.0
O887 O 0.17598 0.52956 0.0894 0.0
O888 O 0.165 0.54468 0.08682 0.0
C889 C 0.16706 0.53539 0.09269 0.0
C890 C 0.19821 0.55478 0.08362 0.0
C891 C 0.15807 0.52989 0.09933 0.0
C892 C 0.15264 0.52134 0.11727 0.0
C893 C 0.16061 0.52694 0.11057 0.0
C894 C 0.13924 0.5218 0.10165 0.0
C895 C 0.14181 0.51876 0.11295 0.0
C896 C 0.14733 0.52734 0.09487 0.0
C897 C 0.17408 0.53181 0.04526 0.0
C898 C 0.16591 0.51544 0.0356 0.0
C899 C 0.17455 0.53061 0.0247 0.0
C900 C 0.17684 0.53651 0.03469 0.0
C901 C 0.16952 0.51981 0.02507 0.0
C902 C 0.16826 0.52139 0.0457 0.0
C903 C 0.17903 0.53734 0.05531 0.0
O904 O 0.18861 0.55936 0.08021 0.0
O905 O 0.1981 0.54364 0.08343 0.0
O906 O 0.18449 0.53102 0.06273 0.0
O907 O 0.17406 0.54634 0.05968 0.0
H908 H 0.20968 0.55261 0.06331 0.0
H909 H 0.22929 0.55902 0.05957 0.0
H910 H 0.2305 0.57477 0.0926 0.0
H911 H 0.211 0.56847 0.09632 0.0
H912 H 0.15511 0.5188 0.12575 0.0
H913 H 0.16889 0.52882 0.11414 0.0
H914 H 0.13098 0.51991 0.09807 0.0
H915 H 0.14526 0.52954 0.08618 0.0
H916 H 0.16195 0.50715 0.03608 0.0
H917 H 0.17725 0.53426 0.0167 0.0
H918 H 0.18137 0.54451 0.03418 0.0
H919 H 0.16605 0.51762 0.0538 0.0
C920 C 0.80183 0.45064 0.08125 0.0
C921 C 0.79681 0.4528 0.07064 0.0
C922 C 0.77956 0.44311 0.07674 0.0
C923 C 0.78571 0.44905 0.06841 0.0
C924 C 0.78478 0.44053 0.08712 0.0
C925 C 0.79584 0.44427 0.08935 0.0
U926 U 0.82936 0.46828 0.0764 0.0
O927 O 0.83535 0.48194 0.08766 0.0
O928 O 0.84622 0.46673 0.08471 0.0
C929 C 0.84491 0.4766 0.08978 0.0
C930 C 0.8126 0.45604 0.08473 0.0
C931 C 0.85319 0.48126 0.09789 0.0
C932 C 0.85768 0.48906 0.11647 0.0
C933 C 0.85004 0.48367 0.10912 0.0
C934 C 0.87178 0.48945 0.10149 0.0
C935 C 0.86861 0.49215 0.1127 0.0
C936 C 0.86415 0.48402 0.09418 0.0
C937 C 0.83473 0.47859 0.04491 0.0
C938 C 0.84674 0.49326 0.03666 0.0
C939 C 0.83368 0.4827 0.02475 0.0
C940 C 0.83021 0.4764 0.03413 0.0
C941 C 0.84176 0.49137 0.02593 0.0
C942 C 0.84324 0.48688 0.04614 0.0
C943 C 0.82941 0.47271 0.05455 0.0
O944 O 0.82211 0.45155 0.08097 0.0
O945 O 0.81263 0.46719 0.0845 0.0
O946 O 0.82415 0.47904 0.06208 0.0
O947 O 0.83472 0.46394 0.05897 0.0
H948 H 0.80127 0.45775 0.06429 0.0
H949 H 0.78178 0.4511 0.06034 0.0
H950 H 0.78015 0.436 0.09366 0.0
H951 H 0.79954 0.44259 0.0976 0.0
H952 H 0.85486 0.49119 0.12496 0.0
H953 H 0.84159 0.48159 0.11213 0.0
H954 H 0.88013 0.49165 0.09832 0.0
H955 H 0.86669 0.48228 0.08551 0.0
H956 H 0.85305 0.49987 0.03775 0.0
H957 H 0.82959 0.48117 0.01664 0.0
H958 H 0.82359 0.47009 0.03305 0.0
H959 H 0.84685 0.48868 0.05441 0.0
C960 C 0.58064 0.95028 0.70893 0.0
C961 C 0.56951 0.95054 0.71314 0.0
C962 C 0.57618 0.9432 0.73142 0.0
C963 C 0.56728 0.94692 0.72429 0.0
C964 C 0.58726 0.94286 0.72699 0.0
C965 C 0.58942 0.94622 0.71584 0.0
U966 U 0.57679 0.96779 0.68084 0.0
O967 O 0.58967 0.98016 0.6754 0.0
O968 O 0.5859 0.96522 0.6646 0.0
C969 C 0.59234 0.97419 0.66637 0.0
C970 C 0.58384 0.95529 0.69796 0.0
C971 C 0.59817 0.97985 0.65693 0.0
C972 C 0.61626 0.98562 0.64893 0.0
C973 C 0.61006 0.97944 0.65688 0.0
C974 C 0.59871 0.99242 0.64057 0.0
C975 C 0.61067 0.99232 0.64081 0.0
C976 C 0.59246 0.98625 0.64866 0.0
C977 C 0.54549 0.98038 0.67634 0.0
C978 C 0.53433 0.99031 0.66205 0.0
C979 C 0.52671 0.98741 0.68094 0.0
C980 C 0.5366 0.98179 0.68408 0.0
C981 C 0.52541 0.99176 0.66992 0.0
C982 C 0.54436 0.98463 0.66525 0.0
C983 C 0.55553 0.97425 0.68049 0.0
O984 O 0.57954 0.95091 0.68863 0.0
O985 O 0.58438 0.96642 0.69778 0.0
O986 O 0.56353 0.98003 0.68571 0.0
O987 O 0.55919 0.96527 0.67494 0.0
H988 H 0.56263 0.95377 0.70795 0.0
H989 H 0.55863 0.94725 0.72739 0.0
H990 H 0.59442 0.9405 0.73224 0.0
H991 H 0.59809 0.94614 0.71277 0.0
H992 H 0.62545 0.98533 0.64924 0.0
H993 H 0.6146 0.97455 0.66324 0.0
H994 H 0.59422 0.99759 0.63442 0.0
H995 H 0.58328 0.9867 0.64865 0.0
H996 H 0.53352 0.99347 0.65345 0.0
H997 H 0.52012 0.98851 0.68727 0.0
H998 H 0.53733 0.97854 0.69267 0.0
H999 H 0.55114 0.98356 0.65913 0.0
C1000 C 0.05996 0.581 0.70879 0.0
C1001 C 0.0567 0.57099 0.71438 0.0
C1002 C 0.06758 0.57663 0.73114 0.0
C1003 C 0.06048 0.56882 0.72546 0.0
C1004 C 0.07134 0.58629 0.7252 0.0
C1005 C 0.06749 0.58849 0.71418 0.0
U1006 U 0.04263 0.57639 0.68108 0.0
O1007 O 0.02896 0.58777 0.67507 0.0
O1008 O 0.0444 0.58498 0.66447 0.0
C1009 C 0.03457 0.59013 0.66573 0.0
C1010 C 0.0547 0.58457 0.69801 0.0
C1011 C 0.03002 0.59785 0.65706 0.0
C1012 C 0.02467 0.61693 0.65133 0.0
C1013 C 0.03026 0.60962 0.65885 0.0
C1014 C 0.01888 0.60078 0.63995 0.0
C1015 C 0.01867 0.61256 0.64198 0.0
C1016 C 0.0245 0.59348 0.64747 0.0
C1017 C 0.03212 0.54486 0.67584 0.0
C1018 C 0.01771 0.53638 0.66369 0.0
C1019 C 0.02789 0.52475 0.67728 0.0
C1020 C 0.03416 0.53419 0.68065 0.0
C1021 C 0.01943 0.52574 0.66894 0.0
C1022 C 0.024 0.54593 0.66716 0.0
C1023 C 0.038 0.55458 0.68101 0.0
O1024 O 0.05929 0.58084 0.68853 0.0
O1025 O 0.04356 0.58441 0.69784 0.0
O1026 O 0.03169 0.56218 0.6862 0.0
O1027 O 0.0468 0.55892 0.67568 0.0
H1028 H 0.05089 0.56508 0.71036 0.0
H1029 H 0.05744 0.56127 0.72975 0.0
H1030 H 0.07712 0.59228 0.72911 0.0
H1031 H 0.07012 0.59625 0.70999 0.0
H1032 H 0.02484 0.62599 0.65296 0.0
H1033 H 0.03453 0.61314 0.66621 0.0
H1034 H 0.01433 0.5972 0.6328 0.0
H1035 H 0.02419 0.58439 0.64602 0.0
H1036 H 0.01136 0.53735 0.6571 0.0
H1037 H 0.02934 0.51675 0.68159 0.0
H1038 H 0.04034 0.53323 0.68741 0.0
H1039 H 0.02233 0.55413 0.66332 0.0
C1040 C 0.43029 0.05982 0.70917 0.0
C1041 C 0.4407 0.05741 0.71445 0.0
C1042 C 0.43444 0.06742 0.73152 0.0
C1043 C 0.44277 0.06123 0.72554 0.0
C1044 C 0.42431 0.07029 0.72591 0.0
C1045 C 0.42225 0.06647 0.71488 0.0
U1046 U 0.43401 0.04237 0.68105 0.0
O1047 O 0.42158 0.02946 0.67568 0.0
O1048 O 0.4244 0.04481 0.6651 0.0
C1049 C 0.41843 0.03552 0.66685 0.0
C1050 C 0.42689 0.0545 0.6984 0.0
C1051 C 0.41203 0.03015 0.65762 0.0
C1052 C 0.39358 0.0247 0.65025 0.0
C1053 C 0.40016 0.03042 0.65826 0.0
C1054 C 0.4107 0.0186 0.6406 0.0
C1055 C 0.39874 0.01872 0.64131 0.0
C1056 C 0.41732 0.02428 0.64873 0.0
C1057 C 0.4654 0.03122 0.67482 0.0
C1058 C 0.47409 0.01686 0.66277 0.0
C1059 C 0.48554 0.02716 0.67644 0.0
C1060 C 0.47601 0.0333 0.67979 0.0
C1061 C 0.48465 0.01878 0.66805 0.0
C1062 C 0.46448 0.02311 0.66611 0.0
C1063 C 0.45558 0.03702 0.6799 0.0
O1064 O 0.43055 0.05909 0.6889 0.0
O1065 O 0.42699 0.04336 0.69826 0.0
O1066 O 0.44801 0.03076 0.68521 0.0
O1067 O 0.45132 0.04598 0.67477 0.0
H1068 H 0.44701 0.05225 0.71018 0.0
H1069 H 0.45069 0.05891 0.72962 0.0
H1070 H 0.41787 0.07533 0.73011 0.0
H1071 H 0.41416 0.06839 0.71092 0.0
H1072 H 0.38444 0.02469 0.6513 0.0
H1073 H 0.39596 0.03483 0.66516 0.0
H1074 H 0.41492 0.01406 0.63381 0.0
H1075 H 0.4265 0.02394 0.64819 0.0
H1076 H 0.47325 0.01035 0.65632 0.0
H1077 H 0.49353 0.02862 0.68078 0.0
H1078 H 0.47684 0.03942 0.68662 0.0
H1079 H 0.45633 0.02138 0.66219 0.0
C1080 C 0.95069 0.42981 0.70881 0.0
C1081 C 0.94953 0.44109 0.71247 0.0
C1082 C 0.94336 0.4344 0.73116 0.0
C1083 C 0.94579 0.44336 0.72356 0.0
C1084 C 0.94446 0.42316 0.72728 0.0
C1085 C 0.94794 0.42093 0.7162 0.0
U1086 U 0.96782 0.43406 0.68062 0.0
O1087 O 0.98036 0.42147 0.67492 0.0
O1088 O 0.9651 0.42493 0.66441 0.0
C1089 C 0.97421 0.41866 0.66604 0.0
C1090 C 0.95567 0.42673 0.69782 0.0
C1091 C 0.97951 0.41246 0.65666 0.0
C1092 C 0.98452 0.39411 0.64872 0.0
C1093 C 0.97866 0.40058 0.65671 0.0
C1094 C 0.99202 0.41138 0.64035 0.0
C1095 C 0.99137 0.39946 0.6406 0.0
C1096 C 0.98608 0.41789 0.64835 0.0
C1097 C 0.97961 0.46558 0.67577 0.0
C1098 C 0.99249 0.47544 0.66298 0.0
C1099 C 0.9842 0.48538 0.67898 0.0
C1100 C 0.97838 0.47558 0.68205 0.0
C1101 C 0.99131 0.48549 0.66941 0.0
C1102 C 0.98664 0.46551 0.66614 0.0
C1103 C 0.97378 0.45548 0.68019 0.0
O1104 O 0.9511 0.43094 0.68854 0.0
O1105 O 0.9668 0.42643 0.69755 0.0
O1106 O 0.97989 0.44758 0.68517 0.0
O1107 O 0.96472 0.45165 0.67489 0.0
H1108 H 0.95173 0.44807 0.70689 0.0
H1109 H 0.945 0.45213 0.72626 0.0
H1110 H 0.94315 0.41602 0.73291 0.0
H1111 H 0.94894 0.41217 0.71354 0.0
H1112 H 0.98404 0.38492 0.64912 0.0
H1113 H 0.97371 0.39627 0.66318 0.0
H1114 H 0.99733 0.41561 0.63413 0.0
H1115 H 0.98686 0.42706 0.64827 0.0
H1116 H 0.998 0.47527 0.65562 0.0
H1117 H 0.98341 0.4928 0.68437 0.0
H1118 H 0.97308 0.47574 0.68958 0.0
H1119 H 0.98773 0.4578 0.66123 0.0
C1120 C 0.57967 0.06017 0.30133 0.0
C1121 C 0.57068 0.05551 0.29507 0.0
C1122 C 0.5754 0.06773 0.27896 0.0
C1123 C 0.56859 0.05923 0.28397 0.0
C1124 C 0.58397 0.07281 0.28557 0.0
C1125 C 0.58614 0.06897 0.29659 0.0
U1126 U 0.57705 0.0431 0.32976 0.0
O1127 O 0.59006 0.03081 0.33505 0.0
O1128 O 0.58678 0.04607 0.34556 0.0
C1129 C 0.59311 0.03703 0.3438 0.0
C1130 C 0.58351 0.05512 0.31208 0.0
C1131 C 0.59928 0.03164 0.35315 0.0
C1132 C 0.61751 0.02506 0.3601 0.0
C1133 C 0.61113 0.03112 0.35221 0.0
C1134 C 0.6003 0.02039 0.37041 0.0
C1135 C 0.61214 0.01943 0.36911 0.0
C1136 C 0.59385 0.02643 0.36239 0.0
C1137 C 0.54549 0.03173 0.33618 0.0
C1138 C 0.53552 0.01532 0.34387 0.0
C1139 C 0.52489 0.03114 0.33615 0.0
C1140 C 0.53501 0.0368 0.3338 0.0
C1141 C 0.525 0.0201 0.3407 0.0
C1142 C 0.54573 0.02109 0.34158 0.0
C1143 C 0.55567 0.03723 0.33141 0.0
O1144 O 0.57999 0.05978 0.3216 0.0
O1145 O 0.58373 0.04398 0.31243 0.0
O1146 O 0.56333 0.03092 0.3263 0.0
O1147 O 0.55971 0.04652 0.33613 0.0
H1148 H 0.56559 0.04868 0.29856 0.0
H1149 H 0.56191 0.05511 0.27917 0.0
H1150 H 0.58911 0.07965 0.28221 0.0
H1151 H 0.59314 0.07266 0.30131 0.0
H1152 H 0.62663 0.02451 0.359 0.0
H1153 H 0.61545 0.03512 0.34513 0.0
H1154 H 0.59602 0.01609 0.37732 0.0
H1155 H 0.5847 0.02676 0.3632 0.0
H1156 H 0.5359 0.00688 0.34752 0.0
H1157 H 0.51696 0.03529 0.33403 0.0
H1158 H 0.53464 0.045 0.32962 0.0
H1159 H 0.55376 0.01704 0.34355 0.0
C1160 C 0.95069 0.58147 0.30171 0.0
C1161 C 0.94875 0.57009 0.29868 0.0
C1162 C 0.94372 0.57595 0.27936 0.0
C1163 C 0.94516 0.56737 0.28762 0.0
C1164 C 0.94524 0.58733 0.28267 0.0
C1165 C 0.94867 0.59003 0.2937 0.0
U1166 U 0.9677 0.57639 0.32957 0.0
O1167 O 0.9811 0.58771 0.33603 0.0
O1168 O 0.96576 0.5843 0.34658 0.0
C1169 C 0.97562 0.58947 0.34558 0.0
C1170 C 0.95563 0.58481 0.31275 0.0
C1171 C 0.97995 0.59756 0.35402 0.0
C1172 C 0.98675 0.61641 0.35893 0.0
C1173 C 0.98122 0.60911 0.35135 0.0
C1174 C 0.98943 0.60077 0.37206 0.0
C1175 C 0.99117 0.61222 0.36921 0.0
C1176 C 0.98385 0.5935 0.36451 0.0
C1177 C 0.97871 0.54491 0.334 0.0
C1178 C 0.99125 0.53575 0.34767 0.0
C1179 C 0.98423 0.52526 0.33141 0.0
C1180 C 0.97819 0.53476 0.32787 0.0
C1181 C 0.99094 0.52561 0.34126 0.0
C1182 C 0.98518 0.5454 0.34403 0.0
C1183 C 0.97272 0.55469 0.32908 0.0
O1184 O 0.95104 0.58064 0.32204 0.0
O1185 O 0.96676 0.58501 0.31307 0.0
O1186 O 0.97892 0.56252 0.32409 0.0
O1187 O 0.96382 0.55872 0.33447 0.0
H1188 H 0.95023 0.56333 0.30475 0.0
H1189 H 0.94367 0.55854 0.28552 0.0
H1190 H 0.94424 0.59416 0.27659 0.0
H1191 H 0.95011 0.59886 0.29588 0.0
H1192 H 0.98789 0.62525 0.35663 0.0
H1193 H 0.97821 0.6124 0.3433 0.0
H1194 H 0.99283 0.59736 0.3799 0.0
H1195 H 0.98302 0.58458 0.36664 0.0
H1196 H 0.99622 0.53624 0.3554 0.0
H1197 H 0.98392 0.5177 0.32617 0.0
H1198 H 0.97327 0.53425 0.32011 0.0
H1199 H 0.98566 0.55319 0.3489 0.0
C1200 C 0.43003 0.95013 0.30153 0.0
C1201 C 0.44086 0.95155 0.29674 0.0
C1202 C 0.43419 0.94294 0.27914 0.0
C1203 C 0.44294 0.94791 0.28559 0.0
C1204 C 0.42352 0.94123 0.28408 0.0
C1205 C 0.42148 0.94476 0.29521 0.0
U1206 U 0.434 0.96712 0.32995 0.0
O1207 O 0.42159 0.98004 0.33529 0.0
O1208 O 0.42438 0.96469 0.34588 0.0
C1209 C 0.41844 0.974 0.34412 0.0
C1210 C 0.42681 0.95526 0.31244 0.0
C1211 C 0.41196 0.97932 0.35331 0.0
C1212 C 0.39368 0.98632 0.35968 0.0
C1213 C 0.4002 0.98035 0.35183 0.0
C1214 C 0.41054 0.98992 0.37094 0.0
C1215 C 0.39882 0.99133 0.36917 0.0
C1216 C 0.41713 0.98397 0.36298 0.0
C1217 C 0.46552 0.97827 0.336 0.0
C1218 C 0.47453 0.99314 0.3472 0.0
C1219 C 0.48548 0.98255 0.33336 0.0
C1220 C 0.47595 0.97607 0.33075 0.0
C1221 C 0.48479 0.99135 0.34133 0.0
C1222 C 0.46487 0.98663 0.3445 0.0
C1223 C 0.45555 0.97253 0.33116 0.0
O1224 O 0.43054 0.95053 0.32184 0.0
O1225 O 0.42696 0.9664 0.31274 0.0
O1226 O 0.44797 0.97879 0.32587 0.0
O1227 O 0.45133 0.96353 0.33627 0.0
H1228 H 0.44753 0.95578 0.30146 0.0
H1229 H 0.45123 0.9493 0.28185 0.0
H1230 H 0.41668 0.93744 0.27922 0.0
H1231 H 0.41304 0.9437 0.29875 0.0
H1232 H 0.38464 0.98728 0.35819 0.0
H1233 H 0.39609 0.97678 0.3444 0.0
H1234 H 0.41464 0.99378 0.37822 0.0
H1235 H 0.42622 0.98327 0.36421 0.0
H1236 H 0.47384 0.99997 0.35333 0.0
H1237 H 0.49327 0.9811 0.32867 0.0
H1238 H 0.47659 0.96971 0.32412 0.0
H1239 H 0.45685 0.98846 0.34862 0.0
C1240 C 0.05966 0.43014 0.30205 0.0
C1241 C 0.05707 0.4406 0.29691 0.0
C1242 C 0.06697 0.43472 0.27972 0.0
C1243 C 0.06069 0.44286 0.28579 0.0
C1244 C 0.07003 0.42453 0.28507 0.0
C1245 C 0.06638 0.42227 0.29615 0.0
U1246 U 0.04214 0.43513 0.32949 0.0
O1247 O 0.02862 0.42402 0.33582 0.0
O1248 O 0.04387 0.42717 0.34658 0.0
C1249 C 0.03395 0.42214 0.34544 0.0
C1250 C 0.05438 0.42661 0.31285 0.0
C1251 C 0.02948 0.41369 0.35348 0.0
C1252 C 0.02099 0.39527 0.35736 0.0
C1253 C 0.0263 0.4028 0.34983 0.0
C1254 C 0.02227 0.40935 0.37231 0.0
C1255 C 0.01879 0.39851 0.36867 0.0
C1256 C 0.0276 0.41684 0.36479 0.0
C1257 C 0.03167 0.46658 0.33448 0.0
C1258 C 0.01717 0.47489 0.34665 0.0
C1259 C 0.02784 0.4868 0.3337 0.0
C1260 C 0.03397 0.47737 0.33007 0.0
C1261 C 0.01931 0.48569 0.34194 0.0
C1262 C 0.02335 0.46535 0.34296 0.0
C1263 C 0.03755 0.45695 0.32915 0.0
O1264 O 0.05887 0.43053 0.3223 0.0
O1265 O 0.04323 0.42667 0.31293 0.0
O1266 O 0.03122 0.44927 0.32409 0.0
O1267 O 0.04643 0.4527 0.33441 0.0
H1268 H 0.05186 0.44679 0.3013 0.0
H1269 H 0.05823 0.45076 0.28175 0.0
H1270 H 0.07478 0.41812 0.28049 0.0
H1271 H 0.06839 0.41412 0.29995 0.0
H1272 H 0.01824 0.38708 0.3542 0.0
H1273 H 0.02767 0.40021 0.34111 0.0
H1274 H 0.02076 0.41209 0.38096 0.0
H1275 H 0.02995 0.42524 0.36773 0.0
H1276 H 0.01057 0.47381 0.35297 0.0
H1277 H 0.02947 0.4949 0.32964 0.0
H1278 H 0.04027 0.47845 0.32344 0.0
H1279 H 0.02143 0.45705 0.34644 0.0
C1280 C 0.70906 0.58106 0.95083 0.0
C1281 C 0.71284 0.56978 0.95006 0.0
C1282 C 0.73143 0.57641 0.9435 0.0
C1283 C 0.72392 0.56747 0.94632 0.0
C1284 C 0.72744 0.58764 0.94422 0.0
C1285 C 0.71636 0.5899 0.9477 0.0
U1286 U 0.68051 0.57693 0.96749 0.0
O1287 O 0.67486 0.58931 0.98032 0.0
O1288 O 0.6645 0.58638 0.96483 0.0
C1289 C 0.66607 0.59234 0.97416 0.0
C1290 C 0.69808 0.58422 0.95582 0.0
C1291 C 0.65683 0.59889 0.97929 0.0
C1292 C 0.65035 0.61732 0.98581 0.0
C1293 C 0.65813 0.61071 0.97984 0.0
C1294 C 0.63948 0.60041 0.99033 0.0
C1295 C 0.64111 0.61221 0.99133 0.0
C1296 C 0.64737 0.59374 0.98437 0.0
C1297 C 0.67436 0.5454 0.97847 0.0
C1298 C 0.66584 0.53602 0.99481 0.0
C1299 C 0.67508 0.52489 0.98017 0.0
C1300 C 0.6774 0.53477 0.97411 0.0
C1301 C 0.66971 0.52544 0.99079 0.0
C1302 C 0.66823 0.54601 0.9887 0.0
C1303 C 0.67938 0.55538 0.97289 0.0
O1304 O 0.68876 0.58039 0.951 0.0
O1305 O 0.69766 0.58415 0.96695 0.0
O1306 O 0.68445 0.56302 0.97927 0.0
O1307 O 0.67453 0.55953 0.96372 0.0
H1308 H 0.70734 0.56284 0.95255 0.0
H1309 H 0.72669 0.55871 0.94583 0.0
H1310 H 0.73298 0.59479 0.94259 0.0
H1311 H 0.71362 0.59866 0.94839 0.0
H1312 H 0.65172 0.6264 0.9864 0.0
H1313 H 0.6654 0.61481 0.97595 0.0
H1314 H 0.6324 0.59632 0.99456 0.0
H1315 H 0.64629 0.58461 0.98405 0.0
H1316 H 0.66163 0.53663 1.00297 0.0
H1317 H 0.67803 0.51684 0.97683 0.0
H1318 H 0.68219 0.53414 0.96627 0.0
H1319 H 0.66582 0.55416 0.99221 0.0
C1320 C 0.42958 0.70939 0.95067 0.0
C1321 C 0.44068 0.7137 0.95145 0.0
C1322 C 0.43432 0.7316 0.94316 0.0
C1323 C 0.44304 0.72475 0.94764 0.0
C1324 C 0.42334 0.7271 0.94214 0.0
C1325 C 0.42102 0.71608 0.94582 0.0
U1326 U 0.43348 0.68118 0.96785 0.0
O1327 O 0.42117 0.67583 0.9809 0.0
O1328 O 0.42394 0.66516 0.96561 0.0
C1329 C 0.41805 0.66693 0.97494 0.0
C1330 C 0.4262 0.69856 0.95587 0.0
C1331 C 0.41171 0.65767 0.98036 0.0
C1332 C 0.39354 0.65097 0.98744 0.0
C1333 C 0.39995 0.65905 0.98163 0.0
C1334 C 0.41052 0.63971 0.99044 0.0
C1335 C 0.39879 0.64131 0.99199 0.0
C1336 C 0.417 0.6479 0.98467 0.0
C1337 C 0.46499 0.67533 0.97885 0.0
C1338 C 0.47378 0.66382 0.99357 0.0
C1339 C 0.48503 0.67752 0.98308 0.0
C1340 C 0.4755 0.68047 0.97672 0.0
C1341 C 0.48419 0.66939 0.9917 0.0
C1342 C 0.46417 0.66677 0.98713 0.0
C1343 C 0.45509 0.68024 0.97307 0.0
O1344 O 0.42989 0.6891 0.95121 0.0
O1345 O 0.42632 0.69834 0.967 0.0
O1346 O 0.44751 0.68551 0.97934 0.0
O1347 O 0.45081 0.675 0.96417 0.0
H1348 H 0.44737 0.70869 0.95529 0.0
H1349 H 0.45156 0.7281 0.94861 0.0
H1350 H 0.4165 0.7322 0.9387 0.0
H1351 H 0.4124 0.7129 0.94524 0.0
H1352 H 0.3845 0.65232 0.98852 0.0
H1353 H 0.39574 0.66654 0.97831 0.0
H1354 H 0.41469 0.63229 0.99395 0.0
H1355 H 0.42607 0.64674 0.98378 0.0
H1356 H 0.47301 0.65756 1.00027 0.0
H1357 H 0.49293 0.68203 0.98165 0.0
H1358 H 0.47625 0.68717 0.97045 0.0
H1359 H 0.45609 0.66274 0.9889 0.0
C1360 C 0.30162 0.43005 0.95013 0.0
C1361 C 0.29762 0.44125 0.95082 0.0
C1362 C 0.27909 0.43508 0.94381 0.0
C1363 C 0.28645 0.44377 0.94755 0.0
C1364 C 0.2834 0.42402 0.94259 0.0
C1365 C 0.29456 0.42155 0.94571 0.0
U1366 U 0.32961 0.43398 0.96739 0.0
O1367 O 0.33491 0.42171 0.9805 0.0
O1368 O 0.34579 0.42471 0.96537 0.0
C1369 C 0.34395 0.41878 0.97468 0.0
C1370 C 0.31247 0.42654 0.95517 0.0
C1371 C 0.3531 0.41231 0.98009 0.0
C1372 C 0.35945 0.39415 0.98744 0.0
C1373 C 0.35144 0.40064 0.98163 0.0
C1374 C 0.37118 0.4109 0.98989 0.0
C1375 C 0.36935 0.3992 0.99179 0.0
C1376 C 0.36305 0.41744 0.98412 0.0
C1377 C 0.33507 0.46541 0.97871 0.0
C1378 C 0.3472 0.47425 0.9929 0.0
C1379 C 0.3331 0.48546 0.98295 0.0
C1380 C 0.32989 0.47592 0.97676 0.0
C1381 C 0.34163 0.48473 0.99124 0.0
C1382 C 0.3439 0.46459 0.98669 0.0
C1383 C 0.3302 0.45557 0.97279 0.0
O1384 O 0.3219 0.43045 0.95063 0.0
O1385 O 0.31265 0.42645 0.9663 0.0
O1386 O 0.32494 0.44787 0.97894 0.0
O1387 O 0.33555 0.45144 0.9639 0.0
H1388 H 0.30297 0.44792 0.95422 0.0
H1389 H 0.2835 0.45245 0.94822 0.0
H1390 H 0.27799 0.41715 0.93974 0.0
H1391 H 0.29752 0.41285 0.94517 0.0
H1392 H 0.35771 0.38521 0.98878 0.0
H1393 H 0.34379 0.39655 0.97853 0.0
H1394 H 0.37886 0.41499 0.99285 0.0
H1395 H 0.36447 0.42646 0.98295 0.0
H1396 H 0.35393 0.47348 0.99912 0.0
H1397 H 0.32854 0.49334 0.98155 0.0
H1398 H 0.32302 0.47667 0.97068 0.0
H1399 H 0.34801 0.45652 0.98828 0.0
C1400 C 0.58078 0.3016 0.95092 0.0
C1401 C 0.56951 0.29777 0.95032 0.0
C1402 C 0.57609 0.27927 0.94348 0.0
C1403 C 0.56718 0.2867 0.94653 0.0
C1404 C 0.58731 0.28332 0.944 0.0
C1405 C 0.58959 0.29438 0.94754 0.0
U1406 U 0.57689 0.33009 0.96782 0.0
O1407 O 0.58944 0.33548 0.98058 0.0
O1408 O 0.58651 0.34603 0.96524 0.0
C1409 C 0.59255 0.3443 0.97449 0.0
C1410 C 0.58398 0.31253 0.95602 0.0
C1411 C 0.59877 0.35361 0.97993 0.0
C1412 C 0.61687 0.36029 0.98714 0.0
C1413 C 0.61053 0.35229 0.98117 0.0
C1414 C 0.59982 0.37138 0.99035 0.0
C1415 C 0.61157 0.36982 0.99194 0.0
C1416 C 0.59341 0.36326 0.98439 0.0
C1417 C 0.54542 0.33655 0.97881 0.0
C1418 C 0.53588 0.34436 0.9954 0.0
C1419 C 0.52485 0.33664 0.97985 0.0
C1420 C 0.53481 0.33428 0.97394 0.0
C1421 C 0.52528 0.34123 0.99084 0.0
C1422 C 0.54594 0.34197 0.98944 0.0
C1423 C 0.55537 0.33145 0.97324 0.0
O1424 O 0.58024 0.32192 0.95126 0.0
O1425 O 0.58389 0.31285 0.96715 0.0
O1426 O 0.56295 0.32628 0.97961 0.0
O1427 O 0.55956 0.33626 0.96407 0.0
H1428 H 0.56259 0.30321 0.95301 0.0
H1429 H 0.55843 0.28389 0.94619 0.0
H1430 H 0.59444 0.27783 0.94219 0.0
H1431 H 0.59835 0.29717 0.9481 0.0
H1432 H 0.62592 0.35895 0.98816 0.0
H1433 H 0.61479 0.34488 0.97775 0.0
H1434 H 0.59556 0.37865 0.99404 0.0
H1435 H 0.58432 0.36437 0.98351 0.0
H1436 H 0.53642 0.34799 1.00385 0.0
H1437 H 0.51679 0.33434 0.97604 0.0
H1438 H 0.53423 0.33006 0.96577 0.0
H1439 H 0.55407 0.34379 0.99335 0.0
C1440 C 0.70922 0.43064 0.06041 0.0
C1441 C 0.71459 0.44097 0.05782 0.0
C1442 C 0.73166 0.43467 0.06781 0.0
C1443 C 0.72573 0.44298 0.06154 0.0
C1444 C 0.72597 0.42463 0.07085 0.0
C1445 C 0.71489 0.42263 0.06713 0.0
U1446 U 0.68083 0.43366 0.043 0.0
O1447 O 0.67617 0.42072 0.03038 0.0
O1448 O 0.66515 0.42359 0.04534 0.0
C1449 C 0.66724 0.41747 0.03622 0.0
C1450 C 0.69845 0.42719 0.0551 0.0
C1451 C 0.65806 0.41147 0.03031 0.0
C1452 C 0.65216 0.39411 0.02093 0.0
C1453 C 0.66036 0.40039 0.02666 0.0
C1454 C 0.63897 0.4098 0.02268 0.0
C1455 C 0.64137 0.39872 0.01878 0.0
C1456 C 0.64729 0.41617 0.02838 0.0
C1457 C 0.67438 0.46526 0.0318 0.0
C1458 C 0.66444 0.47492 0.01647 0.0
C1459 C 0.67675 0.48553 0.02911 0.0
C1460 C 0.67902 0.47567 0.0352 0.0
C1461 C 0.66979 0.48519 0.01945 0.0
C1462 C 0.6668 0.46493 0.02259 0.0
C1463 C 0.67898 0.45506 0.03732 0.0
O1464 O 0.68888 0.43064 0.05972 0.0
O1465 O 0.69827 0.42728 0.04397 0.0
O1466 O 0.68439 0.44756 0.03106 0.0
O1467 O 0.674 0.45084 0.04638 0.0
H1468 H 0.71036 0.44724 0.05258 0.0
H1469 H 0.72987 0.45083 0.0591 0.0
H1470 H 0.73015 0.4182 0.07593 0.0
H1471 H 0.71088 0.41459 0.06917 0.0
H1472 H 0.65437 0.38566 0.01802 0.0
H1473 H 0.6686 0.39658 0.02819 0.0
H1474 H 0.63065 0.41351 0.02142 0.0
H1475 H 0.64534 0.42469 0.03127 0.0
H1476 H 0.65903 0.4745 0.00904 0.0
H1477 H 0.68092 0.49336 0.03159 0.0
H1478 H 0.68493 0.47608 0.04225 0.0
H1479 H 0.66314 0.45694 0.01985 0.0
C1480 C 0.5789 0.70939 0.0604 0.0
C1481 C 0.56869 0.71496 0.05783 0.0
C1482 C 0.57543 0.73187 0.06769 0.0
C1483 C 0.56697 0.72617 0.06149 0.0
C1484 C 0.58544 0.72614 0.07059 0.0
C1485 C 0.58715 0.71497 0.06696 0.0
U1486 U 0.57766 0.68084 0.04233 0.0
O1487 O 0.59208 0.67732 0.03111 0.0
O1488 O 0.58849 0.6658 0.04544 0.0
C1489 C 0.59522 0.66831 0.03687 0.0
C1490 C 0.58215 0.6986 0.05505 0.0
C1491 C 0.60086 0.65921 0.03048 0.0
C1492 C 0.6181 0.65326 0.02095 0.0
C1493 C 0.61196 0.66141 0.02686 0.0
C1494 C 0.60216 0.6403 0.02226 0.0
C1495 C 0.6134 0.64251 0.01874 0.0
C1496 C 0.5959 0.64862 0.02813 0.0
C1497 C 0.54622 0.67472 0.02932 0.0
C1498 C 0.53235 0.66186 0.02103 0.0
C1499 C 0.5283 0.68201 0.02226 0.0
C1500 C 0.53885 0.68384 0.02736 0.0
C1501 C 0.52495 0.67101 0.01899 0.0
C1502 C 0.54288 0.6637 0.02624 0.0
C1503 C 0.55758 0.67679 0.034 0.0
O1504 O 0.57849 0.68894 0.05932 0.0
O1505 O 0.5828 0.69863 0.04392 0.0
O1506 O 0.56485 0.6836 0.02894 0.0
O1507 O 0.56099 0.67225 0.04363 0.0
H1508 H 0.56229 0.71083 0.05266 0.0
H1509 H 0.55918 0.73051 0.05921 0.0
H1510 H 0.59208 0.73042 0.0753 0.0
H1511 H 0.59516 0.71086 0.06885 0.0
H1512 H 0.62653 0.65546 0.01801 0.0
H1513 H 0.61591 0.66956 0.02858 0.0
H1514 H 0.59828 0.63212 0.0206 0.0
H1515 H 0.58731 0.64677 0.03085 0.0
H1516 H 0.53001 0.65331 0.01854 0.0
H1517 H 0.5229 0.68927 0.02057 0.0
H1518 H 0.54133 0.69241 0.02965 0.0
H1519 H 0.54853 0.65656 0.02762 0.0
C1520 C 0.30138 0.5801 0.05966 0.0
C1521 C 0.29624 0.56966 0.05707 0.0
C1522 C 0.27916 0.57547 0.06728 0.0
C1523 C 0.28519 0.56736 0.06087 0.0
C1524 C 0.28452 0.58574 0.07012 0.0
C1525 C 0.29554 0.588 0.06636 0.0
U1526 U 0.32941 0.57681 0.04209 0.0
O1527 O 0.33464 0.58957 0.02944 0.0
O1528 O 0.34544 0.58629 0.04453 0.0
C1529 C 0.34358 0.59251 0.03543 0.0
C1530 C 0.31213 0.58369 0.05443 0.0
C1531 C 0.35285 0.59879 0.02999 0.0
C1532 C 0.35973 0.61702 0.02329 0.0
C1533 C 0.35164 0.61058 0.02902 0.0
C1534 C 0.37069 0.59996 0.01974 0.0
C1535 C 0.36929 0.6118 0.01842 0.0
C1536 C 0.36247 0.59347 0.02543 0.0
C1537 C 0.33484 0.54524 0.03056 0.0
C1538 C 0.34741 0.53541 0.01744 0.0
C1539 C 0.33188 0.5253 0.0264 0.0
C1540 C 0.32881 0.53514 0.03216 0.0
C1541 C 0.34121 0.52526 0.01898 0.0
C1542 C 0.34425 0.54538 0.02322 0.0
C1543 C 0.33036 0.55537 0.03627 0.0
O1544 O 0.32165 0.57994 0.0589 0.0
O1545 O 0.31224 0.58387 0.04329 0.0
O1546 O 0.32514 0.5631 0.03013 0.0
O1547 O 0.33562 0.5594 0.04527 0.0
H1548 H 0.30058 0.5635 0.05178 0.0
H1549 H 0.2812 0.55945 0.0584 0.0
H1550 H 0.28011 0.59212 0.07506 0.0
H1551 H 0.29935 0.59614 0.06834 0.0
H1552 H 0.35833 0.62607 0.02241 0.0
H1553 H 0.34425 0.61482 0.03253 0.0
H1554 H 0.37811 0.59572 0.01636 0.0
H1555 H 0.36355 0.58436 0.02617 0.0
H1556 H 0.35459 0.53563 0.0117 0.0
H1557 H 0.32665 0.5178 0.02748 0.0
H1558 H 0.32145 0.53492 0.03769 0.0
H1559 H 0.34897 0.55316 0.02184 0.0
C1560 C 0.42995 0.30182 0.05984 0.0
C1561 C 0.44098 0.29738 0.05899 0.0
C1562 C 0.43449 0.27959 0.06744 0.0
C1563 C 0.44325 0.28633 0.06284 0.0
C1564 C 0.42358 0.28423 0.06853 0.0
C1565 C 0.42136 0.29525 0.06481 0.0
U1566 U 0.43339 0.33026 0.0427 0.0
O1567 O 0.42068 0.33532 0.02997 0.0
O1568 O 0.42349 0.34601 0.04521 0.0
C1569 C 0.41742 0.34412 0.036 0.0
C1570 C 0.42662 0.31264 0.05462 0.0
C1571 C 0.41128 0.35339 0.03042 0.0
C1572 C 0.39327 0.36003 0.02293 0.0
C1573 C 0.39956 0.35195 0.02884 0.0
C1574 C 0.41026 0.37141 0.02044 0.0
C1575 C 0.39857 0.36975 0.01857 0.0
C1576 C 0.41663 0.36321 0.02631 0.0
C1577 C 0.4651 0.33642 0.03175 0.0
C1578 C 0.47479 0.34707 0.01691 0.0
C1579 C 0.48519 0.33353 0.02842 0.0
C1580 C 0.47539 0.33119 0.03456 0.0
C1581 C 0.48492 0.34118 0.0193 0.0
C1582 C 0.46485 0.34464 0.02309 0.0
C1583 C 0.45486 0.33186 0.03722 0.0
O1584 O 0.4302 0.32213 0.05932 0.0
O1585 O 0.42675 0.31289 0.04349 0.0
O1586 O 0.44734 0.32655 0.03088 0.0
O1587 O 0.45062 0.33688 0.04624 0.0
H1588 H 0.4477 0.30229 0.05505 0.0
H1589 H 0.45171 0.28287 0.06181 0.0
H1590 H 0.4167 0.27923 0.07207 0.0
H1591 H 0.41278 0.29853 0.06546 0.0
H1592 H 0.38426 0.35863 0.02163 0.0
H1593 H 0.3953 0.34443 0.03201 0.0
H1594 H 0.41448 0.37887 0.01709 0.0
H1595 H 0.42568 0.36442 0.02746 0.0
H1596 H 0.47443 0.353 0.00988 0.0
H1597 H 0.4929 0.32889 0.0304 0.0
H1598 H 0.47572 0.32478 0.04118 0.0
H1599 H 0.45695 0.34876 0.02079 0.0
C1600 C 0.95158 0.70881 0.58159 0.0
C1601 C 0.9501 0.71226 0.57026 0.0
C1602 C 0.94382 0.73106 0.57664 0.0
C1603 C 0.94617 0.72327 0.56782 0.0
C1604 C 0.94518 0.72738 0.58793 0.0
C1605 C 0.94888 0.71638 0.59035 0.0
U1606 U 0.96867 0.6812 0.57568 0.0
O1607 O 0.98248 0.67434 0.58608 0.0
O1608 O 0.96697 0.66398 0.58335 0.0
C1609 C 0.97721 0.66465 0.58779 0.0
C1610 C 0.95678 0.69782 0.58472 0.0
C1611 C 0.9811 0.6571 0.59701 0.0
C1612 C 0.99042 0.65402 0.61522 0.0
C1613 C 0.98504 0.66131 0.60746 0.0
C1614 C 0.98762 0.63823 0.60233 0.0
C1615 C 0.99193 0.6424 0.61266 0.0
C1616 C 0.98227 0.6455 0.59462 0.0
C1617 C 0.97881 0.67644 0.54422 0.0
C1618 C 0.99355 0.66438 0.53616 0.0
C1619 C 0.98266 0.67691 0.52399 0.0
C1620 C 0.97646 0.68063 0.53335 0.0
C1621 C 0.99136 0.66889 0.5253 0.0
C1622 C 0.98725 0.6681 0.5456 0.0
C1623 C 0.97294 0.6819 0.5538 0.0
O1624 O 0.95212 0.68851 0.58065 0.0
O1625 O 0.96792 0.6976 0.58454 0.0
O1626 O 0.97934 0.68688 0.56146 0.0
O1627 O 0.96405 0.67668 0.55808 0.0
H1628 H 0.95221 0.70657 0.56334 0.0
H1629 H 0.94518 0.72576 0.55902 0.0
H1630 H 0.94391 0.73314 0.59498 0.0
H1631 H 0.95007 0.71391 0.59913 0.0
H1632 H 0.99383 0.65759 0.62298 0.0
H1633 H 0.98434 0.67027 0.60945 0.0
H1634 H 0.98855 0.62936 0.6001 0.0
H1635 H 0.97943 0.64212 0.58655 0.0
H1636 H 1.00028 0.65822 0.53735 0.0
H1637 H 0.98098 0.68072 0.51578 0.0
H1638 H 0.97008 0.68715 0.53214 0.0
H1639 H 0.9892 0.66478 0.55396 0.0
C1640 C 0.95062 0.3019 0.42999 0.0
C1641 C 0.95258 0.29683 0.4406 0.0
C1642 C 0.94319 0.2795 0.4341 0.0
C1643 C 0.94883 0.2857 0.44265 0.0
C1644 C 0.94078 0.28487 0.42373 0.0
C1645 C 0.9445 0.29594 0.4217 0.0
U1646 U 0.96778 0.33025 0.4337 0.0
O1647 O 0.98059 0.33559 0.42116 0.0
O1648 O 0.96525 0.34617 0.42404 0.0
C1649 C 0.97451 0.34441 0.41804 0.0
C1650 C 0.95585 0.31273 0.42667 0.0
C1651 C 0.97978 0.35356 0.41147 0.0
C1652 C 0.9863 0.35996 0.39301 0.0
C1653 C 0.98031 0.35222 0.39966 0.0
C1654 C 0.99089 0.37087 0.40986 0.0
C1655 C 0.99186 0.36919 0.39807 0.0
C1656 C 0.98492 0.36302 0.41657 0.0
C1657 C 0.9788 0.33641 0.4653 0.0
C1658 C 0.99463 0.34578 0.47475 0.0
C1659 C 0.98114 0.33472 0.48568 0.0
C1660 C 0.97502 0.33243 0.47584 0.0
C1661 C 0.99123 0.34104 0.48519 0.0
C1662 C 0.98847 0.3434 0.46479 0.0
C1663 C 0.97323 0.3316 0.45521 0.0
O1664 O 0.95116 0.32219 0.4303 0.0
O1665 O 0.96698 0.31298 0.42681 0.0
O1666 O 0.97956 0.3264 0.44763 0.0
O1667 O 0.96414 0.33656 0.45102 0.0
H1668 H 0.95734 0.30129 0.44709 0.0
H1669 H 0.95077 0.28178 0.45075 0.0
H1670 H 0.93621 0.28044 0.41709 0.0
H1671 H 0.94294 0.29973 0.41345 0.0
H1672 H 0.98679 0.35859 0.38392 0.0
H1673 H 0.97635 0.34497 0.39559 0.0
H1674 H 0.9951 0.37798 0.41391 0.0
H1675 H 0.98458 0.36415 0.4257 0.0
H1676 H 1.00239 0.35071 0.4742 0.0
H1677 H 0.97831 0.33105 0.49363 0.0
H1678 H 0.96761 0.32697 0.4764 0.0
H1679 H 0.99152 0.34654 0.4567 0.0
C1680 C 0.70914 0.95124 0.43063 0.0
C1681 C 0.71459 0.95465 0.44067 0.0
C1682 C 0.73133 0.94359 0.43543 0.0
C1683 C 0.72562 0.95086 0.44304 0.0
C1684 C 0.72565 0.93992 0.4256 0.0
C1685 C 0.71465 0.94371 0.42325 0.0
U1686 U 0.68097 0.96851 0.43367 0.0
O1687 O 0.67598 0.98167 0.42128 0.0
O1688 O 0.66516 0.9664 0.42383 0.0
C1689 C 0.66706 0.97579 0.41806 0.0
C1690 C 0.69848 0.95649 0.42679 0.0
C1691 C 0.65804 0.9811 0.41132 0.0
C1692 C 0.65262 0.98968 0.39341 0.0
C1693 C 0.66062 0.98416 0.40013 0.0
C1694 C 0.63911 0.9889 0.40891 0.0
C1695 C 0.64172 0.99208 0.39766 0.0
C1696 C 0.64723 0.98344 0.41572 0.0
C1697 C 0.67436 0.9791 0.46527 0.0
C1698 C 0.66598 0.99541 0.47482 0.0
C1699 C 0.67488 0.98045 0.48581 0.0
C1700 C 0.67721 0.97451 0.47586 0.0
C1701 C 0.6697 0.99117 0.48537 0.0
C1702 C 0.66838 0.98942 0.46477 0.0
C1703 C 0.67939 0.9736 0.45526 0.0
O1704 O 0.68888 0.95184 0.43009 0.0
O1705 O 0.69828 0.96764 0.42695 0.0
O1706 O 0.68479 0.97999 0.44786 0.0
O1707 O 0.67444 0.9646 0.45084 0.0
H1708 H 0.71052 0.96057 0.44641 0.0
H1709 H 0.72985 0.95402 0.45057 0.0
H1710 H 0.72979 0.9343 0.41961 0.0
H1711 H 0.71061 0.94108 0.41541 0.0
H1712 H 0.65511 0.99233 0.38496 0.0
H1713 H 0.66896 0.98244 0.39662 0.0
H1714 H 0.6308 0.99065 0.41244 0.0
H1715 H 0.64513 0.98116 0.42438 0.0
H1716 H 0.66191 1.00365 0.4743 0.0
H1717 H 0.67769 0.97693 0.49384 0.0
H1718 H 0.68187 0.96659 0.47642 0.0
H1719 H 0.6661 0.9931 0.45665 0.0
C1720 C 0.06048 0.70871 0.43019 0.0
C1721 C 0.0575 0.7139 0.44051 0.0
C1722 C 0.06729 0.73117 0.43469 0.0
C1723 C 0.06088 0.7251 0.44273 0.0
C1724 C 0.07073 0.72577 0.42467 0.0
C1725 C 0.06732 0.71462 0.42243 0.0
U1726 U 0.04261 0.68108 0.43376 0.0
O1727 O 0.02933 0.67606 0.42145 0.0
O1728 O 0.04424 0.66485 0.42455 0.0
C1729 C 0.03491 0.66681 0.4187 0.0
C1730 C 0.05528 0.69798 0.42648 0.0
C1731 C 0.02974 0.65788 0.41173 0.0
C1732 C 0.02214 0.65229 0.39342 0.0
C1733 C 0.02779 0.66016 0.40023 0.0
C1734 C 0.0206 0.63952 0.40949 0.0
C1735 C 0.01849 0.64185 0.39793 0.0
C1736 C 0.02619 0.6475 0.41636 0.0
C1737 C 0.03089 0.67629 0.46524 0.0
C1738 C 0.01973 0.66229 0.47558 0.0
C1739 C 0.02469 0.68018 0.48447 0.0
C1740 C 0.03047 0.68344 0.47471 0.0
C1741 C 0.01918 0.66962 0.48505 0.0
C1742 C 0.02556 0.66562 0.46568 0.0
C1743 C 0.03697 0.68068 0.45527 0.0
O1744 O 0.05958 0.68843 0.43036 0.0
O1745 O 0.04414 0.69799 0.4262 0.0
O1746 O 0.03109 0.68618 0.44754 0.0
O1747 O 0.04567 0.67496 0.45121 0.0
H1748 H 0.05214 0.70951 0.44656 0.0
H1749 H 0.05815 0.72918 0.45051 0.0
H1750 H 0.07559 0.73036 0.41833 0.0
H1751 H 0.06956 0.7108 0.41436 0.0
H1752 H 0.02035 0.65458 0.3847 0.0
H1753 H 0.03041 0.66819 0.39655 0.0
H1754 H 0.01789 0.63157 0.41323 0.0
H1755 H 0.02757 0.64566 0.42527 0.0
H1756 H 0.01567 0.65403 0.47583 0.0
H1757 H 0.02431 0.68611 0.4915 0.0
H1758 H 0.03454 0.6917 0.47451 0.0
H1759 H 0.02585 0.65996 0.45843 0.0
C1760 C 0.30175 0.05989 0.42968 0.0
C1761 C 0.29802 0.0607 0.44097 0.0
C1762 C 0.27945 0.06736 0.4344 0.0
C1763 C 0.28696 0.06451 0.44331 0.0
C1764 C 0.2834 0.06661 0.42316 0.0
C1765 C 0.29445 0.06307 0.42087 0.0
U1766 U 0.33015 0.04275 0.43337 0.0
O1767 O 0.33512 0.02979 0.42083 0.0
O1768 O 0.34595 0.045 0.42349 0.0
C1769 C 0.34399 0.03571 0.41757 0.0
C1770 C 0.31263 0.05472 0.42646 0.0
C1771 C 0.35306 0.03024 0.41104 0.0
C1772 C 0.35901 0.0226 0.39288 0.0
C1773 C 0.35107 0.02833 0.39948 0.0
C1774 C 0.37132 0.02085 0.40928 0.0
C1775 C 0.36929 0.01883 0.39764 0.0
C1776 C 0.36323 0.02651 0.41596 0.0
C1777 C 0.33628 0.03185 0.46504 0.0
C1778 C 0.3457 0.01618 0.47469 0.0
C1779 C 0.33428 0.02954 0.48539 0.0
C1780 C 0.33207 0.03561 0.4755 0.0
C1781 C 0.34073 0.01954 0.48503 0.0
C1782 C 0.34341 0.02228 0.46467 0.0
C1783 C 0.33162 0.03736 0.45487 0.0
O1784 O 0.32209 0.0594 0.43012 0.0
O1785 O 0.31286 0.04358 0.42655 0.0
O1786 O 0.32629 0.03104 0.44736 0.0
O1787 O 0.33668 0.04637 0.45061 0.0
H1788 H 0.30352 0.05815 0.4479 0.0
H1789 H 0.28422 0.06502 0.45208 0.0
H1790 H 0.27785 0.06823 0.41603 0.0
H1791 H 0.29716 0.06234 0.4121 0.0
H1792 H 0.35692 0.02085 0.38409 0.0
H1793 H 0.34319 0.03109 0.39557 0.0
H1794 H 0.37915 0.01803 0.41321 0.0
H1795 H 0.36485 0.02787 0.42491 0.0
H1796 H 0.35073 0.00849 0.47425 0.0
H1797 H 0.33044 0.03236 0.49327 0.0
H1798 H 0.32652 0.04294 0.47593 0.0
H1799 H 0.34672 0.01925 0.45664 0.0
C1800 C 0.05956 0.30147 0.58068 0.0
C1801 C 0.05857 0.29681 0.56975 0.0
C1802 C 0.06713 0.27917 0.57651 0.0
C1803 C 0.06243 0.28572 0.56766 0.0
C1804 C 0.06853 0.28411 0.58726 0.0
C1805 C 0.06477 0.29515 0.58931 0.0
U1806 U 0.04243 0.33015 0.57776 0.0
O1807 O 0.03017 0.33517 0.59087 0.0
O1808 O 0.04557 0.34555 0.58806 0.0
C1809 C 0.03645 0.34375 0.59426 0.0
C1810 C 0.05429 0.31229 0.58392 0.0
C1811 C 0.03085 0.35322 0.60004 0.0
C1812 C 0.02584 0.36177 0.61809 0.0
C1813 C 0.03181 0.35368 0.61188 0.0
C1814 C 0.018 0.36932 0.60061 0.0
C1815 C 0.01886 0.36969 0.61255 0.0
C1816 C 0.02396 0.3611 0.59437 0.0
C1817 C 0.03131 0.33703 0.54611 0.0
C1818 C 0.01573 0.34612 0.53601 0.0
C1819 C 0.02964 0.33502 0.52568 0.0
C1820 C 0.03546 0.33292 0.53576 0.0
C1821 C 0.01949 0.34124 0.52575 0.0
C1822 C 0.02158 0.34394 0.5462 0.0
C1823 C 0.0366 0.33252 0.55647 0.0
O1824 O 0.05902 0.32179 0.58044 0.0
O1825 O 0.04315 0.31257 0.58385 0.0
O1826 O 0.03023 0.3272 0.56395 0.0
O1827 O 0.04587 0.33717 0.56065 0.0
H1828 H 0.05451 0.30156 0.563 0.0
H1829 H 0.0613 0.28208 0.55929 0.0
H1830 H 0.07229 0.27933 0.59417 0.0
H1831 H 0.06557 0.29862 0.5978 0.0
H1832 H 0.02644 0.36161 0.62727 0.0
H1833 H 0.03697 0.34752 0.6164 0.0
H1834 H 0.01265 0.37532 0.59614 0.0
H1835 H 0.02306 0.36077 0.58522 0.0
H1836 H 0.00793 0.35099 0.53624 0.0
H1837 H 0.03279 0.33128 0.51788 0.0
H1838 H 0.04292 0.32753 0.53553 0.0
H1839 H 0.01825 0.34719 0.55413 0.0
C1840 C 0.70904 0.06039 0.58064 0.0
C1841 C 0.71193 0.0629 0.56935 0.0
C1842 C 0.73136 0.06736 0.57526 0.0
C1843 C 0.72299 0.0665 0.56671 0.0
C1844 C 0.7282 0.06523 0.58657 0.0
C1845 C 0.71717 0.06182 0.5892 0.0
U1846 U 0.68043 0.04358 0.57711 0.0
O1847 O 0.67555 0.03086 0.58986 0.0
O1848 O 0.6645 0.04579 0.58685 0.0
C1849 C 0.66651 0.03662 0.59294 0.0
C1850 C 0.69804 0.05549 0.58396 0.0
C1851 C 0.65735 0.03065 0.59896 0.0
C1852 C 0.65191 0.02009 0.6158 0.0
C1853 C 0.66008 0.02581 0.60947 0.0
C1854 C 0.63783 0.02436 0.60143 0.0
C1855 C 0.64065 0.01922 0.61191 0.0
C1856 C 0.64615 0.02997 0.59495 0.0
C1857 C 0.6746 0.03223 0.54551 0.0
C1858 C 0.66449 0.01692 0.53596 0.0
C1859 C 0.6771 0.02922 0.52531 0.0
C1860 C 0.67939 0.0354 0.53511 0.0
C1861 C 0.66997 0.0197 0.5257 0.0
C1862 C 0.66686 0.02314 0.5459 0.0
C1863 C 0.67915 0.03785 0.55567 0.0
O1864 O 0.68865 0.06021 0.58015 0.0
O1865 O 0.69765 0.04437 0.58411 0.0
O1866 O 0.68438 0.03163 0.56333 0.0
O1867 O 0.67405 0.04692 0.55976 0.0
H1868 H 0.70574 0.06187 0.56261 0.0
H1869 H 0.72502 0.06846 0.55795 0.0
H1870 H 0.73437 0.06575 0.59337 0.0
H1871 H 0.71508 0.05991 0.59796 0.0
H1872 H 0.65453 0.01621 0.62372 0.0
H1873 H 0.66865 0.0264 0.6128 0.0
H1874 H 0.6292 0.02423 0.5983 0.0
H1875 H 0.64384 0.0338 0.58692 0.0
H1876 H 0.65894 0.00959 0.53643 0.0
H1877 H 0.68138 0.03154 0.51749 0.0
H1878 H 0.68542 0.04236 0.53466 0.0
H1879 H 0.66308 0.02057 0.55388 0.0
C1880 C 0.3016 0.95101 0.58069 0.0
C1881 C 0.29765 0.9508 0.56945 0.0
C1882 C 0.27923 0.94376 0.57602 0.0
C1883 C 0.28656 0.94709 0.56713 0.0
C1884 C 0.2834 0.9439 0.58721 0.0
C1885 C 0.29449 0.94734 0.58947 0.0
U1886 U 0.33023 0.96784 0.57725 0.0
O1887 O 0.33558 0.98026 0.59011 0.0
O1888 O 0.34598 0.96488 0.58706 0.0
C1889 C 0.34426 0.97401 0.59329 0.0
C1890 C 0.31253 0.95603 0.58395 0.0
C1891 C 0.35368 0.97948 0.5993 0.0
C1892 C 0.36134 0.98543 0.61749 0.0
C1893 C 0.35328 0.97946 0.6112 0.0
C1894 C 0.37056 0.99129 0.60003 0.0
C1895 C 0.36994 0.99148 0.61195 0.0
C1896 C 0.36243 0.9853 0.59369 0.0
C1897 C 0.33643 0.97906 0.54563 0.0
C1898 C 0.34537 0.99494 0.53587 0.0
C1899 C 0.33472 0.98092 0.5252 0.0
C1900 C 0.33257 0.97495 0.53517 0.0
C1901 C 0.34075 0.9912 0.5255 0.0
C1902 C 0.34315 0.98893 0.54595 0.0
C1903 C 0.33181 0.97358 0.55585 0.0
O1904 O 0.3219 0.95127 0.58019 0.0
O1905 O 0.31291 0.96716 0.58401 0.0
O1906 O 0.3267 0.97993 0.56349 0.0
O1907 O 0.33663 0.96436 0.55992 0.0
H1908 H 0.30301 0.95372 0.56257 0.0
H1909 H 0.28364 0.94705 0.5584 0.0
H1910 H 0.27799 0.94187 0.59435 0.0
H1911 H 0.29737 0.9476 0.59821 0.0
H1912 H 0.36068 0.98558 0.62667 0.0
H1913 H 0.34652 0.97507 0.61565 0.0
H1914 H 0.37713 0.99601 0.59565 0.0
H1915 H 0.36279 0.98543 0.5845 0.0
H1916 H 0.35009 1.00284 0.53627 0.0
H1917 H 0.33117 0.9778 0.5173 0.0
H1918 H 0.32733 0.96738 0.53477 0.0
H1919 H 0.3462 0.99224 0.55398 0.0
C1920 C 1.00466 0.51588 0.16313 0.0
C1921 C 0.99417 0.51178 0.16714 0.0
C1922 C 0.01447 0.5091 0.16353 0.0
C1923 C 0.01415 0.49807 0.16816 0.0
H1924 H 0.00536 0.52455 0.16013 0.0
H1925 H 0.02248 0.51276 0.16086 0.0
S1926 S 0.98858 0.48324 0.17917 0.0
N1927 N 0.98391 0.49591 0.17536 0.0
N1928 N 1.00225 0.48311 0.17605 0.0
C1929 C 1.00356 0.49372 0.17166 0.0
C1930 C 0.9936 0.50059 0.17118 0.0
C1931 C 0.50953 0.01046 0.17879 0.0
C1932 C 0.51228 0.01602 0.16857 0.0
C1933 C 0.50286 1.00066 0.17887 0.0
C1934 C 0.49859 0.99597 0.16876 0.0
H1935 H 0.51249 0.01378 0.18685 0.0
H1936 H 0.50101 0.99672 0.18698 0.0
S1937 S 0.50334 0.00715 0.13971 0.0
N1938 N 0.51032 0.01606 0.14802 0.0
N1939 N 0.49758 0.99756 0.1482 0.0
C1940 C 0.50129 1.00135 0.15844 0.0
C1941 C 0.50812 0.01144 0.15835 0.0
C1942 C 0.99964 0.50338 0.85111 0.0
C1943 C 0.9957 0.49823 0.84105 0.0
C1944 C 0.00961 0.51001 0.85114 0.0
C1945 C 0.0158 0.51179 0.84107 0.0
H1946 H 0.99503 0.50223 0.85898 0.0
H1947 H 0.01236 0.51394 0.85899 0.0
S1948 S 0.009 0.50032 0.81254 0.0
N1949 N 0.99872 0.49554 0.82079 0.0
N1950 N 0.01741 0.50779 0.82091 0.0
C1951 C 0.01196 0.50665 0.83103 0.0
C1952 C 1.00191 0.49993 0.83099 0.0
C1953 C 0.51003 0.01601 0.8377 0.0
C1954 C 0.50004 0.01664 0.84415 0.0
C1955 C 0.51644 0.00601 0.83732 0.0
C1956 C 0.51299 0.99614 0.8432 0.0
H1957 H 0.51261 0.02314 0.83247 0.0
H1958 H 0.52392 0.00587 0.83196 0.0
S1959 S 0.48778 0.99385 0.862 0.0
N1960 N 0.48732 0.00702 0.85716 0.0
N1961 N 0.49921 0.98802 0.85632 0.0
C1962 C 0.5033 0.9969 0.85018 0.0
C1963 C 0.49682 0.00718 0.85063 0.0
C1964 C 0.16353 0.99619 0.5016 0.0
C1965 C 0.16801 0.99638 0.51269 0.0
C1966 C 0.16315 0.00611 0.49497 0.0
C1967 C 0.16703 0.01655 0.49928 0.0
H1968 H 0.16092 0.98823 0.4978 0.0
H1969 H 0.16023 0.00552 0.48626 0.0
S1970 S 0.17876 0.02178 0.52799 0.0
N1971 N 0.17571 0.00809 0.52789 0.0
N1972 N 0.17506 0.02663 0.51536 0.0
C1973 C 0.17098 0.01697 0.5105 0.0
C1974 C 0.17145 0.00691 0.51723 0.0
C1975 C 1.0045 0.16816 0.51722 0.0
C1976 C 0.01538 0.16666 0.51245 0.0
C1977 C 0.99468 0.16794 0.51048 0.0
C1978 C 0.99537 0.16619 0.49869 0.0
H1979 H 1.00359 0.17004 0.52619 0.0
H1980 H 0.98658 0.16984 0.51441 0.0
S1981 S 0.02156 0.16045 0.48218 0.0
N1982 N 0.02609 0.16245 0.4953 0.0
N1983 N 0.00761 0.16176 0.48269 0.0
C1984 C 0.00608 0.1639 0.49393 0.0
C1985 C 0.01609 0.16416 0.50079 0.0
C1986 C 0.83173 1.0009 0.5013 0.0
C1987 C 0.84194 0.99539 0.49847 0.0
C1988 C 0.83166 0.01069 0.50799 0.0
C1989 C 0.84179 0.0154 0.51221 0.0
H1990 H 0.82366 0.99757 0.49838 0.0
H1991 H 0.82355 0.01461 0.50989 0.0
S1992 S 0.87083 1.00432 0.50724 0.0
N1993 N 0.8625 0.99541 0.5003 0.0
N1994 N 0.86235 0.01387 0.51308 0.0
C1995 C 0.8521 0.01006 0.50943 0.0
C1996 C 0.85217 0.99999 0.50258 0.0
C1997 C 0.00674 0.84812 0.49609 0.0
C1998 C 0.01665 0.84246 0.49956 0.0
C1999 C 0.99681 0.84763 0.50267 0.0
C2000 C 0.99641 0.84129 0.51283 0.0
H2001 H 0.00658 0.85264 0.48807 0.0
H2002 H 0.98925 0.85182 0.49952 0.0
S2003 S 0.0204 0.82537 0.52569 0.0
N2004 N 0.02567 0.83066 0.51381 0.0
N2005 N 0.0071 0.8298 0.52629 0.0
C2006 C 0.00643 0.8359 0.51651 0.0
C2007 C 0.01652 0.83647 0.50984 0.0
C2008 C 0.50054 0.16638 0.99493 0.0
C2009 C 0.51245 0.16664 0.99575 0.0
C2010 C 0.49372 0.16632 1.00471 0.0
C2011 C 0.49854 0.16651 0.01567 0.0
H2012 H 0.49644 0.16693 0.98671 0.0
H2013 H 0.48458 0.16663 1.00367 0.0
S2014 S 0.52934 0.16592 0.02236 0.0
N2015 N 0.52879 0.16585 0.00835 0.0
N2016 N 0.51601 0.16617 0.02669 0.0
C2017 C 0.51044 0.16605 0.01658 0.0
C2018 C 0.51737 0.16603 0.00663 0.0
C2019 C 0.5106 0.84329 0.99433 0.0
C2020 C 0.49883 0.84506 0.99507 0.0
C2021 C 0.51737 0.84287 1.00412 0.0
C2022 C 0.51262 0.84417 0.01504 0.0
H2023 H 0.51451 0.8415 0.98619 0.0
H2024 H 0.52631 0.84095 1.00316 0.0
S2025 S 0.48241 0.8505 0.02139 0.0
N2026 N 0.48288 0.84939 0.00742 0.0
N2027 N 0.49553 0.84835 0.02586 0.0
C2028 C 0.50098 0.84675 0.01582 0.0
C2029 C 0.4941 0.84722 0.00583 0.0
C2030 C 0.15931 0.50761 0.01067 0.0
C2031 C 0.16938 0.51272 0.01463 0.0
C2032 C 0.15926 0.50099 1.0007 0.0
C2033 C 0.16933 0.49918 0.99452 0.0
H2034 H 0.15143 0.50879 0.01528 0.0
H2035 H 0.1514 0.49709 0.99793 0.0
S2036 S 0.1979 0.51053 1.00137 0.0
N2037 N 0.18966 0.51533 0.01163 0.0
N2038 N 0.18951 0.50309 0.99294 0.0
C2039 C 0.17939 0.50428 0.99838 0.0
C2040 C 0.17944 0.51099 0.00843 0.0
C2041 C 0.84641 0.49448 0.00539 0.0
C2042 C 0.84385 0.49904 0.01615 0.0
C2043 C 0.84611 0.50126 0.99558 0.0
C2044 C 0.84311 0.51281 0.99618 0.0
H2045 H 0.84815 0.48549 1.00449 0.0
H2046 H 0.84754 0.49728 0.98741 0.0
S2047 S 0.83651 0.52901 0.02241 0.0
N2048 N 0.83885 0.51593 0.02688 0.0
N2049 N 0.83847 0.52872 0.00853 0.0
C2050 C 0.84118 0.5176 0.00697 0.0
C2051 C 0.84151 0.51071 0.01694 0.0
C2052 C 0.50423 0.99361 0.67076 0.0
C2053 C 0.51477 0.998 0.6671 0.0
C2054 C 0.4943 1.00014 0.67024 0.0
C2055 C 0.49451 0.01128 0.66601 0.0
H2056 H 0.50375 0.98523 0.67453 0.0
H2057 H 0.48653 0.99668 0.67377 0.0
S2058 S 0.51949 0.02643 0.65434 0.0
N2059 N 0.52454 0.01396 0.65832 0.0
N2060 N 0.50579 0.02619 0.65734 0.0
C2061 C 0.50479 0.01557 0.66173 0.0
C2062 C 0.51492 0.00891 0.66222 0.0
C2063 C 0.01671 0.50489 0.66543 0.0
C2064 C 0.01194 0.51581 0.66667 0.0
C2065 C 0.00989 0.49511 0.66553 0.0
C2066 C 0.99806 0.49588 0.6669 0.0
H2067 H 0.02584 0.50387 0.66488 0.0
H2068 H 0.014 0.48688 0.66521 0.0
S2069 S 0.98126 0.52244 0.6693 0.0
N2070 N 0.99457 0.52679 0.66857 0.0
N2071 N 0.98174 0.50845 0.66837 0.0
C2072 C 0.99312 0.50676 0.66739 0.0
C2073 C 1.00006 0.51671 0.66735 0.0
C2074 C 0.50184 0.99978 0.35112 0.0
C2075 C 0.49426 0.99959 0.3419 0.0
C2076 C 0.5117 0.00656 0.3508 0.0
C2077 C 0.51427 0.01334 0.34124 0.0
H2078 H 0.5003 0.99444 0.35845 0.0
H2079 H 0.51739 0.00642 0.35803 0.0
S2080 S 0.49694 0.01549 0.3149 0.0
N2081 N 0.48976 0.00672 0.32314 0.0
N2082 N 0.50833 0.01908 0.32224 0.0
C2083 C 0.5066 0.01321 0.33204 0.0
C2084 C 0.49659 0.00643 0.33245 0.0
C2085 C 1.00017 0.49479 0.34322 0.0
C2086 C 0.012 0.49566 0.34452 0.0
C2087 C 0.9933 0.50452 0.34305 0.0
C2088 C 0.99799 0.51549 0.34413 0.0
H2089 H 0.99627 0.48661 0.3416 0.0
H2090 H 0.98429 0.50346 0.34149 0.0
S2091 S 0.02837 0.52217 0.34926 0.0
N2092 N 0.02797 0.50818 0.34826 0.0
N2093 N 0.01513 0.5265 0.34758 0.0
C2094 C 0.00971 0.5164 0.34626 0.0
C2095 C 0.01669 0.50648 0.3465 0.0
C2096 C 0.65938 0.51088 1.00266 0.0
C2097 C 0.66957 0.51519 0.99812 0.0
C2098 C 0.65935 0.50095 0.00936 0.0
C2099 C 0.66954 0.49521 0.01183 0.0
H2100 H 0.65141 0.51513 1.00093 0.0
H2101 H 0.65139 0.49787 0.01277 0.0
S2102 S 0.69843 0.50317 1.00213 0.0
N2103 N 0.69006 0.51304 0.99674 0.0
N2104 N 0.68998 0.49446 0.00915 0.0
C2105 C 0.67973 0.49947 0.00733 0.0
C2106 C 0.67976 0.50946 1.00054 0.0
C2107 C 0.50392 0.66275 0.99592 0.0
C2108 C 0.49386 0.66804 0.99956 0.0
C2109 C 0.51382 0.66325 1.00255 0.0
C2110 C 0.51403 0.66925 0.0129 0.0
H2111 H 0.50422 0.65857 0.98773 0.0
H2112 H 0.52151 0.65939 0.99927 0.0
S2113 S 0.48967 0.68409 0.02626 0.0
N2114 N 0.48452 0.67906 0.01422 0.0
N2115 N 0.50308 0.68 0.02673 0.0
C2116 C 0.50388 0.67422 0.01676 0.0
C2117 C 0.49381 0.67362 0.01007 0.0
C2118 C 0.34476 0.50567 0.99367 0.0
C2119 C 0.34385 0.49478 0.99857 0.0
C2120 C 0.34468 0.51552 1.00039 0.0
C2121 C 0.34367 0.51484 0.01227 0.0
H2122 H 0.34505 0.50661 0.98452 0.0
H2123 H 0.34475 0.52371 0.99619 0.0
S2124 S 0.34219 0.48839 0.02937 0.0
N2125 N 0.34263 0.48393 0.01609 0.0
N2126 N 0.34286 0.50238 0.02873 0.0
C2127 C 0.34349 0.50399 0.01731 0.0
C2128 C 0.34351 0.49398 0.01047 0.0
C2129 C 0.50138 0.35146 0.01024 0.0
C2130 C 0.49477 0.34158 0.01151 0.0
C2131 C 0.51131 0.35136 1.00358 0.0
C2132 C 0.5148 0.34143 0.99788 0.0
H2133 H 0.499 0.35918 0.01463 0.0
H2134 H 0.51627 0.35908 1.00284 0.0
S2135 S 0.50031 0.31341 0.99859 0.0
N2136 N 0.49229 0.32173 0.00651 0.0
N2137 N 0.5109 0.32147 0.99417 0.0
C2138 C 0.50816 0.33156 0.99907 0.0
C2139 C 0.49815 0.33167 0.00582 0.0
C2140 C 0.01715 0.66933 0.50624 0.0
C2141 C 0.01255 0.66684 0.49546 0.0
C2142 C 0.01041 0.66911 0.51605 0.0
C2143 C 0.99882 0.66639 0.51546 0.0
H2144 H 0.02592 0.672 0.50703 0.0
H2145 H 0.01414 0.67178 0.52404 0.0
S2146 S 0.9829 0.65787 0.48967 0.0
N2147 N 0.99584 0.6606 0.48502 0.0
N2148 N 0.98324 0.66006 0.50352 0.0
C2149 C 0.99428 0.66313 0.50491 0.0
C2150 C 1.00114 0.66334 0.4949 0.0
C2151 C 0.0086 0.35159 0.51044 0.0
C2152 C 0.01228 0.34135 0.51541 0.0
C2153 C 1.002 0.35155 0.50045 0.0
C2154 C 0.99875 0.34127 0.49529 0.0
H2155 H 0.01094 0.35964 0.51423 0.0
H2156 H 0.99926 0.35957 0.49687 0.0
S2157 S 0.00611 0.31222 0.50504 0.0
N2158 N 0.01206 0.32071 0.51447 0.0
N2159 N 0.99983 0.32066 0.49577 0.0
C2160 C 1.00241 0.33102 0.5002 0.0
C2161 C 0.00911 0.33106 0.51025 0.0
C2162 C 0.65947 0.00983 0.50984 0.0
C2163 C 0.66962 0.012 0.51576 0.0
C2164 C 0.65946 1.00317 0.4999 0.0
C2165 C 0.66959 0.99836 0.49573 0.0
H2166 H 0.65156 0.0135 0.51279 0.0
H2167 H 0.65152 1.0017 0.4955 0.0
S2168 S 0.69835 1.00151 0.50826 0.0
N2169 N 0.68996 0.00873 0.51685 0.0
N2170 N 0.69 0.99639 0.49823 0.0
C2171 C 0.67974 1.00045 0.50166 0.0
C2172 C 0.67974 0.0072 0.51167 0.0
C2173 C 0.35115 1.00229 0.5104 0.0
C2174 C 0.34089 0.9985 0.51524 0.0
C2175 C 0.35116 0.00891 0.50043 0.0
C2176 C 0.34091 0.01206 0.49515 0.0
H2177 H 0.35918 1.00001 0.51427 0.0
H2178 H 0.3592 0.01172 0.49693 0.0
S2179 S 0.31183 1.00442 0.50457 0.0
N2180 N 0.32028 0.99853 0.51409 0.0
N2181 N 0.32031 0.01079 0.49541 0.0
C2182 C 0.33064 0.00832 0.49995 0.0
C2183 C 0.33063 1.0016 0.50998 0.0
C2184 C 0.08185 0.44185 0.25196 0.0
C2185 C 0.07309 0.44048 0.24388 0.0
C2186 C 0.07994 0.43978 0.26357 0.0
C2187 C 0.0692 0.43632 0.26746 0.0
H2188 H 0.09014 0.44484 0.24934 0.0
H2189 H 0.0868 0.44112 0.26956 0.0
S2190 S 0.044 0.42993 0.24978 0.0
N2191 N 0.05368 0.43425 0.24059 0.0
N2192 N 0.05009 0.4306 0.2624 0.0
C2193 C 0.06056 0.43446 0.25948 0.0
C2194 C 0.0625 0.43649 0.24769 0.0
C2195 C 0.56251 0.07173 0.26248 0.0
C2196 C 0.57363 0.07099 0.26683 0.0
C2197 C 0.5605 0.07367 0.25093 0.0
C2198 C 0.56951 0.07513 0.24325 0.0
H2199 H 0.55525 0.0707 0.26803 0.0
H2200 H 0.55179 0.07402 0.24796 0.0
S2201 S 0.60021 0.0746 0.25012 0.0
N2202 N 0.59384 0.07213 0.26237 0.0
N2203 N 0.58993 0.07628 0.24073 0.0
C2204 C 0.58066 0.07492 0.24747 0.0
C2205 C 0.58275 0.07274 0.25923 0.0
C2206 C 0.93148 0.57784 0.24933 0.0
C2207 C 0.93717 0.5691 0.24346 0.0
C2208 C 0.93346 0.57985 0.26093 0.0
C2209 C 0.94122 0.57321 0.26719 0.0
H2210 H 0.92549 0.58325 0.24491 0.0
H2211 H 0.92884 0.58667 0.26503 0.0
S2212 S 0.95819 0.54914 0.25589 0.0
N2213 N 0.95058 0.55348 0.24494 0.0
N2214 N 0.95474 0.55761 0.26651 0.0
C2215 C 0.94694 0.56443 0.26142 0.0
C2216 C 0.94484 0.56232 0.24964 0.0
C2217 C 0.43487 0.94615 0.24715 0.0
C2218 C 0.44023 0.93608 0.24355 0.0
C2219 C 0.43273 0.94818 0.25869 0.0
C2220 C 0.43595 0.94027 0.26703 0.0
H2221 H 0.43239 0.95252 0.241 0.0
H2222 H 0.4287 0.95608 0.26115 0.0
S2223 S 0.44965 0.91241 0.2622 0.0
N2224 N 0.44834 0.91793 0.24937 0.0
N2225 N 0.44419 0.92185 0.27103 0.0
C2226 C 0.44099 0.93007 0.26359 0.0
C2227 C 0.44314 0.92794 0.25185 0.0
C2228 C 0.07342 0.56389 0.74724 0.0
C2229 C 0.07062 0.57485 0.74333 0.0
C2230 C 0.07528 0.56174 0.75881 0.0
C2231 C 0.07455 0.57048 0.76688 0.0
H2232 H 0.07406 0.55686 0.74134 0.0
H2233 H 0.07723 0.55315 0.76149 0.0
S2234 S 0.06801 0.60072 0.76129 0.0
N2235 N 0.0674 0.59462 0.74867 0.0
N2236 N 0.0714 0.59053 0.77032 0.0
C2237 C 0.07223 0.58154 0.76314 0.0
C2238 C 0.07015 0.58374 0.75138 0.0
C2239 C 0.44669 0.07477 0.74737 0.0
C2240 C 0.43617 0.07041 0.7437 0.0
C2241 C 0.44882 0.07683 0.75891 0.0
C2242 C 0.44052 0.07462 0.76717 0.0
H2243 H 0.45336 0.07652 0.74128 0.0
H2244 H 0.45707 0.08005 0.76141 0.0
S2245 S 0.41148 0.06368 0.76221 0.0
N2246 N 0.41725 0.06421 0.74943 0.0
N2247 N 0.4213 0.06837 0.77106 0.0
C2248 C 0.42987 0.07064 0.76368 0.0
C2249 C 0.42768 0.06847 0.75194 0.0
C2250 C 0.94472 0.44709 0.76086 0.0
C2251 C 0.93685 0.44057 0.76707 0.0
C2252 C 0.94661 0.44513 0.74928 0.0
C2253 C 0.9406 0.43669 0.74332 0.0
H2254 H 0.9494 0.45388 0.76493 0.0
H2255 H 0.95299 0.45021 0.74501 0.0
S2256 S 0.91885 0.41732 0.75554 0.0
N2257 N 0.92318 0.42504 0.76641 0.0
N2258 N 0.92607 0.42199 0.74447 0.0
C2259 C 0.93256 0.43019 0.74938 0.0
C2260 C 0.93083 0.432 0.76126 0.0
C2261 C 0.56487 0.94552 0.76165 0.0
C2262 C 0.57039 0.93665 0.76745 0.0
C2263 C 0.56673 0.94747 0.75005 0.0
C2264 C 0.57409 0.94055 0.74366 0.0
H2265 H 0.55886 0.95093 0.76604 0.0
H2266 H 0.56242 0.95457 0.74611 0.0
S2267 S 0.5908 0.91615 0.75477 0.0
N2268 N 0.584 0.92113 0.76597 0.0
N2269 N 0.58681 0.92423 0.74403 0.0
C2270 C 0.57966 0.93158 0.74933 0.0
C2271 C 0.57797 0.92976 0.76122 0.0
C2272 C 0.2612 0.06405 0.44495 0.0
C2273 C 0.26729 0.07021 0.4367 0.0
C2274 C 0.24962 0.06604 0.44689 0.0
C2275 C 0.24354 0.07417 0.44057 0.0
H2276 H 0.26535 0.05748 0.44987 0.0
H2277 H 0.24546 0.06123 0.45353 0.0
S2278 S 0.25543 0.09263 0.41787 0.0
N2279 N 0.26638 0.08515 0.4224 0.0
N2280 N 0.24447 0.08822 0.42541 0.0
C2281 C 0.24948 0.08033 0.43219 0.0
C2282 C 0.26136 0.0785 0.4304 0.0
C2283 C 0.93287 0.25225 0.44807 0.0
C2284 C 0.93612 0.24386 0.44024 0.0
C2285 C 0.93498 0.26378 0.44593 0.0
C2286 C 0.94031 0.26731 0.43583 0.0
H2287 H 0.92886 0.24984 0.456 0.0
H2288 H 0.93248 0.26998 0.45226 0.0
S2289 S 0.94977 0.2485 0.41232 0.0
N2290 N 0.94436 0.23972 0.42184 0.0
N2291 N 0.94842 0.26138 0.41773 0.0
C2292 C 0.94325 0.25896 0.42776 0.0
C2293 C 0.94114 0.24722 0.43 0.0
C2294 C 0.7514 0.9415 0.42846 0.0
C2295 C 0.74342 0.94046 0.43734 0.0
C2296 C 0.76302 0.93953 0.43033 0.0
C2297 C 0.76702 0.93655 0.44116 0.0
H2298 H 0.74871 0.94419 0.42008 0.0
H2299 H 0.76893 0.94062 0.42336 0.0
S2300 S 0.74963 0.93101 0.46675 0.0
N2301 N 0.74033 0.93493 0.457 0.0
N2302 N 0.76218 0.9315 0.46052 0.0
C2303 C 0.75914 0.93497 0.44994 0.0
C2304 C 0.74734 0.93687 0.44804 0.0
C2305 C 0.08217 0.75907 0.44103 0.0
C2306 C 0.07323 0.76702 0.44028 0.0
C2307 C 0.08029 0.74745 0.439 0.0
C2308 C 0.06941 0.74343 0.43626 0.0
H2309 H 0.09061 0.76177 0.44351 0.0
H2310 H 0.08731 0.74156 0.43984 0.0
S2311 S 0.04361 0.76077 0.43157 0.0
N2312 N 0.05343 0.77008 0.4353 0.0
N2313 N 0.04989 0.74823 0.43179 0.0
C2314 C 0.06055 0.75129 0.43501 0.0
C2315 C 0.06246 0.76309 0.43696 0.0
C2316 C 0.24923 0.94568 0.56407 0.0
C2317 C 0.24329 0.93712 0.56994 0.0
C2318 C 0.26081 0.94764 0.56601 0.0
C2319 C 0.26704 0.94103 0.57379 0.0
H2320 H 0.24496 0.95083 0.55777 0.0
H2321 H 0.26486 0.95452 0.56145 0.0
S2322 S 0.25555 0.91747 0.59142 0.0
N2323 N 0.24448 0.92221 0.58426 0.0
N2324 N 0.2664 0.92529 0.58722 0.0
C2325 C 0.26124 0.93235 0.57967 0.0
C2326 C 0.24936 0.93053 0.5779 0.0
C2327 C 0.0794 0.25221 0.56367 0.0
C2328 C 0.07451 0.24363 0.57039 0.0
C2329 C 0.07707 0.26372 0.56574 0.0
C2330 C 0.06995 0.26701 0.57474 0.0
H2331 H 0.08485 0.24999 0.5566 0.0
H2332 H 0.08083 0.27009 0.56026 0.0
S2333 S 0.05586 0.24774 0.59535 0.0
N2334 N 0.06277 0.23913 0.5867 0.0
N2335 N 0.05848 0.26074 0.59076 0.0
C2336 C 0.06536 0.25849 0.58178 0.0
C2337 C 0.06761 0.24679 0.57955 0.0
C2338 C 0.76157 0.07889 0.57766 0.0
C2339 C 0.76726 0.07355 0.56859 0.0
C2340 C 0.74994 0.07708 0.57959 0.0
C2341 C 0.74351 0.06982 0.57255 0.0
H2342 H 0.76616 0.08447 0.58337 0.0
H2343 H 0.74597 0.08139 0.58668 0.0
S2344 S 0.75431 0.05404 0.54748 0.0
N2345 N 0.76543 0.06113 0.5522 0.0
N2346 N 0.74381 0.05721 0.55619 0.0
C2347 C 0.74909 0.06449 0.56343 0.0
C2348 C 0.7609 0.06644 0.56139 0.0
C2349 C 0.94485 0.76055 0.56325 0.0
C2350 C 0.93726 0.76698 0.56988 0.0
C2351 C 0.94671 0.74898 0.56536 0.0
C2352 C 0.94095 0.74321 0.57412 0.0
H2353 H 0.94937 0.76445 0.55625 0.0
H2354 H 0.9529 0.74459 0.56018 0.0
S2355 S 0.91976 0.75597 0.59375 0.0
N2356 N 0.92395 0.76666 0.58572 0.0
N2357 N 0.9268 0.74476 0.58914 0.0
C2358 C 0.93311 0.74946 0.58068 0.0
C2359 C 0.9314 0.76134 0.57868 0.0
C2360 C 0.43181 0.24743 0.06749 0.0
C2361 C 0.44066 0.24407 0.07474 0.0
C2362 C 0.42967 0.25898 0.06543 0.0
C2363 C 0.43646 0.26751 0.07038 0.0
H2364 H 0.42656 0.24109 0.06337 0.0
H2365 H 0.42285 0.26124 0.05969 0.0
S2366 S 0.46017 0.26304 0.09059 0.0
N2367 N 0.45582 0.25008 0.08738 0.0
N2368 N 0.45194 0.27179 0.08333 0.0
C2369 C 0.44515 0.26423 0.07785 0.0
C2370 C 0.44721 0.2525 0.08008 0.0
C2371 C 0.43209 0.7638 0.94333 0.0
C2372 C 0.44087 0.76709 0.93597 0.0
C2373 C 0.42983 0.75227 0.94536 0.0
C2374 C 0.43642 0.74368 0.94026 0.0
H2375 H 0.42698 0.77018 0.94756 0.0
H2376 H 0.42306 0.75005 0.95118 0.0
S2377 S 0.4599 0.74797 0.91975 0.0
N2378 N 0.45577 0.76096 0.9231 0.0
N2379 N 0.45165 0.73928 0.92708 0.0
C2380 C 0.44505 0.7469 0.93269 0.0
C2381 C 0.44723 0.75861 0.93049 0.0
C2382 C 0.24969 0.43458 0.93027 0.0
C2383 C 0.2431 0.44117 0.93779 0.0
C2384 C 0.2613 0.4327 0.93221 0.0
C2385 C 0.2668 0.4373 0.94179 0.0
H2386 H 0.24588 0.43087 0.92276 0.0
H2387 H 0.26603 0.42772 0.92609 0.0
S2388 S 0.25334 0.45462 0.96442 0.0
N2389 N 0.24301 0.4522 0.95526 0.0
N2390 N 0.2646 0.44809 0.95925 0.0
C2391 C 0.26026 0.44362 0.94953 0.0
C2392 C 0.24848 0.44566 0.94748 0.0
C2393 C 0.56573 0.26093 0.94695 0.0
C2394 C 0.57379 0.2671 0.94063 0.0
C2395 C 0.56374 0.24936 0.94491 0.0
C2396 C 0.56982 0.24336 0.93655 0.0
H2397 H 0.56097 0.26502 0.95367 0.0
H2398 H 0.55722 0.24515 0.94985 0.0
S2399 S 0.59207 0.25545 0.91766 0.0
N2400 N 0.58773 0.26633 0.92536 0.0
N2401 N 0.58463 0.24444 0.92214 0.0
C2402 C 0.57805 0.24937 0.93024 0.0
C2403 C 0.57989 0.26124 0.93214 0.0
C2404 C 0.76125 0.56394 0.9449 0.0
C2405 C 0.76733 0.5702 0.93672 0.0
C2406 C 0.74968 0.56591 0.94689 0.0
C2407 C 0.74359 0.57412 0.94068 0.0
H2408 H 0.76541 0.55733 0.94975 0.0
H2409 H 0.74553 0.56103 0.95349 0.0
S2410 S 0.75544 0.5928 0.91814 0.0
N2411 N 0.7664 0.58527 0.92257 0.0
N2412 N 0.74449 0.58834 0.92567 0.0
C2413 C 0.74952 0.58037 0.93235 0.0
C2414 C 0.76139 0.57855 0.93051 0.0
C2415 C 0.57593 0.75229 0.0621 0.0
C2416 C 0.57413 0.74403 0.07051 0.0
C2417 C 0.5741 0.76386 0.06436 0.0
C2418 C 0.57034 0.76756 0.0751 0.0
H2419 H 0.57863 0.74977 0.05367 0.0
H2420 H 0.57551 0.76993 0.05759 0.0
S2421 S 0.56489 0.74904 0.10011 0.0
N2422 N 0.569 0.74017 0.09005 0.0
N2423 N 0.56517 0.76183 0.09432 0.0
C2424 C 0.56885 0.75931 0.08368 0.0
C2425 C 0.57083 0.74756 0.08137 0.0
C2426 C 0.25887 0.58203 0.06801 0.0
C2427 C 0.26705 0.57359 0.07035 0.0
C2428 C 0.24726 0.58008 0.06997 0.0
C2429 C 0.2435 0.56965 0.07434 0.0
H2430 H 0.26142 0.59006 0.06431 0.0
H2431 H 0.24119 0.58666 0.06786 0.0
S2432 S 0.26144 0.54545 0.08336 0.0
N2433 N 0.27055 0.55488 0.07836 0.0
N2434 N 0.24873 0.55123 0.08193 0.0
C2435 C 0.25157 0.56137 0.0772 0.0
C2436 C 0.26335 0.56333 0.07522 0.0
C2437 C 0.74765 0.44684 0.07502 0.0
C2438 C 0.74388 0.43632 0.07074 0.0
C2439 C 0.75921 0.44888 0.07709 0.0
C2440 C 0.76741 0.44048 0.07499 0.0
H2441 H 0.74162 0.45359 0.0767 0.0
H2442 H 0.76178 0.45714 0.08026 0.0
S2443 S 0.76216 0.41142 0.06422 0.0
N2444 N 0.74944 0.41731 0.06468 0.0
N2445 N 0.77111 0.42118 0.06887 0.0
C2446 C 0.76381 0.42984 0.07106 0.0
C2447 C 0.75205 0.42775 0.06888 0.0
C2448 C 0.12723 0.50333 0.11563 0.0
C2449 C 0.13347 0.51251 0.12016 0.0
C2450 C 0.12003 0.49675 0.12251 0.0
C2451 C 0.11892 0.49907 0.13416 0.0
H2452 H 0.12819 0.50098 0.10679 0.0
H2453 H 0.11557 0.48961 0.11879 0.0
S2454 S 0.1324 0.52269 0.15002 0.0
N2455 N 0.13716 0.5241 0.13691 0.0
N2456 N 0.12401 0.51145 0.14983 0.0
C2457 C 0.12484 0.50835 0.13873 0.0
C2458 C 0.13201 0.51515 0.13174 0.0
C2459 C 0.49361 0.12424 0.12364 0.0
C2460 C 0.49838 0.13361 0.11801 0.0
C2461 C 0.50026 0.11734 0.13074 0.0
C2462 C 0.51186 0.1197 0.13254 0.0
H2463 H 0.48466 0.12232 0.12264 0.0
H2464 H 0.49622 0.11031 0.1351 0.0
S2465 S 0.52818 0.14346 0.1197 0.0
N2466 N 0.51518 0.14502 0.11467 0.0
N2467 N 0.52778 0.13208 0.1279 0.0
C2468 C 0.51668 0.12907 0.12687 0.0
C2469 C 0.50991 0.13603 0.11963 0.0
C2470 C 0.88955 0.51476 0.1227 0.0
C2471 C 0.89084 0.5123 0.13431 0.0
C2472 C 0.88244 0.50814 0.11578 0.0
C2473 C 0.87647 0.49872 0.12016 0.0
H2474 H 0.89391 0.52197 0.119 0.0
H2475 H 0.88146 0.51058 0.10696 0.0
S2476 S 0.87826 0.4879 0.14974 0.0
N2477 N 0.88634 0.49936 0.14972 0.0
N2478 N 0.87324 0.48673 0.13669 0.0
C2479 C 0.87805 0.49596 0.13169 0.0
C2480 C 0.88517 0.50278 0.13875 0.0
C2481 C 0.49728 0.89083 0.12266 0.0
C2482 C 0.4991 0.89119 0.13444 0.0
C2483 C 0.50374 0.88362 0.11569 0.0
C2484 C 0.51232 0.8766 0.12024 0.0
H2485 H 0.49065 0.89595 0.11885 0.0
H2486 H 0.50181 0.88338 0.1067 0.0
S2487 S 0.52109 0.87538 0.15051 0.0
N2488 N 0.51043 0.88448 0.15031 0.0
N2489 N 0.52278 0.87118 0.13723 0.0
C2490 C 0.51441 0.87717 0.132 0.0
C2491 C 0.50776 0.88441 0.13908 0.0
C2492 C 0.12844 0.51689 0.88252 0.0
C2493 C 0.11846 0.51242 0.87762 0.0
C2494 C 0.13534 0.51024 0.88958 0.0
C2495 C 0.13249 0.49892 0.892 0.0
H2496 H 0.13098 0.52557 0.88081 0.0
H2497 H 0.14306 0.5139 0.89301 0.0
S2498 S 0.1078 0.48293 0.88093 0.0
N2499 N 0.10642 0.49576 0.87541 0.0
N2500 N 0.1194 0.48335 0.88882 0.0
C2501 C 0.12263 0.49432 0.8872 0.0
C2502 C 0.11558 0.50106 0.88 0.0
C2503 C 0.5157 0.12282 0.88862 0.0
C2504 C 0.51215 0.13383 0.89147 0.0
C2505 C 0.50906 0.11589 0.88153 0.0
C2506 C 0.49855 0.11969 0.87721 0.0
H2507 H 0.52377 0.11964 0.89169 0.0
H2508 H 0.51232 0.10761 0.8792 0.0
S2509 S 0.48497 0.14749 0.8835 0.0
N2510 N 0.49728 0.14802 0.89018 0.0
N2511 N 0.48453 0.13493 0.87727 0.0
C2512 C 0.49475 0.13058 0.88044 0.0
C2513 C 0.50161 0.13766 0.88748 0.0
C2514 C 0.87337 0.502 0.88689 0.0
C2515 C 0.87745 0.51194 0.89208 0.0
C2516 C 0.88037 0.49543 0.87988 0.0
C2517 C 0.89169 0.49864 0.87764 0.0
H2518 H 0.86468 0.49929 0.88825 0.0
H2519 H 0.87684 0.4878 0.87614 0.0
S2520 S 0.90612 0.52441 0.88872 0.0
N2521 N 0.89332 0.52486 0.89444 0.0
N2522 N 0.90644 0.51277 0.8809 0.0
C2523 C 0.89584 0.50861 0.88279 0.0
C2524 C 0.88873 0.51521 0.89008 0.0
C2525 C 0.51673 0.88235 0.88349 0.0
C2526 C 0.51191 0.89185 0.87804 0.0
C2527 C 0.51022 0.87538 0.89064 0.0
C2528 C 0.49868 0.87766 0.89253 0.0
H2529 H 0.52559 0.88024 0.88219 0.0
H2530 H 0.51419 0.86807 0.89457 0.0
S2531 S 0.4818 0.90096 0.87986 0.0
N2532 N 0.49473 0.90284 0.87474 0.0
N2533 N 0.48255 0.88971 0.88822 0.0
C2534 C 0.49371 0.88702 0.88711 0.0
C2535 C 0.50033 0.89416 0.87988 0.0
C2536 C 0.13017 0.13003 0.49489 0.0
C2537 C 0.13297 0.119 0.49864 0.0
C2538 C 0.12318 0.13716 0.50135 0.0
C2539 C 0.11857 0.13349 0.51172 0.0
H2540 H 0.13345 0.13322 0.48691 0.0
H2541 H 0.12138 0.14564 0.49824 0.0
S2542 S 0.12364 0.10581 0.52573 0.0
N2543 N 0.13094 0.10505 0.51378 0.0
N2544 N 0.11744 0.11839 0.52567 0.0
C2545 C 0.12117 0.12253 0.51557 0.0
C2546 C 0.12844 0.1153 0.50908 0.0
C2547 C 0.895 0.12367 0.50203 0.0
C2548 C 0.89144 0.13455 0.49856 0.0
C2549 C 0.88791 0.1166 0.50851 0.0
C2550 C 0.87697 0.12013 0.51179 0.0
H2551 H 0.90332 0.12055 0.49966 0.0
H2552 H 0.89108 0.10836 0.51109 0.0
S2553 S 0.86349 0.14781 0.50482 0.0
N2554 N 0.87627 0.14859 0.49911 0.0
N2555 N 0.86276 0.13511 0.51073 0.0
C2556 C 0.87325 0.13095 0.50828 0.0
C2557 C 0.88051 0.13819 0.5018 0.0
C2558 C 0.88192 0.88179 0.49419 0.0
C2559 C 0.87782 0.89223 0.4984 0.0
C2560 C 0.88884 0.87475 0.50083 0.0
C2561 C 0.89203 0.87795 0.51186 0.0
H2562 H 0.87963 0.87895 0.48574 0.0
H2563 H 0.89156 0.86665 0.49741 0.0
S2564 S 0.88327 0.90398 0.52714 0.0
N2565 N 0.87719 0.90512 0.51455 0.0
N2566 N 0.89045 0.89193 0.52689 0.0
C2567 C 0.88812 0.88833 0.51618 0.0
C2568 C 0.88099 0.89548 0.50946 0.0
C2569 C 0.13351 0.89194 0.49995 0.0
C2570 C 0.13266 0.89201 0.51185 0.0
C2571 C 0.12655 0.88484 0.49336 0.0
C2572 C 0.11839 0.87775 0.49847 0.0
H2573 H 0.13979 0.89718 0.49573 0.0
H2574 H 0.1276 0.88485 0.48422 0.0
S2575 S 0.11308 0.87465 0.52935 0.0
N2576 N 0.12327 0.88427 0.5285 0.0
N2577 N 0.11007 0.87105 0.51613 0.0
C2578 C 0.11744 0.87781 0.51036 0.0
C2579 C 0.12462 0.8849 0.51706 0.0
C2580 C 0.63268 0.01361 0.63091 0.0
C2581 C 0.63212 0.01293 0.61895 0.0
C2582 C 0.62563 0.00701 0.63784 0.0
C2583 C 0.61748 0.99965 0.63316 0.0
H2584 H 0.6387 0.01922 0.63502 0.0
H2585 H 0.62656 0.00768 0.64697 0.0
S2586 S 0.61222 0.99471 0.60254 0.0
N2587 N 0.62264 1.00409 0.60281 0.0
N2588 N 0.60902 0.99213 0.61595 0.0
C2589 C 0.6165 0.99911 0.62129 0.0
C2590 C 0.62387 0.00566 0.61417 0.0
C2591 C 0.01298 0.61992 0.6228 0.0
C2592 C 0.01178 0.6202 0.63467 0.0
C2593 C 0.00652 0.62709 0.61579 0.0
C2594 C 0.99851 0.63474 0.62036 0.0
H2595 H 0.01908 0.61424 0.61891 0.0
H2596 H 0.00797 0.62674 0.60671 0.0
S2597 S 0.99131 0.63778 0.6509 0.0
N2598 N 1.00153 0.62819 0.65068 0.0
N2599 N 0.9892 0.64145 0.63753 0.0
C2600 C 0.99704 0.63486 0.63222 0.0
C2601 C 1.0037 0.62764 0.63936 0.0
C2602 C 0.39458 1.00087 0.63039 0.0
C2603 C 0.39166 0.01216 0.63314 0.0
C2604 C 0.38764 0.99425 0.62331 0.0
C2605 C 0.37761 0.99871 0.61869 0.0
H2606 H 0.40211 0.99702 0.634 0.0
H2607 H 0.39003 0.98553 0.62158 0.0
S2608 S 0.36615 0.02767 0.62292 0.0
N2609 N 0.37807 0.02752 0.63031 0.0
N2610 N 0.365 0.01491 0.61722 0.0
C2611 C 0.3746 0.00994 0.62125 0.0
C2612 C 0.38164 0.0167 0.62841 0.0
C2613 C 1.00035 0.37903 0.61739 0.0
C2614 C 0.01211 0.37791 0.61933 0.0
C2615 C 0.99365 0.38615 0.62422 0.0
C2616 C 0.99853 0.39248 0.63307 0.0
H2617 H 0.99626 0.37414 0.61076 0.0
H2618 H 0.9846 0.38663 0.62264 0.0
S2619 S 0.02875 0.39259 0.64175 0.0
N2620 N 0.02827 0.38381 0.63081 0.0
N2621 N 0.01561 0.39714 0.64359 0.0
C2622 C 0.01022 0.39152 0.63507 0.0
C2623 C 0.01703 0.38424 0.62821 0.0
C2624 C 0.61989 0.01404 0.38821 0.0
C2625 C 0.61893 0.0119 0.37651 0.0
C2626 C 0.62705 0.0074 0.39507 0.0
C2627 C 0.63338 0.99833 0.39047 0.0
H2628 H 0.61537 0.0211 0.39199 0.0
H2629 H 0.6279 0.00963 0.40395 0.0
S2630 S 0.63266 0.98858 0.36046 0.0
N2631 N 0.62423 0.99978 0.36072 0.0
N2632 N 0.63729 0.98699 0.3736 0.0
C2633 C 0.63205 0.99585 0.37884 0.0
C2634 C 0.62492 1.00271 0.37187 0.0
C2635 C 0.99548 0.62133 0.38798 0.0
C2636 C 0.99831 0.61955 0.37652 0.0
C2637 C 1.00217 0.62837 0.39492 0.0
C2638 C 0.01201 0.63373 0.39068 0.0
H2639 H 0.98793 0.61746 0.39152 0.0
H2640 H 0.99944 0.62985 0.40358 0.0
S2641 S 0.02382 0.63037 0.36161 0.0
N2642 N 0.01197 0.62288 0.36146 0.0
N2643 N 0.02479 0.63573 0.37454 0.0
C2644 C 0.01515 0.63156 0.37934 0.0
C2645 C 0.00825 0.62456 0.37226 0.0
C2646 C 0.38273 1.00246 0.3948 0.0
C2647 C 0.37756 0.01239 0.39054 0.0
C2648 C 0.38988 0.99578 0.38796 0.0
C2649 C 0.39198 0.99876 0.37661 0.0
H2650 H 0.38099 0.99962 0.40338 0.0
H2651 H 0.39352 0.98809 0.39146 0.0
S2652 S 0.38143 0.02429 0.36155 0.0
N2653 N 0.37591 0.02527 0.3744 0.0
N2654 N 0.3889 0.01242 0.36151 0.0
C2655 C 0.3871 0.00873 0.3723 0.0
C2656 C 0.38 0.01562 0.37927 0.0
C2657 C 0.99705 0.38837 0.39041 0.0
C2658 C 0.99912 0.37665 0.391 0.0
C2659 C 1.00351 0.39538 0.38324 0.0
C2660 C 0.01236 0.39092 0.3765 0.0
H2661 H 0.99021 0.3921 0.39531 0.0
H2662 H 1.00139 0.40432 0.38281 0.0
S2663 S 0.02182 0.36084 0.37597 0.0
N2664 N 0.01095 0.36093 0.38482 0.0
N2665 N 0.02331 0.37409 0.3716 0.0
C2666 C 0.0147 0.37922 0.37731 0.0
C2667 C 0.00804 0.3721 0.3845 0.0
C2668 C 0.62218 0.62037 0.99678 0.0
C2669 C 0.63387 0.61917 0.99887 0.0
C2670 C 0.61549 0.62767 1.00347 0.0
C2671 C 0.62027 0.63389 0.01252 0.0
H2672 H 0.61827 0.61594 0.98972 0.0
H2673 H 0.60662 0.62873 1.00128 0.0
S2674 S 0.65028 0.63244 0.02222 0.0
N2675 N 0.6498 0.62406 0.01099 0.0
N2676 N 0.63725 0.63735 0.02384 0.0
C2677 C 0.63187 0.63226 0.01498 0.0
C2678 C 0.63866 0.62501 0.00808 0.0
C2679 C 0.38077 0.62961 0.01586 0.0
C2680 C 0.37752 0.6188 0.01182 0.0
C2681 C 0.3878 0.63675 0.00945 0.0
C2682 C 0.39199 0.6333 0.99884 0.0
H2683 H 0.37778 0.63262 0.02403 0.0
H2684 H 0.38993 0.64507 0.01277 0.0
S2685 S 0.38569 0.60629 0.98405 0.0
N2686 N 0.37871 0.60533 0.99618 0.0
N2687 N 0.39227 0.61868 0.98435 0.0
C2688 C 0.38894 0.62257 0.99469 0.0
C2689 C 0.38165 0.61533 1.00114 0.0
C2690 C 0.38017 0.38109 0.99482 0.0
C2691 C 0.37751 0.39219 0.99845 0.0
C2692 C 0.38714 0.37397 1.00131 0.0
C2693 C 0.39188 0.37773 0.01159 0.0
H2694 H 0.37676 0.37782 0.98692 0.0
H2695 H 0.3888 0.36543 0.99831 0.0
S2696 S 0.38723 0.40565 0.02527 0.0
N2697 N 0.37984 0.40632 0.01337 0.0
N2698 N 0.3933 0.393 0.02533 0.0
C2699 C 0.38944 0.38877 0.01531 0.0
C2700 C 0.38219 0.39599 0.00879 0.0
C2701 C 0.63185 0.38013 0.01466 0.0
C2702 C 0.63288 0.39184 0.01239 0.0
C2703 C 0.6248 0.37316 0.00811 0.0
C2704 C 0.61834 0.37762 0.99912 0.0
H2705 H 0.63663 0.37625 0.0215 0.0
H2706 H 0.62443 0.36417 0.01007 0.0
S2707 S 0.618 0.40756 0.98946 0.0
N2708 N 0.62693 0.4075 1.00028 0.0
N2709 N 0.61337 0.39438 0.9882 0.0
C2710 C 0.61905 0.38931 0.99687 0.0
C2711 C 0.62637 0.39642 1.00346 0.0
loop_
_geom_bond_atom_site_label_1
_geom_bond_atom_site_label_2
_geom_bond_distance
_geom_bond_site_symmetry_2
_ccdc_geom_bond_type
C0 C1 1.264 . S
C0 C5 1.479 . S
C0 C10 1.465 . S
C1 C0 1.264 . S
C1 C3 1.339 . S
C1 H28 0.931 . S
C2 C3 1.395 . S
C2 C4 1.320 . S
C3 C1 1.339 . S
C3 C2 1.395 . S
C3 H29 0.929 . S
C4 C2 1.320 . S
C4 C5 1.405 . S
C4 H30 0.930 . S
C5 C0 1.479 . S
C5 C4 1.405 . S
C5 H31 0.931 . S
U6 O7 2.454 . S
U6 O8 2.458 . S
U6 C9 2.984 . S
U6 C10 2.847 . S
U6 C23 2.882 . S
U6 O24 2.441 . S
U6 O25 2.420 . S
U6 O26 2.455 . S
U6 O27 2.449 . S
O7 U6 2.454 . S
O7 C9 1.353 . S
O8 U6 2.458 . S
O8 C9 1.286 . S
C9 U6 2.984 . S
C9 O7 1.353 . S
C9 O8 1.286 . S
C9 C11 1.363 . S
C10 C0 1.465 . S
C10 U6 2.847 . S
C10 O24 1.249 . S
C10 O25 1.202 . S
C11 C9 1.363 . S
C11 C13 1.408 . S
C11 C16 1.342 . S
C12 C13 1.310 . S
C12 C15 1.461 . S
C12 H32 0.932 . S
C13 C11 1.408 . S
C13 C12 1.310 . S
C13 H33 0.930 . S
C14 C15 1.474 . S
C14 C16 1.285 . S
C14 H34 0.929 . S
C15 C12 1.461 . S
C15 C14 1.474 . S
C16 C11 1.342 . S
C16 C14 1.285 . S
C16 H35 0.930 . S
C17 C20 1.424 . S
C17 C22 1.245 . S
C17 C23 1.428 . S
C18 C21 1.260 . S
C18 C22 1.477 . S
C18 H36 0.932 . S
C19 C20 1.384 . S
C19 C21 1.479 . S
C19 H37 0.929 . S
C20 C17 1.424 . S
C20 C19 1.384 . S
C20 H38 0.928 . S
C21 C18 1.260 . S
C21 C19 1.479 . S
C22 C17 1.245 . S
C22 C18 1.477 . S
C22 H39 0.932 . S
C23 U6 2.882 . S
C23 C17 1.428 . S
C23 O26 1.301 . S
C23 O27 1.282 . S
O24 U6 2.441 . S
O24 C10 1.249 . S
O25 U6 2.420 . S
O25 C10 1.202 . S
O26 U6 2.455 . S
O26 C23 1.301 . S
O27 U6 2.449 . S
O27 C23 1.282 . S
H28 C1 0.931 . S
H29 C3 0.929 . S
H30 C4 0.930 . S
H31 C5 0.931 . S
H32 C12 0.932 . S
H33 C13 0.930 . S
H34 C14 0.929 . S
H35 C16 0.930 . S
H36 C18 0.932 . S
H37 C19 0.929 . S
H38 C20 0.928 . S
H39 C22 0.932 . S
C40 C41 1.264 . S
C40 C45 1.479 . S
C40 C50 1.465 . S
C41 C40 1.264 . S
C41 C43 1.339 . S
C41 H68 0.931 . S
C42 C43 1.395 . S
C42 C44 1.320 . S
C43 C41 1.339 . S
C43 C42 1.395 . S
C43 H69 0.929 . S
C44 C42 1.320 . S
C44 C45 1.405 . S
C44 H70 0.930 . S
C45 C40 1.479 . S
C45 C44 1.405 . S
C45 H71 0.931 . S
U46 O47 2.454 . S
U46 O48 2.458 . S
U46 C49 2.984 . S
U46 C50 2.847 . S
U46 C63 2.882 . S
U46 O64 2.441 . S
U46 O65 2.420 . S
U46 O66 2.455 . S
U46 O67 2.449 . S
O47 U46 2.454 . S
O47 C49 1.353 . S
O48 U46 2.458 . S
O48 C49 1.286 . S
C49 U46 2.984 . S
C49 O47 1.353 . S
C49 O48 1.286 . S
C49 C51 1.363 . S
C50 C40 1.465 . S
C50 U46 2.847 . S
C50 O64 1.249 . S
C50 O65 1.202 . S
C51 C49 1.363 . S
C51 C53 1.408 . S
C51 C56 1.342 . S
C52 C53 1.310 . S
C52 C55 1.461 . S
C52 H72 0.932 . S
C53 C51 1.408 . S
C53 C52 1.310 . S
C53 H73 0.930 . S
C54 C55 1.474 . S
C54 C56 1.285 . S
C54 H74 0.929 . S
C55 C52 1.461 . S
C55 C54 1.474 . S
C56 C51 1.342 . S
C56 C54 1.285 . S
C56 H75 0.930 . S
C57 C60 1.424 . S
C57 C62 1.245 . S
C57 C63 1.428 . S
C58 C61 1.260 . S
C58 C62 1.477 . S
C58 H76 0.932 . S
C59 C60 1.384 . S
C59 C61 1.479 . S
C59 H77 0.929 . S
C60 C57 1.424 . S
C60 C59 1.384 . S
C60 H78 0.928 . S
C61 C58 1.260 . S
C61 C59 1.479 . S
C62 C57 1.245 . S
C62 C58 1.477 . S
C62 H79 0.932 . S
C63 U46 2.882 . S
C63 C57 1.428 . S
C63 O66 1.301 . S
C63 O67 1.282 . S
O64 U46 2.441 . S
O64 C50 1.249 . S
O65 U46 2.420 . S
O65 C50 1.202 . S
O66 U46 2.455 . S
O66 C63 1.301 . S
O67 U46 2.449 . S
O67 C63 1.282 . S
H68 C41 0.931 . S
H69 C43 0.929 . S
H70 C44 0.930 . S
H71 C45 0.931 . S
H72 C52 0.932 . S
H73 C53 0.930 . S
H74 C54 0.929 . S
H75 C56 0.930 . S
H76 C58 0.932 . S
H77 C59 0.929 . S
H78 C60 0.928 . S
H79 C62 0.932 . S
C80 C81 1.264 . S
C80 C85 1.479 . S
C80 C90 1.465 . S
C81 C80 1.264 . S
C81 C83 1.339 . S
C81 H108 0.931 . S
C82 C83 1.395 . S
C82 C84 1.320 . S
C83 C81 1.339 . S
C83 C82 1.395 . S
C83 H109 0.929 . S
C84 C82 1.320 . S
C84 C85 1.405 . S
C84 H110 0.930 . S
C85 C80 1.479 . S
C85 C84 1.405 . S
C85 H111 0.931 . S
U86 O87 2.454 . S
U86 O88 2.458 . S
U86 C89 2.984 . S
U86 C90 2.847 . S
U86 C103 2.882 . S
U86 O104 2.441 . S
U86 O105 2.420 . S
U86 O106 2.455 . S
U86 O107 2.449 . S
O87 U86 2.454 . S
O87 C89 1.353 . S
O88 U86 2.458 . S
O88 C89 1.286 . S
C89 U86 2.984 . S
C89 O87 1.353 . S
C89 O88 1.286 . S
C89 C91 1.363 . S
C90 C80 1.465 . S
C90 U86 2.847 . S
C90 O104 1.249 . S
C90 O105 1.202 . S
C91 C89 1.363 . S
C91 C93 1.408 . S
C91 C96 1.342 . S
C92 C93 1.310 . S
C92 C95 1.461 . S
C92 H112 0.932 . S
C93 C91 1.408 . S
C93 C92 1.310 . S
C93 H113 0.930 . S
C94 C95 1.474 . S
C94 C96 1.285 . S
C94 H114 0.929 . S
C95 C92 1.461 . S
C95 C94 1.474 . S
C96 C91 1.342 . S
C96 C94 1.285 . S
C96 H115 0.930 . S
C97 C100 1.424 . S
C97 C102 1.245 . S
C97 C103 1.428 . S
C98 C101 1.260 . S
C98 C102 1.477 . S
C98 H116 0.932 . S
C99 C100 1.384 . S
C99 C101 1.479 . S
C99 H117 0.929 . S
C100 C97 1.424 . S
C100 C99 1.384 . S
C100 H118 0.928 . S
C101 C98 1.260 . S
C101 C99 1.479 . S
C102 C97 1.245 . S
C102 C98 1.477 . S
C102 H119 0.932 . S
C103 U86 2.882 . S
C103 C97 1.428 . S
C103 O106 1.301 . S
C103 O107 1.282 . S
O104 U86 2.441 . S
O104 C90 1.249 . S
O105 U86 2.420 . S
O105 C90 1.202 . S
O106 U86 2.455 . S
O106 C103 1.301 . S
O107 U86 2.449 . S
O107 C103 1.282 . S
H108 C81 0.931 . S
H109 C83 0.929 . S
H110 C84 0.930 . S
H111 C85 0.931 . S
H112 C92 0.932 . S
H113 C93 0.930 . S
H114 C94 0.929 . S
H115 C96 0.930 . S
H116 C98 0.932 . S
H117 C99 0.929 . S
H118 C100 0.928 . S
H119 C102 0.932 . S
C120 C121 1.264 . S
C120 C125 1.479 . S
C120 C130 1.465 . S
C121 C120 1.264 . S
C121 C123 1.339 . S
C121 H148 0.931 . S
C122 C123 1.395 . S
C122 C124 1.320 . S
C123 C121 1.339 . S
C123 C122 1.395 . S
C123 H149 0.929 . S
C124 C122 1.320 . S
C124 C125 1.405 . S
C124 H150 0.930 . S
C125 C120 1.479 . S
C125 C124 1.405 . S
C125 H151 0.931 . S
U126 O127 2.454 . S
U126 O128 2.458 . S
U126 C129 2.984 . S
U126 C130 2.847 . S
U126 C143 2.882 . S
U126 O144 2.441 . S
U126 O145 2.420 . S
U126 O146 2.455 . S
U126 O147 2.449 . S
O127 U126 2.454 . S
O127 C129 1.353 . S
O128 U126 2.458 . S
O128 C129 1.286 . S
C129 U126 2.984 . S
C129 O127 1.353 . S
C129 O128 1.286 . S
C129 C131 1.363 . S
C130 C120 1.465 . S
C130 U126 2.847 . S
C130 O144 1.249 . S
C130 O145 1.202 . S
C131 C129 1.363 . S
C131 C133 1.408 . S
C131 C136 1.342 . S
C132 C133 1.310 . S
C132 C135 1.461 . S
C132 H152 0.932 . S
C133 C131 1.408 . S
C133 C132 1.310 . S
C133 H153 0.930 . S
C134 C135 1.474 . S
C134 C136 1.285 . S
C134 H154 0.929 . S
C135 C132 1.461 . S
C135 C134 1.474 . S
C136 C131 1.342 . S
C136 C134 1.285 . S
C136 H155 0.930 . S
C137 C140 1.424 . S
C137 C142 1.245 . S
C137 C143 1.428 . S
C138 C141 1.260 . S
C138 C142 1.477 . S
C138 H156 0.932 . S
C139 C140 1.384 . S
C139 C141 1.479 . S
C139 H157 0.929 . S
C140 C137 1.424 . S
C140 C139 1.384 . S
C140 H158 0.928 . S
C141 C138 1.260 . S
C141 C139 1.479 . S
C142 C137 1.245 . S
C142 C138 1.477 . S
C142 H159 0.932 . S
C143 U126 2.882 . S
C143 C137 1.428 . S
C143 O146 1.301 . S
C143 O147 1.282 . S
O144 U126 2.441 . S
O144 C130 1.249 . S
O145 U126 2.420 . S
O145 C130 1.202 . S
O146 U126 2.455 . S
O146 C143 1.301 . S
O147 U126 2.449 . S
O147 C143 1.282 . S
H148 C121 0.931 . S
H149 C123 0.929 . S
H150 C124 0.930 . S
H151 C125 0.931 . S
H152 C132 0.932 . S
H153 C133 0.930 . S
H154 C134 0.929 . S
H155 C136 0.930 . S
H156 C138 0.932 . S
H157 C139 0.929 . S
H158 C140 0.928 . S
H159 C142 0.932 . S
C160 C161 1.264 . S
C160 C165 1.479 . S
C160 C170 1.465 . S
C161 C160 1.264 . S
C161 C163 1.339 . S
C161 H188 0.931 . S
C162 C163 1.395 . S
C162 C164 1.320 . S
C163 C161 1.339 . S
C163 C162 1.395 . S
C163 H189 0.929 . S
C164 C162 1.320 . S
C164 C165 1.405 . S
C164 H190 0.930 . S
C165 C160 1.479 . S
C165 C164 1.405 . S
C165 H191 0.931 . S
U166 O167 2.454 . S
U166 O168 2.458 . S
U166 C169 2.984 . S
U166 C170 2.847 . S
U166 C183 2.882 . S
U166 O184 2.441 . S
U166 O185 2.420 . S
U166 O186 2.455 . S
U166 O187 2.449 . S
O167 U166 2.454 . S
O167 C169 1.353 . S
O168 U166 2.458 . S
O168 C169 1.286 . S
C169 U166 2.984 . S
C169 O167 1.353 . S
C169 O168 1.286 . S
C169 C171 1.363 . S
C170 C160 1.465 . S
C170 U166 2.847 . S
C170 O184 1.249 . S
C170 O185 1.202 . S
C171 C169 1.363 . S
C171 C173 1.408 . S
C171 C176 1.342 . S
C172 C173 1.310 . S
C172 C175 1.461 . S
C172 H192 0.932 . S
C173 C171 1.408 . S
C173 C172 1.310 . S
C173 H193 0.930 . S
C174 C175 1.474 . S
C174 C176 1.285 . S
C174 H194 0.929 . S
C175 C172 1.461 . S
C175 C174 1.474 . S
C176 C171 1.342 . S
C176 C174 1.285 . S
C176 H195 0.930 . S
C177 C180 1.424 . S
C177 C182 1.245 . S
C177 C183 1.428 . S
C178 C181 1.260 . S
C178 C182 1.477 . S
C178 H196 0.932 . S
C179 C180 1.384 . S
C179 C181 1.479 . S
C179 H197 0.929 . S
C180 C177 1.424 . S
C180 C179 1.384 . S
C180 H198 0.928 . S
C181 C178 1.260 . S
C181 C179 1.479 . S
C182 C177 1.245 . S
C182 C178 1.477 . S
C182 H199 0.932 . S
C183 U166 2.882 . S
C183 C177 1.428 . S
C183 O186 1.301 . S
C183 O187 1.282 . S
O184 U166 2.441 . S
O184 C170 1.249 . S
O185 U166 2.420 . S
O185 C170 1.202 . S
O186 U166 2.455 . S
O186 C183 1.301 . S
O187 U166 2.449 . S
O187 C183 1.282 . S
H188 C161 0.931 . S
H189 C163 0.929 . S
H190 C164 0.930 . S
H191 C165 0.931 . S
H192 C172 0.932 . S
H193 C173 0.930 . S
H194 C174 0.929 . S
H195 C176 0.930 . S
H196 C178 0.932 . S
H197 C179 0.929 . S
H198 C180 0.928 . S
H199 C182 0.932 . S
C200 C201 1.264 . S
C200 C205 1.479 . S
C200 C210 1.465 . S
C201 C200 1.264 . S
C201 C203 1.339 . S
C201 H228 0.931 . S
C202 C203 1.395 . S
C202 C204 1.320 . S
C203 C201 1.339 . S
C203 C202 1.395 . S
C203 H229 0.929 . S
C204 C202 1.320 . S
C204 C205 1.405 . S
C204 H230 0.930 . S
C205 C200 1.479 . S
C205 C204 1.405 . S
C205 H231 0.931 . S
U206 O207 2.454 . S
U206 O208 2.458 . S
U206 C209 2.984 . S
U206 C210 2.847 . S
U206 C223 2.882 . S
U206 O224 2.441 . S
U206 O225 2.420 . S
U206 O226 2.455 . S
U206 O227 2.449 . S
O207 U206 2.454 . S
O207 C209 1.353 . S
O208 U206 2.458 . S
O208 C209 1.286 . S
C209 U206 2.984 . S
C209 O207 1.353 . S
C209 O208 1.286 . S
C209 C211 1.363 . S
C210 C200 1.465 . S
C210 U206 2.847 . S
C210 O224 1.249 . S
C210 O225 1.202 . S
C211 C209 1.363 . S
C211 C213 1.408 . S
C211 C216 1.342 . S
C212 C213 1.310 . S
C212 C215 1.461 . S
C212 H232 0.932 . S
C213 C211 1.408 . S
C213 C212 1.310 . S
C213 H233 0.930 . S
C214 C215 1.474 . S
C214 C216 1.285 . S
C214 H234 0.929 . S
C215 C212 1.461 . S
C215 C214 1.474 . S
C216 C211 1.342 . S
C216 C214 1.285 . S
C216 H235 0.930 . S
C217 C220 1.424 . S
C217 C222 1.245 . S
C217 C223 1.428 . S
C218 C221 1.260 . S
C218 C222 1.477 . S
C218 H236 0.932 . S
C219 C220 1.384 . S
C219 C221 1.479 . S
C219 H237 0.929 . S
C220 C217 1.424 . S
C220 C219 1.384 . S
C220 H238 0.928 . S
C221 C218 1.260 . S
C221 C219 1.479 . S
C222 C217 1.245 . S
C222 C218 1.477 . S
C222 H239 0.932 . S
C223 U206 2.882 . S
C223 C217 1.428 . S
C223 O226 1.301 . S
C223 O227 1.282 . S
O224 U206 2.441 . S
O224 C210 1.249 . S
O225 U206 2.420 . S
O225 C210 1.202 . S
O226 U206 2.455 . S
O226 C223 1.301 . S
O227 U206 2.449 . S
O227 C223 1.282 . S
H228 C201 0.931 . S
H229 C203 0.929 . S
H230 C204 0.930 . S
H231 C205 0.931 . S
H232 C212 0.932 . S
H233 C213 0.930 . S
H234 C214 0.929 . S
H235 C216 0.930 . S
H236 C218 0.932 . S
H237 C219 0.929 . S
H238 C220 0.928 . S
H239 C222 0.932 . S
C240 C241 1.264 . S
C240 C245 1.479 . S
C240 C250 1.465 . S
C241 C240 1.264 . S
C241 C243 1.339 . S
C241 H268 0.931 . S
C242 C243 1.395 . S
C242 C244 1.320 . S
C243 C241 1.339 . S
C243 C242 1.395 . S
C243 H269 0.929 . S
C244 C242 1.320 . S
C244 C245 1.405 . S
C244 H270 0.930 . S
C245 C240 1.479 . S
C245 C244 1.405 . S
C245 H271 0.931 . S
U246 O247 2.454 . S
U246 O248 2.458 . S
U246 C249 2.984 . S
U246 C250 2.847 . S
U246 C263 2.882 . S
U246 O264 2.441 . S
U246 O265 2.420 . S
U246 O266 2.455 . S
U246 O267 2.449 . S
O247 U246 2.454 . S
O247 C249 1.353 . S
O248 U246 2.458 . S
O248 C249 1.286 . S
C249 U246 2.984 . S
C249 O247 1.353 . S
C249 O248 1.286 . S
C249 C251 1.363 . S
C250 C240 1.465 . S
C250 U246 2.847 . S
C250 O264 1.249 . S
C250 O265 1.202 . S
C251 C249 1.363 . S
C251 C253 1.408 . S
C251 C256 1.342 . S
C252 C253 1.310 . S
C252 C255 1.461 . S
C252 H272 0.932 . S
C253 C251 1.408 . S
C253 C252 1.310 . S
C253 H273 0.930 . S
C254 C255 1.474 . S
C254 C256 1.285 . S
C254 H274 0.929 . S
C255 C252 1.461 . S
C255 C254 1.474 . S
C256 C251 1.342 . S
C256 C254 1.285 . S
C256 H275 0.930 . S
C257 C260 1.424 . S
C257 C262 1.245 . S
C257 C263 1.428 . S
C258 C261 1.260 . S
C258 C262 1.477 . S
C258 H276 0.932 . S
C259 C260 1.384 . S
C259 C261 1.479 . S
C259 H277 0.929 . S
C260 C257 1.424 . S
C260 C259 1.384 . S
C260 H278 0.928 . S
C261 C258 1.260 . S
C261 C259 1.479 . S
C262 C257 1.245 . S
C262 C258 1.477 . S
C262 H279 0.932 . S
C263 U246 2.882 . S
C263 C257 1.428 . S
C263 O266 1.301 . S
C263 O267 1.282 . S
O264 U246 2.441 . S
O264 C250 1.249 . S
O265 U246 2.420 . S
O265 C250 1.202 . S
O266 U246 2.455 . S
O266 C263 1.301 . S
O267 U246 2.449 . S
O267 C263 1.282 . S
H268 C241 0.931 . S
H269 C243 0.929 . S
H270 C244 0.930 . S
H271 C245 0.931 . S
H272 C252 0.932 . S
H273 C253 0.930 . S
H274 C254 0.929 . S
H275 C256 0.930 . S
H276 C258 0.932 . S
H277 C259 0.929 . S
H278 C260 0.928 . S
H279 C262 0.932 . S
C280 C281 1.264 . S
C280 C285 1.479 . S
C280 C290 1.465 . S
C281 C280 1.264 . S
C281 C283 1.339 . S
C281 H308 0.931 . S
C282 C283 1.395 . S
C282 C284 1.320 . S
C283 C281 1.339 . S
C283 C282 1.395 . S
C283 H309 0.929 . S
C284 C282 1.320 . S
C284 C285 1.405 . S
C284 H310 0.930 . S
C285 C280 1.479 . S
C285 C284 1.405 . S
C285 H311 0.931 . S
U286 O287 2.454 . S
U286 O288 2.458 . S
U286 C289 2.984 . S
U286 C290 2.847 . S
U286 C303 2.882 . S
U286 O304 2.441 . S
U286 O305 2.420 . S
U286 O306 2.455 . S
U286 O307 2.449 . S
O287 U286 2.454 . S
O287 C289 1.353 . S
O288 U286 2.458 . S
O288 C289 1.286 . S
C289 U286 2.984 . S
C289 O287 1.353 . S
C289 O288 1.286 . S
C289 C291 1.363 . S
C290 C280 1.465 . S
C290 U286 2.847 . S
C290 O304 1.249 . S
C290 O305 1.202 . S
C291 C289 1.363 . S
C291 C293 1.408 . S
C291 C296 1.342 . S
C292 C293 1.310 . S
C292 C295 1.461 . S
C292 H312 0.932 . S
C293 C291 1.408 . S
C293 C292 1.310 . S
C293 H313 0.930 . S
C294 C295 1.474 . S
C294 C296 1.285 . S
C294 H314 0.929 . S
C295 C292 1.461 . S
C295 C294 1.474 . S
C296 C291 1.342 . S
C296 C294 1.285 . S
C296 H315 0.930 . S
C297 C300 1.424 . S
C297 C302 1.245 . S
C297 C303 1.428 . S
C298 C301 1.260 . S
C298 C302 1.477 . S
C298 H316 0.932 . S
C299 C300 1.384 . S
C299 C301 1.479 . S
C299 H317 0.929 . S
C300 C297 1.424 . S
C300 C299 1.384 . S
C300 H318 0.928 . S
C301 C298 1.260 . S
C301 C299 1.479 . S
C302 C297 1.245 . S
C302 C298 1.477 . S
C302 H319 0.932 . S
C303 U286 2.882 . S
C303 C297 1.428 . S
C303 O306 1.301 . S
C303 O307 1.282 . S
O304 U286 2.441 . S
O304 C290 1.249 . S
O305 U286 2.420 . S
O305 C290 1.202 . S
O306 U286 2.455 . S
O306 C303 1.301 . S
O307 U286 2.449 . S
O307 C303 1.282 . S
H308 C281 0.931 . S
H309 C283 0.929 . S
H310 C284 0.930 . S
H311 C285 0.931 . S
H312 C292 0.932 . S
H313 C293 0.930 . S
H314 C294 0.929 . S
H315 C296 0.930 . S
H316 C298 0.932 . S
H317 C299 0.929 . S
H318 C300 0.928 . S
H319 C302 0.932 . S
C320 C321 1.264 . S
C320 C325 1.479 . S
C320 C330 1.465 . S
C321 C320 1.264 . S
C321 C323 1.339 . S
C321 H348 0.931 . S
C322 C323 1.395 . S
C322 C324 1.320 . S
C323 C321 1.339 . S
C323 C322 1.395 . S
C323 H349 0.929 . S
C324 C322 1.320 . S
C324 C325 1.405 . S
C324 H350 0.930 . S
C325 C320 1.479 . S
C325 C324 1.405 . S
C325 H351 0.931 . S
U326 O327 2.454 . S
U326 O328 2.458 . S
U326 C329 2.984 . S
U326 C330 2.847 . S
U326 C343 2.882 . S
U326 O344 2.441 . S
U326 O345 2.420 . S
U326 O346 2.455 . S
U326 O347 2.449 . S
O327 U326 2.454 . S
O327 C329 1.353 . S
O328 U326 2.458 . S
O328 C329 1.286 . S
C329 U326 2.984 . S
C329 O327 1.353 . S
C329 O328 1.286 . S
C329 C331 1.363 . S
C330 C320 1.465 . S
C330 U326 2.847 . S
C330 O344 1.249 . S
C330 O345 1.202 . S
C331 C329 1.363 . S
C331 C333 1.408 . S
C331 C336 1.342 . S
C332 C333 1.310 . S
C332 C335 1.461 . S
C332 H352 0.932 . S
C333 C331 1.408 . S
C333 C332 1.310 . S
C333 H353 0.930 . S
C334 C335 1.474 . S
C334 C336 1.285 . S
C334 H354 0.929 . S
C335 C332 1.461 . S
C335 C334 1.474 . S
C336 C331 1.342 . S
C336 C334 1.285 . S
C336 H355 0.930 . S
C337 C340 1.424 . S
C337 C342 1.245 . S
C337 C343 1.428 . S
C338 C341 1.260 . S
C338 C342 1.477 . S
C338 H356 0.932 . S
C339 C340 1.384 . S
C339 C341 1.479 . S
C339 H357 0.929 . S
C340 C337 1.424 . S
C340 C339 1.384 . S
C340 H358 0.928 . S
C341 C338 1.260 . S
C341 C339 1.479 . S
C342 C337 1.245 . S
C342 C338 1.477 . S
C342 H359 0.932 . S
C343 U326 2.882 . S
C343 C337 1.428 . S
C343 O346 1.301 . S
C343 O347 1.282 . S
O344 U326 2.441 . S
O344 C330 1.249 . S
O345 U326 2.420 . S
O345 C330 1.202 . S
O346 U326 2.455 . S
O346 C343 1.301 . S
O347 U326 2.449 . S
O347 C343 1.282 . S
H348 C321 0.931 . S
H349 C323 0.929 . S
H350 C324 0.930 . S
H351 C325 0.931 . S
H352 C332 0.932 . S
H353 C333 0.930 . S
H354 C334 0.929 . S
H355 C336 0.930 . S
H356 C338 0.932 . S
H357 C339 0.929 . S
H358 C340 0.928 . S
H359 C342 0.932 . S
C360 C361 1.264 . S
C360 C365 1.479 . S
C360 C370 1.465 . S
C361 C360 1.264 . S
C361 C363 1.339 . S
C361 H388 0.931 . S
C362 C363 1.395 . S
C362 C364 1.320 . S
C363 C361 1.339 . S
C363 C362 1.395 . S
C363 H389 0.929 . S
C364 C362 1.320 . S
C364 C365 1.405 . S
C364 H390 0.930 . S
C365 C360 1.479 . S
C365 C364 1.405 . S
C365 H391 0.931 . S
U366 O367 2.454 . S
U366 O368 2.458 . S
U366 C369 2.984 . S
U366 C370 2.847 . S
U366 C383 2.882 . S
U366 O384 2.441 . S
U366 O385 2.420 . S
U366 O386 2.455 . S
U366 O387 2.449 . S
O367 U366 2.454 . S
O367 C369 1.353 . S
O368 U366 2.458 . S
O368 C369 1.286 . S
C369 U366 2.984 . S
C369 O367 1.353 . S
C369 O368 1.286 . S
C369 C371 1.363 . S
C370 C360 1.465 . S
C370 U366 2.847 . S
C370 O384 1.249 . S
C370 O385 1.202 . S
C371 C369 1.363 . S
C371 C373 1.408 . S
C371 C376 1.342 . S
C372 C373 1.310 . S
C372 C375 1.461 . S
C372 H392 0.932 . S
C373 C371 1.408 . S
C373 C372 1.310 . S
C373 H393 0.930 . S
C374 C375 1.474 . S
C374 C376 1.285 . S
C374 H394 0.929 . S
C375 C372 1.461 . S
C375 C374 1.474 . S
C376 C371 1.342 . S
C376 C374 1.285 . S
C376 H395 0.930 . S
C377 C380 1.424 . S
C377 C382 1.245 . S
C377 C383 1.428 . S
C378 C381 1.260 . S
C378 C382 1.477 . S
C378 H396 0.932 . S
C379 C380 1.384 . S
C379 C381 1.479 . S
C379 H397 0.929 . S
C380 C377 1.424 . S
C380 C379 1.384 . S
C380 H398 0.928 . S
C381 C378 1.260 . S
C381 C379 1.479 . S
C382 C377 1.245 . S
C382 C378 1.477 . S
C382 H399 0.932 . S
C383 U366 2.882 . S
C383 C377 1.428 . S
C383 O386 1.301 . S
C383 O387 1.282 . S
O384 U366 2.441 . S
O384 C370 1.249 . S
O385 U366 2.420 . S
O385 C370 1.202 . S
O386 U366 2.455 . S
O386 C383 1.301 . S
O387 U366 2.449 . S
O387 C383 1.282 . S
H388 C361 0.931 . S
H389 C363 0.929 . S
H390 C364 0.930 . S
H391 C365 0.931 . S
H392 C372 0.932 . S
H393 C373 0.930 . S
H394 C374 0.929 . S
H395 C376 0.930 . S
H396 C378 0.932 . S
H397 C379 0.929 . S
H398 C380 0.928 . S
H399 C382 0.932 . S
C400 C401 1.264 . S
C400 C405 1.479 . S
C400 C410 1.465 . S
C401 C400 1.264 . S
C401 C403 1.339 . S
C401 H428 0.931 . S
C402 C403 1.395 . S
C402 C404 1.320 . S
C403 C401 1.339 . S
C403 C402 1.395 . S
C403 H429 0.929 . S
C404 C402 1.320 . S
C404 C405 1.405 . S
C404 H430 0.930 . S
C405 C400 1.479 . S
C405 C404 1.405 . S
C405 H431 0.931 . S
U406 O407 2.454 . S
U406 O408 2.458 . S
U406 C409 2.984 . S
U406 C410 2.847 . S
U406 C423 2.882 . S
U406 O424 2.441 . S
U406 O425 2.420 . S
U406 O426 2.455 . S
U406 O427 2.449 . S
O407 U406 2.454 . S
O407 C409 1.353 . S
O408 U406 2.458 . S
O408 C409 1.286 . S
C409 U406 2.984 . S
C409 O407 1.353 . S
C409 O408 1.286 . S
C409 C411 1.363 . S
C410 C400 1.465 . S
C410 U406 2.847 . S
C410 O424 1.249 . S
C410 O425 1.202 . S
C411 C409 1.363 . S
C411 C413 1.408 . S
C411 C416 1.342 . S
C412 C413 1.310 . S
C412 C415 1.461 . S
C412 H432 0.932 . S
C413 C411 1.408 . S
C413 C412 1.310 . S
C413 H433 0.930 . S
C414 C415 1.474 . S
C414 C416 1.285 . S
C414 H434 0.929 . S
C415 C412 1.461 . S
C415 C414 1.474 . S
C416 C411 1.342 . S
C416 C414 1.285 . S
C416 H435 0.930 . S
C417 C420 1.424 . S
C417 C422 1.245 . S
C417 C423 1.428 . S
C418 C421 1.260 . S
C418 C422 1.477 . S
C418 H436 0.932 . S
C419 C420 1.384 . S
C419 C421 1.479 . S
C419 H437 0.929 . S
C420 C417 1.424 . S
C420 C419 1.384 . S
C420 H438 0.928 . S
C421 C418 1.260 . S
C421 C419 1.479 . S
C422 C417 1.245 . S
C422 C418 1.477 . S
C422 H439 0.932 . S
C423 U406 2.882 . S
C423 C417 1.428 . S
C423 O426 1.301 . S
C423 O427 1.282 . S
O424 U406 2.441 . S
O424 C410 1.249 . S
O425 U406 2.420 . S
O425 C410 1.202 . S
O426 U406 2.455 . S
O426 C423 1.301 . S
O427 U406 2.449 . S
O427 C423 1.282 . S
H428 C401 0.931 . S
H429 C403 0.929 . S
H430 C404 0.930 . S
H431 C405 0.931 . S
H432 C412 0.932 . S
H433 C413 0.930 . S
H434 C414 0.929 . S
H435 C416 0.930 . S
H436 C418 0.932 . S
H437 C419 0.929 . S
H438 C420 0.928 . S
H439 C422 0.932 . S
C440 C441 1.264 . S
C440 C445 1.479 . S
C440 C450 1.465 . S
C441 C440 1.264 . S
C441 C443 1.339 . S
C441 H468 0.931 . S
C442 C443 1.395 . S
C442 C444 1.320 . S
C443 C441 1.339 . S
C443 C442 1.395 . S
C443 H469 0.929 . S
C444 C442 1.320 . S
C444 C445 1.405 . S
C444 H470 0.930 . S
C445 C440 1.479 . S
C445 C444 1.405 . S
C445 H471 0.931 . S
U446 O447 2.454 . S
U446 O448 2.458 . S
U446 C449 2.984 . S
U446 C450 2.847 . S
U446 C463 2.882 . S
U446 O464 2.441 . S
U446 O465 2.420 . S
U446 O466 2.455 . S
U446 O467 2.449 . S
O447 U446 2.454 . S
O447 C449 1.353 . S
O448 U446 2.458 . S
O448 C449 1.286 . S
C449 U446 2.984 . S
C449 O447 1.353 . S
C449 O448 1.286 . S
C449 C451 1.363 . S
C450 C440 1.465 . S
C450 U446 2.847 . S
C450 O464 1.249 . S
C450 O465 1.202 . S
C451 C449 1.363 . S
C451 C453 1.408 . S
C451 C456 1.342 . S
C452 C453 1.310 . S
C452 C455 1.461 . S
C452 H472 0.932 . S
C453 C451 1.408 . S
C453 C452 1.310 . S
C453 H473 0.930 . S
C454 C455 1.474 . S
C454 C456 1.285 . S
C454 H474 0.929 . S
C455 C452 1.461 . S
C455 C454 1.474 . S
C456 C451 1.342 . S
C456 C454 1.285 . S
C456 H475 0.930 . S
C457 C460 1.424 . S
C457 C462 1.245 . S
C457 C463 1.428 . S
C458 C461 1.260 . S
C458 C462 1.477 . S
C458 H476 0.932 . S
C459 C460 1.384 . S
C459 C461 1.479 . S
C459 H477 0.929 . S
C460 C457 1.424 . S
C460 C459 1.384 . S
C460 H478 0.928 . S
C461 C458 1.260 . S
C461 C459 1.479 . S
C462 C457 1.245 . S
C462 C458 1.477 . S
C462 H479 0.932 . S
C463 U446 2.882 . S
C463 C457 1.428 . S
C463 O466 1.301 . S
C463 O467 1.282 . S
O464 U446 2.441 . S
O464 C450 1.249 . S
O465 U446 2.420 . S
O465 C450 1.202 . S
O466 U446 2.455 . S
O466 C463 1.301 . S
O467 U446 2.449 . S
O467 C463 1.282 . S
H468 C441 0.931 . S
H469 C443 0.929 . S
H470 C444 0.930 . S
H471 C445 0.931 . S
H472 C452 0.932 . S
H473 C453 0.930 . S
H474 C454 0.929 . S
H475 C456 0.930 . S
H476 C458 0.932 . S
H477 C459 0.929 . S
H478 C460 0.928 . S
H479 C462 0.932 . S
C480 C481 1.264 . S
C480 C485 1.479 . S
C480 C490 1.465 . S
C481 C480 1.264 . S
C481 C483 1.339 . S
C481 H508 0.931 . S
C482 C483 1.395 . S
C482 C484 1.320 . S
C483 C481 1.339 . S
C483 C482 1.395 . S
C483 H509 0.929 . S
C484 C482 1.320 . S
C484 C485 1.405 . S
C484 H510 0.930 . S
C485 C480 1.479 . S
C485 C484 1.405 . S
C485 H511 0.931 . S
U486 O487 2.454 . S
U486 O488 2.458 . S
U486 C489 2.984 . S
U486 C490 2.847 . S
U486 C503 2.882 . S
U486 O504 2.441 . S
U486 O505 2.420 . S
U486 O506 2.455 . S
U486 O507 2.449 . S
O487 U486 2.454 . S
O487 C489 1.353 . S
O488 U486 2.458 . S
O488 C489 1.286 . S
C489 U486 2.984 . S
C489 O487 1.353 . S
C489 O488 1.286 . S
C489 C491 1.363 . S
C490 C480 1.465 . S
C490 U486 2.847 . S
C490 O504 1.249 . S
C490 O505 1.202 . S
C491 C489 1.363 . S
C491 C493 1.408 . S
C491 C496 1.342 . S
C492 C493 1.310 . S
C492 C495 1.461 . S
C492 H512 0.932 . S
C493 C491 1.408 . S
C493 C492 1.310 . S
C493 H513 0.930 . S
C494 C495 1.474 . S
C494 C496 1.285 . S
C494 H514 0.929 . S
C495 C492 1.461 . S
C495 C494 1.474 . S
C496 C491 1.342 . S
C496 C494 1.285 . S
C496 H515 0.930 . S
C497 C500 1.424 . S
C497 C502 1.245 . S
C497 C503 1.428 . S
C498 C501 1.260 . S
C498 C502 1.477 . S
C498 H516 0.932 . S
C499 C500 1.384 . S
C499 C501 1.479 . S
C499 H517 0.929 . S
C500 C497 1.424 . S
C500 C499 1.384 . S
C500 H518 0.928 . S
C501 C498 1.260 . S
C501 C499 1.479 . S
C502 C497 1.245 . S
C502 C498 1.477 . S
C502 H519 0.932 . S
C503 U486 2.882 . S
C503 C497 1.428 . S
C503 O506 1.301 . S
C503 O507 1.282 . S
O504 U486 2.441 . S
O504 C490 1.249 . S
O505 U486 2.420 . S
O505 C490 1.202 . S
O506 U486 2.455 . S
O506 C503 1.301 . S
O507 U486 2.449 . S
O507 C503 1.282 . S
H508 C481 0.931 . S
H509 C483 0.929 . S
H510 C484 0.930 . S
H511 C485 0.931 . S
H512 C492 0.932 . S
H513 C493 0.930 . S
H514 C494 0.929 . S
H515 C496 0.930 . S
H516 C498 0.932 . S
H517 C499 0.929 . S
H518 C500 0.928 . S
H519 C502 0.932 . S
C520 C521 1.264 . S
C520 C525 1.479 . S
C520 C530 1.465 . S
C521 C520 1.264 . S
C521 C523 1.339 . S
C521 H548 0.931 . S
C522 C523 1.395 . S
C522 C524 1.320 . S
C523 C521 1.339 . S
C523 C522 1.395 . S
C523 H549 0.929 . S
C524 C522 1.320 . S
C524 C525 1.405 . S
C524 H550 0.930 . S
C525 C520 1.479 . S
C525 C524 1.405 . S
C525 H551 0.931 . S
U526 O527 2.454 . S
U526 O528 2.458 . S
U526 C529 2.984 . S
U526 C530 2.847 . S
U526 C543 2.882 . S
U526 O544 2.441 . S
U526 O545 2.420 . S
U526 O546 2.455 . S
U526 O547 2.449 . S
O527 U526 2.454 . S
O527 C529 1.353 . S
O528 U526 2.458 . S
O528 C529 1.286 . S
C529 U526 2.984 . S
C529 O527 1.353 . S
C529 O528 1.286 . S
C529 C531 1.363 . S
C530 C520 1.465 . S
C530 U526 2.847 . S
C530 O544 1.249 . S
C530 O545 1.202 . S
C531 C529 1.363 . S
C531 C533 1.408 . S
C531 C536 1.342 . S
C532 C533 1.310 . S
C532 C535 1.461 . S
C532 H552 0.932 . S
C533 C531 1.408 . S
C533 C532 1.310 . S
C533 H553 0.930 . S
C534 C535 1.474 . S
C534 C536 1.285 . S
C534 H554 0.929 . S
C535 C532 1.461 . S
C535 C534 1.474 . S
C536 C531 1.342 . S
C536 C534 1.285 . S
C536 H555 0.930 . S
C537 C540 1.424 . S
C537 C542 1.245 . S
C537 C543 1.428 . S
C538 C541 1.260 . S
C538 C542 1.477 . S
C538 H556 0.932 . S
C539 C540 1.384 . S
C539 C541 1.479 . S
C539 H557 0.929 . S
C540 C537 1.424 . S
C540 C539 1.384 . S
C540 H558 0.928 . S
C541 C538 1.260 . S
C541 C539 1.479 . S
C542 C537 1.245 . S
C542 C538 1.477 . S
C542 H559 0.932 . S
C543 U526 2.882 . S
C543 C537 1.428 . S
C543 O546 1.301 . S
C543 O547 1.282 . S
O544 U526 2.441 . S
O544 C530 1.249 . S
O545 U526 2.420 . S
O545 C530 1.202 . S
O546 U526 2.455 . S
O546 C543 1.301 . S
O547 U526 2.449 . S
O547 C543 1.282 . S
H548 C521 0.931 . S
H549 C523 0.929 . S
H550 C524 0.930 . S
H551 C525 0.931 . S
H552 C532 0.932 . S
H553 C533 0.930 . S
H554 C534 0.929 . S
H555 C536 0.930 . S
H556 C538 0.932 . S
H557 C539 0.929 . S
H558 C540 0.928 . S
H559 C542 0.932 . S
C560 C561 1.264 . S
C560 C565 1.479 . S
C560 C570 1.465 . S
C561 C560 1.264 . S
C561 C563 1.339 . S
C561 H588 0.931 . S
C562 C563 1.395 . S
C562 C564 1.320 . S
C563 C561 1.339 . S
C563 C562 1.395 . S
C563 H589 0.929 . S
C564 C562 1.320 . S
C564 C565 1.405 . S
C564 H590 0.930 . S
C565 C560 1.479 . S
C565 C564 1.405 . S
C565 H591 0.931 . S
U566 O567 2.454 . S
U566 O568 2.458 . S
U566 C569 2.984 . S
U566 C570 2.847 . S
U566 C583 2.882 . S
U566 O584 2.441 . S
U566 O585 2.420 . S
U566 O586 2.455 . S
U566 O587 2.449 . S
O567 U566 2.454 . S
O567 C569 1.353 . S
O568 U566 2.458 . S
O568 C569 1.286 . S
C569 U566 2.984 . S
C569 O567 1.353 . S
C569 O568 1.286 . S
C569 C571 1.363 . S
C570 C560 1.465 . S
C570 U566 2.847 . S
C570 O584 1.249 . S
C570 O585 1.202 . S
C571 C569 1.363 . S
C571 C573 1.408 . S
C571 C576 1.342 . S
C572 C573 1.310 . S
C572 C575 1.461 . S
C572 H592 0.932 . S
C573 C571 1.408 . S
C573 C572 1.310 . S
C573 H593 0.930 . S
C574 C575 1.474 . S
C574 C576 1.285 . S
C574 H594 0.929 . S
C575 C572 1.461 . S
C575 C574 1.474 . S
C576 C571 1.342 . S
C576 C574 1.285 . S
C576 H595 0.930 . S
C577 C580 1.424 . S
C577 C582 1.245 . S
C577 C583 1.428 . S
C578 C581 1.260 . S
C578 C582 1.477 . S
C578 H596 0.932 . S
C579 C580 1.384 . S
C579 C581 1.479 . S
C579 H597 0.929 . S
C580 C577 1.424 . S
C580 C579 1.384 . S
C580 H598 0.928 . S
C581 C578 1.260 . S
C581 C579 1.479 . S
C582 C577 1.245 . S
C582 C578 1.477 . S
C582 H599 0.932 . S
C583 U566 2.882 . S
C583 C577 1.428 . S
C583 O586 1.301 . S
C583 O587 1.282 . S
O584 U566 2.441 . S
O584 C570 1.249 . S
O585 U566 2.420 . S
O585 C570 1.202 . S
O586 U566 2.455 . S
O586 C583 1.301 . S
O587 U566 2.449 . S
O587 C583 1.282 . S
H588 C561 0.931 . S
H589 C563 0.929 . S
H590 C564 0.930 . S
H591 C565 0.931 . S
H592 C572 0.932 . S
H593 C573 0.930 . S
H594 C574 0.929 . S
H595 C576 0.930 . S
H596 C578 0.932 . S
H597 C579 0.929 . S
H598 C580 0.928 . S
H599 C582 0.932 . S
C600 C601 1.264 . S
C600 C605 1.479 . S
C600 C610 1.465 . S
C601 C600 1.264 . S
C601 C603 1.339 . S
C601 H628 0.931 . S
C602 C603 1.395 . S
C602 C604 1.320 . S
C603 C601 1.339 . S
C603 C602 1.395 . S
C603 H629 0.929 . S
C604 C602 1.320 . S
C604 C605 1.405 . S
C604 H630 0.930 . S
C605 C600 1.479 . S
C605 C604 1.405 . S
C605 H631 0.931 . S
U606 O607 2.454 . S
U606 O608 2.458 . S
U606 C609 2.984 . S
U606 C610 2.847 . S
U606 C623 2.882 . S
U606 O624 2.441 . S
U606 O625 2.420 . S
U606 O626 2.455 . S
U606 O627 2.449 . S
O607 U606 2.454 . S
O607 C609 1.353 . S
O608 U606 2.458 . S
O608 C609 1.286 . S
C609 U606 2.984 . S
C609 O607 1.353 . S
C609 O608 1.286 . S
C609 C611 1.363 . S
C610 C600 1.465 . S
C610 U606 2.847 . S
C610 O624 1.249 . S
C610 O625 1.202 . S
C611 C609 1.363 . S
C611 C613 1.408 . S
C611 C616 1.342 . S
C612 C613 1.310 . S
C612 C615 1.461 . S
C612 H632 0.932 . S
C613 C611 1.408 . S
C613 C612 1.310 . S
C613 H633 0.930 . S
C614 C615 1.474 . S
C614 C616 1.285 . S
C614 H634 0.929 . S
C615 C612 1.461 . S
C615 C614 1.474 . S
C616 C611 1.342 . S
C616 C614 1.285 . S
C616 H635 0.930 . S
C617 C620 1.424 . S
C617 C622 1.245 . S
C617 C623 1.428 . S
C618 C621 1.260 . S
C618 C622 1.477 . S
C618 H636 0.932 . S
C619 C620 1.384 . S
C619 C621 1.479 . S
C619 H637 0.929 . S
C620 C617 1.424 . S
C620 C619 1.384 . S
C620 H638 0.928 . S
C621 C618 1.260 . S
C621 C619 1.479 . S
C622 C617 1.245 . S
C622 C618 1.477 . S
C622 H639 0.932 . S
C623 U606 2.882 . S
C623 C617 1.428 . S
C623 O626 1.301 . S
C623 O627 1.282 . S
O624 U606 2.441 . S
O624 C610 1.249 . S
O625 U606 2.420 . S
O625 C610 1.202 . S
O626 U606 2.455 . S
O626 C623 1.301 . S
O627 U606 2.449 . S
O627 C623 1.282 . S
H628 C601 0.931 . S
H629 C603 0.929 . S
H630 C604 0.930 . S
H631 C605 0.931 . S
H632 C612 0.932 . S
H633 C613 0.930 . S
H634 C614 0.929 . S
H635 C616 0.930 . S
H636 C618 0.932 . S
H637 C619 0.929 . S
H638 C620 0.928 . S
H639 C622 0.932 . S
C640 C641 1.264 . S
C640 C645 1.479 . S
C640 C650 1.465 . S
C641 C640 1.264 . S
C641 C643 1.339 . S
C641 H668 0.931 . S
C642 C643 1.395 . S
C642 C644 1.320 . S
C643 C641 1.339 . S
C643 C642 1.395 . S
C643 H669 0.929 . S
C644 C642 1.320 . S
C644 C645 1.405 . S
C644 H670 0.930 . S
C645 C640 1.479 . S
C645 C644 1.405 . S
C645 H671 0.931 . S
U646 O647 2.454 . S
U646 O648 2.458 . S
U646 C649 2.984 . S
U646 C650 2.847 . S
U646 C663 2.882 . S
U646 O664 2.441 . S
U646 O665 2.420 . S
U646 O666 2.455 . S
U646 O667 2.449 . S
O647 U646 2.454 . S
O647 C649 1.353 . S
O648 U646 2.458 . S
O648 C649 1.286 . S
C649 U646 2.984 . S
C649 O647 1.353 . S
C649 O648 1.286 . S
C649 C651 1.363 . S
C650 C640 1.465 . S
C650 U646 2.847 . S
C650 O664 1.249 . S
C650 O665 1.202 . S
C651 C649 1.363 . S
C651 C653 1.408 . S
C651 C656 1.342 . S
C652 C653 1.310 . S
C652 C655 1.461 . S
C652 H672 0.932 . S
C653 C651 1.408 . S
C653 C652 1.310 . S
C653 H673 0.930 . S
C654 C655 1.474 . S
C654 C656 1.285 . S
C654 H674 0.929 . S
C655 C652 1.461 . S
C655 C654 1.474 . S
C656 C651 1.342 . S
C656 C654 1.285 . S
C656 H675 0.930 . S
C657 C660 1.424 . S
C657 C662 1.245 . S
C657 C663 1.428 . S
C658 C661 1.260 . S
C658 C662 1.477 . S
C658 H676 0.932 . S
C659 C660 1.384 . S
C659 C661 1.479 . S
C659 H677 0.929 . S
C660 C657 1.424 . S
C660 C659 1.384 . S
C660 H678 0.928 . S
C661 C658 1.260 . S
C661 C659 1.479 . S
C662 C657 1.245 . S
C662 C658 1.477 . S
C662 H679 0.932 . S
C663 U646 2.882 . S
C663 C657 1.428 . S
C663 O666 1.301 . S
C663 O667 1.282 . S
O664 U646 2.441 . S
O664 C650 1.249 . S
O665 U646 2.420 . S
O665 C650 1.202 . S
O666 U646 2.455 . S
O666 C663 1.301 . S
O667 U646 2.449 . S
O667 C663 1.282 . S
H668 C641 0.931 . S
H669 C643 0.929 . S
H670 C644 0.930 . S
H671 C645 0.931 . S
H672 C652 0.932 . S
H673 C653 0.930 . S
H674 C654 0.929 . S
H675 C656 0.930 . S
H676 C658 0.932 . S
H677 C659 0.929 . S
H678 C660 0.928 . S
H679 C662 0.932 . S
C680 C681 1.264 . S
C680 C685 1.479 . S
C680 C690 1.465 . S
C681 C680 1.264 . S
C681 C683 1.339 . S
C681 H708 0.931 . S
C682 C683 1.395 . S
C682 C684 1.320 . S
C683 C681 1.339 . S
C683 C682 1.395 . S
C683 H709 0.929 . S
C684 C682 1.320 . S
C684 C685 1.405 . S
C684 H710 0.930 . S
C685 C680 1.479 . S
C685 C684 1.405 . S
C685 H711 0.931 . S
U686 O687 2.454 . S
U686 O688 2.458 . S
U686 C689 2.984 . S
U686 C690 2.847 . S
U686 C703 2.882 . S
U686 O704 2.441 . S
U686 O705 2.420 . S
U686 O706 2.455 . S
U686 O707 2.449 . S
O687 U686 2.454 . S
O687 C689 1.353 . S
O688 U686 2.458 . S
O688 C689 1.286 . S
C689 U686 2.984 . S
C689 O687 1.353 . S
C689 O688 1.286 . S
C689 C691 1.363 . S
C690 C680 1.465 . S
C690 U686 2.847 . S
C690 O704 1.249 . S
C690 O705 1.202 . S
C691 C689 1.363 . S
C691 C693 1.408 . S
C691 C696 1.342 . S
C692 C693 1.310 . S
C692 C695 1.461 . S
C692 H712 0.932 . S
C693 C691 1.408 . S
C693 C692 1.310 . S
C693 H713 0.930 . S
C694 C695 1.474 . S
C694 C696 1.285 . S
C694 H714 0.929 . S
C695 C692 1.461 . S
C695 C694 1.474 . S
C696 C691 1.342 . S
C696 C694 1.285 . S
C696 H715 0.930 . S
C697 C700 1.424 . S
C697 C702 1.245 . S
C697 C703 1.428 . S
C698 C701 1.260 . S
C698 C702 1.477 . S
C698 H716 0.932 . S
C699 C700 1.384 . S
C699 C701 1.479 . S
C699 H717 0.929 . S
C700 C697 1.424 . S
C700 C699 1.384 . S
C700 H718 0.928 . S
C701 C698 1.260 . S
C701 C699 1.479 . S
C702 C697 1.245 . S
C702 C698 1.477 . S
C702 H719 0.932 . S
C703 U686 2.882 . S
C703 C697 1.428 . S
C703 O706 1.301 . S
C703 O707 1.282 . S
O704 U686 2.441 . S
O704 C690 1.249 . S
O705 U686 2.420 . S
O705 C690 1.202 . S
O706 U686 2.455 . S
O706 C703 1.301 . S
O707 U686 2.449 . S
O707 C703 1.282 . S
H708 C681 0.931 . S
H709 C683 0.929 . S
H710 C684 0.930 . S
H711 C685 0.931 . S
H712 C692 0.932 . S
H713 C693 0.930 . S
H714 C694 0.929 . S
H715 C696 0.930 . S
H716 C698 0.932 . S
H717 C699 0.929 . S
H718 C700 0.928 . S
H719 C702 0.932 . S
C720 C721 1.264 . S
C720 C725 1.479 . S
C720 C730 1.465 . S
C721 C720 1.264 . S
C721 C723 1.339 . S
C721 H748 0.931 . S
C722 C723 1.395 . S
C722 C724 1.320 . S
C723 C721 1.339 . S
C723 C722 1.395 . S
C723 H749 0.929 . S
C724 C722 1.320 . S
C724 C725 1.405 . S
C724 H750 0.930 . S
C725 C720 1.479 . S
C725 C724 1.405 . S
C725 H751 0.931 . S
U726 O727 2.454 . S
U726 O728 2.458 . S
U726 C729 2.984 . S
U726 C730 2.847 . S
U726 C743 2.882 . S
U726 O744 2.441 . S
U726 O745 2.420 . S
U726 O746 2.455 . S
U726 O747 2.449 . S
O727 U726 2.454 . S
O727 C729 1.353 . S
O728 U726 2.458 . S
O728 C729 1.286 . S
C729 U726 2.984 . S
C729 O727 1.353 . S
C729 O728 1.286 . S
C729 C731 1.363 . S
C730 C720 1.465 . S
C730 U726 2.847 . S
C730 O744 1.249 . S
C730 O745 1.202 . S
C731 C729 1.363 . S
C731 C733 1.408 . S
C731 C736 1.342 . S
C732 C733 1.310 . S
C732 C735 1.461 . S
C732 H752 0.932 . S
C733 C731 1.408 . S
C733 C732 1.310 . S
C733 H753 0.930 . S
C734 C735 1.474 . S
C734 C736 1.285 . S
C734 H754 0.929 . S
C735 C732 1.461 . S
C735 C734 1.474 . S
C736 C731 1.342 . S
C736 C734 1.285 . S
C736 H755 0.930 . S
C737 C740 1.424 . S
C737 C742 1.245 . S
C737 C743 1.428 . S
C738 C741 1.260 . S
C738 C742 1.477 . S
C738 H756 0.932 . S
C739 C740 1.384 . S
C739 C741 1.479 . S
C739 H757 0.929 . S
C740 C737 1.424 . S
C740 C739 1.384 . S
C740 H758 0.928 . S
C741 C738 1.260 . S
C741 C739 1.479 . S
C742 C737 1.245 . S
C742 C738 1.477 . S
C742 H759 0.932 . S
C743 U726 2.882 . S
C743 C737 1.428 . S
C743 O746 1.301 . S
C743 O747 1.282 . S
O744 U726 2.441 . S
O744 C730 1.249 . S
O745 U726 2.420 . S
O745 C730 1.202 . S
O746 U726 2.455 . S
O746 C743 1.301 . S
O747 U726 2.449 . S
O747 C743 1.282 . S
H748 C721 0.931 . S
H749 C723 0.929 . S
H750 C724 0.930 . S
H751 C725 0.931 . S
H752 C732 0.932 . S
H753 C733 0.930 . S
H754 C734 0.929 . S
H755 C736 0.930 . S
H756 C738 0.932 . S
H757 C739 0.929 . S
H758 C740 0.928 . S
H759 C742 0.932 . S
C760 C761 1.264 . S
C760 C765 1.479 . S
C760 C770 1.465 . S
C761 C760 1.264 . S
C761 C763 1.339 . S
C761 H788 0.931 . S
C762 C763 1.395 . S
C762 C764 1.320 . S
C763 C761 1.339 . S
C763 C762 1.395 . S
C763 H789 0.929 . S
C764 C762 1.320 . S
C764 C765 1.405 . S
C764 H790 0.930 . S
C765 C760 1.479 . S
C765 C764 1.405 . S
C765 H791 0.931 . S
U766 O767 2.454 . S
U766 O768 2.458 . S
U766 C769 2.984 . S
U766 C770 2.847 . S
U766 C783 2.882 . S
U766 O784 2.441 . S
U766 O785 2.420 . S
U766 O786 2.455 . S
U766 O787 2.449 . S
O767 U766 2.454 . S
O767 C769 1.353 . S
O768 U766 2.458 . S
O768 C769 1.286 . S
C769 U766 2.984 . S
C769 O767 1.353 . S
C769 O768 1.286 . S
C769 C771 1.363 . S
C770 C760 1.465 . S
C770 U766 2.847 . S
C770 O784 1.249 . S
C770 O785 1.202 . S
C771 C769 1.363 . S
C771 C773 1.408 . S
C771 C776 1.342 . S
C772 C773 1.310 . S
C772 C775 1.461 . S
C772 H792 0.932 . S
C773 C771 1.408 . S
C773 C772 1.310 . S
C773 H793 0.930 . S
C774 C775 1.474 . S
C774 C776 1.285 . S
C774 H794 0.929 . S
C775 C772 1.461 . S
C775 C774 1.474 . S
C776 C771 1.342 . S
C776 C774 1.285 . S
C776 H795 0.930 . S
C777 C780 1.424 . S
C777 C782 1.245 . S
C777 C783 1.428 . S
C778 C781 1.260 . S
C778 C782 1.477 . S
C778 H796 0.932 . S
C779 C780 1.384 . S
C779 C781 1.479 . S
C779 H797 0.929 . S
C780 C777 1.424 . S
C780 C779 1.384 . S
C780 H798 0.928 . S
C781 C778 1.260 . S
C781 C779 1.479 . S
C782 C777 1.245 . S
C782 C778 1.477 . S
C782 H799 0.932 . S
C783 U766 2.882 . S
C783 C777 1.428 . S
C783 O786 1.301 . S
C783 O787 1.282 . S
O784 U766 2.441 . S
O784 C770 1.249 . S
O785 U766 2.420 . S
O785 C770 1.202 . S
O786 U766 2.455 . S
O786 C783 1.301 . S
O787 U766 2.449 . S
O787 C783 1.282 . S
H788 C761 0.931 . S
H789 C763 0.929 . S
H790 C764 0.930 . S
H791 C765 0.931 . S
H792 C772 0.932 . S
H793 C773 0.930 . S
H794 C774 0.929 . S
H795 C776 0.930 . S
H796 C778 0.932 . S
H797 C779 0.929 . S
H798 C780 0.928 . S
H799 C782 0.932 . S
C800 C801 1.264 . S
C800 C805 1.479 . S
C800 C810 1.465 . S
C801 C800 1.264 . S
C801 C803 1.339 . S
C801 H828 0.931 . S
C802 C803 1.395 . S
C802 C804 1.320 . S
C803 C801 1.339 . S
C803 C802 1.395 . S
C803 H829 0.929 . S
C804 C802 1.320 . S
C804 C805 1.405 . S
C804 H830 0.930 . S
C805 C800 1.479 . S
C805 C804 1.405 . S
C805 H831 0.931 . S
U806 O807 2.454 . S
U806 O808 2.458 . S
U806 C809 2.984 . S
U806 C810 2.847 . S
U806 C823 2.882 . S
U806 O824 2.441 . S
U806 O825 2.420 . S
U806 O826 2.455 . S
U806 O827 2.449 . S
O807 U806 2.454 . S
O807 C809 1.353 . S
O808 U806 2.458 . S
O808 C809 1.286 . S
C809 U806 2.984 . S
C809 O807 1.353 . S
C809 O808 1.286 . S
C809 C811 1.363 . S
C810 C800 1.465 . S
C810 U806 2.847 . S
C810 O824 1.249 . S
C810 O825 1.202 . S
C811 C809 1.363 . S
C811 C813 1.408 . S
C811 C816 1.342 . S
C812 C813 1.310 . S
C812 C815 1.461 . S
C812 H832 0.932 . S
C813 C811 1.408 . S
C813 C812 1.310 . S
C813 H833 0.930 . S
C814 C815 1.474 . S
C814 C816 1.285 . S
C814 H834 0.929 . S
C815 C812 1.461 . S
C815 C814 1.474 . S
C816 C811 1.342 . S
C816 C814 1.285 . S
C816 H835 0.930 . S
C817 C820 1.424 . S
C817 C822 1.245 . S
C817 C823 1.428 . S
C818 C821 1.260 . S
C818 C822 1.477 . S
C818 H836 0.932 . S
C819 C820 1.384 . S
C819 C821 1.479 . S
C819 H837 0.929 . S
C820 C817 1.424 . S
C820 C819 1.384 . S
C820 H838 0.928 . S
C821 C818 1.260 . S
C821 C819 1.479 . S
C822 C817 1.245 . S
C822 C818 1.477 . S
C822 H839 0.932 . S
C823 U806 2.882 . S
C823 C817 1.428 . S
C823 O826 1.301 . S
C823 O827 1.282 . S
O824 U806 2.441 . S
O824 C810 1.249 . S
O825 U806 2.420 . S
O825 C810 1.202 . S
O826 U806 2.455 . S
O826 C823 1.301 . S
O827 U806 2.449 . S
O827 C823 1.282 . S
H828 C801 0.931 . S
H829 C803 0.929 . S
H830 C804 0.930 . S
H831 C805 0.931 . S
H832 C812 0.932 . S
H833 C813 0.930 . S
H834 C814 0.929 . S
H835 C816 0.930 . S
H836 C818 0.932 . S
H837 C819 0.929 . S
H838 C820 0.928 . S
H839 C822 0.932 . S
C840 C841 1.264 . S
C840 C845 1.479 . S
C840 C850 1.465 . S
C841 C840 1.264 . S
C841 C843 1.339 . S
C841 H868 0.931 . S
C842 C843 1.395 . S
C842 C844 1.320 . S
C843 C841 1.339 . S
C843 C842 1.395 . S
C843 H869 0.929 . S
C844 C842 1.320 . S
C844 C845 1.405 . S
C844 H870 0.930 . S
C845 C840 1.479 . S
C845 C844 1.405 . S
C845 H871 0.931 . S
U846 O847 2.454 . S
U846 O848 2.458 . S
U846 C849 2.984 . S
U846 C850 2.847 . S
U846 C863 2.882 . S
U846 O864 2.441 . S
U846 O865 2.420 . S
U846 O866 2.455 . S
U846 O867 2.449 . S
O847 U846 2.454 . S
O847 C849 1.353 . S
O848 U846 2.458 . S
O848 C849 1.286 . S
C849 U846 2.984 . S
C849 O847 1.353 . S
C849 O848 1.286 . S
C849 C851 1.363 . S
C850 C840 1.465 . S
C850 U846 2.847 . S
C850 O864 1.249 . S
C850 O865 1.202 . S
C851 C849 1.363 . S
C851 C853 1.408 . S
C851 C856 1.342 . S
C852 C853 1.310 . S
C852 C855 1.461 . S
C852 H872 0.932 . S
C853 C851 1.408 . S
C853 C852 1.310 . S
C853 H873 0.930 . S
C854 C855 1.474 . S
C854 C856 1.285 . S
C854 H874 0.929 . S
C855 C852 1.461 . S
C855 C854 1.474 . S
C856 C851 1.342 . S
C856 C854 1.285 . S
C856 H875 0.930 . S
C857 C860 1.424 . S
C857 C862 1.245 . S
C857 C863 1.428 . S
C858 C861 1.260 . S
C858 C862 1.477 . S
C858 H876 0.932 . S
C859 C860 1.384 . S
C859 C861 1.479 . S
C859 H877 0.929 . S
C860 C857 1.424 . S
C860 C859 1.384 . S
C860 H878 0.928 . S
C861 C858 1.260 . S
C861 C859 1.479 . S
C862 C857 1.245 . S
C862 C858 1.477 . S
C862 H879 0.932 . S
C863 U846 2.882 . S
C863 C857 1.428 . S
C863 O866 1.301 . S
C863 O867 1.282 . S
O864 U846 2.441 . S
O864 C850 1.249 . S
O865 U846 2.420 . S
O865 C850 1.202 . S
O866 U846 2.455 . S
O866 C863 1.301 . S
O867 U846 2.449 . S
O867 C863 1.282 . S
H868 C841 0.931 . S
H869 C843 0.929 . S
H870 C844 0.930 . S
H871 C845 0.931 . S
H872 C852 0.932 . S
H873 C853 0.930 . S
H874 C854 0.929 . S
H875 C856 0.930 . S
H876 C858 0.932 . S
H877 C859 0.929 . S
H878 C860 0.928 . S
H879 C862 0.932 . S
C880 C881 1.264 . S
C880 C885 1.479 . S
C880 C890 1.465 . S
C881 C880 1.264 . S
C881 C883 1.339 . S
C881 H908 0.931 . S
C882 C883 1.395 . S
C882 C884 1.320 . S
C883 C881 1.339 . S
C883 C882 1.395 . S
C883 H909 0.929 . S
C884 C882 1.320 . S
C884 C885 1.405 . S
C884 H910 0.930 . S
C885 C880 1.479 . S
C885 C884 1.405 . S
C885 H911 0.931 . S
U886 O887 2.454 . S
U886 O888 2.458 . S
U886 C889 2.984 . S
U886 C890 2.847 . S
U886 C903 2.882 . S
U886 O904 2.441 . S
U886 O905 2.420 . S
U886 O906 2.455 . S
U886 O907 2.449 . S
O887 U886 2.454 . S
O887 C889 1.353 . S
O888 U886 2.458 . S
O888 C889 1.286 . S
C889 U886 2.984 . S
C889 O887 1.353 . S
C889 O888 1.286 . S
C889 C891 1.363 . S
C890 C880 1.465 . S
C890 U886 2.847 . S
C890 O904 1.249 . S
C890 O905 1.202 . S
C891 C889 1.363 . S
C891 C893 1.408 . S
C891 C896 1.342 . S
C892 C893 1.310 . S
C892 C895 1.461 . S
C892 H912 0.932 . S
C893 C891 1.408 . S
C893 C892 1.310 . S
C893 H913 0.930 . S
C894 C895 1.474 . S
C894 C896 1.285 . S
C894 H914 0.929 . S
C895 C892 1.461 . S
C895 C894 1.474 . S
C896 C891 1.342 . S
C896 C894 1.285 . S
C896 H915 0.930 . S
C897 C900 1.424 . S
C897 C902 1.245 . S
C897 C903 1.428 . S
C898 C901 1.260 . S
C898 C902 1.477 . S
C898 H916 0.932 . S
C899 C900 1.384 . S
C899 C901 1.479 . S
C899 H917 0.929 . S
C900 C897 1.424 . S
C900 C899 1.384 . S
C900 H918 0.928 . S
C901 C898 1.260 . S
C901 C899 1.479 . S
C902 C897 1.245 . S
C902 C898 1.477 . S
C902 H919 0.932 . S
C903 U886 2.882 . S
C903 C897 1.428 . S
C903 O906 1.301 . S
C903 O907 1.282 . S
O904 U886 2.441 . S
O904 C890 1.249 . S
O905 U886 2.420 . S
O905 C890 1.202 . S
O906 U886 2.455 . S
O906 C903 1.301 . S
O907 U886 2.449 . S
O907 C903 1.282 . S
H908 C881 0.931 . S
H909 C883 0.929 . S
H910 C884 0.930 . S
H911 C885 0.931 . S
H912 C892 0.932 . S
H913 C893 0.930 . S
H914 C894 0.929 . S
H915 C896 0.930 . S
H916 C898 0.932 . S
H917 C899 0.929 . S
H918 C900 0.928 . S
H919 C902 0.932 . S
C920 C921 1.264 . S
C920 C925 1.479 . S
C920 C930 1.465 . S
C921 C920 1.264 . S
C921 C923 1.339 . S
C921 H948 0.931 . S
C922 C923 1.395 . S
C922 C924 1.320 . S
C923 C921 1.339 . S
C923 C922 1.395 . S
C923 H949 0.929 . S
C924 C922 1.320 . S
C924 C925 1.405 . S
C924 H950 0.930 . S
C925 C920 1.479 . S
C925 C924 1.405 . S
C925 H951 0.931 . S
U926 O927 2.454 . S
U926 O928 2.458 . S
U926 C929 2.984 . S
U926 C930 2.847 . S
U926 C943 2.882 . S
U926 O944 2.441 . S
U926 O945 2.420 . S
U926 O946 2.455 . S
U926 O947 2.449 . S
O927 U926 2.454 . S
O927 C929 1.353 . S
O928 U926 2.458 . S
O928 C929 1.286 . S
C929 U926 2.984 . S
C929 O927 1.353 . S
C929 O928 1.286 . S
C929 C931 1.363 . S
C930 C920 1.465 . S
C930 U926 2.847 . S
C930 O944 1.249 . S
C930 O945 1.202 . S
C931 C929 1.363 . S
C931 C933 1.408 . S
C931 C936 1.342 . S
C932 C933 1.310 . S
C932 C935 1.461 . S
C932 H952 0.932 . S
C933 C931 1.408 . S
C933 C932 1.310 . S
C933 H953 0.930 . S
C934 C935 1.474 . S
C934 C936 1.285 . S
C934 H954 0.929 . S
C935 C932 1.461 . S
C935 C934 1.474 . S
C936 C931 1.342 . S
C936 C934 1.285 . S
C936 H955 0.930 . S
C937 C940 1.424 . S
C937 C942 1.245 . S
C937 C943 1.428 . S
C938 C941 1.260 . S
C938 C942 1.477 . S
C938 H956 0.932 . S
C939 C940 1.384 . S
C939 C941 1.479 . S
C939 H957 0.929 . S
C940 C937 1.424 . S
C940 C939 1.384 . S
C940 H958 0.928 . S
C941 C938 1.260 . S
C941 C939 1.479 . S
C942 C937 1.245 . S
C942 C938 1.477 . S
C942 H959 0.932 . S
C943 U926 2.882 . S
C943 C937 1.428 . S
C943 O946 1.301 . S
C943 O947 1.282 . S
O944 U926 2.441 . S
O944 C930 1.249 . S
O945 U926 2.420 . S
O945 C930 1.202 . S
O946 U926 2.455 . S
O946 C943 1.301 . S
O947 U926 2.449 . S
O947 C943 1.282 . S
H948 C921 0.931 . S
H949 C923 0.929 . S
H950 C924 0.930 . S
H951 C925 0.931 . S
H952 C932 0.932 . S
H953 C933 0.930 . S
H954 C934 0.929 . S
H955 C936 0.930 . S
H956 C938 0.932 . S
H957 C939 0.929 . S
H958 C940 0.928 . S
H959 C942 0.932 . S
C960 C961 1.264 . S
C960 C965 1.479 . S
C960 C970 1.465 . S
C961 C960 1.264 . S
C961 C963 1.339 . S
C961 H988 0.931 . S
C962 C963 1.395 . S
C962 C964 1.320 . S
C963 C961 1.339 . S
C963 C962 1.395 . S
C963 H989 0.929 . S
C964 C962 1.320 . S
C964 C965 1.405 . S
C964 H990 0.930 . S
C965 C960 1.479 . S
C965 C964 1.405 . S
C965 H991 0.931 . S
U966 O967 2.454 . S
U966 O968 2.458 . S
U966 C969 2.984 . S
U966 C970 2.847 . S
U966 C983 2.882 . S
U966 O984 2.441 . S
U966 O985 2.420 . S
U966 O986 2.455 . S
U966 O987 2.449 . S
O967 U966 2.454 . S
O967 C969 1.353 . S
O968 U966 2.458 . S
O968 C969 1.286 . S
C969 U966 2.984 . S
C969 O967 1.353 . S
C969 O968 1.286 . S
C969 C971 1.363 . S
C970 C960 1.465 . S
C970 U966 2.847 . S
C970 O984 1.249 . S
C970 O985 1.202 . S
C971 C969 1.363 . S
C971 C973 1.408 . S
C971 C976 1.342 . S
C972 C973 1.310 . S
C972 C975 1.461 . S
C972 H992 0.932 . S
C973 C971 1.408 . S
C973 C972 1.310 . S
C973 H993 0.930 . S
C974 C975 1.474 . S
C974 C976 1.285 . S
C974 H994 0.929 . S
C975 C972 1.461 . S
C975 C974 1.474 . S
C976 C971 1.342 . S
C976 C974 1.285 . S
C976 H995 0.930 . S
C977 C980 1.424 . S
C977 C982 1.245 . S
C977 C983 1.428 . S
C978 C981 1.260 . S
C978 C982 1.477 . S
C978 H996 0.932 . S
C979 C980 1.384 . S
C979 C981 1.479 . S
C979 H997 0.929 . S
C980 C977 1.424 . S
C980 C979 1.384 . S
C980 H998 0.928 . S
C981 C978 1.260 . S
C981 C979 1.479 . S
C982 C977 1.245 . S
C982 C978 1.477 . S
C982 H999 0.932 . S
C983 U966 2.882 . S
C983 C977 1.428 . S
C983 O986 1.301 . S
C983 O987 1.282 . S
O984 U966 2.441 . S
O984 C970 1.249 . S
O985 U966 2.420 . S
O985 C970 1.202 . S
O986 U966 2.455 . S
O986 C983 1.301 . S
O987 U966 2.449 . S
O987 C983 1.282 . S
H988 C961 0.931 . S
H989 C963 0.929 . S
H990 C964 0.930 . S
H991 C965 0.931 . S
H992 C972 0.932 . S
H993 C973 0.930 . S
H994 C974 0.929 . S
H995 C976 0.930 . S
H996 C978 0.932 . S
H997 C979 0.929 . S
H998 C980 0.928 . S
H999 C982 0.932 . S
C1000 C1001 1.264 . S
C1000 C1005 1.479 . S
C1000 C1010 1.465 . S
C1001 C1000 1.264 . S
C1001 C1003 1.339 . S
C1001 H1028 0.931 . S
C1002 C1003 1.395 . S
C1002 C1004 1.320 . S
C1003 C1001 1.339 . S
C1003 C1002 1.395 . S
C1003 H1029 0.929 . S
C1004 C1002 1.320 . S
C1004 C1005 1.405 . S
C1004 H1030 0.930 . S
C1005 C1000 1.479 . S
C1005 C1004 1.405 . S
C1005 H1031 0.931 . S
U1006 O1007 2.454 . S
U1006 O1008 2.458 . S
U1006 C1009 2.984 . S
U1006 C1010 2.847 . S
U1006 C1023 2.882 . S
U1006 O1024 2.441 . S
U1006 O1025 2.420 . S
U1006 O1026 2.455 . S
U1006 O1027 2.449 . S
O1007 U1006 2.454 . S
O1007 C1009 1.353 . S
O1008 U1006 2.458 . S
O1008 C1009 1.286 . S
C1009 U1006 2.984 . S
C1009 O1007 1.353 . S
C1009 O1008 1.286 . S
C1009 C1011 1.363 . S
C1010 C1000 1.465 . S
C1010 U1006 2.847 . S
C1010 O1024 1.249 . S
C1010 O1025 1.202 . S
C1011 C1009 1.363 . S
C1011 C1013 1.408 . S
C1011 C1016 1.342 . S
C1012 C1013 1.310 . S
C1012 C1015 1.461 . S
C1012 H1032 0.932 . S
C1013 C1011 1.408 . S
C1013 C1012 1.310 . S
C1013 H1033 0.930 . S
C1014 C1015 1.474 . S
C1014 C1016 1.285 . S
C1014 H1034 0.929 . S
C1015 C1012 1.461 . S
C1015 C1014 1.474 . S
C1016 C1011 1.342 . S
C1016 C1014 1.285 . S
C1016 H1035 0.930 . S
C1017 C1020 1.424 . S
C1017 C1022 1.245 . S
C1017 C1023 1.428 . S
C1018 C1021 1.260 . S
C1018 C1022 1.477 . S
C1018 H1036 0.932 . S
C1019 C1020 1.384 . S
C1019 C1021 1.479 . S
C1019 H1037 0.929 . S
C1020 C1017 1.424 . S
C1020 C1019 1.384 . S
C1020 H1038 0.928 . S
C1021 C1018 1.260 . S
C1021 C1019 1.479 . S
C1022 C1017 1.245 . S
C1022 C1018 1.477 . S
C1022 H1039 0.932 . S
C1023 U1006 2.882 . S
C1023 C1017 1.428 . S
C1023 O1026 1.301 . S
C1023 O1027 1.282 . S
O1024 U1006 2.441 . S
O1024 C1010 1.249 . S
O1025 U1006 2.420 . S
O1025 C1010 1.202 . S
O1026 U1006 2.455 . S
O1026 C1023 1.301 . S
O1027 U1006 2.449 . S
O1027 C1023 1.282 . S
H1028 C1001 0.931 . S
H1029 C1003 0.929 . S
H1030 C1004 0.930 . S
H1031 C1005 0.931 . S
H1032 C1012 0.932 . S
H1033 C1013 0.930 . S
H1034 C1014 0.929 . S
H1035 C1016 0.930 . S
H1036 C1018 0.932 . S
H1037 C1019 0.929 . S
H1038 C1020 0.928 . S
H1039 C1022 0.932 . S
C1040 C1041 1.264 . S
C1040 C1045 1.479 . S
C1040 C1050 1.465 . S
C1041 C1040 1.264 . S
C1041 C1043 1.339 . S
C1041 H1068 0.931 . S
C1042 C1043 1.395 . S
C1042 C1044 1.320 . S
C1043 C1041 1.339 . S
C1043 C1042 1.395 . S
C1043 H1069 0.929 . S
C1044 C1042 1.320 . S
C1044 C1045 1.405 . S
C1044 H1070 0.930 . S
C1045 C1040 1.479 . S
C1045 C1044 1.405 . S
C1045 H1071 0.931 . S
U1046 O1047 2.454 . S
U1046 O1048 2.458 . S
U1046 C1049 2.984 . S
U1046 C1050 2.847 . S
U1046 C1063 2.882 . S
U1046 O1064 2.441 . S
U1046 O1065 2.420 . S
U1046 O1066 2.455 . S
U1046 O1067 2.449 . S
O1047 U1046 2.454 . S
O1047 C1049 1.353 . S
O1048 U1046 2.458 . S
O1048 C1049 1.286 . S
C1049 U1046 2.984 . S
C1049 O1047 1.353 . S
C1049 O1048 1.286 . S
C1049 C1051 1.363 . S
C1050 C1040 1.465 . S
C1050 U1046 2.847 . S
C1050 O1064 1.249 . S
C1050 O1065 1.202 . S
C1051 C1049 1.363 . S
C1051 C1053 1.408 . S
C1051 C1056 1.342 . S
C1052 C1053 1.310 . S
C1052 C1055 1.461 . S
C1052 H1072 0.932 . S
C1053 C1051 1.408 . S
C1053 C1052 1.310 . S
C1053 H1073 0.930 . S
C1054 C1055 1.474 . S
C1054 C1056 1.285 . S
C1054 H1074 0.929 . S
C1055 C1052 1.461 . S
C1055 C1054 1.474 . S
C1056 C1051 1.342 . S
C1056 C1054 1.285 . S
C1056 H1075 0.930 . S
C1057 C1060 1.424 . S
C1057 C1062 1.245 . S
C1057 C1063 1.428 . S
C1058 C1061 1.260 . S
C1058 C1062 1.477 . S
C1058 H1076 0.932 . S
C1059 C1060 1.384 . S
C1059 C1061 1.479 . S
C1059 H1077 0.929 . S
C1060 C1057 1.424 . S
C1060 C1059 1.384 . S
C1060 H1078 0.928 . S
C1061 C1058 1.260 . S
C1061 C1059 1.479 . S
C1062 C1057 1.245 . S
C1062 C1058 1.477 . S
C1062 H1079 0.932 . S
C1063 U1046 2.882 . S
C1063 C1057 1.428 . S
C1063 O1066 1.301 . S
C1063 O1067 1.282 . S
O1064 U1046 2.441 . S
O1064 C1050 1.249 . S
O1065 U1046 2.420 . S
O1065 C1050 1.202 . S
O1066 U1046 2.455 . S
O1066 C1063 1.301 . S
O1067 U1046 2.449 . S
O1067 C1063 1.282 . S
H1068 C1041 0.931 . S
H1069 C1043 0.929 . S
H1070 C1044 0.930 . S
H1071 C1045 0.931 . S
H1072 C1052 0.932 . S
H1073 C1053 0.930 . S
H1074 C1054 0.929 . S
H1075 C1056 0.930 . S
H1076 C1058 0.932 . S
H1077 C1059 0.929 . S
H1078 C1060 0.928 . S
H1079 C1062 0.932 . S
C1080 C1081 1.264 . S
C1080 C1085 1.479 . S
C1080 C1090 1.465 . S
C1081 C1080 1.264 . S
C1081 C1083 1.339 . S
C1081 H1108 0.931 . S
C1082 C1083 1.395 . S
C1082 C1084 1.320 . S
C1083 C1081 1.339 . S
C1083 C1082 1.395 . S
C1083 H1109 0.929 . S
C1084 C1082 1.320 . S
C1084 C1085 1.405 . S
C1084 H1110 0.930 . S
C1085 C1080 1.479 . S
C1085 C1084 1.405 . S
C1085 H1111 0.931 . S
U1086 O1087 2.454 . S
U1086 O1088 2.458 . S
U1086 C1089 2.984 . S
U1086 C1090 2.847 . S
U1086 C1103 2.882 . S
U1086 O1104 2.441 . S
U1086 O1105 2.420 . S
U1086 O1106 2.455 . S
U1086 O1107 2.449 . S
O1087 U1086 2.454 . S
O1087 C1089 1.353 . S
O1088 U1086 2.458 . S
O1088 C1089 1.286 . S
C1089 U1086 2.984 . S
C1089 O1087 1.353 . S
C1089 O1088 1.286 . S
C1089 C1091 1.363 . S
C1090 C1080 1.465 . S
C1090 U1086 2.847 . S
C1090 O1104 1.249 . S
C1090 O1105 1.202 . S
C1091 C1089 1.363 . S
C1091 C1093 1.408 . S
C1091 C1096 1.342 . S
C1092 C1093 1.310 . S
C1092 C1095 1.461 . S
C1092 H1112 0.932 . S
C1093 C1091 1.408 . S
C1093 C1092 1.310 . S
C1093 H1113 0.930 . S
C1094 C1095 1.474 . S
C1094 C1096 1.285 . S
C1094 H1114 0.929 . S
C1095 C1092 1.461 . S
C1095 C1094 1.474 . S
C1096 C1091 1.342 . S
C1096 C1094 1.285 . S
C1096 H1115 0.930 . S
C1097 C1100 1.424 . S
C1097 C1102 1.245 . S
C1097 C1103 1.428 . S
C1098 C1101 1.260 . S
C1098 C1102 1.477 . S
C1098 H1116 0.932 . S
C1099 C1100 1.384 . S
C1099 C1101 1.479 . S
C1099 H1117 0.929 . S
C1100 C1097 1.424 . S
C1100 C1099 1.384 . S
C1100 H1118 0.928 . S
C1101 C1098 1.260 . S
C1101 C1099 1.479 . S
C1102 C1097 1.245 . S
C1102 C1098 1.477 . S
C1102 H1119 0.932 . S
C1103 U1086 2.882 . S
C1103 C1097 1.428 . S
C1103 O1106 1.301 . S
C1103 O1107 1.282 . S
O1104 U1086 2.441 . S
O1104 C1090 1.249 . S
O1105 U1086 2.420 . S
O1105 C1090 1.202 . S
O1106 U1086 2.455 . S
O1106 C1103 1.301 . S
O1107 U1086 2.449 . S
O1107 C1103 1.282 . S
H1108 C1081 0.931 . S
H1109 C1083 0.929 . S
H1110 C1084 0.930 . S
H1111 C1085 0.931 . S
H1112 C1092 0.932 . S
H1113 C1093 0.930 . S
H1114 C1094 0.929 . S
H1115 C1096 0.930 . S
H1116 C1098 0.932 . S
H1117 C1099 0.929 . S
H1118 C1100 0.928 . S
H1119 C1102 0.932 . S
C1120 C1121 1.264 . S
C1120 C1125 1.479 . S
C1120 C1130 1.465 . S
C1121 C1120 1.264 . S
C1121 C1123 1.339 . S
C1121 H1148 0.931 . S
C1122 C1123 1.395 . S
C1122 C1124 1.320 . S
C1123 C1121 1.339 . S
C1123 C1122 1.395 . S
C1123 H1149 0.929 . S
C1124 C1122 1.320 . S
C1124 C1125 1.405 . S
C1124 H1150 0.930 . S
C1125 C1120 1.479 . S
C1125 C1124 1.405 . S
C1125 H1151 0.931 . S
U1126 O1127 2.454 . S
U1126 O1128 2.458 . S
U1126 C1129 2.984 . S
U1126 C1130 2.847 . S
U1126 C1143 2.882 . S
U1126 O1144 2.441 . S
U1126 O1145 2.420 . S
U1126 O1146 2.455 . S
U1126 O1147 2.449 . S
O1127 U1126 2.454 . S
O1127 C1129 1.353 . S
O1128 U1126 2.458 . S
O1128 C1129 1.286 . S
C1129 U1126 2.984 . S
C1129 O1127 1.353 . S
C1129 O1128 1.286 . S
C1129 C1131 1.363 . S
C1130 C1120 1.465 . S
C1130 U1126 2.847 . S
C1130 O1144 1.249 . S
C1130 O1145 1.202 . S
C1131 C1129 1.363 . S
C1131 C1133 1.408 . S
C1131 C1136 1.342 . S
C1132 C1133 1.310 . S
C1132 C1135 1.461 . S
C1132 H1152 0.932 . S
C1133 C1131 1.408 . S
C1133 C1132 1.310 . S
C1133 H1153 0.930 . S
C1134 C1135 1.474 . S
C1134 C1136 1.285 . S
C1134 H1154 0.929 . S
C1135 C1132 1.461 . S
C1135 C1134 1.474 . S
C1136 C1131 1.342 . S
C1136 C1134 1.285 . S
C1136 H1155 0.930 . S
C1137 C1140 1.424 . S
C1137 C1142 1.245 . S
C1137 C1143 1.428 . S
C1138 C1141 1.260 . S
C1138 C1142 1.477 . S
C1138 H1156 0.932 . S
C1139 C1140 1.384 . S
C1139 C1141 1.479 . S
C1139 H1157 0.929 . S
C1140 C1137 1.424 . S
C1140 C1139 1.384 . S
C1140 H1158 0.928 . S
C1141 C1138 1.260 . S
C1141 C1139 1.479 . S
C1142 C1137 1.245 . S
C1142 C1138 1.477 . S
C1142 H1159 0.932 . S
C1143 U1126 2.882 . S
C1143 C1137 1.428 . S
C1143 O1146 1.301 . S
C1143 O1147 1.282 . S
O1144 U1126 2.441 . S
O1144 C1130 1.249 . S
O1145 U1126 2.420 . S
O1145 C1130 1.202 . S
O1146 U1126 2.455 . S
O1146 C1143 1.301 . S
O1147 U1126 2.449 . S
O1147 C1143 1.282 . S
H1148 C1121 0.931 . S
H1149 C1123 0.929 . S
H1150 C1124 0.930 . S
H1151 C1125 0.931 . S
H1152 C1132 0.932 . S
H1153 C1133 0.930 . S
H1154 C1134 0.929 . S
H1155 C1136 0.930 . S
H1156 C1138 0.932 . S
H1157 C1139 0.929 . S
H1158 C1140 0.928 . S
H1159 C1142 0.932 . S
C1160 C1161 1.264 . S
C1160 C1165 1.479 . S
C1160 C1170 1.465 . S
C1161 C1160 1.264 . S
C1161 C1163 1.339 . S
C1161 H1188 0.931 . S
C1162 C1163 1.395 . S
C1162 C1164 1.320 . S
C1163 C1161 1.339 . S
C1163 C1162 1.395 . S
C1163 H1189 0.929 . S
C1164 C1162 1.320 . S
C1164 C1165 1.405 . S
C1164 H1190 0.930 . S
C1165 C1160 1.479 . S
C1165 C1164 1.405 . S
C1165 H1191 0.931 . S
U1166 O1167 2.454 . S
U1166 O1168 2.458 . S
U1166 C1169 2.984 . S
U1166 C1170 2.847 . S
U1166 C1183 2.882 . S
U1166 O1184 2.441 . S
U1166 O1185 2.420 . S
U1166 O1186 2.455 . S
U1166 O1187 2.449 . S
O1167 U1166 2.454 . S
O1167 C1169 1.353 . S
O1168 U1166 2.458 . S
O1168 C1169 1.286 . S
C1169 U1166 2.984 . S
C1169 O1167 1.353 . S
C1169 O1168 1.286 . S
C1169 C1171 1.363 . S
C1170 C1160 1.465 . S
C1170 U1166 2.847 . S
C1170 O1184 1.249 . S
C1170 O1185 1.202 . S
C1171 C1169 1.363 . S
C1171 C1173 1.408 . S
C1171 C1176 1.342 . S
C1172 C1173 1.310 . S
C1172 C1175 1.461 . S
C1172 H1192 0.932 . S
C1173 C1171 1.408 . S
C1173 C1172 1.310 . S
C1173 H1193 0.930 . S
C1174 C1175 1.474 . S
C1174 C1176 1.285 . S
C1174 H1194 0.929 . S
C1175 C1172 1.461 . S
C1175 C1174 1.474 . S
C1176 C1171 1.342 . S
C1176 C1174 1.285 . S
C1176 H1195 0.930 . S
C1177 C1180 1.424 . S
C1177 C1182 1.245 . S
C1177 C1183 1.428 . S
C1178 C1181 1.260 . S
C1178 C1182 1.477 . S
C1178 H1196 0.932 . S
C1179 C1180 1.384 . S
C1179 C1181 1.479 . S
C1179 H1197 0.929 . S
C1180 C1177 1.424 . S
C1180 C1179 1.384 . S
C1180 H1198 0.928 . S
C1181 C1178 1.260 . S
C1181 C1179 1.479 . S
C1182 C1177 1.245 . S
C1182 C1178 1.477 . S
C1182 H1199 0.932 . S
C1183 U1166 2.882 . S
C1183 C1177 1.428 . S
C1183 O1186 1.301 . S
C1183 O1187 1.282 . S
O1184 U1166 2.441 . S
O1184 C1170 1.249 . S
O1185 U1166 2.420 . S
O1185 C1170 1.202 . S
O1186 U1166 2.455 . S
O1186 C1183 1.301 . S
O1187 U1166 2.449 . S
O1187 C1183 1.282 . S
H1188 C1161 0.931 . S
H1189 C1163 0.929 . S
H1190 C1164 0.930 . S
H1191 C1165 0.931 . S
H1192 C1172 0.932 . S
H1193 C1173 0.930 . S
H1194 C1174 0.929 . S
H1195 C1176 0.930 . S
H1196 C1178 0.932 . S
H1197 C1179 0.929 . S
H1198 C1180 0.928 . S
H1199 C1182 0.932 . S
C1200 C1201 1.264 . S
C1200 C1205 1.479 . S
C1200 C1210 1.465 . S
C1201 C1200 1.264 . S
C1201 C1203 1.339 . S
C1201 H1228 0.931 . S
C1202 C1203 1.395 . S
C1202 C1204 1.320 . S
C1203 C1201 1.339 . S
C1203 C1202 1.395 . S
C1203 H1229 0.929 . S
C1204 C1202 1.320 . S
C1204 C1205 1.405 . S
C1204 H1230 0.930 . S
C1205 C1200 1.479 . S
C1205 C1204 1.405 . S
C1205 H1231 0.931 . S
U1206 O1207 2.454 . S
U1206 O1208 2.458 . S
U1206 C1209 2.984 . S
U1206 C1210 2.847 . S
U1206 C1223 2.882 . S
U1206 O1224 2.441 . S
U1206 O1225 2.420 . S
U1206 O1226 2.455 . S
U1206 O1227 2.449 . S
O1207 U1206 2.454 . S
O1207 C1209 1.353 . S
O1208 U1206 2.458 . S
O1208 C1209 1.286 . S
C1209 U1206 2.984 . S
C1209 O1207 1.353 . S
C1209 O1208 1.286 . S
C1209 C1211 1.363 . S
C1210 C1200 1.465 . S
C1210 U1206 2.847 . S
C1210 O1224 1.249 . S
C1210 O1225 1.202 . S
C1211 C1209 1.363 . S
C1211 C1213 1.408 . S
C1211 C1216 1.342 . S
C1212 C1213 1.310 . S
C1212 C1215 1.461 . S
C1212 H1232 0.932 . S
C1213 C1211 1.408 . S
C1213 C1212 1.310 . S
C1213 H1233 0.930 . S
C1214 C1215 1.474 . S
C1214 C1216 1.285 . S
C1214 H1234 0.929 . S
C1215 C1212 1.461 . S
C1215 C1214 1.474 . S
C1216 C1211 1.342 . S
C1216 C1214 1.285 . S
C1216 H1235 0.930 . S
C1217 C1220 1.424 . S
C1217 C1222 1.245 . S
C1217 C1223 1.428 . S
C1218 C1221 1.260 . S
C1218 C1222 1.477 . S
C1218 H1236 0.932 . S
C1219 C1220 1.384 . S
C1219 C1221 1.479 . S
C1219 H1237 0.929 . S
C1220 C1217 1.424 . S
C1220 C1219 1.384 . S
C1220 H1238 0.928 . S
C1221 C1218 1.260 . S
C1221 C1219 1.479 . S
C1222 C1217 1.245 . S
C1222 C1218 1.477 . S
C1222 H1239 0.932 . S
C1223 U1206 2.882 . S
C1223 C1217 1.428 . S
C1223 O1226 1.301 . S
C1223 O1227 1.282 . S
O1224 U1206 2.441 . S
O1224 C1210 1.249 . S
O1225 U1206 2.420 . S
O1225 C1210 1.202 . S
O1226 U1206 2.455 . S
O1226 C1223 1.301 . S
O1227 U1206 2.449 . S
O1227 C1223 1.282 . S
H1228 C1201 0.931 . S
H1229 C1203 0.929 . S
H1230 C1204 0.930 . S
H1231 C1205 0.931 . S
H1232 C1212 0.932 . S
H1233 C1213 0.930 . S
H1234 C1214 0.929 . S
H1235 C1216 0.930 . S
H1236 C1218 0.932 . S
H1237 C1219 0.929 . S
H1238 C1220 0.928 . S
H1239 C1222 0.932 . S
C1240 C1241 1.264 . S
C1240 C1245 1.479 . S
C1240 C1250 1.465 . S
C1241 C1240 1.264 . S
C1241 C1243 1.339 . S
C1241 H1268 0.931 . S
C1242 C1243 1.395 . S
C1242 C1244 1.320 . S
C1243 C1241 1.339 . S
C1243 C1242 1.395 . S
C1243 H1269 0.929 . S
C1244 C1242 1.320 . S
C1244 C1245 1.405 . S
C1244 H1270 0.930 . S
C1245 C1240 1.479 . S
C1245 C1244 1.405 . S
C1245 H1271 0.931 . S
U1246 O1247 2.454 . S
U1246 O1248 2.458 . S
U1246 C1249 2.984 . S
U1246 C1250 2.847 . S
U1246 C1263 2.882 . S
U1246 O1264 2.441 . S
U1246 O1265 2.420 . S
U1246 O1266 2.455 . S
U1246 O1267 2.449 . S
O1247 U1246 2.454 . S
O1247 C1249 1.353 . S
O1248 U1246 2.458 . S
O1248 C1249 1.286 . S
C1249 U1246 2.984 . S
C1249 O1247 1.353 . S
C1249 O1248 1.286 . S
C1249 C1251 1.363 . S
C1250 C1240 1.465 . S
C1250 U1246 2.847 . S
C1250 O1264 1.249 . S
C1250 O1265 1.202 . S
C1251 C1249 1.363 . S
C1251 C1253 1.408 . S
C1251 C1256 1.342 . S
C1252 C1253 1.310 . S
C1252 C1255 1.461 . S
C1252 H1272 0.932 . S
C1253 C1251 1.408 . S
C1253 C1252 1.310 . S
C1253 H1273 0.930 . S
C1254 C1255 1.474 . S
C1254 C1256 1.285 . S
C1254 H1274 0.929 . S
C1255 C1252 1.461 . S
C1255 C1254 1.474 . S
C1256 C1251 1.342 . S
C1256 C1254 1.285 . S
C1256 H1275 0.930 . S
C1257 C1260 1.424 . S
C1257 C1262 1.245 . S
C1257 C1263 1.428 . S
C1258 C1261 1.260 . S
C1258 C1262 1.477 . S
C1258 H1276 0.932 . S
C1259 C1260 1.384 . S
C1259 C1261 1.479 . S
C1259 H1277 0.929 . S
C1260 C1257 1.424 . S
C1260 C1259 1.384 . S
C1260 H1278 0.928 . S
C1261 C1258 1.260 . S
C1261 C1259 1.479 . S
C1262 C1257 1.245 . S
C1262 C1258 1.477 . S
C1262 H1279 0.932 . S
C1263 U1246 2.882 . S
C1263 C1257 1.428 . S
C1263 O1266 1.301 . S
C1263 O1267 1.282 . S
O1264 U1246 2.441 . S
O1264 C1250 1.249 . S
O1265 U1246 2.420 . S
O1265 C1250 1.202 . S
O1266 U1246 2.455 . S
O1266 C1263 1.301 . S
O1267 U1246 2.449 . S
O1267 C1263 1.282 . S
H1268 C1241 0.931 . S
H1269 C1243 0.929 . S
H1270 C1244 0.930 . S
H1271 C1245 0.931 . S
H1272 C1252 0.932 . S
H1273 C1253 0.930 . S
H1274 C1254 0.929 . S
H1275 C1256 0.930 . S
H1276 C1258 0.932 . S
H1277 C1259 0.929 . S
H1278 C1260 0.928 . S
H1279 C1262 0.932 . S
C1280 C1281 1.264 . S
C1280 C1285 1.479 . S
C1280 C1290 1.465 . S
C1281 C1280 1.264 . S
C1281 C1283 1.339 . S
C1281 H1308 0.931 . S
C1282 C1283 1.395 . S
C1282 C1284 1.320 . S
C1283 C1281 1.339 . S
C1283 C1282 1.395 . S
C1283 H1309 0.929 . S
C1284 C1282 1.320 . S
C1284 C1285 1.405 . S
C1284 H1310 0.930 . S
C1285 C1280 1.479 . S
C1285 C1284 1.405 . S
C1285 H1311 0.931 . S
U1286 O1287 2.454 . S
U1286 O1288 2.458 . S
U1286 C1289 2.984 . S
U1286 C1290 2.847 . S
U1286 C1303 2.882 . S
U1286 O1304 2.441 . S
U1286 O1305 2.420 . S
U1286 O1306 2.455 . S
U1286 O1307 2.449 . S
O1287 U1286 2.454 . S
O1287 C1289 1.353 . S
O1288 U1286 2.458 . S
O1288 C1289 1.286 . S
C1289 U1286 2.984 . S
C1289 O1287 1.353 . S
C1289 O1288 1.286 . S
C1289 C1291 1.363 . S
C1290 C1280 1.465 . S
C1290 U1286 2.847 . S
C1290 O1304 1.249 . S
C1290 O1305 1.202 . S
C1291 C1289 1.363 . S
C1291 C1293 1.408 . S
C1291 C1296 1.342 . S
C1292 C1293 1.310 . S
C1292 C1295 1.461 . S
C1292 H1312 0.932 . S
C1293 C1291 1.408 . S
C1293 C1292 1.310 . S
C1293 H1313 0.930 . S
C1294 C1295 1.474 . S
C1294 C1296 1.285 . S
C1294 H1314 0.929 . S
C1295 C1292 1.461 . S
C1295 C1294 1.474 . S
C1296 C1291 1.342 . S
C1296 C1294 1.285 . S
C1296 H1315 0.930 . S
C1297 C1300 1.424 . S
C1297 C1302 1.245 . S
C1297 C1303 1.428 . S
C1298 C1301 1.260 . S
C1298 C1302 1.477 . S
C1298 H1316 0.932 . S
C1299 C1300 1.384 . S
C1299 C1301 1.479 . S
C1299 H1317 0.929 . S
C1300 C1297 1.424 . S
C1300 C1299 1.384 . S
C1300 H1318 0.928 . S
C1301 C1298 1.260 . S
C1301 C1299 1.479 . S
C1302 C1297 1.245 . S
C1302 C1298 1.477 . S
C1302 H1319 0.932 . S
C1303 U1286 2.882 . S
C1303 C1297 1.428 . S
C1303 O1306 1.301 . S
C1303 O1307 1.282 . S
O1304 U1286 2.441 . S
O1304 C1290 1.249 . S
O1305 U1286 2.420 . S
O1305 C1290 1.202 . S
O1306 U1286 2.455 . S
O1306 C1303 1.301 . S
O1307 U1286 2.449 . S
O1307 C1303 1.282 . S
H1308 C1281 0.931 . S
H1309 C1283 0.929 . S
H1310 C1284 0.930 . S
H1311 C1285 0.931 . S
H1312 C1292 0.932 . S
H1313 C1293 0.930 . S
H1314 C1294 0.929 . S
H1315 C1296 0.930 . S
H1316 C1298 0.932 . S
H1317 C1299 0.929 . S
H1318 C1300 0.928 . S
H1319 C1302 0.932 . S
C1320 C1321 1.264 . S
C1320 C1325 1.479 . S
C1320 C1330 1.465 . S
C1321 C1320 1.264 . S
C1321 C1323 1.339 . S
C1321 H1348 0.931 . S
C1322 C1323 1.395 . S
C1322 C1324 1.320 . S
C1323 C1321 1.339 . S
C1323 C1322 1.395 . S
C1323 H1349 0.929 . S
C1324 C1322 1.320 . S
C1324 C1325 1.405 . S
C1324 H1350 0.930 . S
C1325 C1320 1.479 . S
C1325 C1324 1.405 . S
C1325 H1351 0.931 . S
U1326 O1327 2.454 . S
U1326 O1328 2.458 . S
U1326 C1329 2.984 . S
U1326 C1330 2.847 . S
U1326 C1343 2.882 . S
U1326 O1344 2.441 . S
U1326 O1345 2.420 . S
U1326 O1346 2.455 . S
U1326 O1347 2.449 . S
O1327 U1326 2.454 . S
O1327 C1329 1.353 . S
O1328 U1326 2.458 . S
O1328 C1329 1.286 . S
C1329 U1326 2.984 . S
C1329 O1327 1.353 . S
C1329 O1328 1.286 . S
C1329 C1331 1.363 . S
C1330 C1320 1.465 . S
C1330 U1326 2.847 . S
C1330 O1344 1.249 . S
C1330 O1345 1.202 . S
C1331 C1329 1.363 . S
C1331 C1333 1.408 . S
C1331 C1336 1.342 . S
C1332 C1333 1.310 . S
C1332 C1335 1.461 . S
C1332 H1352 0.932 . S
C1333 C1331 1.408 . S
C1333 C1332 1.310 . S
C1333 H1353 0.930 . S
C1334 C1335 1.474 . S
C1334 C1336 1.285 . S
C1334 H1354 0.929 . S
C1335 C1332 1.461 . S
C1335 C1334 1.474 . S
C1336 C1331 1.342 . S
C1336 C1334 1.285 . S
C1336 H1355 0.930 . S
C1337 C1340 1.424 . S
C1337 C1342 1.245 . S
C1337 C1343 1.428 . S
C1338 C1341 1.260 . S
C1338 C1342 1.477 . S
C1338 H1356 0.932 . S
C1339 C1340 1.384 . S
C1339 C1341 1.479 . S
C1339 H1357 0.929 . S
C1340 C1337 1.424 . S
C1340 C1339 1.384 . S
C1340 H1358 0.928 . S
C1341 C1338 1.260 . S
C1341 C1339 1.479 . S
C1342 C1337 1.245 . S
C1342 C1338 1.477 . S
C1342 H1359 0.932 . S
C1343 U1326 2.882 . S
C1343 C1337 1.428 . S
C1343 O1346 1.301 . S
C1343 O1347 1.282 . S
O1344 U1326 2.441 . S
O1344 C1330 1.249 . S
O1345 U1326 2.420 . S
O1345 C1330 1.202 . S
O1346 U1326 2.455 . S
O1346 C1343 1.301 . S
O1347 U1326 2.449 . S
O1347 C1343 1.282 . S
H1348 C1321 0.931 . S
H1349 C1323 0.929 . S
H1350 C1324 0.930 . S
H1351 C1325 0.931 . S
H1352 C1332 0.932 . S
H1353 C1333 0.930 . S
H1354 C1334 0.929 . S
H1355 C1336 0.930 . S
H1356 C1338 0.932 . S
H1357 C1339 0.929 . S
H1358 C1340 0.928 . S
H1359 C1342 0.932 . S
C1360 C1361 1.264 . S
C1360 C1365 1.479 . S
C1360 C1370 1.465 . S
C1361 C1360 1.264 . S
C1361 C1363 1.339 . S
C1361 H1388 0.931 . S
C1362 C1363 1.395 . S
C1362 C1364 1.320 . S
C1363 C1361 1.339 . S
C1363 C1362 1.395 . S
C1363 H1389 0.929 . S
C1364 C1362 1.320 . S
C1364 C1365 1.405 . S
C1364 H1390 0.930 . S
C1365 C1360 1.479 . S
C1365 C1364 1.405 . S
C1365 H1391 0.931 . S
U1366 O1367 2.454 . S
U1366 O1368 2.458 . S
U1366 C1369 2.984 . S
U1366 C1370 2.847 . S
U1366 C1383 2.882 . S
U1366 O1384 2.441 . S
U1366 O1385 2.420 . S
U1366 O1386 2.455 . S
U1366 O1387 2.449 . S
O1367 U1366 2.454 . S
O1367 C1369 1.353 . S
O1368 U1366 2.458 . S
O1368 C1369 1.286 . S
C1369 U1366 2.984 . S
C1369 O1367 1.353 . S
C1369 O1368 1.286 . S
C1369 C1371 1.363 . S
C1370 C1360 1.465 . S
C1370 U1366 2.847 . S
C1370 O1384 1.249 . S
C1370 O1385 1.202 . S
C1371 C1369 1.363 . S
C1371 C1373 1.408 . S
C1371 C1376 1.342 . S
C1372 C1373 1.310 . S
C1372 C1375 1.461 . S
C1372 H1392 0.932 . S
C1373 C1371 1.408 . S
C1373 C1372 1.310 . S
C1373 H1393 0.930 . S
C1374 C1375 1.474 . S
C1374 C1376 1.285 . S
C1374 H1394 0.929 . S
C1375 C1372 1.461 . S
C1375 C1374 1.474 . S
C1376 C1371 1.342 . S
C1376 C1374 1.285 . S
C1376 H1395 0.930 . S
C1377 C1380 1.424 . S
C1377 C1382 1.245 . S
C1377 C1383 1.428 . S
C1378 C1381 1.260 . S
C1378 C1382 1.477 . S
C1378 H1396 0.932 . S
C1379 C1380 1.384 . S
C1379 C1381 1.479 . S
C1379 H1397 0.929 . S
C1380 C1377 1.424 . S
C1380 C1379 1.384 . S
C1380 H1398 0.928 . S
C1381 C1378 1.260 . S
C1381 C1379 1.479 . S
C1382 C1377 1.245 . S
C1382 C1378 1.477 . S
C1382 H1399 0.932 . S
C1383 U1366 2.882 . S
C1383 C1377 1.428 . S
C1383 O1386 1.301 . S
C1383 O1387 1.282 . S
O1384 U1366 2.441 . S
O1384 C1370 1.249 . S
O1385 U1366 2.420 . S
O1385 C1370 1.202 . S
O1386 U1366 2.455 . S
O1386 C1383 1.301 . S
O1387 U1366 2.449 . S
O1387 C1383 1.282 . S
H1388 C1361 0.931 . S
H1389 C1363 0.929 . S
H1390 C1364 0.930 . S
H1391 C1365 0.931 . S
H1392 C1372 0.932 . S
H1393 C1373 0.930 . S
H1394 C1374 0.929 . S
H1395 C1376 0.930 . S
H1396 C1378 0.932 . S
H1397 C1379 0.929 . S
H1398 C1380 0.928 . S
H1399 C1382 0.932 . S
C1400 C1401 1.264 . S
C1400 C1405 1.479 . S
C1400 C1410 1.465 . S
C1401 C1400 1.264 . S
C1401 C1403 1.339 . S
C1401 H1428 0.931 . S
C1402 C1403 1.395 . S
C1402 C1404 1.320 . S
C1403 C1401 1.339 . S
C1403 C1402 1.395 . S
C1403 H1429 0.929 . S
C1404 C1402 1.320 . S
C1404 C1405 1.405 . S
C1404 H1430 0.930 . S
C1405 C1400 1.479 . S
C1405 C1404 1.405 . S
C1405 H1431 0.931 . S
U1406 O1407 2.454 . S
U1406 O1408 2.458 . S
U1406 C1409 2.984 . S
U1406 C1410 2.847 . S
U1406 C1423 2.882 . S
U1406 O1424 2.441 . S
U1406 O1425 2.420 . S
U1406 O1426 2.455 . S
U1406 O1427 2.449 . S
O1407 U1406 2.454 . S
O1407 C1409 1.353 . S
O1408 U1406 2.458 . S
O1408 C1409 1.286 . S
C1409 U1406 2.984 . S
C1409 O1407 1.353 . S
C1409 O1408 1.286 . S
C1409 C1411 1.363 . S
C1410 C1400 1.465 . S
C1410 U1406 2.847 . S
C1410 O1424 1.249 . S
C1410 O1425 1.202 . S
C1411 C1409 1.363 . S
C1411 C1413 1.408 . S
C1411 C1416 1.342 . S
C1412 C1413 1.310 . S
C1412 C1415 1.461 . S
C1412 H1432 0.932 . S
C1413 C1411 1.408 . S
C1413 C1412 1.310 . S
C1413 H1433 0.930 . S
C1414 C1415 1.474 . S
C1414 C1416 1.285 . S
C1414 H1434 0.929 . S
C1415 C1412 1.461 . S
C1415 C1414 1.474 . S
C1416 C1411 1.342 . S
C1416 C1414 1.285 . S
C1416 H1435 0.930 . S
C1417 C1420 1.424 . S
C1417 C1422 1.245 . S
C1417 C1423 1.428 . S
C1418 C1421 1.260 . S
C1418 C1422 1.477 . S
C1418 H1436 0.932 . S
C1419 C1420 1.384 . S
C1419 C1421 1.479 . S
C1419 H1437 0.929 . S
C1420 C1417 1.424 . S
C1420 C1419 1.384 . S
C1420 H1438 0.928 . S
C1421 C1418 1.260 . S
C1421 C1419 1.479 . S
C1422 C1417 1.245 . S
C1422 C1418 1.477 . S
C1422 H1439 0.932 . S
C1423 U1406 2.882 . S
C1423 C1417 1.428 . S
C1423 O1426 1.301 . S
C1423 O1427 1.282 . S
O1424 U1406 2.441 . S
O1424 C1410 1.249 . S
O1425 U1406 2.420 . S
O1425 C1410 1.202 . S
O1426 U1406 2.455 . S
O1426 C1423 1.301 . S
O1427 U1406 2.449 . S
O1427 C1423 1.282 . S
H1428 C1401 0.931 . S
H1429 C1403 0.929 . S
H1430 C1404 0.930 . S
H1431 C1405 0.931 . S
H1432 C1412 0.932 . S
H1433 C1413 0.930 . S
H1434 C1414 0.929 . S
H1435 C1416 0.930 . S
H1436 C1418 0.932 . S
H1437 C1419 0.929 . S
H1438 C1420 0.928 . S
H1439 C1422 0.932 . S
C1440 C1441 1.264 . S
C1440 C1445 1.479 . S
C1440 C1450 1.465 . S
C1441 C1440 1.264 . S
C1441 C1443 1.339 . S
C1441 H1468 0.931 . S
C1442 C1443 1.395 . S
C1442 C1444 1.320 . S
C1443 C1441 1.339 . S
C1443 C1442 1.395 . S
C1443 H1469 0.929 . S
C1444 C1442 1.320 . S
C1444 C1445 1.405 . S
C1444 H1470 0.930 . S
C1445 C1440 1.479 . S
C1445 C1444 1.405 . S
C1445 H1471 0.931 . S
U1446 O1447 2.454 . S
U1446 O1448 2.458 . S
U1446 C1449 2.984 . S
U1446 C1450 2.847 . S
U1446 C1463 2.882 . S
U1446 O1464 2.441 . S
U1446 O1465 2.420 . S
U1446 O1466 2.455 . S
U1446 O1467 2.449 . S
O1447 U1446 2.454 . S
O1447 C1449 1.353 . S
O1448 U1446 2.458 . S
O1448 C1449 1.286 . S
C1449 U1446 2.984 . S
C1449 O1447 1.353 . S
C1449 O1448 1.286 . S
C1449 C1451 1.363 . S
C1450 C1440 1.465 . S
C1450 U1446 2.847 . S
C1450 O1464 1.249 . S
C1450 O1465 1.202 . S
C1451 C1449 1.363 . S
C1451 C1453 1.408 . S
C1451 C1456 1.342 . S
C1452 C1453 1.310 . S
C1452 C1455 1.461 . S
C1452 H1472 0.932 . S
C1453 C1451 1.408 . S
C1453 C1452 1.310 . S
C1453 H1473 0.930 . S
C1454 C1455 1.474 . S
C1454 C1456 1.285 . S
C1454 H1474 0.929 . S
C1455 C1452 1.461 . S
C1455 C1454 1.474 . S
C1456 C1451 1.342 . S
C1456 C1454 1.285 . S
C1456 H1475 0.930 . S
C1457 C1460 1.424 . S
C1457 C1462 1.245 . S
C1457 C1463 1.428 . S
C1458 C1461 1.260 . S
C1458 C1462 1.477 . S
C1458 H1476 0.932 . S
C1459 C1460 1.384 . S
C1459 C1461 1.479 . S
C1459 H1477 0.929 . S
C1460 C1457 1.424 . S
C1460 C1459 1.384 . S
C1460 H1478 0.928 . S
C1461 C1458 1.260 . S
C1461 C1459 1.479 . S
C1462 C1457 1.245 . S
C1462 C1458 1.477 . S
C1462 H1479 0.932 . S
C1463 U1446 2.882 . S
C1463 C1457 1.428 . S
C1463 O1466 1.301 . S
C1463 O1467 1.282 . S
O1464 U1446 2.441 . S
O1464 C1450 1.249 . S
O1465 U1446 2.420 . S
O1465 C1450 1.202 . S
O1466 U1446 2.455 . S
O1466 C1463 1.301 . S
O1467 U1446 2.449 . S
O1467 C1463 1.282 . S
H1468 C1441 0.931 . S
H1469 C1443 0.929 . S
H1470 C1444 0.930 . S
H1471 C1445 0.931 . S
H1472 C1452 0.932 . S
H1473 C1453 0.930 . S
H1474 C1454 0.929 . S
H1475 C1456 0.930 . S
H1476 C1458 0.932 . S
H1477 C1459 0.929 . S
H1478 C1460 0.928 . S
H1479 C1462 0.932 . S
C1480 C1481 1.264 . S
C1480 C1485 1.479 . S
C1480 C1490 1.465 . S
C1481 C1480 1.264 . S
C1481 C1483 1.339 . S
C1481 H1508 0.931 . S
C1482 C1483 1.395 . S
C1482 C1484 1.320 . S
C1483 C1481 1.339 . S
C1483 C1482 1.395 . S
C1483 H1509 0.929 . S
C1484 C1482 1.320 . S
C1484 C1485 1.405 . S
C1484 H1510 0.930 . S
C1485 C1480 1.479 . S
C1485 C1484 1.405 . S
C1485 H1511 0.931 . S
U1486 O1487 2.454 . S
U1486 O1488 2.458 . S
U1486 C1489 2.984 . S
U1486 C1490 2.847 . S
U1486 C1503 2.882 . S
U1486 O1504 2.441 . S
U1486 O1505 2.420 . S
U1486 O1506 2.455 . S
U1486 O1507 2.449 . S
O1487 U1486 2.454 . S
O1487 C1489 1.353 . S
O1488 U1486 2.458 . S
O1488 C1489 1.286 . S
C1489 U1486 2.984 . S
C1489 O1487 1.353 . S
C1489 O1488 1.286 . S
C1489 C1491 1.363 . S
C1490 C1480 1.465 . S
C1490 U1486 2.847 . S
C1490 O1504 1.249 . S
C1490 O1505 1.202 . S
C1491 C1489 1.363 . S
C1491 C1493 1.408 . S
C1491 C1496 1.342 . S
C1492 C1493 1.310 . S
C1492 C1495 1.461 . S
C1492 H1512 0.932 . S
C1493 C1491 1.408 . S
C1493 C1492 1.310 . S
C1493 H1513 0.930 . S
C1494 C1495 1.474 . S
C1494 C1496 1.285 . S
C1494 H1514 0.929 . S
C1495 C1492 1.461 . S
C1495 C1494 1.474 . S
C1496 C1491 1.342 . S
C1496 C1494 1.285 . S
C1496 H1515 0.930 . S
C1497 C1500 1.424 . S
C1497 C1502 1.245 . S
C1497 C1503 1.428 . S
C1498 C1501 1.260 . S
C1498 C1502 1.477 . S
C1498 H1516 0.932 . S
C1499 C1500 1.384 . S
C1499 C1501 1.479 . S
C1499 H1517 0.929 . S
C1500 C1497 1.424 . S
C1500 C1499 1.384 . S
C1500 H1518 0.928 . S
C1501 C1498 1.260 . S
C1501 C1499 1.479 . S
C1502 C1497 1.245 . S
C1502 C1498 1.477 . S
C1502 H1519 0.932 . S
C1503 U1486 2.882 . S
C1503 C1497 1.428 . S
C1503 O1506 1.301 . S
C1503 O1507 1.282 . S
O1504 U1486 2.441 . S
O1504 C1490 1.249 . S
O1505 U1486 2.420 . S
O1505 C1490 1.202 . S
O1506 U1486 2.455 . S
O1506 C1503 1.301 . S
O1507 U1486 2.449 . S
O1507 C1503 1.282 . S
H1508 C1481 0.931 . S
H1509 C1483 0.929 . S
H1510 C1484 0.930 . S
H1511 C1485 0.931 . S
H1512 C1492 0.932 . S
H1513 C1493 0.930 . S
H1514 C1494 0.929 . S
H1515 C1496 0.930 . S
H1516 C1498 0.932 . S
H1517 C1499 0.929 . S
H1518 C1500 0.928 . S
H1519 C1502 0.932 . S
C1520 C1521 1.264 . S
C1520 C1525 1.479 . S
C1520 C1530 1.465 . S
C1521 C1520 1.264 . S
C1521 C1523 1.339 . S
C1521 H1548 0.931 . S
C1522 C1523 1.395 . S
C1522 C1524 1.320 . S
C1523 C1521 1.339 . S
C1523 C1522 1.395 . S
C1523 H1549 0.929 . S
C1524 C1522 1.320 . S
C1524 C1525 1.405 . S
C1524 H1550 0.930 . S
C1525 C1520 1.479 . S
C1525 C1524 1.405 . S
C1525 H1551 0.931 . S
U1526 O1527 2.454 . S
U1526 O1528 2.458 . S
U1526 C1529 2.984 . S
U1526 C1530 2.847 . S
U1526 C1543 2.882 . S
U1526 O1544 2.441 . S
U1526 O1545 2.420 . S
U1526 O1546 2.455 . S
U1526 O1547 2.449 . S
O1527 U1526 2.454 . S
O1527 C1529 1.353 . S
O1528 U1526 2.458 . S
O1528 C1529 1.286 . S
C1529 U1526 2.984 . S
C1529 O1527 1.353 . S
C1529 O1528 1.286 . S
C1529 C1531 1.363 . S
C1530 C1520 1.465 . S
C1530 U1526 2.847 . S
C1530 O1544 1.249 . S
C1530 O1545 1.202 . S
C1531 C1529 1.363 . S
C1531 C1533 1.408 . S
C1531 C1536 1.342 . S
C1532 C1533 1.310 . S
C1532 C1535 1.461 . S
C1532 H1552 0.932 . S
C1533 C1531 1.408 . S
C1533 C1532 1.310 . S
C1533 H1553 0.930 . S
C1534 C1535 1.474 . S
C1534 C1536 1.285 . S
C1534 H1554 0.929 . S
C1535 C1532 1.461 . S
C1535 C1534 1.474 . S
C1536 C1531 1.342 . S
C1536 C1534 1.285 . S
C1536 H1555 0.930 . S
C1537 C1540 1.424 . S
C1537 C1542 1.245 . S
C1537 C1543 1.428 . S
C1538 C1541 1.260 . S
C1538 C1542 1.477 . S
C1538 H1556 0.932 . S
C1539 C1540 1.384 . S
C1539 C1541 1.479 . S
C1539 H1557 0.929 . S
C1540 C1537 1.424 . S
C1540 C1539 1.384 . S
C1540 H1558 0.928 . S
C1541 C1538 1.260 . S
C1541 C1539 1.479 . S
C1542 C1537 1.245 . S
C1542 C1538 1.477 . S
C1542 H1559 0.932 . S
C1543 U1526 2.882 . S
C1543 C1537 1.428 . S
C1543 O1546 1.301 . S
C1543 O1547 1.282 . S
O1544 U1526 2.441 . S
O1544 C1530 1.249 . S
O1545 U1526 2.420 . S
O1545 C1530 1.202 . S
O1546 U1526 2.455 . S
O1546 C1543 1.301 . S
O1547 U1526 2.449 . S
O1547 C1543 1.282 . S
H1548 C1521 0.931 . S
H1549 C1523 0.929 . S
H1550 C1524 0.930 . S
H1551 C1525 0.931 . S
H1552 C1532 0.932 . S
H1553 C1533 0.930 . S
H1554 C1534 0.929 . S
H1555 C1536 0.930 . S
H1556 C1538 0.932 . S
H1557 C1539 0.929 . S
H1558 C1540 0.928 . S
H1559 C1542 0.932 . S
C1560 C1561 1.264 . S
C1560 C1565 1.479 . S
C1560 C1570 1.465 . S
C1561 C1560 1.264 . S
C1561 C1563 1.339 . S
C1561 H1588 0.931 . S
C1562 C1563 1.395 . S
C1562 C1564 1.320 . S
C1563 C1561 1.339 . S
C1563 C1562 1.395 . S
C1563 H1589 0.929 . S
C1564 C1562 1.320 . S
C1564 C1565 1.405 . S
C1564 H1590 0.930 . S
C1565 C1560 1.479 . S
C1565 C1564 1.405 . S
C1565 H1591 0.931 . S
U1566 O1567 2.454 . S
U1566 O1568 2.458 . S
U1566 C1569 2.984 . S
U1566 C1570 2.847 . S
U1566 C1583 2.882 . S
U1566 O1584 2.441 . S
U1566 O1585 2.420 . S
U1566 O1586 2.455 . S
U1566 O1587 2.449 . S
O1567 U1566 2.454 . S
O1567 C1569 1.353 . S
O1568 U1566 2.458 . S
O1568 C1569 1.286 . S
C1569 U1566 2.984 . S
C1569 O1567 1.353 . S
C1569 O1568 1.286 . S
C1569 C1571 1.363 . S
C1570 C1560 1.465 . S
C1570 U1566 2.847 . S
C1570 O1584 1.249 . S
C1570 O1585 1.202 . S
C1571 C1569 1.363 . S
C1571 C1573 1.408 . S
C1571 C1576 1.342 . S
C1572 C1573 1.310 . S
C1572 C1575 1.461 . S
C1572 H1592 0.932 . S
C1573 C1571 1.408 . S
C1573 C1572 1.310 . S
C1573 H1593 0.930 . S
C1574 C1575 1.474 . S
C1574 C1576 1.285 . S
C1574 H1594 0.929 . S
C1575 C1572 1.461 . S
C1575 C1574 1.474 . S
C1576 C1571 1.342 . S
C1576 C1574 1.285 . S
C1576 H1595 0.930 . S
C1577 C1580 1.424 . S
C1577 C1582 1.245 . S
C1577 C1583 1.428 . S
C1578 C1581 1.260 . S
C1578 C1582 1.477 . S
C1578 H1596 0.932 . S
C1579 C1580 1.384 . S
C1579 C1581 1.479 . S
C1579 H1597 0.929 . S
C1580 C1577 1.424 . S
C1580 C1579 1.384 . S
C1580 H1598 0.928 . S
C1581 C1578 1.260 . S
C1581 C1579 1.479 . S
C1582 C1577 1.245 . S
C1582 C1578 1.477 . S
C1582 H1599 0.932 . S
C1583 U1566 2.882 . S
C1583 C1577 1.428 . S
C1583 O1586 1.301 . S
C1583 O1587 1.282 . S
O1584 U1566 2.441 . S
O1584 C1570 1.249 . S
O1585 U1566 2.420 . S
O1585 C1570 1.202 . S
O1586 U1566 2.455 . S
O1586 C1583 1.301 . S
O1587 U1566 2.449 . S
O1587 C1583 1.282 . S
H1588 C1561 0.931 . S
H1589 C1563 0.929 . S
H1590 C1564 0.930 . S
H1591 C1565 0.931 . S
H1592 C1572 0.932 . S
H1593 C1573 0.930 . S
H1594 C1574 0.929 . S
H1595 C1576 0.930 . S
H1596 C1578 0.932 . S
H1597 C1579 0.929 . S
H1598 C1580 0.928 . S
H1599 C1582 0.932 . S
C1600 C1601 1.264 . S
C1600 C1605 1.479 . S
C1600 C1610 1.465 . S
C1601 C1600 1.264 . S
C1601 C1603 1.339 . S
C1601 H1628 0.931 . S
C1602 C1603 1.395 . S
C1602 C1604 1.320 . S
C1603 C1601 1.339 . S
C1603 C1602 1.395 . S
C1603 H1629 0.929 . S
C1604 C1602 1.320 . S
C1604 C1605 1.405 . S
C1604 H1630 0.930 . S
C1605 C1600 1.479 . S
C1605 C1604 1.405 . S
C1605 H1631 0.931 . S
U1606 O1607 2.454 . S
U1606 O1608 2.458 . S
U1606 C1609 2.984 . S
U1606 C1610 2.847 . S
U1606 C1623 2.882 . S
U1606 O1624 2.441 . S
U1606 O1625 2.420 . S
U1606 O1626 2.455 . S
U1606 O1627 2.449 . S
O1607 U1606 2.454 . S
O1607 C1609 1.353 . S
O1608 U1606 2.458 . S
O1608 C1609 1.286 . S
C1609 U1606 2.984 . S
C1609 O1607 1.353 . S
C1609 O1608 1.286 . S
C1609 C1611 1.363 . S
C1610 C1600 1.465 . S
C1610 U1606 2.847 . S
C1610 O1624 1.249 . S
C1610 O1625 1.202 . S
C1611 C1609 1.363 . S
C1611 C1613 1.408 . S
C1611 C1616 1.342 . S
C1612 C1613 1.310 . S
C1612 C1615 1.461 . S
C1612 H1632 0.932 . S
C1613 C1611 1.408 . S
C1613 C1612 1.310 . S
C1613 H1633 0.930 . S
C1614 C1615 1.474 . S
C1614 C1616 1.285 . S
C1614 H1634 0.929 . S
C1615 C1612 1.461 . S
C1615 C1614 1.474 . S
C1616 C1611 1.342 . S
C1616 C1614 1.285 . S
C1616 H1635 0.930 . S
C1617 C1620 1.424 . S
C1617 C1622 1.245 . S
C1617 C1623 1.428 . S
C1618 C1621 1.260 . S
C1618 C1622 1.477 . S
C1618 H1636 0.932 . S
C1619 C1620 1.384 . S
C1619 C1621 1.479 . S
C1619 H1637 0.929 . S
C1620 C1617 1.424 . S
C1620 C1619 1.384 . S
C1620 H1638 0.928 . S
C1621 C1618 1.260 . S
C1621 C1619 1.479 . S
C1622 C1617 1.245 . S
C1622 C1618 1.477 . S
C1622 H1639 0.932 . S
C1623 U1606 2.882 . S
C1623 C1617 1.428 . S
C1623 O1626 1.301 . S
C1623 O1627 1.282 . S
O1624 U1606 2.441 . S
O1624 C1610 1.249 . S
O1625 U1606 2.420 . S
O1625 C1610 1.202 . S
O1626 U1606 2.455 . S
O1626 C1623 1.301 . S
O1627 U1606 2.449 . S
O1627 C1623 1.282 . S
H1628 C1601 0.931 . S
H1629 C1603 0.929 . S
H1630 C1604 0.930 . S
H1631 C1605 0.931 . S
H1632 C1612 0.932 . S
H1633 C1613 0.930 . S
H1634 C1614 0.929 . S
H1635 C1616 0.930 . S
H1636 C1618 0.932 . S
H1637 C1619 0.929 . S
H1638 C1620 0.928 . S
H1639 C1622 0.932 . S
C1640 C1641 1.264 . S
C1640 C1645 1.479 . S
C1640 C1650 1.465 . S
C1641 C1640 1.264 . S
C1641 C1643 1.339 . S
C1641 H1668 0.931 . S
C1642 C1643 1.395 . S
C1642 C1644 1.320 . S
C1643 C1641 1.339 . S
C1643 C1642 1.395 . S
C1643 H1669 0.929 . S
C1644 C1642 1.320 . S
C1644 C1645 1.405 . S
C1644 H1670 0.930 . S
C1645 C1640 1.479 . S
C1645 C1644 1.405 . S
C1645 H1671 0.931 . S
U1646 O1647 2.454 . S
U1646 O1648 2.458 . S
U1646 C1649 2.984 . S
U1646 C1650 2.847 . S
U1646 C1663 2.882 . S
U1646 O1664 2.441 . S
U1646 O1665 2.420 . S
U1646 O1666 2.455 . S
U1646 O1667 2.449 . S
O1647 U1646 2.454 . S
O1647 C1649 1.353 . S
O1648 U1646 2.458 . S
O1648 C1649 1.286 . S
C1649 U1646 2.984 . S
C1649 O1647 1.353 . S
C1649 O1648 1.286 . S
C1649 C1651 1.363 . S
C1650 C1640 1.465 . S
C1650 U1646 2.847 . S
C1650 O1664 1.249 . S
C1650 O1665 1.202 . S
C1651 C1649 1.363 . S
C1651 C1653 1.408 . S
C1651 C1656 1.342 . S
C1652 C1653 1.310 . S
C1652 C1655 1.461 . S
C1652 H1672 0.932 . S
C1653 C1651 1.408 . S
C1653 C1652 1.310 . S
C1653 H1673 0.930 . S
C1654 C1655 1.474 . S
C1654 C1656 1.285 . S
C1654 H1674 0.929 . S
C1655 C1652 1.461 . S
C1655 C1654 1.474 . S
C1656 C1651 1.342 . S
C1656 C1654 1.285 . S
C1656 H1675 0.930 . S
C1657 C1660 1.424 . S
C1657 C1662 1.245 . S
C1657 C1663 1.428 . S
C1658 C1661 1.260 . S
C1658 C1662 1.477 . S
C1658 H1676 0.932 . S
C1659 C1660 1.384 . S
C1659 C1661 1.479 . S
C1659 H1677 0.929 . S
C1660 C1657 1.424 . S
C1660 C1659 1.384 . S
C1660 H1678 0.928 . S
C1661 C1658 1.260 . S
C1661 C1659 1.479 . S
C1662 C1657 1.245 . S
C1662 C1658 1.477 . S
C1662 H1679 0.932 . S
C1663 U1646 2.882 . S
C1663 C1657 1.428 . S
C1663 O1666 1.301 . S
C1663 O1667 1.282 . S
O1664 U1646 2.441 . S
O1664 C1650 1.249 . S
O1665 U1646 2.420 . S
O1665 C1650 1.202 . S
O1666 U1646 2.455 . S
O1666 C1663 1.301 . S
O1667 U1646 2.449 . S
O1667 C1663 1.282 . S
H1668 C1641 0.931 . S
H1669 C1643 0.929 . S
H1670 C1644 0.930 . S
H1671 C1645 0.931 . S
H1672 C1652 0.932 . S
H1673 C1653 0.930 . S
H1674 C1654 0.929 . S
H1675 C1656 0.930 . S
H1676 C1658 0.932 . S
H1677 C1659 0.929 . S
H1678 C1660 0.928 . S
H1679 C1662 0.932 . S
C1680 C1681 1.264 . S
C1680 C1685 1.479 . S
C1680 C1690 1.465 . S
C1681 C1680 1.264 . S
C1681 C1683 1.339 . S
C1681 H1708 0.931 . S
C1682 C1683 1.395 . S
C1682 C1684 1.320 . S
C1683 C1681 1.339 . S
C1683 C1682 1.395 . S
C1683 H1709 0.929 . S
C1684 C1682 1.320 . S
C1684 C1685 1.405 . S
C1684 H1710 0.930 . S
C1685 C1680 1.479 . S
C1685 C1684 1.405 . S
C1685 H1711 0.931 . S
U1686 O1687 2.454 . S
U1686 O1688 2.458 . S
U1686 C1689 2.984 . S
U1686 C1690 2.847 . S
U1686 C1703 2.882 . S
U1686 O1704 2.441 . S
U1686 O1705 2.420 . S
U1686 O1706 2.455 . S
U1686 O1707 2.449 . S
O1687 U1686 2.454 . S
O1687 C1689 1.353 . S
O1688 U1686 2.458 . S
O1688 C1689 1.286 . S
C1689 U1686 2.984 . S
C1689 O1687 1.353 . S
C1689 O1688 1.286 . S
C1689 C1691 1.363 . S
C1690 C1680 1.465 . S
C1690 U1686 2.847 . S
C1690 O1704 1.249 . S
C1690 O1705 1.202 . S
C1691 C1689 1.363 . S
C1691 C1693 1.408 . S
C1691 C1696 1.342 . S
C1692 C1693 1.310 . S
C1692 C1695 1.461 . S
C1692 H1712 0.932 . S
C1693 C1691 1.408 . S
C1693 C1692 1.310 . S
C1693 H1713 0.930 . S
C1694 C1695 1.474 . S
C1694 C1696 1.285 . S
C1694 H1714 0.929 . S
C1695 C1692 1.461 . S
C1695 C1694 1.474 . S
C1696 C1691 1.342 . S
C1696 C1694 1.285 . S
C1696 H1715 0.930 . S
C1697 C1700 1.424 . S
C1697 C1702 1.245 . S
C1697 C1703 1.428 . S
C1698 C1701 1.260 . S
C1698 C1702 1.477 . S
C1698 H1716 0.932 . S
C1699 C1700 1.384 . S
C1699 C1701 1.479 . S
C1699 H1717 0.929 . S
C1700 C1697 1.424 . S
C1700 C1699 1.384 . S
C1700 H1718 0.928 . S
C1701 C1698 1.260 . S
C1701 C1699 1.479 . S
C1702 C1697 1.245 . S
C1702 C1698 1.477 . S
C1702 H1719 0.932 . S
C1703 U1686 2.882 . S
C1703 C1697 1.428 . S
C1703 O1706 1.301 . S
C1703 O1707 1.282 . S
O1704 U1686 2.441 . S
O1704 C1690 1.249 . S
O1705 U1686 2.420 . S
O1705 C1690 1.202 . S
O1706 U1686 2.455 . S
O1706 C1703 1.301 . S
O1707 U1686 2.449 . S
O1707 C1703 1.282 . S
H1708 C1681 0.931 . S
H1709 C1683 0.929 . S
H1710 C1684 0.930 . S
H1711 C1685 0.931 . S
H1712 C1692 0.932 . S
H1713 C1693 0.930 . S
H1714 C1694 0.929 . S
H1715 C1696 0.930 . S
H1716 C1698 0.932 . S
H1717 C1699 0.929 . S
H1718 C1700 0.928 . S
H1719 C1702 0.932 . S
C1720 C1721 1.264 . S
C1720 C1725 1.479 . S
C1720 C1730 1.465 . S
C1721 C1720 1.264 . S
C1721 C1723 1.339 . S
C1721 H1748 0.931 . S
C1722 C1723 1.395 . S
C1722 C1724 1.320 . S
C1723 C1721 1.339 . S
C1723 C1722 1.395 . S
C1723 H1749 0.929 . S
C1724 C1722 1.320 . S
C1724 C1725 1.405 . S
C1724 H1750 0.930 . S
C1725 C1720 1.479 . S
C1725 C1724 1.405 . S
C1725 H1751 0.931 . S
U1726 O1727 2.454 . S
U1726 O1728 2.458 . S
U1726 C1729 2.984 . S
U1726 C1730 2.847 . S
U1726 C1743 2.882 . S
U1726 O1744 2.441 . S
U1726 O1745 2.420 . S
U1726 O1746 2.455 . S
U1726 O1747 2.449 . S
O1727 U1726 2.454 . S
O1727 C1729 1.353 . S
O1728 U1726 2.458 . S
O1728 C1729 1.286 . S
C1729 U1726 2.984 . S
C1729 O1727 1.353 . S
C1729 O1728 1.286 . S
C1729 C1731 1.363 . S
C1730 C1720 1.465 . S
C1730 U1726 2.847 . S
C1730 O1744 1.249 . S
C1730 O1745 1.202 . S
C1731 C1729 1.363 . S
C1731 C1733 1.408 . S
C1731 C1736 1.342 . S
C1732 C1733 1.310 . S
C1732 C1735 1.461 . S
C1732 H1752 0.932 . S
C1733 C1731 1.408 . S
C1733 C1732 1.310 . S
C1733 H1753 0.930 . S
C1734 C1735 1.474 . S
C1734 C1736 1.285 . S
C1734 H1754 0.929 . S
C1735 C1732 1.461 . S
C1735 C1734 1.474 . S
C1736 C1731 1.342 . S
C1736 C1734 1.285 . S
C1736 H1755 0.930 . S
C1737 C1740 1.424 . S
C1737 C1742 1.245 . S
C1737 C1743 1.428 . S
C1738 C1741 1.260 . S
C1738 C1742 1.477 . S
C1738 H1756 0.932 . S
C1739 C1740 1.384 . S
C1739 C1741 1.479 . S
C1739 H1757 0.929 . S
C1740 C1737 1.424 . S
C1740 C1739 1.384 . S
C1740 H1758 0.928 . S
C1741 C1738 1.260 . S
C1741 C1739 1.479 . S
C1742 C1737 1.245 . S
C1742 C1738 1.477 . S
C1742 H1759 0.932 . S
C1743 U1726 2.882 . S
C1743 C1737 1.428 . S
C1743 O1746 1.301 . S
C1743 O1747 1.282 . S
O1744 U1726 2.441 . S
O1744 C1730 1.249 . S
O1745 U1726 2.420 . S
O1745 C1730 1.202 . S
O1746 U1726 2.455 . S
O1746 C1743 1.301 . S
O1747 U1726 2.449 . S
O1747 C1743 1.282 . S
H1748 C1721 0.931 . S
H1749 C1723 0.929 . S
H1750 C1724 0.930 . S
H1751 C1725 0.931 . S
H1752 C1732 0.932 . S
H1753 C1733 0.930 . S
H1754 C1734 0.929 . S
H1755 C1736 0.930 . S
H1756 C1738 0.932 . S
H1757 C1739 0.929 . S
H1758 C1740 0.928 . S
H1759 C1742 0.932 . S
C1760 C1761 1.264 . S
C1760 C1765 1.479 . S
C1760 C1770 1.465 . S
C1761 C1760 1.264 . S
C1761 C1763 1.339 . S
C1761 H1788 0.931 . S
C1762 C1763 1.395 . S
C1762 C1764 1.320 . S
C1763 C1761 1.339 . S
C1763 C1762 1.395 . S
C1763 H1789 0.929 . S
C1764 C1762 1.320 . S
C1764 C1765 1.405 . S
C1764 H1790 0.930 . S
C1765 C1760 1.479 . S
C1765 C1764 1.405 . S
C1765 H1791 0.931 . S
U1766 O1767 2.454 . S
U1766 O1768 2.458 . S
U1766 C1769 2.984 . S
U1766 C1770 2.847 . S
U1766 C1783 2.882 . S
U1766 O1784 2.441 . S
U1766 O1785 2.420 . S
U1766 O1786 2.455 . S
U1766 O1787 2.449 . S
O1767 U1766 2.454 . S
O1767 C1769 1.353 . S
O1768 U1766 2.458 . S
O1768 C1769 1.286 . S
C1769 U1766 2.984 . S
C1769 O1767 1.353 . S
C1769 O1768 1.286 . S
C1769 C1771 1.363 . S
C1770 C1760 1.465 . S
C1770 U1766 2.847 . S
C1770 O1784 1.249 . S
C1770 O1785 1.202 . S
C1771 C1769 1.363 . S
C1771 C1773 1.408 . S
C1771 C1776 1.342 . S
C1772 C1773 1.310 . S
C1772 C1775 1.461 . S
C1772 H1792 0.932 . S
C1773 C1771 1.408 . S
C1773 C1772 1.310 . S
C1773 H1793 0.930 . S
C1774 C1775 1.474 . S
C1774 C1776 1.285 . S
C1774 H1794 0.929 . S
C1775 C1772 1.461 . S
C1775 C1774 1.474 . S
C1776 C1771 1.342 . S
C1776 C1774 1.285 . S
C1776 H1795 0.930 . S
C1777 C1780 1.424 . S
C1777 C1782 1.245 . S
C1777 C1783 1.428 . S
C1778 C1781 1.260 . S
C1778 C1782 1.477 . S
C1778 H1796 0.932 . S
C1779 C1780 1.384 . S
C1779 C1781 1.479 . S
C1779 H1797 0.929 . S
C1780 C1777 1.424 . S
C1780 C1779 1.384 . S
C1780 H1798 0.928 . S
C1781 C1778 1.260 . S
C1781 C1779 1.479 . S
C1782 C1777 1.245 . S
C1782 C1778 1.477 . S
C1782 H1799 0.932 . S
C1783 U1766 2.882 . S
C1783 C1777 1.428 . S
C1783 O1786 1.301 . S
C1783 O1787 1.282 . S
O1784 U1766 2.441 . S
O1784 C1770 1.249 . S
O1785 U1766 2.420 . S
O1785 C1770 1.202 . S
O1786 U1766 2.455 . S
O1786 C1783 1.301 . S
O1787 U1766 2.449 . S
O1787 C1783 1.282 . S
H1788 C1761 0.931 . S
H1789 C1763 0.929 . S
H1790 C1764 0.930 . S
H1791 C1765 0.931 . S
H1792 C1772 0.932 . S
H1793 C1773 0.930 . S
H1794 C1774 0.929 . S
H1795 C1776 0.930 . S
H1796 C1778 0.932 . S
H1797 C1779 0.929 . S
H1798 C1780 0.928 . S
H1799 C1782 0.932 . S
C1800 C1801 1.264 . S
C1800 C1805 1.479 . S
C1800 C1810 1.465 . S
C1801 C1800 1.264 . S
C1801 C1803 1.339 . S
C1801 H1828 0.931 . S
C1802 C1803 1.395 . S
C1802 C1804 1.320 . S
C1803 C1801 1.339 . S
C1803 C1802 1.395 . S
C1803 H1829 0.929 . S
C1804 C1802 1.320 . S
C1804 C1805 1.405 . S
C1804 H1830 0.930 . S
C1805 C1800 1.479 . S
C1805 C1804 1.405 . S
C1805 H1831 0.931 . S
U1806 O1807 2.454 . S
U1806 O1808 2.458 . S
U1806 C1809 2.984 . S
U1806 C1810 2.847 . S
U1806 C1823 2.882 . S
U1806 O1824 2.441 . S
U1806 O1825 2.420 . S
U1806 O1826 2.455 . S
U1806 O1827 2.449 . S
O1807 U1806 2.454 . S
O1807 C1809 1.353 . S
O1808 U1806 2.458 . S
O1808 C1809 1.286 . S
C1809 U1806 2.984 . S
C1809 O1807 1.353 . S
C1809 O1808 1.286 . S
C1809 C1811 1.363 . S
C1810 C1800 1.465 . S
C1810 U1806 2.847 . S
C1810 O1824 1.249 . S
C1810 O1825 1.202 . S
C1811 C1809 1.363 . S
C1811 C1813 1.408 . S
C1811 C1816 1.342 . S
C1812 C1813 1.310 . S
C1812 C1815 1.461 . S
C1812 H1832 0.932 . S
C1813 C1811 1.408 . S
C1813 C1812 1.310 . S
C1813 H1833 0.930 . S
C1814 C1815 1.474 . S
C1814 C1816 1.285 . S
C1814 H1834 0.929 . S
C1815 C1812 1.461 . S
C1815 C1814 1.474 . S
C1816 C1811 1.342 . S
C1816 C1814 1.285 . S
C1816 H1835 0.930 . S
C1817 C1820 1.424 . S
C1817 C1822 1.245 . S
C1817 C1823 1.428 . S
C1818 C1821 1.260 . S
C1818 C1822 1.477 . S
C1818 H1836 0.932 . S
C1819 C1820 1.384 . S
C1819 C1821 1.479 . S
C1819 H1837 0.929 . S
C1820 C1817 1.424 . S
C1820 C1819 1.384 . S
C1820 H1838 0.928 . S
C1821 C1818 1.260 . S
C1821 C1819 1.479 . S
C1822 C1817 1.245 . S
C1822 C1818 1.477 . S
C1822 H1839 0.932 . S
C1823 U1806 2.882 . S
C1823 C1817 1.428 . S
C1823 O1826 1.301 . S
C1823 O1827 1.282 . S
O1824 U1806 2.441 . S
O1824 C1810 1.249 . S
O1825 U1806 2.420 . S
O1825 C1810 1.202 . S
O1826 U1806 2.455 . S
O1826 C1823 1.301 . S
O1827 U1806 2.449 . S
O1827 C1823 1.282 . S
H1828 C1801 0.931 . S
H1829 C1803 0.929 . S
H1830 C1804 0.930 . S
H1831 C1805 0.931 . S
H1832 C1812 0.932 . S
H1833 C1813 0.930 . S
H1834 C1814 0.929 . S
H1835 C1816 0.930 . S
H1836 C1818 0.932 . S
H1837 C1819 0.929 . S
H1838 C1820 0.928 . S
H1839 C1822 0.932 . S
C1840 C1841 1.264 . S
C1840 C1845 1.479 . S
C1840 C1850 1.465 . S
C1841 C1840 1.264 . S
C1841 C1843 1.339 . S
C1841 H1868 0.931 . S
C1842 C1843 1.395 . S
C1842 C1844 1.320 . S
C1843 C1841 1.339 . S
C1843 C1842 1.395 . S
C1843 H1869 0.929 . S
C1844 C1842 1.320 . S
C1844 C1845 1.405 . S
C1844 H1870 0.930 . S
C1845 C1840 1.479 . S
C1845 C1844 1.405 . S
C1845 H1871 0.931 . S
U1846 O1847 2.454 . S
U1846 O1848 2.458 . S
U1846 C1849 2.984 . S
U1846 C1850 2.847 . S
U1846 C1863 2.882 . S
U1846 O1864 2.441 . S
U1846 O1865 2.420 . S
U1846 O1866 2.455 . S
U1846 O1867 2.449 . S
O1847 U1846 2.454 . S
O1847 C1849 1.353 . S
O1848 U1846 2.458 . S
O1848 C1849 1.286 . S
C1849 U1846 2.984 . S
C1849 O1847 1.353 . S
C1849 O1848 1.286 . S
C1849 C1851 1.363 . S
C1850 C1840 1.465 . S
C1850 U1846 2.847 . S
C1850 O1864 1.249 . S
C1850 O1865 1.202 . S
C1851 C1849 1.363 . S
C1851 C1853 1.408 . S
C1851 C1856 1.342 . S
C1852 C1853 1.310 . S
C1852 C1855 1.461 . S
C1852 H1872 0.932 . S
C1853 C1851 1.408 . S
C1853 C1852 1.310 . S
C1853 H1873 0.930 . S
C1854 C1855 1.474 . S
C1854 C1856 1.285 . S
C1854 H1874 0.929 . S
C1855 C1852 1.461 . S
C1855 C1854 1.474 . S
C1856 C1851 1.342 . S
C1856 C1854 1.285 . S
C1856 H1875 0.930 . S
C1857 C1860 1.424 . S
C1857 C1862 1.245 . S
C1857 C1863 1.428 . S
C1858 C1861 1.260 . S
C1858 C1862 1.477 . S
C1858 H1876 0.932 . S
C1859 C1860 1.384 . S
C1859 C1861 1.479 . S
C1859 H1877 0.929 . S
C1860 C1857 1.424 . S
C1860 C1859 1.384 . S
C1860 H1878 0.928 . S
C1861 C1858 1.260 . S
C1861 C1859 1.479 . S
C1862 C1857 1.245 . S
C1862 C1858 1.477 . S
C1862 H1879 0.932 . S
C1863 U1846 2.882 . S
C1863 C1857 1.428 . S
C1863 O1866 1.301 . S
C1863 O1867 1.282 . S
O1864 U1846 2.441 . S
O1864 C1850 1.249 . S
O1865 U1846 2.420 . S
O1865 C1850 1.202 . S
O1866 U1846 2.455 . S
O1866 C1863 1.301 . S
O1867 U1846 2.449 . S
O1867 C1863 1.282 . S
H1868 C1841 0.931 . S
H1869 C1843 0.929 . S
H1870 C1844 0.930 . S
H1871 C1845 0.931 . S
H1872 C1852 0.932 . S
H1873 C1853 0.930 . S
H1874 C1854 0.929 . S
H1875 C1856 0.930 . S
H1876 C1858 0.932 . S
H1877 C1859 0.929 . S
H1878 C1860 0.928 . S
H1879 C1862 0.932 . S
C1880 C1881 1.264 . S
C1880 C1885 1.479 . S
C1880 C1890 1.465 . S
C1881 C1880 1.264 . S
C1881 C1883 1.339 . S
C1881 H1908 0.931 . S
C1882 C1883 1.395 . S
C1882 C1884 1.320 . S
C1883 C1881 1.339 . S
C1883 C1882 1.395 . S
C1883 H1909 0.929 . S
C1884 C1882 1.320 . S
C1884 C1885 1.405 . S
C1884 H1910 0.930 . S
C1885 C1880 1.479 . S
C1885 C1884 1.405 . S
C1885 H1911 0.931 . S
U1886 O1887 2.454 . S
U1886 O1888 2.458 . S
U1886 C1889 2.984 . S
U1886 C1890 2.847 . S
U1886 C1903 2.882 . S
U1886 O1904 2.441 . S
U1886 O1905 2.420 . S
U1886 O1906 2.455 . S
U1886 O1907 2.449 . S
O1887 U1886 2.454 . S
O1887 C1889 1.353 . S
O1888 U1886 2.458 . S
O1888 C1889 1.286 . S
C1889 U1886 2.984 . S
C1889 O1887 1.353 . S
C1889 O1888 1.286 . S
C1889 C1891 1.363 . S
C1890 C1880 1.465 . S
C1890 U1886 2.847 . S
C1890 O1904 1.249 . S
C1890 O1905 1.202 . S
C1891 C1889 1.363 . S
C1891 C1893 1.408 . S
C1891 C1896 1.342 . S
C1892 C1893 1.310 . S
C1892 C1895 1.461 . S
C1892 H1912 0.932 . S
C1893 C1891 1.408 . S
C1893 C1892 1.310 . S
C1893 H1913 0.930 . S
C1894 C1895 1.474 . S
C1894 C1896 1.285 . S
C1894 H1914 0.929 . S
C1895 C1892 1.461 . S
C1895 C1894 1.474 . S
C1896 C1891 1.342 . S
C1896 C1894 1.285 . S
C1896 H1915 0.930 . S
C1897 C1900 1.424 . S
C1897 C1902 1.245 . S
C1897 C1903 1.428 . S
C1898 C1901 1.260 . S
C1898 C1902 1.477 . S
C1898 H1916 0.932 . S
C1899 C1900 1.384 . S
C1899 C1901 1.479 . S
C1899 H1917 0.929 . S
C1900 C1897 1.424 . S
C1900 C1899 1.384 . S
C1900 H1918 0.928 . S
C1901 C1898 1.260 . S
C1901 C1899 1.479 . S
C1902 C1897 1.245 . S
C1902 C1898 1.477 . S
C1902 H1919 0.932 . S
C1903 U1886 2.882 . S
C1903 C1897 1.428 . S
C1903 O1906 1.301 . S
C1903 O1907 1.282 . S
O1904 U1886 2.441 . S
O1904 C1890 1.249 . S
O1905 U1886 2.420 . S
O1905 C1890 1.202 . S
O1906 U1886 2.455 . S
O1906 C1903 1.301 . S
O1907 U1886 2.449 . S
O1907 C1903 1.282 . S
H1908 C1881 0.931 . S
H1909 C1883 0.929 . S
H1910 C1884 0.930 . S
H1911 C1885 0.931 . S
H1912 C1892 0.932 . S
H1913 C1893 0.930 . S
H1914 C1894 0.929 . S
H1915 C1896 0.930 . S
H1916 C1898 0.932 . S
H1917 C1899 0.929 . S
H1918 C1900 0.928 . S
H1919 C1902 0.932 . S
C1920 C1921 1.369 1_455 S
C1920 C1922 1.419 . S
C1920 H1924 0.930 . S
C1921 C1920 1.369 1_655 S
C1921 C1930 1.429 . S
C1922 C1920 1.419 . S
C1922 C1923 1.363 . S
C1922 H1925 0.929 . S
C1923 C1922 1.363 . S
C1923 C1929 1.428 1_455 S
H1924 C1920 0.930 . S
H1925 C1922 0.929 . S
S1926 N1927 1.613 . S
S1926 N1928 1.610 . S
N1927 S1926 1.613 . S
N1927 C1930 1.350 . S
N1928 S1926 1.610 . S
N1928 C1929 1.351 . S
C1929 C1923 1.428 1_655 S
C1929 N1928 1.351 . S
C1929 C1930 1.434 . S
C1930 C1921 1.429 . S
C1930 N1927 1.350 . S
C1930 C1929 1.434 . S
C1931 C1932 1.396 . S
C1931 C1933 1.393 1_545 S
C1931 H1935 0.930 . S
C1932 C1931 1.396 . S
C1932 C1941 1.429 . S
C1933 C1931 1.393 1_565 S
C1933 C1934 1.363 . S
C1933 H1936 0.929 . S
C1934 C1933 1.363 . S
C1934 C1940 1.442 . S
H1935 C1931 0.930 . S
H1936 C1933 0.929 . S
S1937 N1938 1.613 . S
S1937 N1939 1.612 . S
N1938 S1937 1.613 . S
N1938 C1941 1.350 . S
N1939 S1937 1.612 . S
N1939 C1940 1.350 1_545 S
C1940 C1934 1.442 . S
C1940 N1939 1.350 1_565 S
C1940 C1941 1.420 1_565 S
C1941 C1932 1.429 . S
C1941 N1938 1.350 . S
C1941 C1940 1.420 1_545 S
C1942 C1943 1.369 . S
C1942 C1944 1.434 . S
C1942 H1946 0.930 . S
C1943 C1942 1.369 . S
C1943 C1952 1.384 1_655 S
C1944 C1942 1.434 . S
C1944 C1945 1.346 1_655 S
C1944 H1947 0.927 . S
C1945 C1944 1.346 1_455 S
C1945 C1951 1.428 . S
H1946 C1942 0.930 . S
H1947 C1944 0.927 . S
S1948 N1949 1.613 . S
S1948 N1950 1.610 . S
N1949 S1948 1.613 . S
N1949 C1952 1.372 . S
N1950 S1948 1.610 . S
N1950 C1951 1.351 . S
C1951 C1945 1.428 . S
C1951 N1950 1.351 . S
C1951 C1952 1.476 . S
C1952 C1943 1.384 1_455 S
C1952 N1949 1.372 . S
C1952 C1951 1.476 . S
C1953 C1954 1.369 . S
C1953 C1955 1.419 . S
C1953 H1957 0.930 . S
C1954 C1953 1.369 . S
C1954 C1963 1.429 1_545 S
C1955 C1953 1.419 . S
C1955 C1956 1.363 1_545 S
C1955 H1958 0.929 . S
C1956 C1955 1.363 1_565 S
C1956 C1962 1.428 . S
H1957 C1953 0.930 . S
H1958 C1955 0.929 . S
S1959 N1960 1.613 . S
S1959 N1961 1.610 . S
N1960 S1959 1.613 . S
N1960 C1963 1.350 . S
N1961 S1959 1.610 . S
N1961 C1962 1.351 . S
C1962 C1956 1.428 . S
C1962 N1961 1.351 . S
C1962 C1963 1.434 . S
C1963 C1954 1.429 1_565 S
C1963 N1960 1.350 . S
C1963 C1962 1.434 . S
C1964 C1965 1.369 . S
C1964 C1966 1.419 . S
C1964 H1968 0.930 . S
C1965 C1964 1.369 . S
C1965 C1974 1.429 1_565 S
C1966 C1964 1.419 . S
C1966 C1967 1.363 1_565 S
C1966 H1969 0.929 . S
C1967 C1966 1.363 1_545 S
C1967 C1973 1.428 . S
H1968 C1964 0.930 . S
H1969 C1966 0.929 . S
S1970 N1971 1.613 . S
S1970 N1972 1.610 . S
N1971 S1970 1.613 . S
N1971 C1974 1.350 . S
N1972 S1970 1.610 . S
N1972 C1973 1.351 . S
C1973 C1967 1.428 . S
C1973 N1972 1.351 . S
C1973 C1974 1.434 . S
C1974 C1965 1.429 1_545 S
C1974 N1971 1.350 . S
C1974 C1973 1.434 . S
C1975 C1976 1.369 1_655 S
C1975 C1977 1.419 . S
C1975 H1979 0.930 . S
C1976 C1975 1.369 1_455 S
C1976 C1985 1.429 . S
C1977 C1975 1.419 . S
C1977 C1978 1.363 . S
C1977 H1980 0.929 . S
C1978 C1977 1.363 . S
C1978 C1984 1.428 1_655 S
H1979 C1975 0.930 . S
H1980 C1977 0.929 . S
S1981 N1982 1.613 . S
S1981 N1983 1.610 . S
N1982 S1981 1.613 . S
N1982 C1985 1.350 . S
N1983 S1981 1.610 . S
N1983 C1984 1.351 . S
C1984 C1978 1.428 1_455 S
C1984 N1983 1.351 . S
C1984 C1985 1.434 . S
C1985 C1976 1.429 . S
C1985 N1982 1.350 . S
C1985 C1984 1.434 . S
C1986 C1987 1.402 . S
C1986 C1988 1.388 1_565 S
C1986 H1990 0.938 . S
C1987 C1986 1.402 . S
C1987 C1996 1.429 . S
C1988 C1986 1.388 1_545 S
C1988 C1989 1.363 . S
C1988 H1991 0.929 . S
C1989 C1988 1.363 . S
C1989 C1995 1.448 . S
H1990 C1986 0.938 . S
H1991 C1988 0.929 . S
S1992 N1993 1.613 . S
S1992 N1994 1.605 1_565 S
N1993 S1992 1.613 . S
N1993 C1996 1.350 . S
N1994 S1992 1.605 1_545 S
N1994 C1995 1.350 . S
C1995 C1989 1.448 . S
C1995 N1994 1.350 . S
C1995 C1996 1.413 1_545 S
C1996 C1987 1.429 . S
C1996 N1993 1.350 . S
C1996 C1995 1.413 1_565 S
C1997 C1998 1.369 1_655 S
C1997 C1999 1.419 . S
C1997 H2001 0.930 . S
C1998 C1997 1.369 1_455 S
C1998 C2007 1.429 . S
C1999 C1997 1.419 . S
C1999 C2000 1.363 . S
C1999 H2002 0.929 . S
C2000 C1999 1.363 . S
C2000 C2006 1.428 1_655 S
H2001 C1997 0.930 . S
H2002 C1999 0.929 . S
S2003 N2004 1.613 . S
S2003 N2005 1.610 . S
N2004 S2003 1.613 . S
N2004 C2007 1.350 . S
N2005 S2003 1.610 . S
N2005 C2006 1.351 . S
C2006 C2000 1.428 1_455 S
C2006 N2005 1.351 . S
C2006 C2007 1.434 . S
C2007 C1998 1.429 . S
C2007 N2004 1.350 . S
C2007 C2006 1.434 . S
C2008 C2009 1.369 . S
C2008 C2010 1.419 . S
C2008 H2012 0.930 . S
C2009 C2008 1.369 . S
C2009 C2018 1.429 1_556 S
C2010 C2008 1.419 . S
C2010 C2011 1.363 1_556 S
C2010 H2013 0.929 . S
C2011 C2010 1.363 1_554 S
C2011 C2017 1.428 . S
H2012 C2008 0.930 . S
H2013 C2010 0.929 . S
S2014 N2015 1.613 . S
S2014 N2016 1.610 . S
N2015 S2014 1.613 . S
N2015 C2018 1.350 . S
N2016 S2014 1.610 . S
N2016 C2017 1.351 . S
C2017 C2011 1.428 . S
C2017 N2016 1.351 . S
C2017 C2018 1.434 . S
C2018 C2009 1.429 1_554 S
C2018 N2015 1.350 . S
C2018 C2017 1.434 . S
C2019 C2020 1.369 . S
C2019 C2021 1.419 . S
C2019 H2023 0.930 . S
C2020 C2019 1.369 . S
C2020 C2029 1.429 1_556 S
C2021 C2019 1.419 . S
C2021 C2022 1.363 1_556 S
C2021 H2024 0.929 . S
C2022 C2021 1.363 1_554 S
C2022 C2028 1.428 . S
H2023 C2019 0.930 . S
H2024 C2021 0.929 . S
S2025 N2026 1.613 . S
S2025 N2027 1.610 . S
N2026 S2025 1.613 . S
N2026 C2029 1.350 . S
N2027 S2025 1.610 . S
N2027 C2028 1.351 . S
C2028 C2022 1.428 . S
C2028 N2027 1.351 . S
C2028 C2029 1.434 . S
C2029 C2020 1.429 1_554 S
C2029 N2026 1.350 . S
C2029 C2028 1.434 . S
C2030 C2031 1.369 . S
C2030 C2032 1.434 . S
C2030 H2034 0.930 . S
C2031 C2030 1.369 . S
C2031 C2040 1.385 1_554 S
C2032 C2030 1.434 . S
C2032 C2033 1.347 1_554 S
C2032 H2035 0.927 . S
C2033 C2032 1.347 1_556 S
C2033 C2039 1.428 . S
H2034 C2030 0.930 . S
H2035 C2032 0.927 . S
S2036 N2037 1.613 . S
S2036 N2038 1.610 . S
N2037 S2036 1.613 . S
N2037 C2040 1.371 . S
N2038 S2036 1.610 . S
N2038 C2039 1.351 . S
C2039 C2033 1.428 . S
C2039 N2038 1.351 . S
C2039 C2040 1.475 . S
C2040 C2031 1.385 1_556 S
C2040 N2037 1.371 . S
C2040 C2039 1.475 . S
C2041 C2042 1.369 1_556 S
C2041 C2043 1.419 . S
C2041 H2045 0.930 . S
C2042 C2041 1.369 1_554 S
C2042 C2051 1.429 . S
C2043 C2041 1.419 . S
C2043 C2044 1.363 . S
C2043 H2046 0.929 . S
C2044 C2043 1.363 . S
C2044 C2050 1.428 1_556 S
H2045 C2041 0.930 . S
H2046 C2043 0.929 . S
S2047 N2048 1.613 . S
S2047 N2049 1.610 . S
N2048 S2047 1.613 . S
N2048 C2051 1.350 . S
N2049 S2047 1.610 . S
N2049 C2050 1.351 . S
C2050 C2044 1.428 1_554 S
C2050 N2049 1.351 . S
C2050 C2051 1.434 . S
C2051 C2042 1.429 . S
C2051 N2048 1.350 . S
C2051 C2050 1.434 . S
C2052 C2053 1.369 . S
C2052 C2054 1.419 1_565 S
C2052 H2056 0.930 . S
C2053 C2052 1.369 . S
C2053 C2062 1.429 . S
C2054 C2052 1.419 1_545 S
C2054 C2055 1.363 . S
C2054 H2057 0.929 . S
C2055 C2054 1.363 . S
C2055 C2061 1.428 . S
H2056 C2052 0.930 . S
H2057 C2054 0.929 . S
S2058 N2059 1.613 1_545 S
S2058 N2060 1.610 . S
N2059 S2058 1.613 1_565 S
N2059 C2062 1.350 . S
N2060 S2058 1.610 . S
N2060 C2061 1.351 . S
C2061 C2055 1.428 . S
C2061 N2060 1.351 . S
C2061 C2062 1.434 1_545 S
C2062 C2053 1.429 . S
C2062 N2059 1.350 . S
C2062 C2061 1.434 1_565 S
C2063 C2064 1.369 . S
C2063 C2065 1.419 1_455 S
C2063 H2067 0.930 . S
C2064 C2063 1.369 . S
C2064 C2073 1.429 . S
C2065 C2063 1.419 1_655 S
C2065 C2066 1.363 . S
C2065 H2068 0.929 . S
C2066 C2065 1.363 . S
C2066 C2072 1.428 . S
H2067 C2063 0.930 . S
H2068 C2065 0.929 . S
S2069 N2070 1.613 1_655 S
S2069 N2071 1.610 . S
N2070 S2069 1.613 1_455 S
N2070 C2073 1.350 . S
N2071 S2069 1.610 . S
N2071 C2072 1.351 . S
C2072 C2066 1.428 . S
C2072 N2071 1.351 . S
C2072 C2073 1.434 1_655 S
C2073 C2064 1.429 . S
C2073 N2070 1.350 . S
C2073 C2072 1.434 1_455 S
C2074 C2075 1.369 . S
C2074 C2076 1.419 1_565 S
C2074 H2078 0.930 . S
C2075 C2074 1.369 . S
C2075 C2084 1.429 . S
C2076 C2074 1.419 1_545 S
C2076 C2077 1.363 . S
C2076 H2079 0.929 . S
C2077 C2076 1.363 . S
C2077 C2083 1.428 . S
H2078 C2074 0.930 . S
H2079 C2076 0.929 . S
S2080 N2081 1.613 1_545 S
S2080 N2082 1.610 . S
N2081 S2080 1.613 1_565 S
N2081 C2084 1.350 . S
N2082 S2080 1.610 . S
N2082 C2083 1.351 . S
C2083 C2077 1.428 . S
C2083 N2082 1.351 . S
C2083 C2084 1.434 1_545 S
C2084 C2075 1.429 . S
C2084 N2081 1.350 . S
C2084 C2083 1.434 1_565 S
C2085 C2086 1.369 . S
C2085 C2087 1.419 1_455 S
C2085 H2089 0.930 . S
C2086 C2085 1.369 . S
C2086 C2095 1.429 . S
C2087 C2085 1.419 1_655 S
C2087 C2088 1.363 . S
C2087 H2090 0.929 . S
C2088 C2087 1.363 . S
C2088 C2094 1.428 . S
H2089 C2085 0.930 . S
H2090 C2087 0.929 . S
S2091 N2092 1.613 . S
S2091 N2093 1.610 1_455 S
N2092 S2091 1.613 . S
N2092 C2095 1.350 . S
N2093 S2091 1.610 1_655 S
N2093 C2094 1.351 . S
C2094 C2088 1.428 . S
C2094 N2093 1.351 . S
C2094 C2095 1.434 1_655 S
C2095 C2086 1.429 . S
C2095 N2092 1.350 . S
C2095 C2094 1.434 1_455 S
C2096 C2097 1.369 . S
C2096 C2098 1.419 1_556 S
C2096 H2100 0.930 . S
C2097 C2096 1.369 . S
C2097 C2106 1.429 . S
C2098 C2096 1.419 1_554 S
C2098 C2099 1.363 . S
C2098 H2101 0.929 . S
C2099 C2098 1.363 . S
C2099 C2105 1.428 . S
H2100 C2096 0.930 . S
H2101 C2098 0.929 . S
S2102 N2103 1.613 . S
S2102 N2104 1.610 1_556 S
N2103 S2102 1.613 . S
N2103 C2106 1.350 . S
N2104 S2102 1.610 1_554 S
N2104 C2105 1.351 . S
C2105 C2099 1.428 . S
C2105 N2104 1.351 . S
C2105 C2106 1.434 1_554 S
C2106 C2097 1.429 . S
C2106 N2103 1.350 . S
C2106 C2105 1.434 1_556 S
C2107 C2108 1.369 . S
C2107 C2109 1.419 1_556 S
C2107 H2111 0.930 . S
C2108 C2107 1.369 . S
C2108 C2117 1.429 . S
C2109 C2107 1.419 1_554 S
C2109 C2110 1.363 . S
C2109 H2112 0.929 . S
C2110 C2109 1.363 . S
C2110 C2116 1.428 . S
H2111 C2107 0.930 . S
H2112 C2109 0.929 . S
S2113 N2114 1.613 1_554 S
S2113 N2115 1.610 . S
N2114 S2113 1.613 1_556 S
N2114 C2117 1.350 . S
N2115 S2113 1.610 . S
N2115 C2116 1.351 . S
C2116 C2110 1.428 . S
C2116 N2115 1.351 . S
C2116 C2117 1.434 1_554 S
C2117 C2108 1.429 . S
C2117 N2114 1.350 . S
C2117 C2116 1.434 1_556 S
C2118 C2119 1.369 . S
C2118 C2120 1.419 1_556 S
C2118 H2122 0.930 . S
C2119 C2118 1.369 . S
C2119 C2128 1.429 . S
C2120 C2118 1.419 1_554 S
C2120 C2121 1.363 . S
C2120 H2123 0.929 . S
C2121 C2120 1.363 . S
C2121 C2127 1.428 . S
H2122 C2118 0.930 . S
H2123 C2120 0.929 . S
S2124 N2125 1.613 1_554 S
S2124 N2126 1.610 . S
N2125 S2124 1.613 1_556 S
N2125 C2128 1.350 . S
N2126 S2124 1.610 . S
N2126 C2127 1.351 . S
C2127 C2121 1.428 . S
C2127 N2126 1.351 . S
C2127 C2128 1.434 1_554 S
C2128 C2119 1.429 . S
C2128 N2125 1.350 . S
C2128 C2127 1.434 1_556 S
C2129 C2130 1.369 . S
C2129 C2131 1.419 1_554 S
C2129 H2133 0.930 . S
C2130 C2129 1.369 . S
C2130 C2139 1.429 . S
C2131 C2129 1.419 1_556 S
C2131 C2132 1.363 . S
C2131 H2134 0.929 . S
C2132 C2131 1.363 . S
C2132 C2138 1.428 . S
H2133 C2129 0.930 . S
H2134 C2131 0.929 . S
S2135 N2136 1.613 1_556 S
S2135 N2137 1.610 . S
N2136 S2135 1.613 1_554 S
N2136 C2139 1.350 . S
N2137 S2135 1.610 . S
N2137 C2138 1.351 . S
C2138 C2132 1.428 . S
C2138 N2137 1.351 . S
C2138 C2139 1.434 1_556 S
C2139 C2130 1.429 . S
C2139 N2136 1.350 . S
C2139 C2138 1.434 1_554 S
C2140 C2141 1.369 . S
C2140 C2142 1.419 1_455 S
C2140 H2144 0.930 . S
C2141 C2140 1.369 . S
C2141 C2150 1.429 . S
C2142 C2140 1.419 1_655 S
C2142 C2143 1.363 . S
C2142 H2145 0.929 . S
C2143 C2142 1.363 . S
C2143 C2149 1.428 . S
H2144 C2140 0.930 . S
H2145 C2142 0.929 . S
S2146 N2147 1.613 1_655 S
S2146 N2148 1.610 . S
N2147 S2146 1.613 1_455 S
N2147 C2150 1.350 . S
N2148 S2146 1.610 . S
N2148 C2149 1.351 . S
C2149 C2143 1.428 . S
C2149 N2148 1.351 . S
C2149 C2150 1.434 1_655 S
C2150 C2141 1.429 . S
C2150 N2147 1.350 . S
C2150 C2149 1.434 1_455 S
C2151 C2152 1.369 . S
C2151 C2153 1.419 1_455 S
C2151 H2155 0.930 . S
C2152 C2151 1.369 . S
C2152 C2161 1.429 . S
C2153 C2151 1.419 1_655 S
C2153 C2154 1.363 . S
C2153 H2156 0.929 . S
C2154 C2153 1.363 . S
C2154 C2160 1.428 . S
H2155 C2151 0.930 . S
H2156 C2153 0.929 . S
S2157 N2158 1.658 . S
S2157 N2159 1.564 1_455 S
N2158 S2157 1.658 . S
N2158 C2161 1.350 . S
N2159 S2157 1.564 1_655 S
N2159 C2160 1.351 . S
C2160 C2154 1.428 . S
C2160 N2159 1.351 . S
C2160 C2161 1.434 1_655 S
C2161 C2152 1.429 . S
C2161 N2158 1.350 . S
C2161 C2160 1.434 1_455 S
C2162 C2163 1.369 . S
C2162 C2164 1.419 1_545 S
C2162 H2166 0.930 . S
C2163 C2162 1.369 . S
C2163 C2172 1.429 . S
C2164 C2162 1.419 1_565 S
C2164 C2165 1.363 . S
C2164 H2167 0.929 . S
C2165 C2164 1.363 . S
C2165 C2171 1.428 . S
H2166 C2162 0.930 . S
H2167 C2164 0.929 . S
S2168 N2169 1.613 1_565 S
S2168 N2170 1.610 . S
N2169 S2168 1.613 1_545 S
N2169 C2172 1.350 . S
N2170 S2168 1.610 . S
N2170 C2171 1.351 . S
C2171 C2165 1.428 . S
C2171 N2170 1.351 . S
C2171 C2172 1.434 1_565 S
C2172 C2163 1.429 . S
C2172 N2169 1.350 . S
C2172 C2171 1.434 1_545 S
C2173 C2174 1.369 . S
C2173 C2175 1.419 1_565 S
C2173 H2177 0.930 . S
C2174 C2173 1.369 . S
C2174 C2183 1.429 . S
C2175 C2173 1.419 1_545 S
C2175 C2176 1.363 . S
C2175 H2178 0.929 . S
C2176 C2175 1.363 . S
C2176 C2182 1.428 . S
H2177 C2173 0.930 . S
H2178 C2175 0.929 . S
S2179 N2180 1.684 . S
S2179 N2181 1.538 1_565 S
N2180 S2179 1.684 . S
N2180 C2183 1.350 . S
N2181 S2179 1.538 1_545 S
N2181 C2182 1.351 . S
C2182 C2176 1.428 . S
C2182 N2181 1.351 . S
C2182 C2183 1.434 1_545 S
C2183 C2174 1.429 . S
C2183 N2180 1.350 . S
C2183 C2182 1.434 1_565 S
C2184 C2185 1.369 . S
C2184 C2186 1.419 . S
C2184 H2188 0.930 . S
C2185 C2184 1.369 . S
C2185 C2194 1.429 . S
C2186 C2184 1.419 . S
C2186 C2187 1.363 . S
C2186 H2189 0.929 . S
C2187 C2186 1.363 . S
C2187 C2193 1.428 . S
H2188 C2184 0.930 . S
H2189 C2186 0.929 . S
S2190 N2191 1.613 . S
S2190 N2192 1.610 . S
N2191 S2190 1.613 . S
N2191 C2194 1.350 . S
N2192 S2190 1.610 . S
N2192 C2193 1.351 . S
C2193 C2187 1.428 . S
C2193 N2192 1.351 . S
C2193 C2194 1.434 . S
C2194 C2185 1.429 . S
C2194 N2191 1.350 . S
C2194 C2193 1.434 . S
C2195 C2196 1.369 . S
C2195 C2197 1.419 . S
C2195 H2199 0.930 . S
C2196 C2195 1.369 . S
C2196 C2205 1.429 . S
C2197 C2195 1.419 . S
C2197 C2198 1.363 . S
C2197 H2200 0.929 . S
C2198 C2197 1.363 . S
C2198 C2204 1.428 . S
H2199 C2195 0.930 . S
H2200 C2197 0.929 . S
S2201 N2202 1.613 . S
S2201 N2203 1.610 . S
N2202 S2201 1.613 . S
N2202 C2205 1.350 . S
N2203 S2201 1.610 . S
N2203 C2204 1.351 . S
C2204 C2198 1.428 . S
C2204 N2203 1.351 . S
C2204 C2205 1.434 . S
C2205 C2196 1.429 . S
C2205 N2202 1.350 . S
C2205 C2204 1.434 . S
C2206 C2207 1.369 . S
C2206 C2208 1.419 . S
C2206 H2210 0.930 . S
C2207 C2206 1.369 . S
C2207 C2216 1.429 . S
C2208 C2206 1.419 . S
C2208 C2209 1.363 . S
C2208 H2211 0.929 . S
C2209 C2208 1.363 . S
C2209 C2215 1.428 . S
H2210 C2206 0.930 . S
H2211 C2208 0.929 . S
S2212 N2213 1.613 . S
S2212 N2214 1.610 . S
N2213 S2212 1.613 . S
N2213 C2216 1.350 . S
N2214 S2212 1.610 . S
N2214 C2215 1.351 . S
C2215 C2209 1.428 . S
C2215 N2214 1.351 . S
C2215 C2216 1.434 . S
C2216 C2207 1.429 . S
C2216 N2213 1.350 . S
C2216 C2215 1.434 . S
C2217 C2218 1.369 . S
C2217 C2219 1.419 . S
C2217 H2221 0.930 . S
C2218 C2217 1.369 . S
C2218 C2227 1.429 . S
C2219 C2217 1.419 . S
C2219 C2220 1.363 . S
C2219 H2222 0.929 . S
C2220 C2219 1.363 . S
C2220 C2226 1.428 . S
H2221 C2217 0.930 . S
H2222 C2219 0.929 . S
S2223 N2224 1.613 . S
S2223 N2225 1.610 . S
N2224 S2223 1.613 . S
N2224 C2227 1.350 . S
N2225 S2223 1.610 . S
N2225 C2226 1.351 . S
C2226 C2220 1.428 . S
C2226 N2225 1.351 . S
C2226 C2227 1.434 . S
C2227 C2218 1.429 . S
C2227 N2224 1.350 . S
C2227 C2226 1.434 . S
C2228 C2229 1.369 . S
C2228 C2230 1.419 . S
C2228 H2232 0.930 . S
C2229 C2228 1.369 . S
C2229 C2238 1.429 . S
C2230 C2228 1.419 . S
C2230 C2231 1.363 . S
C2230 H2233 0.929 . S
C2231 C2230 1.363 . S
C2231 C2237 1.428 . S
H2232 C2228 0.930 . S
H2233 C2230 0.929 . S
S2234 N2235 1.613 . S
S2234 N2236 1.610 . S
N2235 S2234 1.613 . S
N2235 C2238 1.350 . S
N2236 S2234 1.610 . S
N2236 C2237 1.351 . S
C2237 C2231 1.428 . S
C2237 N2236 1.351 . S
C2237 C2238 1.434 . S
C2238 C2229 1.429 . S
C2238 N2235 1.350 . S
C2238 C2237 1.434 . S
C2239 C2240 1.369 . S
C2239 C2241 1.419 . S
C2239 H2243 0.930 . S
C2240 C2239 1.369 . S
C2240 C2249 1.429 . S
C2241 C2239 1.419 . S
C2241 C2242 1.363 . S
C2241 H2244 0.929 . S
C2242 C2241 1.363 . S
C2242 C2248 1.428 . S
H2243 C2239 0.930 . S
H2244 C2241 0.929 . S
S2245 N2246 1.613 . S
S2245 N2247 1.610 . S
N2246 S2245 1.613 . S
N2246 C2249 1.350 . S
N2247 S2245 1.610 . S
N2247 C2248 1.351 . S
C2248 C2242 1.428 . S
C2248 N2247 1.351 . S
C2248 C2249 1.434 . S
C2249 C2240 1.429 . S
C2249 N2246 1.350 . S
C2249 C2248 1.434 . S
C2250 C2251 1.369 . S
C2250 C2252 1.419 . S
C2250 H2254 0.930 . S
C2251 C2250 1.369 . S
C2251 C2260 1.429 . S
C2252 C2250 1.419 . S
C2252 C2253 1.363 . S
C2252 H2255 0.929 . S
C2253 C2252 1.363 . S
C2253 C2259 1.428 . S
H2254 C2250 0.930 . S
H2255 C2252 0.929 . S
S2256 N2257 1.613 . S
S2256 N2258 1.610 . S
N2257 S2256 1.613 . S
N2257 C2260 1.350 . S
N2258 S2256 1.610 . S
N2258 C2259 1.351 . S
C2259 C2253 1.428 . S
C2259 N2258 1.351 . S
C2259 C2260 1.434 . S
C2260 C2251 1.429 . S
C2260 N2257 1.350 . S
C2260 C2259 1.434 . S
C2261 C2262 1.369 . S
C2261 C2263 1.419 . S
C2261 H2265 0.930 . S
C2262 C2261 1.369 . S
C2262 C2271 1.429 . S
C2263 C2261 1.419 . S
C2263 C2264 1.363 . S
C2263 H2266 0.929 . S
C2264 C2263 1.363 . S
C2264 C2270 1.428 . S
H2265 C2261 0.930 . S
H2266 C2263 0.929 . S
S2267 N2268 1.613 . S
S2267 N2269 1.610 . S
N2268 S2267 1.613 . S
N2268 C2271 1.350 . S
N2269 S2267 1.610 . S
N2269 C2270 1.351 . S
C2270 C2264 1.428 . S
C2270 N2269 1.351 . S
C2270 C2271 1.434 . S
C2271 C2262 1.429 . S
C2271 N2268 1.350 . S
C2271 C2270 1.434 . S
C2272 C2273 1.369 . S
C2272 C2274 1.419 . S
C2272 H2276 0.930 . S
C2273 C2272 1.369 . S
C2273 C2282 1.429 . S
C2274 C2272 1.419 . S
C2274 C2275 1.363 . S
C2274 H2277 0.929 . S
C2275 C2274 1.363 . S
C2275 C2281 1.428 . S
H2276 C2272 0.930 . S
H2277 C2274 0.929 . S
S2278 N2279 1.613 . S
S2278 N2280 1.610 . S
N2279 S2278 1.613 . S
N2279 C2282 1.350 . S
N2280 S2278 1.610 . S
N2280 C2281 1.351 . S
C2281 C2275 1.428 . S
C2281 N2280 1.351 . S
C2281 C2282 1.434 . S
C2282 C2273 1.429 . S
C2282 N2279 1.350 . S
C2282 C2281 1.434 . S
C2283 C2284 1.369 . S
C2283 C2285 1.419 . S
C2283 H2287 0.930 . S
C2284 C2283 1.369 . S
C2284 C2293 1.429 . S
C2285 C2283 1.419 . S
C2285 C2286 1.363 . S
C2285 H2288 0.929 . S
C2286 C2285 1.363 . S
C2286 C2292 1.428 . S
H2287 C2283 0.930 . S
H2288 C2285 0.929 . S
S2289 N2290 1.613 . S
S2289 N2291 1.610 . S
N2290 S2289 1.613 . S
N2290 C2293 1.350 . S
N2291 S2289 1.610 . S
N2291 C2292 1.351 . S
C2292 C2286 1.428 . S
C2292 N2291 1.351 . S
C2292 C2293 1.434 . S
C2293 C2284 1.429 . S
C2293 N2290 1.350 . S
C2293 C2292 1.434 . S
C2294 C2295 1.369 . S
C2294 C2296 1.419 . S
C2294 H2298 0.930 . S
C2295 C2294 1.369 . S
C2295 C2304 1.429 . S
C2296 C2294 1.419 . S
C2296 C2297 1.363 . S
C2296 H2299 0.929 . S
C2297 C2296 1.363 . S
C2297 C2303 1.428 . S
H2298 C2294 0.930 . S
H2299 C2296 0.929 . S
S2300 N2301 1.613 . S
S2300 N2302 1.610 . S
N2301 S2300 1.613 . S
N2301 C2304 1.350 . S
N2302 S2300 1.610 . S
N2302 C2303 1.351 . S
C2303 C2297 1.428 . S
C2303 N2302 1.351 . S
C2303 C2304 1.434 . S
C2304 C2295 1.429 . S
C2304 N2301 1.350 . S
C2304 C2303 1.434 . S
C2305 C2306 1.369 . S
C2305 C2307 1.419 . S
C2305 H2309 0.930 . S
C2306 C2305 1.369 . S
C2306 C2315 1.429 . S
C2307 C2305 1.419 . S
C2307 C2308 1.363 . S
C2307 H2310 0.929 . S
C2308 C2307 1.363 . S
C2308 C2314 1.428 . S
H2309 C2305 0.930 . S
H2310 C2307 0.929 . S
S2311 N2312 1.613 . S
S2311 N2313 1.610 . S
N2312 S2311 1.613 . S
N2312 C2315 1.350 . S
N2313 S2311 1.610 . S
N2313 C2314 1.351 . S
C2314 C2308 1.428 . S
C2314 N2313 1.351 . S
C2314 C2315 1.434 . S
C2315 C2306 1.429 . S
C2315 N2312 1.350 . S
C2315 C2314 1.434 . S
C2316 C2317 1.369 . S
C2316 C2318 1.419 . S
C2316 H2320 0.930 . S
C2317 C2316 1.369 . S
C2317 C2326 1.429 . S
C2318 C2316 1.419 . S
C2318 C2319 1.363 . S
C2318 H2321 0.929 . S
C2319 C2318 1.363 . S
C2319 C2325 1.428 . S
H2320 C2316 0.930 . S
H2321 C2318 0.929 . S
S2322 N2323 1.613 . S
S2322 N2324 1.610 . S
N2323 S2322 1.613 . S
N2323 C2326 1.350 . S
N2324 S2322 1.610 . S
N2324 C2325 1.351 . S
C2325 C2319 1.428 . S
C2325 N2324 1.351 . S
C2325 C2326 1.434 . S
C2326 C2317 1.429 . S
C2326 N2323 1.350 . S
C2326 C2325 1.434 . S
C2327 C2328 1.369 . S
C2327 C2329 1.419 . S
C2327 H2331 0.930 . S
C2328 C2327 1.369 . S
C2328 C2337 1.429 . S
C2329 C2327 1.419 . S
C2329 C2330 1.363 . S
C2329 H2332 0.929 . S
C2330 C2329 1.363 . S
C2330 C2336 1.428 . S
H2331 C2327 0.930 . S
H2332 C2329 0.929 . S
S2333 N2334 1.613 . S
S2333 N2335 1.610 . S
N2334 S2333 1.613 . S
N2334 C2337 1.350 . S
N2335 S2333 1.610 . S
N2335 C2336 1.351 . S
C2336 C2330 1.428 . S
C2336 N2335 1.351 . S
C2336 C2337 1.434 . S
C2337 C2328 1.429 . S
C2337 N2334 1.350 . S
C2337 C2336 1.434 . S
C2338 C2339 1.369 . S
C2338 C2340 1.419 . S
C2338 H2342 0.930 . S
C2339 C2338 1.369 . S
C2339 C2348 1.429 . S
C2340 C2338 1.419 . S
C2340 C2341 1.363 . S
C2340 H2343 0.929 . S
C2341 C2340 1.363 . S
C2341 C2347 1.428 . S
H2342 C2338 0.930 . S
H2343 C2340 0.929 . S
S2344 N2345 1.613 . S
S2344 N2346 1.610 . S
N2345 S2344 1.613 . S
N2345 C2348 1.350 . S
N2346 S2344 1.610 . S
N2346 C2347 1.351 . S
C2347 C2341 1.428 . S
C2347 N2346 1.351 . S
C2347 C2348 1.434 . S
C2348 C2339 1.429 . S
C2348 N2345 1.350 . S
C2348 C2347 1.434 . S
C2349 C2350 1.369 . S
C2349 C2351 1.419 . S
C2349 H2353 0.930 . S
C2350 C2349 1.369 . S
C2350 C2359 1.429 . S
C2351 C2349 1.419 . S
C2351 C2352 1.363 . S
C2351 H2354 0.929 . S
C2352 C2351 1.363 . S
C2352 C2358 1.428 . S
H2353 C2349 0.930 . S
H2354 C2351 0.929 . S
S2355 N2356 1.613 . S
S2355 N2357 1.610 . S
N2356 S2355 1.613 . S
N2356 C2359 1.350 . S
N2357 S2355 1.610 . S
N2357 C2358 1.351 . S
C2358 C2352 1.428 . S
C2358 N2357 1.351 . S
C2358 C2359 1.434 . S
C2359 C2350 1.429 . S
C2359 N2356 1.350 . S
C2359 C2358 1.434 . S
C2360 C2361 1.369 . S
C2360 C2362 1.419 . S
C2360 H2364 0.930 . S
C2361 C2360 1.369 . S
C2361 C2370 1.429 . S
C2362 C2360 1.419 . S
C2362 C2363 1.363 . S
C2362 H2365 0.929 . S
C2363 C2362 1.363 . S
C2363 C2369 1.428 . S
H2364 C2360 0.930 . S
H2365 C2362 0.929 . S
S2366 N2367 1.613 . S
S2366 N2368 1.610 . S
N2367 S2366 1.613 . S
N2367 C2370 1.350 . S
N2368 S2366 1.610 . S
N2368 C2369 1.351 . S
C2369 C2363 1.428 . S
C2369 N2368 1.351 . S
C2369 C2370 1.434 . S
C2370 C2361 1.429 . S
C2370 N2367 1.350 . S
C2370 C2369 1.434 . S
C2371 C2372 1.369 . S
C2371 C2373 1.419 . S
C2371 H2375 0.930 . S
C2372 C2371 1.369 . S
C2372 C2381 1.429 . S
C2373 C2371 1.419 . S
C2373 C2374 1.363 . S
C2373 H2376 0.929 . S
C2374 C2373 1.363 . S
C2374 C2380 1.428 . S
H2375 C2371 0.930 . S
H2376 C2373 0.929 . S
S2377 N2378 1.613 . S
S2377 N2379 1.610 . S
N2378 S2377 1.613 . S
N2378 C2381 1.350 . S
N2379 S2377 1.610 . S
N2379 C2380 1.351 . S
C2380 C2374 1.428 . S
C2380 N2379 1.351 . S
C2380 C2381 1.434 . S
C2381 C2372 1.429 . S
C2381 N2378 1.350 . S
C2381 C2380 1.434 . S
C2382 C2383 1.369 . S
C2382 C2384 1.419 . S
C2382 H2386 0.930 . S
C2383 C2382 1.369 . S
C2383 C2392 1.429 . S
C2384 C2382 1.419 . S
C2384 C2385 1.363 . S
C2384 H2387 0.929 . S
C2385 C2384 1.363 . S
C2385 C2391 1.428 . S
H2386 C2382 0.930 . S
H2387 C2384 0.929 . S
S2388 N2389 1.613 . S
S2388 N2390 1.610 . S
N2389 S2388 1.613 . S
N2389 C2392 1.350 . S
N2390 S2388 1.610 . S
N2390 C2391 1.351 . S
C2391 C2385 1.428 . S
C2391 N2390 1.351 . S
C2391 C2392 1.434 . S
C2392 C2383 1.429 . S
C2392 N2389 1.350 . S
C2392 C2391 1.434 . S
C2393 C2394 1.369 . S
C2393 C2395 1.419 . S
C2393 H2397 0.930 . S
C2394 C2393 1.369 . S
C2394 C2403 1.429 . S
C2395 C2393 1.419 . S
C2395 C2396 1.363 . S
C2395 H2398 0.929 . S
C2396 C2395 1.363 . S
C2396 C2402 1.428 . S
H2397 C2393 0.930 . S
H2398 C2395 0.929 . S
S2399 N2400 1.613 . S
S2399 N2401 1.610 . S
N2400 S2399 1.613 . S
N2400 C2403 1.350 . S
N2401 S2399 1.610 . S
N2401 C2402 1.351 . S
C2402 C2396 1.428 . S
C2402 N2401 1.351 . S
C2402 C2403 1.434 . S
C2403 C2394 1.429 . S
C2403 N2400 1.350 . S
C2403 C2402 1.434 . S
C2404 C2405 1.369 . S
C2404 C2406 1.419 . S
C2404 H2408 0.930 . S
C2405 C2404 1.369 . S
C2405 C2414 1.429 . S
C2406 C2404 1.419 . S
C2406 C2407 1.363 . S
C2406 H2409 0.929 . S
C2407 C2406 1.363 . S
C2407 C2413 1.428 . S
H2408 C2404 0.930 . S
H2409 C2406 0.929 . S
S2410 N2411 1.613 . S
S2410 N2412 1.610 . S
N2411 S2410 1.613 . S
N2411 C2414 1.350 . S
N2412 S2410 1.610 . S
N2412 C2413 1.351 . S
C2413 C2407 1.428 . S
C2413 N2412 1.351 . S
C2413 C2414 1.434 . S
C2414 C2405 1.429 . S
C2414 N2411 1.350 . S
C2414 C2413 1.434 . S
C2415 C2416 1.369 . S
C2415 C2417 1.419 . S
C2415 H2419 0.930 . S
C2416 C2415 1.369 . S
C2416 C2425 1.429 . S
C2417 C2415 1.419 . S
C2417 C2418 1.363 . S
C2417 H2420 0.929 . S
C2418 C2417 1.363 . S
C2418 C2424 1.428 . S
H2419 C2415 0.930 . S
H2420 C2417 0.929 . S
S2421 N2422 1.613 . S
S2421 N2423 1.610 . S
N2422 S2421 1.613 . S
N2422 C2425 1.350 . S
N2423 S2421 1.610 . S
N2423 C2424 1.351 . S
C2424 C2418 1.428 . S
C2424 N2423 1.351 . S
C2424 C2425 1.434 . S
C2425 C2416 1.429 . S
C2425 N2422 1.350 . S
C2425 C2424 1.434 . S
C2426 C2427 1.369 . S
C2426 C2428 1.419 . S
C2426 H2430 0.930 . S
C2427 C2426 1.369 . S
C2427 C2436 1.429 . S
C2428 C2426 1.419 . S
C2428 C2429 1.363 . S
C2428 H2431 0.929 . S
C2429 C2428 1.363 . S
C2429 C2435 1.428 . S
H2430 C2426 0.930 . S
H2431 C2428 0.929 . S
S2432 N2433 1.613 . S
S2432 N2434 1.610 . S
N2433 S2432 1.613 . S
N2433 C2436 1.350 . S
N2434 S2432 1.610 . S
N2434 C2435 1.351 . S
C2435 C2429 1.428 . S
C2435 N2434 1.351 . S
C2435 C2436 1.434 . S
C2436 C2427 1.429 . S
C2436 N2433 1.350 . S
C2436 C2435 1.434 . S
C2437 C2438 1.369 . S
C2437 C2439 1.419 . S
C2437 H2441 0.930 . S
C2438 C2437 1.369 . S
C2438 C2447 1.429 . S
C2439 C2437 1.419 . S
C2439 C2440 1.363 . S
C2439 H2442 0.929 . S
C2440 C2439 1.363 . S
C2440 C2446 1.428 . S
H2441 C2437 0.930 . S
H2442 C2439 0.929 . S
S2443 N2444 1.613 . S
S2443 N2445 1.610 . S
N2444 S2443 1.613 . S
N2444 C2447 1.350 . S
N2445 S2443 1.610 . S
N2445 C2446 1.351 . S
C2446 C2440 1.428 . S
C2446 N2445 1.351 . S
C2446 C2447 1.434 . S
C2447 C2438 1.429 . S
C2447 N2444 1.350 . S
C2447 C2446 1.434 . S
C2448 C2449 1.369 . S
C2448 C2450 1.419 . S
C2448 H2452 0.930 . S
C2449 C2448 1.369 . S
C2449 C2458 1.429 . S
C2450 C2448 1.419 . S
C2450 C2451 1.363 . S
C2450 H2453 0.929 . S
C2451 C2450 1.363 . S
C2451 C2457 1.428 . S
H2452 C2448 0.930 . S
H2453 C2450 0.929 . S
S2454 N2455 1.613 . S
S2454 N2456 1.610 . S
N2455 S2454 1.613 . S
N2455 C2458 1.350 . S
N2456 S2454 1.610 . S
N2456 C2457 1.351 . S
C2457 C2451 1.428 . S
C2457 N2456 1.351 . S
C2457 C2458 1.434 . S
C2458 C2449 1.429 . S
C2458 N2455 1.350 . S
C2458 C2457 1.434 . S
C2459 C2460 1.369 . S
C2459 C2461 1.419 . S
C2459 H2463 0.930 . S
C2460 C2459 1.369 . S
C2460 C2469 1.429 . S
C2461 C2459 1.419 . S
C2461 C2462 1.363 . S
C2461 H2464 0.929 . S
C2462 C2461 1.363 . S
C2462 C2468 1.428 . S
H2463 C2459 0.930 . S
H2464 C2461 0.929 . S
S2465 N2466 1.613 . S
S2465 N2467 1.610 . S
N2466 S2465 1.613 . S
N2466 C2469 1.350 . S
N2467 S2465 1.610 . S
N2467 C2468 1.351 . S
C2468 C2462 1.428 . S
C2468 N2467 1.351 . S
C2468 C2469 1.434 . S
C2469 C2460 1.429 . S
C2469 N2466 1.350 . S
C2469 C2468 1.434 . S
C2470 C2471 1.369 . S
C2470 C2472 1.419 . S
C2470 H2474 0.930 . S
C2471 C2470 1.369 . S
C2471 C2480 1.429 . S
C2472 C2470 1.419 . S
C2472 C2473 1.363 . S
C2472 H2475 0.929 . S
C2473 C2472 1.363 . S
C2473 C2479 1.428 . S
H2474 C2470 0.930 . S
H2475 C2472 0.929 . S
S2476 N2477 1.613 . S
S2476 N2478 1.610 . S
N2477 S2476 1.613 . S
N2477 C2480 1.350 . S
N2478 S2476 1.610 . S
N2478 C2479 1.351 . S
C2479 C2473 1.428 . S
C2479 N2478 1.351 . S
C2479 C2480 1.434 . S
C2480 C2471 1.429 . S
C2480 N2477 1.350 . S
C2480 C2479 1.434 . S
C2481 C2482 1.369 . S
C2481 C2483 1.419 . S
C2481 H2485 0.930 . S
C2482 C2481 1.369 . S
C2482 C2491 1.429 . S
C2483 C2481 1.419 . S
C2483 C2484 1.363 . S
C2483 H2486 0.929 . S
C2484 C2483 1.363 . S
C2484 C2490 1.428 . S
H2485 C2481 0.930 . S
H2486 C2483 0.929 . S
S2487 N2488 1.613 . S
S2487 N2489 1.610 . S
N2488 S2487 1.613 . S
N2488 C2491 1.350 . S
N2489 S2487 1.610 . S
N2489 C2490 1.351 . S
C2490 C2484 1.428 . S
C2490 N2489 1.351 . S
C2490 C2491 1.434 . S
C2491 C2482 1.429 . S
C2491 N2488 1.350 . S
C2491 C2490 1.434 . S
C2492 C2493 1.369 . S
C2492 C2494 1.419 . S
C2492 H2496 0.930 . S
C2493 C2492 1.369 . S
C2493 C2502 1.429 . S
C2494 C2492 1.419 . S
C2494 C2495 1.363 . S
C2494 H2497 0.929 . S
C2495 C2494 1.363 . S
C2495 C2501 1.428 . S
H2496 C2492 0.930 . S
H2497 C2494 0.929 . S
S2498 N2499 1.613 . S
S2498 N2500 1.610 . S
N2499 S2498 1.613 . S
N2499 C2502 1.350 . S
N2500 S2498 1.610 . S
N2500 C2501 1.351 . S
C2501 C2495 1.428 . S
C2501 N2500 1.351 . S
C2501 C2502 1.434 . S
C2502 C2493 1.429 . S
C2502 N2499 1.350 . S
C2502 C2501 1.434 . S
C2503 C2504 1.369 . S
C2503 C2505 1.419 . S
C2503 H2507 0.930 . S
C2504 C2503 1.369 . S
C2504 C2513 1.429 . S
C2505 C2503 1.419 . S
C2505 C2506 1.363 . S
C2505 H2508 0.929 . S
C2506 C2505 1.363 . S
C2506 C2512 1.428 . S
H2507 C2503 0.930 . S
H2508 C2505 0.929 . S
S2509 N2510 1.613 . S
S2509 N2511 1.610 . S
N2510 S2509 1.613 . S
N2510 C2513 1.350 . S
N2511 S2509 1.610 . S
N2511 C2512 1.351 . S
C2512 C2506 1.428 . S
C2512 N2511 1.351 . S
C2512 C2513 1.434 . S
C2513 C2504 1.429 . S
C2513 N2510 1.350 . S
C2513 C2512 1.434 . S
C2514 C2515 1.369 . S
C2514 C2516 1.419 . S
C2514 H2518 0.930 . S
C2515 C2514 1.369 . S
C2515 C2524 1.429 . S
C2516 C2514 1.419 . S
C2516 C2517 1.363 . S
C2516 H2519 0.929 . S
C2517 C2516 1.363 . S
C2517 C2523 1.428 . S
H2518 C2514 0.930 . S
H2519 C2516 0.929 . S
S2520 N2521 1.613 . S
S2520 N2522 1.610 . S
N2521 S2520 1.613 . S
N2521 C2524 1.350 . S
N2522 S2520 1.610 . S
N2522 C2523 1.351 . S
C2523 C2517 1.428 . S
C2523 N2522 1.351 . S
C2523 C2524 1.434 . S
C2524 C2515 1.429 . S
C2524 N2521 1.350 . S
C2524 C2523 1.434 . S
C2525 C2526 1.369 . S
C2525 C2527 1.419 . S
C2525 H2529 0.930 . S
C2526 C2525 1.369 . S
C2526 C2535 1.429 . S
C2527 C2525 1.419 . S
C2527 C2528 1.363 . S
C2527 H2530 0.929 . S
C2528 C2527 1.363 . S
C2528 C2534 1.428 . S
H2529 C2525 0.930 . S
H2530 C2527 0.929 . S
S2531 N2532 1.613 . S
S2531 N2533 1.610 . S
N2532 S2531 1.613 . S
N2532 C2535 1.350 . S
N2533 S2531 1.610 . S
N2533 C2534 1.351 . S
C2534 C2528 1.428 . S
C2534 N2533 1.351 . S
C2534 C2535 1.434 . S
C2535 C2526 1.429 . S
C2535 N2532 1.350 . S
C2535 C2534 1.434 . S
C2536 C2537 1.369 . S
C2536 C2538 1.419 . S
C2536 H2540 0.930 . S
C2537 C2536 1.369 . S
C2537 C2546 1.429 . S
C2538 C2536 1.419 . S
C2538 C2539 1.363 . S
C2538 H2541 0.929 . S
C2539 C2538 1.363 . S
C2539 C2545 1.428 . S
H2540 C2536 0.930 . S
H2541 C2538 0.929 . S
S2542 N2543 1.613 . S
S2542 N2544 1.610 . S
N2543 S2542 1.613 . S
N2543 C2546 1.350 . S
N2544 S2542 1.610 . S
N2544 C2545 1.351 . S
C2545 C2539 1.428 . S
C2545 N2544 1.351 . S
C2545 C2546 1.434 . S
C2546 C2537 1.429 . S
C2546 N2543 1.350 . S
C2546 C2545 1.434 . S
C2547 C2548 1.369 . S
C2547 C2549 1.419 . S
C2547 H2551 0.930 . S
C2548 C2547 1.369 . S
C2548 C2557 1.429 . S
C2549 C2547 1.419 . S
C2549 C2550 1.363 . S
C2549 H2552 0.929 . S
C2550 C2549 1.363 . S
C2550 C2556 1.428 . S
H2551 C2547 0.930 . S
H2552 C2549 0.929 . S
S2553 N2554 1.613 . S
S2553 N2555 1.610 . S
N2554 S2553 1.613 . S
N2554 C2557 1.350 . S
N2555 S2553 1.610 . S
N2555 C2556 1.351 . S
C2556 C2550 1.428 . S
C2556 N2555 1.351 . S
C2556 C2557 1.434 . S
C2557 C2548 1.429 . S
C2557 N2554 1.350 . S
C2557 C2556 1.434 . S
C2558 C2559 1.369 . S
C2558 C2560 1.419 . S
C2558 H2562 0.930 . S
C2559 C2558 1.369 . S
C2559 C2568 1.429 . S
C2560 C2558 1.419 . S
C2560 C2561 1.363 . S
C2560 H2563 0.929 . S
C2561 C2560 1.363 . S
C2561 C2567 1.428 . S
H2562 C2558 0.930 . S
H2563 C2560 0.929 . S
S2564 N2565 1.613 . S
S2564 N2566 1.610 . S
N2565 S2564 1.613 . S
N2565 C2568 1.350 . S
N2566 S2564 1.610 . S
N2566 C2567 1.351 . S
C2567 C2561 1.428 . S
C2567 N2566 1.351 . S
C2567 C2568 1.434 . S
C2568 C2559 1.429 . S
C2568 N2565 1.350 . S
C2568 C2567 1.434 . S
C2569 C2570 1.369 . S
C2569 C2571 1.419 . S
C2569 H2573 0.930 . S
C2570 C2569 1.369 . S
C2570 C2579 1.429 . S
C2571 C2569 1.419 . S
C2571 C2572 1.363 . S
C2571 H2574 0.929 . S
C2572 C2571 1.363 . S
C2572 C2578 1.428 . S
H2573 C2569 0.930 . S
H2574 C2571 0.929 . S
S2575 N2576 1.613 . S
S2575 N2577 1.610 . S
N2576 S2575 1.613 . S
N2576 C2579 1.350 . S
N2577 S2575 1.610 . S
N2577 C2578 1.351 . S
C2578 C2572 1.428 . S
C2578 N2577 1.351 . S
C2578 C2579 1.434 . S
C2579 C2570 1.429 . S
C2579 N2576 1.350 . S
C2579 C2578 1.434 . S
C2580 C2581 1.369 . S
C2580 C2582 1.419 1_545 S
C2580 H2584 0.930 . S
C2581 C2580 1.369 . S
C2581 C2590 1.429 . S
C2582 C2580 1.419 1_565 S
C2582 C2583 1.363 . S
C2582 H2585 0.929 . S
C2583 C2582 1.363 . S
C2583 C2589 1.428 . S
H2584 C2580 0.930 . S
H2585 C2582 0.929 . S
S2586 N2587 1.552 1_565 S
S2586 N2588 1.671 . S
N2587 S2586 1.552 1_545 S
N2587 C2590 1.350 . S
N2588 S2586 1.671 . S
N2588 C2589 1.351 . S
C2589 C2583 1.428 . S
C2589 N2588 1.351 . S
C2589 C2590 1.434 1_565 S
C2590 C2581 1.429 . S
C2590 N2587 1.350 . S
C2590 C2589 1.434 1_545 S
C2591 C2592 1.369 . S
C2591 C2593 1.419 1_455 S
C2591 H2595 0.930 . S
C2592 C2591 1.369 . S
C2592 C2601 1.429 . S
C2593 C2591 1.419 1_655 S
C2593 C2594 1.363 . S
C2593 H2596 0.929 . S
C2594 C2593 1.363 . S
C2594 C2600 1.428 . S
H2595 C2591 0.930 . S
H2596 C2593 0.929 . S
S2597 N2598 1.613 1_655 S
S2597 N2599 1.610 . S
N2598 S2597 1.613 1_455 S
N2598 C2601 1.350 . S
N2599 S2597 1.610 . S
N2599 C2600 1.351 . S
C2600 C2594 1.428 . S
C2600 N2599 1.351 . S
C2600 C2601 1.434 1_655 S
C2601 C2592 1.429 . S
C2601 N2598 1.350 . S
C2601 C2600 1.434 1_455 S
C2602 C2603 1.369 . S
C2602 C2604 1.419 1_545 S
C2602 H2606 0.930 . S
C2603 C2602 1.369 . S
C2603 C2612 1.429 . S
C2604 C2602 1.419 1_565 S
C2604 C2605 1.363 . S
C2604 H2607 0.929 . S
C2605 C2604 1.363 . S
C2605 C2611 1.428 . S
H2606 C2602 0.930 . S
H2607 C2604 0.929 . S
S2608 N2609 1.613 . S
S2608 N2610 1.610 1_545 S
N2609 S2608 1.613 . S
N2609 C2612 1.350 . S
N2610 S2608 1.610 1_565 S
N2610 C2611 1.351 . S
C2611 C2605 1.428 . S
C2611 N2610 1.351 . S
C2611 C2612 1.434 1_565 S
C2612 C2603 1.429 . S
C2612 N2609 1.350 . S
C2612 C2611 1.434 1_545 S
C2613 C2614 1.369 . S
C2613 C2615 1.419 1_455 S
C2613 H2617 0.930 . S
C2614 C2613 1.369 . S
C2614 C2623 1.429 . S
C2615 C2613 1.419 1_655 S
C2615 C2616 1.363 . S
C2615 H2618 0.929 . S
C2616 C2615 1.363 . S
C2616 C2622 1.428 . S
H2617 C2613 0.930 . S
H2618 C2615 0.929 . S
S2619 N2620 1.613 . S
S2619 N2621 1.610 1_455 S
N2620 S2619 1.613 . S
N2620 C2623 1.350 . S
N2621 S2619 1.610 1_655 S
N2621 C2622 1.351 . S
C2622 C2616 1.428 . S
C2622 N2621 1.351 . S
C2622 C2623 1.434 1_655 S
C2623 C2614 1.429 . S
C2623 N2620 1.350 . S
C2623 C2622 1.434 1_455 S
C2624 C2625 1.369 . S
C2624 C2626 1.419 1_545 S
C2624 H2628 0.930 . S
C2625 C2624 1.369 . S
C2625 C2634 1.429 . S
C2626 C2624 1.419 1_565 S
C2626 C2627 1.363 . S
C2626 H2629 0.929 . S
C2627 C2626 1.363 . S
C2627 C2633 1.428 . S
H2628 C2624 0.930 . S
H2629 C2626 0.929 . S
S2630 N2631 1.613 1_565 S
S2630 N2632 1.610 . S
N2631 S2630 1.613 1_545 S
N2631 C2634 1.350 . S
N2632 S2630 1.610 . S
N2632 C2633 1.351 . S
C2633 C2627 1.428 . S
C2633 N2632 1.351 . S
C2633 C2634 1.434 1_565 S
C2634 C2625 1.429 . S
C2634 N2631 1.350 . S
C2634 C2633 1.434 1_545 S
C2635 C2636 1.369 . S
C2635 C2637 1.419 1_655 S
C2635 H2639 0.930 . S
C2636 C2635 1.369 . S
C2636 C2645 1.429 . S
C2637 C2635 1.419 1_455 S
C2637 C2638 1.363 . S
C2637 H2640 0.929 . S
C2638 C2637 1.363 . S
C2638 C2644 1.428 . S
H2639 C2635 0.930 . S
H2640 C2637 0.929 . S
S2641 N2642 1.613 1_455 S
S2641 N2643 1.610 . S
N2642 S2641 1.613 1_655 S
N2642 C2645 1.350 . S
N2643 S2641 1.610 . S
N2643 C2644 1.351 . S
C2644 C2638 1.428 . S
C2644 N2643 1.351 . S
C2644 C2645 1.434 1_455 S
C2645 C2636 1.429 . S
C2645 N2642 1.350 . S
C2645 C2644 1.434 1_655 S
C2646 C2647 1.369 . S
C2646 C2648 1.419 1_545 S
C2646 H2650 0.930 . S
C2647 C2646 1.369 . S
C2647 C2656 1.429 . S
C2648 C2646 1.419 1_565 S
C2648 C2649 1.363 . S
C2648 H2651 0.929 . S
C2649 C2648 1.363 . S
C2649 C2655 1.428 . S
H2650 C2646 0.930 . S
H2651 C2648 0.929 . S
S2652 N2653 1.613 . S
S2652 N2654 1.610 1_545 S
N2653 S2652 1.613 . S
N2653 C2656 1.350 . S
N2654 S2652 1.610 1_565 S
N2654 C2655 1.351 . S
C2655 C2649 1.428 . S
C2655 N2654 1.351 . S
C2655 C2656 1.434 1_565 S
C2656 C2647 1.429 . S
C2656 N2653 1.350 . S
C2656 C2655 1.434 1_545 S
C2657 C2658 1.369 . S
C2657 C2659 1.419 1_655 S
C2657 H2661 0.930 . S
C2658 C2657 1.369 . S
C2658 C2667 1.429 . S
C2659 C2657 1.419 1_455 S
C2659 C2660 1.363 . S
C2659 H2662 0.929 . S
C2660 C2659 1.363 . S
C2660 C2666 1.428 . S
H2661 C2657 0.930 . S
H2662 C2659 0.929 . S
S2663 N2664 1.613 1_455 S
S2663 N2665 1.610 . S
N2664 S2663 1.613 1_655 S
N2664 C2667 1.350 . S
N2665 S2663 1.610 . S
N2665 C2666 1.351 . S
C2666 C2660 1.428 . S
C2666 N2665 1.351 . S
C2666 C2667 1.434 1_455 S
C2667 C2658 1.429 . S
C2667 N2664 1.350 . S
C2667 C2666 1.434 1_655 S
C2668 C2669 1.369 . S
C2668 C2670 1.419 1_556 S
C2668 H2672 0.930 . S
C2669 C2668 1.369 . S
C2669 C2678 1.429 . S
C2670 C2668 1.419 1_554 S
C2670 C2671 1.363 . S
C2670 H2673 0.929 . S
C2671 C2670 1.363 . S
C2671 C2677 1.428 . S
H2672 C2668 0.930 . S
H2673 C2670 0.929 . S
S2674 N2675 1.613 1_554 S
S2674 N2676 1.610 . S
N2675 S2674 1.613 1_556 S
N2675 C2678 1.350 . S
N2676 S2674 1.610 . S
N2676 C2677 1.351 . S
C2677 C2671 1.428 . S
C2677 N2676 1.351 . S
C2677 C2678 1.434 1_554 S
C2678 C2669 1.429 . S
C2678 N2675 1.350 . S
C2678 C2677 1.434 1_556 S
C2679 C2680 1.369 . S
C2679 C2681 1.419 1_554 S
C2679 H2683 0.930 . S
C2680 C2679 1.369 . S
C2680 C2689 1.429 . S
C2681 C2679 1.419 1_556 S
C2681 C2682 1.363 . S
C2681 H2684 0.929 . S
C2682 C2681 1.363 . S
C2682 C2688 1.428 . S
H2683 C2679 0.930 . S
H2684 C2681 0.929 . S
S2685 N2686 1.613 1_556 S
S2685 N2687 1.610 . S
N2686 S2685 1.613 1_554 S
N2686 C2689 1.350 . S
N2687 S2685 1.610 . S
N2687 C2688 1.351 . S
C2688 C2682 1.428 . S
C2688 N2687 1.351 . S
C2688 C2689 1.434 1_556 S
C2689 C2680 1.429 . S
C2689 N2686 1.350 . S
C2689 C2688 1.434 1_554 S
C2690 C2691 1.369 . S
C2690 C2692 1.419 1_556 S
C2690 H2694 0.930 . S
C2691 C2690 1.369 . S
C2691 C2700 1.429 . S
C2692 C2690 1.419 1_554 S
C2692 C2693 1.363 . S
C2692 H2695 0.929 . S
C2693 C2692 1.363 . S
C2693 C2699 1.428 . S
H2694 C2690 0.930 . S
H2695 C2692 0.929 . S
S2696 N2697 1.613 1_554 S
S2696 N2698 1.610 . S
N2697 S2696 1.613 1_556 S
N2697 C2700 1.350 . S
N2698 S2696 1.610 . S
N2698 C2699 1.351 . S
C2699 C2693 1.428 . S
C2699 N2698 1.351 . S
C2699 C2700 1.434 1_554 S
C2700 C2691 1.429 . S
C2700 N2697 1.350 . S
C2700 C2699 1.434 1_556 S
C2701 C2702 1.369 . S
C2701 C2703 1.419 1_554 S
C2701 H2705 0.930 . S
C2702 C2701 1.369 . S
C2702 C2711 1.429 . S
C2703 C2701 1.419 1_556 S
C2703 C2704 1.363 . S
C2703 H2706 0.929 . S
C2704 C2703 1.363 . S
C2704 C2710 1.428 . S
H2705 C2701 0.930 . S
H2706 C2703 0.929 . S
S2707 N2708 1.613 1_556 S
S2707 N2709 1.610 . S
N2708 S2707 1.613 1_554 S
N2708 C2711 1.350 . S
N2709 S2707 1.610 . S
N2709 C2710 1.351 . S
C2710 C2704 1.428 . S
C2710 N2709 1.351 . S
C2710 C2711 1.434 1_556 S
C2711 C2702 1.429 . S
C2711 N2708 1.350 . S
C2711 C2710 1.434 1_554 S
C1921 C101 1.843 . S
C1923 C21 1.848 . S
C1932 C61 1.847 . S
C1934 C141 1.852 . S
C1943 C261 1.850 . S
C1945 C181 1.844 . S
C1954 C221 1.852 . S
C1956 C301 1.848 . S
C1965 C501 1.852 . S
C1967 C341 1.843 . S
C1976 C541 1.842 . S
C1978 C381 1.852 . S
C1987 C421 1.847 . S
C1989 C581 1.852 . S
C1998 C461 1.844 . S
C2000 C621 1.847 . S
C2009 C781 1.854 . S
C2011 C661 1.844 . S
C2020 C701 1.854 . S
C2022 C861 1.845 . S
C2031 C901 1.850 . S
C2033 C741 1.844 . S
C2042 C941 1.842 . S
C2044 C821 1.849 . S
C2053 C981 1.843 . S
C2055 C1061 1.853 . S
C2064 C1021 1.842 . S
C2066 C1101 1.851 . S
C2075 C1221 1.844 . S
C2077 C1141 1.847 . S
C2086 C1261 1.854 . S
C2088 C1181 1.845 . S
C2097 C1301 1.849 . S
C2099 C1461 1.844 . S
C2108 C1341 1.844 . S
C2110 C1501 1.848 . S
C2119 C1381 1.841 . S
C2121 C1541 1.851 . S
C2130 C1581 1.845 . S
C2132 C1421 1.846 . S
C2141 C1741 1.842 . S
C2143 C1621 1.852 . S
C2152 C1821 1.848 . S
C2154 C1661 1.844 . S
C2163 C1861 1.846 . S
C2165 C1701 1.846 . S
C2174 C1901 1.848 . S
C2176 C1781 1.844 . S
C2185 C2 1.910 . S
C2187 C1242 1.908 . S
C2196 C1122 1.914 . S
C2198 C42 1.914 . S
C2207 C82 1.907 . S
C2209 C1162 1.910 . S
C2218 C122 1.911 . S
C2220 C1202 1.915 . S
C2229 C1002 1.912 . S
C2231 C162 1.915 . S
C2240 C1042 1.911 . S
C2242 C202 1.915 . S
C2251 C242 1.916 . S
C2253 C1082 1.913 . S
C2262 C282 1.915 . S
C2264 C962 1.914 . S
C2273 C1762 1.915 . S
C2275 C322 1.913 . S
C2284 C362 1.914 . S
C2286 C1642 1.909 . S
C2295 C1682 1.910 . S
C2297 C402 1.908 . S
C2306 C442 1.909 . S
C2308 C1722 1.909 . S
C2317 C482 1.915 . S
C2319 C1882 1.913 . S
C2328 C522 1.914 . S
C2330 C1802 1.909 . S
C2339 C562 1.907 . S
C2341 C1842 1.911 . S
C2350 C602 1.916 . S
C2352 C1602 1.913 . S
C2361 C642 1.908 . S
C2363 C1562 1.914 . S
C2372 C682 1.909 . S
C2374 C1322 1.914 . S
C2383 C722 1.908 . S
C2385 C1362 1.909 . S
C2394 C1402 1.916 . S
C2396 C762 1.913 . S
C2405 C802 1.915 . S
C2407 C1282 1.913 . S
C2416 C1482 1.915 . S
C2418 C842 1.909 . S
C2427 C1522 1.910 . S
C2429 C882 1.908 . S
C2438 C1442 1.911 . S
C2440 C922 1.915 . S
C2449 C895 2.842 . S
C2451 C15 2.839 . S
C2460 C655 2.836 . S
C2462 C55 2.844 . S
C2471 C95 2.836 . S
C2473 C935 2.843 . S
C2482 C135 2.837 . S
C2484 C855 2.843 . S
C2493 C175 2.837 . S
C2495 C735 2.843 . S
C2504 C775 2.836 . S
C2506 C215 2.844 . S
C2515 C815 2.844 . S
C2517 C255 2.837 . S
C2526 C295 2.837 . S
C2528 C695 2.843 . S
C2537 C335 2.837 . S
C2539 C535 2.842 . S
C2548 C375 2.839 . S
C2550 C575 2.841 . S
C2559 C415 2.837 . S
C2561 C615 2.843 . S
C2570 C495 2.844 . S
C2572 C455 2.837 . S
C2581 C1855 2.841 . S
C2583 C975 2.840 . S
C2592 C1015 2.837 . S
C2594 C1615 2.843 . S
C2603 C1055 2.844 . S
C2605 C1895 2.838 . S
C2614 C1815 2.844 . S
C2616 C1095 2.837 . S
C2625 C1135 2.837 . S
C2627 C1695 2.843 . S
C2636 C1175 2.836 . S
C2638 C1735 2.844 . S
C2647 C1775 2.843 . S
C2649 C1215 2.839 . S
C2658 C1655 2.837 . S
C2660 C1255 2.843 . S
C2669 C1295 2.837 . S
C2671 C1495 2.843 . S
C2680 C1535 2.837 . S
C2682 C1335 2.842 . S
C2691 C1375 2.838 . S
C2693 C1575 2.842 . S
C2702 C1455 2.839 . S
C2704 C1415 2.841 . S
