# Generated by pormake.
# Topology lhb, (8)-cn, num edge types: 1
# Building blocks:
#     Node 0, Type 0, BuildingBlock: VETTIZ_charged_sbu_0, # of connection points: 8
#     Node 1, Type 0, BuildingBlock: VETTIZ_charged_sbu_0, # of connection points: 8
#     Node 2, Type 0, BuildingBlock: VETTIZ_charged_sbu_0, # of connection points: 8
#     Node 3, Type 0, BuildingBlock: VETTIZ_charged_sbu_0, # of connection points: 8
#     Node 4, Type 0, BuildingBlock: VETTIZ_charged_sbu_0, # of connection points: 8
#     Node 5, Type 0, BuildingBlock: VETTIZ_charged_sbu_0, # of connection points: 8
#     Node 6, Type 0, BuildingBlock: VETTIZ_charged_sbu_0, # of connection points: 8
#     Node 7, Type 0, BuildingBlock: VETTIZ_charged_sbu_0, # of connection points: 8
#     Edge 8, Type (0, 0), BuildingBlock: AJUNOK_clean_linker_0, # of connection points: 2
#     Edge 9, Type (0, 0), BuildingBlock: AJUNOK_clean_linker_0, # of connection points: 2
#     Edge 10, Type (0, 0), BuildingBlock: AJUNOK_clean_linker_0, # of connection points: 2
#     Edge 11, Type (0, 0), BuildingBlock: AJUNOK_clean_linker_0, # of connection points: 2
#     Edge 12, Type (0, 0), BuildingBlock: AJUNOK_clean_linker_0, # of connection points: 2
#     Edge 13, Type (0, 0), BuildingBlock: AJUNOK_clean_linker_0, # of connection points: 2
#     Edge 14, Type (0, 0), BuildingBlock: AJUNOK_clean_linker_0, # of connection points: 2
#     Edge 15, Type (0, 0), BuildingBlock: AJUNOK_clean_linker_0, # of connection points: 2
#     Edge 16, Type (0, 0), BuildingBlock: AJUNOK_clean_linker_0, # of connection points: 2
#     Edge 17, Type (0, 0), BuildingBlock: AJUNOK_clean_linker_0, # of connection points: 2
#     Edge 18, Type (0, 0), BuildingBlock: AJUNOK_clean_linker_0, # of connection points: 2
#     Edge 19, Type (0, 0), BuildingBlock: AJUNOK_clean_linker_0, # of connection points: 2
#     Edge 20, Type (0, 0), BuildingBlock: AJUNOK_clean_linker_0, # of connection points: 2
#     Edge 21, Type (0, 0), BuildingBlock: AJUNOK_clean_linker_0, # of connection points: 2
#     Edge 22, Type (0, 0), BuildingBlock: AJUNOK_clean_linker_0, # of connection points: 2
#     Edge 23, Type (0, 0), BuildingBlock: AJUNOK_clean_linker_0, # of connection points: 2
#     Edge 24, Type (0, 0), BuildingBlock: AJUNOK_clean_linker_0, # of connection points: 2
#     Edge 25, Type (0, 0), BuildingBlock: AJUNOK_clean_linker_0, # of connection points: 2
#     Edge 26, Type (0, 0), BuildingBlock: AJUNOK_clean_linker_0, # of connection points: 2
#     Edge 27, Type (0, 0), BuildingBlock: AJUNOK_clean_linker_0, # of connection points: 2
#     Edge 28, Type (0, 0), BuildingBlock: AJUNOK_clean_linker_0, # of connection points: 2
#     Edge 29, Type (0, 0), BuildingBlock: AJUNOK_clean_linker_0, # of connection points: 2
#     Edge 30, Type (0, 0), BuildingBlock: AJUNOK_clean_linker_0, # of connection points: 2
#     Edge 31, Type (0, 0), BuildingBlock: AJUNOK_clean_linker_0, # of connection points: 2
#     Edge 32, Type (0, 0), BuildingBlock: AJUNOK_clean_linker_0, # of connection points: 2
#     Edge 33, Type (0, 0), BuildingBlock: AJUNOK_clean_linker_0, # of connection points: 2
#     Edge 34, Type (0, 0), BuildingBlock: AJUNOK_clean_linker_0, # of connection points: 2
#     Edge 35, Type (0, 0), BuildingBlock: AJUNOK_clean_linker_0, # of connection points: 2
#     Edge 36, Type (0, 0), BuildingBlock: AJUNOK_clean_linker_0, # of connection points: 2
#     Edge 37, Type (0, 0), BuildingBlock: AJUNOK_clean_linker_0, # of connection points: 2
#     Edge 38, Type (0, 0), BuildingBlock: AJUNOK_clean_linker_0, # of connection points: 2
#     Edge 39, Type (0, 0), BuildingBlock: AJUNOK_clean_linker_0, # of connection points: 2
# Relax obj value: 0.196
# Max RMSD: 0.257
# Mean RMSD: 0.257
data_MOF--net-lhb--node1-VETTIZ_charged_sbu_0--edge1-AJUNOK_clean_linker_0
_symmetry_space_group_name_H-M    P1
_symmetry_Int_Tables_number       1
_symmetry_cell_setting            triclinic
loop_
_symmetry_equiv_pos_as_xyz
'x, y, z'
_cell_length_a     23.223649
_cell_length_b     12.540016
_cell_length_c     41.241688
_cell_angle_alpha  90.871003
_cell_angle_beta   89.60698
_cell_angle_gamma 89.017234
loop_
_atom_site_label
_atom_site_type_symbol
_atom_site_fract_x
_atom_site_fract_y
_atom_site_fract_z
_atom_type_partial_charge
Fe0 Fe 0.92432 0.8592 1.00023 0.0
O1 O 0.96823 0.94486 1.03051 0.0
Fe2 Fe 0.03932 0.02754 1.01212 0.0
Fe3 Fe 0.99873 0.89872 0.07376 0.0
O4 O 0.96949 0.95302 1.02761 0.0
O5 O 0.07038 0.97631 0.05357 0.0
O6 O 0.06841 0.96948 0.05651 0.0
Fe7 Fe 0.10975 0.06478 0.0853 0.0
C8 C 0.86832 0.84262 0.06696 0.0
O9 O 0.9493 0.72061 1.02272 0.0
O10 O 0.02489 0.75345 0.05494 0.0
O11 O 0.17007 0.07045 0.04847 0.0
O12 O 0.1177 0.10168 1.00228 0.0
O13 O 0.07055 0.88844 0.98958 0.0
O14 O 0.99061 0.82807 0.9667 0.0
O15 O 0.04911 0.87096 0.11983 0.0
O16 O 0.13208 0.91245 0.0978 0.0
C17 C 0.04517 0.82276 0.97072 0.0
O18 O 0.07894 0.20749 0.06865 0.0
O19 O 1.00951 0.16692 1.03355 0.0
O20 O 0.86412 0.87566 1.03726 0.0
O21 O 0.91633 0.83392 0.08346 0.0
C22 C 0.99298 0.68951 1.03899 0.0
C23 C 0.10491 0.8909 0.12313 0.0
C24 C 0.98714 0.06439 0.11922 0.0
O25 O 0.96879 0.04097 0.09154 0.0
O26 O 0.04204 0.07046 0.12234 0.0
C27 C 0.16518 0.10043 1.01875 0.0
O28 O 0.99569 0.07557 0.97065 0.0
O29 O 0.90599 0.00343 0.97634 0.0
C30 C 0.03658 0.23405 0.0509 0.0
C31 C 0.94084 0.07427 0.9648 0.0
Fe32 Fe 0.22043 0.34303 0.27424 0.0
O33 O 0.28005 0.23121 0.29132 0.0
Fe34 Fe 0.19788 0.38424 0.35971 0.0
Fe35 Fe 0.33238 0.14421 0.26073 0.0
O36 O 0.24799 0.39476 0.31736 0.0
O37 O 0.21398 0.23328 0.34531 0.0
O38 O 0.29025 0.22301 0.29492 0.0
Fe39 Fe 0.29816 0.18511 0.34295 0.0
C40 C 0.21249 0.15235 0.22658 0.0
O41 O 0.28562 0.4168 0.24943 0.0
O42 O 0.34934 0.28541 0.23515 0.0
O43 O 0.33078 0.33442 0.35088 0.0
O44 O 0.27375 0.4085 0.38709 0.0
O45 O 0.18102 0.53936 0.3547 0.0
O46 O 0.22858 0.46884 0.31369 0.0
O47 O 0.40558 0.16938 0.28732 0.0
O48 O 0.38376 0.12817 0.33889 0.0
C49 C 0.1986 0.55347 0.32584 0.0
O50 O 0.28968 0.15956 0.39475 0.0
O51 O 0.21524 0.22137 0.37004 0.0
O52 O 0.1996 0.2499 0.23365 0.0
O53 O 0.26001 0.10869 0.2346 0.0
C54 C 0.3308 0.38295 0.23431 0.0
C55 C 0.42016 0.13777 0.31546 0.0
C56 C 0.28618 0.97549 0.30929 0.0
O57 O 0.31621 0.00289 0.28466 0.0
O58 O 0.2708 0.03852 0.33239 0.0
C59 C 0.32491 0.38271 0.37771 0.0
O60 O 0.12046 0.36623 0.33617 0.0
O61 O 0.15319 0.26851 0.29576 0.0
C62 C 0.23723 0.19228 0.39801 0.0
C63 C 0.11188 0.31853 0.30943 0.0
Fe64 Fe 0.70621 0.88091 0.23813 0.0
O65 O 0.74007 0.78566 0.2703 0.0
Fe66 Fe 0.77055 0.85567 0.3143 0.0
Fe67 Fe 0.80469 0.68209 0.26033 0.0
O68 O 0.73862 0.79455 0.27298 0.0
O69 O 0.83439 0.75025 0.30472 0.0
O70 O 0.83616 0.7416 0.30199 0.0
Fe71 Fe 0.86124 0.65413 0.33911 0.0
C72 C 0.70597 0.65088 0.21021 0.0
O73 O 0.7757 0.86782 0.20645 0.0
O74 O 0.84904 0.79911 0.23408 0.0
O75 O 0.89935 0.79029 0.35256 0.0
O76 O 0.81993 0.89966 0.3578 0.0
O77 O 0.81107 0.97428 0.28983 0.0
O78 O 0.73965 0.02011 0.25648 0.0
O79 O 0.87769 0.57822 0.25748 0.0
O80 O 0.92404 0.60626 0.30628 0.0
C81 C 0.78329 0.04344 0.27354 0.0
O82 O 0.79419 0.69716 0.37278 0.0
O83 O 0.72594 0.74566 0.3397 0.0
O84 O 0.67811 0.73763 0.21888 0.0
O85 O 0.75892 0.62816 0.2187 0.0
C86 C 0.8296 0.86032 0.21181 0.0
C87 C 0.92032 0.56398 0.27754 0.0
C88 C 0.78364 0.4947 0.30289 0.0
O89 O 0.7619 0.56337 0.28393 0.0
O90 O 0.82054 0.5186 0.32421 0.0
C91 C 0.87197 0.86793 0.36663 0.0
O92 O 0.6942 0.9527 0.31756 0.0
O93 O 0.64154 0.90609 0.27226 0.0
C94 C 0.7418 0.72585 0.3682 0.0
C95 C 0.64631 0.94828 0.30109 0.0
Fe96 Fe 0.96106 0.43866 0.49004 0.0
O97 O 0.97415 0.51946 0.53063 0.0
Fe98 Fe 0.04528 0.61997 0.52843 0.0
Fe99 Fe 0.99003 0.45244 0.57371 0.0
O100 O 0.977 0.52659 0.52818 0.0
O101 O 0.05545 0.56566 0.57376 0.0
O102 O 0.05389 0.55738 0.57568 0.0
Fe103 Fe 0.0612 0.65857 0.61304 0.0
C104 C 0.87834 0.36954 0.54175 0.0
O105 O 0.98795 0.2947 0.50953 0.0
O106 O 0.04125 0.33587 0.55256 0.0
O107 O 0.13665 0.6975 0.59076 0.0
O108 O 0.11727 0.71105 0.53587 0.0
O109 O 0.09867 0.49185 0.51002 0.0
O110 O 0.04036 0.46078 0.46961 0.0
O111 O 0.02311 0.39816 0.6204 0.0
O112 O 0.09091 0.52584 0.63323 0.0
C113 C 0.08728 0.44022 0.48381 0.0
O114 O 0.02931 0.79457 0.59198 0.0
O115 O 0.99473 0.7476 0.54389 0.0
O116 O 0.88639 0.41157 0.51362 0.0
O117 O 0.91686 0.35834 0.56465 0.0
C118 C 0.02118 0.26758 0.53263 0.0
C119 C 0.06826 0.43366 0.63657 0.0
C120 C 0.93757 0.57899 0.62495 0.0
O121 O 0.93494 0.5617 0.59481 0.0
O122 O 0.98369 0.61772 0.63626 0.0
C123 C 0.14923 0.72305 0.56133 0.0
O124 O 0.02246 0.67402 0.48158 0.0
O125 O 0.93883 0.58556 0.47123 0.0
C126 C 1.00656 0.81831 0.56511 0.0
C127 C 0.97169 0.66757 0.46836 0.0
Fe128 Fe 0.2421 0.7501 0.76195 0.0
O129 O 0.31046 0.66355 0.77438 0.0
Fe130 Fe 0.18213 0.80303 0.83975 0.0
Fe131 Fe 0.34734 0.56228 0.74397 0.0
O132 O 0.21192 0.70639 0.80535 0.0
O133 O 0.21269 0.69905 0.80763 0.0
O134 O 0.31137 0.65516 0.77719 0.0
Fe135 Fe 0.27833 0.60428 0.81947 0.0
C136 C 0.22396 0.55001 0.72075 0.0
O137 O 0.28265 0.78903 0.71775 0.0
O138 O 0.37036 0.70248 0.72029 0.0
O139 O 0.31961 0.72592 0.84247 0.0
O140 O 0.24955 0.77434 0.8749 0.0
O141 O 0.22273 0.93268 0.82293 0.0
O142 O 0.27868 0.88568 0.78055 0.0
O143 O 0.4093 0.55904 0.77957 0.0
O144 O 0.35566 0.51744 0.8256 0.0
C145 C 0.25908 0.95424 0.80105 0.0
O146 O 0.2266 0.57283 0.86363 0.0
O147 O 0.14457 0.67049 0.85527 0.0
O148 O 0.20382 0.61618 0.7419 0.0
O149 O 0.27719 0.55099 0.71271 0.0
C150 C 0.33631 0.77642 0.70904 0.0
C151 C 0.40388 0.52541 0.80925 0.0
C152 C 0.27309 0.40501 0.78098 0.0
O153 O 0.31864 0.4279 0.7655 0.0
O154 O 0.2429 0.47394 0.79704 0.0
C155 C 0.30293 0.74838 0.87087 0.0
O156 O 0.12044 0.83322 0.80476 0.0
O157 O 0.16653 0.83476 0.75479 0.0
C158 C 0.17388 0.6055 0.87229 0.0
C159 C 0.12227 0.84834 0.77368 0.0
Fe160 Fe 0.67701 0.29286 0.73228 0.0
O161 O 0.71519 0.20196 0.76396 0.0
Fe162 Fe 0.74614 0.27127 0.80746 0.0
Fe163 Fe 0.78458 0.11433 0.75233 0.0
O164 O 0.71421 0.20995 0.7663 0.0
O165 O 0.81281 0.1746 0.79733 0.0
O166 O 0.81404 0.16733 0.79508 0.0
Fe167 Fe 0.84145 0.07673 0.83079 0.0
C168 C 0.68862 0.06606 0.70439 0.0
O169 O 0.74591 0.29139 0.69994 0.0
O170 O 0.8215 0.24566 0.72975 0.0
O171 O 0.87841 0.21296 0.84481 0.0
O172 O 0.79703 0.31511 0.85096 0.0
O173 O 0.78098 0.39575 0.78349 0.0
O174 O 0.70613 0.43559 0.75138 0.0
O175 O 0.86095 0.02884 0.74597 0.0
O176 O 0.90391 0.03699 0.7965 0.0
C177 C 0.74958 0.46256 0.76834 0.0
O178 O 0.77394 0.11514 0.86563 0.0
O179 O 0.70576 0.15447 0.83197 0.0
O180 O 0.65467 0.14501 0.71313 0.0
O181 O 0.74371 0.06346 0.70978 0.0
C182 C 0.79904 0.29973 0.70687 0.0
C183 C 0.90369 0.01578 0.7656 0.0
C184 C 0.76742 0.91584 0.79275 0.0
O185 O 0.74829 0.98214 0.77227 0.0
O186 O 0.80168 0.94121 0.8153 0.0
C187 C 0.84921 0.28557 0.86003 0.0
O188 O 0.66748 0.35771 0.811 0.0
O189 O 0.61344 0.30412 0.76714 0.0
C190 C 0.72098 0.14075 0.86082 0.0
C191 C 0.61888 0.34195 0.79642 0.0
Fe192 Fe 0.45709 0.90188 0.47844 0.0
O193 O 0.47628 -0.01423 0.51762 0.0
Fe194 Fe 0.54769 0.08573 0.51381 0.0
Fe195 Fe 0.49378 0.919 0.56044 0.0
O196 O 0.47907 -0.00723 0.51514 0.0
O197 O 0.56186 0.02667 0.55801 0.0
O198 O 0.55976 0.01898 0.56016 0.0
Fe199 Fe 0.57474 0.11576 0.59722 0.0
C200 C 0.37794 0.84851 0.53367 0.0
O201 O 0.48187 0.75779 0.49834 0.0
O202 O 0.54186 0.80049 0.53812 0.0
O203 O 0.64879 0.14519 0.57284 0.0
O204 O 0.62275 0.17423 0.51954 0.0
O205 O 0.59773 0.96272 0.49248 0.0
O206 O 0.53539 0.90819 0.45526 0.0
O207 O 0.52627 0.86121 0.60564 0.0
O208 O 0.6009 0.97699 0.6154 0.0
C209 C 0.58566 0.90739 0.46717 0.0
O210 O 0.54529 0.25652 0.57765 0.0
O211 O 0.49969 0.21188 0.53247 0.0
O212 O 0.384 0.88554 0.5047 0.0
O213 O 0.41915 0.83089 0.55438 0.0
C214 C 0.51882 0.73149 0.51964 0.0
C215 C 0.57423 0.88886 0.61994 0.0
C216 C 0.45019 0.04874 0.61403 0.0
O217 O 0.44195 0.02907 0.58421 0.0
O218 O 0.49873 0.08473 0.62257 0.0
C219 C 0.65882 0.17551 0.54362 0.0
O220 O 0.52055 0.14147 0.46822 0.0
O221 O 0.43716 0.04957 0.45907 0.0
C222 C 0.51713 0.28185 0.55255 0.0
C223 C 0.46939 0.13234 0.45578 0.0
Fe224 Fe 0.49325 0.40268 1.01555 0.0
O225 O 0.46182 0.46132 0.05774 0.0
Fe226 Fe 0.59403 0.59209 0.99386 0.0
Fe227 Fe 0.43527 0.37138 0.09365 0.0
O228 O 0.55899 0.49754 1.0254 0.0
O229 O 0.55909 0.50702 1.02744 0.0
O230 O 0.46284 0.4703 0.06024 0.0
Fe231 Fe 0.53003 0.56184 0.07045 0.0
C232 C 0.37352 0.30907 1.02988 0.0
O233 O 0.5345 0.27759 1.03761 0.0
O234 O 0.47227 0.23455 0.07629 0.0
O235 O 0.60803 0.64665 0.07437 0.0
O236 O 0.65952 0.60252 1.02778 0.0
O237 O 0.6187 0.44664 0.97299 0.0
O238 O 0.53575 0.34875 0.97294 0.0
O239 O 0.50641 0.39735 0.12615 0.0
O240 O 0.5712 0.43401 0.0902 0.0
C241 C 0.58836 0.36568 0.9636 0.0
O242 O 0.49288 0.69343 0.0499 0.0
O243 O 0.56299 0.7317 1.01425 0.0
O244 O 0.41889 0.31222 1.01128 0.0
O245 O 0.37068 0.33959 0.0602 0.0
C246 C 0.51167 0.21002 0.05614 0.0
C247 C 0.55941 0.41475 0.11924 0.0
C248 C 0.43261 0.57513 0.12663 0.0
O249 O 0.40124 0.51034 0.11055 0.0
O250 O 0.48461 0.60112 0.11667 0.0
C251 C 0.65556 0.6391 0.05743 0.0
O252 O 0.52333 0.59508 0.96258 0.0
O253 O 0.45152 0.52439 0.99087 0.0
C254 C 0.52024 0.7587 1.03229 0.0
C255 C 0.46955 0.5816 0.96758 0.0
C256 C 0.12024 0.93835 0.18461 0.0
C257 C 0.13106 0.95618 0.15139 0.0
C258 C 0.14398 0.00504 0.20927 0.0
C259 C 0.17901 0.09299 0.20175 0.0
H260 H 0.0943 0.87153 0.19167 0.0
H261 H 0.13577 -0.0135 0.23443 0.0
S262 S 0.236 0.16115 0.12134 0.0
N263 N 0.19392 0.05902 0.11483 0.0
N264 N 0.23035 0.18537 0.16048 0.0
C265 C 0.19278 0.10878 0.16955 0.0
C266 C 0.17155 0.03981 0.14472 0.0
C267 C 0.96795 0.97139 0.17294 0.0
C268 C 0.94798 0.03384 0.14707 0.0
C269 C 0.93026 0.91657 0.19385 0.0
C270 C 0.86992 0.92295 0.19034 0.0
H271 H 1.01314 0.96015 0.17608 0.0
H272 H 0.94885 0.86689 0.21245 0.0
S273 S 0.79406 0.095 0.13062 0.0
N274 N 0.86292 0.10988 0.12201 0.0
N275 N 0.79204 0.01196 0.16125 0.0
C276 C 0.84908 -0.00742 0.16609 0.0
C277 C 0.88777 0.04671 0.14466 0.0
C278 C 0.18585 0.34244 0.47521 0.0
C279 C 0.12672 0.35664 0.46788 0.0
C280 C 0.2224 0.27342 0.45598 0.0
C281 C 0.20185 0.22134 0.42789 0.0
H282 H 0.20435 0.38701 0.49514 0.0
H283 H 0.26658 0.26228 0.46285 0.0
S284 S 0.04772 0.19719 0.40595 0.0
N285 N 0.04751 0.28433 0.43627 0.0
N286 N 0.11583 0.16227 0.40045 0.0
C287 C 0.14171 0.22166 0.42393 0.0
C288 C 0.10457 0.28864 0.44343 0.0
C289 C 0.95754 0.87366 0.4016 0.0
C290 C 0.89683 0.88767 0.39955 0.0
C291 C 0.98274 0.80571 0.42473 0.0
C292 C 0.94885 0.75725 0.44845 0.0
H293 H 0.9845 0.89863 0.38164 0.0
H294 H 0.02808 0.78501 0.42247 0.0
S295 S 0.7946 0.81851 0.465 0.0
N296 N 0.80843 0.88121 0.43093 0.0
N297 N 0.85556 0.7591 0.47539 0.0
C298 C 0.89072 0.79027 0.45096 0.0
C299 C 0.86507 0.8569 0.42685 0.0
C300 C 0.15897 0.3647 0.65601 0.0
C301 C 0.09912 0.37601 0.66253 0.0
C302 C 0.19998 0.41842 0.67524 0.0
C303 C 0.18336 0.47556 0.70361 0.0
H304 H 0.17303 0.33437 0.63247 0.0
H305 H 0.24406 0.42087 0.66658 0.0
S306 S 0.03937 0.46153 0.74237 0.0
N307 N 0.03029 0.40585 0.70621 0.0
N308 N 0.10741 0.4963 0.74411 0.0
C309 C 0.12645 0.46116 0.71459 0.0
C310 C 0.08473 0.41022 0.69423 0.0
C311 C 0.82904 0.37232 0.65299 0.0
C312 C 0.83478 0.37266 0.68691 0.0
C313 C 0.85952 0.44372 0.63355 0.0
C314 C 0.89767 0.5189 0.6469 0.0
H315 H 0.80092 0.31572 0.64126 0.0
H316 H 0.85319 0.43898 0.6077 0.0
S317 S 0.91158 0.57723 0.73497 0.0
N318 N 0.87185 0.46934 0.73345 0.0
N319 N 0.92795 0.60493 0.697 0.0
C320 C 0.89982 0.52617 0.68103 0.0
C321 C 0.8691 0.45242 0.70092 0.0
C322 C 0.17516 0.68836 0.92811 0.0
C323 C 0.15126 0.61175 0.90667 0.0
C324 C 0.14123 0.75151 0.94967 0.0
C325 C 0.081 0.74258 0.95121 0.0
H326 H 0.21939 0.71068 0.92621 0.0
H327 H 0.16239 0.81319 0.96361 0.0
S328 S 0.99721 0.53665 0.9073 0.0
N329 N 0.06374 0.51786 0.8937 0.0
N330 N 0.99999 0.63552 0.93412 0.0
C331 C 0.05702 0.65765 0.93323 0.0
C332 C 0.09202 0.59231 0.91146 0.0
C333 C 0.93124 0.28027 0.89755 0.0
C334 C 0.87113 0.29722 0.89404 0.0
C335 C 0.95361 0.20999 0.92079 0.0
C336 C 0.91727 0.15881 0.94295 0.0
H337 H 0.96031 0.30662 0.87874 0.0
H338 H 0.99924 0.19073 0.91993 0.0
S339 S 0.76492 0.23675 0.95839 0.0
N340 N 0.78153 0.29841 0.92452 0.0
N341 N 0.82295 0.16774 0.96862 0.0
C342 C 0.8595 0.19446 0.94435 0.0
C343 C 0.83687 0.26539 0.92032 0.0
C344 C 0.60507 0.94439 0.69614 0.0
C345 C 0.66201 0.97232 0.68815 0.0
C346 C 0.5749 0.87014 0.67704 0.0
C347 C 0.59911 0.83212 0.64768 0.0
H348 H 0.58271 -0.01536 0.71604 0.0
H349 H 0.52917 0.86197 0.68139 0.0
S350 S 0.75203 0.84236 0.62373 0.0
N351 N 0.74576 0.92798 0.65448 0.0
N352 N 0.68896 0.78409 0.62076 0.0
C353 C 0.65989 0.83137 0.64599 0.0
C354 C 0.69067 0.91043 0.66408 0.0
C355 C 0.37187 0.91937 0.62995 0.0
C356 C 0.414 -0.0062 0.63928 0.0
C357 C 0.34588 0.85099 0.65255 0.0
C358 C 0.36086 0.85378 0.68556 0.0
H359 H 0.36008 0.91125 0.60477 0.0
H360 H 0.31509 0.79335 0.64392 0.0
S361 S 0.45864 0.04734 0.72439 0.0
N362 N 0.46214 0.0756 0.68544 0.0
N363 N 0.41426 0.94639 0.72729 0.0
C364 C 0.39976 0.93198 0.69568 0.0
C365 C 0.4258 0.0023 0.67281 0.0
C366 C 0.62349 0.19061 0.93651 0.0
C367 C 0.61373 0.30218 0.93612 0.0
C368 C 0.65763 0.13788 0.9121 0.0
C369 C 0.68457 0.19542 0.88715 0.0
H370 H 0.60722 0.14482 0.95647 0.0
H371 H 0.66424 0.05235 0.9133 0.0
S372 S 0.67425 0.49242 0.87844 0.0
N373 N 0.63111 0.46689 0.90884 0.0
N374 N 0.70025 0.37487 0.86712 0.0
C375 C 0.67398 0.30744 0.88734 0.0
C376 C 0.63756 0.35887 0.9108 0.0
C377 C 0.43749 0.71813 0.9252 0.0
C378 C 0.42608 0.62816 0.94439 0.0
C379 C 0.39647 0.7591 0.90291 0.0
C380 C 0.34187 0.71272 0.89862 0.0
H381 H 0.47862 0.75695 0.92723 0.0
H382 H 0.40813 0.8268 0.8884 0.0
S383 S 0.29496 0.46452 0.94004 0.0
N384 N 0.35816 0.48953 0.95584 0.0
N385 N 0.28383 0.56101 0.91416 0.0
C386 C 0.33142 0.62052 0.91734 0.0
C387 C 0.37255 0.58015 0.94014 0.0
C388 C 0.6048 0.57839 0.14266 0.0
C389 C 0.59814 0.46709 0.14371 0.0
C390 C 0.64202 0.63355 0.16292 0.0
C391 C 0.67474 0.58157 0.18646 0.0
H392 H 0.57971 0.62652 0.12688 0.0
H393 H 0.64386 0.71944 0.16058 0.0
S394 S 0.6744 0.28963 0.20083 0.0
N395 N 0.62947 0.30507 0.17027 0.0
N396 N 0.6974 0.41006 0.21053 0.0
C397 C 0.6694 0.46955 0.18829 0.0
C398 C 0.63164 0.41226 0.16662 0.0
C399 C 0.32647 0.52136 0.19084 0.0
C400 C 0.35969 0.4595 0.21216 0.0
C401 C 0.35235 0.58228 0.16645 0.0
C402 C 0.41276 0.58137 0.16142 0.0
H403 H 0.27994 0.51663 0.19142 0.0
H404 H 0.32442 0.61814 0.14855 0.0
S405 S 0.51832 0.46799 0.21916 0.0
N406 N 0.45573 0.42543 0.23253 0.0
N407 N 0.50404 0.54075 0.18705 0.0
C408 C 0.44601 0.53418 0.186 0.0
C409 C 0.41969 0.47146 0.21085 0.0
C410 C 0.64342 0.75123 0.44365 0.0
C411 C 0.63237 0.86218 0.44615 0.0
C412 C 0.68023 0.70715 0.41914 0.0
C413 C 0.706 0.77233 0.39576 0.0
H414 H 0.62257 0.69812 0.46032 0.0
H415 H 0.68713 0.62155 0.41792 0.0
S416 S 0.69106 0.06902 0.39316 0.0
N417 N 0.65071 0.03553 0.42425 0.0
N418 N 0.71834 0.95574 0.37859 0.0
C419 C 0.69499 0.88366 0.39865 0.0
C420 C 0.65881 0.9278 0.42377 0.0
C421 C 0.3918 0.27246 0.45212 0.0
C422 C 0.44261 0.22492 0.43924 0.0
C423 C 0.35895 0.34565 0.43401 0.0
C424 C 0.37237 0.3642 0.40149 0.0
H425 H 0.37649 0.25045 0.47593 0.0
H426 H 0.32063 0.38217 0.4444 0.0
S427 S 0.51621 0.31023 0.36461 0.0
N428 N 0.51679 0.23918 0.39801 0.0
N429 N 0.45181 0.36802 0.36279 0.0
C430 C 0.42824 0.33354 0.39086 0.0
C431 C 0.4635 0.26387 0.40987 0.0
C432 C 0.04313 0.53344 0.06396 0.0
C433 C 1.00354 0.57319 1.04133 0.0
C434 C 0.05204 0.42376 0.06749 0.0
C435 C 0.02191 0.34909 0.04853 0.0
H436 H 0.06732 0.58713 0.07922 0.0
H437 H 0.08358 0.39768 0.0851 0.0
S438 S 0.91303 0.41219 0.98576 0.0
N439 N 0.93377 0.52923 0.99953 0.0
N440 N 0.95018 0.32331 1.00643 0.0
C441 C 0.98173 0.38775 1.02596 0.0
C442 C 0.97282 0.49958 1.02227 0.0
C443 C 0.22843 0.72964 0.34652 0.0
C444 C 0.21983 0.6608 0.31977 0.0
C445 C 0.2521 0.82894 0.34267 0.0
C446 C 0.26733 0.86524 0.31186 0.0
H447 H 0.2179 0.70668 0.37105 0.0
H448 H 0.25802 0.87794 0.36423 0.0
S449 S 0.25226 0.718 0.23385 0.0
N450 N 0.22898 0.63467 0.26149 0.0
N451 N 0.27144 0.82666 0.25384 0.0
C452 C 0.25929 0.79798 0.28474 0.0
C453 C 0.23589 0.69463 0.28881 0.0
C454 C 0.77403 0.19575 0.31241 0.0
C455 C 0.78995 0.15693 0.2814 0.0
C456 C 0.7694 0.30577 0.31895 0.0
C457 C 0.7795 0.38021 0.29451 0.0
H458 H 0.76372 0.14066 0.33149 0.0
H459 H 0.75795 0.33285 0.34326 0.0
S460 S 0.83081 0.31709 0.21066 0.0
N461 N 0.82049 0.19947 0.22698 0.0
N462 N 0.81264 0.4061 0.23904 0.0
C463 C 0.79711 0.3416 0.26364 0.0
C464 C 0.80197 0.22987 0.25711 0.0
C465 C 0.99974 0.01352 0.57992 0.0
C466 C 1.00635 0.93287 0.55593 0.0
C467 C 1.00744 0.12167 0.57263 0.0
C468 C 0.02257 0.15328 0.54112 0.0
H469 H 0.9887 -0.00717 0.60458 0.0
H470 H 1.00002 0.18113 0.5916 0.0
S471 S 0.05361 0.9749 0.47085 0.0
N472 N 0.03482 0.89349 0.50003 0.0
N473 N 0.04814 0.09621 0.48661 0.0
C474 C 0.03064 0.074 0.51721 0.0
C475 C 0.02285 0.9641 0.52452 0.0
C476 C 0.25964 0.14133 0.82169 0.0
C477 C 0.26875 0.06829 0.79576 0.0
C478 C 0.25705 0.25114 0.81649 0.0
C479 C 0.26366 0.29133 0.78521 0.0
H480 H 0.25365 0.11327 0.84619 0.0
H481 H 0.25177 0.30488 0.83717 0.0
S482 S 0.28586 0.13579 0.7089 0.0
N483 N 0.28227 0.04508 0.73741 0.0
N484 N 0.27862 0.25208 0.72791 0.0
C485 C 0.27272 0.2199 0.75908 0.0
C486 C 0.27526 0.10819 0.76429 0.0
C487 C 0.7573 0.61813 0.80629 0.0
C488 C 0.75727 0.5768 0.77444 0.0
C489 C 0.75792 0.72865 0.81222 0.0
C490 C 0.75895 0.80087 0.78641 0.0
H491 H 0.75585 0.56482 0.82666 0.0
H492 H 0.7581 0.75772 0.83709 0.0
S493 S 0.77145 0.72753 0.69913 0.0
N494 N 0.76358 0.6129 0.71733 0.0
N495 N 0.76878 0.82031 0.72797 0.0
C496 C 0.76137 0.75911 0.7545 0.0
C497 C 0.75947 0.64709 0.74865 0.0
C498 C 0.5188 0.58503 0.56027 0.0
C499 C 0.52353 0.61736 0.52783 0.0
C500 C 0.51472 0.47657 0.56805 0.0
C501 C 0.51498 0.39652 0.54369 0.0
H502 H 0.51655 0.64403 0.57972 0.0
H503 H 0.51122 0.45527 0.59334 0.0
S504 S 0.53602 0.44083 0.45553 0.0
N505 N 0.53312 0.56188 0.47163 0.0
N506 N 0.52763 0.35854 0.486 0.0
C507 C 0.52181 0.4285 0.51126 0.0
C508 C 0.52552 0.53868 0.50342 0.0
C509 C 0.5182 0.91441 0.06968 0.0
C510 C 0.51219 0.87301 1.0381 0.0
C511 C 0.52163 0.02442 0.07519 0.0
C512 C 0.5197 0.09587 0.04927 0.0
H513 H 0.52193 0.86135 0.09009 0.0
H514 H 0.5252 0.05403 0.09991 0.0
S515 S 0.49741 0.02614 0.96257 0.0
N516 N 0.50105 0.91017 0.98094 0.0
N517 N 0.50588 0.11773 0.99129 0.0
C518 C 0.51251 0.05512 1.01765 0.0
C519 C 0.50914 0.94327 1.01208 0.0
C520 C 0.32072 0.153 1.00843 0.0
C521 C 0.32127 0.2623 1.01632 0.0
C522 C 0.26837 0.10052 1.00414 0.0
C523 C 0.21555 0.1567 1.0067 0.0
H524 H 0.36037 0.10614 1.00866 0.0
H525 H 0.26896 0.01427 1.00198 0.0
S526 S 0.1953 0.44701 1.02139 0.0
N527 N 0.26576 0.42709 1.02284 0.0
N528 N 0.16755 0.32924 1.01325 0.0
C529 C 0.21628 0.26796 1.01077 0.0
C530 C 0.26925 0.3207 1.01615 0.0
C531 C 0.76328 0.84957 0.07857 0.0
C532 C 0.8156 0.79112 0.07873 0.0
C533 C 0.71025 0.79825 0.07528 0.0
C534 C 0.70807 0.68704 0.07094 0.0
H535 H 0.76371 0.93582 0.07784 0.0
H536 H 0.67142 0.84662 0.0729 0.0
S537 S 0.83179 0.49691 0.07303 0.0
N538 N 0.86101 0.61526 0.0779 0.0
N539 N 0.76167 0.51923 0.07022 0.0
C540 C 0.75942 0.62718 0.07359 0.0
C541 C 0.81316 0.6792 0.07795 0.0
C542 C 1.00632 0.32616 0.29986 0.0
C543 C 0.0619 0.35547 0.2904 0.0
C544 C 0.95781 0.38561 0.29016 0.0
C545 C 0.96346 0.47832 0.27156 0.0
H546 H 1.00065 0.26254 0.31703 0.0
H547 H 0.91636 0.36644 0.3006 0.0
S548 S 0.09875 0.57929 0.23679 0.0
N549 N 0.11924 0.47379 0.25763 0.0
N550 N 0.02803 0.58863 0.24089 0.0
C551 C 1.01813 0.50218 0.25942 0.0
C552 C 0.06748 0.4401 0.26862 0.0
C553 C 0.30918 0.74023 0.56421 0.0
C554 C 0.31938 0.82435 0.5431 0.0
C555 C 0.25312 0.70986 0.57083 0.0
C556 C 0.20641 0.76257 0.55628 0.0
H557 H 0.34454 0.69552 0.57476 0.0
H558 H 0.24636 0.64231 0.58642 0.0
S559 S 0.21011 -0.00134 0.50377 0.0
N560 N 0.27829 0.96898 0.51107 0.0
N561 N 0.17251 0.90867 0.52312 0.0
C562 C 0.21573 0.85 0.53654 0.0
C563 C 0.27258 0.88193 0.53006 0.0
C564 C 0.81606 0.21891 0.55514 0.0
C565 C 0.82145 0.32478 0.54556 0.0
C566 C 0.76328 0.16835 0.55227 0.0
C567 C 0.71496 0.22227 0.53956 0.0
H568 H 0.85305 0.17417 0.56383 0.0
H569 H 0.75987 0.08689 0.56043 0.0
S570 S 0.70627 0.50307 0.51379 0.0
N571 N 0.77397 0.4843 0.52472 0.0
N572 N 0.67455 0.38781 0.51932 0.0
C573 C 0.71963 0.32837 0.53037 0.0
C574 C 0.77302 0.38025 0.53356 0.0
C575 C 0.96558 0.85926 0.757 0.0
C576 C 0.95688 0.96906 0.75294 0.0
C577 C 0.02119 0.8172 0.76026 0.0
C578 C 0.06886 0.88426 0.75912 0.0
H579 H 0.92927 0.8082 0.76147 0.0
H580 H 0.02663 0.73407 0.7666 0.0
S581 S 0.06858 0.17339 0.74375 0.0
N582 N 0.99979 0.14153 0.74399 0.0
N583 N 0.10508 0.06114 0.74941 0.0
C584 C 0.06106 -0.00855 0.75124 0.0
C585 C 1.00446 0.03451 0.74828 0.0
C586 C 0.56027 0.49096 0.81955 0.0
C587 C 0.56609 0.3817 0.8122 0.0
C588 C 0.50561 0.53756 0.82413 0.0
C589 C 0.45597 0.47547 0.82189 0.0
H590 H 0.59722 0.54234 0.81813 0.0
H591 H 0.5018 0.62376 0.82569 0.0
S592 S 0.45004 0.18299 0.81001 0.0
N593 N 0.51934 0.21028 0.80799 0.0
N594 N 0.41641 0.2981 0.81731 0.0
C595 C 0.46202 0.36445 0.81902 0.0
C596 C 0.51741 0.31729 0.81377 0.0
C597 C 0.55248 0.96238 0.33206 0.0
C598 C 0.59496 0.00967 0.31271 0.0
C599 C 0.49685 0.00916 0.33547 0.0
C600 C 0.48167 0.10309 0.31892 0.0
H601 H 0.56119 0.88582 0.34299 0.0
H602 H 0.46447 0.96732 0.34909 0.0
S603 S 0.58069 0.26451 0.26933 0.0
N604 N 0.62052 0.16122 0.28034 0.0
N605 N 0.51634 0.2468 0.28539 0.0
C606 C 0.52525 0.15356 0.30113 0.0
C607 C 0.58176 0.10758 0.29844 0.0
loop_
_geom_bond_atom_site_label_1
_geom_bond_atom_site_label_2
_geom_bond_distance
_geom_bond_site_symmetry_2
_ccdc_geom_bond_type
Fe0 O1 1.886 1_556 S
Fe0 O4 1.715 . S
Fe0 O9 2.077 . S
Fe0 O14 1.935 1_655 S
Fe0 O20 2.077 . S
Fe0 O29 1.935 . S
O1 Fe0 1.886 1_554 S
O1 Fe3 1.715 . S
Fe2 O4 1.886 1_445 S
Fe2 O5 1.715 . S
Fe2 O12 1.935 . S
Fe2 O13 2.077 . S
Fe2 O19 1.935 1_455 S
Fe2 O28 2.077 1_455 S
Fe3 O1 1.715 . S
Fe3 O6 1.886 1_665 S
Fe3 O10 1.935 1_655 S
Fe3 O15 2.077 1_655 S
Fe3 O21 1.935 . S
Fe3 O25 2.077 . S
O4 Fe0 1.715 . S
O4 Fe2 1.886 1_665 S
O5 Fe2 1.715 . S
O5 Fe7 1.886 1_556 S
O6 Fe3 1.886 1_445 S
O6 Fe7 1.715 . S
Fe7 O5 1.886 1_554 S
Fe7 O6 1.715 . S
Fe7 O11 2.077 . S
Fe7 O16 1.935 . S
Fe7 O18 2.077 . S
Fe7 O26 1.935 1_455 S
C8 O20 1.381 1_554 S
C8 O21 1.421 . S
O9 Fe0 2.077 . S
O9 C22 1.381 1_656 S
O10 Fe3 1.935 1_455 S
O10 C22 1.421 . S
O11 Fe7 2.077 . S
O11 C27 1.381 1_554 S
O12 Fe2 1.935 . S
O12 C27 1.421 . S
O13 Fe2 2.077 . S
O13 C17 1.381 1_545 S
O14 Fe0 1.935 1_455 S
O14 C17 1.421 . S
O15 Fe3 2.077 1_455 S
O15 C23 1.381 . S
O16 Fe7 1.935 . S
O16 C23 1.421 1_545 S
C17 O13 1.381 1_565 S
C17 O14 1.421 . S
O18 Fe7 2.077 . S
O18 C30 1.381 1_454 S
O19 Fe2 1.935 1_655 S
O19 C30 1.421 . S
O20 Fe0 2.077 . S
O20 C8 1.381 1_556 S
O21 Fe3 1.935 . S
O21 C8 1.421 . S
C22 O9 1.381 1_454 S
C22 O10 1.421 . S
C23 O15 1.381 . S
C23 O16 1.421 1_565 S
C24 O25 1.381 1_545 S
C24 O26 1.421 . S
O25 Fe3 2.077 . S
O25 C24 1.381 1_565 S
O26 Fe7 1.935 1_655 S
O26 C24 1.421 . S
C27 O11 1.381 1_556 S
C27 O12 1.421 . S
O28 Fe2 2.077 1_655 S
O28 C31 1.381 . S
O29 Fe0 1.935 . S
O29 C31 1.421 1_565 S
C30 O18 1.381 1_656 S
C30 O19 1.421 . S
C31 O28 1.381 . S
C31 O29 1.421 1_545 S
Fe32 O33 1.886 . S
Fe32 O36 1.715 . S
Fe32 O41 2.077 . S
Fe32 O46 1.935 . S
Fe32 O52 2.077 . S
Fe32 O61 1.935 . S
O33 Fe32 1.886 . S
O33 Fe35 1.715 . S
Fe34 O36 1.886 . S
Fe34 O37 1.715 . S
Fe34 O44 1.935 . S
Fe34 O45 2.077 . S
Fe34 O51 1.935 . S
Fe34 O60 2.077 . S
Fe35 O33 1.715 . S
Fe35 O38 1.886 . S
Fe35 O42 1.935 . S
Fe35 O47 2.077 . S
Fe35 O53 1.935 . S
Fe35 O57 2.077 1_545 S
O36 Fe32 1.715 . S
O36 Fe34 1.886 . S
O37 Fe34 1.715 . S
O37 Fe39 1.886 . S
O38 Fe35 1.886 . S
O38 Fe39 1.715 . S
Fe39 O37 1.886 . S
Fe39 O38 1.715 . S
Fe39 O43 2.077 . S
Fe39 O48 1.935 . S
Fe39 O50 2.077 . S
Fe39 O58 1.935 1_545 S
C40 O52 1.381 . S
C40 O53 1.421 . S
O41 Fe32 2.077 . S
O41 C54 1.381 . S
O42 Fe35 1.935 . S
O42 C54 1.421 . S
O43 Fe39 2.077 . S
O43 C59 1.381 . S
O44 Fe34 1.935 . S
O44 C59 1.421 . S
O45 Fe34 2.077 . S
O45 C49 1.381 . S
O46 Fe32 1.935 . S
O46 C49 1.421 . S
O47 Fe35 2.077 . S
O47 C55 1.381 . S
O48 Fe39 1.935 . S
O48 C55 1.421 . S
C49 O45 1.381 . S
C49 O46 1.421 . S
O50 Fe39 2.077 . S
O50 C62 1.381 . S
O51 Fe34 1.935 . S
O51 C62 1.421 . S
O52 Fe32 2.077 . S
O52 C40 1.381 . S
O53 Fe35 1.935 . S
O53 C40 1.421 . S
C54 O41 1.381 . S
C54 O42 1.421 . S
C55 O47 1.381 . S
C55 O48 1.421 . S
C56 O57 1.381 . S
C56 O58 1.421 . S
O57 Fe35 2.077 1_565 S
O57 C56 1.381 . S
O58 Fe39 1.935 1_565 S
O58 C56 1.421 . S
C59 O43 1.381 . S
C59 O44 1.421 . S
O60 Fe34 2.077 . S
O60 C63 1.381 . S
O61 Fe32 1.935 . S
O61 C63 1.421 . S
C62 O50 1.381 . S
C62 O51 1.421 . S
C63 O60 1.381 . S
C63 O61 1.421 . S
Fe64 O65 1.886 . S
Fe64 O68 1.715 . S
Fe64 O73 2.077 . S
Fe64 O78 1.935 1_565 S
Fe64 O84 2.077 . S
Fe64 O93 1.935 . S
O65 Fe64 1.886 . S
O65 Fe67 1.715 . S
Fe66 O68 1.886 . S
Fe66 O69 1.715 . S
Fe66 O76 1.935 . S
Fe66 O77 2.077 1_565 S
Fe66 O83 1.935 . S
Fe66 O92 2.077 . S
Fe67 O65 1.715 . S
Fe67 O70 1.886 . S
Fe67 O74 1.935 . S
Fe67 O79 2.077 . S
Fe67 O85 1.935 . S
Fe67 O89 2.077 . S
O68 Fe64 1.715 . S
O68 Fe66 1.886 . S
O69 Fe66 1.715 . S
O69 Fe71 1.886 . S
O70 Fe67 1.886 . S
O70 Fe71 1.715 . S
Fe71 O69 1.886 . S
Fe71 O70 1.715 . S
Fe71 O75 2.077 . S
Fe71 O80 1.935 . S
Fe71 O82 2.077 . S
Fe71 O90 1.935 . S
C72 O84 1.381 . S
C72 O85 1.421 . S
O73 Fe64 2.077 . S
O73 C86 1.381 . S
O74 Fe67 1.935 . S
O74 C86 1.421 . S
O75 Fe71 2.077 . S
O75 C91 1.381 . S
O76 Fe66 1.935 . S
O76 C91 1.421 . S
O77 Fe66 2.077 1_545 S
O77 C81 1.381 . S
O78 Fe64 1.935 1_545 S
O78 C81 1.421 . S
O79 Fe67 2.077 . S
O79 C87 1.381 . S
O80 Fe71 1.935 . S
O80 C87 1.421 . S
C81 O77 1.381 . S
C81 O78 1.421 . S
O82 Fe71 2.077 . S
O82 C94 1.381 . S
O83 Fe66 1.935 . S
O83 C94 1.421 . S
O84 Fe64 2.077 . S
O84 C72 1.381 . S
O85 Fe67 1.935 . S
O85 C72 1.421 . S
C86 O73 1.381 . S
C86 O74 1.421 . S
C87 O79 1.381 . S
C87 O80 1.421 . S
C88 O89 1.381 . S
C88 O90 1.421 . S
O89 Fe67 2.077 . S
O89 C88 1.381 . S
O90 Fe71 1.935 . S
O90 C88 1.421 . S
C91 O75 1.381 . S
C91 O76 1.421 . S
O92 Fe66 2.077 . S
O92 C95 1.381 . S
O93 Fe64 1.935 . S
O93 C95 1.421 . S
C94 O82 1.381 . S
C94 O83 1.421 . S
C95 O92 1.381 . S
C95 O93 1.421 . S
Fe96 O97 1.886 . S
Fe96 O100 1.715 . S
Fe96 O105 2.077 . S
Fe96 O110 1.935 1_655 S
Fe96 O116 2.077 . S
Fe96 O125 1.935 . S
O97 Fe96 1.886 . S
O97 Fe99 1.715 . S
Fe98 O100 1.886 1_455 S
Fe98 O101 1.715 . S
Fe98 O108 1.935 . S
Fe98 O109 2.077 . S
Fe98 O115 1.935 1_455 S
Fe98 O124 2.077 1_455 S
Fe99 O97 1.715 . S
Fe99 O102 1.886 1_655 S
Fe99 O106 1.935 1_655 S
Fe99 O111 2.077 1_655 S
Fe99 O117 1.935 . S
Fe99 O121 2.077 . S
O100 Fe96 1.715 . S
O100 Fe98 1.886 1_655 S
O101 Fe98 1.715 . S
O101 Fe103 1.886 . S
O102 Fe99 1.886 1_455 S
O102 Fe103 1.715 . S
Fe103 O101 1.886 . S
Fe103 O102 1.715 . S
Fe103 O107 2.077 . S
Fe103 O112 1.935 . S
Fe103 O114 2.077 . S
Fe103 O122 1.935 1_455 S
C104 O116 1.381 . S
C104 O117 1.421 . S
O105 Fe96 2.077 . S
O105 C118 1.381 1_655 S
O106 Fe99 1.935 1_455 S
O106 C118 1.421 . S
O107 Fe103 2.077 . S
O107 C123 1.381 . S
O108 Fe98 1.935 . S
O108 C123 1.421 . S
O109 Fe98 2.077 . S
O109 C113 1.381 . S
O110 Fe96 1.935 1_455 S
O110 C113 1.421 . S
O111 Fe99 2.077 1_455 S
O111 C119 1.381 . S
O112 Fe103 1.935 . S
O112 C119 1.421 . S
C113 O109 1.381 . S
C113 O110 1.421 . S
O114 Fe103 2.077 . S
O114 C126 1.381 1_455 S
O115 Fe98 1.935 1_655 S
O115 C126 1.421 . S
O116 Fe96 2.077 . S
O116 C104 1.381 . S
O117 Fe99 1.935 . S
O117 C104 1.421 . S
C118 O105 1.381 1_455 S
C118 O106 1.421 . S
C119 O111 1.381 . S
C119 O112 1.421 . S
C120 O121 1.381 . S
C120 O122 1.421 . S
O121 Fe99 2.077 . S
O121 C120 1.381 . S
O122 Fe103 1.935 1_655 S
O122 C120 1.421 . S
C123 O107 1.381 . S
C123 O108 1.421 . S
O124 Fe98 2.077 1_655 S
O124 C127 1.381 . S
O125 Fe96 1.935 . S
O125 C127 1.421 . S
C126 O114 1.381 1_655 S
C126 O115 1.421 . S
C127 O124 1.381 . S
C127 O125 1.421 . S
Fe128 O129 1.886 . S
Fe128 O132 1.715 . S
Fe128 O137 2.077 . S
Fe128 O142 1.935 1_565 S
Fe128 O148 2.077 . S
Fe128 O157 1.935 . S
O129 Fe128 1.886 . S
O129 Fe131 1.715 . S
Fe130 O132 1.886 . S
Fe130 O133 1.715 . S
Fe130 O140 1.935 . S
Fe130 O141 2.077 1_565 S
Fe130 O147 1.935 . S
Fe130 O156 2.077 . S
Fe131 O129 1.715 . S
Fe131 O134 1.886 . S
Fe131 O138 1.935 . S
Fe131 O143 2.077 . S
Fe131 O149 1.935 . S
Fe131 O153 2.077 . S
O132 Fe128 1.715 . S
O132 Fe130 1.886 . S
O133 Fe130 1.715 . S
O133 Fe135 1.886 . S
O134 Fe131 1.886 . S
O134 Fe135 1.715 . S
Fe135 O133 1.886 . S
Fe135 O134 1.715 . S
Fe135 O139 2.077 . S
Fe135 O144 1.935 . S
Fe135 O146 2.077 . S
Fe135 O154 1.935 . S
C136 O148 1.381 . S
C136 O149 1.421 . S
O137 Fe128 2.077 . S
O137 C150 1.381 . S
O138 Fe131 1.935 . S
O138 C150 1.421 . S
O139 Fe135 2.077 . S
O139 C155 1.381 . S
O140 Fe130 1.935 . S
O140 C155 1.421 . S
O141 Fe130 2.077 1_545 S
O141 C145 1.381 . S
O142 Fe128 1.935 1_545 S
O142 C145 1.421 . S
O143 Fe131 2.077 . S
O143 C151 1.381 . S
O144 Fe135 1.935 . S
O144 C151 1.421 . S
C145 O141 1.381 . S
C145 O142 1.421 . S
O146 Fe135 2.077 . S
O146 C158 1.381 . S
O147 Fe130 1.935 . S
O147 C158 1.421 . S
O148 Fe128 2.077 . S
O148 C136 1.381 . S
O149 Fe131 1.935 . S
O149 C136 1.421 . S
C150 O137 1.381 . S
C150 O138 1.421 . S
C151 O143 1.381 . S
C151 O144 1.421 . S
C152 O153 1.381 . S
C152 O154 1.421 . S
O153 Fe131 2.077 . S
O153 C152 1.381 . S
O154 Fe135 1.935 . S
O154 C152 1.421 . S
C155 O139 1.381 . S
C155 O140 1.421 . S
O156 Fe130 2.077 . S
O156 C159 1.381 . S
O157 Fe128 1.935 . S
O157 C159 1.421 . S
C158 O146 1.381 . S
C158 O147 1.421 . S
C159 O156 1.381 . S
C159 O157 1.421 . S
Fe160 O161 1.886 . S
Fe160 O164 1.715 . S
Fe160 O169 2.077 . S
Fe160 O174 1.935 . S
Fe160 O180 2.077 . S
Fe160 O189 1.935 . S
O161 Fe160 1.886 . S
O161 Fe163 1.715 . S
Fe162 O164 1.886 . S
Fe162 O165 1.715 . S
Fe162 O172 1.935 . S
Fe162 O173 2.077 . S
Fe162 O179 1.935 . S
Fe162 O188 2.077 . S
Fe163 O161 1.715 . S
Fe163 O166 1.886 . S
Fe163 O170 1.935 . S
Fe163 O175 2.077 . S
Fe163 O181 1.935 . S
Fe163 O185 2.077 1_545 S
O164 Fe160 1.715 . S
O164 Fe162 1.886 . S
O165 Fe162 1.715 . S
O165 Fe167 1.886 . S
O166 Fe163 1.886 . S
O166 Fe167 1.715 . S
Fe167 O165 1.886 . S
Fe167 O166 1.715 . S
Fe167 O171 2.077 . S
Fe167 O176 1.935 . S
Fe167 O178 2.077 . S
Fe167 O186 1.935 1_545 S
C168 O180 1.381 . S
C168 O181 1.421 . S
O169 Fe160 2.077 . S
O169 C182 1.381 . S
O170 Fe163 1.935 . S
O170 C182 1.421 . S
O171 Fe167 2.077 . S
O171 C187 1.381 . S
O172 Fe162 1.935 . S
O172 C187 1.421 . S
O173 Fe162 2.077 . S
O173 C177 1.381 . S
O174 Fe160 1.935 . S
O174 C177 1.421 . S
O175 Fe163 2.077 . S
O175 C183 1.381 . S
O176 Fe167 1.935 . S
O176 C183 1.421 . S
C177 O173 1.381 . S
C177 O174 1.421 . S
O178 Fe167 2.077 . S
O178 C190 1.381 . S
O179 Fe162 1.935 . S
O179 C190 1.421 . S
O180 Fe160 2.077 . S
O180 C168 1.381 . S
O181 Fe163 1.935 . S
O181 C168 1.421 . S
C182 O169 1.381 . S
C182 O170 1.421 . S
C183 O175 1.381 . S
C183 O176 1.421 . S
C184 O185 1.381 . S
C184 O186 1.421 . S
O185 Fe163 2.077 1_565 S
O185 C184 1.381 . S
O186 Fe167 1.935 1_565 S
O186 C184 1.421 . S
C187 O171 1.381 . S
C187 O172 1.421 . S
O188 Fe162 2.077 . S
O188 C191 1.381 . S
O189 Fe160 1.935 . S
O189 C191 1.421 . S
C190 O178 1.381 . S
C190 O179 1.421 . S
C191 O188 1.381 . S
C191 O189 1.421 . S
Fe192 O193 1.886 . S
Fe192 O196 1.715 . S
Fe192 O201 2.077 . S
Fe192 O206 1.935 . S
Fe192 O212 2.077 . S
Fe192 O221 1.935 . S
O193 Fe192 1.886 . S
O193 Fe195 1.715 . S
Fe194 O196 1.886 1_545 S
Fe194 O197 1.715 . S
Fe194 O204 1.935 . S
Fe194 O205 2.077 . S
Fe194 O211 1.935 . S
Fe194 O220 2.077 . S
Fe195 O193 1.715 . S
Fe195 O198 1.886 1_565 S
Fe195 O202 1.935 . S
Fe195 O207 2.077 . S
Fe195 O213 1.935 . S
Fe195 O217 2.077 . S
O196 Fe192 1.715 . S
O196 Fe194 1.886 1_565 S
O197 Fe194 1.715 . S
O197 Fe199 1.886 . S
O198 Fe195 1.886 1_545 S
O198 Fe199 1.715 . S
Fe199 O197 1.886 . S
Fe199 O198 1.715 . S
Fe199 O203 2.077 . S
Fe199 O208 1.935 . S
Fe199 O210 2.077 . S
Fe199 O218 1.935 . S
C200 O212 1.381 . S
C200 O213 1.421 . S
O201 Fe192 2.077 . S
O201 C214 1.381 . S
O202 Fe195 1.935 . S
O202 C214 1.421 . S
O203 Fe199 2.077 . S
O203 C219 1.381 . S
O204 Fe194 1.935 . S
O204 C219 1.421 . S
O205 Fe194 2.077 . S
O205 C209 1.381 1_545 S
O206 Fe192 1.935 . S
O206 C209 1.421 . S
O207 Fe195 2.077 . S
O207 C215 1.381 . S
O208 Fe199 1.935 . S
O208 C215 1.421 1_545 S
C209 O205 1.381 1_565 S
C209 O206 1.421 . S
O210 Fe199 2.077 . S
O210 C222 1.381 . S
O211 Fe194 1.935 . S
O211 C222 1.421 . S
O212 Fe192 2.077 . S
O212 C200 1.381 . S
O213 Fe195 1.935 . S
O213 C200 1.421 . S
C214 O201 1.381 . S
C214 O202 1.421 . S
C215 O207 1.381 . S
C215 O208 1.421 1_565 S
C216 O217 1.381 1_545 S
C216 O218 1.421 . S
O217 Fe195 2.077 . S
O217 C216 1.381 1_565 S
O218 Fe199 1.935 . S
O218 C216 1.421 . S
C219 O203 1.381 . S
C219 O204 1.421 . S
O220 Fe194 2.077 . S
O220 C223 1.381 . S
O221 Fe192 1.935 . S
O221 C223 1.421 1_565 S
C222 O210 1.381 . S
C222 O211 1.421 . S
C223 O220 1.381 . S
C223 O221 1.421 1_545 S
Fe224 O225 1.886 1_556 S
Fe224 O228 1.715 . S
Fe224 O233 2.077 . S
Fe224 O238 1.935 . S
Fe224 O244 2.077 . S
Fe224 O253 1.935 . S
O225 Fe224 1.886 1_554 S
O225 Fe227 1.715 . S
Fe226 O228 1.886 . S
Fe226 O229 1.715 . S
Fe226 O236 1.935 . S
Fe226 O237 2.077 . S
Fe226 O243 1.935 . S
Fe226 O252 2.077 . S
Fe227 O225 1.715 . S
Fe227 O230 1.886 . S
Fe227 O234 1.935 . S
Fe227 O239 2.077 . S
Fe227 O245 1.935 . S
Fe227 O249 2.077 . S
O228 Fe224 1.715 . S
O228 Fe226 1.886 . S
O229 Fe226 1.715 . S
O229 Fe231 1.886 1_556 S
O230 Fe227 1.886 . S
O230 Fe231 1.715 . S
Fe231 O229 1.886 1_554 S
Fe231 O230 1.715 . S
Fe231 O235 2.077 . S
Fe231 O240 1.935 . S
Fe231 O242 2.077 . S
Fe231 O250 1.935 . S
C232 O244 1.381 1_554 S
C232 O245 1.421 . S
O233 Fe224 2.077 . S
O233 C246 1.381 1_556 S
O234 Fe227 1.935 . S
O234 C246 1.421 . S
O235 Fe231 2.077 . S
O235 C251 1.381 1_554 S
O236 Fe226 1.935 . S
O236 C251 1.421 . S
O237 Fe226 2.077 . S
O237 C241 1.381 . S
O238 Fe224 1.935 . S
O238 C241 1.421 . S
O239 Fe227 2.077 . S
O239 C247 1.381 . S
O240 Fe231 1.935 . S
O240 C247 1.421 . S
C241 O237 1.381 . S
C241 O238 1.421 . S
O242 Fe231 2.077 . S
O242 C254 1.381 1_554 S
O243 Fe226 1.935 . S
O243 C254 1.421 . S
O244 Fe224 2.077 . S
O244 C232 1.381 1_556 S
O245 Fe227 1.935 . S
O245 C232 1.421 . S
C246 O233 1.381 1_554 S
C246 O234 1.421 . S
C247 O239 1.381 . S
C247 O240 1.421 . S
C248 O249 1.381 . S
C248 O250 1.421 . S
O249 Fe227 2.077 . S
O249 C248 1.381 . S
O250 Fe231 1.935 . S
O250 C248 1.421 . S
C251 O235 1.381 1_556 S
C251 O236 1.421 . S
O252 Fe226 2.077 . S
O252 C255 1.381 . S
O253 Fe224 1.935 . S
O253 C255 1.421 . S
C254 O242 1.381 1_556 S
C254 O243 1.421 . S
C255 O252 1.381 . S
C255 O253 1.421 . S
C256 C257 1.369 . S
C256 C258 1.419 . S
C256 H260 0.930 . S
C257 C256 1.369 . S
C257 C266 1.429 1_565 S
C258 C256 1.419 . S
C258 C259 1.363 1_565 S
C258 H261 0.929 . S
C259 C258 1.363 1_545 S
C259 C265 1.428 . S
H260 C256 0.930 . S
H261 C258 0.929 . S
S262 N263 1.613 . S
S262 N264 1.610 . S
N263 S262 1.613 . S
N263 C266 1.350 . S
N264 S262 1.610 . S
N264 C265 1.351 . S
C265 C259 1.428 . S
C265 N264 1.351 . S
C265 C266 1.434 . S
C266 C257 1.429 1_545 S
C266 N263 1.350 . S
C266 C265 1.434 . S
C267 C268 1.369 . S
C267 C269 1.419 1_545 S
C267 H271 0.930 . S
C268 C267 1.369 . S
C268 C277 1.429 1_545 S
C269 C267 1.419 1_565 S
C269 C270 1.363 . S
C269 H272 0.929 . S
C270 C269 1.363 . S
C270 C276 1.428 . S
H271 C267 0.930 . S
H272 C269 0.929 . S
S273 N274 1.613 . S
S273 N275 1.610 . S
N274 S273 1.613 . S
N274 C277 1.350 . S
N275 S273 1.610 . S
N275 C276 1.351 . S
C276 C270 1.428 . S
C276 N275 1.351 . S
C276 C277 1.434 . S
C277 C268 1.429 1_565 S
C277 N274 1.350 . S
C277 C276 1.434 . S
C278 C279 1.369 . S
C278 C280 1.419 . S
C278 H282 0.930 . S
C279 C278 1.369 . S
C279 C288 1.429 . S
C280 C278 1.419 . S
C280 C281 1.363 . S
C280 H283 0.929 . S
C281 C280 1.363 . S
C281 C287 1.428 . S
H282 C278 0.930 . S
H283 C280 0.929 . S
S284 N285 1.613 . S
S284 N286 1.610 . S
N285 S284 1.613 . S
N285 C288 1.350 . S
N286 S284 1.610 . S
N286 C287 1.351 . S
C287 C281 1.428 . S
C287 N286 1.351 . S
C287 C288 1.434 . S
C288 C279 1.429 . S
C288 N285 1.350 . S
C288 C287 1.434 . S
C289 C290 1.369 . S
C289 C291 1.419 . S
C289 H293 0.930 . S
C290 C289 1.369 . S
C290 C299 1.429 . S
C291 C289 1.419 . S
C291 C292 1.363 . S
C291 H294 0.929 . S
C292 C291 1.363 . S
C292 C298 1.428 . S
H293 C289 0.930 . S
H294 C291 0.929 . S
S295 N296 1.613 . S
S295 N297 1.610 . S
N296 S295 1.613 . S
N296 C299 1.350 . S
N297 S295 1.610 . S
N297 C298 1.351 . S
C298 C292 1.428 . S
C298 N297 1.351 . S
C298 C299 1.434 . S
C299 C290 1.429 . S
C299 N296 1.350 . S
C299 C298 1.434 . S
C300 C301 1.369 . S
C300 C302 1.419 . S
C300 H304 0.930 . S
C301 C300 1.369 . S
C301 C310 1.429 . S
C302 C300 1.419 . S
C302 C303 1.363 . S
C302 H305 0.929 . S
C303 C302 1.363 . S
C303 C309 1.428 . S
H304 C300 0.930 . S
H305 C302 0.929 . S
S306 N307 1.613 . S
S306 N308 1.610 . S
N307 S306 1.613 . S
N307 C310 1.350 . S
N308 S306 1.610 . S
N308 C309 1.351 . S
C309 C303 1.428 . S
C309 N308 1.351 . S
C309 C310 1.434 . S
C310 C301 1.429 . S
C310 N307 1.350 . S
C310 C309 1.434 . S
C311 C312 1.369 . S
C311 C313 1.419 . S
C311 H315 0.930 . S
C312 C311 1.369 . S
C312 C321 1.429 . S
C313 C311 1.419 . S
C313 C314 1.363 . S
C313 H316 0.929 . S
C314 C313 1.363 . S
C314 C320 1.428 . S
H315 C311 0.930 . S
H316 C313 0.929 . S
S317 N318 1.613 . S
S317 N319 1.610 . S
N318 S317 1.613 . S
N318 C321 1.350 . S
N319 S317 1.610 . S
N319 C320 1.351 . S
C320 C314 1.428 . S
C320 N319 1.351 . S
C320 C321 1.434 . S
C321 C312 1.429 . S
C321 N318 1.350 . S
C321 C320 1.434 . S
C322 C323 1.369 . S
C322 C324 1.419 . S
C322 H326 0.930 . S
C323 C322 1.369 . S
C323 C332 1.429 . S
C324 C322 1.419 . S
C324 C325 1.363 . S
C324 H327 0.929 . S
C325 C324 1.363 . S
C325 C331 1.428 . S
H326 C322 0.930 . S
H327 C324 0.929 . S
S328 N329 1.613 . S
S328 N330 1.610 . S
N329 S328 1.613 . S
N329 C332 1.350 . S
N330 S328 1.610 . S
N330 C331 1.351 . S
C331 C325 1.428 . S
C331 N330 1.351 . S
C331 C332 1.434 . S
C332 C323 1.429 . S
C332 N329 1.350 . S
C332 C331 1.434 . S
C333 C334 1.369 . S
C333 C335 1.419 . S
C333 H337 0.930 . S
C334 C333 1.369 . S
C334 C343 1.429 . S
C335 C333 1.419 . S
C335 C336 1.363 . S
C335 H338 0.929 . S
C336 C335 1.363 . S
C336 C342 1.428 . S
H337 C333 0.930 . S
H338 C335 0.929 . S
S339 N340 1.613 . S
S339 N341 1.610 . S
N340 S339 1.613 . S
N340 C343 1.350 . S
N341 S339 1.610 . S
N341 C342 1.351 . S
C342 C336 1.428 . S
C342 N341 1.351 . S
C342 C343 1.434 . S
C343 C334 1.429 . S
C343 N340 1.350 . S
C343 C342 1.434 . S
C344 C345 1.369 . S
C344 C346 1.419 1_545 S
C344 H348 0.930 . S
C345 C344 1.369 . S
C345 C354 1.429 . S
C346 C344 1.419 1_565 S
C346 C347 1.363 . S
C346 H349 0.929 . S
C347 C346 1.363 . S
C347 C353 1.428 1_565 S
H348 C344 0.930 . S
H349 C346 0.929 . S
S350 N351 1.613 . S
S350 N352 1.610 . S
N351 S350 1.613 . S
N351 C354 1.350 . S
N352 S350 1.610 . S
N352 C353 1.351 . S
C353 C347 1.428 1_545 S
C353 N352 1.351 . S
C353 C354 1.434 . S
C354 C345 1.429 . S
C354 N351 1.350 . S
C354 C353 1.434 . S
C355 C356 1.369 1_565 S
C355 C357 1.419 . S
C355 H359 0.930 . S
C356 C355 1.369 1_545 S
C356 C365 1.429 . S
C357 C355 1.419 . S
C357 C358 1.363 . S
C357 H360 0.929 . S
C358 C357 1.363 . S
C358 C364 1.428 1_565 S
H359 C355 0.930 . S
H360 C357 0.929 . S
S361 N362 1.613 . S
S361 N363 1.610 . S
N362 S361 1.613 . S
N362 C365 1.350 . S
N363 S361 1.610 . S
N363 C364 1.351 . S
C364 C358 1.428 1_545 S
C364 N363 1.351 . S
C364 C365 1.434 . S
C365 C356 1.429 . S
C365 N362 1.350 . S
C365 C364 1.434 . S
C366 C367 1.369 . S
C366 C368 1.419 . S
C366 H370 0.930 . S
C367 C366 1.369 . S
C367 C376 1.429 . S
C368 C366 1.419 . S
C368 C369 1.363 . S
C368 H371 0.929 . S
C369 C368 1.363 . S
C369 C375 1.428 . S
H370 C366 0.930 . S
H371 C368 0.929 . S
S372 N373 1.613 . S
S372 N374 1.610 . S
N373 S372 1.613 . S
N373 C376 1.350 . S
N374 S372 1.610 . S
N374 C375 1.351 . S
C375 C369 1.428 . S
C375 N374 1.351 . S
C375 C376 1.434 . S
C376 C367 1.429 . S
C376 N373 1.350 . S
C376 C375 1.434 . S
C377 C378 1.369 . S
C377 C379 1.419 . S
C377 H381 0.930 . S
C378 C377 1.369 . S
C378 C387 1.429 . S
C379 C377 1.419 . S
C379 C380 1.363 . S
C379 H382 0.929 . S
C380 C379 1.363 . S
C380 C386 1.428 . S
H381 C377 0.930 . S
H382 C379 0.929 . S
S383 N384 1.613 . S
S383 N385 1.610 . S
N384 S383 1.613 . S
N384 C387 1.350 . S
N385 S383 1.610 . S
N385 C386 1.351 . S
C386 C380 1.428 . S
C386 N385 1.351 . S
C386 C387 1.434 . S
C387 C378 1.429 . S
C387 N384 1.350 . S
C387 C386 1.434 . S
C388 C389 1.369 . S
C388 C390 1.419 . S
C388 H392 0.930 . S
C389 C388 1.369 . S
C389 C398 1.429 . S
C390 C388 1.419 . S
C390 C391 1.363 . S
C390 H393 0.929 . S
C391 C390 1.363 . S
C391 C397 1.428 . S
H392 C388 0.930 . S
H393 C390 0.929 . S
S394 N395 1.613 . S
S394 N396 1.610 . S
N395 S394 1.613 . S
N395 C398 1.350 . S
N396 S394 1.610 . S
N396 C397 1.351 . S
C397 C391 1.428 . S
C397 N396 1.351 . S
C397 C398 1.434 . S
C398 C389 1.429 . S
C398 N395 1.350 . S
C398 C397 1.434 . S
C399 C400 1.369 . S
C399 C401 1.419 . S
C399 H403 0.930 . S
C400 C399 1.369 . S
C400 C409 1.429 . S
C401 C399 1.419 . S
C401 C402 1.363 . S
C401 H404 0.929 . S
C402 C401 1.363 . S
C402 C408 1.428 . S
H403 C399 0.930 . S
H404 C401 0.929 . S
S405 N406 1.613 . S
S405 N407 1.610 . S
N406 S405 1.613 . S
N406 C409 1.350 . S
N407 S405 1.610 . S
N407 C408 1.351 . S
C408 C402 1.428 . S
C408 N407 1.351 . S
C408 C409 1.434 . S
C409 C400 1.429 . S
C409 N406 1.350 . S
C409 C408 1.434 . S
C410 C411 1.369 . S
C410 C412 1.419 . S
C410 H414 0.930 . S
C411 C410 1.369 . S
C411 C420 1.429 . S
C412 C410 1.419 . S
C412 C413 1.363 . S
C412 H415 0.929 . S
C413 C412 1.363 . S
C413 C419 1.428 . S
H414 C410 0.930 . S
H415 C412 0.929 . S
S416 N417 1.613 . S
S416 N418 1.610 1_545 S
N417 S416 1.613 . S
N417 C420 1.350 1_545 S
N418 S416 1.610 1_565 S
N418 C419 1.351 . S
C419 C413 1.428 . S
C419 N418 1.351 . S
C419 C420 1.434 . S
C420 C411 1.429 . S
C420 N417 1.350 1_565 S
C420 C419 1.434 . S
C421 C422 1.369 . S
C421 C423 1.419 . S
C421 H425 0.930 . S
C422 C421 1.369 . S
C422 C431 1.429 . S
C423 C421 1.419 . S
C423 C424 1.363 . S
C423 H426 0.929 . S
C424 C423 1.363 . S
C424 C430 1.428 . S
H425 C421 0.930 . S
H426 C423 0.929 . S
S427 N428 1.613 . S
S427 N429 1.610 1_565 S
N428 S427 1.613 . S
N428 C431 1.350 1_565 S
N429 S427 1.610 1_545 S
N429 C430 1.351 . S
C430 C424 1.428 . S
C430 N429 1.351 . S
C430 C431 1.434 . S
C431 C422 1.429 . S
C431 N428 1.350 1_545 S
C431 C430 1.434 . S
C432 C433 1.364 1_654 S
C432 C434 1.419 . S
C432 H436 0.930 . S
C433 C432 1.364 1_456 S
C433 C442 1.434 . S
C434 C432 1.419 . S
C434 C435 1.362 1_554 S
C434 H437 0.929 . S
C435 C434 1.362 1_556 S
C435 C441 1.430 1_655 S
H436 C432 0.930 . S
H437 C434 0.929 . S
S438 N439 1.613 . S
S438 N440 1.610 . S
N439 S438 1.613 . S
N439 C442 1.350 . S
N440 S438 1.610 . S
N440 C441 1.351 . S
C441 C435 1.430 1_455 S
C441 N440 1.351 . S
C441 C442 1.434 . S
C442 C433 1.434 . S
C442 N439 1.350 . S
C442 C441 1.434 . S
C443 C444 1.369 . S
C443 C445 1.419 . S
C443 H447 0.930 . S
C444 C443 1.369 . S
C444 C453 1.429 . S
C445 C443 1.419 . S
C445 C446 1.363 . S
C445 H448 0.929 . S
C446 C445 1.363 . S
C446 C452 1.428 . S
H447 C443 0.930 . S
H448 C445 0.929 . S
S449 N450 1.613 . S
S449 N451 1.610 . S
N450 S449 1.613 . S
N450 C453 1.350 . S
N451 S449 1.610 . S
N451 C452 1.351 . S
C452 C446 1.428 . S
C452 N451 1.351 . S
C452 C453 1.434 . S
C453 C444 1.429 . S
C453 N450 1.350 . S
C453 C452 1.434 . S
C454 C455 1.369 . S
C454 C456 1.419 . S
C454 H458 0.930 . S
C455 C454 1.369 . S
C455 C464 1.429 . S
C456 C454 1.419 . S
C456 C457 1.363 . S
C456 H459 0.929 . S
C457 C456 1.363 . S
C457 C463 1.428 . S
H458 C454 0.930 . S
H459 C456 0.929 . S
S460 N461 1.613 . S
S460 N462 1.610 . S
N461 S460 1.613 . S
N461 C464 1.350 . S
N462 S460 1.610 . S
N462 C463 1.351 . S
C463 C457 1.428 . S
C463 N462 1.351 . S
C463 C464 1.434 . S
C464 C455 1.429 . S
C464 N461 1.350 . S
C464 C463 1.434 . S
C465 C466 1.369 . S
C465 C467 1.419 1_565 S
C465 H469 0.930 . S
C466 C465 1.369 . S
C466 C475 1.429 1_655 S
C467 C465 1.419 1_545 S
C467 C468 1.363 1_655 S
C467 H470 0.929 . S
C468 C467 1.363 1_455 S
C468 C474 1.428 . S
H469 C465 0.930 . S
H470 C467 0.929 . S
S471 N472 1.613 . S
S471 N473 1.610 1_565 S
N472 S471 1.613 . S
N472 C475 1.350 . S
N473 S471 1.610 1_545 S
N473 C474 1.351 . S
C474 C468 1.428 . S
C474 N473 1.351 . S
C474 C475 1.434 1_545 S
C475 C466 1.429 1_455 S
C475 N472 1.350 . S
C475 C474 1.434 1_565 S
C476 C477 1.369 . S
C476 C478 1.419 . S
C476 H480 0.930 . S
C477 C476 1.369 . S
C477 C486 1.429 . S
C478 C476 1.419 . S
C478 C479 1.363 . S
C478 H481 0.929 . S
C479 C478 1.363 . S
C479 C485 1.428 . S
H480 C476 0.930 . S
H481 C478 0.929 . S
S482 N483 1.613 . S
S482 N484 1.610 . S
N483 S482 1.613 . S
N483 C486 1.350 . S
N484 S482 1.610 . S
N484 C485 1.351 . S
C485 C479 1.428 . S
C485 N484 1.351 . S
C485 C486 1.434 . S
C486 C477 1.429 . S
C486 N483 1.350 . S
C486 C485 1.434 . S
C487 C488 1.369 . S
C487 C489 1.419 . S
C487 H491 0.930 . S
C488 C487 1.369 . S
C488 C497 1.429 . S
C489 C487 1.419 . S
C489 C490 1.363 . S
C489 H492 0.929 . S
C490 C489 1.363 . S
C490 C496 1.428 . S
H491 C487 0.930 . S
H492 C489 0.929 . S
S493 N494 1.613 . S
S493 N495 1.610 . S
N494 S493 1.613 . S
N494 C497 1.350 . S
N495 S493 1.610 . S
N495 C496 1.351 . S
C496 C490 1.428 . S
C496 N495 1.351 . S
C496 C497 1.434 . S
C497 C488 1.429 . S
C497 N494 1.350 . S
C497 C496 1.434 . S
C498 C499 1.369 . S
C498 C500 1.419 . S
C498 H502 0.930 . S
C499 C498 1.369 . S
C499 C508 1.429 . S
C500 C498 1.419 . S
C500 C501 1.363 . S
C500 H503 0.929 . S
C501 C500 1.363 . S
C501 C507 1.428 . S
H502 C498 0.930 . S
H503 C500 0.929 . S
S504 N505 1.613 . S
S504 N506 1.610 . S
N505 S504 1.613 . S
N505 C508 1.350 . S
N506 S504 1.610 . S
N506 C507 1.351 . S
C507 C501 1.428 . S
C507 N506 1.351 . S
C507 C508 1.434 . S
C508 C499 1.429 . S
C508 N505 1.350 . S
C508 C507 1.434 . S
C509 C510 1.364 1_554 S
C509 C511 1.419 1_565 S
C509 H513 0.930 . S
C510 C509 1.364 1_556 S
C510 C519 1.434 . S
C511 C509 1.419 1_545 S
C511 C512 1.362 1_554 S
C511 H514 0.929 . S
C512 C511 1.362 1_556 S
C512 C518 1.430 . S
H513 C509 0.930 . S
H514 C511 0.929 . S
S515 N516 1.613 1_545 S
S515 N517 1.610 . S
N516 S515 1.613 1_565 S
N516 C519 1.350 . S
N517 S515 1.610 . S
N517 C518 1.351 . S
C518 C512 1.430 . S
C518 N517 1.351 . S
C518 C519 1.434 1_545 S
C519 C510 1.434 . S
C519 N516 1.350 . S
C519 C518 1.434 1_565 S
C520 C521 1.357 1_556 S
C520 C522 1.419 . S
C520 H524 0.930 . S
C521 C520 1.357 1_554 S
C521 C530 1.441 . S
C522 C520 1.419 . S
C522 C523 1.354 1_556 S
C522 H525 0.929 . S
C523 C522 1.354 1_554 S
C523 C529 1.438 . S
H524 C520 0.930 . S
H525 C522 0.929 . S
S526 N527 1.613 . S
S526 N528 1.610 . S
N527 S526 1.613 . S
N527 C530 1.350 . S
N528 S526 1.610 . S
N528 C529 1.351 . S
C529 C523 1.438 . S
C529 N528 1.351 . S
C529 C530 1.434 . S
C530 C521 1.441 . S
C530 N527 1.350 . S
C530 C529 1.434 . S
C531 C532 1.356 1_556 S
C531 C533 1.419 . S
C531 H535 0.930 . S
C532 C531 1.356 1_554 S
C532 C541 1.442 . S
C533 C531 1.419 . S
C533 C534 1.352 1_556 S
C533 H536 0.929 . S
C534 C533 1.352 1_554 S
C534 C540 1.440 . S
H535 C531 0.930 . S
H536 C533 0.929 . S
S537 N538 1.613 . S
S537 N539 1.610 . S
N538 S537 1.613 . S
N538 C541 1.350 . S
N539 S537 1.610 . S
N539 C540 1.351 . S
C540 C534 1.440 . S
C540 N539 1.351 . S
C540 C541 1.434 . S
C541 C532 1.442 . S
C541 N538 1.350 . S
C541 C540 1.434 . S
C542 C543 1.369 . S
C542 C544 1.419 1_455 S
C542 H546 0.930 . S
C543 C542 1.369 . S
C543 C552 1.429 . S
C544 C542 1.419 1_655 S
C544 C545 1.363 . S
C544 H547 0.929 . S
C545 C544 1.363 . S
C545 C551 1.428 . S
H546 C542 0.930 . S
H547 C544 0.929 . S
S548 N549 1.613 . S
S548 N550 1.610 1_455 S
N549 S548 1.613 . S
N549 C552 1.350 . S
N550 S548 1.610 1_655 S
N550 C551 1.351 . S
C551 C545 1.428 . S
C551 N550 1.351 . S
C551 C552 1.434 1_655 S
C552 C543 1.429 . S
C552 N549 1.350 . S
C552 C551 1.434 1_455 S
C553 C554 1.369 . S
C553 C555 1.419 . S
C553 H557 0.930 . S
C554 C553 1.369 . S
C554 C563 1.429 . S
C555 C553 1.419 . S
C555 C556 1.363 . S
C555 H558 0.929 . S
C556 C555 1.363 . S
C556 C562 1.428 . S
H557 C553 0.930 . S
H558 C555 0.929 . S
S559 N560 1.613 . S
S559 N561 1.610 . S
N560 S559 1.613 . S
N560 C563 1.350 . S
N561 S559 1.610 . S
N561 C562 1.351 . S
C562 C556 1.428 . S
C562 N561 1.351 . S
C562 C563 1.434 . S
C563 C554 1.429 . S
C563 N560 1.350 . S
C563 C562 1.434 . S
C564 C565 1.369 . S
C564 C566 1.419 . S
C564 H568 0.930 . S
C565 C564 1.369 . S
C565 C574 1.429 . S
C566 C564 1.419 . S
C566 C567 1.363 . S
C566 H569 0.929 . S
C567 C566 1.363 . S
C567 C573 1.428 . S
H568 C564 0.930 . S
H569 C566 0.929 . S
S570 N571 1.613 . S
S570 N572 1.610 . S
N571 S570 1.613 . S
N571 C574 1.350 . S
N572 S570 1.610 . S
N572 C573 1.351 . S
C573 C567 1.428 . S
C573 N572 1.351 . S
C573 C574 1.434 . S
C574 C565 1.429 . S
C574 N571 1.350 . S
C574 C573 1.434 . S
C575 C576 1.369 1_565 S
C575 C577 1.419 1_655 S
C575 H579 0.930 . S
C576 C575 1.369 1_545 S
C576 C585 1.429 . S
C577 C575 1.419 1_455 S
C577 C578 1.363 . S
C577 H580 0.929 . S
C578 C577 1.363 . S
C578 C584 1.428 1_565 S
H579 C575 0.930 . S
H580 C577 0.929 . S
S581 N582 1.613 1_455 S
S581 N583 1.610 . S
N582 S581 1.613 1_655 S
N582 C585 1.350 . S
N583 S581 1.610 . S
N583 C584 1.351 . S
C584 C578 1.428 1_545 S
C584 N583 1.351 . S
C584 C585 1.434 1_455 S
C585 C576 1.429 . S
C585 N582 1.350 . S
C585 C584 1.434 1_655 S
C586 C587 1.369 . S
C586 C588 1.419 . S
C586 H590 0.930 . S
C587 C586 1.369 . S
C587 C596 1.429 . S
C588 C586 1.419 . S
C588 C589 1.363 . S
C588 H591 0.929 . S
C589 C588 1.363 . S
C589 C595 1.428 . S
H590 C586 0.930 . S
H591 C588 0.929 . S
S592 N593 1.613 . S
S592 N594 1.610 . S
N593 S592 1.613 . S
N593 C596 1.350 . S
N594 S592 1.610 . S
N594 C595 1.351 . S
C595 C589 1.428 . S
C595 N594 1.351 . S
C595 C596 1.434 . S
C596 C587 1.429 . S
C596 N593 1.350 . S
C596 C595 1.434 . S
C597 C598 1.369 . S
C597 C599 1.419 . S
C597 H601 0.930 . S
C598 C597 1.369 . S
C598 C607 1.429 1_565 S
C599 C597 1.419 . S
C599 C600 1.363 1_565 S
C599 H602 0.929 . S
C600 C599 1.363 1_545 S
C600 C606 1.428 . S
H601 C597 0.930 . S
H602 C599 0.929 . S
S603 N604 1.613 . S
S603 N605 1.610 . S
N604 S603 1.613 . S
N604 C607 1.350 . S
N605 S603 1.610 . S
N605 C606 1.351 . S
C606 C600 1.428 . S
C606 N605 1.351 . S
C606 C607 1.434 . S
C607 C598 1.429 1_545 S
C607 N604 1.350 . S
C607 C606 1.434 . S
C257 C23 1.427 . S
C259 C40 1.671 . S
C268 C24 1.502 . S
C270 C86 1.710 . S
C279 C113 1.670 . S
C281 C62 1.429 . S
C290 C91 1.500 . S
C292 C127 1.714 . S
C301 C119 1.427 . S
C303 C136 1.672 . S
C312 C182 1.712 . S
C314 C120 1.501 . S
C323 C158 1.440 . S
C325 C17 1.670 . S
C334 C187 1.496 . S
C336 C31 1.715 . S
C345 C168 1.672 . S
C347 C215 1.429 . S
C356 C216 1.503 . S
C358 C150 1.711 . S
C367 C241 1.677 . S
C369 C190 1.424 . S
C378 C255 1.715 . S
C380 C155 1.491 . S
C389 C247 1.440 . S
C391 C72 1.671 . S
C400 C54 1.715 . S
C402 C248 1.496 . S
C411 C209 1.672 . S
C413 C94 1.428 . S
C422 C223 1.709 . S
C424 C59 1.495 . S
C433 C22 0.895 1_556 S
C435 C30 0.892 . S
C444 C49 0.891 . S
C446 C56 0.898 . S
C455 C81 0.902 . S
C457 C88 0.889 . S
C466 C126 0.882 . S
C468 C118 0.903 . S
C477 C145 0.886 . S
C479 C152 0.901 . S
C488 C177 0.895 . S
C490 C184 0.894 . S
C499 C214 0.896 . S
C501 C222 0.892 . S
C510 C254 0.893 . S
C512 C246 0.894 1_556 S
C521 C232 1.487 . S
C523 C27 1.483 1_554 S
C532 C8 1.485 . S
C534 C251 1.490 1_554 S
C543 C63 1.483 . S
C545 C87 1.489 . S
C554 C200 1.489 . S
C556 C123 1.482 . S
C565 C104 1.489 . S
C567 C219 1.486 . S
C576 C183 1.489 . S
C578 C159 1.485 . S
C587 C191 1.489 . S
C589 C151 1.484 . S
C598 C95 1.484 . S
C600 C55 1.488 . S
