# Generated by pormake.
# Topology hcp, (12)-cn, num edge types: 1
# Building blocks:
#     Node 0, Type 0, BuildingBlock: ENOWUB_clean_sbu_0, # of connection points: 12
#     Node 1, Type 0, BuildingBlock: ENOWUB_clean_sbu_0, # of connection points: 12
#     Edge 2, Type (0, 0), BuildingBlock: ZUJKAS_clean_linker_0, # of connection points: 2
#     Edge 3, Type (0, 0), BuildingBlock: ZUJKAS_clean_linker_0, # of connection points: 2
#     Edge 4, Type (0, 0), BuildingBlock: ZUJKAS_clean_linker_0, # of connection points: 2
#     Edge 5, Type (0, 0), BuildingBlock: ZUJKAS_clean_linker_0, # of connection points: 2
#     Edge 6, Type (0, 0), BuildingBlock: ZUJKAS_clean_linker_0, # of connection points: 2
#     Edge 7, Type (0, 0), BuildingBlock: ZUJKAS_clean_linker_0, # of connection points: 2
#     Edge 8, Type (0, 0), BuildingBlock: ZUJKAS_clean_linker_0, # of connection points: 2
#     Edge 9, Type (0, 0), BuildingBlock: ZUJKAS_clean_linker_0, # of connection points: 2
#     Edge 10, Type (0, 0), BuildingBlock: ZUJKAS_clean_linker_0, # of connection points: 2
#     Edge 11, Type (0, 0), BuildingBlock: ZUJKAS_clean_linker_0, # of connection points: 2
#     Edge 12, Type (0, 0), BuildingBlock: ZUJKAS_clean_linker_0, # of connection points: 2
#     Edge 13, Type (0, 0), BuildingBlock: ZUJKAS_clean_linker_0, # of connection points: 2
# Relax obj value: 0.186
# Max RMSD: 0.270
# Mean RMSD: 0.270
data_MOF--net-hcp--node1-ENOWUB_clean_sbu_0--edge1-ZUJKAS_clean_linker_0
_symmetry_space_group_name_H-M    P1
_symmetry_Int_Tables_number       1
_symmetry_cell_setting            triclinic
loop_
_symmetry_equiv_pos_as_xyz
'x, y, z'
_cell_length_a     22.391399
_cell_length_b     22.438364
_cell_length_c     38.413247
_cell_angle_alpha  90.0294
_cell_angle_beta   90.098472
_cell_angle_gamma 120.03374
loop_
_atom_site_label
_atom_site_type_symbol
_atom_site_fract_x
_atom_site_fract_y
_atom_site_fract_z
_atom_type_partial_charge
O0 O 0.73327 0.26898 0.15629 0.0
O1 O 0.66973 0.23513 0.227 0.0
O2 O 0.73927 0.42929 0.22886 0.0
O3 O 0.65318 0.32524 0.18562 0.0
O4 O 0.75582 0.3402 0.26868 0.0
Zr5 Zr 0.75754 0.34201 0.20781 0.0
Zr6 Zr 0.66726 0.23414 0.28807 0.0
Zr7 Zr 0.56508 0.21926 0.20541 0.0
O8 O 0.64822 0.32029 0.31024 0.0
O9 O 0.54472 0.30508 0.22642 0.0
O10 O 0.56226 0.21605 0.26627 0.0
Zr11 Zr 0.73606 0.42623 0.28976 0.0
Zr12 Zr 0.63399 0.4113 0.20733 0.0
Zr13 Zr 0.54393 0.30303 0.28735 0.0
O14 O 0.63145 0.4098 0.2682 0.0
O15 O 0.56867 0.3807 0.33654 0.0
O16 O 0.43085 0.20741 0.27177 0.0
O17 O 0.87108 0.4359 0.22428 0.0
O18 O 0.75521 0.54068 0.27622 0.0
O19 O 0.55019 0.10591 0.21765 0.0
O20 O 0.5143 0.24643 0.15589 0.0
O21 O 0.78861 0.39758 0.33772 0.0
O22 O 0.58341 0.17762 0.3347 0.0
O23 O 0.71336 0.46455 0.15856 0.0
O24 O 0.53812 0.42954 0.2214 0.0
O25 O 0.76422 0.21748 0.27469 0.0
O26 O 0.68537 0.45466 0.33817 0.0
O27 O 0.6158 0.19842 0.15478 0.0
O28 O 0.44492 0.15998 0.2217 0.0
O29 O 0.85647 0.48386 0.27401 0.0
O30 O 0.81368 0.27855 0.22479 0.0
O31 O 0.48738 0.36606 0.27051 0.0
O32 O 0.50966 0.22055 0.33436 0.0
O33 O 0.79081 0.42593 0.16156 0.0
C34 C 0.67681 0.22158 0.14224 0.0
O35 O 0.74632 0.28113 0.33708 0.0
O36 O 0.60741 0.11584 0.26891 0.0
C37 C 0.62361 0.43184 0.34972 0.0
C38 C 0.40815 0.16333 0.24658 0.0
C39 C 0.89369 0.47959 0.24966 0.0
C40 C 0.73616 0.56524 0.25087 0.0
C41 C 0.56962 0.0813 0.24283 0.0
C42 C 0.51847 0.30275 0.14482 0.0
C43 C 0.78524 0.34209 0.34961 0.0
C44 C 0.53067 0.18047 0.34627 0.0
C45 C 0.76734 0.46284 0.14818 0.0
C46 C 0.49298 0.40786 0.24608 0.0
C47 C 0.80902 0.23835 0.24989 0.0
O48 O 0.55562 0.36276 0.15859 0.0
O49 O 0.69684 0.53024 0.22531 0.0
O50 O 0.39193 0.80538 0.83693 0.0
O51 O 0.32767 0.66449 0.80975 0.0
O52 O 0.30718 0.75556 0.72868 0.0
O53 O 0.41416 0.7721 0.76797 0.0
O54 O 0.22016 0.64726 0.76841 0.0
Zr55 Zr 0.30845 0.75193 0.78973 0.0
Zr56 Zr 0.24013 0.56007 0.78736 0.0
Zr57 Zr 0.43245 0.68375 0.78671 0.0
O58 O 0.23726 0.5606 0.72634 0.0
O59 O 0.43211 0.68555 0.72585 0.0
O60 O 0.3451 0.57853 0.76557 0.0
Zr61 Zr 0.21999 0.64995 0.70752 0.0
Zr62 Zr 0.41235 0.77306 0.70717 0.0
Zr63 Zr 0.34321 0.58055 0.70474 0.0
O64 O 0.32483 0.66852 0.68565 0.0
O65 O 0.26677 0.53386 0.65412 0.0
O66 O 0.43931 0.56201 0.71774 0.0
O67 O 0.21147 0.76926 0.77701 0.0
O68 O 0.2451 0.72559 0.65724 0.0
O69 O 0.40749 0.59891 0.83202 0.0
O70 O 0.54594 0.7805 0.77285 0.0
O71 O 0.10674 0.55242 0.72122 0.0
O72 O 0.22131 0.44701 0.77137 0.0
O73 O 0.42721 0.88522 0.72203 0.0
O74 O 0.46536 0.74998 0.65741 0.0
O75 O 0.18802 0.58485 0.83681 0.0
O76 O 0.19479 0.57895 0.6562 0.0
O77 O 0.46454 0.76109 0.83621 0.0
O78 O 0.49016 0.62321 0.76758 0.0
O79 O 0.1639 0.71263 0.72569 0.0
O80 O 0.23072 0.70131 0.83886 0.0
O81 O 0.42342 0.63326 0.65708 0.0
O82 O 0.28075 0.46038 0.72064 0.0
O83 O 0.36838 0.87167 0.77301 0.0
C84 C 0.44367 0.80088 0.84874 0.0
O85 O 0.12005 0.50311 0.77081 0.0
O86 O 0.29041 0.52619 0.83404 0.0
C87 C 0.21773 0.54241 0.64188 0.0
C88 C 0.48467 0.5828 0.7424 0.0
C89 C 0.16774 0.75076 0.75166 0.0
C90 C 0.30191 0.77278 0.64357 0.0
C91 C 0.35263 0.54677 0.84439 0.0
C92 C 0.56894 0.82589 0.74833 0.0
C93 C 0.0836 0.50772 0.74609 0.0
C94 C 0.24116 0.42393 0.74573 0.0
C95 C 0.407 0.90808 0.74764 0.0
C96 C 0.46117 0.69456 0.64497 0.0
C97 C 0.19201 0.63949 0.85034 0.0
O98 O 0.53241 0.83091 0.72378 0.0
O99 O 0.36266 0.79544 0.65649 0.0
H100 H 0.42765 0.90236 0.87938 0.0
H101 H 0.49765 0.9814 0.92547 0.0
H102 H 0.62253 0.88498 0.93002 0.0
H103 H 0.55251 0.80493 0.884 0.0
H104 H 0.57986 0.90491 -0.00478 0.0
H105 H 0.69502 0.14498 0.91818 0.0
H106 H 0.60295 0.09615 0.91348 0.0
H107 H 0.65467 0.06066 0.89826 0.0
C108 C 0.46986 0.89764 0.8901 0.0
C109 C 0.48428 0.84711 0.87783 0.0
C110 C 0.51031 0.94343 0.91623 0.0
C111 C 0.56618 0.93997 0.93056 0.0
C112 C 0.58013 0.88897 0.91896 0.0
H113 H 0.77429 0.19024 0.11907 0.0
H114 H 0.76759 0.12649 0.06539 0.0
C115 C 0.53981 0.84317 0.89271 0.0
C116 C 0.60737 0.9877 0.95891 0.0
H117 H 0.69089 0.15801 0.98067 0.0
C118 C 0.60596 0.96033 0.99193 0.0
C119 C 0.64209 0.05992 0.95438 0.0
C120 C 0.64949 0.09219 0.91905 0.0
C121 C 0.63292 0.00331 0.02118 0.0
C122 C 0.66216 0.07516 0.01705 0.0
C123 C 0.6684 0.10281 0.98365 0.0
C124 C 0.67283 0.1199 0.04735 0.0
C125 C 0.62505 0.97158 0.0567 0.0
C126 C 0.62277 0.13821 0.05424 0.0
C127 C 0.62609 0.17348 0.08458 0.0
C128 C 0.68 0.19187 0.10856 0.0
C129 C 0.73237 0.17674 0.10089 0.0
C130 C 0.72847 0.14029 0.07045 0.0
H131 H 0.6014 0.91471 0.05543 0.0
H132 H 0.67631 -0.00651 0.06944 0.0
H133 H 0.59232 0.98416 0.07333 0.0
H134 H 0.57952 0.12288 0.03668 0.0
H135 H 0.58544 0.18513 0.08967 0.0
H136 H 0.57211 0.67804 0.64295 0.0
H137 H 0.62005 0.65426 0.59101 0.0
H138 H 0.48439 0.69168 0.52631 0.0
H139 H 0.43776 0.71708 0.57838 0.0
H140 H 0.53595 0.54467 0.55191 0.0
H141 H 0.65924 0.77656 0.46823 0.0
H142 H 0.64186 0.78034 0.51384 0.0
H143 H 0.57417 0.75473 0.48209 0.0
C144 C 0.55479 0.68383 0.61748 0.0
C145 C 0.50204 0.69983 0.6143 0.0
C146 C 0.5819 0.6701 0.5879 0.0
C147 C 0.55603 0.67148 0.55477 0.0
C148 C 0.50624 0.69183 0.5515 0.0
H149 H 0.50387 0.40301 0.38312 0.0
H150 H 0.49075 0.46394 0.43253 0.0
C151 C 0.47957 0.70626 0.58117 0.0
C152 C 0.5725 0.64082 0.52478 0.0
H153 H 0.62892 0.66888 0.44067 0.0
C154 C 0.55707 0.57218 0.52774 0.0
C155 C 0.60012 0.67676 0.49332 0.0
C156 C 0.62046 0.7514 0.48921 0.0
C157 C 0.56704 0.53795 0.49986 0.0
C158 C 0.5918 0.57287 0.46792 0.0
C159 C 0.6091 0.64209 0.46513 0.0
C160 C 0.59969 0.53787 0.43716 0.0
C161 C 0.55114 0.46471 0.50487 0.0
C162 C 0.66514 0.56031 0.42301 0.0
C163 C 0.67296 0.52571 0.39473 0.0
C164 C 0.61527 0.46813 0.37995 0.0
C165 C 0.54954 0.44662 0.39396 0.0
C166 C 0.54187 0.48131 0.42224 0.0
H167 H 0.54986 0.45175 0.53287 0.0
H168 H 0.49972 0.42906 0.49352 0.0
H169 H 0.58989 0.4557 0.49153 0.0
H170 H 0.71031 0.60403 0.43417 0.0
H171 H 0.72434 0.54418 0.38454 0.0
H172 H 0.90161 0.56022 0.14781 0.0
H173 H 0.97456 0.61066 0.09663 0.0
H174 H 0.79524 0.50663 0.0303 0.0
H175 H 0.72191 0.45798 0.08186 0.0
H176 H 0.98764 0.52908 0.0513 0.0
H177 H 0.90291 0.68915 0.98066 0.0
H178 H 0.87964 0.66328 0.0254 0.0
H179 H 0.83299 0.60463 0.9905 0.0
C180 C 0.87771 0.55028 0.12232 0.0
C181 C 0.80654 0.50563 0.11852 0.0
C182 C 0.91928 0.5789 0.09313 0.0
C183 C 0.89046 0.56256 0.05959 0.0
C184 C 0.81851 0.52118 0.05589 0.0
H185 H 0.09313 0.51849 0.87936 0.0
H186 H 0.02059 0.50352 0.92961 0.0
C187 C 0.77663 0.49329 0.08528 0.0
C188 C 0.93655 0.57993 0.02899 0.0
H189 H 0.97207 0.65415 0.94845 0.0
C190 C 0.98463 0.55711 0.02899 0.0
C191 C 0.93293 0.61675 -4e-05 0.0
C192 C 0.8848 0.64548 -0.00082 0.0
C193 C 0.02823 0.56885 0.00058 0.0
C194 C 0.02247 0.60284 0.9709 0.0
C195 C 0.97571 0.62732 0.97111 0.0
C196 C 0.06424 0.6125 0.93936 0.0
C197 C 0.08039 0.54506 0.00273 0.0
C198 C 0.11153 0.67884 0.9276 0.0
C199 C 0.1531 0.68775 0.89871 0.0
C200 C 0.14795 0.63036 0.88099 0.0
C201 C 0.09934 0.56394 0.89255 0.0
C202 C 0.05775 0.55519 0.92132 0.0
H203 H 0.09131 0.53775 0.03014 0.0
H204 H 0.05968 0.49489 0.98913 0.0
H205 H 0.12966 0.58248 0.99008 0.0
H206 H 0.11709 0.72372 0.94114 0.0
H207 H 0.18957 0.73967 0.89048 0.0
H208 H 0.20345 0.80019 0.61734 0.0
H209 H 0.20852 0.85631 0.56125 0.0
H210 H 0.39975 0.86278 0.53709 0.0
H211 H 0.39555 0.80834 0.59239 0.0
H212 H 0.32877 0.99152 0.54197 0.0
H213 H 0.28034 0.7865 0.4471 0.0
H214 H 0.2505 0.7686 0.49165 0.0
H215 H 0.33838 0.7938 0.48132 0.0
C216 C 0.24586 0.81288 0.5997 0.0
C217 C 0.29945 0.80069 0.60923 0.0
C218 C 0.24869 0.84474 0.56783 0.0
C219 C 0.30407 0.86272 0.54498 0.0
C220 C 0.35606 0.8483 0.55412 0.0
H221 H 0.56034 0.09494 0.38424 0.0
H222 H 0.49111 0.01549 0.43034 0.0
C223 C 0.3539 0.81781 0.58589 0.0
C224 C 0.31312 0.90276 0.51299 0.0
H225 H 0.35202 0.90386 0.42715 0.0
C226 C 0.33181 0.97216 0.51655 0.0
C227 C 0.31719 0.87706 0.48005 0.0
C228 C 0.29488 0.80217 0.47467 0.0
C229 C 0.3605 0.01809 0.48857 0.0
C230 C 0.36949 0.99329 0.45626 0.0
C231 C 0.34574 0.92279 0.45207 0.0
C232 C 0.40959 0.04051 0.42769 0.0
C233 C 0.38571 0.09353 0.49449 0.0
C234 C 0.38632 0.08045 0.41083 0.0
C235 C 0.42597 0.12633 0.38462 0.0
C236 C 0.48949 0.13274 0.37461 0.0
C237 C 0.512 0.09171 0.39131 0.0
C238 C 0.47238 0.04606 0.41759 0.0
H239 H 0.38484 0.10573 0.52245 0.0
H240 H 0.43913 0.12552 0.48459 0.0
H241 H 0.35212 0.10827 0.48003 0.0
H242 H 0.33745 0.07604 0.41789 0.0
H243 H 0.40639 0.15632 0.37206 0.0
H244 H 0.49786 0.22664 0.08552 0.0
H245 H 0.45844 0.24589 0.02894 0.0
H246 H 0.41485 0.39394 0.07669 0.0
H247 H 0.45513 0.37614 0.13261 0.0
H248 H 0.33047 0.25188 0.00376 0.0
H249 H 0.57851 0.49921 0.00459 0.0
H250 H 0.56265 0.42769 0.03222 0.0
H251 H 0.52906 0.48291 0.0438 0.0
C252 C 0.47792 0.2617 0.08401 0.0
C253 C 0.48035 0.30071 0.11317 0.0
C254 C 0.45555 0.27265 0.05179 0.0
C255 C 0.43484 0.32203 0.04877 0.0
C256 C 0.43135 0.35614 0.07856 0.0
H257 H 0.26324 0.47062 0.89621 0.0
H258 H 0.28235 0.40671 0.94227 0.0
C259 C 0.45439 0.34596 0.11043 0.0
C260 C 0.42556 0.34548 0.01438 0.0
H261 H 0.49367 0.48951 0.96407 0.0
C262 C 0.36643 0.30338 0.99464 0.0
C263 C 0.47345 0.41212 0.00237 0.0
C264 C 0.53987 0.45797 0.02164 0.0
C265 C 0.35225 0.32785 0.96382 0.0
C266 C 0.39767 0.39656 0.95324 0.0
C267 C 0.45844 0.4371 0.97226 0.0
C268 C 0.38273 0.42922 0.92351 0.0
C269 C 0.28891 0.27991 0.94303 0.0
C270 C 0.4334 0.46459 0.89812 0.0
C271 C 0.42352 0.50287 0.87253 0.0
C272 C 0.36236 0.5059 0.87153 0.0
C273 C 0.31078 0.46898 0.89632 0.0
C274 C 0.32129 0.43171 0.92238 0.0
H275 H 0.27444 0.22531 0.94718 0.0
H276 H 0.24496 0.28587 0.95174 0.0
H277 H 0.29689 0.29137 0.91475 0.0
H278 H 0.4813 0.46363 0.89851 0.0
H279 H 0.46376 0.52996 0.85343 0.0
H280 H 0.81232 0.24436 0.37624 0.0
H281 H 0.89438 0.25928 0.42226 0.0
H282 H 0.94637 0.47084 0.43488 0.0
H283 H 0.86536 0.45702 0.38884 0.0
H284 H 0.06178 0.45083 0.42906 0.0
H285 H 0.87227 0.27726 0.52782 0.0
H286 H 0.86814 0.24236 0.48514 0.0
H287 H 0.84658 0.30874 0.49078 0.0
C288 C 0.84064 0.29394 0.38902 0.0
C289 C 0.83184 0.34944 0.37886 0.0
C290 C 0.8875 0.30225 0.41534 0.0
C291 C 0.92599 0.36598 0.43209 0.0
C292 C 0.91712 0.42122 0.42219 0.0
H293 H 0.17159 0.59614 0.59313 0.0
H294 H 0.11001 0.54284 0.5395 0.0
C295 C 0.87057 0.41311 0.3959 0.0
C296 C 0.97649 0.37647 0.45974 0.0
H297 H 0.98809 0.34191 0.54524 0.0
C298 C 0.04592 0.42607 0.45427 0.0
C299 C 0.95576 0.34345 0.49245 0.0
C300 C 0.88164 0.2902 0.49971 0.0
C301 C 0.09439 0.44663 0.48131 0.0
C302 C 0.07263 0.41728 0.51466 0.0
C303 C 0.00445 0.36405 0.51952 0.0
C304 C 0.11565 0.44998 0.54578 0.0
C305 C 0.16783 0.50207 0.47448 0.0
C306 C 0.13922 0.41519 0.56716 0.0
C307 C 0.17519 0.44598 0.59804 0.0
C308 C 0.18619 0.51098 0.6081 0.0
C309 C 0.16334 0.54572 0.58621 0.0
C310 C 0.1286 0.5156 0.55541 0.0
H311 H 0.18128 0.50392 0.44652 0.0
H312 H 0.17408 0.55282 0.48164 0.0
H313 H 0.20463 0.49384 0.49032 0.0
H314 H 0.12903 0.36415 0.56019 0.0
H315 H 0.19205 0.4181 0.61457 0.0
H316 H 0.53737 0.98898 0.29486 0.0
H317 H 0.56434 0.89606 0.29493 0.0
H318 H 0.60762 0.9253 0.18497 0.0
H319 H 0.58041 0.0184 0.18466 0.0
H320 H 0.53992 0.77606 0.21865 0.0
H321 H 0.78454 0.98501 0.27593 0.0
H322 H 0.70505 0.97138 0.2947 0.0
H323 H 0.72661 0.0024 0.25089 0.0
C324 C 0.54954 0.9734 0.2704 0.0
C325 C 0.55769 0.01105 0.23984 0.0
C326 C 0.56523 0.92072 0.27053 0.0
C327 C 0.58927 0.9054 0.24014 0.0
C328 C 0.58935 0.93704 0.20866 0.0
H329 H 0.77137 0.65593 0.19782 0.0
H330 H 0.74776 0.75111 0.19627 0.0
C331 C 0.57323 0.98968 0.20846 0.0
C332 C 0.62438 0.86507 0.24254 0.0
H333 H 0.77318 0.87469 0.27169 0.0
C334 C 0.59092 0.79743 0.23008 0.0
C335 C 0.69102 0.89386 0.25746 0.0
C336 C 0.72942 0.9673 0.27036 0.0
C337 C 0.62217 0.75696 0.23276 0.0
C338 C 0.68873 0.78566 0.24779 0.0
C339 C 0.72229 0.85338 0.26015 0.0
C340 C 0.72305 0.74469 0.25101 0.0
C341 C 0.58359 0.68342 0.21998 0.0
C342 C 0.7222 0.71398 0.28293 0.0
C343 C 0.73642 0.66007 0.28398 0.0
C344 C 0.7508 0.63651 0.253 0.0
C345 C 0.76007 0.67325 0.22198 0.0
C346 C 0.7463 0.72722 0.22101 0.0
H347 H 0.52858 0.66591 0.21424 0.0
H348 H 0.60808 0.67903 0.19576 0.0
H349 H 0.586 0.64835 0.2396 0.0
H350 H 0.7045 0.72735 0.30631 0.0
H351 H 0.72842 0.63209 0.30811 0.0
H352 H 0.09511 0.74267 0.80977 0.0
H353 H 0.97493 0.71643 0.80937 0.0
H354 H 0.9882 0.75668 0.69905 0.0
H355 H 0.1081 0.78325 0.6993 0.0
H356 H 0.8978 0.79108 0.73807 0.0
H357 H 0.85117 0.52578 0.75992 0.0
H358 H 0.90419 0.58918 0.79177 0.0
H359 H 0.93454 0.59654 0.74788 0.0
C360 C 0.07344 0.74941 0.78585 0.0
C361 C 0.11008 0.7639 0.75445 0.0
C362 C 0.00468 0.73361 0.78557 0.0
C363 C 0.97273 0.73279 0.75398 0.0
C364 C 0.01208 0.75638 0.72357 0.0
H365 H 0.55373 0.58402 0.68402 0.0
H366 H 0.67353 0.60883 0.68369 0.0
C367 C 0.0805 0.77179 0.72378 0.0
C368 C 0.89708 0.69761 0.75127 0.0
H369 H 0.75296 0.5383 0.75451 0.0
C370 C 0.86597 0.73592 0.74168 0.0
C371 C 0.85637 0.62537 0.75544 0.0
C372 C 0.88804 0.58146 0.76404 0.0
C373 C 0.79445 0.70395 0.73696 0.0
C374 C 0.75372 0.63179 0.74134 0.0
C375 C 0.78482 0.59344 0.7508 0.0
C376 C 0.67805 0.59701 0.73937 0.0
C377 C 0.76271 0.74771 0.72817 0.0
C378 C 0.64019 0.57676 0.77034 0.0
C379 C 0.57222 0.56269 0.77058 0.0
C380 C 0.54158 0.5685 0.73979 0.0
C381 C 0.57645 0.57936 0.70804 0.0
C382 C 0.64488 0.59408 0.70787 0.0
H383 H 0.80006 0.80358 0.7312 0.0
H384 H 0.74454 0.73809 0.70075 0.0
H385 H 0.71741 0.73401 0.74504 0.0
H386 H 0.66507 0.57822 0.79481 0.0
H387 H 0.54592 0.55389 0.79532 0.0
H388 H 0.33758 0.09825 0.30516 0.0
H389 H 0.2444 0.9782 0.30729 0.0
H390 H 0.22986 0.97409 0.19525 0.0
H391 H 0.32229 0.09399 0.19291 0.0
H392 H 0.10128 0.89006 0.23155 0.0
H393 H 0.31575 0.84777 0.27287 0.0
H394 H 0.30122 0.90494 0.29971 0.0
H395 H 0.33051 0.92889 0.25574 0.0
C396 C 0.31219 0.0728 0.28113 0.0
C397 C 0.33768 0.10464 0.24881 0.0
C398 C 0.25964 0.00409 0.28237 0.0
C399 C 0.23222 0.96728 0.25135 0.0
C400 C 0.25125 0.00173 0.21939 0.0
H401 H 0.97126 0.5417 0.19221 0.0
H402 H 0.06693 0.66068 0.19082 0.0
C403 C 0.30381 0.07015 0.2181 0.0
C404 C 0.19184 0.89163 0.25151 0.0
H405 H 0.20565 0.74903 0.2666 0.0
C406 C 0.12384 0.85908 0.23924 0.0
C407 C 0.22239 0.85193 0.26108 0.0
C408 C 0.29665 0.88491 0.27284 0.0
C409 C 0.0847 0.78725 0.23696 0.0
C410 C 0.1152 0.74757 0.2466 0.0
C411 C 0.18317 0.78006 0.25887 0.0
C412 C 0.07447 0.672 0.24686 0.0
C413 C 0.01056 0.75417 0.22499 0.0
C414 C 0.05181 0.63809 0.27879 0.0
C415 C -0.00258 0.57051 0.27965 0.0
C416 C 0.96536 0.5364 0.24854 0.0
C417 C -0.00525 0.56717 0.21652 0.0
C418 C 0.04899 0.63514 0.21569 0.0
H419 H -0.00823 0.79155 0.22407 0.0
H420 H 0.00595 0.73262 0.19847 0.0
H421 H 0.97644 0.71117 0.24254 0.0
H422 H 0.07163 0.66582 0.30306 0.0
H423 H 0.97619 0.54734 0.30468 0.0
H424 H 0.2224 0.3389 0.69145 0.0
H425 H 0.24474 0.24325 0.69301 0.0
H426 H 0.25586 0.25493 0.80514 0.0
H427 H 0.23409 0.35139 0.80376 0.0
H428 H 0.37911 0.2833 0.77139 0.0
H429 H 0.15699 0.04096 0.72195 0.0
H430 H 0.17762 0.11508 0.69577 0.0
H431 H 0.14758 0.11049 0.73959 0.0
C432 C 0.22653 0.31903 0.7165 0.0
C433 C 0.2275 0.35287 0.74745 0.0
C434 C 0.23905 0.26425 0.71736 0.0
C435 C 0.25229 0.24254 0.74917 0.0
C436 C 0.24563 0.2712 0.78038 0.0
H437 H 0.42504 0.99313 0.80177 0.0
H438 H 0.40169 0.08812 0.80019 0.0
C439 C 0.23266 0.32587 0.77956 0.0
C440 C 0.28584 0.20049 0.74913 0.0
H441 H 0.26668 0.04756 0.72185 0.0
C442 C 0.35439 0.23141 0.76092 0.0
C443 C 0.2537 0.13364 0.73481 0.0
C444 C 0.1797 0.09777 0.72257 0.0
C445 C 0.3921 0.19724 0.75842 0.0
C446 C 0.35996 0.13037 0.7441 0.0
C447 C 0.29141 0.09945 0.73232 0.0
C448 C 0.39356 0.08835 0.74404 0.0
C449 C 0.46612 0.23318 0.77063 0.0
C450 C 0.40011 0.05959 0.71284 0.0
C451 C 0.4136 0.00526 0.71368 0.0
C452 C 0.41941 0.9787 0.74578 0.0
C453 C 0.42035 0.01261 0.77671 0.0
C454 C 0.40727 0.06703 0.77584 0.0
H455 H 0.48886 0.28999 0.7711 0.0
H456 H 0.46822 0.21614 0.7975 0.0
H457 H 0.49821 0.22027 0.75369 0.0
H458 H 0.38956 0.07561 0.68809 0.0
H459 H 0.41226 0.97971 0.6895 0.0
H460 H 0.43126 0.4332 0.30006 0.0
H461 H 0.31212 0.409 0.29974 0.0
H462 H 0.30503 0.38659 0.18806 0.0
H463 H 0.42458 0.4109 0.18822 0.0
H464 H 0.22405 0.45147 0.26057 0.0
H465 H 0.17875 0.18839 0.23229 0.0
H466 H 0.26092 0.25734 0.2473 0.0
H467 H 0.23484 0.25568 0.20294 0.0
C468 C 0.40527 0.42626 0.2753 0.0
C469 C 0.43625 0.42261 0.2442 0.0
C470 C 0.3373 0.41228 0.27517 0.0
C471 C 0.29983 0.39435 0.24399 0.0
C472 C 0.3334 0.3996 0.21238 0.0
H473 H 0.87344 0.213 0.19717 0.0
H474 H -0.00656 0.23993 0.1987 0.0
C475 C 0.40175 0.41411 0.21246 0.0
C476 C 0.22411 0.35919 0.24553 0.0
H477 H 0.08043 0.20027 0.23826 0.0
C478 C 0.19246 0.39666 0.25565 0.0
C479 C 0.18373 0.28742 0.23961 0.0
C480 C 0.21601 0.24445 0.23018 0.0
C481 C 0.12068 0.36431 0.25922 0.0
C482 C 0.08028 0.29254 0.25323 0.0
C483 C 0.11198 0.25507 0.2432 0.0
C484 C 0.0045 0.25728 0.25431 0.0
C485 C 0.0884 0.40733 0.26855 0.0
C486 C 0.97007 0.25275 0.28554 0.0
C487 C 0.90124 0.23666 0.28478 0.0
C488 C 0.86702 0.22571 0.25272 0.0
C489 C 0.89913 0.22169 0.22214 0.0
C490 C 0.9676 0.23731 0.22296 0.0
H491 H 0.12563 0.46337 0.26629 0.0
H492 H 0.04339 0.39426 0.25148 0.0
H493 H 0.06977 0.39641 0.29583 0.0
H494 H -0.00206 0.26717 0.31002 0.0
H495 H 0.87763 0.24041 0.30867 0.0
H496 H 0.01269 0.43928 0.68811 0.0
H497 H 0.91643 0.32054 0.68761 0.0
H498 H 0.90141 0.32645 0.79938 0.0
H499 H -0.0032 0.44481 0.79998 0.0
H500 H 0.94446 0.2285 0.72411 0.0
H501 H 0.69982 0.20819 0.76945 0.0
H502 H 0.76966 0.28662 0.75155 0.0
H503 H 0.77319 0.26326 0.79596 0.0
C504 C 0.98634 0.41642 0.7123 0.0
C505 C 0.0123 0.45052 0.74413 0.0
C506 C 0.93185 0.34851 0.71202 0.0
C507 C 0.90235 0.31485 0.74348 0.0
C508 C 0.92299 0.35175 0.77482 0.0
H509 H 0.63815 0.89362 0.80676 0.0
H510 H 0.73382 0.01266 0.80802 0.0
C511 C 0.97757 0.4193 0.77514 0.0
C512 C 0.86064 0.23917 0.74456 0.0
H513 H 0.70728 0.10587 0.77206 0.0
C514 C 0.89227 0.20149 0.73423 0.0
C515 C 0.79338 0.20461 0.75848 0.0
C516 C 0.75671 0.24266 0.76923 0.0
C517 C 0.8584 0.1298 0.73772 0.0
C518 C 0.79105 0.09519 0.75153 0.0
C519 C 0.75948 0.13289 0.76195 0.0
C520 C 0.74917 0.0195 0.75223 0.0
C521 C 0.89519 0.09182 0.72705 0.0
C522 C 0.72934 0.98323 0.72068 0.0
C523 C 0.6751 0.91552 0.71994 0.0
C524 C 0.63994 0.88349 0.75071 0.0
C525 C 0.66496 0.91708 0.78275 0.0
C526 C 0.71907 0.98517 0.78346 0.0
H527 H 0.9521 0.12621 0.72723 0.0
H528 H 0.88171 0.04745 0.74452 0.0
H529 H 0.87941 0.07186 0.70017 0.0
H530 H 0.75134 0.00907 0.69629 0.0
H531 H 0.6565 0.89046 0.69495 0.0
loop_
_geom_bond_atom_site_label_1
_geom_bond_atom_site_label_2
_geom_bond_distance
_geom_bond_site_symmetry_2
_ccdc_geom_bond_type
O0 Zr5 2.207 . S
O0 C34 1.295 . S
O1 Zr5 2.133 . S
O1 Zr6 2.133 . S
O1 Zr7 2.133 . S
O2 Zr5 2.133 . S
O2 Zr11 2.133 . S
O2 Zr12 2.133 . S
O3 Zr5 2.133 . S
O3 Zr7 2.133 . S
O3 Zr12 2.133 . S
O4 Zr5 2.133 . S
O4 Zr6 2.133 . S
O4 Zr11 2.133 . S
Zr5 O0 2.207 . S
Zr5 O1 2.133 . S
Zr5 O2 2.133 . S
Zr5 O3 2.133 . S
Zr5 O4 2.133 . S
Zr5 O17 2.207 . S
Zr5 O30 2.207 . S
Zr5 O33 2.207 . S
Zr6 O1 2.133 . S
Zr6 O4 2.133 . S
Zr6 O8 2.133 . S
Zr6 O10 2.133 . S
Zr6 O22 2.207 . S
Zr6 O25 2.207 . S
Zr6 O35 2.207 . S
Zr6 O36 2.207 . S
Zr7 O1 2.133 . S
Zr7 O3 2.133 . S
Zr7 O9 2.133 . S
Zr7 O10 2.133 . S
Zr7 O19 2.207 . S
Zr7 O20 2.207 . S
Zr7 O27 2.207 . S
Zr7 O28 2.207 . S
O8 Zr6 2.133 . S
O8 Zr11 2.133 . S
O8 Zr13 2.133 . S
O9 Zr7 2.133 . S
O9 Zr12 2.133 . S
O9 Zr13 2.133 . S
O10 Zr6 2.133 . S
O10 Zr7 2.133 . S
O10 Zr13 2.133 . S
Zr11 O2 2.133 . S
Zr11 O4 2.133 . S
Zr11 O8 2.133 . S
Zr11 O14 2.133 . S
Zr11 O18 2.207 . S
Zr11 O21 2.207 . S
Zr11 O26 2.207 . S
Zr11 O29 2.207 . S
Zr12 O2 2.133 . S
Zr12 O3 2.133 . S
Zr12 O9 2.133 . S
Zr12 O14 2.133 . S
Zr12 O23 2.207 . S
Zr12 O24 2.207 . S
Zr12 O48 2.207 . S
Zr12 O49 2.207 . S
Zr13 O8 2.133 . S
Zr13 O9 2.133 . S
Zr13 O10 2.133 . S
Zr13 O14 2.133 . S
Zr13 O15 2.207 . S
Zr13 O16 2.207 . S
Zr13 O31 2.207 . S
Zr13 O32 2.207 . S
O14 Zr11 2.133 . S
O14 Zr12 2.133 . S
O14 Zr13 2.133 . S
O15 Zr13 2.207 . S
O15 C37 1.295 . S
O16 Zr13 2.207 . S
O16 C38 1.295 . S
O17 Zr5 2.207 . S
O17 C39 1.295 . S
O18 Zr11 2.207 . S
O18 C40 1.295 . S
O19 Zr7 2.207 . S
O19 C41 1.295 . S
O20 Zr7 2.207 . S
O20 C42 1.295 . S
O21 Zr11 2.207 . S
O21 C43 1.295 . S
O22 Zr6 2.207 . S
O22 C44 1.295 . S
O23 Zr12 2.207 . S
O23 C45 1.295 . S
O24 Zr12 2.207 . S
O24 C46 1.295 . S
O25 Zr6 2.207 . S
O25 C47 1.295 . S
O26 Zr11 2.207 . S
O26 C37 1.295 . S
O27 Zr7 2.207 . S
O27 C34 1.295 . S
O28 Zr7 2.207 . S
O28 C38 1.295 . S
O29 Zr11 2.207 . S
O29 C39 1.295 . S
O30 Zr5 2.207 . S
O30 C47 1.295 . S
O31 Zr13 2.207 . S
O31 C46 1.295 . S
O32 Zr13 2.207 . S
O32 C44 1.295 . S
O33 Zr5 2.207 . S
O33 C45 1.295 . S
C34 O0 1.295 . S
C34 O27 1.295 . S
O35 Zr6 2.207 . S
O35 C43 1.295 . S
O36 Zr6 2.207 . S
O36 C41 1.295 . S
C37 O15 1.295 . S
C37 O26 1.295 . S
C38 O16 1.295 . S
C38 O28 1.295 . S
C39 O17 1.295 . S
C39 O29 1.295 . S
C40 O18 1.295 . S
C40 O49 1.295 . S
C41 O19 1.295 . S
C41 O36 1.295 . S
C42 O20 1.295 . S
C42 O48 1.295 . S
C43 O21 1.295 . S
C43 O35 1.295 . S
C44 O22 1.295 . S
C44 O32 1.295 . S
C45 O23 1.295 . S
C45 O33 1.295 . S
C46 O24 1.295 . S
C46 O31 1.295 . S
C47 O25 1.295 . S
C47 O30 1.295 . S
O48 Zr12 2.207 . S
O48 C42 1.295 . S
O49 Zr12 2.207 . S
O49 C40 1.295 . S
O50 Zr55 2.207 . S
O50 C84 1.295 . S
O51 Zr55 2.133 . S
O51 Zr56 2.133 . S
O51 Zr57 2.133 . S
O52 Zr55 2.133 . S
O52 Zr61 2.133 . S
O52 Zr62 2.133 . S
O53 Zr55 2.133 . S
O53 Zr57 2.133 . S
O53 Zr62 2.133 . S
O54 Zr55 2.133 . S
O54 Zr56 2.133 . S
O54 Zr61 2.133 . S
Zr55 O50 2.207 . S
Zr55 O51 2.133 . S
Zr55 O52 2.133 . S
Zr55 O53 2.133 . S
Zr55 O54 2.133 . S
Zr55 O67 2.207 . S
Zr55 O80 2.207 . S
Zr55 O83 2.207 . S
Zr56 O51 2.133 . S
Zr56 O54 2.133 . S
Zr56 O58 2.133 . S
Zr56 O60 2.133 . S
Zr56 O72 2.207 . S
Zr56 O75 2.207 . S
Zr56 O85 2.207 . S
Zr56 O86 2.207 . S
Zr57 O51 2.133 . S
Zr57 O53 2.133 . S
Zr57 O59 2.133 . S
Zr57 O60 2.133 . S
Zr57 O69 2.207 . S
Zr57 O70 2.207 . S
Zr57 O77 2.207 . S
Zr57 O78 2.207 . S
O58 Zr56 2.133 . S
O58 Zr61 2.133 . S
O58 Zr63 2.133 . S
O59 Zr57 2.133 . S
O59 Zr62 2.133 . S
O59 Zr63 2.133 . S
O60 Zr56 2.133 . S
O60 Zr57 2.133 . S
O60 Zr63 2.133 . S
Zr61 O52 2.133 . S
Zr61 O54 2.133 . S
Zr61 O58 2.133 . S
Zr61 O64 2.133 . S
Zr61 O68 2.207 . S
Zr61 O71 2.207 . S
Zr61 O76 2.207 . S
Zr61 O79 2.207 . S
Zr62 O52 2.133 . S
Zr62 O53 2.133 . S
Zr62 O59 2.133 . S
Zr62 O64 2.133 . S
Zr62 O73 2.207 . S
Zr62 O74 2.207 . S
Zr62 O98 2.207 . S
Zr62 O99 2.207 . S
Zr63 O58 2.133 . S
Zr63 O59 2.133 . S
Zr63 O60 2.133 . S
Zr63 O64 2.133 . S
Zr63 O65 2.207 . S
Zr63 O66 2.207 . S
Zr63 O81 2.207 . S
Zr63 O82 2.207 . S
O64 Zr61 2.133 . S
O64 Zr62 2.133 . S
O64 Zr63 2.133 . S
O65 Zr63 2.207 . S
O65 C87 1.295 . S
O66 Zr63 2.207 . S
O66 C88 1.295 . S
O67 Zr55 2.207 . S
O67 C89 1.295 . S
O68 Zr61 2.207 . S
O68 C90 1.295 . S
O69 Zr57 2.207 . S
O69 C91 1.295 . S
O70 Zr57 2.207 . S
O70 C92 1.295 . S
O71 Zr61 2.207 . S
O71 C93 1.295 . S
O72 Zr56 2.207 . S
O72 C94 1.295 . S
O73 Zr62 2.207 . S
O73 C95 1.295 . S
O74 Zr62 2.207 . S
O74 C96 1.295 . S
O75 Zr56 2.207 . S
O75 C97 1.295 . S
O76 Zr61 2.207 . S
O76 C87 1.295 . S
O77 Zr57 2.207 . S
O77 C84 1.295 . S
O78 Zr57 2.207 . S
O78 C88 1.295 . S
O79 Zr61 2.207 . S
O79 C89 1.295 . S
O80 Zr55 2.207 . S
O80 C97 1.295 . S
O81 Zr63 2.207 . S
O81 C96 1.295 . S
O82 Zr63 2.207 . S
O82 C94 1.295 . S
O83 Zr55 2.207 . S
O83 C95 1.295 . S
C84 O50 1.295 . S
C84 O77 1.295 . S
O85 Zr56 2.207 . S
O85 C93 1.295 . S
O86 Zr56 2.207 . S
O86 C91 1.295 . S
C87 O65 1.295 . S
C87 O76 1.295 . S
C88 O66 1.295 . S
C88 O78 1.295 . S
C89 O67 1.295 . S
C89 O79 1.295 . S
C90 O68 1.295 . S
C90 O99 1.295 . S
C91 O69 1.295 . S
C91 O86 1.295 . S
C92 O70 1.295 . S
C92 O98 1.295 . S
C93 O71 1.295 . S
C93 O85 1.295 . S
C94 O72 1.295 . S
C94 O82 1.295 . S
C95 O73 1.295 . S
C95 O83 1.295 . S
C96 O74 1.295 . S
C96 O81 1.295 . S
C97 O75 1.295 . S
C97 O80 1.295 . S
O98 Zr62 2.207 . S
O98 C92 1.295 . S
O99 Zr62 2.207 . S
O99 C90 1.295 . S
H100 C108 0.929 . S
H101 C110 0.930 . S
H102 C112 0.930 . S
H103 C115 0.929 . S
H104 C118 0.930 . S
H105 C120 0.960 . S
H106 C120 0.960 . S
H107 C120 0.960 . S
C108 H100 0.929 . S
C108 C109 1.377 . S
C108 C110 1.384 . S
C109 C108 1.377 . S
C109 C115 1.390 . S
C110 H101 0.930 . S
C110 C108 1.384 . S
C110 C111 1.372 . S
C111 C110 1.372 . S
C111 C112 1.400 . S
C111 C116 1.490 . S
C112 H102 0.930 . S
C112 C111 1.400 . S
C112 C115 1.386 . S
H113 C129 0.930 . S
H114 C130 0.931 . S
C115 H103 0.929 . S
C115 C109 1.390 . S
C115 C112 1.386 . S
C116 C111 1.490 . S
C116 C118 1.395 1_556 S
C116 C119 1.403 1_565 S
H117 C123 0.930 . S
C118 H104 0.930 . S
C118 C116 1.395 1_554 S
C118 C121 1.403 1_565 S
C119 C116 1.403 1_545 S
C119 C120 1.524 . S
C119 C123 1.400 1_556 S
C120 H105 0.960 . S
C120 H106 0.960 . S
C120 H107 0.960 . S
C120 C119 1.524 . S
C121 C118 1.403 1_545 S
C121 C122 1.392 . S
C121 C125 1.495 1_545 S
C122 C121 1.392 . S
C122 C123 1.385 . S
C122 C124 1.478 . S
C123 H117 0.930 . S
C123 C119 1.400 1_554 S
C123 C122 1.385 . S
C124 C122 1.478 . S
C124 C126 1.381 . S
C124 C130 1.383 . S
C125 C121 1.495 1_565 S
C125 H131 0.959 . S
C125 H132 0.961 . S
C125 H133 0.960 1_565 S
C126 C124 1.381 . S
C126 C127 1.394 . S
C126 H134 0.930 . S
C127 C126 1.394 . S
C127 C128 1.383 . S
C127 H135 0.929 . S
C128 C127 1.383 . S
C128 C129 1.377 . S
C129 H113 0.930 . S
C129 C128 1.377 . S
C129 C130 1.379 . S
C130 H114 0.931 . S
C130 C124 1.383 . S
C130 C129 1.379 . S
H131 C125 0.959 . S
H132 C125 0.961 . S
H133 C125 0.960 1_545 S
H134 C126 0.930 . S
H135 C127 0.929 . S
H136 C144 0.929 . S
H137 C146 0.930 . S
H138 C148 0.930 . S
H139 C151 0.929 . S
H140 C154 0.930 . S
H141 C156 0.960 . S
H142 C156 0.960 . S
H143 C156 0.960 . S
C144 H136 0.929 . S
C144 C145 1.377 . S
C144 C146 1.384 . S
C145 C144 1.377 . S
C145 C151 1.390 . S
C146 H137 0.930 . S
C146 C144 1.384 . S
C146 C147 1.372 . S
C147 C146 1.372 . S
C147 C148 1.400 . S
C147 C152 1.490 . S
C148 H138 0.930 . S
C148 C147 1.400 . S
C148 C151 1.386 . S
H149 C165 0.930 . S
H150 C166 0.931 . S
C151 H139 0.929 . S
C151 C145 1.390 . S
C151 C148 1.386 . S
C152 C147 1.490 . S
C152 C154 1.395 . S
C152 C155 1.403 . S
H153 C159 0.930 . S
C154 H140 0.930 . S
C154 C152 1.395 . S
C154 C157 1.403 . S
C155 C152 1.403 . S
C155 C156 1.524 . S
C155 C159 1.400 . S
C156 H141 0.960 . S
C156 H142 0.960 . S
C156 H143 0.960 . S
C156 C155 1.524 . S
C157 C154 1.403 . S
C157 C158 1.392 . S
C157 C161 1.495 . S
C158 C157 1.392 . S
C158 C159 1.385 . S
C158 C160 1.478 . S
C159 H153 0.930 . S
C159 C155 1.400 . S
C159 C158 1.385 . S
C160 C158 1.478 . S
C160 C162 1.381 . S
C160 C166 1.383 . S
C161 C157 1.495 . S
C161 H167 0.959 . S
C161 H168 0.961 . S
C161 H169 0.960 . S
C162 C160 1.381 . S
C162 C163 1.394 . S
C162 H170 0.930 . S
C163 C162 1.394 . S
C163 C164 1.383 . S
C163 H171 0.929 . S
C164 C163 1.383 . S
C164 C165 1.377 . S
C165 H149 0.930 . S
C165 C164 1.377 . S
C165 C166 1.379 . S
C166 H150 0.931 . S
C166 C160 1.383 . S
C166 C165 1.379 . S
H167 C161 0.959 . S
H168 C161 0.961 . S
H169 C161 0.960 . S
H170 C162 0.930 . S
H171 C163 0.929 . S
H172 C180 0.929 . S
H173 C182 0.930 . S
H174 C184 0.930 . S
H175 C187 0.929 . S
H176 C190 0.930 . S
H177 C192 0.960 . S
H178 C192 0.960 1_554 S
H179 C192 0.960 . S
C180 H172 0.929 . S
C180 C181 1.377 . S
C180 C182 1.384 . S
C181 C180 1.377 . S
C181 C187 1.390 . S
C182 H173 0.930 . S
C182 C180 1.384 . S
C182 C183 1.372 . S
C183 C182 1.372 . S
C183 C184 1.400 . S
C183 C188 1.490 . S
C184 H174 0.930 . S
C184 C183 1.400 . S
C184 C187 1.386 . S
H185 C201 0.930 . S
H186 C202 0.931 1_655 S
C187 H175 0.929 . S
C187 C181 1.390 . S
C187 C184 1.386 . S
C188 C183 1.490 . S
C188 C190 1.395 . S
C188 C191 1.387 1_554 S
H189 C195 0.930 . S
C190 H176 0.930 . S
C190 C188 1.395 . S
C190 C193 1.403 1_655 S
C191 C188 1.387 1_556 S
C191 C192 1.526 . S
C191 C195 1.414 . S
C192 H177 0.960 . S
C192 H178 0.960 1_556 S
C192 H179 0.960 . S
C192 C191 1.526 . S
C193 C190 1.403 1_455 S
C193 C194 1.392 1_554 S
C193 C197 1.495 . S
C194 C193 1.392 1_556 S
C194 C195 1.385 1_455 S
C194 C196 1.478 . S
C195 H189 0.930 . S
C195 C191 1.414 . S
C195 C194 1.385 1_655 S
C196 C194 1.478 . S
C196 C198 1.381 . S
C196 C202 1.383 . S
C197 C193 1.495 . S
C197 H203 0.959 . S
C197 H204 0.961 1_554 S
C197 H205 0.960 . S
C198 C196 1.381 . S
C198 C199 1.394 . S
C198 H206 0.930 . S
C199 C198 1.394 . S
C199 C200 1.383 . S
C199 H207 0.929 . S
C200 C199 1.383 . S
C200 C201 1.377 . S
C201 H185 0.930 . S
C201 C200 1.377 . S
C201 C202 1.379 . S
C202 H186 0.931 1_455 S
C202 C196 1.383 . S
C202 C201 1.379 . S
H203 C197 0.959 . S
H204 C197 0.961 1_556 S
H205 C197 0.960 . S
H206 C198 0.930 . S
H207 C199 0.929 . S
H208 C216 0.929 . S
H209 C218 0.930 . S
H210 C220 0.930 . S
H211 C223 0.929 . S
H212 C226 0.929 1_545 S
H213 C228 0.960 . S
H214 C228 0.960 . S
H215 C228 0.960 . S
C216 H208 0.929 . S
C216 C217 1.377 . S
C216 C218 1.384 . S
C217 C216 1.377 . S
C217 C223 1.390 . S
C218 H209 0.930 . S
C218 C216 1.384 . S
C218 C219 1.372 . S
C219 C218 1.372 . S
C219 C220 1.400 . S
C219 C224 1.490 . S
C220 H210 0.930 . S
C220 C219 1.400 . S
C220 C223 1.386 . S
H221 C237 0.930 . S
H222 C238 0.931 . S
C223 H211 0.929 . S
C223 C217 1.390 . S
C223 C220 1.386 . S
C224 C219 1.490 . S
C224 C226 1.397 . S
C224 C227 1.403 . S
H225 C231 0.930 . S
C226 H212 0.929 1_565 S
C226 C224 1.397 . S
C226 C229 1.402 1_565 S
C227 C224 1.403 . S
C227 C228 1.524 . S
C227 C231 1.400 . S
C228 H213 0.960 . S
C228 H214 0.960 . S
C228 H215 0.960 . S
C228 C227 1.524 . S
C229 C226 1.402 1_545 S
C229 C230 1.392 . S
C229 C233 1.495 . S
C230 C229 1.392 . S
C230 C231 1.385 1_545 S
C230 C232 1.478 . S
C231 H225 0.930 . S
C231 C227 1.400 . S
C231 C230 1.385 1_565 S
C232 C230 1.478 . S
C232 C234 1.381 . S
C232 C238 1.383 . S
C233 C229 1.495 . S
C233 H239 0.959 . S
C233 H240 0.961 . S
C233 H241 0.960 . S
C234 C232 1.381 . S
C234 C235 1.394 . S
C234 H242 0.930 . S
C235 C234 1.394 . S
C235 C236 1.383 . S
C235 H243 0.929 . S
C236 C235 1.383 . S
C236 C237 1.377 . S
C237 H221 0.930 . S
C237 C236 1.377 . S
C237 C238 1.379 . S
C238 H222 0.931 . S
C238 C232 1.383 . S
C238 C237 1.379 . S
H239 C233 0.959 . S
H240 C233 0.961 . S
H241 C233 0.960 . S
H242 C234 0.930 . S
H243 C235 0.929 . S
H244 C252 0.929 . S
H245 C254 0.930 . S
H246 C256 0.930 . S
H247 C259 0.929 . S
H248 C262 0.929 1_554 S
H249 C264 0.960 . S
H250 C264 0.960 . S
H251 C264 0.960 . S
C252 H244 0.929 . S
C252 C253 1.377 . S
C252 C254 1.384 . S
C253 C252 1.377 . S
C253 C259 1.390 . S
C254 H245 0.930 . S
C254 C252 1.384 . S
C254 C255 1.372 . S
C255 C254 1.372 . S
C255 C256 1.400 . S
C255 C260 1.490 . S
C256 H246 0.930 . S
C256 C255 1.400 . S
C256 C259 1.386 . S
H257 C273 0.930 . S
H258 C274 0.931 . S
C259 H247 0.929 . S
C259 C253 1.390 . S
C259 C256 1.386 . S
C260 C255 1.490 . S
C260 C262 1.390 1_554 S
C260 C263 1.403 . S
H261 C267 0.930 . S
C262 H248 0.929 1_556 S
C262 C260 1.390 1_556 S
C262 C265 1.409 . S
C263 C260 1.403 . S
C263 C264 1.524 . S
C263 C267 1.400 1_554 S
C264 H249 0.960 . S
C264 H250 0.960 . S
C264 H251 0.960 . S
C264 C263 1.524 . S
C265 C262 1.409 . S
C265 C266 1.392 . S
C265 C269 1.495 . S
C266 C265 1.392 . S
C266 C267 1.385 . S
C266 C268 1.478 . S
C267 H261 0.930 . S
C267 C263 1.400 1_556 S
C267 C266 1.385 . S
C268 C266 1.478 . S
C268 C270 1.381 . S
C268 C274 1.383 . S
C269 C265 1.495 . S
C269 H275 0.959 . S
C269 H276 0.961 . S
C269 H277 0.960 . S
C270 C268 1.381 . S
C270 C271 1.394 . S
C270 H278 0.930 . S
C271 C270 1.394 . S
C271 C272 1.383 . S
C271 H279 0.929 . S
C272 C271 1.383 . S
C272 C273 1.377 . S
C273 H257 0.930 . S
C273 C272 1.377 . S
C273 C274 1.379 . S
C274 H258 0.931 . S
C274 C268 1.383 . S
C274 C273 1.379 . S
H275 C269 0.959 . S
H276 C269 0.961 . S
H277 C269 0.960 . S
H278 C270 0.930 . S
H279 C271 0.929 . S
H280 C288 0.929 . S
H281 C290 0.930 . S
H282 C292 0.930 . S
H283 C295 0.929 . S
H284 C298 0.930 . S
H285 C300 0.960 . S
H286 C300 0.960 . S
H287 C300 0.960 . S
C288 H280 0.929 . S
C288 C289 1.377 . S
C288 C290 1.384 . S
C289 C288 1.377 . S
C289 C295 1.390 . S
C290 H281 0.930 . S
C290 C288 1.384 . S
C290 C291 1.372 . S
C291 C290 1.372 . S
C291 C292 1.400 . S
C291 C296 1.490 . S
C292 H282 0.930 . S
C292 C291 1.400 . S
C292 C295 1.386 . S
H293 C309 0.930 . S
H294 C310 0.931 . S
C295 H283 0.929 . S
C295 C289 1.390 . S
C295 C292 1.386 . S
C296 C291 1.490 . S
C296 C298 1.395 1_655 S
C296 C299 1.403 . S
H297 C303 0.929 1_655 S
C298 H284 0.930 . S
C298 C296 1.395 1_455 S
C298 C301 1.403 . S
C299 C296 1.403 . S
C299 C300 1.524 . S
C299 C303 1.400 1_655 S
C300 H285 0.960 . S
C300 H286 0.960 . S
C300 H287 0.960 . S
C300 C299 1.524 . S
C301 C298 1.403 . S
C301 C302 1.392 . S
C301 C305 1.495 . S
C302 C301 1.392 . S
C302 C303 1.385 . S
C302 C304 1.478 . S
C303 H297 0.929 1_455 S
C303 C299 1.400 1_455 S
C303 C302 1.385 . S
C304 C302 1.478 . S
C304 C306 1.381 . S
C304 C310 1.383 . S
C305 C301 1.495 . S
C305 H311 0.959 . S
C305 H312 0.961 . S
C305 H313 0.960 . S
C306 C304 1.381 . S
C306 C307 1.394 . S
C306 H314 0.930 . S
C307 C306 1.394 . S
C307 C308 1.383 . S
C307 H315 0.929 . S
C308 C307 1.383 . S
C308 C309 1.377 . S
C309 H293 0.930 . S
C309 C308 1.377 . S
C309 C310 1.379 . S
C310 H294 0.931 . S
C310 C304 1.383 . S
C310 C309 1.379 . S
H311 C305 0.959 . S
H312 C305 0.961 . S
H313 C305 0.960 . S
H314 C306 0.930 . S
H315 C307 0.929 . S
H316 C324 0.929 . S
H317 C326 0.930 . S
H318 C328 0.930 . S
H319 C331 0.929 . S
H320 C334 0.930 . S
H321 C336 0.960 . S
H322 C336 0.960 . S
H323 C336 0.960 . S
C324 H316 0.929 . S
C324 C325 1.377 . S
C324 C326 1.384 1_545 S
C325 C324 1.377 . S
C325 C331 1.390 . S
C326 H317 0.930 . S
C326 C324 1.384 1_565 S
C326 C327 1.372 . S
C327 C326 1.372 . S
C327 C328 1.400 1_565 S
C327 C332 1.490 . S
C328 H318 0.930 . S
C328 C327 1.400 1_545 S
C328 C331 1.386 . S
H329 C345 0.930 . S
H330 C346 0.931 . S
C331 H319 0.929 . S
C331 C325 1.390 . S
C331 C328 1.386 . S
C332 C327 1.490 . S
C332 C334 1.395 . S
C332 C335 1.403 . S
H333 C339 0.930 . S
C334 H320 0.930 . S
C334 C332 1.395 . S
C334 C337 1.403 . S
C335 C332 1.403 . S
C335 C336 1.524 . S
C335 C339 1.400 . S
C336 H321 0.960 . S
C336 H322 0.960 . S
C336 H323 0.960 . S
C336 C335 1.524 . S
C337 C334 1.403 . S
C337 C338 1.392 . S
C337 C341 1.495 . S
C338 C337 1.392 . S
C338 C339 1.385 . S
C338 C340 1.478 . S
C339 H333 0.930 . S
C339 C335 1.400 . S
C339 C338 1.385 . S
C340 C338 1.478 . S
C340 C342 1.381 . S
C340 C346 1.383 . S
C341 C337 1.495 . S
C341 H347 0.959 . S
C341 H348 0.961 . S
C341 H349 0.960 . S
C342 C340 1.381 . S
C342 C343 1.394 . S
C342 H350 0.930 . S
C343 C342 1.394 . S
C343 C344 1.383 . S
C343 H351 0.929 . S
C344 C343 1.383 . S
C344 C345 1.377 . S
C345 H329 0.930 . S
C345 C344 1.377 . S
C345 C346 1.379 . S
C346 H330 0.931 . S
C346 C340 1.383 . S
C346 C345 1.379 . S
H347 C341 0.959 . S
H348 C341 0.961 . S
H349 C341 0.960 . S
H350 C342 0.930 . S
H351 C343 0.929 . S
H352 C360 0.929 . S
H353 C362 0.930 . S
H354 C364 0.930 . S
H355 C367 0.929 . S
H356 C370 0.930 . S
H357 C372 0.960 . S
H358 C372 0.960 . S
H359 C372 0.960 . S
C360 H352 0.929 . S
C360 C361 1.377 . S
C360 C362 1.384 . S
C361 C360 1.377 . S
C361 C367 1.390 . S
C362 H353 0.930 . S
C362 C360 1.384 . S
C362 C363 1.372 1_455 S
C363 C362 1.372 1_655 S
C363 C364 1.400 . S
C363 C368 1.490 . S
C364 H354 0.930 . S
C364 C363 1.400 . S
C364 C367 1.386 1_655 S
H365 C381 0.930 . S
H366 C382 0.931 . S
C367 H355 0.929 . S
C367 C361 1.390 . S
C367 C364 1.386 1_455 S
C368 C363 1.490 . S
C368 C370 1.395 . S
C368 C371 1.403 . S
H369 C375 0.930 . S
C370 H356 0.930 . S
C370 C368 1.395 . S
C370 C373 1.403 . S
C371 C368 1.403 . S
C371 C372 1.524 . S
C371 C375 1.400 . S
C372 H357 0.960 . S
C372 H358 0.960 . S
C372 H359 0.960 . S
C372 C371 1.524 . S
C373 C370 1.403 . S
C373 C374 1.392 . S
C373 C377 1.495 . S
C374 C373 1.392 . S
C374 C375 1.385 . S
C374 C376 1.478 . S
C375 H369 0.930 . S
C375 C371 1.400 . S
C375 C374 1.385 . S
C376 C374 1.478 . S
C376 C378 1.381 . S
C376 C382 1.383 . S
C377 C373 1.495 . S
C377 H383 0.959 . S
C377 H384 0.961 . S
C377 H385 0.960 . S
C378 C376 1.381 . S
C378 C379 1.394 . S
C378 H386 0.930 . S
C379 C378 1.394 . S
C379 C380 1.383 . S
C379 H387 0.929 . S
C380 C379 1.383 . S
C380 C381 1.377 . S
C381 H365 0.930 . S
C381 C380 1.377 . S
C381 C382 1.379 . S
C382 H366 0.931 . S
C382 C376 1.383 . S
C382 C381 1.379 . S
H383 C377 0.959 . S
H384 C377 0.961 . S
H385 C377 0.960 . S
H386 C378 0.930 . S
H387 C379 0.929 . S
H388 C396 0.929 . S
H389 C398 0.930 . S
H390 C400 0.930 . S
H391 C403 0.929 . S
H392 C406 0.930 . S
H393 C408 0.960 . S
H394 C408 0.960 . S
H395 C408 0.960 . S
C396 H388 0.929 . S
C396 C397 1.377 . S
C396 C398 1.384 . S
C397 C396 1.377 . S
C397 C403 1.390 . S
C398 H389 0.930 . S
C398 C396 1.384 . S
C398 C399 1.372 1_545 S
C399 C398 1.372 1_565 S
C399 C400 1.400 . S
C399 C404 1.490 . S
C400 H390 0.930 . S
C400 C399 1.400 . S
C400 C403 1.386 1_565 S
H401 C417 0.930 . S
H402 C418 0.931 . S
C403 H391 0.929 . S
C403 C397 1.390 . S
C403 C400 1.386 1_545 S
C404 C399 1.490 . S
C404 C406 1.395 . S
C404 C407 1.403 . S
H405 C411 0.930 . S
C406 H392 0.930 . S
C406 C404 1.395 . S
C406 C409 1.403 . S
C407 C404 1.403 . S
C407 C408 1.524 . S
C407 C411 1.400 . S
C408 H393 0.960 . S
C408 H394 0.960 . S
C408 H395 0.960 . S
C408 C407 1.524 . S
C409 C406 1.403 . S
C409 C410 1.392 . S
C409 C413 1.495 . S
C410 C409 1.392 . S
C410 C411 1.385 . S
C410 C412 1.478 . S
C411 H405 0.930 . S
C411 C407 1.400 . S
C411 C410 1.385 . S
C412 C410 1.478 . S
C412 C414 1.381 1_455 S
C412 C418 1.383 . S
C413 C409 1.495 . S
C413 H419 0.959 . S
C413 H420 0.961 . S
C413 H421 0.960 1_455 S
C414 C412 1.381 1_655 S
C414 C415 1.394 . S
C414 H422 0.930 . S
C415 C414 1.394 . S
C415 C416 1.383 . S
C415 H423 0.929 . S
C416 C415 1.383 . S
C416 C417 1.377 . S
C417 H401 0.930 . S
C417 C416 1.377 . S
C417 C418 1.379 1_655 S
C418 H402 0.931 . S
C418 C412 1.383 . S
C418 C417 1.379 1_455 S
H419 C413 0.959 . S
H420 C413 0.961 . S
H421 C413 0.960 1_655 S
H422 C414 0.930 . S
H423 C415 0.929 . S
H424 C432 0.929 . S
H425 C434 0.930 . S
H426 C436 0.930 . S
H427 C439 0.929 . S
H428 C442 0.930 . S
H429 C444 0.960 . S
H430 C444 0.960 . S
H431 C444 0.960 . S
C432 H424 0.929 . S
C432 C433 1.377 . S
C432 C434 1.384 . S
C433 C432 1.377 . S
C433 C439 1.390 . S
C434 H425 0.930 . S
C434 C432 1.384 . S
C434 C435 1.372 . S
C435 C434 1.372 . S
C435 C436 1.400 . S
C435 C440 1.490 . S
C436 H426 0.930 . S
C436 C435 1.400 . S
C436 C439 1.386 . S
H437 C453 0.930 . S
H438 C454 0.931 . S
C439 H427 0.929 . S
C439 C433 1.390 . S
C439 C436 1.386 . S
C440 C435 1.490 . S
C440 C442 1.395 . S
C440 C443 1.403 . S
H441 C447 0.930 . S
C442 H428 0.930 . S
C442 C440 1.395 . S
C442 C445 1.403 . S
C443 C440 1.403 . S
C443 C444 1.524 . S
C443 C447 1.400 . S
C444 H429 0.960 . S
C444 H430 0.960 . S
C444 H431 0.960 . S
C444 C443 1.524 . S
C445 C442 1.403 . S
C445 C446 1.392 . S
C445 C449 1.495 . S
C446 C445 1.392 . S
C446 C447 1.385 . S
C446 C448 1.478 . S
C447 H441 0.930 . S
C447 C443 1.400 . S
C447 C446 1.385 . S
C448 C446 1.478 . S
C448 C450 1.381 . S
C448 C454 1.383 1_545 S
C449 C445 1.495 . S
C449 H455 0.959 . S
C449 H456 0.961 . S
C449 H457 0.960 . S
C450 C448 1.381 . S
C450 C451 1.394 1_545 S
C450 H458 0.930 . S
C451 C450 1.394 1_565 S
C451 C452 1.383 . S
C451 H459 0.929 . S
C452 C451 1.383 . S
C452 C453 1.377 . S
C453 H437 0.930 . S
C453 C452 1.377 . S
C453 C454 1.379 . S
C454 H438 0.931 . S
C454 C448 1.383 1_565 S
C454 C453 1.379 . S
H455 C449 0.959 . S
H456 C449 0.961 . S
H457 C449 0.960 . S
H458 C450 0.930 . S
H459 C451 0.929 . S
H460 C468 0.929 . S
H461 C470 0.930 . S
H462 C472 0.930 . S
H463 C475 0.929 . S
H464 C478 0.930 . S
H465 C480 0.960 . S
H466 C480 0.960 . S
H467 C480 0.960 . S
C468 H460 0.929 . S
C468 C469 1.377 . S
C468 C470 1.384 . S
C469 C468 1.377 . S
C469 C475 1.390 . S
C470 H461 0.930 . S
C470 C468 1.384 . S
C470 C471 1.372 . S
C471 C470 1.372 . S
C471 C472 1.400 . S
C471 C476 1.490 . S
C472 H462 0.930 . S
C472 C471 1.400 . S
C472 C475 1.386 . S
H473 C489 0.930 . S
H474 C490 0.931 1_455 S
C475 H463 0.929 . S
C475 C469 1.390 . S
C475 C472 1.386 . S
C476 C471 1.490 . S
C476 C478 1.395 . S
C476 C479 1.403 . S
H477 C483 0.930 . S
C478 H464 0.930 . S
C478 C476 1.395 . S
C478 C481 1.403 . S
C479 C476 1.403 . S
C479 C480 1.524 . S
C479 C483 1.400 . S
C480 H465 0.960 . S
C480 H466 0.960 . S
C480 H467 0.960 . S
C480 C479 1.524 . S
C481 C478 1.403 . S
C481 C482 1.392 . S
C481 C485 1.495 . S
C482 C481 1.392 . S
C482 C483 1.385 . S
C482 C484 1.478 . S
C483 H477 0.930 . S
C483 C479 1.400 . S
C483 C482 1.385 . S
C484 C482 1.478 . S
C484 C486 1.381 . S
C484 C490 1.383 1_455 S
C485 C481 1.495 . S
C485 H491 0.959 . S
C485 H492 0.961 . S
C485 H493 0.960 . S
C486 C484 1.381 . S
C486 C487 1.394 1_455 S
C486 H494 0.930 . S
C487 C486 1.394 1_655 S
C487 C488 1.383 . S
C487 H495 0.929 . S
C488 C487 1.383 . S
C488 C489 1.377 . S
C489 H473 0.930 . S
C489 C488 1.377 . S
C489 C490 1.379 . S
C490 H474 0.931 1_655 S
C490 C484 1.383 1_655 S
C490 C489 1.379 . S
H491 C485 0.959 . S
H492 C485 0.961 . S
H493 C485 0.960 . S
H494 C486 0.930 . S
H495 C487 0.929 . S
H496 C504 0.929 . S
H497 C506 0.930 . S
H498 C508 0.930 . S
H499 C511 0.929 . S
H500 C514 0.930 . S
H501 C516 0.960 . S
H502 C516 0.960 . S
H503 C516 0.960 . S
C504 H496 0.929 . S
C504 C505 1.377 . S
C504 C506 1.384 1_455 S
C505 C504 1.377 . S
C505 C511 1.390 . S
C506 H497 0.930 . S
C506 C504 1.384 1_655 S
C506 C507 1.372 . S
C507 C506 1.372 . S
C507 C508 1.400 1_655 S
C507 C512 1.490 . S
C508 H498 0.930 . S
C508 C507 1.400 1_455 S
C508 C511 1.386 . S
H509 C525 0.930 . S
H510 C526 0.931 . S
C511 H499 0.929 . S
C511 C505 1.390 . S
C511 C508 1.386 . S
C512 C507 1.490 . S
C512 C514 1.395 . S
C512 C515 1.403 . S
H513 C519 0.930 . S
C514 H500 0.930 . S
C514 C512 1.395 . S
C514 C517 1.403 . S
C515 C512 1.403 . S
C515 C516 1.524 . S
C515 C519 1.400 . S
C516 H501 0.960 . S
C516 H502 0.960 . S
C516 H503 0.960 . S
C516 C515 1.524 . S
C517 C514 1.403 . S
C517 C518 1.392 . S
C517 C521 1.495 . S
C518 C517 1.392 . S
C518 C519 1.385 . S
C518 C520 1.478 . S
C519 H513 0.930 . S
C519 C515 1.400 . S
C519 C518 1.385 . S
C520 C518 1.478 . S
C520 C522 1.381 . S
C520 C526 1.383 1_545 S
C521 C517 1.495 . S
C521 H527 0.959 . S
C521 H528 0.961 . S
C521 H529 0.960 . S
C522 C520 1.381 . S
C522 C523 1.394 1_545 S
C522 H530 0.930 . S
C523 C522 1.394 1_565 S
C523 C524 1.383 . S
C523 H531 0.929 . S
C524 C523 1.383 . S
C524 C525 1.377 . S
C525 H509 0.930 . S
C525 C524 1.377 . S
C525 C526 1.379 . S
C526 H510 0.931 . S
C526 C520 1.383 1_565 S
C526 C525 1.379 . S
H527 C521 0.959 . S
H528 C521 0.961 . S
H529 C521 0.960 . S
H530 C522 0.930 . S
H531 C523 0.929 . S
C109 C84 1.784 . S
C128 C34 1.659 . S
C145 C96 1.690 . S
C164 C37 1.785 . S
C181 C45 1.690 . S
C200 C97 1.785 . S
C217 C90 1.692 . S
C236 C44 1.783 . S
C253 C42 1.682 . S
C272 C91 1.776 . S
C289 C43 1.784 . S
C308 C87 1.688 . S
C325 C41 1.018 . S
C344 C40 1.004 . S
C361 C89 1.016 . S
C380 C88 1.000 . S
C397 C38 1.017 . S
C416 C39 1.001 . S
C433 C94 1.017 . S
C452 C95 1.028 . S
C469 C46 1.016 . S
C488 C47 1.000 . S
C505 C93 1.020 . S
C524 C92 1.021 . S
