# Generated by pormake.
# Topology ukf, (4)-cn, num edge types: 1
# Building blocks:
#     Node 0, Type 0, BuildingBlock: TATPOV_clean_sbu_0, # of connection points: 4
#     Node 1, Type 0, BuildingBlock: TATPOV_clean_sbu_0, # of connection points: 4
#     Node 2, Type 0, BuildingBlock: TATPOV_clean_sbu_0, # of connection points: 4
#     Node 3, Type 0, BuildingBlock: TATPOV_clean_sbu_0, # of connection points: 4
#     Node 4, Type 0, BuildingBlock: TATPOV_clean_sbu_0, # of connection points: 4
#     Node 5, Type 0, BuildingBlock: TATPOV_clean_sbu_0, # of connection points: 4
#     Node 6, Type 0, BuildingBlock: TATPOV_clean_sbu_0, # of connection points: 4
#     Node 7, Type 0, BuildingBlock: TATPOV_clean_sbu_0, # of connection points: 4
#     Node 8, Type 0, BuildingBlock: TATPOV_clean_sbu_0, # of connection points: 4
#     Node 9, Type 0, BuildingBlock: TATPOV_clean_sbu_0, # of connection points: 4
#     Node 10, Type 0, BuildingBlock: TATPOV_clean_sbu_0, # of connection points: 4
#     Node 11, Type 0, BuildingBlock: TATPOV_clean_sbu_0, # of connection points: 4
#     Edge 12, Type (0, 0), BuildingBlock: EZIPEK_clean_linker_0, # of connection points: 2
#     Edge 13, Type (0, 0), BuildingBlock: EZIPEK_clean_linker_0, # of connection points: 2
#     Edge 14, Type (0, 0), BuildingBlock: EZIPEK_clean_linker_0, # of connection points: 2
#     Edge 15, Type (0, 0), BuildingBlock: EZIPEK_clean_linker_0, # of connection points: 2
#     Edge 16, Type (0, 0), BuildingBlock: EZIPEK_clean_linker_0, # of connection points: 2
#     Edge 17, Type (0, 0), BuildingBlock: EZIPEK_clean_linker_0, # of connection points: 2
#     Edge 18, Type (0, 0), BuildingBlock: EZIPEK_clean_linker_0, # of connection points: 2
#     Edge 19, Type (0, 0), BuildingBlock: EZIPEK_clean_linker_0, # of connection points: 2
#     Edge 20, Type (0, 0), BuildingBlock: EZIPEK_clean_linker_0, # of connection points: 2
#     Edge 21, Type (0, 0), BuildingBlock: EZIPEK_clean_linker_0, # of connection points: 2
#     Edge 22, Type (0, 0), BuildingBlock: EZIPEK_clean_linker_0, # of connection points: 2
#     Edge 23, Type (0, 0), BuildingBlock: EZIPEK_clean_linker_0, # of connection points: 2
#     Edge 24, Type (0, 0), BuildingBlock: EZIPEK_clean_linker_0, # of connection points: 2
#     Edge 25, Type (0, 0), BuildingBlock: EZIPEK_clean_linker_0, # of connection points: 2
#     Edge 26, Type (0, 0), BuildingBlock: EZIPEK_clean_linker_0, # of connection points: 2
#     Edge 27, Type (0, 0), BuildingBlock: EZIPEK_clean_linker_0, # of connection points: 2
#     Edge 28, Type (0, 0), BuildingBlock: EZIPEK_clean_linker_0, # of connection points: 2
#     Edge 29, Type (0, 0), BuildingBlock: EZIPEK_clean_linker_0, # of connection points: 2
#     Edge 30, Type (0, 0), BuildingBlock: EZIPEK_clean_linker_0, # of connection points: 2
#     Edge 31, Type (0, 0), BuildingBlock: EZIPEK_clean_linker_0, # of connection points: 2
#     Edge 32, Type (0, 0), BuildingBlock: EZIPEK_clean_linker_0, # of connection points: 2
#     Edge 33, Type (0, 0), BuildingBlock: EZIPEK_clean_linker_0, # of connection points: 2
#     Edge 34, Type (0, 0), BuildingBlock: EZIPEK_clean_linker_0, # of connection points: 2
#     Edge 35, Type (0, 0), BuildingBlock: EZIPEK_clean_linker_0, # of connection points: 2
# Relax obj value: 0.149
# Max RMSD: 0.164
# Mean RMSD: 0.164
data_MOF--net-ukf--node1-TATPOV_clean_sbu_0--edge1-EZIPEK_clean_linker_0
_symmetry_space_group_name_H-M    P1
_symmetry_Int_Tables_number       1
_symmetry_cell_setting            triclinic
loop_
_symmetry_equiv_pos_as_xyz
'x, y, z'
_cell_length_a     22.920461
_cell_length_b     22.942918
_cell_length_c     47.476382
_cell_angle_alpha  89.996013
_cell_angle_beta   90.14397
_cell_angle_gamma 119.96337
loop_
_atom_site_label
_atom_site_type_symbol
_atom_site_fract_x
_atom_site_fract_y
_atom_site_fract_z
_atom_type_partial_charge
Zn0 Zn 0.39435 0.22429 1.01483 0.0
Zn1 Zn 0.38186 0.20423 0.07088 0.0
O2 O 0.28807 0.13849 0.05366 0.0
O3 O 0.29682 0.15774 1.00829 0.0
O4 O 0.36593 0.18949 0.11316 0.0
O5 O 0.4264 0.32212 0.02054 0.0
O6 O 0.41624 0.30559 0.06649 0.0
C7 C 0.26079 0.12674 0.02929 0.0
C8 C 0.48504 0.184 0.03795 0.0
O9 O 0.45756 0.18356 0.06136 0.0
O10 O 0.46496 0.19679 1.01516 0.0
C11 C 0.40479 0.23318 0.13103 0.0
O12 O 0.45833 0.28805 0.12221 0.0
C13 C 0.4331 0.3448 0.04533 0.0
Zn14 Zn 0.13573 0.38723 0.34373 0.0
Zn15 Zn 0.15227 0.37839 0.39964 0.0
O16 O 0.12436 0.28345 0.38413 0.0
O17 O 0.11251 0.29103 0.3387 0.0
O18 O 0.15903 0.37372 0.44227 0.0
O19 O 0.06616 0.41419 0.35007 0.0
O20 O 0.08762 0.41623 0.39551 0.0
C21 C 0.11039 0.25618 0.35974 0.0
C22 C 0.26978 0.47933 0.36438 0.0
O23 O 0.24741 0.44895 0.38772 0.0
O24 O 0.2323 0.46255 0.34278 0.0
C25 C 0.17851 0.33838 0.45561 0.0
O26 O 0.19502 0.29934 0.44164 0.0
C27 C 0.05844 0.42767 0.37513 0.0
Zn28 Zn 0.76677 0.12141 0.67252 0.0
Zn29 Zn 0.77381 0.14917 0.72876 0.0
O30 O 0.84431 0.12028 0.72118 0.0
O31 O 0.83747 0.09418 0.67641 0.0
O32 O 0.77432 0.16203 0.77114 0.0
O33 O 0.66715 0.05554 0.67585 0.0
O34 O 0.67395 0.08424 0.72061 0.0
C35 C 0.86443 0.09991 0.70031 0.0
C36 C 0.80599 0.26023 0.68662 0.0
O37 O 0.80061 0.24094 0.71211 0.0
O38 O 0.79473 0.21973 0.66645 0.0
C39 C 0.82698 0.18611 0.78641 0.0
O40 O 0.88552 0.20452 0.7747 0.0
C41 C 0.63917 0.05196 0.69924 0.0
Zn42 Zn 0.60734 0.75317 1.00979 0.0
Zn43 Zn 0.59283 0.76848 0.06515 0.0
O44 O 0.68601 0.84457 0.05315 0.0
O45 O 0.69978 0.83451 1.0079 0.0
O46 O 0.59779 0.7803 0.10744 0.0
O47 O 0.5874 0.65766 0.01655 0.0
O48 O 0.56575 0.66966 0.06069 0.0
C49 C 0.72035 0.86723 0.03067 0.0
C50 C 0.50018 0.78326 0.02436 0.0
O51 O 0.51791 0.78441 0.04996 0.0
O52 O 0.52963 0.7709 1.00461 0.0
C53 C 0.54853 0.74905 0.12416 0.0
O54 O 0.48822 0.70827 0.11395 0.0
C55 C 0.56656 0.63305 0.04078 0.0
Zn56 Zn 0.841 0.61505 0.33794 0.0
Zn57 Zn 0.83933 0.64116 0.39299 0.0
O58 O 0.86187 0.72957 0.37212 0.0
O59 O 0.86552 0.70932 0.32729 0.0
O60 O 0.84608 0.66409 0.43449 0.0
O61 O 0.90966 0.58612 0.34424 0.0
O62 O 0.90132 0.6005 0.38964 0.0
C63 C 0.87132 0.74989 0.34659 0.0
C64 C 0.71268 0.53187 0.36585 0.0
O65 O 0.74208 0.56641 0.38767 0.0
O66 O 0.74332 0.54326 0.34257 0.0
C67 C 0.83726 0.61852 0.45204 0.0
O68 O 0.82372 0.55912 0.44273 0.0
C69 C 0.92415 0.58109 0.36952 0.0
Zn70 Zn 0.22696 0.83984 0.667 0.0
Zn71 Zn 0.21033 0.82199 0.72288 0.0
O72 O 0.13826 0.84565 0.7093 0.0
O73 O 0.15785 0.86872 0.66438 0.0
O74 O 0.20259 0.81441 0.76548 0.0
O75 O 0.32586 0.90474 0.67223 0.0
O76 O 0.31055 0.89103 0.71813 0.0
C77 C 0.1244 0.86467 0.68617 0.0
C78 C 0.19069 0.70629 0.68515 0.0
O79 O 0.19378 0.72997 0.70972 0.0
O80 O 0.19912 0.74183 0.66347 0.0
C81 C 0.14964 0.79707 0.77982 0.0
O82 O 0.09297 0.78183 0.76695 0.0
C83 C 0.34931 0.91662 0.69703 0.0
Zn84 Zn 0.76006 0.59647 0.68374 0.0
Zn85 Zn 0.78365 0.60219 0.62856 0.0
O86 O 0.84922 0.69791 0.64419 0.0
O87 O 0.82946 0.69326 0.68945 0.0
O88 O 0.79481 0.60991 0.58623 0.0
O89 O 0.66215 0.56657 0.67781 0.0
O90 O 0.68074 0.56022 0.63272 0.0
C91 C 0.86174 0.72703 0.66818 0.0
C92 C 0.80602 0.50577 0.66347 0.0
O93 O 0.80969 0.53209 0.63948 0.0
O94 O 0.78622 0.52409 0.68486 0.0
C95 C 0.84999 0.64612 0.57339 0.0
O96 O 0.90546 0.68315 0.58783 0.0
C97 C 0.64021 0.54976 0.65293 0.0
Zn98 Zn 0.12986 0.7608 1.01476 0.0
Zn99 Zn 0.1551 0.79645 0.96028 0.0
O100 O 0.12932 0.86231 0.97858 0.0
O101 O 0.10573 0.83197 0.0227 0.0
O102 O 0.16066 0.81674 0.91842 0.0
O103 O 0.06115 0.66558 1.00504 0.0
O104 O 0.08958 0.69425 0.96077 0.0
C105 C 0.11068 0.87084 1.00281 0.0
C106 C 0.26731 0.8047 0.99635 0.0
O107 O 0.24853 0.81536 0.97255 0.0
O108 O 0.22702 0.7828 0.01698 0.0
C109 C 0.16729 0.77808 0.90111 0.0
O110 O 0.17425 0.72822 0.91076 0.0
C111 C 0.05679 0.64975 0.97931 0.0
Zn112 Zn 0.36778 0.14431 0.36499 0.0
Zn113 Zn 0.37781 0.17811 0.30956 0.0
O114 O 0.27929 0.14932 0.32052 0.0
O115 O 0.26991 0.11752 0.36461 0.0
O116 O 0.38658 0.1952 0.26725 0.0
O117 O 0.40041 0.07911 0.35696 0.0
O118 O 0.40985 0.10938 0.31237 0.0
C119 C 0.24336 0.12556 0.34264 0.0
C120 C 0.46587 0.2831 0.35324 0.0
O121 O 0.44785 0.26693 0.32768 0.0
O122 O 0.43837 0.24081 0.37293 0.0
C123 C 0.34804 0.20501 0.25105 0.0
O124 O 0.29625 0.20725 0.26155 0.0
C125 C 0.4175 0.07591 0.33196 0.0
Zn126 Zn 0.24429 0.37053 0.68926 0.0
Zn127 Zn 0.20482 0.35373 0.63633 0.0
O128 O 0.13509 0.26986 0.65879 0.0
O129 O 0.18135 0.27446 0.69989 0.0
O130 O 0.17818 0.33238 0.59504 0.0
O131 O 0.33977 0.40245 0.67968 0.0
O132 O 0.30676 0.38374 0.63534 0.0
C133 C 0.13231 0.24478 0.68312 0.0
C134 C 0.19778 0.46072 0.67008 0.0
O135 O 0.19252 0.43329 0.64616 0.0
O136 O 0.21548 0.44098 0.69171 0.0
C137 C 0.2123 0.37699 0.57669 0.0
O138 O 0.26144 0.4358 0.58502 0.0
C139 C 0.35333 0.40397 0.65384 0.0
Zn140 Zn 0.88442 0.25717 0.01568 0.0
Zn141 Zn 0.8339 0.21682 0.96576 0.0
O142 O 0.85157 0.14767 0.98633 0.0
O143 O 0.92288 0.19582 0.02112 0.0
O144 O 0.8197 0.18836 0.92465 0.0
O145 O 0.94201 0.35362 1.0055 0.0
O146 O 0.90016 0.31914 0.96303 0.0
C147 C 0.88658 0.14415 1.00647 0.0
C148 C 0.7377 0.20732 1.00865 0.0
O149 O 0.74672 0.20358 0.98237 0.0
O150 O 0.78583 0.22478 0.02606 0.0
C151 C 0.81023 0.22371 0.90654 0.0
O152 O 0.80393 0.27477 0.91507 0.0
C153 C 0.937 0.36631 0.98003 0.0
Zn154 Zn 0.61945 0.86302 0.35561 0.0
Zn155 Zn 0.59932 0.83402 0.30044 0.0
O156 O 0.69782 0.85774 0.30852 0.0
O157 O 0.71766 0.89222 0.35232 0.0
O158 O 0.58616 0.81759 0.25849 0.0
O159 O 0.58325 0.92694 0.35119 0.0
O160 O 0.5717 0.9053 0.30563 0.0
C161 C 0.73865 0.88184 0.32928 0.0
C162 C 0.51685 0.72647 0.34369 0.0
O163 O 0.52812 0.7462 0.31819 0.0
O164 O 0.55238 0.76511 0.36346 0.0
C165 C 0.60088 0.77945 0.24454 0.0
O166 O 0.62744 0.74758 0.25749 0.0
C167 C 0.56586 0.93555 0.32693 0.0
C168 C 0.11147 0.95331 0.03796 0.0
C169 C 0.11063 0.93465 1.00943 0.0
C170 C 0.16584 0.05315 0.99638 0.0
C171 C 0.19096 0.06899 0.02434 0.0
N172 N 0.16295 0.0417 0.07329 0.0
N173 N 0.10762 0.96527 0.96125 0.0
C174 C 0.15516 0.02154 0.04585 0.0
C175 C 0.1275 0.9843 0.98842 0.0
N176 N 0.06931 0.90626 0.05679 0.0
N177 N 0.17748 0.10382 0.97817 0.0
H178 H 0.07291 0.91545 0.95607 0.0
H179 H 0.12423 -0.00176 0.94425 0.0
H180 H 0.2005 0.15383 0.98488 0.0
H181 H 0.15869 0.09618 0.95771 0.0
H182 H 0.06519 0.91649 0.07781 0.0
H183 H 0.03313 0.858 0.05028 0.0
H184 H 0.14499 0.00871 0.09027 0.0
H185 H 0.18595 0.09244 0.07883 0.0
C186 C 0.10903 0.16908 0.32694 0.0
C187 C 0.10617 0.18952 0.35488 0.0
C188 C 0.14693 0.11571 0.37176 0.0
C189 C 0.17599 0.12124 0.34483 0.0
N190 N 0.1595 0.12405 0.29491 0.0
N191 N 0.09336 0.15745 0.40375 0.0
C192 C 0.14823 0.13792 0.32161 0.0
C193 C 0.11504 0.15409 0.3774 0.0
N194 N 0.07271 0.17762 0.30619 0.0
N195 N 0.14785 0.07222 0.39111 0.0
H196 H 0.06174 0.17727 0.40726 0.0
H197 H 0.10566 0.13994 0.42176 0.0
H198 H 0.16497 0.03911 0.38591 0.0
H199 H 0.12495 0.06334 0.41076 0.0
H200 H 0.07017 0.16144 0.28552 0.0
H201 H 0.03892 0.19433 0.31072 0.0
H202 H 0.14755 0.14174 0.27687 0.0
H203 H 0.18036 0.09345 0.29109 0.0
C204 C 0.97246 0.13496 0.72508 0.0
C205 C 0.93018 0.10102 0.70214 0.0
C206 C 0.03018 0.1324 0.67349 0.0
C207 C 0.06808 0.1858 0.69275 0.0
N208 N 0.07202 0.23653 0.73866 0.0
N209 N 0.91891 0.04386 0.65846 0.0
C210 C 0.03946 0.18567 0.71955 0.0
C211 C 0.95936 0.09126 0.67763 0.0
N212 N 0.94772 0.12016 0.75179 0.0
N213 N 0.06215 0.12168 0.65156 0.0
H214 H 0.86853 0.0096 0.66295 0.0
H215 H 0.93478 0.03799 0.63868 0.0
H216 H 0.11431 0.14987 0.64905 0.0
H217 H 0.03849 0.08204 0.63735 0.0
H218 H 0.97791 0.14068 0.76961 0.0
H219 H 0.89875 0.08126 0.75575 0.0
H220 H 0.04848 0.24046 0.75675 0.0
H221 H 0.11952 0.27812 0.73588 0.0
C222 C 0.75897 0.98845 0.04037 0.0
C223 C 0.77322 0.9392 0.02938 0.0
C224 C 0.87497 0.02904 1.00693 0.0
C225 C 0.86156 0.07723 0.01932 0.0
N226 N 0.80463 0.10268 0.0561 0.0
N227 N 0.85274 0.91373 1.00748 0.0
C228 C 0.8091 0.05678 0.03925 0.0
C229 C 0.83412 0.95989 1.0144 0.0
N230 N 0.69548 0.97177 0.04892 0.0
N231 N 0.92532 0.04924 0.98758 0.0
H232 H 0.8242 0.86319 1.01319 0.0
H233 H 0.89903 0.92661 0.99847 0.0
H234 H 0.95747 0.09996 0.98291 0.0
H235 H 0.93318 0.01589 0.9755 0.0
H236 H 0.68217 0.00768 0.05424 0.0
H237 H 0.65367 0.92388 0.04704 0.0
H238 H 0.7698 0.08849 0.07243 0.0
H239 H 0.83995 0.15379 0.05609 0.0
C240 C 0.82392 0.85809 0.30556 0.0
C241 C 0.8051 0.88376 0.32884 0.0
C242 C 0.87444 0.85847 0.36012 0.0
C243 C 0.87467 0.81503 0.33894 0.0
N244 N 0.89175 0.81037 0.28918 0.0
N245 N 0.84829 0.94623 0.37188 0.0
C246 C 0.86305 0.82668 0.31066 0.0
C247 C 0.84235 0.89659 0.35424 0.0
N248 N 0.80448 0.86376 0.279 0.0
N249 N 0.90442 0.86276 0.38548 0.0
H250 H 0.82984 0.97804 0.36623 0.0
H251 H 0.87719 0.96058 0.39019 0.0
H252 H 0.93565 0.84229 0.38858 0.0
H253 H 0.89932 0.88709 0.40301 0.0
H254 H 0.80878 0.83861 0.26159 0.0
H255 H 0.78502 0.8953 0.27453 0.0
H256 H 0.88787 0.82013 0.26806 0.0
H257 H 0.92636 0.79432 0.29304 0.0
C258 C 0.96692 0.8295 0.64985 0.0
C259 C 0.92285 0.79501 0.67249 0.0
C260 C 0.01583 0.85172 0.70595 0.0
C261 C 0.06067 0.86742 0.68302 0.0
N262 N 0.08118 0.91186 0.63593 0.0
N263 N 0.89984 0.80987 0.72055 0.0
C264 C 0.037 0.86978 0.65563 0.0
C265 C 0.94545 0.81819 0.70029 0.0
N266 N 0.94182 0.82338 0.62326 0.0
N267 N 0.04059 0.86858 0.73268 0.0
H268 H 0.84912 0.79125 0.71566 0.0
H269 H 0.91284 0.82791 0.74105 0.0
H270 H 0.09178 0.90087 0.73655 0.0
H271 H 0.01085 0.85176 0.75067 0.0
H272 H 0.97166 0.8403 0.6053 0.0
H273 H 0.89024 0.80193 0.61949 0.0
H274 H 0.0671 0.91842 0.61584 0.0
H275 H 0.13125 0.94592 0.64108 0.0
C276 C 0.67053 0.25112 0.03274 0.0
C277 C 0.67247 0.19709 0.01907 0.0
C278 C 0.54961 0.12782 0.02274 0.0
C279 C 0.54821 0.18144 0.037 0.0
N280 N 0.60807 0.28693 0.06206 0.0
N281 N 0.61689 0.07966 1.00641 0.0
C282 C 0.60904 0.24043 0.04436 0.0
C283 C 0.61282 0.13392 0.01569 0.0
N284 N 0.72627 0.31404 0.03291 0.0
N285 N 0.49041 0.07182 0.01548 0.0
H286 H 0.66254 0.08245 1.00143 0.0
H287 H 0.57604 0.03089 1.00577 0.0
H288 H 0.44368 0.06443 0.02194 0.0
H289 H 0.48735 0.03418 1.00226 0.0
H290 H 0.72552 0.35688 0.03961 0.0
H291 H 0.77199 0.32509 0.02379 0.0
H292 H 0.65148 0.3275 0.07036 0.0
H293 H 0.56404 0.28153 0.0708 0.0
C294 C 0.38397 0.54014 0.34213 0.0
C295 C 0.33799 0.53894 0.36248 0.0
C296 C 0.40859 0.66025 0.36979 0.0
C297 C 0.45671 0.66121 0.35069 0.0
N298 N 0.49459 0.60244 0.32045 0.0
N299 N 0.31205 0.59528 0.39942 0.0
C300 C 0.44562 0.60113 0.33731 0.0
C301 C 0.35254 0.59792 0.37774 0.0
N302 N 0.3684 0.48266 0.32758 0.0
N303 N 0.41283 0.71923 0.37842 0.0
H304 H 0.26715 0.55254 0.40487 0.0
H305 H 0.32574 0.63476 0.41357 0.0
H306 H 0.45074 0.76663 0.37214 0.0
H307 H 0.37467 0.72149 0.38935 0.0
H308 H 0.39506 0.48076 0.31026 0.0
H309 H 0.32696 0.43598 0.33251 0.0
H310 H 0.49106 0.56061 0.31036 0.0
H311 H 0.54157 0.64535 0.31772 0.0
C312 C 0.7477 0.32563 0.68034 0.0
C313 C 0.80898 0.32454 0.68035 0.0
C314 C 0.87062 0.44335 0.66623 0.0
C315 C 0.80861 0.44298 0.66558 0.0
N316 N 0.68776 0.37921 0.66217 0.0
N317 N 0.9274 0.37773 0.66988 0.0
C318 C 0.747 0.38267 0.66971 0.0
C319 C 0.87024 0.38206 0.67207 0.0
N320 N 0.69022 0.27266 0.69098 0.0
N321 N 0.92926 0.50223 0.66167 0.0
H322 H 0.92867 0.33418 0.67509 0.0
H323 H 0.97255 0.41562 0.66167 0.0
H324 H 0.93022 0.54711 0.6569 0.0
H325 H 0.97685 0.5074 0.66319 0.0
H326 H 0.64602 0.27415 0.69416 0.0
H327 H 0.6881 0.2294 0.69905 0.0
H328 H 0.64148 0.33473 0.66227 0.0
H329 H 0.68616 0.41923 0.6525 0.0
C330 C 0.3412 0.75607 0.98799 0.0
C331 C 0.33319 0.80844 0.99962 0.0
C332 C 0.43953 0.85003 0.02555 0.0
C333 C 0.44191 0.79185 0.01704 0.0
N334 N 0.38551 0.6817 0.99547 0.0
N335 N 0.3717 0.90362 0.03076 0.0
C336 C 0.39037 0.74294 0.99954 0.0
C337 C 0.38156 0.85503 0.01883 0.0
N338 N 0.30145 0.71811 0.96613 0.0
N339 N 0.4934 0.90144 0.03904 0.0
H340 H 0.33227 0.91141 0.02478 0.0
H341 H 0.4006 0.93397 0.0474 0.0
H342 H 0.53706 0.9001 0.04386 0.0
H343 H 0.49716 0.94768 0.04338 0.0
H344 H 0.30997 0.68371 0.95517 0.0
H345 H 0.26441 0.72556 0.95695 0.0
H346 H 0.34485 0.64162 0.98537 0.0
H347 H 0.41778 0.66819 1.00515 0.0
C348 C 0.52605 0.40917 0.35642 0.0
C349 C 0.5266 0.34799 0.35968 0.0
C350 C 0.64392 0.4099 0.37551 0.0
C351 C 0.64621 0.4708 0.36822 0.0
N352 N 0.59167 0.531 0.35226 0.0
N353 N 0.58766 0.28934 0.36928 0.0
C354 C 0.58767 0.47126 0.35902 0.0
C355 C 0.58573 0.34801 0.36875 0.0
N356 N 0.46654 0.40763 0.35143 0.0
N357 N 0.69751 0.41135 0.38893 0.0
H358 H 0.54641 0.24254 0.36437 0.0
H359 H 0.63173 0.28749 0.37226 0.0
H360 H 0.74118 0.45601 0.39416 0.0
H361 H 0.69634 0.36882 0.3973 0.0
H362 H 0.46139 0.45017 0.35161 0.0
H363 H 0.42085 0.3628 0.34924 0.0
H364 H 0.55276 0.53468 0.3428 0.0
H365 H 0.6354 0.57732 0.35526 0.0
C366 C 0.24488 0.5831 0.66162 0.0
C367 C 0.19197 0.52174 0.67236 0.0
C368 C 0.13556 0.58064 0.69109 0.0
C369 C 0.19061 0.6423 0.68168 0.0
N370 N 0.30523 0.70438 0.66484 0.0
N371 N 0.08991 0.46088 0.69929 0.0
C372 C 0.24721 0.64415 0.66867 0.0
C373 C 0.13816 0.52017 0.6878 0.0
N374 N 0.29356 0.58336 0.6449 0.0
N375 N 0.0805 0.57996 0.7025 0.0
H376 H 0.08825 0.41518 0.69579 0.0
H377 H 0.05305 0.45688 0.71317 0.0
H378 H 0.07705 0.62334 0.70486 0.0
H379 H 0.03662 0.53648 0.70827 0.0
H380 H 0.32812 0.62534 0.63356 0.0
H381 H 0.29678 0.54057 0.64059 0.0
H382 H 0.35056 0.70842 0.65849 0.0
H383 H 0.31064 0.75053 0.67088 0.0
C384 C 0.37898 0.2738 0.17597 0.0
C385 C 0.38786 0.22451 0.16155 0.0
C386 C 0.36137 0.15827 0.20507 0.0
C387 C 0.36042 0.21131 0.22014 0.0
N388 N 0.3792 0.32458 0.22075 0.0
N389 N 0.39802 0.12485 0.16331 0.0
C390 C 0.37201 0.27043 0.20581 0.0
C391 C 0.38173 0.16794 0.17633 0.0
N392 N 0.37451 0.32243 0.16106 0.0
N393 N 0.34032 0.09762 0.21788 0.0
H394 H 0.4138 0.13048 0.14241 0.0
H395 H 0.40177 0.0871 0.17392 0.0
H396 H 0.32369 0.08795 0.23868 0.0
H397 H 0.3331 0.05493 0.20712 0.0
H398 H 0.36098 0.35532 0.17012 0.0
H399 H 0.37773 0.32578 0.13916 0.0
H400 H 0.39515 0.37156 0.21176 0.0
H401 H 0.37528 0.32455 0.24263 0.0
C402 C 0.24973 0.36635 0.49944 0.0
C403 C 0.18578 0.34415 0.48682 0.0
C404 C 0.13847 0.34406 0.53328 0.0
C405 C 0.20126 0.36164 0.54603 0.0
N406 N 0.31171 0.37376 0.54195 0.0
N407 N 0.06618 0.29875 0.49223 0.0
C408 C 0.25545 0.36812 0.5293 0.0
C409 C 0.12918 0.32918 0.5039 0.0
N410 N 0.3058 0.38905 0.48298 0.0
N411 N 0.08867 0.34447 0.5489 0.0
H412 H 0.0573 0.28626 0.47091 0.0
H413 H 0.02227 0.28021 0.50406 0.0
H414 H 0.09353 0.35531 0.57039 0.0
H415 H 0.04474 0.33959 0.54014 0.0
H416 H 0.35458 0.41282 0.49111 0.0
H417 H 0.30437 0.39016 0.46104 0.0
H418 H 0.34979 0.37161 0.5309 0.0
H419 H 0.31724 0.3736 0.56377 0.0
C420 C 0.77029 0.15006 0.8632 0.0
C421 C 0.81479 0.21299 0.87591 0.0
C422 C 0.86239 0.25966 0.82955 0.0
C423 C 0.82259 0.19514 0.81722 0.0
N424 N 0.74805 0.07578 0.82332 0.0
N425 N 0.91404 0.32289 0.87205 0.0
C426 C 0.77901 0.13937 0.83432 0.0
C427 C 0.86392 0.2665 0.85933 0.0
N428 N 0.71819 0.10128 0.87839 0.0
N429 N 0.89657 0.31509 0.81283 0.0
H430 H 0.91865 0.32917 0.89385 0.0
H431 H 0.95509 0.36028 0.86114 0.0
H432 H 0.89534 0.31279 0.79088 0.0
H433 H 0.9205 0.3641 0.82064 0.0
H434 H 0.67987 0.05724 0.86943 0.0
H435 H 0.70982 0.10738 0.89949 0.0
H436 H 0.72143 0.03264 0.8355 0.0
H437 H 0.75428 0.06558 0.80249 0.0
C438 C 0.59451 0.82162 0.16739 0.0
C439 C 0.56036 0.75646 0.15511 0.0
C440 C 0.54705 0.70621 0.20199 0.0
C441 C 0.58783 0.77126 0.21372 0.0
N442 N 0.66221 0.89021 0.20638 0.0
N443 N 0.51725 0.63693 0.16013 0.0
C444 C 0.61488 0.82887 0.19608 0.0
C445 C 0.54009 0.69868 0.17223 0.0
N446 N 0.60531 0.87648 0.152 0.0
N447 N 0.51273 0.65178 0.21922 0.0
H448 H 0.51371 0.62925 0.13841 0.0
H449 H 0.50847 0.59452 0.17154 0.0
H450 H 0.51508 0.65518 0.24114 0.0
H451 H 0.47676 0.6045 0.2118 0.0
H452 H 0.62386 0.92418 0.16075 0.0
H453 H 0.58933 0.87319 0.13117 0.0
H454 H 0.68868 0.93248 0.19369 0.0
H455 H 0.68015 0.89742 0.22704 0.0
C456 C 0.89181 0.62351 0.52801 0.0
C457 C 0.85132 0.64504 0.54213 0.0
C458 C 0.80142 0.64995 0.49699 0.0
C459 C 0.84482 0.6323 0.48277 0.0
N460 N 0.94219 0.61808 0.484 0.0
N461 N 0.77902 0.69331 0.53969 0.0
C462 C 0.89335 0.62387 0.49808 0.0
C463 C 0.8095 0.66264 0.52649 0.0
N464 N 0.9261 0.59932 0.54308 0.0
N465 N 0.75037 0.65141 0.48265 0.0
H466 H 0.78472 0.70448 0.56117 0.0
H467 H 0.75356 0.71353 0.52895 0.0
H468 H 0.74233 0.642 0.4611 0.0
H469 H 0.71252 0.65635 0.49252 0.0
H470 H 0.95018 0.57592 0.53379 0.0
H471 H 0.92553 0.59695 0.56501 0.0
H472 H 0.98301 0.61878 0.49402 0.0
H473 H 0.94575 0.61942 0.46207 0.0
C474 C 0.1095 0.72982 0.85499 0.0
C475 C 0.16084 0.78482 0.87029 0.0
C476 C 0.19777 0.85112 0.82674 0.0
C477 C 0.15208 0.79333 0.81104 0.0
N478 N 0.07233 0.67411 0.80983 0.0
N479 N 0.26024 0.89487 0.87027 0.0
C480 C 0.10985 0.7317 0.82505 0.0
C481 C 0.20663 0.84487 0.85607 0.0
N482 N 0.05884 0.6767 0.86906 0.0
N483 N 0.23095 0.91252 0.81385 0.0
H484 H 0.26875 0.89208 0.89169 0.0
H485 H 0.29941 0.93648 0.86036 0.0
H486 H 0.22481 0.91942 0.79256 0.0
H487 H 0.25945 0.95747 0.82478 0.0
H488 H 0.01636 0.6386 0.85906 0.0
H489 H 0.05565 0.6741 0.89098 0.0
H490 H 0.04647 0.62654 0.81896 0.0
H491 H 0.07206 0.67279 0.78788 0.0
C492 C 0.46588 0.52006 0.03214 0.0
C493 C 0.53072 0.55927 0.04448 0.0
C494 C 0.52794 0.45697 0.06122 0.0
C495 C 0.46278 0.41808 0.04912 0.0
N496 N 0.36289 0.41205 0.02976 0.0
N497 N 0.61769 0.56736 0.07558 0.0
C498 C 0.42966 0.44961 0.03664 0.0
C499 C 0.55972 0.52842 0.06076 0.0
N500 N 0.43932 0.55001 0.01568 0.0
N501 N 0.56107 0.42587 0.07162 0.0
H502 H 0.64372 0.6198 0.07471 0.0
H503 H 0.63736 0.54804 0.09027 0.0
H504 H 0.53934 0.37378 0.0727 0.0
H505 H 0.61159 0.45144 0.07754 0.0
H506 H 0.39625 0.5234 1.00337 0.0
H507 H 0.4628 0.6018 1.01279 0.0
H508 H 0.33373 0.43269 0.02317 0.0
H509 H 0.33479 0.36031 0.03333 0.0
C510 C 0.02345 0.57162 0.38571 0.0
C511 C 0.95632 0.54041 0.37566 0.0
C512 C 0.95163 0.43116 0.37417 0.0
C513 C 0.02153 0.46429 0.37985 0.0
N514 N 0.12613 0.56628 0.38982 0.0
N515 N 0.85446 0.44051 0.3609 0.0
C516 C 0.05791 0.53443 0.38583 0.0
C517 C 0.9196 0.46997 0.37027 0.0
N518 N 0.05431 0.63683 0.39485 0.0
N519 N 0.91599 0.36241 0.37303 0.0
H520 H 0.82767 0.46612 0.35946 0.0
H521 H 0.82754 0.39146 0.3533 0.0
H522 H 0.9385 0.33301 0.37611 0.0
H523 H 0.86376 0.33421 0.37155 0.0
H524 H 0.1006 0.66035 0.4052 0.0
H525 H 0.03118 0.66607 0.39407 0.0
H526 H 0.15674 0.61832 0.39081 0.0
H527 H 0.15327 0.54096 0.39039 0.0
C528 C 0.53179 0.05014 0.68765 0.0
C529 C 0.56499 0.01864 0.70054 0.0
C530 C 0.45628 0.92092 0.71248 0.0
C531 C 0.42318 0.95405 0.70096 0.0
N532 N 0.42884 0.055 0.68322 0.0
N533 N 0.56047 0.93066 0.72979 0.0
C534 C 0.46086 0.0202 0.69022 0.0
C535 C 0.5277 0.95631 0.7146 0.0
N536 N 0.56782 0.10806 0.67252 0.0
N537 N 0.42006 0.85434 0.71963 0.0
H538 H 0.61285 0.95377 0.73076 0.0
H539 H 0.53586 0.8893 0.7431 0.0
H540 H 0.36782 0.82568 0.71794 0.0
H541 H 0.44217 0.82571 0.72496 0.0
H542 H 0.54566 0.12905 0.66003 0.0
H543 H 0.62007 0.13292 0.6707 0.0
H544 H 0.45407 0.10586 0.678 0.0
H545 H 0.37692 0.03463 0.68527 0.0
C546 C 0.53144 0.5332 0.63252 0.0
C547 C 0.56662 0.50795 0.64833 0.0
C548 C 0.46065 0.40319 0.65696 0.0
C549 C 0.42487 0.43331 0.64586 0.0
N550 N 0.42449 0.52714 0.62307 0.0
N551 N 0.56512 0.41898 0.67633 0.0
C552 C 0.4597 0.49781 0.63303 0.0
C553 C 0.5314 0.44263 0.66054 0.0
N554 N 0.56647 0.59147 0.61755 0.0
N555 N 0.42648 0.33644 0.66387 0.0
H556 H 0.61719 0.44493 0.6789 0.0
H557 H 0.54122 0.37548 0.68847 0.0
H558 H 0.37451 0.30654 0.66102 0.0
H559 H 0.44992 0.3093 0.6696 0.0
H560 H 0.54402 0.6087 0.60324 0.0
H561 H 0.61887 0.62044 0.61788 0.0
H562 H 0.44688 0.57728 0.61691 0.0
H563 H 0.37211 0.50218 0.62225 0.0
C564 C 0.95587 0.53821 0.96862 0.0
C565 C 0.02639 0.57793 0.97201 0.0
C566 C 0.03741 0.47715 0.96966 0.0
C567 C 0.96666 0.43725 0.97147 0.0
N568 N 0.85678 0.42752 0.97246 0.0
N569 N 0.13582 0.58727 0.97596 0.0
C570 C 0.92517 0.46701 0.97026 0.0
C571 C 0.06783 0.54808 0.97204 0.0
N572 N 0.91867 0.56883 0.96395 0.0
N573 N 0.07512 0.44681 0.96575 0.0
H574 H 0.16006 0.63955 0.9774 0.0
H575 H 0.16786 0.56808 0.97947 0.0
H576 H 0.05338 0.3947 0.96389 0.0
H577 H 0.12664 0.473 0.96176 0.0
H578 H 0.86769 0.54292 0.9588 0.0
H579 H 0.94048 0.62106 0.96284 0.0
H580 H 0.82437 0.44652 0.97524 0.0
H581 H 0.83227 0.37512 0.97292 0.0
C582 C 0.45635 0.93393 0.32928 0.0
C583 C 0.52688 0.97057 0.32433 0.0
C584 C 0.52439 0.07569 0.32128 0.0
C585 C 0.45379 0.03909 0.32633 0.0
N586 N 0.35015 0.93354 0.32938 0.0
N587 N 0.62585 0.07214 0.3098 0.0
C588 C 0.419 0.96811 0.32859 0.0
C589 C 0.5602 0.04023 0.31839 0.0
N590 N 0.42551 0.86671 0.33532 0.0
N591 N 0.55777 0.1445 0.32077 0.0
H592 H 0.65353 0.04746 0.30799 0.0
H593 H 0.65127 0.12132 0.30231 0.0
H594 H 0.53349 0.17254 0.32222 0.0
H595 H 0.61 0.17427 0.32069 0.0
H596 H 0.3763 0.83873 0.34262 0.0
H597 H 0.45029 0.83905 0.3343 0.0
H598 H 0.32101 0.88137 0.32831 0.0
H599 H 0.32158 0.95746 0.32875 0.0
loop_
_geom_bond_atom_site_label_1
_geom_bond_atom_site_label_2
_geom_bond_distance
_geom_bond_site_symmetry_2
_ccdc_geom_bond_type
Zn0 O3 2.029 1_556 S
Zn0 O5 2.047 1_556 S
Zn0 O10 2.067 1_556 S
Zn1 O2 1.962 . S
Zn1 O4 1.986 . S
Zn1 O6 1.996 . S
Zn1 O9 1.943 . S
O2 Zn1 1.962 . S
O2 C7 1.254 . S
O3 Zn0 2.029 1_554 S
O3 C7 1.275 . S
O4 Zn1 1.986 . S
O4 C11 1.262 . S
O5 Zn0 2.047 1_554 S
O5 C13 1.268 . S
O6 Zn1 1.996 . S
O6 C13 1.257 . S
C7 O2 1.254 . S
C7 O3 1.275 . S
C8 O9 1.249 . S
C8 O10 1.270 . S
O9 Zn1 1.943 . S
O9 C8 1.249 . S
O10 Zn0 2.067 1_554 S
O10 C8 1.270 . S
C11 O4 1.262 . S
C11 O12 1.232 . S
O12 C11 1.232 . S
C13 O5 1.268 . S
C13 O6 1.257 . S
Zn14 O17 2.031 . S
Zn14 O19 2.049 . S
Zn14 O24 2.067 . S
Zn15 O16 1.962 . S
Zn15 O18 1.986 . S
Zn15 O20 1.996 . S
Zn15 O23 1.943 . S
O16 Zn15 1.962 . S
O16 C21 1.254 . S
O17 Zn14 2.031 . S
O17 C21 1.269 . S
O18 Zn15 1.986 . S
O18 C25 1.262 . S
O19 Zn14 2.049 . S
O19 C27 1.260 . S
O20 Zn15 1.996 . S
O20 C27 1.257 . S
C21 O16 1.254 . S
C21 O17 1.269 . S
C22 O23 1.249 . S
C22 O24 1.270 . S
O23 Zn15 1.943 . S
O23 C22 1.249 . S
O24 Zn14 2.067 . S
O24 C22 1.270 . S
C25 O18 1.262 . S
C25 O26 1.232 . S
O26 C25 1.232 . S
C27 O19 1.260 . S
C27 O20 1.257 . S
Zn28 O31 2.031 . S
Zn28 O33 2.049 . S
Zn28 O38 2.067 . S
Zn29 O30 1.962 . S
Zn29 O32 1.986 . S
Zn29 O34 1.996 . S
Zn29 O37 1.943 . S
O30 Zn29 1.962 . S
O30 C35 1.254 . S
O31 Zn28 2.031 . S
O31 C35 1.269 . S
O32 Zn29 1.986 . S
O32 C39 1.262 . S
O33 Zn28 2.049 . S
O33 C41 1.260 . S
O34 Zn29 1.996 . S
O34 C41 1.257 . S
C35 O30 1.254 . S
C35 O31 1.269 . S
C36 O37 1.249 . S
C36 O38 1.270 . S
O37 Zn29 1.943 . S
O37 C36 1.249 . S
O38 Zn28 2.067 . S
O38 C36 1.270 . S
C39 O32 1.262 . S
C39 O40 1.232 . S
O40 C39 1.232 . S
C41 O33 1.260 . S
C41 O34 1.257 . S
Zn42 O45 2.029 1_556 S
Zn42 O47 2.047 1_556 S
Zn42 O52 2.067 1_556 S
Zn43 O44 1.962 . S
Zn43 O46 1.986 . S
Zn43 O48 1.996 . S
Zn43 O51 1.943 . S
O44 Zn43 1.962 . S
O44 C49 1.254 . S
O45 Zn42 2.029 1_554 S
O45 C49 1.275 . S
O46 Zn43 1.986 . S
O46 C53 1.262 . S
O47 Zn42 2.047 1_554 S
O47 C55 1.268 . S
O48 Zn43 1.996 . S
O48 C55 1.257 . S
C49 O44 1.254 . S
C49 O45 1.275 . S
C50 O51 1.249 . S
C50 O52 1.270 . S
O51 Zn43 1.943 . S
O51 C50 1.249 . S
O52 Zn42 2.067 1_554 S
O52 C50 1.270 . S
C53 O46 1.262 . S
C53 O54 1.232 . S
O54 C53 1.232 . S
C55 O47 1.268 . S
C55 O48 1.257 . S
Zn56 O59 2.031 . S
Zn56 O61 2.049 . S
Zn56 O66 2.067 . S
Zn57 O58 1.962 . S
Zn57 O60 1.986 . S
Zn57 O62 1.996 . S
Zn57 O65 1.943 . S
O58 Zn57 1.962 . S
O58 C63 1.254 . S
O59 Zn56 2.031 . S
O59 C63 1.269 . S
O60 Zn57 1.986 . S
O60 C67 1.262 . S
O61 Zn56 2.049 . S
O61 C69 1.260 . S
O62 Zn57 1.996 . S
O62 C69 1.257 . S
C63 O58 1.254 . S
C63 O59 1.269 . S
C64 O65 1.249 . S
C64 O66 1.270 . S
O65 Zn57 1.943 . S
O65 C64 1.249 . S
O66 Zn56 2.067 . S
O66 C64 1.270 . S
C67 O60 1.262 . S
C67 O68 1.232 . S
O68 C67 1.232 . S
C69 O61 1.260 . S
C69 O62 1.257 . S
Zn70 O73 2.031 . S
Zn70 O75 2.049 . S
Zn70 O80 2.067 . S
Zn71 O72 1.962 . S
Zn71 O74 1.986 . S
Zn71 O76 1.996 . S
Zn71 O79 1.943 . S
O72 Zn71 1.962 . S
O72 C77 1.254 . S
O73 Zn70 2.031 . S
O73 C77 1.269 . S
O74 Zn71 1.986 . S
O74 C81 1.262 . S
O75 Zn70 2.049 . S
O75 C83 1.260 . S
O76 Zn71 1.996 . S
O76 C83 1.257 . S
C77 O72 1.254 . S
C77 O73 1.269 . S
C78 O79 1.249 . S
C78 O80 1.270 . S
O79 Zn71 1.943 . S
O79 C78 1.249 . S
O80 Zn70 2.067 . S
O80 C78 1.270 . S
C81 O74 1.262 . S
C81 O82 1.232 . S
O82 C81 1.232 . S
C83 O75 1.260 . S
C83 O76 1.257 . S
Zn84 O87 2.031 . S
Zn84 O89 2.049 . S
Zn84 O94 2.067 . S
Zn85 O86 1.962 . S
Zn85 O88 1.986 . S
Zn85 O90 1.996 . S
Zn85 O93 1.943 . S
O86 Zn85 1.962 . S
O86 C91 1.254 . S
O87 Zn84 2.031 . S
O87 C91 1.269 . S
O88 Zn85 1.986 . S
O88 C95 1.262 . S
O89 Zn84 2.049 . S
O89 C97 1.260 . S
O90 Zn85 1.996 . S
O90 C97 1.257 . S
C91 O86 1.254 . S
C91 O87 1.269 . S
C92 O93 1.249 . S
C92 O94 1.270 . S
O93 Zn85 1.943 . S
O93 C92 1.249 . S
O94 Zn84 2.067 . S
O94 C92 1.270 . S
C95 O88 1.262 . S
C95 O96 1.232 . S
O96 C95 1.232 . S
C97 O89 1.260 . S
C97 O90 1.257 . S
Zn98 O101 2.029 1_554 S
Zn98 O103 2.047 1_554 S
Zn98 O108 2.067 1_554 S
Zn99 O100 1.962 . S
Zn99 O102 1.986 . S
Zn99 O104 1.996 . S
Zn99 O107 1.943 . S
O100 Zn99 1.962 . S
O100 C105 1.254 . S
O101 Zn98 2.029 1_556 S
O101 C105 1.275 . S
O102 Zn99 1.986 . S
O102 C109 1.262 . S
O103 Zn98 2.047 1_556 S
O103 C111 1.268 . S
O104 Zn99 1.996 . S
O104 C111 1.257 . S
C105 O100 1.254 . S
C105 O101 1.275 . S
C106 O107 1.249 . S
C106 O108 1.270 . S
O107 Zn99 1.943 . S
O107 C106 1.249 . S
O108 Zn98 2.067 1_556 S
O108 C106 1.270 . S
C109 O102 1.262 . S
C109 O110 1.232 . S
O110 C109 1.232 . S
C111 O103 1.268 . S
C111 O104 1.257 . S
Zn112 O115 2.031 . S
Zn112 O117 2.049 . S
Zn112 O122 2.067 . S
Zn113 O114 1.962 . S
Zn113 O116 1.986 . S
Zn113 O118 1.996 . S
Zn113 O121 1.943 . S
O114 Zn113 1.962 . S
O114 C119 1.254 . S
O115 Zn112 2.031 . S
O115 C119 1.269 . S
O116 Zn113 1.986 . S
O116 C123 1.262 . S
O117 Zn112 2.049 . S
O117 C125 1.260 . S
O118 Zn113 1.996 . S
O118 C125 1.257 . S
C119 O114 1.254 . S
C119 O115 1.269 . S
C120 O121 1.249 . S
C120 O122 1.270 . S
O121 Zn113 1.943 . S
O121 C120 1.249 . S
O122 Zn112 2.067 . S
O122 C120 1.270 . S
C123 O116 1.262 . S
C123 O124 1.232 . S
O124 C123 1.232 . S
C125 O117 1.260 . S
C125 O118 1.257 . S
Zn126 O129 2.031 . S
Zn126 O131 2.049 . S
Zn126 O136 2.067 . S
Zn127 O128 1.962 . S
Zn127 O130 1.986 . S
Zn127 O132 1.996 . S
Zn127 O135 1.943 . S
O128 Zn127 1.962 . S
O128 C133 1.254 . S
O129 Zn126 2.031 . S
O129 C133 1.269 . S
O130 Zn127 1.986 . S
O130 C137 1.262 . S
O131 Zn126 2.049 . S
O131 C139 1.260 . S
O132 Zn127 1.996 . S
O132 C139 1.257 . S
C133 O128 1.254 . S
C133 O129 1.269 . S
C134 O135 1.249 . S
C134 O136 1.270 . S
O135 Zn127 1.943 . S
O135 C134 1.249 . S
O136 Zn126 2.067 . S
O136 C134 1.270 . S
C137 O130 1.262 . S
C137 O138 1.232 . S
O138 C137 1.232 . S
C139 O131 1.260 . S
C139 O132 1.257 . S
Zn140 O143 2.029 1_554 S
Zn140 O145 2.047 1_554 S
Zn140 O150 2.067 1_554 S
Zn141 O142 1.962 . S
Zn141 O144 1.986 . S
Zn141 O146 1.996 . S
Zn141 O149 1.943 . S
O142 Zn141 1.962 . S
O142 C147 1.254 . S
O143 Zn140 2.029 1_556 S
O143 C147 1.275 . S
O144 Zn141 1.986 . S
O144 C151 1.262 . S
O145 Zn140 2.047 1_556 S
O145 C153 1.268 . S
O146 Zn141 1.996 . S
O146 C153 1.257 . S
C147 O142 1.254 . S
C147 O143 1.275 . S
C148 O149 1.249 . S
C148 O150 1.270 . S
O149 Zn141 1.943 . S
O149 C148 1.249 . S
O150 Zn140 2.067 1_556 S
O150 C148 1.270 . S
C151 O144 1.262 . S
C151 O152 1.232 . S
O152 C151 1.232 . S
C153 O145 1.268 . S
C153 O146 1.257 . S
Zn154 O157 2.031 . S
Zn154 O159 2.049 . S
Zn154 O164 2.067 . S
Zn155 O156 1.962 . S
Zn155 O158 1.986 . S
Zn155 O160 1.996 . S
Zn155 O163 1.943 . S
O156 Zn155 1.962 . S
O156 C161 1.254 . S
O157 Zn154 2.031 . S
O157 C161 1.269 . S
O158 Zn155 1.986 . S
O158 C165 1.262 . S
O159 Zn154 2.049 . S
O159 C167 1.260 . S
O160 Zn155 1.996 . S
O160 C167 1.257 . S
C161 O156 1.254 . S
C161 O157 1.269 . S
C162 O163 1.249 . S
C162 O164 1.270 . S
O163 Zn155 1.943 . S
O163 C162 1.249 . S
O164 Zn154 2.067 . S
O164 C162 1.270 . S
C165 O158 1.262 . S
C165 O166 1.232 . S
O166 C165 1.232 . S
C167 O159 1.260 . S
C167 O160 1.257 . S
C168 C169 1.363 1_554 S
C168 C174 1.379 1_565 S
C168 N176 1.356 . S
C169 C168 1.363 1_556 S
C169 C175 1.363 . S
C170 C171 1.363 1_556 S
C170 C175 1.379 1_545 S
C170 N177 1.356 . S
C171 C170 1.363 1_554 S
C171 C174 1.363 . S
N172 C174 1.356 . S
N172 H184 0.984 . S
N172 H185 0.985 . S
N173 C175 1.356 . S
N173 H178 0.984 . S
N173 H179 0.985 . S
C174 C168 1.379 1_545 S
C174 C171 1.363 . S
C174 N172 1.356 . S
C175 C169 1.363 . S
C175 C170 1.379 1_565 S
C175 N173 1.356 . S
N176 C168 1.356 . S
N176 H182 0.984 . S
N176 H183 0.984 . S
N177 C170 1.356 . S
N177 H180 0.984 . S
N177 H181 0.985 . S
H178 N173 0.984 . S
H179 N173 0.985 . S
H180 N177 0.984 . S
H181 N177 0.985 . S
H182 N176 0.984 . S
H183 N176 0.984 . S
H184 N172 0.984 . S
H185 N172 0.985 . S
C186 C187 1.363 . S
C186 C192 1.379 . S
C186 N194 1.356 . S
C187 C186 1.363 . S
C187 C193 1.363 . S
C188 C189 1.363 . S
C188 C193 1.379 . S
C188 N195 1.356 . S
C189 C188 1.363 . S
C189 C192 1.363 . S
N190 C192 1.356 . S
N190 H202 0.984 . S
N190 H203 0.985 . S
N191 C193 1.356 . S
N191 H196 0.984 . S
N191 H197 0.985 . S
C192 C186 1.379 . S
C192 C189 1.363 . S
C192 N190 1.356 . S
C193 C187 1.363 . S
C193 C188 1.379 . S
C193 N191 1.356 . S
N194 C186 1.356 . S
N194 H200 0.984 . S
N194 H201 0.984 . S
N195 C188 1.356 . S
N195 H198 0.984 . S
N195 H199 0.985 . S
H196 N191 0.984 . S
H197 N191 0.985 . S
H198 N195 0.984 . S
H199 N195 0.985 . S
H200 N194 0.984 . S
H201 N194 0.984 . S
H202 N190 0.984 . S
H203 N190 0.985 . S
C204 C205 1.363 . S
C204 C210 1.379 1_655 S
C204 N212 1.356 . S
C205 C204 1.363 . S
C205 C211 1.363 . S
C206 C207 1.363 . S
C206 C211 1.379 1_455 S
C206 N213 1.356 . S
C207 C206 1.363 . S
C207 C210 1.363 . S
N208 C210 1.356 . S
N208 H220 0.984 . S
N208 H221 0.985 . S
N209 C211 1.356 . S
N209 H214 0.984 . S
N209 H215 0.985 . S
C210 C204 1.379 1_455 S
C210 C207 1.363 . S
C210 N208 1.356 . S
C211 C205 1.363 . S
C211 C206 1.379 1_655 S
C211 N209 1.356 . S
N212 C204 1.356 . S
N212 H218 0.984 . S
N212 H219 0.984 . S
N213 C206 1.356 . S
N213 H216 0.984 . S
N213 H217 0.985 . S
H214 N209 0.984 . S
H215 N209 0.985 . S
H216 N213 0.984 . S
H217 N213 0.985 . S
H218 N212 0.984 . S
H219 N212 0.984 . S
H220 N208 0.984 . S
H221 N208 0.985 . S
C222 C223 1.363 . S
C222 C228 1.379 1_565 S
C222 N230 1.356 . S
C223 C222 1.363 . S
C223 C229 1.363 1_554 S
C224 C225 1.363 . S
C224 C229 1.379 1_545 S
C224 N231 1.356 . S
C225 C224 1.363 . S
C225 C228 1.363 1_556 S
N226 C228 1.356 . S
N226 H238 0.984 . S
N226 H239 0.985 . S
N227 C229 1.356 . S
N227 H232 0.984 . S
N227 H233 0.985 . S
C228 C222 1.379 1_545 S
C228 C225 1.363 1_554 S
C228 N226 1.356 . S
C229 C223 1.363 1_556 S
C229 C224 1.379 1_565 S
C229 N227 1.356 . S
N230 C222 1.356 . S
N230 H236 0.984 . S
N230 H237 0.984 . S
N231 C224 1.356 . S
N231 H234 0.984 . S
N231 H235 0.985 . S
H232 N227 0.984 . S
H233 N227 0.985 . S
H234 N231 0.984 . S
H235 N231 0.985 . S
H236 N230 0.984 . S
H237 N230 0.984 . S
H238 N226 0.984 . S
H239 N226 0.985 . S
C240 C241 1.363 . S
C240 C246 1.379 . S
C240 N248 1.356 . S
C241 C240 1.363 . S
C241 C247 1.363 . S
C242 C243 1.363 . S
C242 C247 1.379 . S
C242 N249 1.356 . S
C243 C242 1.363 . S
C243 C246 1.363 . S
N244 C246 1.356 . S
N244 H256 0.984 . S
N244 H257 0.985 . S
N245 C247 1.356 . S
N245 H250 0.984 . S
N245 H251 0.985 . S
C246 C240 1.379 . S
C246 C243 1.363 . S
C246 N244 1.356 . S
C247 C241 1.363 . S
C247 C242 1.379 . S
C247 N245 1.356 . S
N248 C240 1.356 . S
N248 H254 0.984 . S
N248 H255 0.984 . S
N249 C242 1.356 . S
N249 H252 0.984 . S
N249 H253 0.985 . S
H250 N245 0.984 . S
H251 N245 0.985 . S
H252 N249 0.984 . S
H253 N249 0.985 . S
H254 N248 0.984 . S
H255 N248 0.984 . S
H256 N244 0.984 . S
H257 N244 0.985 . S
C258 C259 1.363 . S
C258 C264 1.379 1_655 S
C258 N266 1.356 . S
C259 C258 1.363 . S
C259 C265 1.363 . S
C260 C261 1.363 . S
C260 C265 1.379 1_455 S
C260 N267 1.356 . S
C261 C260 1.363 . S
C261 C264 1.363 . S
N262 C264 1.356 . S
N262 H274 0.984 . S
N262 H275 0.985 . S
N263 C265 1.356 . S
N263 H268 0.984 . S
N263 H269 0.985 . S
C264 C258 1.379 1_455 S
C264 C261 1.363 . S
C264 N262 1.356 . S
C265 C259 1.363 . S
C265 C260 1.379 1_655 S
C265 N263 1.356 . S
N266 C258 1.356 . S
N266 H272 0.984 . S
N266 H273 0.984 . S
N267 C260 1.356 . S
N267 H270 0.984 . S
N267 H271 0.985 . S
H268 N263 0.984 . S
H269 N263 0.985 . S
H270 N267 0.984 . S
H271 N267 0.985 . S
H272 N266 0.984 . S
H273 N266 0.984 . S
H274 N262 0.984 . S
H275 N262 0.985 . S
C276 C277 1.363 1_554 S
C276 C282 1.379 . S
C276 N284 1.356 . S
C277 C276 1.363 1_556 S
C277 C283 1.363 . S
C278 C279 1.363 1_556 S
C278 C283 1.379 . S
C278 N285 1.356 . S
C279 C278 1.363 1_554 S
C279 C282 1.363 . S
N280 C282 1.356 . S
N280 H292 0.984 . S
N280 H293 0.985 . S
N281 C283 1.356 . S
N281 H286 0.984 . S
N281 H287 0.985 . S
C282 C276 1.379 . S
C282 C279 1.363 . S
C282 N280 1.356 . S
C283 C277 1.363 . S
C283 C278 1.379 . S
C283 N281 1.356 . S
N284 C276 1.356 . S
N284 H290 0.984 . S
N284 H291 0.984 1_554 S
N285 C278 1.356 . S
N285 H288 0.984 1_556 S
N285 H289 0.985 . S
H286 N281 0.984 . S
H287 N281 0.985 . S
H288 N285 0.984 1_554 S
H289 N285 0.985 . S
H290 N284 0.984 . S
H291 N284 0.984 1_556 S
H292 N280 0.984 . S
H293 N280 0.985 . S
C294 C295 1.363 . S
C294 C300 1.379 . S
C294 N302 1.356 . S
C295 C294 1.363 . S
C295 C301 1.363 . S
C296 C297 1.363 . S
C296 C301 1.379 . S
C296 N303 1.356 . S
C297 C296 1.363 . S
C297 C300 1.363 . S
N298 C300 1.356 . S
N298 H310 0.984 . S
N298 H311 0.985 . S
N299 C301 1.356 . S
N299 H304 0.984 . S
N299 H305 0.985 . S
C300 C294 1.379 . S
C300 C297 1.363 . S
C300 N298 1.356 . S
C301 C295 1.363 . S
C301 C296 1.379 . S
C301 N299 1.356 . S
N302 C294 1.356 . S
N302 H308 0.984 . S
N302 H309 0.984 . S
N303 C296 1.356 . S
N303 H306 0.984 . S
N303 H307 0.985 . S
H304 N299 0.984 . S
H305 N299 0.985 . S
H306 N303 0.984 . S
H307 N303 0.985 . S
H308 N302 0.984 . S
H309 N302 0.984 . S
H310 N298 0.984 . S
H311 N298 0.985 . S
C312 C313 1.363 . S
C312 C318 1.379 . S
C312 N320 1.356 . S
C313 C312 1.363 . S
C313 C319 1.363 . S
C314 C315 1.363 . S
C314 C319 1.379 . S
C314 N321 1.356 . S
C315 C314 1.363 . S
C315 C318 1.363 . S
N316 C318 1.356 . S
N316 H328 0.984 . S
N316 H329 0.985 . S
N317 C319 1.356 . S
N317 H322 0.984 . S
N317 H323 0.985 . S
C318 C312 1.379 . S
C318 C315 1.363 . S
C318 N316 1.356 . S
C319 C313 1.363 . S
C319 C314 1.379 . S
C319 N317 1.356 . S
N320 C312 1.356 . S
N320 H326 0.984 . S
N320 H327 0.984 . S
N321 C314 1.356 . S
N321 H324 0.984 . S
N321 H325 0.985 . S
H322 N317 0.984 . S
H323 N317 0.985 . S
H324 N321 0.984 . S
H325 N321 0.985 . S
H326 N320 0.984 . S
H327 N320 0.984 . S
H328 N316 0.984 . S
H329 N316 0.985 . S
C330 C331 1.363 1_554 S
C330 C336 1.379 . S
C330 N338 1.356 . S
C331 C330 1.363 1_556 S
C331 C337 1.363 . S
C332 C333 1.363 1_556 S
C332 C337 1.379 . S
C332 N339 1.356 . S
C333 C332 1.363 1_554 S
C333 C336 1.363 . S
N334 C336 1.356 . S
N334 H346 0.984 . S
N334 H347 0.985 . S
N335 C337 1.356 . S
N335 H340 0.984 . S
N335 H341 0.985 . S
C336 C330 1.379 . S
C336 C333 1.363 . S
C336 N334 1.356 . S
C337 C331 1.363 . S
C337 C332 1.379 . S
C337 N335 1.356 . S
N338 C330 1.356 . S
N338 H344 0.984 . S
N338 H345 0.984 1_554 S
N339 C332 1.356 . S
N339 H342 0.984 1_556 S
N339 H343 0.985 . S
H340 N335 0.984 . S
H341 N335 0.985 . S
H342 N339 0.984 1_554 S
H343 N339 0.985 . S
H344 N338 0.984 . S
H345 N338 0.984 1_556 S
H346 N334 0.984 . S
H347 N334 0.985 . S
C348 C349 1.363 . S
C348 C354 1.379 . S
C348 N356 1.356 . S
C349 C348 1.363 . S
C349 C355 1.363 . S
C350 C351 1.363 . S
C350 C355 1.379 . S
C350 N357 1.356 . S
C351 C350 1.363 . S
C351 C354 1.363 . S
N352 C354 1.356 . S
N352 H364 0.984 . S
N352 H365 0.985 . S
N353 C355 1.356 . S
N353 H358 0.984 . S
N353 H359 0.985 . S
C354 C348 1.379 . S
C354 C351 1.363 . S
C354 N352 1.356 . S
C355 C349 1.363 . S
C355 C350 1.379 . S
C355 N353 1.356 . S
N356 C348 1.356 . S
N356 H362 0.984 . S
N356 H363 0.984 . S
N357 C350 1.356 . S
N357 H360 0.984 . S
N357 H361 0.985 . S
H358 N353 0.984 . S
H359 N353 0.985 . S
H360 N357 0.984 . S
H361 N357 0.985 . S
H362 N356 0.984 . S
H363 N356 0.984 . S
H364 N352 0.984 . S
H365 N352 0.985 . S
C366 C367 1.363 . S
C366 C372 1.379 . S
C366 N374 1.356 . S
C367 C366 1.363 . S
C367 C373 1.363 . S
C368 C369 1.363 . S
C368 C373 1.379 . S
C368 N375 1.356 . S
C369 C368 1.363 . S
C369 C372 1.363 . S
N370 C372 1.356 . S
N370 H382 0.984 . S
N370 H383 0.985 . S
N371 C373 1.356 . S
N371 H376 0.984 . S
N371 H377 0.985 . S
C372 C366 1.379 . S
C372 C369 1.363 . S
C372 N370 1.356 . S
C373 C367 1.363 . S
C373 C368 1.379 . S
C373 N371 1.356 . S
N374 C366 1.356 . S
N374 H380 0.984 . S
N374 H381 0.984 . S
N375 C368 1.356 . S
N375 H378 0.984 . S
N375 H379 0.985 . S
H376 N371 0.984 . S
H377 N371 0.985 . S
H378 N375 0.984 . S
H379 N375 0.985 . S
H380 N374 0.984 . S
H381 N374 0.984 . S
H382 N370 0.984 . S
H383 N370 0.985 . S
C384 C385 1.363 . S
C384 C390 1.379 . S
C384 N392 1.356 . S
C385 C384 1.363 . S
C385 C391 1.363 . S
C386 C387 1.363 . S
C386 C391 1.379 . S
C386 N393 1.356 . S
C387 C386 1.363 . S
C387 C390 1.363 . S
N388 C390 1.356 . S
N388 H400 0.984 . S
N388 H401 0.985 . S
N389 C391 1.356 . S
N389 H394 0.984 . S
N389 H395 0.985 . S
C390 C384 1.379 . S
C390 C387 1.363 . S
C390 N388 1.356 . S
C391 C385 1.363 . S
C391 C386 1.379 . S
C391 N389 1.356 . S
N392 C384 1.356 . S
N392 H398 0.984 . S
N392 H399 0.984 . S
N393 C386 1.356 . S
N393 H396 0.984 . S
N393 H397 0.985 . S
H394 N389 0.984 . S
H395 N389 0.985 . S
H396 N393 0.984 . S
H397 N393 0.985 . S
H398 N392 0.984 . S
H399 N392 0.984 . S
H400 N388 0.984 . S
H401 N388 0.985 . S
C402 C403 1.363 . S
C402 C408 1.379 . S
C402 N410 1.356 . S
C403 C402 1.363 . S
C403 C409 1.363 . S
C404 C405 1.363 . S
C404 C409 1.379 . S
C404 N411 1.356 . S
C405 C404 1.363 . S
C405 C408 1.363 . S
N406 C408 1.356 . S
N406 H418 0.984 . S
N406 H419 0.985 . S
N407 C409 1.356 . S
N407 H412 0.984 . S
N407 H413 0.985 . S
C408 C402 1.379 . S
C408 C405 1.363 . S
C408 N406 1.356 . S
C409 C403 1.363 . S
C409 C404 1.379 . S
C409 N407 1.356 . S
N410 C402 1.356 . S
N410 H416 0.984 . S
N410 H417 0.984 . S
N411 C404 1.356 . S
N411 H414 0.984 . S
N411 H415 0.985 . S
H412 N407 0.984 . S
H413 N407 0.985 . S
H414 N411 0.984 . S
H415 N411 0.985 . S
H416 N410 0.984 . S
H417 N410 0.984 . S
H418 N406 0.984 . S
H419 N406 0.985 . S
C420 C421 1.363 . S
C420 C426 1.379 . S
C420 N428 1.356 . S
C421 C420 1.363 . S
C421 C427 1.363 . S
C422 C423 1.363 . S
C422 C427 1.379 . S
C422 N429 1.356 . S
C423 C422 1.363 . S
C423 C426 1.363 . S
N424 C426 1.356 . S
N424 H436 0.984 . S
N424 H437 0.985 . S
N425 C427 1.356 . S
N425 H430 0.984 . S
N425 H431 0.985 . S
C426 C420 1.379 . S
C426 C423 1.363 . S
C426 N424 1.356 . S
C427 C421 1.363 . S
C427 C422 1.379 . S
C427 N425 1.356 . S
N428 C420 1.356 . S
N428 H434 0.984 . S
N428 H435 0.984 . S
N429 C422 1.356 . S
N429 H432 0.984 . S
N429 H433 0.985 . S
H430 N425 0.984 . S
H431 N425 0.985 . S
H432 N429 0.984 . S
H433 N429 0.985 . S
H434 N428 0.984 . S
H435 N428 0.984 . S
H436 N424 0.984 . S
H437 N424 0.985 . S
C438 C439 1.363 . S
C438 C444 1.379 . S
C438 N446 1.356 . S
C439 C438 1.363 . S
C439 C445 1.363 . S
C440 C441 1.363 . S
C440 C445 1.379 . S
C440 N447 1.356 . S
C441 C440 1.363 . S
C441 C444 1.363 . S
N442 C444 1.356 . S
N442 H454 0.984 . S
N442 H455 0.985 . S
N443 C445 1.356 . S
N443 H448 0.984 . S
N443 H449 0.985 . S
C444 C438 1.379 . S
C444 C441 1.363 . S
C444 N442 1.356 . S
C445 C439 1.363 . S
C445 C440 1.379 . S
C445 N443 1.356 . S
N446 C438 1.356 . S
N446 H452 0.984 . S
N446 H453 0.984 . S
N447 C440 1.356 . S
N447 H450 0.984 . S
N447 H451 0.985 . S
H448 N443 0.984 . S
H449 N443 0.985 . S
H450 N447 0.984 . S
H451 N447 0.985 . S
H452 N446 0.984 . S
H453 N446 0.984 . S
H454 N442 0.984 . S
H455 N442 0.985 . S
C456 C457 1.363 . S
C456 C462 1.379 . S
C456 N464 1.356 . S
C457 C456 1.363 . S
C457 C463 1.363 . S
C458 C459 1.363 . S
C458 C463 1.379 . S
C458 N465 1.356 . S
C459 C458 1.363 . S
C459 C462 1.363 . S
N460 C462 1.356 . S
N460 H472 0.984 . S
N460 H473 0.985 . S
N461 C463 1.356 . S
N461 H466 0.984 . S
N461 H467 0.985 . S
C462 C456 1.379 . S
C462 C459 1.363 . S
C462 N460 1.356 . S
C463 C457 1.363 . S
C463 C458 1.379 . S
C463 N461 1.356 . S
N464 C456 1.356 . S
N464 H470 0.984 . S
N464 H471 0.984 . S
N465 C458 1.356 . S
N465 H468 0.984 . S
N465 H469 0.985 . S
H466 N461 0.984 . S
H467 N461 0.985 . S
H468 N465 0.984 . S
H469 N465 0.985 . S
H470 N464 0.984 . S
H471 N464 0.984 . S
H472 N460 0.984 . S
H473 N460 0.985 . S
C474 C475 1.363 . S
C474 C480 1.379 . S
C474 N482 1.356 . S
C475 C474 1.363 . S
C475 C481 1.363 . S
C476 C477 1.363 . S
C476 C481 1.379 . S
C476 N483 1.356 . S
C477 C476 1.363 . S
C477 C480 1.363 . S
N478 C480 1.356 . S
N478 H490 0.984 . S
N478 H491 0.985 . S
N479 C481 1.356 . S
N479 H484 0.984 . S
N479 H485 0.985 . S
C480 C474 1.379 . S
C480 C477 1.363 . S
C480 N478 1.356 . S
C481 C475 1.363 . S
C481 C476 1.379 . S
C481 N479 1.356 . S
N482 C474 1.356 . S
N482 H488 0.984 . S
N482 H489 0.984 . S
N483 C476 1.356 . S
N483 H486 0.984 . S
N483 H487 0.985 . S
H484 N479 0.984 . S
H485 N479 0.985 . S
H486 N483 0.984 . S
H487 N483 0.985 . S
H488 N482 0.984 . S
H489 N482 0.984 . S
H490 N478 0.984 . S
H491 N478 0.985 . S
C492 C493 1.363 . S
C492 C498 1.379 . S
C492 N500 1.356 1_554 S
C493 C492 1.363 . S
C493 C499 1.363 . S
C494 C495 1.363 . S
C494 C499 1.379 . S
C494 N501 1.356 . S
C495 C494 1.363 . S
C495 C498 1.363 . S
N496 C498 1.356 1_556 S
N496 H508 0.984 . S
N496 H509 0.985 1_556 S
N497 C499 1.356 . S
N497 H502 0.984 . S
N497 H503 0.985 . S
C498 C492 1.379 . S
C498 C495 1.363 . S
C498 N496 1.356 1_554 S
C499 C493 1.363 . S
C499 C494 1.379 . S
C499 N497 1.356 . S
N500 C492 1.356 1_556 S
N500 H506 0.984 . S
N500 H507 0.984 1_556 S
N501 C494 1.356 . S
N501 H504 0.984 . S
N501 H505 0.985 . S
H502 N497 0.984 . S
H503 N497 0.985 . S
H504 N501 0.984 . S
H505 N501 0.985 . S
H506 N500 0.984 . S
H507 N500 0.984 1_554 S
H508 N496 0.984 . S
H509 N496 0.985 1_554 S
C510 C511 1.363 1_455 S
C510 C516 1.379 . S
C510 N518 1.356 . S
C511 C510 1.363 1_655 S
C511 C517 1.363 . S
C512 C513 1.363 1_655 S
C512 C517 1.379 . S
C512 N519 1.356 . S
C513 C512 1.363 1_455 S
C513 C516 1.363 . S
N514 C516 1.356 . S
N514 H526 0.984 . S
N514 H527 0.985 . S
N515 C517 1.356 . S
N515 H520 0.984 . S
N515 H521 0.985 . S
C516 C510 1.379 . S
C516 C513 1.363 . S
C516 N514 1.356 . S
C517 C511 1.363 . S
C517 C512 1.379 . S
C517 N515 1.356 . S
N518 C510 1.356 . S
N518 H524 0.984 . S
N518 H525 0.984 . S
N519 C512 1.356 . S
N519 H522 0.984 . S
N519 H523 0.985 . S
H520 N515 0.984 . S
H521 N515 0.985 . S
H522 N519 0.984 . S
H523 N519 0.985 . S
H524 N518 0.984 . S
H525 N518 0.984 . S
H526 N514 0.984 . S
H527 N514 0.985 . S
C528 C529 1.363 . S
C528 C534 1.379 . S
C528 N536 1.356 . S
C529 C528 1.363 . S
C529 C535 1.363 1_545 S
C530 C531 1.363 . S
C530 C535 1.379 . S
C530 N537 1.356 . S
C531 C530 1.363 . S
C531 C534 1.363 1_565 S
N532 C534 1.356 . S
N532 H544 0.984 . S
N532 H545 0.985 . S
N533 C535 1.356 . S
N533 H538 0.984 . S
N533 H539 0.985 . S
C534 C528 1.379 . S
C534 C531 1.363 1_545 S
C534 N532 1.356 . S
C535 C529 1.363 1_565 S
C535 C530 1.379 . S
C535 N533 1.356 . S
N536 C528 1.356 . S
N536 H542 0.984 . S
N536 H543 0.984 . S
N537 C530 1.356 . S
N537 H540 0.984 . S
N537 H541 0.985 . S
H538 N533 0.984 . S
H539 N533 0.985 . S
H540 N537 0.984 . S
H541 N537 0.985 . S
H542 N536 0.984 . S
H543 N536 0.984 . S
H544 N532 0.984 . S
H545 N532 0.985 . S
C546 C547 1.363 . S
C546 C552 1.379 . S
C546 N554 1.356 . S
C547 C546 1.363 . S
C547 C553 1.363 . S
C548 C549 1.363 . S
C548 C553 1.379 . S
C548 N555 1.356 . S
C549 C548 1.363 . S
C549 C552 1.363 . S
N550 C552 1.356 . S
N550 H562 0.984 . S
N550 H563 0.985 . S
N551 C553 1.356 . S
N551 H556 0.984 . S
N551 H557 0.985 . S
C552 C546 1.379 . S
C552 C549 1.363 . S
C552 N550 1.356 . S
C553 C547 1.363 . S
C553 C548 1.379 . S
C553 N551 1.356 . S
N554 C546 1.356 . S
N554 H560 0.984 . S
N554 H561 0.984 . S
N555 C548 1.356 . S
N555 H558 0.984 . S
N555 H559 0.985 . S
H556 N551 0.984 . S
H557 N551 0.985 . S
H558 N555 0.984 . S
H559 N555 0.985 . S
H560 N554 0.984 . S
H561 N554 0.984 . S
H562 N550 0.984 . S
H563 N550 0.985 . S
C564 C565 1.363 1_655 S
C564 C570 1.379 . S
C564 N572 1.356 . S
C565 C564 1.363 1_455 S
C565 C571 1.363 . S
C566 C567 1.363 1_455 S
C566 C571 1.379 . S
C566 N573 1.356 1_556 S
C567 C566 1.363 1_655 S
C567 C570 1.363 . S
N568 C570 1.356 . S
N568 H580 0.984 . S
N568 H581 0.985 . S
N569 C571 1.356 1_554 S
N569 H574 0.984 1_554 S
N569 H575 0.985 . S
C570 C564 1.379 . S
C570 C567 1.363 . S
C570 N568 1.356 . S
C571 C565 1.363 . S
C571 C566 1.379 . S
C571 N569 1.356 1_556 S
N572 C564 1.356 . S
N572 H578 0.984 . S
N572 H579 0.984 . S
N573 C566 1.356 1_554 S
N573 H576 0.984 1_554 S
N573 H577 0.985 . S
H574 N569 0.984 1_556 S
H575 N569 0.985 . S
H576 N573 0.984 1_556 S
H577 N573 0.985 . S
H578 N572 0.984 . S
H579 N572 0.984 . S
H580 N568 0.984 . S
H581 N568 0.985 . S
C582 C583 1.363 . S
C582 C588 1.379 . S
C582 N590 1.356 . S
C583 C582 1.363 . S
C583 C589 1.363 1_565 S
C584 C585 1.363 . S
C584 C589 1.379 . S
C584 N591 1.356 . S
C585 C584 1.363 . S
C585 C588 1.363 1_545 S
N586 C588 1.356 . S
N586 H598 0.984 . S
N586 H599 0.985 . S
N587 C589 1.356 . S
N587 H592 0.984 . S
N587 H593 0.985 . S
C588 C582 1.379 . S
C588 C585 1.363 1_565 S
C588 N586 1.356 . S
C589 C583 1.363 1_545 S
C589 C584 1.379 . S
C589 N587 1.356 . S
N590 C582 1.356 . S
N590 H596 0.984 . S
N590 H597 0.984 . S
N591 C584 1.356 . S
N591 H594 0.984 . S
N591 H595 0.985 . S
H592 N587 0.984 . S
H593 N587 0.985 . S
H594 N591 0.984 . S
H595 N591 0.985 . S
H596 N590 0.984 . S
H597 N590 0.984 . S
H598 N586 0.984 . S
H599 N586 0.985 . S
C169 C105 1.417 . S
C171 C7 1.417 . S
C187 C21 1.417 . S
C189 C119 1.417 . S
C205 C35 1.417 . S
C207 C133 1.417 . S
C223 C49 1.417 . S
C225 C147 1.417 . S
C241 C161 1.417 . S
C243 C63 1.417 . S
C259 C91 1.417 . S
C261 C77 1.417 . S
C277 C148 1.357 . S
C279 C8 1.357 . S
C295 C22 1.357 . S
C297 C162 1.357 . S
C313 C36 1.357 . S
C315 C92 1.357 . S
C331 C106 1.357 . S
C333 C50 1.357 . S
C349 C120 1.357 . S
C351 C64 1.357 . S
C367 C134 1.357 . S
C369 C78 1.357 . S
C385 C11 1.561 . S
C387 C123 1.561 . S
C403 C25 1.561 . S
C405 C137 1.561 . S
C421 C151 1.561 . S
C423 C39 1.561 . S
C439 C53 1.561 . S
C441 C165 1.561 . S
C457 C95 1.561 . S
C459 C67 1.561 . S
C475 C109 1.561 . S
C477 C81 1.561 . S
C493 C55 1.395 . S
C495 C13 1.395 . S
C511 C69 1.395 . S
C513 C27 1.395 . S
C529 C41 1.395 . S
C531 C83 1.395 . S
C547 C97 1.395 . S
C549 C139 1.395 . S
C565 C111 1.395 . S
C567 C153 1.395 . S
C583 C167 1.395 . S
C585 C125 1.395 . S
