# Generated by pormake.
# Topology uml, (4)-cn, num edge types: 1
# Building blocks:
#     Node 0, Type 0, BuildingBlock: NAWXER_clean_sbu_0, # of connection points: 4
#     Node 1, Type 0, BuildingBlock: NAWXER_clean_sbu_0, # of connection points: 4
#     Node 2, Type 0, BuildingBlock: NAWXER_clean_sbu_0, # of connection points: 4
#     Node 3, Type 0, BuildingBlock: NAWXER_clean_sbu_0, # of connection points: 4
#     Node 4, Type 0, BuildingBlock: NAWXER_clean_sbu_0, # of connection points: 4
#     Node 5, Type 0, BuildingBlock: NAWXER_clean_sbu_0, # of connection points: 4
#     Node 6, Type 0, BuildingBlock: NAWXER_clean_sbu_0, # of connection points: 4
#     Node 7, Type 0, BuildingBlock: NAWXER_clean_sbu_0, # of connection points: 4
#     Node 8, Type 0, BuildingBlock: NAWXER_clean_sbu_0, # of connection points: 4
#     Node 9, Type 0, BuildingBlock: NAWXER_clean_sbu_0, # of connection points: 4
#     Node 10, Type 0, BuildingBlock: NAWXER_clean_sbu_0, # of connection points: 4
#     Node 11, Type 0, BuildingBlock: NAWXER_clean_sbu_0, # of connection points: 4
#     Node 12, Type 0, BuildingBlock: NAWXER_clean_sbu_0, # of connection points: 4
#     Node 13, Type 0, BuildingBlock: NAWXER_clean_sbu_0, # of connection points: 4
#     Node 14, Type 0, BuildingBlock: NAWXER_clean_sbu_0, # of connection points: 4
#     Node 15, Type 0, BuildingBlock: NAWXER_clean_sbu_0, # of connection points: 4
#     Node 16, Type 0, BuildingBlock: NAWXER_clean_sbu_0, # of connection points: 4
#     Node 17, Type 0, BuildingBlock: NAWXER_clean_sbu_0, # of connection points: 4
#     Node 18, Type 0, BuildingBlock: NAWXER_clean_sbu_0, # of connection points: 4
#     Node 19, Type 0, BuildingBlock: NAWXER_clean_sbu_0, # of connection points: 4
#     Node 20, Type 0, BuildingBlock: NAWXER_clean_sbu_0, # of connection points: 4
#     Node 21, Type 0, BuildingBlock: NAWXER_clean_sbu_0, # of connection points: 4
#     Node 22, Type 0, BuildingBlock: NAWXER_clean_sbu_0, # of connection points: 4
#     Node 23, Type 0, BuildingBlock: NAWXER_clean_sbu_0, # of connection points: 4
#     Node 24, Type 0, BuildingBlock: NAWXER_clean_sbu_0, # of connection points: 4
#     Node 25, Type 0, BuildingBlock: NAWXER_clean_sbu_0, # of connection points: 4
#     Node 26, Type 0, BuildingBlock: NAWXER_clean_sbu_0, # of connection points: 4
#     Node 27, Type 0, BuildingBlock: NAWXER_clean_sbu_0, # of connection points: 4
#     Node 28, Type 0, BuildingBlock: NAWXER_clean_sbu_0, # of connection points: 4
#     Node 29, Type 0, BuildingBlock: NAWXER_clean_sbu_0, # of connection points: 4
#     Node 30, Type 0, BuildingBlock: NAWXER_clean_sbu_0, # of connection points: 4
#     Node 31, Type 0, BuildingBlock: NAWXER_clean_sbu_0, # of connection points: 4
#     Node 32, Type 0, BuildingBlock: NAWXER_clean_sbu_0, # of connection points: 4
#     Node 33, Type 0, BuildingBlock: NAWXER_clean_sbu_0, # of connection points: 4
#     Node 34, Type 0, BuildingBlock: NAWXER_clean_sbu_0, # of connection points: 4
#     Node 35, Type 0, BuildingBlock: NAWXER_clean_sbu_0, # of connection points: 4
#     Edge 36, Type (0, 0), BuildingBlock: XIVTED_clean_linker_0, # of connection points: 2
#     Edge 37, Type (0, 0), BuildingBlock: XIVTED_clean_linker_0, # of connection points: 2
#     Edge 38, Type (0, 0), BuildingBlock: XIVTED_clean_linker_0, # of connection points: 2
#     Edge 39, Type (0, 0), BuildingBlock: XIVTED_clean_linker_0, # of connection points: 2
#     Edge 40, Type (0, 0), BuildingBlock: XIVTED_clean_linker_0, # of connection points: 2
#     Edge 41, Type (0, 0), BuildingBlock: XIVTED_clean_linker_0, # of connection points: 2
#     Edge 42, Type (0, 0), BuildingBlock: XIVTED_clean_linker_0, # of connection points: 2
#     Edge 43, Type (0, 0), BuildingBlock: XIVTED_clean_linker_0, # of connection points: 2
#     Edge 44, Type (0, 0), BuildingBlock: XIVTED_clean_linker_0, # of connection points: 2
#     Edge 45, Type (0, 0), BuildingBlock: XIVTED_clean_linker_0, # of connection points: 2
#     Edge 46, Type (0, 0), BuildingBlock: XIVTED_clean_linker_0, # of connection points: 2
#     Edge 47, Type (0, 0), BuildingBlock: XIVTED_clean_linker_0, # of connection points: 2
#     Edge 48, Type (0, 0), BuildingBlock: XIVTED_clean_linker_0, # of connection points: 2
#     Edge 49, Type (0, 0), BuildingBlock: XIVTED_clean_linker_0, # of connection points: 2
#     Edge 50, Type (0, 0), BuildingBlock: XIVTED_clean_linker_0, # of connection points: 2
#     Edge 51, Type (0, 0), BuildingBlock: XIVTED_clean_linker_0, # of connection points: 2
#     Edge 52, Type (0, 0), BuildingBlock: XIVTED_clean_linker_0, # of connection points: 2
#     Edge 53, Type (0, 0), BuildingBlock: XIVTED_clean_linker_0, # of connection points: 2
#     Edge 54, Type (0, 0), BuildingBlock: XIVTED_clean_linker_0, # of connection points: 2
#     Edge 55, Type (0, 0), BuildingBlock: XIVTED_clean_linker_0, # of connection points: 2
#     Edge 56, Type (0, 0), BuildingBlock: XIVTED_clean_linker_0, # of connection points: 2
#     Edge 57, Type (0, 0), BuildingBlock: XIVTED_clean_linker_0, # of connection points: 2
#     Edge 58, Type (0, 0), BuildingBlock: XIVTED_clean_linker_0, # of connection points: 2
#     Edge 59, Type (0, 0), BuildingBlock: XIVTED_clean_linker_0, # of connection points: 2
#     Edge 60, Type (0, 0), BuildingBlock: XIVTED_clean_linker_0, # of connection points: 2
#     Edge 61, Type (0, 0), BuildingBlock: XIVTED_clean_linker_0, # of connection points: 2
#     Edge 62, Type (0, 0), BuildingBlock: XIVTED_clean_linker_0, # of connection points: 2
#     Edge 63, Type (0, 0), BuildingBlock: XIVTED_clean_linker_0, # of connection points: 2
#     Edge 64, Type (0, 0), BuildingBlock: XIVTED_clean_linker_0, # of connection points: 2
#     Edge 65, Type (0, 0), BuildingBlock: XIVTED_clean_linker_0, # of connection points: 2
#     Edge 66, Type (0, 0), BuildingBlock: XIVTED_clean_linker_0, # of connection points: 2
#     Edge 67, Type (0, 0), BuildingBlock: XIVTED_clean_linker_0, # of connection points: 2
#     Edge 68, Type (0, 0), BuildingBlock: XIVTED_clean_linker_0, # of connection points: 2
#     Edge 69, Type (0, 0), BuildingBlock: XIVTED_clean_linker_0, # of connection points: 2
#     Edge 70, Type (0, 0), BuildingBlock: XIVTED_clean_linker_0, # of connection points: 2
#     Edge 71, Type (0, 0), BuildingBlock: XIVTED_clean_linker_0, # of connection points: 2
#     Edge 72, Type (0, 0), BuildingBlock: XIVTED_clean_linker_0, # of connection points: 2
#     Edge 73, Type (0, 0), BuildingBlock: XIVTED_clean_linker_0, # of connection points: 2
#     Edge 74, Type (0, 0), BuildingBlock: XIVTED_clean_linker_0, # of connection points: 2
#     Edge 75, Type (0, 0), BuildingBlock: XIVTED_clean_linker_0, # of connection points: 2
#     Edge 76, Type (0, 0), BuildingBlock: XIVTED_clean_linker_0, # of connection points: 2
#     Edge 77, Type (0, 0), BuildingBlock: XIVTED_clean_linker_0, # of connection points: 2
#     Edge 78, Type (0, 0), BuildingBlock: XIVTED_clean_linker_0, # of connection points: 2
#     Edge 79, Type (0, 0), BuildingBlock: XIVTED_clean_linker_0, # of connection points: 2
#     Edge 80, Type (0, 0), BuildingBlock: XIVTED_clean_linker_0, # of connection points: 2
#     Edge 81, Type (0, 0), BuildingBlock: XIVTED_clean_linker_0, # of connection points: 2
#     Edge 82, Type (0, 0), BuildingBlock: XIVTED_clean_linker_0, # of connection points: 2
#     Edge 83, Type (0, 0), BuildingBlock: XIVTED_clean_linker_0, # of connection points: 2
#     Edge 84, Type (0, 0), BuildingBlock: XIVTED_clean_linker_0, # of connection points: 2
#     Edge 85, Type (0, 0), BuildingBlock: XIVTED_clean_linker_0, # of connection points: 2
#     Edge 86, Type (0, 0), BuildingBlock: XIVTED_clean_linker_0, # of connection points: 2
#     Edge 87, Type (0, 0), BuildingBlock: XIVTED_clean_linker_0, # of connection points: 2
#     Edge 88, Type (0, 0), BuildingBlock: XIVTED_clean_linker_0, # of connection points: 2
#     Edge 89, Type (0, 0), BuildingBlock: XIVTED_clean_linker_0, # of connection points: 2
#     Edge 90, Type (0, 0), BuildingBlock: XIVTED_clean_linker_0, # of connection points: 2
#     Edge 91, Type (0, 0), BuildingBlock: XIVTED_clean_linker_0, # of connection points: 2
#     Edge 92, Type (0, 0), BuildingBlock: XIVTED_clean_linker_0, # of connection points: 2
#     Edge 93, Type (0, 0), BuildingBlock: XIVTED_clean_linker_0, # of connection points: 2
#     Edge 94, Type (0, 0), BuildingBlock: XIVTED_clean_linker_0, # of connection points: 2
#     Edge 95, Type (0, 0), BuildingBlock: XIVTED_clean_linker_0, # of connection points: 2
#     Edge 96, Type (0, 0), BuildingBlock: XIVTED_clean_linker_0, # of connection points: 2
#     Edge 97, Type (0, 0), BuildingBlock: XIVTED_clean_linker_0, # of connection points: 2
#     Edge 98, Type (0, 0), BuildingBlock: XIVTED_clean_linker_0, # of connection points: 2
#     Edge 99, Type (0, 0), BuildingBlock: XIVTED_clean_linker_0, # of connection points: 2
#     Edge 100, Type (0, 0), BuildingBlock: XIVTED_clean_linker_0, # of connection points: 2
#     Edge 101, Type (0, 0), BuildingBlock: XIVTED_clean_linker_0, # of connection points: 2
#     Edge 102, Type (0, 0), BuildingBlock: XIVTED_clean_linker_0, # of connection points: 2
#     Edge 103, Type (0, 0), BuildingBlock: XIVTED_clean_linker_0, # of connection points: 2
#     Edge 104, Type (0, 0), BuildingBlock: XIVTED_clean_linker_0, # of connection points: 2
#     Edge 105, Type (0, 0), BuildingBlock: XIVTED_clean_linker_0, # of connection points: 2
#     Edge 106, Type (0, 0), BuildingBlock: XIVTED_clean_linker_0, # of connection points: 2
#     Edge 107, Type (0, 0), BuildingBlock: XIVTED_clean_linker_0, # of connection points: 2
# Relax obj value: 0.036
# Max RMSD: 0.160
# Mean RMSD: 0.157
data_MOF--net-uml--node1-NAWXER_clean_sbu_0--edge1-XIVTED_clean_linker_0
_symmetry_space_group_name_H-M    P1
_symmetry_Int_Tables_number       1
_symmetry_cell_setting            triclinic
loop_
_symmetry_equiv_pos_as_xyz
'x, y, z'
_cell_length_a     98.68771
_cell_length_b     98.66853
_cell_length_c     29.563786
_cell_angle_alpha  89.996917
_cell_angle_beta   90.005325
_cell_angle_gamma 119.99436
loop_
_atom_site_label
_atom_site_type_symbol
_atom_site_fract_x
_atom_site_fract_y
_atom_site_fract_z
_atom_type_partial_charge
C0 C 0.3483 0.12488 0.16911 0.0
C1 C 0.37175 0.09212 0.14806 0.0
O2 O 0.33803 0.1103 0.16682 0.0
Zn3 Zn 0.33764 0.08845 0.16094 0.0
O4 O 0.36274 0.12904 0.16877 0.0
Zn5 Zn 0.36022 0.10843 0.1632 0.0
O6 O 0.34981 0.1014 0.0968 0.0
O7 O 0.3263 0.08065 0.10504 0.0
O8 O 0.37873 0.10676 0.15555 0.0
O9 O 0.35676 0.08414 0.15006 0.0
O10 O 0.32776 0.07758 0.21606 0.0
O11 O 0.35117 0.09791 0.22808 0.0
C12 C 0.33697 0.09068 0.07946 0.0
C13 C 0.33858 0.08623 0.24341 0.0
C14 C 0.90483 0.24511 0.08231 0.0
C15 C 0.90971 0.25162 0.24576 0.0
O16 O 0.89416 0.24731 0.09961 0.0
Zn17 Zn 0.88728 0.25087 0.16605 0.0
O18 O 0.91488 0.24449 0.10787 0.0
Zn19 Zn 0.90718 0.24818 0.16357 0.0
O20 O 0.88531 0.22675 0.16995 0.0
O21 O 0.86666 0.23284 0.17218 0.0
O22 O 0.91822 0.2493 0.2183 0.0
O23 O 0.89799 0.25252 0.2307 0.0
O24 O 0.88896 0.27103 0.1581 0.0
O25 O 0.91154 0.27161 0.15227 0.0
C26 C 0.87076 0.22252 0.1725 0.0
C27 C 0.90357 0.27865 0.15031 0.0
C28 C 0.75092 0.65931 0.08029 0.0
C29 C 0.74477 0.65722 0.24396 0.0
O30 O 0.74869 0.64637 0.09714 0.0
Zn31 Zn 0.74522 0.63572 0.1632 0.0
O32 O 0.75168 0.66994 0.10627 0.0
Zn33 Zn 0.74806 0.6584 0.16167 0.0
O34 O 0.76941 0.65777 0.16722 0.0
O35 O 0.76319 0.63298 0.16853 0.0
O36 O 0.74713 0.66817 0.21693 0.0
O37 O 0.74374 0.6446 0.22834 0.0
O38 O 0.72499 0.61735 0.15511 0.0
O39 O 0.72455 0.63946 0.15056 0.0
C40 C 0.77357 0.64738 0.16914 0.0
C41 C 0.71743 0.62447 0.1481 0.0
C42 C 0.12417 0.34851 0.32342 0.0
C43 C 0.09107 0.37164 0.34214 0.0
O44 O 0.10962 0.33814 0.32519 0.0
Zn45 Zn 0.08765 0.3376 0.32978 0.0
O46 O 0.1282 0.36292 0.32344 0.0
Zn47 Zn 0.10752 0.36023 0.32811 0.0
O48 O 0.1002 0.34971 0.39431 0.0
O49 O 0.07957 0.32616 0.38524 0.0
O50 O 0.10574 0.37867 0.33531 0.0
O51 O 0.08314 0.35664 0.34008 0.0
O52 O 0.07706 0.32771 0.27447 0.0
O53 O 0.09729 0.35124 0.26298 0.0
C54 C 0.08944 0.33681 0.4112 0.0
C55 C 0.08572 0.33861 0.24738 0.0
C56 C 0.65954 0.75211 0.4124 0.0
C57 C 0.65831 0.7464 0.24883 0.0
O58 O 0.64663 0.74978 0.39504 0.0
Zn59 Zn 0.6363 0.74641 0.3286 0.0
O60 O 0.67036 0.75307 0.38686 0.0
Zn61 Zn 0.65908 0.74953 0.33105 0.0
O62 O 0.65818 0.77075 0.32587 0.0
O63 O 0.63332 0.76421 0.32329 0.0
O64 O 0.66922 0.74892 0.27623 0.0
O65 O 0.64556 0.74517 0.26395 0.0
O66 O 0.61806 0.72607 0.33579 0.0
O67 O 0.64027 0.72587 0.34114 0.0
C68 C 0.64767 0.77474 0.32358 0.0
C69 C 0.62527 0.71861 0.3429 0.0
C70 C 0.22153 0.87097 0.32655 0.0
C71 C 0.27805 0.90385 0.33849 0.0
O72 O 0.22589 0.8856 0.32661 0.0
Zn73 Zn 0.24764 0.90756 0.32869 0.0
O74 O 0.23178 0.86676 0.3268 0.0
Zn75 Zn 0.24988 0.88734 0.32799 0.0
O76 O 0.24771 0.8955 0.39389 0.0
O77 O 0.24515 0.91632 0.38425 0.0
O78 O 0.27026 0.88912 0.33291 0.0
O79 O 0.27102 0.9118 0.33684 0.0
O80 O 0.24837 0.91791 0.27267 0.0
O81 O 0.24946 0.89633 0.26207 0.0
C82 C 0.24605 0.90659 0.41054 0.0
C83 C 0.24899 0.90816 0.24598 0.0
C84 C 0.64738 0.87196 0.82703 0.0
C85 C 0.62376 0.90453 0.8488 0.0
O86 O 0.63294 0.86776 0.8274 0.0
Zn87 Zn 0.63538 0.88834 0.83315 0.0
O88 O 0.65763 0.88655 0.82933 0.0
Zn89 Zn 0.65791 0.90836 0.83538 0.0
O90 O 0.66932 0.9162 0.89098 0.0
O91 O 0.64587 0.89537 0.89943 0.0
O92 O 0.63874 0.91258 0.84669 0.0
O93 O 0.61683 0.8899 0.84115 0.0
O94 O 0.64434 0.89895 0.76836 0.0
O95 O 0.66771 0.91933 0.7805 0.0
C96 C 0.65872 0.90613 0.91662 0.0
C97 C 0.6569 0.9107 0.75314 0.0
C98 C 0.09044 0.75168 0.9172 0.0
C99 C 0.08489 0.74472 0.75369 0.0
O100 O 0.08024 0.7522 0.89205 0.0
Zn101 Zn 0.08764 0.74832 0.8359 0.0
O102 O 0.10103 0.74947 0.89944 0.0
Zn103 Zn 0.10762 0.74571 0.8329 0.0
O104 O 0.1282 0.76378 0.82592 0.0
O105 O 0.10944 0.76972 0.82821 0.0
O106 O 0.09668 0.74391 0.76854 0.0
O107 O 0.07639 0.74699 0.78133 0.0
O108 O 0.0834 0.72497 0.84756 0.0
O109 O 0.10597 0.72556 0.84116 0.0
C110 C 0.124 0.77403 0.82517 0.0
C111 C 0.09139 0.71796 0.84943 0.0
C112 C 0.25055 0.33986 0.75273 0.0
C113 C 0.24462 0.33823 0.91665 0.0
O114 O 0.2483 0.32899 0.77998 0.0
Zn115 Zn 0.2474 0.33888 0.83513 0.0
O116 O 0.25155 0.35248 0.76813 0.0
Zn117 Zn 0.25012 0.36153 0.83306 0.0
O118 O 0.27035 0.37998 0.84073 0.0
O119 O 0.27086 0.35792 0.84569 0.0
O120 O 0.24677 0.35109 0.89937 0.0
O121 O 0.24389 0.32754 0.891 0.0
O122 O 0.226 0.33938 0.82942 0.0
O123 O 0.23207 0.36413 0.82761 0.0
C124 C 0.27795 0.37292 0.8478 0.0
C125 C 0.22175 0.3497 0.82722 0.0
C126 C 0.90602 0.66065 0.58709 0.0
C127 C 0.91039 0.65922 0.75071 0.0
O128 O 0.916 0.67136 0.61267 0.0
Zn129 Zn 0.90813 0.66006 0.66844 0.0
O130 O 0.89532 0.6478 0.60438 0.0
Zn131 Zn 0.88824 0.63743 0.67075 0.0
O132 O 0.86758 0.63481 0.67596 0.0
O133 O 0.88621 0.65956 0.67369 0.0
O134 O 0.89875 0.64657 0.73553 0.0
O135 O 0.91895 0.67006 0.72332 0.0
O136 O 0.9126 0.64101 0.65818 0.0
O137 O 0.89 0.61899 0.66338 0.0
C138 C 0.87165 0.64923 0.67585 0.0
C139 C 0.90466 0.62601 0.65629 0.0
C140 C 0.33836 0.25071 0.75147 0.0
C141 C 0.33752 0.24538 0.58766 0.0
O142 O 0.32757 0.24842 0.72387 0.0
Zn143 Zn 0.33774 0.24776 0.66913 0.0
O144 O 0.35107 0.25179 0.73653 0.0
Zn145 Zn 0.36041 0.25054 0.67201 0.0
O146 O 0.37886 0.27082 0.66531 0.0
O147 O 0.35679 0.27129 0.65967 0.0
O148 O 0.3503 0.24748 0.60536 0.0
O149 O 0.32669 0.24452 0.61294 0.0
O150 O 0.33827 0.22637 0.67403 0.0
O151 O 0.363 0.23246 0.67709 0.0
C152 C 0.3718 0.27842 0.6582 0.0
C153 C 0.34859 0.22213 0.67641 0.0
C154 C 0.77391 0.12474 0.67452 0.0
C155 C 0.71768 0.09176 0.6558 0.0
O156 O 0.76357 0.12882 0.67449 0.0
Zn157 Zn 0.74554 0.10816 0.66993 0.0
O158 O 0.76967 0.11017 0.67284 0.0
Zn159 Zn 0.74821 0.08823 0.66832 0.0
O160 O 0.75154 0.08012 0.61284 0.0
O161 O 0.7487 0.1008 0.60381 0.0
O162 O 0.7247 0.08379 0.65793 0.0
O163 O 0.72536 0.10644 0.66263 0.0
O164 O 0.74426 0.09793 0.73506 0.0
O165 O 0.74747 0.07764 0.72369 0.0
C166 C 0.75079 0.09001 0.5869 0.0
C167 C 0.74527 0.08634 0.75072 0.0
C168 C 0.00417 0.41878 0.57608 0.0
C169 C 0.00135 0.42295 0.41254 0.0
O170 O 0.01662 0.43046 0.56006 0.0
Zn171 Zn 0.02518 0.44084 0.49479 0.0
O172 O 0.99319 0.41001 0.54934 0.0
Zn173 Zn 0.0027 0.42072 0.49367 0.0
O174 O 0.02174 0.4165 0.4821 0.0
O175 O 0.04367 0.4392 0.48537 0.0
O176 O 0.99125 0.41237 0.43818 0.0
O177 O 0.01408 0.43403 0.42923 0.0
O178 O 0.0278 0.46137 0.50119 0.0
O179 O 0.00303 0.44269 0.49953 0.0
C180 C 0.03669 0.42451 0.47893 0.0
C181 C 0.01338 0.45727 0.50182 0.0
C182 C 0.53697 0.55556 0.5023 0.0
C183 C 0.57089 0.61149 0.48044 0.0
O184 O 0.55142 0.55941 0.49976 0.0
Zn185 Zn 0.57363 0.58052 0.49341 0.0
O186 O 0.53325 0.56617 0.50191 0.0
Zn187 Zn 0.5541 0.58377 0.49586 0.0
O188 O 0.56082 0.58001 0.42933 0.0
O189 O 0.58115 0.57657 0.43784 0.0
O190 O 0.55628 0.60412 0.48824 0.0
O191 O 0.5786 0.60419 0.48223 0.0
O192 O 0.58452 0.58128 0.54809 0.0
O193 O 0.56464 0.58505 0.56061 0.0
C194 C 0.5713 0.57748 0.41216 0.0
C195 C 0.57616 0.58379 0.57562 0.0
C196 C 0.41792 0.99462 0.41198 0.0
C197 C 0.41091 0.99181 0.5754 0.0
O198 O 0.41658 0.982 0.42868 0.0
Zn199 Zn 0.41255 0.971 0.49456 0.0
O200 O 0.41722 0.00458 0.43767 0.0
Zn201 Zn 0.41434 0.99318 0.49299 0.0
O202 O 0.43632 0.99349 0.49898 0.0
O203 O 0.43068 0.96885 0.50105 0.0
O204 O 0.41277 0.00259 0.54835 0.0
O205 O 0.41049 0.97948 0.55976 0.0
O206 O 0.39274 0.95215 0.4853 0.0
O207 O 0.3913 0.9737 0.48079 0.0
C208 C 0.44081 0.98333 0.50146 0.0
C209 C 0.38474 0.95876 0.4779 0.0
C210 C 0.79112 0.68268 0.65513 0.0
C211 C 0.75834 0.70611 0.675 0.0
O212 O 0.77654 0.67238 0.65692 0.0
Zn213 Zn 0.75466 0.672 0.66179 0.0
O214 O 0.79525 0.69711 0.65526 0.0
Zn215 Zn 0.77463 0.69457 0.66013 0.0
O216 O 0.76733 0.684 0.72628 0.0
O217 O 0.74659 0.66052 0.71723 0.0
O218 O 0.77299 0.71307 0.66784 0.0
O219 O 0.75033 0.69112 0.67273 0.0
O220 O 0.74398 0.66223 0.60646 0.0
O221 O 0.7643 0.68569 0.595 0.0
C222 C 0.75653 0.67111 0.74318 0.0
C223 C 0.75267 0.67312 0.57939 0.0
C224 C 0.32173 0.07842 0.57869 0.0
C225 C 0.32336 0.08432 0.74268 0.0
O226 O 0.30915 0.07757 0.59397 0.0
Zn227 Zn 0.30017 0.0791 0.65889 0.0
O228 O 0.33252 0.08056 0.60607 0.0
Zn229 Zn 0.32267 0.08157 0.66123 0.0
O230 O 0.30344 0.05818 0.67225 0.0
O231 O 0.28157 0.05902 0.66649 0.0
O232 O 0.334 0.08493 0.71702 0.0
O233 O 0.31056 0.08232 0.7254 0.0
O234 O 0.29776 0.09725 0.65365 0.0
O235 O 0.32244 0.10314 0.65613 0.0
C236 C 0.28845 0.05128 0.67424 0.0
C237 C 0.3122 0.1075 0.65392 0.0
C238 C 0.94395 0.23847 0.67668 0.0
C239 C 0.88782 0.20553 0.65542 0.0
O240 O 0.9369 0.24642 0.67473 0.0
Zn241 Zn 0.91343 0.242 0.66372 0.0
O242 O 0.93634 0.22383 0.66911 0.0
Zn243 Zn 0.91616 0.22211 0.66131 0.0
O244 O 0.91772 0.23275 0.59658 0.0
O245 O 0.91444 0.25295 0.60892 0.0
O246 O 0.89817 0.20147 0.65554 0.0
O247 O 0.89203 0.22008 0.6578 0.0
O248 O 0.90982 0.24975 0.71943 0.0
O249 O 0.91267 0.22905 0.72773 0.0
C250 C 0.91676 0.24443 0.58148 0.0
C251 C 0.91047 0.23973 0.74501 0.0
C252 C 0.32405 0.24399 0.08712 0.0
C253 C 0.32535 0.23916 0.25072 0.0
O254 O 0.33487 0.25252 0.1146 0.0
Zn255 Zn 0.32489 0.24152 0.16933 0.0
O256 O 0.31142 0.23228 0.10216 0.0
Zn257 Zn 0.30227 0.22156 0.16669 0.0
O258 O 0.28378 0.22327 0.17431 0.0
O259 O 0.3058 0.24587 0.17982 0.0
O260 O 0.31255 0.22848 0.23312 0.0
O261 O 0.3361 0.24922 0.22539 0.0
O262 O 0.32447 0.21968 0.16308 0.0
O263 O 0.29976 0.20095 0.16076 0.0
C264 C 0.29081 0.23792 0.18168 0.0
C265 C 0.3142 0.20511 0.16052 0.0
C266 C 0.75737 0.08492 0.24983 0.0
C267 C 0.75352 0.07893 0.08617 0.0
O268 O 0.74752 0.08569 0.22377 0.0
Zn269 Zn 0.75555 0.08218 0.16845 0.0
O270 O 0.76813 0.08276 0.23306 0.0
Zn271 Zn 0.77543 0.0794 0.16704 0.0
O272 O 0.79611 0.09742 0.16198 0.0
O273 O 0.77749 0.10357 0.16324 0.0
O274 O 0.76511 0.07793 0.10187 0.0
O275 O 0.74489 0.08126 0.11313 0.0
O276 O 0.75104 0.05868 0.17944 0.0
O277 O 0.77361 0.05918 0.17498 0.0
C278 C 0.79205 0.10777 0.16146 0.0
C279 C 0.75894 0.05159 0.18189 0.0
C280 C 0.88825 0.68309 0.1599 0.0
C281 C 0.94437 0.70624 0.18198 0.0
O282 O 0.8986 0.6975 0.16033 0.0
Zn283 Zn 0.9166 0.69485 0.16633 0.0
O284 O 0.89245 0.67274 0.16233 0.0
Zn285 Zn 0.91384 0.67222 0.1686 0.0
O286 O 0.91017 0.6608 0.22419 0.0
O287 O 0.91306 0.68436 0.23264 0.0
O288 O 0.9373 0.69124 0.17989 0.0
O289 O 0.93678 0.71329 0.17437 0.0
O290 O 0.91824 0.68584 0.10162 0.0
O291 O 0.91493 0.66234 0.11381 0.0
C292 C 0.91085 0.67147 0.24984 0.0
C293 C 0.9173 0.67321 0.08645 0.0
C294 C 0.57098 0.99191 0.92236 0.0
C295 C 0.57531 0.99039 0.08602 0.0
O296 O 0.58082 0.00264 0.94813 0.0
Zn297 Zn 0.57306 0.9912 0.00367 0.0
O298 O 0.56041 0.97893 0.93946 0.0
Zn299 Zn 0.55344 0.96841 0.00584 0.0
O300 O 0.53259 0.96534 0.01095 0.0
O301 O 0.5509 0.99022 0.00871 0.0
O302 O 0.56381 0.97763 0.07082 0.0
O303 O 0.58374 0.00127 0.0586 0.0
O304 O 0.57798 0.97248 0.99303 0.0
O305 O 0.55563 0.95021 0.99823 0.0
C306 C 0.5364 0.97968 0.01076 0.0
C307 C 0.57029 0.95747 0.991 0.0
C308 C 0.03834 0.61182 0.99321 0.0
C309 C 0.01598 0.55569 0.01248 0.0
O310 O 0.04556 0.6044 0.00061 0.0
Zn311 Zn 0.02732 0.58402 0.00778 0.0
O312 O 0.02334 0.60454 0.99489 0.0
Zn313 Zn 0.00455 0.58089 0.00504 0.0
O314 O 0.99435 0.58145 0.05985 0.0
O315 O 0.01794 0.5851 0.07253 0.0
O316 O 0.00548 0.55969 0.01016 0.0
O317 O 0.03034 0.5662 0.01297 0.0
O318 O 0.01703 0.5806 0.94113 0.0
O319 O 0.9933 0.57732 0.94906 0.0
C320 C 0.00515 0.58384 0.08749 0.0
C321 C 0.00413 0.57825 0.92362 0.0
C322 C 0.44065 0.45778 0.01003 0.0
C323 C 0.38438 0.4262 0.98946 0.0
O324 O 0.43059 0.46224 0.01007 0.0
Zn325 Zn 0.4123 0.44192 0.00482 0.0
O326 O 0.43605 0.44311 0.00828 0.0
Zn327 Zn 0.41404 0.42146 0.00396 0.0
O328 O 0.41658 0.41262 0.94868 0.0
O329 O 0.416 0.43458 0.93917 0.0
O330 O 0.39099 0.41787 0.99268 0.0
O331 O 0.39241 0.44088 0.99577 0.0
O332 O 0.4104 0.43168 0.07041 0.0
O333 O 0.41274 0.41084 0.05986 0.0
C334 C 0.41722 0.42321 0.92272 0.0
C335 C 0.41088 0.41985 0.08654 0.0
C336 C 0.68156 0.79182 0.8392 0.0
C337 C 0.70481 0.75888 0.81761 0.0
O338 O 0.67126 0.77725 0.837 0.0
Zn339 Zn 0.67079 0.75538 0.83096 0.0
O340 O 0.69599 0.79596 0.83869 0.0
Zn341 Zn 0.69344 0.77532 0.83295 0.0
O342 O 0.6829 0.76827 0.76684 0.0
O343 O 0.65938 0.74756 0.77534 0.0
O344 O 0.71188 0.77355 0.82476 0.0
O345 O 0.68982 0.75097 0.81992 0.0
O346 O 0.66099 0.74448 0.88588 0.0
O347 O 0.68449 0.76472 0.89774 0.0
C348 C 0.67003 0.75756 0.74967 0.0
C349 C 0.6719 0.75304 0.91308 0.0
C350 C 0.24009 0.91663 0.91162 0.0
C351 C 0.23884 0.91332 0.74705 0.0
O352 O 0.22817 0.9168 0.89503 0.0
Zn353 Zn 0.21925 0.91699 0.82887 0.0
O354 O 0.2501 0.91631 0.88535 0.0
Zn355 Zn 0.23977 0.91522 0.8289 0.0
O356 O 0.24356 0.9384 0.81975 0.0
O357 O 0.22067 0.9372 0.82322 0.0
O358 O 0.24867 0.9127 0.77357 0.0
O359 O 0.2276 0.91479 0.76341 0.0
O360 O 0.19885 0.89866 0.83018 0.0
O361 O 0.21803 0.89325 0.83152 0.0
C362 C 0.23538 0.94518 0.81757 0.0
C363 C 0.20334 0.88863 0.83134 0.0
C364 C 0.08398 0.32491 0.74827 0.0
C365 C 0.07802 0.32277 0.91196 0.0
O366 O 0.08185 0.312 0.76504 0.0
Zn367 Zn 0.07853 0.30135 0.83104 0.0
O368 O 0.0847 0.33551 0.77433 0.0
Zn369 Zn 0.08122 0.32399 0.82969 0.0
O370 O 0.10264 0.3235 0.83499 0.0
O371 O 0.09659 0.29876 0.83612 0.0
O372 O 0.08029 0.33371 0.885 0.0
O373 O 0.07705 0.31019 0.89625 0.0
O374 O 0.05832 0.28291 0.82315 0.0
O375 O 0.05776 0.30496 0.81889 0.0
C376 C 0.1069 0.31319 0.83677 0.0
C377 C 0.05069 0.28997 0.81644 0.0
C378 C 0.42257 0.0029 0.07557 0.0
C379 C 0.41824 0.00492 0.9119 0.0
O380 O 0.43368 0.01553 0.05846 0.0
Zn381 Zn 0.44049 0.02629 0.99236 0.0
O382 O 0.41195 0.99272 0.05023 0.0
Zn383 Zn 0.42034 0.00387 0.99441 0.0
O384 O 0.44223 0.00403 0.98951 0.0
O385 O 0.46097 0.02876 0.98641 0.0
O386 O 0.40954 0.99409 0.93915 0.0
O387 O 0.42997 0.01745 0.92732 0.0
O388 O 0.43899 0.04491 0.00097 0.0
O389 O 0.41625 0.02306 0.00499 0.0
C390 C 0.45682 0.01432 0.98704 0.0
C391 C 0.42431 0.03802 0.00759 0.0
C392 C 0.9811 0.44141 0.98898 0.0
C393 C 0.95736 0.38518 0.00905 0.0
O394 O 0.99137 0.43707 0.99074 0.0
Zn395 Zn 0.99148 0.41529 0.99493 0.0
O396 O 0.96665 0.43114 0.98887 0.0
Zn397 Zn 0.96908 0.41308 0.9941 0.0
O398 O 0.98013 0.41692 0.05971 0.0
O399 O 0.00289 0.41798 0.05024 0.0
O400 O 0.95048 0.39301 0.00306 0.0
O401 O 0.97231 0.39203 0.00584 0.0
O402 O 0.00095 0.41425 0.93902 0.0
O403 O 0.97757 0.4114 0.92854 0.0
C404 C 0.99282 0.41838 0.07619 0.0
C405 C 0.98999 0.41215 0.91238 0.0
C406 C 0.57753 0.57201 0.075 0.0
C407 C 0.5835 0.57631 0.91135 0.0
O408 O 0.57971 0.56129 0.0579 0.0
Zn409 Zn 0.58311 0.5542 0.99152 0.0
O410 O 0.57688 0.58199 0.04925 0.0
Zn411 Zn 0.58041 0.5741 0.9937 0.0
O412 O 0.559 0.55217 0.98843 0.0
O413 O 0.56509 0.53351 0.98636 0.0
O414 O 0.58129 0.58491 0.93876 0.0
O415 O 0.58448 0.56465 0.92656 0.0
O416 O 0.60332 0.55596 -0.00085 0.0
O417 O 0.60388 0.57855 0.00456 0.0
C418 C 0.55476 0.5376 0.98638 0.0
C419 C 0.61094 0.57061 0.00656 0.0
C420 C 0.99087 0.57135 0.58681 0.0
C421 C 0.98975 0.57639 0.42315 0.0
O422 O 0.00168 0.58129 0.56142 0.0
Zn423 Zn 0.99038 0.57382 0.50547 0.0
O424 O 0.97794 0.56087 0.56928 0.0
Zn425 Zn 0.96761 0.55421 0.50263 0.0
O426 O 0.96452 0.53339 0.49652 0.0
O427 O 0.9894 0.55168 0.49903 0.0
O428 O 0.97697 0.56482 0.43803 0.0
O429 O 0.00056 0.58477 0.45083 0.0
O430 O 0.97163 0.57869 0.51628 0.0
O431 O 0.94939 0.55635 0.51009 0.0
C432 C 0.97887 0.5372 0.49632 0.0
C433 C 0.95662 0.57097 0.51792 0.0
C434 C 0.4221 0.41916 0.58634 0.0
C435 C 0.41775 0.41216 0.42277 0.0
O436 O 0.41152 0.4187 0.56075 0.0
Zn437 Zn 0.41981 0.41558 0.50521 0.0
O438 O 0.43316 0.41749 0.56954 0.0
Zn439 Zn 0.43988 0.41318 0.50378 0.0
O440 O 0.4604 0.431 0.4972 0.0
O441 O 0.4418 0.43722 0.49922 0.0
O442 O 0.42944 0.41137 0.4386 0.0
O443 O 0.40902 0.41437 0.44966 0.0
O444 O 0.41561 0.39229 0.51691 0.0
O445 O 0.43832 0.3931 0.51306 0.0
C446 C 0.45636 0.44137 0.49674 0.0
C447 C 0.42366 0.38538 0.51989 0.0
C448 C 0.61072 0.03805 0.51718 0.0
C449 C 0.55475 0.01597 0.49517 0.0
O450 O 0.60337 0.04533 0.50968 0.0
Zn451 Zn 0.58299 0.02716 0.50176 0.0
O452 O 0.60341 0.02304 0.51513 0.0
Zn453 Zn 0.5798 0.00436 0.50397 0.0
O454 O 0.5806 0.99431 0.44921 0.0
O455 O 0.58428 0.01795 0.43691 0.0
O456 O 0.55869 0.00542 0.49754 0.0
O457 O 0.56529 0.03031 0.49581 0.0
O458 O 0.5792 0.01661 0.5681 0.0
O459 O 0.57585 0.99287 0.55952 0.0
C460 C 0.58307 0.00519 0.42177 0.0
C461 C 0.57671 0.0036 0.58523 0.0
C462 C 0.24195 0.32325 0.41741 0.0
C463 C 0.23772 0.32471 0.25343 0.0
O464 O 0.25052 0.33411 0.39008 0.0
Zn465 Zn 0.23978 0.32413 0.33493 0.0
O466 O 0.23037 0.31058 0.40208 0.0
Zn467 Zn 0.21995 0.30146 0.33717 0.0
O468 O 0.22179 0.28305 0.32985 0.0
O469 O 0.24433 0.30513 0.32446 0.0
O470 O 0.22704 0.31184 0.27072 0.0
O471 O 0.24764 0.33544 0.27907 0.0
O472 O 0.2178 0.32351 0.34003 0.0
O473 O 0.19926 0.29872 0.34231 0.0
C474 C 0.23644 0.29013 0.32255 0.0
C475 C 0.20326 0.31312 0.34218 0.0
C476 C 0.67115 0.9174 0.41741 0.0
C477 C 0.66975 0.91146 0.25385 0.0
O478 O 0.66029 0.91497 0.38993 0.0
Zn479 Zn 0.67036 0.91421 0.33514 0.0
O480 O 0.68388 0.91854 0.40234 0.0
Zn481 Zn 0.69306 0.9172 0.33759 0.0
O482 O 0.71139 0.93747 0.33012 0.0
O483 O 0.68926 0.93781 0.32449 0.0
O484 O 0.68267 0.91376 0.2711 0.0
O485 O 0.65901 0.91062 0.27947 0.0
O486 O 0.67113 0.89291 0.34051 0.0
O487 O 0.69597 0.89937 0.34307 0.0
C488 C 0.70426 0.94498 0.32264 0.0
C489 C 0.68161 0.88888 0.34284 0.0
C490 C 0.05085 0.7588 0.32362 0.0
C491 C 0.10696 0.79215 0.34494 0.0
O492 O 0.05833 0.77343 0.33132 0.0
Zn493 Zn 0.07863 0.77538 0.33884 0.0
O494 O 0.05805 0.75099 0.32523 0.0
Zn495 Zn 0.0816 0.75563 0.33572 0.0
O496 O 0.08074 0.74459 0.39029 0.0
O497 O 0.07717 0.76458 0.40326 0.0
O498 O 0.10286 0.77764 0.3421 0.0
O499 O 0.09653 0.79611 0.34503 0.0
O500 O 0.08215 0.76871 0.2721 0.0
O501 O 0.08528 0.74815 0.27948 0.0
C502 C 0.07827 0.75294 0.41802 0.0
C503 C 0.08446 0.75817 0.2543 0.0
H504 H 0.29948 0.06864 0.51217 0.0
H505 H 0.36084 0.09867 0.30986 0.0
H506 H 0.34886 0.08657 0.53272 0.0
H507 H 0.31138 0.06752 0.28953 0.0
H508 H 0.35674 0.09529 0.39161 0.0
H509 H 0.30355 0.06902 0.43046 0.0
C510 C 0.31117 0.07259 0.49953 0.0
C511 C 0.32386 0.07763 0.52936 0.0
C512 C 0.34681 0.0891 0.36925 0.0
C513 C 0.32862 0.07823 0.43582 0.0
C514 C 0.34913 0.09105 0.32256 0.0
C515 C 0.33642 0.08341 0.29278 0.0
C516 C 0.33164 0.07962 0.38637 0.0
C517 C 0.32152 0.07363 0.31121 0.0
C518 C 0.31348 0.07275 0.45287 0.0
C519 C 0.33874 0.08256 0.51101 0.0
N520 N 0.31951 0.07214 0.35682 0.0
N521 N 0.34073 0.08288 0.46542 0.0
H522 H 0.90881 0.26364 0.5359 0.0
H523 H 0.9289 0.24365 0.29134 0.0
H524 H 0.92666 0.23212 0.51485 0.0
H525 H 0.89742 0.26155 0.31236 0.0
H526 H 0.93228 0.24347 0.37332 0.0
H527 H 0.90868 0.26706 0.45394 0.0
C528 C 0.91283 0.25754 0.5141 0.0
C529 C 0.91766 0.24749 0.53225 0.0
C530 C 0.9247 0.24751 0.35991 0.0
C531 C 0.91758 0.25141 0.43853 0.0
C532 C 0.92281 0.24768 0.31314 0.0
C533 C 0.91278 0.25253 0.29498 0.0
C534 C 0.91664 0.25239 0.38871 0.0
C535 C 0.90517 0.2576 0.3249 0.0
C536 C 0.91269 0.25946 0.46734 0.0
C537 C 0.92273 0.23989 0.50233 0.0
N538 N 0.90725 0.25739 0.37029 0.0
N539 N 0.92255 0.242 0.45694 0.0
H540 H 0.76523 0.69555 0.51348 0.0
H541 H 0.73473 0.63474 0.30983 0.0
H542 H 0.73388 0.64607 0.53278 0.0
H543 H 0.75311 0.68427 0.2906 0.0
H544 H 0.73513 0.63859 0.39164 0.0
H545 H 0.76179 0.6917 0.43167 0.0
C546 C 0.75756 0.68389 0.50053 0.0
C547 C 0.74988 0.6711 0.53003 0.0
C548 C 0.73895 0.64859 0.36949 0.0
C549 C 0.74601 0.66659 0.43641 0.0
C550 C 0.73877 0.64642 0.32279 0.0
C551 C 0.74395 0.65922 0.29332 0.0
C552 C 0.74457 0.66372 0.38693 0.0
C553 C 0.749 0.67407 0.31204 0.0
C554 C 0.75557 0.6817 0.45383 0.0
C555 C 0.74003 0.65626 0.51132 0.0
N556 N 0.74933 0.67593 0.35767 0.0
N557 N 0.7385 0.65439 0.46569 0.0
H558 H 0.06822 0.30028 0.97775 0.0
H559 H 0.09813 0.36105 0.1815 0.0
H560 H 0.08611 0.34974 0.95869 0.0
H561 H 0.06719 0.31149 0.20077 0.0
H562 H 0.09476 0.35718 0.0997 0.0
H563 H 0.06859 0.30409 0.05958 0.0
C564 C 0.07215 0.31193 0.99075 0.0
C565 C 0.0772 0.32473 0.96132 0.0
C566 C 0.08862 0.34717 0.12185 0.0
C567 C 0.07778 0.32917 0.05494 0.0
C568 C 0.09057 0.34936 0.16854 0.0
C569 C 0.08297 0.33656 0.19802 0.0
C570 C 0.07919 0.33204 0.10442 0.0
C571 C 0.07326 0.32169 0.17931 0.0
C572 C 0.07231 0.31408 0.03746 0.0
C573 C 0.08211 0.33954 0.9801 0.0
N574 N 0.07176 0.31981 0.13367 0.0
N575 N 0.08242 0.34139 0.02572 0.0
H576 H 0.68553 0.75483 0.203 0.0
H577 H 0.64494 0.73369 0.95918 0.0
H578 H 0.63599 0.73601 0.18255 0.0
H579 H 0.69426 0.76565 0.9792 0.0
H580 H 0.6416 0.73042 0.0412 0.0
H581 H 0.68898 0.75486 0.121 0.0
C582 C 0.67536 0.75058 0.18132 0.0
C583 C 0.66046 0.74552 0.19963 0.0
C584 C 0.65316 0.73808 0.02757 0.0
C585 C 0.66433 0.74546 0.10593 0.0
C586 C 0.65509 0.73991 0.98077 0.0
C587 C 0.66989 0.75005 0.96232 0.0
C588 C 0.66614 0.74631 0.0561 0.0
C589 C 0.68262 0.75781 0.99197 0.0
C590 C 0.67735 0.75066 0.13455 0.0
C591 C 0.64771 0.74014 0.16989 0.0
N592 N 0.68045 0.7558 0.0374 0.0
N593 N 0.64994 0.74027 0.1245 0.0
H594 H 0.26287 0.93526 0.19667 0.0
H595 H 0.21682 0.90054 0.97232 0.0
H596 H 0.2338 0.88522 0.18352 0.0
H597 H 0.26678 0.93099 0.96284 0.0
H598 H 0.21948 0.89857 0.05435 0.0
H599 H 0.26137 0.93779 0.11408 0.0
C600 C 0.25617 0.92485 0.17638 0.0
C601 C 0.24849 0.91001 0.19663 0.0
C602 C 0.22981 0.90572 0.03417 0.0
C603 C 0.24641 0.91287 0.10336 0.0
C604 C 0.22831 0.90692 0.98764 0.0
C605 C 0.24162 0.91591 0.96103 0.0
C606 C 0.24462 0.91399 0.05426 0.0
C607 C 0.25627 0.92388 0.98234 0.0
C608 C 0.25539 0.9263 0.12953 0.0
C609 C 0.23998 0.89685 0.16902 0.0
N610 N 0.25739 0.92288 0.028 0.0
N611 N 0.23896 0.8986 0.12377 0.0
H612 H 0.68397 0.93002 0.70741 0.0
H613 H 0.6439 0.90908 0.46288 0.0
H614 H 0.6347 0.89804 0.68659 0.0
H615 H 0.69335 0.92756 0.48409 0.0
H616 H 0.64031 0.90898 0.54482 0.0
H617 H 0.6875 0.93325 0.62541 0.0
C618 C 0.67387 0.92379 0.68565 0.0
C619 C 0.65902 0.91367 0.70388 0.0
C620 C 0.65195 0.91312 0.53146 0.0
C621 C 0.663 0.91735 0.61012 0.0
C622 C 0.65403 0.91324 0.48472 0.0
C623 C 0.66894 0.91824 0.46662 0.0
C624 C 0.6649 0.91821 0.5603 0.0
C625 C 0.68163 0.92349 0.49657 0.0
C626 C 0.67591 0.92559 0.63886 0.0
C627 C 0.64636 0.90587 0.674 0.0
N628 N 0.67932 0.92333 0.54194 0.0
N629 N 0.64864 0.90787 0.62859 0.0
H630 H 0.0864 0.73377 0.46309 0.0
H631 H 0.06562 0.75265 0.70832 0.0
H632 H 0.0681 0.76486 0.48507 0.0
H633 H 0.09724 0.73497 0.68679 0.0
H634 H 0.06236 0.75309 0.62633 0.0
H635 H 0.0864 0.73006 0.54496 0.0
C636 C 0.08226 0.73971 0.48507 0.0
C637 C 0.07734 0.74973 0.4672 0.0
C638 C 0.06995 0.74904 0.63963 0.0
C639 C 0.07726 0.74547 0.56084 0.0
C640 C 0.07176 0.74871 0.68641 0.0
C641 C 0.0818 0.74386 0.70445 0.0
C642 C 0.07809 0.74431 0.61068 0.0
C643 C 0.08948 0.73891 0.67437 0.0
C644 C 0.08232 0.73763 0.53179 0.0
C645 C 0.07211 0.75713 0.49736 0.0
N646 N 0.08747 0.73928 0.62898 0.0
N647 N 0.07221 0.75486 0.54269 0.0
H648 H 0.22965 0.30094 0.48377 0.0
H649 H 0.26039 0.36218 0.68645 0.0
H650 H 0.26068 0.35044 0.46355 0.0
H651 H 0.2422 0.31272 0.70645 0.0
H652 H 0.2598 0.35817 0.60469 0.0
H653 H 0.23325 0.30498 0.56549 0.0
C654 C 0.23728 0.31265 0.49649 0.0
C655 C 0.24483 0.32538 0.46675 0.0
C656 C 0.25605 0.34822 0.62698 0.0
C657 C 0.24888 0.33009 0.5603 0.0
C658 C 0.25635 0.35049 0.67367 0.0
C659 C 0.25128 0.33776 0.70336 0.0
C660 C 0.25043 0.33307 0.60976 0.0
C661 C 0.24622 0.32287 0.68484 0.0
C662 C 0.23937 0.31493 0.54315 0.0
C663 C 0.25464 0.34028 0.48519 0.0
N664 N 0.24578 0.32092 0.63923 0.0
N665 N 0.25626 0.34225 0.53079 0.0
H666 H 0.92945 0.68638 0.79643 0.0
H667 H 0.90939 0.6461 0.04069 0.0
H668 H 0.89806 0.63698 0.81719 0.0
H669 H 0.92722 0.69549 0.02003 0.0
H670 H 0.90927 0.64262 0.95871 0.0
H671 H 0.93279 0.68989 0.87843 0.0
C672 C 0.92336 0.67625 0.81819 0.0
C673 C 0.91338 0.66137 0.79995 0.0
C674 C 0.91327 0.65422 0.9722 0.0
C675 C 0.91721 0.66532 0.89368 0.0
C676 C 0.91341 0.65624 0.01897 0.0
C677 C 0.91823 0.6711 0.03723 0.0
C678 C 0.91815 0.66718 0.9435 0.0
C679 C 0.9233 0.6838 0.00741 0.0
C680 C 0.92524 0.67828 0.86496 0.0
C681 C 0.90578 0.64867 0.82979 0.0
N682 N 0.92311 0.68155 0.96201 0.0
N683 N 0.90785 0.65094 0.87519 0.0
H684 H 0.35119 0.26316 0.04148 0.0
H685 H 0.31113 0.24255 0.79687 0.0
H686 H 0.30184 0.2316 0.02056 0.0
H687 H 0.36053 0.26073 0.81818 0.0
H688 H 0.30754 0.2425 0.87882 0.0
H689 H 0.35474 0.26642 0.95948 0.0
C690 C 0.34108 0.25703 0.01969 0.0
C691 C 0.32621 0.247 0.03789 0.0
C692 C 0.31917 0.24656 0.86547 0.0
C693 C 0.3302 0.25073 0.94415 0.0
C694 C 0.32124 0.24665 0.81873 0.0
C695 C 0.33614 0.25156 0.80066 0.0
C696 C 0.33211 0.25158 0.89433 0.0
C697 C 0.34881 0.25674 0.83064 0.0
C698 C 0.34313 0.25885 0.97291 0.0
C699 C 0.31353 0.23935 0.008 0.0
N700 N 0.34651 0.2566 0.876 0.0
N701 N 0.31582 0.24135 0.9626 0.0
H702 H 0.73531 0.09886 0.81648 0.0
H703 H 0.76607 0.06896 0.02047 0.0
H704 H 0.75375 0.06775 0.79749 0.0
H705 H 0.73469 0.08708 0.03939 0.0
H706 H 0.76257 0.06923 0.93864 0.0
H707 H 0.73582 0.09555 0.8983 0.0
C708 C 0.7394 0.09127 0.8295 0.0
C709 C 0.74456 0.08362 0.8001 0.0
C710 C 0.75636 0.07303 0.96073 0.0
C711 C 0.7453 0.0799 0.89372 0.0
C712 C 0.75838 0.07292 0.00744 0.0
C713 C 0.75071 0.07806 0.03682 0.0
C714 C 0.74678 0.07854 0.94321 0.0
C715 C 0.74084 0.08301 0.01802 0.0
C716 C 0.73964 0.08936 0.87621 0.0
C717 C 0.74966 0.07387 0.81889 0.0
N718 N 0.73928 0.08327 0.97239 0.0
N719 N 0.75005 0.07241 0.86454 0.0
H720 H 0.96724 0.40232 0.84737 0.0
H721 H 0.02694 0.43138 0.64103 0.0
H722 H 0.01673 0.42002 0.86456 0.0
H723 H 0.97732 0.40028 0.62392 0.0
H724 H 0.02349 0.4283 0.72302 0.0
H725 H 0.97064 0.4024 0.76539 0.0
C726 C 0.97881 0.40616 0.83393 0.0
C727 C 0.99173 0.41123 0.86289 0.0
C728 C 0.01337 0.42205 0.70131 0.0
C729 C 0.99572 0.41147 0.76905 0.0
C730 C 0.01533 0.42383 0.6545 0.0
C731 C 0.00239 0.41612 0.62555 0.0
C732 C -0.00166 0.41267 0.71942 0.0
C733 C 0.98762 0.40644 0.64494 0.0
C734 C 0.98073 0.40615 0.78713 0.0
C735 C 0.00644 0.41601 0.84354 0.0
N736 N 0.98598 0.40512 0.69067 0.0
N737 N 0.00806 0.41616 0.79783 0.0
H738 H 0.59495 0.57522 0.62088 0.0
H739 H 0.57569 0.59564 0.86594 0.0
H740 H 0.56416 0.5939 0.64257 0.0
H741 H 0.59293 0.56365 0.84443 0.0
H742 H 0.5754 0.59901 0.78402 0.0
H743 H 0.5983 0.57483 0.70281 0.0
C744 C 0.589 0.57937 0.64282 0.0
C745 C 0.57918 0.58452 0.62485 0.0
C746 C 0.5793 0.59131 0.7973 0.0
C747 C 0.58301 0.58414 0.71854 0.0
C748 C 0.57954 0.58942 0.84404 0.0
C749 C 0.58425 0.57927 0.86207 0.0
C750 C 0.58399 0.58312 0.76836 0.0
C751 C 0.5891 0.5715 0.83201 0.0
C752 C 0.59087 0.57908 0.68957 0.0
C753 C 0.57175 0.58973 0.65495 0.0
N754 N 0.58884 0.57359 0.78663 0.0
N755 N 0.57382 0.5894 0.70032 0.0
H756 H 0.39921 0.97787 0.86559 0.0
H757 H 0.41846 0.01868 0.62207 0.0
H758 H 0.43062 0.02731 0.84573 0.0
H759 H 0.40155 0.96941 0.64137 0.0
H760 H 0.41882 0.02194 0.70424 0.0
H761 H 0.39585 0.97456 0.78352 0.0
C762 C 0.4053 0.98805 0.84403 0.0
C763 C 0.41529 0.00288 0.86256 0.0
C764 C 0.41496 0.01041 0.69042 0.0
C765 C 0.41142 -0.00084 0.7687 0.0
C766 C 0.41468 0.00852 0.64354 0.0
C767 C 0.41005 0.99376 0.62481 0.0
C768 C 0.41039 0.99742 0.71879 0.0
C769 C 0.40531 0.98102 0.65433 0.0
C770 C 0.40342 0.98613 0.7972 0.0
C771 C 0.42289 0.01565 0.83292 0.0
N772 N 0.4056 0.98314 0.69984 0.0
N773 N 0.4208 0.0135 0.78748 0.0
H774 H 0.57468 0.97791 0.37638 0.0
H775 H 0.59436 0.01764 0.13136 0.0
H776 H 0.59292 0.02732 0.35487 0.0
H777 H 0.56296 0.96828 0.15297 0.0
H778 H 0.5978 0.02132 0.21326 0.0
H779 H 0.57421 0.9742 0.29444 0.0
C780 C 0.57872 0.988 0.35448 0.0
C781 C 0.58376 0.00294 0.37251 0.0
C782 C 0.59021 0.00968 0.20001 0.0
C783 C 0.58328 -0.00124 0.27878 0.0
C784 C 0.58828 0.00755 0.15328 0.0
C785 C 0.57828 0.99263 0.13528 0.0
C786 C 0.58222 0.99678 0.22897 0.0
C787 C 0.5707 0.98 0.16536 0.0
C788 C 0.57838 0.98586 0.30772 0.0
C789 C 0.58884 0.01558 0.34245 0.0
N790 N 0.57282 0.98236 0.21073 0.0
N791 N 0.58846 0.0132 0.29707 0.0
H792 H 0.01711 0.59537 0.37815 0.0
H793 H 0.97781 0.57555 0.13246 0.0
H794 H 0.96776 0.5642 0.35589 0.0
H795 H 0.02714 0.59357 0.1548 0.0
H796 H 0.97399 0.5752 0.21432 0.0
H797 H 0.02096 0.5987 0.29625 0.0
C798 C 0.00706 0.58933 0.35609 0.0
C799 C 0.9921 0.57941 0.37391 0.0
C800 C 0.98565 0.57929 0.20125 0.0
C801 C 0.99643 0.58322 0.28022 0.0
C802 C 0.98786 0.57955 0.15453 0.0
C803 C 0.00281 0.58451 0.13674 0.0
C804 C -0.0015 0.58418 0.2304 0.0
C805 C 0.01539 0.58955 0.16702 0.0
C806 C 0.00928 0.59119 0.30935 0.0
C807 C 0.97952 0.57187 0.34365 0.0
N808 N 0.01295 0.58926 0.21236 0.0
N809 N 0.98197 0.57392 0.29829 0.0
H810 H 0.40149 0.43312 0.15175 0.0
H811 H 0.43007 0.40179 0.35754 0.0
H812 H 0.41832 0.40063 0.1342 0.0
H813 H 0.39939 0.42078 0.37525 0.0
H814 H 0.42691 0.40221 0.27559 0.0
H815 H 0.4016 0.42976 0.23373 0.0
C816 C 0.40514 0.42522 0.16511 0.0
C817 C 0.40995 0.41718 0.13604 0.0
C818 C 0.42077 0.40616 0.29743 0.0
C819 C 0.41025 0.41341 0.22987 0.0
C820 C 0.4226 0.40597 0.34422 0.0
C821 C 0.41502 0.4113 0.37332 0.0
C822 C 0.41149 0.41197 0.27949 0.0
C823 C 0.40543 0.41653 0.3541 0.0
C824 C 0.40515 0.42328 0.21191 0.0
C825 C 0.4145 0.40705 0.1553 0.0
N826 N 0.40407 0.41689 0.30839 0.0
N827 N 0.41469 0.40558 0.201 0.0
H828 H 0.34414 0.21037 0.15925 0.0
H829 H 0.31836 0.11961 0.17024 0.0
H830 H 0.29598 0.17306 0.16052 0.0
H831 H 0.36651 0.15693 0.16885 0.0
H832 H 0.30997 0.13901 0.16718 0.0
H833 H 0.35252 0.19096 0.16215 0.0
C834 C 0.3353 0.19808 0.15992 0.0
C835 C 0.31931 0.19334 0.15968 0.0
C836 C 0.32237 0.14298 0.16764 0.0
C837 C 0.32888 0.17103 0.16328 0.0
C838 C 0.32719 0.1319 0.1695 0.0
C839 C 0.34319 0.13664 0.16977 0.0
C840 C 0.33361 0.15895 0.166 0.0
C841 C 0.35407 0.15273 0.16873 0.0
C842 C 0.34012 0.187 0.16169 0.0
C843 C 0.30843 0.17725 0.16062 0.0
N844 N 0.34907 0.1633 0.1668 0.0
N845 N 0.31342 0.16668 0.16249 0.0
H846 H 0.82407 0.12136 0.16172 0.0
H847 H 0.83875 0.20889 0.17332 0.0
H848 H 0.78704 0.13262 0.16141 0.0
H849 H 0.87583 0.1977 0.17266 0.0
H850 H 0.81958 0.18094 0.16998 0.0
H851 H 0.84325 0.14931 0.16554 0.0
C852 C 0.81997 0.1297 0.16222 0.0
C853 C 0.80391 0.12463 0.16126 0.0
C854 C 0.83192 0.1846 0.17068 0.0
C855 C 0.82579 0.15662 0.16595 0.0
C856 C 0.84286 0.20057 0.17273 0.0
C857 C 0.85892 0.20566 0.17322 0.0
C858 C 0.83706 0.17365 0.16907 0.0
C859 C 0.86357 0.19433 0.1723 0.0
C860 C 0.83092 0.14566 0.16454 0.0
C861 C 0.79929 0.13597 0.16209 0.0
N862 N 0.8527 0.17888 0.17017 0.0
N863 N 0.81016 0.15142 0.16448 0.0
H864 H 0.8747 0.70155 0.15905 0.0
H865 H 0.78708 0.62887 0.16927 0.0
H866 H 0.86338 0.65323 0.15956 0.0
H867 H 0.79847 0.67721 0.16954 0.0
H868 H 0.81501 0.63756 0.16602 0.0
H869 H 0.84677 0.69284 0.16204 0.0
C870 C 0.86635 0.68912 0.15955 0.0
C871 C 0.87141 0.67812 0.15909 0.0
C872 C 0.81139 0.64626 0.16689 0.0
C873 C 0.83941 0.66806 0.16282 0.0
C874 C 0.79544 0.6413 0.16888 0.0
C875 C 0.79041 0.65232 0.16966 0.0
C876 C 0.82239 0.66235 0.16563 0.0
C877 C 0.80179 0.66828 0.16898 0.0
C878 C 0.8504 0.68415 0.16139 0.0
C879 C 0.86004 0.66215 0.15989 0.0
N880 N 0.81722 0.6728 0.16692 0.0
N881 N 0.8446 0.65761 0.1618 0.0
H882 H 0.15616 0.36703 0.32404 0.0
H883 H 0.17126 0.29457 0.34187 0.0
H884 H 0.11927 0.31868 0.32495 0.0
H885 H 0.20812 0.34293 0.34084 0.0
H886 H 0.15198 0.30317 0.33643 0.0
H887 H 0.17541 0.35841 0.32967 0.0
C888 C 0.15211 0.35461 0.32517 0.0
C889 C 0.13607 0.34357 0.32405 0.0
C890 C 0.1643 0.31189 0.33751 0.0
C891 C 0.15803 0.33362 0.33083 0.0
C892 C 0.1753 0.30699 0.34077 0.0
C893 C 0.19134 0.31803 0.34177 0.0
C894 C 0.16935 0.32796 0.33521 0.0
C895 C 0.19589 0.33398 0.34014 0.0
C896 C 0.1631 0.34969 0.32853 0.0
C897 C 0.1315 0.32762 0.32572 0.0
N898 N 0.18496 0.33846 0.33684 0.0
N899 N 0.14242 0.32313 0.32912 0.0
H900 H 0.62879 0.78782 0.32358 0.0
H901 H 0.70044 0.87575 0.34313 0.0
H902 H 0.67732 0.79992 0.32555 0.0
H903 H 0.65193 0.86372 0.3408 0.0
H904 H 0.69217 0.84796 0.33747 0.0
H905 H 0.63703 0.81561 0.32931 0.0
C906 C 0.64117 0.79631 0.32494 0.0
C907 C 0.65237 0.79152 0.32411 0.0
C908 C 0.68334 0.8514 0.33832 0.0
C909 C 0.66188 0.82333 0.33104 0.0
C910 C 0.68805 0.86727 0.3417 0.0
C911 C 0.67687 0.87209 0.3424 0.0
C912 C 0.66732 0.84026 0.33557 0.0
C913 C 0.66097 0.86056 0.34035 0.0
C914 C 0.64587 0.81218 0.32837 0.0
C915 C 0.66826 0.80306 0.3261 0.0
N916 N 0.65668 0.84521 0.33693 0.0
N917 N 0.67253 0.8184 0.32957 0.0
H918 H 0.20789 0.83901 0.32926 0.0
H919 H 0.12041 0.82418 0.34492 0.0
H920 H 0.19672 0.8761 0.32847 0.0
H921 H 0.1319 0.78731 0.34518 0.0
H922 H 0.14833 0.84347 0.34049 0.0
H923 H 0.18004 0.8199 0.33554 0.0
C924 C 0.19959 0.84314 0.33022 0.0
C925 C 0.20467 0.85919 0.3283 0.0
C926 C 0.14473 0.83115 0.34166 0.0
C927 C 0.17273 0.83737 0.33577 0.0
C928 C 0.12879 0.82014 0.34434 0.0
C929 C 0.12379 0.8041 0.34534 0.0
C930 C 0.15574 0.82609 0.33993 0.0
C931 C 0.13519 0.79954 0.34441 0.0
C932 C 0.18367 0.83222 0.33393 0.0
C933 C 0.19335 0.86385 0.3298 0.0
N934 N 0.1506 0.81047 0.34164 0.0
N935 N 0.17793 0.853 0.33349 0.0
H936 H 0.67735 0.87727 0.82573 0.0
H937 H 0.65163 0.7866 0.84099 0.0
H938 H 0.62922 0.83992 0.82812 0.0
H939 H 0.69979 0.82388 0.83783 0.0
H940 H 0.64325 0.80598 0.83708 0.0
H941 H 0.68578 0.85791 0.82971 0.0
C942 C 0.66853 0.86499 0.82686 0.0
C943 C 0.65253 0.86022 0.82662 0.0
C944 C 0.65565 0.80994 0.83735 0.0
C945 C 0.66215 0.83796 0.8315 0.0
C946 C 0.66047 0.79887 0.8397 0.0
C947 C 0.67647 0.80361 0.83969 0.0
C948 C 0.66689 0.82591 0.83491 0.0
C949 C 0.68735 0.81969 0.83796 0.0
C950 C 0.67337 0.85393 0.82925 0.0
C951 C 0.64167 0.84414 0.82818 0.0
N952 N 0.68236 0.83026 0.83553 0.0
N953 N 0.64668 0.83359 0.83066 0.0
H954 H 0.20908 0.86421 0.83248 0.0
H955 H 0.11857 0.79856 0.8212 0.0
H956 H 0.17132 0.8744 0.82865 0.0
H957 H 0.15608 0.78802 0.82505 0.0
H958 H 0.13782 0.82638 0.82237 0.0
H959 H 0.18994 0.83631 0.82917 0.0
C960 C 0.19676 0.86059 0.83107 0.0
C961 C 0.1918 0.87168 0.83088 0.0
C962 C 0.14187 0.818 0.82283 0.0
C963 C 0.16982 0.83971 0.82687 0.0
C964 C 0.13087 0.80208 0.82208 0.0
C965 C 0.13571 0.79091 0.82313 0.0
C966 C 0.15787 0.82285 0.82473 0.0
C967 C 0.15181 0.79621 0.8242 0.0
C968 C 0.18584 0.84464 0.82909 0.0
C969 C 0.17569 0.86628 0.82893 0.0
N970 N 0.16232 0.81181 0.82511 0.0
N971 N 0.16528 0.85068 0.82698 0.0
H972 H 0.12063 0.29488 0.83651 0.0
H973 H 0.20802 0.36801 0.82708 0.0
H974 H 0.13164 0.3431 0.83747 0.0
H975 H 0.19701 0.31979 0.82657 0.0
H976 H 0.18004 0.35911 0.83017 0.0
H977 H 0.14861 0.30378 0.83327 0.0
C978 C 0.12892 0.30733 0.83627 0.0
C979 C 0.12377 0.31825 0.83724 0.0
C980 C 0.18376 0.35048 0.82928 0.0
C981 C 0.1558 0.32853 0.83323 0.0
C982 C 0.19973 0.35556 0.82738 0.0
C983 C 0.20489 0.34464 0.8266 0.0
C984 C 0.17285 0.33436 0.83043 0.0
C985 C 0.1936 0.32864 0.82716 0.0
C986 C 0.1449 0.31241 0.83429 0.0
C987 C 0.13506 0.33425 0.83676 0.0
N988 N 0.17814 0.324 0.82913 0.0
N989 N 0.15052 0.33889 0.8347 0.0
H990 H 0.78601 0.65277 0.65513 0.0
H991 H 0.8767 0.6791 0.67604 0.0
H992 H 0.82312 0.70101 0.65746 0.0
H993 H 0.83964 0.63084 0.67365 0.0
H994 H 0.85722 0.68731 0.66999 0.0
H995 H 0.80547 0.64453 0.6613 0.0
C996 C 0.79826 0.66165 0.65669 0.0
C997 C 0.80293 0.67763 0.65581 0.0
C998 C 0.85333 0.67492 0.67091 0.0
C999 C 0.8253 0.66823 0.66322 0.0
C1000 C 0.86445 0.67021 0.6745 0.0
C1001 C 0.85981 0.65423 0.67531 0.0
C1002 C 0.83741 0.6636 0.66804 0.0
C1003 C 0.84376 0.64327 0.67318 0.0
C1004 C 0.80937 0.65692 0.66035 0.0
C1005 C 0.81898 0.68857 0.65798 0.0
N1006 N 0.83314 0.64816 0.66951 0.0
N1007 N 0.82959 0.68367 0.6617 0.0
H1008 H 0.36694 0.20844 0.67558 0.0
H1009 H 0.29398 0.12129 0.65424 0.0
H1010 H 0.31871 0.19737 0.67425 0.0
H1011 H 0.34215 0.1322 0.6561 0.0
H1012 H 0.30286 0.1492 0.66066 0.0
H1013 H 0.35812 0.18053 0.66894 0.0
C1014 C 0.35451 0.20015 0.67418 0.0
C1015 C 0.34356 0.20527 0.67544 0.0
C1016 C 0.31149 0.14548 0.65954 0.0
C1017 C 0.33338 0.17333 0.66747 0.0
C1018 C 0.30642 0.12955 0.65571 0.0
C1019 C 0.31732 0.12438 0.65468 0.0
C1020 C 0.32758 0.15634 0.66239 0.0
C1021 C 0.33331 0.13563 0.6568 0.0
C1022 C 0.34947 0.18422 0.67022 0.0
C1023 C 0.32759 0.19398 0.67337 0.0
N1024 N 0.33795 0.15106 0.66067 0.0
N1025 N 0.32299 0.17857 0.66939 0.0
H1026 H 0.79875 0.11971 0.67419 0.0
H1027 H 0.86296 0.21052 0.65475 0.0
H1028 H 0.78749 0.15674 0.67226 0.0
H1029 H 0.87426 0.17352 0.65694 0.0
H1030 H 0.83527 0.19097 0.6601 0.0
H1031 H 0.82643 0.13924 0.66815 0.0
C1032 C 0.80209 0.13196 0.67274 0.0
C1033 C 0.79075 0.13659 0.67372 0.0
C1034 C 0.84379 0.18711 0.65928 0.0
C1035 C 0.8225 0.15904 0.66647 0.0
C1036 C 0.85963 0.19827 0.6561 0.0
C1037 C 0.87098 0.19366 0.65547 0.0
C1038 C 0.83922 0.17118 0.66193 0.0
C1039 C 0.86593 0.17761 0.65731 0.0
C1040 C 0.81792 0.14311 0.66915 0.0
C1041 C 0.79581 0.15264 0.67167 0.0
N1042 N 0.85042 0.16695 0.66059 0.0
N1043 N 0.81131 0.16328 0.66804 0.0
H1044 H 0.03196 0.4892 0.50422 0.0
H1045 H 0.96 0.50522 0.49444 0.0
H1046 H 0.98356 0.45248 0.50116 0.0
H1047 H 0.00851 0.54169 0.49629 0.0
H1048 H 0.96831 0.48566 0.49655 0.0
H1049 H 0.02349 0.50859 0.50205 0.0
C1050 C 0.01955 0.4852 0.5033 0.0
C1051 C 0.00846 0.46918 0.50286 0.0
C1052 C 0.97712 0.49795 0.49639 0.0
C1053 C -0.00133 0.49133 0.50009 0.0
C1054 C 0.97239 0.50912 0.49506 0.0
C1055 C 0.98357 0.52513 0.49522 0.0
C1056 C 0.99316 0.50281 0.49793 0.0
C1057 C -0.00053 0.52949 0.49615 0.0
C1058 C 0.01472 0.49629 0.50195 0.0
C1059 C 0.99253 0.4647 0.50157 0.0
N1060 N 0.00377 0.5184 0.49756 0.0
N1061 N 0.98812 0.47572 0.50015 0.0
H1062 H 0.48823 0.4545 0.49366 0.0
H1063 H 0.50504 0.54273 0.50435 0.0
H1064 H 0.45179 0.46656 0.49799 0.0
H1065 H 0.54118 0.53023 0.50211 0.0
H1066 H 0.48529 0.51492 0.50218 0.0
H1067 H 0.50778 0.48229 0.49581 0.0
C1068 C 0.48433 0.46298 0.49485 0.0
C1069 C 0.46834 0.45817 0.49566 0.0
C1070 C 0.49755 0.51828 0.50227 0.0
C1071 C 0.49068 0.49005 0.49841 0.0
C1072 C 0.50882 0.53415 0.50363 0.0
C1073 C 0.52479 0.53883 0.50339 0.0
C1074 C 0.50227 0.50701 0.50061 0.0
C1075 C 0.52901 0.52719 0.50233 0.0
C1076 C 0.49551 0.47886 0.4962 0.0
C1077 C 0.46399 0.46972 0.49729 0.0
N1078 N 0.51783 0.51184 0.50089 0.0
N1079 N 0.4751 0.48511 0.49869 0.0
H1080 H 0.52968 0.98631 0.49326 0.0
H1081 H 0.46561 0.01335 0.50094 0.0
H1082 H 0.54154 0.03478 0.49505 0.0
H1083 H 0.45451 0.96511 0.50343 0.0
H1084 H 0.49342 0.02155 0.49845 0.0
H1085 H 0.50207 0.97848 0.49554 0.0
C1086 C 0.52649 0.99533 0.49393 0.0
C1087 C 0.53798 0.01125 0.49401 0.0
C1088 C 0.4849 0.00918 0.49965 0.0
C1089 C 0.50626 0.00231 0.49689 0.0
C1090 C 0.46901 0.00447 0.50119 0.0
C1091 C 0.45769 0.9885 0.50238 0.0
C1092 C 0.48952 0.99783 0.49923 0.0
C1093 C 0.4628 0.97754 0.50255 0.0
C1094 C 0.51069 0.99084 0.49535 0.0
C1095 C 0.53309 0.02238 0.49491 0.0
N1096 N 0.47833 0.98242 0.50089 0.0
N1097 N 0.51759 0.0177 0.49641 0.0
H1098 H 0.48877 0.0328 0.98641 0.0
H1099 H 0.50441 0.96082 0.00974 0.0
H1100 H 0.45191 0.98446 0.99078 0.0
H1101 H 0.54091 0.00934 0.0089 0.0
H1102 H 0.48493 0.96914 0.0029 0.0
H1103 H 0.50805 0.02429 0.99329 0.0
C1104 C 0.48472 0.02039 0.98853 0.0
C1105 C 0.46869 0.00934 0.98804 0.0
C1106 C 0.4972 0.97796 0.00436 0.0
C1107 C 0.49071 -0.00049 0.99631 0.0
C1108 C 0.50833 0.97321 0.00842 0.0
C1109 C 0.52433 0.98439 0.00985 0.0
C1110 C 0.50212 0.99398 0.00164 0.0
C1111 C 0.52871 0.00029 0.00789 0.0
C1112 C 0.49574 0.01554 0.99263 0.0
C1113 C 0.46415 0.99341 0.99101 0.0
N1114 N 0.51769 0.0046 0.00376 0.0
N1115 N 0.4751 0.98898 0.99511 0.0
H1116 H 0.03478 0.54249 0.01155 0.0
H1117 H 0.96267 0.45493 0.98903 0.0
H1118 H 0.98631 0.5306 0.01058 0.0
H1119 H 0.01098 0.46631 0.99222 0.0
H1120 H 0.97124 0.48273 0.99587 0.0
H1121 H 0.02641 0.51466 0.00483 0.0
C1122 C 0.02239 0.53404 0.01023 0.0
C1123 C 0.01124 0.5389 0.01159 0.0
C1124 C 0.97997 0.47915 0.99496 0.0
C1125 C 0.00158 0.50707 0.00352 0.0
C1126 C 0.97508 0.46327 0.99089 0.0
C1127 C 0.98612 0.45826 0.99007 0.0
C1128 C 0.99602 0.49014 0.99828 0.0
C1129 C 0.00205 0.46963 0.99271 0.0
C1130 C 0.01761 0.51816 0.00623 0.0
C1131 C 0.99534 0.52742 0.00962 0.0
N1132 N 0.00652 0.48502 0.99679 0.0
N1133 N 0.991 0.51207 0.00557 0.0
H1134 H 0.46518 0.4522 0.00828 0.0
H1135 H 0.53001 0.54274 0.98608 0.0
H1136 H 0.45471 0.48978 0.00839 0.0
H1137 H 0.54104 0.50555 0.98914 0.0
H1138 H 0.50234 0.52336 0.99277 0.0
H1139 H 0.49297 0.47145 0.00124 0.0
C1140 C 0.46872 0.4645 0.00711 0.0
C1141 C 0.45757 0.46938 0.00891 0.0
C1142 C 0.51079 0.51941 0.99187 0.0
C1143 C 0.48939 0.49147 0.00047 0.0
C1144 C 0.52662 0.53048 0.98789 0.0
C1145 C 0.5379 0.52577 0.98711 0.0
C1146 C 0.50613 0.50348 0.99514 0.0
C1147 C 0.53276 0.50971 0.98958 0.0
C1148 C 0.4846 0.47548 0.00294 0.0
C1149 C 0.46287 0.48548 0.00715 0.0
N1150 N 0.51725 0.49914 0.99362 0.0
N1151 N 0.47839 0.49593 0.00291 0.0
H1152 H 0.39316 0.02674 0.02091 0.0
H1153 H 0.40317 0.10565 0.12871 0.0
H1154 H 0.43799 0.06906 0.03189 0.0
H1155 H 0.36009 0.06125 0.12845 0.0
H1156 H 0.41633 0.09305 0.09218 0.0
H1157 H 0.38086 0.04005 0.05658 0.0
C1158 C 0.40042 0.03891 0.03041 0.0
C1159 C 0.41666 0.04677 0.02351 0.0
C1160 C 0.40402 0.08608 0.10042 0.0
C1161 C 0.4026 0.0621 0.06515 0.0
C1162 C 0.39652 0.09324 0.12153 0.0
C1163 C 0.38048 0.08451 0.13162 0.0
C1164 C 0.39539 0.07012 0.0892 0.0
C1165 C 0.37245 0.06848 0.12128 0.0
C1166 C 0.39338 0.04649 0.05109 0.0
C1167 C 0.42543 0.06255 0.03651 0.0
N1168 N 0.37996 0.06185 0.10047 0.0
N1169 N 0.41829 0.06969 0.05695 0.0
H1170 H 0.89007 0.2966 0.13161 0.0
H1171 H 0.96864 0.36525 0.02163 0.0
H1172 H 0.93437 0.29772 0.12957 0.0
H1173 H 0.92641 0.36787 0.0342 0.0
H1174 H 0.95541 0.33966 0.05744 0.0
H1175 H 0.90259 0.32231 0.09484 0.0
C1176 C 0.90245 0.30232 0.12397 0.0
C1177 C 0.91117 0.29496 0.13364 0.0
C1178 C 0.94897 0.34576 0.05226 0.0
C1179 C 0.92546 0.3242 0.09096 0.0
C1180 C 0.95651 0.36038 0.0315 0.0
C1181 C 0.94865 0.36878 0.02501 0.0
C1182 C 0.93343 0.33941 0.06681 0.0
C1183 C 0.93292 0.3618 0.03849 0.0
C1184 C 0.90956 0.31694 0.10273 0.0
C1185 C 0.92715 0.30289 0.12274 0.0
N1186 N 0.92583 0.34754 0.059 0.0
N1187 N 0.93373 0.317 0.10182 0.0
H1188 H 0.69807 0.63623 0.13215 0.0
H1189 H 0.62882 0.55712 0.02628 0.0
H1190 H 0.69967 0.59334 0.12538 0.0
H1191 H 0.63016 0.60154 0.02565 0.0
H1192 H 0.65456 0.56975 0.06282 0.0
H1193 H 0.67253 0.62305 0.09592 0.0
C1194 C 0.69298 0.62398 0.12348 0.0
C1195 C 0.70108 0.6159 0.13175 0.0
C1196 C 0.64924 0.57673 0.0544 0.0
C1197 C 0.67179 0.60073 0.0895 0.0
C1198 C 0.63459 0.56955 0.03327 0.0
C1199 C 0.62729 0.57827 0.02295 0.0
C1200 C 0.65657 0.59271 0.06537 0.0
C1201 C 0.63529 0.59432 0.03302 0.0
C1202 C 0.6784 0.61646 0.10248 0.0
C1203 C 0.69384 0.60002 0.11972 0.0
N1204 N 0.64943 0.60097 0.05384 0.0
N1205 N 0.67963 0.59296 0.09897 0.0
H1206 H 0.02512 0.39336 0.46419 0.0
H1207 H 0.10444 0.40308 0.36061 0.0
H1208 H 0.06779 0.43799 0.45564 0.0
H1209 H 0.0601 0.35992 0.36065 0.0
H1210 H 0.09166 0.41629 0.39569 0.0
H1211 H 0.03842 0.38095 0.429 0.0
C1212 C 0.03735 0.40056 0.45531 0.0
C1213 C 0.04533 0.41677 0.46282 0.0
C1214 C 0.08474 0.40395 0.38773 0.0
C1215 C 0.06065 0.40259 0.42179 0.0
C1216 C 0.092 0.39642 0.36745 0.0
C1217 C 0.08334 0.38035 0.35775 0.0
C1218 C 0.06875 0.39532 0.39848 0.0
C1219 C 0.06728 0.37231 0.36757 0.0
C1220 C 0.04493 0.39346 0.43492 0.0
C1221 C 0.06119 0.42545 0.45056 0.0
N1222 N 0.06055 0.37985 0.38757 0.0
N1223 N 0.06832 0.41826 0.43044 0.0
H1224 H 0.63717 0.69932 0.35852 0.0
H1225 H 0.55784 0.62986 0.46269 0.0
H1226 H 0.59408 0.70058 0.36416 0.0
H1227 H 0.60178 0.63024 0.45955 0.0
H1228 H 0.57066 0.6557 0.42691 0.0
H1229 H 0.62391 0.67354 0.39345 0.0
C1230 C 0.62486 0.69411 0.36667 0.0
C1231 C 0.61674 0.70217 0.35847 0.0
C1232 C 0.57749 0.65014 0.43429 0.0
C1233 C 0.60149 0.67262 0.39919 0.0
C1234 C 0.57021 0.63544 0.45499 0.0
C1235 C 0.57874 0.62784 0.46411 0.0
C1236 C 0.59339 0.65727 0.42258 0.0
C1237 C 0.59471 0.63561 0.45315 0.0
C1238 C 0.61731 0.67939 0.38689 0.0
C1239 C 0.6008 0.69478 0.36979 0.0
N1240 N 0.60149 0.64984 0.43283 0.0
N1241 N 0.59371 0.68045 0.38982 0.0
H1242 H 0.29814 0.93519 0.34608 0.0
H1243 H 0.36748 0.92722 0.45934 0.0
H1244 H 0.29561 0.89058 0.36468 0.0
H1245 H 0.3652 0.96979 0.45562 0.0
H1246 H 0.34188 0.91346 0.42196 0.0
H1247 H 0.32394 0.9481 0.38058 0.0
C1248 C 0.30309 0.9281 0.35697 0.0
C1249 C 0.29463 0.91175 0.3527 0.0
C1250 C 0.34698 0.92579 0.42961 0.0
C1251 C 0.32423 0.92651 0.39306 0.0
C1252 C 0.36154 0.93363 0.45118 0.0
C1253 C 0.36852 0.9497 0.46064 0.0
C1254 C 0.33944 0.93411 0.41723 0.0
C1255 C 0.36032 0.95742 0.44904 0.0
C1256 C 0.31782 0.93549 0.37699 0.0
C1257 C 0.30172 0.90321 0.36728 0.0
N1258 N 0.34629 0.94958 0.42779 0.0
N1259 N 0.31609 0.91069 0.38715 0.0
H1260 H 0.60146 0.96955 0.975 0.0
H1261 H 0.59238 0.89078 0.86877 0.0
H1262 H 0.55725 0.92635 0.96867 0.0
H1263 H 0.63524 0.93539 0.86847 0.0
H1264 H 0.57912 0.90318 0.9057 0.0
H1265 H 0.61405 0.95657 0.93885 0.0
C1266 C 0.5944 0.95727 0.96645 0.0
C1267 C 0.57824 0.94905 0.9748 0.0
C1268 C 0.5914 0.91024 0.89727 0.0
C1269 C 0.59261 0.93411 0.93263 0.0
C1270 C 0.59896 0.9032 0.87592 0.0
C1271 C 0.61497 0.91204 0.86554 0.0
C1272 C 0.59993 0.92622 0.90841 0.0
C1273 C 0.6229 0.92808 0.87585 0.0
C1274 C 0.6016 0.94987 0.9455 0.0
C1275 C 0.56974 0.93314 0.96294 0.0
N1276 N 0.61533 0.9346 0.89687 0.0
N1277 N 0.57701 0.9262 0.94221 0.0
H1278 H 0.10508 0.70028 0.86951 0.0
H1279 H 0.0264 0.63106 0.97758 0.0
H1280 H 0.06058 0.69877 0.86996 0.0
H1281 H 0.06945 0.62978 0.97071 0.0
H1282 H 0.03943 0.65659 0.94124 0.0
H1283 H 0.09268 0.67472 0.90708 0.0
C1284 C 0.09268 0.69451 0.87696 0.0
C1285 C 0.08387 0.70171 0.8666 0.0
C1286 C 0.04608 0.65079 0.94782 0.0
C1287 C 0.0697 0.67263 0.91019 0.0
C1288 C 0.03866 0.63622 0.96888 0.0
C1289 C 0.04682 0.62821 0.97711 0.0
C1290 C 0.06181 0.65748 0.93469 0.0
C1291 C 0.06271 0.63553 0.96507 0.0
C1292 C 0.08564 0.67997 0.89868 0.0
C1293 C 0.06787 0.69371 0.87732 0.0
N1294 N 0.06968 0.64973 0.9442 0.0
N1295 N 0.06135 0.67967 0.89867 0.0
H1296 H 0.36729 0.44033 0.96674 0.0
H1297 H 0.29736 0.36121 0.86335 0.0
H1298 H 0.36441 0.39524 0.97321 0.0
H1299 H 0.29574 0.40409 0.87027 0.0
H1300 H 0.3229 0.37438 0.89943 0.0
H1301 H 0.34156 0.42792 0.92993 0.0
C1302 C 0.36118 0.42782 0.96099 0.0
C1303 C 0.36805 0.41883 0.97299 0.0
C1304 C 0.31703 0.38097 0.89297 0.0
C1305 C 0.33883 0.40466 0.93028 0.0
C1306 C 0.30245 0.37347 0.87203 0.0
C1307 C 0.29434 0.38153 0.86389 0.0
C1308 C 0.32364 0.39671 0.90599 0.0
C1309 C 0.30158 0.39742 0.87588 0.0
C1310 C 0.34656 0.42077 0.93973 0.0
C1311 C 0.35964 0.40267 0.96449 0.0
N1312 N 0.31581 0.40449 0.89657 0.0
N1313 N 0.34555 0.39616 0.94347 0.0
H1314 H 0.93579 0.63752 0.64098 0.0
H1315 H 0.92523 0.55794 0.53652 0.0
H1316 H 0.89114 0.59481 0.6344 0.0
H1317 H 0.96877 0.60191 0.53791 0.0
H1318 H 0.91233 0.57087 0.57248 0.0
H1319 H 0.94805 0.62406 0.6058 0.0
C1320 C 0.92856 0.62525 0.63257 0.0
C1321 C 0.91239 0.61731 0.64058 0.0
C1322 C 0.92469 0.57768 0.56465 0.0
C1323 C 0.92638 0.60181 0.59954 0.0
C1324 C 0.93204 0.57033 0.54385 0.0
C1325 C 0.94812 0.57884 0.53422 0.0
C1326 C 0.9335 0.59362 0.57596 0.0
C1327 C 0.95636 0.59486 0.54473 0.0
C1328 C 0.93558 0.61758 0.61219 0.0
C1329 C 0.90366 0.60139 0.62892 0.0
N1330 N 0.94898 0.60168 0.56518 0.0
N1331 N 0.91075 0.59418 0.60875 0.0
H1332 H 0.39263 0.36586 0.53667 0.0
H1333 H 0.40313 0.29646 0.6382 0.0
H1334 H 0.43731 0.36783 0.54198 0.0
H1335 H 0.36004 0.29774 0.6416 0.0
H1336 H 0.41611 0.32241 0.60287 0.0
H1337 H 0.38053 0.34027 0.57251 0.0
C1338 C 0.3999 0.36084 0.54497 0.0
C1339 C 0.41604 0.36905 0.53635 0.0
C1340 C 0.40384 0.31703 0.61166 0.0
C1341 C 0.40221 0.33969 0.57813 0.0
C1342 C 0.39645 0.30226 0.6321 0.0
C1343 C 0.38045 0.29488 0.64277 0.0
C1344 C 0.39514 0.32439 0.60175 0.0
C1345 C 0.37237 0.30292 0.63386 0.0
C1346 C 0.39297 0.34623 0.56574 0.0
C1347 C 0.42482 0.36191 0.54792 0.0
N1348 N 0.37977 0.31717 0.61368 0.0
N1349 N 0.4178 0.34765 0.56842 0.0
H1350 H 0.62965 0.02588 0.53477 0.0
H1351 H 0.69984 0.10529 0.6362 0.0
H1352 H 0.62893 0.06927 0.53813 0.0
H1353 H 0.69826 0.06076 0.6379 0.0
H1354 H 0.67395 0.09261 0.60064 0.0
H1355 H 0.65529 0.03898 0.57049 0.0
C1356 C 0.63495 0.03822 0.5426 0.0
C1357 C 0.62709 0.04647 0.53348 0.0
C1358 C 0.67925 0.08562 0.60908 0.0
C1359 C 0.65648 0.06156 0.5751 0.0
C1360 C 0.69398 0.09282 0.62965 0.0
C1361 C 0.70127 0.08409 0.63998 0.0
C1362 C 0.6718 0.06959 0.59869 0.0
C1363 C 0.69315 0.06799 0.63049 0.0
C1364 C 0.64959 0.04569 0.56328 0.0
C1365 C 0.63458 0.06245 0.54445 0.0
N1366 N 0.67892 0.06131 0.61021 0.0
N1367 N 0.64884 0.06947 0.5649 0.0
H1368 H 0.69314 0.72774 0.8025 0.0
H1369 H 0.77195 0.73749 0.69484 0.0
H1370 H 0.73587 0.77232 0.794 0.0
H1371 H 0.72744 0.69452 0.69426 0.0
H1372 H 0.75943 0.75065 0.73174 0.0
H1373 H 0.70626 0.71537 0.76604 0.0
C1374 C 0.70535 0.73493 0.79339 0.0
C1375 C 0.71339 0.75112 0.80123 0.0
C1376 C 0.75242 0.73837 0.72323 0.0
C1377 C 0.7285 0.73699 0.75871 0.0
C1378 C 0.75952 0.73087 0.70191 0.0
C1379 C 0.75075 0.71485 0.6915 0.0
C1380 C 0.73645 0.72976 0.73433 0.0
C1381 C 0.73471 0.70686 0.70168 0.0
C1382 C 0.71283 0.72785 0.77226 0.0
C1383 C 0.72922 0.75979 0.78868 0.0
N1384 N 0.72812 0.71437 0.72271 0.0
N1385 N 0.73625 0.75263 0.7678 0.0
H1386 H 0.26661 0.96564 0.80896 0.0
H1387 H 0.25694 0.03353 0.69258 0.0
H1388 H 0.22157 0.96215 0.79031 0.0
H1389 H 0.29997 0.03215 0.69644 0.0
H1390 H 0.24361 0.00803 0.73058 0.0
H1391 H 0.27903 0.9912 0.77296 0.0
C1392 C 0.25932 0.97033 0.79775 0.0
C1393 C 0.243 0.96167 0.80247 0.0
C1394 C 0.25594 0.0133 0.7228 0.0
C1395 C 0.2572 0.99098 0.76039 0.0
C1396 C 0.26354 0.0278 0.70085 0.0
C1397 C 0.27962 0.03502 0.69134 0.0
C1398 C 0.26452 0.00605 0.73549 0.0
C1399 C 0.28759 0.02708 0.70309 0.0
C1400 C 0.26643 0.98491 0.77687 0.0
C1401 C 0.2342 0.96842 0.78741 0.0
N1402 N 0.27998 0.01311 0.72473 0.0
N1403 N 0.24141 0.98266 0.76673 0.0
H1404 H 0.03287 0.25878 0.79437 0.0
H1405 H 0.96326 0.26942 0.6952 0.0
H1406 H 0.0313 0.3017 0.80065 0.0
H1407 H 0.96175 0.22492 0.69685 0.0
H1408 H 0.98883 0.28145 0.73115 0.0
H1409 H 0.00702 0.24594 0.75844 0.0
C1410 C 0.02702 0.26545 0.78876 0.0
C1411 C 0.0343 0.28137 0.80045 0.0
C1412 C 0.98297 0.26906 0.72353 0.0
C1413 C 0.00489 0.26683 0.75876 0.0
C1414 C 0.96837 0.26218 0.70269 0.0
C1415 C 0.9603 0.24611 0.69304 0.0
C1416 C 0.98963 0.25984 0.73496 0.0
C1417 C 0.96756 0.23736 0.70361 0.0
C1418 C 0.01232 0.25814 0.76798 0.0
C1419 C 0.0262 0.28944 0.79214 0.0
N1420 N 0.9818 0.24433 0.72421 0.0
N1421 N 0.01201 0.28211 0.77162 0.0
H1422 H 0.30234 0.26903 0.19715 0.0
H1423 H 0.22307 0.25876 0.3029 0.0
H1424 H 0.25966 0.22437 0.20436 0.0
H1425 H 0.26739 0.30193 0.30371 0.0
H1426 H 0.23581 0.24575 0.26643 0.0
H1427 H 0.28902 0.28128 0.2332 0.0
C1428 C 0.2901 0.2618 0.20589 0.0
C1429 C 0.28213 0.24562 0.19781 0.0
C1430 C 0.24274 0.25804 0.27488 0.0
C1431 C 0.26679 0.2596 0.23986 0.0
C1432 C 0.2355 0.26546 0.29597 0.0
C1433 C 0.24416 0.28149 0.30631 0.0
C1434 C 0.25871 0.26674 0.26397 0.0
C1435 C 0.26022 0.28958 0.29631 0.0
C1436 C 0.28251 0.2688 0.22678 0.0
C1437 C 0.26625 0.23689 0.20988 0.0
N1438 N 0.26692 0.28215 0.27553 0.0
N1439 N 0.25912 0.24398 0.23055 0.0
H1440 H 0.69247 0.96422 0.30485 0.0
H1441 H 0.77228 0.03368 0.203 0.0
H1442 H 0.73553 0.96289 0.30202 0.0
H1443 H 0.72789 0.03237 0.19941 0.0
H1444 H 0.7594 0.00792 0.23938 0.0
H1445 H 0.70585 0.98981 0.26883 0.0
C1446 C 0.7048 0.96938 0.29709 0.0
C1447 C 0.71287 0.96135 0.30641 0.0
C1448 C 0.75249 0.01325 0.23035 0.0
C1449 C 0.72827 0.99068 0.26441 0.0
C1450 C 0.75981 0.02791 0.2093 0.0
C1451 C 0.75117 0.03523 0.1982 0.0
C1452 C 0.73645 0.00591 0.24043 0.0
C1453 C 0.73506 0.02722 0.20741 0.0
C1454 C 0.71243 0.98398 0.27622 0.0
C1455 C 0.72885 0.96866 0.29552 0.0
N1456 N 0.72826 0.01307 0.22816 0.0
N1457 N 0.73602 0.98289 0.27487 0.0
H1458 H 0.03155 0.72768 0.30727 0.0
H1459 H 0.96222 0.73759 0.20209 0.0
H1460 H 0.03298 0.77212 0.3017 0.0
H1461 H 0.96354 0.6945 0.2013 0.0
H1462 H 0.98792 0.75064 0.23885 0.0
H1463 H 0.00597 0.71533 0.27123 0.0
C1464 C 0.02641 0.73484 0.2989 0.0
C1465 C 0.03447 0.75099 0.30744 0.0
C1466 C 0.9826 0.73836 0.23035 0.0
C1467 C 0.00515 0.73688 0.2654 0.0
C1468 C 0.96798 0.73092 0.2091 0.0
C1469 C 0.96069 0.7149 0.19864 0.0
C1470 C 0.98993 0.7297 0.24129 0.0
C1471 C 0.96867 0.70684 0.20876 0.0
C1472 C 0.01182 0.72777 0.27802 0.0
C1473 C 0.02718 0.75963 0.29581 0.0
N1474 N 0.98279 0.7143 0.22967 0.0
N1475 N 0.01295 0.75247 0.27514 0.0
H1476 H 0.35958 0.10569 0.01554 0.0
H1477 H 0.30075 0.0766 0.80667 0.0
H1478 H 0.30998 0.07388 0.03027 0.0
H1479 H 0.35035 0.09437 0.79178 0.0
H1480 H 0.30394 0.07807 0.88874 0.0
H1481 H 0.35639 0.1042 0.93349 0.0
C1482 C 0.34799 0.09843 0.00153 0.0
C1483 C 0.33501 0.0899 0.02981 0.0
C1484 C 0.31411 0.08163 0.86751 0.0
C1485 C 0.3313 0.08821 0.93588 0.0
C1486 C 0.31234 0.08087 0.82065 0.0
C1487 C 0.32533 0.08539 0.79232 0.0
C1488 C 0.32902 0.08714 0.88625 0.0
C1489 C 0.34002 0.09074 0.81236 0.0
C1490 C 0.34621 0.09754 0.95467 0.0
C1491 C 0.3203 0.08062 0.00972 0.0
N1492 N 0.34149 0.09154 0.85816 0.0
N1493 N 0.31883 0.08008 0.96392 0.0
H1494 H 0.92166 0.2349 0.03347 0.0
H1495 H 0.90024 0.25654 0.79386 0.0
H1496 H 0.88988 0.25273 0.01826 0.0
H1497 H 0.91809 0.22477 0.80905 0.0
H1498 H 0.89876 0.25773 0.87638 0.0
H1499 H 0.92292 0.2335 0.95096 0.0
C1500 C 0.91495 0.23851 0.01281 0.0
C1501 C 0.90562 0.24389 0.03273 0.0
C1502 C 0.90295 0.25047 0.86154 0.0
C1503 C 0.90712 0.24247 0.93861 0.0
C1504 C 0.90384 0.24982 0.81452 0.0
C1505 C 0.90925 0.24051 0.7946 0.0
C1506 C 0.90772 0.24192 0.88871 0.0
C1507 C 0.91375 0.23203 0.82297 0.0
C1508 C 0.91564 0.23767 0.96579 0.0
C1509 C 0.89716 0.24841 0.00434 0.0
N1510 N 0.91296 0.23301 0.86859 0.0
N1511 N 0.89817 0.24768 0.95872 0.0
H1512 H 0.76113 0.68648 0.03208 0.0
H1513 H 0.73945 0.64399 0.79149 0.0
H1514 H 0.74305 0.63687 0.01569 0.0
H1515 H 0.7713 0.69354 0.80769 0.0
H1516 H 0.73806 0.64113 0.87396 0.0
H1517 H 0.76243 0.68934 0.94961 0.0
C1518 C 0.75744 0.67621 0.01116 0.0
C1519 C 0.75203 0.66144 0.03074 0.0
C1520 C 0.74537 0.65261 0.85935 0.0
C1521 C 0.75334 0.66459 0.93668 0.0
C1522 C 0.74613 0.65425 0.81236 0.0
C1523 C 0.75554 0.669 0.79274 0.0
C1524 C 0.75391 0.66586 0.88679 0.0
C1525 C 0.76397 0.68192 0.82138 0.0
C1526 C 0.75822 0.67785 0.96417 0.0
C1527 C 0.7474 0.64851 0.00204 0.0
N1528 N 0.7629 0.68006 0.86697 0.0
N1529 N 0.74809 0.65037 0.95646 0.0
H1530 H 0.09393 0.35206 0.70017 0.0
H1531 H 0.0725 0.30965 0.45945 0.0
H1532 H 0.07621 0.30252 0.68356 0.0
H1533 H 0.10402 0.35926 0.47577 0.0
H1534 H 0.07111 0.30677 0.54191 0.0
H1535 H 0.09515 0.35495 0.61772 0.0
C1536 C 0.09031 0.34181 0.67921 0.0
C1537 C 0.08503 0.32705 0.69872 0.0
C1538 C 0.07835 0.31827 0.52733 0.0
C1539 C 0.08625 0.33023 0.60468 0.0
C1540 C 0.07911 0.31992 0.48035 0.0
C1541 C 0.08843 0.3347 0.46076 0.0
C1542 C 0.0868 0.33152 0.5548 0.0
C1543 C 0.09676 0.34763 0.48943 0.0
C1544 C 0.09104 0.34347 0.63223 0.0
C1545 C 0.08047 0.31415 0.66997 0.0
N1546 N 0.0957 0.34575 0.53501 0.0
N1547 N 0.08111 0.31603 0.62439 0.0
H1548 H 0.64309 0.74039 0.70067 0.0
H1549 H 0.68653 0.7626 0.4616 0.0
H1550 H 0.6926 0.77267 0.68583 0.0
H1551 H 0.63676 0.74386 0.47606 0.0
H1552 H 0.68904 0.7639 0.54414 0.0
H1553 H 0.64053 0.73903 0.61811 0.0
C1554 C 0.6534 0.74718 0.68008 0.0
C1555 C 0.66806 0.75669 0.7001 0.0
C1556 C 0.67759 0.75955 0.52914 0.0
C1557 C 0.66525 0.75509 0.606 0.0
C1558 C 0.67615 0.75876 0.48211 0.0
C1559 C 0.66144 0.75317 0.46199 0.0
C1560 C 0.66419 0.7545 0.5561 0.0
C1561 C 0.64836 0.74835 0.49016 0.0
C1562 C 0.65193 0.74644 0.63305 0.0
C1563 C 0.68105 0.76526 0.67183 0.0
N1564 N 0.65003 0.74906 0.5358 0.0
N1565 N 0.67935 0.7642 0.62621 0.0
H1566 H 0.22451 0.92147 0.68253 0.0
H1567 H 0.25473 0.8926 0.47483 0.0
H1568 H 0.25662 0.9041 0.69862 0.0
H1569 H 0.23632 0.92387 0.45925 0.0
H1570 H 0.25361 0.89472 0.55685 0.0
H1571 H 0.22678 0.92045 0.60061 0.0
C1572 C 0.23203 0.91741 0.66883 0.0
C1573 C 0.24036 0.9128 0.69747 0.0
C1574 C 0.24987 0.90116 0.53549 0.0
C1575 C 0.24295 0.91157 0.60362 0.0
C1576 C 0.25042 0.8999 0.48866 0.0
C1577 C 0.24554 0.90803 0.46015 0.0
C1578 C 0.2442 0.91045 0.55403 0.0
C1579 C 0.2402 0.91741 0.47998 0.0
C1580 C 0.23337 0.91691 0.62204 0.0
C1581 C 0.25001 0.90776 0.67778 0.0
N1582 N 0.23956 0.91828 0.52577 0.0
N1583 N 0.25096 0.90718 0.63199 0.0
H1584 H 0.64271 0.90111 0.20502 0.0
H1585 H 0.68573 0.92316 0.96539 0.0
H1586 H 0.69239 0.91944 0.1898 0.0
H1587 H 0.63621 0.89106 0.98069 0.0
H1588 H 0.68842 0.92442 0.0479 0.0
H1589 H 0.64006 0.89979 0.12252 0.0
C1590 C 0.65304 0.90485 0.18436 0.0
C1591 C 0.66777 0.91034 0.20426 0.0
C1592 C 0.67699 0.91707 0.03308 0.0
C1593 C 0.66485 0.90899 0.11017 0.0
C1594 C 0.67545 0.91639 0.98607 0.0
C1595 C 0.66075 0.90696 0.96619 0.0
C1596 C 0.6637 0.90844 0.06027 0.0
C1597 C 0.64779 0.89841 0.99458 0.0
C1598 C 0.65152 0.90405 0.13735 0.0
C1599 C 0.68078 0.91503 0.17588 0.0
N1600 N 0.64956 0.89941 0.0402 0.0
N1601 N 0.67903 0.91432 0.13026 0.0
H1602 H 0.07649 0.77311 0.19109 0.0
H1603 H 0.10598 0.74449 0.98044 0.0
H1604 H 0.09495 0.7418 0.2043 0.0
H1605 H 0.07367 0.76175 0.96714 0.0
H1606 H 0.10471 0.74617 0.06255 0.0
H1607 H 0.07803 0.77177 0.10893 0.0
C1608 C 0.08094 0.766 0.17672 0.0
C1609 C 0.08562 0.75755 0.20461 0.0
C1610 C 0.0979 0.74958 0.04166 0.0
C1611 C 0.08743 0.75603 0.11058 0.0
C1612 C 0.09866 0.74871 0.99477 0.0
C1613 C 0.08991 0.75301 0.96687 0.0
C1614 C 0.08847 0.75497 0.06088 0.0
C1615 C 0.08058 0.75829 0.98738 0.0
C1616 C 0.08173 0.76519 0.12981 0.0
C1617 C 0.09118 0.74846 0.18408 0.0
N1618 N 0.08015 0.75919 0.03321 0.0
N1619 N 0.09201 0.74799 0.13824 0.0
H1620 H 0.22291 0.30205 0.1895 0.0
H1621 H 0.25234 0.36087 0.98057 0.0
H1622 H 0.25453 0.3517 0.20424 0.0
H1623 H 0.23445 0.31124 0.96582 0.0
H1624 H 0.25075 0.35769 0.06262 0.0
H1625 H 0.22455 0.30521 0.10744 0.0
C1626 C 0.23016 0.31364 0.17549 0.0
C1627 C 0.23859 0.32665 0.20378 0.0
C1628 C 0.24719 0.3475 0.04143 0.0
C1629 C 0.24046 0.33032 0.10985 0.0
C1630 C 0.24802 0.34928 0.99458 0.0
C1631 C 0.24349 0.33627 0.96629 0.0
C1632 C 0.24162 0.33259 0.06022 0.0
C1633 C 0.23808 0.32157 0.98637 0.0
C1634 C 0.23114 0.3154 0.12863 0.0
C1635 C 0.24787 0.34136 0.1837 0.0
N1636 N 0.23722 0.32011 0.03217 0.0
N1637 N 0.2485 0.34281 0.13789 0.0
H1638 H 0.92282 0.68765 0.53808 0.0
H1639 H 0.90079 0.64445 0.29866 0.0
H1640 H 0.89114 0.63801 0.52323 0.0
H1641 H 0.91858 0.69406 0.31387 0.0
H1642 H 0.89962 0.64183 0.38118 0.0
H1643 H 0.92393 0.69026 0.45555 0.0
C1644 C 0.91612 0.67732 0.51749 0.0
C1645 C 0.90684 0.66261 0.5375 0.0
C1646 C 0.90373 0.65327 0.36634 0.0
C1647 C 0.90815 0.66548 0.4434 0.0
C1648 C 0.90443 0.65477 0.31933 0.0
C1649 C 0.90973 0.66948 0.29942 0.0
C1650 C 0.90858 0.6666 0.39351 0.0
C1651 C 0.91432 0.68247 0.32779 0.0
C1652 C 0.91672 0.67882 0.47047 0.0
C1653 C 0.89837 0.6496 0.50923 0.0
N1654 N 0.91371 0.68074 0.37341 0.0
N1655 N 0.89929 0.65133 0.4636 0.0
H1656 H 0.36049 0.25354 0.52463 0.0
H1657 H 0.30254 0.22396 0.31389 0.0
H1658 H 0.31073 0.23517 0.53759 0.0
H1659 H 0.35213 0.2561 0.30064 0.0
H1660 H 0.3054 0.22548 0.396 0.0
H1661 H 0.35766 0.25211 0.44248 0.0
C1662 C 0.34894 0.24915 0.5102 0.0
C1663 C 0.3358 0.24443 0.538 0.0
C1664 C 0.31565 0.23221 0.37512 0.0
C1665 C 0.33253 0.24274 0.44401 0.0
C1666 C 0.31406 0.2313 0.32824 0.0
C1667 C 0.32714 0.23991 0.30037 0.0
C1668 C 0.33046 0.24165 0.39435 0.0
C1669 C 0.34174 0.24929 0.32088 0.0
C1670 C 0.34738 0.24842 0.4633 0.0
C1671 C 0.32117 0.23895 0.51741 0.0
N1672 N 0.34303 0.24986 0.36671 0.0
N1673 N 0.31991 0.23818 0.47158 0.0
H1674 H 0.76093 0.07303 0.5385 0.0
H1675 H 0.74022 0.0949 0.29801 0.0
H1676 H 0.74297 0.10467 0.52249 0.0
H1677 H 0.77191 0.07702 0.31444 0.0
H1678 H 0.73849 0.096 0.38048 0.0
H1679 H 0.76244 0.07172 0.45602 0.0
C1680 C 0.7573 0.07968 0.51767 0.0
C1681 C 0.75188 0.08902 0.53734 0.0
C1682 C 0.74585 0.09188 0.36592 0.0
C1683 C 0.75345 0.08748 0.44329 0.0
C1684 C 0.74681 0.09122 0.31893 0.0
C1685 C 0.75627 0.08593 0.29938 0.0
C1686 C 0.75423 0.08701 0.39341 0.0
C1687 C 0.76456 0.08128 0.32808 0.0
C1688 C 0.75821 0.07897 0.47067 0.0
C1689 C 0.74732 0.0974 0.50875 0.0
N1690 N 0.76329 0.08186 0.37365 0.0
N1691 N 0.74815 0.09639 0.46317 0.0
H1692 H 0.00504 0.40464 0.12988 0.0
H1693 H 0.00772 0.44719 0.35637 0.0
H1694 H 0.98546 0.43511 0.13402 0.0
H1695 H 0.9903 0.39746 0.35731 0.0
H1696 H 0.00583 0.4464 0.27338 0.0
H1697 H 0.00641 0.40539 0.21311 0.0
C1698 C 0.00127 0.41165 0.14834 0.0
C1699 C 0.99516 0.41986 0.12543 0.0
C1700 C 0.00236 0.43569 0.29193 0.0
C1701 C 0.99685 0.42088 0.21953 0.0
C1702 C 0.00342 0.43611 0.33899 0.0
C1703 C -0.001 0.42234 0.36335 0.0
C1704 C -0.00258 0.4215 0.26927 0.0
C1705 C 0.9936 0.40828 0.33953 0.0
C1706 C 0.00191 0.41195 0.19555 0.0
C1707 C 0.99022 0.42863 0.15068 0.0
N1708 N 0.99316 0.40824 0.29355 0.0
N1709 N 0.99132 0.42905 0.19651 0.0
H1710 H 0.56735 0.58894 0.12341 0.0
H1711 H 0.5879 0.56692 0.36377 0.0
H1712 H 0.58497 0.55702 0.13942 0.0
H1713 H 0.55666 0.58536 0.34768 0.0
H1714 H 0.58932 0.56552 0.28134 0.0
H1715 H 0.56569 0.59014 0.20586 0.0
C1716 C 0.57087 0.5822 0.14424 0.0
C1717 C 0.57626 0.57284 0.12456 0.0
C1718 C 0.58212 0.56982 0.29595 0.0
C1719 C 0.57452 0.57425 0.21862 0.0
C1720 C 0.58133 0.57065 0.34293 0.0
C1721 C 0.57211 0.57622 0.36259 0.0
C1722 C 0.5738 0.57478 0.26852 0.0
C1723 C 0.56384 0.5809 0.33396 0.0
C1724 C 0.56988 0.58285 0.19122 0.0
C1725 C 0.58065 0.56432 0.15315 0.0
N1726 N 0.56494 0.58015 0.28836 0.0
N1727 N 0.57976 0.56529 0.19874 0.0
H1728 H 0.40407 0.00664 0.35806 0.0
H1729 H 0.44691 0.00977 0.13185 0.0
H1730 H 0.43488 0.98744 0.35435 0.0
H1731 H 0.39709 0.99172 0.13085 0.0
H1732 H 0.44615 0.00796 0.21486 0.0
H1733 H 0.4049 0.00803 0.27486 0.0
C1734 C 0.41118 0.00295 0.33971 0.0
C1735 C 0.41945 0.99695 0.36274 0.0
C1736 C 0.43542 0.00434 0.19628 0.0
C1737 C 0.42057 -0.00133 0.26865 0.0
C1738 C 0.43583 0.00536 0.14921 0.0
C1739 C 0.42201 0.00074 0.12484 0.0
C1740 C 0.4212 -0.00078 0.21892 0.0
C1741 C 0.40793 0.99519 0.14864 0.0
C1742 C 0.41152 0.00361 0.29251 0.0
C1743 C 0.42834 0.99212 0.3376 0.0
N1744 N 0.4079 0.99479 0.19462 0.0
N1745 N 0.4288 0.99323 0.29177 0.0
H1746 H 0.58769 0.01905 0.87394 0.0
H1747 H 0.56624 0.97644 0.63361 0.0
H1748 H 0.55622 0.96942 0.85795 0.0
H1749 H 0.58438 0.02607 0.64968 0.0
H1750 H 0.56475 0.97361 0.71605 0.0
H1751 H 0.58895 0.02189 0.7915 0.0
C1752 C 0.58106 0.00877 0.85312 0.0
C1753 C 0.57181 0.99399 0.87281 0.0
C1754 C 0.56901 0.9851 0.70143 0.0
C1755 C 0.57328 0.99712 0.77874 0.0
C1756 C 0.56989 0.98673 0.65445 0.0
C1757 C 0.5754 0.0015 0.63478 0.0
C1758 C 0.57386 -0.00163 0.72885 0.0
C1759 C 0.57998 0.01444 0.66339 0.0
C1760 C 0.58174 0.0104 0.80613 0.0
C1761 C 0.56343 0.98105 0.84422 0.0
N1762 N 0.57918 0.01259 0.70899 0.0
N1763 N 0.56443 0.98291 0.79863 0.0
H1764 H 0.96819 0.55624 0.65056 0.0
H1765 H 0.02688 0.5862 0.85994 0.0
H1766 H 0.01781 0.58808 0.63619 0.0
H1767 H 0.97714 0.5677 0.87422 0.0
H1768 H 0.02377 0.58446 0.77787 0.0
H1769 H 0.97131 0.55779 0.73264 0.0
C1770 C 0.97977 0.56351 0.66465 0.0
C1771 C 0.99278 0.57204 0.63646 0.0
C1772 C 0.01354 0.5808 0.79896 0.0
C1773 C 0.99639 0.57382 0.73041 0.0
C1774 C 0.01528 0.58171 0.84583 0.0
C1775 C 0.00223 0.57706 0.87398 0.0
C1776 C -0.00138 0.57501 0.78004 0.0
C1777 C 0.98752 0.57144 0.85377 0.0
C1778 C 0.9815 0.56444 0.71152 0.0
C1779 C 0.00746 0.58134 0.65665 0.0
N1780 N 0.9861 0.5705 0.80797 0.0
N1781 N 0.00888 0.58193 0.70245 0.0
H1782 H 0.4464 0.43664 0.64281 0.0
H1783 H 0.40314 0.39727 0.86899 0.0
H1784 H 0.39654 0.40506 0.64138 0.0
H1785 H 0.43434 0.4472 0.86492 0.0
H1786 H 0.404 0.39662 0.78577 0.0
H1787 H 0.44553 0.43777 0.72578 0.0
C1788 C 0.43528 0.43003 0.66006 0.0
C1789 C 0.42148 0.42086 0.63556 0.0
C1790 C 0.41069 0.40766 0.80335 0.0
C1791 C 0.42055 0.42164 0.72965 0.0
C1792 C 0.41034 0.40802 0.85055 0.0
C1793 C 0.41871 0.4223 0.87348 0.0
C1794 C 0.41986 0.4216 0.77939 0.0
C1795 C 0.42771 0.43598 0.84825 0.0
C1796 C 0.43481 0.43067 0.70712 0.0
C1797 C 0.40737 0.41241 0.65925 0.0
N1798 N 0.42819 0.43528 0.80243 0.0
N1799 N 0.40727 0.41281 0.70523 0.0
loop_
_geom_bond_atom_site_label_1
_geom_bond_atom_site_label_2
_geom_bond_distance
_geom_bond_site_symmetry_2
_ccdc_geom_bond_type
C0 O2 1.247 . S
C0 O4 1.258 . S
C1 O8 1.247 . S
C1 O9 1.258 . S
O2 C0 1.247 . S
O2 Zn3 2.028 . S
Zn3 O2 2.028 . S
Zn3 O7 2.035 . S
Zn3 O9 2.035 . S
Zn3 O10 2.028 . S
O4 C0 1.258 . S
O4 Zn5 2.035 . S
Zn5 O4 2.035 . S
Zn5 O6 2.028 . S
Zn5 O8 2.028 . S
Zn5 O11 2.035 . S
O6 Zn5 2.028 . S
O6 C12 1.247 . S
O7 Zn3 2.035 . S
O7 C12 1.258 . S
O8 C1 1.247 . S
O8 Zn5 2.028 . S
O9 C1 1.258 . S
O9 Zn3 2.035 . S
O10 Zn3 2.028 . S
O10 C13 1.247 . S
O11 Zn5 2.035 . S
O11 C13 1.258 . S
C12 O6 1.247 . S
C12 O7 1.258 . S
C13 O10 1.247 . S
C13 O11 1.258 . S
C14 O16 1.247 . S
C14 O18 1.258 . S
C15 O22 1.247 . S
C15 O23 1.258 . S
O16 C14 1.247 . S
O16 Zn17 2.028 . S
Zn17 O16 2.028 . S
Zn17 O21 2.035 . S
Zn17 O23 2.035 . S
Zn17 O24 2.028 . S
O18 C14 1.258 . S
O18 Zn19 2.035 . S
Zn19 O18 2.035 . S
Zn19 O20 2.028 . S
Zn19 O22 2.028 . S
Zn19 O25 2.035 . S
O20 Zn19 2.028 . S
O20 C26 1.247 . S
O21 Zn17 2.035 . S
O21 C26 1.258 . S
O22 C15 1.247 . S
O22 Zn19 2.028 . S
O23 C15 1.258 . S
O23 Zn17 2.035 . S
O24 Zn17 2.028 . S
O24 C27 1.247 . S
O25 Zn19 2.035 . S
O25 C27 1.258 . S
C26 O20 1.247 . S
C26 O21 1.258 . S
C27 O24 1.247 . S
C27 O25 1.258 . S
C28 O30 1.247 . S
C28 O32 1.258 . S
C29 O36 1.247 . S
C29 O37 1.258 . S
O30 C28 1.247 . S
O30 Zn31 2.028 . S
Zn31 O30 2.028 . S
Zn31 O35 2.035 . S
Zn31 O37 2.035 . S
Zn31 O38 2.028 . S
O32 C28 1.258 . S
O32 Zn33 2.035 . S
Zn33 O32 2.035 . S
Zn33 O34 2.028 . S
Zn33 O36 2.028 . S
Zn33 O39 2.035 . S
O34 Zn33 2.028 . S
O34 C40 1.247 . S
O35 Zn31 2.035 . S
O35 C40 1.258 . S
O36 C29 1.247 . S
O36 Zn33 2.028 . S
O37 C29 1.258 . S
O37 Zn31 2.035 . S
O38 Zn31 2.028 . S
O38 C41 1.247 . S
O39 Zn33 2.035 . S
O39 C41 1.258 . S
C40 O34 1.247 . S
C40 O35 1.258 . S
C41 O38 1.247 . S
C41 O39 1.258 . S
C42 O44 1.247 . S
C42 O46 1.258 . S
C43 O50 1.247 . S
C43 O51 1.258 . S
O44 C42 1.247 . S
O44 Zn45 2.028 . S
Zn45 O44 2.028 . S
Zn45 O49 2.035 . S
Zn45 O51 2.035 . S
Zn45 O52 2.028 . S
O46 C42 1.258 . S
O46 Zn47 2.035 . S
Zn47 O46 2.035 . S
Zn47 O48 2.028 . S
Zn47 O50 2.028 . S
Zn47 O53 2.035 . S
O48 Zn47 2.028 . S
O48 C54 1.247 . S
O49 Zn45 2.035 . S
O49 C54 1.258 . S
O50 C43 1.247 . S
O50 Zn47 2.028 . S
O51 C43 1.258 . S
O51 Zn45 2.035 . S
O52 Zn45 2.028 . S
O52 C55 1.247 . S
O53 Zn47 2.035 . S
O53 C55 1.258 . S
C54 O48 1.247 . S
C54 O49 1.258 . S
C55 O52 1.247 . S
C55 O53 1.258 . S
C56 O58 1.247 . S
C56 O60 1.258 . S
C57 O64 1.247 . S
C57 O65 1.258 . S
O58 C56 1.247 . S
O58 Zn59 2.028 . S
Zn59 O58 2.028 . S
Zn59 O63 2.035 . S
Zn59 O65 2.035 . S
Zn59 O66 2.028 . S
O60 C56 1.258 . S
O60 Zn61 2.035 . S
Zn61 O60 2.035 . S
Zn61 O62 2.028 . S
Zn61 O64 2.028 . S
Zn61 O67 2.035 . S
O62 Zn61 2.028 . S
O62 C68 1.247 . S
O63 Zn59 2.035 . S
O63 C68 1.258 . S
O64 C57 1.247 . S
O64 Zn61 2.028 . S
O65 C57 1.258 . S
O65 Zn59 2.035 . S
O66 Zn59 2.028 . S
O66 C69 1.247 . S
O67 Zn61 2.035 . S
O67 C69 1.258 . S
C68 O62 1.247 . S
C68 O63 1.258 . S
C69 O66 1.247 . S
C69 O67 1.258 . S
C70 O72 1.247 . S
C70 O74 1.258 . S
C71 O78 1.247 . S
C71 O79 1.258 . S
O72 C70 1.247 . S
O72 Zn73 2.028 . S
Zn73 O72 2.028 . S
Zn73 O77 2.035 . S
Zn73 O79 2.035 . S
Zn73 O80 2.028 . S
O74 C70 1.258 . S
O74 Zn75 2.035 . S
Zn75 O74 2.035 . S
Zn75 O76 2.028 . S
Zn75 O78 2.028 . S
Zn75 O81 2.035 . S
O76 Zn75 2.028 . S
O76 C82 1.247 . S
O77 Zn73 2.035 . S
O77 C82 1.258 . S
O78 C71 1.247 . S
O78 Zn75 2.028 . S
O79 C71 1.258 . S
O79 Zn73 2.035 . S
O80 Zn73 2.028 . S
O80 C83 1.247 . S
O81 Zn75 2.035 . S
O81 C83 1.258 . S
C82 O76 1.247 . S
C82 O77 1.258 . S
C83 O80 1.247 . S
C83 O81 1.258 . S
C84 O86 1.247 . S
C84 O88 1.258 . S
C85 O92 1.247 . S
C85 O93 1.258 . S
O86 C84 1.247 . S
O86 Zn87 2.028 . S
Zn87 O86 2.028 . S
Zn87 O91 2.035 . S
Zn87 O93 2.035 . S
Zn87 O94 2.028 . S
O88 C84 1.258 . S
O88 Zn89 2.035 . S
Zn89 O88 2.035 . S
Zn89 O90 2.028 . S
Zn89 O92 2.028 . S
Zn89 O95 2.035 . S
O90 Zn89 2.028 . S
O90 C96 1.247 . S
O91 Zn87 2.035 . S
O91 C96 1.258 . S
O92 C85 1.247 . S
O92 Zn89 2.028 . S
O93 C85 1.258 . S
O93 Zn87 2.035 . S
O94 Zn87 2.028 . S
O94 C97 1.247 . S
O95 Zn89 2.035 . S
O95 C97 1.258 . S
C96 O90 1.247 . S
C96 O91 1.258 . S
C97 O94 1.247 . S
C97 O95 1.258 . S
C98 O100 1.247 . S
C98 O102 1.258 . S
C99 O106 1.247 . S
C99 O107 1.258 . S
O100 C98 1.247 . S
O100 Zn101 2.028 . S
Zn101 O100 2.028 . S
Zn101 O105 2.035 . S
Zn101 O107 2.035 . S
Zn101 O108 2.028 . S
O102 C98 1.258 . S
O102 Zn103 2.035 . S
Zn103 O102 2.035 . S
Zn103 O104 2.028 . S
Zn103 O106 2.028 . S
Zn103 O109 2.035 . S
O104 Zn103 2.028 . S
O104 C110 1.247 . S
O105 Zn101 2.035 . S
O105 C110 1.258 . S
O106 C99 1.247 . S
O106 Zn103 2.028 . S
O107 C99 1.258 . S
O107 Zn101 2.035 . S
O108 Zn101 2.028 . S
O108 C111 1.247 . S
O109 Zn103 2.035 . S
O109 C111 1.258 . S
C110 O104 1.247 . S
C110 O105 1.258 . S
C111 O108 1.247 . S
C111 O109 1.258 . S
C112 O114 1.247 . S
C112 O116 1.258 . S
C113 O120 1.247 . S
C113 O121 1.258 . S
O114 C112 1.247 . S
O114 Zn115 2.028 . S
Zn115 O114 2.028 . S
Zn115 O119 2.035 . S
Zn115 O121 2.035 . S
Zn115 O122 2.028 . S
O116 C112 1.258 . S
O116 Zn117 2.035 . S
Zn117 O116 2.035 . S
Zn117 O118 2.028 . S
Zn117 O120 2.028 . S
Zn117 O123 2.035 . S
O118 Zn117 2.028 . S
O118 C124 1.247 . S
O119 Zn115 2.035 . S
O119 C124 1.258 . S
O120 C113 1.247 . S
O120 Zn117 2.028 . S
O121 C113 1.258 . S
O121 Zn115 2.035 . S
O122 Zn115 2.028 . S
O122 C125 1.247 . S
O123 Zn117 2.035 . S
O123 C125 1.258 . S
C124 O118 1.247 . S
C124 O119 1.258 . S
C125 O122 1.247 . S
C125 O123 1.258 . S
C126 O128 1.247 . S
C126 O130 1.258 . S
C127 O134 1.247 . S
C127 O135 1.258 . S
O128 C126 1.247 . S
O128 Zn129 2.028 . S
Zn129 O128 2.028 . S
Zn129 O133 2.035 . S
Zn129 O135 2.035 . S
Zn129 O136 2.028 . S
O130 C126 1.258 . S
O130 Zn131 2.035 . S
Zn131 O130 2.035 . S
Zn131 O132 2.028 . S
Zn131 O134 2.028 . S
Zn131 O137 2.035 . S
O132 Zn131 2.028 . S
O132 C138 1.247 . S
O133 Zn129 2.035 . S
O133 C138 1.258 . S
O134 C127 1.247 . S
O134 Zn131 2.028 . S
O135 C127 1.258 . S
O135 Zn129 2.035 . S
O136 Zn129 2.028 . S
O136 C139 1.247 . S
O137 Zn131 2.035 . S
O137 C139 1.258 . S
C138 O132 1.247 . S
C138 O133 1.258 . S
C139 O136 1.247 . S
C139 O137 1.258 . S
C140 O142 1.247 . S
C140 O144 1.258 . S
C141 O148 1.247 . S
C141 O149 1.258 . S
O142 C140 1.247 . S
O142 Zn143 2.028 . S
Zn143 O142 2.028 . S
Zn143 O147 2.035 . S
Zn143 O149 2.035 . S
Zn143 O150 2.028 . S
O144 C140 1.258 . S
O144 Zn145 2.035 . S
Zn145 O144 2.035 . S
Zn145 O146 2.028 . S
Zn145 O148 2.028 . S
Zn145 O151 2.035 . S
O146 Zn145 2.028 . S
O146 C152 1.247 . S
O147 Zn143 2.035 . S
O147 C152 1.258 . S
O148 C141 1.247 . S
O148 Zn145 2.028 . S
O149 C141 1.258 . S
O149 Zn143 2.035 . S
O150 Zn143 2.028 . S
O150 C153 1.247 . S
O151 Zn145 2.035 . S
O151 C153 1.258 . S
C152 O146 1.247 . S
C152 O147 1.258 . S
C153 O150 1.247 . S
C153 O151 1.258 . S
C154 O156 1.247 . S
C154 O158 1.258 . S
C155 O162 1.247 . S
C155 O163 1.258 . S
O156 C154 1.247 . S
O156 Zn157 2.028 . S
Zn157 O156 2.028 . S
Zn157 O161 2.035 . S
Zn157 O163 2.035 . S
Zn157 O164 2.028 . S
O158 C154 1.258 . S
O158 Zn159 2.035 . S
Zn159 O158 2.035 . S
Zn159 O160 2.028 . S
Zn159 O162 2.028 . S
Zn159 O165 2.035 . S
O160 Zn159 2.028 . S
O160 C166 1.247 . S
O161 Zn157 2.035 . S
O161 C166 1.258 . S
O162 C155 1.247 . S
O162 Zn159 2.028 . S
O163 C155 1.258 . S
O163 Zn157 2.035 . S
O164 Zn157 2.028 . S
O164 C167 1.247 . S
O165 Zn159 2.035 . S
O165 C167 1.258 . S
C166 O160 1.247 . S
C166 O161 1.258 . S
C167 O164 1.247 . S
C167 O165 1.258 . S
C168 O170 1.247 . S
C168 O172 1.258 1_455 S
C169 O176 1.247 1_455 S
C169 O177 1.258 . S
O170 C168 1.247 . S
O170 Zn171 2.028 . S
Zn171 O170 2.028 . S
Zn171 O175 2.035 . S
Zn171 O177 2.035 . S
Zn171 O178 2.028 . S
O172 C168 1.258 1_655 S
O172 Zn173 2.035 . S
Zn173 O172 2.035 . S
Zn173 O174 2.028 . S
Zn173 O176 2.028 . S
Zn173 O179 2.035 . S
O174 Zn173 2.028 . S
O174 C180 1.247 1_655 S
O175 Zn171 2.035 . S
O175 C180 1.258 . S
O176 C169 1.247 1_655 S
O176 Zn173 2.028 . S
O177 C169 1.258 . S
O177 Zn171 2.035 . S
O178 Zn171 2.028 . S
O178 C181 1.247 1_455 S
O179 Zn173 2.035 . S
O179 C181 1.258 . S
C180 O174 1.247 1_455 S
C180 O175 1.258 . S
C181 O178 1.247 1_655 S
C181 O179 1.258 . S
C182 O184 1.247 . S
C182 O186 1.258 . S
C183 O190 1.247 . S
C183 O191 1.258 . S
O184 C182 1.247 . S
O184 Zn185 2.028 . S
Zn185 O184 2.028 . S
Zn185 O189 2.035 . S
Zn185 O191 2.035 . S
Zn185 O192 2.028 . S
O186 C182 1.258 . S
O186 Zn187 2.035 . S
Zn187 O186 2.035 . S
Zn187 O188 2.028 . S
Zn187 O190 2.028 . S
Zn187 O193 2.035 . S
O188 Zn187 2.028 . S
O188 C194 1.247 . S
O189 Zn185 2.035 . S
O189 C194 1.258 . S
O190 C183 1.247 . S
O190 Zn187 2.028 . S
O191 C183 1.258 . S
O191 Zn185 2.035 . S
O192 Zn185 2.028 . S
O192 C195 1.247 . S
O193 Zn187 2.035 . S
O193 C195 1.258 . S
C194 O188 1.247 . S
C194 O189 1.258 . S
C195 O192 1.247 . S
C195 O193 1.258 . S
C196 O198 1.247 . S
C196 O200 1.258 1_565 S
C197 O204 1.247 1_565 S
C197 O205 1.258 . S
O198 C196 1.247 . S
O198 Zn199 2.028 . S
Zn199 O198 2.028 . S
Zn199 O203 2.035 . S
Zn199 O205 2.035 . S
Zn199 O206 2.028 . S
O200 C196 1.258 1_545 S
O200 Zn201 2.035 . S
Zn201 O200 2.035 . S
Zn201 O202 2.028 . S
Zn201 O204 2.028 . S
Zn201 O207 2.035 . S
O202 Zn201 2.028 . S
O202 C208 1.247 . S
O203 Zn199 2.035 . S
O203 C208 1.258 1_565 S
O204 C197 1.247 1_545 S
O204 Zn201 2.028 . S
O205 C197 1.258 . S
O205 Zn199 2.035 . S
O206 Zn199 2.028 . S
O206 C209 1.247 . S
O207 Zn201 2.035 . S
O207 C209 1.258 1_545 S
C208 O202 1.247 . S
C208 O203 1.258 1_545 S
C209 O206 1.247 . S
C209 O207 1.258 1_565 S
C210 O212 1.247 . S
C210 O214 1.258 . S
C211 O218 1.247 . S
C211 O219 1.258 . S
O212 C210 1.247 . S
O212 Zn213 2.028 . S
Zn213 O212 2.028 . S
Zn213 O217 2.035 . S
Zn213 O219 2.035 . S
Zn213 O220 2.028 . S
O214 C210 1.258 . S
O214 Zn215 2.035 . S
Zn215 O214 2.035 . S
Zn215 O216 2.028 . S
Zn215 O218 2.028 . S
Zn215 O221 2.035 . S
O216 Zn215 2.028 . S
O216 C222 1.247 . S
O217 Zn213 2.035 . S
O217 C222 1.258 . S
O218 C211 1.247 . S
O218 Zn215 2.028 . S
O219 C211 1.258 . S
O219 Zn213 2.035 . S
O220 Zn213 2.028 . S
O220 C223 1.247 . S
O221 Zn215 2.035 . S
O221 C223 1.258 . S
C222 O216 1.247 . S
C222 O217 1.258 . S
C223 O220 1.247 . S
C223 O221 1.258 . S
C224 O226 1.247 . S
C224 O228 1.258 . S
C225 O232 1.247 . S
C225 O233 1.258 . S
O226 C224 1.247 . S
O226 Zn227 2.028 . S
Zn227 O226 2.028 . S
Zn227 O231 2.035 . S
Zn227 O233 2.035 . S
Zn227 O234 2.028 . S
O228 C224 1.258 . S
O228 Zn229 2.035 . S
Zn229 O228 2.035 . S
Zn229 O230 2.028 . S
Zn229 O232 2.028 . S
Zn229 O235 2.035 . S
O230 Zn229 2.028 . S
O230 C236 1.247 . S
O231 Zn227 2.035 . S
O231 C236 1.258 . S
O232 C225 1.247 . S
O232 Zn229 2.028 . S
O233 C225 1.258 . S
O233 Zn227 2.035 . S
O234 Zn227 2.028 . S
O234 C237 1.247 . S
O235 Zn229 2.035 . S
O235 C237 1.258 . S
C236 O230 1.247 . S
C236 O231 1.258 . S
C237 O234 1.247 . S
C237 O235 1.258 . S
C238 O240 1.247 . S
C238 O242 1.258 . S
C239 O246 1.247 . S
C239 O247 1.258 . S
O240 C238 1.247 . S
O240 Zn241 2.028 . S
Zn241 O240 2.028 . S
Zn241 O245 2.035 . S
Zn241 O247 2.035 . S
Zn241 O248 2.028 . S
O242 C238 1.258 . S
O242 Zn243 2.035 . S
Zn243 O242 2.035 . S
Zn243 O244 2.028 . S
Zn243 O246 2.028 . S
Zn243 O249 2.035 . S
O244 Zn243 2.028 . S
O244 C250 1.247 . S
O245 Zn241 2.035 . S
O245 C250 1.258 . S
O246 C239 1.247 . S
O246 Zn243 2.028 . S
O247 C239 1.258 . S
O247 Zn241 2.035 . S
O248 Zn241 2.028 . S
O248 C251 1.247 . S
O249 Zn243 2.035 . S
O249 C251 1.258 . S
C250 O244 1.247 . S
C250 O245 1.258 . S
C251 O248 1.247 . S
C251 O249 1.258 . S
C252 O254 1.247 . S
C252 O256 1.258 . S
C253 O260 1.247 . S
C253 O261 1.258 . S
O254 C252 1.247 . S
O254 Zn255 2.028 . S
Zn255 O254 2.028 . S
Zn255 O259 2.035 . S
Zn255 O261 2.035 . S
Zn255 O262 2.028 . S
O256 C252 1.258 . S
O256 Zn257 2.035 . S
Zn257 O256 2.035 . S
Zn257 O258 2.028 . S
Zn257 O260 2.028 . S
Zn257 O263 2.035 . S
O258 Zn257 2.028 . S
O258 C264 1.247 . S
O259 Zn255 2.035 . S
O259 C264 1.258 . S
O260 C253 1.247 . S
O260 Zn257 2.028 . S
O261 C253 1.258 . S
O261 Zn255 2.035 . S
O262 Zn255 2.028 . S
O262 C265 1.247 . S
O263 Zn257 2.035 . S
O263 C265 1.258 . S
C264 O258 1.247 . S
C264 O259 1.258 . S
C265 O262 1.247 . S
C265 O263 1.258 . S
C266 O268 1.247 . S
C266 O270 1.258 . S
C267 O274 1.247 . S
C267 O275 1.258 . S
O268 C266 1.247 . S
O268 Zn269 2.028 . S
Zn269 O268 2.028 . S
Zn269 O273 2.035 . S
Zn269 O275 2.035 . S
Zn269 O276 2.028 . S
O270 C266 1.258 . S
O270 Zn271 2.035 . S
Zn271 O270 2.035 . S
Zn271 O272 2.028 . S
Zn271 O274 2.028 . S
Zn271 O277 2.035 . S
O272 Zn271 2.028 . S
O272 C278 1.247 . S
O273 Zn269 2.035 . S
O273 C278 1.258 . S
O274 C267 1.247 . S
O274 Zn271 2.028 . S
O275 C267 1.258 . S
O275 Zn269 2.035 . S
O276 Zn269 2.028 . S
O276 C279 1.247 . S
O277 Zn271 2.035 . S
O277 C279 1.258 . S
C278 O272 1.247 . S
C278 O273 1.258 . S
C279 O276 1.247 . S
C279 O277 1.258 . S
C280 O282 1.247 . S
C280 O284 1.258 . S
C281 O288 1.247 . S
C281 O289 1.258 . S
O282 C280 1.247 . S
O282 Zn283 2.028 . S
Zn283 O282 2.028 . S
Zn283 O287 2.035 . S
Zn283 O289 2.035 . S
Zn283 O290 2.028 . S
O284 C280 1.258 . S
O284 Zn285 2.035 . S
Zn285 O284 2.035 . S
Zn285 O286 2.028 . S
Zn285 O288 2.028 . S
Zn285 O291 2.035 . S
O286 Zn285 2.028 . S
O286 C292 1.247 . S
O287 Zn283 2.035 . S
O287 C292 1.258 . S
O288 C281 1.247 . S
O288 Zn285 2.028 . S
O289 C281 1.258 . S
O289 Zn283 2.035 . S
O290 Zn283 2.028 . S
O290 C293 1.247 . S
O291 Zn285 2.035 . S
O291 C293 1.258 . S
C292 O286 1.247 . S
C292 O287 1.258 . S
C293 O290 1.247 . S
C293 O291 1.258 . S
C294 O296 1.247 1_565 S
C294 O298 1.258 . S
C295 O302 1.247 . S
C295 O303 1.258 1_565 S
O296 C294 1.247 1_545 S
O296 Zn297 2.016 1_556 S
Zn297 O296 2.016 1_554 S
Zn297 O301 2.036 . S
Zn297 O303 2.047 . S
Zn297 O304 1.977 1_544 S
O298 C294 1.258 . S
O298 Zn299 2.041 . S
Zn299 O298 2.041 . S
Zn299 O300 2.027 1_556 S
Zn299 O302 2.022 1_556 S
Zn299 O305 2.036 . S
O300 Zn299 2.027 1_554 S
O300 C306 1.247 1_565 S
O301 Zn297 2.036 . S
O301 C306 1.258 . S
O302 C295 1.247 . S
O302 Zn299 2.022 1_554 S
O303 C295 1.258 1_545 S
O303 Zn297 2.047 . S
O304 Zn297 1.977 1_566 S
O304 C307 1.303 . S
O305 Zn299 2.036 . S
O305 C307 1.258 . S
C306 O300 1.247 1_545 S
C306 O301 1.258 . S
C307 O304 1.303 . S
C307 O305 1.258 . S
C308 O310 1.247 . S
C308 O312 1.315 . S
C309 O316 1.247 . S
C309 O317 1.258 1_655 S
O310 C308 1.247 . S
O310 Zn311 2.030 . S
Zn311 O310 2.030 . S
Zn311 O315 2.014 1_556 S
Zn311 O317 2.033 1_556 S
Zn311 O318 2.049 . S
O312 C308 1.315 . S
O312 Zn313 2.041 1_456 S
Zn313 O312 2.041 1_654 S
Zn313 O314 2.028 . S
Zn313 O316 2.028 . S
Zn313 O319 2.035 1_554 S
O314 Zn313 2.028 . S
O314 C320 1.247 1_655 S
O315 Zn311 2.014 1_554 S
O315 C320 1.258 . S
O316 C309 1.247 . S
O316 Zn313 2.028 . S
O317 C309 1.258 1_455 S
O317 Zn311 2.033 1_554 S
O318 Zn311 2.049 . S
O318 C321 1.247 . S
O319 Zn313 2.035 1_556 S
O319 C321 1.258 1_655 S
C320 O314 1.247 1_455 S
C320 O315 1.258 . S
C321 O318 1.247 . S
C321 O319 1.258 1_455 S
C322 O324 1.247 . S
C322 O326 1.258 . S
C323 O330 1.247 . S
C323 O331 1.258 . S
O324 C322 1.247 . S
O324 Zn325 2.027 1_554 S
Zn325 O324 2.027 1_556 S
Zn325 O329 2.041 . S
Zn325 O331 2.036 . S
Zn325 O332 2.022 1_556 S
O326 C322 1.258 . S
O326 Zn327 2.036 . S
Zn327 O326 2.036 . S
Zn327 O328 2.016 1_554 S
Zn327 O330 2.027 1_554 S
Zn327 O333 2.047 . S
O328 Zn327 2.016 1_556 S
O328 C334 1.247 . S
O329 Zn325 2.041 . S
O329 C334 1.258 . S
O330 C323 1.247 . S
O330 Zn327 2.027 1_556 S
O331 C323 1.258 . S
O331 Zn325 2.036 . S
O332 Zn325 2.022 1_554 S
O332 C335 1.247 . S
O333 Zn327 2.047 . S
O333 C335 1.258 . S
C334 O328 1.247 . S
C334 O329 1.258 . S
C335 O332 1.247 . S
C335 O333 1.258 . S
C336 O338 1.247 . S
C336 O340 1.258 . S
C337 O344 1.247 . S
C337 O345 1.258 . S
O338 C336 1.247 . S
O338 Zn339 2.028 . S
Zn339 O338 2.028 . S
Zn339 O343 2.035 . S
Zn339 O345 2.035 . S
Zn339 O346 2.028 . S
O340 C336 1.258 . S
O340 Zn341 2.035 . S
Zn341 O340 2.035 . S
Zn341 O342 2.028 . S
Zn341 O344 2.028 . S
Zn341 O347 2.035 . S
O342 Zn341 2.028 . S
O342 C348 1.247 . S
O343 Zn339 2.035 . S
O343 C348 1.258 . S
O344 C337 1.247 . S
O344 Zn341 2.028 . S
O345 C337 1.258 . S
O345 Zn339 2.035 . S
O346 Zn339 2.028 . S
O346 C349 1.247 . S
O347 Zn341 2.035 . S
O347 C349 1.258 . S
C348 O342 1.247 . S
C348 O343 1.258 . S
C349 O346 1.247 . S
C349 O347 1.258 . S
C350 O352 1.247 . S
C350 O354 1.258 . S
C351 O358 1.247 . S
C351 O359 1.258 . S
O352 C350 1.247 . S
O352 Zn353 2.028 . S
Zn353 O352 2.028 . S
Zn353 O357 2.035 . S
Zn353 O359 2.035 . S
Zn353 O360 2.028 . S
O354 C350 1.258 . S
O354 Zn355 2.035 . S
Zn355 O354 2.035 . S
Zn355 O356 2.028 . S
Zn355 O358 2.028 . S
Zn355 O361 2.035 . S
O356 Zn355 2.028 . S
O356 C362 1.247 . S
O357 Zn353 2.035 . S
O357 C362 1.258 . S
O358 C351 1.247 . S
O358 Zn355 2.028 . S
O359 C351 1.258 . S
O359 Zn353 2.035 . S
O360 Zn353 2.028 . S
O360 C363 1.247 . S
O361 Zn355 2.035 . S
O361 C363 1.258 . S
C362 O356 1.247 . S
C362 O357 1.258 . S
C363 O360 1.247 . S
C363 O361 1.258 . S
C364 O366 1.247 . S
C364 O368 1.258 . S
C365 O372 1.247 . S
C365 O373 1.258 . S
O366 C364 1.247 . S
O366 Zn367 2.028 . S
Zn367 O366 2.028 . S
Zn367 O371 2.035 . S
Zn367 O373 2.035 . S
Zn367 O374 2.028 . S
O368 C364 1.258 . S
O368 Zn369 2.035 . S
Zn369 O368 2.035 . S
Zn369 O370 2.028 . S
Zn369 O372 2.028 . S
Zn369 O375 2.035 . S
O370 Zn369 2.028 . S
O370 C376 1.247 . S
O371 Zn367 2.035 . S
O371 C376 1.258 . S
O372 C365 1.247 . S
O372 Zn369 2.028 . S
O373 C365 1.258 . S
O373 Zn367 2.035 . S
O374 Zn367 2.028 . S
O374 C377 1.247 . S
O375 Zn369 2.035 . S
O375 C377 1.258 . S
C376 O370 1.247 . S
C376 O371 1.258 . S
C377 O374 1.247 . S
C377 O375 1.258 . S
C378 O380 1.247 . S
C378 O382 1.258 1_545 S
C379 O386 1.247 1_545 S
C379 O387 1.258 . S
O380 C378 1.247 . S
O380 Zn381 2.049 . S
Zn381 O380 2.049 . S
Zn381 O385 2.033 1_554 S
Zn381 O387 2.014 1_554 S
Zn381 O388 2.030 . S
O382 C378 1.258 1_565 S
O382 Zn383 2.035 1_554 S
Zn383 O382 2.035 1_556 S
Zn383 O384 2.028 . S
Zn383 O386 2.028 . S
Zn383 O389 1.981 1_566 S
O384 Zn383 2.028 . S
O384 C390 1.247 . S
O385 Zn381 2.033 1_556 S
O385 C390 1.258 1_545 S
O386 C379 1.247 1_565 S
O386 Zn383 2.028 . S
O387 C379 1.258 . S
O387 Zn381 2.014 1_556 S
O388 Zn381 2.030 . S
O388 C391 1.247 . S
O389 Zn383 1.981 1_544 S
O389 C391 1.319 . S
C390 O384 1.247 . S
C390 O385 1.258 1_565 S
C391 O388 1.247 . S
C391 O389 1.319 . S
C392 O394 1.247 . S
C392 O396 1.258 1_455 S
C393 O400 1.247 . S
C393 O401 1.300 . S
O394 C392 1.247 . S
O394 Zn395 2.028 . S
Zn395 O394 2.028 . S
Zn395 O399 2.035 1_556 S
Zn395 O401 2.039 1_456 S
Zn395 O402 2.028 . S
O396 C392 1.258 1_655 S
O396 Zn397 2.033 1_556 S
Zn397 O396 2.033 1_554 S
Zn397 O398 2.049 . S
Zn397 O400 2.030 . S
Zn397 O403 2.014 1_554 S
O398 Zn397 2.049 . S
O398 C404 1.247 . S
O399 Zn395 2.035 1_554 S
O399 C404 1.258 1_455 S
O400 C393 1.247 . S
O400 Zn397 2.030 . S
O401 C393 1.300 . S
O401 Zn395 2.039 1_654 S
O402 Zn395 2.028 . S
O402 C405 1.247 1_455 S
O403 Zn397 2.014 1_556 S
O403 C405 1.258 . S
C404 O398 1.247 . S
C404 O399 1.258 1_655 S
C405 O402 1.247 1_655 S
C405 O403 1.258 . S
C406 O408 1.247 . S
C406 O410 1.258 . S
C407 O414 1.247 . S
C407 O415 1.258 . S
O408 C406 1.247 . S
O408 Zn409 2.049 . S
Zn409 O408 2.049 . S
Zn409 O413 2.033 1_554 S
Zn409 O415 2.014 1_554 S
Zn409 O416 2.030 . S
O410 C406 1.258 . S
O410 Zn411 2.035 1_554 S
Zn411 O410 2.035 1_556 S
Zn411 O412 2.028 . S
Zn411 O414 2.028 . S
Zn411 O417 2.035 1_556 S
O412 Zn411 2.028 . S
O412 C418 1.247 . S
O413 Zn409 2.033 1_556 S
O413 C418 1.258 . S
O414 C407 1.247 . S
O414 Zn411 2.028 . S
O415 C407 1.258 . S
O415 Zn409 2.014 1_556 S
O416 Zn409 2.030 . S
O416 C419 1.247 . S
O417 Zn411 2.035 1_554 S
O417 C419 1.258 . S
C418 O412 1.247 . S
C418 O413 1.258 . S
C419 O416 1.247 . S
C419 O417 1.258 . S
C420 O422 1.247 1_655 S
C420 O424 1.258 . S
C421 O428 1.247 . S
C421 O429 1.258 1_655 S
O422 C420 1.247 1_455 S
O422 Zn423 2.028 . S
Zn423 O422 2.028 . S
Zn423 O427 2.035 . S
Zn423 O429 2.035 . S
Zn423 O430 2.028 . S
O424 C420 1.258 . S
O424 Zn425 2.035 . S
Zn425 O424 2.035 . S
Zn425 O426 2.028 . S
Zn425 O428 2.028 . S
Zn425 O431 2.035 . S
O426 Zn425 2.028 . S
O426 C432 1.247 1_655 S
O427 Zn423 2.035 . S
O427 C432 1.258 . S
O428 C421 1.247 . S
O428 Zn425 2.028 . S
O429 C421 1.258 1_455 S
O429 Zn423 2.035 . S
O430 Zn423 2.028 . S
O430 C433 1.247 1_455 S
O431 Zn425 2.035 . S
O431 C433 1.258 . S
C432 O426 1.247 1_455 S
C432 O427 1.258 . S
C433 O430 1.247 1_655 S
C433 O431 1.258 . S
C434 O436 1.247 . S
C434 O438 1.258 . S
C435 O442 1.247 . S
C435 O443 1.258 . S
O436 C434 1.247 . S
O436 Zn437 2.028 . S
Zn437 O436 2.028 . S
Zn437 O441 2.035 . S
Zn437 O443 2.035 . S
Zn437 O444 2.028 . S
O438 C434 1.258 . S
O438 Zn439 2.035 . S
Zn439 O438 2.035 . S
Zn439 O440 2.028 . S
Zn439 O442 2.028 . S
Zn439 O445 2.035 . S
O440 Zn439 2.028 . S
O440 C446 1.247 . S
O441 Zn437 2.035 . S
O441 C446 1.258 . S
O442 C435 1.247 . S
O442 Zn439 2.028 . S
O443 C435 1.258 . S
O443 Zn437 2.035 . S
O444 Zn437 2.028 . S
O444 C447 1.247 . S
O445 Zn439 2.035 . S
O445 C447 1.258 . S
C446 O440 1.247 . S
C446 O441 1.258 . S
C447 O444 1.247 . S
C447 O445 1.258 . S
C448 O450 1.247 . S
C448 O452 1.258 1_545 S
C449 O456 1.247 . S
C449 O457 1.258 1_565 S
O450 C448 1.247 . S
O450 Zn451 2.028 . S
Zn451 O450 2.028 . S
Zn451 O455 2.035 . S
Zn451 O457 2.035 . S
Zn451 O458 2.028 . S
O452 C448 1.258 1_565 S
O452 Zn453 2.035 . S
Zn453 O452 2.035 . S
Zn453 O454 2.028 . S
Zn453 O456 2.028 . S
Zn453 O459 2.035 . S
O454 Zn453 2.028 . S
O454 C460 1.247 1_565 S
O455 Zn451 2.035 . S
O455 C460 1.258 . S
O456 C449 1.247 . S
O456 Zn453 2.028 . S
O457 C449 1.258 1_545 S
O457 Zn451 2.035 . S
O458 Zn451 2.028 . S
O458 C461 1.247 . S
O459 Zn453 2.035 . S
O459 C461 1.258 1_565 S
C460 O454 1.247 1_545 S
C460 O455 1.258 . S
C461 O458 1.247 . S
C461 O459 1.258 1_545 S
C462 O464 1.247 . S
C462 O466 1.258 . S
C463 O470 1.247 . S
C463 O471 1.258 . S
O464 C462 1.247 . S
O464 Zn465 2.028 . S
Zn465 O464 2.028 . S
Zn465 O469 2.035 . S
Zn465 O471 2.035 . S
Zn465 O472 2.028 . S
O466 C462 1.258 . S
O466 Zn467 2.035 . S
Zn467 O466 2.035 . S
Zn467 O468 2.028 . S
Zn467 O470 2.028 . S
Zn467 O473 2.035 . S
O468 Zn467 2.028 . S
O468 C474 1.247 . S
O469 Zn465 2.035 . S
O469 C474 1.258 . S
O470 C463 1.247 . S
O470 Zn467 2.028 . S
O471 C463 1.258 . S
O471 Zn465 2.035 . S
O472 Zn465 2.028 . S
O472 C475 1.247 . S
O473 Zn467 2.035 . S
O473 C475 1.258 . S
C474 O468 1.247 . S
C474 O469 1.258 . S
C475 O472 1.247 . S
C475 O473 1.258 . S
C476 O478 1.247 . S
C476 O480 1.258 . S
C477 O484 1.247 . S
C477 O485 1.258 . S
O478 C476 1.247 . S
O478 Zn479 2.028 . S
Zn479 O478 2.028 . S
Zn479 O483 2.035 . S
Zn479 O485 2.035 . S
Zn479 O486 2.028 . S
O480 C476 1.258 . S
O480 Zn481 2.035 . S
Zn481 O480 2.035 . S
Zn481 O482 2.028 . S
Zn481 O484 2.028 . S
Zn481 O487 2.035 . S
O482 Zn481 2.028 . S
O482 C488 1.247 . S
O483 Zn479 2.035 . S
O483 C488 1.258 . S
O484 C477 1.247 . S
O484 Zn481 2.028 . S
O485 C477 1.258 . S
O485 Zn479 2.035 . S
O486 Zn479 2.028 . S
O486 C489 1.247 . S
O487 Zn481 2.035 . S
O487 C489 1.258 . S
C488 O482 1.247 . S
C488 O483 1.258 . S
C489 O486 1.247 . S
C489 O487 1.258 . S
C490 O492 1.247 . S
C490 O494 1.258 . S
C491 O498 1.247 . S
C491 O499 1.258 . S
O492 C490 1.247 . S
O492 Zn493 2.028 . S
Zn493 O492 2.028 . S
Zn493 O497 2.035 . S
Zn493 O499 2.035 . S
Zn493 O500 2.028 . S
O494 C490 1.258 . S
O494 Zn495 2.035 . S
Zn495 O494 2.035 . S
Zn495 O496 2.028 . S
Zn495 O498 2.028 . S
Zn495 O501 2.035 . S
O496 Zn495 2.028 . S
O496 C502 1.247 . S
O497 Zn493 2.035 . S
O497 C502 1.258 . S
O498 C491 1.247 . S
O498 Zn495 2.028 . S
O499 C491 1.258 . S
O499 Zn493 2.035 . S
O500 Zn493 2.028 . S
O500 C503 1.247 . S
O501 Zn495 2.035 . S
O501 C503 1.258 . S
C502 O496 1.247 . S
C502 O497 1.258 . S
C503 O500 1.247 . S
C503 O501 1.258 . S
H504 C510 0.930 . S
H505 C514 0.930 . S
H506 C519 0.929 . S
H507 C517 0.929 . S
H508 C512 0.929 . S
H509 C518 0.929 . S
C510 H504 0.930 . S
C510 C511 1.367 . S
C510 C518 1.378 . S
C511 C510 1.367 . S
C511 C519 1.433 . S
C512 H508 0.929 . S
C512 C514 1.378 . S
C512 C516 1.350 . S
C513 C516 1.463 . S
C513 C518 1.350 . S
C513 N521 1.427 . S
C514 H505 0.930 . S
C514 C512 1.378 . S
C514 C515 1.367 . S
C515 C514 1.367 . S
C515 C517 1.433 . S
C516 C512 1.350 . S
C516 C513 1.463 . S
C516 N520 1.427 . S
C517 H507 0.929 . S
C517 C515 1.433 . S
C517 N520 1.384 . S
C518 H509 0.929 . S
C518 C510 1.378 . S
C518 C513 1.350 . S
C519 H506 0.929 . S
C519 C511 1.433 . S
C519 N521 1.384 . S
N520 C516 1.427 . S
N520 C517 1.384 . S
N521 C513 1.427 . S
N521 C519 1.384 . S
H522 C528 0.930 . S
H523 C532 0.930 . S
H524 C537 0.929 . S
H525 C535 0.929 . S
H526 C530 0.929 . S
H527 C536 0.929 . S
C528 H522 0.930 . S
C528 C529 1.367 . S
C528 C536 1.378 . S
C529 C528 1.367 . S
C529 C537 1.433 . S
C530 H526 0.929 . S
C530 C532 1.378 . S
C530 C534 1.350 . S
C531 C534 1.463 . S
C531 C536 1.350 . S
C531 N539 1.427 . S
C532 H523 0.930 . S
C532 C530 1.378 . S
C532 C533 1.367 . S
C533 C532 1.367 . S
C533 C535 1.433 . S
C534 C530 1.350 . S
C534 C531 1.463 . S
C534 N538 1.427 . S
C535 H525 0.929 . S
C535 C533 1.433 . S
C535 N538 1.384 . S
C536 H527 0.929 . S
C536 C528 1.378 . S
C536 C531 1.350 . S
C537 H524 0.929 . S
C537 C529 1.433 . S
C537 N539 1.384 . S
N538 C534 1.427 . S
N538 C535 1.384 . S
N539 C531 1.427 . S
N539 C537 1.384 . S
H540 C546 0.930 . S
H541 C550 0.930 . S
H542 C555 0.929 . S
H543 C553 0.929 . S
H544 C548 0.929 . S
H545 C554 0.929 . S
C546 H540 0.930 . S
C546 C547 1.367 . S
C546 C554 1.378 . S
C547 C546 1.367 . S
C547 C555 1.433 . S
C548 H544 0.929 . S
C548 C550 1.378 . S
C548 C552 1.350 . S
C549 C552 1.463 . S
C549 C554 1.350 . S
C549 N557 1.427 . S
C550 H541 0.930 . S
C550 C548 1.378 . S
C550 C551 1.367 . S
C551 C550 1.367 . S
C551 C553 1.433 . S
C552 C548 1.350 . S
C552 C549 1.463 . S
C552 N556 1.427 . S
C553 H543 0.929 . S
C553 C551 1.433 . S
C553 N556 1.384 . S
C554 H545 0.929 . S
C554 C546 1.378 . S
C554 C549 1.350 . S
C555 H542 0.929 . S
C555 C547 1.433 . S
C555 N557 1.384 . S
N556 C552 1.427 . S
N556 C553 1.384 . S
N557 C549 1.427 . S
N557 C555 1.384 . S
H558 C564 0.930 . S
H559 C568 0.930 . S
H560 C573 0.929 . S
H561 C571 0.929 . S
H562 C566 0.929 . S
H563 C572 0.929 . S
C564 H558 0.930 . S
C564 C565 1.367 . S
C564 C572 1.378 1_556 S
C565 C564 1.367 . S
C565 C573 1.433 . S
C566 H562 0.929 . S
C566 C568 1.378 . S
C566 C570 1.350 . S
C567 C570 1.463 . S
C567 C572 1.350 . S
C567 N575 1.427 . S
C568 H559 0.930 . S
C568 C566 1.378 . S
C568 C569 1.367 . S
C569 C568 1.367 . S
C569 C571 1.433 . S
C570 C566 1.350 . S
C570 C567 1.463 . S
C570 N574 1.427 . S
C571 H561 0.929 . S
C571 C569 1.433 . S
C571 N574 1.384 . S
C572 H563 0.929 . S
C572 C564 1.378 1_554 S
C572 C567 1.350 . S
C573 H560 0.929 . S
C573 C565 1.433 . S
C573 N575 1.384 1_556 S
N574 C570 1.427 . S
N574 C571 1.384 . S
N575 C567 1.427 . S
N575 C573 1.384 1_554 S
H576 C582 0.930 . S
H577 C586 0.930 . S
H578 C591 0.929 . S
H579 C589 0.929 . S
H580 C584 0.929 . S
H581 C590 0.929 . S
C582 H576 0.930 . S
C582 C583 1.367 . S
C582 C590 1.378 . S
C583 C582 1.367 . S
C583 C591 1.433 . S
C584 H580 0.929 . S
C584 C586 1.378 1_554 S
C584 C588 1.350 . S
C585 C588 1.463 . S
C585 C590 1.350 . S
C585 N593 1.427 . S
C586 H577 0.930 . S
C586 C584 1.378 1_556 S
C586 C587 1.367 . S
C587 C586 1.367 . S
C587 C589 1.433 . S
C588 C584 1.350 . S
C588 C585 1.463 . S
C588 N592 1.427 . S
C589 H579 0.929 . S
C589 C587 1.433 . S
C589 N592 1.384 1_556 S
C590 H581 0.929 . S
C590 C582 1.378 . S
C590 C585 1.350 . S
C591 H578 0.929 . S
C591 C583 1.433 . S
C591 N593 1.384 . S
N592 C588 1.427 . S
N592 C589 1.384 1_554 S
N593 C585 1.427 . S
N593 C591 1.384 . S
H594 C600 0.930 . S
H595 C604 0.930 . S
H596 C609 0.929 . S
H597 C607 0.929 . S
H598 C602 0.929 . S
H599 C608 0.929 . S
C600 H594 0.930 . S
C600 C601 1.367 . S
C600 C608 1.378 . S
C601 C600 1.367 . S
C601 C609 1.433 . S
C602 H598 0.929 . S
C602 C604 1.378 1_554 S
C602 C606 1.350 . S
C603 C606 1.463 . S
C603 C608 1.350 . S
C603 N611 1.427 . S
C604 H595 0.930 . S
C604 C602 1.378 1_556 S
C604 C605 1.367 . S
C605 C604 1.367 . S
C605 C607 1.433 . S
C606 C602 1.350 . S
C606 C603 1.463 . S
C606 N610 1.427 . S
C607 H597 0.929 . S
C607 C605 1.433 . S
C607 N610 1.384 1_556 S
C608 H599 0.929 . S
C608 C600 1.378 . S
C608 C603 1.350 . S
C609 H596 0.929 . S
C609 C601 1.433 . S
C609 N611 1.384 . S
N610 C606 1.427 . S
N610 C607 1.384 1_554 S
N611 C603 1.427 . S
N611 C609 1.384 . S
H612 C618 0.930 . S
H613 C622 0.930 . S
H614 C627 0.929 . S
H615 C625 0.929 . S
H616 C620 0.929 . S
H617 C626 0.929 . S
C618 H612 0.930 . S
C618 C619 1.367 . S
C618 C626 1.378 . S
C619 C618 1.367 . S
C619 C627 1.433 . S
C620 H616 0.929 . S
C620 C622 1.378 . S
C620 C624 1.350 . S
C621 C624 1.463 . S
C621 C626 1.350 . S
C621 N629 1.427 . S
C622 H613 0.930 . S
C622 C620 1.378 . S
C622 C623 1.367 . S
C623 C622 1.367 . S
C623 C625 1.433 . S
C624 C620 1.350 . S
C624 C621 1.463 . S
C624 N628 1.427 . S
C625 H615 0.929 . S
C625 C623 1.433 . S
C625 N628 1.384 . S
C626 H617 0.929 . S
C626 C618 1.378 . S
C626 C621 1.350 . S
C627 H614 0.929 . S
C627 C619 1.433 . S
C627 N629 1.384 . S
N628 C624 1.427 . S
N628 C625 1.384 . S
N629 C621 1.427 . S
N629 C627 1.384 . S
H630 C636 0.930 . S
H631 C640 0.930 . S
H632 C645 0.929 . S
H633 C643 0.929 . S
H634 C638 0.929 . S
H635 C644 0.929 . S
C636 H630 0.930 . S
C636 C637 1.367 . S
C636 C644 1.378 . S
C637 C636 1.367 . S
C637 C645 1.433 . S
C638 H634 0.929 . S
C638 C640 1.378 . S
C638 C642 1.350 . S
C639 C642 1.463 . S
C639 C644 1.350 . S
C639 N647 1.427 . S
C640 H631 0.930 . S
C640 C638 1.378 . S
C640 C641 1.367 . S
C641 C640 1.367 . S
C641 C643 1.433 . S
C642 C638 1.350 . S
C642 C639 1.463 . S
C642 N646 1.427 . S
C643 H633 0.929 . S
C643 C641 1.433 . S
C643 N646 1.384 . S
C644 H635 0.929 . S
C644 C636 1.378 . S
C644 C639 1.350 . S
C645 H632 0.929 . S
C645 C637 1.433 . S
C645 N647 1.384 . S
N646 C642 1.427 . S
N646 C643 1.384 . S
N647 C639 1.427 . S
N647 C645 1.384 . S
H648 C654 0.930 . S
H649 C658 0.930 . S
H650 C663 0.929 . S
H651 C661 0.929 . S
H652 C656 0.929 . S
H653 C662 0.929 . S
C654 H648 0.930 . S
C654 C655 1.367 . S
C654 C662 1.378 . S
C655 C654 1.367 . S
C655 C663 1.433 . S
C656 H652 0.929 . S
C656 C658 1.378 . S
C656 C660 1.350 . S
C657 C660 1.463 . S
C657 C662 1.350 . S
C657 N665 1.427 . S
C658 H649 0.930 . S
C658 C656 1.378 . S
C658 C659 1.367 . S
C659 C658 1.367 . S
C659 C661 1.433 . S
C660 C656 1.350 . S
C660 C657 1.463 . S
C660 N664 1.427 . S
C661 H651 0.929 . S
C661 C659 1.433 . S
C661 N664 1.384 . S
C662 H653 0.929 . S
C662 C654 1.378 . S
C662 C657 1.350 . S
C663 H650 0.929 . S
C663 C655 1.433 . S
C663 N665 1.384 . S
N664 C660 1.427 . S
N664 C661 1.384 . S
N665 C657 1.427 . S
N665 C663 1.384 . S
H666 C672 0.930 . S
H667 C676 0.930 . S
H668 C681 0.929 . S
H669 C679 0.929 . S
H670 C674 0.929 . S
H671 C680 0.929 . S
C672 H666 0.930 . S
C672 C673 1.367 . S
C672 C680 1.378 . S
C673 C672 1.367 . S
C673 C681 1.433 . S
C674 H670 0.929 . S
C674 C676 1.378 1_556 S
C674 C678 1.350 . S
C675 C678 1.463 . S
C675 C680 1.350 . S
C675 N683 1.427 . S
C676 H667 0.930 . S
C676 C674 1.378 1_554 S
C676 C677 1.367 . S
C677 C676 1.367 . S
C677 C679 1.433 . S
C678 C674 1.350 . S
C678 C675 1.463 . S
C678 N682 1.427 . S
C679 H669 0.929 . S
C679 C677 1.433 . S
C679 N682 1.384 1_554 S
C680 H671 0.929 . S
C680 C672 1.378 . S
C680 C675 1.350 . S
C681 H668 0.929 . S
C681 C673 1.433 . S
C681 N683 1.384 . S
N682 C678 1.427 . S
N682 C679 1.384 1_556 S
N683 C675 1.427 . S
N683 C681 1.384 . S
H684 C690 0.930 . S
H685 C694 0.930 . S
H686 C699 0.929 . S
H687 C697 0.929 . S
H688 C692 0.929 . S
H689 C698 0.929 . S
C690 H684 0.930 . S
C690 C691 1.367 . S
C690 C698 1.378 1_554 S
C691 C690 1.367 . S
C691 C699 1.433 . S
C692 H688 0.929 . S
C692 C694 1.378 . S
C692 C696 1.350 . S
C693 C696 1.463 . S
C693 C698 1.350 . S
C693 N701 1.427 . S
C694 H685 0.930 . S
C694 C692 1.378 . S
C694 C695 1.367 . S
C695 C694 1.367 . S
C695 C697 1.433 . S
C696 C692 1.350 . S
C696 C693 1.463 . S
C696 N700 1.427 . S
C697 H687 0.929 . S
C697 C695 1.433 . S
C697 N700 1.384 . S
C698 H689 0.929 . S
C698 C690 1.378 1_556 S
C698 C693 1.350 . S
C699 H686 0.929 . S
C699 C691 1.433 . S
C699 N701 1.384 1_554 S
N700 C696 1.427 . S
N700 C697 1.384 . S
N701 C693 1.427 . S
N701 C699 1.384 1_556 S
H702 C708 0.930 . S
H703 C712 0.930 . S
H704 C717 0.929 . S
H705 C715 0.929 . S
H706 C710 0.929 . S
H707 C716 0.929 . S
C708 H702 0.930 . S
C708 C709 1.367 . S
C708 C716 1.378 . S
C709 C708 1.367 . S
C709 C717 1.433 . S
C710 H706 0.929 . S
C710 C712 1.378 1_556 S
C710 C714 1.350 . S
C711 C714 1.463 . S
C711 C716 1.350 . S
C711 N719 1.427 . S
C712 H703 0.930 . S
C712 C710 1.378 1_554 S
C712 C713 1.367 . S
C713 C712 1.367 . S
C713 C715 1.433 . S
C714 C710 1.350 . S
C714 C711 1.463 . S
C714 N718 1.427 . S
C715 H705 0.929 . S
C715 C713 1.433 . S
C715 N718 1.384 1_554 S
C716 H707 0.929 . S
C716 C708 1.378 . S
C716 C711 1.350 . S
C717 H704 0.929 . S
C717 C709 1.433 . S
C717 N719 1.384 . S
N718 C714 1.427 . S
N718 C715 1.384 1_556 S
N719 C711 1.427 . S
N719 C717 1.384 . S
H720 C726 0.930 . S
H721 C730 0.930 . S
H722 C735 0.929 . S
H723 C733 0.929 . S
H724 C728 0.929 . S
H725 C734 0.929 . S
C726 H720 0.930 . S
C726 C727 1.367 . S
C726 C734 1.378 . S
C727 C726 1.367 . S
C727 C735 1.433 1_655 S
C728 H724 0.929 . S
C728 C730 1.378 . S
C728 C732 1.362 . S
C729 C732 1.460 1_655 S
C729 C734 1.350 . S
C729 N737 1.427 1_655 S
C730 H721 0.930 . S
C730 C728 1.378 . S
C730 C731 1.367 . S
C731 C730 1.367 . S
C731 C733 1.433 1_455 S
C732 C728 1.362 . S
C732 C729 1.460 1_455 S
C732 N736 1.416 1_455 S
C733 H723 0.929 . S
C733 C731 1.433 1_655 S
C733 N736 1.384 . S
C734 H725 0.929 . S
C734 C726 1.378 . S
C734 C729 1.350 . S
C735 H722 0.929 . S
C735 C727 1.433 1_455 S
C735 N737 1.384 . S
N736 C732 1.416 1_655 S
N736 C733 1.384 . S
N737 C729 1.427 1_455 S
N737 C735 1.384 . S
H738 C744 0.930 . S
H739 C748 0.930 . S
H740 C753 0.929 . S
H741 C751 0.929 . S
H742 C746 0.929 . S
H743 C752 0.929 . S
C744 H738 0.930 . S
C744 C745 1.367 . S
C744 C752 1.378 . S
C745 C744 1.367 . S
C745 C753 1.433 . S
C746 H742 0.929 . S
C746 C748 1.378 . S
C746 C750 1.350 . S
C747 C750 1.463 . S
C747 C752 1.350 . S
C747 N755 1.427 . S
C748 H739 0.930 . S
C748 C746 1.378 . S
C748 C749 1.367 . S
C749 C748 1.367 . S
C749 C751 1.433 . S
C750 C746 1.350 . S
C750 C747 1.463 . S
C750 N754 1.427 . S
C751 H741 0.929 . S
C751 C749 1.433 . S
C751 N754 1.384 . S
C752 H743 0.929 . S
C752 C744 1.378 . S
C752 C747 1.350 . S
C753 H740 0.929 . S
C753 C745 1.433 . S
C753 N755 1.384 . S
N754 C750 1.427 . S
N754 C751 1.384 . S
N755 C747 1.427 . S
N755 C753 1.384 . S
H756 C762 0.930 . S
H757 C766 0.930 . S
H758 C771 0.929 . S
H759 C769 0.929 . S
H760 C764 0.929 . S
H761 C770 0.929 . S
C762 H756 0.930 . S
C762 C763 1.367 1_565 S
C762 C770 1.378 . S
C763 C762 1.367 1_545 S
C763 C771 1.433 . S
C764 H760 0.929 . S
C764 C766 1.378 . S
C764 C768 1.403 . S
C765 C768 1.467 . S
C765 C770 1.350 1_545 S
C765 N773 1.427 . S
C766 H757 0.930 . S
C766 C764 1.378 . S
C766 C767 1.367 1_545 S
C767 C766 1.367 1_565 S
C767 C769 1.433 . S
C768 C764 1.403 . S
C768 C765 1.467 . S
C768 N772 1.368 1_545 S
C769 H759 0.929 . S
C769 C767 1.433 . S
C769 N772 1.384 . S
C770 H761 0.929 . S
C770 C762 1.378 . S
C770 C765 1.350 1_565 S
C771 H758 0.929 . S
C771 C763 1.433 . S
C771 N773 1.384 . S
N772 C768 1.368 1_565 S
N772 C769 1.384 . S
N773 C765 1.427 . S
N773 C771 1.384 . S
H774 C780 0.930 . S
H775 C784 0.926 . S
H776 C789 0.929 . S
H777 C787 0.929 . S
H778 C782 0.929 . S
H779 C788 0.929 . S
C780 H774 0.930 . S
C780 C781 1.367 1_565 S
C780 C788 1.378 . S
C781 C780 1.367 1_545 S
C781 C789 1.433 . S
C782 H778 0.929 . S
C782 C784 1.381 . S
C782 C786 1.350 1_545 S
C783 C786 1.466 . S
C783 C788 1.345 . S
C783 N791 1.430 1_565 S
C784 H775 0.926 . S
C784 C782 1.381 . S
C784 C785 1.369 1_545 S
C785 C784 1.369 1_565 S
C785 C787 1.433 . S
C786 C782 1.350 1_565 S
C786 C783 1.466 . S
C786 N790 1.427 . S
C787 H777 0.929 . S
C787 C785 1.433 . S
C787 N790 1.384 . S
C788 H779 0.929 . S
C788 C780 1.378 . S
C788 C783 1.345 . S
C789 H776 0.929 . S
C789 C781 1.433 . S
C789 N791 1.384 . S
N790 C786 1.427 . S
N790 C787 1.384 . S
N791 C783 1.430 1_545 S
N791 C789 1.384 . S
H792 C798 0.930 . S
H793 C802 0.930 . S
H794 C807 0.929 . S
H795 C805 0.929 . S
H796 C800 0.929 . S
H797 C806 0.929 . S
C798 H792 0.930 . S
C798 C799 1.367 1_455 S
C798 C806 1.378 . S
C799 C798 1.367 1_655 S
C799 C807 1.433 . S
C800 H796 0.929 . S
C800 C802 1.378 . S
C800 C804 1.350 1_655 S
C801 C804 1.469 . S
C801 C806 1.384 . S
C801 N809 1.389 1_455 S
C802 H793 0.930 . S
C802 C800 1.378 . S
C802 C803 1.367 1_655 S
C803 C802 1.367 1_455 S
C803 C805 1.433 . S
C804 C800 1.350 1_455 S
C804 C801 1.469 . S
C804 N808 1.427 . S
C805 H795 0.929 . S
C805 C803 1.433 . S
C805 N808 1.384 . S
C806 H797 0.929 . S
C806 C798 1.378 . S
C806 C801 1.384 . S
C807 H794 0.929 . S
C807 C799 1.433 . S
C807 N809 1.384 . S
N808 C804 1.427 . S
N808 C805 1.384 . S
N809 C801 1.389 1_655 S
N809 C807 1.384 . S
H810 C816 0.930 . S
H811 C820 0.930 . S
H812 C825 0.929 . S
H813 C823 0.929 . S
H814 C818 0.929 . S
H815 C824 0.929 . S
C816 H810 0.930 . S
C816 C817 1.367 . S
C816 C824 1.378 . S
C817 C816 1.367 . S
C817 C825 1.433 . S
C818 H814 0.929 . S
C818 C820 1.378 . S
C818 C822 1.350 . S
C819 C822 1.463 . S
C819 C824 1.350 . S
C819 N827 1.427 . S
C820 H811 0.930 . S
C820 C818 1.378 . S
C820 C821 1.367 . S
C821 C820 1.367 . S
C821 C823 1.433 . S
C822 C818 1.350 . S
C822 C819 1.463 . S
C822 N826 1.427 . S
C823 H813 0.929 . S
C823 C821 1.433 . S
C823 N826 1.384 . S
C824 H815 0.929 . S
C824 C816 1.378 . S
C824 C819 1.350 . S
C825 H812 0.929 . S
C825 C817 1.433 . S
C825 N827 1.384 . S
N826 C822 1.427 . S
N826 C823 1.384 . S
N827 C819 1.427 . S
N827 C825 1.384 . S
H828 C834 0.930 . S
H829 C838 0.930 . S
H830 C843 0.929 . S
H831 C841 0.929 . S
H832 C836 0.929 . S
H833 C842 0.929 . S
C834 H828 0.930 . S
C834 C835 1.367 . S
C834 C842 1.378 . S
C835 C834 1.367 . S
C835 C843 1.433 . S
C836 H832 0.929 . S
C836 C838 1.378 . S
C836 C840 1.350 . S
C837 C840 1.463 . S
C837 C842 1.350 . S
C837 N845 1.427 . S
C838 H829 0.930 . S
C838 C836 1.378 . S
C838 C839 1.367 . S
C839 C838 1.367 . S
C839 C841 1.433 . S
C840 C836 1.350 . S
C840 C837 1.463 . S
C840 N844 1.427 . S
C841 H831 0.929 . S
C841 C839 1.433 . S
C841 N844 1.384 . S
C842 H833 0.929 . S
C842 C834 1.378 . S
C842 C837 1.350 . S
C843 H830 0.929 . S
C843 C835 1.433 . S
C843 N845 1.384 . S
N844 C840 1.427 . S
N844 C841 1.384 . S
N845 C837 1.427 . S
N845 C843 1.384 . S
H846 C852 0.930 . S
H847 C856 0.930 . S
H848 C861 0.929 . S
H849 C859 0.929 . S
H850 C854 0.929 . S
H851 C860 0.929 . S
C852 H846 0.930 . S
C852 C853 1.367 . S
C852 C860 1.378 . S
C853 C852 1.367 . S
C853 C861 1.433 . S
C854 H850 0.929 . S
C854 C856 1.378 . S
C854 C858 1.350 . S
C855 C858 1.463 . S
C855 C860 1.350 . S
C855 N863 1.427 . S
C856 H847 0.930 . S
C856 C854 1.378 . S
C856 C857 1.367 . S
C857 C856 1.367 . S
C857 C859 1.433 . S
C858 C854 1.350 . S
C858 C855 1.463 . S
C858 N862 1.427 . S
C859 H849 0.929 . S
C859 C857 1.433 . S
C859 N862 1.384 . S
C860 H851 0.929 . S
C860 C852 1.378 . S
C860 C855 1.350 . S
C861 H848 0.929 . S
C861 C853 1.433 . S
C861 N863 1.384 . S
N862 C858 1.427 . S
N862 C859 1.384 . S
N863 C855 1.427 . S
N863 C861 1.384 . S
H864 C870 0.930 . S
H865 C874 0.930 . S
H866 C879 0.929 . S
H867 C877 0.929 . S
H868 C872 0.929 . S
H869 C878 0.929 . S
C870 H864 0.930 . S
C870 C871 1.367 . S
C870 C878 1.378 . S
C871 C870 1.367 . S
C871 C879 1.433 . S
C872 H868 0.929 . S
C872 C874 1.378 . S
C872 C876 1.350 . S
C873 C876 1.463 . S
C873 C878 1.350 . S
C873 N881 1.427 . S
C874 H865 0.930 . S
C874 C872 1.378 . S
C874 C875 1.367 . S
C875 C874 1.367 . S
C875 C877 1.433 . S
C876 C872 1.350 . S
C876 C873 1.463 . S
C876 N880 1.427 . S
C877 H867 0.929 . S
C877 C875 1.433 . S
C877 N880 1.384 . S
C878 H869 0.929 . S
C878 C870 1.378 . S
C878 C873 1.350 . S
C879 H866 0.929 . S
C879 C871 1.433 . S
C879 N881 1.384 . S
N880 C876 1.427 . S
N880 C877 1.384 . S
N881 C873 1.427 . S
N881 C879 1.384 . S
H882 C888 0.930 . S
H883 C892 0.930 . S
H884 C897 0.929 . S
H885 C895 0.929 . S
H886 C890 0.929 . S
H887 C896 0.929 . S
C888 H882 0.930 . S
C888 C889 1.367 . S
C888 C896 1.378 . S
C889 C888 1.367 . S
C889 C897 1.433 . S
C890 H886 0.929 . S
C890 C892 1.378 . S
C890 C894 1.350 . S
C891 C894 1.463 . S
C891 C896 1.350 . S
C891 N899 1.427 . S
C892 H883 0.930 . S
C892 C890 1.378 . S
C892 C893 1.367 . S
C893 C892 1.367 . S
C893 C895 1.433 . S
C894 C890 1.350 . S
C894 C891 1.463 . S
C894 N898 1.427 . S
C895 H885 0.929 . S
C895 C893 1.433 . S
C895 N898 1.384 . S
C896 H887 0.929 . S
C896 C888 1.378 . S
C896 C891 1.350 . S
C897 H884 0.929 . S
C897 C889 1.433 . S
C897 N899 1.384 . S
N898 C894 1.427 . S
N898 C895 1.384 . S
N899 C891 1.427 . S
N899 C897 1.384 . S
H900 C906 0.930 . S
H901 C910 0.930 . S
H902 C915 0.929 . S
H903 C913 0.929 . S
H904 C908 0.929 . S
H905 C914 0.929 . S
C906 H900 0.930 . S
C906 C907 1.367 . S
C906 C914 1.378 . S
C907 C906 1.367 . S
C907 C915 1.433 . S
C908 H904 0.929 . S
C908 C910 1.378 . S
C908 C912 1.350 . S
C909 C912 1.463 . S
C909 C914 1.350 . S
C909 N917 1.427 . S
C910 H901 0.930 . S
C910 C908 1.378 . S
C910 C911 1.367 . S
C911 C910 1.367 . S
C911 C913 1.433 . S
C912 C908 1.350 . S
C912 C909 1.463 . S
C912 N916 1.427 . S
C913 H903 0.929 . S
C913 C911 1.433 . S
C913 N916 1.384 . S
C914 H905 0.929 . S
C914 C906 1.378 . S
C914 C909 1.350 . S
C915 H902 0.929 . S
C915 C907 1.433 . S
C915 N917 1.384 . S
N916 C912 1.427 . S
N916 C913 1.384 . S
N917 C909 1.427 . S
N917 C915 1.384 . S
H918 C924 0.930 . S
H919 C928 0.930 . S
H920 C933 0.929 . S
H921 C931 0.929 . S
H922 C926 0.929 . S
H923 C932 0.929 . S
C924 H918 0.930 . S
C924 C925 1.367 . S
C924 C932 1.378 . S
C925 C924 1.367 . S
C925 C933 1.433 . S
C926 H922 0.929 . S
C926 C928 1.378 . S
C926 C930 1.350 . S
C927 C930 1.463 . S
C927 C932 1.350 . S
C927 N935 1.427 . S
C928 H919 0.930 . S
C928 C926 1.378 . S
C928 C929 1.367 . S
C929 C928 1.367 . S
C929 C931 1.433 . S
C930 C926 1.350 . S
C930 C927 1.463 . S
C930 N934 1.427 . S
C931 H921 0.929 . S
C931 C929 1.433 . S
C931 N934 1.384 . S
C932 H923 0.929 . S
C932 C924 1.378 . S
C932 C927 1.350 . S
C933 H920 0.929 . S
C933 C925 1.433 . S
C933 N935 1.384 . S
N934 C930 1.427 . S
N934 C931 1.384 . S
N935 C927 1.427 . S
N935 C933 1.384 . S
H936 C942 0.930 . S
H937 C946 0.930 . S
H938 C951 0.929 . S
H939 C949 0.929 . S
H940 C944 0.929 . S
H941 C950 0.929 . S
C942 H936 0.930 . S
C942 C943 1.367 . S
C942 C950 1.378 . S
C943 C942 1.367 . S
C943 C951 1.433 . S
C944 H940 0.929 . S
C944 C946 1.378 . S
C944 C948 1.350 . S
C945 C948 1.463 . S
C945 C950 1.350 . S
C945 N953 1.427 . S
C946 H937 0.930 . S
C946 C944 1.378 . S
C946 C947 1.367 . S
C947 C946 1.367 . S
C947 C949 1.433 . S
C948 C944 1.350 . S
C948 C945 1.463 . S
C948 N952 1.427 . S
C949 H939 0.929 . S
C949 C947 1.433 . S
C949 N952 1.384 . S
C950 H941 0.929 . S
C950 C942 1.378 . S
C950 C945 1.350 . S
C951 H938 0.929 . S
C951 C943 1.433 . S
C951 N953 1.384 . S
N952 C948 1.427 . S
N952 C949 1.384 . S
N953 C945 1.427 . S
N953 C951 1.384 . S
H954 C960 0.930 . S
H955 C964 0.930 . S
H956 C969 0.929 . S
H957 C967 0.929 . S
H958 C962 0.929 . S
H959 C968 0.929 . S
C960 H954 0.930 . S
C960 C961 1.367 . S
C960 C968 1.378 . S
C961 C960 1.367 . S
C961 C969 1.433 . S
C962 H958 0.929 . S
C962 C964 1.378 . S
C962 C966 1.350 . S
C963 C966 1.463 . S
C963 C968 1.350 . S
C963 N971 1.427 . S
C964 H955 0.930 . S
C964 C962 1.378 . S
C964 C965 1.367 . S
C965 C964 1.367 . S
C965 C967 1.433 . S
C966 C962 1.350 . S
C966 C963 1.463 . S
C966 N970 1.427 . S
C967 H957 0.929 . S
C967 C965 1.433 . S
C967 N970 1.384 . S
C968 H959 0.929 . S
C968 C960 1.378 . S
C968 C963 1.350 . S
C969 H956 0.929 . S
C969 C961 1.433 . S
C969 N971 1.384 . S
N970 C966 1.427 . S
N970 C967 1.384 . S
N971 C963 1.427 . S
N971 C969 1.384 . S
H972 C978 0.930 . S
H973 C982 0.930 . S
H974 C987 0.929 . S
H975 C985 0.929 . S
H976 C980 0.929 . S
H977 C986 0.929 . S
C978 H972 0.930 . S
C978 C979 1.367 . S
C978 C986 1.378 . S
C979 C978 1.367 . S
C979 C987 1.433 . S
C980 H976 0.929 . S
C980 C982 1.378 . S
C980 C984 1.350 . S
C981 C984 1.463 . S
C981 C986 1.350 . S
C981 N989 1.427 . S
C982 H973 0.930 . S
C982 C980 1.378 . S
C982 C983 1.367 . S
C983 C982 1.367 . S
C983 C985 1.433 . S
C984 C980 1.350 . S
C984 C981 1.463 . S
C984 N988 1.427 . S
C985 H975 0.929 . S
C985 C983 1.433 . S
C985 N988 1.384 . S
C986 H977 0.929 . S
C986 C978 1.378 . S
C986 C981 1.350 . S
C987 H974 0.929 . S
C987 C979 1.433 . S
C987 N989 1.384 . S
N988 C984 1.427 . S
N988 C985 1.384 . S
N989 C981 1.427 . S
N989 C987 1.384 . S
H990 C996 0.930 . S
H991 C1000 0.930 . S
H992 C1005 0.929 . S
H993 C1003 0.929 . S
H994 C998 0.929 . S
H995 C1004 0.929 . S
C996 H990 0.930 . S
C996 C997 1.367 . S
C996 C1004 1.378 . S
C997 C996 1.367 . S
C997 C1005 1.433 . S
C998 H994 0.929 . S
C998 C1000 1.378 . S
C998 C1002 1.350 . S
C999 C1002 1.463 . S
C999 C1004 1.350 . S
C999 N1007 1.427 . S
C1000 H991 0.930 . S
C1000 C998 1.378 . S
C1000 C1001 1.367 . S
C1001 C1000 1.367 . S
C1001 C1003 1.433 . S
C1002 C998 1.350 . S
C1002 C999 1.463 . S
C1002 N1006 1.427 . S
C1003 H993 0.929 . S
C1003 C1001 1.433 . S
C1003 N1006 1.384 . S
C1004 H995 0.929 . S
C1004 C996 1.378 . S
C1004 C999 1.350 . S
C1005 H992 0.929 . S
C1005 C997 1.433 . S
C1005 N1007 1.384 . S
N1006 C1002 1.427 . S
N1006 C1003 1.384 . S
N1007 C999 1.427 . S
N1007 C1005 1.384 . S
H1008 C1014 0.930 . S
H1009 C1018 0.930 . S
H1010 C1023 0.929 . S
H1011 C1021 0.929 . S
H1012 C1016 0.929 . S
H1013 C1022 0.929 . S
C1014 H1008 0.930 . S
C1014 C1015 1.367 . S
C1014 C1022 1.378 . S
C1015 C1014 1.367 . S
C1015 C1023 1.433 . S
C1016 H1012 0.929 . S
C1016 C1018 1.378 . S
C1016 C1020 1.350 . S
C1017 C1020 1.463 . S
C1017 C1022 1.350 . S
C1017 N1025 1.427 . S
C1018 H1009 0.930 . S
C1018 C1016 1.378 . S
C1018 C1019 1.367 . S
C1019 C1018 1.367 . S
C1019 C1021 1.433 . S
C1020 C1016 1.350 . S
C1020 C1017 1.463 . S
C1020 N1024 1.427 . S
C1021 H1011 0.929 . S
C1021 C1019 1.433 . S
C1021 N1024 1.384 . S
C1022 H1013 0.929 . S
C1022 C1014 1.378 . S
C1022 C1017 1.350 . S
C1023 H1010 0.929 . S
C1023 C1015 1.433 . S
C1023 N1025 1.384 . S
N1024 C1020 1.427 . S
N1024 C1021 1.384 . S
N1025 C1017 1.427 . S
N1025 C1023 1.384 . S
H1026 C1032 0.930 . S
H1027 C1036 0.930 . S
H1028 C1041 0.929 . S
H1029 C1039 0.929 . S
H1030 C1034 0.929 . S
H1031 C1040 0.929 . S
C1032 H1026 0.930 . S
C1032 C1033 1.367 . S
C1032 C1040 1.378 . S
C1033 C1032 1.367 . S
C1033 C1041 1.433 . S
C1034 H1030 0.929 . S
C1034 C1036 1.378 . S
C1034 C1038 1.350 . S
C1035 C1038 1.463 . S
C1035 C1040 1.350 . S
C1035 N1043 1.427 . S
C1036 H1027 0.930 . S
C1036 C1034 1.378 . S
C1036 C1037 1.367 . S
C1037 C1036 1.367 . S
C1037 C1039 1.433 . S
C1038 C1034 1.350 . S
C1038 C1035 1.463 . S
C1038 N1042 1.427 . S
C1039 H1029 0.929 . S
C1039 C1037 1.433 . S
C1039 N1042 1.384 . S
C1040 H1031 0.929 . S
C1040 C1032 1.378 . S
C1040 C1035 1.350 . S
C1041 H1028 0.929 . S
C1041 C1033 1.433 . S
C1041 N1043 1.384 . S
N1042 C1038 1.427 . S
N1042 C1039 1.384 . S
N1043 C1035 1.427 . S
N1043 C1041 1.384 . S
H1044 C1050 0.930 . S
H1045 C1054 0.930 . S
H1046 C1059 0.929 . S
H1047 C1057 0.929 . S
H1048 C1052 0.929 . S
H1049 C1058 0.929 . S
C1050 H1044 0.930 . S
C1050 C1051 1.367 1_455 S
C1050 C1058 1.378 . S
C1051 C1050 1.367 1_655 S
C1051 C1059 1.433 . S
C1052 H1048 0.929 . S
C1052 C1054 1.378 . S
C1052 C1056 1.294 1_655 S
C1053 C1056 1.508 1_655 S
C1053 C1058 1.310 1_655 S
C1053 N1061 1.453 . S
C1054 H1045 0.930 . S
C1054 C1052 1.378 . S
C1054 C1055 1.367 1_655 S
C1055 C1054 1.367 1_455 S
C1055 C1057 1.433 . S
C1056 C1052 1.294 1_455 S
C1056 C1053 1.508 1_455 S
C1056 N1060 1.463 . S
C1057 H1047 0.929 . S
C1057 C1055 1.433 . S
C1057 N1060 1.384 . S
C1058 H1049 0.929 . S
C1058 C1050 1.378 . S
C1058 C1053 1.310 1_455 S
C1059 H1046 0.929 . S
C1059 C1051 1.433 . S
C1059 N1061 1.384 . S
N1060 C1056 1.463 . S
N1060 C1057 1.384 . S
N1061 C1053 1.453 . S
N1061 C1059 1.384 . S
H1062 C1068 0.930 . S
H1063 C1072 0.930 . S
H1064 C1077 0.929 . S
H1065 C1075 0.929 . S
H1066 C1070 0.929 . S
H1067 C1076 0.929 . S
C1068 H1062 0.930 . S
C1068 C1069 1.367 . S
C1068 C1076 1.378 . S
C1069 C1068 1.367 . S
C1069 C1077 1.433 . S
C1070 H1066 0.929 . S
C1070 C1072 1.378 . S
C1070 C1074 1.350 . S
C1071 C1074 1.463 . S
C1071 C1076 1.350 . S
C1071 N1079 1.427 . S
C1072 H1063 0.930 . S
C1072 C1070 1.378 . S
C1072 C1073 1.367 . S
C1073 C1072 1.367 . S
C1073 C1075 1.433 . S
C1074 C1070 1.350 . S
C1074 C1071 1.463 . S
C1074 N1078 1.427 . S
C1075 H1065 0.929 . S
C1075 C1073 1.433 . S
C1075 N1078 1.384 . S
C1076 H1067 0.929 . S
C1076 C1068 1.378 . S
C1076 C1071 1.350 . S
C1077 H1064 0.929 . S
C1077 C1069 1.433 . S
C1077 N1079 1.384 . S
N1078 C1074 1.427 . S
N1078 C1075 1.384 . S
N1079 C1071 1.427 . S
N1079 C1077 1.384 . S
H1080 C1086 0.930 . S
H1081 C1090 0.930 . S
H1082 C1095 0.929 . S
H1083 C1093 0.929 . S
H1084 C1088 0.929 . S
H1085 C1094 0.929 . S
C1086 H1080 0.930 . S
C1086 C1087 1.367 . S
C1086 C1094 1.378 . S
C1087 C1086 1.367 . S
C1087 C1095 1.433 1_565 S
C1088 H1084 0.929 . S
C1088 C1090 1.378 . S
C1088 C1092 1.350 . S
C1089 C1092 1.463 1_565 S
C1089 C1094 1.350 . S
C1089 N1097 1.427 1_565 S
C1090 H1081 0.930 . S
C1090 C1088 1.378 . S
C1090 C1091 1.367 . S
C1091 C1090 1.367 . S
C1091 C1093 1.433 1_545 S
C1092 C1088 1.350 . S
C1092 C1089 1.463 1_545 S
C1092 N1096 1.427 1_545 S
C1093 H1083 0.929 . S
C1093 C1091 1.433 1_565 S
C1093 N1096 1.384 . S
C1094 H1085 0.929 . S
C1094 C1086 1.378 . S
C1094 C1089 1.350 . S
C1095 H1082 0.929 . S
C1095 C1087 1.433 1_545 S
C1095 N1097 1.384 . S
N1096 C1092 1.427 1_565 S
N1096 C1093 1.384 . S
N1097 C1089 1.427 1_545 S
N1097 C1095 1.384 . S
H1098 C1104 0.930 . S
H1099 C1108 0.930 . S
H1100 C1113 0.929 . S
H1101 C1111 0.929 . S
H1102 C1106 0.929 . S
H1103 C1112 0.929 . S
C1104 H1098 0.930 . S
C1104 C1105 1.367 1_544 S
C1104 C1112 1.378 . S
C1105 C1104 1.367 1_566 S
C1105 C1113 1.433 . S
C1106 H1102 0.929 . S
C1106 C1108 1.378 . S
C1106 C1110 1.328 1_566 S
C1107 C1110 1.483 1_566 S
C1107 C1112 1.335 1_566 S
C1107 N1115 1.435 . S
C1108 H1099 0.930 . S
C1108 C1106 1.378 . S
C1108 C1109 1.367 1_566 S
C1109 C1108 1.367 1_544 S
C1109 C1111 1.433 . S
C1110 C1106 1.328 1_544 S
C1110 C1107 1.483 1_544 S
C1110 N1114 1.439 . S
C1111 H1101 0.929 . S
C1111 C1109 1.433 . S
C1111 N1114 1.384 . S
C1112 H1103 0.929 . S
C1112 C1104 1.378 . S
C1112 C1107 1.335 1_544 S
C1113 H1100 0.929 . S
C1113 C1105 1.433 . S
C1113 N1115 1.384 . S
N1114 C1110 1.439 . S
N1114 C1111 1.384 . S
N1115 C1107 1.435 . S
N1115 C1113 1.384 . S
H1116 C1122 0.930 . S
H1117 C1126 0.930 . S
H1118 C1131 0.929 . S
H1119 C1129 0.929 . S
H1120 C1124 0.929 . S
H1121 C1130 0.929 . S
C1122 H1116 0.930 . S
C1122 C1123 1.367 1_456 S
C1122 C1130 1.378 . S
C1123 C1122 1.367 1_654 S
C1123 C1131 1.433 . S
C1124 H1120 0.929 . S
C1124 C1126 1.378 . S
C1124 C1128 1.350 1_654 S
C1125 C1128 1.424 1_654 S
C1125 C1130 1.350 1_654 S
C1125 N1133 1.443 . S
C1126 H1117 0.930 . S
C1126 C1124 1.378 . S
C1126 C1127 1.367 1_654 S
C1127 C1126 1.367 1_456 S
C1127 C1129 1.433 . S
C1128 C1124 1.350 1_456 S
C1128 C1125 1.424 1_456 S
C1128 N1132 1.454 . S
C1129 H1119 0.929 . S
C1129 C1127 1.433 . S
C1129 N1132 1.384 . S
C1130 H1121 0.929 . S
C1130 C1122 1.378 . S
C1130 C1125 1.350 1_456 S
C1131 H1118 0.929 . S
C1131 C1123 1.433 . S
C1131 N1133 1.384 . S
N1132 C1128 1.454 . S
N1132 C1129 1.384 . S
N1133 C1125 1.443 . S
N1133 C1131 1.384 . S
H1134 C1140 0.930 . S
H1135 C1144 0.930 . S
H1136 C1149 0.929 . S
H1137 C1147 0.929 . S
H1138 C1142 0.929 . S
H1139 C1148 0.929 . S
C1140 H1134 0.930 . S
C1140 C1141 1.367 1_556 S
C1140 C1148 1.378 . S
C1141 C1140 1.367 1_554 S
C1141 C1149 1.433 . S
C1142 H1138 0.929 . S
C1142 C1144 1.378 . S
C1142 C1146 1.350 1_554 S
C1143 C1146 1.463 1_554 S
C1143 C1148 1.350 1_554 S
C1143 N1151 1.427 . S
C1144 H1135 0.930 . S
C1144 C1142 1.378 . S
C1144 C1145 1.367 1_554 S
C1145 C1144 1.367 1_556 S
C1145 C1147 1.433 . S
C1146 C1142 1.350 1_556 S
C1146 C1143 1.463 1_556 S
C1146 N1150 1.427 . S
C1147 H1137 0.929 . S
C1147 C1145 1.433 . S
C1147 N1150 1.384 . S
C1148 H1139 0.929 . S
C1148 C1140 1.378 . S
C1148 C1143 1.350 1_556 S
C1149 H1136 0.929 . S
C1149 C1141 1.433 . S
C1149 N1151 1.384 . S
N1150 C1146 1.427 . S
N1150 C1147 1.384 . S
N1151 C1143 1.427 . S
N1151 C1149 1.384 . S
H1152 C1158 0.934 . S
H1153 C1162 0.930 . S
H1154 C1167 0.929 . S
H1155 C1165 0.929 . S
H1156 C1160 0.929 . S
H1157 C1166 0.929 1_556 S
C1158 H1152 0.934 . S
C1158 C1159 1.365 1_556 S
C1158 C1166 1.377 1_556 S
C1159 C1158 1.365 1_554 S
C1159 C1167 1.433 . S
C1160 H1156 0.929 . S
C1160 C1162 1.378 . S
C1160 C1164 1.350 . S
C1161 C1164 1.463 . S
C1161 C1166 1.350 . S
C1161 N1169 1.427 . S
C1162 H1153 0.930 . S
C1162 C1160 1.378 . S
C1162 C1163 1.367 . S
C1163 C1162 1.367 . S
C1163 C1165 1.433 . S
C1164 C1160 1.350 . S
C1164 C1161 1.463 . S
C1164 N1168 1.427 . S
C1165 H1155 0.929 . S
C1165 C1163 1.433 . S
C1165 N1168 1.384 . S
C1166 H1157 0.929 1_554 S
C1166 C1158 1.377 1_554 S
C1166 C1161 1.350 . S
C1167 H1154 0.929 . S
C1167 C1159 1.433 . S
C1167 N1169 1.384 . S
N1168 C1164 1.427 . S
N1168 C1165 1.384 . S
N1169 C1161 1.427 . S
N1169 C1167 1.384 . S
H1170 C1176 0.930 . S
H1171 C1180 0.933 1_556 S
H1172 C1185 0.929 . S
H1173 C1183 0.929 . S
H1174 C1178 0.929 1_556 S
H1175 C1184 0.929 . S
C1176 H1170 0.930 . S
C1176 C1177 1.367 . S
C1176 C1184 1.378 . S
C1177 C1176 1.367 . S
C1177 C1185 1.433 . S
C1178 H1174 0.929 1_554 S
C1178 C1180 1.377 . S
C1178 C1182 1.350 . S
C1179 C1182 1.463 . S
C1179 C1184 1.350 . S
C1179 N1187 1.427 . S
C1180 H1171 0.933 1_554 S
C1180 C1178 1.377 . S
C1180 C1181 1.365 . S
C1181 C1180 1.365 . S
C1181 C1183 1.433 . S
C1182 C1178 1.350 . S
C1182 C1179 1.463 . S
C1182 N1186 1.427 . S
C1183 H1173 0.929 . S
C1183 C1181 1.433 . S
C1183 N1186 1.384 . S
C1184 H1175 0.929 . S
C1184 C1176 1.378 . S
C1184 C1179 1.350 . S
C1185 H1172 0.929 . S
C1185 C1177 1.433 . S
C1185 N1187 1.384 . S
N1186 C1182 1.427 . S
N1186 C1183 1.384 . S
N1187 C1179 1.427 . S
N1187 C1185 1.384 . S
H1188 C1194 0.930 . S
H1189 C1198 0.930 . S
H1190 C1203 0.929 . S
H1191 C1201 0.929 1_556 S
H1192 C1196 0.929 . S
H1193 C1202 0.929 . S
C1194 H1188 0.930 . S
C1194 C1195 1.367 . S
C1194 C1202 1.378 . S
C1195 C1194 1.367 . S
C1195 C1203 1.433 . S
C1196 H1192 0.929 . S
C1196 C1198 1.378 . S
C1196 C1200 1.350 . S
C1197 C1200 1.463 . S
C1197 C1202 1.350 . S
C1197 N1205 1.427 . S
C1198 H1189 0.930 . S
C1198 C1196 1.378 . S
C1198 C1199 1.367 . S
C1199 C1198 1.367 . S
C1199 C1201 1.433 . S
C1200 C1196 1.350 . S
C1200 C1197 1.463 . S
C1200 N1204 1.427 . S
C1201 H1191 0.929 1_554 S
C1201 C1199 1.433 . S
C1201 N1204 1.384 . S
C1202 H1193 0.929 . S
C1202 C1194 1.378 . S
C1202 C1197 1.350 . S
C1203 H1190 0.929 . S
C1203 C1195 1.433 . S
C1203 N1205 1.384 . S
N1204 C1200 1.427 . S
N1204 C1201 1.384 . S
N1205 C1197 1.427 . S
N1205 C1203 1.384 . S
H1206 C1212 0.930 . S
H1207 C1216 0.930 . S
H1208 C1221 0.929 . S
H1209 C1219 0.929 . S
H1210 C1214 0.929 . S
H1211 C1220 0.929 . S
C1212 H1206 0.930 . S
C1212 C1213 1.367 . S
C1212 C1220 1.378 . S
C1213 C1212 1.367 . S
C1213 C1221 1.433 . S
C1214 H1210 0.929 . S
C1214 C1216 1.378 . S
C1214 C1218 1.350 . S
C1215 C1218 1.463 . S
C1215 C1220 1.350 . S
C1215 N1223 1.427 . S
C1216 H1207 0.930 . S
C1216 C1214 1.378 . S
C1216 C1217 1.367 . S
C1217 C1216 1.367 . S
C1217 C1219 1.433 . S
C1218 C1214 1.350 . S
C1218 C1215 1.463 . S
C1218 N1222 1.427 . S
C1219 H1209 0.929 . S
C1219 C1217 1.433 . S
C1219 N1222 1.384 . S
C1220 H1211 0.929 . S
C1220 C1212 1.378 . S
C1220 C1215 1.350 . S
C1221 H1208 0.929 . S
C1221 C1213 1.433 . S
C1221 N1223 1.384 . S
N1222 C1218 1.427 . S
N1222 C1219 1.384 . S
N1223 C1215 1.427 . S
N1223 C1221 1.384 . S
H1224 C1230 0.930 . S
H1225 C1234 0.930 . S
H1226 C1239 0.929 . S
H1227 C1237 0.929 . S
H1228 C1232 0.929 . S
H1229 C1238 0.929 . S
C1230 H1224 0.930 . S
C1230 C1231 1.367 . S
C1230 C1238 1.378 . S
C1231 C1230 1.367 . S
C1231 C1239 1.433 . S
C1232 H1228 0.929 . S
C1232 C1234 1.378 . S
C1232 C1236 1.350 . S
C1233 C1236 1.463 . S
C1233 C1238 1.350 . S
C1233 N1241 1.427 . S
C1234 H1225 0.930 . S
C1234 C1232 1.378 . S
C1234 C1235 1.367 . S
C1235 C1234 1.367 . S
C1235 C1237 1.433 . S
C1236 C1232 1.350 . S
C1236 C1233 1.463 . S
C1236 N1240 1.427 . S
C1237 H1227 0.929 . S
C1237 C1235 1.433 . S
C1237 N1240 1.384 . S
C1238 H1229 0.929 . S
C1238 C1230 1.378 . S
C1238 C1233 1.350 . S
C1239 H1226 0.929 . S
C1239 C1231 1.433 . S
C1239 N1241 1.384 . S
N1240 C1236 1.427 . S
N1240 C1237 1.384 . S
N1241 C1233 1.427 . S
N1241 C1239 1.384 . S
H1242 C1248 0.930 . S
H1243 C1252 0.930 . S
H1244 C1257 0.929 . S
H1245 C1255 0.956 . S
H1246 C1250 0.929 . S
H1247 C1256 0.929 . S
C1248 H1242 0.930 . S
C1248 C1249 1.367 . S
C1248 C1256 1.378 . S
C1249 C1248 1.367 . S
C1249 C1257 1.433 . S
C1250 H1246 0.929 . S
C1250 C1252 1.378 . S
C1250 C1254 1.350 . S
C1251 C1254 1.463 . S
C1251 C1256 1.350 . S
C1251 N1259 1.427 . S
C1252 H1243 0.930 . S
C1252 C1250 1.378 . S
C1252 C1253 1.367 . S
C1253 C1252 1.367 . S
C1253 C1255 1.433 . S
C1254 C1250 1.350 . S
C1254 C1251 1.463 . S
C1254 N1258 1.427 . S
C1255 H1245 0.956 . S
C1255 C1253 1.433 . S
C1255 N1258 1.384 . S
C1256 H1247 0.929 . S
C1256 C1248 1.378 . S
C1256 C1251 1.350 . S
C1257 H1244 0.929 . S
C1257 C1249 1.433 . S
C1257 N1259 1.384 . S
N1258 C1254 1.427 . S
N1258 C1255 1.384 . S
N1259 C1251 1.427 . S
N1259 C1257 1.384 . S
H1260 C1266 0.930 . S
H1261 C1270 0.930 . S
H1262 C1275 0.929 1_554 S
H1263 C1273 0.929 . S
H1264 C1268 0.929 . S
H1265 C1274 0.929 . S
C1266 H1260 0.930 . S
C1266 C1267 1.367 . S
C1266 C1274 1.378 . S
C1267 C1266 1.367 . S
C1267 C1275 1.433 . S
C1268 H1264 0.929 . S
C1268 C1270 1.378 . S
C1268 C1272 1.350 . S
C1269 C1272 1.463 . S
C1269 C1274 1.350 . S
C1269 N1277 1.427 . S
C1270 H1261 0.930 . S
C1270 C1268 1.378 . S
C1270 C1271 1.367 . S
C1271 C1270 1.367 . S
C1271 C1273 1.433 . S
C1272 C1268 1.350 . S
C1272 C1269 1.463 . S
C1272 N1276 1.427 . S
C1273 H1263 0.929 . S
C1273 C1271 1.433 . S
C1273 N1276 1.384 . S
C1274 H1265 0.929 . S
C1274 C1266 1.378 . S
C1274 C1269 1.350 . S
C1275 H1262 0.929 1_556 S
C1275 C1267 1.433 . S
C1275 N1277 1.384 . S
N1276 C1272 1.427 . S
N1276 C1273 1.384 . S
N1277 C1269 1.427 . S
N1277 C1275 1.384 . S
H1278 C1284 0.930 . S
H1279 C1288 0.930 1_554 S
H1280 C1293 0.929 . S
H1281 C1291 0.929 . S
H1282 C1286 0.929 . S
H1283 C1292 0.929 . S
C1284 H1278 0.930 . S
C1284 C1285 1.367 . S
C1284 C1292 1.378 . S
C1285 C1284 1.367 . S
C1285 C1293 1.433 . S
C1286 H1282 0.929 . S
C1286 C1288 1.378 . S
C1286 C1290 1.350 . S
C1287 C1290 1.463 . S
C1287 C1292 1.350 . S
C1287 N1295 1.427 . S
C1288 H1279 0.930 1_556 S
C1288 C1286 1.378 . S
C1288 C1289 1.367 . S
C1289 C1288 1.367 . S
C1289 C1291 1.433 . S
C1290 C1286 1.350 . S
C1290 C1287 1.463 . S
C1290 N1294 1.427 . S
C1291 H1281 0.929 . S
C1291 C1289 1.433 . S
C1291 N1294 1.384 . S
C1292 H1283 0.929 . S
C1292 C1284 1.378 . S
C1292 C1287 1.350 . S
C1293 H1280 0.929 . S
C1293 C1285 1.433 . S
C1293 N1295 1.384 . S
N1294 C1290 1.427 . S
N1294 C1291 1.384 . S
N1295 C1287 1.427 . S
N1295 C1293 1.384 . S
H1296 C1302 0.930 . S
H1297 C1306 0.930 . S
H1298 C1311 0.929 . S
H1299 C1309 0.929 . S
H1300 C1304 0.929 . S
H1301 C1310 0.929 . S
C1302 H1296 0.930 . S
C1302 C1303 1.367 . S
C1302 C1310 1.378 . S
C1303 C1302 1.367 . S
C1303 C1311 1.433 1_556 S
C1304 H1300 0.929 . S
C1304 C1306 1.378 . S
C1304 C1308 1.350 . S
C1305 C1308 1.463 . S
C1305 C1310 1.350 . S
C1305 N1313 1.427 . S
C1306 H1297 0.930 . S
C1306 C1304 1.378 . S
C1306 C1307 1.367 . S
C1307 C1306 1.367 . S
C1307 C1309 1.433 . S
C1308 C1304 1.350 . S
C1308 C1305 1.463 . S
C1308 N1312 1.427 . S
C1309 H1299 0.929 . S
C1309 C1307 1.433 . S
C1309 N1312 1.384 . S
C1310 H1301 0.929 . S
C1310 C1302 1.378 . S
C1310 C1305 1.350 . S
C1311 H1298 0.929 . S
C1311 C1303 1.433 1_554 S
C1311 N1313 1.384 1_554 S
N1312 C1308 1.427 . S
N1312 C1309 1.384 . S
N1313 C1305 1.427 . S
N1313 C1311 1.384 1_556 S
H1314 C1320 0.930 . S
H1315 C1324 0.930 . S
H1316 C1329 0.929 . S
H1317 C1327 0.929 . S
H1318 C1322 0.929 . S
H1319 C1328 0.929 . S
C1320 H1314 0.930 . S
C1320 C1321 1.367 . S
C1320 C1328 1.378 . S
C1321 C1320 1.367 . S
C1321 C1329 1.433 . S
C1322 H1318 0.929 . S
C1322 C1324 1.378 . S
C1322 C1326 1.350 . S
C1323 C1326 1.463 . S
C1323 C1328 1.350 . S
C1323 N1331 1.427 . S
C1324 H1315 0.930 . S
C1324 C1322 1.378 . S
C1324 C1325 1.367 . S
C1325 C1324 1.367 . S
C1325 C1327 1.433 . S
C1326 C1322 1.350 . S
C1326 C1323 1.463 . S
C1326 N1330 1.427 . S
C1327 H1317 0.929 . S
C1327 C1325 1.433 . S
C1327 N1330 1.384 . S
C1328 H1319 0.929 . S
C1328 C1320 1.378 . S
C1328 C1323 1.350 . S
C1329 H1316 0.929 . S
C1329 C1321 1.433 . S
C1329 N1331 1.384 . S
N1330 C1326 1.427 . S
N1330 C1327 1.384 . S
N1331 C1323 1.427 . S
N1331 C1329 1.384 . S
H1332 C1338 0.930 . S
H1333 C1342 0.930 . S
H1334 C1347 0.929 . S
H1335 C1345 0.929 . S
H1336 C1340 0.929 . S
H1337 C1346 0.929 . S
C1338 H1332 0.930 . S
C1338 C1339 1.367 . S
C1338 C1346 1.378 . S
C1339 C1338 1.367 . S
C1339 C1347 1.433 . S
C1340 H1336 0.929 . S
C1340 C1342 1.378 . S
C1340 C1344 1.350 . S
C1341 C1344 1.463 . S
C1341 C1346 1.350 . S
C1341 N1349 1.427 . S
C1342 H1333 0.930 . S
C1342 C1340 1.378 . S
C1342 C1343 1.367 . S
C1343 C1342 1.367 . S
C1343 C1345 1.433 . S
C1344 C1340 1.350 . S
C1344 C1341 1.463 . S
C1344 N1348 1.427 . S
C1345 H1335 0.929 . S
C1345 C1343 1.433 . S
C1345 N1348 1.384 . S
C1346 H1337 0.929 . S
C1346 C1338 1.378 . S
C1346 C1341 1.350 . S
C1347 H1334 0.929 . S
C1347 C1339 1.433 . S
C1347 N1349 1.384 . S
N1348 C1344 1.427 . S
N1348 C1345 1.384 . S
N1349 C1341 1.427 . S
N1349 C1347 1.384 . S
H1350 C1356 0.930 . S
H1351 C1360 0.930 . S
H1352 C1365 0.929 . S
H1353 C1363 0.929 . S
H1354 C1358 0.929 . S
H1355 C1364 0.929 . S
C1356 H1350 0.930 . S
C1356 C1357 1.367 . S
C1356 C1364 1.378 . S
C1357 C1356 1.367 . S
C1357 C1365 1.433 . S
C1358 H1354 0.929 . S
C1358 C1360 1.378 . S
C1358 C1362 1.350 . S
C1359 C1362 1.463 . S
C1359 C1364 1.350 . S
C1359 N1367 1.427 . S
C1360 H1351 0.930 . S
C1360 C1358 1.378 . S
C1360 C1361 1.367 . S
C1361 C1360 1.367 . S
C1361 C1363 1.433 . S
C1362 C1358 1.350 . S
C1362 C1359 1.463 . S
C1362 N1366 1.427 . S
C1363 H1353 0.929 . S
C1363 C1361 1.433 . S
C1363 N1366 1.384 . S
C1364 H1355 0.929 . S
C1364 C1356 1.378 . S
C1364 C1359 1.350 . S
C1365 H1352 0.929 . S
C1365 C1357 1.433 . S
C1365 N1367 1.384 . S
N1366 C1362 1.427 . S
N1366 C1363 1.384 . S
N1367 C1359 1.427 . S
N1367 C1365 1.384 . S
H1368 C1374 0.930 . S
H1369 C1378 0.930 . S
H1370 C1383 0.929 . S
H1371 C1381 0.929 . S
H1372 C1376 0.929 . S
H1373 C1382 0.929 . S
C1374 H1368 0.930 . S
C1374 C1375 1.367 . S
C1374 C1382 1.378 . S
C1375 C1374 1.367 . S
C1375 C1383 1.433 . S
C1376 H1372 0.929 . S
C1376 C1378 1.378 . S
C1376 C1380 1.350 . S
C1377 C1380 1.463 . S
C1377 C1382 1.350 . S
C1377 N1385 1.427 . S
C1378 H1369 0.930 . S
C1378 C1376 1.378 . S
C1378 C1379 1.367 . S
C1379 C1378 1.367 . S
C1379 C1381 1.433 . S
C1380 C1376 1.350 . S
C1380 C1377 1.463 . S
C1380 N1384 1.427 . S
C1381 H1371 0.929 . S
C1381 C1379 1.433 . S
C1381 N1384 1.384 . S
C1382 H1373 0.929 . S
C1382 C1374 1.378 . S
C1382 C1377 1.350 . S
C1383 H1370 0.929 . S
C1383 C1375 1.433 . S
C1383 N1385 1.384 . S
N1384 C1380 1.427 . S
N1384 C1381 1.384 . S
N1385 C1377 1.427 . S
N1385 C1383 1.384 . S
H1386 C1392 0.930 . S
H1387 C1396 0.930 . S
H1388 C1401 0.929 . S
H1389 C1399 0.929 . S
H1390 C1394 0.929 . S
H1391 C1400 0.929 . S
C1392 H1386 0.930 . S
C1392 C1393 1.367 . S
C1392 C1400 1.378 . S
C1393 C1392 1.367 . S
C1393 C1401 1.433 . S
C1394 H1390 0.929 . S
C1394 C1396 1.378 . S
C1394 C1398 1.350 . S
C1395 C1398 1.463 1_565 S
C1395 C1400 1.350 . S
C1395 N1403 1.427 . S
C1396 H1387 0.930 . S
C1396 C1394 1.378 . S
C1396 C1397 1.367 . S
C1397 C1396 1.367 . S
C1397 C1399 1.433 . S
C1398 C1394 1.350 . S
C1398 C1395 1.463 1_545 S
C1398 N1402 1.427 . S
C1399 H1389 0.929 . S
C1399 C1397 1.433 . S
C1399 N1402 1.384 . S
C1400 H1391 0.929 . S
C1400 C1392 1.378 . S
C1400 C1395 1.350 . S
C1401 H1388 0.929 . S
C1401 C1393 1.433 . S
C1401 N1403 1.384 . S
N1402 C1398 1.427 . S
N1402 C1399 1.384 . S
N1403 C1395 1.427 . S
N1403 C1401 1.384 . S
H1404 C1410 0.930 . S
H1405 C1414 0.930 . S
H1406 C1419 0.929 . S
H1407 C1417 0.929 . S
H1408 C1412 0.929 . S
H1409 C1418 0.929 . S
C1410 H1404 0.930 . S
C1410 C1411 1.367 . S
C1410 C1418 1.378 . S
C1411 C1410 1.367 . S
C1411 C1419 1.433 . S
C1412 H1408 0.929 . S
C1412 C1414 1.378 . S
C1412 C1416 1.350 . S
C1413 C1416 1.463 1_455 S
C1413 C1418 1.350 . S
C1413 N1421 1.427 . S
C1414 H1405 0.930 . S
C1414 C1412 1.378 . S
C1414 C1415 1.367 . S
C1415 C1414 1.367 . S
C1415 C1417 1.433 . S
C1416 C1412 1.350 . S
C1416 C1413 1.463 1_655 S
C1416 N1420 1.427 . S
C1417 H1407 0.929 . S
C1417 C1415 1.433 . S
C1417 N1420 1.384 . S
C1418 H1409 0.929 . S
C1418 C1410 1.378 . S
C1418 C1413 1.350 . S
C1419 H1406 0.929 . S
C1419 C1411 1.433 . S
C1419 N1421 1.384 . S
N1420 C1416 1.427 . S
N1420 C1417 1.384 . S
N1421 C1413 1.427 . S
N1421 C1419 1.384 . S
H1422 C1428 0.930 . S
H1423 C1432 0.930 . S
H1424 C1437 0.929 . S
H1425 C1435 0.929 . S
H1426 C1430 0.929 . S
H1427 C1436 0.929 . S
C1428 H1422 0.930 . S
C1428 C1429 1.367 . S
C1428 C1436 1.378 . S
C1429 C1428 1.367 . S
C1429 C1437 1.433 . S
C1430 H1426 0.929 . S
C1430 C1432 1.378 . S
C1430 C1434 1.350 . S
C1431 C1434 1.463 . S
C1431 C1436 1.350 . S
C1431 N1439 1.427 . S
C1432 H1423 0.930 . S
C1432 C1430 1.378 . S
C1432 C1433 1.367 . S
C1433 C1432 1.367 . S
C1433 C1435 1.433 . S
C1434 C1430 1.350 . S
C1434 C1431 1.463 . S
C1434 N1438 1.427 . S
C1435 H1425 0.929 . S
C1435 C1433 1.433 . S
C1435 N1438 1.384 . S
C1436 H1427 0.929 . S
C1436 C1428 1.378 . S
C1436 C1431 1.350 . S
C1437 H1424 0.929 . S
C1437 C1429 1.433 . S
C1437 N1439 1.384 . S
N1438 C1434 1.427 . S
N1438 C1435 1.384 . S
N1439 C1431 1.427 . S
N1439 C1437 1.384 . S
H1440 C1446 0.930 . S
H1441 C1450 0.930 . S
H1442 C1455 0.929 . S
H1443 C1453 0.929 . S
H1444 C1448 0.929 . S
H1445 C1454 0.929 . S
C1446 H1440 0.930 . S
C1446 C1447 1.367 . S
C1446 C1454 1.378 . S
C1447 C1446 1.367 . S
C1447 C1455 1.433 . S
C1448 H1444 0.929 . S
C1448 C1450 1.378 . S
C1448 C1452 1.350 . S
C1449 C1452 1.463 1_565 S
C1449 C1454 1.350 . S
C1449 N1457 1.427 . S
C1450 H1441 0.930 . S
C1450 C1448 1.378 . S
C1450 C1451 1.367 . S
C1451 C1450 1.367 . S
C1451 C1453 1.433 . S
C1452 C1448 1.350 . S
C1452 C1449 1.463 1_545 S
C1452 N1456 1.427 . S
C1453 H1443 0.929 . S
C1453 C1451 1.433 . S
C1453 N1456 1.384 . S
C1454 H1445 0.929 . S
C1454 C1446 1.378 . S
C1454 C1449 1.350 . S
C1455 H1442 0.929 . S
C1455 C1447 1.433 . S
C1455 N1457 1.384 . S
N1456 C1452 1.427 . S
N1456 C1453 1.384 . S
N1457 C1449 1.427 . S
N1457 C1455 1.384 . S
H1458 C1464 0.930 . S
H1459 C1468 0.930 . S
H1460 C1473 0.929 . S
H1461 C1471 0.929 . S
H1462 C1466 0.929 . S
H1463 C1472 0.929 . S
C1464 H1458 0.930 . S
C1464 C1465 1.367 . S
C1464 C1472 1.378 . S
C1465 C1464 1.367 . S
C1465 C1473 1.433 . S
C1466 H1462 0.929 . S
C1466 C1468 1.378 . S
C1466 C1470 1.350 . S
C1467 C1470 1.463 1_455 S
C1467 C1472 1.350 . S
C1467 N1475 1.427 . S
C1468 H1459 0.930 . S
C1468 C1466 1.378 . S
C1468 C1469 1.367 . S
C1469 C1468 1.367 . S
C1469 C1471 1.433 . S
C1470 C1466 1.350 . S
C1470 C1467 1.463 1_655 S
C1470 N1474 1.427 . S
C1471 H1461 0.929 . S
C1471 C1469 1.433 . S
C1471 N1474 1.384 . S
C1472 H1463 0.929 . S
C1472 C1464 1.378 . S
C1472 C1467 1.350 . S
C1473 H1460 0.929 . S
C1473 C1465 1.433 . S
C1473 N1475 1.384 . S
N1474 C1470 1.427 . S
N1474 C1471 1.384 . S
N1475 C1467 1.427 . S
N1475 C1473 1.384 . S
H1476 C1482 0.930 . S
H1477 C1486 0.930 . S
H1478 C1491 0.929 . S
H1479 C1489 0.929 . S
H1480 C1484 0.929 . S
H1481 C1490 0.929 . S
C1482 H1476 0.930 . S
C1482 C1483 1.367 . S
C1482 C1490 1.378 1_554 S
C1483 C1482 1.367 . S
C1483 C1491 1.433 . S
C1484 H1480 0.929 . S
C1484 C1486 1.378 . S
C1484 C1488 1.350 . S
C1485 C1488 1.463 . S
C1485 C1490 1.350 . S
C1485 N1493 1.427 . S
C1486 H1477 0.930 . S
C1486 C1484 1.378 . S
C1486 C1487 1.367 . S
C1487 C1486 1.367 . S
C1487 C1489 1.433 . S
C1488 C1484 1.350 . S
C1488 C1485 1.463 . S
C1488 N1492 1.427 . S
C1489 H1479 0.929 . S
C1489 C1487 1.433 . S
C1489 N1492 1.384 . S
C1490 H1481 0.929 . S
C1490 C1482 1.378 1_556 S
C1490 C1485 1.350 . S
C1491 H1478 0.929 . S
C1491 C1483 1.433 . S
C1491 N1493 1.384 1_554 S
N1492 C1488 1.427 . S
N1492 C1489 1.384 . S
N1493 C1485 1.427 . S
N1493 C1491 1.384 1_556 S
H1494 C1500 0.930 . S
H1495 C1504 0.930 . S
H1496 C1509 0.929 . S
H1497 C1507 0.929 . S
H1498 C1502 0.929 . S
H1499 C1508 0.929 . S
C1500 H1494 0.930 . S
C1500 C1501 1.367 . S
C1500 C1508 1.378 1_554 S
C1501 C1500 1.367 . S
C1501 C1509 1.433 . S
C1502 H1498 0.929 . S
C1502 C1504 1.378 . S
C1502 C1506 1.350 . S
C1503 C1506 1.463 . S
C1503 C1508 1.350 . S
C1503 N1511 1.427 . S
C1504 H1495 0.930 . S
C1504 C1502 1.378 . S
C1504 C1505 1.367 . S
C1505 C1504 1.367 . S
C1505 C1507 1.433 . S
C1506 C1502 1.350 . S
C1506 C1503 1.463 . S
C1506 N1510 1.427 . S
C1507 H1497 0.929 . S
C1507 C1505 1.433 . S
C1507 N1510 1.384 . S
C1508 H1499 0.929 . S
C1508 C1500 1.378 1_556 S
C1508 C1503 1.350 . S
C1509 H1496 0.929 . S
C1509 C1501 1.433 . S
C1509 N1511 1.384 1_554 S
N1510 C1506 1.427 . S
N1510 C1507 1.384 . S
N1511 C1503 1.427 . S
N1511 C1509 1.384 1_556 S
H1512 C1518 0.930 . S
H1513 C1522 0.930 . S
H1514 C1527 0.929 . S
H1515 C1525 0.929 . S
H1516 C1520 0.929 . S
H1517 C1526 0.929 . S
C1518 H1512 0.930 . S
C1518 C1519 1.367 . S
C1518 C1526 1.378 1_554 S
C1519 C1518 1.367 . S
C1519 C1527 1.433 . S
C1520 H1516 0.929 . S
C1520 C1522 1.378 . S
C1520 C1524 1.350 . S
C1521 C1524 1.463 . S
C1521 C1526 1.350 . S
C1521 N1529 1.427 . S
C1522 H1513 0.930 . S
C1522 C1520 1.378 . S
C1522 C1523 1.367 . S
C1523 C1522 1.367 . S
C1523 C1525 1.433 . S
C1524 C1520 1.350 . S
C1524 C1521 1.463 . S
C1524 N1528 1.427 . S
C1525 H1515 0.929 . S
C1525 C1523 1.433 . S
C1525 N1528 1.384 . S
C1526 H1517 0.929 . S
C1526 C1518 1.378 1_556 S
C1526 C1521 1.350 . S
C1527 H1514 0.929 . S
C1527 C1519 1.433 . S
C1527 N1529 1.384 1_554 S
N1528 C1524 1.427 . S
N1528 C1525 1.384 . S
N1529 C1521 1.427 . S
N1529 C1527 1.384 1_556 S
H1530 C1536 0.930 . S
H1531 C1540 0.930 . S
H1532 C1545 0.929 . S
H1533 C1543 0.929 . S
H1534 C1538 0.929 . S
H1535 C1544 0.929 . S
C1536 H1530 0.930 . S
C1536 C1537 1.367 . S
C1536 C1544 1.378 . S
C1537 C1536 1.367 . S
C1537 C1545 1.433 . S
C1538 H1534 0.929 . S
C1538 C1540 1.378 . S
C1538 C1542 1.350 . S
C1539 C1542 1.463 . S
C1539 C1544 1.350 . S
C1539 N1547 1.427 . S
C1540 H1531 0.930 . S
C1540 C1538 1.378 . S
C1540 C1541 1.367 . S
C1541 C1540 1.367 . S
C1541 C1543 1.433 . S
C1542 C1538 1.350 . S
C1542 C1539 1.463 . S
C1542 N1546 1.427 . S
C1543 H1533 0.929 . S
C1543 C1541 1.433 . S
C1543 N1546 1.384 . S
C1544 H1535 0.929 . S
C1544 C1536 1.378 . S
C1544 C1539 1.350 . S
C1545 H1532 0.929 . S
C1545 C1537 1.433 . S
C1545 N1547 1.384 . S
N1546 C1542 1.427 . S
N1546 C1543 1.384 . S
N1547 C1539 1.427 . S
N1547 C1545 1.384 . S
H1548 C1554 0.930 . S
H1549 C1558 0.930 . S
H1550 C1563 0.929 . S
H1551 C1561 0.929 . S
H1552 C1556 0.929 . S
H1553 C1562 0.929 . S
C1554 H1548 0.930 . S
C1554 C1555 1.367 . S
C1554 C1562 1.378 . S
C1555 C1554 1.367 . S
C1555 C1563 1.433 . S
C1556 H1552 0.929 . S
C1556 C1558 1.378 . S
C1556 C1560 1.350 . S
C1557 C1560 1.463 . S
C1557 C1562 1.350 . S
C1557 N1565 1.427 . S
C1558 H1549 0.930 . S
C1558 C1556 1.378 . S
C1558 C1559 1.367 . S
C1559 C1558 1.367 . S
C1559 C1561 1.433 . S
C1560 C1556 1.350 . S
C1560 C1557 1.463 . S
C1560 N1564 1.427 . S
C1561 H1551 0.929 . S
C1561 C1559 1.433 . S
C1561 N1564 1.384 . S
C1562 H1553 0.929 . S
C1562 C1554 1.378 . S
C1562 C1557 1.350 . S
C1563 H1550 0.929 . S
C1563 C1555 1.433 . S
C1563 N1565 1.384 . S
N1564 C1560 1.427 . S
N1564 C1561 1.384 . S
N1565 C1557 1.427 . S
N1565 C1563 1.384 . S
H1566 C1572 0.930 . S
H1567 C1576 0.930 . S
H1568 C1581 0.929 . S
H1569 C1579 0.929 . S
H1570 C1574 0.929 . S
H1571 C1580 0.929 . S
C1572 H1566 0.930 . S
C1572 C1573 1.367 . S
C1572 C1580 1.378 . S
C1573 C1572 1.367 . S
C1573 C1581 1.433 . S
C1574 H1570 0.929 . S
C1574 C1576 1.378 . S
C1574 C1578 1.350 . S
C1575 C1578 1.463 . S
C1575 C1580 1.350 . S
C1575 N1583 1.427 . S
C1576 H1567 0.930 . S
C1576 C1574 1.378 . S
C1576 C1577 1.367 . S
C1577 C1576 1.367 . S
C1577 C1579 1.433 . S
C1578 C1574 1.350 . S
C1578 C1575 1.463 . S
C1578 N1582 1.427 . S
C1579 H1569 0.929 . S
C1579 C1577 1.433 . S
C1579 N1582 1.384 . S
C1580 H1571 0.929 . S
C1580 C1572 1.378 . S
C1580 C1575 1.350 . S
C1581 H1568 0.929 . S
C1581 C1573 1.433 . S
C1581 N1583 1.384 . S
N1582 C1578 1.427 . S
N1582 C1579 1.384 . S
N1583 C1575 1.427 . S
N1583 C1581 1.384 . S
H1584 C1590 0.930 . S
H1585 C1594 0.930 . S
H1586 C1599 0.929 . S
H1587 C1597 0.929 . S
H1588 C1592 0.929 . S
H1589 C1598 0.929 . S
C1590 H1584 0.930 . S
C1590 C1591 1.367 . S
C1590 C1598 1.378 . S
C1591 C1590 1.367 . S
C1591 C1599 1.433 . S
C1592 H1588 0.929 . S
C1592 C1594 1.378 1_554 S
C1592 C1596 1.350 . S
C1593 C1596 1.463 . S
C1593 C1598 1.350 . S
C1593 N1601 1.427 . S
C1594 H1585 0.930 . S
C1594 C1592 1.378 1_556 S
C1594 C1595 1.367 . S
C1595 C1594 1.367 . S
C1595 C1597 1.433 . S
C1596 C1592 1.350 . S
C1596 C1593 1.463 . S
C1596 N1600 1.427 . S
C1597 H1587 0.929 . S
C1597 C1595 1.433 . S
C1597 N1600 1.384 1_556 S
C1598 H1589 0.929 . S
C1598 C1590 1.378 . S
C1598 C1593 1.350 . S
C1599 H1586 0.929 . S
C1599 C1591 1.433 . S
C1599 N1601 1.384 . S
N1600 C1596 1.427 . S
N1600 C1597 1.384 1_554 S
N1601 C1593 1.427 . S
N1601 C1599 1.384 . S
H1602 C1608 0.930 . S
H1603 C1612 0.930 . S
H1604 C1617 0.929 . S
H1605 C1615 0.929 . S
H1606 C1610 0.929 . S
H1607 C1616 0.929 . S
C1608 H1602 0.930 . S
C1608 C1609 1.367 . S
C1608 C1616 1.378 . S
C1609 C1608 1.367 . S
C1609 C1617 1.433 . S
C1610 H1606 0.929 . S
C1610 C1612 1.378 1_554 S
C1610 C1614 1.350 . S
C1611 C1614 1.463 . S
C1611 C1616 1.350 . S
C1611 N1619 1.427 . S
C1612 H1603 0.930 . S
C1612 C1610 1.378 1_556 S
C1612 C1613 1.367 . S
C1613 C1612 1.367 . S
C1613 C1615 1.433 . S
C1614 C1610 1.350 . S
C1614 C1611 1.463 . S
C1614 N1618 1.427 . S
C1615 H1605 0.929 . S
C1615 C1613 1.433 . S
C1615 N1618 1.384 1_556 S
C1616 H1607 0.929 . S
C1616 C1608 1.378 . S
C1616 C1611 1.350 . S
C1617 H1604 0.929 . S
C1617 C1609 1.433 . S
C1617 N1619 1.384 . S
N1618 C1614 1.427 . S
N1618 C1615 1.384 1_554 S
N1619 C1611 1.427 . S
N1619 C1617 1.384 . S
H1620 C1626 0.930 . S
H1621 C1630 0.930 . S
H1622 C1635 0.929 . S
H1623 C1633 0.929 . S
H1624 C1628 0.929 . S
H1625 C1634 0.929 . S
C1626 H1620 0.930 . S
C1626 C1627 1.367 . S
C1626 C1634 1.378 . S
C1627 C1626 1.367 . S
C1627 C1635 1.433 . S
C1628 H1624 0.929 . S
C1628 C1630 1.378 1_554 S
C1628 C1632 1.350 . S
C1629 C1632 1.463 . S
C1629 C1634 1.350 . S
C1629 N1637 1.427 . S
C1630 H1621 0.930 . S
C1630 C1628 1.378 1_556 S
C1630 C1631 1.367 . S
C1631 C1630 1.367 . S
C1631 C1633 1.433 . S
C1632 C1628 1.350 . S
C1632 C1629 1.463 . S
C1632 N1636 1.427 . S
C1633 H1623 0.929 . S
C1633 C1631 1.433 . S
C1633 N1636 1.384 1_556 S
C1634 H1625 0.929 . S
C1634 C1626 1.378 . S
C1634 C1629 1.350 . S
C1635 H1622 0.929 . S
C1635 C1627 1.433 . S
C1635 N1637 1.384 . S
N1636 C1632 1.427 . S
N1636 C1633 1.384 1_554 S
N1637 C1629 1.427 . S
N1637 C1635 1.384 . S
H1638 C1644 0.930 . S
H1639 C1648 0.930 . S
H1640 C1653 0.929 . S
H1641 C1651 0.929 . S
H1642 C1646 0.929 . S
H1643 C1652 0.929 . S
C1644 H1638 0.930 . S
C1644 C1645 1.367 . S
C1644 C1652 1.378 . S
C1645 C1644 1.367 . S
C1645 C1653 1.433 . S
C1646 H1642 0.929 . S
C1646 C1648 1.378 . S
C1646 C1650 1.350 . S
C1647 C1650 1.463 . S
C1647 C1652 1.350 . S
C1647 N1655 1.427 . S
C1648 H1639 0.930 . S
C1648 C1646 1.378 . S
C1648 C1649 1.367 . S
C1649 C1648 1.367 . S
C1649 C1651 1.433 . S
C1650 C1646 1.350 . S
C1650 C1647 1.463 . S
C1650 N1654 1.427 . S
C1651 H1641 0.929 . S
C1651 C1649 1.433 . S
C1651 N1654 1.384 . S
C1652 H1643 0.929 . S
C1652 C1644 1.378 . S
C1652 C1647 1.350 . S
C1653 H1640 0.929 . S
C1653 C1645 1.433 . S
C1653 N1655 1.384 . S
N1654 C1650 1.427 . S
N1654 C1651 1.384 . S
N1655 C1647 1.427 . S
N1655 C1653 1.384 . S
H1656 C1662 0.930 . S
H1657 C1666 0.930 . S
H1658 C1671 0.929 . S
H1659 C1669 0.929 . S
H1660 C1664 0.929 . S
H1661 C1670 0.929 . S
C1662 H1656 0.930 . S
C1662 C1663 1.367 . S
C1662 C1670 1.378 . S
C1663 C1662 1.367 . S
C1663 C1671 1.433 . S
C1664 H1660 0.929 . S
C1664 C1666 1.378 . S
C1664 C1668 1.350 . S
C1665 C1668 1.463 . S
C1665 C1670 1.350 . S
C1665 N1673 1.427 . S
C1666 H1657 0.930 . S
C1666 C1664 1.378 . S
C1666 C1667 1.367 . S
C1667 C1666 1.367 . S
C1667 C1669 1.433 . S
C1668 C1664 1.350 . S
C1668 C1665 1.463 . S
C1668 N1672 1.427 . S
C1669 H1659 0.929 . S
C1669 C1667 1.433 . S
C1669 N1672 1.384 . S
C1670 H1661 0.929 . S
C1670 C1662 1.378 . S
C1670 C1665 1.350 . S
C1671 H1658 0.929 . S
C1671 C1663 1.433 . S
C1671 N1673 1.384 . S
N1672 C1668 1.427 . S
N1672 C1669 1.384 . S
N1673 C1665 1.427 . S
N1673 C1671 1.384 . S
H1674 C1680 0.930 . S
H1675 C1684 0.930 . S
H1676 C1689 0.929 . S
H1677 C1687 0.929 . S
H1678 C1682 0.929 . S
H1679 C1688 0.929 . S
C1680 H1674 0.930 . S
C1680 C1681 1.367 . S
C1680 C1688 1.378 . S
C1681 C1680 1.367 . S
C1681 C1689 1.433 . S
C1682 H1678 0.929 . S
C1682 C1684 1.378 . S
C1682 C1686 1.350 . S
C1683 C1686 1.463 . S
C1683 C1688 1.350 . S
C1683 N1691 1.427 . S
C1684 H1675 0.930 . S
C1684 C1682 1.378 . S
C1684 C1685 1.367 . S
C1685 C1684 1.367 . S
C1685 C1687 1.433 . S
C1686 C1682 1.350 . S
C1686 C1683 1.463 . S
C1686 N1690 1.427 . S
C1687 H1677 0.929 . S
C1687 C1685 1.433 . S
C1687 N1690 1.384 . S
C1688 H1679 0.929 . S
C1688 C1680 1.378 . S
C1688 C1683 1.350 . S
C1689 H1676 0.929 . S
C1689 C1681 1.433 . S
C1689 N1691 1.384 . S
N1690 C1686 1.427 . S
N1690 C1687 1.384 . S
N1691 C1683 1.427 . S
N1691 C1689 1.384 . S
H1692 C1698 0.930 . S
H1693 C1702 0.906 1_655 S
H1694 C1707 0.929 . S
H1695 C1705 0.929 . S
H1696 C1700 0.929 . S
H1697 C1706 0.843 1_455 S
C1698 H1692 0.930 . S
C1698 C1699 1.367 . S
C1698 C1706 1.388 . S
C1699 C1698 1.367 . S
C1699 C1707 1.433 . S
C1700 H1696 0.929 . S
C1700 C1702 1.376 1_655 S
C1700 C1704 1.362 . S
C1701 C1704 1.464 . S
C1701 C1706 1.394 . S
C1701 N1709 1.427 . S
C1702 H1693 0.906 1_455 S
C1702 C1700 1.376 1_455 S
C1702 C1703 1.378 . S
C1703 C1702 1.378 . S
C1703 C1705 1.433 . S
C1704 C1700 1.362 . S
C1704 C1701 1.464 . S
C1704 N1708 1.413 1_655 S
C1705 H1695 0.929 . S
C1705 C1703 1.433 . S
C1705 N1708 1.384 . S
C1706 H1697 0.843 1_655 S
C1706 C1698 1.388 . S
C1706 C1701 1.394 . S
C1707 H1694 0.929 . S
C1707 C1699 1.433 . S
C1707 N1709 1.384 . S
N1708 C1704 1.413 1_455 S
N1708 C1705 1.384 . S
N1709 C1701 1.427 . S
N1709 C1707 1.384 . S
H1710 C1716 0.930 . S
H1711 C1720 0.930 . S
H1712 C1725 0.929 . S
H1713 C1723 0.929 . S
H1714 C1718 0.929 . S
H1715 C1724 0.929 . S
C1716 H1710 0.930 . S
C1716 C1717 1.367 . S
C1716 C1724 1.378 . S
C1717 C1716 1.367 . S
C1717 C1725 1.433 . S
C1718 H1714 0.929 . S
C1718 C1720 1.378 . S
C1718 C1722 1.350 . S
C1719 C1722 1.463 . S
C1719 C1724 1.350 . S
C1719 N1727 1.427 . S
C1720 H1711 0.930 . S
C1720 C1718 1.378 . S
C1720 C1721 1.367 . S
C1721 C1720 1.367 . S
C1721 C1723 1.433 . S
C1722 C1718 1.350 . S
C1722 C1719 1.463 . S
C1722 N1726 1.427 . S
C1723 H1713 0.929 . S
C1723 C1721 1.433 . S
C1723 N1726 1.384 . S
C1724 H1715 0.929 . S
C1724 C1716 1.378 . S
C1724 C1719 1.350 . S
C1725 H1712 0.929 . S
C1725 C1717 1.433 . S
C1725 N1727 1.384 . S
N1726 C1722 1.427 . S
N1726 C1723 1.384 . S
N1727 C1719 1.427 . S
N1727 C1725 1.384 . S
H1728 C1734 0.930 . S
H1729 C1738 0.930 . S
H1730 C1743 0.929 . S
H1731 C1741 0.940 1_565 S
H1732 C1736 0.929 . S
H1733 C1742 0.929 . S
C1734 H1728 0.930 . S
C1734 C1735 1.367 . S
C1734 C1742 1.378 . S
C1735 C1734 1.367 . S
C1735 C1743 1.433 1_565 S
C1736 H1732 0.929 . S
C1736 C1738 1.378 . S
C1736 C1740 1.350 . S
C1737 C1740 1.464 . S
C1737 C1742 1.353 1_545 S
C1737 N1745 1.422 . S
C1738 H1729 0.930 . S
C1738 C1736 1.378 . S
C1738 C1739 1.367 . S
C1739 C1738 1.367 . S
C1739 C1741 1.433 . S
C1740 C1736 1.350 . S
C1740 C1737 1.464 . S
C1740 N1744 1.438 1_545 S
C1741 H1731 0.940 1_545 S
C1741 C1739 1.433 . S
C1741 N1744 1.380 1_545 S
C1742 H1733 0.929 . S
C1742 C1734 1.378 . S
C1742 C1737 1.353 1_565 S
C1743 H1730 0.929 . S
C1743 C1735 1.433 1_545 S
C1743 N1745 1.384 . S
N1744 C1740 1.438 1_565 S
N1744 C1741 1.380 1_565 S
N1745 C1737 1.422 . S
N1745 C1743 1.384 . S
H1746 C1752 0.930 . S
H1747 C1756 0.930 . S
H1748 C1761 0.929 . S
H1749 C1759 0.929 . S
H1750 C1754 0.929 . S
H1751 C1760 0.929 . S
C1752 H1746 0.930 . S
C1752 C1753 1.367 1_545 S
C1752 C1760 1.378 . S
C1753 C1752 1.367 1_565 S
C1753 C1761 1.433 . S
C1754 H1750 0.929 . S
C1754 C1756 1.378 . S
C1754 C1758 1.404 . S
C1755 C1758 1.467 . S
C1755 C1760 1.350 1_565 S
C1755 N1763 1.427 . S
C1756 H1747 0.930 . S
C1756 C1754 1.378 . S
C1756 C1757 1.367 1_565 S
C1757 C1756 1.367 1_545 S
C1757 C1759 1.433 . S
C1758 C1754 1.404 . S
C1758 C1755 1.467 . S
C1758 N1762 1.367 1_565 S
C1759 H1749 0.929 . S
C1759 C1757 1.433 . S
C1759 N1762 1.384 . S
C1760 H1751 0.929 . S
C1760 C1752 1.378 . S
C1760 C1755 1.350 1_545 S
C1761 H1748 0.929 . S
C1761 C1753 1.433 . S
C1761 N1763 1.384 . S
N1762 C1758 1.367 1_545 S
N1762 C1759 1.384 . S
N1763 C1755 1.427 . S
N1763 C1761 1.384 . S
H1764 C1770 0.930 . S
H1765 C1774 0.930 . S
H1766 C1779 0.929 . S
H1767 C1777 0.925 . S
H1768 C1772 0.929 . S
H1769 C1778 0.929 . S
C1770 H1764 0.930 . S
C1770 C1771 1.367 . S
C1770 C1778 1.378 . S
C1771 C1770 1.367 . S
C1771 C1779 1.433 1_655 S
C1772 H1768 0.929 . S
C1772 C1774 1.378 . S
C1772 C1776 1.350 . S
C1773 C1776 1.464 . S
C1773 C1778 1.352 1_455 S
C1773 N1781 1.424 . S
C1774 H1765 0.930 . S
C1774 C1772 1.378 . S
C1774 C1775 1.367 . S
C1775 C1774 1.367 . S
C1775 C1777 1.436 1_455 S
C1776 C1772 1.350 . S
C1776 C1773 1.464 . S
C1776 N1780 1.427 1_455 S
C1777 H1767 0.925 . S
C1777 C1775 1.436 1_655 S
C1777 N1780 1.386 . S
C1778 H1769 0.929 . S
C1778 C1770 1.378 . S
C1778 C1773 1.352 1_655 S
C1779 H1766 0.929 . S
C1779 C1771 1.433 1_455 S
C1779 N1781 1.384 . S
N1780 C1776 1.427 1_655 S
N1780 C1777 1.386 . S
N1781 C1773 1.424 . S
N1781 C1779 1.384 . S
H1782 C1788 0.930 . S
H1783 C1792 0.930 . S
H1784 C1797 0.929 . S
H1785 C1795 0.929 . S
H1786 C1790 0.929 . S
H1787 C1796 0.929 . S
C1788 H1782 0.930 . S
C1788 C1789 1.367 . S
C1788 C1796 1.378 . S
C1789 C1788 1.367 . S
C1789 C1797 1.433 . S
C1790 H1786 0.929 . S
C1790 C1792 1.378 . S
C1790 C1794 1.350 . S
C1791 C1794 1.463 . S
C1791 C1796 1.350 . S
C1791 N1799 1.427 . S
C1792 H1783 0.930 . S
C1792 C1790 1.378 . S
C1792 C1793 1.367 . S
C1793 C1792 1.367 . S
C1793 C1795 1.433 . S
C1794 C1790 1.350 . S
C1794 C1791 1.463 . S
C1794 N1798 1.427 . S
C1795 H1785 0.929 . S
C1795 C1793 1.433 . S
C1795 N1798 1.384 . S
C1796 H1787 0.929 . S
C1796 C1788 1.378 . S
C1796 C1791 1.350 . S
C1797 H1784 0.929 . S
C1797 C1789 1.433 . S
C1797 N1799 1.384 . S
N1798 C1794 1.427 . S
N1798 C1795 1.384 . S
N1799 C1791 1.427 . S
N1799 C1797 1.384 . S
C511 C224 1.838 . S
C515 C13 1.839 . S
C529 C250 1.837 . S
C533 C15 1.838 . S
C547 C223 1.838 . S
C551 C29 1.839 . S
C565 C365 1.807 . S
C569 C55 1.806 . S
C583 C57 1.803 . S
C587 C349 1.804 . S
C601 C83 1.804 . S
C605 C350 1.807 . S
C619 C97 1.837 . S
C623 C476 1.837 . S
C637 C502 1.836 . S
C641 C99 1.838 . S
C655 C462 1.837 . S
C659 C112 1.839 . S
C673 C127 1.805 . S
C677 C293 1.805 . S
C691 C252 1.805 . S
C695 C140 1.803 . S
C709 C167 1.805 . S
C713 C267 1.807 . S
C727 C405 1.729 . S
C731 C168 1.727 . S
C745 C195 1.728 . S
C749 C407 1.723 . S
C763 C379 1.727 . S
C767 C197 1.724 . S
C781 C460 1.729 . S
C785 C295 1.724 . S
C799 C421 1.728 . S
C803 C320 1.724 . S
C817 C335 1.730 . S
C821 C435 1.727 . S
C835 C265 1.773 . S
C839 C0 1.772 . S
C853 C278 1.764 . S
C857 C26 1.766 . S
C871 C280 1.764 . S
C875 C40 1.766 . S
C889 C42 1.775 . S
C893 C475 1.774 . S
C907 C68 1.775 . S
C911 C489 1.774 . S
C925 C70 1.772 . S
C929 C491 1.772 . S
C943 C84 1.772 . S
C947 C336 1.776 . S
C961 C363 1.772 . S
C965 C110 1.770 . S
C979 C376 1.768 . S
C983 C125 1.767 . S
C997 C210 1.776 . S
C1001 C138 1.774 . S
C1015 C153 1.775 . S
C1019 C237 1.772 . S
C1033 C154 1.774 . S
C1037 C239 1.773 . S
C1051 C181 1.760 . S
C1055 C432 1.760 . S
C1069 C446 1.762 . S
C1073 C182 1.765 . S
C1087 C449 1.773 . S
C1091 C208 1.773 . S
C1105 C390 1.775 . S
C1109 C306 1.772 . S
C1123 C309 1.775 . S
C1127 C392 1.775 . S
C1141 C322 1.776 . S
C1145 C418 1.778 . S
C1159 C391 1.791 . S
C1163 C1 1.789 . S
C1177 C27 1.788 . S
C1181 C393 1.792 . S
C1195 C41 1.788 . S
C1199 C419 1.787 . S
C1213 C180 1.760 . S
C1217 C43 1.756 . S
C1231 C69 1.760 . S
C1235 C183 1.753 . S
C1249 C71 1.760 . S
C1253 C209 1.753 . S
C1267 C307 1.791 . S
C1271 C85 1.786 . S
C1285 C111 1.787 . S
C1289 C308 1.793 . S
C1303 C323 1.789 . S
C1307 C124 1.787 . S
C1321 C139 1.758 . S
C1325 C433 1.756 . S
C1339 C447 1.759 . S
C1343 C152 1.754 . S
C1357 C448 1.758 . S
C1361 C155 1.755 . S
C1375 C337 1.774 . S
C1379 C211 1.769 . S
C1393 C362 1.775 . S
C1397 C236 1.772 . S
C1411 C377 1.770 . S
C1415 C238 1.771 . S
C1429 C264 1.771 . S
C1433 C474 1.769 . S
C1447 C488 1.772 . S
C1451 C279 1.770 . S
C1465 C490 1.771 . S
C1469 C281 1.771 . S
C1483 C12 0.944 . S
C1487 C225 0.946 . S
C1501 C14 0.941 . S
C1505 C251 0.943 . S
C1519 C28 0.941 . S
C1523 C222 0.943 . S
C1537 C364 0.974 . S
C1541 C54 0.975 . S
C1555 C348 0.977 . S
C1559 C56 0.974 . S
C1573 C351 0.977 . S
C1577 C82 0.979 . S
C1591 C477 0.943 . S
C1595 C96 0.940 . S
C1609 C503 0.946 . S
C1613 C98 0.944 . S
C1627 C463 0.945 . S
C1631 C113 0.946 . S
C1645 C126 0.975 . S
C1649 C292 0.974 . S
C1663 C141 0.979 . S
C1667 C253 0.977 . S
C1681 C166 0.974 . S
C1685 C266 0.974 . S
C1699 C404 1.062 . S
C1703 C169 1.062 . S
C1717 C406 1.058 . S
C1721 C194 1.064 . S
C1735 C196 1.063 . S
C1739 C378 1.062 . S
C1753 C294 1.058 . S
C1757 C461 1.062 . S
C1771 C420 1.061 . S
C1775 C321 1.066 . S
C1789 C434 1.060 . S
C1793 C334 1.065 . S
