# Generated by pormake.
# Topology ukm, (4)-cn, num edge types: 1
# Building blocks:
#     Node 0, Type 0, BuildingBlock: QUQFOY_clean_sbu_1, # of connection points: 4
#     Node 1, Type 0, BuildingBlock: QUQFOY_clean_sbu_1, # of connection points: 4
#     Node 2, Type 0, BuildingBlock: QUQFOY_clean_sbu_1, # of connection points: 4
#     Node 3, Type 0, BuildingBlock: QUQFOY_clean_sbu_1, # of connection points: 4
#     Node 4, Type 0, BuildingBlock: QUQFOY_clean_sbu_1, # of connection points: 4
#     Node 5, Type 0, BuildingBlock: QUQFOY_clean_sbu_1, # of connection points: 4
#     Node 6, Type 0, BuildingBlock: QUQFOY_clean_sbu_1, # of connection points: 4
#     Node 7, Type 0, BuildingBlock: QUQFOY_clean_sbu_1, # of connection points: 4
#     Node 8, Type 0, BuildingBlock: QUQFOY_clean_sbu_1, # of connection points: 4
#     Node 9, Type 0, BuildingBlock: QUQFOY_clean_sbu_1, # of connection points: 4
#     Node 10, Type 0, BuildingBlock: QUQFOY_clean_sbu_1, # of connection points: 4
#     Node 11, Type 0, BuildingBlock: QUQFOY_clean_sbu_1, # of connection points: 4
#     Node 12, Type 0, BuildingBlock: QUQFOY_clean_sbu_1, # of connection points: 4
#     Node 13, Type 0, BuildingBlock: QUQFOY_clean_sbu_1, # of connection points: 4
#     Node 14, Type 0, BuildingBlock: QUQFOY_clean_sbu_1, # of connection points: 4
#     Node 15, Type 0, BuildingBlock: QUQFOY_clean_sbu_1, # of connection points: 4
#     Node 16, Type 0, BuildingBlock: QUQFOY_clean_sbu_1, # of connection points: 4
#     Node 17, Type 0, BuildingBlock: QUQFOY_clean_sbu_1, # of connection points: 4
#     Node 18, Type 0, BuildingBlock: QUQFOY_clean_sbu_1, # of connection points: 4
#     Node 19, Type 0, BuildingBlock: QUQFOY_clean_sbu_1, # of connection points: 4
#     Node 20, Type 0, BuildingBlock: QUQFOY_clean_sbu_1, # of connection points: 4
#     Node 21, Type 0, BuildingBlock: QUQFOY_clean_sbu_1, # of connection points: 4
#     Node 22, Type 0, BuildingBlock: QUQFOY_clean_sbu_1, # of connection points: 4
#     Node 23, Type 0, BuildingBlock: QUQFOY_clean_sbu_1, # of connection points: 4
#     Node 24, Type 0, BuildingBlock: QUQFOY_clean_sbu_1, # of connection points: 4
#     Node 25, Type 0, BuildingBlock: QUQFOY_clean_sbu_1, # of connection points: 4
#     Node 26, Type 0, BuildingBlock: QUQFOY_clean_sbu_1, # of connection points: 4
#     Node 27, Type 0, BuildingBlock: QUQFOY_clean_sbu_1, # of connection points: 4
#     Node 28, Type 0, BuildingBlock: QUQFOY_clean_sbu_1, # of connection points: 4
#     Node 29, Type 0, BuildingBlock: QUQFOY_clean_sbu_1, # of connection points: 4
#     Node 30, Type 0, BuildingBlock: QUQFOY_clean_sbu_1, # of connection points: 4
#     Node 31, Type 0, BuildingBlock: QUQFOY_clean_sbu_1, # of connection points: 4
#     Edge 32, Type (0, 0), None
#     Edge 33, Type (0, 0), None
#     Edge 34, Type (0, 0), None
#     Edge 35, Type (0, 0), None
#     Edge 36, Type (0, 0), None
#     Edge 37, Type (0, 0), None
#     Edge 38, Type (0, 0), None
#     Edge 39, Type (0, 0), None
#     Edge 40, Type (0, 0), None
#     Edge 41, Type (0, 0), None
#     Edge 42, Type (0, 0), None
#     Edge 43, Type (0, 0), None
#     Edge 44, Type (0, 0), None
#     Edge 45, Type (0, 0), None
#     Edge 46, Type (0, 0), None
#     Edge 47, Type (0, 0), None
#     Edge 48, Type (0, 0), None
#     Edge 49, Type (0, 0), None
#     Edge 50, Type (0, 0), None
#     Edge 51, Type (0, 0), None
#     Edge 52, Type (0, 0), None
#     Edge 53, Type (0, 0), None
#     Edge 54, Type (0, 0), None
#     Edge 55, Type (0, 0), None
#     Edge 56, Type (0, 0), None
#     Edge 57, Type (0, 0), None
#     Edge 58, Type (0, 0), None
#     Edge 59, Type (0, 0), None
#     Edge 60, Type (0, 0), None
#     Edge 61, Type (0, 0), None
#     Edge 62, Type (0, 0), None
#     Edge 63, Type (0, 0), None
#     Edge 64, Type (0, 0), None
#     Edge 65, Type (0, 0), None
#     Edge 66, Type (0, 0), None
#     Edge 67, Type (0, 0), None
#     Edge 68, Type (0, 0), None
#     Edge 69, Type (0, 0), None
#     Edge 70, Type (0, 0), None
#     Edge 71, Type (0, 0), None
#     Edge 72, Type (0, 0), None
#     Edge 73, Type (0, 0), None
#     Edge 74, Type (0, 0), None
#     Edge 75, Type (0, 0), None
#     Edge 76, Type (0, 0), None
#     Edge 77, Type (0, 0), None
#     Edge 78, Type (0, 0), None
#     Edge 79, Type (0, 0), None
#     Edge 80, Type (0, 0), None
#     Edge 81, Type (0, 0), None
#     Edge 82, Type (0, 0), None
#     Edge 83, Type (0, 0), None
#     Edge 84, Type (0, 0), None
#     Edge 85, Type (0, 0), None
#     Edge 86, Type (0, 0), None
#     Edge 87, Type (0, 0), None
#     Edge 88, Type (0, 0), None
#     Edge 89, Type (0, 0), None
#     Edge 90, Type (0, 0), None
#     Edge 91, Type (0, 0), None
#     Edge 92, Type (0, 0), None
#     Edge 93, Type (0, 0), None
#     Edge 94, Type (0, 0), None
#     Edge 95, Type (0, 0), None
# Relax obj value: 0.203
# Max RMSD: 0.200
# Mean RMSD: 0.200
data_MOF--net-ukm--node1-QUQFOY_clean_sbu_1--edge1-none
_symmetry_space_group_name_H-M    P1
_symmetry_Int_Tables_number       1
_symmetry_cell_setting            triclinic
loop_
_symmetry_equiv_pos_as_xyz
'x, y, z'
_cell_length_a     14.421613
_cell_length_b     45.386143
_cell_length_c     20.974276
_cell_angle_alpha  90.001742
_cell_angle_beta   89.999935
_cell_angle_gamma 89.999594
loop_
_atom_site_label
_atom_site_type_symbol
_atom_site_fract_x
_atom_site_fract_y
_atom_site_fract_z
_atom_type_partial_charge
O0 O 0.16873 0.40325 0.25798 0.0
Cd1 Cd 0.24166 0.37114 0.2134 0.0
Cd2 Cd 0.04752 0.36618 0.18786 0.0
O3 O 1.01733 0.39728 0.25832 0.0
O4 O 0.3674 0.38659 0.23656 0.0
O5 O 0.31833 0.34337 0.27034 0.0
C6 C 0.38029 0.36386 0.27203 0.0
C7 C 1.04307 0.31576 0.17823 0.0
C8 C 0.08873 0.41183 0.27466 0.0
C9 C 0.16407 0.37879 0.07945 0.0
O10 O 0.08409 0.38305 0.10267 0.0
O11 O 0.23263 0.3709 0.11422 0.0
O12 O 0.9686 0.33122 0.1696 0.0
O13 O 0.11595 0.32857 0.20118 0.0
O14 O 0.1695 0.94677 0.25798 0.0
Cd15 Cd 0.09657 0.97889 0.21341 0.0
Cd16 Cd 0.2907 0.98385 0.18787 0.0
O17 O 0.32089 0.95275 0.25833 0.0
O18 O 0.97082 0.96343 0.23657 0.0
O19 O 1.01989 1.00666 0.27036 0.0
C20 C 0.95794 0.98617 0.27204 0.0
C21 C 0.29514 1.03427 0.17824 0.0
C22 C 0.24949 0.9382 0.27466 0.0
C23 C 0.17415 0.97124 0.07946 0.0
O24 O 0.25412 0.96698 0.10268 0.0
O25 O 0.10559 0.97913 0.11423 0.0
O26 O 0.36962 1.01881 0.1696 0.0
O27 O 0.22227 1.02146 0.20119 0.0
O28 O 0.16872 0.94678 0.83201 0.0
Cd29 Cd 0.24167 0.97889 0.8766 0.0
Cd30 Cd 0.04752 0.98385 0.90216 0.0
O31 O 1.01732 0.95275 0.83169 0.0
O32 O 0.36741 0.96343 0.85343 0.0
O33 O 0.31836 1.00666 0.81966 0.0
C34 C 0.38031 0.98617 0.81797 0.0
C35 C 1.04307 1.03427 0.91179 0.0
C36 C 0.08873 0.9382 0.81535 0.0
C37 C 0.1641 0.97123 0.01055 0.0
O38 O 0.08412 0.96698 -0.01266 0.0
O39 O 0.23266 0.97913 -0.02422 0.0
O40 O 0.9686 1.01881 -0.07957 0.0
O41 O 0.11595 1.02146 0.88883 0.0
O42 O 0.1695 0.40324 0.83201 0.0
Cd43 Cd 0.09655 0.37113 0.87658 0.0
Cd44 Cd 0.2907 0.36618 0.90215 0.0
O45 O 0.3209 0.39727 0.83169 0.0
O46 O 0.97081 0.38659 0.85342 0.0
O47 O 1.01986 0.34336 0.81965 0.0
C48 C 0.95792 0.36386 0.81795 0.0
C49 C 0.29514 0.31575 0.91179 0.0
C50 C 0.24949 0.41182 0.81534 0.0
C51 C 0.17411 0.37879 0.01054 0.0
O52 O 0.2541 0.38305 -0.01267 0.0
O53 O 0.10556 0.37089 -0.02423 0.0
O54 O 0.36962 0.33122 -0.07957 0.0
O55 O 0.22227 0.32857 0.88882 0.0
O56 O 1.00413 0.71698 0.73736 0.0
Cd57 Cd 1.04071 0.73385 0.65217 0.0
Cd58 Cd 0.84657 0.72889 0.62662 0.0
O59 O 0.8556 0.72913 0.72581 0.0
O60 O 0.11963 0.76881 0.67043 0.0
O61 O 0.97227 0.77145 0.63884 0.0
C62 C 0.04515 0.78427 0.6618 0.0
C63 C 0.70794 0.73617 0.568 0.0
C64 C 0.92416 0.72124 0.76058 0.0
C65 C 0.9995 0.6882 0.56537 0.0
O66 O 0.9195 0.69677 0.58205 0.0
O67 O 0.0709 0.70275 0.58171 0.0
O68 O 0.72082 0.71343 0.60347 0.0
O69 O 0.76989 0.75666 0.56969 0.0
O70 O 0.8341 0.13305 0.73735 0.0
Cd71 Cd 0.79752 0.11618 0.65216 0.0
Cd72 Cd 0.99166 0.12114 0.62661 0.0
O73 O 0.98264 0.1209 0.7258 0.0
O74 O 0.7186 0.08121 0.67042 0.0
O75 O 0.86596 0.07857 0.63884 0.0
C76 C 0.79308 0.06576 0.66179 0.0
C77 C 0.13029 0.11386 0.56798 0.0
C78 C 0.91407 0.12879 0.76057 0.0
C79 C 0.83873 0.16183 0.56537 0.0
O80 O 0.91873 0.15325 0.58205 0.0
O81 O 0.76733 0.14728 0.5817 0.0
O82 O 0.1174 0.13659 0.60346 0.0
O83 O 0.06833 0.09337 0.56967 0.0
O84 O 1.00411 0.13305 0.85269 0.0
Cd85 Cd 1.0407 0.11618 -0.06213 0.0
Cd86 Cd 0.84655 0.12114 -0.03657 0.0
O87 O 0.85557 0.12089 0.86425 0.0
O88 O 0.11963 0.08122 0.91959 0.0
O89 O 0.97228 0.07857 -0.04881 0.0
C90 C 0.04515 0.06576 -0.07177 0.0
C91 C 0.70792 0.11386 0.02206 0.0
C92 C 0.92412 0.12879 0.82948 0.0
C93 C 0.9995 0.16182 0.02468 0.0
O94 O 0.9195 0.15324 0.00801 0.0
O95 O 0.0709 0.14728 0.00833 0.0
O96 O 0.72081 0.13659 -0.0134 0.0
O97 O 0.76987 0.09336 0.02036 0.0
O98 O 0.83413 0.71698 0.8527 0.0
Cd99 Cd 0.79753 0.73385 -0.06212 0.0
Cd100 Cd 0.99168 0.72889 -0.03656 0.0
O101 O 0.98267 0.72913 0.86426 0.0
O102 O 0.71861 0.76881 0.9196 0.0
O103 O 0.86596 0.77146 -0.0488 0.0
C104 C 0.79308 0.78427 -0.07176 0.0
C105 C 0.13031 0.73617 0.02208 0.0
C106 C 0.91411 0.72123 0.82949 0.0
C107 C 0.83873 0.6882 0.02469 0.0
O108 O 0.91873 0.69678 0.00802 0.0
O109 O 0.76733 0.70275 0.00834 0.0
O110 O 0.11742 0.71343 -0.01339 0.0
O111 O 0.06836 0.75666 0.02038 0.0
O112 O 0.16872 0.90325 0.75798 0.0
Cd113 Cd 0.24165 0.87114 0.7134 0.0
Cd114 Cd 0.04751 0.86618 0.68786 0.0
O115 O 1.01733 0.89728 0.75832 0.0
O116 O 0.3674 0.88659 0.73656 0.0
O117 O 0.31833 0.84337 0.77034 0.0
C118 C 0.38029 0.86386 0.77203 0.0
C119 C 1.04307 0.81576 0.67823 0.0
C120 C 0.08873 0.91183 0.77466 0.0
C121 C 0.16407 0.87879 0.57945 0.0
O122 O 0.08409 0.88305 0.60267 0.0
O123 O 0.23263 0.8709 0.61422 0.0
O124 O 0.96859 0.83122 0.6696 0.0
O125 O 0.11595 0.82857 0.70118 0.0
O126 O 0.1695 0.44677 0.75799 0.0
Cd127 Cd 0.09657 0.47889 0.71341 0.0
Cd128 Cd 0.2907 0.48385 0.68787 0.0
O129 O 0.32089 0.45275 0.75833 0.0
O130 O 0.97082 0.46343 0.73657 0.0
O131 O 1.01989 0.50666 0.77035 0.0
C132 C 0.95794 0.48617 0.77204 0.0
C133 C 0.29515 0.53427 0.67824 0.0
C134 C 0.24949 0.4382 0.77466 0.0
C135 C 0.17415 0.47124 0.57946 0.0
O136 O 0.25413 0.46698 0.60268 0.0
O137 O 0.10559 0.47913 0.61423 0.0
O138 O 0.36962 0.51881 0.6696 0.0
O139 O 0.22227 0.52146 0.70119 0.0
O140 O 0.16873 0.44678 0.33201 0.0
Cd141 Cd 0.24167 0.47889 0.37659 0.0
Cd142 Cd 0.04752 0.48385 0.40216 0.0
O143 O 1.01732 0.45275 0.33169 0.0
O144 O 0.36741 0.46343 0.35343 0.0
O145 O 0.31836 0.50666 0.31966 0.0
C146 C 0.38031 0.48617 0.31797 0.0
C147 C 1.04307 0.53427 0.41179 0.0
C148 C 0.08873 0.43821 0.31534 0.0
C149 C 0.1641 0.47123 0.51055 0.0
O150 O 0.08412 0.46698 0.48734 0.0
O151 O 0.23266 0.47913 0.47578 0.0
O152 O 0.9686 0.51881 0.42043 0.0
O153 O 0.11595 0.52146 0.38883 0.0
O154 O 0.1695 0.90324 0.33201 0.0
Cd155 Cd 0.09655 0.87113 0.37658 0.0
Cd156 Cd 0.2907 0.86618 0.40215 0.0
O157 O 0.3209 0.89727 0.33169 0.0
O158 O 0.97081 0.88659 0.35342 0.0
O159 O 1.01986 0.84336 0.31965 0.0
C160 C 0.95792 0.86386 0.31795 0.0
C161 C 0.29515 0.81576 0.41179 0.0
C162 C 0.24949 0.91182 0.31534 0.0
C163 C 0.17411 0.87879 0.51054 0.0
O164 O 0.2541 0.88305 0.48733 0.0
O165 O 0.10556 0.87089 0.47577 0.0
O166 O 0.36962 0.83122 0.42043 0.0
O167 O 0.22227 0.82857 0.38883 0.0
O168 O 1.00413 0.21698 0.23736 0.0
Cd169 Cd 1.04071 0.23385 0.15217 0.0
Cd170 Cd 0.84657 0.22889 0.12662 0.0
O171 O 0.8556 0.22913 0.22581 0.0
O172 O 0.11963 0.26881 0.17043 0.0
O173 O 0.97228 0.27145 0.13885 0.0
C174 C 0.04515 0.28427 0.1618 0.0
C175 C 0.70794 0.23617 0.068 0.0
C176 C 0.92416 0.22124 0.26058 0.0
C177 C 0.9995 0.1882 0.06537 0.0
O178 O 0.9195 0.19677 0.08205 0.0
O179 O 0.0709 0.20275 0.08171 0.0
O180 O 0.72082 0.21343 0.10347 0.0
O181 O 0.76989 0.25666 0.06969 0.0
O182 O 0.8341 0.63305 0.23735 0.0
Cd183 Cd 0.79752 0.61618 0.15216 0.0
Cd184 Cd 0.99166 0.62114 0.12661 0.0
O185 O 0.98264 0.6209 0.2258 0.0
O186 O 0.7186 0.58121 0.17043 0.0
O187 O 0.86596 0.57857 0.13884 0.0
C188 C 0.79308 0.56576 0.16179 0.0
C189 C 0.13029 0.61386 0.06798 0.0
C190 C 0.91407 0.62879 0.26057 0.0
C191 C 0.83873 0.66183 0.06537 0.0
O192 O 0.91873 0.65325 0.08204 0.0
O193 O 0.76733 0.64728 0.0817 0.0
O194 O 0.1174 0.63659 0.10346 0.0
O195 O 0.06833 0.59337 0.06967 0.0
O196 O 1.00411 0.63305 0.35269 0.0
Cd197 Cd 1.04071 0.61618 0.43787 0.0
Cd198 Cd 0.84655 0.62113 0.46343 0.0
O199 O 0.85557 0.62089 0.36425 0.0
O200 O 0.11963 0.58122 0.41959 0.0
O201 O 0.97228 0.57857 0.45119 0.0
C202 C 0.04515 0.56576 0.42823 0.0
C203 C 0.70792 0.61386 0.52206 0.0
C204 C 0.92412 0.62879 0.32948 0.0
C205 C 0.9995 0.66182 0.52468 0.0
O206 O 0.9195 0.65324 0.50802 0.0
O207 O 0.0709 0.64728 0.50833 0.0
O208 O 0.72081 0.63659 0.4866 0.0
O209 O 0.76986 0.59336 0.52036 0.0
O210 O 0.83413 0.21698 0.35269 0.0
Cd211 Cd 0.79753 0.23385 0.43788 0.0
Cd212 Cd 0.99168 0.22889 0.46344 0.0
O213 O 0.98266 0.22913 0.36426 0.0
O214 O 0.71861 0.26881 0.4196 0.0
O215 O 0.86595 0.27146 0.4512 0.0
C216 C 0.79308 0.28427 0.42824 0.0
C217 C 0.13031 0.23617 0.52208 0.0
C218 C 0.91411 0.22123 0.32949 0.0
C219 C 0.83873 0.18821 0.52469 0.0
O220 O 0.91873 0.19678 0.50802 0.0
O221 O 0.76733 0.20275 0.50834 0.0
O222 O 0.11741 0.21343 0.48661 0.0
O223 O 0.06836 0.25666 0.52038 0.0
O224 O 0.66871 0.40325 0.75798 0.0
Cd225 Cd 0.74164 0.37114 0.71341 0.0
Cd226 Cd 0.54751 0.36618 0.68786 0.0
O227 O 0.51731 0.39728 0.75832 0.0
O228 O 0.86739 0.38659 0.73658 0.0
O229 O 0.81831 0.34337 0.77034 0.0
C230 C 0.88025 0.36386 0.77205 0.0
C231 C 0.54307 0.31576 0.67823 0.0
C232 C 0.58871 0.41183 0.77466 0.0
C233 C 0.66406 0.37879 0.57945 0.0
O234 O 0.58409 0.38305 0.60267 0.0
O235 O 0.73263 0.3709 0.61422 0.0
O236 O 0.46859 0.33121 0.66959 0.0
O237 O 0.61594 0.32857 0.70119 0.0
O238 O 0.66952 0.94677 0.75799 0.0
Cd239 Cd 0.59658 0.97888 0.71342 0.0
Cd240 Cd 0.79072 0.98384 0.68786 0.0
O241 O 0.82092 0.95275 0.75832 0.0
O242 O 0.47084 0.96343 0.73659 0.0
O243 O 0.51992 1.00666 0.77036 0.0
C244 C 0.45797 0.98616 0.77206 0.0
C245 C 0.79516 1.03427 0.67823 0.0
C246 C 0.74952 0.9382 0.77466 0.0
C247 C 0.67415 0.97124 0.57946 0.0
O248 O 0.75413 0.96697 0.60267 0.0
O249 O 0.60559 0.97913 0.61423 0.0
O250 O 0.86964 1.01881 0.66959 0.0
O251 O 0.72229 1.02145 0.70119 0.0
O252 O 0.6687 0.94678 0.33201 0.0
Cd253 Cd 0.74166 0.97889 0.37659 0.0
Cd254 Cd 0.54751 0.98385 0.40216 0.0
O255 O 0.5173 0.95275 0.3317 0.0
O256 O 0.86739 0.96343 0.35342 0.0
O257 O 0.81833 1.00666 0.31966 0.0
C258 C 0.88027 0.98616 0.31795 0.0
C259 C 0.54307 1.03427 0.4118 0.0
C260 C 0.58871 0.9382 0.31535 0.0
C261 C 0.6641 0.97123 0.51055 0.0
O262 O 0.58411 0.96698 0.48735 0.0
O263 O 0.73265 0.97913 0.47578 0.0
O264 O 0.46859 1.01881 0.42044 0.0
O265 O 0.61594 1.02145 0.38883 0.0
O266 O 0.66952 0.40324 0.33201 0.0
Cd267 Cd 0.59656 0.37114 0.37658 0.0
Cd268 Cd 0.79071 0.36618 0.40215 0.0
O269 O 0.82092 0.39728 0.33169 0.0
O270 O 0.47083 0.38659 0.35341 0.0
O271 O 0.51989 0.34336 0.31964 0.0
C272 C 0.45795 0.36386 0.31793 0.0
C273 C 0.79516 0.31576 0.4118 0.0
C274 C 0.74952 0.41182 0.31534 0.0
C275 C 0.67412 0.37879 0.51054 0.0
O276 O 0.7541 0.38305 0.48734 0.0
O277 O 0.60556 0.3709 0.47577 0.0
O278 O 0.86963 0.33122 0.42044 0.0
O279 O 0.72229 0.32857 0.38883 0.0
O280 O 0.50414 0.71698 0.23736 0.0
Cd281 Cd 0.54072 0.73385 0.15217 0.0
Cd282 Cd 0.34658 0.72888 0.12662 0.0
O283 O 0.3556 0.72913 0.22581 0.0
O284 O 0.61963 0.76881 0.17043 0.0
O285 O 0.47228 0.77145 0.13884 0.0
C286 C 0.54515 0.78427 0.1618 0.0
C287 C 0.20797 0.73616 0.06798 0.0
C288 C 0.42416 0.72124 0.26058 0.0
C289 C 0.49952 0.6882 0.06537 0.0
O290 O 0.41952 0.69677 0.08205 0.0
O291 O 0.57092 0.70275 0.08171 0.0
O292 O 0.22084 0.71343 0.10345 0.0
O293 O 0.26992 0.75666 0.06968 0.0
O294 O 0.3341 0.13305 0.23736 0.0
Cd295 Cd 0.29751 0.11618 0.15216 0.0
Cd296 Cd 0.49164 0.12114 0.12661 0.0
O297 O 0.48263 0.1209 0.2258 0.0
O298 O 0.21859 0.08122 0.17044 0.0
O299 O 0.36594 0.07857 0.13884 0.0
C300 C 0.29306 0.06576 0.1618 0.0
C301 C 0.63025 0.11386 0.06796 0.0
C302 C 0.41407 0.12879 0.26057 0.0
C303 C 0.33871 0.16183 0.06537 0.0
O304 O 0.41871 0.15325 0.08204 0.0
O305 O 0.26731 0.14728 0.0817 0.0
O306 O 0.61739 0.13659 0.10344 0.0
O307 O 0.56831 0.09337 0.06967 0.0
O308 O 0.50411 0.13305 0.35268 0.0
Cd309 Cd 0.54072 0.11618 0.43787 0.0
Cd310 Cd 0.34657 0.12114 0.46344 0.0
O311 O 0.35557 0.1209 0.36425 0.0
O312 O 0.61963 0.08122 0.41959 0.0
O313 O 0.47229 0.07857 0.4512 0.0
C314 C 0.54516 0.06576 0.42823 0.0
C315 C 0.20796 0.11386 0.52208 0.0
C316 C 0.42413 0.12879 0.32948 0.0
C317 C 0.49952 0.16182 0.52468 0.0
O318 O 0.41952 0.15324 0.50802 0.0
O319 O 0.57092 0.14728 0.50833 0.0
O320 O 0.22083 0.1366 0.48661 0.0
O321 O 0.26989 0.09336 0.52037 0.0
O322 O 0.33413 0.71697 0.35269 0.0
Cd323 Cd 0.29751 0.73385 0.43788 0.0
Cd324 Cd 0.49166 0.72889 0.46345 0.0
O325 O 0.48266 0.72913 0.36426 0.0
O326 O 0.21859 0.76881 0.41959 0.0
O327 O 0.36594 0.77146 0.4512 0.0
C328 C 0.29307 0.78427 0.42823 0.0
C329 C 0.63027 0.73616 0.5221 0.0
C330 C 0.41411 0.72123 0.32949 0.0
C331 C 0.33871 0.6882 0.52468 0.0
O332 O 0.41871 0.69678 0.50802 0.0
O333 O 0.26731 0.70275 0.50834 0.0
O334 O 0.6174 0.71343 0.48662 0.0
O335 O 0.56834 0.75666 0.52039 0.0
O336 O 0.6687 0.90325 0.25798 0.0
Cd337 Cd 0.74164 0.87114 0.21341 0.0
Cd338 Cd 0.5475 0.86618 0.18786 0.0
O339 O 0.51731 0.89728 0.25832 0.0
O340 O 0.86738 0.88659 0.23658 0.0
O341 O 0.81831 0.84337 0.27034 0.0
C342 C 0.88025 0.86386 0.27205 0.0
C343 C 0.54307 0.81576 0.17823 0.0
C344 C 0.58871 0.91183 0.27466 0.0
C345 C 0.66406 0.87879 0.07945 0.0
O346 O 0.58409 0.88305 0.10267 0.0
O347 O 0.73263 0.8709 0.11422 0.0
O348 O 0.46859 0.83121 0.16959 0.0
O349 O 0.61594 0.82857 0.20118 0.0
O350 O 0.66952 0.44677 0.25799 0.0
Cd351 Cd 0.59658 0.47889 0.21342 0.0
Cd352 Cd 0.79072 0.48384 0.18786 0.0
O353 O 0.82092 0.45275 0.25832 0.0
O354 O 0.47084 0.46343 0.23659 0.0
O355 O 0.51992 0.50666 0.27036 0.0
C356 C 0.45797 0.48616 0.27206 0.0
C357 C 0.79516 0.53427 0.17823 0.0
C358 C 0.74952 0.4382 0.27466 0.0
C359 C 0.67415 0.47124 0.07946 0.0
O360 O 0.75413 0.46697 0.10267 0.0
O361 O 0.60559 0.47913 0.11423 0.0
O362 O 0.86964 0.51881 0.16959 0.0
O363 O 0.72229 0.52145 0.20119 0.0
O364 O 0.6687 0.44678 0.83201 0.0
Cd365 Cd 0.74166 0.47889 0.87659 0.0
Cd366 Cd 0.54751 0.48385 0.90216 0.0
O367 O 0.5173 0.45275 0.8317 0.0
O368 O 0.86739 0.46343 0.85341 0.0
O369 O 0.81833 0.50666 0.81966 0.0
C370 C 0.88027 0.48616 0.81795 0.0
C371 C 0.54307 0.53427 0.9118 0.0
C372 C 0.58871 0.43821 0.81534 0.0
C373 C 0.6641 0.47123 0.01055 0.0
O374 O 0.58411 0.46698 -0.01265 0.0
O375 O 0.73265 0.47913 -0.02422 0.0
O376 O 0.46859 0.51881 -0.07956 0.0
O377 O 0.61594 0.52145 0.88883 0.0
O378 O 0.66952 0.90324 0.83201 0.0
Cd379 Cd 0.59656 0.87114 0.87658 0.0
Cd380 Cd 0.79072 0.86618 0.90215 0.0
O381 O 0.82092 0.89728 0.83169 0.0
O382 O 0.47083 0.88659 0.85341 0.0
O383 O 0.51989 0.84336 0.81964 0.0
C384 C 0.45795 0.86386 0.81793 0.0
C385 C 0.79516 0.81576 0.9118 0.0
C386 C 0.74952 0.91182 0.81534 0.0
C387 C 0.67412 0.8788 0.01054 0.0
O388 O 0.7541 0.88305 -0.01266 0.0
O389 O 0.60557 0.8709 -0.02423 0.0
O390 O 0.86964 0.83122 -0.07956 0.0
O391 O 0.72229 0.82857 0.88883 0.0
O392 O 0.50414 0.21698 0.73736 0.0
Cd393 Cd 0.54072 0.23384 0.65217 0.0
Cd394 Cd 0.34658 0.22888 0.62662 0.0
O395 O 0.3556 0.22913 0.72581 0.0
O396 O 0.61964 0.26881 0.67044 0.0
O397 O 0.47229 0.27145 0.63884 0.0
C398 C 0.54516 0.28427 0.6618 0.0
C399 C 0.20797 0.23616 0.56798 0.0
C400 C 0.42416 0.22124 0.76058 0.0
C401 C 0.49952 0.1882 0.56537 0.0
O402 O 0.41952 0.19677 0.58205 0.0
O403 O 0.57092 0.20275 0.58171 0.0
O404 O 0.22084 0.21343 0.60345 0.0
O405 O 0.26992 0.25666 0.56969 0.0
O406 O 0.3341 0.63305 0.73736 0.0
Cd407 Cd 0.29751 0.61618 0.65216 0.0
Cd408 Cd 0.49164 0.62114 0.62661 0.0
O409 O 0.48263 0.6209 0.7258 0.0
O410 O 0.21859 0.58122 0.67044 0.0
O411 O 0.36594 0.57857 0.63884 0.0
C412 C 0.29306 0.56576 0.6618 0.0
C413 C 0.63025 0.61386 0.56796 0.0
C414 C 0.41407 0.62879 0.76057 0.0
C415 C 0.33871 0.66183 0.56537 0.0
O416 O 0.41871 0.65325 0.58204 0.0
O417 O 0.26731 0.64728 0.58171 0.0
O418 O 0.61739 0.63659 0.60344 0.0
O419 O 0.56831 0.59337 0.56967 0.0
O420 O 0.50411 0.63305 0.85268 0.0
Cd421 Cd 0.54072 0.61618 -0.06213 0.0
Cd422 Cd 0.34656 0.62114 -0.03656 0.0
O423 O 0.35557 0.6209 0.86425 0.0
O424 O 0.61963 0.58122 0.91959 0.0
O425 O 0.47229 0.57857 -0.0488 0.0
C426 C 0.54516 0.56576 -0.07177 0.0
C427 C 0.20796 0.61386 0.02208 0.0
C428 C 0.42413 0.62879 0.82948 0.0
C429 C 0.49952 0.66182 0.02468 0.0
O430 O 0.41952 0.65324 0.00802 0.0
O431 O 0.57092 0.64728 0.00833 0.0
O432 O 0.22083 0.6366 -0.01339 0.0
O433 O 0.26989 0.59336 0.02037 0.0
O434 O 0.33413 0.21697 0.85269 0.0
Cd435 Cd 0.29751 0.23385 -0.06213 0.0
Cd436 Cd 0.49166 0.22889 -0.03655 0.0
O437 O 0.48266 0.22913 0.86426 0.0
O438 O 0.21859 0.26881 0.91959 0.0
O439 O 0.36593 0.27146 -0.0488 0.0
C440 C 0.29306 0.28427 -0.07177 0.0
C441 C 0.63027 0.23616 0.0221 0.0
C442 C 0.41411 0.22123 0.82949 0.0
C443 C 0.33871 0.18821 0.02469 0.0
O444 O 0.41871 0.19678 0.00802 0.0
O445 O 0.2673 0.20275 0.00833 0.0
O446 O 0.61739 0.21343 -0.01338 0.0
O447 O 0.56834 0.25666 0.02038 0.0
loop_
_geom_bond_atom_site_label_1
_geom_bond_atom_site_label_2
_geom_bond_distance
_geom_bond_site_symmetry_2
_ccdc_geom_bond_type
O0 Cd1 2.223 . S
O0 C8 1.315 . S
Cd1 O0 2.223 . S
Cd1 O4 2.297 . S
Cd1 O5 2.439 . S
Cd1 O11 2.240 . S
Cd2 O3 2.240 . S
Cd2 O10 2.223 . S
Cd2 O12 2.297 1_455 S
Cd2 O13 2.439 . S
O3 Cd2 2.240 . S
O3 C8 1.279 . S
O4 Cd1 2.297 . S
O4 C6 1.247 . S
O5 Cd1 2.439 . S
O5 C6 1.208 . S
C6 O4 1.247 . S
C6 O5 1.208 . S
C7 O12 1.247 1_455 S
C7 O13 1.208 . S
C8 O0 1.315 . S
C8 O3 1.279 . S
C9 O10 1.317 . S
C9 O11 1.279 . S
O10 Cd2 2.223 . S
O10 C9 1.317 . S
O11 Cd1 2.240 . S
O11 C9 1.279 . S
O12 Cd2 2.297 1_655 S
O12 C7 1.247 1_655 S
O13 Cd2 2.439 . S
O13 C7 1.208 . S
O14 Cd15 2.223 . S
O14 C22 1.315 . S
Cd15 O14 2.223 . S
Cd15 O18 2.297 1_455 S
Cd15 O19 2.439 1_455 S
Cd15 O25 2.240 . S
Cd16 O17 2.240 . S
Cd16 O24 2.223 . S
Cd16 O26 2.297 . S
Cd16 O27 2.439 . S
O17 Cd16 2.240 . S
O17 C22 1.279 . S
O18 Cd15 2.297 1_655 S
O18 C20 1.247 . S
O19 Cd15 2.439 1_655 S
O19 C20 1.208 . S
C20 O18 1.247 . S
C20 O19 1.208 . S
C21 O26 1.247 . S
C21 O27 1.208 . S
C22 O14 1.315 . S
C22 O17 1.279 . S
C23 O24 1.315 . S
C23 O25 1.279 . S
O24 Cd16 2.223 . S
O24 C23 1.315 . S
O25 Cd15 2.240 . S
O25 C23 1.279 . S
O26 Cd16 2.297 . S
O26 C21 1.247 . S
O27 Cd16 2.439 . S
O27 C21 1.208 . S
O28 Cd29 2.223 . S
O28 C36 1.315 . S
Cd29 O28 2.223 . S
Cd29 O32 2.297 . S
Cd29 O33 2.439 . S
Cd29 O39 2.240 1_556 S
Cd30 O31 2.240 . S
Cd30 O38 2.223 1_556 S
Cd30 O40 2.297 1_455 S
Cd30 O41 2.439 . S
O31 Cd30 2.240 . S
O31 C36 1.279 . S
O32 Cd29 2.297 . S
O32 C34 1.247 . S
O33 Cd29 2.439 . S
O33 C34 1.208 . S
C34 O32 1.247 . S
C34 O33 1.208 . S
C35 O40 1.247 1_455 S
C35 O41 1.208 . S
C36 O28 1.315 . S
C36 O31 1.279 . S
C37 O38 1.317 . S
C37 O39 1.279 . S
O38 Cd30 2.223 1_554 S
O38 C37 1.317 . S
O39 Cd29 2.240 1_554 S
O39 C37 1.279 . S
O40 Cd30 2.297 1_655 S
O40 C35 1.247 1_655 S
O41 Cd30 2.439 . S
O41 C35 1.208 . S
O42 Cd43 2.223 . S
O42 C50 1.315 . S
Cd43 O42 2.223 . S
Cd43 O46 2.297 1_455 S
Cd43 O47 2.439 1_455 S
Cd43 O53 2.240 1_556 S
Cd44 O45 2.240 . S
Cd44 O52 2.223 1_556 S
Cd44 O54 2.297 . S
Cd44 O55 2.439 . S
O45 Cd44 2.240 . S
O45 C50 1.279 . S
O46 Cd43 2.297 1_655 S
O46 C48 1.247 . S
O47 Cd43 2.439 1_655 S
O47 C48 1.208 . S
C48 O46 1.247 . S
C48 O47 1.208 . S
C49 O54 1.247 . S
C49 O55 1.208 . S
C50 O42 1.315 . S
C50 O45 1.279 . S
C51 O52 1.315 . S
C51 O53 1.279 . S
O52 Cd44 2.223 1_554 S
O52 C51 1.315 . S
O53 Cd43 2.240 1_554 S
O53 C51 1.279 . S
O54 Cd44 2.297 . S
O54 C49 1.247 . S
O55 Cd44 2.439 . S
O55 C49 1.208 . S
O56 Cd57 2.223 . S
O56 C64 1.317 . S
Cd57 O56 2.223 . S
Cd57 O60 2.297 1_655 S
Cd57 O61 2.439 . S
Cd57 O67 2.240 . S
Cd58 O59 2.240 . S
Cd58 O66 2.223 . S
Cd58 O68 2.297 . S
Cd58 O69 2.439 . S
O59 Cd58 2.240 . S
O59 C64 1.279 . S
O60 Cd57 2.297 1_455 S
O60 C62 1.247 1_455 S
O61 Cd57 2.439 . S
O61 C62 1.208 . S
C62 O60 1.247 1_655 S
C62 O61 1.208 . S
C63 O68 1.247 . S
C63 O69 1.208 . S
C64 O56 1.317 . S
C64 O59 1.279 . S
C65 O66 1.315 . S
C65 O67 1.279 . S
O66 Cd58 2.223 . S
O66 C65 1.315 . S
O67 Cd57 2.240 . S
O67 C65 1.279 . S
O68 Cd58 2.297 . S
O68 C63 1.247 . S
O69 Cd58 2.439 . S
O69 C63 1.208 . S
O70 Cd71 2.223 . S
O70 C78 1.315 . S
Cd71 O70 2.223 . S
Cd71 O74 2.297 . S
Cd71 O75 2.439 . S
Cd71 O81 2.240 . S
Cd72 O73 2.240 . S
Cd72 O80 2.223 . S
Cd72 O82 2.297 1_655 S
Cd72 O83 2.439 1_655 S
O73 Cd72 2.240 . S
O73 C78 1.279 . S
O74 Cd71 2.297 . S
O74 C76 1.247 . S
O75 Cd71 2.439 . S
O75 C76 1.208 . S
C76 O74 1.247 . S
C76 O75 1.208 . S
C77 O82 1.247 . S
C77 O83 1.208 . S
C78 O70 1.315 . S
C78 O73 1.279 . S
C79 O80 1.315 . S
C79 O81 1.279 . S
O80 Cd72 2.223 . S
O80 C79 1.315 . S
O81 Cd71 2.240 . S
O81 C79 1.279 . S
O82 Cd72 2.297 1_455 S
O82 C77 1.247 . S
O83 Cd72 2.439 1_455 S
O83 C77 1.208 . S
O84 Cd85 2.223 1_556 S
O84 C92 1.317 . S
Cd85 O84 2.223 1_554 S
Cd85 O88 2.297 1_655 S
Cd85 O89 2.439 . S
Cd85 O95 2.240 . S
Cd86 O87 2.240 1_554 S
Cd86 O94 2.223 . S
Cd86 O96 2.297 . S
Cd86 O97 2.439 . S
O87 Cd86 2.240 1_556 S
O87 C92 1.279 . S
O88 Cd85 2.297 1_455 S
O88 C90 1.247 1_455 S
O89 Cd85 2.439 . S
O89 C90 1.208 . S
C90 O88 1.247 1_655 S
C90 O89 1.208 . S
C91 O96 1.247 . S
C91 O97 1.208 . S
C92 O84 1.317 . S
C92 O87 1.279 . S
C93 O94 1.315 . S
C93 O95 1.279 . S
O94 Cd86 2.223 . S
O94 C93 1.315 . S
O95 Cd85 2.240 . S
O95 C93 1.279 . S
O96 Cd86 2.297 . S
O96 C91 1.247 . S
O97 Cd86 2.439 . S
O97 C91 1.208 . S
O98 Cd99 2.223 1_556 S
O98 C106 1.315 . S
Cd99 O98 2.223 1_554 S
Cd99 O102 2.297 . S
Cd99 O103 2.439 . S
Cd99 O109 2.240 . S
Cd100 O101 2.240 1_554 S
Cd100 O108 2.223 . S
Cd100 O110 2.297 1_655 S
Cd100 O111 2.439 1_655 S
O101 Cd100 2.240 1_556 S
O101 C106 1.279 . S
O102 Cd99 2.297 . S
O102 C104 1.247 . S
O103 Cd99 2.439 . S
O103 C104 1.208 . S
C104 O102 1.247 . S
C104 O103 1.208 . S
C105 O110 1.247 . S
C105 O111 1.208 . S
C106 O98 1.315 . S
C106 O101 1.279 . S
C107 O108 1.315 . S
C107 O109 1.279 . S
O108 Cd100 2.223 . S
O108 C107 1.315 . S
O109 Cd99 2.240 . S
O109 C107 1.279 . S
O110 Cd100 2.297 1_455 S
O110 C105 1.247 . S
O111 Cd100 2.439 1_455 S
O111 C105 1.208 . S
O112 Cd113 2.223 . S
O112 C120 1.315 . S
Cd113 O112 2.223 . S
Cd113 O116 2.297 . S
Cd113 O117 2.439 . S
Cd113 O123 2.240 . S
Cd114 O115 2.240 . S
Cd114 O122 2.223 . S
Cd114 O124 2.297 1_455 S
Cd114 O125 2.439 . S
O115 Cd114 2.240 . S
O115 C120 1.279 . S
O116 Cd113 2.297 . S
O116 C118 1.247 . S
O117 Cd113 2.439 . S
O117 C118 1.208 . S
C118 O116 1.247 . S
C118 O117 1.208 . S
C119 O124 1.247 1_455 S
C119 O125 1.208 . S
C120 O112 1.315 . S
C120 O115 1.279 . S
C121 O122 1.317 . S
C121 O123 1.279 . S
O122 Cd114 2.223 . S
O122 C121 1.317 . S
O123 Cd113 2.240 . S
O123 C121 1.279 . S
O124 Cd114 2.297 1_655 S
O124 C119 1.247 1_655 S
O125 Cd114 2.439 . S
O125 C119 1.208 . S
O126 Cd127 2.223 . S
O126 C134 1.315 . S
Cd127 O126 2.223 . S
Cd127 O130 2.297 1_455 S
Cd127 O131 2.439 1_455 S
Cd127 O137 2.240 . S
Cd128 O129 2.240 . S
Cd128 O136 2.223 . S
Cd128 O138 2.297 . S
Cd128 O139 2.439 . S
O129 Cd128 2.240 . S
O129 C134 1.279 . S
O130 Cd127 2.297 1_655 S
O130 C132 1.247 . S
O131 Cd127 2.439 1_655 S
O131 C132 1.208 . S
C132 O130 1.247 . S
C132 O131 1.208 . S
C133 O138 1.247 . S
C133 O139 1.208 . S
C134 O126 1.315 . S
C134 O129 1.279 . S
C135 O136 1.315 . S
C135 O137 1.279 . S
O136 Cd128 2.223 . S
O136 C135 1.315 . S
O137 Cd127 2.240 . S
O137 C135 1.279 . S
O138 Cd128 2.297 . S
O138 C133 1.247 . S
O139 Cd128 2.439 . S
O139 C133 1.208 . S
O140 Cd141 2.223 . S
O140 C148 1.315 . S
Cd141 O140 2.223 . S
Cd141 O144 2.297 . S
Cd141 O145 2.439 . S
Cd141 O151 2.240 . S
Cd142 O143 2.240 . S
Cd142 O150 2.223 . S
Cd142 O152 2.297 1_455 S
Cd142 O153 2.439 . S
O143 Cd142 2.240 . S
O143 C148 1.279 . S
O144 Cd141 2.297 . S
O144 C146 1.247 . S
O145 Cd141 2.439 . S
O145 C146 1.208 . S
C146 O144 1.247 . S
C146 O145 1.208 . S
C147 O152 1.247 1_455 S
C147 O153 1.208 . S
C148 O140 1.315 . S
C148 O143 1.279 . S
C149 O150 1.317 . S
C149 O151 1.279 . S
O150 Cd142 2.223 . S
O150 C149 1.317 . S
O151 Cd141 2.240 . S
O151 C149 1.279 . S
O152 Cd142 2.297 1_655 S
O152 C147 1.247 1_655 S
O153 Cd142 2.439 . S
O153 C147 1.208 . S
O154 Cd155 2.223 . S
O154 C162 1.315 . S
Cd155 O154 2.223 . S
Cd155 O158 2.297 1_455 S
Cd155 O159 2.439 1_455 S
Cd155 O165 2.240 . S
Cd156 O157 2.240 . S
Cd156 O164 2.223 . S
Cd156 O166 2.297 . S
Cd156 O167 2.439 . S
O157 Cd156 2.240 . S
O157 C162 1.279 . S
O158 Cd155 2.297 1_655 S
O158 C160 1.247 . S
O159 Cd155 2.439 1_655 S
O159 C160 1.208 . S
C160 O158 1.247 . S
C160 O159 1.208 . S
C161 O166 1.247 . S
C161 O167 1.208 . S
C162 O154 1.315 . S
C162 O157 1.279 . S
C163 O164 1.315 . S
C163 O165 1.279 . S
O164 Cd156 2.223 . S
O164 C163 1.315 . S
O165 Cd155 2.240 . S
O165 C163 1.279 . S
O166 Cd156 2.297 . S
O166 C161 1.247 . S
O167 Cd156 2.439 . S
O167 C161 1.208 . S
O168 Cd169 2.223 . S
O168 C176 1.317 . S
Cd169 O168 2.223 . S
Cd169 O172 2.297 1_655 S
Cd169 O173 2.439 . S
Cd169 O179 2.240 . S
Cd170 O171 2.240 . S
Cd170 O178 2.223 . S
Cd170 O180 2.297 . S
Cd170 O181 2.439 . S
O171 Cd170 2.240 . S
O171 C176 1.279 . S
O172 Cd169 2.297 1_455 S
O172 C174 1.247 1_455 S
O173 Cd169 2.439 . S
O173 C174 1.208 . S
C174 O172 1.247 1_655 S
C174 O173 1.208 . S
C175 O180 1.247 . S
C175 O181 1.208 . S
C176 O168 1.317 . S
C176 O171 1.279 . S
C177 O178 1.315 . S
C177 O179 1.279 . S
O178 Cd170 2.223 . S
O178 C177 1.315 . S
O179 Cd169 2.240 . S
O179 C177 1.279 . S
O180 Cd170 2.297 . S
O180 C175 1.247 . S
O181 Cd170 2.439 . S
O181 C175 1.208 . S
O182 Cd183 2.223 . S
O182 C190 1.315 . S
Cd183 O182 2.223 . S
Cd183 O186 2.297 . S
Cd183 O187 2.439 . S
Cd183 O193 2.240 . S
Cd184 O185 2.240 . S
Cd184 O192 2.223 . S
Cd184 O194 2.297 1_655 S
Cd184 O195 2.439 1_655 S
O185 Cd184 2.240 . S
O185 C190 1.279 . S
O186 Cd183 2.297 . S
O186 C188 1.247 . S
O187 Cd183 2.439 . S
O187 C188 1.208 . S
C188 O186 1.247 . S
C188 O187 1.208 . S
C189 O194 1.247 . S
C189 O195 1.208 . S
C190 O182 1.315 . S
C190 O185 1.279 . S
C191 O192 1.315 . S
C191 O193 1.279 . S
O192 Cd184 2.223 . S
O192 C191 1.315 . S
O193 Cd183 2.240 . S
O193 C191 1.279 . S
O194 Cd184 2.297 1_455 S
O194 C189 1.247 . S
O195 Cd184 2.439 1_455 S
O195 C189 1.208 . S
O196 Cd197 2.223 . S
O196 C204 1.317 . S
Cd197 O196 2.223 . S
Cd197 O200 2.297 1_655 S
Cd197 O201 2.439 . S
Cd197 O207 2.240 . S
Cd198 O199 2.240 . S
Cd198 O206 2.223 . S
Cd198 O208 2.297 . S
Cd198 O209 2.439 . S
O199 Cd198 2.240 . S
O199 C204 1.279 . S
O200 Cd197 2.297 1_455 S
O200 C202 1.247 1_455 S
O201 Cd197 2.439 . S
O201 C202 1.208 . S
C202 O200 1.247 1_655 S
C202 O201 1.208 . S
C203 O208 1.247 . S
C203 O209 1.208 . S
C204 O196 1.317 . S
C204 O199 1.279 . S
C205 O206 1.315 . S
C205 O207 1.279 . S
O206 Cd198 2.223 . S
O206 C205 1.315 . S
O207 Cd197 2.240 . S
O207 C205 1.279 . S
O208 Cd198 2.297 . S
O208 C203 1.247 . S
O209 Cd198 2.439 . S
O209 C203 1.208 . S
O210 Cd211 2.223 . S
O210 C218 1.315 . S
Cd211 O210 2.223 . S
Cd211 O214 2.297 . S
Cd211 O215 2.439 . S
Cd211 O221 2.240 . S
Cd212 O213 2.240 . S
Cd212 O220 2.223 . S
Cd212 O222 2.297 1_655 S
Cd212 O223 2.439 1_655 S
O213 Cd212 2.240 . S
O213 C218 1.279 . S
O214 Cd211 2.297 . S
O214 C216 1.247 . S
O215 Cd211 2.439 . S
O215 C216 1.208 . S
C216 O214 1.247 . S
C216 O215 1.208 . S
C217 O222 1.247 . S
C217 O223 1.208 . S
C218 O210 1.315 . S
C218 O213 1.279 . S
C219 O220 1.315 . S
C219 O221 1.279 . S
O220 Cd212 2.223 . S
O220 C219 1.315 . S
O221 Cd211 2.240 . S
O221 C219 1.279 . S
O222 Cd212 2.297 1_455 S
O222 C217 1.247 . S
O223 Cd212 2.439 1_455 S
O223 C217 1.208 . S
O224 Cd225 2.223 . S
O224 C232 1.315 . S
Cd225 O224 2.223 . S
Cd225 O228 2.297 . S
Cd225 O229 2.439 . S
Cd225 O235 2.240 . S
Cd226 O227 2.240 . S
Cd226 O234 2.223 . S
Cd226 O236 2.297 . S
Cd226 O237 2.439 . S
O227 Cd226 2.240 . S
O227 C232 1.279 . S
O228 Cd225 2.297 . S
O228 C230 1.247 . S
O229 Cd225 2.439 . S
O229 C230 1.208 . S
C230 O228 1.247 . S
C230 O229 1.208 . S
C231 O236 1.247 . S
C231 O237 1.208 . S
C232 O224 1.315 . S
C232 O227 1.279 . S
C233 O234 1.315 . S
C233 O235 1.279 . S
O234 Cd226 2.223 . S
O234 C233 1.315 . S
O235 Cd225 2.240 . S
O235 C233 1.279 . S
O236 Cd226 2.297 . S
O236 C231 1.247 . S
O237 Cd226 2.439 . S
O237 C231 1.208 . S
O238 Cd239 2.223 . S
O238 C246 1.315 . S
Cd239 O238 2.223 . S
Cd239 O242 2.297 . S
Cd239 O243 2.439 . S
Cd239 O249 2.240 . S
Cd240 O241 2.240 . S
Cd240 O248 2.223 . S
Cd240 O250 2.297 . S
Cd240 O251 2.439 . S
O241 Cd240 2.240 . S
O241 C246 1.279 . S
O242 Cd239 2.297 . S
O242 C244 1.247 . S
O243 Cd239 2.439 . S
O243 C244 1.208 . S
C244 O242 1.247 . S
C244 O243 1.208 . S
C245 O250 1.247 . S
C245 O251 1.208 . S
C246 O238 1.315 . S
C246 O241 1.279 . S
C247 O248 1.315 . S
C247 O249 1.279 . S
O248 Cd240 2.223 . S
O248 C247 1.315 . S
O249 Cd239 2.240 . S
O249 C247 1.279 . S
O250 Cd240 2.297 . S
O250 C245 1.247 . S
O251 Cd240 2.439 . S
O251 C245 1.208 . S
O252 Cd253 2.223 . S
O252 C260 1.315 . S
Cd253 O252 2.223 . S
Cd253 O256 2.297 . S
Cd253 O257 2.439 . S
Cd253 O263 2.240 . S
Cd254 O255 2.240 . S
Cd254 O262 2.223 . S
Cd254 O264 2.297 . S
Cd254 O265 2.439 . S
O255 Cd254 2.240 . S
O255 C260 1.279 . S
O256 Cd253 2.297 . S
O256 C258 1.247 . S
O257 Cd253 2.439 . S
O257 C258 1.208 . S
C258 O256 1.247 . S
C258 O257 1.208 . S
C259 O264 1.247 . S
C259 O265 1.208 . S
C260 O252 1.315 . S
C260 O255 1.279 . S
C261 O262 1.315 . S
C261 O263 1.279 . S
O262 Cd254 2.223 . S
O262 C261 1.315 . S
O263 Cd253 2.240 . S
O263 C261 1.279 . S
O264 Cd254 2.297 . S
O264 C259 1.247 . S
O265 Cd254 2.439 . S
O265 C259 1.208 . S
O266 Cd267 2.223 . S
O266 C274 1.315 . S
Cd267 O266 2.223 . S
Cd267 O270 2.297 . S
Cd267 O271 2.439 . S
Cd267 O277 2.240 . S
Cd268 O269 2.240 . S
Cd268 O276 2.223 . S
Cd268 O278 2.297 . S
Cd268 O279 2.439 . S
O269 Cd268 2.240 . S
O269 C274 1.279 . S
O270 Cd267 2.297 . S
O270 C272 1.247 . S
O271 Cd267 2.439 . S
O271 C272 1.208 . S
C272 O270 1.247 . S
C272 O271 1.208 . S
C273 O278 1.247 . S
C273 O279 1.208 . S
C274 O266 1.315 . S
C274 O269 1.279 . S
C275 O276 1.315 . S
C275 O277 1.279 . S
O276 Cd268 2.223 . S
O276 C275 1.315 . S
O277 Cd267 2.240 . S
O277 C275 1.279 . S
O278 Cd268 2.297 . S
O278 C273 1.247 . S
O279 Cd268 2.439 . S
O279 C273 1.208 . S
O280 Cd281 2.223 . S
O280 C288 1.315 . S
Cd281 O280 2.223 . S
Cd281 O284 2.297 . S
Cd281 O285 2.439 . S
Cd281 O291 2.240 . S
Cd282 O283 2.240 . S
Cd282 O290 2.223 . S
Cd282 O292 2.297 . S
Cd282 O293 2.439 . S
O283 Cd282 2.240 . S
O283 C288 1.279 . S
O284 Cd281 2.297 . S
O284 C286 1.247 . S
O285 Cd281 2.439 . S
O285 C286 1.208 . S
C286 O284 1.247 . S
C286 O285 1.208 . S
C287 O292 1.247 . S
C287 O293 1.208 . S
C288 O280 1.315 . S
C288 O283 1.279 . S
C289 O290 1.315 . S
C289 O291 1.279 . S
O290 Cd282 2.223 . S
O290 C289 1.315 . S
O291 Cd281 2.240 . S
O291 C289 1.279 . S
O292 Cd282 2.297 . S
O292 C287 1.247 . S
O293 Cd282 2.439 . S
O293 C287 1.208 . S
O294 Cd295 2.223 . S
O294 C302 1.315 . S
Cd295 O294 2.223 . S
Cd295 O298 2.297 . S
Cd295 O299 2.439 . S
Cd295 O305 2.240 . S
Cd296 O297 2.240 . S
Cd296 O304 2.223 . S
Cd296 O306 2.297 . S
Cd296 O307 2.439 . S
O297 Cd296 2.240 . S
O297 C302 1.279 . S
O298 Cd295 2.297 . S
O298 C300 1.247 . S
O299 Cd295 2.439 . S
O299 C300 1.208 . S
C300 O298 1.247 . S
C300 O299 1.208 . S
C301 O306 1.247 . S
C301 O307 1.208 . S
C302 O294 1.315 . S
C302 O297 1.279 . S
C303 O304 1.315 . S
C303 O305 1.279 . S
O304 Cd296 2.223 . S
O304 C303 1.315 . S
O305 Cd295 2.240 . S
O305 C303 1.279 . S
O306 Cd296 2.297 . S
O306 C301 1.247 . S
O307 Cd296 2.439 . S
O307 C301 1.208 . S
O308 Cd309 2.223 . S
O308 C316 1.315 . S
Cd309 O308 2.223 . S
Cd309 O312 2.297 . S
Cd309 O313 2.439 . S
Cd309 O319 2.240 . S
Cd310 O311 2.240 . S
Cd310 O318 2.223 . S
Cd310 O320 2.297 . S
Cd310 O321 2.439 . S
O311 Cd310 2.240 . S
O311 C316 1.279 . S
O312 Cd309 2.297 . S
O312 C314 1.247 . S
O313 Cd309 2.439 . S
O313 C314 1.208 . S
C314 O312 1.247 . S
C314 O313 1.208 . S
C315 O320 1.247 . S
C315 O321 1.208 . S
C316 O308 1.315 . S
C316 O311 1.279 . S
C317 O318 1.315 . S
C317 O319 1.279 . S
O318 Cd310 2.223 . S
O318 C317 1.315 . S
O319 Cd309 2.240 . S
O319 C317 1.279 . S
O320 Cd310 2.297 . S
O320 C315 1.247 . S
O321 Cd310 2.439 . S
O321 C315 1.208 . S
O322 Cd323 2.223 . S
O322 C330 1.315 . S
Cd323 O322 2.223 . S
Cd323 O326 2.297 . S
Cd323 O327 2.439 . S
Cd323 O333 2.240 . S
Cd324 O325 2.240 . S
Cd324 O332 2.223 . S
Cd324 O334 2.297 . S
Cd324 O335 2.439 . S
O325 Cd324 2.240 . S
O325 C330 1.279 . S
O326 Cd323 2.297 . S
O326 C328 1.247 . S
O327 Cd323 2.439 . S
O327 C328 1.208 . S
C328 O326 1.247 . S
C328 O327 1.208 . S
C329 O334 1.247 . S
C329 O335 1.208 . S
C330 O322 1.315 . S
C330 O325 1.279 . S
C331 O332 1.315 . S
C331 O333 1.279 . S
O332 Cd324 2.223 . S
O332 C331 1.315 . S
O333 Cd323 2.240 . S
O333 C331 1.279 . S
O334 Cd324 2.297 . S
O334 C329 1.247 . S
O335 Cd324 2.439 . S
O335 C329 1.208 . S
O336 Cd337 2.223 . S
O336 C344 1.315 . S
Cd337 O336 2.223 . S
Cd337 O340 2.297 . S
Cd337 O341 2.439 . S
Cd337 O347 2.240 . S
Cd338 O339 2.240 . S
Cd338 O346 2.223 . S
Cd338 O348 2.297 . S
Cd338 O349 2.439 . S
O339 Cd338 2.240 . S
O339 C344 1.279 . S
O340 Cd337 2.297 . S
O340 C342 1.247 . S
O341 Cd337 2.439 . S
O341 C342 1.208 . S
C342 O340 1.247 . S
C342 O341 1.208 . S
C343 O348 1.247 . S
C343 O349 1.208 . S
C344 O336 1.315 . S
C344 O339 1.279 . S
C345 O346 1.315 . S
C345 O347 1.279 . S
O346 Cd338 2.223 . S
O346 C345 1.315 . S
O347 Cd337 2.240 . S
O347 C345 1.279 . S
O348 Cd338 2.297 . S
O348 C343 1.247 . S
O349 Cd338 2.439 . S
O349 C343 1.208 . S
O350 Cd351 2.223 . S
O350 C358 1.315 . S
Cd351 O350 2.223 . S
Cd351 O354 2.297 . S
Cd351 O355 2.439 . S
Cd351 O361 2.240 . S
Cd352 O353 2.240 . S
Cd352 O360 2.223 . S
Cd352 O362 2.297 . S
Cd352 O363 2.439 . S
O353 Cd352 2.240 . S
O353 C358 1.279 . S
O354 Cd351 2.297 . S
O354 C356 1.247 . S
O355 Cd351 2.439 . S
O355 C356 1.208 . S
C356 O354 1.247 . S
C356 O355 1.208 . S
C357 O362 1.247 . S
C357 O363 1.208 . S
C358 O350 1.315 . S
C358 O353 1.279 . S
C359 O360 1.315 . S
C359 O361 1.279 . S
O360 Cd352 2.223 . S
O360 C359 1.315 . S
O361 Cd351 2.240 . S
O361 C359 1.279 . S
O362 Cd352 2.297 . S
O362 C357 1.247 . S
O363 Cd352 2.439 . S
O363 C357 1.208 . S
O364 Cd365 2.223 . S
O364 C372 1.315 . S
Cd365 O364 2.223 . S
Cd365 O368 2.297 . S
Cd365 O369 2.439 . S
Cd365 O375 2.240 1_556 S
Cd366 O367 2.240 . S
Cd366 O374 2.223 1_556 S
Cd366 O376 2.297 . S
Cd366 O377 2.439 . S
O367 Cd366 2.240 . S
O367 C372 1.279 . S
O368 Cd365 2.297 . S
O368 C370 1.247 . S
O369 Cd365 2.439 . S
O369 C370 1.208 . S
C370 O368 1.247 . S
C370 O369 1.208 . S
C371 O376 1.247 . S
C371 O377 1.208 . S
C372 O364 1.315 . S
C372 O367 1.279 . S
C373 O374 1.315 . S
C373 O375 1.279 . S
O374 Cd366 2.223 1_554 S
O374 C373 1.315 . S
O375 Cd365 2.240 1_554 S
O375 C373 1.279 . S
O376 Cd366 2.297 . S
O376 C371 1.247 . S
O377 Cd366 2.439 . S
O377 C371 1.208 . S
O378 Cd379 2.223 . S
O378 C386 1.315 . S
Cd379 O378 2.223 . S
Cd379 O382 2.297 . S
Cd379 O383 2.439 . S
Cd379 O389 2.240 1_556 S
Cd380 O381 2.240 . S
Cd380 O388 2.223 1_556 S
Cd380 O390 2.297 . S
Cd380 O391 2.439 . S
O381 Cd380 2.240 . S
O381 C386 1.279 . S
O382 Cd379 2.297 . S
O382 C384 1.247 . S
O383 Cd379 2.439 . S
O383 C384 1.208 . S
C384 O382 1.247 . S
C384 O383 1.208 . S
C385 O390 1.247 . S
C385 O391 1.208 . S
C386 O378 1.315 . S
C386 O381 1.279 . S
C387 O388 1.315 . S
C387 O389 1.279 . S
O388 Cd380 2.223 1_554 S
O388 C387 1.315 . S
O389 Cd379 2.240 1_554 S
O389 C387 1.279 . S
O390 Cd380 2.297 . S
O390 C385 1.247 . S
O391 Cd380 2.439 . S
O391 C385 1.208 . S
O392 Cd393 2.223 . S
O392 C400 1.315 . S
Cd393 O392 2.223 . S
Cd393 O396 2.297 . S
Cd393 O397 2.439 . S
Cd393 O403 2.240 . S
Cd394 O395 2.240 . S
Cd394 O402 2.223 . S
Cd394 O404 2.297 . S
Cd394 O405 2.439 . S
O395 Cd394 2.240 . S
O395 C400 1.279 . S
O396 Cd393 2.297 . S
O396 C398 1.247 . S
O397 Cd393 2.439 . S
O397 C398 1.208 . S
C398 O396 1.247 . S
C398 O397 1.208 . S
C399 O404 1.247 . S
C399 O405 1.208 . S
C400 O392 1.315 . S
C400 O395 1.279 . S
C401 O402 1.315 . S
C401 O403 1.279 . S
O402 Cd394 2.223 . S
O402 C401 1.315 . S
O403 Cd393 2.240 . S
O403 C401 1.279 . S
O404 Cd394 2.297 . S
O404 C399 1.247 . S
O405 Cd394 2.439 . S
O405 C399 1.208 . S
O406 Cd407 2.223 . S
O406 C414 1.315 . S
Cd407 O406 2.223 . S
Cd407 O410 2.297 . S
Cd407 O411 2.439 . S
Cd407 O417 2.240 . S
Cd408 O409 2.240 . S
Cd408 O416 2.223 . S
Cd408 O418 2.297 . S
Cd408 O419 2.439 . S
O409 Cd408 2.240 . S
O409 C414 1.279 . S
O410 Cd407 2.297 . S
O410 C412 1.247 . S
O411 Cd407 2.439 . S
O411 C412 1.208 . S
C412 O410 1.247 . S
C412 O411 1.208 . S
C413 O418 1.247 . S
C413 O419 1.208 . S
C414 O406 1.315 . S
C414 O409 1.279 . S
C415 O416 1.315 . S
C415 O417 1.279 . S
O416 Cd408 2.223 . S
O416 C415 1.315 . S
O417 Cd407 2.240 . S
O417 C415 1.279 . S
O418 Cd408 2.297 . S
O418 C413 1.247 . S
O419 Cd408 2.439 . S
O419 C413 1.208 . S
O420 Cd421 2.223 1_556 S
O420 C428 1.315 . S
Cd421 O420 2.223 1_554 S
Cd421 O424 2.297 . S
Cd421 O425 2.439 . S
Cd421 O431 2.240 . S
Cd422 O423 2.240 1_554 S
Cd422 O430 2.223 . S
Cd422 O432 2.297 . S
Cd422 O433 2.439 . S
O423 Cd422 2.240 1_556 S
O423 C428 1.279 . S
O424 Cd421 2.297 . S
O424 C426 1.247 . S
O425 Cd421 2.439 . S
O425 C426 1.208 . S
C426 O424 1.247 . S
C426 O425 1.208 . S
C427 O432 1.247 . S
C427 O433 1.208 . S
C428 O420 1.315 . S
C428 O423 1.279 . S
C429 O430 1.315 . S
C429 O431 1.279 . S
O430 Cd422 2.223 . S
O430 C429 1.315 . S
O431 Cd421 2.240 . S
O431 C429 1.279 . S
O432 Cd422 2.297 . S
O432 C427 1.247 . S
O433 Cd422 2.439 . S
O433 C427 1.208 . S
O434 Cd435 2.223 1_556 S
O434 C442 1.315 . S
Cd435 O434 2.223 1_554 S
Cd435 O438 2.297 . S
Cd435 O439 2.439 . S
Cd435 O445 2.240 . S
Cd436 O437 2.240 1_554 S
Cd436 O444 2.223 . S
Cd436 O446 2.297 . S
Cd436 O447 2.439 . S
O437 Cd436 2.240 1_556 S
O437 C442 1.279 . S
O438 Cd435 2.297 . S
O438 C440 1.247 . S
O439 Cd435 2.439 . S
O439 C440 1.208 . S
C440 O438 1.247 . S
C440 O439 1.208 . S
C441 O446 1.247 . S
C441 O447 1.208 . S
C442 O434 1.315 . S
C442 O437 1.279 . S
C443 O444 1.315 . S
C443 O445 1.279 . S
O444 Cd436 2.223 . S
O444 C443 1.315 . S
O445 Cd435 2.240 . S
O445 C443 1.279 . S
O446 Cd436 2.297 . S
O446 C441 1.247 . S
O447 Cd436 2.439 . S
O447 C441 1.208 . S
C148 C8 1.729 . S
C22 C162 1.729 . S
C36 C120 1.729 . S
C134 C50 1.729 . S
C205 C65 1.729 . S
C79 C219 1.729 . S
C177 C93 1.729 . S
C191 C107 1.729 . S
C372 C232 1.729 . S
C386 C246 1.729 . S
C344 C260 1.729 . S
C274 C358 1.729 . S
C429 C289 1.729 . S
C443 C303 1.729 . S
C317 C401 1.729 . S
C331 C415 1.729 . S
C272 C6 1.374 . S
C20 C258 1.374 . S
C244 C34 1.374 . S
C230 C48 1.374 . S
C63 C329 1.374 . S
C77 C315 1.374 . S
C301 C91 1.374 . S
C105 C287 1.374 . S
C384 C118 1.374 . S
C370 C132 1.374 . S
C356 C146 1.374 . S
C342 C160 1.374 . S
C175 C441 1.374 . S
C427 C189 1.374 . S
C203 C413 1.374 . S
C217 C399 1.374 . S
C174 C7 1.772 1_655 S
C21 C300 1.772 1_565 S
C90 C35 1.772 1_644 S
C440 C49 1.772 1_554 S
C62 C119 1.772 1_655 S
C245 C76 1.772 1_565 S
C385 C104 1.772 1_556 S
C412 C133 1.772 . S
C147 C202 1.772 1_455 S
C328 C161 1.772 . S
C357 C188 1.772 . S
C216 C273 1.772 . S
C231 C398 1.772 . S
C314 C259 1.772 1_545 S
C343 C286 1.772 . S
C371 C426 1.772 1_556 S
C9 C51 2.114 . S
C37 C23 2.114 . S
C64 C106 2.114 . S
C78 C92 2.114 . S
C121 C163 2.114 . S
C135 C149 2.114 . S
C176 C218 2.114 . S
C204 C190 2.114 . S
C275 C233 2.114 . S
C261 C247 2.114 . S
C330 C288 2.114 . S
C316 C302 2.114 . S
C387 C345 2.114 . S
C373 C359 2.114 . S
C400 C442 2.114 . S
C428 C414 2.114 . S
