# Generated by pormake.
# Topology fni, (5)-cn, num edge types: 1
# Building blocks:
#     Node 0, Type 0, BuildingBlock: XOMCOT_clean_sbu_1, # of connection points: 5
#     Node 1, Type 0, BuildingBlock: XOMCOT_clean_sbu_1, # of connection points: 5
#     Node 2, Type 0, BuildingBlock: XOMCOT_clean_sbu_1, # of connection points: 5
#     Node 3, Type 0, BuildingBlock: XOMCOT_clean_sbu_1, # of connection points: 5
#     Node 4, Type 0, BuildingBlock: XOMCOT_clean_sbu_1, # of connection points: 5
#     Node 5, Type 0, BuildingBlock: XOMCOT_clean_sbu_1, # of connection points: 5
#     Node 6, Type 0, BuildingBlock: XOMCOT_clean_sbu_1, # of connection points: 5
#     Node 7, Type 0, BuildingBlock: XOMCOT_clean_sbu_1, # of connection points: 5
#     Edge 8, Type (0, 0), BuildingBlock: OJICUG_clean_linker_0, # of connection points: 2
#     Edge 9, Type (0, 0), BuildingBlock: OJICUG_clean_linker_0, # of connection points: 2
#     Edge 10, Type (0, 0), BuildingBlock: OJICUG_clean_linker_0, # of connection points: 2
#     Edge 11, Type (0, 0), BuildingBlock: OJICUG_clean_linker_0, # of connection points: 2
#     Edge 12, Type (0, 0), BuildingBlock: OJICUG_clean_linker_0, # of connection points: 2
#     Edge 13, Type (0, 0), BuildingBlock: OJICUG_clean_linker_0, # of connection points: 2
#     Edge 14, Type (0, 0), BuildingBlock: OJICUG_clean_linker_0, # of connection points: 2
#     Edge 15, Type (0, 0), BuildingBlock: OJICUG_clean_linker_0, # of connection points: 2
#     Edge 16, Type (0, 0), BuildingBlock: OJICUG_clean_linker_0, # of connection points: 2
#     Edge 17, Type (0, 0), BuildingBlock: OJICUG_clean_linker_0, # of connection points: 2
#     Edge 18, Type (0, 0), BuildingBlock: OJICUG_clean_linker_0, # of connection points: 2
#     Edge 19, Type (0, 0), BuildingBlock: OJICUG_clean_linker_0, # of connection points: 2
#     Edge 20, Type (0, 0), BuildingBlock: OJICUG_clean_linker_0, # of connection points: 2
#     Edge 21, Type (0, 0), BuildingBlock: OJICUG_clean_linker_0, # of connection points: 2
#     Edge 22, Type (0, 0), BuildingBlock: OJICUG_clean_linker_0, # of connection points: 2
#     Edge 23, Type (0, 0), BuildingBlock: OJICUG_clean_linker_0, # of connection points: 2
#     Edge 24, Type (0, 0), BuildingBlock: OJICUG_clean_linker_0, # of connection points: 2
#     Edge 25, Type (0, 0), BuildingBlock: OJICUG_clean_linker_0, # of connection points: 2
#     Edge 26, Type (0, 0), BuildingBlock: OJICUG_clean_linker_0, # of connection points: 2
#     Edge 27, Type (0, 0), BuildingBlock: OJICUG_clean_linker_0, # of connection points: 2
# Relax obj value: 0.171
# Max RMSD: 0.170
# Mean RMSD: 0.164
data_MOF--net-fni--node1-XOMCOT_clean_sbu_1--edge1-OJICUG_clean_linker_0
_symmetry_space_group_name_H-M    P1
_symmetry_Int_Tables_number       1
_symmetry_cell_setting            triclinic
loop_
_symmetry_equiv_pos_as_xyz
'x, y, z'
_cell_length_a     41.285791
_cell_length_b     38.742422
_cell_length_c     13.496479
_cell_angle_alpha  92.406412
_cell_angle_beta   93.061131
_cell_angle_gamma 90.751065
loop_
_atom_site_label
_atom_site_type_symbol
_atom_site_fract_x
_atom_site_fract_y
_atom_site_fract_z
_atom_type_partial_charge
C0 C 0.41969 0.42547 0.22121 0.0
C1 C 0.41968 0.42713 0.32336 0.0
N2 N 0.43742 0.40084 0.35856 0.0
N3 N 0.43708 0.39807 0.19188 0.0
C4 C 0.44793 0.38394 0.277 0.0
H5 H 0.40739 0.4428 0.17152 0.0
Co6 Co 0.44413 0.38259 0.06267 0.0
C7 C 0.43561 0.30593 0.06751 0.0
O8 O 0.42234 0.30564 0.97678 0.0
N9 N 0.45233 0.36705 0.93069 0.0
C10 C 0.47804 0.34321 0.8041 0.0
C11 C 0.47586 0.34485 0.90571 0.0
C12 C 0.44121 0.3791 0.84258 0.0
N13 N 0.45634 0.36507 0.76475 0.0
O14 O 0.48991 0.3919 0.08926 0.0
H15 H 0.49133 0.33162 0.95854 0.0
H16 H 0.42332 0.39885 0.83447 0.0
O17 O 0.44651 0.33454 0.10864 0.0
C18 C 0.49793 0.41883 0.04389 0.0
O19 O 0.47632 0.43228 0.98243 0.0
N20 N 0.39905 0.37883 0.0372 0.0
C21 C 0.33238 0.38807 1.0037 0.0
C22 C 0.34413 0.36119 0.06184 0.0
C23 C 0.37762 0.35739 0.07931 0.0
C24 C 0.3879 0.40629 0.98664 0.0
C25 C 0.35496 0.41066 0.96572 0.0
H26 H 0.38591 0.33849 0.13089 0.0
H27 H 0.40482 0.42577 0.96521 0.0
H28 H 0.46356 0.36179 0.2789 0.0
H29 H 0.40691 0.44586 0.36773 0.0
H30 H 0.49535 0.32846 0.763 0.0
H31 H 0.32767 0.34414 0.09703 0.0
H32 H 0.34743 0.43207 0.92139 0.0
C33 C 0.62689 0.97057 0.17459 0.0
C34 C 0.62727 0.97227 0.07321 0.0
N35 N 0.60259 0.95253 0.03164 0.0
N36 N 0.60235 0.94954 0.197 0.0
C37 C 0.58792 0.939 0.10866 0.0
H38 H 0.64311 0.98431 0.22862 0.0
Co39 Co 0.5896 0.94125 0.32337 0.0
C40 C 0.58261 0.86583 0.32994 0.0
O41 O 0.59669 0.86867 0.41962 0.0
N42 N 0.5754 0.93386 0.45214 0.0
C43 C 0.54319 0.91799 0.57058 0.0
C44 C 0.54673 0.91858 0.46986 0.0
C45 C 0.58816 0.94343 0.5438 0.0
N46 N 0.56933 0.93377 0.61672 0.0
O47 O 0.54726 0.95723 0.28696 0.0
H48 H 0.52942 0.90832 0.41277 0.0
H49 H 0.61074 0.95723 0.55869 0.0
O50 O 0.57731 0.89301 0.28086 0.0
C51 C 0.54587 0.9901 0.29125 0.0
O52 O 0.57249 1.008 0.31693 0.0
N53 N 0.63264 0.92845 0.35822 0.0
C54 C 0.69786 0.91625 0.40951 0.0
C55 C 0.68045 0.89462 0.33903 0.0
C56 C 0.64815 0.90167 0.31262 0.0
C57 C 0.6502 0.95175 0.41812 0.0
C58 C 0.68236 0.94553 0.448 0.0
H59 H 0.63608 0.88618 0.25303 0.0
H60 H 0.63936 0.9758 0.44129 0.0
H61 H 0.56629 0.92282 0.10152 0.0
H62 H 0.64437 0.98709 0.03356 0.0
H63 H 0.52278 0.90736 0.60688 0.0
H64 H 0.69191 0.87308 0.30185 0.0
H65 H 0.69487 0.96378 0.50009 0.0
C66 C 0.04413 0.11961 0.45448 0.0
C67 C 0.0423 0.1197 0.35226 0.0
N68 N 0.07068 0.1084 0.31887 0.0
N69 N 0.07357 0.10851 0.48552 0.0
C70 C 0.089 0.10145 0.40143 0.0
H71 H 0.0255 0.12787 0.5032 0.0
Co72 Co 0.08948 0.10583 0.61619 0.0
C73 C 0.15915 0.12764 0.60744 0.0
O74 O 0.1575 0.14648 0.69028 0.0
N75 N 0.10553 0.10224 0.74963 0.0
C76 C 0.13373 0.08319 0.88142 0.0
C77 C 0.13193 0.08435 0.77954 0.0
C78 C 0.09121 0.11074 0.83513 0.0
N79 N 0.10791 0.09964 0.91617 0.0
O80 O 0.09054 0.05591 0.59819 0.0
H81 H 0.14812 0.07146 0.7301 0.0
H82 H 0.06817 0.12329 0.83863 0.0
O83 O 0.13418 0.11029 0.57236 0.0
C84 C 0.07093 0.03888 0.64857 0.0
O85 O 0.05314 0.05586 0.71148 0.0
N86 N 0.08496 0.15431 0.63299 0.0
C87 C 0.07247 0.22408 0.67376 0.0
C88 C 0.09672 0.21431 0.60953 0.0
C89 C 0.10198 0.1792 0.58789 0.0
C90 C 0.05871 0.16349 0.68456 0.0
C91 C 0.05244 0.1981 0.70784 0.0
H92 H 0.11967 0.17233 0.53479 0.0
H93 H 0.04238 0.14373 0.7076 0.0
H94 H 0.11326 0.09136 0.40085 0.0
H95 H 0.02193 0.12842 0.30662 0.0
H96 H 0.15163 0.06964 0.92591 0.0
H97 H 0.11205 0.23347 0.57827 0.0
H98 H 0.03219 0.20441 0.75271 0.0
C99 C 0.84227 0.58489 0.616 0.0
C100 C 0.84183 0.58389 0.51413 0.0
N101 N 0.86777 0.6018 0.48617 0.0
N102 N 0.86811 0.60383 0.65324 0.0
C103 C 0.88328 0.61352 0.57214 0.0
H104 H 0.82502 0.57176 0.65901 0.0
Co105 Co 0.88274 0.61233 0.78642 0.0
C106 C 0.90195 0.68894 0.79504 0.0
O107 O 0.89805 0.69362 0.8906 0.0
N108 N 0.89821 0.62014 0.91981 0.0
C109 C 0.93092 0.63182 0.05434 0.0
C110 C 0.92829 0.63123 0.95204 0.0
C111 C 0.88345 0.61325 1.00409 0.0
N112 N 0.90265 0.62032 0.08673 0.0
O113 O 0.92446 0.59578 0.75531 0.0
H114 H 0.94723 0.63835 0.90406 0.0
H115 H 0.8591 0.60302 1.00589 0.0
O116 O 0.89563 0.65938 0.75184 0.0
C117 C 0.92558 0.56292 0.75513 0.0
O118 O 0.89879 0.54551 0.76909 0.0
N119 N 0.84062 0.62468 0.81972 0.0
C120 C 0.77864 0.62872 0.89299 0.0
C121 C 0.79524 0.65872 0.86692 0.0
C122 C 0.82626 0.65612 0.82901 0.0
C123 C 0.8244 0.59546 0.84263 0.0
C124 C 0.79349 0.59681 0.87858 0.0
H125 H 0.83859 0.67931 0.80926 0.0
H126 H 0.83631 0.57081 0.8365 0.0
H127 H 0.90602 0.62783 0.57656 0.0
H128 H 0.82372 0.57072 0.46487 0.0
H129 H 0.95223 0.63922 0.10101 0.0
H130 H 0.78444 0.68389 0.87634 0.0
H131 H 0.78194 0.57308 0.89912 0.0
C132 C 0.34151 0.08495 0.12139 0.0
C133 C 0.34106 0.08391 0.0195 0.0
N134 N 0.36704 0.10174 0.99146 0.0
N135 N 0.3674 0.10383 0.15854 0.0
C136 C 0.3826 0.11343 0.07739 0.0
H137 H 0.32424 0.0719 0.16451 0.0
Co138 Co 0.38198 0.11243 0.29168 0.0
C139 C 0.40181 0.18889 0.29934 0.0
O140 O 0.39792 0.19377 0.39485 0.0
N141 N 0.3974 0.1203 0.42506 0.0
C142 C 0.43013 0.13181 0.55965 0.0
C143 C 0.42752 0.13124 0.45735 0.0
C144 C 0.38259 0.11346 0.50929 0.0
N145 N 0.4018 0.12043 0.59197 0.0
O146 O 0.42358 0.09542 0.26114 0.0
H147 H 0.44651 0.13824 0.40941 0.0
H148 H 0.35822 0.10329 0.511 0.0
O149 O 0.39529 0.1593 0.25655 0.0
C150 C 0.42471 0.06257 0.26164 0.0
O151 O 0.3979 0.04518 0.2756 0.0
N152 N 0.33995 0.12531 0.32447 0.0
C153 C 0.27789 0.13024 0.39684 0.0
C154 C 0.29483 0.15998 0.3705 0.0
C155 C 0.32588 0.15693 0.33303 0.0
C156 C 0.3234 0.09634 0.3477 0.0
C157 C 0.29246 0.09813 0.38325 0.0
H158 H 0.33845 0.17993 0.31295 0.0
H159 H 0.33508 0.07154 0.34213 0.0
H160 H 0.40536 0.12766 0.08175 0.0
H161 H 0.3229 0.07079 0.9703 0.0
H162 H 0.45146 0.13907 0.60635 0.0
H163 H 0.28425 0.18528 0.37929 0.0
H164 H 0.28064 0.07458 0.40402 0.0
C165 C 0.9219 0.92634 0.71946 0.0
C166 C 0.92184 0.928 0.82159 0.0
N167 N 0.93902 0.9013 0.85677 0.0
N168 N 0.93875 0.89855 0.6901 0.0
C169 C 0.94925 0.88416 0.7752 0.0
H170 H 0.91002 0.94399 0.66982 0.0
Co171 Co 0.94561 0.88297 0.56084 0.0
C172 C 0.93614 0.80636 0.56509 0.0
O173 O 0.92295 0.80626 0.47427 0.0
N174 N 0.95357 0.86733 0.42886 0.0
C175 C 0.97891 0.84317 0.30201 0.0
C176 C 0.97685 0.84487 0.40365 0.0
C177 C 0.94246 0.87947 0.34087 0.0
N178 N 0.95738 0.86526 0.26288 0.0
O179 O 0.99151 0.89145 0.58754 0.0
H180 H 0.99224 0.83147 0.45633 0.0
H181 H 0.92474 0.89942 0.33301 0.0
O182 O 0.94725 0.83484 0.60653 0.0
C183 C 1.00007 0.91816 0.54206 0.0
O184 O 0.97881 0.9319 0.48006 0.0
N185 N 0.9005 0.88006 0.53526 0.0
C186 C 0.83408 0.89061 0.50188 0.0
C187 C 0.84531 0.86316 0.55857 0.0
C188 C 0.87871 0.85874 0.5762 0.0
C189 C 0.88985 0.90799 0.48587 0.0
C190 C 0.85699 0.91314 0.4654 0.0
H191 H 0.88663 0.8394 0.62686 0.0
H192 H 0.90713 0.92721 0.46495 0.0
H193 H 0.96444 0.86167 0.77708 0.0
H194 H 0.90943 0.94703 0.86595 0.0
H195 H 0.99604 0.82823 0.26072 0.0
H196 H 0.82852 0.84612 0.59244 0.0
H197 H 0.84976 0.93498 0.4224 0.0
C198 C 0.12873 0.46377 0.67315 0.0
C199 C 0.12933 0.46516 0.57179 0.0
N200 N 0.10304 0.44794 0.53037 0.0
N201 N 0.10246 0.44535 0.69592 0.0
C202 C 0.08724 0.43607 0.6076 0.0
H203 H 0.14594 0.47621 0.72681 0.0
Co204 Co 0.08843 0.43922 0.82234 0.0
C205 C 0.07533 0.36458 0.83449 0.0
O206 O 0.08699 0.36716 0.92706 0.0
N207 N 0.07306 0.4342 0.95116 0.0
C208 C 0.03929 0.42256 0.06985 0.0
C209 C 0.04284 0.42286 0.96903 0.0
C210 C 0.0869 0.44163 0.04292 0.0
N211 N 0.0671 0.43452 0.11591 0.0
O212 O 0.04713 0.45691 0.78182 0.0
H213 H 0.02456 0.41482 0.91203 0.0
H214 H 0.11108 0.45176 0.05796 0.0
O215 O 0.07414 0.39152 0.78243 0.0
C216 C 0.04636 0.4898 0.7829 0.0
O217 O 0.07325 0.50739 0.80729 0.0
N218 N 0.13041 0.42451 0.86138 0.0
C219 C 0.19543 0.41178 0.91475 0.0
C220 C 0.17717 0.38852 0.85081 0.0
C221 C 0.1449 0.39563 0.82372 0.0
C222 C 0.14856 0.44865 0.91642 0.0
C223 C 0.18056 0.44229 0.94736 0.0
H224 H 0.13228 0.37863 0.76883 0.0
H225 H 0.13812 0.47334 0.93567 0.0
H226 H 0.06424 0.42225 0.60067 0.0
H227 H 0.1476 0.47827 0.5321 0.0
H228 H 0.01787 0.4146 0.1063 0.0
H229 H 0.18798 0.36566 0.81856 0.0
H230 H 0.19346 0.46148 0.99548 0.0
C231 C 0.54508 0.62225 0.95254 0.0
C232 C 0.54308 0.62267 0.85035 0.0
N233 N 0.57084 0.61001 0.81631 0.0
N234 N 0.5741 0.60973 0.9827 0.0
C235 C 0.58906 0.60211 0.89808 0.0
H236 H 0.52687 0.63117 1.00191 0.0
Co237 Co 0.58991 0.60656 0.11334 0.0
C238 C 0.66021 0.6254 0.1053 0.0
O239 O 0.65875 0.64429 0.18813 0.0
N240 N 0.60574 0.60241 0.24681 0.0
C241 C 0.63318 0.58193 0.37781 0.0
C242 C 0.63142 0.58337 0.27613 0.0
C243 C 0.59176 0.61132 0.3326 0.0
N244 N 0.60803 0.59941 0.41355 0.0
O245 O 0.58896 0.55654 0.09581 0.0
H246 H 0.6472 0.57001 0.22638 0.0
H247 H 0.5687 0.62386 0.33575 0.0
O248 O 0.63488 0.60879 0.06943 0.0
C249 C 0.56913 0.54004 0.14675 0.0
O250 O 0.55191 0.55747 0.21028 0.0
N251 N 0.58765 0.65541 0.12923 0.0
C252 C 0.58044 0.72631 0.16442 0.0
C253 C 0.60337 0.71386 0.09953 0.0
C254 C 0.6057 0.67831 0.07982 0.0
C255 C 0.56274 0.66735 0.18295 0.0
C256 C 0.55898 0.70274 0.20304 0.0
H257 H 0.62202 0.66947 0.02472 0.0
H258 H 0.54544 0.64933 0.20984 0.0
H259 H 0.61328 0.59189 0.89635 0.0
H260 H 0.5228 0.63166 0.80476 0.0
H261 H 0.65118 0.56822 0.42134 0.0
H262 H 0.61939 0.73149 0.06465 0.0
H263 H 0.54018 0.71148 0.25072 0.0
C264 C 0.55987 0.48916 0.02745 0.0
C265 C 0.56087 0.50304 0.12528 0.0
H266 H 0.53898 0.45025 0.92481 0.0
C267 C 0.54779 0.48341 0.19953 0.0
H268 H 0.56956 0.50374 0.96867 0.0
C269 C 0.53101 0.45228 0.17481 0.0
C270 C 0.52652 0.4407 0.07515 0.0
H271 H 0.54833 0.49347 0.27573 0.0
H272 H 0.51847 0.43955 0.23198 0.0
C273 C 0.54249 0.45843 1.00246 0.0
C274 C 0.45606 1.00773 0.2549 0.0
C275 C 0.4558 0.0441 0.25798 0.0
H276 H 0.48468 0.96205 0.26241 0.0
C277 C 0.48547 0.06236 0.26494 0.0
H278 H 0.43359 0.99287 0.24909 0.0
C279 C 0.51472 0.04465 0.27291 0.0
C280 C 0.51494 1.00832 0.27366 0.0
H281 H 0.48611 0.09034 0.2675 0.0
H282 H 0.53716 0.05955 0.28072 0.0
C283 C 0.48533 0.99001 0.26243 0.0
C284 C 0.04488 0.95764 0.50208 0.0
C285 C 0.02882 0.93967 0.57412 0.0
H286 H 0.0719 1.00314 0.46973 0.0
C287 C 0.03337 0.95082 0.67413 0.0
H288 H 0.04136 0.94977 0.4242 0.0
C289 C 0.05018 0.98185 0.69984 0.0
C290 C 0.06321 1.00181 0.62624 0.0
H291 H 0.0208 0.93788 0.73084 0.0
H292 H 0.05067 0.99164 0.77631 0.0
C293 C 0.06227 0.98829 0.52805 0.0
C294 C 0.9859 0.49018 0.75369 0.0
C295 C 0.0156 0.50831 0.76499 0.0
H296 H 0.9342 0.49327 0.74089 0.0
C297 C 0.01556 0.54465 0.76468 0.0
H298 H 0.98509 0.46221 0.7533 0.0
C299 C 0.98637 0.56252 0.75734 0.0
C300 C 0.95663 0.54441 0.75051 0.0
H301 H 0.03807 0.55942 0.77264 0.0
H302 H 0.98712 0.59051 0.76043 0.0
C303 C 0.95673 0.50804 0.74669 0.0
C304 C 0.45231 0.35836 0.48572 0.0
C305 C 0.44293 0.39193 0.46113 0.0
H306 H 0.46374 0.32351 0.6015 0.0
C307 C 0.43855 0.41651 0.5388 0.0
H308 H 0.45552 0.33851 0.42857 0.0
C309 C 0.44298 0.4077 0.63794 0.0
C310 C 0.4521 0.37413 0.66228 0.0
H311 H 0.43196 0.44274 0.52338 0.0
H312 H 0.43972 0.42742 0.69557 0.0
C313 C 0.45697 0.34964 0.58505 0.0
C314 C 0.6026 0.97279 0.86031 0.0
C315 C 0.59317 0.94817 0.92727 0.0
H316 H 0.60195 0.98777 0.70964 0.0
C317 C 0.57459 0.91926 0.89032 0.0
H318 H 0.61621 0.99579 0.88593 0.0
C319 C 0.56616 0.91486 0.78873 0.0
C320 C 0.5763 0.93913 0.72194 0.0
H321 H 0.56715 0.89962 0.93938 0.0
H322 H 0.55249 0.89199 0.76206 0.0
C323 C 0.59435 0.96826 0.759 0.0
C324 C 0.06559 0.10237 0.03938 0.0
C325 C 0.0985 0.10195 0.01764 0.0
H326 H 0.03092 0.1039 0.15143 0.0
C327 C 0.12211 0.10341 0.09662 0.0
H328 H 0.04676 0.1006 0.98037 0.0
C329 C 0.11306 0.1055 0.19506 0.0
C330 C 0.08009 0.10588 0.2171 0.0
H331 H 0.14766 0.10351 0.08221 0.0
H332 H 0.13202 0.10736 0.25357 0.0
C333 C 0.05649 0.10421 0.13779 0.0
C334 C 0.90778 0.63718 0.26614 0.0
C335 C 0.89464 0.61534 0.18794 0.0
H336 H 0.90907 0.65063 0.42175 0.0
C337 C 0.87315 0.58868 0.20979 0.0
H338 H 0.92419 0.65814 0.2514 0.0
C339 C 0.86471 0.58409 0.30721 0.0
C340 C 0.8773 0.60624 0.38573 0.0
H341 H 0.86311 0.57099 0.15158 0.0
H342 H 0.84849 0.56286 0.32056 0.0
C343 C 0.89909 0.63279 0.36388 0.0
C344 C 0.39839 0.13271 0.8692 0.0
C345 C 0.37652 0.10621 0.89099 0.0
H346 H 0.42352 0.15804 0.75679 0.0
C347 C 0.3638 0.08419 0.81237 0.0
H348 H 0.40847 0.15046 0.92712 0.0
C349 C 0.3722 0.08883 0.71493 0.0
C350 C 0.39378 0.11542 0.69316 0.0
H351 H 0.34751 0.06302 0.82565 0.0
H352 H 0.36207 0.07123 0.65663 0.0
C353 C 0.40704 0.13713 0.77145 0.0
C354 C 0.9445 0.90806 0.13618 0.0
C355 C 0.95318 0.87436 0.16044 0.0
H356 H 0.934 0.94327 0.02173 0.0
C357 C 0.95772 0.84978 0.08317 0.0
H358 H 0.94149 0.92783 0.19387 0.0
C359 C 0.9532 0.85857 0.98387 0.0
C360 C 0.94431 0.89229 0.95934 0.0
H361 H 0.96414 0.82355 0.09958 0.0
H362 H 0.95616 0.83866 0.9267 0.0
C363 C 0.94022 0.91693 0.03707 0.0
C364 C 0.07142 0.41853 0.3888 0.0
C365 C 0.09305 0.44493 0.42612 0.0
H366 H 0.04618 0.39451 0.2603 0.0
C367 C 0.10486 0.46848 0.35963 0.0
H368 H 0.06204 0.39974 0.43742 0.0
C369 C 0.09594 0.46529 0.25853 0.0
C370 C 0.0748 0.43863 0.22109 0.0
H371 H 0.12086 0.48967 0.38542 0.0
H372 H 0.10546 0.4839 0.20957 0.0
C373 C 0.06229 0.4155 0.28735 0.0
C374 C 0.60147 0.58152 0.68403 0.0
C375 C 0.57996 0.60715 0.71459 0.0
H376 H 0.62673 0.55841 0.56503 0.0
C377 C 0.56794 0.6303 0.64462 0.0
H378 H 0.61085 0.56303 0.73579 0.0
C379 C 0.57732 0.62796 0.54649 0.0
C380 C 0.59875 0.60218 0.51548 0.0
H381 H 0.55176 0.65071 0.66616 0.0
H382 H 0.56804 0.6467 0.49544 0.0
C383 C 0.61065 0.57897 0.58577 0.0
C384 C 0.25247 0.43324 0.95578 0.0
C385 C 0.23026 0.40543 0.94185 0.0
H386 H 0.30119 0.44985 0.99092 0.0
C387 C 0.24182 0.37165 0.95224 0.0
H388 H 0.24491 0.45962 0.94689 0.0
C389 C 0.27482 0.3659 0.97337 0.0
C390 C 0.29699 0.3938 0.98601 0.0
H391 H 0.22544 0.34955 0.94383 0.0
H392 H 0.28298 0.33953 0.9778 0.0
C393 C 0.28518 0.42755 0.97899 0.0
C394 C 0.55349 0.81773 0.22885 0.0
C395 C 0.58174 0.83144 0.279 0.0
H396 H 0.53062 0.77282 0.15424 0.0
C397 C 0.60962 0.81114 0.28594 0.0
H398 H 0.53171 0.83297 0.22311 0.0
C399 C 0.60929 0.77753 0.24487 0.0
C400 C 0.58081 0.76315 0.19817 0.0
H401 H 0.63173 0.82122 0.32411 0.0
H402 H 0.63103 0.7623 0.25279 0.0
C403 C 0.55287 0.78349 0.18996 0.0
C404 C 0.22105 0.10824 0.41494 0.0
C405 C 0.24616 0.13206 0.44403 0.0
H406 H 0.17404 0.08805 0.44338 0.0
C407 C 0.24189 0.1552 0.52501 0.0
H408 H 0.22357 0.09016 0.35248 0.0
C409 C 0.21364 0.15375 0.57783 0.0
C410 C 0.18886 0.12934 0.55027 0.0
H411 H 0.26093 0.17356 0.54991 0.0
H412 H 0.2114 0.17161 0.64091 0.0
C413 C 0.19268 0.10699 0.46713 0.0
C414 C 0.9237 0.74978 0.78442 0.0
C415 C 0.91286 0.71838 0.73663 0.0
H416 H 0.94012 0.80191 0.76838 0.0
C417 C 0.91225 0.71558 0.63233 0.0
H418 H 0.92473 0.75287 0.86466 0.0
C419 C 0.92117 0.7437 0.57723 0.0
C420 C 0.93117 0.7754 0.62478 0.0
H421 H 0.90411 0.6919 0.59278 0.0
H422 H 0.91951 0.74079 0.49694 0.0
C423 C 0.93286 0.77789 0.7292 0.0
C424 C 0.77661 0.86922 0.46603 0.0
C425 C 0.79883 0.89686 0.48373 0.0
H426 H 0.72731 0.85355 0.43098 0.0
C427 C 0.78728 0.93082 0.48091 0.0
H428 H 0.78464 0.84273 0.46719 0.0
C429 C 0.75468 0.93704 0.45717 0.0
C430 C 0.73247 0.90947 0.43774 0.0
H431 H 0.80345 0.95283 0.4965 0.0
H432 H 0.74717 0.96359 0.45204 0.0
C433 C 0.74378 0.87545 0.44377 0.0
C434 C 0.06406 0.26787 0.81103 0.0
C435 C 0.06924 0.26063 0.71024 0.0
H436 H 0.06146 0.3063 0.92834 0.0
C437 C 0.07321 0.28845 0.6478 0.0
H438 H 0.06128 0.24718 0.8616 0.0
C439 C 0.07319 0.32267 0.68644 0.0
C440 C 0.06962 0.32956 0.78836 0.0
H441 H 0.0769 0.28376 0.56958 0.0
H442 H 0.07751 0.34354 0.63759 0.0
C443 C 0.06433 0.30183 0.84952 0.0
C444 C 0.69374 0.60463 0.96497 0.0
C445 C 0.68993 0.62696 0.04815 0.0
H446 H 0.72456 0.58804 0.84979 0.0
C447 C 0.71465 0.65147 0.07546 0.0
H448 H 0.67513 0.58563 0.94143 0.0
C449 C 0.74278 0.65314 0.0222 0.0
C450 C 0.74702 0.63011 0.94101 0.0
H451 H 0.71241 0.66934 0.13853 0.0
H452 H 0.76172 0.67164 0.04684 0.0
C453 C 0.72203 0.60607 0.91236 0.0
C454 C 0.43271 0.27766 0.23204 0.0
C455 C 0.43087 0.27503 0.12762 0.0
H456 H 0.42476 0.25286 0.36794 0.0
C457 C 0.42086 0.24325 0.08056 0.0
H458 H 0.43999 0.30175 0.27085 0.0
C459 C 0.41203 0.21521 0.13613 0.0
C460 C 0.41275 0.21818 0.24043 0.0
H461 H 0.41908 0.24023 1.00029 0.0
H462 H 0.40383 0.19149 0.09695 0.0
C463 C 0.42365 0.24964 0.28772 0.0
loop_
_geom_bond_atom_site_label_1
_geom_bond_atom_site_label_2
_geom_bond_distance
_geom_bond_site_symmetry_2
_ccdc_geom_bond_type
C0 C1 1.351 . S
C0 N3 1.368 . S
C0 H5 0.931 . S
C1 C0 1.351 . S
C1 N2 1.373 . S
C1 H29 0.930 . S
N2 C1 1.373 . S
N2 C4 1.340 . S
N3 C0 1.368 . S
N3 C4 1.321 . S
N3 Co6 2.135 . S
C4 N2 1.340 . S
C4 N3 1.321 . S
C4 H28 0.930 . S
H5 C0 0.931 . S
Co6 N3 2.135 . S
Co6 N9 2.121 1_554 S
Co6 O14 2.055 . S
Co6 O17 2.039 . S
Co6 N20 2.140 . S
C7 O8 1.227 . S
C7 O17 1.265 . S
O8 C7 1.227 . S
N9 Co6 2.121 1_556 S
N9 C11 1.375 . S
N9 C12 1.313 . S
C10 C11 1.338 . S
C10 N13 1.377 . S
C10 H30 0.930 . S
C11 N9 1.375 . S
C11 C10 1.338 . S
C11 H15 0.931 . S
C12 N9 1.313 . S
C12 N13 1.344 . S
C12 H16 0.930 . S
N13 C10 1.377 . S
N13 C12 1.344 . S
O14 Co6 2.055 . S
O14 C18 1.253 . S
H15 C11 0.931 . S
H16 C12 0.930 . S
O17 Co6 2.039 . S
O17 C7 1.265 . S
C18 O14 1.253 . S
C18 O19 1.227 . S
O19 C18 1.227 . S
N20 Co6 2.140 . S
N20 C23 1.346 . S
N20 C24 1.342 1_554 S
C21 C22 1.387 . S
C21 C25 1.391 1_554 S
C22 C21 1.387 . S
C22 C23 1.369 . S
C22 H31 0.929 . S
C23 N20 1.346 . S
C23 C22 1.369 . S
C23 H26 0.928 . S
C24 N20 1.342 1_556 S
C24 C25 1.372 . S
C24 H27 0.933 . S
C25 C21 1.391 1_556 S
C25 C24 1.372 . S
C25 H32 0.930 . S
H26 C23 0.928 . S
H27 C24 0.933 . S
H28 C4 0.930 . S
H29 C1 0.930 . S
H30 C10 0.930 . S
H31 C22 0.929 . S
H32 C25 0.930 . S
C33 C34 1.351 . S
C33 N36 1.368 . S
C33 H38 0.931 . S
C34 C33 1.351 . S
C34 N35 1.373 . S
C34 H62 0.930 . S
N35 C34 1.373 . S
N35 C37 1.340 . S
N36 C33 1.368 . S
N36 C37 1.321 . S
N36 Co39 2.135 . S
C37 N35 1.340 . S
C37 N36 1.321 . S
C37 H61 0.930 . S
H38 C33 0.931 . S
Co39 N36 2.135 . S
Co39 N42 2.121 . S
Co39 O47 2.055 . S
Co39 O50 2.039 . S
Co39 N53 2.140 . S
C40 O41 1.227 . S
C40 O50 1.265 . S
O41 C40 1.227 . S
N42 Co39 2.121 . S
N42 C44 1.375 . S
N42 C45 1.313 . S
C43 C44 1.338 . S
C43 N46 1.377 . S
C43 H63 0.930 . S
C44 N42 1.375 . S
C44 C43 1.338 . S
C44 H48 0.931 . S
C45 N42 1.313 . S
C45 N46 1.344 . S
C45 H49 0.930 . S
N46 C43 1.377 . S
N46 C45 1.344 . S
O47 Co39 2.055 . S
O47 C51 1.253 . S
H48 C44 0.931 . S
H49 C45 0.930 . S
O50 Co39 2.039 . S
O50 C40 1.265 . S
C51 O47 1.253 . S
C51 O52 1.227 . S
O52 C51 1.227 . S
N53 Co39 2.140 . S
N53 C56 1.346 . S
N53 C57 1.345 . S
C54 C55 1.387 . S
C54 C58 1.391 . S
C55 C54 1.387 . S
C55 C56 1.369 . S
C55 H64 0.929 . S
C56 N53 1.346 . S
C56 C55 1.369 . S
C56 H59 0.928 . S
C57 N53 1.345 . S
C57 C58 1.371 . S
C57 H60 0.931 . S
C58 C54 1.391 . S
C58 C57 1.371 . S
C58 H65 0.930 . S
H59 C56 0.928 . S
H60 C57 0.931 . S
H61 C37 0.930 . S
H62 C34 0.930 . S
H63 C43 0.930 . S
H64 C55 0.929 . S
H65 C58 0.930 . S
C66 C67 1.351 . S
C66 N69 1.368 . S
C66 H71 0.931 . S
C67 C66 1.351 . S
C67 N68 1.373 . S
C67 H95 0.930 . S
N68 C67 1.373 . S
N68 C70 1.340 . S
N69 C66 1.368 . S
N69 C70 1.321 . S
N69 Co72 2.135 . S
C70 N68 1.340 . S
C70 N69 1.321 . S
C70 H94 0.930 . S
H71 C66 0.931 . S
Co72 N69 2.135 . S
Co72 N75 2.121 . S
Co72 O80 2.055 . S
Co72 O83 2.039 . S
Co72 N86 2.140 . S
C73 O74 1.227 . S
C73 O83 1.265 . S
O74 C73 1.227 . S
N75 Co72 2.121 . S
N75 C77 1.375 . S
N75 C78 1.313 . S
C76 C77 1.338 . S
C76 N79 1.377 . S
C76 H96 0.930 . S
C77 N75 1.375 . S
C77 C76 1.338 . S
C77 H81 0.931 . S
C78 N75 1.313 . S
C78 N79 1.344 . S
C78 H82 0.930 . S
N79 C76 1.377 . S
N79 C78 1.344 . S
O80 Co72 2.055 . S
O80 C84 1.253 . S
H81 C77 0.931 . S
H82 C78 0.930 . S
O83 Co72 2.039 . S
O83 C73 1.265 . S
C84 O80 1.253 . S
C84 O85 1.227 . S
O85 C84 1.227 . S
N86 Co72 2.140 . S
N86 C89 1.346 . S
N86 C90 1.345 . S
C87 C88 1.387 . S
C87 C91 1.391 . S
C88 C87 1.387 . S
C88 C89 1.369 . S
C88 H97 0.929 . S
C89 N86 1.346 . S
C89 C88 1.369 . S
C89 H92 0.928 . S
C90 N86 1.345 . S
C90 C91 1.371 . S
C90 H93 0.931 . S
C91 C87 1.391 . S
C91 C90 1.371 . S
C91 H98 0.930 . S
H92 C89 0.928 . S
H93 C90 0.931 . S
H94 C70 0.930 . S
H95 C67 0.930 . S
H96 C76 0.930 . S
H97 C88 0.929 . S
H98 C91 0.930 . S
C99 C100 1.351 . S
C99 N102 1.368 . S
C99 H104 0.931 . S
C100 C99 1.351 . S
C100 N101 1.373 . S
C100 H128 0.930 . S
N101 C100 1.373 . S
N101 C103 1.340 . S
N102 C99 1.368 . S
N102 C103 1.321 . S
N102 Co105 2.135 . S
C103 N101 1.340 . S
C103 N102 1.321 . S
C103 H127 0.930 . S
H104 C99 0.931 . S
Co105 N102 2.135 . S
Co105 N108 2.121 . S
Co105 O113 2.055 . S
Co105 O116 2.039 . S
Co105 N119 2.140 . S
C106 O107 1.227 . S
C106 O116 1.265 . S
O107 C106 1.227 . S
N108 Co105 2.121 . S
N108 C110 1.375 1_556 S
N108 C111 1.313 1_556 S
C109 C110 1.338 . S
C109 N112 1.377 . S
C109 H129 0.930 . S
C110 N108 1.375 1_554 S
C110 C109 1.338 . S
C110 H114 0.931 1_554 S
C111 N108 1.313 1_554 S
C111 N112 1.344 . S
C111 H115 0.930 . S
N112 C109 1.377 . S
N112 C111 1.344 . S
O113 Co105 2.055 . S
O113 C117 1.253 . S
H114 C110 0.931 1_556 S
H115 C111 0.930 . S
O116 Co105 2.039 . S
O116 C106 1.265 . S
C117 O113 1.253 . S
C117 O118 1.227 . S
O118 C117 1.227 . S
N119 Co105 2.140 . S
N119 C122 1.346 . S
N119 C123 1.345 . S
C120 C121 1.387 . S
C120 C124 1.391 . S
C121 C120 1.387 . S
C121 C122 1.369 . S
C121 H130 0.929 . S
C122 N119 1.346 . S
C122 C121 1.369 . S
C122 H125 0.928 . S
C123 N119 1.345 . S
C123 C124 1.371 . S
C123 H126 0.931 . S
C124 C120 1.391 . S
C124 C123 1.371 . S
C124 H131 0.930 . S
H125 C122 0.928 . S
H126 C123 0.931 . S
H127 C103 0.930 . S
H128 C100 0.930 . S
H129 C109 0.930 . S
H130 C121 0.929 . S
H131 C124 0.930 . S
C132 C133 1.351 . S
C132 N135 1.368 . S
C132 H137 0.931 . S
C133 C132 1.351 . S
C133 N134 1.373 . S
C133 H161 0.930 . S
N134 C133 1.373 . S
N134 C136 1.340 . S
N135 C132 1.368 . S
N135 C136 1.321 . S
N135 Co138 2.135 . S
C136 N134 1.340 . S
C136 N135 1.321 . S
C136 H160 0.930 . S
H137 C132 0.931 . S
Co138 N135 2.135 . S
Co138 N141 2.121 . S
Co138 O146 2.055 . S
Co138 O149 2.039 . S
Co138 N152 2.140 . S
C139 O140 1.227 . S
C139 O149 1.265 . S
O140 C139 1.227 . S
N141 Co138 2.121 . S
N141 C143 1.375 . S
N141 C144 1.313 . S
C142 C143 1.338 . S
C142 N145 1.377 . S
C142 H162 0.930 . S
C143 N141 1.375 . S
C143 C142 1.338 . S
C143 H147 0.931 . S
C144 N141 1.313 . S
C144 N145 1.344 . S
C144 H148 0.930 . S
N145 C142 1.377 . S
N145 C144 1.344 . S
O146 Co138 2.055 . S
O146 C150 1.253 . S
H147 C143 0.931 . S
H148 C144 0.930 . S
O149 Co138 2.039 . S
O149 C139 1.265 . S
C150 O146 1.253 . S
C150 O151 1.227 . S
O151 C150 1.227 . S
N152 Co138 2.140 . S
N152 C155 1.346 . S
N152 C156 1.345 . S
C153 C154 1.387 . S
C153 C157 1.391 . S
C154 C153 1.387 . S
C154 C155 1.369 . S
C154 H163 0.929 . S
C155 N152 1.346 . S
C155 C154 1.369 . S
C155 H158 0.928 . S
C156 N152 1.345 . S
C156 C157 1.371 . S
C156 H159 0.931 . S
C157 C153 1.391 . S
C157 C156 1.371 . S
C157 H164 0.930 . S
H158 C155 0.928 . S
H159 C156 0.931 . S
H160 C136 0.930 . S
H161 C133 0.930 . S
H162 C142 0.930 . S
H163 C154 0.929 . S
H164 C157 0.930 . S
C165 C166 1.351 . S
C165 N168 1.368 . S
C165 H170 0.931 . S
C166 C165 1.351 . S
C166 N167 1.373 . S
C166 H194 0.930 . S
N167 C166 1.373 . S
N167 C169 1.340 . S
N168 C165 1.368 . S
N168 C169 1.321 . S
N168 Co171 2.135 . S
C169 N167 1.340 . S
C169 N168 1.321 . S
C169 H193 0.930 . S
H170 C165 0.931 . S
Co171 N168 2.135 . S
Co171 N174 2.121 . S
Co171 O179 2.055 . S
Co171 O182 2.039 . S
Co171 N185 2.140 . S
C172 O173 1.227 . S
C172 O182 1.265 . S
O173 C172 1.227 . S
N174 Co171 2.121 . S
N174 C176 1.375 . S
N174 C177 1.313 . S
C175 C176 1.338 . S
C175 N178 1.377 . S
C175 H195 0.930 . S
C176 N174 1.375 . S
C176 C175 1.338 . S
C176 H180 0.931 . S
C177 N174 1.313 . S
C177 N178 1.344 . S
C177 H181 0.930 . S
N178 C175 1.377 . S
N178 C177 1.344 . S
O179 Co171 2.055 . S
O179 C183 1.253 . S
H180 C176 0.931 . S
H181 C177 0.930 . S
O182 Co171 2.039 . S
O182 C172 1.265 . S
C183 O179 1.253 . S
C183 O184 1.227 . S
O184 C183 1.227 . S
N185 Co171 2.140 . S
N185 C188 1.346 . S
N185 C189 1.345 . S
C186 C187 1.387 . S
C186 C190 1.391 . S
C187 C186 1.387 . S
C187 C188 1.369 . S
C187 H196 0.929 . S
C188 N185 1.346 . S
C188 C187 1.369 . S
C188 H191 0.928 . S
C189 N185 1.345 . S
C189 C190 1.371 . S
C189 H192 0.931 . S
C190 C186 1.391 . S
C190 C189 1.371 . S
C190 H197 0.930 . S
H191 C188 0.928 . S
H192 C189 0.931 . S
H193 C169 0.930 . S
H194 C166 0.930 . S
H195 C175 0.930 . S
H196 C187 0.929 . S
H197 C190 0.930 . S
C198 C199 1.351 . S
C198 N201 1.368 . S
C198 H203 0.931 . S
C199 C198 1.351 . S
C199 N200 1.373 . S
C199 H227 0.930 . S
N200 C199 1.373 . S
N200 C202 1.340 . S
N201 C198 1.368 . S
N201 C202 1.321 . S
N201 Co204 2.135 . S
C202 N200 1.340 . S
C202 N201 1.321 . S
C202 H226 0.930 . S
H203 C198 0.931 . S
Co204 N201 2.135 . S
Co204 N207 2.121 . S
Co204 O212 2.055 . S
Co204 O215 2.039 . S
Co204 N218 2.140 . S
C205 O206 1.227 . S
C205 O215 1.265 . S
O206 C205 1.227 . S
N207 Co204 2.121 . S
N207 C209 1.375 1_556 S
N207 C210 1.313 1_556 S
C208 C209 1.338 . S
C208 N211 1.377 . S
C208 H228 0.930 . S
C209 N207 1.375 1_554 S
C209 C208 1.338 . S
C209 H213 0.931 1_554 S
C210 N207 1.313 1_554 S
C210 N211 1.344 . S
C210 H214 0.930 . S
N211 C208 1.377 . S
N211 C210 1.344 . S
O212 Co204 2.055 . S
O212 C216 1.253 . S
H213 C209 0.931 1_556 S
H214 C210 0.930 . S
O215 Co204 2.039 . S
O215 C205 1.265 . S
C216 O212 1.253 . S
C216 O217 1.227 . S
O217 C216 1.227 . S
N218 Co204 2.140 . S
N218 C221 1.346 . S
N218 C222 1.345 . S
C219 C220 1.387 . S
C219 C223 1.391 . S
C220 C219 1.387 . S
C220 C221 1.369 . S
C220 H229 0.929 . S
C221 N218 1.346 . S
C221 C220 1.369 . S
C221 H224 0.928 . S
C222 N218 1.345 . S
C222 C223 1.371 . S
C222 H225 0.931 . S
C223 C219 1.391 . S
C223 C222 1.371 . S
C223 H230 0.930 1_556 S
H224 C221 0.928 . S
H225 C222 0.931 . S
H226 C202 0.930 . S
H227 C199 0.930 . S
H228 C208 0.930 . S
H229 C220 0.929 . S
H230 C223 0.930 1_554 S
C231 C232 1.351 . S
C231 N234 1.368 . S
C231 H236 0.931 . S
C232 C231 1.351 . S
C232 N233 1.373 . S
C232 H260 0.930 . S
N233 C232 1.373 . S
N233 C235 1.340 . S
N234 C231 1.368 . S
N234 C235 1.321 . S
N234 Co237 2.135 1_556 S
C235 N233 1.340 . S
C235 N234 1.321 . S
C235 H259 0.930 . S
H236 C231 0.931 . S
Co237 N234 2.135 1_554 S
Co237 N240 2.121 . S
Co237 O245 2.055 . S
Co237 O248 2.039 1_554 S
Co237 N251 2.140 . S
C238 O239 1.227 . S
C238 O248 1.265 . S
O239 C238 1.227 . S
N240 Co237 2.121 . S
N240 C242 1.375 . S
N240 C243 1.313 . S
C241 C242 1.338 . S
C241 N244 1.377 . S
C241 H261 0.930 . S
C242 N240 1.375 . S
C242 C241 1.338 . S
C242 H246 0.931 . S
C243 N240 1.313 . S
C243 N244 1.344 . S
C243 H247 0.930 . S
N244 C241 1.377 . S
N244 C243 1.344 . S
O245 Co237 2.055 . S
O245 C249 1.253 . S
H246 C242 0.931 . S
H247 C243 0.930 . S
O248 Co237 2.039 1_556 S
O248 C238 1.265 . S
C249 O245 1.253 . S
C249 O250 1.227 . S
O250 C249 1.227 . S
N251 Co237 2.140 . S
N251 C254 1.346 1_554 S
N251 C255 1.345 . S
C252 C253 1.387 1_554 S
C252 C256 1.391 . S
C253 C252 1.387 1_556 S
C253 C254 1.369 . S
C253 H262 0.929 . S
C254 N251 1.346 1_556 S
C254 C253 1.369 . S
C254 H257 0.928 . S
C255 N251 1.345 . S
C255 C256 1.371 . S
C255 H258 0.931 . S
C256 C252 1.391 . S
C256 C255 1.371 . S
C256 H263 0.930 . S
H257 C254 0.928 . S
H258 C255 0.931 . S
H259 C235 0.930 . S
H260 C232 0.930 . S
H261 C241 0.930 . S
H262 C253 0.929 . S
H263 C256 0.930 . S
C264 C265 1.387 1_556 S
C264 H268 0.950 . S
C264 C273 1.390 . S
C265 C264 1.387 1_554 S
C265 C267 1.387 . S
H266 C273 0.950 . S
C267 C265 1.387 . S
C267 C269 1.390 . S
C267 H271 0.950 . S
H268 C264 0.950 . S
C269 C267 1.390 . S
C269 C270 1.387 . S
C269 H272 0.950 . S
C270 C269 1.387 . S
C270 C273 1.387 1_554 S
H271 C267 0.950 . S
H272 C269 0.950 . S
C273 C264 1.390 . S
C273 H266 0.950 . S
C273 C270 1.387 1_556 S
C274 C275 1.387 . S
C274 H278 0.950 . S
C274 C283 1.390 1_545 S
C275 C274 1.387 . S
C275 C277 1.387 . S
H276 C283 0.950 . S
C277 C275 1.387 . S
C277 C279 1.390 1_545 S
C277 H281 0.950 . S
H278 C274 0.950 . S
C279 C277 1.390 1_565 S
C279 C280 1.387 . S
C279 H282 0.950 . S
C280 C279 1.387 . S
C280 C283 1.387 . S
H281 C277 0.950 . S
H282 C279 0.950 . S
C283 C274 1.390 1_565 S
C283 H276 0.950 . S
C283 C280 1.387 . S
C284 C285 1.387 . S
C284 H288 0.950 . S
C284 C293 1.390 1_655 S
C285 C284 1.387 . S
C285 C287 1.387 . S
H286 C293 0.950 1_545 S
C287 C285 1.387 . S
C287 C289 1.390 1_665 S
C287 H291 0.950 . S
H288 C284 0.950 . S
C289 C287 1.390 1_445 S
C289 C290 1.387 . S
C289 H292 0.950 . S
C290 C289 1.387 . S
C290 C293 1.387 1_545 S
H291 C287 0.950 . S
H292 C289 0.950 . S
C293 C284 1.390 1_455 S
C293 H286 0.950 1_565 S
C293 C290 1.387 1_565 S
C294 C295 1.387 . S
C294 H298 0.950 . S
C294 C303 1.390 1_455 S
C295 C294 1.387 . S
C295 C297 1.387 . S
H296 C303 0.950 . S
C297 C295 1.387 . S
C297 C299 1.390 1_455 S
C297 H301 0.950 1_556 S
H298 C294 0.950 . S
C299 C297 1.390 1_655 S
C299 C300 1.387 . S
C299 H302 0.950 1_556 S
C300 C299 1.387 . S
C300 C303 1.387 . S
H301 C297 0.950 1_554 S
H302 C299 0.950 1_554 S
C303 C294 1.390 1_655 S
C303 H296 0.950 . S
C303 C300 1.387 . S
C304 C305 1.387 . S
C304 H308 0.950 . S
C304 C313 1.390 . S
C305 C304 1.387 . S
C305 C307 1.387 . S
H306 C313 0.950 . S
C307 C305 1.387 . S
C307 C309 1.390 . S
C307 H311 0.950 . S
H308 C304 0.950 . S
C309 C307 1.390 . S
C309 C310 1.387 . S
C309 H312 0.950 . S
C310 C309 1.387 . S
C310 C313 1.387 . S
H311 C307 0.950 . S
H312 C309 0.950 . S
C313 C304 1.390 . S
C313 H306 0.950 . S
C313 C310 1.387 . S
C314 C315 1.387 . S
C314 H318 0.950 . S
C314 C323 1.390 . S
C315 C314 1.387 . S
C315 C317 1.387 . S
H316 C323 0.950 . S
C317 C315 1.387 . S
C317 C319 1.390 . S
C317 H321 0.950 . S
H318 C314 0.950 . S
C319 C317 1.390 . S
C319 C320 1.387 . S
C319 H322 0.950 . S
C320 C319 1.387 . S
C320 C323 1.387 . S
H321 C317 0.950 . S
H322 C319 0.950 . S
C323 C314 1.390 . S
C323 H316 0.950 . S
C323 C320 1.387 . S
C324 C325 1.387 . S
C324 H328 0.950 . S
C324 C333 1.390 1_556 S
C325 C324 1.387 . S
C325 C327 1.387 . S
H326 C333 0.950 . S
C327 C325 1.387 . S
C327 C329 1.390 1_556 S
C327 H331 0.950 . S
H328 C324 0.950 . S
C329 C327 1.390 1_554 S
C329 C330 1.387 . S
C329 H332 0.950 . S
C330 C329 1.387 . S
C330 C333 1.387 . S
H331 C327 0.950 . S
H332 C329 0.950 . S
C333 C324 1.390 1_554 S
C333 H326 0.950 . S
C333 C330 1.387 . S
C334 C335 1.387 . S
C334 H338 0.950 . S
C334 C343 1.390 . S
C335 C334 1.387 . S
C335 C337 1.387 . S
H336 C343 0.950 . S
C337 C335 1.387 . S
C337 C339 1.390 . S
C337 H341 0.950 . S
H338 C334 0.950 . S
C339 C337 1.390 . S
C339 C340 1.387 . S
C339 H342 0.950 . S
C340 C339 1.387 . S
C340 C343 1.387 . S
H341 C337 0.950 . S
H342 C339 0.950 . S
C343 C334 1.390 . S
C343 H336 0.950 . S
C343 C340 1.387 . S
C344 C345 1.387 . S
C344 H348 0.950 . S
C344 C353 1.390 . S
C345 C344 1.387 . S
C345 C347 1.387 . S
H346 C353 0.950 . S
C347 C345 1.387 . S
C347 C349 1.390 . S
C347 H351 0.950 . S
H348 C344 0.950 . S
C349 C347 1.390 . S
C349 C350 1.387 . S
C349 H352 0.950 . S
C350 C349 1.387 . S
C350 C353 1.387 . S
H351 C347 0.950 . S
H352 C349 0.950 . S
C353 C344 1.390 . S
C353 H346 0.950 . S
C353 C350 1.387 . S
C354 C355 1.387 . S
C354 H358 0.950 . S
C354 C363 1.390 . S
C355 C354 1.387 . S
C355 C357 1.387 . S
H356 C363 0.950 . S
C357 C355 1.387 . S
C357 C359 1.390 . S
C357 H361 0.950 . S
H358 C354 0.950 . S
C359 C357 1.390 . S
C359 C360 1.385 1_554 S
C359 H362 0.950 1_554 S
C360 C359 1.385 1_556 S
C360 C363 1.380 1_556 S
H361 C357 0.950 . S
H362 C359 0.950 1_556 S
C363 C354 1.390 . S
C363 H356 0.950 . S
C363 C360 1.380 1_554 S
C364 C365 1.387 . S
C364 H368 0.950 . S
C364 C373 1.390 . S
C365 C364 1.387 . S
C365 C367 1.387 . S
H366 C373 0.950 . S
C367 C365 1.387 . S
C367 C369 1.390 . S
C367 H371 0.950 . S
H368 C364 0.950 . S
C369 C367 1.390 . S
C369 C370 1.387 . S
C369 H372 0.950 . S
C370 C369 1.387 . S
C370 C373 1.387 . S
H371 C367 0.950 . S
H372 C369 0.950 . S
C373 C364 1.390 . S
C373 H366 0.950 . S
C373 C370 1.387 . S
C374 C375 1.387 . S
C374 H378 0.950 . S
C374 C383 1.390 . S
C375 C374 1.387 . S
C375 C377 1.387 . S
H376 C383 0.950 . S
C377 C375 1.387 . S
C377 C379 1.390 . S
C377 H381 0.950 . S
H378 C374 0.950 . S
C379 C377 1.390 . S
C379 C380 1.387 . S
C379 H382 0.950 . S
C380 C379 1.387 . S
C380 C383 1.387 . S
H381 C377 0.950 . S
H382 C379 0.950 . S
C383 C374 1.390 . S
C383 H376 0.950 . S
C383 C380 1.387 . S
C384 C385 1.387 . S
C384 H388 0.950 . S
C384 C393 1.390 1_556 S
C385 C384 1.387 . S
C385 C387 1.387 . S
H386 C393 0.950 . S
C387 C385 1.387 . S
C387 C389 1.390 . S
C387 H391 0.950 . S
H388 C384 0.950 . S
C389 C387 1.390 . S
C389 C390 1.387 1_556 S
C389 H392 0.950 . S
C390 C389 1.387 1_554 S
C390 C393 1.387 . S
H391 C387 0.950 . S
H392 C389 0.950 . S
C393 C384 1.390 1_554 S
C393 H386 0.950 . S
C393 C390 1.387 . S
C394 C395 1.387 . S
C394 H398 0.950 . S
C394 C403 1.390 . S
C395 C394 1.387 . S
C395 C397 1.387 . S
H396 C403 0.950 . S
C397 C395 1.387 . S
C397 C399 1.390 . S
C397 H401 0.950 . S
H398 C394 0.950 . S
C399 C397 1.390 . S
C399 C400 1.387 . S
C399 H402 0.950 . S
C400 C399 1.387 . S
C400 C403 1.387 . S
H401 C397 0.950 . S
H402 C399 0.950 . S
C403 C394 1.390 . S
C403 H396 0.950 . S
C403 C400 1.387 . S
C404 C405 1.387 . S
C404 H408 0.950 . S
C404 C413 1.390 . S
C405 C404 1.387 . S
C405 C407 1.387 . S
H406 C413 0.950 . S
C407 C405 1.387 . S
C407 C409 1.390 . S
C407 H411 0.950 . S
H408 C404 0.950 . S
C409 C407 1.390 . S
C409 C410 1.387 . S
C409 H412 0.950 . S
C410 C409 1.387 . S
C410 C413 1.387 . S
H411 C407 0.950 . S
H412 C409 0.950 . S
C413 C404 1.390 . S
C413 H406 0.950 . S
C413 C410 1.387 . S
C414 C415 1.387 . S
C414 H418 0.950 . S
C414 C423 1.390 . S
C415 C414 1.387 . S
C415 C417 1.387 . S
H416 C423 0.950 . S
C417 C415 1.387 . S
C417 C419 1.390 . S
C417 H421 0.950 . S
H418 C414 0.950 . S
C419 C417 1.390 . S
C419 C420 1.387 . S
C419 H422 0.950 . S
C420 C419 1.387 . S
C420 C423 1.387 . S
H421 C417 0.950 . S
H422 C419 0.950 . S
C423 C414 1.390 . S
C423 H416 0.950 . S
C423 C420 1.387 . S
C424 C425 1.387 . S
C424 H428 0.950 . S
C424 C433 1.390 . S
C425 C424 1.387 . S
C425 C427 1.387 . S
H426 C433 0.950 . S
C427 C425 1.387 . S
C427 C429 1.390 . S
C427 H431 0.950 . S
H428 C424 0.950 . S
C429 C427 1.390 . S
C429 C430 1.387 . S
C429 H432 0.950 . S
C430 C429 1.387 . S
C430 C433 1.387 . S
H431 C427 0.950 . S
H432 C429 0.950 . S
C433 C424 1.390 . S
C433 H426 0.950 . S
C433 C430 1.387 . S
C434 C435 1.387 . S
C434 H438 0.950 . S
C434 C443 1.390 . S
C435 C434 1.387 . S
C435 C437 1.387 . S
H436 C443 0.950 . S
C437 C435 1.387 . S
C437 C439 1.390 . S
C437 H441 0.950 . S
H438 C434 0.950 . S
C439 C437 1.390 . S
C439 C440 1.387 . S
C439 H442 0.950 . S
C440 C439 1.387 . S
C440 C443 1.387 . S
H441 C437 0.950 . S
H442 C439 0.950 . S
C443 C434 1.390 . S
C443 H436 0.950 . S
C443 C440 1.387 . S
C444 C445 1.387 . S
C444 H448 0.950 . S
C444 C453 1.390 . S
C445 C444 1.387 . S
C445 C447 1.387 . S
H446 C453 0.950 . S
C447 C445 1.387 . S
C447 C449 1.390 . S
C447 H451 0.950 . S
H448 C444 0.950 . S
C449 C447 1.390 . S
C449 C450 1.387 . S
C449 H452 0.950 . S
C450 C449 1.387 . S
C450 C453 1.387 . S
H451 C447 0.950 . S
H452 C449 0.950 . S
C453 C444 1.390 . S
C453 H446 0.950 . S
C453 C450 1.387 . S
C454 C455 1.387 . S
C454 H458 0.950 . S
C454 C463 1.390 . S
C455 C454 1.387 . S
C455 C457 1.387 . S
H456 C463 0.950 . S
C457 C455 1.387 . S
C457 C459 1.390 . S
C457 H461 0.950 . S
H458 C454 0.950 . S
C459 C457 1.390 . S
C459 C460 1.387 . S
C459 H462 0.950 . S
C460 C459 1.387 . S
C460 C463 1.387 . S
H461 C457 0.950 . S
H462 C459 0.950 . S
C463 C454 1.390 . S
C463 H456 0.950 . S
C463 C460 1.387 . S
C265 C249 1.256 . S
C270 C18 1.256 . S
C275 C150 1.266 . S
C280 C51 1.266 . S
C285 C183 1.256 . S
C290 C84 1.256 . S
C295 C216 1.266 . S
C300 C117 1.266 . S
C305 N2 1.393 . S
C310 N13 1.395 . S
C315 N35 1.366 1_556 S
C320 N46 1.369 . S
C325 N79 1.392 . S
C330 N68 1.389 . S
C335 N112 1.416 . S
C340 N101 1.413 . S
C345 N134 1.411 1_556 S
C350 N145 1.414 . S
C355 N178 1.392 . S
C360 N167 1.401 . S
C365 N200 1.369 . S
C370 N211 1.372 . S
C375 N233 1.390 . S
C380 N244 1.393 . S
C385 C219 1.444 . S
C390 C21 1.451 . S
C395 C40 1.440 . S
C400 C252 1.466 . S
C405 C153 1.677 . S
C410 C73 1.653 . S
C415 C106 1.639 . S
C420 C172 1.623 . S
C425 C186 1.450 . S
C430 C54 1.442 . S
C435 C87 1.464 . S
C440 C205 1.438 . S
C445 C238 1.653 . S
C450 C120 1.677 . S
C455 C7 1.623 . S
C460 C139 1.639 . S
