# Generated by pormake.
# Topology snl, (6)-cn, num edge types: 1
# Building blocks:
#     Node 0, Type 0, BuildingBlock: CUKXOW_clean_sbu_0, # of connection points: 6
#     Node 1, Type 0, BuildingBlock: CUKXOW_clean_sbu_0, # of connection points: 6
#     Node 2, Type 0, BuildingBlock: CUKXOW_clean_sbu_0, # of connection points: 6
#     Node 3, Type 0, BuildingBlock: CUKXOW_clean_sbu_0, # of connection points: 6
#     Node 4, Type 0, BuildingBlock: CUKXOW_clean_sbu_0, # of connection points: 6
#     Node 5, Type 0, BuildingBlock: CUKXOW_clean_sbu_0, # of connection points: 6
#     Node 6, Type 0, BuildingBlock: CUKXOW_clean_sbu_0, # of connection points: 6
#     Node 7, Type 0, BuildingBlock: CUKXOW_clean_sbu_0, # of connection points: 6
#     Node 8, Type 0, BuildingBlock: CUKXOW_clean_sbu_0, # of connection points: 6
#     Node 9, Type 0, BuildingBlock: CUKXOW_clean_sbu_0, # of connection points: 6
#     Node 10, Type 0, BuildingBlock: CUKXOW_clean_sbu_0, # of connection points: 6
#     Node 11, Type 0, BuildingBlock: CUKXOW_clean_sbu_0, # of connection points: 6
#     Node 12, Type 0, BuildingBlock: CUKXOW_clean_sbu_0, # of connection points: 6
#     Node 13, Type 0, BuildingBlock: CUKXOW_clean_sbu_0, # of connection points: 6
#     Node 14, Type 0, BuildingBlock: CUKXOW_clean_sbu_0, # of connection points: 6
#     Node 15, Type 0, BuildingBlock: CUKXOW_clean_sbu_0, # of connection points: 6
#     Edge 16, Type (0, 0), BuildingBlock: ZUJKAS_clean_linker_0, # of connection points: 2
#     Edge 17, Type (0, 0), BuildingBlock: ZUJKAS_clean_linker_0, # of connection points: 2
#     Edge 18, Type (0, 0), BuildingBlock: ZUJKAS_clean_linker_0, # of connection points: 2
#     Edge 19, Type (0, 0), BuildingBlock: ZUJKAS_clean_linker_0, # of connection points: 2
#     Edge 20, Type (0, 0), BuildingBlock: ZUJKAS_clean_linker_0, # of connection points: 2
#     Edge 21, Type (0, 0), BuildingBlock: ZUJKAS_clean_linker_0, # of connection points: 2
#     Edge 22, Type (0, 0), BuildingBlock: ZUJKAS_clean_linker_0, # of connection points: 2
#     Edge 23, Type (0, 0), BuildingBlock: ZUJKAS_clean_linker_0, # of connection points: 2
#     Edge 24, Type (0, 0), BuildingBlock: ZUJKAS_clean_linker_0, # of connection points: 2
#     Edge 25, Type (0, 0), BuildingBlock: ZUJKAS_clean_linker_0, # of connection points: 2
#     Edge 26, Type (0, 0), BuildingBlock: ZUJKAS_clean_linker_0, # of connection points: 2
#     Edge 27, Type (0, 0), BuildingBlock: ZUJKAS_clean_linker_0, # of connection points: 2
#     Edge 28, Type (0, 0), BuildingBlock: ZUJKAS_clean_linker_0, # of connection points: 2
#     Edge 29, Type (0, 0), BuildingBlock: ZUJKAS_clean_linker_0, # of connection points: 2
#     Edge 30, Type (0, 0), BuildingBlock: ZUJKAS_clean_linker_0, # of connection points: 2
#     Edge 31, Type (0, 0), BuildingBlock: ZUJKAS_clean_linker_0, # of connection points: 2
#     Edge 32, Type (0, 0), BuildingBlock: ZUJKAS_clean_linker_0, # of connection points: 2
#     Edge 33, Type (0, 0), BuildingBlock: ZUJKAS_clean_linker_0, # of connection points: 2
#     Edge 34, Type (0, 0), BuildingBlock: ZUJKAS_clean_linker_0, # of connection points: 2
#     Edge 35, Type (0, 0), BuildingBlock: ZUJKAS_clean_linker_0, # of connection points: 2
#     Edge 36, Type (0, 0), BuildingBlock: ZUJKAS_clean_linker_0, # of connection points: 2
#     Edge 37, Type (0, 0), BuildingBlock: ZUJKAS_clean_linker_0, # of connection points: 2
#     Edge 38, Type (0, 0), BuildingBlock: ZUJKAS_clean_linker_0, # of connection points: 2
#     Edge 39, Type (0, 0), BuildingBlock: ZUJKAS_clean_linker_0, # of connection points: 2
#     Edge 40, Type (0, 0), BuildingBlock: ZUJKAS_clean_linker_0, # of connection points: 2
#     Edge 41, Type (0, 0), BuildingBlock: ZUJKAS_clean_linker_0, # of connection points: 2
#     Edge 42, Type (0, 0), BuildingBlock: ZUJKAS_clean_linker_0, # of connection points: 2
#     Edge 43, Type (0, 0), BuildingBlock: ZUJKAS_clean_linker_0, # of connection points: 2
#     Edge 44, Type (0, 0), BuildingBlock: ZUJKAS_clean_linker_0, # of connection points: 2
#     Edge 45, Type (0, 0), BuildingBlock: ZUJKAS_clean_linker_0, # of connection points: 2
#     Edge 46, Type (0, 0), BuildingBlock: ZUJKAS_clean_linker_0, # of connection points: 2
#     Edge 47, Type (0, 0), BuildingBlock: ZUJKAS_clean_linker_0, # of connection points: 2
#     Edge 48, Type (0, 0), BuildingBlock: ZUJKAS_clean_linker_0, # of connection points: 2
#     Edge 49, Type (0, 0), BuildingBlock: ZUJKAS_clean_linker_0, # of connection points: 2
#     Edge 50, Type (0, 0), BuildingBlock: ZUJKAS_clean_linker_0, # of connection points: 2
#     Edge 51, Type (0, 0), BuildingBlock: ZUJKAS_clean_linker_0, # of connection points: 2
#     Edge 52, Type (0, 0), BuildingBlock: ZUJKAS_clean_linker_0, # of connection points: 2
#     Edge 53, Type (0, 0), BuildingBlock: ZUJKAS_clean_linker_0, # of connection points: 2
#     Edge 54, Type (0, 0), BuildingBlock: ZUJKAS_clean_linker_0, # of connection points: 2
#     Edge 55, Type (0, 0), BuildingBlock: ZUJKAS_clean_linker_0, # of connection points: 2
#     Edge 56, Type (0, 0), BuildingBlock: ZUJKAS_clean_linker_0, # of connection points: 2
#     Edge 57, Type (0, 0), BuildingBlock: ZUJKAS_clean_linker_0, # of connection points: 2
#     Edge 58, Type (0, 0), BuildingBlock: ZUJKAS_clean_linker_0, # of connection points: 2
#     Edge 59, Type (0, 0), BuildingBlock: ZUJKAS_clean_linker_0, # of connection points: 2
#     Edge 60, Type (0, 0), BuildingBlock: ZUJKAS_clean_linker_0, # of connection points: 2
#     Edge 61, Type (0, 0), BuildingBlock: ZUJKAS_clean_linker_0, # of connection points: 2
#     Edge 62, Type (0, 0), BuildingBlock: ZUJKAS_clean_linker_0, # of connection points: 2
#     Edge 63, Type (0, 0), BuildingBlock: ZUJKAS_clean_linker_0, # of connection points: 2
# Relax obj value: 0.190
# Max RMSD: 0.283
# Mean RMSD: 0.224
data_MOF--net-snl--node1-CUKXOW_clean_sbu_0--edge1-ZUJKAS_clean_linker_0
_symmetry_space_group_name_H-M    P1
_symmetry_Int_Tables_number       1
_symmetry_cell_setting            triclinic
loop_
_symmetry_equiv_pos_as_xyz
'x, y, z'
_cell_length_a     84.621991
_cell_length_b     82.431394
_cell_length_c     18.915878
_cell_angle_alpha  94.43625
_cell_angle_beta   94.346474
_cell_angle_gamma 90.098867
loop_
_atom_site_label
_atom_site_type_symbol
_atom_site_fract_x
_atom_site_fract_y
_atom_site_fract_z
_atom_type_partial_charge
Tb0 Tb 0.11426 0.62237 0.14165 0.0
C1 C 0.13123 0.6551 0.20198 0.0
Tb2 Tb 0.15154 0.62289 0.19074 0.0
O3 O 0.10594 0.62057 0.24937 0.0
O4 O 0.12947 0.62104 0.23392 0.0
O5 O 0.11947 0.64826 0.15905 0.0
C6 C 0.17955 0.62172 0.26401 0.0
O7 O 0.14362 0.64693 0.22806 0.0
C8 C 0.14572 0.62483 0.05047 0.0
C9 C 0.13465 0.59014 0.13105 0.0
O10 O 0.17466 0.63356 0.2266 0.0
O11 O 0.16855 0.61061 0.26106 0.0
O12 O 0.15981 0.62469 0.08291 0.0
O13 O 0.1363 0.62413 0.09837 0.0
O14 O 0.14646 0.59704 0.17315 0.0
O15 O 0.12224 0.59828 0.10496 0.0
C16 C 0.08622 0.62229 0.06775 0.0
O17 O 0.092 0.61036 0.10231 0.0
O18 O 0.09633 0.63431 0.07421 0.0
C19 C 0.12003 0.62039 0.28181 0.0
Tb20 Tb 0.60434 0.87739 0.44928 0.0
C21 C 0.62223 0.8437 0.43293 0.0
Tb22 Tb 0.64197 0.87634 0.4291 0.0
O23 O 0.59696 0.87912 0.33517 0.0
O24 O 0.6201 0.87667 0.36808 0.0
O25 O 0.61065 0.85198 0.46323 0.0
C26 C 0.67067 0.87517 0.37723 0.0
O27 O 0.6341 0.85099 0.40475 0.0
C28 C 0.63565 0.87675 0.56522 0.0
C29 C 0.62502 0.91024 0.4657 0.0
O30 O 0.66506 0.86483 0.41751 0.0
O31 O 0.65992 0.88608 0.3647 0.0
O32 O 0.64984 0.87676 0.54323 0.0
O33 O 0.62624 0.87666 0.51043 0.0
O34 O 0.63732 0.90258 0.43812 0.0
O35 O 0.61191 0.90257 0.48089 0.0
C36 C 0.57429 0.87728 0.48659 0.0
O37 O 0.58388 0.88976 0.49426 0.0
O38 O 0.58193 0.86476 0.46114 0.0
C39 C 0.61107 0.87803 0.31325 0.0
Tb40 Tb 0.40251 0.36838 0.65412 0.0
C41 C 0.3825 0.33713 0.66014 0.0
Tb42 Tb 0.36794 0.37252 0.66874 0.0
O43 O 0.40579 0.35818 0.75706 0.0
O44 O 0.38848 0.37579 0.73999 0.0
O45 O 0.39545 0.34298 0.63555 0.0
C46 C 0.33798 0.37218 0.7029 0.0
O47 O 0.37124 0.34677 0.68416 0.0
C48 C 0.37649 0.37485 0.53907 0.0
C49 C 0.38781 0.40396 0.66759 0.0
O50 O 0.34301 0.36599 0.64381 0.0
O51 O 0.34983 0.37855 0.74317 0.0
O52 O 0.36487 0.38281 0.56583 0.0
O53 O 0.38197 0.36511 0.58297 0.0
O54 O 0.37466 0.39783 0.68868 0.0
O55 O 0.39948 0.39459 0.64546 0.0
C56 C 0.43232 0.36913 0.61717 0.0
O57 O 0.41993 0.36595 0.57356 0.0
O58 O 0.42791 0.37179 0.68103 0.0
C59 C 0.39415 0.36613 0.78392 0.0
Tb60 Tb 0.88348 0.14448 0.91247 0.0
C61 C 0.91647 0.12651 0.92807 0.0
Tb62 Tb 0.88457 0.10571 0.93255 0.0
O63 O 0.88453 0.15212 0.02766 0.0
O64 O 0.88457 0.1282 0.99358 0.0
O65 O 0.90845 0.13895 0.90217 0.0
C66 C 0.88542 0.07615 0.98454 0.0
O67 O 0.90947 0.11379 0.95314 0.0
C68 C 0.88342 0.11226 0.79645 0.0
C69 C 0.85175 0.12297 0.89519 0.0
O70 O 0.89559 0.08185 0.94448 0.0
O71 O 0.87488 0.08732 0.99682 0.0
O72 O 0.88369 0.09768 0.81817 0.0
O73 O 0.88359 0.12189 0.85147 0.0
O74 O 0.85904 0.11067 0.92579 0.0
O75 O 0.85942 0.13599 0.87689 0.0
C76 C 0.88044 0.17522 0.87489 0.0
O77 O 0.86979 0.16683 0.90241 0.0
O78 O 0.89276 0.16601 0.8658 0.0
C79 C 0.88487 0.13758 0.04909 0.0
Tb80 Tb 0.11304 0.3849 0.95914 0.0
C81 C 0.12955 0.3513 0.93513 0.0
Tb82 Tb 0.14922 0.38412 0.93911 0.0
O83 O 0.10782 0.37579 0.84827 0.0
O84 O 0.12814 0.38974 0.87695 0.0
O85 O 0.11767 0.35918 0.96388 0.0
C86 C 0.17723 0.38373 0.88437 0.0
O87 O 0.1422 0.35875 0.91485 0.0
C88 C 0.1439 0.38194 0.0752 0.0
C89 C 0.13279 0.4176 0.97121 0.0
O90 O 0.16523 0.37446 0.8607 0.0
O91 O 0.17338 0.39321 0.93818 0.0
O92 O 0.15788 0.38185 0.05144 0.0
O93 O 0.13426 0.38288 1.0218 0.0
O94 O 0.14444 0.41 0.93941 0.0
O95 O 0.12035 0.40984 0.99145 0.0
C96 C 0.08403 0.38884 1.00251 0.0
O97 O 0.08953 0.39575 0.94999 0.0
O98 O 0.09488 0.37969 0.03068 0.0
C99 C 0.12081 0.38127 0.82617 0.0
Tb100 Tb 0.90076 0.8722 0.13402 0.0
C101 C 0.88133 0.83939 0.13682 0.0
Tb102 Tb 0.86316 0.87315 0.15372 0.0
O103 O 0.90829 0.87334 0.24904 0.0
O104 O 0.88497 0.87324 0.21537 0.0
O105 O 0.89357 0.84668 0.11149 0.0
C106 C 0.83439 0.87331 0.20472 0.0
O107 O 0.86962 0.84766 0.16628 0.0
C108 C 0.86949 0.87202 1.01754 0.0
C109 C 0.88168 0.9057 0.12903 0.0
O110 O 0.83957 0.86253 0.15852 0.0
O111 O 0.84559 0.884 0.22353 0.0
O112 O 0.85532 0.87287 0.03964 0.0
O113 O 0.87888 0.87187 0.07232 0.0
O114 O 0.86915 0.89916 0.15565 0.0
O115 O 0.89416 0.89701 0.10946 0.0
C116 C 0.93076 0.8712 0.09645 0.0
O117 O 0.92295 0.88428 0.1138 0.0
O118 O 0.92137 0.85871 0.09699 0.0
C119 C 0.89415 0.87362 0.27071 0.0
Tb120 Tb 0.37677 0.63681 0.4288 0.0
C121 C 0.4102 0.62198 0.46719 0.0
Tb122 Tb 0.37981 0.59877 0.45403 0.0
O123 O 0.37633 0.64552 0.54279 0.0
O124 O 0.37791 0.62138 0.51202 0.0
O125 O 0.40224 0.63355 0.43491 0.0
C126 C 0.38324 0.57046 0.51145 0.0
O127 O 0.40337 0.60875 0.48792 0.0
C128 C 0.37919 0.60447 0.31649 0.0
C129 C 0.34628 0.61404 0.42002 0.0
O130 O 0.39356 0.57712 0.47511 0.0
O131 O 0.3709 0.57977 0.51573 0.0
O132 O 0.38013 0.59007 0.33995 0.0
O133 O 0.37864 0.61419 0.37073 0.0
O134 O 0.35427 0.60231 0.45128 0.0
O135 O 0.35316 0.627 0.39726 0.0
C136 C 0.37414 0.66486 0.3688 0.0
O137 O 0.36382 0.65894 0.40745 0.0
O138 O 0.38602 0.65497 0.36387 0.0
C139 C 0.37729 0.6311 0.56621 0.0
Tb140 Tb 0.61646 0.11981 0.6337 0.0
C141 C 0.6347 0.15291 0.64992 0.0
Tb142 Tb 0.65188 0.11847 0.65918 0.0
O143 O 0.61493 0.13175 0.73982 0.0
O144 O 0.63265 0.11492 0.72207 0.0
O145 O 0.62176 0.14517 0.62098 0.0
C146 C 0.6826 0.1205 0.70871 0.0
O147 O 0.64716 0.14486 0.67657 0.0
C148 C 0.64156 0.11361 0.52448 0.0
C149 C 0.63339 0.08543 0.62601 0.0
O150 O 0.67655 0.12597 0.65022 0.0
O151 O 0.67128 0.11401 0.74001 0.0
O152 O 0.65439 0.10734 0.5525 0.0
O153 O 0.63582 0.12333 0.57063 0.0
O154 O 0.64636 0.0925 0.65894 0.0
O155 O 0.62106 0.0941 0.60325 0.0
C156 C 0.58492 0.11736 0.60282 0.0
O157 O 0.59311 0.10998 0.65113 0.0
O158 O 0.59459 0.12589 0.57003 0.0
C159 C 0.62739 0.12499 0.76795 0.0
Tb160 Tb 0.85369 0.38394 0.89087 0.0
C161 C 0.87022 0.41911 0.92528 0.0
Tb162 Tb 0.88836 0.38606 0.92619 0.0
O163 O 0.84995 0.37323 0.9901 0.0
O164 O 0.86835 0.38996 0.98612 0.0
O165 O 0.85744 0.4106 0.89865 0.0
C166 C 0.91857 0.38359 0.97517 0.0
O167 O 0.88359 0.41189 0.94611 0.0
C168 C 0.87942 0.38971 0.79216 0.0
C169 C 0.87192 0.3512 0.89829 0.0
O170 O 0.91279 0.37911 0.91136 0.0
O171 O 0.90731 0.38949 1.01215 0.0
O172 O 0.89142 0.39719 0.82702 0.0
O173 O 0.87366 0.37988 0.83144 0.0
O174 O 0.88371 0.35994 0.93271 0.0
O175 O 0.8594 0.35832 0.86772 0.0
C176 C 0.82449 0.38583 0.82813 0.0
O177 O 0.82791 0.38344 0.89441 0.0
O178 O 0.8375 0.38719 0.79705 0.0
C179 C 0.86219 0.3803 0.02507 0.0
Tb180 Tb 0.3496 0.13342 0.72539 0.0
C181 C 0.36634 0.09959 0.69708 0.0
Tb182 Tb 0.38728 0.13166 0.70396 0.0
O183 O 0.34173 0.13218 0.61082 0.0
O184 O 0.36523 0.13171 0.64359 0.0
O185 O 0.35437 0.10742 0.72599 0.0
C186 C 0.41637 0.1284 0.65749 0.0
O187 O 0.37878 0.10702 0.67459 0.0
C188 C 0.38091 0.13372 0.84092 0.0
C189 C 0.37055 0.16552 0.72405 0.0
O190 O 0.4093 0.11812 0.69336 0.0
O191 O 0.40687 0.14051 0.64622 0.0
O192 O 0.39505 0.13317 0.81875 0.0
O193 O 0.37161 0.13335 0.78585 0.0
O194 O 0.38234 0.1572 0.69624 0.0
O195 O 0.35802 0.15859 0.74879 0.0
C196 C 0.32062 0.13508 0.77471 0.0
O197 O 0.32678 0.14558 0.73675 0.0
O198 O 0.331 0.12379 0.78669 0.0
C199 C 0.35588 0.13155 0.58862 0.0
Tb200 Tb 0.64372 0.63439 0.42754 0.0
C201 C 0.62661 0.60024 0.43377 0.0
Tb202 Tb 0.60744 0.63331 0.4438 0.0
O203 O 0.64793 0.64586 0.53567 0.0
O204 O 0.62858 0.6304 0.5102 0.0
O205 O 0.63883 0.60807 0.41121 0.0
C206 C 0.57866 0.63071 0.48952 0.0
O207 O 0.61407 0.60804 0.45739 0.0
C208 C 0.61342 0.63367 0.30739 0.0
C209 C 0.62463 0.66738 0.43653 0.0
O210 O 0.58505 0.62044 0.44497 0.0
O211 O 0.58856 0.6426 0.50923 0.0
O212 O 0.59931 0.63389 0.3297 0.0
O213 O 0.62273 0.63338 0.36211 0.0
O214 O 0.6125 0.65955 0.45999 0.0
O215 O 0.63722 0.65964 0.4129 0.0
C216 C 0.67272 0.63239 0.38216 0.0
O217 O 0.66087 0.63986 0.35186 0.0
O218 O 0.66826 0.62601 0.43814 0.0
C219 C 0.63514 0.64009 0.55867 0.0
Tb220 Tb 0.13338 0.8936 0.21689 0.0
C221 C 0.16641 0.87716 0.25281 0.0
Tb222 Tb 0.13471 0.85564 0.24017 0.0
O223 O 0.13304 0.90239 0.3306 0.0
O224 O 0.13349 0.87813 0.29984 0.0
O225 O 0.15889 0.88925 0.22193 0.0
C226 C 0.13629 0.82695 0.29503 0.0
O227 O 0.1589 0.86427 0.2733 0.0
C228 C 0.135 0.86142 0.10317 0.0
C229 C 0.1017 0.87198 0.20185 0.0
O230 O 0.14733 0.8334 0.26204 0.0
O231 O 0.12431 0.83678 0.29791 0.0
O232 O 0.13534 0.84697 0.12629 0.0
O233 O 0.13453 0.87113 0.15743 0.0
O234 O 0.10912 0.85979 0.23235 0.0
O235 O 0.10927 0.88499 0.18316 0.0
C236 C 0.13082 0.92164 0.15763 0.0
O237 O 0.12004 0.9152 0.19213 0.0
O238 O 0.1432 0.91233 0.15666 0.0
C239 C 0.13322 0.88795 0.35391 0.0
Tb240 Tb 0.85386 0.62967 0.05311 0.0
C241 C 0.87032 0.59572 1.01729 0.0
Tb242 Tb 0.89103 0.62858 0.02985 0.0
O243 O 0.84546 0.62939 0.93906 0.0
O244 O 0.86907 0.62898 0.97045 0.0
O245 O 0.85813 0.60342 0.04505 0.0
C246 C 0.91931 0.6267 0.97689 0.0
O247 O 0.88314 0.60342 0.99942 0.0
C248 C 0.8853 0.62935 0.16714 0.0
C249 C 0.87416 0.66257 0.05876 0.0
O250 O 0.91245 0.61522 1.00674 0.0
O251 O 0.91011 0.63932 0.97587 0.0
O252 O 0.89937 0.6289 0.14409 0.0
O253 O 0.87586 0.62939 0.11264 0.0
O254 O 0.88607 0.65464 0.02945 0.0
O255 O 0.86164 0.655 0.08044 0.0
C256 C 0.82646 0.63005 0.11325 0.0
O257 O 0.83063 0.64022 0.06881 0.0
O258 O 0.83775 0.61966 0.12402 0.0
C259 C 0.85958 0.62907 0.91612 0.0
Tb260 Tb 0.12058 0.11203 0.88281 0.0
C261 C 0.15242 0.12985 0.86788 0.0
Tb262 Tb 0.11895 0.14729 0.86857 0.0
O263 O 0.12945 0.10718 0.77827 0.0
O264 O 0.11403 0.12657 0.79648 0.0
O265 O 0.14594 0.11719 0.89412 0.0
C266 C 0.12254 0.17832 0.843 0.0
O267 O 0.14359 0.14201 0.84541 0.0
C268 C 0.11669 0.13911 0.99913 0.0
C269 C 0.08686 0.12935 0.87731 0.0
O270 O 0.13012 0.171 0.89308 0.0
O271 O 0.11279 0.16813 0.80635 0.0
O272 O 0.10968 0.15149 0.97297 0.0
O273 O 0.12556 0.13272 0.95425 0.0
O274 O 0.09356 0.14226 0.85376 0.0
O275 O 0.09547 0.11692 0.89872 0.0
C276 C 0.11955 0.08213 0.92581 0.0
O277 O 0.11298 0.08657 0.86633 0.0
O278 O 0.12661 0.09451 0.96118 0.0
C279 C 0.12276 0.11973 0.75185 0.0
Tb280 Tb 0.63023 0.39535 0.53968 0.0
C281 C 0.66268 0.3773 0.55843 0.0
Tb282 Tb 0.63055 0.35745 0.55555 0.0
O283 O 0.64002 0.39974 0.64968 0.0
O284 O 0.62609 0.37917 0.62058 0.0
O285 O 0.65508 0.38963 0.53014 0.0
C286 C 0.63046 0.3271 0.59888 0.0
O287 O 0.65529 0.36453 0.5801 0.0
C288 C 0.63223 0.36414 0.42041 0.0
C289 C 0.59802 0.37555 0.53319 0.0
O290 O 0.64065 0.33853 0.62181 0.0
O291 O 0.62018 0.33298 0.55331 0.0
O292 O 0.63258 0.3496 0.44205 0.0
O293 O 0.63122 0.37361 0.4751 0.0
O294 O 0.60563 0.36326 0.56183 0.0
O295 O 0.60546 0.38836 0.51204 0.0
C296 C 0.62749 0.42633 0.50464 0.0
O297 O 0.62025 0.4199 0.55396 0.0
O298 O 0.63606 0.41517 0.47388 0.0
C299 C 0.63477 0.38629 0.67091 0.0
Tb300 Tb 0.36978 0.9014 0.41148 0.0
C301 C 0.33782 0.88231 0.36651 0.0
Tb302 Tb 0.37088 0.86441 0.36878 0.0
O303 O 0.37156 0.9104 0.30507 0.0
O304 O 0.37165 0.88607 0.31885 0.0
O305 O 0.34471 0.89465 0.40679 0.0
C306 C 0.36773 0.83378 0.31399 0.0
O307 O 0.34616 0.87018 0.33786 0.0
C308 C 0.37412 0.8729 0.50685 0.0
C309 C 0.40308 0.88369 0.40174 0.0
O310 O 0.35955 0.8406 0.36325 0.0
O311 O 0.37774 0.84428 0.29485 0.0
O312 O 0.38014 0.85995 0.47658 0.0
O313 O 0.36543 0.87962 0.46057 0.0
O314 O 0.39584 0.87087 0.36608 0.0
O315 O 0.39515 0.89619 0.43043 0.0
C316 C 0.36706 0.93017 0.48306 0.0
O317 O 0.37764 0.91934 0.49894 0.0
O318 O 0.35821 0.92478 0.42726 0.0
C319 C 0.37209 0.89603 0.27209 0.0
H320 H 0.11683 0.6222 0.97056 0.0
H321 H 0.11237 0.62115 0.83981 0.0
H322 H 0.16265 0.62609 0.82336 0.0
H323 H 0.16711 0.62699 0.95251 0.0
H324 H 0.12006 0.64368 0.74294 0.0
H325 H 0.15215 0.58608 0.6887 0.0
H326 H 0.14631 0.59269 0.77606 0.0
H327 H 0.16379 0.60107 0.74367 0.0
C328 C 0.12688 0.62307 0.93888 0.0
C329 C 0.14233 0.62462 0.97195 0.0
C330 C 0.12435 0.62245 0.86414 0.0
C331 C 0.13721 0.6232 0.8212 0.0
C332 C 0.15255 0.62506 0.85468 0.0
H333 H 0.1489 0.62319 0.36187 0.0
H334 H 0.15335 0.62419 0.49259 0.0
C335 C 0.15507 0.62569 0.92884 0.0
C336 C 0.13476 0.62241 0.74163 0.0
H337 H 0.14565 0.60151 0.58931 0.0
C338 C 0.12556 0.63437 0.70943 0.0
C339 C 0.14203 0.61037 0.69741 0.0
C340 C 0.1515 0.59673 0.7281 0.0
C341 C 0.12368 0.63481 0.63485 0.0
C342 C 0.13095 0.62278 0.59063 0.0
C343 C 0.14015 0.61081 0.62282 0.0
C344 C 0.12851 0.62199 0.51108 0.0
C345 C 0.1142 0.64844 0.60411 0.0
C346 C 0.11318 0.62007 0.47754 0.0
C347 C 0.11067 0.61945 0.40337 0.0
C348 C 0.12342 0.6206 0.36033 0.0
C349 C 0.13885 0.62223 0.39348 0.0
C350 C 0.14138 0.62284 0.4682 0.0
H351 H 0.11349 0.65907 0.64356 0.0
H352 H 0.11941 0.6525 0.55627 0.0
H353 H 0.10193 0.64407 0.58832 0.0
H354 H 0.10308 0.61898 0.50882 0.0
H355 H 0.09864 0.61809 0.37966 0.0
H356 H 0.63993 0.87443 0.25313 0.0
H357 H 0.64454 0.87494 0.12596 0.0
H358 H 0.59463 0.88258 0.07706 0.0
H359 H 0.59012 0.88249 0.20245 0.0
H360 H 0.63203 0.85493 1.01011 0.0
H361 H 0.6135 0.91836 0.97551 0.0
H362 H 0.61761 0.91083 0.06204 0.0
H363 H 0.59871 0.90684 1.01331 0.0
C364 C 0.63005 0.87647 0.2152 0.0
C365 C 0.61472 0.87865 0.23796 0.0
C366 C 0.63265 0.87668 0.14254 0.0
C367 C 0.61997 0.87916 0.09181 0.0
C368 C 0.60469 0.88112 0.11494 0.0
H369 H 0.6067 0.87839 0.62505 0.0
H370 H 0.60233 0.8785 0.75283 0.0
C371 C 0.60212 0.88096 0.1869 0.0
C372 C 0.62234 0.87908 1.0143 0.0
H373 H 0.6153 0.90111 0.86897 0.0
C374 C 0.62851 0.86509 0.97944 0.0
C375 C 0.61762 0.89227 0.97381 0.0
C376 C 0.61164 0.90798 1.00818 0.0
C377 C 0.62979 0.86383 0.90541 0.0
C378 C 0.62494 0.87696 0.86495 0.0
C379 C 0.61882 0.89095 0.89973 0.0
C380 C 0.62723 0.87683 0.78747 0.0
C381 C 0.63608 0.84829 0.87084 0.0
C382 C 0.6426 0.87614 0.76466 0.0
C383 C 0.64507 0.87616 0.69254 0.0
C384 C 0.63224 0.8769 0.64106 0.0
C385 C 0.61679 0.87775 0.66352 0.0
C386 C 0.61431 0.87782 0.73638 0.0
H387 H 0.63512 0.83795 0.90468 0.0
H388 H 0.62964 0.84505 0.81828 0.0
H389 H 0.6488 0.85001 0.86244 0.0
H390 H 0.65276 0.87571 0.80289 0.0
H391 H 0.65713 0.87557 0.67711 0.0
H392 H 0.36338 0.394 0.44033 0.0
H393 H 0.36645 0.39218 0.31254 0.0
H394 H 0.39938 0.35276 0.33662 0.0
H395 H 0.39607 0.35433 0.46495 0.0
H396 H 0.39247 0.39564 0.23719 0.0
H397 H 0.3673 0.33333 0.18162 0.0
H398 H 0.36562 0.34506 0.26528 0.0
H399 H 0.38382 0.33487 0.24727 0.0
C400 C 0.37129 0.38494 0.41848 0.0
C401 C 0.3794 0.37422 0.46261 0.0
C402 C 0.37305 0.38392 0.34535 0.0
C403 C 0.38291 0.37214 0.31451 0.0
C404 C 0.39142 0.36171 0.35883 0.0
H405 H 0.40742 0.34709 0.88281 0.0
H406 H 0.40427 0.34886 1.01055 0.0
C407 C 0.38964 0.3627 0.43224 0.0
C408 C 0.38421 0.37091 0.23608 0.0
H409 H 0.37802 0.34523 0.08558 0.0
C410 C 0.38927 0.38463 0.20403 0.0
C411 C 0.37997 0.35656 0.19263 0.0
C412 C 0.37373 0.34165 0.22317 0.0
C413 C 0.3905 0.38431 0.13015 0.0
C414 C 0.38629 0.36996 0.08672 0.0
C415 C 0.38122 0.35624 0.11875 0.0
C416 C 0.38761 0.36873 1.00832 0.0
C417 C 0.3967 0.39923 0.09954 0.0
C418 C 0.37902 0.37907 0.96391 0.0
C419 C 0.38084 0.3781 0.89053 0.0
C420 C 0.39121 0.3667 0.86033 0.0
C421 C 0.3994 0.35607 0.90455 0.0
C422 C 0.3976 0.35705 0.97764 0.0
H423 H 0.40306 0.40761 0.14109 0.0
H424 H 0.40487 0.39583 0.05765 0.0
H425 H 0.38661 0.40594 0.07511 0.0
H426 H 0.37096 0.38794 0.98601 0.0
H427 H 0.37432 0.3864 0.85772 0.0
H428 H 0.88331 0.09031 0.68341 0.0
H429 H 0.8837 0.09498 0.55806 0.0
H430 H 0.88323 0.14681 0.6109 0.0
H431 H 0.88311 0.14212 0.73814 0.0
H432 H 0.8625 0.10981 0.47031 0.0
H433 H 0.92055 0.14192 0.48722 0.0
H434 H 0.914 0.13121 0.5595 0.0
H435 H 0.90639 0.15106 0.54386 0.0
C436 C 0.88332 0.10274 0.66861 0.0
C437 C 0.88325 0.11586 0.72075 0.0
C438 C 0.88351 0.10538 0.59667 0.0
C439 C 0.88369 0.12123 0.57464 0.0
C440 C 0.88341 0.13446 0.62653 0.0
H441 H 0.88451 0.1594 0.16232 0.0
H442 H 0.88425 0.15463 0.28762 0.0
C443 C 0.88324 0.13179 0.69915 0.0
C444 C 0.88405 0.12359 0.49721 0.0
H445 H 0.90601 0.13976 0.37501 0.0
C446 C 0.87203 0.11635 0.4495 0.0
C447 C 0.89654 0.132 0.46974 0.0
C448 C 0.91019 0.13938 0.51751 0.0
C449 C 0.872 0.11753 0.3756 0.0
C450 C 0.88447 0.12597 0.34816 0.0
C451 C 0.89649 0.13321 0.39584 0.0
C452 C 0.88477 0.1284 0.2708 0.0
C453 C 0.8584 0.11009 0.32772 0.0
C454 C 0.88533 0.11522 0.21885 0.0
C455 C 0.88546 0.11794 0.14628 0.0
C456 C 0.8851 0.13388 0.12474 0.0
C457 C 0.88477 0.14696 0.177 0.0
C458 C 0.88464 0.14426 0.24892 0.0
H459 H 0.8481 0.10732 0.35798 0.0
H460 H 0.85446 0.11834 0.28623 0.0
H461 H 0.86232 0.09853 0.30067 0.0
H462 H 0.88575 0.10286 0.23441 0.0
H463 H 0.88589 0.10766 0.10735 0.0
H464 H 0.11552 0.37768 0.13543 0.0
H465 H 0.11133 0.37783 0.26302 0.0
H466 H 0.1612 0.38679 0.31484 0.0
H467 H 0.16542 0.38651 0.18828 0.0
H468 H 0.13054 0.35634 0.36916 0.0
H469 H 0.1356 0.42321 0.43458 0.0
H470 H 0.12945 0.41447 0.34615 0.0
H471 H 0.14987 0.41378 0.3788 0.0
C472 C 0.12552 0.37979 0.17404 0.0
C473 C 0.14076 0.38216 0.15164 0.0
C474 C 0.12315 0.37982 0.24694 0.0
C475 C 0.13594 0.38247 0.29861 0.0
C476 C 0.15113 0.38488 0.27614 0.0
H477 H 0.14636 0.3939 0.76551 0.0
H478 H 0.15055 0.39357 0.63802 0.0
C479 C 0.15351 0.38466 0.20364 0.0
C480 C 0.13369 0.3823 0.37605 0.0
H481 H 0.13416 0.4068 0.53077 0.0
C482 C 0.1312 0.36737 0.40451 0.0
C483 C 0.13489 0.39665 0.42232 0.0
C484 C 0.13752 0.413 0.39431 0.0
C485 C 0.13006 0.36637 0.47801 0.0
C486 C 0.13092 0.38078 0.52446 0.0
C487 C 0.13348 0.39572 0.49571 0.0
C488 C 0.12872 0.38067 0.60237 0.0
C489 C 0.12844 0.34976 0.5052 0.0
C490 C 0.11503 0.37369 0.62538 0.0
C491 C 0.11277 0.37367 0.69791 0.0
C492 C 0.12395 0.38093 0.74968 0.0
C493 C 0.13758 0.38812 0.72701 0.0
C494 C 0.13994 0.38798 0.65407 0.0
H495 H 0.13334 0.34013 0.46884 0.0
H496 H 0.13458 0.34921 0.55893 0.0
H497 H 0.11569 0.34694 0.50827 0.0
H498 H 0.10592 0.36842 0.58711 0.0
H499 H 0.10205 0.36817 0.71338 0.0
H500 H 0.89852 0.87263 0.9587 0.0
H501 H 0.90292 0.8734 0.83131 0.0
H502 H 0.8524 0.87211 0.77963 0.0
H503 H 0.84801 0.87156 0.90505 0.0
H504 H 0.89318 0.85121 0.71456 0.0
H505 H 0.86567 0.91129 0.67979 0.0
H506 H 0.87124 0.90432 0.76629 0.0
H507 H 0.85301 0.89744 0.7181 0.0
C508 C 0.88842 0.87256 0.91994 0.0
C509 C 0.87294 0.87216 0.94186 0.0
C510 C 0.89091 0.87301 0.84728 0.0
C511 C 0.87796 0.87317 0.79584 0.0
C512 C 0.86257 0.87244 0.81811 0.0
H513 H 0.86508 0.87191 0.32889 0.0
H514 H 0.8606 0.87146 0.45628 0.0
C515 C 0.8601 0.87201 0.89004 0.0
C516 C 0.88027 0.87368 0.71858 0.0
H517 H 0.87027 0.89502 0.57356 0.0
C518 C 0.88829 0.86087 0.6839 0.0
C519 C 0.87374 0.88619 0.67817 0.0
C520 C 0.86556 0.90067 0.71255 0.0
C521 C 0.88973 0.86007 0.61003 0.0
C522 C 0.88317 0.87255 0.56964 0.0
C523 C 0.87515 0.88537 0.60428 0.0
C524 C 0.8855 0.87305 0.49246 0.0
C525 C 0.89804 0.84569 0.57556 0.0
C526 C 0.90087 0.87445 0.47064 0.0
C527 C 0.90338 0.87479 0.3987 0.0
C528 C 0.8906 0.87383 0.34642 0.0
C529 C 0.87513 0.87272 0.36795 0.0
C530 C 0.87259 0.87242 0.44062 0.0
H531 H 0.89835 0.83516 0.6089 0.0
H532 H 0.89216 0.84183 0.52244 0.0
H533 H 0.91046 0.84918 0.56843 0.0
H534 H 0.91099 0.87532 0.50947 0.0
H535 H 0.91546 0.87575 0.38402 0.0
H536 H 0.37562 0.653 0.67958 0.0
H537 H 0.37614 0.64818 0.80547 0.0
H538 H 0.38 0.59658 0.75232 0.0
H539 H 0.37984 0.60148 0.62552 0.0
H540 H 0.35597 0.63129 0.87694 0.0
H541 H 0.41581 0.60413 0.90603 0.0
H542 H 0.40891 0.61431 0.82855 0.0
H543 H 0.40268 0.59378 0.83813 0.0
C544 C 0.37667 0.6406 0.69458 0.0
C545 C 0.37771 0.62761 0.6424 0.0
C546 C 0.37692 0.63786 0.7668 0.0
C547 C 0.3783 0.62204 0.78914 0.0
C548 C 0.37925 0.60895 0.73699 0.0
H549 H 0.38105 0.58255 0.2034 0.0
H550 H 0.38048 0.58728 0.07742 0.0
C551 C 0.37903 0.61172 0.66434 0.0
C552 C 0.37842 0.61943 0.86681 0.0
H553 H 0.40041 0.6041 1.00545 0.0
C554 C 0.36572 0.62538 0.90499 0.0
C555 C 0.39113 0.61176 0.90398 0.0
C556 C 0.40548 0.60575 0.86738 0.0
C557 C 0.36524 0.62361 0.9784 0.0
C558 C 0.37796 0.61596 1.0156 0.0
C559 C 0.39065 0.61001 0.9774 0.0
C560 C 0.3781 0.6134 0.09334 0.0
C561 C 0.35086 0.6296 1.01493 0.0
C562 C 0.37704 0.6265 0.14531 0.0
C563 C 0.37727 0.62378 0.21801 0.0
C564 C 0.37874 0.60793 0.24022 0.0
C565 C 0.37989 0.59492 0.18822 0.0
C566 C 0.37961 0.59761 0.11594 0.0
H567 H 0.34052 0.63112 0.97624 0.0
H568 H 0.34749 0.62108 0.05402 0.0
H569 H 0.35361 0.64162 0.04381 0.0
H570 H 0.37619 0.63885 0.12981 0.0
H571 H 0.37633 0.63403 0.25663 0.0
H572 H 0.61512 0.14497 0.87 0.0
H573 H 0.61797 0.14313 0.99867 0.0
H574 H 0.64936 0.10235 0.97067 0.0
H575 H 0.64671 0.10431 0.84141 0.0
H576 H 0.60935 0.11691 0.06959 0.0
H577 H 0.67337 0.13102 0.12897 0.0
H578 H 0.6628 0.13517 0.04585 0.0
H579 H 0.66918 0.11485 0.0609 0.0
C580 C 0.62282 0.13575 0.89132 0.0
C581 C 0.63069 0.12477 0.84575 0.0
C582 C 0.62439 0.13469 0.96485 0.0
C583 C 0.63394 0.12267 0.99447 0.0
C584 C 0.64214 0.1119 0.94917 0.0
H585 H 0.65404 0.09382 0.4225 0.0
H586 H 0.65117 0.09568 0.29386 0.0
C587 C 0.6406 0.113 0.87534 0.0
C588 C 0.63454 0.12096 0.07231 0.0
H589 H 0.65957 0.12175 0.22289 0.0
C590 C 0.62032 0.11803 0.10321 0.0
C591 C 0.64886 0.1224 0.11608 0.0
C592 C 0.66441 0.12618 0.08655 0.0
C593 C 0.62006 0.11624 0.17641 0.0
C594 C 0.63438 0.11769 0.2202 0.0
C595 C 0.6486 0.12063 0.18929 0.0
C596 C 0.63499 0.11597 0.29804 0.0
C597 C 0.60451 0.11242 0.20586 0.0
C598 C 0.62667 0.12662 0.34336 0.0
C599 C 0.6282 0.1255 0.41717 0.0
C600 C 0.63824 0.11383 0.44673 0.0
C601 C 0.64624 0.10296 0.40117 0.0
C602 C 0.64466 0.10404 0.32766 0.0
H603 H 0.5956 0.1075 0.16342 0.0
H604 H 0.60614 0.10348 0.24675 0.0
H605 H 0.59968 0.12375 0.23123 0.0
H606 H 0.61935 0.13611 0.32188 0.0
H607 H 0.62199 0.13409 0.45114 0.0
H608 H 0.84751 0.36203 0.1146 0.0
H609 H 0.85049 0.36386 0.24463 0.0
H610 H 0.88628 0.40112 0.24323 0.0
H611 H 0.88315 0.3995 0.11269 0.0
H612 H 0.87648 0.35919 0.33861 0.0
H613 H 0.85488 0.42263 0.37459 0.0
H614 H 0.85251 0.41069 0.29032 0.0
H615 H 0.87128 0.42009 0.31991 0.0
C616 C 0.85605 0.37059 0.14196 0.0
C617 C 0.86501 0.38072 0.10348 0.0
C618 C 0.85774 0.37162 0.21633 0.0
C619 C 0.86838 0.38284 0.25392 0.0
C620 C 0.87773 0.39263 0.21552 0.0
H621 H 0.89361 0.40823 0.70205 0.0
H622 H 0.89051 0.40628 0.57206 0.0
C623 C 0.87603 0.3916 0.14093 0.0
C624 C 0.8696 0.38421 0.33319 0.0
H625 H 0.86477 0.41057 0.47851 0.0
C626 C 0.87388 0.37041 0.36921 0.0
C627 C 0.86616 0.39884 0.37318 0.0
C628 C 0.86081 0.41388 0.3377 0.0
C629 C 0.87512 0.37092 0.44397 0.0
C630 C 0.87168 0.38555 0.48399 0.0
C631 C 0.86738 0.39935 0.44793 0.0
C632 C 0.87296 0.38697 0.56329 0.0
C633 C 0.88052 0.35589 0.47936 0.0
C634 C 0.86386 0.37702 0.60204 0.0
C635 C 0.86565 0.37808 0.67662 0.0
C636 C 0.8765 0.3892 0.71375 0.0
C637 C 0.88521 0.39949 0.67495 0.0
C638 C 0.88344 0.3984 0.60059 0.0
H639 H 0.88654 0.34721 0.44251 0.0
H640 H 0.88876 0.35909 0.52694 0.0
H641 H 0.87006 0.34958 0.49676 0.0
H642 H 0.85542 0.36837 0.57461 0.0
H643 H 0.85874 0.37004 0.70509 0.0
H644 H 0.38492 0.13182 0.52951 0.0
H645 H 0.38937 0.1326 0.40225 0.0
H646 H 0.33887 0.13139 0.35018 0.0
H647 H 0.33444 0.13081 0.47565 0.0
H648 H 0.37959 0.11055 0.28423 0.0
H649 H 0.35235 0.17088 0.25203 0.0
H650 H 0.35792 0.16371 0.33816 0.0
H651 H 0.33968 0.15692 0.28972 0.0
C652 C 0.37483 0.13175 0.49074 0.0
C653 C 0.35934 0.13139 0.5127 0.0
C654 C 0.37736 0.1322 0.41809 0.0
C655 C 0.36443 0.13242 0.36651 0.0
C656 C 0.34903 0.13167 0.38872 0.0
H657 H 0.35187 0.13357 0.90013 0.0
H658 H 0.34743 0.13287 0.0274 0.0
C659 C 0.34653 0.13122 0.4607 0.0
C660 C 0.3668 0.1331 0.28925 0.0
H661 H 0.35721 0.15498 0.1454 0.0
C662 C 0.37481 0.12035 0.25404 0.0
C663 C 0.36043 0.14577 0.24939 0.0
C664 C 0.35224 0.16018 0.2843 0.0
C665 C 0.37637 0.11976 0.18024 0.0
C666 C 0.37 0.13244 0.14038 0.0
C667 C 0.36199 0.14519 0.17559 0.0
C668 C 0.37236 0.13311 0.06312 0.0
C669 C 0.38455 0.10536 0.14531 0.0
C670 C 0.38776 0.13387 0.0409 0.0
C671 C 0.39026 0.13426 0.96889 0.0
C672 C 0.37745 0.13402 0.91688 0.0
C673 C 0.36196 0.13367 0.93887 0.0
C674 C 0.35944 0.13328 1.01155 0.0
H675 H 0.38447 0.09466 0.17763 0.0
H676 H 0.37885 0.10181 0.09151 0.0
H677 H 0.3971 0.10862 0.13976 0.0
H678 H 0.39792 0.13418 0.07945 0.0
H679 H 0.40236 0.13465 0.95393 0.0
H680 H 0.64179 0.62855 0.24548 0.0
H681 H 0.64664 0.63034 0.1194 0.0
H682 H 0.5976 0.64251 0.07356 0.0
H683 H 0.59283 0.64097 0.19849 0.0
H684 H 0.63141 0.61254 0.99573 0.0
H685 H 0.62157 0.67886 0.98797 0.0
H686 H 0.62532 0.66927 0.07019 0.0
H687 H 0.60588 0.6683 1.02448 0.0
C688 C 0.63216 0.63188 0.20865 0.0
C689 C 0.61701 0.6349 0.23224 0.0
C690 C 0.63489 0.63276 0.13649 0.0
C691 C 0.62253 0.63683 0.08696 0.0
C692 C 0.6074 0.63968 0.11069 0.0
H693 H 0.6136 0.62212 0.62225 0.0
H694 H 0.61074 0.62118 0.75023 0.0
C695 C 0.60468 0.63872 0.18227 0.0
C696 C 0.62516 0.6378 1.01014 0.0
H697 H 0.62194 0.66351 0.87616 0.0
C698 C 0.62946 0.62371 0.96967 0.0
C699 C 0.62271 0.65239 0.97599 0.0
C700 C 0.61876 0.66812 1.01691 0.0
C701 C 0.63097 0.62372 0.89592 0.0
C702 C 0.62794 0.63818 0.86132 0.0
C703 C 0.62406 0.65236 0.90222 0.0
C704 C 0.6292 0.63899 0.78322 0.0
C705 C 0.63599 0.60829 0.8558 0.0
C706 C 0.64012 0.6497 0.75871 0.0
C707 C 0.64171 0.6503 0.68575 0.0
C708 C 0.63233 0.6403 0.6354 0.0
C709 C 0.62104 0.62993 0.65971 0.0
C710 C 0.61949 0.62928 0.7329 0.0
H711 H 0.64161 0.59963 0.8921 0.0
H712 H 0.62541 0.60223 0.827 0.0
H713 H 0.64445 0.61098 0.81608 0.0
H714 H 0.64766 0.6574 0.79621 0.0
H715 H 0.65048 0.65845 0.66878 0.0
H716 H 0.13504 0.85837 0.41404 0.0
H717 H 0.13507 0.85379 0.54139 0.0
H718 H 0.13226 0.90554 0.59243 0.0
H719 H 0.13203 0.91009 0.46646 0.0
H720 H 0.15626 0.86535 0.65666 0.0
H721 H 0.09592 0.88867 0.69607 0.0
H722 H 0.10272 0.88366 0.60892 0.0
H723 H 0.10828 0.90272 0.65723 0.0
C724 C 0.13433 0.8687 0.45252 0.0
C725 C 0.13339 0.88457 0.43009 0.0
C726 C 0.13437 0.8661 0.52531 0.0
C727 C 0.13335 0.8793 0.57676 0.0
C728 C 0.13266 0.89511 0.55407 0.0
H729 H 0.13286 0.89106 0.04352 0.0
H730 H 0.133 0.8958 0.91642 0.0
C731 C 0.13264 0.8977 0.48182 0.0
C732 C 0.1334 0.87677 0.65432 0.0
H733 H 0.1123 0.88442 0.80081 0.0
C734 C 0.14658 0.86941 0.68801 0.0
C735 C 0.12087 0.8822 0.69576 0.0
C736 C 0.10608 0.88962 0.66263 0.0
C737 C 0.14771 0.8676 0.76174 0.0
C738 C 0.13516 0.87298 0.80317 0.0
C739 C 0.12198 0.88036 0.76947 0.0
C740 C 0.13517 0.87036 0.88066 0.0
C741 C 0.16254 0.86025 0.79484 0.0
C742 C 0.13605 0.85453 0.90311 0.0
C743 C 0.13601 0.85185 0.97525 0.0
C744 C 0.13497 0.86491 0.02713 0.0
C745 C 0.13383 0.88078 1.00495 0.0
C746 C 0.13386 0.88348 0.93228 0.0
H747 H 0.17272 0.8614 0.7617 0.0
H748 H 0.1658 0.8661 0.84884 0.0
H749 H 0.16045 0.84709 0.79952 0.0
H750 H 0.13664 0.84415 0.86462 0.0
H751 H 0.13677 0.83945 0.99038 0.0
H752 H 0.8382 0.62983 0.8028 0.0
H753 H 0.84292 0.62981 0.6771 0.0
H754 H 0.89332 0.62839 0.73065 0.0
H755 H 0.88858 0.62818 0.85752 0.0
H756 H 0.85895 0.65186 0.60737 0.0
H757 H 0.88689 0.59111 0.57595 0.0
H758 H 0.87647 0.59765 0.65284 0.0
H759 H 0.89631 0.60476 0.64515 0.0
C760 C 0.85032 0.62944 0.78795 0.0
C761 C 0.86303 0.62895 0.84017 0.0
C762 C 0.85299 0.62947 0.71588 0.0
C763 C 0.86846 0.62892 0.69381 0.0
C764 C 0.88125 0.62852 0.74595 0.0
H765 H 0.90665 0.62728 0.27973 0.0
H766 H 0.90207 0.62757 0.40561 0.0
C767 C 0.87856 0.6285 0.81853 0.0
C768 C 0.87097 0.62903 0.61633 0.0
H769 H 0.88613 0.60696 0.47678 0.0
C770 C 0.86488 0.64202 0.57882 0.0
C771 C 0.87864 0.61619 0.57869 0.0
C772 C 0.88484 0.60155 0.61487 0.0
C773 C 0.86652 0.64269 0.50545 0.0
C774 C 0.87416 0.62982 0.46769 0.0
C775 C 0.88023 0.61682 0.50528 0.0
C776 C 0.87661 0.62986 0.39003 0.0
C777 C 0.8604 0.65742 0.46965 0.0
C778 C 0.86383 0.63098 0.33831 0.0
C779 C 0.86647 0.63096 0.26567 0.0
C780 C 0.8819 0.62957 0.24328 0.0
C781 C 0.8946 0.62835 0.29505 0.0
C782 C 0.89199 0.62847 0.36727 0.0
H783 H 0.85887 0.66796 0.50876 0.0
H784 H 0.86855 0.66107 0.43026 0.0
H785 H 0.84867 0.65447 0.44129 0.0
H786 H 0.8518 0.63175 0.35394 0.0
H787 H 0.85648 0.63207 0.22732 0.0
H788 H 0.14073 0.10499 0.65337 0.0
H789 H 0.13985 0.10863 0.52614 0.0
H790 H 0.10323 0.14453 0.55002 0.0
H791 H 0.10429 0.14113 0.67821 0.0
H792 H 0.11511 0.10307 0.42639 0.0
H793 H 0.13412 0.16772 0.43757 0.0
H794 H 0.13622 0.15588 0.51404 0.0
H795 H 0.11732 0.16433 0.48725 0.0
C796 C 0.13257 0.11377 0.63165 0.0
C797 C 0.12257 0.12278 0.67568 0.0
C798 C 0.13207 0.11581 0.55885 0.0
C799 C 0.12159 0.12695 0.52837 0.0
C800 C 0.11164 0.13609 0.5724 0.0
H801 H 0.09834 0.15308 0.0979 0.0
H802 H 0.09947 0.14934 0.2251 0.0
C803 C 0.11219 0.13409 0.64557 0.0
C804 C 0.12078 0.12848 0.4502 0.0
H805 H 0.12489 0.15545 0.3243 0.0
C806 C 0.11732 0.11451 0.40407 0.0
C807 C 0.12368 0.1434 0.42097 0.0
C808 C 0.12819 0.15866 0.46742 0.0
C809 C 0.11638 0.11512 0.32974 0.0
C810 C 0.11922 0.13005 0.30056 0.0
C811 C 0.12271 0.14401 0.34665 0.0
C812 C 0.11827 0.13161 0.22244 0.0
C813 C 0.11199 0.09984 0.28315 0.0
C814 C 0.12845 0.12285 0.17825 0.0
C815 C 0.1278 0.12495 0.10514 0.0
C816 C 0.11703 0.13593 0.07522 0.0
C817 C 0.10679 0.14455 0.11944 0.0
C818 C 0.10743 0.14244 0.19221 0.0
H819 H 0.10639 0.09059 0.31312 0.0
H820 H 0.10373 0.10258 0.23724 0.0
H821 H 0.12287 0.09446 0.26213 0.0
H822 H 0.13712 0.11464 0.2005 0.0
H823 H 0.13593 0.11826 0.07246 0.0
H824 H 0.62801 0.39359 0.36002 0.0
H825 H 0.62855 0.39834 0.23298 0.0
H826 H 0.63821 0.3475 0.18481 0.0
H827 H 0.63787 0.34282 0.31026 0.0
H828 H 0.65768 0.3676 0.11912 0.0
H829 H 0.59443 0.38456 0.07176 0.0
H830 H 0.60554 0.3963 0.14286 0.0
H831 H 0.60189 0.37507 0.15034 0.0
C832 C 0.63034 0.38351 0.32221 0.0
C833 C 0.63294 0.36785 0.34516 0.0
C834 C 0.6305 0.38618 0.24956 0.0
C835 C 0.63325 0.37322 0.19896 0.0
C836 C 0.63604 0.35769 0.22247 0.0
H837 H 0.61728 0.36396 0.73417 0.0
H838 H 0.61698 0.36057 0.86238 0.0
C839 C 0.63583 0.35503 0.29441 0.0
C840 C 0.63349 0.37554 0.1215 0.0
H841 H 0.61035 0.38515 0.97443 0.0
C842 C 0.64734 0.37151 0.08762 0.0
C843 C 0.61993 0.38038 0.07995 0.0
C844 C 0.60453 0.38421 0.11266 0.0
C845 C 0.64803 0.37225 1.01384 0.0
C846 C 0.63457 0.37733 0.97246 0.0
C847 C 0.62067 0.38128 1.0061 0.0
C848 C 0.63488 0.37902 0.89456 0.0
C849 C 0.66311 0.36728 0.98052 0.0
C850 C 0.64502 0.39045 0.86994 0.0
C851 C 0.6452 0.39239 0.79718 0.0
C852 C 0.63521 0.38296 0.74709 0.0
C853 C 0.62517 0.37134 0.77146 0.0
C854 C 0.62493 0.36946 0.84466 0.0
H855 H 0.67079 0.35985 1.01553 0.0
H856 H 0.66047 0.36021 0.92856 0.0
H857 H 0.66987 0.37835 0.97108 0.0
H858 H 0.65266 0.39811 0.90722 0.0
H859 H 0.65303 0.40149 0.78017 0.0
H860 H 0.3668 0.91777 0.17341 0.0
H861 H 0.36653 0.91336 0.04443 0.0
H862 H 0.37783 0.86279 0.06382 0.0
H863 H 0.37742 0.86711 0.19384 0.0
H864 H 0.38869 0.90528 0.96172 0.0
H865 H 0.34206 0.85757 0.91446 0.0
H866 H 0.34602 0.86876 0.99973 0.0
H867 H 0.35833 0.85187 0.97354 0.0
C868 C 0.36911 0.90566 0.15026 0.0
C869 C 0.37205 0.89276 0.1938 0.0
C870 C 0.36899 0.90315 0.07628 0.0
C871 C 0.37193 0.88768 0.04355 0.0
C872 C 0.37508 0.87475 0.08715 0.0
H873 H 0.38785 0.85474 0.608 0.0
H874 H 0.38704 0.85881 0.7371 0.0
C875 C 0.37497 0.87723 0.16159 0.0
C876 C 0.37212 0.88547 0.96422 0.0
H877 H 0.35642 0.86304 0.81532 0.0
C878 C 0.38153 0.89609 0.92992 0.0
C879 C 0.36275 0.87355 0.92199 0.0
C880 C 0.3516 0.8624 0.95417 0.0
C881 C 0.38195 0.89501 0.85543 0.0
C882 C 0.3728 0.88295 0.81367 0.0
C883 C 0.36343 0.87229 0.84752 0.0
C884 C 0.37328 0.88084 0.73491 0.0
C885 C 0.39238 0.90657 0.82163 0.0
C886 C 0.36581 0.89193 0.69049 0.0
C887 C 0.36614 0.88956 0.61616 0.0
C888 C 0.37405 0.87613 0.58522 0.0
C889 C 0.38166 0.86522 0.63007 0.0
C890 C 0.38118 0.86749 0.70395 0.0
H891 H 0.40014 0.91403 0.86172 0.0
H892 H 0.39993 0.89971 0.78431 0.0
H893 H 0.38485 0.91489 0.7904 0.0
H894 H 0.35958 0.90229 0.71328 0.0
H895 H 0.36013 0.89814 0.58302 0.0
H896 H 0.10874 0.67675 0.15777 0.0
H897 H 0.10834 0.7061 0.1884 0.0
H898 H 0.15151 0.7027 0.32272 0.0
H899 H 0.15204 0.67337 0.29316 0.0
H900 H 0.12677 0.72324 0.38189 0.0
H901 H 0.14108 0.73678 0.10993 0.0
H902 H 0.12434 0.72356 0.11474 0.0
H903 H 0.14386 0.71691 0.1426 0.0
C904 C 0.11812 0.6822 0.1941 0.0
C905 C 0.13051 0.67272 0.22242 0.0
C906 C 0.11786 0.69896 0.21148 0.0
C907 C 0.12997 0.70648 0.25725 0.0
C908 C 0.14207 0.69704 0.28728 0.0
H909 H 0.16063 0.80579 0.28892 0.0
H910 H 0.15907 0.77624 0.29127 0.0
C911 C 0.14237 0.6803 0.26993 0.0
C912 C 0.13054 0.72431 0.27101 0.0
H913 H 0.13667 0.75917 0.191 0.0
C914 C 0.12888 0.73115 0.34031 0.0
C915 C 0.13348 0.73445 0.21654 0.0
C916 C 0.13592 0.72762 0.14181 0.0
C917 C 0.13003 0.74804 0.35651 0.0
C918 C 0.13286 0.75816 0.30187 0.0
C919 C 0.13449 0.75129 0.23265 0.0
C920 C 0.13444 0.77597 0.31465 0.0
C921 C 0.12856 0.75494 0.43187 0.0
C922 C 0.12122 0.78554 0.32937 0.0
C923 C 0.1221 0.80245 0.32823 0.0
C924 C 0.13617 0.80987 0.31177 0.0
C925 C 0.14965 0.80033 0.30161 0.0
C926 C 0.14877 0.78349 0.30286 0.0
H927 H 0.12929 0.74534 0.47007 0.0
H928 H 0.13799 0.76416 0.44801 0.0
H929 H 0.11695 0.76108 0.43526 0.0
H930 H 0.11001 0.77989 0.33763 0.0
H931 H 0.11154 0.80958 0.33589 0.0
H932 H 0.55616 0.90361 0.5247 0.0
H933 H 0.52712 0.90518 0.51804 0.0
H934 H 0.52392 0.85422 0.44679 0.0
H935 H 0.55285 0.85255 0.45491 0.0
H936 H 0.5064 0.90007 0.40261 0.0
H937 H 0.49278 0.85624 0.59716 0.0
H938 H 0.51255 0.86399 0.59114 0.0
H939 H 0.50482 0.8475 0.53026 0.0
C940 C 0.54925 0.89267 0.50909 0.0
C941 C 0.55682 0.87791 0.49104 0.0
C942 C 0.53263 0.89359 0.50487 0.0
C943 C 0.52321 0.87977 0.48281 0.0
C944 C 0.53081 0.86498 0.4657 0.0
H945 H 0.42352 0.85904 0.36618 0.0
H946 H 0.4524 0.85882 0.38619 0.0
C947 C 0.5474 0.86405 0.47013 0.0
C948 C 0.50551 0.88098 0.4738 0.0
H949 H 0.47108 0.86396 0.51875 0.0
C950 C 0.4987 0.89228 0.42866 0.0
C951 C 0.49535 0.87083 0.50753 0.0
C952 C 0.50174 0.85907 0.55978 0.0
C953 C 0.48214 0.89338 0.41488 0.0
C954 C 0.47202 0.88303 0.44763 0.0
C955 C 0.47881 0.87185 0.4933 0.0
C956 C 0.45439 0.88344 0.43454 0.0
C957 C 0.47561 0.90529 0.3637 0.0
C958 C 0.44577 0.89735 0.45534 0.0
C959 C 0.42918 0.89751 0.44416 0.0
C960 C 0.42078 0.88378 0.41178 0.0
C961 C 0.42949 0.86989 0.39087 0.0
C962 C 0.44606 0.86971 0.40249 0.0
H963 H 0.48487 0.90972 0.33113 0.0
H964 H 0.46581 0.89967 0.32752 0.0
H965 H 0.47078 0.91597 0.39414 0.0
H966 H 0.45187 0.90802 0.48116 0.0
H967 H 0.42293 0.90841 0.46132 0.0
H968 H 0.40396 0.31314 0.6302 0.0
H969 H 0.40106 0.28396 0.64295 0.0
H970 H 0.35423 0.29196 0.71343 0.0
H971 H 0.35689 0.32099 0.70033 0.0
H972 H 0.39501 0.26958 0.7711 0.0
H973 H 0.3477 0.2547 0.55552 0.0
H974 H 0.35949 0.2731 0.56057 0.0
H975 H 0.34349 0.27157 0.61704 0.0
C976 C 0.39299 0.30867 0.64769 0.0
C977 C 0.38066 0.3194 0.6641 0.0
C978 C 0.39137 0.29202 0.65509 0.0
C979 C 0.37736 0.28584 0.67834 0.0
C980 C 0.36501 0.29647 0.69423 0.0
H981 H 0.34771 0.18781 0.75862 0.0
H982 H 0.34912 0.21742 0.75397 0.0
C983 C 0.36662 0.31309 0.68703 0.0
C984 C 0.37588 0.26835 0.68899 0.0
H985 H 0.35453 0.23401 0.63234 0.0
C986 C 0.3862 0.26177 0.74067 0.0
C987 C 0.36425 0.2583 0.64966 0.0
C988 C 0.35317 0.2647 0.59214 0.0
C989 C 0.38518 0.24534 0.75427 0.0
C990 C 0.37371 0.23522 0.7142 0.0
C991 C 0.36325 0.24185 0.66317 0.0
C992 C 0.37306 0.21751 0.72113 0.0
C993 C 0.39628 0.23898 0.81182 0.0
C994 C 0.38602 0.20784 0.704 0.0
C995 C 0.38527 0.19102 0.7066 0.0
C996 C 0.37148 0.18347 0.72597 0.0
C997 C 0.35853 0.19322 0.74386 0.0
C998 C 0.35929 0.21012 0.74107 0.0
H999 H 0.40096 0.24895 0.85071 0.0
H1000 H 0.39028 0.22982 0.8408 0.0
H1001 H 0.40651 0.23305 0.78727 0.0
H1002 H 0.39663 0.21328 0.68713 0.0
H1003 H 0.39549 0.18393 0.69234 0.0
H1004 H 0.93539 0.15044 0.88495 0.0
H1005 H 0.96409 0.15036 0.87816 0.0
H1006 H 0.96664 0.10329 0.9627 0.0
H1007 H 0.93784 0.10313 0.96892 0.0
H1008 H 0.98859 0.14858 0.98242 0.0
H1009 H 0.99038 0.09557 0.78374 0.0
H1010 H 0.97218 0.10579 0.80301 0.0
H1011 H 0.98077 0.09157 0.86208 0.0
C1012 C 0.94198 0.14002 0.9022 0.0
C1013 C 0.93414 0.12674 0.92719 0.0
C1014 C 0.95847 0.14002 0.89828 0.0
C1015 C 0.96759 0.12671 0.91871 0.0
C1016 C 0.95988 0.11356 0.94507 0.0
H1017 H 0.06882 0.10509 0.92345 0.0
H1018 H 0.04022 0.10469 0.93457 0.0
C1019 C 0.94337 0.11355 0.94912 0.0
C1020 C 0.98515 0.12674 0.9129 0.0
H1021 H 0.01511 0.10623 0.83377 0.0
C1022 C 0.99437 0.13934 0.94974 0.0
C1023 C 0.99277 0.11468 0.87035 0.0
C1024 C 0.98353 0.10121 0.82697 0.0
C1025 C 0.01093 0.14009 0.94607 0.0
C1026 C 0.01855 0.12809 0.90316 0.0
C1027 C 0.00934 0.11544 0.86662 0.0
C1028 C 0.03604 0.12842 0.89564 0.0
C1029 C 0.02016 0.15355 0.98958 0.0
C1030 C 0.04332 0.14177 0.8689 0.0
C1031 C 0.05974 0.14205 0.86244 0.0
C1032 C 0.06931 0.12893 0.88217 0.0
C1033 C 0.06192 0.11546 0.90783 0.0
C1034 C 0.04551 0.11519 0.91422 0.0
H1035 H 0.01344 0.15889 0.03384 0.0
H1036 H 0.03169 0.14907 1.01219 0.0
H1037 H 0.02257 0.16339 0.95496 0.0
H1038 H 0.03628 0.15198 0.85259 0.0
H1039 H 0.06493 0.1526 0.84214 0.0
H1040 H 0.15212 0.33025 0.88796 0.0
H1041 H 0.14949 0.30087 0.86139 0.0
H1042 H 0.10145 0.30266 0.92312 0.0
H1043 H 0.10401 0.33197 0.95117 0.0
H1044 H 0.11855 0.27857 0.98162 0.0
H1045 H 0.12512 0.27647 0.69166 0.0
H1046 H 0.14115 0.28694 0.7439 0.0
H1047 H 0.12145 0.29513 0.7442 0.0
C1048 C 0.14097 0.32441 0.89588 0.0
C1049 C 0.12826 0.33347 0.9216 0.0
C1050 C 0.13946 0.30765 0.88 0.0
C1051 C 0.12516 0.2997 0.88879 0.0
C1052 C 0.11253 0.30864 0.91536 0.0
H1053 H 0.10291 0.19715 0.7623 0.0
H1054 H 0.1028 0.22709 0.76773 0.0
C1055 C 0.11405 0.32538 0.93163 0.0
C1056 C 0.12364 0.28191 0.87379 0.0
H1057 H 0.12723 0.25104 0.74503 0.0
C1058 C 0.12029 0.27256 0.92971 0.0
C1059 C 0.12569 0.27416 0.80573 0.0
C1060 C 0.12839 0.2837 0.74273 0.0
C1061 C 0.1195 0.25558 0.92012 0.0
C1062 C 0.12243 0.2478 0.8532 0.0
C1063 C 0.12518 0.25712 0.79644 0.0
C1064 C 0.1234 0.22995 0.84283 0.0
C1065 C 0.11566 0.24609 0.98187 0.0
C1066 C 0.13537 0.22185 0.88107 0.0
C1067 C 0.13543 0.20495 0.87819 0.0
C1068 C 0.12359 0.19589 0.83653 0.0
C1069 C 0.11214 0.20394 0.79479 0.0
C1070 C 0.11205 0.22095 0.79794 0.0
H1071 H 0.10963 0.25377 1.02243 0.0
H1072 H 0.10798 0.23542 0.96361 0.0
H1073 H 0.12683 0.24158 1.00785 0.0
H1074 H 0.14438 0.22864 0.91495 0.0
H1075 H 0.14446 0.19898 0.9104 0.0
H1076 H 0.08165 0.84588 0.20931 0.0
H1077 H 0.05285 0.84472 0.1831 0.0
H1078 H 0.05302 0.89514 0.13725 0.0
H1079 H 0.08173 0.89628 0.16118 0.0
H1080 H 0.02934 0.86059 0.24374 0.0
H1081 H 0.02771 0.87601 0.96383 0.0
H1082 H 0.04588 0.87102 1.01324 0.0
H1083 H 0.0379 0.89124 1.0232 0.0
C1084 C 0.07559 0.8567 0.19322 0.0
C1085 C 0.08413 0.87112 0.1868 0.0
C1086 C 0.05907 0.85602 0.17822 0.0
C1087 C 0.05069 0.86973 0.15651 0.0
C1088 C 0.05917 0.88422 0.15156 0.0
H1089 H 0.95163 0.89658 0.09775 0.0
H1090 H 0.98069 0.89552 0.10898 0.0
C1091 C 0.07566 0.88487 0.16587 0.0
C1092 C 0.03306 0.86908 0.1414 0.0
H1093 H 0.00302 0.87736 1.0178 0.0
C1094 C 0.02362 0.86409 0.19398 0.0
C1095 C 0.02547 0.87363 0.07644 0.0
C1096 C 0.03477 0.87811 1.01571 0.0
C1097 C 0.00695 0.86396 0.18425 0.0
C1098 C 0.99942 0.86884 0.12001 0.0
C1099 C 0.00879 0.87368 0.06715 0.0
C1100 C 0.98181 0.86929 0.10759 0.0
C1101 C 0.99746 0.859 0.24354 0.0
C1102 C 0.97275 0.85488 0.10087 0.0
C1103 C 0.95613 0.85544 0.09363 0.0
C1104 C 0.94824 0.87045 0.09329 0.0
C1105 C 0.95735 0.88483 0.09757 0.0
C1106 C 0.97396 0.88425 0.10421 0.0
H1107 H 0.0049 0.85841 0.29425 0.0
H1108 H 0.98765 0.86767 0.25243 0.0
H1109 H 0.99214 0.84679 0.22851 0.0
H1110 H 0.97853 0.84319 0.10246 0.0
H1111 H 0.94946 0.84415 0.09076 0.0
H1112 H 0.35039 0.68657 0.38245 0.0
H1113 H 0.35 0.71471 0.34983 0.0
H1114 H 0.39528 0.70792 0.2618 0.0
H1115 H 0.39576 0.67963 0.29445 0.0
H1116 H 0.37784 0.73655 0.4063 0.0
H1117 H 0.36463 0.73267 0.11209 0.0
H1118 H 0.35797 0.71717 0.16583 0.0
H1119 H 0.37854 0.71869 0.15087 0.0
C1120 C 0.36013 0.69098 0.35505 0.0
C1121 C 0.37315 0.68103 0.34127 0.0
C1122 C 0.35987 0.70701 0.33636 0.0
C1123 C 0.37256 0.71326 0.30316 0.0
C1124 C 0.38531 0.70318 0.28667 0.0
H1125 H 0.38918 0.81599 0.24008 0.0
H1126 H 0.39099 0.78613 0.22779 0.0
C1127 C 0.38559 0.6871 0.30555 0.0
C1128 C 0.37316 0.73081 0.29372 0.0
H1129 H 0.3674 0.75896 0.17124 0.0
C1130 C 0.37568 0.74147 0.3549 0.0
C1131 C 0.37049 0.73706 0.22645 0.0
C1132 C 0.3677 0.72589 0.15972 0.0
C1133 C 0.37522 0.75832 0.35088 0.0
C1134 C 0.37184 0.76462 0.28402 0.0
C1135 C 0.36989 0.754 0.22233 0.0
C1136 C 0.36945 0.78221 0.27902 0.0
C1137 C 0.37811 0.76928 0.41839 0.0
C1138 C 0.35642 0.78969 0.30917 0.0
C1139 C 0.35543 0.80658 0.31655 0.0
C1140 C 0.36739 0.81624 0.29336 0.0
C1141 C 0.37983 0.80875 0.25832 0.0
C1142 C 0.38087 0.79177 0.25128 0.0
H1143 H 0.38426 0.76281 0.46181 0.0
H1144 H 0.38531 0.78009 0.40917 0.0
H1145 H 0.36657 0.77363 0.43644 0.0
H1146 H 0.34744 0.78244 0.33025 0.0
H1147 H 0.34566 0.81208 0.34332 0.0
H1148 H 0.56444 0.09861 0.66539 0.0
H1149 H 0.53561 0.10083 0.6635 0.0
H1150 H 0.5368 0.13984 0.52458 0.0
H1151 H 0.56573 0.13735 0.52496 0.0
H1152 H 0.51898 0.12641 0.71196 0.0
H1153 H 0.50096 0.11246 0.42551 0.0
H1154 H 0.52065 0.1085 0.46351 0.0
H1155 H 0.51513 0.12877 0.44306 0.0
C1156 C 0.55854 0.10747 0.63339 0.0
C1157 C 0.56734 0.11774 0.59497 0.0
C1158 C 0.54204 0.10877 0.63255 0.0
C1159 C 0.53391 0.1204 0.59337 0.0
C1160 C 0.54268 0.13052 0.55396 0.0
H1161 H 0.43364 0.14961 0.58792 0.0
H1162 H 0.46213 0.1483 0.56947 0.0
C1163 C 0.55924 0.12914 0.55439 0.0
C1164 C 0.51645 0.12244 0.59776 0.0
H1165 H 0.48075 0.12168 0.49911 0.0
C1166 C 0.51066 0.12534 0.6653 0.0
C1167 C 0.5055 0.12115 0.53698 0.0
C1168 C 0.51082 0.1174 0.4632 0.0
C1169 C 0.49435 0.1269 0.67376 0.0
C1170 C 0.48342 0.12541 0.61318 0.0
C1171 C 0.48915 0.12284 0.54549 0.0
C1172 C 0.46598 0.12581 0.61989 0.0
C1173 C 0.48892 0.13021 0.74765 0.0
C1174 C 0.45862 0.11343 0.65276 0.0
C1175 C 0.44242 0.11411 0.66291 0.0
C1176 C 0.43319 0.1272 0.64047 0.0
C1177 C 0.44045 0.13938 0.60574 0.0
C1178 C 0.45671 0.13864 0.59522 0.0
H1179 H 0.49876 0.1348 0.78632 0.0
H1180 H 0.47919 0.13923 0.74792 0.0
H1181 H 0.48435 0.11875 0.76591 0.0
H1182 H 0.46548 0.10331 0.67141 0.0
H1183 H 0.43719 0.10452 0.68971 0.0
H1184 H 0.85593 0.19527 0.90493 0.0
H1185 H 0.85483 0.2249 0.90366 0.0
H1186 H 0.90163 0.2254 0.82839 0.0
H1187 H 0.90278 0.19559 0.82949 0.0
H1188 H 0.87527 0.2476 0.98184 0.0
H1189 H 0.876 0.25404 0.69202 0.0
H1190 H 0.87145 0.235 0.72749 0.0
H1191 H 0.89164 0.24189 0.72965 0.0
C1192 C 0.86592 0.20164 0.88713 0.0
C1193 C 0.87941 0.19304 0.8669 0.0
C1194 C 0.86529 0.21862 0.88672 0.0
C1195 C 0.87808 0.22747 0.86546 0.0
C1196 C 0.8915 0.21889 0.84399 0.0
H1197 H 0.89471 0.33215 0.96128 0.0
H1198 H 0.89636 0.30245 0.95315 0.0
C1199 C 0.89216 0.20184 0.8447 0.0
C1200 C 0.87752 0.24567 0.86893 0.0
H1201 H 0.87775 0.27837 0.76771 0.0
C1202 C 0.87584 0.25431 0.93498 0.0
C1203 C 0.87808 0.2545 0.8078 0.0
C1204 C 0.87926 0.24594 0.73503 0.0
C1205 C 0.87486 0.27142 0.94166 0.0
C1206 C 0.8757 0.28028 0.88076 0.0
C1207 C 0.87722 0.27164 0.81455 0.0
C1208 C 0.87483 0.29846 0.88474 0.0
C1209 C 0.8726 0.27988 1.01378 0.0
C1210 C 0.86233 0.30626 0.84793 0.0
C1211 C 0.86133 0.32332 0.85249 0.0
C1212 C 0.8729 0.33303 0.89345 0.0
C1213 C 0.88552 0.32515 0.92947 0.0
C1214 C 0.88646 0.30811 0.92514 0.0
H1215 H 0.86841 0.27133 0.05112 0.0
H1216 H 0.88408 0.28517 0.03693 0.0
H1217 H 0.86395 0.28993 1.00941 0.0
H1218 H 0.85322 0.29913 0.8162 0.0
H1219 H 0.85148 0.32888 0.82372 0.0
H1220 H 0.64442 0.82211 0.38366 0.0
H1221 H 0.64429 0.79242 0.38378 0.0
H1222 H 0.59981 0.79419 0.48091 0.0
H1223 H 0.59974 0.82385 0.4804 0.0
H1224 H 0.64406 0.77303 0.49752 0.0
H1225 H 0.59045 0.76041 0.31395 0.0
H1226 H 0.60039 0.77993 0.32346 0.0
H1227 H 0.58732 0.77452 0.38865 0.0
C1228 C 0.63453 0.81623 0.40464 0.0
C1229 C 0.62204 0.82551 0.43167 0.0
C1230 C 0.6345 0.79919 0.40481 0.0
C1231 C 0.62193 0.79094 0.43137 0.0
C1232 C 0.60949 0.80016 0.45868 0.0
H1233 H 0.60143 0.68833 0.48181 0.0
H1234 H 0.60097 0.71806 0.4822 0.0
C1235 C 0.60953 0.8172 0.45871 0.0
C1236 C 0.62208 0.77277 0.43228 0.0
H1237 H 0.60129 0.73807 0.37253 0.0
C1238 C 0.63473 0.76539 0.46989 0.0
C1239 C 0.6099 0.76272 0.39658 0.0
C1240 C 0.59631 0.76975 0.35281 0.0
C1241 C 0.63542 0.74839 0.47374 0.0
C1242 C 0.62328 0.73832 0.43771 0.0
C1243 C 0.6106 0.7457 0.40029 0.0
C1244 C 0.62362 0.72012 0.43755 0.0
C1245 C 0.64898 0.74141 0.51793 0.0
C1246 C 0.63637 0.71121 0.41141 0.0
C1247 C 0.63669 0.69419 0.41124 0.0
C1248 C 0.62419 0.68554 0.43672 0.0
C1249 C 0.61131 0.69448 0.462 0.0
C1250 C 0.61102 0.71154 0.46217 0.0
H1251 H 0.6545 0.7507 0.55801 0.0
H1252 H 0.64498 0.73097 0.54595 0.0
H1253 H 0.65823 0.73706 0.48262 0.0
H1254 H 0.64607 0.71742 0.39044 0.0
H1255 H 0.64677 0.68781 0.39078 0.0
H1256 H 0.89762 0.68293 1.02308 0.0
H1257 H 0.89878 0.71264 0.03791 0.0
H1258 H 0.85382 0.71346 0.13087 0.0
H1259 H 0.85242 0.68372 0.11542 0.0
H1260 H 0.85539 0.73615 0.03205 0.0
H1261 H 0.90902 0.74134 0.2198 0.0
H1262 H 0.91192 0.72932 0.13865 0.0
H1263 H 0.89831 0.72242 0.1987 0.0
C1264 C 0.88797 0.68937 0.04698 0.0
C1265 C 0.87495 0.68077 0.06831 0.0
C1266 C 0.88871 0.70643 0.05587 0.0
C1267 C 0.87653 0.7154 0.08674 0.0
C1268 C 0.86343 0.70688 0.10733 0.0
H1269 H 0.85806 0.81949 0.17785 0.0
H1270 H 0.85673 0.78975 0.16639 0.0
C1271 C 0.86267 0.68981 0.09851 0.0
C1272 C 0.87725 0.73362 0.09598 0.0
H1273 H 0.8998 0.76579 0.17248 0.0
C1274 C 0.86506 0.74262 0.06314 0.0
C1275 C 0.88986 0.74216 0.13644 0.0
C1276 C 0.90295 0.73334 0.17601 0.0
C1277 C 0.8653 0.75978 0.06826 0.0
C1278 C 0.87794 0.76832 0.10849 0.0
C1279 C 0.89011 0.75932 0.14151 0.0
C1280 C 0.87883 0.78654 0.1166 0.0
C1281 C 0.8522 0.76861 0.0288 0.0
C1282 C 0.89191 0.79481 0.09446 0.0
C1283 C 0.89276 0.81188 0.10134 0.0
C1284 C 0.8806 0.82118 0.13108 0.0
C1285 C 0.86764 0.81284 0.15433 0.0
C1286 C 0.86679 0.79576 0.14735 0.0
H1287 H 0.84593 0.76055 0.98576 0.0
H1288 H 0.84339 0.77288 0.0665 0.0
H1289 H 0.85689 0.77938 1.00514 0.0
H1290 H 0.90141 0.78803 0.07097 0.0
H1291 H 0.90297 0.81777 0.08296 0.0
H1292 H 0.65845 0.17418 0.70692 0.0
H1293 H 0.65866 0.20401 0.70849 0.0
H1294 H 0.61238 0.20256 0.59599 0.0
H1295 H 0.61193 0.173 0.59519 0.0
H1296 H 0.6568 0.2243 0.59926 0.0
H1297 H 0.60545 0.23533 0.76042 0.0
H1298 H 0.61512 0.21585 0.75247 0.0
H1299 H 0.60077 0.22152 0.68368 0.0
C1300 C 0.64827 0.18021 0.68287 0.0
C1301 C 0.63512 0.17108 0.65144 0.0
C1302 C 0.64842 0.1973 0.68373 0.0
C1303 C 0.6354 0.20565 0.65364 0.0
C1304 C 0.6224 0.19652 0.62133 0.0
H1305 H 0.60923 0.30291 0.55394 0.0
H1306 H 0.6113 0.27386 0.57178 0.0
C1307 C 0.62223 0.17952 0.62054 0.0
C1308 C 0.63544 0.22384 0.65403 0.0
H1309 H 0.61373 0.25765 0.69807 0.0
C1310 C 0.64749 0.23161 0.62169 0.0
C1311 C 0.62332 0.23348 0.68333 0.0
C1312 C 0.61053 0.22615 0.72256 0.0
C1313 C 0.64739 0.24855 0.61533 0.0
C1314 C 0.63503 0.2581 0.64293 0.0
C1315 C 0.62318 0.25038 0.67662 0.0
C1316 C 0.63375 0.27597 0.63462 0.0
C1317 C 0.6602 0.25602 0.57666 0.0
C1318 C 0.64552 0.287 0.66522 0.0
C1319 C 0.6443 0.30371 0.65537 0.0
C1320 C 0.6313 0.30971 0.61474 0.0
C1321 C 0.61939 0.2987 0.58554 0.0
C1322 C 0.62057 0.28206 0.59565 0.0
H1323 H 0.66681 0.24667 0.54554 0.0
H1324 H 0.65509 0.26487 0.54004 0.0
H1325 H 0.66877 0.26264 0.61596 0.0
H1326 H 0.65567 0.2827 0.6966 0.0
H1327 H 0.65367 0.31187 0.67853 0.0
H1328 H 0.94217 0.37121 0.89949 0.0
H1329 H 0.97052 0.37193 0.93388 0.0
H1330 H 0.96163 0.39551 0.13858 0.0
H1331 H 0.93301 0.395 0.10375 0.0
H1332 H 0.98467 0.41101 0.07178 0.0
H1333 H 0.99714 0.34522 0.06933 0.0
H1334 H 0.98628 0.3501 0.9887 0.0
H1335 H 0.97731 0.35322 0.07201 0.0
C1336 C 0.94623 0.37636 0.95218 0.0
C1337 C 0.93547 0.38302 0.99912 0.0
C1338 C 0.96241 0.37666 0.97196 0.0
C1339 C 0.96813 0.38349 0.03925 0.0
C1340 C 0.9574 0.39003 0.08669 0.0
H1341 H 0.07123 0.375 0.11144 0.0
H1342 H 0.0433 0.37518 0.13807 0.0
C1343 C 0.94112 0.38972 0.06685 0.0
C1344 C 0.98542 0.38485 0.05678 0.0
H1345 H 0.01928 0.36264 0.05058 0.0
C1346 C 0.99226 0.40043 0.06879 0.0
C1347 C 0.99529 0.37103 0.05406 0.0
C1348 C 0.9886 0.35395 0.04608 0.0
C1349 C 0.00875 0.40261 0.07294 0.0
C1350 C 0.01856 0.38885 0.06355 0.0
C1351 C 0.01175 0.37321 0.05685 0.0
C1352 C 0.03566 0.39036 0.05368 0.0
C1353 C 0.01547 0.41964 0.08556 0.0
C1354 C 0.04059 0.39888 0.99768 0.0
C1355 C 0.05648 0.39884 0.98268 0.0
C1356 C 0.06764 0.3901 1.02283 0.0
C1357 C 0.0628 0.38184 0.07979 0.0
C1358 C 0.0469 0.38195 0.09504 0.0
H1359 H 0.00752 0.42771 0.11632 0.0
H1360 H 0.02738 0.41976 0.11464 0.0
H1361 H 0.01654 0.42477 0.0336 0.0
H1362 H 0.03207 0.40506 0.96378 0.0
H1363 H 0.05991 0.40521 0.93819 0.0
H1364 H 0.42878 0.64685 0.43162 0.0
H1365 H 0.45759 0.64934 0.44852 0.0
H1366 H 0.45991 0.60422 0.54968 0.0
H1367 H 0.43105 0.60159 0.5336 0.0
H1368 H 0.48006 0.6308 0.61871 0.0
H1369 H 0.4866 0.61895 0.32887 0.0
H1370 H 0.4731 0.6349 0.35297 0.0
H1371 H 0.46862 0.61426 0.36901 0.0
C1372 C 0.43536 0.63747 0.45784 0.0
C1373 C 0.42758 0.62393 0.48066 0.0
C1374 C 0.45183 0.63893 0.46736 0.0
C1375 C 0.46082 0.62689 0.49966 0.0
C1376 C 0.45312 0.61363 0.52455 0.0
H1377 H 0.55875 0.60509 0.45867 0.0
H1378 H 0.53023 0.60436 0.47005 0.0
C1379 C 0.43664 0.61213 0.51502 0.0
C1380 C 0.4783 0.62772 0.50431 0.0
H1381 H 0.50983 0.62576 0.40209 0.0
C1382 C 0.48662 0.62972 0.57151 0.0
C1383 C 0.48673 0.62614 0.4425 0.0
C1384 C 0.47837 0.62331 0.36918 0.0
C1385 C 0.50326 0.63028 0.57845 0.0
C1386 C 0.51167 0.6289 0.51652 0.0
C1387 C 0.50331 0.62688 0.44944 0.0
C1388 C 0.52917 0.62887 0.51932 0.0
C1389 C 0.51174 0.63196 0.65171 0.0
C1390 C 0.53807 0.6428 0.54479 0.0
C1391 C 0.55445 0.64322 0.53867 0.0
C1392 C 0.56203 0.62976 0.50639 0.0
C1393 C 0.55318 0.61564 0.48363 0.0
C1394 C 0.5369 0.61521 0.49002 0.0
H1395 H 0.50374 0.62946 0.69359 0.0
H1396 H 0.52196 0.62355 0.65506 0.0
H1397 H 0.51638 0.64457 0.66287 0.0
H1398 H 0.53226 0.65356 0.56657 0.0
H1399 H 0.56104 0.65427 0.55616 0.0
H1400 H 0.45865 0.37346 0.7073 0.0
H1401 H 0.48606 0.37575 0.67698 0.0
H1402 H 0.47062 0.36984 0.45374 0.0
H1403 H 0.44305 0.36713 0.48409 0.0
H1404 H 0.49641 0.35144 0.48627 0.0
H1405 H 0.50683 0.41451 0.60264 0.0
H1406 H 0.49981 0.40167 0.66606 0.0
H1407 H 0.48725 0.40558 0.5881 0.0
C1408 C 0.4611 0.37268 0.65175 0.0
C1409 C 0.44879 0.3702 0.59794 0.0
C1410 C 0.47674 0.37412 0.63449 0.0
C1411 C 0.48033 0.37337 0.56311 0.0
C1412 C 0.46806 0.37062 0.50915 0.0
H1413 H 0.57756 0.39764 0.47541 0.0
H1414 H 0.54858 0.39727 0.47106 0.0
C1415 C 0.45237 0.36906 0.52647 0.0
C1416 C 0.497 0.37485 0.54551 0.0
H1417 H 0.53011 0.39863 0.5818 0.0
C1418 C 0.50374 0.36186 0.50622 0.0
C1419 C 0.50647 0.38859 0.57037 0.0
C1420 C 0.49967 0.40345 0.60846 0.0
C1421 C 0.51991 0.36185 0.4944 0.0
C1422 C 0.52961 0.37504 0.52397 0.0
C1423 C 0.52269 0.38842 0.55994 0.0
C1424 C 0.54707 0.37478 0.52217 0.0
C1425 C 0.52644 0.34765 0.45088 0.0
C1426 C 0.55582 0.36233 0.55279 0.0
C1427 C 0.57233 0.36246 0.55515 0.0
C1428 C 0.58048 0.37518 0.52772 0.0
C1429 C 0.57168 0.38765 0.49693 0.0
C1430 C 0.55512 0.38746 0.49436 0.0
H1431 H 0.51709 0.34168 0.4132 0.0
H1432 H 0.53629 0.35151 0.42023 0.0
H1433 H 0.53102 0.33845 0.48696 0.0
H1434 H 0.54989 0.35266 0.57636 0.0
H1435 H 0.57869 0.35271 0.57972 0.0
H1436 H 0.07052 0.64834 1.01602 0.0
H1437 H 0.04201 0.64996 0.98147 0.0
H1438 H 0.03659 0.59911 1.01412 0.0
H1439 H 0.06491 0.59747 0.04938 0.0
H1440 H 0.02021 0.63105 0.87619 0.0
H1441 H 0.00845 0.62412 0.15721 0.0
H1442 H 0.0278 0.62924 0.13097 0.0
H1443 H 0.02077 0.60854 0.11926 0.0
C1444 C 0.06326 0.63747 1.01453 0.0
C1445 C 0.06981 0.62283 0.03606 0.0
C1446 C 0.04703 0.63841 0.99479 0.0
C1447 C 0.03722 0.62472 0.99641 0.0
C1448 C 0.04396 0.60986 1.01354 0.0
H1449 H 0.93886 0.60076 0.97745 0.0
H1450 H 0.96759 0.60094 0.97146 0.0
C1451 C 0.06012 0.60893 0.03349 0.0
C1452 C 0.0198 0.62613 0.98618 0.0
H1453 H 0.98624 0.62234 0.07271 0.0
C1454 C 0.01274 0.62927 0.9191 0.0
C1455 C 0.01016 0.62397 0.04265 0.0
C1456 C 0.01715 0.62143 0.1168 0.0
C1457 C 0.99615 0.62965 0.90637 0.0
C1458 C 0.98656 0.62694 0.96234 0.0
C1459 C 0.99367 0.62424 0.02975 0.0
C1460 C 0.96906 0.62644 0.95278 0.0
C1461 C 0.98897 0.63244 0.83297 0.0
C1462 C 0.96035 0.64065 0.94237 0.0
C1463 C 0.94388 0.64057 0.94567 0.0
C1464 C 0.936 0.62631 0.95995 0.0
C1465 C 0.94466 0.61193 0.96647 0.0
C1466 C 0.96105 0.612 0.96307 0.0
H1467 H 0.99792 0.63164 0.79284 0.0
H1468 H 0.97938 0.62341 0.81635 0.0
H1469 H 0.98362 0.64473 0.83372 0.0
H1470 H 0.96637 0.65196 0.93542 0.0
H1471 H 0.93745 0.65184 0.94086 0.0
H1472 H 0.11273 0.57116 0.04893 0.0
H1473 H 0.11366 0.54183 1.01985 0.0
H1474 H 0.15909 0.53983 0.13849 0.0
H1475 H 0.15826 0.56913 0.16877 0.0
H1476 H 0.13686 0.52323 0.94931 0.0
H1477 H 0.13131 0.50646 0.22561 0.0
H1478 H 0.12691 0.52657 0.19839 0.0
H1479 H 0.14712 0.52045 0.21523 0.0
C1480 C 0.12294 0.56453 0.06893 0.0
C1481 C 0.13537 0.57249 0.11167 0.0
C1482 C 0.12345 0.54778 0.05208 0.0
C1483 C 0.13634 0.53873 0.07783 0.0
C1484 C 0.14892 0.54663 0.11918 0.0
H1485 H 0.15669 0.43804 0.94331 0.0
H1486 H 0.15803 0.4676 0.96735 0.0
C1487 C 0.14844 0.56338 0.1362 0.0
C1488 C 0.13649 0.52097 0.0618 0.0
H1489 H 0.13548 0.48499 0.13891 0.0
C1490 C 0.13659 0.51483 0.9906 0.0
C1491 C 0.13597 0.51016 0.11604 0.0
C1492 C 0.13519 0.51618 0.1931 0.0
C1493 C 0.1362 0.49803 0.97207 0.0
C1494 C 0.13591 0.48723 0.02642 0.0
C1495 C 0.13581 0.49338 0.0976 0.0
C1496 C 0.13509 0.46946 1.01055 0.0
C1497 C 0.13571 0.49199 0.89456 0.0
C1498 C 0.12186 0.4608 0.02806 0.0
C1499 C 0.12108 0.44395 1.01488 0.0
C1500 C 0.13357 0.43547 0.98414 0.0
C1501 C 0.14684 0.44421 0.96669 0.0
C1502 C 0.1476 0.46109 0.98004 0.0
H1503 H 0.1325 0.5018 0.85909 0.0
H1504 H 0.14757 0.48738 0.88214 0.0
H1505 H 0.12705 0.48183 0.88254 0.0
H1506 H 0.11212 0.46711 0.05189 0.0
H1507 H 0.1107 0.4376 0.029 0.0
H1508 H 0.685 0.89748 0.30203 0.0
H1509 H 0.7128 0.89811 0.27309 0.0
H1510 H 0.72141 0.85362 0.37515 0.0
H1511 H 0.69377 0.85309 0.40498 0.0
H1512 H 0.74454 0.87649 0.41546 0.0
H1513 H 0.73421 0.87032 0.1214 0.0
H1514 H 0.72401 0.88704 0.16375 0.0
H1515 H 0.71886 0.86652 0.17937 0.0
C1516 C 0.6928 0.88776 0.31764 0.0
C1517 C 0.68717 0.87519 0.35543 0.0
C1518 C 0.70869 0.8881 0.30089 0.0
C1519 C 0.71923 0.87581 0.32117 0.0
C1520 C 0.71356 0.86323 0.35875 0.0
H1521 H 0.81065 0.85143 0.16547 0.0
H1522 H 0.7831 0.8526 0.19633 0.0
C1523 C 0.69772 0.86291 0.37553 0.0
C1524 C 0.73624 0.87614 0.30492 0.0
H1525 H 0.76063 0.87547 0.16851 0.0
C1526 C 0.74806 0.87629 0.36144 0.0
C1527 C 0.74089 0.87571 0.23442 0.0
C1528 C 0.72886 0.87474 0.17112 0.0
C1529 C 0.76429 0.87604 0.3495 0.0
C1530 C 0.76894 0.8759 0.27907 0.0
C1531 C 0.75712 0.87572 0.22256 0.0
C1532 C 0.78593 0.87519 0.26244 0.0
C1533 C 0.77631 0.87545 0.41236 0.0
C1534 C 0.79683 0.8875 0.28922 0.0
C1535 C 0.81268 0.8868 0.27183 0.0
C1536 C 0.81791 0.87384 0.22695 0.0
C1537 C 0.80701 0.86155 0.2004 0.0
C1538 C 0.79122 0.86224 0.21781 0.0
H1539 H 0.77086 0.8715 0.4599 0.0
H1540 H 0.78611 0.86703 0.3997 0.0
H1541 H 0.78145 0.88778 0.42619 0.0
H1542 H 0.79302 0.8978 0.32262 0.0
H1543 H 0.82077 0.89652 0.29259 0.0
H1544 H 0.41214 0.42128 0.62151 0.0
H1545 H 0.41305 0.45049 0.6074 0.0
H1546 H 0.36721 0.45607 0.69129 0.0
H1547 H 0.36624 0.42698 0.7065 0.0
H1548 H 0.39093 0.46648 0.52126 0.0
H1549 H 0.39308 0.49331 0.80014 0.0
H1550 H 0.39773 0.47226 0.77744 0.0
H1551 H 0.37743 0.47865 0.77735 0.0
C1552 C 0.40235 0.42875 0.63804 0.0
C1553 C 0.3891 0.42178 0.66502 0.0
C1554 C 0.4029 0.44543 0.62991 0.0
C1555 C 0.39028 0.45543 0.6491 0.0
C1556 C 0.37722 0.4486 0.67756 0.0
H1557 H 0.36174 0.55406 0.5801 0.0
H1558 H 0.36398 0.52613 0.61637 0.0
C1559 C 0.37665 0.43194 0.68573 0.0
C1560 C 0.39013 0.47272 0.63358 0.0
H1561 H 0.38745 0.51147 0.7094 0.0
C1562 C 0.39033 0.47633 0.56241 0.0
C1563 C 0.38921 0.48549 0.68745 0.0
C1564 C 0.38949 0.48229 0.76498 0.0
C1565 C 0.3893 0.4924 0.54336 0.0
C1566 C 0.38834 0.50518 0.59718 0.0
C1567 C 0.3882 0.5016 0.66842 0.0
C1568 C 0.38744 0.52234 0.58007 0.0
C1569 C 0.38885 0.49554 0.46565 0.0
C1570 C 0.40005 0.52949 0.54945 0.0
C1571 C 0.39878 0.54533 0.52867 0.0
C1572 C 0.38492 0.55428 0.53863 0.0
C1573 C 0.37253 0.54735 0.5717 0.0
C1574 C 0.3738 0.53146 0.59244 0.0
H1575 H 0.38584 0.48436 0.43056 0.0
H1576 H 0.38006 0.50508 0.45288 0.0
H1577 H 0.40068 0.49987 0.45336 0.0
H1578 H 0.41077 0.52271 0.54066 0.0
H1579 H 0.40854 0.55045 0.50369 0.0
H1580 H 0.83031 0.10133 0.93899 0.0
H1581 H 0.80151 0.1002 0.91058 0.0
H1582 H 0.80465 0.14136 0.78508 0.0
H1583 H 0.8333 0.1427 0.81324 0.0
H1584 H 0.7783 0.12787 0.934 0.0
H1585 H 0.78043 0.10419 0.65164 0.0
H1586 H 0.79668 0.10187 0.71766 0.0
H1587 H 0.79328 0.12116 0.68147 0.0
C1588 C 0.8249 0.11013 0.90525 0.0
C1589 C 0.83423 0.12209 0.87841 0.0
C1590 C 0.80842 0.10949 0.88919 0.0
C1591 C 0.80093 0.12061 0.84522 0.0
C1592 C 0.81017 0.13255 0.81856 0.0
H1593 H 0.70643 0.13628 0.65237 0.0
H1594 H 0.73479 0.1363 0.68918 0.0
C1595 C 0.82659 0.13332 0.83503 0.0
C1596 C 0.78347 0.11991 0.82734 0.0
H1597 H 0.75542 0.11233 0.68884 0.0
C1598 C 0.77326 0.12437 0.88056 0.0
C1599 C 0.77692 0.11546 0.75751 0.0
C1600 C 0.78733 0.11028 0.69863 0.0
C1601 C 0.7567 0.12492 0.86541 0.0
C1602 C 0.75009 0.12043 0.7954 0.0
C1603 C 0.76038 0.11579 0.74248 0.0
C1604 C 0.73264 0.12077 0.77523 0.0
C1605 C 0.74654 0.13092 0.92408 0.0
C1606 C 0.72182 0.11202 0.81096 0.0
C1607 C 0.70552 0.11218 0.79047 0.0
C1608 C 0.69972 0.12087 0.733 0.0
C1609 C 0.71052 0.12951 0.697 0.0
C1610 C 0.72677 0.12949 0.71792 0.0
H1611 H 0.75352 0.13836 0.96706 0.0
H1612 H 0.73653 0.13835 0.90347 0.0
H1613 H 0.7416 0.12033 0.94797 0.0
H1614 H 0.72599 0.10482 0.854 0.0
H1615 H 0.6975 0.10526 0.81874 0.0
H1616 H 0.84473 0.57525 1.02274 0.0
H1617 H 0.84402 0.54544 1.00612 0.0
H1618 H 0.89367 0.54506 0.96995 0.0
H1619 H 0.89451 0.57481 0.98574 0.0
H1620 H 0.85471 0.5242 0.87829 0.0
H1621 H 0.88756 0.51415 0.13696 0.0
H1622 H 0.87719 0.53284 0.12132 0.0
H1623 H 0.89579 0.52883 0.08402 0.0
C1624 C 0.85551 0.56887 1.01116 0.0
C1625 C 0.86969 0.57755 1.00574 0.0
C1626 C 0.85507 0.55179 1.00154 0.0
C1627 C 0.86881 0.54297 0.98733 0.0
C1628 C 0.88294 0.55157 0.98142 0.0
H1629 H 0.89494 0.4408 0.95264 0.0
H1630 H 0.89399 0.47049 0.96508 0.0
C1631 C 0.88336 0.56863 0.99024 0.0
C1632 C 0.86846 0.5248 0.97878 0.0
H1633 H 0.88175 0.49097 0.05819 0.0
C1634 C 0.86055 0.5169 0.91771 0.0
C1635 C 0.87616 0.51528 0.02995 0.0
C1636 C 0.8846 0.52311 0.09712 0.0
C1637 C 0.86046 0.49978 0.90559 0.0
C1638 C 0.86808 0.49019 0.95712 0.0
C1639 C 0.87588 0.49818 1.01851 0.0
C1640 C 0.86846 0.47193 0.94802 0.0
C1641 C 0.85267 0.49225 0.83637 0.0
C1642 C 0.85444 0.4626 0.9348 0.0
C1643 C 0.85498 0.44551 0.92669 0.0
C1644 C 0.86953 0.43728 0.93306 0.0
C1645 C 0.88351 0.44664 0.94744 0.0
C1646 C 0.88298 0.46369 0.95466 0.0
H1647 H 0.85184 0.50107 0.79473 0.0
H1648 H 0.85928 0.48143 0.81634 0.0
H1649 H 0.84044 0.48837 0.84482 0.0
H1650 H 0.84302 0.4685 0.93153 0.0
H1651 H 0.84395 0.43876 0.91642 0.0
H1652 H 0.17003 0.1534 0.81413 0.0
H1653 H 0.19863 0.15389 0.8026 0.0
H1654 H 0.20321 0.10803 0.89708 0.0
H1655 H 0.1746 0.10731 0.90787 0.0
H1656 H 0.22365 0.15399 0.90451 0.0
H1657 H 0.22626 0.09894 0.71779 0.0
H1658 H 0.20784 0.10874 0.73678 0.0
H1659 H 0.21723 0.09549 0.79821 0.0
C1660 C 0.17708 0.14336 0.83229 0.0
C1661 C 0.1699 0.13026 0.8616 0.0
C1662 C 0.19348 0.14368 0.82571 0.0
C1663 C 0.20313 0.13088 0.84785 0.0
C1664 C 0.19604 0.11789 0.87803 0.0
H1665 H 0.30515 0.11214 0.84199 0.0
H1666 H 0.27691 0.11132 0.86384 0.0
C1667 C 0.17963 0.11755 0.8846 0.0
C1668 C 0.22061 0.1313 0.84049 0.0
H1669 H 0.25086 0.11056 0.76475 0.0
C1670 C 0.22958 0.14451 0.87377 0.0
C1671 C 0.22843 0.11893 0.80053 0.0
C1672 C 0.21945 0.10479 0.7607 0.0
C1673 C 0.24608 0.14558 0.86896 0.0
C1674 C 0.25389 0.13325 0.82873 0.0
C1675 C 0.24494 0.11999 0.79583 0.0
C1676 C 0.27122 0.1341 0.81841 0.0
C1677 C 0.25504 0.1598 0.90813 0.0
C1678 C 0.2775 0.14712 0.78547 0.0
C1679 C 0.29362 0.14762 0.77314 0.0
C1680 C 0.30384 0.13505 0.7931 0.0
C1681 C 0.2976 0.12206 0.82649 0.0
C1682 C 0.28145 0.12156 0.83873 0.0
H1683 H 0.24841 0.16545 0.95209 0.0
H1684 H 0.26686 0.15603 0.9305 0.0
H1685 H 0.25683 0.16922 0.87059 0.0
H1686 H 0.26986 0.15677 0.7678 0.0
H1687 H 0.29801 0.15772 0.74668 0.0
H1688 H 0.6059 0.58061 0.49303 0.0
H1689 H 0.60686 0.55121 0.49994 0.0
H1690 H 0.64903 0.54905 0.38528 0.0
H1691 H 0.64842 0.57865 0.37987 0.0
H1692 H 0.60468 0.5266 0.40073 0.0
H1693 H 0.6634 0.52358 0.55014 0.0
H1694 H 0.65334 0.54256 0.5384 0.0
H1695 H 0.6641 0.53302 0.46809 0.0
C1696 C 0.61545 0.57395 0.46935 0.0
C1697 C 0.62714 0.58214 0.43617 0.0
C1698 C 0.61597 0.55705 0.47336 0.0
C1699 C 0.62817 0.54778 0.44431 0.0
C1700 C 0.63972 0.55587 0.40993 0.0
H1701 H 0.64543 0.44227 0.41655 0.0
H1702 H 0.64556 0.4715 0.39869 0.0
C1703 C 0.63928 0.57285 0.40635 0.0
C1704 C 0.62848 0.5297 0.44908 0.0
H1705 H 0.65126 0.49837 0.50765 0.0
C1706 C 0.61488 0.52048 0.42427 0.0
C1707 C 0.64175 0.52156 0.47984 0.0
C1708 C 0.65642 0.53069 0.51128 0.0
C1709 C 0.61422 0.50352 0.429 0.0
C1710 C 0.62746 0.49542 0.45978 0.0
C1711 C 0.64113 0.50454 0.48378 0.0
C1712 C 0.62716 0.47759 0.46937 0.0
C1713 C 0.59937 0.49433 0.40039 0.0
C1714 C 0.61683 0.47122 0.51529 0.0
C1715 C 0.6168 0.45456 0.5258 0.0
C1716 C 0.62705 0.44384 0.49048 0.0
C1717 C 0.63732 0.45019 0.44418 0.0
C1718 C 0.63744 0.4669 0.43412 0.0
H1719 H 0.59181 0.50149 0.36376 0.0
H1720 H 0.60233 0.48259 0.37176 0.0
H1721 H 0.59236 0.49163 0.44539 0.0
H1722 H 0.60895 0.47921 0.54392 0.0
H1723 H 0.60882 0.45008 0.56216 0.0
H1724 H 0.31643 0.90395 0.42143 0.0
H1725 H 0.28753 0.90318 0.40224 0.0
H1726 H 0.29012 0.85915 0.26524 0.0
H1727 H 0.31907 0.85985 0.28363 0.0
H1728 H 0.26918 0.88209 0.20921 0.0
H1729 H 0.2574 0.87223 0.48734 0.0
H1730 H 0.26983 0.88953 0.47848 0.0
H1731 H 0.27674 0.86941 0.45413 0.0
C1732 C 0.31091 0.89406 0.38727 0.0
C1733 C 0.32018 0.88191 0.3544 0.0
C1734 C 0.29432 0.8936 0.37666 0.0
C1735 C 0.28658 0.88098 0.33312 0.0
C1736 C 0.29579 0.86897 0.29937 0.0
H1737 H 0.18643 0.85474 0.31131 0.0
H1738 H 0.21533 0.85585 0.32905 0.0
C1739 C 0.31238 0.86938 0.31009 0.0
C1740 C 0.26892 0.8804 0.32206 0.0
H1741 H 0.23513 0.87776 0.40925 0.0
C1742 C 0.26173 0.88112 0.25294 0.0
C1743 C 0.25916 0.87894 0.37893 0.0
C1744 C 0.26613 0.87733 0.45384 0.0
C1745 C 0.24513 0.88066 0.2393 0.0
C1746 C 0.23536 0.87965 0.29647 0.0
C1747 C 0.24256 0.87869 0.36545 0.0
C1748 C 0.21768 0.87918 0.28569 0.0
C1749 C 0.23822 0.88091 0.16349 0.0
C1750 C 0.20923 0.89203 0.25627 0.0
C1751 C 0.19264 0.89144 0.24587 0.0
C1752 C 0.18405 0.87801 0.26513 0.0
C1753 C 0.19255 0.86528 0.29564 0.0
C1754 C 0.20914 0.86589 0.30592 0.0
H1755 H 0.2471 0.87738 0.12484 0.0
H1756 H 0.22785 0.87257 0.15303 0.0
H1757 H 0.23421 0.89342 0.15395 0.0
H1758 H 0.21548 0.9026 0.24164 0.0
H1759 H 0.18656 0.90153 0.22267 0.0
H1760 H 0.604 0.93041 0.53298 0.0
H1761 H 0.60586 0.95989 0.55987 0.0
H1762 H 0.65035 0.9607 0.46339 0.0
H1763 H 0.64858 0.93122 0.43583 0.0
H1764 H 0.62949 0.97862 0.64242 0.0
H1765 H 0.6244 0.99563 0.3634 0.0
H1766 H 0.6193 0.97559 0.38716 0.0
H1767 H 0.63971 0.98122 0.38298 0.0
C1768 C 0.61417 0.93681 0.51705 0.0
C1769 C 0.62609 0.9283 0.48174 0.0
C1770 C 0.61523 0.95372 0.53274 0.0
C1771 C 0.62814 0.96263 0.51298 0.0
C1772 C 0.64012 0.9542 0.47817 0.0
H1773 H 0.65539 0.06282 0.66854 0.0
H1774 H 0.65437 0.03322 0.64261 0.0
C1775 C 0.63911 0.93726 0.46272 0.0
C1776 C 0.62914 0.98068 0.5296 0.0
H1777 H 0.63032 0.01692 0.45302 0.0
C1778 C 0.62968 0.98698 0.60098 0.0
C1779 C 0.62922 0.99167 0.47564 0.0
C1780 C 0.62799 0.98576 0.39792 0.0
C1781 C 0.63049 0.00388 0.61979 0.0
C1782 C 0.63089 0.01486 0.56589 0.0
C1783 C 0.63016 0.00856 0.49448 0.0
C1784 C 0.63159 0.03292 0.58227 0.0
C1785 C 0.63055 0.00985 0.69722 0.0
C1786 C 0.61928 0.04276 0.55613 0.0
C1787 C 0.61983 0.0597 0.57086 0.0
C1788 C 0.63279 0.06732 0.61164 0.0
C1789 C 0.64518 0.05744 0.63731 0.0
C1790 C 0.64458 0.04046 0.62278 0.0
H1791 H 0.62648 1.00029 0.73008 0.0
H1792 H 0.6428 0.01346 0.71751 0.0
H1793 H 0.62285 0.02067 0.70424 0.0
H1794 H 0.60915 0.03729 0.52455 0.0
H1795 H 0.61008 0.06683 0.54978 0.0
H1796 H 0.18711 0.36441 0.77267 0.0
H1797 H 0.21436 0.36157 0.73683 0.0
H1798 H 0.23039 0.39773 0.90397 0.0
H1799 H 0.20331 0.40067 0.93979 0.0
H1800 H 0.2362 0.3884 0.70124 0.0
H1801 H 0.2574 0.35527 0.93517 0.0
H1802 H 0.23669 0.35636 0.9049 0.0
H1803 H 0.2464 0.37354 0.95402 0.0
C1804 C 0.19646 0.37181 0.80129 0.0
C1805 C 0.1932 0.3827 0.85907 0.0
C1806 C 0.21195 0.37017 0.78088 0.0
C1807 C 0.22431 0.3793 0.8185 0.0
C1808 C 0.22099 0.39046 0.87501 0.0
H1809 H 0.32571 0.38725 0.8194 0.0
H1810 H 0.29774 0.38869 0.84468 0.0
C1811 C 0.20554 0.39216 0.89514 0.0
C1812 C 0.24077 0.37714 0.79953 0.0
H1813 H 0.2769 0.36387 0.86247 0.0
C1814 C 0.24512 0.38292 0.73598 0.0
C1815 C 0.25227 0.37006 0.84546 0.0
C1816 C 0.24801 0.36332 0.91354 0.0
C1817 C 0.26089 0.38223 0.71799 0.0
C1818 C 0.27245 0.37523 0.76421 0.0
C1819 C 0.268 0.36924 0.8273 0.0
C1820 C 0.28928 0.37423 0.74878 0.0
C1821 C 0.26513 0.38949 0.65099 0.0
C1822 C 0.29375 0.3654 0.68718 0.0
C1823 C 0.30966 0.36465 0.67255 0.0
C1824 C 0.32133 0.37255 0.71977 0.0
C1825 C 0.3169 0.38108 0.78219 0.0
C1826 C 0.30097 0.38191 0.7966 0.0
H1827 H 0.25592 0.39806 0.6319 0.0
H1828 H 0.27666 0.39606 0.65957 0.0
H1829 H 0.26615 0.37959 0.60844 0.0
H1830 H 0.28495 0.35907 0.65052 0.0
H1831 H 0.31282 0.35791 0.62427 0.0
H1832 H 0.90422 0.92344 0.07066 0.0
H1833 H 0.90411 0.95238 0.05117 0.0
H1834 H 0.859 0.95758 0.14158 0.0
H1835 H 0.85903 0.92859 0.16203 0.0
H1836 H 0.88259 0.96967 0.96914 0.0
H1837 H 0.8848 0.99465 0.25077 0.0
H1838 H 0.88904 0.97362 0.22574 0.0
H1839 H 0.86888 0.98049 0.22464 0.0
C1840 C 0.89427 0.93069 0.08697 0.0
C1841 C 0.88165 0.92353 0.11836 0.0
C1842 C 0.89424 0.94731 0.07558 0.0
C1843 C 0.88167 0.95733 0.0957 0.0
C1844 C 0.86901 0.95026 0.12684 0.0
H1845 H 0.86305 0.06147 0.05683 0.0
H1846 H 0.86177 0.0328 0.08362 0.0
C1847 C 0.86901 0.93359 0.13814 0.0
C1848 C 0.88168 0.975 0.0819 0.0
H1849 H 0.88148 0.01362 0.16311 0.0
C1850 C 0.88238 0.97926 1.01166 0.0
C1851 C 0.88131 0.98762 0.13711 0.0
C1852 C 0.8811 0.98394 0.21391 0.0
C1853 C 0.8826 0.99564 0.99508 0.0
C1854 C 0.8825 0.00828 0.05039 0.0
C1855 C 0.8816 0.00403 0.12059 0.0
C1856 C 0.88354 0.02591 0.03643 0.0
C1857 C 0.8826 0.99921 0.91803 0.0
C1858 C 0.89638 0.03183 1.00261 0.0
C1859 C 0.89709 0.04818 0.98717 0.0
C1860 C 0.88508 0.05912 1.00582 0.0
C1861 C 0.87249 0.05336 0.0417 0.0
C1862 C 0.87174 0.03695 0.05699 0.0
H1863 H 0.87787 0.98877 0.88191 0.0
H1864 H 0.87543 0.01013 0.90702 0.0
H1865 H 0.89495 1.00153 0.90526 0.0
H1866 H 0.90586 0.02376 0.9878 0.0
H1867 H 0.90701 0.05222 0.95986 0.0
H1868 H 0.20373 0.64341 0.26497 0.0
H1869 H 0.23149 0.63963 0.30605 0.0
H1870 H 0.21987 0.59279 0.37624 0.0
H1871 H 0.19203 0.59643 0.33418 0.0
H1872 H 0.24579 0.63378 0.44105 0.0
H1873 H 0.25467 0.58243 0.23903 0.0
H1874 H 0.23761 0.5955 0.23342 0.0
H1875 H 0.23881 0.58007 0.29554 0.0
C1876 C 0.20707 0.63238 0.28977 0.0
C1877 C 0.19581 0.62016 0.2961 0.0
C1878 C 0.22291 0.63023 0.31317 0.0
C1879 C 0.22775 0.61583 0.34308 0.0
C1880 C 0.2164 0.60386 0.35208 0.0
H1881 H 0.32689 0.58941 0.45384 0.0
H1882 H 0.29782 0.58859 0.4424 0.0
C1883 C 0.20053 0.606 0.32855 0.0
C1884 C 0.24477 0.61333 0.36276 0.0
H1885 H 0.27688 0.59121 0.31465 0.0
C1886 C 0.25257 0.62437 0.41397 0.0
C1887 C 0.25355 0.601 0.32738 0.0
C1888 C 0.24582 0.58912 0.27037 0.0
C1889 C 0.26901 0.62369 0.4295 0.0
C1890 C 0.27786 0.61179 0.39213 0.0
C1891 C 0.27 0.60031 0.34311 0.0
C1892 C 0.29537 0.61202 0.39871 0.0
C1893 C 0.27682 0.63588 0.48494 0.0
C1894 C 0.30352 0.62528 0.37637 0.0
C1895 C 0.32003 0.62577 0.38242 0.0
C1896 C 0.32876 0.61296 0.41085 0.0
C1897 C 0.32054 0.5995 0.43196 0.0
C1898 C 0.30395 0.599 0.42556 0.0
H1899 H 0.26823 0.641 0.52218 0.0
H1900 H 0.28674 0.63027 0.51605 0.0
H1901 H 0.28169 0.64609 0.45817 0.0
H1902 H 0.29708 0.63528 0.35416 0.0
H1903 H 0.3259 0.63631 0.3653 0.0
H1904 H 0.34485 0.95262 0.45256 0.0
H1905 H 0.34393 0.98085 0.50189 0.0
H1906 H 0.38542 0.97309 0.6418 0.0
H1907 H 0.38637 0.94461 0.59268 0.0
H1908 H 0.35882 0.99263 0.70305 0.0
H1909 H 0.37922 0.01326 0.45181 0.0
H1910 H 0.3625 0.99958 0.44152 0.0
H1911 H 0.38143 0.99256 0.47577 0.0
C1912 C 0.35368 0.95687 0.4944 0.0
C1913 C 0.36579 0.94656 0.51845 0.0
C1914 C 0.35313 0.97296 0.52245 0.0
C1915 C 0.3647 0.97901 0.57474 0.0
C1916 C 0.37641 0.96857 0.60131 0.0
H1917 H 0.39073 0.07948 0.66611 0.0
H1918 H 0.39006 0.05003 0.64386 0.0
C1919 C 0.37697 0.95238 0.57321 0.0
C1920 C 0.36515 0.99652 0.59754 0.0
H1921 H 0.37128 0.03364 0.53628 0.0
C1922 C 0.36159 1.00164 0.66693 0.0
C1923 C 0.36889 0.00813 0.55012 0.0
C1924 C 0.37336 0.00317 0.47578 0.0
C1925 C 0.36149 0.01826 0.68996 0.0
C1926 C 0.36488 0.02988 0.6419 0.0
C1927 C 0.36858 0.02467 0.57279 0.0
C1928 C 0.36529 0.04754 0.66228 0.0
C1929 C 0.35802 0.02324 0.76558 0.0
C1930 C 0.35155 0.0559 0.68056 0.0
C1931 C 0.35188 0.07284 0.69356 0.0
C1932 C 0.3659 0.08164 0.68755 0.0
C1933 C 0.37967 0.07313 0.6705 0.0
C1934 C 0.37935 0.05627 0.65801 0.0
H1935 H 0.35921 0.01288 0.79982 0.0
H1936 H 0.3661 0.03322 0.78875 0.0
H1937 H 0.34568 0.02775 0.76624 0.0
H1938 H 0.3405 0.04937 0.68281 0.0
H1939 H 0.34107 0.07906 0.7064 0.0
H1940 H 0.8172 0.61085 0.2138 0.0
H1941 H 0.79116 0.61031 0.26279 0.0
H1942 H 0.77513 0.64846 0.13158 0.0
H1943 H 0.8011 0.64911 0.0827 0.0
H1944 H 0.77447 0.63862 0.33217 0.0
H1945 H 0.74224 0.6097 0.0873 0.0
H1946 H 0.76349 0.60847 0.10417 0.0
H1947 H 0.75466 0.62685 0.07532 0.0
C1948 C 0.80811 0.61912 0.19559 0.0
C1949 C 0.81107 0.62998 0.14438 0.0
C1950 C 0.7933 0.61881 0.22356 0.0
C1951 C 0.78125 0.62922 0.20004 0.0
C1952 C 0.78426 0.64021 0.14961 0.0
H1953 H 0.68344 0.64703 0.27111 0.0
H1954 H 0.71019 0.64595 0.2301 0.0
C1955 C 0.79908 0.6406 0.12202 0.0
C1956 C 0.7655 0.6287 0.22831 0.0
H1957 H 0.72668 0.61954 0.18001 0.0
C1958 C 0.764 0.63435 0.29929 0.0
C1959 C 0.75196 0.62315 0.18488 0.0
C1960 C 0.75309 0.61657 0.10877 0.0
C1961 C 0.74914 0.63507 0.32759 0.0
C1962 C 0.73554 0.62961 0.28399 0.0
C1963 C 0.73712 0.62373 0.21325 0.0
C1964 C 0.71947 0.63029 0.3099 0.0
C1965 C 0.74807 0.64217 0.40303 0.0
C1966 C 0.71581 0.6217 0.36787 0.0
C1967 C 0.70057 0.6224 0.39165 0.0
C1968 C 0.68875 0.63154 0.35722 0.0
C1969 C 0.69237 0.63992 0.29863 0.0
C1970 C 0.70761 0.6393 0.27516 0.0
H1971 H 0.75872 0.64958 0.42252 0.0
H1972 H 0.73741 0.64991 0.40754 0.0
H1973 H 0.74716 0.63213 0.43838 0.0
H1974 H 0.72469 0.61437 0.39435 0.0
H1975 H 0.69801 0.61573 0.43667 0.0
H1976 H 0.10347 0.05584 0.86088 0.0
H1977 H 0.10425 0.02793 0.89731 0.0
H1978 H 0.13733 0.04314 0.07515 0.0
H1979 H 0.13621 0.07109 0.04021 0.0
H1980 H 0.12939 0.00754 0.90983 0.0
H1981 H 0.10381 0.01948 0.16985 0.0
H1982 H 0.10305 0.03415 0.10366 0.0
H1983 H 0.12076 0.03206 0.1611 0.0
C1984 C 0.11078 0.0532 0.90808 0.0
C1985 C 0.11969 0.06552 0.94818 0.0
C1986 C 0.11125 0.03731 0.92866 0.0
C1987 C 0.12066 0.03358 0.98946 0.0
C1988 C 0.1297 0.04588 0.02906 0.0
H1989 H 0.15368 0.93892 0.10171 0.0
H1990 H 0.15093 0.96592 0.05621 0.0
C1991 C 0.12912 0.06178 1.0089 0.0
C1992 C 0.12135 0.01674 1.01056 0.0
H1993 H 0.11616 0.99375 0.14918 0.0
C1994 C 0.12639 0.00446 0.96194 0.0
C1995 C 0.11721 0.0128 0.07819 0.0
C1996 C 0.11075 0.02529 0.13093 0.0
C1997 C 0.12772 0.98831 0.97979 0.0
C1998 C 0.12428 0.98452 0.0486 0.0
C1999 C 0.11895 0.99676 0.09667 0.0
C2000 C 0.1259 0.96792 0.07206 0.0
C2001 C 0.13257 0.97546 0.92454 0.0
C2002 C 0.11282 0.9603 0.09701 0.0
C2003 C 0.11444 0.9451 0.12399 0.0
C2004 C 0.12915 0.93728 0.12614 0.0
C2005 C 0.1422 0.94474 0.1001 0.0
C2006 C 0.14061 0.96006 0.07373 0.0
H2007 H 0.1303 0.9794 0.86984 0.0
H2008 H 0.14546 0.9732 0.9335 0.0
H2009 H 0.12615 0.96383 0.92805 0.0
H2010 H 0.10138 0.9662 0.09632 0.0
H2011 H 0.1042 0.93954 0.14369 0.0
H2012 H 0.68229 0.40236 0.53306 0.0
H2013 H 0.71079 0.4049 0.5644 0.0
H2014 H 0.71099 0.35742 0.64551 0.0
H2015 H 0.68261 0.35463 0.61377 0.0
H2016 H 0.72506 0.40446 0.70112 0.0
H2017 H 0.74879 0.3554 0.52283 0.0
H2018 H 0.72898 0.36325 0.50857 0.0
H2019 H 0.7332 0.34857 0.5729 0.0
C2020 C 0.68841 0.39233 0.55649 0.0
C2021 C 0.68013 0.37829 0.5709 0.0
C2022 C 0.7047 0.39383 0.57445 0.0
C2023 C 0.713 0.38127 0.60646 0.0
C2024 C 0.70486 0.36711 0.6195 0.0
H2025 H 0.79676 0.38263 0.88922 0.0
H2026 H 0.76992 0.38284 0.83131 0.0
C2027 C 0.68859 0.3656 0.60166 0.0
C2028 C 0.72991 0.38343 0.63145 0.0
H2029 H 0.76621 0.36579 0.62194 0.0
C2030 C 0.73411 0.39614 0.68317 0.0
C2031 C 0.74169 0.37265 0.60739 0.0
C2032 C 0.73799 0.3593 0.54934 0.0
C2033 C 0.74969 0.39798 0.71363 0.0
C2034 C 0.76128 0.38666 0.6924 0.0
C2035 C 0.75724 0.37435 0.63857 0.0
C2036 C 0.77751 0.38697 0.7274 0.0
C2037 C 0.75359 0.41195 0.76855 0.0
C2038 C 0.79066 0.38889 0.68775 0.0
C2039 C 0.806 0.38868 0.72067 0.0
C2040 C 0.80838 0.38644 0.79353 0.0
C2041 C 0.79522 0.38448 0.83304 0.0
C2042 C 0.7799 0.38469 0.80016 0.0
H2043 H 0.74488 0.42196 0.76376 0.0
H2044 H 0.75323 0.40759 0.82245 0.0
H2045 H 0.76564 0.4169 0.76363 0.0
H2046 H 0.78903 0.39055 0.63141 0.0
H2047 H 0.81599 0.39016 0.68908 0.0
loop_
_geom_bond_atom_site_label_1
_geom_bond_atom_site_label_2
_geom_bond_distance
_geom_bond_site_symmetry_2
_ccdc_geom_bond_type
Tb0 O3 2.453 . S
Tb0 O4 2.596 . S
Tb0 O5 2.374 . S
Tb0 O13 2.343 . S
Tb0 O15 2.353 . S
Tb0 O17 2.427 . S
Tb0 O18 2.513 . S
C1 O5 1.251 . S
C1 O7 1.263 . S
Tb2 O4 2.343 . S
Tb2 O7 2.353 . S
Tb2 O10 2.427 . S
Tb2 O11 2.513 . S
Tb2 O12 2.453 1_554 S
Tb2 O13 2.596 . S
Tb2 O14 2.374 . S
O3 Tb0 2.453 . S
O3 C19 1.245 . S
O4 Tb0 2.596 . S
O4 Tb2 2.343 . S
O4 C19 1.259 . S
O5 Tb0 2.374 . S
O5 C1 1.251 . S
C6 O10 1.275 . S
C6 O11 1.246 . S
O7 C1 1.263 . S
O7 Tb2 2.353 . S
C8 O12 1.245 . S
C8 O13 1.259 1_556 S
C9 O14 1.250 . S
C9 O15 1.263 . S
O10 Tb2 2.427 . S
O10 C6 1.275 . S
O11 Tb2 2.513 . S
O11 C6 1.246 . S
O12 Tb2 2.453 1_556 S
O12 C8 1.245 . S
O13 Tb0 2.343 . S
O13 Tb2 2.596 . S
O13 C8 1.259 1_554 S
O14 Tb2 2.374 . S
O14 C9 1.250 . S
O15 Tb0 2.353 . S
O15 C9 1.263 . S
C16 O17 1.275 . S
C16 O18 1.246 . S
O17 Tb0 2.427 . S
O17 C16 1.275 . S
O18 Tb0 2.513 . S
O18 C16 1.246 . S
C19 O3 1.245 . S
C19 O4 1.259 . S
Tb20 O23 2.453 . S
Tb20 O24 2.596 . S
Tb20 O25 2.374 . S
Tb20 O33 2.343 . S
Tb20 O35 2.353 . S
Tb20 O37 2.427 . S
Tb20 O38 2.513 . S
C21 O25 1.251 . S
C21 O27 1.263 . S
Tb22 O24 2.343 . S
Tb22 O27 2.353 . S
Tb22 O30 2.427 . S
Tb22 O31 2.513 . S
Tb22 O32 2.453 . S
Tb22 O33 2.596 . S
Tb22 O34 2.374 . S
O23 Tb20 2.453 . S
O23 C39 1.245 . S
O24 Tb20 2.596 . S
O24 Tb22 2.343 . S
O24 C39 1.259 . S
O25 Tb20 2.374 . S
O25 C21 1.251 . S
C26 O30 1.275 . S
C26 O31 1.246 . S
O27 C21 1.263 . S
O27 Tb22 2.353 . S
C28 O32 1.245 . S
C28 O33 1.259 . S
C29 O34 1.250 . S
C29 O35 1.263 . S
O30 Tb22 2.427 . S
O30 C26 1.275 . S
O31 Tb22 2.513 . S
O31 C26 1.246 . S
O32 Tb22 2.453 . S
O32 C28 1.245 . S
O33 Tb20 2.343 . S
O33 Tb22 2.596 . S
O33 C28 1.259 . S
O34 Tb22 2.374 . S
O34 C29 1.250 . S
O35 Tb20 2.353 . S
O35 C29 1.263 . S
C36 O37 1.275 . S
C36 O38 1.246 . S
O37 Tb20 2.427 . S
O37 C36 1.275 . S
O38 Tb20 2.513 . S
O38 C36 1.246 . S
C39 O23 1.245 . S
C39 O24 1.259 . S
Tb40 O43 2.453 . S
Tb40 O44 2.596 . S
Tb40 O45 2.374 . S
Tb40 O53 2.343 . S
Tb40 O55 2.353 . S
Tb40 O57 2.427 . S
Tb40 O58 2.513 . S
C41 O45 1.251 . S
C41 O47 1.263 . S
Tb42 O44 2.343 . S
Tb42 O47 2.353 . S
Tb42 O50 2.427 . S
Tb42 O51 2.513 . S
Tb42 O52 2.453 . S
Tb42 O53 2.596 . S
Tb42 O54 2.374 . S
O43 Tb40 2.453 . S
O43 C59 1.245 . S
O44 Tb40 2.596 . S
O44 Tb42 2.343 . S
O44 C59 1.259 . S
O45 Tb40 2.374 . S
O45 C41 1.251 . S
C46 O50 1.275 . S
C46 O51 1.246 . S
O47 C41 1.263 . S
O47 Tb42 2.353 . S
C48 O52 1.245 . S
C48 O53 1.259 . S
C49 O54 1.250 . S
C49 O55 1.263 . S
O50 Tb42 2.427 . S
O50 C46 1.275 . S
O51 Tb42 2.513 . S
O51 C46 1.246 . S
O52 Tb42 2.453 . S
O52 C48 1.245 . S
O53 Tb40 2.343 . S
O53 Tb42 2.596 . S
O53 C48 1.259 . S
O54 Tb42 2.374 . S
O54 C49 1.250 . S
O55 Tb40 2.353 . S
O55 C49 1.263 . S
C56 O57 1.275 . S
C56 O58 1.246 . S
O57 Tb40 2.427 . S
O57 C56 1.275 . S
O58 Tb40 2.513 . S
O58 C56 1.246 . S
C59 O43 1.245 . S
C59 O44 1.259 . S
Tb60 O63 2.453 1_556 S
Tb60 O64 2.596 . S
Tb60 O65 2.374 . S
Tb60 O73 2.343 . S
Tb60 O75 2.353 . S
Tb60 O77 2.427 . S
Tb60 O78 2.513 . S
C61 O65 1.251 . S
C61 O67 1.263 . S
Tb62 O64 2.343 . S
Tb62 O67 2.353 . S
Tb62 O70 2.427 . S
Tb62 O71 2.513 . S
Tb62 O72 2.453 . S
Tb62 O73 2.596 . S
Tb62 O74 2.374 . S
O63 Tb60 2.453 1_554 S
O63 C79 1.245 . S
O64 Tb60 2.596 . S
O64 Tb62 2.343 . S
O64 C79 1.259 1_556 S
O65 Tb60 2.374 . S
O65 C61 1.251 . S
C66 O70 1.275 . S
C66 O71 1.246 . S
O67 C61 1.263 . S
O67 Tb62 2.353 . S
C68 O72 1.245 . S
C68 O73 1.259 . S
C69 O74 1.250 . S
C69 O75 1.263 . S
O70 Tb62 2.427 . S
O70 C66 1.275 . S
O71 Tb62 2.513 . S
O71 C66 1.246 . S
O72 Tb62 2.453 . S
O72 C68 1.245 . S
O73 Tb60 2.343 . S
O73 Tb62 2.596 . S
O73 C68 1.259 . S
O74 Tb62 2.374 . S
O74 C69 1.250 . S
O75 Tb60 2.353 . S
O75 C69 1.263 . S
C76 O77 1.275 . S
C76 O78 1.246 . S
O77 Tb60 2.427 . S
O77 C76 1.275 . S
O78 Tb60 2.513 . S
O78 C76 1.246 . S
C79 O63 1.245 . S
C79 O64 1.259 1_554 S
Tb80 O83 2.453 . S
Tb80 O84 2.596 . S
Tb80 O85 2.374 . S
Tb80 O93 2.343 1_556 S
Tb80 O95 2.353 . S
Tb80 O97 2.427 . S
Tb80 O98 2.513 . S
C81 O85 1.251 . S
C81 O87 1.263 . S
Tb82 O84 2.343 . S
Tb82 O87 2.353 . S
Tb82 O90 2.427 . S
Tb82 O91 2.513 . S
Tb82 O92 2.453 1_556 S
Tb82 O93 2.596 1_556 S
Tb82 O94 2.374 . S
O83 Tb80 2.453 . S
O83 C99 1.245 . S
O84 Tb80 2.596 . S
O84 Tb82 2.343 . S
O84 C99 1.259 . S
O85 Tb80 2.374 . S
O85 C81 1.251 . S
C86 O90 1.275 . S
C86 O91 1.246 . S
O87 C81 1.263 . S
O87 Tb82 2.353 . S
C88 O92 1.245 . S
C88 O93 1.259 . S
C89 O94 1.250 . S
C89 O95 1.263 . S
O90 Tb82 2.427 . S
O90 C86 1.275 . S
O91 Tb82 2.513 . S
O91 C86 1.246 . S
O92 Tb82 2.453 1_554 S
O92 C88 1.245 . S
O93 Tb80 2.343 1_554 S
O93 Tb82 2.596 1_554 S
O93 C88 1.259 . S
O94 Tb82 2.374 . S
O94 C89 1.250 . S
O95 Tb80 2.353 . S
O95 C89 1.263 . S
C96 O97 1.275 . S
C96 O98 1.246 . S
O97 Tb80 2.427 . S
O97 C96 1.275 . S
O98 Tb80 2.513 . S
O98 C96 1.246 . S
C99 O83 1.245 . S
C99 O84 1.259 . S
Tb100 O103 2.453 . S
Tb100 O104 2.596 . S
Tb100 O105 2.374 . S
Tb100 O113 2.343 . S
Tb100 O115 2.353 . S
Tb100 O117 2.427 . S
Tb100 O118 2.513 . S
C101 O105 1.251 . S
C101 O107 1.263 . S
Tb102 O104 2.343 . S
Tb102 O107 2.353 . S
Tb102 O110 2.427 . S
Tb102 O111 2.513 . S
Tb102 O112 2.453 1_554 S
Tb102 O113 2.596 . S
Tb102 O114 2.374 . S
O103 Tb100 2.453 . S
O103 C119 1.245 . S
O104 Tb100 2.596 . S
O104 Tb102 2.343 . S
O104 C119 1.259 . S
O105 Tb100 2.374 . S
O105 C101 1.251 . S
C106 O110 1.275 . S
C106 O111 1.246 . S
O107 C101 1.263 . S
O107 Tb102 2.353 . S
C108 O112 1.245 . S
C108 O113 1.259 1_556 S
C109 O114 1.250 . S
C109 O115 1.263 . S
O110 Tb102 2.427 . S
O110 C106 1.275 . S
O111 Tb102 2.513 . S
O111 C106 1.246 . S
O112 Tb102 2.453 1_556 S
O112 C108 1.245 . S
O113 Tb100 2.343 . S
O113 Tb102 2.596 . S
O113 C108 1.259 1_554 S
O114 Tb102 2.374 . S
O114 C109 1.250 . S
O115 Tb100 2.353 . S
O115 C109 1.263 . S
C116 O117 1.275 . S
C116 O118 1.246 . S
O117 Tb100 2.427 . S
O117 C116 1.275 . S
O118 Tb100 2.513 . S
O118 C116 1.246 . S
C119 O103 1.245 . S
C119 O104 1.259 . S
Tb120 O123 2.453 . S
Tb120 O124 2.596 . S
Tb120 O125 2.374 . S
Tb120 O133 2.343 . S
Tb120 O135 2.353 . S
Tb120 O137 2.427 . S
Tb120 O138 2.513 . S
C121 O125 1.251 . S
C121 O127 1.263 . S
Tb122 O124 2.343 . S
Tb122 O127 2.353 . S
Tb122 O130 2.427 . S
Tb122 O131 2.513 . S
Tb122 O132 2.453 . S
Tb122 O133 2.596 . S
Tb122 O134 2.374 . S
O123 Tb120 2.453 . S
O123 C139 1.245 . S
O124 Tb120 2.596 . S
O124 Tb122 2.343 . S
O124 C139 1.259 . S
O125 Tb120 2.374 . S
O125 C121 1.251 . S
C126 O130 1.275 . S
C126 O131 1.246 . S
O127 C121 1.263 . S
O127 Tb122 2.353 . S
C128 O132 1.245 . S
C128 O133 1.259 . S
C129 O134 1.250 . S
C129 O135 1.263 . S
O130 Tb122 2.427 . S
O130 C126 1.275 . S
O131 Tb122 2.513 . S
O131 C126 1.246 . S
O132 Tb122 2.453 . S
O132 C128 1.245 . S
O133 Tb120 2.343 . S
O133 Tb122 2.596 . S
O133 C128 1.259 . S
O134 Tb122 2.374 . S
O134 C129 1.250 . S
O135 Tb120 2.353 . S
O135 C129 1.263 . S
C136 O137 1.275 . S
C136 O138 1.246 . S
O137 Tb120 2.427 . S
O137 C136 1.275 . S
O138 Tb120 2.513 . S
O138 C136 1.246 . S
C139 O123 1.245 . S
C139 O124 1.259 . S
Tb140 O143 2.453 . S
Tb140 O144 2.596 . S
Tb140 O145 2.374 . S
Tb140 O153 2.343 . S
Tb140 O155 2.353 . S
Tb140 O157 2.427 . S
Tb140 O158 2.513 . S
C141 O145 1.251 . S
C141 O147 1.263 . S
Tb142 O144 2.343 . S
Tb142 O147 2.353 . S
Tb142 O150 2.427 . S
Tb142 O151 2.513 . S
Tb142 O152 2.453 . S
Tb142 O153 2.596 . S
Tb142 O154 2.374 . S
O143 Tb140 2.453 . S
O143 C159 1.245 . S
O144 Tb140 2.596 . S
O144 Tb142 2.343 . S
O144 C159 1.259 . S
O145 Tb140 2.374 . S
O145 C141 1.251 . S
C146 O150 1.275 . S
C146 O151 1.246 . S
O147 C141 1.263 . S
O147 Tb142 2.353 . S
C148 O152 1.245 . S
C148 O153 1.259 . S
C149 O154 1.250 . S
C149 O155 1.263 . S
O150 Tb142 2.427 . S
O150 C146 1.275 . S
O151 Tb142 2.513 . S
O151 C146 1.246 . S
O152 Tb142 2.453 . S
O152 C148 1.245 . S
O153 Tb140 2.343 . S
O153 Tb142 2.596 . S
O153 C148 1.259 . S
O154 Tb142 2.374 . S
O154 C149 1.250 . S
O155 Tb140 2.353 . S
O155 C149 1.263 . S
C156 O157 1.275 . S
C156 O158 1.246 . S
O157 Tb140 2.427 . S
O157 C156 1.275 . S
O158 Tb140 2.513 . S
O158 C156 1.246 . S
C159 O143 1.245 . S
C159 O144 1.259 . S
Tb160 O163 2.453 1_556 S
Tb160 O164 2.596 . S
Tb160 O165 2.374 . S
Tb160 O173 2.343 . S
Tb160 O175 2.353 . S
Tb160 O177 2.427 . S
Tb160 O178 2.513 . S
C161 O165 1.251 . S
C161 O167 1.263 . S
Tb162 O164 2.343 . S
Tb162 O167 2.353 . S
Tb162 O170 2.427 . S
Tb162 O171 2.513 . S
Tb162 O172 2.453 . S
Tb162 O173 2.596 . S
Tb162 O174 2.374 . S
O163 Tb160 2.453 1_554 S
O163 C179 1.245 1_554 S
O164 Tb160 2.596 . S
O164 Tb162 2.343 . S
O164 C179 1.259 . S
O165 Tb160 2.374 . S
O165 C161 1.251 . S
C166 O170 1.275 . S
C166 O171 1.246 . S
O167 C161 1.263 . S
O167 Tb162 2.353 . S
C168 O172 1.245 . S
C168 O173 1.259 . S
C169 O174 1.250 . S
C169 O175 1.263 . S
O170 Tb162 2.427 . S
O170 C166 1.275 . S
O171 Tb162 2.513 . S
O171 C166 1.246 . S
O172 Tb162 2.453 . S
O172 C168 1.245 . S
O173 Tb160 2.343 . S
O173 Tb162 2.596 . S
O173 C168 1.259 . S
O174 Tb162 2.374 . S
O174 C169 1.250 . S
O175 Tb160 2.353 . S
O175 C169 1.263 . S
C176 O177 1.275 . S
C176 O178 1.246 . S
O177 Tb160 2.427 . S
O177 C176 1.275 . S
O178 Tb160 2.513 . S
O178 C176 1.246 . S
C179 O163 1.245 1_556 S
C179 O164 1.259 . S
Tb180 O183 2.453 . S
Tb180 O184 2.596 . S
Tb180 O185 2.374 . S
Tb180 O193 2.343 . S
Tb180 O195 2.353 . S
Tb180 O197 2.427 . S
Tb180 O198 2.513 . S
C181 O185 1.251 . S
C181 O187 1.263 . S
Tb182 O184 2.343 . S
Tb182 O187 2.353 . S
Tb182 O190 2.427 . S
Tb182 O191 2.513 . S
Tb182 O192 2.453 . S
Tb182 O193 2.596 . S
Tb182 O194 2.374 . S
O183 Tb180 2.453 . S
O183 C199 1.245 . S
O184 Tb180 2.596 . S
O184 Tb182 2.343 . S
O184 C199 1.259 . S
O185 Tb180 2.374 . S
O185 C181 1.251 . S
C186 O190 1.275 . S
C186 O191 1.246 . S
O187 C181 1.263 . S
O187 Tb182 2.353 . S
C188 O192 1.245 . S
C188 O193 1.259 . S
C189 O194 1.250 . S
C189 O195 1.263 . S
O190 Tb182 2.427 . S
O190 C186 1.275 . S
O191 Tb182 2.513 . S
O191 C186 1.246 . S
O192 Tb182 2.453 . S
O192 C188 1.245 . S
O193 Tb180 2.343 . S
O193 Tb182 2.596 . S
O193 C188 1.259 . S
O194 Tb182 2.374 . S
O194 C189 1.250 . S
O195 Tb180 2.353 . S
O195 C189 1.263 . S
C196 O197 1.275 . S
C196 O198 1.246 . S
O197 Tb180 2.427 . S
O197 C196 1.275 . S
O198 Tb180 2.513 . S
O198 C196 1.246 . S
C199 O183 1.245 . S
C199 O184 1.259 . S
Tb200 O203 2.453 . S
Tb200 O204 2.596 . S
Tb200 O205 2.374 . S
Tb200 O213 2.343 . S
Tb200 O215 2.353 . S
Tb200 O217 2.427 . S
Tb200 O218 2.513 . S
C201 O205 1.251 . S
C201 O207 1.263 . S
Tb202 O204 2.343 . S
Tb202 O207 2.353 . S
Tb202 O210 2.427 . S
Tb202 O211 2.513 . S
Tb202 O212 2.453 . S
Tb202 O213 2.596 . S
Tb202 O214 2.374 . S
O203 Tb200 2.453 . S
O203 C219 1.245 . S
O204 Tb200 2.596 . S
O204 Tb202 2.343 . S
O204 C219 1.259 . S
O205 Tb200 2.374 . S
O205 C201 1.251 . S
C206 O210 1.275 . S
C206 O211 1.246 . S
O207 C201 1.263 . S
O207 Tb202 2.353 . S
C208 O212 1.245 . S
C208 O213 1.259 . S
C209 O214 1.250 . S
C209 O215 1.263 . S
O210 Tb202 2.427 . S
O210 C206 1.275 . S
O211 Tb202 2.513 . S
O211 C206 1.246 . S
O212 Tb202 2.453 . S
O212 C208 1.245 . S
O213 Tb200 2.343 . S
O213 Tb202 2.596 . S
O213 C208 1.259 . S
O214 Tb202 2.374 . S
O214 C209 1.250 . S
O215 Tb200 2.353 . S
O215 C209 1.263 . S
C216 O217 1.275 . S
C216 O218 1.246 . S
O217 Tb200 2.427 . S
O217 C216 1.275 . S
O218 Tb200 2.513 . S
O218 C216 1.246 . S
C219 O203 1.245 . S
C219 O204 1.259 . S
Tb220 O223 2.453 . S
Tb220 O224 2.596 . S
Tb220 O225 2.374 . S
Tb220 O233 2.343 . S
Tb220 O235 2.353 . S
Tb220 O237 2.427 . S
Tb220 O238 2.513 . S
C221 O225 1.251 . S
C221 O227 1.263 . S
Tb222 O224 2.343 . S
Tb222 O227 2.353 . S
Tb222 O230 2.427 . S
Tb222 O231 2.513 . S
Tb222 O232 2.453 . S
Tb222 O233 2.596 . S
Tb222 O234 2.374 . S
O223 Tb220 2.453 . S
O223 C239 1.245 . S
O224 Tb220 2.596 . S
O224 Tb222 2.343 . S
O224 C239 1.259 . S
O225 Tb220 2.374 . S
O225 C221 1.251 . S
C226 O230 1.275 . S
C226 O231 1.246 . S
O227 C221 1.263 . S
O227 Tb222 2.353 . S
C228 O232 1.245 . S
C228 O233 1.259 . S
C229 O234 1.250 . S
C229 O235 1.263 . S
O230 Tb222 2.427 . S
O230 C226 1.275 . S
O231 Tb222 2.513 . S
O231 C226 1.246 . S
O232 Tb222 2.453 . S
O232 C228 1.245 . S
O233 Tb220 2.343 . S
O233 Tb222 2.596 . S
O233 C228 1.259 . S
O234 Tb222 2.374 . S
O234 C229 1.250 . S
O235 Tb220 2.353 . S
O235 C229 1.263 . S
C236 O237 1.275 . S
C236 O238 1.246 . S
O237 Tb220 2.427 . S
O237 C236 1.275 . S
O238 Tb220 2.513 . S
O238 C236 1.246 . S
C239 O223 1.245 . S
C239 O224 1.259 . S
Tb240 O243 2.453 . S
Tb240 O244 2.596 . S
Tb240 O245 2.374 . S
Tb240 O253 2.343 1_556 S
Tb240 O255 2.353 1_556 S
Tb240 O257 2.427 1_556 S
Tb240 O258 2.513 1_556 S
C241 O245 1.251 1_554 S
C241 O247 1.263 . S
Tb242 O244 2.343 1_554 S
Tb242 O247 2.353 . S
Tb242 O250 2.427 1_554 S
Tb242 O251 2.513 1_554 S
Tb242 O252 2.453 . S
Tb242 O253 2.596 . S
Tb242 O254 2.374 . S
O243 Tb240 2.453 . S
O243 C259 1.245 . S
O244 Tb240 2.596 . S
O244 Tb242 2.343 1_556 S
O244 C259 1.259 . S
O245 Tb240 2.374 . S
O245 C241 1.251 1_556 S
C246 O250 1.275 . S
C246 O251 1.246 . S
O247 C241 1.263 . S
O247 Tb242 2.353 . S
C248 O252 1.245 . S
C248 O253 1.259 . S
C249 O254 1.250 . S
C249 O255 1.263 . S
O250 Tb242 2.427 1_556 S
O250 C246 1.275 . S
O251 Tb242 2.513 1_556 S
O251 C246 1.246 . S
O252 Tb242 2.453 . S
O252 C248 1.245 . S
O253 Tb240 2.343 1_554 S
O253 Tb242 2.596 . S
O253 C248 1.259 . S
O254 Tb242 2.374 . S
O254 C249 1.250 . S
O255 Tb240 2.353 1_554 S
O255 C249 1.263 . S
C256 O257 1.275 . S
C256 O258 1.246 . S
O257 Tb240 2.427 1_554 S
O257 C256 1.275 . S
O258 Tb240 2.513 1_554 S
O258 C256 1.246 . S
C259 O243 1.245 . S
C259 O244 1.259 . S
Tb260 O263 2.453 . S
Tb260 O264 2.596 . S
Tb260 O265 2.374 . S
Tb260 O273 2.343 . S
Tb260 O275 2.353 . S
Tb260 O277 2.427 . S
Tb260 O278 2.513 . S
C261 O265 1.251 . S
C261 O267 1.263 . S
Tb262 O264 2.343 . S
Tb262 O267 2.353 . S
Tb262 O270 2.427 . S
Tb262 O271 2.513 . S
Tb262 O272 2.453 1_556 S
Tb262 O273 2.596 . S
Tb262 O274 2.374 . S
O263 Tb260 2.453 . S
O263 C279 1.245 . S
O264 Tb260 2.596 . S
O264 Tb262 2.343 . S
O264 C279 1.259 . S
O265 Tb260 2.374 . S
O265 C261 1.251 . S
C266 O270 1.275 . S
C266 O271 1.246 . S
O267 C261 1.263 . S
O267 Tb262 2.353 . S
C268 O272 1.245 . S
C268 O273 1.259 1_554 S
C269 O274 1.250 . S
C269 O275 1.263 . S
O270 Tb262 2.427 . S
O270 C266 1.275 . S
O271 Tb262 2.513 . S
O271 C266 1.246 . S
O272 Tb262 2.453 1_554 S
O272 C268 1.245 . S
O273 Tb260 2.343 . S
O273 Tb262 2.596 . S
O273 C268 1.259 1_556 S
O274 Tb262 2.374 . S
O274 C269 1.250 . S
O275 Tb260 2.353 . S
O275 C269 1.263 . S
C276 O277 1.275 . S
C276 O278 1.246 . S
O277 Tb260 2.427 . S
O277 C276 1.275 . S
O278 Tb260 2.513 . S
O278 C276 1.246 . S
C279 O263 1.245 . S
C279 O264 1.259 . S
Tb280 O283 2.453 . S
Tb280 O284 2.596 . S
Tb280 O285 2.374 . S
Tb280 O293 2.343 . S
Tb280 O295 2.353 . S
Tb280 O297 2.427 . S
Tb280 O298 2.513 . S
C281 O285 1.251 . S
C281 O287 1.263 . S
Tb282 O284 2.343 . S
Tb282 O287 2.353 . S
Tb282 O290 2.427 . S
Tb282 O291 2.513 . S
Tb282 O292 2.453 . S
Tb282 O293 2.596 . S
Tb282 O294 2.374 . S
O283 Tb280 2.453 . S
O283 C299 1.245 . S
O284 Tb280 2.596 . S
O284 Tb282 2.343 . S
O284 C299 1.259 . S
O285 Tb280 2.374 . S
O285 C281 1.251 . S
C286 O290 1.275 . S
C286 O291 1.246 . S
O287 C281 1.263 . S
O287 Tb282 2.353 . S
C288 O292 1.245 . S
C288 O293 1.259 . S
C289 O294 1.250 . S
C289 O295 1.263 . S
O290 Tb282 2.427 . S
O290 C286 1.275 . S
O291 Tb282 2.513 . S
O291 C286 1.246 . S
O292 Tb282 2.453 . S
O292 C288 1.245 . S
O293 Tb280 2.343 . S
O293 Tb282 2.596 . S
O293 C288 1.259 . S
O294 Tb282 2.374 . S
O294 C289 1.250 . S
O295 Tb280 2.353 . S
O295 C289 1.263 . S
C296 O297 1.275 . S
C296 O298 1.246 . S
O297 Tb280 2.427 . S
O297 C296 1.275 . S
O298 Tb280 2.513 . S
O298 C296 1.246 . S
C299 O283 1.245 . S
C299 O284 1.259 . S
Tb300 O303 2.453 . S
Tb300 O304 2.596 . S
Tb300 O305 2.374 . S
Tb300 O313 2.343 . S
Tb300 O315 2.353 . S
Tb300 O317 2.427 . S
Tb300 O318 2.513 . S
C301 O305 1.251 . S
C301 O307 1.263 . S
Tb302 O304 2.343 . S
Tb302 O307 2.353 . S
Tb302 O310 2.427 . S
Tb302 O311 2.513 . S
Tb302 O312 2.453 . S
Tb302 O313 2.596 . S
Tb302 O314 2.374 . S
O303 Tb300 2.453 . S
O303 C319 1.245 . S
O304 Tb300 2.596 . S
O304 Tb302 2.343 . S
O304 C319 1.259 . S
O305 Tb300 2.374 . S
O305 C301 1.251 . S
C306 O310 1.275 . S
C306 O311 1.246 . S
O307 C301 1.263 . S
O307 Tb302 2.353 . S
C308 O312 1.245 . S
C308 O313 1.259 . S
C309 O314 1.250 . S
C309 O315 1.263 . S
O310 Tb302 2.427 . S
O310 C306 1.275 . S
O311 Tb302 2.513 . S
O311 C306 1.246 . S
O312 Tb302 2.453 . S
O312 C308 1.245 . S
O313 Tb300 2.343 . S
O313 Tb302 2.596 . S
O313 C308 1.259 . S
O314 Tb302 2.374 . S
O314 C309 1.250 . S
O315 Tb300 2.353 . S
O315 C309 1.263 . S
C316 O317 1.275 . S
C316 O318 1.246 . S
O317 Tb300 2.427 . S
O317 C316 1.275 . S
O318 Tb300 2.513 . S
O318 C316 1.246 . S
C319 O303 1.245 . S
C319 O304 1.259 . S
H320 C328 0.929 . S
H321 C330 0.930 . S
H322 C332 0.930 . S
H323 C335 0.929 . S
H324 C338 0.930 . S
H325 C340 0.960 . S
H326 C340 0.960 . S
H327 C340 0.960 . S
C328 H320 0.929 . S
C328 C329 1.377 . S
C328 C330 1.384 . S
C329 C328 1.377 . S
C329 C335 1.390 . S
C330 H321 0.930 . S
C330 C328 1.384 . S
C330 C331 1.372 . S
C331 C330 1.372 . S
C331 C332 1.400 . S
C331 C336 1.490 . S
C332 H322 0.930 . S
C332 C331 1.400 . S
C332 C335 1.386 . S
H333 C349 0.930 . S
H334 C350 0.931 . S
C335 H323 0.929 . S
C335 C329 1.390 . S
C335 C332 1.386 . S
C336 C331 1.490 . S
C336 C338 1.395 . S
C336 C339 1.403 . S
H337 C343 0.930 . S
C338 H324 0.930 . S
C338 C336 1.395 . S
C338 C341 1.403 . S
C339 C336 1.403 . S
C339 C340 1.524 . S
C339 C343 1.400 . S
C340 H325 0.960 . S
C340 H326 0.960 . S
C340 H327 0.960 . S
C340 C339 1.524 . S
C341 C338 1.403 . S
C341 C342 1.392 . S
C341 C345 1.495 . S
C342 C341 1.392 . S
C342 C343 1.385 . S
C342 C344 1.478 . S
C343 H337 0.930 . S
C343 C339 1.400 . S
C343 C342 1.385 . S
C344 C342 1.478 . S
C344 C346 1.381 . S
C344 C350 1.383 . S
C345 C341 1.495 . S
C345 H351 0.959 . S
C345 H352 0.961 . S
C345 H353 0.960 . S
C346 C344 1.381 . S
C346 C347 1.394 . S
C346 H354 0.930 . S
C347 C346 1.394 . S
C347 C348 1.383 . S
C347 H355 0.929 . S
C348 C347 1.383 . S
C348 C349 1.377 . S
C349 H333 0.930 . S
C349 C348 1.377 . S
C349 C350 1.379 . S
C350 H334 0.931 . S
C350 C344 1.383 . S
C350 C349 1.379 . S
H351 C345 0.959 . S
H352 C345 0.961 . S
H353 C345 0.960 . S
H354 C346 0.930 . S
H355 C347 0.929 . S
H356 C364 0.929 . S
H357 C366 0.930 . S
H358 C368 0.930 . S
H359 C371 0.929 . S
H360 C374 0.930 . S
H361 C376 0.960 1_556 S
H362 C376 0.960 . S
H363 C376 0.960 . S
C364 H356 0.929 . S
C364 C365 1.377 . S
C364 C366 1.384 . S
C365 C364 1.377 . S
C365 C371 1.390 . S
C366 H357 0.930 . S
C366 C364 1.384 . S
C366 C367 1.372 . S
C367 C366 1.372 . S
C367 C368 1.400 . S
C367 C372 1.487 1_554 S
C368 H358 0.930 . S
C368 C367 1.400 . S
C368 C371 1.386 . S
H369 C385 0.930 . S
H370 C386 0.931 . S
C371 H359 0.929 . S
C371 C365 1.390 . S
C371 C368 1.386 . S
C372 C367 1.487 1_556 S
C372 C374 1.396 . S
C372 C375 1.404 . S
H373 C379 0.930 . S
C374 H360 0.930 . S
C374 C372 1.396 . S
C374 C377 1.403 . S
C375 C372 1.404 . S
C375 C376 1.524 1_556 S
C375 C379 1.400 . S
C376 H361 0.960 1_554 S
C376 H362 0.960 . S
C376 H363 0.960 . S
C376 C375 1.524 1_554 S
C377 C374 1.403 . S
C377 C378 1.392 . S
C377 C381 1.495 . S
C378 C377 1.392 . S
C378 C379 1.385 . S
C378 C380 1.478 . S
C379 H373 0.930 . S
C379 C375 1.400 . S
C379 C378 1.385 . S
C380 C378 1.478 . S
C380 C382 1.381 . S
C380 C386 1.383 . S
C381 C377 1.495 . S
C381 H387 0.959 . S
C381 H388 0.961 . S
C381 H389 0.960 . S
C382 C380 1.381 . S
C382 C383 1.394 . S
C382 H390 0.930 . S
C383 C382 1.394 . S
C383 C384 1.383 . S
C383 H391 0.929 . S
C384 C383 1.383 . S
C384 C385 1.377 . S
C385 H369 0.930 . S
C385 C384 1.377 . S
C385 C386 1.379 . S
C386 H370 0.931 . S
C386 C380 1.383 . S
C386 C385 1.379 . S
H387 C381 0.959 . S
H388 C381 0.961 . S
H389 C381 0.960 . S
H390 C382 0.930 . S
H391 C383 0.929 . S
H392 C400 0.929 . S
H393 C402 0.930 . S
H394 C404 0.930 . S
H395 C407 0.929 . S
H396 C410 0.930 . S
H397 C412 0.960 . S
H398 C412 0.960 . S
H399 C412 0.960 . S
C400 H392 0.929 . S
C400 C401 1.377 . S
C400 C402 1.384 . S
C401 C400 1.377 . S
C401 C407 1.390 . S
C402 H393 0.930 . S
C402 C400 1.384 . S
C402 C403 1.372 . S
C403 C402 1.372 . S
C403 C404 1.400 . S
C403 C408 1.490 . S
C404 H394 0.930 . S
C404 C403 1.400 . S
C404 C407 1.386 . S
H405 C421 0.930 . S
H406 C422 0.931 . S
C407 H395 0.929 . S
C407 C401 1.390 . S
C407 C404 1.386 . S
C408 C403 1.490 . S
C408 C410 1.395 . S
C408 C411 1.403 . S
H409 C415 0.930 . S
C410 H396 0.930 . S
C410 C408 1.395 . S
C410 C413 1.403 . S
C411 C408 1.403 . S
C411 C412 1.524 . S
C411 C415 1.400 . S
C412 H397 0.960 . S
C412 H398 0.960 . S
C412 H399 0.960 . S
C412 C411 1.524 . S
C413 C410 1.403 . S
C413 C414 1.392 . S
C413 C417 1.495 . S
C414 C413 1.392 . S
C414 C415 1.385 . S
C414 C416 1.478 1_554 S
C415 H409 0.930 . S
C415 C411 1.400 . S
C415 C414 1.385 . S
C416 C414 1.478 1_556 S
C416 C418 1.381 . S
C416 C422 1.383 . S
C417 C413 1.495 . S
C417 H423 0.959 . S
C417 H424 0.961 . S
C417 H425 0.960 . S
C418 C416 1.381 . S
C418 C419 1.394 . S
C418 H426 0.930 . S
C419 C418 1.394 . S
C419 C420 1.383 . S
C419 H427 0.929 . S
C420 C419 1.383 . S
C420 C421 1.377 . S
C421 H405 0.930 . S
C421 C420 1.377 . S
C421 C422 1.379 . S
C422 H406 0.931 . S
C422 C416 1.383 . S
C422 C421 1.379 . S
H423 C417 0.959 . S
H424 C417 0.961 . S
H425 C417 0.960 . S
H426 C418 0.930 . S
H427 C419 0.929 . S
H428 C436 0.929 . S
H429 C438 0.930 . S
H430 C440 0.930 . S
H431 C443 0.929 . S
H432 C446 0.930 . S
H433 C448 0.960 . S
H434 C448 0.960 . S
H435 C448 0.960 . S
C436 H428 0.929 . S
C436 C437 1.377 . S
C436 C438 1.384 . S
C437 C436 1.377 . S
C437 C443 1.390 . S
C438 H429 0.930 . S
C438 C436 1.384 . S
C438 C439 1.372 . S
C439 C438 1.372 . S
C439 C440 1.400 . S
C439 C444 1.490 . S
C440 H430 0.930 . S
C440 C439 1.400 . S
C440 C443 1.386 . S
H441 C457 0.930 . S
H442 C458 0.931 . S
C443 H431 0.929 . S
C443 C437 1.390 . S
C443 C440 1.386 . S
C444 C439 1.490 . S
C444 C446 1.395 . S
C444 C447 1.403 . S
H445 C451 0.930 . S
C446 H432 0.930 . S
C446 C444 1.395 . S
C446 C449 1.403 . S
C447 C444 1.403 . S
C447 C448 1.524 . S
C447 C451 1.400 . S
C448 H433 0.960 . S
C448 H434 0.960 . S
C448 H435 0.960 . S
C448 C447 1.524 . S
C449 C446 1.403 . S
C449 C450 1.392 . S
C449 C453 1.495 . S
C450 C449 1.392 . S
C450 C451 1.385 . S
C450 C452 1.478 . S
C451 H445 0.930 . S
C451 C447 1.400 . S
C451 C450 1.385 . S
C452 C450 1.478 . S
C452 C454 1.381 . S
C452 C458 1.383 . S
C453 C449 1.495 . S
C453 H459 0.959 . S
C453 H460 0.961 . S
C453 H461 0.960 . S
C454 C452 1.381 . S
C454 C455 1.394 . S
C454 H462 0.930 . S
C455 C454 1.394 . S
C455 C456 1.383 . S
C455 H463 0.929 . S
C456 C455 1.383 . S
C456 C457 1.377 . S
C457 H441 0.930 . S
C457 C456 1.377 . S
C457 C458 1.379 . S
C458 H442 0.931 . S
C458 C452 1.383 . S
C458 C457 1.379 . S
H459 C453 0.959 . S
H460 C453 0.961 . S
H461 C453 0.960 . S
H462 C454 0.930 . S
H463 C455 0.929 . S
H464 C472 0.929 . S
H465 C474 0.930 . S
H466 C476 0.930 . S
H467 C479 0.929 . S
H468 C482 0.930 . S
H469 C484 0.960 . S
H470 C484 0.960 . S
H471 C484 0.960 . S
C472 H464 0.929 . S
C472 C473 1.377 . S
C472 C474 1.384 . S
C473 C472 1.377 . S
C473 C479 1.390 . S
C474 H465 0.930 . S
C474 C472 1.384 . S
C474 C475 1.372 . S
C475 C474 1.372 . S
C475 C476 1.400 . S
C475 C480 1.490 . S
C476 H466 0.930 . S
C476 C475 1.400 . S
C476 C479 1.386 . S
H477 C493 0.930 . S
H478 C494 0.931 . S
C479 H467 0.929 . S
C479 C473 1.390 . S
C479 C476 1.386 . S
C480 C475 1.490 . S
C480 C482 1.395 . S
C480 C483 1.403 . S
H481 C487 0.930 . S
C482 H468 0.930 . S
C482 C480 1.395 . S
C482 C485 1.403 . S
C483 C480 1.403 . S
C483 C484 1.524 . S
C483 C487 1.400 . S
C484 H469 0.960 . S
C484 H470 0.960 . S
C484 H471 0.960 . S
C484 C483 1.524 . S
C485 C482 1.403 . S
C485 C486 1.392 . S
C485 C489 1.495 . S
C486 C485 1.392 . S
C486 C487 1.385 . S
C486 C488 1.478 . S
C487 H481 0.930 . S
C487 C483 1.400 . S
C487 C486 1.385 . S
C488 C486 1.478 . S
C488 C490 1.381 . S
C488 C494 1.383 . S
C489 C485 1.495 . S
C489 H495 0.959 . S
C489 H496 0.961 . S
C489 H497 0.960 . S
C490 C488 1.381 . S
C490 C491 1.394 . S
C490 H498 0.930 . S
C491 C490 1.394 . S
C491 C492 1.383 . S
C491 H499 0.929 . S
C492 C491 1.383 . S
C492 C493 1.377 . S
C493 H477 0.930 . S
C493 C492 1.377 . S
C493 C494 1.379 . S
C494 H478 0.931 . S
C494 C488 1.383 . S
C494 C493 1.379 . S
H495 C489 0.959 . S
H496 C489 0.961 . S
H497 C489 0.960 . S
H498 C490 0.930 . S
H499 C491 0.929 . S
H500 C508 0.929 . S
H501 C510 0.930 . S
H502 C512 0.930 . S
H503 C515 0.929 . S
H504 C518 0.930 . S
H505 C520 0.960 . S
H506 C520 0.960 . S
H507 C520 0.960 . S
C508 H500 0.929 . S
C508 C509 1.377 . S
C508 C510 1.384 . S
C509 C508 1.377 . S
C509 C515 1.390 . S
C510 H501 0.930 . S
C510 C508 1.384 . S
C510 C511 1.372 . S
C511 C510 1.372 . S
C511 C512 1.400 . S
C511 C516 1.490 . S
C512 H502 0.930 . S
C512 C511 1.400 . S
C512 C515 1.386 . S
H513 C529 0.930 . S
H514 C530 0.931 . S
C515 H503 0.929 . S
C515 C509 1.390 . S
C515 C512 1.386 . S
C516 C511 1.490 . S
C516 C518 1.395 . S
C516 C519 1.403 . S
H517 C523 0.930 . S
C518 H504 0.930 . S
C518 C516 1.395 . S
C518 C521 1.403 . S
C519 C516 1.403 . S
C519 C520 1.524 . S
C519 C523 1.400 . S
C520 H505 0.960 . S
C520 H506 0.960 . S
C520 H507 0.960 . S
C520 C519 1.524 . S
C521 C518 1.403 . S
C521 C522 1.392 . S
C521 C525 1.495 . S
C522 C521 1.392 . S
C522 C523 1.385 . S
C522 C524 1.478 . S
C523 H517 0.930 . S
C523 C519 1.400 . S
C523 C522 1.385 . S
C524 C522 1.478 . S
C524 C526 1.381 . S
C524 C530 1.383 . S
C525 C521 1.495 . S
C525 H531 0.959 . S
C525 H532 0.961 . S
C525 H533 0.960 . S
C526 C524 1.381 . S
C526 C527 1.394 . S
C526 H534 0.930 . S
C527 C526 1.394 . S
C527 C528 1.383 . S
C527 H535 0.929 . S
C528 C527 1.383 . S
C528 C529 1.377 . S
C529 H513 0.930 . S
C529 C528 1.377 . S
C529 C530 1.379 . S
C530 H514 0.931 . S
C530 C524 1.383 . S
C530 C529 1.379 . S
H531 C525 0.959 . S
H532 C525 0.961 . S
H533 C525 0.960 . S
H534 C526 0.930 . S
H535 C527 0.929 . S
H536 C544 0.929 . S
H537 C546 0.930 . S
H538 C548 0.930 . S
H539 C551 0.929 . S
H540 C554 0.930 . S
H541 C556 0.960 . S
H542 C556 0.960 . S
H543 C556 0.960 . S
C544 H536 0.929 . S
C544 C545 1.377 . S
C544 C546 1.384 . S
C545 C544 1.377 . S
C545 C551 1.390 . S
C546 H537 0.930 . S
C546 C544 1.384 . S
C546 C547 1.372 . S
C547 C546 1.372 . S
C547 C548 1.400 . S
C547 C552 1.490 . S
C548 H538 0.930 . S
C548 C547 1.400 . S
C548 C551 1.386 . S
H549 C565 0.930 . S
H550 C566 0.931 . S
C551 H539 0.929 . S
C551 C545 1.390 . S
C551 C548 1.386 . S
C552 C547 1.490 . S
C552 C554 1.395 . S
C552 C555 1.403 . S
H553 C559 0.930 . S
C554 H540 0.930 . S
C554 C552 1.395 . S
C554 C557 1.403 . S
C555 C552 1.403 . S
C555 C556 1.524 . S
C555 C559 1.400 . S
C556 H541 0.960 . S
C556 H542 0.960 . S
C556 H543 0.960 . S
C556 C555 1.524 . S
C557 C554 1.403 . S
C557 C558 1.392 . S
C557 C561 1.495 . S
C558 C557 1.392 . S
C558 C559 1.385 . S
C558 C560 1.478 1_556 S
C559 H553 0.930 . S
C559 C555 1.400 . S
C559 C558 1.385 . S
C560 C558 1.478 1_554 S
C560 C562 1.381 . S
C560 C566 1.383 . S
C561 C557 1.495 . S
C561 H567 0.959 . S
C561 H568 0.961 . S
C561 H569 0.960 . S
C562 C560 1.381 . S
C562 C563 1.394 . S
C562 H570 0.930 . S
C563 C562 1.394 . S
C563 C564 1.383 . S
C563 H571 0.929 . S
C564 C563 1.383 . S
C564 C565 1.377 . S
C565 H549 0.930 . S
C565 C564 1.377 . S
C565 C566 1.379 . S
C566 H550 0.931 . S
C566 C560 1.383 . S
C566 C565 1.379 . S
H567 C561 0.959 . S
H568 C561 0.961 . S
H569 C561 0.960 . S
H570 C562 0.930 . S
H571 C563 0.929 . S
H572 C580 0.929 . S
H573 C582 0.930 . S
H574 C584 0.930 . S
H575 C587 0.929 . S
H576 C590 0.930 . S
H577 C592 0.960 . S
H578 C592 0.960 . S
H579 C592 0.960 . S
C580 H572 0.929 . S
C580 C581 1.377 . S
C580 C582 1.384 . S
C581 C580 1.377 . S
C581 C587 1.390 . S
C582 H573 0.930 . S
C582 C580 1.384 . S
C582 C583 1.372 . S
C583 C582 1.372 . S
C583 C584 1.400 . S
C583 C588 1.490 1_556 S
C584 H574 0.930 . S
C584 C583 1.400 . S
C584 C587 1.386 . S
H585 C601 0.930 . S
H586 C602 0.931 . S
C587 H575 0.929 . S
C587 C581 1.390 . S
C587 C584 1.386 . S
C588 C583 1.490 1_554 S
C588 C590 1.395 . S
C588 C591 1.403 . S
H589 C595 0.930 . S
C590 H576 0.930 . S
C590 C588 1.395 . S
C590 C593 1.403 . S
C591 C588 1.403 . S
C591 C592 1.524 . S
C591 C595 1.400 . S
C592 H577 0.960 . S
C592 H578 0.960 . S
C592 H579 0.960 . S
C592 C591 1.524 . S
C593 C590 1.403 . S
C593 C594 1.392 . S
C593 C597 1.495 . S
C594 C593 1.392 . S
C594 C595 1.385 . S
C594 C596 1.478 . S
C595 H589 0.930 . S
C595 C591 1.400 . S
C595 C594 1.385 . S
C596 C594 1.478 . S
C596 C598 1.381 . S
C596 C602 1.383 . S
C597 C593 1.495 . S
C597 H603 0.959 . S
C597 H604 0.961 . S
C597 H605 0.960 . S
C598 C596 1.381 . S
C598 C599 1.394 . S
C598 H606 0.930 . S
C599 C598 1.394 . S
C599 C600 1.383 . S
C599 H607 0.929 . S
C600 C599 1.383 . S
C600 C601 1.377 . S
C601 H585 0.930 . S
C601 C600 1.377 . S
C601 C602 1.379 . S
C602 H586 0.931 . S
C602 C596 1.383 . S
C602 C601 1.379 . S
H603 C597 0.959 . S
H604 C597 0.961 . S
H605 C597 0.960 . S
H606 C598 0.930 . S
H607 C599 0.929 . S
H608 C616 0.929 . S
H609 C618 0.930 . S
H610 C620 0.930 . S
H611 C623 0.929 . S
H612 C626 0.930 . S
H613 C628 0.960 . S
H614 C628 0.960 . S
H615 C628 0.960 . S
C616 H608 0.929 . S
C616 C617 1.377 . S
C616 C618 1.384 . S
C617 C616 1.377 . S
C617 C623 1.390 . S
C618 H609 0.930 . S
C618 C616 1.384 . S
C618 C619 1.372 . S
C619 C618 1.372 . S
C619 C620 1.400 . S
C619 C624 1.490 . S
C620 H610 0.930 . S
C620 C619 1.400 . S
C620 C623 1.386 . S
H621 C637 0.930 . S
H622 C638 0.931 . S
C623 H611 0.929 . S
C623 C617 1.390 . S
C623 C620 1.386 . S
C624 C619 1.490 . S
C624 C626 1.395 . S
C624 C627 1.403 . S
H625 C631 0.930 . S
C626 H612 0.930 . S
C626 C624 1.395 . S
C626 C629 1.403 . S
C627 C624 1.403 . S
C627 C628 1.524 . S
C627 C631 1.400 . S
C628 H613 0.960 . S
C628 H614 0.960 . S
C628 H615 0.960 . S
C628 C627 1.524 . S
C629 C626 1.403 . S
C629 C630 1.392 . S
C629 C633 1.495 . S
C630 C629 1.392 . S
C630 C631 1.385 . S
C630 C632 1.478 . S
C631 H625 0.930 . S
C631 C627 1.400 . S
C631 C630 1.385 . S
C632 C630 1.478 . S
C632 C634 1.381 . S
C632 C638 1.383 . S
C633 C629 1.495 . S
C633 H639 0.959 . S
C633 H640 0.961 . S
C633 H641 0.960 . S
C634 C632 1.381 . S
C634 C635 1.394 . S
C634 H642 0.930 . S
C635 C634 1.394 . S
C635 C636 1.383 . S
C635 H643 0.929 . S
C636 C635 1.383 . S
C636 C637 1.377 . S
C637 H621 0.930 . S
C637 C636 1.377 . S
C637 C638 1.379 . S
C638 H622 0.931 . S
C638 C632 1.383 . S
C638 C637 1.379 . S
H639 C633 0.959 . S
H640 C633 0.961 . S
H641 C633 0.960 . S
H642 C634 0.930 . S
H643 C635 0.929 . S
H644 C652 0.929 . S
H645 C654 0.930 . S
H646 C656 0.930 . S
H647 C659 0.929 . S
H648 C662 0.930 . S
H649 C664 0.960 . S
H650 C664 0.960 . S
H651 C664 0.960 . S
C652 H644 0.929 . S
C652 C653 1.377 . S
C652 C654 1.384 . S
C653 C652 1.377 . S
C653 C659 1.390 . S
C654 H645 0.930 . S
C654 C652 1.384 . S
C654 C655 1.372 . S
C655 C654 1.372 . S
C655 C656 1.400 . S
C655 C660 1.490 . S
C656 H646 0.930 . S
C656 C655 1.400 . S
C656 C659 1.386 . S
H657 C673 0.930 . S
H658 C674 0.931 . S
C659 H647 0.929 . S
C659 C653 1.390 . S
C659 C656 1.386 . S
C660 C655 1.490 . S
C660 C662 1.395 . S
C660 C663 1.403 . S
H661 C667 0.930 . S
C662 H648 0.930 . S
C662 C660 1.395 . S
C662 C665 1.403 . S
C663 C660 1.403 . S
C663 C664 1.524 . S
C663 C667 1.400 . S
C664 H649 0.960 . S
C664 H650 0.960 . S
C664 H651 0.960 . S
C664 C663 1.524 . S
C665 C662 1.403 . S
C665 C666 1.392 . S
C665 C669 1.495 . S
C666 C665 1.392 . S
C666 C667 1.385 . S
C666 C668 1.478 1_554 S
C667 H661 0.930 . S
C667 C663 1.400 . S
C667 C666 1.385 . S
C668 C666 1.478 1_556 S
C668 C670 1.381 . S
C668 C674 1.383 . S
C669 C665 1.495 . S
C669 H675 0.959 . S
C669 H676 0.961 . S
C669 H677 0.960 . S
C670 C668 1.381 . S
C670 C671 1.394 . S
C670 H678 0.930 . S
C671 C670 1.394 . S
C671 C672 1.383 . S
C671 H679 0.929 . S
C672 C671 1.383 . S
C672 C673 1.377 . S
C673 H657 0.930 . S
C673 C672 1.377 . S
C673 C674 1.379 . S
C674 H658 0.931 . S
C674 C668 1.383 . S
C674 C673 1.379 . S
H675 C669 0.959 . S
H676 C669 0.961 . S
H677 C669 0.960 . S
H678 C670 0.930 . S
H679 C671 0.929 . S
H680 C688 0.929 . S
H681 C690 0.930 . S
H682 C692 0.930 . S
H683 C695 0.929 . S
H684 C698 0.930 . S
H685 C700 0.960 . S
H686 C700 0.960 . S
H687 C700 0.960 . S
C688 H680 0.929 . S
C688 C689 1.377 . S
C688 C690 1.384 . S
C689 C688 1.377 . S
C689 C695 1.390 . S
C690 H681 0.930 . S
C690 C688 1.384 . S
C690 C691 1.372 . S
C691 C690 1.372 . S
C691 C692 1.400 . S
C691 C696 1.490 1_554 S
C692 H682 0.930 . S
C692 C691 1.400 . S
C692 C695 1.386 . S
H693 C709 0.930 . S
H694 C710 0.931 . S
C695 H683 0.929 . S
C695 C689 1.390 . S
C695 C692 1.386 . S
C696 C691 1.490 1_556 S
C696 C698 1.395 . S
C696 C699 1.403 . S
H697 C703 0.930 . S
C698 H684 0.930 . S
C698 C696 1.395 . S
C698 C701 1.403 . S
C699 C696 1.403 . S
C699 C700 1.524 . S
C699 C703 1.400 . S
C700 H685 0.960 . S
C700 H686 0.960 . S
C700 H687 0.960 . S
C700 C699 1.524 . S
C701 C698 1.403 . S
C701 C702 1.392 . S
C701 C705 1.495 . S
C702 C701 1.392 . S
C702 C703 1.385 . S
C702 C704 1.478 . S
C703 H697 0.930 . S
C703 C699 1.400 . S
C703 C702 1.385 . S
C704 C702 1.478 . S
C704 C706 1.381 . S
C704 C710 1.383 . S
C705 C701 1.495 . S
C705 H711 0.959 . S
C705 H712 0.961 . S
C705 H713 0.960 . S
C706 C704 1.381 . S
C706 C707 1.394 . S
C706 H714 0.930 . S
C707 C706 1.394 . S
C707 C708 1.383 . S
C707 H715 0.929 . S
C708 C707 1.383 . S
C708 C709 1.377 . S
C709 H693 0.930 . S
C709 C708 1.377 . S
C709 C710 1.379 . S
C710 H694 0.931 . S
C710 C704 1.383 . S
C710 C709 1.379 . S
H711 C705 0.959 . S
H712 C705 0.961 . S
H713 C705 0.960 . S
H714 C706 0.930 . S
H715 C707 0.929 . S
H716 C724 0.929 . S
H717 C726 0.930 . S
H718 C728 0.930 . S
H719 C731 0.929 . S
H720 C734 0.930 . S
H721 C736 0.960 . S
H722 C736 0.960 . S
H723 C736 0.960 . S
C724 H716 0.929 . S
C724 C725 1.377 . S
C724 C726 1.384 . S
C725 C724 1.377 . S
C725 C731 1.390 . S
C726 H717 0.930 . S
C726 C724 1.384 . S
C726 C727 1.372 . S
C727 C726 1.372 . S
C727 C728 1.400 . S
C727 C732 1.490 . S
C728 H718 0.930 . S
C728 C727 1.400 . S
C728 C731 1.386 . S
H729 C745 0.930 . S
H730 C746 0.931 . S
C731 H719 0.929 . S
C731 C725 1.390 . S
C731 C728 1.386 . S
C732 C727 1.490 . S
C732 C734 1.395 . S
C732 C735 1.403 . S
H733 C739 0.930 . S
C734 H720 0.930 . S
C734 C732 1.395 . S
C734 C737 1.403 . S
C735 C732 1.403 . S
C735 C736 1.524 . S
C735 C739 1.400 . S
C736 H721 0.960 . S
C736 H722 0.960 . S
C736 H723 0.960 . S
C736 C735 1.524 . S
C737 C734 1.403 . S
C737 C738 1.392 . S
C737 C741 1.495 . S
C738 C737 1.392 . S
C738 C739 1.385 . S
C738 C740 1.478 . S
C739 H733 0.930 . S
C739 C735 1.400 . S
C739 C738 1.385 . S
C740 C738 1.478 . S
C740 C742 1.381 . S
C740 C746 1.383 . S
C741 C737 1.495 . S
C741 H747 0.959 . S
C741 H748 0.961 . S
C741 H749 0.960 . S
C742 C740 1.381 . S
C742 C743 1.394 . S
C742 H750 0.930 . S
C743 C742 1.394 . S
C743 C744 1.383 . S
C743 H751 0.929 . S
C744 C743 1.383 . S
C744 C745 1.377 . S
C745 H729 0.930 . S
C745 C744 1.377 . S
C745 C746 1.379 . S
C746 H730 0.931 . S
C746 C740 1.383 . S
C746 C745 1.379 . S
H747 C741 0.959 . S
H748 C741 0.961 . S
H749 C741 0.960 . S
H750 C742 0.930 . S
H751 C743 0.929 . S
H752 C760 0.929 . S
H753 C762 0.930 . S
H754 C764 0.930 . S
H755 C767 0.929 . S
H756 C770 0.930 . S
H757 C772 0.960 . S
H758 C772 0.960 . S
H759 C772 0.960 . S
C760 H752 0.929 . S
C760 C761 1.377 . S
C760 C762 1.384 . S
C761 C760 1.377 . S
C761 C767 1.390 . S
C762 H753 0.930 . S
C762 C760 1.384 . S
C762 C763 1.372 . S
C763 C762 1.372 . S
C763 C764 1.400 . S
C763 C768 1.490 . S
C764 H754 0.930 . S
C764 C763 1.400 . S
C764 C767 1.386 . S
H765 C781 0.930 . S
H766 C782 0.931 . S
C767 H755 0.929 . S
C767 C761 1.390 . S
C767 C764 1.386 . S
C768 C763 1.490 . S
C768 C770 1.395 . S
C768 C771 1.403 . S
H769 C775 0.930 . S
C770 H756 0.930 . S
C770 C768 1.395 . S
C770 C773 1.403 . S
C771 C768 1.403 . S
C771 C772 1.524 . S
C771 C775 1.400 . S
C772 H757 0.960 . S
C772 H758 0.960 . S
C772 H759 0.960 . S
C772 C771 1.524 . S
C773 C770 1.403 . S
C773 C774 1.392 . S
C773 C777 1.495 . S
C774 C773 1.392 . S
C774 C775 1.385 . S
C774 C776 1.478 . S
C775 H769 0.930 . S
C775 C771 1.400 . S
C775 C774 1.385 . S
C776 C774 1.478 . S
C776 C778 1.381 . S
C776 C782 1.383 . S
C777 C773 1.495 . S
C777 H783 0.959 . S
C777 H784 0.961 . S
C777 H785 0.960 . S
C778 C776 1.381 . S
C778 C779 1.394 . S
C778 H786 0.930 . S
C779 C778 1.394 . S
C779 C780 1.383 . S
C779 H787 0.929 . S
C780 C779 1.383 . S
C780 C781 1.377 . S
C781 H765 0.930 . S
C781 C780 1.377 . S
C781 C782 1.379 . S
C782 H766 0.931 . S
C782 C776 1.383 . S
C782 C781 1.379 . S
H783 C777 0.959 . S
H784 C777 0.961 . S
H785 C777 0.960 . S
H786 C778 0.930 . S
H787 C779 0.929 . S
H788 C796 0.929 . S
H789 C798 0.930 . S
H790 C800 0.930 . S
H791 C803 0.929 . S
H792 C806 0.930 . S
H793 C808 0.960 . S
H794 C808 0.960 . S
H795 C808 0.960 . S
C796 H788 0.929 . S
C796 C797 1.377 . S
C796 C798 1.384 . S
C797 C796 1.377 . S
C797 C803 1.390 . S
C798 H789 0.930 . S
C798 C796 1.384 . S
C798 C799 1.372 . S
C799 C798 1.372 . S
C799 C800 1.400 . S
C799 C804 1.490 . S
C800 H790 0.930 . S
C800 C799 1.400 . S
C800 C803 1.386 . S
H801 C817 0.930 . S
H802 C818 0.931 . S
C803 H791 0.929 . S
C803 C797 1.390 . S
C803 C800 1.386 . S
C804 C799 1.490 . S
C804 C806 1.395 . S
C804 C807 1.403 . S
H805 C811 0.930 . S
C806 H792 0.930 . S
C806 C804 1.395 . S
C806 C809 1.403 . S
C807 C804 1.403 . S
C807 C808 1.524 . S
C807 C811 1.400 . S
C808 H793 0.960 . S
C808 H794 0.960 . S
C808 H795 0.960 . S
C808 C807 1.524 . S
C809 C806 1.403 . S
C809 C810 1.392 . S
C809 C813 1.495 . S
C810 C809 1.392 . S
C810 C811 1.385 . S
C810 C812 1.478 . S
C811 H805 0.930 . S
C811 C807 1.400 . S
C811 C810 1.385 . S
C812 C810 1.478 . S
C812 C814 1.381 . S
C812 C818 1.383 . S
C813 C809 1.495 . S
C813 H819 0.959 . S
C813 H820 0.961 . S
C813 H821 0.960 . S
C814 C812 1.381 . S
C814 C815 1.394 . S
C814 H822 0.930 . S
C815 C814 1.394 . S
C815 C816 1.383 . S
C815 H823 0.929 . S
C816 C815 1.383 . S
C816 C817 1.377 . S
C817 H801 0.930 . S
C817 C816 1.377 . S
C817 C818 1.379 . S
C818 H802 0.931 . S
C818 C812 1.383 . S
C818 C817 1.379 . S
H819 C813 0.959 . S
H820 C813 0.961 . S
H821 C813 0.960 . S
H822 C814 0.930 . S
H823 C815 0.929 . S
H824 C832 0.929 . S
H825 C834 0.930 . S
H826 C836 0.930 . S
H827 C839 0.929 . S
H828 C842 0.930 . S
H829 C844 0.960 . S
H830 C844 0.960 . S
H831 C844 0.960 . S
C832 H824 0.929 . S
C832 C833 1.377 . S
C832 C834 1.384 . S
C833 C832 1.377 . S
C833 C839 1.390 . S
C834 H825 0.930 . S
C834 C832 1.384 . S
C834 C835 1.372 . S
C835 C834 1.372 . S
C835 C836 1.400 . S
C835 C840 1.490 . S
C836 H826 0.930 . S
C836 C835 1.400 . S
C836 C839 1.386 . S
H837 C853 0.930 . S
H838 C854 0.931 . S
C839 H827 0.929 . S
C839 C833 1.390 . S
C839 C836 1.386 . S
C840 C835 1.490 . S
C840 C842 1.395 . S
C840 C843 1.403 . S
H841 C847 0.930 1_556 S
C842 H828 0.930 . S
C842 C840 1.395 . S
C842 C845 1.403 . S
C843 C840 1.403 . S
C843 C844 1.524 . S
C843 C847 1.400 . S
C844 H829 0.960 . S
C844 H830 0.960 . S
C844 H831 0.960 . S
C844 C843 1.524 . S
C845 C842 1.403 . S
C845 C846 1.392 1_554 S
C845 C849 1.495 . S
C846 C845 1.392 1_556 S
C846 C847 1.385 1_556 S
C846 C848 1.478 . S
C847 H841 0.930 1_554 S
C847 C843 1.400 . S
C847 C846 1.385 1_554 S
C848 C846 1.478 . S
C848 C850 1.381 . S
C848 C854 1.383 . S
C849 C845 1.495 . S
C849 H855 0.959 . S
C849 H856 0.961 1_554 S
C849 H857 0.960 1_554 S
C850 C848 1.381 . S
C850 C851 1.394 . S
C850 H858 0.930 . S
C851 C850 1.394 . S
C851 C852 1.383 . S
C851 H859 0.929 . S
C852 C851 1.383 . S
C852 C853 1.377 . S
C853 H837 0.930 . S
C853 C852 1.377 . S
C853 C854 1.379 . S
C854 H838 0.931 . S
C854 C848 1.383 . S
C854 C853 1.379 . S
H855 C849 0.959 . S
H856 C849 0.961 1_556 S
H857 C849 0.960 1_556 S
H858 C850 0.930 . S
H859 C851 0.929 . S
H860 C868 0.929 . S
H861 C870 0.930 . S
H862 C872 0.930 . S
H863 C875 0.929 . S
H864 C878 0.930 . S
H865 C880 0.960 . S
H866 C880 0.960 . S
H867 C880 0.960 . S
C868 H860 0.929 . S
C868 C869 1.377 . S
C868 C870 1.384 . S
C869 C868 1.377 . S
C869 C875 1.390 . S
C870 H861 0.930 . S
C870 C868 1.384 . S
C870 C871 1.372 . S
C871 C870 1.372 . S
C871 C872 1.400 . S
C871 C876 1.490 1_554 S
C872 H862 0.930 . S
C872 C871 1.400 . S
C872 C875 1.386 . S
H873 C889 0.930 . S
H874 C890 0.931 . S
C875 H863 0.929 . S
C875 C869 1.390 . S
C875 C872 1.386 . S
C876 C871 1.490 1_556 S
C876 C878 1.395 . S
C876 C879 1.403 . S
H877 C883 0.930 . S
C878 H864 0.930 . S
C878 C876 1.395 . S
C878 C881 1.403 . S
C879 C876 1.403 . S
C879 C880 1.524 . S
C879 C883 1.400 . S
C880 H865 0.960 . S
C880 H866 0.960 . S
C880 H867 0.960 . S
C880 C879 1.524 . S
C881 C878 1.403 . S
C881 C882 1.392 . S
C881 C885 1.495 . S
C882 C881 1.392 . S
C882 C883 1.385 . S
C882 C884 1.478 . S
C883 H877 0.930 . S
C883 C879 1.400 . S
C883 C882 1.385 . S
C884 C882 1.478 . S
C884 C886 1.381 . S
C884 C890 1.383 . S
C885 C881 1.495 . S
C885 H891 0.959 . S
C885 H892 0.961 . S
C885 H893 0.960 . S
C886 C884 1.381 . S
C886 C887 1.394 . S
C886 H894 0.930 . S
C887 C886 1.394 . S
C887 C888 1.383 . S
C887 H895 0.929 . S
C888 C887 1.383 . S
C888 C889 1.377 . S
C889 H873 0.930 . S
C889 C888 1.377 . S
C889 C890 1.379 . S
C890 H874 0.931 . S
C890 C884 1.383 . S
C890 C889 1.379 . S
H891 C885 0.959 . S
H892 C885 0.961 . S
H893 C885 0.960 . S
H894 C886 0.930 . S
H895 C887 0.929 . S
H896 C904 0.929 . S
H897 C906 0.930 . S
H898 C908 0.930 . S
H899 C911 0.929 . S
H900 C914 0.930 . S
H901 C916 0.960 . S
H902 C916 0.960 . S
H903 C916 0.960 . S
C904 H896 0.929 . S
C904 C905 1.377 . S
C904 C906 1.384 . S
C905 C904 1.377 . S
C905 C911 1.390 . S
C906 H897 0.930 . S
C906 C904 1.384 . S
C906 C907 1.372 . S
C907 C906 1.372 . S
C907 C908 1.400 . S
C907 C912 1.490 . S
C908 H898 0.930 . S
C908 C907 1.400 . S
C908 C911 1.386 . S
H909 C925 0.930 . S
H910 C926 0.931 . S
C911 H899 0.929 . S
C911 C905 1.390 . S
C911 C908 1.386 . S
C912 C907 1.490 . S
C912 C914 1.395 . S
C912 C915 1.403 . S
H913 C919 0.930 . S
C914 H900 0.930 . S
C914 C912 1.395 . S
C914 C917 1.403 . S
C915 C912 1.403 . S
C915 C916 1.524 . S
C915 C919 1.400 . S
C916 H901 0.960 . S
C916 H902 0.960 . S
C916 H903 0.960 . S
C916 C915 1.524 . S
C917 C914 1.403 . S
C917 C918 1.392 . S
C917 C921 1.495 . S
C918 C917 1.392 . S
C918 C919 1.385 . S
C918 C920 1.478 . S
C919 H913 0.930 . S
C919 C915 1.400 . S
C919 C918 1.385 . S
C920 C918 1.478 . S
C920 C922 1.381 . S
C920 C926 1.383 . S
C921 C917 1.495 . S
C921 H927 0.959 . S
C921 H928 0.961 . S
C921 H929 0.960 . S
C922 C920 1.381 . S
C922 C923 1.394 . S
C922 H930 0.930 . S
C923 C922 1.394 . S
C923 C924 1.383 . S
C923 H931 0.929 . S
C924 C923 1.383 . S
C924 C925 1.377 . S
C925 H909 0.930 . S
C925 C924 1.377 . S
C925 C926 1.379 . S
C926 H910 0.931 . S
C926 C920 1.383 . S
C926 C925 1.379 . S
H927 C921 0.959 . S
H928 C921 0.961 . S
H929 C921 0.960 . S
H930 C922 0.930 . S
H931 C923 0.929 . S
H932 C940 0.929 . S
H933 C942 0.930 . S
H934 C944 0.930 . S
H935 C947 0.929 . S
H936 C950 0.930 . S
H937 C952 0.960 . S
H938 C952 0.960 . S
H939 C952 0.960 . S
C940 H932 0.929 . S
C940 C941 1.377 . S
C940 C942 1.384 . S
C941 C940 1.377 . S
C941 C947 1.390 . S
C942 H933 0.930 . S
C942 C940 1.384 . S
C942 C943 1.372 . S
C943 C942 1.372 . S
C943 C944 1.400 . S
C943 C948 1.490 . S
C944 H934 0.930 . S
C944 C943 1.400 . S
C944 C947 1.386 . S
H945 C961 0.930 . S
H946 C962 0.931 . S
C947 H935 0.929 . S
C947 C941 1.390 . S
C947 C944 1.386 . S
C948 C943 1.490 . S
C948 C950 1.395 . S
C948 C951 1.403 . S
H949 C955 0.930 . S
C950 H936 0.930 . S
C950 C948 1.395 . S
C950 C953 1.403 . S
C951 C948 1.403 . S
C951 C952 1.524 . S
C951 C955 1.400 . S
C952 H937 0.960 . S
C952 H938 0.960 . S
C952 H939 0.960 . S
C952 C951 1.524 . S
C953 C950 1.403 . S
C953 C954 1.392 . S
C953 C957 1.495 . S
C954 C953 1.392 . S
C954 C955 1.385 . S
C954 C956 1.478 . S
C955 H949 0.930 . S
C955 C951 1.400 . S
C955 C954 1.385 . S
C956 C954 1.478 . S
C956 C958 1.381 . S
C956 C962 1.383 . S
C957 C953 1.495 . S
C957 H963 0.959 . S
C957 H964 0.961 . S
C957 H965 0.960 . S
C958 C956 1.381 . S
C958 C959 1.394 . S
C958 H966 0.930 . S
C959 C958 1.394 . S
C959 C960 1.383 . S
C959 H967 0.929 . S
C960 C959 1.383 . S
C960 C961 1.377 . S
C961 H945 0.930 . S
C961 C960 1.377 . S
C961 C962 1.379 . S
C962 H946 0.931 . S
C962 C956 1.383 . S
C962 C961 1.379 . S
H963 C957 0.959 . S
H964 C957 0.961 . S
H965 C957 0.960 . S
H966 C958 0.930 . S
H967 C959 0.929 . S
H968 C976 0.929 . S
H969 C978 0.930 . S
H970 C980 0.930 . S
H971 C983 0.929 . S
H972 C986 0.930 . S
H973 C988 0.960 . S
H974 C988 0.960 . S
H975 C988 0.960 . S
C976 H968 0.929 . S
C976 C977 1.377 . S
C976 C978 1.384 . S
C977 C976 1.377 . S
C977 C983 1.390 . S
C978 H969 0.930 . S
C978 C976 1.384 . S
C978 C979 1.372 . S
C979 C978 1.372 . S
C979 C980 1.400 . S
C979 C984 1.490 . S
C980 H970 0.930 . S
C980 C979 1.400 . S
C980 C983 1.386 . S
H981 C997 0.930 . S
H982 C998 0.931 . S
C983 H971 0.929 . S
C983 C977 1.390 . S
C983 C980 1.386 . S
C984 C979 1.490 . S
C984 C986 1.395 . S
C984 C987 1.403 . S
H985 C991 0.930 . S
C986 H972 0.930 . S
C986 C984 1.395 . S
C986 C989 1.403 . S
C987 C984 1.403 . S
C987 C988 1.524 . S
C987 C991 1.400 . S
C988 H973 0.960 . S
C988 H974 0.960 . S
C988 H975 0.960 . S
C988 C987 1.524 . S
C989 C986 1.403 . S
C989 C990 1.392 . S
C989 C993 1.495 . S
C990 C989 1.392 . S
C990 C991 1.385 . S
C990 C992 1.478 . S
C991 H985 0.930 . S
C991 C987 1.400 . S
C991 C990 1.385 . S
C992 C990 1.478 . S
C992 C994 1.381 . S
C992 C998 1.383 . S
C993 C989 1.495 . S
C993 H999 0.959 . S
C993 H1000 0.961 . S
C993 H1001 0.960 . S
C994 C992 1.381 . S
C994 C995 1.394 . S
C994 H1002 0.930 . S
C995 C994 1.394 . S
C995 C996 1.383 . S
C995 H1003 0.929 . S
C996 C995 1.383 . S
C996 C997 1.377 . S
C997 H981 0.930 . S
C997 C996 1.377 . S
C997 C998 1.379 . S
C998 H982 0.931 . S
C998 C992 1.383 . S
C998 C997 1.379 . S
H999 C993 0.959 . S
H1000 C993 0.961 . S
H1001 C993 0.960 . S
H1002 C994 0.930 . S
H1003 C995 0.929 . S
H1004 C1012 0.929 . S
H1005 C1014 0.930 . S
H1006 C1016 0.930 . S
H1007 C1019 0.929 . S
H1008 C1022 0.930 1_554 S
H1009 C1024 0.960 . S
H1010 C1024 0.960 . S
H1011 C1024 0.960 . S
C1012 H1004 0.929 . S
C1012 C1013 1.377 . S
C1012 C1014 1.384 . S
C1013 C1012 1.377 . S
C1013 C1019 1.390 . S
C1014 H1005 0.930 . S
C1014 C1012 1.384 . S
C1014 C1015 1.372 . S
C1015 C1014 1.372 . S
C1015 C1016 1.400 . S
C1015 C1020 1.490 . S
C1016 H1006 0.930 . S
C1016 C1015 1.400 . S
C1016 C1019 1.386 . S
H1017 C1033 0.930 . S
H1018 C1034 0.931 . S
C1019 H1007 0.929 . S
C1019 C1013 1.390 . S
C1019 C1016 1.386 . S
C1020 C1015 1.490 . S
C1020 C1022 1.395 . S
C1020 C1023 1.403 . S
H1021 C1027 0.930 . S
C1022 H1008 0.930 1_556 S
C1022 C1020 1.395 . S
C1022 C1025 1.403 1_655 S
C1023 C1020 1.403 . S
C1023 C1024 1.524 . S
C1023 C1027 1.400 1_655 S
C1024 H1009 0.960 . S
C1024 H1010 0.960 . S
C1024 H1011 0.960 . S
C1024 C1023 1.524 . S
C1025 C1022 1.403 1_455 S
C1025 C1026 1.392 . S
C1025 C1029 1.495 1_556 S
C1026 C1025 1.392 . S
C1026 C1027 1.385 . S
C1026 C1028 1.478 . S
C1027 H1021 0.930 . S
C1027 C1023 1.400 1_455 S
C1027 C1026 1.385 . S
C1028 C1026 1.478 . S
C1028 C1030 1.381 . S
C1028 C1034 1.383 . S
C1029 C1025 1.495 1_554 S
C1029 H1035 0.959 . S
C1029 H1036 0.961 . S
C1029 H1037 0.960 . S
C1030 C1028 1.381 . S
C1030 C1031 1.394 . S
C1030 H1038 0.930 . S
C1031 C1030 1.394 . S
C1031 C1032 1.383 . S
C1031 H1039 0.929 . S
C1032 C1031 1.383 . S
C1032 C1033 1.377 . S
C1033 H1017 0.930 . S
C1033 C1032 1.377 . S
C1033 C1034 1.379 . S
C1034 H1018 0.931 . S
C1034 C1028 1.383 . S
C1034 C1033 1.379 . S
H1035 C1029 0.959 . S
H1036 C1029 0.961 . S
H1037 C1029 0.960 . S
H1038 C1030 0.930 . S
H1039 C1031 0.929 . S
H1040 C1048 0.929 . S
H1041 C1050 0.930 . S
H1042 C1052 0.930 . S
H1043 C1055 0.929 . S
H1044 C1058 0.930 . S
H1045 C1060 0.960 . S
H1046 C1060 0.960 . S
H1047 C1060 0.960 . S
C1048 H1040 0.929 . S
C1048 C1049 1.377 . S
C1048 C1050 1.384 . S
C1049 C1048 1.377 . S
C1049 C1055 1.390 . S
C1050 H1041 0.930 . S
C1050 C1048 1.384 . S
C1050 C1051 1.372 . S
C1051 C1050 1.372 . S
C1051 C1052 1.400 . S
C1051 C1056 1.490 . S
C1052 H1042 0.930 . S
C1052 C1051 1.400 . S
C1052 C1055 1.386 . S
H1053 C1069 0.930 . S
H1054 C1070 0.931 . S
C1055 H1043 0.929 . S
C1055 C1049 1.390 . S
C1055 C1052 1.386 . S
C1056 C1051 1.490 . S
C1056 C1058 1.395 . S
C1056 C1059 1.403 . S
H1057 C1063 0.930 . S
C1058 H1044 0.930 . S
C1058 C1056 1.395 . S
C1058 C1061 1.403 . S
C1059 C1056 1.403 . S
C1059 C1060 1.524 . S
C1059 C1063 1.400 . S
C1060 H1045 0.960 . S
C1060 H1046 0.960 . S
C1060 H1047 0.960 . S
C1060 C1059 1.524 . S
C1061 C1058 1.403 . S
C1061 C1062 1.392 . S
C1061 C1065 1.495 . S
C1062 C1061 1.392 . S
C1062 C1063 1.385 . S
C1062 C1064 1.478 . S
C1063 H1057 0.930 . S
C1063 C1059 1.400 . S
C1063 C1062 1.385 . S
C1064 C1062 1.478 . S
C1064 C1066 1.381 . S
C1064 C1070 1.383 . S
C1065 C1061 1.495 . S
C1065 H1071 0.959 1_556 S
C1065 H1072 0.961 . S
C1065 H1073 0.960 . S
C1066 C1064 1.381 . S
C1066 C1067 1.394 . S
C1066 H1074 0.930 . S
C1067 C1066 1.394 . S
C1067 C1068 1.383 . S
C1067 H1075 0.929 . S
C1068 C1067 1.383 . S
C1068 C1069 1.377 . S
C1069 H1053 0.930 . S
C1069 C1068 1.377 . S
C1069 C1070 1.379 . S
C1070 H1054 0.931 . S
C1070 C1064 1.383 . S
C1070 C1069 1.379 . S
H1071 C1065 0.959 1_554 S
H1072 C1065 0.961 . S
H1073 C1065 0.960 . S
H1074 C1066 0.930 . S
H1075 C1067 0.929 . S
H1076 C1084 0.929 . S
H1077 C1086 0.930 . S
H1078 C1088 0.930 . S
H1079 C1091 0.929 . S
H1080 C1094 0.930 . S
H1081 C1096 0.960 . S
H1082 C1096 0.960 . S
H1083 C1096 0.960 . S
C1084 H1076 0.929 . S
C1084 C1085 1.377 . S
C1084 C1086 1.384 . S
C1085 C1084 1.377 . S
C1085 C1091 1.390 . S
C1086 H1077 0.930 . S
C1086 C1084 1.384 . S
C1086 C1087 1.372 . S
C1087 C1086 1.372 . S
C1087 C1088 1.400 . S
C1087 C1092 1.490 . S
C1088 H1078 0.930 . S
C1088 C1087 1.400 . S
C1088 C1091 1.386 . S
H1089 C1105 0.930 . S
H1090 C1106 0.931 . S
C1091 H1079 0.929 . S
C1091 C1085 1.390 . S
C1091 C1088 1.386 . S
C1092 C1087 1.490 . S
C1092 C1094 1.395 . S
C1092 C1095 1.403 . S
H1093 C1099 0.930 1_656 S
C1094 H1080 0.930 . S
C1094 C1092 1.395 . S
C1094 C1097 1.403 . S
C1095 C1092 1.403 . S
C1095 C1096 1.524 1_554 S
C1095 C1099 1.400 . S
C1096 H1081 0.960 . S
C1096 H1082 0.960 . S
C1096 H1083 0.960 . S
C1096 C1095 1.524 1_556 S
C1097 C1094 1.403 . S
C1097 C1098 1.392 1_455 S
C1097 C1101 1.495 1_455 S
C1098 C1097 1.392 1_655 S
C1098 C1099 1.385 1_655 S
C1098 C1100 1.478 . S
C1099 H1093 0.930 1_454 S
C1099 C1095 1.400 . S
C1099 C1098 1.385 1_455 S
C1100 C1098 1.478 . S
C1100 C1102 1.381 . S
C1100 C1106 1.383 . S
C1101 C1097 1.495 1_655 S
C1101 H1107 0.959 1_655 S
C1101 H1108 0.961 . S
C1101 H1109 0.960 . S
C1102 C1100 1.381 . S
C1102 C1103 1.394 . S
C1102 H1110 0.930 . S
C1103 C1102 1.394 . S
C1103 C1104 1.383 . S
C1103 H1111 0.929 . S
C1104 C1103 1.383 . S
C1104 C1105 1.377 . S
C1105 H1089 0.930 . S
C1105 C1104 1.377 . S
C1105 C1106 1.379 . S
C1106 H1090 0.931 . S
C1106 C1100 1.383 . S
C1106 C1105 1.379 . S
H1107 C1101 0.959 1_455 S
H1108 C1101 0.961 . S
H1109 C1101 0.960 . S
H1110 C1102 0.930 . S
H1111 C1103 0.929 . S
H1112 C1120 0.929 . S
H1113 C1122 0.930 . S
H1114 C1124 0.930 . S
H1115 C1127 0.929 . S
H1116 C1130 0.930 . S
H1117 C1132 0.960 . S
H1118 C1132 0.960 . S
H1119 C1132 0.960 . S
C1120 H1112 0.929 . S
C1120 C1121 1.377 . S
C1120 C1122 1.384 . S
C1121 C1120 1.377 . S
C1121 C1127 1.390 . S
C1122 H1113 0.930 . S
C1122 C1120 1.384 . S
C1122 C1123 1.372 . S
C1123 C1122 1.372 . S
C1123 C1124 1.400 . S
C1123 C1128 1.490 . S
C1124 H1114 0.930 . S
C1124 C1123 1.400 . S
C1124 C1127 1.386 . S
H1125 C1141 0.930 . S
H1126 C1142 0.931 . S
C1127 H1115 0.929 . S
C1127 C1121 1.390 . S
C1127 C1124 1.386 . S
C1128 C1123 1.490 . S
C1128 C1130 1.395 . S
C1128 C1131 1.403 . S
H1129 C1135 0.930 . S
C1130 H1116 0.930 . S
C1130 C1128 1.395 . S
C1130 C1133 1.403 . S
C1131 C1128 1.403 . S
C1131 C1132 1.524 . S
C1131 C1135 1.400 . S
C1132 H1117 0.960 . S
C1132 H1118 0.960 . S
C1132 H1119 0.960 . S
C1132 C1131 1.524 . S
C1133 C1130 1.403 . S
C1133 C1134 1.392 . S
C1133 C1137 1.495 . S
C1134 C1133 1.392 . S
C1134 C1135 1.385 . S
C1134 C1136 1.478 . S
C1135 H1129 0.930 . S
C1135 C1131 1.400 . S
C1135 C1134 1.385 . S
C1136 C1134 1.478 . S
C1136 C1138 1.381 . S
C1136 C1142 1.383 . S
C1137 C1133 1.495 . S
C1137 H1143 0.959 . S
C1137 H1144 0.961 . S
C1137 H1145 0.960 . S
C1138 C1136 1.381 . S
C1138 C1139 1.394 . S
C1138 H1146 0.930 . S
C1139 C1138 1.394 . S
C1139 C1140 1.383 . S
C1139 H1147 0.929 . S
C1140 C1139 1.383 . S
C1140 C1141 1.377 . S
C1141 H1125 0.930 . S
C1141 C1140 1.377 . S
C1141 C1142 1.379 . S
C1142 H1126 0.931 . S
C1142 C1136 1.383 . S
C1142 C1141 1.379 . S
H1143 C1137 0.959 . S
H1144 C1137 0.961 . S
H1145 C1137 0.960 . S
H1146 C1138 0.930 . S
H1147 C1139 0.929 . S
H1148 C1156 0.929 . S
H1149 C1158 0.930 . S
H1150 C1160 0.930 . S
H1151 C1163 0.929 . S
H1152 C1166 0.930 . S
H1153 C1168 0.960 . S
H1154 C1168 0.960 . S
H1155 C1168 0.960 . S
C1156 H1148 0.929 . S
C1156 C1157 1.377 . S
C1156 C1158 1.384 . S
C1157 C1156 1.377 . S
C1157 C1163 1.390 . S
C1158 H1149 0.930 . S
C1158 C1156 1.384 . S
C1158 C1159 1.372 . S
C1159 C1158 1.372 . S
C1159 C1160 1.400 . S
C1159 C1164 1.490 . S
C1160 H1150 0.930 . S
C1160 C1159 1.400 . S
C1160 C1163 1.386 . S
H1161 C1177 0.930 . S
H1162 C1178 0.931 . S
C1163 H1151 0.929 . S
C1163 C1157 1.390 . S
C1163 C1160 1.386 . S
C1164 C1159 1.490 . S
C1164 C1166 1.395 . S
C1164 C1167 1.403 . S
H1165 C1171 0.930 . S
C1166 H1152 0.930 . S
C1166 C1164 1.395 . S
C1166 C1169 1.403 . S
C1167 C1164 1.403 . S
C1167 C1168 1.524 . S
C1167 C1171 1.400 . S
C1168 H1153 0.960 . S
C1168 H1154 0.960 . S
C1168 H1155 0.960 . S
C1168 C1167 1.524 . S
C1169 C1166 1.403 . S
C1169 C1170 1.392 . S
C1169 C1173 1.495 . S
C1170 C1169 1.392 . S
C1170 C1171 1.385 . S
C1170 C1172 1.478 . S
C1171 H1165 0.930 . S
C1171 C1167 1.400 . S
C1171 C1170 1.385 . S
C1172 C1170 1.478 . S
C1172 C1174 1.381 . S
C1172 C1178 1.383 . S
C1173 C1169 1.495 . S
C1173 H1179 0.959 . S
C1173 H1180 0.961 . S
C1173 H1181 0.960 . S
C1174 C1172 1.381 . S
C1174 C1175 1.394 . S
C1174 H1182 0.930 . S
C1175 C1174 1.394 . S
C1175 C1176 1.383 . S
C1175 H1183 0.929 . S
C1176 C1175 1.383 . S
C1176 C1177 1.377 . S
C1177 H1161 0.930 . S
C1177 C1176 1.377 . S
C1177 C1178 1.379 . S
C1178 H1162 0.931 . S
C1178 C1172 1.383 . S
C1178 C1177 1.379 . S
H1179 C1173 0.959 . S
H1180 C1173 0.961 . S
H1181 C1173 0.960 . S
H1182 C1174 0.930 . S
H1183 C1175 0.929 . S
H1184 C1192 0.929 . S
H1185 C1194 0.930 . S
H1186 C1196 0.930 . S
H1187 C1199 0.929 . S
H1188 C1202 0.930 . S
H1189 C1204 0.960 . S
H1190 C1204 0.960 . S
H1191 C1204 0.960 . S
C1192 H1184 0.929 . S
C1192 C1193 1.377 . S
C1192 C1194 1.384 . S
C1193 C1192 1.377 . S
C1193 C1199 1.390 . S
C1194 H1185 0.930 . S
C1194 C1192 1.384 . S
C1194 C1195 1.372 . S
C1195 C1194 1.372 . S
C1195 C1196 1.400 . S
C1195 C1200 1.490 . S
C1196 H1186 0.930 . S
C1196 C1195 1.400 . S
C1196 C1199 1.386 . S
H1197 C1213 0.930 . S
H1198 C1214 0.931 . S
C1199 H1187 0.929 . S
C1199 C1193 1.390 . S
C1199 C1196 1.386 . S
C1200 C1195 1.490 . S
C1200 C1202 1.395 . S
C1200 C1203 1.403 . S
H1201 C1207 0.930 . S
C1202 H1188 0.930 . S
C1202 C1200 1.395 . S
C1202 C1205 1.403 . S
C1203 C1200 1.403 . S
C1203 C1204 1.524 . S
C1203 C1207 1.400 . S
C1204 H1189 0.960 . S
C1204 H1190 0.960 . S
C1204 H1191 0.960 . S
C1204 C1203 1.524 . S
C1205 C1202 1.403 . S
C1205 C1206 1.392 . S
C1205 C1209 1.495 . S
C1206 C1205 1.392 . S
C1206 C1207 1.385 . S
C1206 C1208 1.478 . S
C1207 H1201 0.930 . S
C1207 C1203 1.400 . S
C1207 C1206 1.385 . S
C1208 C1206 1.478 . S
C1208 C1210 1.381 . S
C1208 C1214 1.383 . S
C1209 C1205 1.495 . S
C1209 H1215 0.959 1_556 S
C1209 H1216 0.961 . S
C1209 H1217 0.960 . S
C1210 C1208 1.381 . S
C1210 C1211 1.394 . S
C1210 H1218 0.930 . S
C1211 C1210 1.394 . S
C1211 C1212 1.383 . S
C1211 H1219 0.929 . S
C1212 C1211 1.383 . S
C1212 C1213 1.377 . S
C1213 H1197 0.930 . S
C1213 C1212 1.377 . S
C1213 C1214 1.379 . S
C1214 H1198 0.931 . S
C1214 C1208 1.383 . S
C1214 C1213 1.379 . S
H1215 C1209 0.959 1_554 S
H1216 C1209 0.961 . S
H1217 C1209 0.960 . S
H1218 C1210 0.930 . S
H1219 C1211 0.929 . S
H1220 C1228 0.929 . S
H1221 C1230 0.930 . S
H1222 C1232 0.930 . S
H1223 C1235 0.929 . S
H1224 C1238 0.930 . S
H1225 C1240 0.960 . S
H1226 C1240 0.960 . S
H1227 C1240 0.960 . S
C1228 H1220 0.929 . S
C1228 C1229 1.377 . S
C1228 C1230 1.384 . S
C1229 C1228 1.377 . S
C1229 C1235 1.390 . S
C1230 H1221 0.930 . S
C1230 C1228 1.384 . S
C1230 C1231 1.372 . S
C1231 C1230 1.372 . S
C1231 C1232 1.400 . S
C1231 C1236 1.490 . S
C1232 H1222 0.930 . S
C1232 C1231 1.400 . S
C1232 C1235 1.386 . S
H1233 C1249 0.930 . S
H1234 C1250 0.931 . S
C1235 H1223 0.929 . S
C1235 C1229 1.390 . S
C1235 C1232 1.386 . S
C1236 C1231 1.490 . S
C1236 C1238 1.395 . S
C1236 C1239 1.403 . S
H1237 C1243 0.930 . S
C1238 H1224 0.930 . S
C1238 C1236 1.395 . S
C1238 C1241 1.403 . S
C1239 C1236 1.403 . S
C1239 C1240 1.524 . S
C1239 C1243 1.400 . S
C1240 H1225 0.960 . S
C1240 H1226 0.960 . S
C1240 H1227 0.960 . S
C1240 C1239 1.524 . S
C1241 C1238 1.403 . S
C1241 C1242 1.392 . S
C1241 C1245 1.495 . S
C1242 C1241 1.392 . S
C1242 C1243 1.385 . S
C1242 C1244 1.478 . S
C1243 H1237 0.930 . S
C1243 C1239 1.400 . S
C1243 C1242 1.385 . S
C1244 C1242 1.478 . S
C1244 C1246 1.381 . S
C1244 C1250 1.383 . S
C1245 C1241 1.495 . S
C1245 H1251 0.959 . S
C1245 H1252 0.961 . S
C1245 H1253 0.960 . S
C1246 C1244 1.381 . S
C1246 C1247 1.394 . S
C1246 H1254 0.930 . S
C1247 C1246 1.394 . S
C1247 C1248 1.383 . S
C1247 H1255 0.929 . S
C1248 C1247 1.383 . S
C1248 C1249 1.377 . S
C1249 H1233 0.930 . S
C1249 C1248 1.377 . S
C1249 C1250 1.379 . S
C1250 H1234 0.931 . S
C1250 C1244 1.383 . S
C1250 C1249 1.379 . S
H1251 C1245 0.959 . S
H1252 C1245 0.961 . S
H1253 C1245 0.960 . S
H1254 C1246 0.930 . S
H1255 C1247 0.929 . S
H1256 C1264 0.929 1_556 S
H1257 C1266 0.930 1_556 S
H1258 C1268 0.930 . S
H1259 C1271 0.929 . S
H1260 C1274 0.930 . S
H1261 C1276 0.960 . S
H1262 C1276 0.960 . S
H1263 C1276 0.960 . S
C1264 H1256 0.929 1_554 S
C1264 C1265 1.377 . S
C1264 C1266 1.384 . S
C1265 C1264 1.377 . S
C1265 C1271 1.390 . S
C1266 H1257 0.930 1_554 S
C1266 C1264 1.384 . S
C1266 C1267 1.372 . S
C1267 C1266 1.372 . S
C1267 C1268 1.400 . S
C1267 C1272 1.490 . S
C1268 H1258 0.930 . S
C1268 C1267 1.400 . S
C1268 C1271 1.386 . S
H1269 C1285 0.930 . S
H1270 C1286 0.931 . S
C1271 H1259 0.929 . S
C1271 C1265 1.390 . S
C1271 C1268 1.386 . S
C1272 C1267 1.490 . S
C1272 C1274 1.395 . S
C1272 C1275 1.403 . S
H1273 C1279 0.930 . S
C1274 H1260 0.930 . S
C1274 C1272 1.395 . S
C1274 C1277 1.403 . S
C1275 C1272 1.403 . S
C1275 C1276 1.524 . S
C1275 C1279 1.400 . S
C1276 H1261 0.960 . S
C1276 H1262 0.960 . S
C1276 H1263 0.960 . S
C1276 C1275 1.524 . S
C1277 C1274 1.403 . S
C1277 C1278 1.392 . S
C1277 C1281 1.495 . S
C1278 C1277 1.392 . S
C1278 C1279 1.385 . S
C1278 C1280 1.478 . S
C1279 H1273 0.930 . S
C1279 C1275 1.400 . S
C1279 C1278 1.385 . S
C1280 C1278 1.478 . S
C1280 C1282 1.381 . S
C1280 C1286 1.383 . S
C1281 C1277 1.495 . S
C1281 H1287 0.959 . S
C1281 H1288 0.961 . S
C1281 H1289 0.960 . S
C1282 C1280 1.381 . S
C1282 C1283 1.394 . S
C1282 H1290 0.930 . S
C1283 C1282 1.394 . S
C1283 C1284 1.383 . S
C1283 H1291 0.929 . S
C1284 C1283 1.383 . S
C1284 C1285 1.377 . S
C1285 H1269 0.930 . S
C1285 C1284 1.377 . S
C1285 C1286 1.379 . S
C1286 H1270 0.931 . S
C1286 C1280 1.383 . S
C1286 C1285 1.379 . S
H1287 C1281 0.959 . S
H1288 C1281 0.961 . S
H1289 C1281 0.960 . S
H1290 C1282 0.930 . S
H1291 C1283 0.929 . S
H1292 C1300 0.929 . S
H1293 C1302 0.930 . S
H1294 C1304 0.930 . S
H1295 C1307 0.929 . S
H1296 C1310 0.930 . S
H1297 C1312 0.960 . S
H1298 C1312 0.960 . S
H1299 C1312 0.960 . S
C1300 H1292 0.929 . S
C1300 C1301 1.377 . S
C1300 C1302 1.384 . S
C1301 C1300 1.377 . S
C1301 C1307 1.390 . S
C1302 H1293 0.930 . S
C1302 C1300 1.384 . S
C1302 C1303 1.372 . S
C1303 C1302 1.372 . S
C1303 C1304 1.400 . S
C1303 C1308 1.490 . S
C1304 H1294 0.930 . S
C1304 C1303 1.400 . S
C1304 C1307 1.386 . S
H1305 C1321 0.930 . S
H1306 C1322 0.931 . S
C1307 H1295 0.929 . S
C1307 C1301 1.390 . S
C1307 C1304 1.386 . S
C1308 C1303 1.490 . S
C1308 C1310 1.395 . S
C1308 C1311 1.403 . S
H1309 C1315 0.930 . S
C1310 H1296 0.930 . S
C1310 C1308 1.395 . S
C1310 C1313 1.403 . S
C1311 C1308 1.403 . S
C1311 C1312 1.524 . S
C1311 C1315 1.400 . S
C1312 H1297 0.960 . S
C1312 H1298 0.960 . S
C1312 H1299 0.960 . S
C1312 C1311 1.524 . S
C1313 C1310 1.403 . S
C1313 C1314 1.392 . S
C1313 C1317 1.495 . S
C1314 C1313 1.392 . S
C1314 C1315 1.385 . S
C1314 C1316 1.478 . S
C1315 H1309 0.930 . S
C1315 C1311 1.400 . S
C1315 C1314 1.385 . S
C1316 C1314 1.478 . S
C1316 C1318 1.381 . S
C1316 C1322 1.383 . S
C1317 C1313 1.495 . S
C1317 H1323 0.959 . S
C1317 H1324 0.961 . S
C1317 H1325 0.960 . S
C1318 C1316 1.381 . S
C1318 C1319 1.394 . S
C1318 H1326 0.930 . S
C1319 C1318 1.394 . S
C1319 C1320 1.383 . S
C1319 H1327 0.929 . S
C1320 C1319 1.383 . S
C1320 C1321 1.377 . S
C1321 H1305 0.930 . S
C1321 C1320 1.377 . S
C1321 C1322 1.379 . S
C1322 H1306 0.931 . S
C1322 C1316 1.383 . S
C1322 C1321 1.379 . S
H1323 C1317 0.959 . S
H1324 C1317 0.961 . S
H1325 C1317 0.960 . S
H1326 C1318 0.930 . S
H1327 C1319 0.929 . S
H1328 C1336 0.929 . S
H1329 C1338 0.930 . S
H1330 C1340 0.930 . S
H1331 C1343 0.929 . S
H1332 C1346 0.930 . S
H1333 C1348 0.960 . S
H1334 C1348 0.960 . S
H1335 C1348 0.960 . S
C1336 H1328 0.929 . S
C1336 C1337 1.377 . S
C1336 C1338 1.384 . S
C1337 C1336 1.377 . S
C1337 C1343 1.390 1_556 S
C1338 H1329 0.930 . S
C1338 C1336 1.384 . S
C1338 C1339 1.372 . S
C1339 C1338 1.372 . S
C1339 C1340 1.400 1_556 S
C1339 C1344 1.490 . S
C1340 H1330 0.930 . S
C1340 C1339 1.400 1_554 S
C1340 C1343 1.386 . S
H1341 C1357 0.930 . S
H1342 C1358 0.931 . S
C1343 H1331 0.929 . S
C1343 C1337 1.390 1_554 S
C1343 C1340 1.386 . S
C1344 C1339 1.490 . S
C1344 C1346 1.395 . S
C1344 C1347 1.403 1_556 S
H1345 C1351 0.930 . S
C1346 H1332 0.930 . S
C1346 C1344 1.395 . S
C1346 C1349 1.403 1_655 S
C1347 C1344 1.403 1_554 S
C1347 C1348 1.524 . S
C1347 C1351 1.400 1_655 S
C1348 H1333 0.960 . S
C1348 H1334 0.960 . S
C1348 H1335 0.960 . S
C1348 C1347 1.524 . S
C1349 C1346 1.403 1_455 S
C1349 C1350 1.392 . S
C1349 C1353 1.495 . S
C1350 C1349 1.392 . S
C1350 C1351 1.385 1_556 S
C1350 C1352 1.478 . S
C1351 H1345 0.930 . S
C1351 C1347 1.400 1_455 S
C1351 C1350 1.385 1_554 S
C1352 C1350 1.478 . S
C1352 C1354 1.381 . S
C1352 C1358 1.383 1_556 S
C1353 C1349 1.495 . S
C1353 H1359 0.959 . S
C1353 H1360 0.961 . S
C1353 H1361 0.960 . S
C1354 C1352 1.381 . S
C1354 C1355 1.394 . S
C1354 H1362 0.930 . S
C1355 C1354 1.394 . S
C1355 C1356 1.383 1_556 S
C1355 H1363 0.929 . S
C1356 C1355 1.383 1_554 S
C1356 C1357 1.377 . S
C1357 H1341 0.930 . S
C1357 C1356 1.377 . S
C1357 C1358 1.379 . S
C1358 H1342 0.931 . S
C1358 C1352 1.383 1_554 S
C1358 C1357 1.379 . S
H1359 C1353 0.959 . S
H1360 C1353 0.961 . S
H1361 C1353 0.960 . S
H1362 C1354 0.930 . S
H1363 C1355 0.929 . S
H1364 C1372 0.929 . S
H1365 C1374 0.930 . S
H1366 C1376 0.930 . S
H1367 C1379 0.929 . S
H1368 C1382 0.930 . S
H1369 C1384 0.960 . S
H1370 C1384 0.960 . S
H1371 C1384 0.960 . S
C1372 H1364 0.929 . S
C1372 C1373 1.377 . S
C1372 C1374 1.384 . S
C1373 C1372 1.377 . S
C1373 C1379 1.390 . S
C1374 H1365 0.930 . S
C1374 C1372 1.384 . S
C1374 C1375 1.372 . S
C1375 C1374 1.372 . S
C1375 C1376 1.400 . S
C1375 C1380 1.490 . S
C1376 H1366 0.930 . S
C1376 C1375 1.400 . S
C1376 C1379 1.386 . S
H1377 C1393 0.930 . S
H1378 C1394 0.931 . S
C1379 H1367 0.929 . S
C1379 C1373 1.390 . S
C1379 C1376 1.386 . S
C1380 C1375 1.490 . S
C1380 C1382 1.395 . S
C1380 C1383 1.403 . S
H1381 C1387 0.930 . S
C1382 H1368 0.930 . S
C1382 C1380 1.395 . S
C1382 C1385 1.403 . S
C1383 C1380 1.403 . S
C1383 C1384 1.524 . S
C1383 C1387 1.400 . S
C1384 H1369 0.960 . S
C1384 H1370 0.960 . S
C1384 H1371 0.960 . S
C1384 C1383 1.524 . S
C1385 C1382 1.403 . S
C1385 C1386 1.392 . S
C1385 C1389 1.495 . S
C1386 C1385 1.392 . S
C1386 C1387 1.385 . S
C1386 C1388 1.478 . S
C1387 H1381 0.930 . S
C1387 C1383 1.400 . S
C1387 C1386 1.385 . S
C1388 C1386 1.478 . S
C1388 C1390 1.381 . S
C1388 C1394 1.383 . S
C1389 C1385 1.495 . S
C1389 H1395 0.959 . S
C1389 H1396 0.961 . S
C1389 H1397 0.960 . S
C1390 C1388 1.381 . S
C1390 C1391 1.394 . S
C1390 H1398 0.930 . S
C1391 C1390 1.394 . S
C1391 C1392 1.383 . S
C1391 H1399 0.929 . S
C1392 C1391 1.383 . S
C1392 C1393 1.377 . S
C1393 H1377 0.930 . S
C1393 C1392 1.377 . S
C1393 C1394 1.379 . S
C1394 H1378 0.931 . S
C1394 C1388 1.383 . S
C1394 C1393 1.379 . S
H1395 C1389 0.959 . S
H1396 C1389 0.961 . S
H1397 C1389 0.960 . S
H1398 C1390 0.930 . S
H1399 C1391 0.929 . S
H1400 C1408 0.929 . S
H1401 C1410 0.930 . S
H1402 C1412 0.930 . S
H1403 C1415 0.929 . S
H1404 C1418 0.930 . S
H1405 C1420 0.960 . S
H1406 C1420 0.960 . S
H1407 C1420 0.960 . S
C1408 H1400 0.929 . S
C1408 C1409 1.377 . S
C1408 C1410 1.384 . S
C1409 C1408 1.377 . S
C1409 C1415 1.390 . S
C1410 H1401 0.930 . S
C1410 C1408 1.384 . S
C1410 C1411 1.372 . S
C1411 C1410 1.372 . S
C1411 C1412 1.400 . S
C1411 C1416 1.490 . S
C1412 H1402 0.930 . S
C1412 C1411 1.400 . S
C1412 C1415 1.386 . S
H1413 C1429 0.930 . S
H1414 C1430 0.931 . S
C1415 H1403 0.929 . S
C1415 C1409 1.390 . S
C1415 C1412 1.386 . S
C1416 C1411 1.490 . S
C1416 C1418 1.395 . S
C1416 C1419 1.403 . S
H1417 C1423 0.930 . S
C1418 H1404 0.930 . S
C1418 C1416 1.395 . S
C1418 C1421 1.403 . S
C1419 C1416 1.403 . S
C1419 C1420 1.524 . S
C1419 C1423 1.400 . S
C1420 H1405 0.960 . S
C1420 H1406 0.960 . S
C1420 H1407 0.960 . S
C1420 C1419 1.524 . S
C1421 C1418 1.403 . S
C1421 C1422 1.392 . S
C1421 C1425 1.495 . S
C1422 C1421 1.392 . S
C1422 C1423 1.385 . S
C1422 C1424 1.478 . S
C1423 H1417 0.930 . S
C1423 C1419 1.400 . S
C1423 C1422 1.385 . S
C1424 C1422 1.478 . S
C1424 C1426 1.381 . S
C1424 C1430 1.383 . S
C1425 C1421 1.495 . S
C1425 H1431 0.959 . S
C1425 H1432 0.961 . S
C1425 H1433 0.960 . S
C1426 C1424 1.381 . S
C1426 C1427 1.394 . S
C1426 H1434 0.930 . S
C1427 C1426 1.394 . S
C1427 C1428 1.383 . S
C1427 H1435 0.929 . S
C1428 C1427 1.383 . S
C1428 C1429 1.377 . S
C1429 H1413 0.930 . S
C1429 C1428 1.377 . S
C1429 C1430 1.379 . S
C1430 H1414 0.931 . S
C1430 C1424 1.383 . S
C1430 C1429 1.379 . S
H1431 C1425 0.959 . S
H1432 C1425 0.961 . S
H1433 C1425 0.960 . S
H1434 C1426 0.930 . S
H1435 C1427 0.929 . S
H1436 C1444 0.929 . S
H1437 C1446 0.930 . S
H1438 C1448 0.930 . S
H1439 C1451 0.929 . S
H1440 C1454 0.930 . S
H1441 C1456 0.960 . S
H1442 C1456 0.960 . S
H1443 C1456 0.960 . S
C1444 H1436 0.929 . S
C1444 C1445 1.377 1_556 S
C1444 C1446 1.384 . S
C1445 C1444 1.377 1_554 S
C1445 C1451 1.390 . S
C1446 H1437 0.930 . S
C1446 C1444 1.384 . S
C1446 C1447 1.372 1_556 S
C1447 C1446 1.372 1_554 S
C1447 C1448 1.400 . S
C1447 C1452 1.490 1_554 S
C1448 H1438 0.930 . S
C1448 C1447 1.400 . S
C1448 C1451 1.386 . S
H1449 C1465 0.930 . S
H1450 C1466 0.931 . S
C1451 H1439 0.929 . S
C1451 C1445 1.390 . S
C1451 C1448 1.386 . S
C1452 C1447 1.490 1_556 S
C1452 C1454 1.395 . S
C1452 C1455 1.403 1_556 S
H1453 C1459 0.930 . S
C1454 H1440 0.930 . S
C1454 C1452 1.395 . S
C1454 C1457 1.403 1_455 S
C1455 C1452 1.403 1_554 S
C1455 C1456 1.524 . S
C1455 C1459 1.400 1_455 S
C1456 H1441 0.960 . S
C1456 H1442 0.960 . S
C1456 H1443 0.960 . S
C1456 C1455 1.524 . S
C1457 C1454 1.403 1_655 S
C1457 C1458 1.392 . S
C1457 C1461 1.495 . S
C1458 C1457 1.392 . S
C1458 C1459 1.385 1_556 S
C1458 C1460 1.478 . S
C1459 H1453 0.930 . S
C1459 C1455 1.400 1_655 S
C1459 C1458 1.385 1_554 S
C1460 C1458 1.478 . S
C1460 C1462 1.381 . S
C1460 C1466 1.383 . S
C1461 C1457 1.495 . S
C1461 H1467 0.959 . S
C1461 H1468 0.961 . S
C1461 H1469 0.960 . S
C1462 C1460 1.381 . S
C1462 C1463 1.394 . S
C1462 H1470 0.930 . S
C1463 C1462 1.394 . S
C1463 C1464 1.383 . S
C1463 H1471 0.929 . S
C1464 C1463 1.383 . S
C1464 C1465 1.377 . S
C1465 H1449 0.930 . S
C1465 C1464 1.377 . S
C1465 C1466 1.379 . S
C1466 H1450 0.931 . S
C1466 C1460 1.383 . S
C1466 C1465 1.379 . S
H1467 C1461 0.959 . S
H1468 C1461 0.961 . S
H1469 C1461 0.960 . S
H1470 C1462 0.930 . S
H1471 C1463 0.929 . S
H1472 C1480 0.929 . S
H1473 C1482 0.930 . S
H1474 C1484 0.930 . S
H1475 C1487 0.929 . S
H1476 C1490 0.930 . S
H1477 C1492 0.960 . S
H1478 C1492 0.960 . S
H1479 C1492 0.960 . S
C1480 H1472 0.929 . S
C1480 C1481 1.377 . S
C1480 C1482 1.384 . S
C1481 C1480 1.377 . S
C1481 C1487 1.390 . S
C1482 H1473 0.930 . S
C1482 C1480 1.384 . S
C1482 C1483 1.372 . S
C1483 C1482 1.372 . S
C1483 C1484 1.400 . S
C1483 C1488 1.490 . S
C1484 H1474 0.930 . S
C1484 C1483 1.400 . S
C1484 C1487 1.386 . S
H1485 C1501 0.930 1_554 S
H1486 C1502 0.931 . S
C1487 H1475 0.929 . S
C1487 C1481 1.390 . S
C1487 C1484 1.386 . S
C1488 C1483 1.490 . S
C1488 C1490 1.395 1_554 S
C1488 C1491 1.403 . S
H1489 C1495 0.930 . S
C1490 H1476 0.930 . S
C1490 C1488 1.395 1_556 S
C1490 C1493 1.403 . S
C1491 C1488 1.403 . S
C1491 C1492 1.524 . S
C1491 C1495 1.400 . S
C1492 H1477 0.960 . S
C1492 H1478 0.960 . S
C1492 H1479 0.960 . S
C1492 C1491 1.524 . S
C1493 C1490 1.403 . S
C1493 C1494 1.392 1_556 S
C1493 C1497 1.495 . S
C1494 C1493 1.392 1_554 S
C1494 C1495 1.385 . S
C1494 C1496 1.478 1_554 S
C1495 H1489 0.930 . S
C1495 C1491 1.400 . S
C1495 C1494 1.385 . S
C1496 C1494 1.478 1_556 S
C1496 C1498 1.381 . S
C1496 C1502 1.383 1_556 S
C1497 C1493 1.495 . S
C1497 H1503 0.959 . S
C1497 H1504 0.961 . S
C1497 H1505 0.960 . S
C1498 C1496 1.381 . S
C1498 C1499 1.394 . S
C1498 H1506 0.930 . S
C1499 C1498 1.394 . S
C1499 C1500 1.383 . S
C1499 H1507 0.929 . S
C1500 C1499 1.383 . S
C1500 C1501 1.377 . S
C1501 H1485 0.930 1_556 S
C1501 C1500 1.377 . S
C1501 C1502 1.379 1_556 S
C1502 H1486 0.931 . S
C1502 C1496 1.383 1_554 S
C1502 C1501 1.379 1_554 S
H1503 C1497 0.959 . S
H1504 C1497 0.961 . S
H1505 C1497 0.960 . S
H1506 C1498 0.930 . S
H1507 C1499 0.929 . S
H1508 C1516 0.929 . S
H1509 C1518 0.930 . S
H1510 C1520 0.930 . S
H1511 C1523 0.929 . S
H1512 C1526 0.930 . S
H1513 C1528 0.960 . S
H1514 C1528 0.960 . S
H1515 C1528 0.960 . S
C1516 H1508 0.929 . S
C1516 C1517 1.377 . S
C1516 C1518 1.384 . S
C1517 C1516 1.377 . S
C1517 C1523 1.390 . S
C1518 H1509 0.930 . S
C1518 C1516 1.384 . S
C1518 C1519 1.372 . S
C1519 C1518 1.372 . S
C1519 C1520 1.400 . S
C1519 C1524 1.490 . S
C1520 H1510 0.930 . S
C1520 C1519 1.400 . S
C1520 C1523 1.386 . S
H1521 C1537 0.930 . S
H1522 C1538 0.931 . S
C1523 H1511 0.929 . S
C1523 C1517 1.390 . S
C1523 C1520 1.386 . S
C1524 C1519 1.490 . S
C1524 C1526 1.395 . S
C1524 C1527 1.403 . S
H1525 C1531 0.930 . S
C1526 H1512 0.930 . S
C1526 C1524 1.395 . S
C1526 C1529 1.403 . S
C1527 C1524 1.403 . S
C1527 C1528 1.524 . S
C1527 C1531 1.400 . S
C1528 H1513 0.960 . S
C1528 H1514 0.960 . S
C1528 H1515 0.960 . S
C1528 C1527 1.524 . S
C1529 C1526 1.403 . S
C1529 C1530 1.392 . S
C1529 C1533 1.495 . S
C1530 C1529 1.392 . S
C1530 C1531 1.385 . S
C1530 C1532 1.478 . S
C1531 H1525 0.930 . S
C1531 C1527 1.400 . S
C1531 C1530 1.385 . S
C1532 C1530 1.478 . S
C1532 C1534 1.381 . S
C1532 C1538 1.383 . S
C1533 C1529 1.495 . S
C1533 H1539 0.959 . S
C1533 H1540 0.961 . S
C1533 H1541 0.960 . S
C1534 C1532 1.381 . S
C1534 C1535 1.394 . S
C1534 H1542 0.930 . S
C1535 C1534 1.394 . S
C1535 C1536 1.383 . S
C1535 H1543 0.929 . S
C1536 C1535 1.383 . S
C1536 C1537 1.377 . S
C1537 H1521 0.930 . S
C1537 C1536 1.377 . S
C1537 C1538 1.379 . S
C1538 H1522 0.931 . S
C1538 C1532 1.383 . S
C1538 C1537 1.379 . S
H1539 C1533 0.959 . S
H1540 C1533 0.961 . S
H1541 C1533 0.960 . S
H1542 C1534 0.930 . S
H1543 C1535 0.929 . S
H1544 C1552 0.929 . S
H1545 C1554 0.930 . S
H1546 C1556 0.930 . S
H1547 C1559 0.929 . S
H1548 C1562 0.930 . S
H1549 C1564 0.960 . S
H1550 C1564 0.960 . S
H1551 C1564 0.960 . S
C1552 H1544 0.929 . S
C1552 C1553 1.377 . S
C1552 C1554 1.384 . S
C1553 C1552 1.377 . S
C1553 C1559 1.390 . S
C1554 H1545 0.930 . S
C1554 C1552 1.384 . S
C1554 C1555 1.372 . S
C1555 C1554 1.372 . S
C1555 C1556 1.400 . S
C1555 C1560 1.490 . S
C1556 H1546 0.930 . S
C1556 C1555 1.400 . S
C1556 C1559 1.386 . S
H1557 C1573 0.930 . S
H1558 C1574 0.931 . S
C1559 H1547 0.929 . S
C1559 C1553 1.390 . S
C1559 C1556 1.386 . S
C1560 C1555 1.490 . S
C1560 C1562 1.395 . S
C1560 C1563 1.403 . S
H1561 C1567 0.930 . S
C1562 H1548 0.930 . S
C1562 C1560 1.395 . S
C1562 C1565 1.403 . S
C1563 C1560 1.403 . S
C1563 C1564 1.524 . S
C1563 C1567 1.400 . S
C1564 H1549 0.960 . S
C1564 H1550 0.960 . S
C1564 H1551 0.960 . S
C1564 C1563 1.524 . S
C1565 C1562 1.403 . S
C1565 C1566 1.392 . S
C1565 C1569 1.495 . S
C1566 C1565 1.392 . S
C1566 C1567 1.385 . S
C1566 C1568 1.478 . S
C1567 H1561 0.930 . S
C1567 C1563 1.400 . S
C1567 C1566 1.385 . S
C1568 C1566 1.478 . S
C1568 C1570 1.381 . S
C1568 C1574 1.383 . S
C1569 C1565 1.495 . S
C1569 H1575 0.959 . S
C1569 H1576 0.961 . S
C1569 H1577 0.960 . S
C1570 C1568 1.381 . S
C1570 C1571 1.394 . S
C1570 H1578 0.930 . S
C1571 C1570 1.394 . S
C1571 C1572 1.383 . S
C1571 H1579 0.929 . S
C1572 C1571 1.383 . S
C1572 C1573 1.377 . S
C1573 H1557 0.930 . S
C1573 C1572 1.377 . S
C1573 C1574 1.379 . S
C1574 H1558 0.931 . S
C1574 C1568 1.383 . S
C1574 C1573 1.379 . S
H1575 C1569 0.959 . S
H1576 C1569 0.961 . S
H1577 C1569 0.960 . S
H1578 C1570 0.930 . S
H1579 C1571 0.929 . S
H1580 C1588 0.929 . S
H1581 C1590 0.930 . S
H1582 C1592 0.930 . S
H1583 C1595 0.929 . S
H1584 C1598 0.930 . S
H1585 C1600 0.960 . S
H1586 C1600 0.960 . S
H1587 C1600 0.960 . S
C1588 H1580 0.929 . S
C1588 C1589 1.377 . S
C1588 C1590 1.384 . S
C1589 C1588 1.377 . S
C1589 C1595 1.390 . S
C1590 H1581 0.930 . S
C1590 C1588 1.384 . S
C1590 C1591 1.372 . S
C1591 C1590 1.372 . S
C1591 C1592 1.400 . S
C1591 C1596 1.490 . S
C1592 H1582 0.930 . S
C1592 C1591 1.400 . S
C1592 C1595 1.386 . S
H1593 C1609 0.930 . S
H1594 C1610 0.931 . S
C1595 H1583 0.929 . S
C1595 C1589 1.390 . S
C1595 C1592 1.386 . S
C1596 C1591 1.490 . S
C1596 C1598 1.395 . S
C1596 C1599 1.403 . S
H1597 C1603 0.930 . S
C1598 H1584 0.930 . S
C1598 C1596 1.395 . S
C1598 C1601 1.403 . S
C1599 C1596 1.403 . S
C1599 C1600 1.524 . S
C1599 C1603 1.400 . S
C1600 H1585 0.960 . S
C1600 H1586 0.960 . S
C1600 H1587 0.960 . S
C1600 C1599 1.524 . S
C1601 C1598 1.403 . S
C1601 C1602 1.392 . S
C1601 C1605 1.495 . S
C1602 C1601 1.392 . S
C1602 C1603 1.385 . S
C1602 C1604 1.478 . S
C1603 H1597 0.930 . S
C1603 C1599 1.400 . S
C1603 C1602 1.385 . S
C1604 C1602 1.478 . S
C1604 C1606 1.381 . S
C1604 C1610 1.383 . S
C1605 C1601 1.495 . S
C1605 H1611 0.959 . S
C1605 H1612 0.961 . S
C1605 H1613 0.960 . S
C1606 C1604 1.381 . S
C1606 C1607 1.394 . S
C1606 H1614 0.930 . S
C1607 C1606 1.394 . S
C1607 C1608 1.383 . S
C1607 H1615 0.929 . S
C1608 C1607 1.383 . S
C1608 C1609 1.377 . S
C1609 H1593 0.930 . S
C1609 C1608 1.377 . S
C1609 C1610 1.379 . S
C1610 H1594 0.931 . S
C1610 C1604 1.383 . S
C1610 C1609 1.379 . S
H1611 C1605 0.959 . S
H1612 C1605 0.961 . S
H1613 C1605 0.960 . S
H1614 C1606 0.930 . S
H1615 C1607 0.929 . S
H1616 C1624 0.929 . S
H1617 C1626 0.930 . S
H1618 C1628 0.930 . S
H1619 C1631 0.929 . S
H1620 C1634 0.930 . S
H1621 C1636 0.960 . S
H1622 C1636 0.960 . S
H1623 C1636 0.960 1_556 S
C1624 H1616 0.929 . S
C1624 C1625 1.377 1_554 S
C1624 C1626 1.384 . S
C1625 C1624 1.377 1_556 S
C1625 C1631 1.390 . S
C1626 H1617 0.930 . S
C1626 C1624 1.384 . S
C1626 C1627 1.372 1_554 S
C1627 C1626 1.372 1_556 S
C1627 C1628 1.400 . S
C1627 C1632 1.490 . S
C1628 H1618 0.930 . S
C1628 C1627 1.400 . S
C1628 C1631 1.386 . S
H1629 C1645 0.930 . S
H1630 C1646 0.931 . S
C1631 H1619 0.929 . S
C1631 C1625 1.390 . S
C1631 C1628 1.386 . S
C1632 C1627 1.490 . S
C1632 C1634 1.395 . S
C1632 C1635 1.403 . S
H1633 C1639 0.930 . S
C1634 H1620 0.930 . S
C1634 C1632 1.395 . S
C1634 C1637 1.403 . S
C1635 C1632 1.403 . S
C1635 C1636 1.524 1_556 S
C1635 C1639 1.400 . S
C1636 H1621 0.960 . S
C1636 H1622 0.960 . S
C1636 H1623 0.960 1_554 S
C1636 C1635 1.524 1_554 S
C1637 C1634 1.403 . S
C1637 C1638 1.392 . S
C1637 C1641 1.495 . S
C1638 C1637 1.392 . S
C1638 C1639 1.385 . S
C1638 C1640 1.478 . S
C1639 H1633 0.930 . S
C1639 C1635 1.400 . S
C1639 C1638 1.385 . S
C1640 C1638 1.478 . S
C1640 C1642 1.381 . S
C1640 C1646 1.383 . S
C1641 C1637 1.495 . S
C1641 H1647 0.959 . S
C1641 H1648 0.961 . S
C1641 H1649 0.960 . S
C1642 C1640 1.381 . S
C1642 C1643 1.394 . S
C1642 H1650 0.930 . S
C1643 C1642 1.394 . S
C1643 C1644 1.383 . S
C1643 H1651 0.929 . S
C1644 C1643 1.383 . S
C1644 C1645 1.377 . S
C1645 H1629 0.930 . S
C1645 C1644 1.377 . S
C1645 C1646 1.379 . S
C1646 H1630 0.931 . S
C1646 C1640 1.383 . S
C1646 C1645 1.379 . S
H1647 C1641 0.959 . S
H1648 C1641 0.961 . S
H1649 C1641 0.960 . S
H1650 C1642 0.930 . S
H1651 C1643 0.929 . S
H1652 C1660 0.929 . S
H1653 C1662 0.930 . S
H1654 C1664 0.930 . S
H1655 C1667 0.929 . S
H1656 C1670 0.930 . S
H1657 C1672 0.960 . S
H1658 C1672 0.960 . S
H1659 C1672 0.960 . S
C1660 H1652 0.929 . S
C1660 C1661 1.377 . S
C1660 C1662 1.384 . S
C1661 C1660 1.377 . S
C1661 C1667 1.390 . S
C1662 H1653 0.930 . S
C1662 C1660 1.384 . S
C1662 C1663 1.372 . S
C1663 C1662 1.372 . S
C1663 C1664 1.400 . S
C1663 C1668 1.490 . S
C1664 H1654 0.930 . S
C1664 C1663 1.400 . S
C1664 C1667 1.386 . S
H1665 C1681 0.930 . S
H1666 C1682 0.931 . S
C1667 H1655 0.929 . S
C1667 C1661 1.390 . S
C1667 C1664 1.386 . S
C1668 C1663 1.490 . S
C1668 C1670 1.395 . S
C1668 C1671 1.403 . S
H1669 C1675 0.930 . S
C1670 H1656 0.930 . S
C1670 C1668 1.395 . S
C1670 C1673 1.403 . S
C1671 C1668 1.403 . S
C1671 C1672 1.524 . S
C1671 C1675 1.400 . S
C1672 H1657 0.960 . S
C1672 H1658 0.960 . S
C1672 H1659 0.960 . S
C1672 C1671 1.524 . S
C1673 C1670 1.403 . S
C1673 C1674 1.392 . S
C1673 C1677 1.495 . S
C1674 C1673 1.392 . S
C1674 C1675 1.385 . S
C1674 C1676 1.478 . S
C1675 H1669 0.930 . S
C1675 C1671 1.400 . S
C1675 C1674 1.385 . S
C1676 C1674 1.478 . S
C1676 C1678 1.381 . S
C1676 C1682 1.383 . S
C1677 C1673 1.495 . S
C1677 H1683 0.959 . S
C1677 H1684 0.961 . S
C1677 H1685 0.960 . S
C1678 C1676 1.381 . S
C1678 C1679 1.394 . S
C1678 H1686 0.930 . S
C1679 C1678 1.394 . S
C1679 C1680 1.383 . S
C1679 H1687 0.929 . S
C1680 C1679 1.383 . S
C1680 C1681 1.377 . S
C1681 H1665 0.930 . S
C1681 C1680 1.377 . S
C1681 C1682 1.379 . S
C1682 H1666 0.931 . S
C1682 C1676 1.383 . S
C1682 C1681 1.379 . S
H1683 C1677 0.959 . S
H1684 C1677 0.961 . S
H1685 C1677 0.960 . S
H1686 C1678 0.930 . S
H1687 C1679 0.929 . S
H1688 C1696 0.929 . S
H1689 C1698 0.930 . S
H1690 C1700 0.930 . S
H1691 C1703 0.929 . S
H1692 C1706 0.930 . S
H1693 C1708 0.960 . S
H1694 C1708 0.960 . S
H1695 C1708 0.960 . S
C1696 H1688 0.929 . S
C1696 C1697 1.377 . S
C1696 C1698 1.384 . S
C1697 C1696 1.377 . S
C1697 C1703 1.390 . S
C1698 H1689 0.930 . S
C1698 C1696 1.384 . S
C1698 C1699 1.372 . S
C1699 C1698 1.372 . S
C1699 C1700 1.400 . S
C1699 C1704 1.490 . S
C1700 H1690 0.930 . S
C1700 C1699 1.400 . S
C1700 C1703 1.386 . S
H1701 C1717 0.930 . S
H1702 C1718 0.931 . S
C1703 H1691 0.929 . S
C1703 C1697 1.390 . S
C1703 C1700 1.386 . S
C1704 C1699 1.490 . S
C1704 C1706 1.395 . S
C1704 C1707 1.403 . S
H1705 C1711 0.930 . S
C1706 H1692 0.930 . S
C1706 C1704 1.395 . S
C1706 C1709 1.403 . S
C1707 C1704 1.403 . S
C1707 C1708 1.524 . S
C1707 C1711 1.400 . S
C1708 H1693 0.960 . S
C1708 H1694 0.960 . S
C1708 H1695 0.960 . S
C1708 C1707 1.524 . S
C1709 C1706 1.403 . S
C1709 C1710 1.392 . S
C1709 C1713 1.495 . S
C1710 C1709 1.392 . S
C1710 C1711 1.385 . S
C1710 C1712 1.478 . S
C1711 H1705 0.930 . S
C1711 C1707 1.400 . S
C1711 C1710 1.385 . S
C1712 C1710 1.478 . S
C1712 C1714 1.381 . S
C1712 C1718 1.383 . S
C1713 C1709 1.495 . S
C1713 H1719 0.959 . S
C1713 H1720 0.961 . S
C1713 H1721 0.960 . S
C1714 C1712 1.381 . S
C1714 C1715 1.394 . S
C1714 H1722 0.930 . S
C1715 C1714 1.394 . S
C1715 C1716 1.383 . S
C1715 H1723 0.929 . S
C1716 C1715 1.383 . S
C1716 C1717 1.377 . S
C1717 H1701 0.930 . S
C1717 C1716 1.377 . S
C1717 C1718 1.379 . S
C1718 H1702 0.931 . S
C1718 C1712 1.383 . S
C1718 C1717 1.379 . S
H1719 C1713 0.959 . S
H1720 C1713 0.961 . S
H1721 C1713 0.960 . S
H1722 C1714 0.930 . S
H1723 C1715 0.929 . S
H1724 C1732 0.929 . S
H1725 C1734 0.930 . S
H1726 C1736 0.930 . S
H1727 C1739 0.929 . S
H1728 C1742 0.930 . S
H1729 C1744 0.960 . S
H1730 C1744 0.960 . S
H1731 C1744 0.960 . S
C1732 H1724 0.929 . S
C1732 C1733 1.377 . S
C1732 C1734 1.384 . S
C1733 C1732 1.377 . S
C1733 C1739 1.390 . S
C1734 H1725 0.930 . S
C1734 C1732 1.384 . S
C1734 C1735 1.372 . S
C1735 C1734 1.372 . S
C1735 C1736 1.400 . S
C1735 C1740 1.490 . S
C1736 H1726 0.930 . S
C1736 C1735 1.400 . S
C1736 C1739 1.386 . S
H1737 C1753 0.930 . S
H1738 C1754 0.931 . S
C1739 H1727 0.929 . S
C1739 C1733 1.390 . S
C1739 C1736 1.386 . S
C1740 C1735 1.490 . S
C1740 C1742 1.395 . S
C1740 C1743 1.403 . S
H1741 C1747 0.930 . S
C1742 H1728 0.930 . S
C1742 C1740 1.395 . S
C1742 C1745 1.403 . S
C1743 C1740 1.403 . S
C1743 C1744 1.524 . S
C1743 C1747 1.400 . S
C1744 H1729 0.960 . S
C1744 H1730 0.960 . S
C1744 H1731 0.960 . S
C1744 C1743 1.524 . S
C1745 C1742 1.403 . S
C1745 C1746 1.392 . S
C1745 C1749 1.495 . S
C1746 C1745 1.392 . S
C1746 C1747 1.385 . S
C1746 C1748 1.478 . S
C1747 H1741 0.930 . S
C1747 C1743 1.400 . S
C1747 C1746 1.385 . S
C1748 C1746 1.478 . S
C1748 C1750 1.381 . S
C1748 C1754 1.383 . S
C1749 C1745 1.495 . S
C1749 H1755 0.959 . S
C1749 H1756 0.961 . S
C1749 H1757 0.960 . S
C1750 C1748 1.381 . S
C1750 C1751 1.394 . S
C1750 H1758 0.930 . S
C1751 C1750 1.394 . S
C1751 C1752 1.383 . S
C1751 H1759 0.929 . S
C1752 C1751 1.383 . S
C1752 C1753 1.377 . S
C1753 H1737 0.930 . S
C1753 C1752 1.377 . S
C1753 C1754 1.379 . S
C1754 H1738 0.931 . S
C1754 C1748 1.383 . S
C1754 C1753 1.379 . S
H1755 C1749 0.959 . S
H1756 C1749 0.961 . S
H1757 C1749 0.960 . S
H1758 C1750 0.930 . S
H1759 C1751 0.929 . S
H1760 C1768 0.929 . S
H1761 C1770 0.930 . S
H1762 C1772 0.930 . S
H1763 C1775 0.929 . S
H1764 C1778 0.930 . S
H1765 C1780 0.960 . S
H1766 C1780 0.960 . S
H1767 C1780 0.960 . S
C1768 H1760 0.929 . S
C1768 C1769 1.377 . S
C1768 C1770 1.384 . S
C1769 C1768 1.377 . S
C1769 C1775 1.390 . S
C1770 H1761 0.930 . S
C1770 C1768 1.384 . S
C1770 C1771 1.372 . S
C1771 C1770 1.372 . S
C1771 C1772 1.400 . S
C1771 C1776 1.490 . S
C1772 H1762 0.930 . S
C1772 C1771 1.400 . S
C1772 C1775 1.386 . S
H1773 C1789 0.930 . S
H1774 C1790 0.931 . S
C1775 H1763 0.929 . S
C1775 C1769 1.390 . S
C1775 C1772 1.386 . S
C1776 C1771 1.490 . S
C1776 C1778 1.395 . S
C1776 C1779 1.403 . S
H1777 C1783 0.930 . S
C1778 H1764 0.930 . S
C1778 C1776 1.395 . S
C1778 C1781 1.403 1_565 S
C1779 C1776 1.403 . S
C1779 C1780 1.524 . S
C1779 C1783 1.400 1_565 S
C1780 H1765 0.960 . S
C1780 H1766 0.960 . S
C1780 H1767 0.960 . S
C1780 C1779 1.524 . S
C1781 C1778 1.403 1_545 S
C1781 C1782 1.392 . S
C1781 C1785 1.495 . S
C1782 C1781 1.392 . S
C1782 C1783 1.385 . S
C1782 C1784 1.478 . S
C1783 H1777 0.930 . S
C1783 C1779 1.400 1_545 S
C1783 C1782 1.385 . S
C1784 C1782 1.478 . S
C1784 C1786 1.381 . S
C1784 C1790 1.383 . S
C1785 C1781 1.495 . S
C1785 H1791 0.953 1_545 S
C1785 H1792 0.961 . S
C1785 H1793 0.960 . S
C1786 C1784 1.381 . S
C1786 C1787 1.394 . S
C1786 H1794 0.930 . S
C1787 C1786 1.394 . S
C1787 C1788 1.383 . S
C1787 H1795 0.929 . S
C1788 C1787 1.383 . S
C1788 C1789 1.377 . S
C1789 H1773 0.930 . S
C1789 C1788 1.377 . S
C1789 C1790 1.379 . S
C1790 H1774 0.931 . S
C1790 C1784 1.383 . S
C1790 C1789 1.379 . S
H1791 C1785 0.953 1_565 S
H1792 C1785 0.961 . S
H1793 C1785 0.960 . S
H1794 C1786 0.930 . S
H1795 C1787 0.929 . S
H1796 C1804 0.929 . S
H1797 C1806 0.930 . S
H1798 C1808 0.930 . S
H1799 C1811 0.929 . S
H1800 C1814 0.930 . S
H1801 C1816 0.960 . S
H1802 C1816 0.960 . S
H1803 C1816 0.960 . S
C1804 H1796 0.929 . S
C1804 C1805 1.377 . S
C1804 C1806 1.384 . S
C1805 C1804 1.377 . S
C1805 C1811 1.390 . S
C1806 H1797 0.930 . S
C1806 C1804 1.384 . S
C1806 C1807 1.372 . S
C1807 C1806 1.372 . S
C1807 C1808 1.400 . S
C1807 C1812 1.490 . S
C1808 H1798 0.930 . S
C1808 C1807 1.400 . S
C1808 C1811 1.386 . S
H1809 C1825 0.930 . S
H1810 C1826 0.931 . S
C1811 H1799 0.929 . S
C1811 C1805 1.390 . S
C1811 C1808 1.386 . S
C1812 C1807 1.490 . S
C1812 C1814 1.395 . S
C1812 C1815 1.403 . S
H1813 C1819 0.930 . S
C1814 H1800 0.930 . S
C1814 C1812 1.395 . S
C1814 C1817 1.403 . S
C1815 C1812 1.403 . S
C1815 C1816 1.524 . S
C1815 C1819 1.400 . S
C1816 H1801 0.960 . S
C1816 H1802 0.960 . S
C1816 H1803 0.960 . S
C1816 C1815 1.524 . S
C1817 C1814 1.403 . S
C1817 C1818 1.392 . S
C1817 C1821 1.495 . S
C1818 C1817 1.392 . S
C1818 C1819 1.385 . S
C1818 C1820 1.478 . S
C1819 H1813 0.930 . S
C1819 C1815 1.400 . S
C1819 C1818 1.385 . S
C1820 C1818 1.478 . S
C1820 C1822 1.381 . S
C1820 C1826 1.383 . S
C1821 C1817 1.495 . S
C1821 H1827 0.959 . S
C1821 H1828 0.961 . S
C1821 H1829 0.960 . S
C1822 C1820 1.381 . S
C1822 C1823 1.394 . S
C1822 H1830 0.930 . S
C1823 C1822 1.394 . S
C1823 C1824 1.383 . S
C1823 H1831 0.929 . S
C1824 C1823 1.383 . S
C1824 C1825 1.377 . S
C1825 H1809 0.930 . S
C1825 C1824 1.377 . S
C1825 C1826 1.379 . S
C1826 H1810 0.931 . S
C1826 C1820 1.383 . S
C1826 C1825 1.379 . S
H1827 C1821 0.959 . S
H1828 C1821 0.961 . S
H1829 C1821 0.960 . S
H1830 C1822 0.930 . S
H1831 C1823 0.929 . S
H1832 C1840 0.929 . S
H1833 C1842 0.939 . S
H1834 C1844 0.930 . S
H1835 C1847 0.929 . S
H1836 C1850 0.930 . S
H1837 C1852 0.960 . S
H1838 C1852 0.960 . S
H1839 C1852 0.960 . S
C1840 H1832 0.929 . S
C1840 C1841 1.377 . S
C1840 C1842 1.384 . S
C1841 C1840 1.377 . S
C1841 C1847 1.390 . S
C1842 H1833 0.939 . S
C1842 C1840 1.384 . S
C1842 C1843 1.372 . S
C1843 C1842 1.372 . S
C1843 C1844 1.400 . S
C1843 C1848 1.490 . S
C1844 H1834 0.930 . S
C1844 C1843 1.400 . S
C1844 C1847 1.386 . S
H1845 C1861 0.930 . S
H1846 C1862 0.931 . S
C1847 H1835 0.929 . S
C1847 C1841 1.390 . S
C1847 C1844 1.386 . S
C1848 C1843 1.490 . S
C1848 C1850 1.395 1_554 S
C1848 C1851 1.403 . S
H1849 C1855 0.930 . S
C1850 H1836 0.930 . S
C1850 C1848 1.395 1_556 S
C1850 C1853 1.403 . S
C1851 C1848 1.403 . S
C1851 C1852 1.524 . S
C1851 C1855 1.400 1_565 S
C1852 H1837 0.960 . S
C1852 H1838 0.960 . S
C1852 H1839 0.960 . S
C1852 C1851 1.524 . S
C1853 C1850 1.403 . S
C1853 C1854 1.392 1_566 S
C1853 C1857 1.495 . S
C1854 C1853 1.392 1_544 S
C1854 C1855 1.385 . S
C1854 C1856 1.478 . S
C1855 H1849 0.930 . S
C1855 C1851 1.400 1_545 S
C1855 C1854 1.385 . S
C1856 C1854 1.478 . S
C1856 C1858 1.381 1_554 S
C1856 C1862 1.383 . S
C1857 C1853 1.495 . S
C1857 H1863 0.959 . S
C1857 H1864 0.961 1_565 S
C1857 H1865 0.960 1_565 S
C1858 C1856 1.381 1_556 S
C1858 C1859 1.394 . S
C1858 H1866 0.930 . S
C1859 C1858 1.394 . S
C1859 C1860 1.383 . S
C1859 H1867 0.929 . S
C1860 C1859 1.383 . S
C1860 C1861 1.377 1_556 S
C1861 H1845 0.930 . S
C1861 C1860 1.377 1_554 S
C1861 C1862 1.379 . S
C1862 H1846 0.931 . S
C1862 C1856 1.383 . S
C1862 C1861 1.379 . S
H1863 C1857 0.959 . S
H1864 C1857 0.961 1_545 S
H1865 C1857 0.960 1_545 S
H1866 C1858 0.930 . S
H1867 C1859 0.929 . S
H1868 C1876 0.929 . S
H1869 C1878 0.930 . S
H1870 C1880 0.930 . S
H1871 C1883 0.929 . S
H1872 C1886 0.930 . S
H1873 C1888 0.960 . S
H1874 C1888 0.960 . S
H1875 C1888 0.960 . S
C1876 H1868 0.929 . S
C1876 C1877 1.377 . S
C1876 C1878 1.384 . S
C1877 C1876 1.377 . S
C1877 C1883 1.390 . S
C1878 H1869 0.930 . S
C1878 C1876 1.384 . S
C1878 C1879 1.372 . S
C1879 C1878 1.372 . S
C1879 C1880 1.400 . S
C1879 C1884 1.490 . S
C1880 H1870 0.930 . S
C1880 C1879 1.400 . S
C1880 C1883 1.386 . S
H1881 C1897 0.930 . S
H1882 C1898 0.931 . S
C1883 H1871 0.929 . S
C1883 C1877 1.390 . S
C1883 C1880 1.386 . S
C1884 C1879 1.490 . S
C1884 C1886 1.395 . S
C1884 C1887 1.403 . S
H1885 C1891 0.930 . S
C1886 H1872 0.930 . S
C1886 C1884 1.395 . S
C1886 C1889 1.403 . S
C1887 C1884 1.403 . S
C1887 C1888 1.524 . S
C1887 C1891 1.400 . S
C1888 H1873 0.960 . S
C1888 H1874 0.960 . S
C1888 H1875 0.960 . S
C1888 C1887 1.524 . S
C1889 C1886 1.403 . S
C1889 C1890 1.392 . S
C1889 C1893 1.495 . S
C1890 C1889 1.392 . S
C1890 C1891 1.385 . S
C1890 C1892 1.478 . S
C1891 H1885 0.930 . S
C1891 C1887 1.400 . S
C1891 C1890 1.385 . S
C1892 C1890 1.478 . S
C1892 C1894 1.381 . S
C1892 C1898 1.383 . S
C1893 C1889 1.495 . S
C1893 H1899 0.959 . S
C1893 H1900 0.961 . S
C1893 H1901 0.960 . S
C1894 C1892 1.381 . S
C1894 C1895 1.394 . S
C1894 H1902 0.930 . S
C1895 C1894 1.394 . S
C1895 C1896 1.383 . S
C1895 H1903 0.929 . S
C1896 C1895 1.383 . S
C1896 C1897 1.377 . S
C1897 H1881 0.930 . S
C1897 C1896 1.377 . S
C1897 C1898 1.379 . S
C1898 H1882 0.931 . S
C1898 C1892 1.383 . S
C1898 C1897 1.379 . S
H1899 C1893 0.959 . S
H1900 C1893 0.961 . S
H1901 C1893 0.960 . S
H1902 C1894 0.930 . S
H1903 C1895 0.929 . S
H1904 C1912 0.929 . S
H1905 C1914 0.930 . S
H1906 C1916 0.930 . S
H1907 C1919 0.929 . S
H1908 C1922 0.930 1_565 S
H1909 C1924 0.970 . S
H1910 C1924 0.955 1_565 S
H1911 C1924 0.951 1_565 S
C1912 H1904 0.929 . S
C1912 C1913 1.377 . S
C1912 C1914 1.384 . S
C1913 C1912 1.377 . S
C1913 C1919 1.390 . S
C1914 H1905 0.930 . S
C1914 C1912 1.384 . S
C1914 C1915 1.372 . S
C1915 C1914 1.372 . S
C1915 C1916 1.400 . S
C1915 C1920 1.490 . S
C1916 H1906 0.930 . S
C1916 C1915 1.400 . S
C1916 C1919 1.386 . S
H1917 C1933 0.930 . S
H1918 C1934 0.931 . S
C1919 H1907 0.929 . S
C1919 C1913 1.390 . S
C1919 C1916 1.386 . S
C1920 C1915 1.490 . S
C1920 C1922 1.395 1_565 S
C1920 C1923 1.403 1_565 S
H1921 C1927 0.930 . S
C1922 H1908 0.930 1_545 S
C1922 C1920 1.395 1_545 S
C1922 C1925 1.403 . S
C1923 C1920 1.403 1_545 S
C1923 C1924 1.528 . S
C1923 C1927 1.400 . S
C1924 H1909 0.970 . S
C1924 H1910 0.955 1_545 S
C1924 H1911 0.951 1_545 S
C1924 C1923 1.528 . S
C1925 C1922 1.403 . S
C1925 C1926 1.392 . S
C1925 C1929 1.495 . S
C1926 C1925 1.392 . S
C1926 C1927 1.385 . S
C1926 C1928 1.478 . S
C1927 H1921 0.930 . S
C1927 C1923 1.400 . S
C1927 C1926 1.385 . S
C1928 C1926 1.478 . S
C1928 C1930 1.381 . S
C1928 C1934 1.383 . S
C1929 C1925 1.495 . S
C1929 H1935 0.959 . S
C1929 H1936 0.961 . S
C1929 H1937 0.960 . S
C1930 C1928 1.381 . S
C1930 C1931 1.394 . S
C1930 H1938 0.930 . S
C1931 C1930 1.394 . S
C1931 C1932 1.383 . S
C1931 H1939 0.929 . S
C1932 C1931 1.383 . S
C1932 C1933 1.377 . S
C1933 H1917 0.930 . S
C1933 C1932 1.377 . S
C1933 C1934 1.379 . S
C1934 H1918 0.931 . S
C1934 C1928 1.383 . S
C1934 C1933 1.379 . S
H1935 C1929 0.959 . S
H1936 C1929 0.961 . S
H1937 C1929 0.960 . S
H1938 C1930 0.930 . S
H1939 C1931 0.929 . S
H1940 C1948 0.929 . S
H1941 C1950 0.930 . S
H1942 C1952 0.930 . S
H1943 C1955 0.929 . S
H1944 C1958 0.930 . S
H1945 C1960 0.960 . S
H1946 C1960 0.960 . S
H1947 C1960 0.960 . S
C1948 H1940 0.929 . S
C1948 C1949 1.377 . S
C1948 C1950 1.384 . S
C1949 C1948 1.377 . S
C1949 C1955 1.390 . S
C1950 H1941 0.930 . S
C1950 C1948 1.384 . S
C1950 C1951 1.372 . S
C1951 C1950 1.372 . S
C1951 C1952 1.400 . S
C1951 C1956 1.490 . S
C1952 H1942 0.930 . S
C1952 C1951 1.400 . S
C1952 C1955 1.386 . S
H1953 C1969 0.930 . S
H1954 C1970 0.931 . S
C1955 H1943 0.929 . S
C1955 C1949 1.390 . S
C1955 C1952 1.386 . S
C1956 C1951 1.490 . S
C1956 C1958 1.395 . S
C1956 C1959 1.403 . S
H1957 C1963 0.930 . S
C1958 H1944 0.930 . S
C1958 C1956 1.395 . S
C1958 C1961 1.403 . S
C1959 C1956 1.403 . S
C1959 C1960 1.524 . S
C1959 C1963 1.400 . S
C1960 H1945 0.960 . S
C1960 H1946 0.960 . S
C1960 H1947 0.960 . S
C1960 C1959 1.524 . S
C1961 C1958 1.403 . S
C1961 C1962 1.392 . S
C1961 C1965 1.495 . S
C1962 C1961 1.392 . S
C1962 C1963 1.385 . S
C1962 C1964 1.478 . S
C1963 H1957 0.930 . S
C1963 C1959 1.400 . S
C1963 C1962 1.385 . S
C1964 C1962 1.478 . S
C1964 C1966 1.381 . S
C1964 C1970 1.383 . S
C1965 C1961 1.495 . S
C1965 H1971 0.959 . S
C1965 H1972 0.961 . S
C1965 H1973 0.960 . S
C1966 C1964 1.381 . S
C1966 C1967 1.394 . S
C1966 H1974 0.930 . S
C1967 C1966 1.394 . S
C1967 C1968 1.383 . S
C1967 H1975 0.929 . S
C1968 C1967 1.383 . S
C1968 C1969 1.377 . S
C1969 H1953 0.930 . S
C1969 C1968 1.377 . S
C1969 C1970 1.379 . S
C1970 H1954 0.931 . S
C1970 C1964 1.383 . S
C1970 C1969 1.379 . S
H1971 C1965 0.959 . S
H1972 C1965 0.961 . S
H1973 C1965 0.960 . S
H1974 C1966 0.930 . S
H1975 C1967 0.929 . S
H1976 C1984 0.929 . S
H1977 C1986 0.930 . S
H1978 C1988 0.930 . S
H1979 C1991 0.929 . S
H1980 C1994 0.930 . S
H1981 C1996 0.960 . S
H1982 C1996 0.960 . S
H1983 C1996 0.960 . S
C1984 H1976 0.929 . S
C1984 C1985 1.377 . S
C1984 C1986 1.384 . S
C1985 C1984 1.377 . S
C1985 C1991 1.390 . S
C1986 H1977 0.930 . S
C1986 C1984 1.384 . S
C1986 C1987 1.372 1_556 S
C1987 C1986 1.372 1_554 S
C1987 C1988 1.400 . S
C1987 C1992 1.490 . S
C1988 H1978 0.930 . S
C1988 C1987 1.400 . S
C1988 C1991 1.386 1_554 S
H1989 C2005 0.930 . S
H1990 C2006 0.931 . S
C1991 H1979 0.929 . S
C1991 C1985 1.390 . S
C1991 C1988 1.386 1_556 S
C1992 C1987 1.490 . S
C1992 C1994 1.395 1_554 S
C1992 C1995 1.403 . S
H1993 C1999 0.930 . S
C1994 H1980 0.930 . S
C1994 C1992 1.395 1_556 S
C1994 C1997 1.403 1_545 S
C1995 C1992 1.403 . S
C1995 C1996 1.524 . S
C1995 C1999 1.400 1_545 S
C1996 H1981 0.960 . S
C1996 H1982 0.960 . S
C1996 H1983 0.960 . S
C1996 C1995 1.524 . S
C1997 C1994 1.403 1_565 S
C1997 C1998 1.392 1_556 S
C1997 C2001 1.495 . S
C1998 C1997 1.392 1_554 S
C1998 C1999 1.385 . S
C1998 C2000 1.478 . S
C1999 H1993 0.930 . S
C1999 C1995 1.400 1_565 S
C1999 C1998 1.385 . S
C2000 C1998 1.478 . S
C2000 C2002 1.381 . S
C2000 C2006 1.383 . S
C2001 C1997 1.495 . S
C2001 H2007 0.959 . S
C2001 H2008 0.961 . S
C2001 H2009 0.960 . S
C2002 C2000 1.381 . S
C2002 C2003 1.394 . S
C2002 H2010 0.930 . S
C2003 C2002 1.394 . S
C2003 C2004 1.383 . S
C2003 H2011 0.929 . S
C2004 C2003 1.383 . S
C2004 C2005 1.377 . S
C2005 H1989 0.930 . S
C2005 C2004 1.377 . S
C2005 C2006 1.379 . S
C2006 H1990 0.931 . S
C2006 C2000 1.383 . S
C2006 C2005 1.379 . S
H2007 C2001 0.959 . S
H2008 C2001 0.961 . S
H2009 C2001 0.960 . S
H2010 C2002 0.930 . S
H2011 C2003 0.929 . S
H2012 C2020 0.929 . S
H2013 C2022 0.930 . S
H2014 C2024 0.930 . S
H2015 C2027 0.929 . S
H2016 C2030 0.930 . S
H2017 C2032 0.960 . S
H2018 C2032 0.960 . S
H2019 C2032 0.960 . S
C2020 H2012 0.929 . S
C2020 C2021 1.377 . S
C2020 C2022 1.384 . S
C2021 C2020 1.377 . S
C2021 C2027 1.390 . S
C2022 H2013 0.930 . S
C2022 C2020 1.384 . S
C2022 C2023 1.372 . S
C2023 C2022 1.372 . S
C2023 C2024 1.400 . S
C2023 C2028 1.490 . S
C2024 H2014 0.930 . S
C2024 C2023 1.400 . S
C2024 C2027 1.386 . S
H2025 C2041 0.930 . S
H2026 C2042 0.931 . S
C2027 H2015 0.929 . S
C2027 C2021 1.390 . S
C2027 C2024 1.386 . S
C2028 C2023 1.490 . S
C2028 C2030 1.395 . S
C2028 C2031 1.403 . S
H2029 C2035 0.930 . S
C2030 H2016 0.930 . S
C2030 C2028 1.395 . S
C2030 C2033 1.403 . S
C2031 C2028 1.403 . S
C2031 C2032 1.524 . S
C2031 C2035 1.400 . S
C2032 H2017 0.960 . S
C2032 H2018 0.960 . S
C2032 H2019 0.960 . S
C2032 C2031 1.524 . S
C2033 C2030 1.403 . S
C2033 C2034 1.392 . S
C2033 C2037 1.495 . S
C2034 C2033 1.392 . S
C2034 C2035 1.385 . S
C2034 C2036 1.478 . S
C2035 H2029 0.930 . S
C2035 C2031 1.400 . S
C2035 C2034 1.385 . S
C2036 C2034 1.478 . S
C2036 C2038 1.381 . S
C2036 C2042 1.383 . S
C2037 C2033 1.495 . S
C2037 H2043 0.959 . S
C2037 H2044 0.961 . S
C2037 H2045 0.960 . S
C2038 C2036 1.381 . S
C2038 C2039 1.394 . S
C2038 H2046 0.930 . S
C2039 C2038 1.394 . S
C2039 C2040 1.383 . S
C2039 H2047 0.929 . S
C2040 C2039 1.383 . S
C2040 C2041 1.377 . S
C2041 H2025 0.930 . S
C2041 C2040 1.377 . S
C2041 C2042 1.379 . S
C2042 H2026 0.931 . S
C2042 C2036 1.383 . S
C2042 C2041 1.379 . S
H2043 C2037 0.959 . S
H2044 C2037 0.961 . S
H2045 C2037 0.960 . S
H2046 C2038 0.930 . S
H2047 C2039 0.929 . S
C329 C8 1.800 . S
C348 C19 1.778 . S
C365 C39 1.776 . S
C384 C28 1.748 . S
C401 C48 1.750 . S
C420 C59 1.723 . S
C437 C68 1.769 . S
C456 C79 1.774 . S
C473 C88 1.785 . S
C492 C99 1.789 . S
C509 C108 1.769 . S
C528 C119 1.742 . S
C545 C139 1.780 . S
C564 C128 1.807 . S
C581 C159 1.828 . S
C600 C148 1.839 . S
C617 C179 1.798 1_554 S
C636 C168 1.789 . S
C653 C199 1.777 . S
C672 C188 1.746 . S
C689 C208 1.763 . S
C708 C219 1.761 . S
C725 C239 1.778 . S
C744 C228 1.751 1_556 S
C761 C259 1.778 . S
C780 C248 1.805 . S
C797 C279 1.774 . S
C816 C268 1.796 . S
C833 C288 1.782 . S
C852 C299 1.801 . S
C869 C319 1.819 . S
C888 C308 1.846 . S
C905 C1 1.551 . S
C924 C226 1.500 . S
C941 C36 1.808 . S
C960 C309 1.883 . S
C977 C41 1.635 . S
C996 C189 1.619 . S
C1013 C61 1.966 . S
C1032 C269 2.009 . S
C1049 C81 1.560 . S
C1068 C266 1.430 . S
C1085 C229 1.904 . S
C1104 C116 1.768 . S
C1121 C136 1.425 . S
C1140 C306 1.337 . S
C1157 C156 1.692 . S
C1176 C186 1.714 . S
C1193 C76 1.715 . S
C1212 C169 1.739 . S
C1229 C21 1.908 . S
C1248 C209 1.903 . S
C1265 C249 1.798 . S
C1284 C101 1.780 . S
C1301 C141 1.624 . S
C1320 C286 1.593 . S
C1337 C166 1.495 . S
C1356 C96 1.483 1_554 S
C1373 C121 1.594 . S
C1392 C206 1.561 . S
C1409 C56 1.679 . S
C1428 C289 1.722 . S
C1445 C16 1.646 . S
C1464 C246 1.648 . S
C1481 C9 1.307 . S
C1500 C89 1.289 . S
C1517 C26 1.711 . S
C1536 C106 1.721 . S
C1553 C49 1.425 . S
C1572 C126 1.365 . S
C1589 C69 1.670 . S
C1608 C146 1.648 . S
C1625 C241 1.617 1_556 S
C1644 C161 1.609 . S
C1661 C261 1.772 . S
C1680 C196 1.748 . S
C1697 C201 1.725 . S
C1716 C296 1.681 . S
C1733 C301 1.676 . S
C1752 C221 1.659 . S
C1769 C29 1.679 . S
C1788 C149 1.668 . S
C1805 C86 1.420 . S
C1824 C46 1.387 . S
C1841 C109 1.788 . S
C1860 C66 1.716 . S
C1877 C6 1.325 . S
C1896 C129 1.379 . S
C1913 C316 1.315 . S
C1932 C181 1.351 . S
C1949 C256 1.502 . S
C1968 C216 1.475 . S
C1985 C276 1.420 . S
C2004 C236 1.437 . S
C2021 C281 1.438 . S
C2040 C176 1.387 . S
