# Generated by pormake.
# Topology mok, (4)-cn, num edge types: 1
# Building blocks:
#     Node 0, Type 0, BuildingBlock: NAHDIM_clean_sbu_0, # of connection points: 4
#     Node 1, Type 0, BuildingBlock: NAHDIM_clean_sbu_0, # of connection points: 4
#     Node 2, Type 0, BuildingBlock: NAHDIM_clean_sbu_0, # of connection points: 4
#     Node 3, Type 0, BuildingBlock: NAHDIM_clean_sbu_0, # of connection points: 4
#     Node 4, Type 0, BuildingBlock: NAHDIM_clean_sbu_0, # of connection points: 4
#     Node 5, Type 0, BuildingBlock: NAHDIM_clean_sbu_0, # of connection points: 4
#     Node 6, Type 0, BuildingBlock: NAHDIM_clean_sbu_0, # of connection points: 4
#     Node 7, Type 0, BuildingBlock: NAHDIM_clean_sbu_0, # of connection points: 4
#     Edge 8, Type (0, 0), BuildingBlock: AJUNOK_clean_linker_0, # of connection points: 2
#     Edge 9, Type (0, 0), BuildingBlock: AJUNOK_clean_linker_0, # of connection points: 2
#     Edge 10, Type (0, 0), BuildingBlock: AJUNOK_clean_linker_0, # of connection points: 2
#     Edge 11, Type (0, 0), BuildingBlock: AJUNOK_clean_linker_0, # of connection points: 2
#     Edge 12, Type (0, 0), BuildingBlock: AJUNOK_clean_linker_0, # of connection points: 2
#     Edge 13, Type (0, 0), BuildingBlock: AJUNOK_clean_linker_0, # of connection points: 2
#     Edge 14, Type (0, 0), BuildingBlock: AJUNOK_clean_linker_0, # of connection points: 2
#     Edge 15, Type (0, 0), BuildingBlock: AJUNOK_clean_linker_0, # of connection points: 2
#     Edge 16, Type (0, 0), BuildingBlock: AJUNOK_clean_linker_0, # of connection points: 2
#     Edge 17, Type (0, 0), BuildingBlock: AJUNOK_clean_linker_0, # of connection points: 2
#     Edge 18, Type (0, 0), BuildingBlock: AJUNOK_clean_linker_0, # of connection points: 2
#     Edge 19, Type (0, 0), BuildingBlock: AJUNOK_clean_linker_0, # of connection points: 2
#     Edge 20, Type (0, 0), BuildingBlock: AJUNOK_clean_linker_0, # of connection points: 2
#     Edge 21, Type (0, 0), BuildingBlock: AJUNOK_clean_linker_0, # of connection points: 2
#     Edge 22, Type (0, 0), BuildingBlock: AJUNOK_clean_linker_0, # of connection points: 2
#     Edge 23, Type (0, 0), BuildingBlock: AJUNOK_clean_linker_0, # of connection points: 2
# Relax obj value: 0.049
# Max RMSD: 0.061
# Mean RMSD: 0.061
data_MOF--net-mok--node1-NAHDIM_clean_sbu_0--edge1-AJUNOK_clean_linker_0
_symmetry_space_group_name_H-M    P1
_symmetry_Int_Tables_number       1
_symmetry_cell_setting            triclinic
loop_
_symmetry_equiv_pos_as_xyz
'x, y, z'
_cell_length_a     37.365019
_cell_length_b     14.859563
_cell_length_c     18.316785
_cell_angle_alpha  90.047019
_cell_angle_beta   90.015435
_cell_angle_gamma 90.106051
loop_
_atom_site_label
_atom_site_type_symbol
_atom_site_fract_x
_atom_site_fract_y
_atom_site_fract_z
_atom_type_partial_charge
C0 C 0.53079 0.19833 0.01287 0.0
O1 O 0.51609 0.27015 0.98388 0.0
O2 O 0.57855 0.36441 0.91365 0.0
Zn3 Zn 0.59484 0.30698 0.00738 0.0
O4 O 0.5946 0.3964 0.08992 0.0
C5 C 0.67151 0.31867 0.99296 0.0
O6 O 0.66471 0.40528 0.9969 0.0
O7 O 0.56387 0.20004 0.0289 0.0
C8 C 0.57107 0.40188 0.1398 0.0
O9 O 0.54381 0.346 0.13909 0.0
C10 C 0.56614 0.44385 0.91045 0.0
O11 O 0.56379 0.49199 0.97042 0.0
O12 O 0.64552 0.26345 0.99525 0.0
C13 C 0.4554 0.85613 0.03454 0.0
O14 O 0.47428 0.7834 0.04777 0.0
O15 O 0.42157 0.65949 0.93035 0.0
Zn16 Zn 0.40207 0.72262 0.02006 0.0
O17 O 0.41492 0.66175 0.11503 0.0
C18 C 0.33359 0.76224 0.95602 0.0
O19 O 0.35417 0.7912 0.90282 0.0
O20 O 0.42223 0.84761 0.02122 0.0
C21 C 0.40079 0.58704 0.13257 0.0
O22 O 0.37853 0.54798 0.08686 0.0
C23 C 0.43621 0.58242 0.92763 0.0
O24 O 0.43995 0.53523 0.9877 0.0
O25 O 0.34825 0.7294 0.01265 0.0
C26 C 0.54148 0.84895 0.52135 0.0
O27 O 0.52375 0.77468 0.53604 0.0
O28 O 0.58665 0.67128 0.61689 0.0
Zn29 Zn 0.6 0.7266 0.52078 0.0
O30 O 0.58586 0.64463 0.43837 0.0
C31 C 0.676 0.68819 0.51225 0.0
O32 O 0.66484 0.6052 0.5023 0.0
O33 O 0.575 0.84452 0.51123 0.0
C34 C 0.59762 0.65818 0.37432 0.0
O35 O 0.61938 0.72628 0.36287 0.0
C36 C 0.56537 0.60502 0.62387 0.0
O37 O 0.55052 0.56951 0.56556 0.0
O38 O 0.65303 0.75028 0.52054 0.0
C39 C 0.46428 0.18889 0.5204 0.0
O40 O 0.4794 0.26628 0.50438 0.0
O41 O 0.415 0.36935 0.62814 0.0
Zn42 Zn 0.40218 0.29945 0.53743 0.0
O43 O 0.40973 0.36295 0.44121 0.0
C44 C 0.32506 0.30358 0.51579 0.0
O45 O 0.33219 0.37736 0.47906 0.0
O46 O 0.43126 0.18729 0.53649 0.0
C47 C 0.41038 0.44686 0.42821 0.0
O48 O 0.40709 0.50392 0.4826 0.0
C49 C 0.44054 0.42422 0.63958 0.0
O50 O 0.46241 0.44575 0.58626 0.0
O51 O 0.35065 0.26069 0.54521 0.0
C52 C 0.04593 0.6472 0.0051 0.0
O53 O 0.02916 0.72357 0.99363 0.0
O54 O 0.0878 0.82238 0.90199 0.0
Zn55 Zn 0.10499 0.76662 0.99624 0.0
O56 O 0.09443 0.84558 0.08326 0.0
C57 C 0.1779 0.79387 0.94747 0.0
O58 O 0.16232 0.85324 0.90506 0.0
O59 O 0.07987 0.64787 0.00889 0.0
C60 C 0.10047 0.81246 0.146 0.0
O61 O 0.11214 0.72926 0.15024 0.0
C62 C 0.08016 0.90522 0.89528 0.0
O63 O 0.08254 0.95797 0.95268 0.0
O64 O 0.15872 0.74793 0.99117 0.0
C65 C 0.96172 0.31665 0.01873 0.0
O66 O 0.97506 0.23939 0.04015 0.0
O67 O 0.90312 0.14269 0.90147 0.0
Zn68 Zn 0.89605 0.21298 0.9948 0.0
O69 O 0.89926 0.13766 0.08675 0.0
C70 C 0.82047 0.2003 0.98744 0.0
O71 O 0.82929 0.1148 0.98516 0.0
O72 O 0.92927 0.31989 0.99805 0.0
C73 C 0.92151 0.0775 0.10604 0.0
O74 O 0.94797 0.05623 0.06228 0.0
C75 C 0.93079 0.10188 0.87854 0.0
O76 O 0.96012 0.10119 0.91796 0.0
O77 O 0.84532 0.25866 0.99154 0.0
C78 C 0.04079 0.31198 0.50409 0.0
O79 O 0.02258 0.23773 0.51618 0.0
O80 O 0.09009 0.1307 0.59593 0.0
Zn81 Zn 0.10092 0.19037 0.49937 0.0
O82 O 0.08902 0.11112 0.41299 0.0
C83 C 0.17684 0.18089 0.53359 0.0
O84 O 0.1667 0.11509 0.57675 0.0
O85 O 0.0743 0.30693 0.49386 0.0
C86 C 0.10332 0.0338 0.40851 0.0
O87 O 0.12408 0.00665 0.46202 0.0
C88 C 0.07031 0.0621 0.60581 0.0
O89 O 0.054 0.02497 0.54983 0.0
O90 O 0.15341 0.22133 0.49554 0.0
C91 C 0.9655 0.65513 0.50466 0.0
O92 O 0.9821 0.73301 0.50834 0.0
O93 O 0.91676 0.8373 0.5944 0.0
Zn94 Zn 0.90403 0.76933 0.50226 0.0
O95 O 0.91704 0.83975 0.41148 0.0
C96 C 0.82729 0.78296 0.53172 0.0
O97 O 0.83637 0.85691 0.56649 0.0
O98 O 0.93156 0.65414 0.50155 0.0
C99 C 0.89444 0.89116 0.38081 0.0
O100 O 0.86261 0.90012 0.41027 0.0
C101 C 0.91614 0.92264 0.5984 0.0
O102 O 0.90681 0.96937 0.54064 0.0
O103 O 0.85149 0.73658 0.50081 0.0
C104 C 0.77331 0.32012 0.98993 0.0
C105 C 0.78225 0.22821 0.9867 0.0
C106 C 0.73754 0.34847 0.99103 0.0
C107 C 0.7091 0.28621 0.98901 0.0
H108 H 0.79409 0.37098 0.99214 0.0
H109 H 0.73227 0.42002 0.99415 0.0
S110 S 0.71786 0.03747 0.97824 0.0
N111 N 0.75948 0.07475 0.97992 0.0
N112 N 0.69242 0.12797 0.982 0.0
C113 C 0.71761 0.19402 0.98483 0.0
C114 C 0.75408 0.16509 0.98368 0.0
C115 C 0.23491 0.73986 0.0047 0.0
C116 C 0.21746 0.78368 0.94671 0.0
C117 C 0.27234 0.73291 0.00695 0.0
C118 C 0.29392 0.76891 0.95103 0.0
H119 H 0.21963 0.71189 0.04955 0.0
H120 H 0.28438 0.69935 0.0533 0.0
S121 S 0.26128 0.88601 0.7847 0.0
N122 N 0.22459 0.86079 0.83045 0.0
N123 N 0.29474 0.84749 0.83443 0.0
C124 C 0.27675 0.81136 0.89189 0.0
C125 C 0.23862 0.81884 0.88983 0.0
C126 C 0.76221 0.81795 0.54547 0.0
C127 C 0.78908 0.75612 0.5263 0.0
C128 C 0.72589 0.79543 0.54016 0.0
C129 C 0.7148 0.70976 0.51609 0.0
H130 H 0.76918 0.88485 0.56428 0.0
H131 H 0.70636 0.84576 0.55562 0.0
S132 S 0.77453 0.52262 0.4598 0.0
N133 N 0.80209 0.605 0.48239 0.0
N134 N 0.73383 0.56251 0.47284 0.0
C135 C 0.74138 0.64698 0.49694 0.0
C136 C 0.77846 0.67018 0.50188 0.0
C137 C 0.22451 0.28551 0.48839 0.0
C138 C 0.21492 0.20961 0.53007 0.0
C139 C 0.26005 0.31525 0.48443 0.0
C140 C 0.28764 0.27031 0.52177 0.0
H141 H 0.20439 0.32287 0.45857 0.0
H142 H 0.26583 0.37404 0.45153 0.0
S143 S 0.27702 0.0674 0.63835 0.0
N144 N 0.23616 0.08968 0.60943 0.0
N145 N 0.3029 0.14543 0.60192 0.0
C146 C 0.27852 0.19406 0.5636 0.0
C147 C 0.24223 0.16382 0.56777 0.0
C148 C 0.60366 0.53226 0.19482 0.0
C149 C 0.57557 0.46915 0.1991 0.0
C150 C 0.61001 0.59408 0.25101 0.0
C151 C 0.58873 0.59509 0.31426 0.0
H152 H 0.62129 0.53366 0.14788 0.0
H153 H 0.63233 0.64016 0.2453 0.0
S154 S 0.51021 0.44821 0.35104 0.0
N155 N 0.52503 0.41465 0.27061 0.0
N156 N 0.53718 0.53057 0.37658 0.0
C157 C 0.55998 0.53388 0.3188 0.0
C158 C 0.55332 0.47112 0.26115 0.0
C159 C 0.41415 0.6056 0.26562 0.0
C160 C 0.40676 0.54859 0.2061 0.0
C161 C 0.41612 0.57186 0.33703 0.0
C162 C 0.41132 0.4796 0.35155 0.0
H163 H 0.41713 0.67742 0.25741 0.0
H164 H 0.42084 0.61885 0.38125 0.0
S165 S 0.39578 0.30068 0.21291 0.0
N166 N 0.39754 0.39479 0.16524 0.0
N167 N 0.40181 0.33069 0.29883 0.0
C168 C 0.40579 0.42123 0.29177 0.0
C169 C 0.40332 0.45591 0.21927 0.0
C170 C 0.43431 0.44973 0.84472 0.0
C171 C 0.44312 0.54065 0.8558 0.0
C172 C 0.4347 0.41206 0.77463 0.0
C173 C 0.44479 0.46324 0.71335 0.0
H174 H 0.42514 0.40863 0.88986 0.0
H175 H 0.42623 0.34272 0.76816 0.0
S176 S 0.47522 0.70083 0.71497 0.0
N177 N 0.46535 0.67886 0.80108 0.0
N178 N 0.46724 0.60693 0.66935 0.0
C179 C 0.45619 0.55235 0.72441 0.0
C180 C 0.455 0.5914 0.79568 0.0
C181 C 0.56741 0.57785 0.82915 0.0
C182 C 0.5599 0.48596 0.83864 0.0
C183 C 0.56773 0.61645 0.75952 0.0
C184 C 0.55992 0.56498 0.69695 0.0
H185 H 0.57501 0.61931 0.87532 0.0
H186 H 0.57513 0.6867 0.75458 0.0
S187 S 0.5327 0.32461 0.6942 0.0
N188 N 0.54046 0.34666 0.78118 0.0
N189 N 0.5405 0.41951 0.65006 0.0
C190 C 0.54967 0.47458 0.70633 0.0
C191 C 0.54984 0.43494 0.77728 0.0
C192 C 0.11196 0.83569 0.27903 0.0
C193 C 0.09769 0.86832 0.21307 0.0
C194 C 0.11267 0.88891 0.3421 0.0
C195 C 0.0989 0.97696 0.3423 0.0
H196 H 0.12364 0.76913 0.28182 0.0
H197 H 0.12477 0.86096 0.39079 0.0
S198 S 0.05508 0.09144 0.18572 0.0
N199 N 0.06712 0.99244 0.15304 0.0
N200 N 0.06806 0.09223 0.27191 0.0
C201 C 0.08301 0.00921 0.27762 0.0
C202 C 0.08256 0.95508 0.21297 0.0
C203 C 0.87867 0.00181 0.28359 0.0
C204 C 0.9032 0.93928 0.31202 0.0
C205 C 0.88516 0.04645 0.2177 0.0
C206 C 0.91642 0.03039 0.17686 0.0
H207 H 0.85399 0.01642 0.31219 0.0
H208 H 0.86511 0.0933 0.19837 0.0
S209 S 0.98995 0.87462 0.22799 0.0
N210 N 0.96062 0.86487 0.29492 0.0
N211 N 0.97277 0.94862 0.17072 0.0
C212 C 0.94153 0.96881 0.20496 0.0
C213 C 0.93496 0.92342 0.27255 0.0
C214 C 0.90744 0.05409 0.68129 0.0
C215 C 0.92245 0.96864 0.66904 0.0
C216 C 0.91058 0.09684 0.74914 0.0
C217 C 0.92962 0.05687 0.80675 0.0
H218 H 0.89221 0.0873 0.63884 0.0
H219 H 0.89793 0.16176 0.7566 0.0
S220 S 0.97467 0.83506 0.80302 0.0
N221 N 0.95744 0.84593 0.72043 0.0
N222 N 0.96416 0.92809 0.84742 0.0
C223 C 0.94569 0.97281 0.7949 0.0
C224 C 0.94185 0.92817 0.7262 0.0
C225 C 0.07643 0.03736 0.81127 0.0
C226 C 0.07334 0.94389 0.82188 0.0
C227 C 0.07434 0.07512 0.74136 0.0
C228 C 0.06829 0.02124 0.67939 0.0
H229 H 0.08191 0.08171 0.8569 0.0
H230 H 0.07811 0.14709 0.73573 0.0
S231 S 0.05514 0.77369 0.6777 0.0
N232 N 0.0621 0.79864 0.76443 0.0
N233 N 0.05696 0.87031 0.63341 0.0
C234 C 0.06324 0.9283 0.68942 0.0
C235 C 0.06614 0.88945 0.76052 0.0
C236 C 0.50996 0.95206 0.04676 0.0
C237 C 0.47307 0.94559 0.03234 0.0
C238 C 0.52805 0.03431 0.0419 0.0
C239 C 0.51009 0.11383 0.02214 0.0
H240 H 0.5253 0.89287 0.06111 0.0
H241 H 0.55657 0.03487 0.05247 0.0
S242 S 0.41293 0.13502 0.98308 0.0
N243 N 0.41873 0.02707 1.00061 0.0
N244 N 0.45282 0.18181 0.99135 0.0
C245 C 0.47298 0.10905 0.0093 0.0
C246 C 0.45447 0.02501 0.01443 0.0
C247 C 0.48571 0.94003 0.53244 0.0
C248 C 0.52274 0.93676 0.51923 0.0
C249 C 0.46722 0.02175 0.53255 0.0
C250 C 0.48494 0.10387 0.51941 0.0
H251 H 0.47071 0.879 0.54318 0.0
H252 H 0.43871 0.02017 0.54315 0.0
S253 S 0.58192 0.13273 0.48169 0.0
N254 N 0.57663 0.02323 0.49236 0.0
N255 N 0.5418 0.1769 0.49272 0.0
C256 C 0.52199 0.10181 0.50583 0.0
C257 C 0.54089 0.01833 0.5057 0.0
C258 C 0.98858 0.5615 0.99475 0.0
C259 C 0.02539 0.56186 0.0109 0.0
C260 C 0.96839 0.48216 0.99781 0.0
C261 C 0.98404 0.39954 0.01749 0.0
H262 H 0.97512 0.62292 0.97879 0.0
H263 H 0.94021 0.48594 0.98432 0.0
S264 S 0.07937 0.36405 0.06741 0.0
N265 N 0.07666 0.47254 0.04896 0.0
N266 N 0.03869 0.32336 0.05492 0.0
C267 C 0.02079 0.39891 0.03473 0.0
C268 C 0.04144 0.47995 0.03134 0.0
C269 C 0.98497 0.4044 0.50438 0.0
C270 C 0.02256 0.4006 0.50365 0.0
C271 C 0.96692 0.48686 0.50451 0.0
C272 C 0.98567 0.56918 0.50429 0.0
H273 H 0.9692 0.34316 0.50461 0.0
H274 H 0.93793 0.48572 0.50499 0.0
S275 S 0.08448 0.59678 0.50355 0.0
N276 N 0.0781 0.48685 0.50337 0.0
N277 N 0.04413 0.6417 0.50377 0.0
C278 C 0.02332 0.56656 0.50379 0.0
C279 C 0.04175 0.48241 0.50338 0.0
loop_
_geom_bond_atom_site_label_1
_geom_bond_atom_site_label_2
_geom_bond_distance
_geom_bond_site_symmetry_2
_ccdc_geom_bond_type
C0 O1 1.160 1_554 S
C0 O7 1.185 . S
O1 C0 1.160 1_556 S
O2 Zn3 1.899 1_556 S
O2 C10 1.284 . S
Zn3 O2 1.899 1_554 S
Zn3 O4 2.032 . S
Zn3 O7 2.086 . S
Zn3 O12 1.977 . S
O4 Zn3 2.032 . S
O4 C8 1.278 . S
C5 O6 1.205 . S
C5 O12 1.265 1_556 S
O6 C5 1.205 . S
O7 C0 1.185 . S
O7 Zn3 2.086 . S
C8 O4 1.278 . S
C8 O9 1.211 . S
O9 C8 1.211 . S
C10 O2 1.284 . S
C10 O11 1.273 . S
O11 C10 1.273 . S
O12 Zn3 1.977 . S
O12 C5 1.265 1_554 S
C13 O14 1.160 1_554 S
C13 O20 1.185 . S
O14 C13 1.160 1_556 S
O15 Zn16 1.899 1_556 S
O15 C23 1.284 . S
Zn16 O15 1.899 1_554 S
Zn16 O17 2.032 . S
Zn16 O20 2.086 . S
Zn16 O25 1.977 . S
O17 Zn16 2.032 . S
O17 C21 1.278 . S
C18 O19 1.205 . S
C18 O25 1.265 1_556 S
O19 C18 1.205 . S
O20 C13 1.185 . S
O20 Zn16 2.086 . S
C21 O17 1.278 . S
C21 O22 1.211 . S
O22 C21 1.211 . S
C23 O15 1.284 . S
C23 O24 1.273 . S
O24 C23 1.273 . S
O25 Zn16 1.977 . S
O25 C18 1.265 1_554 S
C26 O27 1.160 . S
C26 O33 1.185 . S
O27 C26 1.160 . S
O28 Zn29 1.899 . S
O28 C36 1.284 . S
Zn29 O28 1.899 . S
Zn29 O30 2.032 . S
Zn29 O33 2.086 . S
Zn29 O38 1.977 . S
O30 Zn29 2.032 . S
O30 C34 1.278 . S
C31 O32 1.203 . S
C31 O38 1.267 . S
O32 C31 1.203 . S
O33 C26 1.185 . S
O33 Zn29 2.086 . S
C34 O30 1.278 . S
C34 O35 1.211 . S
O35 C34 1.211 . S
C36 O28 1.284 . S
C36 O37 1.273 . S
O37 C36 1.273 . S
O38 Zn29 1.977 . S
O38 C31 1.267 . S
C39 O40 1.160 . S
C39 O46 1.185 . S
O40 C39 1.160 . S
O41 Zn42 1.899 . S
O41 C49 1.284 . S
Zn42 O41 1.899 . S
Zn42 O43 2.032 . S
Zn42 O46 2.086 . S
Zn42 O51 1.977 . S
O43 Zn42 2.032 . S
O43 C47 1.278 . S
C44 O45 1.203 . S
C44 O51 1.267 . S
O45 C44 1.203 . S
O46 C39 1.185 . S
O46 Zn42 2.086 . S
C47 O43 1.278 . S
C47 O48 1.211 . S
O48 C47 1.211 . S
C49 O41 1.284 . S
C49 O50 1.273 . S
O50 C49 1.273 . S
O51 Zn42 1.977 . S
O51 C44 1.267 . S
C52 O53 1.160 1_554 S
C52 O59 1.185 . S
O53 C52 1.160 1_556 S
O54 Zn55 1.899 1_556 S
O54 C62 1.284 . S
Zn55 O54 1.899 1_554 S
Zn55 O56 2.032 . S
Zn55 O59 2.086 . S
Zn55 O64 1.977 . S
O56 Zn55 2.032 . S
O56 C60 1.278 . S
C57 O58 1.205 . S
C57 O64 1.265 1_556 S
O58 C57 1.205 . S
O59 C52 1.185 . S
O59 Zn55 2.086 . S
C60 O56 1.278 . S
C60 O61 1.211 . S
O61 C60 1.211 . S
C62 O54 1.284 . S
C62 O63 1.273 . S
O63 C62 1.273 . S
O64 Zn55 1.977 . S
O64 C57 1.265 1_554 S
C65 O66 1.160 1_554 S
C65 O72 1.185 . S
O66 C65 1.160 1_556 S
O67 Zn68 1.899 1_556 S
O67 C75 1.284 . S
Zn68 O67 1.899 1_554 S
Zn68 O69 2.032 . S
Zn68 O72 2.086 . S
Zn68 O77 1.977 . S
O69 Zn68 2.032 . S
O69 C73 1.278 . S
C70 O71 1.205 . S
C70 O77 1.265 1_556 S
O71 C70 1.205 . S
O72 C65 1.185 . S
O72 Zn68 2.086 . S
C73 O69 1.278 . S
C73 O74 1.211 . S
O74 C73 1.211 . S
C75 O67 1.284 . S
C75 O76 1.273 . S
O76 C75 1.273 . S
O77 Zn68 1.977 . S
O77 C70 1.265 1_554 S
C78 O79 1.160 . S
C78 O85 1.185 . S
O79 C78 1.160 . S
O80 Zn81 1.899 . S
O80 C88 1.284 . S
Zn81 O80 1.899 . S
Zn81 O82 2.032 . S
Zn81 O85 2.086 . S
Zn81 O90 1.977 . S
O82 Zn81 2.032 . S
O82 C86 1.278 . S
C83 O84 1.203 . S
C83 O90 1.267 . S
O84 C83 1.203 . S
O85 C78 1.185 . S
O85 Zn81 2.086 . S
C86 O82 1.278 . S
C86 O87 1.211 . S
O87 C86 1.211 . S
C88 O80 1.284 . S
C88 O89 1.273 . S
O89 C88 1.273 . S
O90 Zn81 1.977 . S
O90 C83 1.267 . S
C91 O92 1.160 . S
C91 O98 1.185 . S
O92 C91 1.160 . S
O93 Zn94 1.899 . S
O93 C101 1.284 . S
Zn94 O93 1.899 . S
Zn94 O95 2.032 . S
Zn94 O98 2.086 . S
Zn94 O103 1.977 . S
O95 Zn94 2.032 . S
O95 C99 1.278 . S
C96 O97 1.203 . S
C96 O103 1.267 . S
O97 C96 1.203 . S
O98 C91 1.185 . S
O98 Zn94 2.086 . S
C99 O95 1.278 . S
C99 O100 1.211 . S
O100 C99 1.211 . S
C101 O93 1.284 . S
C101 O102 1.273 . S
O102 C101 1.273 . S
O103 Zn94 1.977 . S
O103 C96 1.267 . S
C104 C105 1.369 . S
C104 C106 1.419 . S
C104 H108 0.930 1_554 S
C105 C104 1.369 . S
C105 C114 1.429 . S
C106 C104 1.419 . S
C106 C107 1.363 . S
C106 H109 0.929 1_554 S
C107 C106 1.363 . S
C107 C113 1.428 . S
H108 C104 0.930 1_556 S
H109 C106 0.929 1_556 S
S110 N111 1.613 . S
S110 N112 1.610 . S
N111 S110 1.613 . S
N111 C114 1.350 . S
N112 S110 1.610 . S
N112 C113 1.351 . S
C113 C107 1.428 . S
C113 N112 1.351 . S
C113 C114 1.434 . S
C114 C105 1.429 . S
C114 N111 1.350 . S
C114 C113 1.434 . S
C115 C116 1.369 . S
C115 C117 1.419 . S
C115 H119 0.930 . S
C116 C115 1.369 . S
C116 C125 1.429 1_554 S
C117 C115 1.419 . S
C117 C118 1.363 . S
C117 H120 0.929 . S
C118 C117 1.363 . S
C118 C124 1.428 1_554 S
H119 C115 0.930 . S
H120 C117 0.929 . S
S121 N122 1.613 . S
S121 N123 1.610 . S
N122 S121 1.613 . S
N122 C125 1.350 . S
N123 S121 1.610 . S
N123 C124 1.351 . S
C124 C118 1.428 1_556 S
C124 N123 1.351 . S
C124 C125 1.434 . S
C125 C116 1.429 1_556 S
C125 N122 1.350 . S
C125 C124 1.434 . S
C126 C127 1.369 . S
C126 C128 1.419 . S
C126 H130 0.930 . S
C127 C126 1.369 . S
C127 C136 1.429 . S
C128 C126 1.419 . S
C128 C129 1.363 . S
C128 H131 0.929 . S
C129 C128 1.363 . S
C129 C135 1.428 . S
H130 C126 0.930 . S
H131 C128 0.929 . S
S132 N133 1.613 . S
S132 N134 1.610 . S
N133 S132 1.613 . S
N133 C136 1.350 . S
N134 S132 1.610 . S
N134 C135 1.351 . S
C135 C129 1.428 . S
C135 N134 1.351 . S
C135 C136 1.434 . S
C136 C127 1.429 . S
C136 N133 1.350 . S
C136 C135 1.434 . S
C137 C138 1.369 . S
C137 C139 1.419 . S
C137 H141 0.930 . S
C138 C137 1.369 . S
C138 C147 1.429 . S
C139 C137 1.419 . S
C139 C140 1.363 . S
C139 H142 0.929 . S
C140 C139 1.363 . S
C140 C146 1.428 . S
H141 C137 0.930 . S
H142 C139 0.929 . S
S143 N144 1.613 . S
S143 N145 1.610 . S
N144 S143 1.613 . S
N144 C147 1.350 . S
N145 S143 1.610 . S
N145 C146 1.351 . S
C146 C140 1.428 . S
C146 N145 1.351 . S
C146 C147 1.434 . S
C147 C138 1.429 . S
C147 N144 1.350 . S
C147 C146 1.434 . S
C148 C149 1.369 . S
C148 C150 1.419 . S
C148 H152 0.930 . S
C149 C148 1.369 . S
C149 C158 1.429 . S
C150 C148 1.419 . S
C150 C151 1.363 . S
C150 H153 0.929 . S
C151 C150 1.363 . S
C151 C157 1.428 . S
H152 C148 0.930 . S
H153 C150 0.929 . S
S154 N155 1.613 . S
S154 N156 1.610 . S
N155 S154 1.613 . S
N155 C158 1.350 . S
N156 S154 1.610 . S
N156 C157 1.351 . S
C157 C151 1.428 . S
C157 N156 1.351 . S
C157 C158 1.434 . S
C158 C149 1.429 . S
C158 N155 1.350 . S
C158 C157 1.434 . S
C159 C160 1.369 . S
C159 C161 1.419 . S
C159 H163 0.930 . S
C160 C159 1.369 . S
C160 C169 1.429 . S
C161 C159 1.419 . S
C161 C162 1.363 . S
C161 H164 0.929 . S
C162 C161 1.363 . S
C162 C168 1.428 . S
H163 C159 0.930 . S
H164 C161 0.929 . S
S165 N166 1.613 . S
S165 N167 1.610 . S
N166 S165 1.613 . S
N166 C169 1.350 . S
N167 S165 1.610 . S
N167 C168 1.351 . S
C168 C162 1.428 . S
C168 N167 1.351 . S
C168 C169 1.434 . S
C169 C160 1.429 . S
C169 N166 1.350 . S
C169 C168 1.434 . S
C170 C171 1.369 . S
C170 C172 1.419 . S
C170 H174 0.930 . S
C171 C170 1.369 . S
C171 C180 1.429 . S
C172 C170 1.419 . S
C172 C173 1.363 . S
C172 H175 0.929 . S
C173 C172 1.363 . S
C173 C179 1.428 . S
H174 C170 0.930 . S
H175 C172 0.929 . S
S176 N177 1.613 . S
S176 N178 1.610 . S
N177 S176 1.613 . S
N177 C180 1.350 . S
N178 S176 1.610 . S
N178 C179 1.351 . S
C179 C173 1.428 . S
C179 N178 1.351 . S
C179 C180 1.434 . S
C180 C171 1.429 . S
C180 N177 1.350 . S
C180 C179 1.434 . S
C181 C182 1.369 . S
C181 C183 1.419 . S
C181 H185 0.930 . S
C182 C181 1.369 . S
C182 C191 1.429 . S
C183 C181 1.419 . S
C183 C184 1.363 . S
C183 H186 0.929 . S
C184 C183 1.363 . S
C184 C190 1.428 . S
H185 C181 0.930 . S
H186 C183 0.929 . S
S187 N188 1.613 . S
S187 N189 1.610 . S
N188 S187 1.613 . S
N188 C191 1.350 . S
N189 S187 1.610 . S
N189 C190 1.351 . S
C190 C184 1.428 . S
C190 N189 1.351 . S
C190 C191 1.434 . S
C191 C182 1.429 . S
C191 N188 1.350 . S
C191 C190 1.434 . S
C192 C193 1.369 . S
C192 C194 1.419 . S
C192 H196 0.930 . S
C193 C192 1.369 . S
C193 C202 1.429 1_565 S
C194 C192 1.419 . S
C194 C195 1.363 1_565 S
C194 H197 0.929 . S
C195 C194 1.363 1_545 S
C195 C201 1.428 . S
H196 C192 0.930 . S
H197 C194 0.929 . S
S198 N199 1.613 . S
S198 N200 1.610 . S
N199 S198 1.613 . S
N199 C202 1.350 . S
N200 S198 1.610 . S
N200 C201 1.351 . S
C201 C195 1.428 . S
C201 N200 1.351 . S
C201 C202 1.434 . S
C202 C193 1.429 1_545 S
C202 N199 1.350 . S
C202 C201 1.434 . S
C203 C204 1.369 1_545 S
C203 C205 1.419 . S
C203 H207 0.930 . S
C204 C203 1.369 1_565 S
C204 C213 1.429 . S
C205 C203 1.419 . S
C205 C206 1.363 . S
C205 H208 0.929 . S
C206 C205 1.363 . S
C206 C212 1.428 1_545 S
H207 C203 0.930 . S
H208 C205 0.929 . S
S209 N210 1.613 . S
S209 N211 1.610 . S
N210 S209 1.613 . S
N210 C213 1.350 . S
N211 S209 1.610 . S
N211 C212 1.351 . S
C212 C206 1.428 1_565 S
C212 N211 1.351 . S
C212 C213 1.434 . S
C213 C204 1.429 . S
C213 N210 1.350 . S
C213 C212 1.434 . S
C214 C215 1.369 1_545 S
C214 C216 1.419 . S
C214 H218 0.930 . S
C215 C214 1.369 1_565 S
C215 C224 1.429 . S
C216 C214 1.419 . S
C216 C217 1.363 . S
C216 H219 0.929 . S
C217 C216 1.363 . S
C217 C223 1.428 1_545 S
H218 C214 0.930 . S
H219 C216 0.929 . S
S220 N221 1.613 . S
S220 N222 1.610 . S
N221 S220 1.613 . S
N221 C224 1.350 . S
N222 S220 1.610 . S
N222 C223 1.351 . S
C223 C217 1.428 1_565 S
C223 N222 1.351 . S
C223 C224 1.434 . S
C224 C215 1.429 . S
C224 N221 1.350 . S
C224 C223 1.434 . S
C225 C226 1.369 1_545 S
C225 C227 1.419 . S
C225 H229 0.930 . S
C226 C225 1.369 1_565 S
C226 C235 1.429 . S
C227 C225 1.419 . S
C227 C228 1.363 . S
C227 H230 0.929 . S
C228 C227 1.363 . S
C228 C234 1.428 1_545 S
H229 C225 0.930 . S
H230 C227 0.929 . S
S231 N232 1.613 . S
S231 N233 1.610 . S
N232 S231 1.613 . S
N232 C235 1.350 . S
N233 S231 1.610 . S
N233 C234 1.351 . S
C234 C228 1.428 1_565 S
C234 N233 1.351 . S
C234 C235 1.434 . S
C235 C226 1.429 . S
C235 N232 1.350 . S
C235 C234 1.434 . S
C236 C237 1.369 . S
C236 C238 1.419 1_565 S
C236 H240 0.930 . S
C237 C236 1.369 . S
C237 C246 1.429 1_554 S
C238 C236 1.419 1_545 S
C238 C239 1.363 . S
C238 H241 0.929 . S
C239 C238 1.363 . S
C239 C245 1.428 1_554 S
H240 C236 0.930 . S
H241 C238 0.929 . S
S242 N243 1.613 . S
S242 N244 1.610 . S
N243 S242 1.613 . S
N243 C246 1.350 1_545 S
N244 S242 1.610 . S
N244 C245 1.351 . S
C245 C239 1.428 1_556 S
C245 N244 1.351 . S
C245 C246 1.434 1_545 S
C246 C237 1.429 1_556 S
C246 N243 1.350 1_565 S
C246 C245 1.434 1_565 S
C247 C248 1.369 . S
C247 C249 1.420 1_565 S
C247 H251 0.930 . S
C248 C247 1.369 . S
C248 C257 1.429 1_565 S
C249 C247 1.420 1_545 S
C249 C250 1.362 . S
C249 H252 0.929 1_545 S
C250 C249 1.362 . S
C250 C256 1.428 . S
H251 C247 0.930 . S
H252 C249 0.929 1_565 S
S253 N254 1.613 . S
S253 N255 1.610 . S
N254 S253 1.613 . S
N254 C257 1.350 . S
N255 S253 1.610 . S
N255 C256 1.351 . S
C256 C250 1.428 . S
C256 N255 1.351 . S
C256 C257 1.434 . S
C257 C248 1.429 1_545 S
C257 N254 1.350 . S
C257 C256 1.434 . S
C258 C259 1.369 1_655 S
C258 C260 1.419 . S
C258 H262 0.930 . S
C259 C258 1.369 1_455 S
C259 C268 1.429 . S
C260 C258 1.419 . S
C260 C261 1.363 . S
C260 H263 0.929 . S
C261 C260 1.363 . S
C261 C267 1.428 1_655 S
H262 C258 0.930 . S
H263 C260 0.929 . S
S264 N265 1.613 . S
S264 N266 1.610 . S
N265 S264 1.613 . S
N265 C268 1.350 . S
N266 S264 1.610 . S
N266 C267 1.351 . S
C267 C261 1.428 1_455 S
C267 N266 1.351 . S
C267 C268 1.434 . S
C268 C259 1.429 . S
C268 N265 1.350 . S
C268 C267 1.434 . S
C269 C270 1.370 1_655 S
C269 C271 1.417 . S
C269 H273 0.930 . S
C270 C269 1.370 1_455 S
C270 C279 1.429 . S
C271 C269 1.417 . S
C271 C272 1.363 . S
C271 H274 0.929 . S
C272 C271 1.363 . S
C272 C278 1.423 1_655 S
H273 C269 0.930 . S
H274 C271 0.929 . S
S275 N276 1.613 . S
S275 N277 1.610 . S
N276 S275 1.613 . S
N276 C279 1.350 . S
N277 S275 1.610 . S
N277 C278 1.352 . S
C278 C272 1.423 1_455 S
C278 N277 1.352 . S
C278 C279 1.439 . S
C279 C270 1.429 . S
C279 N276 1.350 . S
C279 C278 1.439 . S
C105 C70 1.466 1_554 S
C107 C5 1.473 1_554 S
C116 C57 1.469 1_554 S
C118 C18 1.469 1_554 S
C127 C96 1.474 . S
C129 C31 1.467 . S
C138 C83 1.466 . S
C140 C44 1.472 . S
C149 C8 1.368 . S
C151 C34 1.367 . S
C160 C21 1.367 . S
C162 C47 1.366 . S
C171 C23 1.411 . S
C173 C49 1.410 . S
C182 C10 1.409 . S
C184 C36 1.410 . S
C193 C60 1.370 . S
C195 C86 1.369 . S
C204 C99 1.366 . S
C206 C73 1.367 . S
C215 C101 1.412 . S
C217 C75 1.410 . S
C226 C62 1.411 . S
C228 C88 1.410 . S
C237 C13 1.498 . S
C239 C0 1.498 . S
C248 C26 1.499 . S
C250 C39 1.499 . S
C259 C52 1.499 . S
C261 C65 1.499 . S
C270 C78 1.497 . S
C272 C91 1.498 . S
