# Generated by pormake.
# Topology ana-e, (6)-cn, num edge types: 1
# Building blocks:
#     Node 0, Type 0, BuildingBlock: BETDAH_clean_sbu_0, # of connection points: 6
#     Node 1, Type 0, BuildingBlock: BETDAH_clean_sbu_0, # of connection points: 6
#     Node 2, Type 0, BuildingBlock: BETDAH_clean_sbu_0, # of connection points: 6
#     Node 3, Type 0, BuildingBlock: BETDAH_clean_sbu_0, # of connection points: 6
#     Node 4, Type 0, BuildingBlock: BETDAH_clean_sbu_0, # of connection points: 6
#     Node 5, Type 0, BuildingBlock: BETDAH_clean_sbu_0, # of connection points: 6
#     Node 6, Type 0, BuildingBlock: BETDAH_clean_sbu_0, # of connection points: 6
#     Node 7, Type 0, BuildingBlock: BETDAH_clean_sbu_0, # of connection points: 6
#     Node 8, Type 0, BuildingBlock: BETDAH_clean_sbu_0, # of connection points: 6
#     Node 9, Type 0, BuildingBlock: BETDAH_clean_sbu_0, # of connection points: 6
#     Node 10, Type 0, BuildingBlock: BETDAH_clean_sbu_0, # of connection points: 6
#     Node 11, Type 0, BuildingBlock: BETDAH_clean_sbu_0, # of connection points: 6
#     Node 12, Type 0, BuildingBlock: BETDAH_clean_sbu_0, # of connection points: 6
#     Node 13, Type 0, BuildingBlock: BETDAH_clean_sbu_0, # of connection points: 6
#     Node 14, Type 0, BuildingBlock: BETDAH_clean_sbu_0, # of connection points: 6
#     Node 15, Type 0, BuildingBlock: BETDAH_clean_sbu_0, # of connection points: 6
#     Node 16, Type 0, BuildingBlock: BETDAH_clean_sbu_0, # of connection points: 6
#     Node 17, Type 0, BuildingBlock: BETDAH_clean_sbu_0, # of connection points: 6
#     Node 18, Type 0, BuildingBlock: BETDAH_clean_sbu_0, # of connection points: 6
#     Node 19, Type 0, BuildingBlock: BETDAH_clean_sbu_0, # of connection points: 6
#     Node 20, Type 0, BuildingBlock: BETDAH_clean_sbu_0, # of connection points: 6
#     Node 21, Type 0, BuildingBlock: BETDAH_clean_sbu_0, # of connection points: 6
#     Node 22, Type 0, BuildingBlock: BETDAH_clean_sbu_0, # of connection points: 6
#     Node 23, Type 0, BuildingBlock: BETDAH_clean_sbu_0, # of connection points: 6
#     Node 24, Type 0, BuildingBlock: BETDAH_clean_sbu_0, # of connection points: 6
#     Node 25, Type 0, BuildingBlock: BETDAH_clean_sbu_0, # of connection points: 6
#     Node 26, Type 0, BuildingBlock: BETDAH_clean_sbu_0, # of connection points: 6
#     Node 27, Type 0, BuildingBlock: BETDAH_clean_sbu_0, # of connection points: 6
#     Node 28, Type 0, BuildingBlock: BETDAH_clean_sbu_0, # of connection points: 6
#     Node 29, Type 0, BuildingBlock: BETDAH_clean_sbu_0, # of connection points: 6
#     Node 30, Type 0, BuildingBlock: BETDAH_clean_sbu_0, # of connection points: 6
#     Node 31, Type 0, BuildingBlock: BETDAH_clean_sbu_0, # of connection points: 6
#     Node 32, Type 0, BuildingBlock: BETDAH_clean_sbu_0, # of connection points: 6
#     Node 33, Type 0, BuildingBlock: BETDAH_clean_sbu_0, # of connection points: 6
#     Node 34, Type 0, BuildingBlock: BETDAH_clean_sbu_0, # of connection points: 6
#     Node 35, Type 0, BuildingBlock: BETDAH_clean_sbu_0, # of connection points: 6
#     Node 36, Type 0, BuildingBlock: BETDAH_clean_sbu_0, # of connection points: 6
#     Node 37, Type 0, BuildingBlock: BETDAH_clean_sbu_0, # of connection points: 6
#     Node 38, Type 0, BuildingBlock: BETDAH_clean_sbu_0, # of connection points: 6
#     Node 39, Type 0, BuildingBlock: BETDAH_clean_sbu_0, # of connection points: 6
#     Node 40, Type 0, BuildingBlock: BETDAH_clean_sbu_0, # of connection points: 6
#     Node 41, Type 0, BuildingBlock: BETDAH_clean_sbu_0, # of connection points: 6
#     Node 42, Type 0, BuildingBlock: BETDAH_clean_sbu_0, # of connection points: 6
#     Node 43, Type 0, BuildingBlock: BETDAH_clean_sbu_0, # of connection points: 6
#     Node 44, Type 0, BuildingBlock: BETDAH_clean_sbu_0, # of connection points: 6
#     Node 45, Type 0, BuildingBlock: BETDAH_clean_sbu_0, # of connection points: 6
#     Node 46, Type 0, BuildingBlock: BETDAH_clean_sbu_0, # of connection points: 6
#     Node 47, Type 0, BuildingBlock: BETDAH_clean_sbu_0, # of connection points: 6
#     Node 48, Type 0, BuildingBlock: BETDAH_clean_sbu_0, # of connection points: 6
#     Node 49, Type 0, BuildingBlock: BETDAH_clean_sbu_0, # of connection points: 6
#     Node 50, Type 0, BuildingBlock: BETDAH_clean_sbu_0, # of connection points: 6
#     Node 51, Type 0, BuildingBlock: BETDAH_clean_sbu_0, # of connection points: 6
#     Node 52, Type 0, BuildingBlock: BETDAH_clean_sbu_0, # of connection points: 6
#     Node 53, Type 0, BuildingBlock: BETDAH_clean_sbu_0, # of connection points: 6
#     Node 54, Type 0, BuildingBlock: BETDAH_clean_sbu_0, # of connection points: 6
#     Node 55, Type 0, BuildingBlock: BETDAH_clean_sbu_0, # of connection points: 6
#     Node 56, Type 0, BuildingBlock: BETDAH_clean_sbu_0, # of connection points: 6
#     Node 57, Type 0, BuildingBlock: BETDAH_clean_sbu_0, # of connection points: 6
#     Node 58, Type 0, BuildingBlock: BETDAH_clean_sbu_0, # of connection points: 6
#     Node 59, Type 0, BuildingBlock: BETDAH_clean_sbu_0, # of connection points: 6
#     Node 60, Type 0, BuildingBlock: BETDAH_clean_sbu_0, # of connection points: 6
#     Node 61, Type 0, BuildingBlock: BETDAH_clean_sbu_0, # of connection points: 6
#     Node 62, Type 0, BuildingBlock: BETDAH_clean_sbu_0, # of connection points: 6
#     Node 63, Type 0, BuildingBlock: BETDAH_clean_sbu_0, # of connection points: 6
#     Node 64, Type 0, BuildingBlock: BETDAH_clean_sbu_0, # of connection points: 6
#     Node 65, Type 0, BuildingBlock: BETDAH_clean_sbu_0, # of connection points: 6
#     Node 66, Type 0, BuildingBlock: BETDAH_clean_sbu_0, # of connection points: 6
#     Node 67, Type 0, BuildingBlock: BETDAH_clean_sbu_0, # of connection points: 6
#     Node 68, Type 0, BuildingBlock: BETDAH_clean_sbu_0, # of connection points: 6
#     Node 69, Type 0, BuildingBlock: BETDAH_clean_sbu_0, # of connection points: 6
#     Node 70, Type 0, BuildingBlock: BETDAH_clean_sbu_0, # of connection points: 6
#     Node 71, Type 0, BuildingBlock: BETDAH_clean_sbu_0, # of connection points: 6
#     Node 72, Type 0, BuildingBlock: BETDAH_clean_sbu_0, # of connection points: 6
#     Node 73, Type 0, BuildingBlock: BETDAH_clean_sbu_0, # of connection points: 6
#     Node 74, Type 0, BuildingBlock: BETDAH_clean_sbu_0, # of connection points: 6
#     Node 75, Type 0, BuildingBlock: BETDAH_clean_sbu_0, # of connection points: 6
#     Node 76, Type 0, BuildingBlock: BETDAH_clean_sbu_0, # of connection points: 6
#     Node 77, Type 0, BuildingBlock: BETDAH_clean_sbu_0, # of connection points: 6
#     Node 78, Type 0, BuildingBlock: BETDAH_clean_sbu_0, # of connection points: 6
#     Node 79, Type 0, BuildingBlock: BETDAH_clean_sbu_0, # of connection points: 6
#     Node 80, Type 0, BuildingBlock: BETDAH_clean_sbu_0, # of connection points: 6
#     Node 81, Type 0, BuildingBlock: BETDAH_clean_sbu_0, # of connection points: 6
#     Node 82, Type 0, BuildingBlock: BETDAH_clean_sbu_0, # of connection points: 6
#     Node 83, Type 0, BuildingBlock: BETDAH_clean_sbu_0, # of connection points: 6
#     Node 84, Type 0, BuildingBlock: BETDAH_clean_sbu_0, # of connection points: 6
#     Node 85, Type 0, BuildingBlock: BETDAH_clean_sbu_0, # of connection points: 6
#     Node 86, Type 0, BuildingBlock: BETDAH_clean_sbu_0, # of connection points: 6
#     Node 87, Type 0, BuildingBlock: BETDAH_clean_sbu_0, # of connection points: 6
#     Node 88, Type 0, BuildingBlock: BETDAH_clean_sbu_0, # of connection points: 6
#     Node 89, Type 0, BuildingBlock: BETDAH_clean_sbu_0, # of connection points: 6
#     Node 90, Type 0, BuildingBlock: BETDAH_clean_sbu_0, # of connection points: 6
#     Node 91, Type 0, BuildingBlock: BETDAH_clean_sbu_0, # of connection points: 6
#     Node 92, Type 0, BuildingBlock: BETDAH_clean_sbu_0, # of connection points: 6
#     Node 93, Type 0, BuildingBlock: BETDAH_clean_sbu_0, # of connection points: 6
#     Node 94, Type 0, BuildingBlock: BETDAH_clean_sbu_0, # of connection points: 6
#     Node 95, Type 0, BuildingBlock: BETDAH_clean_sbu_0, # of connection points: 6
#     Edge 96, Type (0, 0), BuildingBlock: OJICUG_clean_linker_0, # of connection points: 2
#     Edge 97, Type (0, 0), BuildingBlock: OJICUG_clean_linker_0, # of connection points: 2
#     Edge 98, Type (0, 0), BuildingBlock: OJICUG_clean_linker_0, # of connection points: 2
#     Edge 99, Type (0, 0), BuildingBlock: OJICUG_clean_linker_0, # of connection points: 2
#     Edge 100, Type (0, 0), BuildingBlock: OJICUG_clean_linker_0, # of connection points: 2
#     Edge 101, Type (0, 0), BuildingBlock: OJICUG_clean_linker_0, # of connection points: 2
#     Edge 102, Type (0, 0), BuildingBlock: OJICUG_clean_linker_0, # of connection points: 2
#     Edge 103, Type (0, 0), BuildingBlock: OJICUG_clean_linker_0, # of connection points: 2
#     Edge 104, Type (0, 0), BuildingBlock: OJICUG_clean_linker_0, # of connection points: 2
#     Edge 105, Type (0, 0), BuildingBlock: OJICUG_clean_linker_0, # of connection points: 2
#     Edge 106, Type (0, 0), BuildingBlock: OJICUG_clean_linker_0, # of connection points: 2
#     Edge 107, Type (0, 0), BuildingBlock: OJICUG_clean_linker_0, # of connection points: 2
#     Edge 108, Type (0, 0), BuildingBlock: OJICUG_clean_linker_0, # of connection points: 2
#     Edge 109, Type (0, 0), BuildingBlock: OJICUG_clean_linker_0, # of connection points: 2
#     Edge 110, Type (0, 0), BuildingBlock: OJICUG_clean_linker_0, # of connection points: 2
#     Edge 111, Type (0, 0), BuildingBlock: OJICUG_clean_linker_0, # of connection points: 2
#     Edge 112, Type (0, 0), BuildingBlock: OJICUG_clean_linker_0, # of connection points: 2
#     Edge 113, Type (0, 0), BuildingBlock: OJICUG_clean_linker_0, # of connection points: 2
#     Edge 114, Type (0, 0), BuildingBlock: OJICUG_clean_linker_0, # of connection points: 2
#     Edge 115, Type (0, 0), BuildingBlock: OJICUG_clean_linker_0, # of connection points: 2
#     Edge 116, Type (0, 0), BuildingBlock: OJICUG_clean_linker_0, # of connection points: 2
#     Edge 117, Type (0, 0), BuildingBlock: OJICUG_clean_linker_0, # of connection points: 2
#     Edge 118, Type (0, 0), BuildingBlock: OJICUG_clean_linker_0, # of connection points: 2
#     Edge 119, Type (0, 0), BuildingBlock: OJICUG_clean_linker_0, # of connection points: 2
#     Edge 120, Type (0, 0), BuildingBlock: OJICUG_clean_linker_0, # of connection points: 2
#     Edge 121, Type (0, 0), BuildingBlock: OJICUG_clean_linker_0, # of connection points: 2
#     Edge 122, Type (0, 0), BuildingBlock: OJICUG_clean_linker_0, # of connection points: 2
#     Edge 123, Type (0, 0), BuildingBlock: OJICUG_clean_linker_0, # of connection points: 2
#     Edge 124, Type (0, 0), BuildingBlock: OJICUG_clean_linker_0, # of connection points: 2
#     Edge 125, Type (0, 0), BuildingBlock: OJICUG_clean_linker_0, # of connection points: 2
#     Edge 126, Type (0, 0), BuildingBlock: OJICUG_clean_linker_0, # of connection points: 2
#     Edge 127, Type (0, 0), BuildingBlock: OJICUG_clean_linker_0, # of connection points: 2
#     Edge 128, Type (0, 0), BuildingBlock: OJICUG_clean_linker_0, # of connection points: 2
#     Edge 129, Type (0, 0), BuildingBlock: OJICUG_clean_linker_0, # of connection points: 2
#     Edge 130, Type (0, 0), BuildingBlock: OJICUG_clean_linker_0, # of connection points: 2
#     Edge 131, Type (0, 0), BuildingBlock: OJICUG_clean_linker_0, # of connection points: 2
#     Edge 132, Type (0, 0), BuildingBlock: OJICUG_clean_linker_0, # of connection points: 2
#     Edge 133, Type (0, 0), BuildingBlock: OJICUG_clean_linker_0, # of connection points: 2
#     Edge 134, Type (0, 0), BuildingBlock: OJICUG_clean_linker_0, # of connection points: 2
#     Edge 135, Type (0, 0), BuildingBlock: OJICUG_clean_linker_0, # of connection points: 2
#     Edge 136, Type (0, 0), BuildingBlock: OJICUG_clean_linker_0, # of connection points: 2
#     Edge 137, Type (0, 0), BuildingBlock: OJICUG_clean_linker_0, # of connection points: 2
#     Edge 138, Type (0, 0), BuildingBlock: OJICUG_clean_linker_0, # of connection points: 2
#     Edge 139, Type (0, 0), BuildingBlock: OJICUG_clean_linker_0, # of connection points: 2
#     Edge 140, Type (0, 0), BuildingBlock: OJICUG_clean_linker_0, # of connection points: 2
#     Edge 141, Type (0, 0), BuildingBlock: OJICUG_clean_linker_0, # of connection points: 2
#     Edge 142, Type (0, 0), BuildingBlock: OJICUG_clean_linker_0, # of connection points: 2
#     Edge 143, Type (0, 0), BuildingBlock: OJICUG_clean_linker_0, # of connection points: 2
#     Edge 144, Type (0, 0), BuildingBlock: OJICUG_clean_linker_0, # of connection points: 2
#     Edge 145, Type (0, 0), BuildingBlock: OJICUG_clean_linker_0, # of connection points: 2
#     Edge 146, Type (0, 0), BuildingBlock: OJICUG_clean_linker_0, # of connection points: 2
#     Edge 147, Type (0, 0), BuildingBlock: OJICUG_clean_linker_0, # of connection points: 2
#     Edge 148, Type (0, 0), BuildingBlock: OJICUG_clean_linker_0, # of connection points: 2
#     Edge 149, Type (0, 0), BuildingBlock: OJICUG_clean_linker_0, # of connection points: 2
#     Edge 150, Type (0, 0), BuildingBlock: OJICUG_clean_linker_0, # of connection points: 2
#     Edge 151, Type (0, 0), BuildingBlock: OJICUG_clean_linker_0, # of connection points: 2
#     Edge 152, Type (0, 0), BuildingBlock: OJICUG_clean_linker_0, # of connection points: 2
#     Edge 153, Type (0, 0), BuildingBlock: OJICUG_clean_linker_0, # of connection points: 2
#     Edge 154, Type (0, 0), BuildingBlock: OJICUG_clean_linker_0, # of connection points: 2
#     Edge 155, Type (0, 0), BuildingBlock: OJICUG_clean_linker_0, # of connection points: 2
#     Edge 156, Type (0, 0), BuildingBlock: OJICUG_clean_linker_0, # of connection points: 2
#     Edge 157, Type (0, 0), BuildingBlock: OJICUG_clean_linker_0, # of connection points: 2
#     Edge 158, Type (0, 0), BuildingBlock: OJICUG_clean_linker_0, # of connection points: 2
#     Edge 159, Type (0, 0), BuildingBlock: OJICUG_clean_linker_0, # of connection points: 2
#     Edge 160, Type (0, 0), BuildingBlock: OJICUG_clean_linker_0, # of connection points: 2
#     Edge 161, Type (0, 0), BuildingBlock: OJICUG_clean_linker_0, # of connection points: 2
#     Edge 162, Type (0, 0), BuildingBlock: OJICUG_clean_linker_0, # of connection points: 2
#     Edge 163, Type (0, 0), BuildingBlock: OJICUG_clean_linker_0, # of connection points: 2
#     Edge 164, Type (0, 0), BuildingBlock: OJICUG_clean_linker_0, # of connection points: 2
#     Edge 165, Type (0, 0), BuildingBlock: OJICUG_clean_linker_0, # of connection points: 2
#     Edge 166, Type (0, 0), BuildingBlock: OJICUG_clean_linker_0, # of connection points: 2
#     Edge 167, Type (0, 0), BuildingBlock: OJICUG_clean_linker_0, # of connection points: 2
#     Edge 168, Type (0, 0), BuildingBlock: OJICUG_clean_linker_0, # of connection points: 2
#     Edge 169, Type (0, 0), BuildingBlock: OJICUG_clean_linker_0, # of connection points: 2
#     Edge 170, Type (0, 0), BuildingBlock: OJICUG_clean_linker_0, # of connection points: 2
#     Edge 171, Type (0, 0), BuildingBlock: OJICUG_clean_linker_0, # of connection points: 2
#     Edge 172, Type (0, 0), BuildingBlock: OJICUG_clean_linker_0, # of connection points: 2
#     Edge 173, Type (0, 0), BuildingBlock: OJICUG_clean_linker_0, # of connection points: 2
#     Edge 174, Type (0, 0), BuildingBlock: OJICUG_clean_linker_0, # of connection points: 2
#     Edge 175, Type (0, 0), BuildingBlock: OJICUG_clean_linker_0, # of connection points: 2
#     Edge 176, Type (0, 0), BuildingBlock: OJICUG_clean_linker_0, # of connection points: 2
#     Edge 177, Type (0, 0), BuildingBlock: OJICUG_clean_linker_0, # of connection points: 2
#     Edge 178, Type (0, 0), BuildingBlock: OJICUG_clean_linker_0, # of connection points: 2
#     Edge 179, Type (0, 0), BuildingBlock: OJICUG_clean_linker_0, # of connection points: 2
#     Edge 180, Type (0, 0), BuildingBlock: OJICUG_clean_linker_0, # of connection points: 2
#     Edge 181, Type (0, 0), BuildingBlock: OJICUG_clean_linker_0, # of connection points: 2
#     Edge 182, Type (0, 0), BuildingBlock: OJICUG_clean_linker_0, # of connection points: 2
#     Edge 183, Type (0, 0), BuildingBlock: OJICUG_clean_linker_0, # of connection points: 2
#     Edge 184, Type (0, 0), BuildingBlock: OJICUG_clean_linker_0, # of connection points: 2
#     Edge 185, Type (0, 0), BuildingBlock: OJICUG_clean_linker_0, # of connection points: 2
#     Edge 186, Type (0, 0), BuildingBlock: OJICUG_clean_linker_0, # of connection points: 2
#     Edge 187, Type (0, 0), BuildingBlock: OJICUG_clean_linker_0, # of connection points: 2
#     Edge 188, Type (0, 0), BuildingBlock: OJICUG_clean_linker_0, # of connection points: 2
#     Edge 189, Type (0, 0), BuildingBlock: OJICUG_clean_linker_0, # of connection points: 2
#     Edge 190, Type (0, 0), BuildingBlock: OJICUG_clean_linker_0, # of connection points: 2
#     Edge 191, Type (0, 0), BuildingBlock: OJICUG_clean_linker_0, # of connection points: 2
#     Edge 192, Type (0, 0), BuildingBlock: OJICUG_clean_linker_0, # of connection points: 2
#     Edge 193, Type (0, 0), BuildingBlock: OJICUG_clean_linker_0, # of connection points: 2
#     Edge 194, Type (0, 0), BuildingBlock: OJICUG_clean_linker_0, # of connection points: 2
#     Edge 195, Type (0, 0), BuildingBlock: OJICUG_clean_linker_0, # of connection points: 2
#     Edge 196, Type (0, 0), BuildingBlock: OJICUG_clean_linker_0, # of connection points: 2
#     Edge 197, Type (0, 0), BuildingBlock: OJICUG_clean_linker_0, # of connection points: 2
#     Edge 198, Type (0, 0), BuildingBlock: OJICUG_clean_linker_0, # of connection points: 2
#     Edge 199, Type (0, 0), BuildingBlock: OJICUG_clean_linker_0, # of connection points: 2
#     Edge 200, Type (0, 0), BuildingBlock: OJICUG_clean_linker_0, # of connection points: 2
#     Edge 201, Type (0, 0), BuildingBlock: OJICUG_clean_linker_0, # of connection points: 2
#     Edge 202, Type (0, 0), BuildingBlock: OJICUG_clean_linker_0, # of connection points: 2
#     Edge 203, Type (0, 0), BuildingBlock: OJICUG_clean_linker_0, # of connection points: 2
#     Edge 204, Type (0, 0), BuildingBlock: OJICUG_clean_linker_0, # of connection points: 2
#     Edge 205, Type (0, 0), BuildingBlock: OJICUG_clean_linker_0, # of connection points: 2
#     Edge 206, Type (0, 0), BuildingBlock: OJICUG_clean_linker_0, # of connection points: 2
#     Edge 207, Type (0, 0), BuildingBlock: OJICUG_clean_linker_0, # of connection points: 2
#     Edge 208, Type (0, 0), BuildingBlock: OJICUG_clean_linker_0, # of connection points: 2
#     Edge 209, Type (0, 0), BuildingBlock: OJICUG_clean_linker_0, # of connection points: 2
#     Edge 210, Type (0, 0), BuildingBlock: OJICUG_clean_linker_0, # of connection points: 2
#     Edge 211, Type (0, 0), BuildingBlock: OJICUG_clean_linker_0, # of connection points: 2
#     Edge 212, Type (0, 0), BuildingBlock: OJICUG_clean_linker_0, # of connection points: 2
#     Edge 213, Type (0, 0), BuildingBlock: OJICUG_clean_linker_0, # of connection points: 2
#     Edge 214, Type (0, 0), BuildingBlock: OJICUG_clean_linker_0, # of connection points: 2
#     Edge 215, Type (0, 0), BuildingBlock: OJICUG_clean_linker_0, # of connection points: 2
#     Edge 216, Type (0, 0), BuildingBlock: OJICUG_clean_linker_0, # of connection points: 2
#     Edge 217, Type (0, 0), BuildingBlock: OJICUG_clean_linker_0, # of connection points: 2
#     Edge 218, Type (0, 0), BuildingBlock: OJICUG_clean_linker_0, # of connection points: 2
#     Edge 219, Type (0, 0), BuildingBlock: OJICUG_clean_linker_0, # of connection points: 2
#     Edge 220, Type (0, 0), BuildingBlock: OJICUG_clean_linker_0, # of connection points: 2
#     Edge 221, Type (0, 0), BuildingBlock: OJICUG_clean_linker_0, # of connection points: 2
#     Edge 222, Type (0, 0), BuildingBlock: OJICUG_clean_linker_0, # of connection points: 2
#     Edge 223, Type (0, 0), BuildingBlock: OJICUG_clean_linker_0, # of connection points: 2
#     Edge 224, Type (0, 0), BuildingBlock: OJICUG_clean_linker_0, # of connection points: 2
#     Edge 225, Type (0, 0), BuildingBlock: OJICUG_clean_linker_0, # of connection points: 2
#     Edge 226, Type (0, 0), BuildingBlock: OJICUG_clean_linker_0, # of connection points: 2
#     Edge 227, Type (0, 0), BuildingBlock: OJICUG_clean_linker_0, # of connection points: 2
#     Edge 228, Type (0, 0), BuildingBlock: OJICUG_clean_linker_0, # of connection points: 2
#     Edge 229, Type (0, 0), BuildingBlock: OJICUG_clean_linker_0, # of connection points: 2
#     Edge 230, Type (0, 0), BuildingBlock: OJICUG_clean_linker_0, # of connection points: 2
#     Edge 231, Type (0, 0), BuildingBlock: OJICUG_clean_linker_0, # of connection points: 2
#     Edge 232, Type (0, 0), BuildingBlock: OJICUG_clean_linker_0, # of connection points: 2
#     Edge 233, Type (0, 0), BuildingBlock: OJICUG_clean_linker_0, # of connection points: 2
#     Edge 234, Type (0, 0), BuildingBlock: OJICUG_clean_linker_0, # of connection points: 2
#     Edge 235, Type (0, 0), BuildingBlock: OJICUG_clean_linker_0, # of connection points: 2
#     Edge 236, Type (0, 0), BuildingBlock: OJICUG_clean_linker_0, # of connection points: 2
#     Edge 237, Type (0, 0), BuildingBlock: OJICUG_clean_linker_0, # of connection points: 2
#     Edge 238, Type (0, 0), BuildingBlock: OJICUG_clean_linker_0, # of connection points: 2
#     Edge 239, Type (0, 0), BuildingBlock: OJICUG_clean_linker_0, # of connection points: 2
#     Edge 240, Type (0, 0), BuildingBlock: OJICUG_clean_linker_0, # of connection points: 2
#     Edge 241, Type (0, 0), BuildingBlock: OJICUG_clean_linker_0, # of connection points: 2
#     Edge 242, Type (0, 0), BuildingBlock: OJICUG_clean_linker_0, # of connection points: 2
#     Edge 243, Type (0, 0), BuildingBlock: OJICUG_clean_linker_0, # of connection points: 2
#     Edge 244, Type (0, 0), BuildingBlock: OJICUG_clean_linker_0, # of connection points: 2
#     Edge 245, Type (0, 0), BuildingBlock: OJICUG_clean_linker_0, # of connection points: 2
#     Edge 246, Type (0, 0), BuildingBlock: OJICUG_clean_linker_0, # of connection points: 2
#     Edge 247, Type (0, 0), BuildingBlock: OJICUG_clean_linker_0, # of connection points: 2
#     Edge 248, Type (0, 0), BuildingBlock: OJICUG_clean_linker_0, # of connection points: 2
#     Edge 249, Type (0, 0), BuildingBlock: OJICUG_clean_linker_0, # of connection points: 2
#     Edge 250, Type (0, 0), BuildingBlock: OJICUG_clean_linker_0, # of connection points: 2
#     Edge 251, Type (0, 0), BuildingBlock: OJICUG_clean_linker_0, # of connection points: 2
#     Edge 252, Type (0, 0), BuildingBlock: OJICUG_clean_linker_0, # of connection points: 2
#     Edge 253, Type (0, 0), BuildingBlock: OJICUG_clean_linker_0, # of connection points: 2
#     Edge 254, Type (0, 0), BuildingBlock: OJICUG_clean_linker_0, # of connection points: 2
#     Edge 255, Type (0, 0), BuildingBlock: OJICUG_clean_linker_0, # of connection points: 2
#     Edge 256, Type (0, 0), BuildingBlock: OJICUG_clean_linker_0, # of connection points: 2
#     Edge 257, Type (0, 0), BuildingBlock: OJICUG_clean_linker_0, # of connection points: 2
#     Edge 258, Type (0, 0), BuildingBlock: OJICUG_clean_linker_0, # of connection points: 2
#     Edge 259, Type (0, 0), BuildingBlock: OJICUG_clean_linker_0, # of connection points: 2
#     Edge 260, Type (0, 0), BuildingBlock: OJICUG_clean_linker_0, # of connection points: 2
#     Edge 261, Type (0, 0), BuildingBlock: OJICUG_clean_linker_0, # of connection points: 2
#     Edge 262, Type (0, 0), BuildingBlock: OJICUG_clean_linker_0, # of connection points: 2
#     Edge 263, Type (0, 0), BuildingBlock: OJICUG_clean_linker_0, # of connection points: 2
#     Edge 264, Type (0, 0), BuildingBlock: OJICUG_clean_linker_0, # of connection points: 2
#     Edge 265, Type (0, 0), BuildingBlock: OJICUG_clean_linker_0, # of connection points: 2
#     Edge 266, Type (0, 0), BuildingBlock: OJICUG_clean_linker_0, # of connection points: 2
#     Edge 267, Type (0, 0), BuildingBlock: OJICUG_clean_linker_0, # of connection points: 2
#     Edge 268, Type (0, 0), BuildingBlock: OJICUG_clean_linker_0, # of connection points: 2
#     Edge 269, Type (0, 0), BuildingBlock: OJICUG_clean_linker_0, # of connection points: 2
#     Edge 270, Type (0, 0), BuildingBlock: OJICUG_clean_linker_0, # of connection points: 2
#     Edge 271, Type (0, 0), BuildingBlock: OJICUG_clean_linker_0, # of connection points: 2
#     Edge 272, Type (0, 0), BuildingBlock: OJICUG_clean_linker_0, # of connection points: 2
#     Edge 273, Type (0, 0), BuildingBlock: OJICUG_clean_linker_0, # of connection points: 2
#     Edge 274, Type (0, 0), BuildingBlock: OJICUG_clean_linker_0, # of connection points: 2
#     Edge 275, Type (0, 0), BuildingBlock: OJICUG_clean_linker_0, # of connection points: 2
#     Edge 276, Type (0, 0), BuildingBlock: OJICUG_clean_linker_0, # of connection points: 2
#     Edge 277, Type (0, 0), BuildingBlock: OJICUG_clean_linker_0, # of connection points: 2
#     Edge 278, Type (0, 0), BuildingBlock: OJICUG_clean_linker_0, # of connection points: 2
#     Edge 279, Type (0, 0), BuildingBlock: OJICUG_clean_linker_0, # of connection points: 2
#     Edge 280, Type (0, 0), BuildingBlock: OJICUG_clean_linker_0, # of connection points: 2
#     Edge 281, Type (0, 0), BuildingBlock: OJICUG_clean_linker_0, # of connection points: 2
#     Edge 282, Type (0, 0), BuildingBlock: OJICUG_clean_linker_0, # of connection points: 2
#     Edge 283, Type (0, 0), BuildingBlock: OJICUG_clean_linker_0, # of connection points: 2
#     Edge 284, Type (0, 0), BuildingBlock: OJICUG_clean_linker_0, # of connection points: 2
#     Edge 285, Type (0, 0), BuildingBlock: OJICUG_clean_linker_0, # of connection points: 2
#     Edge 286, Type (0, 0), BuildingBlock: OJICUG_clean_linker_0, # of connection points: 2
#     Edge 287, Type (0, 0), BuildingBlock: OJICUG_clean_linker_0, # of connection points: 2
#     Edge 288, Type (0, 0), BuildingBlock: OJICUG_clean_linker_0, # of connection points: 2
#     Edge 289, Type (0, 0), BuildingBlock: OJICUG_clean_linker_0, # of connection points: 2
#     Edge 290, Type (0, 0), BuildingBlock: OJICUG_clean_linker_0, # of connection points: 2
#     Edge 291, Type (0, 0), BuildingBlock: OJICUG_clean_linker_0, # of connection points: 2
#     Edge 292, Type (0, 0), BuildingBlock: OJICUG_clean_linker_0, # of connection points: 2
#     Edge 293, Type (0, 0), BuildingBlock: OJICUG_clean_linker_0, # of connection points: 2
#     Edge 294, Type (0, 0), BuildingBlock: OJICUG_clean_linker_0, # of connection points: 2
#     Edge 295, Type (0, 0), BuildingBlock: OJICUG_clean_linker_0, # of connection points: 2
#     Edge 296, Type (0, 0), BuildingBlock: OJICUG_clean_linker_0, # of connection points: 2
#     Edge 297, Type (0, 0), BuildingBlock: OJICUG_clean_linker_0, # of connection points: 2
#     Edge 298, Type (0, 0), BuildingBlock: OJICUG_clean_linker_0, # of connection points: 2
#     Edge 299, Type (0, 0), BuildingBlock: OJICUG_clean_linker_0, # of connection points: 2
#     Edge 300, Type (0, 0), BuildingBlock: OJICUG_clean_linker_0, # of connection points: 2
#     Edge 301, Type (0, 0), BuildingBlock: OJICUG_clean_linker_0, # of connection points: 2
#     Edge 302, Type (0, 0), BuildingBlock: OJICUG_clean_linker_0, # of connection points: 2
#     Edge 303, Type (0, 0), BuildingBlock: OJICUG_clean_linker_0, # of connection points: 2
#     Edge 304, Type (0, 0), BuildingBlock: OJICUG_clean_linker_0, # of connection points: 2
#     Edge 305, Type (0, 0), BuildingBlock: OJICUG_clean_linker_0, # of connection points: 2
#     Edge 306, Type (0, 0), BuildingBlock: OJICUG_clean_linker_0, # of connection points: 2
#     Edge 307, Type (0, 0), BuildingBlock: OJICUG_clean_linker_0, # of connection points: 2
#     Edge 308, Type (0, 0), BuildingBlock: OJICUG_clean_linker_0, # of connection points: 2
#     Edge 309, Type (0, 0), BuildingBlock: OJICUG_clean_linker_0, # of connection points: 2
#     Edge 310, Type (0, 0), BuildingBlock: OJICUG_clean_linker_0, # of connection points: 2
#     Edge 311, Type (0, 0), BuildingBlock: OJICUG_clean_linker_0, # of connection points: 2
#     Edge 312, Type (0, 0), BuildingBlock: OJICUG_clean_linker_0, # of connection points: 2
#     Edge 313, Type (0, 0), BuildingBlock: OJICUG_clean_linker_0, # of connection points: 2
#     Edge 314, Type (0, 0), BuildingBlock: OJICUG_clean_linker_0, # of connection points: 2
#     Edge 315, Type (0, 0), BuildingBlock: OJICUG_clean_linker_0, # of connection points: 2
#     Edge 316, Type (0, 0), BuildingBlock: OJICUG_clean_linker_0, # of connection points: 2
#     Edge 317, Type (0, 0), BuildingBlock: OJICUG_clean_linker_0, # of connection points: 2
#     Edge 318, Type (0, 0), BuildingBlock: OJICUG_clean_linker_0, # of connection points: 2
#     Edge 319, Type (0, 0), BuildingBlock: OJICUG_clean_linker_0, # of connection points: 2
#     Edge 320, Type (0, 0), BuildingBlock: OJICUG_clean_linker_0, # of connection points: 2
#     Edge 321, Type (0, 0), BuildingBlock: OJICUG_clean_linker_0, # of connection points: 2
#     Edge 322, Type (0, 0), BuildingBlock: OJICUG_clean_linker_0, # of connection points: 2
#     Edge 323, Type (0, 0), BuildingBlock: OJICUG_clean_linker_0, # of connection points: 2
#     Edge 324, Type (0, 0), BuildingBlock: OJICUG_clean_linker_0, # of connection points: 2
#     Edge 325, Type (0, 0), BuildingBlock: OJICUG_clean_linker_0, # of connection points: 2
#     Edge 326, Type (0, 0), BuildingBlock: OJICUG_clean_linker_0, # of connection points: 2
#     Edge 327, Type (0, 0), BuildingBlock: OJICUG_clean_linker_0, # of connection points: 2
#     Edge 328, Type (0, 0), BuildingBlock: OJICUG_clean_linker_0, # of connection points: 2
#     Edge 329, Type (0, 0), BuildingBlock: OJICUG_clean_linker_0, # of connection points: 2
#     Edge 330, Type (0, 0), BuildingBlock: OJICUG_clean_linker_0, # of connection points: 2
#     Edge 331, Type (0, 0), BuildingBlock: OJICUG_clean_linker_0, # of connection points: 2
#     Edge 332, Type (0, 0), BuildingBlock: OJICUG_clean_linker_0, # of connection points: 2
#     Edge 333, Type (0, 0), BuildingBlock: OJICUG_clean_linker_0, # of connection points: 2
#     Edge 334, Type (0, 0), BuildingBlock: OJICUG_clean_linker_0, # of connection points: 2
#     Edge 335, Type (0, 0), BuildingBlock: OJICUG_clean_linker_0, # of connection points: 2
#     Edge 336, Type (0, 0), BuildingBlock: OJICUG_clean_linker_0, # of connection points: 2
#     Edge 337, Type (0, 0), BuildingBlock: OJICUG_clean_linker_0, # of connection points: 2
#     Edge 338, Type (0, 0), BuildingBlock: OJICUG_clean_linker_0, # of connection points: 2
#     Edge 339, Type (0, 0), BuildingBlock: OJICUG_clean_linker_0, # of connection points: 2
#     Edge 340, Type (0, 0), BuildingBlock: OJICUG_clean_linker_0, # of connection points: 2
#     Edge 341, Type (0, 0), BuildingBlock: OJICUG_clean_linker_0, # of connection points: 2
#     Edge 342, Type (0, 0), BuildingBlock: OJICUG_clean_linker_0, # of connection points: 2
#     Edge 343, Type (0, 0), BuildingBlock: OJICUG_clean_linker_0, # of connection points: 2
#     Edge 344, Type (0, 0), BuildingBlock: OJICUG_clean_linker_0, # of connection points: 2
#     Edge 345, Type (0, 0), BuildingBlock: OJICUG_clean_linker_0, # of connection points: 2
#     Edge 346, Type (0, 0), BuildingBlock: OJICUG_clean_linker_0, # of connection points: 2
#     Edge 347, Type (0, 0), BuildingBlock: OJICUG_clean_linker_0, # of connection points: 2
#     Edge 348, Type (0, 0), BuildingBlock: OJICUG_clean_linker_0, # of connection points: 2
#     Edge 349, Type (0, 0), BuildingBlock: OJICUG_clean_linker_0, # of connection points: 2
#     Edge 350, Type (0, 0), BuildingBlock: OJICUG_clean_linker_0, # of connection points: 2
#     Edge 351, Type (0, 0), BuildingBlock: OJICUG_clean_linker_0, # of connection points: 2
#     Edge 352, Type (0, 0), BuildingBlock: OJICUG_clean_linker_0, # of connection points: 2
#     Edge 353, Type (0, 0), BuildingBlock: OJICUG_clean_linker_0, # of connection points: 2
#     Edge 354, Type (0, 0), BuildingBlock: OJICUG_clean_linker_0, # of connection points: 2
#     Edge 355, Type (0, 0), BuildingBlock: OJICUG_clean_linker_0, # of connection points: 2
#     Edge 356, Type (0, 0), BuildingBlock: OJICUG_clean_linker_0, # of connection points: 2
#     Edge 357, Type (0, 0), BuildingBlock: OJICUG_clean_linker_0, # of connection points: 2
#     Edge 358, Type (0, 0), BuildingBlock: OJICUG_clean_linker_0, # of connection points: 2
#     Edge 359, Type (0, 0), BuildingBlock: OJICUG_clean_linker_0, # of connection points: 2
#     Edge 360, Type (0, 0), BuildingBlock: OJICUG_clean_linker_0, # of connection points: 2
#     Edge 361, Type (0, 0), BuildingBlock: OJICUG_clean_linker_0, # of connection points: 2
#     Edge 362, Type (0, 0), BuildingBlock: OJICUG_clean_linker_0, # of connection points: 2
#     Edge 363, Type (0, 0), BuildingBlock: OJICUG_clean_linker_0, # of connection points: 2
#     Edge 364, Type (0, 0), BuildingBlock: OJICUG_clean_linker_0, # of connection points: 2
#     Edge 365, Type (0, 0), BuildingBlock: OJICUG_clean_linker_0, # of connection points: 2
#     Edge 366, Type (0, 0), BuildingBlock: OJICUG_clean_linker_0, # of connection points: 2
#     Edge 367, Type (0, 0), BuildingBlock: OJICUG_clean_linker_0, # of connection points: 2
#     Edge 368, Type (0, 0), BuildingBlock: OJICUG_clean_linker_0, # of connection points: 2
#     Edge 369, Type (0, 0), BuildingBlock: OJICUG_clean_linker_0, # of connection points: 2
#     Edge 370, Type (0, 0), BuildingBlock: OJICUG_clean_linker_0, # of connection points: 2
#     Edge 371, Type (0, 0), BuildingBlock: OJICUG_clean_linker_0, # of connection points: 2
#     Edge 372, Type (0, 0), BuildingBlock: OJICUG_clean_linker_0, # of connection points: 2
#     Edge 373, Type (0, 0), BuildingBlock: OJICUG_clean_linker_0, # of connection points: 2
#     Edge 374, Type (0, 0), BuildingBlock: OJICUG_clean_linker_0, # of connection points: 2
#     Edge 375, Type (0, 0), BuildingBlock: OJICUG_clean_linker_0, # of connection points: 2
#     Edge 376, Type (0, 0), BuildingBlock: OJICUG_clean_linker_0, # of connection points: 2
#     Edge 377, Type (0, 0), BuildingBlock: OJICUG_clean_linker_0, # of connection points: 2
#     Edge 378, Type (0, 0), BuildingBlock: OJICUG_clean_linker_0, # of connection points: 2
#     Edge 379, Type (0, 0), BuildingBlock: OJICUG_clean_linker_0, # of connection points: 2
#     Edge 380, Type (0, 0), BuildingBlock: OJICUG_clean_linker_0, # of connection points: 2
#     Edge 381, Type (0, 0), BuildingBlock: OJICUG_clean_linker_0, # of connection points: 2
#     Edge 382, Type (0, 0), BuildingBlock: OJICUG_clean_linker_0, # of connection points: 2
#     Edge 383, Type (0, 0), BuildingBlock: OJICUG_clean_linker_0, # of connection points: 2
# Relax obj value: 0.577
# Max RMSD: 0.316
# Mean RMSD: 0.263
data_MOF--net-ana-e--node1-BETDAH_clean_sbu_0--edge1-OJICUG_clean_linker_0
_symmetry_space_group_name_H-M    P1
_symmetry_Int_Tables_number       1
_symmetry_cell_setting            triclinic
loop_
_symmetry_equiv_pos_as_xyz
'x, y, z'
_cell_length_a     67.183049
_cell_length_b     69.953453
_cell_length_c     75.25414
_cell_angle_alpha  90.377125
_cell_angle_beta   91.667262
_cell_angle_gamma 87.770205
loop_
_atom_site_label
_atom_site_type_symbol
_atom_site_fract_x
_atom_site_fract_y
_atom_site_fract_z
_atom_type_partial_charge
Ho0 Ho 1.00673 0.10994 0.38931 0.0
Ho1 Ho 0.97986 0.12958 0.41056 0.0
C2 C 1.02333 0.1244 0.42971 0.0
C3 C 0.03513 0.09325 0.37223 0.0
C4 C 0.05627 0.09535 0.3711 0.0
C5 C 0.06563 0.10999 0.38054 0.0
C6 C 0.08578 0.11264 0.37839 0.0
C7 C 0.09646 0.10075 0.36669 0.0
C8 C 0.08706 0.08591 0.35754 0.0
C9 C 0.06697 0.08323 0.35975 0.0
C10 C 0.97822 0.08646 0.40056 0.0
C11 C 0.96804 0.12709 0.36683 0.0
C12 C 0.94779 0.14114 0.42576 0.0
C13 C 0.93176 0.15347 0.41793 0.0
C14 C 0.92257 0.14849 0.40158 0.0
C15 C 0.91274 0.1625 0.39116 0.0
C16 C 0.9118 0.18146 0.3971 0.0
C17 C 0.91929 0.18609 0.41412 0.0
C18 C 0.92917 0.17215 0.4245 0.0
C19 C 1.00626 0.15311 0.39724 0.0
O20 O 0.0282 0.1196 0.41303 0.0
O21 O 1.00395 0.12615 0.43288 0.0
O22 O 0.02918 0.08722 0.38748 0.0
O23 O 1.02431 0.10767 0.36595 0.0
O24 O 0.98429 0.08757 0.38458 0.0
O25 O 0.98734 0.09843 0.4103 0.0
O26 O 0.96217 0.13173 0.3832 0.0
O27 O 0.98627 0.11925 0.3654 0.0
O28 O 0.96467 0.14957 0.4279 0.0
O29 O 0.9501 0.12398 0.41897 0.0
O30 O 0.99941 0.15481 0.41305 0.0
O31 O 0.99777 0.14002 0.38882 0.0
H32 H 0.05728 0.11956 0.38919 0.0
H33 H 0.09287 0.12425 0.38541 0.0
H34 H 0.09523 0.07652 0.34858 0.0
H35 H 0.05971 0.07195 0.3524 0.0
H36 H 0.92409 0.13409 0.39631 0.0
H37 H 0.90641 0.15875 0.37826 0.0
H38 H 0.91855 0.20073 0.41895 0.0
H39 H 0.9362 0.17632 0.43701 0.0
Ho40 Ho 0.20901 0.78913 0.66901 0.0
Ho41 Ho 0.17816 0.76571 0.68881 0.0
C42 C 0.19742 0.79941 0.70977 0.0
C43 C 0.22679 0.81751 0.6555 0.0
C44 C 0.22063 0.83741 0.65088 0.0
C45 C 0.20632 0.84793 0.6606 0.0
C46 C 0.20012 0.8665 0.65535 0.0
C47 C 0.20818 0.87489 0.64033 0.0
C48 C 0.2226 0.86424 0.63079 0.0
C49 C 0.22865 0.84573 0.63597 0.0
C50 C 0.22279 0.75346 0.67651 0.0
C51 C 0.18146 0.76223 0.64618 0.0
C52 C 0.1539 0.73998 0.69867 0.0
C53 C 0.13585 0.73155 0.69034 0.0
C54 C 0.1331 0.73006 0.67177 0.0
C55 C 0.11553 0.72272 0.66426 0.0
C56 C 0.10019 0.71682 0.67513 0.0
C57 C 0.10314 0.7183 0.69372 0.0
C58 C 0.12067 0.7256 0.70119 0.0
C59 C 0.16511 0.80014 0.67569 0.0
O60 O 0.20287 0.80537 0.69412 0.0
O61 O 0.19086 0.78195 0.71208 0.0
O62 O 0.22806 0.81322 0.67242 0.0
O63 O 0.21841 0.80427 0.6459 0.0
O64 O 0.22928 0.76421 0.66421 0.0
O65 O 0.21151 0.76331 0.68686 0.0
O66 O 0.17759 0.7535 0.66109 0.0
O67 O 0.19097 0.77835 0.64608 0.0
O68 O 0.15209 0.758 0.70314 0.0
O69 O 0.17103 0.73586 0.69148 0.0
O70 O 0.15745 0.7927 0.68946 0.0
O71 O 0.17706 0.78824 0.66932 0.0
H72 H 0.19971 0.84171 0.67207 0.0
H73 H 0.18881 0.87413 0.66288 0.0
H74 H 0.22947 0.87029 0.61939 0.0
H75 H 0.23965 0.83785 0.62826 0.0
H76 H 0.14444 0.7347 0.66303 0.0
H77 H 0.11388 0.72194 0.64992 0.0
H78 H 0.092 0.71354 0.70263 0.0
H79 H 0.12235 0.72662 0.71552 0.0
Ho80 Ho 0.54052 0.89946 0.86967 0.0
Ho81 Ho 0.54341 0.89949 0.9016 0.0
C82 C 0.57062 0.86515 0.8866 0.0
C83 C 0.54312 0.9064 0.83628 0.0
C84 C 0.55641 0.91249 0.823 0.0
C85 C 0.57636 0.91532 0.82747 0.0
C86 C 0.58998 0.91611 0.81405 0.0
C87 C 0.58361 0.91383 0.79617 0.0
C88 C 0.56319 0.91376 0.79181 0.0
C89 C 0.54958 0.91293 0.80529 0.0
C90 C 0.51373 0.87328 0.87763 0.0
C91 C 0.49812 0.91264 0.88554 0.0
C92 C 0.53827 0.90368 0.93529 0.0
C93 C 0.52055 0.90044 0.9455 0.0
C94 C 0.50504 0.88989 0.93791 0.0
C95 C 0.48644 0.89028 0.94564 0.0
C96 C 0.48334 0.90083 0.96127 0.0
C97 C 0.49921 0.9103 0.96949 0.0
C98 C 0.51771 0.91026 0.96153 0.0
C99 C 0.57402 0.9237 0.89013 0.0
O100 O 0.56617 0.87555 0.87203 0.0
O101 O 0.56201 0.87128 0.90124 0.0
O102 O 0.54746 0.8897 0.84331 0.0
O103 O 0.53793 0.91932 0.84795 0.0
O104 O 0.51233 0.88482 0.86444 0.0
O105 O 0.53006 0.87516 0.88644 0.0
O106 O 0.50853 0.90628 0.89972 0.0
O107 O 0.5089 0.91394 0.87126 0.0
O108 O 0.53594 0.91764 0.92393 0.0
O109 O 0.54695 0.8885 0.92839 0.0
O110 O 0.57599 0.90898 0.90044 0.0
O111 O 0.55549 0.9237 0.88483 0.0
H112 H 0.58161 0.91513 0.84124 0.0
H113 H 0.60566 0.91602 0.81786 0.0
H114 H 0.55801 0.91212 0.77814 0.0
H115 H 0.534 0.91096 0.80187 0.0
H116 H 0.50702 0.88211 0.92555 0.0
H117 H 0.47434 0.88282 0.9392 0.0
H118 H 0.49697 0.91859 0.98153 0.0
H119 H 0.52947 0.91861 0.96742 0.0
Ho120 Ho 0.39322 0.28441 0.13477 0.0
Ho121 Ho 0.41955 0.29678 0.15359 0.0
C122 C 0.39272 0.27025 0.17555 0.0
C123 C 0.36711 0.26548 0.11708 0.0
C124 C 0.36462 0.24527 0.11512 0.0
C125 C 0.37766 0.23256 0.12441 0.0
C126 C 0.3758 0.21306 0.1222 0.0
C127 C 0.36098 0.2062 0.11058 0.0
C128 C 0.34816 0.21903 0.10109 0.0
C129 C 0.35 0.2386 0.10338 0.0
C130 C 0.37824 0.32 0.14634 0.0
C131 C 0.41787 0.31267 0.11199 0.0
C132 C 0.44571 0.31637 0.17111 0.0
C133 C 0.46001 0.33063 0.16673 0.0
C134 C 0.45728 0.34184 0.15141 0.0
C135 C 0.47233 0.35351 0.14615 0.0
C136 C 0.49012 0.3543 0.15632 0.0
C137 C 0.49245 0.34367 0.17205 0.0
C138 C 0.47748 0.3318 0.17717 0.0
C139 C 0.43181 0.25857 0.14758 0.0
O140 O 0.38835 0.26494 0.15903 0.0
O141 O 0.40356 0.28545 0.17727 0.0
O142 O 0.36419 0.27227 0.13297 0.0
O143 O 0.38343 0.27122 0.11036 0.0
O144 O 0.37868 0.31386 0.13021 0.0
O145 O 0.3875 0.30725 0.1558 0.0
O146 O 0.42565 0.31487 0.12825 0.0
O147 O 0.40482 0.29928 0.11039 0.0
O148 O 0.44943 0.2995 0.16442 0.0
O149 O 0.42695 0.32157 0.16946 0.0
O150 O 0.43132 0.26751 0.16262 0.0
O151 O 0.42454 0.27043 0.13569 0.0
H152 H 0.38922 0.23773 0.13335 0.0
H153 H 0.38557 0.20338 0.12992 0.0
H154 H 0.33666 0.21391 0.09208 0.0
H155 H 0.34008 0.24847 0.09604 0.0
H156 H 0.44373 0.34134 0.14336 0.0
H157 H 0.47015 0.36177 0.13407 0.0
H158 H 0.50613 0.34396 0.18001 0.0
H159 H 0.47979 0.32312 0.18898 0.0
Ho160 Ho 1.01475 0.90615 0.14537 0.0
Ho161 Ho 0.99923 0.88541 0.12624 0.0
C162 C 0.02756 0.90871 0.1038 0.0
C163 C 0.03908 0.92735 0.16307 0.0
C164 C 0.05618 0.92266 0.17448 0.0
C165 C 0.06248 0.90349 0.17684 0.0
C166 C 0.07981 0.89905 0.18673 0.0
C167 C 0.09092 0.91378 0.19428 0.0
C168 C 0.08408 0.93294 0.19228 0.0
C169 C 0.06674 0.93734 0.18242 0.0
C170 C 0.98072 0.92724 0.13416 0.0
C171 C 0.98265 0.88416 0.1668 0.0
C172 C 0.97565 0.86369 0.10823 0.0
C173 C 0.96612 0.84584 0.11201 0.0
C174 C 0.95429 0.84415 0.12695 0.0
C175 C 0.94648 0.82665 0.13097 0.0
C176 C 0.95047 0.8106 0.12018 0.0
C177 C 0.96211 0.81238 0.10513 0.0
C178 C 0.96985 0.82992 0.10106 0.0
C179 C 0.03573 0.86594 0.13605 0.0
O180 O 0.03444 0.91047 0.12042 0.0
O181 O 1.01019 0.90096 0.10235 0.0
O182 O 0.04122 0.92266 0.1465 0.0
O183 O 1.02221 0.92224 0.16904 0.0
O184 O 0.98703 0.92463 0.15025 0.0
O185 O 0.99229 0.91722 0.12428 0.0
O186 O 0.97821 0.88074 0.14989 0.0
O187 O 0.99974 0.89257 0.16939 0.0
O188 O 0.99493 0.86239 0.10739 0.0
O189 O 0.96956 0.87873 0.11708 0.0
O190 O 0.02863 0.86937 0.12022 0.0
O191 O 1.02349 0.87454 0.1466 0.0
H192 H 0.05429 0.89205 0.17063 0.0
H193 H 0.08487 0.88421 0.18799 0.0
H194 H 0.09266 0.94462 0.1975 0.0
H195 H 0.06194 0.95218 0.18052 0.0
H196 H 0.95116 0.85624 0.1356 0.0
H197 H 0.93721 0.82572 0.14246 0.0
H198 H 0.96548 0.80015 0.09669 0.0
H199 H 0.97906 0.83099 0.08955 0.0
Ho200 Ho 0.42199 0.77868 0.40279 0.0
Ho201 Ho 0.41893 0.77454 0.37314 0.0
C202 C 0.4535 0.7459 0.38872 0.0
C203 C 0.42078 0.77362 0.43658 0.0
C204 C 0.41899 0.75645 0.44682 0.0
C205 C 0.41875 0.73877 0.43801 0.0
C206 C 0.41913 0.72202 0.44774 0.0
C207 C 0.41925 0.72284 0.46639 0.0
C208 C 0.41844 0.74069 0.4751 0.0
C209 C 0.41851 0.75747 0.46531 0.0
C210 C 0.4472 0.80676 0.39182 0.0
C211 C 0.40297 0.81747 0.38846 0.0
C212 C 0.41015 0.77549 0.33952 0.0
C213 C 0.40878 0.78856 0.32459 0.0
C214 C 0.42098 0.80431 0.32355 0.0
C215 C 0.41926 0.81621 0.30872 0.0
C216 C 0.40526 0.81248 0.295 0.0
C217 C 0.39264 0.79709 0.29658 0.0
C218 C 0.39449 0.78517 0.31123 0.0
C219 C 0.39431 0.74508 0.38548 0.0
O220 O 0.44392 0.75227 0.40275 0.0
O221 O 0.44734 0.75414 0.37364 0.0
O222 O 0.43732 0.77421 0.42802 0.0
O223 O 0.40513 0.77837 0.42672 0.0
O224 O 0.43666 0.80695 0.40583 0.0
O225 O 0.44515 0.79062 0.38375 0.0
O226 O 0.40966 0.80799 0.37422 0.0
O227 O 0.40338 0.80683 0.40276 0.0
O228 O 0.39723 0.77889 0.3518 0.0
O229 O 0.42787 0.7708 0.34594 0.0
O230 O 0.40981 0.74318 0.37574 0.0
O231 O 0.39473 0.76294 0.39069 0.0
H232 H 0.41885 0.73789 0.42365 0.0
H233 H 0.42011 0.70851 0.44066 0.0
H234 H 0.4182 0.74168 0.48945 0.0
H235 H 0.41857 0.77116 0.47213 0.0
H236 H 0.43189 0.80722 0.33401 0.0
H237 H 0.42919 0.82798 0.3078 0.0
H238 H 0.38137 0.79419 0.28644 0.0
H239 H 0.38478 0.77322 0.3121 0.0
Ho240 Ho 0.53127 0.14503 0.67506 0.0
Ho241 Ho 0.52643 0.13863 0.6388 0.0
C242 C 0.55706 0.17337 0.65253 0.0
C243 C 0.53801 0.14173 0.70834 0.0
C244 C 0.54929 0.13954 0.72477 0.0
C245 C 0.569 0.13243 0.72528 0.0
C246 C 0.57938 0.13144 0.74153 0.0
C247 C 0.57 0.13754 0.7572 0.0
C248 C 0.55013 0.1443 0.7565 0.0
C249 C 0.53983 0.14528 0.74031 0.0
C250 C 0.50336 0.16984 0.66147 0.0
C251 C 0.48705 0.12924 0.66191 0.0
C252 C 0.5256 0.13566 0.60465 0.0
C253 C 0.51636 0.12174 0.59284 0.0
C254 C 0.49864 0.11346 0.5977 0.0
C255 C 0.48652 0.10513 0.58478 0.0
C256 C 0.49221 0.10477 0.56694 0.0
C257 C 0.51165 0.10986 0.56293 0.0
C258 C 0.52352 0.11874 0.57578 0.0
C259 C 0.54867 0.10841 0.654 0.0
O260 O 0.55368 0.16767 0.66893 0.0
O261 O 0.54819 0.16417 0.63891 0.0
O262 O 0.53832 0.15818 0.70021 0.0
O263 O 0.53625 0.12682 0.69782 0.0
O264 O 0.50355 0.16323 0.67745 0.0
O265 O 0.51907 0.16414 0.65412 0.0
O266 O 0.4937 0.1319 0.64561 0.0
O267 O 0.50032 0.13079 0.67535 0.0
O268 O 0.54069 0.12941 0.61448 0.0
O269 O 0.51302 0.14636 0.61349 0.0
O270 O 0.53208 0.107 0.64495 0.0
O271 O 0.55052 0.12626 0.65716 0.0
H272 H 0.57636 0.12809 0.7132 0.0
H273 H 0.59491 0.12662 0.74176 0.0
H274 H 0.54271 0.14913 0.76841 0.0
H275 H 0.52452 0.15084 0.73988 0.0
H276 H 0.49316 0.1152 0.61104 0.0
H277 H 0.47175 0.10125 0.58847 0.0
H278 H 0.51668 0.10913 0.54939 0.0
H279 H 0.53745 0.12465 0.572 0.0
Ho280 Ho 0.19104 0.28724 0.90977 0.0
Ho281 Ho 0.17425 0.31603 0.88539 0.0
C282 C 0.17995 0.27439 0.86648 0.0
C283 C 0.20065 0.25788 0.92904 0.0
C284 C 0.19903 0.23737 0.9275 0.0
C285 C 0.18535 0.22939 0.9154 0.0
C286 C 0.18318 0.20967 0.91503 0.0
C287 C 0.19465 0.19799 0.9268 0.0
C288 C 0.20879 0.20605 0.9384 0.0
C289 C 0.21094 0.22568 0.93875 0.0
C290 C 0.21803 0.3086 0.89477 0.0
C291 C 0.18077 0.32911 0.92899 0.0
C292 C 0.16363 0.34838 0.87394 0.0
C293 C 0.14907 0.35748 0.88572 0.0
C294 C 0.14572 0.37716 0.88713 0.0
C295 C 0.12936 0.38411 0.89672 0.0
C296 C 0.11555 0.37117 0.90271 0.0
C297 C 0.12239 0.35255 0.90611 0.0
C298 C 0.13855 0.34555 0.8968 0.0
C299 C 0.14723 0.29392 0.8992 0.0
O300 O 0.18301 0.26884 0.88364 0.0
O301 O 0.1787 0.29324 0.86334 0.0
O302 O 0.21291 0.26551 0.91825 0.0
O303 O 0.1838 0.26762 0.93024 0.0
O304 O 0.21875 0.30426 0.91148 0.0
O305 O 0.20329 0.30161 0.88698 0.0
O306 O 0.17715 0.33408 0.91202 0.0
O307 O 0.18582 0.31066 0.93191 0.0
O308 O 0.1571 0.33303 0.86593 0.0
O309 O 0.18145 0.34565 0.88124 0.0
O310 O 0.14602 0.30005 0.88303 0.0
O311 O 0.16175 0.30099 0.90736 0.0
H312 H 0.17608 0.2384 0.90661 0.0
H313 H 0.17217 0.20364 0.90604 0.0
H314 H 0.21797 0.19716 0.94738 0.0
H315 H 0.22162 0.23176 0.94803 0.0
H316 H 0.1549 0.38669 0.88021 0.0
H317 H 0.12555 0.39913 0.89688 0.0
H318 H 0.11284 0.34239 0.9121 0.0
H319 H 0.14181 0.33056 0.89729 0.0
Ho320 Ho 0.36755 0.04468 0.14364 0.0
Ho321 Ho 0.40084 1.01845 0.1508 0.0
C322 C 0.41456 0.06302 0.14634 0.0
C323 C 0.34112 0.07211 0.14076 0.0
C324 C 0.34298 0.09182 0.13535 0.0
C325 C 0.35892 0.1024 0.14196 0.0
C326 C 0.36217 0.12025 0.135 0.0
C327 C 0.34958 0.12765 0.12132 0.0
C328 C 0.33365 0.11709 0.11471 0.0
C329 C 0.33037 0.0992 0.12172 0.0
C330 C 0.38046 0.02655 0.11457 0.0
C331 C 0.35374 1.00024 0.14905 0.0
C332 C 0.42784 0.99164 0.14824 0.0
C333 C 0.42515 0.97259 0.14092 0.0
C334 C 0.40902 0.97027 0.12884 0.0
C335 C 0.39744 0.95439 0.13014 0.0
C336 C 0.40197 0.94128 0.14366 0.0
C337 C 0.42091 0.94101 0.15211 0.0
C338 C 0.43251 0.95697 0.15092 0.0
C339 C 0.38821 0.0384 0.17957 0.0
O340 O 0.39459 0.06637 0.14425 0.0
O341 O 0.42073 0.04484 0.14881 0.0
O342 O 0.34456 0.05971 0.12813 0.0
O343 O 0.34983 0.06721 0.15587 0.0
O344 O 0.36194 0.02909 0.11835 0.0
O345 O 0.39151 0.03358 0.12648 0.0
O346 O 0.3737 0.99681 0.14761 0.0
O347 O 0.34787 1.01873 0.14999 0.0
O348 O 0.42553 1.00552 0.13678 0.0
O349 O 0.41806 0.99502 0.16283 0.0
O350 O 0.40674 0.03409 0.17655 0.0
O351 O 0.37757 0.03048 0.16787 0.0
H352 H 0.36905 0.09683 0.15231 0.0
H353 H 0.37432 0.12839 0.1405 0.0
H354 H 0.32384 0.12264 0.10412 0.0
H355 H 0.31829 0.09095 0.11625 0.0
H356 H 0.40309 0.98206 0.12086 0.0
H357 H 0.38327 0.95427 0.12294 0.0
H358 H 0.42476 0.93059 0.16238 0.0
H359 H 0.44504 0.95844 0.16016 0.0
Ho360 Ho 0.26641 0.13484 0.35558 0.0
Ho361 Ho 0.29201 0.1593 0.37523 0.0
C362 C 0.24741 0.17661 0.3686 0.0
C363 C 0.23875 0.1155 0.34059 0.0
C364 C 0.21814 0.11342 0.34482 0.0
C365 C 0.20997 0.12398 0.3589 0.0
C366 C 0.19013 0.12221 0.36289 0.0
C367 C 0.17844 0.10961 0.35298 0.0
C368 C 0.18689 0.09862 0.33921 0.0
C369 C 0.2067 0.10062 0.33509 0.0
C370 C 0.293 0.1526 0.33505 0.0
C371 C 0.305 0.11239 0.37346 0.0
C372 C 0.32238 0.17855 0.38474 0.0
C373 C 0.33531 0.17549 0.40056 0.0
C374 C 0.34486 0.15754 0.40349 0.0
C375 C 0.34922 0.15142 0.42076 0.0
C376 C 0.34405 0.16312 0.43532 0.0
C377 C 0.33696 0.18201 0.43213 0.0
C378 C 0.33299 0.18824 0.41486 0.0
C379 C 0.26561 0.14491 0.39681 0.0
O380 O 0.24367 0.15852 0.36455 0.0
O381 O 0.2663 0.18133 0.37066 0.0
O382 O 0.24313 0.13257 0.33546 0.0
O383 O 0.25143 0.10834 0.35242 0.0
O384 O 0.28883 0.13479 0.33362 0.0
O385 O 0.28291 0.16005 0.34724 0.0
O386 O 0.30988 0.13006 0.37851 0.0
O387 O 0.28796 0.11035 0.36447 0.0
O388 O 0.3041 0.18369 0.38852 0.0
O389 O 0.32316 0.16534 0.37234 0.0
O390 O 0.27404 0.16103 0.39963 0.0
O391 O 0.27375 0.1358 0.3842 0.0
H392 H 0.21885 0.13359 0.36679 0.0
H393 H 0.18391 0.13088 0.37351 0.0
H394 H 0.17819 0.0885 0.33166 0.0
H395 H 0.21307 0.09221 0.32437 0.0
H396 H 0.34727 0.14753 0.39266 0.0
H397 H 0.35572 0.13715 0.42266 0.0
H398 H 0.33277 0.19155 0.44288 0.0
H399 H 0.32574 0.20221 0.41286 0.0
Ho400 Ho 0.16839 0.04159 0.61149 0.0
Ho401 Ho 0.14227 0.06518 0.63367 0.0
C402 C 0.12373 0.02746 0.61929 0.0
C403 C 0.18642 1.01143 0.59845 0.0
C404 C 0.18836 0.99147 0.60484 0.0
C405 C 0.17703 0.98529 0.619 0.0
C406 C 0.17918 0.96643 0.62515 0.0
C407 C 0.19261 0.9533 0.61716 0.0
C408 C 0.20403 0.95964 0.60308 0.0
C409 C 0.20192 0.97851 0.59701 0.0
C410 C 0.15279 0.07253 0.59214 0.0
C411 C 0.19068 0.07213 0.6361 0.0
C412 C 0.12551 0.09321 0.65129 0.0
C413 C 0.1308 0.10325 0.66832 0.0
C414 C 0.14898 0.1124 0.67092 0.0
C415 C 0.15394 0.12093 0.68737 0.0
C416 C 0.14086 0.12064 0.7017 0.0
C417 C 0.12261 0.11164 0.69896 0.0
C418 C 0.1177 0.10307 0.68255 0.0
C419 C 0.15735 0.03361 0.65064 0.0
O420 O 0.14253 1.0226 0.61641 0.0
O421 O 0.11866 0.04539 0.62345 0.0
O422 O 0.16857 1.01745 0.59328 0.0
O423 O 0.19541 1.02408 0.60827 0.0
O424 O 0.17048 0.06459 0.59099 0.0
O425 O 0.14339 0.06313 0.60363 0.0
O426 O 0.17234 0.07779 0.64025 0.0
O427 O 0.19356 0.05755 0.62506 0.0
O428 O 0.12069 0.07542 0.65277 0.0
O429 O 0.1366 0.09574 0.63753 0.0
O430 O 0.13982 0.04113 0.65337 0.0
O431 O 0.16638 0.0441 0.64031 0.0
H432 H 0.16653 0.99501 0.62534 0.0
H433 H 0.1701 0.96207 0.63596 0.0
H434 H 0.21481 0.95005 0.59684 0.0
H435 H 0.21094 0.983 0.58621 0.0
H436 H 0.15947 0.11287 0.66029 0.0
H437 H 0.16804 0.12786 0.6888 0.0
H438 H 0.11225 0.11079 0.70965 0.0
H439 H 0.10365 0.09605 0.68105 0.0
Ho440 Ho 0.29791 0.91502 0.87235 0.0
Ho441 Ho 0.26147 0.89385 0.88945 0.0
C442 C 0.29085 0.86814 0.86689 0.0
C443 C 0.33762 0.91833 0.87351 0.0
C444 C 0.3611 0.91878 0.87566 0.0
C445 C 0.37196 0.90812 0.88909 0.0
C446 C 0.3934 0.90743 0.89083 0.0
C447 C 0.4059 0.91717 0.87914 0.0
C448 C 0.39495 0.92777 0.86562 0.0
C449 C 0.37343 0.92861 0.86399 0.0
C450 C 0.26796 0.90753 0.84608 0.0
C451 C 0.25874 0.94081 0.88752 0.0
C452 C 0.22877 0.88454 0.90443 0.0
C453 C 0.21603 0.89215 0.91915 0.0
C454 C 0.19629 0.89876 0.9155 0.0
C455 C 0.18373 0.9048 0.92928 0.0
C456 C 0.19047 0.90437 0.94721 0.0
C457 C 0.21037 0.89801 0.9508 0.0
C458 C 0.22293 0.89201 0.93703 0.0
C459 C 0.29579 0.89659 0.90947 0.0
O460 O 0.3031 0.88269 0.86766 0.0
O461 O 0.2721 0.87006 0.87185 0.0
O462 O 0.32541 0.92997 0.86416 0.0
O463 O 0.3277 0.90593 0.88227 0.0
O464 O 0.28473 0.91609 0.84345 0.0
O465 O 0.26896 0.90331 0.86264 0.0
O466 O 0.25071 0.9244 0.89102 0.0
O467 O 0.27768 0.94153 0.88163 0.0
O468 O 0.24643 0.87731 0.90886 0.0
O469 O 0.22898 0.89443 0.88973 0.0
O470 O 0.28473 0.8819 0.90898 0.0
O471 O 0.28781 0.90952 0.89953 0.0
H472 H 0.36378 0.90003 0.89847 0.0
H473 H 0.40015 0.89877 0.9014 0.0
H474 H 0.40299 0.93578 0.85611 0.0
H475 H 0.36643 0.93688 0.85326 0.0
H476 H 0.19046 0.89907 0.90193 0.0
H477 H 0.1687 0.90988 0.92581 0.0
H478 H 0.21621 0.8972 0.96435 0.0
H479 H 0.23798 0.88697 0.94048 0.0
Ho480 Ho 0.38702 1.00594 0.40295 0.0
Ho481 Ho 0.41041 0.0371 0.38696 0.0
C482 C 0.43526 0.99854 0.39328 0.0
C483 C 0.37814 0.96933 0.40865 0.0
C484 C 0.38295 0.94746 0.40452 0.0
C485 C 0.39289 0.93996 0.38935 0.0
C486 C 0.39634 0.9196 0.38631 0.0
C487 C 0.39015 0.90518 0.39821 0.0
C488 C 0.38034 0.91301 0.41336 0.0
C489 C 0.37696 0.93318 0.41635 0.0
C490 C 0.3933 0.03612 0.42749 0.0
C491 C 0.36198 0.04532 0.38944 0.0
C492 C 0.42205 0.06964 0.37508 0.0
C493 C 0.41408 0.08306 0.36081 0.0
C494 C 0.40841 0.10212 0.36495 0.0
C495 C 0.4014 0.11496 0.3516 0.0
C496 C 0.39985 0.10917 0.33361 0.0
C497 C 0.4054 0.08998 0.32956 0.0
C498 C 0.41233 0.07717 0.3429 0.0
C499 C 0.39897 1.00977 0.36308 0.0
O500 O 0.41709 0.99226 0.39509 0.0
O501 O 0.43765 1.0173 0.39312 0.0
O502 O 0.39051 0.9792 0.4185 0.0
O503 O 0.36894 0.98068 0.39697 0.0
O504 O 0.37889 1.02405 0.42722 0.0
O505 O 0.40596 0.02962 0.41583 0.0
O506 O 0.37985 0.05134 0.38623 0.0
O507 O 0.35989 0.02703 0.39476 0.0
O508 O 0.42933 0.05301 0.36999 0.0
O509 O 0.41162 0.06818 0.38935 0.0
O510 O 0.41481 1.01945 0.36213 0.0
O511 O 0.38875 1.01647 0.3757 0.0
H512 H 0.39814 0.94984 0.37969 0.0
H513 H 0.40411 0.91528 0.37447 0.0
H514 H 0.37475 0.90356 0.42318 0.0
H515 H 0.36927 0.93765 0.42822 0.0
H516 H 0.40945 0.10714 0.37858 0.0
H517 H 0.39702 0.12941 0.35547 0.0
H518 H 0.40478 0.08484 0.31597 0.0
H519 H 0.41647 0.06263 0.33908 0.0
Ho520 Ho 0.28909 0.14083 0.68165 0.0
Ho521 Ho 0.24925 0.15708 0.66171 0.0
C522 C 0.283 0.18574 0.66796 0.0
C523 C 0.32889 0.13461 0.68183 0.0
C524 C 0.35208 0.13078 0.67965 0.0
C525 C 0.36076 0.1277 0.66277 0.0
C526 C 0.38197 0.12565 0.66039 0.0
C527 C 0.39644 0.12747 0.67456 0.0
C528 C 0.38761 0.13047 0.69149 0.0
C529 C 0.36633 0.13187 0.69395 0.0
C530 C 0.25916 0.15439 0.70493 0.0
C531 C 0.25137 0.11495 0.67398 0.0
C532 C 0.21475 0.16189 0.64495 0.0
C533 C 0.20712 0.1639 0.62603 0.0
C534 C 0.18731 0.1703 0.62233 0.0
C535 C 0.17908 0.16997 0.60484 0.0
C536 C 0.19036 0.16307 0.59044 0.0
C537 C 0.21046 0.15727 0.59418 0.0
C538 C 0.21866 0.15763 0.61165 0.0
C539 C 0.27987 0.14426 0.64166 0.0
O540 O 0.2945 0.17106 0.67347 0.0
O541 O 0.2636 0.1849 0.66504 0.0
O542 O 0.31748 0.128 0.69424 0.0
O543 O 0.31821 0.14392 0.66972 0.0
O544 O 0.27398 0.14209 0.70878 0.0
O545 O 0.26266 0.16081 0.68935 0.0
O546 O 0.24204 0.13142 0.6774 0.0
O547 O 0.27127 0.11455 0.67283 0.0
O548 O 0.2244 0.17597 0.65232 0.0
O549 O 0.22306 0.14529 0.64911 0.0
O550 O 0.26788 0.1583 0.63707 0.0
O551 O 0.27426 0.1373 0.65579 0.0
H552 H 0.35101 0.12697 0.65109 0.0
H553 H 0.38693 0.12349 0.64696 0.0
H554 H 0.39715 0.13177 0.70322 0.0
H555 H 0.36103 0.13441 0.70724 0.0
H556 H 0.17792 0.17504 0.63309 0.0
H557 H 0.16361 0.17448 0.60277 0.0
H558 H 0.21992 0.15221 0.58359 0.0
H559 H 0.23394 0.15254 0.61396 0.0
Ho560 Ho 0.16855 0.03154 0.92373 0.0
Ho561 Ho 0.14293 1.01004 0.90057 0.0
C562 C 0.12543 0.0519 0.91094 0.0
C563 C 0.18881 0.05699 0.94021 0.0
C564 C 0.18965 0.07743 0.93738 0.0
C565 C 0.17948 0.08588 0.92272 0.0
C566 C 0.17945 0.10556 0.9204 0.0
C567 C 0.18985 0.11695 0.93262 0.0
C568 C 0.20057 0.10829 0.94698 0.0
C569 C 0.20034 0.08862 0.9494 0.0
C570 C 0.14881 1.00417 0.94132 0.0
C571 C 0.1913 0.99601 0.90412 0.0
C572 C 0.12319 0.98278 0.8864 0.0
C573 C 0.12757 0.97094 0.87069 0.0
C574 C 0.14568 0.96032 0.86955 0.0
C575 C 0.15181 0.9531 0.85319 0.0
C576 C 0.14003 0.95651 0.83768 0.0
C577 C 0.12135 0.96608 0.83913 0.0
C578 C 0.11513 0.97307 0.8555 0.0
C579 C 0.15932 0.038 0.88286 0.0
O580 O 0.14415 0.05454 0.91629 0.0
O581 O 0.12021 0.0343 0.90657 0.0
O582 O 0.17176 0.05132 0.94567 0.0
O583 O 0.19587 0.04641 0.92735 0.0
O584 O 0.1673 1.00811 0.94415 0.0
O585 O 0.14156 1.01513 0.92934 0.0
O586 O 0.17313 0.99296 0.89715 0.0
O587 O 0.19351 1.01062 0.91519 0.0
O588 O 0.1195 1.00081 0.8828 0.0
O589 O 0.1349 0.98032 0.90049 0.0
O590 O 0.14214 0.03125 0.87865 0.0
O591 O 0.16816 0.02794 0.89477 0.0
H592 H 0.17146 0.07731 0.91313 0.0
H593 H 0.17103 0.11185 0.90926 0.0
H594 H 0.20913 0.11672 0.95635 0.0
H595 H 0.2084 0.08216 0.96066 0.0
H596 H 0.15557 0.95837 0.88107 0.0
H597 H 0.16603 0.94532 0.85263 0.0
H598 H 0.11198 0.9692 0.82749 0.0
H599 H 0.10118 0.98134 0.85606 0.0
Ho600 Ho 0.24764 0.916 0.16325 0.0
Ho601 Ho 0.27162 0.8914 0.14252 0.0
C602 C 0.22909 0.87178 0.15198 0.0
C603 C 0.22153 0.93716 0.17911 0.0
C604 C 0.20595 0.93159 0.19065 0.0
C605 C 0.2049 0.91231 0.19543 0.0
C606 C 0.18793 0.90601 0.2033 0.0
C607 C 0.17199 0.91898 0.20645 0.0
C608 C 0.17405 0.93862 0.2033 0.0
C609 C 0.191 0.94488 0.19532 0.0
C610 C 0.27304 0.89424 0.18326 0.0
C611 C 0.29007 0.93542 0.15158 0.0
C612 C 0.29921 0.87343 0.12657 0.0
C613 C 0.30659 0.88069 0.10995 0.0
C614 C 0.32563 0.88802 0.10962 0.0
C615 C 0.33244 0.89539 0.09391 0.0
C616 C 0.32027 0.89544 0.07846 0.0
C617 C 0.30045 0.89032 0.07933 0.0
C618 C 0.29366 0.88286 0.09495 0.0
C619 C 0.24703 0.91414 0.12243 0.0
O620 O 0.22545 0.88976 0.15844 0.0
O621 O 0.24763 0.86832 0.14639 0.0
O622 O 0.23947 0.93367 0.18558 0.0
O623 O 0.21928 0.93159 0.16258 0.0
O624 O 0.26923 0.91215 0.18607 0.0
O625 O 0.26327 0.8884 0.16999 0.0
O626 O 0.29391 0.91717 0.1464 0.0
O627 O 0.27151 0.93901 0.15725 0.0
O628 O 0.2809 0.86787 0.12571 0.0
O629 O 0.30304 0.88388 0.14064 0.0
O630 O 0.25072 0.89633 0.11906 0.0
O631 O 0.25668 0.91911 0.13604 0.0
H632 H 0.21661 0.90197 0.192 0.0
H633 H 0.18657 0.89084 0.20558 0.0
H634 H 0.16181 0.94886 0.20535 0.0
H635 H 0.19182 0.9598 0.19172 0.0
H636 H 0.33531 0.88764 0.12138 0.0
H637 H 0.34769 0.89948 0.09339 0.0
H638 H 0.29086 0.89021 0.0675 0.0
H639 H 0.27845 0.87827 0.09501 0.0
Ho640 Ho 0.1593 0.40661 0.02937 0.0
Ho641 Ho 0.1784 0.4357 1.00689 0.0
C642 C 0.16585 0.45126 0.0471 0.0
C643 C 0.14791 0.38222 0.05211 0.0
C644 C 0.14594 0.37986 0.07112 0.0
C645 C 0.15395 0.39286 0.08336 0.0
C646 C 0.15418 0.38874 0.10149 0.0
C647 C 0.14687 0.37139 0.10739 0.0
C648 C 0.13755 0.3592 0.09508 0.0
C649 C 0.13716 0.3634 0.07706 0.0
C650 C 0.13506 0.42503 1.00647 0.0
C651 C 0.17255 0.39059 0.98948 0.0
C652 C 0.18773 0.4578 0.98155 0.0
C653 C 0.19427 0.45284 0.96367 0.0
C654 C 0.18619 0.43724 0.95448 0.0
C655 C 0.19582 0.42929 0.9399 0.0
C656 C 0.21344 0.43699 0.93425 0.0
C657 C 0.22066 0.45348 0.94255 0.0
C658 C 0.21114 0.46132 0.95725 0.0
C659 C 0.20313 0.41588 0.02914 0.0
O660 O 0.16218 0.43263 0.04992 0.0
O661 O 0.17105 0.45616 0.03068 0.0
O662 O 0.13577 0.39482 0.04436 0.0
O663 O 0.16615 0.38275 0.04663 0.0
O664 O 0.13379 0.40705 1.0099 0.0
O665 O 0.14834 0.43268 1.01577 0.0
O666 O 0.17671 0.40912 0.98688 0.0
O667 O 0.16667 0.38583 1.0057 0.0
O668 O 0.20032 0.45228 0.99423 0.0
O669 O 0.16928 0.45421 0.98501 0.0
O670 O 0.2048 0.43393 0.02591 0.0
O671 O 0.18912 0.40953 0.01978 0.0
H672 H 0.16066 0.40575 0.07886 0.0
H673 H 0.16093 0.39862 0.11074 0.0
H674 H 0.13116 0.34606 0.09931 0.0
H675 H 0.13071 0.35338 0.06769 0.0
H676 H 0.17313 0.43049 0.9591 0.0
H677 H 0.19 0.41671 0.93344 0.0
H678 H 0.23437 0.45952 0.9384 0.0
H679 H 0.21768 0.47321 0.9643 0.0
Ho680 Ho 0.66695 0.17084 0.03585 0.0
Ho681 Ho 0.68435 0.131 0.02801 0.0
C682 C 0.69747 0.14936 0.06534 0.0
C683 C 0.64336 0.19859 0.04509 0.0
C684 C 0.64776 0.21708 0.05248 0.0
C685 C 0.63271 0.22861 0.05987 0.0
C686 C 0.63786 0.2443 0.07022 0.0
C687 C 0.65806 0.24805 0.07338 0.0
C688 C 0.67278 0.238 0.06388 0.0
C689 C 0.66764 0.22241 0.05358 0.0
C690 C 0.70329 0.17267 0.0227 0.0
C691 C 0.66558 0.15593 0.99489 0.0
C692 C 0.69594 0.09792 0.01709 0.0
C693 C 0.6842 0.08543 1.00549 0.0
C694 C 0.67685 0.09204 0.9889 0.0
C695 C 0.66492 0.08065 0.97825 0.0
C696 C 0.66016 0.06235 0.98393 0.0
C697 C 0.66631 0.05628 1.00105 0.0
C698 C 0.67832 0.06774 1.01175 0.0
C699 C 0.64716 0.13352 0.04108 0.0
O700 O 0.68275 0.16257 0.06255 0.0
O701 O 0.70271 0.1371 0.05264 0.0
O702 O 0.64949 0.19615 0.02894 0.0
O703 O 0.64798 0.18401 0.05551 0.0
O704 O 0.69137 0.18746 0.02506 0.0
O705 O 0.69707 0.15913 0.03176 0.0
O706 O 0.6767 0.14084 0.99999 0.0
O707 O 0.6581 0.16818 1.00666 0.0
O708 O 0.68869 0.10072 0.03283 0.0
O709 O 0.70181 0.11365 1.00992 0.0
O710 O 0.66053 0.12082 0.04599 0.0
O711 O 0.65401 0.14379 0.02942 0.0
H712 H 0.61729 0.22466 0.0588 0.0
H713 H 0.62636 0.25204 0.07744 0.0
H714 H 0.68846 0.24053 0.06622 0.0
H715 H 0.67936 0.2136 0.04775 0.0
H716 H 0.68065 0.10584 0.98388 0.0
H717 H 0.66077 0.08565 0.965 0.0
H718 H 0.66281 0.04221 1.0057 0.0
H719 H 0.68327 0.06267 0.02477 0.0
Ho720 Ho 0.18128 0.34411 0.25943 0.0
Ho721 Ho 0.20256 0.36782 0.2852 0.0
C722 C 0.22544 0.35882 0.25055 0.0
C723 C 0.16801 0.32544 0.23241 0.0
C724 C 0.16687 0.33114 0.21377 0.0
C725 C 0.17567 0.34804 0.20861 0.0
C726 C 0.17267 0.35493 0.19139 0.0
C727 C 0.16088 0.34493 0.17909 0.0
C728 C 0.15228 0.32788 0.18424 0.0
C729 C 0.15522 0.32106 0.20153 0.0
C730 C 0.18284 0.32831 0.29295 0.0
C731 C 0.1559 0.37327 0.28109 0.0
C732 C 0.21758 0.3815 0.31421 0.0
C733 C 0.21436 0.40078 0.32203 0.0
C734 C 0.19956 0.40397 0.33465 0.0
C735 C 0.1938 0.42255 0.3397 0.0
C736 C 0.20284 0.43833 0.33234 0.0
C737 C 0.21845 0.43513 0.32054 0.0
C738 C 0.22416 0.41654 0.31542 0.0
C739 C 0.18944 0.39222 0.25823 0.0
O740 O 0.20842 0.35226 0.24443 0.0
O741 O 0.22838 0.36169 0.26771 0.0
O742 O 0.186 0.32235 0.23928 0.0
O743 O 0.15657 0.33603 0.24257 0.0
O744 O 0.16804 0.32856 0.28171 0.0
O745 O 0.19751 0.33617 0.28552 0.0
O746 O 0.17088 0.37164 0.29267 0.0
O747 O 0.15709 0.36563 0.26511 0.0
O748 O 0.22731 0.38044 0.29941 0.0
O749 O 0.202 0.37086 0.31375 0.0
O750 O 0.19884 0.39745 0.2726 0.0
O751 O 0.1869 0.37448 0.25938 0.0
H752 H 0.18447 0.35616 0.21798 0.0
H753 H 0.17957 0.36802 0.18769 0.0
H754 H 0.14294 0.32005 0.17501 0.0
H755 H 0.14803 0.30821 0.20545 0.0
H756 H 0.19182 0.39212 0.34009 0.0
H757 H 0.18202 0.42457 0.34914 0.0
H758 H 0.22568 0.44702 0.31465 0.0
H759 H 0.23567 0.41462 0.30571 0.0
Ho760 Ho 0.94452 0.88517 0.51726 0.0
Ho761 Ho 0.92259 0.91163 0.54122 0.0
C762 C 0.93037 0.92843 0.50306 0.0
C763 C 0.95429 0.86811 0.48702 0.0
C764 C 0.94878 0.86738 0.46703 0.0
C765 C 0.93345 0.87879 0.45855 0.0
C766 C 0.92898 0.87722 0.43986 0.0
C767 C 0.93974 0.86424 0.42864 0.0
C768 C 0.95529 0.85324 0.43736 0.0
C769 C 0.95955 0.8547 0.4559 0.0
C770 C 0.96918 0.89987 0.54513 0.0
C771 C 0.92766 0.86621 0.55403 0.0
C772 C 0.9089 0.93138 0.56774 0.0
C773 C 0.8907 0.9295 0.5779 0.0
C774 C 0.89065 0.93384 0.59612 0.0
C775 C 0.87359 0.93108 0.60593 0.0
C776 C 0.85635 0.92392 0.59763 0.0
C777 C 0.85646 0.9199 0.57929 0.0
C778 C 0.87348 0.92251 0.56957 0.0
C779 C 0.89859 0.89768 0.51449 0.0
O780 O 0.93438 0.91026 0.49919 0.0
O781 O 0.92912 0.93354 0.52003 0.0
O782 O 0.96278 0.88325 0.49357 0.0
O783 O 0.94216 0.86118 0.49845 0.0
O784 O 0.97135 0.88332 0.5371 0.0
O785 O 0.95511 0.90895 0.53628 0.0
O786 O 0.92224 0.8842 0.55787 0.0
O787 O 0.93563 0.86228 0.5381 0.0
O788 O 0.90616 0.93642 0.55118 0.0
O789 O 0.92227 0.91745 0.56959 0.0
O790 O 0.89542 0.91363 0.52286 0.0
O791 O 0.91274 0.88864 0.52275 0.0
H792 H 0.92482 0.88896 0.46637 0.0
H793 H 0.91684 0.88611 0.43432 0.0
H794 H 0.96469 0.84345 0.42987 0.0
H795 H 0.9716 0.84577 0.4616 0.0
H796 H 0.90389 0.93905 0.60281 0.0
H797 H 0.87408 0.93404 0.62007 0.0
H798 H 0.84338 0.91461 0.57241 0.0
H799 H 0.87321 0.91887 0.55555 0.0
Ho800 Ho 0.89544 0.1545 0.26266 0.0
Ho801 Ho 0.86492 0.13977 0.28561 0.0
C802 C 0.84913 0.14874 0.24549 0.0
C803 C 0.91969 0.16281 0.23795 0.0
C804 C 0.92229 0.16115 0.21871 0.0
C805 C 0.91156 0.14832 0.20809 0.0
C806 C 0.91599 0.14586 0.1901 0.0
C807 C 0.93129 0.15611 0.1826 0.0
C808 C 0.94107 0.16973 0.19316 0.0
C809 C 0.93666 0.17215 0.21103 0.0
C810 C 0.87996 0.18173 0.28431 0.0
C811 C 0.91146 0.14157 0.30278 0.0
C812 C 0.84364 0.12922 0.31149 0.0
C813 C 0.84898 0.11488 0.32543 0.0
C814 C 0.86619 0.11659 0.3363 0.0
C815 C 0.87347 0.10128 0.34679 0.0
C816 C 0.86342 0.08401 0.34697 0.0
C817 C 0.84562 0.08268 0.33679 0.0
C818 C 0.83853 0.09792 0.3261 0.0
C819 C 0.88259 0.1134 0.26412 0.0
O820 O 0.86872 0.14924 0.24245 0.0
O821 O 0.84355 0.14829 0.26236 0.0
O822 O 0.90543 0.17449 0.24327 0.0
O823 O 0.92105 0.14695 0.24702 0.0
O824 O 0.89856 0.17965 0.2805 0.0
O825 O 0.86982 0.1692 0.27626 0.0
O826 O 0.89213 0.13939 0.30537 0.0
O827 O 0.91704 0.14629 0.28649 0.0
O828 O 0.84197 0.12215 0.29546 0.0
O829 O 0.85326 0.14517 0.31185 0.0
O830 O 0.86404 0.11354 0.26813 0.0
O831 O 0.89081 0.12634 0.27284 0.0
H832 H 0.90017 0.13993 0.21381 0.0
H833 H 0.908 0.13543 0.18229 0.0
H834 H 0.95243 0.17835 0.1877 0.0
H835 H 0.94486 0.18233 0.21898 0.0
H836 H 0.87439 0.12954 0.33628 0.0
H837 H 0.88701 0.10296 0.35472 0.0
H838 H 0.83762 0.06953 0.33643 0.0
H839 H 0.82533 0.09613 0.31772 0.0
Ho840 Ho 0.46124 0.6281 0.53008 0.0
Ho841 Ho 0.43801 0.60699 0.50508 0.0
C842 C 0.44832 0.58512 0.54044 0.0
C843 C 0.4765 0.64238 0.55888 0.0
C844 C 0.46928 0.64247 0.57721 0.0
C845 C 0.45211 0.63274 0.5814 0.0
C846 C 0.44485 0.63343 0.59866 0.0
C847 C 0.45449 0.64408 0.61207 0.0
C848 C 0.47148 0.65408 0.60765 0.0
C849 C 0.47883 0.65321 0.59043 0.0
C850 C 0.47996 0.62633 0.49749 0.0
C851 C 0.43636 0.65241 0.5023 0.0
C852 C 0.42375 0.58898 0.47782 0.0
C853 C 0.41819 0.59256 0.45932 0.0
C854 C 0.42239 0.60996 0.45144 0.0
C855 C 0.41086 0.61644 0.43683 0.0
C856 C 0.39467 0.60584 0.43053 0.0
C857 C 0.39259 0.58721 0.43693 0.0
C858 C 0.40434 0.58062 0.45128 0.0
C859 C 0.41629 0.61717 0.53427 0.0
O860 O 0.45373 0.602 0.54617 0.0
O861 O 0.4459 0.58233 0.52324 0.0
O862 O 0.48234 0.62573 0.55239 0.0
O863 O 0.46527 0.65232 0.54759 0.0
O864 O 0.48107 0.63967 0.50937 0.0
O865 O 0.47085 0.61248 0.5047 0.0
O866 O 0.43486 0.63632 0.49321 0.0
O867 O 0.44312 0.6525 0.51889 0.0
O868 O 0.41288 0.59877 0.48901 0.0
O869 O 0.4427 0.58846 0.48226 0.0
O870 O 0.41436 0.60156 0.5252 0.0
O871 O 0.42866 0.62729 0.52669 0.0
H872 H 0.44418 0.62473 0.57132 0.0
H873 H 0.43181 0.62548 0.6015 0.0
H874 H 0.47902 0.66286 0.61743 0.0
H875 H 0.49183 0.66113 0.5874 0.0
H876 H 0.43311 0.61931 0.45759 0.0
H877 H 0.41315 0.63065 0.43183 0.0
H878 H 0.38033 0.57862 0.43246 0.0
H879 H 0.40098 0.56716 0.45735 0.0
Ho880 Ho 0.16034 0.67196 0.32991 0.0
Ho881 Ho 0.18317 0.65256 0.29664 0.0
C882 C 0.20683 0.67972 0.32187 0.0
C883 C 0.14756 0.68055 0.36142 0.0
C884 C 0.15055 0.67798 0.38096 0.0
C885 C 0.16798 0.6831 0.39041 0.0
C886 C 0.17002 0.67976 0.40886 0.0
C887 C 0.15453 0.67165 0.41814 0.0
C888 C 0.13706 0.667 0.40874 0.0
C889 C 0.13511 0.6701 0.39041 0.0
C890 C 0.1557 0.68992 0.29869 0.0
C891 C 0.1365 0.64459 0.30339 0.0
C892 C 0.19304 0.64126 0.26498 0.0
C893 C 0.18763 0.62698 0.25114 0.0
C894 C 0.19257 0.6301 0.23341 0.0
C895 C 0.18832 0.61659 0.22009 0.0
C896 C 0.17894 0.59957 0.22415 0.0
C897 C 0.17381 0.59659 0.24198 0.0
C898 C 0.17808 0.61014 0.2553 0.0
C899 C 0.18874 0.63601 0.3285 0.0
O900 O 0.19304 0.67751 0.33392 0.0
O901 O 0.20415 0.67485 0.30497 0.0
O902 O 0.14257 0.66538 0.35234 0.0
O903 O 0.15936 0.69142 0.35268 0.0
O904 O 0.14286 0.69183 0.31124 0.0
O905 O 0.17106 0.68092 0.30433 0.0
O906 O 0.15233 0.64234 0.29348 0.0
O907 O 0.136 0.65458 0.31833 0.0
O908 O 0.20173 0.63474 0.27967 0.0
O909 O 0.17993 0.65519 0.26795 0.0
O910 O 0.20178 0.63416 0.31613 0.0
O911 O 0.17295 0.644 0.3225 0.0
H912 H 0.18016 0.68916 0.38353 0.0
H913 H 0.18368 0.68343 0.41586 0.0
H914 H 0.12488 0.66089 0.41561 0.0
H915 H 0.12142 0.66625 0.38355 0.0
H916 H 0.19983 0.64304 0.22985 0.0
H917 H 0.19216 0.61961 0.20655 0.0
H918 H 0.16673 0.58364 0.24572 0.0
H919 H 0.17407 0.60738 0.26886 0.0
Ho920 Ho 0.3987 0.35196 0.75765 0.0
Ho921 Ho 0.37133 0.3732 0.73273 0.0
C922 C 0.35255 0.36633 0.7708 0.0
C923 C 0.41761 0.34223 0.78794 0.0
C924 C 0.4194 0.34629 0.8081 0.0
C925 C 0.41035 0.36225 0.81684 0.0
C926 C 0.41349 0.36564 0.83553 0.0
C927 C 0.42569 0.35312 0.84652 0.0
C928 C 0.43413 0.33694 0.83756 0.0
C929 C 0.43118 0.33374 0.81901 0.0
C930 C 0.38562 0.32883 0.7288 0.0
C931 C 0.41877 0.36871 0.7207 0.0
C932 C 0.35035 0.38689 0.70597 0.0
C933 C 0.35355 0.40201 0.69293 0.0
C934 C 0.37057 0.40164 0.6825 0.0
C935 C 0.37474 0.41744 0.67219 0.0
C936 C 0.3621 0.43397 0.67227 0.0
C937 C 0.34458 0.4339 0.682 0.0
C938 C 0.34033 0.41804 0.6922 0.0
C939 C 0.38748 0.39531 0.75911 0.0
O940 O 0.3715 0.36149 0.7752 0.0
O941 O 0.34783 0.36793 0.75357 0.0
O942 O 0.402 0.3337 0.78135 0.0
O943 O 0.42375 0.3548 0.77673 0.0
O944 O 0.40236 0.32687 0.73799 0.0
O945 O 0.37509 0.34166 0.73725 0.0
O946 O 0.40001 0.37434 0.71656 0.0
O947 O 0.42263 0.36063 0.73682 0.0
O948 O 0.34844 0.3929 0.72225 0.0
O949 O 0.36156 0.37125 0.70509 0.0
O950 O 0.36999 0.39834 0.75189 0.0
O951 O 0.39612 0.38197 0.7506 0.0
H952 H 0.40086 0.37222 0.80922 0.0
H953 H 0.40645 0.37833 0.84122 0.0
H954 H 0.44307 0.32628 0.84483 0.0
H955 H 0.43833 0.32119 0.81312 0.0
H956 H 0.38104 0.38948 0.68278 0.0
H957 H 0.38824 0.41697 0.66464 0.0
H958 H 0.33469 0.44648 0.68254 0.0
H959 H 0.32717 0.41866 0.7002 0.0
Ho960 Ho 0.07303 0.91921 0.62251 0.0
Ho961 Ho 0.0464 0.9388 0.64378 0.0
C962 C 0.085 0.92147 0.66618 0.0
C963 C 0.10508 0.90761 0.60735 0.0
C964 C 0.12075 0.8948 0.61512 0.0
C965 C 0.13044 0.89961 0.63129 0.0
C966 C 0.13994 0.88539 0.64171 0.0
C967 C 0.14001 0.86637 0.63595 0.0
C968 C 0.13196 0.86183 0.6191 0.0
C969 C 0.12247 0.87598 0.60871 0.0
C970 C 0.04675 0.89554 0.63591 0.0
C971 C 0.02957 0.92436 0.60345 0.0
C972 C 1.0183 0.95589 0.66091 0.0
C973 C 0.99715 0.95402 0.66214 0.0
C974 C 0.9875 0.93982 0.65235 0.0
C975 C 0.96738 0.93725 0.65466 0.0
C976 C 0.95704 0.94876 0.66688 0.0
C977 C 0.96672 0.96317 0.67639 0.0
C978 C 0.98678 0.96579 0.67401 0.0
C979 C 0.07508 0.9621 0.63267 0.0
O980 O 0.09082 0.91686 0.64979 0.0
O981 O 0.0668 0.92934 0.66765 0.0
O982 O 0.08805 0.89956 0.60474 0.0
O983 O 0.103 0.9246 0.61452 0.0
O984 O 0.05355 0.89389 0.62008 0.0
O985 O 0.05519 0.90866 0.64431 0.0
O986 O 1.02478 0.92912 0.62016 0.0
O987 O 0.04893 0.92267 0.60022 0.0
O988 O 1.02424 0.96177 0.6456 0.0
O989 O 0.02895 0.94136 0.66719 0.0
O990 O 0.06918 0.96078 0.64868 0.0
O991 O 0.06574 0.95038 0.62283 0.0
H992 H 0.12959 0.9141 0.63645 0.0
H993 H 0.14671 0.88909 0.65445 0.0
H994 H 0.13202 0.84715 0.6144 0.0
H995 H 0.11506 0.87192 0.59635 0.0
H996 H 0.99561 0.9305 0.64331 0.0
H997 H 0.96006 0.92597 0.64737 0.0
H998 H 0.95878 0.97224 0.68577 0.0
H999 H 0.99428 0.97671 0.68166 0.0
Ho1000 Ho 0.87486 0.28251 0.34479 0.0
Ho1001 Ho 0.84268 0.25928 0.36305 0.0
C1002 C 0.87005 0.28468 0.38759 0.0
C1003 C 0.89926 0.30831 0.33536 0.0
C1004 C 0.91738 0.31666 0.34357 0.0
C1005 C 0.91986 0.31891 0.36209 0.0
C1006 C 0.93738 0.32642 0.36952 0.0
C1007 C 0.95293 0.33169 0.35859 0.0
C1008 C 0.95031 0.32935 0.34005 0.0
C1009 C 0.93281 0.32192 0.33268 0.0
C1010 C 0.88689 0.24767 0.35739 0.0
C1011 C 0.85586 0.24927 0.32279 0.0
C1012 C 0.82336 0.23138 0.3755 0.0
C1013 C 0.82888 0.21132 0.37981 0.0
C1014 C 0.84373 0.20098 0.37059 0.0
C1015 C 0.84959 0.18234 0.37576 0.0
C1016 C 0.84065 0.17371 0.39022 0.0
C1017 C 0.82569 0.18417 0.39926 0.0
C1018 C 0.81997 0.20278 0.39416 0.0
C1019 C 0.8303 0.29544 0.35605 0.0
O1020 O 0.87557 0.29333 0.37307 0.0
O1021 O 0.85962 0.26911 0.38691 0.0
O1022 O 0.90102 0.29036 0.33066 0.0
O1023 O 0.88223 0.31235 0.34275 0.0
O1024 O 0.89539 0.2555 0.34423 0.0
O1025 O 0.87475 0.25945 0.36371 0.0
O1026 O 0.8496 0.24318 0.3381 0.0
O1027 O 0.86281 0.26665 0.32098 0.0
O1028 O 0.832 0.24408 0.38556 0.0
O1029 O 0.82269 0.23606 0.35867 0.0
O1030 O 0.82297 0.28461 0.36785 0.0
O1031 O 0.84155 0.28548 0.3458 0.0
H1032 H 0.90832 0.31477 0.37084 0.0
H1033 H 0.93881 0.32786 0.38383 0.0
H1034 H 0.96165 0.33359 0.3311 0.0
H1035 H 0.93133 0.32028 0.31838 0.0
H1036 H 0.85104 0.20743 0.3596 0.0
H1037 H 0.86135 0.17484 0.36866 0.0
H1038 H 0.81818 0.17792 0.41022 0.0
H1039 H 0.80861 0.21056 0.40152 0.0
Ho1040 Ho 0.50953 0.14924 0.13119 0.0
Ho1041 Ho 0.51204 0.15167 0.1635 0.0
C1042 C 0.55531 0.13785 0.14896 0.0
C1043 C 0.51438 0.1438 0.09769 0.0
C1044 C 0.53238 0.1446 0.08711 0.0
C1045 C 0.5456 0.15961 0.08939 0.0
C1046 C 0.56395 0.15879 0.08108 0.0
C1047 C 0.56944 0.14281 0.07073 0.0
C1048 C 0.55608 0.12804 0.0682 0.0
C1049 C 0.53764 0.12899 0.07625 0.0
C1050 C 0.47833 0.12638 0.14392 0.0
C1051 C 0.48142 0.18347 0.14581 0.0
C1052 C 0.51524 0.14229 0.19669 0.0
C1053 C 0.50238 0.13511 0.20992 0.0
C1054 C 0.48294 0.13061 0.20492 0.0
C1055 C 0.46853 0.13037 0.21771 0.0
C1056 C 0.47355 0.13477 0.23554 0.0
C1057 C 0.49366 0.13633 0.24074 0.0
C1058 C 0.50808 0.13671 0.22786 0.0
C1059 C 0.53122 0.18293 0.15291 0.0
O1060 O 0.54397 0.13904 0.134 0.0
O1061 O 0.54555 0.14241 0.16342 0.0
O1062 O 0.51473 0.12989 0.10919 0.0
O1063 O 0.50749 0.15999 0.1043 0.0
O1064 O 0.47666 0.14042 0.13281 0.0
O1065 O 0.49675 0.12669 0.14939 0.0
O1066 O 0.48379 0.17203 0.15995 0.0
O1067 O 0.49249 0.17852 0.13214 0.0
O1068 O 0.51011 0.1594 0.19112 0.0
O1069 O 0.51949 0.13059 0.18372 0.0
O1070 O 0.51843 0.18285 0.1654 0.0
O1071 O 0.53201 0.16661 0.14548 0.0
H1072 H 0.5421 0.17165 0.09803 0.0
H1073 H 0.57417 0.17023 0.08334 0.0
H1074 H 0.56008 0.1156 0.06022 0.0
H1075 H 0.52778 0.11717 0.07454 0.0
H1076 H 0.47848 0.1294 0.191 0.0
H1077 H 0.45317 0.12924 0.21317 0.0
H1078 H 0.49788 0.13946 0.25442 0.0
H1079 H 0.52319 0.14012 0.23176 0.0
Ho1080 Ho 0.6332 0.75207 0.87867 0.0
Ho1081 Ho 0.65943 0.76467 0.89736 0.0
C1082 C 0.6347 0.73667 0.92031 0.0
C1083 C 0.6071 0.73237 0.86122 0.0
C1084 C 0.59297 0.71796 0.86557 0.0
C1085 C 0.59589 0.70666 0.88081 0.0
C1086 C 0.58093 0.69491 0.88612 0.0
C1087 C 0.56304 0.69415 0.87608 0.0
C1088 C 0.56056 0.70486 0.8604 0.0
C1089 C 0.57543 0.71679 0.85523 0.0
C1090 C 0.62062 0.79027 0.88442 0.0
C1091 C 0.65985 0.77829 0.85644 0.0
C1092 C 0.68631 0.78314 0.91453 0.0
C1093 C 0.6902 0.80312 0.91652 0.0
C1094 C 0.67493 0.81691 0.91301 0.0
C1095 C 0.67881 0.83613 0.91489 0.0
C1096 C 0.698 0.84154 0.92004 0.0
C1097 C 0.71329 0.8277 0.92329 0.0
C1098 C 0.70934 0.80846 0.92158 0.0
C1099 C 0.67433 0.72896 0.88606 0.0
O1100 O 0.62747 0.73389 0.90396 0.0
O1101 O 0.64726 0.75051 0.92193 0.0
O1102 O 0.60327 0.74916 0.86803 0.0
O1103 O 0.62591 0.7273 0.86274 0.0
O1104 O 0.62112 0.78117 0.86947 0.0
O1105 O 0.62815 0.77866 0.8964 0.0
O1106 O 0.66396 0.78403 0.87291 0.0
O1107 O 0.64928 0.76292 0.85494 0.0
O1108 O 0.68872 0.77629 0.89861 0.0
O1109 O 0.66985 0.77802 0.92148 0.0
O1110 O 0.6736 0.73509 0.90218 0.0
O1111 O 0.66525 0.74174 0.87653 0.0
H1112 H 0.6095 0.70718 0.88877 0.0
H1113 H 0.58322 0.68661 0.89817 0.0
H1114 H 0.5468 0.7046 0.85254 0.0
H1115 H 0.57298 0.72555 0.84349 0.0
H1116 H 0.66012 0.81281 0.90878 0.0
H1117 H 0.66699 0.84675 0.91202 0.0
H1118 H 0.72818 0.83181 0.92717 0.0
H1119 H 0.72119 0.79778 0.92411 0.0
Ho1120 Ho 0.0521 0.16162 0.90579 0.0
Ho1121 Ho 0.03661 0.14138 0.88587 0.0
C1122 C 0.06976 0.16366 0.8658 0.0
C1123 C 0.07447 0.1812 0.92695 0.0
C1124 C 0.09048 0.19417 0.92579 0.0
C1125 C 0.10413 0.19245 0.91209 0.0
C1126 C 0.11689 0.20716 0.90924 0.0
C1127 C 0.11576 0.22367 0.91992 0.0
C1128 C 0.10301 0.22464 0.93436 0.0
C1129 C 0.09045 0.20986 0.9373 0.0
C1130 C 1.01572 0.1812 0.89601 0.0
C1131 C 1.02296 0.13826 0.92755 0.0
C1132 C 1.01286 0.1209 0.86683 0.0
C1133 C 0.99814 0.12429 0.85258 0.0
C1134 C 0.98469 0.14008 0.85312 0.0
C1135 C 0.96842 0.14106 0.84128 0.0
C1136 C 0.96562 0.12635 0.82871 0.0
C1137 C 0.98054 0.11189 0.82688 0.0
C1138 C 0.99662 0.11075 0.83892 0.0
C1139 C 0.0704 0.12008 0.8973 0.0
O1140 O 0.0743 0.16589 0.88291 0.0
O1141 O 0.05216 0.15626 0.86276 0.0
O1142 O 0.05753 0.18766 0.92022 0.0
O1143 O 0.07852 0.16354 0.92253 0.0
O1144 O 1.02218 0.17674 0.91185 0.0
O1145 O 0.02822 0.17308 0.88542 0.0
O1146 O 1.01722 0.13499 0.91078 0.0
O1147 O 0.03928 0.14758 0.92941 0.0
O1148 O 1.00846 0.12796 0.88232 0.0
O1149 O 0.03118 0.12351 0.86283 0.0
O1150 O 0.06459 0.12311 0.88113 0.0
O1151 O 0.05836 0.1297 0.90704 0.0
H1152 H 0.10425 0.18029 0.90311 0.0
H1153 H 0.12681 0.20614 0.89814 0.0
H1154 H 0.10165 0.23737 0.94257 0.0
H1155 H 0.07981 0.21126 0.94783 0.0
H1156 H 0.98596 0.15092 0.86341 0.0
H1157 H 0.95714 0.15232 0.84317 0.0
H1158 H 0.97885 0.10055 0.81715 0.0
H1159 H 1.0072 0.09869 0.83823 0.0
Ho1160 Ho 0.63361 0.27513 0.65773 0.0
Ho1161 Ho 0.63038 0.27093 0.62814 0.0
C1162 C 0.64966 0.23233 0.64273 0.0
C1163 C 0.64289 0.27304 0.69121 0.0
C1164 C 0.64452 0.25854 0.70509 0.0
C1165 C 0.62863 0.24696 0.70894 0.0
C1166 C 0.63063 0.23392 0.72287 0.0
C1167 C 0.64855 0.23227 0.73294 0.0
C1168 C 0.66465 0.2433 0.72851 0.0
C1169 C 0.66261 0.25637 0.71471 0.0
C1170 C 0.65819 0.30467 0.64547 0.0
C1171 C 0.59913 0.30386 0.6425 0.0
C1172 C 0.63037 0.27532 0.59419 0.0
C1173 C 0.6321 0.29185 0.58296 0.0
C1174 C 0.6437 0.30705 0.58867 0.0
C1175 C 0.64291 0.324 0.57918 0.0
C1176 C 0.63016 0.32604 0.56414 0.0
C1177 C 0.61897 0.31057 0.55822 0.0
C1178 C 0.62 0.2935 0.56759 0.0
C1179 C 0.60528 0.24274 0.63915 0.0
O1180 O 0.64289 0.24183 0.65687 0.0
O1181 O 0.64926 0.24288 0.62837 0.0
O1182 O 0.65573 0.27081 0.67869 0.0
O1183 O 0.62512 0.27822 0.68515 0.0
O1184 O 0.64284 0.30647 0.65542 0.0
O1185 O 0.65768 0.28689 0.63997 0.0
O1186 O 0.60886 0.29772 0.62844 0.0
O1187 O 0.6052 0.29543 0.65751 0.0
O1188 O 0.61421 0.27568 0.60334 0.0
O1189 O 0.64626 0.27023 0.60364 0.0
O1190 O 0.61597 0.2425 0.62525 0.0
O1191 O 0.60727 0.25898 0.64712 0.0
H1192 H 0.61463 0.24819 0.70145 0.0
H1193 H 0.61807 0.2254 0.72599 0.0
H1194 H 0.67853 0.24248 0.73621 0.0
H1195 H 0.67507 0.26511 0.71177 0.0
H1196 H 0.65284 0.30608 0.60076 0.0
H1197 H 0.65182 0.33569 0.58389 0.0
H1198 H 0.60874 0.31192 0.54687 0.0
H1199 H 0.61068 0.28192 0.56332 0.0
Ho1200 Ho 0.52545 0.90876 0.39277 0.0
Ho1201 Ho 0.52073 0.9084 0.35742 0.0
C1202 C 0.56549 0.92003 0.36968 0.0
C1203 C 0.53129 0.91421 0.42631 0.0
C1204 C 0.54646 0.92423 0.43625 0.0
C1205 C 0.5666 0.92124 0.43247 0.0
C1206 C 0.58086 0.93103 0.44209 0.0
C1207 C 0.57511 0.94414 0.45546 0.0
C1208 C 0.5548 0.94845 0.4579 0.0
C1209 C 0.54054 0.93833 0.44849 0.0
C1210 C 0.49594 0.93474 0.38182 0.0
C1211 C 0.49499 0.87634 0.37917 0.0
C1212 C 0.50497 0.91737 0.32698 0.0
C1213 C 0.49634 0.91034 0.31038 0.0
C1214 C 0.47654 0.91583 0.30625 0.0
C1215 C 0.46898 0.91343 0.28914 0.0
C1216 C 0.4812 0.90565 0.27591 0.0
C1217 C 0.50055 0.89876 0.28026 0.0
C1218 C 0.50819 0.9012 0.29749 0.0
C1219 C 0.54565 0.87903 0.36667 0.0
O1220 O 0.55837 0.91617 0.38567 0.0
O1221 O 0.55232 0.92033 0.35615 0.0
O1222 O 0.52011 0.92545 0.4163 0.0
O1223 O 0.53678 0.89837 0.41828 0.0
O1224 O 0.49355 0.9198 0.39137 0.0
O1225 O 0.51361 0.9332 0.37576 0.0
O1226 O 0.49828 0.88419 0.36332 0.0
O1227 O 0.50508 0.88313 0.39316 0.0
O1228 O 0.52407 0.9145 0.32979 0.0
O1229 O 0.49458 0.91578 0.34126 0.0
O1230 O 0.54571 0.88746 0.35135 0.0
O1231 O 0.53055 0.88484 0.37483 0.0
H1232 H 0.57139 0.91094 0.42251 0.0
H1233 H 0.59637 0.92712 0.43994 0.0
H1234 H 0.55001 0.95867 0.46792 0.0
H1235 H 0.5249 0.94126 0.45098 0.0
H1236 H 0.46721 0.92293 0.31601 0.0
H1237 H 0.45372 0.91821 0.28609 0.0
H1238 H 0.50994 0.89234 0.2702 0.0
H1239 H 0.52356 0.89682 0.30046 0.0
Ho1240 Ho 0.87646 0.72948 0.15038 0.0
Ho1241 Ho 0.86835 0.76015 0.12386 0.0
C1242 C 0.8745 0.71681 0.10625 0.0
C1243 C 0.87636 0.69863 0.16816 0.0
C1244 C 0.89198 0.68386 0.16514 0.0
C1245 C 0.89734 0.68073 0.14737 0.0
C1246 C 0.91719 0.68162 0.14273 0.0
C1247 C 0.93182 0.6842 0.15605 0.0
C1248 C 0.92673 0.68243 0.17398 0.0
C1249 C 0.90684 0.68187 0.17851 0.0
C1250 C 0.90957 0.7438 0.13775 0.0
C1251 C 0.87553 0.7732 0.16736 0.0
C1252 C 0.8674 0.78974 0.10371 0.0
C1253 C 0.86445 0.81032 0.10605 0.0
C1254 C 0.87264 0.81976 0.12091 0.0
C1255 C 0.87072 0.83959 0.12224 0.0
C1256 C 0.86049 0.85013 0.1088 0.0
C1257 C 0.85172 0.84053 0.09429 0.0
C1258 C 0.85369 0.82073 0.09295 0.0
C1259 C 0.83598 0.74514 0.13795 0.0
O1260 O 0.87442 0.71148 0.12345 0.0
O1261 O 0.87356 0.73564 0.10301 0.0
O1262 O 0.88363 0.71437 0.17465 0.0
O1263 O 0.86351 0.70198 0.15498 0.0
O1264 O 0.90852 0.73719 0.15371 0.0
O1265 O 0.8938 0.74058 0.1291 0.0
O1266 O 0.87429 0.7786 0.15012 0.0
O1267 O 0.87477 0.7545 0.1708 0.0
O1268 O 0.8518 0.77962 0.10622 0.0
O1269 O 0.88381 0.78213 0.11079 0.0
O1270 O 0.83711 0.74896 0.12119 0.0
O1271 O 0.85166 0.74959 0.14598 0.0
H1272 H 0.88608 0.68044 0.13685 0.0
H1273 H 0.92073 0.68188 0.12879 0.0
H1274 H 0.93798 0.68285 0.18457 0.0
H1275 H 0.90312 0.68339 0.19238 0.0
H1276 H 0.88084 0.81188 0.13128 0.0
H1277 H 0.87742 0.8467 0.13363 0.0
H1278 H 0.84396 0.84837 0.08364 0.0
H1279 H 0.84721 0.81357 0.08148 0.0
Ho1280 Ho 0.65348 0.02947 0.88058 0.0
Ho1281 Ho 0.68506 1.00533 0.89632 0.0
C1282 C 0.6999 0.04875 0.8866 0.0
C1283 C 0.62558 0.05529 0.87814 0.0
C1284 C 0.62667 0.07406 0.8862 0.0
C1285 C 0.64222 0.07649 0.89884 0.0
C1286 C 0.65277 0.09306 0.89881 0.0
C1287 C 0.64787 0.10665 0.88584 0.0
C1288 C 0.62922 0.10645 0.87686 0.0
C1289 C 0.61866 0.08976 0.87677 0.0
C1290 C 0.67051 1.00565 0.85667 0.0
C1291 C 0.63863 0.98617 0.88852 0.0
C1292 C 0.71138 0.98076 0.90884 0.0
C1293 C 0.71084 0.96034 0.91168 0.0
C1294 C 0.69242 0.95167 0.91172 0.0
C1295 C 0.69155 0.93228 0.91479 0.0
C1296 C 0.70914 0.92135 0.91811 0.0
C1297 C 0.72765 0.93002 0.91815 0.0
C1298 C 0.72848 0.94954 0.91491 0.0
C1299 C 0.66669 0.02882 0.91941 0.0
O1300 O 0.67991 0.05195 0.88407 0.0
O1301 O 0.70576 0.03055 0.88985 0.0
O1302 O 0.63848 0.05218 0.86555 0.0
O1303 O 0.62553 0.04143 0.88965 0.0
O1304 O 0.65191 1.01126 0.85581 0.0
O1305 O 0.67931 1.01438 0.86911 0.0
O1306 O 0.65793 0.98352 0.89411 0.0
O1307 O 0.63325 1.00354 0.8826 0.0
O1308 O 0.69921 0.99085 0.91865 0.0
O1309 O 0.71092 0.98625 0.8923 0.0
O1310 O 0.68576 0.02713 0.91791 0.0
O1311 O 0.65835 1.01889 0.90767 0.0
H1312 H 0.64889 0.06443 0.90599 0.0
H1313 H 0.6668 0.09341 0.90624 0.0
H1314 H 0.62507 0.11728 0.86704 0.0
H1315 H 0.6066 0.0881 0.86707 0.0
H1316 H 0.67867 0.95986 0.90957 0.0
H1317 H 0.67713 0.92583 0.91432 0.0
H1318 H 0.74137 0.92174 0.92074 0.0
H1319 H 0.74278 0.95619 0.91502 0.0
Ho1320 Ho 0.76186 0.89077 0.65992 0.0
Ho1321 Ho 0.78757 0.91516 0.67909 0.0
C1322 C 0.74871 0.93789 0.66243 0.0
C1323 C 0.73137 0.87221 0.64996 0.0
C1324 C 0.71991 0.87883 0.63451 0.0
C1325 C 0.7051 0.86828 0.62601 0.0
C1326 C 0.69752 0.87427 0.60933 0.0
C1327 C 0.70443 0.89102 0.60169 0.0
C1328 C 0.71889 0.90151 0.61066 0.0
C1329 C 0.72672 0.89528 0.62663 0.0
C1330 C 0.78771 0.90525 0.63776 0.0
C1331 C 0.80638 0.87338 0.66582 0.0
C1332 C 0.81527 0.93423 0.69429 0.0
C1333 C 0.83578 0.93632 0.68987 0.0
C1334 C 0.84352 0.92635 0.67525 0.0
C1335 C 0.8633 0.92801 0.6711 0.0
C1336 C 0.87537 0.93993 0.6814 0.0
C1337 C 0.86736 0.95035 0.69573 0.0
C1338 C 0.8476 0.94844 0.70002 0.0
C1339 C 0.76151 0.89677 0.69965 0.0
O1340 O 0.7434 0.92005 0.65858 0.0
O1341 O 0.76641 0.94004 0.67019 0.0
O1342 O 0.74948 0.8667 0.646 0.0
O1343 O 0.73097 0.88421 0.66337 0.0
O1344 O 0.77934 0.88908 0.63527 0.0
O1345 O 0.77984 0.9144 0.65049 0.0
O1346 O 0.81022 0.89153 0.66964 0.0
O1347 O 0.78745 0.86867 0.66427 0.0
O1348 O 0.81095 0.91706 0.69915 0.0
O1349 O 0.80249 0.94162 0.68268 0.0
O1350 O 0.76503 0.91474 0.70107 0.0
O1351 O 0.77176 0.88965 0.6875 0.0
H1352 H 0.70025 0.85516 0.63174 0.0
H1353 H 0.68689 0.86562 0.60221 0.0
H1354 H 0.72541 0.9138 0.60474 0.0
H1355 H 0.73935 0.90259 0.63207 0.0
H1356 H 0.83431 0.91728 0.66708 0.0
H1357 H 0.86919 0.91978 0.66005 0.0
H1358 H 0.87636 0.95997 0.70359 0.0
H1359 H 0.84156 0.95638 0.71117 0.0
Ho1360 Ho 0.91128 0.98418 0.39872 0.0
Ho1361 Ho 0.88426 1.00783 0.42185 0.0
C1362 C 0.86277 0.97738 0.39625 0.0
C1363 C 0.92715 0.95601 0.38068 0.0
C1364 C 0.92133 0.94699 0.36341 0.0
C1365 C 0.9263 0.92765 0.36006 0.0
C1366 C 0.9213 0.91917 0.34361 0.0
C1367 C 0.91115 0.92984 0.33007 0.0
C1368 C 0.90595 0.94919 0.33364 0.0
C1369 C 0.91091 0.95763 0.35008 0.0
C1370 C 0.89661 1.0165 0.38298 0.0
C1371 C 0.92949 1.02129 0.41481 0.0
C1372 C 0.864 0.03784 0.43217 0.0
C1373 C 0.86078 0.05723 0.42482 0.0
C1374 C 0.87359 0.06426 0.41215 0.0
C1375 C 0.87094 0.08301 0.40588 0.0
C1376 C 0.85568 0.09516 0.41246 0.0
C1377 C 0.8428 0.08798 0.42502 0.0
C1378 C 0.84531 0.06917 0.43109 0.0
C1379 C 0.90174 0.98085 0.44457 0.0
O1380 O 0.88079 0.97417 0.38985 0.0
O1381 O 0.86004 0.98932 0.40983 0.0
O1382 O 0.93294 0.97358 0.37994 0.0
O1383 O 0.91541 0.95356 0.39395 0.0
O1384 O 0.91408 1.00897 0.37995 0.0
O1385 O 0.88753 1.00574 0.39306 0.0
O1386 O 0.91066 0.02635 0.41744 0.0
O1387 O 0.93452 1.00334 0.41062 0.0
O1388 O 0.88224 0.03358 0.43768 0.0
O1389 O 0.85599 1.02385 0.42321 0.0
O1390 O 0.88785 0.9934 0.4483 0.0
O1391 O 0.90522 0.98205 0.4279 0.0
H1392 H 0.93414 0.91908 0.37017 0.0
H1393 H 0.92526 0.90418 0.34158 0.0
H1394 H 0.89834 0.95801 0.3236 0.0
H1395 H 0.90674 0.97255 0.35231 0.0
H1396 H 0.88582 0.05537 0.40731 0.0
H1397 H 0.88115 0.08816 0.39627 0.0
H1398 H 0.83076 0.09695 0.43016 0.0
H1399 H 0.83533 0.06404 0.44089 0.0
Ho1400 Ho 0.79142 0.15503 0.14306 0.0
Ho1401 Ho 0.7552 0.13395 0.1603 0.0
C1402 C 0.79407 0.10801 0.14487 0.0
C1403 C 0.82412 0.16423 0.12799 0.0
C1404 C 0.83679 0.15648 0.11329 0.0
C1405 C 0.85699 0.15134 0.11667 0.0
C1406 C 0.86943 0.14516 0.10285 0.0
C1407 C 0.8621 0.14399 0.08512 0.0
C1408 C 0.84174 0.14891 0.08183 0.0
C1409 C 0.82931 0.15501 0.09566 0.0
C1410 C 0.75718 0.15215 0.12299 0.0
C1411 C 0.76191 0.18093 0.16529 0.0
C1412 C 0.71552 0.13079 0.15942 0.0
C1413 C 0.69207 0.13029 0.15737 0.0
C1414 C 0.68125 0.13985 0.14324 0.0
C1415 C 0.6598 0.14065 0.14163 0.0
C1416 C 0.64734 0.13222 0.15419 0.0
C1417 C 0.65825 0.12275 0.16842 0.0
C1418 C 0.67975 0.12173 0.16989 0.0
C1419 C 0.78512 0.14161 0.18658 0.0
O1420 O 0.80212 0.12443 0.14141 0.0
O1421 O 0.77518 0.10734 0.15087 0.0
O1422 O 0.80646 0.17143 0.12354 0.0
O1423 O 0.82392 0.15444 0.14274 0.0
O1424 O 0.76819 0.16688 0.1235 0.0
O1425 O 0.76512 0.13925 0.133 0.0
O1426 O 0.74981 0.16628 0.16468 0.0
O1427 O 0.78067 0.17906 0.16037 0.0
O1428 O 0.72774 0.11925 0.16887 0.0
O1429 O 0.7254 0.14295 0.15035 0.0
O1430 O 0.76837 0.13304 0.1892 0.0
O1431 O 0.78419 0.14571 0.16999 0.0
H1432 H 0.86327 0.15228 0.13006 0.0
H1433 H 0.88482 0.14119 0.10615 0.0
H1434 H 0.8354 0.1485 0.06845 0.0
H1435 H 0.81386 0.15885 0.09243 0.0
H1436 H 0.68945 0.14698 0.13321 0.0
H1437 H 0.653 0.14838 0.13048 0.0
H1438 H 0.65016 0.11579 0.17861 0.0
H1439 H 0.68675 0.1144 0.1812 0.0
Ho1440 Ho 0.64195 1.01266 0.64712 0.0
Ho1441 Ho 0.66513 0.04377 0.63168 0.0
C1442 C 0.69047 1.0044 0.64545 0.0
C1443 C 0.63048 0.98011 0.65921 0.0
C1444 C 0.63887 0.96633 0.67305 0.0
C1445 C 0.64426 0.94732 0.66846 0.0
C1446 C 0.65146 0.93412 0.68144 0.0
C1447 C 0.65351 0.93946 0.69952 0.0
C1448 C 0.64829 0.95861 0.70402 0.0
C1449 C 0.64115 0.97178 0.69105 0.0
C1450 C 0.65278 0.04014 0.67109 0.0
C1451 C 0.61641 0.05096 0.64038 0.0
C1452 C 0.67463 0.08025 0.62647 0.0
C1453 C 0.66885 0.10205 0.6298 0.0
C1454 C 0.66642 0.11072 0.64683 0.0
C1455 C 0.66294 0.13111 0.64926 0.0
C1456 C 0.66181 0.14448 0.63488 0.0
C1457 C 0.66395 0.13549 0.61789 0.0
C1458 C 0.66735 0.11523 0.6155 0.0
C1459 C 0.65966 1.01357 0.60687 0.0
O1460 O 0.67252 0.99832 0.64825 0.0
O1461 O 0.69243 1.02277 0.6402 0.0
O1462 O 0.62376 0.99677 0.66475 0.0
O1463 O 0.64015 0.98161 0.6445 0.0
O1464 O 0.63647 0.03107 0.67133 0.0
O1465 O 0.66338 0.03322 0.65883 0.0
O1466 O 0.63452 0.05765 0.63896 0.0
O1467 O 0.61459 0.03208 0.64014 0.0
O1468 O 0.66408 0.07002 0.61528 0.0
O1469 O 0.68197 0.06929 0.63934 0.0
O1470 O 0.67415 0.02554 0.6077 0.0
O1471 O 0.64663 1.02005 0.61823 0.0
H1472 H 0.6428 0.9426 0.65476 0.0
H1473 H 0.65556 0.91971 0.67722 0.0
H1474 H 0.64931 0.96343 0.7177 0.0
H1475 H 0.63723 0.98625 0.69523 0.0
H1476 H 0.66745 0.10172 0.6585 0.0
H1477 H 0.66149 0.1363 0.66273 0.0
H1478 H 0.66307 0.14405 0.60599 0.0
H1479 H 0.66918 0.10984 0.6021 0.0
Ho1480 Ho 0.80401 0.89194 0.37073 0.0
Ho1481 Ho 0.76413 0.90845 0.35059 0.0
C1482 C 0.80185 0.93438 0.3589 0.0
C1483 C 0.83841 0.88665 0.3876 0.0
C1484 C 0.84677 0.88725 0.40648 0.0
C1485 C 0.85693 0.90339 0.41256 0.0
C1486 C 0.86562 0.90417 0.42978 0.0
C1487 C 0.8646 0.8888 0.44175 0.0
C1488 C 0.85461 0.8725 0.43565 0.0
C1489 C 0.84583 0.87173 0.41832 0.0
C1490 C 0.77319 0.90464 0.39054 0.0
C1491 C 0.77106 0.86298 0.36256 0.0
C1492 C 0.72426 0.91446 0.35061 0.0
C1493 C 0.70098 0.9181 0.35273 0.0
C1494 C 0.69216 0.92073 0.36962 0.0
C1495 C 0.67091 0.92276 0.37192 0.0
C1496 C 0.6565 0.9214 0.35763 0.0
C1497 C 0.66546 0.91878 0.3407 0.0
C1498 C 0.68678 0.91739 0.33834 0.0
C1499 C 0.79437 0.89521 0.32754 0.0
O1500 O 0.81144 0.91799 0.35569 0.0
O1501 O 0.7819 0.93471 0.35966 0.0
O1502 O 0.82709 0.87264 0.3826 0.0
O1503 O 0.83201 0.90291 0.38069 0.0
O1504 O 0.78532 0.89083 0.39536 0.0
O1505 O 0.77891 0.91161 0.3765 0.0
O1506 O 0.75932 0.87767 0.35738 0.0
O1507 O 0.7904 0.8641 0.36573 0.0
O1508 O 0.73555 0.92084 0.338 0.0
O1509 O 0.73512 0.90548 0.36284 0.0
O1510 O 0.77958 0.90754 0.32361 0.0
O1511 O 0.79067 0.88869 0.34302 0.0
H1512 H 0.85834 0.91553 0.40388 0.0
H1513 H 0.87342 0.91688 0.43362 0.0
H1514 H 0.85327 0.86039 0.44437 0.0
H1515 H 0.83833 0.85894 0.41421 0.0
H1516 H 0.70183 0.92118 0.38137 0.0
H1517 H 0.66584 0.9246 0.38535 0.0
H1518 H 0.65597 0.91781 0.32891 0.0
H1519 H 0.69215 0.9152 0.32503 0.0
Ho1520 Ho 0.90885 0.03745 0.13122 0.0
Ho1521 Ho 0.88321 1.01634 0.10801 0.0
C1522 C 0.8605 0.05176 0.12759 0.0
C1523 C 0.92772 0.06451 0.14654 0.0
C1524 C 0.92117 0.07411 0.16271 0.0
C1525 C 0.93178 0.08882 0.17074 0.0
C1526 C 0.92569 0.09644 0.18704 0.0
C1527 C 0.90882 0.08952 0.19522 0.0
C1528 C 0.89826 0.07487 0.18692 0.0
C1529 C 0.9044 0.06724 0.17088 0.0
C1530 C 0.89237 1.00951 0.14898 0.0
C1531 C 0.92616 0.99572 0.12071 0.0
C1532 C 0.86344 0.99076 0.09121 0.0
C1533 C 0.86233 0.97046 0.09482 0.0
C1534 C 0.87087 0.96298 0.11065 0.0
C1535 C 0.87022 0.94355 0.11416 0.0
C1536 C 0.86093 0.93143 0.10185 0.0
C1537 C 0.85236 0.93899 0.08601 0.0
C1538 C 0.85307 0.95846 0.08251 0.0
C1539 C 0.90299 0.04388 0.09067 0.0
O1540 O 0.8788 0.05489 0.13414 0.0
O1541 O 0.85805 0.03691 0.11685 0.0
O1542 O 0.9326 0.04646 0.14887 0.0
O1543 O 0.91597 0.06738 0.13257 0.0
O1544 O 0.90959 1.01617 0.15306 0.0
O1545 O 0.88351 1.01957 0.13707 0.0
O1546 O 0.90733 0.99317 0.11564 0.0
O1547 O 0.93155 1.0133 0.12491 0.0
O1548 O 0.88085 0.99608 0.08635 0.0
O1549 O 0.85574 1.00195 0.10334 0.0
O1550 O 0.88449 0.04003 0.08787 0.0
O1551 O 0.91028 0.03272 0.10247 0.0
H1552 H 0.94487 0.09411 0.16461 0.0
H1553 H 0.93416 0.10766 0.19323 0.0
H1554 H 0.88558 0.06882 0.19308 0.0
H1555 H 0.89634 0.05551 0.16509 0.0
H1556 H 0.87797 0.97216 0.12032 0.0
H1557 H 0.87678 0.93806 0.12652 0.0
H1558 H 0.84537 0.92979 0.07623 0.0
H1559 H 0.84652 0.96412 0.07021 0.0
Ho1560 Ho 0.78086 0.15879 0.89096 0.0
Ho1561 Ho 0.80743 0.13226 0.87372 0.0
C1562 C 0.7642 0.11327 0.88469 0.0
C1563 C 0.7506 0.17757 0.90217 0.0
C1564 C 0.74012 0.17094 0.91742 0.0
C1565 C 0.7213 0.17842 0.92136 0.0
C1566 C 0.71317 0.1741 0.93758 0.0
C1567 C 0.72428 0.16303 0.95025 0.0
C1568 C 0.74222 0.15391 0.94538 0.0
C1569 C 0.74995 0.15766 0.92893 0.0
C1570 C 0.80442 0.13849 0.9138 0.0
C1571 C 0.82442 0.17762 0.8831 0.0
C1572 C 0.83585 0.11025 0.86245 0.0
C1573 C 0.85217 0.11368 0.85073 0.0
C1574 C 0.8624 0.13073 0.85201 0.0
C1575 C 0.87829 0.13362 0.8411 0.0
C1576 C 0.88406 0.11956 0.82864 0.0
C1577 C 0.8727 0.10323 0.82641 0.0
C1578 C 0.85688 0.10027 0.83748 0.0
C1579 C 0.78377 0.15241 0.8503 0.0
O1580 O 0.76009 0.13161 0.88948 0.0
O1581 O 0.78293 0.10961 0.87936 0.0
O1582 O 0.76876 0.18247 0.90613 0.0
O1583 O 0.74944 0.16661 0.88809 0.0
O1584 O 0.79977 0.15641 0.91596 0.0
O1585 O 0.79575 0.13214 0.9002 0.0
O1586 O 0.82871 0.15918 0.87821 0.0
O1587 O 0.80538 0.18149 0.88725 0.0
O1588 O 0.81831 0.11165 0.85464 0.0
O1589 O 0.83653 0.11865 0.87806 0.0
O1590 O 0.78851 0.13445 0.84883 0.0
O1591 O 0.7922 0.15883 0.86409 0.0
H1592 H 0.71335 0.18823 0.91233 0.0
H1593 H 0.69893 0.1808 0.9408 0.0
H1594 H 0.75119 0.14532 0.95475 0.0
H1595 H 0.76431 0.15125 0.92576 0.0
H1596 H 0.85862 0.14152 0.86185 0.0
H1597 H 0.88689 0.14624 0.84335 0.0
H1598 H 0.87676 0.09227 0.81679 0.0
H1599 H 0.84864 0.08731 0.83601 0.0
Ho1600 Ho 0.8755 0.6123 0.02675 0.0
Ho1601 Ho 0.89454 0.64138 1.00455 0.0
C1602 C 0.88176 0.65695 0.04464 0.0
C1603 C 0.86582 0.5903 0.05205 0.0
C1604 C 0.85848 0.5955 0.06964 0.0
C1605 C 0.86686 0.61058 0.07939 0.0
C1606 C 0.85661 0.61901 0.09344 0.0
C1607 C 0.83805 0.61239 0.0979 0.0
C1608 C 0.83049 0.59634 0.08915 0.0
C1609 C 0.84065 0.58795 0.07505 0.0
C1610 C 0.85062 0.63166 1.0042 0.0
C1611 C 0.88764 0.59708 0.9866 0.0
C1612 C 0.90668 0.66544 0.98177 0.0
C1613 C 0.90607 0.6687 0.9627 0.0
C1614 C 0.89587 0.65662 0.95098 0.0
C1615 C 0.89392 0.66124 0.93298 0.0
C1616 C 0.90184 0.67814 0.92665 0.0
C1617 C 0.91298 0.68955 0.9384 0.0
C1618 C 0.915 0.68488 0.9563 0.0
C1619 C 0.91884 0.6231 0.02772 0.0
O1620 O 0.87711 0.63855 0.04694 0.0
O1621 O 0.88788 0.66188 0.02855 0.0
O1622 O 0.85359 0.59528 0.03892 0.0
O1623 O 0.88429 0.59423 0.04902 0.0
O1624 O 0.84906 0.61369 1.00778 0.0
O1625 O 0.86449 0.63833 1.01355 0.0
O1626 O 0.89066 0.61582 0.98376 0.0
O1627 O 0.88322 0.59193 1.00313 0.0
O1628 O 0.91749 0.65068 0.98741 0.0
O1629 O 0.88958 0.66729 0.98951 0.0
O1630 O 0.91991 0.64103 0.02408 0.0
O1631 O 0.9058 0.61534 0.0182 0.0
H1632 H 0.88071 0.61656 0.07557 0.0
H1633 H 0.86274 0.6311 0.10046 0.0
H1634 H 0.81611 0.59107 0.09248 0.0
H1635 H 0.83391 0.57645 0.0676 0.0
H1636 H 0.889 0.64397 0.95582 0.0
H1637 H 0.88569 0.65197 0.92418 0.0
H1638 H 0.91986 0.70229 0.93382 0.0
H1639 H 0.92313 0.69418 0.96524 0.0
Ho1640 Ho 0.36937 0.9192 1.00322 0.0
Ho1641 Ho 0.38688 0.87903 0.99661 0.0
C1642 C 0.38926 0.89543 0.03667 0.0
C1643 C 0.3574 0.95244 1.01361 0.0
C1644 C 0.36781 0.96542 0.02571 0.0
C1645 C 0.37637 0.95869 0.04184 0.0
C1646 C 0.38603 0.97112 0.05338 0.0
C1647 C 0.3873 0.99047 0.04893 0.0
C1648 C 0.38038 0.99676 0.03208 0.0
C1649 C 0.37061 0.9843 0.02056 0.0
C1650 C 0.40652 0.9159 0.99041 0.0
C1651 C 0.35614 0.8997 0.9665 0.0
C1652 C 0.41053 0.85114 0.98789 0.0
C1653 C 0.40683 0.83288 0.97959 0.0
C1654 C 0.42043 0.82519 0.96756 0.0
C1655 C 0.41447 0.81102 0.95579 0.0
C1656 C 0.39488 0.80479 0.95608 0.0
C1657 C 0.3823 0.81057 0.96973 0.0
C1658 C 0.3882 0.82479 0.98141 0.0
C1659 C 0.35075 0.87845 1.01039 0.0
O1660 O 0.37719 0.90983 0.03143 0.0
O1661 O 0.39724 0.88339 0.02505 0.0
O1662 O 0.36605 0.94954 0.99848 0.0
O1663 O 0.35113 0.93673 0.02057 0.0
O1664 O 0.39306 0.92797 0.98436 0.0
O1665 O 0.39954 0.90635 1.00248 0.0
O1666 O 0.37062 0.8863 0.96975 0.0
O1667 O 0.3511 0.91254 0.97876 0.0
O1668 O 0.40321 0.85316 1.0037 0.0
O1669 O 0.40692 0.86609 0.97766 0.0
O1670 O 0.36275 0.86349 1.00938 0.0
O1671 O 0.35687 0.89097 1.00018 0.0
H1672 H 0.375 0.94402 0.04588 0.0
H1673 H 0.39101 0.96589 0.06635 0.0
H1674 H 0.38133 1.01162 0.02835 0.0
H1675 H 0.36475 0.98954 1.00786 0.0
H1676 H 0.43484 0.83137 0.96614 0.0
H1677 H 0.42422 0.80663 0.94517 0.0
H1678 H 0.36707 0.80602 0.96993 0.0
H1679 H 0.3775 0.83065 0.99068 0.0
Ho1680 Ho 0.84989 0.68103 0.74776 0.0
Ho1681 Ho 0.87115 0.70497 0.77382 0.0
C1682 C 0.89653 0.67526 0.75257 0.0
C1683 C 0.83534 0.66698 0.71875 0.0
C1684 C 0.83859 0.64748 0.71142 0.0
C1685 C 0.85221 0.64434 0.69779 0.0
C1686 C 0.8583 0.62576 0.69298 0.0
C1687 C 0.85079 0.60993 0.70163 0.0
C1688 C 0.83635 0.61304 0.71457 0.0
C1689 C 0.83033 0.63163 0.71944 0.0
C1690 C 0.86259 0.65702 0.77514 0.0
C1691 C 0.82672 0.6904 0.78228 0.0
C1692 C 0.88419 0.72352 0.80103 0.0
C1693 C 0.88469 0.71801 0.81974 0.0
C1694 C 0.87472 0.70179 0.82498 0.0
C1695 C 0.87685 0.69512 0.84234 0.0
C1696 C 0.88903 0.70458 0.85473 0.0
C1697 C 0.89892 0.7209 0.84946 0.0
C1698 C 0.89678 0.72755 0.83204 0.0
C1699 C 0.86984 0.72044 0.74017 0.0
O1700 O 0.88171 0.67686 0.74081 0.0
O1701 O 0.89528 0.68326 0.7684 0.0
O1702 O 0.82521 0.66856 0.73331 0.0
O1703 O 0.85106 0.67743 0.71929 0.0
O1704 O 0.85335 0.65157 0.76076 0.0
O1705 O 0.86514 0.67472 0.77373 0.0
O1706 O 0.84364 0.69714 0.78844 0.0
O1707 O 0.82394 0.68721 0.76513 0.0
O1708 O 0.86643 0.72695 0.79376 0.0
O1709 O 0.89566 0.71262 0.79115 0.0
O1710 O 0.88454 0.72039 0.75153 0.0
O1711 O 0.85512 0.71265 0.74757 0.0
H1712 H 0.8588 0.65627 0.69134 0.0
H1713 H 0.86914 0.62379 0.68268 0.0
H1714 H 0.83033 0.60113 0.72148 0.0
H1715 H 0.81983 0.6335 0.73002 0.0
H1716 H 0.86566 0.69398 0.81558 0.0
H1717 H 0.86897 0.6826 0.84607 0.0
H1718 H 0.90866 0.72827 0.85871 0.0
H1719 H 0.9049 0.73983 0.82808 0.0
Ho1720 Ho 0.13033 0.1376 0.49228 0.0
Ho1721 Ho 0.10798 0.16364 0.51617 0.0
C1722 C 0.12499 0.18298 0.47956 0.0
C1723 C 0.14398 0.11804 0.46563 0.0
C1724 C 0.16242 0.11958 0.45573 0.0
C1725 C 0.16225 0.11685 0.43725 0.0
C1726 C 0.17949 0.11956 0.42769 0.0
C1727 C 0.19714 0.12506 0.4365 0.0
C1728 C 0.19727 0.12743 0.45508 0.0
C1729 C 0.18008 0.12486 0.46457 0.0
C1730 C 0.1542 0.15194 0.51882 0.0
C1731 C 0.12335 0.12064 0.53065 0.0
C1732 C 0.09794 0.18037 0.54647 0.0
C1733 C 0.10457 0.18182 0.5662 0.0
C1734 C 0.11533 0.16715 0.57572 0.0
C1735 C 0.12003 0.16885 0.59434 0.0
C1736 C 0.11421 0.18531 0.60447 0.0
C1737 C 0.10348 0.19985 0.59468 0.0
C1738 C 0.0989 0.19817 0.57619 0.0
C1739 C 0.08356 0.14879 0.4882 0.0
O1740 O 0.13058 0.16506 0.47563 0.0
O1741 O 0.11691 0.18672 0.49548 0.0
O1742 O 0.14622 0.11257 0.48211 0.0
O1743 O 0.13107 0.13235 0.46383 0.0
O1744 O 0.15784 0.13617 0.51028 0.0
O1745 O 0.13977 0.16075 0.51076 0.0
O1746 O 0.11845 0.13869 0.53437 0.0
O1747 O 0.12527 0.11551 0.51376 0.0
O1748 O 0.09086 0.16433 0.5405 0.0
O1749 O 0.1084 0.18841 0.53435 0.0
O1750 O 0.08112 0.16523 0.49636 0.0
O1751 O 0.0977 0.13983 0.49707 0.0
H1752 H 0.1487 0.113 0.43017 0.0
H1753 H 0.17884 0.11794 0.41338 0.0
H1754 H 0.21066 0.13145 0.46231 0.0
H1755 H 0.18055 0.12726 0.47881 0.0
H1756 H 0.12016 0.15429 0.56877 0.0
H1757 H 0.12845 0.15717 0.60071 0.0
H1758 H 0.09801 0.21267 0.60131 0.0
H1759 H 0.09046 0.20977 0.56968 0.0
Ho1760 Ho 0.18801 0.90941 0.74743 0.0
Ho1761 Ho 0.15774 0.89389 0.77009 0.0
C1762 C 0.1416 0.90707 0.73012 0.0
C1763 C 0.20924 0.92041 0.72165 0.0
C1764 C 0.20393 0.93463 0.7076 0.0
C1765 C 0.18653 0.93309 0.69695 0.0
C1766 C 0.17947 0.94834 0.68627 0.0
C1767 C 0.18986 0.96539 0.6858 0.0
C1768 C 0.20784 0.96652 0.69574 0.0
C1769 C 0.21476 0.95132 0.70656 0.0
C1770 C 0.16978 0.93533 0.76905 0.0
C1771 C 0.20382 0.9004 0.78739 0.0
C1772 C 0.13375 0.88455 0.7947 0.0
C1773 C 0.13066 0.88702 0.8138 0.0
C1774 C 0.14173 0.89974 0.82425 0.0
C1775 C 0.13751 0.90243 0.84225 0.0
C1776 C 0.12232 0.89228 0.85001 0.0
C1777 C 0.1116 0.87934 0.83946 0.0
C1778 C 0.11575 0.87675 0.82155 0.0
C1779 C 0.17364 0.86716 0.74813 0.0
O1780 O 0.16089 0.90954 0.72759 0.0
O1781 O 0.13607 0.90212 0.74635 0.0
O1782 O 0.21056 0.92756 0.73767 0.0
O1783 O 0.19987 0.90433 0.72121 0.0
O1784 O 0.1884 0.93546 0.7653 0.0
O1785 O 0.16184 0.9223 0.76023 0.0
O1786 O 0.18422 0.89985 0.79039 0.0
O1787 O 0.20943 0.90083 0.77055 0.0
O1788 O 0.13111 0.8998 0.7849 0.0
O1789 O 0.14918 0.87393 0.79012 0.0
O1790 O 0.15504 0.86896 0.75195 0.0
O1791 O 0.18359 0.87971 0.75637 0.0
H1792 H 0.17799 0.92036 0.69731 0.0
H1793 H 0.16574 0.94685 0.67856 0.0
H1794 H 0.21611 0.9795 0.69584 0.0
H1795 H 0.22812 0.95297 0.71475 0.0
H1796 H 0.15347 0.90764 0.81846 0.0
H1797 H 0.14618 0.91228 0.85013 0.0
H1798 H 0.09965 0.87149 0.84495 0.0
H1799 H 0.10708 0.86688 0.81365 0.0
Ho1800 Ho 0.61856 0.44256 0.52793 0.0
Ho1801 Ho 0.59109 0.42359 0.50141 0.0
C1802 C 0.61451 0.39854 0.5311 0.0
C1803 C 0.63247 0.46423 0.55268 0.0
C1804 C 0.64078 0.46067 0.5704 0.0
C1805 C 0.63716 0.44344 0.57891 0.0
C1806 C 0.65043 0.43655 0.59211 0.0
C1807 C 0.66759 0.44666 0.59651 0.0
C1808 C 0.66959 0.46507 0.58958 0.0
C1809 C 0.65619 0.47204 0.57655 0.0
C1810 C 0.63841 0.42358 0.50171 0.0
C1811 C 0.60648 0.46631 0.49225 0.0
C1812 C 0.57875 0.4057 0.47346 0.0
C1813 C 0.58568 0.40548 0.45507 0.0
C1814 C 0.59906 0.419 0.44949 0.0
C1815 C 0.60685 0.41792 0.43246 0.0
C1816 C 0.60127 0.40331 0.42059 0.0
C1817 C 0.58749 0.39004 0.42617 0.0
C1818 C 0.57988 0.39106 0.44327 0.0
C1819 C 0.57046 0.42757 0.53357 0.0
O1820 O 0.61712 0.41424 0.54053 0.0
O1821 O 0.60786 0.39894 0.5144 0.0
O1822 O 0.64332 0.45658 0.54017 0.0
O1823 O 0.61341 0.46157 0.55022 0.0
O1824 O 0.64481 0.42456 0.51819 0.0
O1825 O 0.62207 0.43328 0.50006 0.0
O1826 O 0.59665 0.45128 0.48655 0.0
O1827 O 0.61303 0.46711 0.50891 0.0
O1828 O 0.57041 0.42189 0.47897 0.0
O1829 O 0.59143 0.39803 0.48518 0.0
O1830 O 0.56319 0.42187 0.51838 0.0
O1831 O 0.58785 0.43288 0.52991 0.0
H1832 H 0.62532 0.43445 0.57418 0.0
H1833 H 0.64836 0.42249 0.59755 0.0
H1834 H 0.68268 0.47318 0.59262 0.0
H1835 H 0.65917 0.4853 0.56993 0.0
H1836 H 0.60369 0.43024 0.45842 0.0
H1837 H 0.61755 0.42827 0.42876 0.0
H1838 H 0.5825 0.37884 0.4173 0.0
H1839 H 0.5696 0.38048 0.44733 0.0
Ho1840 Ho 0.86907 0.39598 0.73574 0.0
Ho1841 Ho 0.88655 0.37318 0.7014 0.0
C1842 C 0.91604 0.3969 0.72633 0.0
C1843 C 0.86058 0.40937 0.76715 0.0
C1844 C 0.86662 0.42347 0.78102 0.0
C1845 C 0.86486 0.4189 0.79906 0.0
C1846 C 0.86878 0.43242 0.81248 0.0
C1847 C 0.87467 0.45088 0.80821 0.0
C1848 C 0.87675 0.45532 0.7901 0.0
C1849 C 0.87274 0.44181 0.77668 0.0
C1850 C 0.86432 0.41267 0.70389 0.0
C1851 C 0.84014 0.3722 0.71153 0.0
C1852 C 0.89726 0.36293 0.66965 0.0
C1853 C 0.89588 0.36737 0.65033 0.0
C1854 C 0.87825 0.36562 0.63996 0.0
C1855 C 0.87791 0.37009 0.62173 0.0
C1856 C 0.89514 0.37617 0.61357 0.0
C1857 C 0.91276 0.37746 0.62383 0.0
C1858 C 0.91313 0.37312 0.64197 0.0
C1859 C 0.89106 0.35523 0.73256 0.0
O1860 O 0.90164 0.40122 0.73749 0.0
O1861 O 0.91372 0.38744 0.71128 0.0
O1862 O 0.85257 0.41607 0.75228 0.0
O1863 O 0.87241 0.39436 0.76458 0.0
O1864 O 0.85256 0.41671 0.71686 0.0
O1865 O 0.87899 0.40252 0.70923 0.0
O1866 O 0.85315 0.37271 0.69861 0.0
O1867 O 0.84472 0.37656 0.72827 0.0
O1868 O 0.88217 0.35564 0.67758 0.0
O1869 O 0.90647 0.37531 0.67968 0.0
O1870 O 0.90129 0.35045 0.71876 0.0
O1871 O 0.87671 0.36629 0.72801 0.0
H1872 H 0.86014 0.40488 0.80279 0.0
H1873 H 0.86734 0.42833 0.82623 0.0
H1874 H 0.88113 0.4694 0.78625 0.0
H1875 H 0.87415 0.44581 0.7629 0.0
H1876 H 0.86475 0.3611 0.64592 0.0
H1877 H 0.86429 0.36859 0.61393 0.0
H1878 H 0.92627 0.38191 0.61781 0.0
H1879 H 0.92701 0.37429 0.64952 0.0
Ho1880 Ho 0.68184 0.67775 0.2992 0.0
Ho1881 Ho 0.65418 0.69893 0.27457 0.0
C1882 C 0.6345 0.68198 0.31148 0.0
C1883 C 0.70277 0.66388 0.32593 0.0
C1884 C 0.69949 0.64865 0.33887 0.0
C1885 C 0.68243 0.64896 0.34925 0.0
C1886 C 0.67817 0.63308 0.35943 0.0
C1887 C 0.69077 0.61653 0.35929 0.0
C1888 C 0.70835 0.61666 0.34964 0.0
C1889 C 0.71267 0.63259 0.33955 0.0
C1890 C 0.66565 0.65559 0.27293 0.0
C1891 C 0.70028 0.685 0.26105 0.0
C1892 C 0.63498 0.70849 0.24437 0.0
C1893 C 0.6335 0.70446 0.22418 0.0
C1894 C 0.6418 0.68795 0.21574 0.0
C1895 C 0.63893 0.68451 0.19705 0.0
C1896 C 0.62778 0.69751 0.18574 0.0
C1897 C 0.61975 0.71405 0.1944 0.0
C1898 C 0.62254 0.71738 0.21297 0.0
C1899 C 0.66718 0.72194 0.30359 0.0
O1900 O 0.6533 0.67643 0.3155 0.0
O1901 O 0.63045 0.69008 0.29541 0.0
O1902 O 0.70475 0.65801 0.30962 0.0
O1903 O 0.6916 0.67953 0.32687 0.0
O1904 O 0.68324 0.65273 0.27996 0.0
O1905 O 0.65694 0.66887 0.28147 0.0
O1906 O 0.68129 0.6898 0.25682 0.0
O1907 O 0.70516 0.68321 0.27824 0.0
O1908 O 0.65023 0.71748 0.2511 0.0
O1909 O 0.62926 0.6956 0.25546 0.0
O1910 O 0.65035 0.72377 0.2945 0.0
O1911 O 0.67781 0.70934 0.29494 0.0
H1912 H 0.67198 0.66114 0.34901 0.0
H1913 H 0.66464 0.63351 0.36693 0.0
H1914 H 0.71822 0.60407 0.34905 0.0
H1915 H 0.72587 0.632 0.3316 0.0
H1916 H 0.65059 0.67764 0.22359 0.0
H1917 H 0.64576 0.67164 0.19148 0.0
H1918 H 0.61075 0.72453 0.18695 0.0
H1919 H 0.61575 0.73023 0.21866 0.0
Ho1920 Ho 0.50011 0.61037 0.89161 0.0
Ho1921 Ho 0.47226 0.62805 0.91367 0.0
C1922 C 0.51657 0.62437 0.93234 0.0
C1923 C 0.52851 0.5953 0.8735 0.0
C1924 C 0.54979 0.59644 0.87327 0.0
C1925 C 0.55951 0.60962 0.88421 0.0
C1926 C 0.58002 0.61086 0.88352 0.0
C1927 C 0.59075 0.59897 0.87183 0.0
C1928 C 0.58084 0.58579 0.86095 0.0
C1929 C 0.56039 0.58448 0.86174 0.0
C1930 C 0.47267 0.58549 0.90206 0.0
C1931 C 0.46044 0.62606 0.86966 0.0
C1932 C 0.43973 0.63707 0.92945 0.0
C1933 C 0.42253 0.64837 0.92226 0.0
C1934 C 0.41368 0.64357 0.90572 0.0
C1935 C 0.40268 0.65739 0.89596 0.0
C1936 C 0.4004 0.67602 0.90267 0.0
C1937 C 0.40736 0.68017 0.91999 0.0
C1938 C 0.41828 0.66639 0.92976 0.0
C1939 C 0.49689 0.6532 0.90041 0.0
O1940 O 0.5214 0.61989 0.91556 0.0
O1941 O 0.49714 0.62553 0.93565 0.0
O1942 O 0.52175 0.58737 0.88765 0.0
O1943 O 0.51863 0.61098 0.86886 0.0
O1944 O 0.47849 0.58753 0.88609 0.0
O1945 O 0.48138 0.59732 0.91225 0.0
O1946 O 0.45442 0.63007 0.88618 0.0
O1947 O 0.47902 0.61919 0.86806 0.0
O1948 O 0.45587 0.64672 0.93136 0.0
O1949 O 0.44319 0.62026 0.92226 0.0
O1950 O 0.49037 0.65428 0.91639 0.0
O1951 O 0.48901 0.63981 0.89197 0.0
H1952 H 0.55124 0.61901 0.89308 0.0
H1953 H 0.58745 0.62109 0.89203 0.0
H1954 H 0.58885 0.57679 0.85156 0.0
H1955 H 0.55282 0.57437 0.8532 0.0
H1956 H 0.4165 0.62966 0.89972 0.0
H1957 H 0.39681 0.65389 0.88284 0.0
H1958 H 0.40574 0.6945 0.92544 0.0
H1959 H 0.42499 0.67039 0.94245 0.0
Ho1960 Ho 0.71763 0.29472 0.16612 0.0
Ho1961 Ho 0.68432 0.27161 0.18316 0.0
C1962 C 0.7028 0.30484 0.2059 0.0
C1963 C 0.73684 0.32311 0.15444 0.0
C1964 C 0.73092 0.34319 0.15029 0.0
C1965 C 0.71656 0.3535 0.16015 0.0
C1966 C 0.71021 0.37208 0.15511 0.0
C1967 C 0.71808 0.38069 0.14011 0.0
C1968 C 0.73256 0.37029 0.13044 0.0
C1969 C 0.73882 0.35177 0.13544 0.0
C1970 C 0.72977 0.25849 0.17366 0.0
C1971 C 0.69104 0.26965 0.14036 0.0
C1972 C 0.65946 0.24586 0.19203 0.0
C1973 C 0.64069 0.23775 0.18457 0.0
C1974 C 0.6393 0.22982 0.16735 0.0
C1975 C 0.6214 0.2222 0.16083 0.0
C1976 C 0.60438 0.22201 0.17142 0.0
C1977 C 0.606 0.22986 0.18872 0.0
C1978 C 0.62378 0.23767 0.1951 0.0
C1979 C 0.67329 0.30658 0.17017 0.0
O1980 O 0.7098 0.31085 0.19084 0.0
O1981 O 0.69549 0.28755 0.20737 0.0
O1982 O 0.73728 0.31811 0.1712 0.0
O1983 O 0.72879 0.31035 0.14404 0.0
O1984 O 0.73779 0.26947 0.16234 0.0
O1985 O 0.71776 0.26838 0.18333 0.0
O1986 O 0.68406 0.26149 0.15462 0.0
O1987 O 0.7024 0.28456 0.14146 0.0
O1988 O 0.65828 0.26362 0.19745 0.0
O1989 O 0.6761 0.24189 0.18394 0.0
O1990 O 0.664 0.29885 0.18294 0.0
O1991 O 0.68561 0.29463 0.16441 0.0
H1992 H 0.70994 0.34705 0.1715 0.0
H1993 H 0.69884 0.37952 0.16272 0.0
H1994 H 0.73925 0.37652 0.11903 0.0
H1995 H 0.74978 0.34405 0.12758 0.0
H1996 H 0.65208 0.22943 0.15893 0.0
H1997 H 0.62094 0.21656 0.1474 0.0
H1998 H 0.59365 0.22968 0.19761 0.0
H1999 H 0.62439 0.2435 0.20847 0.0
Ho2000 Ho 0.04568 0.4035 0.36861 0.0
Ho2001 Ho 0.04811 0.40331 0.40069 0.0
C2002 C 0.07576 0.36902 0.38579 0.0
C2003 C 0.04831 0.41107 0.33532 0.0
C2004 C 0.06081 0.41901 0.32221 0.0
C2005 C 0.07614 0.43111 0.32712 0.0
C2006 C 0.09125 0.43393 0.31529 0.0
C2007 C 0.09155 0.42347 0.29925 0.0
C2008 C 0.07415 0.4147 0.29315 0.0
C2009 C 0.05885 0.41229 0.30478 0.0
C2010 C 1.01929 0.37689 0.37607 0.0
C2011 C 1.00264 0.41568 0.38426 0.0
C2012 C 0.04204 0.40674 0.43434 0.0
C2013 C 1.02434 0.40232 0.44427 0.0
C2014 C 1.00933 0.39153 0.43616 0.0
C2015 C 0.9909 0.39028 0.44407 0.0
C2016 C 0.98745 0.39938 0.46042 0.0
C2017 C 1.0029 0.40914 0.46903 0.0
C2018 C 1.02119 0.41076 0.46091 0.0
C2019 C 0.07868 0.42794 0.38941 0.0
O2020 O 0.07127 0.37936 0.37114 0.0
O2021 O 0.06703 0.3752 0.40038 0.0
O2022 O 0.05465 0.39485 0.34235 0.0
O2023 O 0.04112 0.42312 0.34693 0.0
O2024 O 1.01798 0.38838 0.36285 0.0
O2025 O 0.03539 0.37896 0.38514 0.0
O2026 O 1.01313 0.40974 0.39856 0.0
O2027 O 1.01352 0.41703 0.37002 0.0
O2028 O 0.03925 0.42079 0.42312 0.0
O2029 O 0.05173 0.39215 0.42742 0.0
O2030 O 0.08061 0.41335 0.39991 0.0
O2031 O 0.06017 0.42775 0.38406 0.0
H2032 H 0.07746 0.43678 0.34053 0.0
H2033 H 0.10428 0.44136 0.31997 0.0
H2034 H 0.07364 0.40687 0.2807 0.0
H2035 H 0.04664 0.40335 0.3008 0.0
H2036 H 1.01156 0.38471 0.42337 0.0
H2037 H 0.97919 0.38264 0.43723 0.0
H2038 H 1.00045 0.41641 0.48159 0.0
H2039 H 0.03257 0.41923 0.46726 0.0
Ho2040 Ho 0.88741 0.78088 0.63522 0.0
Ho2041 Ho 0.9132 0.79316 0.65482 0.0
C2042 C 0.88564 0.76627 0.67579 0.0
C2043 C 0.86175 0.76219 0.6166 0.0
C2044 C 0.85931 0.74208 0.61336 0.0
C2045 C 0.87312 0.72872 0.62081 0.0
C2046 C 0.87093 0.70937 0.61755 0.0
C2047 C 0.8549 0.70333 0.60681 0.0
C2048 C 0.84128 0.71684 0.59919 0.0
C2049 C 0.84351 0.73622 0.60247 0.0
C2050 C 0.87183 0.81627 0.6471 0.0
C2051 C 0.91195 0.81036 0.61375 0.0
C2052 C 0.93978 0.81181 0.67283 0.0
C2053 C 0.95255 0.82775 0.66963 0.0
C2054 C 0.94853 0.84018 0.65533 0.0
C2055 C 0.96263 0.85318 0.65058 0.0
C2056 C 0.98078 0.85403 0.66026 0.0
C2057 C 0.98423 0.84228 0.67518 0.0
C2058 C 0.97022 0.82913 0.67976 0.0
C2059 C 0.92572 0.75494 0.64882 0.0
O2060 O 0.88184 0.76111 0.65911 0.0
O2061 O 0.89654 0.7814 0.67796 0.0
O2062 O 0.85883 0.76785 0.63285 0.0
O2063 O 0.87793 0.76867 0.61024 0.0
O2064 O 0.8723 0.81021 0.63094 0.0
O2065 O 0.88114 0.8035 0.65649 0.0
O2066 O 0.91787 0.81325 0.63049 0.0
O2067 O 0.90066 0.79562 0.61135 0.0
O2068 O 0.94378 0.79661 0.66339 0.0
O2069 O 0.92072 0.81573 0.67343 0.0
O2070 O 0.92467 0.76378 0.66386 0.0
O2071 O 0.91871 0.76687 0.63686 0.0
H2072 H 0.88545 0.73326 0.62923 0.0
H2073 H 0.88134 0.69915 0.62388 0.0
H2074 H 0.82882 0.71238 0.59092 0.0
H2075 H 0.83289 0.74658 0.59661 0.0
H2076 H 0.93483 0.83946 0.64752 0.0
H2077 H 0.95958 0.86223 0.63911 0.0
H2078 H 0.99819 0.84253 0.68272 0.0
H2079 H 0.97355 0.8195 0.69077 0.0
Ho2080 Ho 0.51142 0.40605 0.6417 0.0
Ho2081 Ho 0.49676 0.38601 0.62196 0.0
C2082 C 0.52765 0.40858 0.60116 0.0
C2083 C 0.53211 0.42971 0.66042 0.0
C2084 C 0.54963 0.42932 0.67188 0.0
C2085 C 0.56336 0.41379 0.67153 0.0
C2086 C 0.58026 0.41391 0.68258 0.0
C2087 C 0.58334 0.42948 0.69412 0.0
C2088 C 0.5691 0.44464 0.69479 0.0
C2089 C 0.5523 0.44457 0.68365 0.0
C2090 C 0.47711 0.4265 0.6301 0.0
C2091 C 0.47908 0.38354 0.6623 0.0
C2092 C 0.47376 0.36673 0.60104 0.0
C2093 C 0.45928 0.35225 0.6032 0.0
C2094 C 0.44572 0.35352 0.61703 0.0
C2095 C 0.43443 0.33796 0.62076 0.0
C2096 C 0.43682 0.32105 0.61082 0.0
C2097 C 0.44947 0.32029 0.59632 0.0
C2098 C 0.46063 0.33589 0.5925 0.0
C2099 C 0.53277 0.36598 0.63213 0.0
O2100 O 0.53365 0.40964 0.61813 0.0
O2101 O 0.51004 0.4015 0.59895 0.0
O2102 O 0.53496 0.42618 0.64371 0.0
O2103 O 0.51734 0.42062 0.66646 0.0
O2104 O 0.48225 0.42257 0.64621 0.0
O2105 O 0.48978 0.4177 0.62044 0.0
O2106 O 0.4748 0.38082 0.64516 0.0
O2107 O 0.49637 0.39152 0.66522 0.0
O2108 O 0.49197 0.36132 0.60529 0.0
O2109 O 0.469 0.38362 0.6072 0.0
O2110 O 0.52618 0.36986 0.6162 0.0
O2111 O 0.52047 0.37454 0.64262 0.0
H2112 H 0.56119 0.40187 0.66248 0.0
H2113 H 0.59131 0.4023 0.68151 0.0
H2114 H 0.57128 0.45679 0.70354 0.0
H2115 H 0.54154 0.45651 0.68403 0.0
H2116 H 0.44446 0.36613 0.6254 0.0
H2117 H 0.42449 0.33884 0.63185 0.0
H2118 H 0.45167 0.30727 0.58862 0.0
H2119 H 0.47115 0.33481 0.58185 0.0
Ho2120 Ho 0.91747 0.27559 0.90242 0.0
Ho2121 Ho 0.91353 0.2717 0.87313 0.0
C2122 C 0.94883 0.24317 0.88737 0.0
C2123 C 0.91692 0.27047 0.93625 0.0
C2124 C 0.91451 0.25368 0.9469 0.0
C2125 C 0.91421 0.2357 0.93865 0.0
C2126 C 0.91378 0.21936 0.94891 0.0
C2127 C 0.91328 0.22089 0.96752 0.0
C2128 C 0.91248 0.23906 0.97562 0.0
C2129 C 0.91324 0.25542 0.96531 0.0
C2130 C 0.94242 0.30399 0.89138 0.0
C2131 C 0.89818 0.31462 0.88888 0.0
C2132 C 0.90328 0.27316 0.83982 0.0
C2133 C 0.90118 0.28678 0.82534 0.0
C2134 C 0.9143 0.30172 0.82353 0.0
C2135 C 0.91192 0.31406 0.80906 0.0
C2136 C 0.89635 0.31157 0.79646 0.0
C2137 C 0.88279 0.29713 0.7989 0.0
C2138 C 0.88527 0.28477 0.81319 0.0
C2139 C 0.88944 0.24187 0.88578 0.0
O2140 O 0.93963 0.24929 0.90171 0.0
O2141 O 0.94207 0.25154 0.87254 0.0
O2142 O 0.93324 0.27018 0.92729 0.0
O2143 O 0.90122 0.27579 0.92669 0.0
O2144 O 0.93231 0.30379 0.90563 0.0
O2145 O 0.94002 0.28805 0.883 0.0
O2146 O 0.90426 0.30514 0.87444 0.0
O2147 O 0.89914 0.30392 0.90314 0.0
O2148 O 0.89089 0.27608 0.8526 0.0
O2149 O 0.92127 0.26838 0.84556 0.0
O2150 O 0.9048 0.24016 0.87583 0.0
O2151 O 0.88986 0.25973 0.89103 0.0
H2152 H 0.91497 0.23429 0.92434 0.0
H2153 H 0.91478 0.20557 0.9423 0.0
H2154 H 0.91184 0.24059 0.98992 0.0
H2155 H 0.91329 0.26935 0.9717 0.0
H2156 H 0.92646 0.30363 0.83307 0.0
H2157 H 0.92258 0.32509 0.80743 0.0
H2158 H 0.8704 0.29521 0.78961 0.0
H2159 H 0.87485 0.27349 0.81468 0.0
Ho2160 Ho 0.0338 0.64845 0.1732 0.0
Ho2161 Ho 0.03185 0.64398 0.139 0.0
C2162 C 0.06247 0.67654 0.15175 0.0
C2163 C 0.04007 0.64618 0.20695 0.0
C2164 C 0.05262 0.64134 0.22225 0.0
C2165 C 0.07298 0.637 0.22082 0.0
C2166 C 0.08458 0.63369 0.23621 0.0
C2167 C 0.07578 0.63471 0.25297 0.0
C2168 C 0.05525 0.6385 0.25414 0.0
C2169 C 0.04373 0.64178 0.23881 0.0
C2170 C 1.00936 0.67666 0.16038 0.0
C2171 C 0.98925 0.63683 0.1601 0.0
C2172 C 0.02825 0.63575 0.10565 0.0
C2173 C 1.01255 0.62856 0.09427 0.0
C2174 C 0.99257 0.63233 0.09823 0.0
C2175 C 0.97771 0.62423 0.08785 0.0
C2176 C 0.98273 0.61211 0.07354 0.0
C2177 C 1.00282 0.60772 0.07017 0.0
C2178 C 1.01768 0.61601 0.08047 0.0
C2179 C 0.06251 0.62012 0.15214 0.0
O2180 O 0.05976 0.66845 0.16745 0.0
O2181 O 0.05183 0.67 0.13797 0.0
O2182 O 0.04455 0.66103 0.19769 0.0
O2183 O 0.03366 0.63203 0.19729 0.0
O2184 O 1.00708 0.668 0.17519 0.0
O2185 O 1.02472 0.67052 0.15287 0.0
O2186 O 0.99794 0.63803 0.14438 0.0
O2187 O 1.00131 0.63873 0.17418 0.0
O2188 O 0.03448 0.62359 0.11771 0.0
O2189 O 1.02568 0.65308 0.1119 0.0
O2190 O 0.06417 0.6342 0.14138 0.0
O2191 O 0.04478 0.62176 0.15822 0.0
H2192 H 0.07988 0.63667 0.20798 0.0
H2193 H 0.1005 0.63114 0.23506 0.0
H2194 H 0.04822 0.63934 0.26691 0.0
H2195 H 0.02791 0.64511 0.2399 0.0
H2196 H 0.98845 0.64166 0.10917 0.0
H2197 H 0.96234 0.62824 0.09052 0.0
H2198 H 1.007 0.5984 0.05924 0.0
H2199 H 0.03316 0.61262 0.07769 0.0
Ho2200 Ho 0.69397 0.78982 0.41008 0.0
Ho2201 Ho 0.67653 0.81843 0.38559 0.0
C2202 C 0.68255 0.77687 0.36697 0.0
C2203 C 0.70438 0.76072 0.42945 0.0
C2204 C 0.70398 0.74007 0.42799 0.0
C2205 C 0.69038 0.73127 0.41636 0.0
C2206 C 0.68928 0.71142 0.41627 0.0
C2207 C 0.70176 0.7004 0.42781 0.0
C2208 C 0.71587 0.70929 0.43886 0.0
C2209 C 0.71694 0.72905 0.43895 0.0
C2210 C 0.72045 0.81161 0.39484 0.0
C2211 C 0.68259 0.83142 0.42913 0.0
C2212 C 0.66596 0.85069 0.374 0.0
C2213 C 0.65189 0.86019 0.38597 0.0
C2214 C 0.65001 0.87996 0.38807 0.0
C2215 C 0.63439 0.8876 0.39821 0.0
C2216 C 0.61989 0.87535 0.40419 0.0
C2217 C 0.62579 0.85636 0.40718 0.0
C2218 C 0.6409 0.84858 0.397 0.0
C2219 C 0.65003 0.79628 0.40016 0.0
O2220 O 0.68589 0.77134 0.38409 0.0
O2221 O 0.68103 0.79566 0.36373 0.0
O2222 O 0.71658 0.76899 0.41904 0.0
O2223 O 0.68701 0.76964 0.43017 0.0
O2224 O 0.72139 0.80728 0.41155 0.0
O2225 O 0.70578 0.80436 0.38717 0.0
O2226 O 0.67911 0.83643 0.41217 0.0
O2227 O 0.68789 0.81305 0.43211 0.0
O2228 O 0.65902 0.83533 0.36632 0.0
O2229 O 0.68393 0.8479 0.38097 0.0
O2230 O 0.64842 0.80208 0.38389 0.0
O2231 O 0.66467 0.80357 0.40788 0.0
H2232 H 0.68031 0.73973 0.40777 0.0
H2233 H 0.67826 0.70477 0.40771 0.0
H2234 H 0.72582 0.70095 0.44766 0.0
H2235 H 0.72758 0.73577 0.44786 0.0
H2236 H 0.65975 0.8891 0.38128 0.0
H2237 H 0.63165 0.9028 0.39883 0.0
H2238 H 0.61587 0.84668 0.41336 0.0
H2239 H 0.64307 0.83338 0.39696 0.0
Ho2240 Ho 0.86139 0.5421 0.64285 0.0
Ho2241 Ho 0.89424 0.51537 0.65143 0.0
C2242 C 0.90885 0.55949 0.64651 0.0
C2243 C 0.83604 0.57041 0.63943 0.0
C2244 C 0.83829 0.5894 0.63212 0.0
C2245 C 0.85528 0.59969 0.63648 0.0
C2246 C 0.85816 0.61707 0.6284 0.0
C2247 C 0.84407 0.62442 0.61587 0.0
C2248 C 0.82722 0.61403 0.6113 0.0
C2249 C 0.82437 0.59654 0.61937 0.0
C2250 C 0.876 0.52424 0.61433 0.0
C2251 C 0.84708 0.49768 0.64797 0.0
C2252 C 0.92098 0.48818 0.65008 0.0
C2253 C 0.91839 0.4692 0.64253 0.0
C2254 C 0.90292 0.46714 0.62972 0.0
C2255 C 0.89098 0.45142 0.63045 0.0
C2256 C 0.8946 0.43817 0.64405 0.0
C2257 C 0.91315 0.43759 0.65321 0.0
C2258 C 0.925 0.45344 0.65269 0.0
C2259 C 0.87995 0.53543 0.67952 0.0
O2260 O 0.88902 0.56308 0.64367 0.0
O2261 O 0.91464 0.54135 0.6497 0.0
O2262 O 0.83758 0.5566 0.62779 0.0
O2263 O 0.84594 0.5666 0.65426 0.0
O2264 O 0.85724 0.52745 0.61682 0.0
O2265 O 0.88628 0.53083 0.62698 0.0
O2266 O 0.86704 0.49409 0.64705 0.0
O2267 O 0.84129 0.51624 0.64877 0.0
O2268 O 0.9104 0.49171 0.66419 0.0
O2269 O 0.91958 0.5021 0.63862 0.0
O2270 O 0.89869 0.53118 0.67736 0.0
O2271 O 0.87001 0.52759 0.6673 0.0
H2272 H 0.86634 0.5944 0.64618 0.0
H2273 H 0.87106 0.62505 0.63242 0.0
H2274 H 0.8162 0.61953 0.60165 0.0
H2275 H 0.81139 0.58854 0.61562 0.0
H2276 H 0.89774 0.47901 0.62145 0.0
H2277 H 0.87724 0.45147 0.6226 0.0
H2278 H 0.91635 0.42706 0.66351 0.0
H2279 H 0.93706 0.45469 0.66246 0.0
Ho2280 Ho 0.75985 0.63055 0.85677 0.0
Ho2281 Ho 0.78568 0.65565 0.87603 0.0
C2282 C 0.74091 0.67256 0.86927 0.0
C2283 C 0.73205 0.61078 0.84258 0.0
C2284 C 0.7116 0.60909 0.84748 0.0
C2285 C 0.70449 0.61958 0.86206 0.0
C2286 C 0.68502 0.61794 0.86712 0.0
C2287 C 0.67261 0.60564 0.85769 0.0
C2288 C 0.67976 0.59501 0.84316 0.0
C2289 C 0.6993 0.59677 0.83804 0.0
C2290 C 0.78578 0.6486 0.83586 0.0
C2291 C 0.79905 0.60883 0.87455 0.0
C2292 C 0.81598 0.67557 0.88433 0.0
C2293 C 0.83011 0.67294 0.89936 0.0
C2294 C 0.83978 0.65503 0.90219 0.0
C2295 C 0.84545 0.64943 0.91934 0.0
C2296 C 0.84147 0.66161 0.93385 0.0
C2297 C 0.83436 0.68046 0.93058 0.0
C2298 C 0.82902 0.68617 0.91339 0.0
C2299 C 0.75943 0.64157 0.89791 0.0
O2300 O 0.73718 0.65443 0.86537 0.0
O2301 O 0.75977 0.67738 0.87132 0.0
O2302 O 0.73637 0.62766 0.83691 0.0
O2303 O 0.745 0.60391 0.85433 0.0
O2304 O 0.78172 0.63075 0.83437 0.0
O2305 O 0.77587 0.65588 0.84823 0.0
O2306 O 0.80378 0.62658 0.87948 0.0
O2307 O 0.78199 0.60652 0.86564 0.0
O2308 O 0.79789 0.68003 0.88922 0.0
O2309 O 0.81639 0.66243 0.87185 0.0
O2310 O 0.76803 0.65765 0.90057 0.0
O2311 O 0.76748 0.63229 0.88532 0.0
H2312 H 0.71401 0.62885 0.86964 0.0
H2313 H 0.67974 0.62606 0.87848 0.0
H2314 H 0.67018 0.58555 0.8357 0.0
H2315 H 0.70479 0.58855 0.82682 0.0
H2316 H 0.84122 0.64465 0.89152 0.0
H2317 H 0.85188 0.63513 0.92128 0.0
H2318 H 0.83109 0.69034 0.94132 0.0
H2319 H 0.82168 0.7001 0.91144 0.0
Ho2320 Ho 0.67145 0.54619 0.11273 0.0
Ho2321 Ho 0.64459 0.56874 0.13551 0.0
C2322 C 0.6274 0.53069 0.1204 0.0
C2323 C 0.69066 0.51691 0.09931 0.0
C2324 C 0.69362 0.49697 0.10551 0.0
C2325 C 0.68274 0.49014 0.11967 0.0
C2326 C 0.68585 0.47131 0.12567 0.0
C2327 C 0.69981 0.45887 0.11749 0.0
C2328 C 0.71076 0.46585 0.10339 0.0
C2329 C 0.70771 0.48471 0.09749 0.0
C2330 C 0.65371 0.57647 0.0939 0.0
C2331 C 0.69266 0.57755 0.13721 0.0
C2332 C 0.62692 0.59598 0.15343 0.0
C2333 C 0.63219 0.60624 0.17032 0.0
C2334 C 0.64974 0.61652 0.17237 0.0
C2335 C 0.65484 0.62515 0.18872 0.0
C2336 C 0.64253 0.62383 0.20352 0.0
C2337 C 0.62487 0.61375 0.20132 0.0
C2338 C 0.61981 0.60509 0.185 0.0
C2339 C 0.66116 0.53754 0.15191 0.0
O2340 O 0.64635 0.52633 0.11766 0.0
O2341 O 0.62177 0.54842 0.1248 0.0
O2342 O 0.69915 0.52986 0.10915 0.0
O2343 O 0.6725 0.52219 0.09437 0.0
O2344 O 0.6717 0.56939 0.09219 0.0
O2345 O 0.6453 0.56654 0.10557 0.0
O2346 O 0.67421 0.58251 0.1416 0.0
O2347 O 0.69597 0.56315 0.12606 0.0
O2348 O 0.62309 0.57793 0.15505 0.0
O2349 O 0.63743 0.59905 0.13939 0.0
O2350 O 0.64341 0.54434 0.15495 0.0
O2351 O 0.66959 0.54849 0.14158 0.0
H2352 H 0.67183 0.49934 0.12612 0.0
H2353 H 0.67711 0.46642 0.1365 0.0
H2354 H 0.72189 0.45677 0.097 0.0
H2355 H 0.71639 0.48972 0.08667 0.0
H2356 H 0.65966 0.61776 0.16139 0.0
H2357 H 0.66845 0.63295 0.18974 0.0
H2358 H 0.61513 0.6121 0.21238 0.0
H2359 H 0.60626 0.5972 0.18393 0.0
Ho2360 Ho 0.80267 0.41876 0.37246 0.0
Ho2361 Ho 0.76719 0.39784 0.38785 0.0
C2362 C 0.79828 0.37189 0.36785 0.0
C2363 C 0.84158 0.4273 0.37129 0.0
C2364 C 0.86491 0.42277 0.37348 0.0
C2365 C 0.87529 0.42088 0.39024 0.0
C2366 C 0.89682 0.41929 0.39214 0.0
C2367 C 0.90992 0.41966 0.37745 0.0
C2368 C 0.89932 0.42126 0.3607 0.0
C2369 C 0.87784 0.42281 0.35883 0.0
C2370 C 0.77036 0.41517 0.34787 0.0
C2371 C 0.76336 0.44458 0.38634 0.0
C2372 C 0.73411 0.38758 0.40177 0.0
C2373 C 0.72061 0.39452 0.41629 0.0
C2374 C 0.70029 0.39874 0.41247 0.0
C2375 C 0.68702 0.40381 0.42605 0.0
C2376 C 0.69359 0.40483 0.44402 0.0
C2377 C 0.71411 0.40106 0.44775 0.0
C2378 C 0.72736 0.39598 0.43415 0.0
C2379 C 0.80076 0.39888 0.40901 0.0
O2380 O 0.81027 0.38649 0.37013 0.0
O2381 O 0.77897 0.37393 0.3709 0.0
O2382 O 0.83073 0.42171 0.35755 0.0
O2383 O 0.83036 0.4292 0.38517 0.0
O2384 O 0.78384 0.42834 0.34777 0.0
O2385 O 0.77631 0.40328 0.36003 0.0
O2386 O 0.7554 0.42806 0.38916 0.0
O2387 O 0.78235 0.44538 0.38091 0.0
O2388 O 0.75176 0.38057 0.4065 0.0
O2389 O 0.73465 0.39785 0.38733 0.0
O2390 O 0.78936 0.38451 0.40752 0.0
O2391 O 0.79328 0.41256 0.39966 0.0
H2392 H 0.86671 0.421 0.40221 0.0
H2393 H 0.90309 0.41814 0.40549 0.0
H2394 H 0.90754 0.4215 0.34859 0.0
H2395 H 0.87131 0.4245 0.34558 0.0
H2396 H 0.69452 0.39772 0.39892 0.0
H2397 H 0.67145 0.40637 0.42242 0.0
H2398 H 0.72005 0.40206 0.46123 0.0
H2399 H 0.7429 0.39299 0.43772 0.0
Ho2400 Ho 0.88256 0.50336 0.90352 0.0
Ho2401 Ho 0.90547 0.53437 0.88709 0.0
C2402 C 0.93105 0.49614 0.89409 0.0
C2403 C 0.87342 0.46667 0.90844 0.0
C2404 C 0.87921 0.44491 0.90454 0.0
C2405 C 0.88021 0.43646 0.88728 0.0
C2406 C 0.88365 0.41612 0.88437 0.0
C2407 C 0.88614 0.4025 0.89849 0.0
C2408 C 0.88541 0.41123 0.91572 0.0
C2409 C 0.88206 0.43148 0.91857 0.0
C2410 C 0.88882 0.53389 0.92784 0.0
C2411 C 0.85701 0.5424 0.89014 0.0
C2412 C 0.91617 0.56673 0.874 0.0
C2413 C 0.90736 0.57978 0.85974 0.0
C2414 C 0.90134 0.59879 0.86374 0.0
C2415 C 0.89375 0.61133 0.85034 0.0
C2416 C 0.8919 0.60528 0.83244 0.0
C2417 C 0.89769 0.58612 0.82855 0.0
C2418 C 0.90525 0.57362 0.84192 0.0
C2419 C 0.89418 0.50653 0.86373 0.0
O2420 O 0.91307 0.48974 0.89667 0.0
O2421 O 0.93312 0.51494 0.89308 0.0
O2422 O 0.88419 0.47679 0.91957 0.0
O2423 O 0.86561 0.47787 0.89596 0.0
O2424 O 0.87447 0.52173 0.92771 0.0
O2425 O 0.90143 0.52734 0.91612 0.0
O2426 O 0.87478 0.54844 0.8866 0.0
O2427 O 0.85513 0.52418 0.89568 0.0
O2428 O 0.9233 0.55004 0.86898 0.0
O2429 O 0.90664 0.56554 0.88881 0.0
O2430 O 0.91034 0.51576 0.86304 0.0
O2431 O 0.88381 0.5136 0.8761 0.0
H2432 H 0.87807 0.4456 0.87577 0.0
H2433 H 0.88394 0.41113 0.87076 0.0
H2434 H 0.88739 0.40247 0.92744 0.0
H2435 H 0.88135 0.43663 0.93215 0.0
H2436 H 0.90261 0.60404 0.87728 0.0
H2437 H 0.88919 0.62577 0.8541 0.0
H2438 H 0.89682 0.58079 0.81502 0.0
H2439 H 0.90962 0.55911 0.8382 0.0
Ho2440 Ho 0.79038 0.6483 0.18112 0.0
Ho2441 Ho 0.74995 0.66357 0.16105 0.0
C2442 C 0.78303 0.69329 0.16726 0.0
C2443 C 0.83023 0.64266 0.17987 0.0
C2444 C 0.85348 0.63964 0.177 0.0
C2445 C 0.86199 0.64077 0.15991 0.0
C2446 C 0.88315 0.63895 0.15705 0.0
C2447 C 0.89783 0.63651 0.17109 0.0
C2448 C 0.88916 0.63533 0.18823 0.0
C2449 C 0.86792 0.6367 0.19104 0.0
C2450 C 0.76046 0.66102 0.20452 0.0
C2451 C 0.75285 0.62183 0.17428 0.0
C2452 C 0.71519 0.66666 0.14437 0.0
C2453 C 0.70674 0.66861 0.12567 0.0
C2454 C 0.68664 0.67453 0.12265 0.0
C2455 C 0.67754 0.67371 0.10549 0.0
C2456 C 0.68821 0.6668 0.09071 0.0
C2457 C 0.70859 0.66154 0.09373 0.0
C2458 C 0.71766 0.66238 0.11087 0.0
C2459 C 0.78089 0.65071 0.14145 0.0
O2460 O 0.79443 0.6793 0.17442 0.0
O2461 O 0.76407 0.6916 0.1626 0.0
O2462 O 0.81951 0.63582 0.19269 0.0
O2463 O 0.81887 0.65207 0.16828 0.0
O2464 O 0.77575 0.64921 0.20833 0.0
O2465 O 0.76341 0.66754 0.1888 0.0
O2466 O 0.74336 0.63826 0.17747 0.0
O2467 O 0.77273 0.62165 0.17295 0.0
O2468 O 0.72387 0.6812 0.15202 0.0
O2469 O 0.7248 0.6505 0.14797 0.0
O2470 O 0.76876 0.66445 0.13636 0.0
O2471 O 0.77519 0.64417 0.15567 0.0
H2472 H 0.85214 0.64313 0.14842 0.0
H2473 H 0.8879 0.64008 0.14351 0.0
H2474 H 0.89877 0.6333 0.19987 0.0
H2475 H 0.86282 0.63581 0.20451 0.0
H2476 H 0.67769 0.67917 0.13373 0.0
H2477 H 0.66187 0.67777 0.10399 0.0
H2478 H 0.7176 0.6565 0.08284 0.0
H2479 H 0.73312 0.65761 0.11263 0.0
Ho2480 Ho 0.67391 0.5346 0.42497 0.0
Ho2481 Ho 0.64849 0.5148 0.40001 0.0
C2482 C 0.63119 0.55583 0.41259 0.0
C2483 C 0.69404 0.55929 0.44269 0.0
C2484 C 0.69545 0.57976 0.43999 0.0
C2485 C 0.68531 0.58853 0.42548 0.0
C2486 C 0.68603 0.60814 0.42304 0.0
C2487 C 0.69724 0.6192 0.43495 0.0
C2488 C 0.70791 0.61023 0.44917 0.0
C2489 C 0.70688 0.5906 0.45175 0.0
C2490 C 0.65285 0.50672 0.44062 0.0
C2491 C 0.69651 0.49986 0.40409 0.0
C2492 C 0.62865 0.48879 0.38391 0.0
C2493 C 0.63329 0.47731 0.36804 0.0
C2494 C 0.65109 0.46617 0.36714 0.0
C2495 C 0.65733 0.45885 0.35085 0.0
C2496 C 0.64598 0.46268 0.33518 0.0
C2497 C 0.62766 0.47294 0.33635 0.0
C2498 C 0.62133 0.48006 0.35263 0.0
C2499 C 0.6657 0.54384 0.38447 0.0
O2500 O 0.64986 0.55804 0.41825 0.0
O2501 O 0.62583 0.53859 0.40722 0.0
O2502 O 0.67659 0.55388 0.44739 0.0
O2503 O 0.70152 0.54867 0.43006 0.0
O2504 O 0.67132 0.51027 0.44425 0.0
O2505 O 0.64635 0.5184 0.42892 0.0
O2506 O 0.67848 0.49747 0.39658 0.0
O2507 O 0.69872 0.51378 0.41592 0.0
O2508 O 0.62586 0.50703 0.38078 0.0
O2509 O 0.63954 0.4854 0.39836 0.0
O2510 O 0.64853 0.53759 0.37949 0.0
O2511 O 0.67408 0.53282 0.39591 0.0
H2512 H 0.67681 0.58027 0.41603 0.0
H2513 H 0.67756 0.61463 0.41203 0.0
H2514 H 0.71708 0.61835 0.45832 0.0
H2515 H 0.71498 0.58391 0.46287 0.0
H2516 H 0.66062 0.46379 0.37883 0.0
H2517 H 0.6713 0.45061 0.35048 0.0
H2518 H 0.61865 0.47639 0.32455 0.0
H2519 H 0.60764 0.48876 0.35301 0.0
Ho2520 Ho 0.7413 0.41271 0.66038 0.0
Ho2521 Ho 0.7664 0.38798 0.64016 0.0
C2522 C 0.72353 0.36836 0.64911 0.0
C2523 C 0.71461 0.43474 0.67442 0.0
C2524 C 0.69881 0.43199 0.68671 0.0
C2525 C 0.6883 0.41511 0.68628 0.0
C2526 C 0.67134 0.41388 0.69621 0.0
C2527 C 0.6649 0.42949 0.70673 0.0
C2528 C 0.67708 0.44524 0.70894 0.0
C2529 C 0.6939 0.44658 0.69877 0.0
C2530 C 0.76606 0.3911 0.68113 0.0
C2531 C 0.78381 0.43246 0.64935 0.0
C2532 C 0.79522 0.37114 0.62496 0.0
C2533 C 0.80416 0.37976 0.60958 0.0
C2534 C 0.82377 0.38574 0.61079 0.0
C2535 C 0.83215 0.39396 0.59612 0.0
C2536 C 0.82105 0.39603 0.5801 0.0
C2537 C 0.80072 0.3925 0.57969 0.0
C2538 C 0.79232 0.38431 0.59431 0.0
C2539 C 0.74105 0.41002 0.62014 0.0
O2540 O 0.71951 0.38642 0.65517 0.0
O2541 O 0.74233 0.36483 0.64401 0.0
O2542 O 0.73247 0.432 0.68132 0.0
O2543 O 0.71234 0.427 0.65863 0.0
O2544 O 0.76142 0.40881 0.68421 0.0
O2545 O 0.75706 0.38524 0.66743 0.0
O2546 O 0.78798 0.41428 0.64419 0.0
O2547 O 0.76513 0.43585 0.65477 0.0
O2548 O 0.77695 0.3658 0.62237 0.0
O2549 O 0.79792 0.38031 0.63999 0.0
O2550 O 0.74572 0.39242 0.61645 0.0
O2551 O 0.75101 0.41521 0.63347 0.0
H2552 H 0.69238 0.40345 0.6774 0.0
H2553 H 0.66226 0.40156 0.69412 0.0
H2554 H 0.67253 0.4573 0.71718 0.0
H2555 H 0.7024 0.45943 0.69956 0.0
H2556 H 0.83274 0.38348 0.62285 0.0
H2557 H 0.8478 0.39687 0.5967 0.0
H2558 H 0.79186 0.39402 0.56748 0.0
H2559 H 0.77675 0.38089 0.59328 0.0
Ho2560 Ho 0.65583 0.90775 0.52847 0.0
Ho2561 Ho 0.67747 0.93686 0.5072 0.0
C2562 C 0.66252 0.9518 0.547 0.0
C2563 C 0.6426 0.88342 0.55042 0.0
C2564 C 0.64086 0.88036 0.56941 0.0
C2565 C 0.64899 0.89293 0.58199 0.0
C2566 C 0.65005 0.88789 0.59995 0.0
C2567 C 0.64307 0.87019 0.60535 0.0
C2568 C 0.63346 0.85851 0.59277 0.0
C2569 C 0.6325 0.86351 0.57492 0.0
C2570 C 0.6338 0.92737 0.50463 0.0
C2571 C 0.67142 0.8922 0.48919 0.0
C2572 C 0.68877 0.9594 0.48295 0.0
C2573 C 0.69578 0.95488 0.46515 0.0
C2574 C 0.68793 0.9395 0.45547 0.0
C2575 C 0.69793 0.93193 0.44092 0.0
C2576 C 0.71565 0.93987 0.43575 0.0
C2577 C 0.72261 0.95617 0.44454 0.0
C2578 C 0.71276 0.96358 0.45925 0.0
C2579 C 0.70007 0.91629 0.53055 0.0
O2580 O 0.65806 0.93331 0.54934 0.0
O2581 O 0.66909 0.95685 0.53105 0.0
O2582 O 0.63149 0.89727 0.54335 0.0
O2583 O 0.66076 0.88266 0.54462 0.0
O2584 O 0.63121 0.90956 0.50807 0.0
O2585 O 0.64685 0.93427 0.5147 0.0
O2586 O 0.67628 0.91059 0.48698 0.0
O2587 O 0.66418 0.88736 0.50489 0.0
O2588 O 0.70066 0.95293 0.49579 0.0
O2589 O 0.67004 0.95636 0.4857 0.0
O2590 O 0.70313 0.934 0.5268 0.0
O2591 O 0.68634 0.91046 0.52056 0.0
H2592 H 0.6553 0.90613 0.57783 0.0
H2593 H 0.65745 0.89724 0.60934 0.0
H2594 H 0.62734 0.8451 0.59662 0.0
H2595 H 0.62597 0.8538 0.56531 0.0
H2596 H 0.67471 0.93266 0.4597 0.0
H2597 H 0.6923 0.91947 0.43412 0.0
H2598 H 0.7364 0.96238 0.44078 0.0
H2599 H 0.71911 0.97531 0.46668 0.0
Ho2600 Ho 0.16831 0.67614 0.53382 0.0
Ho2601 Ho 0.17711 0.63377 0.52902 0.0
C2602 C 0.19438 0.65269 0.56454 0.0
C2603 C 0.15118 0.7092 0.5384 0.0
C2604 C 0.14291 0.72143 0.55207 0.0
C2605 C 0.13154 0.71405 0.56555 0.0
C2606 C 0.12909 0.72448 0.58114 0.0
C2607 C 0.13882 0.74178 0.58346 0.0
C2608 C 0.14729 0.75036 0.56877 0.0
C2609 C 0.14926 0.74017 0.55308 0.0
C2610 C 0.20194 0.66846 0.51655 0.0
C2611 C 0.16083 0.65828 0.49454 0.0
C2612 C 0.18339 0.59835 0.52107 0.0
C2613 C 0.17314 0.58613 0.50826 0.0
C2614 C 0.16705 0.59313 0.49147 0.0
C2615 C 0.1588 0.58095 0.47886 0.0
C2616 C 0.15667 0.5616 0.48291 0.0
C2617 C 0.16068 0.55519 0.50034 0.0
C2618 C 0.16898 0.56742 0.51296 0.0
C2619 C 0.14339 0.64346 0.54602 0.0
O2620 O 0.18144 0.66742 0.56132 0.0
O2621 O 0.1976 0.63922 0.55237 0.0
O2622 O 0.17052 0.70611 0.53965 0.0
O2623 O 0.14151 0.69385 0.5344 0.0
O2624 O 0.19191 0.68462 0.51584 0.0
O2625 O 0.19541 0.65867 0.52894 0.0
O2626 O 0.16781 0.64161 0.50072 0.0
O2627 O 0.1584 0.67326 0.50511 0.0
O2628 O 0.17262 0.60402 0.53436 0.0
O2629 O 0.19364 0.61202 0.5145 0.0
O2630 O 0.15579 0.62983 0.5508 0.0
O2631 O 0.14937 0.65137 0.53229 0.0
H2632 H 0.12616 0.69965 0.56475 0.0
H2633 H 0.12191 0.71791 0.59213 0.0
H2634 H 0.15486 0.76371 0.57001 0.0
H2635 H 0.15775 0.74606 0.54251 0.0
H2636 H 0.16966 0.60767 0.48773 0.0
H2637 H 0.15603 0.58623 0.46547 0.0
H2638 H 0.15907 0.5403 0.5037 0.0
H2639 H 0.17301 0.56202 0.52609 0.0
Ho2640 Ho 0.67394 0.8366 0.75619 0.0
Ho2641 Ho 0.69169 0.86107 0.78297 0.0
C2642 C 0.71792 0.85336 0.75004 0.0
C2643 C 0.6636 0.81764 0.72834 0.0
C2644 C 0.663 0.82421 0.70993 0.0
C2645 C 0.67134 0.8417 0.70582 0.0
C2646 C 0.66866 0.84948 0.6889 0.0
C2647 C 0.65755 0.83988 0.67581 0.0
C2648 C 0.64933 0.82229 0.67992 0.0
C2649 C 0.652 0.81454 0.69691 0.0
C2650 C 0.67385 0.8211 0.78986 0.0
C2651 C 0.64534 0.86611 0.77433 0.0
C2652 C 0.70482 0.87376 0.81295 0.0
C2653 C 0.70345 0.89322 0.82015 0.0
C2654 C 0.69398 0.8964 0.83627 0.0
C2655 C 0.68926 0.91497 0.84186 0.0
C2656 C 0.69422 0.9307 0.83153 0.0
C2657 C 0.70424 0.9275 0.81563 0.0
C2658 C 0.70874 0.9089 0.80992 0.0
C2659 C 0.681 0.88527 0.75547 0.0
O2660 O 0.70204 0.84541 0.74299 0.0
O2661 O 0.71909 0.85706 0.76716 0.0
O2662 O 0.68134 0.81555 0.73598 0.0
O2663 O 0.65083 0.82689 0.73831 0.0
O2664 O 0.6598 0.82052 0.7779 0.0
O2665 O 0.68844 0.82947 0.78306 0.0
O2666 O 0.65913 0.86625 0.78713 0.0
O2667 O 0.64828 0.85707 0.75924 0.0
O2668 O 0.7162 0.87101 0.79928 0.0
O2669 O 0.68771 0.86561 0.81103 0.0
O2670 O 0.68914 0.89052 0.77046 0.0
O2671 O 0.67853 0.8674 0.75595 0.0
H2672 H 0.67948 0.84962 0.71583 0.0
H2673 H 0.67525 0.86299 0.68608 0.0
H2674 H 0.64042 0.81476 0.67013 0.0
H2675 H 0.64506 0.80129 0.70001 0.0
H2676 H 0.68945 0.88449 0.84415 0.0
H2677 H 0.6812 0.91695 0.85403 0.0
H2678 H 0.70846 0.93935 0.80754 0.0
H2679 H 0.71581 0.90683 0.79727 0.0
Ho2680 Ho 0.44974 0.3856 1.01418 0.0
Ho2681 Ho 0.42717 0.41137 0.03788 0.0
C2682 C 0.43355 0.4282 0.99959 0.0
C2683 C 0.45933 0.36871 0.98379 0.0
C2684 C 0.45231 0.36712 0.96414 0.0
C2685 C 0.44081 0.38148 0.95484 0.0
C2686 C 0.43582 0.37976 0.93625 0.0
C2687 C 0.44218 0.36362 0.92593 0.0
C2688 C 0.45323 0.34918 0.93557 0.0
C2689 C 0.45816 0.35092 0.95401 0.0
C2690 C 0.47446 0.40082 0.04189 0.0
C2691 C 0.43298 0.36641 0.05095 0.0
C2692 C 0.41387 0.43162 0.06429 0.0
C2693 C 0.39838 0.42905 0.07743 0.0
C2694 C 0.39649 0.41149 0.08604 0.0
C2695 C 0.38035 0.40873 0.0969 0.0
C2696 C 0.36567 0.4234 0.09922 0.0
C2697 C 0.368 0.44115 0.09106 0.0
C2698 C 0.3842 0.44393 0.08026 0.0
C2699 C 0.40347 0.39689 1.01114 0.0
O2700 O 0.43876 0.41023 0.99593 0.0
O2701 O 0.43191 0.43344 0.01645 0.0
O2702 O 0.44917 0.3607 0.99614 0.0
O2703 O 0.46646 0.38481 0.9896 0.0
O2704 O 0.47696 0.38443 0.03365 0.0
O2705 O 0.45998 0.4096 0.03316 0.0
O2706 O 0.42648 0.38412 0.05455 0.0
O2707 O 0.44164 0.36271 0.03528 0.0
O2708 O 0.40727 0.43365 0.04796 0.0
O2709 O 0.42983 0.42038 0.06544 0.0
O2710 O 0.40012 0.4129 0.01938 0.0
O2711 O 0.41778 0.38799 0.01941 0.0
H2712 H 0.43572 0.39419 0.9619 0.0
H2713 H 0.42728 0.3914 0.92995 0.0
H2714 H 0.45816 0.33616 0.92894 0.0
H2715 H 0.46689 0.33943 0.96039 0.0
H2716 H 0.40716 0.39972 0.08404 0.0
H2717 H 0.37913 0.39496 0.10319 0.0
H2718 H 0.35684 0.45263 0.09237 0.0
H2719 H 0.3853 0.45752 0.0736 0.0
Ho2720 Ho 0.38897 0.65068 0.76413 0.0
Ho2721 Ho 0.358 0.63642 0.78703 0.0
C2722 C 0.34272 0.64495 0.74664 0.0
C2723 C 0.41371 0.65832 0.73956 0.0
C2724 C 0.41696 0.6566 0.72037 0.0
C2725 C 0.40605 0.64432 0.7093 0.0
C2726 C 0.41084 0.64208 0.69133 0.0
C2727 C 0.42674 0.65192 0.68434 0.0
C2728 C 0.43691 0.66481 0.6954 0.0
C2729 C 0.43207 0.66709 0.7132 0.0
C2730 C 0.37355 0.67818 0.78552 0.0
C2731 C 0.40429 0.6386 0.80479 0.0
C2732 C 0.33631 0.62624 0.81277 0.0
C2733 C 0.34159 0.61198 0.82678 0.0
C2734 C 0.35901 0.61356 0.83739 0.0
C2735 C 0.36652 0.59812 0.84756 0.0
C2736 C 0.35649 0.58086 0.84769 0.0
C2737 C 0.33838 0.57969 0.83796 0.0
C2738 C 0.33106 0.59507 0.82755 0.0
C2739 C 0.37579 0.60966 0.76598 0.0
O2740 O 0.36235 0.64541 0.74377 0.0
O2741 O 0.33694 0.64469 0.76346 0.0
O2742 O 0.39949 0.67022 0.74456 0.0
O2743 O 0.41465 0.64252 0.74874 0.0
O2744 O 0.39212 0.67611 0.78162 0.0
O2745 O 0.36334 0.66566 0.7775 0.0
O2746 O 0.38491 0.63639 0.80715 0.0
O2747 O 0.41013 0.64298 0.78847 0.0
O2748 O 0.33479 0.61904 0.79678 0.0
O2749 O 0.34596 0.64216 0.81308 0.0
O2750 O 0.35721 0.60993 0.7699 0.0
O2751 O 0.38399 0.6227 0.7746 0.0
H2752 H 0.39416 0.63625 0.71461 0.0
H2753 H 0.40261 0.63216 0.68313 0.0
H2754 H 0.44881 0.67305 0.69035 0.0
H2755 H 0.44047 0.67681 0.7215 0.0
H2756 H 0.36728 0.62646 0.83729 0.0
H2757 H 0.38031 0.59963 0.85518 0.0
H2758 H 0.33038 0.56654 0.83763 0.0
H2759 H 0.31769 0.59338 0.81938 0.0
Ho2760 Ho 0.96338 0.12749 0.02883 0.0
Ho2761 Ho 0.93908 0.10533 1.00151 0.0
C2762 C 0.94726 0.08507 0.03834 0.0
C2763 C 0.97928 0.1416 0.05729 0.0
C2764 C 0.97284 0.14208 0.07582 0.0
C2765 C 0.95753 0.13053 0.08131 0.0
C2766 C 0.95035 0.13219 0.09853 0.0
C2767 C 0.95836 0.14546 0.11059 0.0
C2768 C 0.97361 0.1571 0.10495 0.0
C2769 C 0.98076 0.15541 0.08774 0.0
C2770 C 0.98089 0.12472 0.99588 0.0
C2771 C 0.93459 0.15103 1.00249 0.0
C2772 C 0.92874 0.08804 0.97267 0.0
C2773 C 0.912 0.09248 0.96029 0.0
C2774 C 0.91026 0.11047 0.95206 0.0
C2775 C 0.89248 0.11639 0.94363 0.0
C2776 C 0.87618 0.10449 0.94335 0.0
C2777 C 0.87831 0.08598 0.95035 0.0
C2778 C 0.89619 0.07999 0.9588 0.0
C2779 C 0.91384 0.1194 0.02696 0.0
O2780 O 0.95394 0.10158 0.04409 0.0
O2781 O 0.94492 0.08166 0.02115 0.0
O2782 O 0.98481 0.12478 0.05081 0.0
O2783 O 0.96767 0.15161 0.04629 0.0
O2784 O 0.98236 0.13846 1.00732 0.0
O2785 O 0.97169 0.11129 1.00355 0.0
O2786 O 0.93344 0.13549 0.99246 0.0
O2787 O 0.94305 0.15094 0.01855 0.0
O2788 O 0.92378 0.08229 0.98838 0.0
O2789 O 0.94263 0.1006 0.97353 0.0
O2790 O 0.90798 0.11012 1.01286 0.0
O2791 O 0.93235 0.12118 0.02584 0.0
H2792 H 0.95088 0.12041 0.07226 0.0
H2793 H 0.93867 0.12297 0.10243 0.0
H2794 H 0.97982 0.16775 0.11378 0.0
H2795 H 0.99226 0.16474 0.08364 0.0
H2796 H 0.92218 0.12046 0.95293 0.0
H2797 H 0.8912 0.13061 0.93797 0.0
H2798 H 0.86584 0.0766 0.95021 0.0
H2799 H 0.89725 0.06609 0.9651 0.0
Ho2800 Ho 0.65891 0.17566 0.83072 0.0
Ho2801 Ho 0.67777 0.1539 0.79607 0.0
C2802 C 0.70628 0.17326 0.82325 0.0
C2803 C 0.65021 0.18756 0.86269 0.0
C2804 C 0.653 0.18307 0.88199 0.0
C2805 C 0.6711 0.1756 0.88943 0.0
C2806 C 0.67234 0.16979 0.90732 0.0
C2807 C 0.65618 0.17288 0.91869 0.0
C2808 C 0.63836 0.18108 0.91129 0.0
C2809 C 0.63673 0.18581 0.89318 0.0
C2810 C 0.65689 0.19482 0.80006 0.0
C2811 C 0.63064 0.15139 0.80541 0.0
C2812 C 0.68529 0.14208 0.76395 0.0
C2813 C 0.67962 0.12732 0.75055 0.0
C2814 C 0.68458 0.12971 0.73272 0.0
C2815 C 0.6805 0.11562 0.71987 0.0
C2816 C 0.67127 0.09868 0.72448 0.0
C2817 C 0.66605 0.09645 0.74239 0.0
C2818 C 0.6702 0.11057 0.75526 0.0
C2819 C 0.67913 0.13475 0.82685 0.0
O2820 O 0.69196 0.17268 0.83494 0.0
O2821 O 0.70306 0.17109 0.80594 0.0
O2822 O 0.63929 0.17599 0.8532 0.0
O2823 O 0.66548 0.19327 0.85397 0.0
O2824 O 0.64475 0.19817 0.8129 0.0
O2825 O 0.67085 0.18347 0.805 0.0
O2826 O 0.64508 0.14909 0.79387 0.0
O2827 O 0.63263 0.15956 0.82121 0.0
O2828 O 0.69524 0.13609 0.77821 0.0
O2829 O 0.67204 0.15572 0.7675 0.0
O2830 O 0.69121 0.13038 0.81416 0.0
O2831 O 0.66603 0.14663 0.82147 0.0
H2832 H 0.68398 0.17332 0.88125 0.0
H2833 H 0.68601 0.16284 0.9122 0.0
H2834 H 0.62545 0.18346 0.91941 0.0
H2835 H 0.62262 0.19162 0.88786 0.0
H2836 H 0.69182 0.1425 0.72871 0.0
H2837 H 0.68443 0.11811 0.70624 0.0
H2838 H 0.65908 0.0836 0.74658 0.0
H2839 H 0.66624 0.1083 0.76892 0.0
Ho2840 Ho 0.90069 0.85205 0.26009 0.0
Ho2841 Ho 0.87459 0.87338 0.23475 0.0
C2842 C 0.85488 0.86806 0.27254 0.0
C2843 C 0.91807 0.84172 0.29085 0.0
C2844 C 0.92039 0.84703 0.31069 0.0
C2845 C 0.90719 0.85958 0.31996 0.0
C2846 C 0.90973 0.86315 0.33867 0.0
C2847 C 0.92548 0.85421 0.34907 0.0
C2848 C 0.93874 0.84201 0.33947 0.0
C2849 C 0.93623 0.83853 0.32094 0.0
C2850 C 0.88855 0.82881 0.23081 0.0
C2851 C 0.92228 0.86884 0.22425 0.0
C2852 C 0.85568 0.88777 0.20721 0.0
C2853 C 0.85922 0.90579 0.19822 0.0
C2854 C 0.85155 0.90946 0.18101 0.0
C2855 C 0.85597 0.92643 0.1724 0.0
C2856 C 0.86815 0.93981 0.18095 0.0
C2857 C 0.87546 0.9361 0.19832 0.0
C2858 C 0.87117 0.91922 0.20681 0.0
C2859 C 0.89039 0.89597 0.26096 0.0
O2860 O 0.87365 0.86288 0.27719 0.0
O2861 O 0.85044 0.86939 0.25525 0.0
O2862 O 0.9011 0.83542 0.28471 0.0
O2863 O 0.92637 0.8521 0.27891 0.0
O2864 O 0.90483 0.82679 0.24062 0.0
O2865 O 0.87775 0.84171 0.23892 0.0
O2866 O 0.90368 0.87405 0.2194 0.0
O2867 O 0.9256 0.86111 0.24054 0.0
O2868 O 0.84936 0.88962 0.22334 0.0
O2869 O 0.87001 0.87475 0.20614 0.0
O2870 O 0.87344 0.89941 0.25291 0.0
O2871 O 0.89901 0.88215 0.25312 0.0
H2872 H 0.89477 0.86658 0.3128 0.0
H2873 H 0.89899 0.87267 0.34502 0.0
H2874 H 0.95145 0.83506 0.34623 0.0
H2875 H 0.94684 0.82887 0.31456 0.0
H2876 H 0.84245 0.89913 0.17417 0.0
H2877 H 0.85033 0.92883 0.15894 0.0
H2878 H 0.88464 0.94624 0.20537 0.0
H2879 H 0.87735 0.91656 0.22006 0.0
Ho2880 Ho 0.58022 0.42157 0.11896 0.0
Ho2881 Ho 0.55237 0.4391 0.14102 0.0
C2882 C 0.59206 0.42352 0.16298 0.0
C2883 C 0.61285 0.41267 0.1033 0.0
C2884 C 0.63004 0.40151 0.11068 0.0
C2885 C 0.63867 0.40647 0.12727 0.0
C2886 C 0.64951 0.39274 0.13728 0.0
C2887 C 0.65189 0.37406 0.13076 0.0
C2888 C 0.6452 0.36973 0.11339 0.0
C2889 C 0.63442 0.38342 0.10338 0.0
C2890 C 0.55575 0.39619 0.13216 0.0
C2891 C 0.5359 0.42513 0.10024 0.0
C2892 C 0.52396 0.45414 0.15916 0.0
C2893 C 0.50266 0.45319 0.15931 0.0
C2894 C 0.49276 0.44079 0.14771 0.0
C2895 C 0.47222 0.43972 0.14831 0.0
C2896 C 0.46165 0.45098 0.1606 0.0
C2897 C 0.47174 0.46336 0.17218 0.0
C2898 C 0.49222 0.46452 0.17146 0.0
C2899 C 0.57984 0.464 0.13063 0.0
O2900 O 0.59811 0.41964 0.14645 0.0
O2901 O 0.57343 0.43023 0.16459 0.0
O2902 O 0.59678 0.40291 0.10136 0.0
O2903 O 0.60923 0.42951 0.11035 0.0
O2904 O 0.56227 0.39523 0.11618 0.0
O2905 O 0.56349 0.40964 0.14064 0.0
O2906 O 0.53109 0.42963 0.11703 0.0
O2907 O 0.55534 0.42396 0.09695 0.0
O2908 O 0.53088 0.46218 0.14514 0.0
O2909 O 0.53367 0.43831 0.16365 0.0
O2910 O 0.57408 0.46186 0.1466 0.0
O2911 O 0.57103 0.45225 0.12041 0.0
H2912 H 0.63579 0.42046 0.1331 0.0
H2913 H 0.65519 0.39637 0.15044 0.0
H2914 H 0.64694 0.35536 0.10807 0.0
H2915 H 0.62789 0.37928 0.09066 0.0
H2916 H 0.50089 0.43187 0.13837 0.0
H2917 H 0.46465 0.4301 0.13928 0.0
H2918 H 0.46386 0.47184 0.18203 0.0
H2919 H 0.49993 0.47401 0.18053 0.0
Ho2920 Ho 0.36732 0.77786 0.84915 0.0
Ho2921 Ho 0.33418 0.75452 0.86571 0.0
C2922 C 0.35793 0.78179 0.8912 0.0
C2923 C 0.39258 0.80334 0.84055 0.0
C2924 C 0.41117 0.81127 0.8484 0.0
C2925 C 0.41377 0.81477 0.86675 0.0
C2926 C 0.43147 0.82251 0.87362 0.0
C2927 C 0.44708 0.82685 0.86232 0.0
C2928 C 0.44434 0.82313 0.84398 0.0
C2929 C 0.4267 0.81543 0.83717 0.0
C2930 C 0.37887 0.74354 0.86329 0.0
C2931 C 0.34991 0.7444 0.82637 0.0
C2932 C 0.31502 0.72612 0.87741 0.0
C2933 C 0.32095 0.70609 0.88163 0.0
C2934 C 0.33637 0.69626 0.87268 0.0
C2935 C 0.34269 0.67772 0.87786 0.0
C2936 C 0.33372 0.66873 0.8921 0.0
C2937 C 0.31818 0.67866 0.90084 0.0
C2938 C 0.31194 0.69713 0.8957 0.0
C2939 C 0.32151 0.79037 0.85733 0.0
O2940 O 0.36477 0.78983 0.87686 0.0
O2941 O 0.34817 0.76584 0.8904 0.0
O2942 O 0.39375 0.78555 0.83526 0.0
O2943 O 0.37586 0.80746 0.8484 0.0
O2944 O 0.388 0.75097 0.85031 0.0
O2945 O 0.36617 0.75536 0.86866 0.0
O2946 O 0.34325 0.73817 0.84147 0.0
O2947 O 0.35658 0.76192 0.82486 0.0
O2948 O 0.31468 0.73103 0.86063 0.0
O2949 O 0.32307 0.73889 0.88778 0.0
O2950 O 0.31337 0.77948 0.86864 0.0
O2951 O 0.33392 0.78049 0.84807 0.0
H2952 H 0.40214 0.81154 0.87579 0.0
H2953 H 0.43294 0.82496 0.88781 0.0
H2954 H 0.45564 0.82659 0.83469 0.0
H2955 H 0.42513 0.81288 0.82299 0.0
H2956 H 0.34381 0.70304 0.86195 0.0
H2957 H 0.35487 0.67062 0.87099 0.0
H2958 H 0.31066 0.67209 0.91164 0.0
H2959 H 0.30014 0.70451 0.90286 0.0
Ho2960 Ho 1.00398 0.64623 0.63223 0.0
Ho2961 Ho 1.00697 0.64585 0.66401 0.0
C2962 C 0.04942 0.6334 0.6475 0.0
C2963 C 1.00933 0.64171 0.59864 0.0
C2964 C 0.02683 0.6452 0.58808 0.0
C2965 C 0.03887 0.66081 0.59194 0.0
C2966 C 0.05725 0.66216 0.58392 0.0
C2967 C 0.06391 0.64775 0.57225 0.0
C2968 C 0.05168 0.63246 0.56806 0.0
C2969 C 0.0332 0.63125 0.57585 0.0
C2970 C 0.97356 0.62169 0.64375 0.0
C2971 C 0.97668 0.68037 0.64704 0.0
C2972 C 1.00483 0.63876 0.69747 0.0
C2973 C 0.99253 0.63155 0.71112 0.0
C2974 C 0.97781 0.61843 0.7072 0.0
C2975 C 0.96307 0.61572 0.71943 0.0
C2976 C 0.96247 0.62714 0.7349 0.0
C2977 C 0.97931 0.63738 0.74003 0.0
C2978 C 0.99426 0.63969 0.72803 0.0
C2979 C 0.03358 0.67227 0.65654 0.0
O2980 O 0.03895 0.64036 0.63361 0.0
O2981 O 0.03862 0.63139 0.66171 0.0
O2982 O 1.01208 0.62794 0.61016 0.0
O2983 O 1.00002 0.6567 0.6053 0.0
O2984 O 0.97142 0.63655 0.63361 0.0
O2985 O 0.99212 0.62169 0.64886 0.0
O2986 O 0.98125 0.66991 0.6616 0.0
O2987 O 0.9853 0.67434 0.63239 0.0
O2988 O 0.99892 0.65506 0.69038 0.0
O2989 O 1.01124 0.62633 0.68583 0.0
O2990 O 0.03505 0.66043 0.66948 0.0
O2991 O 1.01725 0.67051 0.6477 0.0
H2992 H 0.0345 0.67149 0.60172 0.0
H2993 H 0.06669 0.67387 0.58752 0.0
H2994 H 0.05673 0.62114 0.55918 0.0
H2995 H 1.02431 0.61895 0.57299 0.0
H2996 H 0.97668 0.61167 0.69423 0.0
H2997 H 0.95055 0.60719 0.71551 0.0
H2998 H 0.97959 0.64609 0.75198 0.0
H2999 H 1.006 0.64945 0.73127 0.0
Ho3000 Ho 0.13947 0.25597 0.37863 0.0
Ho3001 Ho 0.16517 0.26829 0.39809 0.0
C3002 C 0.14073 0.23883 0.41979 0.0
C3003 C 0.11329 0.2369 0.36054 0.0
C3004 C 0.10046 0.22104 0.36384 0.0
C3005 C 0.10446 0.20864 0.37817 0.0
C3006 C 0.09039 0.19559 0.38287 0.0
C3007 C 0.07229 0.19466 0.37313 0.0
C3008 C 0.06885 0.20641 0.35821 0.0
C3009 C 0.08283 0.2196 0.35366 0.0
C3010 C 0.12665 0.29418 0.38447 0.0
C3011 C 0.16689 0.28279 0.35748 0.0
C3012 C 0.19063 0.28754 0.41629 0.0
C3013 C 0.19203 0.30783 0.41946 0.0
C3014 C 0.17478 0.31976 0.41862 0.0
C3015 C 0.17623 0.33933 0.42087 0.0
C3016 C 0.19499 0.34718 0.42357 0.0
C3017 C 0.21223 0.33512 0.42432 0.0
C3018 C 0.21071 0.31548 0.42236 0.0
C3019 C 0.18092 0.233 0.38621 0.0
O3020 O 0.13431 0.23623 0.40314 0.0
O3021 O 0.15246 0.25327 0.42207 0.0
O3022 O 0.10907 0.25235 0.36956 0.0
O3023 O 0.13237 0.23295 0.36039 0.0
O3024 O 0.1277 0.28522 0.36947 0.0
O3025 O 0.13385 0.2824 0.39649 0.0
O3026 O 0.17074 0.28798 0.37413 0.0
O3027 O 0.15597 0.26768 0.35538 0.0
O3028 O 0.19335 0.28214 0.39995 0.0
O3029 O 0.17525 0.27997 0.42312 0.0
O3030 O 0.18043 0.23903 0.40237 0.0
O3031 O 0.17162 0.2458 0.37686 0.0
H3032 H 0.11814 0.2094 0.38602 0.0
H3033 H 0.09343 0.18655 0.39435 0.0
H3034 H 0.05492 0.20609 0.35061 0.0
H3035 H 0.07952 0.22919 0.34262 0.0
H3036 H 0.16023 0.31396 0.41606 0.0
H3037 H 0.16272 0.34831 0.42033 0.0
H3038 H 0.22691 0.34088 0.4259 0.0
H3039 H 0.22411 0.30632 0.42271 0.0
Ho3040 Ho 0.55616 0.665 0.41001 0.0
Ho3041 Ho 0.54239 0.64389 0.39027 0.0
C3042 C 0.57475 0.66676 0.36994 0.0
C3043 C 0.57758 0.6852 0.43151 0.0
C3044 C 0.59423 0.69747 0.43043 0.0
C3045 C 0.60799 0.695 0.41688 0.0
C3046 C 0.62098 0.70942 0.41357 0.0
C3047 C 0.62 0.72636 0.42365 0.0
C3048 C 0.60732 0.72796 0.43813 0.0
C3049 C 0.5945 0.71351 0.44151 0.0
C3050 C 0.51944 0.68355 0.3998 0.0
C3051 C 0.52517 0.64182 0.4305 0.0
C3052 C 0.52367 0.61912 0.37129 0.0
C3053 C 0.50427 0.61705 0.36333 0.0
C3054 C 0.48984 0.63188 0.36467 0.0
C3055 C 0.47189 0.63053 0.35533 0.0
C3056 C 0.46847 0.61437 0.34468 0.0
C3057 C 0.4828 0.59937 0.34378 0.0
C3058 C 0.50078 0.60076 0.35309 0.0
C3059 C 0.57759 0.62512 0.40185 0.0
O3060 O 0.57843 0.67035 0.38706 0.0
O3061 O 0.55813 0.65775 0.36689 0.0
O3062 O 0.56139 0.69169 0.42344 0.0
O3063 O 0.58124 0.66716 0.42837 0.0
O3064 O 0.52618 0.68006 0.41575 0.0
O3065 O 0.53188 0.67513 0.38935 0.0
O3066 O 0.51978 0.63978 0.41344 0.0
O3067 O 0.54212 0.65013 0.43297 0.0
O3068 O 0.52466 0.61883 0.38852 0.0
O3069 O 0.53346 0.63289 0.36471 0.0
O3070 O 0.57234 0.62887 0.38572 0.0
O3071 O 0.56458 0.63351 0.41145 0.0
H3072 H 0.60792 0.68254 0.40827 0.0
H3073 H 0.63086 0.70787 0.40247 0.0
H3074 H 0.60609 0.741 0.44593 0.0
H3075 H 0.58379 0.71549 0.45193 0.0
H3076 H 0.49262 0.64452 0.37265 0.0
H3077 H 0.46065 0.64197 0.35652 0.0
H3078 H 0.48014 0.58675 0.33578 0.0
H3079 H 0.51207 0.58935 0.35205 0.0
Ho3080 Ho 0.13971 0.77751 0.16004 0.0
Ho3081 Ho 0.13653 0.77399 0.13033 0.0
C3082 C 0.15537 0.73474 0.14425 0.0
C3083 C 0.14869 0.77487 0.19356 0.0
C3084 C 0.14926 0.76029 0.20733 0.0
C3085 C 0.13432 0.74691 0.20842 0.0
C3086 C 0.1353 0.73342 0.22202 0.0
C3087 C 0.15133 0.73308 0.23443 0.0
C3088 C 0.16652 0.74613 0.23288 0.0
C3089 C 0.16545 0.75966 0.21943 0.0
C3090 C 0.16411 0.80755 0.14826 0.0
C3091 C 0.10444 0.80586 0.14526 0.0
C3092 C 0.13783 0.77881 0.09649 0.0
C3093 C 0.1401 0.7953 0.08545 0.0
C3094 C 0.14036 0.81348 0.09328 0.0
C3095 C 0.14047 0.82953 0.0826 0.0
C3096 C 0.14061 0.82749 0.06402 0.0
C3097 C 0.14137 0.80913 0.05633 0.0
C3098 C 0.141 0.79305 0.06706 0.0
C3099 C 0.11133 0.74569 0.14076 0.0
O3100 O 0.14888 0.74409 0.15861 0.0
O3101 O 0.15486 0.74556 0.13005 0.0
O3102 O 0.16153 0.772 0.18112 0.0
O3103 O 0.13122 0.78083 0.18741 0.0
O3104 O 0.1488 0.809 0.15828 0.0
O3105 O 0.16371 0.78984 0.14255 0.0
O3106 O 0.11412 0.80012 0.13102 0.0
O3107 O 0.11093 0.79736 0.16013 0.0
O3108 O 0.12132 0.77907 0.10516 0.0
O3109 O 0.15342 0.77405 0.10642 0.0
O3110 O 0.12191 0.74576 0.1268 0.0
O3111 O 0.1134 0.76169 0.14909 0.0
H3112 H 0.12189 0.74699 0.19893 0.0
H3113 H 0.12353 0.72334 0.22291 0.0
H3114 H 0.17893 0.74629 0.24241 0.0
H3115 H 0.17719 0.7698 0.21858 0.0
H3116 H 0.13974 0.81526 0.10757 0.0
H3117 H 0.13947 0.8435 0.08888 0.0
H3118 H 0.14165 0.80724 0.04204 0.0
H3119 H 0.1409 0.77896 0.061 0.0
Ho3120 Ho 1.02177 0.40586 0.89276 0.0
Ho3121 Ho 1.01652 0.40587 0.85757 0.0
C3122 C 0.06188 0.41648 0.86928 0.0
C3123 C 0.02876 0.41099 0.9262 0.0
C3124 C 0.04521 0.41907 0.93619 0.0
C3125 C 0.0649 0.41304 0.9331 0.0
C3126 C 0.08037 0.42123 0.94262 0.0
C3127 C 0.07633 0.4359 0.95505 0.0
C3128 C 0.05667 0.44293 0.95698 0.0
C3129 C 0.04116 0.43437 0.94778 0.0
C3130 C 0.99208 0.43217 0.88261 0.0
C3131 C 0.99062 0.37381 0.87928 0.0
C3132 C 1.00033 0.41537 0.82742 0.0
C3133 C 0.99085 0.40869 0.81106 0.0
C3134 C 0.97094 0.41443 0.80771 0.0
C3135 C 0.96255 0.41228 0.79087 0.0
C3136 C 0.97403 0.40454 0.77711 0.0
C3137 C 0.9935 0.39747 0.78067 0.0
C3138 C 1.00197 0.39964 0.79764 0.0
C3139 C 0.04104 0.37602 0.86617 0.0
O3140 O 0.0549 0.41238 0.88528 0.0
O3141 O 0.04842 0.41732 0.85596 0.0
O3142 O 1.01914 0.42339 0.91611 0.0
O3143 O 0.03202 0.39457 0.91827 0.0
O3144 O 0.98994 0.41723 0.89223 0.0
O3145 O 1.00959 0.43056 0.87616 0.0
O3146 O 0.99397 0.38169 0.86344 0.0
O3147 O 1.00078 0.38057 0.89328 0.0
O3148 O 1.01937 0.4117 0.8298 0.0
O3149 O 0.9903 0.41425 0.84196 0.0
O3150 O 0.04113 0.38472 0.85099 0.0
O3151 O 1.02622 0.38199 0.87462 0.0
H3152 H 0.06833 0.40177 0.92364 0.0
H3153 H 0.09531 0.41524 0.94094 0.0
H3154 H 0.0532 0.45442 0.96624 0.0
H3155 H 1.02599 0.4396 0.94978 0.0
H3156 H 0.96215 0.42149 0.81788 0.0
H3157 H 0.94721 0.4172 0.78846 0.0
H3158 H 1.00234 0.3911 0.77021 0.0
H3159 H 1.01742 0.39509 0.79998 0.0
Ho3160 Ho 0.37467 0.23211 0.64732 0.0
Ho3161 Ho 0.35991 0.2609 0.62247 0.0
C3162 C 0.37052 0.21937 0.60359 0.0
C3163 C 0.38355 0.19947 0.65905 0.0
C3164 C 0.39711 0.1892 0.64707 0.0
C3165 C 0.39758 0.16943 0.64478 0.0
C3166 C 0.41232 0.16088 0.63415 0.0
C3167 C 0.42708 0.17227 0.62721 0.0
C3168 C 0.42223 0.19157 0.62467 0.0
C3169 C 0.4086 0.20017 0.63591 0.0
C3170 C 0.4032 0.25264 0.63376 0.0
C3171 C 0.36991 0.27379 0.66575 0.0
C3172 C 0.35078 0.28997 0.60263 0.0
C3173 C 0.35039 0.31062 0.60433 0.0
C3174 C 0.36186 0.31958 0.61758 0.0
C3175 C 0.36207 0.33946 0.61832 0.0
C3176 C 0.35082 0.35046 0.6058 0.0
C3177 C 0.33911 0.34131 0.59278 0.0
C3178 C 0.33886 0.32149 0.59211 0.0
C3179 C 0.33169 0.2399 0.63623 0.0
O3180 O 0.37214 0.21418 0.62066 0.0
O3181 O 0.36681 0.23797 0.60049 0.0
O3182 O 0.39129 0.21449 0.66667 0.0
O3183 O 0.36572 0.20312 0.6521 0.0
O3184 O 0.40351 0.24714 0.65013 0.0
O3185 O 0.38855 0.24609 0.62544 0.0
O3186 O 0.36746 0.27929 0.64856 0.0
O3187 O 0.3705 0.25502 0.66907 0.0
O3188 O 0.33775 0.28125 0.61184 0.0
O3189 O 0.36846 0.28156 0.6034 0.0
O3190 O 0.33305 0.24293 0.61938 0.0
O3191 O 0.34577 0.24713 0.64484 0.0
H3192 H 0.38739 0.16093 0.65178 0.0
H3193 H 0.41414 0.14555 0.63371 0.0
H3194 H 0.43234 0.20067 0.61798 0.0
H3195 H 0.40772 0.21545 0.63635 0.0
H3196 H 0.37084 0.31123 0.62712 0.0
H3197 H 0.37109 0.34619 0.62856 0.0
H3198 H 0.33058 0.34943 0.58277 0.0
H3199 H 0.32999 0.31463 0.58181 0.0
Ho3200 Ho 0.15875 0.53401 0.38083 0.0
Ho3201 Ho 0.19123 0.50765 0.39093 0.0
C3202 C 0.20578 0.55178 0.38477 0.0
C3203 C 0.13232 0.56151 0.38103 0.0
C3204 C 0.13519 0.58037 0.38876 0.0
C3205 C 0.15026 0.58194 0.40203 0.0
C3206 C 0.16265 0.59735 0.40187 0.0
C3207 C 0.15991 0.61083 0.38837 0.0
C3208 C 0.14174 0.6119 0.37859 0.0
C3209 C 0.12943 0.59635 0.37855 0.0
C3210 C 0.17409 0.51332 0.35361 0.0
C3211 C 0.14382 0.49004 0.3863 0.0
C3212 C 0.21696 0.47997 0.39654 0.0
C3213 C 0.21491 0.46248 0.4064 0.0
C3214 C 0.19671 0.45918 0.41428 0.0
C3215 C 0.19321 0.44129 0.42108 0.0
C3216 C 0.2081 0.4268 0.42041 0.0
C3217 C 0.22693 0.43061 0.41398 0.0
C3218 C 0.2303 0.44847 0.40685 0.0
C3219 C 0.17527 0.52615 0.41864 0.0
O3220 O 0.18583 0.55535 0.38572 0.0
O3221 O 0.21146 0.53318 0.38404 0.0
O3222 O 0.14343 0.5577 0.36732 0.0
O3223 O 0.13281 0.54757 0.39248 0.0
O3224 O 0.15527 0.51772 0.35507 0.0
O3225 O 0.18364 0.52139 0.36595 0.0
O3226 O 0.16361 0.48653 0.38963 0.0
O3227 O 0.13817 0.50811 0.3826 0.0
O3228 O 0.21616 0.49545 0.40624 0.0
O3229 O 0.20573 0.48137 0.3821 0.0
O3230 O 0.19411 0.52291 0.41684 0.0
O3231 O 0.16564 0.51915 0.40582 0.0
H3232 H 0.15485 0.56989 0.41029 0.0
H3233 H 0.17601 0.59695 0.41023 0.0
H3234 H 0.13919 0.62262 0.36835 0.0
H3235 H 0.1177 0.59549 0.3684 0.0
H3236 H 0.18488 0.47014 0.41438 0.0
H3237 H 0.17861 0.43846 0.426 0.0
H3238 H 0.23848 0.4194 0.41328 0.0
H3239 H 0.24446 0.45101 0.40094 0.0
Ho3240 Ho 0.2673 0.39345 0.15741 0.0
Ho3241 Ho 0.29304 0.41867 0.1765 0.0
C3242 C 0.25367 0.44023 0.15885 0.0
C3243 C 0.23793 0.3723 0.14884 0.0
C3244 C 0.22564 0.37239 0.13238 0.0
C3245 C 0.2107 0.38671 0.12963 0.0
C3246 C 0.20471 0.39178 0.11241 0.0
C3247 C 0.21329 0.38236 0.09781 0.0
C3248 C 0.22605 0.36626 0.10069 0.0
C3249 C 0.23203 0.36119 0.11789 0.0
C3250 C 0.29333 0.40755 0.13525 0.0
C3251 C 0.31231 0.37689 0.16388 0.0
C3252 C 0.32075 0.43848 0.19076 0.0
C3253 C 0.34104 0.44047 0.18555 0.0
C3254 C 0.34774 0.43073 0.17039 0.0
C3255 C 0.3671 0.43254 0.16508 0.0
C3256 C 0.37982 0.44426 0.17485 0.0
C3257 C 0.37308 0.45413 0.18997 0.0
C3258 C 0.35365 0.45221 0.19534 0.0
C3259 C 0.26687 0.4008 0.19739 0.0
O3260 O 0.24874 0.42238 0.15439 0.0
O3261 O 0.27102 0.44265 0.16723 0.0
O3262 O 0.25656 0.36716 0.14666 0.0
O3263 O 0.23604 0.38735 0.15918 0.0
O3264 O 0.28454 0.3916 0.13257 0.0
O3265 O 0.28546 0.41678 0.14793 0.0
O3266 O 0.31597 0.39503 0.1678 0.0
O3267 O 0.29348 0.37201 0.16196 0.0
O3268 O 0.31674 0.42141 0.19617 0.0
O3269 O 0.30748 0.44549 0.17935 0.0
O3270 O 0.27099 0.41862 0.19884 0.0
O3271 O 0.27697 0.39345 0.1852 0.0
H3272 H 0.20512 0.39529 0.14058 0.0
H3273 H 0.19462 0.40407 0.11054 0.0
H3274 H 0.23291 0.35869 0.08971 0.0
H3275 H 0.24331 0.3498 0.11967 0.0
H3276 H 0.33797 0.42185 0.16261 0.0
H3277 H 0.37206 0.42499 0.15328 0.0
H3278 H 0.3829 0.4631 0.19772 0.0
H3279 H 0.3485 0.45981 0.20703 0.0
Ho3280 Ho 0.40756 0.48113 0.89717 0.0
Ho3281 Ho 0.38085 0.50374 0.92009 0.0
C3282 C 0.35932 0.47303 0.89512 0.0
C3283 C 0.42506 0.45371 0.87937 0.0
C3284 C 0.41986 0.4435 0.86244 0.0
C3285 C 0.40183 0.43407 0.85997 0.0
C3286 C 0.39685 0.42552 0.84355 0.0
C3287 C 0.40976 0.4261 0.82911 0.0
C3288 C 0.42788 0.43535 0.83174 0.0
C3289 C 0.43283 0.4439 0.84813 0.0
C3290 C 0.39133 0.51253 0.88088 0.0
C3291 C 0.42497 0.51901 0.9124 0.0
C3292 C 0.36183 0.53298 0.93372 0.0
C3293 C 0.35869 0.55284 0.92739 0.0
C3294 C 0.37005 0.55989 0.91365 0.0
C3295 C 0.36682 0.57867 0.90757 0.0
C3296 C 0.35218 0.59081 0.91519 0.0
C3297 C 0.34067 0.58357 0.92879 0.0
C3298 C 0.3439 0.56478 0.93481 0.0
C3299 C 0.39843 0.47324 0.93869 0.0
O3300 O 0.37774 0.46783 0.89077 0.0
O3301 O 0.35618 0.48733 0.9064 0.0
O3302 O 0.42912 0.4717 0.87777 0.0
O3303 O 0.41434 0.45076 0.8933 0.0
O3304 O 0.40897 0.50549 0.87772 0.0
O3305 O 0.38278 0.50169 0.89124 0.0
O3306 O 0.40606 0.52345 0.91522 0.0
O3307 O 0.4305 0.50129 0.9079 0.0
O3308 O 0.38009 0.52777 0.93839 0.0
O3309 O 0.35316 0.51993 0.92413 0.0
O3310 O 0.38042 0.48029 0.94035 0.0
O3311 O 0.40691 0.48324 0.92712 0.0
H3312 H 0.39144 0.43344 0.87067 0.0
H3313 H 0.38286 0.41838 0.84221 0.0
H3314 H 0.43811 0.43643 0.82096 0.0
H3315 H 0.44675 0.45115 0.84954 0.0
H3316 H 0.38144 0.55093 0.90758 0.0
H3317 H 0.37598 0.58375 0.89711 0.0
H3318 H 0.32899 0.59238 0.9347 0.0
H3319 H 0.3348 0.55957 0.94526 0.0
Ho3320 Ho 0.2867 0.65199 0.64409 0.0
Ho3321 Ho 0.24986 0.63036 0.6601 0.0
C3322 C 0.28884 0.60491 0.6442 0.0
C3323 C 0.31985 0.66194 0.63023 0.0
C3324 C 0.33384 0.65464 0.61638 0.0
C3325 C 0.34172 0.63569 0.61623 0.0
C3326 C 0.35524 0.62951 0.6032 0.0
C3327 C 0.36128 0.64207 0.58991 0.0
C3328 C 0.35307 0.66093 0.59002 0.0
C3329 C 0.33961 0.66709 0.60303 0.0
C3330 C 0.25261 0.65069 0.62365 0.0
C3331 C 0.25659 0.67708 0.66659 0.0
C3332 C 0.21011 0.62711 0.65883 0.0
C3333 C 0.18659 0.62678 0.65673 0.0
C3334 C 0.17565 0.63821 0.6439 0.0
C3335 C 0.15419 0.639 0.64226 0.0
C3336 C 0.14173 0.62858 0.65346 0.0
C3337 C 0.15276 0.61719 0.66638 0.0
C3338 C 0.1743 0.61627 0.66791 0.0
C3339 C 0.27952 0.63734 0.68695 0.0
O3340 O 0.29707 0.62139 0.64135 0.0
O3341 O 0.26991 0.6041 0.65005 0.0
O3342 O 0.30222 0.66808 0.62455 0.0
O3343 O 0.31908 0.65252 0.64517 0.0
O3344 O 0.26395 0.66516 0.62493 0.0
O3345 O 0.26015 0.63708 0.63312 0.0
O3346 O 0.24451 0.66244 0.66542 0.0
O3347 O 0.27543 0.67548 0.6618 0.0
O3348 O 0.22232 0.61523 0.66792 0.0
O3349 O 0.22006 0.63967 0.6503 0.0
O3350 O 0.26273 0.62869 0.68918 0.0
O3351 O 0.27872 0.64179 0.67045 0.0
H3352 H 0.33756 0.62565 0.62623 0.0
H3353 H 0.36122 0.61492 0.60377 0.0
H3354 H 0.35685 0.67099 0.5799 0.0
H3355 H 0.3337 0.68172 0.60267 0.0
H3356 H 0.18378 0.64686 0.63493 0.0
H3357 H 0.1474 0.64828 0.63217 0.0
H3358 H 0.14477 0.60862 0.67549 0.0
H3359 H 0.18134 0.60737 0.67818 0.0
Ho3360 Ho 0.14701 0.5155 0.14632 0.0
Ho3361 Ho 0.17032 0.54599 0.12974 0.0
C3362 C 0.19551 0.50686 0.1435 0.0
C3363 C 0.13609 0.48332 0.15969 0.0
C3364 C 0.14498 0.4702 0.17391 0.0
C3365 C 0.15048 0.45105 0.16995 0.0
C3366 C 0.15803 0.43845 0.18332 0.0
C3367 C 0.16034 0.44454 0.20118 0.0
C3368 C 0.15509 0.46385 0.20503 0.0
C3369 C 0.14758 0.47642 0.19167 0.0
C3370 C 0.15861 0.54328 0.16948 0.0
C3371 C 0.12196 0.5544 0.13957 0.0
C3372 C 0.17997 0.58253 0.12486 0.0
C3373 C 0.1742 0.60434 0.1286 0.0
C3374 C 0.17203 0.6127 0.14581 0.0
C3375 C 0.16862 0.63306 0.14867 0.0
C3376 C 0.1673 0.64679 0.13457 0.0
C3377 C 0.1692 0.63814 0.1174 0.0
C3378 C 0.17253 0.61788 0.11458 0.0
C3379 C 0.16401 0.51521 0.10558 0.0
O3380 O 0.17763 0.50115 0.14721 0.0
O3381 O 0.19757 0.52497 0.13771 0.0
O3382 O 0.1293 0.50012 0.16474 0.0
O3383 O 0.14535 0.48433 0.14473 0.0
O3384 O 0.14227 0.53434 0.17019 0.0
O3385 O 0.16895 0.53602 0.15718 0.0
O3386 O 0.14001 0.56033 0.13641 0.0
O3387 O 0.11957 0.53564 0.14088 0.0
O3388 O 0.16944 0.57244 0.11352 0.0
O3389 O 0.18734 0.57135 0.13755 0.0
O3390 O 0.17846 0.52727 0.10577 0.0
O3391 O 0.1513 0.52204 0.11713 0.0
H3392 H 0.14882 0.44574 0.15646 0.0
H3393 H 0.16216 0.42389 0.17958 0.0
H3394 H 0.15635 0.46925 0.21851 0.0
H3395 H 0.14361 0.49103 0.19538 0.0
H3396 H 0.17322 0.60347 0.15732 0.0
H3397 H 0.16737 0.63796 0.16225 0.0
H3398 H 0.1682 0.64697 0.10567 0.0
H3399 H 0.17417 0.6128 0.10106 0.0
Ho3400 Ho 0.30187 0.38916 0.86977 0.0
Ho3401 Ho 0.26124 0.40449 0.84931 0.0
C3402 C 0.29875 0.43081 0.85666 0.0
C3403 C 0.33629 0.38616 0.8871 0.0
C3404 C 0.34465 0.38378 0.90587 0.0
C3405 C 0.36445 0.3769 0.90892 0.0
C3406 C 0.37359 0.37723 0.92611 0.0
C3407 C 0.36332 0.38462 0.94093 0.0
C3408 C 0.34318 0.39078 0.93789 0.0
C3409 C 0.33405 0.39042 0.92072 0.0
C3410 C 0.27043 0.40108 0.88911 0.0
C3411 C 0.26924 0.35941 0.86269 0.0
C3412 C 0.22121 0.41018 0.84948 0.0
C3413 C 0.19782 0.41379 0.85161 0.0
C3414 C 0.189 0.41739 0.86839 0.0
C3415 C 0.1677 0.41955 0.87069 0.0
C3416 C 0.15318 0.41735 0.85657 0.0
C3417 C 0.16214 0.4137 0.83977 0.0
C3418 C 0.1835 0.4122 0.83737 0.0
C3419 C 0.29167 0.39158 0.82631 0.0
O3420 O 0.30826 0.41444 0.85334 0.0
O3421 O 0.27885 0.43104 0.85782 0.0
O3422 O 0.32805 0.37169 0.87891 0.0
O3423 O 0.32647 0.40227 0.88372 0.0
O3424 O 0.28273 0.38742 0.89406 0.0
O3425 O 0.27611 0.40816 0.87509 0.0
O3426 O 0.25747 0.37355 0.85624 0.0
O3427 O 0.28832 0.36105 0.86691 0.0
O3428 O 0.23242 0.41643 0.83675 0.0
O3429 O 0.23224 0.40143 0.86174 0.0
O3430 O 0.27642 0.40334 0.82223 0.0
O3431 O 0.2884 0.38538 0.84204 0.0
H3432 H 0.37317 0.37184 0.89783 0.0
H3433 H 0.38903 0.37236 0.92762 0.0
H3434 H 0.33437 0.39616 0.94879 0.0
H3435 H 0.31881 0.39586 0.919 0.0
H3436 H 0.19869 0.41855 0.88006 0.0
H3437 H 0.16268 0.42217 0.88404 0.0
H3438 H 0.15262 0.41199 0.82809 0.0
H3439 H 0.18879 0.40924 0.82415 0.0
Ho3440 Ho 0.40411 0.53555 0.63094 0.0
Ho3441 Ho 0.37963 0.51567 0.60558 0.0
C3442 C 0.35597 0.54993 0.6262 0.0
C3443 C 0.42228 0.56176 0.64826 0.0
C3444 C 0.41529 0.57089 0.66452 0.0
C3445 C 0.42582 0.58534 0.67305 0.0
C3446 C 0.41946 0.59256 0.68941 0.0
C3447 C 0.40244 0.58546 0.69721 0.0
C3448 C 0.39192 0.5711 0.68838 0.0
C3449 C 0.39829 0.5639 0.67222 0.0
C3450 C 0.38698 0.50633 0.64629 0.0
C3451 C 0.42235 0.49489 0.61868 0.0
C3452 C 0.36054 0.49059 0.58737 0.0
C3453 C 0.35894 0.47025 0.59067 0.0
C3454 C 0.36792 0.46223 0.6061 0.0
C3455 C 0.36659 0.44284 0.60948 0.0
C3456 C 0.35603 0.43131 0.59755 0.0
C3457 C 0.34689 0.43938 0.58216 0.0
C3458 C 0.34839 0.45882 0.57872 0.0
C3459 C 0.40057 0.54398 0.59035 0.0
O3460 O 0.37388 0.55257 0.63378 0.0
O3461 O 0.35413 0.53592 0.61439 0.0
O3462 O 0.42678 0.54356 0.65012 0.0
O3463 O 0.41119 0.56536 0.634 0.0
O3464 O 0.40398 0.51279 0.65146 0.0
O3465 O 0.37867 0.51716 0.63467 0.0
O3466 O 0.40379 0.49244 0.6128 0.0
O3467 O 0.42737 0.51222 0.62408 0.0
O3468 O 0.37832 0.49581 0.58349 0.0
O3469 O 0.35223 0.50171 0.59923 0.0
O3470 O 0.38229 0.54009 0.58634 0.0
O3471 O 0.407 0.53231 0.60207 0.0
H3472 H 0.43904 0.59075 0.66727 0.0
H3473 H 0.42787 0.60361 0.69594 0.0
H3474 H 0.37909 0.56496 0.69421 0.0
H3475 H 0.39024 0.55242 0.66597 0.0
H3476 H 0.3758 0.47095 0.61561 0.0
H3477 H 0.37353 0.43694 0.62153 0.0
H3478 H 0.3388 0.43061 0.57272 0.0
H3479 H 0.34134 0.46489 0.5668 0.0
Ho3480 Ho 0.28861 0.66032 0.39434 0.0
Ho3481 Ho 0.3084 0.63941 0.36842 0.0
C3482 C 0.26923 0.61699 0.38317 0.0
C3483 C 0.26163 0.67424 0.41383 0.0
C3484 C 0.25144 0.66235 0.42632 0.0
C3485 C 0.23176 0.65726 0.42263 0.0
C3486 C 0.22201 0.64623 0.43473 0.0
C3487 C 0.23154 0.64152 0.45109 0.0
C3488 C 0.25217 0.64329 0.45305 0.0
C3489 C 0.26203 0.65398 0.44087 0.0
C3490 C 0.31936 0.63964 0.40827 0.0
C3491 C 0.32876 0.68174 0.382 0.0
C3492 C 0.32929 0.61978 0.34619 0.0
C3493 C 0.34868 0.61967 0.3387 0.0
C3494 C 0.36114 0.63485 0.34211 0.0
C3495 C 0.38062 0.63354 0.3366 0.0
C3496 C 0.38763 0.61701 0.3277 0.0
C3497 C 0.37471 0.6023 0.32349 0.0
C3498 C 0.35519 0.60365 0.32901 0.0
C3499 C 0.27795 0.66098 0.35521 0.0
O3500 O 0.26725 0.63362 0.3922 0.0
O3501 O 0.28553 0.61532 0.37338 0.0
O3502 O 0.28048 0.67679 0.41752 0.0
O3503 O 0.25806 0.6702 0.39711 0.0
O3504 O 0.3139 0.65647 0.41378 0.0
O3505 O 0.30721 0.63371 0.39662 0.0
O3506 O 0.33181 0.6643 0.37422 0.0
O3507 O 0.31086 0.68464 0.38922 0.0
O3508 O 0.31754 0.63428 0.34165 0.0
O3509 O 0.32913 0.61598 0.36315 0.0
O3510 O 0.28081 0.64309 0.35165 0.0
O3511 O 0.2907 0.66674 0.3663 0.0
H3512 H 0.22365 0.66255 0.4109 0.0
H3513 H 0.20616 0.64446 0.43276 0.0
H3514 H 0.26003 0.63924 0.46532 0.0
H3515 H 0.27766 0.65651 0.44347 0.0
H3516 H 0.3561 0.64724 0.34971 0.0
H3517 H 0.39052 0.64481 0.34044 0.0
H3518 H 0.38003 0.58938 0.31684 0.0
H3519 H 0.34548 0.59187 0.32642 0.0
Ho3520 Ho 0.37995 0.11337 0.52681 0.0
Ho3521 Ho 0.3967 0.14284 0.50449 0.0
C3522 C 0.38262 0.15871 0.54381 0.0
C3523 C 0.37208 0.09141 0.55278 0.0
C3524 C 0.36311 0.09623 0.56986 0.0
C3525 C 0.36896 0.11248 0.57949 0.0
C3526 C 0.35734 0.11975 0.59319 0.0
C3527 C 0.33998 0.11067 0.59762 0.0
C3528 C 0.33495 0.09363 0.58895 0.0
C3529 C 0.34641 0.0865 0.57505 0.0
C3530 C 0.35334 0.1317 0.50498 0.0
C3531 C 0.39156 0.09848 0.48659 0.0
C3532 C 0.40816 0.16718 0.48163 0.0
C3533 C 0.40962 0.16981 0.46255 0.0
C3534 C 0.39867 0.15891 0.45032 0.0
C3535 C 0.39845 0.16352 0.43228 0.0
C3536 C 0.40895 0.17918 0.42643 0.0
C3537 C 0.42098 0.1891 0.43866 0.0
C3538 C 0.42125 0.18447 0.4566 0.0
C3539 C 0.42301 0.1257 0.52711 0.0
O3540 O 0.3796 0.14003 0.54655 0.0
O3541 O 0.38821 0.16368 0.52761 0.0
O3542 O 0.36009 0.09409 0.53896 0.0
O3543 O 0.38984 0.09779 0.55034 0.0
O3544 O 0.35298 0.11356 0.50832 0.0
O3545 O 0.36707 0.13891 0.51408 0.0
O3546 O 0.39355 0.11733 0.48367 0.0
O3547 O 0.388 0.09313 0.50324 0.0
O3548 O 0.42007 0.1541 0.48889 0.0
O3549 O 0.39018 0.16722 0.48771 0.0
O3550 O 0.42169 0.14391 0.52428 0.0
O3551 O 0.41017 0.11723 0.51784 0.0
H3552 H 0.38192 0.12012 0.57589 0.0
H3553 H 0.36149 0.1328 0.59993 0.0
H3554 H 0.32149 0.08651 0.59217 0.0
H3555 H 0.3416 0.07405 0.5677 0.0
H3556 H 0.3898 0.14735 0.45478 0.0
H3557 H 0.38942 0.15542 0.42307 0.0
H3558 H 0.42974 0.20084 0.43445 0.0
H3559 H 0.42999 0.1928 0.46593 0.0
Ho3560 Ho 0.87386 0.41729 0.50394 0.0
Ho3561 Ho 0.88895 0.37631 0.49821 0.0
C3562 C 0.89181 0.39348 0.53799 0.0
C3563 C 0.86378 0.45153 0.51293 0.0
C3564 C 0.87426 0.46432 0.52506 0.0
C3565 C 0.88237 0.45753 0.54133 0.0
C3566 C 0.89116 0.47004 0.55331 0.0
C3567 C 0.89193 0.48952 0.54915 0.0
C3568 C 0.88607 0.49577 0.53201 0.0
C3569 C 0.87713 0.48322 0.52005 0.0
C3570 C 0.91056 0.4118 0.49064 0.0
C3571 C 0.85936 0.3976 0.46772 0.0
C3572 C 0.91282 0.34805 0.49067 0.0
C3573 C 0.91321 0.3309 0.47977 0.0
C3574 C 0.92805 0.32865 0.4672 0.0
C3575 C 0.92588 0.31542 0.45355 0.0
C3576 C 0.90883 0.3045 0.45256 0.0
C3577 C 0.89562 0.30474 0.46663 0.0
C3578 C 0.89769 0.31807 0.48019 0.0
C3579 C 0.85307 0.37808 0.51259 0.0
O3580 O 0.88097 0.40852 0.53235 0.0
O3581 O 0.89907 0.38065 0.52672 0.0
O3582 O 0.87321 0.44749 0.4984 0.0
O3583 O 0.85607 0.43657 0.52006 0.0
O3584 O 0.8974 0.42401 0.48436 0.0
O3585 O 0.9035 0.403 0.50327 0.0
O3586 O 0.87293 0.38339 0.47119 0.0
O3587 O 0.85514 0.41092 0.47976 0.0
O3588 O 0.9009 0.34814 0.5041 0.0
O3589 O 0.9121 0.36423 0.48189 0.0
O3590 O 0.86431 0.36254 0.51187 0.0
O3591 O 0.85957 0.38991 0.50182 0.0
H3592 H 0.88102 0.44281 0.54521 0.0
H3593 H 0.89546 0.46481 0.56645 0.0
H3594 H 0.88675 0.51071 0.52849 0.0
H3595 H 0.87169 0.48846 0.50722 0.0
H3596 H 0.94027 0.33832 0.46697 0.0
H3597 H 0.9362 0.31528 0.44275 0.0
H3598 H 0.88233 0.29643 0.46602 0.0
H3599 H 0.88621 0.3194 0.48999 0.0
Ho3600 Ho 0.36138 0.1849 0.24828 0.0
Ho3601 Ho 0.3799 0.20992 0.27474 0.0
C3602 C 0.40805 0.17998 0.25631 0.0
C3603 C 0.3484 0.17114 0.21856 0.0
C3604 C 0.35071 0.15152 0.21143 0.0
C3605 C 0.36267 0.14804 0.19667 0.0
C3606 C 0.36801 0.12932 0.19168 0.0
C3607 C 0.36137 0.11375 0.20131 0.0
C3608 C 0.34856 0.11722 0.21548 0.0
C3609 C 0.34333 0.13592 0.22054 0.0
C3610 C 0.37264 0.16146 0.27619 0.0
C3611 C 0.33591 0.1934 0.28191 0.0
C3612 C 0.39106 0.22917 0.30217 0.0
C3613 C 0.39185 0.22323 0.32079 0.0
C3614 C 0.38177 0.20702 0.32588 0.0
C3615 C 0.38449 0.19967 0.34296 0.0
C3616 C 0.3975 0.20832 0.3552 0.0
C3617 C 0.40759 0.22458 0.35007 0.0
C3618 C 0.40479 0.23197 0.33295 0.0
C3619 C 0.37941 0.22499 0.24089 0.0
O3620 O 0.39385 0.17922 0.2439 0.0
O3621 O 0.40555 0.18947 0.27125 0.0
O3622 O 0.33719 0.17353 0.2324 0.0
O3623 O 0.36493 0.18035 0.22012 0.0
O3624 O 0.36429 0.15576 0.26145 0.0
O3625 O 0.37501 0.17928 0.27513 0.0
O3626 O 0.3519 0.20164 0.28842 0.0
O3627 O 0.33439 0.18904 0.26488 0.0
O3628 O 0.37325 0.23147 0.29471 0.0
O3629 O 0.40346 0.21934 0.29229 0.0
O3630 O 0.39361 0.22567 0.2527 0.0
O3631 O 0.36487 0.21665 0.24792 0.0
H3632 H 0.36858 0.15982 0.18947 0.0
H3633 H 0.37763 0.12703 0.1805 0.0
H3634 H 0.3433 0.1055 0.22317 0.0
H3635 H 0.3342 0.13809 0.23206 0.0
H3636 H 0.37217 0.1997 0.31655 0.0
H3637 H 0.37641 0.18722 0.34655 0.0
H3638 H 0.418 0.23133 0.35915 0.0
H3639 H 0.41311 0.24415 0.32907 0.0
Ho3640 Ho 0.62496 0.63804 0.99441 0.0
Ho3641 Ho 0.60256 0.66424 0.01823 0.0
C3642 C 0.61929 0.6831 0.98136 0.0
C3643 C 0.63812 0.61771 0.96798 0.0
C3644 C 0.65378 0.6203 0.95503 0.0
C3645 C 0.65697 0.63835 0.94783 0.0
C3646 C 0.67338 0.64103 0.93729 0.0
C3647 C 0.68706 0.62577 0.93388 0.0
C3648 C 0.68341 0.60757 0.94058 0.0
C3649 C 0.66692 0.60488 0.95108 0.0
C3650 C 0.64886 0.65305 0.02065 0.0
C3651 C 0.61896 0.62169 0.03294 0.0
C3652 C 0.59346 0.68091 0.04881 0.0
C3653 C 0.60115 0.68183 0.0684 0.0
C3654 C 0.59862 0.66695 0.08075 0.0
C3655 C 0.604 0.6688 0.09919 0.0
C3656 C 0.61198 0.68578 0.10647 0.0
C3657 C 0.61488 0.70045 0.09393 0.0
C3658 C 0.6096 0.69854 0.07552 0.0
C3659 C 0.57783 0.64886 0.99062 0.0
O3660 O 0.62525 0.66525 0.97764 0.0
O3661 O 0.61103 0.68701 0.99717 0.0
O3662 O 0.64454 0.61546 0.98435 0.0
O3663 O 0.62233 0.62919 0.9668 0.0
O3664 O 0.65234 0.63698 1.01255 0.0
O3665 O 0.63431 0.66167 1.0125 0.0
O3666 O 0.61395 0.63974 0.03649 0.0
O3667 O 0.62029 0.61623 1.01609 0.0
O3668 O 0.6034 0.68904 0.03637 0.0
O3669 O 0.58572 0.66516 0.04278 0.0
O3670 O 0.57534 0.66533 0.99875 0.0
O3671 O 0.59225 0.64012 0.99945 0.0
H3672 H 0.64711 0.65052 0.95071 0.0
H3673 H 0.6756 0.65518 0.93211 0.0
H3674 H 0.69376 0.59559 0.93837 0.0
H3675 H 0.66482 0.59089 0.95666 0.0
H3676 H 0.59197 0.65387 0.07626 0.0
H3677 H 0.60122 0.65697 0.10784 0.0
H3678 H 0.62131 0.71369 0.09825 0.0
H3679 H 0.61185 0.71049 0.06683 0.0
Ho3680 Ho 0.69455 0.4137 0.24597 0.0
Ho3681 Ho 0.66384 0.39842 0.26828 0.0
C3682 C 0.6484 0.41114 0.22784 0.0
C3683 C 0.71639 0.42438 0.2205 0.0
C3684 C 0.71122 0.43859 0.20644 0.0
C3685 C 0.69426 0.43666 0.19531 0.0
C3686 C 0.68677 0.452 0.18498 0.0
C3687 C 0.69639 0.4695 0.18523 0.0
C3688 C 0.71409 0.47102 0.19551 0.0
C3689 C 0.72138 0.45575 0.20605 0.0
C3690 C 0.67601 0.4399 0.26707 0.0
C3691 C 0.70962 0.40548 0.28643 0.0
C3692 C 0.63941 0.38952 0.2927 0.0
C3693 C 0.63646 0.39157 0.3119 0.0
C3694 C 0.64663 0.40496 0.32235 0.0
C3695 C 0.6425 0.40715 0.34044 0.0
C3696 C 0.62838 0.39577 0.34832 0.0
C3697 C 0.61859 0.38216 0.33776 0.0
C3698 C 0.6226 0.38011 0.31976 0.0
C3699 C 0.67977 0.37156 0.2465 0.0
O3700 O 0.66773 0.41391 0.22567 0.0
O3701 O 0.64261 0.40618 0.24401 0.0
O3702 O 0.7175 0.43156 0.23651 0.0
O3703 O 0.70697 0.40832 0.22 0.0
O3704 O 0.69465 0.44002 0.26343 0.0
O3705 O 0.66815 0.42676 0.2583 0.0
O3706 O 0.69 0.40421 0.28901 0.0
O3707 O 0.71565 0.40623 0.26972 0.0
O3708 O 0.6543 0.37835 0.28782 0.0
O3709 O 0.63747 0.40509 0.28325 0.0
O3710 O 0.66115 0.37347 0.25022 0.0
O3711 O 0.68981 0.38401 0.25485 0.0
H3712 H 0.68633 0.42355 0.1951 0.0
H3713 H 0.67331 0.45023 0.17696 0.0
H3714 H 0.72175 0.48436 0.19614 0.0
H3715 H 0.7344 0.4577 0.21461 0.0
H3716 H 0.65762 0.41374 0.31652 0.0
H3717 H 0.65045 0.41757 0.34829 0.0
H3718 H 0.60747 0.37334 0.34333 0.0
H3719 H 0.61463 0.36969 0.31189 0.0
Ho3720 Ho 0.11263 0.94218 0.03042 0.0
Ho3721 Ho 0.08835 0.92048 1.00309 0.0
C3722 C 0.11731 0.89656 0.02894 0.0
C3723 C 0.12323 0.9592 0.05932 0.0
C3724 C 0.14022 0.95531 0.07159 0.0
C3725 C 0.14263 0.93749 0.08003 0.0
C3726 C 0.15991 0.93294 0.08987 0.0
C3727 C 0.17511 0.94611 0.09152 0.0
C3728 C 0.17255 0.96409 0.08344 0.0
C3729 C 0.15517 0.96868 0.07355 0.0
C3730 C 0.13803 0.92843 1.00498 0.0
C3731 C 0.1047 0.96293 0.99383 0.0
C3732 C 0.07219 0.90711 0.97441 0.0
C3733 C 0.07872 0.90691 0.95588 0.0
C3734 C 0.09399 0.91862 0.9506 0.0
C3735 C 0.10174 0.91681 0.9336 0.0
C3736 C 0.09439 0.90318 0.92155 0.0
C3737 C 0.07882 0.89173 0.9268 0.0
C3738 C 0.07113 0.89353 0.94383 0.0
C3739 C 0.07084 0.92276 0.03613 0.0
O3740 O 0.11841 0.91198 0.03913 0.0
O3741 O 0.10866 0.89679 1.01295 0.0
O3742 O 0.1277 0.96533 0.04362 0.0
O3743 O 0.1098 0.94619 0.05855 0.0
O3744 O 0.14377 0.9375 0.01923 0.0
O3745 O 0.1195 0.92657 1.00592 0.0
O3746 O 0.09788 0.94651 0.98803 0.0
O3747 O 0.10715 0.96616 1.01103 0.0
O3748 O 0.0669 0.92385 0.98118 0.0
O3749 O 0.08362 0.89674 0.98527 0.0
O3750 O 0.0695 0.9091 0.02458 0.0
O3751 O 0.07991 0.93634 0.02853 0.0
H3752 H 0.13151 0.92673 0.07858 0.0
H3753 H 0.16166 0.91879 0.09562 0.0
H3754 H 0.18407 0.97448 0.08457 0.0
H3755 H 0.15364 0.98243 0.06701 0.0
H3756 H 0.1004 0.92879 0.95972 0.0
H3757 H 0.11389 0.92568 0.93011 0.0
H3758 H 0.07261 0.88126 0.91777 0.0
H3759 H 0.05952 0.88421 0.9477 0.0
Ho3760 Ho 0.37755 0.89762 0.23522 0.0
Ho3761 Ho 0.39384 0.87499 0.20035 0.0
C3762 C 0.42431 0.8981 0.22479 0.0
C3763 C 0.37002 0.91122 0.26676 0.0
C3764 C 0.37549 0.92629 0.27999 0.0
C3765 C 0.38207 0.92087 0.29721 0.0
C3766 C 0.38526 0.93465 0.31055 0.0
C3767 C 0.38199 0.95428 0.30703 0.0
C3768 C 0.37583 0.95972 0.28966 0.0
C3769 C 0.37254 0.94592 0.27634 0.0
C3770 C 0.37233 0.91479 0.20366 0.0
C3771 C 0.34787 0.87423 0.21156 0.0
C3772 C 0.40329 0.86486 0.16823 0.0
C3773 C 0.40085 0.869 0.14891 0.0
C3774 C 0.38226 0.86941 0.13977 0.0
C3775 C 0.38093 0.87406 0.12159 0.0
C3776 C 0.39808 0.87802 0.11218 0.0
C3777 C 0.41664 0.87699 0.1212 0.0
C3778 C 0.41798 0.87263 0.13934 0.0
C3779 C 0.39921 0.85665 0.23128 0.0
O3780 O 0.41021 0.9026 0.2362 0.0
O3781 O 0.42155 0.88865 0.20978 0.0
O3782 O 0.36014 0.91652 0.25225 0.0
O3783 O 0.3831 0.89731 0.26385 0.0
O3784 O 0.36109 0.91901 0.21694 0.0
O3785 O 0.38689 0.90431 0.20861 0.0
O3786 O 0.3604 0.87505 0.1983 0.0
O3787 O 0.35311 0.8781 0.22827 0.0
O3788 O 0.38883 0.85726 0.17679 0.0
O3789 O 0.41257 0.8776 0.17777 0.0
O3790 O 0.40899 0.85205 0.21717 0.0
O3791 O 0.38477 0.86786 0.22722 0.0
H3792 H 0.38438 0.90587 0.30048 0.0
H3793 H 0.39033 0.9299 0.32364 0.0
H3794 H 0.37304 0.97467 0.28645 0.0
H3795 H 0.36733 0.95066 0.26329 0.0
H3796 H 0.36879 0.86659 0.14671 0.0
H3797 H 0.36657 0.87431 0.11475 0.0
H3798 H 0.4301 0.87981 0.11425 0.0
H3799 H 0.43252 0.87218 0.14598 0.0
Ho3800 Ho 0.17871 0.17465 0.798 0.0
Ho3801 Ho 0.15263 0.19645 0.77313 0.0
C3802 C 0.13099 0.17929 0.80884 0.0
C3803 C 0.19751 0.15972 0.82534 0.0
C3804 C 0.19399 0.14154 0.83409 0.0
C3805 C 0.19996 0.1384 0.85187 0.0
C3806 C 0.19537 0.12137 0.86026 0.0
C3807 C 0.18466 0.10739 0.85097 0.0
C3808 C 0.17909 0.11055 0.83305 0.0
C3809 C 0.18357 0.12749 0.82475 0.0
C3810 C 0.16281 0.15265 0.77139 0.0
C3811 C 0.19853 0.18075 0.76032 0.0
C3812 C 0.13471 0.2068 0.74259 0.0
C3813 C 0.13349 0.20258 0.72246 0.0
C3814 C 0.14202 0.18607 0.71419 0.0
C3815 C 0.13961 0.18264 0.69544 0.0
C3816 C 0.12871 0.19566 0.68398 0.0
C3817 C 0.12032 0.21211 0.69252 0.0
C3818 C 0.12267 0.21543 0.7111 0.0
C3819 C 0.16508 0.21915 0.80274 0.0
O3820 O 0.14955 0.17347 0.81332 0.0
O3821 O 0.12771 0.18774 0.79285 0.0
O3822 O 0.20389 0.15819 0.8092 0.0
O3823 O 0.1832 0.17273 0.82661 0.0
O3824 O 0.17994 0.14922 0.77913 0.0
O3825 O 0.15419 0.16622 0.77959 0.0
O3826 O 0.17983 0.18636 0.75579 0.0
O3827 O 0.20292 0.1788 0.77757 0.0
O3828 O 0.15042 0.2149 0.74952 0.0
O3829 O 0.12786 0.19447 0.75366 0.0
O3830 O 0.1486 0.22122 0.79318 0.0
O3831 O 0.17581 0.20642 0.79431 0.0
H3832 H 0.20783 0.14922 0.8593 0.0
H3833 H 0.19971 0.11936 0.87411 0.0
H3834 H 0.17109 0.09995 0.82543 0.0
H3835 H 0.17865 0.12972 0.81106 0.0
H3836 H 0.15066 0.17577 0.72218 0.0
H3837 H 0.1466 0.1698 0.68995 0.0
H3838 H 0.11142 0.22254 0.68492 0.0
H3839 H 0.11569 0.22824 0.71669 0.0
C3840 C 0.05101 0.18374 0.39729 0.0
C3841 C 0.05627 0.18281 0.37939 0.0
H3842 H 0.0308 0.17518 0.41688 0.0
C3843 C 0.04524 0.17165 0.36738 0.0
H3844 H 0.05918 0.19241 0.40677 0.0
C3845 C 0.02896 0.16181 0.37317 0.0
C3846 C 1.02338 0.16326 0.39097 0.0
H3847 H 0.04913 0.17064 0.35353 0.0
H3848 H 1.02059 0.15331 0.3637 0.0
C3849 C 0.03465 0.1741 0.40302 0.0
C3850 C 0.16169 0.83767 0.64055 0.0
C3851 C 0.14793 0.85094 0.64747 0.0
H3852 H 0.17794 0.81157 0.64419 0.0
C3853 C 0.14047 0.84824 0.66452 0.0
H3854 H 0.16774 0.83964 0.62752 0.0
C3855 C 0.14616 0.83176 0.67418 0.0
C3856 C 0.15945 0.81817 0.66682 0.0
H3857 H 0.12968 0.85841 0.66999 0.0
H3858 H 0.13995 0.82949 0.68709 0.0
C3859 C 0.16743 0.82153 0.65014 0.0
C3860 C 0.5009 0.84285 0.86555 0.0
C3861 C 0.49984 0.8574 0.87846 0.0
H3862 H 0.48555 0.82138 0.8508 0.0
C3863 C 0.482 0.86028 0.88757 0.0
H3864 H 0.51424 0.84069 0.85792 0.0
C3865 C 0.46518 0.84971 0.88306 0.0
C3866 C 0.46578 0.83594 0.86927 0.0
H3867 H 0.48057 0.87177 0.89721 0.0
H3868 H 0.45136 0.85331 0.88957 0.0
C3869 C 0.48421 0.83211 0.86117 0.0
C3870 C 0.4481 0.22778 0.16142 0.0
C3871 C 0.44367 0.23889 0.1459 0.0
H3872 H 0.46237 0.20271 0.17377 0.0
C3873 C 0.45168 0.23101 0.13006 0.0
H3874 H 0.44262 0.23285 0.17407 0.0
C3875 C 0.46355 0.21334 0.12998 0.0
C3876 C 0.46787 0.20228 0.14563 0.0
H3877 H 0.44915 0.23867 0.1177 0.0
H3878 H 0.46946 0.20835 0.11748 0.0
C3879 C 0.45962 0.21012 0.1613 0.0
C3880 C 0.06369 0.84243 0.12514 0.0
C3881 C 0.05333 0.85072 0.1397 0.0
H3882 H 0.08664 0.823 0.11522 0.0
C3883 C 0.06034 0.84386 0.15665 0.0
H3884 H 0.05937 0.84682 0.11176 0.0
C3885 C 0.07651 0.82961 0.15868 0.0
C3886 C 0.08678 0.82139 0.14392 0.0
H3887 H 0.05331 0.84946 0.16846 0.0
H3888 H 0.08099 0.82505 0.17197 0.0
C3889 C 0.07973 0.82843 0.12715 0.0
C3890 C 0.47677 0.853 0.3986 0.0
C3891 C 0.48263 0.85833 0.38149 0.0
H3892 H 0.46171 0.83346 0.41502 0.0
C3893 C 0.47736 0.84561 0.36744 0.0
H3894 H 0.48035 0.86197 0.40994 0.0
C3895 C 0.46679 0.8285 0.3705 0.0
C3896 C 0.46076 0.82347 0.38772 0.0
H3897 H 0.48157 0.84876 0.35403 0.0
H3898 H 0.4629 0.81949 0.35928 0.0
C3899 C 0.46603 0.83629 0.40157 0.0
C3900 C 0.46717 0.17388 0.66205 0.0
C3901 C 0.48438 0.17392 0.65208 0.0
H3902 H 0.43593 0.17138 0.66194 0.0
C3903 C 0.48279 0.17389 0.63345 0.0
H3904 H 0.4679 0.17451 0.67645 0.0
C3905 C 0.46419 0.17182 0.62494 0.0
C3906 C 0.44721 0.16984 0.63511 0.0
H3907 H 0.49588 0.17508 0.6256 0.0
H3908 H 0.46297 0.17214 0.61056 0.0
C3909 C 0.4489 0.17143 0.65372 0.0
C3910 C 0.13022 0.26432 0.89174 0.0
C3911 C 0.13851 0.2764 0.90462 0.0
H3912 H 0.11664 0.23779 0.8866 0.0
C3913 C 0.14004 0.27084 0.92243 0.0
H3914 H 0.12906 0.26839 0.87786 0.0
C3915 C 0.13369 0.25307 0.92734 0.0
C3916 C 0.12527 0.24098 0.91449 0.0
H3917 H 0.1463 0.28017 0.93251 0.0
H3918 H 0.13505 0.2489 0.94117 0.0
C3919 C 0.12359 0.24669 0.89666 0.0
C3920 C 0.36197 0.06041 0.19199 0.0
C3921 C 0.38198 0.05673 0.18784 0.0
H3922 H 0.33957 0.08156 0.19897 0.0
C3923 C 0.39542 0.07158 0.18933 0.0
H3924 H 0.35132 0.0492 0.19081 0.0
C3925 C 0.38872 0.09006 0.19381 0.0
C3926 C 0.36849 0.09399 0.19711 0.0
H3927 H 0.41097 0.06915 0.18623 0.0
H3928 H 0.39934 0.10132 0.19454 0.0
C3929 C 0.35525 0.07892 0.19654 0.0
C3930 C 0.22604 0.14544 0.43115 0.0
C3931 C 0.21506 0.12942 0.4264 0.0
H3932 H 0.25061 0.16262 0.42563 0.0
C3933 C 0.22123 0.11799 0.41193 0.0
H3934 H 0.22151 0.15478 0.44196 0.0
C3935 C 0.23809 0.12254 0.40248 0.0
C3936 C 0.24887 0.13867 0.40728 0.0
H3937 H 0.21308 0.10552 0.40797 0.0
H3938 H 0.24244 0.1137 0.39127 0.0
C3939 C 0.24271 0.14998 0.42173 0.0
C3940 C 0.19379 0.99402 0.66623 0.0
C3941 C 0.18143 0.98234 0.67589 0.0
H3942 H 0.19586 1.0194 0.6506 0.0
C3943 C 0.16103 0.98752 0.67676 0.0
H3944 H 0.2095 0.99029 0.6651 0.0
C3945 C 0.15329 1.00418 0.66853 0.0
C3946 C 0.16571 1.01597 0.65916 0.0
H3947 H 0.15113 0.97898 0.68423 0.0
H3948 H 0.13755 1.00786 0.66957 0.0
C3949 C 0.186 1.01065 0.65791 0.0
C3950 C 0.33308 0.91613 0.94371 0.0
C3951 C 0.34318 0.89926 0.94993 0.0
H3952 H 0.31069 0.92875 0.9258 0.0
C3953 C 0.33876 0.88192 0.94145 0.0
H3954 H 0.33602 0.92977 0.94996 0.0
C3955 C 0.32389 0.88134 0.92789 0.0
C3956 C 0.31336 0.89811 0.92207 0.0
H3957 H 0.34599 0.86864 0.94596 0.0
H3958 H 0.32024 0.86759 0.92223 0.0
C3959 C 0.31856 0.91561 0.92982 0.0
C3960 C 0.39855 0.99937 0.33122 0.0
C3961 C 0.3925 0.99643 0.3487 0.0
H3962 H 0.3999 0.9887 0.3045 0.0
C3963 C 0.38228 0.97981 0.35228 0.0
H3964 H 0.40652 1.012 0.328 0.0
C3965 C 0.37883 0.96615 0.33884 0.0
C3966 C 0.38511 0.969 0.32136 0.0
H3967 H 0.37765 0.97698 0.36556 0.0
H3968 H 0.37125 0.95332 0.34215 0.0
C3969 C 0.39472 0.98599 0.31771 0.0
C3970 C 0.30471 0.11812 0.63518 0.0
C3971 C 0.29622 0.13629 0.63111 0.0
H3972 H 0.32536 0.09565 0.62751 0.0
C3973 C 0.30302 0.14639 0.6166 0.0
H3974 H 0.29965 0.11005 0.6463 0.0
C3975 C 0.31803 0.13836 0.6062 0.0
C3976 C 0.326 0.11993 0.60992 0.0
H3977 H 0.29654 0.16033 0.61312 0.0
H3978 H 0.32285 0.14621 0.59483 0.0
C3979 C 0.31936 0.1099 0.62451 0.0
C3980 C 0.1915 0.07931 0.87142 0.0
C3981 C 0.17843 0.08987 0.85989 0.0
H3982 H 0.1958 0.05426 0.88773 0.0
C3983 C 0.15917 0.08338 0.85651 0.0
H3984 H 0.20644 0.084 0.87427 0.0
C3985 C 0.15327 0.06648 0.86397 0.0
C3986 C 0.16639 0.05567 0.87513 0.0
H3987 H 0.14856 0.09143 0.84808 0.0
H3988 H 0.13829 0.06194 0.86102 0.0
C3989 C 0.18552 0.06227 0.87898 0.0
C3990 C 0.21103 0.92116 0.12351 0.0
C3991 C 0.22922 0.92433 0.11571 0.0
H3992 H 0.1796 0.92662 0.12254 0.0
C3993 C 0.22994 0.93598 0.10074 0.0
H3994 H 0.21023 0.91181 0.1348 0.0
C3995 C 0.21231 0.94396 0.09324 0.0
C3996 C 0.19393 0.94037 0.10081 0.0
H3997 H 0.24398 0.93829 0.0945 0.0
H3998 H 0.21298 0.95211 0.0811 0.0
C3999 C 0.19354 0.92942 0.11634 0.0
C4000 C 0.20894 0.38739 0.04796 0.0
C4001 C 0.20873 0.40731 0.0462 0.0
H4002 H 0.20949 0.36377 0.06585 0.0
C4003 C 0.21065 0.41897 0.06128 0.0
H4004 H 0.20727 0.37824 0.03637 0.0
C4005 C 0.21192 0.41078 0.07805 0.0
C4006 C 0.21124 0.39084 0.07997 0.0
H4007 H 0.2103 0.43441 0.06019 0.0
H4008 H 0.21347 0.42012 0.0895 0.0
C4009 C 0.21004 0.37917 0.06476 0.0
C4010 C 0.71293 0.18269 0.97549 0.0
C4011 C 0.71954 0.16474 0.96917 0.0
H4012 H 0.70354 0.1994 0.99738 0.0
C4013 C 0.72363 0.14977 0.98133 0.0
H4014 H 0.71066 0.19488 0.96676 0.0
C4015 C 0.72017 0.15268 0.99942 0.0
C4016 C 0.71211 0.17029 1.00526 0.0
H4017 H 0.72925 0.13588 0.9769 0.0
H4018 H 0.72323 0.14117 1.00872 0.0
C4019 C 0.70933 0.18544 0.99325 0.0
C4020 C 0.17985 0.43734 0.23017 0.0
C4021 C 0.16796 0.43092 0.21571 0.0
H4022 H 0.19583 0.43039 0.2546 0.0
C4023 C 0.16322 0.4114 0.2155 0.0
H4024 H 0.18417 0.45208 0.2309 0.0
C4025 C 0.17003 0.39888 0.22922 0.0
C4026 C 0.18194 0.40537 0.24355 0.0
H4027 H 0.15389 0.40579 0.20488 0.0
H4028 H 0.16575 0.38414 0.2287 0.0
C4029 C 0.18669 0.42481 0.24381 0.0
C4030 C 0.88042 0.90985 0.48699 0.0
C4031 C 0.89018 0.89436 0.49595 0.0
H4032 H 0.86485 0.92033 0.46365 0.0
C4033 C 0.89142 0.87665 0.48694 0.0
H4034 H 0.87912 0.92378 0.49332 0.0
C4035 C 0.883 0.87462 0.46952 0.0
C4036 C 0.87339 0.89031 0.46054 0.0
H4037 H 0.89882 0.86438 0.49332 0.0
H4038 H 0.88439 0.86083 0.46296 0.0
C4039 C 0.8723 0.90791 0.46972 0.0
C4040 C 0.87556 0.10392 0.23288 0.0
C4041 C 0.88949 0.10687 0.24675 0.0
H4042 H 0.87082 0.09723 0.20544 0.0
C4043 C 0.90992 0.10504 0.24346 0.0
H4044 H 0.85971 0.1057 0.23497 0.0
C4045 C 0.91634 0.09994 0.22654 0.0
C4046 C 0.90236 0.09676 0.21268 0.0
H4047 H 0.92087 0.10745 0.25401 0.0
H4048 H 0.93217 0.09806 0.22441 0.0
C4049 C 0.88193 0.09915 0.21596 0.0
C4050 C 0.4031 0.64222 0.55597 0.0
C4051 C 0.40273 0.62361 0.54879 0.0
H4052 H 0.39076 0.66254 0.57454 0.0
C4053 C 0.38902 0.611 0.55556 0.0
H4054 H 0.41356 0.65227 0.5512 0.0
C4055 C 0.37583 0.61687 0.5689 0.0
C4056 C 0.37588 0.6356 0.57595 0.0
H4057 H 0.38836 0.59653 0.55044 0.0
H4058 H 0.36528 0.60677 0.57339 0.0
C4059 C 0.38987 0.64813 0.56932 0.0
C4060 C 0.19228 0.61005 0.3503 0.0
C4061 C 0.19125 0.62966 0.34687 0.0
H4062 H 0.18277 0.58831 0.3675 0.0
C4063 C 0.18662 0.64259 0.36063 0.0
H4064 H 0.19578 0.59984 0.33984 0.0
C4065 C 0.18005 0.63595 0.37672 0.0
C4066 C 0.17727 0.61656 0.37877 0.0
H4067 H 0.18588 0.6578 0.35847 0.0
H4068 H 0.1744 0.64587 0.3865 0.0
C4069 C 0.18505 0.60347 0.36622 0.0
C4070 C 0.41857 0.40854 0.80047 0.0
C4071 C 0.40416 0.4177 0.81126 0.0
H4072 H 0.42473 0.39427 0.77566 0.0
C4073 C 0.38436 0.4192 0.8046 0.0
H4074 H 0.43391 0.40682 0.80517 0.0
C4075 C 0.37918 0.41202 0.78771 0.0
C4076 C 0.39356 0.40295 0.77695 0.0
H4077 H 0.37284 0.42631 0.81228 0.0
H4078 H 0.36378 0.41353 0.7831 0.0
C4079 C 0.41331 0.4012 0.78358 0.0
C4080 C 1.01839 0.87445 0.63024 0.0
C4081 C 0.02969 0.88532 0.64224 0.0
H4082 H 0.99384 0.85615 0.62658 0.0
C4083 C 1.02418 0.88679 0.66006 0.0
H4084 H 1.02221 0.87335 0.61637 0.0
C4085 C 1.00791 0.87698 0.6659 0.0
C4086 C 0.99683 0.86581 0.65394 0.0
H4087 H 0.03256 0.89531 0.66949 0.0
H4088 H 1.00406 0.87801 0.67976 0.0
C4089 C 1.00204 0.86483 0.63602 0.0
C4090 C 0.90651 0.21647 0.35922 0.0
C4091 C 0.89237 0.22954 0.36614 0.0
H4092 H 0.92366 0.1903 0.36379 0.0
C4093 C 0.8835 0.22562 0.38232 0.0
H4094 H 0.91343 0.2192 0.34671 0.0
C4095 C 0.88923 0.20945 0.39191 0.0
C4096 C 0.90385 0.19677 0.38547 0.0
H4097 H 0.87236 0.23522 0.38791 0.0
H4098 H 0.88255 0.20707 0.40461 0.0
C4099 C 0.91219 0.20001 0.36887 0.0
C4100 C 0.56759 0.18868 0.14793 0.0
C4101 C 0.54924 0.19478 0.15505 0.0
H4102 H 0.59918 0.19175 0.14782 0.0
C4103 C 0.54895 0.21087 0.16635 0.0
H4104 H 0.56844 0.17638 0.13915 0.0
C4105 C 0.56659 0.22007 0.17104 0.0
C4106 C 0.58523 0.2133 0.16485 0.0
H4107 H 0.53512 0.21604 0.17205 0.0
H4108 H 0.56553 0.23236 0.1798 0.0
C4109 C 0.58532 0.19766 0.15288 0.0
C4110 C 0.59021 0.83618 0.90231 0.0
C4111 C 0.58412 0.84632 0.88651 0.0
H4112 H 0.60608 0.81164 0.91462 0.0
C4113 C 0.59068 0.83761 0.87058 0.0
H4114 H 0.58568 0.84187 0.91504 0.0
C4115 C 0.60232 0.82002 0.87037 0.0
C4116 C 0.60848 0.80981 0.88605 0.0
H4117 H 0.58657 0.8443 0.858 0.0
H4118 H 0.60651 0.81429 0.85756 0.0
C4119 C 0.60212 0.81854 0.90212 0.0
C4120 C 0.97634 0.21911 0.87377 0.0
C4121 C 0.96608 0.22722 0.88858 0.0
H4122 H 0.99918 0.19897 0.86385 0.0
C4123 C 0.97269 0.21962 0.90526 0.0
H4124 H 0.97218 0.22409 0.86054 0.0
C4125 C 0.98828 0.20515 0.90716 0.0
C4126 C 0.99863 0.19697 0.89256 0.0
H4127 H 0.96574 0.22494 0.91722 0.0
H4128 H 0.99228 0.20032 0.92047 0.0
C4129 C 0.9921 0.20443 0.87569 0.0
C4130 C 0.5845 0.22173 0.66008 0.0
C4131 C 0.59152 0.22607 0.64306 0.0
H4132 H 0.56889 0.20219 0.67651 0.0
C4133 C 0.58695 0.21268 0.6294 0.0
H4134 H 0.58775 0.23116 0.67116 0.0
C4135 C 0.57596 0.19604 0.63241 0.0
C4136 C 0.56923 0.19141 0.64941 0.0
H4137 H 0.59203 0.215 0.61609 0.0
H4138 H 0.57298 0.18658 0.62129 0.0
C4139 C 0.57376 0.20477 0.66318 0.0
C4140 C 0.58285 0.8738 0.40422 0.0
C4141 C 0.60032 0.87679 0.39509 0.0
H4142 H 0.55133 0.87038 0.40184 0.0
C4143 C 0.59982 0.87621 0.37637 0.0
H4144 H 0.58317 0.87276 0.41858 0.0
C4145 C 0.582 0.87444 0.36696 0.0
C4146 C 0.56428 0.87362 0.37608 0.0
H4147 H 0.61329 0.87699 0.36889 0.0
H4148 H 0.58198 0.87507 0.35258 0.0
C4149 C 0.56486 0.87208 0.39469 0.0
C4150 C 0.92382 0.76446 0.11522 0.0
C4151 C 0.92288 0.75883 0.13299 0.0
H4152 H 0.93285 0.78578 0.09726 0.0
C4153 C 0.93267 0.76923 0.14637 0.0
H4154 H 0.91633 0.75656 0.10473 0.0
C4155 C 0.94223 0.78581 0.14212 0.0
C4156 C 0.94213 0.79213 0.12445 0.0
H4157 H 0.9321 0.7651 0.16019 0.0
H4158 H 0.94928 0.79394 0.1527 0.0
C4159 C 0.93327 0.78111 0.11097 0.0
C4160 C 0.68449 0.97289 0.86152 0.0
C4161 C 0.67743 0.98704 0.84968 0.0
H4162 H 0.69608 0.94446 0.86525 0.0
C4163 C 0.67579 0.9827 0.83151 0.0
H4164 H 0.6846 0.97538 0.87551 0.0
C4165 C 0.68158 0.96443 0.82539 0.0
C4166 C 0.6889 0.95034 0.83747 0.0
H4167 H 0.66994 0.99335 0.82215 0.0
H4168 H 0.67987 0.96121 0.81135 0.0
C4169 C 0.69047 0.95488 0.85557 0.0
C4170 C 0.81493 0.92776 0.63122 0.0
C4171 C 0.80468 0.91106 0.62733 0.0
H4172 H 0.83944 0.94504 0.62482 0.0
C4173 C 0.81153 0.89879 0.6138 0.0
H4174 H 0.81006 0.93733 0.64175 0.0
C4175 C 0.82826 0.90301 0.60434 0.0
C4176 C 0.83859 0.91971 0.60805 0.0
H4177 H 0.80411 0.88566 0.61064 0.0
H4178 H 0.8333 0.89294 0.59427 0.0
C4179 C 0.83181 0.93204 0.62166 0.0
C4180 C 0.86753 0.03864 0.37477 0.0
C4181 C 0.88803 0.03398 0.37431 0.0
H4182 H 0.8437 0.05829 0.36679 0.0
C4183 C 0.90045 0.04617 0.36537 0.0
H4184 H 0.85765 0.02955 0.38168 0.0
C4185 C 0.89252 0.06259 0.35686 0.0
C4186 C 0.87194 0.06716 0.35701 0.0
H4187 H 0.91633 0.04298 0.36489 0.0
H4188 H 0.90247 0.07145 0.34977 0.0
C4189 C 0.85956 0.05505 0.36619 0.0
C4190 C 0.71423 0.16672 0.09097 0.0
C4191 C 0.71038 0.14953 0.08197 0.0
H4192 H 0.73211 0.18092 0.11077 0.0
C4193 C 0.72085 0.13271 0.08782 0.0
H4194 H 0.7067 0.17997 0.08677 0.0
C4195 C 0.73515 0.13316 0.10192 0.0
C4196 C 0.73977 0.15055 0.11021 0.0
H4197 H 0.71835 0.1192 0.08117 0.0
H4198 H 0.74332 0.12008 0.10566 0.0
C4199 C 0.72889 0.16725 0.10471 0.0
C4200 C 0.68033 0.07894 0.69703 0.0
C4201 C 0.6669 0.08358 0.71067 0.0
H4202 H 0.68679 0.06142 0.67407 0.0
C4203 C 0.64908 0.07369 0.71096 0.0
H4204 H 0.69431 0.08606 0.6964 0.0
C4205 C 0.64478 0.05974 0.6981 0.0
C4206 C 0.65817 0.05503 0.68456 0.0
H4207 H 0.63819 0.07695 0.72098 0.0
H4208 H 0.63079 0.05261 0.69879 0.0
C4209 C 0.67607 0.06476 0.6842 0.0
C4210 C 0.74901 0.90235 0.41472 0.0
C4211 C 0.7569 0.91281 0.40095 0.0
H4212 H 0.7291 0.90284 0.43645 0.0
C4213 C 0.74969 0.93157 0.39758 0.0
H4214 H 0.7543 0.88779 0.4174 0.0
C4215 C 0.73554 0.94018 0.40848 0.0
C4216 C 0.72817 0.93 0.42265 0.0
H4217 H 0.75555 0.93986 0.38696 0.0
H4218 H 0.73074 0.95495 0.40616 0.0
C4219 C 0.73456 0.91087 0.42545 0.0
C4220 C 0.89945 0.97996 0.16609 0.0
C4221 C 0.88555 0.99165 0.15651 0.0
H4222 H 0.90497 0.95427 0.18075 0.0
C4223 C 0.86589 0.98583 0.15418 0.0
H4224 H 0.91483 0.98389 0.1678 0.0
C4225 C 0.86015 0.9687 0.16177 0.0
C4226 C 0.87403 0.95729 0.17177 0.0
H4227 H 0.85499 0.99455 0.14666 0.0
H4228 H 0.84481 0.96463 0.16018 0.0
C4229 C 0.8938 0.96297 0.17354 0.0
C4230 C 0.84982 0.1302 0.94293 0.0
C4231 C 0.85667 0.11213 0.93699 0.0
H4232 H 0.82753 0.15265 0.94028 0.0
C4233 C 0.84509 0.10184 0.92476 0.0
H4234 H 0.85835 0.13817 0.9527 0.0
C4235 C 0.82733 0.11004 0.91782 0.0
C4236 C 0.82114 0.12859 0.92302 0.0
H4237 H 0.85013 0.08783 0.92011 0.0
H4238 H 0.81889 0.10222 0.90788 0.0
C4239 C 0.83216 0.13839 0.93597 0.0
C4240 C 0.83962 0.62781 0.97274 0.0
C4241 C 0.8449 0.63979 0.98692 0.0
H4242 H 0.83404 0.62537 0.94487 0.0
C4243 C 0.84777 0.65918 0.98389 0.0
H4244 H 0.83726 0.61276 0.97481 0.0
C4245 C 0.84718 0.66622 0.96664 0.0
C4246 C 0.84271 0.65413 0.95221 0.0
H4247 H 0.85154 0.66869 0.9948 0.0
H4248 H 0.85077 0.68099 0.96469 0.0
C4249 C 0.83834 0.63496 0.95553 0.0
C4250 C 0.32949 0.89953 0.02964 0.0
C4251 C 0.34191 0.88315 0.0274 0.0
H4252 H 0.31283 0.91677 0.04824 0.0
C4253 C 0.34796 0.87203 0.04218 0.0
H4254 H 0.32472 0.90823 0.01833 0.0
C4255 C 0.34214 0.87735 0.05895 0.0
C4256 C 0.32955 0.89349 0.06128 0.0
H4257 H 0.3577 0.85941 0.04094 0.0
H4258 H 0.3468 0.86829 0.07007 0.0
C4259 C 0.32306 0.90457 0.0466 0.0
C4260 C 0.87265 0.61213 0.80331 0.0
C4261 C 0.88417 0.61879 0.8179 0.0
H4262 H 0.85695 0.61876 0.7787 0.0
C4263 C 0.88842 0.63843 0.81822 0.0
H4264 H 0.86869 0.59729 0.80251 0.0
C4265 C 0.88155 0.65083 0.80444 0.0
C4266 C 0.87007 0.64407 0.78994 0.0
H4267 H 0.89743 0.64423 0.82897 0.0
H4268 H 0.88541 0.6657 0.80505 0.0
C4269 C 0.86576 0.62453 0.78961 0.0
C4270 C 0.17826 0.14299 0.54386 0.0
C4271 C 0.16356 0.156 0.53685 0.0
H4272 H 0.19774 0.1347 0.56569 0.0
C4273 C 0.15775 0.17167 0.54762 0.0
H4274 H 0.18307 0.1306 0.53617 0.0
C4275 C 0.16632 0.17409 0.56489 0.0
C4276 C 0.18112 0.161 0.57187 0.0
H4277 H 0.14652 0.18199 0.54277 0.0
H4278 H 0.16142 0.18633 0.57272 0.0
C4279 C 0.18685 0.14542 0.56093 0.0
C4280 C 0.1417 0.94119 0.78935 0.0
C4281 C 0.16201 0.94239 0.78599 0.0
H4282 H 0.11896 0.94364 0.80853 0.0
C4283 C 0.17507 0.94856 0.79954 0.0
H4284 H 0.13136 0.9366 0.77902 0.0
C4285 C 0.16795 0.95304 0.81634 0.0
C4286 C 0.14766 0.95131 0.81994 0.0
H4287 H 0.19085 0.94951 0.79728 0.0
H4288 H 0.17837 0.95799 0.82644 0.0
C4289 C 0.13461 0.94538 0.80621 0.0
C4290 C 0.66228 0.42192 0.45595 0.0
C4291 C 0.67912 0.40944 0.45875 0.0
H4292 H 0.63665 0.43636 0.4671 0.0
C4293 C 0.68192 0.40134 0.47584 0.0
H4294 H 0.65959 0.42883 0.44323 0.0
C4295 C 0.66859 0.4057 0.48955 0.0
C4296 C 0.65186 0.41818 0.4867 0.0
H4297 H 0.69435 0.39142 0.47867 0.0
H4298 H 0.67139 0.39924 0.50248 0.0
C4299 C 0.64893 0.42622 0.46968 0.0
C4300 C 0.87072 0.44581 0.66727 0.0
C4301 C 0.87782 0.43263 0.65449 0.0
H4302 H 0.8596 0.44943 0.6935 0.0
C4303 C 0.87411 0.41336 0.65613 0.0
H4304 H 0.87375 0.46086 0.66625 0.0
C4305 C 0.86645 0.40681 0.67183 0.0
C4306 C 0.86231 0.41966 0.68576 0.0
H4307 H 0.87948 0.40337 0.64627 0.0
H4308 H 0.86595 0.39159 0.67377 0.0
C4309 C 0.86267 0.43932 0.68286 0.0
C4310 C 0.6683 0.6317 0.22741 0.0
C4311 C 0.64829 0.63241 0.22125 0.0
H4312 H 0.68926 0.63823 0.24839 0.0
C4313 C 0.63389 0.64101 0.23239 0.0
H4314 H 0.67983 0.62504 0.21944 0.0
C4315 C 0.63936 0.64865 0.24913 0.0
C4316 C 0.65933 0.64769 0.25525 0.0
H4317 H 0.61838 0.6421 0.22808 0.0
H4318 H 0.62795 0.65519 0.25731 0.0
C4319 C 0.67369 0.63912 0.24416 0.0
C4320 C 0.52423 0.67552 0.90586 0.0
C4321 C 0.51363 0.66378 0.89409 0.0
H4322 H 0.5484 0.69432 0.90931 0.0
C4323 C 0.51971 0.66156 0.87649 0.0
H4324 H 0.51991 0.67725 0.91956 0.0
C4325 C 0.53603 0.67122 0.87066 0.0
C4326 C 0.54653 0.68309 0.88241 0.0
H4327 H 0.51185 0.65241 0.86723 0.0
H4328 H 0.54048 0.6694 0.85701 0.0
C4329 C 0.54061 0.68508 0.90008 0.0
C4330 C 0.65078 0.35549 0.15896 0.0
C4331 C 0.65939 0.35849 0.14241 0.0
H4332 H 0.64829 0.33624 0.1809 0.0
C4333 C 0.67339 0.34513 0.13595 0.0
H4334 H 0.63975 0.36564 0.16408 0.0
C4335 C 0.67807 0.32857 0.14538 0.0
C4336 C 0.66884 0.32497 0.16147 0.0
H4337 H 0.68031 0.34725 0.12331 0.0
H4338 H 0.68859 0.31838 0.13971 0.0
C4339 C 0.65544 0.33869 0.16845 0.0
C4340 C 0.99009 0.33638 0.35838 0.0
C4341 C 0.97154 0.34021 0.36622 0.0
H4342 H 1.02031 0.3447 0.35596 0.0
C4343 C 0.97075 0.35347 0.3804 0.0
H4344 H 0.99148 0.32603 0.34768 0.0
C4345 C 0.98759 0.36371 0.38552 0.0
C4346 C 1.0056 0.36092 0.37666 0.0
H4347 H 0.95679 0.35699 0.38671 0.0
H4348 H 0.98601 0.37501 0.39535 0.0
C4349 C 1.00683 0.34672 0.36343 0.0
C4350 C 0.95588 0.70767 0.6629 0.0
C4351 C 0.96296 0.69913 0.64707 0.0
H4352 H 0.93943 0.73074 0.67575 0.0
C4353 C 0.95714 0.70938 0.63124 0.0
H4354 H 0.95973 0.70091 0.67551 0.0
C4355 C 0.94505 0.72693 0.63131 0.0
C4356 C 0.93815 0.73549 0.64728 0.0
H4357 H 0.96204 0.70384 0.61857 0.0
H4358 H 0.94134 0.73389 0.61878 0.0
C4359 C 0.94402 0.72517 0.66299 0.0
C4360 C 0.55592 0.34301 0.65303 0.0
C4361 C 0.54971 0.35019 0.63598 0.0
H4362 H 0.57545 0.32351 0.66871 0.0
C4363 C 0.56022 0.34168 0.62162 0.0
H4364 H 0.54867 0.34872 0.66468 0.0
C4365 C 0.5757 0.32718 0.62393 0.0
C4366 C 0.582 0.31987 0.64081 0.0
H4367 H 0.55644 0.34628 0.60819 0.0
H4368 H 0.58281 0.32158 0.61215 0.0
C4369 C 0.57154 0.32828 0.65536 0.0
C4370 C 0.96151 0.33342 0.90137 0.0
C4371 C 0.956 0.32082 0.88739 0.0
H4372 H 0.97612 0.35889 0.91002 0.0
C4373 C 0.96192 0.32616 0.87021 0.0
H4374 H 0.9573 0.33039 0.91482 0.0
C4375 C 0.97261 0.34327 0.86732 0.0
C4376 C 0.97813 0.35576 0.88149 0.0
H4377 H 0.95789 0.31737 0.85887 0.0
H4378 H 0.9767 0.34661 0.85392 0.0
C4379 C 0.97237 0.35014 0.89857 0.0
C4380 C 0.9623 0.68015 0.13772 0.0
C4381 C 0.95219 0.68926 0.1517 0.0
H4382 H 0.99085 0.67086 0.12841 0.0
C4383 C 0.96259 0.70156 0.16316 0.0
H4384 H 0.95459 0.67125 0.12817 0.0
C4385 C 0.98325 0.70097 0.16344 0.0
C4386 C 0.99334 0.68825 0.15215 0.0
H4387 H 0.95496 0.70983 0.1733 0.0
H4388 H 0.99112 0.70786 0.17435 0.0
C4389 C 0.98306 0.68011 0.13771 0.0
C4390 C 0.63766 0.75624 0.42976 0.0
C4391 C 0.62937 0.74348 0.41745 0.0
H4392 H 0.6497 0.78376 0.43387 0.0
C4393 C 0.62746 0.74843 0.39941 0.0
H4394 H 0.63923 0.75267 0.44373 0.0
C4395 C 0.63364 0.76601 0.3938 0.0
C4396 C 0.64169 0.77878 0.40618 0.0
H4397 H 0.62062 0.739 0.38974 0.0
H4398 H 0.6323 0.76951 0.3798 0.0
C4399 C 0.64352 0.77394 0.42417 0.0
C4400 C 0.87898 0.58659 0.69539 0.0
C4401 C 0.85847 0.59028 0.69754 0.0
H4402 H 0.90196 0.56612 0.68839 0.0
C4403 C 0.84543 0.57512 0.69571 0.0
H4404 H 0.88945 0.5979 0.69711 0.0
C4405 C 0.85266 0.55683 0.69099 0.0
C4406 C 0.873 0.55344 0.68795 0.0
H4407 H 0.82954 0.57755 0.69719 0.0
H4408 H 0.8422 0.54558 0.6888 0.0
C4409 C 0.88619 0.56833 0.69069 0.0
C4410 C 0.73395 0.64925 0.92025 0.0
C4411 C 0.74161 0.63638 0.90754 0.0
H4412 H 0.71101 0.65591 0.93854 0.0
C4413 C 0.73142 0.61966 0.90361 0.0
H4414 H 0.74147 0.66227 0.92359 0.0
C4415 C 0.71359 0.61613 0.91207 0.0
C4416 C 0.70578 0.62924 0.9246 0.0
H4417 H 0.73696 0.60958 0.89378 0.0
H4418 H 0.70575 0.60333 0.90859 0.0
C4419 C 0.71631 0.64573 0.92868 0.0
C4420 C 0.69075 0.5156 0.15872 0.0
C4421 C 0.67026 0.52 0.15998 0.0
H4422 H 0.71507 0.49598 0.16551 0.0
C4423 C 0.65834 0.50737 0.16892 0.0
H4424 H 0.70023 0.52503 0.15174 0.0
C4425 C 0.66676 0.49075 0.1767 0.0
C4426 C 0.68734 0.48647 0.1758 0.0
H4427 H 0.64247 0.51036 0.16996 0.0
H4428 H 0.65722 0.48152 0.18383 0.0
C4429 C 0.69922 0.49901 0.16661 0.0
C4430 C 0.8416 0.38126 0.44196 0.0
C4431 C 0.84674 0.39809 0.45093 0.0
H4432 H 0.823 0.36843 0.42186 0.0
C4433 C 0.83782 0.4156 0.44483 0.0
H4434 H 0.84793 0.36754 0.44632 0.0
C4435 C 0.82374 0.41619 0.43056 0.0
C4436 C 0.81785 0.39922 0.42225 0.0
H4437 H 0.84137 0.4289 0.45142 0.0
H4438 H 0.81679 0.4298 0.42664 0.0
C4439 C 0.82721 0.38181 0.42796 0.0
C4440 C 0.86697 0.4677 0.83752 0.0
C4441 C 0.87905 0.46532 0.82253 0.0
H4442 H 0.86169 0.48295 0.86202 0.0
C4443 C 0.89559 0.47688 0.82132 0.0
H4444 H 0.85399 0.45917 0.83885 0.0
C4445 C 0.90012 0.49015 0.83468 0.0
C4446 C 0.88815 0.49258 0.84964 0.0
H4447 H 0.90537 0.4754 0.81016 0.0
H4448 H 0.91318 0.49855 0.83324 0.0
C4449 C 0.87135 0.48134 0.85082 0.0
C4450 C 0.81952 0.64224 0.10673 0.0
C4451 C 0.82559 0.62318 0.1104 0.0
H4452 H 0.80007 0.66601 0.11374 0.0
C4453 C 0.81801 0.61387 0.12496 0.0
H4454 H 0.82522 0.64957 0.09542 0.0
C4455 C 0.80397 0.62325 0.13543 0.0
C4456 C 0.79703 0.64192 0.13124 0.0
H4457 H 0.82256 0.59918 0.12793 0.0
H4458 H 0.798 0.61557 0.14639 0.0
C4459 C 0.80512 0.65153 0.11704 0.0
C4460 C 0.69817 0.58588 0.37621 0.0
C4461 C 0.68444 0.5985 0.36732 0.0
H4462 H 0.70303 0.55848 0.38878 0.0
C4463 C 0.66466 0.5931 0.36477 0.0
H4464 H 0.71349 0.58975 0.37848 0.0
C4465 C 0.65882 0.57536 0.37049 0.0
C4466 C 0.67257 0.56257 0.37896 0.0
H4467 H 0.65376 0.6023 0.35776 0.0
H4468 H 0.64346 0.57163 0.36812 0.0
C4469 C 0.69224 0.56804 0.38207 0.0
C4470 C 0.69849 0.4463 0.61584 0.0
C4471 C 0.68523 0.43659 0.60456 0.0
H4472 H 0.72712 0.44565 0.62909 0.0
C4473 C 0.69053 0.41805 0.59856 0.0
H4474 H 0.69477 0.46059 0.62063 0.0
C4475 C 0.70887 0.40955 0.60344 0.0
C4476 C 0.72226 0.41945 0.61433 0.0
H4477 H 0.68091 0.41038 0.58944 0.0
H4478 H 0.71261 0.39528 0.59857 0.0
C4479 C 0.71699 0.43784 0.62055 0.0
C4480 C 0.70168 0.88342 0.56955 0.0
C4481 C 0.69947 0.89673 0.58343 0.0
H4482 H 0.70413 0.8795 0.5414 0.0
C4483 C 0.6975 0.91634 0.57966 0.0
H4484 H 0.70353 0.86825 0.57222 0.0
C4485 C 0.6997 0.92269 0.56253 0.0
C4486 C 0.70201 0.90949 0.54866 0.0
H4487 H 0.69562 0.92685 0.5902 0.0
H4488 H 0.69898 0.93795 0.56012 0.0
C4489 C 0.70273 0.88983 0.55213 0.0
C4490 C 0.2247 0.63466 0.48287 0.0
C4491 C 0.2204 0.64511 0.46724 0.0
H4492 H 0.22286 0.6344 0.51136 0.0
C4493 C 0.21014 0.6629 0.46821 0.0
H4494 H 0.23326 0.62122 0.48241 0.0
C4495 C 0.20516 0.67057 0.48439 0.0
C4496 C 0.20946 0.66035 0.50007 0.0
H4497 H 0.2072 0.67171 0.45656 0.0
H4498 H 0.19765 0.68457 0.48446 0.0
C4499 C 0.21915 0.64228 0.4993 0.0
C4500 C 0.6789 0.91818 0.74186 0.0
C4501 C 0.67421 0.89875 0.74085 0.0
H4502 H 0.67668 0.94588 0.72983 0.0
C4503 C 0.6628 0.89271 0.72603 0.0
H4504 H 0.68767 0.92341 0.75304 0.0
C4505 C 0.65628 0.90572 0.71261 0.0
C4506 C 0.66089 0.92526 0.71363 0.0
H4507 H 0.65862 0.87796 0.72491 0.0
H4508 H 0.64724 0.90048 0.70162 0.0
C4509 C 0.67242 0.93117 0.72851 0.0
C4510 C 0.36848 0.40249 0.97025 0.0
C4511 C 0.37367 0.38688 0.95915 0.0
H4512 H 0.37349 0.41759 0.99469 0.0
C4513 C 0.38904 0.37402 0.96562 0.0
H4514 H 0.35726 0.4131 0.96592 0.0
C4515 C 0.39859 0.37668 0.98252 0.0
C4516 C 0.39324 0.39238 0.99346 0.0
H4517 H 0.39364 0.36176 0.95768 0.0
H4518 H 0.41025 0.36655 0.98691 0.0
C4519 C 0.37801 0.40515 0.98692 0.0
C4520 C 0.37536 0.59463 0.71799 0.0
C4521 C 0.39582 0.59234 0.71477 0.0
H4522 H 0.35304 0.60137 0.73688 0.0
C4523 C 0.4097 0.59562 0.72868 0.0
H4524 H 0.36429 0.59263 0.70746 0.0
C4525 C 0.4032 0.60087 0.74554 0.0
C4526 C 0.38277 0.60278 0.74873 0.0
H4527 H 0.42555 0.59378 0.72664 0.0
H4528 H 0.41411 0.60341 0.7561 0.0
C4529 C 0.3689 0.59958 0.73485 0.0
C4530 C 0.90823 0.13682 0.05619 0.0
C4531 C 0.90078 0.12622 0.04169 0.0
H4532 H 0.90214 0.15085 0.08102 0.0
C4533 C 0.88057 0.12162 0.04153 0.0
H4534 H 0.92365 0.14078 0.05665 0.0
C4535 C 0.86818 0.12729 0.05551 0.0
C4536 C 0.87554 0.13783 0.07016 0.0
H4537 H 0.87431 0.11341 0.03063 0.0
H4538 H 0.85285 0.12305 0.05492 0.0
C4539 C 0.89583 0.14251 0.07023 0.0
C4540 C 0.67287 0.14028 0.8581 0.0
C4541 C 0.67994 0.12774 0.84497 0.0
H4542 H 0.65593 0.14284 0.88167 0.0
C4543 C 0.68188 0.10816 0.84838 0.0
H4544 H 0.67149 0.15533 0.8556 0.0
C4545 C 0.67375 0.10116 0.86377 0.0
C4546 C 0.66396 0.11382 0.87563 0.0
H4547 H 0.68714 0.09823 0.83829 0.0
H4548 H 0.67286 0.08583 0.86523 0.0
C4549 C 0.66448 0.13334 0.8732 0.0
C4550 C 0.91433 0.89955 0.28739 0.0
C4551 C 0.8963 0.9047 0.27841 0.0
H4552 H 0.93321 0.9033 0.31058 0.0
C4553 C 0.88322 0.91803 0.28658 0.0
H4554 H 0.9248 0.88945 0.28145 0.0
C4555 C 0.88798 0.92601 0.30324 0.0
C4556 C 0.90601 0.92093 0.31233 0.0
H4557 H 0.86911 0.92223 0.28015 0.0
H4558 H 0.87731 0.936 0.3091 0.0
C4559 C 0.91909 0.90749 0.30416 0.0
C4560 C 0.53311 0.38736 0.15609 0.0
C4561 C 0.53924 0.38528 0.13849 0.0
H4562 H 0.51243 0.37918 0.17551 0.0
C4563 C 0.52889 0.37336 0.1267 0.0
H4564 H 0.5408 0.39664 0.16536 0.0
C4565 C 0.51267 0.36353 0.13245 0.0
C4566 C 0.50665 0.36543 0.1501 0.0
H4567 H 0.53325 0.37171 0.11301 0.0
H4568 H 0.50504 0.3542 0.12319 0.0
C4569 C 0.51695 0.37742 0.16188 0.0
C4570 C 0.40118 0.6946 0.87448 0.0
C4571 C 0.39287 0.69173 0.89117 0.0
H4572 H 0.40342 0.71371 0.85241 0.0
C4573 C 0.3792 0.7053 0.89786 0.0
H4574 H 0.41196 0.68431 0.86917 0.0
C4575 C 0.37454 0.72191 0.88846 0.0
C4576 C 0.38345 0.7253 0.87218 0.0
H4577 H 0.37253 0.70329 0.91062 0.0
H4578 H 0.36429 0.73229 0.89426 0.0
C4579 C 0.39654 0.71141 0.86502 0.0
C4580 C 0.04623 0.70178 0.67037 0.0
C4581 C 0.04716 0.6884 0.65641 0.0
H4582 H 0.06187 0.72157 0.68691 0.0
C4583 C 0.06496 0.68625 0.64712 0.0
H4584 H 0.03294 0.70329 0.67816 0.0
C4585 C 0.08189 0.69625 0.6525 0.0
C4586 C 0.08143 0.70862 0.66738 0.0
H4587 H 0.06631 0.6756 0.63668 0.0
H4588 H 0.0957 0.69319 0.64578 0.0
C4589 C 0.06305 0.71188 0.67568 0.0
C4590 C 0.10745 0.32249 0.40182 0.0
C4591 C 0.11422 0.3137 0.3859 0.0
H4592 H 0.09059 0.34577 0.41444 0.0
C4593 C 0.10825 0.32388 0.37013 0.0
H4594 H 0.11124 0.31567 0.4144 0.0
C4595 C 0.09643 0.34142 0.37011 0.0
C4596 C 0.08946 0.35019 0.3859 0.0
H4597 H 0.11273 0.31816 0.35739 0.0
H4598 H 0.09252 0.34804 0.35745 0.0
C4599 C 0.09538 0.34008 0.40179 0.0
C4600 C 0.49191 0.70792 0.41001 0.0
C4601 C 0.50253 0.69931 0.39578 0.0
H4602 H 0.46934 0.72817 0.41922 0.0
C4603 C 0.49659 0.70648 0.37866 0.0
H4604 H 0.4955 0.70334 0.42348 0.0
C4605 C 0.48109 0.72129 0.37614 0.0
C4606 C 0.47053 0.72982 0.39057 0.0
H4607 H 0.50397 0.70071 0.36709 0.0
H4608 H 0.47737 0.72605 0.36275 0.0
C4609 C 0.47656 0.72251 0.40753 0.0
C4610 C 0.08074 0.7065 0.164 0.0
C4611 C 0.07513 0.69435 0.14962 0.0
H4612 H 0.09567 0.73208 0.17289 0.0
C4613 C 0.08084 0.70018 0.13263 0.0
H4614 H 0.07661 0.70295 0.17735 0.0
C4615 C 0.09187 0.71684 0.13011 0.0
C4616 C 0.09747 0.72909 0.14434 0.0
H4617 H 0.07695 0.69167 0.12106 0.0
H4618 H 0.09612 0.7201 0.11673 0.0
C4619 C 0.09153 0.72354 0.16142 0.0
C4620 C 0.07858 0.3689 0.90312 0.0
C4621 C 0.0959 0.37184 0.89379 0.0
H4622 H 0.0469 0.36655 0.90115 0.0
C4623 C 0.09518 0.37126 0.87508 0.0
H4624 H 0.07912 0.36774 0.91747 0.0
C4625 C 0.07717 0.36999 0.86587 0.0
C4626 C 0.05957 0.36966 0.87522 0.0
H4627 H 0.1086 0.37191 0.8675 0.0
H4628 H 0.07694 0.37078 0.85149 0.0
C4629 C 0.06039 0.3678 0.89381 0.0
C4630 C 0.42215 0.28139 0.64023 0.0
C4631 C 0.4133 0.26919 0.62777 0.0
H4632 H 0.43652 0.30773 0.64446 0.0
C4633 C 0.41222 0.27398 0.60973 0.0
H4634 H 0.42298 0.27792 0.65425 0.0
C4635 C 0.41934 0.29122 0.60421 0.0
C4636 C 0.42795 0.30359 0.61668 0.0
H4637 H 0.40542 0.26461 0.59998 0.0
H4638 H 0.41806 0.29492 0.59026 0.0
C4639 C 0.42948 0.29854 0.6347 0.0
C4640 C 0.1749 0.46242 0.33693 0.0
C4641 C 0.19548 0.45806 0.33647 0.0
H4642 H 0.15195 0.48353 0.34235 0.0
C4643 C 0.20889 0.47264 0.33995 0.0
H4644 H 0.1642 0.45157 0.33396 0.0
C4645 C 0.20184 0.49105 0.34448 0.0
C4646 C 0.1813 0.49514 0.34567 0.0
H4647 H 0.22483 0.46967 0.3398 0.0
H4648 H 0.21248 0.50184 0.34785 0.0
C4649 C 0.16787 0.4808 0.34145 0.0
C4650 C 0.33847 0.43349 0.1202 0.0
C4651 C 0.34725 0.41966 0.10886 0.0
H4652 H 0.31431 0.44062 0.1375 0.0
C4653 C 0.33784 0.40227 0.10614 0.0
H4654 H 0.34547 0.44698 0.12266 0.0
C4655 C 0.32019 0.39872 0.11454 0.0
C4656 C 0.31144 0.41243 0.1259 0.0
H4657 H 0.34395 0.39145 0.09725 0.0
H4658 H 0.31347 0.38506 0.1122 0.0
C4659 C 0.32068 0.42989 0.12867 0.0
C4660 C 0.36201 0.53495 0.87453 0.0
C4661 C 0.38236 0.53014 0.87282 0.0
H4662 H 0.3379 0.55495 0.86815 0.0
C4663 C 0.39425 0.5424 0.86341 0.0
H4664 H 0.35256 0.52581 0.88187 0.0
C4665 C 0.38592 0.55906 0.85564 0.0
C4666 C 0.36547 0.56377 0.85702 0.0
H4667 H 0.41001 0.53909 0.862 0.0
H4668 H 0.39542 0.56801 0.84815 0.0
C4669 C 0.35363 0.55159 0.86666 0.0
C4670 C 0.23031 0.63342 0.60137 0.0
C4671 C 0.23548 0.65022 0.61043 0.0
H4672 H 0.21347 0.62106 0.57976 0.0
C4673 C 0.2256 0.66756 0.60524 0.0
H4674 H 0.23771 0.61987 0.60485 0.0
C4675 C 0.21145 0.66826 0.59107 0.0
C4676 C 0.20707 0.65168 0.58132 0.0
H4677 H 0.22923 0.6808 0.61189 0.0
H4678 H 0.20469 0.68197 0.5872 0.0
C4679 C 0.21646 0.63418 0.58689 0.0
C4680 C 0.15137 0.56229 0.19685 0.0
C4681 C 0.16453 0.55774 0.1831 0.0
H4682 H 0.14536 0.57884 0.22021 0.0
C4683 C 0.18263 0.56715 0.18281 0.0
H4684 H 0.13723 0.55542 0.1975 0.0
C4685 C 0.18733 0.58081 0.19599 0.0
C4686 C 0.17414 0.58519 0.20988 0.0
H4687 H 0.19315 0.56393 0.17248 0.0
H4688 H 0.20145 0.5877 0.19547 0.0
C4689 C 0.15609 0.5757 0.21002 0.0
C4690 C 0.24654 0.42777 0.89567 0.0
C4691 C 0.25405 0.40919 0.89944 0.0
H4692 H 0.22754 0.45123 0.90395 0.0
C4693 C 0.2465 0.39903 0.91356 0.0
H4694 H 0.2521 0.43583 0.88476 0.0
C4695 C 0.23218 0.40774 0.92431 0.0
C4696 C 0.2256 0.42676 0.92114 0.0
H4697 H 0.25202 0.3846 0.91654 0.0
H4698 H 0.22703 0.4 0.93562 0.0
C4699 C 0.23253 0.43657 0.90656 0.0
C4700 C 0.39395 0.47498 0.66051 0.0
C4701 C 0.38014 0.48769 0.65202 0.0
H4702 H 0.39911 0.44819 0.67346 0.0
C4703 C 0.36042 0.48224 0.64914 0.0
H4704 H 0.40933 0.47873 0.66271 0.0
C4705 C 0.35454 0.46447 0.65521 0.0
C4706 C 0.36835 0.45192 0.66409 0.0
H4707 H 0.34959 0.49176 0.64244 0.0
H4708 H 0.3392 0.4606 0.65308 0.0
C4709 C 0.38816 0.45732 0.66644 0.0
C4710 C 0.37116 0.63393 0.42768 0.0
C4711 C 0.37728 0.61566 0.42158 0.0
H4712 H 0.34801 0.6555 0.42842 0.0
C4713 C 0.36456 0.60575 0.40986 0.0
H4714 H 0.38024 0.64186 0.43704 0.0
C4715 C 0.34559 0.61345 0.40533 0.0
C4716 C 0.33928 0.63124 0.41227 0.0
H4717 H 0.3689 0.59168 0.40489 0.0
H4718 H 0.33571 0.60528 0.39688 0.0
C4719 C 0.35241 0.64161 0.42305 0.0
C4720 C 0.34783 0.16714 0.46837 0.0
C4721 C 0.34452 0.15523 0.45356 0.0
H4722 H 0.35167 0.16902 0.49658 0.0
C4723 C 0.34102 0.13575 0.45636 0.0
H4724 H 0.3508 0.18213 0.46687 0.0
C4725 C 0.34232 0.12815 0.47343 0.0
C4726 C 0.34674 0.13998 0.48796 0.0
H4727 H 0.33757 0.12623 0.4454 0.0
H4728 H 0.34089 0.1129 0.47511 0.0
C4729 C 0.34842 0.15964 0.48543 0.0
C4730 C 0.84963 0.3723 0.54447 0.0
C4731 C 0.84442 0.38359 0.52958 0.0
H4732 H 0.84739 0.36839 0.57223 0.0
C4733 C 0.8327 0.40046 0.53166 0.0
H4734 H 0.85881 0.3593 0.54341 0.0
C4735 C 0.82591 0.40566 0.54851 0.0
C4736 C 0.83134 0.39423 0.5633 0.0
H4737 H 0.82856 0.40932 0.5203 0.0
H4738 H 0.81605 0.41816 0.54995 0.0
C4739 C 0.84349 0.37775 0.56113 0.0
C4740 C 0.37504 0.129 0.29052 0.0
C4741 C 0.3794 0.14851 0.29118 0.0
H4742 H 0.3774 0.10165 0.30318 0.0
C4743 C 0.39035 0.15514 0.30605 0.0
H4744 H 0.36658 0.12335 0.27933 0.0
C4745 C 0.39681 0.14256 0.31983 0.0
C4746 C 0.39256 0.12292 0.31913 0.0
H4747 H 0.39414 0.17003 0.30695 0.0
H4748 H 0.4055 0.14822 0.33085 0.0
C4749 C 0.38143 0.11646 0.30424 0.0
C4750 C 0.67431 0.64537 0.04499 0.0
C4751 C 0.65893 0.65785 0.03828 0.0
H4752 H 0.69508 0.63808 0.06619 0.0
C4753 C 0.65323 0.67362 0.04899 0.0
H4754 H 0.6791 0.63292 0.03738 0.0
C4755 C 0.66256 0.67663 0.06589 0.0
C4756 C 0.67807 0.66409 0.07254 0.0
H4757 H 0.64151 0.68356 0.04439 0.0
H4758 H 0.65772 0.68893 0.07367 0.0
C4759 C 0.68367 0.64842 0.06167 0.0
C4760 C 0.67405 0.45825 0.31414 0.0
C4761 C 0.65366 0.45706 0.31757 0.0
H4762 H 0.69708 0.45393 0.29532 0.0
C4763 C 0.6406 0.45121 0.30383 0.0
H4764 H 0.68448 0.46311 0.32428 0.0
C4765 C 0.64778 0.44652 0.28709 0.0
C4766 C 0.66817 0.44724 0.28389 0.0
H4767 H 0.62486 0.44991 0.30606 0.0
H4768 H 0.63744 0.44197 0.27674 0.0
C4769 C 0.68123 0.45335 0.29746 0.0
C4770 C 0.15635 0.90658 0.96131 0.0
C4771 C 0.17687 0.91037 0.96208 0.0
H4772 H 0.12818 0.90883 0.97428 0.0
C4773 C 0.1843 0.91984 0.97734 0.0
H4774 H 0.14998 0.89908 0.95001 0.0
C4775 C 0.17172 0.92541 0.99122 0.0
C4776 C 0.15128 0.92171 0.99036 0.0
H4777 H 0.19985 0.92331 0.97849 0.0
H4778 H 0.17804 0.93281 1.00261 0.0
C4779 C 0.14378 0.9121 0.97528 0.0
C4780 C 0.37892 0.94853 0.16766 0.0
C4781 C 0.3858 0.93549 0.15466 0.0
H4782 H 0.36789 0.9518 0.19394 0.0
C4783 C 0.38205 0.91622 0.15607 0.0
H4784 H 0.38201 0.96357 0.16679 0.0
C4785 C 0.37417 0.9095 0.1716 0.0
C4786 C 0.37018 0.92216 0.18571 0.0
H4787 H 0.38745 0.90637 0.1461 0.0
H4788 H 0.37345 0.89426 0.17334 0.0
C4789 C 0.37082 0.94186 0.18314 0.0
C4790 C 0.17113 0.1349 0.74328 0.0
C4791 C 0.1568 0.14459 0.75366 0.0
H4792 H 0.17751 0.11991 0.71905 0.0
C4793 C 0.13717 0.14661 0.74675 0.0
H4794 H 0.18643 0.13318 0.74811 0.0
C4795 C 0.13199 0.13894 0.72995 0.0
C4796 C 0.14636 0.12922 0.71952 0.0
H4797 H 0.12579 0.15404 0.75436 0.0
H4798 H 0.11675 0.14088 0.72503 0.0
C4799 C 0.16603 0.12743 0.72647 0.0
C4800 C 0.96074 0.13073 0.33223 0.0
C4801 C 0.95407 0.13103 0.35006 0.0
H4802 H 0.9536 0.13384 0.30393 0.0
C4803 C 0.93339 0.13513 0.35162 0.0
H4804 H 0.97637 0.12769 0.32989 0.0
C4805 C 0.92024 0.13873 0.33663 0.0
C4806 C 0.92668 0.13835 0.31882 0.0
H4807 H 0.92712 0.13526 0.36464 0.0
H4808 H 0.90476 0.14205 0.33917 0.0
C4809 C 0.94749 0.13439 0.31709 0.0
C4810 C 0.15335 0.73319 0.61304 0.0
C4811 C 0.14581 0.74747 0.60128 0.0
H4812 H 0.17114 0.72679 0.63639 0.0
C4813 C 0.14939 0.76673 0.60499 0.0
H4814 H 0.15128 0.71815 0.61041 0.0
C4815 C 0.16165 0.77146 0.61936 0.0
C4816 C 0.16991 0.75704 0.63048 0.0
H4817 H 0.14358 0.77801 0.59627 0.0
H4818 H 0.16455 0.78639 0.62182 0.0
C4819 C 0.16519 0.73799 0.62763 0.0
C4820 C 0.61755 0.9116 0.78444 0.0
C4821 C 0.59797 0.9054 0.78381 0.0
H4822 H 0.64828 0.90319 0.78253 0.0
C4823 C 0.59388 0.88748 0.77614 0.0
H4824 H 0.62095 0.92546 0.79003 0.0
C4825 C 0.60946 0.87483 0.77179 0.0
C4826 C 0.629 0.88007 0.77528 0.0
H4827 H 0.57889 0.88229 0.77552 0.0
H4828 H 0.60628 0.86049 0.76731 0.0
C4829 C 0.63308 0.89881 0.78049 0.0
C4830 C 0.43687 0.34018 0.09709 0.0
C4831 C 0.42274 0.32562 0.09589 0.0
H4832 H 0.45114 0.3637 0.0846 0.0
C4833 C 0.41275 0.32416 0.07898 0.0
H4834 H 0.44505 0.34226 0.1095 0.0
C4835 C 0.41658 0.33646 0.06433 0.0
C4836 C 0.43062 0.35108 0.06564 0.0
H4837 H 0.40153 0.31358 0.07708 0.0
H4838 H 0.40797 0.33487 0.05206 0.0
C4839 C 0.44052 0.35259 0.08252 0.0
C4840 C 0.9728 0.88101 0.20065 0.0
C4841 C 0.96799 0.87955 0.18208 0.0
H4842 H 0.96347 0.87864 0.22808 0.0
C4843 C 0.9482 0.87402 0.17821 0.0
H4844 H 0.98754 0.88531 0.20475 0.0
C4845 C 0.93418 0.87051 0.19171 0.0
C4846 C 0.93887 0.87178 0.21024 0.0
H4847 H 0.94323 0.87269 0.16446 0.0
H4848 H 0.91932 0.86667 0.18746 0.0
C4849 C 0.95878 0.87704 0.21429 0.0
C4850 C 0.41288 0.68833 0.47068 0.0
C4851 C 0.42187 0.7051 0.47662 0.0
H4852 H 0.41066 0.6582 0.47418 0.0
C4853 C 0.43475 0.70451 0.49164 0.0
H4854 H 0.40266 0.68847 0.45928 0.0
C4855 C 0.43889 0.68736 0.50036 0.0
C4856 C 0.43055 0.67053 0.49396 0.0
H4857 H 0.44227 0.7171 0.49628 0.0
H4858 H 0.44926 0.68718 0.51167 0.0
C4859 C 0.41737 0.67108 0.4792 0.0
C4860 C 0.61019 0.12727 0.79128 0.0
C4861 C 0.61131 0.14532 0.7993 0.0
H4862 H 0.59552 0.11047 0.77147 0.0
C4863 C 0.5962 0.15932 0.79629 0.0
H4864 H 0.62197 0.11644 0.79347 0.0
C4865 C 0.58139 0.15611 0.78345 0.0
C4866 C 0.58166 0.13882 0.77383 0.0
H4867 H 0.59721 0.17346 0.80215 0.0
H4868 H 0.57105 0.16782 0.77985 0.0
C4869 C 0.59532 0.12398 0.7786 0.0
C4870 C 0.1761 0.35453 0.97716 0.0
C4871 C 0.1747 0.37473 0.974 0.0
H4872 H 0.17932 0.32529 0.96699 0.0
C4873 C 0.17526 0.3792 0.95552 0.0
H4874 H 0.17572 0.3496 0.99075 0.0
C4875 C 0.17704 0.36488 0.94152 0.0
C4876 C 0.17881 0.34472 0.94468 0.0
H4877 H 0.17395 0.39406 0.95169 0.0
H4878 H 0.17711 0.36983 0.92792 0.0
C4879 C 0.17827 0.3402 0.96317 0.0
C4880 C 0.31735 0.98654 0.15525 0.0
C4881 C 0.33748 0.98347 0.14957 0.0
H4882 H 0.28798 0.97572 0.16046 0.0
C4883 C 0.34105 0.96398 0.1441 0.0
H4884 H 0.31271 1.00081 0.15945 0.0
C4885 C 0.32645 0.94902 0.1448 0.0
C4886 C 0.30645 0.95202 0.15077 0.0
H4887 H 0.35539 0.96014 0.13886 0.0
H4888 H 0.33104 0.93479 0.14041 0.0
C4889 C 0.30266 0.97164 0.15586 0.0
C4890 C 0.35043 0.08054 0.39074 0.0
C4891 C 0.34535 0.06128 0.38719 0.0
H4892 H 0.3427 0.11072 0.3896 0.0
C4893 C 0.32611 0.05907 0.3794 0.0
H4894 H 0.36494 0.08341 0.3966 0.0
C4895 C 0.31308 0.07532 0.37508 0.0
C4896 C 0.31856 0.09458 0.3784 0.0
H4897 H 0.32135 0.04486 0.37599 0.0
H4898 H 0.29868 0.07275 0.36887 0.0
C4899 C 0.33751 0.09657 0.3866 0.0
C4900 C 0.20387 0.08992 0.6627 0.0
C4901 C 0.20771 0.08086 0.64633 0.0
H4902 H 0.21473 0.10674 0.68444 0.0
C4903 C 0.22752 0.08048 0.64046 0.0
H4904 H 0.18907 0.09017 0.66804 0.0
C4905 C 0.24261 0.0901 0.65017 0.0
C4906 C 0.23827 0.09997 0.66613 0.0
H4907 H 0.23114 0.07351 0.62801 0.0
H4908 H 0.25728 0.09078 0.64466 0.0
C4909 C 0.21879 0.0992 0.67237 0.0
C4910 C 0.22401 0.95564 0.8822 0.0
C4911 C 0.2436 0.95781 0.88937 0.0
H4912 H 0.19309 0.96508 0.88087 0.0
C4913 C 0.24587 0.97341 0.90125 0.0
H4914 H 0.22112 0.94369 0.87338 0.0
C4915 C 0.22927 0.98588 0.9058 0.0
C4916 C 0.20957 0.98322 0.89888 0.0
H4917 H 0.26024 0.97549 0.9077 0.0
H4918 H 0.23183 0.99738 0.91518 0.0
C4919 C 0.20759 0.96793 0.88672 0.0
C4920 C 0.6804 0.26886 0.09109 0.0
C4921 C 0.66422 0.25681 0.09018 0.0
H4922 H 0.70202 0.28213 0.10794 0.0
C4923 C 0.6568 0.24934 0.10581 0.0
H4924 H 0.68653 0.27442 0.0791 0.0
C4925 C 0.66583 0.25328 0.12207 0.0
C4926 C 0.68236 0.26483 0.12303 0.0
H4927 H 0.64474 0.23948 0.10541 0.0
H4928 H 0.65985 0.24713 0.13383 0.0
C4929 C 0.6894 0.27293 0.10748 0.0
C4930 C 0.13804 0.39331 0.30273 0.0
C4931 C 0.13983 0.38695 0.28517 0.0
H4932 H 0.12187 0.41051 0.32083 0.0
C4933 C 0.12766 0.39523 0.27161 0.0
H4934 H 0.14746 0.38733 0.31341 0.0
C4935 C 0.11312 0.40914 0.27581 0.0
C4936 C 0.11055 0.41468 0.2936 0.0
H4937 H 0.12926 0.39091 0.25786 0.0
H4938 H 0.10317 0.41475 0.26535 0.0
C4939 C 0.12364 0.40707 0.3069 0.0
C4940 C 0.92886 0.85513 0.58701 0.0
C4941 C 0.92482 0.85086 0.56877 0.0
H4942 H 0.92885 0.84654 0.61462 0.0
C4943 C 0.91665 0.83267 0.56563 0.0
H4944 H 0.93493 0.86882 0.59049 0.0
C4945 C 0.91257 0.8198 0.57987 0.0
C4946 C 0.91684 0.82407 0.59813 0.0
H4947 H 0.91276 0.82853 0.55212 0.0
H4948 H 0.90589 0.80637 0.57648 0.0
C4949 C 0.92528 0.84213 0.60113 0.0
C4950 C 0.11879 0.62223 0.28385 0.0
C4951 C 0.11797 0.63804 0.29541 0.0
H4952 H 0.10562 0.6087 0.2611 0.0
C4953 C 0.1011 0.65045 0.29521 0.0
H4954 H 0.13175 0.61251 0.28386 0.0
C4955 C 0.08635 0.64844 0.28205 0.0
C4956 C 0.08835 0.63389 0.26919 0.0
H4957 H 0.10037 0.66291 0.30383 0.0
H4958 H 0.07441 0.65927 0.28098 0.0
C4959 C 0.10403 0.62018 0.27076 0.0
C4960 C 0.46961 0.3785 0.69611 0.0
C4961 C 0.46417 0.379 0.67759 0.0
H4962 H 0.46101 0.37465 0.72359 0.0
C4963 C 0.44369 0.37564 0.674 0.0
H4964 H 0.4849 0.38103 0.70008 0.0
C4965 C 0.42971 0.37239 0.68772 0.0
C4966 C 0.43505 0.3717 0.70621 0.0
H4967 H 0.43817 0.37585 0.66033 0.0
H4968 H 0.41437 0.37024 0.68365 0.0
C4969 C 0.45564 0.37473 0.70989 0.0
C4970 C 0.09238 0.91802 0.70075 0.0
C4971 C 0.099 0.9175 0.6829 0.0
H4972 H 0.09957 0.91511 0.72904 0.0
C4973 C 0.11963 0.91316 0.6813 0.0
H4974 H 0.07678 0.92125 0.70311 0.0
C4975 C 0.1328 0.90961 0.69628 0.0
C4976 C 0.1264 0.91022 0.7141 0.0
H4977 H 0.12585 0.91281 0.66825 0.0
H4978 H 0.14826 0.90614 0.69374 0.0
C4979 C 0.10564 0.91437 0.71587 0.0
C4980 C 0.88834 0.30749 0.40627 0.0
C4981 C 0.87984 0.28965 0.40433 0.0
H4982 H 0.90484 0.3259 0.4232 0.0
C4983 C 0.88238 0.27593 0.41785 0.0
H4984 H 0.88641 0.31829 0.39605 0.0
C4985 C 0.89312 0.28019 0.43331 0.0
C4986 C 0.90144 0.29812 0.43527 0.0
H4987 H 0.87621 0.2619 0.41647 0.0
H4988 H 0.8945 0.26976 0.4439 0.0
C4989 C 0.89914 0.31169 0.42163 0.0
C4990 C 0.42229 0.14815 0.24908 0.0
C4991 C 0.42518 0.16694 0.25484 0.0
H4992 H 0.43605 0.12216 0.23969 0.0
C4993 C 0.44434 0.17312 0.25864 0.0
H4994 H 0.40741 0.14301 0.24675 0.0
C4995 C 0.46069 0.16135 0.2544 0.0
C4996 C 0.45784 0.14322 0.24665 0.0
H4997 H 0.44664 0.18752 0.26348 0.0
H4998 H 0.47532 0.16728 0.25551 0.0
C4999 C 0.43859 0.13619 0.2453 0.0
C5000 C 0.6338 0.71442 0.96858 0.0
C5001 C 0.62173 0.69829 0.96657 0.0
H5002 H 0.6475 0.73849 0.95637 0.0
C5003 C 0.61387 0.69533 0.94907 0.0
H5004 H 0.64081 0.71724 0.98142 0.0
C5005 C 0.61753 0.70777 0.93456 0.0
C5006 C 0.62976 0.72378 0.93642 0.0
H5007 H 0.60482 0.68309 0.94648 0.0
H5008 H 0.61094 0.70451 0.92167 0.0
C5009 C 0.63778 0.72671 0.95394 0.0
C5010 C 0.07949 0.16975 0.83226 0.0
C5011 C 0.08478 0.16828 0.85075 0.0
H5012 H 0.08855 0.17462 0.80507 0.0
C5013 C 0.1053 0.17092 0.8547 0.0
H5014 H 0.06414 0.16784 0.82807 0.0
C5015 C 0.11951 0.1744 0.84132 0.0
C5016 C 0.11437 0.17608 0.82287 0.0
H5017 H 0.11066 0.16995 0.86839 0.0
H5018 H 0.13489 0.17591 0.84562 0.0
C5019 C 0.09374 0.17376 0.8188 0.0
C5020 C 0.62528 0.34588 0.53693 0.0
C5021 C 0.62735 0.34469 0.55549 0.0
H5022 H 0.61951 0.36406 0.51456 0.0
C5023 C 0.62568 0.36136 0.5659 0.0
H5024 H 0.62671 0.33322 0.52863 0.0
C5025 C 0.62184 0.37896 0.55789 0.0
C5026 C 0.61937 0.3801 0.53937 0.0
H5027 H 0.62678 0.36077 0.58028 0.0
H5028 H 0.62035 0.39157 0.56625 0.0
C5029 C 0.62121 0.36349 0.52891 0.0
C5030 C 0.44886 0.91954 0.23734 0.0
C5031 C 0.44451 0.90138 0.23086 0.0
H5032 H 0.46519 0.93518 0.2569 0.0
C5033 C 0.45661 0.88539 0.23578 0.0
H5034 H 0.43948 0.93193 0.23368 0.0
C5035 C 0.47094 0.88711 0.24938 0.0
C5036 C 0.47316 0.90488 0.25772 0.0
H5037 H 0.45313 0.87121 0.231 0.0
H5038 H 0.47838 0.87431 0.25476 0.0
C5039 C 0.46338 0.92133 0.25065 0.0
C5040 C 0.87579 0.68128 0.09291 0.0
C5041 C 0.87635 0.70147 0.09041 0.0
H5042 H 0.8771 0.65247 0.08182 0.0
C5043 C 0.87894 0.70652 0.07224 0.0
H5044 H 0.87393 0.67594 0.10619 0.0
C5045 C 0.88077 0.69261 0.0579 0.0
C5046 C 0.87996 0.6724 0.06041 0.0
H5047 H 0.87966 0.72152 0.06895 0.0
H5048 H 0.88272 0.6979 0.0446 0.0
C5049 C 0.87748 0.66742 0.07855 0.0
C5050 C 0.72691 0.10031 0.88868 0.0
C5051 C 0.74769 0.09672 0.88536 0.0
H5052 H 0.69706 0.08993 0.89219 0.0
C5053 C 0.75198 0.07664 0.88258 0.0
H5054 H 0.72182 0.11495 0.89108 0.0
C5055 C 0.73714 0.06184 0.88307 0.0
C5056 C 0.71627 0.06547 0.88608 0.0
H5057 H 0.76722 0.07209 0.88004 0.0
H5058 H 0.74225 0.04717 0.88087 0.0
C5059 C 0.71208 0.0855 0.88906 0.0
C5060 C 0.72688 0.99106 0.65517 0.0
C5061 C 0.70726 0.9885 0.64826 0.0
H5062 H 0.7549 0.97793 0.66512 0.0
C5063 C 0.7022 0.96903 0.64585 0.0
H5064 H 0.73178 1.00542 0.65764 0.0
C5065 C 0.7154 0.95322 0.6502 0.0
C5066 C 0.73475 0.95557 0.6575 0.0
H5067 H 0.6875 0.96579 0.64066 0.0
H5068 H 0.71017 0.93893 0.64799 0.0
C5069 C 0.74023 0.97502 0.65969 0.0
C5070 C 0.83392 0.95095 0.35993 0.0
C5071 C 0.81472 0.94959 0.36664 0.0
H5072 H 0.86356 0.96023 0.36374 0.0
C5073 C 0.81077 0.95878 0.38302 0.0
H5074 H 0.8377 0.94382 0.34758 0.0
C5075 C 0.82599 0.96834 0.39264 0.0
C5076 C 0.84554 0.96864 0.38621 0.0
H5077 H 0.79636 0.95756 0.38892 0.0
H5078 H 0.82266 0.97477 0.40539 0.0
C5079 C 0.84896 0.96019 0.36947 0.0
C5080 C 0.80622 0.07491 0.13146 0.0
C5081 C 0.80909 0.09092 0.14275 0.0
H5082 H 0.81951 0.05033 0.11783 0.0
C5083 C 0.82896 0.09314 0.14921 0.0
H5084 H 0.79158 0.07272 0.12559 0.0
C5085 C 0.84507 0.08054 0.14455 0.0
C5086 C 0.84249 0.06485 0.13295 0.0
H5087 H 0.83229 0.10532 0.1576 0.0
H5088 H 0.85981 0.08346 0.14985 0.0
C5089 C 0.82253 0.06214 0.12674 0.0
C5090 C 0.37492 0.78144 0.93905 0.0
C5091 C 0.38565 0.79816 0.93964 0.0
H5092 H 0.35729 0.76306 0.92286 0.0
C5093 C 0.38548 0.81036 0.92494 0.0
H5094 H 0.37448 0.77229 0.95058 0.0
C5095 C 0.37531 0.80554 0.90945 0.0
C5096 C 0.36539 0.78834 0.90841 0.0
H5097 H 0.393 0.82379 0.92553 0.0
H5098 H 0.37558 0.81511 0.89821 0.0
C5099 C 0.36488 0.77644 0.92338 0.0
C5100 C 0.92864 0.64013 0.72791 0.0
C5101 C 0.94309 0.63466 0.74098 0.0
H5102 H 0.90328 0.65787 0.72118 0.0
C5103 C 0.94107 0.64145 0.75847 0.0
H5104 H 0.92978 0.63556 0.71418 0.0
C5105 C 0.92597 0.65491 0.76237 0.0
C5106 C 0.91264 0.66143 0.74885 0.0
H5107 H 0.95194 0.63737 0.7688 0.0
H5108 H 0.92501 0.66043 0.77581 0.0
C5109 C 0.91366 0.65342 0.73179 0.0
C5110 C 0.14274 0.22811 0.45338 0.0
C5111 C 0.13582 0.22519 0.43549 0.0
H5112 H 0.14481 0.21827 0.48081 0.0
C5113 C 0.12466 0.20851 0.43291 0.0
H5114 H 0.15161 0.24037 0.45642 0.0
C5115 C 0.12099 0.19554 0.44706 0.0
C5116 C 0.12772 0.1985 0.46494 0.0
H5117 H 0.11892 0.20517 0.41972 0.0
H5118 H 0.11273 0.18291 0.4439 0.0
C5119 C 0.1387 0.21529 0.46766 0.0
C5120 C 0.93997 0.41855 0.73961 0.0
C5121 C 0.93606 0.40046 0.7327 0.0
H5122 H 0.95631 0.43411 0.75921 0.0
C5123 C 0.94865 0.38463 0.7371 0.0
H5124 H 0.93022 0.43081 0.73634 0.0
C5125 C 0.96318 0.38636 0.75051 0.0
C5126 C 0.96512 0.40396 0.75922 0.0
H5127 H 0.94551 0.37051 0.73197 0.0
H5128 H 0.97113 0.3736 0.75542 0.0
C5129 C 0.95469 0.42035 0.75272 0.0
C5130 C 0.60996 0.67518 0.35828 0.0
C5131 C 0.58959 0.67142 0.35472 0.0
H5132 H 0.63913 0.68096 0.3485 0.0
C5133 C 0.58409 0.6716 0.33622 0.0
H5134 H 0.61548 0.6752 0.37195 0.0
C5135 C 0.59791 0.67548 0.32239 0.0
C5136 C 0.6184 0.6789 0.32603 0.0
H5137 H 0.56886 0.66874 0.3323 0.0
H5138 H 0.59252 0.67531 0.30869 0.0
C5139 C 0.62382 0.67851 0.3445 0.0
C5140 C 0.41265 0.63666 0.83889 0.0
C5141 C 0.41929 0.63587 0.82111 0.0
H5142 H 0.41931 0.63412 0.86709 0.0
C5143 C 0.44015 0.63207 0.81968 0.0
H5144 H 0.39711 0.63993 0.84123 0.0
C5145 C 0.45326 0.62893 0.83502 0.0
C5146 C 0.44643 0.62961 0.8528 0.0
H5147 H 0.44645 0.63124 0.80661 0.0
H5148 H 0.46894 0.62595 0.83284 0.0
C5149 C 0.42569 0.6336 0.85411 0.0
C5150 C 0.91267 0.16939 0.98116 0.0
C5151 C 0.92674 0.16916 0.99528 0.0
H5152 H 0.89661 0.18634 0.96166 0.0
C5153 C 0.93441 0.18634 1.00163 0.0
H5154 H 0.90635 0.15628 0.97624 0.0
C5155 C 0.92916 0.20341 0.99313 0.0
C5156 C 0.9159 0.20355 0.97835 0.0
H5157 H 0.94534 0.18647 1.0125 0.0
H5158 H 0.93641 0.21625 0.99749 0.0
C5159 C 0.90714 0.18653 0.97283 0.0
C5160 C 0.67554 0.85636 0.47698 0.0
C5161 C 0.67436 0.87653 0.47382 0.0
H5162 H 0.67926 0.82721 0.46679 0.0
C5163 C 0.67598 0.88119 0.4555 0.0
H5164 H 0.6744 0.85138 0.49048 0.0
C5165 C 0.67844 0.86699 0.44155 0.0
C5166 C 0.67997 0.84685 0.44472 0.0
H5167 H 0.67499 0.89609 0.45175 0.0
H5168 H 0.67925 0.87199 0.42802 0.0
C5169 C 0.67845 0.84214 0.46306 0.0
C5170 C 0.81062 0.48379 0.65376 0.0
C5171 C 0.8308 0.48091 0.64815 0.0
H5172 H 0.7813 0.47267 0.6587 0.0
C5173 C 0.83452 0.46153 0.64246 0.0
H5174 H 0.80588 0.49797 0.65813 0.0
C5175 C 0.82004 0.44645 0.64291 0.0
C5176 C 0.80001 0.44923 0.64881 0.0
H5177 H 0.84891 0.45785 0.63726 0.0
H5178 H 0.82477 0.43231 0.63838 0.0
C5179 C 0.79604 0.46876 0.65411 0.0
C5180 C 0.83199 0.59343 0.88727 0.0
C5181 C 0.81289 0.59119 0.87944 0.0
H5182 H 0.85977 0.58061 0.89685 0.0
C5183 C 0.80755 0.57185 0.87638 0.0
H5184 H 0.83708 0.60767 0.89005 0.0
C5185 C 0.82084 0.55576 0.88061 0.0
C5186 C 0.84022 0.55823 0.88801 0.0
H5187 H 0.79306 0.56908 0.87047 0.0
H5188 H 0.81615 0.54147 0.87744 0.0
C5189 C 0.84517 0.57756 0.8913 0.0
C5190 C 0.74433 0.59645 0.1509 0.0
C5191 C 0.73987 0.60661 0.16667 0.0
H5192 H 0.73306 0.57927 0.12907 0.0
C5193 C 0.72038 0.60586 0.17289 0.0
H5194 H 0.759 0.59709 0.1454 0.0
C5195 C 0.70555 0.59629 0.16338 0.0
C5196 C 0.70951 0.58687 0.1472 0.0
H5197 H 0.71623 0.61363 0.18482 0.0
H5198 H 0.69075 0.59656 0.1687 0.0
C5199 C 0.72933 0.58652 0.14135 0.0
C5200 C 0.73433 0.48925 0.40574 0.0
C5201 C 0.71465 0.48705 0.39862 0.0
H5202 H 0.76516 0.47848 0.40747 0.0
C5203 C 0.71252 0.47219 0.38602 0.0
H5204 H 0.73699 0.50041 0.41545 0.0
C5205 C 0.7288 0.45984 0.38126 0.0
C5206 C 0.74836 0.46159 0.38858 0.0
H5207 H 0.69802 0.4697 0.38001 0.0
H5208 H 0.72581 0.44821 0.37211 0.0
C5209 C 0.75079 0.47677 0.4009 0.0
C5210 C 0.59924 0.41985 0.19759 0.0
C5211 C 0.60614 0.42004 0.17983 0.0
H5212 H 0.60603 0.41686 0.22595 0.0
C5213 C 0.62703 0.41704 0.17855 0.0
H5214 H 0.58345 0.42207 0.19975 0.0
C5215 C 0.64012 0.41403 0.19375 0.0
C5216 C 0.6334 0.41389 0.2115 0.0
H5217 H 0.63348 0.41732 0.16561 0.0
H5218 H 0.65578 0.41157 0.19141 0.0
C5219 C 0.6124 0.41675 0.2129 0.0
C5220 C 0.1405 0.87858 0.04938 0.0
C5221 C 0.12571 0.87853 0.03586 0.0
H5222 H 0.15755 0.862 0.06852 0.0
C5223 C 0.1179 0.86125 0.03 0.0
H5224 H 0.14696 0.89179 0.05388 0.0
C5225 C 0.12368 0.84432 0.03854 0.0
C5226 C 0.13758 0.84449 0.05284 0.0
H5227 H 0.10643 0.86095 0.01958 0.0
H5228 H 0.11632 0.83137 0.03468 0.0
C5229 C 0.14653 0.86161 0.05773 0.0
C5230 C 0.37533 0.18389 0.59133 0.0
C5231 C 0.37343 0.20397 0.58808 0.0
H5232 H 0.37945 0.15487 0.58124 0.0
C5233 C 0.37482 0.2087 0.56974 0.0
H5234 H 0.37467 0.1789 0.60488 0.0
C5235 C 0.37785 0.19451 0.55585 0.0
C5236 C 0.37946 0.17438 0.55909 0.0
H5237 H 0.3737 0.22362 0.56598 0.0
H5238 H 0.3788 0.19948 0.54231 0.0
C5239 C 0.37809 0.16972 0.57743 0.0
C5240 C 0.24125 0.56642 0.37652 0.0
C5241 C 0.22211 0.56854 0.38451 0.0
H5242 H 0.26966 0.57819 0.36945 0.0
C5243 C 0.21952 0.58713 0.3925 0.0
H5244 H 0.24511 0.55288 0.37022 0.0
C5245 C 0.23411 0.60214 0.39218 0.0
C5246 C 0.25305 0.60018 0.38385 0.0
H5247 H 0.20598 0.59022 0.39942 0.0
H5248 H 0.23031 0.61562 0.39863 0.0
C5249 C 0.25584 0.58146 0.37606 0.0
C5250 C 0.20682 0.47144 0.1435 0.0
C5251 C 0.21215 0.49084 0.14578 0.0
H5252 H 0.21469 0.4413 0.14539 0.0
C5253 C 0.23199 0.49333 0.15207 0.0
H5254 H 0.1919 0.46834 0.13879 0.0
C5255 C 0.24535 0.47724 0.1562 0.0
C5256 C 0.23967 0.45785 0.1541 0.0
H5257 H 0.23705 0.50766 0.15441 0.0
H5258 H 0.26022 0.48006 0.16123 0.0
C5259 C 0.22008 0.45557 0.14739 0.0
C5260 C 0.33121 0.44667 0.8584 0.0
C5261 C 0.31173 0.44577 0.86465 0.0
H5262 H 0.36097 0.45549 0.86292 0.0
C5263 C 0.30744 0.45522 0.88082 0.0
H5264 H 0.33523 0.4394 0.84618 0.0
C5265 C 0.32257 0.46457 0.89071 0.0
C5266 C 0.34237 0.46431 0.88481 0.0
H5267 H 0.2928 0.45438 0.88635 0.0
H5268 H 0.31898 0.47127 0.90329 0.0
C5269 C 0.34618 0.45564 0.86827 0.0
C5270 C 0.30156 0.57299 0.62908 0.0
C5271 C 0.30379 0.58784 0.64179 0.0
H5272 H 0.31559 0.54967 0.61421 0.0
C5273 C 0.32325 0.58935 0.64942 0.0
H5274 H 0.2873 0.57149 0.62225 0.0
C5275 C 0.33959 0.57713 0.64458 0.0
C5276 C 0.33767 0.56258 0.63163 0.0
H5277 H 0.32611 0.60075 0.65887 0.0
H5278 H 0.35402 0.57948 0.65084 0.0
C5279 C 0.31809 0.56058 0.62421 0.0
C5280 C 0.03425 0.14248 0.45884 0.0
C5281 C 0.03926 0.12971 0.44472 0.0
H5282 H 0.04322 0.15835 0.48238 0.0
C5283 C 0.05958 0.12281 0.44547 0.0
H5284 H 1.01922 0.14859 0.45924 0.0
C5285 C 0.0736 0.12807 0.45954 0.0
C5286 C 0.06847 0.1411 0.47351 0.0
H5287 H 0.06473 0.11311 0.43517 0.0
H5288 H 0.08874 0.12224 0.45914 0.0
C5289 C 0.04833 0.14818 0.47244 0.0
C5290 C 0.17096 0.83216 0.74202 0.0
C5291 C 0.18193 0.84887 0.74088 0.0
H5292 H 0.16773 0.80302 0.7337 0.0
C5293 C 0.19981 0.84802 0.73175 0.0
H5294 H 0.15711 0.83233 0.74906 0.0
C5295 C 0.20584 0.83116 0.72288 0.0
C5296 C 0.19433 0.8147 0.72328 0.0
H5297 H 0.20848 0.86067 0.73059 0.0
H5298 H 0.21896 0.83132 0.71486 0.0
C5299 C 0.17718 0.81521 0.73347 0.0
C5300 C 0.42954 0.9169 0.96513 0.0
C5301 C 0.42587 0.91149 0.98259 0.0
H5302 H 0.45085 0.91715 0.94447 0.0
C5303 C 0.44079 0.90156 0.99266 0.0
H5304 H 0.41811 0.92435 0.95709 0.0
C5305 C 0.45948 0.89774 0.98559 0.0
C5306 C 0.46325 0.90337 0.96823 0.0
H5307 H 0.43816 0.89713 1.00613 0.0
H5308 H 0.47104 0.89054 0.99369 0.0
C5309 C 0.44811 0.91266 0.9579 0.0
C5310 C 0.37056 0.23282 0.20753 0.0
C5311 C 0.38011 0.23709 0.22402 0.0
H5312 H 0.36702 0.23937 0.17939 0.0
C5313 C 0.39318 0.25246 0.22406 0.0
H5314 H 0.36072 0.22094 0.20662 0.0
C5315 C 0.39668 0.26304 0.20863 0.0
C5316 C 0.38758 0.25875 0.19203 0.0
H5317 H 0.40113 0.25631 0.23621 0.0
H5318 H 0.40704 0.2745 0.20973 0.0
C5319 C 0.37435 0.24338 0.19179 0.0
C5320 C 0.03318 0.9058 0.0703 0.0
C5321 C 0.03894 0.91376 0.0869 0.0
H5322 H 0.03813 0.90235 0.04239 0.0
C5323 C 0.0552 0.92618 0.08649 0.0
H5324 H 1.02097 0.89614 0.06956 0.0
C5325 C 0.065 0.93033 0.07026 0.0
C5326 C 0.05936 0.92188 0.05372 0.0
H5327 H 0.06036 0.93278 0.09874 0.0
H5328 H 0.07729 0.93979 0.07091 0.0
C5329 C 0.04317 0.90953 0.0544 0.0
C5330 C 0.39988 0.82572 0.24663 0.0
C5331 C 0.40079 0.84562 0.24756 0.0
H5332 H 0.40098 0.79956 0.26103 0.0
C5333 C 0.40398 0.8547 0.26394 0.0
H5334 H 0.39778 0.81851 0.23396 0.0
C5335 C 0.40544 0.844 0.27951 0.0
C5336 C 0.40408 0.82403 0.2787 0.0
H5337 H 0.40598 0.86991 0.26465 0.0
H5338 H 0.40752 0.85133 0.29211 0.0
C5339 C 0.40154 0.81498 0.2621 0.0
C5340 C 0.45899 0.09492 0.55444 0.0
C5341 C 0.47641 0.10528 0.55284 0.0
H5342 H 0.42798 0.09327 0.54716 0.0
C5343 C 0.47665 0.11989 0.5401 0.0
H5344 H 0.45842 0.08347 0.56401 0.0
C5345 C 0.45935 0.12555 0.53085 0.0
C5346 C 0.44153 0.11661 0.53393 0.0
H5347 H 0.4896 0.12839 0.53852 0.0
H5348 H 0.45966 0.13776 0.52208 0.0
C5349 C 0.44159 0.10054 0.54491 0.0
C5350 C 0.18211 0.22764 0.83455 0.0
C5351 C 0.17066 0.23303 0.81892 0.0
H5352 H 0.19356 0.23499 0.86114 0.0
C5353 C 0.16251 0.25214 0.81977 0.0
H5354 H 0.18857 0.21324 0.83533 0.0
C5355 C 0.16582 0.26496 0.83459 0.0
C5356 C 0.17697 0.25967 0.85033 0.0
H5357 H 0.15332 0.25744 0.80867 0.0
H5358 H 0.15908 0.27925 0.83377 0.0
C5359 C 0.1849 0.24037 0.84976 0.0
C5360 C 0.46596 0.09122 0.15217 0.0
C5361 C 0.46213 0.11003 0.14524 0.0
H5362 H 0.45556 0.06279 0.15779 0.0
C5363 C 0.4419 0.11287 0.13882 0.0
H5364 H 0.48081 0.0875 0.1573 0.0
C5365 C 0.42687 0.09844 0.13939 0.0
C5366 C 0.43073 0.07954 0.1461 0.0
H5367 H 0.43745 0.12665 0.13321 0.0
H5368 H 0.41204 0.10218 0.1342 0.0
C5369 C 0.45102 0.07665 0.15241 0.0
C5370 C 0.21777 0.22158 0.38632 0.0
C5371 C 0.19791 0.21928 0.38007 0.0
H5372 H 0.24836 0.21087 0.3875 0.0
C5373 C 0.19462 0.20277 0.36958 0.0
H5374 H 0.22116 0.23382 0.39461 0.0
C5375 C 0.21038 0.18909 0.36585 0.0
C5376 C 0.2303 0.19149 0.37204 0.0
H5377 H 0.17968 0.20006 0.36468 0.0
H5378 H 0.20688 0.17651 0.35808 0.0
C5379 C 0.23355 0.20825 0.38221 0.0
C5380 C 0.11296 0.99392 0.61181 0.0
C5381 C 0.10932 1.01164 0.62055 0.0
H5382 H 0.10469 0.96461 0.60821 0.0
C5383 C 0.0933 1.01306 0.63214 0.0
H5384 H 0.12537 0.99214 0.603 0.0
C5385 C 0.08182 0.99711 0.63542 0.0
C5386 C 0.08561 0.97937 0.62686 0.0
H5387 H 0.09025 0.02621 0.63941 0.0
H5388 H 0.07016 0.99856 0.64504 0.0
C5389 C 0.10109 0.97809 0.61473 0.0
C5390 C 0.29355 0.81442 0.8585 0.0
C5391 C 0.31381 0.81053 0.85509 0.0
H5392 H 0.27057 0.8351 0.86474 0.0
C5393 C 0.32637 0.82609 0.85417 0.0
H5394 H 0.28348 0.8028 0.85971 0.0
C5395 C 0.3189 0.84496 0.85731 0.0
C5396 C 0.2987 0.84865 0.86143 0.0
H5397 H 0.34211 0.82364 0.85221 0.0
H5398 H 0.32915 0.85653 0.85723 0.0
C5399 C 0.28613 0.83307 0.86155 0.0
C5400 C 0.44807 0.96385 0.39305 0.0
C5401 C 0.45202 0.98326 0.39015 0.0
H5402 H 0.45794 0.93441 0.39249 0.0
C5403 C 0.47108 0.98678 0.38338 0.0
H5404 H 0.43384 0.96 0.39807 0.0
C5405 C 0.48542 0.97147 0.37995 0.0
C5406 C 0.48122 0.95208 0.38319 0.0
H5407 H 0.4749 1.00133 0.38061 0.0
H5408 H 0.49985 0.97488 0.37506 0.0
C5409 C 0.46214 0.94886 0.38971 0.0
C5410 C 0.30237 0.19657 0.6433 0.0
C5411 C 0.29342 0.20092 0.65952 0.0
H5412 H 0.32144 0.20585 0.62306 0.0
C5413 C 0.29662 0.21844 0.66796 0.0
H5414 H 0.3005 0.18282 0.63696 0.0
C5415 C 0.30906 0.23143 0.66024 0.0
C5416 C 0.31789 0.227 0.64394 0.0
H5417 H 0.29008 0.22176 0.68065 0.0
H5418 H 0.31187 0.24483 0.66697 0.0
C5419 C 0.31433 0.20964 0.63542 0.0
C5420 C 0.11266 0.08656 0.91811 0.0
C5421 C 0.11061 0.06913 0.90857 0.0
H5422 H 0.10164 0.1157 0.92281 0.0
C5423 C 0.09457 0.06874 0.89601 0.0
H5424 H 0.12479 0.08779 0.9278 0.0
C5425 C 0.08159 0.08499 0.89283 0.0
C5426 C 0.08347 0.10234 0.90244 0.0
H5427 H 0.09236 0.05596 0.88812 0.0
H5428 H 0.06999 0.08396 0.88261 0.0
C5429 C 0.09922 0.10269 0.91531 0.0
C5430 C 0.19313 0.8568 0.15834 0.0
C5431 C 0.21251 0.85516 0.15086 0.0
H5432 H 0.16439 0.84483 0.16362 0.0
C5433 C 0.21545 0.83686 0.14211 0.0
H5434 H 0.1891 0.8699 0.16533 0.0
C5435 C 0.20065 0.8219 0.14095 0.0
C5436 C 0.18127 0.8236 0.14854 0.0
H5437 H 0.22957 0.83392 0.13588 0.0
H5438 H 0.20463 0.80877 0.13401 0.0
C5439 C 0.17845 0.84186 0.15729 0.0
C5440 C 0.17376 0.48521 0.061 0.0
C5441 C 0.16444 0.46734 0.06245 0.0
H5442 H 0.18115 0.51279 0.07219 0.0
C5443 C 0.15391 0.46582 0.07869 0.0
H5444 H 0.18217 0.48782 0.04926 0.0
C5445 C 0.15278 0.48097 0.09215 0.0
C5446 C 0.16245 0.49876 0.09065 0.0
H5447 H 0.1463 0.45277 0.08109 0.0
H5448 H 0.14465 0.47842 0.10406 0.0
C5449 C 0.17306 0.5 0.07452 0.0
C5450 C 0.66905 1.02402 0.95159 0.0
C5451 C 0.6585 0.03195 0.93693 0.0
H5452 H 0.67693 0.0272 0.9789 0.0
C5453 C 0.64296 0.04547 0.93957 0.0
H5454 H 0.68066 1.01302 0.94982 0.0
C5455 C 0.64093 0.0539 0.95631 0.0
C5456 C 0.65417 0.04834 0.97034 0.0
H5457 H 0.63384 0.05092 0.92853 0.0
H5458 H 0.63077 0.0662 0.95773 0.0
C5459 C 0.66669 0.03201 0.96832 0.0
C5460 C 0.24831 0.37219 0.20677 0.0
C5461 C 0.25714 0.38955 0.2112 0.0
H5462 H 0.23127 0.34888 0.21566 0.0
C5463 C 0.25688 0.39582 0.22898 0.0
H5464 H 0.24825 0.36701 0.19317 0.0
C5465 C 0.2479 0.38503 0.24202 0.0
C5466 C 0.23851 0.36791 0.23754 0.0
H5467 H 0.26364 0.4091 0.23282 0.0
H5468 H 0.24749 0.39061 0.25547 0.0
C5469 C 0.23878 0.3617 0.2197 0.0
C5470 C 0.91485 0.96012 0.49113 0.0
C5471 C 0.92478 0.94239 0.48789 0.0
H5472 H 0.90013 0.9855 0.48047 0.0
C5473 C 0.92778 0.93756 0.46973 0.0
H5474 H 0.91183 0.9645 0.50465 0.0
C5475 C 0.92112 0.94991 0.45555 0.0
C5476 C 0.91085 0.96748 0.45892 0.0
H5477 H 0.93515 0.92403 0.46641 0.0
H5478 H 0.92356 0.94543 0.44195 0.0
C5479 C 0.90799 0.97224 0.47705 0.0
C5480 C 0.81312 0.14306 0.2332 0.0
C5481 C 0.83308 0.14763 0.22993 0.0
H5482 H 0.78345 0.13754 0.22303 0.0
C5483 C 0.83704 0.15057 0.21163 0.0
H5484 H 0.80887 0.14048 0.24672 0.0
C5485 C 0.82194 0.14914 0.19766 0.0
C5486 C 0.80202 0.14432 0.2011 0.0
H5487 H 0.85195 0.15403 0.20801 0.0
H5488 H 0.82602 0.15153 0.18407 0.0
C5489 C 0.79825 0.14132 0.21933 0.0
C5490 C 0.44202 0.57353 0.57173 0.0
C5491 C 0.43822 0.5724 0.5532 0.0
H5492 H 0.4335 0.56514 0.59792 0.0
C5493 C 0.4221 0.56147 0.54722 0.0
H5494 H 0.45392 0.58215 0.57693 0.0
C5495 C 0.4099 0.55251 0.55927 0.0
C5496 C 0.41371 0.55364 0.57772 0.0
H5497 H 0.41825 0.56058 0.53317 0.0
H5498 H 0.3974 0.54464 0.55409 0.0
C5499 C 0.43018 0.56395 0.58379 0.0
C5500 C 0.24309 0.6751 0.31852 0.0
C5501 C 0.2272 0.68273 0.32838 0.0
H5502 H 0.27225 0.66183 0.31988 0.0
C5503 C 0.23065 0.68829 0.34614 0.0
H5504 H 0.24099 0.67085 0.30474 0.0
C5505 C 0.24888 0.68364 0.3546 0.0
C5506 C 0.26336 0.67296 0.34545 0.0
H5507 H 0.21868 0.69443 0.35396 0.0
H5508 H 0.2507 0.6865 0.36865 0.0
C5509 C 0.261 0.66989 0.32714 0.0
C5510 C 0.33989 0.36804 0.80389 0.0
C5511 C 0.33689 0.37188 0.78536 0.0
H5512 H 0.32886 0.37037 0.83084 0.0
C5513 C 0.31877 0.38217 0.78104 0.0
H5514 H 0.35346 0.36047 0.80834 0.0
C5515 C 0.30475 0.38826 0.79414 0.0
C5516 C 0.30749 0.38424 0.81258 0.0
H5517 H 0.31545 0.38594 0.76732 0.0
H5518 H 0.29144 0.39626 0.78966 0.0
C5519 C 0.32555 0.37383 0.81704 0.0
C5520 C 1.00441 0.9003 0.56093 0.0
C5521 C 0.98432 0.90752 0.55979 0.0
H5522 H 0.03352 0.89983 0.57414 0.0
C5523 C 0.97928 0.92073 0.57365 0.0
H5524 H 1.00945 0.89001 0.55107 0.0
C5525 C 0.99333 0.92602 0.58768 0.0
C5526 C 1.0136 0.91898 0.5885 0.0
H5527 H 0.96419 0.9267 0.57399 0.0
H5528 H 0.98824 0.93586 0.59789 0.0
C5529 C 1.01853 0.90604 0.57448 0.0
C5530 C 0.877 0.23343 0.29977 0.0
C5531 C 0.8593 0.23415 0.30921 0.0
H5532 H 0.89749 0.21613 0.28476 0.0
C5533 C 0.84741 0.21795 0.30892 0.0
H5534 H 0.88674 0.24542 0.30011 0.0
C5535 C 0.85352 0.20111 0.30008 0.0
C5536 C 0.87186 0.20002 0.29168 0.0
H5537 H 0.83385 0.21795 0.31637 0.0
H5538 H 0.84449 0.18865 0.30068 0.0
C5539 C 0.88329 0.21649 0.29124 0.0
C5540 C 0.61526 0.15254 0.04477 0.0
C5541 C 0.62738 0.13621 0.04875 0.0
H5542 H 0.58737 0.16767 0.04907 0.0
C5543 C 0.62047 0.12233 0.06016 0.0
H5544 H 0.62025 0.16338 0.0359 0.0
C5545 C 0.60161 0.12457 0.0673 0.0
C5546 C 0.5895 0.14088 0.06337 0.0
H5547 H 0.62955 0.10963 0.06341 0.0
H5548 H 0.59649 0.1136 0.07598 0.0
C5549 C 0.59653 0.155 0.05226 0.0
C5550 C 0.65557 0.78482 0.82332 0.0
C5551 C 0.66497 0.78936 0.83973 0.0
H5552 H 0.65104 0.79081 0.79559 0.0
C5553 C 0.67858 0.8044 0.83949 0.0
H5554 H 0.64491 0.7736 0.82258 0.0
C5555 C 0.68251 0.81433 0.82343 0.0
C5556 C 0.6727 0.80978 0.80712 0.0
H5557 H 0.68616 0.80855 0.85172 0.0
H5558 H 0.69273 0.82592 0.82394 0.0
C5559 C 0.65918 0.79482 0.80759 0.0
C5560 C 1.01636 0.1428 0.96056 0.0
C5561 C 1.01153 0.13334 0.94444 0.0
H5562 H 1.01113 0.14751 0.98821 0.0
C5563 C 0.99653 0.11963 0.94551 0.0
H5564 H 0.02762 0.15347 0.96084 0.0
C5565 C 0.98706 0.11568 0.96198 0.0
C5566 C 0.99179 0.12565 0.97801 0.0
H5567 H 0.99218 0.11179 0.93367 0.0
H5568 H 0.97588 0.10505 0.96195 0.0
C5569 C 1.00674 0.13924 0.97662 0.0
C5570 C 0.63676 0.21346 0.77786 0.0
C5571 C 0.65438 0.20303 0.78236 0.0
H5572 H 0.62112 0.2309 0.75852 0.0
C5573 C 0.66955 0.20093 0.77002 0.0
H5574 H 0.62485 0.21518 0.78721 0.0
C5575 C 0.66731 0.2097 0.75348 0.0
C5576 C 0.64991 0.22069 0.74918 0.0
H5577 H 0.68328 0.19293 0.7733 0.0
H5578 H 0.67933 0.20826 0.74421 0.0
C5579 C 0.63453 0.22224 0.76139 0.0
C5580 C 0.62477 0.94482 0.47726 0.0
C5581 C 0.61967 0.9388 0.49413 0.0
H5582 H 0.61389 0.9534 0.45153 0.0
C5583 C 0.59996 0.94024 0.49946 0.0
H5584 H 0.63986 0.94308 0.47279 0.0
C5585 C 0.585 0.94537 0.48716 0.0
C5586 C 0.58981 0.94887 0.46943 0.0
H5587 H 0.59598 0.93551 0.51254 0.0
H5588 H 0.56973 0.94395 0.49103 0.0
C5589 C 0.60984 0.95047 0.46505 0.0
C5590 C 0.87101 0.80758 0.18327 0.0
C5591 C 0.87804 0.78799 0.18343 0.0
H5592 H 0.86763 0.83507 0.1971 0.0
C5593 C 0.88766 0.78248 0.19984 0.0
H5594 H 0.8635 0.8131 0.17135 0.0
C5595 C 0.89051 0.79541 0.21463 0.0
C5596 C 0.88327 0.81483 0.21472 0.0
H5597 H 0.89358 0.76793 0.20122 0.0
H5598 H 0.89859 0.78996 0.22631 0.0
C5599 C 0.87327 0.82043 0.19843 0.0
C5600 C 0.5873 0.95828 0.8812 0.0
C5601 C 0.59037 0.9399 0.8892 0.0
H5602 H 0.59857 0.98612 0.87473 0.0
C5603 C 0.61009 0.93721 0.89689 0.0
H5604 H 0.57289 0.96182 0.87503 0.0
C5605 C 0.62533 0.95143 0.8966 0.0
C5606 C 0.62226 0.96988 0.88872 0.0
H5607 H 0.61396 0.92373 0.90333 0.0
H5608 H 0.63971 0.94787 0.90284 0.0
C5609 C 0.6025 0.97259 0.88106 0.0
C5610 C 0.84296 0.85965 0.66911 0.0
C5611 C 0.82327 0.85843 0.66193 0.0
H5612 H 0.87319 0.84744 0.6709 0.0
C5613 C 0.81996 0.84271 0.65042 0.0
H5614 H 0.84646 0.87139 0.67796 0.0
C5615 C 0.83549 0.82923 0.646 0.0
C5616 C 0.8551 0.83028 0.65328 0.0
H5617 H 0.80531 0.84104 0.64435 0.0
H5618 H 0.83207 0.81785 0.63671 0.0
C5619 C 0.85842 0.84573 0.66511 0.0
C5620 C 0.95996 0.03549 0.40176 0.0
C5621 C 0.944 0.03705 0.41343 0.0
H5622 H 0.983 0.04982 0.38855 0.0
C5623 C 0.9404 0.0549 0.42195 0.0
H5624 H 0.96297 1.02225 0.39463 0.0
C5625 C 0.95224 0.0707 0.41876 0.0
C5626 C 0.96764 0.06927 0.40655 0.0
H5627 H 0.92802 0.05681 0.43078 0.0
H5628 H 0.94866 0.08426 0.42514 0.0
C5629 C 0.9714 0.0514 0.39821 0.0
C5630 C 0.7582 0.23488 0.17238 0.0
C5631 C 0.73796 0.23849 0.17606 0.0
H5632 H 0.78148 0.21444 0.16623 0.0
C5633 C 0.72579 0.22271 0.17761 0.0
H5634 H 0.76799 0.24665 0.17071 0.0
C5635 C 0.73361 0.20389 0.1748 0.0
C5636 C 0.75378 0.20046 0.17041 0.0
H5637 H 0.71006 0.22492 0.17984 0.0
H5638 H 0.72364 0.19213 0.17537 0.0
C5639 C 0.76598 0.21628 0.16966 0.0
C5640 C 0.56272 0.07398 0.64744 0.0
C5641 C 0.56612 0.09346 0.65162 0.0
H5642 H 0.5749 0.04567 0.64096 0.0
C5643 C 0.58635 0.09846 0.65207 0.0
H5644 H 0.54757 0.06922 0.64678 0.0
C5645 C 0.60216 0.08488 0.64831 0.0
C5646 C 0.59878 0.06538 0.64407 0.0
H5647 H 0.59005 0.1131 0.65499 0.0
H5648 H 0.61725 0.0898 0.64879 0.0
C5649 C 0.57858 0.06029 0.64396 0.0
C5650 C 0.76647 0.83809 0.38504 0.0
C5651 C 0.76094 0.84618 0.36851 0.0
H5652 H 0.75747 0.82101 0.40673 0.0
C5653 C 0.74286 0.8415 0.36013 0.0
H5654 H 0.78011 0.84196 0.39196 0.0
C5655 C 0.73003 0.82961 0.36853 0.0
C5656 C 0.73494 0.82256 0.38556 0.0
H5657 H 0.73816 0.84791 0.34755 0.0
H5658 H 0.71583 0.8267 0.36206 0.0
C5659 C 0.75341 0.82645 0.39363 0.0
C5660 C 0.95723 0.97882 0.1352 0.0
C5661 C 0.94086 0.9784 0.123 0.0
H5662 H 0.98199 0.96355 0.14827 0.0
C5663 C 0.93834 0.96086 0.11375 0.0
H5664 H 0.9598 0.9917 0.14286 0.0
C5665 C 0.95165 0.94463 0.11649 0.0
C5666 C 0.96774 0.94502 0.12901 0.0
H5667 H 0.92594 0.95961 0.10435 0.0
H5668 H 0.94887 0.93154 0.10924 0.0
C5669 C 0.9701 0.96249 0.13832 0.0
C5670 C 0.85253 0.22804 0.89264 0.0
C5671 C 0.87225 0.22585 0.88581 0.0
H5672 H 0.82328 0.21644 0.89727 0.0
C5673 C 0.87538 0.20711 0.87806 0.0
H5674 H 0.84828 0.24158 0.89875 0.0
C5675 C 0.86069 0.19218 0.87728 0.0
C5676 C 0.84096 0.19429 0.884 0.0
H5677 H 0.8897 0.20375 0.87233 0.0
H5678 H 0.86499 0.17869 0.87109 0.0
C5679 C 0.83768 0.21309 0.8917 0.0
C5680 C 0.8987 0.58315 0.95465 0.0
C5681 C 0.88884 0.58121 0.97117 0.0
H5682 H 0.90728 0.57098 0.92895 0.0
C5683 C 0.88003 0.56312 0.97283 0.0
H5684 H 0.90587 0.59641 0.95212 0.0
C5685 C 0.88057 0.54848 0.95922 0.0
C5686 C 0.89053 0.55014 0.94282 0.0
H5687 H 0.87216 0.56024 0.98482 0.0
H5688 H 0.87291 0.53547 0.9617 0.0
C5689 C 0.89969 0.56815 0.94109 0.0
C5690 C 0.37539 1.01851 0.06592 0.0
C5691 C 0.39046 1.00441 0.06334 0.0
H5692 H 0.36041 0.0365 0.08459 0.0
C5693 C 0.40513 1.00104 0.07679 0.0
H5694 H 0.36382 1.02139 0.05586 0.0
C5695 C 0.40334 1.01015 0.09329 0.0
C5696 C 0.38647 1.02192 0.09652 0.0
H5697 H 0.41699 0.99032 0.07501 0.0
H5698 H 0.4141 1.00667 0.10383 0.0
C5699 C 0.37328 0.02701 0.08246 0.0
C5700 C 0.79552 0.65347 0.8042 0.0
C5701 C 0.79527 0.65989 0.82193 0.0
H5702 H 0.80481 0.65848 0.77764 0.0
C5703 C 0.80392 0.67738 0.82618 0.0
H5704 H 0.78889 0.64009 0.80048 0.0
C5705 C 0.81332 0.68783 0.81313 0.0
C5706 C 0.81363 0.68143 0.79535 0.0
H5707 H 0.80397 0.6827 0.83974 0.0
H5708 H 0.82073 0.70074 0.81705 0.0
C5709 C 0.80436 0.6642 0.79104 0.0
C5710 C 0.14404 0.09234 0.5443 0.0
C5711 C 0.12916 0.10698 0.54605 0.0
H5712 H 0.16303 0.07061 0.55695 0.0
C5713 C 0.12137 0.10955 0.56329 0.0
H5714 H 0.15082 0.0899 0.53156 0.0
C5715 C 0.12816 0.09806 0.57803 0.0
C5716 C 0.1435 0.08383 0.57633 0.0
H5717 H 0.10999 0.12063 0.56546 0.0
H5718 H 0.12186 0.1008 0.59092 0.0
C5719 C 0.15119 0.08126 0.55908 0.0
C5720 C 0.2547 0.90798 0.81341 0.0
C5721 C 0.25102 0.90486 0.83163 0.0
H5722 H 0.24396 0.90891 0.78607 0.0
C5723 C 0.23115 0.89994 0.83513 0.0
H5724 H 0.26946 0.91184 0.80968 0.0
C5725 C 0.21599 0.89851 0.82121 0.0
C5726 C 0.21987 0.90158 0.80293 0.0
H5727 H 0.22715 0.89744 0.84873 0.0
H5728 H 0.20113 0.89494 0.82486 0.0
C5729 C 0.23978 0.90626 0.79959 0.0
C5730 C 0.61077 0.47889 0.46075 0.0
C5731 C 0.61622 0.47881 0.47902 0.0
H5732 H 0.61772 0.48805 0.43434 0.0
C5733 C 0.63357 0.48841 0.48426 0.0
H5734 H 0.59786 0.47134 0.45605 0.0
C5735 C 0.64531 0.49721 0.47179 0.0
C5736 C 0.63993 0.49726 0.45361 0.0
H5737 H 0.63872 0.48846 0.49803 0.0
H5738 H 0.65871 0.50403 0.47646 0.0
C5739 C 0.62228 0.48831 0.44826 0.0
C5740 C 0.79477 0.36778 0.68227 0.0
C5741 C 0.78191 0.38069 0.69101 0.0
H5742 H 0.82419 0.35491 0.68212 0.0
C5743 C 0.78653 0.38659 0.70841 0.0
H5744 H 0.79115 0.36275 0.66899 0.0
C5745 C 0.80494 0.38154 0.7162 0.0
C5746 C 0.81909 0.37103 0.70639 0.0
H5747 H 0.77657 0.39638 0.71542 0.0
H5748 H 0.8088 0.3877 0.72903 0.0
C5749 C 0.81353 0.36322 0.68982 0.0
C5750 C 0.74785 0.66369 0.2369 0.0
C5751 C 0.74483 0.66805 0.21855 0.0
H5752 H 0.73751 0.66546 0.26388 0.0
C5753 C 0.72666 0.67844 0.21444 0.0
H5754 H 0.76123 0.65566 0.24112 0.0
C5755 C 0.7125 0.68391 0.22784 0.0
C5756 C 0.71578 0.67977 0.24628 0.0
H5757 H 0.72314 0.68212 0.20073 0.0
H5758 H 0.69883 0.6915 0.22364 0.0
C5759 C 0.73399 0.66947 0.25025 0.0
C5760 C 0.56758 0.62885 0.96139 0.0
C5761 C 0.56246 0.64096 0.97608 0.0
H5762 H 0.55858 0.61474 0.93659 0.0
C5763 C 0.54197 0.64712 0.97575 0.0
H5764 H 0.58289 0.62373 0.9603 0.0
C5765 C 0.52768 0.64143 0.96224 0.0
C5766 C 0.53269 0.62963 0.94739 0.0
H5767 H 0.53675 0.65656 0.98623 0.0
H5768 H 0.51243 0.64683 0.96328 0.0
C5769 C 0.55332 0.62365 0.94743 0.0
C5770 C 0.70571 0.35271 0.22948 0.0
C5771 C 0.68783 0.35346 0.23861 0.0
H5772 H 0.72464 0.33642 0.21208 0.0
C5773 C 0.67649 0.33691 0.23901 0.0
H5774 H 0.71465 0.36523 0.22884 0.0
C5775 C 0.68238 0.32026 0.22979 0.0
C5776 C 0.69958 0.31987 0.21968 0.0
H5777 H 0.66261 0.33701 0.24599 0.0
H5778 H 0.67269 0.30823 0.22955 0.0
C5779 C 0.71142 0.33615 0.21997 0.0
C5780 C 0.96421 0.39538 0.48539 0.0
C5781 C 0.96727 0.4004 0.46767 0.0
H5782 H 0.94346 0.39473 0.50649 0.0
C5783 C 0.95124 0.40802 0.45725 0.0
H5784 H 0.9764 0.38943 0.4936 0.0
C5785 C 0.93266 0.41149 0.4647 0.0
C5786 C 0.92976 0.40701 0.48256 0.0
H5787 H 0.9533 0.41205 0.44357 0.0
H5788 H 0.92064 0.41788 0.45657 0.0
C5789 C 0.94547 0.39842 0.49272 0.0
C5790 C 0.88756 0.75928 0.70901 0.0
C5791 C 0.87963 0.75476 0.69201 0.0
H5792 H 0.89048 0.75263 0.73673 0.0
C5793 C 0.86666 0.73917 0.69116 0.0
H5794 H 0.89765 0.7709 0.7106 0.0
C5795 C 0.86213 0.72854 0.70668 0.0
C5796 C 0.87057 0.73301 0.7236 0.0
H5797 H 0.86019 0.73499 0.67845 0.0
H5798 H 0.8527 0.71639 0.70527 0.0
C5799 C 0.88329 0.74867 0.72424 0.0
C5800 C 0.55922 0.42146 0.58495 0.0
C5801 C 0.53968 0.41415 0.58456 0.0
H5802 H 0.58428 0.43144 0.57012 0.0
C5803 C 0.53113 0.41183 0.56726 0.0
H5804 H 0.56681 0.42349 0.59767 0.0
C5805 C 0.5411 0.41647 0.5515 0.0
C5806 C 0.56045 0.42386 0.55167 0.0
H5807 H 0.51638 0.40622 0.56574 0.0
H5808 H 0.53342 0.41407 0.53888 0.0
C5809 C 0.56936 0.42616 0.56893 0.0
C5810 C 0.89757 0.3429 0.78078 0.0
C5811 C 0.89481 0.32311 0.78019 0.0
H5812 H 0.89914 0.3686 0.76565 0.0
C5813 C 0.89086 0.31411 0.76378 0.0
H5814 H 0.90071 0.35013 0.79326 0.0
C5815 C 0.88949 0.32473 0.74825 0.0
C5816 C 0.89203 0.34443 0.74894 0.0
H5817 H 0.88912 0.2988 0.7629 0.0
H5818 H 0.88646 0.31756 0.7357 0.0
C5819 C 0.89627 0.3535 0.76515 0.0
C5820 C 0.93174 0.60655 0.05443 0.0
C5821 C 0.93478 0.61282 0.03717 0.0
H5822 H 0.94537 0.60024 0.07979 0.0
C5823 C 0.95403 0.61403 0.03087 0.0
H5824 H 0.91693 0.60619 0.0596 0.0
C5825 C 0.97026 0.61122 0.04245 0.0
C5826 C 0.96719 0.60726 0.06042 0.0
H5827 H 0.95642 0.61915 0.01756 0.0
H5828 H 0.98486 0.61444 0.03781 0.0
C5829 C 0.948 0.60346 0.06601 0.0
C5830 C 0.66443 0.75469 0.32068 0.0
C5831 C 0.67296 0.73577 0.31963 0.0
H5832 H 0.66082 0.78164 0.33485 0.0
C5833 C 0.68493 0.73046 0.33497 0.0
H5834 H 0.65487 0.75988 0.30977 0.0
C5835 C 0.68782 0.74311 0.35016 0.0
C5836 C 0.67948 0.76222 0.35092 0.0
H5837 H 0.69175 0.71622 0.33554 0.0
H5838 H 0.69689 0.73785 0.36135 0.0
C5839 C 0.66785 0.76746 0.33546 0.0
C5840 C 0.92175 0.59452 0.63923 0.0
C5841 C 0.92531 0.57567 0.6461 0.0
H5842 H 0.93278 0.62249 0.63291 0.0
C5843 C 0.94555 0.57248 0.65243 0.0
H5844 H 0.90698 0.59844 0.63401 0.0
C5845 C 0.96074 0.58677 0.65204 0.0
C5846 C 0.9572 0.60555 0.645 0.0
H5847 H 0.94984 0.55861 0.6579 0.0
H5848 H 0.97554 0.58287 0.6572 0.0
C5849 C 0.93701 0.60869 0.63858 0.0
C5850 C 0.70425 0.68567 0.86519 0.0
C5851 C 0.7238 0.68741 0.87257 0.0
H5852 H 0.67383 0.69729 0.86286 0.0
C5853 C 0.72667 0.70345 0.88376 0.0
H5854 H 0.70109 0.67363 0.85658 0.0
C5855 C 0.71085 0.71677 0.88771 0.0
C5856 C 0.69138 0.71519 0.88025 0.0
H5857 H 0.74118 0.70549 0.88997 0.0
H5858 H 0.71391 0.72844 0.89679 0.0
C5859 C 0.68849 0.6994 0.86873 0.0
C5860 C 0.59695 0.51529 0.13207 0.0
C5861 C 0.61332 0.51456 0.12086 0.0
H5862 H 0.57373 0.4999 0.14391 0.0
C5863 C 0.6175 0.49728 0.1116 0.0
H5864 H 0.59347 0.52812 0.13969 0.0
C5865 C 0.60582 0.48115 0.11367 0.0
C5866 C 0.59001 0.4817 0.12546 0.0
H5867 H 0.63017 0.49606 0.10302 0.0
H5868 H 0.60985 0.46801 0.10677 0.0
C5869 C 0.58566 0.49904 0.13451 0.0
C5870 C 0.79412 0.33712 0.36086 0.0
C5871 C 0.80658 0.35277 0.36206 0.0
H5872 H 0.79192 0.30696 0.35726 0.0
C5873 C 0.82695 0.34962 0.3584 0.0
H5874 H 0.77843 0.33882 0.36366 0.0
C5875 C 0.83472 0.33109 0.35448 0.0
C5876 C 0.82226 0.3154 0.35402 0.0
H5877 H 0.83705 0.3613 0.35927 0.0
H5878 H 0.8506 0.32891 0.35311 0.0
C5879 C 0.80185 0.31879 0.35695 0.0
C5880 C 0.94454 0.46155 0.89504 0.0
C5881 C 0.94797 0.48086 0.89109 0.0
H5882 H 0.9548 0.43219 0.89534 0.0
C5883 C 0.96659 0.48419 0.88332 0.0
H5884 H 0.93065 0.4578 0.90082 0.0
C5885 C 0.98096 0.46885 0.87993 0.0
C5886 C 0.97729 0.44956 0.88419 0.0
H5887 H 0.97002 0.49861 0.87968 0.0
H5888 H 0.99499 0.47216 0.87418 0.0
C5889 C 0.95866 0.44653 0.89175 0.0
C5890 C 0.78951 0.71764 0.14446 0.0
C5891 C 0.79344 0.71014 0.16155 0.0
H5892 H 0.80032 0.73448 0.12328 0.0
C5893 C 0.81032 0.71579 0.17131 0.0
H5894 H 0.77683 0.71309 0.13651 0.0
C5895 C 0.82358 0.72798 0.16382 0.0
C5896 C 0.82043 0.73442 0.14628 0.0
H5897 H 0.81382 0.70996 0.18439 0.0
H5898 H 0.83686 0.73155 0.17146 0.0
C5899 C 0.80304 0.72962 0.1368 0.0
C5900 C 0.60018 0.57345 0.39891 0.0
C5901 C 0.61665 0.57326 0.41102 0.0
H5902 H 0.5755 0.58947 0.38655 0.0
C5903 C 0.61949 0.59035 0.42087 0.0
H5904 H 0.59741 0.56092 0.39082 0.0
C5905 C 0.6064 0.60679 0.41876 0.0
C5906 C 0.59021 0.60701 0.40635 0.0
H5907 H 0.63199 0.5911 0.43023 0.0
H5908 H 0.60941 0.61957 0.4264 0.0
C5909 C 0.58749 0.58998 0.39646 0.0
C5910 C 0.70993 0.33333 0.63951 0.0
C5911 C 0.70697 0.35178 0.64796 0.0
H5912 H 0.69896 0.30522 0.63167 0.0
C5913 C 0.68748 0.35371 0.65518 0.0
H5914 H 0.72414 0.33018 0.63351 0.0
C5915 C 0.67269 0.33891 0.65416 0.0
C5916 C 0.6755 0.32052 0.64568 0.0
H5917 H 0.68344 0.36696 0.66193 0.0
H5918 H 0.65855 0.3421 0.66028 0.0
C5919 C 0.69499 0.3185 0.63836 0.0
C5920 C 0.64842 0.98007 0.5923 0.0
C5921 C 0.65837 0.99774 0.5915 0.0
H5922 H 0.64194 0.95235 0.58029 0.0
C5923 C 0.66948 0.99947 0.57573 0.0
H5924 H 0.63992 0.97723 0.60392 0.0
C5925 C 0.67041 0.98516 0.56184 0.0
C5926 C 0.66078 0.9674 0.56259 0.0
H5927 H 0.67779 1.01224 0.57399 0.0
H5928 H 0.67921 0.98802 0.55041 0.0
C5929 C 0.64975 0.96541 0.57847 0.0
C5930 C 0.149 0.54194 0.437 0.0
C5931 C 0.16689 0.5311 0.4358 0.0
H5932 H 0.13144 0.56074 0.4535 0.0
C5933 C 0.17821 0.52664 0.45121 0.0
H5934 H 0.13973 0.54496 0.42534 0.0
C5935 C 0.17298 0.53471 0.46734 0.0
C5936 C 0.15667 0.5478 0.46817 0.0
H5937 H 0.19183 0.51786 0.45063 0.0
H5938 H 0.18304 0.53234 0.4787 0.0
C5939 C 0.1441 0.55068 0.45311 0.0
C5940 C 0.74899 0.89176 0.73036 0.0
C5941 C 0.75109 0.88531 0.71279 0.0
H5942 H 0.73764 0.88634 0.7561 0.0
C5943 C 0.74353 0.86749 0.70791 0.0
H5944 H 0.75473 0.9054 0.73451 0.0
C5945 C 0.73349 0.85664 0.7202 0.0
C5946 C 0.73142 0.86302 0.73785 0.0
H5947 H 0.74492 0.86217 0.69443 0.0
H5948 H 0.72703 0.84341 0.71581 0.0
C5949 C 0.73948 0.88065 0.7428 0.0
C5950 C 0.40215 0.46541 0.97178 0.0
C5951 C 0.40898 0.46275 0.95427 0.0
H5952 H 0.40461 0.4575 0.99945 0.0
C5953 C 0.42501 0.44936 0.95212 0.0
H5954 H 0.38987 0.47548 0.97421 0.0
C5955 C 0.43331 0.43866 0.96678 0.0
C5956 C 0.42637 0.44129 0.98429 0.0
H5957 H 0.43071 0.44666 0.93899 0.0
H5958 H 0.44515 0.42811 0.96433 0.0
C5959 C 0.41078 0.45513 0.98645 0.0
C5960 C 0.33099 0.64674 0.71267 0.0
C5961 C 0.32685 0.64368 0.73091 0.0
H5962 H 0.32032 0.64773 0.68501 0.0
C5963 C 0.3069 0.63883 0.73394 0.0
H5964 H 0.34589 0.65042 0.70922 0.0
C5965 C 0.29223 0.63695 0.71989 0.0
C5966 C 0.29619 0.6401 0.70172 0.0
H5967 H 0.30251 0.63613 0.74739 0.0
H5968 H 0.27744 0.63297 0.72341 0.0
C5969 C 0.31609 0.6452 0.69854 0.0
C5970 C 0.92035 0.06285 0.04649 0.0
C5971 C 0.93766 0.07254 0.05148 0.0
H5972 H 0.89569 0.04681 0.05487 0.0
C5973 C 0.94357 0.07252 0.06963 0.0
H5974 H 0.91492 0.06299 0.03279 0.0
C5975 C 0.93265 0.06287 0.08232 0.0
C5976 C 0.91509 0.05365 0.0773 0.0
H5977 H 0.9565 0.0802 0.07407 0.0
H5978 H 0.93761 0.06312 0.09614 0.0
C5979 C 0.90911 0.05378 0.05922 0.0
C5980 C 0.72887 0.15669 0.84429 0.0
C5981 C 0.72641 0.16987 0.83042 0.0
H5982 H 0.74908 0.13998 0.86016 0.0
C5983 C 0.74311 0.17783 0.82303 0.0
H5984 H 0.71629 0.14983 0.84984 0.0
C5985 C 0.76219 0.1729 0.82999 0.0
C5986 C 0.76436 0.15952 0.84378 0.0
H5987 H 0.7414 0.18769 0.812 0.0
H5988 H 0.77514 0.17897 0.82431 0.0
C5989 C 0.74767 0.15119 0.85047 0.0
C5990 C 0.84178 0.87005 0.30539 0.0
C5991 C 0.83924 0.8742 0.28689 0.0
H5992 H 0.83044 0.87253 0.3322 0.0
C5993 C 0.82167 0.88531 0.28246 0.0
H5994 H 0.85492 0.86183 0.30991 0.0
C5995 C 0.80772 0.89186 0.29545 0.0
C5996 C 0.81001 0.8875 0.31385 0.0
H5997 H 0.81876 0.88936 0.26874 0.0
H5998 H 0.79485 0.90047 0.29092 0.0
C5999 C 0.82752 0.87629 0.31841 0.0
C6000 C 0.48489 0.42098 0.07104 0.0
C6001 C 0.48988 0.40864 0.05647 0.0
H6002 H 0.49399 0.43526 0.09572 0.0
C6003 C 0.5103 0.4022 0.05695 0.0
H6004 H 0.46964 0.42634 0.07201 0.0
C6005 C 0.52463 0.40784 0.07047 0.0
C6006 C 0.51973 0.41989 0.08519 0.0
H6007 H 0.51544 0.39256 0.04659 0.0
H6008 H 0.53981 0.40222 0.06953 0.0
C6009 C 0.49918 0.42615 0.085 0.0
C6010 C 0.37702 0.71264 0.79361 0.0
C6011 C 0.36558 0.69615 0.79362 0.0
H6012 H 0.38064 0.74122 0.8034 0.0
C6013 C 0.34748 0.69684 0.8024 0.0
H6014 H 0.39106 0.71255 0.78689 0.0
C6015 C 0.34158 0.71329 0.81194 0.0
C6016 C 0.35345 0.72952 0.81257 0.0
H6017 H 0.33845 0.68435 0.80271 0.0
H6018 H 0.32817 0.71299 0.81957 0.0
C6019 C 0.37094 0.72921 0.80284 0.0
C6020 C 0.09063 0.6617 0.55448 0.0
C6021 C 0.08435 0.64746 0.56586 0.0
H6022 H 0.11419 0.67119 0.53854 0.0
C6023 C 0.09761 0.63242 0.57096 0.0
H6024 H 0.0805 0.67338 0.55041 0.0
C6025 C 0.1169 0.63152 0.56473 0.0
C6026 C 0.12317 0.64543 0.55297 0.0
H6027 H 0.093 0.62136 0.5798 0.0
H6028 H 0.12678 0.61967 0.56887 0.0
C6029 C 0.10987 0.6605 0.54781 0.0
C6030 C 0.16487 0.28974 0.32425 0.0
C6031 C 0.17294 0.29421 0.34121 0.0
H6032 H 0.16189 0.29635 0.29653 0.0
C6033 C 0.18611 0.30964 0.34197 0.0
H6034 H 0.15463 0.27823 0.32272 0.0
C6035 C 0.19069 0.32018 0.32641 0.0
C6036 C 0.18211 0.31578 0.30954 0.0
H6037 H 0.1927 0.31378 0.35465 0.0
H6038 H 0.20028 0.33222 0.32776 0.0
C6039 C 0.1692 0.30026 0.30898 0.0
C6040 C 0.48627 0.61973 0.46312 0.0
C6041 C 0.49175 0.62766 0.47997 0.0
H6042 H 0.49154 0.61777 0.43464 0.0
C6043 C 0.50796 0.64004 0.47967 0.0
H6044 H 0.47366 0.61056 0.46219 0.0
C6045 C 0.51822 0.64413 0.46395 0.0
C6046 C 0.51289 0.63652 0.44705 0.0
H6047 H 0.51281 0.64696 0.49187 0.0
H6048 H 0.53043 0.65376 0.46513 0.0
C6049 C 0.49651 0.62413 0.44706 0.0
C6050 C 0.13481 0.71868 0.26004 0.0
C6051 C 0.15177 0.72008 0.24972 0.0
H6052 H 0.12286 0.70792 0.2839 0.0
C6053 C 0.16964 0.71045 0.25505 0.0
H6054 H 0.12093 0.72618 0.25627 0.0
C6055 C 0.17076 0.70021 0.27084 0.0
C6056 C 0.15401 0.69943 0.28148 0.0
H6057 H 0.18286 0.71123 0.24722 0.0
H6058 H 0.18488 0.6934 0.27496 0.0
C6059 C 0.13595 0.70843 0.27587 0.0
C6060 C 0.1018 0.43814 0.99935 0.0
C6061 C 0.12148 0.43508 0.99435 0.0
H6062 H 0.07162 0.44107 0.99046 0.0
C6063 C 0.12668 0.43692 0.97663 0.0
H6064 H 0.09769 0.43634 1.01305 0.0
C6065 C 0.1119 0.44022 0.96363 0.0
C6066 C 0.0918 0.44072 0.96831 0.0
H6067 H 0.14177 0.43382 0.9726 0.0
H6068 H 0.11602 0.44022 0.94981 0.0
C6069 C 0.08694 0.44098 0.98637 0.0
C6070 C 0.36821 0.32043 0.69732 0.0
C6071 C 0.37975 0.31498 0.71285 0.0
H6072 H 0.35656 0.31309 0.67084 0.0
C6073 C 0.38776 0.29585 0.71211 0.0
H6074 H 0.36181 0.33482 0.69654 0.0
C6075 C 0.38425 0.28303 0.6974 0.0
C6076 C 0.37307 0.28843 0.68174 0.0
H6077 H 0.39698 0.29055 0.7232 0.0
H6078 H 0.39086 0.26869 0.69821 0.0
C6079 C 0.36525 0.30772 0.6822 0.0
C6080 C 0.13052 0.45525 0.39429 0.0
C6081 C 0.12727 0.47387 0.38677 0.0
H6082 H 0.11921 0.42755 0.40118 0.0
C6083 C 0.10719 0.47685 0.37991 0.0
H6084 H 0.14512 0.45147 0.39997 0.0
C6085 C 0.09191 0.46261 0.38039 0.0
C6086 C 0.09514 0.44407 0.38806 0.0
H6087 H 0.10309 0.49052 0.37393 0.0
H6088 H 0.07728 0.46636 0.37477 0.0
C6089 C 0.11517 0.44114 0.39501 0.0
C6090 C 0.34891 0.36337 0.16783 0.0
C6091 C 0.32936 0.36203 0.16035 0.0
H6092 H 0.37916 0.35128 0.1701 0.0
C6093 C 0.32631 0.34624 0.14887 0.0
H6094 H 0.3522 0.37519 0.17665 0.0
C6095 C 0.34195 0.33279 0.14477 0.0
C6096 C 0.36141 0.33394 0.15234 0.0
H6097 H 0.31179 0.3445 0.14258 0.0
H6098 H 0.33873 0.32134 0.13549 0.0
C6099 C 0.36449 0.34949 0.16413 0.0
C6100 C 0.45549 0.53426 0.90075 0.0
C6101 C 0.43911 0.53507 0.91195 0.0
H6102 H 0.47875 0.54955 0.88889 0.0
C6103 C 0.43496 0.55238 0.92118 0.0
H6104 H 0.45895 0.5214 0.89317 0.0
C6105 C 0.44667 0.56847 0.91907 0.0
C6106 C 0.46248 0.56784 0.90727 0.0
H6107 H 0.42229 0.55366 0.92974 0.0
H6108 H 0.44266 0.58165 0.92592 0.0
C6109 C 0.46682 0.55047 0.89828 0.0
C6110 C 0.22814 0.69915 0.67701 0.0
C6111 C 0.24826 0.6963 0.67227 0.0
H6112 H 0.20419 0.71949 0.68261 0.0
C6113 C 0.26007 0.7124 0.67167 0.0
H6114 H 0.21846 0.68715 0.67746 0.0
C6115 C 0.25191 0.73077 0.67484 0.0
C6116 C 0.23169 0.73378 0.67888 0.0
H6117 H 0.27551 0.71099 0.66793 0.0
H6118 H 0.26129 0.74285 0.67317 0.0
C6119 C 0.21995 0.7177 0.68027 0.0
C6120 C 0.09563 0.60485 0.14264 0.0
C6121 C 0.07699 0.60233 0.15043 0.0
H6122 H 0.12321 0.59288 0.13313 0.0
C6123 C 0.07288 0.58307 0.15454 0.0
H6124 H 0.09982 0.61909 0.13906 0.0
C6125 C 0.0868 0.56736 0.15087 0.0
C6126 C 0.10544 0.57017 0.1429 0.0
H6127 H 0.05882 0.58005 0.16038 0.0
H6128 H 0.08297 0.55303 0.15443 0.0
C6129 C 0.1093 0.58945 0.13906 0.0
C6130 C 0.251 0.32344 0.894 0.0
C6131 C 0.23279 0.31928 0.8856 0.0
H6132 H 0.27761 0.33909 0.89269 0.0
C6133 C 0.22836 0.32584 0.86832 0.0
H6134 H 0.25468 0.31835 0.9073 0.0
C6135 C 0.24139 0.33756 0.85997 0.0
C6136 C 0.25913 0.34264 0.86871 0.0
H6137 H 0.21437 0.32271 0.86158 0.0
H6138 H 0.23704 0.34358 0.84714 0.0
C6139 C 0.26422 0.33496 0.88551 0.0
C6140 C 0.46596 0.46124 0.63585 0.0
C6141 C 0.46418 0.44439 0.6255 0.0
H6142 H 0.45509 0.48996 0.64166 0.0
C6143 C 0.44857 0.44453 0.6125 0.0
H6144 H 0.47745 0.46179 0.64622 0.0
C6145 C 0.43516 0.46072 0.61023 0.0
C6146 C 0.43713 0.47767 0.6205 0.0
H6147 H 0.44624 0.43185 0.6045 0.0
H6148 H 0.42312 0.45992 0.6004 0.0
C6149 C 0.45301 0.47755 0.63323 0.0
C6150 C 0.34286 0.71632 0.39212 0.0
C6151 C 0.34541 0.69821 0.38301 0.0
H6152 H 0.35419 0.74415 0.4004 0.0
C6153 C 0.36454 0.6965 0.37508 0.0
H6154 H 0.32896 0.71925 0.3987 0.0
C6155 C 0.3794 0.71123 0.37611 0.0
C6156 C 0.37696 0.72933 0.38519 0.0
H6157 H 0.36825 0.68349 0.36783 0.0
H6158 H 0.39328 0.70823 0.36949 0.0
C6159 C 0.35782 0.73111 0.39318 0.0
C6160 C 0.40356 0.07038 0.44081 0.0
C6161 C 0.39501 0.05212 0.44259 0.0
H6162 H 0.40905 0.09873 0.45192 0.0
C6163 C 0.38547 0.04996 0.45913 0.0
H6164 H 0.41075 0.07355 0.42854 0.0
C6165 C 0.38478 0.06444 0.47285 0.0
C6166 C 0.39297 0.08278 0.47112 0.0
H6167 H 0.37826 0.0367 0.46161 0.0
H6168 H 0.37726 0.06123 0.48494 0.0
C6169 C 0.40238 0.08522 0.45447 0.0
C6170 C 0.90583 0.50047 0.5785 0.0
C6171 C 0.89253 0.50333 0.56391 0.0
H6172 H 0.91127 0.50572 0.60621 0.0
C6173 C 0.87615 0.51623 0.56545 0.0
H6174 H 0.91859 0.49059 0.57757 0.0
C6175 C 0.87158 0.52405 0.58184 0.0
C6176 C 0.8836 0.51951 0.59682 0.0
H6177 H 0.86553 0.51862 0.5545 0.0
H6178 H 0.85792 0.53268 0.58298 0.0
C6179 C 0.90151 0.50886 0.59489 0.0
C6180 C 0.32126 0.19147 0.3124 0.0
C6181 C 0.32246 0.18456 0.29481 0.0
H6182 H 0.31077 0.18699 0.33876 0.0
C6183 C 0.31356 0.16712 0.29062 0.0
H6184 H 0.32835 0.20457 0.31627 0.0
C6185 C 0.30418 0.15671 0.30369 0.0
C6186 C 0.30302 0.16364 0.32122 0.0
H6187 H 0.31466 0.161 0.2774 0.0
H6188 H 0.29785 0.14317 0.30005 0.0
C6189 C 0.31137 0.1813 0.32536 0.0
C6190 C 0.62832 0.60155 0.0807 0.0
C6191 C 0.64308 0.58693 0.07835 0.0
H6192 H 0.60946 0.62386 0.06865 0.0
C6193 C 0.64879 0.58315 0.06065 0.0
H6194 H 0.62357 0.60517 0.09398 0.0
C6195 C 0.6403 0.59357 0.04599 0.0
C6196 C 0.62601 0.60863 0.04833 0.0
H6197 H 0.66012 0.57212 0.05809 0.0
H6198 H 0.64558 0.59028 0.03281 0.0
C6199 C 0.62021 0.61235 0.06604 0.0
C6200 C 0.72228 0.40005 0.31978 0.0
C6201 C 0.72511 0.40729 0.30241 0.0
H6202 H 0.73366 0.39598 0.34698 0.0
C6203 C 0.74325 0.41679 0.30056 0.0
H6204 H 0.70881 0.39264 0.32231 0.0
C6205 C 0.75735 0.41925 0.31502 0.0
C6206 C 0.75475 0.41183 0.3323 0.0
H6207 H 0.7465 0.42282 0.2878 0.0
H6208 H 0.77061 0.42699 0.31252 0.0
C6209 C 0.73679 0.40196 0.33417 0.0
C6210 C 0.13151 0.98532 0.98563 0.0
C6211 C 0.11424 0.97554 0.98068 0.0
H6212 H 0.15609 1.00144 0.97717 0.0
C6213 C 0.1083 0.97553 0.96253 0.0
H6214 H 0.13695 0.98523 0.99932 0.0
C6215 C 0.11917 0.98518 0.94981 0.0
C6216 C 0.1367 0.99447 0.95476 0.0
H6217 H 0.09539 0.9678 0.95811 0.0
H6218 H 0.11419 0.98487 0.93599 0.0
C6219 C 0.14268 0.99441 0.97285 0.0
C6220 C 0.30154 0.87072 0.18341 0.0
C6221 C 0.28912 0.88362 0.19263 0.0
H6222 H 0.33078 0.85753 0.18239 0.0
C6223 C 0.29439 0.8893 0.20994 0.0
H6224 H 0.29747 0.86594 0.17014 0.0
C6225 C 0.31298 0.88396 0.21722 0.0
C6226 C 0.32665 0.87338 0.20696 0.0
H6227 H 0.28479 0.89912 0.21729 0.0
H6228 H 0.31735 0.88994 0.23 0.0
C6229 C 0.32047 0.86585 0.19044 0.0
C6230 C 0.21159 0.17915 0.72737 0.0
C6231 C 0.21417 0.17483 0.74584 0.0
H6232 H 0.2229 0.17699 0.70052 0.0
C6233 C 0.23179 0.16372 0.75013 0.0
H6234 H 0.19839 0.18734 0.72293 0.0
C6235 C 0.24576 0.15738 0.73706 0.0
C6236 C 0.24346 0.16193 0.71869 0.0
H6237 H 0.23475 0.15952 0.7638 0.0
H6238 H 0.25867 0.14877 0.7415 0.0
C6239 C 0.22587 0.1731 0.71427 0.0
C6240 C 0.13098 0.1057 0.37765 0.0
C6241 C 0.11725 0.10413 0.36342 0.0
H6242 H 0.16158 0.10817 0.38541 0.0
C6243 C 0.12346 0.10521 0.34587 0.0
H6244 H 0.12632 0.10484 0.39128 0.0
C6245 C 0.14339 0.10731 0.34252 0.0
C6246 C 0.15733 0.1082 0.35669 0.0
H6247 H 0.1129 0.10436 0.33476 0.0
H6248 H 0.14789 0.10822 0.32886 0.0
C6249 C 0.15102 0.10762 0.3743 0.0
C6250 C 0.19701 0.91812 0.61085 0.0
C6251 C 0.19479 0.93306 0.62329 0.0
H6252 H 0.20228 0.88819 0.60638 0.0
C6253 C 0.19529 0.92849 0.64149 0.0
H6254 H 0.19616 0.92102 0.59672 0.0
C6255 C 0.19888 0.90954 0.6471 0.0
C6256 C 0.20207 0.89473 0.6346 0.0
H6257 H 0.19373 0.93966 0.65142 0.0
H6258 H 0.19999 0.90665 0.66122 0.0
C6259 C 0.20053 0.89925 0.61641 0.0
C6260 C 0.46198 0.91017 0.89862 0.0
C6261 C 0.47451 0.9146 0.88438 0.0
H6262 H 0.43232 0.90734 0.90862 0.0
C6263 C 0.46379 0.91976 0.86839 0.0
H6264 H 0.46883 0.90587 0.91122 0.0
C6265 C 0.44232 0.92064 0.86678 0.0
C6266 C 0.42966 0.91624 0.88099 0.0
H6267 H 0.4721 0.92307 0.85676 0.0
H6268 H 0.43569 0.92454 0.85398 0.0
C6269 C 0.44047 0.91089 0.89698 0.0
C6270 C 0.33572 0.16004 0.11474 0.0
C6271 C 0.35214 0.14708 0.11514 0.0
H6272 H 0.32583 0.18927 0.11306 0.0
C6273 C 0.37123 0.15332 0.11169 0.0
H6274 H 0.32093 0.15548 0.11763 0.0
C6275 C 0.37402 0.17263 0.10903 0.0
C6276 C 0.35775 0.18574 0.10982 0.0
H6277 H 0.38403 0.14341 0.11182 0.0
H6278 H 0.38896 0.17742 0.10712 0.0
C6279 C 0.33851 0.17931 0.11211 0.0
C6280 C 0.14475 0.89913 0.19546 0.0
C6281 C 0.1519 0.91198 0.20834 0.0
H6282 H 0.11936 0.88977 0.18078 0.0
C6283 C 0.13851 0.92165 0.21951 0.0
H6284 H 0.15479 0.89168 0.18651 0.0
C6285 C 0.11812 0.92046 0.21628 0.0
C6286 C 0.11104 0.90972 0.20176 0.0
H6287 H 0.14381 0.93155 0.22955 0.0
H6288 H 0.10799 0.92931 0.22404 0.0
C6289 C 0.12439 0.89806 0.19214 0.0
C6290 C 0.39967 0.87389 0.37881 0.0
C6291 C 0.39358 0.88261 0.39518 0.0
H6292 H 0.40719 0.84807 0.36356 0.0
C6293 C 0.39071 0.86895 0.40881 0.0
H6294 H 0.40235 0.88292 0.36759 0.0
C6295 C 0.39336 0.84861 0.40633 0.0
C6296 C 0.39913 0.83992 0.39002 0.0
H6297 H 0.38658 0.8738 0.42189 0.0
H6298 H 0.39098 0.83954 0.41761 0.0
C6299 C 0.40236 0.85337 0.37634 0.0
C6300 C 0.45007 0.12059 0.65258 0.0
C6301 C 0.46412 0.12715 0.66551 0.0
H6302 H 0.4197 0.11412 0.6452 0.0
C6303 C 0.45537 0.13308 0.68179 0.0
H6304 H 0.45538 0.11582 0.63978 0.0
C6305 C 0.43421 0.13316 0.68465 0.0
C6306 C 0.41998 0.12674 0.67167 0.0
H6307 H 0.46493 0.13851 0.69233 0.0
H6308 H 0.4291 0.13872 0.69722 0.0
C6309 C 0.429 0.11989 0.65573 0.0
C6310 C 0.19188 0.16603 0.91241 0.0
C6311 C 0.19146 0.17748 0.92775 0.0
H6312 H 0.19211 0.13754 0.90198 0.0
C6313 C 0.189 0.16917 0.94439 0.0
H6314 H 0.19376 0.17229 0.89946 0.0
C6315 C 0.18787 0.14952 0.94583 0.0
C6316 C 0.18938 0.13784 0.93067 0.0
H6317 H 0.18822 0.17789 0.95632 0.0
H6318 H 0.18605 0.14345 0.95886 0.0
C6319 C 0.19093 0.14625 0.91387 0.0
C6320 C 0.1562 0.34581 0.12922 0.0
C6321 C 0.15053 0.36503 0.12591 0.0
H6322 H 0.16398 0.32449 0.14862 0.0
C6323 C 0.14898 0.3779 0.14026 0.0
H6324 H 0.15822 0.33567 0.11841 0.0
C6325 C 0.15259 0.37147 0.15763 0.0
C6326 C 0.15769 0.3521 0.16084 0.0
H6327 H 0.14467 0.3928 0.13811 0.0
H6328 H 0.15099 0.38154 0.16855 0.0
C6329 C 0.15962 0.33939 0.14649 0.0
C6330 C 0.64953 0.18037 0.95107 0.0
C6331 C 0.65793 0.16802 0.93818 0.0
H6332 H 0.64523 0.18638 0.97873 0.0
C6333 C 0.66837 0.15132 0.94419 0.0
H6334 H 0.64166 0.19352 0.94708 0.0
C6335 C 0.67051 0.14725 0.96246 0.0
C6336 C 0.66223 0.15968 0.97535 0.0
H6337 H 0.67497 0.14136 0.93477 0.0
H6338 H 0.67897 0.13445 0.96644 0.0
C6339 C 0.65164 0.17629 0.96932 0.0
C6340 C 0.94106 0.84499 0.39897 0.0
C6341 C 0.93515 0.86188 0.40828 0.0
H6342 H 0.94261 0.82918 0.37451 0.0
C6343 C 0.92508 0.87617 0.39761 0.0
H6344 H 0.94812 0.83304 0.40605 0.0
C6345 C 0.92168 0.87379 0.37884 0.0
C6346 C 0.92823 0.85703 0.36957 0.0
H6347 H 0.92005 0.88952 0.40364 0.0
H6348 H 0.9142 0.8854 0.37156 0.0
C6349 C 0.93778 0.84268 0.38036 0.0
C6350 C 0.93074 0.14643 0.13269 0.0
C6351 C 0.95115 0.14712 0.12905 0.0
H6352 H 0.90834 0.14892 0.15243 0.0
C6353 C 0.96482 0.1497 0.14324 0.0
H6354 H 0.91981 0.1445 0.12204 0.0
C6355 C 0.9583 0.15217 0.16053 0.0
C6356 C 0.93788 0.15224 0.16417 0.0
H6357 H 0.98067 0.14976 0.141 0.0
H6358 H 0.96936 0.15403 0.1711 0.0
C6359 C 0.92417 0.14896 0.1501 0.0
C6360 C 0.41976 0.64704 0.65144 0.0
C6361 C 0.43344 0.6485 0.66584 0.0
H6362 H 0.41553 0.6449 0.62315 0.0
C6363 C 0.45392 0.64729 0.66246 0.0
H6364 H 0.40388 0.64791 0.65358 0.0
C6365 C 0.46061 0.64545 0.64514 0.0
C6366 C 0.44703 0.64482 0.6306 0.0
H6367 H 0.46489 0.64781 0.67327 0.0
H6368 H 0.47652 0.64452 0.64319 0.0
C6369 C 0.42648 0.64528 0.63399 0.0
C6370 C 0.14925 0.68212 0.44967 0.0
C6371 C 0.15622 0.66818 0.43763 0.0
H6372 H 0.14489 0.68989 0.47692 0.0
C6373 C 0.16365 0.65051 0.44427 0.0
H6374 H 0.14316 0.69575 0.44485 0.0
C6375 C 0.16449 0.647 0.46266 0.0
C6376 C 0.15785 0.66107 0.47487 0.0
H6377 H 0.16888 0.63944 0.43521 0.0
H6378 H 0.1709 0.63345 0.46728 0.0
C6379 C 0.1501 0.67865 0.46805 0.0
C6380 C 0.41759 0.36869 0.87765 0.0
C6381 C 0.42982 0.35656 0.86686 0.0
H6382 H 0.41147 0.38058 0.90361 0.0
C6383 C 0.44639 0.34757 0.87603 0.0
H6384 H 0.40464 0.37614 0.87179 0.0
C6385 C 0.45019 0.34997 0.89458 0.0
C6386 C 0.43783 0.36167 0.90549 0.0
H6387 H 0.457 0.33868 0.86889 0.0
H6388 H 0.46336 0.34272 0.90026 0.0
C6389 C 0.42154 0.37123 0.89633 0.0
C6390 C 0.91061 0.9413 0.69143 0.0
C6391 C 0.89639 0.94128 0.67744 0.0
H6392 H 0.94129 0.94362 0.69886 0.0
C6393 C 0.90234 0.94271 0.65979 0.0
H6394 H 0.90638 0.93972 0.70511 0.0
C6395 C 0.92231 0.94465 0.65623 0.0
C6396 C 0.93632 0.94537 0.67032 0.0
H6397 H 0.89154 0.94284 0.64882 0.0
H6398 H 0.92671 0.94617 0.64258 0.0
C6399 C 0.93048 0.94343 0.68789 0.0
C6400 C 0.85032 0.13929 0.38322 0.0
C6401 C 0.84643 0.15381 0.39584 0.0
H6402 H 0.85589 0.10926 0.37867 0.0
C6403 C 0.84697 0.14896 0.41397 0.0
H6404 H 0.84992 0.14244 0.36914 0.0
C6405 C 0.85029 0.13001 0.4193 0.0
C6406 C 0.85338 0.11541 0.40669 0.0
H6407 H 0.8446 0.15981 0.4241 0.0
H6408 H 0.85034 0.12675 0.43336 0.0
C6409 C 0.85375 0.12028 0.38862 0.0
C6410 C 0.58976 0.13286 0.16612 0.0
C6411 C 0.57885 0.13546 0.14974 0.0
H6412 H 0.61803 0.12982 0.18057 0.0
C6413 C 0.59114 0.13716 0.13477 0.0
H6414 H 0.58161 0.13176 0.17825 0.0
C6415 C 0.61267 0.13626 0.13614 0.0
C6416 C 0.62363 0.13337 0.15256 0.0
H6417 H 0.5841 0.13954 0.1218 0.0
H6418 H 0.62074 0.13769 0.12402 0.0
C6419 C 0.61121 0.1317 0.16747 0.0
C6420 C 0.72059 0.88824 0.91107 0.0
C6421 C 0.70799 0.90076 0.92055 0.0
H6422 H 0.72707 0.85924 0.9035 0.0
C6423 C 0.69303 0.89357 0.93099 0.0
H6424 H 0.73198 0.89357 0.90271 0.0
C6425 C 0.69009 0.87408 0.93123 0.0
C6426 C 0.70224 0.86169 0.92122 0.0
H6427 H 0.6833 0.90305 0.93855 0.0
H6428 H 0.67813 0.8687 0.93892 0.0
C6429 C 0.71775 0.86873 0.91145 0.0
C6430 C 0.91215 0.13747 0.81669 0.0
C6431 C 0.90412 0.12001 0.82135 0.0
H6432 H 0.9387 0.15319 0.81482 0.0
C6433 C 0.9168 0.10372 0.82338 0.0
H6434 H 0.90259 0.15017 0.81479 0.0
C6435 C 0.93728 0.10543 0.8234 0.0
C6436 C 0.9454 0.12346 0.82136 0.0
H6437 H 0.91113 0.0901 0.82718 0.0
H6438 H 0.94655 0.09303 0.82723 0.0
C6439 C 0.93275 0.1392 0.8167 0.0
C6440 C 0.66063 0.18031 0.62311 0.0
C6441 C 0.65876 0.16713 0.63734 0.0
H6442 H 0.65962 0.20942 0.61343 0.0
C6443 C 0.654 0.1764 0.65381 0.0
H6444 H 0.66428 0.17507 0.61004 0.0
C6445 C 0.6514 0.19694 0.65579 0.0
C6446 C 0.65346 0.20989 0.64149 0.0
H6447 H 0.65202 0.1678 0.66546 0.0
H6448 H 0.64756 0.20267 0.66869 0.0
C6449 C 0.65806 0.20071 0.62511 0.0
C6450 C 0.6187 0.91575 0.3474 0.0
C6451 C 0.63289 0.9222 0.3604 0.0
H6452 H 0.58799 0.9105 0.33956 0.0
C6453 C 0.62375 0.92917 0.37626 0.0
H6454 H 0.6239 0.91015 0.33487 0.0
C6455 C 0.60262 0.92842 0.37936 0.0
C6456 C 0.58861 0.92182 0.36639 0.0
H6457 H 0.63303 0.93489 0.38682 0.0
H6458 H 0.59724 0.93323 0.39212 0.0
C6459 C 0.59749 0.91589 0.35016 0.0
C6460 C 0.87771 0.90062 0.11121 0.0
C6461 C 0.86039 0.91086 0.10537 0.0
H6462 H 0.8913 0.87311 0.11676 0.0
C6463 C 0.84271 0.90125 0.10219 0.0
H6464 H 0.89155 0.90778 0.11362 0.0
C6465 C 0.84252 0.88152 0.10409 0.0
C6466 C 0.86003 0.87113 0.10914 0.0
H6467 H 0.8291 0.90897 0.09799 0.0
H6468 H 0.82878 0.87433 0.10126 0.0
C6469 C 0.87753 0.88085 0.11306 0.0
C6470 C 0.89467 0.67784 0.87652 0.0
C6471 C 0.89148 0.69748 0.8731 0.0
H6472 H 0.90081 0.65627 0.89618 0.0
C6473 C 0.8909 0.71045 0.88735 0.0
H6474 H 0.89524 0.66753 0.86572 0.0
C6475 C 0.89391 0.70403 0.90469 0.0
C6476 C 0.8978 0.68451 0.90816 0.0
H6477 H 0.888 0.7256 0.8851 0.0
H6478 H 0.89312 0.71443 0.9154 0.0
C6479 C 0.89783 0.6714 0.89393 0.0
C6480 C 0.4036 0.87522 0.06202 0.0
C6481 C 0.39289 0.89184 0.05612 0.0
H6482 H 0.41349 0.85782 0.08429 0.0
C6483 C 0.38459 0.9042 0.06903 0.0
H6484 H 0.41017 0.86527 0.05257 0.0
C6485 C 0.3867 0.89994 0.08721 0.0
C6486 C 0.39673 0.88301 0.09295 0.0
H6487 H 0.37614 0.91704 0.06512 0.0
H6488 H 0.38034 0.90981 0.09685 0.0
C6489 C 0.4055 0.87088 0.0802 0.0
C6490 C 0.12303 0.17181 0.63643 0.0
C6491 C 0.11894 0.18754 0.62482 0.0
H6492 H 0.12905 0.16155 0.66321 0.0
C6493 C 0.11913 0.20578 0.63317 0.0
H6494 H 0.12316 0.15738 0.63118 0.0
C6495 C 0.12248 0.20819 0.65177 0.0
C6496 C 0.12598 0.19256 0.66351 0.0
H6497 H 0.11691 0.21862 0.62533 0.0
H6498 H 0.12256 0.22268 0.65686 0.0
C6499 C 0.12647 0.17424 0.65519 0.0
C6500 C 0.11296 0.87944 0.87944 0.0
C6501 C 0.11719 0.89521 0.86892 0.0
H6502 H 0.10282 0.86957 0.90427 0.0
C6503 C 0.11516 0.9137 0.87626 0.0
H6504 H 0.11478 0.86499 0.8743 0.0
C6505 C 0.1082 0.91635 0.8935 0.0
C6506 C 0.10311 0.90056 0.90371 0.0
H6507 H 0.11817 0.92613 0.86842 0.0
H6508 H 0.10611 0.9308 0.89857 0.0
C6509 C 0.10602 0.88207 0.8966 0.0
C6510 C 0.62009 0.41621 0.37501 0.0
C6511 C 0.62345 0.398 0.36737 0.0
H6512 H 0.6101 0.43223 0.39765 0.0
C6513 C 0.6208 0.38174 0.37777 0.0
H6514 H 0.62192 0.42902 0.3673 0.0
C6515 C 0.61415 0.38355 0.39511 0.0
C6516 C 0.60983 0.40168 0.40254 0.0
H6517 H 0.62369 0.36752 0.37241 0.0
H6518 H 0.61228 0.37065 0.40266 0.0
C6519 C 0.6133 0.41803 0.39241 0.0
C6520 C 0.8862 0.40288 0.57003 0.0
C6521 C 0.89428 0.38987 0.55753 0.0
H6522 H 0.88054 0.40887 0.59755 0.0
C6523 C 0.90314 0.37252 0.56386 0.0
H6524 H 0.87908 0.41627 0.56576 0.0
C6525 C 0.90347 0.36814 0.58204 0.0
C6526 C 0.89495 0.38096 0.59435 0.0
H6527 H 0.90942 0.36206 0.55472 0.0
H6528 H 0.91014 0.35459 0.58649 0.0
C6529 C 0.88673 0.39854 0.58823 0.0
C6530 C 0.62116 0.673 0.13856 0.0
C6531 C 0.61662 0.68849 0.12678 0.0
H6532 H 0.62806 0.66321 0.16532 0.0
C6533 C 0.61632 0.70685 0.1349 0.0
H6534 H 0.62194 0.65852 0.13341 0.0
C6535 C 0.62011 0.7096 0.15344 0.0
C6536 C 0.62439 0.69419 0.16532 0.0
H6537 H 0.61276 0.71943 0.12698 0.0
H6538 H 0.61978 0.72416 0.15836 0.0
C6539 C 0.62497 0.67576 0.15722 0.0
C6540 C 0.62454 0.58432 0.86888 0.0
C6541 C 0.61214 0.60081 0.87026 0.0
H6542 H 0.6538 0.57307 0.86374 0.0
C6543 C 0.62 0.61898 0.86873 0.0
H6544 H 0.61873 0.57019 0.87031 0.0
C6545 C 0.63998 0.62059 0.86512 0.0
C6546 C 0.6521 0.60404 0.86291 0.0
H6547 H 0.61057 0.63186 0.86957 0.0
H6548 H 0.64577 0.63468 0.86337 0.0
C6549 C 0.64445 0.58593 0.86513 0.0
C6550 C 0.7083 0.41513 0.14712 0.0
C6551 C 0.71157 0.40046 0.13452 0.0
H6552 H 0.70249 0.44513 0.15159 0.0
C6553 C 0.7096 0.40503 0.11635 0.0
H6554 H 0.70978 0.4122 0.16121 0.0
C6555 C 0.70543 0.42386 0.11091 0.0
C6556 C 0.70297 0.43866 0.12345 0.0
H6557 H 0.71146 0.39406 0.10626 0.0
H6558 H 0.7042 0.42683 0.09681 0.0
C6559 C 0.70409 0.43402 0.14163 0.0
C6560 C 0.9682 0.42061 0.36661 0.0
C6561 C 0.97893 0.41734 0.383 0.0
H6562 H 0.94032 0.42396 0.3518 0.0
C6563 C 0.96628 0.4146 0.3976 0.0
H6564 H 0.97654 0.42258 0.35471 0.0
C6565 C 0.9447 0.41528 0.39592 0.0
C6566 C 0.93385 0.41869 0.37947 0.0
H6567 H 0.97308 0.41173 0.41057 0.0
H6568 H 0.93659 0.41293 0.40785 0.0
C6569 C 0.94671 0.42127 0.36491 0.0
C6570 C 0.83239 0.67642 0.60888 0.0
C6571 C 0.85131 0.68291 0.60524 0.0
H6572 H 0.81532 0.65244 0.61507 0.0
C6573 C 0.86717 0.66974 0.60236 0.0
H6574 H 0.82003 0.68639 0.61141 0.0
C6575 C 0.86447 0.6503 0.60444 0.0
C6576 C 0.84589 0.64394 0.60943 0.0
H6577 H 0.88184 0.67455 0.59937 0.0
H6578 H 0.87711 0.64034 0.60309 0.0
C6579 C 0.82969 0.65702 0.61094 0.0
C6580 C 0.63325 0.44831 0.7046 0.0
C6581 C 0.64361 0.43159 0.71048 0.0
H6582 H 0.60579 0.46053 0.69454 0.0
C6583 C 0.63292 0.41553 0.71491 0.0
H6584 H 0.64105 0.46083 0.70075 0.0
C6585 C 0.61253 0.41533 0.71113 0.0
C6586 C 0.60275 0.43127 0.70314 0.0
H6587 H 0.64061 0.40253 0.71958 0.0
H6588 H 0.60475 0.40226 0.71311 0.0
C6589 C 0.61296 0.44813 0.70091 0.0
C6590 C 0.89068 0.346 0.90724 0.0
C6591 C 0.89442 0.33709 0.89053 0.0
H6592 H 0.88518 0.37138 0.92295 0.0
C6593 C 0.8956 0.35036 0.87634 0.0
H6594 H 0.8898 0.33708 0.91887 0.0
C6595 C 0.89299 0.37089 0.87873 0.0
C6596 C 0.88914 0.37986 0.89555 0.0
H6597 H 0.89872 0.34489 0.86318 0.0
H6598 H 0.89426 0.37972 0.86713 0.0
C6599 C 0.88813 0.36638 0.90965 0.0
C6600 C 0.93022 0.63462 0.1509 0.0
C6601 C 0.92142 0.63578 0.16803 0.0
H6602 H 0.95671 0.63386 0.13477 0.0
C6603 C 0.93598 0.63677 0.18222 0.0
H6604 H 0.92067 0.63382 0.13914 0.0
C6605 C 0.95717 0.6368 0.17956 0.0
C6606 C 0.96587 0.6357 0.1625 0.0
H6607 H 0.93114 0.63801 0.19575 0.0
H6608 H 0.96689 0.63796 0.19121 0.0
C6609 C 0.95151 0.63457 0.14825 0.0
C6610 C 0.69713 0.65197 0.44788 0.0
C6611 C 0.69752 0.64009 0.4328 0.0
H6612 H 0.69805 0.68048 0.45798 0.0
C6613 C 0.69822 0.6483 0.41581 0.0
H6614 H 0.69598 0.64611 0.46108 0.0
C6615 C 0.69909 0.66806 0.41405 0.0
C6616 C 0.69949 0.67975 0.42925 0.0
H6617 H 0.69861 0.63946 0.40394 0.0
H6618 H 0.70005 0.67415 0.40092 0.0
C6619 C 0.6982 0.67161 0.44612 0.0
C6620 C 0.64949 0.86764 0.65554 0.0
C6621 C 0.65455 0.8481 0.65787 0.0
H6622 H 0.64153 0.89001 0.63702 0.0
C6623 C 0.65655 0.83623 0.64292 0.0
H6624 H 0.64784 0.87711 0.6669 0.0
C6625 C 0.65307 0.84357 0.62596 0.0
C6626 C 0.64729 0.86293 0.62355 0.0
H6627 H 0.66095 0.82124 0.64433 0.0
H6628 H 0.65505 0.83404 0.6147 0.0
C6629 C 0.64587 0.87501 0.63848 0.0
C6630 C 0.43212 0.43111 0.16262 0.0
C6631 C 0.44022 0.44926 0.16206 0.0
H6632 H 0.4062 0.41536 0.16729 0.0
C6633 C 0.42803 0.46576 0.16436 0.0
H6634 H 0.44138 0.41821 0.16106 0.0
C6635 C 0.40813 0.46412 0.16812 0.0
C6636 C 0.40025 0.44598 0.16943 0.0
H6637 H 0.43402 0.47989 0.16368 0.0
H6638 H 0.39896 0.47697 0.17027 0.0
C6639 C 0.41214 0.42948 0.16624 0.0
C6640 C 0.34899 0.61571 0.89104 0.0
C6641 C 0.34892 0.61098 0.90918 0.0
H6642 H 0.34423 0.63757 0.87134 0.0
C6643 C 0.34524 0.62566 0.92162 0.0
H6644 H 0.35158 0.6047 0.88115 0.0
C6645 C 0.341 0.64442 0.91608 0.0
C6646 C 0.34025 0.64907 0.89791 0.0
H6647 H 0.34555 0.62263 0.93573 0.0
H6648 H 0.33815 0.65531 0.92608 0.0
C6649 C 0.34475 0.63456 0.88545 0.0
C6650 C 0.08385 0.62519 0.66415 0.0
C6651 C 0.07305 0.63145 0.64853 0.0
H6652 H 0.11203 0.61942 0.67817 0.0
C6653 C 0.08551 0.63689 0.63457 0.0
H6654 H 0.07561 0.62105 0.67556 0.0
C6655 C 0.10704 0.63607 0.63612 0.0
C6656 C 0.11794 0.62961 0.65172 0.0
H6657 H 0.07859 0.64207 0.62226 0.0
H6658 H 0.11512 0.64044 0.62471 0.0
C6659 C 0.10534 0.62422 0.66566 0.0
C6660 C 0.18818 0.39921 0.41233 0.0
C6661 C 0.20298 0.40707 0.42329 0.0
H6662 H 0.17446 0.37382 0.40346 0.0
C6663 C 0.21418 0.39556 0.4353 0.0
H6664 H 0.1797 0.40795 0.40273 0.0
C6665 C 0.21092 0.37609 0.43602 0.0
C6666 C 0.19676 0.36798 0.42444 0.0
H6667 H 0.2257 0.40156 0.44376 0.0
H6668 H 0.2198 0.36733 0.4453 0.0
C6669 C 0.18518 0.37974 0.41279 0.0
C6670 C 0.44097 0.62809 0.32583 0.0
C6671 C 0.44924 0.61268 0.33567 0.0
H6672 H 0.4142 0.64123 0.31483 0.0
C6673 C 0.43795 0.59683 0.3392 0.0
H6674 H 0.4497 0.64034 0.32294 0.0
C6675 C 0.41784 0.59732 0.33459 0.0
C6676 C 0.40905 0.61366 0.32643 0.0
H6677 H 0.44418 0.58493 0.34696 0.0
H6678 H 0.40888 0.58584 0.33907 0.0
C6679 C 0.42086 0.62855 0.32114 0.0
C6680 C 0.16595 0.68299 0.12353 0.0
C6681 C 0.16431 0.66945 0.13751 0.0
H6682 H 0.16481 0.71234 0.11442 0.0
C6683 C 0.15983 0.67839 0.15422 0.0
H6684 H 0.16937 0.67804 0.11031 0.0
C6685 C 0.15726 0.69893 0.15662 0.0
C6686 C 0.15908 0.71224 0.14256 0.0
H6687 H 0.15805 0.66953 0.16573 0.0
H6688 H 0.15365 0.70435 0.16969 0.0
C6689 C 0.16342 0.70337 0.12595 0.0
C6690 C 0.09396 0.41132 0.84975 0.0
C6691 C 0.08508 0.41804 0.86576 0.0
H6692 H 0.12035 0.40489 0.83454 0.0
C6693 C 0.09919 0.42541 0.87827 0.0
H6694 H 0.08443 0.40539 0.83944 0.0
C6695 C 0.12033 0.42609 0.87499 0.0
C6696 C 0.12949 0.41829 0.85943 0.0
H6697 H 0.09388 0.43089 0.89083 0.0
H6698 H 0.12965 0.43231 0.88527 0.0
C6699 C 0.1152 0.41111 0.84685 0.0
C6700 C 0.3347 0.38283 0.60186 0.0
C6701 C 0.35193 0.3714 0.60561 0.0
H6702 H 0.3226 0.41093 0.59635 0.0
C6703 C 0.37039 0.37999 0.60785 0.0
H6704 H 0.32023 0.37658 0.60042 0.0
C6705 C 0.37168 0.39964 0.60569 0.0
C6706 C 0.35455 0.41086 0.60112 0.0
H6707 H 0.38394 0.37146 0.61055 0.0
H6708 H 0.38613 0.40594 0.60693 0.0
C6709 C 0.33602 0.40241 0.59953 0.0
C6710 C 0.40505 0.17363 0.39351 0.0
C6711 C 0.40616 0.18628 0.40804 0.0
H6712 H 0.40175 0.1707 0.36524 0.0
C6713 C 0.40404 0.20607 0.40505 0.0
H6714 H 0.40665 0.1583 0.39542 0.0
C6715 C 0.40125 0.21313 0.38791 0.0
C6716 C 0.40041 0.20057 0.37334 0.0
H6717 H 0.40421 0.21617 0.41602 0.0
H6718 H 0.39943 0.22845 0.3861 0.0
C6719 C 0.40222 0.18072 0.37627 0.0
loop_
_geom_bond_atom_site_label_1
_geom_bond_atom_site_label_2
_geom_bond_distance
_geom_bond_site_symmetry_2
_ccdc_geom_bond_type
Ho0 C3 2.811 . S
Ho0 O20 2.322 . S
Ho0 O22 2.378 . S
Ho0 O23 2.524 . S
Ho0 O24 2.381 1_455 S
Ho0 O25 2.669 1_455 S
Ho0 O27 2.346 1_455 S
Ho0 O31 2.305 . S
Ho1 C12 2.811 . S
Ho1 O21 2.346 1_655 S
Ho1 O25 2.305 . S
Ho1 O26 2.322 . S
Ho1 O28 2.378 . S
Ho1 O29 2.524 . S
Ho1 O30 2.381 1_655 S
Ho1 O31 2.669 1_655 S
C2 O20 1.259 . S
C2 O21 1.268 . S
C3 Ho0 2.811 . S
C3 C4 1.488 . S
C3 O22 1.215 . S
C3 O23 1.289 . S
C4 C3 1.488 . S
C4 C5 1.348 . S
C4 C9 1.413 . S
C5 C4 1.348 . S
C5 C6 1.442 . S
C5 H32 0.930 . S
C6 C5 1.442 . S
C6 C7 1.381 . S
C6 H33 0.931 . S
C7 C6 1.381 . S
C7 C8 1.321 . S
C8 C7 1.321 . S
C8 C9 1.403 . S
C8 H34 0.934 . S
C9 C4 1.413 . S
C9 C8 1.403 . S
C9 H35 0.930 . S
C10 O24 1.275 . S
C10 O25 1.256 . S
C11 O26 1.259 . S
C11 O27 1.268 . S
C12 Ho1 2.811 . S
C12 C13 1.488 . S
C12 O28 1.215 . S
C12 O29 1.289 . S
C13 C12 1.488 . S
C13 C14 1.348 . S
C13 C18 1.413 . S
C14 C13 1.348 . S
C14 C15 1.442 . S
C14 H36 0.930 . S
C15 C14 1.442 . S
C15 C16 1.381 . S
C15 H37 0.931 . S
C16 C15 1.381 . S
C16 C17 1.321 . S
C17 C16 1.321 . S
C17 C18 1.403 . S
C17 H38 0.934 . S
C18 C13 1.413 . S
C18 C17 1.403 . S
C18 H39 0.930 . S
C19 O30 1.275 . S
C19 O31 1.256 . S
O20 Ho0 2.322 . S
O20 C2 1.259 . S
O21 Ho1 2.346 1_455 S
O21 C2 1.268 . S
O22 Ho0 2.378 . S
O22 C3 1.215 . S
O23 Ho0 2.524 . S
O23 C3 1.289 . S
O24 Ho0 2.381 1_655 S
O24 C10 1.275 . S
O25 Ho0 2.669 1_655 S
O25 Ho1 2.305 . S
O25 C10 1.256 . S
O26 Ho1 2.322 . S
O26 C11 1.259 . S
O27 Ho0 2.346 1_655 S
O27 C11 1.268 . S
O28 Ho1 2.378 . S
O28 C12 1.215 . S
O29 Ho1 2.524 . S
O29 C12 1.289 . S
O30 Ho1 2.381 1_455 S
O30 C19 1.275 . S
O31 Ho0 2.305 . S
O31 Ho1 2.669 1_455 S
O31 C19 1.256 . S
H32 C5 0.930 . S
H33 C6 0.931 . S
H34 C8 0.934 . S
H35 C9 0.930 . S
H36 C14 0.930 . S
H37 C15 0.931 . S
H38 C17 0.934 . S
H39 C18 0.930 . S
Ho40 C43 2.811 . S
Ho40 O60 2.322 . S
Ho40 O62 2.378 . S
Ho40 O63 2.524 . S
Ho40 O64 2.381 . S
Ho40 O65 2.669 . S
Ho40 O67 2.346 . S
Ho40 O71 2.305 . S
Ho41 C52 2.811 . S
Ho41 O61 2.346 . S
Ho41 O65 2.305 . S
Ho41 O66 2.322 . S
Ho41 O68 2.378 . S
Ho41 O69 2.524 . S
Ho41 O70 2.381 . S
Ho41 O71 2.669 . S
C42 O60 1.259 . S
C42 O61 1.268 . S
C43 Ho40 2.811 . S
C43 C44 1.488 . S
C43 O62 1.215 . S
C43 O63 1.289 . S
C44 C43 1.488 . S
C44 C45 1.348 . S
C44 C49 1.413 . S
C45 C44 1.348 . S
C45 C46 1.442 . S
C45 H72 0.930 . S
C46 C45 1.442 . S
C46 C47 1.381 . S
C46 H73 0.931 . S
C47 C46 1.381 . S
C47 C48 1.321 . S
C48 C47 1.321 . S
C48 C49 1.403 . S
C48 H74 0.934 . S
C49 C44 1.413 . S
C49 C48 1.403 . S
C49 H75 0.930 . S
C50 O64 1.275 . S
C50 O65 1.256 . S
C51 O66 1.259 . S
C51 O67 1.268 . S
C52 Ho41 2.811 . S
C52 C53 1.488 . S
C52 O68 1.215 . S
C52 O69 1.289 . S
C53 C52 1.488 . S
C53 C54 1.348 . S
C53 C58 1.413 . S
C54 C53 1.348 . S
C54 C55 1.442 . S
C54 H76 0.930 . S
C55 C54 1.442 . S
C55 C56 1.381 . S
C55 H77 0.931 . S
C56 C55 1.381 . S
C56 C57 1.321 . S
C57 C56 1.321 . S
C57 C58 1.403 . S
C57 H78 0.934 . S
C58 C53 1.413 . S
C58 C57 1.403 . S
C58 H79 0.930 . S
C59 O70 1.275 . S
C59 O71 1.256 . S
O60 Ho40 2.322 . S
O60 C42 1.259 . S
O61 Ho41 2.346 . S
O61 C42 1.268 . S
O62 Ho40 2.378 . S
O62 C43 1.215 . S
O63 Ho40 2.524 . S
O63 C43 1.289 . S
O64 Ho40 2.381 . S
O64 C50 1.275 . S
O65 Ho40 2.669 . S
O65 Ho41 2.305 . S
O65 C50 1.256 . S
O66 Ho41 2.322 . S
O66 C51 1.259 . S
O67 Ho40 2.346 . S
O67 C51 1.268 . S
O68 Ho41 2.378 . S
O68 C52 1.215 . S
O69 Ho41 2.524 . S
O69 C52 1.289 . S
O70 Ho41 2.381 . S
O70 C59 1.275 . S
O71 Ho40 2.305 . S
O71 Ho41 2.669 . S
O71 C59 1.256 . S
H72 C45 0.930 . S
H73 C46 0.931 . S
H74 C48 0.934 . S
H75 C49 0.930 . S
H76 C54 0.930 . S
H77 C55 0.931 . S
H78 C57 0.934 . S
H79 C58 0.930 . S
Ho80 C83 2.811 . S
Ho80 O100 2.322 . S
Ho80 O102 2.378 . S
Ho80 O103 2.524 . S
Ho80 O104 2.381 . S
Ho80 O105 2.669 . S
Ho80 O107 2.346 . S
Ho80 O111 2.305 . S
Ho81 C92 2.811 . S
Ho81 O101 2.346 . S
Ho81 O105 2.305 . S
Ho81 O106 2.322 . S
Ho81 O108 2.378 . S
Ho81 O109 2.524 . S
Ho81 O110 2.381 . S
Ho81 O111 2.669 . S
C82 O100 1.259 . S
C82 O101 1.268 . S
C83 Ho80 2.811 . S
C83 C84 1.488 . S
C83 O102 1.215 . S
C83 O103 1.289 . S
C84 C83 1.488 . S
C84 C85 1.348 . S
C84 C89 1.413 . S
C85 C84 1.348 . S
C85 C86 1.442 . S
C85 H112 0.930 . S
C86 C85 1.442 . S
C86 C87 1.381 . S
C86 H113 0.931 . S
C87 C86 1.381 . S
C87 C88 1.321 . S
C88 C87 1.321 . S
C88 C89 1.403 . S
C88 H114 0.934 . S
C89 C84 1.413 . S
C89 C88 1.403 . S
C89 H115 0.930 . S
C90 O104 1.275 . S
C90 O105 1.256 . S
C91 O106 1.259 . S
C91 O107 1.268 . S
C92 Ho81 2.811 . S
C92 C93 1.488 . S
C92 O108 1.215 . S
C92 O109 1.289 . S
C93 C92 1.488 . S
C93 C94 1.348 . S
C93 C98 1.413 . S
C94 C93 1.348 . S
C94 C95 1.442 . S
C94 H116 0.930 . S
C95 C94 1.442 . S
C95 C96 1.381 . S
C95 H117 0.931 . S
C96 C95 1.381 . S
C96 C97 1.321 . S
C97 C96 1.321 . S
C97 C98 1.403 . S
C97 H118 0.934 . S
C98 C93 1.413 . S
C98 C97 1.403 . S
C98 H119 0.930 . S
C99 O110 1.275 . S
C99 O111 1.256 . S
O100 Ho80 2.322 . S
O100 C82 1.259 . S
O101 Ho81 2.346 . S
O101 C82 1.268 . S
O102 Ho80 2.378 . S
O102 C83 1.215 . S
O103 Ho80 2.524 . S
O103 C83 1.289 . S
O104 Ho80 2.381 . S
O104 C90 1.275 . S
O105 Ho80 2.669 . S
O105 Ho81 2.305 . S
O105 C90 1.256 . S
O106 Ho81 2.322 . S
O106 C91 1.259 . S
O107 Ho80 2.346 . S
O107 C91 1.268 . S
O108 Ho81 2.378 . S
O108 C92 1.215 . S
O109 Ho81 2.524 . S
O109 C92 1.289 . S
O110 Ho81 2.381 . S
O110 C99 1.275 . S
O111 Ho80 2.305 . S
O111 Ho81 2.669 . S
O111 C99 1.256 . S
H112 C85 0.930 . S
H113 C86 0.931 . S
H114 C88 0.934 . S
H115 C89 0.930 . S
H116 C94 0.930 . S
H117 C95 0.931 . S
H118 C97 0.934 . S
H119 C98 0.930 . S
Ho120 C123 2.811 . S
Ho120 O140 2.322 . S
Ho120 O142 2.378 . S
Ho120 O143 2.524 . S
Ho120 O144 2.381 . S
Ho120 O145 2.669 . S
Ho120 O147 2.346 . S
Ho120 O151 2.305 . S
Ho121 C132 2.811 . S
Ho121 O141 2.346 . S
Ho121 O145 2.305 . S
Ho121 O146 2.322 . S
Ho121 O148 2.378 . S
Ho121 O149 2.524 . S
Ho121 O150 2.381 . S
Ho121 O151 2.669 . S
C122 O140 1.259 . S
C122 O141 1.268 . S
C123 Ho120 2.811 . S
C123 C124 1.488 . S
C123 O142 1.215 . S
C123 O143 1.289 . S
C124 C123 1.488 . S
C124 C125 1.348 . S
C124 C129 1.413 . S
C125 C124 1.348 . S
C125 C126 1.442 . S
C125 H152 0.930 . S
C126 C125 1.442 . S
C126 C127 1.381 . S
C126 H153 0.931 . S
C127 C126 1.381 . S
C127 C128 1.321 . S
C128 C127 1.321 . S
C128 C129 1.403 . S
C128 H154 0.934 . S
C129 C124 1.413 . S
C129 C128 1.403 . S
C129 H155 0.930 . S
C130 O144 1.275 . S
C130 O145 1.256 . S
C131 O146 1.259 . S
C131 O147 1.268 . S
C132 Ho121 2.811 . S
C132 C133 1.488 . S
C132 O148 1.215 . S
C132 O149 1.289 . S
C133 C132 1.488 . S
C133 C134 1.348 . S
C133 C138 1.413 . S
C134 C133 1.348 . S
C134 C135 1.442 . S
C134 H156 0.930 . S
C135 C134 1.442 . S
C135 C136 1.381 . S
C135 H157 0.931 . S
C136 C135 1.381 . S
C136 C137 1.321 . S
C137 C136 1.321 . S
C137 C138 1.403 . S
C137 H158 0.934 . S
C138 C133 1.413 . S
C138 C137 1.403 . S
C138 H159 0.930 . S
C139 O150 1.275 . S
C139 O151 1.256 . S
O140 Ho120 2.322 . S
O140 C122 1.259 . S
O141 Ho121 2.346 . S
O141 C122 1.268 . S
O142 Ho120 2.378 . S
O142 C123 1.215 . S
O143 Ho120 2.524 . S
O143 C123 1.289 . S
O144 Ho120 2.381 . S
O144 C130 1.275 . S
O145 Ho120 2.669 . S
O145 Ho121 2.305 . S
O145 C130 1.256 . S
O146 Ho121 2.322 . S
O146 C131 1.259 . S
O147 Ho120 2.346 . S
O147 C131 1.268 . S
O148 Ho121 2.378 . S
O148 C132 1.215 . S
O149 Ho121 2.524 . S
O149 C132 1.289 . S
O150 Ho121 2.381 . S
O150 C139 1.275 . S
O151 Ho120 2.305 . S
O151 Ho121 2.669 . S
O151 C139 1.256 . S
H152 C125 0.930 . S
H153 C126 0.931 . S
H154 C128 0.934 . S
H155 C129 0.930 . S
H156 C134 0.930 . S
H157 C135 0.931 . S
H158 C137 0.934 . S
H159 C138 0.930 . S
Ho160 C163 2.811 . S
Ho160 O180 2.322 . S
Ho160 O182 2.378 . S
Ho160 O183 2.524 . S
Ho160 O184 2.381 1_455 S
Ho160 O185 2.669 1_455 S
Ho160 O187 2.346 1_455 S
Ho160 O191 2.305 . S
Ho161 C172 2.811 . S
Ho161 O181 2.346 1_655 S
Ho161 O185 2.305 . S
Ho161 O186 2.322 . S
Ho161 O188 2.378 . S
Ho161 O189 2.524 . S
Ho161 O190 2.381 1_655 S
Ho161 O191 2.669 1_655 S
C162 O180 1.259 . S
C162 O181 1.268 . S
C163 Ho160 2.811 . S
C163 C164 1.488 . S
C163 O182 1.215 . S
C163 O183 1.289 . S
C164 C163 1.488 . S
C164 C165 1.348 . S
C164 C169 1.413 . S
C165 C164 1.348 . S
C165 C166 1.442 . S
C165 H192 0.930 . S
C166 C165 1.442 . S
C166 C167 1.381 . S
C166 H193 0.931 . S
C167 C166 1.381 . S
C167 C168 1.321 . S
C168 C167 1.321 . S
C168 C169 1.403 . S
C168 H194 0.934 . S
C169 C164 1.413 . S
C169 C168 1.403 . S
C169 H195 0.930 . S
C170 O184 1.275 . S
C170 O185 1.256 . S
C171 O186 1.259 . S
C171 O187 1.268 . S
C172 Ho161 2.811 . S
C172 C173 1.488 . S
C172 O188 1.215 . S
C172 O189 1.289 . S
C173 C172 1.488 . S
C173 C174 1.348 . S
C173 C178 1.413 . S
C174 C173 1.348 . S
C174 C175 1.442 . S
C174 H196 0.930 . S
C175 C174 1.442 . S
C175 C176 1.381 . S
C175 H197 0.931 . S
C176 C175 1.381 . S
C176 C177 1.321 . S
C177 C176 1.321 . S
C177 C178 1.403 . S
C177 H198 0.934 . S
C178 C173 1.413 . S
C178 C177 1.403 . S
C178 H199 0.930 . S
C179 O190 1.275 . S
C179 O191 1.256 . S
O180 Ho160 2.322 . S
O180 C162 1.259 . S
O181 Ho161 2.346 1_455 S
O181 C162 1.268 . S
O182 Ho160 2.378 . S
O182 C163 1.215 . S
O183 Ho160 2.524 . S
O183 C163 1.289 . S
O184 Ho160 2.381 1_655 S
O184 C170 1.275 . S
O185 Ho160 2.669 1_655 S
O185 Ho161 2.305 . S
O185 C170 1.256 . S
O186 Ho161 2.322 . S
O186 C171 1.259 . S
O187 Ho160 2.346 1_655 S
O187 C171 1.268 . S
O188 Ho161 2.378 . S
O188 C172 1.215 . S
O189 Ho161 2.524 . S
O189 C172 1.289 . S
O190 Ho161 2.381 1_455 S
O190 C179 1.275 . S
O191 Ho160 2.305 . S
O191 Ho161 2.669 1_455 S
O191 C179 1.256 . S
H192 C165 0.930 . S
H193 C166 0.931 . S
H194 C168 0.934 . S
H195 C169 0.930 . S
H196 C174 0.930 . S
H197 C175 0.931 . S
H198 C177 0.934 . S
H199 C178 0.930 . S
Ho200 C203 2.811 . S
Ho200 O220 2.322 . S
Ho200 O222 2.378 . S
Ho200 O223 2.524 . S
Ho200 O224 2.381 . S
Ho200 O225 2.669 . S
Ho200 O227 2.346 . S
Ho200 O231 2.305 . S
Ho201 C212 2.811 . S
Ho201 O221 2.346 . S
Ho201 O225 2.305 . S
Ho201 O226 2.322 . S
Ho201 O228 2.378 . S
Ho201 O229 2.524 . S
Ho201 O230 2.381 . S
Ho201 O231 2.669 . S
C202 O220 1.259 . S
C202 O221 1.268 . S
C203 Ho200 2.811 . S
C203 C204 1.488 . S
C203 O222 1.215 . S
C203 O223 1.289 . S
C204 C203 1.488 . S
C204 C205 1.348 . S
C204 C209 1.413 . S
C205 C204 1.348 . S
C205 C206 1.442 . S
C205 H232 0.930 . S
C206 C205 1.442 . S
C206 C207 1.381 . S
C206 H233 0.931 . S
C207 C206 1.381 . S
C207 C208 1.321 . S
C208 C207 1.321 . S
C208 C209 1.403 . S
C208 H234 0.934 . S
C209 C204 1.413 . S
C209 C208 1.403 . S
C209 H235 0.930 . S
C210 O224 1.275 . S
C210 O225 1.256 . S
C211 O226 1.259 . S
C211 O227 1.268 . S
C212 Ho201 2.811 . S
C212 C213 1.488 . S
C212 O228 1.215 . S
C212 O229 1.289 . S
C213 C212 1.488 . S
C213 C214 1.348 . S
C213 C218 1.413 . S
C214 C213 1.348 . S
C214 C215 1.442 . S
C214 H236 0.930 . S
C215 C214 1.442 . S
C215 C216 1.381 . S
C215 H237 0.931 . S
C216 C215 1.381 . S
C216 C217 1.321 . S
C217 C216 1.321 . S
C217 C218 1.403 . S
C217 H238 0.934 . S
C218 C213 1.413 . S
C218 C217 1.403 . S
C218 H239 0.930 . S
C219 O230 1.275 . S
C219 O231 1.256 . S
O220 Ho200 2.322 . S
O220 C202 1.259 . S
O221 Ho201 2.346 . S
O221 C202 1.268 . S
O222 Ho200 2.378 . S
O222 C203 1.215 . S
O223 Ho200 2.524 . S
O223 C203 1.289 . S
O224 Ho200 2.381 . S
O224 C210 1.275 . S
O225 Ho200 2.669 . S
O225 Ho201 2.305 . S
O225 C210 1.256 . S
O226 Ho201 2.322 . S
O226 C211 1.259 . S
O227 Ho200 2.346 . S
O227 C211 1.268 . S
O228 Ho201 2.378 . S
O228 C212 1.215 . S
O229 Ho201 2.524 . S
O229 C212 1.289 . S
O230 Ho201 2.381 . S
O230 C219 1.275 . S
O231 Ho200 2.305 . S
O231 Ho201 2.669 . S
O231 C219 1.256 . S
H232 C205 0.930 . S
H233 C206 0.931 . S
H234 C208 0.934 . S
H235 C209 0.930 . S
H236 C214 0.930 . S
H237 C215 0.931 . S
H238 C217 0.934 . S
H239 C218 0.930 . S
Ho240 C243 2.811 . S
Ho240 O260 2.322 . S
Ho240 O262 2.378 . S
Ho240 O263 2.524 . S
Ho240 O264 2.381 . S
Ho240 O265 2.669 . S
Ho240 O267 2.346 . S
Ho240 O271 2.305 . S
Ho241 C252 2.811 . S
Ho241 O261 2.346 . S
Ho241 O265 2.305 . S
Ho241 O266 2.322 . S
Ho241 O268 2.378 . S
Ho241 O269 2.524 . S
Ho241 O270 2.381 . S
Ho241 O271 2.669 . S
C242 O260 1.259 . S
C242 O261 1.268 . S
C243 Ho240 2.811 . S
C243 C244 1.488 . S
C243 O262 1.215 . S
C243 O263 1.289 . S
C244 C243 1.488 . S
C244 C245 1.348 . S
C244 C249 1.413 . S
C245 C244 1.348 . S
C245 C246 1.442 . S
C245 H272 0.930 . S
C246 C245 1.442 . S
C246 C247 1.381 . S
C246 H273 0.931 . S
C247 C246 1.381 . S
C247 C248 1.321 . S
C248 C247 1.321 . S
C248 C249 1.403 . S
C248 H274 0.934 . S
C249 C244 1.413 . S
C249 C248 1.403 . S
C249 H275 0.930 . S
C250 O264 1.275 . S
C250 O265 1.256 . S
C251 O266 1.259 . S
C251 O267 1.268 . S
C252 Ho241 2.811 . S
C252 C253 1.488 . S
C252 O268 1.215 . S
C252 O269 1.289 . S
C253 C252 1.488 . S
C253 C254 1.348 . S
C253 C258 1.413 . S
C254 C253 1.348 . S
C254 C255 1.442 . S
C254 H276 0.930 . S
C255 C254 1.442 . S
C255 C256 1.381 . S
C255 H277 0.931 . S
C256 C255 1.381 . S
C256 C257 1.321 . S
C257 C256 1.321 . S
C257 C258 1.403 . S
C257 H278 0.934 . S
C258 C253 1.413 . S
C258 C257 1.403 . S
C258 H279 0.930 . S
C259 O270 1.275 . S
C259 O271 1.256 . S
O260 Ho240 2.322 . S
O260 C242 1.259 . S
O261 Ho241 2.346 . S
O261 C242 1.268 . S
O262 Ho240 2.378 . S
O262 C243 1.215 . S
O263 Ho240 2.524 . S
O263 C243 1.289 . S
O264 Ho240 2.381 . S
O264 C250 1.275 . S
O265 Ho240 2.669 . S
O265 Ho241 2.305 . S
O265 C250 1.256 . S
O266 Ho241 2.322 . S
O266 C251 1.259 . S
O267 Ho240 2.346 . S
O267 C251 1.268 . S
O268 Ho241 2.378 . S
O268 C252 1.215 . S
O269 Ho241 2.524 . S
O269 C252 1.289 . S
O270 Ho241 2.381 . S
O270 C259 1.275 . S
O271 Ho240 2.305 . S
O271 Ho241 2.669 . S
O271 C259 1.256 . S
H272 C245 0.930 . S
H273 C246 0.931 . S
H274 C248 0.934 . S
H275 C249 0.930 . S
H276 C254 0.930 . S
H277 C255 0.931 . S
H278 C257 0.934 . S
H279 C258 0.930 . S
Ho280 C283 2.811 . S
Ho280 O300 2.322 . S
Ho280 O302 2.378 . S
Ho280 O303 2.524 . S
Ho280 O304 2.381 . S
Ho280 O305 2.669 . S
Ho280 O307 2.346 . S
Ho280 O311 2.305 . S
Ho281 C292 2.811 . S
Ho281 O301 2.346 . S
Ho281 O305 2.305 . S
Ho281 O306 2.322 . S
Ho281 O308 2.378 . S
Ho281 O309 2.524 . S
Ho281 O310 2.381 . S
Ho281 O311 2.669 . S
C282 O300 1.259 . S
C282 O301 1.268 . S
C283 Ho280 2.811 . S
C283 C284 1.488 . S
C283 O302 1.215 . S
C283 O303 1.289 . S
C284 C283 1.488 . S
C284 C285 1.348 . S
C284 C289 1.413 . S
C285 C284 1.348 . S
C285 C286 1.442 . S
C285 H312 0.930 . S
C286 C285 1.442 . S
C286 C287 1.381 . S
C286 H313 0.931 . S
C287 C286 1.381 . S
C287 C288 1.321 . S
C288 C287 1.321 . S
C288 C289 1.403 . S
C288 H314 0.934 . S
C289 C284 1.413 . S
C289 C288 1.403 . S
C289 H315 0.930 . S
C290 O304 1.275 . S
C290 O305 1.256 . S
C291 O306 1.259 . S
C291 O307 1.268 . S
C292 Ho281 2.811 . S
C292 C293 1.488 . S
C292 O308 1.215 . S
C292 O309 1.289 . S
C293 C292 1.488 . S
C293 C294 1.348 . S
C293 C298 1.413 . S
C294 C293 1.348 . S
C294 C295 1.442 . S
C294 H316 0.930 . S
C295 C294 1.442 . S
C295 C296 1.381 . S
C295 H317 0.931 . S
C296 C295 1.381 . S
C296 C297 1.321 . S
C297 C296 1.321 . S
C297 C298 1.403 . S
C297 H318 0.934 . S
C298 C293 1.413 . S
C298 C297 1.403 . S
C298 H319 0.930 . S
C299 O310 1.275 . S
C299 O311 1.256 . S
O300 Ho280 2.322 . S
O300 C282 1.259 . S
O301 Ho281 2.346 . S
O301 C282 1.268 . S
O302 Ho280 2.378 . S
O302 C283 1.215 . S
O303 Ho280 2.524 . S
O303 C283 1.289 . S
O304 Ho280 2.381 . S
O304 C290 1.275 . S
O305 Ho280 2.669 . S
O305 Ho281 2.305 . S
O305 C290 1.256 . S
O306 Ho281 2.322 . S
O306 C291 1.259 . S
O307 Ho280 2.346 . S
O307 C291 1.268 . S
O308 Ho281 2.378 . S
O308 C292 1.215 . S
O309 Ho281 2.524 . S
O309 C292 1.289 . S
O310 Ho281 2.381 . S
O310 C299 1.275 . S
O311 Ho280 2.305 . S
O311 Ho281 2.669 . S
O311 C299 1.256 . S
H312 C285 0.930 . S
H313 C286 0.931 . S
H314 C288 0.934 . S
H315 C289 0.930 . S
H316 C294 0.930 . S
H317 C295 0.931 . S
H318 C297 0.934 . S
H319 C298 0.930 . S
Ho320 C323 2.811 . S
Ho320 O340 2.322 . S
Ho320 O342 2.378 . S
Ho320 O343 2.524 . S
Ho320 O344 2.381 . S
Ho320 O345 2.669 . S
Ho320 O347 2.346 . S
Ho320 O351 2.305 . S
Ho321 C332 2.811 1_545 S
Ho321 O341 2.346 . S
Ho321 O345 2.305 . S
Ho321 O346 2.323 . S
Ho321 O348 2.378 1_545 S
Ho321 O349 2.524 1_545 S
Ho321 O350 2.381 . S
Ho321 O351 2.669 . S
C322 O340 1.259 . S
C322 O341 1.268 . S
C323 Ho320 2.811 . S
C323 C324 1.488 . S
C323 O342 1.215 . S
C323 O343 1.289 . S
C324 C323 1.488 . S
C324 C325 1.348 . S
C324 C329 1.413 . S
C325 C324 1.348 . S
C325 C326 1.442 . S
C325 H352 0.930 . S
C326 C325 1.442 . S
C326 C327 1.381 . S
C326 H353 0.931 . S
C327 C326 1.381 . S
C327 C328 1.321 . S
C328 C327 1.321 . S
C328 C329 1.403 . S
C328 H354 0.934 . S
C329 C324 1.413 . S
C329 C328 1.403 . S
C329 H355 0.930 . S
C330 O344 1.275 . S
C330 O345 1.256 . S
C331 O346 1.259 . S
C331 O347 1.268 . S
C332 Ho321 2.811 1_565 S
C332 C333 1.488 . S
C332 O348 1.215 . S
C332 O349 1.289 . S
C333 C332 1.488 . S
C333 C334 1.348 . S
C333 C338 1.413 . S
C334 C333 1.348 . S
C334 C335 1.442 . S
C334 H356 0.930 . S
C335 C334 1.442 . S
C335 C336 1.381 . S
C335 H357 0.931 . S
C336 C335 1.381 . S
C336 C337 1.321 . S
C337 C336 1.321 . S
C337 C338 1.403 . S
C337 H358 0.934 . S
C338 C333 1.413 . S
C338 C337 1.403 . S
C338 H359 0.930 . S
C339 O350 1.275 . S
C339 O351 1.256 . S
O340 Ho320 2.322 . S
O340 C322 1.259 . S
O341 Ho321 2.346 . S
O341 C322 1.268 . S
O342 Ho320 2.378 . S
O342 C323 1.215 . S
O343 Ho320 2.524 . S
O343 C323 1.289 . S
O344 Ho320 2.381 . S
O344 C330 1.275 . S
O345 Ho320 2.669 . S
O345 Ho321 2.305 . S
O345 C330 1.256 . S
O346 Ho321 2.323 . S
O346 C331 1.259 . S
O347 Ho320 2.346 . S
O347 C331 1.268 . S
O348 Ho321 2.378 1_565 S
O348 C332 1.215 . S
O349 Ho321 2.524 1_565 S
O349 C332 1.289 . S
O350 Ho321 2.381 . S
O350 C339 1.275 . S
O351 Ho320 2.305 . S
O351 Ho321 2.669 . S
O351 C339 1.256 . S
H352 C325 0.930 . S
H353 C326 0.931 . S
H354 C328 0.934 . S
H355 C329 0.930 . S
H356 C334 0.930 . S
H357 C335 0.931 . S
H358 C337 0.934 . S
H359 C338 0.930 . S
Ho360 C363 2.811 . S
Ho360 O380 2.322 . S
Ho360 O382 2.378 . S
Ho360 O383 2.524 . S
Ho360 O384 2.381 . S
Ho360 O385 2.669 . S
Ho360 O387 2.346 . S
Ho360 O391 2.305 . S
Ho361 C372 2.811 . S
Ho361 O381 2.346 . S
Ho361 O385 2.305 . S
Ho361 O386 2.322 . S
Ho361 O388 2.378 . S
Ho361 O389 2.524 . S
Ho361 O390 2.381 . S
Ho361 O391 2.669 . S
C362 O380 1.259 . S
C362 O381 1.268 . S
C363 Ho360 2.811 . S
C363 C364 1.488 . S
C363 O382 1.215 . S
C363 O383 1.289 . S
C364 C363 1.488 . S
C364 C365 1.348 . S
C364 C369 1.413 . S
C365 C364 1.348 . S
C365 C366 1.442 . S
C365 H392 0.930 . S
C366 C365 1.442 . S
C366 C367 1.381 . S
C366 H393 0.931 . S
C367 C366 1.381 . S
C367 C368 1.321 . S
C368 C367 1.321 . S
C368 C369 1.403 . S
C368 H394 0.934 . S
C369 C364 1.413 . S
C369 C368 1.403 . S
C369 H395 0.930 . S
C370 O384 1.275 . S
C370 O385 1.256 . S
C371 O386 1.259 . S
C371 O387 1.268 . S
C372 Ho361 2.811 . S
C372 C373 1.488 . S
C372 O388 1.215 . S
C372 O389 1.289 . S
C373 C372 1.488 . S
C373 C374 1.348 . S
C373 C378 1.413 . S
C374 C373 1.348 . S
C374 C375 1.442 . S
C374 H396 0.930 . S
C375 C374 1.442 . S
C375 C376 1.381 . S
C375 H397 0.931 . S
C376 C375 1.381 . S
C376 C377 1.321 . S
C377 C376 1.321 . S
C377 C378 1.403 . S
C377 H398 0.934 . S
C378 C373 1.413 . S
C378 C377 1.403 . S
C378 H399 0.930 . S
C379 O390 1.275 . S
C379 O391 1.256 . S
O380 Ho360 2.322 . S
O380 C362 1.259 . S
O381 Ho361 2.346 . S
O381 C362 1.268 . S
O382 Ho360 2.378 . S
O382 C363 1.215 . S
O383 Ho360 2.524 . S
O383 C363 1.289 . S
O384 Ho360 2.381 . S
O384 C370 1.275 . S
O385 Ho360 2.669 . S
O385 Ho361 2.305 . S
O385 C370 1.256 . S
O386 Ho361 2.322 . S
O386 C371 1.259 . S
O387 Ho360 2.346 . S
O387 C371 1.268 . S
O388 Ho361 2.378 . S
O388 C372 1.215 . S
O389 Ho361 2.524 . S
O389 C372 1.289 . S
O390 Ho361 2.381 . S
O390 C379 1.275 . S
O391 Ho360 2.305 . S
O391 Ho361 2.669 . S
O391 C379 1.256 . S
H392 C365 0.930 . S
H393 C366 0.931 . S
H394 C368 0.934 . S
H395 C369 0.930 . S
H396 C374 0.930 . S
H397 C375 0.931 . S
H398 C377 0.934 . S
H399 C378 0.930 . S
Ho400 C403 2.811 . S
Ho400 O420 2.322 . S
Ho400 O422 2.378 . S
Ho400 O423 2.524 . S
Ho400 O424 2.381 1_565 S
Ho400 O425 2.669 1_565 S
Ho400 O427 2.346 1_565 S
Ho400 O431 2.305 . S
Ho401 C412 2.811 . S
Ho401 O421 2.346 1_545 S
Ho401 O425 2.305 . S
Ho401 O426 2.322 . S
Ho401 O428 2.378 . S
Ho401 O429 2.524 . S
Ho401 O430 2.381 1_545 S
Ho401 O431 2.669 1_545 S
C402 O420 1.259 . S
C402 O421 1.268 . S
C403 Ho400 2.811 . S
C403 C404 1.488 . S
C403 O422 1.215 . S
C403 O423 1.289 . S
C404 C403 1.488 . S
C404 C405 1.348 . S
C404 C409 1.413 . S
C405 C404 1.348 . S
C405 C406 1.442 . S
C405 H432 0.930 . S
C406 C405 1.442 . S
C406 C407 1.381 . S
C406 H433 0.931 . S
C407 C406 1.381 . S
C407 C408 1.321 . S
C408 C407 1.321 . S
C408 C409 1.403 . S
C408 H434 0.934 . S
C409 C404 1.413 . S
C409 C408 1.403 . S
C409 H435 0.930 . S
C410 O424 1.275 . S
C410 O425 1.256 . S
C411 O426 1.259 . S
C411 O427 1.268 . S
C412 Ho401 2.811 . S
C412 C413 1.488 . S
C412 O428 1.215 . S
C412 O429 1.289 . S
C413 C412 1.488 . S
C413 C414 1.348 . S
C413 C418 1.413 . S
C414 C413 1.348 . S
C414 C415 1.442 . S
C414 H436 0.930 . S
C415 C414 1.442 . S
C415 C416 1.381 . S
C415 H437 0.931 . S
C416 C415 1.381 . S
C416 C417 1.321 . S
C417 C416 1.321 . S
C417 C418 1.403 . S
C417 H438 0.934 . S
C418 C413 1.413 . S
C418 C417 1.403 . S
C418 H439 0.930 . S
C419 O430 1.275 . S
C419 O431 1.256 . S
O420 Ho400 2.322 . S
O420 C402 1.259 . S
O421 Ho401 2.346 1_565 S
O421 C402 1.268 . S
O422 Ho400 2.378 . S
O422 C403 1.215 . S
O423 Ho400 2.524 . S
O423 C403 1.289 . S
O424 Ho400 2.381 1_545 S
O424 C410 1.275 . S
O425 Ho400 2.669 1_545 S
O425 Ho401 2.305 . S
O425 C410 1.256 . S
O426 Ho401 2.322 . S
O426 C411 1.259 . S
O427 Ho400 2.346 1_545 S
O427 C411 1.268 . S
O428 Ho401 2.378 . S
O428 C412 1.215 . S
O429 Ho401 2.524 . S
O429 C412 1.289 . S
O430 Ho401 2.381 1_565 S
O430 C419 1.275 . S
O431 Ho400 2.305 . S
O431 Ho401 2.669 1_565 S
O431 C419 1.256 . S
H432 C405 0.930 . S
H433 C406 0.931 . S
H434 C408 0.934 . S
H435 C409 0.930 . S
H436 C414 0.930 . S
H437 C415 0.931 . S
H438 C417 0.934 . S
H439 C418 0.930 . S
Ho440 C443 2.811 . S
Ho440 O460 2.322 . S
Ho440 O462 2.378 . S
Ho440 O463 2.524 . S
Ho440 O464 2.381 . S
Ho440 O465 2.669 . S
Ho440 O467 2.346 . S
Ho440 O471 2.305 . S
Ho441 C452 2.811 . S
Ho441 O461 2.346 . S
Ho441 O465 2.305 . S
Ho441 O466 2.322 . S
Ho441 O468 2.378 . S
Ho441 O469 2.524 . S
Ho441 O470 2.381 . S
Ho441 O471 2.669 . S
C442 O460 1.259 . S
C442 O461 1.268 . S
C443 Ho440 2.811 . S
C443 C444 1.488 . S
C443 O462 1.215 . S
C443 O463 1.289 . S
C444 C443 1.488 . S
C444 C445 1.348 . S
C444 C449 1.413 . S
C445 C444 1.348 . S
C445 C446 1.442 . S
C445 H472 0.930 . S
C446 C445 1.442 . S
C446 C447 1.381 . S
C446 H473 0.931 . S
C447 C446 1.381 . S
C447 C448 1.321 . S
C448 C447 1.321 . S
C448 C449 1.403 . S
C448 H474 0.934 . S
C449 C444 1.413 . S
C449 C448 1.403 . S
C449 H475 0.930 . S
C450 O464 1.275 . S
C450 O465 1.256 . S
C451 O466 1.259 . S
C451 O467 1.268 . S
C452 Ho441 2.811 . S
C452 C453 1.488 . S
C452 O468 1.215 . S
C452 O469 1.289 . S
C453 C452 1.488 . S
C453 C454 1.348 . S
C453 C458 1.413 . S
C454 C453 1.348 . S
C454 C455 1.442 . S
C454 H476 0.930 . S
C455 C454 1.442 . S
C455 C456 1.381 . S
C455 H477 0.931 . S
C456 C455 1.381 . S
C456 C457 1.321 . S
C457 C456 1.321 . S
C457 C458 1.403 . S
C457 H478 0.934 . S
C458 C453 1.413 . S
C458 C457 1.403 . S
C458 H479 0.930 . S
C459 O470 1.275 . S
C459 O471 1.256 . S
O460 Ho440 2.322 . S
O460 C442 1.259 . S
O461 Ho441 2.346 . S
O461 C442 1.268 . S
O462 Ho440 2.378 . S
O462 C443 1.215 . S
O463 Ho440 2.524 . S
O463 C443 1.289 . S
O464 Ho440 2.381 . S
O464 C450 1.275 . S
O465 Ho440 2.669 . S
O465 Ho441 2.305 . S
O465 C450 1.256 . S
O466 Ho441 2.322 . S
O466 C451 1.259 . S
O467 Ho440 2.346 . S
O467 C451 1.268 . S
O468 Ho441 2.378 . S
O468 C452 1.215 . S
O469 Ho441 2.524 . S
O469 C452 1.289 . S
O470 Ho441 2.381 . S
O470 C459 1.275 . S
O471 Ho440 2.305 . S
O471 Ho441 2.669 . S
O471 C459 1.256 . S
H472 C445 0.930 . S
H473 C446 0.931 . S
H474 C448 0.934 . S
H475 C449 0.930 . S
H476 C454 0.930 . S
H477 C455 0.931 . S
H478 C457 0.934 . S
H479 C458 0.930 . S
Ho480 C483 2.811 . S
Ho480 O500 2.322 . S
Ho480 O502 2.378 . S
Ho480 O503 2.524 . S
Ho480 O504 2.381 . S
Ho480 O505 2.673 1_565 S
Ho480 O507 2.346 . S
Ho480 O511 2.305 . S
Ho481 C492 2.811 . S
Ho481 O501 2.346 1_545 S
Ho481 O505 2.304 . S
Ho481 O506 2.322 . S
Ho481 O508 2.378 . S
Ho481 O509 2.524 . S
Ho481 O510 2.381 1_545 S
Ho481 O511 2.669 1_545 S
C482 O500 1.259 . S
C482 O501 1.268 . S
C483 Ho480 2.811 . S
C483 C484 1.488 . S
C483 O502 1.215 . S
C483 O503 1.289 . S
C484 C483 1.488 . S
C484 C485 1.348 . S
C484 C489 1.413 . S
C485 C484 1.348 . S
C485 C486 1.442 . S
C485 H512 0.930 . S
C486 C485 1.442 . S
C486 C487 1.381 . S
C486 H513 0.931 . S
C487 C486 1.381 . S
C487 C488 1.321 . S
C488 C487 1.321 . S
C488 C489 1.403 . S
C488 H514 0.934 . S
C489 C484 1.413 . S
C489 C488 1.403 . S
C489 H515 0.930 . S
C490 O504 1.313 . S
C490 O505 1.255 1_565 S
C491 O506 1.259 . S
C491 O507 1.268 1_545 S
C492 Ho481 2.811 . S
C492 C493 1.488 . S
C492 O508 1.215 . S
C492 O509 1.289 . S
C493 C492 1.488 . S
C493 C494 1.348 . S
C493 C498 1.413 . S
C494 C493 1.348 . S
C494 C495 1.442 . S
C494 H516 0.930 . S
C495 C494 1.442 . S
C495 C496 1.381 . S
C495 H517 0.931 . S
C496 C495 1.381 . S
C496 C497 1.321 . S
C497 C496 1.321 . S
C497 C498 1.403 . S
C497 H518 0.934 . S
C498 C493 1.413 . S
C498 C497 1.403 . S
C498 H519 0.930 . S
C499 O510 1.275 . S
C499 O511 1.256 . S
O500 Ho480 2.322 . S
O500 C482 1.259 . S
O501 Ho481 2.346 1_565 S
O501 C482 1.268 . S
O502 Ho480 2.378 . S
O502 C483 1.215 . S
O503 Ho480 2.524 . S
O503 C483 1.289 . S
O504 Ho480 2.381 . S
O504 C490 1.313 . S
O505 Ho480 2.673 1_545 S
O505 Ho481 2.304 . S
O505 C490 1.255 1_545 S
O506 Ho481 2.322 . S
O506 C491 1.259 . S
O507 Ho480 2.346 . S
O507 C491 1.268 1_565 S
O508 Ho481 2.378 . S
O508 C492 1.215 . S
O509 Ho481 2.524 . S
O509 C492 1.289 . S
O510 Ho481 2.381 1_565 S
O510 C499 1.275 . S
O511 Ho480 2.305 . S
O511 Ho481 2.669 1_565 S
O511 C499 1.256 . S
H512 C485 0.930 . S
H513 C486 0.931 . S
H514 C488 0.934 . S
H515 C489 0.930 . S
H516 C494 0.930 . S
H517 C495 0.931 . S
H518 C497 0.934 . S
H519 C498 0.930 . S
Ho520 C523 2.811 . S
Ho520 O540 2.322 . S
Ho520 O542 2.378 . S
Ho520 O543 2.524 . S
Ho520 O544 2.381 . S
Ho520 O545 2.669 . S
Ho520 O547 2.346 . S
Ho520 O551 2.305 . S
Ho521 C532 2.811 . S
Ho521 O541 2.346 . S
Ho521 O545 2.305 . S
Ho521 O546 2.322 . S
Ho521 O548 2.378 . S
Ho521 O549 2.524 . S
Ho521 O550 2.381 . S
Ho521 O551 2.669 . S
C522 O540 1.259 . S
C522 O541 1.268 . S
C523 Ho520 2.811 . S
C523 C524 1.488 . S
C523 O542 1.215 . S
C523 O543 1.289 . S
C524 C523 1.488 . S
C524 C525 1.348 . S
C524 C529 1.413 . S
C525 C524 1.348 . S
C525 C526 1.442 . S
C525 H552 0.930 . S
C526 C525 1.442 . S
C526 C527 1.381 . S
C526 H553 0.931 . S
C527 C526 1.381 . S
C527 C528 1.321 . S
C528 C527 1.321 . S
C528 C529 1.403 . S
C528 H554 0.934 . S
C529 C524 1.413 . S
C529 C528 1.403 . S
C529 H555 0.930 . S
C530 O544 1.275 . S
C530 O545 1.256 . S
C531 O546 1.259 . S
C531 O547 1.268 . S
C532 Ho521 2.811 . S
C532 C533 1.488 . S
C532 O548 1.215 . S
C532 O549 1.289 . S
C533 C532 1.488 . S
C533 C534 1.348 . S
C533 C538 1.413 . S
C534 C533 1.348 . S
C534 C535 1.442 . S
C534 H556 0.930 . S
C535 C534 1.442 . S
C535 C536 1.381 . S
C535 H557 0.931 . S
C536 C535 1.381 . S
C536 C537 1.321 . S
C537 C536 1.321 . S
C537 C538 1.403 . S
C537 H558 0.934 . S
C538 C533 1.413 . S
C538 C537 1.403 . S
C538 H559 0.930 . S
C539 O550 1.275 . S
C539 O551 1.256 . S
O540 Ho520 2.322 . S
O540 C522 1.259 . S
O541 Ho521 2.346 . S
O541 C522 1.268 . S
O542 Ho520 2.378 . S
O542 C523 1.215 . S
O543 Ho520 2.524 . S
O543 C523 1.289 . S
O544 Ho520 2.381 . S
O544 C530 1.275 . S
O545 Ho520 2.669 . S
O545 Ho521 2.305 . S
O545 C530 1.256 . S
O546 Ho521 2.322 . S
O546 C531 1.259 . S
O547 Ho520 2.346 . S
O547 C531 1.268 . S
O548 Ho521 2.378 . S
O548 C532 1.215 . S
O549 Ho521 2.524 . S
O549 C532 1.289 . S
O550 Ho521 2.381 . S
O550 C539 1.275 . S
O551 Ho520 2.305 . S
O551 Ho521 2.669 . S
O551 C539 1.256 . S
H552 C525 0.930 . S
H553 C526 0.931 . S
H554 C528 0.934 . S
H555 C529 0.930 . S
H556 C534 0.930 . S
H557 C535 0.931 . S
H558 C537 0.934 . S
H559 C538 0.930 . S
Ho560 C563 2.811 . S
Ho560 O580 2.322 . S
Ho560 O582 2.378 . S
Ho560 O583 2.524 . S
Ho560 O584 2.381 1_545 S
Ho560 O585 2.669 1_545 S
Ho560 O587 2.346 1_545 S
Ho560 O591 2.305 . S
Ho561 C572 2.811 . S
Ho561 O581 2.346 1_565 S
Ho561 O585 2.305 . S
Ho561 O586 2.322 . S
Ho561 O588 2.378 . S
Ho561 O589 2.524 . S
Ho561 O590 2.381 1_565 S
Ho561 O591 2.669 1_565 S
C562 O580 1.259 . S
C562 O581 1.268 . S
C563 Ho560 2.811 . S
C563 C564 1.488 . S
C563 O582 1.215 . S
C563 O583 1.289 . S
C564 C563 1.488 . S
C564 C565 1.348 . S
C564 C569 1.413 . S
C565 C564 1.348 . S
C565 C566 1.442 . S
C565 H592 0.930 . S
C566 C565 1.442 . S
C566 C567 1.381 . S
C566 H593 0.931 . S
C567 C566 1.381 . S
C567 C568 1.321 . S
C568 C567 1.321 . S
C568 C569 1.403 . S
C568 H594 0.934 . S
C569 C564 1.413 . S
C569 C568 1.403 . S
C569 H595 0.930 . S
C570 O584 1.275 . S
C570 O585 1.256 . S
C571 O586 1.259 . S
C571 O587 1.268 . S
C572 Ho561 2.811 . S
C572 C573 1.488 . S
C572 O588 1.215 . S
C572 O589 1.289 . S
C573 C572 1.488 . S
C573 C574 1.348 . S
C573 C578 1.413 . S
C574 C573 1.348 . S
C574 C575 1.442 . S
C574 H596 0.930 . S
C575 C574 1.442 . S
C575 C576 1.381 . S
C575 H597 0.931 . S
C576 C575 1.381 . S
C576 C577 1.321 . S
C577 C576 1.321 . S
C577 C578 1.403 . S
C577 H598 0.934 . S
C578 C573 1.413 . S
C578 C577 1.403 . S
C578 H599 0.930 . S
C579 O590 1.275 . S
C579 O591 1.256 . S
O580 Ho560 2.322 . S
O580 C562 1.259 . S
O581 Ho561 2.346 1_545 S
O581 C562 1.268 . S
O582 Ho560 2.378 . S
O582 C563 1.215 . S
O583 Ho560 2.524 . S
O583 C563 1.289 . S
O584 Ho560 2.381 1_565 S
O584 C570 1.275 . S
O585 Ho560 2.669 1_565 S
O585 Ho561 2.305 . S
O585 C570 1.256 . S
O586 Ho561 2.322 . S
O586 C571 1.259 . S
O587 Ho560 2.346 1_565 S
O587 C571 1.268 . S
O588 Ho561 2.378 . S
O588 C572 1.215 . S
O589 Ho561 2.524 . S
O589 C572 1.289 . S
O590 Ho561 2.381 1_545 S
O590 C579 1.275 . S
O591 Ho560 2.305 . S
O591 Ho561 2.669 1_545 S
O591 C579 1.256 . S
H592 C565 0.930 . S
H593 C566 0.931 . S
H594 C568 0.934 . S
H595 C569 0.930 . S
H596 C574 0.930 . S
H597 C575 0.931 . S
H598 C577 0.934 . S
H599 C578 0.930 . S
Ho600 C603 2.811 . S
Ho600 O620 2.322 . S
Ho600 O622 2.378 . S
Ho600 O623 2.524 . S
Ho600 O624 2.381 . S
Ho600 O625 2.669 . S
Ho600 O627 2.346 . S
Ho600 O631 2.305 . S
Ho601 C612 2.811 . S
Ho601 O621 2.346 . S
Ho601 O625 2.305 . S
Ho601 O626 2.322 . S
Ho601 O628 2.378 . S
Ho601 O629 2.524 . S
Ho601 O630 2.381 . S
Ho601 O631 2.669 . S
C602 O620 1.259 . S
C602 O621 1.268 . S
C603 Ho600 2.811 . S
C603 C604 1.488 . S
C603 O622 1.215 . S
C603 O623 1.289 . S
C604 C603 1.488 . S
C604 C605 1.348 . S
C604 C609 1.413 . S
C605 C604 1.348 . S
C605 C606 1.442 . S
C605 H632 0.930 . S
C606 C605 1.442 . S
C606 C607 1.381 . S
C606 H633 0.931 . S
C607 C606 1.381 . S
C607 C608 1.321 . S
C608 C607 1.321 . S
C608 C609 1.403 . S
C608 H634 0.934 . S
C609 C604 1.413 . S
C609 C608 1.403 . S
C609 H635 0.930 . S
C610 O624 1.275 . S
C610 O625 1.256 . S
C611 O626 1.259 . S
C611 O627 1.268 . S
C612 Ho601 2.811 . S
C612 C613 1.488 . S
C612 O628 1.215 . S
C612 O629 1.289 . S
C613 C612 1.488 . S
C613 C614 1.348 . S
C613 C618 1.413 . S
C614 C613 1.348 . S
C614 C615 1.442 . S
C614 H636 0.930 . S
C615 C614 1.442 . S
C615 C616 1.381 . S
C615 H637 0.931 . S
C616 C615 1.381 . S
C616 C617 1.321 . S
C617 C616 1.321 . S
C617 C618 1.403 . S
C617 H638 0.934 . S
C618 C613 1.413 . S
C618 C617 1.403 . S
C618 H639 0.930 . S
C619 O630 1.275 . S
C619 O631 1.256 . S
O620 Ho600 2.322 . S
O620 C602 1.259 . S
O621 Ho601 2.346 . S
O621 C602 1.268 . S
O622 Ho600 2.378 . S
O622 C603 1.215 . S
O623 Ho600 2.524 . S
O623 C603 1.289 . S
O624 Ho600 2.381 . S
O624 C610 1.275 . S
O625 Ho600 2.669 . S
O625 Ho601 2.305 . S
O625 C610 1.256 . S
O626 Ho601 2.322 . S
O626 C611 1.259 . S
O627 Ho600 2.346 . S
O627 C611 1.268 . S
O628 Ho601 2.378 . S
O628 C612 1.215 . S
O629 Ho601 2.524 . S
O629 C612 1.289 . S
O630 Ho601 2.381 . S
O630 C619 1.275 . S
O631 Ho600 2.305 . S
O631 Ho601 2.669 . S
O631 C619 1.256 . S
H632 C605 0.930 . S
H633 C606 0.931 . S
H634 C608 0.934 . S
H635 C609 0.930 . S
H636 C614 0.930 . S
H637 C615 0.931 . S
H638 C617 0.934 . S
H639 C618 0.930 . S
Ho640 C643 2.811 . S
Ho640 O660 2.322 . S
Ho640 O662 2.378 . S
Ho640 O663 2.524 . S
Ho640 O664 2.381 1_554 S
Ho640 O665 2.669 1_554 S
Ho640 O667 2.346 1_554 S
Ho640 O671 2.305 . S
Ho641 C652 2.811 . S
Ho641 O661 2.346 1_556 S
Ho641 O665 2.305 . S
Ho641 O666 2.322 . S
Ho641 O668 2.378 . S
Ho641 O669 2.524 . S
Ho641 O670 2.381 1_556 S
Ho641 O671 2.669 1_556 S
C642 O660 1.259 . S
C642 O661 1.268 . S
C643 Ho640 2.811 . S
C643 C644 1.488 . S
C643 O662 1.215 . S
C643 O663 1.289 . S
C644 C643 1.488 . S
C644 C645 1.348 . S
C644 C649 1.413 . S
C645 C644 1.348 . S
C645 C646 1.442 . S
C645 H672 0.930 . S
C646 C645 1.442 . S
C646 C647 1.381 . S
C646 H673 0.931 . S
C647 C646 1.381 . S
C647 C648 1.321 . S
C648 C647 1.321 . S
C648 C649 1.403 . S
C648 H674 0.934 . S
C649 C644 1.413 . S
C649 C648 1.403 . S
C649 H675 0.930 . S
C650 O664 1.275 . S
C650 O665 1.256 . S
C651 O666 1.259 . S
C651 O667 1.268 . S
C652 Ho641 2.811 . S
C652 C653 1.488 . S
C652 O668 1.215 . S
C652 O669 1.289 . S
C653 C652 1.488 . S
C653 C654 1.348 . S
C653 C658 1.413 . S
C654 C653 1.348 . S
C654 C655 1.442 . S
C654 H676 0.930 . S
C655 C654 1.442 . S
C655 C656 1.381 . S
C655 H677 0.931 . S
C656 C655 1.381 . S
C656 C657 1.321 . S
C657 C656 1.321 . S
C657 C658 1.403 . S
C657 H678 0.934 . S
C658 C653 1.413 . S
C658 C657 1.403 . S
C658 H679 0.930 . S
C659 O670 1.275 . S
C659 O671 1.256 . S
O660 Ho640 2.322 . S
O660 C642 1.259 . S
O661 Ho641 2.346 1_554 S
O661 C642 1.268 . S
O662 Ho640 2.378 . S
O662 C643 1.215 . S
O663 Ho640 2.524 . S
O663 C643 1.289 . S
O664 Ho640 2.381 1_556 S
O664 C650 1.275 . S
O665 Ho640 2.669 1_556 S
O665 Ho641 2.305 . S
O665 C650 1.256 . S
O666 Ho641 2.322 . S
O666 C651 1.259 . S
O667 Ho640 2.346 1_556 S
O667 C651 1.268 . S
O668 Ho641 2.378 . S
O668 C652 1.215 . S
O669 Ho641 2.524 . S
O669 C652 1.289 . S
O670 Ho641 2.381 1_554 S
O670 C659 1.275 . S
O671 Ho640 2.305 . S
O671 Ho641 2.669 1_554 S
O671 C659 1.256 . S
H672 C645 0.930 . S
H673 C646 0.931 . S
H674 C648 0.934 . S
H675 C649 0.930 . S
H676 C654 0.930 . S
H677 C655 0.931 . S
H678 C657 0.934 . S
H679 C658 0.930 . S
Ho680 C683 2.811 . S
Ho680 O700 2.322 . S
Ho680 O702 2.378 . S
Ho680 O703 2.524 . S
Ho680 O704 2.381 1_554 S
Ho680 O705 2.669 1_554 S
Ho680 O707 2.346 1_554 S
Ho680 O711 2.305 . S
Ho681 C692 2.811 . S
Ho681 O701 2.346 1_556 S
Ho681 O705 2.305 . S
Ho681 O706 2.322 . S
Ho681 O708 2.378 . S
Ho681 O709 2.524 . S
Ho681 O710 2.381 1_556 S
Ho681 O711 2.669 1_556 S
C682 O700 1.259 . S
C682 O701 1.268 . S
C683 Ho680 2.811 . S
C683 C684 1.488 . S
C683 O702 1.215 . S
C683 O703 1.289 . S
C684 C683 1.488 . S
C684 C685 1.348 . S
C684 C689 1.413 . S
C685 C684 1.348 . S
C685 C686 1.442 . S
C685 H712 0.930 . S
C686 C685 1.442 . S
C686 C687 1.381 . S
C686 H713 0.931 . S
C687 C686 1.381 . S
C687 C688 1.321 . S
C688 C687 1.321 . S
C688 C689 1.403 . S
C688 H714 0.934 . S
C689 C684 1.413 . S
C689 C688 1.403 . S
C689 H715 0.930 . S
C690 O704 1.275 . S
C690 O705 1.256 . S
C691 O706 1.259 . S
C691 O707 1.268 . S
C692 Ho681 2.811 . S
C692 C693 1.488 . S
C692 O708 1.215 . S
C692 O709 1.289 . S
C693 C692 1.488 . S
C693 C694 1.348 . S
C693 C698 1.413 . S
C694 C693 1.348 . S
C694 C695 1.442 . S
C694 H716 0.930 . S
C695 C694 1.442 . S
C695 C696 1.381 . S
C695 H717 0.931 . S
C696 C695 1.381 . S
C696 C697 1.321 . S
C697 C696 1.321 . S
C697 C698 1.403 . S
C697 H718 0.934 . S
C698 C693 1.413 . S
C698 C697 1.403 . S
C698 H719 0.930 . S
C699 O710 1.275 . S
C699 O711 1.256 . S
O700 Ho680 2.322 . S
O700 C682 1.259 . S
O701 Ho681 2.346 1_554 S
O701 C682 1.268 . S
O702 Ho680 2.378 . S
O702 C683 1.215 . S
O703 Ho680 2.524 . S
O703 C683 1.289 . S
O704 Ho680 2.381 1_556 S
O704 C690 1.275 . S
O705 Ho680 2.669 1_556 S
O705 Ho681 2.305 . S
O705 C690 1.256 . S
O706 Ho681 2.322 . S
O706 C691 1.259 . S
O707 Ho680 2.346 1_556 S
O707 C691 1.268 . S
O708 Ho681 2.378 . S
O708 C692 1.215 . S
O709 Ho681 2.524 . S
O709 C692 1.289 . S
O710 Ho681 2.381 1_554 S
O710 C699 1.275 . S
O711 Ho680 2.305 . S
O711 Ho681 2.669 1_554 S
O711 C699 1.256 . S
H712 C685 0.930 . S
H713 C686 0.931 . S
H714 C688 0.934 . S
H715 C689 0.930 . S
H716 C694 0.930 . S
H717 C695 0.931 . S
H718 C697 0.934 . S
H719 C698 0.930 . S
Ho720 C723 2.811 . S
Ho720 O740 2.322 . S
Ho720 O742 2.378 . S
Ho720 O743 2.524 . S
Ho720 O744 2.381 . S
Ho720 O745 2.669 . S
Ho720 O747 2.346 . S
Ho720 O751 2.305 . S
Ho721 C732 2.811 . S
Ho721 O741 2.346 . S
Ho721 O745 2.305 . S
Ho721 O746 2.322 . S
Ho721 O748 2.378 . S
Ho721 O749 2.524 . S
Ho721 O750 2.381 . S
Ho721 O751 2.669 . S
C722 O740 1.259 . S
C722 O741 1.268 . S
C723 Ho720 2.811 . S
C723 C724 1.488 . S
C723 O742 1.215 . S
C723 O743 1.289 . S
C724 C723 1.488 . S
C724 C725 1.348 . S
C724 C729 1.413 . S
C725 C724 1.348 . S
C725 C726 1.442 . S
C725 H752 0.930 . S
C726 C725 1.442 . S
C726 C727 1.381 . S
C726 H753 0.931 . S
C727 C726 1.381 . S
C727 C728 1.321 . S
C728 C727 1.321 . S
C728 C729 1.403 . S
C728 H754 0.934 . S
C729 C724 1.413 . S
C729 C728 1.403 . S
C729 H755 0.930 . S
C730 O744 1.275 . S
C730 O745 1.256 . S
C731 O746 1.259 . S
C731 O747 1.268 . S
C732 Ho721 2.811 . S
C732 C733 1.488 . S
C732 O748 1.215 . S
C732 O749 1.289 . S
C733 C732 1.488 . S
C733 C734 1.348 . S
C733 C738 1.413 . S
C734 C733 1.348 . S
C734 C735 1.442 . S
C734 H756 0.930 . S
C735 C734 1.442 . S
C735 C736 1.381 . S
C735 H757 0.931 . S
C736 C735 1.381 . S
C736 C737 1.321 . S
C737 C736 1.321 . S
C737 C738 1.403 . S
C737 H758 0.934 . S
C738 C733 1.413 . S
C738 C737 1.403 . S
C738 H759 0.930 . S
C739 O750 1.275 . S
C739 O751 1.256 . S
O740 Ho720 2.322 . S
O740 C722 1.259 . S
O741 Ho721 2.346 . S
O741 C722 1.268 . S
O742 Ho720 2.378 . S
O742 C723 1.215 . S
O743 Ho720 2.524 . S
O743 C723 1.289 . S
O744 Ho720 2.381 . S
O744 C730 1.275 . S
O745 Ho720 2.669 . S
O745 Ho721 2.305 . S
O745 C730 1.256 . S
O746 Ho721 2.322 . S
O746 C731 1.259 . S
O747 Ho720 2.346 . S
O747 C731 1.268 . S
O748 Ho721 2.378 . S
O748 C732 1.215 . S
O749 Ho721 2.524 . S
O749 C732 1.289 . S
O750 Ho721 2.381 . S
O750 C739 1.275 . S
O751 Ho720 2.305 . S
O751 Ho721 2.669 . S
O751 C739 1.256 . S
H752 C725 0.930 . S
H753 C726 0.931 . S
H754 C728 0.934 . S
H755 C729 0.930 . S
H756 C734 0.930 . S
H757 C735 0.931 . S
H758 C737 0.934 . S
H759 C738 0.930 . S
Ho760 C763 2.811 . S
Ho760 O780 2.322 . S
Ho760 O782 2.378 . S
Ho760 O783 2.524 . S
Ho760 O784 2.381 . S
Ho760 O785 2.669 . S
Ho760 O787 2.346 . S
Ho760 O791 2.305 . S
Ho761 C772 2.811 . S
Ho761 O781 2.346 . S
Ho761 O785 2.305 . S
Ho761 O786 2.322 . S
Ho761 O788 2.378 . S
Ho761 O789 2.524 . S
Ho761 O790 2.381 . S
Ho761 O791 2.669 . S
C762 O780 1.259 . S
C762 O781 1.268 . S
C763 Ho760 2.811 . S
C763 C764 1.488 . S
C763 O782 1.215 . S
C763 O783 1.289 . S
C764 C763 1.488 . S
C764 C765 1.348 . S
C764 C769 1.413 . S
C765 C764 1.348 . S
C765 C766 1.442 . S
C765 H792 0.930 . S
C766 C765 1.442 . S
C766 C767 1.381 . S
C766 H793 0.931 . S
C767 C766 1.381 . S
C767 C768 1.321 . S
C768 C767 1.321 . S
C768 C769 1.403 . S
C768 H794 0.934 . S
C769 C764 1.413 . S
C769 C768 1.403 . S
C769 H795 0.930 . S
C770 O784 1.275 . S
C770 O785 1.256 . S
C771 O786 1.259 . S
C771 O787 1.268 . S
C772 Ho761 2.811 . S
C772 C773 1.488 . S
C772 O788 1.215 . S
C772 O789 1.289 . S
C773 C772 1.488 . S
C773 C774 1.348 . S
C773 C778 1.413 . S
C774 C773 1.348 . S
C774 C775 1.442 . S
C774 H796 0.930 . S
C775 C774 1.442 . S
C775 C776 1.381 . S
C775 H797 0.931 . S
C776 C775 1.381 . S
C776 C777 1.321 . S
C777 C776 1.321 . S
C777 C778 1.403 . S
C777 H798 0.934 . S
C778 C773 1.413 . S
C778 C777 1.403 . S
C778 H799 0.930 . S
C779 O790 1.275 . S
C779 O791 1.256 . S
O780 Ho760 2.322 . S
O780 C762 1.259 . S
O781 Ho761 2.346 . S
O781 C762 1.268 . S
O782 Ho760 2.378 . S
O782 C763 1.215 . S
O783 Ho760 2.524 . S
O783 C763 1.289 . S
O784 Ho760 2.381 . S
O784 C770 1.275 . S
O785 Ho760 2.669 . S
O785 Ho761 2.305 . S
O785 C770 1.256 . S
O786 Ho761 2.322 . S
O786 C771 1.259 . S
O787 Ho760 2.346 . S
O787 C771 1.268 . S
O788 Ho761 2.378 . S
O788 C772 1.215 . S
O789 Ho761 2.524 . S
O789 C772 1.289 . S
O790 Ho761 2.381 . S
O790 C779 1.275 . S
O791 Ho760 2.305 . S
O791 Ho761 2.669 . S
O791 C779 1.256 . S
H792 C765 0.930 . S
H793 C766 0.931 . S
H794 C768 0.934 . S
H795 C769 0.930 . S
H796 C774 0.930 . S
H797 C775 0.931 . S
H798 C777 0.934 . S
H799 C778 0.930 . S
Ho800 C803 2.811 . S
Ho800 O820 2.322 . S
Ho800 O822 2.378 . S
Ho800 O823 2.524 . S
Ho800 O824 2.381 . S
Ho800 O825 2.669 . S
Ho800 O827 2.346 . S
Ho800 O831 2.305 . S
Ho801 C812 2.811 . S
Ho801 O821 2.346 . S
Ho801 O825 2.305 . S
Ho801 O826 2.322 . S
Ho801 O828 2.378 . S
Ho801 O829 2.524 . S
Ho801 O830 2.381 . S
Ho801 O831 2.669 . S
C802 O820 1.259 . S
C802 O821 1.268 . S
C803 Ho800 2.811 . S
C803 C804 1.488 . S
C803 O822 1.215 . S
C803 O823 1.289 . S
C804 C803 1.488 . S
C804 C805 1.348 . S
C804 C809 1.413 . S
C805 C804 1.348 . S
C805 C806 1.442 . S
C805 H832 0.930 . S
C806 C805 1.442 . S
C806 C807 1.381 . S
C806 H833 0.931 . S
C807 C806 1.381 . S
C807 C808 1.321 . S
C808 C807 1.321 . S
C808 C809 1.403 . S
C808 H834 0.934 . S
C809 C804 1.413 . S
C809 C808 1.403 . S
C809 H835 0.930 . S
C810 O824 1.275 . S
C810 O825 1.256 . S
C811 O826 1.259 . S
C811 O827 1.268 . S
C812 Ho801 2.811 . S
C812 C813 1.488 . S
C812 O828 1.215 . S
C812 O829 1.289 . S
C813 C812 1.488 . S
C813 C814 1.348 . S
C813 C818 1.413 . S
C814 C813 1.348 . S
C814 C815 1.442 . S
C814 H836 0.930 . S
C815 C814 1.442 . S
C815 C816 1.381 . S
C815 H837 0.931 . S
C816 C815 1.381 . S
C816 C817 1.321 . S
C817 C816 1.321 . S
C817 C818 1.403 . S
C817 H838 0.934 . S
C818 C813 1.413 . S
C818 C817 1.403 . S
C818 H839 0.930 . S
C819 O830 1.275 . S
C819 O831 1.256 . S
O820 Ho800 2.322 . S
O820 C802 1.259 . S
O821 Ho801 2.346 . S
O821 C802 1.268 . S
O822 Ho800 2.378 . S
O822 C803 1.215 . S
O823 Ho800 2.524 . S
O823 C803 1.289 . S
O824 Ho800 2.381 . S
O824 C810 1.275 . S
O825 Ho800 2.669 . S
O825 Ho801 2.305 . S
O825 C810 1.256 . S
O826 Ho801 2.322 . S
O826 C811 1.259 . S
O827 Ho800 2.346 . S
O827 C811 1.268 . S
O828 Ho801 2.378 . S
O828 C812 1.215 . S
O829 Ho801 2.524 . S
O829 C812 1.289 . S
O830 Ho801 2.381 . S
O830 C819 1.275 . S
O831 Ho800 2.305 . S
O831 Ho801 2.669 . S
O831 C819 1.256 . S
H832 C805 0.930 . S
H833 C806 0.931 . S
H834 C808 0.934 . S
H835 C809 0.930 . S
H836 C814 0.930 . S
H837 C815 0.931 . S
H838 C817 0.934 . S
H839 C818 0.930 . S
Ho840 C843 2.811 . S
Ho840 O860 2.322 . S
Ho840 O862 2.378 . S
Ho840 O863 2.524 . S
Ho840 O864 2.381 . S
Ho840 O865 2.669 . S
Ho840 O867 2.346 . S
Ho840 O871 2.305 . S
Ho841 C852 2.811 . S
Ho841 O861 2.346 . S
Ho841 O865 2.305 . S
Ho841 O866 2.322 . S
Ho841 O868 2.378 . S
Ho841 O869 2.524 . S
Ho841 O870 2.381 . S
Ho841 O871 2.669 . S
C842 O860 1.259 . S
C842 O861 1.268 . S
C843 Ho840 2.811 . S
C843 C844 1.488 . S
C843 O862 1.215 . S
C843 O863 1.289 . S
C844 C843 1.488 . S
C844 C845 1.348 . S
C844 C849 1.413 . S
C845 C844 1.348 . S
C845 C846 1.442 . S
C845 H872 0.930 . S
C846 C845 1.442 . S
C846 C847 1.381 . S
C846 H873 0.931 . S
C847 C846 1.381 . S
C847 C848 1.321 . S
C848 C847 1.321 . S
C848 C849 1.403 . S
C848 H874 0.934 . S
C849 C844 1.413 . S
C849 C848 1.403 . S
C849 H875 0.930 . S
C850 O864 1.275 . S
C850 O865 1.256 . S
C851 O866 1.259 . S
C851 O867 1.268 . S
C852 Ho841 2.811 . S
C852 C853 1.488 . S
C852 O868 1.215 . S
C852 O869 1.289 . S
C853 C852 1.488 . S
C853 C854 1.348 . S
C853 C858 1.413 . S
C854 C853 1.348 . S
C854 C855 1.442 . S
C854 H876 0.930 . S
C855 C854 1.442 . S
C855 C856 1.381 . S
C855 H877 0.931 . S
C856 C855 1.381 . S
C856 C857 1.321 . S
C857 C856 1.321 . S
C857 C858 1.403 . S
C857 H878 0.934 . S
C858 C853 1.413 . S
C858 C857 1.403 . S
C858 H879 0.930 . S
C859 O870 1.275 . S
C859 O871 1.256 . S
O860 Ho840 2.322 . S
O860 C842 1.259 . S
O861 Ho841 2.346 . S
O861 C842 1.268 . S
O862 Ho840 2.378 . S
O862 C843 1.215 . S
O863 Ho840 2.524 . S
O863 C843 1.289 . S
O864 Ho840 2.381 . S
O864 C850 1.275 . S
O865 Ho840 2.669 . S
O865 Ho841 2.305 . S
O865 C850 1.256 . S
O866 Ho841 2.322 . S
O866 C851 1.259 . S
O867 Ho840 2.346 . S
O867 C851 1.268 . S
O868 Ho841 2.378 . S
O868 C852 1.215 . S
O869 Ho841 2.524 . S
O869 C852 1.289 . S
O870 Ho841 2.381 . S
O870 C859 1.275 . S
O871 Ho840 2.305 . S
O871 Ho841 2.669 . S
O871 C859 1.256 . S
H872 C845 0.930 . S
H873 C846 0.931 . S
H874 C848 0.934 . S
H875 C849 0.930 . S
H876 C854 0.930 . S
H877 C855 0.931 . S
H878 C857 0.934 . S
H879 C858 0.930 . S
Ho880 C883 2.811 . S
Ho880 O900 2.322 . S
Ho880 O902 2.378 . S
Ho880 O903 2.524 . S
Ho880 O904 2.381 . S
Ho880 O905 2.669 . S
Ho880 O907 2.346 . S
Ho880 O911 2.305 . S
Ho881 C892 2.811 . S
Ho881 O901 2.346 . S
Ho881 O905 2.305 . S
Ho881 O906 2.322 . S
Ho881 O908 2.378 . S
Ho881 O909 2.524 . S
Ho881 O910 2.381 . S
Ho881 O911 2.669 . S
C882 O900 1.259 . S
C882 O901 1.268 . S
C883 Ho880 2.811 . S
C883 C884 1.488 . S
C883 O902 1.215 . S
C883 O903 1.289 . S
C884 C883 1.488 . S
C884 C885 1.348 . S
C884 C889 1.413 . S
C885 C884 1.348 . S
C885 C886 1.442 . S
C885 H912 0.930 . S
C886 C885 1.442 . S
C886 C887 1.381 . S
C886 H913 0.931 . S
C887 C886 1.381 . S
C887 C888 1.321 . S
C888 C887 1.321 . S
C888 C889 1.403 . S
C888 H914 0.934 . S
C889 C884 1.413 . S
C889 C888 1.403 . S
C889 H915 0.930 . S
C890 O904 1.275 . S
C890 O905 1.256 . S
C891 O906 1.259 . S
C891 O907 1.268 . S
C892 Ho881 2.811 . S
C892 C893 1.488 . S
C892 O908 1.215 . S
C892 O909 1.289 . S
C893 C892 1.488 . S
C893 C894 1.348 . S
C893 C898 1.413 . S
C894 C893 1.348 . S
C894 C895 1.442 . S
C894 H916 0.930 . S
C895 C894 1.442 . S
C895 C896 1.381 . S
C895 H917 0.931 . S
C896 C895 1.381 . S
C896 C897 1.321 . S
C897 C896 1.321 . S
C897 C898 1.403 . S
C897 H918 0.934 . S
C898 C893 1.413 . S
C898 C897 1.403 . S
C898 H919 0.930 . S
C899 O910 1.275 . S
C899 O911 1.256 . S
O900 Ho880 2.322 . S
O900 C882 1.259 . S
O901 Ho881 2.346 . S
O901 C882 1.268 . S
O902 Ho880 2.378 . S
O902 C883 1.215 . S
O903 Ho880 2.524 . S
O903 C883 1.289 . S
O904 Ho880 2.381 . S
O904 C890 1.275 . S
O905 Ho880 2.669 . S
O905 Ho881 2.305 . S
O905 C890 1.256 . S
O906 Ho881 2.322 . S
O906 C891 1.259 . S
O907 Ho880 2.346 . S
O907 C891 1.268 . S
O908 Ho881 2.378 . S
O908 C892 1.215 . S
O909 Ho881 2.524 . S
O909 C892 1.289 . S
O910 Ho881 2.381 . S
O910 C899 1.275 . S
O911 Ho880 2.305 . S
O911 Ho881 2.669 . S
O911 C899 1.256 . S
H912 C885 0.930 . S
H913 C886 0.931 . S
H914 C888 0.934 . S
H915 C889 0.930 . S
H916 C894 0.930 . S
H917 C895 0.931 . S
H918 C897 0.934 . S
H919 C898 0.930 . S
Ho920 C923 2.811 . S
Ho920 O940 2.322 . S
Ho920 O942 2.378 . S
Ho920 O943 2.524 . S
Ho920 O944 2.381 . S
Ho920 O945 2.669 . S
Ho920 O947 2.346 . S
Ho920 O951 2.305 . S
Ho921 C932 2.811 . S
Ho921 O941 2.346 . S
Ho921 O945 2.305 . S
Ho921 O946 2.322 . S
Ho921 O948 2.378 . S
Ho921 O949 2.524 . S
Ho921 O950 2.381 . S
Ho921 O951 2.669 . S
C922 O940 1.259 . S
C922 O941 1.268 . S
C923 Ho920 2.811 . S
C923 C924 1.488 . S
C923 O942 1.215 . S
C923 O943 1.289 . S
C924 C923 1.488 . S
C924 C925 1.348 . S
C924 C929 1.413 . S
C925 C924 1.348 . S
C925 C926 1.442 . S
C925 H952 0.930 . S
C926 C925 1.442 . S
C926 C927 1.381 . S
C926 H953 0.931 . S
C927 C926 1.381 . S
C927 C928 1.321 . S
C928 C927 1.321 . S
C928 C929 1.403 . S
C928 H954 0.934 . S
C929 C924 1.413 . S
C929 C928 1.403 . S
C929 H955 0.930 . S
C930 O944 1.275 . S
C930 O945 1.256 . S
C931 O946 1.259 . S
C931 O947 1.268 . S
C932 Ho921 2.811 . S
C932 C933 1.488 . S
C932 O948 1.215 . S
C932 O949 1.289 . S
C933 C932 1.488 . S
C933 C934 1.348 . S
C933 C938 1.413 . S
C934 C933 1.348 . S
C934 C935 1.442 . S
C934 H956 0.930 . S
C935 C934 1.442 . S
C935 C936 1.381 . S
C935 H957 0.931 . S
C936 C935 1.381 . S
C936 C937 1.321 . S
C937 C936 1.321 . S
C937 C938 1.403 . S
C937 H958 0.934 . S
C938 C933 1.413 . S
C938 C937 1.403 . S
C938 H959 0.930 . S
C939 O950 1.275 . S
C939 O951 1.256 . S
O940 Ho920 2.322 . S
O940 C922 1.259 . S
O941 Ho921 2.346 . S
O941 C922 1.268 . S
O942 Ho920 2.378 . S
O942 C923 1.215 . S
O943 Ho920 2.524 . S
O943 C923 1.289 . S
O944 Ho920 2.381 . S
O944 C930 1.275 . S
O945 Ho920 2.669 . S
O945 Ho921 2.305 . S
O945 C930 1.256 . S
O946 Ho921 2.322 . S
O946 C931 1.259 . S
O947 Ho920 2.346 . S
O947 C931 1.268 . S
O948 Ho921 2.378 . S
O948 C932 1.215 . S
O949 Ho921 2.524 . S
O949 C932 1.289 . S
O950 Ho921 2.381 . S
O950 C939 1.275 . S
O951 Ho920 2.305 . S
O951 Ho921 2.669 . S
O951 C939 1.256 . S
H952 C925 0.930 . S
H953 C926 0.931 . S
H954 C928 0.934 . S
H955 C929 0.930 . S
H956 C934 0.930 . S
H957 C935 0.931 . S
H958 C937 0.934 . S
H959 C938 0.930 . S
Ho960 C963 2.811 . S
Ho960 O980 2.322 . S
Ho960 O982 2.378 . S
Ho960 O983 2.524 . S
Ho960 O984 2.381 1_455 S
Ho960 O985 2.669 1_455 S
Ho960 O987 2.346 1_455 S
Ho960 O991 2.305 . S
Ho961 C972 2.811 . S
Ho961 O981 2.346 1_655 S
Ho961 O985 2.305 . S
Ho961 O986 2.322 . S
Ho961 O988 2.378 . S
Ho961 O989 2.524 . S
Ho961 O990 2.381 1_655 S
Ho961 O991 2.669 1_655 S
C962 O980 1.259 . S
C962 O981 1.268 . S
C963 Ho960 2.811 . S
C963 C964 1.488 . S
C963 O982 1.215 . S
C963 O983 1.289 . S
C964 C963 1.488 . S
C964 C965 1.348 . S
C964 C969 1.413 . S
C965 C964 1.348 . S
C965 C966 1.442 . S
C965 H992 0.930 . S
C966 C965 1.442 . S
C966 C967 1.381 . S
C966 H993 0.931 . S
C967 C966 1.381 . S
C967 C968 1.321 . S
C968 C967 1.321 . S
C968 C969 1.403 . S
C968 H994 0.934 . S
C969 C964 1.413 . S
C969 C968 1.403 . S
C969 H995 0.930 . S
C970 O984 1.275 . S
C970 O985 1.256 . S
C971 O986 1.259 . S
C971 O987 1.268 . S
C972 Ho961 2.811 . S
C972 C973 1.488 . S
C972 O988 1.215 . S
C972 O989 1.289 . S
C973 C972 1.488 . S
C973 C974 1.348 . S
C973 C978 1.413 . S
C974 C973 1.348 . S
C974 C975 1.442 . S
C974 H996 0.930 . S
C975 C974 1.442 . S
C975 C976 1.381 . S
C975 H997 0.931 . S
C976 C975 1.381 . S
C976 C977 1.321 . S
C977 C976 1.321 . S
C977 C978 1.403 . S
C977 H998 0.934 . S
C978 C973 1.413 . S
C978 C977 1.403 . S
C978 H999 0.930 . S
C979 O990 1.275 . S
C979 O991 1.256 . S
O980 Ho960 2.322 . S
O980 C962 1.259 . S
O981 Ho961 2.346 1_455 S
O981 C962 1.268 . S
O982 Ho960 2.378 . S
O982 C963 1.215 . S
O983 Ho960 2.524 . S
O983 C963 1.289 . S
O984 Ho960 2.381 1_655 S
O984 C970 1.275 . S
O985 Ho960 2.669 1_655 S
O985 Ho961 2.305 . S
O985 C970 1.256 . S
O986 Ho961 2.322 . S
O986 C971 1.259 . S
O987 Ho960 2.346 1_655 S
O987 C971 1.268 . S
O988 Ho961 2.378 . S
O988 C972 1.215 . S
O989 Ho961 2.524 . S
O989 C972 1.289 . S
O990 Ho961 2.381 1_455 S
O990 C979 1.275 . S
O991 Ho960 2.305 . S
O991 Ho961 2.669 1_455 S
O991 C979 1.256 . S
H992 C965 0.930 . S
H993 C966 0.931 . S
H994 C968 0.934 . S
H995 C969 0.930 . S
H996 C974 0.930 . S
H997 C975 0.931 . S
H998 C977 0.934 . S
H999 C978 0.930 . S
Ho1000 C1003 2.811 . S
Ho1000 O1020 2.322 . S
Ho1000 O1022 2.378 . S
Ho1000 O1023 2.524 . S
Ho1000 O1024 2.381 . S
Ho1000 O1025 2.669 . S
Ho1000 O1027 2.346 . S
Ho1000 O1031 2.305 . S
Ho1001 C1012 2.811 . S
Ho1001 O1021 2.346 . S
Ho1001 O1025 2.305 . S
Ho1001 O1026 2.322 . S
Ho1001 O1028 2.378 . S
Ho1001 O1029 2.524 . S
Ho1001 O1030 2.381 . S
Ho1001 O1031 2.669 . S
C1002 O1020 1.259 . S
C1002 O1021 1.268 . S
C1003 Ho1000 2.811 . S
C1003 C1004 1.488 . S
C1003 O1022 1.215 . S
C1003 O1023 1.289 . S
C1004 C1003 1.488 . S
C1004 C1005 1.348 . S
C1004 C1009 1.413 . S
C1005 C1004 1.348 . S
C1005 C1006 1.442 . S
C1005 H1032 0.930 . S
C1006 C1005 1.442 . S
C1006 C1007 1.381 . S
C1006 H1033 0.931 . S
C1007 C1006 1.381 . S
C1007 C1008 1.321 . S
C1008 C1007 1.321 . S
C1008 C1009 1.403 . S
C1008 H1034 0.934 . S
C1009 C1004 1.413 . S
C1009 C1008 1.403 . S
C1009 H1035 0.930 . S
C1010 O1024 1.275 . S
C1010 O1025 1.256 . S
C1011 O1026 1.259 . S
C1011 O1027 1.268 . S
C1012 Ho1001 2.811 . S
C1012 C1013 1.488 . S
C1012 O1028 1.215 . S
C1012 O1029 1.289 . S
C1013 C1012 1.488 . S
C1013 C1014 1.348 . S
C1013 C1018 1.413 . S
C1014 C1013 1.348 . S
C1014 C1015 1.442 . S
C1014 H1036 0.930 . S
C1015 C1014 1.442 . S
C1015 C1016 1.381 . S
C1015 H1037 0.931 . S
C1016 C1015 1.381 . S
C1016 C1017 1.321 . S
C1017 C1016 1.321 . S
C1017 C1018 1.403 . S
C1017 H1038 0.934 . S
C1018 C1013 1.413 . S
C1018 C1017 1.403 . S
C1018 H1039 0.930 . S
C1019 O1030 1.275 . S
C1019 O1031 1.256 . S
O1020 Ho1000 2.322 . S
O1020 C1002 1.259 . S
O1021 Ho1001 2.346 . S
O1021 C1002 1.268 . S
O1022 Ho1000 2.378 . S
O1022 C1003 1.215 . S
O1023 Ho1000 2.524 . S
O1023 C1003 1.289 . S
O1024 Ho1000 2.381 . S
O1024 C1010 1.275 . S
O1025 Ho1000 2.669 . S
O1025 Ho1001 2.305 . S
O1025 C1010 1.256 . S
O1026 Ho1001 2.322 . S
O1026 C1011 1.259 . S
O1027 Ho1000 2.346 . S
O1027 C1011 1.268 . S
O1028 Ho1001 2.378 . S
O1028 C1012 1.215 . S
O1029 Ho1001 2.524 . S
O1029 C1012 1.289 . S
O1030 Ho1001 2.381 . S
O1030 C1019 1.275 . S
O1031 Ho1000 2.305 . S
O1031 Ho1001 2.669 . S
O1031 C1019 1.256 . S
H1032 C1005 0.930 . S
H1033 C1006 0.931 . S
H1034 C1008 0.934 . S
H1035 C1009 0.930 . S
H1036 C1014 0.930 . S
H1037 C1015 0.931 . S
H1038 C1017 0.934 . S
H1039 C1018 0.930 . S
Ho1040 C1043 2.811 . S
Ho1040 O1060 2.322 . S
Ho1040 O1062 2.378 . S
Ho1040 O1063 2.524 . S
Ho1040 O1064 2.381 . S
Ho1040 O1065 2.669 . S
Ho1040 O1067 2.346 . S
Ho1040 O1071 2.305 . S
Ho1041 C1052 2.811 . S
Ho1041 O1061 2.346 . S
Ho1041 O1065 2.305 . S
Ho1041 O1066 2.322 . S
Ho1041 O1068 2.378 . S
Ho1041 O1069 2.524 . S
Ho1041 O1070 2.381 . S
Ho1041 O1071 2.669 . S
C1042 O1060 1.259 . S
C1042 O1061 1.268 . S
C1043 Ho1040 2.811 . S
C1043 C1044 1.488 . S
C1043 O1062 1.215 . S
C1043 O1063 1.289 . S
C1044 C1043 1.488 . S
C1044 C1045 1.348 . S
C1044 C1049 1.413 . S
C1045 C1044 1.348 . S
C1045 C1046 1.442 . S
C1045 H1072 0.930 . S
C1046 C1045 1.442 . S
C1046 C1047 1.381 . S
C1046 H1073 0.931 . S
C1047 C1046 1.381 . S
C1047 C1048 1.321 . S
C1048 C1047 1.321 . S
C1048 C1049 1.403 . S
C1048 H1074 0.934 . S
C1049 C1044 1.413 . S
C1049 C1048 1.403 . S
C1049 H1075 0.930 . S
C1050 O1064 1.275 . S
C1050 O1065 1.256 . S
C1051 O1066 1.259 . S
C1051 O1067 1.268 . S
C1052 Ho1041 2.811 . S
C1052 C1053 1.488 . S
C1052 O1068 1.215 . S
C1052 O1069 1.289 . S
C1053 C1052 1.488 . S
C1053 C1054 1.348 . S
C1053 C1058 1.413 . S
C1054 C1053 1.348 . S
C1054 C1055 1.442 . S
C1054 H1076 0.930 . S
C1055 C1054 1.442 . S
C1055 C1056 1.381 . S
C1055 H1077 0.931 . S
C1056 C1055 1.381 . S
C1056 C1057 1.321 . S
C1057 C1056 1.321 . S
C1057 C1058 1.403 . S
C1057 H1078 0.934 . S
C1058 C1053 1.413 . S
C1058 C1057 1.403 . S
C1058 H1079 0.930 . S
C1059 O1070 1.275 . S
C1059 O1071 1.256 . S
O1060 Ho1040 2.322 . S
O1060 C1042 1.259 . S
O1061 Ho1041 2.346 . S
O1061 C1042 1.268 . S
O1062 Ho1040 2.378 . S
O1062 C1043 1.215 . S
O1063 Ho1040 2.524 . S
O1063 C1043 1.289 . S
O1064 Ho1040 2.381 . S
O1064 C1050 1.275 . S
O1065 Ho1040 2.669 . S
O1065 Ho1041 2.305 . S
O1065 C1050 1.256 . S
O1066 Ho1041 2.322 . S
O1066 C1051 1.259 . S
O1067 Ho1040 2.346 . S
O1067 C1051 1.268 . S
O1068 Ho1041 2.378 . S
O1068 C1052 1.215 . S
O1069 Ho1041 2.524 . S
O1069 C1052 1.289 . S
O1070 Ho1041 2.381 . S
O1070 C1059 1.275 . S
O1071 Ho1040 2.305 . S
O1071 Ho1041 2.669 . S
O1071 C1059 1.256 . S
H1072 C1045 0.930 . S
H1073 C1046 0.931 . S
H1074 C1048 0.934 . S
H1075 C1049 0.930 . S
H1076 C1054 0.930 . S
H1077 C1055 0.931 . S
H1078 C1057 0.934 . S
H1079 C1058 0.930 . S
Ho1080 C1083 2.811 . S
Ho1080 O1100 2.322 . S
Ho1080 O1102 2.378 . S
Ho1080 O1103 2.524 . S
Ho1080 O1104 2.381 . S
Ho1080 O1105 2.669 . S
Ho1080 O1107 2.346 . S
Ho1080 O1111 2.305 . S
Ho1081 C1092 2.811 . S
Ho1081 O1101 2.346 . S
Ho1081 O1105 2.305 . S
Ho1081 O1106 2.322 . S
Ho1081 O1108 2.378 . S
Ho1081 O1109 2.524 . S
Ho1081 O1110 2.381 . S
Ho1081 O1111 2.669 . S
C1082 O1100 1.259 . S
C1082 O1101 1.268 . S
C1083 Ho1080 2.811 . S
C1083 C1084 1.488 . S
C1083 O1102 1.215 . S
C1083 O1103 1.289 . S
C1084 C1083 1.488 . S
C1084 C1085 1.348 . S
C1084 C1089 1.413 . S
C1085 C1084 1.348 . S
C1085 C1086 1.442 . S
C1085 H1112 0.930 . S
C1086 C1085 1.442 . S
C1086 C1087 1.381 . S
C1086 H1113 0.931 . S
C1087 C1086 1.381 . S
C1087 C1088 1.321 . S
C1088 C1087 1.321 . S
C1088 C1089 1.403 . S
C1088 H1114 0.934 . S
C1089 C1084 1.413 . S
C1089 C1088 1.403 . S
C1089 H1115 0.930 . S
C1090 O1104 1.275 . S
C1090 O1105 1.256 . S
C1091 O1106 1.259 . S
C1091 O1107 1.268 . S
C1092 Ho1081 2.811 . S
C1092 C1093 1.488 . S
C1092 O1108 1.215 . S
C1092 O1109 1.289 . S
C1093 C1092 1.488 . S
C1093 C1094 1.348 . S
C1093 C1098 1.413 . S
C1094 C1093 1.348 . S
C1094 C1095 1.442 . S
C1094 H1116 0.930 . S
C1095 C1094 1.442 . S
C1095 C1096 1.381 . S
C1095 H1117 0.931 . S
C1096 C1095 1.381 . S
C1096 C1097 1.321 . S
C1097 C1096 1.321 . S
C1097 C1098 1.403 . S
C1097 H1118 0.934 . S
C1098 C1093 1.413 . S
C1098 C1097 1.403 . S
C1098 H1119 0.930 . S
C1099 O1110 1.275 . S
C1099 O1111 1.256 . S
O1100 Ho1080 2.322 . S
O1100 C1082 1.259 . S
O1101 Ho1081 2.346 . S
O1101 C1082 1.268 . S
O1102 Ho1080 2.378 . S
O1102 C1083 1.215 . S
O1103 Ho1080 2.524 . S
O1103 C1083 1.289 . S
O1104 Ho1080 2.381 . S
O1104 C1090 1.275 . S
O1105 Ho1080 2.669 . S
O1105 Ho1081 2.305 . S
O1105 C1090 1.256 . S
O1106 Ho1081 2.322 . S
O1106 C1091 1.259 . S
O1107 Ho1080 2.346 . S
O1107 C1091 1.268 . S
O1108 Ho1081 2.378 . S
O1108 C1092 1.215 . S
O1109 Ho1081 2.524 . S
O1109 C1092 1.289 . S
O1110 Ho1081 2.381 . S
O1110 C1099 1.275 . S
O1111 Ho1080 2.305 . S
O1111 Ho1081 2.669 . S
O1111 C1099 1.256 . S
H1112 C1085 0.930 . S
H1113 C1086 0.931 . S
H1114 C1088 0.934 . S
H1115 C1089 0.930 . S
H1116 C1094 0.930 . S
H1117 C1095 0.931 . S
H1118 C1097 0.934 . S
H1119 C1098 0.930 . S
Ho1120 C1123 2.811 . S
Ho1120 O1140 2.322 . S
Ho1120 O1142 2.378 . S
Ho1120 O1143 2.524 . S
Ho1120 O1144 2.381 1_455 S
Ho1120 O1145 2.669 1_455 S
Ho1120 O1147 2.346 1_455 S
Ho1120 O1151 2.305 . S
Ho1121 C1132 2.811 . S
Ho1121 O1141 2.346 1_655 S
Ho1121 O1145 2.305 . S
Ho1121 O1146 2.322 . S
Ho1121 O1148 2.378 . S
Ho1121 O1149 2.524 . S
Ho1121 O1150 2.381 1_655 S
Ho1121 O1151 2.669 1_655 S
C1122 O1140 1.259 . S
C1122 O1141 1.268 . S
C1123 Ho1120 2.811 . S
C1123 C1124 1.488 . S
C1123 O1142 1.215 . S
C1123 O1143 1.289 . S
C1124 C1123 1.488 . S
C1124 C1125 1.348 . S
C1124 C1129 1.413 . S
C1125 C1124 1.348 . S
C1125 C1126 1.442 . S
C1125 H1152 0.930 . S
C1126 C1125 1.442 . S
C1126 C1127 1.381 . S
C1126 H1153 0.931 . S
C1127 C1126 1.381 . S
C1127 C1128 1.321 . S
C1128 C1127 1.321 . S
C1128 C1129 1.403 . S
C1128 H1154 0.934 . S
C1129 C1124 1.413 . S
C1129 C1128 1.403 . S
C1129 H1155 0.930 . S
C1130 O1144 1.275 . S
C1130 O1145 1.256 . S
C1131 O1146 1.259 . S
C1131 O1147 1.268 . S
C1132 Ho1121 2.811 . S
C1132 C1133 1.488 . S
C1132 O1148 1.215 . S
C1132 O1149 1.289 . S
C1133 C1132 1.488 . S
C1133 C1134 1.348 . S
C1133 C1138 1.413 . S
C1134 C1133 1.348 . S
C1134 C1135 1.442 . S
C1134 H1156 0.930 . S
C1135 C1134 1.442 . S
C1135 C1136 1.381 . S
C1135 H1157 0.931 . S
C1136 C1135 1.381 . S
C1136 C1137 1.321 . S
C1137 C1136 1.321 . S
C1137 C1138 1.403 . S
C1137 H1158 0.934 . S
C1138 C1133 1.413 . S
C1138 C1137 1.403 . S
C1138 H1159 0.930 . S
C1139 O1150 1.275 . S
C1139 O1151 1.256 . S
O1140 Ho1120 2.322 . S
O1140 C1122 1.259 . S
O1141 Ho1121 2.346 1_455 S
O1141 C1122 1.268 . S
O1142 Ho1120 2.378 . S
O1142 C1123 1.215 . S
O1143 Ho1120 2.524 . S
O1143 C1123 1.289 . S
O1144 Ho1120 2.381 1_655 S
O1144 C1130 1.275 . S
O1145 Ho1120 2.669 1_655 S
O1145 Ho1121 2.305 . S
O1145 C1130 1.256 . S
O1146 Ho1121 2.322 . S
O1146 C1131 1.259 . S
O1147 Ho1120 2.346 1_655 S
O1147 C1131 1.268 . S
O1148 Ho1121 2.378 . S
O1148 C1132 1.215 . S
O1149 Ho1121 2.524 . S
O1149 C1132 1.289 . S
O1150 Ho1121 2.381 1_455 S
O1150 C1139 1.275 . S
O1151 Ho1120 2.305 . S
O1151 Ho1121 2.669 1_455 S
O1151 C1139 1.256 . S
H1152 C1125 0.930 . S
H1153 C1126 0.931 . S
H1154 C1128 0.934 . S
H1155 C1129 0.930 . S
H1156 C1134 0.930 . S
H1157 C1135 0.931 . S
H1158 C1137 0.934 . S
H1159 C1138 0.930 . S
Ho1160 C1163 2.811 . S
Ho1160 O1180 2.322 . S
Ho1160 O1182 2.378 . S
Ho1160 O1183 2.524 . S
Ho1160 O1184 2.381 . S
Ho1160 O1185 2.669 . S
Ho1160 O1187 2.346 . S
Ho1160 O1191 2.305 . S
Ho1161 C1172 2.811 . S
Ho1161 O1181 2.346 . S
Ho1161 O1185 2.305 . S
Ho1161 O1186 2.322 . S
Ho1161 O1188 2.378 . S
Ho1161 O1189 2.524 . S
Ho1161 O1190 2.381 . S
Ho1161 O1191 2.669 . S
C1162 O1180 1.259 . S
C1162 O1181 1.268 . S
C1163 Ho1160 2.811 . S
C1163 C1164 1.488 . S
C1163 O1182 1.215 . S
C1163 O1183 1.289 . S
C1164 C1163 1.488 . S
C1164 C1165 1.348 . S
C1164 C1169 1.413 . S
C1165 C1164 1.348 . S
C1165 C1166 1.442 . S
C1165 H1192 0.930 . S
C1166 C1165 1.442 . S
C1166 C1167 1.381 . S
C1166 H1193 0.931 . S
C1167 C1166 1.381 . S
C1167 C1168 1.321 . S
C1168 C1167 1.321 . S
C1168 C1169 1.403 . S
C1168 H1194 0.934 . S
C1169 C1164 1.413 . S
C1169 C1168 1.403 . S
C1169 H1195 0.930 . S
C1170 O1184 1.275 . S
C1170 O1185 1.256 . S
C1171 O1186 1.259 . S
C1171 O1187 1.268 . S
C1172 Ho1161 2.811 . S
C1172 C1173 1.488 . S
C1172 O1188 1.215 . S
C1172 O1189 1.289 . S
C1173 C1172 1.488 . S
C1173 C1174 1.348 . S
C1173 C1178 1.413 . S
C1174 C1173 1.348 . S
C1174 C1175 1.442 . S
C1174 H1196 0.930 . S
C1175 C1174 1.442 . S
C1175 C1176 1.381 . S
C1175 H1197 0.931 . S
C1176 C1175 1.381 . S
C1176 C1177 1.321 . S
C1177 C1176 1.321 . S
C1177 C1178 1.403 . S
C1177 H1198 0.934 . S
C1178 C1173 1.413 . S
C1178 C1177 1.403 . S
C1178 H1199 0.930 . S
C1179 O1190 1.275 . S
C1179 O1191 1.256 . S
O1180 Ho1160 2.322 . S
O1180 C1162 1.259 . S
O1181 Ho1161 2.346 . S
O1181 C1162 1.268 . S
O1182 Ho1160 2.378 . S
O1182 C1163 1.215 . S
O1183 Ho1160 2.524 . S
O1183 C1163 1.289 . S
O1184 Ho1160 2.381 . S
O1184 C1170 1.275 . S
O1185 Ho1160 2.669 . S
O1185 Ho1161 2.305 . S
O1185 C1170 1.256 . S
O1186 Ho1161 2.322 . S
O1186 C1171 1.259 . S
O1187 Ho1160 2.346 . S
O1187 C1171 1.268 . S
O1188 Ho1161 2.378 . S
O1188 C1172 1.215 . S
O1189 Ho1161 2.524 . S
O1189 C1172 1.289 . S
O1190 Ho1161 2.381 . S
O1190 C1179 1.275 . S
O1191 Ho1160 2.305 . S
O1191 Ho1161 2.669 . S
O1191 C1179 1.256 . S
H1192 C1165 0.930 . S
H1193 C1166 0.931 . S
H1194 C1168 0.934 . S
H1195 C1169 0.930 . S
H1196 C1174 0.930 . S
H1197 C1175 0.931 . S
H1198 C1177 0.934 . S
H1199 C1178 0.930 . S
Ho1200 C1203 2.811 . S
Ho1200 O1220 2.322 . S
Ho1200 O1222 2.378 . S
Ho1200 O1223 2.524 . S
Ho1200 O1224 2.381 . S
Ho1200 O1225 2.669 . S
Ho1200 O1227 2.346 . S
Ho1200 O1231 2.305 . S
Ho1201 C1212 2.811 . S
Ho1201 O1221 2.346 . S
Ho1201 O1225 2.305 . S
Ho1201 O1226 2.322 . S
Ho1201 O1228 2.378 . S
Ho1201 O1229 2.524 . S
Ho1201 O1230 2.381 . S
Ho1201 O1231 2.669 . S
C1202 O1220 1.259 . S
C1202 O1221 1.268 . S
C1203 Ho1200 2.811 . S
C1203 C1204 1.488 . S
C1203 O1222 1.215 . S
C1203 O1223 1.289 . S
C1204 C1203 1.488 . S
C1204 C1205 1.348 . S
C1204 C1209 1.413 . S
C1205 C1204 1.348 . S
C1205 C1206 1.442 . S
C1205 H1232 0.930 . S
C1206 C1205 1.442 . S
C1206 C1207 1.381 . S
C1206 H1233 0.931 . S
C1207 C1206 1.381 . S
C1207 C1208 1.321 . S
C1208 C1207 1.321 . S
C1208 C1209 1.403 . S
C1208 H1234 0.934 . S
C1209 C1204 1.413 . S
C1209 C1208 1.403 . S
C1209 H1235 0.930 . S
C1210 O1224 1.275 . S
C1210 O1225 1.256 . S
C1211 O1226 1.259 . S
C1211 O1227 1.268 . S
C1212 Ho1201 2.811 . S
C1212 C1213 1.488 . S
C1212 O1228 1.215 . S
C1212 O1229 1.289 . S
C1213 C1212 1.488 . S
C1213 C1214 1.348 . S
C1213 C1218 1.413 . S
C1214 C1213 1.348 . S
C1214 C1215 1.442 . S
C1214 H1236 0.930 . S
C1215 C1214 1.442 . S
C1215 C1216 1.381 . S
C1215 H1237 0.931 . S
C1216 C1215 1.381 . S
C1216 C1217 1.321 . S
C1217 C1216 1.321 . S
C1217 C1218 1.403 . S
C1217 H1238 0.934 . S
C1218 C1213 1.413 . S
C1218 C1217 1.403 . S
C1218 H1239 0.930 . S
C1219 O1230 1.275 . S
C1219 O1231 1.256 . S
O1220 Ho1200 2.322 . S
O1220 C1202 1.259 . S
O1221 Ho1201 2.346 . S
O1221 C1202 1.268 . S
O1222 Ho1200 2.378 . S
O1222 C1203 1.215 . S
O1223 Ho1200 2.524 . S
O1223 C1203 1.289 . S
O1224 Ho1200 2.381 . S
O1224 C1210 1.275 . S
O1225 Ho1200 2.669 . S
O1225 Ho1201 2.305 . S
O1225 C1210 1.256 . S
O1226 Ho1201 2.322 . S
O1226 C1211 1.259 . S
O1227 Ho1200 2.346 . S
O1227 C1211 1.268 . S
O1228 Ho1201 2.378 . S
O1228 C1212 1.215 . S
O1229 Ho1201 2.524 . S
O1229 C1212 1.289 . S
O1230 Ho1201 2.381 . S
O1230 C1219 1.275 . S
O1231 Ho1200 2.305 . S
O1231 Ho1201 2.669 . S
O1231 C1219 1.256 . S
H1232 C1205 0.930 . S
H1233 C1206 0.931 . S
H1234 C1208 0.934 . S
H1235 C1209 0.930 . S
H1236 C1214 0.930 . S
H1237 C1215 0.931 . S
H1238 C1217 0.934 . S
H1239 C1218 0.930 . S
Ho1240 C1243 2.811 . S
Ho1240 O1260 2.322 . S
Ho1240 O1262 2.378 . S
Ho1240 O1263 2.524 . S
Ho1240 O1264 2.381 . S
Ho1240 O1265 2.669 . S
Ho1240 O1267 2.346 . S
Ho1240 O1271 2.305 . S
Ho1241 C1252 2.811 . S
Ho1241 O1261 2.346 . S
Ho1241 O1265 2.305 . S
Ho1241 O1266 2.322 . S
Ho1241 O1268 2.378 . S
Ho1241 O1269 2.524 . S
Ho1241 O1270 2.381 . S
Ho1241 O1271 2.669 . S
C1242 O1260 1.259 . S
C1242 O1261 1.268 . S
C1243 Ho1240 2.811 . S
C1243 C1244 1.488 . S
C1243 O1262 1.215 . S
C1243 O1263 1.289 . S
C1244 C1243 1.488 . S
C1244 C1245 1.348 . S
C1244 C1249 1.413 . S
C1245 C1244 1.348 . S
C1245 C1246 1.442 . S
C1245 H1272 0.930 . S
C1246 C1245 1.442 . S
C1246 C1247 1.381 . S
C1246 H1273 0.931 . S
C1247 C1246 1.381 . S
C1247 C1248 1.321 . S
C1248 C1247 1.321 . S
C1248 C1249 1.403 . S
C1248 H1274 0.934 . S
C1249 C1244 1.413 . S
C1249 C1248 1.403 . S
C1249 H1275 0.930 . S
C1250 O1264 1.275 . S
C1250 O1265 1.256 . S
C1251 O1266 1.259 . S
C1251 O1267 1.268 . S
C1252 Ho1241 2.811 . S
C1252 C1253 1.488 . S
C1252 O1268 1.215 . S
C1252 O1269 1.289 . S
C1253 C1252 1.488 . S
C1253 C1254 1.348 . S
C1253 C1258 1.413 . S
C1254 C1253 1.348 . S
C1254 C1255 1.442 . S
C1254 H1276 0.930 . S
C1255 C1254 1.442 . S
C1255 C1256 1.381 . S
C1255 H1277 0.931 . S
C1256 C1255 1.381 . S
C1256 C1257 1.321 . S
C1257 C1256 1.321 . S
C1257 C1258 1.403 . S
C1257 H1278 0.934 . S
C1258 C1253 1.413 . S
C1258 C1257 1.403 . S
C1258 H1279 0.930 . S
C1259 O1270 1.275 . S
C1259 O1271 1.256 . S
O1260 Ho1240 2.322 . S
O1260 C1242 1.259 . S
O1261 Ho1241 2.346 . S
O1261 C1242 1.268 . S
O1262 Ho1240 2.378 . S
O1262 C1243 1.215 . S
O1263 Ho1240 2.524 . S
O1263 C1243 1.289 . S
O1264 Ho1240 2.381 . S
O1264 C1250 1.275 . S
O1265 Ho1240 2.669 . S
O1265 Ho1241 2.305 . S
O1265 C1250 1.256 . S
O1266 Ho1241 2.322 . S
O1266 C1251 1.259 . S
O1267 Ho1240 2.346 . S
O1267 C1251 1.268 . S
O1268 Ho1241 2.378 . S
O1268 C1252 1.215 . S
O1269 Ho1241 2.524 . S
O1269 C1252 1.289 . S
O1270 Ho1241 2.381 . S
O1270 C1259 1.275 . S
O1271 Ho1240 2.305 . S
O1271 Ho1241 2.669 . S
O1271 C1259 1.256 . S
H1272 C1245 0.930 . S
H1273 C1246 0.931 . S
H1274 C1248 0.934 . S
H1275 C1249 0.930 . S
H1276 C1254 0.930 . S
H1277 C1255 0.931 . S
H1278 C1257 0.934 . S
H1279 C1258 0.930 . S
Ho1280 C1283 2.811 1_565 S
Ho1280 O1300 2.323 . S
Ho1280 O1302 2.378 1_565 S
Ho1280 O1303 2.524 1_565 S
Ho1280 O1304 2.381 . S
Ho1280 O1305 2.669 . S
Ho1280 O1307 2.346 . S
Ho1280 O1311 2.305 . S
Ho1281 C1292 2.811 . S
Ho1281 O1301 2.346 . S
Ho1281 O1305 2.305 . S
Ho1281 O1306 2.322 . S
Ho1281 O1308 2.378 . S
Ho1281 O1309 2.524 . S
Ho1281 O1310 2.381 . S
Ho1281 O1311 2.669 . S
C1282 O1300 1.259 . S
C1282 O1301 1.268 . S
C1283 Ho1280 2.811 1_545 S
C1283 C1284 1.488 . S
C1283 O1302 1.215 . S
C1283 O1303 1.289 . S
C1284 C1283 1.488 . S
C1284 C1285 1.348 . S
C1284 C1289 1.413 . S
C1285 C1284 1.348 . S
C1285 C1286 1.442 . S
C1285 H1312 0.930 . S
C1286 C1285 1.442 . S
C1286 C1287 1.381 . S
C1286 H1313 0.931 . S
C1287 C1286 1.381 . S
C1287 C1288 1.321 . S
C1288 C1287 1.321 . S
C1288 C1289 1.403 . S
C1288 H1314 0.934 . S
C1289 C1284 1.413 . S
C1289 C1288 1.403 . S
C1289 H1315 0.930 . S
C1290 O1304 1.275 . S
C1290 O1305 1.256 . S
C1291 O1306 1.259 . S
C1291 O1307 1.268 . S
C1292 Ho1281 2.811 . S
C1292 C1293 1.488 . S
C1292 O1308 1.215 . S
C1292 O1309 1.289 . S
C1293 C1292 1.488 . S
C1293 C1294 1.348 . S
C1293 C1298 1.413 . S
C1294 C1293 1.348 . S
C1294 C1295 1.442 . S
C1294 H1316 0.930 . S
C1295 C1294 1.442 . S
C1295 C1296 1.381 . S
C1295 H1317 0.931 . S
C1296 C1295 1.381 . S
C1296 C1297 1.321 . S
C1297 C1296 1.321 . S
C1297 C1298 1.403 . S
C1297 H1318 0.934 . S
C1298 C1293 1.413 . S
C1298 C1297 1.403 . S
C1298 H1319 0.930 . S
C1299 O1310 1.275 . S
C1299 O1311 1.256 . S
O1300 Ho1280 2.323 . S
O1300 C1282 1.259 . S
O1301 Ho1281 2.346 . S
O1301 C1282 1.268 . S
O1302 Ho1280 2.378 1_545 S
O1302 C1283 1.215 . S
O1303 Ho1280 2.524 1_545 S
O1303 C1283 1.289 . S
O1304 Ho1280 2.381 . S
O1304 C1290 1.275 . S
O1305 Ho1280 2.669 . S
O1305 Ho1281 2.305 . S
O1305 C1290 1.256 . S
O1306 Ho1281 2.322 . S
O1306 C1291 1.259 . S
O1307 Ho1280 2.346 . S
O1307 C1291 1.268 . S
O1308 Ho1281 2.378 . S
O1308 C1292 1.215 . S
O1309 Ho1281 2.524 . S
O1309 C1292 1.289 . S
O1310 Ho1281 2.381 . S
O1310 C1299 1.275 . S
O1311 Ho1280 2.305 . S
O1311 Ho1281 2.669 . S
O1311 C1299 1.256 . S
H1312 C1285 0.930 . S
H1313 C1286 0.931 . S
H1314 C1288 0.934 . S
H1315 C1289 0.930 . S
H1316 C1294 0.930 . S
H1317 C1295 0.931 . S
H1318 C1297 0.934 . S
H1319 C1298 0.930 . S
Ho1320 C1323 2.811 . S
Ho1320 O1340 2.322 . S
Ho1320 O1342 2.378 . S
Ho1320 O1343 2.524 . S
Ho1320 O1344 2.381 . S
Ho1320 O1345 2.669 . S
Ho1320 O1347 2.346 . S
Ho1320 O1351 2.305 . S
Ho1321 C1332 2.811 . S
Ho1321 O1341 2.346 . S
Ho1321 O1345 2.305 . S
Ho1321 O1346 2.322 . S
Ho1321 O1348 2.378 . S
Ho1321 O1349 2.524 . S
Ho1321 O1350 2.381 . S
Ho1321 O1351 2.669 . S
C1322 O1340 1.259 . S
C1322 O1341 1.268 . S
C1323 Ho1320 2.811 . S
C1323 C1324 1.488 . S
C1323 O1342 1.215 . S
C1323 O1343 1.289 . S
C1324 C1323 1.488 . S
C1324 C1325 1.348 . S
C1324 C1329 1.413 . S
C1325 C1324 1.348 . S
C1325 C1326 1.442 . S
C1325 H1352 0.930 . S
C1326 C1325 1.442 . S
C1326 C1327 1.381 . S
C1326 H1353 0.931 . S
C1327 C1326 1.381 . S
C1327 C1328 1.321 . S
C1328 C1327 1.321 . S
C1328 C1329 1.403 . S
C1328 H1354 0.934 . S
C1329 C1324 1.413 . S
C1329 C1328 1.403 . S
C1329 H1355 0.930 . S
C1330 O1344 1.275 . S
C1330 O1345 1.256 . S
C1331 O1346 1.259 . S
C1331 O1347 1.268 . S
C1332 Ho1321 2.811 . S
C1332 C1333 1.488 . S
C1332 O1348 1.215 . S
C1332 O1349 1.289 . S
C1333 C1332 1.488 . S
C1333 C1334 1.348 . S
C1333 C1338 1.413 . S
C1334 C1333 1.348 . S
C1334 C1335 1.442 . S
C1334 H1356 0.930 . S
C1335 C1334 1.442 . S
C1335 C1336 1.381 . S
C1335 H1357 0.931 . S
C1336 C1335 1.381 . S
C1336 C1337 1.321 . S
C1337 C1336 1.321 . S
C1337 C1338 1.403 . S
C1337 H1358 0.934 . S
C1338 C1333 1.413 . S
C1338 C1337 1.403 . S
C1338 H1359 0.930 . S
C1339 O1350 1.275 . S
C1339 O1351 1.256 . S
O1340 Ho1320 2.322 . S
O1340 C1322 1.259 . S
O1341 Ho1321 2.346 . S
O1341 C1322 1.268 . S
O1342 Ho1320 2.378 . S
O1342 C1323 1.215 . S
O1343 Ho1320 2.524 . S
O1343 C1323 1.289 . S
O1344 Ho1320 2.381 . S
O1344 C1330 1.275 . S
O1345 Ho1320 2.669 . S
O1345 Ho1321 2.305 . S
O1345 C1330 1.256 . S
O1346 Ho1321 2.322 . S
O1346 C1331 1.259 . S
O1347 Ho1320 2.346 . S
O1347 C1331 1.268 . S
O1348 Ho1321 2.378 . S
O1348 C1332 1.215 . S
O1349 Ho1321 2.524 . S
O1349 C1332 1.289 . S
O1350 Ho1321 2.381 . S
O1350 C1339 1.275 . S
O1351 Ho1320 2.305 . S
O1351 Ho1321 2.669 . S
O1351 C1339 1.256 . S
H1352 C1325 0.930 . S
H1353 C1326 0.931 . S
H1354 C1328 0.934 . S
H1355 C1329 0.930 . S
H1356 C1334 0.930 . S
H1357 C1335 0.931 . S
H1358 C1337 0.934 . S
H1359 C1338 0.930 . S
Ho1360 C1363 2.811 . S
Ho1360 O1380 2.322 . S
Ho1360 O1382 2.378 . S
Ho1360 O1383 2.524 . S
Ho1360 O1384 2.381 1_565 S
Ho1360 O1385 2.669 1_565 S
Ho1360 O1387 2.346 1_565 S
Ho1360 O1391 2.305 . S
Ho1361 C1372 2.811 . S
Ho1361 O1381 2.346 1_545 S
Ho1361 O1385 2.305 . S
Ho1361 O1386 2.322 . S
Ho1361 O1388 2.378 . S
Ho1361 O1389 2.524 . S
Ho1361 O1390 2.381 1_545 S
Ho1361 O1391 2.669 1_545 S
C1362 O1380 1.259 . S
C1362 O1381 1.268 . S
C1363 Ho1360 2.811 . S
C1363 C1364 1.488 . S
C1363 O1382 1.215 . S
C1363 O1383 1.289 . S
C1364 C1363 1.488 . S
C1364 C1365 1.348 . S
C1364 C1369 1.413 . S
C1365 C1364 1.348 . S
C1365 C1366 1.442 . S
C1365 H1392 0.930 . S
C1366 C1365 1.442 . S
C1366 C1367 1.381 . S
C1366 H1393 0.931 . S
C1367 C1366 1.381 . S
C1367 C1368 1.321 . S
C1368 C1367 1.321 . S
C1368 C1369 1.403 . S
C1368 H1394 0.934 . S
C1369 C1364 1.413 . S
C1369 C1368 1.403 . S
C1369 H1395 0.930 . S
C1370 O1384 1.275 . S
C1370 O1385 1.256 . S
C1371 O1386 1.259 . S
C1371 O1387 1.268 . S
C1372 Ho1361 2.811 . S
C1372 C1373 1.488 . S
C1372 O1388 1.215 . S
C1372 O1389 1.289 . S
C1373 C1372 1.488 . S
C1373 C1374 1.348 . S
C1373 C1378 1.413 . S
C1374 C1373 1.348 . S
C1374 C1375 1.442 . S
C1374 H1396 0.930 . S
C1375 C1374 1.442 . S
C1375 C1376 1.381 . S
C1375 H1397 0.931 . S
C1376 C1375 1.381 . S
C1376 C1377 1.321 . S
C1377 C1376 1.321 . S
C1377 C1378 1.403 . S
C1377 H1398 0.934 . S
C1378 C1373 1.413 . S
C1378 C1377 1.403 . S
C1378 H1399 0.930 . S
C1379 O1390 1.275 . S
C1379 O1391 1.256 . S
O1380 Ho1360 2.322 . S
O1380 C1362 1.259 . S
O1381 Ho1361 2.346 1_565 S
O1381 C1362 1.268 . S
O1382 Ho1360 2.378 . S
O1382 C1363 1.215 . S
O1383 Ho1360 2.524 . S
O1383 C1363 1.289 . S
O1384 Ho1360 2.381 1_545 S
O1384 C1370 1.275 . S
O1385 Ho1360 2.669 1_545 S
O1385 Ho1361 2.305 . S
O1385 C1370 1.256 . S
O1386 Ho1361 2.322 . S
O1386 C1371 1.259 . S
O1387 Ho1360 2.346 1_545 S
O1387 C1371 1.268 . S
O1388 Ho1361 2.378 . S
O1388 C1372 1.215 . S
O1389 Ho1361 2.524 . S
O1389 C1372 1.289 . S
O1390 Ho1361 2.381 1_565 S
O1390 C1379 1.275 . S
O1391 Ho1360 2.305 . S
O1391 Ho1361 2.669 1_565 S
O1391 C1379 1.256 . S
H1392 C1365 0.930 . S
H1393 C1366 0.931 . S
H1394 C1368 0.934 . S
H1395 C1369 0.930 . S
H1396 C1374 0.930 . S
H1397 C1375 0.931 . S
H1398 C1377 0.934 . S
H1399 C1378 0.930 . S
Ho1400 C1403 2.811 . S
Ho1400 O1420 2.322 . S
Ho1400 O1422 2.378 . S
Ho1400 O1423 2.524 . S
Ho1400 O1424 2.381 . S
Ho1400 O1425 2.669 . S
Ho1400 O1427 2.346 . S
Ho1400 O1431 2.305 . S
Ho1401 C1412 2.811 . S
Ho1401 O1421 2.346 . S
Ho1401 O1425 2.305 . S
Ho1401 O1426 2.322 . S
Ho1401 O1428 2.378 . S
Ho1401 O1429 2.524 . S
Ho1401 O1430 2.381 . S
Ho1401 O1431 2.669 . S
C1402 O1420 1.259 . S
C1402 O1421 1.268 . S
C1403 Ho1400 2.811 . S
C1403 C1404 1.488 . S
C1403 O1422 1.215 . S
C1403 O1423 1.289 . S
C1404 C1403 1.488 . S
C1404 C1405 1.348 . S
C1404 C1409 1.413 . S
C1405 C1404 1.348 . S
C1405 C1406 1.442 . S
C1405 H1432 0.930 . S
C1406 C1405 1.442 . S
C1406 C1407 1.381 . S
C1406 H1433 0.931 . S
C1407 C1406 1.381 . S
C1407 C1408 1.321 . S
C1408 C1407 1.321 . S
C1408 C1409 1.403 . S
C1408 H1434 0.934 . S
C1409 C1404 1.413 . S
C1409 C1408 1.403 . S
C1409 H1435 0.930 . S
C1410 O1424 1.275 . S
C1410 O1425 1.256 . S
C1411 O1426 1.259 . S
C1411 O1427 1.268 . S
C1412 Ho1401 2.811 . S
C1412 C1413 1.488 . S
C1412 O1428 1.215 . S
C1412 O1429 1.289 . S
C1413 C1412 1.488 . S
C1413 C1414 1.348 . S
C1413 C1418 1.413 . S
C1414 C1413 1.348 . S
C1414 C1415 1.442 . S
C1414 H1436 0.930 . S
C1415 C1414 1.442 . S
C1415 C1416 1.381 . S
C1415 H1437 0.931 . S
C1416 C1415 1.381 . S
C1416 C1417 1.321 . S
C1417 C1416 1.321 . S
C1417 C1418 1.403 . S
C1417 H1438 0.934 . S
C1418 C1413 1.413 . S
C1418 C1417 1.403 . S
C1418 H1439 0.930 . S
C1419 O1430 1.275 . S
C1419 O1431 1.256 . S
O1420 Ho1400 2.322 . S
O1420 C1402 1.259 . S
O1421 Ho1401 2.346 . S
O1421 C1402 1.268 . S
O1422 Ho1400 2.378 . S
O1422 C1403 1.215 . S
O1423 Ho1400 2.524 . S
O1423 C1403 1.289 . S
O1424 Ho1400 2.381 . S
O1424 C1410 1.275 . S
O1425 Ho1400 2.669 . S
O1425 Ho1401 2.305 . S
O1425 C1410 1.256 . S
O1426 Ho1401 2.322 . S
O1426 C1411 1.259 . S
O1427 Ho1400 2.346 . S
O1427 C1411 1.268 . S
O1428 Ho1401 2.378 . S
O1428 C1412 1.215 . S
O1429 Ho1401 2.524 . S
O1429 C1412 1.289 . S
O1430 Ho1401 2.381 . S
O1430 C1419 1.275 . S
O1431 Ho1400 2.305 . S
O1431 Ho1401 2.669 . S
O1431 C1419 1.256 . S
H1432 C1405 0.930 . S
H1433 C1406 0.931 . S
H1434 C1408 0.934 . S
H1435 C1409 0.930 . S
H1436 C1414 0.930 . S
H1437 C1415 0.931 . S
H1438 C1417 0.934 . S
H1439 C1418 0.930 . S
Ho1440 C1443 2.811 . S
Ho1440 O1460 2.322 . S
Ho1440 O1462 2.378 . S
Ho1440 O1463 2.524 . S
Ho1440 O1464 2.381 1_565 S
Ho1440 O1465 2.669 1_565 S
Ho1440 O1467 2.346 1_565 S
Ho1440 O1471 2.304 . S
Ho1441 C1452 2.811 . S
Ho1441 O1461 2.346 . S
Ho1441 O1465 2.305 . S
Ho1441 O1466 2.322 . S
Ho1441 O1468 2.378 . S
Ho1441 O1469 2.524 . S
Ho1441 O1470 2.381 . S
Ho1441 O1471 2.673 1_545 S
C1442 O1460 1.259 . S
C1442 O1461 1.268 1_565 S
C1443 Ho1440 2.811 . S
C1443 C1444 1.488 . S
C1443 O1462 1.215 . S
C1443 O1463 1.289 . S
C1444 C1443 1.488 . S
C1444 C1445 1.348 . S
C1444 C1449 1.413 . S
C1445 C1444 1.348 . S
C1445 C1446 1.442 . S
C1445 H1472 0.930 . S
C1446 C1445 1.442 . S
C1446 C1447 1.381 . S
C1446 H1473 0.931 . S
C1447 C1446 1.381 . S
C1447 C1448 1.321 . S
C1448 C1447 1.321 . S
C1448 C1449 1.403 . S
C1448 H1474 0.934 . S
C1449 C1444 1.413 . S
C1449 C1448 1.403 . S
C1449 H1475 0.930 . S
C1450 O1464 1.275 . S
C1450 O1465 1.256 . S
C1451 O1466 1.259 . S
C1451 O1467 1.268 . S
C1452 Ho1441 2.811 . S
C1452 C1453 1.488 . S
C1452 O1468 1.215 . S
C1452 O1469 1.289 . S
C1453 C1452 1.488 . S
C1453 C1454 1.348 . S
C1453 C1458 1.413 . S
C1454 C1453 1.348 . S
C1454 C1455 1.442 . S
C1454 H1476 0.930 . S
C1455 C1454 1.442 . S
C1455 C1456 1.381 . S
C1455 H1477 0.931 . S
C1456 C1455 1.381 . S
C1456 C1457 1.321 . S
C1457 C1456 1.321 . S
C1457 C1458 1.403 . S
C1457 H1478 0.934 . S
C1458 C1453 1.413 . S
C1458 C1457 1.403 . S
C1458 H1479 0.930 . S
C1459 O1470 1.313 . S
C1459 O1471 1.255 1_545 S
O1460 Ho1440 2.322 . S
O1460 C1442 1.259 . S
O1461 Ho1441 2.346 . S
O1461 C1442 1.268 1_545 S
O1462 Ho1440 2.378 . S
O1462 C1443 1.215 . S
O1463 Ho1440 2.524 . S
O1463 C1443 1.289 . S
O1464 Ho1440 2.381 1_545 S
O1464 C1450 1.275 . S
O1465 Ho1440 2.669 1_545 S
O1465 Ho1441 2.305 . S
O1465 C1450 1.256 . S
O1466 Ho1441 2.322 . S
O1466 C1451 1.259 . S
O1467 Ho1440 2.346 1_545 S
O1467 C1451 1.268 . S
O1468 Ho1441 2.378 . S
O1468 C1452 1.215 . S
O1469 Ho1441 2.524 . S
O1469 C1452 1.289 . S
O1470 Ho1441 2.381 . S
O1470 C1459 1.313 . S
O1471 Ho1440 2.304 . S
O1471 Ho1441 2.673 1_565 S
O1471 C1459 1.255 1_565 S
H1472 C1445 0.930 . S
H1473 C1446 0.931 . S
H1474 C1448 0.934 . S
H1475 C1449 0.930 . S
H1476 C1454 0.930 . S
H1477 C1455 0.931 . S
H1478 C1457 0.934 . S
H1479 C1458 0.930 . S
Ho1480 C1483 2.811 . S
Ho1480 O1500 2.322 . S
Ho1480 O1502 2.378 . S
Ho1480 O1503 2.524 . S
Ho1480 O1504 2.381 . S
Ho1480 O1505 2.669 . S
Ho1480 O1507 2.346 . S
Ho1480 O1511 2.305 . S
Ho1481 C1492 2.811 . S
Ho1481 O1501 2.346 . S
Ho1481 O1505 2.305 . S
Ho1481 O1506 2.322 . S
Ho1481 O1508 2.378 . S
Ho1481 O1509 2.524 . S
Ho1481 O1510 2.381 . S
Ho1481 O1511 2.669 . S
C1482 O1500 1.259 . S
C1482 O1501 1.268 . S
C1483 Ho1480 2.811 . S
C1483 C1484 1.488 . S
C1483 O1502 1.215 . S
C1483 O1503 1.289 . S
C1484 C1483 1.488 . S
C1484 C1485 1.348 . S
C1484 C1489 1.413 . S
C1485 C1484 1.348 . S
C1485 C1486 1.442 . S
C1485 H1512 0.930 . S
C1486 C1485 1.442 . S
C1486 C1487 1.381 . S
C1486 H1513 0.931 . S
C1487 C1486 1.381 . S
C1487 C1488 1.321 . S
C1488 C1487 1.321 . S
C1488 C1489 1.403 . S
C1488 H1514 0.934 . S
C1489 C1484 1.413 . S
C1489 C1488 1.403 . S
C1489 H1515 0.930 . S
C1490 O1504 1.275 . S
C1490 O1505 1.256 . S
C1491 O1506 1.259 . S
C1491 O1507 1.268 . S
C1492 Ho1481 2.811 . S
C1492 C1493 1.488 . S
C1492 O1508 1.215 . S
C1492 O1509 1.289 . S
C1493 C1492 1.488 . S
C1493 C1494 1.348 . S
C1493 C1498 1.413 . S
C1494 C1493 1.348 . S
C1494 C1495 1.442 . S
C1494 H1516 0.930 . S
C1495 C1494 1.442 . S
C1495 C1496 1.381 . S
C1495 H1517 0.931 . S
C1496 C1495 1.381 . S
C1496 C1497 1.321 . S
C1497 C1496 1.321 . S
C1497 C1498 1.403 . S
C1497 H1518 0.934 . S
C1498 C1493 1.413 . S
C1498 C1497 1.403 . S
C1498 H1519 0.930 . S
C1499 O1510 1.275 . S
C1499 O1511 1.256 . S
O1500 Ho1480 2.322 . S
O1500 C1482 1.259 . S
O1501 Ho1481 2.346 . S
O1501 C1482 1.268 . S
O1502 Ho1480 2.378 . S
O1502 C1483 1.215 . S
O1503 Ho1480 2.524 . S
O1503 C1483 1.289 . S
O1504 Ho1480 2.381 . S
O1504 C1490 1.275 . S
O1505 Ho1480 2.669 . S
O1505 Ho1481 2.305 . S
O1505 C1490 1.256 . S
O1506 Ho1481 2.322 . S
O1506 C1491 1.259 . S
O1507 Ho1480 2.346 . S
O1507 C1491 1.268 . S
O1508 Ho1481 2.378 . S
O1508 C1492 1.215 . S
O1509 Ho1481 2.524 . S
O1509 C1492 1.289 . S
O1510 Ho1481 2.381 . S
O1510 C1499 1.275 . S
O1511 Ho1480 2.305 . S
O1511 Ho1481 2.669 . S
O1511 C1499 1.256 . S
H1512 C1485 0.930 . S
H1513 C1486 0.931 . S
H1514 C1488 0.934 . S
H1515 C1489 0.930 . S
H1516 C1494 0.930 . S
H1517 C1495 0.931 . S
H1518 C1497 0.934 . S
H1519 C1498 0.930 . S
Ho1520 C1523 2.811 . S
Ho1520 O1540 2.322 . S
Ho1520 O1542 2.378 . S
Ho1520 O1543 2.524 . S
Ho1520 O1544 2.381 1_545 S
Ho1520 O1545 2.669 1_545 S
Ho1520 O1547 2.346 1_545 S
Ho1520 O1551 2.305 . S
Ho1521 C1532 2.811 . S
Ho1521 O1541 2.346 1_565 S
Ho1521 O1545 2.305 . S
Ho1521 O1546 2.322 . S
Ho1521 O1548 2.378 . S
Ho1521 O1549 2.524 . S
Ho1521 O1550 2.381 1_565 S
Ho1521 O1551 2.669 1_565 S
C1522 O1540 1.259 . S
C1522 O1541 1.268 . S
C1523 Ho1520 2.811 . S
C1523 C1524 1.488 . S
C1523 O1542 1.215 . S
C1523 O1543 1.289 . S
C1524 C1523 1.488 . S
C1524 C1525 1.348 . S
C1524 C1529 1.413 . S
C1525 C1524 1.348 . S
C1525 C1526 1.442 . S
C1525 H1552 0.930 . S
C1526 C1525 1.442 . S
C1526 C1527 1.381 . S
C1526 H1553 0.931 . S
C1527 C1526 1.381 . S
C1527 C1528 1.321 . S
C1528 C1527 1.321 . S
C1528 C1529 1.403 . S
C1528 H1554 0.934 . S
C1529 C1524 1.413 . S
C1529 C1528 1.403 . S
C1529 H1555 0.930 . S
C1530 O1544 1.275 . S
C1530 O1545 1.256 . S
C1531 O1546 1.259 . S
C1531 O1547 1.268 . S
C1532 Ho1521 2.811 . S
C1532 C1533 1.488 . S
C1532 O1548 1.215 . S
C1532 O1549 1.289 . S
C1533 C1532 1.488 . S
C1533 C1534 1.348 . S
C1533 C1538 1.413 . S
C1534 C1533 1.348 . S
C1534 C1535 1.442 . S
C1534 H1556 0.930 . S
C1535 C1534 1.442 . S
C1535 C1536 1.381 . S
C1535 H1557 0.931 . S
C1536 C1535 1.381 . S
C1536 C1537 1.321 . S
C1537 C1536 1.321 . S
C1537 C1538 1.403 . S
C1537 H1558 0.934 . S
C1538 C1533 1.413 . S
C1538 C1537 1.403 . S
C1538 H1559 0.930 . S
C1539 O1550 1.275 . S
C1539 O1551 1.256 . S
O1540 Ho1520 2.322 . S
O1540 C1522 1.259 . S
O1541 Ho1521 2.346 1_545 S
O1541 C1522 1.268 . S
O1542 Ho1520 2.378 . S
O1542 C1523 1.215 . S
O1543 Ho1520 2.524 . S
O1543 C1523 1.289 . S
O1544 Ho1520 2.381 1_565 S
O1544 C1530 1.275 . S
O1545 Ho1520 2.669 1_565 S
O1545 Ho1521 2.305 . S
O1545 C1530 1.256 . S
O1546 Ho1521 2.322 . S
O1546 C1531 1.259 . S
O1547 Ho1520 2.346 1_565 S
O1547 C1531 1.268 . S
O1548 Ho1521 2.378 . S
O1548 C1532 1.215 . S
O1549 Ho1521 2.524 . S
O1549 C1532 1.289 . S
O1550 Ho1521 2.381 1_545 S
O1550 C1539 1.275 . S
O1551 Ho1520 2.305 . S
O1551 Ho1521 2.669 1_545 S
O1551 C1539 1.256 . S
H1552 C1525 0.930 . S
H1553 C1526 0.931 . S
H1554 C1528 0.934 . S
H1555 C1529 0.930 . S
H1556 C1534 0.930 . S
H1557 C1535 0.931 . S
H1558 C1537 0.934 . S
H1559 C1538 0.930 . S
Ho1560 C1563 2.811 . S
Ho1560 O1580 2.322 . S
Ho1560 O1582 2.378 . S
Ho1560 O1583 2.524 . S
Ho1560 O1584 2.381 . S
Ho1560 O1585 2.669 . S
Ho1560 O1587 2.346 . S
Ho1560 O1591 2.305 . S
Ho1561 C1572 2.811 . S
Ho1561 O1581 2.346 . S
Ho1561 O1585 2.305 . S
Ho1561 O1586 2.322 . S
Ho1561 O1588 2.378 . S
Ho1561 O1589 2.524 . S
Ho1561 O1590 2.381 . S
Ho1561 O1591 2.669 . S
C1562 O1580 1.259 . S
C1562 O1581 1.268 . S
C1563 Ho1560 2.811 . S
C1563 C1564 1.488 . S
C1563 O1582 1.215 . S
C1563 O1583 1.289 . S
C1564 C1563 1.488 . S
C1564 C1565 1.348 . S
C1564 C1569 1.413 . S
C1565 C1564 1.348 . S
C1565 C1566 1.442 . S
C1565 H1592 0.930 . S
C1566 C1565 1.442 . S
C1566 C1567 1.381 . S
C1566 H1593 0.931 . S
C1567 C1566 1.381 . S
C1567 C1568 1.321 . S
C1568 C1567 1.321 . S
C1568 C1569 1.403 . S
C1568 H1594 0.934 . S
C1569 C1564 1.413 . S
C1569 C1568 1.403 . S
C1569 H1595 0.930 . S
C1570 O1584 1.275 . S
C1570 O1585 1.256 . S
C1571 O1586 1.259 . S
C1571 O1587 1.268 . S
C1572 Ho1561 2.811 . S
C1572 C1573 1.488 . S
C1572 O1588 1.215 . S
C1572 O1589 1.289 . S
C1573 C1572 1.488 . S
C1573 C1574 1.348 . S
C1573 C1578 1.413 . S
C1574 C1573 1.348 . S
C1574 C1575 1.442 . S
C1574 H1596 0.930 . S
C1575 C1574 1.442 . S
C1575 C1576 1.381 . S
C1575 H1597 0.931 . S
C1576 C1575 1.381 . S
C1576 C1577 1.321 . S
C1577 C1576 1.321 . S
C1577 C1578 1.403 . S
C1577 H1598 0.934 . S
C1578 C1573 1.413 . S
C1578 C1577 1.403 . S
C1578 H1599 0.930 . S
C1579 O1590 1.275 . S
C1579 O1591 1.256 . S
O1580 Ho1560 2.322 . S
O1580 C1562 1.259 . S
O1581 Ho1561 2.346 . S
O1581 C1562 1.268 . S
O1582 Ho1560 2.378 . S
O1582 C1563 1.215 . S
O1583 Ho1560 2.524 . S
O1583 C1563 1.289 . S
O1584 Ho1560 2.381 . S
O1584 C1570 1.275 . S
O1585 Ho1560 2.669 . S
O1585 Ho1561 2.305 . S
O1585 C1570 1.256 . S
O1586 Ho1561 2.322 . S
O1586 C1571 1.259 . S
O1587 Ho1560 2.346 . S
O1587 C1571 1.268 . S
O1588 Ho1561 2.378 . S
O1588 C1572 1.215 . S
O1589 Ho1561 2.524 . S
O1589 C1572 1.289 . S
O1590 Ho1561 2.381 . S
O1590 C1579 1.275 . S
O1591 Ho1560 2.305 . S
O1591 Ho1561 2.669 . S
O1591 C1579 1.256 . S
H1592 C1565 0.930 . S
H1593 C1566 0.931 . S
H1594 C1568 0.934 . S
H1595 C1569 0.930 . S
H1596 C1574 0.930 . S
H1597 C1575 0.931 . S
H1598 C1577 0.934 . S
H1599 C1578 0.930 . S
Ho1600 C1603 2.811 . S
Ho1600 O1620 2.322 . S
Ho1600 O1622 2.378 . S
Ho1600 O1623 2.524 . S
Ho1600 O1624 2.381 1_554 S
Ho1600 O1625 2.669 1_554 S
Ho1600 O1627 2.346 1_554 S
Ho1600 O1631 2.305 . S
Ho1601 C1612 2.811 . S
Ho1601 O1621 2.346 1_556 S
Ho1601 O1625 2.305 . S
Ho1601 O1626 2.322 . S
Ho1601 O1628 2.378 . S
Ho1601 O1629 2.524 . S
Ho1601 O1630 2.381 1_556 S
Ho1601 O1631 2.669 1_556 S
C1602 O1620 1.259 . S
C1602 O1621 1.268 . S
C1603 Ho1600 2.811 . S
C1603 C1604 1.488 . S
C1603 O1622 1.215 . S
C1603 O1623 1.289 . S
C1604 C1603 1.488 . S
C1604 C1605 1.348 . S
C1604 C1609 1.413 . S
C1605 C1604 1.348 . S
C1605 C1606 1.442 . S
C1605 H1632 0.930 . S
C1606 C1605 1.442 . S
C1606 C1607 1.381 . S
C1606 H1633 0.931 . S
C1607 C1606 1.381 . S
C1607 C1608 1.321 . S
C1608 C1607 1.321 . S
C1608 C1609 1.403 . S
C1608 H1634 0.934 . S
C1609 C1604 1.413 . S
C1609 C1608 1.403 . S
C1609 H1635 0.930 . S
C1610 O1624 1.275 . S
C1610 O1625 1.256 . S
C1611 O1626 1.259 . S
C1611 O1627 1.268 . S
C1612 Ho1601 2.811 . S
C1612 C1613 1.488 . S
C1612 O1628 1.215 . S
C1612 O1629 1.289 . S
C1613 C1612 1.488 . S
C1613 C1614 1.348 . S
C1613 C1618 1.413 . S
C1614 C1613 1.348 . S
C1614 C1615 1.442 . S
C1614 H1636 0.930 . S
C1615 C1614 1.442 . S
C1615 C1616 1.381 . S
C1615 H1637 0.931 . S
C1616 C1615 1.381 . S
C1616 C1617 1.321 . S
C1617 C1616 1.321 . S
C1617 C1618 1.403 . S
C1617 H1638 0.934 . S
C1618 C1613 1.413 . S
C1618 C1617 1.403 . S
C1618 H1639 0.930 . S
C1619 O1630 1.275 . S
C1619 O1631 1.256 . S
O1620 Ho1600 2.322 . S
O1620 C1602 1.259 . S
O1621 Ho1601 2.346 1_554 S
O1621 C1602 1.268 . S
O1622 Ho1600 2.378 . S
O1622 C1603 1.215 . S
O1623 Ho1600 2.524 . S
O1623 C1603 1.289 . S
O1624 Ho1600 2.381 1_556 S
O1624 C1610 1.275 . S
O1625 Ho1600 2.669 1_556 S
O1625 Ho1601 2.305 . S
O1625 C1610 1.256 . S
O1626 Ho1601 2.322 . S
O1626 C1611 1.259 . S
O1627 Ho1600 2.346 1_556 S
O1627 C1611 1.268 . S
O1628 Ho1601 2.378 . S
O1628 C1612 1.215 . S
O1629 Ho1601 2.524 . S
O1629 C1612 1.289 . S
O1630 Ho1601 2.381 1_554 S
O1630 C1619 1.275 . S
O1631 Ho1600 2.305 . S
O1631 Ho1601 2.669 1_554 S
O1631 C1619 1.256 . S
H1632 C1605 0.930 . S
H1633 C1606 0.931 . S
H1634 C1608 0.934 . S
H1635 C1609 0.930 . S
H1636 C1614 0.930 . S
H1637 C1615 0.931 . S
H1638 C1617 0.934 . S
H1639 C1618 0.930 . S
Ho1640 C1643 2.811 . S
Ho1640 O1660 2.322 . S
Ho1640 O1662 2.378 . S
Ho1640 O1663 2.524 . S
Ho1640 O1664 2.381 1_554 S
Ho1640 O1665 2.669 1_554 S
Ho1640 O1667 2.346 1_554 S
Ho1640 O1671 2.305 . S
Ho1641 C1652 2.811 . S
Ho1641 O1661 2.346 1_556 S
Ho1641 O1665 2.305 . S
Ho1641 O1666 2.322 . S
Ho1641 O1668 2.378 . S
Ho1641 O1669 2.524 . S
Ho1641 O1670 2.381 1_556 S
Ho1641 O1671 2.669 1_556 S
C1642 O1660 1.259 . S
C1642 O1661 1.268 . S
C1643 Ho1640 2.811 . S
C1643 C1644 1.488 . S
C1643 O1662 1.215 . S
C1643 O1663 1.289 . S
C1644 C1643 1.488 . S
C1644 C1645 1.348 . S
C1644 C1649 1.413 . S
C1645 C1644 1.348 . S
C1645 C1646 1.442 . S
C1645 H1672 0.930 . S
C1646 C1645 1.442 . S
C1646 C1647 1.381 . S
C1646 H1673 0.931 . S
C1647 C1646 1.381 . S
C1647 C1648 1.321 . S
C1648 C1647 1.321 . S
C1648 C1649 1.403 . S
C1648 H1674 0.934 . S
C1649 C1644 1.413 . S
C1649 C1648 1.403 . S
C1649 H1675 0.930 . S
C1650 O1664 1.275 . S
C1650 O1665 1.256 . S
C1651 O1666 1.259 . S
C1651 O1667 1.268 . S
C1652 Ho1641 2.811 . S
C1652 C1653 1.488 . S
C1652 O1668 1.215 . S
C1652 O1669 1.289 . S
C1653 C1652 1.488 . S
C1653 C1654 1.348 . S
C1653 C1658 1.413 . S
C1654 C1653 1.348 . S
C1654 C1655 1.442 . S
C1654 H1676 0.930 . S
C1655 C1654 1.442 . S
C1655 C1656 1.381 . S
C1655 H1677 0.931 . S
C1656 C1655 1.381 . S
C1656 C1657 1.321 . S
C1657 C1656 1.321 . S
C1657 C1658 1.403 . S
C1657 H1678 0.934 . S
C1658 C1653 1.413 . S
C1658 C1657 1.403 . S
C1658 H1679 0.930 . S
C1659 O1670 1.275 . S
C1659 O1671 1.256 . S
O1660 Ho1640 2.322 . S
O1660 C1642 1.259 . S
O1661 Ho1641 2.346 1_554 S
O1661 C1642 1.268 . S
O1662 Ho1640 2.378 . S
O1662 C1643 1.215 . S
O1663 Ho1640 2.524 . S
O1663 C1643 1.289 . S
O1664 Ho1640 2.381 1_556 S
O1664 C1650 1.275 . S
O1665 Ho1640 2.669 1_556 S
O1665 Ho1641 2.305 . S
O1665 C1650 1.256 . S
O1666 Ho1641 2.322 . S
O1666 C1651 1.259 . S
O1667 Ho1640 2.346 1_556 S
O1667 C1651 1.268 . S
O1668 Ho1641 2.378 . S
O1668 C1652 1.215 . S
O1669 Ho1641 2.524 . S
O1669 C1652 1.289 . S
O1670 Ho1641 2.381 1_554 S
O1670 C1659 1.275 . S
O1671 Ho1640 2.305 . S
O1671 Ho1641 2.669 1_554 S
O1671 C1659 1.256 . S
H1672 C1645 0.930 . S
H1673 C1646 0.931 . S
H1674 C1648 0.934 . S
H1675 C1649 0.930 . S
H1676 C1654 0.930 . S
H1677 C1655 0.931 . S
H1678 C1657 0.934 . S
H1679 C1658 0.930 . S
Ho1680 C1683 2.811 . S
Ho1680 O1700 2.322 . S
Ho1680 O1702 2.378 . S
Ho1680 O1703 2.524 . S
Ho1680 O1704 2.381 . S
Ho1680 O1705 2.669 . S
Ho1680 O1707 2.346 . S
Ho1680 O1711 2.305 . S
Ho1681 C1692 2.811 . S
Ho1681 O1701 2.346 . S
Ho1681 O1705 2.305 . S
Ho1681 O1706 2.322 . S
Ho1681 O1708 2.378 . S
Ho1681 O1709 2.524 . S
Ho1681 O1710 2.381 . S
Ho1681 O1711 2.669 . S
C1682 O1700 1.259 . S
C1682 O1701 1.268 . S
C1683 Ho1680 2.811 . S
C1683 C1684 1.488 . S
C1683 O1702 1.215 . S
C1683 O1703 1.289 . S
C1684 C1683 1.488 . S
C1684 C1685 1.348 . S
C1684 C1689 1.413 . S
C1685 C1684 1.348 . S
C1685 C1686 1.442 . S
C1685 H1712 0.930 . S
C1686 C1685 1.442 . S
C1686 C1687 1.381 . S
C1686 H1713 0.931 . S
C1687 C1686 1.381 . S
C1687 C1688 1.321 . S
C1688 C1687 1.321 . S
C1688 C1689 1.403 . S
C1688 H1714 0.934 . S
C1689 C1684 1.413 . S
C1689 C1688 1.403 . S
C1689 H1715 0.930 . S
C1690 O1704 1.275 . S
C1690 O1705 1.256 . S
C1691 O1706 1.259 . S
C1691 O1707 1.268 . S
C1692 Ho1681 2.811 . S
C1692 C1693 1.488 . S
C1692 O1708 1.215 . S
C1692 O1709 1.289 . S
C1693 C1692 1.488 . S
C1693 C1694 1.348 . S
C1693 C1698 1.413 . S
C1694 C1693 1.348 . S
C1694 C1695 1.442 . S
C1694 H1716 0.930 . S
C1695 C1694 1.442 . S
C1695 C1696 1.381 . S
C1695 H1717 0.931 . S
C1696 C1695 1.381 . S
C1696 C1697 1.321 . S
C1697 C1696 1.321 . S
C1697 C1698 1.403 . S
C1697 H1718 0.934 . S
C1698 C1693 1.413 . S
C1698 C1697 1.403 . S
C1698 H1719 0.930 . S
C1699 O1710 1.275 . S
C1699 O1711 1.256 . S
O1700 Ho1680 2.322 . S
O1700 C1682 1.259 . S
O1701 Ho1681 2.346 . S
O1701 C1682 1.268 . S
O1702 Ho1680 2.378 . S
O1702 C1683 1.215 . S
O1703 Ho1680 2.524 . S
O1703 C1683 1.289 . S
O1704 Ho1680 2.381 . S
O1704 C1690 1.275 . S
O1705 Ho1680 2.669 . S
O1705 Ho1681 2.305 . S
O1705 C1690 1.256 . S
O1706 Ho1681 2.322 . S
O1706 C1691 1.259 . S
O1707 Ho1680 2.346 . S
O1707 C1691 1.268 . S
O1708 Ho1681 2.378 . S
O1708 C1692 1.215 . S
O1709 Ho1681 2.524 . S
O1709 C1692 1.289 . S
O1710 Ho1681 2.381 . S
O1710 C1699 1.275 . S
O1711 Ho1680 2.305 . S
O1711 Ho1681 2.669 . S
O1711 C1699 1.256 . S
H1712 C1685 0.930 . S
H1713 C1686 0.931 . S
H1714 C1688 0.934 . S
H1715 C1689 0.930 . S
H1716 C1694 0.930 . S
H1717 C1695 0.931 . S
H1718 C1697 0.934 . S
H1719 C1698 0.930 . S
Ho1720 C1723 2.811 . S
Ho1720 O1740 2.322 . S
Ho1720 O1742 2.378 . S
Ho1720 O1743 2.524 . S
Ho1720 O1744 2.381 . S
Ho1720 O1745 2.669 . S
Ho1720 O1747 2.346 . S
Ho1720 O1751 2.305 . S
Ho1721 C1732 2.811 . S
Ho1721 O1741 2.346 . S
Ho1721 O1745 2.305 . S
Ho1721 O1746 2.322 . S
Ho1721 O1748 2.378 . S
Ho1721 O1749 2.524 . S
Ho1721 O1750 2.381 . S
Ho1721 O1751 2.669 . S
C1722 O1740 1.259 . S
C1722 O1741 1.268 . S
C1723 Ho1720 2.811 . S
C1723 C1724 1.488 . S
C1723 O1742 1.215 . S
C1723 O1743 1.289 . S
C1724 C1723 1.488 . S
C1724 C1725 1.348 . S
C1724 C1729 1.413 . S
C1725 C1724 1.348 . S
C1725 C1726 1.442 . S
C1725 H1752 0.930 . S
C1726 C1725 1.442 . S
C1726 C1727 1.381 . S
C1726 H1753 0.931 . S
C1727 C1726 1.381 . S
C1727 C1728 1.321 . S
C1728 C1727 1.321 . S
C1728 C1729 1.403 . S
C1728 H1754 0.934 . S
C1729 C1724 1.413 . S
C1729 C1728 1.403 . S
C1729 H1755 0.930 . S
C1730 O1744 1.275 . S
C1730 O1745 1.256 . S
C1731 O1746 1.259 . S
C1731 O1747 1.268 . S
C1732 Ho1721 2.811 . S
C1732 C1733 1.488 . S
C1732 O1748 1.215 . S
C1732 O1749 1.289 . S
C1733 C1732 1.488 . S
C1733 C1734 1.348 . S
C1733 C1738 1.413 . S
C1734 C1733 1.348 . S
C1734 C1735 1.442 . S
C1734 H1756 0.930 . S
C1735 C1734 1.442 . S
C1735 C1736 1.381 . S
C1735 H1757 0.931 . S
C1736 C1735 1.381 . S
C1736 C1737 1.321 . S
C1737 C1736 1.321 . S
C1737 C1738 1.403 . S
C1737 H1758 0.934 . S
C1738 C1733 1.413 . S
C1738 C1737 1.403 . S
C1738 H1759 0.930 . S
C1739 O1750 1.275 . S
C1739 O1751 1.256 . S
O1740 Ho1720 2.322 . S
O1740 C1722 1.259 . S
O1741 Ho1721 2.346 . S
O1741 C1722 1.268 . S
O1742 Ho1720 2.378 . S
O1742 C1723 1.215 . S
O1743 Ho1720 2.524 . S
O1743 C1723 1.289 . S
O1744 Ho1720 2.381 . S
O1744 C1730 1.275 . S
O1745 Ho1720 2.669 . S
O1745 Ho1721 2.305 . S
O1745 C1730 1.256 . S
O1746 Ho1721 2.322 . S
O1746 C1731 1.259 . S
O1747 Ho1720 2.346 . S
O1747 C1731 1.268 . S
O1748 Ho1721 2.378 . S
O1748 C1732 1.215 . S
O1749 Ho1721 2.524 . S
O1749 C1732 1.289 . S
O1750 Ho1721 2.381 . S
O1750 C1739 1.275 . S
O1751 Ho1720 2.305 . S
O1751 Ho1721 2.669 . S
O1751 C1739 1.256 . S
H1752 C1725 0.930 . S
H1753 C1726 0.931 . S
H1754 C1728 0.934 . S
H1755 C1729 0.930 . S
H1756 C1734 0.930 . S
H1757 C1735 0.931 . S
H1758 C1737 0.934 . S
H1759 C1738 0.930 . S
Ho1760 C1763 2.811 . S
Ho1760 O1780 2.322 . S
Ho1760 O1782 2.378 . S
Ho1760 O1783 2.524 . S
Ho1760 O1784 2.381 . S
Ho1760 O1785 2.669 . S
Ho1760 O1787 2.346 . S
Ho1760 O1791 2.305 . S
Ho1761 C1772 2.811 . S
Ho1761 O1781 2.346 . S
Ho1761 O1785 2.305 . S
Ho1761 O1786 2.322 . S
Ho1761 O1788 2.378 . S
Ho1761 O1789 2.524 . S
Ho1761 O1790 2.381 . S
Ho1761 O1791 2.669 . S
C1762 O1780 1.259 . S
C1762 O1781 1.268 . S
C1763 Ho1760 2.811 . S
C1763 C1764 1.488 . S
C1763 O1782 1.215 . S
C1763 O1783 1.289 . S
C1764 C1763 1.488 . S
C1764 C1765 1.348 . S
C1764 C1769 1.413 . S
C1765 C1764 1.348 . S
C1765 C1766 1.442 . S
C1765 H1792 0.930 . S
C1766 C1765 1.442 . S
C1766 C1767 1.381 . S
C1766 H1793 0.931 . S
C1767 C1766 1.381 . S
C1767 C1768 1.321 . S
C1768 C1767 1.321 . S
C1768 C1769 1.403 . S
C1768 H1794 0.934 . S
C1769 C1764 1.413 . S
C1769 C1768 1.403 . S
C1769 H1795 0.930 . S
C1770 O1784 1.275 . S
C1770 O1785 1.256 . S
C1771 O1786 1.259 . S
C1771 O1787 1.268 . S
C1772 Ho1761 2.811 . S
C1772 C1773 1.488 . S
C1772 O1788 1.215 . S
C1772 O1789 1.289 . S
C1773 C1772 1.488 . S
C1773 C1774 1.348 . S
C1773 C1778 1.413 . S
C1774 C1773 1.348 . S
C1774 C1775 1.442 . S
C1774 H1796 0.930 . S
C1775 C1774 1.442 . S
C1775 C1776 1.381 . S
C1775 H1797 0.931 . S
C1776 C1775 1.381 . S
C1776 C1777 1.321 . S
C1777 C1776 1.321 . S
C1777 C1778 1.403 . S
C1777 H1798 0.934 . S
C1778 C1773 1.413 . S
C1778 C1777 1.403 . S
C1778 H1799 0.930 . S
C1779 O1790 1.275 . S
C1779 O1791 1.256 . S
O1780 Ho1760 2.322 . S
O1780 C1762 1.259 . S
O1781 Ho1761 2.346 . S
O1781 C1762 1.268 . S
O1782 Ho1760 2.378 . S
O1782 C1763 1.215 . S
O1783 Ho1760 2.524 . S
O1783 C1763 1.289 . S
O1784 Ho1760 2.381 . S
O1784 C1770 1.275 . S
O1785 Ho1760 2.669 . S
O1785 Ho1761 2.305 . S
O1785 C1770 1.256 . S
O1786 Ho1761 2.322 . S
O1786 C1771 1.259 . S
O1787 Ho1760 2.346 . S
O1787 C1771 1.268 . S
O1788 Ho1761 2.378 . S
O1788 C1772 1.215 . S
O1789 Ho1761 2.524 . S
O1789 C1772 1.289 . S
O1790 Ho1761 2.381 . S
O1790 C1779 1.275 . S
O1791 Ho1760 2.305 . S
O1791 Ho1761 2.669 . S
O1791 C1779 1.256 . S
H1792 C1765 0.930 . S
H1793 C1766 0.931 . S
H1794 C1768 0.934 . S
H1795 C1769 0.930 . S
H1796 C1774 0.930 . S
H1797 C1775 0.931 . S
H1798 C1777 0.934 . S
H1799 C1778 0.930 . S
Ho1800 C1803 2.811 . S
Ho1800 O1820 2.322 . S
Ho1800 O1822 2.378 . S
Ho1800 O1823 2.524 . S
Ho1800 O1824 2.381 . S
Ho1800 O1825 2.669 . S
Ho1800 O1827 2.346 . S
Ho1800 O1831 2.305 . S
Ho1801 C1812 2.811 . S
Ho1801 O1821 2.346 . S
Ho1801 O1825 2.305 . S
Ho1801 O1826 2.322 . S
Ho1801 O1828 2.378 . S
Ho1801 O1829 2.524 . S
Ho1801 O1830 2.381 . S
Ho1801 O1831 2.669 . S
C1802 O1820 1.259 . S
C1802 O1821 1.268 . S
C1803 Ho1800 2.811 . S
C1803 C1804 1.488 . S
C1803 O1822 1.215 . S
C1803 O1823 1.289 . S
C1804 C1803 1.488 . S
C1804 C1805 1.348 . S
C1804 C1809 1.413 . S
C1805 C1804 1.348 . S
C1805 C1806 1.442 . S
C1805 H1832 0.930 . S
C1806 C1805 1.442 . S
C1806 C1807 1.381 . S
C1806 H1833 0.931 . S
C1807 C1806 1.381 . S
C1807 C1808 1.321 . S
C1808 C1807 1.321 . S
C1808 C1809 1.403 . S
C1808 H1834 0.934 . S
C1809 C1804 1.413 . S
C1809 C1808 1.403 . S
C1809 H1835 0.930 . S
C1810 O1824 1.275 . S
C1810 O1825 1.256 . S
C1811 O1826 1.259 . S
C1811 O1827 1.268 . S
C1812 Ho1801 2.811 . S
C1812 C1813 1.488 . S
C1812 O1828 1.215 . S
C1812 O1829 1.289 . S
C1813 C1812 1.488 . S
C1813 C1814 1.348 . S
C1813 C1818 1.413 . S
C1814 C1813 1.348 . S
C1814 C1815 1.442 . S
C1814 H1836 0.930 . S
C1815 C1814 1.442 . S
C1815 C1816 1.381 . S
C1815 H1837 0.931 . S
C1816 C1815 1.381 . S
C1816 C1817 1.321 . S
C1817 C1816 1.321 . S
C1817 C1818 1.403 . S
C1817 H1838 0.934 . S
C1818 C1813 1.413 . S
C1818 C1817 1.403 . S
C1818 H1839 0.930 . S
C1819 O1830 1.275 . S
C1819 O1831 1.256 . S
O1820 Ho1800 2.322 . S
O1820 C1802 1.259 . S
O1821 Ho1801 2.346 . S
O1821 C1802 1.268 . S
O1822 Ho1800 2.378 . S
O1822 C1803 1.215 . S
O1823 Ho1800 2.524 . S
O1823 C1803 1.289 . S
O1824 Ho1800 2.381 . S
O1824 C1810 1.275 . S
O1825 Ho1800 2.669 . S
O1825 Ho1801 2.305 . S
O1825 C1810 1.256 . S
O1826 Ho1801 2.322 . S
O1826 C1811 1.259 . S
O1827 Ho1800 2.346 . S
O1827 C1811 1.268 . S
O1828 Ho1801 2.378 . S
O1828 C1812 1.215 . S
O1829 Ho1801 2.524 . S
O1829 C1812 1.289 . S
O1830 Ho1801 2.381 . S
O1830 C1819 1.275 . S
O1831 Ho1800 2.305 . S
O1831 Ho1801 2.669 . S
O1831 C1819 1.256 . S
H1832 C1805 0.930 . S
H1833 C1806 0.931 . S
H1834 C1808 0.934 . S
H1835 C1809 0.930 . S
H1836 C1814 0.930 . S
H1837 C1815 0.931 . S
H1838 C1817 0.934 . S
H1839 C1818 0.930 . S
Ho1840 C1843 2.811 . S
Ho1840 O1860 2.322 . S
Ho1840 O1862 2.378 . S
Ho1840 O1863 2.524 . S
Ho1840 O1864 2.381 . S
Ho1840 O1865 2.669 . S
Ho1840 O1867 2.346 . S
Ho1840 O1871 2.305 . S
Ho1841 C1852 2.811 . S
Ho1841 O1861 2.346 . S
Ho1841 O1865 2.305 . S
Ho1841 O1866 2.322 . S
Ho1841 O1868 2.378 . S
Ho1841 O1869 2.524 . S
Ho1841 O1870 2.381 . S
Ho1841 O1871 2.669 . S
C1842 O1860 1.259 . S
C1842 O1861 1.268 . S
C1843 Ho1840 2.811 . S
C1843 C1844 1.488 . S
C1843 O1862 1.215 . S
C1843 O1863 1.289 . S
C1844 C1843 1.488 . S
C1844 C1845 1.348 . S
C1844 C1849 1.413 . S
C1845 C1844 1.348 . S
C1845 C1846 1.442 . S
C1845 H1872 0.930 . S
C1846 C1845 1.442 . S
C1846 C1847 1.381 . S
C1846 H1873 0.931 . S
C1847 C1846 1.381 . S
C1847 C1848 1.321 . S
C1848 C1847 1.321 . S
C1848 C1849 1.403 . S
C1848 H1874 0.934 . S
C1849 C1844 1.413 . S
C1849 C1848 1.403 . S
C1849 H1875 0.930 . S
C1850 O1864 1.275 . S
C1850 O1865 1.256 . S
C1851 O1866 1.259 . S
C1851 O1867 1.268 . S
C1852 Ho1841 2.811 . S
C1852 C1853 1.488 . S
C1852 O1868 1.215 . S
C1852 O1869 1.289 . S
C1853 C1852 1.488 . S
C1853 C1854 1.348 . S
C1853 C1858 1.413 . S
C1854 C1853 1.348 . S
C1854 C1855 1.442 . S
C1854 H1876 0.930 . S
C1855 C1854 1.442 . S
C1855 C1856 1.381 . S
C1855 H1877 0.931 . S
C1856 C1855 1.381 . S
C1856 C1857 1.321 . S
C1857 C1856 1.321 . S
C1857 C1858 1.403 . S
C1857 H1878 0.934 . S
C1858 C1853 1.413 . S
C1858 C1857 1.403 . S
C1858 H1879 0.930 . S
C1859 O1870 1.275 . S
C1859 O1871 1.256 . S
O1860 Ho1840 2.322 . S
O1860 C1842 1.259 . S
O1861 Ho1841 2.346 . S
O1861 C1842 1.268 . S
O1862 Ho1840 2.378 . S
O1862 C1843 1.215 . S
O1863 Ho1840 2.524 . S
O1863 C1843 1.289 . S
O1864 Ho1840 2.381 . S
O1864 C1850 1.275 . S
O1865 Ho1840 2.669 . S
O1865 Ho1841 2.305 . S
O1865 C1850 1.256 . S
O1866 Ho1841 2.322 . S
O1866 C1851 1.259 . S
O1867 Ho1840 2.346 . S
O1867 C1851 1.268 . S
O1868 Ho1841 2.378 . S
O1868 C1852 1.215 . S
O1869 Ho1841 2.524 . S
O1869 C1852 1.289 . S
O1870 Ho1841 2.381 . S
O1870 C1859 1.275 . S
O1871 Ho1840 2.305 . S
O1871 Ho1841 2.669 . S
O1871 C1859 1.256 . S
H1872 C1845 0.930 . S
H1873 C1846 0.931 . S
H1874 C1848 0.934 . S
H1875 C1849 0.930 . S
H1876 C1854 0.930 . S
H1877 C1855 0.931 . S
H1878 C1857 0.934 . S
H1879 C1858 0.930 . S
Ho1880 C1883 2.811 . S
Ho1880 O1900 2.322 . S
Ho1880 O1902 2.378 . S
Ho1880 O1903 2.524 . S
Ho1880 O1904 2.381 . S
Ho1880 O1905 2.669 . S
Ho1880 O1907 2.346 . S
Ho1880 O1911 2.305 . S
Ho1881 C1892 2.811 . S
Ho1881 O1901 2.346 . S
Ho1881 O1905 2.305 . S
Ho1881 O1906 2.322 . S
Ho1881 O1908 2.378 . S
Ho1881 O1909 2.524 . S
Ho1881 O1910 2.381 . S
Ho1881 O1911 2.669 . S
C1882 O1900 1.259 . S
C1882 O1901 1.268 . S
C1883 Ho1880 2.811 . S
C1883 C1884 1.488 . S
C1883 O1902 1.215 . S
C1883 O1903 1.289 . S
C1884 C1883 1.488 . S
C1884 C1885 1.348 . S
C1884 C1889 1.413 . S
C1885 C1884 1.348 . S
C1885 C1886 1.442 . S
C1885 H1912 0.930 . S
C1886 C1885 1.442 . S
C1886 C1887 1.381 . S
C1886 H1913 0.931 . S
C1887 C1886 1.381 . S
C1887 C1888 1.321 . S
C1888 C1887 1.321 . S
C1888 C1889 1.403 . S
C1888 H1914 0.934 . S
C1889 C1884 1.413 . S
C1889 C1888 1.403 . S
C1889 H1915 0.930 . S
C1890 O1904 1.275 . S
C1890 O1905 1.256 . S
C1891 O1906 1.259 . S
C1891 O1907 1.268 . S
C1892 Ho1881 2.811 . S
C1892 C1893 1.488 . S
C1892 O1908 1.215 . S
C1892 O1909 1.289 . S
C1893 C1892 1.488 . S
C1893 C1894 1.348 . S
C1893 C1898 1.413 . S
C1894 C1893 1.348 . S
C1894 C1895 1.442 . S
C1894 H1916 0.930 . S
C1895 C1894 1.442 . S
C1895 C1896 1.381 . S
C1895 H1917 0.931 . S
C1896 C1895 1.381 . S
C1896 C1897 1.321 . S
C1897 C1896 1.321 . S
C1897 C1898 1.403 . S
C1897 H1918 0.934 . S
C1898 C1893 1.413 . S
C1898 C1897 1.403 . S
C1898 H1919 0.930 . S
C1899 O1910 1.275 . S
C1899 O1911 1.256 . S
O1900 Ho1880 2.322 . S
O1900 C1882 1.259 . S
O1901 Ho1881 2.346 . S
O1901 C1882 1.268 . S
O1902 Ho1880 2.378 . S
O1902 C1883 1.215 . S
O1903 Ho1880 2.524 . S
O1903 C1883 1.289 . S
O1904 Ho1880 2.381 . S
O1904 C1890 1.275 . S
O1905 Ho1880 2.669 . S
O1905 Ho1881 2.305 . S
O1905 C1890 1.256 . S
O1906 Ho1881 2.322 . S
O1906 C1891 1.259 . S
O1907 Ho1880 2.346 . S
O1907 C1891 1.268 . S
O1908 Ho1881 2.378 . S
O1908 C1892 1.215 . S
O1909 Ho1881 2.524 . S
O1909 C1892 1.289 . S
O1910 Ho1881 2.381 . S
O1910 C1899 1.275 . S
O1911 Ho1880 2.305 . S
O1911 Ho1881 2.669 . S
O1911 C1899 1.256 . S
H1912 C1885 0.930 . S
H1913 C1886 0.931 . S
H1914 C1888 0.934 . S
H1915 C1889 0.930 . S
H1916 C1894 0.930 . S
H1917 C1895 0.931 . S
H1918 C1897 0.934 . S
H1919 C1898 0.930 . S
Ho1920 C1923 2.811 . S
Ho1920 O1940 2.322 . S
Ho1920 O1942 2.378 . S
Ho1920 O1943 2.524 . S
Ho1920 O1944 2.381 . S
Ho1920 O1945 2.669 . S
Ho1920 O1947 2.346 . S
Ho1920 O1951 2.305 . S
Ho1921 C1932 2.811 . S
Ho1921 O1941 2.346 . S
Ho1921 O1945 2.305 . S
Ho1921 O1946 2.322 . S
Ho1921 O1948 2.378 . S
Ho1921 O1949 2.524 . S
Ho1921 O1950 2.381 . S
Ho1921 O1951 2.669 . S
C1922 O1940 1.259 . S
C1922 O1941 1.268 . S
C1923 Ho1920 2.811 . S
C1923 C1924 1.488 . S
C1923 O1942 1.215 . S
C1923 O1943 1.289 . S
C1924 C1923 1.488 . S
C1924 C1925 1.348 . S
C1924 C1929 1.413 . S
C1925 C1924 1.348 . S
C1925 C1926 1.442 . S
C1925 H1952 0.930 . S
C1926 C1925 1.442 . S
C1926 C1927 1.381 . S
C1926 H1953 0.931 . S
C1927 C1926 1.381 . S
C1927 C1928 1.321 . S
C1928 C1927 1.321 . S
C1928 C1929 1.403 . S
C1928 H1954 0.934 . S
C1929 C1924 1.413 . S
C1929 C1928 1.403 . S
C1929 H1955 0.930 . S
C1930 O1944 1.275 . S
C1930 O1945 1.256 . S
C1931 O1946 1.259 . S
C1931 O1947 1.268 . S
C1932 Ho1921 2.811 . S
C1932 C1933 1.488 . S
C1932 O1948 1.215 . S
C1932 O1949 1.289 . S
C1933 C1932 1.488 . S
C1933 C1934 1.348 . S
C1933 C1938 1.413 . S
C1934 C1933 1.348 . S
C1934 C1935 1.442 . S
C1934 H1956 0.930 . S
C1935 C1934 1.442 . S
C1935 C1936 1.381 . S
C1935 H1957 0.931 . S
C1936 C1935 1.381 . S
C1936 C1937 1.321 . S
C1937 C1936 1.321 . S
C1937 C1938 1.403 . S
C1937 H1958 0.934 . S
C1938 C1933 1.413 . S
C1938 C1937 1.403 . S
C1938 H1959 0.930 . S
C1939 O1950 1.275 . S
C1939 O1951 1.256 . S
O1940 Ho1920 2.322 . S
O1940 C1922 1.259 . S
O1941 Ho1921 2.346 . S
O1941 C1922 1.268 . S
O1942 Ho1920 2.378 . S
O1942 C1923 1.215 . S
O1943 Ho1920 2.524 . S
O1943 C1923 1.289 . S
O1944 Ho1920 2.381 . S
O1944 C1930 1.275 . S
O1945 Ho1920 2.669 . S
O1945 Ho1921 2.305 . S
O1945 C1930 1.256 . S
O1946 Ho1921 2.322 . S
O1946 C1931 1.259 . S
O1947 Ho1920 2.346 . S
O1947 C1931 1.268 . S
O1948 Ho1921 2.378 . S
O1948 C1932 1.215 . S
O1949 Ho1921 2.524 . S
O1949 C1932 1.289 . S
O1950 Ho1921 2.381 . S
O1950 C1939 1.275 . S
O1951 Ho1920 2.305 . S
O1951 Ho1921 2.669 . S
O1951 C1939 1.256 . S
H1952 C1925 0.930 . S
H1953 C1926 0.931 . S
H1954 C1928 0.934 . S
H1955 C1929 0.930 . S
H1956 C1934 0.930 . S
H1957 C1935 0.931 . S
H1958 C1937 0.934 . S
H1959 C1938 0.930 . S
Ho1960 C1963 2.811 . S
Ho1960 O1980 2.322 . S
Ho1960 O1982 2.378 . S
Ho1960 O1983 2.524 . S
Ho1960 O1984 2.381 . S
Ho1960 O1985 2.669 . S
Ho1960 O1987 2.346 . S
Ho1960 O1991 2.305 . S
Ho1961 C1972 2.811 . S
Ho1961 O1981 2.346 . S
Ho1961 O1985 2.305 . S
Ho1961 O1986 2.322 . S
Ho1961 O1988 2.378 . S
Ho1961 O1989 2.524 . S
Ho1961 O1990 2.381 . S
Ho1961 O1991 2.669 . S
C1962 O1980 1.259 . S
C1962 O1981 1.268 . S
C1963 Ho1960 2.811 . S
C1963 C1964 1.488 . S
C1963 O1982 1.215 . S
C1963 O1983 1.289 . S
C1964 C1963 1.488 . S
C1964 C1965 1.348 . S
C1964 C1969 1.413 . S
C1965 C1964 1.348 . S
C1965 C1966 1.442 . S
C1965 H1992 0.930 . S
C1966 C1965 1.442 . S
C1966 C1967 1.381 . S
C1966 H1993 0.931 . S
C1967 C1966 1.381 . S
C1967 C1968 1.321 . S
C1968 C1967 1.321 . S
C1968 C1969 1.403 . S
C1968 H1994 0.934 . S
C1969 C1964 1.413 . S
C1969 C1968 1.403 . S
C1969 H1995 0.930 . S
C1970 O1984 1.275 . S
C1970 O1985 1.256 . S
C1971 O1986 1.259 . S
C1971 O1987 1.268 . S
C1972 Ho1961 2.811 . S
C1972 C1973 1.488 . S
C1972 O1988 1.215 . S
C1972 O1989 1.289 . S
C1973 C1972 1.488 . S
C1973 C1974 1.348 . S
C1973 C1978 1.413 . S
C1974 C1973 1.348 . S
C1974 C1975 1.442 . S
C1974 H1996 0.930 . S
C1975 C1974 1.442 . S
C1975 C1976 1.381 . S
C1975 H1997 0.931 . S
C1976 C1975 1.381 . S
C1976 C1977 1.321 . S
C1977 C1976 1.321 . S
C1977 C1978 1.403 . S
C1977 H1998 0.934 . S
C1978 C1973 1.413 . S
C1978 C1977 1.403 . S
C1978 H1999 0.930 . S
C1979 O1990 1.275 . S
C1979 O1991 1.256 . S
O1980 Ho1960 2.322 . S
O1980 C1962 1.259 . S
O1981 Ho1961 2.346 . S
O1981 C1962 1.268 . S
O1982 Ho1960 2.378 . S
O1982 C1963 1.215 . S
O1983 Ho1960 2.524 . S
O1983 C1963 1.289 . S
O1984 Ho1960 2.381 . S
O1984 C1970 1.275 . S
O1985 Ho1960 2.669 . S
O1985 Ho1961 2.305 . S
O1985 C1970 1.256 . S
O1986 Ho1961 2.322 . S
O1986 C1971 1.259 . S
O1987 Ho1960 2.346 . S
O1987 C1971 1.268 . S
O1988 Ho1961 2.378 . S
O1988 C1972 1.215 . S
O1989 Ho1961 2.524 . S
O1989 C1972 1.289 . S
O1990 Ho1961 2.381 . S
O1990 C1979 1.275 . S
O1991 Ho1960 2.305 . S
O1991 Ho1961 2.669 . S
O1991 C1979 1.256 . S
H1992 C1965 0.930 . S
H1993 C1966 0.931 . S
H1994 C1968 0.934 . S
H1995 C1969 0.930 . S
H1996 C1974 0.930 . S
H1997 C1975 0.931 . S
H1998 C1977 0.934 . S
H1999 C1978 0.930 . S
Ho2000 C2003 2.811 . S
Ho2000 O2020 2.322 . S
Ho2000 O2022 2.378 . S
Ho2000 O2023 2.524 . S
Ho2000 O2024 2.381 1_455 S
Ho2000 O2025 2.669 1_455 S
Ho2000 O2027 2.346 1_455 S
Ho2000 O2031 2.305 . S
Ho2001 C2012 2.811 . S
Ho2001 O2021 2.346 1_655 S
Ho2001 O2025 2.305 . S
Ho2001 O2026 2.322 . S
Ho2001 O2028 2.378 . S
Ho2001 O2029 2.524 . S
Ho2001 O2030 2.381 1_655 S
Ho2001 O2031 2.669 1_655 S
C2002 O2020 1.259 . S
C2002 O2021 1.268 . S
C2003 Ho2000 2.811 . S
C2003 C2004 1.488 . S
C2003 O2022 1.215 . S
C2003 O2023 1.289 . S
C2004 C2003 1.488 . S
C2004 C2005 1.348 . S
C2004 C2009 1.413 . S
C2005 C2004 1.348 . S
C2005 C2006 1.442 . S
C2005 H2032 0.930 . S
C2006 C2005 1.442 . S
C2006 C2007 1.381 . S
C2006 H2033 0.931 . S
C2007 C2006 1.381 . S
C2007 C2008 1.321 . S
C2008 C2007 1.321 . S
C2008 C2009 1.403 . S
C2008 H2034 0.934 . S
C2009 C2004 1.413 . S
C2009 C2008 1.403 . S
C2009 H2035 0.930 . S
C2010 O2024 1.275 . S
C2010 O2025 1.256 . S
C2011 O2026 1.259 . S
C2011 O2027 1.268 . S
C2012 Ho2001 2.811 . S
C2012 C2013 1.488 . S
C2012 O2028 1.215 . S
C2012 O2029 1.289 . S
C2013 C2012 1.488 . S
C2013 C2014 1.348 . S
C2013 C2018 1.413 . S
C2014 C2013 1.348 . S
C2014 C2015 1.442 . S
C2014 H2036 0.930 . S
C2015 C2014 1.442 . S
C2015 C2016 1.381 . S
C2015 H2037 0.931 . S
C2016 C2015 1.381 . S
C2016 C2017 1.321 . S
C2017 C2016 1.321 . S
C2017 C2018 1.403 . S
C2017 H2038 0.934 . S
C2018 C2013 1.413 . S
C2018 C2017 1.403 . S
C2018 H2039 0.930 . S
C2019 O2030 1.275 . S
C2019 O2031 1.256 . S
O2020 Ho2000 2.322 . S
O2020 C2002 1.259 . S
O2021 Ho2001 2.346 1_455 S
O2021 C2002 1.268 . S
O2022 Ho2000 2.378 . S
O2022 C2003 1.215 . S
O2023 Ho2000 2.524 . S
O2023 C2003 1.289 . S
O2024 Ho2000 2.381 1_655 S
O2024 C2010 1.275 . S
O2025 Ho2000 2.669 1_655 S
O2025 Ho2001 2.305 . S
O2025 C2010 1.256 . S
O2026 Ho2001 2.322 . S
O2026 C2011 1.259 . S
O2027 Ho2000 2.346 1_655 S
O2027 C2011 1.268 . S
O2028 Ho2001 2.378 . S
O2028 C2012 1.215 . S
O2029 Ho2001 2.524 . S
O2029 C2012 1.289 . S
O2030 Ho2001 2.381 1_455 S
O2030 C2019 1.275 . S
O2031 Ho2000 2.305 . S
O2031 Ho2001 2.669 1_455 S
O2031 C2019 1.256 . S
H2032 C2005 0.930 . S
H2033 C2006 0.931 . S
H2034 C2008 0.934 . S
H2035 C2009 0.930 . S
H2036 C2014 0.930 . S
H2037 C2015 0.931 . S
H2038 C2017 0.934 . S
H2039 C2018 0.930 . S
Ho2040 C2043 2.811 . S
Ho2040 O2060 2.322 . S
Ho2040 O2062 2.378 . S
Ho2040 O2063 2.524 . S
Ho2040 O2064 2.381 . S
Ho2040 O2065 2.669 . S
Ho2040 O2067 2.346 . S
Ho2040 O2071 2.305 . S
Ho2041 C2052 2.811 . S
Ho2041 O2061 2.346 . S
Ho2041 O2065 2.305 . S
Ho2041 O2066 2.322 . S
Ho2041 O2068 2.378 . S
Ho2041 O2069 2.524 . S
Ho2041 O2070 2.381 . S
Ho2041 O2071 2.669 . S
C2042 O2060 1.259 . S
C2042 O2061 1.268 . S
C2043 Ho2040 2.811 . S
C2043 C2044 1.488 . S
C2043 O2062 1.215 . S
C2043 O2063 1.289 . S
C2044 C2043 1.488 . S
C2044 C2045 1.348 . S
C2044 C2049 1.413 . S
C2045 C2044 1.348 . S
C2045 C2046 1.442 . S
C2045 H2072 0.930 . S
C2046 C2045 1.442 . S
C2046 C2047 1.381 . S
C2046 H2073 0.931 . S
C2047 C2046 1.381 . S
C2047 C2048 1.321 . S
C2048 C2047 1.321 . S
C2048 C2049 1.403 . S
C2048 H2074 0.934 . S
C2049 C2044 1.413 . S
C2049 C2048 1.403 . S
C2049 H2075 0.930 . S
C2050 O2064 1.275 . S
C2050 O2065 1.256 . S
C2051 O2066 1.259 . S
C2051 O2067 1.268 . S
C2052 Ho2041 2.811 . S
C2052 C2053 1.488 . S
C2052 O2068 1.215 . S
C2052 O2069 1.289 . S
C2053 C2052 1.488 . S
C2053 C2054 1.348 . S
C2053 C2058 1.413 . S
C2054 C2053 1.348 . S
C2054 C2055 1.442 . S
C2054 H2076 0.930 . S
C2055 C2054 1.442 . S
C2055 C2056 1.381 . S
C2055 H2077 0.931 . S
C2056 C2055 1.381 . S
C2056 C2057 1.321 . S
C2057 C2056 1.321 . S
C2057 C2058 1.403 . S
C2057 H2078 0.934 . S
C2058 C2053 1.413 . S
C2058 C2057 1.403 . S
C2058 H2079 0.930 . S
C2059 O2070 1.275 . S
C2059 O2071 1.256 . S
O2060 Ho2040 2.322 . S
O2060 C2042 1.259 . S
O2061 Ho2041 2.346 . S
O2061 C2042 1.268 . S
O2062 Ho2040 2.378 . S
O2062 C2043 1.215 . S
O2063 Ho2040 2.524 . S
O2063 C2043 1.289 . S
O2064 Ho2040 2.381 . S
O2064 C2050 1.275 . S
O2065 Ho2040 2.669 . S
O2065 Ho2041 2.305 . S
O2065 C2050 1.256 . S
O2066 Ho2041 2.322 . S
O2066 C2051 1.259 . S
O2067 Ho2040 2.346 . S
O2067 C2051 1.268 . S
O2068 Ho2041 2.378 . S
O2068 C2052 1.215 . S
O2069 Ho2041 2.524 . S
O2069 C2052 1.289 . S
O2070 Ho2041 2.381 . S
O2070 C2059 1.275 . S
O2071 Ho2040 2.305 . S
O2071 Ho2041 2.669 . S
O2071 C2059 1.256 . S
H2072 C2045 0.930 . S
H2073 C2046 0.931 . S
H2074 C2048 0.934 . S
H2075 C2049 0.930 . S
H2076 C2054 0.930 . S
H2077 C2055 0.931 . S
H2078 C2057 0.934 . S
H2079 C2058 0.930 . S
Ho2080 C2083 2.811 . S
Ho2080 O2100 2.322 . S
Ho2080 O2102 2.378 . S
Ho2080 O2103 2.524 . S
Ho2080 O2104 2.381 . S
Ho2080 O2105 2.669 . S
Ho2080 O2107 2.346 . S
Ho2080 O2111 2.305 . S
Ho2081 C2092 2.811 . S
Ho2081 O2101 2.346 . S
Ho2081 O2105 2.305 . S
Ho2081 O2106 2.322 . S
Ho2081 O2108 2.378 . S
Ho2081 O2109 2.524 . S
Ho2081 O2110 2.381 . S
Ho2081 O2111 2.669 . S
C2082 O2100 1.259 . S
C2082 O2101 1.268 . S
C2083 Ho2080 2.811 . S
C2083 C2084 1.488 . S
C2083 O2102 1.215 . S
C2083 O2103 1.289 . S
C2084 C2083 1.488 . S
C2084 C2085 1.348 . S
C2084 C2089 1.413 . S
C2085 C2084 1.348 . S
C2085 C2086 1.442 . S
C2085 H2112 0.930 . S
C2086 C2085 1.442 . S
C2086 C2087 1.381 . S
C2086 H2113 0.931 . S
C2087 C2086 1.381 . S
C2087 C2088 1.321 . S
C2088 C2087 1.321 . S
C2088 C2089 1.403 . S
C2088 H2114 0.934 . S
C2089 C2084 1.413 . S
C2089 C2088 1.403 . S
C2089 H2115 0.930 . S
C2090 O2104 1.275 . S
C2090 O2105 1.256 . S
C2091 O2106 1.259 . S
C2091 O2107 1.268 . S
C2092 Ho2081 2.811 . S
C2092 C2093 1.488 . S
C2092 O2108 1.215 . S
C2092 O2109 1.289 . S
C2093 C2092 1.488 . S
C2093 C2094 1.348 . S
C2093 C2098 1.413 . S
C2094 C2093 1.348 . S
C2094 C2095 1.442 . S
C2094 H2116 0.930 . S
C2095 C2094 1.442 . S
C2095 C2096 1.381 . S
C2095 H2117 0.931 . S
C2096 C2095 1.381 . S
C2096 C2097 1.321 . S
C2097 C2096 1.321 . S
C2097 C2098 1.403 . S
C2097 H2118 0.934 . S
C2098 C2093 1.413 . S
C2098 C2097 1.403 . S
C2098 H2119 0.930 . S
C2099 O2110 1.275 . S
C2099 O2111 1.256 . S
O2100 Ho2080 2.322 . S
O2100 C2082 1.259 . S
O2101 Ho2081 2.346 . S
O2101 C2082 1.268 . S
O2102 Ho2080 2.378 . S
O2102 C2083 1.215 . S
O2103 Ho2080 2.524 . S
O2103 C2083 1.289 . S
O2104 Ho2080 2.381 . S
O2104 C2090 1.275 . S
O2105 Ho2080 2.669 . S
O2105 Ho2081 2.305 . S
O2105 C2090 1.256 . S
O2106 Ho2081 2.322 . S
O2106 C2091 1.259 . S
O2107 Ho2080 2.346 . S
O2107 C2091 1.268 . S
O2108 Ho2081 2.378 . S
O2108 C2092 1.215 . S
O2109 Ho2081 2.524 . S
O2109 C2092 1.289 . S
O2110 Ho2081 2.381 . S
O2110 C2099 1.275 . S
O2111 Ho2080 2.305 . S
O2111 Ho2081 2.669 . S
O2111 C2099 1.256 . S
H2112 C2085 0.930 . S
H2113 C2086 0.931 . S
H2114 C2088 0.934 . S
H2115 C2089 0.930 . S
H2116 C2094 0.930 . S
H2117 C2095 0.931 . S
H2118 C2097 0.934 . S
H2119 C2098 0.930 . S
Ho2120 C2123 2.811 . S
Ho2120 O2140 2.322 . S
Ho2120 O2142 2.378 . S
Ho2120 O2143 2.524 . S
Ho2120 O2144 2.381 . S
Ho2120 O2145 2.669 . S
Ho2120 O2147 2.346 . S
Ho2120 O2151 2.305 . S
Ho2121 C2132 2.811 . S
Ho2121 O2141 2.346 . S
Ho2121 O2145 2.305 . S
Ho2121 O2146 2.322 . S
Ho2121 O2148 2.378 . S
Ho2121 O2149 2.524 . S
Ho2121 O2150 2.381 . S
Ho2121 O2151 2.669 . S
C2122 O2140 1.259 . S
C2122 O2141 1.268 . S
C2123 Ho2120 2.811 . S
C2123 C2124 1.488 . S
C2123 O2142 1.215 . S
C2123 O2143 1.289 . S
C2124 C2123 1.488 . S
C2124 C2125 1.348 . S
C2124 C2129 1.413 . S
C2125 C2124 1.348 . S
C2125 C2126 1.442 . S
C2125 H2152 0.930 . S
C2126 C2125 1.442 . S
C2126 C2127 1.381 . S
C2126 H2153 0.931 . S
C2127 C2126 1.381 . S
C2127 C2128 1.321 . S
C2128 C2127 1.321 . S
C2128 C2129 1.403 . S
C2128 H2154 0.934 . S
C2129 C2124 1.413 . S
C2129 C2128 1.403 . S
C2129 H2155 0.930 . S
C2130 O2144 1.275 . S
C2130 O2145 1.256 . S
C2131 O2146 1.259 . S
C2131 O2147 1.268 . S
C2132 Ho2121 2.811 . S
C2132 C2133 1.488 . S
C2132 O2148 1.215 . S
C2132 O2149 1.289 . S
C2133 C2132 1.488 . S
C2133 C2134 1.348 . S
C2133 C2138 1.413 . S
C2134 C2133 1.348 . S
C2134 C2135 1.442 . S
C2134 H2156 0.930 . S
C2135 C2134 1.442 . S
C2135 C2136 1.381 . S
C2135 H2157 0.931 . S
C2136 C2135 1.381 . S
C2136 C2137 1.321 . S
C2137 C2136 1.321 . S
C2137 C2138 1.403 . S
C2137 H2158 0.934 . S
C2138 C2133 1.413 . S
C2138 C2137 1.403 . S
C2138 H2159 0.930 . S
C2139 O2150 1.275 . S
C2139 O2151 1.256 . S
O2140 Ho2120 2.322 . S
O2140 C2122 1.259 . S
O2141 Ho2121 2.346 . S
O2141 C2122 1.268 . S
O2142 Ho2120 2.378 . S
O2142 C2123 1.215 . S
O2143 Ho2120 2.524 . S
O2143 C2123 1.289 . S
O2144 Ho2120 2.381 . S
O2144 C2130 1.275 . S
O2145 Ho2120 2.669 . S
O2145 Ho2121 2.305 . S
O2145 C2130 1.256 . S
O2146 Ho2121 2.322 . S
O2146 C2131 1.259 . S
O2147 Ho2120 2.346 . S
O2147 C2131 1.268 . S
O2148 Ho2121 2.378 . S
O2148 C2132 1.215 . S
O2149 Ho2121 2.524 . S
O2149 C2132 1.289 . S
O2150 Ho2121 2.381 . S
O2150 C2139 1.275 . S
O2151 Ho2120 2.305 . S
O2151 Ho2121 2.669 . S
O2151 C2139 1.256 . S
H2152 C2125 0.930 . S
H2153 C2126 0.931 . S
H2154 C2128 0.934 . S
H2155 C2129 0.930 . S
H2156 C2134 0.930 . S
H2157 C2135 0.931 . S
H2158 C2137 0.934 . S
H2159 C2138 0.930 . S
Ho2160 C2163 2.811 . S
Ho2160 O2180 2.322 . S
Ho2160 O2182 2.378 . S
Ho2160 O2183 2.524 . S
Ho2160 O2184 2.381 1_455 S
Ho2160 O2185 2.669 1_455 S
Ho2160 O2187 2.346 1_455 S
Ho2160 O2191 2.305 . S
Ho2161 C2172 2.811 . S
Ho2161 O2181 2.346 1_655 S
Ho2161 O2185 2.305 . S
Ho2161 O2186 2.322 . S
Ho2161 O2188 2.378 . S
Ho2161 O2189 2.524 . S
Ho2161 O2190 2.381 1_655 S
Ho2161 O2191 2.669 1_655 S
C2162 O2180 1.259 . S
C2162 O2181 1.268 . S
C2163 Ho2160 2.811 . S
C2163 C2164 1.488 . S
C2163 O2182 1.215 . S
C2163 O2183 1.289 . S
C2164 C2163 1.488 . S
C2164 C2165 1.348 . S
C2164 C2169 1.413 . S
C2165 C2164 1.348 . S
C2165 C2166 1.442 . S
C2165 H2192 0.930 . S
C2166 C2165 1.442 . S
C2166 C2167 1.381 . S
C2166 H2193 0.931 . S
C2167 C2166 1.381 . S
C2167 C2168 1.321 . S
C2168 C2167 1.321 . S
C2168 C2169 1.403 . S
C2168 H2194 0.934 . S
C2169 C2164 1.413 . S
C2169 C2168 1.403 . S
C2169 H2195 0.930 . S
C2170 O2184 1.275 . S
C2170 O2185 1.256 . S
C2171 O2186 1.259 . S
C2171 O2187 1.268 . S
C2172 Ho2161 2.811 . S
C2172 C2173 1.488 . S
C2172 O2188 1.215 . S
C2172 O2189 1.289 . S
C2173 C2172 1.488 . S
C2173 C2174 1.348 . S
C2173 C2178 1.413 . S
C2174 C2173 1.348 . S
C2174 C2175 1.442 . S
C2174 H2196 0.930 . S
C2175 C2174 1.442 . S
C2175 C2176 1.381 . S
C2175 H2197 0.931 . S
C2176 C2175 1.381 . S
C2176 C2177 1.321 . S
C2177 C2176 1.321 . S
C2177 C2178 1.403 . S
C2177 H2198 0.934 . S
C2178 C2173 1.413 . S
C2178 C2177 1.403 . S
C2178 H2199 0.930 . S
C2179 O2190 1.275 . S
C2179 O2191 1.256 . S
O2180 Ho2160 2.322 . S
O2180 C2162 1.259 . S
O2181 Ho2161 2.346 1_455 S
O2181 C2162 1.268 . S
O2182 Ho2160 2.378 . S
O2182 C2163 1.215 . S
O2183 Ho2160 2.524 . S
O2183 C2163 1.289 . S
O2184 Ho2160 2.381 1_655 S
O2184 C2170 1.275 . S
O2185 Ho2160 2.669 1_655 S
O2185 Ho2161 2.305 . S
O2185 C2170 1.256 . S
O2186 Ho2161 2.322 . S
O2186 C2171 1.259 . S
O2187 Ho2160 2.346 1_655 S
O2187 C2171 1.268 . S
O2188 Ho2161 2.378 . S
O2188 C2172 1.215 . S
O2189 Ho2161 2.524 . S
O2189 C2172 1.289 . S
O2190 Ho2161 2.381 1_455 S
O2190 C2179 1.275 . S
O2191 Ho2160 2.305 . S
O2191 Ho2161 2.669 1_455 S
O2191 C2179 1.256 . S
H2192 C2165 0.930 . S
H2193 C2166 0.931 . S
H2194 C2168 0.934 . S
H2195 C2169 0.930 . S
H2196 C2174 0.930 . S
H2197 C2175 0.931 . S
H2198 C2177 0.934 . S
H2199 C2178 0.930 . S
Ho2200 C2203 2.811 . S
Ho2200 O2220 2.322 . S
Ho2200 O2222 2.378 . S
Ho2200 O2223 2.524 . S
Ho2200 O2224 2.381 . S
Ho2200 O2225 2.669 . S
Ho2200 O2227 2.346 . S
Ho2200 O2231 2.305 . S
Ho2201 C2212 2.811 . S
Ho2201 O2221 2.346 . S
Ho2201 O2225 2.305 . S
Ho2201 O2226 2.322 . S
Ho2201 O2228 2.378 . S
Ho2201 O2229 2.524 . S
Ho2201 O2230 2.381 . S
Ho2201 O2231 2.669 . S
C2202 O2220 1.259 . S
C2202 O2221 1.268 . S
C2203 Ho2200 2.811 . S
C2203 C2204 1.488 . S
C2203 O2222 1.215 . S
C2203 O2223 1.289 . S
C2204 C2203 1.488 . S
C2204 C2205 1.348 . S
C2204 C2209 1.413 . S
C2205 C2204 1.348 . S
C2205 C2206 1.442 . S
C2205 H2232 0.930 . S
C2206 C2205 1.442 . S
C2206 C2207 1.381 . S
C2206 H2233 0.931 . S
C2207 C2206 1.381 . S
C2207 C2208 1.321 . S
C2208 C2207 1.321 . S
C2208 C2209 1.403 . S
C2208 H2234 0.934 . S
C2209 C2204 1.413 . S
C2209 C2208 1.403 . S
C2209 H2235 0.930 . S
C2210 O2224 1.275 . S
C2210 O2225 1.256 . S
C2211 O2226 1.259 . S
C2211 O2227 1.268 . S
C2212 Ho2201 2.811 . S
C2212 C2213 1.488 . S
C2212 O2228 1.215 . S
C2212 O2229 1.289 . S
C2213 C2212 1.488 . S
C2213 C2214 1.348 . S
C2213 C2218 1.413 . S
C2214 C2213 1.348 . S
C2214 C2215 1.442 . S
C2214 H2236 0.930 . S
C2215 C2214 1.442 . S
C2215 C2216 1.381 . S
C2215 H2237 0.931 . S
C2216 C2215 1.381 . S
C2216 C2217 1.321 . S
C2217 C2216 1.321 . S
C2217 C2218 1.403 . S
C2217 H2238 0.934 . S
C2218 C2213 1.413 . S
C2218 C2217 1.403 . S
C2218 H2239 0.930 . S
C2219 O2230 1.275 . S
C2219 O2231 1.256 . S
O2220 Ho2200 2.322 . S
O2220 C2202 1.259 . S
O2221 Ho2201 2.346 . S
O2221 C2202 1.268 . S
O2222 Ho2200 2.378 . S
O2222 C2203 1.215 . S
O2223 Ho2200 2.524 . S
O2223 C2203 1.289 . S
O2224 Ho2200 2.381 . S
O2224 C2210 1.275 . S
O2225 Ho2200 2.669 . S
O2225 Ho2201 2.305 . S
O2225 C2210 1.256 . S
O2226 Ho2201 2.322 . S
O2226 C2211 1.259 . S
O2227 Ho2200 2.346 . S
O2227 C2211 1.268 . S
O2228 Ho2201 2.378 . S
O2228 C2212 1.215 . S
O2229 Ho2201 2.524 . S
O2229 C2212 1.289 . S
O2230 Ho2201 2.381 . S
O2230 C2219 1.275 . S
O2231 Ho2200 2.305 . S
O2231 Ho2201 2.669 . S
O2231 C2219 1.256 . S
H2232 C2205 0.930 . S
H2233 C2206 0.931 . S
H2234 C2208 0.934 . S
H2235 C2209 0.930 . S
H2236 C2214 0.930 . S
H2237 C2215 0.931 . S
H2238 C2217 0.934 . S
H2239 C2218 0.930 . S
Ho2240 C2243 2.811 . S
Ho2240 O2260 2.322 . S
Ho2240 O2262 2.378 . S
Ho2240 O2263 2.524 . S
Ho2240 O2264 2.381 . S
Ho2240 O2265 2.669 . S
Ho2240 O2267 2.346 . S
Ho2240 O2271 2.305 . S
Ho2241 C2252 2.811 . S
Ho2241 O2261 2.346 . S
Ho2241 O2265 2.305 . S
Ho2241 O2266 2.322 . S
Ho2241 O2268 2.378 . S
Ho2241 O2269 2.524 . S
Ho2241 O2270 2.381 . S
Ho2241 O2271 2.669 . S
C2242 O2260 1.259 . S
C2242 O2261 1.268 . S
C2243 Ho2240 2.811 . S
C2243 C2244 1.488 . S
C2243 O2262 1.215 . S
C2243 O2263 1.289 . S
C2244 C2243 1.488 . S
C2244 C2245 1.348 . S
C2244 C2249 1.413 . S
C2245 C2244 1.348 . S
C2245 C2246 1.442 . S
C2245 H2272 0.930 . S
C2246 C2245 1.442 . S
C2246 C2247 1.381 . S
C2246 H2273 0.931 . S
C2247 C2246 1.381 . S
C2247 C2248 1.321 . S
C2248 C2247 1.321 . S
C2248 C2249 1.403 . S
C2248 H2274 0.934 . S
C2249 C2244 1.413 . S
C2249 C2248 1.403 . S
C2249 H2275 0.930 . S
C2250 O2264 1.275 . S
C2250 O2265 1.256 . S
C2251 O2266 1.259 . S
C2251 O2267 1.268 . S
C2252 Ho2241 2.811 . S
C2252 C2253 1.488 . S
C2252 O2268 1.215 . S
C2252 O2269 1.289 . S
C2253 C2252 1.488 . S
C2253 C2254 1.348 . S
C2253 C2258 1.413 . S
C2254 C2253 1.348 . S
C2254 C2255 1.442 . S
C2254 H2276 0.930 . S
C2255 C2254 1.442 . S
C2255 C2256 1.381 . S
C2255 H2277 0.931 . S
C2256 C2255 1.381 . S
C2256 C2257 1.321 . S
C2257 C2256 1.321 . S
C2257 C2258 1.403 . S
C2257 H2278 0.934 . S
C2258 C2253 1.413 . S
C2258 C2257 1.403 . S
C2258 H2279 0.930 . S
C2259 O2270 1.275 . S
C2259 O2271 1.256 . S
O2260 Ho2240 2.322 . S
O2260 C2242 1.259 . S
O2261 Ho2241 2.346 . S
O2261 C2242 1.268 . S
O2262 Ho2240 2.378 . S
O2262 C2243 1.215 . S
O2263 Ho2240 2.524 . S
O2263 C2243 1.289 . S
O2264 Ho2240 2.381 . S
O2264 C2250 1.275 . S
O2265 Ho2240 2.669 . S
O2265 Ho2241 2.305 . S
O2265 C2250 1.256 . S
O2266 Ho2241 2.322 . S
O2266 C2251 1.259 . S
O2267 Ho2240 2.346 . S
O2267 C2251 1.268 . S
O2268 Ho2241 2.378 . S
O2268 C2252 1.215 . S
O2269 Ho2241 2.524 . S
O2269 C2252 1.289 . S
O2270 Ho2241 2.381 . S
O2270 C2259 1.275 . S
O2271 Ho2240 2.305 . S
O2271 Ho2241 2.669 . S
O2271 C2259 1.256 . S
H2272 C2245 0.930 . S
H2273 C2246 0.931 . S
H2274 C2248 0.934 . S
H2275 C2249 0.930 . S
H2276 C2254 0.930 . S
H2277 C2255 0.931 . S
H2278 C2257 0.934 . S
H2279 C2258 0.930 . S
Ho2280 C2283 2.811 . S
Ho2280 O2300 2.322 . S
Ho2280 O2302 2.378 . S
Ho2280 O2303 2.524 . S
Ho2280 O2304 2.381 . S
Ho2280 O2305 2.669 . S
Ho2280 O2307 2.346 . S
Ho2280 O2311 2.305 . S
Ho2281 C2292 2.811 . S
Ho2281 O2301 2.346 . S
Ho2281 O2305 2.305 . S
Ho2281 O2306 2.322 . S
Ho2281 O2308 2.378 . S
Ho2281 O2309 2.524 . S
Ho2281 O2310 2.381 . S
Ho2281 O2311 2.669 . S
C2282 O2300 1.259 . S
C2282 O2301 1.268 . S
C2283 Ho2280 2.811 . S
C2283 C2284 1.488 . S
C2283 O2302 1.215 . S
C2283 O2303 1.289 . S
C2284 C2283 1.488 . S
C2284 C2285 1.348 . S
C2284 C2289 1.413 . S
C2285 C2284 1.348 . S
C2285 C2286 1.442 . S
C2285 H2312 0.930 . S
C2286 C2285 1.442 . S
C2286 C2287 1.381 . S
C2286 H2313 0.931 . S
C2287 C2286 1.381 . S
C2287 C2288 1.321 . S
C2288 C2287 1.321 . S
C2288 C2289 1.403 . S
C2288 H2314 0.934 . S
C2289 C2284 1.413 . S
C2289 C2288 1.403 . S
C2289 H2315 0.930 . S
C2290 O2304 1.275 . S
C2290 O2305 1.256 . S
C2291 O2306 1.259 . S
C2291 O2307 1.268 . S
C2292 Ho2281 2.811 . S
C2292 C2293 1.488 . S
C2292 O2308 1.215 . S
C2292 O2309 1.289 . S
C2293 C2292 1.488 . S
C2293 C2294 1.348 . S
C2293 C2298 1.413 . S
C2294 C2293 1.348 . S
C2294 C2295 1.442 . S
C2294 H2316 0.930 . S
C2295 C2294 1.442 . S
C2295 C2296 1.381 . S
C2295 H2317 0.931 . S
C2296 C2295 1.381 . S
C2296 C2297 1.321 . S
C2297 C2296 1.321 . S
C2297 C2298 1.403 . S
C2297 H2318 0.934 . S
C2298 C2293 1.413 . S
C2298 C2297 1.403 . S
C2298 H2319 0.930 . S
C2299 O2310 1.275 . S
C2299 O2311 1.256 . S
O2300 Ho2280 2.322 . S
O2300 C2282 1.259 . S
O2301 Ho2281 2.346 . S
O2301 C2282 1.268 . S
O2302 Ho2280 2.378 . S
O2302 C2283 1.215 . S
O2303 Ho2280 2.524 . S
O2303 C2283 1.289 . S
O2304 Ho2280 2.381 . S
O2304 C2290 1.275 . S
O2305 Ho2280 2.669 . S
O2305 Ho2281 2.305 . S
O2305 C2290 1.256 . S
O2306 Ho2281 2.322 . S
O2306 C2291 1.259 . S
O2307 Ho2280 2.346 . S
O2307 C2291 1.268 . S
O2308 Ho2281 2.378 . S
O2308 C2292 1.215 . S
O2309 Ho2281 2.524 . S
O2309 C2292 1.289 . S
O2310 Ho2281 2.381 . S
O2310 C2299 1.275 . S
O2311 Ho2280 2.305 . S
O2311 Ho2281 2.669 . S
O2311 C2299 1.256 . S
H2312 C2285 0.930 . S
H2313 C2286 0.931 . S
H2314 C2288 0.934 . S
H2315 C2289 0.930 . S
H2316 C2294 0.930 . S
H2317 C2295 0.931 . S
H2318 C2297 0.934 . S
H2319 C2298 0.930 . S
Ho2320 C2323 2.811 . S
Ho2320 O2340 2.322 . S
Ho2320 O2342 2.378 . S
Ho2320 O2343 2.524 . S
Ho2320 O2344 2.381 . S
Ho2320 O2345 2.669 . S
Ho2320 O2347 2.346 . S
Ho2320 O2351 2.305 . S
Ho2321 C2332 2.811 . S
Ho2321 O2341 2.346 . S
Ho2321 O2345 2.305 . S
Ho2321 O2346 2.322 . S
Ho2321 O2348 2.378 . S
Ho2321 O2349 2.524 . S
Ho2321 O2350 2.381 . S
Ho2321 O2351 2.669 . S
C2322 O2340 1.259 . S
C2322 O2341 1.268 . S
C2323 Ho2320 2.811 . S
C2323 C2324 1.488 . S
C2323 O2342 1.215 . S
C2323 O2343 1.289 . S
C2324 C2323 1.488 . S
C2324 C2325 1.348 . S
C2324 C2329 1.413 . S
C2325 C2324 1.348 . S
C2325 C2326 1.442 . S
C2325 H2352 0.930 . S
C2326 C2325 1.442 . S
C2326 C2327 1.381 . S
C2326 H2353 0.931 . S
C2327 C2326 1.381 . S
C2327 C2328 1.321 . S
C2328 C2327 1.321 . S
C2328 C2329 1.403 . S
C2328 H2354 0.934 . S
C2329 C2324 1.413 . S
C2329 C2328 1.403 . S
C2329 H2355 0.930 . S
C2330 O2344 1.275 . S
C2330 O2345 1.256 . S
C2331 O2346 1.259 . S
C2331 O2347 1.268 . S
C2332 Ho2321 2.811 . S
C2332 C2333 1.488 . S
C2332 O2348 1.215 . S
C2332 O2349 1.289 . S
C2333 C2332 1.488 . S
C2333 C2334 1.348 . S
C2333 C2338 1.413 . S
C2334 C2333 1.348 . S
C2334 C2335 1.442 . S
C2334 H2356 0.930 . S
C2335 C2334 1.442 . S
C2335 C2336 1.381 . S
C2335 H2357 0.931 . S
C2336 C2335 1.381 . S
C2336 C2337 1.321 . S
C2337 C2336 1.321 . S
C2337 C2338 1.403 . S
C2337 H2358 0.934 . S
C2338 C2333 1.413 . S
C2338 C2337 1.403 . S
C2338 H2359 0.930 . S
C2339 O2350 1.275 . S
C2339 O2351 1.256 . S
O2340 Ho2320 2.322 . S
O2340 C2322 1.259 . S
O2341 Ho2321 2.346 . S
O2341 C2322 1.268 . S
O2342 Ho2320 2.378 . S
O2342 C2323 1.215 . S
O2343 Ho2320 2.524 . S
O2343 C2323 1.289 . S
O2344 Ho2320 2.381 . S
O2344 C2330 1.275 . S
O2345 Ho2320 2.669 . S
O2345 Ho2321 2.305 . S
O2345 C2330 1.256 . S
O2346 Ho2321 2.322 . S
O2346 C2331 1.259 . S
O2347 Ho2320 2.346 . S
O2347 C2331 1.268 . S
O2348 Ho2321 2.378 . S
O2348 C2332 1.215 . S
O2349 Ho2321 2.524 . S
O2349 C2332 1.289 . S
O2350 Ho2321 2.381 . S
O2350 C2339 1.275 . S
O2351 Ho2320 2.305 . S
O2351 Ho2321 2.669 . S
O2351 C2339 1.256 . S
H2352 C2325 0.930 . S
H2353 C2326 0.931 . S
H2354 C2328 0.934 . S
H2355 C2329 0.930 . S
H2356 C2334 0.930 . S
H2357 C2335 0.931 . S
H2358 C2337 0.934 . S
H2359 C2338 0.930 . S
Ho2360 C2363 2.811 . S
Ho2360 O2380 2.322 . S
Ho2360 O2382 2.378 . S
Ho2360 O2383 2.524 . S
Ho2360 O2384 2.381 . S
Ho2360 O2385 2.669 . S
Ho2360 O2387 2.346 . S
Ho2360 O2391 2.305 . S
Ho2361 C2372 2.811 . S
Ho2361 O2381 2.346 . S
Ho2361 O2385 2.305 . S
Ho2361 O2386 2.322 . S
Ho2361 O2388 2.378 . S
Ho2361 O2389 2.524 . S
Ho2361 O2390 2.381 . S
Ho2361 O2391 2.669 . S
C2362 O2380 1.259 . S
C2362 O2381 1.268 . S
C2363 Ho2360 2.811 . S
C2363 C2364 1.488 . S
C2363 O2382 1.215 . S
C2363 O2383 1.289 . S
C2364 C2363 1.488 . S
C2364 C2365 1.348 . S
C2364 C2369 1.413 . S
C2365 C2364 1.348 . S
C2365 C2366 1.442 . S
C2365 H2392 0.930 . S
C2366 C2365 1.442 . S
C2366 C2367 1.381 . S
C2366 H2393 0.931 . S
C2367 C2366 1.381 . S
C2367 C2368 1.321 . S
C2368 C2367 1.321 . S
C2368 C2369 1.403 . S
C2368 H2394 0.934 . S
C2369 C2364 1.413 . S
C2369 C2368 1.403 . S
C2369 H2395 0.930 . S
C2370 O2384 1.275 . S
C2370 O2385 1.256 . S
C2371 O2386 1.259 . S
C2371 O2387 1.268 . S
C2372 Ho2361 2.811 . S
C2372 C2373 1.488 . S
C2372 O2388 1.215 . S
C2372 O2389 1.289 . S
C2373 C2372 1.488 . S
C2373 C2374 1.348 . S
C2373 C2378 1.413 . S
C2374 C2373 1.348 . S
C2374 C2375 1.442 . S
C2374 H2396 0.930 . S
C2375 C2374 1.442 . S
C2375 C2376 1.381 . S
C2375 H2397 0.931 . S
C2376 C2375 1.381 . S
C2376 C2377 1.321 . S
C2377 C2376 1.321 . S
C2377 C2378 1.403 . S
C2377 H2398 0.934 . S
C2378 C2373 1.413 . S
C2378 C2377 1.403 . S
C2378 H2399 0.930 . S
C2379 O2390 1.275 . S
C2379 O2391 1.256 . S
O2380 Ho2360 2.322 . S
O2380 C2362 1.259 . S
O2381 Ho2361 2.346 . S
O2381 C2362 1.268 . S
O2382 Ho2360 2.378 . S
O2382 C2363 1.215 . S
O2383 Ho2360 2.524 . S
O2383 C2363 1.289 . S
O2384 Ho2360 2.381 . S
O2384 C2370 1.275 . S
O2385 Ho2360 2.669 . S
O2385 Ho2361 2.305 . S
O2385 C2370 1.256 . S
O2386 Ho2361 2.322 . S
O2386 C2371 1.259 . S
O2387 Ho2360 2.346 . S
O2387 C2371 1.268 . S
O2388 Ho2361 2.378 . S
O2388 C2372 1.215 . S
O2389 Ho2361 2.524 . S
O2389 C2372 1.289 . S
O2390 Ho2361 2.381 . S
O2390 C2379 1.275 . S
O2391 Ho2360 2.305 . S
O2391 Ho2361 2.669 . S
O2391 C2379 1.256 . S
H2392 C2365 0.930 . S
H2393 C2366 0.931 . S
H2394 C2368 0.934 . S
H2395 C2369 0.930 . S
H2396 C2374 0.930 . S
H2397 C2375 0.931 . S
H2398 C2377 0.934 . S
H2399 C2378 0.930 . S
Ho2400 C2403 2.811 . S
Ho2400 O2420 2.322 . S
Ho2400 O2422 2.378 . S
Ho2400 O2423 2.524 . S
Ho2400 O2424 2.381 . S
Ho2400 O2425 2.669 . S
Ho2400 O2427 2.346 . S
Ho2400 O2431 2.305 . S
Ho2401 C2412 2.811 . S
Ho2401 O2421 2.346 . S
Ho2401 O2425 2.305 . S
Ho2401 O2426 2.322 . S
Ho2401 O2428 2.378 . S
Ho2401 O2429 2.524 . S
Ho2401 O2430 2.381 . S
Ho2401 O2431 2.669 . S
C2402 O2420 1.259 . S
C2402 O2421 1.268 . S
C2403 Ho2400 2.811 . S
C2403 C2404 1.488 . S
C2403 O2422 1.215 . S
C2403 O2423 1.289 . S
C2404 C2403 1.488 . S
C2404 C2405 1.348 . S
C2404 C2409 1.413 . S
C2405 C2404 1.348 . S
C2405 C2406 1.442 . S
C2405 H2432 0.930 . S
C2406 C2405 1.442 . S
C2406 C2407 1.381 . S
C2406 H2433 0.931 . S
C2407 C2406 1.381 . S
C2407 C2408 1.321 . S
C2408 C2407 1.321 . S
C2408 C2409 1.403 . S
C2408 H2434 0.934 . S
C2409 C2404 1.413 . S
C2409 C2408 1.403 . S
C2409 H2435 0.930 . S
C2410 O2424 1.275 . S
C2410 O2425 1.256 . S
C2411 O2426 1.259 . S
C2411 O2427 1.268 . S
C2412 Ho2401 2.811 . S
C2412 C2413 1.488 . S
C2412 O2428 1.215 . S
C2412 O2429 1.289 . S
C2413 C2412 1.488 . S
C2413 C2414 1.348 . S
C2413 C2418 1.413 . S
C2414 C2413 1.348 . S
C2414 C2415 1.442 . S
C2414 H2436 0.930 . S
C2415 C2414 1.442 . S
C2415 C2416 1.381 . S
C2415 H2437 0.931 . S
C2416 C2415 1.381 . S
C2416 C2417 1.321 . S
C2417 C2416 1.321 . S
C2417 C2418 1.403 . S
C2417 H2438 0.934 . S
C2418 C2413 1.413 . S
C2418 C2417 1.403 . S
C2418 H2439 0.930 . S
C2419 O2430 1.275 . S
C2419 O2431 1.256 . S
O2420 Ho2400 2.322 . S
O2420 C2402 1.259 . S
O2421 Ho2401 2.346 . S
O2421 C2402 1.268 . S
O2422 Ho2400 2.378 . S
O2422 C2403 1.215 . S
O2423 Ho2400 2.524 . S
O2423 C2403 1.289 . S
O2424 Ho2400 2.381 . S
O2424 C2410 1.275 . S
O2425 Ho2400 2.669 . S
O2425 Ho2401 2.305 . S
O2425 C2410 1.256 . S
O2426 Ho2401 2.322 . S
O2426 C2411 1.259 . S
O2427 Ho2400 2.346 . S
O2427 C2411 1.268 . S
O2428 Ho2401 2.378 . S
O2428 C2412 1.215 . S
O2429 Ho2401 2.524 . S
O2429 C2412 1.289 . S
O2430 Ho2401 2.381 . S
O2430 C2419 1.275 . S
O2431 Ho2400 2.305 . S
O2431 Ho2401 2.669 . S
O2431 C2419 1.256 . S
H2432 C2405 0.930 . S
H2433 C2406 0.931 . S
H2434 C2408 0.934 . S
H2435 C2409 0.930 . S
H2436 C2414 0.930 . S
H2437 C2415 0.931 . S
H2438 C2417 0.934 . S
H2439 C2418 0.930 . S
Ho2440 C2443 2.811 . S
Ho2440 O2460 2.322 . S
Ho2440 O2462 2.378 . S
Ho2440 O2463 2.524 . S
Ho2440 O2464 2.381 . S
Ho2440 O2465 2.669 . S
Ho2440 O2467 2.346 . S
Ho2440 O2471 2.305 . S
Ho2441 C2452 2.811 . S
Ho2441 O2461 2.346 . S
Ho2441 O2465 2.305 . S
Ho2441 O2466 2.322 . S
Ho2441 O2468 2.378 . S
Ho2441 O2469 2.524 . S
Ho2441 O2470 2.381 . S
Ho2441 O2471 2.669 . S
C2442 O2460 1.259 . S
C2442 O2461 1.268 . S
C2443 Ho2440 2.811 . S
C2443 C2444 1.488 . S
C2443 O2462 1.215 . S
C2443 O2463 1.289 . S
C2444 C2443 1.488 . S
C2444 C2445 1.348 . S
C2444 C2449 1.413 . S
C2445 C2444 1.348 . S
C2445 C2446 1.442 . S
C2445 H2472 0.930 . S
C2446 C2445 1.442 . S
C2446 C2447 1.381 . S
C2446 H2473 0.931 . S
C2447 C2446 1.381 . S
C2447 C2448 1.321 . S
C2448 C2447 1.321 . S
C2448 C2449 1.403 . S
C2448 H2474 0.934 . S
C2449 C2444 1.413 . S
C2449 C2448 1.403 . S
C2449 H2475 0.930 . S
C2450 O2464 1.275 . S
C2450 O2465 1.256 . S
C2451 O2466 1.259 . S
C2451 O2467 1.268 . S
C2452 Ho2441 2.811 . S
C2452 C2453 1.488 . S
C2452 O2468 1.215 . S
C2452 O2469 1.289 . S
C2453 C2452 1.488 . S
C2453 C2454 1.348 . S
C2453 C2458 1.413 . S
C2454 C2453 1.348 . S
C2454 C2455 1.442 . S
C2454 H2476 0.930 . S
C2455 C2454 1.442 . S
C2455 C2456 1.381 . S
C2455 H2477 0.931 . S
C2456 C2455 1.381 . S
C2456 C2457 1.321 . S
C2457 C2456 1.321 . S
C2457 C2458 1.403 . S
C2457 H2478 0.934 . S
C2458 C2453 1.413 . S
C2458 C2457 1.403 . S
C2458 H2479 0.930 . S
C2459 O2470 1.275 . S
C2459 O2471 1.256 . S
O2460 Ho2440 2.322 . S
O2460 C2442 1.259 . S
O2461 Ho2441 2.346 . S
O2461 C2442 1.268 . S
O2462 Ho2440 2.378 . S
O2462 C2443 1.215 . S
O2463 Ho2440 2.524 . S
O2463 C2443 1.289 . S
O2464 Ho2440 2.381 . S
O2464 C2450 1.275 . S
O2465 Ho2440 2.669 . S
O2465 Ho2441 2.305 . S
O2465 C2450 1.256 . S
O2466 Ho2441 2.322 . S
O2466 C2451 1.259 . S
O2467 Ho2440 2.346 . S
O2467 C2451 1.268 . S
O2468 Ho2441 2.378 . S
O2468 C2452 1.215 . S
O2469 Ho2441 2.524 . S
O2469 C2452 1.289 . S
O2470 Ho2441 2.381 . S
O2470 C2459 1.275 . S
O2471 Ho2440 2.305 . S
O2471 Ho2441 2.669 . S
O2471 C2459 1.256 . S
H2472 C2445 0.930 . S
H2473 C2446 0.931 . S
H2474 C2448 0.934 . S
H2475 C2449 0.930 . S
H2476 C2454 0.930 . S
H2477 C2455 0.931 . S
H2478 C2457 0.934 . S
H2479 C2458 0.930 . S
Ho2480 C2483 2.811 . S
Ho2480 O2500 2.322 . S
Ho2480 O2502 2.378 . S
Ho2480 O2503 2.524 . S
Ho2480 O2504 2.381 . S
Ho2480 O2505 2.669 . S
Ho2480 O2507 2.346 . S
Ho2480 O2511 2.305 . S
Ho2481 C2492 2.811 . S
Ho2481 O2501 2.346 . S
Ho2481 O2505 2.305 . S
Ho2481 O2506 2.322 . S
Ho2481 O2508 2.378 . S
Ho2481 O2509 2.524 . S
Ho2481 O2510 2.381 . S
Ho2481 O2511 2.669 . S
C2482 O2500 1.259 . S
C2482 O2501 1.268 . S
C2483 Ho2480 2.811 . S
C2483 C2484 1.488 . S
C2483 O2502 1.215 . S
C2483 O2503 1.289 . S
C2484 C2483 1.488 . S
C2484 C2485 1.348 . S
C2484 C2489 1.413 . S
C2485 C2484 1.348 . S
C2485 C2486 1.442 . S
C2485 H2512 0.930 . S
C2486 C2485 1.442 . S
C2486 C2487 1.381 . S
C2486 H2513 0.931 . S
C2487 C2486 1.381 . S
C2487 C2488 1.321 . S
C2488 C2487 1.321 . S
C2488 C2489 1.403 . S
C2488 H2514 0.934 . S
C2489 C2484 1.413 . S
C2489 C2488 1.403 . S
C2489 H2515 0.930 . S
C2490 O2504 1.275 . S
C2490 O2505 1.256 . S
C2491 O2506 1.259 . S
C2491 O2507 1.268 . S
C2492 Ho2481 2.811 . S
C2492 C2493 1.488 . S
C2492 O2508 1.215 . S
C2492 O2509 1.289 . S
C2493 C2492 1.488 . S
C2493 C2494 1.348 . S
C2493 C2498 1.413 . S
C2494 C2493 1.348 . S
C2494 C2495 1.442 . S
C2494 H2516 0.930 . S
C2495 C2494 1.442 . S
C2495 C2496 1.381 . S
C2495 H2517 0.931 . S
C2496 C2495 1.381 . S
C2496 C2497 1.321 . S
C2497 C2496 1.321 . S
C2497 C2498 1.403 . S
C2497 H2518 0.934 . S
C2498 C2493 1.413 . S
C2498 C2497 1.403 . S
C2498 H2519 0.930 . S
C2499 O2510 1.275 . S
C2499 O2511 1.256 . S
O2500 Ho2480 2.322 . S
O2500 C2482 1.259 . S
O2501 Ho2481 2.346 . S
O2501 C2482 1.268 . S
O2502 Ho2480 2.378 . S
O2502 C2483 1.215 . S
O2503 Ho2480 2.524 . S
O2503 C2483 1.289 . S
O2504 Ho2480 2.381 . S
O2504 C2490 1.275 . S
O2505 Ho2480 2.669 . S
O2505 Ho2481 2.305 . S
O2505 C2490 1.256 . S
O2506 Ho2481 2.322 . S
O2506 C2491 1.259 . S
O2507 Ho2480 2.346 . S
O2507 C2491 1.268 . S
O2508 Ho2481 2.378 . S
O2508 C2492 1.215 . S
O2509 Ho2481 2.524 . S
O2509 C2492 1.289 . S
O2510 Ho2481 2.381 . S
O2510 C2499 1.275 . S
O2511 Ho2480 2.305 . S
O2511 Ho2481 2.669 . S
O2511 C2499 1.256 . S
H2512 C2485 0.930 . S
H2513 C2486 0.931 . S
H2514 C2488 0.934 . S
H2515 C2489 0.930 . S
H2516 C2494 0.930 . S
H2517 C2495 0.931 . S
H2518 C2497 0.934 . S
H2519 C2498 0.930 . S
Ho2520 C2523 2.811 . S
Ho2520 O2540 2.322 . S
Ho2520 O2542 2.378 . S
Ho2520 O2543 2.524 . S
Ho2520 O2544 2.381 . S
Ho2520 O2545 2.669 . S
Ho2520 O2547 2.346 . S
Ho2520 O2551 2.305 . S
Ho2521 C2532 2.811 . S
Ho2521 O2541 2.346 . S
Ho2521 O2545 2.305 . S
Ho2521 O2546 2.322 . S
Ho2521 O2548 2.378 . S
Ho2521 O2549 2.524 . S
Ho2521 O2550 2.381 . S
Ho2521 O2551 2.669 . S
C2522 O2540 1.259 . S
C2522 O2541 1.268 . S
C2523 Ho2520 2.811 . S
C2523 C2524 1.488 . S
C2523 O2542 1.215 . S
C2523 O2543 1.289 . S
C2524 C2523 1.488 . S
C2524 C2525 1.348 . S
C2524 C2529 1.413 . S
C2525 C2524 1.348 . S
C2525 C2526 1.442 . S
C2525 H2552 0.930 . S
C2526 C2525 1.442 . S
C2526 C2527 1.381 . S
C2526 H2553 0.931 . S
C2527 C2526 1.381 . S
C2527 C2528 1.321 . S
C2528 C2527 1.321 . S
C2528 C2529 1.403 . S
C2528 H2554 0.934 . S
C2529 C2524 1.413 . S
C2529 C2528 1.403 . S
C2529 H2555 0.930 . S
C2530 O2544 1.275 . S
C2530 O2545 1.256 . S
C2531 O2546 1.259 . S
C2531 O2547 1.268 . S
C2532 Ho2521 2.811 . S
C2532 C2533 1.488 . S
C2532 O2548 1.215 . S
C2532 O2549 1.289 . S
C2533 C2532 1.488 . S
C2533 C2534 1.348 . S
C2533 C2538 1.413 . S
C2534 C2533 1.348 . S
C2534 C2535 1.442 . S
C2534 H2556 0.930 . S
C2535 C2534 1.442 . S
C2535 C2536 1.381 . S
C2535 H2557 0.931 . S
C2536 C2535 1.381 . S
C2536 C2537 1.321 . S
C2537 C2536 1.321 . S
C2537 C2538 1.403 . S
C2537 H2558 0.934 . S
C2538 C2533 1.413 . S
C2538 C2537 1.403 . S
C2538 H2559 0.930 . S
C2539 O2550 1.275 . S
C2539 O2551 1.256 . S
O2540 Ho2520 2.322 . S
O2540 C2522 1.259 . S
O2541 Ho2521 2.346 . S
O2541 C2522 1.268 . S
O2542 Ho2520 2.378 . S
O2542 C2523 1.215 . S
O2543 Ho2520 2.524 . S
O2543 C2523 1.289 . S
O2544 Ho2520 2.381 . S
O2544 C2530 1.275 . S
O2545 Ho2520 2.669 . S
O2545 Ho2521 2.305 . S
O2545 C2530 1.256 . S
O2546 Ho2521 2.322 . S
O2546 C2531 1.259 . S
O2547 Ho2520 2.346 . S
O2547 C2531 1.268 . S
O2548 Ho2521 2.378 . S
O2548 C2532 1.215 . S
O2549 Ho2521 2.524 . S
O2549 C2532 1.289 . S
O2550 Ho2521 2.381 . S
O2550 C2539 1.275 . S
O2551 Ho2520 2.305 . S
O2551 Ho2521 2.669 . S
O2551 C2539 1.256 . S
H2552 C2525 0.930 . S
H2553 C2526 0.931 . S
H2554 C2528 0.934 . S
H2555 C2529 0.930 . S
H2556 C2534 0.930 . S
H2557 C2535 0.931 . S
H2558 C2537 0.934 . S
H2559 C2538 0.930 . S
Ho2560 C2563 2.811 . S
Ho2560 O2580 2.322 . S
Ho2560 O2582 2.378 . S
Ho2560 O2583 2.524 . S
Ho2560 O2584 2.381 . S
Ho2560 O2585 2.669 . S
Ho2560 O2587 2.346 . S
Ho2560 O2591 2.305 . S
Ho2561 C2572 2.811 . S
Ho2561 O2581 2.346 . S
Ho2561 O2585 2.305 . S
Ho2561 O2586 2.322 . S
Ho2561 O2588 2.378 . S
Ho2561 O2589 2.524 . S
Ho2561 O2590 2.381 . S
Ho2561 O2591 2.669 . S
C2562 O2580 1.259 . S
C2562 O2581 1.268 . S
C2563 Ho2560 2.811 . S
C2563 C2564 1.488 . S
C2563 O2582 1.215 . S
C2563 O2583 1.289 . S
C2564 C2563 1.488 . S
C2564 C2565 1.348 . S
C2564 C2569 1.413 . S
C2565 C2564 1.348 . S
C2565 C2566 1.442 . S
C2565 H2592 0.930 . S
C2566 C2565 1.442 . S
C2566 C2567 1.381 . S
C2566 H2593 0.931 . S
C2567 C2566 1.381 . S
C2567 C2568 1.321 . S
C2568 C2567 1.321 . S
C2568 C2569 1.403 . S
C2568 H2594 0.934 . S
C2569 C2564 1.413 . S
C2569 C2568 1.403 . S
C2569 H2595 0.930 . S
C2570 O2584 1.275 . S
C2570 O2585 1.256 . S
C2571 O2586 1.259 . S
C2571 O2587 1.268 . S
C2572 Ho2561 2.811 . S
C2572 C2573 1.488 . S
C2572 O2588 1.215 . S
C2572 O2589 1.289 . S
C2573 C2572 1.488 . S
C2573 C2574 1.348 . S
C2573 C2578 1.413 . S
C2574 C2573 1.348 . S
C2574 C2575 1.442 . S
C2574 H2596 0.930 . S
C2575 C2574 1.442 . S
C2575 C2576 1.381 . S
C2575 H2597 0.931 . S
C2576 C2575 1.381 . S
C2576 C2577 1.321 . S
C2577 C2576 1.321 . S
C2577 C2578 1.403 . S
C2577 H2598 0.934 . S
C2578 C2573 1.413 . S
C2578 C2577 1.403 . S
C2578 H2599 0.930 . S
C2579 O2590 1.275 . S
C2579 O2591 1.256 . S
O2580 Ho2560 2.322 . S
O2580 C2562 1.259 . S
O2581 Ho2561 2.346 . S
O2581 C2562 1.268 . S
O2582 Ho2560 2.378 . S
O2582 C2563 1.215 . S
O2583 Ho2560 2.524 . S
O2583 C2563 1.289 . S
O2584 Ho2560 2.381 . S
O2584 C2570 1.275 . S
O2585 Ho2560 2.669 . S
O2585 Ho2561 2.305 . S
O2585 C2570 1.256 . S
O2586 Ho2561 2.322 . S
O2586 C2571 1.259 . S
O2587 Ho2560 2.346 . S
O2587 C2571 1.268 . S
O2588 Ho2561 2.378 . S
O2588 C2572 1.215 . S
O2589 Ho2561 2.524 . S
O2589 C2572 1.289 . S
O2590 Ho2561 2.381 . S
O2590 C2579 1.275 . S
O2591 Ho2560 2.305 . S
O2591 Ho2561 2.669 . S
O2591 C2579 1.256 . S
H2592 C2565 0.930 . S
H2593 C2566 0.931 . S
H2594 C2568 0.934 . S
H2595 C2569 0.930 . S
H2596 C2574 0.930 . S
H2597 C2575 0.931 . S
H2598 C2577 0.934 . S
H2599 C2578 0.930 . S
Ho2600 C2603 2.811 . S
Ho2600 O2620 2.322 . S
Ho2600 O2622 2.378 . S
Ho2600 O2623 2.524 . S
Ho2600 O2624 2.381 . S
Ho2600 O2625 2.669 . S
Ho2600 O2627 2.346 . S
Ho2600 O2631 2.305 . S
Ho2601 C2612 2.811 . S
Ho2601 O2621 2.346 . S
Ho2601 O2625 2.305 . S
Ho2601 O2626 2.322 . S
Ho2601 O2628 2.378 . S
Ho2601 O2629 2.524 . S
Ho2601 O2630 2.381 . S
Ho2601 O2631 2.669 . S
C2602 O2620 1.259 . S
C2602 O2621 1.268 . S
C2603 Ho2600 2.811 . S
C2603 C2604 1.488 . S
C2603 O2622 1.215 . S
C2603 O2623 1.289 . S
C2604 C2603 1.488 . S
C2604 C2605 1.348 . S
C2604 C2609 1.413 . S
C2605 C2604 1.348 . S
C2605 C2606 1.442 . S
C2605 H2632 0.930 . S
C2606 C2605 1.442 . S
C2606 C2607 1.381 . S
C2606 H2633 0.931 . S
C2607 C2606 1.381 . S
C2607 C2608 1.321 . S
C2608 C2607 1.321 . S
C2608 C2609 1.403 . S
C2608 H2634 0.934 . S
C2609 C2604 1.413 . S
C2609 C2608 1.403 . S
C2609 H2635 0.930 . S
C2610 O2624 1.275 . S
C2610 O2625 1.256 . S
C2611 O2626 1.259 . S
C2611 O2627 1.268 . S
C2612 Ho2601 2.811 . S
C2612 C2613 1.488 . S
C2612 O2628 1.215 . S
C2612 O2629 1.289 . S
C2613 C2612 1.488 . S
C2613 C2614 1.348 . S
C2613 C2618 1.413 . S
C2614 C2613 1.348 . S
C2614 C2615 1.442 . S
C2614 H2636 0.930 . S
C2615 C2614 1.442 . S
C2615 C2616 1.381 . S
C2615 H2637 0.931 . S
C2616 C2615 1.381 . S
C2616 C2617 1.321 . S
C2617 C2616 1.321 . S
C2617 C2618 1.403 . S
C2617 H2638 0.934 . S
C2618 C2613 1.413 . S
C2618 C2617 1.403 . S
C2618 H2639 0.930 . S
C2619 O2630 1.275 . S
C2619 O2631 1.256 . S
O2620 Ho2600 2.322 . S
O2620 C2602 1.259 . S
O2621 Ho2601 2.346 . S
O2621 C2602 1.268 . S
O2622 Ho2600 2.378 . S
O2622 C2603 1.215 . S
O2623 Ho2600 2.524 . S
O2623 C2603 1.289 . S
O2624 Ho2600 2.381 . S
O2624 C2610 1.275 . S
O2625 Ho2600 2.669 . S
O2625 Ho2601 2.305 . S
O2625 C2610 1.256 . S
O2626 Ho2601 2.322 . S
O2626 C2611 1.259 . S
O2627 Ho2600 2.346 . S
O2627 C2611 1.268 . S
O2628 Ho2601 2.378 . S
O2628 C2612 1.215 . S
O2629 Ho2601 2.524 . S
O2629 C2612 1.289 . S
O2630 Ho2601 2.381 . S
O2630 C2619 1.275 . S
O2631 Ho2600 2.305 . S
O2631 Ho2601 2.669 . S
O2631 C2619 1.256 . S
H2632 C2605 0.930 . S
H2633 C2606 0.931 . S
H2634 C2608 0.934 . S
H2635 C2609 0.930 . S
H2636 C2614 0.930 . S
H2637 C2615 0.931 . S
H2638 C2617 0.934 . S
H2639 C2618 0.930 . S
Ho2640 C2643 2.811 . S
Ho2640 O2660 2.322 . S
Ho2640 O2662 2.378 . S
Ho2640 O2663 2.524 . S
Ho2640 O2664 2.381 . S
Ho2640 O2665 2.669 . S
Ho2640 O2667 2.346 . S
Ho2640 O2671 2.305 . S
Ho2641 C2652 2.811 . S
Ho2641 O2661 2.346 . S
Ho2641 O2665 2.305 . S
Ho2641 O2666 2.322 . S
Ho2641 O2668 2.378 . S
Ho2641 O2669 2.524 . S
Ho2641 O2670 2.381 . S
Ho2641 O2671 2.669 . S
C2642 O2660 1.259 . S
C2642 O2661 1.268 . S
C2643 Ho2640 2.811 . S
C2643 C2644 1.488 . S
C2643 O2662 1.215 . S
C2643 O2663 1.289 . S
C2644 C2643 1.488 . S
C2644 C2645 1.348 . S
C2644 C2649 1.413 . S
C2645 C2644 1.348 . S
C2645 C2646 1.442 . S
C2645 H2672 0.930 . S
C2646 C2645 1.442 . S
C2646 C2647 1.381 . S
C2646 H2673 0.931 . S
C2647 C2646 1.381 . S
C2647 C2648 1.321 . S
C2648 C2647 1.321 . S
C2648 C2649 1.403 . S
C2648 H2674 0.934 . S
C2649 C2644 1.413 . S
C2649 C2648 1.403 . S
C2649 H2675 0.930 . S
C2650 O2664 1.275 . S
C2650 O2665 1.256 . S
C2651 O2666 1.259 . S
C2651 O2667 1.268 . S
C2652 Ho2641 2.811 . S
C2652 C2653 1.488 . S
C2652 O2668 1.215 . S
C2652 O2669 1.289 . S
C2653 C2652 1.488 . S
C2653 C2654 1.348 . S
C2653 C2658 1.413 . S
C2654 C2653 1.348 . S
C2654 C2655 1.442 . S
C2654 H2676 0.930 . S
C2655 C2654 1.442 . S
C2655 C2656 1.381 . S
C2655 H2677 0.931 . S
C2656 C2655 1.381 . S
C2656 C2657 1.321 . S
C2657 C2656 1.321 . S
C2657 C2658 1.403 . S
C2657 H2678 0.934 . S
C2658 C2653 1.413 . S
C2658 C2657 1.403 . S
C2658 H2679 0.930 . S
C2659 O2670 1.275 . S
C2659 O2671 1.256 . S
O2660 Ho2640 2.322 . S
O2660 C2642 1.259 . S
O2661 Ho2641 2.346 . S
O2661 C2642 1.268 . S
O2662 Ho2640 2.378 . S
O2662 C2643 1.215 . S
O2663 Ho2640 2.524 . S
O2663 C2643 1.289 . S
O2664 Ho2640 2.381 . S
O2664 C2650 1.275 . S
O2665 Ho2640 2.669 . S
O2665 Ho2641 2.305 . S
O2665 C2650 1.256 . S
O2666 Ho2641 2.322 . S
O2666 C2651 1.259 . S
O2667 Ho2640 2.346 . S
O2667 C2651 1.268 . S
O2668 Ho2641 2.378 . S
O2668 C2652 1.215 . S
O2669 Ho2641 2.524 . S
O2669 C2652 1.289 . S
O2670 Ho2641 2.381 . S
O2670 C2659 1.275 . S
O2671 Ho2640 2.305 . S
O2671 Ho2641 2.669 . S
O2671 C2659 1.256 . S
H2672 C2645 0.930 . S
H2673 C2646 0.931 . S
H2674 C2648 0.934 . S
H2675 C2649 0.930 . S
H2676 C2654 0.930 . S
H2677 C2655 0.931 . S
H2678 C2657 0.934 . S
H2679 C2658 0.930 . S
Ho2680 C2683 2.811 . S
Ho2680 O2700 2.322 . S
Ho2680 O2702 2.378 . S
Ho2680 O2703 2.524 . S
Ho2680 O2704 2.381 1_556 S
Ho2680 O2705 2.669 1_556 S
Ho2680 O2707 2.346 1_556 S
Ho2680 O2711 2.305 . S
Ho2681 C2692 2.811 . S
Ho2681 O2701 2.346 1_554 S
Ho2681 O2705 2.305 . S
Ho2681 O2706 2.322 . S
Ho2681 O2708 2.378 . S
Ho2681 O2709 2.524 . S
Ho2681 O2710 2.381 1_554 S
Ho2681 O2711 2.669 1_554 S
C2682 O2700 1.259 . S
C2682 O2701 1.268 . S
C2683 Ho2680 2.811 . S
C2683 C2684 1.488 . S
C2683 O2702 1.215 . S
C2683 O2703 1.289 . S
C2684 C2683 1.488 . S
C2684 C2685 1.348 . S
C2684 C2689 1.413 . S
C2685 C2684 1.348 . S
C2685 C2686 1.442 . S
C2685 H2712 0.930 . S
C2686 C2685 1.442 . S
C2686 C2687 1.381 . S
C2686 H2713 0.931 . S
C2687 C2686 1.381 . S
C2687 C2688 1.321 . S
C2688 C2687 1.321 . S
C2688 C2689 1.403 . S
C2688 H2714 0.934 . S
C2689 C2684 1.413 . S
C2689 C2688 1.403 . S
C2689 H2715 0.930 . S
C2690 O2704 1.275 . S
C2690 O2705 1.256 . S
C2691 O2706 1.259 . S
C2691 O2707 1.268 . S
C2692 Ho2681 2.811 . S
C2692 C2693 1.488 . S
C2692 O2708 1.215 . S
C2692 O2709 1.289 . S
C2693 C2692 1.488 . S
C2693 C2694 1.348 . S
C2693 C2698 1.413 . S
C2694 C2693 1.348 . S
C2694 C2695 1.442 . S
C2694 H2716 0.930 . S
C2695 C2694 1.442 . S
C2695 C2696 1.381 . S
C2695 H2717 0.931 . S
C2696 C2695 1.381 . S
C2696 C2697 1.321 . S
C2697 C2696 1.321 . S
C2697 C2698 1.403 . S
C2697 H2718 0.934 . S
C2698 C2693 1.413 . S
C2698 C2697 1.403 . S
C2698 H2719 0.930 . S
C2699 O2710 1.275 . S
C2699 O2711 1.256 . S
O2700 Ho2680 2.322 . S
O2700 C2682 1.259 . S
O2701 Ho2681 2.346 1_556 S
O2701 C2682 1.268 . S
O2702 Ho2680 2.378 . S
O2702 C2683 1.215 . S
O2703 Ho2680 2.524 . S
O2703 C2683 1.289 . S
O2704 Ho2680 2.381 1_554 S
O2704 C2690 1.275 . S
O2705 Ho2680 2.669 1_554 S
O2705 Ho2681 2.305 . S
O2705 C2690 1.256 . S
O2706 Ho2681 2.322 . S
O2706 C2691 1.259 . S
O2707 Ho2680 2.346 1_554 S
O2707 C2691 1.268 . S
O2708 Ho2681 2.378 . S
O2708 C2692 1.215 . S
O2709 Ho2681 2.524 . S
O2709 C2692 1.289 . S
O2710 Ho2681 2.381 1_556 S
O2710 C2699 1.275 . S
O2711 Ho2680 2.305 . S
O2711 Ho2681 2.669 1_556 S
O2711 C2699 1.256 . S
H2712 C2685 0.930 . S
H2713 C2686 0.931 . S
H2714 C2688 0.934 . S
H2715 C2689 0.930 . S
H2716 C2694 0.930 . S
H2717 C2695 0.931 . S
H2718 C2697 0.934 . S
H2719 C2698 0.930 . S
Ho2720 C2723 2.811 . S
Ho2720 O2740 2.322 . S
Ho2720 O2742 2.378 . S
Ho2720 O2743 2.524 . S
Ho2720 O2744 2.381 . S
Ho2720 O2745 2.669 . S
Ho2720 O2747 2.346 . S
Ho2720 O2751 2.305 . S
Ho2721 C2732 2.811 . S
Ho2721 O2741 2.346 . S
Ho2721 O2745 2.305 . S
Ho2721 O2746 2.322 . S
Ho2721 O2748 2.378 . S
Ho2721 O2749 2.524 . S
Ho2721 O2750 2.381 . S
Ho2721 O2751 2.669 . S
C2722 O2740 1.259 . S
C2722 O2741 1.268 . S
C2723 Ho2720 2.811 . S
C2723 C2724 1.488 . S
C2723 O2742 1.215 . S
C2723 O2743 1.289 . S
C2724 C2723 1.488 . S
C2724 C2725 1.348 . S
C2724 C2729 1.413 . S
C2725 C2724 1.348 . S
C2725 C2726 1.442 . S
C2725 H2752 0.930 . S
C2726 C2725 1.442 . S
C2726 C2727 1.381 . S
C2726 H2753 0.931 . S
C2727 C2726 1.381 . S
C2727 C2728 1.321 . S
C2728 C2727 1.321 . S
C2728 C2729 1.403 . S
C2728 H2754 0.934 . S
C2729 C2724 1.413 . S
C2729 C2728 1.403 . S
C2729 H2755 0.930 . S
C2730 O2744 1.275 . S
C2730 O2745 1.256 . S
C2731 O2746 1.259 . S
C2731 O2747 1.268 . S
C2732 Ho2721 2.811 . S
C2732 C2733 1.488 . S
C2732 O2748 1.215 . S
C2732 O2749 1.289 . S
C2733 C2732 1.488 . S
C2733 C2734 1.348 . S
C2733 C2738 1.413 . S
C2734 C2733 1.348 . S
C2734 C2735 1.442 . S
C2734 H2756 0.930 . S
C2735 C2734 1.442 . S
C2735 C2736 1.381 . S
C2735 H2757 0.931 . S
C2736 C2735 1.381 . S
C2736 C2737 1.321 . S
C2737 C2736 1.321 . S
C2737 C2738 1.403 . S
C2737 H2758 0.934 . S
C2738 C2733 1.413 . S
C2738 C2737 1.403 . S
C2738 H2759 0.930 . S
C2739 O2750 1.275 . S
C2739 O2751 1.256 . S
O2740 Ho2720 2.322 . S
O2740 C2722 1.259 . S
O2741 Ho2721 2.346 . S
O2741 C2722 1.268 . S
O2742 Ho2720 2.378 . S
O2742 C2723 1.215 . S
O2743 Ho2720 2.524 . S
O2743 C2723 1.289 . S
O2744 Ho2720 2.381 . S
O2744 C2730 1.275 . S
O2745 Ho2720 2.669 . S
O2745 Ho2721 2.305 . S
O2745 C2730 1.256 . S
O2746 Ho2721 2.322 . S
O2746 C2731 1.259 . S
O2747 Ho2720 2.346 . S
O2747 C2731 1.268 . S
O2748 Ho2721 2.378 . S
O2748 C2732 1.215 . S
O2749 Ho2721 2.524 . S
O2749 C2732 1.289 . S
O2750 Ho2721 2.381 . S
O2750 C2739 1.275 . S
O2751 Ho2720 2.305 . S
O2751 Ho2721 2.669 . S
O2751 C2739 1.256 . S
H2752 C2725 0.930 . S
H2753 C2726 0.931 . S
H2754 C2728 0.934 . S
H2755 C2729 0.930 . S
H2756 C2734 0.930 . S
H2757 C2735 0.931 . S
H2758 C2737 0.934 . S
H2759 C2738 0.930 . S
Ho2760 C2763 2.811 . S
Ho2760 O2780 2.322 . S
Ho2760 O2782 2.378 . S
Ho2760 O2783 2.524 . S
Ho2760 O2784 2.357 1_554 S
Ho2760 O2785 2.669 1_554 S
Ho2760 O2787 2.346 1_554 S
Ho2760 O2791 2.305 . S
Ho2761 C2772 2.811 . S
Ho2761 O2781 2.346 1_556 S
Ho2761 O2785 2.305 . S
Ho2761 O2786 2.322 . S
Ho2761 O2788 2.378 . S
Ho2761 O2789 2.524 . S
Ho2761 O2790 2.348 1_556 S
Ho2761 O2791 2.669 1_556 S
C2762 O2780 1.259 . S
C2762 O2781 1.268 . S
C2763 Ho2760 2.811 . S
C2763 C2764 1.488 . S
C2763 O2782 1.215 . S
C2763 O2783 1.289 . S
C2764 C2763 1.488 . S
C2764 C2765 1.348 . S
C2764 C2769 1.413 . S
C2765 C2764 1.348 . S
C2765 C2766 1.442 . S
C2765 H2792 0.930 . S
C2766 C2765 1.442 . S
C2766 C2767 1.381 . S
C2766 H2793 0.931 . S
C2767 C2766 1.381 . S
C2767 C2768 1.321 . S
C2768 C2767 1.321 . S
C2768 C2769 1.403 . S
C2768 H2794 0.934 . S
C2769 C2764 1.413 . S
C2769 C2768 1.403 . S
C2769 H2795 0.930 . S
C2770 O2784 1.307 . S
C2770 O2785 1.256 . S
C2771 O2786 1.259 . S
C2771 O2787 1.268 . S
C2772 Ho2761 2.811 . S
C2772 C2773 1.488 . S
C2772 O2788 1.215 . S
C2772 O2789 1.289 . S
C2773 C2772 1.488 . S
C2773 C2774 1.348 . S
C2773 C2778 1.413 . S
C2774 C2773 1.348 . S
C2774 C2775 1.442 . S
C2774 H2796 0.930 . S
C2775 C2774 1.442 . S
C2775 C2776 1.381 . S
C2775 H2797 0.931 . S
C2776 C2775 1.381 . S
C2776 C2777 1.321 . S
C2777 C2776 1.321 . S
C2777 C2778 1.403 . S
C2777 H2798 0.934 . S
C2778 C2773 1.413 . S
C2778 C2777 1.403 . S
C2778 H2799 0.930 . S
C2779 O2790 1.318 . S
C2779 O2791 1.256 . S
O2780 Ho2760 2.322 . S
O2780 C2762 1.259 . S
O2781 Ho2761 2.346 1_554 S
O2781 C2762 1.268 . S
O2782 Ho2760 2.378 . S
O2782 C2763 1.215 . S
O2783 Ho2760 2.524 . S
O2783 C2763 1.289 . S
O2784 Ho2760 2.357 1_556 S
O2784 C2770 1.307 . S
O2785 Ho2760 2.669 1_556 S
O2785 Ho2761 2.305 . S
O2785 C2770 1.256 . S
O2786 Ho2761 2.322 . S
O2786 C2771 1.259 . S
O2787 Ho2760 2.346 1_556 S
O2787 C2771 1.268 . S
O2788 Ho2761 2.378 . S
O2788 C2772 1.215 . S
O2789 Ho2761 2.524 . S
O2789 C2772 1.289 . S
O2790 Ho2761 2.348 1_554 S
O2790 C2779 1.318 . S
O2791 Ho2760 2.305 . S
O2791 Ho2761 2.669 1_554 S
O2791 C2779 1.256 . S
H2792 C2765 0.930 . S
H2793 C2766 0.931 . S
H2794 C2768 0.934 . S
H2795 C2769 0.930 . S
H2796 C2774 0.930 . S
H2797 C2775 0.931 . S
H2798 C2777 0.934 . S
H2799 C2778 0.930 . S
Ho2800 C2803 2.811 . S
Ho2800 O2820 2.322 . S
Ho2800 O2822 2.378 . S
Ho2800 O2823 2.524 . S
Ho2800 O2824 2.381 . S
Ho2800 O2825 2.669 . S
Ho2800 O2827 2.346 . S
Ho2800 O2831 2.305 . S
Ho2801 C2812 2.811 . S
Ho2801 O2821 2.346 . S
Ho2801 O2825 2.305 . S
Ho2801 O2826 2.322 . S
Ho2801 O2828 2.378 . S
Ho2801 O2829 2.524 . S
Ho2801 O2830 2.381 . S
Ho2801 O2831 2.669 . S
C2802 O2820 1.259 . S
C2802 O2821 1.268 . S
C2803 Ho2800 2.811 . S
C2803 C2804 1.488 . S
C2803 O2822 1.215 . S
C2803 O2823 1.289 . S
C2804 C2803 1.488 . S
C2804 C2805 1.348 . S
C2804 C2809 1.413 . S
C2805 C2804 1.348 . S
C2805 C2806 1.442 . S
C2805 H2832 0.930 . S
C2806 C2805 1.442 . S
C2806 C2807 1.381 . S
C2806 H2833 0.931 . S
C2807 C2806 1.381 . S
C2807 C2808 1.321 . S
C2808 C2807 1.321 . S
C2808 C2809 1.403 . S
C2808 H2834 0.934 . S
C2809 C2804 1.413 . S
C2809 C2808 1.403 . S
C2809 H2835 0.930 . S
C2810 O2824 1.275 . S
C2810 O2825 1.256 . S
C2811 O2826 1.259 . S
C2811 O2827 1.268 . S
C2812 Ho2801 2.811 . S
C2812 C2813 1.488 . S
C2812 O2828 1.215 . S
C2812 O2829 1.289 . S
C2813 C2812 1.488 . S
C2813 C2814 1.348 . S
C2813 C2818 1.413 . S
C2814 C2813 1.348 . S
C2814 C2815 1.442 . S
C2814 H2836 0.930 . S
C2815 C2814 1.442 . S
C2815 C2816 1.381 . S
C2815 H2837 0.931 . S
C2816 C2815 1.381 . S
C2816 C2817 1.321 . S
C2817 C2816 1.321 . S
C2817 C2818 1.403 . S
C2817 H2838 0.934 . S
C2818 C2813 1.413 . S
C2818 C2817 1.403 . S
C2818 H2839 0.930 . S
C2819 O2830 1.275 . S
C2819 O2831 1.256 . S
O2820 Ho2800 2.322 . S
O2820 C2802 1.259 . S
O2821 Ho2801 2.346 . S
O2821 C2802 1.268 . S
O2822 Ho2800 2.378 . S
O2822 C2803 1.215 . S
O2823 Ho2800 2.524 . S
O2823 C2803 1.289 . S
O2824 Ho2800 2.381 . S
O2824 C2810 1.275 . S
O2825 Ho2800 2.669 . S
O2825 Ho2801 2.305 . S
O2825 C2810 1.256 . S
O2826 Ho2801 2.322 . S
O2826 C2811 1.259 . S
O2827 Ho2800 2.346 . S
O2827 C2811 1.268 . S
O2828 Ho2801 2.378 . S
O2828 C2812 1.215 . S
O2829 Ho2801 2.524 . S
O2829 C2812 1.289 . S
O2830 Ho2801 2.381 . S
O2830 C2819 1.275 . S
O2831 Ho2800 2.305 . S
O2831 Ho2801 2.669 . S
O2831 C2819 1.256 . S
H2832 C2805 0.930 . S
H2833 C2806 0.931 . S
H2834 C2808 0.934 . S
H2835 C2809 0.930 . S
H2836 C2814 0.930 . S
H2837 C2815 0.931 . S
H2838 C2817 0.934 . S
H2839 C2818 0.930 . S
Ho2840 C2843 2.811 . S
Ho2840 O2860 2.322 . S
Ho2840 O2862 2.378 . S
Ho2840 O2863 2.524 . S
Ho2840 O2864 2.381 . S
Ho2840 O2865 2.669 . S
Ho2840 O2867 2.346 . S
Ho2840 O2871 2.305 . S
Ho2841 C2852 2.811 . S
Ho2841 O2861 2.346 . S
Ho2841 O2865 2.305 . S
Ho2841 O2866 2.322 . S
Ho2841 O2868 2.378 . S
Ho2841 O2869 2.524 . S
Ho2841 O2870 2.381 . S
Ho2841 O2871 2.669 . S
C2842 O2860 1.259 . S
C2842 O2861 1.268 . S
C2843 Ho2840 2.811 . S
C2843 C2844 1.488 . S
C2843 O2862 1.215 . S
C2843 O2863 1.289 . S
C2844 C2843 1.488 . S
C2844 C2845 1.348 . S
C2844 C2849 1.413 . S
C2845 C2844 1.348 . S
C2845 C2846 1.442 . S
C2845 H2872 0.930 . S
C2846 C2845 1.442 . S
C2846 C2847 1.381 . S
C2846 H2873 0.931 . S
C2847 C2846 1.381 . S
C2847 C2848 1.321 . S
C2848 C2847 1.321 . S
C2848 C2849 1.403 . S
C2848 H2874 0.934 . S
C2849 C2844 1.413 . S
C2849 C2848 1.403 . S
C2849 H2875 0.930 . S
C2850 O2864 1.275 . S
C2850 O2865 1.256 . S
C2851 O2866 1.259 . S
C2851 O2867 1.268 . S
C2852 Ho2841 2.811 . S
C2852 C2853 1.488 . S
C2852 O2868 1.215 . S
C2852 O2869 1.289 . S
C2853 C2852 1.488 . S
C2853 C2854 1.348 . S
C2853 C2858 1.413 . S
C2854 C2853 1.348 . S
C2854 C2855 1.442 . S
C2854 H2876 0.930 . S
C2855 C2854 1.442 . S
C2855 C2856 1.381 . S
C2855 H2877 0.931 . S
C2856 C2855 1.381 . S
C2856 C2857 1.321 . S
C2857 C2856 1.321 . S
C2857 C2858 1.403 . S
C2857 H2878 0.934 . S
C2858 C2853 1.413 . S
C2858 C2857 1.403 . S
C2858 H2879 0.930 . S
C2859 O2870 1.275 . S
C2859 O2871 1.256 . S
O2860 Ho2840 2.322 . S
O2860 C2842 1.259 . S
O2861 Ho2841 2.346 . S
O2861 C2842 1.268 . S
O2862 Ho2840 2.378 . S
O2862 C2843 1.215 . S
O2863 Ho2840 2.524 . S
O2863 C2843 1.289 . S
O2864 Ho2840 2.381 . S
O2864 C2850 1.275 . S
O2865 Ho2840 2.669 . S
O2865 Ho2841 2.305 . S
O2865 C2850 1.256 . S
O2866 Ho2841 2.322 . S
O2866 C2851 1.259 . S
O2867 Ho2840 2.346 . S
O2867 C2851 1.268 . S
O2868 Ho2841 2.378 . S
O2868 C2852 1.215 . S
O2869 Ho2841 2.524 . S
O2869 C2852 1.289 . S
O2870 Ho2841 2.381 . S
O2870 C2859 1.275 . S
O2871 Ho2840 2.305 . S
O2871 Ho2841 2.669 . S
O2871 C2859 1.256 . S
H2872 C2845 0.930 . S
H2873 C2846 0.931 . S
H2874 C2848 0.934 . S
H2875 C2849 0.930 . S
H2876 C2854 0.930 . S
H2877 C2855 0.931 . S
H2878 C2857 0.934 . S
H2879 C2858 0.930 . S
Ho2880 C2883 2.811 . S
Ho2880 O2900 2.322 . S
Ho2880 O2902 2.378 . S
Ho2880 O2903 2.524 . S
Ho2880 O2904 2.381 . S
Ho2880 O2905 2.669 . S
Ho2880 O2907 2.346 . S
Ho2880 O2911 2.305 . S
Ho2881 C2892 2.811 . S
Ho2881 O2901 2.346 . S
Ho2881 O2905 2.305 . S
Ho2881 O2906 2.322 . S
Ho2881 O2908 2.378 . S
Ho2881 O2909 2.524 . S
Ho2881 O2910 2.381 . S
Ho2881 O2911 2.669 . S
C2882 O2900 1.259 . S
C2882 O2901 1.268 . S
C2883 Ho2880 2.811 . S
C2883 C2884 1.488 . S
C2883 O2902 1.215 . S
C2883 O2903 1.289 . S
C2884 C2883 1.488 . S
C2884 C2885 1.348 . S
C2884 C2889 1.413 . S
C2885 C2884 1.348 . S
C2885 C2886 1.442 . S
C2885 H2912 0.930 . S
C2886 C2885 1.442 . S
C2886 C2887 1.381 . S
C2886 H2913 0.931 . S
C2887 C2886 1.381 . S
C2887 C2888 1.321 . S
C2888 C2887 1.321 . S
C2888 C2889 1.403 . S
C2888 H2914 0.934 . S
C2889 C2884 1.413 . S
C2889 C2888 1.403 . S
C2889 H2915 0.930 . S
C2890 O2904 1.275 . S
C2890 O2905 1.256 . S
C2891 O2906 1.259 . S
C2891 O2907 1.268 . S
C2892 Ho2881 2.811 . S
C2892 C2893 1.488 . S
C2892 O2908 1.215 . S
C2892 O2909 1.289 . S
C2893 C2892 1.488 . S
C2893 C2894 1.348 . S
C2893 C2898 1.413 . S
C2894 C2893 1.348 . S
C2894 C2895 1.442 . S
C2894 H2916 0.930 . S
C2895 C2894 1.442 . S
C2895 C2896 1.381 . S
C2895 H2917 0.931 . S
C2896 C2895 1.381 . S
C2896 C2897 1.321 . S
C2897 C2896 1.321 . S
C2897 C2898 1.403 . S
C2897 H2918 0.934 . S
C2898 C2893 1.413 . S
C2898 C2897 1.403 . S
C2898 H2919 0.930 . S
C2899 O2910 1.275 . S
C2899 O2911 1.256 . S
O2900 Ho2880 2.322 . S
O2900 C2882 1.259 . S
O2901 Ho2881 2.346 . S
O2901 C2882 1.268 . S
O2902 Ho2880 2.378 . S
O2902 C2883 1.215 . S
O2903 Ho2880 2.524 . S
O2903 C2883 1.289 . S
O2904 Ho2880 2.381 . S
O2904 C2890 1.275 . S
O2905 Ho2880 2.669 . S
O2905 Ho2881 2.305 . S
O2905 C2890 1.256 . S
O2906 Ho2881 2.322 . S
O2906 C2891 1.259 . S
O2907 Ho2880 2.346 . S
O2907 C2891 1.268 . S
O2908 Ho2881 2.378 . S
O2908 C2892 1.215 . S
O2909 Ho2881 2.524 . S
O2909 C2892 1.289 . S
O2910 Ho2881 2.381 . S
O2910 C2899 1.275 . S
O2911 Ho2880 2.305 . S
O2911 Ho2881 2.669 . S
O2911 C2899 1.256 . S
H2912 C2885 0.930 . S
H2913 C2886 0.931 . S
H2914 C2888 0.934 . S
H2915 C2889 0.930 . S
H2916 C2894 0.930 . S
H2917 C2895 0.931 . S
H2918 C2897 0.934 . S
H2919 C2898 0.930 . S
Ho2920 C2923 2.811 . S
Ho2920 O2940 2.322 . S
Ho2920 O2942 2.378 . S
Ho2920 O2943 2.524 . S
Ho2920 O2944 2.381 . S
Ho2920 O2945 2.669 . S
Ho2920 O2947 2.346 . S
Ho2920 O2951 2.305 . S
Ho2921 C2932 2.811 . S
Ho2921 O2941 2.346 . S
Ho2921 O2945 2.305 . S
Ho2921 O2946 2.322 . S
Ho2921 O2948 2.378 . S
Ho2921 O2949 2.524 . S
Ho2921 O2950 2.381 . S
Ho2921 O2951 2.669 . S
C2922 O2940 1.259 . S
C2922 O2941 1.268 . S
C2923 Ho2920 2.811 . S
C2923 C2924 1.488 . S
C2923 O2942 1.215 . S
C2923 O2943 1.289 . S
C2924 C2923 1.488 . S
C2924 C2925 1.348 . S
C2924 C2929 1.413 . S
C2925 C2924 1.348 . S
C2925 C2926 1.442 . S
C2925 H2952 0.930 . S
C2926 C2925 1.442 . S
C2926 C2927 1.381 . S
C2926 H2953 0.931 . S
C2927 C2926 1.381 . S
C2927 C2928 1.321 . S
C2928 C2927 1.321 . S
C2928 C2929 1.403 . S
C2928 H2954 0.934 . S
C2929 C2924 1.413 . S
C2929 C2928 1.403 . S
C2929 H2955 0.930 . S
C2930 O2944 1.275 . S
C2930 O2945 1.256 . S
C2931 O2946 1.259 . S
C2931 O2947 1.268 . S
C2932 Ho2921 2.811 . S
C2932 C2933 1.488 . S
C2932 O2948 1.215 . S
C2932 O2949 1.289 . S
C2933 C2932 1.488 . S
C2933 C2934 1.348 . S
C2933 C2938 1.413 . S
C2934 C2933 1.348 . S
C2934 C2935 1.442 . S
C2934 H2956 0.930 . S
C2935 C2934 1.442 . S
C2935 C2936 1.381 . S
C2935 H2957 0.931 . S
C2936 C2935 1.381 . S
C2936 C2937 1.321 . S
C2937 C2936 1.321 . S
C2937 C2938 1.403 . S
C2937 H2958 0.934 . S
C2938 C2933 1.413 . S
C2938 C2937 1.403 . S
C2938 H2959 0.930 . S
C2939 O2950 1.275 . S
C2939 O2951 1.256 . S
O2940 Ho2920 2.322 . S
O2940 C2922 1.259 . S
O2941 Ho2921 2.346 . S
O2941 C2922 1.268 . S
O2942 Ho2920 2.378 . S
O2942 C2923 1.215 . S
O2943 Ho2920 2.524 . S
O2943 C2923 1.289 . S
O2944 Ho2920 2.381 . S
O2944 C2930 1.275 . S
O2945 Ho2920 2.669 . S
O2945 Ho2921 2.305 . S
O2945 C2930 1.256 . S
O2946 Ho2921 2.322 . S
O2946 C2931 1.259 . S
O2947 Ho2920 2.346 . S
O2947 C2931 1.268 . S
O2948 Ho2921 2.378 . S
O2948 C2932 1.215 . S
O2949 Ho2921 2.524 . S
O2949 C2932 1.289 . S
O2950 Ho2921 2.381 . S
O2950 C2939 1.275 . S
O2951 Ho2920 2.305 . S
O2951 Ho2921 2.669 . S
O2951 C2939 1.256 . S
H2952 C2925 0.930 . S
H2953 C2926 0.931 . S
H2954 C2928 0.934 . S
H2955 C2929 0.930 . S
H2956 C2934 0.930 . S
H2957 C2935 0.931 . S
H2958 C2937 0.934 . S
H2959 C2938 0.930 . S
Ho2960 C2963 2.811 . S
Ho2960 O2980 2.322 . S
Ho2960 O2982 2.378 . S
Ho2960 O2983 2.524 . S
Ho2960 O2984 2.381 1_455 S
Ho2960 O2985 2.669 1_455 S
Ho2960 O2987 2.346 1_455 S
Ho2960 O2991 2.305 . S
Ho2961 C2972 2.811 . S
Ho2961 O2981 2.346 1_655 S
Ho2961 O2985 2.305 . S
Ho2961 O2986 2.322 . S
Ho2961 O2988 2.378 . S
Ho2961 O2989 2.524 . S
Ho2961 O2990 2.381 1_655 S
Ho2961 O2991 2.669 1_655 S
C2962 O2980 1.259 . S
C2962 O2981 1.268 . S
C2963 Ho2960 2.811 . S
C2963 C2964 1.488 . S
C2963 O2982 1.215 . S
C2963 O2983 1.289 . S
C2964 C2963 1.488 . S
C2964 C2965 1.348 . S
C2964 C2969 1.413 . S
C2965 C2964 1.348 . S
C2965 C2966 1.442 . S
C2965 H2992 0.930 . S
C2966 C2965 1.442 . S
C2966 C2967 1.381 . S
C2966 H2993 0.931 . S
C2967 C2966 1.381 . S
C2967 C2968 1.321 . S
C2968 C2967 1.321 . S
C2968 C2969 1.403 . S
C2968 H2994 0.934 . S
C2969 C2964 1.413 . S
C2969 C2968 1.403 . S
C2969 H2995 0.930 . S
C2970 O2984 1.275 . S
C2970 O2985 1.256 . S
C2971 O2986 1.259 . S
C2971 O2987 1.268 . S
C2972 Ho2961 2.811 . S
C2972 C2973 1.488 . S
C2972 O2988 1.215 . S
C2972 O2989 1.289 . S
C2973 C2972 1.488 . S
C2973 C2974 1.348 . S
C2973 C2978 1.413 . S
C2974 C2973 1.348 . S
C2974 C2975 1.442 . S
C2974 H2996 0.930 . S
C2975 C2974 1.442 . S
C2975 C2976 1.381 . S
C2975 H2997 0.931 . S
C2976 C2975 1.381 . S
C2976 C2977 1.321 . S
C2977 C2976 1.321 . S
C2977 C2978 1.403 . S
C2977 H2998 0.934 . S
C2978 C2973 1.413 . S
C2978 C2977 1.403 . S
C2978 H2999 0.930 . S
C2979 O2990 1.275 . S
C2979 O2991 1.256 . S
O2980 Ho2960 2.322 . S
O2980 C2962 1.259 . S
O2981 Ho2961 2.346 1_455 S
O2981 C2962 1.268 . S
O2982 Ho2960 2.378 . S
O2982 C2963 1.215 . S
O2983 Ho2960 2.524 . S
O2983 C2963 1.289 . S
O2984 Ho2960 2.381 1_655 S
O2984 C2970 1.275 . S
O2985 Ho2960 2.669 1_655 S
O2985 Ho2961 2.305 . S
O2985 C2970 1.256 . S
O2986 Ho2961 2.322 . S
O2986 C2971 1.259 . S
O2987 Ho2960 2.346 1_655 S
O2987 C2971 1.268 . S
O2988 Ho2961 2.378 . S
O2988 C2972 1.215 . S
O2989 Ho2961 2.524 . S
O2989 C2972 1.289 . S
O2990 Ho2961 2.381 1_455 S
O2990 C2979 1.275 . S
O2991 Ho2960 2.305 . S
O2991 Ho2961 2.669 1_455 S
O2991 C2979 1.256 . S
H2992 C2965 0.930 . S
H2993 C2966 0.931 . S
H2994 C2968 0.934 . S
H2995 C2969 0.930 . S
H2996 C2974 0.930 . S
H2997 C2975 0.931 . S
H2998 C2977 0.934 . S
H2999 C2978 0.930 . S
Ho3000 C3003 2.811 . S
Ho3000 O3020 2.322 . S
Ho3000 O3022 2.378 . S
Ho3000 O3023 2.524 . S
Ho3000 O3024 2.381 . S
Ho3000 O3025 2.669 . S
Ho3000 O3027 2.346 . S
Ho3000 O3031 2.305 . S
Ho3001 C3012 2.811 . S
Ho3001 O3021 2.346 . S
Ho3001 O3025 2.305 . S
Ho3001 O3026 2.322 . S
Ho3001 O3028 2.378 . S
Ho3001 O3029 2.524 . S
Ho3001 O3030 2.381 . S
Ho3001 O3031 2.669 . S
C3002 O3020 1.259 . S
C3002 O3021 1.268 . S
C3003 Ho3000 2.811 . S
C3003 C3004 1.488 . S
C3003 O3022 1.215 . S
C3003 O3023 1.289 . S
C3004 C3003 1.488 . S
C3004 C3005 1.348 . S
C3004 C3009 1.413 . S
C3005 C3004 1.348 . S
C3005 C3006 1.442 . S
C3005 H3032 0.930 . S
C3006 C3005 1.442 . S
C3006 C3007 1.381 . S
C3006 H3033 0.931 . S
C3007 C3006 1.381 . S
C3007 C3008 1.321 . S
C3008 C3007 1.321 . S
C3008 C3009 1.403 . S
C3008 H3034 0.934 . S
C3009 C3004 1.413 . S
C3009 C3008 1.403 . S
C3009 H3035 0.930 . S
C3010 O3024 1.275 . S
C3010 O3025 1.256 . S
C3011 O3026 1.259 . S
C3011 O3027 1.268 . S
C3012 Ho3001 2.811 . S
C3012 C3013 1.488 . S
C3012 O3028 1.215 . S
C3012 O3029 1.289 . S
C3013 C3012 1.488 . S
C3013 C3014 1.348 . S
C3013 C3018 1.413 . S
C3014 C3013 1.348 . S
C3014 C3015 1.442 . S
C3014 H3036 0.930 . S
C3015 C3014 1.442 . S
C3015 C3016 1.381 . S
C3015 H3037 0.931 . S
C3016 C3015 1.381 . S
C3016 C3017 1.321 . S
C3017 C3016 1.321 . S
C3017 C3018 1.403 . S
C3017 H3038 0.934 . S
C3018 C3013 1.413 . S
C3018 C3017 1.403 . S
C3018 H3039 0.930 . S
C3019 O3030 1.275 . S
C3019 O3031 1.256 . S
O3020 Ho3000 2.322 . S
O3020 C3002 1.259 . S
O3021 Ho3001 2.346 . S
O3021 C3002 1.268 . S
O3022 Ho3000 2.378 . S
O3022 C3003 1.215 . S
O3023 Ho3000 2.524 . S
O3023 C3003 1.289 . S
O3024 Ho3000 2.381 . S
O3024 C3010 1.275 . S
O3025 Ho3000 2.669 . S
O3025 Ho3001 2.305 . S
O3025 C3010 1.256 . S
O3026 Ho3001 2.322 . S
O3026 C3011 1.259 . S
O3027 Ho3000 2.346 . S
O3027 C3011 1.268 . S
O3028 Ho3001 2.378 . S
O3028 C3012 1.215 . S
O3029 Ho3001 2.524 . S
O3029 C3012 1.289 . S
O3030 Ho3001 2.381 . S
O3030 C3019 1.275 . S
O3031 Ho3000 2.305 . S
O3031 Ho3001 2.669 . S
O3031 C3019 1.256 . S
H3032 C3005 0.930 . S
H3033 C3006 0.931 . S
H3034 C3008 0.934 . S
H3035 C3009 0.930 . S
H3036 C3014 0.930 . S
H3037 C3015 0.931 . S
H3038 C3017 0.934 . S
H3039 C3018 0.930 . S
Ho3040 C3043 2.811 . S
Ho3040 O3060 2.322 . S
Ho3040 O3062 2.378 . S
Ho3040 O3063 2.524 . S
Ho3040 O3064 2.381 . S
Ho3040 O3065 2.669 . S
Ho3040 O3067 2.346 . S
Ho3040 O3071 2.305 . S
Ho3041 C3052 2.811 . S
Ho3041 O3061 2.346 . S
Ho3041 O3065 2.305 . S
Ho3041 O3066 2.322 . S
Ho3041 O3068 2.378 . S
Ho3041 O3069 2.524 . S
Ho3041 O3070 2.381 . S
Ho3041 O3071 2.669 . S
C3042 O3060 1.259 . S
C3042 O3061 1.268 . S
C3043 Ho3040 2.811 . S
C3043 C3044 1.488 . S
C3043 O3062 1.215 . S
C3043 O3063 1.289 . S
C3044 C3043 1.488 . S
C3044 C3045 1.348 . S
C3044 C3049 1.413 . S
C3045 C3044 1.348 . S
C3045 C3046 1.442 . S
C3045 H3072 0.930 . S
C3046 C3045 1.442 . S
C3046 C3047 1.381 . S
C3046 H3073 0.931 . S
C3047 C3046 1.381 . S
C3047 C3048 1.321 . S
C3048 C3047 1.321 . S
C3048 C3049 1.403 . S
C3048 H3074 0.934 . S
C3049 C3044 1.413 . S
C3049 C3048 1.403 . S
C3049 H3075 0.930 . S
C3050 O3064 1.275 . S
C3050 O3065 1.256 . S
C3051 O3066 1.259 . S
C3051 O3067 1.268 . S
C3052 Ho3041 2.811 . S
C3052 C3053 1.488 . S
C3052 O3068 1.215 . S
C3052 O3069 1.289 . S
C3053 C3052 1.488 . S
C3053 C3054 1.348 . S
C3053 C3058 1.413 . S
C3054 C3053 1.348 . S
C3054 C3055 1.442 . S
C3054 H3076 0.930 . S
C3055 C3054 1.442 . S
C3055 C3056 1.381 . S
C3055 H3077 0.931 . S
C3056 C3055 1.381 . S
C3056 C3057 1.321 . S
C3057 C3056 1.321 . S
C3057 C3058 1.403 . S
C3057 H3078 0.934 . S
C3058 C3053 1.413 . S
C3058 C3057 1.403 . S
C3058 H3079 0.930 . S
C3059 O3070 1.275 . S
C3059 O3071 1.256 . S
O3060 Ho3040 2.322 . S
O3060 C3042 1.259 . S
O3061 Ho3041 2.346 . S
O3061 C3042 1.268 . S
O3062 Ho3040 2.378 . S
O3062 C3043 1.215 . S
O3063 Ho3040 2.524 . S
O3063 C3043 1.289 . S
O3064 Ho3040 2.381 . S
O3064 C3050 1.275 . S
O3065 Ho3040 2.669 . S
O3065 Ho3041 2.305 . S
O3065 C3050 1.256 . S
O3066 Ho3041 2.322 . S
O3066 C3051 1.259 . S
O3067 Ho3040 2.346 . S
O3067 C3051 1.268 . S
O3068 Ho3041 2.378 . S
O3068 C3052 1.215 . S
O3069 Ho3041 2.524 . S
O3069 C3052 1.289 . S
O3070 Ho3041 2.381 . S
O3070 C3059 1.275 . S
O3071 Ho3040 2.305 . S
O3071 Ho3041 2.669 . S
O3071 C3059 1.256 . S
H3072 C3045 0.930 . S
H3073 C3046 0.931 . S
H3074 C3048 0.934 . S
H3075 C3049 0.930 . S
H3076 C3054 0.930 . S
H3077 C3055 0.931 . S
H3078 C3057 0.934 . S
H3079 C3058 0.930 . S
Ho3080 C3083 2.811 . S
Ho3080 O3100 2.322 . S
Ho3080 O3102 2.378 . S
Ho3080 O3103 2.524 . S
Ho3080 O3104 2.381 . S
Ho3080 O3105 2.669 . S
Ho3080 O3107 2.346 . S
Ho3080 O3111 2.305 . S
Ho3081 C3092 2.811 . S
Ho3081 O3101 2.346 . S
Ho3081 O3105 2.305 . S
Ho3081 O3106 2.322 . S
Ho3081 O3108 2.378 . S
Ho3081 O3109 2.524 . S
Ho3081 O3110 2.381 . S
Ho3081 O3111 2.669 . S
C3082 O3100 1.259 . S
C3082 O3101 1.268 . S
C3083 Ho3080 2.811 . S
C3083 C3084 1.488 . S
C3083 O3102 1.215 . S
C3083 O3103 1.289 . S
C3084 C3083 1.488 . S
C3084 C3085 1.348 . S
C3084 C3089 1.413 . S
C3085 C3084 1.348 . S
C3085 C3086 1.442 . S
C3085 H3112 0.930 . S
C3086 C3085 1.442 . S
C3086 C3087 1.381 . S
C3086 H3113 0.931 . S
C3087 C3086 1.381 . S
C3087 C3088 1.321 . S
C3088 C3087 1.321 . S
C3088 C3089 1.403 . S
C3088 H3114 0.934 . S
C3089 C3084 1.413 . S
C3089 C3088 1.403 . S
C3089 H3115 0.930 . S
C3090 O3104 1.275 . S
C3090 O3105 1.256 . S
C3091 O3106 1.259 . S
C3091 O3107 1.268 . S
C3092 Ho3081 2.811 . S
C3092 C3093 1.488 . S
C3092 O3108 1.215 . S
C3092 O3109 1.289 . S
C3093 C3092 1.488 . S
C3093 C3094 1.348 . S
C3093 C3098 1.413 . S
C3094 C3093 1.348 . S
C3094 C3095 1.442 . S
C3094 H3116 0.930 . S
C3095 C3094 1.442 . S
C3095 C3096 1.381 . S
C3095 H3117 0.931 . S
C3096 C3095 1.381 . S
C3096 C3097 1.321 . S
C3097 C3096 1.321 . S
C3097 C3098 1.403 . S
C3097 H3118 0.934 . S
C3098 C3093 1.413 . S
C3098 C3097 1.403 . S
C3098 H3119 0.930 . S
C3099 O3110 1.275 . S
C3099 O3111 1.256 . S
O3100 Ho3080 2.322 . S
O3100 C3082 1.259 . S
O3101 Ho3081 2.346 . S
O3101 C3082 1.268 . S
O3102 Ho3080 2.378 . S
O3102 C3083 1.215 . S
O3103 Ho3080 2.524 . S
O3103 C3083 1.289 . S
O3104 Ho3080 2.381 . S
O3104 C3090 1.275 . S
O3105 Ho3080 2.669 . S
O3105 Ho3081 2.305 . S
O3105 C3090 1.256 . S
O3106 Ho3081 2.322 . S
O3106 C3091 1.259 . S
O3107 Ho3080 2.346 . S
O3107 C3091 1.268 . S
O3108 Ho3081 2.378 . S
O3108 C3092 1.215 . S
O3109 Ho3081 2.524 . S
O3109 C3092 1.289 . S
O3110 Ho3081 2.381 . S
O3110 C3099 1.275 . S
O3111 Ho3080 2.305 . S
O3111 Ho3081 2.669 . S
O3111 C3099 1.256 . S
H3112 C3085 0.930 . S
H3113 C3086 0.931 . S
H3114 C3088 0.934 . S
H3115 C3089 0.930 . S
H3116 C3094 0.930 . S
H3117 C3095 0.931 . S
H3118 C3097 0.934 . S
H3119 C3098 0.930 . S
Ho3120 C3123 2.811 . S
Ho3120 O3140 2.322 . S
Ho3120 O3142 2.378 . S
Ho3120 O3143 2.524 . S
Ho3120 O3144 2.381 1_455 S
Ho3120 O3145 2.669 1_455 S
Ho3120 O3147 2.346 1_455 S
Ho3120 O3151 2.305 . S
Ho3121 C3132 2.811 . S
Ho3121 O3141 2.346 1_655 S
Ho3121 O3145 2.305 . S
Ho3121 O3146 2.322 . S
Ho3121 O3148 2.378 . S
Ho3121 O3149 2.524 . S
Ho3121 O3150 2.381 1_655 S
Ho3121 O3151 2.669 1_655 S
C3122 O3140 1.259 . S
C3122 O3141 1.268 . S
C3123 Ho3120 2.811 . S
C3123 C3124 1.488 . S
C3123 O3142 1.215 . S
C3123 O3143 1.289 . S
C3124 C3123 1.488 . S
C3124 C3125 1.348 . S
C3124 C3129 1.413 . S
C3125 C3124 1.348 . S
C3125 C3126 1.442 . S
C3125 H3152 0.930 . S
C3126 C3125 1.442 . S
C3126 C3127 1.381 . S
C3126 H3153 0.931 . S
C3127 C3126 1.381 . S
C3127 C3128 1.321 . S
C3128 C3127 1.321 . S
C3128 C3129 1.403 . S
C3128 H3154 0.934 . S
C3129 C3124 1.413 . S
C3129 C3128 1.403 . S
C3129 H3155 0.930 . S
C3130 O3144 1.275 . S
C3130 O3145 1.256 . S
C3131 O3146 1.259 . S
C3131 O3147 1.268 . S
C3132 Ho3121 2.811 . S
C3132 C3133 1.488 . S
C3132 O3148 1.215 . S
C3132 O3149 1.289 . S
C3133 C3132 1.488 . S
C3133 C3134 1.348 . S
C3133 C3138 1.413 . S
C3134 C3133 1.348 . S
C3134 C3135 1.442 . S
C3134 H3156 0.930 . S
C3135 C3134 1.442 . S
C3135 C3136 1.381 . S
C3135 H3157 0.931 . S
C3136 C3135 1.381 . S
C3136 C3137 1.321 . S
C3137 C3136 1.321 . S
C3137 C3138 1.403 . S
C3137 H3158 0.934 . S
C3138 C3133 1.413 . S
C3138 C3137 1.403 . S
C3138 H3159 0.930 . S
C3139 O3150 1.275 . S
C3139 O3151 1.256 . S
O3140 Ho3120 2.322 . S
O3140 C3122 1.259 . S
O3141 Ho3121 2.346 1_455 S
O3141 C3122 1.268 . S
O3142 Ho3120 2.378 . S
O3142 C3123 1.215 . S
O3143 Ho3120 2.524 . S
O3143 C3123 1.289 . S
O3144 Ho3120 2.381 1_655 S
O3144 C3130 1.275 . S
O3145 Ho3120 2.669 1_655 S
O3145 Ho3121 2.305 . S
O3145 C3130 1.256 . S
O3146 Ho3121 2.322 . S
O3146 C3131 1.259 . S
O3147 Ho3120 2.346 1_655 S
O3147 C3131 1.268 . S
O3148 Ho3121 2.378 . S
O3148 C3132 1.215 . S
O3149 Ho3121 2.524 . S
O3149 C3132 1.289 . S
O3150 Ho3121 2.381 1_455 S
O3150 C3139 1.275 . S
O3151 Ho3120 2.305 . S
O3151 Ho3121 2.669 1_455 S
O3151 C3139 1.256 . S
H3152 C3125 0.930 . S
H3153 C3126 0.931 . S
H3154 C3128 0.934 . S
H3155 C3129 0.930 . S
H3156 C3134 0.930 . S
H3157 C3135 0.931 . S
H3158 C3137 0.934 . S
H3159 C3138 0.930 . S
Ho3160 C3163 2.811 . S
Ho3160 O3180 2.322 . S
Ho3160 O3182 2.378 . S
Ho3160 O3183 2.524 . S
Ho3160 O3184 2.381 . S
Ho3160 O3185 2.669 . S
Ho3160 O3187 2.346 . S
Ho3160 O3191 2.305 . S
Ho3161 C3172 2.811 . S
Ho3161 O3181 2.346 . S
Ho3161 O3185 2.305 . S
Ho3161 O3186 2.322 . S
Ho3161 O3188 2.378 . S
Ho3161 O3189 2.524 . S
Ho3161 O3190 2.381 . S
Ho3161 O3191 2.669 . S
C3162 O3180 1.259 . S
C3162 O3181 1.268 . S
C3163 Ho3160 2.811 . S
C3163 C3164 1.488 . S
C3163 O3182 1.215 . S
C3163 O3183 1.289 . S
C3164 C3163 1.488 . S
C3164 C3165 1.348 . S
C3164 C3169 1.413 . S
C3165 C3164 1.348 . S
C3165 C3166 1.442 . S
C3165 H3192 0.930 . S
C3166 C3165 1.442 . S
C3166 C3167 1.381 . S
C3166 H3193 0.931 . S
C3167 C3166 1.381 . S
C3167 C3168 1.321 . S
C3168 C3167 1.321 . S
C3168 C3169 1.403 . S
C3168 H3194 0.934 . S
C3169 C3164 1.413 . S
C3169 C3168 1.403 . S
C3169 H3195 0.930 . S
C3170 O3184 1.275 . S
C3170 O3185 1.256 . S
C3171 O3186 1.259 . S
C3171 O3187 1.268 . S
C3172 Ho3161 2.811 . S
C3172 C3173 1.488 . S
C3172 O3188 1.215 . S
C3172 O3189 1.289 . S
C3173 C3172 1.488 . S
C3173 C3174 1.348 . S
C3173 C3178 1.413 . S
C3174 C3173 1.348 . S
C3174 C3175 1.442 . S
C3174 H3196 0.930 . S
C3175 C3174 1.442 . S
C3175 C3176 1.381 . S
C3175 H3197 0.931 . S
C3176 C3175 1.381 . S
C3176 C3177 1.321 . S
C3177 C3176 1.321 . S
C3177 C3178 1.403 . S
C3177 H3198 0.934 . S
C3178 C3173 1.413 . S
C3178 C3177 1.403 . S
C3178 H3199 0.930 . S
C3179 O3190 1.275 . S
C3179 O3191 1.256 . S
O3180 Ho3160 2.322 . S
O3180 C3162 1.259 . S
O3181 Ho3161 2.346 . S
O3181 C3162 1.268 . S
O3182 Ho3160 2.378 . S
O3182 C3163 1.215 . S
O3183 Ho3160 2.524 . S
O3183 C3163 1.289 . S
O3184 Ho3160 2.381 . S
O3184 C3170 1.275 . S
O3185 Ho3160 2.669 . S
O3185 Ho3161 2.305 . S
O3185 C3170 1.256 . S
O3186 Ho3161 2.322 . S
O3186 C3171 1.259 . S
O3187 Ho3160 2.346 . S
O3187 C3171 1.268 . S
O3188 Ho3161 2.378 . S
O3188 C3172 1.215 . S
O3189 Ho3161 2.524 . S
O3189 C3172 1.289 . S
O3190 Ho3161 2.381 . S
O3190 C3179 1.275 . S
O3191 Ho3160 2.305 . S
O3191 Ho3161 2.669 . S
O3191 C3179 1.256 . S
H3192 C3165 0.930 . S
H3193 C3166 0.931 . S
H3194 C3168 0.934 . S
H3195 C3169 0.930 . S
H3196 C3174 0.930 . S
H3197 C3175 0.931 . S
H3198 C3177 0.934 . S
H3199 C3178 0.930 . S
Ho3200 C3203 2.811 . S
Ho3200 O3220 2.322 . S
Ho3200 O3222 2.378 . S
Ho3200 O3223 2.524 . S
Ho3200 O3224 2.381 . S
Ho3200 O3225 2.669 . S
Ho3200 O3227 2.346 . S
Ho3200 O3231 2.305 . S
Ho3201 C3212 2.811 . S
Ho3201 O3221 2.346 . S
Ho3201 O3225 2.305 . S
Ho3201 O3226 2.322 . S
Ho3201 O3228 2.378 . S
Ho3201 O3229 2.524 . S
Ho3201 O3230 2.381 . S
Ho3201 O3231 2.669 . S
C3202 O3220 1.259 . S
C3202 O3221 1.268 . S
C3203 Ho3200 2.811 . S
C3203 C3204 1.488 . S
C3203 O3222 1.215 . S
C3203 O3223 1.289 . S
C3204 C3203 1.488 . S
C3204 C3205 1.348 . S
C3204 C3209 1.413 . S
C3205 C3204 1.348 . S
C3205 C3206 1.442 . S
C3205 H3232 0.930 . S
C3206 C3205 1.442 . S
C3206 C3207 1.381 . S
C3206 H3233 0.931 . S
C3207 C3206 1.381 . S
C3207 C3208 1.321 . S
C3208 C3207 1.321 . S
C3208 C3209 1.403 . S
C3208 H3234 0.934 . S
C3209 C3204 1.413 . S
C3209 C3208 1.403 . S
C3209 H3235 0.930 . S
C3210 O3224 1.275 . S
C3210 O3225 1.256 . S
C3211 O3226 1.259 . S
C3211 O3227 1.268 . S
C3212 Ho3201 2.811 . S
C3212 C3213 1.488 . S
C3212 O3228 1.215 . S
C3212 O3229 1.289 . S
C3213 C3212 1.488 . S
C3213 C3214 1.348 . S
C3213 C3218 1.413 . S
C3214 C3213 1.348 . S
C3214 C3215 1.442 . S
C3214 H3236 0.930 . S
C3215 C3214 1.442 . S
C3215 C3216 1.381 . S
C3215 H3237 0.931 . S
C3216 C3215 1.381 . S
C3216 C3217 1.321 . S
C3217 C3216 1.321 . S
C3217 C3218 1.403 . S
C3217 H3238 0.934 . S
C3218 C3213 1.413 . S
C3218 C3217 1.403 . S
C3218 H3239 0.930 . S
C3219 O3230 1.275 . S
C3219 O3231 1.256 . S
O3220 Ho3200 2.322 . S
O3220 C3202 1.259 . S
O3221 Ho3201 2.346 . S
O3221 C3202 1.268 . S
O3222 Ho3200 2.378 . S
O3222 C3203 1.215 . S
O3223 Ho3200 2.524 . S
O3223 C3203 1.289 . S
O3224 Ho3200 2.381 . S
O3224 C3210 1.275 . S
O3225 Ho3200 2.669 . S
O3225 Ho3201 2.305 . S
O3225 C3210 1.256 . S
O3226 Ho3201 2.322 . S
O3226 C3211 1.259 . S
O3227 Ho3200 2.346 . S
O3227 C3211 1.268 . S
O3228 Ho3201 2.378 . S
O3228 C3212 1.215 . S
O3229 Ho3201 2.524 . S
O3229 C3212 1.289 . S
O3230 Ho3201 2.381 . S
O3230 C3219 1.275 . S
O3231 Ho3200 2.305 . S
O3231 Ho3201 2.669 . S
O3231 C3219 1.256 . S
H3232 C3205 0.930 . S
H3233 C3206 0.931 . S
H3234 C3208 0.934 . S
H3235 C3209 0.930 . S
H3236 C3214 0.930 . S
H3237 C3215 0.931 . S
H3238 C3217 0.934 . S
H3239 C3218 0.930 . S
Ho3240 C3243 2.811 . S
Ho3240 O3260 2.322 . S
Ho3240 O3262 2.378 . S
Ho3240 O3263 2.524 . S
Ho3240 O3264 2.381 . S
Ho3240 O3265 2.669 . S
Ho3240 O3267 2.346 . S
Ho3240 O3271 2.305 . S
Ho3241 C3252 2.811 . S
Ho3241 O3261 2.346 . S
Ho3241 O3265 2.305 . S
Ho3241 O3266 2.322 . S
Ho3241 O3268 2.378 . S
Ho3241 O3269 2.524 . S
Ho3241 O3270 2.381 . S
Ho3241 O3271 2.669 . S
C3242 O3260 1.259 . S
C3242 O3261 1.268 . S
C3243 Ho3240 2.811 . S
C3243 C3244 1.488 . S
C3243 O3262 1.215 . S
C3243 O3263 1.289 . S
C3244 C3243 1.488 . S
C3244 C3245 1.348 . S
C3244 C3249 1.413 . S
C3245 C3244 1.348 . S
C3245 C3246 1.442 . S
C3245 H3272 0.930 . S
C3246 C3245 1.442 . S
C3246 C3247 1.381 . S
C3246 H3273 0.931 . S
C3247 C3246 1.381 . S
C3247 C3248 1.321 . S
C3248 C3247 1.321 . S
C3248 C3249 1.403 . S
C3248 H3274 0.934 . S
C3249 C3244 1.413 . S
C3249 C3248 1.403 . S
C3249 H3275 0.930 . S
C3250 O3264 1.275 . S
C3250 O3265 1.256 . S
C3251 O3266 1.259 . S
C3251 O3267 1.268 . S
C3252 Ho3241 2.811 . S
C3252 C3253 1.488 . S
C3252 O3268 1.215 . S
C3252 O3269 1.289 . S
C3253 C3252 1.488 . S
C3253 C3254 1.348 . S
C3253 C3258 1.413 . S
C3254 C3253 1.348 . S
C3254 C3255 1.442 . S
C3254 H3276 0.930 . S
C3255 C3254 1.442 . S
C3255 C3256 1.381 . S
C3255 H3277 0.931 . S
C3256 C3255 1.381 . S
C3256 C3257 1.321 . S
C3257 C3256 1.321 . S
C3257 C3258 1.403 . S
C3257 H3278 0.934 . S
C3258 C3253 1.413 . S
C3258 C3257 1.403 . S
C3258 H3279 0.930 . S
C3259 O3270 1.275 . S
C3259 O3271 1.256 . S
O3260 Ho3240 2.322 . S
O3260 C3242 1.259 . S
O3261 Ho3241 2.346 . S
O3261 C3242 1.268 . S
O3262 Ho3240 2.378 . S
O3262 C3243 1.215 . S
O3263 Ho3240 2.524 . S
O3263 C3243 1.289 . S
O3264 Ho3240 2.381 . S
O3264 C3250 1.275 . S
O3265 Ho3240 2.669 . S
O3265 Ho3241 2.305 . S
O3265 C3250 1.256 . S
O3266 Ho3241 2.322 . S
O3266 C3251 1.259 . S
O3267 Ho3240 2.346 . S
O3267 C3251 1.268 . S
O3268 Ho3241 2.378 . S
O3268 C3252 1.215 . S
O3269 Ho3241 2.524 . S
O3269 C3252 1.289 . S
O3270 Ho3241 2.381 . S
O3270 C3259 1.275 . S
O3271 Ho3240 2.305 . S
O3271 Ho3241 2.669 . S
O3271 C3259 1.256 . S
H3272 C3245 0.930 . S
H3273 C3246 0.931 . S
H3274 C3248 0.934 . S
H3275 C3249 0.930 . S
H3276 C3254 0.930 . S
H3277 C3255 0.931 . S
H3278 C3257 0.934 . S
H3279 C3258 0.930 . S
Ho3280 C3283 2.811 . S
Ho3280 O3300 2.322 . S
Ho3280 O3302 2.378 . S
Ho3280 O3303 2.524 . S
Ho3280 O3304 2.381 . S
Ho3280 O3305 2.669 . S
Ho3280 O3307 2.346 . S
Ho3280 O3311 2.305 . S
Ho3281 C3292 2.811 . S
Ho3281 O3301 2.346 . S
Ho3281 O3305 2.305 . S
Ho3281 O3306 2.322 . S
Ho3281 O3308 2.378 . S
Ho3281 O3309 2.524 . S
Ho3281 O3310 2.381 . S
Ho3281 O3311 2.669 . S
C3282 O3300 1.259 . S
C3282 O3301 1.268 . S
C3283 Ho3280 2.811 . S
C3283 C3284 1.488 . S
C3283 O3302 1.215 . S
C3283 O3303 1.289 . S
C3284 C3283 1.488 . S
C3284 C3285 1.348 . S
C3284 C3289 1.413 . S
C3285 C3284 1.348 . S
C3285 C3286 1.442 . S
C3285 H3312 0.930 . S
C3286 C3285 1.442 . S
C3286 C3287 1.381 . S
C3286 H3313 0.931 . S
C3287 C3286 1.381 . S
C3287 C3288 1.321 . S
C3288 C3287 1.321 . S
C3288 C3289 1.403 . S
C3288 H3314 0.934 . S
C3289 C3284 1.413 . S
C3289 C3288 1.403 . S
C3289 H3315 0.930 . S
C3290 O3304 1.275 . S
C3290 O3305 1.256 . S
C3291 O3306 1.259 . S
C3291 O3307 1.268 . S
C3292 Ho3281 2.811 . S
C3292 C3293 1.488 . S
C3292 O3308 1.215 . S
C3292 O3309 1.289 . S
C3293 C3292 1.488 . S
C3293 C3294 1.348 . S
C3293 C3298 1.413 . S
C3294 C3293 1.348 . S
C3294 C3295 1.442 . S
C3294 H3316 0.930 . S
C3295 C3294 1.442 . S
C3295 C3296 1.381 . S
C3295 H3317 0.931 . S
C3296 C3295 1.381 . S
C3296 C3297 1.321 . S
C3297 C3296 1.321 . S
C3297 C3298 1.403 . S
C3297 H3318 0.934 . S
C3298 C3293 1.413 . S
C3298 C3297 1.403 . S
C3298 H3319 0.930 . S
C3299 O3310 1.275 . S
C3299 O3311 1.256 . S
O3300 Ho3280 2.322 . S
O3300 C3282 1.259 . S
O3301 Ho3281 2.346 . S
O3301 C3282 1.268 . S
O3302 Ho3280 2.378 . S
O3302 C3283 1.215 . S
O3303 Ho3280 2.524 . S
O3303 C3283 1.289 . S
O3304 Ho3280 2.381 . S
O3304 C3290 1.275 . S
O3305 Ho3280 2.669 . S
O3305 Ho3281 2.305 . S
O3305 C3290 1.256 . S
O3306 Ho3281 2.322 . S
O3306 C3291 1.259 . S
O3307 Ho3280 2.346 . S
O3307 C3291 1.268 . S
O3308 Ho3281 2.378 . S
O3308 C3292 1.215 . S
O3309 Ho3281 2.524 . S
O3309 C3292 1.289 . S
O3310 Ho3281 2.381 . S
O3310 C3299 1.275 . S
O3311 Ho3280 2.305 . S
O3311 Ho3281 2.669 . S
O3311 C3299 1.256 . S
H3312 C3285 0.930 . S
H3313 C3286 0.931 . S
H3314 C3288 0.934 . S
H3315 C3289 0.930 . S
H3316 C3294 0.930 . S
H3317 C3295 0.931 . S
H3318 C3297 0.934 . S
H3319 C3298 0.930 . S
Ho3320 C3323 2.811 . S
Ho3320 O3340 2.322 . S
Ho3320 O3342 2.378 . S
Ho3320 O3343 2.524 . S
Ho3320 O3344 2.381 . S
Ho3320 O3345 2.669 . S
Ho3320 O3347 2.346 . S
Ho3320 O3351 2.305 . S
Ho3321 C3332 2.811 . S
Ho3321 O3341 2.346 . S
Ho3321 O3345 2.305 . S
Ho3321 O3346 2.322 . S
Ho3321 O3348 2.378 . S
Ho3321 O3349 2.524 . S
Ho3321 O3350 2.381 . S
Ho3321 O3351 2.669 . S
C3322 O3340 1.259 . S
C3322 O3341 1.268 . S
C3323 Ho3320 2.811 . S
C3323 C3324 1.488 . S
C3323 O3342 1.215 . S
C3323 O3343 1.289 . S
C3324 C3323 1.488 . S
C3324 C3325 1.348 . S
C3324 C3329 1.413 . S
C3325 C3324 1.348 . S
C3325 C3326 1.442 . S
C3325 H3352 0.930 . S
C3326 C3325 1.442 . S
C3326 C3327 1.381 . S
C3326 H3353 0.931 . S
C3327 C3326 1.381 . S
C3327 C3328 1.321 . S
C3328 C3327 1.321 . S
C3328 C3329 1.403 . S
C3328 H3354 0.934 . S
C3329 C3324 1.413 . S
C3329 C3328 1.403 . S
C3329 H3355 0.930 . S
C3330 O3344 1.275 . S
C3330 O3345 1.256 . S
C3331 O3346 1.259 . S
C3331 O3347 1.268 . S
C3332 Ho3321 2.811 . S
C3332 C3333 1.488 . S
C3332 O3348 1.215 . S
C3332 O3349 1.289 . S
C3333 C3332 1.488 . S
C3333 C3334 1.348 . S
C3333 C3338 1.413 . S
C3334 C3333 1.348 . S
C3334 C3335 1.442 . S
C3334 H3356 0.930 . S
C3335 C3334 1.442 . S
C3335 C3336 1.381 . S
C3335 H3357 0.931 . S
C3336 C3335 1.381 . S
C3336 C3337 1.321 . S
C3337 C3336 1.321 . S
C3337 C3338 1.403 . S
C3337 H3358 0.934 . S
C3338 C3333 1.413 . S
C3338 C3337 1.403 . S
C3338 H3359 0.930 . S
C3339 O3350 1.275 . S
C3339 O3351 1.256 . S
O3340 Ho3320 2.322 . S
O3340 C3322 1.259 . S
O3341 Ho3321 2.346 . S
O3341 C3322 1.268 . S
O3342 Ho3320 2.378 . S
O3342 C3323 1.215 . S
O3343 Ho3320 2.524 . S
O3343 C3323 1.289 . S
O3344 Ho3320 2.381 . S
O3344 C3330 1.275 . S
O3345 Ho3320 2.669 . S
O3345 Ho3321 2.305 . S
O3345 C3330 1.256 . S
O3346 Ho3321 2.322 . S
O3346 C3331 1.259 . S
O3347 Ho3320 2.346 . S
O3347 C3331 1.268 . S
O3348 Ho3321 2.378 . S
O3348 C3332 1.215 . S
O3349 Ho3321 2.524 . S
O3349 C3332 1.289 . S
O3350 Ho3321 2.381 . S
O3350 C3339 1.275 . S
O3351 Ho3320 2.305 . S
O3351 Ho3321 2.669 . S
O3351 C3339 1.256 . S
H3352 C3325 0.930 . S
H3353 C3326 0.931 . S
H3354 C3328 0.934 . S
H3355 C3329 0.930 . S
H3356 C3334 0.930 . S
H3357 C3335 0.931 . S
H3358 C3337 0.934 . S
H3359 C3338 0.930 . S
Ho3360 C3363 2.811 . S
Ho3360 O3380 2.322 . S
Ho3360 O3382 2.378 . S
Ho3360 O3383 2.524 . S
Ho3360 O3384 2.381 . S
Ho3360 O3385 2.669 . S
Ho3360 O3387 2.346 . S
Ho3360 O3391 2.305 . S
Ho3361 C3372 2.811 . S
Ho3361 O3381 2.346 . S
Ho3361 O3385 2.305 . S
Ho3361 O3386 2.322 . S
Ho3361 O3388 2.378 . S
Ho3361 O3389 2.524 . S
Ho3361 O3390 2.381 . S
Ho3361 O3391 2.669 . S
C3362 O3380 1.259 . S
C3362 O3381 1.268 . S
C3363 Ho3360 2.811 . S
C3363 C3364 1.488 . S
C3363 O3382 1.215 . S
C3363 O3383 1.289 . S
C3364 C3363 1.488 . S
C3364 C3365 1.348 . S
C3364 C3369 1.413 . S
C3365 C3364 1.348 . S
C3365 C3366 1.442 . S
C3365 H3392 0.930 . S
C3366 C3365 1.442 . S
C3366 C3367 1.381 . S
C3366 H3393 0.931 . S
C3367 C3366 1.381 . S
C3367 C3368 1.321 . S
C3368 C3367 1.321 . S
C3368 C3369 1.403 . S
C3368 H3394 0.934 . S
C3369 C3364 1.413 . S
C3369 C3368 1.403 . S
C3369 H3395 0.930 . S
C3370 O3384 1.275 . S
C3370 O3385 1.256 . S
C3371 O3386 1.259 . S
C3371 O3387 1.268 . S
C3372 Ho3361 2.811 . S
C3372 C3373 1.488 . S
C3372 O3388 1.215 . S
C3372 O3389 1.289 . S
C3373 C3372 1.488 . S
C3373 C3374 1.348 . S
C3373 C3378 1.413 . S
C3374 C3373 1.348 . S
C3374 C3375 1.442 . S
C3374 H3396 0.930 . S
C3375 C3374 1.442 . S
C3375 C3376 1.381 . S
C3375 H3397 0.931 . S
C3376 C3375 1.381 . S
C3376 C3377 1.321 . S
C3377 C3376 1.321 . S
C3377 C3378 1.403 . S
C3377 H3398 0.934 . S
C3378 C3373 1.413 . S
C3378 C3377 1.403 . S
C3378 H3399 0.930 . S
C3379 O3390 1.275 . S
C3379 O3391 1.256 . S
O3380 Ho3360 2.322 . S
O3380 C3362 1.259 . S
O3381 Ho3361 2.346 . S
O3381 C3362 1.268 . S
O3382 Ho3360 2.378 . S
O3382 C3363 1.215 . S
O3383 Ho3360 2.524 . S
O3383 C3363 1.289 . S
O3384 Ho3360 2.381 . S
O3384 C3370 1.275 . S
O3385 Ho3360 2.669 . S
O3385 Ho3361 2.305 . S
O3385 C3370 1.256 . S
O3386 Ho3361 2.322 . S
O3386 C3371 1.259 . S
O3387 Ho3360 2.346 . S
O3387 C3371 1.268 . S
O3388 Ho3361 2.378 . S
O3388 C3372 1.215 . S
O3389 Ho3361 2.524 . S
O3389 C3372 1.289 . S
O3390 Ho3361 2.381 . S
O3390 C3379 1.275 . S
O3391 Ho3360 2.305 . S
O3391 Ho3361 2.669 . S
O3391 C3379 1.256 . S
H3392 C3365 0.930 . S
H3393 C3366 0.931 . S
H3394 C3368 0.934 . S
H3395 C3369 0.930 . S
H3396 C3374 0.930 . S
H3397 C3375 0.931 . S
H3398 C3377 0.934 . S
H3399 C3378 0.930 . S
Ho3400 C3403 2.811 . S
Ho3400 O3420 2.322 . S
Ho3400 O3422 2.378 . S
Ho3400 O3423 2.524 . S
Ho3400 O3424 2.381 . S
Ho3400 O3425 2.669 . S
Ho3400 O3427 2.346 . S
Ho3400 O3431 2.305 . S
Ho3401 C3412 2.811 . S
Ho3401 O3421 2.346 . S
Ho3401 O3425 2.305 . S
Ho3401 O3426 2.322 . S
Ho3401 O3428 2.378 . S
Ho3401 O3429 2.524 . S
Ho3401 O3430 2.381 . S
Ho3401 O3431 2.669 . S
C3402 O3420 1.259 . S
C3402 O3421 1.268 . S
C3403 Ho3400 2.811 . S
C3403 C3404 1.488 . S
C3403 O3422 1.215 . S
C3403 O3423 1.289 . S
C3404 C3403 1.488 . S
C3404 C3405 1.348 . S
C3404 C3409 1.413 . S
C3405 C3404 1.348 . S
C3405 C3406 1.442 . S
C3405 H3432 0.930 . S
C3406 C3405 1.442 . S
C3406 C3407 1.381 . S
C3406 H3433 0.931 . S
C3407 C3406 1.381 . S
C3407 C3408 1.321 . S
C3408 C3407 1.321 . S
C3408 C3409 1.403 . S
C3408 H3434 0.934 . S
C3409 C3404 1.413 . S
C3409 C3408 1.403 . S
C3409 H3435 0.930 . S
C3410 O3424 1.275 . S
C3410 O3425 1.256 . S
C3411 O3426 1.259 . S
C3411 O3427 1.268 . S
C3412 Ho3401 2.811 . S
C3412 C3413 1.488 . S
C3412 O3428 1.215 . S
C3412 O3429 1.289 . S
C3413 C3412 1.488 . S
C3413 C3414 1.348 . S
C3413 C3418 1.413 . S
C3414 C3413 1.348 . S
C3414 C3415 1.442 . S
C3414 H3436 0.930 . S
C3415 C3414 1.442 . S
C3415 C3416 1.381 . S
C3415 H3437 0.931 . S
C3416 C3415 1.381 . S
C3416 C3417 1.321 . S
C3417 C3416 1.321 . S
C3417 C3418 1.403 . S
C3417 H3438 0.934 . S
C3418 C3413 1.413 . S
C3418 C3417 1.403 . S
C3418 H3439 0.930 . S
C3419 O3430 1.275 . S
C3419 O3431 1.256 . S
O3420 Ho3400 2.322 . S
O3420 C3402 1.259 . S
O3421 Ho3401 2.346 . S
O3421 C3402 1.268 . S
O3422 Ho3400 2.378 . S
O3422 C3403 1.215 . S
O3423 Ho3400 2.524 . S
O3423 C3403 1.289 . S
O3424 Ho3400 2.381 . S
O3424 C3410 1.275 . S
O3425 Ho3400 2.669 . S
O3425 Ho3401 2.305 . S
O3425 C3410 1.256 . S
O3426 Ho3401 2.322 . S
O3426 C3411 1.259 . S
O3427 Ho3400 2.346 . S
O3427 C3411 1.268 . S
O3428 Ho3401 2.378 . S
O3428 C3412 1.215 . S
O3429 Ho3401 2.524 . S
O3429 C3412 1.289 . S
O3430 Ho3401 2.381 . S
O3430 C3419 1.275 . S
O3431 Ho3400 2.305 . S
O3431 Ho3401 2.669 . S
O3431 C3419 1.256 . S
H3432 C3405 0.930 . S
H3433 C3406 0.931 . S
H3434 C3408 0.934 . S
H3435 C3409 0.930 . S
H3436 C3414 0.930 . S
H3437 C3415 0.931 . S
H3438 C3417 0.934 . S
H3439 C3418 0.930 . S
Ho3440 C3443 2.811 . S
Ho3440 O3460 2.322 . S
Ho3440 O3462 2.378 . S
Ho3440 O3463 2.524 . S
Ho3440 O3464 2.381 . S
Ho3440 O3465 2.669 . S
Ho3440 O3467 2.346 . S
Ho3440 O3471 2.305 . S
Ho3441 C3452 2.811 . S
Ho3441 O3461 2.346 . S
Ho3441 O3465 2.305 . S
Ho3441 O3466 2.322 . S
Ho3441 O3468 2.378 . S
Ho3441 O3469 2.524 . S
Ho3441 O3470 2.381 . S
Ho3441 O3471 2.669 . S
C3442 O3460 1.259 . S
C3442 O3461 1.268 . S
C3443 Ho3440 2.811 . S
C3443 C3444 1.488 . S
C3443 O3462 1.215 . S
C3443 O3463 1.289 . S
C3444 C3443 1.488 . S
C3444 C3445 1.348 . S
C3444 C3449 1.413 . S
C3445 C3444 1.348 . S
C3445 C3446 1.442 . S
C3445 H3472 0.930 . S
C3446 C3445 1.442 . S
C3446 C3447 1.381 . S
C3446 H3473 0.931 . S
C3447 C3446 1.381 . S
C3447 C3448 1.321 . S
C3448 C3447 1.321 . S
C3448 C3449 1.403 . S
C3448 H3474 0.934 . S
C3449 C3444 1.413 . S
C3449 C3448 1.403 . S
C3449 H3475 0.930 . S
C3450 O3464 1.275 . S
C3450 O3465 1.256 . S
C3451 O3466 1.259 . S
C3451 O3467 1.268 . S
C3452 Ho3441 2.811 . S
C3452 C3453 1.488 . S
C3452 O3468 1.215 . S
C3452 O3469 1.289 . S
C3453 C3452 1.488 . S
C3453 C3454 1.348 . S
C3453 C3458 1.413 . S
C3454 C3453 1.348 . S
C3454 C3455 1.442 . S
C3454 H3476 0.930 . S
C3455 C3454 1.442 . S
C3455 C3456 1.381 . S
C3455 H3477 0.931 . S
C3456 C3455 1.381 . S
C3456 C3457 1.321 . S
C3457 C3456 1.321 . S
C3457 C3458 1.403 . S
C3457 H3478 0.934 . S
C3458 C3453 1.413 . S
C3458 C3457 1.403 . S
C3458 H3479 0.930 . S
C3459 O3470 1.275 . S
C3459 O3471 1.256 . S
O3460 Ho3440 2.322 . S
O3460 C3442 1.259 . S
O3461 Ho3441 2.346 . S
O3461 C3442 1.268 . S
O3462 Ho3440 2.378 . S
O3462 C3443 1.215 . S
O3463 Ho3440 2.524 . S
O3463 C3443 1.289 . S
O3464 Ho3440 2.381 . S
O3464 C3450 1.275 . S
O3465 Ho3440 2.669 . S
O3465 Ho3441 2.305 . S
O3465 C3450 1.256 . S
O3466 Ho3441 2.322 . S
O3466 C3451 1.259 . S
O3467 Ho3440 2.346 . S
O3467 C3451 1.268 . S
O3468 Ho3441 2.378 . S
O3468 C3452 1.215 . S
O3469 Ho3441 2.524 . S
O3469 C3452 1.289 . S
O3470 Ho3441 2.381 . S
O3470 C3459 1.275 . S
O3471 Ho3440 2.305 . S
O3471 Ho3441 2.669 . S
O3471 C3459 1.256 . S
H3472 C3445 0.930 . S
H3473 C3446 0.931 . S
H3474 C3448 0.934 . S
H3475 C3449 0.930 . S
H3476 C3454 0.930 . S
H3477 C3455 0.931 . S
H3478 C3457 0.934 . S
H3479 C3458 0.930 . S
Ho3480 C3483 2.811 . S
Ho3480 O3500 2.322 . S
Ho3480 O3502 2.378 . S
Ho3480 O3503 2.524 . S
Ho3480 O3504 2.381 . S
Ho3480 O3505 2.669 . S
Ho3480 O3507 2.346 . S
Ho3480 O3511 2.305 . S
Ho3481 C3492 2.811 . S
Ho3481 O3501 2.346 . S
Ho3481 O3505 2.305 . S
Ho3481 O3506 2.322 . S
Ho3481 O3508 2.378 . S
Ho3481 O3509 2.524 . S
Ho3481 O3510 2.381 . S
Ho3481 O3511 2.669 . S
C3482 O3500 1.259 . S
C3482 O3501 1.268 . S
C3483 Ho3480 2.811 . S
C3483 C3484 1.488 . S
C3483 O3502 1.215 . S
C3483 O3503 1.289 . S
C3484 C3483 1.488 . S
C3484 C3485 1.348 . S
C3484 C3489 1.413 . S
C3485 C3484 1.348 . S
C3485 C3486 1.442 . S
C3485 H3512 0.930 . S
C3486 C3485 1.442 . S
C3486 C3487 1.381 . S
C3486 H3513 0.931 . S
C3487 C3486 1.381 . S
C3487 C3488 1.321 . S
C3488 C3487 1.321 . S
C3488 C3489 1.403 . S
C3488 H3514 0.934 . S
C3489 C3484 1.413 . S
C3489 C3488 1.403 . S
C3489 H3515 0.930 . S
C3490 O3504 1.275 . S
C3490 O3505 1.256 . S
C3491 O3506 1.259 . S
C3491 O3507 1.268 . S
C3492 Ho3481 2.811 . S
C3492 C3493 1.488 . S
C3492 O3508 1.215 . S
C3492 O3509 1.289 . S
C3493 C3492 1.488 . S
C3493 C3494 1.348 . S
C3493 C3498 1.413 . S
C3494 C3493 1.348 . S
C3494 C3495 1.442 . S
C3494 H3516 0.930 . S
C3495 C3494 1.442 . S
C3495 C3496 1.381 . S
C3495 H3517 0.931 . S
C3496 C3495 1.381 . S
C3496 C3497 1.321 . S
C3497 C3496 1.321 . S
C3497 C3498 1.403 . S
C3497 H3518 0.934 . S
C3498 C3493 1.413 . S
C3498 C3497 1.403 . S
C3498 H3519 0.930 . S
C3499 O3510 1.275 . S
C3499 O3511 1.256 . S
O3500 Ho3480 2.322 . S
O3500 C3482 1.259 . S
O3501 Ho3481 2.346 . S
O3501 C3482 1.268 . S
O3502 Ho3480 2.378 . S
O3502 C3483 1.215 . S
O3503 Ho3480 2.524 . S
O3503 C3483 1.289 . S
O3504 Ho3480 2.381 . S
O3504 C3490 1.275 . S
O3505 Ho3480 2.669 . S
O3505 Ho3481 2.305 . S
O3505 C3490 1.256 . S
O3506 Ho3481 2.322 . S
O3506 C3491 1.259 . S
O3507 Ho3480 2.346 . S
O3507 C3491 1.268 . S
O3508 Ho3481 2.378 . S
O3508 C3492 1.215 . S
O3509 Ho3481 2.524 . S
O3509 C3492 1.289 . S
O3510 Ho3481 2.381 . S
O3510 C3499 1.275 . S
O3511 Ho3480 2.305 . S
O3511 Ho3481 2.669 . S
O3511 C3499 1.256 . S
H3512 C3485 0.930 . S
H3513 C3486 0.931 . S
H3514 C3488 0.934 . S
H3515 C3489 0.930 . S
H3516 C3494 0.930 . S
H3517 C3495 0.931 . S
H3518 C3497 0.934 . S
H3519 C3498 0.930 . S
Ho3520 C3523 2.811 . S
Ho3520 O3540 2.322 . S
Ho3520 O3542 2.378 . S
Ho3520 O3543 2.524 . S
Ho3520 O3544 2.381 . S
Ho3520 O3545 2.669 . S
Ho3520 O3547 2.346 . S
Ho3520 O3551 2.305 . S
Ho3521 C3532 2.811 . S
Ho3521 O3541 2.346 . S
Ho3521 O3545 2.305 . S
Ho3521 O3546 2.322 . S
Ho3521 O3548 2.378 . S
Ho3521 O3549 2.524 . S
Ho3521 O3550 2.381 . S
Ho3521 O3551 2.669 . S
C3522 O3540 1.259 . S
C3522 O3541 1.268 . S
C3523 Ho3520 2.811 . S
C3523 C3524 1.488 . S
C3523 O3542 1.215 . S
C3523 O3543 1.289 . S
C3524 C3523 1.488 . S
C3524 C3525 1.348 . S
C3524 C3529 1.413 . S
C3525 C3524 1.348 . S
C3525 C3526 1.442 . S
C3525 H3552 0.930 . S
C3526 C3525 1.442 . S
C3526 C3527 1.381 . S
C3526 H3553 0.931 . S
C3527 C3526 1.381 . S
C3527 C3528 1.321 . S
C3528 C3527 1.321 . S
C3528 C3529 1.403 . S
C3528 H3554 0.934 . S
C3529 C3524 1.413 . S
C3529 C3528 1.403 . S
C3529 H3555 0.930 . S
C3530 O3544 1.275 . S
C3530 O3545 1.256 . S
C3531 O3546 1.259 . S
C3531 O3547 1.268 . S
C3532 Ho3521 2.811 . S
C3532 C3533 1.488 . S
C3532 O3548 1.215 . S
C3532 O3549 1.289 . S
C3533 C3532 1.488 . S
C3533 C3534 1.348 . S
C3533 C3538 1.413 . S
C3534 C3533 1.348 . S
C3534 C3535 1.442 . S
C3534 H3556 0.930 . S
C3535 C3534 1.442 . S
C3535 C3536 1.381 . S
C3535 H3557 0.931 . S
C3536 C3535 1.381 . S
C3536 C3537 1.321 . S
C3537 C3536 1.321 . S
C3537 C3538 1.403 . S
C3537 H3558 0.934 . S
C3538 C3533 1.413 . S
C3538 C3537 1.403 . S
C3538 H3559 0.930 . S
C3539 O3550 1.275 . S
C3539 O3551 1.256 . S
O3540 Ho3520 2.322 . S
O3540 C3522 1.259 . S
O3541 Ho3521 2.346 . S
O3541 C3522 1.268 . S
O3542 Ho3520 2.378 . S
O3542 C3523 1.215 . S
O3543 Ho3520 2.524 . S
O3543 C3523 1.289 . S
O3544 Ho3520 2.381 . S
O3544 C3530 1.275 . S
O3545 Ho3520 2.669 . S
O3545 Ho3521 2.305 . S
O3545 C3530 1.256 . S
O3546 Ho3521 2.322 . S
O3546 C3531 1.259 . S
O3547 Ho3520 2.346 . S
O3547 C3531 1.268 . S
O3548 Ho3521 2.378 . S
O3548 C3532 1.215 . S
O3549 Ho3521 2.524 . S
O3549 C3532 1.289 . S
O3550 Ho3521 2.381 . S
O3550 C3539 1.275 . S
O3551 Ho3520 2.305 . S
O3551 Ho3521 2.669 . S
O3551 C3539 1.256 . S
H3552 C3525 0.930 . S
H3553 C3526 0.931 . S
H3554 C3528 0.934 . S
H3555 C3529 0.930 . S
H3556 C3534 0.930 . S
H3557 C3535 0.931 . S
H3558 C3537 0.934 . S
H3559 C3538 0.930 . S
Ho3560 C3563 2.811 . S
Ho3560 O3580 2.322 . S
Ho3560 O3582 2.378 . S
Ho3560 O3583 2.524 . S
Ho3560 O3584 2.381 . S
Ho3560 O3585 2.669 . S
Ho3560 O3587 2.346 . S
Ho3560 O3591 2.305 . S
Ho3561 C3572 2.811 . S
Ho3561 O3581 2.346 . S
Ho3561 O3585 2.305 . S
Ho3561 O3586 2.322 . S
Ho3561 O3588 2.378 . S
Ho3561 O3589 2.524 . S
Ho3561 O3590 2.381 . S
Ho3561 O3591 2.669 . S
C3562 O3580 1.259 . S
C3562 O3581 1.268 . S
C3563 Ho3560 2.811 . S
C3563 C3564 1.488 . S
C3563 O3582 1.215 . S
C3563 O3583 1.289 . S
C3564 C3563 1.488 . S
C3564 C3565 1.348 . S
C3564 C3569 1.413 . S
C3565 C3564 1.348 . S
C3565 C3566 1.442 . S
C3565 H3592 0.930 . S
C3566 C3565 1.442 . S
C3566 C3567 1.381 . S
C3566 H3593 0.931 . S
C3567 C3566 1.381 . S
C3567 C3568 1.321 . S
C3568 C3567 1.321 . S
C3568 C3569 1.403 . S
C3568 H3594 0.934 . S
C3569 C3564 1.413 . S
C3569 C3568 1.403 . S
C3569 H3595 0.930 . S
C3570 O3584 1.275 . S
C3570 O3585 1.256 . S
C3571 O3586 1.259 . S
C3571 O3587 1.268 . S
C3572 Ho3561 2.811 . S
C3572 C3573 1.488 . S
C3572 O3588 1.215 . S
C3572 O3589 1.289 . S
C3573 C3572 1.488 . S
C3573 C3574 1.348 . S
C3573 C3578 1.413 . S
C3574 C3573 1.348 . S
C3574 C3575 1.442 . S
C3574 H3596 0.930 . S
C3575 C3574 1.442 . S
C3575 C3576 1.381 . S
C3575 H3597 0.931 . S
C3576 C3575 1.381 . S
C3576 C3577 1.321 . S
C3577 C3576 1.321 . S
C3577 C3578 1.403 . S
C3577 H3598 0.934 . S
C3578 C3573 1.413 . S
C3578 C3577 1.403 . S
C3578 H3599 0.930 . S
C3579 O3590 1.275 . S
C3579 O3591 1.256 . S
O3580 Ho3560 2.322 . S
O3580 C3562 1.259 . S
O3581 Ho3561 2.346 . S
O3581 C3562 1.268 . S
O3582 Ho3560 2.378 . S
O3582 C3563 1.215 . S
O3583 Ho3560 2.524 . S
O3583 C3563 1.289 . S
O3584 Ho3560 2.381 . S
O3584 C3570 1.275 . S
O3585 Ho3560 2.669 . S
O3585 Ho3561 2.305 . S
O3585 C3570 1.256 . S
O3586 Ho3561 2.322 . S
O3586 C3571 1.259 . S
O3587 Ho3560 2.346 . S
O3587 C3571 1.268 . S
O3588 Ho3561 2.378 . S
O3588 C3572 1.215 . S
O3589 Ho3561 2.524 . S
O3589 C3572 1.289 . S
O3590 Ho3561 2.381 . S
O3590 C3579 1.275 . S
O3591 Ho3560 2.305 . S
O3591 Ho3561 2.669 . S
O3591 C3579 1.256 . S
H3592 C3565 0.930 . S
H3593 C3566 0.931 . S
H3594 C3568 0.934 . S
H3595 C3569 0.930 . S
H3596 C3574 0.930 . S
H3597 C3575 0.931 . S
H3598 C3577 0.934 . S
H3599 C3578 0.930 . S
Ho3600 C3603 2.811 . S
Ho3600 O3620 2.322 . S
Ho3600 O3622 2.378 . S
Ho3600 O3623 2.524 . S
Ho3600 O3624 2.381 . S
Ho3600 O3625 2.669 . S
Ho3600 O3627 2.346 . S
Ho3600 O3631 2.305 . S
Ho3601 C3612 2.811 . S
Ho3601 O3621 2.346 . S
Ho3601 O3625 2.305 . S
Ho3601 O3626 2.322 . S
Ho3601 O3628 2.378 . S
Ho3601 O3629 2.524 . S
Ho3601 O3630 2.381 . S
Ho3601 O3631 2.669 . S
C3602 O3620 1.259 . S
C3602 O3621 1.268 . S
C3603 Ho3600 2.811 . S
C3603 C3604 1.488 . S
C3603 O3622 1.215 . S
C3603 O3623 1.289 . S
C3604 C3603 1.488 . S
C3604 C3605 1.348 . S
C3604 C3609 1.413 . S
C3605 C3604 1.348 . S
C3605 C3606 1.442 . S
C3605 H3632 0.930 . S
C3606 C3605 1.442 . S
C3606 C3607 1.381 . S
C3606 H3633 0.931 . S
C3607 C3606 1.381 . S
C3607 C3608 1.321 . S
C3608 C3607 1.321 . S
C3608 C3609 1.403 . S
C3608 H3634 0.934 . S
C3609 C3604 1.413 . S
C3609 C3608 1.403 . S
C3609 H3635 0.930 . S
C3610 O3624 1.275 . S
C3610 O3625 1.256 . S
C3611 O3626 1.259 . S
C3611 O3627 1.268 . S
C3612 Ho3601 2.811 . S
C3612 C3613 1.488 . S
C3612 O3628 1.215 . S
C3612 O3629 1.289 . S
C3613 C3612 1.488 . S
C3613 C3614 1.348 . S
C3613 C3618 1.413 . S
C3614 C3613 1.348 . S
C3614 C3615 1.442 . S
C3614 H3636 0.930 . S
C3615 C3614 1.442 . S
C3615 C3616 1.381 . S
C3615 H3637 0.931 . S
C3616 C3615 1.381 . S
C3616 C3617 1.321 . S
C3617 C3616 1.321 . S
C3617 C3618 1.403 . S
C3617 H3638 0.934 . S
C3618 C3613 1.413 . S
C3618 C3617 1.403 . S
C3618 H3639 0.930 . S
C3619 O3630 1.275 . S
C3619 O3631 1.256 . S
O3620 Ho3600 2.322 . S
O3620 C3602 1.259 . S
O3621 Ho3601 2.346 . S
O3621 C3602 1.268 . S
O3622 Ho3600 2.378 . S
O3622 C3603 1.215 . S
O3623 Ho3600 2.524 . S
O3623 C3603 1.289 . S
O3624 Ho3600 2.381 . S
O3624 C3610 1.275 . S
O3625 Ho3600 2.669 . S
O3625 Ho3601 2.305 . S
O3625 C3610 1.256 . S
O3626 Ho3601 2.322 . S
O3626 C3611 1.259 . S
O3627 Ho3600 2.346 . S
O3627 C3611 1.268 . S
O3628 Ho3601 2.378 . S
O3628 C3612 1.215 . S
O3629 Ho3601 2.524 . S
O3629 C3612 1.289 . S
O3630 Ho3601 2.381 . S
O3630 C3619 1.275 . S
O3631 Ho3600 2.305 . S
O3631 Ho3601 2.669 . S
O3631 C3619 1.256 . S
H3632 C3605 0.930 . S
H3633 C3606 0.931 . S
H3634 C3608 0.934 . S
H3635 C3609 0.930 . S
H3636 C3614 0.930 . S
H3637 C3615 0.931 . S
H3638 C3617 0.934 . S
H3639 C3618 0.930 . S
Ho3640 C3643 2.811 . S
Ho3640 O3660 2.322 . S
Ho3640 O3662 2.378 . S
Ho3640 O3663 2.524 . S
Ho3640 O3664 2.381 1_556 S
Ho3640 O3665 2.669 1_556 S
Ho3640 O3667 2.346 1_556 S
Ho3640 O3671 2.305 . S
Ho3641 C3652 2.811 . S
Ho3641 O3661 2.346 1_554 S
Ho3641 O3665 2.305 . S
Ho3641 O3666 2.322 . S
Ho3641 O3668 2.378 . S
Ho3641 O3669 2.524 . S
Ho3641 O3670 2.381 1_554 S
Ho3641 O3671 2.669 1_554 S
C3642 O3660 1.259 . S
C3642 O3661 1.268 . S
C3643 Ho3640 2.811 . S
C3643 C3644 1.488 . S
C3643 O3662 1.215 . S
C3643 O3663 1.289 . S
C3644 C3643 1.488 . S
C3644 C3645 1.348 . S
C3644 C3649 1.413 . S
C3645 C3644 1.348 . S
C3645 C3646 1.442 . S
C3645 H3672 0.930 . S
C3646 C3645 1.442 . S
C3646 C3647 1.381 . S
C3646 H3673 0.931 . S
C3647 C3646 1.381 . S
C3647 C3648 1.321 . S
C3648 C3647 1.321 . S
C3648 C3649 1.403 . S
C3648 H3674 0.934 . S
C3649 C3644 1.413 . S
C3649 C3648 1.403 . S
C3649 H3675 0.930 . S
C3650 O3664 1.275 . S
C3650 O3665 1.256 . S
C3651 O3666 1.259 . S
C3651 O3667 1.268 . S
C3652 Ho3641 2.811 . S
C3652 C3653 1.488 . S
C3652 O3668 1.215 . S
C3652 O3669 1.289 . S
C3653 C3652 1.488 . S
C3653 C3654 1.348 . S
C3653 C3658 1.413 . S
C3654 C3653 1.348 . S
C3654 C3655 1.442 . S
C3654 H3676 0.930 . S
C3655 C3654 1.442 . S
C3655 C3656 1.381 . S
C3655 H3677 0.931 . S
C3656 C3655 1.381 . S
C3656 C3657 1.321 . S
C3657 C3656 1.321 . S
C3657 C3658 1.403 . S
C3657 H3678 0.934 . S
C3658 C3653 1.413 . S
C3658 C3657 1.403 . S
C3658 H3679 0.930 . S
C3659 O3670 1.275 . S
C3659 O3671 1.256 . S
O3660 Ho3640 2.322 . S
O3660 C3642 1.259 . S
O3661 Ho3641 2.346 1_556 S
O3661 C3642 1.268 . S
O3662 Ho3640 2.378 . S
O3662 C3643 1.215 . S
O3663 Ho3640 2.524 . S
O3663 C3643 1.289 . S
O3664 Ho3640 2.381 1_554 S
O3664 C3650 1.275 . S
O3665 Ho3640 2.669 1_554 S
O3665 Ho3641 2.305 . S
O3665 C3650 1.256 . S
O3666 Ho3641 2.322 . S
O3666 C3651 1.259 . S
O3667 Ho3640 2.346 1_554 S
O3667 C3651 1.268 . S
O3668 Ho3641 2.378 . S
O3668 C3652 1.215 . S
O3669 Ho3641 2.524 . S
O3669 C3652 1.289 . S
O3670 Ho3641 2.381 1_556 S
O3670 C3659 1.275 . S
O3671 Ho3640 2.305 . S
O3671 Ho3641 2.669 1_556 S
O3671 C3659 1.256 . S
H3672 C3645 0.930 . S
H3673 C3646 0.931 . S
H3674 C3648 0.934 . S
H3675 C3649 0.930 . S
H3676 C3654 0.930 . S
H3677 C3655 0.931 . S
H3678 C3657 0.934 . S
H3679 C3658 0.930 . S
Ho3680 C3683 2.811 . S
Ho3680 O3700 2.322 . S
Ho3680 O3702 2.378 . S
Ho3680 O3703 2.524 . S
Ho3680 O3704 2.381 . S
Ho3680 O3705 2.669 . S
Ho3680 O3707 2.346 . S
Ho3680 O3711 2.305 . S
Ho3681 C3692 2.811 . S
Ho3681 O3701 2.346 . S
Ho3681 O3705 2.305 . S
Ho3681 O3706 2.322 . S
Ho3681 O3708 2.378 . S
Ho3681 O3709 2.524 . S
Ho3681 O3710 2.381 . S
Ho3681 O3711 2.669 . S
C3682 O3700 1.259 . S
C3682 O3701 1.268 . S
C3683 Ho3680 2.811 . S
C3683 C3684 1.488 . S
C3683 O3702 1.215 . S
C3683 O3703 1.289 . S
C3684 C3683 1.488 . S
C3684 C3685 1.348 . S
C3684 C3689 1.413 . S
C3685 C3684 1.348 . S
C3685 C3686 1.442 . S
C3685 H3712 0.930 . S
C3686 C3685 1.442 . S
C3686 C3687 1.381 . S
C3686 H3713 0.931 . S
C3687 C3686 1.381 . S
C3687 C3688 1.321 . S
C3688 C3687 1.321 . S
C3688 C3689 1.403 . S
C3688 H3714 0.934 . S
C3689 C3684 1.413 . S
C3689 C3688 1.403 . S
C3689 H3715 0.930 . S
C3690 O3704 1.275 . S
C3690 O3705 1.256 . S
C3691 O3706 1.259 . S
C3691 O3707 1.268 . S
C3692 Ho3681 2.811 . S
C3692 C3693 1.488 . S
C3692 O3708 1.215 . S
C3692 O3709 1.289 . S
C3693 C3692 1.488 . S
C3693 C3694 1.348 . S
C3693 C3698 1.413 . S
C3694 C3693 1.348 . S
C3694 C3695 1.442 . S
C3694 H3716 0.930 . S
C3695 C3694 1.442 . S
C3695 C3696 1.381 . S
C3695 H3717 0.931 . S
C3696 C3695 1.381 . S
C3696 C3697 1.321 . S
C3697 C3696 1.321 . S
C3697 C3698 1.403 . S
C3697 H3718 0.934 . S
C3698 C3693 1.413 . S
C3698 C3697 1.403 . S
C3698 H3719 0.930 . S
C3699 O3710 1.275 . S
C3699 O3711 1.256 . S
O3700 Ho3680 2.322 . S
O3700 C3682 1.259 . S
O3701 Ho3681 2.346 . S
O3701 C3682 1.268 . S
O3702 Ho3680 2.378 . S
O3702 C3683 1.215 . S
O3703 Ho3680 2.524 . S
O3703 C3683 1.289 . S
O3704 Ho3680 2.381 . S
O3704 C3690 1.275 . S
O3705 Ho3680 2.669 . S
O3705 Ho3681 2.305 . S
O3705 C3690 1.256 . S
O3706 Ho3681 2.322 . S
O3706 C3691 1.259 . S
O3707 Ho3680 2.346 . S
O3707 C3691 1.268 . S
O3708 Ho3681 2.378 . S
O3708 C3692 1.215 . S
O3709 Ho3681 2.524 . S
O3709 C3692 1.289 . S
O3710 Ho3681 2.381 . S
O3710 C3699 1.275 . S
O3711 Ho3680 2.305 . S
O3711 Ho3681 2.669 . S
O3711 C3699 1.256 . S
H3712 C3685 0.930 . S
H3713 C3686 0.931 . S
H3714 C3688 0.934 . S
H3715 C3689 0.930 . S
H3716 C3694 0.930 . S
H3717 C3695 0.931 . S
H3718 C3697 0.934 . S
H3719 C3698 0.930 . S
Ho3720 C3723 2.811 . S
Ho3720 O3740 2.322 . S
Ho3720 O3742 2.378 . S
Ho3720 O3743 2.524 . S
Ho3720 O3744 2.348 1_554 S
Ho3720 O3745 2.669 1_554 S
Ho3720 O3747 2.346 1_554 S
Ho3720 O3751 2.305 . S
Ho3721 C3732 2.811 . S
Ho3721 O3741 2.346 1_556 S
Ho3721 O3745 2.305 . S
Ho3721 O3746 2.322 . S
Ho3721 O3748 2.378 . S
Ho3721 O3749 2.524 . S
Ho3721 O3750 2.357 1_556 S
Ho3721 O3751 2.669 1_556 S
C3722 O3740 1.259 . S
C3722 O3741 1.268 . S
C3723 Ho3720 2.811 . S
C3723 C3724 1.488 . S
C3723 O3742 1.215 . S
C3723 O3743 1.289 . S
C3724 C3723 1.488 . S
C3724 C3725 1.348 . S
C3724 C3729 1.413 . S
C3725 C3724 1.348 . S
C3725 C3726 1.442 . S
C3725 H3752 0.930 . S
C3726 C3725 1.442 . S
C3726 C3727 1.381 . S
C3726 H3753 0.931 . S
C3727 C3726 1.381 . S
C3727 C3728 1.321 . S
C3728 C3727 1.321 . S
C3728 C3729 1.403 . S
C3728 H3754 0.934 . S
C3729 C3724 1.413 . S
C3729 C3728 1.403 . S
C3729 H3755 0.930 . S
C3730 O3744 1.318 . S
C3730 O3745 1.256 . S
C3731 O3746 1.259 . S
C3731 O3747 1.268 . S
C3732 Ho3721 2.811 . S
C3732 C3733 1.488 . S
C3732 O3748 1.215 . S
C3732 O3749 1.289 . S
C3733 C3732 1.488 . S
C3733 C3734 1.348 . S
C3733 C3738 1.413 . S
C3734 C3733 1.348 . S
C3734 C3735 1.442 . S
C3734 H3756 0.930 . S
C3735 C3734 1.442 . S
C3735 C3736 1.381 . S
C3735 H3757 0.931 . S
C3736 C3735 1.381 . S
C3736 C3737 1.321 . S
C3737 C3736 1.321 . S
C3737 C3738 1.403 . S
C3737 H3758 0.934 . S
C3738 C3733 1.413 . S
C3738 C3737 1.403 . S
C3738 H3759 0.930 . S
C3739 O3750 1.307 . S
C3739 O3751 1.256 . S
O3740 Ho3720 2.322 . S
O3740 C3722 1.259 . S
O3741 Ho3721 2.346 1_554 S
O3741 C3722 1.268 . S
O3742 Ho3720 2.378 . S
O3742 C3723 1.215 . S
O3743 Ho3720 2.524 . S
O3743 C3723 1.289 . S
O3744 Ho3720 2.348 1_556 S
O3744 C3730 1.318 . S
O3745 Ho3720 2.669 1_556 S
O3745 Ho3721 2.305 . S
O3745 C3730 1.256 . S
O3746 Ho3721 2.322 . S
O3746 C3731 1.259 . S
O3747 Ho3720 2.346 1_556 S
O3747 C3731 1.268 . S
O3748 Ho3721 2.378 . S
O3748 C3732 1.215 . S
O3749 Ho3721 2.524 . S
O3749 C3732 1.289 . S
O3750 Ho3721 2.357 1_554 S
O3750 C3739 1.307 . S
O3751 Ho3720 2.305 . S
O3751 Ho3721 2.669 1_554 S
O3751 C3739 1.256 . S
H3752 C3725 0.930 . S
H3753 C3726 0.931 . S
H3754 C3728 0.934 . S
H3755 C3729 0.930 . S
H3756 C3734 0.930 . S
H3757 C3735 0.931 . S
H3758 C3737 0.934 . S
H3759 C3738 0.930 . S
Ho3760 C3763 2.811 . S
Ho3760 O3780 2.322 . S
Ho3760 O3782 2.378 . S
Ho3760 O3783 2.524 . S
Ho3760 O3784 2.381 . S
Ho3760 O3785 2.669 . S
Ho3760 O3787 2.346 . S
Ho3760 O3791 2.305 . S
Ho3761 C3772 2.811 . S
Ho3761 O3781 2.346 . S
Ho3761 O3785 2.305 . S
Ho3761 O3786 2.322 . S
Ho3761 O3788 2.378 . S
Ho3761 O3789 2.524 . S
Ho3761 O3790 2.381 . S
Ho3761 O3791 2.669 . S
C3762 O3780 1.259 . S
C3762 O3781 1.268 . S
C3763 Ho3760 2.811 . S
C3763 C3764 1.488 . S
C3763 O3782 1.215 . S
C3763 O3783 1.289 . S
C3764 C3763 1.488 . S
C3764 C3765 1.348 . S
C3764 C3769 1.413 . S
C3765 C3764 1.348 . S
C3765 C3766 1.442 . S
C3765 H3792 0.930 . S
C3766 C3765 1.442 . S
C3766 C3767 1.381 . S
C3766 H3793 0.931 . S
C3767 C3766 1.381 . S
C3767 C3768 1.321 . S
C3768 C3767 1.321 . S
C3768 C3769 1.403 . S
C3768 H3794 0.934 . S
C3769 C3764 1.413 . S
C3769 C3768 1.403 . S
C3769 H3795 0.930 . S
C3770 O3784 1.275 . S
C3770 O3785 1.256 . S
C3771 O3786 1.259 . S
C3771 O3787 1.268 . S
C3772 Ho3761 2.811 . S
C3772 C3773 1.488 . S
C3772 O3788 1.215 . S
C3772 O3789 1.289 . S
C3773 C3772 1.488 . S
C3773 C3774 1.348 . S
C3773 C3778 1.413 . S
C3774 C3773 1.348 . S
C3774 C3775 1.442 . S
C3774 H3796 0.930 . S
C3775 C3774 1.442 . S
C3775 C3776 1.381 . S
C3775 H3797 0.931 . S
C3776 C3775 1.381 . S
C3776 C3777 1.321 . S
C3777 C3776 1.321 . S
C3777 C3778 1.403 . S
C3777 H3798 0.934 . S
C3778 C3773 1.413 . S
C3778 C3777 1.403 . S
C3778 H3799 0.930 . S
C3779 O3790 1.275 . S
C3779 O3791 1.256 . S
O3780 Ho3760 2.322 . S
O3780 C3762 1.259 . S
O3781 Ho3761 2.346 . S
O3781 C3762 1.268 . S
O3782 Ho3760 2.378 . S
O3782 C3763 1.215 . S
O3783 Ho3760 2.524 . S
O3783 C3763 1.289 . S
O3784 Ho3760 2.381 . S
O3784 C3770 1.275 . S
O3785 Ho3760 2.669 . S
O3785 Ho3761 2.305 . S
O3785 C3770 1.256 . S
O3786 Ho3761 2.322 . S
O3786 C3771 1.259 . S
O3787 Ho3760 2.346 . S
O3787 C3771 1.268 . S
O3788 Ho3761 2.378 . S
O3788 C3772 1.215 . S
O3789 Ho3761 2.524 . S
O3789 C3772 1.289 . S
O3790 Ho3761 2.381 . S
O3790 C3779 1.275 . S
O3791 Ho3760 2.305 . S
O3791 Ho3761 2.669 . S
O3791 C3779 1.256 . S
H3792 C3765 0.930 . S
H3793 C3766 0.931 . S
H3794 C3768 0.934 . S
H3795 C3769 0.930 . S
H3796 C3774 0.930 . S
H3797 C3775 0.931 . S
H3798 C3777 0.934 . S
H3799 C3778 0.930 . S
Ho3800 C3803 2.811 . S
Ho3800 O3820 2.322 . S
Ho3800 O3822 2.378 . S
Ho3800 O3823 2.524 . S
Ho3800 O3824 2.381 . S
Ho3800 O3825 2.669 . S
Ho3800 O3827 2.346 . S
Ho3800 O3831 2.305 . S
Ho3801 C3812 2.811 . S
Ho3801 O3821 2.346 . S
Ho3801 O3825 2.305 . S
Ho3801 O3826 2.322 . S
Ho3801 O3828 2.378 . S
Ho3801 O3829 2.524 . S
Ho3801 O3830 2.381 . S
Ho3801 O3831 2.669 . S
C3802 O3820 1.259 . S
C3802 O3821 1.268 . S
C3803 Ho3800 2.811 . S
C3803 C3804 1.488 . S
C3803 O3822 1.215 . S
C3803 O3823 1.289 . S
C3804 C3803 1.488 . S
C3804 C3805 1.348 . S
C3804 C3809 1.413 . S
C3805 C3804 1.348 . S
C3805 C3806 1.442 . S
C3805 H3832 0.930 . S
C3806 C3805 1.442 . S
C3806 C3807 1.381 . S
C3806 H3833 0.931 . S
C3807 C3806 1.381 . S
C3807 C3808 1.321 . S
C3808 C3807 1.321 . S
C3808 C3809 1.403 . S
C3808 H3834 0.934 . S
C3809 C3804 1.413 . S
C3809 C3808 1.403 . S
C3809 H3835 0.930 . S
C3810 O3824 1.275 . S
C3810 O3825 1.256 . S
C3811 O3826 1.259 . S
C3811 O3827 1.268 . S
C3812 Ho3801 2.811 . S
C3812 C3813 1.488 . S
C3812 O3828 1.215 . S
C3812 O3829 1.289 . S
C3813 C3812 1.488 . S
C3813 C3814 1.348 . S
C3813 C3818 1.413 . S
C3814 C3813 1.348 . S
C3814 C3815 1.442 . S
C3814 H3836 0.930 . S
C3815 C3814 1.442 . S
C3815 C3816 1.381 . S
C3815 H3837 0.931 . S
C3816 C3815 1.381 . S
C3816 C3817 1.321 . S
C3817 C3816 1.321 . S
C3817 C3818 1.403 . S
C3817 H3838 0.934 . S
C3818 C3813 1.413 . S
C3818 C3817 1.403 . S
C3818 H3839 0.930 . S
C3819 O3830 1.275 . S
C3819 O3831 1.256 . S
O3820 Ho3800 2.322 . S
O3820 C3802 1.259 . S
O3821 Ho3801 2.346 . S
O3821 C3802 1.268 . S
O3822 Ho3800 2.378 . S
O3822 C3803 1.215 . S
O3823 Ho3800 2.524 . S
O3823 C3803 1.289 . S
O3824 Ho3800 2.381 . S
O3824 C3810 1.275 . S
O3825 Ho3800 2.669 . S
O3825 Ho3801 2.305 . S
O3825 C3810 1.256 . S
O3826 Ho3801 2.322 . S
O3826 C3811 1.259 . S
O3827 Ho3800 2.346 . S
O3827 C3811 1.268 . S
O3828 Ho3801 2.378 . S
O3828 C3812 1.215 . S
O3829 Ho3801 2.524 . S
O3829 C3812 1.289 . S
O3830 Ho3801 2.381 . S
O3830 C3819 1.275 . S
O3831 Ho3800 2.305 . S
O3831 Ho3801 2.669 . S
O3831 C3819 1.256 . S
H3832 C3805 0.930 . S
H3833 C3806 0.931 . S
H3834 C3808 0.934 . S
H3835 C3809 0.930 . S
H3836 C3814 0.930 . S
H3837 C3815 0.931 . S
H3838 C3817 0.934 . S
H3839 C3818 0.930 . S
C3840 C3841 1.387 . S
C3840 H3844 0.950 . S
C3840 C3849 1.390 . S
C3841 C3840 1.387 . S
C3841 C3843 1.387 . S
H3842 C3849 0.950 . S
C3843 C3841 1.387 . S
C3843 C3845 1.390 . S
C3843 H3847 0.950 . S
H3844 C3840 0.950 . S
C3845 C3843 1.390 . S
C3845 C3846 1.387 . S
C3845 H3848 0.950 . S
C3846 C3845 1.387 . S
C3846 C3849 1.387 . S
H3847 C3843 0.950 . S
H3848 C3845 0.950 . S
C3849 C3840 1.390 . S
C3849 H3842 0.950 . S
C3849 C3846 1.387 . S
C3850 C3851 1.387 . S
C3850 H3854 0.950 . S
C3850 C3859 1.390 . S
C3851 C3850 1.387 . S
C3851 C3853 1.387 . S
H3852 C3859 0.950 . S
C3853 C3851 1.387 . S
C3853 C3855 1.390 . S
C3853 H3857 0.950 . S
H3854 C3850 0.950 . S
C3855 C3853 1.390 . S
C3855 C3856 1.387 . S
C3855 H3858 0.950 . S
C3856 C3855 1.387 . S
C3856 C3859 1.387 . S
H3857 C3853 0.950 . S
H3858 C3855 0.950 . S
C3859 C3850 1.390 . S
C3859 H3852 0.950 . S
C3859 C3856 1.387 . S
C3860 C3861 1.387 . S
C3860 H3864 0.950 . S
C3860 C3869 1.390 . S
C3861 C3860 1.387 . S
C3861 C3863 1.387 . S
H3862 C3869 0.950 . S
C3863 C3861 1.387 . S
C3863 C3865 1.390 . S
C3863 H3867 0.950 . S
H3864 C3860 0.950 . S
C3865 C3863 1.390 . S
C3865 C3866 1.387 . S
C3865 H3868 0.950 . S
C3866 C3865 1.387 . S
C3866 C3869 1.387 . S
H3867 C3863 0.950 . S
H3868 C3865 0.950 . S
C3869 C3860 1.390 . S
C3869 H3862 0.950 . S
C3869 C3866 1.387 . S
C3870 C3871 1.387 . S
C3870 H3874 0.950 . S
C3870 C3879 1.390 . S
C3871 C3870 1.387 . S
C3871 C3873 1.387 . S
H3872 C3879 0.950 . S
C3873 C3871 1.387 . S
C3873 C3875 1.390 . S
C3873 H3877 0.950 . S
H3874 C3870 0.950 . S
C3875 C3873 1.390 . S
C3875 C3876 1.387 . S
C3875 H3878 0.950 . S
C3876 C3875 1.387 . S
C3876 C3879 1.387 . S
H3877 C3873 0.950 . S
H3878 C3875 0.950 . S
C3879 C3870 1.390 . S
C3879 H3872 0.950 . S
C3879 C3876 1.387 . S
C3880 C3881 1.387 . S
C3880 H3884 0.950 . S
C3880 C3889 1.390 . S
C3881 C3880 1.387 . S
C3881 C3883 1.387 . S
H3882 C3889 0.950 . S
C3883 C3881 1.387 . S
C3883 C3885 1.390 . S
C3883 H3887 0.950 . S
H3884 C3880 0.950 . S
C3885 C3883 1.390 . S
C3885 C3886 1.387 . S
C3885 H3888 0.950 . S
C3886 C3885 1.387 . S
C3886 C3889 1.387 . S
H3887 C3883 0.950 . S
H3888 C3885 0.950 . S
C3889 C3880 1.390 . S
C3889 H3882 0.950 . S
C3889 C3886 1.387 . S
C3890 C3891 1.387 . S
C3890 H3894 0.950 . S
C3890 C3899 1.390 . S
C3891 C3890 1.387 . S
C3891 C3893 1.387 . S
H3892 C3899 0.950 . S
C3893 C3891 1.387 . S
C3893 C3895 1.390 . S
C3893 H3897 0.950 . S
H3894 C3890 0.950 . S
C3895 C3893 1.390 . S
C3895 C3896 1.387 . S
C3895 H3898 0.950 . S
C3896 C3895 1.387 . S
C3896 C3899 1.387 . S
H3897 C3893 0.950 . S
H3898 C3895 0.950 . S
C3899 C3890 1.390 . S
C3899 H3892 0.950 . S
C3899 C3896 1.387 . S
C3900 C3901 1.387 . S
C3900 H3904 0.950 . S
C3900 C3909 1.390 . S
C3901 C3900 1.387 . S
C3901 C3903 1.387 . S
H3902 C3909 0.950 . S
C3903 C3901 1.387 . S
C3903 C3905 1.390 . S
C3903 H3907 0.950 . S
H3904 C3900 0.950 . S
C3905 C3903 1.390 . S
C3905 C3906 1.387 . S
C3905 H3908 0.950 . S
C3906 C3905 1.387 . S
C3906 C3909 1.387 . S
H3907 C3903 0.950 . S
H3908 C3905 0.950 . S
C3909 C3900 1.390 . S
C3909 H3902 0.950 . S
C3909 C3906 1.387 . S
C3910 C3911 1.387 . S
C3910 H3914 0.950 . S
C3910 C3919 1.390 . S
C3911 C3910 1.387 . S
C3911 C3913 1.387 . S
H3912 C3919 0.950 . S
C3913 C3911 1.387 . S
C3913 C3915 1.390 . S
C3913 H3917 0.950 . S
H3914 C3910 0.950 . S
C3915 C3913 1.390 . S
C3915 C3916 1.387 . S
C3915 H3918 0.950 . S
C3916 C3915 1.387 . S
C3916 C3919 1.387 . S
H3917 C3913 0.950 . S
H3918 C3915 0.950 . S
C3919 C3910 1.390 . S
C3919 H3912 0.950 . S
C3919 C3916 1.387 . S
C3920 C3921 1.387 . S
C3920 H3924 0.950 . S
C3920 C3929 1.390 . S
C3921 C3920 1.387 . S
C3921 C3923 1.387 . S
H3922 C3929 0.950 . S
C3923 C3921 1.387 . S
C3923 C3925 1.390 . S
C3923 H3927 0.950 . S
H3924 C3920 0.950 . S
C3925 C3923 1.390 . S
C3925 C3926 1.387 . S
C3925 H3928 0.950 . S
C3926 C3925 1.387 . S
C3926 C3929 1.387 . S
H3927 C3923 0.950 . S
H3928 C3925 0.950 . S
C3929 C3920 1.390 . S
C3929 H3922 0.950 . S
C3929 C3926 1.387 . S
C3930 C3931 1.387 . S
C3930 H3934 0.950 . S
C3930 C3939 1.390 . S
C3931 C3930 1.387 . S
C3931 C3933 1.387 . S
H3932 C3939 0.950 . S
C3933 C3931 1.387 . S
C3933 C3935 1.390 . S
C3933 H3937 0.950 . S
H3934 C3930 0.950 . S
C3935 C3933 1.390 . S
C3935 C3936 1.387 . S
C3935 H3938 0.950 . S
C3936 C3935 1.387 . S
C3936 C3939 1.387 . S
H3937 C3933 0.950 . S
H3938 C3935 0.950 . S
C3939 C3930 1.390 . S
C3939 H3932 0.950 . S
C3939 C3936 1.387 . S
C3940 C3941 1.387 . S
C3940 H3944 0.950 . S
C3940 C3949 1.390 . S
C3941 C3940 1.387 . S
C3941 C3943 1.387 . S
H3942 C3949 0.950 . S
C3943 C3941 1.387 . S
C3943 C3945 1.390 . S
C3943 H3947 0.950 . S
H3944 C3940 0.950 . S
C3945 C3943 1.390 . S
C3945 C3946 1.387 . S
C3945 H3948 0.950 . S
C3946 C3945 1.387 . S
C3946 C3949 1.387 . S
H3947 C3943 0.950 . S
H3948 C3945 0.950 . S
C3949 C3940 1.390 . S
C3949 H3942 0.950 . S
C3949 C3946 1.387 . S
C3950 C3951 1.387 . S
C3950 H3954 0.950 . S
C3950 C3959 1.390 . S
C3951 C3950 1.387 . S
C3951 C3953 1.387 . S
H3952 C3959 0.950 . S
C3953 C3951 1.387 . S
C3953 C3955 1.390 . S
C3953 H3957 0.950 . S
H3954 C3950 0.950 . S
C3955 C3953 1.390 . S
C3955 C3956 1.387 . S
C3955 H3958 0.950 . S
C3956 C3955 1.387 . S
C3956 C3959 1.387 . S
H3957 C3953 0.950 . S
H3958 C3955 0.950 . S
C3959 C3950 1.390 . S
C3959 H3952 0.950 . S
C3959 C3956 1.387 . S
C3960 C3961 1.387 . S
C3960 H3964 0.950 . S
C3960 C3969 1.390 . S
C3961 C3960 1.387 . S
C3961 C3963 1.387 . S
H3962 C3969 0.950 . S
C3963 C3961 1.387 . S
C3963 C3965 1.390 . S
C3963 H3967 0.950 . S
H3964 C3960 0.950 . S
C3965 C3963 1.390 . S
C3965 C3966 1.387 . S
C3965 H3968 0.950 . S
C3966 C3965 1.387 . S
C3966 C3969 1.387 . S
H3967 C3963 0.950 . S
H3968 C3965 0.950 . S
C3969 C3960 1.390 . S
C3969 H3962 0.950 . S
C3969 C3966 1.387 . S
C3970 C3971 1.387 . S
C3970 H3974 0.950 . S
C3970 C3979 1.390 . S
C3971 C3970 1.387 . S
C3971 C3973 1.387 . S
H3972 C3979 0.950 . S
C3973 C3971 1.387 . S
C3973 C3975 1.390 . S
C3973 H3977 0.950 . S
H3974 C3970 0.950 . S
C3975 C3973 1.390 . S
C3975 C3976 1.387 . S
C3975 H3978 0.950 . S
C3976 C3975 1.387 . S
C3976 C3979 1.387 . S
H3977 C3973 0.950 . S
H3978 C3975 0.950 . S
C3979 C3970 1.390 . S
C3979 H3972 0.950 . S
C3979 C3976 1.387 . S
C3980 C3981 1.387 . S
C3980 H3984 0.950 . S
C3980 C3989 1.390 . S
C3981 C3980 1.387 . S
C3981 C3983 1.387 . S
H3982 C3989 0.950 . S
C3983 C3981 1.387 . S
C3983 C3985 1.390 . S
C3983 H3987 0.950 . S
H3984 C3980 0.950 . S
C3985 C3983 1.390 . S
C3985 C3986 1.387 . S
C3985 H3988 0.950 . S
C3986 C3985 1.387 . S
C3986 C3989 1.387 . S
H3987 C3983 0.950 . S
H3988 C3985 0.950 . S
C3989 C3980 1.390 . S
C3989 H3982 0.950 . S
C3989 C3986 1.387 . S
C3990 C3991 1.387 . S
C3990 H3994 0.950 . S
C3990 C3999 1.390 . S
C3991 C3990 1.387 . S
C3991 C3993 1.387 . S
H3992 C3999 0.950 . S
C3993 C3991 1.387 . S
C3993 C3995 1.390 . S
C3993 H3997 0.950 . S
H3994 C3990 0.950 . S
C3995 C3993 1.390 . S
C3995 C3996 1.387 . S
C3995 H3998 0.950 . S
C3996 C3995 1.387 . S
C3996 C3999 1.387 . S
H3997 C3993 0.950 . S
H3998 C3995 0.950 . S
C3999 C3990 1.390 . S
C3999 H3992 0.950 . S
C3999 C3996 1.387 . S
C4000 C4001 1.387 . S
C4000 H4004 0.950 . S
C4000 C4009 1.390 . S
C4001 C4000 1.387 . S
C4001 C4003 1.387 . S
H4002 C4009 0.950 . S
C4003 C4001 1.387 . S
C4003 C4005 1.390 . S
C4003 H4007 0.950 . S
H4004 C4000 0.950 . S
C4005 C4003 1.390 . S
C4005 C4006 1.387 . S
C4005 H4008 0.950 . S
C4006 C4005 1.387 . S
C4006 C4009 1.387 . S
H4007 C4003 0.950 . S
H4008 C4005 0.950 . S
C4009 C4000 1.390 . S
C4009 H4002 0.950 . S
C4009 C4006 1.387 . S
C4010 C4011 1.387 . S
C4010 H4014 0.950 . S
C4010 C4019 1.390 . S
C4011 C4010 1.387 . S
C4011 C4013 1.387 . S
H4012 C4019 0.950 . S
C4013 C4011 1.387 . S
C4013 C4015 1.390 . S
C4013 H4017 0.950 . S
H4014 C4010 0.950 . S
C4015 C4013 1.390 . S
C4015 C4016 1.387 . S
C4015 H4018 0.950 . S
C4016 C4015 1.387 . S
C4016 C4019 1.387 . S
H4017 C4013 0.950 . S
H4018 C4015 0.950 . S
C4019 C4010 1.390 . S
C4019 H4012 0.950 . S
C4019 C4016 1.387 . S
C4020 C4021 1.387 . S
C4020 H4024 0.950 . S
C4020 C4029 1.390 . S
C4021 C4020 1.387 . S
C4021 C4023 1.387 . S
H4022 C4029 0.950 . S
C4023 C4021 1.387 . S
C4023 C4025 1.390 . S
C4023 H4027 0.950 . S
H4024 C4020 0.950 . S
C4025 C4023 1.390 . S
C4025 C4026 1.387 . S
C4025 H4028 0.950 . S
C4026 C4025 1.387 . S
C4026 C4029 1.387 . S
H4027 C4023 0.950 . S
H4028 C4025 0.950 . S
C4029 C4020 1.390 . S
C4029 H4022 0.950 . S
C4029 C4026 1.387 . S
C4030 C4031 1.387 . S
C4030 H4034 0.950 . S
C4030 C4039 1.390 . S
C4031 C4030 1.387 . S
C4031 C4033 1.387 . S
H4032 C4039 0.950 . S
C4033 C4031 1.387 . S
C4033 C4035 1.390 . S
C4033 H4037 0.950 . S
H4034 C4030 0.950 . S
C4035 C4033 1.390 . S
C4035 C4036 1.387 . S
C4035 H4038 0.950 . S
C4036 C4035 1.387 . S
C4036 C4039 1.387 . S
H4037 C4033 0.950 . S
H4038 C4035 0.950 . S
C4039 C4030 1.390 . S
C4039 H4032 0.950 . S
C4039 C4036 1.387 . S
C4040 C4041 1.387 . S
C4040 H4044 0.950 . S
C4040 C4049 1.390 . S
C4041 C4040 1.387 . S
C4041 C4043 1.387 . S
H4042 C4049 0.950 . S
C4043 C4041 1.387 . S
C4043 C4045 1.390 . S
C4043 H4047 0.950 . S
H4044 C4040 0.950 . S
C4045 C4043 1.390 . S
C4045 C4046 1.387 . S
C4045 H4048 0.950 . S
C4046 C4045 1.387 . S
C4046 C4049 1.387 . S
H4047 C4043 0.950 . S
H4048 C4045 0.950 . S
C4049 C4040 1.390 . S
C4049 H4042 0.950 . S
C4049 C4046 1.387 . S
C4050 C4051 1.387 . S
C4050 H4054 0.950 . S
C4050 C4059 1.390 . S
C4051 C4050 1.387 . S
C4051 C4053 1.387 . S
H4052 C4059 0.950 . S
C4053 C4051 1.387 . S
C4053 C4055 1.390 . S
C4053 H4057 0.950 . S
H4054 C4050 0.950 . S
C4055 C4053 1.390 . S
C4055 C4056 1.387 . S
C4055 H4058 0.950 . S
C4056 C4055 1.387 . S
C4056 C4059 1.387 . S
H4057 C4053 0.950 . S
H4058 C4055 0.950 . S
C4059 C4050 1.390 . S
C4059 H4052 0.950 . S
C4059 C4056 1.387 . S
C4060 C4061 1.387 . S
C4060 H4064 0.950 . S
C4060 C4069 1.390 . S
C4061 C4060 1.387 . S
C4061 C4063 1.387 . S
H4062 C4069 0.950 . S
C4063 C4061 1.387 . S
C4063 C4065 1.390 . S
C4063 H4067 0.950 . S
H4064 C4060 0.950 . S
C4065 C4063 1.390 . S
C4065 C4066 1.387 . S
C4065 H4068 0.950 . S
C4066 C4065 1.387 . S
C4066 C4069 1.387 . S
H4067 C4063 0.950 . S
H4068 C4065 0.950 . S
C4069 C4060 1.390 . S
C4069 H4062 0.950 . S
C4069 C4066 1.387 . S
C4070 C4071 1.387 . S
C4070 H4074 0.950 . S
C4070 C4079 1.390 . S
C4071 C4070 1.387 . S
C4071 C4073 1.387 . S
H4072 C4079 0.950 . S
C4073 C4071 1.387 . S
C4073 C4075 1.390 . S
C4073 H4077 0.950 . S
H4074 C4070 0.950 . S
C4075 C4073 1.390 . S
C4075 C4076 1.387 . S
C4075 H4078 0.950 . S
C4076 C4075 1.387 . S
C4076 C4079 1.387 . S
H4077 C4073 0.950 . S
H4078 C4075 0.950 . S
C4079 C4070 1.390 . S
C4079 H4072 0.950 . S
C4079 C4076 1.387 . S
C4080 C4081 1.387 . S
C4080 H4084 0.950 . S
C4080 C4089 1.390 . S
C4081 C4080 1.387 . S
C4081 C4083 1.387 . S
H4082 C4089 0.950 . S
C4083 C4081 1.387 . S
C4083 C4085 1.390 . S
C4083 H4087 0.950 . S
H4084 C4080 0.950 . S
C4085 C4083 1.390 . S
C4085 C4086 1.387 . S
C4085 H4088 0.950 . S
C4086 C4085 1.387 . S
C4086 C4089 1.387 . S
H4087 C4083 0.950 . S
H4088 C4085 0.950 . S
C4089 C4080 1.390 . S
C4089 H4082 0.950 . S
C4089 C4086 1.387 . S
C4090 C4091 1.387 . S
C4090 H4094 0.950 . S
C4090 C4099 1.390 . S
C4091 C4090 1.387 . S
C4091 C4093 1.387 . S
H4092 C4099 0.950 . S
C4093 C4091 1.387 . S
C4093 C4095 1.390 . S
C4093 H4097 0.950 . S
H4094 C4090 0.950 . S
C4095 C4093 1.390 . S
C4095 C4096 1.387 . S
C4095 H4098 0.950 . S
C4096 C4095 1.387 . S
C4096 C4099 1.387 . S
H4097 C4093 0.950 . S
H4098 C4095 0.950 . S
C4099 C4090 1.390 . S
C4099 H4092 0.950 . S
C4099 C4096 1.387 . S
C4100 C4101 1.387 . S
C4100 H4104 0.950 . S
C4100 C4109 1.390 . S
C4101 C4100 1.387 . S
C4101 C4103 1.387 . S
H4102 C4109 0.950 . S
C4103 C4101 1.387 . S
C4103 C4105 1.390 . S
C4103 H4107 0.950 . S
H4104 C4100 0.950 . S
C4105 C4103 1.390 . S
C4105 C4106 1.387 . S
C4105 H4108 0.950 . S
C4106 C4105 1.387 . S
C4106 C4109 1.387 . S
H4107 C4103 0.950 . S
H4108 C4105 0.950 . S
C4109 C4100 1.390 . S
C4109 H4102 0.950 . S
C4109 C4106 1.387 . S
C4110 C4111 1.387 . S
C4110 H4114 0.950 . S
C4110 C4119 1.390 . S
C4111 C4110 1.387 . S
C4111 C4113 1.387 . S
H4112 C4119 0.950 . S
C4113 C4111 1.387 . S
C4113 C4115 1.390 . S
C4113 H4117 0.950 . S
H4114 C4110 0.950 . S
C4115 C4113 1.390 . S
C4115 C4116 1.387 . S
C4115 H4118 0.950 . S
C4116 C4115 1.387 . S
C4116 C4119 1.387 . S
H4117 C4113 0.950 . S
H4118 C4115 0.950 . S
C4119 C4110 1.390 . S
C4119 H4112 0.950 . S
C4119 C4116 1.387 . S
C4120 C4121 1.387 . S
C4120 H4124 0.950 . S
C4120 C4129 1.390 . S
C4121 C4120 1.387 . S
C4121 C4123 1.387 . S
H4122 C4129 0.950 . S
C4123 C4121 1.387 . S
C4123 C4125 1.390 . S
C4123 H4127 0.950 . S
H4124 C4120 0.950 . S
C4125 C4123 1.390 . S
C4125 C4126 1.387 . S
C4125 H4128 0.950 . S
C4126 C4125 1.387 . S
C4126 C4129 1.387 . S
H4127 C4123 0.950 . S
H4128 C4125 0.950 . S
C4129 C4120 1.390 . S
C4129 H4122 0.950 . S
C4129 C4126 1.387 . S
C4130 C4131 1.387 . S
C4130 H4134 0.950 . S
C4130 C4139 1.390 . S
C4131 C4130 1.387 . S
C4131 C4133 1.387 . S
H4132 C4139 0.950 . S
C4133 C4131 1.387 . S
C4133 C4135 1.390 . S
C4133 H4137 0.950 . S
H4134 C4130 0.950 . S
C4135 C4133 1.390 . S
C4135 C4136 1.387 . S
C4135 H4138 0.950 . S
C4136 C4135 1.387 . S
C4136 C4139 1.387 . S
H4137 C4133 0.950 . S
H4138 C4135 0.950 . S
C4139 C4130 1.390 . S
C4139 H4132 0.950 . S
C4139 C4136 1.387 . S
C4140 C4141 1.387 . S
C4140 H4144 0.950 . S
C4140 C4149 1.390 . S
C4141 C4140 1.387 . S
C4141 C4143 1.387 . S
H4142 C4149 0.950 . S
C4143 C4141 1.387 . S
C4143 C4145 1.390 . S
C4143 H4147 0.950 . S
H4144 C4140 0.950 . S
C4145 C4143 1.390 . S
C4145 C4146 1.387 . S
C4145 H4148 0.950 . S
C4146 C4145 1.387 . S
C4146 C4149 1.387 . S
H4147 C4143 0.950 . S
H4148 C4145 0.950 . S
C4149 C4140 1.390 . S
C4149 H4142 0.950 . S
C4149 C4146 1.387 . S
C4150 C4151 1.387 . S
C4150 H4154 0.950 . S
C4150 C4159 1.390 . S
C4151 C4150 1.387 . S
C4151 C4153 1.387 . S
H4152 C4159 0.950 . S
C4153 C4151 1.387 . S
C4153 C4155 1.390 . S
C4153 H4157 0.950 . S
H4154 C4150 0.950 . S
C4155 C4153 1.390 . S
C4155 C4156 1.387 . S
C4155 H4158 0.950 . S
C4156 C4155 1.387 . S
C4156 C4159 1.387 . S
H4157 C4153 0.950 . S
H4158 C4155 0.950 . S
C4159 C4150 1.390 . S
C4159 H4152 0.950 . S
C4159 C4156 1.387 . S
C4160 C4161 1.387 . S
C4160 H4164 0.950 . S
C4160 C4169 1.390 . S
C4161 C4160 1.387 . S
C4161 C4163 1.387 . S
H4162 C4169 0.950 . S
C4163 C4161 1.387 . S
C4163 C4165 1.390 . S
C4163 H4167 0.950 . S
H4164 C4160 0.950 . S
C4165 C4163 1.390 . S
C4165 C4166 1.387 . S
C4165 H4168 0.950 . S
C4166 C4165 1.387 . S
C4166 C4169 1.387 . S
H4167 C4163 0.950 . S
H4168 C4165 0.950 . S
C4169 C4160 1.390 . S
C4169 H4162 0.950 . S
C4169 C4166 1.387 . S
C4170 C4171 1.387 . S
C4170 H4174 0.950 . S
C4170 C4179 1.390 . S
C4171 C4170 1.387 . S
C4171 C4173 1.387 . S
H4172 C4179 0.950 . S
C4173 C4171 1.387 . S
C4173 C4175 1.390 . S
C4173 H4177 0.950 . S
H4174 C4170 0.950 . S
C4175 C4173 1.390 . S
C4175 C4176 1.387 . S
C4175 H4178 0.950 . S
C4176 C4175 1.387 . S
C4176 C4179 1.387 . S
H4177 C4173 0.950 . S
H4178 C4175 0.950 . S
C4179 C4170 1.390 . S
C4179 H4172 0.950 . S
C4179 C4176 1.387 . S
C4180 C4181 1.387 . S
C4180 H4184 0.950 . S
C4180 C4189 1.390 . S
C4181 C4180 1.387 . S
C4181 C4183 1.387 . S
H4182 C4189 0.950 . S
C4183 C4181 1.387 . S
C4183 C4185 1.390 . S
C4183 H4187 0.950 . S
H4184 C4180 0.950 . S
C4185 C4183 1.390 . S
C4185 C4186 1.387 . S
C4185 H4188 0.950 . S
C4186 C4185 1.387 . S
C4186 C4189 1.387 . S
H4187 C4183 0.950 . S
H4188 C4185 0.950 . S
C4189 C4180 1.390 . S
C4189 H4182 0.950 . S
C4189 C4186 1.387 . S
C4190 C4191 1.387 . S
C4190 H4194 0.950 . S
C4190 C4199 1.390 . S
C4191 C4190 1.387 . S
C4191 C4193 1.387 . S
H4192 C4199 0.950 . S
C4193 C4191 1.387 . S
C4193 C4195 1.390 . S
C4193 H4197 0.950 . S
H4194 C4190 0.950 . S
C4195 C4193 1.390 . S
C4195 C4196 1.387 . S
C4195 H4198 0.950 . S
C4196 C4195 1.387 . S
C4196 C4199 1.387 . S
H4197 C4193 0.950 . S
H4198 C4195 0.950 . S
C4199 C4190 1.390 . S
C4199 H4192 0.950 . S
C4199 C4196 1.387 . S
C4200 C4201 1.387 . S
C4200 H4204 0.950 . S
C4200 C4209 1.390 . S
C4201 C4200 1.387 . S
C4201 C4203 1.387 . S
H4202 C4209 0.950 . S
C4203 C4201 1.387 . S
C4203 C4205 1.390 . S
C4203 H4207 0.950 . S
H4204 C4200 0.950 . S
C4205 C4203 1.390 . S
C4205 C4206 1.387 . S
C4205 H4208 0.950 . S
C4206 C4205 1.387 . S
C4206 C4209 1.387 . S
H4207 C4203 0.950 . S
H4208 C4205 0.950 . S
C4209 C4200 1.390 . S
C4209 H4202 0.950 . S
C4209 C4206 1.387 . S
C4210 C4211 1.387 . S
C4210 H4214 0.950 . S
C4210 C4219 1.390 . S
C4211 C4210 1.387 . S
C4211 C4213 1.387 . S
H4212 C4219 0.950 . S
C4213 C4211 1.387 . S
C4213 C4215 1.390 . S
C4213 H4217 0.950 . S
H4214 C4210 0.950 . S
C4215 C4213 1.390 . S
C4215 C4216 1.387 . S
C4215 H4218 0.950 . S
C4216 C4215 1.387 . S
C4216 C4219 1.387 . S
H4217 C4213 0.950 . S
H4218 C4215 0.950 . S
C4219 C4210 1.390 . S
C4219 H4212 0.950 . S
C4219 C4216 1.387 . S
C4220 C4221 1.387 . S
C4220 H4224 0.950 . S
C4220 C4229 1.390 . S
C4221 C4220 1.387 . S
C4221 C4223 1.387 . S
H4222 C4229 0.950 . S
C4223 C4221 1.387 . S
C4223 C4225 1.390 . S
C4223 H4227 0.950 . S
H4224 C4220 0.950 . S
C4225 C4223 1.390 . S
C4225 C4226 1.387 . S
C4225 H4228 0.950 . S
C4226 C4225 1.387 . S
C4226 C4229 1.387 . S
H4227 C4223 0.950 . S
H4228 C4225 0.950 . S
C4229 C4220 1.390 . S
C4229 H4222 0.950 . S
C4229 C4226 1.387 . S
C4230 C4231 1.387 . S
C4230 H4234 0.950 . S
C4230 C4239 1.390 . S
C4231 C4230 1.387 . S
C4231 C4233 1.387 . S
H4232 C4239 0.950 . S
C4233 C4231 1.387 . S
C4233 C4235 1.390 . S
C4233 H4237 0.950 . S
H4234 C4230 0.950 . S
C4235 C4233 1.390 . S
C4235 C4236 1.387 . S
C4235 H4238 0.950 . S
C4236 C4235 1.387 . S
C4236 C4239 1.387 . S
H4237 C4233 0.950 . S
H4238 C4235 0.950 . S
C4239 C4230 1.390 . S
C4239 H4232 0.950 . S
C4239 C4236 1.387 . S
C4240 C4241 1.387 . S
C4240 H4244 0.950 . S
C4240 C4249 1.390 . S
C4241 C4240 1.387 . S
C4241 C4243 1.387 . S
H4242 C4249 0.950 . S
C4243 C4241 1.387 . S
C4243 C4245 1.390 . S
C4243 H4247 0.950 . S
H4244 C4240 0.950 . S
C4245 C4243 1.390 . S
C4245 C4246 1.387 . S
C4245 H4248 0.950 . S
C4246 C4245 1.387 . S
C4246 C4249 1.387 . S
H4247 C4243 0.950 . S
H4248 C4245 0.950 . S
C4249 C4240 1.390 . S
C4249 H4242 0.950 . S
C4249 C4246 1.387 . S
C4250 C4251 1.387 . S
C4250 H4254 0.950 . S
C4250 C4259 1.390 . S
C4251 C4250 1.387 . S
C4251 C4253 1.387 . S
H4252 C4259 0.950 . S
C4253 C4251 1.387 . S
C4253 C4255 1.390 . S
C4253 H4257 0.950 . S
H4254 C4250 0.950 . S
C4255 C4253 1.390 . S
C4255 C4256 1.387 . S
C4255 H4258 0.950 . S
C4256 C4255 1.387 . S
C4256 C4259 1.387 . S
H4257 C4253 0.950 . S
H4258 C4255 0.950 . S
C4259 C4250 1.390 . S
C4259 H4252 0.950 . S
C4259 C4256 1.387 . S
C4260 C4261 1.387 . S
C4260 H4264 0.950 . S
C4260 C4269 1.390 . S
C4261 C4260 1.387 . S
C4261 C4263 1.387 . S
H4262 C4269 0.950 . S
C4263 C4261 1.387 . S
C4263 C4265 1.390 . S
C4263 H4267 0.950 . S
H4264 C4260 0.950 . S
C4265 C4263 1.390 . S
C4265 C4266 1.387 . S
C4265 H4268 0.950 . S
C4266 C4265 1.387 . S
C4266 C4269 1.387 . S
H4267 C4263 0.950 . S
H4268 C4265 0.950 . S
C4269 C4260 1.390 . S
C4269 H4262 0.950 . S
C4269 C4266 1.387 . S
C4270 C4271 1.387 . S
C4270 H4274 0.950 . S
C4270 C4279 1.390 . S
C4271 C4270 1.387 . S
C4271 C4273 1.387 . S
H4272 C4279 0.950 . S
C4273 C4271 1.387 . S
C4273 C4275 1.390 . S
C4273 H4277 0.950 . S
H4274 C4270 0.950 . S
C4275 C4273 1.390 . S
C4275 C4276 1.387 . S
C4275 H4278 0.950 . S
C4276 C4275 1.387 . S
C4276 C4279 1.387 . S
H4277 C4273 0.950 . S
H4278 C4275 0.950 . S
C4279 C4270 1.390 . S
C4279 H4272 0.950 . S
C4279 C4276 1.387 . S
C4280 C4281 1.387 . S
C4280 H4284 0.950 . S
C4280 C4289 1.390 . S
C4281 C4280 1.387 . S
C4281 C4283 1.387 . S
H4282 C4289 0.950 . S
C4283 C4281 1.387 . S
C4283 C4285 1.390 . S
C4283 H4287 0.950 . S
H4284 C4280 0.950 . S
C4285 C4283 1.390 . S
C4285 C4286 1.387 . S
C4285 H4288 0.950 . S
C4286 C4285 1.387 . S
C4286 C4289 1.387 . S
H4287 C4283 0.950 . S
H4288 C4285 0.950 . S
C4289 C4280 1.390 . S
C4289 H4282 0.950 . S
C4289 C4286 1.387 . S
C4290 C4291 1.387 . S
C4290 H4294 0.950 . S
C4290 C4299 1.390 . S
C4291 C4290 1.387 . S
C4291 C4293 1.387 . S
H4292 C4299 0.950 . S
C4293 C4291 1.387 . S
C4293 C4295 1.390 . S
C4293 H4297 0.950 . S
H4294 C4290 0.950 . S
C4295 C4293 1.390 . S
C4295 C4296 1.387 . S
C4295 H4298 0.950 . S
C4296 C4295 1.387 . S
C4296 C4299 1.387 . S
H4297 C4293 0.950 . S
H4298 C4295 0.950 . S
C4299 C4290 1.390 . S
C4299 H4292 0.950 . S
C4299 C4296 1.387 . S
C4300 C4301 1.387 . S
C4300 H4304 0.950 . S
C4300 C4309 1.390 . S
C4301 C4300 1.387 . S
C4301 C4303 1.387 . S
H4302 C4309 0.950 . S
C4303 C4301 1.387 . S
C4303 C4305 1.390 . S
C4303 H4307 0.950 . S
H4304 C4300 0.950 . S
C4305 C4303 1.390 . S
C4305 C4306 1.387 . S
C4305 H4308 0.950 . S
C4306 C4305 1.387 . S
C4306 C4309 1.387 . S
H4307 C4303 0.950 . S
H4308 C4305 0.950 . S
C4309 C4300 1.390 . S
C4309 H4302 0.950 . S
C4309 C4306 1.387 . S
C4310 C4311 1.387 . S
C4310 H4314 0.950 . S
C4310 C4319 1.390 . S
C4311 C4310 1.387 . S
C4311 C4313 1.387 . S
H4312 C4319 0.950 . S
C4313 C4311 1.387 . S
C4313 C4315 1.390 . S
C4313 H4317 0.950 . S
H4314 C4310 0.950 . S
C4315 C4313 1.390 . S
C4315 C4316 1.387 . S
C4315 H4318 0.950 . S
C4316 C4315 1.387 . S
C4316 C4319 1.387 . S
H4317 C4313 0.950 . S
H4318 C4315 0.950 . S
C4319 C4310 1.390 . S
C4319 H4312 0.950 . S
C4319 C4316 1.387 . S
C4320 C4321 1.387 . S
C4320 H4324 0.950 . S
C4320 C4329 1.390 . S
C4321 C4320 1.387 . S
C4321 C4323 1.387 . S
H4322 C4329 0.950 . S
C4323 C4321 1.387 . S
C4323 C4325 1.390 . S
C4323 H4327 0.950 . S
H4324 C4320 0.950 . S
C4325 C4323 1.390 . S
C4325 C4326 1.387 . S
C4325 H4328 0.950 . S
C4326 C4325 1.387 . S
C4326 C4329 1.387 . S
H4327 C4323 0.950 . S
H4328 C4325 0.950 . S
C4329 C4320 1.390 . S
C4329 H4322 0.950 . S
C4329 C4326 1.387 . S
C4330 C4331 1.387 . S
C4330 H4334 0.950 . S
C4330 C4339 1.390 . S
C4331 C4330 1.387 . S
C4331 C4333 1.387 . S
H4332 C4339 0.950 . S
C4333 C4331 1.387 . S
C4333 C4335 1.390 . S
C4333 H4337 0.950 . S
H4334 C4330 0.950 . S
C4335 C4333 1.390 . S
C4335 C4336 1.387 . S
C4335 H4338 0.950 . S
C4336 C4335 1.387 . S
C4336 C4339 1.387 . S
H4337 C4333 0.950 . S
H4338 C4335 0.950 . S
C4339 C4330 1.390 . S
C4339 H4332 0.950 . S
C4339 C4336 1.387 . S
C4340 C4341 1.387 . S
C4340 H4344 0.950 . S
C4340 C4349 1.390 . S
C4341 C4340 1.387 . S
C4341 C4343 1.387 . S
H4342 C4349 0.950 . S
C4343 C4341 1.387 . S
C4343 C4345 1.390 . S
C4343 H4347 0.950 . S
H4344 C4340 0.950 . S
C4345 C4343 1.390 . S
C4345 C4346 1.387 . S
C4345 H4348 0.950 . S
C4346 C4345 1.387 . S
C4346 C4349 1.387 . S
H4347 C4343 0.950 . S
H4348 C4345 0.950 . S
C4349 C4340 1.390 . S
C4349 H4342 0.950 . S
C4349 C4346 1.387 . S
C4350 C4351 1.387 . S
C4350 H4354 0.950 . S
C4350 C4359 1.390 . S
C4351 C4350 1.387 . S
C4351 C4353 1.387 . S
H4352 C4359 0.950 . S
C4353 C4351 1.387 . S
C4353 C4355 1.390 . S
C4353 H4357 0.950 . S
H4354 C4350 0.950 . S
C4355 C4353 1.390 . S
C4355 C4356 1.387 . S
C4355 H4358 0.950 . S
C4356 C4355 1.387 . S
C4356 C4359 1.387 . S
H4357 C4353 0.950 . S
H4358 C4355 0.950 . S
C4359 C4350 1.390 . S
C4359 H4352 0.950 . S
C4359 C4356 1.387 . S
C4360 C4361 1.387 . S
C4360 H4364 0.950 . S
C4360 C4369 1.390 . S
C4361 C4360 1.387 . S
C4361 C4363 1.387 . S
H4362 C4369 0.950 . S
C4363 C4361 1.387 . S
C4363 C4365 1.390 . S
C4363 H4367 0.950 . S
H4364 C4360 0.950 . S
C4365 C4363 1.390 . S
C4365 C4366 1.387 . S
C4365 H4368 0.950 . S
C4366 C4365 1.387 . S
C4366 C4369 1.387 . S
H4367 C4363 0.950 . S
H4368 C4365 0.950 . S
C4369 C4360 1.390 . S
C4369 H4362 0.950 . S
C4369 C4366 1.387 . S
C4370 C4371 1.387 . S
C4370 H4374 0.950 . S
C4370 C4379 1.390 . S
C4371 C4370 1.387 . S
C4371 C4373 1.387 . S
H4372 C4379 0.950 . S
C4373 C4371 1.387 . S
C4373 C4375 1.390 . S
C4373 H4377 0.950 . S
H4374 C4370 0.950 . S
C4375 C4373 1.390 . S
C4375 C4376 1.387 . S
C4375 H4378 0.950 . S
C4376 C4375 1.387 . S
C4376 C4379 1.387 . S
H4377 C4373 0.950 . S
H4378 C4375 0.950 . S
C4379 C4370 1.390 . S
C4379 H4372 0.950 . S
C4379 C4376 1.387 . S
C4380 C4381 1.387 . S
C4380 H4384 0.950 . S
C4380 C4389 1.390 . S
C4381 C4380 1.387 . S
C4381 C4383 1.387 . S
H4382 C4389 0.950 . S
C4383 C4381 1.387 . S
C4383 C4385 1.390 . S
C4383 H4387 0.950 . S
H4384 C4380 0.950 . S
C4385 C4383 1.390 . S
C4385 C4386 1.387 . S
C4385 H4388 0.950 . S
C4386 C4385 1.387 . S
C4386 C4389 1.387 . S
H4387 C4383 0.950 . S
H4388 C4385 0.950 . S
C4389 C4380 1.390 . S
C4389 H4382 0.950 . S
C4389 C4386 1.387 . S
C4390 C4391 1.387 . S
C4390 H4394 0.950 . S
C4390 C4399 1.390 . S
C4391 C4390 1.387 . S
C4391 C4393 1.387 . S
H4392 C4399 0.950 . S
C4393 C4391 1.387 . S
C4393 C4395 1.390 . S
C4393 H4397 0.950 . S
H4394 C4390 0.950 . S
C4395 C4393 1.390 . S
C4395 C4396 1.387 . S
C4395 H4398 0.950 . S
C4396 C4395 1.387 . S
C4396 C4399 1.387 . S
H4397 C4393 0.950 . S
H4398 C4395 0.950 . S
C4399 C4390 1.390 . S
C4399 H4392 0.950 . S
C4399 C4396 1.387 . S
C4400 C4401 1.387 . S
C4400 H4404 0.950 . S
C4400 C4409 1.390 . S
C4401 C4400 1.387 . S
C4401 C4403 1.387 . S
H4402 C4409 0.950 . S
C4403 C4401 1.387 . S
C4403 C4405 1.390 . S
C4403 H4407 0.950 . S
H4404 C4400 0.950 . S
C4405 C4403 1.390 . S
C4405 C4406 1.387 . S
C4405 H4408 0.950 . S
C4406 C4405 1.387 . S
C4406 C4409 1.387 . S
H4407 C4403 0.950 . S
H4408 C4405 0.950 . S
C4409 C4400 1.390 . S
C4409 H4402 0.950 . S
C4409 C4406 1.387 . S
C4410 C4411 1.387 . S
C4410 H4414 0.950 . S
C4410 C4419 1.390 . S
C4411 C4410 1.387 . S
C4411 C4413 1.387 . S
H4412 C4419 0.950 . S
C4413 C4411 1.387 . S
C4413 C4415 1.390 . S
C4413 H4417 0.950 . S
H4414 C4410 0.950 . S
C4415 C4413 1.390 . S
C4415 C4416 1.387 . S
C4415 H4418 0.950 . S
C4416 C4415 1.387 . S
C4416 C4419 1.387 . S
H4417 C4413 0.950 . S
H4418 C4415 0.950 . S
C4419 C4410 1.390 . S
C4419 H4412 0.950 . S
C4419 C4416 1.387 . S
C4420 C4421 1.387 . S
C4420 H4424 0.950 . S
C4420 C4429 1.390 . S
C4421 C4420 1.387 . S
C4421 C4423 1.387 . S
H4422 C4429 0.950 . S
C4423 C4421 1.387 . S
C4423 C4425 1.390 . S
C4423 H4427 0.950 . S
H4424 C4420 0.950 . S
C4425 C4423 1.390 . S
C4425 C4426 1.387 . S
C4425 H4428 0.950 . S
C4426 C4425 1.387 . S
C4426 C4429 1.387 . S
H4427 C4423 0.950 . S
H4428 C4425 0.950 . S
C4429 C4420 1.390 . S
C4429 H4422 0.950 . S
C4429 C4426 1.387 . S
C4430 C4431 1.387 . S
C4430 H4434 0.950 . S
C4430 C4439 1.390 . S
C4431 C4430 1.387 . S
C4431 C4433 1.387 . S
H4432 C4439 0.950 . S
C4433 C4431 1.387 . S
C4433 C4435 1.390 . S
C4433 H4437 0.950 . S
H4434 C4430 0.950 . S
C4435 C4433 1.390 . S
C4435 C4436 1.387 . S
C4435 H4438 0.950 . S
C4436 C4435 1.387 . S
C4436 C4439 1.387 . S
H4437 C4433 0.950 . S
H4438 C4435 0.950 . S
C4439 C4430 1.390 . S
C4439 H4432 0.950 . S
C4439 C4436 1.387 . S
C4440 C4441 1.387 . S
C4440 H4444 0.950 . S
C4440 C4449 1.390 . S
C4441 C4440 1.387 . S
C4441 C4443 1.387 . S
H4442 C4449 0.950 . S
C4443 C4441 1.387 . S
C4443 C4445 1.390 . S
C4443 H4447 0.950 . S
H4444 C4440 0.950 . S
C4445 C4443 1.390 . S
C4445 C4446 1.387 . S
C4445 H4448 0.950 . S
C4446 C4445 1.387 . S
C4446 C4449 1.387 . S
H4447 C4443 0.950 . S
H4448 C4445 0.950 . S
C4449 C4440 1.390 . S
C4449 H4442 0.950 . S
C4449 C4446 1.387 . S
C4450 C4451 1.387 . S
C4450 H4454 0.950 . S
C4450 C4459 1.390 . S
C4451 C4450 1.387 . S
C4451 C4453 1.387 . S
H4452 C4459 0.950 . S
C4453 C4451 1.387 . S
C4453 C4455 1.390 . S
C4453 H4457 0.950 . S
H4454 C4450 0.950 . S
C4455 C4453 1.390 . S
C4455 C4456 1.387 . S
C4455 H4458 0.950 . S
C4456 C4455 1.387 . S
C4456 C4459 1.387 . S
H4457 C4453 0.950 . S
H4458 C4455 0.950 . S
C4459 C4450 1.390 . S
C4459 H4452 0.950 . S
C4459 C4456 1.387 . S
C4460 C4461 1.387 . S
C4460 H4464 0.950 . S
C4460 C4469 1.390 . S
C4461 C4460 1.387 . S
C4461 C4463 1.387 . S
H4462 C4469 0.950 . S
C4463 C4461 1.387 . S
C4463 C4465 1.390 . S
C4463 H4467 0.950 . S
H4464 C4460 0.950 . S
C4465 C4463 1.390 . S
C4465 C4466 1.387 . S
C4465 H4468 0.950 . S
C4466 C4465 1.387 . S
C4466 C4469 1.387 . S
H4467 C4463 0.950 . S
H4468 C4465 0.950 . S
C4469 C4460 1.390 . S
C4469 H4462 0.950 . S
C4469 C4466 1.387 . S
C4470 C4471 1.387 . S
C4470 H4474 0.950 . S
C4470 C4479 1.390 . S
C4471 C4470 1.387 . S
C4471 C4473 1.387 . S
H4472 C4479 0.950 . S
C4473 C4471 1.387 . S
C4473 C4475 1.390 . S
C4473 H4477 0.950 . S
H4474 C4470 0.950 . S
C4475 C4473 1.390 . S
C4475 C4476 1.387 . S
C4475 H4478 0.950 . S
C4476 C4475 1.387 . S
C4476 C4479 1.387 . S
H4477 C4473 0.950 . S
H4478 C4475 0.950 . S
C4479 C4470 1.390 . S
C4479 H4472 0.950 . S
C4479 C4476 1.387 . S
C4480 C4481 1.387 . S
C4480 H4484 0.950 . S
C4480 C4489 1.390 . S
C4481 C4480 1.387 . S
C4481 C4483 1.387 . S
H4482 C4489 0.950 . S
C4483 C4481 1.387 . S
C4483 C4485 1.390 . S
C4483 H4487 0.950 . S
H4484 C4480 0.950 . S
C4485 C4483 1.390 . S
C4485 C4486 1.387 . S
C4485 H4488 0.950 . S
C4486 C4485 1.387 . S
C4486 C4489 1.387 . S
H4487 C4483 0.950 . S
H4488 C4485 0.950 . S
C4489 C4480 1.390 . S
C4489 H4482 0.950 . S
C4489 C4486 1.387 . S
C4490 C4491 1.387 . S
C4490 H4494 0.950 . S
C4490 C4499 1.390 . S
C4491 C4490 1.387 . S
C4491 C4493 1.387 . S
H4492 C4499 0.950 . S
C4493 C4491 1.387 . S
C4493 C4495 1.390 . S
C4493 H4497 0.950 . S
H4494 C4490 0.950 . S
C4495 C4493 1.390 . S
C4495 C4496 1.387 . S
C4495 H4498 0.950 . S
C4496 C4495 1.387 . S
C4496 C4499 1.387 . S
H4497 C4493 0.950 . S
H4498 C4495 0.950 . S
C4499 C4490 1.390 . S
C4499 H4492 0.950 . S
C4499 C4496 1.387 . S
C4500 C4501 1.387 . S
C4500 H4504 0.950 . S
C4500 C4509 1.390 . S
C4501 C4500 1.387 . S
C4501 C4503 1.387 . S
H4502 C4509 0.950 . S
C4503 C4501 1.387 . S
C4503 C4505 1.390 . S
C4503 H4507 0.950 . S
H4504 C4500 0.950 . S
C4505 C4503 1.390 . S
C4505 C4506 1.387 . S
C4505 H4508 0.950 . S
C4506 C4505 1.387 . S
C4506 C4509 1.387 . S
H4507 C4503 0.950 . S
H4508 C4505 0.950 . S
C4509 C4500 1.390 . S
C4509 H4502 0.950 . S
C4509 C4506 1.387 . S
C4510 C4511 1.387 . S
C4510 H4514 0.950 . S
C4510 C4519 1.390 . S
C4511 C4510 1.387 . S
C4511 C4513 1.387 . S
H4512 C4519 0.950 . S
C4513 C4511 1.387 . S
C4513 C4515 1.390 . S
C4513 H4517 0.950 . S
H4514 C4510 0.950 . S
C4515 C4513 1.390 . S
C4515 C4516 1.387 . S
C4515 H4518 0.950 . S
C4516 C4515 1.387 . S
C4516 C4519 1.387 . S
H4517 C4513 0.950 . S
H4518 C4515 0.950 . S
C4519 C4510 1.390 . S
C4519 H4512 0.950 . S
C4519 C4516 1.387 . S
C4520 C4521 1.387 . S
C4520 H4524 0.950 . S
C4520 C4529 1.390 . S
C4521 C4520 1.387 . S
C4521 C4523 1.387 . S
H4522 C4529 0.950 . S
C4523 C4521 1.387 . S
C4523 C4525 1.390 . S
C4523 H4527 0.950 . S
H4524 C4520 0.950 . S
C4525 C4523 1.390 . S
C4525 C4526 1.387 . S
C4525 H4528 0.950 . S
C4526 C4525 1.387 . S
C4526 C4529 1.387 . S
H4527 C4523 0.950 . S
H4528 C4525 0.950 . S
C4529 C4520 1.390 . S
C4529 H4522 0.950 . S
C4529 C4526 1.387 . S
C4530 C4531 1.387 . S
C4530 H4534 0.950 . S
C4530 C4539 1.390 . S
C4531 C4530 1.387 . S
C4531 C4533 1.387 . S
H4532 C4539 0.950 . S
C4533 C4531 1.387 . S
C4533 C4535 1.390 . S
C4533 H4537 0.950 . S
H4534 C4530 0.950 . S
C4535 C4533 1.390 . S
C4535 C4536 1.387 . S
C4535 H4538 0.950 . S
C4536 C4535 1.387 . S
C4536 C4539 1.387 . S
H4537 C4533 0.950 . S
H4538 C4535 0.950 . S
C4539 C4530 1.390 . S
C4539 H4532 0.950 . S
C4539 C4536 1.387 . S
C4540 C4541 1.387 . S
C4540 H4544 0.950 . S
C4540 C4549 1.390 . S
C4541 C4540 1.387 . S
C4541 C4543 1.387 . S
H4542 C4549 0.950 . S
C4543 C4541 1.387 . S
C4543 C4545 1.390 . S
C4543 H4547 0.950 . S
H4544 C4540 0.950 . S
C4545 C4543 1.390 . S
C4545 C4546 1.387 . S
C4545 H4548 0.950 . S
C4546 C4545 1.387 . S
C4546 C4549 1.387 . S
H4547 C4543 0.950 . S
H4548 C4545 0.950 . S
C4549 C4540 1.390 . S
C4549 H4542 0.950 . S
C4549 C4546 1.387 . S
C4550 C4551 1.387 . S
C4550 H4554 0.950 . S
C4550 C4559 1.390 . S
C4551 C4550 1.387 . S
C4551 C4553 1.387 . S
H4552 C4559 0.950 . S
C4553 C4551 1.387 . S
C4553 C4555 1.390 . S
C4553 H4557 0.950 . S
H4554 C4550 0.950 . S
C4555 C4553 1.390 . S
C4555 C4556 1.387 . S
C4555 H4558 0.950 . S
C4556 C4555 1.387 . S
C4556 C4559 1.387 . S
H4557 C4553 0.950 . S
H4558 C4555 0.950 . S
C4559 C4550 1.390 . S
C4559 H4552 0.950 . S
C4559 C4556 1.387 . S
C4560 C4561 1.387 . S
C4560 H4564 0.950 . S
C4560 C4569 1.390 . S
C4561 C4560 1.387 . S
C4561 C4563 1.387 . S
H4562 C4569 0.950 . S
C4563 C4561 1.387 . S
C4563 C4565 1.390 . S
C4563 H4567 0.950 . S
H4564 C4560 0.950 . S
C4565 C4563 1.390 . S
C4565 C4566 1.387 . S
C4565 H4568 0.950 . S
C4566 C4565 1.387 . S
C4566 C4569 1.387 . S
H4567 C4563 0.950 . S
H4568 C4565 0.950 . S
C4569 C4560 1.390 . S
C4569 H4562 0.950 . S
C4569 C4566 1.387 . S
C4570 C4571 1.387 . S
C4570 H4574 0.950 . S
C4570 C4579 1.390 . S
C4571 C4570 1.387 . S
C4571 C4573 1.387 . S
H4572 C4579 0.950 . S
C4573 C4571 1.387 . S
C4573 C4575 1.390 . S
C4573 H4577 0.950 . S
H4574 C4570 0.950 . S
C4575 C4573 1.390 . S
C4575 C4576 1.387 . S
C4575 H4578 0.950 . S
C4576 C4575 1.387 . S
C4576 C4579 1.387 . S
H4577 C4573 0.950 . S
H4578 C4575 0.950 . S
C4579 C4570 1.390 . S
C4579 H4572 0.950 . S
C4579 C4576 1.387 . S
C4580 C4581 1.387 . S
C4580 H4584 0.950 . S
C4580 C4589 1.390 . S
C4581 C4580 1.387 . S
C4581 C4583 1.387 . S
H4582 C4589 0.950 . S
C4583 C4581 1.387 . S
C4583 C4585 1.390 . S
C4583 H4587 0.950 . S
H4584 C4580 0.950 . S
C4585 C4583 1.390 . S
C4585 C4586 1.387 . S
C4585 H4588 0.950 . S
C4586 C4585 1.387 . S
C4586 C4589 1.387 . S
H4587 C4583 0.950 . S
H4588 C4585 0.950 . S
C4589 C4580 1.390 . S
C4589 H4582 0.950 . S
C4589 C4586 1.387 . S
C4590 C4591 1.387 . S
C4590 H4594 0.950 . S
C4590 C4599 1.390 . S
C4591 C4590 1.387 . S
C4591 C4593 1.387 . S
H4592 C4599 0.950 . S
C4593 C4591 1.387 . S
C4593 C4595 1.390 . S
C4593 H4597 0.950 . S
H4594 C4590 0.950 . S
C4595 C4593 1.390 . S
C4595 C4596 1.387 . S
C4595 H4598 0.950 . S
C4596 C4595 1.387 . S
C4596 C4599 1.387 . S
H4597 C4593 0.950 . S
H4598 C4595 0.950 . S
C4599 C4590 1.390 . S
C4599 H4592 0.950 . S
C4599 C4596 1.387 . S
C4600 C4601 1.387 . S
C4600 H4604 0.950 . S
C4600 C4609 1.390 . S
C4601 C4600 1.387 . S
C4601 C4603 1.387 . S
H4602 C4609 0.950 . S
C4603 C4601 1.387 . S
C4603 C4605 1.390 . S
C4603 H4607 0.950 . S
H4604 C4600 0.950 . S
C4605 C4603 1.390 . S
C4605 C4606 1.387 . S
C4605 H4608 0.950 . S
C4606 C4605 1.387 . S
C4606 C4609 1.387 . S
H4607 C4603 0.950 . S
H4608 C4605 0.950 . S
C4609 C4600 1.390 . S
C4609 H4602 0.950 . S
C4609 C4606 1.387 . S
C4610 C4611 1.387 . S
C4610 H4614 0.950 . S
C4610 C4619 1.390 . S
C4611 C4610 1.387 . S
C4611 C4613 1.387 . S
H4612 C4619 0.950 . S
C4613 C4611 1.387 . S
C4613 C4615 1.390 . S
C4613 H4617 0.950 . S
H4614 C4610 0.950 . S
C4615 C4613 1.390 . S
C4615 C4616 1.387 . S
C4615 H4618 0.950 . S
C4616 C4615 1.387 . S
C4616 C4619 1.387 . S
H4617 C4613 0.950 . S
H4618 C4615 0.950 . S
C4619 C4610 1.390 . S
C4619 H4612 0.950 . S
C4619 C4616 1.387 . S
C4620 C4621 1.387 . S
C4620 H4624 0.950 . S
C4620 C4629 1.390 . S
C4621 C4620 1.387 . S
C4621 C4623 1.387 . S
H4622 C4629 0.950 . S
C4623 C4621 1.387 . S
C4623 C4625 1.390 . S
C4623 H4627 0.950 . S
H4624 C4620 0.950 . S
C4625 C4623 1.390 . S
C4625 C4626 1.387 . S
C4625 H4628 0.950 . S
C4626 C4625 1.387 . S
C4626 C4629 1.387 . S
H4627 C4623 0.950 . S
H4628 C4625 0.950 . S
C4629 C4620 1.390 . S
C4629 H4622 0.950 . S
C4629 C4626 1.387 . S
C4630 C4631 1.387 . S
C4630 H4634 0.950 . S
C4630 C4639 1.390 . S
C4631 C4630 1.387 . S
C4631 C4633 1.387 . S
H4632 C4639 0.950 . S
C4633 C4631 1.387 . S
C4633 C4635 1.390 . S
C4633 H4637 0.950 . S
H4634 C4630 0.950 . S
C4635 C4633 1.390 . S
C4635 C4636 1.387 . S
C4635 H4638 0.950 . S
C4636 C4635 1.387 . S
C4636 C4639 1.387 . S
H4637 C4633 0.950 . S
H4638 C4635 0.950 . S
C4639 C4630 1.390 . S
C4639 H4632 0.950 . S
C4639 C4636 1.387 . S
C4640 C4641 1.387 . S
C4640 H4644 0.950 . S
C4640 C4649 1.390 . S
C4641 C4640 1.387 . S
C4641 C4643 1.387 . S
H4642 C4649 0.950 . S
C4643 C4641 1.387 . S
C4643 C4645 1.390 . S
C4643 H4647 0.950 . S
H4644 C4640 0.950 . S
C4645 C4643 1.390 . S
C4645 C4646 1.387 . S
C4645 H4648 0.950 . S
C4646 C4645 1.387 . S
C4646 C4649 1.387 . S
H4647 C4643 0.950 . S
H4648 C4645 0.950 . S
C4649 C4640 1.390 . S
C4649 H4642 0.950 . S
C4649 C4646 1.387 . S
C4650 C4651 1.387 . S
C4650 H4654 0.950 . S
C4650 C4659 1.390 . S
C4651 C4650 1.387 . S
C4651 C4653 1.387 . S
H4652 C4659 0.950 . S
C4653 C4651 1.387 . S
C4653 C4655 1.390 . S
C4653 H4657 0.950 . S
H4654 C4650 0.950 . S
C4655 C4653 1.390 . S
C4655 C4656 1.387 . S
C4655 H4658 0.950 . S
C4656 C4655 1.387 . S
C4656 C4659 1.387 . S
H4657 C4653 0.950 . S
H4658 C4655 0.950 . S
C4659 C4650 1.390 . S
C4659 H4652 0.950 . S
C4659 C4656 1.387 . S
C4660 C4661 1.387 . S
C4660 H4664 0.950 . S
C4660 C4669 1.390 . S
C4661 C4660 1.387 . S
C4661 C4663 1.387 . S
H4662 C4669 0.950 . S
C4663 C4661 1.387 . S
C4663 C4665 1.390 . S
C4663 H4667 0.950 . S
H4664 C4660 0.950 . S
C4665 C4663 1.390 . S
C4665 C4666 1.387 . S
C4665 H4668 0.950 . S
C4666 C4665 1.387 . S
C4666 C4669 1.387 . S
H4667 C4663 0.950 . S
H4668 C4665 0.950 . S
C4669 C4660 1.390 . S
C4669 H4662 0.950 . S
C4669 C4666 1.387 . S
C4670 C4671 1.387 . S
C4670 H4674 0.950 . S
C4670 C4679 1.390 . S
C4671 C4670 1.387 . S
C4671 C4673 1.387 . S
H4672 C4679 0.950 . S
C4673 C4671 1.387 . S
C4673 C4675 1.390 . S
C4673 H4677 0.950 . S
H4674 C4670 0.950 . S
C4675 C4673 1.390 . S
C4675 C4676 1.387 . S
C4675 H4678 0.950 . S
C4676 C4675 1.387 . S
C4676 C4679 1.387 . S
H4677 C4673 0.950 . S
H4678 C4675 0.950 . S
C4679 C4670 1.390 . S
C4679 H4672 0.950 . S
C4679 C4676 1.387 . S
C4680 C4681 1.387 . S
C4680 H4684 0.950 . S
C4680 C4689 1.390 . S
C4681 C4680 1.387 . S
C4681 C4683 1.387 . S
H4682 C4689 0.950 . S
C4683 C4681 1.387 . S
C4683 C4685 1.390 . S
C4683 H4687 0.950 . S
H4684 C4680 0.950 . S
C4685 C4683 1.390 . S
C4685 C4686 1.387 . S
C4685 H4688 0.950 . S
C4686 C4685 1.387 . S
C4686 C4689 1.387 . S
H4687 C4683 0.950 . S
H4688 C4685 0.950 . S
C4689 C4680 1.390 . S
C4689 H4682 0.950 . S
C4689 C4686 1.387 . S
C4690 C4691 1.387 . S
C4690 H4694 0.950 . S
C4690 C4699 1.390 . S
C4691 C4690 1.387 . S
C4691 C4693 1.387 . S
H4692 C4699 0.950 . S
C4693 C4691 1.387 . S
C4693 C4695 1.390 . S
C4693 H4697 0.950 . S
H4694 C4690 0.950 . S
C4695 C4693 1.390 . S
C4695 C4696 1.387 . S
C4695 H4698 0.950 . S
C4696 C4695 1.387 . S
C4696 C4699 1.387 . S
H4697 C4693 0.950 . S
H4698 C4695 0.950 . S
C4699 C4690 1.390 . S
C4699 H4692 0.950 . S
C4699 C4696 1.387 . S
C4700 C4701 1.387 . S
C4700 H4704 0.950 . S
C4700 C4709 1.390 . S
C4701 C4700 1.387 . S
C4701 C4703 1.387 . S
H4702 C4709 0.950 . S
C4703 C4701 1.387 . S
C4703 C4705 1.390 . S
C4703 H4707 0.950 . S
H4704 C4700 0.950 . S
C4705 C4703 1.390 . S
C4705 C4706 1.387 . S
C4705 H4708 0.950 . S
C4706 C4705 1.387 . S
C4706 C4709 1.387 . S
H4707 C4703 0.950 . S
H4708 C4705 0.950 . S
C4709 C4700 1.390 . S
C4709 H4702 0.950 . S
C4709 C4706 1.387 . S
C4710 C4711 1.387 . S
C4710 H4714 0.950 . S
C4710 C4719 1.390 . S
C4711 C4710 1.387 . S
C4711 C4713 1.387 . S
H4712 C4719 0.950 . S
C4713 C4711 1.387 . S
C4713 C4715 1.390 . S
C4713 H4717 0.950 . S
H4714 C4710 0.950 . S
C4715 C4713 1.390 . S
C4715 C4716 1.387 . S
C4715 H4718 0.950 . S
C4716 C4715 1.387 . S
C4716 C4719 1.387 . S
H4717 C4713 0.950 . S
H4718 C4715 0.950 . S
C4719 C4710 1.390 . S
C4719 H4712 0.950 . S
C4719 C4716 1.387 . S
C4720 C4721 1.387 . S
C4720 H4724 0.950 . S
C4720 C4729 1.390 . S
C4721 C4720 1.387 . S
C4721 C4723 1.387 . S
H4722 C4729 0.950 . S
C4723 C4721 1.387 . S
C4723 C4725 1.390 . S
C4723 H4727 0.950 . S
H4724 C4720 0.950 . S
C4725 C4723 1.390 . S
C4725 C4726 1.387 . S
C4725 H4728 0.950 . S
C4726 C4725 1.387 . S
C4726 C4729 1.387 . S
H4727 C4723 0.950 . S
H4728 C4725 0.950 . S
C4729 C4720 1.390 . S
C4729 H4722 0.950 . S
C4729 C4726 1.387 . S
C4730 C4731 1.387 . S
C4730 H4734 0.950 . S
C4730 C4739 1.390 . S
C4731 C4730 1.387 . S
C4731 C4733 1.387 . S
H4732 C4739 0.950 . S
C4733 C4731 1.387 . S
C4733 C4735 1.390 . S
C4733 H4737 0.950 . S
H4734 C4730 0.950 . S
C4735 C4733 1.390 . S
C4735 C4736 1.387 . S
C4735 H4738 0.950 . S
C4736 C4735 1.387 . S
C4736 C4739 1.387 . S
H4737 C4733 0.950 . S
H4738 C4735 0.950 . S
C4739 C4730 1.390 . S
C4739 H4732 0.950 . S
C4739 C4736 1.387 . S
C4740 C4741 1.387 . S
C4740 H4744 0.950 . S
C4740 C4749 1.390 . S
C4741 C4740 1.387 . S
C4741 C4743 1.387 . S
H4742 C4749 0.950 . S
C4743 C4741 1.387 . S
C4743 C4745 1.390 . S
C4743 H4747 0.950 . S
H4744 C4740 0.950 . S
C4745 C4743 1.390 . S
C4745 C4746 1.387 . S
C4745 H4748 0.950 . S
C4746 C4745 1.387 . S
C4746 C4749 1.387 . S
H4747 C4743 0.950 . S
H4748 C4745 0.950 . S
C4749 C4740 1.390 . S
C4749 H4742 0.950 . S
C4749 C4746 1.387 . S
C4750 C4751 1.387 . S
C4750 H4754 0.950 . S
C4750 C4759 1.390 . S
C4751 C4750 1.387 . S
C4751 C4753 1.387 . S
H4752 C4759 0.950 . S
C4753 C4751 1.387 . S
C4753 C4755 1.390 . S
C4753 H4757 0.950 . S
H4754 C4750 0.950 . S
C4755 C4753 1.390 . S
C4755 C4756 1.387 . S
C4755 H4758 0.950 . S
C4756 C4755 1.387 . S
C4756 C4759 1.387 . S
H4757 C4753 0.950 . S
H4758 C4755 0.950 . S
C4759 C4750 1.390 . S
C4759 H4752 0.950 . S
C4759 C4756 1.387 . S
C4760 C4761 1.387 . S
C4760 H4764 0.950 . S
C4760 C4769 1.390 . S
C4761 C4760 1.387 . S
C4761 C4763 1.387 . S
H4762 C4769 0.950 . S
C4763 C4761 1.387 . S
C4763 C4765 1.390 . S
C4763 H4767 0.950 . S
H4764 C4760 0.950 . S
C4765 C4763 1.390 . S
C4765 C4766 1.387 . S
C4765 H4768 0.950 . S
C4766 C4765 1.387 . S
C4766 C4769 1.387 . S
H4767 C4763 0.950 . S
H4768 C4765 0.950 . S
C4769 C4760 1.390 . S
C4769 H4762 0.950 . S
C4769 C4766 1.387 . S
C4770 C4771 1.387 . S
C4770 H4774 0.950 . S
C4770 C4779 1.390 . S
C4771 C4770 1.387 . S
C4771 C4773 1.387 . S
H4772 C4779 0.950 . S
C4773 C4771 1.387 . S
C4773 C4775 1.390 . S
C4773 H4777 0.950 . S
H4774 C4770 0.950 . S
C4775 C4773 1.390 . S
C4775 C4776 1.387 . S
C4775 H4778 0.950 . S
C4776 C4775 1.387 . S
C4776 C4779 1.387 . S
H4777 C4773 0.950 . S
H4778 C4775 0.950 . S
C4779 C4770 1.390 . S
C4779 H4772 0.950 . S
C4779 C4776 1.387 . S
C4780 C4781 1.387 . S
C4780 H4784 0.950 . S
C4780 C4789 1.390 . S
C4781 C4780 1.387 . S
C4781 C4783 1.387 . S
H4782 C4789 0.950 . S
C4783 C4781 1.387 . S
C4783 C4785 1.390 . S
C4783 H4787 0.950 . S
H4784 C4780 0.950 . S
C4785 C4783 1.390 . S
C4785 C4786 1.387 . S
C4785 H4788 0.950 . S
C4786 C4785 1.387 . S
C4786 C4789 1.387 . S
H4787 C4783 0.950 . S
H4788 C4785 0.950 . S
C4789 C4780 1.390 . S
C4789 H4782 0.950 . S
C4789 C4786 1.387 . S
C4790 C4791 1.387 . S
C4790 H4794 0.950 . S
C4790 C4799 1.390 . S
C4791 C4790 1.387 . S
C4791 C4793 1.387 . S
H4792 C4799 0.950 . S
C4793 C4791 1.387 . S
C4793 C4795 1.390 . S
C4793 H4797 0.950 . S
H4794 C4790 0.950 . S
C4795 C4793 1.390 . S
C4795 C4796 1.387 . S
C4795 H4798 0.950 . S
C4796 C4795 1.387 . S
C4796 C4799 1.387 . S
H4797 C4793 0.950 . S
H4798 C4795 0.950 . S
C4799 C4790 1.390 . S
C4799 H4792 0.950 . S
C4799 C4796 1.387 . S
C4800 C4801 1.387 . S
C4800 H4804 0.950 . S
C4800 C4809 1.390 . S
C4801 C4800 1.387 . S
C4801 C4803 1.387 . S
H4802 C4809 0.950 . S
C4803 C4801 1.387 . S
C4803 C4805 1.390 . S
C4803 H4807 0.950 . S
H4804 C4800 0.950 . S
C4805 C4803 1.390 . S
C4805 C4806 1.387 . S
C4805 H4808 0.950 . S
C4806 C4805 1.387 . S
C4806 C4809 1.387 . S
H4807 C4803 0.950 . S
H4808 C4805 0.950 . S
C4809 C4800 1.390 . S
C4809 H4802 0.950 . S
C4809 C4806 1.387 . S
C4810 C4811 1.387 . S
C4810 H4814 0.950 . S
C4810 C4819 1.390 . S
C4811 C4810 1.387 . S
C4811 C4813 1.387 . S
H4812 C4819 0.950 . S
C4813 C4811 1.387 . S
C4813 C4815 1.390 . S
C4813 H4817 0.950 . S
H4814 C4810 0.950 . S
C4815 C4813 1.390 . S
C4815 C4816 1.387 . S
C4815 H4818 0.950 . S
C4816 C4815 1.387 . S
C4816 C4819 1.387 . S
H4817 C4813 0.950 . S
H4818 C4815 0.950 . S
C4819 C4810 1.390 . S
C4819 H4812 0.950 . S
C4819 C4816 1.387 . S
C4820 C4821 1.387 . S
C4820 H4824 0.950 . S
C4820 C4829 1.390 . S
C4821 C4820 1.387 . S
C4821 C4823 1.387 . S
H4822 C4829 0.950 . S
C4823 C4821 1.387 . S
C4823 C4825 1.390 . S
C4823 H4827 0.950 . S
H4824 C4820 0.950 . S
C4825 C4823 1.390 . S
C4825 C4826 1.387 . S
C4825 H4828 0.950 . S
C4826 C4825 1.387 . S
C4826 C4829 1.387 . S
H4827 C4823 0.950 . S
H4828 C4825 0.950 . S
C4829 C4820 1.390 . S
C4829 H4822 0.950 . S
C4829 C4826 1.387 . S
C4830 C4831 1.387 . S
C4830 H4834 0.950 . S
C4830 C4839 1.390 . S
C4831 C4830 1.387 . S
C4831 C4833 1.387 . S
H4832 C4839 0.950 . S
C4833 C4831 1.387 . S
C4833 C4835 1.390 . S
C4833 H4837 0.950 . S
H4834 C4830 0.950 . S
C4835 C4833 1.390 . S
C4835 C4836 1.387 . S
C4835 H4838 0.950 . S
C4836 C4835 1.387 . S
C4836 C4839 1.387 . S
H4837 C4833 0.950 . S
H4838 C4835 0.950 . S
C4839 C4830 1.390 . S
C4839 H4832 0.950 . S
C4839 C4836 1.387 . S
C4840 C4841 1.387 . S
C4840 H4844 0.950 . S
C4840 C4849 1.390 . S
C4841 C4840 1.387 . S
C4841 C4843 1.387 . S
H4842 C4849 0.950 . S
C4843 C4841 1.387 . S
C4843 C4845 1.390 . S
C4843 H4847 0.950 . S
H4844 C4840 0.950 . S
C4845 C4843 1.390 . S
C4845 C4846 1.387 . S
C4845 H4848 0.950 . S
C4846 C4845 1.387 . S
C4846 C4849 1.387 . S
H4847 C4843 0.950 . S
H4848 C4845 0.950 . S
C4849 C4840 1.390 . S
C4849 H4842 0.950 . S
C4849 C4846 1.387 . S
C4850 C4851 1.387 . S
C4850 H4854 0.950 . S
C4850 C4859 1.390 . S
C4851 C4850 1.387 . S
C4851 C4853 1.387 . S
H4852 C4859 0.950 . S
C4853 C4851 1.387 . S
C4853 C4855 1.390 . S
C4853 H4857 0.950 . S
H4854 C4850 0.950 . S
C4855 C4853 1.390 . S
C4855 C4856 1.387 . S
C4855 H4858 0.950 . S
C4856 C4855 1.387 . S
C4856 C4859 1.387 . S
H4857 C4853 0.950 . S
H4858 C4855 0.950 . S
C4859 C4850 1.390 . S
C4859 H4852 0.950 . S
C4859 C4856 1.387 . S
C4860 C4861 1.387 . S
C4860 H4864 0.950 . S
C4860 C4869 1.390 . S
C4861 C4860 1.387 . S
C4861 C4863 1.387 . S
H4862 C4869 0.950 . S
C4863 C4861 1.387 . S
C4863 C4865 1.390 . S
C4863 H4867 0.950 . S
H4864 C4860 0.950 . S
C4865 C4863 1.390 . S
C4865 C4866 1.387 . S
C4865 H4868 0.950 . S
C4866 C4865 1.387 . S
C4866 C4869 1.387 . S
H4867 C4863 0.950 . S
H4868 C4865 0.950 . S
C4869 C4860 1.390 . S
C4869 H4862 0.950 . S
C4869 C4866 1.387 . S
C4870 C4871 1.387 . S
C4870 H4874 0.950 . S
C4870 C4879 1.390 . S
C4871 C4870 1.387 . S
C4871 C4873 1.387 . S
H4872 C4879 0.950 . S
C4873 C4871 1.387 . S
C4873 C4875 1.390 . S
C4873 H4877 0.950 . S
H4874 C4870 0.950 . S
C4875 C4873 1.390 . S
C4875 C4876 1.387 . S
C4875 H4878 0.950 . S
C4876 C4875 1.387 . S
C4876 C4879 1.387 . S
H4877 C4873 0.950 . S
H4878 C4875 0.950 . S
C4879 C4870 1.390 . S
C4879 H4872 0.950 . S
C4879 C4876 1.387 . S
C4880 C4881 1.387 . S
C4880 H4884 0.950 . S
C4880 C4889 1.390 . S
C4881 C4880 1.387 . S
C4881 C4883 1.387 . S
H4882 C4889 0.950 . S
C4883 C4881 1.387 . S
C4883 C4885 1.390 . S
C4883 H4887 0.950 . S
H4884 C4880 0.950 . S
C4885 C4883 1.390 . S
C4885 C4886 1.387 . S
C4885 H4888 0.950 . S
C4886 C4885 1.387 . S
C4886 C4889 1.387 . S
H4887 C4883 0.950 . S
H4888 C4885 0.950 . S
C4889 C4880 1.390 . S
C4889 H4882 0.950 . S
C4889 C4886 1.387 . S
C4890 C4891 1.387 . S
C4890 H4894 0.950 . S
C4890 C4899 1.390 . S
C4891 C4890 1.387 . S
C4891 C4893 1.387 . S
H4892 C4899 0.950 . S
C4893 C4891 1.387 . S
C4893 C4895 1.390 . S
C4893 H4897 0.950 . S
H4894 C4890 0.950 . S
C4895 C4893 1.390 . S
C4895 C4896 1.387 . S
C4895 H4898 0.950 . S
C4896 C4895 1.387 . S
C4896 C4899 1.387 . S
H4897 C4893 0.950 . S
H4898 C4895 0.950 . S
C4899 C4890 1.390 . S
C4899 H4892 0.950 . S
C4899 C4896 1.387 . S
C4900 C4901 1.387 . S
C4900 H4904 0.950 . S
C4900 C4909 1.390 . S
C4901 C4900 1.387 . S
C4901 C4903 1.387 . S
H4902 C4909 0.950 . S
C4903 C4901 1.387 . S
C4903 C4905 1.390 . S
C4903 H4907 0.950 . S
H4904 C4900 0.950 . S
C4905 C4903 1.390 . S
C4905 C4906 1.387 . S
C4905 H4908 0.950 . S
C4906 C4905 1.387 . S
C4906 C4909 1.387 . S
H4907 C4903 0.950 . S
H4908 C4905 0.950 . S
C4909 C4900 1.390 . S
C4909 H4902 0.950 . S
C4909 C4906 1.387 . S
C4910 C4911 1.387 . S
C4910 H4914 0.950 . S
C4910 C4919 1.390 . S
C4911 C4910 1.387 . S
C4911 C4913 1.387 . S
H4912 C4919 0.950 . S
C4913 C4911 1.387 . S
C4913 C4915 1.390 . S
C4913 H4917 0.950 . S
H4914 C4910 0.950 . S
C4915 C4913 1.390 . S
C4915 C4916 1.387 . S
C4915 H4918 0.950 . S
C4916 C4915 1.387 . S
C4916 C4919 1.387 . S
H4917 C4913 0.950 . S
H4918 C4915 0.950 . S
C4919 C4910 1.390 . S
C4919 H4912 0.950 . S
C4919 C4916 1.387 . S
C4920 C4921 1.387 . S
C4920 H4924 0.950 . S
C4920 C4929 1.390 . S
C4921 C4920 1.387 . S
C4921 C4923 1.387 . S
H4922 C4929 0.950 . S
C4923 C4921 1.387 . S
C4923 C4925 1.390 . S
C4923 H4927 0.950 . S
H4924 C4920 0.950 . S
C4925 C4923 1.390 . S
C4925 C4926 1.387 . S
C4925 H4928 0.950 . S
C4926 C4925 1.387 . S
C4926 C4929 1.387 . S
H4927 C4923 0.950 . S
H4928 C4925 0.950 . S
C4929 C4920 1.390 . S
C4929 H4922 0.950 . S
C4929 C4926 1.387 . S
C4930 C4931 1.387 . S
C4930 H4934 0.950 . S
C4930 C4939 1.390 . S
C4931 C4930 1.387 . S
C4931 C4933 1.387 . S
H4932 C4939 0.950 . S
C4933 C4931 1.387 . S
C4933 C4935 1.390 . S
C4933 H4937 0.950 . S
H4934 C4930 0.950 . S
C4935 C4933 1.390 . S
C4935 C4936 1.387 . S
C4935 H4938 0.950 . S
C4936 C4935 1.387 . S
C4936 C4939 1.387 . S
H4937 C4933 0.950 . S
H4938 C4935 0.950 . S
C4939 C4930 1.390 . S
C4939 H4932 0.950 . S
C4939 C4936 1.387 . S
C4940 C4941 1.387 . S
C4940 H4944 0.950 . S
C4940 C4949 1.390 . S
C4941 C4940 1.387 . S
C4941 C4943 1.387 . S
H4942 C4949 0.950 . S
C4943 C4941 1.387 . S
C4943 C4945 1.390 . S
C4943 H4947 0.950 . S
H4944 C4940 0.950 . S
C4945 C4943 1.390 . S
C4945 C4946 1.387 . S
C4945 H4948 0.950 . S
C4946 C4945 1.387 . S
C4946 C4949 1.387 . S
H4947 C4943 0.950 . S
H4948 C4945 0.950 . S
C4949 C4940 1.390 . S
C4949 H4942 0.950 . S
C4949 C4946 1.387 . S
C4950 C4951 1.387 . S
C4950 H4954 0.950 . S
C4950 C4959 1.390 . S
C4951 C4950 1.387 . S
C4951 C4953 1.387 . S
H4952 C4959 0.950 . S
C4953 C4951 1.387 . S
C4953 C4955 1.390 . S
C4953 H4957 0.950 . S
H4954 C4950 0.950 . S
C4955 C4953 1.390 . S
C4955 C4956 1.387 . S
C4955 H4958 0.950 . S
C4956 C4955 1.387 . S
C4956 C4959 1.387 . S
H4957 C4953 0.950 . S
H4958 C4955 0.950 . S
C4959 C4950 1.390 . S
C4959 H4952 0.950 . S
C4959 C4956 1.387 . S
C4960 C4961 1.387 . S
C4960 H4964 0.950 . S
C4960 C4969 1.390 . S
C4961 C4960 1.387 . S
C4961 C4963 1.387 . S
H4962 C4969 0.950 . S
C4963 C4961 1.387 . S
C4963 C4965 1.390 . S
C4963 H4967 0.950 . S
H4964 C4960 0.950 . S
C4965 C4963 1.390 . S
C4965 C4966 1.387 . S
C4965 H4968 0.950 . S
C4966 C4965 1.387 . S
C4966 C4969 1.387 . S
H4967 C4963 0.950 . S
H4968 C4965 0.950 . S
C4969 C4960 1.390 . S
C4969 H4962 0.950 . S
C4969 C4966 1.387 . S
C4970 C4971 1.387 . S
C4970 H4974 0.950 . S
C4970 C4979 1.390 . S
C4971 C4970 1.387 . S
C4971 C4973 1.387 . S
H4972 C4979 0.950 . S
C4973 C4971 1.387 . S
C4973 C4975 1.390 . S
C4973 H4977 0.950 . S
H4974 C4970 0.950 . S
C4975 C4973 1.390 . S
C4975 C4976 1.387 . S
C4975 H4978 0.950 . S
C4976 C4975 1.387 . S
C4976 C4979 1.387 . S
H4977 C4973 0.950 . S
H4978 C4975 0.950 . S
C4979 C4970 1.390 . S
C4979 H4972 0.950 . S
C4979 C4976 1.387 . S
C4980 C4981 1.387 . S
C4980 H4984 0.950 . S
C4980 C4989 1.390 . S
C4981 C4980 1.387 . S
C4981 C4983 1.387 . S
H4982 C4989 0.950 . S
C4983 C4981 1.387 . S
C4983 C4985 1.390 . S
C4983 H4987 0.950 . S
H4984 C4980 0.950 . S
C4985 C4983 1.390 . S
C4985 C4986 1.387 . S
C4985 H4988 0.950 . S
C4986 C4985 1.387 . S
C4986 C4989 1.387 . S
H4987 C4983 0.950 . S
H4988 C4985 0.950 . S
C4989 C4980 1.390 . S
C4989 H4982 0.950 . S
C4989 C4986 1.387 . S
C4990 C4991 1.387 . S
C4990 H4994 0.950 . S
C4990 C4999 1.390 . S
C4991 C4990 1.387 . S
C4991 C4993 1.387 . S
H4992 C4999 0.950 . S
C4993 C4991 1.387 . S
C4993 C4995 1.390 . S
C4993 H4997 0.950 . S
H4994 C4990 0.950 . S
C4995 C4993 1.390 . S
C4995 C4996 1.387 . S
C4995 H4998 0.950 . S
C4996 C4995 1.387 . S
C4996 C4999 1.387 . S
H4997 C4993 0.950 . S
H4998 C4995 0.950 . S
C4999 C4990 1.390 . S
C4999 H4992 0.950 . S
C4999 C4996 1.387 . S
C5000 C5001 1.387 . S
C5000 H5004 0.950 . S
C5000 C5009 1.390 . S
C5001 C5000 1.387 . S
C5001 C5003 1.387 . S
H5002 C5009 0.950 . S
C5003 C5001 1.387 . S
C5003 C5005 1.390 . S
C5003 H5007 0.950 . S
H5004 C5000 0.950 . S
C5005 C5003 1.390 . S
C5005 C5006 1.387 . S
C5005 H5008 0.950 . S
C5006 C5005 1.387 . S
C5006 C5009 1.387 . S
H5007 C5003 0.950 . S
H5008 C5005 0.950 . S
C5009 C5000 1.390 . S
C5009 H5002 0.950 . S
C5009 C5006 1.387 . S
C5010 C5011 1.387 . S
C5010 H5014 0.950 . S
C5010 C5019 1.390 . S
C5011 C5010 1.387 . S
C5011 C5013 1.387 . S
H5012 C5019 0.950 . S
C5013 C5011 1.387 . S
C5013 C5015 1.390 . S
C5013 H5017 0.950 . S
H5014 C5010 0.950 . S
C5015 C5013 1.390 . S
C5015 C5016 1.387 . S
C5015 H5018 0.950 . S
C5016 C5015 1.387 . S
C5016 C5019 1.387 . S
H5017 C5013 0.950 . S
H5018 C5015 0.950 . S
C5019 C5010 1.390 . S
C5019 H5012 0.950 . S
C5019 C5016 1.387 . S
C5020 C5021 1.387 . S
C5020 H5024 0.950 . S
C5020 C5029 1.390 . S
C5021 C5020 1.387 . S
C5021 C5023 1.387 . S
H5022 C5029 0.950 . S
C5023 C5021 1.387 . S
C5023 C5025 1.390 . S
C5023 H5027 0.950 . S
H5024 C5020 0.950 . S
C5025 C5023 1.390 . S
C5025 C5026 1.387 . S
C5025 H5028 0.950 . S
C5026 C5025 1.387 . S
C5026 C5029 1.387 . S
H5027 C5023 0.950 . S
H5028 C5025 0.950 . S
C5029 C5020 1.390 . S
C5029 H5022 0.950 . S
C5029 C5026 1.387 . S
C5030 C5031 1.387 . S
C5030 H5034 0.950 . S
C5030 C5039 1.390 . S
C5031 C5030 1.387 . S
C5031 C5033 1.387 . S
H5032 C5039 0.950 . S
C5033 C5031 1.387 . S
C5033 C5035 1.390 . S
C5033 H5037 0.950 . S
H5034 C5030 0.950 . S
C5035 C5033 1.390 . S
C5035 C5036 1.387 . S
C5035 H5038 0.950 . S
C5036 C5035 1.387 . S
C5036 C5039 1.387 . S
H5037 C5033 0.950 . S
H5038 C5035 0.950 . S
C5039 C5030 1.390 . S
C5039 H5032 0.950 . S
C5039 C5036 1.387 . S
C5040 C5041 1.387 . S
C5040 H5044 0.950 . S
C5040 C5049 1.390 . S
C5041 C5040 1.387 . S
C5041 C5043 1.387 . S
H5042 C5049 0.950 . S
C5043 C5041 1.387 . S
C5043 C5045 1.390 . S
C5043 H5047 0.950 . S
H5044 C5040 0.950 . S
C5045 C5043 1.390 . S
C5045 C5046 1.387 . S
C5045 H5048 0.950 . S
C5046 C5045 1.387 . S
C5046 C5049 1.387 . S
H5047 C5043 0.950 . S
H5048 C5045 0.950 . S
C5049 C5040 1.390 . S
C5049 H5042 0.950 . S
C5049 C5046 1.387 . S
C5050 C5051 1.387 . S
C5050 H5054 0.950 . S
C5050 C5059 1.390 . S
C5051 C5050 1.387 . S
C5051 C5053 1.387 . S
H5052 C5059 0.950 . S
C5053 C5051 1.387 . S
C5053 C5055 1.390 . S
C5053 H5057 0.950 . S
H5054 C5050 0.950 . S
C5055 C5053 1.390 . S
C5055 C5056 1.387 . S
C5055 H5058 0.950 . S
C5056 C5055 1.387 . S
C5056 C5059 1.387 . S
H5057 C5053 0.950 . S
H5058 C5055 0.950 . S
C5059 C5050 1.390 . S
C5059 H5052 0.950 . S
C5059 C5056 1.387 . S
C5060 C5061 1.387 . S
C5060 H5064 0.950 . S
C5060 C5069 1.390 . S
C5061 C5060 1.387 . S
C5061 C5063 1.387 . S
H5062 C5069 0.950 . S
C5063 C5061 1.387 . S
C5063 C5065 1.390 . S
C5063 H5067 0.950 . S
H5064 C5060 0.950 . S
C5065 C5063 1.390 . S
C5065 C5066 1.387 . S
C5065 H5068 0.950 . S
C5066 C5065 1.387 . S
C5066 C5069 1.387 . S
H5067 C5063 0.950 . S
H5068 C5065 0.950 . S
C5069 C5060 1.390 . S
C5069 H5062 0.950 . S
C5069 C5066 1.387 . S
C5070 C5071 1.387 . S
C5070 H5074 0.950 . S
C5070 C5079 1.390 . S
C5071 C5070 1.387 . S
C5071 C5073 1.387 . S
H5072 C5079 0.950 . S
C5073 C5071 1.387 . S
C5073 C5075 1.390 . S
C5073 H5077 0.950 . S
H5074 C5070 0.950 . S
C5075 C5073 1.390 . S
C5075 C5076 1.387 . S
C5075 H5078 0.950 . S
C5076 C5075 1.387 . S
C5076 C5079 1.387 . S
H5077 C5073 0.950 . S
H5078 C5075 0.950 . S
C5079 C5070 1.390 . S
C5079 H5072 0.950 . S
C5079 C5076 1.387 . S
C5080 C5081 1.387 . S
C5080 H5084 0.950 . S
C5080 C5089 1.390 . S
C5081 C5080 1.387 . S
C5081 C5083 1.387 . S
H5082 C5089 0.950 . S
C5083 C5081 1.387 . S
C5083 C5085 1.390 . S
C5083 H5087 0.950 . S
H5084 C5080 0.950 . S
C5085 C5083 1.390 . S
C5085 C5086 1.387 . S
C5085 H5088 0.950 . S
C5086 C5085 1.387 . S
C5086 C5089 1.387 . S
H5087 C5083 0.950 . S
H5088 C5085 0.950 . S
C5089 C5080 1.390 . S
C5089 H5082 0.950 . S
C5089 C5086 1.387 . S
C5090 C5091 1.387 . S
C5090 H5094 0.950 . S
C5090 C5099 1.390 . S
C5091 C5090 1.387 . S
C5091 C5093 1.387 . S
H5092 C5099 0.950 . S
C5093 C5091 1.387 . S
C5093 C5095 1.390 . S
C5093 H5097 0.950 . S
H5094 C5090 0.950 . S
C5095 C5093 1.390 . S
C5095 C5096 1.387 . S
C5095 H5098 0.950 . S
C5096 C5095 1.387 . S
C5096 C5099 1.387 . S
H5097 C5093 0.950 . S
H5098 C5095 0.950 . S
C5099 C5090 1.390 . S
C5099 H5092 0.950 . S
C5099 C5096 1.387 . S
C5100 C5101 1.387 . S
C5100 H5104 0.950 . S
C5100 C5109 1.390 . S
C5101 C5100 1.387 . S
C5101 C5103 1.387 . S
H5102 C5109 0.950 . S
C5103 C5101 1.387 . S
C5103 C5105 1.390 . S
C5103 H5107 0.950 . S
H5104 C5100 0.950 . S
C5105 C5103 1.390 . S
C5105 C5106 1.387 . S
C5105 H5108 0.950 . S
C5106 C5105 1.387 . S
C5106 C5109 1.387 . S
H5107 C5103 0.950 . S
H5108 C5105 0.950 . S
C5109 C5100 1.390 . S
C5109 H5102 0.950 . S
C5109 C5106 1.387 . S
C5110 C5111 1.387 . S
C5110 H5114 0.950 . S
C5110 C5119 1.390 . S
C5111 C5110 1.387 . S
C5111 C5113 1.387 . S
H5112 C5119 0.950 . S
C5113 C5111 1.387 . S
C5113 C5115 1.390 . S
C5113 H5117 0.950 . S
H5114 C5110 0.950 . S
C5115 C5113 1.390 . S
C5115 C5116 1.387 . S
C5115 H5118 0.950 . S
C5116 C5115 1.387 . S
C5116 C5119 1.387 . S
H5117 C5113 0.950 . S
H5118 C5115 0.950 . S
C5119 C5110 1.390 . S
C5119 H5112 0.950 . S
C5119 C5116 1.387 . S
C5120 C5121 1.387 . S
C5120 H5124 0.950 . S
C5120 C5129 1.390 . S
C5121 C5120 1.387 . S
C5121 C5123 1.387 . S
H5122 C5129 0.950 . S
C5123 C5121 1.387 . S
C5123 C5125 1.390 . S
C5123 H5127 0.950 . S
H5124 C5120 0.950 . S
C5125 C5123 1.390 . S
C5125 C5126 1.387 . S
C5125 H5128 0.950 . S
C5126 C5125 1.387 . S
C5126 C5129 1.387 . S
H5127 C5123 0.950 . S
H5128 C5125 0.950 . S
C5129 C5120 1.390 . S
C5129 H5122 0.950 . S
C5129 C5126 1.387 . S
C5130 C5131 1.387 . S
C5130 H5134 0.950 . S
C5130 C5139 1.390 . S
C5131 C5130 1.387 . S
C5131 C5133 1.387 . S
H5132 C5139 0.950 . S
C5133 C5131 1.387 . S
C5133 C5135 1.390 . S
C5133 H5137 0.950 . S
H5134 C5130 0.950 . S
C5135 C5133 1.390 . S
C5135 C5136 1.387 . S
C5135 H5138 0.950 . S
C5136 C5135 1.387 . S
C5136 C5139 1.387 . S
H5137 C5133 0.950 . S
H5138 C5135 0.950 . S
C5139 C5130 1.390 . S
C5139 H5132 0.950 . S
C5139 C5136 1.387 . S
C5140 C5141 1.387 . S
C5140 H5144 0.950 . S
C5140 C5149 1.390 . S
C5141 C5140 1.387 . S
C5141 C5143 1.387 . S
H5142 C5149 0.950 . S
C5143 C5141 1.387 . S
C5143 C5145 1.390 . S
C5143 H5147 0.950 . S
H5144 C5140 0.950 . S
C5145 C5143 1.390 . S
C5145 C5146 1.387 . S
C5145 H5148 0.950 . S
C5146 C5145 1.387 . S
C5146 C5149 1.387 . S
H5147 C5143 0.950 . S
H5148 C5145 0.950 . S
C5149 C5140 1.390 . S
C5149 H5142 0.950 . S
C5149 C5146 1.387 . S
C5150 C5151 1.387 . S
C5150 H5154 0.950 . S
C5150 C5159 1.390 . S
C5151 C5150 1.387 . S
C5151 C5153 1.387 . S
H5152 C5159 0.950 . S
C5153 C5151 1.387 . S
C5153 C5155 1.390 . S
C5153 H5157 0.950 . S
H5154 C5150 0.950 . S
C5155 C5153 1.390 . S
C5155 C5156 1.387 . S
C5155 H5158 0.950 . S
C5156 C5155 1.387 . S
C5156 C5159 1.387 . S
H5157 C5153 0.950 . S
H5158 C5155 0.950 . S
C5159 C5150 1.390 . S
C5159 H5152 0.950 . S
C5159 C5156 1.387 . S
C5160 C5161 1.387 . S
C5160 H5164 0.950 . S
C5160 C5169 1.390 . S
C5161 C5160 1.387 . S
C5161 C5163 1.387 . S
H5162 C5169 0.950 . S
C5163 C5161 1.387 . S
C5163 C5165 1.390 . S
C5163 H5167 0.950 . S
H5164 C5160 0.950 . S
C5165 C5163 1.390 . S
C5165 C5166 1.387 . S
C5165 H5168 0.950 . S
C5166 C5165 1.387 . S
C5166 C5169 1.387 . S
H5167 C5163 0.950 . S
H5168 C5165 0.950 . S
C5169 C5160 1.390 . S
C5169 H5162 0.950 . S
C5169 C5166 1.387 . S
C5170 C5171 1.387 . S
C5170 H5174 0.950 . S
C5170 C5179 1.390 . S
C5171 C5170 1.387 . S
C5171 C5173 1.387 . S
H5172 C5179 0.950 . S
C5173 C5171 1.387 . S
C5173 C5175 1.390 . S
C5173 H5177 0.950 . S
H5174 C5170 0.950 . S
C5175 C5173 1.390 . S
C5175 C5176 1.387 . S
C5175 H5178 0.950 . S
C5176 C5175 1.387 . S
C5176 C5179 1.387 . S
H5177 C5173 0.950 . S
H5178 C5175 0.950 . S
C5179 C5170 1.390 . S
C5179 H5172 0.950 . S
C5179 C5176 1.387 . S
C5180 C5181 1.387 . S
C5180 H5184 0.950 . S
C5180 C5189 1.390 . S
C5181 C5180 1.387 . S
C5181 C5183 1.387 . S
H5182 C5189 0.950 . S
C5183 C5181 1.387 . S
C5183 C5185 1.390 . S
C5183 H5187 0.950 . S
H5184 C5180 0.950 . S
C5185 C5183 1.390 . S
C5185 C5186 1.387 . S
C5185 H5188 0.950 . S
C5186 C5185 1.387 . S
C5186 C5189 1.387 . S
H5187 C5183 0.950 . S
H5188 C5185 0.950 . S
C5189 C5180 1.390 . S
C5189 H5182 0.950 . S
C5189 C5186 1.387 . S
C5190 C5191 1.387 . S
C5190 H5194 0.950 . S
C5190 C5199 1.390 . S
C5191 C5190 1.387 . S
C5191 C5193 1.387 . S
H5192 C5199 0.950 . S
C5193 C5191 1.387 . S
C5193 C5195 1.390 . S
C5193 H5197 0.950 . S
H5194 C5190 0.950 . S
C5195 C5193 1.390 . S
C5195 C5196 1.387 . S
C5195 H5198 0.950 . S
C5196 C5195 1.387 . S
C5196 C5199 1.387 . S
H5197 C5193 0.950 . S
H5198 C5195 0.950 . S
C5199 C5190 1.390 . S
C5199 H5192 0.950 . S
C5199 C5196 1.387 . S
C5200 C5201 1.387 . S
C5200 H5204 0.950 . S
C5200 C5209 1.390 . S
C5201 C5200 1.387 . S
C5201 C5203 1.387 . S
H5202 C5209 0.950 . S
C5203 C5201 1.387 . S
C5203 C5205 1.390 . S
C5203 H5207 0.950 . S
H5204 C5200 0.950 . S
C5205 C5203 1.390 . S
C5205 C5206 1.387 . S
C5205 H5208 0.950 . S
C5206 C5205 1.387 . S
C5206 C5209 1.387 . S
H5207 C5203 0.950 . S
H5208 C5205 0.950 . S
C5209 C5200 1.390 . S
C5209 H5202 0.950 . S
C5209 C5206 1.387 . S
C5210 C5211 1.387 . S
C5210 H5214 0.950 . S
C5210 C5219 1.390 . S
C5211 C5210 1.387 . S
C5211 C5213 1.387 . S
H5212 C5219 0.950 . S
C5213 C5211 1.387 . S
C5213 C5215 1.390 . S
C5213 H5217 0.950 . S
H5214 C5210 0.950 . S
C5215 C5213 1.390 . S
C5215 C5216 1.387 . S
C5215 H5218 0.950 . S
C5216 C5215 1.387 . S
C5216 C5219 1.387 . S
H5217 C5213 0.950 . S
H5218 C5215 0.950 . S
C5219 C5210 1.390 . S
C5219 H5212 0.950 . S
C5219 C5216 1.387 . S
C5220 C5221 1.387 . S
C5220 H5224 0.950 . S
C5220 C5229 1.390 . S
C5221 C5220 1.387 . S
C5221 C5223 1.387 . S
H5222 C5229 0.950 . S
C5223 C5221 1.387 . S
C5223 C5225 1.390 . S
C5223 H5227 0.950 . S
H5224 C5220 0.950 . S
C5225 C5223 1.390 . S
C5225 C5226 1.387 . S
C5225 H5228 0.950 . S
C5226 C5225 1.387 . S
C5226 C5229 1.387 . S
H5227 C5223 0.950 . S
H5228 C5225 0.950 . S
C5229 C5220 1.390 . S
C5229 H5222 0.950 . S
C5229 C5226 1.387 . S
C5230 C5231 1.387 . S
C5230 H5234 0.950 . S
C5230 C5239 1.390 . S
C5231 C5230 1.387 . S
C5231 C5233 1.387 . S
H5232 C5239 0.950 . S
C5233 C5231 1.387 . S
C5233 C5235 1.390 . S
C5233 H5237 0.950 . S
H5234 C5230 0.950 . S
C5235 C5233 1.390 . S
C5235 C5236 1.387 . S
C5235 H5238 0.950 . S
C5236 C5235 1.387 . S
C5236 C5239 1.387 . S
H5237 C5233 0.950 . S
H5238 C5235 0.950 . S
C5239 C5230 1.390 . S
C5239 H5232 0.950 . S
C5239 C5236 1.387 . S
C5240 C5241 1.387 . S
C5240 H5244 0.950 . S
C5240 C5249 1.390 . S
C5241 C5240 1.387 . S
C5241 C5243 1.387 . S
H5242 C5249 0.950 . S
C5243 C5241 1.387 . S
C5243 C5245 1.390 . S
C5243 H5247 0.950 . S
H5244 C5240 0.950 . S
C5245 C5243 1.390 . S
C5245 C5246 1.387 . S
C5245 H5248 0.950 . S
C5246 C5245 1.387 . S
C5246 C5249 1.387 . S
H5247 C5243 0.950 . S
H5248 C5245 0.950 . S
C5249 C5240 1.390 . S
C5249 H5242 0.950 . S
C5249 C5246 1.387 . S
C5250 C5251 1.387 . S
C5250 H5254 0.950 . S
C5250 C5259 1.390 . S
C5251 C5250 1.387 . S
C5251 C5253 1.387 . S
H5252 C5259 0.950 . S
C5253 C5251 1.387 . S
C5253 C5255 1.390 . S
C5253 H5257 0.950 . S
H5254 C5250 0.950 . S
C5255 C5253 1.390 . S
C5255 C5256 1.387 . S
C5255 H5258 0.950 . S
C5256 C5255 1.387 . S
C5256 C5259 1.387 . S
H5257 C5253 0.950 . S
H5258 C5255 0.950 . S
C5259 C5250 1.390 . S
C5259 H5252 0.950 . S
C5259 C5256 1.387 . S
C5260 C5261 1.387 . S
C5260 H5264 0.950 . S
C5260 C5269 1.390 . S
C5261 C5260 1.387 . S
C5261 C5263 1.387 . S
H5262 C5269 0.950 . S
C5263 C5261 1.387 . S
C5263 C5265 1.390 . S
C5263 H5267 0.950 . S
H5264 C5260 0.950 . S
C5265 C5263 1.390 . S
C5265 C5266 1.387 . S
C5265 H5268 0.950 . S
C5266 C5265 1.387 . S
C5266 C5269 1.387 . S
H5267 C5263 0.950 . S
H5268 C5265 0.950 . S
C5269 C5260 1.390 . S
C5269 H5262 0.950 . S
C5269 C5266 1.387 . S
C5270 C5271 1.387 . S
C5270 H5274 0.950 . S
C5270 C5279 1.390 . S
C5271 C5270 1.387 . S
C5271 C5273 1.387 . S
H5272 C5279 0.950 . S
C5273 C5271 1.387 . S
C5273 C5275 1.390 . S
C5273 H5277 0.950 . S
H5274 C5270 0.950 . S
C5275 C5273 1.390 . S
C5275 C5276 1.387 . S
C5275 H5278 0.950 . S
C5276 C5275 1.387 . S
C5276 C5279 1.387 . S
H5277 C5273 0.950 . S
H5278 C5275 0.950 . S
C5279 C5270 1.390 . S
C5279 H5272 0.950 . S
C5279 C5276 1.387 . S
C5280 C5281 1.387 . S
C5280 H5284 0.950 . S
C5280 C5289 1.390 . S
C5281 C5280 1.387 . S
C5281 C5283 1.387 . S
H5282 C5289 0.950 . S
C5283 C5281 1.387 . S
C5283 C5285 1.390 . S
C5283 H5287 0.950 . S
H5284 C5280 0.950 . S
C5285 C5283 1.390 . S
C5285 C5286 1.387 . S
C5285 H5288 0.950 . S
C5286 C5285 1.387 . S
C5286 C5289 1.387 . S
H5287 C5283 0.950 . S
H5288 C5285 0.950 . S
C5289 C5280 1.390 . S
C5289 H5282 0.950 . S
C5289 C5286 1.387 . S
C5290 C5291 1.387 . S
C5290 H5294 0.950 . S
C5290 C5299 1.390 . S
C5291 C5290 1.387 . S
C5291 C5293 1.387 . S
H5292 C5299 0.950 . S
C5293 C5291 1.387 . S
C5293 C5295 1.390 . S
C5293 H5297 0.950 . S
H5294 C5290 0.950 . S
C5295 C5293 1.390 . S
C5295 C5296 1.387 . S
C5295 H5298 0.950 . S
C5296 C5295 1.387 . S
C5296 C5299 1.387 . S
H5297 C5293 0.950 . S
H5298 C5295 0.950 . S
C5299 C5290 1.390 . S
C5299 H5292 0.950 . S
C5299 C5296 1.387 . S
C5300 C5301 1.387 . S
C5300 H5304 0.950 . S
C5300 C5309 1.390 . S
C5301 C5300 1.387 . S
C5301 C5303 1.387 . S
H5302 C5309 0.950 . S
C5303 C5301 1.387 . S
C5303 C5305 1.390 . S
C5303 H5307 0.950 . S
H5304 C5300 0.950 . S
C5305 C5303 1.390 . S
C5305 C5306 1.387 . S
C5305 H5308 0.950 . S
C5306 C5305 1.387 . S
C5306 C5309 1.387 . S
H5307 C5303 0.950 . S
H5308 C5305 0.950 . S
C5309 C5300 1.390 . S
C5309 H5302 0.950 . S
C5309 C5306 1.387 . S
C5310 C5311 1.387 . S
C5310 H5314 0.950 . S
C5310 C5319 1.390 . S
C5311 C5310 1.387 . S
C5311 C5313 1.387 . S
H5312 C5319 0.950 . S
C5313 C5311 1.387 . S
C5313 C5315 1.390 . S
C5313 H5317 0.950 . S
H5314 C5310 0.950 . S
C5315 C5313 1.390 . S
C5315 C5316 1.387 . S
C5315 H5318 0.950 . S
C5316 C5315 1.387 . S
C5316 C5319 1.387 . S
H5317 C5313 0.950 . S
H5318 C5315 0.950 . S
C5319 C5310 1.390 . S
C5319 H5312 0.950 . S
C5319 C5316 1.387 . S
C5320 C5321 1.387 . S
C5320 H5324 0.950 . S
C5320 C5329 1.390 . S
C5321 C5320 1.387 . S
C5321 C5323 1.387 . S
H5322 C5329 0.950 . S
C5323 C5321 1.387 . S
C5323 C5325 1.390 . S
C5323 H5327 0.950 . S
H5324 C5320 0.950 . S
C5325 C5323 1.390 . S
C5325 C5326 1.387 . S
C5325 H5328 0.950 . S
C5326 C5325 1.387 . S
C5326 C5329 1.387 . S
H5327 C5323 0.950 . S
H5328 C5325 0.950 . S
C5329 C5320 1.390 . S
C5329 H5322 0.950 . S
C5329 C5326 1.387 . S
C5330 C5331 1.387 . S
C5330 H5334 0.950 . S
C5330 C5339 1.390 . S
C5331 C5330 1.387 . S
C5331 C5333 1.387 . S
H5332 C5339 0.950 . S
C5333 C5331 1.387 . S
C5333 C5335 1.390 . S
C5333 H5337 0.950 . S
H5334 C5330 0.950 . S
C5335 C5333 1.390 . S
C5335 C5336 1.387 . S
C5335 H5338 0.950 . S
C5336 C5335 1.387 . S
C5336 C5339 1.387 . S
H5337 C5333 0.950 . S
H5338 C5335 0.950 . S
C5339 C5330 1.390 . S
C5339 H5332 0.950 . S
C5339 C5336 1.387 . S
C5340 C5341 1.387 . S
C5340 H5344 0.950 . S
C5340 C5349 1.390 . S
C5341 C5340 1.387 . S
C5341 C5343 1.387 . S
H5342 C5349 0.950 . S
C5343 C5341 1.387 . S
C5343 C5345 1.390 . S
C5343 H5347 0.950 . S
H5344 C5340 0.950 . S
C5345 C5343 1.390 . S
C5345 C5346 1.387 . S
C5345 H5348 0.950 . S
C5346 C5345 1.387 . S
C5346 C5349 1.387 . S
H5347 C5343 0.950 . S
H5348 C5345 0.950 . S
C5349 C5340 1.390 . S
C5349 H5342 0.950 . S
C5349 C5346 1.387 . S
C5350 C5351 1.387 . S
C5350 H5354 0.950 . S
C5350 C5359 1.390 . S
C5351 C5350 1.387 . S
C5351 C5353 1.387 . S
H5352 C5359 0.950 . S
C5353 C5351 1.387 . S
C5353 C5355 1.390 . S
C5353 H5357 0.950 . S
H5354 C5350 0.950 . S
C5355 C5353 1.390 . S
C5355 C5356 1.387 . S
C5355 H5358 0.950 . S
C5356 C5355 1.387 . S
C5356 C5359 1.387 . S
H5357 C5353 0.950 . S
H5358 C5355 0.950 . S
C5359 C5350 1.390 . S
C5359 H5352 0.950 . S
C5359 C5356 1.387 . S
C5360 C5361 1.387 . S
C5360 H5364 0.950 . S
C5360 C5369 1.390 . S
C5361 C5360 1.387 . S
C5361 C5363 1.387 . S
H5362 C5369 0.950 . S
C5363 C5361 1.387 . S
C5363 C5365 1.390 . S
C5363 H5367 0.950 . S
H5364 C5360 0.950 . S
C5365 C5363 1.390 . S
C5365 C5366 1.387 . S
C5365 H5368 0.950 . S
C5366 C5365 1.387 . S
C5366 C5369 1.387 . S
H5367 C5363 0.950 . S
H5368 C5365 0.950 . S
C5369 C5360 1.390 . S
C5369 H5362 0.950 . S
C5369 C5366 1.387 . S
C5370 C5371 1.387 . S
C5370 H5374 0.950 . S
C5370 C5379 1.390 . S
C5371 C5370 1.387 . S
C5371 C5373 1.387 . S
H5372 C5379 0.950 . S
C5373 C5371 1.387 . S
C5373 C5375 1.390 . S
C5373 H5377 0.950 . S
H5374 C5370 0.950 . S
C5375 C5373 1.390 . S
C5375 C5376 1.387 . S
C5375 H5378 0.950 . S
C5376 C5375 1.387 . S
C5376 C5379 1.387 . S
H5377 C5373 0.950 . S
H5378 C5375 0.950 . S
C5379 C5370 1.390 . S
C5379 H5372 0.950 . S
C5379 C5376 1.387 . S
C5380 C5381 1.387 . S
C5380 H5384 0.950 . S
C5380 C5389 1.390 . S
C5381 C5380 1.387 . S
C5381 C5383 1.387 . S
H5382 C5389 0.950 . S
C5383 C5381 1.387 . S
C5383 C5385 1.390 . S
C5383 H5387 0.950 . S
H5384 C5380 0.950 . S
C5385 C5383 1.390 . S
C5385 C5386 1.387 . S
C5385 H5388 0.950 . S
C5386 C5385 1.387 . S
C5386 C5389 1.387 . S
H5387 C5383 0.950 . S
H5388 C5385 0.950 . S
C5389 C5380 1.390 . S
C5389 H5382 0.950 . S
C5389 C5386 1.387 . S
C5390 C5391 1.387 . S
C5390 H5394 0.950 . S
C5390 C5399 1.390 . S
C5391 C5390 1.387 . S
C5391 C5393 1.387 . S
H5392 C5399 0.950 . S
C5393 C5391 1.387 . S
C5393 C5395 1.390 . S
C5393 H5397 0.950 . S
H5394 C5390 0.950 . S
C5395 C5393 1.390 . S
C5395 C5396 1.387 . S
C5395 H5398 0.950 . S
C5396 C5395 1.387 . S
C5396 C5399 1.387 . S
H5397 C5393 0.950 . S
H5398 C5395 0.950 . S
C5399 C5390 1.390 . S
C5399 H5392 0.950 . S
C5399 C5396 1.387 . S
C5400 C5401 1.387 . S
C5400 H5404 0.950 . S
C5400 C5409 1.390 . S
C5401 C5400 1.387 . S
C5401 C5403 1.387 . S
H5402 C5409 0.950 . S
C5403 C5401 1.387 . S
C5403 C5405 1.390 . S
C5403 H5407 0.950 . S
H5404 C5400 0.950 . S
C5405 C5403 1.390 . S
C5405 C5406 1.387 . S
C5405 H5408 0.950 . S
C5406 C5405 1.387 . S
C5406 C5409 1.387 . S
H5407 C5403 0.950 . S
H5408 C5405 0.950 . S
C5409 C5400 1.390 . S
C5409 H5402 0.950 . S
C5409 C5406 1.387 . S
C5410 C5411 1.387 . S
C5410 H5414 0.950 . S
C5410 C5419 1.390 . S
C5411 C5410 1.387 . S
C5411 C5413 1.387 . S
H5412 C5419 0.950 . S
C5413 C5411 1.387 . S
C5413 C5415 1.390 . S
C5413 H5417 0.950 . S
H5414 C5410 0.950 . S
C5415 C5413 1.390 . S
C5415 C5416 1.387 . S
C5415 H5418 0.950 . S
C5416 C5415 1.387 . S
C5416 C5419 1.387 . S
H5417 C5413 0.950 . S
H5418 C5415 0.950 . S
C5419 C5410 1.390 . S
C5419 H5412 0.950 . S
C5419 C5416 1.387 . S
C5420 C5421 1.387 . S
C5420 H5424 0.950 . S
C5420 C5429 1.390 . S
C5421 C5420 1.387 . S
C5421 C5423 1.387 . S
H5422 C5429 0.950 . S
C5423 C5421 1.387 . S
C5423 C5425 1.390 . S
C5423 H5427 0.950 . S
H5424 C5420 0.950 . S
C5425 C5423 1.390 . S
C5425 C5426 1.387 . S
C5425 H5428 0.950 . S
C5426 C5425 1.387 . S
C5426 C5429 1.387 . S
H5427 C5423 0.950 . S
H5428 C5425 0.950 . S
C5429 C5420 1.390 . S
C5429 H5422 0.950 . S
C5429 C5426 1.387 . S
C5430 C5431 1.387 . S
C5430 H5434 0.950 . S
C5430 C5439 1.390 . S
C5431 C5430 1.387 . S
C5431 C5433 1.387 . S
H5432 C5439 0.950 . S
C5433 C5431 1.387 . S
C5433 C5435 1.390 . S
C5433 H5437 0.950 . S
H5434 C5430 0.950 . S
C5435 C5433 1.390 . S
C5435 C5436 1.387 . S
C5435 H5438 0.950 . S
C5436 C5435 1.387 . S
C5436 C5439 1.387 . S
H5437 C5433 0.950 . S
H5438 C5435 0.950 . S
C5439 C5430 1.390 . S
C5439 H5432 0.950 . S
C5439 C5436 1.387 . S
C5440 C5441 1.387 . S
C5440 H5444 0.950 . S
C5440 C5449 1.390 . S
C5441 C5440 1.387 . S
C5441 C5443 1.387 . S
H5442 C5449 0.950 . S
C5443 C5441 1.387 . S
C5443 C5445 1.390 . S
C5443 H5447 0.950 . S
H5444 C5440 0.950 . S
C5445 C5443 1.390 . S
C5445 C5446 1.387 . S
C5445 H5448 0.950 . S
C5446 C5445 1.387 . S
C5446 C5449 1.387 . S
H5447 C5443 0.950 . S
H5448 C5445 0.950 . S
C5449 C5440 1.390 . S
C5449 H5442 0.950 . S
C5449 C5446 1.387 . S
C5450 C5451 1.383 1_565 S
C5450 H5454 0.970 . S
C5450 C5459 1.374 1_565 S
C5451 C5450 1.383 1_545 S
C5451 C5453 1.406 . S
H5452 C5459 0.950 . S
C5453 C5451 1.406 . S
C5453 C5455 1.390 . S
C5453 H5457 0.950 . S
H5454 C5450 0.970 . S
C5455 C5453 1.390 . S
C5455 C5456 1.387 . S
C5455 H5458 0.950 . S
C5456 C5455 1.387 . S
C5456 C5459 1.387 . S
H5457 C5453 0.950 . S
H5458 C5455 0.950 . S
C5459 C5450 1.374 1_545 S
C5459 H5452 0.950 . S
C5459 C5456 1.387 . S
C5460 C5461 1.387 . S
C5460 H5464 0.950 . S
C5460 C5469 1.390 . S
C5461 C5460 1.387 . S
C5461 C5463 1.387 . S
H5462 C5469 0.950 . S
C5463 C5461 1.387 . S
C5463 C5465 1.390 . S
C5463 H5467 0.950 . S
H5464 C5460 0.950 . S
C5465 C5463 1.390 . S
C5465 C5466 1.387 . S
C5465 H5468 0.950 . S
C5466 C5465 1.387 . S
C5466 C5469 1.387 . S
H5467 C5463 0.950 . S
H5468 C5465 0.950 . S
C5469 C5460 1.390 . S
C5469 H5462 0.950 . S
C5469 C5466 1.387 . S
C5470 C5471 1.387 . S
C5470 H5474 0.950 . S
C5470 C5479 1.390 . S
C5471 C5470 1.387 . S
C5471 C5473 1.387 . S
H5472 C5479 0.950 . S
C5473 C5471 1.387 . S
C5473 C5475 1.390 . S
C5473 H5477 0.950 . S
H5474 C5470 0.950 . S
C5475 C5473 1.390 . S
C5475 C5476 1.387 . S
C5475 H5478 0.950 . S
C5476 C5475 1.387 . S
C5476 C5479 1.387 . S
H5477 C5473 0.950 . S
H5478 C5475 0.950 . S
C5479 C5470 1.390 . S
C5479 H5472 0.950 . S
C5479 C5476 1.387 . S
C5480 C5481 1.387 . S
C5480 H5484 0.950 . S
C5480 C5489 1.390 . S
C5481 C5480 1.387 . S
C5481 C5483 1.387 . S
H5482 C5489 0.950 . S
C5483 C5481 1.387 . S
C5483 C5485 1.390 . S
C5483 H5487 0.950 . S
H5484 C5480 0.950 . S
C5485 C5483 1.390 . S
C5485 C5486 1.387 . S
C5485 H5488 0.950 . S
C5486 C5485 1.387 . S
C5486 C5489 1.387 . S
H5487 C5483 0.950 . S
H5488 C5485 0.950 . S
C5489 C5480 1.390 . S
C5489 H5482 0.950 . S
C5489 C5486 1.387 . S
C5490 C5491 1.387 . S
C5490 H5494 0.950 . S
C5490 C5499 1.390 . S
C5491 C5490 1.387 . S
C5491 C5493 1.387 . S
H5492 C5499 0.950 . S
C5493 C5491 1.387 . S
C5493 C5495 1.390 . S
C5493 H5497 0.950 . S
H5494 C5490 0.950 . S
C5495 C5493 1.390 . S
C5495 C5496 1.387 . S
C5495 H5498 0.950 . S
C5496 C5495 1.387 . S
C5496 C5499 1.387 . S
H5497 C5493 0.950 . S
H5498 C5495 0.950 . S
C5499 C5490 1.390 . S
C5499 H5492 0.950 . S
C5499 C5496 1.387 . S
C5500 C5501 1.387 . S
C5500 H5504 0.950 . S
C5500 C5509 1.390 . S
C5501 C5500 1.387 . S
C5501 C5503 1.387 . S
H5502 C5509 0.950 . S
C5503 C5501 1.387 . S
C5503 C5505 1.390 . S
C5503 H5507 0.950 . S
H5504 C5500 0.950 . S
C5505 C5503 1.390 . S
C5505 C5506 1.387 . S
C5505 H5508 0.950 . S
C5506 C5505 1.387 . S
C5506 C5509 1.387 . S
H5507 C5503 0.950 . S
H5508 C5505 0.950 . S
C5509 C5500 1.390 . S
C5509 H5502 0.950 . S
C5509 C5506 1.387 . S
C5510 C5511 1.387 . S
C5510 H5514 0.950 . S
C5510 C5519 1.390 . S
C5511 C5510 1.387 . S
C5511 C5513 1.387 . S
H5512 C5519 0.950 . S
C5513 C5511 1.387 . S
C5513 C5515 1.390 . S
C5513 H5517 0.950 . S
H5514 C5510 0.950 . S
C5515 C5513 1.390 . S
C5515 C5516 1.387 . S
C5515 H5518 0.950 . S
C5516 C5515 1.387 . S
C5516 C5519 1.387 . S
H5517 C5513 0.950 . S
H5518 C5515 0.950 . S
C5519 C5510 1.390 . S
C5519 H5512 0.950 . S
C5519 C5516 1.387 . S
C5520 C5521 1.387 . S
C5520 H5524 0.950 . S
C5520 C5529 1.390 . S
C5521 C5520 1.387 . S
C5521 C5523 1.387 . S
H5522 C5529 0.950 . S
C5523 C5521 1.387 . S
C5523 C5525 1.390 . S
C5523 H5527 0.950 . S
H5524 C5520 0.950 . S
C5525 C5523 1.390 . S
C5525 C5526 1.387 . S
C5525 H5528 0.950 . S
C5526 C5525 1.387 . S
C5526 C5529 1.387 . S
H5527 C5523 0.950 . S
H5528 C5525 0.950 . S
C5529 C5520 1.390 . S
C5529 H5522 0.950 . S
C5529 C5526 1.387 . S
C5530 C5531 1.387 . S
C5530 H5534 0.950 . S
C5530 C5539 1.390 . S
C5531 C5530 1.387 . S
C5531 C5533 1.387 . S
H5532 C5539 0.950 . S
C5533 C5531 1.387 . S
C5533 C5535 1.390 . S
C5533 H5537 0.950 . S
H5534 C5530 0.950 . S
C5535 C5533 1.390 . S
C5535 C5536 1.387 . S
C5535 H5538 0.950 . S
C5536 C5535 1.387 . S
C5536 C5539 1.387 . S
H5537 C5533 0.950 . S
H5538 C5535 0.950 . S
C5539 C5530 1.390 . S
C5539 H5532 0.950 . S
C5539 C5536 1.387 . S
C5540 C5541 1.387 . S
C5540 H5544 0.950 . S
C5540 C5549 1.390 . S
C5541 C5540 1.387 . S
C5541 C5543 1.387 . S
H5542 C5549 0.950 . S
C5543 C5541 1.387 . S
C5543 C5545 1.390 . S
C5543 H5547 0.950 1_554 S
H5544 C5540 0.950 . S
C5545 C5543 1.390 . S
C5545 C5546 1.387 . S
C5545 H5548 0.950 . S
C5546 C5545 1.387 . S
C5546 C5549 1.387 . S
H5547 C5543 0.950 1_556 S
H5548 C5545 0.950 . S
C5549 C5540 1.390 . S
C5549 H5542 0.950 . S
C5549 C5546 1.387 . S
C5550 C5551 1.387 . S
C5550 H5554 0.950 . S
C5550 C5559 1.390 . S
C5551 C5550 1.387 . S
C5551 C5553 1.387 . S
H5552 C5559 0.950 . S
C5553 C5551 1.387 . S
C5553 C5555 1.390 . S
C5553 H5557 0.950 . S
H5554 C5550 0.950 . S
C5555 C5553 1.390 . S
C5555 C5556 1.387 . S
C5555 H5558 0.950 . S
C5556 C5555 1.387 . S
C5556 C5559 1.387 . S
H5557 C5553 0.950 . S
H5558 C5555 0.950 . S
C5559 C5550 1.390 . S
C5559 H5552 0.950 . S
C5559 C5556 1.387 . S
C5560 C5561 1.387 . S
C5560 H5564 0.950 . S
C5560 C5569 1.390 . S
C5561 C5560 1.387 . S
C5561 C5563 1.387 . S
H5562 C5569 0.950 . S
C5563 C5561 1.387 . S
C5563 C5565 1.390 . S
C5563 H5567 0.950 . S
H5564 C5560 0.950 . S
C5565 C5563 1.390 . S
C5565 C5566 1.387 . S
C5565 H5568 0.950 . S
C5566 C5565 1.387 . S
C5566 C5569 1.387 . S
H5567 C5563 0.950 . S
H5568 C5565 0.950 . S
C5569 C5560 1.390 . S
C5569 H5562 0.950 . S
C5569 C5566 1.387 . S
C5570 C5571 1.387 . S
C5570 H5574 0.950 . S
C5570 C5579 1.390 . S
C5571 C5570 1.387 . S
C5571 C5573 1.387 . S
H5572 C5579 0.950 . S
C5573 C5571 1.387 . S
C5573 C5575 1.390 . S
C5573 H5577 0.950 . S
H5574 C5570 0.950 . S
C5575 C5573 1.390 . S
C5575 C5576 1.387 . S
C5575 H5578 0.950 . S
C5576 C5575 1.387 . S
C5576 C5579 1.387 . S
H5577 C5573 0.950 . S
H5578 C5575 0.950 . S
C5579 C5570 1.390 . S
C5579 H5572 0.950 . S
C5579 C5576 1.387 . S
C5580 C5581 1.387 . S
C5580 H5584 0.950 . S
C5580 C5589 1.390 . S
C5581 C5580 1.387 . S
C5581 C5583 1.387 . S
H5582 C5589 0.950 . S
C5583 C5581 1.387 . S
C5583 C5585 1.390 . S
C5583 H5587 0.950 . S
H5584 C5580 0.950 . S
C5585 C5583 1.390 . S
C5585 C5586 1.387 . S
C5585 H5588 0.950 . S
C5586 C5585 1.387 . S
C5586 C5589 1.387 . S
H5587 C5583 0.950 . S
H5588 C5585 0.950 . S
C5589 C5580 1.390 . S
C5589 H5582 0.950 . S
C5589 C5586 1.387 . S
C5590 C5591 1.387 . S
C5590 H5594 0.950 . S
C5590 C5599 1.390 . S
C5591 C5590 1.387 . S
C5591 C5593 1.387 . S
H5592 C5599 0.950 . S
C5593 C5591 1.387 . S
C5593 C5595 1.390 . S
C5593 H5597 0.950 . S
H5594 C5590 0.950 . S
C5595 C5593 1.390 . S
C5595 C5596 1.387 . S
C5595 H5598 0.950 . S
C5596 C5595 1.387 . S
C5596 C5599 1.387 . S
H5597 C5593 0.950 . S
H5598 C5595 0.950 . S
C5599 C5590 1.390 . S
C5599 H5592 0.950 . S
C5599 C5596 1.387 . S
C5600 C5601 1.387 . S
C5600 H5604 0.950 . S
C5600 C5609 1.390 . S
C5601 C5600 1.387 . S
C5601 C5603 1.387 . S
H5602 C5609 0.950 . S
C5603 C5601 1.387 . S
C5603 C5605 1.390 . S
C5603 H5607 0.950 . S
H5604 C5600 0.950 . S
C5605 C5603 1.390 . S
C5605 C5606 1.387 . S
C5605 H5608 0.950 . S
C5606 C5605 1.387 . S
C5606 C5609 1.387 . S
H5607 C5603 0.950 . S
H5608 C5605 0.950 . S
C5609 C5600 1.390 . S
C5609 H5602 0.950 . S
C5609 C5606 1.387 . S
C5610 C5611 1.387 . S
C5610 H5614 0.950 . S
C5610 C5619 1.390 . S
C5611 C5610 1.387 . S
C5611 C5613 1.387 . S
H5612 C5619 0.950 . S
C5613 C5611 1.387 . S
C5613 C5615 1.390 . S
C5613 H5617 0.950 . S
H5614 C5610 0.950 . S
C5615 C5613 1.390 . S
C5615 C5616 1.387 . S
C5615 H5618 0.950 . S
C5616 C5615 1.387 . S
C5616 C5619 1.387 . S
H5617 C5613 0.950 . S
H5618 C5615 0.950 . S
C5619 C5610 1.390 . S
C5619 H5612 0.950 . S
C5619 C5616 1.387 . S
C5620 C5621 1.387 . S
C5620 H5624 0.950 . S
C5620 C5629 1.390 . S
C5621 C5620 1.387 . S
C5621 C5623 1.387 . S
H5622 C5629 0.950 . S
C5623 C5621 1.387 . S
C5623 C5625 1.390 . S
C5623 H5627 0.950 . S
H5624 C5620 0.950 . S
C5625 C5623 1.390 . S
C5625 C5626 1.387 . S
C5625 H5628 0.950 . S
C5626 C5625 1.387 . S
C5626 C5629 1.387 . S
H5627 C5623 0.950 . S
H5628 C5625 0.950 . S
C5629 C5620 1.390 . S
C5629 H5622 0.950 . S
C5629 C5626 1.387 . S
C5630 C5631 1.387 . S
C5630 H5634 0.950 . S
C5630 C5639 1.390 . S
C5631 C5630 1.387 . S
C5631 C5633 1.387 . S
H5632 C5639 0.950 . S
C5633 C5631 1.387 . S
C5633 C5635 1.390 . S
C5633 H5637 0.950 . S
H5634 C5630 0.950 . S
C5635 C5633 1.390 . S
C5635 C5636 1.387 . S
C5635 H5638 0.950 . S
C5636 C5635 1.387 . S
C5636 C5639 1.387 . S
H5637 C5633 0.950 . S
H5638 C5635 0.950 . S
C5639 C5630 1.390 . S
C5639 H5632 0.950 . S
C5639 C5636 1.387 . S
C5640 C5641 1.387 . S
C5640 H5644 0.950 . S
C5640 C5649 1.390 . S
C5641 C5640 1.387 . S
C5641 C5643 1.387 . S
H5642 C5649 0.950 . S
C5643 C5641 1.387 . S
C5643 C5645 1.390 . S
C5643 H5647 0.950 . S
H5644 C5640 0.950 . S
C5645 C5643 1.390 . S
C5645 C5646 1.387 . S
C5645 H5648 0.950 . S
C5646 C5645 1.387 . S
C5646 C5649 1.387 . S
H5647 C5643 0.950 . S
H5648 C5645 0.950 . S
C5649 C5640 1.390 . S
C5649 H5642 0.950 . S
C5649 C5646 1.387 . S
C5650 C5651 1.387 . S
C5650 H5654 0.950 . S
C5650 C5659 1.390 . S
C5651 C5650 1.387 . S
C5651 C5653 1.387 . S
H5652 C5659 0.950 . S
C5653 C5651 1.387 . S
C5653 C5655 1.390 . S
C5653 H5657 0.950 . S
H5654 C5650 0.950 . S
C5655 C5653 1.390 . S
C5655 C5656 1.387 . S
C5655 H5658 0.950 . S
C5656 C5655 1.387 . S
C5656 C5659 1.387 . S
H5657 C5653 0.950 . S
H5658 C5655 0.950 . S
C5659 C5650 1.390 . S
C5659 H5652 0.950 . S
C5659 C5656 1.387 . S
C5660 C5661 1.387 . S
C5660 H5664 0.950 . S
C5660 C5669 1.390 . S
C5661 C5660 1.387 . S
C5661 C5663 1.387 . S
H5662 C5669 0.950 . S
C5663 C5661 1.387 . S
C5663 C5665 1.390 . S
C5663 H5667 0.950 . S
H5664 C5660 0.950 . S
C5665 C5663 1.390 . S
C5665 C5666 1.387 . S
C5665 H5668 0.950 . S
C5666 C5665 1.387 . S
C5666 C5669 1.387 . S
H5667 C5663 0.950 . S
H5668 C5665 0.950 . S
C5669 C5660 1.390 . S
C5669 H5662 0.950 . S
C5669 C5666 1.387 . S
C5670 C5671 1.387 . S
C5670 H5674 0.950 . S
C5670 C5679 1.390 . S
C5671 C5670 1.387 . S
C5671 C5673 1.387 . S
H5672 C5679 0.950 . S
C5673 C5671 1.387 . S
C5673 C5675 1.390 . S
C5673 H5677 0.950 . S
H5674 C5670 0.950 . S
C5675 C5673 1.390 . S
C5675 C5676 1.387 . S
C5675 H5678 0.950 . S
C5676 C5675 1.387 . S
C5676 C5679 1.387 . S
H5677 C5673 0.950 . S
H5678 C5675 0.950 . S
C5679 C5670 1.390 . S
C5679 H5672 0.950 . S
C5679 C5676 1.387 . S
C5680 C5681 1.387 . S
C5680 H5684 0.950 . S
C5680 C5689 1.390 . S
C5681 C5680 1.387 . S
C5681 C5683 1.387 . S
H5682 C5689 0.950 . S
C5683 C5681 1.387 . S
C5683 C5685 1.390 . S
C5683 H5687 0.950 . S
H5684 C5680 0.950 . S
C5685 C5683 1.390 . S
C5685 C5686 1.387 . S
C5685 H5688 0.950 . S
C5686 C5685 1.387 . S
C5686 C5689 1.387 . S
H5687 C5683 0.950 . S
H5688 C5685 0.950 . S
C5689 C5680 1.390 . S
C5689 H5682 0.950 . S
C5689 C5686 1.387 . S
C5690 C5691 1.387 . S
C5690 H5694 0.950 . S
C5690 C5699 1.390 . S
C5691 C5690 1.387 . S
C5691 C5693 1.387 . S
H5692 C5699 0.968 . S
C5693 C5691 1.387 . S
C5693 C5695 1.390 . S
C5693 H5697 0.950 . S
H5694 C5690 0.950 . S
C5695 C5693 1.390 . S
C5695 C5696 1.399 . S
C5695 H5698 0.950 . S
C5696 C5695 1.399 . S
C5696 C5699 1.396 . S
H5697 C5693 0.950 . S
H5698 C5695 0.950 . S
C5699 C5690 1.390 . S
C5699 H5692 0.968 . S
C5699 C5696 1.396 . S
C5700 C5701 1.387 . S
C5700 H5704 0.950 . S
C5700 C5709 1.390 . S
C5701 C5700 1.387 . S
C5701 C5703 1.387 . S
H5702 C5709 0.950 . S
C5703 C5701 1.387 . S
C5703 C5705 1.390 . S
C5703 H5707 0.950 . S
H5704 C5700 0.950 . S
C5705 C5703 1.390 . S
C5705 C5706 1.387 . S
C5705 H5708 0.950 . S
C5706 C5705 1.387 . S
C5706 C5709 1.387 . S
H5707 C5703 0.950 . S
H5708 C5705 0.950 . S
C5709 C5700 1.390 . S
C5709 H5702 0.950 . S
C5709 C5706 1.387 . S
C5710 C5711 1.387 . S
C5710 H5714 0.950 . S
C5710 C5719 1.390 . S
C5711 C5710 1.387 . S
C5711 C5713 1.387 . S
H5712 C5719 0.950 . S
C5713 C5711 1.387 . S
C5713 C5715 1.390 . S
C5713 H5717 0.950 . S
H5714 C5710 0.950 . S
C5715 C5713 1.390 . S
C5715 C5716 1.387 . S
C5715 H5718 0.950 . S
C5716 C5715 1.387 . S
C5716 C5719 1.387 . S
H5717 C5713 0.950 . S
H5718 C5715 0.950 . S
C5719 C5710 1.390 . S
C5719 H5712 0.950 . S
C5719 C5716 1.387 . S
C5720 C5721 1.387 . S
C5720 H5724 0.950 . S
C5720 C5729 1.390 . S
C5721 C5720 1.387 . S
C5721 C5723 1.387 . S
H5722 C5729 0.950 . S
C5723 C5721 1.387 . S
C5723 C5725 1.390 . S
C5723 H5727 0.950 . S
H5724 C5720 0.950 . S
C5725 C5723 1.390 . S
C5725 C5726 1.387 . S
C5725 H5728 0.950 . S
C5726 C5725 1.387 . S
C5726 C5729 1.387 . S
H5727 C5723 0.950 . S
H5728 C5725 0.950 . S
C5729 C5720 1.390 . S
C5729 H5722 0.950 . S
C5729 C5726 1.387 . S
C5730 C5731 1.387 . S
C5730 H5734 0.950 . S
C5730 C5739 1.390 . S
C5731 C5730 1.387 . S
C5731 C5733 1.387 . S
H5732 C5739 0.950 . S
C5733 C5731 1.387 . S
C5733 C5735 1.390 . S
C5733 H5737 0.950 . S
H5734 C5730 0.950 . S
C5735 C5733 1.390 . S
C5735 C5736 1.387 . S
C5735 H5738 0.950 . S
C5736 C5735 1.387 . S
C5736 C5739 1.387 . S
H5737 C5733 0.950 . S
H5738 C5735 0.950 . S
C5739 C5730 1.390 . S
C5739 H5732 0.950 . S
C5739 C5736 1.387 . S
C5740 C5741 1.387 . S
C5740 H5744 0.950 . S
C5740 C5749 1.390 . S
C5741 C5740 1.387 . S
C5741 C5743 1.387 . S
H5742 C5749 0.950 . S
C5743 C5741 1.387 . S
C5743 C5745 1.390 . S
C5743 H5747 0.950 . S
H5744 C5740 0.950 . S
C5745 C5743 1.390 . S
C5745 C5746 1.387 . S
C5745 H5748 0.950 . S
C5746 C5745 1.387 . S
C5746 C5749 1.387 . S
H5747 C5743 0.950 . S
H5748 C5745 0.950 . S
C5749 C5740 1.390 . S
C5749 H5742 0.950 . S
C5749 C5746 1.387 . S
C5750 C5751 1.387 . S
C5750 H5754 0.950 . S
C5750 C5759 1.390 . S
C5751 C5750 1.387 . S
C5751 C5753 1.387 . S
H5752 C5759 0.950 . S
C5753 C5751 1.387 . S
C5753 C5755 1.390 . S
C5753 H5757 0.950 . S
H5754 C5750 0.950 . S
C5755 C5753 1.390 . S
C5755 C5756 1.387 . S
C5755 H5758 0.950 . S
C5756 C5755 1.387 . S
C5756 C5759 1.387 . S
H5757 C5753 0.950 . S
H5758 C5755 0.950 . S
C5759 C5750 1.390 . S
C5759 H5752 0.950 . S
C5759 C5756 1.387 . S
C5760 C5761 1.387 . S
C5760 H5764 0.950 . S
C5760 C5769 1.390 . S
C5761 C5760 1.387 . S
C5761 C5763 1.387 . S
H5762 C5769 0.950 . S
C5763 C5761 1.387 . S
C5763 C5765 1.390 . S
C5763 H5767 0.950 . S
H5764 C5760 0.950 . S
C5765 C5763 1.390 . S
C5765 C5766 1.387 . S
C5765 H5768 0.950 . S
C5766 C5765 1.387 . S
C5766 C5769 1.387 . S
H5767 C5763 0.950 . S
H5768 C5765 0.950 . S
C5769 C5760 1.390 . S
C5769 H5762 0.950 . S
C5769 C5766 1.387 . S
C5770 C5771 1.387 . S
C5770 H5774 0.950 . S
C5770 C5779 1.390 . S
C5771 C5770 1.387 . S
C5771 C5773 1.387 . S
H5772 C5779 0.950 . S
C5773 C5771 1.387 . S
C5773 C5775 1.390 . S
C5773 H5777 0.950 . S
H5774 C5770 0.950 . S
C5775 C5773 1.390 . S
C5775 C5776 1.387 . S
C5775 H5778 0.950 . S
C5776 C5775 1.387 . S
C5776 C5779 1.387 . S
H5777 C5773 0.950 . S
H5778 C5775 0.950 . S
C5779 C5770 1.390 . S
C5779 H5772 0.950 . S
C5779 C5776 1.387 . S
C5780 C5781 1.387 . S
C5780 H5784 0.950 . S
C5780 C5789 1.390 . S
C5781 C5780 1.387 . S
C5781 C5783 1.387 . S
H5782 C5789 0.950 . S
C5783 C5781 1.387 . S
C5783 C5785 1.390 . S
C5783 H5787 0.950 . S
H5784 C5780 0.950 . S
C5785 C5783 1.390 . S
C5785 C5786 1.387 . S
C5785 H5788 0.950 . S
C5786 C5785 1.387 . S
C5786 C5789 1.387 . S
H5787 C5783 0.950 . S
H5788 C5785 0.950 . S
C5789 C5780 1.390 . S
C5789 H5782 0.950 . S
C5789 C5786 1.387 . S
C5790 C5791 1.387 . S
C5790 H5794 0.950 . S
C5790 C5799 1.390 . S
C5791 C5790 1.387 . S
C5791 C5793 1.387 . S
H5792 C5799 0.950 . S
C5793 C5791 1.387 . S
C5793 C5795 1.390 . S
C5793 H5797 0.950 . S
H5794 C5790 0.950 . S
C5795 C5793 1.390 . S
C5795 C5796 1.387 . S
C5795 H5798 0.950 . S
C5796 C5795 1.387 . S
C5796 C5799 1.387 . S
H5797 C5793 0.950 . S
H5798 C5795 0.950 . S
C5799 C5790 1.390 . S
C5799 H5792 0.950 . S
C5799 C5796 1.387 . S
C5800 C5801 1.387 . S
C5800 H5804 0.950 . S
C5800 C5809 1.390 . S
C5801 C5800 1.387 . S
C5801 C5803 1.387 . S
H5802 C5809 0.950 . S
C5803 C5801 1.387 . S
C5803 C5805 1.390 . S
C5803 H5807 0.950 . S
H5804 C5800 0.950 . S
C5805 C5803 1.390 . S
C5805 C5806 1.387 . S
C5805 H5808 0.950 . S
C5806 C5805 1.387 . S
C5806 C5809 1.387 . S
H5807 C5803 0.950 . S
H5808 C5805 0.950 . S
C5809 C5800 1.390 . S
C5809 H5802 0.950 . S
C5809 C5806 1.387 . S
C5810 C5811 1.387 . S
C5810 H5814 0.950 . S
C5810 C5819 1.390 . S
C5811 C5810 1.387 . S
C5811 C5813 1.387 . S
H5812 C5819 0.950 . S
C5813 C5811 1.387 . S
C5813 C5815 1.390 . S
C5813 H5817 0.950 . S
H5814 C5810 0.950 . S
C5815 C5813 1.390 . S
C5815 C5816 1.387 . S
C5815 H5818 0.950 . S
C5816 C5815 1.387 . S
C5816 C5819 1.387 . S
H5817 C5813 0.950 . S
H5818 C5815 0.950 . S
C5819 C5810 1.390 . S
C5819 H5812 0.950 . S
C5819 C5816 1.387 . S
C5820 C5821 1.387 . S
C5820 H5824 0.950 . S
C5820 C5829 1.390 . S
C5821 C5820 1.387 . S
C5821 C5823 1.387 . S
H5822 C5829 0.950 . S
C5823 C5821 1.387 . S
C5823 C5825 1.390 . S
C5823 H5827 0.950 . S
H5824 C5820 0.950 . S
C5825 C5823 1.390 . S
C5825 C5826 1.387 . S
C5825 H5828 0.950 . S
C5826 C5825 1.387 . S
C5826 C5829 1.387 . S
H5827 C5823 0.950 . S
H5828 C5825 0.950 . S
C5829 C5820 1.390 . S
C5829 H5822 0.950 . S
C5829 C5826 1.387 . S
C5830 C5831 1.387 . S
C5830 H5834 0.950 . S
C5830 C5839 1.390 . S
C5831 C5830 1.387 . S
C5831 C5833 1.387 . S
H5832 C5839 0.950 . S
C5833 C5831 1.387 . S
C5833 C5835 1.390 . S
C5833 H5837 0.950 . S
H5834 C5830 0.950 . S
C5835 C5833 1.390 . S
C5835 C5836 1.387 . S
C5835 H5838 0.950 . S
C5836 C5835 1.387 . S
C5836 C5839 1.387 . S
H5837 C5833 0.950 . S
H5838 C5835 0.950 . S
C5839 C5830 1.390 . S
C5839 H5832 0.950 . S
C5839 C5836 1.387 . S
C5840 C5841 1.387 . S
C5840 H5844 0.950 . S
C5840 C5849 1.390 . S
C5841 C5840 1.387 . S
C5841 C5843 1.387 . S
H5842 C5849 0.950 . S
C5843 C5841 1.387 . S
C5843 C5845 1.390 . S
C5843 H5847 0.950 . S
H5844 C5840 0.950 . S
C5845 C5843 1.390 . S
C5845 C5846 1.387 . S
C5845 H5848 0.950 . S
C5846 C5845 1.387 . S
C5846 C5849 1.387 . S
H5847 C5843 0.950 . S
H5848 C5845 0.950 . S
C5849 C5840 1.390 . S
C5849 H5842 0.950 . S
C5849 C5846 1.387 . S
C5850 C5851 1.387 . S
C5850 H5854 0.950 . S
C5850 C5859 1.390 . S
C5851 C5850 1.387 . S
C5851 C5853 1.387 . S
H5852 C5859 0.950 . S
C5853 C5851 1.387 . S
C5853 C5855 1.390 . S
C5853 H5857 0.950 . S
H5854 C5850 0.950 . S
C5855 C5853 1.390 . S
C5855 C5856 1.387 . S
C5855 H5858 0.950 . S
C5856 C5855 1.387 . S
C5856 C5859 1.387 . S
H5857 C5853 0.950 . S
H5858 C5855 0.950 . S
C5859 C5850 1.390 . S
C5859 H5852 0.950 . S
C5859 C5856 1.387 . S
C5860 C5861 1.387 . S
C5860 H5864 0.950 . S
C5860 C5869 1.390 . S
C5861 C5860 1.387 . S
C5861 C5863 1.387 . S
H5862 C5869 0.950 . S
C5863 C5861 1.387 . S
C5863 C5865 1.390 . S
C5863 H5867 0.950 . S
H5864 C5860 0.950 . S
C5865 C5863 1.390 . S
C5865 C5866 1.387 . S
C5865 H5868 0.950 . S
C5866 C5865 1.387 . S
C5866 C5869 1.387 . S
H5867 C5863 0.950 . S
H5868 C5865 0.950 . S
C5869 C5860 1.390 . S
C5869 H5862 0.950 . S
C5869 C5866 1.387 . S
C5870 C5871 1.387 . S
C5870 H5874 0.950 . S
C5870 C5879 1.390 . S
C5871 C5870 1.387 . S
C5871 C5873 1.387 . S
H5872 C5879 0.950 . S
C5873 C5871 1.387 . S
C5873 C5875 1.390 . S
C5873 H5877 0.950 . S
H5874 C5870 0.950 . S
C5875 C5873 1.390 . S
C5875 C5876 1.387 . S
C5875 H5878 0.950 . S
C5876 C5875 1.387 . S
C5876 C5879 1.387 . S
H5877 C5873 0.950 . S
H5878 C5875 0.950 . S
C5879 C5870 1.390 . S
C5879 H5872 0.950 . S
C5879 C5876 1.387 . S
C5880 C5881 1.387 . S
C5880 H5884 0.950 . S
C5880 C5889 1.390 . S
C5881 C5880 1.387 . S
C5881 C5883 1.387 . S
H5882 C5889 0.950 . S
C5883 C5881 1.387 . S
C5883 C5885 1.390 . S
C5883 H5887 0.950 . S
H5884 C5880 0.950 . S
C5885 C5883 1.390 . S
C5885 C5886 1.387 . S
C5885 H5888 0.950 . S
C5886 C5885 1.387 . S
C5886 C5889 1.387 . S
H5887 C5883 0.950 . S
H5888 C5885 0.950 . S
C5889 C5880 1.390 . S
C5889 H5882 0.950 . S
C5889 C5886 1.387 . S
C5890 C5891 1.387 . S
C5890 H5894 0.950 . S
C5890 C5899 1.390 . S
C5891 C5890 1.387 . S
C5891 C5893 1.387 . S
H5892 C5899 0.950 . S
C5893 C5891 1.387 . S
C5893 C5895 1.390 . S
C5893 H5897 0.950 . S
H5894 C5890 0.950 . S
C5895 C5893 1.390 . S
C5895 C5896 1.387 . S
C5895 H5898 0.950 . S
C5896 C5895 1.387 . S
C5896 C5899 1.387 . S
H5897 C5893 0.950 . S
H5898 C5895 0.950 . S
C5899 C5890 1.390 . S
C5899 H5892 0.950 . S
C5899 C5896 1.387 . S
C5900 C5901 1.387 . S
C5900 H5904 0.950 . S
C5900 C5909 1.390 . S
C5901 C5900 1.387 . S
C5901 C5903 1.387 . S
H5902 C5909 0.950 . S
C5903 C5901 1.387 . S
C5903 C5905 1.390 . S
C5903 H5907 0.950 . S
H5904 C5900 0.950 . S
C5905 C5903 1.390 . S
C5905 C5906 1.387 . S
C5905 H5908 0.950 . S
C5906 C5905 1.387 . S
C5906 C5909 1.387 . S
H5907 C5903 0.950 . S
H5908 C5905 0.950 . S
C5909 C5900 1.390 . S
C5909 H5902 0.950 . S
C5909 C5906 1.387 . S
C5910 C5911 1.387 . S
C5910 H5914 0.950 . S
C5910 C5919 1.390 . S
C5911 C5910 1.387 . S
C5911 C5913 1.387 . S
H5912 C5919 0.950 . S
C5913 C5911 1.387 . S
C5913 C5915 1.390 . S
C5913 H5917 0.950 . S
H5914 C5910 0.950 . S
C5915 C5913 1.390 . S
C5915 C5916 1.387 . S
C5915 H5918 0.950 . S
C5916 C5915 1.387 . S
C5916 C5919 1.387 . S
H5917 C5913 0.950 . S
H5918 C5915 0.950 . S
C5919 C5910 1.390 . S
C5919 H5912 0.950 . S
C5919 C5916 1.387 . S
C5920 C5921 1.387 . S
C5920 H5924 0.950 . S
C5920 C5929 1.390 . S
C5921 C5920 1.387 . S
C5921 C5923 1.387 . S
H5922 C5929 0.950 . S
C5923 C5921 1.387 . S
C5923 C5925 1.390 . S
C5923 H5927 0.950 . S
H5924 C5920 0.950 . S
C5925 C5923 1.390 . S
C5925 C5926 1.387 . S
C5925 H5928 0.950 . S
C5926 C5925 1.387 . S
C5926 C5929 1.387 . S
H5927 C5923 0.950 . S
H5928 C5925 0.950 . S
C5929 C5920 1.390 . S
C5929 H5922 0.950 . S
C5929 C5926 1.387 . S
C5930 C5931 1.387 . S
C5930 H5934 0.950 . S
C5930 C5939 1.390 . S
C5931 C5930 1.387 . S
C5931 C5933 1.387 . S
H5932 C5939 0.950 . S
C5933 C5931 1.387 . S
C5933 C5935 1.390 . S
C5933 H5937 0.950 . S
H5934 C5930 0.950 . S
C5935 C5933 1.390 . S
C5935 C5936 1.387 . S
C5935 H5938 0.950 . S
C5936 C5935 1.387 . S
C5936 C5939 1.387 . S
H5937 C5933 0.950 . S
H5938 C5935 0.950 . S
C5939 C5930 1.390 . S
C5939 H5932 0.950 . S
C5939 C5936 1.387 . S
C5940 C5941 1.387 . S
C5940 H5944 0.950 . S
C5940 C5949 1.390 . S
C5941 C5940 1.387 . S
C5941 C5943 1.387 . S
H5942 C5949 0.950 . S
C5943 C5941 1.387 . S
C5943 C5945 1.390 . S
C5943 H5947 0.950 . S
H5944 C5940 0.950 . S
C5945 C5943 1.390 . S
C5945 C5946 1.387 . S
C5945 H5948 0.950 . S
C5946 C5945 1.387 . S
C5946 C5949 1.387 . S
H5947 C5943 0.950 . S
H5948 C5945 0.950 . S
C5949 C5940 1.390 . S
C5949 H5942 0.950 . S
C5949 C5946 1.387 . S
C5950 C5951 1.387 . S
C5950 H5954 0.950 . S
C5950 C5959 1.390 . S
C5951 C5950 1.387 . S
C5951 C5953 1.387 . S
H5952 C5959 0.950 . S
C5953 C5951 1.387 . S
C5953 C5955 1.390 . S
C5953 H5957 0.950 . S
H5954 C5950 0.950 . S
C5955 C5953 1.390 . S
C5955 C5956 1.387 . S
C5955 H5958 0.950 . S
C5956 C5955 1.387 . S
C5956 C5959 1.387 . S
H5957 C5953 0.950 . S
H5958 C5955 0.950 . S
C5959 C5950 1.390 . S
C5959 H5952 0.950 . S
C5959 C5956 1.387 . S
C5960 C5961 1.387 . S
C5960 H5964 0.950 . S
C5960 C5969 1.390 . S
C5961 C5960 1.387 . S
C5961 C5963 1.387 . S
H5962 C5969 0.950 . S
C5963 C5961 1.387 . S
C5963 C5965 1.390 . S
C5963 H5967 0.950 . S
H5964 C5960 0.950 . S
C5965 C5963 1.390 . S
C5965 C5966 1.387 . S
C5965 H5968 0.950 . S
C5966 C5965 1.387 . S
C5966 C5969 1.387 . S
H5967 C5963 0.950 . S
H5968 C5965 0.950 . S
C5969 C5960 1.390 . S
C5969 H5962 0.950 . S
C5969 C5966 1.387 . S
C5970 C5971 1.387 . S
C5970 H5974 0.950 . S
C5970 C5979 1.390 . S
C5971 C5970 1.387 . S
C5971 C5973 1.387 . S
H5972 C5979 0.950 . S
C5973 C5971 1.387 . S
C5973 C5975 1.390 . S
C5973 H5977 0.950 . S
H5974 C5970 0.950 . S
C5975 C5973 1.390 . S
C5975 C5976 1.387 . S
C5975 H5978 0.950 . S
C5976 C5975 1.387 . S
C5976 C5979 1.387 . S
H5977 C5973 0.950 . S
H5978 C5975 0.950 . S
C5979 C5970 1.390 . S
C5979 H5972 0.950 . S
C5979 C5976 1.387 . S
C5980 C5981 1.387 . S
C5980 H5984 0.950 . S
C5980 C5989 1.390 . S
C5981 C5980 1.387 . S
C5981 C5983 1.387 . S
H5982 C5989 0.950 . S
C5983 C5981 1.387 . S
C5983 C5985 1.390 . S
C5983 H5987 0.950 . S
H5984 C5980 0.950 . S
C5985 C5983 1.390 . S
C5985 C5986 1.387 . S
C5985 H5988 0.950 . S
C5986 C5985 1.387 . S
C5986 C5989 1.387 . S
H5987 C5983 0.950 . S
H5988 C5985 0.950 . S
C5989 C5980 1.390 . S
C5989 H5982 0.950 . S
C5989 C5986 1.387 . S
C5990 C5991 1.387 . S
C5990 H5994 0.950 . S
C5990 C5999 1.390 . S
C5991 C5990 1.387 . S
C5991 C5993 1.387 . S
H5992 C5999 0.950 . S
C5993 C5991 1.387 . S
C5993 C5995 1.390 . S
C5993 H5997 0.950 . S
H5994 C5990 0.950 . S
C5995 C5993 1.390 . S
C5995 C5996 1.387 . S
C5995 H5998 0.950 . S
C5996 C5995 1.387 . S
C5996 C5999 1.387 . S
H5997 C5993 0.950 . S
H5998 C5995 0.950 . S
C5999 C5990 1.390 . S
C5999 H5992 0.950 . S
C5999 C5996 1.387 . S
C6000 C6001 1.387 . S
C6000 H6004 0.950 . S
C6000 C6009 1.390 . S
C6001 C6000 1.387 . S
C6001 C6003 1.387 . S
H6002 C6009 0.950 . S
C6003 C6001 1.387 . S
C6003 C6005 1.390 . S
C6003 H6007 0.950 . S
H6004 C6000 0.950 . S
C6005 C6003 1.390 . S
C6005 C6006 1.387 . S
C6005 H6008 0.950 . S
C6006 C6005 1.387 . S
C6006 C6009 1.387 . S
H6007 C6003 0.950 . S
H6008 C6005 0.950 . S
C6009 C6000 1.390 . S
C6009 H6002 0.950 . S
C6009 C6006 1.387 . S
C6010 C6011 1.387 . S
C6010 H6014 0.950 . S
C6010 C6019 1.390 . S
C6011 C6010 1.387 . S
C6011 C6013 1.387 . S
H6012 C6019 0.950 . S
C6013 C6011 1.387 . S
C6013 C6015 1.390 . S
C6013 H6017 0.950 . S
H6014 C6010 0.950 . S
C6015 C6013 1.390 . S
C6015 C6016 1.387 . S
C6015 H6018 0.950 . S
C6016 C6015 1.387 . S
C6016 C6019 1.387 . S
H6017 C6013 0.950 . S
H6018 C6015 0.950 . S
C6019 C6010 1.390 . S
C6019 H6012 0.950 . S
C6019 C6016 1.387 . S
C6020 C6021 1.387 . S
C6020 H6024 0.950 . S
C6020 C6029 1.390 . S
C6021 C6020 1.387 . S
C6021 C6023 1.387 . S
H6022 C6029 0.950 . S
C6023 C6021 1.387 . S
C6023 C6025 1.390 . S
C6023 H6027 0.950 . S
H6024 C6020 0.950 . S
C6025 C6023 1.390 . S
C6025 C6026 1.387 . S
C6025 H6028 0.950 . S
C6026 C6025 1.387 . S
C6026 C6029 1.387 . S
H6027 C6023 0.950 . S
H6028 C6025 0.950 . S
C6029 C6020 1.390 . S
C6029 H6022 0.950 . S
C6029 C6026 1.387 . S
C6030 C6031 1.387 . S
C6030 H6034 0.950 . S
C6030 C6039 1.390 . S
C6031 C6030 1.387 . S
C6031 C6033 1.387 . S
H6032 C6039 0.950 . S
C6033 C6031 1.387 . S
C6033 C6035 1.390 . S
C6033 H6037 0.950 . S
H6034 C6030 0.950 . S
C6035 C6033 1.390 . S
C6035 C6036 1.387 . S
C6035 H6038 0.950 . S
C6036 C6035 1.387 . S
C6036 C6039 1.387 . S
H6037 C6033 0.950 . S
H6038 C6035 0.950 . S
C6039 C6030 1.390 . S
C6039 H6032 0.950 . S
C6039 C6036 1.387 . S
C6040 C6041 1.387 . S
C6040 H6044 0.950 . S
C6040 C6049 1.390 . S
C6041 C6040 1.387 . S
C6041 C6043 1.387 . S
H6042 C6049 0.950 . S
C6043 C6041 1.387 . S
C6043 C6045 1.390 . S
C6043 H6047 0.950 . S
H6044 C6040 0.950 . S
C6045 C6043 1.390 . S
C6045 C6046 1.387 . S
C6045 H6048 0.950 . S
C6046 C6045 1.387 . S
C6046 C6049 1.387 . S
H6047 C6043 0.950 . S
H6048 C6045 0.950 . S
C6049 C6040 1.390 . S
C6049 H6042 0.950 . S
C6049 C6046 1.387 . S
C6050 C6051 1.387 . S
C6050 H6054 0.950 . S
C6050 C6059 1.390 . S
C6051 C6050 1.387 . S
C6051 C6053 1.387 . S
H6052 C6059 0.950 . S
C6053 C6051 1.387 . S
C6053 C6055 1.390 . S
C6053 H6057 0.950 . S
H6054 C6050 0.950 . S
C6055 C6053 1.390 . S
C6055 C6056 1.387 . S
C6055 H6058 0.950 . S
C6056 C6055 1.387 . S
C6056 C6059 1.387 . S
H6057 C6053 0.950 . S
H6058 C6055 0.950 . S
C6059 C6050 1.390 . S
C6059 H6052 0.950 . S
C6059 C6056 1.387 . S
C6060 C6061 1.387 . S
C6060 H6064 0.950 . S
C6060 C6069 1.390 . S
C6061 C6060 1.387 . S
C6061 C6063 1.387 . S
H6062 C6069 0.950 . S
C6063 C6061 1.387 . S
C6063 C6065 1.390 . S
C6063 H6067 0.950 . S
H6064 C6060 0.950 . S
C6065 C6063 1.390 . S
C6065 C6066 1.387 . S
C6065 H6068 0.950 . S
C6066 C6065 1.387 . S
C6066 C6069 1.387 . S
H6067 C6063 0.950 . S
H6068 C6065 0.950 . S
C6069 C6060 1.390 . S
C6069 H6062 0.950 . S
C6069 C6066 1.387 . S
C6070 C6071 1.387 . S
C6070 H6074 0.950 . S
C6070 C6079 1.390 . S
C6071 C6070 1.387 . S
C6071 C6073 1.387 . S
H6072 C6079 0.950 . S
C6073 C6071 1.387 . S
C6073 C6075 1.390 . S
C6073 H6077 0.950 . S
H6074 C6070 0.950 . S
C6075 C6073 1.390 . S
C6075 C6076 1.387 . S
C6075 H6078 0.950 . S
C6076 C6075 1.387 . S
C6076 C6079 1.387 . S
H6077 C6073 0.950 . S
H6078 C6075 0.950 . S
C6079 C6070 1.390 . S
C6079 H6072 0.950 . S
C6079 C6076 1.387 . S
C6080 C6081 1.387 . S
C6080 H6084 0.950 . S
C6080 C6089 1.390 . S
C6081 C6080 1.387 . S
C6081 C6083 1.387 . S
H6082 C6089 0.950 . S
C6083 C6081 1.387 . S
C6083 C6085 1.390 . S
C6083 H6087 0.950 . S
H6084 C6080 0.950 . S
C6085 C6083 1.390 . S
C6085 C6086 1.387 . S
C6085 H6088 0.950 . S
C6086 C6085 1.387 . S
C6086 C6089 1.387 . S
H6087 C6083 0.950 . S
H6088 C6085 0.950 . S
C6089 C6080 1.390 . S
C6089 H6082 0.950 . S
C6089 C6086 1.387 . S
C6090 C6091 1.387 . S
C6090 H6094 0.950 . S
C6090 C6099 1.390 . S
C6091 C6090 1.387 . S
C6091 C6093 1.387 . S
H6092 C6099 0.950 . S
C6093 C6091 1.387 . S
C6093 C6095 1.390 . S
C6093 H6097 0.950 . S
H6094 C6090 0.950 . S
C6095 C6093 1.390 . S
C6095 C6096 1.387 . S
C6095 H6098 0.950 . S
C6096 C6095 1.387 . S
C6096 C6099 1.387 . S
H6097 C6093 0.950 . S
H6098 C6095 0.950 . S
C6099 C6090 1.390 . S
C6099 H6092 0.950 . S
C6099 C6096 1.387 . S
C6100 C6101 1.387 . S
C6100 H6104 0.950 . S
C6100 C6109 1.390 . S
C6101 C6100 1.387 . S
C6101 C6103 1.387 . S
H6102 C6109 0.950 . S
C6103 C6101 1.387 . S
C6103 C6105 1.390 . S
C6103 H6107 0.950 . S
H6104 C6100 0.950 . S
C6105 C6103 1.390 . S
C6105 C6106 1.387 . S
C6105 H6108 0.950 . S
C6106 C6105 1.387 . S
C6106 C6109 1.387 . S
H6107 C6103 0.950 . S
H6108 C6105 0.950 . S
C6109 C6100 1.390 . S
C6109 H6102 0.950 . S
C6109 C6106 1.387 . S
C6110 C6111 1.387 . S
C6110 H6114 0.950 . S
C6110 C6119 1.390 . S
C6111 C6110 1.387 . S
C6111 C6113 1.387 . S
H6112 C6119 0.950 . S
C6113 C6111 1.387 . S
C6113 C6115 1.390 . S
C6113 H6117 0.950 . S
H6114 C6110 0.950 . S
C6115 C6113 1.390 . S
C6115 C6116 1.387 . S
C6115 H6118 0.950 . S
C6116 C6115 1.387 . S
C6116 C6119 1.387 . S
H6117 C6113 0.950 . S
H6118 C6115 0.950 . S
C6119 C6110 1.390 . S
C6119 H6112 0.950 . S
C6119 C6116 1.387 . S
C6120 C6121 1.387 . S
C6120 H6124 0.950 . S
C6120 C6129 1.390 . S
C6121 C6120 1.387 . S
C6121 C6123 1.387 . S
H6122 C6129 0.950 . S
C6123 C6121 1.387 . S
C6123 C6125 1.390 . S
C6123 H6127 0.950 . S
H6124 C6120 0.950 . S
C6125 C6123 1.390 . S
C6125 C6126 1.387 . S
C6125 H6128 0.950 . S
C6126 C6125 1.387 . S
C6126 C6129 1.387 . S
H6127 C6123 0.950 . S
H6128 C6125 0.950 . S
C6129 C6120 1.390 . S
C6129 H6122 0.950 . S
C6129 C6126 1.387 . S
C6130 C6131 1.387 . S
C6130 H6134 0.950 . S
C6130 C6139 1.390 . S
C6131 C6130 1.387 . S
C6131 C6133 1.387 . S
H6132 C6139 0.950 . S
C6133 C6131 1.387 . S
C6133 C6135 1.390 . S
C6133 H6137 0.950 . S
H6134 C6130 0.950 . S
C6135 C6133 1.390 . S
C6135 C6136 1.387 . S
C6135 H6138 0.950 . S
C6136 C6135 1.387 . S
C6136 C6139 1.387 . S
H6137 C6133 0.950 . S
H6138 C6135 0.950 . S
C6139 C6130 1.390 . S
C6139 H6132 0.950 . S
C6139 C6136 1.387 . S
C6140 C6141 1.387 . S
C6140 H6144 0.950 . S
C6140 C6149 1.390 . S
C6141 C6140 1.387 . S
C6141 C6143 1.387 . S
H6142 C6149 0.950 . S
C6143 C6141 1.387 . S
C6143 C6145 1.390 . S
C6143 H6147 0.950 . S
H6144 C6140 0.950 . S
C6145 C6143 1.390 . S
C6145 C6146 1.387 . S
C6145 H6148 0.950 . S
C6146 C6145 1.387 . S
C6146 C6149 1.387 . S
H6147 C6143 0.950 . S
H6148 C6145 0.950 . S
C6149 C6140 1.390 . S
C6149 H6142 0.950 . S
C6149 C6146 1.387 . S
C6150 C6151 1.387 . S
C6150 H6154 0.950 . S
C6150 C6159 1.390 . S
C6151 C6150 1.387 . S
C6151 C6153 1.387 . S
H6152 C6159 0.950 . S
C6153 C6151 1.387 . S
C6153 C6155 1.390 . S
C6153 H6157 0.950 . S
H6154 C6150 0.950 . S
C6155 C6153 1.390 . S
C6155 C6156 1.387 . S
C6155 H6158 0.950 . S
C6156 C6155 1.387 . S
C6156 C6159 1.387 . S
H6157 C6153 0.950 . S
H6158 C6155 0.950 . S
C6159 C6150 1.390 . S
C6159 H6152 0.950 . S
C6159 C6156 1.387 . S
C6160 C6161 1.387 . S
C6160 H6164 0.950 . S
C6160 C6169 1.390 . S
C6161 C6160 1.387 . S
C6161 C6163 1.387 . S
H6162 C6169 0.950 . S
C6163 C6161 1.387 . S
C6163 C6165 1.390 . S
C6163 H6167 0.950 . S
H6164 C6160 0.950 . S
C6165 C6163 1.390 . S
C6165 C6166 1.387 . S
C6165 H6168 0.950 . S
C6166 C6165 1.387 . S
C6166 C6169 1.387 . S
H6167 C6163 0.950 . S
H6168 C6165 0.950 . S
C6169 C6160 1.390 . S
C6169 H6162 0.950 . S
C6169 C6166 1.387 . S
C6170 C6171 1.387 . S
C6170 H6174 0.950 . S
C6170 C6179 1.390 . S
C6171 C6170 1.387 . S
C6171 C6173 1.387 . S
H6172 C6179 0.950 . S
C6173 C6171 1.387 . S
C6173 C6175 1.390 . S
C6173 H6177 0.950 . S
H6174 C6170 0.950 . S
C6175 C6173 1.390 . S
C6175 C6176 1.387 . S
C6175 H6178 0.950 . S
C6176 C6175 1.387 . S
C6176 C6179 1.387 . S
H6177 C6173 0.950 . S
H6178 C6175 0.950 . S
C6179 C6170 1.390 . S
C6179 H6172 0.950 . S
C6179 C6176 1.387 . S
C6180 C6181 1.387 . S
C6180 H6184 0.950 . S
C6180 C6189 1.390 . S
C6181 C6180 1.387 . S
C6181 C6183 1.387 . S
H6182 C6189 0.950 . S
C6183 C6181 1.387 . S
C6183 C6185 1.390 . S
C6183 H6187 0.950 . S
H6184 C6180 0.950 . S
C6185 C6183 1.390 . S
C6185 C6186 1.387 . S
C6185 H6188 0.950 . S
C6186 C6185 1.387 . S
C6186 C6189 1.387 . S
H6187 C6183 0.950 . S
H6188 C6185 0.950 . S
C6189 C6180 1.390 . S
C6189 H6182 0.950 . S
C6189 C6186 1.387 . S
C6190 C6191 1.387 . S
C6190 H6194 0.950 . S
C6190 C6199 1.390 . S
C6191 C6190 1.387 . S
C6191 C6193 1.387 . S
H6192 C6199 0.950 . S
C6193 C6191 1.387 . S
C6193 C6195 1.390 . S
C6193 H6197 0.950 . S
H6194 C6190 0.950 . S
C6195 C6193 1.390 . S
C6195 C6196 1.387 . S
C6195 H6198 0.950 . S
C6196 C6195 1.387 . S
C6196 C6199 1.387 . S
H6197 C6193 0.950 . S
H6198 C6195 0.950 . S
C6199 C6190 1.390 . S
C6199 H6192 0.950 . S
C6199 C6196 1.387 . S
C6200 C6201 1.387 . S
C6200 H6204 0.950 . S
C6200 C6209 1.390 . S
C6201 C6200 1.387 . S
C6201 C6203 1.387 . S
H6202 C6209 0.950 . S
C6203 C6201 1.387 . S
C6203 C6205 1.390 . S
C6203 H6207 0.950 . S
H6204 C6200 0.950 . S
C6205 C6203 1.390 . S
C6205 C6206 1.387 . S
C6205 H6208 0.950 . S
C6206 C6205 1.387 . S
C6206 C6209 1.387 . S
H6207 C6203 0.950 . S
H6208 C6205 0.950 . S
C6209 C6200 1.390 . S
C6209 H6202 0.950 . S
C6209 C6206 1.387 . S
C6210 C6211 1.387 . S
C6210 H6214 0.950 . S
C6210 C6219 1.390 . S
C6211 C6210 1.387 . S
C6211 C6213 1.387 . S
H6212 C6219 0.950 . S
C6213 C6211 1.387 . S
C6213 C6215 1.390 . S
C6213 H6217 0.950 . S
H6214 C6210 0.950 . S
C6215 C6213 1.390 . S
C6215 C6216 1.387 . S
C6215 H6218 0.950 . S
C6216 C6215 1.387 . S
C6216 C6219 1.387 . S
H6217 C6213 0.950 . S
H6218 C6215 0.950 . S
C6219 C6210 1.390 . S
C6219 H6212 0.950 . S
C6219 C6216 1.387 . S
C6220 C6221 1.387 . S
C6220 H6224 0.950 . S
C6220 C6229 1.390 . S
C6221 C6220 1.387 . S
C6221 C6223 1.387 . S
H6222 C6229 0.950 . S
C6223 C6221 1.387 . S
C6223 C6225 1.390 . S
C6223 H6227 0.950 . S
H6224 C6220 0.950 . S
C6225 C6223 1.390 . S
C6225 C6226 1.387 . S
C6225 H6228 0.950 . S
C6226 C6225 1.387 . S
C6226 C6229 1.387 . S
H6227 C6223 0.950 . S
H6228 C6225 0.950 . S
C6229 C6220 1.390 . S
C6229 H6222 0.950 . S
C6229 C6226 1.387 . S
C6230 C6231 1.387 . S
C6230 H6234 0.950 . S
C6230 C6239 1.390 . S
C6231 C6230 1.387 . S
C6231 C6233 1.387 . S
H6232 C6239 0.950 . S
C6233 C6231 1.387 . S
C6233 C6235 1.390 . S
C6233 H6237 0.950 . S
H6234 C6230 0.950 . S
C6235 C6233 1.390 . S
C6235 C6236 1.387 . S
C6235 H6238 0.950 . S
C6236 C6235 1.387 . S
C6236 C6239 1.387 . S
H6237 C6233 0.950 . S
H6238 C6235 0.950 . S
C6239 C6230 1.390 . S
C6239 H6232 0.950 . S
C6239 C6236 1.387 . S
C6240 C6241 1.387 . S
C6240 H6244 0.950 . S
C6240 C6249 1.390 . S
C6241 C6240 1.387 . S
C6241 C6243 1.387 . S
H6242 C6249 0.950 . S
C6243 C6241 1.387 . S
C6243 C6245 1.390 . S
C6243 H6247 0.950 . S
H6244 C6240 0.950 . S
C6245 C6243 1.390 . S
C6245 C6246 1.387 . S
C6245 H6248 0.950 . S
C6246 C6245 1.387 . S
C6246 C6249 1.387 . S
H6247 C6243 0.950 . S
H6248 C6245 0.950 . S
C6249 C6240 1.390 . S
C6249 H6242 0.950 . S
C6249 C6246 1.387 . S
C6250 C6251 1.387 . S
C6250 H6254 0.950 . S
C6250 C6259 1.390 . S
C6251 C6250 1.387 . S
C6251 C6253 1.387 . S
H6252 C6259 0.950 . S
C6253 C6251 1.387 . S
C6253 C6255 1.390 . S
C6253 H6257 0.950 . S
H6254 C6250 0.950 . S
C6255 C6253 1.390 . S
C6255 C6256 1.387 . S
C6255 H6258 0.950 . S
C6256 C6255 1.387 . S
C6256 C6259 1.387 . S
H6257 C6253 0.950 . S
H6258 C6255 0.950 . S
C6259 C6250 1.390 . S
C6259 H6252 0.950 . S
C6259 C6256 1.387 . S
C6260 C6261 1.387 . S
C6260 H6264 0.950 . S
C6260 C6269 1.390 . S
C6261 C6260 1.387 . S
C6261 C6263 1.387 . S
H6262 C6269 0.950 . S
C6263 C6261 1.387 . S
C6263 C6265 1.390 . S
C6263 H6267 0.950 . S
H6264 C6260 0.950 . S
C6265 C6263 1.390 . S
C6265 C6266 1.387 . S
C6265 H6268 0.950 . S
C6266 C6265 1.387 . S
C6266 C6269 1.387 . S
H6267 C6263 0.950 . S
H6268 C6265 0.950 . S
C6269 C6260 1.390 . S
C6269 H6262 0.950 . S
C6269 C6266 1.387 . S
C6270 C6271 1.387 . S
C6270 H6274 0.950 . S
C6270 C6279 1.390 . S
C6271 C6270 1.387 . S
C6271 C6273 1.387 . S
H6272 C6279 0.950 . S
C6273 C6271 1.387 . S
C6273 C6275 1.390 . S
C6273 H6277 0.950 . S
H6274 C6270 0.950 . S
C6275 C6273 1.390 . S
C6275 C6276 1.387 . S
C6275 H6278 0.950 . S
C6276 C6275 1.387 . S
C6276 C6279 1.387 . S
H6277 C6273 0.950 . S
H6278 C6275 0.950 . S
C6279 C6270 1.390 . S
C6279 H6272 0.950 . S
C6279 C6276 1.387 . S
C6280 C6281 1.387 . S
C6280 H6284 0.950 . S
C6280 C6289 1.390 . S
C6281 C6280 1.387 . S
C6281 C6283 1.387 . S
H6282 C6289 0.950 . S
C6283 C6281 1.387 . S
C6283 C6285 1.390 . S
C6283 H6287 0.950 . S
H6284 C6280 0.950 . S
C6285 C6283 1.390 . S
C6285 C6286 1.387 . S
C6285 H6288 0.950 . S
C6286 C6285 1.387 . S
C6286 C6289 1.387 . S
H6287 C6283 0.950 . S
H6288 C6285 0.950 . S
C6289 C6280 1.390 . S
C6289 H6282 0.950 . S
C6289 C6286 1.387 . S
C6290 C6291 1.387 . S
C6290 H6294 0.950 . S
C6290 C6299 1.390 . S
C6291 C6290 1.387 . S
C6291 C6293 1.387 . S
H6292 C6299 0.950 . S
C6293 C6291 1.387 . S
C6293 C6295 1.390 . S
C6293 H6297 0.950 . S
H6294 C6290 0.950 . S
C6295 C6293 1.390 . S
C6295 C6296 1.387 . S
C6295 H6298 0.950 . S
C6296 C6295 1.387 . S
C6296 C6299 1.387 . S
H6297 C6293 0.950 . S
H6298 C6295 0.950 . S
C6299 C6290 1.390 . S
C6299 H6292 0.950 . S
C6299 C6296 1.387 . S
C6300 C6301 1.387 . S
C6300 H6304 0.950 . S
C6300 C6309 1.390 . S
C6301 C6300 1.387 . S
C6301 C6303 1.387 . S
H6302 C6309 0.950 . S
C6303 C6301 1.387 . S
C6303 C6305 1.390 . S
C6303 H6307 0.950 . S
H6304 C6300 0.950 . S
C6305 C6303 1.390 . S
C6305 C6306 1.387 . S
C6305 H6308 0.950 . S
C6306 C6305 1.387 . S
C6306 C6309 1.387 . S
H6307 C6303 0.950 . S
H6308 C6305 0.950 . S
C6309 C6300 1.390 . S
C6309 H6302 0.950 . S
C6309 C6306 1.387 . S
C6310 C6311 1.387 . S
C6310 H6314 0.950 . S
C6310 C6319 1.390 . S
C6311 C6310 1.387 . S
C6311 C6313 1.387 . S
H6312 C6319 0.950 . S
C6313 C6311 1.387 . S
C6313 C6315 1.390 . S
C6313 H6317 0.950 . S
H6314 C6310 0.950 . S
C6315 C6313 1.390 . S
C6315 C6316 1.387 . S
C6315 H6318 0.950 . S
C6316 C6315 1.387 . S
C6316 C6319 1.387 . S
H6317 C6313 0.950 . S
H6318 C6315 0.950 . S
C6319 C6310 1.390 . S
C6319 H6312 0.950 . S
C6319 C6316 1.387 . S
C6320 C6321 1.387 . S
C6320 H6324 0.950 . S
C6320 C6329 1.390 . S
C6321 C6320 1.387 . S
C6321 C6323 1.387 . S
H6322 C6329 0.950 . S
C6323 C6321 1.387 . S
C6323 C6325 1.390 . S
C6323 H6327 0.950 . S
H6324 C6320 0.950 . S
C6325 C6323 1.390 . S
C6325 C6326 1.387 . S
C6325 H6328 0.950 . S
C6326 C6325 1.387 . S
C6326 C6329 1.387 . S
H6327 C6323 0.950 . S
H6328 C6325 0.950 . S
C6329 C6320 1.390 . S
C6329 H6322 0.950 . S
C6329 C6326 1.387 . S
C6330 C6331 1.387 . S
C6330 H6334 0.950 . S
C6330 C6339 1.390 . S
C6331 C6330 1.387 . S
C6331 C6333 1.387 . S
H6332 C6339 0.950 . S
C6333 C6331 1.387 . S
C6333 C6335 1.390 . S
C6333 H6337 0.950 . S
H6334 C6330 0.950 . S
C6335 C6333 1.390 . S
C6335 C6336 1.387 . S
C6335 H6338 0.950 . S
C6336 C6335 1.387 . S
C6336 C6339 1.387 . S
H6337 C6333 0.950 . S
H6338 C6335 0.950 . S
C6339 C6330 1.390 . S
C6339 H6332 0.950 . S
C6339 C6336 1.387 . S
C6340 C6341 1.387 . S
C6340 H6344 0.950 . S
C6340 C6349 1.390 . S
C6341 C6340 1.387 . S
C6341 C6343 1.387 . S
H6342 C6349 0.950 . S
C6343 C6341 1.387 . S
C6343 C6345 1.390 . S
C6343 H6347 0.950 . S
H6344 C6340 0.950 . S
C6345 C6343 1.390 . S
C6345 C6346 1.387 . S
C6345 H6348 0.950 . S
C6346 C6345 1.387 . S
C6346 C6349 1.387 . S
H6347 C6343 0.950 . S
H6348 C6345 0.950 . S
C6349 C6340 1.390 . S
C6349 H6342 0.950 . S
C6349 C6346 1.387 . S
C6350 C6351 1.387 . S
C6350 H6354 0.950 . S
C6350 C6359 1.390 . S
C6351 C6350 1.387 . S
C6351 C6353 1.387 . S
H6352 C6359 0.950 . S
C6353 C6351 1.387 . S
C6353 C6355 1.390 . S
C6353 H6357 0.950 . S
H6354 C6350 0.950 . S
C6355 C6353 1.390 . S
C6355 C6356 1.387 . S
C6355 H6358 0.950 . S
C6356 C6355 1.387 . S
C6356 C6359 1.387 . S
H6357 C6353 0.950 . S
H6358 C6355 0.950 . S
C6359 C6350 1.390 . S
C6359 H6352 0.950 . S
C6359 C6356 1.387 . S
C6360 C6361 1.387 . S
C6360 H6364 0.950 . S
C6360 C6369 1.390 . S
C6361 C6360 1.387 . S
C6361 C6363 1.387 . S
H6362 C6369 0.950 . S
C6363 C6361 1.387 . S
C6363 C6365 1.390 . S
C6363 H6367 0.950 . S
H6364 C6360 0.950 . S
C6365 C6363 1.390 . S
C6365 C6366 1.387 . S
C6365 H6368 0.950 . S
C6366 C6365 1.387 . S
C6366 C6369 1.387 . S
H6367 C6363 0.950 . S
H6368 C6365 0.950 . S
C6369 C6360 1.390 . S
C6369 H6362 0.950 . S
C6369 C6366 1.387 . S
C6370 C6371 1.387 . S
C6370 H6374 0.950 . S
C6370 C6379 1.390 . S
C6371 C6370 1.387 . S
C6371 C6373 1.387 . S
H6372 C6379 0.950 . S
C6373 C6371 1.387 . S
C6373 C6375 1.390 . S
C6373 H6377 0.950 . S
H6374 C6370 0.950 . S
C6375 C6373 1.390 . S
C6375 C6376 1.387 . S
C6375 H6378 0.950 . S
C6376 C6375 1.387 . S
C6376 C6379 1.387 . S
H6377 C6373 0.950 . S
H6378 C6375 0.950 . S
C6379 C6370 1.390 . S
C6379 H6372 0.950 . S
C6379 C6376 1.387 . S
C6380 C6381 1.387 . S
C6380 H6384 0.950 . S
C6380 C6389 1.390 . S
C6381 C6380 1.387 . S
C6381 C6383 1.387 . S
H6382 C6389 0.950 . S
C6383 C6381 1.387 . S
C6383 C6385 1.390 . S
C6383 H6387 0.950 . S
H6384 C6380 0.950 . S
C6385 C6383 1.390 . S
C6385 C6386 1.387 . S
C6385 H6388 0.950 . S
C6386 C6385 1.387 . S
C6386 C6389 1.387 . S
H6387 C6383 0.950 . S
H6388 C6385 0.950 . S
C6389 C6380 1.390 . S
C6389 H6382 0.950 . S
C6389 C6386 1.387 . S
C6390 C6391 1.387 . S
C6390 H6394 0.950 . S
C6390 C6399 1.390 . S
C6391 C6390 1.387 . S
C6391 C6393 1.387 . S
H6392 C6399 0.950 . S
C6393 C6391 1.387 . S
C6393 C6395 1.390 . S
C6393 H6397 0.950 . S
H6394 C6390 0.950 . S
C6395 C6393 1.390 . S
C6395 C6396 1.387 . S
C6395 H6398 0.950 . S
C6396 C6395 1.387 . S
C6396 C6399 1.387 . S
H6397 C6393 0.950 . S
H6398 C6395 0.950 . S
C6399 C6390 1.390 . S
C6399 H6392 0.950 . S
C6399 C6396 1.387 . S
C6400 C6401 1.387 . S
C6400 H6404 0.950 . S
C6400 C6409 1.390 . S
C6401 C6400 1.387 . S
C6401 C6403 1.387 . S
H6402 C6409 0.950 . S
C6403 C6401 1.387 . S
C6403 C6405 1.390 . S
C6403 H6407 0.950 . S
H6404 C6400 0.950 . S
C6405 C6403 1.390 . S
C6405 C6406 1.387 . S
C6405 H6408 0.950 . S
C6406 C6405 1.387 . S
C6406 C6409 1.387 . S
H6407 C6403 0.950 . S
H6408 C6405 0.950 . S
C6409 C6400 1.390 . S
C6409 H6402 0.950 . S
C6409 C6406 1.387 . S
C6410 C6411 1.387 . S
C6410 H6414 0.950 . S
C6410 C6419 1.390 . S
C6411 C6410 1.387 . S
C6411 C6413 1.387 . S
H6412 C6419 0.950 . S
C6413 C6411 1.387 . S
C6413 C6415 1.390 . S
C6413 H6417 0.950 . S
H6414 C6410 0.950 . S
C6415 C6413 1.390 . S
C6415 C6416 1.387 . S
C6415 H6418 0.950 . S
C6416 C6415 1.387 . S
C6416 C6419 1.387 . S
H6417 C6413 0.950 . S
H6418 C6415 0.950 . S
C6419 C6410 1.390 . S
C6419 H6412 0.950 . S
C6419 C6416 1.387 . S
C6420 C6421 1.387 . S
C6420 H6424 0.950 . S
C6420 C6429 1.390 . S
C6421 C6420 1.387 . S
C6421 C6423 1.387 . S
H6422 C6429 0.950 . S
C6423 C6421 1.387 . S
C6423 C6425 1.390 . S
C6423 H6427 0.950 . S
H6424 C6420 0.950 . S
C6425 C6423 1.390 . S
C6425 C6426 1.387 . S
C6425 H6428 0.950 . S
C6426 C6425 1.387 . S
C6426 C6429 1.387 . S
H6427 C6423 0.950 . S
H6428 C6425 0.950 . S
C6429 C6420 1.390 . S
C6429 H6422 0.950 . S
C6429 C6426 1.387 . S
C6430 C6431 1.387 . S
C6430 H6434 0.950 . S
C6430 C6439 1.390 . S
C6431 C6430 1.387 . S
C6431 C6433 1.387 . S
H6432 C6439 0.950 . S
C6433 C6431 1.387 . S
C6433 C6435 1.390 . S
C6433 H6437 0.950 . S
H6434 C6430 0.950 . S
C6435 C6433 1.390 . S
C6435 C6436 1.387 . S
C6435 H6438 0.950 . S
C6436 C6435 1.387 . S
C6436 C6439 1.387 . S
H6437 C6433 0.950 . S
H6438 C6435 0.950 . S
C6439 C6430 1.390 . S
C6439 H6432 0.950 . S
C6439 C6436 1.387 . S
C6440 C6441 1.387 . S
C6440 H6444 0.950 . S
C6440 C6449 1.390 . S
C6441 C6440 1.387 . S
C6441 C6443 1.387 . S
H6442 C6449 0.950 . S
C6443 C6441 1.387 . S
C6443 C6445 1.390 . S
C6443 H6447 0.950 . S
H6444 C6440 0.950 . S
C6445 C6443 1.390 . S
C6445 C6446 1.387 . S
C6445 H6448 0.950 . S
C6446 C6445 1.387 . S
C6446 C6449 1.387 . S
H6447 C6443 0.950 . S
H6448 C6445 0.950 . S
C6449 C6440 1.390 . S
C6449 H6442 0.950 . S
C6449 C6446 1.387 . S
C6450 C6451 1.387 . S
C6450 H6454 0.950 . S
C6450 C6459 1.390 . S
C6451 C6450 1.387 . S
C6451 C6453 1.387 . S
H6452 C6459 0.950 . S
C6453 C6451 1.387 . S
C6453 C6455 1.390 . S
C6453 H6457 0.950 . S
H6454 C6450 0.950 . S
C6455 C6453 1.390 . S
C6455 C6456 1.387 . S
C6455 H6458 0.950 . S
C6456 C6455 1.387 . S
C6456 C6459 1.387 . S
H6457 C6453 0.950 . S
H6458 C6455 0.950 . S
C6459 C6450 1.390 . S
C6459 H6452 0.950 . S
C6459 C6456 1.387 . S
C6460 C6461 1.387 . S
C6460 H6464 0.950 . S
C6460 C6469 1.390 . S
C6461 C6460 1.387 . S
C6461 C6463 1.387 . S
H6462 C6469 0.950 . S
C6463 C6461 1.387 . S
C6463 C6465 1.390 . S
C6463 H6467 0.950 . S
H6464 C6460 0.950 . S
C6465 C6463 1.390 . S
C6465 C6466 1.387 . S
C6465 H6468 0.950 . S
C6466 C6465 1.387 . S
C6466 C6469 1.387 . S
H6467 C6463 0.950 . S
H6468 C6465 0.950 . S
C6469 C6460 1.390 . S
C6469 H6462 0.950 . S
C6469 C6466 1.387 . S
C6470 C6471 1.387 . S
C6470 H6474 0.950 . S
C6470 C6479 1.390 . S
C6471 C6470 1.387 . S
C6471 C6473 1.387 . S
H6472 C6479 0.950 . S
C6473 C6471 1.387 . S
C6473 C6475 1.390 . S
C6473 H6477 0.950 . S
H6474 C6470 0.950 . S
C6475 C6473 1.390 . S
C6475 C6476 1.387 . S
C6475 H6478 0.950 . S
C6476 C6475 1.387 . S
C6476 C6479 1.387 . S
H6477 C6473 0.950 . S
H6478 C6475 0.950 . S
C6479 C6470 1.390 . S
C6479 H6472 0.950 . S
C6479 C6476 1.387 . S
C6480 C6481 1.387 . S
C6480 H6484 0.950 . S
C6480 C6489 1.390 . S
C6481 C6480 1.387 . S
C6481 C6483 1.387 . S
H6482 C6489 0.950 . S
C6483 C6481 1.387 . S
C6483 C6485 1.390 . S
C6483 H6487 0.950 . S
H6484 C6480 0.950 . S
C6485 C6483 1.390 . S
C6485 C6486 1.387 . S
C6485 H6488 0.950 . S
C6486 C6485 1.387 . S
C6486 C6489 1.387 . S
H6487 C6483 0.950 . S
H6488 C6485 0.950 . S
C6489 C6480 1.390 . S
C6489 H6482 0.950 . S
C6489 C6486 1.387 . S
C6490 C6491 1.387 . S
C6490 H6494 0.950 . S
C6490 C6499 1.390 . S
C6491 C6490 1.387 . S
C6491 C6493 1.387 . S
H6492 C6499 0.950 . S
C6493 C6491 1.387 . S
C6493 C6495 1.390 . S
C6493 H6497 0.950 . S
H6494 C6490 0.950 . S
C6495 C6493 1.390 . S
C6495 C6496 1.387 . S
C6495 H6498 0.950 . S
C6496 C6495 1.387 . S
C6496 C6499 1.387 . S
H6497 C6493 0.950 . S
H6498 C6495 0.950 . S
C6499 C6490 1.390 . S
C6499 H6492 0.950 . S
C6499 C6496 1.387 . S
C6500 C6501 1.387 . S
C6500 H6504 0.950 . S
C6500 C6509 1.390 . S
C6501 C6500 1.387 . S
C6501 C6503 1.387 . S
H6502 C6509 0.950 . S
C6503 C6501 1.387 . S
C6503 C6505 1.390 . S
C6503 H6507 0.950 . S
H6504 C6500 0.950 . S
C6505 C6503 1.390 . S
C6505 C6506 1.387 . S
C6505 H6508 0.950 . S
C6506 C6505 1.387 . S
C6506 C6509 1.387 . S
H6507 C6503 0.950 . S
H6508 C6505 0.950 . S
C6509 C6500 1.390 . S
C6509 H6502 0.950 . S
C6509 C6506 1.387 . S
C6510 C6511 1.387 . S
C6510 H6514 0.950 . S
C6510 C6519 1.390 . S
C6511 C6510 1.387 . S
C6511 C6513 1.387 . S
H6512 C6519 0.950 . S
C6513 C6511 1.387 . S
C6513 C6515 1.390 . S
C6513 H6517 0.950 . S
H6514 C6510 0.950 . S
C6515 C6513 1.390 . S
C6515 C6516 1.387 . S
C6515 H6518 0.950 . S
C6516 C6515 1.387 . S
C6516 C6519 1.387 . S
H6517 C6513 0.950 . S
H6518 C6515 0.950 . S
C6519 C6510 1.390 . S
C6519 H6512 0.950 . S
C6519 C6516 1.387 . S
C6520 C6521 1.387 . S
C6520 H6524 0.950 . S
C6520 C6529 1.390 . S
C6521 C6520 1.387 . S
C6521 C6523 1.387 . S
H6522 C6529 0.950 . S
C6523 C6521 1.387 . S
C6523 C6525 1.390 . S
C6523 H6527 0.950 . S
H6524 C6520 0.950 . S
C6525 C6523 1.390 . S
C6525 C6526 1.387 . S
C6525 H6528 0.950 . S
C6526 C6525 1.387 . S
C6526 C6529 1.387 . S
H6527 C6523 0.950 . S
H6528 C6525 0.950 . S
C6529 C6520 1.390 . S
C6529 H6522 0.950 . S
C6529 C6526 1.387 . S
C6530 C6531 1.387 . S
C6530 H6534 0.950 . S
C6530 C6539 1.390 . S
C6531 C6530 1.387 . S
C6531 C6533 1.387 . S
H6532 C6539 0.950 . S
C6533 C6531 1.387 . S
C6533 C6535 1.390 . S
C6533 H6537 0.950 . S
H6534 C6530 0.950 . S
C6535 C6533 1.390 . S
C6535 C6536 1.387 . S
C6535 H6538 0.950 . S
C6536 C6535 1.387 . S
C6536 C6539 1.387 . S
H6537 C6533 0.950 . S
H6538 C6535 0.950 . S
C6539 C6530 1.390 . S
C6539 H6532 0.950 . S
C6539 C6536 1.387 . S
C6540 C6541 1.387 . S
C6540 H6544 0.950 . S
C6540 C6549 1.390 . S
C6541 C6540 1.387 . S
C6541 C6543 1.387 . S
H6542 C6549 0.950 . S
C6543 C6541 1.387 . S
C6543 C6545 1.390 . S
C6543 H6547 0.950 . S
H6544 C6540 0.950 . S
C6545 C6543 1.390 . S
C6545 C6546 1.387 . S
C6545 H6548 0.950 . S
C6546 C6545 1.387 . S
C6546 C6549 1.387 . S
H6547 C6543 0.950 . S
H6548 C6545 0.950 . S
C6549 C6540 1.390 . S
C6549 H6542 0.950 . S
C6549 C6546 1.387 . S
C6550 C6551 1.387 . S
C6550 H6554 0.950 . S
C6550 C6559 1.390 . S
C6551 C6550 1.387 . S
C6551 C6553 1.387 . S
H6552 C6559 0.950 . S
C6553 C6551 1.387 . S
C6553 C6555 1.390 . S
C6553 H6557 0.950 . S
H6554 C6550 0.950 . S
C6555 C6553 1.390 . S
C6555 C6556 1.387 . S
C6555 H6558 0.950 . S
C6556 C6555 1.387 . S
C6556 C6559 1.387 . S
H6557 C6553 0.950 . S
H6558 C6555 0.950 . S
C6559 C6550 1.390 . S
C6559 H6552 0.950 . S
C6559 C6556 1.387 . S
C6560 C6561 1.387 . S
C6560 H6564 0.950 . S
C6560 C6569 1.390 . S
C6561 C6560 1.387 . S
C6561 C6563 1.387 . S
H6562 C6569 0.950 . S
C6563 C6561 1.387 . S
C6563 C6565 1.390 . S
C6563 H6567 0.950 . S
H6564 C6560 0.950 . S
C6565 C6563 1.390 . S
C6565 C6566 1.387 . S
C6565 H6568 0.950 . S
C6566 C6565 1.387 . S
C6566 C6569 1.387 . S
H6567 C6563 0.950 . S
H6568 C6565 0.950 . S
C6569 C6560 1.390 . S
C6569 H6562 0.950 . S
C6569 C6566 1.387 . S
C6570 C6571 1.387 . S
C6570 H6574 0.950 . S
C6570 C6579 1.390 . S
C6571 C6570 1.387 . S
C6571 C6573 1.387 . S
H6572 C6579 0.950 . S
C6573 C6571 1.387 . S
C6573 C6575 1.390 . S
C6573 H6577 0.950 . S
H6574 C6570 0.950 . S
C6575 C6573 1.390 . S
C6575 C6576 1.387 . S
C6575 H6578 0.950 . S
C6576 C6575 1.387 . S
C6576 C6579 1.387 . S
H6577 C6573 0.950 . S
H6578 C6575 0.950 . S
C6579 C6570 1.390 . S
C6579 H6572 0.950 . S
C6579 C6576 1.387 . S
C6580 C6581 1.387 . S
C6580 H6584 0.950 . S
C6580 C6589 1.390 . S
C6581 C6580 1.387 . S
C6581 C6583 1.387 . S
H6582 C6589 0.950 . S
C6583 C6581 1.387 . S
C6583 C6585 1.390 . S
C6583 H6587 0.950 . S
H6584 C6580 0.950 . S
C6585 C6583 1.390 . S
C6585 C6586 1.387 . S
C6585 H6588 0.950 . S
C6586 C6585 1.387 . S
C6586 C6589 1.387 . S
H6587 C6583 0.950 . S
H6588 C6585 0.950 . S
C6589 C6580 1.390 . S
C6589 H6582 0.950 . S
C6589 C6586 1.387 . S
C6590 C6591 1.387 . S
C6590 H6594 0.950 . S
C6590 C6599 1.390 . S
C6591 C6590 1.387 . S
C6591 C6593 1.387 . S
H6592 C6599 0.950 . S
C6593 C6591 1.387 . S
C6593 C6595 1.390 . S
C6593 H6597 0.950 . S
H6594 C6590 0.950 . S
C6595 C6593 1.390 . S
C6595 C6596 1.387 . S
C6595 H6598 0.950 . S
C6596 C6595 1.387 . S
C6596 C6599 1.387 . S
H6597 C6593 0.950 . S
H6598 C6595 0.950 . S
C6599 C6590 1.390 . S
C6599 H6592 0.950 . S
C6599 C6596 1.387 . S
C6600 C6601 1.387 . S
C6600 H6604 0.950 . S
C6600 C6609 1.390 . S
C6601 C6600 1.387 . S
C6601 C6603 1.387 . S
H6602 C6609 0.950 . S
C6603 C6601 1.387 . S
C6603 C6605 1.390 . S
C6603 H6607 0.950 . S
H6604 C6600 0.950 . S
C6605 C6603 1.390 . S
C6605 C6606 1.387 . S
C6605 H6608 0.950 . S
C6606 C6605 1.387 . S
C6606 C6609 1.387 . S
H6607 C6603 0.950 . S
H6608 C6605 0.950 . S
C6609 C6600 1.390 . S
C6609 H6602 0.950 . S
C6609 C6606 1.387 . S
C6610 C6611 1.387 . S
C6610 H6614 0.950 . S
C6610 C6619 1.390 . S
C6611 C6610 1.387 . S
C6611 C6613 1.387 . S
H6612 C6619 0.950 . S
C6613 C6611 1.387 . S
C6613 C6615 1.390 . S
C6613 H6617 0.950 . S
H6614 C6610 0.950 . S
C6615 C6613 1.390 . S
C6615 C6616 1.387 . S
C6615 H6618 0.950 . S
C6616 C6615 1.387 . S
C6616 C6619 1.387 . S
H6617 C6613 0.950 . S
H6618 C6615 0.950 . S
C6619 C6610 1.390 . S
C6619 H6612 0.950 . S
C6619 C6616 1.387 . S
C6620 C6621 1.387 . S
C6620 H6624 0.950 . S
C6620 C6629 1.390 . S
C6621 C6620 1.387 . S
C6621 C6623 1.387 . S
H6622 C6629 0.950 . S
C6623 C6621 1.387 . S
C6623 C6625 1.390 . S
C6623 H6627 0.950 . S
H6624 C6620 0.950 . S
C6625 C6623 1.390 . S
C6625 C6626 1.387 . S
C6625 H6628 0.950 . S
C6626 C6625 1.387 . S
C6626 C6629 1.387 . S
H6627 C6623 0.950 . S
H6628 C6625 0.950 . S
C6629 C6620 1.390 . S
C6629 H6622 0.950 . S
C6629 C6626 1.387 . S
C6630 C6631 1.387 . S
C6630 H6634 0.950 . S
C6630 C6639 1.390 . S
C6631 C6630 1.387 . S
C6631 C6633 1.387 . S
H6632 C6639 0.950 . S
C6633 C6631 1.387 . S
C6633 C6635 1.390 . S
C6633 H6637 0.950 . S
H6634 C6630 0.950 . S
C6635 C6633 1.390 . S
C6635 C6636 1.387 . S
C6635 H6638 0.950 . S
C6636 C6635 1.387 . S
C6636 C6639 1.387 . S
H6637 C6633 0.950 . S
H6638 C6635 0.950 . S
C6639 C6630 1.390 . S
C6639 H6632 0.950 . S
C6639 C6636 1.387 . S
C6640 C6641 1.387 . S
C6640 H6644 0.950 . S
C6640 C6649 1.390 . S
C6641 C6640 1.387 . S
C6641 C6643 1.387 . S
H6642 C6649 0.950 . S
C6643 C6641 1.387 . S
C6643 C6645 1.390 . S
C6643 H6647 0.950 . S
H6644 C6640 0.950 . S
C6645 C6643 1.390 . S
C6645 C6646 1.387 . S
C6645 H6648 0.950 . S
C6646 C6645 1.387 . S
C6646 C6649 1.387 . S
H6647 C6643 0.950 . S
H6648 C6645 0.950 . S
C6649 C6640 1.390 . S
C6649 H6642 0.950 . S
C6649 C6646 1.387 . S
C6650 C6651 1.387 . S
C6650 H6654 0.950 . S
C6650 C6659 1.390 . S
C6651 C6650 1.387 . S
C6651 C6653 1.387 . S
H6652 C6659 0.950 . S
C6653 C6651 1.387 . S
C6653 C6655 1.390 . S
C6653 H6657 0.950 . S
H6654 C6650 0.950 . S
C6655 C6653 1.390 . S
C6655 C6656 1.387 . S
C6655 H6658 0.950 . S
C6656 C6655 1.387 . S
C6656 C6659 1.387 . S
H6657 C6653 0.950 . S
H6658 C6655 0.950 . S
C6659 C6650 1.390 . S
C6659 H6652 0.950 . S
C6659 C6656 1.387 . S
C6660 C6661 1.387 . S
C6660 H6664 0.950 . S
C6660 C6669 1.390 . S
C6661 C6660 1.387 . S
C6661 C6663 1.387 . S
H6662 C6669 0.950 . S
C6663 C6661 1.387 . S
C6663 C6665 1.390 . S
C6663 H6667 0.950 . S
H6664 C6660 0.950 . S
C6665 C6663 1.390 . S
C6665 C6666 1.387 . S
C6665 H6668 0.950 . S
C6666 C6665 1.387 . S
C6666 C6669 1.387 . S
H6667 C6663 0.950 . S
H6668 C6665 0.950 . S
C6669 C6660 1.390 . S
C6669 H6662 0.950 . S
C6669 C6666 1.387 . S
C6670 C6671 1.387 . S
C6670 H6674 0.950 . S
C6670 C6679 1.390 . S
C6671 C6670 1.387 . S
C6671 C6673 1.387 . S
H6672 C6679 0.950 . S
C6673 C6671 1.387 . S
C6673 C6675 1.390 . S
C6673 H6677 0.950 . S
H6674 C6670 0.950 . S
C6675 C6673 1.390 . S
C6675 C6676 1.387 . S
C6675 H6678 0.950 . S
C6676 C6675 1.387 . S
C6676 C6679 1.387 . S
H6677 C6673 0.950 . S
H6678 C6675 0.950 . S
C6679 C6670 1.390 . S
C6679 H6672 0.950 . S
C6679 C6676 1.387 . S
C6680 C6681 1.387 . S
C6680 H6684 0.950 . S
C6680 C6689 1.390 . S
C6681 C6680 1.387 . S
C6681 C6683 1.387 . S
H6682 C6689 0.950 . S
C6683 C6681 1.387 . S
C6683 C6685 1.390 . S
C6683 H6687 0.950 . S
H6684 C6680 0.950 . S
C6685 C6683 1.390 . S
C6685 C6686 1.387 . S
C6685 H6688 0.950 . S
C6686 C6685 1.387 . S
C6686 C6689 1.387 . S
H6687 C6683 0.950 . S
H6688 C6685 0.950 . S
C6689 C6680 1.390 . S
C6689 H6682 0.950 . S
C6689 C6686 1.387 . S
C6690 C6691 1.387 . S
C6690 H6694 0.950 . S
C6690 C6699 1.390 . S
C6691 C6690 1.387 . S
C6691 C6693 1.387 . S
H6692 C6699 0.950 . S
C6693 C6691 1.387 . S
C6693 C6695 1.390 . S
C6693 H6697 0.950 . S
H6694 C6690 0.950 . S
C6695 C6693 1.390 . S
C6695 C6696 1.387 . S
C6695 H6698 0.950 . S
C6696 C6695 1.387 . S
C6696 C6699 1.387 . S
H6697 C6693 0.950 . S
H6698 C6695 0.950 . S
C6699 C6690 1.390 . S
C6699 H6692 0.950 . S
C6699 C6696 1.387 . S
C6700 C6701 1.387 . S
C6700 H6704 0.950 . S
C6700 C6709 1.390 . S
C6701 C6700 1.387 . S
C6701 C6703 1.387 . S
H6702 C6709 0.950 . S
C6703 C6701 1.387 . S
C6703 C6705 1.390 . S
C6703 H6707 0.950 . S
H6704 C6700 0.950 . S
C6705 C6703 1.390 . S
C6705 C6706 1.387 . S
C6705 H6708 0.950 . S
C6706 C6705 1.387 . S
C6706 C6709 1.387 . S
H6707 C6703 0.950 . S
H6708 C6705 0.950 . S
C6709 C6700 1.390 . S
C6709 H6702 0.950 . S
C6709 C6706 1.387 . S
C6710 C6711 1.387 . S
C6710 H6714 0.950 . S
C6710 C6719 1.390 . S
C6711 C6710 1.387 . S
C6711 C6713 1.387 . S
H6712 C6719 0.950 . S
C6713 C6711 1.387 . S
C6713 C6715 1.390 . S
C6713 H6717 0.950 . S
H6714 C6710 0.950 . S
C6715 C6713 1.390 . S
C6715 C6716 1.387 . S
C6715 H6718 0.950 . S
C6716 C6715 1.387 . S
C6716 C6719 1.387 . S
H6717 C6713 0.950 . S
H6718 C6715 0.950 . S
C6719 C6710 1.390 . S
C6719 H6712 0.950 . S
C6719 C6716 1.387 . S
C3841 C3007 0.737 . S
C3846 C19 0.708 . S
C3851 C967 1.606 . S
C3856 C59 1.827 . S
C3861 C90 1.660 . S
C3866 C2927 1.642 . S
C3871 C139 2.961 . S
C3876 C1051 2.779 . S
C3881 C179 2.238 . S
C3886 C3091 2.139 . S
C3891 C1211 2.792 . S
C3896 C210 2.887 . S
C3901 C250 1.480 . S
C3906 C3167 1.344 . S
C3911 C299 1.203 . S
C3916 C1127 1.101 . S
C3921 C339 1.738 . S
C3926 C3607 1.513 . S
C3931 C1727 1.436 . S
C3936 C379 1.592 . S
C3941 C1767 1.317 . S
C3946 C419 1.498 . S
C3951 C1651 2.223 . S
C3956 C459 2.289 . S
C3961 C499 1.449 . S
C3966 C3767 1.361 . S
C3971 C539 0.977 . S
C3976 C3527 0.906 . S
C3981 C3807 1.617 . S
C3986 C579 1.802 . S
C3991 C619 1.800 . S
C3996 C3727 1.545 . S
C4001 C659 1.805 . S
C4006 C3247 1.569 . S
C4011 C1567 1.387 . S
C4016 C690 1.444 . S
C4021 C3367 1.416 . S
C4026 C739 1.573 . S
C4031 C779 1.900 . S
C4036 C1487 1.730 . S
C4041 C819 1.860 . S
C4046 C1527 1.646 . S
C4051 C859 1.333 . S
C4056 C3327 1.236 . S
C4061 C899 0.600 . S
C4066 C3207 0.701 . S
C4071 C3287 1.610 . S
C4076 C939 1.824 . S
C4081 C970 0.713 . S
C4086 C2056 0.729 . S
C4091 C1010 1.825 . S
C4096 C16 1.610 . S
C4101 C1059 1.660 . S
C4106 C1976 1.642 . S
C4111 C82 2.779 . S
C4116 C1090 2.961 . S
C4121 C2122 2.145 . S
C4126 C1130 2.232 . S
C4131 C1179 2.887 . S
C4136 C242 2.792 . S
C4141 C2216 1.344 . S
C4146 C1219 1.480 . S
C4151 C1250 1.202 . S
C4156 C176 1.099 . S
C4161 C1290 1.739 . S
C4166 C2656 1.512 . S
C4171 C1330 1.591 . S
C4176 C776 1.435 . S
C4181 C1370 1.509 . S
C4186 C816 1.317 . S
C4191 C682 2.223 . S
C4196 C1410 2.289 . S
C4201 C2816 1.361 . S
C4206 C1450 1.449 . S
C4211 C1490 0.978 . S
C4216 C2576 0.907 . S
C4221 C1530 1.810 . S
C4226 C2856 1.612 . S
C4231 C2776 1.541 . S
C4236 C1570 1.801 . S
C4241 C1610 1.806 . S
C4246 C2296 1.572 . S
C4251 C1659 1.444 . S
C4256 C616 1.387 . S
C4261 C2416 1.416 . S
C4266 C1690 1.572 . S
C4271 C1730 1.898 . S
C4276 C536 1.725 . S
C4281 C1770 1.861 . S
C4286 C576 1.646 . S
C4291 C2376 1.236 . S
C4296 C1810 1.334 . S
C4301 C2256 0.698 . S
C4306 C1850 0.594 . S
C4311 C2336 1.610 . S
C4316 C1890 1.824 . S
C4321 C1939 1.288 . S
C4326 C1087 1.141 . S
C4331 C2887 1.482 . S
C4336 C1979 1.834 . S
C4341 C1007 1.329 . S
C4346 C2010 1.359 . S
C4351 C2971 3.195 . S
C4356 C2059 3.334 . S
C4361 C2099 2.723 . S
C4366 C1171 2.583 . S
C4371 C2130 3.081 . S
C4376 C3131 3.010 . S
C4381 C1247 1.260 . S
C4386 C2170 1.407 . S
C4391 C3047 1.085 . S
C4396 C2219 1.304 . S
C4401 C1687 1.423 . S
C4406 C2259 1.633 . S
C4411 C2299 1.561 . S
C4416 C3647 1.415 . S
C4421 C2339 1.908 . S
C4426 C3687 1.657 . S
C4431 C3571 2.164 . S
C4436 C2379 2.235 . S
C4441 C1847 1.339 . S
C4446 C2419 1.408 . S
C4451 C1607 0.919 . S
C4456 C2459 1.007 . S
C4461 C1887 1.689 . S
C4466 C2499 1.896 . S
C4471 C1807 1.500 . S
C4476 C2539 1.784 . S
C4481 C1327 1.528 . S
C4486 C2579 1.828 . S
C4491 C3487 1.409 . S
C4496 C2610 1.467 . S
C4501 C2659 1.547 . S
C4506 C1447 1.400 . S
C4511 C3407 1.754 . S
C4516 C2699 1.908 . S
C4521 C3447 1.673 . S
C4526 C2739 1.878 . S
C4531 C2779 1.281 . S
C4536 C1407 1.170 . S
C4541 C2819 0.554 . S
C4546 C1287 0.664 . S
C4551 C2859 1.912 . S
C4556 C1367 1.740 . S
C4561 C2890 1.288 . S
C4566 C136 1.140 . S
C4571 C1936 1.476 . S
C4576 C2930 1.831 . S
C4581 C2979 1.370 . S
C4586 C56 1.326 . S
C4591 C3010 3.331 . S
C4596 C2002 3.199 . S
C4601 C3050 2.723 . S
C4606 C202 2.583 . S
C4611 C2162 3.006 . S
C4616 C3099 3.084 . S
C4621 C296 1.258 . S
C4626 C3139 1.405 . S
C4631 C3170 1.303 . S
C4636 C2096 1.085 . S
C4641 C736 1.423 . S
C4646 C3210 1.632 . S
C4651 C2696 1.414 . S
C4656 C3250 1.564 . S
C4661 C3290 1.910 . S
C4666 C2736 1.657 . S
C4671 C3330 2.235 . S
C4676 C2602 2.164 . S
C4681 C3370 1.408 . S
C4686 C896 1.338 . S
C4691 C3410 1.007 . S
C4696 C656 0.916 . S
C4701 C3450 1.896 . S
C4706 C936 1.690 . S
C4711 C856 1.501 . S
C4716 C3490 1.784 . S
C4721 C376 1.533 . S
C4726 C3530 1.831 . S
C4731 C3579 1.467 . S
C4736 C2536 1.409 . S
C4741 C3610 1.545 . S
C4746 C496 1.399 . S
C4751 C3650 1.912 . S
C4756 C2456 1.745 . S
C4761 C2496 1.672 . S
C4766 C3690 1.876 . S
C4771 C456 1.178 . S
C4776 C3730 1.276 . S
C4781 C336 0.666 . S
C4786 C3770 0.555 . S
C4791 C3810 1.914 . S
C4796 C416 1.739 . S
C4801 C11 2.596 . S
C4806 C811 2.598 . S
C4811 C2607 1.070 . S
C4816 C51 1.074 . S
C4821 C87 0.669 . S
C4826 C2651 0.670 . S
C4831 C131 2.590 . S
C4836 C2691 2.622 . S
C4841 C171 2.749 . S
C4846 C2851 2.755 . S
C4851 C207 1.180 . S
C4856 C851 1.229 . S
C4861 C2811 0.919 . S
C4866 C247 0.916 . S
C4871 C651 2.743 . S
C4876 C291 2.733 . S
C4881 C331 2.715 1_565 S
C4886 C611 2.720 . S
C4891 C491 2.217 . S
C4896 C371 2.207 . S
C4901 C411 2.421 . S
C4906 C531 2.427 . S
C4911 C451 2.606 . S
C4916 C571 2.604 . S
C4921 C687 0.997 . S
C4926 C1971 0.998 . S
C4931 C731 1.056 . S
C4936 C2007 1.065 . S
C4941 C771 2.673 . S
C4946 C2051 2.658 . S
C4951 C891 1.110 . S
C4956 C2167 1.109 . S
C4961 C2091 2.539 . S
C4966 C931 2.557 . S
C4971 C962 2.597 . S
C4976 C1762 2.598 . S
C4981 C1002 1.074 . S
C4986 C3576 1.070 . S
C4991 C3602 0.663 . S
C4996 C1056 0.662 . S
C5001 C3642 2.615 . S
C5006 C1082 2.597 . S
C5011 C1122 2.750 . S
C5016 C3802 2.755 . S
C5021 C1176 1.175 . S
C5026 C1802 1.226 . S
C5031 C3762 0.919 . S
C5036 C1216 0.915 . S
C5041 C1242 2.733 . S
C5046 C1602 2.743 . S
C5051 C1562 2.721 . S
C5056 C1282 2.715 1_545 S
C5061 C1442 2.217 . S
C5066 C1322 2.207 . S
C5071 C1482 2.423 . S
C5076 C1362 2.426 . S
C5081 C1402 2.606 . S
C5086 C1522 2.604 . S
C5091 C1656 0.999 . S
C5096 C2922 1.000 . S
C5101 C2976 1.060 . S
C5106 C1682 1.061 . S
C5111 C3002 2.658 . S
C5116 C1722 2.673 . S
C5121 C1842 1.109 . S
C5126 C3136 1.107 . S
C5131 C3042 2.539 . S
C5136 C1882 2.557 . S
C5141 C2731 2.384 . S
C5146 C1931 2.363 . S
C5151 C2771 1.113 . S
C5156 C2127 1.090 . S
C5161 C2571 2.648 . S
C5166 C2211 2.636 . S
C5171 C2251 2.763 . S
C5176 C2531 2.772 . S
C5181 C2291 2.260 . S
C5186 C2411 2.259 . S
C5191 C2451 2.008 . S
C5196 C2331 2.004 . S
C5201 C2491 2.373 . S
C5206 C2371 2.375 . S
C5211 C2882 2.362 . S
C5216 C3682 2.384 . S
C5221 C3722 1.111 . S
C5226 C3096 1.088 . S
C5231 C3162 2.636 . S
C5236 C3522 2.648 . S
C5241 C3202 2.764 . S
C5246 C3482 2.773 . S
C5251 C3362 2.259 . S
C5256 C3242 2.260 . S
C5261 C3402 2.008 . S
C5266 C3282 2.005 . S
C5271 C3322 2.375 . S
C5276 C3442 2.374 . S
C5281 C2 2.372 . S
C5286 C1739 2.398 . S
C5291 C1779 1.908 . S
C5296 C42 1.885 . S
C5301 C1650 0.680 . S
C5306 C96 0.598 . S
C5311 C3619 2.606 . S
C5316 C122 2.734 . S
C5321 C162 2.507 . S
C5326 C3739 2.426 . S
C5331 C3779 0.769 . S
C5336 C216 0.768 . S
C5341 C256 0.699 . S
C5346 C3539 0.555 . S
C5351 C3819 2.587 . S
C5356 C282 2.568 . S
C5361 C1050 2.484 . S
C5366 C322 2.530 . S
C5371 C3019 2.337 . S
C5376 C362 2.381 . S
C5381 C402 2.256 . S
C5386 C979 2.300 . S
C5391 C2939 1.730 . S
C5396 C442 1.769 . S
C5401 C482 1.506 . S
C5406 C1210 1.428 . S
C5411 C522 1.283 . S
C5416 C3179 1.338 . S
C5421 C562 2.634 . S
C5426 C1139 2.612 . S
C5431 C602 3.002 . S
C5436 C3090 2.954 . S
C5441 C642 2.883 . S
C5446 C3379 2.885 . S
C5451 C1299 0.798 1_545 S
C5456 C696 0.770 . S
C5461 C3259 2.088 . S
C5466 C722 2.014 . S
C5471 C762 2.481 . S
C5476 C1379 2.493 . S
C5481 C802 2.882 . S
C5486 C1419 2.884 . S
C5491 C842 2.247 . S
C5496 C3459 2.313 . S
C5501 C882 0.916 . S
C5506 C3499 0.956 . S
C5511 C922 2.550 . S
C5516 C3419 2.567 . S
C5521 C770 2.401 . S
C5526 C971 2.367 . S
C5531 C1011 1.887 . S
C5536 C810 1.908 . S
C5541 C699 0.674 . S
C5546 C1047 0.592 . S
C5551 C1091 2.734 . S
C5556 C2650 2.606 . S
C5561 C1131 2.506 . S
C5566 C2770 2.424 . S
C5571 C2810 0.762 . S
C5576 C1167 0.767 . S
C5581 C2570 0.551 . S
C5586 C1207 0.691 . S
C5591 C1251 2.568 . S
C5596 C2850 2.587 . S
C5601 C99 2.483 . S
C5606 C1291 2.529 . S
C5611 C1331 2.381 . S
C5616 C2050 2.336 . S
C5621 C1371 2.255 . S
C5626 C10 2.300 . S
C5631 C1970 1.729 . S
C5636 C1411 1.768 . S
C5641 C259 1.425 . S
C5646 C1451 1.504 . S
C5651 C1491 1.280 . S
C5656 C2210 1.337 . S
C5661 C1531 2.634 . S
C5666 C170 2.612 . S
C5671 C2139 2.954 . S
C5676 C1571 3.002 . S
C5681 C1611 2.882 . S
C5686 C2410 2.886 . S
C5691 C1647 0.780 . S
C5696 C330 0.797 1_565 S
C5701 C2290 2.088 . S
C5706 C1691 2.013 . S
C5711 C1731 2.481 . S
C5716 C410 2.493 . S
C5721 C450 2.884 . S
C5726 C1771 2.882 . S
C5731 C1811 2.246 . S
C5736 C2490 2.312 . S
C5741 C2530 0.957 . S
C5746 C1851 0.918 . S
C5751 C2450 2.567 . S
C5756 C1891 2.550 . S
C5761 C3659 2.824 . S
C5766 C1922 2.819 . S
C5771 C3699 1.971 . S
C5776 C1962 1.962 . S
C5781 C2016 0.608 . S
C5786 C3570 0.727 . S
C5791 C2042 2.641 . S
C5796 C1699 2.526 . S
C5801 C2082 2.739 . S
C5806 C1819 2.623 . S
C5811 C2136 0.735 . S
C5816 C1859 0.733 . S
C5821 C1619 0.643 . S
C5826 C2176 0.701 . S
C5831 C1899 2.427 . S
C5836 C2202 2.406 . S
C5841 C2242 2.774 . S
C5846 C2970 2.727 . S
C5851 C2282 2.256 . S
C5856 C1099 2.210 . S
C5861 C2322 1.948 . S
C5866 C2899 1.887 . S
C5871 C2362 1.747 . S
C5876 C1019 1.677 . S
C5881 C2402 1.871 . S
C5886 C3130 1.778 . S
C5891 C2442 1.217 . S
C5896 C1259 1.254 . S
C5901 C2482 2.219 . S
C5906 C3059 2.149 . S
C5911 C2522 2.873 . S
C5916 C1170 2.831 . S
C5921 C1459 2.749 1_565 S
C5926 C2562 2.784 . S
C5931 C3219 0.766 . S
C5936 C2616 0.754 . S
C5941 C1339 1.682 . S
C5946 C2642 1.630 . S
C5951 C3299 2.139 . S
C5956 C2682 2.110 . S
C5961 C2722 2.733 . S
C5966 C3339 2.724 . S
C5971 C2762 1.968 . S
C5976 C1539 1.993 . S
C5981 C2802 0.679 . S
C5986 C1579 0.641 . S
C5991 C2842 2.651 . S
C5996 C1499 2.674 . S
C6001 C2690 2.824 . S
C6006 C2891 2.819 . S
C6011 C2730 1.973 . S
C6016 C2931 1.961 . S
C6021 C2967 0.612 . S
C6026 C2619 0.728 . S
C6031 C3011 2.640 . S
C6036 C730 2.524 . S
C6041 C850 2.624 . S
C6046 C3051 2.740 . S
C6051 C3087 0.730 . S
C6056 C890 0.734 . S
C6061 C650 0.643 . S
C6066 C3127 0.702 . S
C6071 C930 2.427 . S
C6076 C3171 2.406 . S
C6081 C3211 2.775 . S
C6086 C2019 2.727 . S
C6091 C3251 2.256 . S
C6096 C130 2.208 . S
C6101 C3291 1.948 . S
C6106 C1930 1.888 . S
C6111 C3331 1.747 . S
C6116 C50 1.678 . S
C6121 C2179 1.772 . S
C6126 C3371 1.878 . S
C6131 C290 1.253 . S
C6136 C3411 1.215 . S
C6141 C2090 2.151 . S
C6146 C3451 2.219 . S
C6151 C3491 2.873 . S
C6156 C219 2.831 . S
C6161 C490 2.750 1_545 S
C6166 C3531 2.784 . S
C6171 C3567 0.750 . S
C6176 C2250 0.763 . S
C6181 C3611 1.630 . S
C6186 C370 1.682 . S
C6191 C2330 2.139 . S
C6196 C3651 2.110 . S
C6201 C3691 2.733 . S
C6206 C2370 2.723 . S
C6211 C3731 1.968 . S
C6216 C570 1.993 . S
C6221 C610 0.642 . S
C6226 C3771 0.675 . S
C6231 C3811 2.650 . S
C6236 C530 2.674 . S
C6241 C7 2.890 . S
C6246 C367 2.949 . S
C6251 C407 3.224 . S
C6256 C47 3.228 . S
C6261 C91 2.955 . S
C6266 C447 2.889 . S
C6271 C327 2.319 . S
C6276 C127 2.402 . S
C6281 C607 2.151 . S
C6286 C167 2.262 . S
C6291 C487 2.811 . S
C6296 C211 2.875 . S
C6301 C251 3.240 . S
C6306 C527 3.153 . S
C6311 C287 2.975 . S
C6316 C567 2.997 . S
C6321 C647 3.020 . S
C6326 C727 3.079 . S
C6331 C2807 2.649 . S
C6336 C691 2.747 . S
C6341 C767 3.259 . S
C6346 C2847 3.240 . S
C6351 C2767 3.194 . S
C6356 C807 3.181 . S
C6361 C2727 3.137 . S
C6366 C847 3.141 . S
C6371 C887 2.704 . S
C6376 C2611 2.815 . S
C6381 C927 3.210 . S
C6386 C2687 3.263 . S
C6391 C1336 2.952 . S
C6396 C976 2.887 . S
C6401 C1016 3.230 . S
C6406 C1376 3.221 . S
C6411 C1042 2.955 . S
C6416 C1416 2.889 . S
C6421 C1296 2.316 . S
C6426 C1096 2.401 . S
C6431 C1576 2.154 . S
C6436 C1136 2.265 . S
C6441 C1456 2.811 . S
C6446 C1162 2.875 . S
C6451 C1496 3.153 . S
C6456 C1202 3.240 . S
C6461 C1536 3.003 . S
C6466 C1256 2.972 . S
C6471 C1696 3.079 . S
C6476 C1616 3.020 . S
C6481 C1642 2.745 . S
C6486 C3776 2.648 . S
C6491 C1736 3.259 . S
C6496 C3816 3.240 . S
C6501 C1776 3.186 . S
C6506 C3736 3.189 . S
C6511 C3696 3.138 . S
C6516 C1816 3.143 . S
C6521 C3562 2.815 . S
C6526 C1856 2.704 . S
C6531 C3656 3.268 . S
C6536 C1896 3.206 . S
C6541 C1927 3.030 . S
C6546 C2287 3.046 . S
C6551 C1967 3.417 . S
C6556 C2327 3.481 . S
C6561 C2011 2.574 . S
C6566 C2367 2.539 . S
C6571 C2047 2.264 . S
C6576 C2247 2.151 . S
C6581 C2527 2.565 . S
C6586 C2087 2.681 . S
C6591 C2131 2.934 . S
C6596 C2407 2.837 . S
C6601 C2447 3.027 . S
C6606 C2171 3.075 . S
C6611 C2487 3.252 . S
C6616 C2207 3.210 . S
C6621 C2647 3.097 . S
C6626 C2567 3.028 . S
C6631 C2896 3.030 . S
C6636 C3256 3.046 . S
C6641 C3296 3.481 . S
C6646 C2936 3.419 . S
C6651 C2962 2.573 . S
C6656 C3336 2.538 . S
C6661 C3216 2.151 . S
C6666 C3016 2.266 . S
C6671 C3056 2.681 . S
C6676 C3496 2.565 . S
C6681 C3376 2.834 . S
C6686 C3082 2.932 . S
C6691 C3122 3.080 . S
C6696 C3416 3.021 . S
C6701 C3176 3.208 . S
C6706 C3456 3.250 . S
C6711 C3536 3.029 . S
C6716 C3616 3.097 . S
