# Generated by pormake.
# Topology pcl, (4)-cn, num edge types: 1
# Building blocks:
#     Node 0, Type 0, BuildingBlock: NAHDIM_clean_sbu_0, # of connection points: 4
#     Node 1, Type 0, BuildingBlock: NAHDIM_clean_sbu_0, # of connection points: 4
#     Node 2, Type 0, BuildingBlock: NAHDIM_clean_sbu_0, # of connection points: 4
#     Node 3, Type 0, BuildingBlock: NAHDIM_clean_sbu_0, # of connection points: 4
#     Node 4, Type 0, BuildingBlock: NAHDIM_clean_sbu_0, # of connection points: 4
#     Node 5, Type 0, BuildingBlock: NAHDIM_clean_sbu_0, # of connection points: 4
#     Node 6, Type 0, BuildingBlock: NAHDIM_clean_sbu_0, # of connection points: 4
#     Node 7, Type 0, BuildingBlock: NAHDIM_clean_sbu_0, # of connection points: 4
#     Node 8, Type 0, BuildingBlock: NAHDIM_clean_sbu_0, # of connection points: 4
#     Node 9, Type 0, BuildingBlock: NAHDIM_clean_sbu_0, # of connection points: 4
#     Node 10, Type 0, BuildingBlock: NAHDIM_clean_sbu_0, # of connection points: 4
#     Node 11, Type 0, BuildingBlock: NAHDIM_clean_sbu_0, # of connection points: 4
#     Node 12, Type 0, BuildingBlock: NAHDIM_clean_sbu_0, # of connection points: 4
#     Node 13, Type 0, BuildingBlock: NAHDIM_clean_sbu_0, # of connection points: 4
#     Node 14, Type 0, BuildingBlock: NAHDIM_clean_sbu_0, # of connection points: 4
#     Node 15, Type 0, BuildingBlock: NAHDIM_clean_sbu_0, # of connection points: 4
#     Edge 16, Type (0, 0), BuildingBlock: ZUJKAS_clean_linker_0, # of connection points: 2
#     Edge 17, Type (0, 0), BuildingBlock: ZUJKAS_clean_linker_0, # of connection points: 2
#     Edge 18, Type (0, 0), BuildingBlock: ZUJKAS_clean_linker_0, # of connection points: 2
#     Edge 19, Type (0, 0), BuildingBlock: ZUJKAS_clean_linker_0, # of connection points: 2
#     Edge 20, Type (0, 0), BuildingBlock: ZUJKAS_clean_linker_0, # of connection points: 2
#     Edge 21, Type (0, 0), BuildingBlock: ZUJKAS_clean_linker_0, # of connection points: 2
#     Edge 22, Type (0, 0), BuildingBlock: ZUJKAS_clean_linker_0, # of connection points: 2
#     Edge 23, Type (0, 0), BuildingBlock: ZUJKAS_clean_linker_0, # of connection points: 2
#     Edge 24, Type (0, 0), BuildingBlock: ZUJKAS_clean_linker_0, # of connection points: 2
#     Edge 25, Type (0, 0), BuildingBlock: ZUJKAS_clean_linker_0, # of connection points: 2
#     Edge 26, Type (0, 0), BuildingBlock: ZUJKAS_clean_linker_0, # of connection points: 2
#     Edge 27, Type (0, 0), BuildingBlock: ZUJKAS_clean_linker_0, # of connection points: 2
#     Edge 28, Type (0, 0), BuildingBlock: ZUJKAS_clean_linker_0, # of connection points: 2
#     Edge 29, Type (0, 0), BuildingBlock: ZUJKAS_clean_linker_0, # of connection points: 2
#     Edge 30, Type (0, 0), BuildingBlock: ZUJKAS_clean_linker_0, # of connection points: 2
#     Edge 31, Type (0, 0), BuildingBlock: ZUJKAS_clean_linker_0, # of connection points: 2
#     Edge 32, Type (0, 0), BuildingBlock: ZUJKAS_clean_linker_0, # of connection points: 2
#     Edge 33, Type (0, 0), BuildingBlock: ZUJKAS_clean_linker_0, # of connection points: 2
#     Edge 34, Type (0, 0), BuildingBlock: ZUJKAS_clean_linker_0, # of connection points: 2
#     Edge 35, Type (0, 0), BuildingBlock: ZUJKAS_clean_linker_0, # of connection points: 2
#     Edge 36, Type (0, 0), BuildingBlock: ZUJKAS_clean_linker_0, # of connection points: 2
#     Edge 37, Type (0, 0), BuildingBlock: ZUJKAS_clean_linker_0, # of connection points: 2
#     Edge 38, Type (0, 0), BuildingBlock: ZUJKAS_clean_linker_0, # of connection points: 2
#     Edge 39, Type (0, 0), BuildingBlock: ZUJKAS_clean_linker_0, # of connection points: 2
#     Edge 40, Type (0, 0), BuildingBlock: ZUJKAS_clean_linker_0, # of connection points: 2
#     Edge 41, Type (0, 0), BuildingBlock: ZUJKAS_clean_linker_0, # of connection points: 2
#     Edge 42, Type (0, 0), BuildingBlock: ZUJKAS_clean_linker_0, # of connection points: 2
#     Edge 43, Type (0, 0), BuildingBlock: ZUJKAS_clean_linker_0, # of connection points: 2
#     Edge 44, Type (0, 0), BuildingBlock: ZUJKAS_clean_linker_0, # of connection points: 2
#     Edge 45, Type (0, 0), BuildingBlock: ZUJKAS_clean_linker_0, # of connection points: 2
#     Edge 46, Type (0, 0), BuildingBlock: ZUJKAS_clean_linker_0, # of connection points: 2
#     Edge 47, Type (0, 0), BuildingBlock: ZUJKAS_clean_linker_0, # of connection points: 2
# Relax obj value: 0.090
# Max RMSD: 0.095
# Mean RMSD: 0.087
data_MOF--net-pcl--node1-NAHDIM_clean_sbu_0--edge1-ZUJKAS_clean_linker_0
_symmetry_space_group_name_H-M    P1
_symmetry_Int_Tables_number       1
_symmetry_cell_setting            triclinic
loop_
_symmetry_equiv_pos_as_xyz
'x, y, z'
_cell_length_a     62.333974
_cell_length_b     62.027841
_cell_length_c     55.564392
_cell_angle_alpha  89.972705
_cell_angle_beta   89.928426
_cell_angle_gamma 90.001071
loop_
_atom_site_label
_atom_site_type_symbol
_atom_site_fract_x
_atom_site_fract_y
_atom_site_fract_z
_atom_type_partial_charge
C0 C 0.19532 0.31244 0.06874 0.0
O1 O 0.19053 0.30784 0.09119 0.0
O2 O 0.17539 0.3489 0.11301 0.0
Zn3 Zn 0.17045 0.35116 0.07742 0.0
O4 O 0.17768 0.38067 0.06526 0.0
C5 C 0.12837 0.33274 0.08348 0.0
O6 O 0.13784 0.32218 0.10101 0.0
O7 O 0.18838 0.32981 0.05948 0.0
C8 C 0.17119 0.39767 0.0757 0.0
O9 O 0.15991 0.39599 0.09561 0.0
C10 C 0.19015 0.35859 0.12445 0.0
O11 O 0.20368 0.37097 0.11269 0.0
O12 O 0.13929 0.34574 0.07073 0.0
C13 C 0.78276 0.65875 0.55748 0.0
O14 O 0.77281 0.64313 0.56894 0.0
O15 O 0.81359 0.63222 0.60601 0.0
Zn16 Zn 0.81922 0.63371 0.57053 0.0
O17 O 0.81024 0.60621 0.55455 0.0
C18 C 0.86188 0.649 0.57988 0.0
O19 O 0.85219 0.65855 0.59797 0.0
O20 O 0.80308 0.65835 0.55601 0.0
C21 C 0.80972 0.60563 0.53171 0.0
O22 O 0.81461 0.62311 0.51951 0.0
C23 C 0.82074 0.61628 0.61789 0.0
O24 O 0.83069 0.6007 0.60637 0.0
O25 O 0.85087 0.63773 0.56532 0.0
C26 C 0.21009 0.66171 0.93249 0.0
O27 O 0.21926 0.6466 0.91949 0.0
O28 O 0.17526 0.63281 0.88926 0.0
Zn29 Zn 0.17239 0.63591 0.92509 0.0
O30 O 0.18068 0.60877 0.94225 0.0
C31 C 0.12943 0.65184 0.91829 0.0
O32 O 0.13761 0.65942 0.89819 0.0
O33 O 0.19016 0.66046 0.93699 0.0
C34 C 0.17021 0.5917 0.93767 0.0
O35 O 0.15524 0.59226 0.92105 0.0
C36 C 0.18686 0.61913 0.87828 0.0
O37 O 0.19884 0.60573 0.89071 0.0
O38 O 0.14144 0.64162 0.93279 0.0
C39 C 0.79014 0.33397 0.43225 0.0
O40 O 0.77978 0.35053 0.42318 0.0
O41 O 0.81821 0.35835 0.37794 0.0
Zn42 Zn 0.82616 0.3567 0.4129 0.0
O43 O 0.81979 0.38506 0.42876 0.0
C44 C 0.86957 0.36518 0.40316 0.0
O45 O 0.8602 0.38077 0.39108 0.0
O46 O 0.81038 0.33296 0.42986 0.0
C47 C 0.80607 0.39826 0.42047 0.0
O48 O 0.79511 0.39312 0.40113 0.0
C49 C 0.81007 0.34306 0.36582 0.0
O50 O 0.80571 0.32466 0.37648 0.0
O51 O 0.85796 0.35188 0.41471 0.0
C52 C 0.82292 0.66133 0.94019 0.0
O53 O 0.81301 0.64372 0.93322 0.0
O54 O 0.85249 0.61142 0.93742 0.0
Zn55 Zn 0.85887 0.6392 0.9203 0.0
O56 O 0.84946 0.63672 0.88579 0.0
C57 C 0.90106 0.64275 0.94102 0.0
O58 O 0.89112 0.63594 0.96045 0.0
O59 O 0.84292 0.66315 0.93638 0.0
C60 C 0.86276 0.63117 0.86959 0.0
O61 O 0.88274 0.62721 0.87563 0.0
C62 C 0.86351 0.59468 0.93289 0.0
O63 O 0.87909 0.59587 0.917 0.0
O64 O 0.89042 0.64547 0.92177 0.0
C65 C 0.17656 0.33269 0.44044 0.0
O66 O 0.18789 0.34766 0.42956 0.0
O67 O 0.14888 0.3867 0.44238 0.0
Zn68 Zn 0.14257 0.35945 0.42422 0.0
O69 O 0.15417 0.36146 0.39062 0.0
C70 C 0.09954 0.36831 0.41056 0.0
O71 O 0.10925 0.38406 0.39907 0.0
O72 O 0.15625 0.33431 0.44079 0.0
C73 C 0.1512 0.34587 0.37621 0.0
O74 O 0.14043 0.32891 0.38367 0.0
C75 C 0.16382 0.39952 0.43626 0.0
O76 O 0.17585 0.39484 0.41755 0.0
O77 O 0.11069 0.35521 0.42289 0.0
C78 C 0.82244 0.32798 0.0451 0.0
O79 O 0.81121 0.34173 0.05794 0.0
O80 O 0.85491 0.37976 0.05201 0.0
Zn81 Zn 0.85707 0.35044 0.06717 0.0
O82 O 0.84323 0.34988 0.09976 0.0
C83 C 0.90097 0.34656 0.05329 0.0
O84 O 0.89346 0.35528 0.03345 0.0
O85 O 0.84278 0.32869 0.04601 0.0
C86 C 0.84815 0.36367 0.1157 0.0
O87 O 0.86224 0.37873 0.11048 0.0
C88 C 0.83982 0.3931 0.0558 0.0
O89 O 0.82424 0.38795 0.07067 0.0
O90 O 0.88816 0.34275 0.07057 0.0
C91 C 0.1684 0.66552 0.57016 0.0
O92 O 0.17827 0.65482 0.58729 0.0
O93 O 0.14012 0.60858 0.56226 0.0
Zn94 Zn 0.13443 0.63569 0.58096 0.0
O95 O 0.14526 0.63241 0.6148 0.0
C96 C 0.09128 0.63807 0.56328 0.0
O97 O 0.10052 0.63121 0.54343 0.0
O98 O 0.14932 0.66035 0.56458 0.0
C99 C 0.14353 0.6146 0.62594 0.0
O100 O 0.13443 0.59815 0.6151 0.0
C101 C 0.1586 0.59995 0.56179 0.0
O102 O 0.17433 0.60887 0.57395 0.0
O103 O 0.10271 0.64129 0.58185 0.0
C104 C 0.70643 0.82788 0.06293 0.0
O105 O 0.71564 0.84589 0.06984 0.0
O106 O 0.67182 0.85112 0.11491 0.0
Zn107 Zn 0.6685 0.84965 0.07902 0.0
O108 O 0.67657 0.87769 0.06349 0.0
C109 C 0.62497 0.83491 0.08608 0.0
O110 O 0.63262 0.82791 0.10668 0.0
O111 O 0.68628 0.82577 0.0654 0.0
C112 C 0.66793 0.895 0.07092 0.0
O113 O 0.65468 0.89417 0.08931 0.0
C114 C 0.68488 0.86316 0.12615 0.0
O115 O 0.69809 0.87558 0.11398 0.0
O116 O 0.63749 0.84427 0.07134 0.0
C117 C 0.289 0.15666 0.55045 0.0
O118 O 0.27944 0.14035 0.5611 0.0
O119 O 0.31966 0.13452 0.6019 0.0
Zn120 Zn 0.32652 0.13448 0.56646 0.0
O121 O 0.31944 0.10581 0.55158 0.0
C122 C 0.37067 0.14446 0.57883 0.0
O123 O 0.36302 0.14503 0.60085 0.0
O124 O 0.30935 0.15754 0.55037 0.0
C125 C 0.33324 0.09074 0.55219 0.0
O126 O 0.35174 0.0942 0.56281 0.0
C127 C 0.31504 0.11771 0.61392 0.0
O128 O 0.31382 0.09903 0.60288 0.0
O129 O 0.35802 0.14058 0.56142 0.0
C130 C 0.70625 0.15836 0.92949 0.0
O131 O 0.71513 0.14275 0.917 0.0
O132 O 0.67137 0.13164 0.88525 0.0
Zn133 Zn 0.66811 0.13372 0.92112 0.0
O134 O 0.6758 0.10592 0.93741 0.0
C135 C 0.62703 0.15359 0.91537 0.0
O136 O 0.63725 0.16386 0.89813 0.0
O137 O 0.68622 0.15779 0.93364 0.0
C138 C 0.66614 0.08883 0.93104 0.0
O139 O 0.65206 0.08981 0.91349 0.0
C140 C 0.68282 0.11811 0.87384 0.0
O141 O 0.69432 0.10397 0.88581 0.0
O142 O 0.63718 0.14002 0.92815 0.0
C143 C 0.28189 0.82475 0.43238 0.0
O144 O 0.27174 0.83879 0.41883 0.0
O145 O 0.31107 0.84637 0.38004 0.0
Zn146 Zn 0.31775 0.8485 0.4153 0.0
O147 O 0.30942 0.87739 0.42856 0.0
C148 C 0.36107 0.86135 0.4134 0.0
O149 O 0.35163 0.87864 0.40477 0.0
O150 O 0.30222 0.8255 0.43355 0.0
C151 C 0.31155 0.88054 0.45101 0.0
O152 O 0.31813 0.86457 0.46467 0.0
C153 C 0.3029 0.86173 0.368 0.0
O154 O 0.29784 0.87977 0.37899 0.0
O155 O 0.3496 0.8453 0.41947 0.0
C156 C 0.33199 0.17758 0.92552 0.0
O157 O 0.33564 0.18234 0.90284 0.0
O158 O 0.3529 0.1099 0.929 0.0
Zn159 Zn 0.3561 0.1392 0.91419 0.0
O160 O 0.34502 0.13894 0.88019 0.0
C161 C 0.39861 0.14414 0.9326 0.0
O162 O 0.38972 0.13544 0.95173 0.0
O163 O 0.33942 0.16016 0.93414 0.0
C164 C 0.34234 0.12143 0.86872 0.0
O165 O 0.34675 0.10304 0.87934 0.0
C166 C 0.33475 0.10364 0.93672 0.0
O167 O 0.31814 0.11657 0.93483 0.0
O168 O 0.38717 0.14752 0.91407 0.0
C169 C 0.66914 0.83032 0.44012 0.0
O170 O 0.68 0.8438 0.42653 0.0
O171 O 0.64254 0.88537 0.44388 0.0
Zn172 Zn 0.63488 0.85806 0.42637 0.0
O173 O 0.64465 0.85932 0.39185 0.0
C174 C 0.59061 0.87051 0.4264 0.0
O175 O 0.59923 0.88981 0.4253 0.0
O176 O 0.64909 0.83309 0.44278 0.0
C177 C 0.64173 0.87589 0.3788 0.0
O178 O 0.63211 0.89282 0.38804 0.0
C179 C 0.65861 0.8971 0.43867 0.0
O180 O 0.67152 0.89129 0.42114 0.0
O181 O 0.60282 0.8541 0.4272 0.0
C182 C 0.32072 0.83251 0.05294 0.0
O183 O 0.30929 0.84446 0.06765 0.0
O184 O 0.35124 0.88761 0.05265 0.0
Zn185 Zn 0.35494 0.85947 0.06988 0.0
O186 O 0.34211 0.86156 0.10288 0.0
C187 C 0.39796 0.85326 0.05391 0.0
O188 O 0.3891 0.8578 0.03307 0.0
O189 O 0.34073 0.83595 0.05103 0.0
C190 C 0.34201 0.84526 0.11671 0.0
O191 O 0.35032 0.82704 0.10904 0.0
C192 C 0.33398 0.8984 0.05433 0.0
O193 O 0.31823 0.89099 0.0677 0.0
O194 O 0.38631 0.85294 0.07267 0.0
C195 C 0.67747 0.16592 0.55744 0.0
O196 O 0.68797 0.14971 0.56705 0.0
O197 O 0.64796 0.11417 0.55438 0.0
Zn198 Zn 0.64183 0.14104 0.57348 0.0
O199 O 0.65149 0.13748 0.60769 0.0
C200 C 0.59934 0.14638 0.55416 0.0
O201 O 0.6093 0.14313 0.53362 0.0
O202 O 0.6571 0.16595 0.55821 0.0
C203 C 0.64429 0.12184 0.62006 0.0
O204 O 0.63083 0.10824 0.61005 0.0
C205 C 0.66219 0.1005 0.5603 0.0
O206 O 0.67379 0.10379 0.57967 0.0
O207 O 0.6101 0.14642 0.57355 0.0
H208 H 0.1044 0.35073 0.04756 0.0
H209 H 0.06546 0.34921 0.04267 0.0
H210 H 0.06046 0.30864 0.10545 0.0
H211 H 0.09945 0.31006 0.11058 0.0
H212 H 0.03717 0.31118 0.03863 0.0
H213 H 0.0213 0.36236 0.11903 0.0
H214 H 0.04725 0.3613 0.10458 0.0
H215 H 0.03853 0.33941 0.12332 0.0
C216 C 0.09506 0.34137 0.06028 0.0
C217 C 0.105 0.33064 0.07958 0.0
C218 C 0.07283 0.3405 0.05741 0.0
C219 C 0.06016 0.32902 0.07385 0.0
C220 C 0.07002 0.31779 0.09275 0.0
H221 H 0.92122 0.3262 0.09055 0.0
H222 H 0.95969 0.31964 0.09515 0.0
C223 C 0.09228 0.31857 0.09559 0.0
C224 C 0.03656 0.32941 0.07156 0.0
H225 H 0.99131 0.34967 0.09767 0.0
C226 C 0.02708 0.3195 0.05155 0.0
C227 C 0.02355 0.34024 0.08853 0.0
C228 C 0.03308 0.35159 0.11003 0.0
C229 C 0.0048 0.32014 0.04803 0.0
C230 C 0.99181 0.33144 0.06469 0.0
C231 C 0.0013 0.34102 0.08493 0.0
C232 C 0.96843 0.33422 0.06113 0.0
C233 C 0.99538 0.30853 0.02665 0.0
C234 C 0.96061 0.34467 0.04052 0.0
C235 C 0.93865 0.34835 0.03778 0.0
C236 C 0.92412 0.34188 0.05576 0.0
C237 C 0.93199 0.33138 0.07637 0.0
C238 C 0.95396 0.3276 0.07903 0.0
H239 H 0.00617 0.29549 0.02018 0.0
H240 H 0.97951 0.30142 0.03108 0.0
H241 H 0.9932 0.32016 0.01167 0.0
H242 H 0.97155 0.35041 0.02678 0.0
H243 H 0.93312 0.35661 0.02177 0.0
H244 H 0.88662 0.63306 0.54328 0.0
H245 H 0.9258 0.63349 0.54025 0.0
H246 H 0.92967 0.66814 0.60735 0.0
H247 H 0.89052 0.6678 0.61062 0.0
H248 H 0.9552 0.67088 0.54158 0.0
H249 H 0.96704 0.61244 0.61642 0.0
H250 H 0.94169 0.61547 0.60108 0.0
H251 H 0.95005 0.63518 0.62276 0.0
C252 C 0.89578 0.64086 0.55736 0.0
C253 C 0.88546 0.65029 0.57728 0.0
C254 C 0.91814 0.64111 0.55556 0.0
C255 C 0.93054 0.65063 0.57371 0.0
C256 C 0.92032 0.66049 0.59331 0.0
H257 H 0.0676 0.65428 0.60056 0.0
H258 H 0.02868 0.65886 0.60246 0.0
C259 C 0.89796 0.66034 0.59509 0.0
C260 C 0.9542 0.64983 0.57235 0.0
H261 H -0.00185 0.62747 0.59903 0.0
C262 C 0.96465 0.66141 0.5541 0.0
C263 C 0.96636 0.63748 0.58879 0.0
C264 C 0.95579 0.62427 0.6083 0.0
C265 C 0.9871 0.66116 0.55201 0.0
C266 C -0.00072 0.64859 0.56828 0.0
C267 C 0.98877 0.63711 0.5866 0.0
C268 C 0.02292 0.64682 0.5665 0.0
C269 C -0.00244 0.67467 0.53269 0.0
C270 C 0.03258 0.63844 0.54568 0.0
C271 C 0.05483 0.63589 0.54449 0.0
C272 C 0.0678 0.64144 0.56421 0.0
C273 C 0.05807 0.64985 0.58504 0.0
C274 C 0.03584 0.65248 0.58617 0.0
H275 H 0.98683 0.68786 0.52652 0.0
H276 H 0.01281 0.68185 0.53918 0.0
H277 H 0.00122 0.66432 0.51693 0.0
H278 H 0.02287 0.63348 0.53051 0.0
H279 H 0.0618 0.62924 0.52824 0.0
H280 H 0.92933 0.63466 0.97756 0.0
H281 H 0.96837 0.63911 0.97682 0.0
H282 H 0.9648 0.66308 0.90408 0.0
H283 H 0.92585 0.65879 0.90462 0.0
H284 H 0.99636 0.61862 0.94308 0.0
H285 H 0.0028 0.70783 0.93924 0.0
H286 H 0.97873 0.69415 0.94902 0.0
H287 H 0.98487 0.69623 0.9175 0.0
C288 C 0.93683 0.64109 0.96149 0.0
C289 C 0.9245 0.64638 0.94115 0.0
C290 C 0.95911 0.64361 0.96112 0.0
C291 C 0.96937 0.65168 0.94052 0.0
C292 C 0.95711 0.65721 0.92031 0.0
H293 H 0.09837 0.66794 0.88859 0.0
H294 H 0.05963 0.66844 0.89562 0.0
C295 C 0.93487 0.65461 0.92061 0.0
C296 C 0.99303 0.653 0.93951 0.0
H297 H 0.03467 0.68794 0.93114 0.0
C298 C 0.0048 0.63377 0.94074 0.0
C299 C 0.00387 0.67281 0.9363 0.0
C300 C 0.99198 0.69398 0.93563 0.0
C301 C 0.02717 0.63373 0.93808 0.0
C302 C 0.03804 0.65353 0.93467 0.0
C303 C 0.02628 0.6728 0.93378 0.0
C304 C 0.06157 0.65444 0.93122 0.0
C305 C 0.03886 0.61241 0.93806 0.0
C306 C 0.07548 0.6469 0.94917 0.0
C307 C 0.0976 0.64645 0.94516 0.0
C308 C 0.10619 0.65377 0.92321 0.0
C309 C 0.09226 0.66212 0.90565 0.0
C310 C 0.07013 0.66245 0.90964 0.0
H311 H 0.0278 0.59867 0.93481 0.0
H312 H 0.05161 0.61215 0.92409 0.0
H313 H 0.04654 0.60993 0.95585 0.0
H314 H 0.06921 0.6411 0.96617 0.0
H315 H 0.10791 0.64012 0.95915 0.0
H316 H 0.07116 0.3938 0.3862 0.0
H317 H 0.03208 0.39065 0.38523 0.0
H318 H 0.03537 0.33468 0.43113 0.0
H319 H 0.07448 0.3378 0.43246 0.0
H320 H 0.0067 0.35539 0.36968 0.0
H321 H 0.99291 0.37475 0.4662 0.0
H322 H 0.01807 0.38016 0.45123 0.0
H323 H 0.0115 0.3532 0.46049 0.0
C324 C 0.0636 0.38082 0.39613 0.0
C325 C 0.07593 0.36613 0.40953 0.0
C326 C 0.04127 0.37904 0.39552 0.0
C327 C 0.03086 0.36262 0.40837 0.0
C328 C 0.0431 0.3477 0.42145 0.0
H329 H 0.89429 0.33564 0.42716 0.0
H330 H 0.93353 0.33334 0.42778 0.0
C331 C 0.06545 0.34946 0.42209 0.0
C332 C 0.00719 0.3611 0.40789 0.0
H333 H 0.96253 0.36521 0.44322 0.0
C334 C -0.00298 0.3575 0.38574 0.0
C335 C 0.99466 0.36377 0.42893 0.0
C336 C 0.00476 0.36836 0.45306 0.0
C337 C 0.97459 0.35654 0.38404 0.0
C338 C 0.96205 0.35964 0.40499 0.0
C339 C 0.97222 0.36283 0.42721 0.0
C340 C 0.93835 0.36058 0.40406 0.0
C341 C 0.96451 0.35207 0.35988 0.0
C342 C 0.92814 0.37679 0.39072 0.0
C343 C 0.9058 0.37817 0.39033 0.0
C344 C 0.89323 0.36341 0.40341 0.0
C345 C 0.90351 0.34721 0.41684 0.0
C346 C 0.92591 0.34587 0.41723 0.0
H347 H 0.97599 0.34414 0.34739 0.0
H348 H 0.95011 0.34166 0.36177 0.0
H349 H 0.95946 0.36754 0.3516 0.0
H350 H 0.93748 0.38858 0.38084 0.0
H351 H 0.8984 0.3909 0.37989 0.0
H352 H 0.42078 0.84129 0.09372 0.0
H353 H 0.45954 0.83579 0.0968 0.0
H354 H 0.46663 0.85022 0.0213 0.0
H355 H 0.42788 0.85584 0.01798 0.0
H356 H 0.48702 0.80641 0.06886 0.0
H357 H 0.50722 0.89322 0.05729 0.0
H358 H 0.48065 0.88417 0.06546 0.0
H359 H 0.48982 0.88164 0.03496 0.0
C360 C 0.43056 0.84326 0.07774 0.0
C361 C 0.42127 0.84915 0.05563 0.0
C362 C 0.45267 0.84005 0.07954 0.0
C363 C 0.46587 0.84283 0.05934 0.0
C364 C 0.45666 0.84827 0.03715 0.0
H365 H 0.6045 0.84549 0.04425 0.0
H366 H 0.56592 0.8453 0.0365 0.0
C367 C 0.43453 0.85141 0.03529 0.0
C368 C 0.48935 0.84043 0.06166 0.0
H369 H 0.53611 0.86893 0.06047 0.0
C370 C 0.49781 0.82003 0.067 0.0
C371 C 0.50328 0.85826 0.05915 0.0
C372 C 0.49487 0.88062 0.05407 0.0
C373 C 0.51998 0.81695 0.06974 0.0
C374 C 0.53391 0.83486 0.06761 0.0
C375 C 0.5254 0.85522 0.06204 0.0
C376 C 0.55731 0.83311 0.07171 0.0
C377 C 0.52829 0.79451 0.07454 0.0
C378 C 0.56526 0.82624 0.09405 0.0
C379 C 0.58732 0.82621 0.0985 0.0
C380 C 0.60179 0.83334 0.08078 0.0
C381 C 0.59378 0.83993 0.0583 0.0
C382 C 0.57175 0.83983 0.05383 0.0
H383 H 0.51672 0.78201 0.06851 0.0
H384 H 0.54388 0.79174 0.06535 0.0
H385 H 0.53073 0.79243 0.09419 0.0
H386 H 0.55438 0.82148 0.10831 0.0
H387 H 0.59295 0.82117 0.11606 0.0
H388 H 0.57121 0.14564 0.51635 0.0
H389 H 0.53206 0.14854 0.51803 0.0
H390 H 0.53501 0.15555 0.59516 0.0
H391 H 0.57406 0.15292 0.59369 0.0
H392 H 0.50444 0.12103 0.54309 0.0
H393 H 0.49573 0.20526 0.57502 0.0
H394 H 0.52046 0.195 0.56249 0.0
H395 H 0.51339 0.18923 0.59322 0.0
C396 C 0.56355 0.14802 0.53365 0.0
C397 C 0.57576 0.14908 0.55489 0.0
C398 C 0.54119 0.14967 0.53456 0.0
C399 C 0.53069 0.15258 0.55667 0.0
C400 C 0.54283 0.15379 0.57786 0.0
H401 H 0.40219 0.15081 0.6122 0.0
H402 H 0.44081 0.15349 0.60517 0.0
C403 C 0.56516 0.15213 0.57698 0.0
C404 C 0.50697 0.153 0.55785 0.0
H405 H 0.46448 0.18307 0.57728 0.0
C406 C 0.49565 0.13468 0.55028 0.0
C407 C 0.49562 0.17083 0.56732 0.0
C408 C 0.50689 0.19128 0.57478 0.0
C409 C 0.47328 0.13337 0.55273 0.0
C410 C 0.46196 0.15105 0.56261 0.0
C411 C 0.47324 0.16954 0.56975 0.0
C412 C 0.43848 0.15032 0.56649 0.0
C413 C 0.46207 0.11279 0.54556 0.0
C414 C 0.42437 0.14805 0.547 0.0
C415 C 0.40228 0.14643 0.55095 0.0
C416 C 0.39393 0.14721 0.57447 0.0
C417 C 0.40809 0.15008 0.59388 0.0
C418 C 0.43016 0.15165 0.5899 0.0
H419 H 0.47349 0.09915 0.54356 0.0
H420 H 0.4497 0.10827 0.55905 0.0
H421 H 0.45394 0.11522 0.52801 0.0
H422 H 0.43046 0.1474 0.52875 0.0
H423 H 0.3918 0.14437 0.5356 0.0
H424 H 0.6015 0.136 0.95026 0.0
H425 H 0.56246 0.13862 0.95377 0.0
H426 H 0.56065 0.18029 0.89169 0.0
H427 H 0.5997 0.17779 0.88795 0.0
H428 H 0.53454 0.17746 0.95703 0.0
H429 H 0.52142 0.12704 0.87546 0.0
H430 H 0.54668 0.12751 0.89133 0.0
H431 H 0.53927 0.14965 0.87228 0.0
C432 C 0.59284 0.14586 0.93745 0.0
C433 C 0.60368 0.15655 0.9187 0.0
C434 C 0.57056 0.14737 0.93953 0.0
C435 C 0.55876 0.15945 0.92284 0.0
C436 C 0.56954 0.17071 0.90458 0.0
H437 H 0.42128 0.16485 0.89736 0.0
H438 H 0.45998 0.17106 0.89574 0.0
C439 C 0.59184 0.16929 0.90253 0.0
C440 C 0.53509 0.15944 0.92394 0.0
H441 H 0.49074 0.14033 0.89512 0.0
C442 C 0.5249 0.16943 0.94349 0.0
C443 C 0.52268 0.14897 0.90619 0.0
C444 C 0.53297 0.13752 0.88517 0.0
C445 C 0.50246 0.16929 0.94571 0.0
C446 C 0.49004 0.15841 0.9282 0.0
C447 C 0.50029 0.14868 0.9085 0.0
C448 C 0.46645 0.15625 0.93024 0.0
C449 C 0.49228 0.18098 0.96661 0.0
C450 C 0.45725 0.14587 0.9502 0.0
C451 C 0.43512 0.1424 0.95124 0.0
C452 C 0.42183 0.14897 0.93218 0.0
C453 C 0.43107 0.15956 0.91232 0.0
C454 C 0.45318 0.16314 0.91137 0.0
H455 H 0.50304 0.19371 0.97383 0.0
H456 H 0.47683 0.18852 0.96131 0.0
H457 H 0.48907 0.16931 0.98132 0.0
H458 H 0.46724 0.13993 0.96468 0.0
H459 H 0.42853 0.13408 0.96672 0.0
H460 H 0.38627 0.82706 0.42641 0.0
H461 H 0.42542 0.82652 0.43076 0.0
H462 H 0.42822 0.89365 0.41085 0.0
H463 H 0.38925 0.89439 0.40643 0.0
H464 H 0.457 0.83843 0.39366 0.0
H465 H 0.46172 0.88914 0.47586 0.0
H466 H 0.43744 0.87547 0.46682 0.0
H467 H 0.44545 0.89994 0.45204 0.0
C468 C 0.39522 0.84172 0.42303 0.0
C469 C 0.38466 0.86079 0.41614 0.0
C470 C 0.41755 0.84137 0.42551 0.0
C471 C 0.42959 0.86011 0.4214 0.0
C472 C 0.41912 0.87911 0.41443 0.0
H473 H 0.56047 0.902 0.42086 0.0
H474 H 0.52152 0.89787 0.42008 0.0
C475 C 0.39687 0.87946 0.41181 0.0
C476 C 0.45319 0.85984 0.42381 0.0
H477 H 0.49445 0.8824 0.45523 0.0
C478 C 0.46525 0.84783 0.40725 0.0
C479 C 0.46377 0.87218 0.44155 0.0
C480 C 0.45148 0.8848 0.46024 0.0
C481 C 0.48777 0.8485 0.40738 0.0
C482 C 0.49838 0.86115 0.42489 0.0
C483 C 0.48626 0.87276 0.4418 0.0
C484 C 0.52204 0.86332 0.42543 0.0
C485 C 0.49993 0.83637 0.38818 0.0
C486 C 0.53524 0.84527 0.42897 0.0
C487 C 0.55756 0.84755 0.42928 0.0
C488 C 0.56702 0.86797 0.42633 0.0
C489 C 0.55371 0.88604 0.42317 0.0
C490 C 0.53144 0.88372 0.42274 0.0
H491 H 0.48945 0.83189 0.37282 0.0
H492 H 0.51356 0.84609 0.38125 0.0
H493 H 0.5065 0.82129 0.39601 0.0
H494 H 0.52829 0.82944 0.43161 0.0
H495 H 0.56737 0.83333 0.43193 0.0
H496 H 0.16771 0.33087 0.15301 0.0
H497 H 0.1671 0.32949 0.19691 0.0
H498 H 0.2138 0.38068 0.19995 0.0
H499 H 0.21457 0.38223 0.15583 0.0
H500 H 0.20365 0.3241 0.23124 0.0
H501 H 0.15935 0.4019 0.23893 0.0
H502 H 0.15998 0.3866 0.21129 0.0
H503 H 0.18326 0.40132 0.22072 0.0
C504 C 0.17798 0.34177 0.16296 0.0
C505 C 0.19108 0.35679 0.15094 0.0
C506 C 0.17765 0.34089 0.18803 0.0
C507 C 0.19026 0.3551 0.20155 0.0
C508 C 0.20384 0.36971 0.18972 0.0
H509 H 0.17686 0.37693 0.35635 0.0
H510 H 0.18961 0.37912 0.31476 0.0
C511 C 0.20429 0.37053 0.16456 0.0
C512 C 0.18833 0.35506 0.22803 0.0
H513 H 0.16559 0.38266 0.27458 0.0
C514 C 0.19554 0.33698 0.24083 0.0
C515 C 0.17784 0.37196 0.24036 0.0
C516 C 0.16951 0.39155 0.22724 0.0
C517 C 0.19216 0.33516 0.26571 0.0
C518 C 0.18077 0.35161 0.27789 0.0
C519 C 0.17426 0.37005 0.26519 0.0
C520 C 0.17429 0.34951 0.30344 0.0
C521 C 0.20078 0.31562 0.27867 0.0
C522 C 0.16133 0.33222 0.31081 0.0
C523 C 0.1541 0.33086 0.33455 0.0
C524 C 0.15944 0.34696 0.35129 0.0
C525 C 0.17244 0.36427 0.34387 0.0
C526 C 0.17977 0.36554 0.32014 0.0
H527 H 0.21472 0.30857 0.269 0.0
H528 H 0.20575 0.31964 0.29732 0.0
H529 H 0.18808 0.30311 0.27956 0.0
H530 H 0.15641 0.31998 0.29806 0.0
H531 H 0.144 0.3174 0.33964 0.0
H532 H 0.83598 0.58559 0.64878 0.0
H533 H 0.83837 0.58787 0.69259 0.0
H534 H 0.80649 0.64956 0.69103 0.0
H535 H 0.80418 0.64755 0.64717 0.0
H536 H 0.84524 0.64977 0.7158 0.0
H537 H 0.79346 0.58239 0.74647 0.0
H538 H 0.81281 0.57478 0.72404 0.0
H539 H 0.7919 0.59355 0.71648 0.0
C540 C 0.82916 0.59949 0.65776 0.0
C541 C 0.81998 0.61644 0.64448 0.0
C542 C 0.83042 0.60069 0.68282 0.0
C543 C 0.82241 0.61878 0.69503 0.0
C544 C 0.81266 0.63542 0.68191 0.0
H545 H 0.82225 0.63579 0.85126 0.0
H546 H 0.8113 0.63333 0.80901 0.0
C547 C 0.81136 0.63423 0.65685 0.0
C548 C 0.82608 0.62127 0.72117 0.0
H549 H 0.81736 0.5974 0.77569 0.0
C550 C 0.83897 0.63845 0.72893 0.0
C551 C 0.81773 0.60656 0.73823 0.0
C552 C 0.80303 0.58839 0.73096 0.0
C553 C 0.84432 0.64094 0.75325 0.0
C554 C 0.83677 0.6257 0.77015 0.0
C555 C 0.82327 0.60892 0.76257 0.0
C556 C 0.84323 0.62666 0.79569 0.0
C557 C 0.85808 0.65981 0.76068 0.0
C558 C 0.86474 0.62342 0.80209 0.0
C559 C 0.87104 0.62477 0.82614 0.0
C560 C 0.85592 0.62937 0.84421 0.0
C561 C 0.8343 0.63232 0.83774 0.0
C562 C 0.828 0.63087 0.81366 0.0
H563 H 0.8582 0.6727 0.74679 0.0
H564 H 0.85238 0.66676 0.77795 0.0
H565 H 0.87483 0.65421 0.76328 0.0
H566 H 0.87666 0.61986 0.78845 0.0
H567 H 0.8878 0.62232 0.83051 0.0
H568 H 0.2064 0.58964 0.84866 0.0
H569 H 0.20214 0.58611 0.80496 0.0
H570 H 0.1604 0.64155 0.80445 0.0
H571 H 0.16433 0.6451 0.84789 0.0
H572 H 0.14368 0.605 0.7809 0.0
H573 H 0.22648 0.62466 0.75037 0.0
H574 H 0.22408 0.60416 0.77313 0.0
H575 H 0.21677 0.63145 0.78005 0.0
C576 C 0.19649 0.6012 0.83919 0.0
C577 C 0.18567 0.61763 0.85176 0.0
C578 C 0.19415 0.59921 0.81424 0.0
C579 C 0.18107 0.61367 0.80152 0.0
C580 C 0.17057 0.63025 0.81397 0.0
H581 H 0.16214 0.64579 0.65365 0.0
H582 H 0.17244 0.64327 0.69597 0.0
C583 C 0.17286 0.63225 0.83881 0.0
C584 C 0.17732 0.61112 0.77541 0.0
H585 H 0.20136 0.61527 0.72037 0.0
C586 C 0.1563 0.60708 0.76763 0.0
C587 C 0.19384 0.61399 0.75826 0.0
C588 C 0.21656 0.61896 0.76574 0.0
C589 C 0.15123 0.60623 0.74309 0.0
C590 C 0.16772 0.60916 0.7259 0.0
C591 C 0.18882 0.61287 0.73366 0.0
C592 C 0.16301 0.60988 0.69984 0.0
C593 C 0.12813 0.60303 0.73577 0.0
C594 C 0.1547 0.59179 0.68793 0.0
C595 C 0.14868 0.59319 0.66376 0.0
C596 C 0.15098 0.6127 0.6511 0.0
C597 C 0.16002 0.63056 0.66291 0.0
C598 C 0.166 0.62914 0.68706 0.0
H599 H 0.11691 0.60549 0.75109 0.0
H600 H 0.12368 0.61429 0.72107 0.0
H601 H 0.12597 0.58633 0.72906 0.0
H602 H 0.15259 0.57668 0.69743 0.0
H603 H 0.14195 0.57908 0.65512 0.0
H604 H 0.8553 0.39034 0.15402 0.0
H605 H 0.84216 0.38597 0.19525 0.0
H606 H 0.80713 0.32915 0.17406 0.0
H607 H 0.82023 0.33327 0.13279 0.0
H608 H 0.7978 0.38206 0.21373 0.0
H609 H 0.84852 0.30936 0.22906 0.0
H610 H 0.8534 0.32784 0.20454 0.0
H611 H 0.83143 0.3092 0.20299 0.0
C612 C 0.84469 0.37699 0.15807 0.0
C613 C 0.83899 0.36202 0.14019 0.0
C614 C 0.83715 0.37457 0.1816 0.0
C615 C 0.8239 0.35712 0.18765 0.0
C616 C 0.81756 0.34258 0.16973 0.0
H617 H 0.79399 0.31364 0.33375 0.0
H618 H 0.79296 0.3168 0.28981 0.0
C619 C 0.82504 0.345 0.14617 0.0
C620 C 0.81763 0.35365 0.213 0.0
H621 H 0.82778 0.32159 0.26153 0.0
C622 C 0.80417 0.36875 0.22419 0.0
C623 C 0.82586 0.33617 0.22644 0.0
C624 C 0.84072 0.31973 0.2153 0.0
C625 C 0.79903 0.36704 0.24871 0.0
C626 C 0.80804 0.35008 0.26242 0.0
C627 C 0.82087 0.33456 0.25098 0.0
C628 C 0.80605 0.34911 0.28896 0.0
C629 C 0.78409 0.38346 0.25969 0.0
C630 C 0.81362 0.36626 0.30303 0.0
C631 C 0.81416 0.36455 0.32804 0.0
C632 C 0.80741 0.3455 0.33952 0.0
C633 C 0.79933 0.32851 0.32545 0.0
C634 C 0.79871 0.33029 0.30037 0.0
H635 H 0.77302 0.39025 0.24597 0.0
H636 H 0.77442 0.37634 0.27449 0.0
H637 H 0.79367 0.39698 0.26711 0.0
H638 H 0.81991 0.3807 0.29463 0.0
H639 H 0.82055 0.37792 0.33831 0.0
H640 H 0.63971 0.90921 0.34665 0.0
H641 H 0.65011 0.90876 0.30419 0.0
H642 H 0.66994 0.84243 0.31099 0.0
H643 H 0.65993 0.8428 0.35353 0.0
H644 H 0.69875 0.86804 0.28438 0.0
H645 H 0.61467 0.87747 0.25282 0.0
H646 H 0.62373 0.89804 0.27314 0.0
H647 H 0.62121 0.87072 0.28353 0.0
C648 C 0.64635 0.89454 0.33914 0.0
C649 C 0.64879 0.87597 0.3534 0.0
C650 C 0.65223 0.89431 0.31488 0.0
C651 C 0.66047 0.87547 0.30442 0.0
C652 C 0.66353 0.85711 0.31874 0.0
H653 H 0.66122 0.83781 0.15618 0.0
H654 H 0.65724 0.84115 0.19966 0.0
C655 C 0.65773 0.85734 0.34302 0.0
C656 C 0.66526 0.87458 0.27836 0.0
H657 H 0.6417 0.87733 0.22307 0.0
C658 C 0.68633 0.87013 0.27092 0.0
C659 C 0.64892 0.87709 0.26094 0.0
C660 C 0.62582 0.88091 0.26792 0.0
C661 C 0.6915 0.86806 0.24642 0.0
C662 C 0.67519 0.87078 0.22903 0.0
C663 C 0.65417 0.87536 0.23649 0.0
C664 C 0.67921 0.86799 0.20297 0.0
C665 C 0.71419 0.86237 0.23938 0.0
C666 C 0.69307 0.88187 0.19045 0.0
C667 C 0.69547 0.87995 0.1655 0.0
C668 C 0.68388 0.86424 0.15271 0.0
C669 C 0.67034 0.85012 0.16545 0.0
C670 C 0.66803 0.85201 0.19031 0.0
H671 H 0.72356 0.85617 0.25491 0.0
H672 H 0.71432 0.85005 0.22489 0.0
H673 H 0.72237 0.877 0.23245 0.0
H674 H 0.70156 0.89454 0.19986 0.0
H675 H 0.70594 0.89113 0.15619 0.0
H676 H 0.33464 0.1567 0.84046 0.0
H677 H 0.32531 0.15714 0.79771 0.0
H678 H 0.32524 0.08763 0.79668 0.0
H679 H 0.33442 0.08697 0.83942 0.0
H680 H 0.35107 0.13825 0.76145 0.0
H681 H 0.26886 0.10376 0.76206 0.0
H682 H 0.28131 0.11489 0.78865 0.0
H683 H 0.28844 0.08836 0.77841 0.0
C684 C 0.33239 0.14149 0.83123 0.0
C685 C 0.33533 0.12179 0.84332 0.0
C686 C 0.32704 0.14179 0.80683 0.0
C687 C 0.32434 0.12243 0.79417 0.0
C688 C 0.32685 0.10274 0.80627 0.0
H689 H 0.31173 0.08432 0.64588 0.0
H690 H 0.31246 0.08643 0.68984 0.0
C691 C 0.33226 0.10241 0.83065 0.0
C692 C 0.32069 0.12279 0.7679 0.0
H693 H 0.28603 0.10681 0.72388 0.0
C694 C 0.33676 0.13159 0.75321 0.0
C695 C 0.30208 0.11392 0.75731 0.0
C696 C 0.28407 0.10485 0.77239 0.0
C697 C 0.335 0.13126 0.72807 0.0
C698 C 0.3164 0.12233 0.71742 0.0
C699 C 0.30022 0.11369 0.73213 0.0
C700 C 0.31388 0.12127 0.69099 0.0
C701 C 0.3534 0.1398 0.71316 0.0
C702 C 0.31375 0.14019 0.67716 0.0
C703 C 0.3135 0.13905 0.65208 0.0
C704 C 0.31312 0.11895 0.64039 0.0
C705 C 0.31212 0.10005 0.65433 0.0
C706 C 0.31251 0.10122 0.67944 0.0
H707 H 0.36843 0.14101 0.72379 0.0
H708 H 0.35643 0.12933 0.69731 0.0
H709 H 0.34934 0.15618 0.70655 0.0
H710 H 0.31433 0.15584 0.68578 0.0
H711 H 0.31404 0.15392 0.64186 0.0
H712 H 0.69936 0.08756 0.84335 0.0
H713 H 0.69535 0.08589 0.79951 0.0
H714 H 0.66057 0.14599 0.80061 0.0
H715 H 0.66412 0.14761 0.84424 0.0
H716 H 0.63983 0.11422 0.7754 0.0
H717 H 0.72499 0.12083 0.74653 0.0
H718 H 0.71947 0.09975 0.76786 0.0
H719 H 0.71624 0.12743 0.77663 0.0
C720 C 0.69107 0.10053 0.8342 0.0
C721 C 0.68201 0.11769 0.84726 0.0
C722 C 0.68889 0.0996 0.80916 0.0
C723 C 0.67782 0.11592 0.79683 0.0
C724 C 0.66917 0.13324 0.8098 0.0
H725 H 0.66846 0.14927 0.64732 0.0
H726 H 0.67719 0.14591 0.69003 0.0
C727 C 0.67123 0.13413 0.83475 0.0
C728 C 0.6741 0.11456 0.77058 0.0
H729 H 0.69928 0.11459 0.71599 0.0
C730 C 0.65282 0.11423 0.76239 0.0
C731 C 0.69111 0.11472 0.75371 0.0
C732 C 0.71425 0.11589 0.76153 0.0
C733 C 0.64802 0.11436 0.73777 0.0
C734 C 0.66501 0.11432 0.72087 0.0
C735 C 0.68632 0.11443 0.72903 0.0
C736 C 0.6609 0.11539 0.69468 0.0
C737 C 0.62481 0.1153 0.7301 0.0
C738 C 0.64921 0.09911 0.68307 0.0
C739 C 0.64402 0.10107 0.65871 0.0
C740 C 0.65064 0.11924 0.64551 0.0
C741 C 0.66303 0.13512 0.65701 0.0
C742 C 0.6681 0.13321 0.68139 0.0
H743 H 0.61413 0.12042 0.74507 0.0
H744 H 0.62264 0.12663 0.71481 0.0
H745 H 0.6196 0.09905 0.72417 0.0
H746 H 0.64388 0.08502 0.69292 0.0
H747 H 0.63466 0.08843 0.65031 0.0
H748 H 0.32173 0.87983 0.13705 0.0
H749 H 0.30948 0.88355 0.17866 0.0
H750 H 0.33087 0.81887 0.19399 0.0
H751 H 0.34286 0.81484 0.1523 0.0
H752 H 0.29028 0.82907 0.21389 0.0
H753 H 0.35156 0.89156 0.23462 0.0
H754 H 0.33441 0.89752 0.20954 0.0
H755 H 0.35272 0.8752 0.20781 0.0
C756 C 0.32375 0.86635 0.14923 0.0
C757 C 0.33349 0.84711 0.14145 0.0
C758 C 0.3168 0.86854 0.17301 0.0
C759 C 0.31961 0.85161 0.18944 0.0
C760 C 0.32864 0.83214 0.18155 0.0
H761 H 0.31166 0.8266 0.34006 0.0
H762 H 0.31223 0.82474 0.29622 0.0
C763 C 0.33553 0.82989 0.15776 0.0
C764 C 0.31389 0.85439 0.21509 0.0
H765 H 0.32754 0.88236 0.26566 0.0
C766 C 0.29833 0.84078 0.22522 0.0
C767 C 0.32441 0.86974 0.22974 0.0
C768 C 0.34184 0.88424 0.22001 0.0
C769 C 0.29311 0.84199 0.24976 0.0
C770 C 0.304 0.85698 0.26451 0.0
C771 C 0.31916 0.87096 0.25424 0.0
C772 C 0.30118 0.85747 0.29094 0.0
C773 C 0.27604 0.82722 0.2597 0.0
C774 C 0.29487 0.87655 0.30251 0.0
C775 C 0.29466 0.87773 0.32763 0.0
C776 C 0.30097 0.8599 0.34156 0.0
C777 C 0.3067 0.84063 0.32987 0.0
C778 C 0.30687 0.83947 0.3048 0.0
H779 H 0.26496 0.82161 0.24535 0.0
H780 H 0.28379 0.81281 0.26771 0.0
H781 H 0.26652 0.83536 0.27395 0.0
H782 H 0.29058 0.89067 0.29209 0.0
H783 H 0.29017 0.89281 0.33608 0.0
H784 H 0.31213 0.21519 0.91262 0.0
H785 H 0.28934 0.23809 0.93783 0.0
H786 H 0.29877 0.19496 -0.00222 0.0
H787 H 0.32169 0.1721 0.9729 0.0
H788 H 0.25116 0.2254 0.96173 0.0
H789 H 0.3129 0.25464 0.02595 0.0
H790 H 0.31969 0.24246 -0.00258 0.0
H791 H 0.31186 0.22587 0.02245 0.0
C792 C 0.3095 0.21066 0.93122 0.0
C793 C 0.31877 0.19187 0.94078 0.0
C794 C 0.29647 0.22374 0.94556 0.0
C795 C 0.29264 0.21832 0.9697 0.0
C796 C 0.30188 0.19961 0.97931 0.0
H797 H 0.21472 0.27499 0.08318 0.0
H798 H 0.23776 0.25133 0.05909 0.0
C799 C 0.31488 0.18652 0.96501 0.0
C800 C 0.27828 0.23177 0.9846 0.0
H801 H 0.27666 0.26287 0.03522 0.0
C802 C 0.25672 0.23368 0.97774 0.0
C803 C 0.28564 0.2424 0.00553 0.0
C804 C 0.30882 0.24144 0.01323 0.0
C805 C 0.24219 0.24581 0.99145 0.0
C806 C 0.24957 0.25655 0.01229 0.0
C807 C 0.2711 0.25453 0.01924 0.0
C808 C 0.23533 0.27054 0.0267 0.0
C809 C 0.21901 0.24679 0.98372 0.0
C810 C 0.22657 0.28921 0.01646 0.0
C811 C 0.21346 0.30272 0.0301 0.0
C812 C 0.20896 0.29785 0.05432 0.0
C813 C 0.21783 0.27914 0.06457 0.0
C814 C 0.231 0.26563 0.05087 0.0
H815 H 0.21485 0.23338 0.97132 0.0
H816 H 0.20812 0.24615 -0.00046 0.0
H817 H 0.21609 0.2622 0.97412 0.0
H818 H 0.23007 0.29346 -0.00205 0.0
H819 H 0.20697 0.31704 0.02168 0.0
H820 H 0.73935 0.66522 0.55836 0.0
H821 H 0.71911 0.69384 0.53822 0.0
H822 H 0.77804 0.72043 0.51036 0.0
H823 H 0.79841 0.69189 0.53025 0.0
H824 H 0.72403 0.73971 0.54387 0.0
H825 H 0.73954 0.71244 0.45023 0.0
H826 H 0.74343 0.69516 0.47603 0.0
H827 H 0.76308 0.71529 0.46859 0.0
C828 C 0.74801 0.67714 0.54793 0.0
C829 C 0.77047 0.67624 0.54581 0.0
C830 C 0.73642 0.69346 0.53647 0.0
C831 C 0.7471 0.709 0.52257 0.0
C832 C 0.76951 0.70833 0.52068 0.0
H833 H 0.7119 0.82072 0.43923 0.0
H834 H 0.73015 0.79114 0.45986 0.0
C835 C 0.78111 0.69208 0.53217 0.0
C836 C 0.73486 0.72618 0.51032 0.0
H837 H 0.72328 0.74678 0.4549 0.0
C838 C 0.72371 0.74122 0.52442 0.0
C839 C 0.73456 0.72802 0.48497 0.0
C840 C 0.74563 0.71178 0.469 0.0
C841 C 0.71268 0.75849 0.5138 0.0
C842 C 0.71252 0.76043 0.48844 0.0
C843 C 0.7235 0.74524 0.47435 0.0
C844 C 0.7013 0.77829 0.47612 0.0
C845 C 0.70182 0.77483 0.52983 0.0
C846 C 0.67901 0.78066 0.47823 0.0
C847 C 0.66852 0.79757 0.46652 0.0
C848 C 0.68016 0.8123 0.45235 0.0
C849 C 0.70247 0.80969 0.45004 0.0
C850 C 0.71293 0.7928 0.46179 0.0
H851 H 0.70786 0.77402 0.54861 0.0
H852 H 0.70427 0.79144 0.5229 0.0
H853 H 0.68432 0.77157 0.5302 0.0
H854 H 0.6697 0.76936 0.48882 0.0
H855 H 0.6513 0.79906 0.46855 0.0
H856 H 0.33998 0.80419 0.022 0.0
H857 H 0.32282 0.77573 -0.00161 0.0
H858 H 0.26131 0.79324 0.02813 0.0
H859 H 0.27824 0.82182 0.05167 0.0
H860 H 0.29828 0.74064 0.01618 0.0
H861 H 0.25096 0.79274 0.9548 0.0
H862 H 0.27323 0.80277 0.97228 0.0
H863 H 0.24745 0.79885 0.98615 0.0
C864 C 0.32278 0.80206 0.02345 0.0
C865 C 0.31044 0.81531 0.03865 0.0
C866 C 0.31303 0.7858 0.00995 0.0
C867 C 0.2908 0.78266 0.01128 0.0
C868 C 0.27845 0.79573 0.02653 0.0
H869 H 0.19588 0.69469 0.96076 0.0
H870 H 0.21698 0.72378 0.97839 0.0
C871 C 0.28817 0.81196 0.04007 0.0
C872 C 0.28053 0.76519 -0.0026 0.0
H873 H 0.24201 0.75538 0.95526 0.0
C874 C 0.28614 0.7438 0.00265 0.0
C875 C 0.26477 0.76949 0.97978 0.0
C876 C 0.25885 0.79221 0.97271 0.0
C877 C 0.27573 0.72648 0.9914 0.0
C878 C 0.25959 0.73078 0.97419 0.0
C879 C 0.25438 0.75219 0.96851 0.0
C880 C 0.24707 0.71331 0.96286 0.0
C881 C 0.28147 0.70377 -0.00129 0.0
C882 C 0.257 0.69797 0.94802 0.0
C883 C 0.24498 0.68123 0.93794 0.0
C884 C 0.22283 0.67969 0.94246 0.0
C885 C 0.21291 0.69536 0.95697 0.0
C886 C 0.22493 0.71203 0.96703 0.0
H887 H 0.29088 0.70336 0.01568 0.0
H888 H 0.2668 0.69384 0.00114 0.0
H889 H 0.29131 0.69626 0.98433 0.0
H890 H 0.27402 0.69894 0.94426 0.0
H891 H 0.25306 0.66948 0.92672 0.0
H892 H 0.66058 0.20185 0.53613 0.0
H893 H 0.67995 0.23046 0.51497 0.0
H894 H 0.73997 0.19874 0.53021 0.0
H895 H 0.72078 0.16994 0.55124 0.0
H896 H 0.71292 0.25801 0.53292 0.0
H897 H 0.74078 0.20746 0.45647 0.0
H898 H 0.71947 0.19916 0.47646 0.0
H899 H 0.74696 0.19701 0.48582 0.0
C900 C 0.6779 0.20093 0.53498 0.0
C901 C 0.68914 0.18356 0.54525 0.0
C902 C 0.68892 0.2173 0.52291 0.0
C903 C 0.71131 0.2165 0.52077 0.0
C904 C 0.72263 0.1994 0.53133 0.0
H905 H 0.80683 0.29792 0.45346 0.0
H906 H 0.78745 0.26985 0.47545 0.0
C907 C 0.71164 0.18304 0.54343 0.0
C908 C 0.72286 0.23368 0.50765 0.0
H909 H 0.75456 0.24299 0.45863 0.0
C910 C 0.72197 0.25479 0.51663 0.0
C911 C 0.73463 0.22933 0.48643 0.0
C912 C 0.73543 0.20706 0.47554 0.0
C913 C 0.7329 0.27169 0.50514 0.0
C914 C 0.74466 0.26734 0.48391 0.0
C915 C 0.74553 0.24622 0.47493 0.0
C916 C 0.75624 0.28448 0.47072 0.0
C917 C 0.73215 0.29393 0.5161 0.0
C918 C 0.74502 0.30183 0.46054 0.0
C919 C 0.75603 0.31792 0.44799 0.0
C920 C 0.77844 0.31683 0.44528 0.0
C921 C 0.78957 0.29926 0.45527 0.0
C922 C 0.77855 0.2832 0.46783 0.0
H923 H 0.72713 0.29344 0.53529 0.0
H924 H 0.74804 0.30195 0.51488 0.0
H925 H 0.72036 0.30391 0.50613 0.0
H926 H 0.72773 0.30285 0.46217 0.0
H927 H 0.74697 0.33116 0.4404 0.0
H928 H 0.69203 0.78896 0.04668 0.0
H929 H 0.71274 0.76077 0.02662 0.0
H930 H 0.77 0.79937 0.03282 0.0
H931 H 0.74948 0.82764 0.05319 0.0
H932 H 0.73605 0.76516 0.98347 0.0
H933 H 0.78841 0.74027 0.05947 0.0
H934 H 0.7643 0.75596 0.06378 0.0
H935 H 0.78837 0.76866 0.05303 0.0
C936 C 0.70906 0.79142 0.04396 0.0
C937 C 0.71913 0.81053 0.05157 0.0
C938 C 0.72085 0.7753 0.03247 0.0
C939 C 0.7429 0.77792 0.0285 0.0
C940 C 0.75305 0.79691 0.03613 0.0
H941 H 0.83885 0.69947 0.95708 0.0
H942 H 0.81926 0.72809 0.97789 0.0
C943 C 0.74127 0.81307 0.04765 0.0
C944 C 0.75504 0.7611 0.0155 0.0
H945 H 0.79602 0.72501 0.02133 0.0
C946 C 0.74912 0.75632 0.99174 0.0
C947 C 0.77211 0.7497 0.02638 0.0
C948 C 0.77862 0.75372 0.05214 0.0
C949 C 0.76 0.74054 0.97842 0.0
C950 C 0.77696 0.72903 0.98934 0.0
C951 C 0.78298 0.7339 0.01306 0.0
C952 C 0.78862 0.71177 0.9765 0.0
C953 C 0.75349 0.73658 0.95264 0.0
C954 C 0.77786 0.69307 0.96906 0.0
C955 C 0.78897 0.6767 0.95713 0.0
C956 C 0.81107 0.67872 0.95259 0.0
C957 C 0.82182 0.69744 0.96024 0.0
C958 C 0.81068 0.71379 0.97216 0.0
H959 H 0.74412 0.75028 0.94519 0.0
H960 H 0.76778 0.73389 0.94107 0.0
H961 H 0.7433 0.72194 0.95179 0.0
H962 H 0.76089 0.69106 0.97267 0.0
H963 H 0.78026 0.66243 0.9516 0.0
H964 H 0.30406 0.19266 0.52775 0.0
H965 H 0.28317 0.22147 0.50913 0.0
H966 H 0.22455 0.18859 0.52797 0.0
H967 H 0.2453 0.15972 0.54695 0.0
H968 H 0.25323 0.21807 0.47113 0.0
H969 H 0.21593 0.24991 0.55489 0.0
H970 H 0.23884 0.23211 0.55528 0.0
H971 H 0.21249 0.22152 0.54971 0.0
C972 C 0.28672 0.19154 0.52801 0.0
C973 C 0.27633 0.17394 0.53893 0.0
C974 C 0.27483 0.20801 0.51733 0.0
C975 C 0.25235 0.20726 0.51747 0.0
C976 C 0.24189 0.18962 0.52808 0.0
H977 H 0.15775 0.29802 0.46242 0.0
H978 H 0.17563 0.26682 0.4804 0.0
C979 C 0.25378 0.17311 0.5388 0.0
C980 C 0.23999 0.22485 0.50613 0.0
H981 H 0.2051 0.26584 0.51825 0.0
C982 C 0.24269 0.22852 0.4814 0.0
C983 C 0.22621 0.23834 0.51961 0.0
C984 C 0.22325 0.23546 0.54638 0.0
C985 C 0.23193 0.24539 0.46973 0.0
C986 C 0.21846 0.25914 0.48329 0.0
C987 C 0.21548 0.25525 0.50795 0.0
C988 C 0.20772 0.27798 0.47233 0.0
C989 C 0.2349 0.24819 0.44295 0.0
C990 C 0.21989 0.2947 0.46219 0.0
C991 C 0.20976 0.31251 0.45187 0.0
C992 C 0.18726 0.31398 0.4517 0.0
C993 C 0.17511 0.29734 0.46222 0.0
C994 C 0.18528 0.27951 0.4725 0.0
H995 H 0.2407 0.23313 0.4343 0.0
H996 H 0.21967 0.25314 0.43419 0.0
H997 H 0.24702 0.26096 0.43962 0.0
H998 H 0.23726 0.29402 0.46237 0.0
H999 H 0.21958 0.32511 0.44406 0.0
H1000 H 0.77937 0.32079 0.04098 0.0
H1001 H 0.76156 0.2922 0.01825 0.0
H1002 H 0.82295 0.26924 0.99321 0.0
H1003 H 0.84097 0.29759 0.01613 0.0
H1004 H 0.76313 0.28282 0.96837 0.0
H1005 H 0.79535 0.21564 0.02397 0.0
H1006 H 0.79644 0.24341 0.03357 0.0
H1007 H 0.81511 0.23355 0.01151 0.0
C1008 C 0.7891 0.30969 0.03062 0.0
C1009 C 0.81159 0.31134 0.03052 0.0
C1010 C 0.77889 0.2934 0.01762 0.0
C1011 C 0.79099 0.27847 0.00438 0.0
C1012 C 0.81339 0.28039 0.00371 0.0
H1013 H 0.74969 0.1639 0.92566 0.0
H1014 H 0.77117 0.19367 0.94172 0.0
C1015 C 0.82363 0.29665 0.01673 0.0
C1016 C 0.78007 0.26078 0.99149 0.0
H1017 H 0.7741 0.2061 0.99053 0.0
C1018 C 0.76554 0.26604 0.97314 0.0
C1019 C 0.78337 0.23893 -0.00224 0.0
C1020 C 0.79827 0.23245 0.0179 0.0
C1021 C 0.7541 0.24996 0.96092 0.0
C1022 C 0.75707 0.22816 0.96754 0.0
C1023 C 0.77194 0.22287 0.98551 0.0
C1024 C 0.74407 0.21067 0.95695 0.0
C1025 C 0.73898 0.25643 0.94099 0.0
C1026 C 0.7218 0.21034 0.96046 0.0
C1027 C 0.70952 0.1934 0.9514 0.0
C1028 C 0.71932 0.1764 0.93875 0.0
C1029 C 0.74166 0.17678 0.93527 0.0
C1030 C 0.75395 0.19374 0.94441 0.0
H1031 H 0.74298 0.27262 0.93368 0.0
H1032 H 0.73936 0.24455 0.92606 0.0
H1033 H 0.72238 0.25708 0.94819 0.0
H1034 H 0.71395 0.22304 0.97054 0.0
H1035 H 0.69236 0.19357 0.95447 0.0
H1036 H 0.15198 0.69215 0.53554 0.0
H1037 H 0.17111 0.71966 0.51235 0.0
H1038 H 0.22922 0.70542 0.55125 0.0
H1039 H 0.21029 0.67785 0.57454 0.0
H1040 H 0.19529 0.75679 0.53071 0.0
H1041 H 0.2449 0.69885 0.47831 0.0
H1042 H 0.2207 0.69092 0.49389 0.0
H1043 H 0.24504 0.69528 0.51043 0.0
C1044 C 0.16882 0.69488 0.53921 0.0
C1045 C 0.17966 0.68274 0.55679 0.0
C1046 C 0.17969 0.71061 0.52597 0.0
C1047 C 0.20158 0.71431 0.52994 0.0
C1048 C 0.21237 0.70253 0.54775 0.0
H1049 H 0.29783 0.79588 0.4649 0.0
H1050 H 0.27779 0.76965 0.48884 0.0
C1051 C 0.2015 0.68687 0.56108 0.0
C1052 C 0.21317 0.73047 0.5154 0.0
H1053 H 0.25269 0.73589 0.47332 0.0
C1054 C 0.20779 0.75228 0.51808 0.0
C1055 C 0.22945 0.72442 0.49903 0.0
C1056 C 0.23533 0.70109 0.49501 0.0
C1057 C 0.21863 0.76835 0.5051 0.0
C1058 C 0.23491 0.7623 0.48866 0.0
C1059 C 0.2402 0.74045 0.48595 0.0
C1060 C 0.24682 0.77839 0.47423 0.0
C1061 C 0.21294 0.79166 0.50955 0.0
C1062 C 0.23605 0.79178 0.45787 0.0
C1063 C 0.24744 0.80686 0.44422 0.0
C1064 C 0.26983 0.80862 0.44654 0.0
C1065 C 0.2806 0.79494 0.4627 0.0
C1066 C 0.26918 0.77995 0.4764 0.0
H1067 H 0.20444 0.79382 0.52697 0.0
H1068 H 0.22751 0.80197 0.50953 0.0
H1069 H 0.20216 0.79737 0.495 0.0
H1070 H 0.21886 0.79047 0.45553 0.0
H1071 H 0.23871 0.81706 0.43181 0.0
H1072 H 0.15198 0.55214 0.93111 0.0
H1073 H 0.15518 0.52051 0.95707 0.0
H1074 H 0.19859 0.55521 0.0034 0.0
H1075 H 0.19582 0.58684 0.97727 0.0
H1076 H 0.2116 0.51332 0.99498 0.0
H1077 H 0.12623 0.51597 0.02271 0.0
H1078 H 0.1296 0.5149 0.99065 0.0
H1079 H 0.13912 0.53798 0.00711 0.0
C1080 C 0.1623 0.55303 0.94674 0.0
C1081 C 0.17348 0.57206 0.95226 0.0
C1082 C 0.16401 0.53498 0.96163 0.0
C1083 C 0.17672 0.53572 0.98243 0.0
C1084 C 0.18855 0.5544 0.98752 0.0
H1085 H 0.16096 0.43746 0.09366 0.0
H1086 H 0.16477 0.47231 0.07342 0.0
C1087 C 0.18694 0.57244 0.97257 0.0
C1088 C 0.17743 0.51705 -0.00101 0.0
H1089 H 0.14547 0.48386 0.03234 0.0
C1090 C 0.1972 0.50696 0.00334 0.0
C1091 C 0.15869 0.50912 0.0103 0.0
C1092 C 0.13725 0.52018 0.00769 0.0
C1093 C 0.19856 0.48854 0.01794 0.0
C1094 C 0.17959 0.47982 0.02801 0.0
C1095 C 0.15998 0.49045 0.02443 0.0
C1096 C 0.17941 0.45912 0.0413 0.0
C1097 C 0.2203 0.47865 0.02245 0.0
C1098 C 0.18646 0.44019 0.02999 0.0
C1099 C 0.18442 0.42031 0.04153 0.0
C1100 C 0.17498 0.41894 0.06448 0.0
C1101 C 0.16826 0.43797 0.07597 0.0
C1102 C 0.17044 0.45789 0.06445 0.0
H1103 H 0.23331 0.49079 0.02051 0.0
H1104 H 0.22126 0.47145 0.04071 0.0
H1105 H 0.22323 0.46576 0.00901 0.0
H1106 H 0.19291 0.44067 0.01189 0.0
H1107 H 0.18966 0.40596 0.03212 0.0
H1108 H 0.80955 0.59846 0.4832 0.0
H1109 H 0.80464 0.56406 0.46244 0.0
H1110 H 0.79505 0.53222 0.53062 0.0
H1111 H 0.79973 0.56654 0.55155 0.0
H1112 H 0.83073 0.52823 0.46929 0.0
H1113 H 0.7457 0.50874 0.48926 0.0
H1114 H 0.75661 0.53555 0.49258 0.0
H1115 H 0.76121 0.51553 0.5154 0.0
C1116 C 0.80611 0.5842 0.49378 0.0
C1117 C 0.80509 0.58521 0.51903 0.0
C1118 C 0.8033 0.56458 0.48188 0.0
C1119 C 0.79924 0.54569 0.49499 0.0
C1120 C 0.79774 0.54671 0.52015 0.0
H1121 H 0.82763 0.41439 0.45922 0.0
H1122 H 0.82483 0.4505 0.47642 0.0
C1123 C 0.80058 0.56631 0.53208 0.0
C1124 C 0.79845 0.52463 0.48257 0.0
H1125 H 0.76738 0.47995 0.47406 0.0
C1126 C 0.81681 0.51776 0.47013 0.0
C1127 C 0.7802 0.51112 0.48354 0.0
C1128 C 0.75972 0.51815 0.49572 0.0
C1129 C 0.81767 0.49741 0.45926 0.0
C1130 C 0.79978 0.4835 0.46118 0.0
C1131 C 0.78113 0.49062 0.47289 0.0
C1132 C 0.80045 0.46134 0.45153 0.0
C1133 C 0.83773 0.4909 0.44587 0.0
C1134 C 0.78718 0.45535 0.43231 0.0
C1135 C 0.78871 0.43469 0.42242 0.0
C1136 C 0.80344 0.41968 0.43174 0.0
C1137 C 0.81621 0.42559 0.45151 0.0
C1138 C 0.8147 0.44623 0.46133 0.0
H1139 H 0.84771 0.50509 0.44102 0.0
H1140 H 0.84749 0.48015 0.45748 0.0
H1141 H 0.83368 0.48194 0.42918 0.0
H1142 H 0.77601 0.46682 0.42463 0.0
H1143 H 0.77858 0.4306 0.40726 0.0
H1144 H 0.86857 0.40746 0.02241 0.0
H1145 H 0.86918 0.4424 0.00221 0.0
H1146 H 0.81221 0.46155 0.04075 0.0
H1147 H 0.81148 0.42655 0.06126 0.0
H1148 H 0.8355 0.46118 0.97325 0.0
H1149 H 0.85648 0.51067 0.05346 0.0
H1150 H 0.86029 0.48182 0.05267 0.0
H1151 H 0.83387 0.49283 0.05639 0.0
C1152 C 0.85617 0.41908 0.02667 0.0
C1153 C 0.84 0.41425 0.04352 0.0
C1154 C 0.85654 0.43902 0.01507 0.0
C1155 C 0.84087 0.45456 0.02018 0.0
C1156 C 0.8246 0.44982 0.03683 0.0
H1157 H 0.83217 0.58668 0.96627 0.0
H1158 H 0.82477 0.55264 0.98699 0.0
C1159 C 0.82417 0.4298 0.04844 0.0
C1160 C 0.84163 0.47562 0.00779 0.0
H1161 H 0.85196 0.52904 0.01672 0.0
C1162 C 0.83898 0.47606 0.98273 0.0
C1163 C 0.84607 0.49494 0.0203 0.0
C1164 C 0.8495 0.49519 0.04717 0.0
C1165 C 0.84088 0.49535 0.96975 0.0
C1166 C 0.84602 0.51457 0.98214 0.0
C1167 C 0.84808 0.51424 0.00729 0.0
C1168 C 0.8502 0.53502 0.96924 0.0
C1169 C 0.83731 0.49499 0.94289 0.0
C1170 C 0.86713 0.5364 0.95264 0.0
C1171 C 0.8714 0.55577 0.94076 0.0
C1172 C 0.8589 0.57417 0.94542 0.0
C1173 C 0.84206 0.57278 0.96223 0.0
C1174 C 0.8378 0.55337 0.97409 0.0
H1175 H 0.8275 0.48088 0.93737 0.0
H1176 H 0.8292 0.50993 0.9367 0.0
H1177 H 0.85304 0.49382 0.93362 0.0
H1178 H 0.8772 0.52253 0.94906 0.0
H1179 H 0.88456 0.55633 0.92804 0.0
H1180 H 0.19302 0.43143 0.42692 0.0
H1181 H 0.19728 0.46569 0.44827 0.0
H1182 H 0.14608 0.44803 0.49668 0.0
H1183 H 0.14184 0.41375 0.47571 0.0
H1184 H 0.16634 0.49757 0.45365 0.0
H1185 H 0.19349 0.46776 0.54252 0.0
H1186 H 0.19406 0.45124 0.51576 0.0
H1187 H 0.16946 0.45474 0.53228 0.0
C1188 C 0.18281 0.43475 0.44226 0.0
C1189 C 0.16711 0.41985 0.44964 0.0
C1190 C 0.18527 0.45432 0.45442 0.0
C1191 C 0.17222 0.45922 0.47425 0.0
C1192 C 0.15664 0.44434 0.48174 0.0
H1193 H 0.12961 0.57793 0.53441 0.0
H1194 H 0.13536 0.54453 0.51212 0.0
C1195 C 0.15414 0.42481 0.46961 0.0
C1196 C 0.17386 0.48041 0.48629 0.0
H1197 H 0.17998 0.50398 0.54132 0.0
C1198 C 0.16961 0.49903 0.47276 0.0
C1199 C 0.17843 0.48227 0.51112 0.0
C1200 C 0.18434 0.46295 0.52623 0.0
C1201 C 0.16879 0.51939 0.48367 0.0
C1202 C 0.17199 0.52106 0.50878 0.0
C1203 C 0.17728 0.50259 0.5221 0.0
C1204 C 0.16886 0.54162 0.52177 0.0
C1205 C 0.16432 0.53891 0.46825 0.0
C1206 C 0.18569 0.55079 0.53501 0.0
C1207 C 0.18244 0.56986 0.54791 0.0
C1208 C 0.16223 0.57995 0.54792 0.0
C1209 C 0.1454 0.57063 0.53469 0.0
C1210 C 0.14868 0.55162 0.52181 0.0
H1211 H 0.16855 0.53594 0.4491 0.0
H1212 H 0.14694 0.54273 0.4691 0.0
H1213 H 0.17339 0.55318 0.47472 0.0
H1214 H 0.20134 0.5432 0.53533 0.0
H1215 H 0.19571 0.5766 0.55796 0.0
H1216 H 0.68875 0.08271 0.97264 0.0
H1217 H 0.69203 0.04945 -0.00409 0.0
H1218 H 0.65515 0.0155 0.94232 0.0
H1219 H 0.65132 0.04881 0.91923 0.0
H1220 H 0.64016 0.00845 0.98698 0.0
H1221 H 0.72822 -0.0039 0.98575 0.0
H1222 H 0.72053 0.02223 -0.00342 0.0
H1223 H 0.71491 0.01486 0.96591 0.0
C1224 C 0.68156 0.06811 0.96565 0.0
C1225 C 0.66972 0.0684 0.94412 0.0
C1226 C 0.68358 0.04907 0.9789 0.0
C1227 C 0.67409 0.02993 0.97069 0.0
C1228 C 0.66266 0.03009 0.94893 0.0
H1229 H 0.68923 0.90099 0.02839 0.0
H1230 H 0.69145 0.93411 0.00466 0.0
C1231 C 0.66049 0.04914 0.93577 0.0
C1232 C 0.67465 0.01014 0.98558 0.0
H1233 H 0.70825 0.97457 0.01348 0.0
C1234 C 0.65505 0.00098 0.99267 0.0
C1235 C 0.6941 0.00032 0.9928 0.0
C1236 C 0.71563 0.00874 0.98468 0.0
C1237 C 0.65433 0.9824 0.00699 0.0
C1238 C 0.67376 0.97304 0.01496 0.0
C1239 C 0.69338 0.98198 0.00761 0.0
C1240 C 0.67392 0.95355 0.03034 0.0
C1241 C 0.63275 0.97273 0.01303 0.0
C1242 C 0.6639 0.9537 0.05296 0.0
C1243 C 0.66244 0.93477 0.06649 0.0
C1244 C 0.67123 0.91543 0.05773 0.0
C1245 C 0.68221 0.9156 0.0356 0.0
C1246 C 0.68352 0.93451 0.02201 0.0
H1247 H 0.62007 0.97833 0.00044 0.0
H1248 H 0.63335 0.95485 0.01248 0.0
H1249 H 0.62803 0.97772 0.03146 0.0
H1250 H 0.65684 0.96837 0.05996 0.0
H1251 H 0.6541 0.93522 0.08359 0.0
H1252 H 0.31657 0.89301 0.49779 0.0
H1253 H 0.31563 0.92965 0.5138 0.0
H1254 H 0.29944 0.95414 0.44347 0.0
H1255 H 0.3006 0.91753 0.42718 0.0
H1256 H 0.33407 0.97472 0.46405 0.0
H1257 H 0.26619 0.97092 0.52844 0.0
H1258 H 0.28539 0.94968 0.53258 0.0
H1259 H 0.2702 0.95104 0.50512 0.0
C1260 C 0.31249 0.90613 0.48578 0.0
C1261 C 0.30873 0.90237 0.4612 0.0
C1262 C 0.31181 0.92705 0.49501 0.0
C1263 C 0.30721 0.94455 0.47987 0.0
C1264 C 0.3029 0.94081 0.45546 0.0
H1265 H 0.29609 0.07771 0.5303 0.0
H1266 H 0.28878 0.04273 0.51159 0.0
C1267 C 0.30357 0.91989 0.4462 0.0
C1268 C 0.30883 0.96686 0.48909 0.0
H1269 H 0.29031 0.00078 0.53279 0.0
C1270 C 0.32433 0.98051 0.4789 0.0
C1271 C 0.29597 0.97442 0.5083 0.0
C1272 C 0.27835 0.96083 0.51911 0.0
C1273 C 0.32787 0.00127 0.48799 0.0
C1274 C 0.31578 0.00841 0.50799 0.0
C1275 C 0.29971 0.99511 0.51762 0.0
C1276 C 0.32005 0.02943 0.51955 0.0
C1277 C 0.34457 0.01537 0.47617 0.0
C1278 C 0.33993 0.03333 0.5305 0.0
C1279 C 0.34417 0.05323 0.54118 0.0
C1280 C 0.32855 0.06957 0.54118 0.0
C1281 C 0.3085 0.06549 0.5305 0.0
C1282 C 0.30427 0.04553 0.51985 0.0
H1283 H 0.34825 0.00992 0.45757 0.0
H1284 H 0.3392 0.03243 0.47551 0.0
H1285 H 0.35962 0.01464 0.48678 0.0
H1286 H 0.35218 0.02093 0.53081 0.0
H1287 H 0.35972 0.0558 0.54937 0.0
H1288 H 0.36427 0.91903 0.02728 0.0
H1289 H 0.36094 0.95365 0.00669 0.0
H1290 H 0.2955 0.95921 0.03123 0.0
H1291 H 0.29876 0.92469 0.05227 0.0
H1292 H 0.33213 0.96585 0.97062 0.0
H1293 H 0.32256 0.01624 0.05275 0.0
H1294 H 0.33188 0.9887 0.05392 0.0
H1295 H 0.30385 0.99436 0.04983 0.0
C1296 C 0.34916 0.92761 0.02837 0.0
C1297 C 0.33181 0.91918 0.04155 0.0
C1298 C 0.34729 0.94737 0.01656 0.0
C1299 C 0.32808 0.95909 0.01773 0.0
C1300 C 0.3106 0.95059 0.03052 0.0
H1301 H 0.29899 0.08616 0.95764 0.0
H1302 H 0.29554 0.0505 0.97623 0.0
C1303 C 0.31247 0.93083 0.04242 0.0
C1304 C 0.32648 0.98013 0.00537 0.0
H1305 H 0.32057 0.03411 0.01533 0.0
C1306 C 0.32953 0.98078 0.98036 0.0
C1307 C 0.32298 -0.00047 0.01817 0.0
C1308 C 0.3203 -0.00018 0.04517 0.0
C1309 C 0.32942 0.00037 0.96779 0.0
C1310 C 0.32646 0.01979 0.98067 0.0
C1311 C 0.32282 0.01913 0.00557 0.0
C1312 C 0.32829 0.04103 0.96884 0.0
C1313 C 0.33249 0.00017 0.94085 0.0
C1314 C 0.34791 0.0475 0.9588 0.0
C1315 C 0.34997 0.06782 0.94827 0.0
C1316 C 0.33243 0.08206 0.94766 0.0
C1317 C 0.31278 0.07553 0.95777 0.0
C1318 C 0.31077 0.0552 0.96839 0.0
H1319 H 0.32874 0.98412 0.93304 0.0
H1320 H 0.32222 0.01248 0.93205 0.0
H1321 H 0.34947 0.00397 0.93662 0.0
H1322 H 0.36172 0.03692 0.9594 0.0
H1323 H 0.36534 0.07237 0.94072 0.0
H1324 H 0.68224 0.06332 0.5739 0.0
H1325 H 0.68435 0.02953 0.55143 0.0
H1326 H 0.65087 0.05904 0.492 0.0
H1327 H 0.64798 0.09262 0.51474 0.0
H1328 H 0.63369 0.0218 0.50255 0.0
H1329 H 0.72159 0.01069 0.4967 0.0
H1330 H 0.71279 0.01378 0.52723 0.0
H1331 H 0.70958 0.03573 0.5063 0.0
C1332 C 0.67555 0.06267 0.55593 0.0
C1333 C 0.66491 0.08059 0.54608 0.0
C1334 C 0.67692 0.0434 0.54302 0.0
C1335 C 0.66811 0.04185 0.51985 0.0
C1336 C 0.65786 0.05989 0.50981 0.0
H1337 H 0.68419 0.93079 0.42504 0.0
H1338 H 0.68691 0.96622 0.44422 0.0
C1339 C 0.65621 0.07906 0.52283 0.0
C1340 C 0.66804 0.02099 0.50682 0.0
H1341 H 0.70003 0.97957 0.48808 0.0
C1342 C 0.64824 0.01268 0.49919 0.0
C1343 C 0.68704 0.00922 0.50212 0.0
C1344 C 0.70896 0.01793 0.50829 0.0
C1345 C 0.64683 0.99273 0.4875 0.0
C1346 C 0.66568 0.98039 0.48408 0.0
C1347 C 0.68557 0.98891 0.4911 0.0
C1348 C 0.66498 0.95859 0.47323 0.0
C1349 C 0.62517 0.98527 0.47866 0.0
C1350 C 0.65222 0.9424 0.48357 0.0
C1351 C 0.65043 0.92229 0.47252 0.0
C1352 C 0.66172 0.91786 0.45118 0.0
C1353 C 0.67527 0.93375 0.44145 0.0
C1354 C 0.67684 0.95399 0.45238 0.0
H1355 H 0.61405 -0.00095 0.47592 0.0
H1356 H 0.6266 0.97628 0.46146 0.0
H1357 H 0.61788 0.97444 0.4923 0.0
H1358 H 0.64343 0.9454 0.50005 0.0
H1359 H 0.64009 0.91027 0.48062 0.0
loop_
_geom_bond_atom_site_label_1
_geom_bond_atom_site_label_2
_geom_bond_distance
_geom_bond_site_symmetry_2
_ccdc_geom_bond_type
C0 O1 1.160 . S
C0 O7 1.185 . S
O1 C0 1.160 . S
O2 Zn3 1.899 . S
O2 C10 1.284 . S
Zn3 O2 1.899 . S
Zn3 O4 2.032 . S
Zn3 O7 2.086 . S
Zn3 O12 1.977 . S
O4 Zn3 2.032 . S
O4 C8 1.278 . S
C5 O6 1.203 . S
C5 O12 1.267 . S
O6 C5 1.203 . S
O7 C0 1.185 . S
O7 Zn3 2.086 . S
C8 O4 1.278 . S
C8 O9 1.211 . S
O9 C8 1.211 . S
C10 O2 1.284 . S
C10 O11 1.273 . S
O11 C10 1.273 . S
O12 Zn3 1.977 . S
O12 C5 1.267 . S
C13 O14 1.160 . S
C13 O20 1.185 . S
O14 C13 1.160 . S
O15 Zn16 1.899 . S
O15 C23 1.284 . S
Zn16 O15 1.899 . S
Zn16 O17 2.032 . S
Zn16 O20 2.086 . S
Zn16 O25 1.977 . S
O17 Zn16 2.032 . S
O17 C21 1.278 . S
C18 O19 1.203 . S
C18 O25 1.267 . S
O19 C18 1.203 . S
O20 C13 1.185 . S
O20 Zn16 2.086 . S
C21 O17 1.278 . S
C21 O22 1.211 . S
O22 C21 1.211 . S
C23 O15 1.284 . S
C23 O24 1.273 . S
O24 C23 1.273 . S
O25 Zn16 1.977 . S
O25 C18 1.267 . S
C26 O27 1.160 . S
C26 O33 1.185 . S
O27 C26 1.160 . S
O28 Zn29 1.899 . S
O28 C36 1.284 . S
Zn29 O28 1.899 . S
Zn29 O30 2.032 . S
Zn29 O33 2.086 . S
Zn29 O38 1.977 . S
O30 Zn29 2.032 . S
O30 C34 1.278 . S
C31 O32 1.203 . S
C31 O38 1.267 . S
O32 C31 1.203 . S
O33 C26 1.185 . S
O33 Zn29 2.086 . S
C34 O30 1.278 . S
C34 O35 1.211 . S
O35 C34 1.211 . S
C36 O28 1.284 . S
C36 O37 1.273 . S
O37 C36 1.273 . S
O38 Zn29 1.977 . S
O38 C31 1.267 . S
C39 O40 1.160 . S
C39 O46 1.185 . S
O40 C39 1.160 . S
O41 Zn42 1.899 . S
O41 C49 1.284 . S
Zn42 O41 1.899 . S
Zn42 O43 2.032 . S
Zn42 O46 2.086 . S
Zn42 O51 1.977 . S
O43 Zn42 2.032 . S
O43 C47 1.278 . S
C44 O45 1.203 . S
C44 O51 1.267 . S
O45 C44 1.203 . S
O46 C39 1.185 . S
O46 Zn42 2.086 . S
C47 O43 1.278 . S
C47 O48 1.211 . S
O48 C47 1.211 . S
C49 O41 1.284 . S
C49 O50 1.273 . S
O50 C49 1.273 . S
O51 Zn42 1.977 . S
O51 C44 1.267 . S
C52 O53 1.160 . S
C52 O59 1.185 . S
O53 C52 1.160 . S
O54 Zn55 1.899 . S
O54 C62 1.284 . S
Zn55 O54 1.899 . S
Zn55 O56 2.032 . S
Zn55 O59 2.086 . S
Zn55 O64 1.977 . S
O56 Zn55 2.032 . S
O56 C60 1.278 . S
C57 O58 1.203 . S
C57 O64 1.267 . S
O58 C57 1.203 . S
O59 C52 1.185 . S
O59 Zn55 2.086 . S
C60 O56 1.278 . S
C60 O61 1.211 . S
O61 C60 1.211 . S
C62 O54 1.284 . S
C62 O63 1.273 . S
O63 C62 1.273 . S
O64 Zn55 1.977 . S
O64 C57 1.267 . S
C65 O66 1.160 . S
C65 O72 1.185 . S
O66 C65 1.160 . S
O67 Zn68 1.899 . S
O67 C75 1.284 . S
Zn68 O67 1.899 . S
Zn68 O69 2.032 . S
Zn68 O72 2.086 . S
Zn68 O77 1.977 . S
O69 Zn68 2.032 . S
O69 C73 1.278 . S
C70 O71 1.203 . S
C70 O77 1.267 . S
O71 C70 1.203 . S
O72 C65 1.185 . S
O72 Zn68 2.086 . S
C73 O69 1.278 . S
C73 O74 1.211 . S
O74 C73 1.211 . S
C75 O67 1.284 . S
C75 O76 1.273 . S
O76 C75 1.273 . S
O77 Zn68 1.977 . S
O77 C70 1.267 . S
C78 O79 1.160 . S
C78 O85 1.185 . S
O79 C78 1.160 . S
O80 Zn81 1.899 . S
O80 C88 1.284 . S
Zn81 O80 1.899 . S
Zn81 O82 2.032 . S
Zn81 O85 2.086 . S
Zn81 O90 1.977 . S
O82 Zn81 2.032 . S
O82 C86 1.278 . S
C83 O84 1.203 . S
C83 O90 1.267 . S
O84 C83 1.203 . S
O85 C78 1.185 . S
O85 Zn81 2.086 . S
C86 O82 1.278 . S
C86 O87 1.211 . S
O87 C86 1.211 . S
C88 O80 1.284 . S
C88 O89 1.273 . S
O89 C88 1.273 . S
O90 Zn81 1.977 . S
O90 C83 1.267 . S
C91 O92 1.160 . S
C91 O98 1.185 . S
O92 C91 1.160 . S
O93 Zn94 1.899 . S
O93 C101 1.284 . S
Zn94 O93 1.899 . S
Zn94 O95 2.032 . S
Zn94 O98 2.086 . S
Zn94 O103 1.977 . S
O95 Zn94 2.032 . S
O95 C99 1.278 . S
C96 O97 1.203 . S
C96 O103 1.267 . S
O97 C96 1.203 . S
O98 C91 1.185 . S
O98 Zn94 2.086 . S
C99 O95 1.278 . S
C99 O100 1.211 . S
O100 C99 1.211 . S
C101 O93 1.284 . S
C101 O102 1.273 . S
O102 C101 1.273 . S
O103 Zn94 1.977 . S
O103 C96 1.267 . S
C104 O105 1.160 . S
C104 O111 1.185 . S
O105 C104 1.160 . S
O106 Zn107 1.899 . S
O106 C114 1.284 . S
Zn107 O106 1.899 . S
Zn107 O108 2.032 . S
Zn107 O111 2.086 . S
Zn107 O116 1.977 . S
O108 Zn107 2.032 . S
O108 C112 1.278 . S
C109 O110 1.203 . S
C109 O116 1.267 . S
O110 C109 1.203 . S
O111 C104 1.185 . S
O111 Zn107 2.086 . S
C112 O108 1.278 . S
C112 O113 1.211 . S
O113 C112 1.211 . S
C114 O106 1.284 . S
C114 O115 1.273 . S
O115 C114 1.273 . S
O116 Zn107 1.977 . S
O116 C109 1.267 . S
C117 O118 1.160 . S
C117 O124 1.185 . S
O118 C117 1.160 . S
O119 Zn120 1.899 . S
O119 C127 1.284 . S
Zn120 O119 1.899 . S
Zn120 O121 2.032 . S
Zn120 O124 2.086 . S
Zn120 O129 1.977 . S
O121 Zn120 2.032 . S
O121 C125 1.278 . S
C122 O123 1.203 . S
C122 O129 1.267 . S
O123 C122 1.203 . S
O124 C117 1.185 . S
O124 Zn120 2.086 . S
C125 O121 1.278 . S
C125 O126 1.211 . S
O126 C125 1.211 . S
C127 O119 1.284 . S
C127 O128 1.273 . S
O128 C127 1.273 . S
O129 Zn120 1.977 . S
O129 C122 1.267 . S
C130 O131 1.160 . S
C130 O137 1.185 . S
O131 C130 1.160 . S
O132 Zn133 1.899 . S
O132 C140 1.284 . S
Zn133 O132 1.899 . S
Zn133 O134 2.032 . S
Zn133 O137 2.086 . S
Zn133 O142 1.977 . S
O134 Zn133 2.032 . S
O134 C138 1.278 . S
C135 O136 1.203 . S
C135 O142 1.267 . S
O136 C135 1.203 . S
O137 C130 1.185 . S
O137 Zn133 2.086 . S
C138 O134 1.278 . S
C138 O139 1.211 . S
O139 C138 1.211 . S
C140 O132 1.284 . S
C140 O141 1.273 . S
O141 C140 1.273 . S
O142 Zn133 1.977 . S
O142 C135 1.267 . S
C143 O144 1.160 . S
C143 O150 1.185 . S
O144 C143 1.160 . S
O145 Zn146 1.899 . S
O145 C153 1.284 . S
Zn146 O145 1.899 . S
Zn146 O147 2.032 . S
Zn146 O150 2.086 . S
Zn146 O155 1.977 . S
O147 Zn146 2.032 . S
O147 C151 1.278 . S
C148 O149 1.203 . S
C148 O155 1.267 . S
O149 C148 1.203 . S
O150 C143 1.185 . S
O150 Zn146 2.086 . S
C151 O147 1.278 . S
C151 O152 1.211 . S
O152 C151 1.211 . S
C153 O145 1.284 . S
C153 O154 1.273 . S
O154 C153 1.273 . S
O155 Zn146 1.977 . S
O155 C148 1.267 . S
C156 O157 1.160 . S
C156 O163 1.185 . S
O157 C156 1.160 . S
O158 Zn159 1.899 . S
O158 C166 1.284 . S
Zn159 O158 1.899 . S
Zn159 O160 2.032 . S
Zn159 O163 2.086 . S
Zn159 O168 1.977 . S
O160 Zn159 2.032 . S
O160 C164 1.278 . S
C161 O162 1.203 . S
C161 O168 1.267 . S
O162 C161 1.203 . S
O163 C156 1.185 . S
O163 Zn159 2.086 . S
C164 O160 1.278 . S
C164 O165 1.211 . S
O165 C164 1.211 . S
C166 O158 1.284 . S
C166 O167 1.273 . S
O167 C166 1.273 . S
O168 Zn159 1.977 . S
O168 C161 1.267 . S
C169 O170 1.160 . S
C169 O176 1.185 . S
O170 C169 1.160 . S
O171 Zn172 1.899 . S
O171 C179 1.284 . S
Zn172 O171 1.899 . S
Zn172 O173 2.032 . S
Zn172 O176 2.086 . S
Zn172 O181 1.977 . S
O173 Zn172 2.032 . S
O173 C177 1.278 . S
C174 O175 1.203 . S
C174 O181 1.267 . S
O175 C174 1.203 . S
O176 C169 1.185 . S
O176 Zn172 2.086 . S
C177 O173 1.278 . S
C177 O178 1.211 . S
O178 C177 1.211 . S
C179 O171 1.284 . S
C179 O180 1.273 . S
O180 C179 1.273 . S
O181 Zn172 1.977 . S
O181 C174 1.267 . S
C182 O183 1.160 . S
C182 O189 1.185 . S
O183 C182 1.160 . S
O184 Zn185 1.899 . S
O184 C192 1.284 . S
Zn185 O184 1.899 . S
Zn185 O186 2.032 . S
Zn185 O189 2.086 . S
Zn185 O194 1.977 . S
O186 Zn185 2.032 . S
O186 C190 1.278 . S
C187 O188 1.203 . S
C187 O194 1.267 . S
O188 C187 1.203 . S
O189 C182 1.185 . S
O189 Zn185 2.086 . S
C190 O186 1.278 . S
C190 O191 1.211 . S
O191 C190 1.211 . S
C192 O184 1.284 . S
C192 O193 1.273 . S
O193 C192 1.273 . S
O194 Zn185 1.977 . S
O194 C187 1.267 . S
C195 O196 1.160 . S
C195 O202 1.185 . S
O196 C195 1.160 . S
O197 Zn198 1.899 . S
O197 C205 1.284 . S
Zn198 O197 1.899 . S
Zn198 O199 2.032 . S
Zn198 O202 2.086 . S
Zn198 O207 1.977 . S
O199 Zn198 2.032 . S
O199 C203 1.278 . S
C200 O201 1.203 . S
C200 O207 1.267 . S
O201 C200 1.203 . S
O202 C195 1.185 . S
O202 Zn198 2.086 . S
C203 O199 1.278 . S
C203 O204 1.211 . S
O204 C203 1.211 . S
C205 O197 1.284 . S
C205 O206 1.273 . S
O206 C205 1.273 . S
O207 Zn198 1.977 . S
O207 C200 1.267 . S
H208 C216 0.929 . S
H209 C218 0.930 . S
H210 C220 0.930 . S
H211 C223 0.929 . S
H212 C226 0.930 . S
H213 C228 0.960 . S
H214 C228 0.960 . S
H215 C228 0.960 . S
C216 H208 0.929 . S
C216 C217 1.377 . S
C216 C218 1.384 . S
C217 C216 1.377 . S
C217 C223 1.390 . S
C218 H209 0.930 . S
C218 C216 1.384 . S
C218 C219 1.372 . S
C219 C218 1.372 . S
C219 C220 1.400 . S
C219 C224 1.490 . S
C220 H210 0.930 . S
C220 C219 1.400 . S
C220 C223 1.386 . S
H221 C237 0.930 . S
H222 C238 0.931 . S
C223 H211 0.929 . S
C223 C217 1.390 . S
C223 C220 1.386 . S
C224 C219 1.490 . S
C224 C226 1.395 . S
C224 C227 1.403 . S
H225 C231 0.930 . S
C226 H212 0.930 . S
C226 C224 1.395 . S
C226 C229 1.406 . S
C227 C224 1.403 . S
C227 C228 1.524 . S
C227 C231 1.400 1_455 S
C228 H213 0.960 . S
C228 H214 0.960 . S
C228 H215 0.960 . S
C228 C227 1.524 . S
C229 C226 1.406 . S
C229 C230 1.391 1_455 S
C229 C233 1.494 1_455 S
C230 C229 1.391 1_655 S
C230 C231 1.385 . S
C230 C232 1.478 . S
C231 H225 0.930 . S
C231 C227 1.400 1_655 S
C231 C230 1.385 . S
C232 C230 1.478 . S
C232 C234 1.381 . S
C232 C238 1.383 . S
C233 C229 1.494 1_655 S
C233 H239 0.959 1_655 S
C233 H240 0.961 . S
C233 H241 0.960 . S
C234 C232 1.381 . S
C234 C235 1.394 . S
C234 H242 0.930 . S
C235 C234 1.394 . S
C235 C236 1.383 . S
C235 H243 0.929 . S
C236 C235 1.383 . S
C236 C237 1.377 . S
C237 H221 0.930 . S
C237 C236 1.377 . S
C237 C238 1.379 . S
C238 H222 0.931 . S
C238 C232 1.383 . S
C238 C237 1.379 . S
H239 C233 0.959 1_455 S
H240 C233 0.961 . S
H241 C233 0.960 . S
H242 C234 0.930 . S
H243 C235 0.929 . S
H244 C252 0.929 . S
H245 C254 0.930 . S
H246 C256 0.930 . S
H247 C259 0.929 . S
H248 C262 0.930 . S
H249 C264 0.960 . S
H250 C264 0.960 . S
H251 C264 0.960 . S
C252 H244 0.929 . S
C252 C253 1.377 . S
C252 C254 1.384 . S
C253 C252 1.377 . S
C253 C259 1.390 . S
C254 H245 0.930 . S
C254 C252 1.384 . S
C254 C255 1.372 . S
C255 C254 1.372 . S
C255 C256 1.400 . S
C255 C260 1.490 . S
C256 H246 0.930 . S
C256 C255 1.400 . S
C256 C259 1.386 . S
H257 C273 0.930 . S
H258 C274 0.931 . S
C259 H247 0.929 . S
C259 C253 1.390 . S
C259 C256 1.386 . S
C260 C255 1.490 . S
C260 C262 1.395 . S
C260 C263 1.403 . S
H261 C267 0.930 . S
C262 H248 0.930 . S
C262 C260 1.395 . S
C262 C265 1.410 . S
C263 C260 1.403 . S
C263 C264 1.524 . S
C263 C267 1.400 1_655 S
C264 H249 0.960 . S
C264 H250 0.960 . S
C264 H251 0.960 . S
C264 C263 1.524 . S
C265 C262 1.410 . S
C265 C266 1.389 1_655 S
C265 C269 1.493 1_655 S
C266 C265 1.389 1_455 S
C266 C267 1.385 . S
C266 C268 1.478 . S
C267 H261 0.930 . S
C267 C263 1.400 1_455 S
C267 C266 1.385 . S
C268 C266 1.478 . S
C268 C270 1.381 . S
C268 C274 1.383 . S
C269 C265 1.493 1_455 S
C269 H275 0.959 1_455 S
C269 H276 0.961 . S
C269 H277 0.960 . S
C270 C268 1.381 . S
C270 C271 1.394 . S
C270 H278 0.930 . S
C271 C270 1.394 . S
C271 C272 1.383 . S
C271 H279 0.929 . S
C272 C271 1.383 . S
C272 C273 1.377 . S
C273 H257 0.930 . S
C273 C272 1.377 . S
C273 C274 1.379 . S
C274 H258 0.931 . S
C274 C268 1.383 . S
C274 C273 1.379 . S
H275 C269 0.959 1_655 S
H276 C269 0.961 . S
H277 C269 0.960 . S
H278 C270 0.930 . S
H279 C271 0.929 . S
H280 C288 0.929 . S
H281 C290 0.930 . S
H282 C292 0.930 . S
H283 C295 0.929 . S
H284 C298 0.930 . S
H285 C300 0.960 1_455 S
H286 C300 0.960 . S
H287 C300 0.960 . S
C288 H280 0.929 . S
C288 C289 1.377 . S
C288 C290 1.384 . S
C289 C288 1.377 . S
C289 C295 1.390 . S
C290 H281 0.930 . S
C290 C288 1.384 . S
C290 C291 1.372 . S
C291 C290 1.372 . S
C291 C292 1.400 . S
C291 C296 1.490 . S
C292 H282 0.930 . S
C292 C291 1.400 . S
C292 C295 1.386 . S
H293 C309 0.930 . S
H294 C310 0.931 . S
C295 H283 0.929 . S
C295 C289 1.390 . S
C295 C292 1.386 . S
C296 C291 1.490 . S
C296 C298 1.395 . S
C296 C299 1.383 1_655 S
H297 C303 0.930 . S
C298 H284 0.930 . S
C298 C296 1.395 . S
C298 C301 1.403 1_655 S
C299 C296 1.383 1_455 S
C299 C300 1.510 1_455 S
C299 C303 1.437 . S
C300 H285 0.960 1_655 S
C300 H286 0.960 . S
C300 H287 0.960 . S
C300 C299 1.510 1_655 S
C301 C298 1.403 1_455 S
C301 C302 1.392 . S
C301 C305 1.495 . S
C302 C301 1.392 . S
C302 C303 1.385 . S
C302 C304 1.478 . S
C303 H297 0.930 . S
C303 C299 1.437 . S
C303 C302 1.385 . S
C304 C302 1.478 . S
C304 C306 1.381 . S
C304 C310 1.383 . S
C305 C301 1.495 . S
C305 H311 0.959 . S
C305 H312 0.961 . S
C305 H313 0.960 . S
C306 C304 1.381 . S
C306 C307 1.394 . S
C306 H314 0.930 . S
C307 C306 1.394 . S
C307 C308 1.383 . S
C307 H315 0.929 . S
C308 C307 1.383 . S
C308 C309 1.377 . S
C309 H293 0.930 . S
C309 C308 1.377 . S
C309 C310 1.379 . S
C310 H294 0.931 . S
C310 C304 1.383 . S
C310 C309 1.379 . S
H311 C305 0.959 . S
H312 C305 0.961 . S
H313 C305 0.960 . S
H314 C306 0.930 . S
H315 C307 0.929 . S
H316 C324 0.929 . S
H317 C326 0.930 . S
H318 C328 0.930 . S
H319 C331 0.929 . S
H320 C334 0.930 . S
H321 C336 0.960 1_655 S
H322 C336 0.960 . S
H323 C336 0.960 . S
C324 H316 0.929 . S
C324 C325 1.377 . S
C324 C326 1.384 . S
C325 C324 1.377 . S
C325 C331 1.390 . S
C326 H317 0.930 . S
C326 C324 1.384 . S
C326 C327 1.372 . S
C327 C326 1.372 . S
C327 C328 1.400 . S
C327 C332 1.490 . S
C328 H318 0.930 . S
C328 C327 1.400 . S
C328 C331 1.386 . S
H329 C345 0.930 . S
H330 C346 0.931 . S
C331 H319 0.929 . S
C331 C325 1.390 . S
C331 C328 1.386 . S
C332 C327 1.490 . S
C332 C334 1.395 . S
C332 C335 1.382 1_455 S
H333 C339 0.930 . S
C334 H320 0.930 . S
C334 C332 1.395 . S
C334 C337 1.403 1_455 S
C335 C332 1.382 1_655 S
C335 C336 1.510 1_655 S
C335 C339 1.437 . S
C336 H321 0.960 1_455 S
C336 H322 0.960 . S
C336 H323 0.960 . S
C336 C335 1.510 1_455 S
C337 C334 1.403 1_655 S
C337 C338 1.392 . S
C337 C341 1.495 . S
C338 C337 1.392 . S
C338 C339 1.385 . S
C338 C340 1.478 . S
C339 H333 0.930 . S
C339 C335 1.437 . S
C339 C338 1.385 . S
C340 C338 1.478 . S
C340 C342 1.381 . S
C340 C346 1.383 . S
C341 C337 1.495 . S
C341 H347 0.959 . S
C341 H348 0.961 . S
C341 H349 0.960 . S
C342 C340 1.381 . S
C342 C343 1.394 . S
C342 H350 0.930 . S
C343 C342 1.394 . S
C343 C344 1.383 . S
C343 H351 0.929 . S
C344 C343 1.383 . S
C344 C345 1.377 . S
C345 H329 0.930 . S
C345 C344 1.377 . S
C345 C346 1.379 . S
C346 H330 0.931 . S
C346 C340 1.383 . S
C346 C345 1.379 . S
H347 C341 0.959 . S
H348 C341 0.961 . S
H349 C341 0.960 . S
H350 C342 0.930 . S
H351 C343 0.929 . S
H352 C360 0.929 . S
H353 C362 0.930 . S
H354 C364 0.930 . S
H355 C367 0.929 . S
H356 C370 0.930 . S
H357 C372 0.960 . S
H358 C372 0.960 . S
H359 C372 0.960 . S
C360 H352 0.929 . S
C360 C361 1.377 . S
C360 C362 1.384 . S
C361 C360 1.377 . S
C361 C367 1.390 . S
C362 H353 0.930 . S
C362 C360 1.384 . S
C362 C363 1.372 . S
C363 C362 1.372 . S
C363 C364 1.400 . S
C363 C368 1.490 . S
C364 H354 0.930 . S
C364 C363 1.400 . S
C364 C367 1.386 . S
H365 C381 0.930 . S
H366 C382 0.931 . S
C367 H355 0.929 . S
C367 C361 1.390 . S
C367 C364 1.386 . S
C368 C363 1.490 . S
C368 C370 1.395 . S
C368 C371 1.403 . S
H369 C375 0.930 . S
C370 H356 0.930 . S
C370 C368 1.395 . S
C370 C373 1.403 . S
C371 C368 1.403 . S
C371 C372 1.524 . S
C371 C375 1.400 . S
C372 H357 0.960 . S
C372 H358 0.960 . S
C372 H359 0.960 . S
C372 C371 1.524 . S
C373 C370 1.403 . S
C373 C374 1.392 . S
C373 C377 1.495 . S
C374 C373 1.392 . S
C374 C375 1.385 . S
C374 C376 1.478 . S
C375 H369 0.930 . S
C375 C371 1.400 . S
C375 C374 1.385 . S
C376 C374 1.478 . S
C376 C378 1.381 . S
C376 C382 1.383 . S
C377 C373 1.495 . S
C377 H383 0.959 . S
C377 H384 0.961 . S
C377 H385 0.960 . S
C378 C376 1.381 . S
C378 C379 1.394 . S
C378 H386 0.930 . S
C379 C378 1.394 . S
C379 C380 1.383 . S
C379 H387 0.929 . S
C380 C379 1.383 . S
C380 C381 1.377 . S
C381 H365 0.930 . S
C381 C380 1.377 . S
C381 C382 1.379 . S
C382 H366 0.931 . S
C382 C376 1.383 . S
C382 C381 1.379 . S
H383 C377 0.959 . S
H384 C377 0.961 . S
H385 C377 0.960 . S
H386 C378 0.930 . S
H387 C379 0.929 . S
H388 C396 0.929 . S
H389 C398 0.930 . S
H390 C400 0.930 . S
H391 C403 0.929 . S
H392 C406 0.930 . S
H393 C408 0.960 . S
H394 C408 0.960 . S
H395 C408 0.960 . S
C396 H388 0.929 . S
C396 C397 1.377 . S
C396 C398 1.384 . S
C397 C396 1.377 . S
C397 C403 1.390 . S
C398 H389 0.930 . S
C398 C396 1.384 . S
C398 C399 1.372 . S
C399 C398 1.372 . S
C399 C400 1.400 . S
C399 C404 1.490 . S
C400 H390 0.930 . S
C400 C399 1.400 . S
C400 C403 1.386 . S
H401 C417 0.930 . S
H402 C418 0.931 . S
C403 H391 0.929 . S
C403 C397 1.390 . S
C403 C400 1.386 . S
C404 C399 1.490 . S
C404 C406 1.395 . S
C404 C407 1.403 . S
H405 C411 0.930 . S
C406 H392 0.930 . S
C406 C404 1.395 . S
C406 C409 1.403 . S
C407 C404 1.403 . S
C407 C408 1.524 . S
C407 C411 1.400 . S
C408 H393 0.960 . S
C408 H394 0.960 . S
C408 H395 0.960 . S
C408 C407 1.524 . S
C409 C406 1.403 . S
C409 C410 1.392 . S
C409 C413 1.495 . S
C410 C409 1.392 . S
C410 C411 1.385 . S
C410 C412 1.478 . S
C411 H405 0.930 . S
C411 C407 1.400 . S
C411 C410 1.385 . S
C412 C410 1.478 . S
C412 C414 1.381 . S
C412 C418 1.383 . S
C413 C409 1.495 . S
C413 H419 0.959 . S
C413 H420 0.961 . S
C413 H421 0.960 . S
C414 C412 1.381 . S
C414 C415 1.394 . S
C414 H422 0.930 . S
C415 C414 1.394 . S
C415 C416 1.383 . S
C415 H423 0.929 . S
C416 C415 1.383 . S
C416 C417 1.377 . S
C417 H401 0.930 . S
C417 C416 1.377 . S
C417 C418 1.379 . S
C418 H402 0.931 . S
C418 C412 1.383 . S
C418 C417 1.379 . S
H419 C413 0.959 . S
H420 C413 0.961 . S
H421 C413 0.960 . S
H422 C414 0.930 . S
H423 C415 0.929 . S
H424 C432 0.929 . S
H425 C434 0.930 . S
H426 C436 0.930 . S
H427 C439 0.929 . S
H428 C442 0.930 . S
H429 C444 0.960 . S
H430 C444 0.960 . S
H431 C444 0.960 . S
C432 H424 0.929 . S
C432 C433 1.377 . S
C432 C434 1.384 . S
C433 C432 1.377 . S
C433 C439 1.390 . S
C434 H425 0.930 . S
C434 C432 1.384 . S
C434 C435 1.372 . S
C435 C434 1.372 . S
C435 C436 1.400 . S
C435 C440 1.490 . S
C436 H426 0.930 . S
C436 C435 1.400 . S
C436 C439 1.386 . S
H437 C453 0.930 . S
H438 C454 0.931 . S
C439 H427 0.929 . S
C439 C433 1.390 . S
C439 C436 1.386 . S
C440 C435 1.490 . S
C440 C442 1.395 . S
C440 C443 1.403 . S
H441 C447 0.930 . S
C442 H428 0.930 . S
C442 C440 1.395 . S
C442 C445 1.403 . S
C443 C440 1.403 . S
C443 C444 1.524 . S
C443 C447 1.400 . S
C444 H429 0.960 . S
C444 H430 0.960 . S
C444 H431 0.960 . S
C444 C443 1.524 . S
C445 C442 1.403 . S
C445 C446 1.392 . S
C445 C449 1.495 . S
C446 C445 1.392 . S
C446 C447 1.385 . S
C446 C448 1.478 . S
C447 H441 0.930 . S
C447 C443 1.400 . S
C447 C446 1.385 . S
C448 C446 1.478 . S
C448 C450 1.381 . S
C448 C454 1.383 . S
C449 C445 1.495 . S
C449 H455 0.959 . S
C449 H456 0.961 . S
C449 H457 0.960 . S
C450 C448 1.381 . S
C450 C451 1.394 . S
C450 H458 0.930 . S
C451 C450 1.394 . S
C451 C452 1.383 . S
C451 H459 0.929 . S
C452 C451 1.383 . S
C452 C453 1.377 . S
C453 H437 0.930 . S
C453 C452 1.377 . S
C453 C454 1.379 . S
C454 H438 0.931 . S
C454 C448 1.383 . S
C454 C453 1.379 . S
H455 C449 0.959 . S
H456 C449 0.961 . S
H457 C449 0.960 . S
H458 C450 0.930 . S
H459 C451 0.929 . S
H460 C468 0.929 . S
H461 C470 0.930 . S
H462 C472 0.930 . S
H463 C475 0.929 . S
H464 C478 0.930 . S
H465 C480 0.960 . S
H466 C480 0.960 . S
H467 C480 0.960 . S
C468 H460 0.929 . S
C468 C469 1.377 . S
C468 C470 1.384 . S
C469 C468 1.377 . S
C469 C475 1.390 . S
C470 H461 0.930 . S
C470 C468 1.384 . S
C470 C471 1.372 . S
C471 C470 1.372 . S
C471 C472 1.400 . S
C471 C476 1.490 . S
C472 H462 0.930 . S
C472 C471 1.400 . S
C472 C475 1.386 . S
H473 C489 0.930 . S
H474 C490 0.931 . S
C475 H463 0.929 . S
C475 C469 1.390 . S
C475 C472 1.386 . S
C476 C471 1.490 . S
C476 C478 1.395 . S
C476 C479 1.403 . S
H477 C483 0.930 . S
C478 H464 0.930 . S
C478 C476 1.395 . S
C478 C481 1.403 . S
C479 C476 1.403 . S
C479 C480 1.524 . S
C479 C483 1.400 . S
C480 H465 0.960 . S
C480 H466 0.960 . S
C480 H467 0.960 . S
C480 C479 1.524 . S
C481 C478 1.403 . S
C481 C482 1.392 . S
C481 C485 1.495 . S
C482 C481 1.392 . S
C482 C483 1.385 . S
C482 C484 1.478 . S
C483 H477 0.930 . S
C483 C479 1.400 . S
C483 C482 1.385 . S
C484 C482 1.478 . S
C484 C486 1.381 . S
C484 C490 1.383 . S
C485 C481 1.495 . S
C485 H491 0.959 . S
C485 H492 0.961 . S
C485 H493 0.960 . S
C486 C484 1.381 . S
C486 C487 1.394 . S
C486 H494 0.930 . S
C487 C486 1.394 . S
C487 C488 1.383 . S
C487 H495 0.929 . S
C488 C487 1.383 . S
C488 C489 1.377 . S
C489 H473 0.930 . S
C489 C488 1.377 . S
C489 C490 1.379 . S
C490 H474 0.931 . S
C490 C484 1.383 . S
C490 C489 1.379 . S
H491 C485 0.959 . S
H492 C485 0.961 . S
H493 C485 0.960 . S
H494 C486 0.930 . S
H495 C487 0.929 . S
H496 C504 0.929 . S
H497 C506 0.930 . S
H498 C508 0.930 . S
H499 C511 0.929 . S
H500 C514 0.930 . S
H501 C516 0.960 . S
H502 C516 0.960 . S
H503 C516 0.960 . S
C504 H496 0.929 . S
C504 C505 1.377 . S
C504 C506 1.384 . S
C505 C504 1.377 . S
C505 C511 1.390 . S
C506 H497 0.930 . S
C506 C504 1.384 . S
C506 C507 1.372 . S
C507 C506 1.372 . S
C507 C508 1.400 . S
C507 C512 1.490 . S
C508 H498 0.930 . S
C508 C507 1.400 . S
C508 C511 1.386 . S
H509 C525 0.930 . S
H510 C526 0.931 . S
C511 H499 0.929 . S
C511 C505 1.390 . S
C511 C508 1.386 . S
C512 C507 1.490 . S
C512 C514 1.395 . S
C512 C515 1.403 . S
H513 C519 0.930 . S
C514 H500 0.930 . S
C514 C512 1.395 . S
C514 C517 1.403 . S
C515 C512 1.403 . S
C515 C516 1.524 . S
C515 C519 1.400 . S
C516 H501 0.960 . S
C516 H502 0.960 . S
C516 H503 0.960 . S
C516 C515 1.524 . S
C517 C514 1.403 . S
C517 C518 1.392 . S
C517 C521 1.495 . S
C518 C517 1.392 . S
C518 C519 1.385 . S
C518 C520 1.478 . S
C519 H513 0.930 . S
C519 C515 1.400 . S
C519 C518 1.385 . S
C520 C518 1.478 . S
C520 C522 1.381 . S
C520 C526 1.383 . S
C521 C517 1.495 . S
C521 H527 0.959 . S
C521 H528 0.961 . S
C521 H529 0.960 . S
C522 C520 1.381 . S
C522 C523 1.394 . S
C522 H530 0.930 . S
C523 C522 1.394 . S
C523 C524 1.383 . S
C523 H531 0.929 . S
C524 C523 1.383 . S
C524 C525 1.377 . S
C525 H509 0.930 . S
C525 C524 1.377 . S
C525 C526 1.379 . S
C526 H510 0.931 . S
C526 C520 1.383 . S
C526 C525 1.379 . S
H527 C521 0.959 . S
H528 C521 0.961 . S
H529 C521 0.960 . S
H530 C522 0.930 . S
H531 C523 0.929 . S
H532 C540 0.929 . S
H533 C542 0.930 . S
H534 C544 0.930 . S
H535 C547 0.929 . S
H536 C550 0.930 . S
H537 C552 0.960 . S
H538 C552 0.960 . S
H539 C552 0.960 . S
C540 H532 0.929 . S
C540 C541 1.377 . S
C540 C542 1.384 . S
C541 C540 1.377 . S
C541 C547 1.390 . S
C542 H533 0.930 . S
C542 C540 1.384 . S
C542 C543 1.372 . S
C543 C542 1.372 . S
C543 C544 1.400 . S
C543 C548 1.490 . S
C544 H534 0.930 . S
C544 C543 1.400 . S
C544 C547 1.386 . S
H545 C561 0.930 . S
H546 C562 0.931 . S
C547 H535 0.929 . S
C547 C541 1.390 . S
C547 C544 1.386 . S
C548 C543 1.490 . S
C548 C550 1.395 . S
C548 C551 1.403 . S
H549 C555 0.930 . S
C550 H536 0.930 . S
C550 C548 1.395 . S
C550 C553 1.403 . S
C551 C548 1.403 . S
C551 C552 1.524 . S
C551 C555 1.400 . S
C552 H537 0.960 . S
C552 H538 0.960 . S
C552 H539 0.960 . S
C552 C551 1.524 . S
C553 C550 1.403 . S
C553 C554 1.392 . S
C553 C557 1.495 . S
C554 C553 1.392 . S
C554 C555 1.385 . S
C554 C556 1.478 . S
C555 H549 0.930 . S
C555 C551 1.400 . S
C555 C554 1.385 . S
C556 C554 1.478 . S
C556 C558 1.381 . S
C556 C562 1.383 . S
C557 C553 1.495 . S
C557 H563 0.959 . S
C557 H564 0.961 . S
C557 H565 0.960 . S
C558 C556 1.381 . S
C558 C559 1.394 . S
C558 H566 0.930 . S
C559 C558 1.394 . S
C559 C560 1.383 . S
C559 H567 0.929 . S
C560 C559 1.383 . S
C560 C561 1.377 . S
C561 H545 0.930 . S
C561 C560 1.377 . S
C561 C562 1.379 . S
C562 H546 0.931 . S
C562 C556 1.383 . S
C562 C561 1.379 . S
H563 C557 0.959 . S
H564 C557 0.961 . S
H565 C557 0.960 . S
H566 C558 0.930 . S
H567 C559 0.929 . S
H568 C576 0.929 . S
H569 C578 0.930 . S
H570 C580 0.930 . S
H571 C583 0.929 . S
H572 C586 0.930 . S
H573 C588 0.960 . S
H574 C588 0.960 . S
H575 C588 0.960 . S
C576 H568 0.929 . S
C576 C577 1.377 . S
C576 C578 1.384 . S
C577 C576 1.377 . S
C577 C583 1.390 . S
C578 H569 0.930 . S
C578 C576 1.384 . S
C578 C579 1.372 . S
C579 C578 1.372 . S
C579 C580 1.400 . S
C579 C584 1.490 . S
C580 H570 0.930 . S
C580 C579 1.400 . S
C580 C583 1.386 . S
H581 C597 0.930 . S
H582 C598 0.931 . S
C583 H571 0.929 . S
C583 C577 1.390 . S
C583 C580 1.386 . S
C584 C579 1.490 . S
C584 C586 1.395 . S
C584 C587 1.403 . S
H585 C591 0.930 . S
C586 H572 0.930 . S
C586 C584 1.395 . S
C586 C589 1.403 . S
C587 C584 1.403 . S
C587 C588 1.524 . S
C587 C591 1.400 . S
C588 H573 0.960 . S
C588 H574 0.960 . S
C588 H575 0.960 . S
C588 C587 1.524 . S
C589 C586 1.403 . S
C589 C590 1.392 . S
C589 C593 1.495 . S
C590 C589 1.392 . S
C590 C591 1.385 . S
C590 C592 1.478 . S
C591 H585 0.930 . S
C591 C587 1.400 . S
C591 C590 1.385 . S
C592 C590 1.478 . S
C592 C594 1.381 . S
C592 C598 1.383 . S
C593 C589 1.495 . S
C593 H599 0.959 . S
C593 H600 0.961 . S
C593 H601 0.960 . S
C594 C592 1.381 . S
C594 C595 1.394 . S
C594 H602 0.930 . S
C595 C594 1.394 . S
C595 C596 1.383 . S
C595 H603 0.929 . S
C596 C595 1.383 . S
C596 C597 1.377 . S
C597 H581 0.930 . S
C597 C596 1.377 . S
C597 C598 1.379 . S
C598 H582 0.931 . S
C598 C592 1.383 . S
C598 C597 1.379 . S
H599 C593 0.959 . S
H600 C593 0.961 . S
H601 C593 0.960 . S
H602 C594 0.930 . S
H603 C595 0.929 . S
H604 C612 0.929 . S
H605 C614 0.930 . S
H606 C616 0.930 . S
H607 C619 0.929 . S
H608 C622 0.930 . S
H609 C624 0.960 . S
H610 C624 0.960 . S
H611 C624 0.960 . S
C612 H604 0.929 . S
C612 C613 1.377 . S
C612 C614 1.384 . S
C613 C612 1.377 . S
C613 C619 1.390 . S
C614 H605 0.930 . S
C614 C612 1.384 . S
C614 C615 1.372 . S
C615 C614 1.372 . S
C615 C616 1.400 . S
C615 C620 1.490 . S
C616 H606 0.930 . S
C616 C615 1.400 . S
C616 C619 1.386 . S
H617 C633 0.930 . S
H618 C634 0.931 . S
C619 H607 0.929 . S
C619 C613 1.390 . S
C619 C616 1.386 . S
C620 C615 1.490 . S
C620 C622 1.395 . S
C620 C623 1.403 . S
H621 C627 0.930 . S
C622 H608 0.930 . S
C622 C620 1.395 . S
C622 C625 1.403 . S
C623 C620 1.403 . S
C623 C624 1.524 . S
C623 C627 1.400 . S
C624 H609 0.960 . S
C624 H610 0.960 . S
C624 H611 0.960 . S
C624 C623 1.524 . S
C625 C622 1.403 . S
C625 C626 1.392 . S
C625 C629 1.495 . S
C626 C625 1.392 . S
C626 C627 1.385 . S
C626 C628 1.478 . S
C627 H621 0.930 . S
C627 C623 1.400 . S
C627 C626 1.385 . S
C628 C626 1.478 . S
C628 C630 1.381 . S
C628 C634 1.383 . S
C629 C625 1.495 . S
C629 H635 0.959 . S
C629 H636 0.961 . S
C629 H637 0.960 . S
C630 C628 1.381 . S
C630 C631 1.394 . S
C630 H638 0.930 . S
C631 C630 1.394 . S
C631 C632 1.383 . S
C631 H639 0.929 . S
C632 C631 1.383 . S
C632 C633 1.377 . S
C633 H617 0.930 . S
C633 C632 1.377 . S
C633 C634 1.379 . S
C634 H618 0.931 . S
C634 C628 1.383 . S
C634 C633 1.379 . S
H635 C629 0.959 . S
H636 C629 0.961 . S
H637 C629 0.960 . S
H638 C630 0.930 . S
H639 C631 0.929 . S
H640 C648 0.929 . S
H641 C650 0.930 . S
H642 C652 0.930 . S
H643 C655 0.929 . S
H644 C658 0.930 . S
H645 C660 0.960 . S
H646 C660 0.960 . S
H647 C660 0.960 . S
C648 H640 0.929 . S
C648 C649 1.377 . S
C648 C650 1.384 . S
C649 C648 1.377 . S
C649 C655 1.390 . S
C650 H641 0.930 . S
C650 C648 1.384 . S
C650 C651 1.372 . S
C651 C650 1.372 . S
C651 C652 1.400 . S
C651 C656 1.490 . S
C652 H642 0.930 . S
C652 C651 1.400 . S
C652 C655 1.386 . S
H653 C669 0.930 . S
H654 C670 0.931 . S
C655 H643 0.929 . S
C655 C649 1.390 . S
C655 C652 1.386 . S
C656 C651 1.490 . S
C656 C658 1.395 . S
C656 C659 1.403 . S
H657 C663 0.930 . S
C658 H644 0.930 . S
C658 C656 1.395 . S
C658 C661 1.403 . S
C659 C656 1.403 . S
C659 C660 1.524 . S
C659 C663 1.400 . S
C660 H645 0.960 . S
C660 H646 0.960 . S
C660 H647 0.960 . S
C660 C659 1.524 . S
C661 C658 1.403 . S
C661 C662 1.392 . S
C661 C665 1.495 . S
C662 C661 1.392 . S
C662 C663 1.385 . S
C662 C664 1.478 . S
C663 H657 0.930 . S
C663 C659 1.400 . S
C663 C662 1.385 . S
C664 C662 1.478 . S
C664 C666 1.381 . S
C664 C670 1.383 . S
C665 C661 1.495 . S
C665 H671 0.959 . S
C665 H672 0.961 . S
C665 H673 0.960 . S
C666 C664 1.381 . S
C666 C667 1.394 . S
C666 H674 0.930 . S
C667 C666 1.394 . S
C667 C668 1.383 . S
C667 H675 0.929 . S
C668 C667 1.383 . S
C668 C669 1.377 . S
C669 H653 0.930 . S
C669 C668 1.377 . S
C669 C670 1.379 . S
C670 H654 0.931 . S
C670 C664 1.383 . S
C670 C669 1.379 . S
H671 C665 0.959 . S
H672 C665 0.961 . S
H673 C665 0.960 . S
H674 C666 0.930 . S
H675 C667 0.929 . S
H676 C684 0.929 . S
H677 C686 0.930 . S
H678 C688 0.930 . S
H679 C691 0.929 . S
H680 C694 0.930 . S
H681 C696 0.960 . S
H682 C696 0.960 . S
H683 C696 0.960 . S
C684 H676 0.929 . S
C684 C685 1.377 . S
C684 C686 1.384 . S
C685 C684 1.377 . S
C685 C691 1.390 . S
C686 H677 0.930 . S
C686 C684 1.384 . S
C686 C687 1.372 . S
C687 C686 1.372 . S
C687 C688 1.400 . S
C687 C692 1.490 . S
C688 H678 0.930 . S
C688 C687 1.400 . S
C688 C691 1.386 . S
H689 C705 0.930 . S
H690 C706 0.931 . S
C691 H679 0.929 . S
C691 C685 1.390 . S
C691 C688 1.386 . S
C692 C687 1.490 . S
C692 C694 1.395 . S
C692 C695 1.403 . S
H693 C699 0.930 . S
C694 H680 0.930 . S
C694 C692 1.395 . S
C694 C697 1.403 . S
C695 C692 1.403 . S
C695 C696 1.524 . S
C695 C699 1.400 . S
C696 H681 0.960 . S
C696 H682 0.960 . S
C696 H683 0.960 . S
C696 C695 1.524 . S
C697 C694 1.403 . S
C697 C698 1.392 . S
C697 C701 1.495 . S
C698 C697 1.392 . S
C698 C699 1.385 . S
C698 C700 1.478 . S
C699 H693 0.930 . S
C699 C695 1.400 . S
C699 C698 1.385 . S
C700 C698 1.478 . S
C700 C702 1.381 . S
C700 C706 1.383 . S
C701 C697 1.495 . S
C701 H707 0.959 . S
C701 H708 0.961 . S
C701 H709 0.960 . S
C702 C700 1.381 . S
C702 C703 1.394 . S
C702 H710 0.930 . S
C703 C702 1.394 . S
C703 C704 1.383 . S
C703 H711 0.929 . S
C704 C703 1.383 . S
C704 C705 1.377 . S
C705 H689 0.930 . S
C705 C704 1.377 . S
C705 C706 1.379 . S
C706 H690 0.931 . S
C706 C700 1.383 . S
C706 C705 1.379 . S
H707 C701 0.959 . S
H708 C701 0.961 . S
H709 C701 0.960 . S
H710 C702 0.930 . S
H711 C703 0.929 . S
H712 C720 0.929 . S
H713 C722 0.930 . S
H714 C724 0.930 . S
H715 C727 0.929 . S
H716 C730 0.930 . S
H717 C732 0.960 . S
H718 C732 0.960 . S
H719 C732 0.960 . S
C720 H712 0.929 . S
C720 C721 1.377 . S
C720 C722 1.384 . S
C721 C720 1.377 . S
C721 C727 1.390 . S
C722 H713 0.930 . S
C722 C720 1.384 . S
C722 C723 1.372 . S
C723 C722 1.372 . S
C723 C724 1.400 . S
C723 C728 1.490 . S
C724 H714 0.930 . S
C724 C723 1.400 . S
C724 C727 1.386 . S
H725 C741 0.930 . S
H726 C742 0.931 . S
C727 H715 0.929 . S
C727 C721 1.390 . S
C727 C724 1.386 . S
C728 C723 1.490 . S
C728 C730 1.395 . S
C728 C731 1.403 . S
H729 C735 0.930 . S
C730 H716 0.930 . S
C730 C728 1.395 . S
C730 C733 1.403 . S
C731 C728 1.403 . S
C731 C732 1.524 . S
C731 C735 1.400 . S
C732 H717 0.960 . S
C732 H718 0.960 . S
C732 H719 0.960 . S
C732 C731 1.524 . S
C733 C730 1.403 . S
C733 C734 1.392 . S
C733 C737 1.495 . S
C734 C733 1.392 . S
C734 C735 1.385 . S
C734 C736 1.478 . S
C735 H729 0.930 . S
C735 C731 1.400 . S
C735 C734 1.385 . S
C736 C734 1.478 . S
C736 C738 1.381 . S
C736 C742 1.383 . S
C737 C733 1.495 . S
C737 H743 0.959 . S
C737 H744 0.961 . S
C737 H745 0.960 . S
C738 C736 1.381 . S
C738 C739 1.394 . S
C738 H746 0.930 . S
C739 C738 1.394 . S
C739 C740 1.383 . S
C739 H747 0.929 . S
C740 C739 1.383 . S
C740 C741 1.377 . S
C741 H725 0.930 . S
C741 C740 1.377 . S
C741 C742 1.379 . S
C742 H726 0.931 . S
C742 C736 1.383 . S
C742 C741 1.379 . S
H743 C737 0.959 . S
H744 C737 0.961 . S
H745 C737 0.960 . S
H746 C738 0.930 . S
H747 C739 0.929 . S
H748 C756 0.929 . S
H749 C758 0.930 . S
H750 C760 0.930 . S
H751 C763 0.929 . S
H752 C766 0.930 . S
H753 C768 0.960 . S
H754 C768 0.960 . S
H755 C768 0.960 . S
C756 H748 0.929 . S
C756 C757 1.377 . S
C756 C758 1.384 . S
C757 C756 1.377 . S
C757 C763 1.390 . S
C758 H749 0.930 . S
C758 C756 1.384 . S
C758 C759 1.372 . S
C759 C758 1.372 . S
C759 C760 1.400 . S
C759 C764 1.490 . S
C760 H750 0.930 . S
C760 C759 1.400 . S
C760 C763 1.386 . S
H761 C777 0.930 . S
H762 C778 0.931 . S
C763 H751 0.929 . S
C763 C757 1.390 . S
C763 C760 1.386 . S
C764 C759 1.490 . S
C764 C766 1.395 . S
C764 C767 1.403 . S
H765 C771 0.930 . S
C766 H752 0.930 . S
C766 C764 1.395 . S
C766 C769 1.403 . S
C767 C764 1.403 . S
C767 C768 1.524 . S
C767 C771 1.400 . S
C768 H753 0.960 . S
C768 H754 0.960 . S
C768 H755 0.960 . S
C768 C767 1.524 . S
C769 C766 1.403 . S
C769 C770 1.392 . S
C769 C773 1.495 . S
C770 C769 1.392 . S
C770 C771 1.385 . S
C770 C772 1.478 . S
C771 H765 0.930 . S
C771 C767 1.400 . S
C771 C770 1.385 . S
C772 C770 1.478 . S
C772 C774 1.381 . S
C772 C778 1.383 . S
C773 C769 1.495 . S
C773 H779 0.959 . S
C773 H780 0.961 . S
C773 H781 0.960 . S
C774 C772 1.381 . S
C774 C775 1.394 . S
C774 H782 0.930 . S
C775 C774 1.394 . S
C775 C776 1.383 . S
C775 H783 0.929 . S
C776 C775 1.383 . S
C776 C777 1.377 . S
C777 H761 0.930 . S
C777 C776 1.377 . S
C777 C778 1.379 . S
C778 H762 0.931 . S
C778 C772 1.383 . S
C778 C777 1.379 . S
H779 C773 0.959 . S
H780 C773 0.961 . S
H781 C773 0.960 . S
H782 C774 0.930 . S
H783 C775 0.929 . S
H784 C792 0.929 . S
H785 C794 0.930 . S
H786 C796 0.930 1_554 S
H787 C799 0.929 . S
H788 C802 0.930 . S
H789 C804 0.960 . S
H790 C804 0.960 1_556 S
H791 C804 0.960 . S
C792 H784 0.929 . S
C792 C793 1.377 . S
C792 C794 1.384 . S
C793 C792 1.377 . S
C793 C799 1.390 . S
C794 H785 0.930 . S
C794 C792 1.384 . S
C794 C795 1.372 . S
C795 C794 1.372 . S
C795 C796 1.400 . S
C795 C800 1.490 . S
C796 H786 0.930 1_556 S
C796 C795 1.400 . S
C796 C799 1.386 . S
H797 C813 0.930 . S
H798 C814 0.931 . S
C799 H787 0.929 . S
C799 C793 1.390 . S
C799 C796 1.386 . S
C800 C795 1.490 . S
C800 C802 1.395 . S
C800 C803 1.403 1_556 S
H801 C807 0.930 . S
C802 H788 0.930 . S
C802 C800 1.395 . S
C802 C805 1.403 . S
C803 C800 1.403 1_554 S
C803 C804 1.524 . S
C803 C807 1.400 . S
C804 H789 0.960 . S
C804 H790 0.960 1_554 S
C804 H791 0.960 . S
C804 C803 1.524 . S
C805 C802 1.403 . S
C805 C806 1.392 1_556 S
C805 C809 1.495 . S
C806 C805 1.392 1_554 S
C806 C807 1.385 . S
C806 C808 1.478 . S
C807 H801 0.930 . S
C807 C803 1.400 . S
C807 C806 1.385 . S
C808 C806 1.478 . S
C808 C810 1.381 . S
C808 C814 1.383 . S
C809 C805 1.495 . S
C809 H815 0.959 . S
C809 H816 0.961 . S
C809 H817 0.960 . S
C810 C808 1.381 . S
C810 C811 1.394 . S
C810 H818 0.930 1_554 S
C811 C810 1.394 . S
C811 C812 1.383 . S
C811 H819 0.929 . S
C812 C811 1.383 . S
C812 C813 1.377 . S
C813 H797 0.930 . S
C813 C812 1.377 . S
C813 C814 1.379 . S
C814 H798 0.931 . S
C814 C808 1.383 . S
C814 C813 1.379 . S
H815 C809 0.959 . S
H816 C809 0.961 . S
H817 C809 0.960 . S
H818 C810 0.930 1_556 S
H819 C811 0.929 . S
H820 C828 0.929 . S
H821 C830 0.930 . S
H822 C832 0.930 . S
H823 C835 0.929 . S
H824 C838 0.930 . S
H825 C840 0.960 . S
H826 C840 0.960 . S
H827 C840 0.960 . S
C828 H820 0.929 . S
C828 C829 1.377 . S
C828 C830 1.384 . S
C829 C828 1.377 . S
C829 C835 1.390 . S
C830 H821 0.930 . S
C830 C828 1.384 . S
C830 C831 1.372 . S
C831 C830 1.372 . S
C831 C832 1.400 . S
C831 C836 1.490 . S
C832 H822 0.930 . S
C832 C831 1.400 . S
C832 C835 1.386 . S
H833 C849 0.930 . S
H834 C850 0.931 . S
C835 H823 0.929 . S
C835 C829 1.390 . S
C835 C832 1.386 . S
C836 C831 1.490 . S
C836 C838 1.395 . S
C836 C839 1.403 . S
H837 C843 0.930 . S
C838 H824 0.930 . S
C838 C836 1.395 . S
C838 C841 1.403 . S
C839 C836 1.403 . S
C839 C840 1.524 . S
C839 C843 1.400 . S
C840 H825 0.960 . S
C840 H826 0.960 . S
C840 H827 0.960 . S
C840 C839 1.524 . S
C841 C838 1.403 . S
C841 C842 1.392 . S
C841 C845 1.495 . S
C842 C841 1.392 . S
C842 C843 1.385 . S
C842 C844 1.478 . S
C843 H837 0.930 . S
C843 C839 1.400 . S
C843 C842 1.385 . S
C844 C842 1.478 . S
C844 C846 1.381 . S
C844 C850 1.383 . S
C845 C841 1.495 . S
C845 H851 0.959 . S
C845 H852 0.961 . S
C845 H853 0.960 . S
C846 C844 1.381 . S
C846 C847 1.394 . S
C846 H854 0.930 . S
C847 C846 1.394 . S
C847 C848 1.383 . S
C847 H855 0.929 . S
C848 C847 1.383 . S
C848 C849 1.377 . S
C849 H833 0.930 . S
C849 C848 1.377 . S
C849 C850 1.379 . S
C850 H834 0.931 . S
C850 C844 1.383 . S
C850 C849 1.379 . S
H851 C845 0.959 . S
H852 C845 0.961 . S
H853 C845 0.960 . S
H854 C846 0.930 . S
H855 C847 0.929 . S
H856 C864 0.929 . S
H857 C866 0.930 . S
H858 C868 0.930 . S
H859 C871 0.929 . S
H860 C874 0.930 . S
H861 C876 0.960 . S
H862 C876 0.960 . S
H863 C876 0.960 . S
C864 H856 0.929 . S
C864 C865 1.377 . S
C864 C866 1.384 . S
C865 C864 1.377 . S
C865 C871 1.390 . S
C866 H857 0.930 . S
C866 C864 1.384 . S
C866 C867 1.372 . S
C867 C866 1.372 . S
C867 C868 1.400 . S
C867 C872 1.490 . S
C868 H858 0.930 . S
C868 C867 1.400 . S
C868 C871 1.386 . S
H869 C885 0.930 . S
H870 C886 0.931 . S
C871 H859 0.929 . S
C871 C865 1.390 . S
C871 C868 1.386 . S
C872 C867 1.490 . S
C872 C874 1.395 . S
C872 C875 1.403 1_554 S
H873 C879 0.930 . S
C874 H860 0.930 . S
C874 C872 1.395 . S
C874 C877 1.403 . S
C875 C872 1.403 1_556 S
C875 C876 1.524 . S
C875 C879 1.400 . S
C876 H861 0.960 . S
C876 H862 0.960 . S
C876 H863 0.960 . S
C876 C875 1.524 . S
C877 C874 1.403 . S
C877 C878 1.392 1_554 S
C877 C881 1.495 . S
C878 C877 1.392 1_556 S
C878 C879 1.385 . S
C878 C880 1.478 . S
C879 H873 0.930 . S
C879 C875 1.400 . S
C879 C878 1.385 . S
C880 C878 1.478 . S
C880 C882 1.381 . S
C880 C886 1.383 . S
C881 C877 1.495 . S
C881 H887 0.959 . S
C881 H888 0.961 . S
C881 H889 0.990 . S
C882 C880 1.381 . S
C882 C883 1.394 . S
C882 H890 0.930 . S
C883 C882 1.394 . S
C883 C884 1.383 . S
C883 H891 0.929 . S
C884 C883 1.383 . S
C884 C885 1.377 . S
C885 H869 0.930 . S
C885 C884 1.377 . S
C885 C886 1.379 . S
C886 H870 0.931 . S
C886 C880 1.383 . S
C886 C885 1.379 . S
H887 C881 0.959 . S
H888 C881 0.961 . S
H889 C881 0.990 . S
H890 C882 0.930 . S
H891 C883 0.929 . S
H892 C900 0.929 . S
H893 C902 0.930 . S
H894 C904 0.930 . S
H895 C907 0.929 . S
H896 C910 0.930 . S
H897 C912 0.960 . S
H898 C912 0.960 . S
H899 C912 0.960 . S
C900 H892 0.929 . S
C900 C901 1.377 . S
C900 C902 1.384 . S
C901 C900 1.377 . S
C901 C907 1.390 . S
C902 H893 0.930 . S
C902 C900 1.384 . S
C902 C903 1.372 . S
C903 C902 1.372 . S
C903 C904 1.400 . S
C903 C908 1.490 . S
C904 H894 0.930 . S
C904 C903 1.400 . S
C904 C907 1.386 . S
H905 C921 0.930 . S
H906 C922 0.931 . S
C907 H895 0.929 . S
C907 C901 1.390 . S
C907 C904 1.386 . S
C908 C903 1.490 . S
C908 C910 1.395 . S
C908 C911 1.403 . S
H909 C915 0.930 . S
C910 H896 0.930 . S
C910 C908 1.395 . S
C910 C913 1.403 . S
C911 C908 1.403 . S
C911 C912 1.524 . S
C911 C915 1.400 . S
C912 H897 0.960 . S
C912 H898 0.960 . S
C912 H899 0.960 . S
C912 C911 1.524 . S
C913 C910 1.403 . S
C913 C914 1.392 . S
C913 C917 1.495 . S
C914 C913 1.392 . S
C914 C915 1.385 . S
C914 C916 1.478 . S
C915 H909 0.930 . S
C915 C911 1.400 . S
C915 C914 1.385 . S
C916 C914 1.478 . S
C916 C918 1.381 . S
C916 C922 1.383 . S
C917 C913 1.495 . S
C917 H923 0.959 . S
C917 H924 0.961 . S
C917 H925 0.960 . S
C918 C916 1.381 . S
C918 C919 1.394 . S
C918 H926 0.930 . S
C919 C918 1.394 . S
C919 C920 1.383 . S
C919 H927 0.929 . S
C920 C919 1.383 . S
C920 C921 1.377 . S
C921 H905 0.930 . S
C921 C920 1.377 . S
C921 C922 1.379 . S
C922 H906 0.931 . S
C922 C916 1.383 . S
C922 C921 1.379 . S
H923 C917 0.959 . S
H924 C917 0.961 . S
H925 C917 0.960 . S
H926 C918 0.930 . S
H927 C919 0.929 . S
H928 C936 0.929 . S
H929 C938 0.930 . S
H930 C940 0.930 . S
H931 C943 0.929 . S
H932 C946 0.930 . S
H933 C948 0.960 . S
H934 C948 0.960 . S
H935 C948 0.960 . S
C936 H928 0.929 . S
C936 C937 1.377 . S
C936 C938 1.384 . S
C937 C936 1.377 . S
C937 C943 1.390 . S
C938 H929 0.930 . S
C938 C936 1.384 . S
C938 C939 1.372 . S
C939 C938 1.372 . S
C939 C940 1.400 . S
C939 C944 1.490 . S
C940 H930 0.930 . S
C940 C939 1.400 . S
C940 C943 1.386 . S
H941 C957 0.930 . S
H942 C958 0.931 . S
C943 H931 0.929 . S
C943 C937 1.390 . S
C943 C940 1.386 . S
C944 C939 1.490 . S
C944 C946 1.395 1_554 S
C944 C947 1.403 . S
H945 C951 0.930 . S
C946 H932 0.930 . S
C946 C944 1.395 1_556 S
C946 C949 1.403 . S
C947 C944 1.403 . S
C947 C948 1.524 . S
C947 C951 1.400 . S
C948 H933 0.960 . S
C948 H934 0.960 . S
C948 H935 0.960 . S
C948 C947 1.524 . S
C949 C946 1.403 . S
C949 C950 1.392 . S
C949 C953 1.495 . S
C950 C949 1.392 . S
C950 C951 1.385 1_556 S
C950 C952 1.478 . S
C951 H945 0.930 . S
C951 C947 1.400 . S
C951 C950 1.385 1_554 S
C952 C950 1.478 . S
C952 C954 1.381 . S
C952 C958 1.383 . S
C953 C949 1.495 . S
C953 H959 0.959 . S
C953 H960 0.961 . S
C953 H961 0.960 . S
C954 C952 1.381 . S
C954 C955 1.394 . S
C954 H962 0.930 . S
C955 C954 1.394 . S
C955 C956 1.383 . S
C955 H963 0.929 . S
C956 C955 1.383 . S
C956 C957 1.377 . S
C957 H941 0.930 . S
C957 C956 1.377 . S
C957 C958 1.379 . S
C958 H942 0.931 . S
C958 C952 1.383 . S
C958 C957 1.379 . S
H959 C953 0.959 . S
H960 C953 0.961 . S
H961 C953 0.960 . S
H962 C954 0.930 . S
H963 C955 0.929 . S
H964 C972 0.929 . S
H965 C974 0.930 . S
H966 C976 0.930 . S
H967 C979 0.929 . S
H968 C982 0.930 . S
H969 C984 0.960 . S
H970 C984 0.960 . S
H971 C984 0.960 . S
C972 H964 0.929 . S
C972 C973 1.377 . S
C972 C974 1.384 . S
C973 C972 1.377 . S
C973 C979 1.390 . S
C974 H965 0.930 . S
C974 C972 1.384 . S
C974 C975 1.372 . S
C975 C974 1.372 . S
C975 C976 1.400 . S
C975 C980 1.490 . S
C976 H966 0.930 . S
C976 C975 1.400 . S
C976 C979 1.386 . S
H977 C993 0.930 . S
H978 C994 0.931 . S
C979 H967 0.929 . S
C979 C973 1.390 . S
C979 C976 1.386 . S
C980 C975 1.490 . S
C980 C982 1.395 . S
C980 C983 1.403 . S
H981 C987 0.930 . S
C982 H968 0.930 . S
C982 C980 1.395 . S
C982 C985 1.403 . S
C983 C980 1.403 . S
C983 C984 1.524 . S
C983 C987 1.400 . S
C984 H969 0.960 . S
C984 H970 0.960 . S
C984 H971 0.960 . S
C984 C983 1.524 . S
C985 C982 1.403 . S
C985 C986 1.392 . S
C985 C989 1.495 . S
C986 C985 1.392 . S
C986 C987 1.385 . S
C986 C988 1.478 . S
C987 H981 0.930 . S
C987 C983 1.400 . S
C987 C986 1.385 . S
C988 C986 1.478 . S
C988 C990 1.381 . S
C988 C994 1.383 . S
C989 C985 1.495 . S
C989 H995 0.959 . S
C989 H996 0.961 . S
C989 H997 0.960 . S
C990 C988 1.381 . S
C990 C991 1.394 . S
C990 H998 0.930 . S
C991 C990 1.394 . S
C991 C992 1.383 . S
C991 H999 0.929 . S
C992 C991 1.383 . S
C992 C993 1.377 . S
C993 H977 0.930 . S
C993 C992 1.377 . S
C993 C994 1.379 . S
C994 H978 0.931 . S
C994 C988 1.383 . S
C994 C993 1.379 . S
H995 C989 0.959 . S
H996 C989 0.961 . S
H997 C989 0.960 . S
H998 C990 0.930 . S
H999 C991 0.929 . S
H1000 C1008 0.929 . S
H1001 C1010 0.930 . S
H1002 C1012 0.930 1_556 S
H1003 C1015 0.929 . S
H1004 C1018 0.930 . S
H1005 C1020 0.960 . S
H1006 C1020 0.960 . S
H1007 C1020 0.964 . S
C1008 H1000 0.929 . S
C1008 C1009 1.377 . S
C1008 C1010 1.384 . S
C1009 C1008 1.377 . S
C1009 C1015 1.390 . S
C1010 H1001 0.930 . S
C1010 C1008 1.384 . S
C1010 C1011 1.372 . S
C1011 C1010 1.372 . S
C1011 C1012 1.400 . S
C1011 C1016 1.490 . S
C1012 H1002 0.930 1_554 S
C1012 C1011 1.400 . S
C1012 C1015 1.386 . S
H1013 C1029 0.930 . S
H1014 C1030 0.931 . S
C1015 H1003 0.929 . S
C1015 C1009 1.390 . S
C1015 C1012 1.386 . S
C1016 C1011 1.490 . S
C1016 C1018 1.395 . S
C1016 C1019 1.403 . S
H1017 C1023 0.930 . S
C1018 H1004 0.930 . S
C1018 C1016 1.395 . S
C1018 C1021 1.403 1_554 S
C1019 C1016 1.403 . S
C1019 C1020 1.524 . S
C1019 C1023 1.400 1_554 S
C1020 H1005 0.960 . S
C1020 H1006 0.960 . S
C1020 H1007 0.964 . S
C1020 C1019 1.524 . S
C1021 C1018 1.403 1_556 S
C1021 C1022 1.392 . S
C1021 C1025 1.495 . S
C1022 C1021 1.392 . S
C1022 C1023 1.385 . S
C1022 C1024 1.478 . S
C1023 H1017 0.930 . S
C1023 C1019 1.400 1_556 S
C1023 C1022 1.385 . S
C1024 C1022 1.478 . S
C1024 C1026 1.381 . S
C1024 C1030 1.383 . S
C1025 C1021 1.495 . S
C1025 H1031 0.943 1_556 S
C1025 H1032 0.961 . S
C1025 H1033 0.960 1_556 S
C1026 C1024 1.381 . S
C1026 C1027 1.394 . S
C1026 H1034 0.930 1_556 S
C1027 C1026 1.394 . S
C1027 C1028 1.383 . S
C1027 H1035 0.929 . S
C1028 C1027 1.383 . S
C1028 C1029 1.377 . S
C1029 H1013 0.930 . S
C1029 C1028 1.377 . S
C1029 C1030 1.379 . S
C1030 H1014 0.931 . S
C1030 C1024 1.383 . S
C1030 C1029 1.379 . S
H1031 C1025 0.943 1_554 S
H1032 C1025 0.961 . S
H1033 C1025 0.960 1_554 S
H1034 C1026 0.930 1_554 S
H1035 C1027 0.929 . S
H1036 C1044 0.929 . S
H1037 C1046 0.930 . S
H1038 C1048 0.930 . S
H1039 C1051 0.929 . S
H1040 C1054 0.930 . S
H1041 C1056 0.960 . S
H1042 C1056 0.960 . S
H1043 C1056 0.960 . S
C1044 H1036 0.929 . S
C1044 C1045 1.377 . S
C1044 C1046 1.384 . S
C1045 C1044 1.377 . S
C1045 C1051 1.390 . S
C1046 H1037 0.930 . S
C1046 C1044 1.384 . S
C1046 C1047 1.372 . S
C1047 C1046 1.372 . S
C1047 C1048 1.400 . S
C1047 C1052 1.490 . S
C1048 H1038 0.930 . S
C1048 C1047 1.400 . S
C1048 C1051 1.386 . S
H1049 C1065 0.930 . S
H1050 C1066 0.931 . S
C1051 H1039 0.929 . S
C1051 C1045 1.390 . S
C1051 C1048 1.386 . S
C1052 C1047 1.490 . S
C1052 C1054 1.395 . S
C1052 C1055 1.403 . S
H1053 C1059 0.930 . S
C1054 H1040 0.930 . S
C1054 C1052 1.395 . S
C1054 C1057 1.403 . S
C1055 C1052 1.403 . S
C1055 C1056 1.524 . S
C1055 C1059 1.400 . S
C1056 H1041 0.960 . S
C1056 H1042 0.960 . S
C1056 H1043 0.960 . S
C1056 C1055 1.524 . S
C1057 C1054 1.403 . S
C1057 C1058 1.392 . S
C1057 C1061 1.495 . S
C1058 C1057 1.392 . S
C1058 C1059 1.385 . S
C1058 C1060 1.478 . S
C1059 H1053 0.930 . S
C1059 C1055 1.400 . S
C1059 C1058 1.385 . S
C1060 C1058 1.478 . S
C1060 C1062 1.381 . S
C1060 C1066 1.383 . S
C1061 C1057 1.495 . S
C1061 H1067 0.959 . S
C1061 H1068 0.961 . S
C1061 H1069 0.960 . S
C1062 C1060 1.381 . S
C1062 C1063 1.394 . S
C1062 H1070 0.930 . S
C1063 C1062 1.394 . S
C1063 C1064 1.383 . S
C1063 H1071 0.929 . S
C1064 C1063 1.383 . S
C1064 C1065 1.377 . S
C1065 H1049 0.930 . S
C1065 C1064 1.377 . S
C1065 C1066 1.379 . S
C1066 H1050 0.931 . S
C1066 C1060 1.383 . S
C1066 C1065 1.379 . S
H1067 C1061 0.959 . S
H1068 C1061 0.961 . S
H1069 C1061 0.960 . S
H1070 C1062 0.930 . S
H1071 C1063 0.929 . S
H1072 C1080 0.929 . S
H1073 C1082 0.930 . S
H1074 C1084 0.897 1_554 S
H1075 C1087 0.929 . S
H1076 C1090 0.930 . S
H1077 C1092 0.960 . S
H1078 C1092 0.960 . S
H1079 C1092 0.960 . S
C1080 H1072 0.929 . S
C1080 C1081 1.377 . S
C1080 C1082 1.384 . S
C1081 C1080 1.377 . S
C1081 C1087 1.390 . S
C1082 H1073 0.930 . S
C1082 C1080 1.384 . S
C1082 C1083 1.372 . S
C1083 C1082 1.372 . S
C1083 C1084 1.400 . S
C1083 C1088 1.490 . S
C1084 H1074 0.897 1_556 S
C1084 C1083 1.400 . S
C1084 C1087 1.386 . S
H1085 C1101 0.930 . S
H1086 C1102 0.931 . S
C1087 H1075 0.929 . S
C1087 C1081 1.390 . S
C1087 C1084 1.386 . S
C1088 C1083 1.490 . S
C1088 C1090 1.395 . S
C1088 C1091 1.403 . S
H1089 C1095 0.930 . S
C1090 H1076 0.930 . S
C1090 C1088 1.395 . S
C1090 C1093 1.403 1_556 S
C1091 C1088 1.403 . S
C1091 C1092 1.524 . S
C1091 C1095 1.400 1_556 S
C1092 H1077 0.960 . S
C1092 H1078 0.960 . S
C1092 H1079 0.960 . S
C1092 C1091 1.524 . S
C1093 C1090 1.403 1_554 S
C1093 C1094 1.392 . S
C1093 C1097 1.495 . S
C1094 C1093 1.392 . S
C1094 C1095 1.385 . S
C1094 C1096 1.478 . S
C1095 H1089 0.930 . S
C1095 C1091 1.400 1_554 S
C1095 C1094 1.385 . S
C1096 C1094 1.478 . S
C1096 C1098 1.381 . S
C1096 C1102 1.383 . S
C1097 C1093 1.495 . S
C1097 H1103 0.973 . S
C1097 H1104 0.961 . S
C1097 H1105 0.962 . S
C1098 C1096 1.381 . S
C1098 C1099 1.394 . S
C1098 H1106 0.930 1_554 S
C1099 C1098 1.394 . S
C1099 C1100 1.383 . S
C1099 H1107 0.929 . S
C1100 C1099 1.383 . S
C1100 C1101 1.377 . S
C1101 H1085 0.930 . S
C1101 C1100 1.377 . S
C1101 C1102 1.379 . S
C1102 H1086 0.931 . S
C1102 C1096 1.383 . S
C1102 C1101 1.379 . S
H1103 C1097 0.973 . S
H1104 C1097 0.961 . S
H1105 C1097 0.962 . S
H1106 C1098 0.930 1_556 S
H1107 C1099 0.929 . S
H1108 C1116 0.929 . S
H1109 C1118 0.930 . S
H1110 C1120 0.930 . S
H1111 C1123 0.929 . S
H1112 C1126 0.930 . S
H1113 C1128 0.960 . S
H1114 C1128 0.960 . S
H1115 C1128 0.960 . S
C1116 H1108 0.929 . S
C1116 C1117 1.377 . S
C1116 C1118 1.384 . S
C1117 C1116 1.377 . S
C1117 C1123 1.390 . S
C1118 H1109 0.930 . S
C1118 C1116 1.384 . S
C1118 C1119 1.372 . S
C1119 C1118 1.372 . S
C1119 C1120 1.400 . S
C1119 C1124 1.490 . S
C1120 H1110 0.930 . S
C1120 C1119 1.400 . S
C1120 C1123 1.386 . S
H1121 C1137 0.930 . S
H1122 C1138 0.931 . S
C1123 H1111 0.929 . S
C1123 C1117 1.390 . S
C1123 C1120 1.386 . S
C1124 C1119 1.490 . S
C1124 C1126 1.395 . S
C1124 C1127 1.403 . S
H1125 C1131 0.930 . S
C1126 H1112 0.930 . S
C1126 C1124 1.395 . S
C1126 C1129 1.403 . S
C1127 C1124 1.403 . S
C1127 C1128 1.524 . S
C1127 C1131 1.400 . S
C1128 H1113 0.960 . S
C1128 H1114 0.960 . S
C1128 H1115 0.960 . S
C1128 C1127 1.524 . S
C1129 C1126 1.403 . S
C1129 C1130 1.392 . S
C1129 C1133 1.495 . S
C1130 C1129 1.392 . S
C1130 C1131 1.385 . S
C1130 C1132 1.478 . S
C1131 H1125 0.930 . S
C1131 C1127 1.400 . S
C1131 C1130 1.385 . S
C1132 C1130 1.478 . S
C1132 C1134 1.381 . S
C1132 C1138 1.383 . S
C1133 C1129 1.495 . S
C1133 H1139 0.959 . S
C1133 H1140 0.961 . S
C1133 H1141 0.960 . S
C1134 C1132 1.381 . S
C1134 C1135 1.394 . S
C1134 H1142 0.930 . S
C1135 C1134 1.394 . S
C1135 C1136 1.383 . S
C1135 H1143 0.929 . S
C1136 C1135 1.383 . S
C1136 C1137 1.377 . S
C1137 H1121 0.930 . S
C1137 C1136 1.377 . S
C1137 C1138 1.379 . S
C1138 H1122 0.931 . S
C1138 C1132 1.383 . S
C1138 C1137 1.379 . S
H1139 C1133 0.959 . S
H1140 C1133 0.961 . S
H1141 C1133 0.960 . S
H1142 C1134 0.930 . S
H1143 C1135 0.929 . S
H1144 C1152 0.929 . S
H1145 C1154 0.930 . S
H1146 C1156 0.930 . S
H1147 C1159 0.929 . S
H1148 C1162 0.930 . S
H1149 C1164 0.960 . S
H1150 C1164 0.960 . S
H1151 C1164 0.960 . S
C1152 H1144 0.929 . S
C1152 C1153 1.377 . S
C1152 C1154 1.384 . S
C1153 C1152 1.377 . S
C1153 C1159 1.390 . S
C1154 H1145 0.930 . S
C1154 C1152 1.384 . S
C1154 C1155 1.372 . S
C1155 C1154 1.372 . S
C1155 C1156 1.400 . S
C1155 C1160 1.490 . S
C1156 H1146 0.930 . S
C1156 C1155 1.400 . S
C1156 C1159 1.386 . S
H1157 C1173 0.930 . S
H1158 C1174 0.931 . S
C1159 H1147 0.929 . S
C1159 C1153 1.390 . S
C1159 C1156 1.386 . S
C1160 C1155 1.490 . S
C1160 C1162 1.395 1_554 S
C1160 C1163 1.403 . S
H1161 C1167 0.930 . S
C1162 H1148 0.930 . S
C1162 C1160 1.395 1_556 S
C1162 C1165 1.403 . S
C1163 C1160 1.403 . S
C1163 C1164 1.524 . S
C1163 C1167 1.400 . S
C1164 H1149 0.960 . S
C1164 H1150 0.960 . S
C1164 H1151 0.960 . S
C1164 C1163 1.524 . S
C1165 C1162 1.403 . S
C1165 C1166 1.392 . S
C1165 C1169 1.495 . S
C1166 C1165 1.392 . S
C1166 C1167 1.385 1_556 S
C1166 C1168 1.478 . S
C1167 H1161 0.930 . S
C1167 C1163 1.400 . S
C1167 C1166 1.385 1_554 S
C1168 C1166 1.478 . S
C1168 C1170 1.381 . S
C1168 C1174 1.383 . S
C1169 C1165 1.495 . S
C1169 H1175 0.959 . S
C1169 H1176 0.961 . S
C1169 H1177 0.960 . S
C1170 C1168 1.381 . S
C1170 C1171 1.394 . S
C1170 H1178 0.930 . S
C1171 C1170 1.394 . S
C1171 C1172 1.383 . S
C1171 H1179 0.929 . S
C1172 C1171 1.383 . S
C1172 C1173 1.377 . S
C1173 H1157 0.930 . S
C1173 C1172 1.377 . S
C1173 C1174 1.379 . S
C1174 H1158 0.931 . S
C1174 C1168 1.383 . S
C1174 C1173 1.379 . S
H1175 C1169 0.959 . S
H1176 C1169 0.961 . S
H1177 C1169 0.960 . S
H1178 C1170 0.930 . S
H1179 C1171 0.929 . S
H1180 C1188 0.929 . S
H1181 C1190 0.930 . S
H1182 C1192 0.930 . S
H1183 C1195 0.929 . S
H1184 C1198 0.930 . S
H1185 C1200 0.960 . S
H1186 C1200 0.960 . S
H1187 C1200 0.960 . S
C1188 H1180 0.929 . S
C1188 C1189 1.377 . S
C1188 C1190 1.384 . S
C1189 C1188 1.377 . S
C1189 C1195 1.390 . S
C1190 H1181 0.930 . S
C1190 C1188 1.384 . S
C1190 C1191 1.372 . S
C1191 C1190 1.372 . S
C1191 C1192 1.400 . S
C1191 C1196 1.490 . S
C1192 H1182 0.930 . S
C1192 C1191 1.400 . S
C1192 C1195 1.386 . S
H1193 C1209 0.930 . S
H1194 C1210 0.931 . S
C1195 H1183 0.929 . S
C1195 C1189 1.390 . S
C1195 C1192 1.386 . S
C1196 C1191 1.490 . S
C1196 C1198 1.395 . S
C1196 C1199 1.403 . S
H1197 C1203 0.930 . S
C1198 H1184 0.930 . S
C1198 C1196 1.395 . S
C1198 C1201 1.403 . S
C1199 C1196 1.403 . S
C1199 C1200 1.524 . S
C1199 C1203 1.400 . S
C1200 H1185 0.960 . S
C1200 H1186 0.960 . S
C1200 H1187 0.960 . S
C1200 C1199 1.524 . S
C1201 C1198 1.403 . S
C1201 C1202 1.392 . S
C1201 C1205 1.495 . S
C1202 C1201 1.392 . S
C1202 C1203 1.385 . S
C1202 C1204 1.478 . S
C1203 H1197 0.930 . S
C1203 C1199 1.400 . S
C1203 C1202 1.385 . S
C1204 C1202 1.478 . S
C1204 C1206 1.381 . S
C1204 C1210 1.383 . S
C1205 C1201 1.495 . S
C1205 H1211 0.959 . S
C1205 H1212 0.961 . S
C1205 H1213 0.960 . S
C1206 C1204 1.381 . S
C1206 C1207 1.394 . S
C1206 H1214 0.930 . S
C1207 C1206 1.394 . S
C1207 C1208 1.383 . S
C1207 H1215 0.929 . S
C1208 C1207 1.383 . S
C1208 C1209 1.377 . S
C1209 H1193 0.930 . S
C1209 C1208 1.377 . S
C1209 C1210 1.379 . S
C1210 H1194 0.931 . S
C1210 C1204 1.383 . S
C1210 C1209 1.379 . S
H1211 C1205 0.959 . S
H1212 C1205 0.961 . S
H1213 C1205 0.960 . S
H1214 C1206 0.930 . S
H1215 C1207 0.929 . S
H1216 C1224 0.929 . S
H1217 C1226 0.930 1_554 S
H1218 C1228 0.930 . S
H1219 C1231 0.929 . S
H1220 C1234 0.930 . S
H1221 C1236 0.960 1_565 S
H1222 C1236 0.960 . S
H1223 C1236 0.960 . S
C1224 H1216 0.929 . S
C1224 C1225 1.377 . S
C1224 C1226 1.384 . S
C1225 C1224 1.377 . S
C1225 C1231 1.390 . S
C1226 H1217 0.930 1_556 S
C1226 C1224 1.384 . S
C1226 C1227 1.372 . S
C1227 C1226 1.372 . S
C1227 C1228 1.400 . S
C1227 C1232 1.490 . S
C1228 H1218 0.930 . S
C1228 C1227 1.400 . S
C1228 C1231 1.386 . S
H1229 C1245 0.930 . S
H1230 C1246 0.931 1_556 S
C1231 H1219 0.929 . S
C1231 C1225 1.390 . S
C1231 C1228 1.386 . S
C1232 C1227 1.490 . S
C1232 C1234 1.395 1_556 S
C1232 C1235 1.403 . S
H1233 C1239 0.935 . S
C1234 H1220 0.930 . S
C1234 C1232 1.395 1_554 S
C1234 C1237 1.403 1_545 S
C1235 C1232 1.403 . S
C1235 C1236 1.524 . S
C1235 C1239 1.418 1_545 S
C1236 H1221 0.960 1_545 S
C1236 H1222 0.960 . S
C1236 H1223 0.960 . S
C1236 C1235 1.524 . S
C1237 C1234 1.403 1_565 S
C1237 C1238 1.392 . S
C1237 C1241 1.495 . S
C1238 C1237 1.392 . S
C1238 C1239 1.363 1_554 S
C1238 C1240 1.478 . S
C1239 H1233 0.935 . S
C1239 C1235 1.418 1_565 S
C1239 C1238 1.363 1_556 S
C1240 C1238 1.478 . S
C1240 C1242 1.381 . S
C1240 C1246 1.383 . S
C1241 C1237 1.495 . S
C1241 H1247 0.959 1_565 S
C1241 H1248 0.961 . S
C1241 H1249 0.960 . S
C1242 C1240 1.381 . S
C1242 C1243 1.394 . S
C1242 H1250 0.930 . S
C1243 C1242 1.394 . S
C1243 C1244 1.383 . S
C1243 H1251 0.929 . S
C1244 C1243 1.383 . S
C1244 C1245 1.377 . S
C1245 H1229 0.930 . S
C1245 C1244 1.377 . S
C1245 C1246 1.379 . S
C1246 H1230 0.931 1_554 S
C1246 C1240 1.383 . S
C1246 C1245 1.379 . S
H1247 C1241 0.959 1_545 S
H1248 C1241 0.961 . S
H1249 C1241 0.960 . S
H1250 C1242 0.930 . S
H1251 C1243 0.929 . S
H1252 C1260 0.929 . S
H1253 C1262 0.930 . S
H1254 C1264 0.930 . S
H1255 C1267 0.929 . S
H1256 C1270 0.930 . S
H1257 C1272 0.960 . S
H1258 C1272 0.960 . S
H1259 C1272 0.960 . S
C1260 H1252 0.929 . S
C1260 C1261 1.377 . S
C1260 C1262 1.384 . S
C1261 C1260 1.377 . S
C1261 C1267 1.390 . S
C1262 H1253 0.930 . S
C1262 C1260 1.384 . S
C1262 C1263 1.372 . S
C1263 C1262 1.372 . S
C1263 C1264 1.400 . S
C1263 C1268 1.490 . S
C1264 H1254 0.930 . S
C1264 C1263 1.400 . S
C1264 C1267 1.386 . S
H1265 C1281 0.930 . S
H1266 C1282 0.931 . S
C1267 H1255 0.929 . S
C1267 C1261 1.390 . S
C1267 C1264 1.386 . S
C1268 C1263 1.490 . S
C1268 C1270 1.395 . S
C1268 C1271 1.403 . S
H1269 C1275 0.930 . S
C1270 H1256 0.930 . S
C1270 C1268 1.395 . S
C1270 C1273 1.403 1_565 S
C1271 C1268 1.403 . S
C1271 C1272 1.524 . S
C1271 C1275 1.400 1_565 S
C1272 H1257 0.960 . S
C1272 H1258 0.960 . S
C1272 H1259 0.960 . S
C1272 C1271 1.524 . S
C1273 C1270 1.403 1_545 S
C1273 C1274 1.392 . S
C1273 C1277 1.495 . S
C1274 C1273 1.392 . S
C1274 C1275 1.385 . S
C1274 C1276 1.478 . S
C1275 H1269 0.930 . S
C1275 C1271 1.400 1_545 S
C1275 C1274 1.385 . S
C1276 C1274 1.478 . S
C1276 C1278 1.381 . S
C1276 C1282 1.383 . S
C1277 C1273 1.495 . S
C1277 H1283 0.959 . S
C1277 H1284 0.961 . S
C1277 H1285 0.960 . S
C1278 C1276 1.381 . S
C1278 C1279 1.394 . S
C1278 H1286 0.930 . S
C1279 C1278 1.394 . S
C1279 C1280 1.383 . S
C1279 H1287 0.929 . S
C1280 C1279 1.383 . S
C1280 C1281 1.377 . S
C1281 H1265 0.930 . S
C1281 C1280 1.377 . S
C1281 C1282 1.379 . S
C1282 H1266 0.931 . S
C1282 C1276 1.383 . S
C1282 C1281 1.379 . S
H1283 C1277 0.959 . S
H1284 C1277 0.961 . S
H1285 C1277 0.960 . S
H1286 C1278 0.930 . S
H1287 C1279 0.929 . S
H1288 C1296 0.929 . S
H1289 C1298 0.930 . S
H1290 C1300 0.930 . S
H1291 C1303 0.929 . S
H1292 C1306 0.930 . S
H1293 C1308 0.965 . S
H1294 C1308 0.958 1_565 S
H1295 C1308 0.957 1_565 S
C1296 H1288 0.929 . S
C1296 C1297 1.377 . S
C1296 C1298 1.384 . S
C1297 C1296 1.377 . S
C1297 C1303 1.390 . S
C1298 H1289 0.930 . S
C1298 C1296 1.384 . S
C1298 C1299 1.372 . S
C1299 C1298 1.372 . S
C1299 C1300 1.400 . S
C1299 C1304 1.490 . S
C1300 H1290 0.930 . S
C1300 C1299 1.400 . S
C1300 C1303 1.386 . S
H1301 C1317 0.930 . S
H1302 C1318 0.931 . S
C1303 H1291 0.929 . S
C1303 C1297 1.390 . S
C1303 C1300 1.386 . S
C1304 C1299 1.490 . S
C1304 C1306 1.395 1_554 S
C1304 C1307 1.449 . S
H1305 C1311 0.930 . S
C1306 H1292 0.930 . S
C1306 C1304 1.395 1_556 S
C1306 C1309 1.430 . S
C1307 C1304 1.449 . S
C1307 C1308 1.522 1_565 S
C1307 C1311 1.355 1_565 S
C1308 H1293 0.965 . S
C1308 H1294 0.958 1_545 S
C1308 H1295 0.957 1_545 S
C1308 C1307 1.522 1_545 S
C1309 C1306 1.430 . S
C1309 C1310 1.366 1_565 S
C1309 C1313 1.496 . S
C1310 C1309 1.366 1_545 S
C1310 C1311 1.385 1_556 S
C1310 C1312 1.478 . S
C1311 H1305 0.930 . S
C1311 C1307 1.355 1_545 S
C1311 C1310 1.385 1_554 S
C1312 C1310 1.478 . S
C1312 C1314 1.381 . S
C1312 C1318 1.383 . S
C1313 C1309 1.496 . S
C1313 H1319 0.959 . S
C1313 H1320 0.961 1_565 S
C1313 H1321 0.960 1_565 S
C1314 C1312 1.381 . S
C1314 C1315 1.394 . S
C1314 H1322 0.930 . S
C1315 C1314 1.394 . S
C1315 C1316 1.383 . S
C1315 H1323 0.929 . S
C1316 C1315 1.383 . S
C1316 C1317 1.377 . S
C1317 H1301 0.930 . S
C1317 C1316 1.377 . S
C1317 C1318 1.379 . S
C1318 H1302 0.931 . S
C1318 C1312 1.383 . S
C1318 C1317 1.379 . S
H1319 C1313 0.959 . S
H1320 C1313 0.961 1_545 S
H1321 C1313 0.960 1_545 S
H1322 C1314 0.930 . S
H1323 C1315 0.929 . S
H1324 C1332 0.929 . S
H1325 C1334 0.930 . S
H1326 C1336 0.930 . S
H1327 C1339 0.929 . S
H1328 C1342 0.930 . S
H1329 C1344 0.960 . S
H1330 C1344 0.960 . S
H1331 C1344 0.960 . S
C1332 H1324 0.929 . S
C1332 C1333 1.377 . S
C1332 C1334 1.384 . S
C1333 C1332 1.377 . S
C1333 C1339 1.390 . S
C1334 H1325 0.930 . S
C1334 C1332 1.384 . S
C1334 C1335 1.372 . S
C1335 C1334 1.372 . S
C1335 C1336 1.400 . S
C1335 C1340 1.490 . S
C1336 H1326 0.930 . S
C1336 C1335 1.400 . S
C1336 C1339 1.386 . S
H1337 C1353 0.930 . S
H1338 C1354 0.931 . S
C1339 H1327 0.929 . S
C1339 C1333 1.390 . S
C1339 C1336 1.386 . S
C1340 C1335 1.490 . S
C1340 C1342 1.395 . S
C1340 C1343 1.403 . S
H1341 C1347 0.930 . S
C1342 H1328 0.930 . S
C1342 C1340 1.395 . S
C1342 C1345 1.403 1_545 S
C1343 C1340 1.403 . S
C1343 C1344 1.524 . S
C1343 C1347 1.400 1_545 S
C1344 H1329 0.960 . S
C1344 H1330 0.960 . S
C1344 H1331 0.960 . S
C1344 C1343 1.524 . S
C1345 C1342 1.403 1_565 S
C1345 C1346 1.392 . S
C1345 C1349 1.495 . S
C1346 C1345 1.392 . S
C1346 C1347 1.385 . S
C1346 C1348 1.478 . S
C1347 H1341 0.930 . S
C1347 C1343 1.400 1_565 S
C1347 C1346 1.385 . S
C1348 C1346 1.478 . S
C1348 C1350 1.381 . S
C1348 C1354 1.383 . S
C1349 C1345 1.495 . S
C1349 H1355 0.959 . S
C1349 H1356 0.961 . S
C1349 H1357 0.960 . S
C1350 C1348 1.381 . S
C1350 C1351 1.394 . S
C1350 H1358 0.930 . S
C1351 C1350 1.394 . S
C1351 C1352 1.383 . S
C1351 H1359 0.929 . S
C1352 C1351 1.383 . S
C1352 C1353 1.377 . S
C1353 H1337 0.930 . S
C1353 C1352 1.377 . S
C1353 C1354 1.379 . S
C1354 H1338 0.931 . S
C1354 C1348 1.383 . S
C1354 C1353 1.379 . S
H1355 C1349 0.959 . S
H1356 C1349 0.961 . S
H1357 C1349 0.960 . S
H1358 C1350 0.930 . S
H1359 C1351 0.929 . S
C217 C5 1.386 . S
C236 C83 1.399 . S
C253 C18 1.391 . S
C272 C96 1.414 . S
C289 C57 1.395 . S
C308 C31 1.373 . S
C325 C70 1.388 . S
C344 C44 1.365 . S
C361 C187 1.389 . S
C380 C109 1.407 . S
C397 C200 1.396 . S
C416 C122 1.379 . S
C433 C135 1.389 . S
C452 C161 1.412 . S
C469 C148 1.394 . S
C488 C174 1.412 . S
C505 C10 1.350 . S
C524 C73 1.324 . S
C541 C23 1.350 . S
C560 C60 1.285 . S
C577 C36 1.350 . S
C596 C99 1.289 . S
C613 C86 1.307 . S
C632 C49 1.338 . S
C649 C177 1.307 . S
C668 C114 1.354 . S
C685 C164 1.318 . S
C704 C127 1.352 . S
C721 C140 1.352 . S
C740 C203 1.279 . S
C757 C190 1.312 . S
C776 C153 1.363 . S
C793 C156 1.202 . S
C812 C0 1.208 . S
C829 C13 1.197 . S
C848 C169 1.172 . S
C865 C182 1.194 . S
C884 C26 1.212 . S
C901 C195 1.193 . S
C920 C39 1.211 . S
C937 C104 1.195 . S
C956 C52 1.198 . S
C973 C117 1.195 . S
C992 C65 1.187 . S
C1009 C78 1.202 . S
C1028 C130 1.196 . S
C1045 C91 1.193 . S
C1064 C143 1.207 . S
C1081 C34 1.291 . S
C1100 C8 1.325 . S
C1117 C21 1.293 . S
C1136 C47 1.264 . S
C1153 C88 1.365 . S
C1172 C62 1.353 . S
C1189 C75 1.370 . S
C1208 C101 1.378 . S
C1225 C138 1.300 . S
C1244 C112 1.262 . S
C1261 C151 1.294 . S
C1280 C125 1.260 . S
C1297 C192 1.365 . S
C1316 C166 1.351 . S
C1333 C205 1.367 . S
C1352 C179 1.366 . S
