# Generated by pormake.
# Topology noz, (5)-cn, num edge types: 1
# Building blocks:
#     Node 0, Type 0, BuildingBlock: BEQFEK_clean_sbu_0, # of connection points: 5
#     Node 1, Type 0, BuildingBlock: BEQFEK_clean_sbu_0, # of connection points: 5
#     Node 2, Type 0, BuildingBlock: BEQFEK_clean_sbu_0, # of connection points: 5
#     Node 3, Type 0, BuildingBlock: BEQFEK_clean_sbu_0, # of connection points: 5
#     Node 4, Type 0, BuildingBlock: BEQFEK_clean_sbu_0, # of connection points: 5
#     Node 5, Type 0, BuildingBlock: BEQFEK_clean_sbu_0, # of connection points: 5
#     Node 6, Type 0, BuildingBlock: BEQFEK_clean_sbu_0, # of connection points: 5
#     Node 7, Type 0, BuildingBlock: BEQFEK_clean_sbu_0, # of connection points: 5
#     Edge 8, Type (0, 0), BuildingBlock: EZIPEK_clean_linker_0, # of connection points: 2
#     Edge 9, Type (0, 0), BuildingBlock: EZIPEK_clean_linker_0, # of connection points: 2
#     Edge 10, Type (0, 0), BuildingBlock: EZIPEK_clean_linker_0, # of connection points: 2
#     Edge 11, Type (0, 0), BuildingBlock: EZIPEK_clean_linker_0, # of connection points: 2
#     Edge 12, Type (0, 0), BuildingBlock: EZIPEK_clean_linker_0, # of connection points: 2
#     Edge 13, Type (0, 0), BuildingBlock: EZIPEK_clean_linker_0, # of connection points: 2
#     Edge 14, Type (0, 0), BuildingBlock: EZIPEK_clean_linker_0, # of connection points: 2
#     Edge 15, Type (0, 0), BuildingBlock: EZIPEK_clean_linker_0, # of connection points: 2
#     Edge 16, Type (0, 0), BuildingBlock: EZIPEK_clean_linker_0, # of connection points: 2
#     Edge 17, Type (0, 0), BuildingBlock: EZIPEK_clean_linker_0, # of connection points: 2
#     Edge 18, Type (0, 0), BuildingBlock: EZIPEK_clean_linker_0, # of connection points: 2
#     Edge 19, Type (0, 0), BuildingBlock: EZIPEK_clean_linker_0, # of connection points: 2
#     Edge 20, Type (0, 0), BuildingBlock: EZIPEK_clean_linker_0, # of connection points: 2
#     Edge 21, Type (0, 0), BuildingBlock: EZIPEK_clean_linker_0, # of connection points: 2
#     Edge 22, Type (0, 0), BuildingBlock: EZIPEK_clean_linker_0, # of connection points: 2
#     Edge 23, Type (0, 0), BuildingBlock: EZIPEK_clean_linker_0, # of connection points: 2
#     Edge 24, Type (0, 0), BuildingBlock: EZIPEK_clean_linker_0, # of connection points: 2
#     Edge 25, Type (0, 0), BuildingBlock: EZIPEK_clean_linker_0, # of connection points: 2
#     Edge 26, Type (0, 0), BuildingBlock: EZIPEK_clean_linker_0, # of connection points: 2
#     Edge 27, Type (0, 0), BuildingBlock: EZIPEK_clean_linker_0, # of connection points: 2
# Relax obj value: 0.098
# Max RMSD: 0.181
# Mean RMSD: 0.119
data_MOF--net-noz--node1-BEQFEK_clean_sbu_0--edge1-EZIPEK_clean_linker_0
_symmetry_space_group_name_H-M    P1
_symmetry_Int_Tables_number       1
_symmetry_cell_setting            triclinic
loop_
_symmetry_equiv_pos_as_xyz
'x, y, z'
_cell_length_a     18.844022
_cell_length_b     32.712042
_cell_length_c     33.116182
_cell_angle_alpha  88.885983
_cell_angle_beta   98.060439
_cell_angle_gamma 81.915709
loop_
_atom_site_label
_atom_site_type_symbol
_atom_site_fract_x
_atom_site_fract_y
_atom_site_fract_z
_atom_type_partial_charge
Co0 Co 0.14949 0.36212 0.38095 0.0
Co1 Co 0.0366 0.33236 0.43358 0.0
C2 C 0.18769 0.29084 0.44582 0.0
O3 O 0.20329 0.315 0.41859 0.0
O4 O 0.12366 0.29294 0.45469 0.0
C5 C 0.24073 0.34561 0.31881 0.0
O6 O 0.22148 0.30882 0.32271 0.0
C7 C 0.93074 0.287 0.4681 0.0
C8 C 0.84859 0.33973 0.47808 0.0
C9 C 0.86364 0.29711 0.48099 0.0
N10 N 0.95366 0.32227 0.45734 0.0
N11 N 0.90454 0.35357 0.4638 0.0
C12 C 0.9723 0.24485 0.466 0.0
H13 H 1.00778 0.23678 0.49555 0.0
H14 H 1.0072 0.2445 0.4416 0.0
H15 H 0.93521 0.22137 0.46066 0.0
C16 C 0.0278 0.35204 0.314 0.0
N17 N 0.05984 0.34828 0.35338 0.0
N18 N 0.01553 0.33374 0.37564 0.0
C19 C 0.95543 0.32689 0.35105 0.0
C20 C 0.96078 0.33844 0.3114 0.0
C21 C 0.05776 0.37133 0.2801 0.0
H22 H 0.10443 0.3501 0.2721 0.0
H23 H 0.01667 0.37786 0.25243 0.0
H24 H 0.07663 0.40048 0.29045 0.0
O25 O 0.1289 0.41144 0.41485 0.0
O26 O 0.05332 0.38734 0.45221 0.0
H27 H 0.85101 0.30524 0.33964 0.0
H28 H 0.91293 0.28135 0.38285 0.0
C29 C 0.8926 0.3108 0.36531 0.0
H30 H 0.86694 0.33335 0.38532 0.0
H31 H 0.90851 0.3845 0.45761 0.0
O32 O 0.21609 0.37429 0.34076 0.0
C33 C 0.08882 0.41553 0.44298 0.0
Co34 Co 0.49263 0.61126 0.881 0.0
Co35 Co 0.6309 0.62583 0.94257 0.0
C36 C 0.48688 0.6818 0.93489 0.0
O37 O 0.4575 0.6629 0.90541 0.0
O38 O 0.55184 0.67033 0.95173 0.0
C39 C 0.37816 0.63072 0.81478 0.0
O40 O 0.39801 0.66748 0.81949 0.0
C41 C 0.73947 0.67622 0.97941 0.0
C42 C 0.82308 0.62941 0.01382 0.0
C43 C 0.80524 0.67152 1.00514 0.0
N44 N 0.71934 0.63867 0.97316 0.0
N45 N 0.76971 0.61084 0.99383 0.0
C46 C 0.69483 0.71579 0.96234 0.0
H47 H 0.66639 0.71114 0.93144 0.0
H48 H 0.72864 0.7408 0.96102 0.0
H49 H 0.65328 0.72527 0.98231 0.0
C50 C 0.60139 0.60985 0.82268 0.0
N51 N 0.58184 0.61449 0.86023 0.0
N52 N 0.63936 0.61988 0.8861 0.0
C53 C 0.69719 0.6178 0.86593 0.0
C54 C 0.67504 0.61138 0.82502 0.0
C55 C 0.55177 0.60221 0.7852 0.0
H56 H 0.50043 0.62355 0.78305 0.0
H57 H 0.57626 0.60664 0.75714 0.0
H58 H 0.54064 0.56993 0.78709 0.0
O59 O 0.50406 0.56766 0.92562 0.0
O60 O 0.60632 0.57414 0.96613 0.0
H61 H 0.81273 0.6125 0.86444 0.0
H62 H 0.77634 0.65077 0.89764 0.0
C63 C 0.7729 0.61947 0.88596 0.0
H64 H 0.78656 0.59693 0.9123 0.0
H65 H 0.76728 0.57917 0.99466 0.0
O66 O 0.41248 0.60064 0.83774 0.0
C67 C 0.55069 0.55614 0.95704 0.0
Co68 Co 0.08098 0.64339 0.55609 0.0
Co69 Co 0.96891 0.60673 0.60367 0.0
C70 C 0.92315 0.6784 0.54289 0.0
O71 O 0.9875 0.67761 0.53514 0.0
O72 O 0.90774 0.65358 0.56947 0.0
C73 C 0.15124 0.70588 0.52425 0.0
O74 O 0.08823 0.72902 0.52369 0.0
C75 C 0.86073 0.60678 0.6606 0.0
C76 C 0.89404 0.54522 0.69138 0.0
C77 C 0.84827 0.58211 0.69297 0.0
N78 N 0.91308 0.58587 0.64195 0.0
N79 N 0.93128 0.54873 0.65993 0.0
C80 C 0.82532 0.64987 0.64811 0.0
H81 H 0.80177 0.65097 0.6154 0.0
H82 H 0.86683 0.67099 0.65145 0.0
H83 H 0.78184 0.66052 0.66649 0.0
C84 C 0.15907 0.64454 0.63936 0.0
N85 N 0.09954 0.63898 0.61353 0.0
N86 N 0.05373 0.62359 0.63404 0.0
C87 C 0.0832 0.6192 0.67386 0.0
C88 C 0.15025 0.63256 0.67836 0.0
C89 C 0.22617 0.65695 0.62643 0.0
H90 H 0.21337 0.6884 0.61202 0.0
H91 H 0.26991 0.65678 0.65266 0.0
H92 H 0.24541 0.6355 0.60343 0.0
O93 O 0.08005 0.58831 0.53395 0.0
O94 O 0.99897 0.56191 0.56587 0.0
H95 H 0.05768 0.5645 0.70097 0.0
H96 H 0.08258 0.60219 0.73724 0.0
C97 C 0.05304 0.59802 0.70652 0.0
H98 H 0.99556 0.61059 0.70576 0.0
H99 H 0.97207 0.52656 0.65216 0.0
O100 O 0.1597 0.66819 0.53618 0.0
C101 C 0.04395 0.5593 0.54013 0.0
Co102 Co 0.5039 0.36169 0.12818 0.0
Co103 Co 0.61445 0.33281 0.06736 0.0
C104 C 0.48544 0.2916 0.06845 0.0
O105 O 0.46458 0.31596 0.09557 0.0
O106 O 0.54495 0.29331 0.05484 0.0
C107 C 0.42517 0.34158 0.19286 0.0
O108 O 0.44426 0.30384 0.18159 0.0
C109 C 0.72772 0.28989 0.02324 0.0
C110 C 0.77228 0.34334 0.99995 0.0
C111 C 0.77923 0.30073 1.00063 0.0
N112 N 0.69153 0.32468 0.03549 0.0
N113 N 0.71822 0.35648 0.02125 0.0
C114 C 0.71329 0.2473 0.03303 0.0
H115 H 0.68506 0.23495 1.00523 0.0
H116 H 0.67885 0.24775 0.05764 0.0
H117 H 0.76503 0.22647 0.04241 0.0
C118 C 0.64451 0.35029 0.18611 0.0
N119 N 0.60518 0.34671 0.14923 0.0
N120 N 0.64995 0.33271 0.12374 0.0
C121 C 0.71822 0.32621 0.1437 0.0
C122 C 0.71716 0.33715 0.18375 0.0
C123 C 0.61462 0.36831 0.22244 0.0
H124 H 0.56014 0.38621 0.21355 0.0
H125 H 0.61175 0.34292 0.24452 0.0
H126 H 0.65113 0.3887 0.23811 0.0
O127 O 0.49201 0.41313 0.09191 0.0
O128 O 0.56773 0.38836 0.04966 0.0
H129 H 0.78973 0.33666 0.10119 0.0
H130 H 0.83401 0.30766 0.14679 0.0
C131 C 0.78401 0.31269 0.12416 0.0
H132 H 0.77752 0.28356 0.10847 0.0
H133 H 0.70001 0.38728 0.02644 0.0
O134 O 0.4448 0.37176 0.17443 0.0
C135 C 0.52354 0.41738 0.06069 0.0
Co136 Co 0.65264 0.86659 0.38196 0.0
Co137 Co 0.5476 0.82842 0.43242 0.0
C138 C 0.69773 0.79216 0.4451 0.0
O139 O 0.71025 0.81898 0.41924 0.0
O140 O 0.63433 0.79049 0.45343 0.0
C141 C 0.72817 0.85497 0.3133 0.0
O142 O 0.70048 0.82028 0.31315 0.0
C143 C 0.44513 0.7821 0.46824 0.0
C144 C 0.35092 0.83156 0.46412 0.0
C145 C 0.37378 0.79041 0.47529 0.0
N146 N 0.46321 0.81691 0.45289 0.0
N147 N 0.40685 0.84632 0.45083 0.0
C148 C 0.49503 0.74208 0.47566 0.0
H149 H 0.53375 0.744 0.50383 0.0
H150 H 0.52698 0.73669 0.45006 0.0
H151 H 0.46467 0.71589 0.47955 0.0
C152 C 0.52317 0.86305 0.31774 0.0
N153 N 0.56337 0.85271 0.35454 0.0
N154 N 0.52926 0.8289 0.37494 0.0
C155 C 0.47077 0.81974 0.35063 0.0
C156 C 0.46272 0.84222 0.31382 0.0
C157 C 0.53742 0.89632 0.28965 0.0
H158 H 0.56262 0.92015 0.30767 0.0
H159 H 0.57584 0.88278 0.26937 0.0
H160 H 0.4867 0.91083 0.2705 0.0
O161 O 0.63033 0.91426 0.41603 0.0
O162 O 0.55931 0.88457 0.45228 0.0
H163 H 0.38211 0.80421 0.37901 0.0
H164 H 0.39778 0.77547 0.33457 0.0
C165 C 0.42457 0.78899 0.36212 0.0
H166 H 0.45836 0.76397 0.38215 0.0
H167 H 0.40615 0.87637 0.43947 0.0
O168 O 0.7153 0.88066 0.34068 0.0
C169 C 0.59081 0.9151 0.44429 0.0
Co170 Co 0.98834 0.10993 0.88069 0.0
Co171 Co 0.12683 0.12818 0.94046 0.0
C172 C 0.98403 0.18258 0.9342 0.0
O173 O 0.95382 0.16021 0.90802 0.0
O174 O 0.05123 0.17479 0.94788 0.0
C175 C 0.87487 0.13087 0.81413 0.0
O176 O 0.89809 0.16684 0.81799 0.0
C177 C 0.23745 0.17709 0.97795 0.0
C178 C 0.32363 0.12889 1.00791 0.0
C179 C 0.30518 0.1713 1.00176 0.0
N180 N 0.21684 0.13986 0.9703 0.0
N181 N 0.26869 0.11121 0.9884 0.0
C182 C 0.19172 0.21731 0.96384 0.0
H183 H 0.16517 0.21515 0.93199 0.0
H184 H 0.22407 0.24321 0.9658 0.0
H185 H 0.14859 0.22374 0.98344 0.0
C186 C 0.09528 0.10844 0.82148 0.0
N187 N 0.07633 0.11425 0.85902 0.0
N188 N 0.1339 0.12103 0.88415 0.0
C189 C 0.19099 0.11918 0.86347 0.0
C190 C 0.16839 0.11108 0.8231 0.0
C191 C 0.04596 0.09792 0.78504 0.0
H192 H 0.03301 0.06642 0.79023 0.0
H193 H 0.99546 0.12014 0.7807 0.0
H194 H 0.07123 0.09868 0.75678 0.0
O195 O 1.00336 0.06451 0.92274 0.0
O196 O 0.10009 0.07716 0.96504 0.0
H197 H 0.2834 0.09902 0.90802 0.0
H198 H 0.30551 0.11769 0.86034 0.0
C199 C 0.26661 0.12248 0.88262 0.0
H200 H 0.26795 0.15347 0.89541 0.0
H201 H 0.26641 0.07954 0.98762 0.0
O202 O 0.9067 0.10072 0.83778 0.0
C203 C 0.04925 0.05568 0.95492 0.0
Co204 Co 0.57397 0.14367 0.55566 0.0
Co205 Co 0.46464 0.10624 0.60444 0.0
C206 C 0.41452 0.17703 0.54353 0.0
O207 O 0.47848 0.17703 0.53526 0.0
O208 O 0.40094 0.15193 0.57036 0.0
C209 C 0.64231 0.20966 0.52966 0.0
O210 O 0.5814 0.23213 0.53543 0.0
C211 C 0.35557 0.10451 0.66007 0.0
C212 C 0.39429 0.04471 0.69355 0.0
C213 C 0.34483 0.08043 0.69319 0.0
N214 N 0.41053 0.08455 0.64282 0.0
N215 N 0.43201 0.04835 0.66234 0.0
C216 C 0.31609 0.1463 0.64563 0.0
H217 H 0.29341 0.1454 0.61294 0.0
H218 H 0.35481 0.16907 0.64815 0.0
H219 H 0.27133 0.1563 0.66333 0.0
C220 C 0.65478 0.14417 0.63849 0.0
N221 N 0.59432 0.13915 0.61316 0.0
N222 N 0.54833 0.12478 0.63429 0.0
C223 C 0.57797 0.12138 0.6741 0.0
C224 C 0.64577 0.13373 0.67789 0.0
C225 C 0.72329 0.15345 0.62472 0.0
H226 H 0.7153 0.18576 0.61276 0.0
H227 H 0.76926 0.14929 0.65006 0.0
H228 H 0.73667 0.13302 0.59967 0.0
O229 O 0.5753 0.08812 0.53395 0.0
O230 O 0.49658 0.06127 0.5674 0.0
H231 H 0.57422 0.10929 0.73807 0.0
H232 H 0.48886 0.11354 0.70509 0.0
C233 C 0.54711 0.1021 0.70762 0.0
H234 H 0.55488 0.06809 0.70492 0.0
H235 H 0.47524 0.02712 0.65581 0.0
O236 O 0.65038 0.17067 0.53536 0.0
C237 C 0.54086 0.05866 0.5413 0.0
Co238 Co 1.00237 0.86585 0.12788 0.0
Co239 Co 0.11847 0.82823 0.07426 0.0
C240 C 0.98579 0.79176 0.07145 0.0
O241 O 0.96418 0.81878 0.09618 0.0
O242 O 0.04782 0.79016 0.05994 0.0
C243 C 0.89164 0.85925 0.1793 0.0
O244 O 0.8721 0.83192 0.15309 0.0
C245 C 0.22894 0.78522 0.02849 0.0
C246 C 0.30303 0.83216 0.02882 0.0
C247 C 0.29259 0.79339 0.0155 0.0
N248 N 0.20289 0.81781 0.04871 0.0
N249 N 0.24704 0.84585 0.04847 0.0
C250 C 0.19329 0.74736 0.02198 0.0
H251 H 0.13745 0.75629 1.0057 0.0
H252 H 0.1889 0.7331 0.05204 0.0
H253 H 0.22384 0.72458 1.00405 0.0
C254 C 0.13897 0.86128 0.18687 0.0
N255 N 0.10134 0.85141 0.15161 0.0
N256 N 0.14575 0.8288 0.13099 0.0
C257 C 0.21144 0.82039 0.15371 0.0
C258 C 0.21063 0.8417 0.18973 0.0
C259 C 0.10823 0.89262 0.2145 0.0
H260 H 0.07042 0.9174 0.1961 0.0
H261 H 0.07661 0.87759 0.23482 0.0
H262 H 0.1516 0.90632 0.2334 0.0
O263 O 0.9951 0.91437 0.0898 0.0
O264 O 0.07709 0.88472 0.05329 0.0
H265 H 0.30414 0.80833 0.12242 0.0
H266 H 0.31014 0.7774 0.16865 0.0
C267 C 0.27297 0.79145 0.1414 0.0
H268 H 0.25164 0.76676 0.12287 0.0
H269 H 0.23925 0.87428 0.06219 0.0
O270 O 0.94426 0.87836 0.17404 0.0
C271 C 0.03219 0.91555 0.06052 0.0
C272 C 0.36236 0.32589 0.29601 0.0
C273 C 0.29428 0.35178 0.29069 0.0
C274 C 0.3145 0.37401 0.22237 0.0
C275 C 0.38259 0.34812 0.22759 0.0
N276 N 0.47891 0.30725 0.27298 0.0
N277 N 0.21678 0.4098 0.25431 0.0
C278 C 0.40876 0.32638 0.26555 0.0
C279 C 0.27413 0.379 0.25573 0.0
N280 N 0.38255 0.30057 0.33025 0.0
N281 N 0.28588 0.39176 0.18482 0.0
H282 H 0.18739 0.41523 0.27845 0.0
H283 H 0.20369 0.43288 0.23128 0.0
H284 H 0.31252 0.38834 0.1593 0.0
H285 H 0.23286 0.40677 0.17798 0.0
H286 H 0.42618 0.27681 0.33356 0.0
H287 H 0.35389 0.3024 0.35508 0.0
H288 H 0.50398 0.29472 0.30141 0.0
H289 H 0.51451 0.307 0.25157 0.0
C290 C 0.31956 0.59494 0.75382 0.0
C291 C 0.31497 0.62576 0.78357 0.0
C292 C 0.20009 0.65964 0.74516 0.0
C293 C 0.20486 0.62902 0.71566 0.0
N294 N 0.25829 0.56235 0.69639 0.0
N295 N 0.23965 0.67877 0.81405 0.0
C296 C 0.26125 0.59501 0.72144 0.0
C297 C 0.25174 0.65555 0.78114 0.0
N298 N 0.38054 0.56665 0.75517 0.0
N299 N 0.14733 0.69327 0.7383 0.0
H300 H 0.27447 0.67502 0.84171 0.0
H301 H 0.1915 0.69827 0.8156 0.0
H302 H 0.10736 0.69684 0.71277 0.0
H303 H 0.14626 0.719 0.75637 0.0
H304 H 0.39147 0.54793 0.73107 0.0
H305 H 0.42209 0.5628 0.7796 0.0
H306 H 0.29313 0.53452 0.70175 0.0
H307 H 0.21694 0.5616 0.67203 0.0
C308 C 0.75456 0.56325 0.73434 0.0
C309 C 0.80081 0.59186 0.72525 0.0
C310 C 0.75815 0.63574 0.77899 0.0
C311 C 0.7202 0.60436 0.79147 0.0
N312 N 0.69778 0.53362 0.78674 0.0
N313 N 0.85935 0.65078 0.74704 0.0
C314 C 0.72298 0.56669 0.77084 0.0
C315 C 0.80613 0.62698 0.74972 0.0
N316 N 0.73851 0.53357 0.70747 0.0
N317 N 0.74738 0.67426 0.79426 0.0
H318 H 0.89774 0.64482 0.72749 0.0
H319 H 0.86979 0.67394 0.76728 0.0
H320 H 0.71205 0.68213 0.81537 0.0
H321 H 0.76827 0.69932 0.78298 0.0
H322 H 0.69996 0.51436 0.71109 0.0
H323 H 0.75728 0.53133 0.67931 0.0
H324 H 0.70471 0.50433 0.77476 0.0
H325 H 0.677 0.53432 0.81434 0.0
C326 C 0.80387 0.3761 0.22703 0.0
C327 C 0.78105 0.33789 0.2156 0.0
C328 C 0.88633 0.30075 0.26007 0.0
C329 C 0.90338 0.33887 0.27552 0.0
N330 N 0.87227 0.41283 0.27806 0.0
N331 N 0.79505 0.26373 0.22464 0.0
C332 C 0.86068 0.37663 0.26009 0.0
C333 C 0.82093 0.30012 0.23299 0.0
N334 N 0.77275 0.41175 0.20556 0.0
N335 N 0.93326 0.26522 0.27098 0.0
H336 H 0.74731 0.26204 0.20496 0.0
H337 H 0.8175 0.23569 0.23975 0.0
H338 H 0.98175 0.26471 0.29069 0.0
H339 H 0.92754 0.23705 0.25772 0.0
H340 H 0.79243 0.43981 0.20972 0.0
H341 H 0.73111 0.41261 0.18108 0.0
H342 H 0.8375 0.44052 0.27114 0.0
H343 H 0.91348 0.41466 0.30221 0.0
C344 C 0.76338 0.89545 0.25481 0.0
C345 C 0.7789 0.86151 0.28376 0.0
C346 C 0.87632 0.82966 0.24739 0.0
C347 C 0.85914 0.86274 0.21769 0.0
N348 N 0.79879 0.9313 0.19737 0.0
N349 N 0.86301 0.80335 0.31455 0.0
C350 C 0.80688 0.89714 0.22296 0.0
C351 C 0.8394 0.83072 0.2821 0.0
N352 N 0.70494 0.92494 0.25646 0.0
N353 N 0.9271 0.79677 0.24198 0.0
H354 H 0.83856 0.80423 0.34098 0.0
H355 H 0.91075 0.78255 0.3172 0.0
H356 H 0.95891 0.79616 0.21856 0.0
H357 H 0.93549 0.76927 0.25946 0.0
H358 H 0.68465 0.94731 0.2334 0.0
H359 H 0.67426 0.92608 0.28029 0.0
H360 H 0.76704 0.9591 0.20178 0.0
H361 H 0.8285 0.93295 0.17323 0.0
C362 C 0.69874 0.16237 0.74322 0.0
C363 C 0.70074 0.13038 0.71505 0.0
C364 C 0.81317 0.09474 0.75433 0.0
C365 C 0.81116 0.12681 0.7829 0.0
N366 N 0.73999 0.18338 0.81119 0.0
N367 N 0.74878 0.06165 0.69837 0.0
C368 C 0.75024 0.15835 0.77928 0.0
C369 C 0.75451 0.09513 0.72209 0.0
N370 N 0.64868 0.1971 0.73505 0.0
N371 N 0.87217 0.06489 0.75655 0.0
H372 H 0.70734 0.06112 0.67401 0.0
H373 H 0.7813 0.03317 0.70485 0.0
H374 H 0.91391 0.06096 0.78087 0.0
H375 H 0.88149 0.04491 0.73314 0.0
H376 H 0.64993 0.22354 0.75201 0.0
H377 H 0.60882 0.20069 0.70947 0.0
H378 H 0.69331 0.20441 0.81192 0.0
H379 H 0.77448 0.17987 0.83897 0.0
C380 C 0.24834 0.13576 0.77574 0.0
C381 C 0.21317 0.10377 0.78958 0.0
C382 C 0.25241 0.0607 0.7349 0.0
C383 C 0.29616 0.09025 0.72472 0.0
N384 N 0.34878 0.15189 0.74386 0.0
N385 N 0.19642 0.03195 0.78814 0.0
C386 C 0.29771 0.12681 0.74735 0.0
C387 C 0.2195 0.06505 0.77088 0.0
N388 N 0.23381 0.17492 0.78902 0.0
N389 N 0.24007 0.02921 0.70955 0.0
H390 H 0.17447 0.03344 0.81538 0.0
H391 H 0.20605 0.00211 0.77768 0.0
H392 H 0.26009 0.02611 0.68179 0.0
H393 H 0.20329 0.00908 0.71386 0.0
H394 H 0.25269 0.20015 0.77662 0.0
H395 H 0.19737 0.1829 0.80953 0.0
H396 H 0.35647 0.17634 0.76294 0.0
H397 H 0.38827 0.14592 0.72499 0.0
C398 C 0.34163 0.85225 0.20988 0.0
C399 C 0.2741 0.84575 0.22152 0.0
C400 C 0.32714 0.85172 0.29232 0.0
C401 C 0.39791 0.84693 0.28122 0.0
N402 N 0.47085 0.83331 0.22699 0.0
N403 N 0.21081 0.82882 0.27704 0.0
C404 C 0.40501 0.84466 0.23922 0.0
C405 C 0.26886 0.84257 0.26373 0.0
N406 N 0.34533 0.86737 0.1717 0.0
N407 N 0.31465 0.86634 0.32934 0.0
H408 H 0.17018 0.81785 0.25736 0.0
H409 H 0.20822 0.82381 0.30799 0.0
H410 H 0.35498 0.8768 0.34974 0.0
H411 H 0.26263 0.87236 0.33728 0.0
H412 H 0.39338 0.87476 0.16317 0.0
H413 H 0.29913 0.87709 0.15064 0.0
H414 H 0.47657 0.82882 0.19644 0.0
H415 H 0.51775 0.82383 0.24752 0.0
C416 C 0.02971 0.52577 0.47258 0.0
C417 C 0.05382 0.52224 0.51535 0.0
C418 C 0.11067 0.45093 0.50885 0.0
C419 C 0.08256 0.45355 0.46662 0.0
N420 N 1.00807 0.49097 0.40883 0.0
N421 N 0.11105 0.48106 0.57533 0.0
C422 C 0.04058 0.49043 0.44851 0.0
C423 C 0.09235 0.48462 0.53384 0.0
N424 N 0.99633 0.563 0.455 0.0
N425 N 0.15691 0.41657 0.52468 0.0
H426 H 0.10171 0.5056 0.59444 0.0
H427 H 0.13169 0.45326 0.5913 0.0
H428 H 0.17136 0.39138 0.50723 0.0
H429 H 0.18556 0.41407 0.55407 0.0
H430 H 0.98582 0.56919 0.42362 0.0
H431 H 0.98197 0.58872 0.47184 0.0
H432 H 0.96971 0.51502 0.39509 0.0
H433 H 0.01587 0.46599 0.39004 0.0
C434 C 0.54433 0.52661 0.02764 0.0
C435 C 0.53785 0.52204 0.98455 0.0
C436 C 0.49524 0.45541 0.99353 0.0
C437 C 0.5136 0.45687 0.0364 0.0
N438 N 0.56461 0.49208 0.09445 0.0
N439 N 0.51976 0.47765 0.92755 0.0
C440 C 0.53985 0.49216 0.05363 0.0
C441 C 0.51596 0.48539 0.96767 0.0
N442 N 0.55272 0.56397 0.04397 0.0
N443 N 0.45844 0.42492 0.97759 0.0
H444 H 0.53958 0.49722 0.90802 0.0
H445 H 0.51113 0.44958 0.91481 0.0
H446 H 0.44197 0.40281 0.99601 0.0
H447 H 0.43785 0.42426 0.94675 0.0
H448 H 0.54916 0.56991 0.07447 0.0
H449 H 0.55647 0.59025 0.02668 0.0
H450 H 0.59318 0.51469 0.10763 0.0
H451 H 0.56135 0.46798 0.11483 0.0
C452 C 0.4966 0.01207 0.487 0.0
C453 C 0.55213 0.02078 0.51783 0.0
C454 C 0.63568 0.96303 0.49719 0.0
C455 C 0.57876 0.95267 0.46814 0.0
N456 N 0.4534 0.96446 0.43724 0.0
N457 N 0.67051 0.00179 0.55679 0.0
C458 C 0.50861 0.97628 0.46375 0.0
C459 C 0.62073 0.99556 0.52408 0.0
N460 N 0.43369 0.03917 0.47859 0.0
N461 N 0.70408 0.94186 0.49895 0.0
H462 H 0.66103 0.02509 0.57728 0.0
H463 H 0.71865 0.98199 0.56579 0.0
H464 H 0.71658 0.91677 0.48101 0.0
H465 H 0.7496 0.95074 0.51612 0.0
H466 H 0.39446 0.03742 0.45347 0.0
H467 H 0.42264 0.06545 0.49521 0.0
H468 H 0.39919 0.97677 0.43653 0.0
H469 H 0.46113 0.94072 0.41703 0.0
C470 C 0.04013 0.99144 0.05096 0.0
C471 C 0.02608 0.95335 0.03404 0.0
C472 C 0.03319 0.98133 0.96574 0.0
C473 C 0.041 0.02048 0.98213 0.0
N474 N 0.0316 0.06518 0.03904 0.0
N475 N 0.99051 0.91575 0.97439 0.0
C476 C 0.03845 0.02629 0.02438 0.0
C477 C 0.01661 0.94953 0.99107 0.0
N478 N 0.05895 0.99407 0.09211 0.0
N479 N 0.04529 0.97367 0.92666 0.0
H480 H 0.97559 0.89247 0.99203 0.0
H481 H 0.97633 0.91313 0.94309 0.0
H482 H 0.06091 0.99544 0.90757 0.0
H483 H 0.04735 0.94437 0.91469 0.0
H484 H 0.0776 0.01997 0.10527 0.0
H485 H 0.06249 0.96927 0.11287 0.0
H486 H 0.02235 0.07128 0.06878 0.0
H487 H 0.02708 0.09167 0.02038 0.0
C488 C 0.30053 0.27736 0.49752 0.0
C489 C 0.24661 0.26158 0.47014 0.0
C490 C 0.30045 0.19043 0.49262 0.0
C491 C 0.3543 0.20615 0.52004 0.0
N492 N 0.40861 0.26363 0.54826 0.0
N493 N 0.18944 0.20409 0.44428 0.0
C494 C 0.35508 0.24941 0.52235 0.0
C495 C 0.24489 0.21837 0.46857 0.0
N496 N 0.29688 0.31918 0.50141 0.0
N497 N 0.30516 0.14874 0.48769 0.0
H498 H 0.15124 0.22311 0.42375 0.0
H499 H 0.17875 0.17379 0.44563 0.0
H500 H 0.34433 0.12721 0.50484 0.0
H501 H 0.27356 0.13522 0.46489 0.0
H502 H 0.32916 0.33319 0.52344 0.0
H503 H 0.25845 0.34065 0.48367 0.0
H504 H 0.41897 0.29401 0.54827 0.0
H505 H 0.44507 0.2445 0.56958 0.0
C506 C 0.42076 0.69939 0.9936 0.0
C507 C 0.43941 0.71157 0.95558 0.0
C508 C 0.35605 0.77615 0.95481 0.0
C509 C 0.34364 0.76563 0.99481 0.0
N510 N 0.37748 0.72171 0.05595 0.0
N511 N 0.43256 0.76316 0.90182 0.0
C512 C 0.38005 0.7286 0.01536 0.0
C513 C 0.40934 0.75051 0.93666 0.0
N514 N 0.43835 0.65925 1.0079 0.0
N515 N 0.31499 0.8096 0.93361 0.0
H516 H 0.47102 0.74475 0.88771 0.0
H517 H 0.41817 0.79292 0.88879 0.0
H518 H 0.27482 0.82876 0.94571 0.0
H519 H 0.31641 0.81639 0.90291 0.0
H520 H 0.41971 0.64787 0.03346 0.0
H521 H 0.46462 0.63626 0.99166 0.0
H522 H 0.40915 0.69702 0.0732 0.0
H523 H 0.34939 0.74278 0.07338 0.0
C524 C 0.24345 0.71198 0.47777 0.0
C525 C 0.21353 0.72424 0.51342 0.0
C526 C 0.30454 0.77034 0.52911 0.0
C527 C 0.32746 0.76259 0.49073 0.0
N528 N 0.31652 0.7284 0.42674 0.0
N529 N 0.21137 0.76718 0.57198 0.0
C530 C 0.29714 0.73356 0.46477 0.0
C531 C 0.243 0.75394 0.53891 0.0
N532 N 0.21987 0.68014 0.456 0.0
N533 N 0.34284 0.79274 0.55647 0.0
H534 H 0.16785 0.75496 0.5813 0.0
H535 H 0.22508 0.79224 0.58873 0.0
H536 H 0.389 0.80455 0.55025 0.0
H537 H 0.33346 0.79617 0.58654 0.0
H538 H 0.24556 0.66653 0.43272 0.0
H539 H 0.17718 0.66537 0.46277 0.0
H540 H 0.28966 0.71196 0.40431 0.0
H541 H 0.35713 0.74262 0.41658 0.0
C542 C 0.36456 0.20669 0.06162 0.0
C543 C 0.34938 0.20312 0.01871 0.0
C544 C 0.41594 0.261 1.00861 0.0
C545 C 0.4383 0.26122 0.05142 0.0
N546 N 0.44585 0.22808 0.11793 0.0
N547 N 0.37272 0.22165 0.95141 0.0
C548 C 0.41574 0.23242 0.07779 0.0
C549 C 0.37849 0.22882 0.99218 0.0
N550 N 0.32853 0.1865 0.08698 0.0
N551 N 0.42769 0.29244 0.98371 0.0
H552 H 0.34646 0.19815 0.9382 0.0
H553 H 0.39963 0.23656 0.9314 0.0
H554 H 0.45282 0.31731 0.99454 0.0
H555 H 0.40593 0.29602 0.95293 0.0
H556 H 0.33199 0.19135 0.11815 0.0
H557 H 0.2896 0.16803 0.07632 0.0
H558 H 0.43668 0.20478 0.13762 0.0
H559 H 0.48598 0.24494 0.13048 0.0
C560 C 0.86303 0.75086 0.5227 0.0
C561 C 0.86468 0.70762 0.51841 0.0
C562 C 0.76352 0.72045 0.46191 0.0
C563 C 0.75854 0.76346 0.46825 0.0
N564 N 0.79619 0.81974 0.50787 0.0
N565 N 0.81444 0.65047 0.48609 0.0
C566 C 0.8067 0.77877 0.49931 0.0
C567 C 0.81406 0.69219 0.48872 0.0
N568 N 0.91549 0.76527 0.54915 0.0
N569 N 0.72164 0.70687 0.42918 0.0
H570 H 0.85343 0.62866 0.5031 0.0
H571 H 0.77393 0.63717 0.46873 0.0
H572 H 0.68455 0.7268 0.40886 0.0
H573 H 0.72725 0.67649 0.42003 0.0
H574 H 0.92317 0.79615 0.5499 0.0
H575 H 0.95436 0.74598 0.56907 0.0
H576 H 0.82363 0.83214 0.53314 0.0
H577 H 0.75599 0.84121 0.49132 0.0
C578 C 0.89316 0.2503 1.01006 0.0
C579 C 0.83516 0.27301 0.9834 0.0
C580 C 0.88697 0.24408 0.92464 0.0
C581 C 0.9378 0.2163 0.95143 0.0
N582 N 0.9802 0.18837 0.02044 0.0
N583 N 0.77153 0.28881 0.91526 0.0
C584 C 0.93906 0.21831 0.99442 0.0
C585 C 0.83063 0.26933 0.94059 0.0
N586 N 0.90534 0.25975 0.05022 0.0
N587 N 0.89393 0.24724 0.88421 0.0
H588 H 0.72927 0.30773 0.92584 0.0
H589 H 0.76161 0.28351 0.8842 0.0
H590 H 0.93657 0.2305 0.87189 0.0
H591 H 0.86223 0.2695 0.86392 0.0
H592 H 0.95133 0.2469 0.07005 0.0
H593 H 0.87349 0.28357 0.06262 0.0
H594 H 0.97606 0.18614 0.05143 0.0
H595 H 0.01321 0.16332 1.01089 0.0
C596 C 0.77533 0.24637 0.46581 0.0
C597 C 0.81433 0.26976 0.49447 0.0
C598 C 0.73776 0.25558 0.54548 0.0
C599 C 0.7022 0.22977 0.5178 0.0
N600 N 0.69426 0.19524 0.45383 0.0
N601 N 0.84411 0.28887 0.56397 0.0
C602 C 0.72385 0.22311 0.47883 0.0
C603 C 0.79899 0.27195 0.53508 0.0
N604 N 0.78373 0.24854 0.42558 0.0
N605 N 0.71234 0.26528 0.58131 0.0
H606 H 0.89025 0.30048 0.55744 0.0
H607 H 0.84009 0.28762 0.595 0.0
H608 H 0.66857 0.25345 0.59075 0.0
H609 H 0.7311 0.28766 0.6003 0.0
H610 H 0.75069 0.23625 0.40245 0.0
H611 H 0.8199 0.26572 0.41474 0.0
H612 H 0.71448 0.1854 0.4274 0.0
H613 H 0.6524 0.17981 0.4607 0.0
C614 C 0.85612 0.7111 0.06424 0.0
C615 C 0.848 0.70407 0.02176 0.0
C616 C 0.9208 0.75901 0.01154 0.0
C617 C 0.93671 0.76227 0.05452 0.0
N618 N 0.9289 0.73606 0.12221 0.0
N619 N 0.8827 0.71658 0.95572 0.0
C620 C 0.90664 0.73699 0.08105 0.0
C621 C 0.8831 0.72675 0.99558 0.0
N622 N 0.81413 0.69393 0.08841 0.0
N623 N 0.93895 0.78779 0.98582 0.0
H624 H 0.85592 0.69312 0.94284 0.0
H625 H 0.91411 0.72895 0.93644 0.0
H626 H 0.96425 0.81278 0.99614 0.0
H627 H 0.92215 0.78936 0.95442 0.0
H628 H 0.81216 0.70142 0.1187 0.0
H629 H 0.7759 0.67527 0.07714 0.0
H630 H 0.91453 0.71505 0.14255 0.0
H631 H 0.96735 0.75351 0.13576 0.0
loop_
_geom_bond_atom_site_label_1
_geom_bond_atom_site_label_2
_geom_bond_distance
_geom_bond_site_symmetry_2
_ccdc_geom_bond_type
Co0 O3 1.970 . S
Co0 N17 1.989 . S
Co0 O25 1.967 . S
Co0 O32 1.920 . S
Co1 O4 1.966 . S
Co1 N10 2.022 1_455 S
Co1 N18 1.993 1_455 S
Co1 O26 1.941 . S
C2 O3 1.258 . S
C2 O4 1.263 . S
O3 Co0 1.970 . S
O3 C2 1.258 . S
O4 Co1 1.966 . S
O4 C2 1.263 . S
C5 O6 1.235 . S
C5 O32 1.289 . S
O6 C5 1.235 . S
C7 C9 1.400 . S
C7 N10 1.351 . S
C7 C12 1.501 . S
C8 C9 1.387 . S
C8 N11 1.341 . S
C9 C7 1.400 . S
C9 C8 1.387 . S
N10 Co1 2.022 1_655 S
N10 C7 1.351 . S
N10 N11 1.365 . S
N11 C8 1.341 . S
N11 N10 1.365 . S
N11 H31 0.862 . S
C12 C7 1.501 . S
C12 H13 0.961 1_655 S
C12 H14 0.961 . S
C12 H15 0.960 . S
H13 C12 0.961 1_455 S
H14 C12 0.961 . S
H15 C12 0.960 . S
C16 N17 1.342 1_655 S
C16 C20 1.401 . S
C16 C21 1.499 1_655 S
N17 Co0 1.989 . S
N17 C16 1.342 1_455 S
N17 N18 1.388 1_455 S
N18 Co1 1.993 1_655 S
N18 N17 1.388 1_655 S
N18 C19 1.346 . S
C19 N18 1.346 . S
C19 C20 1.396 . S
C19 C29 1.510 . S
C20 C16 1.401 . S
C20 C19 1.396 . S
C21 C16 1.499 1_455 S
C21 H22 0.959 . S
C21 H23 0.960 . S
C21 H24 0.961 . S
H22 C21 0.959 . S
H23 C21 0.960 . S
H24 C21 0.961 . S
O25 Co0 1.967 . S
O25 C33 1.258 . S
O26 Co1 1.941 . S
O26 C33 1.266 . S
H27 C29 0.959 . S
H28 C29 0.961 . S
C29 C19 1.510 . S
C29 H27 0.959 . S
C29 H28 0.961 . S
C29 H30 0.960 . S
H30 C29 0.960 . S
H31 N11 0.862 . S
O32 Co0 1.920 . S
O32 C5 1.289 . S
C33 O25 1.258 . S
C33 O26 1.266 . S
Co34 O37 1.970 . S
Co34 N51 1.989 . S
Co34 O59 1.967 . S
Co34 O66 1.920 . S
Co35 O38 1.966 . S
Co35 N44 2.022 . S
Co35 N52 1.993 . S
Co35 O60 1.941 . S
C36 O37 1.258 . S
C36 O38 1.263 . S
O37 Co34 1.970 . S
O37 C36 1.258 . S
O38 Co35 1.966 . S
O38 C36 1.263 . S
C39 O40 1.235 . S
C39 O66 1.289 . S
O40 C39 1.235 . S
C41 C43 1.400 . S
C41 N44 1.351 . S
C41 C46 1.501 . S
C42 C43 1.387 . S
C42 N45 1.341 . S
C43 C41 1.400 . S
C43 C42 1.387 . S
N44 Co35 2.022 . S
N44 C41 1.351 . S
N44 N45 1.365 . S
N45 C42 1.341 . S
N45 N44 1.365 . S
N45 H65 0.862 . S
C46 C41 1.501 . S
C46 H47 0.961 . S
C46 H48 0.961 . S
C46 H49 0.960 1_556 S
H47 C46 0.961 . S
H48 C46 0.961 . S
H49 C46 0.960 1_554 S
C50 N51 1.342 . S
C50 C54 1.401 . S
C50 C55 1.499 . S
N51 Co34 1.989 . S
N51 C50 1.342 . S
N51 N52 1.388 . S
N52 Co35 1.993 . S
N52 N51 1.388 . S
N52 C53 1.346 . S
C53 N52 1.346 . S
C53 C54 1.396 . S
C53 C63 1.510 . S
C54 C50 1.401 . S
C54 C53 1.396 . S
C55 C50 1.499 . S
C55 H56 0.959 . S
C55 H57 0.960 . S
C55 H58 0.961 . S
H56 C55 0.959 . S
H57 C55 0.960 . S
H58 C55 0.961 . S
O59 Co34 1.967 . S
O59 C67 1.258 . S
O60 Co35 1.941 . S
O60 C67 1.266 . S
H61 C63 0.959 . S
H62 C63 0.961 . S
C63 C53 1.510 . S
C63 H61 0.959 . S
C63 H62 0.961 . S
C63 H64 0.960 . S
H64 C63 0.960 . S
H65 N45 0.862 . S
O66 Co34 1.920 . S
O66 C39 1.289 . S
C67 O59 1.258 . S
C67 O60 1.266 . S
Co68 O71 1.970 1_455 S
Co68 N85 1.989 . S
Co68 O93 1.967 . S
Co68 O100 1.920 . S
Co69 O72 1.966 . S
Co69 N78 2.022 . S
Co69 N86 1.993 1_655 S
Co69 O94 1.941 . S
C70 O71 1.258 . S
C70 O72 1.263 . S
O71 Co68 1.970 1_655 S
O71 C70 1.258 . S
O72 Co69 1.966 . S
O72 C70 1.263 . S
C73 O74 1.235 . S
C73 O100 1.289 . S
O74 C73 1.235 . S
C75 C77 1.400 . S
C75 N78 1.351 . S
C75 C80 1.501 . S
C76 C77 1.387 . S
C76 N79 1.341 . S
C77 C75 1.400 . S
C77 C76 1.387 . S
N78 Co69 2.022 . S
N78 C75 1.351 . S
N78 N79 1.365 . S
N79 C76 1.341 . S
N79 N78 1.365 . S
N79 H99 0.862 . S
C80 C75 1.501 . S
C80 H81 0.961 . S
C80 H82 0.961 . S
C80 H83 0.960 . S
H81 C80 0.961 . S
H82 C80 0.961 . S
H83 C80 0.960 . S
C84 N85 1.342 . S
C84 C88 1.401 . S
C84 C89 1.499 . S
N85 Co68 1.989 . S
N85 C84 1.342 . S
N85 N86 1.388 . S
N86 Co69 1.993 1_455 S
N86 N85 1.388 . S
N86 C87 1.346 . S
C87 N86 1.346 . S
C87 C88 1.396 . S
C87 C97 1.510 . S
C88 C84 1.401 . S
C88 C87 1.396 . S
C89 C84 1.499 . S
C89 H90 0.959 . S
C89 H91 0.960 . S
C89 H92 0.961 . S
H90 C89 0.959 . S
H91 C89 0.960 . S
H92 C89 0.961 . S
O93 Co68 1.967 . S
O93 C101 1.258 . S
O94 Co69 1.941 . S
O94 C101 1.266 1_655 S
H95 C97 0.959 . S
H96 C97 0.961 . S
C97 C87 1.510 . S
C97 H95 0.959 . S
C97 H96 0.961 . S
C97 H98 0.960 . S
H98 C97 0.960 . S
H99 N79 0.862 . S
O100 Co68 1.920 . S
O100 C73 1.289 . S
C101 O93 1.258 . S
C101 O94 1.266 1_455 S
Co102 O105 1.970 . S
Co102 N119 1.989 . S
Co102 O127 1.967 . S
Co102 O134 1.920 . S
Co103 O106 1.966 . S
Co103 N112 2.022 . S
Co103 N120 1.993 . S
Co103 O128 1.941 . S
C104 O105 1.258 . S
C104 O106 1.263 . S
O105 Co102 1.970 . S
O105 C104 1.258 . S
O106 Co103 1.966 . S
O106 C104 1.263 . S
C107 O108 1.235 . S
C107 O134 1.289 . S
O108 C107 1.235 . S
C109 C111 1.400 . S
C109 N112 1.351 . S
C109 C114 1.501 . S
C110 C111 1.387 . S
C110 N113 1.341 . S
C111 C109 1.400 . S
C111 C110 1.387 . S
N112 Co103 2.022 . S
N112 C109 1.351 . S
N112 N113 1.365 . S
N113 C110 1.341 . S
N113 N112 1.365 . S
N113 H133 0.862 . S
C114 C109 1.501 . S
C114 H115 0.961 . S
C114 H116 0.961 . S
C114 H117 0.960 1_554 S
H115 C114 0.961 . S
H116 C114 0.961 . S
H117 C114 0.960 1_556 S
C118 N119 1.342 . S
C118 C122 1.401 . S
C118 C123 1.499 . S
N119 Co102 1.989 . S
N119 C118 1.342 . S
N119 N120 1.388 . S
N120 Co103 1.993 . S
N120 N119 1.388 . S
N120 C121 1.346 . S
C121 N120 1.346 . S
C121 C122 1.396 . S
C121 C131 1.510 . S
C122 C118 1.401 . S
C122 C121 1.396 . S
C123 C118 1.499 . S
C123 H124 0.959 . S
C123 H125 0.960 . S
C123 H126 0.961 . S
H124 C123 0.959 . S
H125 C123 0.960 . S
H126 C123 0.961 . S
O127 Co102 1.967 . S
O127 C135 1.258 . S
O128 Co103 1.941 . S
O128 C135 1.266 . S
H129 C131 0.959 . S
H130 C131 0.961 . S
C131 C121 1.510 . S
C131 H129 0.959 . S
C131 H130 0.961 . S
C131 H132 0.960 . S
H132 C131 0.960 . S
H133 N113 0.862 . S
O134 Co102 1.920 . S
O134 C107 1.289 . S
C135 O127 1.258 . S
C135 O128 1.266 . S
Co136 O139 1.970 . S
Co136 N153 1.989 . S
Co136 O161 1.967 . S
Co136 O168 1.920 . S
Co137 O140 1.966 . S
Co137 N146 2.022 . S
Co137 N154 1.993 . S
Co137 O162 1.941 . S
C138 O139 1.258 . S
C138 O140 1.263 . S
O139 Co136 1.970 . S
O139 C138 1.258 . S
O140 Co137 1.966 . S
O140 C138 1.263 . S
C141 O142 1.235 . S
C141 O168 1.289 . S
O142 C141 1.235 . S
C143 C145 1.400 . S
C143 N146 1.351 . S
C143 C148 1.501 . S
C144 C145 1.387 . S
C144 N147 1.341 . S
C145 C143 1.400 . S
C145 C144 1.387 . S
N146 Co137 2.022 . S
N146 C143 1.351 . S
N146 N147 1.365 . S
N147 C144 1.341 . S
N147 N146 1.365 . S
N147 H167 0.862 . S
C148 C143 1.501 . S
C148 H149 0.961 . S
C148 H150 0.961 . S
C148 H151 0.960 . S
H149 C148 0.961 . S
H150 C148 0.961 . S
H151 C148 0.960 . S
C152 N153 1.342 . S
C152 C156 1.401 . S
C152 C157 1.499 . S
N153 Co136 1.989 . S
N153 C152 1.342 . S
N153 N154 1.388 . S
N154 Co137 1.993 . S
N154 N153 1.388 . S
N154 C155 1.346 . S
C155 N154 1.346 . S
C155 C156 1.396 . S
C155 C165 1.510 . S
C156 C152 1.401 . S
C156 C155 1.396 . S
C157 C152 1.499 . S
C157 H158 0.959 . S
C157 H159 0.960 . S
C157 H160 0.961 . S
H158 C157 0.959 . S
H159 C157 0.960 . S
H160 C157 0.961 . S
O161 Co136 1.967 . S
O161 C169 1.258 . S
O162 Co137 1.941 . S
O162 C169 1.266 . S
H163 C165 0.959 . S
H164 C165 0.961 . S
C165 C155 1.510 . S
C165 H163 0.959 . S
C165 H164 0.961 . S
C165 H166 0.960 . S
H166 C165 0.960 . S
H167 N147 0.862 . S
O168 Co136 1.920 . S
O168 C141 1.289 . S
C169 O161 1.258 . S
C169 O162 1.266 . S
Co170 O173 1.970 . S
Co170 N187 1.989 1_655 S
Co170 O195 1.967 1_655 S
Co170 O202 1.920 . S
Co171 O174 1.966 . S
Co171 N180 2.022 . S
Co171 N188 1.993 . S
Co171 O196 1.941 . S
C172 O173 1.258 . S
C172 O174 1.263 1_655 S
O173 Co170 1.970 . S
O173 C172 1.258 . S
O174 Co171 1.966 . S
O174 C172 1.263 1_455 S
C175 O176 1.235 . S
C175 O202 1.289 . S
O176 C175 1.235 . S
C177 C179 1.400 . S
C177 N180 1.351 . S
C177 C182 1.501 . S
C178 C179 1.387 . S
C178 N181 1.341 . S
C179 C177 1.400 . S
C179 C178 1.387 . S
N180 Co171 2.022 . S
N180 C177 1.351 . S
N180 N181 1.365 . S
N181 C178 1.341 . S
N181 N180 1.365 . S
N181 H201 0.862 . S
C182 C177 1.501 . S
C182 H183 0.961 . S
C182 H184 0.961 . S
C182 H185 0.960 1_556 S
H183 C182 0.961 . S
H184 C182 0.961 . S
H185 C182 0.960 1_554 S
C186 N187 1.342 . S
C186 C190 1.401 . S
C186 C191 1.499 . S
N187 Co170 1.989 1_455 S
N187 C186 1.342 . S
N187 N188 1.388 . S
N188 Co171 1.993 . S
N188 N187 1.388 . S
N188 C189 1.346 . S
C189 N188 1.346 . S
C189 C190 1.396 . S
C189 C199 1.510 . S
C190 C186 1.401 . S
C190 C189 1.396 . S
C191 C186 1.499 . S
C191 H192 0.959 . S
C191 H193 0.960 . S
C191 H194 0.961 . S
H192 C191 0.959 . S
H193 C191 0.960 . S
H194 C191 0.961 . S
O195 Co170 1.967 1_455 S
O195 C203 1.258 . S
O196 Co171 1.941 . S
O196 C203 1.266 . S
H197 C199 0.959 . S
H198 C199 0.961 . S
C199 C189 1.510 . S
C199 H197 0.959 . S
C199 H198 0.961 . S
C199 H200 0.960 . S
H200 C199 0.960 . S
H201 N181 0.862 . S
O202 Co170 1.920 . S
O202 C175 1.289 . S
C203 O195 1.258 . S
C203 O196 1.266 . S
Co204 O207 1.970 . S
Co204 N221 1.989 . S
Co204 O229 1.967 . S
Co204 O236 1.920 . S
Co205 O208 1.966 . S
Co205 N214 2.022 . S
Co205 N222 1.993 . S
Co205 O230 1.941 . S
C206 O207 1.258 . S
C206 O208 1.263 . S
O207 Co204 1.970 . S
O207 C206 1.258 . S
O208 Co205 1.966 . S
O208 C206 1.263 . S
C209 O210 1.235 . S
C209 O236 1.289 . S
O210 C209 1.235 . S
C211 C213 1.400 . S
C211 N214 1.351 . S
C211 C216 1.501 . S
C212 C213 1.387 . S
C212 N215 1.341 . S
C213 C211 1.400 . S
C213 C212 1.387 . S
N214 Co205 2.022 . S
N214 C211 1.351 . S
N214 N215 1.365 . S
N215 C212 1.341 . S
N215 N214 1.365 . S
N215 H235 0.862 . S
C216 C211 1.501 . S
C216 H217 0.961 . S
C216 H218 0.961 . S
C216 H219 0.960 . S
H217 C216 0.961 . S
H218 C216 0.961 . S
H219 C216 0.960 . S
C220 N221 1.342 . S
C220 C224 1.401 . S
C220 C225 1.499 . S
N221 Co204 1.989 . S
N221 C220 1.342 . S
N221 N222 1.388 . S
N222 Co205 1.993 . S
N222 N221 1.388 . S
N222 C223 1.346 . S
C223 N222 1.346 . S
C223 C224 1.396 . S
C223 C233 1.510 . S
C224 C220 1.401 . S
C224 C223 1.396 . S
C225 C220 1.499 . S
C225 H226 0.959 . S
C225 H227 0.960 . S
C225 H228 0.961 . S
H226 C225 0.959 . S
H227 C225 0.960 . S
H228 C225 0.961 . S
O229 Co204 1.967 . S
O229 C237 1.258 . S
O230 Co205 1.941 . S
O230 C237 1.266 . S
H231 C233 0.959 . S
H232 C233 0.961 . S
C233 C223 1.510 . S
C233 H231 0.959 . S
C233 H232 0.961 . S
C233 H234 0.960 . S
H234 C233 0.960 . S
H235 N215 0.862 . S
O236 Co204 1.920 . S
O236 C209 1.289 . S
C237 O229 1.258 . S
C237 O230 1.266 . S
Co238 O241 1.970 . S
Co238 N255 1.989 1_655 S
Co238 O263 1.967 . S
Co238 O270 1.920 . S
Co239 O242 1.966 . S
Co239 N248 2.022 . S
Co239 N256 1.993 . S
Co239 O264 1.941 . S
C240 O241 1.258 . S
C240 O242 1.263 1_655 S
O241 Co238 1.970 . S
O241 C240 1.258 . S
O242 Co239 1.966 . S
O242 C240 1.263 1_455 S
C243 O244 1.235 . S
C243 O270 1.289 . S
O244 C243 1.235 . S
C245 C247 1.400 . S
C245 N248 1.351 . S
C245 C250 1.501 . S
C246 C247 1.387 . S
C246 N249 1.341 . S
C247 C245 1.400 . S
C247 C246 1.387 . S
N248 Co239 2.022 . S
N248 C245 1.351 . S
N248 N249 1.365 . S
N249 C246 1.341 . S
N249 N248 1.365 . S
N249 H269 0.862 . S
C250 C245 1.501 . S
C250 H251 0.961 . S
C250 H252 0.961 . S
C250 H253 0.960 1_554 S
H251 C250 0.961 . S
H252 C250 0.961 . S
H253 C250 0.960 1_556 S
C254 N255 1.342 . S
C254 C258 1.401 . S
C254 C259 1.499 . S
N255 Co238 1.989 1_455 S
N255 C254 1.342 . S
N255 N256 1.388 . S
N256 Co239 1.993 . S
N256 N255 1.388 . S
N256 C257 1.346 . S
C257 N256 1.346 . S
C257 C258 1.396 . S
C257 C267 1.510 . S
C258 C254 1.401 . S
C258 C257 1.396 . S
C259 C254 1.499 . S
C259 H260 0.959 . S
C259 H261 0.960 . S
C259 H262 0.961 . S
H260 C259 0.959 . S
H261 C259 0.960 . S
H262 C259 0.961 . S
O263 Co238 1.967 . S
O263 C271 1.258 1_655 S
O264 Co239 1.941 . S
O264 C271 1.266 . S
H265 C267 0.959 . S
H266 C267 0.961 . S
C267 C257 1.510 . S
C267 H265 0.959 . S
C267 H266 0.961 . S
C267 H268 0.960 . S
H268 C267 0.960 . S
H269 N249 0.862 . S
O270 Co238 1.920 . S
O270 C243 1.289 . S
C271 O263 1.258 1_455 S
C271 O264 1.266 . S
C272 C273 1.363 . S
C272 C278 1.379 . S
C272 N280 1.356 . S
C273 C272 1.363 . S
C273 C279 1.363 . S
C274 C275 1.363 . S
C274 C279 1.379 . S
C274 N281 1.356 . S
C275 C274 1.363 . S
C275 C278 1.363 . S
N276 C278 1.356 . S
N276 H288 0.984 . S
N276 H289 0.985 . S
N277 C279 1.356 . S
N277 H282 0.984 . S
N277 H283 0.985 . S
C278 C272 1.379 . S
C278 C275 1.363 . S
C278 N276 1.356 . S
C279 C273 1.363 . S
C279 C274 1.379 . S
C279 N277 1.356 . S
N280 C272 1.356 . S
N280 H286 0.984 . S
N280 H287 0.984 . S
N281 C274 1.356 . S
N281 H284 0.984 . S
N281 H285 0.985 . S
H282 N277 0.984 . S
H283 N277 0.985 . S
H284 N281 0.984 . S
H285 N281 0.985 . S
H286 N280 0.984 . S
H287 N280 0.984 . S
H288 N276 0.984 . S
H289 N276 0.985 . S
C290 C291 1.363 . S
C290 C296 1.379 . S
C290 N298 1.356 . S
C291 C290 1.363 . S
C291 C297 1.363 . S
C292 C293 1.363 . S
C292 C297 1.379 . S
C292 N299 1.356 . S
C293 C292 1.363 . S
C293 C296 1.363 . S
N294 C296 1.356 . S
N294 H306 0.984 . S
N294 H307 0.985 . S
N295 C297 1.356 . S
N295 H300 0.984 . S
N295 H301 0.985 . S
C296 C290 1.379 . S
C296 C293 1.363 . S
C296 N294 1.356 . S
C297 C291 1.363 . S
C297 C292 1.379 . S
C297 N295 1.356 . S
N298 C290 1.356 . S
N298 H304 0.984 . S
N298 H305 0.984 . S
N299 C292 1.356 . S
N299 H302 0.984 . S
N299 H303 0.985 . S
H300 N295 0.984 . S
H301 N295 0.985 . S
H302 N299 0.984 . S
H303 N299 0.985 . S
H304 N298 0.984 . S
H305 N298 0.984 . S
H306 N294 0.984 . S
H307 N294 0.985 . S
C308 C309 1.363 . S
C308 C314 1.379 . S
C308 N316 1.356 . S
C309 C308 1.363 . S
C309 C315 1.363 . S
C310 C311 1.363 . S
C310 C315 1.379 . S
C310 N317 1.356 . S
C311 C310 1.363 . S
C311 C314 1.363 . S
N312 C314 1.356 . S
N312 H324 0.984 . S
N312 H325 0.985 . S
N313 C315 1.356 . S
N313 H318 0.984 . S
N313 H319 0.985 . S
C314 C308 1.379 . S
C314 C311 1.363 . S
C314 N312 1.356 . S
C315 C309 1.363 . S
C315 C310 1.379 . S
C315 N313 1.356 . S
N316 C308 1.356 . S
N316 H322 0.984 . S
N316 H323 0.984 . S
N317 C310 1.356 . S
N317 H320 0.984 . S
N317 H321 0.985 . S
H318 N313 0.984 . S
H319 N313 0.985 . S
H320 N317 0.984 . S
H321 N317 0.985 . S
H322 N316 0.984 . S
H323 N316 0.984 . S
H324 N312 0.984 . S
H325 N312 0.985 . S
C326 C327 1.363 . S
C326 C332 1.379 . S
C326 N334 1.356 . S
C327 C326 1.363 . S
C327 C333 1.363 . S
C328 C329 1.363 . S
C328 C333 1.379 . S
C328 N335 1.356 . S
C329 C328 1.363 . S
C329 C332 1.363 . S
N330 C332 1.356 . S
N330 H342 0.984 . S
N330 H343 0.985 . S
N331 C333 1.356 . S
N331 H336 0.984 . S
N331 H337 0.985 . S
C332 C326 1.379 . S
C332 C329 1.363 . S
C332 N330 1.356 . S
C333 C327 1.363 . S
C333 C328 1.379 . S
C333 N331 1.356 . S
N334 C326 1.356 . S
N334 H340 0.984 . S
N334 H341 0.984 . S
N335 C328 1.356 . S
N335 H338 0.984 . S
N335 H339 0.985 . S
H336 N331 0.984 . S
H337 N331 0.985 . S
H338 N335 0.984 . S
H339 N335 0.985 . S
H340 N334 0.984 . S
H341 N334 0.984 . S
H342 N330 0.984 . S
H343 N330 0.985 . S
C344 C345 1.363 . S
C344 C350 1.379 . S
C344 N352 1.356 . S
C345 C344 1.363 . S
C345 C351 1.363 . S
C346 C347 1.363 . S
C346 C351 1.379 . S
C346 N353 1.356 . S
C347 C346 1.363 . S
C347 C350 1.363 . S
N348 C350 1.356 . S
N348 H360 0.984 . S
N348 H361 0.985 . S
N349 C351 1.356 . S
N349 H354 0.984 . S
N349 H355 0.985 . S
C350 C344 1.379 . S
C350 C347 1.363 . S
C350 N348 1.356 . S
C351 C345 1.363 . S
C351 C346 1.379 . S
C351 N349 1.356 . S
N352 C344 1.356 . S
N352 H358 0.984 . S
N352 H359 0.984 . S
N353 C346 1.356 . S
N353 H356 0.984 . S
N353 H357 0.985 . S
H354 N349 0.984 . S
H355 N349 0.985 . S
H356 N353 0.984 . S
H357 N353 0.985 . S
H358 N352 0.984 . S
H359 N352 0.984 . S
H360 N348 0.984 . S
H361 N348 0.985 . S
C362 C363 1.363 . S
C362 C368 1.379 . S
C362 N370 1.356 . S
C363 C362 1.363 . S
C363 C369 1.363 . S
C364 C365 1.363 . S
C364 C369 1.379 . S
C364 N371 1.356 . S
C365 C364 1.363 . S
C365 C368 1.363 . S
N366 C368 1.356 . S
N366 H378 0.984 . S
N366 H379 0.985 . S
N367 C369 1.356 . S
N367 H372 0.984 . S
N367 H373 0.985 . S
C368 C362 1.379 . S
C368 C365 1.363 . S
C368 N366 1.356 . S
C369 C363 1.363 . S
C369 C364 1.379 . S
C369 N367 1.356 . S
N370 C362 1.356 . S
N370 H376 0.984 . S
N370 H377 0.984 . S
N371 C364 1.356 . S
N371 H374 0.984 . S
N371 H375 0.985 . S
H372 N367 0.984 . S
H373 N367 0.985 . S
H374 N371 0.984 . S
H375 N371 0.985 . S
H376 N370 0.984 . S
H377 N370 0.984 . S
H378 N366 0.984 . S
H379 N366 0.985 . S
C380 C381 1.363 . S
C380 C386 1.379 . S
C380 N388 1.356 . S
C381 C380 1.363 . S
C381 C387 1.363 . S
C382 C383 1.363 . S
C382 C387 1.379 . S
C382 N389 1.356 . S
C383 C382 1.363 . S
C383 C386 1.363 . S
N384 C386 1.356 . S
N384 H396 0.984 . S
N384 H397 0.985 . S
N385 C387 1.356 . S
N385 H390 0.984 . S
N385 H391 0.985 . S
C386 C380 1.379 . S
C386 C383 1.363 . S
C386 N384 1.356 . S
C387 C381 1.363 . S
C387 C382 1.379 . S
C387 N385 1.356 . S
N388 C380 1.356 . S
N388 H394 0.984 . S
N388 H395 0.984 . S
N389 C382 1.356 . S
N389 H392 0.984 . S
N389 H393 0.985 . S
H390 N385 0.984 . S
H391 N385 0.985 . S
H392 N389 0.984 . S
H393 N389 0.985 . S
H394 N388 0.984 . S
H395 N388 0.984 . S
H396 N384 0.984 . S
H397 N384 0.985 . S
C398 C399 1.363 . S
C398 C404 1.379 . S
C398 N406 1.356 . S
C399 C398 1.363 . S
C399 C405 1.363 . S
C400 C401 1.363 . S
C400 C405 1.379 . S
C400 N407 1.356 . S
C401 C400 1.363 . S
C401 C404 1.363 . S
N402 C404 1.356 . S
N402 H414 0.984 . S
N402 H415 0.985 . S
N403 C405 1.356 . S
N403 H408 0.984 . S
N403 H409 0.985 . S
C404 C398 1.379 . S
C404 C401 1.363 . S
C404 N402 1.356 . S
C405 C399 1.363 . S
C405 C400 1.379 . S
C405 N403 1.356 . S
N406 C398 1.356 . S
N406 H412 0.984 . S
N406 H413 0.984 . S
N407 C400 1.356 . S
N407 H410 0.984 . S
N407 H411 0.985 . S
H408 N403 0.984 . S
H409 N403 0.985 . S
H410 N407 0.984 . S
H411 N407 0.985 . S
H412 N406 0.984 . S
H413 N406 0.984 . S
H414 N402 0.984 . S
H415 N402 0.985 . S
C416 C417 1.363 . S
C416 C422 1.379 . S
C416 N424 1.356 1_455 S
C417 C416 1.363 . S
C417 C423 1.363 . S
C418 C419 1.363 . S
C418 C423 1.379 . S
C418 N425 1.356 . S
C419 C418 1.363 . S
C419 C422 1.363 . S
N420 C422 1.356 . S
N420 H432 0.984 1_455 S
N420 H433 0.985 . S
N421 C423 1.356 . S
N421 H426 0.984 . S
N421 H427 0.985 . S
C422 C416 1.379 . S
C422 C419 1.363 . S
C422 N420 1.356 . S
C423 C417 1.363 . S
C423 C418 1.379 . S
C423 N421 1.356 . S
N424 C416 1.356 1_655 S
N424 H430 0.984 . S
N424 H431 0.984 . S
N425 C418 1.356 . S
N425 H428 0.984 . S
N425 H429 0.985 . S
H426 N421 0.984 . S
H427 N421 0.985 . S
H428 N425 0.984 . S
H429 N425 0.985 . S
H430 N424 0.984 . S
H431 N424 0.984 . S
H432 N420 0.984 1_655 S
H433 N420 0.985 . S
C434 C435 1.363 1_554 S
C434 C440 1.379 . S
C434 N442 1.356 . S
C435 C434 1.363 1_556 S
C435 C441 1.363 . S
C436 C437 1.363 1_556 S
C436 C441 1.379 . S
C436 N443 1.356 . S
C437 C436 1.363 1_554 S
C437 C440 1.363 . S
N438 C440 1.356 . S
N438 H450 0.984 . S
N438 H451 0.985 . S
N439 C441 1.356 . S
N439 H444 0.984 . S
N439 H445 0.985 . S
C440 C434 1.379 . S
C440 C437 1.363 . S
C440 N438 1.356 . S
C441 C435 1.363 . S
C441 C436 1.379 . S
C441 N439 1.356 . S
N442 C434 1.356 . S
N442 H448 0.984 . S
N442 H449 0.984 1_554 S
N443 C436 1.356 . S
N443 H446 0.984 1_556 S
N443 H447 0.985 . S
H444 N439 0.984 . S
H445 N439 0.985 . S
H446 N443 0.984 1_554 S
H447 N443 0.985 . S
H448 N442 0.984 . S
H449 N442 0.984 1_556 S
H450 N438 0.984 . S
H451 N438 0.985 . S
C452 C453 1.363 1_565 S
C452 C458 1.379 . S
C452 N460 1.356 1_565 S
C453 C452 1.363 1_545 S
C453 C459 1.363 . S
C454 C455 1.363 . S
C454 C459 1.379 1_565 S
C454 N461 1.356 . S
C455 C454 1.363 . S
C455 C458 1.363 . S
N456 C458 1.356 . S
N456 H468 0.984 . S
N456 H469 0.985 . S
N457 C459 1.356 . S
N457 H462 0.984 . S
N457 H463 0.985 . S
C458 C452 1.379 . S
C458 C455 1.363 . S
C458 N456 1.356 . S
C459 C453 1.363 . S
C459 C454 1.379 1_545 S
C459 N457 1.356 . S
N460 C452 1.356 1_545 S
N460 H466 0.984 1_545 S
N460 H467 0.984 . S
N461 C454 1.356 . S
N461 H464 0.984 . S
N461 H465 0.985 . S
H462 N457 0.984 . S
H463 N457 0.985 . S
H464 N461 0.984 . S
H465 N461 0.985 . S
H466 N460 0.984 1_565 S
H467 N460 0.984 . S
H468 N456 0.984 . S
H469 N456 0.985 . S
C470 C471 1.380 1_655 S
C470 C476 1.363 1_664 S
C470 N478 1.361 . S
C471 C470 1.380 1_455 S
C471 C477 1.363 1_554 S
C472 C473 1.363 1_565 S
C472 C477 1.379 . S
C472 N479 1.356 . S
C473 C472 1.363 1_545 S
C473 C476 1.363 . S
N474 C476 1.356 1_655 S
N474 H486 0.984 1_556 S
N474 H487 0.985 1_655 S
N475 C477 1.356 . S
N475 H480 0.984 1_556 S
N475 H481 0.985 . S
C476 C470 1.363 1_446 S
C476 C473 1.363 . S
C476 N474 1.356 1_455 S
C477 C471 1.363 1_556 S
C477 C472 1.379 . S
C477 N475 1.356 . S
N478 C470 1.361 . S
N478 H484 0.984 1_565 S
N478 H485 0.984 . S
N479 C472 1.356 . S
N479 H482 0.984 1_565 S
N479 H483 0.985 . S
H480 N475 0.984 1_554 S
H481 N475 0.985 . S
H482 N479 0.984 1_545 S
H483 N479 0.985 . S
H484 N478 0.984 1_545 S
H485 N478 0.984 . S
H486 N474 0.984 1_554 S
H487 N474 0.985 1_455 S
C488 C489 1.363 . S
C488 C494 1.379 . S
C488 N496 1.356 . S
C489 C488 1.363 . S
C489 C495 1.363 . S
C490 C491 1.363 . S
C490 C495 1.379 . S
C490 N497 1.356 . S
C491 C490 1.363 . S
C491 C494 1.363 . S
N492 C494 1.356 . S
N492 H504 0.984 . S
N492 H505 0.985 . S
N493 C495 1.356 . S
N493 H498 0.984 . S
N493 H499 0.985 . S
C494 C488 1.379 . S
C494 C491 1.363 . S
C494 N492 1.356 . S
C495 C489 1.363 . S
C495 C490 1.379 . S
C495 N493 1.356 . S
N496 C488 1.356 . S
N496 H502 0.984 . S
N496 H503 0.984 . S
N497 C490 1.356 . S
N497 H500 0.984 . S
N497 H501 0.985 . S
H498 N493 0.984 . S
H499 N493 0.985 . S
H500 N497 0.984 . S
H501 N497 0.985 . S
H502 N496 0.984 . S
H503 N496 0.984 . S
H504 N492 0.984 . S
H505 N492 0.985 . S
C506 C507 1.363 . S
C506 C512 1.379 1_556 S
C506 N514 1.356 . S
C507 C506 1.363 . S
C507 C513 1.363 . S
C508 C509 1.363 . S
C508 C513 1.379 . S
C508 N515 1.356 . S
C509 C508 1.363 . S
C509 C512 1.363 1_556 S
N510 C512 1.356 . S
N510 H522 0.984 . S
N510 H523 0.985 . S
N511 C513 1.356 . S
N511 H516 0.984 . S
N511 H517 0.985 . S
C512 C506 1.379 1_554 S
C512 C509 1.363 1_554 S
C512 N510 1.356 . S
C513 C507 1.363 . S
C513 C508 1.379 . S
C513 N511 1.356 . S
N514 C506 1.356 . S
N514 H520 0.984 1_556 S
N514 H521 0.984 . S
N515 C508 1.356 . S
N515 H518 0.984 . S
N515 H519 0.985 . S
H516 N511 0.984 . S
H517 N511 0.985 . S
H518 N515 0.984 . S
H519 N515 0.985 . S
H520 N514 0.984 1_554 S
H521 N514 0.984 . S
H522 N510 0.984 . S
H523 N510 0.985 . S
C524 C525 1.363 . S
C524 C530 1.379 . S
C524 N532 1.356 . S
C525 C524 1.363 . S
C525 C531 1.363 . S
C526 C527 1.363 . S
C526 C531 1.379 . S
C526 N533 1.356 . S
C527 C526 1.363 . S
C527 C530 1.363 . S
N528 C530 1.356 . S
N528 H540 0.984 . S
N528 H541 0.985 . S
N529 C531 1.356 . S
N529 H534 0.984 . S
N529 H535 0.985 . S
C530 C524 1.379 . S
C530 C527 1.363 . S
C530 N528 1.356 . S
C531 C525 1.363 . S
C531 C526 1.379 . S
C531 N529 1.356 . S
N532 C524 1.356 . S
N532 H538 0.984 . S
N532 H539 0.984 . S
N533 C526 1.356 . S
N533 H536 0.984 . S
N533 H537 0.985 . S
H534 N529 0.984 . S
H535 N529 0.985 . S
H536 N533 0.984 . S
H537 N533 0.985 . S
H538 N532 0.984 . S
H539 N532 0.984 . S
H540 N528 0.984 . S
H541 N528 0.985 . S
C542 C543 1.363 . S
C542 C548 1.379 . S
C542 N550 1.356 . S
C543 C542 1.363 . S
C543 C549 1.363 1_554 S
C544 C545 1.363 1_556 S
C544 C549 1.379 . S
C544 N551 1.356 . S
C545 C544 1.363 1_554 S
C545 C548 1.363 . S
N546 C548 1.356 . S
N546 H558 0.984 . S
N546 H559 0.985 . S
N547 C549 1.356 . S
N547 H552 0.984 . S
N547 H553 0.985 . S
C548 C542 1.379 . S
C548 C545 1.363 . S
C548 N546 1.356 . S
C549 C543 1.363 1_556 S
C549 C544 1.379 . S
C549 N547 1.356 . S
N550 C542 1.356 . S
N550 H556 0.984 . S
N550 H557 0.984 . S
N551 C544 1.356 . S
N551 H554 0.984 . S
N551 H555 0.985 . S
H552 N547 0.984 . S
H553 N547 0.985 . S
H554 N551 0.984 . S
H555 N551 0.985 . S
H556 N550 0.984 . S
H557 N550 0.984 . S
H558 N546 0.984 . S
H559 N546 0.985 . S
C560 C561 1.363 . S
C560 C566 1.379 . S
C560 N568 1.356 . S
C561 C560 1.363 . S
C561 C567 1.363 . S
C562 C563 1.363 . S
C562 C567 1.379 . S
C562 N569 1.356 . S
C563 C562 1.363 . S
C563 C566 1.363 . S
N564 C566 1.356 . S
N564 H576 0.984 . S
N564 H577 0.985 . S
N565 C567 1.356 . S
N565 H570 0.984 . S
N565 H571 0.985 . S
C566 C560 1.379 . S
C566 C563 1.363 . S
C566 N564 1.356 . S
C567 C561 1.363 . S
C567 C562 1.379 . S
C567 N565 1.356 . S
N568 C560 1.356 . S
N568 H574 0.984 . S
N568 H575 0.984 . S
N569 C562 1.356 . S
N569 H572 0.984 . S
N569 H573 0.985 . S
H570 N565 0.984 . S
H571 N565 0.985 . S
H572 N569 0.984 . S
H573 N569 0.985 . S
H574 N568 0.984 . S
H575 N568 0.984 . S
H576 N564 0.984 . S
H577 N564 0.985 . S
C578 C579 1.363 1_554 S
C578 C584 1.379 1_554 S
C578 N586 1.356 . S
C579 C578 1.363 1_556 S
C579 C585 1.363 . S
C580 C581 1.363 . S
C580 C585 1.379 . S
C580 N587 1.356 . S
C581 C580 1.363 . S
C581 C584 1.363 . S
N582 C584 1.356 . S
N582 H594 0.984 1_556 S
N582 H595 0.985 . S
N583 C585 1.356 . S
N583 H588 0.984 . S
N583 H589 0.985 . S
C584 C578 1.379 1_556 S
C584 C581 1.363 . S
C584 N582 1.356 . S
C585 C579 1.363 . S
C585 C580 1.379 . S
C585 N583 1.356 . S
N586 C578 1.356 . S
N586 H592 0.984 . S
N586 H593 0.984 . S
N587 C580 1.356 . S
N587 H590 0.984 . S
N587 H591 0.985 . S
H588 N583 0.984 . S
H589 N583 0.985 . S
H590 N587 0.984 . S
H591 N587 0.985 . S
H592 N586 0.984 . S
H593 N586 0.984 . S
H594 N582 0.984 1_554 S
H595 N582 0.985 . S
C596 C597 1.363 . S
C596 C602 1.379 . S
C596 N604 1.356 . S
C597 C596 1.363 . S
C597 C603 1.363 . S
C598 C599 1.363 . S
C598 C603 1.379 . S
C598 N605 1.356 . S
C599 C598 1.363 . S
C599 C602 1.363 . S
N600 C602 1.356 . S
N600 H612 0.984 . S
N600 H613 0.985 . S
N601 C603 1.356 . S
N601 H606 0.984 . S
N601 H607 0.985 . S
C602 C596 1.379 . S
C602 C599 1.363 . S
C602 N600 1.356 . S
C603 C597 1.363 . S
C603 C598 1.379 . S
C603 N601 1.356 . S
N604 C596 1.356 . S
N604 H610 0.984 . S
N604 H611 0.984 . S
N605 C598 1.356 . S
N605 H608 0.984 . S
N605 H609 0.985 . S
H606 N601 0.984 . S
H607 N601 0.985 . S
H608 N605 0.984 . S
H609 N605 0.985 . S
H610 N604 0.984 . S
H611 N604 0.984 . S
H612 N600 0.984 . S
H613 N600 0.985 . S
C614 C615 1.363 . S
C614 C620 1.379 . S
C614 N622 1.356 . S
C615 C614 1.363 . S
C615 C621 1.363 1_554 S
C616 C617 1.363 1_556 S
C616 C621 1.379 . S
C616 N623 1.356 . S
C617 C616 1.363 1_554 S
C617 C620 1.363 . S
N618 C620 1.356 . S
N618 H630 0.984 . S
N618 H631 0.985 . S
N619 C621 1.356 . S
N619 H624 0.984 . S
N619 H625 0.985 . S
C620 C614 1.379 . S
C620 C617 1.363 . S
C620 N618 1.356 . S
C621 C615 1.363 1_556 S
C621 C616 1.379 . S
C621 N619 1.356 . S
N622 C614 1.356 . S
N622 H628 0.984 . S
N622 H629 0.984 . S
N623 C616 1.356 . S
N623 H626 0.984 . S
N623 H627 0.985 . S
H624 N619 0.984 . S
H625 N619 0.985 . S
H626 N623 0.984 . S
H627 N623 0.985 . S
H628 N622 0.984 . S
H629 N622 0.984 . S
H630 N618 0.984 . S
H631 N618 0.985 . S
C273 C5 1.700 . S
C275 C107 1.657 . S
C291 C39 1.465 . S
C293 C88 1.544 . S
C309 C77 1.546 . S
C311 C54 1.555 . S
C327 C122 1.401 . S
C329 C20 1.398 . S
C345 C141 1.700 . S
C347 C243 1.657 . S
C363 C224 1.544 . S
C365 C175 1.465 . S
C381 C190 1.555 . S
C383 C213 1.546 . S
C399 C258 1.401 . S
C401 C156 1.398 . S
C417 C101 1.679 . S
C419 C33 1.647 . S
C435 C67 1.541 . S
C437 C135 1.509 . S
C453 C237 1.678 . S
C455 C169 1.647 . S
C471 C271 1.509 . S
C473 C203 1.541 . S
C489 C2 1.959 . S
C491 C206 1.958 . S
C507 C36 1.270 . S
C509 C247 1.233 1_556 S
C525 C73 1.359 . S
C527 C145 1.394 . S
C543 C179 1.636 1_554 S
C545 C104 1.648 . S
C561 C70 1.958 . S
C563 C138 1.959 . S
C579 C111 1.233 1_556 S
C581 C172 1.270 . S
C597 C9 1.394 . S
C599 C209 1.359 . S
C615 C43 1.636 1_554 S
C617 C240 1.648 . S
