# Generated by pormake.
# Topology unx, (4)-cn, num edge types: 1
# Building blocks:
#     Node 0, Type 0, BuildingBlock: CEKHIL_clean_sbu_0, # of connection points: 4
#     Node 1, Type 0, BuildingBlock: CEKHIL_clean_sbu_0, # of connection points: 4
#     Node 2, Type 0, BuildingBlock: CEKHIL_clean_sbu_0, # of connection points: 4
#     Node 3, Type 0, BuildingBlock: CEKHIL_clean_sbu_0, # of connection points: 4
#     Node 4, Type 0, BuildingBlock: CEKHIL_clean_sbu_0, # of connection points: 4
#     Node 5, Type 0, BuildingBlock: CEKHIL_clean_sbu_0, # of connection points: 4
#     Node 6, Type 0, BuildingBlock: CEKHIL_clean_sbu_0, # of connection points: 4
#     Node 7, Type 0, BuildingBlock: CEKHIL_clean_sbu_0, # of connection points: 4
#     Node 8, Type 0, BuildingBlock: CEKHIL_clean_sbu_0, # of connection points: 4
#     Node 9, Type 0, BuildingBlock: CEKHIL_clean_sbu_0, # of connection points: 4
#     Node 10, Type 0, BuildingBlock: CEKHIL_clean_sbu_0, # of connection points: 4
#     Node 11, Type 0, BuildingBlock: CEKHIL_clean_sbu_0, # of connection points: 4
#     Node 12, Type 0, BuildingBlock: CEKHIL_clean_sbu_0, # of connection points: 4
#     Node 13, Type 0, BuildingBlock: CEKHIL_clean_sbu_0, # of connection points: 4
#     Node 14, Type 0, BuildingBlock: CEKHIL_clean_sbu_0, # of connection points: 4
#     Node 15, Type 0, BuildingBlock: CEKHIL_clean_sbu_0, # of connection points: 4
#     Node 16, Type 0, BuildingBlock: CEKHIL_clean_sbu_0, # of connection points: 4
#     Node 17, Type 0, BuildingBlock: CEKHIL_clean_sbu_0, # of connection points: 4
#     Node 18, Type 0, BuildingBlock: CEKHIL_clean_sbu_0, # of connection points: 4
#     Node 19, Type 0, BuildingBlock: CEKHIL_clean_sbu_0, # of connection points: 4
#     Node 20, Type 0, BuildingBlock: CEKHIL_clean_sbu_0, # of connection points: 4
#     Node 21, Type 0, BuildingBlock: CEKHIL_clean_sbu_0, # of connection points: 4
#     Node 22, Type 0, BuildingBlock: CEKHIL_clean_sbu_0, # of connection points: 4
#     Node 23, Type 0, BuildingBlock: CEKHIL_clean_sbu_0, # of connection points: 4
#     Node 24, Type 0, BuildingBlock: CEKHIL_clean_sbu_0, # of connection points: 4
#     Node 25, Type 0, BuildingBlock: CEKHIL_clean_sbu_0, # of connection points: 4
#     Node 26, Type 0, BuildingBlock: CEKHIL_clean_sbu_0, # of connection points: 4
#     Node 27, Type 0, BuildingBlock: CEKHIL_clean_sbu_0, # of connection points: 4
#     Node 28, Type 0, BuildingBlock: CEKHIL_clean_sbu_0, # of connection points: 4
#     Node 29, Type 0, BuildingBlock: CEKHIL_clean_sbu_0, # of connection points: 4
#     Node 30, Type 0, BuildingBlock: CEKHIL_clean_sbu_0, # of connection points: 4
#     Node 31, Type 0, BuildingBlock: CEKHIL_clean_sbu_0, # of connection points: 4
#     Node 32, Type 0, BuildingBlock: CEKHIL_clean_sbu_0, # of connection points: 4
#     Node 33, Type 0, BuildingBlock: CEKHIL_clean_sbu_0, # of connection points: 4
#     Node 34, Type 0, BuildingBlock: CEKHIL_clean_sbu_0, # of connection points: 4
#     Node 35, Type 0, BuildingBlock: CEKHIL_clean_sbu_0, # of connection points: 4
#     Node 36, Type 0, BuildingBlock: CEKHIL_clean_sbu_0, # of connection points: 4
#     Node 37, Type 0, BuildingBlock: CEKHIL_clean_sbu_0, # of connection points: 4
#     Node 38, Type 0, BuildingBlock: CEKHIL_clean_sbu_0, # of connection points: 4
#     Node 39, Type 0, BuildingBlock: CEKHIL_clean_sbu_0, # of connection points: 4
#     Node 40, Type 0, BuildingBlock: CEKHIL_clean_sbu_0, # of connection points: 4
#     Node 41, Type 0, BuildingBlock: CEKHIL_clean_sbu_0, # of connection points: 4
#     Node 42, Type 0, BuildingBlock: CEKHIL_clean_sbu_0, # of connection points: 4
#     Node 43, Type 0, BuildingBlock: CEKHIL_clean_sbu_0, # of connection points: 4
#     Node 44, Type 0, BuildingBlock: CEKHIL_clean_sbu_0, # of connection points: 4
#     Node 45, Type 0, BuildingBlock: CEKHIL_clean_sbu_0, # of connection points: 4
#     Node 46, Type 0, BuildingBlock: CEKHIL_clean_sbu_0, # of connection points: 4
#     Node 47, Type 0, BuildingBlock: CEKHIL_clean_sbu_0, # of connection points: 4
#     Edge 48, Type (0, 0), BuildingBlock: AJUNOK_clean_linker_0, # of connection points: 2
#     Edge 49, Type (0, 0), BuildingBlock: AJUNOK_clean_linker_0, # of connection points: 2
#     Edge 50, Type (0, 0), BuildingBlock: AJUNOK_clean_linker_0, # of connection points: 2
#     Edge 51, Type (0, 0), BuildingBlock: AJUNOK_clean_linker_0, # of connection points: 2
#     Edge 52, Type (0, 0), BuildingBlock: AJUNOK_clean_linker_0, # of connection points: 2
#     Edge 53, Type (0, 0), BuildingBlock: AJUNOK_clean_linker_0, # of connection points: 2
#     Edge 54, Type (0, 0), BuildingBlock: AJUNOK_clean_linker_0, # of connection points: 2
#     Edge 55, Type (0, 0), BuildingBlock: AJUNOK_clean_linker_0, # of connection points: 2
#     Edge 56, Type (0, 0), BuildingBlock: AJUNOK_clean_linker_0, # of connection points: 2
#     Edge 57, Type (0, 0), BuildingBlock: AJUNOK_clean_linker_0, # of connection points: 2
#     Edge 58, Type (0, 0), BuildingBlock: AJUNOK_clean_linker_0, # of connection points: 2
#     Edge 59, Type (0, 0), BuildingBlock: AJUNOK_clean_linker_0, # of connection points: 2
#     Edge 60, Type (0, 0), BuildingBlock: AJUNOK_clean_linker_0, # of connection points: 2
#     Edge 61, Type (0, 0), BuildingBlock: AJUNOK_clean_linker_0, # of connection points: 2
#     Edge 62, Type (0, 0), BuildingBlock: AJUNOK_clean_linker_0, # of connection points: 2
#     Edge 63, Type (0, 0), BuildingBlock: AJUNOK_clean_linker_0, # of connection points: 2
#     Edge 64, Type (0, 0), BuildingBlock: AJUNOK_clean_linker_0, # of connection points: 2
#     Edge 65, Type (0, 0), BuildingBlock: AJUNOK_clean_linker_0, # of connection points: 2
#     Edge 66, Type (0, 0), BuildingBlock: AJUNOK_clean_linker_0, # of connection points: 2
#     Edge 67, Type (0, 0), BuildingBlock: AJUNOK_clean_linker_0, # of connection points: 2
#     Edge 68, Type (0, 0), BuildingBlock: AJUNOK_clean_linker_0, # of connection points: 2
#     Edge 69, Type (0, 0), BuildingBlock: AJUNOK_clean_linker_0, # of connection points: 2
#     Edge 70, Type (0, 0), BuildingBlock: AJUNOK_clean_linker_0, # of connection points: 2
#     Edge 71, Type (0, 0), BuildingBlock: AJUNOK_clean_linker_0, # of connection points: 2
#     Edge 72, Type (0, 0), BuildingBlock: AJUNOK_clean_linker_0, # of connection points: 2
#     Edge 73, Type (0, 0), BuildingBlock: AJUNOK_clean_linker_0, # of connection points: 2
#     Edge 74, Type (0, 0), BuildingBlock: AJUNOK_clean_linker_0, # of connection points: 2
#     Edge 75, Type (0, 0), BuildingBlock: AJUNOK_clean_linker_0, # of connection points: 2
#     Edge 76, Type (0, 0), BuildingBlock: AJUNOK_clean_linker_0, # of connection points: 2
#     Edge 77, Type (0, 0), BuildingBlock: AJUNOK_clean_linker_0, # of connection points: 2
#     Edge 78, Type (0, 0), BuildingBlock: AJUNOK_clean_linker_0, # of connection points: 2
#     Edge 79, Type (0, 0), BuildingBlock: AJUNOK_clean_linker_0, # of connection points: 2
#     Edge 80, Type (0, 0), BuildingBlock: AJUNOK_clean_linker_0, # of connection points: 2
#     Edge 81, Type (0, 0), BuildingBlock: AJUNOK_clean_linker_0, # of connection points: 2
#     Edge 82, Type (0, 0), BuildingBlock: AJUNOK_clean_linker_0, # of connection points: 2
#     Edge 83, Type (0, 0), BuildingBlock: AJUNOK_clean_linker_0, # of connection points: 2
#     Edge 84, Type (0, 0), BuildingBlock: AJUNOK_clean_linker_0, # of connection points: 2
#     Edge 85, Type (0, 0), BuildingBlock: AJUNOK_clean_linker_0, # of connection points: 2
#     Edge 86, Type (0, 0), BuildingBlock: AJUNOK_clean_linker_0, # of connection points: 2
#     Edge 87, Type (0, 0), BuildingBlock: AJUNOK_clean_linker_0, # of connection points: 2
#     Edge 88, Type (0, 0), BuildingBlock: AJUNOK_clean_linker_0, # of connection points: 2
#     Edge 89, Type (0, 0), BuildingBlock: AJUNOK_clean_linker_0, # of connection points: 2
#     Edge 90, Type (0, 0), BuildingBlock: AJUNOK_clean_linker_0, # of connection points: 2
#     Edge 91, Type (0, 0), BuildingBlock: AJUNOK_clean_linker_0, # of connection points: 2
#     Edge 92, Type (0, 0), BuildingBlock: AJUNOK_clean_linker_0, # of connection points: 2
#     Edge 93, Type (0, 0), BuildingBlock: AJUNOK_clean_linker_0, # of connection points: 2
#     Edge 94, Type (0, 0), BuildingBlock: AJUNOK_clean_linker_0, # of connection points: 2
#     Edge 95, Type (0, 0), BuildingBlock: AJUNOK_clean_linker_0, # of connection points: 2
#     Edge 96, Type (0, 0), BuildingBlock: AJUNOK_clean_linker_0, # of connection points: 2
#     Edge 97, Type (0, 0), BuildingBlock: AJUNOK_clean_linker_0, # of connection points: 2
#     Edge 98, Type (0, 0), BuildingBlock: AJUNOK_clean_linker_0, # of connection points: 2
#     Edge 99, Type (0, 0), BuildingBlock: AJUNOK_clean_linker_0, # of connection points: 2
#     Edge 100, Type (0, 0), BuildingBlock: AJUNOK_clean_linker_0, # of connection points: 2
#     Edge 101, Type (0, 0), BuildingBlock: AJUNOK_clean_linker_0, # of connection points: 2
#     Edge 102, Type (0, 0), BuildingBlock: AJUNOK_clean_linker_0, # of connection points: 2
#     Edge 103, Type (0, 0), BuildingBlock: AJUNOK_clean_linker_0, # of connection points: 2
#     Edge 104, Type (0, 0), BuildingBlock: AJUNOK_clean_linker_0, # of connection points: 2
#     Edge 105, Type (0, 0), BuildingBlock: AJUNOK_clean_linker_0, # of connection points: 2
#     Edge 106, Type (0, 0), BuildingBlock: AJUNOK_clean_linker_0, # of connection points: 2
#     Edge 107, Type (0, 0), BuildingBlock: AJUNOK_clean_linker_0, # of connection points: 2
#     Edge 108, Type (0, 0), BuildingBlock: AJUNOK_clean_linker_0, # of connection points: 2
#     Edge 109, Type (0, 0), BuildingBlock: AJUNOK_clean_linker_0, # of connection points: 2
#     Edge 110, Type (0, 0), BuildingBlock: AJUNOK_clean_linker_0, # of connection points: 2
#     Edge 111, Type (0, 0), BuildingBlock: AJUNOK_clean_linker_0, # of connection points: 2
#     Edge 112, Type (0, 0), BuildingBlock: AJUNOK_clean_linker_0, # of connection points: 2
#     Edge 113, Type (0, 0), BuildingBlock: AJUNOK_clean_linker_0, # of connection points: 2
#     Edge 114, Type (0, 0), BuildingBlock: AJUNOK_clean_linker_0, # of connection points: 2
#     Edge 115, Type (0, 0), BuildingBlock: AJUNOK_clean_linker_0, # of connection points: 2
#     Edge 116, Type (0, 0), BuildingBlock: AJUNOK_clean_linker_0, # of connection points: 2
#     Edge 117, Type (0, 0), BuildingBlock: AJUNOK_clean_linker_0, # of connection points: 2
#     Edge 118, Type (0, 0), BuildingBlock: AJUNOK_clean_linker_0, # of connection points: 2
#     Edge 119, Type (0, 0), BuildingBlock: AJUNOK_clean_linker_0, # of connection points: 2
#     Edge 120, Type (0, 0), BuildingBlock: AJUNOK_clean_linker_0, # of connection points: 2
#     Edge 121, Type (0, 0), BuildingBlock: AJUNOK_clean_linker_0, # of connection points: 2
#     Edge 122, Type (0, 0), BuildingBlock: AJUNOK_clean_linker_0, # of connection points: 2
#     Edge 123, Type (0, 0), BuildingBlock: AJUNOK_clean_linker_0, # of connection points: 2
#     Edge 124, Type (0, 0), BuildingBlock: AJUNOK_clean_linker_0, # of connection points: 2
#     Edge 125, Type (0, 0), BuildingBlock: AJUNOK_clean_linker_0, # of connection points: 2
#     Edge 126, Type (0, 0), BuildingBlock: AJUNOK_clean_linker_0, # of connection points: 2
#     Edge 127, Type (0, 0), BuildingBlock: AJUNOK_clean_linker_0, # of connection points: 2
#     Edge 128, Type (0, 0), BuildingBlock: AJUNOK_clean_linker_0, # of connection points: 2
#     Edge 129, Type (0, 0), BuildingBlock: AJUNOK_clean_linker_0, # of connection points: 2
#     Edge 130, Type (0, 0), BuildingBlock: AJUNOK_clean_linker_0, # of connection points: 2
#     Edge 131, Type (0, 0), BuildingBlock: AJUNOK_clean_linker_0, # of connection points: 2
#     Edge 132, Type (0, 0), BuildingBlock: AJUNOK_clean_linker_0, # of connection points: 2
#     Edge 133, Type (0, 0), BuildingBlock: AJUNOK_clean_linker_0, # of connection points: 2
#     Edge 134, Type (0, 0), BuildingBlock: AJUNOK_clean_linker_0, # of connection points: 2
#     Edge 135, Type (0, 0), BuildingBlock: AJUNOK_clean_linker_0, # of connection points: 2
#     Edge 136, Type (0, 0), BuildingBlock: AJUNOK_clean_linker_0, # of connection points: 2
#     Edge 137, Type (0, 0), BuildingBlock: AJUNOK_clean_linker_0, # of connection points: 2
#     Edge 138, Type (0, 0), BuildingBlock: AJUNOK_clean_linker_0, # of connection points: 2
#     Edge 139, Type (0, 0), BuildingBlock: AJUNOK_clean_linker_0, # of connection points: 2
#     Edge 140, Type (0, 0), BuildingBlock: AJUNOK_clean_linker_0, # of connection points: 2
#     Edge 141, Type (0, 0), BuildingBlock: AJUNOK_clean_linker_0, # of connection points: 2
#     Edge 142, Type (0, 0), BuildingBlock: AJUNOK_clean_linker_0, # of connection points: 2
#     Edge 143, Type (0, 0), BuildingBlock: AJUNOK_clean_linker_0, # of connection points: 2
# Relax obj value: 0.548
# Max RMSD: 0.353
# Mean RMSD: 0.245
data_MOF--net-unx--node1-CEKHIL_clean_sbu_0--edge1-AJUNOK_clean_linker_0
_symmetry_space_group_name_H-M    P1
_symmetry_Int_Tables_number       1
_symmetry_cell_setting            triclinic
loop_
_symmetry_equiv_pos_as_xyz
'x, y, z'
_cell_length_a     38.704367
_cell_length_b     37.592313
_cell_length_c     39.095227
_cell_angle_alpha  89.998143
_cell_angle_beta   90.001801
_cell_angle_gamma 91.373305
loop_
_atom_site_label
_atom_site_type_symbol
_atom_site_fract_x
_atom_site_fract_y
_atom_site_fract_z
_atom_type_partial_charge
Co0 Co 0.1265 0.51046 0.30165 0.0
O1 O 0.16107 0.4927 0.33294 0.0
O2 O 0.16524 0.54338 0.30432 0.0
C3 C 0.07719 0.49997 0.33139 0.0
O4 O 0.09788 0.53869 0.26837 0.0
Co5 Co 0.072 0.46146 0.26653 0.0
O6 O 0.05157 0.50684 0.25087 0.0
C7 C 0.14352 0.46052 0.24201 0.0
C8 C 0.17982 0.52054 0.32424 0.0
C9 C 0.06895 0.536 0.25234 0.0
O10 O 0.15048 0.48604 0.2629 0.0
O11 O 0.11372 0.44506 0.24051 0.0
O12 O 0.09707 0.52742 0.33866 0.0
O13 O 0.09044 0.47733 0.31051 0.0
Co14 Co 0.67929 0.20885 0.5003 0.0
O15 O 0.72165 0.23096 0.51742 0.0
O16 O 0.66889 0.24469 0.53359 0.0
C17 C 0.69315 0.15037 0.50056 0.0
O18 O 0.62996 0.19429 0.48828 0.0
Co19 Co 0.67911 0.17212 0.42921 0.0
O20 O 0.62846 0.16741 0.43696 0.0
C21 C 0.68298 0.24993 0.4326 0.0
C22 C 0.70175 0.25272 0.53378 0.0
C23 C 0.61331 0.17994 0.46313 0.0
O24 O 0.67765 0.24725 0.46479 0.0
O25 O 0.6876 0.22274 0.41355 0.0
O26 O 0.68387 0.16583 0.52881 0.0
O27 O 0.69842 0.17168 0.47507 0.0
Co28 Co 0.88634 0.95507 0.65102 0.0
O29 O 0.84855 0.98603 0.64075 0.0
O30 O 0.84899 0.94686 0.68306 0.0
C31 C 0.93187 0.99365 0.64566 0.0
O32 O 0.92082 0.91915 0.66869 0.0
Co33 Co 0.93906 0.94072 0.59243 0.0
O34 O 0.96545 0.92178 0.63161 0.0
C35 C 0.87319 0.90018 0.59434 0.0
C36 C 0.83183 0.96972 0.66511 0.0
C37 C 0.95186 0.91166 0.65982 0.0
O38 O 0.86475 0.91641 0.62184 0.0
O39 O 0.90078 0.90763 0.57752 0.0
O40 O 0.91363 0.99316 0.67368 0.0
O41 O 0.91808 0.97607 0.62068 0.0
Co42 Co 0.24958 0.96527 0.94445 0.0
O43 O 0.23207 0.91695 0.95231 0.0
O44 O 0.28716 0.93321 0.95331 0.0
C45 C 0.21365 0.99895 0.97619 0.0
O46 O 0.27694 0.01187 0.93844 0.0
Co47 Co 0.2028 0.01749 0.90487 0.0
O48 O 0.24032 0.05212 0.91737 0.0
C49 C 0.2404 0.96482 0.86621 0.0
C50 C 0.26407 0.90749 0.95475 0.0
C51 C 0.26961 0.0439 0.9297 0.0
O52 O 0.25532 0.95519 0.89399 0.0
O53 O 0.21533 0.98632 0.8658 0.0
O54 O 0.23826 0.98155 0.991 0.0
O55 O 0.20718 0.98856 0.94533 0.0
Co56 Co 0.11459 0.45067 0.8532 0.0
O57 O 0.08685 0.49318 0.8526 0.0
O58 O 0.07685 0.44671 0.88598 0.0
C59 C 0.16853 0.47487 0.8515 0.0
O60 O 0.13699 0.40283 0.86205 0.0
Co61 Co 0.15819 0.42963 0.79031 0.0
O62 O 0.17461 0.39063 0.82 0.0
C63 C 0.08416 0.41483 0.78873 0.0
C64 C 0.06663 0.47726 0.8747 0.0
C65 C 0.16037 0.38331 0.84861 0.0
O66 O 0.0828 0.42821 0.81881 0.0
O67 O 0.11213 0.4128 0.77156 0.0
O68 O 0.15151 0.47345 0.88027 0.0
O69 O 0.15074 0.46677 0.82444 0.0
Co70 Co 0.756 0.53949 0.06086 0.0
O71 O 0.73626 0.5861 0.05351 0.0
O72 O 0.79097 0.57341 0.04524 0.0
C73 C 0.71689 0.50168 0.0356 0.0
O74 O 0.78522 0.49538 0.06475 0.0
Co75 Co 0.71762 0.4867 0.10958 0.0
O76 O 0.75298 0.45383 0.09246 0.0
C77 C 0.76031 0.54314 0.13987 0.0
C78 C 0.76734 0.59743 0.04588 0.0
C79 C 0.77977 0.46332 0.07551 0.0
O80 O 0.76907 0.55291 0.10948 0.0
O81 O 0.73736 0.51887 0.14558 0.0
O82 O 0.73848 0.52055 0.01711 0.0
O83 O 0.71463 0.51262 0.06692 0.0
Co84 Co 0.8763 0.01988 0.2001 0.0
O85 O 0.91082 0.03387 0.16699 0.0
O86 O 0.91341 0.98641 0.20045 0.0
C87 C 0.82755 0.027 0.16938 0.0
O88 O 0.8449 0.99773 0.23675 0.0
Co89 Co 0.82712 0.0789 0.22513 0.0
O90 O 0.80233 0.03686 0.24507 0.0
C91 C 0.8994 0.08072 0.24642 0.0
C92 C 0.92838 0.00716 0.17792 0.0
C93 C 0.81537 0.00628 0.24918 0.0
O94 O 0.90222 0.04868 0.23576 0.0
O95 O 0.87263 0.09926 0.24117 0.0
O96 O 0.84564 0.99854 0.16533 0.0
O97 O 0.84304 0.05203 0.18644 0.0
Co98 Co 0.18968 0.2926 0.49668 0.0
O99 O 0.23 0.27059 0.47696 0.0
O100 O 0.17592 0.25847 0.46228 0.0
C101 C 0.20658 0.35063 0.49889 0.0
O102 O 0.14166 0.30727 0.51129 0.0
Co103 Co 0.19437 0.32338 0.56974 0.0
O104 O 0.1441 0.33149 0.56376 0.0
C105 C 0.19371 0.24649 0.56122 0.0
C106 C 0.20815 0.24955 0.46088 0.0
C107 C 0.12703 0.32108 0.53753 0.0
O108 O 0.18717 0.25247 0.52981 0.0
O109 O 0.20026 0.27163 0.58251 0.0
O110 O 0.19542 0.33677 0.47028 0.0
O111 O 0.21218 0.32807 0.52317 0.0
Co112 Co 0.25357 0.04033 0.43735 0.0
O113 O 0.27227 0.08796 0.44608 0.0
O114 O 0.21671 0.07366 0.44455 0.0
C115 C 0.28707 0.00601 0.47103 0.0
O116 O 0.22514 0.99455 0.42969 0.0
Co117 Co 0.3004 0.98644 0.40001 0.0
O118 O 0.26103 0.95306 0.4097 0.0
C119 C 0.26544 0.03996 0.3595 0.0
C120 C 0.24056 0.09853 0.44721 0.0
C121 C 0.23146 0.96239 0.4204 0.0
O122 O 0.25041 0.05073 0.38679 0.0
O123 O 0.28925 0.01697 0.35989 0.0
O124 O 0.26221 0.02416 0.48441 0.0
O125 O 0.29511 0.0156 0.44025 0.0
Co126 Co 0.36842 0.48659 0.80281 0.0
O127 O 0.33764 0.50776 0.83582 0.0
O128 O 0.32858 0.45554 0.81087 0.0
C129 C 0.42035 0.49594 0.828 0.0
O130 O 0.39387 0.4561 0.76819 0.0
Co131 Co 0.42006 0.53411 0.76213 0.0
O132 O 0.43831 0.48798 0.74599 0.0
C133 C 0.34675 0.5358 0.74397 0.0
C134 C 0.31722 0.48027 0.83089 0.0
C135 C 0.42144 0.45868 0.74968 0.0
O136 O 0.34176 0.51009 0.76516 0.0
O137 O 0.37628 0.55142 0.74035 0.0
O138 O 0.40004 0.46984 0.83795 0.0
O139 O 0.40622 0.51868 0.80776 0.0
Co140 Co 0.81641 0.79454 0.98522 0.0
O141 O 0.77821 0.76969 0.00826 0.0
O142 O 0.83335 0.75732 0.01399 0.0
C143 C 0.80206 0.85271 0.99192 0.0
O144 O 0.86277 0.81129 0.96633 0.0
Co145 Co 0.80528 0.8345 0.91775 0.0
O146 O 0.85648 0.84017 0.91657 0.0
C147 C 0.806 0.75675 0.91584 0.0
C148 C 0.80137 0.74805 0.01984 0.0
C149 C 0.87544 0.82708 0.93982 0.0
O150 O 0.81311 0.75807 0.94777 0.0
O151 O 0.79933 0.78469 0.89855 0.0
O152 O 0.8166 0.83535 0.01663 0.0
O153 O 0.79218 0.83325 0.96611 0.0
Co154 Co 0.62295 0.04019 0.14438 0.0
O155 O 0.6619 0.01059 0.13643 0.0
O156 O 0.65877 0.05064 0.17777 0.0
C157 C 0.57921 0.99987 0.13859 0.0
O158 O 0.58591 0.07487 0.15925 0.0
Co159 Co 0.5735 0.04969 0.08204 0.0
O160 O 0.54483 0.07102 0.11821 0.0
C161 C 0.63681 0.09394 0.08694 0.0
C162 C 0.67716 0.02766 0.16118 0.0
C163 C 0.55571 0.08173 0.14733 0.0
O164 O 0.64431 0.07889 0.11528 0.0
O165 O 0.61085 0.0844 0.06858 0.0
O166 O 0.59647 1.0018 0.16715 0.0
O167 O 0.59358 0.01668 0.11343 0.0
Co168 Co 0.42769 0.25318 0.12262 0.0
O169 O 0.39264 0.24253 0.1564 0.0
O170 O 0.43688 0.28002 0.16428 0.0
C171 C 0.39392 0.25948 0.07585 0.0
O172 O 0.46873 0.26976 0.09317 0.0
Co173 Co 0.43689 0.19841 0.06361 0.0
O174 O 0.47085 0.23475 0.04647 0.0
C175 C 0.46039 0.18158 0.13289 0.0
C176 C 0.41033 0.26276 0.17719 0.0
C177 C 0.48189 0.26136 0.06395 0.0
O178 O 0.45623 0.21395 0.14183 0.0
O179 O 0.45047 0.16894 0.10403 0.0
O180 O 0.39825 0.28595 0.09704 0.0
O181 O 0.40554 0.22964 0.08639 0.0
Co182 Co 0.10523 0.7867 0.36217 0.0
O183 O 0.0878 0.75075 0.33074 0.0
O184 O 0.13614 0.78255 0.32365 0.0
C185 C 0.09734 0.7591 0.41313 0.0
O186 O 0.13122 0.82648 0.3874 0.0
Co187 Co 0.0538 0.82374 0.41054 0.0
O188 O 0.09362 0.85678 0.41945 0.0
C189 C 0.0543 0.84365 0.33898 0.0
C190 C 0.11356 0.76009 0.31093 0.0
C191 C 0.12371 0.85266 0.40713 0.0
O192 O 0.07978 0.8229 0.33544 0.0
O193 O 0.03815 0.8474 0.36721 0.0
O194 O 0.12376 0.75159 0.39405 0.0
O195 O 0.0743 0.7784 0.39849 0.0
Co196 Co 0.3853 0.28563 0.62884 0.0
O197 O 0.39844 0.24734 0.65881 0.0
O198 O 0.35293 0.28126 0.66601 0.0
C199 C 0.39113 0.26103 0.57638 0.0
O200 O 0.36378 0.32756 0.60604 0.0
Co201 Co 0.43883 0.3236 0.58217 0.0
O202 O 0.40151 0.35759 0.57256 0.0
C203 C 0.43691 0.34295 0.65477 0.0
C204 C 0.37316 0.25743 0.67839 0.0
C205 C 0.37217 0.35421 0.58707 0.0
O206 O 0.41263 0.31956 0.65824 0.0
O207 O 0.45258 0.34808 0.6263 0.0
O208 O 0.36381 0.2541 0.59484 0.0
O209 O 0.41619 0.2777 0.59216 0.0
Co210 Co 0.05459 0.73115 0.85886 0.0
O211 O 0.09001 0.70866 0.83231 0.0
O212 O 0.06663 0.76021 0.81964 0.0
C213 C 0.07557 0.72277 0.91285 0.0
O214 O 0.01745 0.76211 0.87999 0.0
Co215 Co 0.00938 0.68456 0.90751 0.0
O216 O 0.99435 0.73141 0.92424 0.0
C217 C 0.00324 0.67535 0.83372 0.0
C218 C 0.08637 0.73434 0.81041 0.0
C219 C 0.99839 0.75998 0.90701 0.0
O220 O 0.01898 0.70541 0.82934 0.0
O221 O 0.99958 0.66063 0.86294 0.0
O222 O 0.08761 0.74894 0.89409 0.0
O223 O 0.05578 0.70061 0.8965 0.0
Co224 Co 0.09456 0.70351 0.11579 0.0
O225 O 0.0781 0.7398 0.14646 0.0
O226 O 0.12928 0.71495 0.14971 0.0
C227 C 0.07933 0.72426 0.06341 0.0
O228 O 0.12042 0.66549 0.09041 0.0
Co229 Co 0.04157 0.65581 0.07792 0.0
O230 O 0.08294 0.63161 0.06004 0.0
C231 C 0.0506 0.64378 0.1501 0.0
C232 C 0.10658 0.73535 0.16361 0.0
C233 C 0.11351 0.63948 0.06995 0.0
O234 O 0.07579 0.66648 0.14841 0.0
O235 O 0.0306 0.63738 0.12477 0.0
O236 O 0.1065 0.73736 0.07907 0.0
O237 O 0.0593 0.70458 0.0826 0.0
Co238 Co 0.58082 0.75473 0.13221 0.0
O239 O 0.61713 0.7663 0.16448 0.0
O240 O 0.57527 0.72618 0.17324 0.0
C241 C 0.61221 0.75187 0.08323 0.0
O242 O 0.53891 0.73665 0.10517 0.0
Co243 Co 0.56481 0.81041 0.07565 0.0
O244 O 0.53037 0.77346 0.06068 0.0
C245 C 0.5441 0.82351 0.14657 0.0
C246 C 0.60138 0.74462 0.1855 0.0
C247 C 0.52235 0.74567 0.07801 0.0
O248 O 0.55122 0.79142 0.15427 0.0
O249 O 0.55144 0.83767 0.11762 0.0
O250 O 0.61044 0.72464 0.10379 0.0
O251 O 0.59944 0.78057 0.09529 0.0
Co252 Co 0.38349 0.22402 0.87913 0.0
O253 O 0.39653 0.26053 0.84645 0.0
O254 O 0.3526 0.22217 0.8405 0.0
C255 C 0.3871 0.25425 0.92878 0.0
O256 O 0.36193 0.18276 0.90534 0.0
Co257 Co 0.43639 0.19499 0.93061 0.0
O258 O 0.39859 0.1612 0.94435 0.0
C259 C 0.44059 0.17226 0.85969 0.0
C260 C 0.37241 0.2467 0.82692 0.0
C261 C 0.36961 0.16052 0.92892 0.0
O262 O 0.41377 0.19063 0.85414 0.0
O263 O 0.45535 0.17059 0.88887 0.0
O264 O 0.35995 0.25686 0.90933 0.0
O265 O 0.41291 0.23785 0.91541 0.0
Co266 Co 0.42971 0.25857 0.37871 0.0
O267 O 0.3957 0.27367 0.34589 0.0
O268 O 0.4313 0.22913 0.33817 0.0
C269 C 0.39835 0.2593 0.42782 0.0
O270 O 0.46807 0.23612 0.4062 0.0
Co271 Co 0.45426 0.31289 0.43411 0.0
O272 O 0.48078 0.27171 0.45103 0.0
C273 C 0.47567 0.32314 0.36296 0.0
C274 C 0.40829 0.25004 0.32536 0.0
C275 C 0.48446 0.24294 0.43421 0.0
O276 O 0.46448 0.2916 0.35623 0.0
O277 O 0.47089 0.33845 0.39175 0.0
O278 O 0.39584 0.23215 0.4072 0.0
O279 O 0.41507 0.2865 0.41554 0.0
Co280 Co 0.12826 0.05108 0.65262 0.0
O281 O 0.1657 0.01944 0.64354 0.0
O282 O 0.16479 0.05849 0.68589 0.0
C283 C 0.08212 0.01364 0.64597 0.0
O284 O 0.09345 0.08754 0.66878 0.0
Co285 Co 0.08028 0.06642 0.59054 0.0
O286 O 0.05231 0.08714 0.62775 0.0
C287 C 0.14597 0.10567 0.59638 0.0
C288 C 0.18201 0.03521 0.66846 0.0
C289 C 0.06366 0.09632 0.65718 0.0
O290 O 0.15162 0.0895 0.62459 0.0
O291 O 0.12017 0.09829 0.57698 0.0
O292 O 0.0997 0.0135 0.67438 0.0
O293 O 0.09722 0.03064 0.62126 0.0
Co294 Co 0.76481 0.04242 0.93943 0.0
O295 O 0.78359 0.08983 0.94931 0.0
O296 O 0.72807 0.0768 0.9439 0.0
C297 C 0.79491 0.00686 0.97526 0.0
O298 O 0.73646 0.99703 0.93035 0.0
Co299 Co 0.81396 0.9885 0.90516 0.0
O300 O 0.77404 0.95551 0.91369 0.0
C301 C 0.7803 0.0405 0.86203 0.0
C302 C 0.75215 0.10117 0.94831 0.0
C303 C 0.7438 0.96471 0.92263 0.0
O304 O 0.76501 0.05252 0.88867 0.0
O305 O 0.80407 0.01753 0.86377 0.0
O306 O 0.76966 0.0257 0.98695 0.0
O307 O 0.80571 0.01686 0.94541 0.0
Co308 Co 0.87729 0.49442 0.30617 0.0
O309 O 0.84312 0.51286 0.33758 0.0
O310 O 0.83804 0.46227 0.30896 0.0
C311 C 0.92706 0.50343 0.33531 0.0
O312 O 0.90526 0.46546 0.2729 0.0
Co313 Co 0.93228 0.54211 0.27039 0.0
O314 O 0.95217 0.49627 0.25522 0.0
C315 C 0.8606 0.545 0.24695 0.0
C316 C 0.82389 0.48535 0.3289 0.0
C317 C 0.93436 0.4674 0.25708 0.0
O318 O 0.85354 0.51936 0.26763 0.0
O319 O 0.89072 0.55966 0.24481 0.0
O320 O 0.90636 0.47674 0.34296 0.0
O321 O 0.91424 0.52673 0.31479 0.0
Co322 Co 0.3186 0.7972 0.49862 0.0
O323 O 0.27718 0.77344 0.5158 0.0
O324 O 0.33049 0.7612 0.53136 0.0
C325 C 0.30274 0.85505 0.49974 0.0
O326 O 0.36735 0.81364 0.48651 0.0
Co327 Co 0.31713 0.83468 0.42797 0.0
O328 O 0.368 0.83915 0.43456 0.0
C329 C 0.31535 0.75687 0.43054 0.0
C330 C 0.29788 0.7521 0.5317 0.0
C331 C 0.38358 0.82758 0.46089 0.0
O332 O 0.32119 0.75942 0.46263 0.0
O333 O 0.30959 0.78407 0.41184 0.0
O334 O 0.31281 0.83955 0.5277 0.0
O335 O 0.29796 0.83401 0.47395 0.0
Co336 Co 0.1296 0.99094 0.19388 0.0
O337 O 0.09542 0.97835 0.16009 0.0
O338 O 0.09232 0.02421 0.19556 0.0
C339 C 0.17857 0.98478 0.16327 0.0
O340 O 0.16068 0.01135 0.23167 0.0
Co341 Co 0.17832 0.93074 0.21687 0.0
O342 O 0.20291 0.97165 0.23906 0.0
C343 C 0.10562 0.92745 0.23605 0.0
C344 C 0.07741 0.00398 0.17256 0.0
C345 C 0.19005 1.00218 0.24401 0.0
O346 O 0.10336 0.96036 0.22795 0.0
O347 O 0.13235 0.90919 0.22981 0.0
O348 O 0.16089 0.01369 0.16024 0.0
O349 O 0.16265 0.95929 0.17923 0.0
Co350 Co 0.80411 0.71213 0.49808 0.0
O351 O 0.76145 0.73353 0.48349 0.0
O352 O 0.81279 0.74512 0.46099 0.0
C353 C 0.78795 0.65421 0.50436 0.0
O354 O 0.85368 0.69767 0.50697 0.0
Co355 Co 0.80813 0.68515 0.57262 0.0
O356 O 0.85696 0.67628 0.56056 0.0
C357 C 0.81461 0.76129 0.56054 0.0
C358 C 0.7806 0.75396 0.46386 0.0
C359 C 0.87104 0.68528 0.53226 0.0
O360 O 0.81198 0.75344 0.52898 0.0
O361 O 0.8115 0.73777 0.58408 0.0
O362 O 0.79462 0.66713 0.47409 0.0
O363 O 0.78545 0.67771 0.52846 0.0
Co364 Co 0.87543 0.55208 0.85473 0.0
O365 O 0.90406 0.51011 0.85364 0.0
O366 O 0.91388 0.55674 0.8867 0.0
C367 C 0.82205 0.52607 0.85428 0.0
O368 O 0.8525 0.59984 0.86363 0.0
Co369 Co 0.82926 0.57119 0.79282 0.0
O370 O 0.81419 0.61113 0.82202 0.0
C371 C 0.9029 0.5891 0.78975 0.0
C372 C 0.92453 0.52642 0.87523 0.0
C373 C 0.82925 0.61946 0.84997 0.0
O374 O 0.90585 0.57522 0.81952 0.0
O375 O 0.87432 0.58999 0.77342 0.0
O376 O 0.83955 0.52843 0.88269 0.0
O377 O 0.83895 0.53487 0.82692 0.0
Co378 Co 0.25221 0.46537 0.05607 0.0
O379 O 0.27405 0.41973 0.05056 0.0
O380 O 0.21911 0.4299 0.03975 0.0
C381 C 0.29152 0.50355 0.03193 0.0
O382 O 0.22122 0.50824 0.05773 0.0
Co383 Co 0.28624 0.52156 0.10447 0.0
O384 O 0.2508 0.55253 0.08426 0.0
C385 C 0.24432 0.46411 0.13468 0.0
C386 C 0.24378 0.40708 0.04173 0.0
C387 C 0.22474 0.54091 0.06729 0.0
O388 O 0.23764 0.45256 0.10437 0.0
O389 O 0.26586 0.48973 0.14047 0.0
O390 O 0.27109 0.48408 0.01273 0.0
O391 O 0.29231 0.49349 0.06354 0.0
Co392 Co 0.18816 0.2111 0.98638 0.0
O393 O 0.22977 0.2344 0.00433 0.0
O394 O 0.17633 0.24863 0.01738 0.0
C395 C 0.20167 0.15253 0.99082 0.0
O396 O 0.13922 0.19604 0.97332 0.0
Co397 Co 0.19073 0.17163 0.91737 0.0
O398 O 0.13957 0.17399 0.91997 0.0
C399 C 0.1911 0.24932 0.91647 0.0
C400 C 0.20911 0.25668 0.01901 0.0
C401 C 0.12348 0.18533 0.94606 0.0
O402 O 0.1876 0.24765 0.94896 0.0
O403 O 0.19544 0.2215 0.89821 0.0
O404 O 0.19125 0.17007 0.01744 0.0
O405 O 0.20845 0.17195 0.96413 0.0
Co406 Co 0.38117 0.96002 0.14793 0.0
O407 O 0.34525 0.99192 0.13517 0.0
O408 O 0.34503 0.95847 0.18191 0.0
C409 C 0.42881 0.99358 0.13711 0.0
O410 O 0.41463 0.92461 0.16828 0.0
Co411 Co 0.4266 0.9349 0.08709 0.0
O412 O 0.45312 0.91524 0.12584 0.0
C413 C 0.35889 0.90159 0.09702 0.0
C414 C 0.32865 0.98002 0.16177 0.0
C415 C 0.44283 0.91164 0.1567 0.0
O416 O 0.35583 0.91948 0.12466 0.0
O417 O 0.38384 0.90634 0.07597 0.0
O418 O 0.41139 0.99858 0.16515 0.0
O419 O 0.41255 0.97483 0.11433 0.0
Co420 Co 0.74072 0.96425 0.43899 0.0
O421 O 0.71959 0.91744 0.44565 0.0
O422 O 0.77562 0.92901 0.44857 0.0
C423 C 0.70563 0.99922 0.47053 0.0
O424 O 0.77071 0.00967 0.4341 0.0
Co425 Co 0.69697 0.01808 0.39804 0.0
O426 O 0.73615 0.0505 0.41057 0.0
C427 C 0.73475 0.96503 0.36024 0.0
C428 C 0.75047 0.90532 0.44932 0.0
C429 C 0.76464 0.04178 0.42425 0.0
O430 O 0.74771 0.95441 0.38862 0.0
O431 O 0.71045 0.98742 0.35887 0.0
O432 O 0.72886 0.98018 0.48553 0.0
O433 O 0.69976 0.99001 0.43919 0.0
Co434 Co 0.62331 0.50563 0.80459 0.0
O435 O 0.65409 0.485 0.8379 0.0
O436 O 0.66175 0.53802 0.81409 0.0
C437 C 0.57106 0.49365 0.82834 0.0
O438 O 0.5979 0.53576 0.76981 0.0
Co439 Co 0.57405 0.45737 0.76174 0.0
O440 O 0.55562 0.50313 0.74472 0.0
C441 C 0.64805 0.45804 0.74601 0.0
C442 C 0.67377 0.51322 0.83362 0.0
C443 C 0.57152 0.53276 0.74976 0.0
O444 O 0.6517 0.48382 0.76733 0.0
O445 O 0.61911 0.4415 0.74155 0.0
O446 O 0.59008 0.52038 0.8392 0.0
O447 O 0.58658 0.47212 0.80792 0.0
Co448 Co 0.61321 0.70873 0.6343 0.0
O449 O 0.60111 0.74434 0.66753 0.0
O450 O 0.64625 0.70935 0.67134 0.0
C451 C 0.60705 0.73803 0.58434 0.0
O452 O 0.63344 0.66907 0.60656 0.0
Co453 Co 0.55688 0.67696 0.5865 0.0
O454 O 0.59439 0.64675 0.5691 0.0
C455 C 0.56 0.65104 0.65687 0.0
C456 C 0.62671 0.73268 0.68568 0.0
C457 C 0.62429 0.64728 0.58271 0.0
O458 O 0.58576 0.67256 0.66112 0.0
O459 O 0.54294 0.64944 0.62886 0.0
O460 O 0.63469 0.74301 0.60286 0.0
O461 O 0.58184 0.72079 0.59934 0.0
Co462 Co 0.93843 0.27585 0.8677 0.0
O463 O 0.90072 0.29278 0.84034 0.0
O464 O 0.93019 0.24425 0.82951 0.0
C465 C 0.91738 0.28259 0.92177 0.0
O466 O 0.97875 0.25067 0.88992 0.0
Co467 Co 0.97783 0.33108 0.91179 0.0
O468 O 0.00242 0.28858 0.92835 0.0
C469 C 0.98067 0.33727 0.83848 0.0
C470 C 0.90773 0.26717 0.81924 0.0
C471 C 1.00009 0.25796 0.91437 0.0
O472 O 0.97118 0.30438 0.83727 0.0
O473 O 0.98064 0.35511 0.86624 0.0
O474 O 0.90781 0.2551 0.90343 0.0
O475 O 0.93367 0.30705 0.90457 0.0
Co476 Co 0.89369 0.21591 0.37284 0.0
O477 O 0.9117 0.25233 0.34227 0.0
O478 O 0.86494 0.21885 0.33254 0.0
C479 C 0.89777 0.24408 0.42364 0.0
O480 O 0.8674 0.17564 0.39678 0.0
Co481 Co 0.94179 0.17994 0.42485 0.0
O482 O 0.90115 0.14844 0.43514 0.0
C483 C 0.94674 0.15979 0.35338 0.0
C484 C 0.88758 0.24194 0.32099 0.0
C485 C 0.87258 0.1514 0.41935 0.0
O486 O 0.92174 0.18065 0.34789 0.0
O487 O 0.96037 0.15569 0.38285 0.0
O488 O 0.872 0.25008 0.40318 0.0
O489 O 0.92239 0.22543 0.41085 0.0
Co490 Co 0.93177 0.26053 0.6198 0.0
O491 O 0.89542 0.24865 0.65196 0.0
O492 O 0.93515 0.29129 0.65943 0.0
C493 C 0.90077 0.25952 0.57065 0.0
O494 O 0.97306 0.27984 0.5925 0.0
Co495 Co 0.95139 0.20471 0.56443 0.0
O496 O 0.98136 0.24439 0.54695 0.0
C497 C 0.97112 0.1941 0.63635 0.0
C498 C 0.90933 0.27261 0.67192 0.0
C499 C 0.98855 0.27237 0.56428 0.0
O500 O 0.96265 0.22596 0.64365 0.0
O501 O 0.96536 0.17945 0.60729 0.0
O502 O 0.90099 0.28777 0.58994 0.0
O503 O 0.91495 0.23219 0.58393 0.0
Co504 Co 0.57232 0.74798 0.38478 0.0
O505 O 0.60808 0.73183 0.35437 0.0
O506 O 0.57487 0.77788 0.34454 0.0
C507 C 0.60021 0.74544 0.4359 0.0
O508 O 0.53281 0.77167 0.40956 0.0
Co509 Co 0.54204 0.69382 0.43777 0.0
O510 O 0.51446 0.73528 0.45194 0.0
C511 C 0.52488 0.68555 0.36529 0.0
C512 C 0.59802 0.75622 0.33325 0.0
C513 C 0.51321 0.76453 0.4354 0.0
O514 O 0.53802 0.71655 0.35957 0.0
O515 O 0.52696 0.6697 0.39414 0.0
O516 O 0.60512 0.77272 0.41583 0.0
O517 O 0.58318 0.71915 0.4223 0.0
Co518 Co 0.62212 0.78291 0.88296 0.0
O519 O 0.60676 0.74386 0.85406 0.0
O520 O 0.65237 0.77892 0.84406 0.0
C521 C 0.61792 0.75778 0.93529 0.0
O522 O 0.64622 0.82547 0.90484 0.0
Co523 Co 0.5725 0.81996 0.9325 0.0
O524 O 0.61266 0.85163 0.94377 0.0
C525 C 0.57002 0.83855 0.86002 0.0
C526 C 0.63134 0.75399 0.83315 0.0
C527 C 0.64082 0.84985 0.92711 0.0
O528 O 0.59349 0.81569 0.85508 0.0
O529 O 0.55714 0.84479 0.88948 0.0
O530 O 0.64447 0.75191 0.91583 0.0
O531 O 0.59272 0.77426 0.92086 0.0
Co532 Co 0.62034 0.45385 0.36037 0.0
O533 O 0.59318 0.49514 0.35176 0.0
O534 O 0.58539 0.45907 0.39585 0.0
C535 C 0.67413 0.47632 0.34963 0.0
O536 O 0.64309 0.40827 0.37662 0.0
Co537 Co 0.65725 0.42002 0.29815 0.0
O538 O 0.67557 0.38772 0.3334 0.0
C539 C 0.58391 0.40415 0.30826 0.0
C540 C 0.57426 0.48558 0.37781 0.0
C541 C 0.66422 0.38564 0.36396 0.0
O542 O 0.5854 0.42428 0.33463 0.0
O543 O 0.6099 0.39858 0.28897 0.0
O544 O 0.65927 0.4822 0.37891 0.0
O545 O 0.65399 0.46236 0.32655 0.0
Co546 Co 0.25248 0.54196 0.55929 0.0
O547 O 0.23269 0.5874 0.54845 0.0
O548 O 0.28863 0.57775 0.5516 0.0
C549 C 0.22148 0.50332 0.52632 0.0
O550 O 0.28149 0.49885 0.56945 0.0
Co551 Co 0.20433 0.48826 0.59854 0.0
O552 O 0.24428 0.45734 0.59102 0.0
C553 C 0.24435 0.54116 0.63778 0.0
C554 C 0.26405 0.60045 0.54752 0.0
C555 C 0.27429 0.46742 0.58091 0.0
O556 O 0.25496 0.55471 0.6094 0.0
O557 O 0.22195 0.51562 0.63913 0.0
O558 O 0.24577 0.52333 0.51283 0.0
O559 O 0.21152 0.51389 0.55618 0.0
Co560 Co 0.38064 0.02498 0.70819 0.0
O561 O 0.41629 0.03845 0.6759 0.0
O562 O 0.41798 0.99179 0.71049 0.0
C563 C 0.33252 0.03125 0.67591 0.0
O564 O 0.34861 0.00304 0.7443 0.0
Co565 Co 0.32907 0.08293 0.73082 0.0
O566 O 0.30437 0.04054 0.7503 0.0
C567 C 0.40104 0.08761 0.75334 0.0
C568 C 0.43366 0.01218 0.68817 0.0
C569 C 0.31825 0.01052 0.75527 0.0
O570 O 0.40509 0.05526 0.7439 0.0
O571 O 0.37381 0.10499 0.74684 0.0
O572 O 0.35075 0.0027 0.67296 0.0
O573 O 0.34747 0.05652 0.69301 0.0
Co574 Co 0.68809 0.2903 0.99739 0.0
O575 O 0.73192 0.27249 0.98163 0.0
O576 O 0.68125 0.2574 0.9596 0.0
C577 C 0.70096 0.34923 0.00509 0.0
O578 O 0.63767 0.30109 0.00814 0.0
Co579 Co 0.68593 0.31338 0.07316 0.0
O580 O 0.63577 0.31703 0.06362 0.0
C581 C 0.6841 0.23803 0.05829 0.0
C582 C 0.71409 0.25088 0.96203 0.0
C583 C 0.62085 0.30986 0.03529 0.0
O584 O 0.68368 0.24776 0.02716 0.0
O585 O 0.6876 0.26044 0.08275 0.0
O586 O 0.69436 0.33675 0.97461 0.0
O587 O 0.70527 0.32501 0.0282 0.0
Co588 Co 0.90706 0.29701 0.12527 0.0
O589 O 0.92399 0.26049 0.15533 0.0
O590 O 0.87315 0.28583 0.1601 0.0
C591 C 0.92056 0.27657 0.07231 0.0
O592 O 0.88101 0.33533 0.10064 0.0
Co593 Co 0.95977 0.34433 0.08664 0.0
O594 O 0.91834 0.36962 0.07039 0.0
C595 C 0.95253 0.35606 0.15889 0.0
C596 C 0.89617 0.26537 0.1734 0.0
C597 C 0.88783 0.36148 0.08034 0.0
O598 O 0.92695 0.33381 0.15757 0.0
O599 O 0.97223 0.3621 0.13328 0.0
O600 O 0.89382 0.26348 0.08868 0.0
O601 O 0.94137 0.29578 0.09114 0.0
Co602 Co 0.06722 0.74104 0.61219 0.0
O603 O 0.10465 0.74977 0.64394 0.0
O604 O 0.06383 0.70801 0.65009 0.0
C605 C 0.09594 0.74466 0.56172 0.0
O606 O 0.02484 0.72486 0.58472 0.0
Co607 Co 0.04757 0.80204 0.56234 0.0
O608 O 0.01614 0.76469 0.54274 0.0
C609 C 0.03442 0.80862 0.6357 0.0
C610 C 0.09012 0.72552 0.66319 0.0
C611 C 0.009 0.73516 0.55753 0.0
O612 O 0.03838 0.77507 0.63925 0.0
O613 O 0.04108 0.82533 0.60788 0.0
O614 O 0.09642 0.71521 0.57932 0.0
O615 O 0.08336 0.7712 0.57783 0.0
Co616 Co 0.63559 0.98374 0.70652 0.0
O617 O 0.59816 0.97241 0.67549 0.0
O618 O 0.59995 0.01877 0.71044 0.0
C619 C 0.68168 0.9753 0.67194 0.0
O620 O 0.67023 0.00375 0.74137 0.0
Co621 Co 0.6855 0.92335 0.72647 0.0
O622 O 0.71307 0.96434 0.74493 0.0
C623 C 0.61451 0.92164 0.75217 0.0
C624 C 0.5826 0.99958 0.68831 0.0
C625 C 0.70069 0.99487 0.75103 0.0
O626 O 0.61126 0.95422 0.74301 0.0
O627 O 0.64079 0.90323 0.74459 0.0
O628 O 0.66492 0.00491 0.67022 0.0
O629 O 0.66641 0.95071 0.68965 0.0
Co630 Co 0.32114 0.71546 0.00425 0.0
O631 O 0.28045 0.73545 0.98305 0.0
O632 O 0.33441 0.75035 0.97036 0.0
C633 C 0.30736 0.65631 0.00607 0.0
O634 O 0.36943 0.70351 0.02062 0.0
Co635 Co 0.31439 0.68543 0.07744 0.0
O636 O 0.36585 0.68735 0.07586 0.0
C637 C 0.31074 0.76147 0.06811 0.0
C638 C 0.30186 0.75768 0.96783 0.0
C639 C 0.38353 0.69514 0.04928 0.0
O640 O 0.32026 0.75558 0.03742 0.0
O641 O 0.30384 0.73633 0.08923 0.0
O642 O 0.31845 0.6709 0.97775 0.0
O643 O 0.29973 0.67867 0.02998 0.0
Co644 Co 0.38255 0.55521 0.35767 0.0
O645 O 0.4109 0.51465 0.34947 0.0
O646 O 0.4169 0.55074 0.39381 0.0
C647 C 0.32938 0.53162 0.3461 0.0
O648 O 0.35852 0.60009 0.3737 0.0
Co649 Co 0.34562 0.58854 0.2952 0.0
O650 O 0.32596 0.62012 0.33033 0.0
C651 C 0.41847 0.60622 0.3064 0.0
C652 C 0.42896 0.52452 0.37602 0.0
C653 C 0.33697 0.62225 0.361 0.0
O654 O 0.41723 0.58574 0.33254 0.0
O655 O 0.39254 0.61137 0.28691 0.0
O656 O 0.34398 0.52593 0.37554 0.0
O657 O 0.34956 0.54606 0.3233 0.0
Co658 Co 0.74828 0.46211 0.56255 0.0
O659 O 0.76918 0.41653 0.55405 0.0
O660 O 0.71312 0.42616 0.55251 0.0
C661 C 0.78106 0.5009 0.5317 0.0
O662 O 0.71805 0.50511 0.56912 0.0
Co663 Co 0.79105 0.51677 0.60546 0.0
O664 O 0.75291 0.54789 0.59172 0.0
C665 C 0.75192 0.46158 0.64171 0.0
C666 C 0.73794 0.40348 0.55072 0.0
C667 C 0.72425 0.53748 0.57856 0.0
O668 O 0.74192 0.44986 0.61243 0.0
O669 O 0.7741 0.48713 0.64484 0.0
O670 O 0.75867 0.47987 0.51656 0.0
O671 O 0.78892 0.49095 0.56248 0.0
C672 C 0.22997 0.46344 0.19699 0.0
C673 C 0.2216 0.4524 0.16353 0.0
C674 C 0.2051 0.46313 0.22299 0.0
C675 C 0.17075 0.45168 0.21675 0.0
H676 H 0.2553 0.4748 0.2027 0.0
H677 H 0.21246 0.47403 0.24767 0.0
S678 S 0.13714 0.41316 0.13553 0.0
N679 N 0.17777 0.42425 0.12706 0.0
N680 N 0.13104 0.42382 0.17601 0.0
C681 C 0.16296 0.43685 0.18452 0.0
C682 C 0.1884 0.43712 0.15791 0.0
C683 C 0.68989 0.29067 0.38222 0.0
C684 C 0.68153 0.28598 0.4169 0.0
C685 C 0.68578 0.32347 0.36598 0.0
C686 C 0.67279 0.35311 0.38357 0.0
H687 H 0.699 0.26863 0.36712 0.0
H688 H 0.69165 0.32502 0.33893 0.0
S689 S 0.65024 0.35625 0.47569 0.0
N690 N 0.66215 0.31494 0.46921 0.0
N691 N 0.65418 0.37637 0.43834 0.0
C692 C 0.66576 0.34936 0.41864 0.0
C693 C 0.67021 0.31593 0.43536 0.0
C694 C 0.83553 0.84714 0.60914 0.0
C695 C 0.85276 0.86811 0.58417 0.0
C696 C 0.82229 0.81291 0.6014 0.0
C697 C 0.82547 0.79866 0.56835 0.0
H698 H 0.83393 0.85637 0.63532 0.0
H699 H 0.81033 0.79723 0.62161 0.0
S700 S 0.86649 0.84431 0.49333 0.0
N701 N 0.8702 0.87329 0.52478 0.0
N702 N 0.84619 0.80938 0.51001 0.0
C703 C 0.84127 0.82031 0.54279 0.0
C704 C 0.85462 0.85491 0.55075 0.0
C705 C 0.31521 0.971 0.80631 0.0
C706 C 0.29913 0.9852 0.77737 0.0
C707 C 0.29536 0.95833 0.83399 0.0
C708 C 0.25894 0.95986 0.83343 0.0
H709 H 0.34301 0.97335 0.80923 0.0
H710 H 0.3088 0.95161 0.85733 0.0
S711 S 0.2053 0.98348 0.75856 0.0
N712 N 0.24546 0.99187 0.74618 0.0
N713 N 0.20808 0.96774 0.79789 0.0
C714 C 0.24294 0.96833 0.80228 0.0
C715 C 0.2631 0.98137 0.77433 0.0
C716 C 0.1887 0.28828 0.864 0.0
C717 C 0.18665 0.28473 0.89981 0.0
C718 C 0.18106 0.32051 0.84772 0.0
C719 C 0.17054 0.35035 0.86652 0.0
H720 H 0.19554 0.26582 0.84825 0.0
H721 H 0.18236 0.32166 0.82007 0.0
S722 S 0.16416 0.35675 0.96089 0.0
N723 N 0.17587 0.31551 0.9537 0.0
N724 N 0.16085 0.37525 0.92283 0.0
C725 C 0.16944 0.34765 0.90228 0.0
C726 C 0.17771 0.31514 0.91897 0.0
C727 C 0.81725 0.56551 0.1627 0.0
C728 C 0.78267 0.55466 0.16898 0.0
C729 C 0.84213 0.56547 0.18887 0.0
C730 C 0.83327 0.55468 0.22224 0.0
H731 H 0.82597 0.5711 0.13688 0.0
H732 H 0.86887 0.5711 0.18222 0.0
S733 S 0.74475 0.53336 0.25399 0.0
N734 N 0.73978 0.5398 0.21252 0.0
N735 N 0.78638 0.53987 0.26158 0.0
C736 C 0.7981 0.54799 0.22967 0.0
C737 C 0.77283 0.54801 0.20308 0.0
C738 C 0.7392 0.9691 0.29686 0.0
C739 C 0.75436 0.95923 0.32809 0.0
C740 C 0.75964 0.98035 0.26922 0.0
C741 C 0.79589 0.98153 0.27164 0.0
H742 H 0.71148 0.97205 0.29499 0.0
H743 H 0.74698 0.99141 0.24702 0.0
S744 S 0.84833 0.94885 0.34373 0.0
N745 N 0.80794 0.94384 0.35684 0.0
N746 N 0.84615 0.96507 0.30455 0.0
C747 C 0.81134 0.96641 0.30042 0.0
C748 C 0.79054 0.95502 0.32877 0.0
C749 C 0.18511 0.18227 0.54685 0.0
C750 C 0.18984 0.20876 0.57225 0.0
C751 C 0.17321 0.14795 0.555 0.0
C752 C 0.16654 0.13831 0.58898 0.0
H753 H 0.18856 0.18853 0.52002 0.0
H754 H 0.16763 0.12938 0.53441 0.0
S755 S 0.18015 0.19522 0.66572 0.0
N756 N 0.19069 0.22138 0.63324 0.0
N757 N 0.1693 0.15629 0.64878 0.0
C758 C 0.17442 0.16321 0.61501 0.0
C759 C 0.18593 0.19856 0.60661 0.0
C760 C 0.0389 0.31244 0.57892 0.0
C761 C 0.0195 0.29391 0.55394 0.0
C762 C 0.07276 0.32459 0.57223 0.0
C763 C 0.08861 0.31866 0.5403 0.0
H764 H 0.02903 0.31511 0.6047 0.0
H765 H 0.0874 0.33618 0.59323 0.0
S766 S 0.0451 0.28049 0.46344 0.0
N767 N 0.01583 0.27684 0.49402 0.0
N768 N 0.07941 0.29964 0.48136 0.0
C769 C 0.06787 0.30419 0.51387 0.0
C770 C 0.03337 0.29177 0.52073 0.0
C771 C 0.02856 0.33675 0.79642 0.0
C772 C 0.99915 0.35345 0.80928 0.0
C773 C 0.05529 0.35697 0.78106 0.0
C774 C 0.05313 0.39419 0.77869 0.0
H775 H 0.03309 0.30911 0.80241 0.0
H776 H 0.07974 0.3443 0.77656 0.0
S777 S 0.97582 0.44731 0.79584 0.0
N778 N 0.96518 0.40691 0.8095 0.0
N779 N 0.01535 0.44469 0.78023 0.0
C780 C 0.021 0.40948 0.78482 0.0
C781 C 0.99405 0.38916 0.80076 0.0
C782 C 0.84104 0.44696 0.06512 0.0
C783 C 0.80633 0.43636 0.07 0.0
C784 C 0.86731 0.42203 0.06596 0.0
C785 C 0.85971 0.3857 0.07176 0.0
H786 H 0.84823 0.47487 0.06266 0.0
H787 H 0.89386 0.43167 0.06427 0.0
S788 S 0.77245 0.34345 0.07854 0.0
N789 N 0.76533 0.38642 0.07525 0.0
N790 N 0.81481 0.33971 0.07702 0.0
C791 C 0.82494 0.37442 0.07357 0.0
C792 C 0.7982 0.39972 0.07264 0.0
C793 C 0.95252 0.15021 0.29171 0.0
C794 C 0.95405 0.13564 0.32486 0.0
C795 C 0.93789 0.13069 0.26469 0.0
C796 C 0.92574 0.09565 0.26975 0.0
H797 H 0.95781 0.17837 0.28782 0.0
H798 H 0.93306 0.14416 0.24071 0.0
S799 S 0.93253 0.04253 0.34912 0.0
N800 N 0.94849 0.08223 0.35954 0.0
N801 N 0.9224 0.04487 0.30814 0.0
C802 C 0.93253 0.07896 0.30111 0.0
C803 C 0.9468 0.09911 0.32887 0.0
C804 C 0.21153 0.8988 0.41497 0.0
C805 C 0.20336 0.93471 0.42067 0.0
C806 C 0.18571 0.87232 0.41156 0.0
C807 C 0.1506 0.88047 0.41413 0.0
H808 H 0.23816 0.89098 0.41238 0.0
H809 H 0.19337 0.8453 0.40644 0.0
S810 S 0.11507 0.96996 0.43015 0.0
N811 N 0.15735 0.9767 0.42975 0.0
N812 N 0.10882 0.9269 0.42366 0.0
C813 C 0.14196 0.916 0.42107 0.0
C814 C 0.16831 0.94308 0.4243 0.0
C815 C 0.41942 0.36571 0.71214 0.0
C816 C 0.44135 0.3689 0.68338 0.0
C817 C 0.41479 0.39418 0.7346 0.0
C818 C 0.4322 0.42702 0.72969 0.0
H819 H 0.40369 0.34187 0.71623 0.0
H820 H 0.39602 0.39081 0.75497 0.0
S821 S 0.49975 0.44595 0.66404 0.0
N822 N 0.48564 0.40522 0.65518 0.0
N823 N 0.47756 0.45862 0.6978 0.0
C824 C 0.45738 0.42916 0.70355 0.0
C825 C 0.46185 0.40013 0.68037 0.0
C826 C 0.95553 0.8052 0.89056 0.0
C827 C 0.97546 0.78928 0.91611 0.0
C828 C 0.92468 0.82207 0.89891 0.0
C829 C 0.9129 0.82336 0.93304 0.0
H830 H 0.96168 0.80123 0.86381 0.0
H831 H 0.90832 0.8306 0.87814 0.0
S832 S 0.96167 0.79515 0.00971 0.0
N833 N 0.98566 0.78286 0.97705 0.0
N834 N 0.92795 0.8148 0.99288 0.0
C835 C 0.93541 0.81229 0.959 0.0
C836 C 0.96665 0.79508 0.95047 0.0
C837 C 0.47298 0.12388 0.15968 0.0
C838 C 0.48299 0.15935 0.15356 0.0
C839 C 0.49783 0.09824 0.16554 0.0
C840 C 0.5333 0.10721 0.16431 0.0
H841 H 0.44629 0.11526 0.15617 0.0
H842 H 0.4894 0.07067 0.16569 0.0
S843 S 0.57189 0.19787 0.15729 0.0
N844 N 0.52984 0.20358 0.15376 0.0
N845 N 0.57672 0.15481 0.16356 0.0
C846 C 0.54316 0.14333 0.16379 0.0
C847 C 0.5178 0.16966 0.15836 0.0
C848 C 0.05363 0.85434 0.27709 0.0
C849 C 0.0491 0.86811 0.31023 0.0
C850 C 0.06868 0.87524 0.25129 0.0
C851 C 0.07871 0.91074 0.25764 0.0
H852 H 0.04999 0.82606 0.27243 0.0
H853 H 0.07553 0.86263 0.22738 0.0
S854 S 0.06415 0.96159 0.33728 0.0
N855 N 0.04968 0.9209 0.34605 0.0
N856 N 0.07699 0.96071 0.29699 0.0
C857 C 0.06915 0.92632 0.28879 0.0
C858 C 0.05425 0.90483 0.3153 0.0
C859 C 0.34851 0.40808 0.55814 0.0
C860 C 0.34786 0.38374 0.58552 0.0
C861 C 0.32571 0.43657 0.55731 0.0
C862 C 0.3015 0.44111 0.58361 0.0
H863 H 0.36636 0.40484 0.53709 0.0
H864 H 0.32636 0.45446 0.53562 0.0
S865 S 0.29369 0.38897 0.66385 0.0
N866 N 0.32408 0.36927 0.64176 0.0
N867 N 0.28112 0.42215 0.63962 0.0
C868 C 0.30189 0.41816 0.61186 0.0
C869 C 0.32503 0.38953 0.61291 0.0
C870 C 0.96559 0.59908 0.78603 0.0
C871 C 0.93242 0.61189 0.77927 0.0
C872 C 0.99151 0.62173 0.79922 0.0
C873 C 0.98514 0.65782 0.80514 0.0
H874 H 0.96976 0.57067 0.78648 0.0
H875 H 0.01495 0.61009 0.80882 0.0
S876 S 0.90638 0.70599 0.78179 0.0
N877 N 0.89741 0.66409 0.77175 0.0
N878 N 0.94655 0.70682 0.79614 0.0
C879 C 0.95454 0.67203 0.79247 0.0
C880 C 0.92802 0.6489 0.7792 0.0
C881 C 0.20315 0.60278 0.06581 0.0
C882 C 0.19674 0.56614 0.06063 0.0
C883 C 0.17622 0.62683 0.06622 0.0
C884 C 0.14179 0.61529 0.06123 0.0
H885 H 0.22904 0.61291 0.07117 0.0
H886 H 0.18233 0.65443 0.07212 0.0
S887 S 0.11177 0.52305 0.04089 0.0
N888 N 0.15391 0.52011 0.04612 0.0
N889 N 0.10316 0.56543 0.0466 0.0
C890 C 0.13532 0.57927 0.05285 0.0
C891 C 0.16284 0.55465 0.05262 0.0
C892 C 0.52639 0.87836 0.17599 0.0
C893 C 0.51971 0.84245 0.16828 0.0
C894 C 0.49908 0.90131 0.18177 0.0
C895 C 0.46462 0.8893 0.17796 0.0
H896 H 0.55236 0.88952 0.17365 0.0
H897 H 0.50498 0.92945 0.18325 0.0
S898 S 0.4343 0.79593 0.16775 0.0
N899 N 0.47688 0.79417 0.16588 0.0
N900 N 0.42552 0.83812 0.17468 0.0
C901 C 0.45799 0.85253 0.17663 0.0
C902 C 0.48576 0.82884 0.17172 0.0
C903 C 0.30921 0.13699 0.93152 0.0
C904 C 0.34463 0.13108 0.93555 0.0
C905 C 0.2852 0.10867 0.93105 0.0
C906 C 0.29566 0.07313 0.93416 0.0
H907 H 0.30003 0.1637 0.9276 0.0
H908 H 0.25826 0.11479 0.92724 0.0
S909 S 0.38556 0.04372 0.9476 0.0
N910 N 0.38909 0.08748 0.94478 0.0
N911 N 0.34393 0.03393 0.94365 0.0
C912 C 0.33092 0.06697 0.93998 0.0
C913 C 0.35541 0.09602 0.94074 0.0
C914 C 0.52736 0.19613 0.42163 0.0
C915 C 0.51155 0.21835 0.44561 0.0
C916 C 0.55867 0.1799 0.42907 0.0
C917 C 0.57544 0.18542 0.46073 0.0
H918 H 0.51711 0.19352 0.39594 0.0
H919 H 0.57116 0.16557 0.40865 0.0
S920 S 0.53887 0.23206 0.53575 0.0
N921 N 0.5106 0.23821 0.50483 0.0
N922 N 0.56954 0.20785 0.51885 0.0
C923 C 0.55737 0.20347 0.48647 0.0
C924 C 0.52545 0.22001 0.47886 0.0
C925 C 0.75807 0.01606 0.77231 0.0
C926 C 0.72191 0.01907 0.77278 0.0
C927 C 0.77843 0.02898 0.79936 0.0
C928 C 0.76325 0.04476 0.82818 0.0
H929 H 0.77044 1.00093 0.75234 0.0
H930 H 0.80563 0.02279 0.79938 0.0
S931 S 0.67108 0.06921 0.83609 0.0
N932 N 0.67286 0.0467 0.79989 0.0
N933 N 0.71101 0.07108 0.85095 0.0
C934 C 0.72796 0.05332 0.82601 0.0
C935 C 0.70721 0.0402 0.79828 0.0
C936 C 0.3136 0.68369 0.36351 0.0
C937 C 0.32753 0.65435 0.38082 0.0
C938 C 0.30886 0.71628 0.37995 0.0
C939 C 0.31754 0.72102 0.41457 0.0
H940 H 0.30747 0.68209 0.33651 0.0
H941 H 0.29904 0.73815 0.36508 0.0
S942 S 0.3513 0.65137 0.47265 0.0
N943 N 0.34735 0.63134 0.43527 0.0
N944 N 0.33829 0.69235 0.46649 0.0
C945 C 0.3298 0.69131 0.43275 0.0
C946 C 0.33485 0.65811 0.41583 0.0
C947 C 0.19274 0.03945 0.2966 0.0
C948 C 0.20925 0.02595 0.26759 0.0
C949 C 0.21204 0.04969 0.32553 0.0
C950 C 0.24831 0.04634 0.32621 0.0
H951 H 0.1648 0.03832 0.29844 0.0
H952 H 0.19803 0.05603 0.34865 0.0
S953 S 0.30365 0.02339 0.25242 0.0
N954 N 0.26372 0.01798 0.23813 0.0
N955 N 0.30005 0.03719 0.29235 0.0
C956 C 0.26511 0.03837 0.29538 0.0
C957 C 0.2455 0.02799 0.26608 0.0
C958 C 0.83078 0.66057 0.90055 0.0
C959 C 0.82057 0.65388 0.86662 0.0
C960 C 0.82488 0.69338 0.91626 0.0
C961 C 0.80882 0.7214 0.89871 0.0
H962 H 0.84378 0.64039 0.91517 0.0
H963 H 0.83389 0.69694 0.9423 0.0
S964 S 0.77547 0.71727 0.80977 0.0
N965 N 0.79217 0.67783 0.81621 0.0
N966 N 0.78145 0.73952 0.84578 0.0
C967 C 0.79773 0.71489 0.86499 0.0
C968 C 0.80346 0.68121 0.84899 0.0
C969 C 0.92821 0.67667 0.56051 0.0
C970 C 0.90949 0.68833 0.53181 0.0
C971 C 0.96181 0.68953 0.56719 0.0
C972 C 0.97814 0.71445 0.54536 0.0
H973 H 0.91592 0.65971 0.57957 0.0
H974 H 0.97386 0.68193 0.59102 0.0
S975 S 0.94446 0.74533 0.4617 0.0
N976 N 0.91275 0.72037 0.47773 0.0
N977 N 0.97604 0.74413 0.49002 0.0
C978 C 0.96158 0.72253 0.51426 0.0
C979 C 0.92726 0.70948 0.50749 0.0
C980 C 0.04135 0.23526 0.95764 0.0
C981 C 0.02534 0.23126 0.92549 0.0
C982 C 0.07109 0.21668 0.96591 0.0
C983 C 0.08628 0.1936 0.9422 0.0
H984 H 0.03214 0.25462 0.97582 0.0
H985 H 0.08377 0.22298 0.98993 0.0
S986 S 0.04927 0.167 0.85803 0.0
N987 N 0.02293 0.19746 0.87248 0.0
N988 N 0.07891 0.16236 0.88797 0.0
C989 C 0.06799 0.18596 0.91174 0.0
C990 C 0.03751 0.20488 0.90336 0.0
C991 C 0.85272 0.08869 0.43136 0.0
C992 C 0.84475 0.12456 0.42553 0.0
C993 C 0.82663 0.06202 0.43231 0.0
C994 C 0.79169 0.07037 0.42766 0.0
H995 H 0.8794 0.08091 0.43354 0.0
H996 H 0.83408 0.03461 0.43533 0.0
S997 S 0.75733 0.1614 0.41684 0.0
N998 N 0.79961 0.16756 0.4186 0.0
N999 N 0.7505 0.11813 0.42103 0.0
C1000 C 0.78341 0.10662 0.42405 0.0
C1001 C 0.80995 0.13351 0.42277 0.0
C1002 C 0.57388 0.62656 0.7145 0.0
C1003 C 0.55447 0.62367 0.68403 0.0
C1004 C 0.57731 0.59769 0.73666 0.0
C1005 C 0.56143 0.5645 0.72955 0.0
H1006 H 0.58859 0.65064 0.72037 0.0
H1007 H 0.59409 0.60109 0.75866 0.0
S1008 S 0.50175 0.54485 0.65706 0.0
N1009 N 0.51478 0.58645 0.65072 0.0
N1010 N 0.52093 0.53208 0.69257 0.0
C1011 C 0.53902 0.5622 0.70108 0.0
C1012 C 0.53559 0.59178 0.67832 0.0
C1013 C 0.47392 0.7335 0.03678 0.0
C1014 C 0.49039 0.7254 0.0679 0.0
C1015 C 0.44031 0.72097 0.02957 0.0
C1016 C 0.42163 0.69985 0.0532 0.0
H1017 H 0.4863 0.75128 0.01847 0.0
H1018 H 0.42818 0.72999 0.00626 0.0
S1019 S 0.45539 0.66489 0.13529 0.0
N1020 N 0.48719 0.6904 0.12026 0.0
N1021 N 0.42419 0.66666 0.1066 0.0
C1022 C 0.439 0.68864 0.08289 0.0
C1023 C 0.47331 0.70143 0.09025 0.0
C1024 C 0.46907 0.78528 0.47694 0.0
C1025 C 0.48587 0.78962 0.44523 0.0
C1026 C 0.43766 0.80154 0.48364 0.0
C1027 C 0.42156 0.82257 0.45875 0.0
H1028 H 0.47903 0.76726 0.49599 0.0
H1029 H 0.42461 0.79492 0.5074 0.0
S1030 S 0.45976 0.85023 0.37539 0.0
N1031 N 0.48775 0.82237 0.39154 0.0
N1032 N 0.42868 0.85308 0.4041 0.0
C1033 C 0.44044 0.83102 0.42884 0.0
C1034 C 0.47258 0.81444 0.42204 0.0
C1035 C 0.72488 0.90129 0.91517 0.0
C1036 C 0.71704 0.93596 0.92593 0.0
C1037 C 0.70061 0.87336 0.91741 0.0
C1038 C 0.66735 0.87867 0.93056 0.0
H1039 H 0.74989 0.89553 0.90436 0.0
H1040 H 0.70787 0.84749 0.90796 0.0
S1041 S 0.63455 0.96341 0.96536 0.0
N1042 N 0.67427 0.97343 0.95267 0.0
N1043 N 0.62839 0.92076 0.95665 0.0
C1044 C 0.6595 0.91277 0.94288 0.0
C1045 C 0.68433 0.94143 0.94051 0.0
C1046 C 0.73532 0.46996 0.70299 0.0
C1047 C 0.73109 0.45082 0.67228 0.0
C1048 C 0.70938 0.46978 0.72797 0.0
C1049 C 0.67803 0.45043 0.7234 0.0
H1050 H 0.75756 0.48757 0.70675 0.0
H1051 H 0.71318 0.48691 0.74999 0.0
S1052 S 0.65832 0.38787 0.65209 0.0
N1053 N 0.69633 0.40583 0.64218 0.0
N1054 N 0.64745 0.40585 0.68896 0.0
C1055 C 0.67537 0.42759 0.69492 0.0
C1056 C 0.70195 0.42764 0.66946 0.0
C1057 C 0.32569 0.86002 0.0596 0.0
C1058 C 0.33655 0.86977 0.09248 0.0
C1059 C 0.31316 0.82559 0.05303 0.0
C1060 C 0.31223 0.79925 0.07882 0.0
H1061 H 0.32888 0.87841 0.03842 0.0
H1062 H 0.30684 0.81886 0.02684 0.0
S1063 S 0.33242 0.81353 0.1705 0.0
N1064 N 0.34072 0.85247 0.15233 0.0
N1065 N 0.31847 0.78698 0.13953 0.0
C1066 C 0.31964 0.80974 0.11253 0.0
C1067 C 0.33168 0.84522 0.11942 0.0
C1068 C 0.28611 0.52511 0.72326 0.0
C1069 C 0.31752 0.54475 0.7208 0.0
C1070 C 0.26042 0.52744 0.6982 0.0
C1071 C 0.26503 0.54924 0.6692 0.0
H1072 H 0.28198 0.50589 0.74356 0.0
H1073 H 0.23807 0.50969 0.70036 0.0
S1074 S 0.3388 0.61263 0.65452 0.0
N1075 N 0.34897 0.59163 0.69008 0.0
N1076 N 0.30076 0.59596 0.64286 0.0
C1077 C 0.29453 0.57209 0.66838 0.0
C1078 C 0.32079 0.56975 0.69407 0.0
C1079 C 0.67074 0.14892 0.10363 0.0
C1080 C 0.65542 0.12747 0.07784 0.0
C1081 C 0.68111 0.18439 0.09715 0.0
C1082 C 0.67674 0.19954 0.06462 0.0
H1083 H 0.6729 0.139 0.12954 0.0
H1084 H 0.69152 0.2003 0.118 0.0
S1085 S 0.63993 0.15323 0.98784 0.0
N1086 N 0.63889 0.12289 0.01819 0.0
N1087 N 0.65715 0.18912 0.00581 0.0
C1088 C 0.66305 0.17749 0.0382 0.0
C1089 C 0.6528 0.14158 0.04485 0.0
C1090 C 0.53116 0.30477 0.07349 0.0
C1091 C 0.51356 0.28084 0.0516 0.0
C1092 C 0.56475 0.31715 0.06603 0.0
C1093 C 0.58241 0.30598 0.03645 0.0
H1094 H 0.51992 0.31229 0.09773 0.0
H1095 H 0.57781 0.33368 0.08495 0.0
S1096 S 0.54463 0.2507 0.96657 0.0
N1097 N 0.5138 0.25208 0.99568 0.0
N1098 N 0.57724 0.27469 0.98218 0.0
C1099 C 0.56368 0.28539 0.01245 0.0
C1100 C 0.52925 0.27292 0.01994 0.0
C1101 C 0.52997 0.3247 0.32905 0.0
C1102 C 0.49889 0.3408 0.33819 0.0
C1103 C 0.55668 0.34458 0.31328 0.0
C1104 C 0.55285 0.38097 0.30628 0.0
H1105 H 0.53491 0.29768 0.33702 0.0
H1106 H 0.58169 0.33254 0.31045 0.0
S1107 S 0.47241 0.43148 0.31546 0.0
N1108 N 0.46286 0.39221 0.33232 0.0
N1109 N 0.51298 0.42971 0.30247 0.0
C1110 C 0.52016 0.39567 0.311 0.0
C1111 C 0.49317 0.37555 0.32723 0.0
C1112 C 0.44794 0.16161 0.79826 0.0
C1113 C 0.44958 0.14801 0.83175 0.0
C1114 C 0.43596 0.14031 0.77123 0.0
C1115 C 0.42619 0.10457 0.77676 0.0
H1116 H 0.45126 0.18994 0.79385 0.0
H1117 H 0.43096 0.15277 0.74678 0.0
S1118 S 0.43383 0.05434 0.85776 0.0
N1119 N 0.44657 0.09533 0.86763 0.0
N1120 N 0.42505 0.05482 0.81641 0.0
C1121 C 0.43302 0.08931 0.80878 0.0
C1122 C 0.44478 0.1112 0.83648 0.0
C1123 C 0.92369 0.4049 0.23757 0.0
C1124 C 0.94519 0.43562 0.23751 0.0
C1125 C 0.92848 0.37749 0.21409 0.0
C1126 C 0.95481 0.37973 0.18924 0.0
H1127 H 0.90162 0.40272 0.25455 0.0
H1128 H 0.90975 0.3556 0.21403 0.0
S1129 S 0.02452 0.44912 0.18511 0.0
N1130 N 0.99866 0.46253 0.21585 0.0
N1131 N 0.00725 0.41132 0.17101 0.0
C1132 C 0.9791 0.40804 0.19168 0.0
C1133 C 0.97437 0.43593 0.21595 0.0
C1134 C 0.0531 0.15875 0.66933 0.0
C1135 C 0.04293 0.123 0.67457 0.0
C1136 C 0.02836 0.18436 0.66192 0.0
C1137 C 0.99311 0.17466 0.66005 0.0
H1138 H 0.08013 0.16573 0.66528 0.0
H1139 H 0.03721 0.21034 0.65308 0.0
S1140 S 0.9533 0.08781 0.68355 0.0
N1141 N 0.99534 0.08185 0.68672 0.0
N1142 N 0.94889 0.12979 0.67227 0.0
C1143 C 0.98256 0.14085 0.67137 0.0
C1144 C 0.00763 0.11504 0.67921 0.0
C1145 C 0.58443 0.92032 0.80844 0.0
C1146 C 0.58932 0.90522 0.77594 0.0
C1147 C 0.57196 0.89938 0.83578 0.0
C1148 C 0.56421 0.86291 0.83116 0.0
H1149 H 0.59393 0.94712 0.81369 0.0
H1150 H 0.57274 0.91063 0.8613 0.0
S1151 S 0.56342 0.81423 0.7488 0.0
N1152 N 0.57868 0.85433 0.73904 0.0
N1153 N 0.55512 0.81499 0.79024 0.0
C1154 C 0.56415 0.84928 0.7977 0.0
C1155 C 0.57694 0.87044 0.77008 0.0
C1156 C 0.44398 0.6659 0.31516 0.0
C1157 C 0.44881 0.63042 0.30517 0.0
C1158 C 0.47034 0.68523 0.33203 0.0
C1159 C 0.50212 0.66953 0.3392 0.0
H1160 H 0.41852 0.67722 0.31383 0.0
H1161 H 0.46468 0.7112 0.34235 0.0
S1162 S 0.531 0.58218 0.30868 0.0
N1163 N 0.49011 0.58365 0.29664 0.0
N1164 N 0.53966 0.62012 0.32853 0.0
C1165 C 0.50874 0.6361 0.32534 0.0
C1166 C 0.48204 0.61653 0.30805 0.0
C1167 C 0.70845 0.60095 0.57555 0.0
C1168 C 0.69804 0.56485 0.57339 0.0
C1169 C 0.68433 0.6278 0.57589 0.0
C1170 C 0.64888 0.61973 0.57354 0.0
H1171 H 0.73545 0.60867 0.57837 0.0
H1172 H 0.69348 0.65499 0.57966 0.0
S1173 S 0.60822 0.53012 0.56241 0.0
N1174 N 0.65002 0.52273 0.56512 0.0
N1175 N 0.6044 0.57367 0.56539 0.0
C1176 C 0.63811 0.58413 0.56837 0.0
C1177 C 0.6628 0.55654 0.56836 0.0
C1178 C 0.98021 0.82134 0.6658 0.0
C1179 C 0.01581 0.82844 0.66189 0.0
C1180 C 0.95783 0.84892 0.67394 0.0
C1181 C 0.97081 0.88396 0.67777 0.0
H1182 H 0.9691 0.79605 0.6575 0.0
H1183 H 0.93028 0.84397 0.67107 0.0
S1184 S 0.0628 0.91235 0.68287 0.0
N1185 N 0.06364 0.8699 0.67202 0.0
N1186 N 0.02157 0.92153 0.68781 0.0
C1187 C 0.00664 0.88917 0.68137 0.0
C1188 C 0.02933 0.86138 0.6728 0.0
C1189 C 0.07511 0.62384 0.20564 0.0
C1190 C 0.04876 0.62065 0.18087 0.0
C1191 C 0.07976 0.59752 0.23028 0.0
C1192 C 0.05814 0.56692 0.2315 0.0
H1193 H 0.09385 0.6457 0.20482 0.0
H1194 H 0.10182 0.60041 0.24719 0.0
S1195 S 0.97912 0.55103 0.17915 0.0
N1196 N 0.99649 0.58815 0.16357 0.0
N1197 N 0.00478 0.53903 0.21062 0.0
C1198 C 0.0291 0.56561 0.20973 0.0
C1199 C 0.02452 0.59238 0.18426 0.0
C1200 C 0.23886 0.54551 0.31097 0.0
C1201 C 0.21751 0.52374 0.33184 0.0
C1202 C 0.27488 0.54709 0.31524 0.0
C1203 C 0.29124 0.52762 0.34109 0.0
H1204 H 0.22779 0.56096 0.2905 0.0
H1205 H 0.28991 0.56407 0.29822 0.0
S1206 S 0.24721 0.46609 0.40225 0.0
N1207 N 0.21549 0.48158 0.3788 0.0
N1208 N 0.28309 0.48538 0.3877 0.0
C1209 C 0.27021 0.50585 0.36231 0.0
C1210 C 0.23346 0.50371 0.35748 0.0
C1211 C 0.6891 0.31436 0.55385 0.0
C1212 C 0.71372 0.2895 0.54345 0.0
C1213 C 0.69727 0.35088 0.55601 0.0
C1214 C 0.73057 0.36438 0.54825 0.0
H1215 H 0.66268 0.30584 0.559 0.0
H1216 H 0.67705 0.36872 0.56354 0.0
S1217 S 0.80565 0.31062 0.52271 0.0
N1218 N 0.77369 0.28109 0.52725 0.0
N1219 N 0.78916 0.3496 0.53195 0.0
C1220 C 0.75601 0.33976 0.53944 0.0
C1221 C 0.74759 0.30244 0.53694 0.0
C1222 C 0.77656 0.00371 0.66242 0.0
C1223 C 0.79363 0.97139 0.66702 0.0
C1224 C 0.74016 0.00488 0.6622 0.0
C1225 C 0.7196 0.9736 0.66562 0.0
H1226 H 0.79143 0.02831 0.65963 0.0
H1227 H 0.72815 0.03053 0.66033 0.0
S1228 S 0.7521 0.88162 0.67213 0.0
N1229 N 0.78737 0.90717 0.67154 0.0
N1230 N 0.71949 0.90899 0.66955 0.0
C1231 C 0.7366 0.94096 0.66807 0.0
C1232 C 0.77343 0.93994 0.66924 0.0
C1233 C 0.24875 0.84218 0.96338 0.0
C1234 C 0.27374 0.86905 0.95605 0.0
C1235 C 0.25738 0.8059 0.96478 0.0
C1236 C 0.29133 0.79468 0.95843 0.0
H1237 H 0.22237 0.84925 0.96893 0.0
H1238 H 0.23748 0.78667 0.97218 0.0
S1239 S 0.36577 0.8541 0.93465 0.0
N1240 N 0.33351 0.88143 0.94015 0.0
N1241 N 0.34955 0.81384 0.94206 0.0
C1242 C 0.31615 0.82123 0.94944 0.0
C1243 C 0.30747 0.85814 0.94853 0.0
C1244 C 0.22228 0.50193 0.82602 0.0
C1245 C 0.20676 0.47881 0.85007 0.0
C1246 C 0.25834 0.50356 0.82167 0.0
C1247 C 0.28012 0.48111 0.84017 0.0
H1248 H 0.20638 0.51863 0.8102 0.0
H1249 H 0.26918 0.52162 0.80271 0.0
S1250 S 0.25247 0.41571 0.90618 0.0
N1251 N 0.21612 0.43383 0.89354 0.0
N1252 N 0.28368 0.43525 0.88361 0.0
C1253 C 0.26505 0.45803 0.86444 0.0
C1254 C 0.2284 0.45731 0.86983 0.0
C1255 C 0.75003 0.6609 0.03418 0.0
C1256 C 0.77602 0.63617 0.04099 0.0
C1257 C 0.75801 0.69742 0.02923 0.0
C1258 C 0.79229 0.71091 0.03138 0.0
H1259 H 0.72335 0.65187 0.03186 0.0
H1260 H 0.73724 0.71496 0.02263 0.0
S1261 S 0.86946 0.65795 0.05236 0.0
N1262 N 0.8372 0.62847 0.05199 0.0
N1263 N 0.85207 0.6965 0.04341 0.0
C1264 C 0.81825 0.68662 0.03973 0.0
C1265 C 0.81018 0.6495 0.04429 0.0
C1266 C 0.77053 0.05661 0.17527 0.0
C1267 C 0.78928 0.02666 0.16514 0.0
C1268 C 0.73428 0.05598 0.17579 0.0
C1269 C 0.71515 0.02565 0.1654 0.0
H1270 H 0.78392 0.0808 0.18332 0.0
H1271 H 0.72119 0.07988 0.18335 0.0
S1272 S 0.75118 0.94041 0.13565 0.0
N1273 N 0.78554 0.96571 0.14429 0.0
N1274 N 0.71744 0.96498 0.14418 0.0
C1275 C 0.73339 0.99566 0.15471 0.0
C1276 C 0.77038 0.99609 0.15471 0.0
C1277 C 0.25067 0.1996 0.45865 0.0
C1278 C 0.21739 0.21222 0.45152 0.0
C1279 C 0.25796 0.16303 0.45704 0.0
C1280 C 0.23223 0.13727 0.44866 0.0
H1281 H 0.27106 0.21794 0.46678 0.0
H1282 H 0.28387 0.15484 0.46321 0.0
S1283 S 0.14154 0.15613 0.42502 0.0
N1284 N 0.15901 0.19564 0.43339 0.0
N1285 N 0.17257 0.12744 0.43101 0.0
C1286 C 0.19918 0.14959 0.44037 0.0
C1287 C 0.19186 0.18681 0.44154 0.0
C1288 C 0.18415 0.40833 0.5214 0.0
C1289 C 0.20993 0.38974 0.504 0.0
C1290 C 0.18734 0.44531 0.52716 0.0
C1291 C 0.21631 0.46527 0.51551 0.0
H1292 H 0.16146 0.39416 0.53092 0.0
H1293 H 0.16722 0.45827 0.54143 0.0
S1294 S 0.29208 0.42807 0.47039 0.0
N1295 N 0.26574 0.3934 0.47619 0.0
N1296 N 0.27208 0.46254 0.48668 0.0
C1297 C 0.24219 0.44674 0.49779 0.0
C1298 C 0.23892 0.4091 0.49216 0.0
C1299 C 0.00249 0.46571 0.88002 0.0
C1300 C 0.03087 0.48992 0.88125 0.0
C1301 C 0.9681 0.47752 0.87962 0.0
C1302 C 0.96057 0.51398 0.88149 0.0
H1303 H 0.00686 0.4375 0.87718 0.0
H1304 H 0.94729 0.45797 0.87671 0.0
S1305 S 0.0257 0.58773 0.88968 0.0
N1306 N 0.04908 0.55171 0.88691 0.0
N1307 N 0.98489 0.57393 0.88771 0.0
C1308 C 0.98878 0.53822 0.88506 0.0
C1309 C 0.02375 0.52622 0.88448 0.0
C1310 C 0.72124 0.44895 0.99565 0.0
C1311 C 0.70757 0.46392 0.02576 0.0
C1312 C 0.71837 0.4121 0.9889 0.0
C1313 C 0.70262 0.38835 0.01236 0.0
H1314 H 0.73529 0.46562 0.97756 0.0
H1315 H 0.7297 0.40196 0.96562 0.0
S1316 S 0.65871 0.41384 0.09276 0.0
N1317 N 0.6735 0.45196 0.07693 0.0
N1318 N 0.67083 0.38292 0.06561 0.0
C1319 C 0.6878 0.40301 0.04186 0.0
C1320 C 0.68946 0.44065 0.04811 0.0
C1321 C 0.98566 0.0366 0.16617 0.0
C1322 C 0.96577 0.00496 0.17042 0.0
C1323 C 0.02195 0.03623 0.16545 0.0
C1324 C 0.03953 0.00411 0.16767 0.0
H1325 H 0.97322 0.0621 0.1655 0.0
H1326 H 0.03633 0.06127 0.16407 0.0
S1327 S 0.99956 0.91385 0.17726 0.0
N1328 N 0.96641 0.94068 0.17598 0.0
N1329 N 0.0344 0.9397 0.17309 0.0
C1330 C 0.0199 0.97214 0.17014 0.0
C1331 C 0.98306 0.97263 0.1719 0.0
C1332 C 0.31757 0.94825 0.46397 0.0
C1333 C 0.29533 0.96943 0.48348 0.0
C1334 C 0.31997 0.9115 0.46971 0.0
C1335 C 0.30145 0.89441 0.49615 0.0
H1336 H 0.33204 0.95973 0.44283 0.0
H1337 H 0.33624 0.89631 0.45296 0.0
S1338 S 0.24254 0.9376 0.55727 0.0
N1339 N 0.25592 0.97037 0.53201 0.0
N1340 N 0.26213 0.90163 0.54378 0.0
C1341 C 0.28102 0.91543 0.51747 0.0
C1342 C 0.27769 0.95283 0.51102 0.0
C1343 C 0.47863 0.52585 0.83526 0.0
C1344 C 0.45855 0.4944 0.83169 0.0
C1345 C 0.51499 0.52516 0.8359 0.0
C1346 C 0.53271 0.49308 0.83187 0.0
H1347 H 0.46615 0.55126 0.83725 0.0
H1348 H 0.52931 0.55016 0.83816 0.0
S1349 S 0.49212 0.40345 0.82053 0.0
N1350 N 0.45911 0.43022 0.82418 0.0
N1351 N 0.52719 0.42912 0.82393 0.0
C1352 C 0.51288 0.46146 0.82829 0.0
C1353 C 0.4759 0.46206 0.82859 0.0
C1354 C 0.77184 0.91093 1.00049 0.0
C1355 C 0.80169 0.89247 0.99138 0.0
C1356 C 0.77087 0.94847 0.99855 0.0
C1357 C 0.79938 0.96899 0.98629 0.0
H1358 H 0.74881 0.89622 0.00847 0.0
H1359 H 0.74676 0.96122 0.00436 0.0
S1360 S 0.88476 0.9336 0.96262 0.0
N1361 N 0.86153 0.89791 0.9734 0.0
N1362 N 0.85905 0.96769 0.96742 0.0
C1363 C 0.82973 0.95078 0.97852 0.0
C1364 C 0.83101 0.91278 0.98153 0.0
C1365 C 0.48566 0.99933 0.16773 0.0
C1366 C 0.4672 0.99649 0.13676 0.0
C1367 C 0.52192 0.99813 0.16848 0.0
C1368 C 0.54118 0.99352 0.13833 0.0
H1369 H 0.47205 0.00236 0.19172 0.0
H1370 H 0.53491 1.00182 0.1928 0.0
S1371 S 0.50541 0.98362 0.05069 0.0
N1372 N 0.47112 0.98862 0.07518 0.0
N1373 N 0.53897 0.9851 0.07675 0.0
C1374 C 0.523 0.98983 0.10732 0.0
C1375 C 0.48617 0.99168 0.10648 0.0
C1376 C 0.40549 0.28971 0.23598 0.0
C1377 C 0.40527 0.25957 0.21474 0.0
C1378 C 0.40384 0.28624 0.27184 0.0
C1379 C 0.40321 0.25252 0.28776 0.0
H1380 H 0.40742 0.31607 0.22485 0.0
H1381 H 0.40501 0.31019 0.28726 0.0
S1382 S 0.40296 0.16539 0.24347 0.0
N1383 N 0.40369 0.19492 0.21217 0.0
N1384 N 0.40246 0.18858 0.27936 0.0
C1385 C 0.40278 0.22227 0.26675 0.0
C1386 C 0.40333 0.22576 0.2303 0.0
C1387 C 0.08112 0.74799 0.25659 0.0
C1388 C 0.11304 0.75225 0.27359 0.0
C1389 C 0.07929 0.74475 0.22081 0.0
C1390 C 0.10933 0.74493 0.20048 0.0
H1391 H 0.05719 0.74793 0.27097 0.0
H1392 H 0.05409 0.74092 0.20913 0.0
S1393 S 0.19934 0.75542 0.23223 0.0
N1394 N 0.1754 0.75726 0.26715 0.0
N1395 N 0.17204 0.74965 0.2001 0.0
C1396 C 0.14143 0.74905 0.21712 0.0
C1397 C 0.14326 0.75313 0.25355 0.0
C1398 C 0.41274 0.23351 0.48515 0.0
C1399 C 0.39227 0.25608 0.46522 0.0
C1400 C 0.4123 0.23509 0.52118 0.0
C1401 C 0.39009 0.258 0.5385 0.0
H1402 H 0.43032 0.21556 0.47288 0.0
H1403 H 0.42955 0.21841 0.53553 0.0
S1404 S 0.32823 0.31922 0.4982 0.0
N1405 N 0.34816 0.30081 0.46552 0.0
N1406 N 0.34476 0.30125 0.53294 0.0
C1407 C 0.36785 0.27892 0.51884 0.0
C1408 C 0.36954 0.27856 0.48227 0.0
C1409 C 0.10623 0.75661 0.71767 0.0
C1410 C 0.09709 0.72466 0.70061 0.0
C1411 C 0.10489 0.7592 0.75355 0.0
C1412 C 0.09558 0.72963 0.77382 0.0
H1413 H 0.11197 0.78059 0.70317 0.0
H1414 H 0.10972 0.78489 0.76541 0.0
S1415 S 0.07212 0.63914 0.74198 0.0
N1416 N 0.08005 0.66247 0.70693 0.0
N1417 N 0.07905 0.66677 0.77423 0.0
C1418 C 0.08873 0.69692 0.7572 0.0
C1419 C 0.08909 0.69457 0.72064 0.0
C1420 C 0.09668 0.7486 0.96942 0.0
C1421 C 0.0776 0.72238 0.95121 0.0
C1422 C 0.0967 0.74946 0.00559 0.0
C1423 C 0.07648 0.72513 0.0251 0.0
H1424 H 0.11188 0.76849 0.95569 0.0
H1425 H 0.11261 0.76949 0.01836 0.0
S1426 S 0.02159 0.65134 0.98994 0.0
N1427 N 0.04011 0.66974 0.95619 0.0
N1428 N 0.03538 0.67535 0.02263 0.0
C1429 C 0.05646 0.69968 0.00701 0.0
C1430 C 0.05834 0.69721 0.97056 0.0
C1431 C 0.6055 0.72036 0.27996 0.0
C1432 C 0.6058 0.75394 0.2961 0.0
C1433 C 0.60547 0.71722 0.24405 0.0
C1434 C 0.60706 0.74752 0.223 0.0
H1435 H 0.60299 0.6963 0.29511 0.0
H1436 H 0.60322 0.69097 0.23271 0.0
S1437 S 0.6099 0.84145 0.25252 0.0
N1438 N 0.60834 0.81794 0.28821 0.0
N1439 N 0.61009 0.81219 0.22101 0.0
C1440 C 0.60916 0.78117 0.23888 0.0
C1441 C 0.60806 0.78435 0.27535 0.0
C1442 C 0.36539 0.23907 0.02205 0.0
C1443 C 0.38669 0.26427 0.039 0.0
C1444 C 0.364 0.23763 0.98618 0.0
C1445 C 0.38502 0.26031 0.96604 0.0
H1446 H 0.35055 0.21955 0.03665 0.0
H1447 H 0.34771 0.21741 0.97419 0.0
S1448 S 0.44447 0.3316 0.99764 0.0
N1449 N 0.42756 0.31396 0.03275 0.0
N1450 N 0.42682 0.3094 0.96533 0.0
C1451 C 0.40574 0.28619 0.98252 0.0
C1452 C 0.40608 0.28866 0.01904 0.0
C1453 C 0.27632 0.06268 0.67808 0.0
C1454 C 0.29426 0.0313 0.67091 0.0
C1455 C 0.24011 0.0631 0.67886 0.0
C1456 C 0.22007 0.03239 0.6716 0.0
H1457 H 0.29036 0.08722 0.68381 0.0
H1458 H 0.22774 0.08802 0.68431 0.0
S1459 S 0.25356 0.94331 0.65097 0.0
N1460 N 0.2887 0.96842 0.65667 0.0
N1461 N 0.22053 0.96975 0.65651 0.0
C1462 C 0.23741 1.001 0.66352 0.0
C1463 C 0.27446 1.00032 0.66349 0.0
C1464 C 0.70513 0.1892 0.93725 0.0
C1465 C 0.72734 0.21473 0.95286 0.0
C1466 C 0.71334 0.15282 0.93587 0.0
C1467 C 0.7444 0.14016 0.9496 0.0
H1468 H 0.68027 0.19702 0.92743 0.0
H1469 H 0.69487 0.13437 0.92428 0.0
S1470 S 0.81347 0.19604 0.99007 0.0
N1471 N 0.78328 0.22456 0.98016 0.0
N1472 N 0.79877 0.15677 0.97697 0.0
C1473 C 0.76779 0.16561 0.96346 0.0
C1474 C 0.75932 0.20263 0.96515 0.0
C1475 C 0.76476 0.46057 0.31591 0.0
C1476 C 0.78613 0.48275 0.33638 0.0
C1477 C 0.72872 0.45946 0.31985 0.0
C1478 C 0.71233 0.4798 0.34501 0.0
H1479 H 0.77583 0.44444 0.29594 0.0
H1480 H 0.7137 0.44218 0.3031 0.0
S1481 S 0.75627 0.5428 0.40485 0.0
N1482 N 0.78808 0.52633 0.38216 0.0
N1483 N 0.72038 0.52334 0.39051 0.0
C1484 C 0.73333 0.50199 0.36585 0.0
C1485 C 0.77014 0.50368 0.36131 0.0
C1486 C 0.3045 0.65358 0.55269 0.0
C1487 C 0.27131 0.63963 0.54506 0.0
C1488 C 0.31212 0.69031 0.55077 0.0
C1489 C 0.28696 0.71487 0.54094 0.0
H1490 H 0.32502 0.63597 0.5599 0.0
H1491 H 0.33845 0.69926 0.55572 0.0
S1492 S 0.1953 0.69255 0.52069 0.0
N1493 N 0.21242 0.65374 0.52924 0.0
N1494 N 0.2268 0.72249 0.5254 0.0
C1495 C 0.2533 0.70143 0.53456 0.0
C1496 C 0.24549 0.66397 0.53661 0.0
C1497 C 0.23439 0.95357 0.16954 0.0
C1498 C 0.21687 0.98441 0.15974 0.0
C1499 C 0.27043 0.9533 0.17206 0.0
C1500 C 0.29074 0.98344 0.16363 0.0
H1501 H 0.22018 0.92937 0.17604 0.0
H1502 H 0.28252 0.92881 0.17962 0.0
S1503 S 0.25852 0.07018 0.13373 0.0
N1504 N 0.22309 0.04578 0.14043 0.0
N1505 N 0.29121 0.04445 0.14317 0.0
C1506 C 0.27392 0.01408 0.1524 0.0
C1507 C 0.23696 0.01473 0.15081 0.0
C1508 C 0.78859 0.85251 0.4412 0.0
C1509 C 0.75664 0.86617 0.45136 0.0
C1510 C 0.79495 0.81578 0.44249 0.0
C1511 C 0.76996 0.79093 0.45473 0.0
H1512 H 0.80903 0.87037 0.43225 0.0
H1513 H 0.82039 0.80706 0.43523 0.0
S1514 S 0.68099 0.81257 0.48224 0.0
N1515 N 0.69873 0.85148 0.47186 0.0
N1516 N 0.71097 0.78291 0.47529 0.0
C1517 C 0.73738 0.80413 0.46373 0.0
C1518 C 0.73072 0.84152 0.4619 0.0
C1519 C 0.76206 0.54791 0.86337 0.0
C1520 C 0.78402 0.52036 0.85362 0.0
C1521 C 0.72607 0.54508 0.85809 0.0
C1522 C 0.7107 0.51407 0.84406 0.0
H1523 H 0.77289 0.57242 0.87379 0.0
H1524 H 0.71026 0.56755 0.86438 0.0
S1525 S 0.75693 0.43417 0.81503 0.0
N1526 N 0.78792 0.46131 0.82926 0.0
N1527 N 0.72036 0.45508 0.82103 0.0
C1528 C 0.73234 0.48583 0.83552 0.0
C1529 C 0.769 0.48921 0.83986 0.0
C1530 C 0.19564 0.31758 0.0406 0.0
C1531 C 0.22061 0.2934 0.02949 0.0
C1532 C 0.20345 0.35406 0.04427 0.0
C1533 C 0.23674 0.36814 0.0375 0.0
H1534 H 0.16927 0.30858 0.04527 0.0
H1535 H 0.18304 0.37141 0.05234 0.0
S1536 S 0.31227 0.31661 0.00958 0.0
N1537 N 0.28069 0.28646 0.01288 0.0
N1538 N 0.29544 0.35488 0.02066 0.0
C1539 C 0.26243 0.34425 0.02779 0.0
C1540 C 0.25438 0.30699 0.02361 0.0
C1541 C 0.28676 0.55712 0.99299 0.0
C1542 C 0.30107 0.54116 0.02231 0.0
C1543 C 0.28967 0.5942 0.98736 0.0
C1544 C 0.30614 0.61693 0.01126 0.0
H1545 H 0.27202 0.54111 0.97488 0.0
H1546 H 0.27773 0.60532 0.96483 0.0
S1547 S 0.35218 0.58842 0.08947 0.0
N1548 N 0.33651 0.55101 0.07293 0.0
N1549 N 0.33961 0.62027 0.06359 0.0
C1550 C 0.32173 0.60117 0.03977 0.0
C1551 C 0.31992 0.56345 0.04489 0.0
C1552 C 0.81157 0.56104 0.53425 0.0
C1553 C 0.78447 0.53927 0.52125 0.0
C1554 C 0.81246 0.5982 0.52898 0.0
C1555 C 0.78619 0.61517 0.51069 0.0
H1556 H 0.83196 0.54934 0.54917 0.0
H1557 H 0.83393 0.61369 0.53928 0.0
S1558 S 0.70722 0.57185 0.47509 0.0
N1559 N 0.72922 0.53866 0.49118 0.0
N1560 N 0.73134 0.60805 0.48153 0.0
C1561 C 0.75892 0.59401 0.49775 0.0
C1562 C 0.75796 0.55622 0.5029 0.0
C1563 C 0.22696 0.09412 0.00896 0.0
C1564 C 0.20214 0.11284 0.99027 0.0
C1565 C 0.22887 0.05666 0.00682 0.0
C1566 C 0.20576 0.03645 0.98616 0.0
H1567 H 0.2459 0.10864 0.02425 0.0
H1568 H 0.24986 0.04378 0.01987 0.0
S1569 S 0.13254 0.07254 0.93672 0.0
N1570 N 0.15182 0.10803 0.95359 0.0
N1571 N 0.15468 0.03821 0.95009 0.0
C1572 C 0.17931 0.05487 0.96949 0.0
C1573 C 0.17778 0.09286 0.97128 0.0
C1574 C 0.67757 0.09539 0.46733 0.0
C1575 C 0.69316 0.11097 0.49632 0.0
C1576 C 0.67886 0.05864 0.46118 0.0
C1577 C 0.69738 0.03589 0.48278 0.0
H1578 H 0.66455 0.11174 0.44887 0.0
H1579 H 0.66672 0.04841 0.43814 0.0
S1580 S 0.74031 0.06306 0.56405 0.0
N1581 N 0.72476 0.10044 0.54881 0.0
N1582 N 0.72929 0.03167 0.53626 0.0
C1583 C 0.71176 0.05091 0.51284 0.0
C1584 C 0.70932 0.08834 0.51972 0.0
C1585 C 0.66043 0.751 0.77571 0.0
C1586 C 0.63104 0.74404 0.79627 0.0
C1587 C 0.65911 0.74739 0.73986 0.0
C1588 C 0.62803 0.73811 0.72319 0.0
H1589 H 0.68454 0.75979 0.78738 0.0
H1590 H 0.68234 0.75264 0.72506 0.0
S1591 S 0.54436 0.71486 0.76478 0.0
N1592 N 0.57051 0.72498 0.79689 0.0
N1593 N 0.56778 0.71995 0.72976 0.0
C1594 C 0.59874 0.73036 0.74335 0.0
C1595 C 0.60031 0.73286 0.7798 0.0
C1596 C 0.895 0.24075 0.7264 0.0
C1597 C 0.90126 0.27315 0.70904 0.0
C1598 C 0.89473 0.23912 0.76235 0.0
C1599 C 0.89941 0.26998 0.78227 0.0
H1600 H 0.89278 0.21606 0.71219 0.0
H1601 H 0.89237 0.21333 0.77463 0.0
S1602 S 0.91347 0.36183 0.74913 0.0
N1603 N 0.91041 0.33694 0.7144 0.0
N1604 N 0.9082 0.33433 0.78176 0.0
C1605 C 0.90323 0.30287 0.76513 0.0
C1606 C 0.90462 0.30434 0.72858 0.0
C1607 C 0.59424 0.72881 0.02576 0.0
C1608 C 0.61809 0.74837 0.04595 0.0
C1609 C 0.5945 0.73155 0.98982 0.0
C1610 C 0.61953 0.75276 0.97286 0.0
H1611 H 0.57412 0.71273 0.03783 0.0
H1612 H 0.57476 0.71735 0.97525 0.0
S1613 S 0.68929 0.80699 0.01386 0.0
N1614 N 0.66778 0.78896 0.04629 0.0
N1615 N 0.67006 0.79184 0.97886 0.0
C1616 C 0.64468 0.77079 0.99269 0.0
C1617 C 0.64353 0.76917 0.02923 0.0
C1618 C 0.86025 0.24694 0.26272 0.0
C1619 C 0.88986 0.24967 0.28363 0.0
C1620 C 0.86247 0.25092 0.22693 0.0
C1621 C 0.89454 0.25637 0.21047 0.0
H1622 H 0.8351 0.24193 0.27413 0.0
H1623 H 0.83888 0.24978 0.21201 0.0
S1624 S 0.97996 0.26486 0.25334 0.0
N1625 N 0.95232 0.25824 0.28498 0.0
N1626 N 0.95656 0.26451 0.21804 0.0
C1627 C 0.92437 0.25857 0.23105 0.0
C1628 C 0.92201 0.25556 0.26748 0.0
C1629 C 0.87834 0.2305 0.51772 0.0
C1630 C 0.8944 0.26028 0.53331 0.0
C1631 C 0.87832 0.22632 0.48205 0.0
C1632 C 0.8953 0.2512 0.46072 0.0
H1633 H 0.86661 0.20968 0.53333 0.0
H1634 H 0.8659 0.20282 0.47122 0.0
S1635 S 0.94062 0.33416 0.48844 0.0
N1636 N 0.92651 0.31588 0.52443 0.0
N1637 N 0.92759 0.3072 0.45737 0.0
C1638 C 0.91062 0.28159 0.47575 0.0
C1639 C 0.90989 0.28635 0.51209 0.0
C1640 C 0.34244 0.24609 0.73404 0.0
C1641 C 0.3735 0.25134 0.71584 0.0
C1642 C 0.34205 0.24551 0.77006 0.0
C1643 C 0.37244 0.25188 0.78921 0.0
H1644 H 0.3183 0.2424 0.72032 0.0
H1645 H 0.31773 0.24022 0.78303 0.0
S1646 S 0.46013 0.26939 0.75356 0.0
N1647 N 0.43525 0.26385 0.71959 0.0
N1648 N 0.43433 0.26441 0.78694 0.0
C1649 C 0.40349 0.25804 0.7712 0.0
C1650 C 0.40407 0.25734 0.73464 0.0
C1651 C 0.58215 0.76231 0.53006 0.0
C1652 C 0.60797 0.74314 0.54665 0.0
C1653 C 0.58146 0.76524 0.49416 0.0
C1654 C 0.60538 0.74748 0.47348 0.0
H1655 H 0.56235 0.77509 0.54492 0.0
H1656 H 0.5614 0.78068 0.48258 0.0
S1657 S 0.67915 0.6954 0.50433 0.0
N1658 N 0.65996 0.70882 0.53965 0.0
N1659 N 0.65636 0.7113 0.47228 0.0
C1660 C 0.63163 0.72879 0.48976 0.0
C1661 C 0.63345 0.72734 0.52631 0.0
C1662 C 0.48507 0.51163 0.34881 0.0
C1663 C 0.46564 0.51384 0.37903 0.0
C1664 C 0.52024 0.50383 0.34932 0.0
C1665 C 0.53781 0.49734 0.38006 0.0
H1666 H 0.47303 0.51624 0.32424 0.0
H1667 H 0.53354 0.50189 0.32504 0.0
S1668 S 0.49906 0.49993 0.46678 0.0
N1669 N 0.46675 0.5098 0.44103 0.0
N1670 N 0.53291 0.4934 0.44194 0.0
C1671 C 0.51879 0.49922 0.41072 0.0
C1672 C 0.48281 0.50813 0.41023 0.0
C1673 C 0.48698 0.97685 0.6789 0.0
C1674 C 0.4714 0.00999 0.68256 0.0
C1675 C 0.52315 0.97415 0.67839 0.0
C1676 C 0.54504 0.00435 0.68279 0.0
H1677 H 0.47111 0.95278 0.67719 0.0
H1678 H 0.53398 0.94792 0.67646 0.0
S1679 S 0.51694 0.0973 0.69323 0.0
N1680 N 0.48053 0.07379 0.68958 0.0
N1681 N 0.54835 0.06847 0.69018 0.0
C1682 C 0.52973 0.03769 0.68585 0.0
C1683 C 0.49296 0.04057 0.68533 0.0
C1684 C 0.02188 0.53207 0.3417 0.0
C1685 C 0.03927 0.49979 0.33802 0.0
C1686 C 0.98553 0.53293 0.34222 0.0
C1687 C 0.96514 0.5015 0.3401 0.0
H1688 H 0.03635 0.55709 0.34234 0.0
H1689 H 0.97326 0.55851 0.34339 0.0
S1690 S 0.99797 0.40994 0.33148 0.0
N1691 N 0.03321 0.43554 0.33293 0.0
N1692 N 0.96522 0.43702 0.33513 0.0
C1693 C 0.98224 0.46892 0.33797 0.0
C1694 C 0.01919 0.46812 0.3366 0.0
C1695 C 0.02524 0.00345 0.67618 0.0
C1696 C 0.04405 0.00634 0.64539 0.0
C1697 C 0.98888 1.0008 0.67628 0.0
C1698 C 0.9698 1.00151 0.64562 0.0
H1699 H 0.03862 0.00361 0.7005 0.0
H1700 H 0.9757 0.99771 0.70058 0.0
S1701 S 0.00646 0.00837 0.55805 0.0
N1702 N 0.0406 0.00881 0.58336 0.0
N1703 N 0.9726 0.00537 0.58363 0.0
C1704 C 0.9883 0.00454 0.61472 0.0
C1705 C 0.02525 0.00655 0.61458 0.0
C1706 C 0.89901 0.25514 0.97848 0.0
C1707 C 0.91703 0.28212 0.96022 0.0
C1708 C 0.90063 0.2531 0.01458 0.0
C1709 C 0.92176 0.27677 0.03388 0.0
H1710 H 0.8833 0.23561 0.96484 0.0
H1711 H 0.88533 0.23263 0.02744 0.0
S1712 S 0.97495 0.35173 0.99852 0.0
N1713 N 0.95443 0.33475 0.96522 0.0
N1714 N 0.96299 0.32639 0.03096 0.0
C1715 C 0.94092 0.3028 0.01565 0.0
C1716 C 0.93704 0.30671 0.97947 0.0
C1717 C 0.09324 0.78293 0.47222 0.0
C1718 C 0.09804 0.75369 0.45071 0.0
C1719 C 0.09492 0.77971 0.50777 0.0
C1720 C 0.09981 0.74662 0.52379 0.0
H1721 H 0.08843 0.80881 0.46166 0.0
H1722 H 0.09145 0.80356 0.52278 0.0
S1723 S 0.11242 0.66101 0.4787 0.0
N1724 N 0.10867 0.69039 0.44753 0.0
N1725 N 0.10882 0.68345 0.51484 0.0
C1726 C 0.10448 0.71683 0.50256 0.0
C1727 C 0.10422 0.72054 0.46596 0.0
loop_
_geom_bond_atom_site_label_1
_geom_bond_atom_site_label_2
_geom_bond_distance
_geom_bond_site_symmetry_2
_ccdc_geom_bond_type
Co0 O1 2.216 . S
Co0 O2 2.091 . S
Co0 O4 2.004 . S
Co0 O10 2.021 . S
Co0 O12 2.137 . S
Co0 O13 2.244 . S
O1 Co0 2.216 . S
O1 C8 1.247 . S
O2 Co0 2.091 . S
O2 C8 1.261 . S
C3 O12 1.247 . S
C3 O13 1.272 . S
O4 Co0 2.004 . S
O4 C9 1.259 . S
Co5 O6 2.061 . S
Co5 O11 2.052 . S
Co5 O13 2.135 . S
O6 Co5 2.061 . S
O6 C9 1.235 . S
C7 O10 1.238 . S
C7 O11 1.241 . S
C8 O1 1.247 . S
C8 O2 1.261 . S
C9 O4 1.259 . S
C9 O6 1.235 . S
O10 Co0 2.021 . S
O10 C7 1.238 . S
O11 Co5 2.052 . S
O11 C7 1.241 . S
O12 Co0 2.137 . S
O12 C3 1.247 . S
O13 Co0 2.244 . S
O13 C3 1.272 . S
O13 Co5 2.135 . S
Co14 O15 2.216 . S
Co14 O16 2.091 . S
Co14 O18 2.004 . S
Co14 O24 2.021 . S
Co14 O26 2.137 . S
Co14 O27 2.244 . S
O15 Co14 2.216 . S
O15 C22 1.247 . S
O16 Co14 2.091 . S
O16 C22 1.261 . S
C17 O26 1.247 . S
C17 O27 1.272 . S
O18 Co14 2.004 . S
O18 C23 1.259 . S
Co19 O20 2.061 . S
Co19 O25 2.052 . S
Co19 O27 2.135 . S
O20 Co19 2.061 . S
O20 C23 1.235 . S
C21 O24 1.238 . S
C21 O25 1.241 . S
C22 O15 1.247 . S
C22 O16 1.261 . S
C23 O18 1.259 . S
C23 O20 1.235 . S
O24 Co14 2.021 . S
O24 C21 1.238 . S
O25 Co19 2.052 . S
O25 C21 1.241 . S
O26 Co14 2.137 . S
O26 C17 1.247 . S
O27 Co14 2.244 . S
O27 C17 1.272 . S
O27 Co19 2.135 . S
Co28 O29 2.216 . S
Co28 O30 2.091 . S
Co28 O32 2.004 . S
Co28 O38 2.021 . S
Co28 O40 2.137 . S
Co28 O41 2.244 . S
O29 Co28 2.216 . S
O29 C36 1.247 . S
O30 Co28 2.091 . S
O30 C36 1.261 . S
C31 O40 1.247 . S
C31 O41 1.272 . S
O32 Co28 2.004 . S
O32 C37 1.259 . S
Co33 O34 2.061 . S
Co33 O39 2.052 . S
Co33 O41 2.135 . S
O34 Co33 2.061 . S
O34 C37 1.235 . S
C35 O38 1.238 . S
C35 O39 1.241 . S
C36 O29 1.247 . S
C36 O30 1.261 . S
C37 O32 1.259 . S
C37 O34 1.235 . S
O38 Co28 2.021 . S
O38 C35 1.238 . S
O39 Co33 2.052 . S
O39 C35 1.241 . S
O40 Co28 2.137 . S
O40 C31 1.247 . S
O41 Co28 2.244 . S
O41 C31 1.272 . S
O41 Co33 2.135 . S
Co42 O43 2.216 . S
Co42 O44 2.091 . S
Co42 O46 2.004 1_565 S
Co42 O52 2.021 . S
Co42 O54 2.137 1_565 S
Co42 O55 2.244 1_565 S
O43 Co42 2.216 . S
O43 C50 1.247 . S
O44 Co42 2.091 . S
O44 C50 1.261 . S
C45 O54 1.247 . S
C45 O55 1.272 . S
O46 Co42 2.004 1_545 S
O46 C51 1.259 . S
Co47 O48 2.061 . S
Co47 O53 2.052 . S
Co47 O55 2.135 . S
O48 Co47 2.061 . S
O48 C51 1.235 . S
C49 O52 1.238 . S
C49 O53 1.241 1_565 S
C50 O43 1.247 . S
C50 O44 1.261 . S
C51 O46 1.259 . S
C51 O48 1.235 . S
O52 Co42 2.021 . S
O52 C49 1.238 . S
O53 Co47 2.052 . S
O53 C49 1.241 1_545 S
O54 Co42 2.137 1_545 S
O54 C45 1.247 . S
O55 Co42 2.244 1_545 S
O55 C45 1.272 . S
O55 Co47 2.135 . S
Co56 O57 2.216 . S
Co56 O58 2.091 . S
Co56 O60 2.004 . S
Co56 O66 2.021 . S
Co56 O68 2.137 . S
Co56 O69 2.244 . S
O57 Co56 2.216 . S
O57 C64 1.247 . S
O58 Co56 2.091 . S
O58 C64 1.261 . S
C59 O68 1.247 . S
C59 O69 1.272 . S
O60 Co56 2.004 . S
O60 C65 1.259 . S
Co61 O62 2.061 . S
Co61 O67 2.052 . S
Co61 O69 2.135 . S
O62 Co61 2.061 . S
O62 C65 1.235 . S
C63 O66 1.238 . S
C63 O67 1.241 . S
C64 O57 1.247 . S
C64 O58 1.261 . S
C65 O60 1.259 . S
C65 O62 1.235 . S
O66 Co56 2.021 . S
O66 C63 1.238 . S
O67 Co61 2.052 . S
O67 C63 1.241 . S
O68 Co56 2.137 . S
O68 C59 1.247 . S
O69 Co56 2.244 . S
O69 C59 1.272 . S
O69 Co61 2.135 . S
Co70 O71 2.216 . S
Co70 O72 2.091 . S
Co70 O74 2.004 . S
Co70 O80 2.021 . S
Co70 O82 2.137 . S
Co70 O83 2.244 . S
O71 Co70 2.216 . S
O71 C78 1.247 . S
O72 Co70 2.091 . S
O72 C78 1.261 . S
C73 O82 1.247 . S
C73 O83 1.272 . S
O74 Co70 2.004 . S
O74 C79 1.259 . S
Co75 O76 2.061 . S
Co75 O81 2.052 . S
Co75 O83 2.135 . S
O76 Co75 2.061 . S
O76 C79 1.235 . S
C77 O80 1.238 . S
C77 O81 1.241 . S
C78 O71 1.247 . S
C78 O72 1.261 . S
C79 O74 1.259 . S
C79 O76 1.235 . S
O80 Co70 2.021 . S
O80 C77 1.238 . S
O81 Co75 2.052 . S
O81 C77 1.241 . S
O82 Co70 2.137 . S
O82 C73 1.247 . S
O83 Co70 2.244 . S
O83 C73 1.272 . S
O83 Co75 2.135 . S
Co84 O85 2.216 1_565 S
Co84 O86 2.091 . S
Co84 O88 2.004 . S
Co84 O94 2.021 1_565 S
Co84 O96 2.137 . S
Co84 O97 2.244 1_565 S
O85 Co84 2.216 1_545 S
O85 C92 1.247 1_545 S
O86 Co84 2.091 . S
O86 C92 1.261 . S
C87 O96 1.241 1_545 S
C87 O97 1.276 . S
O88 Co84 2.004 . S
O88 C93 1.259 . S
Co89 O90 2.061 . S
Co89 O95 2.052 . S
Co89 O97 2.135 . S
O90 Co89 2.061 . S
O90 C93 1.235 1_545 S
C91 O94 1.238 . S
C91 O95 1.241 . S
C92 O85 1.247 1_565 S
C92 O86 1.261 . S
C93 O88 1.259 . S
C93 O90 1.235 1_565 S
O94 Co84 2.021 1_545 S
O94 C91 1.238 . S
O95 Co89 2.052 . S
O95 C91 1.241 . S
O96 Co84 2.137 . S
O96 C87 1.241 1_565 S
O97 Co84 2.244 1_545 S
O97 C87 1.276 . S
O97 Co89 2.135 . S
Co98 O99 2.216 . S
Co98 O100 2.091 . S
Co98 O102 2.004 . S
Co98 O108 2.021 . S
Co98 O110 2.137 . S
Co98 O111 2.244 . S
O99 Co98 2.216 . S
O99 C106 1.247 . S
O100 Co98 2.091 . S
O100 C106 1.261 . S
C101 O110 1.247 . S
C101 O111 1.272 . S
O102 Co98 2.004 . S
O102 C107 1.259 . S
Co103 O104 2.061 . S
Co103 O109 2.052 . S
Co103 O111 2.135 . S
O104 Co103 2.061 . S
O104 C107 1.235 . S
C105 O108 1.238 . S
C105 O109 1.241 . S
C106 O99 1.247 . S
C106 O100 1.261 . S
C107 O102 1.259 . S
C107 O104 1.235 . S
O108 Co98 2.021 . S
O108 C105 1.238 . S
O109 Co103 2.052 . S
O109 C105 1.241 . S
O110 Co98 2.137 . S
O110 C101 1.247 . S
O111 Co98 2.244 . S
O111 C101 1.272 . S
O111 Co103 2.135 . S
Co112 O113 2.216 . S
Co112 O114 2.091 . S
Co112 O116 2.004 1_545 S
Co112 O122 2.021 . S
Co112 O124 2.137 1_545 S
Co112 O125 2.244 1_545 S
O113 Co112 2.216 . S
O113 C120 1.247 . S
O114 Co112 2.091 . S
O114 C120 1.261 . S
C115 O124 1.247 . S
C115 O125 1.272 . S
O116 Co112 2.004 1_565 S
O116 C121 1.259 . S
Co117 O118 2.061 . S
Co117 O123 2.052 . S
Co117 O125 2.135 . S
O118 Co117 2.061 . S
O118 C121 1.235 . S
C119 O122 1.238 . S
C119 O123 1.241 1_545 S
C120 O113 1.247 . S
C120 O114 1.261 . S
C121 O116 1.259 . S
C121 O118 1.235 . S
O122 Co112 2.021 . S
O122 C119 1.238 . S
O123 Co117 2.052 . S
O123 C119 1.241 1_565 S
O124 Co112 2.137 1_565 S
O124 C115 1.247 . S
O125 Co112 2.244 1_565 S
O125 C115 1.272 . S
O125 Co117 2.135 . S
Co126 O127 2.216 . S
Co126 O128 2.091 . S
Co126 O130 2.004 . S
Co126 O136 2.021 . S
Co126 O138 2.137 . S
Co126 O139 2.244 . S
O127 Co126 2.216 . S
O127 C134 1.247 . S
O128 Co126 2.091 . S
O128 C134 1.261 . S
C129 O138 1.247 . S
C129 O139 1.272 . S
O130 Co126 2.004 . S
O130 C135 1.259 . S
Co131 O132 2.061 . S
Co131 O137 2.052 . S
Co131 O139 2.135 . S
O132 Co131 2.061 . S
O132 C135 1.235 . S
C133 O136 1.238 . S
C133 O137 1.241 . S
C134 O127 1.247 . S
C134 O128 1.261 . S
C135 O130 1.259 . S
C135 O132 1.235 . S
O136 Co126 2.021 . S
O136 C133 1.238 . S
O137 Co131 2.052 . S
O137 C133 1.241 . S
O138 Co126 2.137 . S
O138 C129 1.247 . S
O139 Co126 2.244 . S
O139 C129 1.272 . S
O139 Co131 2.135 . S
Co140 O141 2.216 . S
Co140 O142 2.091 . S
Co140 O144 2.004 . S
Co140 O150 2.021 1_554 S
Co140 O152 2.137 . S
Co140 O153 2.244 1_554 S
O141 Co140 2.216 . S
O141 C148 1.247 . S
O142 Co140 2.091 . S
O142 C148 1.261 . S
C143 O152 1.247 1_556 S
C143 O153 1.272 . S
O144 Co140 2.004 . S
O144 C149 1.259 1_554 S
Co145 O146 2.061 . S
Co145 O151 2.052 . S
Co145 O153 2.135 . S
O146 Co145 2.061 . S
O146 C149 1.235 . S
C147 O150 1.238 . S
C147 O151 1.241 . S
C148 O141 1.247 . S
C148 O142 1.261 . S
C149 O144 1.259 1_556 S
C149 O146 1.235 . S
O150 Co140 2.021 1_556 S
O150 C147 1.238 . S
O151 Co145 2.052 . S
O151 C147 1.241 . S
O152 Co140 2.137 . S
O152 C143 1.247 1_554 S
O153 Co140 2.244 1_556 S
O153 C143 1.272 . S
O153 Co145 2.135 . S
Co154 O155 2.216 . S
Co154 O156 2.091 . S
Co154 O158 2.004 . S
Co154 O164 2.021 . S
Co154 O166 2.137 . S
Co154 O167 2.244 . S
O155 Co154 2.216 . S
O155 C162 1.247 . S
O156 Co154 2.091 . S
O156 C162 1.261 . S
C157 O166 1.247 . S
C157 O167 1.272 . S
O158 Co154 2.004 . S
O158 C163 1.259 . S
Co159 O160 2.061 . S
Co159 O165 2.052 . S
Co159 O167 2.135 . S
O160 Co159 2.061 . S
O160 C163 1.235 . S
C161 O164 1.238 . S
C161 O165 1.241 . S
C162 O155 1.247 . S
C162 O156 1.261 . S
C163 O158 1.259 . S
C163 O160 1.235 . S
O164 Co154 2.021 . S
O164 C161 1.238 . S
O165 Co159 2.052 . S
O165 C161 1.241 . S
O166 Co154 2.137 . S
O166 C157 1.247 . S
O167 Co154 2.244 . S
O167 C157 1.272 . S
O167 Co159 2.135 . S
Co168 O169 2.216 . S
Co168 O170 2.091 . S
Co168 O172 2.004 . S
Co168 O178 2.021 . S
Co168 O180 2.137 . S
Co168 O181 2.244 . S
O169 Co168 2.216 . S
O169 C176 1.247 . S
O170 Co168 2.091 . S
O170 C176 1.261 . S
C171 O180 1.247 . S
C171 O181 1.272 . S
O172 Co168 2.004 . S
O172 C177 1.259 . S
Co173 O174 2.061 . S
Co173 O179 2.052 . S
Co173 O181 2.135 . S
O174 Co173 2.061 . S
O174 C177 1.235 . S
C175 O178 1.238 . S
C175 O179 1.241 . S
C176 O169 1.247 . S
C176 O170 1.261 . S
C177 O172 1.259 . S
C177 O174 1.235 . S
O178 Co168 2.021 . S
O178 C175 1.238 . S
O179 Co173 2.052 . S
O179 C175 1.241 . S
O180 Co168 2.137 . S
O180 C171 1.247 . S
O181 Co168 2.244 . S
O181 C171 1.272 . S
O181 Co173 2.135 . S
Co182 O183 2.216 . S
Co182 O184 2.091 . S
Co182 O186 2.004 . S
Co182 O192 2.021 . S
Co182 O194 2.137 . S
Co182 O195 2.244 . S
O183 Co182 2.216 . S
O183 C190 1.247 . S
O184 Co182 2.091 . S
O184 C190 1.261 . S
C185 O194 1.247 . S
C185 O195 1.272 . S
O186 Co182 2.004 . S
O186 C191 1.259 . S
Co187 O188 2.061 . S
Co187 O193 2.052 . S
Co187 O195 2.135 . S
O188 Co187 2.061 . S
O188 C191 1.235 . S
C189 O192 1.238 . S
C189 O193 1.241 . S
C190 O183 1.247 . S
C190 O184 1.261 . S
C191 O186 1.259 . S
C191 O188 1.235 . S
O192 Co182 2.021 . S
O192 C189 1.238 . S
O193 Co187 2.052 . S
O193 C189 1.241 . S
O194 Co182 2.137 . S
O194 C185 1.247 . S
O195 Co182 2.244 . S
O195 C185 1.272 . S
O195 Co187 2.135 . S
Co196 O197 2.216 . S
Co196 O198 2.091 . S
Co196 O200 2.004 . S
Co196 O206 2.021 . S
Co196 O208 2.137 . S
Co196 O209 2.244 . S
O197 Co196 2.216 . S
O197 C204 1.247 . S
O198 Co196 2.091 . S
O198 C204 1.261 . S
C199 O208 1.247 . S
C199 O209 1.272 . S
O200 Co196 2.004 . S
O200 C205 1.259 . S
Co201 O202 2.061 . S
Co201 O207 2.052 . S
Co201 O209 2.135 . S
O202 Co201 2.061 . S
O202 C205 1.235 . S
C203 O206 1.238 . S
C203 O207 1.241 . S
C204 O197 1.247 . S
C204 O198 1.261 . S
C205 O200 1.259 . S
C205 O202 1.235 . S
O206 Co196 2.021 . S
O206 C203 1.238 . S
O207 Co201 2.052 . S
O207 C203 1.241 . S
O208 Co196 2.137 . S
O208 C199 1.247 . S
O209 Co196 2.244 . S
O209 C199 1.272 . S
O209 Co201 2.135 . S
Co210 O211 2.216 . S
Co210 O212 2.091 . S
Co210 O214 2.004 1_455 S
Co210 O220 2.021 1_455 S
Co210 O222 2.137 . S
Co210 O223 2.244 . S
O211 Co210 2.216 . S
O211 C218 1.247 . S
O212 Co210 2.091 . S
O212 C218 1.261 . S
C213 O222 1.247 . S
C213 O223 1.272 . S
O214 Co210 2.004 1_655 S
O214 C219 1.259 . S
Co215 O216 2.061 . S
Co215 O221 2.052 . S
Co215 O223 2.135 1_655 S
O216 Co215 2.061 . S
O216 C219 1.235 . S
C217 O220 1.238 . S
C217 O221 1.241 . S
C218 O211 1.247 . S
C218 O212 1.261 . S
C219 O214 1.259 . S
C219 O216 1.235 . S
O220 Co210 2.021 1_655 S
O220 C217 1.238 . S
O221 Co215 2.052 . S
O221 C217 1.241 . S
O222 Co210 2.137 . S
O222 C213 1.247 . S
O223 Co210 2.244 . S
O223 C213 1.272 . S
O223 Co215 2.135 1_455 S
Co224 O225 2.216 . S
Co224 O226 2.091 . S
Co224 O228 2.004 . S
Co224 O234 2.021 . S
Co224 O236 2.137 . S
Co224 O237 2.244 . S
O225 Co224 2.216 . S
O225 C232 1.247 . S
O226 Co224 2.091 . S
O226 C232 1.261 . S
C227 O236 1.247 . S
C227 O237 1.272 . S
O228 Co224 2.004 . S
O228 C233 1.259 . S
Co229 O230 2.061 . S
Co229 O235 2.052 . S
Co229 O237 2.135 . S
O230 Co229 2.061 . S
O230 C233 1.235 . S
C231 O234 1.238 . S
C231 O235 1.241 . S
C232 O225 1.247 . S
C232 O226 1.261 . S
C233 O228 1.259 . S
C233 O230 1.235 . S
O234 Co224 2.021 . S
O234 C231 1.238 . S
O235 Co229 2.052 . S
O235 C231 1.241 . S
O236 Co224 2.137 . S
O236 C227 1.247 . S
O237 Co224 2.244 . S
O237 C227 1.272 . S
O237 Co229 2.135 . S
Co238 O239 2.216 . S
Co238 O240 2.091 . S
Co238 O242 2.004 . S
Co238 O248 2.021 . S
Co238 O250 2.137 . S
Co238 O251 2.244 . S
O239 Co238 2.216 . S
O239 C246 1.247 . S
O240 Co238 2.091 . S
O240 C246 1.261 . S
C241 O250 1.247 . S
C241 O251 1.272 . S
O242 Co238 2.004 . S
O242 C247 1.259 . S
Co243 O244 2.061 . S
Co243 O249 2.052 . S
Co243 O251 2.135 . S
O244 Co243 2.061 . S
O244 C247 1.235 . S
C245 O248 1.238 . S
C245 O249 1.241 . S
C246 O239 1.247 . S
C246 O240 1.261 . S
C247 O242 1.259 . S
C247 O244 1.235 . S
O248 Co238 2.021 . S
O248 C245 1.238 . S
O249 Co243 2.052 . S
O249 C245 1.241 . S
O250 Co238 2.137 . S
O250 C241 1.247 . S
O251 Co238 2.244 . S
O251 C241 1.272 . S
O251 Co243 2.135 . S
Co252 O253 2.216 . S
Co252 O254 2.091 . S
Co252 O256 2.004 . S
Co252 O262 2.021 . S
Co252 O264 2.137 . S
Co252 O265 2.244 . S
O253 Co252 2.216 . S
O253 C260 1.247 . S
O254 Co252 2.091 . S
O254 C260 1.261 . S
C255 O264 1.247 . S
C255 O265 1.272 . S
O256 Co252 2.004 . S
O256 C261 1.259 . S
Co257 O258 2.061 . S
Co257 O263 2.052 . S
Co257 O265 2.135 . S
O258 Co257 2.061 . S
O258 C261 1.235 . S
C259 O262 1.238 . S
C259 O263 1.241 . S
C260 O253 1.247 . S
C260 O254 1.261 . S
C261 O256 1.259 . S
C261 O258 1.235 . S
O262 Co252 2.021 . S
O262 C259 1.238 . S
O263 Co257 2.052 . S
O263 C259 1.241 . S
O264 Co252 2.137 . S
O264 C255 1.247 . S
O265 Co252 2.244 . S
O265 C255 1.272 . S
O265 Co257 2.135 . S
Co266 O267 2.216 . S
Co266 O268 2.091 . S
Co266 O270 2.004 . S
Co266 O276 2.021 . S
Co266 O278 2.137 . S
Co266 O279 2.244 . S
O267 Co266 2.216 . S
O267 C274 1.247 . S
O268 Co266 2.091 . S
O268 C274 1.261 . S
C269 O278 1.247 . S
C269 O279 1.272 . S
O270 Co266 2.004 . S
O270 C275 1.259 . S
Co271 O272 2.061 . S
Co271 O277 2.052 . S
Co271 O279 2.135 . S
O272 Co271 2.061 . S
O272 C275 1.235 . S
C273 O276 1.238 . S
C273 O277 1.241 . S
C274 O267 1.247 . S
C274 O268 1.261 . S
C275 O270 1.259 . S
C275 O272 1.235 . S
O276 Co266 2.021 . S
O276 C273 1.238 . S
O277 Co271 2.052 . S
O277 C273 1.241 . S
O278 Co266 2.137 . S
O278 C269 1.247 . S
O279 Co266 2.244 . S
O279 C269 1.272 . S
O279 Co271 2.135 . S
Co280 O281 2.216 . S
Co280 O282 2.091 . S
Co280 O284 2.004 . S
Co280 O290 2.021 . S
Co280 O292 2.137 . S
Co280 O293 2.244 . S
O281 Co280 2.216 . S
O281 C288 1.247 . S
O282 Co280 2.091 . S
O282 C288 1.261 . S
C283 O292 1.247 . S
C283 O293 1.272 . S
O284 Co280 2.004 . S
O284 C289 1.259 . S
Co285 O286 2.061 . S
Co285 O291 2.052 . S
Co285 O293 2.135 . S
O286 Co285 2.061 . S
O286 C289 1.235 . S
C287 O290 1.238 . S
C287 O291 1.241 . S
C288 O281 1.247 . S
C288 O282 1.261 . S
C289 O284 1.259 . S
C289 O286 1.235 . S
O290 Co280 2.021 . S
O290 C287 1.238 . S
O291 Co285 2.052 . S
O291 C287 1.241 . S
O292 Co280 2.137 . S
O292 C283 1.247 . S
O293 Co280 2.244 . S
O293 C283 1.272 . S
O293 Co285 2.135 . S
Co294 O295 2.216 . S
Co294 O296 2.091 . S
Co294 O298 2.004 1_545 S
Co294 O304 2.021 . S
Co294 O306 2.137 1_545 S
Co294 O307 2.244 1_545 S
O295 Co294 2.216 . S
O295 C302 1.247 . S
O296 Co294 2.091 . S
O296 C302 1.261 . S
C297 O306 1.247 . S
C297 O307 1.272 . S
O298 Co294 2.004 1_565 S
O298 C303 1.259 . S
Co299 O300 2.061 . S
Co299 O305 2.052 . S
Co299 O307 2.135 . S
O300 Co299 2.061 . S
O300 C303 1.235 . S
C301 O304 1.238 . S
C301 O305 1.241 1_545 S
C302 O295 1.247 . S
C302 O296 1.261 . S
C303 O298 1.259 . S
C303 O300 1.235 . S
O304 Co294 2.021 . S
O304 C301 1.238 . S
O305 Co299 2.052 . S
O305 C301 1.241 1_565 S
O306 Co294 2.137 1_565 S
O306 C297 1.247 . S
O307 Co294 2.244 1_565 S
O307 C297 1.272 . S
O307 Co299 2.135 . S
Co308 O309 2.216 . S
Co308 O310 2.091 . S
Co308 O312 2.004 . S
Co308 O318 2.021 . S
Co308 O320 2.137 . S
Co308 O321 2.244 . S
O309 Co308 2.216 . S
O309 C316 1.247 . S
O310 Co308 2.091 . S
O310 C316 1.261 . S
C311 O320 1.247 . S
C311 O321 1.272 . S
O312 Co308 2.004 . S
O312 C317 1.259 . S
Co313 O314 2.061 . S
Co313 O319 2.052 . S
Co313 O321 2.135 . S
O314 Co313 2.061 . S
O314 C317 1.235 . S
C315 O318 1.238 . S
C315 O319 1.241 . S
C316 O309 1.247 . S
C316 O310 1.261 . S
C317 O312 1.259 . S
C317 O314 1.235 . S
O318 Co308 2.021 . S
O318 C315 1.238 . S
O319 Co313 2.052 . S
O319 C315 1.241 . S
O320 Co308 2.137 . S
O320 C311 1.247 . S
O321 Co308 2.244 . S
O321 C311 1.272 . S
O321 Co313 2.135 . S
Co322 O323 2.216 . S
Co322 O324 2.091 . S
Co322 O326 2.004 . S
Co322 O332 2.021 . S
Co322 O334 2.137 . S
Co322 O335 2.244 . S
O323 Co322 2.216 . S
O323 C330 1.247 . S
O324 Co322 2.091 . S
O324 C330 1.261 . S
C325 O334 1.247 . S
C325 O335 1.272 . S
O326 Co322 2.004 . S
O326 C331 1.259 . S
Co327 O328 2.061 . S
Co327 O333 2.052 . S
Co327 O335 2.135 . S
O328 Co327 2.061 . S
O328 C331 1.235 . S
C329 O332 1.238 . S
C329 O333 1.241 . S
C330 O323 1.247 . S
C330 O324 1.261 . S
C331 O326 1.259 . S
C331 O328 1.235 . S
O332 Co322 2.021 . S
O332 C329 1.238 . S
O333 Co327 2.052 . S
O333 C329 1.241 . S
O334 Co322 2.137 . S
O334 C325 1.247 . S
O335 Co322 2.244 . S
O335 C325 1.272 . S
O335 Co327 2.135 . S
Co336 O337 2.216 1_545 S
Co336 O338 2.091 . S
Co336 O340 2.004 . S
Co336 O346 2.021 1_545 S
Co336 O348 2.137 . S
Co336 O349 2.244 1_545 S
O337 Co336 2.216 1_565 S
O337 C344 1.247 1_565 S
O338 Co336 2.091 . S
O338 C344 1.261 . S
C339 O348 1.241 1_565 S
C339 O349 1.276 . S
O340 Co336 2.004 . S
O340 C345 1.259 . S
Co341 O342 2.061 . S
Co341 O347 2.052 . S
Co341 O349 2.135 . S
O342 Co341 2.061 . S
O342 C345 1.235 1_565 S
C343 O346 1.238 . S
C343 O347 1.241 . S
C344 O337 1.247 1_545 S
C344 O338 1.261 . S
C345 O340 1.259 . S
C345 O342 1.235 1_545 S
O346 Co336 2.021 1_565 S
O346 C343 1.238 . S
O347 Co341 2.052 . S
O347 C343 1.241 . S
O348 Co336 2.137 . S
O348 C339 1.241 1_545 S
O349 Co336 2.244 1_565 S
O349 C339 1.276 . S
O349 Co341 2.135 . S
Co350 O351 2.216 . S
Co350 O352 2.091 . S
Co350 O354 2.004 . S
Co350 O360 2.021 . S
Co350 O362 2.137 . S
Co350 O363 2.244 . S
O351 Co350 2.216 . S
O351 C358 1.247 . S
O352 Co350 2.091 . S
O352 C358 1.261 . S
C353 O362 1.247 . S
C353 O363 1.272 . S
O354 Co350 2.004 . S
O354 C359 1.259 . S
Co355 O356 2.061 . S
Co355 O361 2.052 . S
Co355 O363 2.135 . S
O356 Co355 2.061 . S
O356 C359 1.235 . S
C357 O360 1.238 . S
C357 O361 1.241 . S
C358 O351 1.247 . S
C358 O352 1.261 . S
C359 O354 1.259 . S
C359 O356 1.235 . S
O360 Co350 2.021 . S
O360 C357 1.238 . S
O361 Co355 2.052 . S
O361 C357 1.241 . S
O362 Co350 2.137 . S
O362 C353 1.247 . S
O363 Co350 2.244 . S
O363 C353 1.272 . S
O363 Co355 2.135 . S
Co364 O365 2.216 . S
Co364 O366 2.091 . S
Co364 O368 2.004 . S
Co364 O374 2.021 . S
Co364 O376 2.137 . S
Co364 O377 2.244 . S
O365 Co364 2.216 . S
O365 C372 1.247 . S
O366 Co364 2.091 . S
O366 C372 1.261 . S
C367 O376 1.247 . S
C367 O377 1.272 . S
O368 Co364 2.004 . S
O368 C373 1.259 . S
Co369 O370 2.061 . S
Co369 O375 2.052 . S
Co369 O377 2.135 . S
O370 Co369 2.061 . S
O370 C373 1.235 . S
C371 O374 1.238 . S
C371 O375 1.241 . S
C372 O365 1.247 . S
C372 O366 1.261 . S
C373 O368 1.259 . S
C373 O370 1.235 . S
O374 Co364 2.021 . S
O374 C371 1.238 . S
O375 Co369 2.052 . S
O375 C371 1.241 . S
O376 Co364 2.137 . S
O376 C367 1.247 . S
O377 Co364 2.244 . S
O377 C367 1.272 . S
O377 Co369 2.135 . S
Co378 O379 2.216 . S
Co378 O380 2.091 . S
Co378 O382 2.004 . S
Co378 O388 2.021 . S
Co378 O390 2.137 . S
Co378 O391 2.244 . S
O379 Co378 2.216 . S
O379 C386 1.247 . S
O380 Co378 2.091 . S
O380 C386 1.261 . S
C381 O390 1.247 . S
C381 O391 1.272 . S
O382 Co378 2.004 . S
O382 C387 1.259 . S
Co383 O384 2.061 . S
Co383 O389 2.052 . S
Co383 O391 2.135 . S
O384 Co383 2.061 . S
O384 C387 1.235 . S
C385 O388 1.238 . S
C385 O389 1.241 . S
C386 O379 1.247 . S
C386 O380 1.261 . S
C387 O382 1.259 . S
C387 O384 1.235 . S
O388 Co378 2.021 . S
O388 C385 1.238 . S
O389 Co383 2.052 . S
O389 C385 1.241 . S
O390 Co378 2.137 . S
O390 C381 1.247 . S
O391 Co378 2.244 . S
O391 C381 1.272 . S
O391 Co383 2.135 . S
Co392 O393 2.216 . S
Co392 O394 2.091 . S
Co392 O396 2.004 . S
Co392 O402 2.021 1_554 S
Co392 O404 2.137 . S
Co392 O405 2.244 1_554 S
O393 Co392 2.216 . S
O393 C400 1.247 . S
O394 Co392 2.091 . S
O394 C400 1.261 . S
C395 O404 1.247 1_556 S
C395 O405 1.272 . S
O396 Co392 2.004 . S
O396 C401 1.259 1_554 S
Co397 O398 2.061 . S
Co397 O403 2.052 . S
Co397 O405 2.135 . S
O398 Co397 2.061 . S
O398 C401 1.235 . S
C399 O402 1.238 . S
C399 O403 1.241 . S
C400 O393 1.247 . S
C400 O394 1.261 . S
C401 O396 1.259 1_556 S
C401 O398 1.235 . S
O402 Co392 2.021 1_556 S
O402 C399 1.238 . S
O403 Co397 2.052 . S
O403 C399 1.241 . S
O404 Co392 2.137 . S
O404 C395 1.247 1_554 S
O405 Co392 2.244 1_556 S
O405 C395 1.272 . S
O405 Co397 2.135 . S
Co406 O407 2.216 . S
Co406 O408 2.091 . S
Co406 O410 2.004 . S
Co406 O416 2.021 . S
Co406 O418 2.137 . S
Co406 O419 2.244 . S
O407 Co406 2.216 . S
O407 C414 1.247 . S
O408 Co406 2.091 . S
O408 C414 1.261 . S
C409 O418 1.247 . S
C409 O419 1.272 . S
O410 Co406 2.004 . S
O410 C415 1.259 . S
Co411 O412 2.061 . S
Co411 O417 2.052 . S
Co411 O419 2.135 . S
O412 Co411 2.061 . S
O412 C415 1.235 . S
C413 O416 1.238 . S
C413 O417 1.241 . S
C414 O407 1.247 . S
C414 O408 1.261 . S
C415 O410 1.259 . S
C415 O412 1.235 . S
O416 Co406 2.021 . S
O416 C413 1.238 . S
O417 Co411 2.052 . S
O417 C413 1.241 . S
O418 Co406 2.137 . S
O418 C409 1.247 . S
O419 Co406 2.244 . S
O419 C409 1.272 . S
O419 Co411 2.135 . S
Co420 O421 2.216 . S
Co420 O422 2.091 . S
Co420 O424 2.004 1_565 S
Co420 O430 2.021 . S
Co420 O432 2.137 1_565 S
Co420 O433 2.244 1_565 S
O421 Co420 2.216 . S
O421 C428 1.247 . S
O422 Co420 2.091 . S
O422 C428 1.261 . S
C423 O432 1.247 . S
C423 O433 1.272 . S
O424 Co420 2.004 1_545 S
O424 C429 1.259 . S
Co425 O426 2.061 . S
Co425 O431 2.052 . S
Co425 O433 2.135 . S
O426 Co425 2.061 . S
O426 C429 1.235 . S
C427 O430 1.238 . S
C427 O431 1.241 1_565 S
C428 O421 1.247 . S
C428 O422 1.261 . S
C429 O424 1.259 . S
C429 O426 1.235 . S
O430 Co420 2.021 . S
O430 C427 1.238 . S
O431 Co425 2.052 . S
O431 C427 1.241 1_545 S
O432 Co420 2.137 1_545 S
O432 C423 1.247 . S
O433 Co420 2.244 1_545 S
O433 C423 1.272 . S
O433 Co425 2.135 . S
Co434 O435 2.216 . S
Co434 O436 2.091 . S
Co434 O438 2.004 . S
Co434 O444 2.021 . S
Co434 O446 2.137 . S
Co434 O447 2.244 . S
O435 Co434 2.216 . S
O435 C442 1.247 . S
O436 Co434 2.091 . S
O436 C442 1.261 . S
C437 O446 1.247 . S
C437 O447 1.272 . S
O438 Co434 2.004 . S
O438 C443 1.259 . S
Co439 O440 2.061 . S
Co439 O445 2.052 . S
Co439 O447 2.135 . S
O440 Co439 2.061 . S
O440 C443 1.235 . S
C441 O444 1.238 . S
C441 O445 1.241 . S
C442 O435 1.247 . S
C442 O436 1.261 . S
C443 O438 1.259 . S
C443 O440 1.235 . S
O444 Co434 2.021 . S
O444 C441 1.238 . S
O445 Co439 2.052 . S
O445 C441 1.241 . S
O446 Co434 2.137 . S
O446 C437 1.247 . S
O447 Co434 2.244 . S
O447 C437 1.272 . S
O447 Co439 2.135 . S
Co448 O449 2.216 . S
Co448 O450 2.091 . S
Co448 O452 2.004 . S
Co448 O458 2.021 . S
Co448 O460 2.137 . S
Co448 O461 2.244 . S
O449 Co448 2.216 . S
O449 C456 1.247 . S
O450 Co448 2.091 . S
O450 C456 1.261 . S
C451 O460 1.247 . S
C451 O461 1.272 . S
O452 Co448 2.004 . S
O452 C457 1.259 . S
Co453 O454 2.061 . S
Co453 O459 2.052 . S
Co453 O461 2.135 . S
O454 Co453 2.061 . S
O454 C457 1.235 . S
C455 O458 1.238 . S
C455 O459 1.241 . S
C456 O449 1.247 . S
C456 O450 1.261 . S
C457 O452 1.259 . S
C457 O454 1.235 . S
O458 Co448 2.021 . S
O458 C455 1.238 . S
O459 Co453 2.052 . S
O459 C455 1.241 . S
O460 Co448 2.137 . S
O460 C451 1.247 . S
O461 Co448 2.244 . S
O461 C451 1.272 . S
O461 Co453 2.135 . S
Co462 O463 2.216 . S
Co462 O464 2.091 . S
Co462 O466 2.004 1_655 S
Co462 O472 2.021 1_655 S
Co462 O474 2.137 . S
Co462 O475 2.244 . S
O463 Co462 2.216 . S
O463 C470 1.247 . S
O464 Co462 2.091 . S
O464 C470 1.261 . S
C465 O474 1.247 . S
C465 O475 1.272 . S
O466 Co462 2.004 1_455 S
O466 C471 1.259 . S
Co467 O468 2.061 . S
Co467 O473 2.052 . S
Co467 O475 2.135 1_455 S
O468 Co467 2.061 . S
O468 C471 1.235 . S
C469 O472 1.238 . S
C469 O473 1.241 . S
C470 O463 1.247 . S
C470 O464 1.261 . S
C471 O466 1.259 . S
C471 O468 1.235 . S
O472 Co462 2.021 1_455 S
O472 C469 1.238 . S
O473 Co467 2.052 . S
O473 C469 1.241 . S
O474 Co462 2.137 . S
O474 C465 1.247 . S
O475 Co462 2.244 . S
O475 C465 1.272 . S
O475 Co467 2.135 1_655 S
Co476 O477 2.216 . S
Co476 O478 2.091 . S
Co476 O480 2.004 . S
Co476 O486 2.021 . S
Co476 O488 2.137 . S
Co476 O489 2.244 . S
O477 Co476 2.216 . S
O477 C484 1.247 . S
O478 Co476 2.091 . S
O478 C484 1.261 . S
C479 O488 1.247 . S
C479 O489 1.272 . S
O480 Co476 2.004 . S
O480 C485 1.259 . S
Co481 O482 2.061 . S
Co481 O487 2.052 . S
Co481 O489 2.135 . S
O482 Co481 2.061 . S
O482 C485 1.235 . S
C483 O486 1.238 . S
C483 O487 1.241 . S
C484 O477 1.247 . S
C484 O478 1.261 . S
C485 O480 1.259 . S
C485 O482 1.235 . S
O486 Co476 2.021 . S
O486 C483 1.238 . S
O487 Co481 2.052 . S
O487 C483 1.241 . S
O488 Co476 2.137 . S
O488 C479 1.247 . S
O489 Co476 2.244 . S
O489 C479 1.272 . S
O489 Co481 2.135 . S
Co490 O491 2.216 . S
Co490 O492 2.091 . S
Co490 O494 2.004 1_655 S
Co490 O500 2.021 1_655 S
Co490 O502 2.137 . S
Co490 O503 2.244 . S
O491 Co490 2.216 . S
O491 C498 1.247 . S
O492 Co490 2.091 . S
O492 C498 1.261 . S
C493 O502 1.247 . S
C493 O503 1.272 . S
O494 Co490 2.004 1_455 S
O494 C499 1.259 . S
Co495 O496 2.061 . S
Co495 O501 2.052 . S
Co495 O503 2.135 1_455 S
O496 Co495 2.061 . S
O496 C499 1.235 . S
C497 O500 1.238 . S
C497 O501 1.241 . S
C498 O491 1.247 . S
C498 O492 1.261 . S
C499 O494 1.259 . S
C499 O496 1.235 . S
O500 Co490 2.021 1_455 S
O500 C497 1.238 . S
O501 Co495 2.052 . S
O501 C497 1.241 . S
O502 Co490 2.137 . S
O502 C493 1.247 . S
O503 Co490 2.244 . S
O503 C493 1.272 . S
O503 Co495 2.135 1_655 S
Co504 O505 2.216 . S
Co504 O506 2.091 . S
Co504 O508 2.004 . S
Co504 O514 2.021 . S
Co504 O516 2.137 . S
Co504 O517 2.244 . S
O505 Co504 2.216 . S
O505 C512 1.247 . S
O506 Co504 2.091 . S
O506 C512 1.261 . S
C507 O516 1.247 . S
C507 O517 1.272 . S
O508 Co504 2.004 . S
O508 C513 1.259 . S
Co509 O510 2.061 . S
Co509 O515 2.052 . S
Co509 O517 2.135 . S
O510 Co509 2.061 . S
O510 C513 1.235 . S
C511 O514 1.238 . S
C511 O515 1.241 . S
C512 O505 1.247 . S
C512 O506 1.261 . S
C513 O508 1.259 . S
C513 O510 1.235 . S
O514 Co504 2.021 . S
O514 C511 1.238 . S
O515 Co509 2.052 . S
O515 C511 1.241 . S
O516 Co504 2.137 . S
O516 C507 1.247 . S
O517 Co504 2.244 . S
O517 C507 1.272 . S
O517 Co509 2.135 . S
Co518 O519 2.216 . S
Co518 O520 2.091 . S
Co518 O522 2.004 . S
Co518 O528 2.021 . S
Co518 O530 2.137 . S
Co518 O531 2.244 . S
O519 Co518 2.216 . S
O519 C526 1.247 . S
O520 Co518 2.091 . S
O520 C526 1.261 . S
C521 O530 1.247 . S
C521 O531 1.272 . S
O522 Co518 2.004 . S
O522 C527 1.259 . S
Co523 O524 2.061 . S
Co523 O529 2.052 . S
Co523 O531 2.135 . S
O524 Co523 2.061 . S
O524 C527 1.235 . S
C525 O528 1.238 . S
C525 O529 1.241 . S
C526 O519 1.247 . S
C526 O520 1.261 . S
C527 O522 1.259 . S
C527 O524 1.235 . S
O528 Co518 2.021 . S
O528 C525 1.238 . S
O529 Co523 2.052 . S
O529 C525 1.241 . S
O530 Co518 2.137 . S
O530 C521 1.247 . S
O531 Co518 2.244 . S
O531 C521 1.272 . S
O531 Co523 2.135 . S
Co532 O533 2.216 . S
Co532 O534 2.091 . S
Co532 O536 2.004 . S
Co532 O542 2.021 . S
Co532 O544 2.137 . S
Co532 O545 2.244 . S
O533 Co532 2.216 . S
O533 C540 1.247 . S
O534 Co532 2.091 . S
O534 C540 1.261 . S
C535 O544 1.247 . S
C535 O545 1.272 . S
O536 Co532 2.004 . S
O536 C541 1.259 . S
Co537 O538 2.061 . S
Co537 O543 2.052 . S
Co537 O545 2.135 . S
O538 Co537 2.061 . S
O538 C541 1.235 . S
C539 O542 1.238 . S
C539 O543 1.241 . S
C540 O533 1.247 . S
C540 O534 1.261 . S
C541 O536 1.259 . S
C541 O538 1.235 . S
O542 Co532 2.021 . S
O542 C539 1.238 . S
O543 Co537 2.052 . S
O543 C539 1.241 . S
O544 Co532 2.137 . S
O544 C535 1.247 . S
O545 Co532 2.244 . S
O545 C535 1.272 . S
O545 Co537 2.135 . S
Co546 O547 2.216 . S
Co546 O548 2.091 . S
Co546 O550 2.004 . S
Co546 O556 2.021 . S
Co546 O558 2.137 . S
Co546 O559 2.244 . S
O547 Co546 2.216 . S
O547 C554 1.247 . S
O548 Co546 2.091 . S
O548 C554 1.261 . S
C549 O558 1.247 . S
C549 O559 1.272 . S
O550 Co546 2.004 . S
O550 C555 1.259 . S
Co551 O552 2.061 . S
Co551 O557 2.052 . S
Co551 O559 2.135 . S
O552 Co551 2.061 . S
O552 C555 1.235 . S
C553 O556 1.238 . S
C553 O557 1.241 . S
C554 O547 1.247 . S
C554 O548 1.261 . S
C555 O550 1.259 . S
C555 O552 1.235 . S
O556 Co546 2.021 . S
O556 C553 1.238 . S
O557 Co551 2.052 . S
O557 C553 1.241 . S
O558 Co546 2.137 . S
O558 C549 1.247 . S
O559 Co546 2.244 . S
O559 C549 1.272 . S
O559 Co551 2.135 . S
Co560 O561 2.216 1_565 S
Co560 O562 2.091 . S
Co560 O564 2.004 . S
Co560 O570 2.021 1_565 S
Co560 O572 2.137 . S
Co560 O573 2.244 1_565 S
O561 Co560 2.216 1_545 S
O561 C568 1.247 1_545 S
O562 Co560 2.091 . S
O562 C568 1.261 . S
C563 O572 1.247 . S
C563 O573 1.272 1_565 S
O564 Co560 2.004 . S
O564 C569 1.259 . S
Co565 O566 2.061 1_545 S
Co565 O571 2.052 . S
Co565 O573 2.135 . S
O566 Co565 2.061 1_565 S
O566 C569 1.235 . S
C567 O570 1.238 . S
C567 O571 1.241 . S
C568 O561 1.247 1_565 S
C568 O562 1.261 . S
C569 O564 1.259 . S
C569 O566 1.235 . S
O570 Co560 2.021 1_545 S
O570 C567 1.238 . S
O571 Co565 2.052 . S
O571 C567 1.241 . S
O572 Co560 2.137 . S
O572 C563 1.247 . S
O573 Co560 2.244 1_545 S
O573 C563 1.272 1_545 S
O573 Co565 2.135 . S
Co574 O575 2.216 . S
Co574 O576 2.091 . S
Co574 O578 2.004 . S
Co574 O584 2.021 1_556 S
Co574 O586 2.137 . S
Co574 O587 2.244 1_556 S
O575 Co574 2.216 . S
O575 C582 1.247 . S
O576 Co574 2.091 . S
O576 C582 1.261 . S
C577 O586 1.231 1_554 S
C577 O587 1.285 . S
O578 Co574 2.004 . S
O578 C583 1.259 1_556 S
Co579 O580 2.061 . S
Co579 O585 2.052 . S
Co579 O587 2.135 . S
O580 Co579 2.061 . S
O580 C583 1.235 . S
C581 O584 1.238 . S
C581 O585 1.241 . S
C582 O575 1.247 . S
C582 O576 1.261 . S
C583 O578 1.259 1_554 S
C583 O580 1.235 . S
O584 Co574 2.021 1_554 S
O584 C581 1.238 . S
O585 Co579 2.052 . S
O585 C581 1.241 . S
O586 Co574 2.137 . S
O586 C577 1.231 1_556 S
O587 Co574 2.244 1_554 S
O587 C577 1.285 . S
O587 Co579 2.135 . S
Co588 O589 2.216 . S
Co588 O590 2.091 . S
Co588 O592 2.004 . S
Co588 O598 2.021 . S
Co588 O600 2.137 . S
Co588 O601 2.244 . S
O589 Co588 2.216 . S
O589 C596 1.247 . S
O590 Co588 2.091 . S
O590 C596 1.261 . S
C591 O600 1.247 . S
C591 O601 1.272 . S
O592 Co588 2.004 . S
O592 C597 1.259 . S
Co593 O594 2.061 . S
Co593 O599 2.052 . S
Co593 O601 2.135 . S
O594 Co593 2.061 . S
O594 C597 1.235 . S
C595 O598 1.238 . S
C595 O599 1.241 . S
C596 O589 1.247 . S
C596 O590 1.261 . S
C597 O592 1.259 . S
C597 O594 1.235 . S
O598 Co588 2.021 . S
O598 C595 1.238 . S
O599 Co593 2.052 . S
O599 C595 1.241 . S
O600 Co588 2.137 . S
O600 C591 1.247 . S
O601 Co588 2.244 . S
O601 C591 1.272 . S
O601 Co593 2.135 . S
Co602 O603 2.216 . S
Co602 O604 2.091 . S
Co602 O606 2.004 1_455 S
Co602 O612 2.021 1_455 S
Co602 O614 2.137 . S
Co602 O615 2.244 . S
O603 Co602 2.216 . S
O603 C610 1.247 . S
O604 Co602 2.091 . S
O604 C610 1.261 . S
C605 O614 1.247 . S
C605 O615 1.272 . S
O606 Co602 2.004 1_655 S
O606 C611 1.259 . S
Co607 O608 2.061 . S
Co607 O613 2.052 . S
Co607 O615 2.135 1_655 S
O608 Co607 2.061 . S
O608 C611 1.235 . S
C609 O612 1.238 . S
C609 O613 1.241 . S
C610 O603 1.247 . S
C610 O604 1.261 . S
C611 O606 1.259 . S
C611 O608 1.235 . S
O612 Co602 2.021 1_655 S
O612 C609 1.238 . S
O613 Co607 2.052 . S
O613 C609 1.241 . S
O614 Co602 2.137 . S
O614 C605 1.247 . S
O615 Co602 2.244 . S
O615 C605 1.272 . S
O615 Co607 2.135 1_455 S
Co616 O617 2.216 1_545 S
Co616 O618 2.091 . S
Co616 O620 2.004 . S
Co616 O626 2.021 1_545 S
Co616 O628 2.137 . S
Co616 O629 2.244 1_545 S
O617 Co616 2.216 1_565 S
O617 C624 1.247 1_565 S
O618 Co616 2.091 . S
O618 C624 1.261 . S
C619 O628 1.247 . S
C619 O629 1.272 1_545 S
O620 Co616 2.004 . S
O620 C625 1.259 . S
Co621 O622 2.061 1_565 S
Co621 O627 2.052 . S
Co621 O629 2.135 . S
O622 Co621 2.061 1_545 S
O622 C625 1.235 . S
C623 O626 1.238 . S
C623 O627 1.241 . S
C624 O617 1.247 1_545 S
C624 O618 1.261 . S
C625 O620 1.259 . S
C625 O622 1.235 . S
O626 Co616 2.021 1_565 S
O626 C623 1.238 . S
O627 Co621 2.052 . S
O627 C623 1.241 . S
O628 Co616 2.137 . S
O628 C619 1.247 . S
O629 Co616 2.244 1_565 S
O629 C619 1.272 1_565 S
O629 Co621 2.135 . S
Co630 O631 2.216 . S
Co630 O632 2.091 . S
Co630 O634 2.004 . S
Co630 O640 2.021 1_556 S
Co630 O642 2.137 . S
Co630 O643 2.244 1_556 S
O631 Co630 2.216 . S
O631 C638 1.247 . S
O632 Co630 2.091 . S
O632 C638 1.261 . S
C633 O642 1.231 1_554 S
C633 O643 1.285 . S
O634 Co630 2.004 . S
O634 C639 1.259 1_556 S
Co635 O636 2.061 . S
Co635 O641 2.052 . S
Co635 O643 2.135 . S
O636 Co635 2.061 . S
O636 C639 1.235 . S
C637 O640 1.238 . S
C637 O641 1.241 . S
C638 O631 1.247 . S
C638 O632 1.261 . S
C639 O634 1.259 1_554 S
C639 O636 1.235 . S
O640 Co630 2.021 1_554 S
O640 C637 1.238 . S
O641 Co635 2.052 . S
O641 C637 1.241 . S
O642 Co630 2.137 . S
O642 C633 1.231 1_556 S
O643 Co630 2.244 1_554 S
O643 C633 1.285 . S
O643 Co635 2.135 . S
Co644 O645 2.216 . S
Co644 O646 2.091 . S
Co644 O648 2.004 . S
Co644 O654 2.021 . S
Co644 O656 2.137 . S
Co644 O657 2.244 . S
O645 Co644 2.216 . S
O645 C652 1.247 . S
O646 Co644 2.091 . S
O646 C652 1.261 . S
C647 O656 1.247 . S
C647 O657 1.272 . S
O648 Co644 2.004 . S
O648 C653 1.259 . S
Co649 O650 2.061 . S
Co649 O655 2.052 . S
Co649 O657 2.135 . S
O650 Co649 2.061 . S
O650 C653 1.235 . S
C651 O654 1.238 . S
C651 O655 1.241 . S
C652 O645 1.247 . S
C652 O646 1.261 . S
C653 O648 1.259 . S
C653 O650 1.235 . S
O654 Co644 2.021 . S
O654 C651 1.238 . S
O655 Co649 2.052 . S
O655 C651 1.241 . S
O656 Co644 2.137 . S
O656 C647 1.247 . S
O657 Co644 2.244 . S
O657 C647 1.272 . S
O657 Co649 2.135 . S
Co658 O659 2.216 . S
Co658 O660 2.091 . S
Co658 O662 2.004 . S
Co658 O668 2.021 . S
Co658 O670 2.137 . S
Co658 O671 2.244 . S
O659 Co658 2.216 . S
O659 C666 1.247 . S
O660 Co658 2.091 . S
O660 C666 1.261 . S
C661 O670 1.247 . S
C661 O671 1.272 . S
O662 Co658 2.004 . S
O662 C667 1.259 . S
Co663 O664 2.061 . S
Co663 O669 2.052 . S
Co663 O671 2.135 . S
O664 Co663 2.061 . S
O664 C667 1.235 . S
C665 O668 1.238 . S
C665 O669 1.241 . S
C666 O659 1.247 . S
C666 O660 1.261 . S
C667 O662 1.259 . S
C667 O664 1.235 . S
O668 Co658 2.021 . S
O668 C665 1.238 . S
O669 Co663 2.052 . S
O669 C665 1.241 . S
O670 Co658 2.137 . S
O670 C661 1.247 . S
O671 Co658 2.244 . S
O671 C661 1.272 . S
O671 Co663 2.135 . S
C672 C673 1.369 . S
C672 C674 1.419 . S
C672 H676 0.930 . S
C673 C672 1.369 . S
C673 C682 1.429 . S
C674 C672 1.419 . S
C674 C675 1.363 . S
C674 H677 0.929 . S
C675 C674 1.363 . S
C675 C681 1.428 . S
H676 C672 0.930 . S
H677 C674 0.929 . S
S678 N679 1.613 . S
S678 N680 1.610 . S
N679 S678 1.613 . S
N679 C682 1.350 . S
N680 S678 1.610 . S
N680 C681 1.351 . S
C681 C675 1.428 . S
C681 N680 1.351 . S
C681 C682 1.434 . S
C682 C673 1.429 . S
C682 N679 1.350 . S
C682 C681 1.434 . S
C683 C684 1.369 . S
C683 C685 1.419 . S
C683 H687 0.930 . S
C684 C683 1.369 . S
C684 C693 1.429 . S
C685 C683 1.419 . S
C685 C686 1.363 . S
C685 H688 0.929 . S
C686 C685 1.363 . S
C686 C692 1.428 . S
H687 C683 0.930 . S
H688 C685 0.929 . S
S689 N690 1.613 . S
S689 N691 1.610 . S
N690 S689 1.613 . S
N690 C693 1.350 . S
N691 S689 1.610 . S
N691 C692 1.351 . S
C692 C686 1.428 . S
C692 N691 1.351 . S
C692 C693 1.434 . S
C693 C684 1.429 . S
C693 N690 1.350 . S
C693 C692 1.434 . S
C694 C695 1.369 . S
C694 C696 1.419 . S
C694 H698 0.930 . S
C695 C694 1.369 . S
C695 C704 1.429 . S
C696 C694 1.419 . S
C696 C697 1.363 . S
C696 H699 0.929 . S
C697 C696 1.363 . S
C697 C703 1.428 . S
H698 C694 0.930 . S
H699 C696 0.929 . S
S700 N701 1.613 . S
S700 N702 1.610 . S
N701 S700 1.613 . S
N701 C704 1.350 . S
N702 S700 1.610 . S
N702 C703 1.351 . S
C703 C697 1.428 . S
C703 N702 1.351 . S
C703 C704 1.434 . S
C704 C695 1.429 . S
C704 N701 1.350 . S
C704 C703 1.434 . S
C705 C706 1.369 . S
C705 C707 1.419 . S
C705 H709 0.930 . S
C706 C705 1.369 . S
C706 C715 1.429 . S
C707 C705 1.419 . S
C707 C708 1.363 . S
C707 H710 0.929 . S
C708 C707 1.363 . S
C708 C714 1.428 . S
H709 C705 0.930 . S
H710 C707 0.929 . S
S711 N712 1.613 . S
S711 N713 1.610 . S
N712 S711 1.613 . S
N712 C715 1.350 . S
N713 S711 1.610 . S
N713 C714 1.351 . S
C714 C708 1.428 . S
C714 N713 1.351 . S
C714 C715 1.434 . S
C715 C706 1.429 . S
C715 N712 1.350 . S
C715 C714 1.434 . S
C716 C717 1.369 . S
C716 C718 1.419 . S
C716 H720 0.930 . S
C717 C716 1.369 . S
C717 C726 1.429 . S
C718 C716 1.419 . S
C718 C719 1.363 . S
C718 H721 0.929 . S
C719 C718 1.363 . S
C719 C725 1.428 . S
H720 C716 0.930 . S
H721 C718 0.929 . S
S722 N723 1.613 . S
S722 N724 1.610 . S
N723 S722 1.613 . S
N723 C726 1.350 . S
N724 S722 1.610 . S
N724 C725 1.351 . S
C725 C719 1.428 . S
C725 N724 1.351 . S
C725 C726 1.434 . S
C726 C717 1.429 . S
C726 N723 1.350 . S
C726 C725 1.434 . S
C727 C728 1.369 . S
C727 C729 1.419 . S
C727 H731 0.930 . S
C728 C727 1.369 . S
C728 C737 1.429 . S
C729 C727 1.419 . S
C729 C730 1.363 . S
C729 H732 0.929 . S
C730 C729 1.363 . S
C730 C736 1.428 . S
H731 C727 0.930 . S
H732 C729 0.929 . S
S733 N734 1.613 . S
S733 N735 1.610 . S
N734 S733 1.613 . S
N734 C737 1.350 . S
N735 S733 1.610 . S
N735 C736 1.351 . S
C736 C730 1.428 . S
C736 N735 1.351 . S
C736 C737 1.434 . S
C737 C728 1.429 . S
C737 N734 1.350 . S
C737 C736 1.434 . S
C738 C739 1.369 . S
C738 C740 1.419 . S
C738 H742 0.930 1_565 S
C739 C738 1.369 . S
C739 C748 1.429 . S
C740 C738 1.419 . S
C740 C741 1.363 . S
C740 H743 0.929 . S
C741 C740 1.363 . S
C741 C747 1.428 . S
H742 C738 0.930 1_545 S
H743 C740 0.929 . S
S744 N745 1.613 . S
S744 N746 1.610 . S
N745 S744 1.613 . S
N745 C748 1.350 . S
N746 S744 1.610 . S
N746 C747 1.351 . S
C747 C741 1.428 . S
C747 N746 1.351 . S
C747 C748 1.434 . S
C748 C739 1.429 . S
C748 N745 1.350 . S
C748 C747 1.434 . S
C749 C750 1.369 . S
C749 C751 1.419 . S
C749 H753 0.930 . S
C750 C749 1.369 . S
C750 C759 1.429 . S
C751 C749 1.419 . S
C751 C752 1.363 . S
C751 H754 0.929 . S
C752 C751 1.363 . S
C752 C758 1.428 . S
H753 C749 0.930 . S
H754 C751 0.929 . S
S755 N756 1.613 . S
S755 N757 1.610 . S
N756 S755 1.613 . S
N756 C759 1.350 . S
N757 S755 1.610 . S
N757 C758 1.351 . S
C758 C752 1.428 . S
C758 N757 1.351 . S
C758 C759 1.434 . S
C759 C750 1.429 . S
C759 N756 1.350 . S
C759 C758 1.434 . S
C760 C761 1.369 . S
C760 C762 1.419 . S
C760 H764 0.930 . S
C761 C760 1.369 . S
C761 C770 1.429 . S
C762 C760 1.419 . S
C762 C763 1.363 . S
C762 H765 0.929 . S
C763 C762 1.363 . S
C763 C769 1.428 . S
H764 C760 0.930 . S
H765 C762 0.929 . S
S766 N767 1.613 . S
S766 N768 1.610 . S
N767 S766 1.613 . S
N767 C770 1.350 . S
N768 S766 1.610 . S
N768 C769 1.351 . S
C769 C763 1.428 . S
C769 N768 1.351 . S
C769 C770 1.434 . S
C770 C761 1.429 . S
C770 N767 1.350 . S
C770 C769 1.434 . S
C771 C772 1.369 . S
C771 C773 1.419 . S
C771 H775 0.930 . S
C772 C771 1.369 . S
C772 C781 1.429 . S
C773 C771 1.419 . S
C773 C774 1.363 . S
C773 H776 0.929 . S
C774 C773 1.363 . S
C774 C780 1.428 . S
H775 C771 0.930 . S
H776 C773 0.929 . S
S777 N778 1.613 . S
S777 N779 1.610 1_655 S
N778 S777 1.613 . S
N778 C781 1.350 1_655 S
N779 S777 1.610 1_455 S
N779 C780 1.351 . S
C780 C774 1.428 . S
C780 N779 1.351 . S
C780 C781 1.434 . S
C781 C772 1.429 . S
C781 N778 1.350 1_455 S
C781 C780 1.434 . S
C782 C783 1.369 . S
C782 C784 1.419 . S
C782 H786 0.930 . S
C783 C782 1.369 . S
C783 C792 1.429 . S
C784 C782 1.419 . S
C784 C785 1.363 . S
C784 H787 0.929 . S
C785 C784 1.363 . S
C785 C791 1.428 . S
H786 C782 0.930 . S
H787 C784 0.929 . S
S788 N789 1.613 . S
S788 N790 1.610 . S
N789 S788 1.613 . S
N789 C792 1.350 . S
N790 S788 1.610 . S
N790 C791 1.351 . S
C791 C785 1.428 . S
C791 N790 1.351 . S
C791 C792 1.434 . S
C792 C783 1.429 . S
C792 N789 1.350 . S
C792 C791 1.434 . S
C793 C794 1.369 . S
C793 C795 1.419 . S
C793 H797 0.930 . S
C794 C793 1.369 . S
C794 C803 1.429 . S
C795 C793 1.419 . S
C795 C796 1.363 . S
C795 H798 0.929 . S
C796 C795 1.363 . S
C796 C802 1.428 . S
H797 C793 0.930 . S
H798 C795 0.929 . S
S799 N800 1.613 . S
S799 N801 1.610 . S
N800 S799 1.613 . S
N800 C803 1.350 . S
N801 S799 1.610 . S
N801 C802 1.351 . S
C802 C796 1.428 . S
C802 N801 1.351 . S
C802 C803 1.434 . S
C803 C794 1.429 . S
C803 N800 1.350 . S
C803 C802 1.434 . S
C804 C805 1.369 . S
C804 C806 1.419 . S
C804 H808 0.930 . S
C805 C804 1.369 . S
C805 C814 1.429 . S
C806 C804 1.419 . S
C806 C807 1.363 . S
C806 H809 0.929 . S
C807 C806 1.363 . S
C807 C813 1.428 . S
H808 C804 0.930 . S
H809 C806 0.929 . S
S810 N811 1.613 . S
S810 N812 1.610 . S
N811 S810 1.613 . S
N811 C814 1.350 . S
N812 S810 1.610 . S
N812 C813 1.351 . S
C813 C807 1.428 . S
C813 N812 1.351 . S
C813 C814 1.434 . S
C814 C805 1.429 . S
C814 N811 1.350 . S
C814 C813 1.434 . S
C815 C816 1.369 . S
C815 C817 1.419 . S
C815 H819 0.930 . S
C816 C815 1.369 . S
C816 C825 1.429 . S
C817 C815 1.419 . S
C817 C818 1.363 . S
C817 H820 0.929 . S
C818 C817 1.363 . S
C818 C824 1.428 . S
H819 C815 0.930 . S
H820 C817 0.929 . S
S821 N822 1.613 . S
S821 N823 1.610 . S
N822 S821 1.613 . S
N822 C825 1.350 . S
N823 S821 1.610 . S
N823 C824 1.351 . S
C824 C818 1.428 . S
C824 N823 1.351 . S
C824 C825 1.434 . S
C825 C816 1.429 . S
C825 N822 1.350 . S
C825 C824 1.434 . S
C826 C827 1.369 . S
C826 C828 1.419 . S
C826 H830 0.930 . S
C827 C826 1.369 . S
C827 C836 1.429 . S
C828 C826 1.419 . S
C828 C829 1.363 . S
C828 H831 0.929 . S
C829 C828 1.363 . S
C829 C835 1.428 . S
H830 C826 0.930 . S
H831 C828 0.929 . S
S832 N833 1.613 1_554 S
S832 N834 1.610 . S
N833 S832 1.613 1_556 S
N833 C836 1.350 . S
N834 S832 1.610 . S
N834 C835 1.351 1_554 S
C835 C829 1.428 . S
C835 N834 1.351 1_556 S
C835 C836 1.434 . S
C836 C827 1.429 . S
C836 N833 1.350 . S
C836 C835 1.434 . S
C837 C838 1.369 . S
C837 C839 1.419 . S
C837 H841 0.930 . S
C838 C837 1.369 . S
C838 C847 1.429 . S
C839 C837 1.419 . S
C839 C840 1.363 . S
C839 H842 0.929 . S
C840 C839 1.363 . S
C840 C846 1.428 . S
H841 C837 0.930 . S
H842 C839 0.929 . S
S843 N844 1.613 . S
S843 N845 1.610 . S
N844 S843 1.613 . S
N844 C847 1.350 . S
N845 S843 1.610 . S
N845 C846 1.351 . S
C846 C840 1.428 . S
C846 N845 1.351 . S
C846 C847 1.434 . S
C847 C838 1.429 . S
C847 N844 1.350 . S
C847 C846 1.434 . S
C848 C849 1.369 . S
C848 C850 1.419 . S
C848 H852 0.930 . S
C849 C848 1.369 . S
C849 C858 1.429 . S
C850 C848 1.419 . S
C850 C851 1.363 . S
C850 H853 0.929 . S
C851 C850 1.363 . S
C851 C857 1.428 . S
H852 C848 0.930 . S
H853 C850 0.929 . S
S854 N855 1.613 . S
S854 N856 1.610 . S
N855 S854 1.613 . S
N855 C858 1.350 . S
N856 S854 1.610 . S
N856 C857 1.351 . S
C857 C851 1.428 . S
C857 N856 1.351 . S
C857 C858 1.434 . S
C858 C849 1.429 . S
C858 N855 1.350 . S
C858 C857 1.434 . S
C859 C860 1.369 . S
C859 C861 1.419 . S
C859 H863 0.930 . S
C860 C859 1.369 . S
C860 C869 1.429 . S
C861 C859 1.419 . S
C861 C862 1.363 . S
C861 H864 0.929 . S
C862 C861 1.363 . S
C862 C868 1.428 . S
H863 C859 0.930 . S
H864 C861 0.929 . S
S865 N866 1.613 . S
S865 N867 1.610 . S
N866 S865 1.613 . S
N866 C869 1.350 . S
N867 S865 1.610 . S
N867 C868 1.351 . S
C868 C862 1.428 . S
C868 N867 1.351 . S
C868 C869 1.434 . S
C869 C860 1.429 . S
C869 N866 1.350 . S
C869 C868 1.434 . S
C870 C871 1.369 . S
C870 C872 1.419 . S
C870 H874 0.930 . S
C871 C870 1.369 . S
C871 C880 1.429 . S
C872 C870 1.419 . S
C872 C873 1.363 . S
C872 H875 0.929 . S
C873 C872 1.363 . S
C873 C879 1.428 . S
H874 C870 0.930 . S
H875 C872 0.929 . S
S876 N877 1.613 . S
S876 N878 1.610 . S
N877 S876 1.613 . S
N877 C880 1.350 . S
N878 S876 1.610 . S
N878 C879 1.351 . S
C879 C873 1.428 . S
C879 N878 1.351 . S
C879 C880 1.434 . S
C880 C871 1.429 . S
C880 N877 1.350 . S
C880 C879 1.434 . S
C881 C882 1.369 . S
C881 C883 1.419 . S
C881 H885 0.930 . S
C882 C881 1.369 . S
C882 C891 1.429 . S
C883 C881 1.419 . S
C883 C884 1.363 . S
C883 H886 0.929 . S
C884 C883 1.363 . S
C884 C890 1.428 . S
H885 C881 0.930 . S
H886 C883 0.929 . S
S887 N888 1.613 . S
S887 N889 1.610 . S
N888 S887 1.613 . S
N888 C891 1.350 . S
N889 S887 1.610 . S
N889 C890 1.351 . S
C890 C884 1.428 . S
C890 N889 1.351 . S
C890 C891 1.434 . S
C891 C882 1.429 . S
C891 N888 1.350 . S
C891 C890 1.434 . S
C892 C893 1.369 . S
C892 C894 1.419 . S
C892 H896 0.930 . S
C893 C892 1.369 . S
C893 C902 1.429 . S
C894 C892 1.419 . S
C894 C895 1.363 . S
C894 H897 0.929 . S
C895 C894 1.363 . S
C895 C901 1.428 . S
H896 C892 0.930 . S
H897 C894 0.929 . S
S898 N899 1.613 . S
S898 N900 1.610 . S
N899 S898 1.613 . S
N899 C902 1.350 . S
N900 S898 1.610 . S
N900 C901 1.351 . S
C901 C895 1.428 . S
C901 N900 1.351 . S
C901 C902 1.434 . S
C902 C893 1.429 . S
C902 N899 1.350 . S
C902 C901 1.434 . S
C903 C904 1.369 . S
C903 C905 1.419 . S
C903 H907 0.930 . S
C904 C903 1.369 . S
C904 C913 1.429 . S
C905 C903 1.419 . S
C905 C906 1.363 . S
C905 H908 0.929 . S
C906 C905 1.363 . S
C906 C912 1.428 . S
H907 C903 0.930 . S
H908 C905 0.929 . S
S909 N910 1.613 . S
S909 N911 1.610 . S
N910 S909 1.613 . S
N910 C913 1.350 . S
N911 S909 1.610 . S
N911 C912 1.351 . S
C912 C906 1.428 . S
C912 N911 1.351 . S
C912 C913 1.434 . S
C913 C904 1.429 . S
C913 N910 1.350 . S
C913 C912 1.434 . S
C914 C915 1.369 . S
C914 C916 1.419 . S
C914 H918 0.930 . S
C915 C914 1.369 . S
C915 C924 1.429 . S
C916 C914 1.419 . S
C916 C917 1.363 . S
C916 H919 0.929 . S
C917 C916 1.363 . S
C917 C923 1.428 . S
H918 C914 0.930 . S
H919 C916 0.929 . S
S920 N921 1.613 . S
S920 N922 1.610 . S
N921 S920 1.613 . S
N921 C924 1.350 . S
N922 S920 1.610 . S
N922 C923 1.351 . S
C923 C917 1.428 . S
C923 N922 1.351 . S
C923 C924 1.434 . S
C924 C915 1.429 . S
C924 N921 1.350 . S
C924 C923 1.434 . S
C925 C926 1.369 . S
C925 C927 1.419 . S
C925 H929 0.930 . S
C926 C925 1.369 . S
C926 C935 1.429 . S
C927 C925 1.419 . S
C927 C928 1.363 . S
C927 H930 0.929 . S
C928 C927 1.363 . S
C928 C934 1.428 . S
H929 C925 0.930 . S
H930 C927 0.929 . S
S931 N932 1.613 . S
S931 N933 1.610 . S
N932 S931 1.613 . S
N932 C935 1.350 . S
N933 S931 1.610 . S
N933 C934 1.351 . S
C934 C928 1.428 . S
C934 N933 1.351 . S
C934 C935 1.434 . S
C935 C926 1.429 . S
C935 N932 1.350 . S
C935 C934 1.434 . S
C936 C937 1.369 . S
C936 C938 1.419 . S
C936 H940 0.930 . S
C937 C936 1.369 . S
C937 C946 1.429 . S
C938 C936 1.419 . S
C938 C939 1.363 . S
C938 H941 0.929 . S
C939 C938 1.363 . S
C939 C945 1.428 . S
H940 C936 0.930 . S
H941 C938 0.929 . S
S942 N943 1.613 . S
S942 N944 1.610 . S
N943 S942 1.613 . S
N943 C946 1.350 . S
N944 S942 1.610 . S
N944 C945 1.351 . S
C945 C939 1.428 . S
C945 N944 1.351 . S
C945 C946 1.434 . S
C946 C937 1.429 . S
C946 N943 1.350 . S
C946 C945 1.434 . S
C947 C948 1.369 . S
C947 C949 1.419 . S
C947 H951 0.930 . S
C948 C947 1.369 . S
C948 C957 1.429 . S
C949 C947 1.419 . S
C949 C950 1.363 . S
C949 H952 0.929 . S
C950 C949 1.363 . S
C950 C956 1.428 . S
H951 C947 0.930 . S
H952 C949 0.929 . S
S953 N954 1.613 . S
S953 N955 1.610 . S
N954 S953 1.613 . S
N954 C957 1.350 . S
N955 S953 1.610 . S
N955 C956 1.351 . S
C956 C950 1.428 . S
C956 N955 1.351 . S
C956 C957 1.434 . S
C957 C948 1.429 . S
C957 N954 1.350 . S
C957 C956 1.434 . S
C958 C959 1.369 . S
C958 C960 1.419 . S
C958 H962 0.930 . S
C959 C958 1.369 . S
C959 C968 1.429 . S
C960 C958 1.419 . S
C960 C961 1.363 . S
C960 H963 0.929 . S
C961 C960 1.363 . S
C961 C967 1.428 . S
H962 C958 0.930 . S
H963 C960 0.929 . S
S964 N965 1.613 1_554 S
S964 N966 1.610 . S
N965 S964 1.613 1_556 S
N965 C968 1.350 . S
N966 S964 1.610 . S
N966 C967 1.351 1_554 S
C967 C961 1.428 . S
C967 N966 1.351 1_556 S
C967 C968 1.434 . S
C968 C959 1.429 . S
C968 N965 1.350 . S
C968 C967 1.434 . S
C969 C970 1.369 . S
C969 C971 1.419 . S
C969 H973 0.930 . S
C970 C969 1.369 . S
C970 C979 1.429 . S
C971 C969 1.419 . S
C971 C972 1.363 . S
C971 H974 0.929 . S
C972 C971 1.363 . S
C972 C978 1.428 . S
H973 C969 0.930 . S
H974 C971 0.929 . S
S975 N976 1.613 . S
S975 N977 1.610 . S
N976 S975 1.613 . S
N976 C979 1.350 . S
N977 S975 1.610 . S
N977 C978 1.351 . S
C978 C972 1.428 . S
C978 N977 1.351 . S
C978 C979 1.434 . S
C979 C970 1.429 . S
C979 N976 1.350 . S
C979 C978 1.434 . S
C980 C981 1.369 . S
C980 C982 1.419 . S
C980 H984 0.930 . S
C981 C980 1.369 . S
C981 C990 1.429 . S
C982 C980 1.419 . S
C982 C983 1.363 . S
C982 H985 0.929 . S
C983 C982 1.363 . S
C983 C989 1.428 . S
H984 C980 0.930 . S
H985 C982 0.929 . S
S986 N987 1.613 . S
S986 N988 1.610 . S
N987 S986 1.613 . S
N987 C990 1.350 . S
N988 S986 1.610 . S
N988 C989 1.351 . S
C989 C983 1.428 . S
C989 N988 1.351 . S
C989 C990 1.434 . S
C990 C981 1.429 . S
C990 N987 1.350 . S
C990 C989 1.434 . S
C991 C992 1.369 . S
C991 C993 1.419 . S
C991 H995 0.930 . S
C992 C991 1.369 . S
C992 C1001 1.429 . S
C993 C991 1.419 . S
C993 C994 1.363 . S
C993 H996 0.929 . S
C994 C993 1.363 . S
C994 C1000 1.428 . S
H995 C991 0.930 . S
H996 C993 0.929 . S
S997 N998 1.613 . S
S997 N999 1.610 . S
N998 S997 1.613 . S
N998 C1001 1.350 . S
N999 S997 1.610 . S
N999 C1000 1.351 . S
C1000 C994 1.428 . S
C1000 N999 1.351 . S
C1000 C1001 1.434 . S
C1001 C992 1.429 . S
C1001 N998 1.350 . S
C1001 C1000 1.434 . S
C1002 C1003 1.369 . S
C1002 C1004 1.419 . S
C1002 H1006 0.930 . S
C1003 C1002 1.369 . S
C1003 C1012 1.429 . S
C1004 C1002 1.419 . S
C1004 C1005 1.363 . S
C1004 H1007 0.929 . S
C1005 C1004 1.363 . S
C1005 C1011 1.428 . S
H1006 C1002 0.930 . S
H1007 C1004 0.929 . S
S1008 N1009 1.613 . S
S1008 N1010 1.610 . S
N1009 S1008 1.613 . S
N1009 C1012 1.350 . S
N1010 S1008 1.610 . S
N1010 C1011 1.351 . S
C1011 C1005 1.428 . S
C1011 N1010 1.351 . S
C1011 C1012 1.434 . S
C1012 C1003 1.429 . S
C1012 N1009 1.350 . S
C1012 C1011 1.434 . S
C1013 C1014 1.369 . S
C1013 C1015 1.419 . S
C1013 H1017 0.930 . S
C1014 C1013 1.369 . S
C1014 C1023 1.429 . S
C1015 C1013 1.419 . S
C1015 C1016 1.363 . S
C1015 H1018 0.929 1_554 S
C1016 C1015 1.363 . S
C1016 C1022 1.428 . S
H1017 C1013 0.930 . S
H1018 C1015 0.929 1_556 S
S1019 N1020 1.613 . S
S1019 N1021 1.610 . S
N1020 S1019 1.613 . S
N1020 C1023 1.350 . S
N1021 S1019 1.610 . S
N1021 C1022 1.351 . S
C1022 C1016 1.428 . S
C1022 N1021 1.351 . S
C1022 C1023 1.434 . S
C1023 C1014 1.429 . S
C1023 N1020 1.350 . S
C1023 C1022 1.434 . S
C1024 C1025 1.369 . S
C1024 C1026 1.419 . S
C1024 H1028 0.930 . S
C1025 C1024 1.369 . S
C1025 C1034 1.429 . S
C1026 C1024 1.419 . S
C1026 C1027 1.363 . S
C1026 H1029 0.929 . S
C1027 C1026 1.363 . S
C1027 C1033 1.428 . S
H1028 C1024 0.930 . S
H1029 C1026 0.929 . S
S1030 N1031 1.613 . S
S1030 N1032 1.610 . S
N1031 S1030 1.613 . S
N1031 C1034 1.350 . S
N1032 S1030 1.610 . S
N1032 C1033 1.351 . S
C1033 C1027 1.428 . S
C1033 N1032 1.351 . S
C1033 C1034 1.434 . S
C1034 C1025 1.429 . S
C1034 N1031 1.350 . S
C1034 C1033 1.434 . S
C1035 C1036 1.369 . S
C1035 C1037 1.419 . S
C1035 H1039 0.930 . S
C1036 C1035 1.369 . S
C1036 C1045 1.429 . S
C1037 C1035 1.419 . S
C1037 C1038 1.363 . S
C1037 H1040 0.929 . S
C1038 C1037 1.363 . S
C1038 C1044 1.428 . S
H1039 C1035 0.930 . S
H1040 C1037 0.929 . S
S1041 N1042 1.613 . S
S1041 N1043 1.610 . S
N1042 S1041 1.613 . S
N1042 C1045 1.350 . S
N1043 S1041 1.610 . S
N1043 C1044 1.351 . S
C1044 C1038 1.428 . S
C1044 N1043 1.351 . S
C1044 C1045 1.434 . S
C1045 C1036 1.429 . S
C1045 N1042 1.350 . S
C1045 C1044 1.434 . S
C1046 C1047 1.369 . S
C1046 C1048 1.419 . S
C1046 H1050 0.930 . S
C1047 C1046 1.369 . S
C1047 C1056 1.429 . S
C1048 C1046 1.419 . S
C1048 C1049 1.363 . S
C1048 H1051 0.929 . S
C1049 C1048 1.363 . S
C1049 C1055 1.428 . S
H1050 C1046 0.930 . S
H1051 C1048 0.929 . S
S1052 N1053 1.613 . S
S1052 N1054 1.610 . S
N1053 S1052 1.613 . S
N1053 C1056 1.350 . S
N1054 S1052 1.610 . S
N1054 C1055 1.351 . S
C1055 C1049 1.428 . S
C1055 N1054 1.351 . S
C1055 C1056 1.434 . S
C1056 C1047 1.429 . S
C1056 N1053 1.350 . S
C1056 C1055 1.434 . S
C1057 C1058 1.369 . S
C1057 C1059 1.419 . S
C1057 H1061 0.930 . S
C1058 C1057 1.369 . S
C1058 C1067 1.429 . S
C1059 C1057 1.419 . S
C1059 C1060 1.363 . S
C1059 H1062 0.929 . S
C1060 C1059 1.363 . S
C1060 C1066 1.428 . S
H1061 C1057 0.930 . S
H1062 C1059 0.929 . S
S1063 N1064 1.613 . S
S1063 N1065 1.610 . S
N1064 S1063 1.613 . S
N1064 C1067 1.350 . S
N1065 S1063 1.610 . S
N1065 C1066 1.351 . S
C1066 C1060 1.428 . S
C1066 N1065 1.351 . S
C1066 C1067 1.434 . S
C1067 C1058 1.429 . S
C1067 N1064 1.350 . S
C1067 C1066 1.434 . S
C1068 C1069 1.369 . S
C1068 C1070 1.419 . S
C1068 H1072 0.930 . S
C1069 C1068 1.369 . S
C1069 C1078 1.429 . S
C1070 C1068 1.419 . S
C1070 C1071 1.363 . S
C1070 H1073 0.929 . S
C1071 C1070 1.363 . S
C1071 C1077 1.428 . S
H1072 C1068 0.930 . S
H1073 C1070 0.929 . S
S1074 N1075 1.613 . S
S1074 N1076 1.610 . S
N1075 S1074 1.613 . S
N1075 C1078 1.350 . S
N1076 S1074 1.610 . S
N1076 C1077 1.351 . S
C1077 C1071 1.428 . S
C1077 N1076 1.351 . S
C1077 C1078 1.434 . S
C1078 C1069 1.429 . S
C1078 N1075 1.350 . S
C1078 C1077 1.434 . S
C1079 C1080 1.369 . S
C1079 C1081 1.419 . S
C1079 H1083 0.930 . S
C1080 C1079 1.369 . S
C1080 C1089 1.429 . S
C1081 C1079 1.419 . S
C1081 C1082 1.363 . S
C1081 H1084 0.929 . S
C1082 C1081 1.363 . S
C1082 C1088 1.428 . S
H1083 C1079 0.930 . S
H1084 C1081 0.929 . S
S1085 N1086 1.613 1_556 S
S1085 N1087 1.610 1_556 S
N1086 S1085 1.613 1_554 S
N1086 C1089 1.350 . S
N1087 S1085 1.610 1_554 S
N1087 C1088 1.351 . S
C1088 C1082 1.428 . S
C1088 N1087 1.351 . S
C1088 C1089 1.434 . S
C1089 C1080 1.429 . S
C1089 N1086 1.350 . S
C1089 C1088 1.434 . S
C1090 C1091 1.369 . S
C1090 C1092 1.419 . S
C1090 H1094 0.930 . S
C1091 C1090 1.369 . S
C1091 C1100 1.429 . S
C1092 C1090 1.419 . S
C1092 C1093 1.363 . S
C1092 H1095 0.929 . S
C1093 C1092 1.363 . S
C1093 C1099 1.428 . S
H1094 C1090 0.930 . S
H1095 C1092 0.929 . S
S1096 N1097 1.613 . S
S1096 N1098 1.606 1_554 S
N1097 S1096 1.613 . S
N1097 C1100 1.350 . S
N1098 S1096 1.606 1_556 S
N1098 C1099 1.346 1_556 S
C1099 C1093 1.428 . S
C1099 N1098 1.346 1_554 S
C1099 C1100 1.434 . S
C1100 C1091 1.429 . S
C1100 N1097 1.350 . S
C1100 C1099 1.434 . S
C1101 C1102 1.369 . S
C1101 C1103 1.419 . S
C1101 H1105 0.930 . S
C1102 C1101 1.369 . S
C1102 C1111 1.429 . S
C1103 C1101 1.419 . S
C1103 C1104 1.363 . S
C1103 H1106 0.929 . S
C1104 C1103 1.363 . S
C1104 C1110 1.428 . S
H1105 C1101 0.930 . S
H1106 C1103 0.929 . S
S1107 N1108 1.613 . S
S1107 N1109 1.610 . S
N1108 S1107 1.613 . S
N1108 C1111 1.350 . S
N1109 S1107 1.610 . S
N1109 C1110 1.351 . S
C1110 C1104 1.428 . S
C1110 N1109 1.351 . S
C1110 C1111 1.434 . S
C1111 C1102 1.429 . S
C1111 N1108 1.350 . S
C1111 C1110 1.434 . S
C1112 C1113 1.369 . S
C1112 C1114 1.419 . S
C1112 H1116 0.930 . S
C1113 C1112 1.369 . S
C1113 C1122 1.429 . S
C1114 C1112 1.419 . S
C1114 C1115 1.363 . S
C1114 H1117 0.929 . S
C1115 C1114 1.363 . S
C1115 C1121 1.428 . S
H1116 C1112 0.930 . S
H1117 C1114 0.929 . S
S1118 N1119 1.613 . S
S1118 N1120 1.610 . S
N1119 S1118 1.613 . S
N1119 C1122 1.350 . S
N1120 S1118 1.610 . S
N1120 C1121 1.351 . S
C1121 C1115 1.428 . S
C1121 N1120 1.351 . S
C1121 C1122 1.434 . S
C1122 C1113 1.429 . S
C1122 N1119 1.350 . S
C1122 C1121 1.434 . S
C1123 C1124 1.369 . S
C1123 C1125 1.419 . S
C1123 H1127 0.930 . S
C1124 C1123 1.369 . S
C1124 C1133 1.429 . S
C1125 C1123 1.419 . S
C1125 C1126 1.363 . S
C1125 H1128 0.929 . S
C1126 C1125 1.363 . S
C1126 C1132 1.428 . S
H1127 C1123 0.930 . S
H1128 C1125 0.929 . S
S1129 N1130 1.613 . S
S1129 N1131 1.610 . S
N1130 S1129 1.613 . S
N1130 C1133 1.350 . S
N1131 S1129 1.610 . S
N1131 C1132 1.351 . S
C1132 C1126 1.428 . S
C1132 N1131 1.351 . S
C1132 C1133 1.434 . S
C1133 C1124 1.429 . S
C1133 N1130 1.350 . S
C1133 C1132 1.434 . S
C1134 C1135 1.369 . S
C1134 C1136 1.419 . S
C1134 H1138 0.930 . S
C1135 C1134 1.369 . S
C1135 C1144 1.429 . S
C1136 C1134 1.419 . S
C1136 C1137 1.363 . S
C1136 H1139 0.929 . S
C1137 C1136 1.363 . S
C1137 C1143 1.428 . S
H1138 C1134 0.930 . S
H1139 C1136 0.929 . S
S1140 N1141 1.613 1_655 S
S1140 N1142 1.610 . S
N1141 S1140 1.613 1_455 S
N1141 C1144 1.350 . S
N1142 S1140 1.610 . S
N1142 C1143 1.351 1_655 S
C1143 C1137 1.428 . S
C1143 N1142 1.351 1_455 S
C1143 C1144 1.434 . S
C1144 C1135 1.429 . S
C1144 N1141 1.350 . S
C1144 C1143 1.434 . S
C1145 C1146 1.369 . S
C1145 C1147 1.419 . S
C1145 H1149 0.930 . S
C1146 C1145 1.369 . S
C1146 C1155 1.429 . S
C1147 C1145 1.419 . S
C1147 C1148 1.363 . S
C1147 H1150 0.929 . S
C1148 C1147 1.363 . S
C1148 C1154 1.428 . S
H1149 C1145 0.930 . S
H1150 C1147 0.929 . S
S1151 N1152 1.613 . S
S1151 N1153 1.610 . S
N1152 S1151 1.613 . S
N1152 C1155 1.350 . S
N1153 S1151 1.610 . S
N1153 C1154 1.351 . S
C1154 C1148 1.428 . S
C1154 N1153 1.351 . S
C1154 C1155 1.434 . S
C1155 C1146 1.429 . S
C1155 N1152 1.350 . S
C1155 C1154 1.434 . S
C1156 C1157 1.369 . S
C1156 C1158 1.419 . S
C1156 H1160 0.930 . S
C1157 C1156 1.369 . S
C1157 C1166 1.429 . S
C1158 C1156 1.419 . S
C1158 C1159 1.363 . S
C1158 H1161 0.929 . S
C1159 C1158 1.363 . S
C1159 C1165 1.428 . S
H1160 C1156 0.930 . S
H1161 C1158 0.929 . S
S1162 N1163 1.613 . S
S1162 N1164 1.610 . S
N1163 S1162 1.613 . S
N1163 C1166 1.350 . S
N1164 S1162 1.610 . S
N1164 C1165 1.351 . S
C1165 C1159 1.428 . S
C1165 N1164 1.351 . S
C1165 C1166 1.434 . S
C1166 C1157 1.429 . S
C1166 N1163 1.350 . S
C1166 C1165 1.434 . S
C1167 C1168 1.369 . S
C1167 C1169 1.419 . S
C1167 H1171 0.930 . S
C1168 C1167 1.369 . S
C1168 C1177 1.429 . S
C1169 C1167 1.419 . S
C1169 C1170 1.363 . S
C1169 H1172 0.929 . S
C1170 C1169 1.363 . S
C1170 C1176 1.428 . S
H1171 C1167 0.930 . S
H1172 C1169 0.929 . S
S1173 N1174 1.613 . S
S1173 N1175 1.610 . S
N1174 S1173 1.613 . S
N1174 C1177 1.350 . S
N1175 S1173 1.610 . S
N1175 C1176 1.351 . S
C1176 C1170 1.428 . S
C1176 N1175 1.351 . S
C1176 C1177 1.434 . S
C1177 C1168 1.429 . S
C1177 N1174 1.350 . S
C1177 C1176 1.434 . S
C1178 C1179 1.369 . S
C1178 C1180 1.419 . S
C1178 H1182 0.930 . S
C1179 C1178 1.369 . S
C1179 C1188 1.429 . S
C1180 C1178 1.419 . S
C1180 C1181 1.363 . S
C1180 H1183 0.929 . S
C1181 C1180 1.363 . S
C1181 C1187 1.428 . S
H1182 C1178 0.930 . S
H1183 C1180 0.929 . S
S1184 N1185 1.613 . S
S1184 N1186 1.610 1_455 S
N1185 S1184 1.613 . S
N1185 C1188 1.350 1_455 S
N1186 S1184 1.610 1_655 S
N1186 C1187 1.351 . S
C1187 C1181 1.428 . S
C1187 N1186 1.351 . S
C1187 C1188 1.434 . S
C1188 C1179 1.429 . S
C1188 N1185 1.350 1_655 S
C1188 C1187 1.434 . S
C1189 C1190 1.369 . S
C1189 C1191 1.419 . S
C1189 H1193 0.930 . S
C1190 C1189 1.369 . S
C1190 C1199 1.429 . S
C1191 C1189 1.419 . S
C1191 C1192 1.363 . S
C1191 H1194 0.929 . S
C1192 C1191 1.363 . S
C1192 C1198 1.428 . S
H1193 C1189 0.930 . S
H1194 C1191 0.929 . S
S1195 N1196 1.613 1_655 S
S1195 N1197 1.610 1_655 S
N1196 S1195 1.613 1_455 S
N1196 C1199 1.350 . S
N1197 S1195 1.610 1_455 S
N1197 C1198 1.351 . S
C1198 C1192 1.428 . S
C1198 N1197 1.351 . S
C1198 C1199 1.434 . S
C1199 C1190 1.429 . S
C1199 N1196 1.350 . S
C1199 C1198 1.434 . S
C1200 C1201 1.369 . S
C1200 C1202 1.419 . S
C1200 H1204 0.930 . S
C1201 C1200 1.369 . S
C1201 C1210 1.429 . S
C1202 C1200 1.419 . S
C1202 C1203 1.363 . S
C1202 H1205 0.929 . S
C1203 C1202 1.363 . S
C1203 C1209 1.428 . S
H1204 C1200 0.930 . S
H1205 C1202 0.929 . S
S1206 N1207 1.613 . S
S1206 N1208 1.610 . S
N1207 S1206 1.613 . S
N1207 C1210 1.350 . S
N1208 S1206 1.610 . S
N1208 C1209 1.351 . S
C1209 C1203 1.428 . S
C1209 N1208 1.351 . S
C1209 C1210 1.434 . S
C1210 C1201 1.429 . S
C1210 N1207 1.350 . S
C1210 C1209 1.434 . S
C1211 C1212 1.369 . S
C1211 C1213 1.419 . S
C1211 H1215 0.930 . S
C1212 C1211 1.369 . S
C1212 C1221 1.429 . S
C1213 C1211 1.419 . S
C1213 C1214 1.363 . S
C1213 H1216 0.929 . S
C1214 C1213 1.363 . S
C1214 C1220 1.428 . S
H1215 C1211 0.930 . S
H1216 C1213 0.929 . S
S1217 N1218 1.613 . S
S1217 N1219 1.610 . S
N1218 S1217 1.613 . S
N1218 C1221 1.350 . S
N1219 S1217 1.610 . S
N1219 C1220 1.351 . S
C1220 C1214 1.428 . S
C1220 N1219 1.351 . S
C1220 C1221 1.434 . S
C1221 C1212 1.429 . S
C1221 N1218 1.350 . S
C1221 C1220 1.434 . S
C1222 C1223 1.369 . S
C1222 C1224 1.419 1_565 S
C1222 H1226 0.930 1_565 S
C1223 C1222 1.369 . S
C1223 C1232 1.429 . S
C1224 C1222 1.419 1_545 S
C1224 C1225 1.363 1_545 S
C1224 H1227 0.929 . S
C1225 C1224 1.363 1_565 S
C1225 C1231 1.428 . S
H1226 C1222 0.930 1_545 S
H1227 C1224 0.929 . S
S1228 N1229 1.613 . S
S1228 N1230 1.610 . S
N1229 S1228 1.613 . S
N1229 C1232 1.350 . S
N1230 S1228 1.610 . S
N1230 C1231 1.351 . S
C1231 C1225 1.428 . S
C1231 N1230 1.351 . S
C1231 C1232 1.434 . S
C1232 C1223 1.429 . S
C1232 N1229 1.350 . S
C1232 C1231 1.434 . S
C1233 C1234 1.369 . S
C1233 C1235 1.419 . S
C1233 H1237 0.930 . S
C1234 C1233 1.369 . S
C1234 C1243 1.429 . S
C1235 C1233 1.419 . S
C1235 C1236 1.363 . S
C1235 H1238 0.929 . S
C1236 C1235 1.363 . S
C1236 C1242 1.428 . S
H1237 C1233 0.930 . S
H1238 C1235 0.929 . S
S1239 N1240 1.613 . S
S1239 N1241 1.610 . S
N1240 S1239 1.613 . S
N1240 C1243 1.350 . S
N1241 S1239 1.610 . S
N1241 C1242 1.351 . S
C1242 C1236 1.428 . S
C1242 N1241 1.351 . S
C1242 C1243 1.434 . S
C1243 C1234 1.429 . S
C1243 N1240 1.350 . S
C1243 C1242 1.434 . S
C1244 C1245 1.369 . S
C1244 C1246 1.419 . S
C1244 H1248 0.930 . S
C1245 C1244 1.369 . S
C1245 C1254 1.429 . S
C1246 C1244 1.419 . S
C1246 C1247 1.363 . S
C1246 H1249 0.929 . S
C1247 C1246 1.363 . S
C1247 C1253 1.428 . S
H1248 C1244 0.930 . S
H1249 C1246 0.929 . S
S1250 N1251 1.613 . S
S1250 N1252 1.610 . S
N1251 S1250 1.613 . S
N1251 C1254 1.350 . S
N1252 S1250 1.610 . S
N1252 C1253 1.351 . S
C1253 C1247 1.428 . S
C1253 N1252 1.351 . S
C1253 C1254 1.434 . S
C1254 C1245 1.429 . S
C1254 N1251 1.350 . S
C1254 C1253 1.434 . S
C1255 C1256 1.369 . S
C1255 C1257 1.419 . S
C1255 H1259 0.930 . S
C1256 C1255 1.369 . S
C1256 C1265 1.429 . S
C1257 C1255 1.419 . S
C1257 C1258 1.363 . S
C1257 H1260 0.929 . S
C1258 C1257 1.363 . S
C1258 C1264 1.428 . S
H1259 C1255 0.930 . S
H1260 C1257 0.929 . S
S1261 N1262 1.613 . S
S1261 N1263 1.610 . S
N1262 S1261 1.613 . S
N1262 C1265 1.350 . S
N1263 S1261 1.610 . S
N1263 C1264 1.351 . S
C1264 C1258 1.428 . S
C1264 N1263 1.351 . S
C1264 C1265 1.434 . S
C1265 C1256 1.429 . S
C1265 N1262 1.350 . S
C1265 C1264 1.434 . S
C1266 C1267 1.369 . S
C1266 C1268 1.419 . S
C1266 H1270 0.930 . S
C1267 C1266 1.369 . S
C1267 C1276 1.429 . S
C1268 C1266 1.419 . S
C1268 C1269 1.363 . S
C1268 H1271 0.929 . S
C1269 C1268 1.363 . S
C1269 C1275 1.428 . S
H1270 C1266 0.930 . S
H1271 C1268 0.929 . S
S1272 N1273 1.613 . S
S1272 N1274 1.610 . S
N1273 S1272 1.613 . S
N1273 C1276 1.350 . S
N1274 S1272 1.610 . S
N1274 C1275 1.351 . S
C1275 C1269 1.428 . S
C1275 N1274 1.351 . S
C1275 C1276 1.434 . S
C1276 C1267 1.429 . S
C1276 N1273 1.350 . S
C1276 C1275 1.434 . S
C1277 C1278 1.369 . S
C1277 C1279 1.419 . S
C1277 H1281 0.930 . S
C1278 C1277 1.369 . S
C1278 C1287 1.429 . S
C1279 C1277 1.419 . S
C1279 C1280 1.363 . S
C1279 H1282 0.929 . S
C1280 C1279 1.363 . S
C1280 C1286 1.428 . S
H1281 C1277 0.930 . S
H1282 C1279 0.929 . S
S1283 N1284 1.613 . S
S1283 N1285 1.610 . S
N1284 S1283 1.613 . S
N1284 C1287 1.350 . S
N1285 S1283 1.610 . S
N1285 C1286 1.351 . S
C1286 C1280 1.428 . S
C1286 N1285 1.351 . S
C1286 C1287 1.434 . S
C1287 C1278 1.429 . S
C1287 N1284 1.350 . S
C1287 C1286 1.434 . S
C1288 C1289 1.369 . S
C1288 C1290 1.419 . S
C1288 H1292 0.930 . S
C1289 C1288 1.369 . S
C1289 C1298 1.429 . S
C1290 C1288 1.419 . S
C1290 C1291 1.363 . S
C1290 H1293 0.929 . S
C1291 C1290 1.363 . S
C1291 C1297 1.428 . S
H1292 C1288 0.930 . S
H1293 C1290 0.929 . S
S1294 N1295 1.613 . S
S1294 N1296 1.610 . S
N1295 S1294 1.613 . S
N1295 C1298 1.350 . S
N1296 S1294 1.610 . S
N1296 C1297 1.351 . S
C1297 C1291 1.428 . S
C1297 N1296 1.351 . S
C1297 C1298 1.434 . S
C1298 C1289 1.429 . S
C1298 N1295 1.350 . S
C1298 C1297 1.434 . S
C1299 C1300 1.369 . S
C1299 C1301 1.419 1_455 S
C1299 H1303 0.930 . S
C1300 C1299 1.369 . S
C1300 C1309 1.429 . S
C1301 C1299 1.419 1_655 S
C1301 C1302 1.363 . S
C1301 H1304 0.929 . S
C1302 C1301 1.363 . S
C1302 C1308 1.428 . S
H1303 C1299 0.930 . S
H1304 C1301 0.929 . S
S1305 N1306 1.613 . S
S1305 N1307 1.610 1_455 S
N1306 S1305 1.613 . S
N1306 C1309 1.350 . S
N1307 S1305 1.610 1_655 S
N1307 C1308 1.351 . S
C1308 C1302 1.428 . S
C1308 N1307 1.351 . S
C1308 C1309 1.434 1_655 S
C1309 C1300 1.429 . S
C1309 N1306 1.350 . S
C1309 C1308 1.434 1_455 S
C1310 C1311 1.369 . S
C1310 C1312 1.419 1_554 S
C1310 H1314 0.930 1_554 S
C1311 C1310 1.369 . S
C1311 C1320 1.429 . S
C1312 C1310 1.419 1_556 S
C1312 C1313 1.363 1_556 S
C1312 H1315 0.929 . S
C1313 C1312 1.363 1_554 S
C1313 C1319 1.428 . S
H1314 C1310 0.930 1_556 S
H1315 C1312 0.929 . S
S1316 N1317 1.613 . S
S1316 N1318 1.610 . S
N1317 S1316 1.613 . S
N1317 C1320 1.350 . S
N1318 S1316 1.610 . S
N1318 C1319 1.351 . S
C1319 C1313 1.428 . S
C1319 N1318 1.351 . S
C1319 C1320 1.434 . S
C1320 C1311 1.429 . S
C1320 N1317 1.350 . S
C1320 C1319 1.434 . S
C1321 C1322 1.369 1_545 S
C1321 C1323 1.419 1_655 S
C1321 H1325 0.930 . S
C1322 C1321 1.369 1_565 S
C1322 C1331 1.429 . S
C1323 C1321 1.419 1_455 S
C1323 C1324 1.363 . S
C1323 H1326 0.929 . S
C1324 C1323 1.363 . S
C1324 C1330 1.428 1_545 S
H1325 C1321 0.930 . S
H1326 C1323 0.929 . S
S1327 N1328 1.613 1_455 S
S1327 N1329 1.610 . S
N1328 S1327 1.613 1_655 S
N1328 C1331 1.350 . S
N1329 S1327 1.610 . S
N1329 C1330 1.351 . S
C1330 C1324 1.428 1_565 S
C1330 N1329 1.351 . S
C1330 C1331 1.434 1_455 S
C1331 C1322 1.429 . S
C1331 N1328 1.350 . S
C1331 C1330 1.434 1_655 S
C1332 C1333 1.369 . S
C1332 C1334 1.419 . S
C1332 H1336 0.930 . S
C1333 C1332 1.369 . S
C1333 C1342 1.429 . S
C1334 C1332 1.419 . S
C1334 C1335 1.363 . S
C1334 H1337 0.929 . S
C1335 C1334 1.363 . S
C1335 C1341 1.428 . S
H1336 C1332 0.930 . S
H1337 C1334 0.929 . S
S1338 N1339 1.613 . S
S1338 N1340 1.610 . S
N1339 S1338 1.613 . S
N1339 C1342 1.350 . S
N1340 S1338 1.610 . S
N1340 C1341 1.351 . S
C1341 C1335 1.428 . S
C1341 N1340 1.351 . S
C1341 C1342 1.434 . S
C1342 C1333 1.429 . S
C1342 N1339 1.350 . S
C1342 C1341 1.434 . S
C1343 C1344 1.369 . S
C1343 C1345 1.419 . S
C1343 H1347 0.930 . S
C1344 C1343 1.369 . S
C1344 C1353 1.429 . S
C1345 C1343 1.419 . S
C1345 C1346 1.363 . S
C1345 H1348 0.929 . S
C1346 C1345 1.363 . S
C1346 C1352 1.428 . S
H1347 C1343 0.930 . S
H1348 C1345 0.929 . S
S1349 N1350 1.613 . S
S1349 N1351 1.610 . S
N1350 S1349 1.613 . S
N1350 C1353 1.350 . S
N1351 S1349 1.610 . S
N1351 C1352 1.351 . S
C1352 C1346 1.428 . S
C1352 N1351 1.351 . S
C1352 C1353 1.434 . S
C1353 C1344 1.429 . S
C1353 N1350 1.350 . S
C1353 C1352 1.434 . S
C1354 C1355 1.369 . S
C1354 C1356 1.419 . S
C1354 H1358 0.930 . S
C1355 C1354 1.369 . S
C1355 C1364 1.429 . S
C1356 C1354 1.419 . S
C1356 C1357 1.363 . S
C1356 H1359 0.929 . S
C1357 C1356 1.363 . S
C1357 C1363 1.428 . S
H1358 C1354 0.930 . S
H1359 C1356 0.929 . S
S1360 N1361 1.613 . S
S1360 N1362 1.610 . S
N1361 S1360 1.613 . S
N1361 C1364 1.350 . S
N1362 S1360 1.610 . S
N1362 C1363 1.351 . S
C1363 C1357 1.428 . S
C1363 N1362 1.351 . S
C1363 C1364 1.434 . S
C1364 C1355 1.429 . S
C1364 N1361 1.350 . S
C1364 C1363 1.434 . S
C1365 C1366 1.369 . S
C1365 C1367 1.419 . S
C1365 H1369 0.930 . S
C1366 C1365 1.369 . S
C1366 C1375 1.429 1_565 S
C1367 C1365 1.419 . S
C1367 C1368 1.363 1_565 S
C1367 H1370 0.929 . S
C1368 C1367 1.363 1_545 S
C1368 C1374 1.428 . S
H1369 C1365 0.930 . S
H1370 C1367 0.929 . S
S1371 N1372 1.613 . S
S1371 N1373 1.610 . S
N1372 S1371 1.613 . S
N1372 C1375 1.350 . S
N1373 S1371 1.610 . S
N1373 C1374 1.351 . S
C1374 C1368 1.428 . S
C1374 N1373 1.351 . S
C1374 C1375 1.434 . S
C1375 C1366 1.429 1_545 S
C1375 N1372 1.350 . S
C1375 C1374 1.434 . S
C1376 C1377 1.369 . S
C1376 C1378 1.419 . S
C1376 H1380 0.930 . S
C1377 C1376 1.369 . S
C1377 C1386 1.429 . S
C1378 C1376 1.419 . S
C1378 C1379 1.363 . S
C1378 H1381 0.929 . S
C1379 C1378 1.363 . S
C1379 C1385 1.428 . S
H1380 C1376 0.930 . S
H1381 C1378 0.929 . S
S1382 N1383 1.613 . S
S1382 N1384 1.610 . S
N1383 S1382 1.613 . S
N1383 C1386 1.350 . S
N1384 S1382 1.610 . S
N1384 C1385 1.351 . S
C1385 C1379 1.428 . S
C1385 N1384 1.351 . S
C1385 C1386 1.434 . S
C1386 C1377 1.429 . S
C1386 N1383 1.350 . S
C1386 C1385 1.434 . S
C1387 C1388 1.369 . S
C1387 C1389 1.419 . S
C1387 H1391 0.930 . S
C1388 C1387 1.369 . S
C1388 C1397 1.429 . S
C1389 C1387 1.419 . S
C1389 C1390 1.363 . S
C1389 H1392 0.929 . S
C1390 C1389 1.363 . S
C1390 C1396 1.428 . S
H1391 C1387 0.930 . S
H1392 C1389 0.929 . S
S1393 N1394 1.613 . S
S1393 N1395 1.610 . S
N1394 S1393 1.613 . S
N1394 C1397 1.350 . S
N1395 S1393 1.610 . S
N1395 C1396 1.351 . S
C1396 C1390 1.428 . S
C1396 N1395 1.351 . S
C1396 C1397 1.434 . S
C1397 C1388 1.429 . S
C1397 N1394 1.350 . S
C1397 C1396 1.434 . S
C1398 C1399 1.369 . S
C1398 C1400 1.419 . S
C1398 H1402 0.930 . S
C1399 C1398 1.369 . S
C1399 C1408 1.429 . S
C1400 C1398 1.419 . S
C1400 C1401 1.363 . S
C1400 H1403 0.929 . S
C1401 C1400 1.363 . S
C1401 C1407 1.428 . S
H1402 C1398 0.930 . S
H1403 C1400 0.929 . S
S1404 N1405 1.613 . S
S1404 N1406 1.610 . S
N1405 S1404 1.613 . S
N1405 C1408 1.350 . S
N1406 S1404 1.610 . S
N1406 C1407 1.351 . S
C1407 C1401 1.428 . S
C1407 N1406 1.351 . S
C1407 C1408 1.434 . S
C1408 C1399 1.429 . S
C1408 N1405 1.350 . S
C1408 C1407 1.434 . S
C1409 C1410 1.369 . S
C1409 C1411 1.419 . S
C1409 H1413 0.930 . S
C1410 C1409 1.369 . S
C1410 C1419 1.429 . S
C1411 C1409 1.419 . S
C1411 C1412 1.363 . S
C1411 H1414 0.929 . S
C1412 C1411 1.363 . S
C1412 C1418 1.428 . S
H1413 C1409 0.930 . S
H1414 C1411 0.929 . S
S1415 N1416 1.613 . S
S1415 N1417 1.610 . S
N1416 S1415 1.613 . S
N1416 C1419 1.350 . S
N1417 S1415 1.610 . S
N1417 C1418 1.351 . S
C1418 C1412 1.428 . S
C1418 N1417 1.351 . S
C1418 C1419 1.434 . S
C1419 C1410 1.429 . S
C1419 N1416 1.350 . S
C1419 C1418 1.434 . S
C1420 C1421 1.369 1_554 S
C1420 C1422 1.419 . S
C1420 H1424 0.930 . S
C1421 C1420 1.369 1_556 S
C1421 C1430 1.429 . S
C1422 C1420 1.419 . S
C1422 C1423 1.363 . S
C1422 H1425 0.929 . S
C1423 C1422 1.363 . S
C1423 C1429 1.428 1_554 S
H1424 C1420 0.930 . S
H1425 C1422 0.929 . S
S1426 N1427 1.613 . S
S1426 N1428 1.610 . S
N1427 S1426 1.613 . S
N1427 C1430 1.350 . S
N1428 S1426 1.610 . S
N1428 C1429 1.351 . S
C1429 C1423 1.428 1_556 S
C1429 N1428 1.351 . S
C1429 C1430 1.434 . S
C1430 C1421 1.429 . S
C1430 N1427 1.350 . S
C1430 C1429 1.434 . S
C1431 C1432 1.369 . S
C1431 C1433 1.419 . S
C1431 H1435 0.930 . S
C1432 C1431 1.369 . S
C1432 C1441 1.429 . S
C1433 C1431 1.419 . S
C1433 C1434 1.363 . S
C1433 H1436 0.929 . S
C1434 C1433 1.363 . S
C1434 C1440 1.428 . S
H1435 C1431 0.930 . S
H1436 C1433 0.929 . S
S1437 N1438 1.613 . S
S1437 N1439 1.610 . S
N1438 S1437 1.613 . S
N1438 C1441 1.350 . S
N1439 S1437 1.610 . S
N1439 C1440 1.351 . S
C1440 C1434 1.428 . S
C1440 N1439 1.351 . S
C1440 C1441 1.434 . S
C1441 C1432 1.429 . S
C1441 N1438 1.350 . S
C1441 C1440 1.434 . S
C1442 C1443 1.369 . S
C1442 C1444 1.419 1_554 S
C1442 H1446 0.930 . S
C1443 C1442 1.369 . S
C1443 C1452 1.422 1_554 S
C1444 C1442 1.419 1_556 S
C1444 C1445 1.363 . S
C1444 H1447 0.929 . S
C1445 C1444 1.363 . S
C1445 C1451 1.428 . S
H1446 C1442 0.930 . S
H1447 C1444 0.929 . S
S1448 N1449 1.613 . S
S1448 N1450 1.610 . S
N1449 S1448 1.613 . S
N1449 C1452 1.350 . S
N1450 S1448 1.610 . S
N1450 C1451 1.351 . S
C1451 C1445 1.428 . S
C1451 N1450 1.351 . S
C1451 C1452 1.441 . S
C1452 C1443 1.422 1_556 S
C1452 N1449 1.350 . S
C1452 C1451 1.441 . S
C1453 C1454 1.369 . S
C1453 C1455 1.419 . S
C1453 H1457 0.930 . S
C1454 C1453 1.369 . S
C1454 C1463 1.429 1_545 S
C1455 C1453 1.419 . S
C1455 C1456 1.363 . S
C1455 H1458 0.929 . S
C1456 C1455 1.363 . S
C1456 C1462 1.428 . S
H1457 C1453 0.930 . S
H1458 C1455 0.929 . S
S1459 N1460 1.613 . S
S1459 N1461 1.610 . S
N1460 S1459 1.613 . S
N1460 C1463 1.350 . S
N1461 S1459 1.610 . S
N1461 C1462 1.351 1_565 S
C1462 C1456 1.428 . S
C1462 N1461 1.351 1_545 S
C1462 C1463 1.434 1_545 S
C1463 C1454 1.429 1_565 S
C1463 N1460 1.350 . S
C1463 C1462 1.434 1_565 S
C1464 C1465 1.369 . S
C1464 C1466 1.419 . S
C1464 H1468 0.930 . S
C1465 C1464 1.369 . S
C1465 C1474 1.429 . S
C1466 C1464 1.419 . S
C1466 C1467 1.363 . S
C1466 H1469 0.929 . S
C1467 C1466 1.363 . S
C1467 C1473 1.428 . S
H1468 C1464 0.930 . S
H1469 C1466 0.929 . S
S1470 N1471 1.613 . S
S1470 N1472 1.610 . S
N1471 S1470 1.613 . S
N1471 C1474 1.350 . S
N1472 S1470 1.610 . S
N1472 C1473 1.351 . S
C1473 C1467 1.428 . S
C1473 N1472 1.351 . S
C1473 C1474 1.434 . S
C1474 C1465 1.429 . S
C1474 N1471 1.350 . S
C1474 C1473 1.434 . S
C1475 C1476 1.369 . S
C1475 C1477 1.419 . S
C1475 H1479 0.930 . S
C1476 C1475 1.369 . S
C1476 C1485 1.429 . S
C1477 C1475 1.419 . S
C1477 C1478 1.363 . S
C1477 H1480 0.929 . S
C1478 C1477 1.363 . S
C1478 C1484 1.428 . S
H1479 C1475 0.930 . S
H1480 C1477 0.929 . S
S1481 N1482 1.613 . S
S1481 N1483 1.610 . S
N1482 S1481 1.613 . S
N1482 C1485 1.350 . S
N1483 S1481 1.610 . S
N1483 C1484 1.351 . S
C1484 C1478 1.428 . S
C1484 N1483 1.351 . S
C1484 C1485 1.434 . S
C1485 C1476 1.429 . S
C1485 N1482 1.350 . S
C1485 C1484 1.434 . S
C1486 C1487 1.369 . S
C1486 C1488 1.419 . S
C1486 H1490 0.930 . S
C1487 C1486 1.369 . S
C1487 C1496 1.429 . S
C1488 C1486 1.419 . S
C1488 C1489 1.363 . S
C1488 H1491 0.929 . S
C1489 C1488 1.363 . S
C1489 C1495 1.428 . S
H1490 C1486 0.930 . S
H1491 C1488 0.929 . S
S1492 N1493 1.613 . S
S1492 N1494 1.610 . S
N1493 S1492 1.613 . S
N1493 C1496 1.350 . S
N1494 S1492 1.610 . S
N1494 C1495 1.351 . S
C1495 C1489 1.428 . S
C1495 N1494 1.351 . S
C1495 C1496 1.434 . S
C1496 C1487 1.429 . S
C1496 N1493 1.350 . S
C1496 C1495 1.434 . S
C1497 C1498 1.369 . S
C1497 C1499 1.419 . S
C1497 H1501 0.930 . S
C1498 C1497 1.369 . S
C1498 C1507 1.429 1_565 S
C1499 C1497 1.419 . S
C1499 C1500 1.363 . S
C1499 H1502 0.929 . S
C1500 C1499 1.363 . S
C1500 C1506 1.428 . S
H1501 C1497 0.930 . S
H1502 C1499 0.929 . S
S1503 N1504 1.613 . S
S1503 N1505 1.610 . S
N1504 S1503 1.613 . S
N1504 C1507 1.350 . S
N1505 S1503 1.610 . S
N1505 C1506 1.351 1_545 S
C1506 C1500 1.428 . S
C1506 N1505 1.351 1_565 S
C1506 C1507 1.434 1_565 S
C1507 C1498 1.429 1_545 S
C1507 N1504 1.350 . S
C1507 C1506 1.434 1_545 S
C1508 C1509 1.369 . S
C1508 C1510 1.419 . S
C1508 H1512 0.930 . S
C1509 C1508 1.369 . S
C1509 C1518 1.429 . S
C1510 C1508 1.419 . S
C1510 C1511 1.363 . S
C1510 H1513 0.929 . S
C1511 C1510 1.363 . S
C1511 C1517 1.428 . S
H1512 C1508 0.930 . S
H1513 C1510 0.929 . S
S1514 N1515 1.613 . S
S1514 N1516 1.610 . S
N1515 S1514 1.613 . S
N1515 C1518 1.350 . S
N1516 S1514 1.610 . S
N1516 C1517 1.351 . S
C1517 C1511 1.428 . S
C1517 N1516 1.351 . S
C1517 C1518 1.434 . S
C1518 C1509 1.429 . S
C1518 N1515 1.350 . S
C1518 C1517 1.434 . S
C1519 C1520 1.369 . S
C1519 C1521 1.419 . S
C1519 H1523 0.930 . S
C1520 C1519 1.369 . S
C1520 C1529 1.429 . S
C1521 C1519 1.419 . S
C1521 C1522 1.363 . S
C1521 H1524 0.929 . S
C1522 C1521 1.363 . S
C1522 C1528 1.428 . S
H1523 C1519 0.930 . S
H1524 C1521 0.929 . S
S1525 N1526 1.613 . S
S1525 N1527 1.610 . S
N1526 S1525 1.613 . S
N1526 C1529 1.350 . S
N1527 S1525 1.610 . S
N1527 C1528 1.351 . S
C1528 C1522 1.428 . S
C1528 N1527 1.351 . S
C1528 C1529 1.434 . S
C1529 C1520 1.429 . S
C1529 N1526 1.350 . S
C1529 C1528 1.434 . S
C1530 C1531 1.369 . S
C1530 C1532 1.419 . S
C1530 H1534 0.930 . S
C1531 C1530 1.369 . S
C1531 C1540 1.429 . S
C1532 C1530 1.419 . S
C1532 C1533 1.363 . S
C1532 H1535 0.929 . S
C1533 C1532 1.363 . S
C1533 C1539 1.428 . S
H1534 C1530 0.930 . S
H1535 C1532 0.929 . S
S1536 N1537 1.606 1_556 S
S1536 N1538 1.610 . S
N1537 S1536 1.606 1_554 S
N1537 C1540 1.357 . S
N1538 S1536 1.610 . S
N1538 C1539 1.351 1_556 S
C1539 C1533 1.428 . S
C1539 N1538 1.351 1_554 S
C1539 C1540 1.434 . S
C1540 C1531 1.429 . S
C1540 N1537 1.357 . S
C1540 C1539 1.434 . S
C1541 C1542 1.369 . S
C1541 C1543 1.411 1_554 S
C1541 H1545 0.937 . S
C1542 C1541 1.369 . S
C1542 C1551 1.429 . S
C1543 C1541 1.411 1_556 S
C1543 C1544 1.354 1_556 S
C1543 H1546 0.947 . S
C1544 C1543 1.354 1_554 S
C1544 C1550 1.428 . S
H1545 C1541 0.937 . S
H1546 C1543 0.947 . S
S1547 N1548 1.613 . S
S1547 N1549 1.610 . S
N1548 S1547 1.613 . S
N1548 C1551 1.350 . S
N1549 S1547 1.610 . S
N1549 C1550 1.351 . S
C1550 C1544 1.428 . S
C1550 N1549 1.351 . S
C1550 C1551 1.434 . S
C1551 C1542 1.429 . S
C1551 N1548 1.350 . S
C1551 C1550 1.434 . S
C1552 C1553 1.369 . S
C1552 C1554 1.419 . S
C1552 H1556 0.930 . S
C1553 C1552 1.369 . S
C1553 C1562 1.429 . S
C1554 C1552 1.419 . S
C1554 C1555 1.363 . S
C1554 H1557 0.929 . S
C1555 C1554 1.363 . S
C1555 C1561 1.428 . S
H1556 C1552 0.930 . S
H1557 C1554 0.929 . S
S1558 N1559 1.613 . S
S1558 N1560 1.610 . S
N1559 S1558 1.613 . S
N1559 C1562 1.350 . S
N1560 S1558 1.610 . S
N1560 C1561 1.351 . S
C1561 C1555 1.428 . S
C1561 N1560 1.351 . S
C1561 C1562 1.434 . S
C1562 C1553 1.429 . S
C1562 N1559 1.350 . S
C1562 C1561 1.434 . S
C1563 C1564 1.369 1_554 S
C1563 C1565 1.419 . S
C1563 H1567 0.930 . S
C1564 C1563 1.369 1_556 S
C1564 C1573 1.429 . S
C1565 C1563 1.419 . S
C1565 C1566 1.363 1_554 S
C1565 H1568 0.929 . S
C1566 C1565 1.363 1_556 S
C1566 C1572 1.428 . S
H1567 C1563 0.930 . S
H1568 C1565 0.929 . S
S1569 N1570 1.613 . S
S1569 N1571 1.610 . S
N1570 S1569 1.613 . S
N1570 C1573 1.350 . S
N1571 S1569 1.610 . S
N1571 C1572 1.351 . S
C1572 C1566 1.428 . S
C1572 N1571 1.351 . S
C1572 C1573 1.434 . S
C1573 C1564 1.429 . S
C1573 N1570 1.350 . S
C1573 C1572 1.434 . S
C1574 C1575 1.369 . S
C1574 C1576 1.419 . S
C1574 H1578 0.930 . S
C1575 C1574 1.369 . S
C1575 C1584 1.429 . S
C1576 C1574 1.419 . S
C1576 C1577 1.363 . S
C1576 H1579 0.929 . S
C1577 C1576 1.363 . S
C1577 C1583 1.428 . S
H1578 C1574 0.930 . S
H1579 C1576 0.929 . S
S1580 N1581 1.613 . S
S1580 N1582 1.610 . S
N1581 S1580 1.613 . S
N1581 C1584 1.350 . S
N1582 S1580 1.610 . S
N1582 C1583 1.351 . S
C1583 C1577 1.428 . S
C1583 N1582 1.351 . S
C1583 C1584 1.434 . S
C1584 C1575 1.429 . S
C1584 N1581 1.350 . S
C1584 C1583 1.434 . S
C1585 C1586 1.369 . S
C1585 C1587 1.419 . S
C1585 H1589 0.930 . S
C1586 C1585 1.369 . S
C1586 C1595 1.429 . S
C1587 C1585 1.419 . S
C1587 C1588 1.363 . S
C1587 H1590 0.929 . S
C1588 C1587 1.363 . S
C1588 C1594 1.428 . S
H1589 C1585 0.930 . S
H1590 C1587 0.929 . S
S1591 N1592 1.613 . S
S1591 N1593 1.610 . S
N1592 S1591 1.613 . S
N1592 C1595 1.350 . S
N1593 S1591 1.610 . S
N1593 C1594 1.351 . S
C1594 C1588 1.428 . S
C1594 N1593 1.351 . S
C1594 C1595 1.434 . S
C1595 C1586 1.429 . S
C1595 N1592 1.350 . S
C1595 C1594 1.434 . S
C1596 C1597 1.369 . S
C1596 C1598 1.419 . S
C1596 H1600 0.930 . S
C1597 C1596 1.369 . S
C1597 C1606 1.429 . S
C1598 C1596 1.419 . S
C1598 C1599 1.363 . S
C1598 H1601 0.929 . S
C1599 C1598 1.363 . S
C1599 C1605 1.428 . S
H1600 C1596 0.930 . S
H1601 C1598 0.929 . S
S1602 N1603 1.613 . S
S1602 N1604 1.610 . S
N1603 S1602 1.613 . S
N1603 C1606 1.350 . S
N1604 S1602 1.610 . S
N1604 C1605 1.351 . S
C1605 C1599 1.428 . S
C1605 N1604 1.351 . S
C1605 C1606 1.434 . S
C1606 C1597 1.429 . S
C1606 N1603 1.350 . S
C1606 C1605 1.434 . S
C1607 C1608 1.369 1_556 S
C1607 C1609 1.419 . S
C1607 H1611 0.930 1_556 S
C1608 C1607 1.369 1_554 S
C1608 C1617 1.429 . S
C1609 C1607 1.419 . S
C1609 C1610 1.363 . S
C1609 H1612 0.929 . S
C1610 C1609 1.363 . S
C1610 C1616 1.428 . S
H1611 C1607 0.930 1_554 S
H1612 C1609 0.929 . S
S1613 N1614 1.613 . S
S1613 N1615 1.610 1_554 S
N1614 S1613 1.613 . S
N1614 C1617 1.350 . S
N1615 S1613 1.610 1_556 S
N1615 C1616 1.351 . S
C1616 C1610 1.428 . S
C1616 N1615 1.351 . S
C1616 C1617 1.434 1_556 S
C1617 C1608 1.429 . S
C1617 N1614 1.350 . S
C1617 C1616 1.434 1_554 S
C1618 C1619 1.369 . S
C1618 C1620 1.419 . S
C1618 H1622 0.930 . S
C1619 C1618 1.369 . S
C1619 C1628 1.429 . S
C1620 C1618 1.419 . S
C1620 C1621 1.363 . S
C1620 H1623 0.929 . S
C1621 C1620 1.363 . S
C1621 C1627 1.428 . S
H1622 C1618 0.930 . S
H1623 C1620 0.929 . S
S1624 N1625 1.613 . S
S1624 N1626 1.610 . S
N1625 S1624 1.613 . S
N1625 C1628 1.350 . S
N1626 S1624 1.610 . S
N1626 C1627 1.351 . S
C1627 C1621 1.428 . S
C1627 N1626 1.351 . S
C1627 C1628 1.434 . S
C1628 C1619 1.429 . S
C1628 N1625 1.350 . S
C1628 C1627 1.434 . S
C1629 C1630 1.369 . S
C1629 C1631 1.419 . S
C1629 H1633 0.930 . S
C1630 C1629 1.369 . S
C1630 C1639 1.429 . S
C1631 C1629 1.419 . S
C1631 C1632 1.363 . S
C1631 H1634 0.929 . S
C1632 C1631 1.363 . S
C1632 C1638 1.428 . S
H1633 C1629 0.930 . S
H1634 C1631 0.929 . S
S1635 N1636 1.613 . S
S1635 N1637 1.610 . S
N1636 S1635 1.613 . S
N1636 C1639 1.350 1_455 S
N1637 S1635 1.610 . S
N1637 C1638 1.351 1_455 S
C1638 C1632 1.428 . S
C1638 N1637 1.351 1_655 S
C1638 C1639 1.434 . S
C1639 C1630 1.429 . S
C1639 N1636 1.350 1_655 S
C1639 C1638 1.434 . S
C1640 C1641 1.369 . S
C1640 C1642 1.419 . S
C1640 H1644 0.930 . S
C1641 C1640 1.369 . S
C1641 C1650 1.429 . S
C1642 C1640 1.419 . S
C1642 C1643 1.363 . S
C1642 H1645 0.929 . S
C1643 C1642 1.363 . S
C1643 C1649 1.428 . S
H1644 C1640 0.930 . S
H1645 C1642 0.929 . S
S1646 N1647 1.613 . S
S1646 N1648 1.610 . S
N1647 S1646 1.613 . S
N1647 C1650 1.350 . S
N1648 S1646 1.610 . S
N1648 C1649 1.351 . S
C1649 C1643 1.428 . S
C1649 N1648 1.351 . S
C1649 C1650 1.434 . S
C1650 C1641 1.429 . S
C1650 N1647 1.350 . S
C1650 C1649 1.434 . S
C1651 C1652 1.369 . S
C1651 C1653 1.419 . S
C1651 H1655 0.930 . S
C1652 C1651 1.369 . S
C1652 C1661 1.429 . S
C1653 C1651 1.419 . S
C1653 C1654 1.363 . S
C1653 H1656 0.929 . S
C1654 C1653 1.363 . S
C1654 C1660 1.428 . S
H1655 C1651 0.930 . S
H1656 C1653 0.929 . S
S1657 N1658 1.613 . S
S1657 N1659 1.610 . S
N1658 S1657 1.613 . S
N1658 C1661 1.350 . S
N1659 S1657 1.610 . S
N1659 C1660 1.351 . S
C1660 C1654 1.428 . S
C1660 N1659 1.351 . S
C1660 C1661 1.434 . S
C1661 C1652 1.429 . S
C1661 N1658 1.350 . S
C1661 C1660 1.434 . S
C1662 C1663 1.369 . S
C1662 C1664 1.419 . S
C1662 H1666 0.930 . S
C1663 C1662 1.369 . S
C1663 C1672 1.429 . S
C1664 C1662 1.419 . S
C1664 C1665 1.363 . S
C1664 H1667 0.929 . S
C1665 C1664 1.363 . S
C1665 C1671 1.428 . S
H1666 C1662 0.930 . S
H1667 C1664 0.929 . S
S1668 N1669 1.613 . S
S1668 N1670 1.610 . S
N1669 S1668 1.613 . S
N1669 C1672 1.350 . S
N1670 S1668 1.610 . S
N1670 C1671 1.351 . S
C1671 C1665 1.428 . S
C1671 N1670 1.351 . S
C1671 C1672 1.434 . S
C1672 C1663 1.429 . S
C1672 N1669 1.350 . S
C1672 C1671 1.434 . S
C1673 C1674 1.369 . S
C1673 C1675 1.419 . S
C1673 H1677 0.930 . S
C1674 C1673 1.369 . S
C1674 C1683 1.429 1_565 S
C1675 C1673 1.419 . S
C1675 C1676 1.363 1_565 S
C1675 H1678 0.929 . S
C1676 C1675 1.363 1_545 S
C1676 C1682 1.428 . S
H1677 C1673 0.930 . S
H1678 C1675 0.929 . S
S1679 N1680 1.613 . S
S1679 N1681 1.610 . S
N1680 S1679 1.613 . S
N1680 C1683 1.350 . S
N1681 S1679 1.610 . S
N1681 C1682 1.351 . S
C1682 C1676 1.428 . S
C1682 N1681 1.351 . S
C1682 C1683 1.434 . S
C1683 C1674 1.429 1_545 S
C1683 N1680 1.350 . S
C1683 C1682 1.434 . S
C1684 C1685 1.369 . S
C1684 C1686 1.419 1_455 S
C1684 H1688 0.930 . S
C1685 C1684 1.369 . S
C1685 C1694 1.448 . S
C1686 C1684 1.419 1_655 S
C1686 C1687 1.363 . S
C1686 H1689 0.929 . S
C1687 C1686 1.363 . S
C1687 C1693 1.428 . S
H1688 C1684 0.930 . S
H1689 C1686 0.929 . S
S1690 N1691 1.613 . S
S1690 N1692 1.610 . S
N1691 S1690 1.613 . S
N1691 C1694 1.348 1_655 S
N1692 S1690 1.610 . S
N1692 C1693 1.351 . S
C1693 C1687 1.428 . S
C1693 N1692 1.351 . S
C1693 C1694 1.414 1_655 S
C1694 C1685 1.448 . S
C1694 N1691 1.348 1_455 S
C1694 C1693 1.414 1_455 S
C1695 C1696 1.369 . S
C1695 C1697 1.418 1_445 S
C1695 H1699 0.930 . S
C1696 C1695 1.369 . S
C1696 C1705 1.435 . S
C1697 C1695 1.418 1_665 S
C1697 C1698 1.364 . S
C1697 H1700 0.929 1_565 S
C1698 C1697 1.364 . S
C1698 C1704 1.428 . S
H1699 C1695 0.930 . S
H1700 C1697 0.929 1_545 S
S1701 N1702 1.613 1_565 S
S1701 N1703 1.610 1_455 S
N1702 S1701 1.613 1_545 S
N1702 C1705 1.350 . S
N1703 S1701 1.610 1_655 S
N1703 C1704 1.351 . S
C1704 C1698 1.428 . S
C1704 N1703 1.351 . S
C1704 C1705 1.428 1_665 S
C1705 C1696 1.435 . S
C1705 N1702 1.350 . S
C1705 C1704 1.428 1_445 S
C1706 C1707 1.363 1_554 S
C1706 C1708 1.424 . S
C1706 H1710 0.931 . S
C1707 C1706 1.363 1_556 S
C1707 C1716 1.429 . S
C1708 C1706 1.424 . S
C1708 C1709 1.363 . S
C1708 H1711 0.929 . S
C1709 C1708 1.363 . S
C1709 C1715 1.428 1_554 S
H1710 C1706 0.931 . S
H1711 C1708 0.929 . S
S1712 N1713 1.613 1_455 S
S1712 N1714 1.610 . S
N1713 S1712 1.613 1_655 S
N1713 C1716 1.350 . S
N1714 S1712 1.610 . S
N1714 C1715 1.351 1_455 S
C1715 C1709 1.428 1_556 S
C1715 N1714 1.351 1_655 S
C1715 C1716 1.434 . S
C1716 C1707 1.429 . S
C1716 N1713 1.350 . S
C1716 C1715 1.434 . S
C1717 C1718 1.369 . S
C1717 C1719 1.419 . S
C1717 H1721 0.930 . S
C1718 C1717 1.369 . S
C1718 C1727 1.429 . S
C1719 C1717 1.419 . S
C1719 C1720 1.363 . S
C1719 H1722 0.929 . S
C1720 C1719 1.363 . S
C1720 C1726 1.428 . S
H1721 C1717 0.930 . S
H1722 C1719 0.929 . S
S1723 N1724 1.613 . S
S1723 N1725 1.610 . S
N1724 S1723 1.613 . S
N1724 C1727 1.350 . S
N1725 S1723 1.610 . S
N1725 C1726 1.351 . S
C1726 C1720 1.428 . S
C1726 N1725 1.351 . S
C1726 C1727 1.434 . S
C1727 C1718 1.429 . S
C1727 N1724 1.350 . S
C1727 C1726 1.434 . S
C673 C385 1.315 . S
C675 C7 1.330 . S
C684 C21 0.797 . S
C686 C541 0.790 . S
C695 C35 1.027 . S
C697 C357 1.081 . S
C706 C569 1.366 . S
C708 C49 1.393 . S
C717 C399 0.976 . S
C719 C65 0.914 . S
C728 C77 1.327 . S
C730 C315 1.339 . S
C739 C427 1.165 . S
C741 C93 1.136 . S
C750 C105 1.086 . S
C752 C287 1.020 . S
C761 C499 1.134 . S
C763 C107 1.127 . S
C772 C469 0.610 . S
C774 C63 0.628 . S
C783 C79 0.875 . S
C785 C597 0.877 . S
C794 C483 0.925 . S
C796 C91 0.944 . S
C805 C121 0.968 . S
C807 C191 0.939 . S
C816 C203 0.753 . S
C818 C135 0.740 . S
C827 C219 1.006 . S
C829 C149 1.035 . S
C838 C175 1.012 . S
C840 C163 0.944 . S
C849 C189 0.930 . S
C851 C343 0.946 . S
C860 C205 0.627 . S
C862 C555 0.593 . S
C871 C371 0.621 . S
C873 C217 0.616 . S
C882 C387 0.886 . S
C884 C233 0.865 . S
C893 C245 1.016 . S
C895 C415 0.954 . S
C904 C261 0.656 . S
C906 C51 0.641 . S
C915 C275 1.358 . S
C917 C23 1.338 . S
C926 C625 1.378 . S
C928 C301 1.392 . S
C937 C653 0.795 . S
C939 C329 0.798 . S
C948 C345 1.128 . S
C950 C119 1.173 . S
C959 C373 0.928 . S
C961 C147 0.983 . S
C970 C359 1.138 . S
C972 C611 1.144 . S
C981 C471 1.013 . S
C983 C401 1.029 . S
C992 C485 0.955 . S
C994 C429 0.959 . S
C1003 C455 0.750 . S
C1005 C443 0.738 . S
C1014 C247 1.251 . S
C1016 C639 1.274 . S
C1025 C513 1.368 . S
C1027 C331 1.333 . S
C1036 C303 0.632 . S
C1038 C527 0.678 . S
C1047 C665 1.630 . S
C1049 C441 1.651 . S
C1058 C413 0.721 . S
C1060 C637 0.714 . S
C1069 C133 1.651 . S
C1071 C553 1.629 . S
C1080 C161 0.728 . S
C1082 C581 0.711 . S
C1091 C177 1.235 . S
C1093 C583 1.280 . S
C1102 C273 0.936 . S
C1104 C539 0.923 . S
C1113 C259 0.919 . S
C1115 C567 0.911 . S
C1124 C317 0.976 . S
C1126 C595 0.958 . S
C1135 C289 0.682 . S
C1137 C497 0.685 . S
C1146 C623 0.921 . S
C1148 C525 0.926 . S
C1157 C651 0.916 . S
C1159 C511 0.931 . S
C1168 C667 0.605 . S
C1170 C457 0.615 . S
C1179 C609 0.681 . S
C1181 C37 0.676 . S
C1190 C231 0.967 . S
C1192 C9 0.981 . S
C1201 C8 1.944 . S
C1203 C647 2.047 . S
C1212 C22 1.813 . S
C1214 C666 1.953 . S
C1223 C36 1.623 . S
C1225 C619 1.523 1_565 S
C1234 C50 2.107 . S
C1236 C638 2.036 . S
C1245 C59 1.833 . S
C1247 C134 1.661 . S
C1256 C78 1.779 . S
C1258 C148 1.570 . S
C1267 C87 1.775 . S
C1269 C162 1.925 . S
C1278 C106 2.008 . S
C1280 C120 2.290 . S
C1289 C101 2.280 . S
C1291 C549 2.071 . S
C1300 C64 1.759 . S
C1302 C372 1.752 . S
C1311 C73 1.494 . S
C1313 C577 1.619 . S
C1322 C92 2.012 . S
C1324 C344 2.008 . S
C1333 C115 1.301 . S
C1335 C325 1.408 . S
C1344 C129 2.300 . S
C1346 C437 2.306 . S
C1355 C143 1.901 . S
C1357 C297 1.638 . S
C1366 C409 1.513 . S
C1368 C157 1.507 . S
C1377 C176 2.194 . S
C1379 C274 2.184 . S
C1388 C190 1.592 . S
C1390 C232 1.590 . S
C1399 C269 1.848 . S
C1401 C199 1.964 . S
C1410 C610 2.321 . S
C1412 C218 2.300 . S
C1421 C213 2.040 . S
C1423 C227 2.182 . S
C1432 C512 2.186 . S
C1434 C246 2.197 . S
C1443 C171 1.751 . S
C1445 C255 1.839 . S
C1454 C563 1.520 1_545 S
C1456 C288 1.625 . S
C1465 C582 2.036 . S
C1467 C302 2.115 . S
C1476 C316 1.947 . S
C1478 C535 2.045 . S
C1487 C554 1.954 . S
C1489 C330 1.813 . S
C1498 C339 1.770 . S
C1500 C414 1.929 . S
C1509 C428 2.291 . S
C1511 C358 2.010 . S
C1520 C367 1.837 . S
C1522 C442 1.660 . S
C1531 C400 1.567 . S
C1533 C386 1.785 . S
C1542 C381 1.501 . S
C1544 C633 1.615 . S
C1553 C661 2.070 . S
C1555 C353 2.279 . S
C1564 C395 1.902 . S
C1566 C45 1.634 . S
C1575 C17 1.414 . S
C1577 C423 1.301 . S
C1586 C526 1.544 . S
C1588 C456 1.546 . S
C1597 C498 2.324 . S
C1599 C470 2.302 . S
C1608 C241 1.740 . S
C1610 C521 1.844 . S
C1619 C484 1.601 . S
C1621 C596 1.583 . S
C1630 C493 1.850 . S
C1632 C479 2.007 . S
C1641 C204 1.549 . S
C1643 C260 1.540 . S
C1652 C451 1.958 . S
C1654 C507 1.855 . S
C1663 C652 1.565 . S
C1665 C540 1.565 . S
C1674 C568 1.908 . S
C1676 C624 1.912 . S
C1685 C3 2.135 . S
C1687 C311 2.130 . S
C1696 C283 1.917 . S
C1698 C31 1.918 . S
C1707 C465 2.039 . S
C1709 C591 2.182 . S
C1718 C185 2.002 . S
C1720 C605 1.857 . S
