# Generated by pormake.
# Topology wkl, (6)-cn, num edge types: 1
# Building blocks:
#     Node 0, Type 0, BuildingBlock: IZENUY_clean_sbu_0, # of connection points: 6
#     Node 1, Type 0, BuildingBlock: IZENUY_clean_sbu_0, # of connection points: 6
#     Node 2, Type 0, BuildingBlock: IZENUY_clean_sbu_0, # of connection points: 6
#     Node 3, Type 0, BuildingBlock: IZENUY_clean_sbu_0, # of connection points: 6
#     Node 4, Type 0, BuildingBlock: IZENUY_clean_sbu_0, # of connection points: 6
#     Node 5, Type 0, BuildingBlock: IZENUY_clean_sbu_0, # of connection points: 6
#     Node 6, Type 0, BuildingBlock: IZENUY_clean_sbu_0, # of connection points: 6
#     Node 7, Type 0, BuildingBlock: IZENUY_clean_sbu_0, # of connection points: 6
#     Node 8, Type 0, BuildingBlock: IZENUY_clean_sbu_0, # of connection points: 6
#     Node 9, Type 0, BuildingBlock: IZENUY_clean_sbu_0, # of connection points: 6
#     Node 10, Type 0, BuildingBlock: IZENUY_clean_sbu_0, # of connection points: 6
#     Node 11, Type 0, BuildingBlock: IZENUY_clean_sbu_0, # of connection points: 6
#     Edge 12, Type (0, 0), BuildingBlock: OJICUG_clean_linker_0, # of connection points: 2
#     Edge 13, Type (0, 0), BuildingBlock: OJICUG_clean_linker_0, # of connection points: 2
#     Edge 14, Type (0, 0), BuildingBlock: OJICUG_clean_linker_0, # of connection points: 2
#     Edge 15, Type (0, 0), BuildingBlock: OJICUG_clean_linker_0, # of connection points: 2
#     Edge 16, Type (0, 0), BuildingBlock: OJICUG_clean_linker_0, # of connection points: 2
#     Edge 17, Type (0, 0), BuildingBlock: OJICUG_clean_linker_0, # of connection points: 2
#     Edge 18, Type (0, 0), BuildingBlock: OJICUG_clean_linker_0, # of connection points: 2
#     Edge 19, Type (0, 0), BuildingBlock: OJICUG_clean_linker_0, # of connection points: 2
#     Edge 20, Type (0, 0), BuildingBlock: OJICUG_clean_linker_0, # of connection points: 2
#     Edge 21, Type (0, 0), BuildingBlock: OJICUG_clean_linker_0, # of connection points: 2
#     Edge 22, Type (0, 0), BuildingBlock: OJICUG_clean_linker_0, # of connection points: 2
#     Edge 23, Type (0, 0), BuildingBlock: OJICUG_clean_linker_0, # of connection points: 2
#     Edge 24, Type (0, 0), BuildingBlock: OJICUG_clean_linker_0, # of connection points: 2
#     Edge 25, Type (0, 0), BuildingBlock: OJICUG_clean_linker_0, # of connection points: 2
#     Edge 26, Type (0, 0), BuildingBlock: OJICUG_clean_linker_0, # of connection points: 2
#     Edge 27, Type (0, 0), BuildingBlock: OJICUG_clean_linker_0, # of connection points: 2
#     Edge 28, Type (0, 0), BuildingBlock: OJICUG_clean_linker_0, # of connection points: 2
#     Edge 29, Type (0, 0), BuildingBlock: OJICUG_clean_linker_0, # of connection points: 2
#     Edge 30, Type (0, 0), BuildingBlock: OJICUG_clean_linker_0, # of connection points: 2
#     Edge 31, Type (0, 0), BuildingBlock: OJICUG_clean_linker_0, # of connection points: 2
#     Edge 32, Type (0, 0), BuildingBlock: OJICUG_clean_linker_0, # of connection points: 2
#     Edge 33, Type (0, 0), BuildingBlock: OJICUG_clean_linker_0, # of connection points: 2
#     Edge 34, Type (0, 0), BuildingBlock: OJICUG_clean_linker_0, # of connection points: 2
#     Edge 35, Type (0, 0), BuildingBlock: OJICUG_clean_linker_0, # of connection points: 2
#     Edge 36, Type (0, 0), BuildingBlock: OJICUG_clean_linker_0, # of connection points: 2
#     Edge 37, Type (0, 0), BuildingBlock: OJICUG_clean_linker_0, # of connection points: 2
#     Edge 38, Type (0, 0), BuildingBlock: OJICUG_clean_linker_0, # of connection points: 2
#     Edge 39, Type (0, 0), BuildingBlock: OJICUG_clean_linker_0, # of connection points: 2
#     Edge 40, Type (0, 0), BuildingBlock: OJICUG_clean_linker_0, # of connection points: 2
#     Edge 41, Type (0, 0), BuildingBlock: OJICUG_clean_linker_0, # of connection points: 2
#     Edge 42, Type (0, 0), BuildingBlock: OJICUG_clean_linker_0, # of connection points: 2
#     Edge 43, Type (0, 0), BuildingBlock: OJICUG_clean_linker_0, # of connection points: 2
#     Edge 44, Type (0, 0), BuildingBlock: OJICUG_clean_linker_0, # of connection points: 2
#     Edge 45, Type (0, 0), BuildingBlock: OJICUG_clean_linker_0, # of connection points: 2
#     Edge 46, Type (0, 0), BuildingBlock: OJICUG_clean_linker_0, # of connection points: 2
#     Edge 47, Type (0, 0), BuildingBlock: OJICUG_clean_linker_0, # of connection points: 2
# Relax obj value: 0.387
# Max RMSD: 0.287
# Mean RMSD: 0.287
data_MOF--net-wkl--node1-IZENUY_clean_sbu_0--edge1-OJICUG_clean_linker_0
_symmetry_space_group_name_H-M    P1
_symmetry_Int_Tables_number       1
_symmetry_cell_setting            triclinic
loop_
_symmetry_equiv_pos_as_xyz
'x, y, z'
_cell_length_a     53.246658
_cell_length_b     53.263699
_cell_length_c     10.943664
_cell_angle_alpha  89.957869
_cell_angle_beta   90.021823
_cell_angle_gamma 119.97861
loop_
_atom_site_label
_atom_site_type_symbol
_atom_site_fract_x
_atom_site_fract_y
_atom_site_fract_z
_atom_type_partial_charge
Fe0 Fe 0.48441 0.10811 0.14763 0.0
Fe1 Fe 0.50113 0.15881 0.97496 0.0
O2 O 0.47442 0.12932 0.06025 0.0
Fe3 Fe 0.43805 0.12155 0.06008 0.0
O4 O 0.43911 0.12776 0.22373 0.0
O5 O 0.4576 0.1002 0.2693 0.0
O6 O 0.50898 0.13954 0.23576 0.0
C7 C 0.53203 0.15931 0.18985 0.0
C8 C 0.4332 0.06583 0.05619 0.0
O9 O 0.53186 0.16638 0.07911 0.0
C10 C 0.45256 0.13363 0.81969 0.0
O11 O 0.51301 0.11188 0.04022 0.0
O12 O 0.50834 0.13486 0.88289 0.0
O13 O 0.42206 0.08163 0.07887 0.0
O14 O 0.46016 0.07607 0.06416 0.0
C15 C 0.47098 0.18312 0.06834 0.0
O16 O 0.47562 0.15605 0.85419 0.0
O17 O 0.4357 0.11524 0.89648 0.0
C18 C 0.51692 0.11864 0.92768 0.0
O19 O 0.49513 0.18408 0.06241 0.0
O20 O 0.44763 0.15994 0.0417 0.0
C21 C 0.44604 0.11491 0.30189 0.0
Fe22 Fe 0.32016 0.43614 0.22709 0.0
Fe23 Fe 0.37957 0.48313 0.31527 0.0
O24 O 0.34833 0.47267 0.22756 0.0
Fe25 Fe 0.3451 0.49913 0.14228 0.0
O26 O 0.31371 0.49267 0.22967 0.0
O27 O 0.2909 0.44517 0.20931 0.0
O28 O 0.31492 0.43696 0.39082 0.0
C29 C 0.33472 0.44418 0.46906 0.0
C30 C 0.32232 0.45066 0.98679 0.0
O31 O 0.36101 0.45614 0.43661 0.0
C32 C 0.40119 0.51553 0.09523 0.0
O33 O 0.34471 0.4208 0.2449 0.0
O34 O 0.38804 0.45941 0.23178 0.0
O35 O 0.32259 0.47353 1.02143 0.0
O36 O 0.32417 0.43396 0.06347 0.0
C37 C 0.37512 0.53021 0.35736 0.0
O38 O 0.4041 0.51192 0.208 0.0
O39 O 0.37636 0.50669 0.05033 0.0
C40 C 0.37172 0.43245 0.2221 0.0
O41 O 0.37202 0.50724 0.40333 0.0
O42 O 0.36794 0.52996 0.24645 0.0
C43 C 0.2907 0.46838 0.23541 0.0
Fe44 Fe 0.89923 0.37834 0.48363 0.0
Fe45 Fe 0.84859 0.34397 0.31131 0.0
O46 O 0.87824 0.34708 0.39646 0.0
Fe47 Fe 0.88641 0.31876 0.39623 0.0
O48 O 0.88035 0.31361 0.55998 0.0
O49 O 0.90751 0.35969 0.60522 0.0
O50 O 0.8677 0.37114 0.57205 0.0
C51 C 0.84775 0.37415 0.52619 0.0
C52 C 0.9418 0.37 0.39064 0.0
O53 O 0.84076 0.36693 0.4154 0.0
C54 C 0.87409 0.32097 0.1559 0.0
O55 O 0.89508 0.40291 0.37614 0.0
O56 O 0.87233 0.37514 0.219 0.0
O57 O 0.92631 0.34306 0.41399 0.0
O58 O 0.93132 0.38649 0.3998 0.0
C59 C 0.82478 0.28963 0.40521 0.0
O60 O 0.85155 0.32135 0.19061 0.0
O61 O 0.8926 0.3227 0.23256 0.0
C62 C 0.88842 0.39997 0.26353 0.0
O63 O 0.82357 0.31267 0.39905 0.0
O64 O 0.8481 0.28968 0.37866 0.0
C65 C 0.89303 0.33343 0.63801 0.0
Fe66 Fe 0.57052 0.88474 0.56451 0.0
Fe67 Fe 0.52387 0.89773 0.6525 0.0
O68 O 0.5341 0.87683 0.56449 0.0
Fe69 Fe 0.50752 0.84738 0.47856 0.0
O70 O 0.51358 0.8221 0.5659 0.0
O71 O 0.56109 0.84643 0.54526 0.0
O72 O 0.56943 0.87829 0.72804 0.0
C73 C 0.56236 0.89093 0.80662 0.0
C74 C 0.55624 0.87285 0.32412 0.0
O75 O 0.55042 0.90534 0.77492 0.0
C76 C 0.49163 0.8875 0.43156 0.0
O77 O 0.58638 0.92456 0.58478 0.0
O78 O 0.54826 0.93014 0.57134 0.0
O79 O 0.53319 0.85037 0.35829 0.0
O80 O 0.57293 0.8913 0.40107 0.0
C81 C 0.47626 0.84637 0.69278 0.0
O82 O 0.49546 0.89415 0.54422 0.0
O83 O 0.5003 0.87137 0.38666 0.0
C84 C 0.5753 0.94063 0.56761 0.0
O85 O 0.49925 0.86603 0.73925 0.0
O86 O 0.47658 0.83954 0.58189 0.0
C87 C 0.5378 0.82317 0.57181 0.0
Fe88 Fe 0.66309 0.50668 0.64507 0.0
Fe89 Fe 0.68726 0.56851 0.74157 0.0
O90 O 0.65928 0.53177 0.73759 0.0
Fe91 Fe 0.62755 0.51996 0.82485 0.0
O92 O 0.63368 0.4938 0.90614 0.0
O93 O 0.6405 0.4748 0.74163 0.0
O94 O 0.69433 0.51232 0.73183 0.0
C95 C 0.71715 0.53665 0.74247 0.0
C96 C 0.60686 0.49022 0.59868 0.0
O97 O 0.71679 0.55998 0.72092 0.0
C98 C 0.63565 0.57215 0.74707 0.0
O99 O 0.68596 0.53352 0.52982 0.0
O100 O 0.68344 0.57213 0.57836 0.0
O101 O 0.60353 0.49275 0.71204 0.0
O102 O 0.63189 0.4999 0.55397 0.0
C103 C 0.67232 0.55855 0.98296 0.0
O104 O 0.66278 0.58354 0.76429 0.0
O105 O 0.61942 0.54505 0.74962 0.0
C106 C 0.6861 0.55646 0.49908 0.0
O107 O 0.69224 0.56662 0.9046 0.0
O108 O 0.64587 0.54517 0.95191 0.0
C109 C 0.633 0.47255 0.85268 0.0
Fe110 Fe 0.12198 0.6857 0.90813 0.0
Fe111 Fe 0.11043 0.62562 0.987 0.0
O112 O 0.13092 0.65783 0.9035 0.0
Fe113 Fe 0.16047 0.66231 0.81372 0.0
O114 O 0.18531 0.69308 0.90422 0.0
O115 O 0.16008 0.71543 0.89005 0.0
O116 O 0.12833 0.69005 0.07148 0.0
C117 C 0.11646 0.66981 0.14857 0.0
C118 C 0.1337 0.68501 0.66612 0.0
O119 O 0.10309 0.64347 0.11532 0.0
C120 C 0.12114 0.60646 0.7599 0.0
O121 O 0.08233 0.66114 0.9285 0.0
O122 O 0.07783 0.61812 0.90851 0.0
O123 O 0.15676 0.68554 0.69896 0.0
O124 O 0.11512 0.68227 0.7444 0.0
C125 C 0.16316 0.63084 1.01963 0.0
O126 O 0.11413 0.60221 0.87211 0.0
O127 O 0.13702 0.63173 0.71905 0.0
C128 C 0.06686 0.63425 0.90587 0.0
O129 O 0.14209 0.63098 0.07109 0.0
O130 O 0.16934 0.63926 0.90985 0.0
C131 C 0.18369 0.71583 0.91409 0.0
Fe132 Fe 0.88637 0.56915 0.84338 0.0
Fe133 Fe 0.89839 0.52192 0.75487 0.0
O134 O 0.87789 0.53257 0.84308 0.0
Fe135 Fe 0.84827 0.5062 0.92891 0.0
O136 O 0.82333 0.51263 0.84139 0.0
O137 O 0.84807 0.56016 0.86148 0.0
O138 O 0.88019 0.56835 0.67975 0.0
C139 C 0.89258 0.561 0.60118 0.0
C140 C 0.87409 0.55478 0.08367 0.0
O141 O 0.90665 0.54872 0.63298 0.0
C142 C 0.88795 0.48978 0.97574 0.0
O143 O 0.92629 0.58443 0.82469 0.0
O144 O 0.93077 0.54567 0.83679 0.0
O145 O 0.85146 0.53193 0.04922 0.0
O146 O 0.89269 0.57135 1.00691 0.0
C147 C 0.84686 0.47482 0.71445 0.0
O148 O 0.89429 0.49327 0.86277 0.0
O149 O 0.87203 0.49869 1.02084 0.0
C150 C 0.94178 0.57272 0.84333 0.0
O151 O 0.86651 0.49782 0.66794 0.0
O152 O 0.84013 0.47518 0.82551 0.0
C153 C 0.82465 0.53695 0.83523 0.0
Fe154 Fe 0.31966 0.88502 1.01243 0.0
Fe155 Fe 0.37926 0.8979 0.9244 0.0
O156 O 0.34814 0.87706 1.01253 0.0
Fe157 Fe 0.34523 0.8476 0.09869 0.0
O158 O 0.31389 0.82236 1.01158 0.0
O159 O 0.29073 0.84671 0.03203 0.0
O160 O 0.31428 0.87855 0.84896 0.0
C161 C 0.33399 0.89117 0.77031 0.0
C162 C 0.32204 0.87315 0.25291 0.0
O163 O 0.36034 0.90555 0.80195 0.0
C164 C 0.40126 0.88765 0.14535 0.0
O165 O 0.34367 0.92486 0.99176 0.0
O166 O 0.38732 0.93032 1.00544 0.0
O167 O 0.32259 0.85066 0.21893 0.0
O168 O 0.32383 0.89161 0.17583 0.0
C169 C 0.37543 0.8465 0.88444 0.0
O170 O 0.40408 0.89429 0.03263 0.0
O171 O 0.37646 0.87157 0.19039 0.0
C172 C 0.37083 0.9409 1.00877 0.0
O173 O 0.37214 0.86619 0.83783 0.0
O174 O 0.36829 0.8397 0.99539 0.0
C175 C 0.29074 0.82342 1.0059 0.0
Fe176 Fe 0.43951 0.32027 0.16382 0.0
Fe177 Fe 0.48787 0.38006 0.08056 0.0
O178 O 0.4762 0.34835 0.16787 0.0
Fe179 Fe 0.50138 0.34467 0.26057 0.0
O180 O 0.49591 0.3135 0.17391 0.0
O181 O 0.44824 0.29089 0.18473 0.0
O182 O 0.44144 0.31531 1.00083 0.0
C183 C 0.44943 0.33521 0.9224 0.0
C184 C 0.45157 0.32148 0.40637 0.0
O185 O 0.46271 0.36166 0.95337 0.0
C186 C 0.51758 0.40082 0.30685 0.0
O187 O 0.42428 0.34456 0.14077 0.0
O188 O 0.46262 0.38802 0.15548 0.0
O189 O 0.47458 0.32172 0.37576 0.0
O190 O 0.43585 0.32406 0.32698 0.0
C191 C 0.53547 0.37489 0.05309 0.0
O192 O 0.51501 0.40415 0.19348 0.0
O193 O 0.508 0.37581 0.35158 0.0
C194 C 0.43553 0.37166 0.15781 0.0
O195 O 0.51417 0.37413 0.99951 0.0
O196 O 0.53325 0.36737 0.16414 0.0
C197 C 0.47162 0.29065 0.16313 0.0
Fe198 Fe 0.12179 0.43697 0.33132 0.0
Fe199 Fe 0.11005 0.48545 0.25263 0.0
O200 O 0.13053 0.47372 0.33638 0.0
Fe201 Fe 0.15999 0.49873 0.42674 0.0
O202 O 0.18498 0.49297 0.33629 0.0
O203 O 0.15988 0.44542 0.35019 0.0
O204 O 0.12832 0.43913 0.16807 0.0
C205 C 0.11646 0.44749 0.09079 0.0
C206 C 0.13327 0.44915 0.57346 0.0
O207 O 0.10311 0.46054 0.12365 0.0
C208 C 0.12054 0.51512 0.48044 0.0
O209 O 0.08222 0.4218 0.30976 0.0
O210 O 0.0772 0.46007 0.32921 0.0
O211 O 0.15629 0.47171 0.54099 0.0
O212 O 0.11472 0.43338 0.49492 0.0
C213 C 0.1628 0.53311 0.22166 0.0
O214 O 0.11346 0.51233 0.36826 0.0
O215 O 0.13639 0.50567 0.52126 0.0
C216 C 0.06642 0.433 0.32917 0.0
O217 O 0.1418 0.51197 0.16969 0.0
O218 O 0.16888 0.53075 0.33141 0.0
C219 C 0.18346 0.46864 0.32632 0.0
Fe220 Fe 0.68887 0.12092 0.50974 0.0
Fe221 Fe 0.62911 0.10763 0.42237 0.0
O222 O 0.66034 0.12881 0.50951 0.0
Fe223 Fe 0.66323 0.15837 0.59451 0.0
O224 O 0.69455 0.18354 0.50696 0.0
O225 O 0.71775 0.15924 0.52786 0.0
O226 O 0.69401 0.1271 0.34604 0.0
C227 C 0.6742 0.11428 0.26802 0.0
C228 C 0.68647 0.13305 0.75006 0.0
O229 O 0.64794 0.0996 0.30082 0.0
C230 C 0.60722 0.11836 0.64208 0.0
O231 O 0.66486 0.08105 0.49131 0.0
O232 O 0.62125 0.07561 0.50633 0.0
O233 O 0.6859 0.15551 0.71541 0.0
O234 O 0.6849 0.11463 0.67339 0.0
C235 C 0.63289 0.15893 0.37949 0.0
O236 O 0.60435 0.11155 0.52964 0.0
O237 O 0.63205 0.13452 0.68673 0.0
C238 C 0.63795 0.06534 0.51468 0.0
O239 O 0.63603 0.13906 0.33382 0.0
O240 O 0.64017 0.16603 0.49016 0.0
C241 C 0.71768 0.18247 0.50107 0.0
Fe242 Fe 0.57027 0.68672 0.67526 0.0
Fe243 Fe 0.52341 0.62724 0.58737 0.0
O244 O 0.53377 0.65847 0.67484 0.0
Fe245 Fe 0.50724 0.66161 0.75997 0.0
O246 O 0.51355 0.69292 0.67226 0.0
O247 O 0.56108 0.71586 0.69262 0.0
O248 O 0.56943 0.69192 0.51149 0.0
C249 C 0.56225 0.67213 0.43335 0.0
C250 C 0.55574 0.68456 0.9155 0.0
O251 O 0.55035 0.64585 0.46592 0.0
C252 C 0.49107 0.6056 0.80753 0.0
O253 O 0.58577 0.66231 0.6578 0.0
O254 O 0.54725 0.61892 0.67096 0.0
O255 O 0.53283 0.68421 0.8807 0.0
O256 O 0.57247 0.68276 0.83893 0.0
C257 C 0.47617 0.63146 0.54508 0.0
O258 O 0.49469 0.60269 0.69481 0.0
O259 O 0.49982 0.63042 0.85222 0.0
C260 C 0.57421 0.63532 0.68063 0.0
O261 O 0.49918 0.63465 0.49917 0.0
O262 O 0.47642 0.63865 0.65593 0.0
C263 C 0.53782 0.71595 0.66614 0.0
C264 C 0.43643 0.10017 0.6412 0.0
C265 C 0.44649 0.12817 0.68785 0.0
H266 H 0.42883 0.07408 0.4811 0.0
C267 C 0.45351 0.15113 0.60636 0.0
H268 H 0.43121 0.08218 0.70223 0.0
C269 C 0.45121 0.14628 0.48008 0.0
C270 C 0.44287 0.11862 0.43346 0.0
H271 H 0.46143 0.17291 0.64028 0.0
H272 H 0.45767 0.1645 0.41889 0.0
C273 C 0.43513 0.09554 0.51501 0.0
C274 C 0.30575 0.45147 0.77333 0.0
C275 C 0.32182 0.44465 0.85494 0.0
H276 H 0.29644 0.45544 0.58577 0.0
C277 C 0.33994 0.43477 0.80844 0.0
H278 H 0.29173 0.45923 0.80712 0.0
C279 C 0.3433 0.43345 0.68228 0.0
C280 C 0.3278 0.44097 0.60061 0.0
H281 H 0.35282 0.4297 0.86955 0.0
H282 H 0.3586 0.42731 0.64849 0.0
C283 C 0.30833 0.44914 0.64708 0.0
C284 C 0.9123 0.34201 0.8513 0.0
C285 C 0.88929 0.32655 0.76964 0.0
H286 H 0.92555 0.35145 0.03858 0.0
C287 C 0.86164 0.3071 0.81615 0.0
H288 H 0.93375 0.35728 0.8175 0.0
C289 C 0.85673 0.30449 0.94241 0.0
C290 C 0.87962 0.32051 0.02402 0.0
H291 H 0.84347 0.29524 0.75486 0.0
H292 H 0.83495 0.29049 0.97621 0.0
C293 C 0.90761 0.33862 0.97748 0.0
C294 C 0.5726 0.90617 0.14508 0.0
C295 C 0.56249 0.87821 0.19242 0.0
H296 H 0.58008 0.93205 0.98428 0.0
C297 C 0.55545 0.85516 0.1116 0.0
H298 H 0.57786 0.92423 0.2056 0.0
C299 C 0.55765 0.85983 0.98522 0.0
C300 C 0.56593 0.88742 0.93793 0.0
H301 H 0.54751 0.8334 0.14611 0.0
H302 H 0.5511 0.84153 0.92452 0.0
C303 C 0.57382 0.91063 1.01879 0.0
C304 C 0.66251 0.5695 0.19352 0.0
C305 C 0.67956 0.56357 0.11381 0.0
H306 H 0.65218 0.57305 0.37984 0.0
C307 C 0.70143 0.55906 0.16202 0.0
H308 H 0.64549 0.573 0.15821 0.0
C309 C 0.7047 0.5583 0.28847 0.0
C310 C 0.68685 0.56307 0.36822 0.0
H311 H 0.71466 0.55418 0.10229 0.0
H312 H 0.72041 0.55291 0.32406 0.0
C313 C 0.66646 0.56973 0.3199 0.0
C314 C 0.10062 0.66407 0.48761 0.0
C315 C 0.12772 0.68481 0.53454 0.0
H316 H 0.07595 0.64261 0.32733 0.0
C317 C 0.15009 0.70236 0.4533 0.0
H318 H 0.08319 0.64998 0.54864 0.0
C319 C 0.14569 0.69872 0.32703 0.0
C320 C 0.1192 0.67673 0.28017 0.0
H321 H 0.17123 0.71832 0.48757 0.0
H322 H 0.16358 0.71193 0.26628 0.0
C323 C 0.09655 0.65972 0.36137 0.0
C324 C 0.90751 0.57084 0.26235 0.0
C325 C 0.87954 0.56091 0.21544 0.0
H326 H 0.93351 0.57824 0.42271 0.0
C327 C 0.85659 0.55405 0.29667 0.0
H328 H 0.92551 0.57594 0.20154 0.0
C329 C 0.86139 0.55632 0.42298 0.0
C330 C 0.88899 0.56447 0.46983 0.0
H331 H 0.83482 0.54625 0.26254 0.0
H332 H 0.84315 0.54994 0.48401 0.0
C333 C 0.91209 0.57211 0.38856 0.0
C334 C 0.30758 0.86012 0.59183 0.0
C335 C 0.32691 0.88769 0.63903 0.0
H336 H 0.29127 0.83372 0.43103 0.0
C337 C 0.34227 0.91091 0.55809 0.0
H338 H 0.29581 0.84181 0.6526 0.0
C339 C 0.33901 0.90646 0.43182 0.0
C340 C 0.32115 0.87852 0.38457 0.0
H341 H 0.35744 0.9323 0.59254 0.0
H342 H 0.35185 0.92452 0.37125 0.0
C343 C 0.30511 0.85546 0.46547 0.0
C344 C 0.4384 0.34495 0.71173 0.0
C345 C 0.44442 0.32796 0.79157 0.0
H346 H 0.4348 0.35524 0.52535 0.0
C347 C 0.44902 0.30616 0.74349 0.0
H348 H 0.43483 0.36192 0.74694 0.0
C349 C 0.44979 0.3029 0.61706 0.0
C350 C 0.44494 0.32069 0.5372 0.0
H351 H 0.45396 0.29298 0.80331 0.0
H352 H 0.45525 0.28724 0.58158 0.0
C353 C 0.43819 0.34101 0.58538 0.0
C354 C 0.14547 0.44747 0.91218 0.0
C355 C 0.11905 0.44311 0.95933 0.0
H356 H 0.17085 0.45319 0.75133 0.0
C357 C 0.09632 0.4374 0.87845 0.0
H358 H 0.16341 0.45216 0.97271 0.0
C359 C 0.10026 0.43699 0.75219 0.0
C360 C 0.12731 0.44326 0.70494 0.0
H361 H 0.07577 0.43401 0.91275 0.0
H362 H 0.08279 0.43366 0.69138 0.0
C363 C 0.14974 0.44807 0.78588 0.0
C364 C 0.703 0.15049 0.96336 0.0
C365 C 0.68702 0.12757 0.88195 0.0
H366 H 0.71225 0.16384 0.15078 0.0
C367 C 0.66901 0.09958 0.9287 0.0
H368 H 0.71693 0.17227 0.92937 0.0
C369 C 0.66566 0.09494 0.05492 0.0
C370 C 0.68106 0.118 0.13639 0.0
H371 H 0.65621 0.08161 0.86773 0.0
H372 H 0.65045 0.07349 0.08889 0.0
C373 C 0.70044 0.14564 0.08966 0.0
C374 C 0.55722 0.69849 0.2552 0.0
C375 C 0.56543 0.67904 0.30177 0.0
H376 H 0.54711 0.71508 0.09508 0.0
C377 C 0.57297 0.66357 0.22016 0.0
H378 H 0.55091 0.71035 0.31646 0.0
C379 C 0.57165 0.66694 0.09399 0.0
C380 C 0.56174 0.68504 0.04739 0.0
H381 H 0.57914 0.6483 0.25402 0.0
H382 H 0.57674 0.65409 0.03293 0.0
C383 C 0.5549 0.70108 0.12893 0.0
C384 C 0.3854 0.01808 0.06125 0.0
C385 C 0.41522 0.03418 0.03368 0.0
H386 H 0.34753 0.9755 0.0753 0.0
C387 C 0.42911 0.01939 0.99075 0.0
H388 H 0.37406 0.02887 0.09424 0.0
C389 C 0.4143 0.98942 0.98153 0.0
C390 C 0.38488 0.97298 1.01371 0.0
H391 H 0.45188 0.03096 0.96637 0.0
H392 H 0.42623 0.97911 0.94978 0.0
C393 C 0.37027 0.9876 0.05087 0.0
C394 C 0.38805 0.37031 0.20267 0.0
C395 C 0.41741 0.38555 0.16714 0.0
H396 H 0.35014 0.37312 0.24877 0.0
C397 C 0.43027 0.41528 0.14164 0.0
H398 H 0.3775 0.34732 0.22225 0.0
C399 C 0.41481 0.42972 0.15528 0.0
C400 C 0.38592 0.41508 0.19619 0.0
H401 H 0.45262 0.4277 0.1117 0.0
H402 H 0.42592 0.45274 0.13567 0.0
C403 C 0.3724 0.38502 0.21752 0.0
C404 C 0.01769 0.42792 0.30938 0.0
C405 C 0.03439 0.41498 0.33725 0.0
H406 H 0.97598 0.42381 0.30105 0.0
C407 C 0.02011 0.38573 0.37415 0.0
H408 H 0.02777 0.45019 0.27818 0.0
C409 C 0.98972 0.37029 0.38836 0.0
C410 C 0.97335 0.38392 0.36495 0.0
H411 H 0.03243 0.37514 0.39552 0.0
H412 H 0.97923 0.34813 0.42093 0.0
C413 C 0.98777 0.41266 0.32236 0.0
C414 C 0.62241 0.98708 0.52154 0.0
C415 C 0.59341 0.97267 0.56178 0.0
H416 H 0.65969 0.02815 0.47421 0.0
C417 C 0.58073 0.98927 0.59573 0.0
H418 H 0.6328 0.97483 0.49563 0.0
C419 C 0.59593 0.01922 0.585 0.0
C420 C 0.62433 0.03378 0.53885 0.0
H421 H 0.5587 0.9791 0.6299 0.0
H422 H 0.58497 0.03095 0.61071 0.0
C423 C 0.63778 0.01752 0.50971 0.0
C424 C 0.63673 0.61953 0.7027 0.0
C425 C 0.62157 0.59009 0.73697 0.0
H426 H 0.63372 0.65736 0.65719 0.0
C427 C 0.59172 0.57695 0.76045 0.0
H428 H 0.6598 0.6303 0.68468 0.0
C429 C 0.57711 0.59224 0.74621 0.0
C430 C 0.59169 0.62123 0.70672 0.0
H431 H 0.57932 0.55452 0.78929 0.0
H432 H 0.55402 0.58091 0.76433 0.0
C433 C 0.62185 0.63501 0.68728 0.0
C434 C 0.01954 0.63521 0.89037 0.0
C435 C 0.03498 0.62007 0.88708 0.0
H436 H 0.97766 0.63226 0.87892 0.0
C437 C 0.01944 0.58999 0.86785 0.0
H438 H 0.03087 0.65842 0.90489 0.0
C439 C 0.98957 0.57529 0.8544 0.0
C440 C 0.97382 0.59 0.85844 0.0
H441 H 0.03028 0.57737 0.86393 0.0
H442 H 0.97889 0.55207 0.84039 0.0
C443 C 0.98913 0.62027 0.87572 0.0
C444 C 0.53575 0.11267 0.72679 0.0
C445 C 0.53725 0.11336 0.85507 0.0
H446 H 0.5564 0.11287 0.55857 0.0
C447 C 0.56029 0.11224 0.91254 0.0
H448 H 0.51818 0.11343 0.68018 0.0
C449 C 0.58247 0.11253 0.84299 0.0
C450 C 0.58166 0.11321 0.71471 0.0
H451 H 0.5621 0.11288 1.01121 0.0
H452 H 0.60076 0.1132 0.88959 0.0
C453 C 0.55757 0.11223 0.65724 0.0
C454 C 0.4508 0.55894 0.07909 0.0
C455 C 0.42668 0.5358 1.02219 0.0
H456 H 0.49013 0.59946 0.05501 0.0
C457 C 0.42576 0.5341 0.89398 0.0
H458 H 0.45204 0.56088 0.17771 0.0
C459 C 0.44785 0.55589 0.82384 0.0
C460 C 0.47088 0.5801 0.88071 0.0
H461 H 0.40745 0.51642 0.8479 0.0
H462 H 0.44595 0.55459 0.72521 0.0
C463 C 0.47253 0.58108 1.00893 0.0
C464 C 0.8944 0.44651 0.99198 0.0
C465 C 0.89329 0.46958 0.04886 0.0
H466 H 0.89351 0.40612 1.01605 0.0
C467 C 0.89413 0.4713 0.17707 0.0
H468 H 0.89369 0.44456 0.89336 0.0
C469 C 0.89462 0.44959 0.24722 0.0
C470 C 0.89358 0.42544 0.19036 0.0
H471 H 0.89341 0.48893 0.22317 0.0
H472 H 0.89406 0.4509 0.34586 0.0
C473 C 0.8942 0.42446 0.06213 0.0
C474 C 0.44826 0.89391 0.41605 0.0
C475 C 0.4713 0.89279 0.35875 0.0
H476 H 0.40777 0.89291 0.39288 0.0
C477 C 0.47279 0.89345 0.23045 0.0
H478 H 0.44644 0.89328 0.51472 0.0
C479 C 0.45096 0.89386 0.16075 0.0
C480 C 0.42686 0.89287 0.21807 0.0
H481 H 0.49036 0.89268 0.18394 0.0
H482 H 0.45213 0.89319 0.0621 0.0
C483 C 0.42606 0.89359 0.34636 0.0
C484 C 0.55736 0.44684 0.58021 0.0
C485 C 0.58162 0.47009 0.52428 0.0
H486 H 0.51803 0.40641 0.55466 0.0
C487 C 0.58283 0.47202 0.39622 0.0
H488 H 0.55589 0.44471 0.67879 0.0
C489 C 0.56086 0.45038 0.3253 0.0
C490 C 0.53765 0.42608 0.38123 0.0
H491 H 0.60124 0.48976 0.35086 0.0
H492 H 0.56298 0.45186 0.22672 0.0
C493 C 0.53574 0.42485 0.50929 0.0
C494 C 0.09303 0.53601 0.58503 0.0
C495 C 0.11934 0.5377 0.55243 0.0
H496 H 0.07284 0.55661 0.68145 0.0
C497 C 0.14561 0.56186 0.58764 0.0
H498 H 0.07257 0.51745 0.55832 0.0
C499 C 0.14577 0.58432 0.65259 0.0
C500 C 0.11966 0.5826 0.68766 0.0
H501 H 0.16614 0.56359 0.56311 0.0
H502 H 0.16641 0.60293 0.67728 0.0
C503 C 0.09319 0.55822 0.65483 0.0
C504 C 0.49688 0.23652 0.10828 0.0
C505 C 0.47063 0.21034 0.09347 0.0
H506 H 0.51778 0.28205 0.14062 0.0
C507 C 0.44444 0.21073 0.10167 0.0
H508 H 0.5175 0.23716 0.10255 0.0
C509 C 0.4446 0.23674 0.12413 0.0
C510 C 0.47095 0.2629 0.13846 0.0
H511 H 0.42383 0.19096 0.0908 0.0
H512 H 0.4241 0.23634 0.13001 0.0
C513 C 0.49704 0.2624 0.13001 0.0
C514 C 0.23702 0.49406 0.29191 0.0
C515 C 0.21053 0.46793 0.30179 0.0
H516 H 0.28269 0.51467 0.26467 0.0
C517 C 0.21052 0.44162 0.28984 0.0
H518 H 0.23797 0.51478 0.30066 0.0
C519 C 0.23649 0.44155 0.26849 0.0
C520 C 0.26295 0.46779 0.2592 0.0
H521 H 0.1905 0.4211 0.29693 0.0
H522 H 0.23582 0.42098 0.25952 0.0
C523 C 0.26281 0.494 0.27142 0.0
C524 C 0.77169 0.2097 0.46456 0.0
C525 C 0.74531 0.2096 0.47587 0.0
H526 H 0.81756 0.23501 0.43331 0.0
C527 C 0.74549 0.23597 0.46403 0.0
H528 H 0.77233 0.18976 0.47307 0.0
C529 C 0.77127 0.26175 0.44211 0.0
C530 C 0.79767 0.26196 0.43038 0.0
H531 H 0.72565 0.23682 0.47228 0.0
H532 H 0.77038 0.28156 0.43379 0.0
C533 C 0.79761 0.23562 0.44176 0.0
C534 C 0.51215 0.76964 0.608 0.0
C535 C 0.53833 0.79602 0.59652 0.0
H536 H 0.49148 0.72403 0.6376 0.0
C537 C 0.56462 0.79593 0.60776 0.0
H538 H 0.49146 0.76878 0.59979 0.0
C539 C 0.56464 0.77 0.63017 0.0
C540 C 0.53837 0.74363 0.64123 0.0
H541 H 0.58518 0.81588 0.59952 0.0
H542 H 0.5852 0.77061 0.63861 0.0
C543 C 0.51217 0.74384 0.62953 0.0
C544 C 0.77126 0.51134 0.79607 0.0
C545 C 0.79751 0.53754 0.81059 0.0
H546 H 0.72571 0.49053 0.7645 0.0
C547 C 0.7972 0.56376 0.80269 0.0
H548 H 0.77053 0.49068 0.80156 0.0
C549 C 0.77117 0.56367 0.78074 0.0
C550 C 0.74495 0.53735 0.7667 0.0
H551 H 0.81703 0.58433 0.8134 0.0
H552 H 0.7716 0.58418 0.77502 0.0
C553 C 0.7454 0.51124 0.7749 0.0
C554 C 0.23724 0.74402 0.94934 0.0
C555 C 0.21072 0.74362 0.93896 0.0
H556 H 0.28291 0.76916 0.97721 0.0
C557 C 0.21064 0.76989 0.95075 0.0
H558 H 0.23826 0.72429 0.94075 0.0
C559 C 0.23656 0.79592 0.97236 0.0
C560 C 0.26306 0.7962 0.9821 0.0
H561 H 0.1906 0.77036 0.94329 0.0
H562 H 0.23583 0.8158 0.98112 0.0
C563 C 0.263 0.7699 0.9701 0.0
C564 C 0.55832 0.13543 0.26384 0.0
C565 C 0.55885 0.16153 0.23959 0.0
H566 H 0.58121 0.11454 0.32172 0.0
C567 C 0.58462 0.18791 0.26051 0.0
H568 H 0.53893 0.1147 0.24849 0.0
C569 C 0.60925 0.18782 0.30813 0.0
C570 C 0.60841 0.16135 0.32963 0.0
H571 H 0.58552 0.20832 0.24204 0.0
H572 H 0.62886 0.20816 0.32616 0.0
C573 C 0.58272 0.13533 0.30591 0.0
C574 C 0.42531 0.55674 0.43087 0.0
C575 C 0.39964 0.55711 0.40682 0.0
H576 H 0.46913 0.57985 0.48763 0.0
C577 C 0.39888 0.58282 0.42746 0.0
H578 H 0.42677 0.53741 0.41585 0.0
C579 C 0.42356 0.60755 0.47457 0.0
C580 C 0.4493 0.60687 0.49575 0.0
H581 H 0.3793 0.5836 0.40915 0.0
H582 H 0.42271 0.6271 0.49242 0.0
C583 C 0.44976 0.58124 0.47224 0.0
C584 C 0.87115 0.42438 0.59853 0.0
C585 C 0.8452 0.39855 0.57586 0.0
H586 H 0.89162 0.46823 0.65445 0.0
C587 C 0.81865 0.39751 0.59821 0.0
H588 H 0.89199 0.42604 0.58219 0.0
C589 C 0.81843 0.42209 0.64557 0.0
C590 C 0.84475 0.448 0.66538 0.0
H591 H 0.79835 0.37779 0.58101 0.0
H592 H 0.79797 0.42103 0.66464 0.0
C593 C 0.87092 0.44872 0.64022 0.0
C594 C 0.39915 0.81768 0.81306 0.0
C595 C 0.39994 0.84413 0.83466 0.0
H596 H 0.42288 0.79726 0.74623 0.0
C597 C 0.42554 0.87017 0.80996 0.0
H598 H 0.37961 0.79732 0.83168 0.0
C599 C 0.44988 0.87013 0.76681 0.0
C600 C 0.4494 0.84406 0.74251 0.0
H601 H 0.427 0.89094 0.82562 0.0
H602 H 0.4692 0.89089 0.75088 0.0
C603 C 0.42374 0.81765 0.76452 0.0
C604 C 0.59325 0.42149 0.82636 0.0
C605 C 0.61345 0.44343 0.9036 0.0
H606 H 0.55215 0.38228 0.81381 0.0
C607 C 0.6105 0.43924 0.03055 0.0
H608 H 0.59479 0.42423 0.72803 0.0
C609 C 0.5865 0.41472 0.07947 0.0
C610 C 0.56458 0.3945 1.00221 0.0
H611 H 0.62565 0.45587 0.092 0.0
H612 H 0.58376 0.41318 0.17779 0.0
C613 C 0.56877 0.39746 0.87527 0.0
C614 C 0.1738 0.56643 0.04352 0.0
C615 C 0.17249 0.56226 0.17052 0.0
H616 H 0.17334 0.59254 0.89596 0.0
C617 C 0.17427 0.58428 0.24731 0.0
H618 H 0.17232 0.54976 0.98231 0.0
C619 C 0.17386 0.60832 0.19799 0.0
C620 C 0.17271 0.61127 0.07097 0.0
H621 H 0.17309 0.5816 0.34553 0.0
H622 H 0.17242 0.62354 0.25917 0.0
C623 C 0.17442 0.59099 0.99421 0.0
loop_
_geom_bond_atom_site_label_1
_geom_bond_atom_site_label_2
_geom_bond_distance
_geom_bond_site_symmetry_2
_ccdc_geom_bond_type
Fe0 O2 1.918 . S
Fe0 O5 1.997 . S
Fe0 O6 2.002 . S
Fe0 O11 1.976 1_554 S
Fe0 O14 1.996 . S
Fe1 O2 1.918 1_556 S
Fe1 O9 1.997 1_556 S
Fe1 O12 1.996 . S
Fe1 O16 1.976 . S
Fe1 O19 2.002 . S
O2 Fe0 1.918 . S
O2 Fe1 1.918 1_554 S
O2 Fe3 1.918 . S
Fe3 O2 1.918 . S
Fe3 O4 2.002 . S
Fe3 O13 1.976 1_554 S
Fe3 O17 1.996 1_554 S
Fe3 O20 1.997 . S
O4 Fe3 2.002 . S
O4 C21 1.295 . S
O5 Fe0 1.997 . S
O5 C21 1.235 . S
O6 Fe0 2.002 . S
O6 C7 1.295 . S
C7 O6 1.295 . S
C7 O9 1.235 . S
C8 O13 1.287 1_554 S
C8 O14 1.255 . S
O9 Fe1 1.997 1_554 S
O9 C7 1.235 . S
C10 O16 1.287 . S
C10 O17 1.255 . S
O11 Fe0 1.976 1_556 S
O11 C18 1.287 . S
O12 Fe1 1.996 . S
O12 C18 1.255 . S
O13 Fe3 1.976 1_556 S
O13 C8 1.287 1_556 S
O14 Fe0 1.996 . S
O14 C8 1.255 . S
C15 O19 1.295 1_554 S
C15 O20 1.235 . S
O16 Fe1 1.976 . S
O16 C10 1.287 . S
O17 Fe3 1.996 1_556 S
O17 C10 1.255 . S
C18 O11 1.287 . S
C18 O12 1.255 . S
O19 Fe1 2.002 . S
O19 C15 1.295 1_556 S
O20 Fe3 1.997 . S
O20 C15 1.235 . S
C21 O4 1.295 . S
C21 O5 1.235 . S
Fe22 O24 1.918 . S
Fe22 O27 1.997 . S
Fe22 O28 2.002 . S
Fe22 O33 1.976 . S
Fe22 O36 1.996 . S
Fe23 O24 1.918 . S
Fe23 O31 1.997 . S
Fe23 O34 1.996 . S
Fe23 O38 1.976 . S
Fe23 O41 2.002 . S
O24 Fe22 1.918 . S
O24 Fe23 1.918 . S
O24 Fe25 1.918 . S
Fe25 O24 1.918 . S
Fe25 O26 2.002 . S
Fe25 O35 1.976 1_554 S
Fe25 O39 1.996 . S
Fe25 O42 1.997 . S
O26 Fe25 2.002 . S
O26 C43 1.295 . S
O27 Fe22 1.997 . S
O27 C43 1.235 . S
O28 Fe22 2.002 . S
O28 C29 1.295 . S
C29 O28 1.295 . S
C29 O31 1.235 . S
C30 O35 1.287 . S
C30 O36 1.255 1_556 S
O31 Fe23 1.997 . S
O31 C29 1.235 . S
C32 O38 1.287 . S
C32 O39 1.255 . S
O33 Fe22 1.976 . S
O33 C40 1.287 . S
O34 Fe23 1.996 . S
O34 C40 1.255 . S
O35 Fe25 1.976 1_556 S
O35 C30 1.287 . S
O36 Fe22 1.996 . S
O36 C30 1.255 1_554 S
C37 O41 1.295 . S
C37 O42 1.235 . S
O38 Fe23 1.976 . S
O38 C32 1.287 . S
O39 Fe25 1.996 . S
O39 C32 1.255 . S
C40 O33 1.287 . S
C40 O34 1.255 . S
O41 Fe23 2.002 . S
O41 C37 1.295 . S
O42 Fe25 1.997 . S
O42 C37 1.235 . S
C43 O26 1.295 . S
C43 O27 1.235 . S
Fe44 O46 1.918 . S
Fe44 O49 1.997 . S
Fe44 O50 2.002 . S
Fe44 O55 1.976 . S
Fe44 O58 1.996 . S
Fe45 O46 1.918 . S
Fe45 O53 1.997 . S
Fe45 O56 1.996 . S
Fe45 O60 1.976 . S
Fe45 O63 2.002 . S
O46 Fe44 1.918 . S
O46 Fe45 1.918 . S
O46 Fe47 1.918 . S
Fe47 O46 1.918 . S
Fe47 O48 2.002 . S
Fe47 O57 1.976 . S
Fe47 O61 1.996 . S
Fe47 O64 1.997 . S
O48 Fe47 2.002 . S
O48 C65 1.295 . S
O49 Fe44 1.997 . S
O49 C65 1.235 . S
O50 Fe44 2.002 . S
O50 C51 1.295 . S
C51 O50 1.295 . S
C51 O53 1.235 . S
C52 O57 1.287 . S
C52 O58 1.255 . S
O53 Fe45 1.997 . S
O53 C51 1.235 . S
C54 O60 1.287 . S
C54 O61 1.255 . S
O55 Fe44 1.976 . S
O55 C62 1.287 . S
O56 Fe45 1.996 . S
O56 C62 1.255 . S
O57 Fe47 1.976 . S
O57 C52 1.287 . S
O58 Fe44 1.996 . S
O58 C52 1.255 . S
C59 O63 1.295 . S
C59 O64 1.235 . S
O60 Fe45 1.976 . S
O60 C54 1.287 . S
O61 Fe47 1.996 . S
O61 C54 1.255 . S
C62 O55 1.287 . S
C62 O56 1.255 . S
O63 Fe45 2.002 . S
O63 C59 1.295 . S
O64 Fe47 1.997 . S
O64 C59 1.235 . S
C65 O48 1.295 . S
C65 O49 1.235 . S
Fe66 O68 1.918 . S
Fe66 O71 1.997 . S
Fe66 O72 2.002 . S
Fe66 O77 1.976 . S
Fe66 O80 1.996 . S
Fe67 O68 1.918 . S
Fe67 O75 1.997 . S
Fe67 O78 1.996 . S
Fe67 O82 1.976 . S
Fe67 O85 2.002 . S
O68 Fe66 1.918 . S
O68 Fe67 1.918 . S
O68 Fe69 1.918 . S
Fe69 O68 1.918 . S
Fe69 O70 2.002 . S
Fe69 O79 1.976 . S
Fe69 O83 1.996 . S
Fe69 O86 1.997 . S
O70 Fe69 2.002 . S
O70 C87 1.295 . S
O71 Fe66 1.997 . S
O71 C87 1.235 . S
O72 Fe66 2.002 . S
O72 C73 1.295 . S
C73 O72 1.295 . S
C73 O75 1.235 . S
C74 O79 1.287 . S
C74 O80 1.255 . S
O75 Fe67 1.997 . S
O75 C73 1.235 . S
C76 O82 1.287 . S
C76 O83 1.255 . S
O77 Fe66 1.976 . S
O77 C84 1.287 . S
O78 Fe67 1.996 . S
O78 C84 1.255 . S
O79 Fe69 1.976 . S
O79 C74 1.287 . S
O80 Fe66 1.996 . S
O80 C74 1.255 . S
C81 O85 1.295 . S
C81 O86 1.235 . S
O82 Fe67 1.976 . S
O82 C76 1.287 . S
O83 Fe69 1.996 . S
O83 C76 1.255 . S
C84 O77 1.287 . S
C84 O78 1.255 . S
O85 Fe67 2.002 . S
O85 C81 1.295 . S
O86 Fe69 1.997 . S
O86 C81 1.235 . S
C87 O70 1.295 . S
C87 O71 1.235 . S
Fe88 O90 1.918 . S
Fe88 O93 1.997 . S
Fe88 O94 2.002 . S
Fe88 O99 1.976 . S
Fe88 O102 1.996 . S
Fe89 O90 1.918 . S
Fe89 O97 1.997 . S
Fe89 O100 1.996 . S
Fe89 O104 1.976 . S
Fe89 O107 2.002 . S
O90 Fe88 1.918 . S
O90 Fe89 1.918 . S
O90 Fe91 1.918 . S
Fe91 O90 1.918 . S
Fe91 O92 2.002 . S
Fe91 O101 1.976 . S
Fe91 O105 1.996 . S
Fe91 O108 1.997 . S
O92 Fe91 2.002 . S
O92 C109 1.295 . S
O93 Fe88 1.997 . S
O93 C109 1.235 . S
O94 Fe88 2.002 . S
O94 C95 1.295 . S
C95 O94 1.295 . S
C95 O97 1.235 . S
C96 O101 1.287 . S
C96 O102 1.255 . S
O97 Fe89 1.997 . S
O97 C95 1.235 . S
C98 O104 1.287 . S
C98 O105 1.255 . S
O99 Fe88 1.976 . S
O99 C106 1.287 . S
O100 Fe89 1.996 . S
O100 C106 1.255 . S
O101 Fe91 1.976 . S
O101 C96 1.287 . S
O102 Fe88 1.996 . S
O102 C96 1.255 . S
C103 O107 1.295 . S
C103 O108 1.235 . S
O104 Fe89 1.976 . S
O104 C98 1.287 . S
O105 Fe91 1.996 . S
O105 C98 1.255 . S
C106 O99 1.287 . S
C106 O100 1.255 . S
O107 Fe89 2.002 . S
O107 C103 1.295 . S
O108 Fe91 1.997 . S
O108 C103 1.235 . S
C109 O92 1.295 . S
C109 O93 1.235 . S
Fe110 O112 1.918 . S
Fe110 O115 1.997 . S
Fe110 O116 2.002 1_556 S
Fe110 O121 1.976 . S
Fe110 O124 1.996 . S
Fe111 O112 1.918 . S
Fe111 O119 1.997 1_556 S
Fe111 O122 1.996 . S
Fe111 O126 1.976 . S
Fe111 O129 2.002 1_556 S
O112 Fe110 1.918 . S
O112 Fe111 1.918 . S
O112 Fe113 1.918 . S
Fe113 O112 1.918 . S
Fe113 O114 2.002 . S
Fe113 O123 1.976 . S
Fe113 O127 1.996 . S
Fe113 O130 1.997 . S
O114 Fe113 2.002 . S
O114 C131 1.295 . S
O115 Fe110 1.997 . S
O115 C131 1.235 . S
O116 Fe110 2.002 1_554 S
O116 C117 1.295 . S
C117 O116 1.295 . S
C117 O119 1.235 . S
C118 O123 1.287 . S
C118 O124 1.255 . S
O119 Fe111 1.997 1_554 S
O119 C117 1.235 . S
C120 O126 1.287 . S
C120 O127 1.255 . S
O121 Fe110 1.976 . S
O121 C128 1.287 . S
O122 Fe111 1.996 . S
O122 C128 1.255 . S
O123 Fe113 1.976 . S
O123 C118 1.287 . S
O124 Fe110 1.996 . S
O124 C118 1.255 . S
C125 O129 1.295 1_556 S
C125 O130 1.235 . S
O126 Fe111 1.976 . S
O126 C120 1.287 . S
O127 Fe113 1.996 . S
O127 C120 1.255 . S
C128 O121 1.287 . S
C128 O122 1.255 . S
O129 Fe111 2.002 1_554 S
O129 C125 1.295 1_554 S
O130 Fe113 1.997 . S
O130 C125 1.235 . S
C131 O114 1.295 . S
C131 O115 1.235 . S
Fe132 O134 1.918 . S
Fe132 O137 1.997 . S
Fe132 O138 2.002 . S
Fe132 O143 1.976 . S
Fe132 O146 1.996 1_556 S
Fe133 O134 1.918 . S
Fe133 O141 1.997 . S
Fe133 O144 1.996 . S
Fe133 O148 1.976 . S
Fe133 O151 2.002 . S
O134 Fe132 1.918 . S
O134 Fe133 1.918 . S
O134 Fe135 1.918 . S
Fe135 O134 1.918 . S
Fe135 O136 2.002 . S
Fe135 O145 1.976 1_556 S
Fe135 O149 1.996 1_556 S
Fe135 O152 1.997 . S
O136 Fe135 2.002 . S
O136 C153 1.295 . S
O137 Fe132 1.997 . S
O137 C153 1.235 . S
O138 Fe132 2.002 . S
O138 C139 1.295 . S
C139 O138 1.295 . S
C139 O141 1.235 . S
C140 O145 1.287 . S
C140 O146 1.255 . S
O141 Fe133 1.997 . S
O141 C139 1.235 . S
C142 O148 1.287 . S
C142 O149 1.255 1_556 S
O143 Fe132 1.976 . S
O143 C150 1.287 . S
O144 Fe133 1.996 . S
O144 C150 1.255 . S
O145 Fe135 1.976 1_554 S
O145 C140 1.287 . S
O146 Fe132 1.996 1_554 S
O146 C140 1.255 . S
C147 O151 1.295 . S
C147 O152 1.235 . S
O148 Fe133 1.976 . S
O148 C142 1.287 . S
O149 Fe135 1.996 1_554 S
O149 C142 1.255 1_554 S
C150 O143 1.287 . S
C150 O144 1.255 . S
O151 Fe133 2.002 . S
O151 C147 1.295 . S
O152 Fe135 1.997 . S
O152 C147 1.235 . S
C153 O136 1.295 . S
C153 O137 1.235 . S
Fe154 O156 1.918 . S
Fe154 O159 1.997 1_554 S
Fe154 O160 2.002 1_554 S
Fe154 O165 1.976 . S
Fe154 O168 1.996 . S
Fe155 O156 1.918 1_556 S
Fe155 O163 1.997 . S
Fe155 O166 1.996 . S
Fe155 O170 1.976 1_556 S
Fe155 O173 2.002 . S
O156 Fe154 1.918 . S
O156 Fe155 1.918 1_554 S
O156 Fe157 1.918 . S
Fe157 O156 1.918 . S
Fe157 O158 2.002 . S
Fe157 O167 1.976 . S
Fe157 O171 1.996 . S
Fe157 O174 1.997 1_554 S
O158 Fe157 2.002 . S
O158 C175 1.295 1_554 S
O159 Fe154 1.997 1_556 S
O159 C175 1.235 . S
O160 Fe154 2.002 1_556 S
O160 C161 1.295 . S
C161 O160 1.295 . S
C161 O163 1.235 . S
C162 O167 1.287 . S
C162 O168 1.255 . S
O163 Fe155 1.997 . S
O163 C161 1.235 . S
C164 O170 1.287 . S
C164 O171 1.255 . S
O165 Fe154 1.976 . S
O165 C172 1.287 . S
O166 Fe155 1.996 . S
O166 C172 1.255 1_556 S
O167 Fe157 1.976 . S
O167 C162 1.287 . S
O168 Fe154 1.996 . S
O168 C162 1.255 . S
C169 O173 1.295 . S
C169 O174 1.235 . S
O170 Fe155 1.976 1_554 S
O170 C164 1.287 . S
O171 Fe157 1.996 . S
O171 C164 1.255 . S
C172 O165 1.287 . S
C172 O166 1.255 1_554 S
O173 Fe155 2.002 . S
O173 C169 1.295 . S
O174 Fe157 1.997 1_556 S
O174 C169 1.235 . S
C175 O158 1.295 1_556 S
C175 O159 1.235 . S
Fe176 O178 1.918 . S
Fe176 O181 1.997 . S
Fe176 O182 2.002 1_554 S
Fe176 O187 1.976 . S
Fe176 O190 1.996 . S
Fe177 O178 1.918 . S
Fe177 O185 1.997 1_554 S
Fe177 O188 1.996 . S
Fe177 O192 1.976 . S
Fe177 O195 2.002 . S
O178 Fe176 1.918 . S
O178 Fe177 1.918 . S
O178 Fe179 1.918 . S
Fe179 O178 1.918 . S
Fe179 O180 2.002 . S
Fe179 O189 1.976 . S
Fe179 O193 1.996 . S
Fe179 O196 1.997 . S
O180 Fe179 2.002 . S
O180 C197 1.295 . S
O181 Fe176 1.997 . S
O181 C197 1.235 . S
O182 Fe176 2.002 1_556 S
O182 C183 1.295 . S
C183 O182 1.295 . S
C183 O185 1.235 . S
C184 O189 1.287 . S
C184 O190 1.255 . S
O185 Fe177 1.997 1_556 S
O185 C183 1.235 . S
C186 O192 1.287 . S
C186 O193 1.255 . S
O187 Fe176 1.976 . S
O187 C194 1.287 . S
O188 Fe177 1.996 . S
O188 C194 1.255 . S
O189 Fe179 1.976 . S
O189 C184 1.287 . S
O190 Fe176 1.996 . S
O190 C184 1.255 . S
C191 O195 1.295 . S
C191 O196 1.235 . S
O192 Fe177 1.976 . S
O192 C186 1.287 . S
O193 Fe179 1.996 . S
O193 C186 1.255 . S
C194 O187 1.287 . S
C194 O188 1.255 . S
O195 Fe177 2.002 . S
O195 C191 1.295 . S
O196 Fe179 1.997 . S
O196 C191 1.235 . S
C197 O180 1.295 . S
C197 O181 1.235 . S
Fe198 O200 1.918 . S
Fe198 O203 1.997 . S
Fe198 O204 2.002 . S
Fe198 O209 1.976 . S
Fe198 O212 1.996 . S
Fe199 O200 1.918 . S
Fe199 O207 1.997 . S
Fe199 O210 1.996 . S
Fe199 O214 1.976 . S
Fe199 O217 2.002 . S
O200 Fe198 1.918 . S
O200 Fe199 1.918 . S
O200 Fe201 1.918 . S
Fe201 O200 1.918 . S
Fe201 O202 2.002 . S
Fe201 O211 1.976 . S
Fe201 O215 1.996 . S
Fe201 O218 1.997 . S
O202 Fe201 2.002 . S
O202 C219 1.295 . S
O203 Fe198 1.997 . S
O203 C219 1.235 . S
O204 Fe198 2.002 . S
O204 C205 1.295 . S
C205 O204 1.295 . S
C205 O207 1.235 . S
C206 O211 1.287 . S
C206 O212 1.255 . S
O207 Fe199 1.997 . S
O207 C205 1.235 . S
C208 O214 1.287 . S
C208 O215 1.255 . S
O209 Fe198 1.976 . S
O209 C216 1.287 . S
O210 Fe199 1.996 . S
O210 C216 1.255 . S
O211 Fe201 1.976 . S
O211 C206 1.287 . S
O212 Fe198 1.996 . S
O212 C206 1.255 . S
C213 O217 1.295 . S
C213 O218 1.235 . S
O214 Fe199 1.976 . S
O214 C208 1.287 . S
O215 Fe201 1.996 . S
O215 C208 1.255 . S
C216 O209 1.287 . S
C216 O210 1.255 . S
O217 Fe199 2.002 . S
O217 C213 1.295 . S
O218 Fe201 1.997 . S
O218 C213 1.235 . S
C219 O202 1.295 . S
C219 O203 1.235 . S
Fe220 O222 1.918 . S
Fe220 O225 1.997 . S
Fe220 O226 2.002 . S
Fe220 O231 1.976 . S
Fe220 O234 1.996 . S
Fe221 O222 1.918 . S
Fe221 O229 1.997 . S
Fe221 O232 1.996 . S
Fe221 O236 1.976 . S
Fe221 O239 2.002 . S
O222 Fe220 1.918 . S
O222 Fe221 1.918 . S
O222 Fe223 1.918 . S
Fe223 O222 1.918 . S
Fe223 O224 2.002 . S
Fe223 O233 1.976 . S
Fe223 O237 1.996 . S
Fe223 O240 1.997 . S
O224 Fe223 2.002 . S
O224 C241 1.295 . S
O225 Fe220 1.997 . S
O225 C241 1.235 . S
O226 Fe220 2.002 . S
O226 C227 1.295 . S
C227 O226 1.295 . S
C227 O229 1.235 . S
C228 O233 1.287 . S
C228 O234 1.255 . S
O229 Fe221 1.997 . S
O229 C227 1.235 . S
C230 O236 1.287 . S
C230 O237 1.255 . S
O231 Fe220 1.976 . S
O231 C238 1.287 . S
O232 Fe221 1.996 . S
O232 C238 1.255 . S
O233 Fe223 1.976 . S
O233 C228 1.287 . S
O234 Fe220 1.996 . S
O234 C228 1.255 . S
C235 O239 1.295 . S
C235 O240 1.235 . S
O236 Fe221 1.976 . S
O236 C230 1.287 . S
O237 Fe223 1.996 . S
O237 C230 1.255 . S
C238 O231 1.287 . S
C238 O232 1.255 . S
O239 Fe221 2.002 . S
O239 C235 1.295 . S
O240 Fe223 1.997 . S
O240 C235 1.235 . S
C241 O224 1.295 . S
C241 O225 1.235 . S
Fe242 O244 1.918 . S
Fe242 O247 1.997 . S
Fe242 O248 2.002 . S
Fe242 O253 1.976 . S
Fe242 O256 1.996 . S
Fe243 O244 1.918 . S
Fe243 O251 1.997 . S
Fe243 O254 1.996 . S
Fe243 O258 1.976 . S
Fe243 O261 2.002 . S
O244 Fe242 1.918 . S
O244 Fe243 1.918 . S
O244 Fe245 1.918 . S
Fe245 O244 1.918 . S
Fe245 O246 2.002 . S
Fe245 O255 1.976 . S
Fe245 O259 1.996 . S
Fe245 O262 1.997 . S
O246 Fe245 2.002 . S
O246 C263 1.295 . S
O247 Fe242 1.997 . S
O247 C263 1.235 . S
O248 Fe242 2.002 . S
O248 C249 1.295 . S
C249 O248 1.295 . S
C249 O251 1.235 . S
C250 O255 1.287 . S
C250 O256 1.255 . S
O251 Fe243 1.997 . S
O251 C249 1.235 . S
C252 O258 1.287 . S
C252 O259 1.255 . S
O253 Fe242 1.976 . S
O253 C260 1.287 . S
O254 Fe243 1.996 . S
O254 C260 1.255 . S
O255 Fe245 1.976 . S
O255 C250 1.287 . S
O256 Fe242 1.996 . S
O256 C250 1.255 . S
C257 O261 1.295 . S
C257 O262 1.235 . S
O258 Fe243 1.976 . S
O258 C252 1.287 . S
O259 Fe245 1.996 . S
O259 C252 1.255 . S
C260 O253 1.287 . S
C260 O254 1.255 . S
O261 Fe243 2.002 . S
O261 C257 1.295 . S
O262 Fe245 1.997 . S
O262 C257 1.235 . S
C263 O246 1.295 . S
C263 O247 1.235 . S
C264 C265 1.387 . S
C264 H268 0.950 . S
C264 C273 1.390 . S
C265 C264 1.387 . S
C265 C267 1.387 . S
H266 C273 0.950 . S
C267 C265 1.387 . S
C267 C269 1.390 . S
C267 H271 0.950 . S
H268 C264 0.950 . S
C269 C267 1.390 . S
C269 C270 1.387 . S
C269 H272 0.950 . S
C270 C269 1.387 . S
C270 C273 1.387 . S
H271 C267 0.950 . S
H272 C269 0.950 . S
C273 C264 1.390 . S
C273 H266 0.950 . S
C273 C270 1.387 . S
C274 C275 1.387 . S
C274 H278 0.950 . S
C274 C283 1.390 . S
C275 C274 1.387 . S
C275 C277 1.387 . S
H276 C283 0.950 . S
C277 C275 1.387 . S
C277 C279 1.390 . S
C277 H281 0.950 . S
H278 C274 0.950 . S
C279 C277 1.390 . S
C279 C280 1.387 . S
C279 H282 0.950 . S
C280 C279 1.387 . S
C280 C283 1.387 . S
H281 C277 0.950 . S
H282 C279 0.950 . S
C283 C274 1.390 . S
C283 H276 0.950 . S
C283 C280 1.387 . S
C284 C285 1.387 . S
C284 H288 0.950 . S
C284 C293 1.390 . S
C285 C284 1.387 . S
C285 C287 1.387 . S
H286 C293 0.950 1_554 S
C287 C285 1.387 . S
C287 C289 1.390 . S
C287 H291 0.950 . S
H288 C284 0.950 . S
C289 C287 1.390 . S
C289 C290 1.387 . S
C289 H292 0.950 . S
C290 C289 1.387 . S
C290 C293 1.387 . S
H291 C287 0.950 . S
H292 C289 0.950 . S
C293 C284 1.390 . S
C293 H286 0.950 1_556 S
C293 C290 1.387 . S
C294 C295 1.387 . S
C294 H298 0.950 . S
C294 C303 1.390 1_554 S
C295 C294 1.387 . S
C295 C297 1.387 . S
H296 C303 0.950 . S
C297 C295 1.387 . S
C297 C299 1.390 1_554 S
C297 H301 0.950 . S
H298 C294 0.950 . S
C299 C297 1.390 1_556 S
C299 C300 1.387 . S
C299 H302 0.950 . S
C300 C299 1.387 . S
C300 C303 1.387 . S
H301 C297 0.950 . S
H302 C299 0.950 . S
C303 C294 1.390 1_556 S
C303 H296 0.950 . S
C303 C300 1.387 . S
C304 C305 1.387 . S
C304 H308 0.950 . S
C304 C313 1.390 . S
C305 C304 1.387 . S
C305 C307 1.387 . S
H306 C313 0.950 . S
C307 C305 1.387 . S
C307 C309 1.390 . S
C307 H311 0.950 . S
H308 C304 0.950 . S
C309 C307 1.390 . S
C309 C310 1.387 . S
C309 H312 0.950 . S
C310 C309 1.387 . S
C310 C313 1.387 . S
H311 C307 0.950 . S
H312 C309 0.950 . S
C313 C304 1.390 . S
C313 H306 0.950 . S
C313 C310 1.387 . S
C314 C315 1.387 . S
C314 H318 0.950 . S
C314 C323 1.390 . S
C315 C314 1.387 . S
C315 C317 1.387 . S
H316 C323 0.950 . S
C317 C315 1.387 . S
C317 C319 1.390 . S
C317 H321 0.950 . S
H318 C314 0.950 . S
C319 C317 1.390 . S
C319 C320 1.387 . S
C319 H322 0.950 . S
C320 C319 1.387 . S
C320 C323 1.387 . S
H321 C317 0.950 . S
H322 C319 0.950 . S
C323 C314 1.390 . S
C323 H316 0.950 . S
C323 C320 1.387 . S
C324 C325 1.387 . S
C324 H328 0.950 . S
C324 C333 1.390 . S
C325 C324 1.387 . S
C325 C327 1.387 . S
H326 C333 0.950 . S
C327 C325 1.387 . S
C327 C329 1.390 . S
C327 H331 0.950 . S
H328 C324 0.950 . S
C329 C327 1.390 . S
C329 C330 1.387 . S
C329 H332 0.950 . S
C330 C329 1.387 . S
C330 C333 1.387 . S
H331 C327 0.950 . S
H332 C329 0.950 . S
C333 C324 1.390 . S
C333 H326 0.950 . S
C333 C330 1.387 . S
C334 C335 1.387 . S
C334 H338 0.950 . S
C334 C343 1.390 . S
C335 C334 1.387 . S
C335 C337 1.387 . S
H336 C343 0.950 . S
C337 C335 1.387 . S
C337 C339 1.390 . S
C337 H341 0.950 . S
H338 C334 0.950 . S
C339 C337 1.390 . S
C339 C340 1.387 . S
C339 H342 0.950 . S
C340 C339 1.387 . S
C340 C343 1.387 . S
H341 C337 0.950 . S
H342 C339 0.950 . S
C343 C334 1.390 . S
C343 H336 0.950 . S
C343 C340 1.387 . S
C344 C345 1.387 . S
C344 H348 0.950 . S
C344 C353 1.390 . S
C345 C344 1.387 . S
C345 C347 1.387 . S
H346 C353 0.950 . S
C347 C345 1.387 . S
C347 C349 1.390 . S
C347 H351 0.950 . S
H348 C344 0.950 . S
C349 C347 1.390 . S
C349 C350 1.387 . S
C349 H352 0.950 . S
C350 C349 1.387 . S
C350 C353 1.387 . S
H351 C347 0.950 . S
H352 C349 0.950 . S
C353 C344 1.390 . S
C353 H346 0.950 . S
C353 C350 1.387 . S
C354 C355 1.387 . S
C354 H358 0.950 . S
C354 C363 1.390 . S
C355 C354 1.387 . S
C355 C357 1.387 . S
H356 C363 0.950 . S
C357 C355 1.387 . S
C357 C359 1.390 . S
C357 H361 0.950 . S
H358 C354 0.950 . S
C359 C357 1.390 . S
C359 C360 1.387 . S
C359 H362 0.950 . S
C360 C359 1.387 . S
C360 C363 1.387 . S
H361 C357 0.950 . S
H362 C359 0.950 . S
C363 C354 1.390 . S
C363 H356 0.950 . S
C363 C360 1.387 . S
C364 C365 1.387 . S
C364 H368 0.950 . S
C364 C373 1.390 1_556 S
C365 C364 1.387 . S
C365 C367 1.387 . S
H366 C373 0.950 . S
C367 C365 1.387 . S
C367 C369 1.390 1_556 S
C367 H371 0.950 . S
H368 C364 0.950 . S
C369 C367 1.390 1_554 S
C369 C370 1.387 . S
C369 H372 0.950 . S
C370 C369 1.387 . S
C370 C373 1.387 . S
H371 C367 0.950 . S
H372 C369 0.950 . S
C373 C364 1.390 1_554 S
C373 H366 0.950 . S
C373 C370 1.387 . S
C374 C375 1.387 . S
C374 H378 0.950 . S
C374 C383 1.390 . S
C375 C374 1.387 . S
C375 C377 1.387 . S
H376 C383 0.950 . S
C377 C375 1.387 . S
C377 C379 1.390 . S
C377 H381 0.950 . S
H378 C374 0.950 . S
C379 C377 1.390 . S
C379 C380 1.387 . S
C379 H382 0.950 . S
C380 C379 1.387 . S
C380 C383 1.387 . S
H381 C377 0.950 . S
H382 C379 0.950 . S
C383 C374 1.390 . S
C383 H376 0.950 . S
C383 C380 1.387 . S
C384 C385 1.387 . S
C384 H388 0.950 . S
C384 C393 1.390 1_545 S
C385 C384 1.387 . S
C385 C387 1.387 . S
H386 C393 0.950 . S
C387 C385 1.387 . S
C387 C389 1.390 1_545 S
C387 H391 0.950 . S
H388 C384 0.950 . S
C389 C387 1.390 1_565 S
C389 C390 1.387 . S
C389 H392 0.950 . S
C390 C389 1.387 . S
C390 C393 1.387 . S
H391 C387 0.950 . S
H392 C389 0.950 . S
C393 C384 1.390 1_565 S
C393 H386 0.950 . S
C393 C390 1.387 . S
C394 C395 1.387 . S
C394 H398 0.950 . S
C394 C403 1.390 . S
C395 C394 1.387 . S
C395 C397 1.387 . S
H396 C403 0.950 1_556 S
C397 C395 1.387 . S
C397 C399 1.390 . S
C397 H401 0.950 . S
H398 C394 0.950 . S
C399 C397 1.390 . S
C399 C400 1.387 . S
C399 H402 0.950 . S
C400 C399 1.387 . S
C400 C403 1.387 . S
H401 C397 0.950 . S
H402 C399 0.950 . S
C403 C394 1.390 . S
C403 H396 0.950 1_554 S
C403 C400 1.387 . S
C404 C405 1.387 . S
C404 H408 0.950 . S
C404 C413 1.390 1_455 S
C405 C404 1.387 . S
C405 C407 1.387 . S
H406 C413 0.950 . S
C407 C405 1.387 . S
C407 C409 1.390 1_455 S
C407 H411 0.950 . S
H408 C404 0.950 . S
C409 C407 1.390 1_655 S
C409 C410 1.387 . S
C409 H412 0.950 . S
C410 C409 1.387 . S
C410 C413 1.387 . S
H411 C407 0.950 . S
H412 C409 0.950 . S
C413 C404 1.390 1_655 S
C413 H406 0.950 . S
C413 C410 1.387 . S
C414 C415 1.387 . S
C414 H418 0.950 . S
C414 C423 1.390 1_565 S
C415 C414 1.387 . S
C415 C417 1.387 . S
H416 C423 0.950 . S
C417 C415 1.387 . S
C417 C419 1.390 1_565 S
C417 H421 0.950 . S
H418 C414 0.950 . S
C419 C417 1.390 1_545 S
C419 C420 1.387 . S
C419 H422 0.950 . S
C420 C419 1.387 . S
C420 C423 1.387 . S
H421 C417 0.950 . S
H422 C419 0.950 . S
C423 C414 1.390 1_545 S
C423 H416 0.950 . S
C423 C420 1.387 . S
C424 C425 1.387 . S
C424 H428 0.950 . S
C424 C433 1.390 . S
C425 C424 1.387 . S
C425 C427 1.387 . S
H426 C433 0.950 . S
C427 C425 1.387 . S
C427 C429 1.390 . S
C427 H431 0.950 . S
H428 C424 0.950 . S
C429 C427 1.390 . S
C429 C430 1.387 . S
C429 H432 0.950 . S
C430 C429 1.387 . S
C430 C433 1.387 . S
H431 C427 0.950 . S
H432 C429 0.950 . S
C433 C424 1.390 . S
C433 H426 0.950 . S
C433 C430 1.387 . S
C434 C435 1.387 . S
C434 H438 0.950 . S
C434 C443 1.390 1_455 S
C435 C434 1.387 . S
C435 C437 1.387 . S
H436 C443 0.950 . S
C437 C435 1.387 . S
C437 C439 1.390 1_455 S
C437 H441 0.950 . S
H438 C434 0.950 . S
C439 C437 1.390 1_655 S
C439 C440 1.387 . S
C439 H442 0.950 . S
C440 C439 1.387 . S
C440 C443 1.387 . S
H441 C437 0.950 . S
H442 C439 0.950 . S
C443 C434 1.390 1_655 S
C443 H436 0.950 . S
C443 C440 1.387 . S
C444 C445 1.387 . S
C444 H448 0.950 . S
C444 C453 1.390 . S
C445 C444 1.387 . S
C445 C447 1.387 . S
H446 C453 0.950 . S
C447 C445 1.387 . S
C447 C449 1.390 . S
C447 H451 0.950 . S
H448 C444 0.950 . S
C449 C447 1.390 . S
C449 C450 1.387 . S
C449 H452 0.950 . S
C450 C449 1.387 . S
C450 C453 1.387 . S
H451 C447 0.950 . S
H452 C449 0.950 . S
C453 C444 1.390 . S
C453 H446 0.950 . S
C453 C450 1.387 . S
C454 C455 1.387 1_554 S
C454 H458 0.950 . S
C454 C463 1.390 1_554 S
C455 C454 1.387 1_556 S
C455 C457 1.387 . S
H456 C463 0.950 1_554 S
C457 C455 1.387 . S
C457 C459 1.390 . S
C457 H461 0.950 . S
H458 C454 0.950 . S
C459 C457 1.390 . S
C459 C460 1.387 . S
C459 H462 0.950 . S
C460 C459 1.387 . S
C460 C463 1.387 . S
H461 C457 0.950 . S
H462 C459 0.950 . S
C463 C454 1.390 1_556 S
C463 H456 0.950 1_556 S
C463 C460 1.387 . S
C464 C465 1.387 1_556 S
C464 H468 0.950 . S
C464 C473 1.390 1_556 S
C465 C464 1.387 1_554 S
C465 C467 1.387 . S
H466 C473 0.950 . S
C467 C465 1.387 . S
C467 C469 1.390 . S
C467 H471 0.950 . S
H468 C464 0.950 . S
C469 C467 1.390 . S
C469 C470 1.387 . S
C469 H472 0.950 . S
C470 C469 1.387 . S
C470 C473 1.387 . S
H471 C467 0.950 . S
H472 C469 0.950 . S
C473 C464 1.390 1_554 S
C473 H466 0.950 . S
C473 C470 1.387 . S
C474 C475 1.387 . S
C474 H478 0.950 . S
C474 C483 1.390 . S
C475 C474 1.387 . S
C475 C477 1.387 . S
H476 C483 0.950 . S
C477 C475 1.387 . S
C477 C479 1.390 . S
C477 H481 0.950 . S
H478 C474 0.950 . S
C479 C477 1.390 . S
C479 C480 1.387 . S
C479 H482 0.950 . S
C480 C479 1.387 . S
C480 C483 1.387 . S
H481 C477 0.950 . S
H482 C479 0.950 . S
C483 C474 1.390 . S
C483 H476 0.950 . S
C483 C480 1.387 . S
C484 C485 1.387 . S
C484 H488 0.950 . S
C484 C493 1.390 . S
C485 C484 1.387 . S
C485 C487 1.387 . S
H486 C493 0.950 . S
C487 C485 1.387 . S
C487 C489 1.390 . S
C487 H491 0.950 . S
H488 C484 0.950 . S
C489 C487 1.390 . S
C489 C490 1.387 . S
C489 H492 0.950 . S
C490 C489 1.387 . S
C490 C493 1.387 . S
H491 C487 0.950 . S
H492 C489 0.950 . S
C493 C484 1.390 . S
C493 H486 0.950 . S
C493 C490 1.387 . S
C494 C495 1.387 . S
C494 H498 0.950 . S
C494 C503 1.390 . S
C495 C494 1.387 . S
C495 C497 1.387 . S
H496 C503 0.950 . S
C497 C495 1.387 . S
C497 C499 1.390 . S
C497 H501 0.950 . S
H498 C494 0.950 . S
C499 C497 1.390 . S
C499 C500 1.387 . S
C499 H502 0.950 . S
C500 C499 1.387 . S
C500 C503 1.387 . S
H501 C497 0.950 . S
H502 C499 0.950 . S
C503 C494 1.390 . S
C503 H496 0.950 . S
C503 C500 1.387 . S
C504 C505 1.387 . S
C504 H508 0.950 . S
C504 C513 1.390 . S
C505 C504 1.387 . S
C505 C507 1.387 1_554 S
H506 C513 0.950 . S
C507 C505 1.387 1_556 S
C507 C509 1.390 1_556 S
C507 H511 0.950 . S
H508 C504 0.950 . S
C509 C507 1.390 1_554 S
C509 C510 1.387 . S
C509 H512 0.950 1_554 S
C510 C509 1.387 . S
C510 C513 1.387 . S
H511 C507 0.950 . S
H512 C509 0.950 1_556 S
C513 C504 1.390 . S
C513 H506 0.950 . S
C513 C510 1.387 . S
C514 C515 1.387 . S
C514 H518 0.950 . S
C514 C523 1.390 . S
C515 C514 1.387 . S
C515 C517 1.387 . S
H516 C523 0.950 . S
C517 C515 1.387 . S
C517 C519 1.390 . S
C517 H521 0.950 . S
H518 C514 0.950 . S
C519 C517 1.390 . S
C519 C520 1.387 . S
C519 H522 0.950 . S
C520 C519 1.387 . S
C520 C523 1.387 . S
H521 C517 0.950 . S
H522 C519 0.950 . S
C523 C514 1.390 . S
C523 H516 0.950 . S
C523 C520 1.387 . S
C524 C525 1.387 . S
C524 H528 0.950 . S
C524 C533 1.390 . S
C525 C524 1.387 . S
C525 C527 1.387 . S
H526 C533 0.950 . S
C527 C525 1.387 . S
C527 C529 1.390 . S
C527 H531 0.950 . S
H528 C524 0.950 . S
C529 C527 1.390 . S
C529 C530 1.387 . S
C529 H532 0.950 . S
C530 C529 1.387 . S
C530 C533 1.387 . S
H531 C527 0.950 . S
H532 C529 0.950 . S
C533 C524 1.390 . S
C533 H526 0.950 . S
C533 C530 1.387 . S
C534 C535 1.387 . S
C534 H538 0.950 . S
C534 C543 1.390 . S
C535 C534 1.387 . S
C535 C537 1.387 . S
H536 C543 0.950 . S
C537 C535 1.387 . S
C537 C539 1.390 . S
C537 H541 0.950 . S
H538 C534 0.950 . S
C539 C537 1.390 . S
C539 C540 1.387 . S
C539 H542 0.950 . S
C540 C539 1.387 . S
C540 C543 1.387 . S
H541 C537 0.950 . S
H542 C539 0.950 . S
C543 C534 1.390 . S
C543 H536 0.950 . S
C543 C540 1.387 . S
C544 C545 1.387 . S
C544 H548 0.950 . S
C544 C553 1.390 . S
C545 C544 1.387 . S
C545 C547 1.387 . S
H546 C553 0.950 . S
C547 C545 1.387 . S
C547 C549 1.390 . S
C547 H551 0.950 . S
H548 C544 0.950 . S
C549 C547 1.390 . S
C549 C550 1.387 . S
C549 H552 0.950 . S
C550 C549 1.387 . S
C550 C553 1.387 . S
H551 C547 0.950 . S
H552 C549 0.950 . S
C553 C544 1.390 . S
C553 H546 0.950 . S
C553 C550 1.387 . S
C554 C555 1.387 . S
C554 H558 0.950 . S
C554 C563 1.390 . S
C555 C554 1.387 . S
C555 C557 1.387 . S
H556 C563 0.950 . S
C557 C555 1.387 . S
C557 C559 1.390 1_556 S
C557 H561 0.950 1_556 S
H558 C554 0.950 . S
C559 C557 1.390 1_554 S
C559 C560 1.387 1_554 S
C559 H562 0.950 . S
C560 C559 1.387 1_556 S
C560 C563 1.387 . S
H561 C557 0.950 1_554 S
H562 C559 0.950 . S
C563 C554 1.390 . S
C563 H556 0.950 . S
C563 C560 1.387 . S
C564 C565 1.387 . S
C564 H568 0.950 . S
C564 C573 1.390 . S
C565 C564 1.387 . S
C565 C567 1.387 . S
H566 C573 0.950 . S
C567 C565 1.387 . S
C567 C569 1.390 . S
C567 H571 0.950 . S
H568 C564 0.950 . S
C569 C567 1.390 . S
C569 C570 1.387 . S
C569 H572 0.950 . S
C570 C569 1.387 . S
C570 C573 1.387 . S
H571 C567 0.950 . S
H572 C569 0.950 . S
C573 C564 1.390 . S
C573 H566 0.950 . S
C573 C570 1.387 . S
C574 C575 1.387 . S
C574 H578 0.950 . S
C574 C583 1.390 . S
C575 C574 1.387 . S
C575 C577 1.387 . S
H576 C583 0.950 . S
C577 C575 1.387 . S
C577 C579 1.390 . S
C577 H581 0.950 . S
H578 C574 0.950 . S
C579 C577 1.390 . S
C579 C580 1.387 . S
C579 H582 0.950 . S
C580 C579 1.387 . S
C580 C583 1.387 . S
H581 C577 0.950 . S
H582 C579 0.950 . S
C583 C574 1.390 . S
C583 H576 0.950 . S
C583 C580 1.387 . S
C584 C585 1.387 . S
C584 H588 0.950 . S
C584 C593 1.390 . S
C585 C584 1.387 . S
C585 C587 1.387 . S
H586 C593 0.950 . S
C587 C585 1.387 . S
C587 C589 1.390 . S
C587 H591 0.950 . S
H588 C584 0.950 . S
C589 C587 1.390 . S
C589 C590 1.387 . S
C589 H592 0.950 . S
C590 C589 1.387 . S
C590 C593 1.387 . S
H591 C587 0.950 . S
H592 C589 0.950 . S
C593 C584 1.390 . S
C593 H586 0.950 . S
C593 C590 1.387 . S
C594 C595 1.387 . S
C594 H598 0.950 . S
C594 C603 1.390 . S
C595 C594 1.387 . S
C595 C597 1.387 . S
H596 C603 0.950 . S
C597 C595 1.387 . S
C597 C599 1.390 . S
C597 H601 0.950 . S
H598 C594 0.950 . S
C599 C597 1.390 . S
C599 C600 1.387 . S
C599 H602 0.950 . S
C600 C599 1.387 . S
C600 C603 1.387 . S
H601 C597 0.950 . S
H602 C599 0.950 . S
C603 C594 1.390 . S
C603 H596 0.950 . S
C603 C600 1.387 . S
C604 C605 1.387 . S
C604 H608 0.950 . S
C604 C613 1.390 . S
C605 C604 1.387 . S
C605 C607 1.387 . S
H606 C613 0.950 . S
C607 C605 1.387 . S
C607 C609 1.390 1_556 S
C607 H611 0.950 1_556 S
H608 C604 0.950 . S
C609 C607 1.390 1_554 S
C609 C610 1.387 1_554 S
C609 H612 0.950 . S
C610 C609 1.387 1_556 S
C610 C613 1.387 . S
H611 C607 0.950 1_554 S
H612 C609 0.950 . S
C613 C604 1.390 . S
C613 H606 0.950 . S
C613 C610 1.387 . S
C614 C615 1.387 . S
C614 H618 0.950 1_554 S
C614 C623 1.390 1_554 S
C615 C614 1.387 . S
C615 C617 1.387 . S
H616 C623 0.950 . S
C617 C615 1.387 . S
C617 C619 1.390 . S
C617 H621 0.950 . S
H618 C614 0.950 1_556 S
C619 C617 1.390 . S
C619 C620 1.387 . S
C619 H622 0.950 . S
C620 C619 1.387 . S
C620 C623 1.387 1_554 S
H621 C617 0.950 . S
H622 C619 0.950 . S
C623 C614 1.390 1_556 S
C623 H616 0.950 . S
C623 C620 1.387 1_556 S
C265 C10 1.601 . S
C270 C21 1.651 . S
C275 C30 1.603 . S
C280 C29 1.650 . S
C285 C65 1.650 . S
C290 C54 1.600 1_556 S
C295 C74 1.600 . S
C300 C73 1.649 . S
C305 C103 1.649 1_554 S
C310 C106 1.600 . S
C315 C118 1.600 . S
C320 C117 1.649 . S
C325 C140 1.600 . S
C330 C139 1.649 . S
C335 C161 1.650 . S
C340 C162 1.603 . S
C345 C183 1.651 . S
C350 C184 1.602 . S
C355 C205 1.650 1_556 S
C360 C206 1.603 . S
C365 C228 1.603 . S
C370 C227 1.651 . S
C375 C249 1.649 . S
C380 C250 1.603 1_554 S
C385 C8 1.489 . S
C390 C172 1.489 . S
C395 C194 1.489 . S
C400 C40 1.490 . S
C405 C216 1.489 . S
C410 C52 1.490 . S
C415 C84 1.489 . S
C420 C238 1.489 . S
C425 C98 1.489 . S
C430 C260 1.490 . S
C435 C128 1.489 . S
C440 C150 1.489 . S
C445 C18 1.240 . S
C450 C230 1.240 . S
C455 C32 1.239 1_556 S
C460 C252 1.241 . S
C465 C142 1.239 1_554 S
C470 C62 1.241 . S
C475 C76 1.240 . S
C480 C164 1.241 . S
C485 C96 1.239 . S
C490 C186 1.241 . S
C495 C208 1.240 . S
C500 C120 1.240 . S
C505 C15 1.231 . S
C510 C197 1.231 . S
C515 C219 1.230 . S
C520 C43 1.230 . S
C525 C241 1.230 . S
C530 C59 1.230 . S
C535 C87 1.231 . S
C540 C263 1.231 . S
C545 C153 1.231 . S
C550 C95 1.231 . S
C555 C131 1.231 . S
C560 C175 1.230 . S
C565 C7 1.493 . S
C570 C235 1.493 . S
C575 C37 1.493 . S
C580 C257 1.493 . S
C585 C51 1.493 . S
C590 C147 1.493 . S
C595 C169 1.490 . S
C600 C81 1.490 . S
C605 C109 1.490 . S
C610 C191 1.493 1_556 S
C615 C213 1.494 . S
C620 C125 1.491 1_554 S
