# Generated by pormake.
# Topology ilc, (8)-cn, num edge types: 1
# Building blocks:
#     Node 0, Type 0, BuildingBlock: LIZSOE_clean_sbu_0, # of connection points: 8
#     Node 1, Type 0, BuildingBlock: LIZSOE_clean_sbu_0, # of connection points: 8
#     Node 2, Type 0, BuildingBlock: LIZSOE_clean_sbu_0, # of connection points: 8
#     Edge 3, Type (0, 0), BuildingBlock: XUDNAN_clean_linker_2, # of connection points: 2
#     Edge 4, Type (0, 0), BuildingBlock: XUDNAN_clean_linker_2, # of connection points: 2
#     Edge 5, Type (0, 0), BuildingBlock: XUDNAN_clean_linker_2, # of connection points: 2
#     Edge 6, Type (0, 0), BuildingBlock: XUDNAN_clean_linker_2, # of connection points: 2
#     Edge 7, Type (0, 0), BuildingBlock: XUDNAN_clean_linker_2, # of connection points: 2
#     Edge 8, Type (0, 0), BuildingBlock: XUDNAN_clean_linker_2, # of connection points: 2
#     Edge 9, Type (0, 0), BuildingBlock: XUDNAN_clean_linker_2, # of connection points: 2
#     Edge 10, Type (0, 0), BuildingBlock: XUDNAN_clean_linker_2, # of connection points: 2
#     Edge 11, Type (0, 0), BuildingBlock: XUDNAN_clean_linker_2, # of connection points: 2
#     Edge 12, Type (0, 0), BuildingBlock: XUDNAN_clean_linker_2, # of connection points: 2
#     Edge 13, Type (0, 0), BuildingBlock: XUDNAN_clean_linker_2, # of connection points: 2
#     Edge 14, Type (0, 0), BuildingBlock: XUDNAN_clean_linker_2, # of connection points: 2
# Relax obj value: 0.405
# Max RMSD: 0.185
# Mean RMSD: 0.185
data_MOF--net-ilc--node1-LIZSOE_clean_sbu_0--edge1-XUDNAN_clean_linker_2
_symmetry_space_group_name_H-M    P1
_symmetry_Int_Tables_number       1
_symmetry_cell_setting            triclinic
loop_
_symmetry_equiv_pos_as_xyz
'x, y, z'
_cell_length_a     20.190784
_cell_length_b     20.182261
_cell_length_c     15.811884
_cell_angle_alpha  90.461373
_cell_angle_beta   91.878713
_cell_angle_gamma 120.92661
loop_
_atom_site_label
_atom_site_type_symbol
_atom_site_fract_x
_atom_site_fract_y
_atom_site_fract_z
_atom_type_partial_charge
Co0 Co 0.16709 0.20282 0.91532 0.0
N1 N 0.17163 0.23236 0.8051 0.0
C2 C 0.18099 0.29876 0.77537 0.0
N3 N 0.20224 0.24095 0.66911 0.0
C4 C 0.1867 0.1995 0.74007 0.0
C5 C 0.19914 0.30367 0.69176 0.0
Co6 Co 1.00257 1.00462 0.23499 0.0
N7 N 1.01999 0.95295 0.32202 0.0
N8 N 1.02897 0.87225 0.4141 0.0
C9 C 0.09868 0.93671 0.40604 0.0
C10 C 0.09138 0.987 0.35763 0.0
C11 C 0.98366 0.88166 0.35609 0.0
Co12 Co 0.07951 0.11672 1.0857 0.0
C13 C 0.9335 0.98731 0.19395 0.0
H14 H 0.13728 1.04537 0.34928 0.0
O15 O 0.17633 0.18117 1.01676 0.0
O16 O 0.15554 0.0923 0.14118 0.0
O17 O 1.0414 1.02927 0.99824 0.0
O18 O 1.01033 0.15163 1.0296 0.0
O19 O 0.08374 0.2148 0.92491 0.0
O20 O 0.07114 0.97972 0.17634 0.0
O21 O 0.98434 0.05071 0.15512 0.0
O22 O 0.08116 0.10689 0.28361 0.0
O23 O 0.09662 0.09476 0.8828 0.0
O24 O 0.22375 0.3008 0.95778 0.0
O25 O 0.11261 0.19537 0.18161 0.0
O26 O 0.92818 0.92035 0.1835 0.0
C27 C 1.0518 1.03141 0.91857 0.0
C28 C 0.90375 0.81855 0.33161 0.0
H29 H 0.89966 0.80231 0.26369 0.0
H30 H 0.88623 0.76659 0.36985 0.0
H31 H 0.86496 0.84018 0.34232 0.0
C32 C 0.14116 1.02809 0.16754 0.0
C33 C 1.02492 0.19503 0.96619 0.0
H34 H 0.17805 0.34211 0.81293 0.0
H35 H 0.23458 0.12744 0.71209 0.0
H36 H 0.13051 0.07656 0.72476 0.0
H37 H 0.19527 0.11128 0.81 0.0
C38 C 0.18706 0.12539 0.74629 0.0
C39 C 0.2294 0.24106 0.97293 0.0
C40 C 0.1106 0.17735 0.26048 0.0
H41 H 0.21107 0.35083 0.65186 0.0
H42 H 0.15103 0.95225 0.44216 0.0
Co43 Co 0.73668 0.39732 0.26593 0.0
N44 N 0.6496 0.32476 0.19988 0.0
C45 C 0.58027 0.30142 0.23197 0.0
N46 N 0.55902 0.21318 0.13491 0.0
C47 C 0.63465 0.2721 0.13751 0.0
C48 C 0.52552 0.23416 0.19321 0.0
Co49 Co 0.70171 0.43455 0.61359 0.0
N50 N 0.73824 0.47136 0.72382 0.0
N51 N 0.69339 0.41278 0.8464 0.0
C52 C 0.6812 0.47242 0.8402 0.0
C53 C 0.7074 0.50724 0.76436 0.0
C54 C 0.73814 0.42241 0.78088 0.0
Co55 Co 0.73384 0.42794 0.41817 0.0
C56 C 0.62851 0.33508 0.56851 0.0
H57 H 0.69165 0.54563 0.73479 0.0
O58 O 0.82034 0.46928 0.32762 0.0
O59 O 0.79334 0.38831 0.47997 0.0
O60 O 0.66816 0.31323 0.37383 0.0
O61 O 0.66982 0.46791 0.34846 0.0
O62 O 0.71948 0.47339 0.22651 0.0
O63 O 0.80477 0.45074 0.59724 0.0
O64 O 0.65565 0.39217 0.51328 0.0
O65 O 0.72862 0.53147 0.58185 0.0
O66 O 0.75703 0.31837 0.29978 0.0
O67 O 0.80478 0.42318 0.19163 0.0
O68 O 0.80022 0.53817 0.47476 0.0
O69 O 0.67202 0.33778 0.63231 0.0
C70 C 0.69743 0.27658 0.3392 0.0
C71 C 0.80315 0.40763 0.78913 0.0
H72 H 0.85736 0.45888 0.76924 0.0
H73 H 0.81044 0.39385 0.85538 0.0
H74 H 0.78995 0.35779 0.74794 0.0
C75 C 0.82251 0.40943 0.55395 0.0
C76 C 0.68126 0.49176 0.27115 0.0
H77 H 0.57095 0.32793 0.28631 0.0
H78 H 0.72396 0.25472 0.09347 0.0
H79 H 0.73629 0.34718 1.06905 0.0
H80 H 0.66568 0.2652 1.01064 0.0
C81 C 0.69341 0.28503 1.07423 0.0
C82 C 0.84783 0.47055 0.25247 0.0
C83 C 0.78458 0.57086 0.53556 0.0
H84 H 0.46597 0.20139 0.21078 0.0
H85 H 0.64574 0.48331 0.8809 0.0
Co86 Co 0.42883 0.79099 0.58948 0.0
N87 N 0.35745 0.74956 0.49907 0.0
C88 C 0.28212 0.70212 0.51305 0.0
N89 N 0.30598 0.65478 0.40002 0.0
C90 C 0.3681 0.72257 0.42553 0.0
C91 C 0.24998 0.64567 0.45089 0.0
Co92 Co 0.32172 0.68161 0.89764 0.0
N93 N 0.32754 0.62601 0.98763 0.0
N94 N 0.35276 0.55125 1.06852 0.0
C95 C 0.37185 0.61618 0.11326 0.0
C96 C 0.35571 0.66139 1.06392 0.0
C97 C 0.3219 0.55636 0.99378 0.0
Co98 Co 0.40722 0.78166 0.74841 0.0
C99 C 0.25964 0.66865 0.85951 0.0
H100 H 0.36599 0.71778 1.08205 0.0
O101 O 0.50719 0.83616 0.67391 0.0
O102 O 0.47795 0.74918 0.81131 0.0
O103 O 0.34504 0.67738 0.67918 0.0
O104 O 0.34789 0.82897 0.68383 0.0
O105 O 0.42744 0.88087 0.58216 0.0
O106 O 0.38013 0.64571 0.84291 0.0
O107 O 0.31114 0.73267 0.82062 0.0
O108 O 0.40996 0.77937 0.94598 0.0
O109 O 0.43065 0.69673 0.59023 0.0
O110 O 0.50348 0.8302 0.52959 0.0
O111 O 0.45457 0.86694 0.84132 0.0
O112 O 0.24575 0.60042 0.83811 0.0
C113 C 0.36974 0.64898 0.62532 0.0
C114 C 0.28127 0.49073 0.92932 0.0
H115 H 0.28653 0.50997 0.86359 0.0
H116 H 0.30403 0.45129 0.93396 0.0
H117 H 0.21879 0.45732 0.94201 0.0
C118 C 0.45152 0.68451 0.84399 0.0
C119 C 0.37222 0.87533 0.62104 0.0
H120 H 0.25513 0.70149 0.57125 0.0
H121 H 0.42451 0.74269 0.30683 0.0
H122 H 0.48429 0.75769 0.39998 0.0
H123 H 0.45795 0.82798 0.37448 0.0
C124 C 0.43772 0.76537 0.3733 0.0
C125 C 0.54221 0.85213 0.60025 0.0
C126 C 0.45202 0.84955 0.92134 0.0
H127 H 0.19321 0.59526 0.45191 0.0
H128 H 0.39504 0.62954 0.17792 0.0
H129 H 0.07143 0.17944 0.5722 0.0
H130 H 0.30161 0.2181 0.57332 0.0
H131 H 0.24904 0.07857 0.55537 0.0
H132 H 1.00174 1.02536 0.71147 0.0
H133 H 0.90782 0.98791 0.66159 0.0
H134 H 0.97662 0.08797 0.65795 0.0
H135 H 0.94506 0.06531 0.49596 0.0
H136 H 0.8874 0.96193 0.50407 0.0
H137 H 0.96862 1.00465 0.43648 0.0
H138 H 0.17455 0.93865 0.6092 0.0
H139 H 0.09159 0.81368 0.53578 0.0
H140 H 0.9088 0.85916 0.50935 0.0
C141 C 0.11068 0.15887 0.56242 0.0
C142 C 0.18945 0.20661 0.586 0.0
C143 C 0.23982 0.1806 0.56321 0.0
C144 C 0.21036 0.1007 0.55566 0.0
C145 C 0.13146 0.05207 0.56697 0.0
C146 C 0.08135 0.07934 0.56007 0.0
C147 C 0.99928 1.01575 0.57226 0.0
C148 C 0.96997 1.02984 0.65559 0.0
C149 C 0.947 1.01134 0.49741 0.0
C150 C 1.0107 0.94676 0.57761 0.0
C151 C 0.08873 0.97221 0.59187 0.0
C152 C 0.11484 0.92 0.59306 0.0
C153 C 0.06685 0.84866 0.55047 0.0
C154 C 1.00572 0.84309 0.49812 0.0
C155 C 0.96454 0.87391 0.53669 0.0
H156 H 0.68155 0.27362 0.80637 0.0
H157 H 0.57077 0.37214 0.94682 0.0
H158 H 0.46148 0.24369 0.96401 0.0
H159 H 0.53882 1.01412 0.79994 0.0
H160 H 0.5726 0.09384 0.72958 0.0
H161 H 0.47834 0.05236 0.77149 0.0
H162 H 0.69106 0.15674 0.82288 0.0
H163 H 0.65602 0.08899 0.90692 0.0
H164 H 0.69212 0.19005 0.92778 0.0
H165 H 0.34743 0.07121 0.96519 0.0
H166 H 0.40004 0.11918 0.10806 0.0
H167 H 0.61187 0.13704 1.03784 0.0
C168 C 0.63268 0.26968 0.83606 0.0
C169 C 0.63321 0.33579 0.868 0.0
C170 C 0.57024 0.32438 0.91483 0.0
C171 C 0.50622 0.25045 0.92298 0.0
C172 C 0.50437 0.18584 0.88561 0.0
C173 C 0.57014 0.19592 0.8484 0.0
C174 C 0.57545 0.12543 0.86348 0.0
C175 C 0.5389 0.0681 0.78681 0.0
C176 C 0.65838 0.1414 0.88184 0.0
C177 C 0.52293 0.09725 0.93816 0.0
C178 C 0.46026 0.10669 0.91875 0.0
C179 C 0.40691 0.08986 0.9811 0.0
C180 C 0.43677 0.11506 1.06284 0.0
C181 C 0.51669 0.14641 1.07829 0.0
C182 C 0.55425 0.12251 1.02216 0.0
H183 H 0.47356 0.56597 0.15157 0.0
H184 H 0.24234 0.39999 1.06688 0.0
H185 H 0.22558 0.3295 0.19235 0.0
H186 H 0.42614 0.41744 0.38601 0.0
H187 H 0.49228 0.50773 0.44083 0.0
H188 H 0.52226 0.47583 0.35136 0.0
H189 H 0.56231 0.60266 0.27305 0.0
H190 H 0.54153 0.6316 0.37067 0.0
H191 H 0.4987 0.64062 0.27326 0.0
H192 H 0.19569 0.4216 0.25757 0.0
H193 H 0.19565 0.53623 0.31279 0.0
H194 H 0.42657 0.62907 0.41573 0.0
C195 C 0.42292 0.50975 0.15821 0.0
C196 C 0.35981 0.48945 0.10148 0.0
C197 C 0.29274 0.41699 0.1077 0.0
C198 C 0.28278 0.37668 0.18135 0.0
C199 C 0.33294 0.41814 0.25013 0.0
C200 C 0.41011 0.47364 0.23662 0.0
C201 C 0.44723 0.52119 0.31809 0.0
C202 C 0.47302 0.47784 0.37773 0.0
C203 C 0.51631 0.60395 0.30755 0.0
C204 C 0.37697 0.52022 0.34868 0.0
C205 C 0.31126 0.45986 0.30826 0.0
C206 C 0.24513 0.46505 0.29509 0.0
C207 C 0.24559 0.53084 0.32351 0.0
C208 C 0.30999 0.5906 0.36662 0.0
C209 C 0.37576 0.58411 0.38184 0.0
H210 H 0.25106 0.80494 0.49984 0.0
H211 H 0.40744 1.02491 0.625 0.0
H212 H 0.3811 0.09076 0.50824 0.0
H213 H 0.34204 0.89882 0.292 0.0
H214 H 0.25682 0.83033 0.23033 0.0
H215 H 0.28441 0.80112 0.32625 0.0
H216 H 0.15213 0.75217 0.37952 0.0
H217 H 0.12093 0.78374 0.28877 0.0
H218 H 0.11524 0.81472 0.39353 0.0
H219 H 0.34302 0.13272 0.37019 0.0
H220 H 0.2736 0.14451 0.24559 0.0
H221 H 0.14725 0.89569 0.20672 0.0
C222 C 0.27992 0.86657 0.50391 0.0
C223 C 0.3302 0.90879 0.57475 0.0
C224 C 0.36555 0.99036 0.57495 0.0
C225 C 0.353 1.02842 0.50696 0.0
C226 C 0.30779 0.98477 0.43591 0.0
C227 C 0.27213 0.90532 0.43382 0.0
C228 C 0.23251 0.87219 0.34687 0.0
C229 C 0.28184 0.84929 0.29587 0.0
C230 C 0.15035 0.80192 0.3525 0.0
C231 C 0.236 0.94308 0.30822 0.0
C232 C 0.28632 1.00854 0.35695 0.0
C233 C 0.30293 0.08169 0.33258 0.0
C234 C 0.26303 0.08784 0.26104 0.0
C235 C 0.20243 1.02106 0.21766 0.0
C236 C 0.1922 0.9479 0.23891 0.0
H237 H 0.20648 0.53909 0.58257 0.0
H238 H 0.43465 0.56617 0.59587 0.0
H239 H 0.38208 0.44176 0.52177 0.0
H240 H 0.09782 0.31018 0.59394 0.0
H241 H 1.02346 0.28573 0.51628 0.0
H242 H 1.05655 0.37057 0.58143 0.0
H243 H 0.11076 0.42052 0.35904 0.0
H244 H 0.10813 0.47424 0.4509 0.0
H245 H 1.03202 0.37985 0.42213 0.0
H246 H 0.31985 0.32353 0.44574 0.0
H247 H 0.24957 0.22455 0.33376 0.0
H248 H 0.05745 0.26264 0.34588 0.0
C249 C 0.2448 0.51782 0.5706 0.0
C250 C 0.32643 0.56447 0.59513 0.0
C251 C 0.37333 0.53333 0.57909 0.0
C252 C 0.34384 0.46207 0.53717 0.0
C253 C 0.26653 0.41985 0.51058 0.0
C254 C 0.21558 0.44497 0.52536 0.0
C255 C 0.13485 0.3844 0.48257 0.0
C256 C 0.07567 0.33527 0.54809 0.0
C257 C 0.09604 0.41789 0.4256 0.0
C258 C 0.15627 0.33284 0.43234 0.0
C259 C 0.22999 0.35081 0.45654 0.0
C260 C 0.26343 0.31113 0.42331 0.0
C261 C 0.22308 0.25474 0.35961 0.0
C262 C 0.15017 0.23862 0.32802 0.0
C263 C 0.11481 0.27629 0.36674 0.0
H264 H 0.60896 0.78558 0.52717 0.0
H265 H 0.65798 1.00714 0.62531 0.0
H266 H 0.76637 0.07254 0.52754 0.0
H267 H 0.77956 0.80875 0.4506 0.0
H268 H 0.73186 0.75993 0.35047 0.0
H269 H 0.67836 0.73794 0.44462 0.0
H270 H 0.58847 0.76053 0.35802 0.0
H271 H 0.64263 0.812 0.26919 0.0
H272 H 0.60951 0.85691 0.33975 0.0
H273 H 0.86541 0.1107 0.39953 0.0
H274 H 0.94143 0.1139 0.27756 0.0
H275 H 0.7947 0.86603 0.24405 0.0
C276 C 0.64638 0.84786 0.53316 0.0
C277 C 0.62688 0.89058 0.58781 0.0
C278 C 0.67343 0.97249 0.58753 0.0
C279 C 0.73396 1.01013 0.52998 0.0
C280 C 0.74507 0.96522 0.4702 0.0
C281 C 0.7012 0.88557 0.47178 0.0
C282 C 0.70775 0.84922 0.39098 0.0
C283 C 0.72586 0.78544 0.41012 0.0
C284 C 0.63279 0.81769 0.3363 0.0
C285 C 0.77251 0.9188 0.34974 0.0
C286 C 0.7916 0.98623 0.39374 0.0
C287 C 0.84993 0.0577 0.36528 0.0
C288 C 0.89262 0.05914 0.29488 0.0
C289 C 0.87589 0.98982 0.25161 0.0
C290 C 0.81123 0.91991 0.27683 0.0
H291 H 0.95767 0.4611 0.65124 0.0
H292 H 0.74685 0.25388 0.56373 0.0
H293 H 0.76929 0.17842 0.67087 0.0
H294 H 0.07529 0.3605 0.72132 0.0
H295 H 0.11823 0.43478 0.80159 0.0
H296 H 0.0882 0.45502 0.70172 0.0
H297 H 1.00202 0.49513 0.79589 0.0
H298 H 1.04395 0.47197 0.88224 0.0
H299 H 0.94033 0.42502 0.87047 0.0
H300 H 0.80683 0.1277 0.79831 0.0
H301 H 0.87348 0.09931 0.91411 0.0
H302 H 0.0605 0.3378 0.91875 0.0
C303 C 0.91837 0.39924 0.65245 0.0
C304 C 0.85041 0.36341 0.5994 0.0
C305 C 0.79949 0.28245 0.6033 0.0
C306 C 0.81141 0.23917 0.66469 0.0
C307 C 0.87581 0.27714 0.7205 0.0
C308 C 0.93065 0.35461 0.71234 0.0
C309 C 0.99275 0.38219 0.78318 0.0
C310 C 0.07317 0.40979 0.74939 0.0
C311 C 0.99441 0.44708 0.83617 0.0
C312 C 0.96403 0.30813 0.83223 0.0
C313 C 0.89601 0.24849 0.79554 0.0
C314 C 0.86022 0.1739 0.82745 0.0
C315 C 0.89772 0.15837 0.89443 0.0
C316 C 0.97089 0.21678 0.92771 0.0
C317 C 1.00281 0.29298 0.89765 0.0
H318 H 0.7542 0.67353 0.61066 0.0
H319 H 0.93963 0.63039 0.56767 0.0
H320 H 1.02254 0.733 0.67477 0.0
H321 H 0.84229 0.86142 0.63307 0.0
H322 H 0.80314 0.87632 0.72792 0.0
H323 H 0.74773 0.79021 0.66275 0.0
H324 H 0.72891 0.69606 0.77563 0.0
H325 H 0.77217 0.77696 0.8499 0.0
H326 H 0.8089 0.71232 0.84472 0.0
H327 H 0.09131 0.8543 0.77108 0.0
H328 H 0.13419 0.96938 0.86439 0.0
H329 H 0.90157 0.92916 0.85433 0.0
C330 C 0.81365 0.68832 0.62073 0.0
C331 C 0.84194 0.6469 0.57633 0.0
C332 C 0.91806 0.66412 0.59647 0.0
C333 C 0.96475 0.72099 0.65906 0.0
C334 C 0.93566 0.7621 0.69954 0.0
C335 C 0.86088 0.74467 0.68296 0.0
C336 C 0.84115 0.79268 0.74001 0.0
C337 C 0.80691 0.83291 0.68806 0.0
C338 C 0.78446 0.74142 0.80652 0.0
C339 C 0.92028 0.8485 0.78216 0.0
C340 C 0.97313 0.82761 0.76013 0.0
C341 C 1.05008 0.8701 0.78992 0.0
C342 C 0.07399 0.93547 0.84301 0.0
C343 C 1.02135 0.9579 0.86757 0.0
C344 C 0.94298 0.91294 0.8375 0.0
H345 H 0.54962 0.40611 0.6159 0.0
H346 H 0.53054 0.183 0.60277 0.0
H347 H 0.4272 0.13357 0.70641 0.0
H348 H 0.51705 0.41853 0.85219 0.0
H349 H 0.48794 0.47725 0.79764 0.0
H350 H 0.55417 0.45902 0.75053 0.0
H351 H 0.43154 0.43169 0.64613 0.0
H352 H 0.35951 0.40689 0.72339 0.0
H353 H 0.348 0.33623 0.64389 0.0
H354 H 0.33855 0.11488 0.83175 0.0
H355 H 0.26603 0.12509 0.95117 0.0
H356 H 0.3417 0.35947 0.87944 0.0
C357 C 0.52077 0.34559 0.63118 0.0
C358 C 0.54696 0.29804 0.59763 0.0
C359 C 0.50986 0.22013 0.62382 0.0
C360 C 0.45173 0.19174 0.6842 0.0
C361 C 0.43098 0.24168 0.72 0.0
C362 C 0.46384 0.31672 0.69316 0.0
C363 C 0.43528 0.36045 0.74443 0.0
C364 C 0.50266 0.43226 0.78929 0.0
C365 C 0.39008 0.38465 0.68609 0.0
C366 C 0.38394 0.29975 0.80711 0.0
C367 C 0.38172 0.2314 0.79196 0.0
C368 C 0.34141 0.16886 0.84533 0.0
C369 C 0.30106 0.17545 0.91426 0.0
C370 C 0.29582 0.2421 0.92574 0.0
C371 C 0.34232 0.30643 0.87347 0.0
H372 H 0.72099 0.64037 0.21456 0.0
H373 H 0.53815 0.39967 0.19862 0.0
H374 H 0.48757 0.42254 1.06705 0.0
H375 H 0.58513 0.70769 0.15687 0.0
H376 H 0.65829 0.79056 0.10402 0.0
H377 H 0.68575 0.74831 0.18812 0.0
H378 H 0.77695 0.73881 1.08344 0.0
H379 H 0.74246 0.77462 0.99935 0.0
H380 H 0.7358 0.68238 0.98656 0.0
H381 H 0.44873 0.46916 0.94464 0.0
H382 H 0.41266 0.5365 0.84149 0.0
H383 H 0.59129 0.75671 0.95149 0.0
C384 C 0.66847 0.59304 0.1852 0.0
C385 C 0.63436 0.51707 0.219 0.0
C386 C 0.56697 0.45756 0.17577 0.0
C387 C 0.53813 0.47001 0.09926 0.0
C388 C 0.57246 0.54458 1.06828 0.0
C389 C 0.63376 0.60609 0.11174 0.0
C390 C 0.65097 0.6817 1.06979 0.0
C391 C 0.64459 0.73533 0.13347 0.0
C392 C 0.73135 0.72175 1.0325 0.0
C393 C 0.58692 0.65304 0.99946 0.0
C394 C 0.54491 0.57329 0.99899 0.0
C395 C 0.4818 0.53147 0.94338 0.0
C396 C 0.46073 0.57073 0.88588 0.0
C397 C 0.49671 0.65215 0.88823 0.0
C398 C 0.56263 0.69442 0.94556 0.0
H399 H 0.60337 0.94421 0.99479 0.0
H400 H 0.36527 0.88363 1.01534 0.0
H401 H 0.39994 0.96122 0.14798 0.0
H402 H 0.62698 0.95101 0.2443 0.0
H403 H 0.72779 1.02379 0.244 0.0
H404 H 0.68476 0.95148 0.15964 0.0
H405 H 0.72974 0.05717 1.04782 0.0
H406 H 0.77782 0.12504 0.1348 0.0
H407 H 0.71506 0.13658 1.0632 0.0
H408 H 0.45973 0.05203 0.27503 0.0
H409 H 0.54257 0.17134 0.36091 0.0
H410 H 0.74533 0.188 0.25308 0.0
C411 C 0.55916 0.94871 1.02664 0.0
C412 C 0.48155 0.90954 0.99232 0.0
C413 C 0.42508 0.91434 1.03853 0.0
C414 C 0.44393 0.95682 0.11548 0.0
C415 C 0.52017 0.99487 0.14774 0.0
C416 C 0.57752 0.99213 0.10445 0.0
C417 C 0.65534 1.04204 0.15299 0.0
C418 C 0.67487 0.98885 0.20311 0.0
C419 C 0.72281 0.09315 0.09619 0.0
C420 C 0.63509 0.08742 0.21501 0.0
C421 C 0.5558 0.05253 0.21769 0.0
C422 C 0.52196 0.07999 0.27315 0.0
C423 C 0.56973 0.14827 0.32213 0.0
C424 C 0.65057 0.19166 0.31209 0.0
C425 C 0.68362 0.15773 0.2612 0.0
H426 H 0.1729 0.54941 0.95955 0.0
H427 H 0.21773 0.77945 0.90819 0.0
H428 H 0.12668 0.76344 1.02118 0.0
H429 H 0.97828 0.44707 1.01415 0.0
H430 H 0.99856 0.39975 0.09776 0.0
H431 H 0.05883 0.43079 1.00933 0.0
H432 H 0.17656 0.5064 0.11137 0.0
H433 H 0.11348 0.47716 0.19878 0.0
H434 H 0.18088 0.57901 0.18216 0.0
H435 H 1.01313 0.7069 0.13444 0.0
H436 H 0.90501 0.62508 0.22718 0.0
H437 H 0.96214 0.44669 0.21383 0.0
C438 C 0.16397 0.59719 0.96985 0.0
C439 C 0.20202 0.66531 0.92206 0.0
C440 C 0.18868 0.72601 0.94195 0.0
C441 C 0.13725 0.71728 1.00658 0.0
C442 C 0.10196 0.64872 1.05263 0.0
C443 C 0.11629 0.59047 1.03462 0.0
C444 C 0.07922 0.52502 0.09566 0.0
C445 C 1.02549 0.44621 1.05106 0.0
C446 C 0.14141 0.52187 0.15042 0.0
C447 C 1.03448 0.55072 0.1469 0.0
C448 C 1.0481 0.62249 0.12256 0.0
C449 C 1.00435 0.652 0.15487 0.0
C450 C 0.94345 0.60548 0.20861 0.0
C451 C 0.92699 0.53044 0.2299 0.0
C452 C 0.9755 0.50492 0.20138 0.0
loop_
_geom_bond_atom_site_label_1
_geom_bond_atom_site_label_2
_geom_bond_distance
_geom_bond_site_symmetry_2
_ccdc_geom_bond_type
Co0 N1 2.034 1_455 S
Co0 O15 2.262 . S
Co0 O19 1.958 1_455 S
Co0 O23 1.950 1_445 S
Co0 O24 2.057 . S
N1 Co0 2.034 1_655 S
N1 C2 1.366 . S
N1 C4 1.332 1_645 S
C2 N1 1.366 . S
C2 C5 1.377 . S
C2 H34 0.931 . S
N3 C4 1.346 1_655 S
N3 C5 1.337 1_565 S
C4 N1 1.332 1_465 S
C4 N3 1.346 1_455 S
C4 C38 1.361 . S
C5 C2 1.377 . S
C5 N3 1.337 1_545 S
C5 H41 0.930 . S
Co6 N7 2.034 1_655 S
Co6 O20 1.950 1_645 S
Co6 O21 2.262 1_545 S
Co6 O22 1.958 1_655 S
Co6 O26 2.057 1_545 S
N7 Co6 2.034 1_455 S
N7 C10 1.366 . S
N7 C11 1.332 1_445 S
N8 C9 1.337 1_565 S
N8 C11 1.346 1_455 S
C9 N8 1.337 1_545 S
C9 C10 1.377 . S
C9 H42 0.930 . S
C10 N7 1.366 . S
C10 C9 1.377 . S
C10 H14 0.931 . S
C11 N7 1.332 1_665 S
C11 N8 1.346 1_655 S
C11 C28 1.361 . S
Co12 O15 2.097 1_554 S
Co12 O16 2.065 1_545 S
Co12 O17 2.065 1_444 S
Co12 O18 2.042 1_454 S
Co12 O21 2.097 1_445 S
Co12 O25 2.042 . S
C13 O21 1.253 . S
C13 O26 1.263 . S
H14 C10 0.931 . S
O15 Co0 2.262 . S
O15 Co12 2.097 1_556 S
O15 C39 1.253 . S
O16 Co12 2.065 1_565 S
O16 C32 1.221 . S
O17 Co12 2.065 1_666 S
O17 C27 1.221 . S
O18 Co12 2.042 1_656 S
O18 C33 1.237 . S
O19 Co0 1.958 1_655 S
O19 C33 1.278 . S
O20 Co6 1.950 1_465 S
O20 C32 1.277 . S
O21 Co6 2.262 1_565 S
O21 Co12 2.097 1_665 S
O21 C13 1.253 . S
O22 Co6 1.958 1_455 S
O22 C40 1.278 . S
O23 Co0 1.950 1_665 S
O23 C27 1.277 . S
O24 Co0 2.057 . S
O24 C39 1.263 . S
O25 Co12 2.042 . S
O25 C40 1.237 . S
O26 Co6 2.057 1_565 S
O26 C13 1.263 . S
C27 O17 1.221 . S
C27 O23 1.277 . S
C28 C11 1.361 . S
C28 H29 0.960 . S
C28 H30 0.961 . S
C28 H31 0.961 . S
H29 C28 0.960 . S
H30 C28 0.961 . S
H31 C28 0.961 . S
C32 O16 1.221 . S
C32 O20 1.277 . S
C33 O18 1.237 . S
C33 O19 1.278 . S
H34 C2 0.931 . S
H35 C38 0.961 . S
H36 C38 0.961 . S
H37 C38 0.960 . S
C38 C4 1.361 . S
C38 H35 0.961 . S
C38 H36 0.961 . S
C38 H37 0.960 . S
C39 O15 1.253 . S
C39 O24 1.263 . S
C40 O22 1.278 . S
C40 O25 1.237 . S
H41 C5 0.930 . S
H42 C9 0.930 . S
Co43 N44 2.034 . S
Co43 O58 2.262 . S
Co43 O62 1.958 . S
Co43 O66 1.950 . S
Co43 O67 2.057 . S
N44 Co43 2.034 . S
N44 C45 1.366 1_554 S
N44 C47 1.332 1_554 S
C45 N44 1.366 1_556 S
C45 C48 1.377 . S
C45 H77 0.931 1_556 S
N46 C47 1.346 . S
N46 C48 1.337 . S
C47 N44 1.332 1_556 S
C47 N46 1.346 . S
C47 C81 1.361 1_556 S
C48 C45 1.377 . S
C48 N46 1.337 . S
C48 H84 0.930 . S
Co49 N50 2.034 . S
Co49 O63 1.950 . S
Co49 O64 2.262 . S
Co49 O65 1.958 . S
Co49 O69 2.057 . S
N50 Co49 2.034 . S
N50 C53 1.366 . S
N50 C54 1.332 . S
N51 C52 1.337 . S
N51 C54 1.346 . S
C52 N51 1.337 . S
C52 C53 1.377 . S
C52 H85 0.930 . S
C53 N50 1.366 . S
C53 C52 1.377 . S
C53 H57 0.931 . S
C54 N50 1.332 . S
C54 N51 1.346 . S
C54 C71 1.361 . S
Co55 O58 2.097 . S
Co55 O59 2.065 . S
Co55 O60 2.065 . S
Co55 O61 2.042 . S
Co55 O64 2.097 . S
Co55 O68 2.042 . S
C56 O64 1.253 . S
C56 O69 1.263 . S
H57 C53 0.931 . S
O58 Co43 2.262 . S
O58 Co55 2.097 . S
O58 C82 1.253 . S
O59 Co55 2.065 . S
O59 C75 1.221 . S
O60 Co55 2.065 . S
O60 C70 1.221 . S
O61 Co55 2.042 . S
O61 C76 1.237 . S
O62 Co43 1.958 . S
O62 C76 1.278 . S
O63 Co49 1.950 . S
O63 C75 1.277 . S
O64 Co49 2.262 . S
O64 Co55 2.097 . S
O64 C56 1.253 . S
O65 Co49 1.958 . S
O65 C83 1.278 . S
O66 Co43 1.950 . S
O66 C70 1.277 . S
O67 Co43 2.057 . S
O67 C82 1.263 . S
O68 Co55 2.042 . S
O68 C83 1.237 . S
O69 Co49 2.057 . S
O69 C56 1.263 . S
C70 O60 1.221 . S
C70 O66 1.277 . S
C71 C54 1.361 . S
C71 H72 0.960 . S
C71 H73 0.961 . S
C71 H74 0.961 . S
H72 C71 0.960 . S
H73 C71 0.961 . S
H74 C71 0.961 . S
C75 O59 1.221 . S
C75 O63 1.277 . S
C76 O61 1.237 . S
C76 O62 1.278 . S
H77 C45 0.931 1_554 S
H78 C81 0.961 1_556 S
H79 C81 0.961 1_556 S
H80 C81 0.960 . S
C81 C47 1.361 1_554 S
C81 H78 0.961 1_554 S
C81 H79 0.961 1_554 S
C81 H80 0.960 . S
C82 O58 1.253 . S
C82 O67 1.263 . S
C83 O65 1.278 . S
C83 O68 1.237 . S
H84 C48 0.930 . S
H85 C52 0.930 . S
Co86 N87 2.034 . S
Co86 O101 2.262 . S
Co86 O105 1.958 . S
Co86 O109 1.950 . S
Co86 O110 2.057 . S
N87 Co86 2.034 . S
N87 C88 1.366 . S
N87 C90 1.332 . S
C88 N87 1.366 . S
C88 C91 1.377 . S
C88 H120 0.931 . S
N89 C90 1.346 . S
N89 C91 1.337 . S
C90 N87 1.332 . S
C90 N89 1.346 . S
C90 C124 1.361 . S
C91 C88 1.377 . S
C91 N89 1.337 . S
C91 H127 0.930 . S
Co92 N93 2.034 . S
Co92 O106 1.950 . S
Co92 O107 2.262 . S
Co92 O108 1.958 . S
Co92 O112 2.057 . S
N93 Co92 2.034 . S
N93 C96 1.366 1_556 S
N93 C97 1.332 1_556 S
N94 C95 1.337 . S
N94 C97 1.346 . S
C95 N94 1.337 . S
C95 C96 1.377 . S
C95 H128 0.930 . S
C96 N93 1.366 1_554 S
C96 C95 1.377 . S
C96 H100 0.931 1_554 S
C97 N93 1.332 1_554 S
C97 N94 1.346 . S
C97 C114 1.361 1_554 S
Co98 O101 2.097 . S
Co98 O102 2.065 . S
Co98 O103 2.065 . S
Co98 O104 2.042 . S
Co98 O107 2.097 . S
Co98 O111 2.042 . S
C99 O107 1.253 . S
C99 O112 1.263 . S
H100 C96 0.931 1_556 S
O101 Co86 2.262 . S
O101 Co98 2.097 . S
O101 C125 1.253 . S
O102 Co98 2.065 . S
O102 C118 1.221 . S
O103 Co98 2.065 . S
O103 C113 1.221 . S
O104 Co98 2.042 . S
O104 C119 1.237 . S
O105 Co86 1.958 . S
O105 C119 1.278 . S
O106 Co92 1.950 . S
O106 C118 1.277 . S
O107 Co92 2.262 . S
O107 Co98 2.097 . S
O107 C99 1.253 . S
O108 Co92 1.958 . S
O108 C126 1.278 . S
O109 Co86 1.950 . S
O109 C113 1.277 . S
O110 Co86 2.057 . S
O110 C125 1.263 . S
O111 Co98 2.042 . S
O111 C126 1.237 . S
O112 Co92 2.057 . S
O112 C99 1.263 . S
C113 O103 1.221 . S
C113 O109 1.277 . S
C114 C97 1.361 1_556 S
C114 H115 0.960 . S
C114 H116 0.961 1_556 S
C114 H117 0.961 1_556 S
H115 C114 0.960 . S
H116 C114 0.961 1_554 S
H117 C114 0.961 1_554 S
C118 O102 1.221 . S
C118 O106 1.277 . S
C119 O104 1.237 . S
C119 O105 1.278 . S
H120 C88 0.931 . S
H121 C124 0.961 . S
H122 C124 0.961 . S
H123 C124 0.960 . S
C124 C90 1.361 . S
C124 H121 0.961 . S
C124 H122 0.961 . S
C124 H123 0.960 . S
C125 O101 1.253 . S
C125 O110 1.263 . S
C126 O108 1.278 . S
C126 O111 1.237 . S
H127 C91 0.930 . S
H128 C95 0.930 . S
H129 C141 0.930 . S
H130 C143 0.930 . S
H131 C144 0.930 . S
H132 C148 0.959 . S
H133 C148 0.959 . S
H134 C148 0.961 . S
H135 C149 0.960 . S
H136 C149 0.961 . S
H137 C149 0.959 . S
H138 C152 0.929 . S
H139 C153 0.931 . S
H140 C155 0.930 . S
C141 H129 0.930 . S
C141 C142 1.405 . S
C141 C146 1.399 . S
C142 C141 1.405 . S
C142 C143 1.369 1_545 S
C143 H130 0.930 . S
C143 C142 1.369 1_565 S
C143 C144 1.388 . S
C144 H131 0.930 . S
C144 C143 1.388 . S
C144 C145 1.390 . S
C145 C144 1.390 . S
C145 C146 1.394 1_565 S
C145 C151 1.463 1_455 S
C146 C141 1.399 . S
C146 C145 1.394 1_545 S
C146 C147 1.516 . S
C147 C146 1.516 . S
C147 C148 1.502 1_455 S
C147 C149 1.561 . S
C147 C150 1.526 1_455 S
C148 H132 0.959 . S
C148 H133 0.959 . S
C148 H134 0.961 . S
C148 C147 1.502 1_655 S
C149 H135 0.960 . S
C149 H136 0.961 . S
C149 H137 0.959 . S
C149 C147 1.561 . S
C150 C147 1.526 1_655 S
C150 C151 1.402 1_545 S
C150 C155 1.390 . S
C151 C145 1.463 1_655 S
C151 C150 1.402 1_565 S
C151 C152 1.396 . S
C152 H138 0.929 . S
C152 C151 1.396 . S
C152 C153 1.385 . S
C153 H139 0.931 . S
C153 C152 1.385 . S
C153 C154 1.389 . S
C154 C153 1.389 . S
C154 C155 1.387 1_565 S
C155 H140 0.930 . S
C155 C150 1.390 . S
C155 C154 1.387 1_545 S
H156 C168 0.930 . S
H157 C170 0.930 . S
H158 C171 0.930 . S
H159 C175 0.959 . S
H160 C175 0.959 . S
H161 C175 0.961 . S
H162 C176 0.960 . S
H163 C176 0.961 . S
H164 C176 0.959 . S
H165 C179 0.929 . S
H166 C180 0.931 . S
H167 C182 0.930 . S
C168 H156 0.930 . S
C168 C169 1.399 . S
C168 C173 1.399 . S
C169 C168 1.399 . S
C169 C170 1.376 . S
C170 H157 0.930 . S
C170 C169 1.376 . S
C170 C171 1.388 . S
C171 H158 0.930 . S
C171 C170 1.388 . S
C171 C172 1.390 . S
C172 C171 1.390 . S
C172 C173 1.394 . S
C172 C178 1.465 . S
C173 C168 1.399 . S
C173 C172 1.394 . S
C173 C174 1.516 . S
C174 C173 1.516 . S
C174 C175 1.502 . S
C174 C176 1.561 . S
C174 C177 1.526 . S
C175 H159 0.959 . S
C175 H160 0.959 . S
C175 H161 0.961 . S
C175 C174 1.502 . S
C176 H162 0.960 . S
C176 H163 0.961 . S
C176 H164 0.959 . S
C176 C174 1.561 . S
C177 C174 1.526 . S
C177 C178 1.396 . S
C177 C182 1.390 . S
C178 C172 1.465 . S
C178 C177 1.396 . S
C178 C179 1.399 . S
C179 H165 0.929 . S
C179 C178 1.399 . S
C179 C180 1.385 1_556 S
C180 H166 0.931 . S
C180 C179 1.385 1_554 S
C180 C181 1.389 . S
C181 C180 1.389 . S
C181 C182 1.387 1_554 S
C182 H167 0.930 . S
C182 C177 1.390 . S
C182 C181 1.387 1_556 S
H183 C195 0.930 . S
H184 C197 0.930 1_556 S
H185 C198 0.930 . S
H186 C202 0.959 . S
H187 C202 0.959 . S
H188 C202 0.961 . S
H189 C203 0.960 . S
H190 C203 0.961 . S
H191 C203 0.959 . S
H192 C206 0.929 . S
H193 C207 0.931 . S
H194 C209 0.930 . S
C195 H183 0.930 . S
C195 C196 1.399 1_554 S
C195 C200 1.399 . S
C196 C195 1.399 1_556 S
C196 C197 1.376 1_556 S
C197 H184 0.930 1_554 S
C197 C196 1.376 1_554 S
C197 C198 1.388 . S
C198 H185 0.930 . S
C198 C197 1.388 . S
C198 C199 1.390 . S
C199 C198 1.390 . S
C199 C200 1.394 . S
C199 C205 1.465 . S
C200 C195 1.399 . S
C200 C199 1.394 . S
C200 C201 1.516 . S
C201 C200 1.516 . S
C201 C202 1.502 . S
C201 C203 1.561 . S
C201 C204 1.526 . S
C202 H186 0.959 . S
C202 H187 0.959 . S
C202 H188 0.961 . S
C202 C201 1.502 . S
C203 H189 0.960 . S
C203 H190 0.961 . S
C203 H191 0.959 . S
C203 C201 1.561 . S
C204 C201 1.526 . S
C204 C205 1.396 . S
C204 C209 1.390 . S
C205 C199 1.465 . S
C205 C204 1.396 . S
C205 C206 1.399 . S
C206 H192 0.929 . S
C206 C205 1.399 . S
C206 C207 1.385 . S
C207 H193 0.931 . S
C207 C206 1.385 . S
C207 C208 1.389 . S
C208 C207 1.389 . S
C208 C209 1.387 . S
C209 H194 0.930 . S
C209 C204 1.390 . S
C209 C208 1.387 . S
H210 C222 0.930 . S
H211 C224 0.930 . S
H212 C225 0.930 . S
H213 C229 0.959 . S
H214 C229 0.959 . S
H215 C229 0.961 . S
H216 C230 0.960 . S
H217 C230 0.961 . S
H218 C230 0.959 . S
H219 C233 0.929 . S
H220 C234 0.931 . S
H221 C236 0.930 . S
C222 H210 0.930 . S
C222 C223 1.399 . S
C222 C227 1.399 . S
C223 C222 1.399 . S
C223 C224 1.376 . S
C224 H211 0.930 . S
C224 C223 1.376 . S
C224 C225 1.388 . S
C225 H212 0.930 . S
C225 C224 1.388 . S
C225 C226 1.390 . S
C226 C225 1.390 . S
C226 C227 1.394 . S
C226 C232 1.465 . S
C227 C222 1.399 . S
C227 C226 1.394 . S
C227 C228 1.516 . S
C228 C227 1.516 . S
C228 C229 1.502 . S
C228 C230 1.561 . S
C228 C231 1.526 . S
C229 H213 0.959 . S
C229 H214 0.959 . S
C229 H215 0.961 . S
C229 C228 1.502 . S
C230 H216 0.960 . S
C230 H217 0.961 . S
C230 H218 0.959 . S
C230 C228 1.561 . S
C231 C228 1.526 . S
C231 C232 1.396 . S
C231 C236 1.390 . S
C232 C226 1.465 . S
C232 C231 1.396 . S
C232 C233 1.399 . S
C233 H219 0.929 . S
C233 C232 1.399 . S
C233 C234 1.385 . S
C234 H220 0.931 . S
C234 C233 1.385 . S
C234 C235 1.389 . S
C235 C234 1.389 . S
C235 C236 1.387 . S
C236 H221 0.930 . S
C236 C231 1.390 . S
C236 C235 1.387 . S
H237 C249 0.930 . S
H238 C251 0.930 . S
H239 C252 0.930 . S
H240 C256 0.959 . S
H241 C256 0.959 . S
H242 C256 0.961 . S
H243 C257 0.960 . S
H244 C257 0.961 . S
H245 C257 0.959 . S
H246 C260 0.929 . S
H247 C261 0.931 . S
H248 C263 0.930 . S
C249 H237 0.930 . S
C249 C250 1.399 . S
C249 C254 1.399 . S
C250 C249 1.399 . S
C250 C251 1.376 . S
C251 H238 0.930 . S
C251 C250 1.376 . S
C251 C252 1.388 . S
C252 H239 0.930 . S
C252 C251 1.388 . S
C252 C253 1.390 . S
C253 C252 1.390 . S
C253 C254 1.394 . S
C253 C259 1.465 . S
C254 C249 1.399 . S
C254 C253 1.394 . S
C254 C255 1.516 . S
C255 C254 1.516 . S
C255 C256 1.502 . S
C255 C257 1.561 . S
C255 C258 1.526 . S
C256 H240 0.959 . S
C256 H241 0.959 . S
C256 H242 0.961 . S
C256 C255 1.502 . S
C257 H243 0.960 . S
C257 H244 0.961 . S
C257 H245 0.959 . S
C257 C255 1.561 . S
C258 C255 1.526 . S
C258 C259 1.396 . S
C258 C263 1.390 . S
C259 C253 1.465 . S
C259 C258 1.396 . S
C259 C260 1.399 . S
C260 H246 0.929 . S
C260 C259 1.399 . S
C260 C261 1.385 . S
C261 H247 0.931 . S
C261 C260 1.385 . S
C261 C262 1.389 . S
C262 C261 1.389 . S
C262 C263 1.387 . S
C263 H248 0.930 . S
C263 C258 1.390 . S
C263 C262 1.387 . S
H264 C276 0.930 . S
H265 C278 0.930 . S
H266 C279 0.930 . S
H267 C283 0.959 . S
H268 C283 0.959 . S
H269 C283 0.961 . S
H270 C284 0.960 . S
H271 C284 0.961 . S
H272 C284 0.959 . S
H273 C287 0.929 . S
H274 C288 0.931 . S
H275 C290 0.930 . S
C276 H264 0.930 . S
C276 C277 1.399 . S
C276 C281 1.399 . S
C277 C276 1.399 . S
C277 C278 1.376 . S
C278 H265 0.930 . S
C278 C277 1.376 . S
C278 C279 1.388 . S
C279 H266 0.930 . S
C279 C278 1.388 . S
C279 C280 1.390 . S
C280 C279 1.390 . S
C280 C281 1.394 . S
C280 C286 1.465 . S
C281 C276 1.399 . S
C281 C280 1.394 . S
C281 C282 1.516 . S
C282 C281 1.516 . S
C282 C283 1.502 . S
C282 C284 1.561 . S
C282 C285 1.526 . S
C283 H267 0.959 . S
C283 H268 0.959 . S
C283 H269 0.961 . S
C283 C282 1.502 . S
C284 H270 0.960 . S
C284 H271 0.961 . S
C284 H272 0.959 . S
C284 C282 1.561 . S
C285 C282 1.526 . S
C285 C286 1.396 . S
C285 C290 1.390 . S
C286 C280 1.465 . S
C286 C285 1.396 . S
C286 C287 1.399 . S
C287 H273 0.929 . S
C287 C286 1.399 . S
C287 C288 1.385 . S
C288 H274 0.931 . S
C288 C287 1.385 . S
C288 C289 1.389 . S
C289 C288 1.389 . S
C289 C290 1.387 . S
C290 H275 0.930 . S
C290 C285 1.390 . S
C290 C289 1.387 . S
H291 C303 0.930 . S
H292 C305 0.930 . S
H293 C306 0.930 . S
H294 C310 0.959 . S
H295 C310 0.959 . S
H296 C310 0.961 . S
H297 C311 0.960 . S
H298 C311 0.961 . S
H299 C311 0.959 . S
H300 C314 0.929 . S
H301 C315 0.931 . S
H302 C317 0.930 . S
C303 H291 0.930 . S
C303 C304 1.399 . S
C303 C308 1.399 . S
C304 C303 1.399 . S
C304 C305 1.376 . S
C305 H292 0.930 . S
C305 C304 1.376 . S
C305 C306 1.388 . S
C306 H293 0.930 . S
C306 C305 1.388 . S
C306 C307 1.390 . S
C307 C306 1.390 . S
C307 C308 1.394 . S
C307 C313 1.465 . S
C308 C303 1.399 . S
C308 C307 1.394 . S
C308 C309 1.516 . S
C309 C308 1.516 . S
C309 C310 1.502 . S
C309 C311 1.561 . S
C309 C312 1.526 . S
C310 H294 0.959 . S
C310 H295 0.959 . S
C310 H296 0.961 . S
C310 C309 1.502 . S
C311 H297 0.960 . S
C311 H298 0.961 . S
C311 H299 0.959 . S
C311 C309 1.561 . S
C312 C309 1.526 . S
C312 C313 1.396 . S
C312 C317 1.390 . S
C313 C307 1.465 . S
C313 C312 1.396 . S
C313 C314 1.399 . S
C314 H300 0.929 . S
C314 C313 1.399 . S
C314 C315 1.385 . S
C315 H301 0.931 . S
C315 C314 1.385 . S
C315 C316 1.389 . S
C316 C315 1.389 . S
C316 C317 1.387 . S
C317 H302 0.930 . S
C317 C312 1.390 . S
C317 C316 1.387 . S
H318 C330 0.930 . S
H319 C332 0.930 . S
H320 C333 0.930 . S
H321 C337 0.959 . S
H322 C337 0.959 . S
H323 C337 0.961 . S
H324 C338 0.960 . S
H325 C338 0.961 . S
H326 C338 0.959 . S
H327 C341 0.929 . S
H328 C342 0.931 1_455 S
H329 C344 0.930 . S
C330 H318 0.930 . S
C330 C331 1.399 . S
C330 C335 1.399 . S
C331 C330 1.399 . S
C331 C332 1.376 . S
C332 H319 0.930 . S
C332 C331 1.376 . S
C332 C333 1.388 . S
C333 H320 0.930 . S
C333 C332 1.388 . S
C333 C334 1.390 . S
C334 C333 1.390 . S
C334 C335 1.394 . S
C334 C340 1.465 . S
C335 C330 1.399 . S
C335 C334 1.394 . S
C335 C336 1.516 . S
C336 C335 1.516 . S
C336 C337 1.502 . S
C336 C338 1.561 . S
C336 C339 1.526 . S
C337 H321 0.959 . S
C337 H322 0.959 . S
C337 H323 0.961 . S
C337 C336 1.502 . S
C338 H324 0.960 . S
C338 H325 0.961 . S
C338 H326 0.959 . S
C338 C336 1.561 . S
C339 C336 1.526 . S
C339 C340 1.396 . S
C339 C344 1.390 . S
C340 C334 1.465 . S
C340 C339 1.396 . S
C340 C341 1.399 . S
C341 H327 0.929 . S
C341 C340 1.399 . S
C341 C342 1.385 . S
C342 H328 0.931 1_655 S
C342 C341 1.385 . S
C342 C343 1.389 . S
C343 C342 1.389 . S
C343 C344 1.387 . S
C344 H329 0.930 . S
C344 C339 1.390 . S
C344 C343 1.387 . S
H345 C357 0.930 . S
H346 C359 0.930 . S
H347 C360 0.930 . S
H348 C364 0.959 . S
H349 C364 0.959 . S
H350 C364 0.961 . S
H351 C365 0.960 . S
H352 C365 0.961 . S
H353 C365 0.959 . S
H354 C368 0.929 . S
H355 C369 0.931 . S
H356 C371 0.930 . S
C357 H345 0.930 . S
C357 C358 1.399 . S
C357 C362 1.399 . S
C358 C357 1.399 . S
C358 C359 1.376 . S
C359 H346 0.930 . S
C359 C358 1.376 . S
C359 C360 1.388 . S
C360 H347 0.930 . S
C360 C359 1.388 . S
C360 C361 1.390 . S
C361 C360 1.390 . S
C361 C362 1.394 . S
C361 C367 1.465 . S
C362 C357 1.399 . S
C362 C361 1.394 . S
C362 C363 1.516 . S
C363 C362 1.516 . S
C363 C364 1.502 . S
C363 C365 1.561 . S
C363 C366 1.526 . S
C364 H348 0.959 . S
C364 H349 0.959 . S
C364 H350 0.961 . S
C364 C363 1.502 . S
C365 H351 0.960 . S
C365 H352 0.961 . S
C365 H353 0.959 . S
C365 C363 1.561 . S
C366 C363 1.526 . S
C366 C367 1.396 . S
C366 C371 1.390 . S
C367 C361 1.465 . S
C367 C366 1.396 . S
C367 C368 1.399 . S
C368 H354 0.929 . S
C368 C367 1.399 . S
C368 C369 1.385 . S
C369 H355 0.931 . S
C369 C368 1.385 . S
C369 C370 1.389 . S
C370 C369 1.389 . S
C370 C371 1.387 . S
C371 H356 0.930 . S
C371 C366 1.390 . S
C371 C370 1.387 . S
H372 C384 0.930 . S
H373 C386 0.930 . S
H374 C387 0.930 1_556 S
H375 C391 0.959 . S
H376 C391 0.959 . S
H377 C391 0.961 . S
H378 C392 0.960 . S
H379 C392 0.961 . S
H380 C392 0.959 . S
H381 C395 0.929 . S
H382 C396 0.931 . S
H383 C398 0.930 . S
C384 H372 0.930 . S
C384 C385 1.399 . S
C384 C389 1.399 . S
C385 C384 1.399 . S
C385 C386 1.376 . S
C386 H373 0.930 . S
C386 C385 1.376 . S
C386 C387 1.388 . S
C387 H374 0.930 1_554 S
C387 C386 1.388 . S
C387 C388 1.390 . S
C388 C387 1.390 . S
C388 C389 1.394 . S
C388 C394 1.465 1_554 S
C389 C384 1.399 . S
C389 C388 1.394 . S
C389 C390 1.516 . S
C390 C389 1.516 . S
C390 C391 1.502 . S
C390 C392 1.561 . S
C390 C393 1.526 1_554 S
C391 H375 0.959 . S
C391 H376 0.959 . S
C391 H377 0.961 . S
C391 C390 1.502 . S
C392 H378 0.960 . S
C392 H379 0.961 . S
C392 H380 0.959 . S
C392 C390 1.561 . S
C393 C390 1.526 1_556 S
C393 C394 1.396 . S
C393 C398 1.390 . S
C394 C388 1.465 1_556 S
C394 C393 1.396 . S
C394 C395 1.399 . S
C395 H381 0.929 . S
C395 C394 1.399 . S
C395 C396 1.385 . S
C396 H382 0.931 . S
C396 C395 1.385 . S
C396 C397 1.389 . S
C397 C396 1.389 . S
C397 C398 1.387 . S
C398 H383 0.930 . S
C398 C393 1.390 . S
C398 C397 1.387 . S
H399 C411 0.930 . S
H400 C413 0.930 . S
H401 C414 0.930 . S
H402 C418 0.959 . S
H403 C418 0.959 . S
H404 C418 0.961 . S
H405 C419 0.960 . S
H406 C419 0.961 . S
H407 C419 0.959 . S
H408 C422 0.929 1_556 S
H409 C423 0.931 . S
H410 C425 0.930 . S
C411 H399 0.930 . S
C411 C412 1.399 . S
C411 C416 1.399 . S
C412 C411 1.399 . S
C412 C413 1.376 . S
C413 H400 0.930 . S
C413 C412 1.376 . S
C413 C414 1.388 1_565 S
C414 H401 0.930 . S
C414 C413 1.388 1_545 S
C414 C415 1.390 . S
C415 C414 1.390 . S
C415 C416 1.394 1_545 S
C415 C421 1.465 1_556 S
C416 C411 1.399 . S
C416 C415 1.394 1_565 S
C416 C417 1.516 1_556 S
C417 C416 1.516 1_554 S
C417 C418 1.502 . S
C417 C419 1.561 . S
C417 C420 1.526 1_565 S
C418 H402 0.959 . S
C418 H403 0.959 . S
C418 H404 0.961 . S
C418 C417 1.502 . S
C419 H405 0.960 . S
C419 H406 0.961 . S
C419 H407 0.959 . S
C419 C417 1.561 . S
C420 C417 1.526 1_545 S
C420 C421 1.396 . S
C420 C425 1.390 . S
C421 C415 1.465 1_554 S
C421 C420 1.396 . S
C421 C422 1.399 . S
C422 H408 0.929 1_554 S
C422 C421 1.399 . S
C422 C423 1.385 . S
C423 H409 0.931 . S
C423 C422 1.385 . S
C423 C424 1.389 . S
C424 C423 1.389 . S
C424 C425 1.387 . S
C425 H410 0.930 . S
C425 C420 1.390 . S
C425 C424 1.387 . S
H426 C438 0.930 . S
H427 C440 0.930 . S
H428 C441 0.930 1_554 S
H429 C445 0.959 . S
H430 C445 0.959 . S
H431 C445 0.961 . S
H432 C446 0.960 . S
H433 C446 0.961 . S
H434 C446 0.959 . S
H435 C449 0.929 . S
H436 C450 0.931 . S
H437 C452 0.930 . S
C438 H426 0.930 . S
C438 C439 1.399 . S
C438 C443 1.399 . S
C439 C438 1.399 . S
C439 C440 1.376 . S
C440 H427 0.930 . S
C440 C439 1.376 . S
C440 C441 1.388 . S
C441 H428 0.930 1_556 S
C441 C440 1.388 . S
C441 C442 1.390 . S
C442 C441 1.390 . S
C442 C443 1.394 . S
C442 C448 1.465 1_556 S
C443 C438 1.399 . S
C443 C442 1.394 . S
C443 C444 1.516 1_455 S
C444 C443 1.516 1_655 S
C444 C445 1.502 . S
C444 C446 1.561 . S
C444 C447 1.526 1_556 S
C445 H429 0.959 . S
C445 H430 0.959 . S
C445 H431 0.961 . S
C445 C444 1.502 . S
C446 H432 0.960 . S
C446 H433 0.961 . S
C446 H434 0.959 . S
C446 C444 1.561 . S
C447 C444 1.526 1_554 S
C447 C448 1.396 1_655 S
C447 C452 1.390 . S
C448 C442 1.465 1_554 S
C448 C447 1.396 1_455 S
C448 C449 1.399 . S
C449 H435 0.929 . S
C449 C448 1.399 . S
C449 C450 1.385 1_455 S
C450 H436 0.931 . S
C450 C449 1.385 1_655 S
C450 C451 1.389 . S
C451 C450 1.389 . S
C451 C452 1.387 . S
C452 H437 0.930 . S
C452 C447 1.390 . S
C452 C451 1.387 . S
C142 N3 2.024 1_445 S
C154 N8 2.003 1_655 S
C169 N51 2.031 . S
C181 N46 1.972 1_554 S
C196 N94 2.032 1_556 S
C208 N89 1.974 . S
C223 C119 2.303 . S
C235 C32 2.232 . S
C250 C113 2.305 . S
C262 C40 2.227 . S
C277 C125 2.196 . S
C289 C13 2.129 . S
C304 C75 2.271 . S
C316 C33 2.261 . S
C331 C83 2.271 . S
C343 C27 2.263 . S
C358 C56 2.218 . S
C370 C39 2.123 . S
C385 C76 2.226 . S
C397 C118 2.308 . S
C412 C126 2.304 . S
C424 C70 2.232 . S
C439 C99 2.123 . S
C451 C82 2.218 . S
