# Generated by pormake.
# Topology uoi, (4)-cn, num edge types: 1
# Building blocks:
#     Node 0, Type 0, BuildingBlock: NAHDIM_clean_sbu_0, # of connection points: 4
#     Node 1, Type 0, BuildingBlock: NAHDIM_clean_sbu_0, # of connection points: 4
#     Node 2, Type 0, BuildingBlock: NAHDIM_clean_sbu_0, # of connection points: 4
#     Node 3, Type 0, BuildingBlock: NAHDIM_clean_sbu_0, # of connection points: 4
#     Node 4, Type 0, BuildingBlock: NAHDIM_clean_sbu_0, # of connection points: 4
#     Node 5, Type 0, BuildingBlock: NAHDIM_clean_sbu_0, # of connection points: 4
#     Node 6, Type 0, BuildingBlock: NAHDIM_clean_sbu_0, # of connection points: 4
#     Node 7, Type 0, BuildingBlock: NAHDIM_clean_sbu_0, # of connection points: 4
#     Node 8, Type 0, BuildingBlock: NAHDIM_clean_sbu_0, # of connection points: 4
#     Node 9, Type 0, BuildingBlock: NAHDIM_clean_sbu_0, # of connection points: 4
#     Node 10, Type 0, BuildingBlock: NAHDIM_clean_sbu_0, # of connection points: 4
#     Node 11, Type 0, BuildingBlock: NAHDIM_clean_sbu_0, # of connection points: 4
#     Node 12, Type 0, BuildingBlock: NAHDIM_clean_sbu_0, # of connection points: 4
#     Node 13, Type 0, BuildingBlock: NAHDIM_clean_sbu_0, # of connection points: 4
#     Node 14, Type 0, BuildingBlock: NAHDIM_clean_sbu_0, # of connection points: 4
#     Node 15, Type 0, BuildingBlock: NAHDIM_clean_sbu_0, # of connection points: 4
#     Node 16, Type 0, BuildingBlock: NAHDIM_clean_sbu_0, # of connection points: 4
#     Node 17, Type 0, BuildingBlock: NAHDIM_clean_sbu_0, # of connection points: 4
#     Node 18, Type 0, BuildingBlock: NAHDIM_clean_sbu_0, # of connection points: 4
#     Node 19, Type 0, BuildingBlock: NAHDIM_clean_sbu_0, # of connection points: 4
#     Node 20, Type 0, BuildingBlock: NAHDIM_clean_sbu_0, # of connection points: 4
#     Node 21, Type 0, BuildingBlock: NAHDIM_clean_sbu_0, # of connection points: 4
#     Node 22, Type 0, BuildingBlock: NAHDIM_clean_sbu_0, # of connection points: 4
#     Node 23, Type 0, BuildingBlock: NAHDIM_clean_sbu_0, # of connection points: 4
#     Node 24, Type 0, BuildingBlock: NAHDIM_clean_sbu_0, # of connection points: 4
#     Node 25, Type 0, BuildingBlock: NAHDIM_clean_sbu_0, # of connection points: 4
#     Node 26, Type 0, BuildingBlock: NAHDIM_clean_sbu_0, # of connection points: 4
#     Node 27, Type 0, BuildingBlock: NAHDIM_clean_sbu_0, # of connection points: 4
#     Node 28, Type 0, BuildingBlock: NAHDIM_clean_sbu_0, # of connection points: 4
#     Node 29, Type 0, BuildingBlock: NAHDIM_clean_sbu_0, # of connection points: 4
#     Node 30, Type 0, BuildingBlock: NAHDIM_clean_sbu_0, # of connection points: 4
#     Node 31, Type 0, BuildingBlock: NAHDIM_clean_sbu_0, # of connection points: 4
#     Edge 32, Type (0, 0), None
#     Edge 33, Type (0, 0), None
#     Edge 34, Type (0, 0), None
#     Edge 35, Type (0, 0), None
#     Edge 36, Type (0, 0), None
#     Edge 37, Type (0, 0), None
#     Edge 38, Type (0, 0), None
#     Edge 39, Type (0, 0), None
#     Edge 40, Type (0, 0), None
#     Edge 41, Type (0, 0), None
#     Edge 42, Type (0, 0), None
#     Edge 43, Type (0, 0), None
#     Edge 44, Type (0, 0), None
#     Edge 45, Type (0, 0), None
#     Edge 46, Type (0, 0), None
#     Edge 47, Type (0, 0), None
#     Edge 48, Type (0, 0), None
#     Edge 49, Type (0, 0), None
#     Edge 50, Type (0, 0), None
#     Edge 51, Type (0, 0), None
#     Edge 52, Type (0, 0), None
#     Edge 53, Type (0, 0), None
#     Edge 54, Type (0, 0), None
#     Edge 55, Type (0, 0), None
#     Edge 56, Type (0, 0), None
#     Edge 57, Type (0, 0), None
#     Edge 58, Type (0, 0), None
#     Edge 59, Type (0, 0), None
#     Edge 60, Type (0, 0), None
#     Edge 61, Type (0, 0), None
#     Edge 62, Type (0, 0), None
#     Edge 63, Type (0, 0), None
#     Edge 64, Type (0, 0), None
#     Edge 65, Type (0, 0), None
#     Edge 66, Type (0, 0), None
#     Edge 67, Type (0, 0), None
#     Edge 68, Type (0, 0), None
#     Edge 69, Type (0, 0), None
#     Edge 70, Type (0, 0), None
#     Edge 71, Type (0, 0), None
#     Edge 72, Type (0, 0), None
#     Edge 73, Type (0, 0), None
#     Edge 74, Type (0, 0), None
#     Edge 75, Type (0, 0), None
#     Edge 76, Type (0, 0), None
#     Edge 77, Type (0, 0), None
#     Edge 78, Type (0, 0), None
#     Edge 79, Type (0, 0), None
#     Edge 80, Type (0, 0), None
#     Edge 81, Type (0, 0), None
#     Edge 82, Type (0, 0), None
#     Edge 83, Type (0, 0), None
#     Edge 84, Type (0, 0), None
#     Edge 85, Type (0, 0), None
#     Edge 86, Type (0, 0), None
#     Edge 87, Type (0, 0), None
#     Edge 88, Type (0, 0), None
#     Edge 89, Type (0, 0), None
#     Edge 90, Type (0, 0), None
#     Edge 91, Type (0, 0), None
#     Edge 92, Type (0, 0), None
#     Edge 93, Type (0, 0), None
#     Edge 94, Type (0, 0), None
#     Edge 95, Type (0, 0), None
# Relax obj value: 0.306
# Max RMSD: 0.357
# Mean RMSD: 0.259
data_MOF--net-uoi--node1-NAHDIM_clean_sbu_0--edge1-none
_symmetry_space_group_name_H-M    P1
_symmetry_Int_Tables_number       1
_symmetry_cell_setting            triclinic
loop_
_symmetry_equiv_pos_as_xyz
'x, y, z'
_cell_length_a     37.179717
_cell_length_b     36.573432
_cell_length_c     8.8045032
_cell_angle_alpha  89.999061
_cell_angle_beta   90.001428
_cell_angle_gamma 91.664822
loop_
_atom_site_label
_atom_site_type_symbol
_atom_site_fract_x
_atom_site_fract_y
_atom_site_fract_z
_atom_type_partial_charge
C0 C 0.09558 0.16272 0.11834 0.0
O1 O 0.12476 0.14497 0.08565 0.0
O2 O 0.17506 0.17343 0.38938 0.0
Zn3 Zn 0.15046 0.20585 0.23404 0.0
O4 O 0.17238 0.19552 0.02857 0.0
C5 C 0.1813 0.26876 0.39635 0.0
O6 O 0.19377 0.24325 0.48455 0.0
O7 O 0.09799 0.19114 0.2018 0.0
C8 C 0.1753 0.21208 0.90204 0.0
O9 O 0.18866 0.19453 0.78658 0.0
C10 C 0.16423 0.14598 0.46785 0.0
O11 O 0.13066 0.13408 0.45796 0.0
O12 O 0.16053 0.25941 0.28749 0.0
C13 C 0.10899 0.88673 0.41115 0.0
O14 O 0.08222 0.88681 0.31416 0.0
O15 O 0.06266 0.96023 0.7443 0.0
Zn16 Zn 0.05685 0.9131 0.62784 0.0
O17 O 0.02168 0.91513 0.45708 0.0
C18 C 0.00138 0.8945 0.8092 0.0
O19 O -0.00731 0.92552 0.74577 0.0
O20 O 0.10413 0.89588 0.54906 0.0
C21 C 0.00479 0.8856 0.42083 0.0
O22 O 0.01231 0.85471 0.48808 0.0
C23 C 0.0627 -0.00762 0.69114 0.0
O24 O 0.06146 -0.00265 0.54352 0.0
O25 O 0.03154 0.88063 0.77817 0.0
C26 C 0.34899 0.80571 0.61822 0.0
O27 O 0.31982 0.82346 0.58542 0.0
O28 O 0.26949 0.79502 0.88927 0.0
Zn29 Zn 0.29409 0.7626 0.73394 0.0
O30 O 0.27218 0.77293 0.52846 0.0
C31 C 0.26325 0.69968 0.89627 0.0
O32 O 0.2508 0.7252 0.98449 0.0
O33 O 0.34657 0.7773 0.70173 0.0
C34 C 0.26926 0.75636 0.40193 0.0
O35 O 0.2559 0.77391 0.28645 0.0
C36 C 0.28032 0.82247 0.96775 0.0
O37 O 0.3139 0.83435 0.95788 0.0
O38 O 0.28403 0.70904 0.7874 0.0
C39 C 0.3355 0.08166 0.91123 0.0
O40 O 0.36228 0.08156 0.81427 0.0
O41 O 0.38174 0.00811 0.24435 0.0
Zn42 Zn 0.38761 0.05524 0.12798 0.0
O43 O 0.42279 0.05319 0.95725 0.0
C44 C 0.44309 0.07379 0.3094 0.0
O45 O 0.45175 0.04275 0.24597 0.0
O46 O 0.34036 0.0725 0.04914 0.0
C47 C 0.4397 0.08271 0.92101 0.0
O48 O 0.43219 0.11361 0.98827 0.0
C49 C 0.38187 0.97597 0.19103 0.0
O50 O 0.38332 0.97106 0.04341 0.0
O51 O 0.41294 0.08768 0.27836 0.0
C52 C 0.14358 0.87245 0.36608 0.0
O53 O 0.17191 0.88009 0.45019 0.0
O54 O 0.22406 0.82408 0.08999 0.0
Zn55 Zn 0.18842 0.81642 0.26407 0.0
O56 O 0.20956 0.82193 0.47557 0.0
C57 C 0.16892 0.75105 0.10398 0.0
O58 O 0.16956 0.77286 0.98621 0.0
O59 O 0.14514 0.84825 0.26252 0.0
C60 C 0.20008 0.80474 0.59582 0.0
O61 O 0.20985 0.81833 0.72785 0.0
C62 C 0.25644 0.8363 0.08712 0.0
O63 O 0.27023 0.8528 0.2071 0.0
O64 O 0.17256 0.76458 0.2358 0.0
C65 C 0.38308 0.81921 0.55388 0.0
O66 O 0.41338 0.81573 0.62817 0.0
O67 O 0.39486 0.91439 0.24058 0.0
Zn68 Zn 0.41935 0.8746 0.35675 0.0
O69 O 0.44839 0.89386 0.53131 0.0
C70 C 0.47594 0.88656 0.17722 0.0
O71 O 0.46972 0.91785 0.24395 0.0
O72 O 0.38174 0.8393 0.43611 0.0
C73 C 0.47688 0.8775 0.56768 0.0
O74 O 0.4853 0.84711 0.49864 0.0
C75 C 0.38822 0.94551 0.29503 0.0
O76 O 0.39412 0.95193 0.43981 0.0
O77 O 0.45599 0.85851 0.20717 0.0
C78 C 0.30093 0.09596 0.86612 0.0
O79 O 0.27259 0.08833 0.95014 0.0
O80 O 0.22049 0.14437 0.59012 0.0
Zn81 Zn 0.25614 0.15202 0.76417 0.0
O82 O 0.235 0.14652 0.97569 0.0
C83 C 0.27564 0.21739 0.60408 0.0
O84 O 0.27497 0.19559 0.48631 0.0
O85 O 0.2994 0.12017 0.76261 0.0
C86 C 0.24448 0.16371 0.09594 0.0
O87 O 0.23471 0.15012 0.22797 0.0
C88 C 0.18811 0.13214 0.58723 0.0
O89 O 0.17433 0.11564 0.70718 0.0
O90 O 0.27201 0.20387 0.7359 0.0
C91 C 0.06151 0.1492 0.05398 0.0
O92 O 0.0312 0.15266 0.12824 0.0
O93 O 0.04981 0.05399 0.7408 0.0
Zn94 Zn 0.02528 0.09377 0.85691 0.0
O95 O -0.00375 0.0745 0.03148 0.0
C96 C 0.96869 0.08177 0.67738 0.0
O97 O -0.02507 0.05048 0.74414 0.0
O98 O 0.06286 0.1291 0.93624 0.0
C99 C 0.96775 0.09084 0.06784 0.0
O100 O 0.95931 0.12123 -0.00123 0.0
C101 C 0.05631 0.02283 0.79519 0.0
O102 O 0.05024 0.01637 0.93982 0.0
O103 O -0.01137 0.10982 0.7073 0.0
C104 C 0.84898 0.80576 0.8693 0.0
O105 O 0.8198 0.82347 0.90228 0.0
O106 O 0.76944 0.79497 0.59851 0.0
Zn107 Zn 0.7941 0.76259 0.7538 0.0
O108 O 0.77221 0.7729 0.95935 0.0
C109 C 0.7633 0.69964 0.59153 0.0
O110 O 0.7508 0.72514 0.50334 0.0
O111 O 0.84656 0.77735 0.78579 0.0
C112 C 0.76929 0.75633 0.08587 0.0
O113 O 0.75595 0.77389 0.20138 0.0
C114 C 0.7802 0.82247 0.52015 0.0
O115 O 0.81374 0.83446 0.53014 0.0
O116 O 0.78407 0.70902 0.70037 0.0
C117 C 0.83571 0.08177 0.57626 0.0
O118 O 0.86251 0.08171 0.6731 0.0
O119 O 0.88194 0.0083 0.24283 0.0
Zn120 Zn 0.88779 0.05542 0.35925 0.0
O121 O 0.923 0.05339 0.52986 0.0
C122 C 0.94322 0.07401 0.17768 0.0
O123 O 0.9519 0.04298 0.24108 0.0
O124 O 0.84054 0.07263 0.43832 0.0
C125 C 0.9399 0.08292 0.56606 0.0
O126 O 0.93238 0.11381 0.49884 0.0
C127 C 0.88198 0.97615 0.29605 0.0
O128 O 0.88331 0.97119 0.44366 0.0
O129 O 0.91307 0.08789 0.20881 0.0
C130 C 0.59556 0.16243 0.36944 0.0
O131 O 0.62473 0.14471 0.40251 0.0
O132 O 0.67512 0.17319 0.09862 0.0
Zn133 Zn 0.65046 0.20557 0.2539 0.0
O134 O 0.67235 0.19526 0.45946 0.0
C135 C 0.68126 0.26852 0.09162 0.0
O136 O 0.69375 0.24302 0.00341 0.0
O137 O 0.59799 0.19082 0.28587 0.0
C138 C 0.67526 0.21183 0.58598 0.0
O139 O 0.6886 0.19428 0.7015 0.0
C140 C 0.66436 0.1457 0.02025 0.0
O141 O 0.63082 0.13371 0.03022 0.0
O142 O 0.66049 0.25914 0.20046 0.0
C143 C 0.60891 0.88645 0.0762 0.0
O144 O 0.5821 0.88653 0.17301 0.0
O145 O 0.56277 0.95999 0.74281 0.0
Zn146 Zn 0.55686 0.91285 0.85914 0.0
O147 O 0.52164 0.9149 0.02971 0.0
C148 C 0.50142 0.89432 0.6775 0.0
O149 O 0.49276 0.92536 0.74091 0.0
O150 O 0.60409 0.8956 0.93826 0.0
C151 C 0.50472 0.88538 0.0659 0.0
O152 O 0.51223 0.85449 -0.00132 0.0
C153 C 0.56257 -0.00789 0.79619 0.0
O154 O 0.56102 -0.00299 0.9438 0.0
O155 O 0.53156 0.88041 0.70865 0.0
C156 C 0.80112 0.096 0.62158 0.0
O157 O 0.77276 0.08831 0.53768 0.0
O158 O 0.72062 0.14423 0.89792 0.0
Zn159 Zn 0.75623 0.15196 0.7238 0.0
O160 O 0.73507 0.14643 0.51234 0.0
C161 C 0.77566 0.21735 0.88392 0.0
O162 O 0.77505 0.19555 0.00169 0.0
O163 O 0.79956 0.12019 0.72514 0.0
C164 C 0.74453 0.16362 0.39209 0.0
O165 O 0.73479 0.15002 0.26006 0.0
C166 C 0.68827 0.13191 0.90088 0.0
O167 O 0.67452 0.11535 0.78099 0.0
O168 O 0.77201 0.20382 0.7521 0.0
C169 C 0.56145 0.14889 0.43351 0.0
O170 O 0.53117 0.15238 0.35904 0.0
O171 O 0.54956 0.05369 0.74663 0.0
Zn172 Zn 0.52511 0.09349 0.63036 0.0
O173 O 0.49611 0.07424 0.45566 0.0
C174 C 0.46847 0.08154 0.80968 0.0
O175 O 0.4747 0.05025 0.74293 0.0
O176 O 0.56275 0.12879 0.55125 0.0
C177 C 0.46763 0.09061 0.41923 0.0
O178 O 0.45921 0.121 0.48828 0.0
C179 C 0.55625 0.02258 0.69217 0.0
O180 O 0.55043 0.01618 0.54732 0.0
O181 O 0.48844 0.10958 0.77982 0.0
C182 C 0.64348 0.87219 0.12155 0.0
O183 O 0.67185 0.87988 0.03774 0.0
O184 O 0.72395 0.82393 0.39779 0.0
Zn185 Zn 0.68833 0.8162 0.22369 0.0
O186 O 0.70948 0.82172 0.01223 0.0
C187 C 0.6689 0.75081 0.38383 0.0
O188 O 0.66953 0.77261 0.5016 0.0
O189 O 0.64501 0.84798 0.22505 0.0
C190 C 0.70002 0.80453 0.89197 0.0
O191 O 0.70976 0.81813 0.75995 0.0
C192 C 0.75629 0.83625 0.40078 0.0
O193 O 0.77004 0.85282 0.28091 0.0
O194 O 0.67253 0.76433 0.252 0.0
C195 C 0.88308 0.81931 0.93339 0.0
O196 O 0.91336 0.81584 0.85895 0.0
O197 O 0.89488 0.91454 0.24638 0.0
Zn198 Zn 0.91937 0.87476 0.13018 0.0
O199 O 0.94836 0.89401 0.95547 0.0
C200 C -0.02399 0.88675 0.30949 0.0
O201 O 0.96977 0.91804 0.24272 0.0
O202 O 0.88176 0.83942 0.05109 0.0
C203 C -0.02315 0.87766 0.91904 0.0
O204 O -0.0147 0.84728 0.98812 0.0
C205 C 0.88833 0.9457 0.19199 0.0
O206 O 0.89432 0.95214 0.04729 0.0
O207 O 0.95606 0.8587 0.27966 0.0
C208 C 0.59561 0.66244 0.61848 0.0
O209 O 0.62479 0.64472 0.58542 0.0
O210 O 0.67518 0.67321 0.88929 0.0
Zn211 Zn 0.65052 0.70559 0.734 0.0
O212 O 0.6724 0.69527 0.52845 0.0
C213 C 0.68132 0.76853 0.89628 0.0
O214 O 0.69382 0.74305 0.98451 0.0
O215 O 0.59805 0.69084 0.70204 0.0
C216 C 0.67533 0.71185 0.40193 0.0
O217 O 0.68865 0.69429 0.2864 0.0
C218 C 0.66443 0.64571 0.96762 0.0
O219 O 0.6309 0.63371 0.95761 0.0
O220 O 0.66055 0.75916 0.78742 0.0
C221 C 0.60886 0.38645 0.91169 0.0
O222 O 0.58206 0.38653 0.81488 0.0
O223 O 0.56273 0.45998 0.24511 0.0
Zn224 Zn 0.55682 0.41285 0.12875 0.0
O225 O 0.5216 0.41491 0.95818 0.0
C226 C 0.50138 0.39432 0.31038 0.0
O227 O 0.49273 0.42536 0.24698 0.0
O228 O 0.60405 0.3956 0.04963 0.0
C229 C 0.50468 0.38539 0.922 0.0
O230 O 0.51219 0.35449 0.98922 0.0
C231 C 0.56258 0.49211 0.19176 0.0
O232 O 0.56108 0.49702 0.04415 0.0
O233 O 0.53152 0.38041 0.27924 0.0
C234 C 0.84892 0.30572 0.11864 0.0
O235 O 0.81974 0.32344 0.0857 0.0
O236 O 0.76938 0.29494 0.38941 0.0
Zn237 Zn 0.79404 0.26256 0.23412 0.0
O238 O 0.77215 0.27288 0.02857 0.0
C239 C 0.76323 0.19962 0.39638 0.0
O240 O 0.75073 0.22511 0.48459 0.0
O241 O 0.8465 0.27731 0.20214 0.0
C242 C 0.76923 0.25631 0.90205 0.0
O243 O 0.7559 0.27387 0.78653 0.0
C244 C 0.78014 0.32244 0.46773 0.0
O245 O 0.81368 0.33443 0.45772 0.0
O246 O 0.78401 0.20899 0.28754 0.0
C247 C 0.83577 0.58177 0.4116 0.0
O248 O 0.86257 0.58173 0.31478 0.0
O249 O 0.88201 0.50829 0.74504 0.0
Zn250 Zn 0.88785 0.55541 0.62859 0.0
O251 O 0.92306 0.55338 0.45799 0.0
C252 C 0.94328 0.574 0.81018 0.0
O253 O 0.95196 0.54297 0.74678 0.0
O254 O 0.8406 0.57262 0.54953 0.0
C255 C 0.93997 0.58291 0.4218 0.0
O256 O 0.93244 0.6138 0.48902 0.0
C257 C 0.88196 0.47614 0.69188 0.0
O258 O 0.88321 0.47116 0.54426 0.0
O259 O 0.91313 0.58789 0.77903 0.0
C260 C 0.64344 0.37218 0.86633 0.0
O261 O 0.67181 0.37987 0.95014 0.0
O262 O 0.72389 0.3239 0.5901 0.0
Zn263 Zn 0.68827 0.31618 0.7642 0.0
O264 O 0.70943 0.3217 0.97566 0.0
C265 C 0.66883 0.25079 0.60408 0.0
O266 O 0.66947 0.27258 0.48627 0.0
O267 O 0.64496 0.34797 0.76284 0.0
C268 C 0.69997 0.30451 0.09591 0.0
O269 O 0.70971 0.31812 0.22794 0.0
C270 C 0.75623 0.33623 0.5871 0.0
O271 O 0.76998 0.35281 0.70695 0.0
O272 O 0.67247 0.26432 0.7359 0.0
C273 C 0.88302 0.31927 0.05454 0.0
O274 O 0.9133 0.3158 0.12897 0.0
O275 O 0.8948 0.41451 0.74157 0.0
Zn276 Zn 0.9193 0.37473 0.85774 0.0
O277 O 0.94829 0.39397 0.03246 0.0
C278 C -0.02406 0.38672 0.67843 0.0
O279 O 0.96971 0.418 0.74522 0.0
O280 O 0.8817 0.33939 0.93683 0.0
C281 C -0.02322 0.37762 0.06888 0.0
O282 O -0.01477 0.34724 -0.0002 0.0
C283 C 0.88832 0.44568 0.79594 0.0
O284 O 0.89438 0.45214 0.94058 0.0
O285 O 0.95598 0.35867 0.70825 0.0
C286 C 0.80118 0.59601 0.3663 0.0
O287 O 0.77282 0.58832 0.45018 0.0
O288 O 0.72068 0.64426 0.09 0.0
Zn289 Zn 0.7563 0.65198 0.26412 0.0
O290 O 0.73514 0.64645 0.47557 0.0
C291 C 0.77573 0.71737 0.104 0.0
O292 O 0.77512 0.69558 0.9862 0.0
O293 O 0.79963 0.62022 0.26276 0.0
C294 C 0.7446 0.66365 0.59583 0.0
O295 O 0.73486 0.65004 0.72785 0.0
C296 C 0.68834 0.63192 0.087 0.0
O297 O 0.6746 0.61535 0.20686 0.0
O298 O 0.77208 0.70385 0.23583 0.0
C299 C 0.56151 0.64891 0.55442 0.0
O300 O 0.53123 0.6524 0.62889 0.0
O301 O 0.54961 0.5537 0.24134 0.0
Zn302 Zn 0.52516 0.5935 0.35759 0.0
O303 O 0.49616 0.57426 0.53229 0.0
C304 C 0.46852 0.58156 0.17827 0.0
O305 O 0.47474 0.55026 0.24503 0.0
O306 O 0.5628 0.6288 0.43669 0.0
C307 C 0.46769 0.59063 0.56871 0.0
O308 O 0.45926 0.62103 0.49966 0.0
C309 C 0.55626 0.52258 0.29579 0.0
O310 O 0.55041 0.51617 0.4406 0.0
O311 O 0.48849 0.6096 0.20812 0.0
C312 C 0.34896 0.30571 0.36965 0.0
O313 O 0.31979 0.32346 0.40242 0.0
O314 O 0.26945 0.29501 0.09864 0.0
Zn315 Zn 0.29406 0.26259 0.25397 0.0
O316 O 0.27216 0.27293 0.45946 0.0
C317 C 0.26323 0.19968 0.09164 0.0
O318 O 0.25076 0.22518 0.00338 0.0
O319 O 0.34653 0.2773 0.28615 0.0
C320 C 0.26922 0.25635 0.58597 0.0
O321 O 0.25589 0.27391 0.70149 0.0
C322 C 0.28027 0.32247 0.02019 0.0
O323 O 0.31384 0.33437 0.03009 0.0
O324 O 0.284 0.20903 0.20053 0.0
C325 C 0.33555 0.58168 0.07667 0.0
O326 O 0.36233 0.58158 0.17364 0.0
O327 O 0.3818 0.50813 0.74355 0.0
Zn328 Zn 0.38766 0.55526 0.85995 0.0
O329 O 0.42283 0.55321 0.03069 0.0
C330 C 0.44315 0.57381 0.67855 0.0
O331 O 0.4518 0.54278 0.74199 0.0
O332 O 0.3404 0.57252 0.93876 0.0
C333 C 0.43974 0.58273 0.06693 0.0
O334 O 0.43225 0.61363 -0.00033 0.0
C335 C 0.38187 0.476 0.79683 0.0
O336 O 0.38325 0.47106 0.94445 0.0
O337 O 0.41299 0.58771 0.70958 0.0
C338 C 0.09562 0.66272 0.86948 0.0
O339 O 0.1248 0.64498 0.90214 0.0
O340 O 0.1751 0.67344 0.59853 0.0
Zn341 Zn 0.1505 0.70586 0.75385 0.0
O342 O 0.17241 0.69553 0.95934 0.0
C343 C 0.18133 0.76877 0.59153 0.0
O344 O 0.1938 0.74327 0.5033 0.0
O345 O 0.09803 0.69115 0.78605 0.0
C346 C 0.17534 0.71209 0.08586 0.0
O347 O 0.18868 0.69453 0.20136 0.0
C348 C 0.16427 0.64599 0.52008 0.0
O349 O 0.1307 0.63409 0.52997 0.0
O350 O 0.16056 0.75942 0.70041 0.0
C351 C 0.10893 0.3867 0.57674 0.0
O352 O 0.08216 0.38676 0.67373 0.0
O353 O 0.06257 0.46019 0.2436 0.0
Zn354 Zn 0.05678 0.41307 0.36009 0.0
O355 O 0.02162 0.41509 0.53086 0.0
C356 C 0.00131 0.39445 0.17873 0.0
O357 O -0.00738 0.42548 0.24217 0.0
O358 O 0.10406 0.39586 0.43885 0.0
C359 C 0.00472 0.38556 0.56711 0.0
O360 O 0.01224 0.35467 0.49985 0.0
C361 C 0.06271 0.49235 0.29669 0.0
O362 O 0.06158 0.49735 0.44431 0.0
O363 O 0.03148 0.38058 0.20977 0.0
C364 C 0.30098 0.59598 0.12178 0.0
O365 O 0.27263 0.58835 0.03773 0.0
O366 O 0.22053 0.64438 0.39781 0.0
Zn367 Zn 0.25617 0.65204 0.22374 0.0
O368 O 0.23503 0.64653 0.01224 0.0
C369 C 0.27569 0.7174 0.38382 0.0
O370 O 0.27503 0.69561 0.50162 0.0
O371 O 0.29944 0.62019 0.22529 0.0
C372 C 0.24451 0.66371 0.89199 0.0
O373 O 0.23474 0.65012 0.75996 0.0
C374 C 0.18815 0.63215 0.40071 0.0
O375 O 0.17437 0.61564 0.28077 0.0
O376 O 0.27204 0.70388 0.25199 0.0
C377 C 0.06155 0.6492 0.93387 0.0
O378 O 0.03124 0.65266 0.85962 0.0
O379 O 0.04989 0.55398 0.247 0.0
Zn380 Zn 0.02534 0.59376 0.13094 0.0
O381 O -0.00369 0.5745 0.95637 0.0
C382 C 0.96875 0.58175 0.31048 0.0
O383 O -0.02501 0.55046 0.24372 0.0
O384 O 0.06291 0.6291 0.0516 0.0
C385 C 0.96781 0.59084 0.92002 0.0
O386 O 0.95936 0.62122 0.9891 0.0
C387 C 0.05631 0.5228 0.19263 0.0
O388 O 0.05015 0.51632 0.04809 0.0
O389 O -0.01131 0.60981 0.28057 0.0
C390 C 0.14352 0.37242 0.6218 0.0
O391 O 0.17185 0.38006 0.53769 0.0
O392 O 0.22402 0.32406 0.89791 0.0
Zn393 Zn 0.18838 0.3164 0.72382 0.0
O394 O 0.20952 0.32192 0.51233 0.0
C395 C 0.16887 0.25104 0.88389 0.0
O396 O 0.1695 0.27283 0.00168 0.0
O397 O 0.14509 0.34823 0.72536 0.0
C398 C 0.20005 0.30474 0.39207 0.0
O399 O 0.20981 0.31833 0.26005 0.0
C400 C 0.25639 0.3363 0.90081 0.0
O401 O 0.27017 0.3528 0.78086 0.0
O402 O 0.17253 0.26455 0.75206 0.0
C403 C 0.38304 0.31921 0.43399 0.0
O404 O 0.41335 0.31574 0.35971 0.0
O405 O 0.39481 0.4144 0.74725 0.0
Zn406 Zn 0.41931 0.37461 0.63111 0.0
O407 O 0.44835 0.39386 0.45656 0.0
C408 C 0.4759 0.38657 0.81067 0.0
O409 O 0.46968 0.41786 0.74393 0.0
O410 O 0.38171 0.33931 0.55175 0.0
C411 C 0.47684 0.3775 0.42021 0.0
O412 O 0.48526 0.34711 0.48926 0.0
C413 C 0.38823 0.44553 0.69281 0.0
O414 O 0.39418 0.45197 0.54808 0.0
O415 O 0.45595 0.35852 0.78072 0.0
loop_
_geom_bond_atom_site_label_1
_geom_bond_atom_site_label_2
_geom_bond_distance
_geom_bond_site_symmetry_2
_ccdc_geom_bond_type
C0 O1 1.160 . S
C0 O7 1.185 . S
O1 C0 1.160 . S
O2 Zn3 1.899 . S
O2 C10 1.284 . S
Zn3 O2 1.899 . S
Zn3 O4 2.032 1_554 S
Zn3 O7 2.086 . S
Zn3 O12 1.977 . S
O4 Zn3 2.032 1_556 S
O4 C8 1.278 . S
C5 O6 1.203 . S
C5 O12 1.267 . S
O6 C5 1.203 . S
O7 C0 1.185 . S
O7 Zn3 2.086 . S
C8 O4 1.278 . S
C8 O9 1.211 1_556 S
O9 C8 1.211 1_554 S
C10 O2 1.284 . S
C10 O11 1.273 . S
O11 C10 1.273 . S
O12 Zn3 1.977 . S
O12 C5 1.267 . S
C13 O14 1.160 . S
C13 O20 1.185 . S
O14 C13 1.160 . S
O15 Zn16 1.899 . S
O15 C23 1.284 . S
Zn16 O15 1.899 . S
Zn16 O17 2.032 . S
Zn16 O20 2.086 . S
Zn16 O25 1.977 . S
O17 Zn16 2.032 . S
O17 C21 1.278 . S
C18 O19 1.203 . S
C18 O25 1.267 . S
O19 C18 1.203 . S
O20 C13 1.185 . S
O20 Zn16 2.086 . S
C21 O17 1.278 . S
C21 O22 1.211 1_455 S
O22 C21 1.211 1_655 S
C23 O15 1.284 . S
C23 O24 1.273 . S
O24 C23 1.273 . S
O25 Zn16 1.977 . S
O25 C18 1.267 . S
C26 O27 1.160 . S
C26 O33 1.185 . S
O27 C26 1.160 . S
O28 Zn29 1.899 . S
O28 C36 1.284 . S
Zn29 O28 1.899 . S
Zn29 O30 2.032 . S
Zn29 O33 2.086 . S
Zn29 O38 1.977 . S
O30 Zn29 2.032 . S
O30 C34 1.278 . S
C31 O32 1.203 . S
C31 O38 1.267 . S
O32 C31 1.203 . S
O33 C26 1.185 . S
O33 Zn29 2.086 . S
C34 O30 1.278 . S
C34 O35 1.211 . S
O35 C34 1.211 . S
C36 O28 1.284 . S
C36 O37 1.273 . S
O37 C36 1.273 . S
O38 Zn29 1.977 . S
O38 C31 1.267 . S
C39 O40 1.160 1_554 S
C39 O46 1.185 . S
O40 C39 1.160 1_556 S
O41 Zn42 1.899 . S
O41 C49 1.284 . S
Zn42 O41 1.899 . S
Zn42 O43 2.032 1_554 S
Zn42 O46 2.086 . S
Zn42 O51 1.977 . S
O43 Zn42 2.032 1_556 S
O43 C47 1.278 . S
C44 O45 1.203 . S
C44 O51 1.267 . S
O45 C44 1.203 . S
O46 C39 1.185 . S
O46 Zn42 2.086 . S
C47 O43 1.278 . S
C47 O48 1.211 . S
O48 C47 1.211 . S
C49 O41 1.284 . S
C49 O50 1.273 . S
O50 C49 1.273 . S
O51 Zn42 1.977 . S
O51 C44 1.267 . S
C52 O53 1.160 . S
C52 O59 1.185 . S
O53 C52 1.160 . S
O54 Zn55 1.899 . S
O54 C62 1.284 . S
Zn55 O54 1.899 . S
Zn55 O56 2.032 . S
Zn55 O59 2.086 . S
Zn55 O64 1.977 . S
O56 Zn55 2.032 . S
O56 C60 1.278 . S
C57 O58 1.203 . S
C57 O64 1.267 . S
O58 C57 1.203 . S
O59 C52 1.185 . S
O59 Zn55 2.086 . S
C60 O56 1.278 . S
C60 O61 1.211 . S
O61 C60 1.211 . S
C62 O54 1.284 . S
C62 O63 1.273 . S
O63 C62 1.273 . S
O64 Zn55 1.977 . S
O64 C57 1.267 . S
C65 O66 1.160 . S
C65 O72 1.185 . S
O66 C65 1.160 . S
O67 Zn68 1.899 . S
O67 C75 1.284 . S
Zn68 O67 1.899 . S
Zn68 O69 2.032 . S
Zn68 O72 2.086 . S
Zn68 O77 1.977 . S
O69 Zn68 2.032 . S
O69 C73 1.278 . S
C70 O71 1.203 . S
C70 O77 1.267 . S
O71 C70 1.203 . S
O72 C65 1.185 . S
O72 Zn68 2.086 . S
C73 O69 1.278 . S
C73 O74 1.211 . S
O74 C73 1.211 . S
C75 O67 1.284 . S
C75 O76 1.273 . S
O76 C75 1.273 . S
O77 Zn68 1.977 . S
O77 C70 1.267 . S
C78 O79 1.160 . S
C78 O85 1.185 . S
O79 C78 1.160 . S
O80 Zn81 1.899 . S
O80 C88 1.284 . S
Zn81 O80 1.899 . S
Zn81 O82 2.032 1_556 S
Zn81 O85 2.086 . S
Zn81 O90 1.977 . S
O82 Zn81 2.032 1_554 S
O82 C86 1.278 . S
C83 O84 1.203 . S
C83 O90 1.267 . S
O84 C83 1.203 . S
O85 C78 1.185 . S
O85 Zn81 2.086 . S
C86 O82 1.278 . S
C86 O87 1.211 1_554 S
O87 C86 1.211 1_556 S
C88 O80 1.284 . S
C88 O89 1.273 . S
O89 C88 1.273 . S
O90 Zn81 1.977 . S
O90 C83 1.267 . S
C91 O92 1.160 1_556 S
C91 O98 1.185 . S
O92 C91 1.160 1_554 S
O93 Zn94 1.899 . S
O93 C101 1.284 . S
Zn94 O93 1.899 . S
Zn94 O95 2.032 1_556 S
Zn94 O98 2.086 . S
Zn94 O103 1.977 . S
O95 Zn94 2.032 1_554 S
O95 C99 1.278 . S
C96 O97 1.203 . S
C96 O103 1.267 . S
O97 C96 1.203 . S
O98 C91 1.185 . S
O98 Zn94 2.086 . S
C99 O95 1.278 . S
C99 O100 1.211 1_455 S
O100 C99 1.211 1_655 S
C101 O93 1.284 . S
C101 O102 1.273 . S
O102 C101 1.273 . S
O103 Zn94 1.977 . S
O103 C96 1.267 . S
C104 O105 1.160 . S
C104 O111 1.185 . S
O105 C104 1.160 . S
O106 Zn107 1.899 . S
O106 C114 1.284 . S
Zn107 O106 1.899 . S
Zn107 O108 2.032 1_556 S
Zn107 O111 2.086 . S
Zn107 O116 1.977 . S
O108 Zn107 2.032 1_554 S
O108 C112 1.278 . S
C109 O110 1.203 . S
C109 O116 1.267 . S
O110 C109 1.203 . S
O111 C104 1.185 . S
O111 Zn107 2.086 . S
C112 O108 1.278 . S
C112 O113 1.211 1_554 S
O113 C112 1.211 1_556 S
C114 O106 1.284 . S
C114 O115 1.273 . S
O115 C114 1.273 . S
O116 Zn107 1.977 . S
O116 C109 1.267 . S
C117 O118 1.160 . S
C117 O124 1.185 . S
O118 C117 1.160 . S
O119 Zn120 1.899 . S
O119 C127 1.284 . S
Zn120 O119 1.899 . S
Zn120 O121 2.032 . S
Zn120 O124 2.086 . S
Zn120 O129 1.977 . S
O121 Zn120 2.032 . S
O121 C125 1.278 . S
C122 O123 1.203 . S
C122 O129 1.267 . S
O123 C122 1.203 . S
O124 C117 1.185 . S
O124 Zn120 2.086 . S
C125 O121 1.278 . S
C125 O126 1.211 1_655 S
O126 C125 1.211 1_455 S
C127 O119 1.284 . S
C127 O128 1.273 . S
O128 C127 1.273 . S
O129 Zn120 1.977 . S
O129 C122 1.267 . S
C130 O131 1.160 . S
C130 O137 1.185 . S
O131 C130 1.160 . S
O132 Zn133 1.899 . S
O132 C140 1.284 . S
Zn133 O132 1.899 . S
Zn133 O134 2.032 . S
Zn133 O137 2.086 . S
Zn133 O142 1.977 . S
O134 Zn133 2.032 . S
O134 C138 1.278 . S
C135 O136 1.203 . S
C135 O142 1.267 . S
O136 C135 1.203 . S
O137 C130 1.185 . S
O137 Zn133 2.086 . S
C138 O134 1.278 . S
C138 O139 1.211 . S
O139 C138 1.211 . S
C140 O132 1.284 . S
C140 O141 1.273 . S
O141 C140 1.273 . S
O142 Zn133 1.977 . S
O142 C135 1.267 . S
C143 O144 1.160 1_556 S
C143 O150 1.185 . S
O144 C143 1.160 1_554 S
O145 Zn146 1.899 . S
O145 C153 1.284 . S
Zn146 O145 1.899 . S
Zn146 O147 2.032 1_556 S
Zn146 O150 2.086 . S
Zn146 O155 1.977 . S
O147 Zn146 2.032 1_554 S
O147 C151 1.278 . S
C148 O149 1.203 . S
C148 O155 1.267 . S
O149 C148 1.203 . S
O150 C143 1.185 . S
O150 Zn146 2.086 . S
C151 O147 1.278 . S
C151 O152 1.211 . S
O152 C151 1.211 . S
C153 O145 1.284 . S
C153 O154 1.273 . S
O154 C153 1.273 . S
O155 Zn146 1.977 . S
O155 C148 1.267 . S
C156 O157 1.160 . S
C156 O163 1.185 . S
O157 C156 1.160 . S
O158 Zn159 1.899 . S
O158 C166 1.284 . S
Zn159 O158 1.899 . S
Zn159 O160 2.032 . S
Zn159 O163 2.086 . S
Zn159 O168 1.977 . S
O160 Zn159 2.032 . S
O160 C164 1.278 . S
C161 O162 1.203 . S
C161 O168 1.267 . S
O162 C161 1.203 . S
O163 C156 1.185 . S
O163 Zn159 2.086 . S
C164 O160 1.278 . S
C164 O165 1.211 . S
O165 C164 1.211 . S
C166 O158 1.284 . S
C166 O167 1.273 . S
O167 C166 1.273 . S
O168 Zn159 1.977 . S
O168 C161 1.267 . S
C169 O170 1.160 . S
C169 O176 1.185 . S
O170 C169 1.160 . S
O171 Zn172 1.899 . S
O171 C179 1.284 . S
Zn172 O171 1.899 . S
Zn172 O173 2.032 . S
Zn172 O176 2.086 . S
Zn172 O181 1.977 . S
O173 Zn172 2.032 . S
O173 C177 1.278 . S
C174 O175 1.203 . S
C174 O181 1.267 . S
O175 C174 1.203 . S
O176 C169 1.185 . S
O176 Zn172 2.086 . S
C177 O173 1.278 . S
C177 O178 1.211 . S
O178 C177 1.211 . S
C179 O171 1.284 . S
C179 O180 1.273 . S
O180 C179 1.273 . S
O181 Zn172 1.977 . S
O181 C174 1.267 . S
C182 O183 1.160 . S
C182 O189 1.185 . S
O183 C182 1.160 . S
O184 Zn185 1.899 . S
O184 C192 1.284 . S
Zn185 O184 1.899 . S
Zn185 O186 2.032 1_554 S
Zn185 O189 2.086 . S
Zn185 O194 1.977 . S
O186 Zn185 2.032 1_556 S
O186 C190 1.278 . S
C187 O188 1.203 . S
C187 O194 1.267 . S
O188 C187 1.203 . S
O189 C182 1.185 . S
O189 Zn185 2.086 . S
C190 O186 1.278 . S
C190 O191 1.211 1_556 S
O191 C190 1.211 1_554 S
C192 O184 1.284 . S
C192 O193 1.273 . S
O193 C192 1.273 . S
O194 Zn185 1.977 . S
O194 C187 1.267 . S
C195 O196 1.160 1_554 S
C195 O202 1.185 . S
O196 C195 1.160 1_556 S
O197 Zn198 1.899 . S
O197 C205 1.284 . S
Zn198 O197 1.899 . S
Zn198 O199 2.032 1_554 S
Zn198 O202 2.086 . S
Zn198 O207 1.977 . S
O199 Zn198 2.032 1_556 S
O199 C203 1.278 . S
C200 O201 1.203 . S
C200 O207 1.267 . S
O201 C200 1.203 . S
O202 C195 1.185 . S
O202 Zn198 2.086 . S
C203 O199 1.278 . S
C203 O204 1.211 1_655 S
O204 C203 1.211 1_455 S
C205 O197 1.284 . S
C205 O206 1.273 . S
O206 C205 1.273 . S
O207 Zn198 1.977 . S
O207 C200 1.267 . S
C208 O209 1.160 . S
C208 O215 1.185 . S
O209 C208 1.160 . S
O210 Zn211 1.899 . S
O210 C218 1.284 . S
Zn211 O210 1.899 . S
Zn211 O212 2.032 . S
Zn211 O215 2.086 . S
Zn211 O220 1.977 . S
O212 Zn211 2.032 . S
O212 C216 1.278 . S
C213 O214 1.203 . S
C213 O220 1.267 . S
O214 C213 1.203 . S
O215 C208 1.185 . S
O215 Zn211 2.086 . S
C216 O212 1.278 . S
C216 O217 1.211 . S
O217 C216 1.211 . S
C218 O210 1.284 . S
C218 O219 1.273 . S
O219 C218 1.273 . S
O220 Zn211 1.977 . S
O220 C213 1.267 . S
C221 O222 1.160 1_554 S
C221 O228 1.185 . S
O222 C221 1.160 1_556 S
O223 Zn224 1.899 . S
O223 C231 1.284 . S
Zn224 O223 1.899 . S
Zn224 O225 2.032 1_554 S
Zn224 O228 2.086 . S
Zn224 O233 1.977 . S
O225 Zn224 2.032 1_556 S
O225 C229 1.278 . S
C226 O227 1.203 . S
C226 O233 1.267 . S
O227 C226 1.203 . S
O228 C221 1.185 . S
O228 Zn224 2.086 . S
C229 O225 1.278 . S
C229 O230 1.211 . S
O230 C229 1.211 . S
C231 O223 1.284 . S
C231 O232 1.273 . S
O232 C231 1.273 . S
O233 Zn224 1.977 . S
O233 C226 1.267 . S
C234 O235 1.160 . S
C234 O241 1.185 . S
O235 C234 1.160 . S
O236 Zn237 1.899 . S
O236 C244 1.284 . S
Zn237 O236 1.899 . S
Zn237 O238 2.032 1_554 S
Zn237 O241 2.086 . S
Zn237 O246 1.977 . S
O238 Zn237 2.032 1_556 S
O238 C242 1.278 . S
C239 O240 1.203 . S
C239 O246 1.267 . S
O240 C239 1.203 . S
O241 C234 1.185 . S
O241 Zn237 2.086 . S
C242 O238 1.278 . S
C242 O243 1.211 1_556 S
O243 C242 1.211 1_554 S
C244 O236 1.284 . S
C244 O245 1.273 . S
O245 C244 1.273 . S
O246 Zn237 1.977 . S
O246 C239 1.267 . S
C247 O248 1.160 . S
C247 O254 1.185 . S
O248 C247 1.160 . S
O249 Zn250 1.899 . S
O249 C257 1.284 . S
Zn250 O249 1.899 . S
Zn250 O251 2.032 . S
Zn250 O254 2.086 . S
Zn250 O259 1.977 . S
O251 Zn250 2.032 . S
O251 C255 1.278 . S
C252 O253 1.203 . S
C252 O259 1.267 . S
O253 C252 1.203 . S
O254 C247 1.185 . S
O254 Zn250 2.086 . S
C255 O251 1.278 . S
C255 O256 1.211 1_655 S
O256 C255 1.211 1_455 S
C257 O249 1.284 . S
C257 O258 1.273 . S
O258 C257 1.273 . S
O259 Zn250 1.977 . S
O259 C252 1.267 . S
C260 O261 1.160 . S
C260 O267 1.185 . S
O261 C260 1.160 . S
O262 Zn263 1.899 . S
O262 C270 1.284 . S
Zn263 O262 1.899 . S
Zn263 O264 2.032 1_556 S
Zn263 O267 2.086 . S
Zn263 O272 1.977 . S
O264 Zn263 2.032 1_554 S
O264 C268 1.278 . S
C265 O266 1.203 . S
C265 O272 1.267 . S
O266 C265 1.203 . S
O267 C260 1.185 . S
O267 Zn263 2.086 . S
C268 O264 1.278 . S
C268 O269 1.211 1_554 S
O269 C268 1.211 1_556 S
C270 O262 1.284 . S
C270 O271 1.273 . S
O271 C270 1.273 . S
O272 Zn263 1.977 . S
O272 C265 1.267 . S
C273 O274 1.160 1_556 S
C273 O280 1.185 . S
O274 C273 1.160 1_554 S
O275 Zn276 1.899 . S
O275 C283 1.284 . S
Zn276 O275 1.899 . S
Zn276 O277 2.032 1_556 S
Zn276 O280 2.086 . S
Zn276 O285 1.977 . S
O277 Zn276 2.032 1_554 S
O277 C281 1.278 . S
C278 O279 1.203 . S
C278 O285 1.267 . S
O279 C278 1.203 . S
O280 C273 1.185 . S
O280 Zn276 2.086 . S
C281 O277 1.278 . S
C281 O282 1.211 1_655 S
O282 C281 1.211 1_455 S
C283 O275 1.284 . S
C283 O284 1.273 . S
O284 C283 1.273 . S
O285 Zn276 1.977 . S
O285 C278 1.267 . S
C286 O287 1.160 . S
C286 O293 1.185 . S
O287 C286 1.160 . S
O288 Zn289 1.899 . S
O288 C296 1.284 . S
Zn289 O288 1.899 . S
Zn289 O290 2.032 . S
Zn289 O293 2.086 . S
Zn289 O298 1.977 . S
O290 Zn289 2.032 . S
O290 C294 1.278 . S
C291 O292 1.203 . S
C291 O298 1.267 . S
O292 C291 1.203 . S
O293 C286 1.185 . S
O293 Zn289 2.086 . S
C294 O290 1.278 . S
C294 O295 1.211 . S
O295 C294 1.211 . S
C296 O288 1.284 . S
C296 O297 1.273 . S
O297 C296 1.273 . S
O298 Zn289 1.977 . S
O298 C291 1.267 . S
C299 O300 1.160 . S
C299 O306 1.185 . S
O300 C299 1.160 . S
O301 Zn302 1.899 . S
O301 C309 1.284 . S
Zn302 O301 1.899 . S
Zn302 O303 2.032 . S
Zn302 O306 2.086 . S
Zn302 O311 1.977 . S
O303 Zn302 2.032 . S
O303 C307 1.278 . S
C304 O305 1.203 . S
C304 O311 1.267 . S
O305 C304 1.203 . S
O306 C299 1.185 . S
O306 Zn302 2.086 . S
C307 O303 1.278 . S
C307 O308 1.211 . S
O308 C307 1.211 . S
C309 O301 1.284 . S
C309 O310 1.273 . S
O310 C309 1.273 . S
O311 Zn302 1.977 . S
O311 C304 1.267 . S
C312 O313 1.160 . S
C312 O319 1.185 . S
O313 C312 1.160 . S
O314 Zn315 1.899 . S
O314 C322 1.284 . S
Zn315 O314 1.899 . S
Zn315 O316 2.032 . S
Zn315 O319 2.086 . S
Zn315 O324 1.977 . S
O316 Zn315 2.032 . S
O316 C320 1.278 . S
C317 O318 1.203 . S
C317 O324 1.267 . S
O318 C317 1.203 . S
O319 C312 1.185 . S
O319 Zn315 2.086 . S
C320 O316 1.278 . S
C320 O321 1.211 . S
O321 C320 1.211 . S
C322 O314 1.284 . S
C322 O323 1.273 . S
O323 C322 1.273 . S
O324 Zn315 1.977 . S
O324 C317 1.267 . S
C325 O326 1.160 1_556 S
C325 O332 1.185 . S
O326 C325 1.160 1_554 S
O327 Zn328 1.899 . S
O327 C335 1.284 . S
Zn328 O327 1.899 . S
Zn328 O329 2.032 1_556 S
Zn328 O332 2.086 . S
Zn328 O337 1.977 . S
O329 Zn328 2.032 1_554 S
O329 C333 1.278 . S
C330 O331 1.203 . S
C330 O337 1.267 . S
O331 C330 1.203 . S
O332 C325 1.185 . S
O332 Zn328 2.086 . S
C333 O329 1.278 . S
C333 O334 1.211 . S
O334 C333 1.211 . S
C335 O327 1.284 . S
C335 O336 1.273 . S
O336 C335 1.273 . S
O337 Zn328 1.977 . S
O337 C330 1.267 . S
C338 O339 1.160 . S
C338 O345 1.185 . S
O339 C338 1.160 . S
O340 Zn341 1.899 . S
O340 C348 1.284 . S
Zn341 O340 1.899 . S
Zn341 O342 2.032 1_556 S
Zn341 O345 2.086 . S
Zn341 O350 1.977 . S
O342 Zn341 2.032 1_554 S
O342 C346 1.278 . S
C343 O344 1.203 . S
C343 O350 1.267 . S
O344 C343 1.203 . S
O345 C338 1.185 . S
O345 Zn341 2.086 . S
C346 O342 1.278 . S
C346 O347 1.211 1_554 S
O347 C346 1.211 1_556 S
C348 O340 1.284 . S
C348 O349 1.273 . S
O349 C348 1.273 . S
O350 Zn341 1.977 . S
O350 C343 1.267 . S
C351 O352 1.160 . S
C351 O358 1.185 . S
O352 C351 1.160 . S
O353 Zn354 1.899 . S
O353 C361 1.284 . S
Zn354 O353 1.899 . S
Zn354 O355 2.032 . S
Zn354 O358 2.086 . S
Zn354 O363 1.977 . S
O355 Zn354 2.032 . S
O355 C359 1.278 . S
C356 O357 1.203 . S
C356 O363 1.267 . S
O357 C356 1.203 . S
O358 C351 1.185 . S
O358 Zn354 2.086 . S
C359 O355 1.278 . S
C359 O360 1.211 1_455 S
O360 C359 1.211 1_655 S
C361 O353 1.284 . S
C361 O362 1.273 . S
O362 C361 1.273 . S
O363 Zn354 1.977 . S
O363 C356 1.267 . S
C364 O365 1.160 . S
C364 O371 1.185 . S
O365 C364 1.160 . S
O366 Zn367 1.899 . S
O366 C374 1.284 . S
Zn367 O366 1.899 . S
Zn367 O368 2.032 1_554 S
Zn367 O371 2.086 . S
Zn367 O376 1.977 . S
O368 Zn367 2.032 1_556 S
O368 C372 1.278 . S
C369 O370 1.203 . S
C369 O376 1.267 . S
O370 C369 1.203 . S
O371 C364 1.185 . S
O371 Zn367 2.086 . S
C372 O368 1.278 . S
C372 O373 1.211 1_556 S
O373 C372 1.211 1_554 S
C374 O366 1.284 . S
C374 O375 1.273 . S
O375 C374 1.273 . S
O376 Zn367 1.977 . S
O376 C369 1.267 . S
C377 O378 1.160 1_554 S
C377 O384 1.185 . S
O378 C377 1.160 1_556 S
O379 Zn380 1.899 . S
O379 C387 1.284 . S
Zn380 O379 1.899 . S
Zn380 O381 2.032 1_554 S
Zn380 O384 2.086 . S
Zn380 O389 1.977 . S
O381 Zn380 2.032 1_556 S
O381 C385 1.278 . S
C382 O383 1.203 . S
C382 O389 1.267 . S
O383 C382 1.203 . S
O384 C377 1.185 . S
O384 Zn380 2.086 . S
C385 O381 1.278 . S
C385 O386 1.211 1_455 S
O386 C385 1.211 1_655 S
C387 O379 1.284 . S
C387 O388 1.273 . S
O388 C387 1.273 . S
O389 Zn380 1.977 . S
O389 C382 1.267 . S
C390 O391 1.160 . S
C390 O397 1.185 . S
O391 C390 1.160 . S
O392 Zn393 1.899 . S
O392 C400 1.284 . S
Zn393 O392 1.899 . S
Zn393 O394 2.032 . S
Zn393 O397 2.086 . S
Zn393 O402 1.977 . S
O394 Zn393 2.032 . S
O394 C398 1.278 . S
C395 O396 1.203 . S
C395 O402 1.267 . S
O396 C395 1.203 . S
O397 C390 1.185 . S
O397 Zn393 2.086 . S
C398 O394 1.278 . S
C398 O399 1.211 . S
O399 C398 1.211 . S
C400 O392 1.284 . S
C400 O401 1.273 . S
O401 C400 1.273 . S
O402 Zn393 1.977 . S
O402 C395 1.267 . S
C403 O404 1.160 . S
C403 O410 1.185 . S
O404 C403 1.160 . S
O405 Zn406 1.899 . S
O405 C413 1.284 . S
Zn406 O405 1.899 . S
Zn406 O407 2.032 . S
Zn406 O410 2.086 . S
Zn406 O415 1.977 . S
O407 Zn406 2.032 . S
O407 C411 1.278 . S
C408 O409 1.203 . S
C408 O415 1.267 . S
O409 C408 1.203 . S
O410 C403 1.185 . S
O410 Zn406 2.086 . S
C411 O407 1.278 . S
C411 O412 1.211 . S
O412 C411 1.211 . S
C413 O405 1.284 . S
C413 O414 1.273 . S
O414 C413 1.273 . S
O415 Zn406 1.977 . S
O415 C408 1.267 . S
C88 C10 3.678 . S
C23 C101 1.656 1_565 S
C62 C36 3.679 1_554 S
C49 C75 1.656 1_545 S
C192 C114 3.678 . S
C127 C205 1.655 1_545 S
C166 C140 3.679 1_556 S
C153 C179 1.655 1_565 S
C218 C296 3.678 1_556 S
C309 C231 1.655 . S
C244 C270 3.679 . S
C283 C257 1.655 . S
C400 C322 3.678 1_556 S
C413 C335 1.655 . S
C374 C348 3.679 . S
C361 C387 1.655 . S
C91 C0 1.576 1_556 S
C52 C13 1.576 . S
C65 C26 1.576 . S
C78 C39 1.576 1_556 S
C195 C104 1.576 1_554 S
C156 C117 1.576 . S
C169 C130 1.576 . S
C143 C182 1.576 1_556 S
C299 C208 1.576 . S
C221 C260 1.577 1_554 S
C234 C273 1.577 1_554 S
C286 C247 1.576 . S
C403 C312 1.576 . S
C325 C364 1.577 1_556 S
C338 C377 1.577 1_556 S
C390 C351 1.576 . S
C8 C395 1.792 . S
C200 C21 0.952 1_655 S
C369 C34 1.792 . S
C174 C47 0.952 . S
C343 C60 1.792 . S
C73 C148 0.952 . S
C86 C317 1.792 . S
C99 C122 0.952 1_455 S
C112 C291 1.792 . S
C96 C125 0.952 1_455 S
C265 C138 1.792 . S
C70 C151 0.952 . S
C239 C164 1.792 . S
C44 C177 0.952 . S
C190 C213 1.792 . S
C18 C203 0.952 1_455 S
C187 C216 1.792 . S
C408 C229 0.952 . S
C242 C161 1.792 . S
C255 C382 0.952 1_655 S
C268 C135 1.792 . S
C281 C356 0.952 1_655 S
C294 C109 1.792 . S
C307 C330 0.952 . S
C83 C320 1.792 . S
C304 C333 0.952 . S
C57 C346 1.792 . S
C359 C278 0.952 1_455 S
C372 C31 1.792 . S
C252 C385 0.952 1_655 S
C398 C5 1.792 . S
C411 C226 0.952 . S
