# Generated by pormake.
# Topology ilc, (8)-cn, num edge types: 1
# Building blocks:
#     Node 0, Type 0, BuildingBlock: XADDAJ01_clean_sbu_3, # of connection points: 8
#     Node 1, Type 0, BuildingBlock: XADDAJ01_clean_sbu_3, # of connection points: 8
#     Node 2, Type 0, BuildingBlock: XADDAJ01_clean_sbu_3, # of connection points: 8
#     Edge 3, Type (0, 0), BuildingBlock: CIFDUS_clean_linker_0, # of connection points: 2
#     Edge 4, Type (0, 0), BuildingBlock: CIFDUS_clean_linker_0, # of connection points: 2
#     Edge 5, Type (0, 0), BuildingBlock: CIFDUS_clean_linker_0, # of connection points: 2
#     Edge 6, Type (0, 0), BuildingBlock: CIFDUS_clean_linker_0, # of connection points: 2
#     Edge 7, Type (0, 0), BuildingBlock: CIFDUS_clean_linker_0, # of connection points: 2
#     Edge 8, Type (0, 0), BuildingBlock: CIFDUS_clean_linker_0, # of connection points: 2
#     Edge 9, Type (0, 0), BuildingBlock: CIFDUS_clean_linker_0, # of connection points: 2
#     Edge 10, Type (0, 0), BuildingBlock: CIFDUS_clean_linker_0, # of connection points: 2
#     Edge 11, Type (0, 0), BuildingBlock: CIFDUS_clean_linker_0, # of connection points: 2
#     Edge 12, Type (0, 0), BuildingBlock: CIFDUS_clean_linker_0, # of connection points: 2
#     Edge 13, Type (0, 0), BuildingBlock: CIFDUS_clean_linker_0, # of connection points: 2
#     Edge 14, Type (0, 0), BuildingBlock: CIFDUS_clean_linker_0, # of connection points: 2
# Relax obj value: 0.176
# Max RMSD: 0.203
# Mean RMSD: 0.203
data_MOF--net-ilc--node1-XADDAJ01_clean_sbu_3--edge1-CIFDUS_clean_linker_0
_symmetry_space_group_name_H-M    P1
_symmetry_Int_Tables_number       1
_symmetry_cell_setting            triclinic
loop_
_symmetry_equiv_pos_as_xyz
'x, y, z'
_cell_length_a     20.042207
_cell_length_b     27.647026
_cell_length_c     17.35996
_cell_angle_alpha  101.28933
_cell_angle_beta   74.771704
_cell_angle_gamma 144.02545
loop_
_atom_site_label
_atom_site_type_symbol
_atom_site_fract_x
_atom_site_fract_y
_atom_site_fract_z
_atom_type_partial_charge
C0 C 0.22456 0.07647 0.17159 0.0
C1 C 0.25792 0.12648 0.23813 0.0
C2 C 0.29761 0.12874 0.29587 0.0
C3 C 0.31322 0.08681 0.28316 0.0
C4 C 0.26133 1.02546 0.22647 0.0
C5 C 0.22026 1.02238 0.16814 0.0
O6 O 0.9239 1.01324 0.14069 0.0
Tb7 Tb 0.10439 0.10489 0.083 0.0
Tb8 Tb 0.91294 0.94343 0.96135 0.0
O9 O 0.14892 0.19679 0.16306 0.0
O10 O 0.83878 0.89377 0.0833 0.0
O11 O 0.25225 0.15475 0.09475 0.0
C12 C 0.85508 0.98897 0.92641 0.0
O13 O 0.08733 1.02106 0.09852 0.0
O14 O 0.09436 1.03183 0.91024 0.0
O15 O 0.15927 0.14468 0.96016 0.0
C16 C 0.19634 0.08199 0.10598 0.0
C17 C 0.91576 0.83818 0.85981 0.0
O18 O 0.98667 0.86987 0.90561 0.0
C19 C 0.84245 0.93274 0.14405 0.0
C20 C 0.16866 0.11047 0.90358 0.0
O21 O 0.86752 0.85468 0.87359 0.0
C22 C 0.90035 1.0351 0.85441 0.0
C23 C 0.90012 0.09242 0.76365 0.0
C24 C 0.85352 0.05017 0.83603 0.0
C25 C 0.99091 0.06098 0.80047 0.0
C26 C 1.0363 0.10174 0.72888 0.0
C27 C 0.99093 0.11738 0.71129 0.0
C28 C 0.10981 0.21765 0.15806 0.0
O29 O 1.04875 0.18458 0.10252 0.0
O30 O 0.79837 0.91478 0.91318 0.0
O31 O 0.93112 1.03055 0.9725 0.0
H32 H 0.24788 0.16037 0.24669 0.0
H33 H 0.34676 0.09161 0.32823 0.0
H34 H 0.18412 0.97788 0.12133 0.0
H35 H 0.78165 1.02873 0.87669 0.0
H36 H 1.02207 0.04529 0.81259 0.0
H37 H 1.0203 0.14334 0.65295 0.0
C38 C 0.78667 0.31681 0.49631 0.0
C39 C 0.72384 0.30978 0.56517 0.0
C40 C 0.67996 0.26387 0.63144 0.0
C41 C 0.68852 0.21809 0.62644 0.0
C42 C 0.75657 0.22774 0.56011 0.0
C43 C 0.80502 0.27691 0.49401 0.0
O44 O 0.64672 0.37125 0.46452 0.0
Tb45 Tb 0.82187 0.44768 0.40933 0.0
Tb46 Tb 0.64287 0.31088 0.28912 0.0
O47 O 0.87957 0.53743 0.50141 0.0
O48 O 0.55707 0.25223 0.40713 0.0
O49 O 0.91139 0.44984 0.45427 0.0
C50 C 0.61975 0.38045 0.25707 0.0
O51 O 0.77449 0.34598 0.38687 0.0
O52 O 0.81738 0.387 0.23137 0.0
O53 O 0.90921 0.50669 0.29014 0.0
C54 C 0.84332 0.37407 0.43214 0.0
C55 C 0.60569 0.18534 0.19984 0.0
O56 O 0.67482 0.21474 0.24595 0.0
C57 C 0.56339 0.29096 0.46916 0.0
C58 C 0.90302 0.46778 0.22773 0.0
O59 O 0.57412 0.21337 0.20667 0.0
C60 C 0.67766 0.4306 0.1849 0.0
C61 C 0.73012 0.52365 0.10456 0.0
C62 C 0.67832 0.48085 0.17749 0.0
C63 C 0.72689 0.42279 0.11955 0.0
C64 C 0.77687 0.4647 0.0476 0.0
C65 C 0.78467 0.5187 0.04204 0.0
C66 C 0.84623 0.56476 0.5123 0.0
O67 O 0.7854 0.54221 0.46275 0.0
O68 O 0.54651 0.30209 0.24393 0.0
O69 O 0.68941 0.41231 0.30434 0.0
H70 H 0.72007 0.34732 0.57049 0.0
H71 H 0.65996 0.18703 0.68037 0.0
H72 H 0.86149 0.28768 0.44343 0.0
H73 H 0.6341 0.4831 0.22596 0.0
H74 H 0.71911 0.37952 0.12271 0.0
H75 H 0.82041 0.54902 0.98491 0.0
C76 C 0.55999 0.71949 0.8552 0.0
C77 C 0.52491 0.73328 0.9257 0.0
C78 C 0.5234 0.7194 0.99886 0.0
C79 C 0.56276 0.69595 1.00284 0.0
C80 C 0.60327 0.68482 0.93305 0.0
C81 C 0.5988 0.69447 0.85812 0.0
O82 O 0.32222 0.69935 0.75966 0.0
Tb83 Tb 0.50077 0.78661 0.76672 0.0
Tb84 Tb 0.24941 0.62263 0.59575 0.0
O85 O 0.52999 0.85806 0.86983 0.0
O86 O 0.17891 0.57015 0.71577 0.0
O87 O 0.62831 0.80744 0.76141 0.0
C88 C 0.20199 0.68039 0.57885 0.0
O89 O 0.44498 0.68336 0.77879 0.0
O90 O 0.42312 0.71198 0.61494 0.0
O91 O 0.57399 0.84245 0.64912 0.0
C92 C 0.55014 0.73007 0.78144 0.0
C93 C 0.243 0.51359 0.50819 0.0
O94 O 0.29024 0.53633 0.56948 0.0
C95 C 0.23421 0.61952 0.77472 0.0
C96 C 0.51331 0.79041 0.59357 0.0
O97 O 0.21347 0.54122 0.50233 0.0
C98 C 0.16144 0.67492 0.51436 0.0
C99 C 0.13392 0.7237 0.44093 0.0
C100 C 0.16221 0.72579 0.50926 0.0
C101 C 0.14061 0.62735 0.44975 0.0
C102 C 0.12073 0.62985 0.38067 0.0
C103 C 0.10432 0.67008 0.38015 0.0
C104 C 0.4837 0.87585 0.88398 0.0
O105 O 0.41967 0.8497 0.83492 0.0
O106 O 0.12798 0.61 0.61673 0.0
O107 O 0.30663 0.72118 0.5589 0.0
H108 H 0.49162 0.75002 0.92371 0.0
H109 H 0.55664 0.68284 0.06113 0.0
H110 H 0.62433 0.6825 0.8034 0.0
H111 H 0.18979 0.76908 0.55573 0.0
H112 H 0.15522 0.59709 0.44942 0.0
H113 H 0.09227 0.67293 0.32466 0.0
H114 H 0.21807 0.23205 0.62358 0.0
H115 H 1.02427 0.99512 0.68937 0.0
H116 H 0.1071 0.99203 0.56279 0.0
H117 H 0.19707 1.03975 0.42735 0.0
H118 H 0.37456 0.26729 0.34922 0.0
H119 H 0.33158 0.28967 0.48703 0.0
C120 C 0.19602 0.18064 0.61045 0.0
C121 C 0.11371 0.11335 0.66512 0.0
C122 C 0.23783 0.17638 0.53503 0.0
C123 C 0.08749 0.04789 0.64875 0.0
C124 C 0.13314 0.04524 0.57566 0.0
C125 C 0.23092 0.09625 0.4402 0.0
C126 C 0.29054 0.15254 0.37834 0.0
C127 C 0.2032 0.10691 0.51745 0.0
C128 C 0.32893 0.22334 0.39608 0.0
C129 C 0.30435 0.23596 0.47459 0.0
H130 H 0.8553 0.4095 0.68965 0.0
H131 H 0.491 0.17302 0.75122 0.0
H132 H 0.49431 0.21166 0.89174 0.0
H133 H 0.60271 0.31351 0.99496 0.0
H134 H 0.96666 0.55017 0.93176 0.0
H135 H 0.96431 0.50909 0.79291 0.0
C136 C 0.77623 0.3674 0.73382 0.0
C137 C 0.67213 0.28992 0.71102 0.0
C138 C 0.78046 0.38868 0.81367 0.0
C139 C 0.57077 0.23393 0.76814 0.0
C140 C 0.57342 0.25548 0.84809 0.0
C141 C 0.68206 0.35477 0.95105 0.0
C142 C 0.7855 0.43377 0.9728 0.0
C143 C 0.67821 0.33227 0.87142 0.0
C144 C 0.88734 0.48836 0.9158 0.0
C145 C 0.88523 0.46548 0.83663 0.0
H146 H 0.33794 0.58908 0.09682 0.0
H147 H 0.57351 0.84282 0.05574 0.0
H148 H 0.45742 0.83251 0.16672 0.0
H149 H 0.29483 0.75282 0.27522 0.0
H150 H 0.06171 0.50049 0.32221 0.0
H151 H 0.17133 0.50781 0.20682 0.0
C152 C 0.36418 0.64216 0.11349 0.0
C153 C 0.46345 0.71685 0.07025 0.0
C154 C 0.29711 0.63531 0.1763 0.0
C155 C 0.49703 0.78528 0.0897 0.0
C156 C 0.43078 0.77913 0.15229 0.0
C157 C 0.26571 0.69847 0.25888 0.0
C158 C 0.16853 0.62525 0.30496 0.0
C159 C 0.33077 0.70438 0.19544 0.0
C160 C 0.13469 0.55656 0.28589 0.0
C161 C 0.19789 0.56116 0.22081 0.0
H162 H 1.00648 0.70733 0.37577 0.0
H163 H 0.33507 0.88865 0.44945 0.0
H164 H 0.41163 0.99559 0.37346 0.0
H165 H 0.38876 1.03589 0.28142 0.0
H166 H 0.05691 0.85896 0.21545 0.0
H167 H 0.98175 0.7499 0.28594 0.0
C168 C 0.09395 0.77075 0.37679 0.0
C169 C 0.16459 0.79003 0.41904 0.0
C170 C 0.13878 0.83148 0.33052 0.0
C171 C 0.27794 0.87228 0.41928 0.0
C172 C 0.32271 0.93307 0.37405 0.0
C173 C 0.30006 0.97353 0.28171 0.0
C174 C 0.22872 0.95664 0.24358 0.0
C175 C 0.25474 0.91287 0.32804 0.0
C176 C 0.11483 0.87444 0.24326 0.0
C177 C 0.07074 0.81227 0.28551 0.0
H178 H 0.14516 0.45001 0.37381 0.0
H179 H 0.30215 0.45321 0.50793 0.0
H180 H 0.27716 0.36424 0.41215 0.0
H181 H 0.21079 0.28451 0.29004 0.0
H182 H 1.05129 0.27873 0.15582 0.0
H183 H 0.07757 0.36911 0.25098 0.0
C184 C 0.17406 0.43136 0.38195 0.0
C185 C 0.22587 0.45886 0.44818 0.0
C186 C 0.15922 0.37947 0.32627 0.0
C187 C 0.26223 0.4335 0.45768 0.0
C188 C 0.24802 0.38238 0.40277 0.0
C189 C 0.18217 0.30322 0.28133 0.0
C190 C 0.12943 0.27475 0.21548 0.0
C191 C 0.19681 0.35499 0.33674 0.0
C192 C 0.09236 0.29955 0.20575 0.0
C193 C 0.10726 0.35136 0.26031 0.0
H194 H 0.48221 0.7088 0.45713 0.0
H195 H 0.64631 0.93966 0.54214 0.0
H196 H 0.75367 1.00101 0.40786 0.0
H197 H 0.8187 0.99475 0.27155 0.0
H198 H 0.66607 0.76788 0.18485 0.0
H199 H 0.53575 0.69909 0.31404 0.0
C200 C 0.53925 0.77184 0.44562 0.0
C201 C 0.55656 0.81978 0.50958 0.0
C202 C 0.6043 0.80785 0.36829 0.0
C203 C 0.63175 0.90164 0.49405 0.0
C204 C 0.69369 0.9369 0.41732 0.0
C205 C 0.75657 0.93002 0.28022 0.0
C206 C 0.75401 0.8871 0.21861 0.0
C207 C 0.68377 0.89154 0.35478 0.0
C208 C 0.67112 0.80284 0.23124 0.0
C209 C 0.59658 0.76348 0.30527 0.0
H210 H 0.63069 0.082 0.61864 0.0
H211 H 0.97964 0.3259 0.53653 0.0
H212 H 0.05405 0.3082 0.60024 0.0
H213 H 1.01925 0.22987 0.69094 0.0
H214 H 0.67352 0.98259 0.76633 0.0
H215 H 0.59687 0.99734 0.69943 0.0
C216 C 0.72314 0.13026 0.6129 0.0
C217 C 0.79958 0.20519 0.57278 0.0
C218 C 0.76508 0.12083 0.65244 0.0
C219 C 0.9191 0.26724 0.56569 0.0
C220 C 0.96154 0.25788 0.60383 0.0
C221 C 0.92691 0.17906 0.69288 0.0
C222 C 0.85146 0.10551 0.73538 0.0
C223 C 0.88511 0.18623 0.64969 0.0
C224 C 0.73242 1.04067 0.73726 0.0
C225 C 0.68926 0.04851 0.69705 0.0
H226 H 0.805 0.64025 0.54208 0.0
H227 H 0.94151 0.60546 0.63963 0.0
H228 H 0.97383 0.68558 0.75562 0.0
H229 H 0.96096 0.76458 0.83081 0.0
H230 H 0.82638 0.79991 0.73097 0.0
H231 H 0.79414 0.71975 0.61575 0.0
C232 C 0.84204 0.65016 0.58855 0.0
C233 C 0.87093 0.61669 0.58157 0.0
C234 C 0.85975 0.69596 0.65545 0.0
C235 C 0.91899 0.63065 0.64276 0.0
C236 C 0.93711 0.67632 0.70945 0.0
C237 C 0.92457 0.75476 0.78383 0.0
C238 C 0.89471 0.78759 0.79049 0.0
C239 C 0.90743 0.7091 0.7167 0.0
C240 C 0.84807 0.77424 0.72863 0.0
C241 C 0.83036 0.72879 0.66219 0.0
H242 H 0.53009 0.34626 0.59899 0.0
H243 H 0.42435 0.13689 0.5139 0.0
H244 H 0.30014 0.06529 0.64307 0.0
H245 H 0.21418 0.05938 0.77777 0.0
H246 H 0.317 0.26783 0.86148 0.0
H247 H 0.44945 0.34232 0.73521 0.0
C248 C 0.47974 0.28489 0.60863 0.0
C249 C 0.48532 0.24656 0.54652 0.0
C250 C 0.40774 0.24379 0.68278 0.0
C251 C 0.42032 0.16733 0.56027 0.0
C252 C 0.34986 0.12655 0.63432 0.0
C253 C 0.26619 0.12137 0.76874 0.0
C254 C 0.25507 0.15771 0.82907 0.0
C255 C 0.34164 0.16373 0.69563 0.0
C256 C 0.32346 0.23818 0.81619 0.0
C257 C 0.39916 0.28084 0.74385 0.0
H258 H 0.63023 0.48341 0.98556 0.0
H259 H 0.79515 0.65168 0.17836 0.0
H260 H 0.78706 0.72542 0.13266 0.0
H261 H 0.73196 0.74021 0.03854 0.0
H262 H 0.55619 0.5663 0.85071 0.0
H263 H 0.57852 0.50002 0.8898 0.0
C264 C 0.66394 0.53613 0.01772 0.0
C265 C 0.71263 0.56224 0.08544 0.0
C266 C 0.66059 0.57835 0.99035 0.0
C267 C 0.75582 0.63013 0.12695 0.0
C268 C 0.75263 0.67269 0.1001 0.0
C269 C 0.69833 0.68767 1.00609 0.0
C270 C 0.64012 0.65701 0.94284 0.0
C271 C 0.70546 0.64728 0.03181 0.0
C272 C 0.6012 0.59109 0.89945 0.0
C273 C 0.61224 0.55241 0.92269 0.0
H274 H 0.41837 0.93507 0.91977 0.0
H275 H 0.60879 0.93787 0.9981 0.0
H276 H 0.65904 1.03083 0.10453 0.0
H277 H 0.65513 0.11552 0.17228 0.0
H278 H 0.46892 0.1156 0.09175 0.0
H279 H 0.4103 1.01702 0.98975 0.0
C280 C 0.47038 0.95562 0.96033 0.0
C281 C 0.50983 0.92945 0.95074 0.0
C282 C 0.50005 1.00989 0.02096 0.0
C283 C 0.57719 0.95688 1.00397 0.0
C284 C 0.6062 1.01026 0.06484 0.0
C285 C 0.60151 0.09392 0.13256 0.0
C286 C 0.5669 0.12331 0.13963 0.0
C287 C 0.56911 1.03784 0.07339 0.0
C288 C 0.497 0.09422 0.08774 0.0
C289 C 0.46353 1.03785 0.02923 0.0
H290 H 0.26108 0.69585 0.9155 0.0
H291 H 0.08445 0.46364 0.82046 0.0
H292 H 0.97326 0.39831 0.95311 0.0
H293 H 0.91455 0.40374 0.09335 0.0
H294 H 0.07846 0.63232 0.18803 0.0
H295 H 0.20715 0.70254 0.0592 0.0
C296 C 0.20016 0.63146 0.92416 0.0
C297 C 0.18158 0.58486 0.85782 0.0
C298 C 0.13352 0.59339 1.00072 0.0
C299 C 0.10067 0.50104 0.87019 0.0
C300 C 1.03661 0.46348 0.94612 0.0
C301 C 0.97894 0.46913 0.08636 0.0
C302 C 0.98693 0.51261 0.15111 0.0
C303 C 1.05032 0.5085 1.01141 0.0
C304 C 0.07079 0.59725 0.13999 0.0
C305 C 0.14421 0.63743 0.06596 0.0
loop_
_geom_bond_atom_site_label_1
_geom_bond_atom_site_label_2
_geom_bond_distance
_geom_bond_site_symmetry_2
_ccdc_geom_bond_type
C0 C1 1.386 . S
C0 C5 1.384 1_545 S
C0 C16 1.497 . S
C1 C0 1.386 . S
C1 C2 1.393 1_545 S
C1 H32 0.932 . S
C2 C1 1.393 1_565 S
C2 C3 1.387 . S
C3 C2 1.387 . S
C3 C4 1.392 . S
C3 H33 0.930 . S
C4 C3 1.392 . S
C4 C5 1.402 . S
C5 C0 1.384 1_565 S
C5 C4 1.402 . S
C5 H34 0.930 . S
O6 Tb7 2.288 1_655 S
O6 C19 1.257 1_545 S
Tb7 O6 2.288 1_455 S
Tb7 O9 2.303 . S
Tb7 O11 2.430 . S
Tb7 O13 2.459 . S
Tb7 O15 2.301 1_554 S
Tb7 C16 2.808 . S
Tb8 O10 2.301 1_556 S
Tb8 C12 2.808 . S
Tb8 O14 2.288 1_655 S
Tb8 O21 2.303 . S
Tb8 O30 2.430 . S
Tb8 O31 2.459 . S
O9 Tb7 2.303 . S
O9 C28 1.255 . S
O10 Tb8 2.301 1_554 S
O10 C19 1.237 . S
O11 Tb7 2.430 . S
O11 C16 1.248 . S
C12 Tb8 2.808 . S
C12 C22 1.497 . S
C12 O30 1.248 . S
C12 O31 1.260 . S
O13 Tb7 2.459 . S
O13 C16 1.260 . S
O14 Tb8 2.288 1_455 S
O14 C20 1.257 1_565 S
O15 Tb7 2.301 1_556 S
O15 C20 1.237 . S
C16 C0 1.497 . S
C16 Tb7 2.808 . S
C16 O11 1.248 . S
C16 O13 1.260 . S
C17 O18 1.255 . S
C17 O21 1.255 . S
O18 C17 1.255 . S
C19 O6 1.257 1_565 S
C19 O10 1.237 . S
C20 O14 1.257 1_545 S
C20 O15 1.237 . S
O21 Tb8 2.303 . S
O21 C17 1.255 . S
C22 C12 1.497 . S
C22 C24 1.384 1_565 S
C22 C25 1.386 . S
C23 C24 1.402 . S
C23 C27 1.392 . S
C24 C22 1.384 1_545 S
C24 C23 1.402 . S
C24 H35 0.930 . S
C25 C22 1.386 . S
C25 C26 1.393 1_565 S
C25 H36 0.932 . S
C26 C25 1.393 1_545 S
C26 C27 1.387 . S
C27 C23 1.392 . S
C27 C26 1.387 . S
C27 H37 0.930 . S
C28 O9 1.255 . S
C28 O29 1.255 . S
O29 C28 1.255 . S
O30 Tb8 2.430 . S
O30 C12 1.248 . S
O31 Tb8 2.459 . S
O31 C12 1.260 . S
H32 C1 0.932 . S
H33 C3 0.930 . S
H34 C5 0.930 . S
H35 C24 0.930 . S
H36 C25 0.932 . S
H37 C27 0.930 . S
C38 C39 1.386 . S
C38 C43 1.384 . S
C38 C54 1.497 . S
C39 C38 1.386 . S
C39 C40 1.393 . S
C39 H70 0.932 . S
C40 C39 1.393 . S
C40 C41 1.387 . S
C41 C40 1.387 . S
C41 C42 1.392 . S
C41 H71 0.930 . S
C42 C41 1.392 . S
C42 C43 1.402 . S
C43 C38 1.384 . S
C43 C42 1.402 . S
C43 H72 0.930 . S
O44 Tb45 2.288 . S
O44 C57 1.257 . S
Tb45 O44 2.288 . S
Tb45 O47 2.303 . S
Tb45 O49 2.430 . S
Tb45 O51 2.459 . S
Tb45 O53 2.301 . S
Tb45 C54 2.808 . S
Tb46 O48 2.301 . S
Tb46 C50 2.808 . S
Tb46 O52 2.288 . S
Tb46 O59 2.303 . S
Tb46 O68 2.430 . S
Tb46 O69 2.459 . S
O47 Tb45 2.303 . S
O47 C66 1.255 . S
O48 Tb46 2.301 . S
O48 C57 1.237 . S
O49 Tb45 2.430 . S
O49 C54 1.248 . S
C50 Tb46 2.808 . S
C50 C60 1.497 . S
C50 O68 1.248 . S
C50 O69 1.260 . S
O51 Tb45 2.459 . S
O51 C54 1.260 . S
O52 Tb46 2.288 . S
O52 C58 1.257 . S
O53 Tb45 2.301 . S
O53 C58 1.237 . S
C54 C38 1.497 . S
C54 Tb45 2.808 . S
C54 O49 1.248 . S
C54 O51 1.260 . S
C55 O56 1.255 . S
C55 O59 1.255 . S
O56 C55 1.255 . S
C57 O44 1.257 . S
C57 O48 1.237 . S
C58 O52 1.257 . S
C58 O53 1.237 . S
O59 Tb46 2.303 . S
O59 C55 1.255 . S
C60 C50 1.497 . S
C60 C62 1.384 . S
C60 C63 1.386 . S
C61 C62 1.402 . S
C61 C65 1.392 . S
C62 C60 1.384 . S
C62 C61 1.402 . S
C62 H73 0.930 . S
C63 C60 1.386 . S
C63 C64 1.393 . S
C63 H74 0.932 . S
C64 C63 1.393 . S
C64 C65 1.387 . S
C65 C61 1.392 . S
C65 C64 1.387 . S
C65 H75 0.930 . S
C66 O47 1.255 . S
C66 O67 1.255 . S
O67 C66 1.255 . S
O68 Tb46 2.430 . S
O68 C50 1.248 . S
O69 Tb46 2.459 . S
O69 C50 1.260 . S
H70 C39 0.932 . S
H71 C41 0.930 . S
H72 C43 0.930 . S
H73 C62 0.930 . S
H74 C63 0.932 . S
H75 C65 0.930 . S
C76 C77 1.386 . S
C76 C81 1.384 . S
C76 C92 1.497 . S
C77 C76 1.386 . S
C77 C78 1.393 . S
C77 H108 0.932 . S
C78 C77 1.393 . S
C78 C79 1.387 . S
C79 C78 1.387 . S
C79 C80 1.392 . S
C79 H109 0.930 . S
C80 C79 1.392 . S
C80 C81 1.402 . S
C81 C76 1.384 . S
C81 C80 1.402 . S
C81 H110 0.930 . S
O82 Tb83 2.288 . S
O82 C95 1.257 . S
Tb83 O82 2.288 . S
Tb83 O85 2.303 . S
Tb83 O87 2.430 . S
Tb83 O89 2.459 . S
Tb83 O91 2.301 . S
Tb83 C92 2.808 . S
Tb84 O86 2.301 . S
Tb84 C88 2.808 . S
Tb84 O90 2.288 . S
Tb84 O97 2.303 . S
Tb84 O106 2.430 . S
Tb84 O107 2.459 . S
O85 Tb83 2.303 . S
O85 C104 1.255 . S
O86 Tb84 2.301 . S
O86 C95 1.237 . S
O87 Tb83 2.430 . S
O87 C92 1.248 . S
C88 Tb84 2.808 . S
C88 C98 1.497 . S
C88 O106 1.248 . S
C88 O107 1.260 . S
O89 Tb83 2.459 . S
O89 C92 1.260 . S
O90 Tb84 2.288 . S
O90 C96 1.257 . S
O91 Tb83 2.301 . S
O91 C96 1.237 . S
C92 C76 1.497 . S
C92 Tb83 2.808 . S
C92 O87 1.248 . S
C92 O89 1.260 . S
C93 O94 1.255 . S
C93 O97 1.255 . S
O94 C93 1.255 . S
C95 O82 1.257 . S
C95 O86 1.237 . S
C96 O90 1.257 . S
C96 O91 1.237 . S
O97 Tb84 2.303 . S
O97 C93 1.255 . S
C98 C88 1.497 . S
C98 C100 1.384 . S
C98 C101 1.386 . S
C99 C100 1.402 . S
C99 C103 1.392 . S
C100 C98 1.384 . S
C100 C99 1.402 . S
C100 H111 0.930 . S
C101 C98 1.386 . S
C101 C102 1.393 . S
C101 H112 0.932 . S
C102 C101 1.393 . S
C102 C103 1.387 . S
C103 C99 1.392 . S
C103 C102 1.387 . S
C103 H113 0.930 . S
C104 O85 1.255 . S
C104 O105 1.255 . S
O105 C104 1.255 . S
O106 Tb84 2.430 . S
O106 C88 1.248 . S
O107 Tb84 2.459 . S
O107 C88 1.260 . S
H108 C77 0.932 . S
H109 C79 0.930 . S
H110 C81 0.930 . S
H111 C100 0.930 . S
H112 C101 0.932 . S
H113 C103 0.930 . S
H114 C120 0.934 . S
H115 C123 0.930 . S
H116 C124 0.930 . S
H117 C125 0.933 . S
H118 C128 0.930 . S
H119 C129 0.930 . S
C120 H114 0.934 . S
C120 C121 1.343 1_445 S
C120 C122 1.422 . S
C121 C120 1.343 1_665 S
C121 C123 1.420 . S
C122 C120 1.422 . S
C122 C127 1.425 1_445 S
C122 C129 1.409 . S
C123 H115 0.930 . S
C123 C121 1.420 . S
C123 C124 1.362 . S
C124 H116 0.930 . S
C124 C123 1.362 . S
C124 C127 1.409 . S
C125 H117 0.933 . S
C125 C126 1.348 1_665 S
C125 C127 1.420 . S
C126 C125 1.348 1_445 S
C126 C128 1.421 . S
C127 C122 1.425 1_665 S
C127 C124 1.409 . S
C127 C125 1.420 . S
C128 H118 0.930 . S
C128 C126 1.421 . S
C128 C129 1.362 . S
C129 H119 0.930 . S
C129 C122 1.409 . S
C129 C128 1.362 . S
H130 C136 0.930 . S
H131 C139 0.930 . S
H132 C140 0.930 . S
H133 C141 0.930 . S
H134 C144 0.930 . S
H135 C145 0.930 . S
C136 H130 0.930 . S
C136 C137 1.355 . S
C136 C138 1.415 . S
C137 C136 1.355 . S
C137 C139 1.419 . S
C138 C136 1.415 . S
C138 C143 1.425 . S
C138 C145 1.409 . S
C139 H131 0.930 . S
C139 C137 1.419 . S
C139 C140 1.362 . S
C140 H132 0.930 . S
C140 C139 1.362 . S
C140 C143 1.409 . S
C141 H133 0.930 . S
C141 C142 1.355 . S
C141 C143 1.415 . S
C142 C141 1.355 . S
C142 C144 1.419 . S
C143 C138 1.425 . S
C143 C140 1.409 . S
C143 C141 1.415 . S
C144 H134 0.930 . S
C144 C142 1.419 . S
C144 C145 1.362 . S
C145 H135 0.930 . S
C145 C138 1.409 . S
C145 C144 1.362 . S
H146 C152 0.930 . S
H147 C155 0.930 . S
H148 C156 0.930 . S
H149 C157 0.930 . S
H150 C160 0.930 . S
H151 C161 0.930 . S
C152 H146 0.930 . S
C152 C153 1.355 . S
C152 C154 1.415 . S
C153 C152 1.355 . S
C153 C155 1.419 . S
C154 C152 1.415 . S
C154 C159 1.425 . S
C154 C161 1.409 . S
C155 H147 0.930 . S
C155 C153 1.419 . S
C155 C156 1.362 . S
C156 H148 0.930 . S
C156 C155 1.362 . S
C156 C159 1.409 . S
C157 H149 0.930 . S
C157 C158 1.355 . S
C157 C159 1.415 . S
C158 C157 1.355 . S
C158 C160 1.419 . S
C159 C154 1.425 . S
C159 C156 1.409 . S
C159 C157 1.415 . S
C160 H150 0.930 . S
C160 C158 1.419 . S
C160 C161 1.362 . S
C161 H151 0.930 . S
C161 C154 1.409 . S
C161 C160 1.362 . S
H162 C168 0.930 . S
H163 C171 0.930 . S
H164 C172 0.930 . S
H165 C173 0.930 . S
H166 C176 0.930 . S
H167 C177 0.930 . S
C168 H162 0.930 . S
C168 C169 1.355 . S
C168 C170 1.415 . S
C169 C168 1.355 . S
C169 C171 1.419 . S
C170 C168 1.415 . S
C170 C175 1.425 . S
C170 C177 1.409 . S
C171 H163 0.930 . S
C171 C169 1.419 . S
C171 C172 1.362 . S
C172 H164 0.930 . S
C172 C171 1.362 . S
C172 C175 1.409 . S
C173 H165 0.930 . S
C173 C174 1.355 . S
C173 C175 1.415 . S
C174 C173 1.355 . S
C174 C176 1.419 . S
C175 C170 1.425 . S
C175 C172 1.409 . S
C175 C173 1.415 . S
C176 H166 0.930 . S
C176 C174 1.419 . S
C176 C177 1.362 . S
C177 H167 0.930 . S
C177 C170 1.409 . S
C177 C176 1.362 . S
H178 C184 0.930 . S
H179 C187 0.930 . S
H180 C188 0.930 . S
H181 C189 0.930 . S
H182 C192 0.930 . S
H183 C193 0.930 1_655 S
C184 H178 0.930 . S
C184 C185 1.355 . S
C184 C186 1.415 . S
C185 C184 1.355 . S
C185 C187 1.419 . S
C186 C184 1.415 . S
C186 C191 1.425 . S
C186 C193 1.409 . S
C187 H179 0.930 . S
C187 C185 1.419 . S
C187 C188 1.362 . S
C188 H180 0.930 . S
C188 C187 1.362 . S
C188 C191 1.409 . S
C189 H181 0.930 . S
C189 C190 1.355 . S
C189 C191 1.415 . S
C190 C189 1.355 . S
C190 C192 1.419 1_455 S
C191 C186 1.425 . S
C191 C188 1.409 . S
C191 C189 1.415 . S
C192 H182 0.930 . S
C192 C190 1.419 1_655 S
C192 C193 1.362 1_655 S
C193 H183 0.930 1_455 S
C193 C186 1.409 . S
C193 C192 1.362 1_455 S
H194 C200 0.930 . S
H195 C203 0.930 . S
H196 C204 0.930 . S
H197 C205 0.930 . S
H198 C208 0.930 . S
H199 C209 0.930 . S
C200 H194 0.930 . S
C200 C201 1.355 . S
C200 C202 1.415 . S
C201 C200 1.355 . S
C201 C203 1.419 . S
C202 C200 1.415 . S
C202 C207 1.425 . S
C202 C209 1.409 . S
C203 H195 0.930 . S
C203 C201 1.419 . S
C203 C204 1.362 . S
C204 H196 0.930 . S
C204 C203 1.362 . S
C204 C207 1.409 . S
C205 H197 0.930 . S
C205 C206 1.355 . S
C205 C207 1.415 . S
C206 C205 1.355 . S
C206 C208 1.419 . S
C207 C202 1.425 . S
C207 C204 1.409 . S
C207 C205 1.415 . S
C208 H198 0.930 . S
C208 C206 1.419 . S
C208 C209 1.362 . S
C209 H199 0.930 . S
C209 C202 1.409 . S
C209 C208 1.362 . S
H210 C216 0.930 . S
H211 C219 0.930 . S
H212 C220 0.930 1_455 S
H213 C221 0.930 . S
H214 C224 0.930 . S
H215 C225 0.930 . S
C216 H210 0.930 . S
C216 C217 1.355 . S
C216 C218 1.415 . S
C217 C216 1.355 . S
C217 C219 1.419 . S
C218 C216 1.415 . S
C218 C223 1.425 . S
C218 C225 1.409 . S
C219 H211 0.930 . S
C219 C217 1.419 . S
C219 C220 1.362 . S
C220 H212 0.930 1_655 S
C220 C219 1.362 . S
C220 C223 1.409 . S
C221 H213 0.930 . S
C221 C222 1.355 . S
C221 C223 1.415 . S
C222 C221 1.355 . S
C222 C224 1.419 . S
C223 C218 1.425 . S
C223 C220 1.409 . S
C223 C221 1.415 . S
C224 H214 0.930 . S
C224 C222 1.419 . S
C224 C225 1.362 . S
C225 H215 0.930 . S
C225 C218 1.409 . S
C225 C224 1.362 . S
H226 C232 0.930 . S
H227 C235 0.930 . S
H228 C236 0.930 . S
H229 C237 0.930 . S
H230 C240 0.930 . S
H231 C241 0.930 . S
C232 H226 0.930 . S
C232 C233 1.355 . S
C232 C234 1.415 . S
C233 C232 1.355 . S
C233 C235 1.419 . S
C234 C232 1.415 . S
C234 C239 1.425 . S
C234 C241 1.409 . S
C235 H227 0.930 . S
C235 C233 1.419 . S
C235 C236 1.362 . S
C236 H228 0.930 . S
C236 C235 1.362 . S
C236 C239 1.409 . S
C237 H229 0.930 . S
C237 C238 1.355 . S
C237 C239 1.415 . S
C238 C237 1.355 . S
C238 C240 1.419 . S
C239 C234 1.425 . S
C239 C236 1.409 . S
C239 C237 1.415 . S
C240 H230 0.930 . S
C240 C238 1.419 . S
C240 C241 1.362 . S
C241 H231 0.930 . S
C241 C234 1.409 . S
C241 C240 1.362 . S
H242 C248 0.930 . S
H243 C251 0.930 . S
H244 C252 0.930 . S
H245 C253 0.930 . S
H246 C256 0.930 . S
H247 C257 0.930 . S
C248 H242 0.930 . S
C248 C249 1.355 . S
C248 C250 1.415 . S
C249 C248 1.355 . S
C249 C251 1.419 . S
C250 C248 1.415 . S
C250 C255 1.425 . S
C250 C257 1.409 . S
C251 H243 0.930 . S
C251 C249 1.419 . S
C251 C252 1.362 . S
C252 H244 0.930 . S
C252 C251 1.362 . S
C252 C255 1.409 . S
C253 H245 0.930 . S
C253 C254 1.355 . S
C253 C255 1.415 . S
C254 C253 1.355 . S
C254 C256 1.419 . S
C255 C250 1.425 . S
C255 C252 1.409 . S
C255 C253 1.415 . S
C256 H246 0.930 . S
C256 C254 1.419 . S
C256 C257 1.362 . S
C257 H247 0.930 . S
C257 C250 1.409 . S
C257 C256 1.362 . S
H258 C264 0.930 . S
H259 C267 0.930 . S
H260 C268 0.930 . S
H261 C269 0.930 . S
H262 C272 0.930 . S
H263 C273 0.930 . S
C264 H258 0.930 . S
C264 C265 1.355 . S
C264 C266 1.415 . S
C265 C264 1.355 . S
C265 C267 1.419 1_554 S
C266 C264 1.415 . S
C266 C271 1.425 1_554 S
C266 C273 1.409 . S
C267 H259 0.930 . S
C267 C265 1.419 1_556 S
C267 C268 1.362 . S
C268 H260 0.930 . S
C268 C267 1.362 . S
C268 C271 1.409 . S
C269 H261 0.930 . S
C269 C270 1.355 . S
C269 C271 1.415 . S
C270 C269 1.355 . S
C270 C272 1.419 1_556 S
C271 C266 1.425 1_556 S
C271 C268 1.409 . S
C271 C269 1.415 . S
C272 H262 0.930 . S
C272 C270 1.419 1_554 S
C272 C273 1.362 . S
C273 H263 0.930 . S
C273 C266 1.409 . S
C273 C272 1.362 . S
H274 C280 0.930 . S
H275 C283 0.930 . S
H276 C284 0.930 1_554 S
H277 C285 0.930 . S
H278 C288 0.930 . S
H279 C289 0.930 1_556 S
C280 H274 0.930 . S
C280 C281 1.355 . S
C280 C282 1.415 1_565 S
C281 C280 1.355 . S
C281 C283 1.419 . S
C282 C280 1.415 1_545 S
C282 C287 1.425 1_546 S
C282 C289 1.409 1_556 S
C283 H275 0.930 . S
C283 C281 1.419 . S
C283 C284 1.362 . S
C284 H276 0.930 1_556 S
C284 C283 1.362 . S
C284 C287 1.409 1_556 S
C285 H277 0.930 . S
C285 C286 1.355 . S
C285 C287 1.415 1_545 S
C286 C285 1.355 . S
C286 C288 1.419 . S
C287 C282 1.425 1_564 S
C287 C284 1.409 1_554 S
C287 C285 1.415 1_565 S
C288 H278 0.930 . S
C288 C286 1.419 . S
C288 C289 1.362 . S
C289 H279 0.930 1_554 S
C289 C282 1.409 1_554 S
C289 C288 1.362 . S
H290 C296 0.930 . S
H291 C299 0.930 . S
H292 C300 0.930 . S
H293 C301 0.930 . S
H294 C304 0.930 . S
H295 C305 0.930 . S
C296 H290 0.930 . S
C296 C297 1.355 . S
C296 C298 1.415 1_556 S
C297 C296 1.355 . S
C297 C299 1.419 . S
C298 C296 1.415 1_554 S
C298 C303 1.425 1_454 S
C298 C305 1.409 . S
C299 H291 0.930 . S
C299 C297 1.419 . S
C299 C300 1.362 1_455 S
C300 H292 0.930 . S
C300 C299 1.362 1_655 S
C300 C303 1.409 . S
C301 H293 0.930 . S
C301 C302 1.355 . S
C301 C303 1.415 1_554 S
C302 C301 1.355 . S
C302 C304 1.419 . S
C303 C298 1.425 1_656 S
C303 C300 1.409 . S
C303 C301 1.415 1_556 S
C304 H294 0.930 . S
C304 C302 1.419 . S
C304 C305 1.362 1_655 S
C305 H295 0.930 . S
C305 C298 1.409 . S
C305 C304 1.362 1_455 S
C121 C26 1.072 1_565 S
C126 C2 1.071 1_545 S
C137 C40 0.987 . S
C142 C64 0.987 1_556 S
C153 C78 1.063 1_554 S
C158 C102 1.063 . S
C169 C99 2.339 . S
C174 C4 2.339 . S
C185 C93 1.426 . S
C190 C28 1.423 . S
C201 C96 1.642 . S
C206 C19 1.641 . S
C217 C42 2.310 . S
C222 C23 2.310 . S
C233 C66 1.363 . S
C238 C17 1.365 . S
C249 C57 1.645 . S
C254 C20 1.646 . S
C265 C61 2.276 . S
C270 C80 2.276 . S
C281 C104 1.350 . S
C286 C55 1.350 . S
C297 C95 1.642 . S
C302 C58 1.642 . S
