# Generated by pormake.
# Topology umk, (4)-cn, num edge types: 1
# Building blocks:
#     Node 0, Type 0, BuildingBlock: UXUYUI_clean_sbu_0, # of connection points: 4
#     Node 1, Type 0, BuildingBlock: UXUYUI_clean_sbu_0, # of connection points: 4
#     Node 2, Type 0, BuildingBlock: UXUYUI_clean_sbu_0, # of connection points: 4
#     Node 3, Type 0, BuildingBlock: UXUYUI_clean_sbu_0, # of connection points: 4
#     Node 4, Type 0, BuildingBlock: UXUYUI_clean_sbu_0, # of connection points: 4
#     Node 5, Type 0, BuildingBlock: UXUYUI_clean_sbu_0, # of connection points: 4
#     Node 6, Type 0, BuildingBlock: UXUYUI_clean_sbu_0, # of connection points: 4
#     Node 7, Type 0, BuildingBlock: UXUYUI_clean_sbu_0, # of connection points: 4
#     Node 8, Type 0, BuildingBlock: UXUYUI_clean_sbu_0, # of connection points: 4
#     Node 9, Type 0, BuildingBlock: UXUYUI_clean_sbu_0, # of connection points: 4
#     Node 10, Type 0, BuildingBlock: UXUYUI_clean_sbu_0, # of connection points: 4
#     Node 11, Type 0, BuildingBlock: UXUYUI_clean_sbu_0, # of connection points: 4
#     Node 12, Type 0, BuildingBlock: UXUYUI_clean_sbu_0, # of connection points: 4
#     Node 13, Type 0, BuildingBlock: UXUYUI_clean_sbu_0, # of connection points: 4
#     Node 14, Type 0, BuildingBlock: UXUYUI_clean_sbu_0, # of connection points: 4
#     Node 15, Type 0, BuildingBlock: UXUYUI_clean_sbu_0, # of connection points: 4
#     Node 16, Type 0, BuildingBlock: UXUYUI_clean_sbu_0, # of connection points: 4
#     Node 17, Type 0, BuildingBlock: UXUYUI_clean_sbu_0, # of connection points: 4
#     Node 18, Type 0, BuildingBlock: UXUYUI_clean_sbu_0, # of connection points: 4
#     Node 19, Type 0, BuildingBlock: UXUYUI_clean_sbu_0, # of connection points: 4
#     Node 20, Type 0, BuildingBlock: UXUYUI_clean_sbu_0, # of connection points: 4
#     Node 21, Type 0, BuildingBlock: UXUYUI_clean_sbu_0, # of connection points: 4
#     Node 22, Type 0, BuildingBlock: UXUYUI_clean_sbu_0, # of connection points: 4
#     Node 23, Type 0, BuildingBlock: UXUYUI_clean_sbu_0, # of connection points: 4
#     Edge 24, Type (0, 0), BuildingBlock: ZUJKAS_clean_linker_0, # of connection points: 2
#     Edge 25, Type (0, 0), BuildingBlock: ZUJKAS_clean_linker_0, # of connection points: 2
#     Edge 26, Type (0, 0), BuildingBlock: ZUJKAS_clean_linker_0, # of connection points: 2
#     Edge 27, Type (0, 0), BuildingBlock: ZUJKAS_clean_linker_0, # of connection points: 2
#     Edge 28, Type (0, 0), BuildingBlock: ZUJKAS_clean_linker_0, # of connection points: 2
#     Edge 29, Type (0, 0), BuildingBlock: ZUJKAS_clean_linker_0, # of connection points: 2
#     Edge 30, Type (0, 0), BuildingBlock: ZUJKAS_clean_linker_0, # of connection points: 2
#     Edge 31, Type (0, 0), BuildingBlock: ZUJKAS_clean_linker_0, # of connection points: 2
#     Edge 32, Type (0, 0), BuildingBlock: ZUJKAS_clean_linker_0, # of connection points: 2
#     Edge 33, Type (0, 0), BuildingBlock: ZUJKAS_clean_linker_0, # of connection points: 2
#     Edge 34, Type (0, 0), BuildingBlock: ZUJKAS_clean_linker_0, # of connection points: 2
#     Edge 35, Type (0, 0), BuildingBlock: ZUJKAS_clean_linker_0, # of connection points: 2
#     Edge 36, Type (0, 0), BuildingBlock: ZUJKAS_clean_linker_0, # of connection points: 2
#     Edge 37, Type (0, 0), BuildingBlock: ZUJKAS_clean_linker_0, # of connection points: 2
#     Edge 38, Type (0, 0), BuildingBlock: ZUJKAS_clean_linker_0, # of connection points: 2
#     Edge 39, Type (0, 0), BuildingBlock: ZUJKAS_clean_linker_0, # of connection points: 2
#     Edge 40, Type (0, 0), BuildingBlock: ZUJKAS_clean_linker_0, # of connection points: 2
#     Edge 41, Type (0, 0), BuildingBlock: ZUJKAS_clean_linker_0, # of connection points: 2
#     Edge 42, Type (0, 0), BuildingBlock: ZUJKAS_clean_linker_0, # of connection points: 2
#     Edge 43, Type (0, 0), BuildingBlock: ZUJKAS_clean_linker_0, # of connection points: 2
#     Edge 44, Type (0, 0), BuildingBlock: ZUJKAS_clean_linker_0, # of connection points: 2
#     Edge 45, Type (0, 0), BuildingBlock: ZUJKAS_clean_linker_0, # of connection points: 2
#     Edge 46, Type (0, 0), BuildingBlock: ZUJKAS_clean_linker_0, # of connection points: 2
#     Edge 47, Type (0, 0), BuildingBlock: ZUJKAS_clean_linker_0, # of connection points: 2
#     Edge 48, Type (0, 0), BuildingBlock: ZUJKAS_clean_linker_0, # of connection points: 2
#     Edge 49, Type (0, 0), BuildingBlock: ZUJKAS_clean_linker_0, # of connection points: 2
#     Edge 50, Type (0, 0), BuildingBlock: ZUJKAS_clean_linker_0, # of connection points: 2
#     Edge 51, Type (0, 0), BuildingBlock: ZUJKAS_clean_linker_0, # of connection points: 2
#     Edge 52, Type (0, 0), BuildingBlock: ZUJKAS_clean_linker_0, # of connection points: 2
#     Edge 53, Type (0, 0), BuildingBlock: ZUJKAS_clean_linker_0, # of connection points: 2
#     Edge 54, Type (0, 0), BuildingBlock: ZUJKAS_clean_linker_0, # of connection points: 2
#     Edge 55, Type (0, 0), BuildingBlock: ZUJKAS_clean_linker_0, # of connection points: 2
#     Edge 56, Type (0, 0), BuildingBlock: ZUJKAS_clean_linker_0, # of connection points: 2
#     Edge 57, Type (0, 0), BuildingBlock: ZUJKAS_clean_linker_0, # of connection points: 2
#     Edge 58, Type (0, 0), BuildingBlock: ZUJKAS_clean_linker_0, # of connection points: 2
#     Edge 59, Type (0, 0), BuildingBlock: ZUJKAS_clean_linker_0, # of connection points: 2
#     Edge 60, Type (0, 0), BuildingBlock: ZUJKAS_clean_linker_0, # of connection points: 2
#     Edge 61, Type (0, 0), BuildingBlock: ZUJKAS_clean_linker_0, # of connection points: 2
#     Edge 62, Type (0, 0), BuildingBlock: ZUJKAS_clean_linker_0, # of connection points: 2
#     Edge 63, Type (0, 0), BuildingBlock: ZUJKAS_clean_linker_0, # of connection points: 2
#     Edge 64, Type (0, 0), BuildingBlock: ZUJKAS_clean_linker_0, # of connection points: 2
#     Edge 65, Type (0, 0), BuildingBlock: ZUJKAS_clean_linker_0, # of connection points: 2
#     Edge 66, Type (0, 0), BuildingBlock: ZUJKAS_clean_linker_0, # of connection points: 2
#     Edge 67, Type (0, 0), BuildingBlock: ZUJKAS_clean_linker_0, # of connection points: 2
#     Edge 68, Type (0, 0), BuildingBlock: ZUJKAS_clean_linker_0, # of connection points: 2
#     Edge 69, Type (0, 0), BuildingBlock: ZUJKAS_clean_linker_0, # of connection points: 2
#     Edge 70, Type (0, 0), BuildingBlock: ZUJKAS_clean_linker_0, # of connection points: 2
#     Edge 71, Type (0, 0), BuildingBlock: ZUJKAS_clean_linker_0, # of connection points: 2
# Relax obj value: 0.190
# Max RMSD: 0.162
# Mean RMSD: 0.162
data_MOF--net-umk--node1-UXUYUI_clean_sbu_0--edge1-ZUJKAS_clean_linker_0
_symmetry_space_group_name_H-M    P1
_symmetry_Int_Tables_number       1
_symmetry_cell_setting            triclinic
loop_
_symmetry_equiv_pos_as_xyz
'x, y, z'
_cell_length_a     116.17634
_cell_length_b     116.17809
_cell_length_c     74.12914
_cell_angle_alpha  90.003233
_cell_angle_beta   89.996964
_cell_angle_gamma 120.00394
loop_
_atom_site_label
_atom_site_type_symbol
_atom_site_fract_x
_atom_site_fract_y
_atom_site_fract_z
_atom_type_partial_charge
Li0 Li 0.32904 0.45543 0.08738 0.0
Li1 Li 0.33235 0.44467 0.06113 0.0
Li2 Li 0.33891 0.46791 0.05983 0.0
Li3 Li 0.31566 0.45027 0.06068 0.0
C4 C 0.35651 0.46891 0.08554 0.0
N5 N 0.37765 0.48816 0.10504 0.0
C6 C 0.36799 0.46805 0.08791 0.0
C7 C 0.35578 0.47956 0.09306 0.0
C8 C 0.37857 0.47789 0.09782 0.0
C9 C 0.36658 0.48919 0.10288 0.0
C10 C 0.30375 0.42895 0.08065 0.0
C11 C 0.28256 0.41062 0.07141 0.0
N12 N 0.27695 0.41202 0.08675 0.0
C13 C 0.29779 0.43014 0.09638 0.0
C14 C 0.29609 0.41904 0.06811 0.0
C15 C 0.28423 0.4215 0.0992 0.0
C16 C 0.3237 0.46244 0.12147 0.0
N17 N 0.3296 0.45646 0.11277 0.0
C18 C 0.3364 0.45153 0.14068 0.0
C19 C 0.33589 0.45107 0.12188 0.0
C20 C 0.33031 0.45755 0.15012 0.0
C21 C 0.32393 0.4631 0.14027 0.0
H22 H 0.31866 0.46652 0.1138 0.0
H23 H 0.34052 0.44641 0.11451 0.0
C24 C 0.34947 0.43701 0.0456 0.0
N25 N 0.33755 0.43235 0.05396 0.0
C26 C 0.35355 0.4282 0.0398 0.0
C27 C 0.33306 0.41001 0.05151 0.0
C28 C 0.32936 0.41917 0.05704 0.0
C29 C 0.34532 0.41451 0.0428 0.0
H30 H 0.35577 0.44758 0.04345 0.0
H31 H 0.31997 0.41578 0.0638 0.0
C32 C 0.32031 0.47585 0.068 0.0
N33 N 0.31231 0.49296 0.05461 0.0
C34 C 0.31829 0.47633 0.04947 0.0
C35 C 0.31824 0.48408 0.0797 0.0
C36 C 0.31424 0.48503 0.04298 0.0
C37 C 0.31422 0.49267 0.07267 0.0
C38 C 0.33105 0.44869 0.02641 0.0
C39 C 0.3417 0.45651 0.01496 0.0
C40 C 0.32269 0.43524 0.0224 0.0
C41 C 0.34402 0.45068 -5e-05 0.0
C42 C 0.32535 0.42976 0.00729 0.0
N43 N 0.33588 0.43752 0.99648 0.0
C44 C 0.36338 0.48447 0.04428 0.0
C45 C 0.35225 0.49618 0.05205 0.0
C46 C 0.37424 0.49608 0.03775 0.0
N47 N 0.35259 0.48466 0.05101 0.0
C48 C 0.36286 0.50803 0.04556 0.0
C49 C 0.37403 0.50805 0.03826 0.0
H50 H 0.36353 0.47523 0.04401 0.0
H51 H 0.34389 0.49632 0.0581 0.0
C52 C 0.28996 0.44654 0.06417 0.0
N53 N 0.29833 0.4453 0.05259 0.0
C54 C 0.2773 0.4435 0.05849 0.0
C55 C 0.28217 0.43792 0.0291 0.0
C56 C 0.29471 0.44106 0.03536 0.0
C57 C 0.27334 0.43925 0.04068 0.0
H58 H 0.29321 0.45013 0.07774 0.0
H59 H 0.30164 0.44036 0.02637 0.0
O60 O 0.34613 0.45938 0.07574 0.0
O61 O 0.31698 0.43749 0.07749 0.0
O62 O 0.32401 0.46723 0.07482 0.0
O63 O 0.32874 0.4542 0.04133 0.0
H64 H 0.36871 0.45988 0.08212 0.0
H65 H 0.34701 0.48044 0.09132 0.0
H66 H 0.38753 0.47736 0.09977 0.0
H67 H 0.36615 0.49749 0.10877 0.0
H68 H 0.2765 0.40298 0.06175 0.0
H69 H 0.30353 0.43771 0.10625 0.0
H70 H 0.3005 0.41795 0.05587 0.0
H71 H 0.27949 0.42237 0.11127 0.0
H72 H 0.34157 0.44729 0.14773 0.0
H73 H 0.31895 0.46766 0.14701 0.0
H74 H 0.36318 0.4321 0.03341 0.0
H75 H 0.32641 0.39953 0.05399 0.0
H76 H 0.31983 0.47009 0.04014 0.0
H77 H 0.31975 0.48386 0.09407 0.0
H78 H 0.31265 0.48549 0.02868 0.0
H79 H 0.3126 0.49911 0.08158 0.0
H80 H 0.34807 0.467 0.01752 0.0
H81 H 0.31438 0.42903 0.03104 0.0
H82 H 0.35227 0.45661 0.99103 0.0
H83 H 0.31906 0.41933 0.00418 0.0
H84 H 0.38263 0.49566 0.03217 0.0
H85 H 0.36244 0.51711 0.04654 0.0
H86 H 0.27088 0.44488 0.06775 0.0
H87 H 0.27946 0.43461 0.0153 0.0
Li88 Li 0.88483 0.33228 0.56185 0.0
Li89 Li 0.87023 0.32943 0.58739 0.0
Li90 Li 0.86233 0.31594 0.5608 0.0
Li91 Li 0.8685 0.33928 0.55931 0.0
C92 C 0.87092 0.30379 0.58173 0.0
N93 N 0.86034 0.27693 0.58818 0.0
C94 C 0.86276 0.29786 0.59671 0.0
C95 C 0.87382 0.29608 0.57014 0.0
C96 C 0.85748 0.28427 0.59972 0.0
C97 C 0.86833 0.28251 0.5736 0.0
C98 C 0.88493 0.35695 0.58508 0.0
C99 C 0.87502 0.36771 0.60153 0.0
N100 N 0.88723 0.37868 0.60349 0.0
C101 C 0.89738 0.36833 0.58723 0.0
C102 C 0.87364 0.35663 0.59225 0.0
C103 C 0.89834 0.37921 0.59659 0.0
C104 C 0.90965 0.34867 0.54613 0.0
N105 N 0.90247 0.33729 0.55568 0.0
C106 C 0.92092 0.33362 0.55681 0.0
C107 C 0.90776 0.32972 0.561 0.0
C108 C 0.92866 0.34542 0.54706 0.0
C109 C 0.9228 0.35289 0.54151 0.0
H110 H 0.90514 0.35448 0.54215 0.0
H111 H 0.90181 0.32078 0.56875 0.0
C112 C 0.85743 0.32506 0.62114 0.0
N113 N 0.86939 0.3303 0.61273 0.0
C114 C 0.85681 0.32569 0.63989 0.0
C115 C 0.88084 0.33717 0.64084 0.0
C116 C 0.88099 0.33629 0.62209 0.0
C117 C 0.86863 0.33178 0.64999 0.0
H118 H 0.84839 0.32028 0.61329 0.0
H119 H 0.89034 0.34041 0.61494 0.0
C120 C 0.87987 0.33035 0.52668 0.0
N121 N 0.8955 0.3336 0.49685 0.0
C122 C 0.88234 0.3402 0.51395 0.0
C123 C 0.88512 0.32197 0.524 0.0
C124 C 0.89032 0.34173 0.49901 0.0
C125 C 0.89307 0.32382 0.50892 0.0
C126 C 0.8417 0.32129 0.5665 0.0
C127 C 0.83986 0.31981 0.54781 0.0
C128 C 0.83103 0.31902 0.57759 0.0
C129 C 0.82738 0.31609 0.54056 0.0
C130 C 0.81871 0.31533 0.56981 0.0
N131 N 0.81715 0.31395 0.55161 0.0
C132 C 0.8397 0.29057 0.5637 0.0
C133 C 0.85097 0.29483 0.53568 0.0
C134 C 0.83003 0.27799 0.55784 0.0
N135 N 0.84987 0.29867 0.55259 0.0
C136 C 0.84152 0.28236 0.52926 0.0
C137 C 0.83082 0.27382 0.54033 0.0
H138 H 0.839 0.29399 0.577 0.0
H139 H 0.85903 0.30152 0.52706 0.0
C140 C 0.87703 0.36311 0.54168 0.0
N141 N 0.8661 0.35315 0.54979 0.0
C142 C 0.87679 0.37415 0.5348 0.0
C143 C 0.85413 0.36468 0.54521 0.0
C144 C 0.85481 0.35381 0.5519 0.0
C145 C 0.86522 0.37504 0.53651 0.0
H146 H 0.886 0.36251 0.5407 0.0
H147 H 0.84642 0.34609 0.55907 0.0
O148 O 0.87596 0.31703 0.57835 0.0
O149 O 0.88387 0.34629 0.5758 0.0
O150 O 0.87217 0.3288 0.5415 0.0
O151 O 0.85376 0.32474 0.57406 0.0
H152 H 0.8604 0.30365 0.60582 0.0
H153 H 0.88017 0.30049 0.55854 0.0
H154 H 0.85108 0.27954 0.6112 0.0
H155 H 0.87042 0.27641 0.56467 0.0
H156 H 0.86637 0.3676 0.60715 0.0
H157 H 0.9062 0.36874 0.58169 0.0
H158 H 0.86391 0.34794 0.59066 0.0
H159 H 0.90791 0.38808 0.59837 0.0
H160 H 0.92508 0.32768 0.56163 0.0
H161 H 0.92834 0.36195 0.53379 0.0
H162 H 0.84719 0.32125 0.64641 0.0
H163 H 0.89019 0.34211 0.64808 0.0
H164 H 0.87806 0.34653 0.51547 0.0
H165 H 0.88324 0.31424 0.53362 0.0
H166 H 0.89236 0.34936 0.48911 0.0
H167 H 0.89732 0.3175 0.50682 0.0
H168 H 0.84792 0.3215 0.53894 0.0
H169 H 0.83225 0.32011 0.59207 0.0
H170 H 0.82583 0.31491 0.52613 0.0
H171 H 0.81038 0.31355 0.57824 0.0
H172 H 0.82182 0.27179 0.56669 0.0
H173 H 0.84252 0.27948 0.51571 0.0
H174 H 0.88556 0.38187 0.52812 0.0
H175 H 0.84511 0.36512 0.54718 0.0
Li176 Li 0.55042 0.88596 0.06652 0.0
Li177 Li 0.53742 0.86992 0.09014 0.0
Li178 Li 0.54137 0.86248 0.06077 0.0
Li179 Li 0.52629 0.87103 0.06303 0.0
C180 C 0.56726 0.87763 0.0833 0.0
N181 N 0.59355 0.88619 0.09144 0.0
C182 C 0.57214 0.88216 0.10065 0.0
C183 C 0.57569 0.8772 0.0702 0.0
C184 C 0.58548 0.88653 0.10447 0.0
C185 C 0.58896 0.88163 0.07455 0.0
C186 C 0.5268 0.88692 0.09126 0.0
C187 C 0.50672 0.87785 0.10895 0.0
N188 N 0.50847 0.89026 0.11088 0.0
C189 C 0.52841 0.89959 0.09342 0.0
C190 C 0.51588 0.87595 0.09908 0.0
C191 C 0.51903 0.90108 0.10339 0.0
C192 C 0.56544 0.9095 0.04646 0.0
N193 N 0.56481 0.90335 0.06233 0.0
C194 C 0.58468 0.92236 0.07271 0.0
C195 C 0.57404 0.90955 0.07547 0.0
C196 C 0.58568 0.92893 0.05637 0.0
C197 C 0.57588 0.92233 0.04314 0.0
H198 H 0.55773 0.90451 0.03647 0.0
H199 H 0.57305 0.90465 0.0882 0.0
C200 C 0.53049 0.85468 0.12208 0.0
N201 N 0.53621 0.86721 0.11531 0.0
C202 C 0.52947 0.85265 0.14072 0.0
C203 C 0.54032 0.87646 0.14492 0.0
C204 C 0.54111 0.87802 0.12624 0.0
C205 C 0.53441 0.86364 0.1524 0.0
H206 H 0.52669 0.84629 0.113 0.0
H207 H 0.54568 0.88787 0.1204 0.0
C208 C 0.54551 0.87659 0.02813 0.0
N209 N 0.55564 0.87789 0.99399 0.0
C210 C 0.53714 0.87286 0.01308 0.0
C211 C 0.55904 0.88112 0.02579 0.0
C212 C 0.54245 0.87354 0.99594 0.0
C213 C 0.56397 0.88167 0.00843 0.0
C214 C 0.515 0.84345 0.06651 0.0
C215 C 0.51295 0.84344 0.04793 0.0
C216 C 0.50742 0.83182 0.07644 0.0
C217 C 0.50337 0.83178 0.03957 0.0
C218 C 0.49792 0.82035 0.06759 0.0
N219 N 0.49611 0.82057 0.04949 0.0
C220 C 0.55098 0.84484 0.06058 0.0
C221 C 0.54183 0.84599 0.03251 0.0
C222 C 0.55429 0.83573 0.05356 0.0
N223 N 0.545 0.84986 0.04997 0.0
C224 C 0.54502 0.83697 0.02491 0.0
C225 C 0.55137 0.83177 0.03547 0.0
H226 H 0.55323 0.84797 0.07449 0.0
H227 H 0.53674 0.8498 0.02447 0.0
C228 C 0.51173 0.8782 0.04019 0.0
N229 N 0.51055 0.86998 0.05398 0.0
C230 C 0.50045 0.87778 0.03292 0.0
C231 C 0.48697 0.86056 0.05437 0.0
C232 C 0.49851 0.86127 0.06116 0.0
C233 C 0.48786 0.86886 0.04002 0.0
H234 H 0.52147 0.8851 0.03488 0.0
H235 H 0.49785 0.85484 0.07213 0.0
O236 O 0.55419 0.87322 0.07941 0.0
O237 O 0.5359 0.88534 0.08146 0.0
O238 O 0.54042 0.87588 0.04502 0.0
O239 O 0.52436 0.85473 0.07503 0.0
H240 H 0.56574 0.88242 0.11103 0.0
H241 H 0.57202 0.87332 0.05688 0.0
H242 H 0.58941 0.89017 0.11779 0.0
H243 H 0.5956 0.88139 0.06452 0.0
H244 H 0.49821 0.86944 0.11506 0.0
H245 H 0.53682 0.90818 0.08743 0.0
H246 H 0.51446 0.86607 0.09754 0.0
H247 H 0.52014 0.91083 0.10517 0.0
H248 H 0.592 0.92707 0.08329 0.0
H249 H 0.57607 0.92715 0.03055 0.0
H250 H 0.52472 0.84259 0.1459 0.0
H251 H 0.54446 0.88522 0.15341 0.0
H252 H 0.52664 0.86937 0.01463 0.0
H253 H 0.56568 0.88432 0.03722 0.0
H254 H 0.53608 0.87061 0.98419 0.0
H255 H 0.57443 0.88515 0.00644 0.0
H256 H 0.51866 0.85234 0.04004 0.0
H257 H 0.50885 0.83165 0.09084 0.0
H258 H 0.5017 0.83166 0.0252 0.0
H259 H 0.49199 0.81128 0.07511 0.0
H260 H 0.55921 0.83195 0.06213 0.0
H261 H 0.54233 0.83392 0.01102 0.0
H262 H 0.50159 0.88448 0.02202 0.0
H263 H 0.47745 0.85346 0.06011 0.0
Li264 Li 0.6628 0.55491 0.56423 0.0
Li265 Li 0.66527 0.5416 0.5879 0.0
Li266 Li 0.6769 0.54509 0.55829 0.0
Li267 Li 0.65298 0.53023 0.56151 0.0
C268 C 0.68971 0.57103 0.57808 0.0
N269 N 0.71107 0.59661 0.58049 0.0
C270 C 0.69335 0.57753 0.59474 0.0
C271 C 0.69709 0.57749 0.5627 0.0
C272 C 0.70413 0.59047 0.59567 0.0
C273 C 0.70781 0.59043 0.56418 0.0
C274 C 0.64199 0.53994 0.59432 0.0
C275 C 0.62986 0.52825 0.62096 0.0
N276 N 0.62921 0.53915 0.62611 0.0
C277 C 0.64113 0.55099 0.5998 0.0
C278 C 0.63623 0.52843 0.60489 0.0
C279 C 0.63464 0.55041 0.61594 0.0
C280 C 0.65108 0.56733 0.54606 0.0
N281 N 0.66021 0.56936 0.55896 0.0
C282 C 0.66488 0.59164 0.56343 0.0
C283 C 0.66704 0.58118 0.56771 0.0
C284 C 0.65549 0.58984 0.55016 0.0
C285 C 0.64856 0.57748 0.5414 0.0
H286 H 0.64569 0.55775 0.53949 0.0
H287 H 0.67405 0.58248 0.57816 0.0
C288 C 0.66832 0.53051 0.62028 0.0
N289 N 0.66691 0.54052 0.61319 0.0
C290 C 0.6691 0.52942 0.63894 0.0
C291 C 0.66708 0.54902 0.64255 0.0
C292 C 0.66644 0.54978 0.62386 0.0
C293 C 0.6684 0.53872 0.65036 0.0
H294 H 0.66881 0.52337 0.61145 0.0
H295 H 0.66536 0.55766 0.61783 0.0
C296 C 0.66518 0.54881 0.52573 0.0
N297 N 0.67059 0.5581 0.49064 0.0
C298 C 0.65983 0.53996 0.51126 0.0
C299 C 0.67312 0.56242 0.52231 0.0
C300 C 0.66273 0.54484 0.49363 0.0
C301 C 0.67578 0.56691 0.50449 0.0
C302 C 0.66376 0.51566 0.57022 0.0
C303 C 0.66991 0.51219 0.55678 0.0
C304 C 0.65351 0.50571 0.58046 0.0
C305 C 0.66556 0.49877 0.55364 0.0
C306 C 0.64943 0.49241 0.57687 0.0
N307 N 0.65549 0.48924 0.56365 0.0
C308 C 0.70358 0.55245 0.55818 0.0
C309 C 0.69363 0.54655 0.52923 0.0
C310 C 0.71589 0.55556 0.55099 0.0
N311 N 0.69283 0.54819 0.54724 0.0
C312 C 0.70575 0.5496 0.52144 0.0
C313 C 0.7171 0.55423 0.53236 0.0
H314 H 0.70259 0.55352 0.5725 0.0
H315 H 0.6849 0.5429 0.52087 0.0
C316 C 0.62606 0.51012 0.55987 0.0
N317 N 0.63826 0.51439 0.55254 0.0
C318 C 0.61505 0.49853 0.55357 0.0
C319 C 0.62935 0.49598 0.53221 0.0
C320 C 0.64008 0.50762 0.53893 0.0
C321 C 0.61661 0.4913 0.53952 0.0
H322 H 0.62487 0.51574 0.57058 0.0
H323 H 0.64988 0.51129 0.53328 0.0
O324 O 0.67917 0.55832 0.577 0.0
O325 O 0.64844 0.54039 0.57867 0.0
O326 O 0.66241 0.54416 0.54308 0.0
O327 O 0.66776 0.52873 0.57333 0.0
H328 H 0.68789 0.57266 0.60684 0.0
H329 H 0.69471 0.57254 0.54979 0.0
H330 H 0.70699 0.59563 0.60846 0.0
H331 H 0.71358 0.59553 0.55237 0.0
H332 H 0.62545 0.51946 0.62935 0.0
H333 H 0.6455 0.55996 0.59175 0.0
H334 H 0.63682 0.5198 0.60084 0.0
H335 H 0.63396 0.55891 0.6204 0.0
H336 H 0.67047 0.60101 0.57048 0.0
H337 H 0.64102 0.57555 0.53137 0.0
H338 H 0.67034 0.52145 0.64434 0.0
H339 H 0.66629 0.55629 0.65079 0.0
H340 H 0.65354 0.52943 0.51359 0.0
H341 H 0.67704 0.56947 0.53325 0.0
H342 H 0.65872 0.53808 0.48232 0.0
H343 H 0.68192 0.57741 0.50169 0.0
H344 H 0.67788 0.51977 0.54876 0.0
H345 H 0.64866 0.50824 0.59092 0.0
H346 H 0.67018 0.49594 0.54321 0.0
H347 H 0.64144 0.4846 0.58459 0.0
H348 H 0.72431 0.55882 0.55997 0.0
H349 H 0.70624 0.54848 0.50701 0.0
H350 H 0.60544 0.49521 0.55972 0.0
H351 H 0.63098 0.49083 0.5212 0.0
Li352 Li 0.12297 0.66634 0.08675 0.0
Li353 Li 0.10749 0.66447 0.06316 0.0
Li354 Li 0.12259 0.6549 0.05968 0.0
Li355 Li 0.13145 0.67887 0.05792 0.0
C356 C 0.10187 0.6428 0.09216 0.0
N357 N 0.09049 0.62919 0.12373 0.0
C358 C 0.09008 0.64179 0.09853 0.0
C359 C 0.10779 0.63675 0.10173 0.0
C360 C 0.0845 0.63489 0.11454 0.0
C361 C 0.10192 0.62996 0.11771 0.0
C362 C 0.11726 0.69061 0.07737 0.0
C363 C 0.11506 0.70795 0.06268 0.0
N364 N 0.11147 0.71097 0.07867 0.0
C365 C 0.11373 0.69402 0.09371 0.0
C366 C 0.11807 0.69773 0.06177 0.0
C367 C 0.11077 0.70429 0.09407 0.0
C368 C 0.13616 0.66748 0.11939 0.0
N369 N 0.12527 0.66715 0.1121 0.0
C370 C 0.11682 0.66744 0.14134 0.0
C371 C 0.11571 0.66719 0.12261 0.0
C372 C 0.1279 0.66767 0.14931 0.0
C373 C 0.13767 0.6677 0.13809 0.0
H374 H 0.14366 0.66756 0.1107 0.0
H375 H 0.10712 0.66685 0.11642 0.0
C376 C 0.08378 0.65458 0.04357 0.0
N377 N 0.09037 0.66185 0.0583 0.0
C378 C 0.07093 0.65198 0.03984 0.0
C379 C 0.07185 0.6643 0.06663 0.0
C380 C 0.0847 0.66669 0.0698 0.0
C381 C 0.06476 0.65676 0.05155 0.0
H382 H 0.08847 0.65068 0.03482 0.0
H383 H 0.08997 0.67205 0.08174 0.0
C384 C 0.14802 0.66585 0.0692 0.0
N385 N 0.16699 0.65866 0.06266 0.0
C386 C 0.15816 0.67295 0.0567 0.0
C387 C 0.14762 0.6552 0.07852 0.0
C388 C 0.16764 0.66914 0.05356 0.0
C389 C 0.15727 0.65168 0.07497 0.0
C390 C 0.11729 0.66815 0.02442 0.0
C391 C 0.12212 0.66368 0.0104 0.0
C392 C 0.11135 0.67575 0.02038 0.0
C393 C 0.12123 0.66718 0.99263 0.0
C394 C 0.11064 0.67902 0.00244 0.0
N395 N 0.11557 0.67473 0.98905 0.0
C396 C 0.11541 0.62802 0.05594 0.0
C397 C 0.13336 0.64279 0.03734 0.0
C398 C 0.11619 0.6172 0.04929 0.0
N399 N 0.12397 0.6405 0.04996 0.0
C400 C 0.1345 0.63227 0.0303 0.0
C401 C 0.12584 0.61926 0.0363 0.0
H402 H 0.10791 0.62645 0.06579 0.0
H403 H 0.14003 0.65281 0.03279 0.0
C404 C 0.15011 0.70589 0.05881 0.0
N405 N 0.14448 0.69513 0.04773 0.0
C406 C 0.1596 0.71827 0.05215 0.0
C407 C 0.15747 0.7082 0.02287 0.0
C408 C 0.14807 0.69601 0.03012 0.0
C409 C 0.16333 0.71953 0.03393 0.0
H410 H 0.14714 0.70484 0.07282 0.0
H411 H 0.14379 0.68726 0.02174 0.0
O412 O 0.10762 0.64972 0.07668 0.0
O413 O 0.12018 0.68056 0.07682 0.0
O414 O 0.13858 0.66937 0.07234 0.0
O415 O 0.11809 0.66478 0.04191 0.0
H416 H 0.08533 0.64635 0.09125 0.0
H417 H 0.1169 0.6374 0.09697 0.0
H418 H 0.07541 0.6341 0.11968 0.0
H419 H 0.10645 0.62533 0.12533 0.0
H420 H 0.11564 0.71352 0.05068 0.0
H421 H 0.11323 0.68878 0.10599 0.0
H422 H 0.12121 0.69558 0.04914 0.0
H423 H 0.10794 0.70696 0.10661 0.0
H424 H 0.10898 0.66722 0.1495 0.0
H425 H 0.14643 0.66803 0.14371 0.0
H426 H 0.06583 0.64616 0.02804 0.0
H427 H 0.06736 0.66789 0.07625 0.0
H428 H 0.15867 0.68126 0.04944 0.0
H429 H 0.13986 0.64962 0.08825 0.0
H430 H 0.17551 0.6745 0.04386 0.0
H431 H 0.15702 0.64339 0.08198 0.0
H432 H 0.12657 0.65764 0.01317 0.0
H433 H 0.10713 0.67892 0.0309 0.0
H434 H 0.12502 0.66387 0.98168 0.0
H435 H 0.10608 0.68492 -0.00084 0.0
H436 H 0.10918 0.60731 0.05406 0.0
H437 H 0.14215 0.6343 0.02042 0.0
H438 H 0.16387 0.72678 0.06109 0.0
H439 H 0.16032 0.70871 0.00885 0.0
Li440 Li 0.4546 0.12423 0.58901 0.0
Li441 Li 0.44102 0.10903 0.56517 0.0
Li442 Li 0.46558 0.12393 0.56064 0.0
Li443 Li 0.45003 0.1323 0.55984 0.0
C444 C 0.46155 0.10397 0.58947 0.0
N445 N 0.47276 0.09317 0.61179 0.0
C446 C 0.45369 0.0913 0.59682 0.0
C447 C 0.47516 0.11103 0.5932 0.0
C448 C 0.45953 0.08605 0.60816 0.0
C449 C 0.48063 0.10544 0.60457 0.0
C450 C 0.42421 0.11413 0.58303 0.0
C451 C 0.4013 0.10322 0.57345 0.0
N452 N 0.39741 0.09861 0.59051 0.0
C453 C 0.41997 0.10941 0.60052 0.0
C454 C 0.4148 0.11113 0.56942 0.0
C455 C 0.40638 0.10154 0.60402 0.0
C456 C 0.46266 0.13887 0.62172 0.0
N457 N 0.45653 0.12649 0.61438 0.0
C458 C 0.45238 0.11656 0.64359 0.0
C459 C 0.45131 0.11543 0.62488 0.0
C460 C 0.45881 0.12921 0.65159 0.0
C461 C 0.46401 0.14048 0.64042 0.0
H462 H 0.46642 0.1475 0.61307 0.0
H463 H 0.44612 0.10572 0.61873 0.0
C464 C 0.42238 0.08747 0.54396 0.0
N465 N 0.42637 0.09184 0.56107 0.0
C466 C 0.41155 0.07479 0.54096 0.0
C467 C 0.40917 0.07144 0.57326 0.0
C468 C 0.42006 0.08413 0.57561 0.0
C469 C 0.40483 0.0666 0.55574 0.0
H470 H 0.42765 0.09377 0.53265 0.0
H471 H 0.42354 0.08785 0.58906 0.0
C472 C 0.47947 0.1498 0.57697 0.0
N473 N 0.50484 0.17056 0.58372 0.0
C474 C 0.48447 0.16168 0.5673 0.0
C475 C 0.48731 0.14859 0.59031 0.0
C476 C 0.49734 0.17203 0.57084 0.0
C477 C 0.50012 0.15916 0.59346 0.0
C478 C 0.4496 0.12287 0.5264 0.0
C479 C 0.46069 0.12884 0.51505 0.0
C480 C 0.43736 0.12087 0.52022 0.0
C481 C 0.45939 0.13292 0.49781 0.0
C482 C 0.43648 0.12511 0.50291 0.0
N483 N 0.44742 0.13101 0.49216 0.0
C484 C 0.48149 0.11375 0.54825 0.0
C485 C 0.49144 0.1371 0.54492 0.0
C486 C 0.49264 0.11402 0.54078 0.0
N487 N 0.48115 0.1252 0.55035 0.0
C488 C 0.50281 0.13784 0.53745 0.0
C489 C 0.50352 0.1262 0.53535 0.0
H490 H 0.47308 0.1044 0.55245 0.0
H491 H 0.49076 0.14599 0.5461 0.0
C492 C 0.43613 0.14614 0.55416 0.0
N493 N 0.44677 0.14509 0.54888 0.0
C494 C 0.4332 0.15501 0.54543 0.0
C495 C 0.4523 0.16158 0.52616 0.0
C496 C 0.45495 0.15273 0.5354 0.0
C497 C 0.44126 0.16273 0.53111 0.0
H498 H 0.42988 0.14004 0.56505 0.0
H499 H 0.46346 0.15183 0.53168 0.0
O500 O 0.45596 0.10925 0.57833 0.0
O501 O 0.43749 0.12166 0.57928 0.0
O502 O 0.46688 0.13956 0.57362 0.0
O503 O 0.45072 0.11895 0.5434 0.0
H504 H 0.44318 0.08559 0.5939 0.0
H505 H 0.48148 0.12063 0.58718 0.0
H506 H 0.45353 0.07629 0.61405 0.0
H507 H 0.49115 0.11082 0.60758 0.0
H508 H 0.39393 0.10074 0.563 0.0
H509 H 0.42708 0.11174 0.61127 0.0
H510 H 0.41789 0.1148 0.55587 0.0
H511 H 0.40297 0.09775 0.61746 0.0
H512 H 0.44827 0.10762 0.65171 0.0
H513 H 0.46885 0.1504 0.64608 0.0
H514 H 0.40849 0.07142 0.52725 0.0
H515 H 0.40444 0.06535 0.58501 0.0
H516 H 0.47851 0.16289 0.55711 0.0
H517 H 0.48348 0.13968 0.59836 0.0
H518 H 0.50135 0.18124 0.56336 0.0
H519 H 0.50628 0.15834 0.60373 0.0
H520 H 0.47021 0.13038 0.51952 0.0
H521 H 0.42866 0.11618 0.52874 0.0
H522 H 0.46791 0.13763 0.48893 0.0
H523 H 0.42709 0.12372 0.49802 0.0
H524 H 0.49282 0.10482 0.53948 0.0
H525 H 0.51087 0.14739 0.53309 0.0
H526 H 0.42462 0.15568 0.54962 0.0
H527 H 0.45888 0.16756 0.51539 0.0
Li528 Li 0.52752 0.65513 0.93753 0.0
Li529 Li 0.5434 0.67886 0.93856 0.0
Li530 Li 0.53852 0.66653 0.91049 0.0
Li531 Li 0.55133 0.66367 0.93438 0.0
C532 C 0.51369 0.66643 0.92959 0.0
N533 N 0.48797 0.65895 0.93962 0.0
C534 C 0.51137 0.67305 0.94363 0.0
C535 C 0.50292 0.65603 0.92062 0.0
C536 C 0.4983 0.66913 0.94849 0.0
C537 C 0.49 0.65238 0.92592 0.0
C538 C 0.547 0.66171 0.96944 0.0
C539 C 0.56549 0.66656 0.98901 0.0
N540 N 0.5583 0.65432 0.9966 0.0
C541 C 0.5398 0.64917 0.97746 0.0
C542 C 0.55994 0.6705 0.9753 0.0
C543 C 0.54569 0.64563 0.99117 0.0
C544 C 0.50546 0.62915 0.9394 0.0
N545 N 0.51157 0.64123 0.94756 0.0
C546 C 0.49497 0.63344 0.97058 0.0
C547 C 0.50662 0.64355 0.96288 0.0
C548 C 0.48842 0.62082 0.96245 0.0
C549 C 0.49378 0.61877 0.94659 0.0
H550 H 0.50968 0.62756 0.92734 0.0
H551 H 0.51181 0.65324 0.96918 0.0
C552 C 0.54493 0.70365 0.93833 0.0
N553 N 0.54727 0.69536 0.94859 0.0
C554 C 0.54807 0.71613 0.94487 0.0
C555 C 0.5558 0.71119 0.97252 0.0
C556 C 0.55249 0.6988 0.96543 0.0
C557 C 0.55361 0.72004 0.96218 0.0
H558 H 0.54064 0.70055 0.92503 0.0
H559 H 0.55413 0.69195 0.97334 0.0
C560 C 0.53634 0.64345 0.90436 0.0
N561 N 0.53626 0.632 0.87164 0.0
C562 C 0.54776 0.64347 0.89838 0.0
C563 C 0.52486 0.63755 0.89373 0.0
C564 C 0.54752 0.63763 0.8818 0.0
C565 C 0.52503 0.63185 0.87722 0.0
C566 C 0.56419 0.69301 0.91829 0.0
C567 C 0.5622 0.6997 0.90404 0.0
C568 C 0.57406 0.70021 0.93109 0.0
C569 C 0.57009 0.71352 0.90288 0.0
C570 C 0.58172 0.71401 0.92948 0.0
N571 N 0.57959 0.72033 0.91553 0.0
C572 C 0.52592 0.66636 0.87765 0.0
C573 C 0.5476 0.6694 0.87485 0.0
C574 C 0.52479 0.6667 0.85894 0.0
N575 N 0.53714 0.66757 0.88514 0.0
C576 C 0.54693 0.66985 0.8561 0.0
C577 C 0.53538 0.66841 0.84793 0.0
H578 H 0.51784 0.66511 0.88618 0.0
H579 H 0.55642 0.67038 0.88125 0.0
C580 C 0.56165 0.64799 0.94683 0.0
N581 N 0.56513 0.66001 0.9395 0.0
C582 C 0.5714 0.64489 0.95147 0.0
C583 C 0.58811 0.66638 0.94017 0.0
C584 C 0.57802 0.66914 0.93597 0.0
C585 C 0.58481 0.65416 0.94815 0.0
H586 H 0.55129 0.64084 0.94912 0.0
H587 H 0.58046 0.67853 0.92984 0.0
O588 O 0.52642 0.66995 0.92486 0.0
O589 O 0.54147 0.66529 0.95581 0.0
O590 O 0.53647 0.64939 0.92036 0.0
O591 O 0.55636 0.67952 0.9199 0.0
H592 H 0.51956 0.68104 0.95083 0.0
H593 H 0.50452 0.65064 0.90994 0.0
H594 H 0.49636 0.67414 0.95937 0.0
H595 H 0.48158 0.64428 0.9192 0.0
H596 H 0.57553 0.67323 0.99355 0.0
H597 H 0.52982 0.64219 0.97303 0.0
H598 H 0.56575 0.68015 0.96907 0.0
H599 H 0.54024 0.63595 0.99744 0.0
H600 H 0.4913 0.6354 0.98296 0.0
H601 H 0.48898 0.60926 0.93975 0.0
H602 H 0.54597 0.72255 0.93659 0.0
H603 H 0.56012 0.71384 0.98588 0.0
H604 H 0.55676 0.64805 0.90635 0.0
H605 H 0.51599 0.63762 0.89801 0.0
H606 H 0.5563 0.63762 0.87698 0.0
H607 H 0.51625 0.62736 0.86878 0.0
H608 H 0.55454 0.69432 0.8941 0.0
H609 H 0.57564 0.69521 0.94232 0.0
H610 H 0.56862 0.71883 0.89197 0.0
H611 H 0.58932 0.71972 0.93937 0.0
H612 H 0.51579 0.66573 0.85316 0.0
H613 H 0.55526 0.67106 0.84809 0.0
H614 H 0.56847 0.63525 0.95726 0.0
H615 H 0.59835 0.67372 0.93732 0.0
Li616 Li 0.86997 0.52859 0.43781 0.0
Li617 Li 0.86119 0.54384 0.43799 0.0
Li618 Li 0.8702 0.53934 0.40963 0.0
Li619 Li 0.88504 0.55332 0.43368 0.0
C620 C 0.84462 0.51396 0.42511 0.0
N621 N 0.82489 0.48759 0.42715 0.0
C622 C 0.83349 0.5102 0.43602 0.0
C623 C 0.84561 0.50433 0.415 0.0
C624 C 0.82365 0.49681 0.43693 0.0
C625 C 0.83557 0.49105 0.41628 0.0
C626 C 0.8723 0.54619 0.47215 0.0
C627 C 0.87394 0.56193 0.4947 0.0
N628 N 0.86826 0.55192 0.50699 0.0
C629 C 0.86665 0.5361 0.48508 0.0
C630 C 0.87613 0.55924 0.47705 0.0
C631 C 0.86463 0.53919 0.50259 0.0
C632 C 0.87873 0.5106 0.44576 0.0
N633 N 0.86853 0.513 0.44829 0.0
C634 C 0.85666 0.49318 0.46577 0.0
C635 C 0.85768 0.50465 0.45822 0.0
C636 C 0.867 0.49039 0.46327 0.0
C637 C 0.87816 0.49928 0.45315 0.0
H638 H 0.88733 0.5175 0.43805 0.0
H639 H 0.84988 0.50696 0.46045 0.0
C640 C 0.84517 0.55562 0.43882 0.0
N641 N 0.84815 0.54723 0.44777 0.0
C642 C 0.8359 0.55866 0.44593 0.0
C643 C 0.83274 0.54415 0.47113 0.0
C644 C 0.84202 0.54135 0.46348 0.0
C645 C 0.82959 0.55294 0.46235 0.0
H646 H 0.84998 0.55992 0.42612 0.0
H647 H 0.84425 0.53441 0.47004 0.0
C648 C 0.89158 0.53582 0.40738 0.0
N649 N 0.90437 0.53087 0.37958 0.0
C650 C 0.90389 0.5459 0.40116 0.0
C651 C 0.88589 0.52317 0.39966 0.0
C652 C 0.91017 0.54321 0.38704 0.0
C653 C 0.89248 0.52088 0.38557 0.0
C654 C 0.87791 0.56974 0.41573 0.0
C655 C 0.88259 0.57493 0.39854 0.0
C656 C 0.87857 0.57821 0.42957 0.0
C657 C 0.88815 0.58857 0.39561 0.0
C658 C 0.8842 0.5918 0.42611 0.0
N659 N 0.88886 0.59666 0.40935 0.0
C660 C 0.85605 0.5281 0.37745 0.0
C661 C 0.87867 0.54447 0.37328 0.0
C662 C 0.85425 0.52619 0.35885 0.0
N663 N 0.86813 0.53705 0.38425 0.0
C664 C 0.87733 0.54287 0.35462 0.0
C665 C 0.86499 0.53362 0.34718 0.0
H666 H 0.84779 0.52247 0.38645 0.0
H667 H 0.88809 0.55173 0.37901 0.0
C668 C 0.90692 0.56898 0.45598 0.0
N669 N 0.90196 0.56804 0.4391 0.0
C670 C 0.91958 0.57932 0.46034 0.0
C671 C 0.92179 0.58759 0.42986 0.0
C672 C 0.90909 0.57707 0.4261 0.0
C673 C 0.92724 0.58871 0.44711 0.0
H674 H 0.90115 0.56152 0.46597 0.0
H675 H 0.90511 0.57587 0.41263 0.0
O676 O 0.85439 0.52702 0.42414 0.0
O677 O 0.87425 0.54332 0.45489 0.0
O678 O 0.88523 0.5383 0.42109 0.0
O679 O 0.87253 0.55641 0.41886 0.0
H680 H 0.83246 0.51752 0.44376 0.0
H681 H 0.85401 0.50709 0.40623 0.0
H682 H 0.81502 0.49375 0.44541 0.0
H683 H 0.83625 0.48349 0.40861 0.0
H684 H 0.87681 0.57198 0.49863 0.0
H685 H 0.86378 0.52599 0.48163 0.0
H686 H 0.88086 0.56723 0.46741 0.0
H687 H 0.86017 0.53145 0.51268 0.0
H688 H 0.84799 0.48669 0.47375 0.0
H689 H 0.88631 0.49746 0.45081 0.0
H690 H 0.83355 0.56526 0.43851 0.0
H691 H 0.82817 0.53955 0.48384 0.0
H692 H 0.90852 0.5557 0.40709 0.0
H693 H 0.87652 0.5152 0.40453 0.0
H694 H 0.91966 0.55095 0.38202 0.0
H695 H 0.88814 0.51115 0.37941 0.0
H696 H 0.88199 0.56852 0.38759 0.0
H697 H 0.87467 0.57434 0.44279 0.0
H698 H 0.8919 0.59273 0.38241 0.0
H699 H 0.88482 0.59846 0.43674 0.0
H700 H 0.84459 0.5189 0.35368 0.0
H701 H 0.8858 0.54898 0.3461 0.0
H702 H 0.92342 0.57984 0.47381 0.0
H703 H 0.92748 0.59442 0.41914 0.0
Li704 Li 0.33979 0.8714 0.93491 0.0
Li705 Li 0.3162 0.86389 0.93386 0.0
Li706 Li 0.32906 0.87094 0.90575 0.0
Li707 Li 0.33125 0.88661 0.92865 0.0
C708 C 0.33036 0.84826 0.91382 0.0
N709 N 0.33972 0.83328 0.89717 0.0
C710 C 0.32215 0.83452 0.9121 0.0
C711 C 0.34332 0.85439 0.90705 0.0
C712 C 0.32707 0.82711 0.90365 0.0
C713 C 0.34787 0.84664 0.89869 0.0
C714 C 0.32352 0.87198 0.9671 0.0
C715 C 0.30789 0.8703 0.98981 0.0
N716 N 0.31044 0.86184 -0.00061 0.0
C717 C 0.32608 0.86335 0.97724 0.0
C718 C 0.31445 0.87558 0.9735 0.0
C719 C 0.31933 0.85831 0.9935 0.0
C720 C 0.36443 0.88121 0.95151 0.0
N721 N 0.35342 0.86974 0.94655 0.0
C722 C 0.3626 0.85689 0.9582 0.0
C723 C 0.35221 0.85769 0.94999 0.0
C724 C 0.37428 0.86861 0.96305 0.0
C725 C 0.37505 0.88089 0.95978 0.0
H726 H 0.36492 0.89062 0.94909 0.0
H727 H 0.3432 0.84869 0.94632 0.0
C728 C 0.28874 0.85233 0.9413 0.0
N729 N 0.29973 0.85125 0.94394 0.0
C730 C 0.27665 0.84311 0.94901 0.0
C731 C 0.2874 0.83175 0.96179 0.0
C732 C 0.29927 0.84115 0.95375 0.0
C733 C 0.2759 0.8327 0.95946 0.0
H734 H 0.28931 0.86029 0.93315 0.0
H735 H 0.30814 0.84043 0.95532 0.0
C736 C 0.35333 0.89672 0.90605 0.0
N737 N 0.36848 0.91955 0.88613 0.0
C738 C 0.34782 0.89965 0.89122 0.0
C739 C 0.36658 0.90539 0.9107 0.0
C740 C 0.35562 0.91123 0.88133 0.0
C741 C 0.37408 0.91689 0.90048 0.0
C742 C 0.30971 0.88245 0.90999 0.0
C743 C 0.30945 0.88615 0.8921 0.0
C744 C 0.30433 0.8867 0.92357 0.0
C745 C 0.30397 0.89416 0.88815 0.0
C746 C 0.29895 0.89471 0.91907 0.0
N747 N 0.29888 0.89825 0.9016 0.0
C748 C 0.31658 0.8609 0.87264 0.0
C749 C 0.34004 0.87073 0.87157 0.0
C750 C 0.31567 0.85847 0.85413 0.0
N751 N 0.32865 0.86714 0.88085 0.0
C752 C 0.33959 0.86836 0.85306 0.0
C753 C 0.32729 0.86235 0.8441 0.0
H754 H 0.30769 0.85804 0.88046 0.0
H755 H 0.3495 0.87564 0.87848 0.0
C756 C 0.33782 0.9086 0.95065 0.0
N757 N 0.33484 0.90424 0.93334 0.0
C758 C 0.34041 0.92133 0.95524 0.0
C759 C 0.33682 0.92485 0.92409 0.0
C760 C 0.33442 0.91212 0.92008 0.0
C761 C 0.33988 0.92959 0.94186 0.0
H762 H 0.33821 0.90221 0.96092 0.0
H763 H 0.33214 0.90854 0.9064 0.0
O764 O 0.3256 0.85563 0.92194 0.0
O765 O 0.32982 0.8768 0.95095 0.0
O766 O 0.34586 0.8854 0.9159 0.0
O767 O 0.31506 0.87462 0.91413 0.0
H768 H 0.31208 0.82964 0.91725 0.0
H769 H 0.34982 0.86501 0.90829 0.0
H770 H 0.32083 0.81646 0.90223 0.0
H771 H 0.35788 0.85125 0.8934 0.0
H772 H 0.30078 0.87295 0.99487 0.0
H773 H 0.33306 0.86046 0.97251 0.0
H774 H 0.31246 0.88235 0.96593 0.0
H775 H 0.32114 0.85154 0.00142 0.0
H776 H 0.3616 0.84721 0.96042 0.0
H777 H 0.38371 0.89016 0.96369 0.0
H778 H 0.268 0.84419 0.94692 0.0
H779 H 0.28718 0.82371 0.96948 0.0
H780 H 0.33757 0.89312 0.88747 0.0
H781 H 0.37107 0.90327 0.92204 0.0
H782 H 0.35144 0.91363 0.86987 0.0
H783 H 0.38434 0.92368 0.90394 0.0
H784 H 0.31351 0.88295 0.88138 0.0
H785 H 0.30446 0.88398 0.93747 0.0
H786 H 0.30377 0.89714 0.87438 0.0
H787 H 0.29485 0.89815 0.92947 0.0
H788 H 0.306 0.85368 0.8477 0.0
H789 H 0.34877 0.87158 0.84575 0.0
H790 H 0.34273 0.92464 0.9691 0.0
H791 H 0.33656 0.93102 0.91333 0.0
Li792 Li 0.46526 0.3414 0.43863 0.0
Li793 Li 0.45082 0.31786 0.43773 0.0
Li794 Li 0.45384 0.33103 0.41125 0.0
Li795 Li 0.44151 0.33204 0.43655 0.0
C796 C 0.47716 0.32631 0.43059 0.0
N797 N 0.49676 0.32196 0.44438 0.0
C798 C 0.47947 0.32708 0.44917 0.0
C799 C 0.48481 0.32334 0.41902 0.0
C800 C 0.48943 0.32484 0.45588 0.0
C801 C 0.49468 0.32118 0.42625 0.0
C802 C 0.44316 0.32362 0.47058 0.0
C803 C 0.4224 0.30554 0.48153 0.0
N804 N 0.42592 0.31025 0.49863 0.0
C805 C 0.44657 0.32828 0.48825 0.0
C806 C 0.43098 0.31215 0.46716 0.0
C807 C 0.43772 0.32138 0.50225 0.0
C808 C 0.47944 0.3618 0.46333 0.0
N809 N 0.48091 0.35569 0.44861 0.0
C810 C 0.50439 0.37045 0.44864 0.0
C811 C 0.49305 0.35977 0.44117 0.0
C812 C 0.50319 0.37699 0.46385 0.0
C813 C 0.49051 0.37253 0.47122 0.0
H814 H 0.46964 0.35833 0.46888 0.0
H815 H 0.49393 0.3548 0.42936 0.0
C816 C 0.44326 0.29115 0.43365 0.0
N817 N 0.44825 0.30131 0.4457 0.0
C818 C 0.44123 0.2787 0.43871 0.0
C819 C 0.44948 0.28748 0.46848 0.0
C820 C 0.45142 0.29975 0.46282 0.0
C821 C 0.44437 0.27676 0.45633 0.0
H822 H 0.44095 0.29276 0.42008 0.0
H823 H 0.45546 0.30803 0.47211 0.0
C824 C 0.46425 0.3585 0.41374 0.0
N825 N 0.48213 0.38137 0.39577 0.0
C826 C 0.46238 0.36947 0.41336 0.0
C827 C 0.47523 0.35915 0.40499 0.0
C828 C 0.47153 0.38095 0.40419 0.0
C829 C 0.48415 0.37081 0.39598 0.0
C830 C 0.42682 0.31399 0.40931 0.0
C831 C 0.42544 0.32448 0.40261 0.0
C832 C 0.4179 0.30098 0.4039 0.0
C833 C 0.41512 0.32177 0.39059 0.0
C834 C 0.40771 0.29868 0.39186 0.0
N835 N 0.40655 0.30903 0.38551 0.0
C836 C 0.45812 0.32235 0.37814 0.0
C837 C 0.45212 0.33902 0.3755 0.0
C838 C 0.45877 0.32159 0.35941 0.0
N839 N 0.45485 0.33097 0.38574 0.0
C840 C 0.4527 0.33863 0.35674 0.0
C841 C 0.45604 0.32981 0.34847 0.0
H842 H 0.46017 0.31604 0.38667 0.0
H843 H 0.44939 0.34569 0.38189 0.0
C844 C 0.43114 0.34666 0.45158 0.0
N845 N 0.42744 0.33451 0.44456 0.0
C846 C 0.42156 0.34959 0.4577 0.0
C847 C 0.40451 0.32737 0.44938 0.0
C848 C 0.41445 0.3248 0.44366 0.0
C849 C 0.40805 0.33993 0.45641 0.0
H850 H 0.44157 0.35411 0.45226 0.0
H851 H 0.41179 0.31511 0.43838 0.0
O852 O 0.46745 0.3284 0.4236 0.0
O853 O 0.45174 0.33036 0.45678 0.0
O854 O 0.45536 0.34724 0.42274 0.0
O855 O 0.43689 0.31633 0.42098 0.0
H856 H 0.4737 0.3294 0.45836 0.0
H857 H 0.48314 0.32272 0.4046 0.0
H858 H 0.49132 0.32541 0.47023 0.0
H859 H 0.50068 0.31887 0.41745 0.0
H860 H 0.41295 0.29666 0.47908 0.0
H861 H 0.45596 0.33714 0.49111 0.0
H862 H 0.42816 0.30836 0.4536 0.0
H863 H 0.44023 0.32487 0.516 0.0
H864 H 0.51396 0.37368 0.4424 0.0
H865 H 0.48916 0.3772 0.48304 0.0
H866 H 0.43746 0.27077 0.42883 0.0
H867 H 0.45188 0.28638 0.48226 0.0
H868 H 0.45393 0.36911 0.42008 0.0
H869 H 0.47684 0.35076 0.4051 0.0
H870 H 0.4702 0.38952 0.40378 0.0
H871 H 0.49268 0.37145 0.38915 0.0
H872 H 0.4322 0.33461 0.40666 0.0
H873 H 0.41885 0.29275 0.40895 0.0
H874 H 0.41394 0.32979 0.38531 0.0
H875 H 0.40074 0.28866 0.38755 0.0
H876 H 0.46149 0.31474 0.35357 0.0
H877 H 0.45033 0.34499 0.34879 0.0
H878 H 0.42466 0.35944 0.46285 0.0
H879 H 0.39418 0.31966 0.4483 0.0
Li880 Li 0.12353 0.46698 0.93737 0.0
Li881 Li 0.13162 0.45127 0.93816 0.0
Li882 Li 0.12403 0.45611 0.90901 0.0
Li883 Li 0.10844 0.4424 0.93261 0.0
C884 C 0.14892 0.48102 0.92072 0.0
N885 N 0.16848 0.5067 0.91267 0.0
C886 C 0.16112 0.48679 0.92973 0.0
C887 C 0.14677 0.48825 0.90739 0.0
C888 C 0.17085 0.4998 0.92554 0.0
C889 C 0.15675 0.50123 0.90357 0.0
C890 C 0.12238 0.4505 0.97122 0.0
C891 C 0.12438 0.43672 0.99391 0.0
N892 N 0.131 0.44754 0.00474 0.0
C893 C 0.12909 0.46147 0.98264 0.0
C894 C 0.11989 0.438 0.97696 0.0
C895 C 0.1334 0.45977 -0.00049 0.0
C896 C 0.11354 0.48323 0.94894 0.0
N897 N 0.12484 0.48253 0.9477 0.0
C898 C 0.13745 0.50381 0.96167 0.0
C899 C 0.13664 0.49245 0.95405 0.0
C900 C 0.12597 0.50491 0.96289 0.0
C901 C 0.11389 0.49441 0.95643 0.0
H902 H 0.10425 0.47509 0.94407 0.0
H903 H 0.14538 0.49145 0.9535 0.0
C904 C 0.1442 0.43638 0.94532 0.0
N905 N 0.14419 0.44779 0.94926 0.0
C906 C 0.15293 0.43333 0.95417 0.0
C907 C 0.1616 0.45396 0.97073 0.0
C908 C 0.15272 0.45661 0.96154 0.0
C909 C 0.16173 0.44216 0.96713 0.0
H910 H 0.13738 0.4296 0.93539 0.0
H911 H 0.15252 0.46564 0.96432 0.0
C912 C 0.10302 0.46232 0.90826 0.0
N913 N 0.09074 0.47194 0.88581 0.0
C914 C 0.09042 0.4537 0.90115 0.0
C915 C 0.10923 0.47587 0.90423 0.0
C916 C 0.08442 0.45874 0.88974 0.0
C917 C 0.1029 0.48053 0.89279 0.0
C918 C 0.11359 0.42574 0.91389 0.0
C919 C 0.10983 0.4222 0.89593 0.0
C920 C 0.1097 0.41581 0.92697 0.0
C921 C 0.10205 0.40878 0.8914 0.0
C922 C 0.10191 0.4025 0.92191 0.0
N923 N 0.09826 0.39929 0.90438 0.0
C924 C 0.13946 0.4638 0.87718 0.0
C925 C 0.11626 0.45416 0.87255 0.0
C926 C 0.14177 0.46556 0.85863 0.0
N927 N 0.12687 0.45834 0.88374 0.0
C928 C 0.1181 0.45573 0.85396 0.0
C929 C 0.131 0.46156 0.84678 0.0
H930 H 0.1477 0.46681 0.88637 0.0
H931 H 0.10633 0.44935 0.87803 0.0
C932 C 0.08673 0.42488 0.95414 0.0
N933 N 0.09119 0.42786 0.93688 0.0
C934 C 0.07411 0.41415 0.95771 0.0
C935 C 0.07098 0.40973 0.92567 0.0
C936 C 0.0836 0.42062 0.92272 0.0
C937 C 0.06609 0.40644 0.94335 0.0
H938 H 0.09293 0.4309 0.96513 0.0
H939 H 0.08733 0.42332 0.90911 0.0
O940 O 0.13927 0.46828 0.92472 0.0
O941 O 0.11828 0.45201 0.95453 0.0
O942 O 0.10901 0.45752 0.91949 0.0
O943 O 0.1211 0.43885 0.9186 0.0
H944 H 0.16305 0.4813 0.9399 0.0
H945 H 0.1376 0.48383 0.89987 0.0
H946 H 0.1803 0.50441 0.9325 0.0
H947 H 0.1552 0.50693 0.8933 0.0
H948 H 0.12261 0.42712 0.99845 0.0
H949 H 0.13104 0.47119 0.97848 0.0
H950 H 0.11463 0.42939 0.96836 0.0
H951 H 0.13868 0.46819 0.00844 0.0
H952 H 0.1469 0.51153 0.96683 0.0
H953 H 0.10482 0.49488 0.95698 0.0
H954 H 0.1527 0.42411 0.95105 0.0
H955 H 0.16838 0.46114 0.9804 0.0
H956 H 0.08536 0.44322 0.9043 0.0
H957 H 0.11874 0.48278 0.91007 0.0
H958 H 0.07473 0.45216 0.88404 0.0
H959 H 0.10763 0.491 0.88954 0.0
H960 H 0.11285 0.42972 0.88559 0.0
H961 H 0.11256 0.41835 0.94091 0.0
H962 H 0.09901 0.40591 0.87756 0.0
H963 H 0.09874 0.39472 0.93192 0.0
H964 H 0.15187 0.47011 0.85365 0.0
H965 H 0.10949 0.45218 0.84527 0.0
H966 H 0.07066 0.41191 0.97153 0.0
H967 H 0.06499 0.40417 0.91421 0.0
Li968 Li 0.67715 0.13104 0.43809 0.0
Li969 Li 0.65338 0.12306 0.43747 0.0
Li970 Li 0.66267 0.10784 0.43355 0.0
Li971 Li 0.66447 0.12281 0.40913 0.0
C972 C 0.66878 0.12287 0.47153 0.0
N973 N 0.68039 0.13278 0.50469 0.0
C974 C 0.66432 0.12974 0.48228 0.0
C975 C 0.67903 0.1209 0.47773 0.0
C976 C 0.67034 0.1347 0.49899 0.0
C977 C 0.68481 0.12604 0.4945 0.0
C978 C 0.66546 0.1484 0.41887 0.0
C979 C 0.65459 0.15678 0.39956 0.0
N980 N 0.6611 0.16871 0.40816 0.0
C981 C 0.67219 0.16081 0.42733 0.0
C982 C 0.65671 0.14643 0.40472 0.0
C983 C 0.6698 0.17091 0.4218 0.0
C984 C 0.70471 0.14375 0.44504 0.0
N985 N 0.69332 0.14387 0.44873 0.0
C986 C 0.70468 0.16183 0.4694 0.0
C987 C 0.69311 0.15273 0.46048 0.0
C988 C 0.71658 0.16183 0.46608 0.0
C989 C 0.71654 0.1527 0.45363 0.0
H990 H 0.7046 0.13665 0.43554 0.0
H991 H 0.68389 0.1526 0.46312 0.0
C992 C 0.62778 0.11312 0.45124 0.0
N993 N 0.63921 0.1246 0.44757 0.0
C994 C 0.61687 0.11346 0.45848 0.0
C995 C 0.62981 0.13747 0.45841 0.0
C996 C 0.64047 0.13665 0.4512 0.0
C997 C 0.61778 0.12576 0.46207 0.0
H998 H 0.62715 0.10367 0.44849 0.0
H999 H 0.64974 0.14563 0.44861 0.0
C1000 C 0.68388 0.11198 0.41485 0.0
N1001 N 0.69372 0.09534 0.40643 0.0
C1002 C 0.68281 0.1072 0.39727 0.0
C1003 C 0.6901 0.10843 0.4281 0.0
C1004 C 0.68782 0.09877 0.39329 0.0
C1005 C 0.69496 0.09997 0.4236 0.0
C1006 C 0.63651 0.1025 0.41047 0.0
C1007 C 0.63071 0.08927 0.40484 0.0
C1008 C 0.6302 0.10977 0.40654 0.0
C1009 C 0.61887 0.08364 0.395 0.0
C1010 C 0.61836 0.10378 0.39671 0.0
N1011 N 0.61299 0.09096 0.39116 0.0
C1012 C 0.66028 0.08653 0.45503 0.0
C1013 C 0.65782 0.08263 0.42349 0.0
C1014 C 0.65855 0.07389 0.45803 0.0
N1015 N 0.65991 0.09061 0.43797 0.0
C1016 C 0.65611 0.06998 0.42584 0.0
C1017 C 0.65645 0.06546 0.44329 0.0
H1018 H 0.6619 0.09307 0.4663 0.0
H1019 H 0.65752 0.08614 0.41009 0.0
C1020 C 0.67335 0.13689 0.37634 0.0
N1021 N 0.66491 0.12485 0.38374 0.0
C1022 C 0.67395 0.13854 0.35763 0.0
C1023 C 0.65726 0.11535 0.3546 0.0
C1024 C 0.65703 0.11414 0.37331 0.0
C1025 C 0.66583 0.12767 0.3465 0.0
H1026 H 0.67967 0.14518 0.38498 0.0
H1027 H 0.65069 0.1046 0.37947 0.0
O1028 O 0.66314 0.11812 0.45501 0.0
O1029 O 0.66777 0.13842 0.42412 0.0
O1030 O 0.67884 0.12006 0.41907 0.0
O1031 O 0.64811 0.10813 0.42014 0.0
H1032 H 0.65637 0.13131 0.47773 0.0
H1033 H 0.6826 0.11561 0.46959 0.0
H1034 H 0.66704 0.1401 0.50741 0.0
H1035 H 0.69283 0.1247 0.4994 0.0
H1036 H 0.64782 0.15536 0.38865 0.0
H1037 H 0.67916 0.16262 0.43811 0.0
H1038 H 0.65175 0.13709 0.39757 0.0
H1039 H 0.67487 0.18052 0.42833 0.0
H1040 H 0.70432 0.16886 0.47865 0.0
H1041 H 0.7255 0.15235 0.45076 0.0
H1042 H 0.60789 0.10419 0.46141 0.0
H1043 H 0.63093 0.14716 0.46089 0.0
H1044 H 0.6781 0.10989 0.38682 0.0
H1045 H 0.69102 0.11203 0.44177 0.0
H1046 H 0.68699 0.09494 0.37977 0.0
H1047 H 0.69969 0.09705 0.43375 0.0
H1048 H 0.63531 0.08341 0.40795 0.0
H1049 H 0.63425 0.11984 0.41128 0.0
H1050 H 0.61433 0.07344 0.39046 0.0
H1051 H 0.61339 0.10931 0.39358 0.0
H1052 H 0.6589 0.07077 0.47169 0.0
H1053 H 0.65425 0.06371 0.41414 0.0
H1054 H 0.68085 0.14817 0.35196 0.0
H1055 H 0.65074 0.10672 0.34659 0.0
Li1056 Li 0.65369 0.527 0.93476 0.0
Li1057 Li 0.66289 0.55096 0.93212 0.0
Li1058 Li 0.66524 0.53809 0.90654 0.0
Li1059 Li 0.67816 0.54298 0.9342 0.0
C1060 C 0.6363 0.53012 0.90994 0.0
N1061 N 0.61103 0.517 0.89525 0.0
C1062 C 0.62668 0.53319 0.91562 0.0
C1063 C 0.63312 0.52056 0.89647 0.0
C1064 C 0.61394 0.52639 0.90814 0.0
C1065 C 0.62029 0.51399 0.88929 0.0
C1066 C 0.66272 0.5466 0.96737 0.0
C1067 C 0.66952 0.56527 0.98741 0.0
N1068 N 0.65805 0.55822 0.99689 0.0
C1069 C 0.65105 0.5395 0.97741 0.0
C1070 C 0.6721 0.55955 0.9725 0.0
C1071 C 0.64885 0.54557 0.99225 0.0
C1072 C 0.64248 0.50138 0.95003 0.0
N1073 N 0.63987 0.51111 0.94507 0.0
C1074 C 0.61753 0.49834 0.95567 0.0
C1075 C 0.62774 0.50987 0.94789 0.0
C1076 C 0.61984 0.488 0.96067 0.0
C1077 C 0.63254 0.48964 0.95777 0.0
H1078 H 0.6523 0.50275 0.94798 0.0
H1079 H 0.62607 0.51794 0.94448 0.0
C1080 C 0.66847 0.57763 0.93305 0.0
N1081 N 0.65973 0.56497 0.93821 0.0
C1082 C 0.66624 0.58799 0.93774 0.0
C1083 C 0.64608 0.57204 0.95295 0.0
C1084 C 0.64868 0.56202 0.94793 0.0
C1085 C 0.6549 0.58523 0.94781 0.0
H1086 H 0.67714 0.57967 0.92524 0.0
H1087 H 0.6419 0.55186 0.95182 0.0
C1088 C 0.6662 0.51421 0.91371 0.0
N1089 N 0.66262 0.49122 0.89745 0.0
C1090 C 0.67696 0.51211 0.91149 0.0
C1091 C 0.65358 0.5045 0.90792 0.0
C1092 C 0.67497 0.50047 0.90316 0.0
C1093 C 0.65197 0.49298 0.89967 0.0
C1094 C 0.69167 0.56421 0.91372 0.0
C1095 C 0.6979 0.56312 0.89821 0.0
C1096 C 0.69915 0.5738 0.9267 0.0
C1097 C 0.71158 0.57153 0.89607 0.0
C1098 C 0.71281 0.582 0.92409 0.0
N1099 N 0.71869 0.5807 0.90896 0.0
C1100 C 0.66013 0.54266 0.87126 0.0
C1101 C 0.67146 0.53046 0.87302 0.0
C1102 C 0.66032 0.54231 0.85246 0.0
N1103 N 0.66559 0.53672 0.88109 0.0
C1104 C 0.67177 0.52978 0.85425 0.0
C1105 C 0.66618 0.53579 0.84375 0.0
H1106 H 0.65566 0.54768 0.87808 0.0
H1107 H 0.67612 0.5262 0.88107 0.0
C1108 C 0.69795 0.55004 0.96076 0.0
N1109 N 0.69487 0.54663 0.94317 0.0
C1110 C 0.7104 0.55311 0.9674 0.0
C1111 C 0.71617 0.54897 0.93769 0.0
C1112 C 0.70363 0.54601 0.93164 0.0
C1113 C 0.71968 0.55256 0.95581 0.0
H1114 H 0.69077 0.55037 0.96965 0.0
H1115 H 0.70088 0.54326 0.91771 0.0
O1116 O 0.64886 0.53678 0.91707 0.0
O1117 O 0.66496 0.54088 0.95264 0.0
O1118 O 0.66803 0.5256 0.92181 0.0
O1119 O 0.67832 0.55591 0.91619 0.0
H1120 H 0.62897 0.5407 0.92578 0.0
H1121 H 0.64051 0.51835 0.89138 0.0
H1122 H 0.60638 0.52861 0.91254 0.0
H1123 H 0.61771 0.50655 0.87891 0.0
H1124 H 0.67664 0.57532 0.99142 0.0
H1125 H 0.64375 0.52944 0.97376 0.0
H1126 H 0.68118 0.56519 0.96491 0.0
H1127 H 0.63983 0.54021 8e-05 0.0
H1128 H 0.60802 0.49767 0.95808 0.0
H1129 H 0.63475 0.48192 0.96133 0.0
H1130 H 0.6733 0.59803 0.93356 0.0
H1131 H 0.63708 0.56943 0.96041 0.0
H1132 H 0.68677 0.51941 0.9161 0.0
H1133 H 0.64505 0.5057 0.91006 0.0
H1134 H 0.68323 0.49877 0.90126 0.0
H1135 H 0.64225 0.48539 0.89513 0.0
H1136 H 0.69227 0.5558 0.88799 0.0
H1137 H 0.6945 0.57481 0.93876 0.0
H1138 H 0.71654 0.57074 0.88419 0.0
H1139 H 0.71874 0.58938 0.9341 0.0
H1140 H 0.65584 0.54701 0.84481 0.0
H1141 H 0.6766 0.52487 0.84803 0.0
H1142 H 0.71274 0.55593 0.98142 0.0
H1143 H 0.72294 0.54822 0.92837 0.0
Li1144 Li 0.12429 0.66368 0.40549 0.0
Li1145 Li 0.13268 0.6768 0.43285 0.0
Li1146 Li 0.12491 0.6531 0.43282 0.0
Li1147 Li 0.10947 0.66145 0.43022 0.0
C1148 C 0.14976 0.66428 0.4232 0.0
N1149 N 0.16844 0.65719 0.4323 0.0
C1150 C 0.15913 0.67124 0.43666 0.0
C1151 C 0.14993 0.65375 0.41431 0.0
C1152 C 0.16849 0.6675 0.44106 0.0
C1153 C 0.15943 0.6503 0.41914 0.0
C1154 C 0.12509 0.6903 0.41251 0.0
C1155 C 0.12896 0.71157 0.42316 0.0
N1156 N 0.13627 0.71744 0.40812 0.0
C1157 C 0.13262 0.69654 0.39714 0.0
C1158 C 0.12319 0.69786 0.4256 0.0
C1159 C 0.13819 0.71027 0.39517 0.0
C1160 C 0.11645 0.66491 0.37017 0.0
N1161 N 0.12586 0.66409 0.38005 0.0
C1162 C 0.13722 0.6639 0.35333 0.0
C1163 C 0.13617 0.66366 0.3721 0.0
C1164 C 0.12758 0.66464 0.34273 0.0
C1165 C 0.11709 0.66515 0.35139 0.0
H1166 H 0.10843 0.66535 0.37693 0.0
H1167 H 0.14361 0.66321 0.38031 0.0
C1168 C 0.14498 0.6967 0.45937 0.0
N1169 N 0.14561 0.6935 0.44193 0.0
C1170 C 0.15433 0.70912 0.46607 0.0
C1171 C 0.16487 0.71464 0.43674 0.0
C1172 C 0.15535 0.70208 0.43065 0.0
C1173 C 0.16443 0.7183 0.45468 0.0
H1174 H 0.13726 0.68958 0.46811 0.0
H1175 H 0.15566 0.69916 0.41688 0.0
C1176 C 0.10337 0.64022 0.40112 0.0
N1177 N 0.09099 0.62736 0.36953 0.0
C1178 C 0.09155 0.6396 0.39573 0.0
C1179 C 0.10887 0.63425 0.39047 0.0
C1180 C 0.08543 0.63305 0.37972 0.0
C1181 C 0.10248 0.62782 0.37453 0.0
C1182 C 0.11282 0.66035 0.46495 0.0
C1183 C 0.10731 0.64779 0.47294 0.0
C1184 C 0.10914 0.66942 0.47115 0.0
C1185 C 0.09815 0.6445 0.48696 0.0
C1186 C 0.09993 0.66573 0.48517 0.0
N1187 N 0.09467 0.65346 0.49273 0.0
C1188 C 0.13518 0.64247 0.45813 0.0
C1189 C 0.12136 0.62729 0.4357 0.0
C1190 C 0.13708 0.63268 0.46617 0.0
N1191 N 0.12746 0.63961 0.44317 0.0
C1192 C 0.123 0.61721 0.44327 0.0
C1193 C 0.13089 0.61982 0.45876 0.0
H1194 H 0.13976 0.65234 0.46389 0.0
H1195 H 0.11517 0.62526 0.42393 0.0
C1196 C 0.08847 0.6671 0.4327 0.0
N1197 N 0.09215 0.65788 0.43602 0.0
C1198 C 0.07551 0.66421 0.43634 0.0
C1199 C 0.07046 0.64246 0.44683 0.0
C1200 C 0.08349 0.64575 0.44293 0.0
C1201 C 0.06629 0.65169 0.44333 0.0
H1202 H 0.0955 0.67657 0.42688 0.0
H1203 H 0.08668 0.63858 0.4452 0.0
O1204 O 0.14033 0.6676 0.41896 0.0
O1205 O 0.11973 0.6769 0.41483 0.0
O1206 O 0.10965 0.64681 0.41658 0.0
O1207 O 0.12165 0.66369 0.45101 0.0
H1208 H 0.1591 0.67935 0.44376 0.0
H1209 H 0.14265 0.64815 0.40401 0.0
H1210 H 0.17577 0.67276 0.4515 0.0
H1211 H 0.15961 0.64211 0.41247 0.0
H1212 H 0.12766 0.71755 0.43325 0.0
H1213 H 0.13427 0.69088 0.38692 0.0
H1214 H 0.11751 0.69322 0.43766 0.0
H1215 H 0.14408 0.71523 0.38339 0.0
H1216 H 0.14558 0.6637 0.34721 0.0
H1217 H 0.10937 0.66558 0.34375 0.0
H1218 H 0.1538 0.71141 0.4801 0.0
H1219 H 0.17242 0.72143 0.42746 0.0
H1220 H 0.08718 0.64423 0.40371 0.0
H1221 H 0.11812 0.6348 0.39428 0.0
H1222 H 0.0763 0.63253 0.37535 0.0
H1223 H 0.10668 0.62326 0.36608 0.0
H1224 H 0.10995 0.6406 0.46825 0.0
H1225 H 0.11319 0.67912 0.46501 0.0
H1226 H 0.09377 0.6348 0.49322 0.0
H1227 H 0.09692 0.67262 0.49001 0.0
H1228 H 0.14308 0.63508 0.47825 0.0
H1229 H 0.11816 0.60749 0.43699 0.0
H1230 H 0.07264 0.67152 0.43315 0.0
H1231 H 0.06371 0.63274 0.45237 0.0
Li1232 Li 0.46702 0.12588 0.93545 0.0
Li1233 Li 0.44316 0.11031 0.93319 0.0
Li1234 Li 0.45636 0.12516 0.90753 0.0
Li1235 Li 0.45097 0.13427 0.93367 0.0
C1236 C 0.46507 0.10431 0.92048 0.0
N1237 N 0.48036 0.09238 0.92463 0.0
C1238 C 0.46024 0.09259 0.93047 0.0
C1239 C 0.47761 0.10988 0.91242 0.0
C1240 C 0.46814 0.08673 0.93244 0.0
C1241 C 0.48521 0.10373 0.91475 0.0
C1242 C 0.44725 0.12104 0.96948 0.0
C1243 C 0.43029 0.11972 0.9896 0.0
N1244 N 0.436 0.11672 0.00347 0.0
C1245 C 0.45304 0.11812 0.98401 0.0
C1246 C 0.43586 0.12199 0.97236 0.0
C1247 C 0.44717 0.1159 0.00105 0.0
C1248 C 0.49471 0.13915 0.94244 0.0
N1249 N 0.48281 0.12828 0.94644 0.0
C1250 C 0.49332 0.11982 0.96572 0.0
C1251 C 0.48191 0.11874 0.95791 0.0
C1252 C 0.50578 0.13085 0.96169 0.0
C1253 C 0.5064 0.14063 0.94993 0.0
H1254 H 0.49512 0.14663 0.93338 0.0
H1255 H 0.47232 0.11016 0.96074 0.0
C1256 C 0.42006 0.08623 0.9265 0.0
N1257 N 0.42908 0.09328 0.93954 0.0
C1258 C 0.40951 0.07354 0.93018 0.0
C1259 C 0.41777 0.07559 0.96064 0.0
C1260 C 0.42818 0.08822 0.95635 0.0
C1261 C 0.4083 0.06804 0.94744 0.0
H1262 H 0.42115 0.09046 0.91318 0.0
H1263 H 0.43564 0.09388 0.96635 0.0
C1264 C 0.4752 0.15044 0.90865 0.0
N1265 N 0.48813 0.16864 0.88139 0.0
C1266 C 0.47212 0.16043 0.90519 0.0
C1267 C 0.48495 0.1498 0.89838 0.0
C1268 C 0.47876 0.16952 0.89132 0.0
C1269 C 0.49134 0.15906 0.88461 0.0
C1270 C 0.42608 0.11917 0.91442 0.0
C1271 C 0.42263 0.12306 0.8984 0.0
C1272 C 0.41662 0.11336 0.92813 0.0
C1273 C 0.40991 0.12138 0.89657 0.0
C1274 C 0.404 0.11183 0.92579 0.0
N1275 N 0.40094 0.11586 0.9102 0.0
C1276 C 0.46204 0.11887 0.87298 0.0
C1277 C 0.45574 0.13537 0.87336 0.0
C1278 C 0.46358 0.11996 0.85427 0.0
N1279 N 0.45821 0.12655 0.88207 0.0
C1280 C 0.45713 0.13678 0.85468 0.0
C1281 C 0.46109 0.129 0.84488 0.0
H1282 H 0.46389 0.11189 0.88024 0.0
H1283 H 0.4527 0.14135 0.88094 0.0
C1284 C 0.45293 0.15331 0.95801 0.0
N1285 N 0.44715 0.1473 0.9422 0.0
C1286 C 0.45025 0.16271 0.96556 0.0
C1287 C 0.43604 0.15984 0.94009 0.0
C1288 C 0.43899 0.15049 0.93305 0.0
C1289 C 0.44164 0.16601 0.95662 0.0
H1290 H 0.45955 0.15072 0.96481 0.0
H1291 H 0.43479 0.14582 0.92028 0.0
O1292 O 0.45758 0.11032 0.91864 0.0
O1293 O 0.45292 0.12325 0.9527 0.0
O1294 O 0.46866 0.14134 0.92199 0.0
O1295 O 0.43851 0.12072 0.91636 0.0
H1296 H 0.45055 0.08813 0.93675 0.0
H1297 H 0.4815 0.11895 0.90466 0.0
H1298 H 0.46456 0.07769 0.94022 0.0
H1299 H 0.49498 0.10799 0.90872 0.0
H1300 H 0.42148 0.12042 0.99198 0.0
H1301 H 0.46196 0.11755 0.98217 0.0
H1302 H 0.43147 0.12468 0.96152 0.0
H1303 H 0.45151 0.11355 0.01236 0.0
H1304 H 0.49241 0.11197 0.97451 0.0
H1305 H 0.5158 0.14935 0.94663 0.0
H1306 H 0.40261 0.06797 0.91947 0.0
H1307 H 0.4172 0.07174 0.97412 0.0
H1308 H 0.46463 0.1611 0.91304 0.0
H1309 H 0.48744 0.14213 0.90087 0.0
H1310 H 0.47643 0.17726 0.88843 0.0
H1311 H 0.49883 0.15861 0.87646 0.0
H1312 H 0.42969 0.12737 0.8875 0.0
H1313 H 0.41888 0.10984 0.94035 0.0
H1314 H 0.40715 0.12444 0.8843 0.0
H1315 H 0.39662 0.10736 0.93633 0.0
H1316 H 0.46677 0.11385 0.84727 0.0
H1317 H 0.45492 0.14373 0.84799 0.0
H1318 H 0.45502 0.16745 0.97812 0.0
H1319 H 0.42935 0.16212 0.93278 0.0
Li1320 Li 0.34066 0.46797 0.43393 0.0
Li1321 Li 0.33172 0.44388 0.43317 0.0
Li1322 Li 0.32852 0.45547 0.4068 0.0
Li1323 Li 0.31621 0.45161 0.43484 0.0
C1324 C 0.35743 0.46402 0.40881 0.0
N1325 N 0.38193 0.47692 0.39194 0.0
C1326 C 0.36711 0.46062 0.4129 0.0
C1327 C 0.36016 0.47383 0.3959 0.0
C1328 C 0.37945 0.4673 0.4043 0.0
C1329 C 0.37261 0.48027 0.38757 0.0
C1330 C 0.33321 0.45 0.46784 0.0
C1331 C 0.32771 0.43268 0.4898 0.0
N1332 N 0.33977 0.44025 0.49774 0.0
C1333 C 0.34551 0.45765 0.47629 0.0
C1334 C 0.32419 0.43745 0.47472 0.0
C1335 C 0.34865 0.45253 0.49137 0.0
C1336 C 0.35112 0.49343 0.44909 0.0
N1337 N 0.35444 0.48449 0.44277 0.0
C1338 C 0.37733 0.49923 0.44949 0.0
C1339 C 0.36722 0.48708 0.44304 0.0
C1340 C 0.37423 0.50872 0.45595 0.0
C1341 C 0.36092 0.50569 0.45579 0.0
H1342 H 0.34084 0.49102 0.44889 0.0
H1343 H 0.36956 0.47966 0.43853 0.0
C1344 C 0.32616 0.41737 0.43701 0.0
N1345 N 0.33525 0.43031 0.44032 0.0
C1346 C 0.32854 0.40729 0.4427 0.0
C1347 C 0.3496 0.42409 0.45501 0.0
C1348 C 0.34683 0.43381 0.44903 0.0
C1349 C 0.34039 0.41062 0.45185 0.0
H1350 H 0.31708 0.41487 0.42993 0.0
H1351 H 0.35389 0.44419 0.4514 0.0
C1352 C 0.32645 0.47899 0.41205 0.0
N1353 N 0.32763 0.5004 0.39406 0.0
C1354 C 0.31485 0.47951 0.40892 0.0
C1355 C 0.33868 0.4895 0.40633 0.0
C1356 C 0.31564 0.49038 0.39971 0.0
C1357 C 0.33906 0.5002 0.39718 0.0
C1358 C 0.30252 0.42934 0.41611 0.0
C1359 C 0.29587 0.42913 0.40029 0.0
C1360 C 0.29547 0.42062 0.43018 0.0
C1361 C 0.28221 0.4203 0.39891 0.0
C1362 C 0.28182 0.41197 0.42829 0.0
N1363 N 0.27553 0.41199 0.41283 0.0
C1364 C 0.33439 0.45081 0.37198 0.0
C1365 C 0.32104 0.46094 0.37262 0.0
C1366 C 0.3345 0.45097 0.35317 0.0
N1367 N 0.32787 0.45591 0.38127 0.0
C1368 C 0.3209 0.46132 0.35381 0.0
C1369 C 0.32774 0.45634 0.34385 0.0
H1370 H 0.33958 0.44669 0.37923 0.0
H1371 H 0.31558 0.46453 0.38027 0.0
C1372 C 0.29804 0.44641 0.46285 0.0
N1373 N 0.29974 0.44803 0.44472 0.0
C1374 C 0.28584 0.44309 0.47059 0.0
C1375 C 0.27741 0.44335 0.44084 0.0
C1376 C 0.2898 0.4467 0.43369 0.0
C1377 C 0.27532 0.44148 0.45953 0.0
H1378 H 0.30614 0.44762 0.47131 0.0
H1379 H 0.29145 0.44809 0.41932 0.0
O1380 O 0.3453 0.45756 0.41717 0.0
O1381 O 0.33004 0.45476 0.45291 0.0
O1382 O 0.32582 0.46842 0.42113 0.0
O1383 O 0.31586 0.43803 0.41779 0.0
H1384 H 0.36514 0.45294 0.42267 0.0
H1385 H 0.3527 0.47631 0.39211 0.0
H1386 H 0.38705 0.46483 0.40744 0.0
H1387 H 0.37484 0.48788 0.37757 0.0
H1388 H 0.32087 0.42294 0.49516 0.0
H1389 H 0.35258 0.46739 0.47122 0.0
H1390 H 0.31463 0.4314 0.46835 0.0
H1391 H 0.35815 0.45832 0.49799 0.0
H1392 H 0.38744 0.50107 0.44976 0.0
H1393 H 0.35814 0.51276 0.46064 0.0
H1394 H 0.32118 0.39703 0.44003 0.0
H1395 H 0.35897 0.4271 0.4617 0.0
H1396 H 0.30532 0.47158 0.41346 0.0
H1397 H 0.34781 0.48953 0.40911 0.0
H1398 H 0.30673 0.49084 0.39708 0.0
H1399 H 0.34846 0.50838 0.39265 0.0
H1400 H 0.30118 0.43576 0.38925 0.0
H1401 H 0.30045 0.42066 0.44252 0.0
H1402 H 0.27693 0.42008 0.38678 0.0
H1403 H 0.27622 0.40525 0.43913 0.0
H1404 H 0.33998 0.4471 0.34602 0.0
H1405 H 0.31534 0.4653 0.34715 0.0
H1406 H 0.2846 0.44165 0.48504 0.0
H1407 H 0.26961 0.44239 0.43188 0.0
Li1408 Li 0.8712 0.34193 0.93443 0.0
Li1409 Li 0.88648 0.33213 0.93003 0.0
Li1410 Li 0.87147 0.33142 0.90628 0.0
Li1411 Li 0.86269 0.3183 0.93234 0.0
C1412 C 0.89094 0.35573 0.90308 0.0
N1413 N 0.89902 0.37145 0.87255 0.0
C1414 C 0.90111 0.35637 0.89232 0.0
C1415 C 0.88491 0.36313 0.89839 0.0
C1416 C 0.90504 0.36436 0.87691 0.0
C1417 C 0.88914 0.37102 0.88288 0.0
C1418 C 0.86983 0.32326 0.96611 0.0
C1419 C 0.86765 0.30606 0.9864 0.0
N1420 N 0.85836 0.30734 0.99596 0.0
C1421 C 0.86034 0.32449 0.9762 0.0
C1422 C 0.87359 0.31405 0.97129 0.0
C1423 C 0.85463 0.31632 0.99123 0.0
C1424 C 0.85776 0.35343 0.95158 0.0
N1425 N 0.86974 0.35578 0.94532 0.0
C1426 C 0.88008 0.37846 0.95459 0.0
C1427 C 0.88081 0.36795 0.94666 0.0
C1428 C 0.86786 0.37633 0.96132 0.0
C1429 C 0.8566 0.36362 0.95979 0.0
H1430 H 0.84913 0.34362 0.95022 0.0
H1431 H 0.89019 0.36948 0.94156 0.0
C1432 C 0.91042 0.33302 0.92181 0.0
N1433 N 0.90326 0.33428 0.93536 0.0
C1434 C 0.9229 0.33457 0.92534 0.0
C1435 C 0.92026 0.33847 0.95673 0.0
C1436 C 0.90784 0.33689 0.95258 0.0
C1437 C 0.92801 0.33742 0.94298 0.0
H1438 H 0.90642 0.33084 0.90827 0.0
H1439 H 0.90186 0.33779 0.96306 0.0
C1440 C 0.8444 0.32162 0.91079 0.0
N1441 N 0.82122 0.30676 0.89147 0.0
C1442 C 0.84181 0.30971 0.90265 0.0
C1443 C 0.8352 0.32597 0.90915 0.0
C1444 C 0.83004 0.30234 0.89294 0.0
C1445 C 0.82354 0.31832 0.89931 0.0
C1446 C 0.87485 0.30575 0.9115 0.0
C1447 C 0.86814 0.29776 0.89667 0.0
C1448 C 0.88202 0.30204 0.92294 0.0
C1449 C 0.8685 0.28606 0.89373 0.0
C1450 C 0.88214 0.29028 0.91954 0.0
N1451 N 0.87542 0.28259 0.90514 0.0
C1452 C 0.87714 0.32801 0.87076 0.0
C1453 C 0.8628 0.33697 0.87318 0.0
C1454 C 0.87662 0.32828 0.85199 0.0
N1455 N 0.87021 0.33222 0.88088 0.0
C1456 C 0.86202 0.33745 0.85443 0.0
C1457 C 0.86893 0.33299 0.8436 0.0
H1458 H 0.88314 0.32451 0.8773 0.0
H1459 H 0.85754 0.34042 0.8816 0.0
C1460 C 0.83775 0.30211 0.94784 0.0
N1461 N 0.84877 0.30198 0.94198 0.0
C1462 C 0.82727 0.29079 0.95563 0.0
C1463 C 0.8397 0.27942 0.95137 0.0
C1464 C 0.84994 0.29096 0.94371 0.0
C1465 C 0.82818 0.27924 0.95746 0.0
H1466 H 0.83719 0.3111 0.94674 0.0
H1467 H 0.85885 0.29111 0.93948 0.0
O1468 O 0.88663 0.34762 0.91787 0.0
O1469 O 0.87522 0.33087 0.95103 0.0
O1470 O 0.85589 0.32907 0.92029 0.0
O1471 O 0.87487 0.31742 0.91431 0.0
H1472 H 0.90583 0.35065 0.89573 0.0
H1473 H 0.87692 0.36263 0.90648 0.0
H1474 H 0.91286 0.3649 0.86839 0.0
H1475 H 0.88451 0.37674 0.87902 0.0
H1476 H 0.87039 0.29881 0.99049 0.0
H1477 H 0.8573 0.33155 0.97235 0.0
H1478 H 0.88091 0.31296 0.96361 0.0
H1479 H 0.84719 0.31708 -0.0009 0.0
H1480 H 0.88901 0.38809 0.95569 0.0
H1481 H 0.847 0.36163 0.96469 0.0
H1482 H 0.92862 0.33389 0.91427 0.0
H1483 H 0.92376 0.34053 0.97054 0.0
H1484 H 0.84876 0.30617 0.90391 0.0
H1485 H 0.83708 0.33518 0.91538 0.0
H1486 H 0.8279 0.2931 0.88658 0.0
H1487 H 0.81634 0.32157 0.8979 0.0
H1488 H 0.86276 0.30057 0.88743 0.0
H1489 H 0.88726 0.30805 0.93449 0.0
H1490 H 0.86331 0.27977 0.88234 0.0
H1491 H 0.88756 0.28725 0.92837 0.0
H1492 H 0.8823 0.32499 0.84414 0.0
H1493 H 0.85593 0.3411 0.84849 0.0
H1494 H 0.81867 0.29117 0.96047 0.0
H1495 H 0.84078 0.27071 0.95243 0.0
Li1496 Li 0.54937 0.88432 0.43025 0.0
Li1497 Li 0.52544 0.87001 0.43418 0.0
Li1498 Li 0.54051 0.86119 0.43601 0.0
Li1499 Li 0.53576 0.86811 0.40735 0.0
C1500 C 0.54046 0.87011 0.46864 0.0
N1501 N 0.54158 0.86005 0.50197 0.0
C1502 C 0.52898 0.86331 0.47912 0.0
C1503 C 0.55253 0.87187 0.47516 0.0
C1504 C 0.52975 0.85829 0.49593 0.0
C1505 C 0.55288 0.86668 0.49202 0.0
C1506 C 0.52819 0.89056 0.41602 0.0
C1507 C 0.50845 0.89183 0.40999 0.0
N1508 N 0.51393 0.90369 0.41879 0.0
C1509 C 0.53365 0.90277 0.42496 0.0
C1510 C 0.51551 0.88506 0.4084 0.0
C1511 C 0.52628 0.90925 0.42621 0.0
C1512 C 0.5695 0.90967 0.41962 0.0
N1513 N 0.56399 0.90157 0.4341 0.0
C1514 C 0.57949 0.91828 0.45401 0.0
C1515 C 0.56868 0.9056 0.45108 0.0
C1516 C 0.58549 0.92682 0.43928 0.0
C1517 C 0.5804 0.92238 0.4219 0.0
H1518 H 0.56537 0.90625 0.40632 0.0
H1519 H 0.56397 0.89902 0.46237 0.0
C1520 C 0.49781 0.85876 0.44033 0.0
N1521 N 0.51003 0.86917 0.44423 0.0
C1522 C 0.48645 0.85831 0.44736 0.0
C1523 C 0.50053 0.87921 0.46248 0.0
C1524 C 0.5116 0.87921 0.45523 0.0
C1525 C 0.48774 0.86868 0.4585 0.0
H1526 H 0.49687 0.85085 0.4317 0.0
H1527 H 0.52149 0.88725 0.45829 0.0
C1528 C 0.56603 0.87971 0.41202 0.0
N1529 N 0.59212 0.89687 0.4023 0.0
C1530 C 0.56912 0.88452 0.39436 0.0
C1531 C 0.57621 0.88359 0.42471 0.0
C1532 C 0.58238 0.89318 0.38971 0.0
C1533 C 0.58933 0.89229 0.41954 0.0
C1534 C 0.51691 0.84352 0.41131 0.0
C1535 C 0.52057 0.83379 0.40966 0.0
C1536 C 0.50719 0.84322 0.39989 0.0
C1537 C 0.51447 0.82394 0.3965 0.0
C1538 C 0.50135 0.83322 0.38688 0.0
N1539 N 0.50508 0.82387 0.38547 0.0
C1540 C 0.53414 0.83949 0.45867 0.0
C1541 C 0.55529 0.84873 0.44471 0.0
C1542 C 0.53636 0.83039 0.46803 0.0
N1543 N 0.54364 0.84853 0.44753 0.0
C1544 C 0.55789 0.83973 0.45367 0.0
C1545 C 0.54839 0.83045 0.46561 0.0
H1546 H 0.52489 0.83949 0.46044 0.0
H1547 H 0.56254 0.85585 0.43548 0.0
C1548 C 0.5288 0.87047 0.37155 0.0
N1549 N 0.53387 0.86459 0.38224 0.0
C1550 C 0.5277 0.8682 0.353 0.0
C1551 C 0.5371 0.8539 0.35682 0.0
C1552 C 0.53799 0.85642 0.37532 0.0
C1553 C 0.53196 0.85988 0.3454 0.0
H1554 H 0.5258 0.87707 0.3774 0.0
H1555 H 0.54209 0.85198 0.38418 0.0
O1556 O 0.53987 0.87491 0.45202 0.0
O1557 O 0.53513 0.88393 0.41496 0.0
O1558 O 0.55309 0.87139 0.41692 0.0
O1559 O 0.52296 0.85341 0.42385 0.0
H1560 H 0.51954 0.86178 0.47427 0.0
H1561 H 0.56149 0.877 0.46717 0.0
H1562 H 0.52093 0.85296 0.50415 0.0
H1563 H 0.56213 0.86787 0.49716 0.0
H1564 H 0.49858 0.88764 0.40431 0.0
H1565 H 0.54341 0.90715 0.43101 0.0
H1566 H 0.51106 0.87554 0.40164 0.0
H1567 H 0.53036 0.91868 0.43316 0.0
H1568 H 0.58313 0.92138 0.46761 0.0
H1569 H 0.58459 0.92877 0.41025 0.0
H1570 H 0.47676 0.85006 0.44389 0.0
H1571 H 0.50196 0.88728 0.47123 0.0
H1572 H 0.56138 0.88173 0.38439 0.0
H1573 H 0.57399 0.88008 0.43849 0.0
H1574 H 0.58491 0.89703 0.37612 0.0
H1575 H 0.5973 0.89545 0.42926 0.0
H1576 H 0.52812 0.83391 0.41831 0.0
H1577 H 0.50435 0.85076 0.40085 0.0
H1578 H 0.51724 0.81638 0.39501 0.0
H1579 H 0.49389 0.83293 0.37786 0.0
H1580 H 0.5288 0.82349 0.47721 0.0
H1581 H 0.56717 0.83995 0.4511 0.0
H1582 H 0.52389 0.87319 0.34463 0.0
H1583 H 0.54042 0.84736 0.35152 0.0
Li1584 Li 0.44553 0.33384 0.0661 0.0
Li1585 Li 0.4693 0.34157 0.06592 0.0
Li1586 Li 0.45283 0.31802 0.06424 0.0
Li1587 Li 0.4564 0.33043 0.092 0.0
C1588 C 0.45204 0.33585 0.03188 0.0
N1589 N 0.44309 0.34424 0.00295 0.0
C1590 C 0.46001 0.34853 0.0246 0.0
C1591 C 0.43954 0.32741 0.02437 0.0
C1592 C 0.45531 0.35258 0.00998 0.0
C1593 C 0.43518 0.33185 0.00979 0.0
C1594 C 0.45941 0.35399 0.0967 0.0
C1595 C 0.46975 0.36579 0.12416 0.0
N1596 N 0.45843 0.36593 0.12846 0.0
C1597 C 0.44789 0.35428 0.10136 0.0
C1598 C 0.47045 0.35984 0.10814 0.0
C1599 C 0.4476 0.36036 0.11748 0.0
C1600 C 0.41948 0.32912 0.05921 0.0
N1601 N 0.43266 0.33821 0.05848 0.0
C1602 C 0.42821 0.35433 0.04538 0.0
C1603 C 0.43715 0.35065 0.05194 0.0
C1604 C 0.41453 0.34514 0.0458 0.0
C1605 C 0.41016 0.33241 0.05291 0.0
H1606 H 0.4162 0.31935 0.06468 0.0
H1607 H 0.4477 0.3577 0.05176 0.0
C1608 C 0.49185 0.35207 0.04344 0.0
N1609 N 0.48596 0.35503 0.0571 0.0
C1610 C 0.50391 0.36189 0.03629 0.0
C1611 C 0.50349 0.37763 0.05726 0.0
C1612 C 0.49148 0.36749 0.06405 0.0
C1613 C 0.50985 0.3749 0.04313 0.0
H1614 H 0.48711 0.3421 0.03801 0.0
H1615 H 0.48643 0.36961 0.07465 0.0
C1616 C 0.43071 0.30442 0.08232 0.0
N1617 N 0.4143 0.27721 0.08491 0.0
C1618 C 0.43117 0.29763 0.09763 0.0
C1619 C 0.42187 0.29737 0.06837 0.0
C1620 C 0.42279 0.28387 0.09868 0.0
C1621 C 0.41368 0.28362 0.06991 0.0
C1622 C 0.48175 0.32936 0.077 0.0
C1623 C 0.48457 0.3221 0.0645 0.0
C1624 C 0.49213 0.33977 0.08651 0.0
C1625 C 0.49776 0.32542 0.06166 0.0
C1626 C 0.5052 0.34279 0.08325 0.0
N1627 N 0.50772 0.33561 0.071 0.0
C1628 C 0.44596 0.29902 0.03675 0.0
C1629 C 0.44959 0.29236 0.06543 0.0
C1630 C 0.44302 0.28685 0.0293 0.0
N1631 N 0.44908 0.30148 0.05451 0.0
C1632 C 0.44673 0.28004 0.05855 0.0
C1633 C 0.44341 0.27718 0.04024 0.0
H1634 H 0.44589 0.30656 0.02832 0.0
H1635 H 0.45224 0.29469 0.07949 0.0
C1636 C 0.44557 0.32812 0.1266 0.0
N1637 N 0.45631 0.32941 0.11752 0.0
C1638 C 0.44522 0.32753 0.1454 0.0
C1639 C 0.46692 0.32943 0.14509 0.0
C1640 C 0.46684 0.32997 0.1263 0.0
C1641 C 0.45601 0.32822 0.15489 0.0
H1642 H 0.43728 0.32755 0.11919 0.0
H1643 H 0.47518 0.33087 0.11872 0.0
O1644 O 0.45636 0.33178 0.04642 0.0
O1645 O 0.45979 0.34781 0.0812 0.0
O1646 O 0.439 0.31786 0.0809 0.0
O1647 O 0.46891 0.32639 0.07978 0.0
H1648 H 0.46967 0.35524 0.03028 0.0
H1649 H 0.43314 0.31764 0.02997 0.0
H1650 H 0.46136 0.36239 0.00427 0.0
H1651 H 0.42548 0.32547 0.00396 0.0
H1652 H 0.47818 0.37026 0.13321 0.0
H1653 H 0.43922 0.34973 0.09274 0.0
H1654 H 0.47939 0.35958 0.10484 0.0
H1655 H 0.43874 0.3606 0.1213 0.0
H1656 H 0.43196 0.36433 0.04036 0.0
H1657 H 0.39968 0.32506 0.05348 0.0
H1658 H 0.5085 0.35932 0.0255 0.0
H1659 H 0.50756 0.38756 0.0627 0.0
H1660 H 0.43802 0.30288 0.10849 0.0
H1661 H 0.4215 0.30243 0.05632 0.0
H1662 H 0.42308 0.27848 0.1104 0.0
H1663 H 0.40686 0.27803 0.05915 0.0
H1664 H 0.47668 0.31407 0.05693 0.0
H1665 H 0.49015 0.34561 0.09605 0.0
H1666 H 0.5001 0.31991 0.05198 0.0
H1667 H 0.51333 0.35089 0.0904 0.0
H1668 H 0.44079 0.28515 0.01504 0.0
H1669 H 0.44709 0.27283 0.06744 0.0
H1670 H 0.43652 0.32639 0.15239 0.0
H1671 H 0.47551 0.33013 0.15186 0.0
Li1672 Li 0.1351 0.45282 0.56354 0.0
Li1673 Li 0.12827 0.4588 0.59126 0.0
Li1674 Li 0.11235 0.44649 0.56743 0.0
Li1675 Li 0.12889 0.46993 0.56382 0.0
C1676 C 0.1136 0.42828 0.58687 0.0
N1677 N 0.09376 0.40303 0.59628 0.0
C1678 C 0.10844 0.42569 0.60438 0.0
C1679 C 0.1087 0.41801 0.57417 0.0
C1680 C 0.09842 0.41286 0.60887 0.0
C1681 C 0.09865 0.40532 0.57918 0.0
C1682 C 0.15361 0.47581 0.5889 0.0
C1683 C 0.16409 0.49132 0.61335 0.0
N1684 N 0.17229 0.48629 0.61617 0.0
C1685 C 0.16215 0.4708 0.59203 0.0
C1686 C 0.15459 0.48617 0.59961 0.0
C1687 C 0.17154 0.47625 0.60587 0.0
C1688 C 0.15813 0.45783 0.54527 0.0
N1689 N 0.14703 0.44807 0.55332 0.0
C1690 C 0.15324 0.43191 0.54603 0.0
C1691 C 0.14446 0.43531 0.55395 0.0
C1692 C 0.1648 0.4418 0.53763 0.0
C1693 C 0.16721 0.4549 0.53728 0.0
H1694 H 0.15989 0.4679 0.54504 0.0
H1695 H 0.13563 0.4278 0.56064 0.0
C1696 C 0.12565 0.46666 0.62638 0.0
N1697 N 0.1309 0.46052 0.61656 0.0
C1698 C 0.12744 0.46789 0.64502 0.0
C1699 C 0.13991 0.45637 0.64308 0.0
C1700 C 0.13789 0.45538 0.62446 0.0
C1701 C 0.13462 0.46267 0.65361 0.0
H1702 H 0.11995 0.47046 0.61977 0.0
H1703 H 0.14183 0.45044 0.61628 0.0
C1704 C 0.12857 0.45414 0.53034 0.0
N1705 N 0.14005 0.45192 0.49886 0.0
C1706 C 0.13765 0.46554 0.52097 0.0
C1707 C 0.12528 0.4416 0.52366 0.0
C1708 C 0.14335 0.46421 0.50507 0.0
C1709 C 0.13122 0.4407 0.50774 0.0
C1710 C 0.10884 0.46978 0.58015 0.0
C1711 C 0.09718 0.46561 0.57023 0.0
C1712 C 0.11529 0.48248 0.58781 0.0
C1713 C 0.0922 0.47426 0.56806 0.0
C1714 C 0.11001 0.49084 0.58529 0.0
N1715 N 0.09868 0.4866 0.57556 0.0
C1716 C 0.08587 0.42889 0.57674 0.0
C1717 C 0.09056 0.42902 0.54559 0.0
C1718 C 0.07261 0.41933 0.57391 0.0
N1719 N 0.09452 0.43344 0.56268 0.0
C1720 C 0.07735 0.41953 0.5421 0.0
C1721 C 0.06816 0.4146 0.55637 0.0
H1722 H 0.0893 0.43273 0.59016 0.0
H1723 H 0.09761 0.43302 0.53462 0.0
C1724 C 0.14265 0.49785 0.55758 0.0
N1725 N 0.13189 0.48601 0.5531 0.0
C1726 C 0.14438 0.50962 0.55002 0.0
C1727 C 0.12406 0.49671 0.53312 0.0
C1728 C 0.12276 0.48521 0.54096 0.0
C1729 C 0.13495 0.50914 0.5377 0.0
H1730 H 0.14987 0.49816 0.56704 0.0
H1731 H 0.11435 0.47562 0.53757 0.0
O1732 O 0.1233 0.44082 0.58214 0.0
O1733 O 0.14417 0.47043 0.57565 0.0
O1734 O 0.12313 0.45523 0.54616 0.0
O1735 O 0.11403 0.46156 0.58211 0.0
H1736 H 0.11202 0.43351 0.61437 0.0
H1737 H 0.11241 0.41986 0.56048 0.0
H1738 H 0.0943 0.41073 0.62235 0.0
H1739 H 0.09469 0.39732 0.56944 0.0
H1740 H 0.16489 0.49927 0.62182 0.0
H1741 H 0.16145 0.4627 0.58401 0.0
H1742 H 0.14794 0.49004 0.59755 0.0
H1743 H 0.17818 0.47244 0.60849 0.0
H1744 H 0.15113 0.42172 0.54674 0.0
H1745 H 0.17597 0.46278 0.53078 0.0
H1746 H 0.12299 0.47261 0.65268 0.0
H1747 H 0.14557 0.45228 0.64915 0.0
H1748 H 0.1404 0.47532 0.526 0.0
H1749 H 0.11839 0.43267 0.53085 0.0
H1750 H 0.15044 0.47295 0.49772 0.0
H1751 H 0.12885 0.43107 0.5025 0.0
H1752 H 0.09209 0.45586 0.5641 0.0
H1753 H 0.12442 0.48594 0.59533 0.0
H1754 H 0.08322 0.47119 0.56036 0.0
H1755 H 0.11497 0.50074 0.59101 0.0
H1756 H 0.06591 0.41571 0.58534 0.0
H1757 H 0.0743 0.41635 0.52833 0.0
H1758 H 0.15302 0.51897 0.55371 0.0
H1759 H 0.11647 0.49587 0.52387 0.0
Li1760 Li 0.67694 0.13338 0.0628 0.0
Li1761 Li 0.664 0.12469 0.09043 0.0
Li1762 Li 0.66228 0.10924 0.06544 0.0
Li1763 Li 0.65218 0.12328 0.06312 0.0
C1764 C 0.69021 0.12256 0.08241 0.0
N1765 N 0.71517 0.12535 0.08602 0.0
C1766 C 0.69807 0.12906 0.09743 0.0
C1767 C 0.69495 0.11723 0.06943 0.0
C1768 C 0.71068 0.13045 0.09896 0.0
C1769 C 0.70761 0.11881 0.07144 0.0
C1770 C 0.6679 0.14936 0.08731 0.0
C1771 C 0.65966 0.15787 0.11059 0.0
N1772 N 0.67196 0.16877 0.11217 0.0
C1773 C 0.68043 0.1607 0.08904 0.0
C1774 C 0.65739 0.14799 0.09804 0.0
C1775 C 0.68229 0.17038 0.10173 0.0
C1776 C 0.69251 0.15028 0.03513 0.0
N1777 N 0.69292 0.14692 0.05257 0.0
C1778 C 0.71591 0.1633 0.05471 0.0
C1779 C 0.70425 0.15327 0.06248 0.0
C1780 C 0.71584 0.16685 0.03661 0.0
C1781 C 0.70393 0.16018 0.02679 0.0
H1782 H 0.68328 0.14528 0.02769 0.0
H1783 H 0.70419 0.15079 0.07651 0.0
C1784 C 0.65419 0.11709 0.12563 0.0
N1785 N 0.66436 0.1267 0.11587 0.0
C1786 C 0.65413 0.118 0.14439 0.0
C1787 C 0.67498 0.13873 0.1427 0.0
C1788 C 0.67468 0.13736 0.12399 0.0
C1789 C 0.66464 0.12892 0.15314 0.0
H1790 H 0.64618 0.10864 0.11886 0.0
H1791 H 0.68274 0.14476 0.11594 0.0
C1792 C 0.66548 0.11672 0.02882 0.0
N1793 N 0.66938 0.10813 0.9958 0.0
C1794 C 0.65532 0.11157 0.01594 0.0
C1795 C 0.67769 0.11773 0.02475 0.0
C1796 C 0.65746 0.10721 -0.00062 0.0
C1797 C 0.67945 0.11328 0.00803 0.0
C1798 C 0.6344 0.10194 0.08105 0.0
C1799 C 0.62735 0.08978 0.07209 0.0
C1800 C 0.62749 0.10712 0.09023 0.0
C1801 C 0.61347 0.0831 0.07218 0.0
C1802 C 0.61361 0.10015 0.08999 0.0
N1803 N 0.60694 0.08839 0.08103 0.0
C1804 C 0.66585 0.08748 0.07186 0.0
C1805 C 0.65341 0.08538 0.04549 0.0
C1806 C 0.66437 0.07494 0.06901 0.0
N1807 N 0.66043 0.09243 0.06014 0.0
C1808 C 0.65166 0.07279 0.04212 0.0
C1809 C 0.65708 0.06737 0.05406 0.0
H1810 H 0.67118 0.0932 0.08358 0.0
H1811 H 0.6488 0.08933 0.03673 0.0
C1812 C 0.63732 0.1358 0.05544 0.0
N1813 N 0.63777 0.12443 0.05305 0.0
C1814 C 0.62695 0.13704 0.04807 0.0
C1815 C 0.61773 0.11488 0.03579 0.0
C1816 C 0.62829 0.11407 0.0434 0.0
C1817 C 0.61698 0.12649 0.03806 0.0
H1818 H 0.64507 0.14394 0.06298 0.0
H1819 H 0.62897 0.10521 0.04153 0.0
O1820 O 0.6778 0.12111 0.08074 0.0
O1821 O 0.66592 0.13972 0.07506 0.0
O1822 O 0.66351 0.12098 0.04516 0.0
O1823 O 0.64801 0.10872 0.08091 0.0
H1824 H 0.69452 0.13308 0.10775 0.0
H1825 H 0.68887 0.11176 0.05806 0.0
H1826 H 0.71691 0.13556 0.11044 0.0
H1827 H 0.71141 0.11476 0.06146 0.0
H1828 H 0.65163 0.15688 0.11907 0.0
H1829 H 0.68864 0.16201 0.08073 0.0
H1830 H 0.64761 0.13935 0.09677 0.0
H1831 H 0.69196 0.17918 0.10327 0.0
H1832 H 0.72478 0.16841 0.06291 0.0
H1833 H 0.70344 0.16253 0.01277 0.0
H1834 H 0.64593 0.11027 0.15195 0.0
H1835 H 0.68335 0.14721 0.14896 0.0
H1836 H 0.64587 0.11087 0.01872 0.0
H1837 H 0.6858 0.12209 0.03426 0.0
H1838 H 0.64965 0.10311 0.98935 0.0
H1839 H 0.68886 0.11398 0.00474 0.0
H1840 H 0.63252 0.08557 0.06504 0.0
H1841 H 0.63278 0.11644 0.09741 0.0
H1842 H 0.60788 0.07371 0.0652 0.0
H1843 H 0.60813 0.1041 0.09693 0.0
H1844 H 0.66875 0.07116 0.07851 0.0
H1845 H 0.64568 0.06717 0.0307 0.0
H1846 H 0.6267 0.14612 0.0503 0.0
H1847 H 0.61037 0.10658 0.02795 0.0
Li1848 Li 0.53606 0.66583 0.5916 0.0
Li1849 Li 0.54076 0.67866 0.56401 0.0
Li1850 Li 0.52463 0.65428 0.56356 0.0
Li1851 Li 0.54872 0.66331 0.56578 0.0
C1852 C 0.51231 0.66664 0.58576 0.0
N1853 N 0.48981 0.66255 0.60398 0.0
C1854 C 0.51034 0.67733 0.58942 0.0
C1855 C 0.50272 0.65384 0.5911 0.0
C1856 C 0.49894 0.67507 0.59873 0.0
C1857 C 0.49144 0.65198 0.60036 0.0
C1858 C 0.56245 0.69213 0.5834 0.0
C1859 C 0.58041 0.71267 0.57172 0.0
N1860 N 0.57956 0.71919 0.58646 0.0
C1861 C 0.56183 0.69901 0.5985 0.0
C1862 C 0.57189 0.69899 0.56997 0.0
C1863 C 0.57055 0.71269 0.59977 0.0
C1864 C 0.53898 0.65893 0.62679 0.0
N1865 N 0.53483 0.6661 0.61707 0.0
C1866 C 0.52972 0.67389 0.64403 0.0
C1867 C 0.53038 0.6736 0.62525 0.0
C1868 C 0.53376 0.66643 0.65446 0.0
C1869 C 0.53843 0.65887 0.64559 0.0
H1870 H 0.54272 0.65326 0.61992 0.0
H1871 H 0.52759 0.67958 0.61724 0.0
C1872 C 0.54832 0.69849 0.53746 0.0
N1873 N 0.54458 0.6954 0.55495 0.0
C1874 C 0.55172 0.711 0.53075 0.0
C1875 C 0.54716 0.71683 0.56016 0.0
C1876 C 0.54391 0.70422 0.56631 0.0
C1877 C 0.55113 0.72035 0.54215 0.0
H1878 H 0.54871 0.69126 0.52872 0.0
H1879 H 0.54096 0.70148 0.58018 0.0
C1880 C 0.52853 0.63674 0.5876 0.0
N1881 N 0.51661 0.61116 0.60121 0.0
C1882 C 0.53252 0.62785 0.5816 0.0
C1883 C 0.51864 0.63266 0.60079 0.0
C1884 C 0.52632 0.61495 0.58856 0.0
C1885 C 0.5127 0.61969 0.60743 0.0
C1886 C 0.54349 0.66274 0.53041 0.0
C1887 C 0.53573 0.65106 0.52065 0.0
C1888 C 0.55638 0.6717 0.52456 0.0
C1889 C 0.54106 0.64845 0.50533 0.0
C1890 C 0.56136 0.66873 0.50919 0.0
N1891 N 0.55366 0.65726 0.49998 0.0
C1892 C 0.49934 0.6436 0.54755 0.0
C1893 C 0.50659 0.62802 0.55202 0.0
C1894 C 0.48746 0.63379 0.53992 0.0
N1895 N 0.50855 0.64053 0.55353 0.0
C1896 C 0.49484 0.6179 0.54461 0.0
C1897 C 0.48509 0.62073 0.53847 0.0
H1898 H 0.50124 0.65369 0.54871 0.0
H1899 H 0.51423 0.62593 0.55623 0.0
C1900 C 0.5751 0.66845 0.56638 0.0
N1901 N 0.56276 0.6602 0.55965 0.0
C1902 C 0.58567 0.6665 0.56197 0.0
C1903 C 0.57064 0.64764 0.54373 0.0
C1904 C 0.56035 0.64988 0.54864 0.0
C1905 C 0.58348 0.65599 0.55048 0.0
H1906 H 0.5767 0.6765 0.57526 0.0
H1907 H 0.5504 0.64335 0.5437 0.0
O1908 O 0.52346 0.66871 0.57667 0.0
O1909 O 0.55382 0.67878 0.58174 0.0
O1910 O 0.53455 0.64943 0.58092 0.0
O1911 O 0.53846 0.6654 0.54552 0.0
H1912 H 0.51755 0.68728 0.58519 0.0
H1913 H 0.50384 0.6454 0.58792 0.0
H1914 H 0.49734 0.68328 0.60175 0.0
H1915 H 0.48395 0.64212 0.60458 0.0
H1916 H 0.58768 0.71812 0.56136 0.0
H1917 H 0.55463 0.69386 0.60905 0.0
H1918 H 0.57254 0.69381 0.55824 0.0
H1919 H 0.57012 0.71816 0.61133 0.0
H1920 H 0.52633 0.68008 0.6503 0.0
H1921 H 0.54155 0.65289 0.65306 0.0
H1922 H 0.55485 0.71334 0.51683 0.0
H1923 H 0.54637 0.72365 0.56935 0.0
H1924 H 0.54025 0.63085 0.5716 0.0
H1925 H 0.51572 0.63948 0.60609 0.0
H1926 H 0.52924 0.60796 0.58392 0.0
H1927 H 0.50502 0.61641 0.61762 0.0
H1928 H 0.5257 0.64406 0.52486 0.0
H1929 H 0.56254 0.68078 0.53193 0.0
H1930 H 0.53518 0.63942 0.4977 0.0
H1931 H 0.57136 0.67553 0.50461 0.0
H1932 H 0.48017 0.63635 0.53535 0.0
H1933 H 0.49354 0.60803 0.54334 0.0
H1934 H 0.59545 0.67313 0.56746 0.0
H1935 H 0.56851 0.63928 0.53511 0.0
Li1936 Li 0.86126 0.54245 0.062 0.0
Li1937 Li 0.8667 0.5371 0.0915 0.0
Li1938 Li 0.88349 0.55061 0.06968 0.0
Li1939 Li 0.86901 0.52676 0.06414 0.0
C1940 C 0.87852 0.56792 0.08586 0.0
N1941 N 0.89475 0.59464 0.09339 0.0
C1942 C 0.88156 0.57226 0.10371 0.0
C1943 C 0.88351 0.57722 0.07186 0.0
C1944 C 0.88983 0.58579 0.10724 0.0
C1945 C 0.89177 0.59066 0.07592 0.0
C1946 C 0.84005 0.5216 0.08029 0.0
C1947 C 0.81696 0.50545 0.08521 0.0
N1948 N 0.81493 0.51519 0.09191 0.0
C1949 C 0.83773 0.53147 0.08723 0.0
C1950 C 0.82958 0.50849 0.07925 0.0
C1951 C 0.82497 0.52802 0.09303 0.0
C1952 C 0.83994 0.53615 0.03874 0.0
N1953 N 0.84912 0.5459 0.04946 0.0
C1954 C 0.84051 0.56017 0.04232 0.0
C1955 C 0.84953 0.55772 0.0515 0.0
C1956 C 0.83096 0.55032 0.03102 0.0
C1957 C 0.83077 0.53819 0.02923 0.0
H1958 H 0.83976 0.52678 0.03759 0.0
H1959 H 0.85675 0.56517 0.06043 0.0
C1960 C 0.87451 0.54157 0.1272 0.0
N1961 N 0.86358 0.53436 0.1168 0.0
C1962 C 0.87372 0.54022 0.14591 0.0
C1963 C 0.85047 0.52373 0.14293 0.0
C1964 C 0.85173 0.52537 0.12424 0.0
C1965 C 0.86156 0.53124 0.15401 0.0
H1966 H 0.8839 0.54837 0.12089 0.0
H1967 H 0.84328 0.51929 0.1158 0.0
C1968 C 0.87079 0.54229 0.02989 0.0
N1969 N 0.8616 0.54338 0.99589 0.0
C1970 C 0.86394 0.53074 0.01955 0.0
C1971 C 0.87313 0.55443 0.0228 0.0
C1972 C 0.85934 0.53149 0.00242 0.0
C1973 C 0.86835 0.55476 0.00563 0.0
C1974 C 0.88291 0.52618 0.09425 0.0
C1975 C 0.89516 0.52864 0.10101 0.0
C1976 C 0.87142 0.51415 0.09819 0.0
C1977 C 0.89573 0.51897 0.11158 0.0
C1978 C 0.8724 0.50474 0.10881 0.0
N1979 N 0.88443 0.50733 0.11522 0.0
C1980 C 0.90843 0.57005 0.08266 0.0
C1981 C 0.90604 0.56977 0.05086 0.0
C1982 C 0.92134 0.58081 0.08149 0.0
N1983 N 0.9011 0.56484 0.06746 0.0
C1984 C 0.9189 0.58051 0.04905 0.0
C1985 C 0.92673 0.58616 0.0645 0.0
H1986 H 0.90418 0.56589 0.09568 0.0
H1987 H 0.9 0.56533 0.03901 0.0
C1988 C 0.85593 0.50084 0.04981 0.0
N1989 N 0.86794 0.51108 0.05493 0.0
C1990 C 0.85493 0.48916 0.04304 0.0
C1991 C 0.87863 0.49875 0.04729 0.0
C1992 C 0.8792 0.5103 0.05376 0.0
C1993 C 0.86637 0.48801 0.04179 0.0
H1994 H 0.84717 0.50181 0.05084 0.0
H1995 H 0.88861 0.51865 0.0579 0.0
O1996 O 0.87059 0.55466 0.08213 0.0
O1997 O 0.8524 0.52472 0.07419 0.0
O1998 O 0.87518 0.54171 0.04683 0.0
O1999 O 0.88224 0.53563 0.08401 0.0
H2000 H 0.87751 0.5653 0.11476 0.0
H2001 H 0.8812 0.57408 0.05798 0.0
H2002 H 0.8923 0.58927 0.121 0.0
H2003 H 0.89583 0.59793 0.06519 0.0
H2004 H 0.80877 0.49534 0.0845 0.0
H2005 H 0.84567 0.54167 0.08819 0.0
H2006 H 0.83119 0.50074 0.07391 0.0
H2007 H 0.82304 0.53554 0.09842 0.0
H2008 H 0.84083 0.56955 0.04436 0.0
H2009 H 0.82365 0.53037 0.02054 0.0
H2010 H 0.88251 0.54625 0.15395 0.0
H2011 H 0.84099 0.51648 0.14862 0.0
H2012 H 0.8621 0.52128 0.0247 0.0
H2013 H 0.87846 0.56349 0.03051 0.0
H2014 H 0.85395 0.52261 0.99433 0.0
H2015 H 0.86999 0.56407 7e-05 0.0
H2016 H 0.90414 0.53793 0.09813 0.0
H2017 H 0.86184 0.51208 0.09316 0.0
H2018 H 0.90514 0.52074 0.1169 0.0
H2019 H 0.86359 0.49539 0.11196 0.0
H2020 H 0.927 0.58494 0.09375 0.0
H2021 H 0.92276 0.58416 0.03568 0.0
H2022 H 0.84529 0.48106 0.03903 0.0
H2023 H 0.88769 0.49829 0.04634 0.0
Li2024 Li 0.32757 0.86986 0.58847 0.0
Li2025 Li 0.31449 0.86203 0.56096 0.0
Li2026 Li 0.33838 0.87078 0.56056 0.0
Li2027 Li 0.32901 0.88526 0.56499 0.0
C2028 C 0.32194 0.84507 0.58528 0.0
N2029 N 0.31608 0.82604 0.61153 0.0
C2030 C 0.30882 0.83492 0.58793 0.0
C2031 C 0.33209 0.8455 0.59593 0.0
C2032 C 0.30607 0.82539 0.60128 0.0
C2033 C 0.32891 0.83581 0.60916 0.0
C2034 C 0.30895 0.88149 0.58548 0.0
C2035 C 0.29866 0.89465 0.57908 0.0
N2036 N 0.30104 0.89923 0.59634 0.0
C2037 C 0.31126 0.8863 0.60317 0.0
C2038 C 0.30255 0.88565 0.57334 0.0
C2039 C 0.30718 0.89527 0.6084 0.0
C2040 C 0.33882 0.8751 0.62323 0.0
N2041 N 0.32752 0.86739 0.61374 0.0
C2042 C 0.3159 0.85642 0.64063 0.0
C2043 C 0.31613 0.85826 0.62201 0.0
C2044 C 0.32742 0.86426 0.65079 0.0
C2045 C 0.339 0.8737 0.64189 0.0
H2046 H 0.34766 0.88243 0.61634 0.0
H2047 H 0.30721 0.8525 0.61414 0.0
C2048 C 0.29788 0.83868 0.54191 0.0
N2049 N 0.2982 0.84903 0.55086 0.0
C2050 C 0.28624 0.82926 0.53344 0.0
C2051 C 0.27545 0.84126 0.5438 0.0
C2052 C 0.28729 0.85041 0.55214 0.0
C2053 C 0.27484 0.83054 0.5342 0.0
H2054 H 0.30672 0.83782 0.54126 0.0
H2055 H 0.28782 0.85869 0.55945 0.0
C2056 C 0.35706 0.89181 0.57696 0.0
N2057 N 0.38427 0.90464 0.5721 0.0
C2058 C 0.36345 0.90353 0.56687 0.0
C2059 C 0.36452 0.88666 0.58468 0.0
C2060 C 0.37722 0.90987 0.56457 0.0
C2061 C 0.37826 0.89327 0.58202 0.0
C2062 C 0.32162 0.86935 0.52764 0.0
C2063 C 0.32521 0.86134 0.51785 0.0
C2064 C 0.3113 0.87121 0.5214 0.0
C2065 C 0.31834 0.85525 0.50201 0.0
C2066 C 0.30466 0.86491 0.50552 0.0
N2067 N 0.30829 0.85713 0.49624 0.0
C2068 C 0.35466 0.85949 0.55377 0.0
C2069 C 0.36027 0.87915 0.53742 0.0
C2070 C 0.36532 0.8589 0.54611 0.0
N2071 N 0.35247 0.8696 0.54948 0.0
C2072 C 0.37106 0.87897 0.52948 0.0
C2073 C 0.37375 0.86878 0.53388 0.0
H2074 H 0.34816 0.85191 0.56315 0.0
H2075 H 0.35818 0.887 0.53416 0.0
C2076 C 0.33518 0.91087 0.57517 0.0
N2077 N 0.33165 0.90248 0.56086 0.0
C2078 C 0.33698 0.92358 0.57302 0.0
C2079 C 0.33186 0.9189 0.5413 0.0
C2080 C 0.33004 0.90622 0.54411 0.0
C2081 C 0.33533 0.92772 0.5559 0.0
H2082 H 0.3366 0.90766 0.58827 0.0
H2083 H 0.32741 0.89939 0.53294 0.0
O2084 O 0.32482 0.8546 0.57245 0.0
O2085 O 0.31305 0.87285 0.58003 0.0
O2086 O 0.34355 0.8853 0.57905 0.0
O2087 O 0.328 0.87514 0.54342 0.0
H2088 H 0.30083 0.83448 0.57993 0.0
H2089 H 0.34227 0.85337 0.5942 0.0
H2090 H 0.29596 0.81752 0.60353 0.0
H2091 H 0.33665 0.83608 0.61758 0.0
H2092 H 0.29382 0.89805 0.56978 0.0
H2093 H 0.31624 0.88326 0.61274 0.0
H2094 H 0.30087 0.88221 0.55952 0.0
H2095 H 0.30895 0.89911 0.62202 0.0
H2096 H 0.30673 0.84918 0.64707 0.0
H2097 H 0.34808 0.87991 0.64928 0.0
H2098 H 0.28614 0.82101 0.52649 0.0
H2099 H 0.26694 0.84269 0.54461 0.0
H2100 H 0.35784 0.90763 0.56071 0.0
H2101 H 0.35972 0.87754 0.5924 0.0
H2102 H 0.38229 0.91891 0.55672 0.0
H2103 H 0.38414 0.88934 0.58779 0.0
H2104 H 0.33309 0.85971 0.52254 0.0
H2105 H 0.30828 0.87723 0.52893 0.0
H2106 H 0.32097 0.84897 0.49434 0.0
H2107 H 0.29658 0.86616 0.50063 0.0
H2108 H 0.36688 0.85073 0.54963 0.0
H2109 H 0.37736 0.88686 0.52026 0.0
H2110 H 0.33993 0.93019 0.58454 0.0
H2111 H 0.33053 0.92176 0.5279 0.0
H2112 H 0.33407 0.47806 0.17219 0.0
H2113 H 0.33396 0.47837 0.20521 0.0
H2114 H 0.32677 0.4382 0.20627 0.0
H2115 H 0.3267 0.43772 0.17331 0.0
H2116 H 0.31307 0.46078 0.22868 0.0
H2117 H 0.35938 0.45882 0.23943 0.0
H2118 H 0.35525 0.46327 0.21803 0.0
H2119 H 0.34748 0.44613 0.22476 0.0
C2120 C 0.33241 0.46927 0.17945 0.0
C2121 C 0.33045 0.45788 0.17013 0.0
C2122 C 0.33241 0.4695 0.19829 0.0
C2123 C 0.33055 0.45838 0.20811 0.0
C2124 C 0.32851 0.44697 0.19889 0.0
H2125 H 0.32493 0.4369 0.32048 0.0
H2126 H 0.32546 0.43772 0.2875 0.0
C2127 C 0.32849 0.44673 0.18007 0.0
C2128 C 0.33039 0.45856 0.22804 0.0
H2129 H 0.34612 0.45586 0.26529 0.0
C2130 C 0.32034 0.4598 0.23673 0.0
C2131 C 0.33988 0.45725 0.2384 0.0
C2132 C 0.35119 0.45641 0.22972 0.0
C2133 C 0.31932 0.45943 0.2556 0.0
C2134 C 0.32876 0.45802 0.26597 0.0
C2135 C 0.33888 0.4569 0.25726 0.0
C2136 C 0.32826 0.45756 0.2859 0.0
C2137 C 0.30796 0.46018 0.26426 0.0
C2138 C 0.32979 0.46849 0.29587 0.0
C2139 C 0.32952 0.46807 0.3147 0.0
C2140 C 0.32784 0.45673 0.32387 0.0
C2141 C 0.32639 0.44582 0.31381 0.0
C2142 C 0.32663 0.44625 0.29499 0.0
H2143 H 0.29985 0.45792 0.25448 0.0
H2144 H 0.30378 0.45316 0.27577 0.0
H2145 H 0.31164 0.47039 0.26947 0.0
H2146 H 0.33135 0.47742 0.28909 0.0
H2147 H 0.33088 0.47671 0.32208 0.0
H2148 H 0.88397 0.32772 0.67426 0.0
H2149 H 0.88328 0.32858 0.70716 0.0
H2150 H 0.85172 0.33783 0.70387 0.0
H2151 H 0.85244 0.33715 0.6709 0.0
H2152 H 0.88686 0.35011 0.72934 0.0
H2153 H 0.83699 0.30524 0.73793 0.0
H2154 H 0.84634 0.30882 0.71721 0.0
H2155 H 0.83774 0.31761 0.72265 0.0
C2156 C 0.87696 0.33005 0.68051 0.0
C2157 C 0.86824 0.33235 0.66997 0.0
C2158 C 0.87654 0.33047 0.6993 0.0
C2159 C 0.86735 0.33312 0.7079 0.0
C2160 C 0.85872 0.33554 0.69746 0.0
H2161 H 0.86994 0.3527 0.82221 0.0
H2162 H 0.86909 0.3531 0.7892 0.0
C2163 C 0.85913 0.33513 0.67865 0.0
C2164 C 0.86695 0.33344 0.72781 0.0
H2165 H 0.84754 0.31746 0.76426 0.0
C2166 C 0.87826 0.34302 0.73701 0.0
C2167 C 0.85574 0.32407 0.73768 0.0
C2168 C 0.84353 0.31327 0.72843 0.0
C2169 C 0.87867 0.34347 0.75592 0.0
C2170 C 0.86742 0.33419 0.7658 0.0
C2171 C 0.8561 0.32462 0.75659 0.0
C2172 C 0.86744 0.33384 0.78572 0.0
C2173 C 0.89126 0.35363 0.76518 0.0
C2174 C 0.86646 0.32274 0.79462 0.0
C2175 C 0.86685 0.32244 0.81342 0.0
C2176 C 0.86816 0.33321 0.82366 0.0
C2177 C 0.86886 0.34422 0.81469 0.0
C2178 C 0.8685 0.34452 0.79586 0.0
H2179 H 0.89985 0.35816 0.75577 0.0
H2180 H 0.8898 0.3617 0.77067 0.0
H2181 H 0.89372 0.34906 0.77662 0.0
H2182 H 0.86556 0.31437 0.787 0.0
H2183 H 0.86607 0.31373 0.81995 0.0
H2184 H 0.51197 0.85567 0.32207 0.0
H2185 H 0.51214 0.85429 0.28914 0.0
H2186 H 0.55106 0.85825 0.29106 0.0
H2187 H 0.55112 0.85997 0.32396 0.0
H2188 H 0.54907 0.87598 0.26747 0.0
H2189 H 0.50846 0.82417 0.25595 0.0
H2190 H 0.50399 0.83377 0.27032 0.0
H2191 H 0.51646 0.82995 0.27759 0.0
C2192 C 0.52054 0.85619 0.31547 0.0
C2193 C 0.53154 0.85794 0.32559 0.0
C2194 C 0.52055 0.85525 0.29669 0.0
C2195 C 0.53154 0.85599 0.28772 0.0
C2196 C 0.54244 0.85753 0.29778 0.0
H2197 H 0.53849 0.84611 0.1723 0.0
H2198 H 0.53777 0.84376 0.20519 0.0
C2199 C 0.54243 0.85844 0.31656 0.0
C2200 C 0.53208 0.8562 0.2678 0.0
H2201 H 0.51622 0.83837 0.23016 0.0
C2202 C 0.54196 0.86772 0.2593 0.0
C2203 C 0.52285 0.84537 0.25723 0.0
C2204 C 0.51241 0.83256 0.2657 0.0
C2205 C 0.54263 0.86884 0.24047 0.0
C2206 C 0.53308 0.85821 0.22991 0.0
C2207 C 0.52344 0.84654 0.23836 0.0
C2208 C 0.53289 0.85918 0.21006 0.0
C2209 C 0.55356 0.88137 0.23199 0.0
C2210 C 0.53012 0.86844 0.20201 0.0
C2211 C 0.53044 0.86976 0.18328 0.0
C2212 C 0.53352 0.86181 0.17226 0.0
C2213 C 0.53598 0.85231 0.1804 0.0
C2214 C 0.53563 0.85098 0.19916 0.0
H2215 H 0.56181 0.88716 0.2416 0.0
H2216 H 0.55764 0.87902 0.21988 0.0
H2217 H 0.54945 0.88774 0.22766 0.0
H2218 H 0.52776 0.87469 0.21024 0.0
H2219 H 0.52822 0.87697 0.17743 0.0
H2220 H 0.66041 0.51448 0.82224 0.0
H2221 H 0.66134 0.51403 0.78919 0.0
H2222 H 0.67396 0.55579 0.78735 0.0
H2223 H 0.6731 0.55635 0.82035 0.0
H2224 H 0.64687 0.52447 0.7641 0.0
H2225 H 0.70186 0.5488 0.75712 0.0
H2226 H 0.69319 0.53973 0.77715 0.0
H2227 H 0.69536 0.55589 0.77293 0.0
C2228 C 0.66346 0.52358 0.81478 0.0
C2229 C 0.66668 0.53545 0.82382 0.0
C2230 C 0.66394 0.52329 0.79596 0.0
C2231 C 0.6678 0.53489 0.78597 0.0
C2232 C 0.67104 0.54676 0.79492 0.0
H2233 H 0.68094 0.55887 0.67489 0.0
H2234 H 0.68047 0.55715 0.70773 0.0
C2235 C 0.67045 0.54704 0.81371 0.0
C2236 C 0.66818 0.5346 0.76612 0.0
H2237 H 0.68944 0.54492 0.73032 0.0
C2238 C 0.65614 0.52883 0.75664 0.0
C2239 C 0.68032 0.54039 0.75661 0.0
C2240 C 0.69346 0.54651 0.76638 0.0
C2241 C 0.65592 0.52903 0.73772 0.0
C2242 C 0.6681 0.53484 0.72814 0.0
C2243 C 0.68014 0.54044 0.7377 0.0
C2244 C 0.66858 0.53569 0.7082 0.0
C2245 C 0.6427 0.52347 0.72824 0.0
C2246 C 0.66224 0.52417 0.69758 0.0
C2247 C 0.66229 0.52512 0.67879 0.0
C2248 C 0.66884 0.53762 0.67028 0.0
C2249 C 0.67556 0.54911 0.681 0.0
C2250 C 0.67541 0.54814 0.69977 0.0
H2251 H 0.63479 0.52265 0.73747 0.0
H2252 H 0.64337 0.52976 0.71657 0.0
H2253 H 0.63965 0.51336 0.72316 0.0
H2254 H 0.65716 0.51444 0.70382 0.0
H2255 H 0.65695 0.51608 0.67097 0.0
H2256 H 0.12283 0.68004 0.31946 0.0
H2257 H 0.12384 0.68023 0.28652 0.0
H2258 H 0.13597 0.6507 0.28791 0.0
H2259 H 0.13453 0.65009 0.32086 0.0
H2260 H 0.14563 0.68615 0.26426 0.0
H2261 H 0.10414 0.63457 0.25336 0.0
H2262 H 0.10691 0.64304 0.2747 0.0
H2263 H 0.11701 0.63602 0.26822 0.0
C2264 C 0.12555 0.67346 0.31276 0.0
C2265 C 0.1285 0.66497 0.32276 0.0
C2266 C 0.12622 0.67366 0.29396 0.0
C2267 C 0.12981 0.66536 0.28481 0.0
C2268 C 0.13296 0.65702 0.29473 0.0
H2269 H 0.13572 0.65327 0.16991 0.0
H2270 H 0.1373 0.65314 0.20287 0.0
C2271 C 0.13228 0.6568 0.31355 0.0
C2272 C 0.13033 0.66554 0.26489 0.0
H2273 H 0.11614 0.64645 0.22754 0.0
C2274 C 0.1392 0.67748 0.25621 0.0
C2275 C 0.12193 0.65419 0.25448 0.0
C2276 C 0.11187 0.64125 0.26311 0.0
C2277 C 0.1399 0.67837 0.23734 0.0
C2278 C 0.13139 0.66707 0.22695 0.0
C2279 C 0.12267 0.65507 0.2356 0.0
C2280 C 0.13101 0.66759 0.20706 0.0
C2281 C 0.14981 0.69135 0.22867 0.0
C2282 C 0.12688 0.67571 0.19859 0.0
C2283 C 0.126 0.67584 0.17983 0.0
C2284 C 0.12919 0.6678 0.1692 0.0
C2285 C 0.13337 0.6597 0.17774 0.0
C2286 C 0.1342 0.65955 0.19653 0.0
H2287 H 0.15785 0.69784 0.23819 0.0
H2288 H 0.15437 0.68962 0.21655 0.0
H2289 H 0.14464 0.69674 0.22437 0.0
H2290 H 0.12416 0.68182 0.20652 0.0
H2291 H 0.12285 0.68225 0.17363 0.0
H2292 H 0.47148 0.15162 0.82434 0.0
H2293 H 0.47245 0.15326 0.79139 0.0
H2294 H 0.4547 0.1107 0.78741 0.0
H2295 H 0.45346 0.10891 0.82029 0.0
H2296 H 0.47774 0.12622 0.76455 0.0
H2297 H 0.43889 0.14073 0.75881 0.0
H2298 H 0.45239 0.15041 0.77404 0.0
H2299 H 0.44103 0.13323 0.77893 0.0
C2300 C 0.4677 0.1426 0.81645 0.0
C2301 C 0.46232 0.13012 0.82494 0.0
C2302 C 0.4683 0.14357 0.79766 0.0
C2303 C 0.46352 0.13209 0.78704 0.0
C2304 C 0.45844 0.11967 0.79542 0.0
H2305 H 0.4396 0.11506 0.67656 0.0
H2306 H 0.44162 0.11665 0.70942 0.0
C2307 C 0.4578 0.11868 0.8142 0.0
C2308 C 0.46359 0.13294 0.76716 0.0
H2309 H 0.44905 0.13964 0.73181 0.0
C2310 C 0.47154 0.12923 0.75735 0.0
C2311 C 0.45539 0.13676 0.75792 0.0
C2312 C 0.44635 0.14043 0.76789 0.0
C2313 C 0.47146 0.12917 0.73842 0.0
C2314 C 0.46327 0.13302 0.72918 0.0
C2315 C 0.45538 0.1368 0.739 0.0
C2316 C 0.46216 0.13242 0.70931 0.0
C2317 C 0.4798 0.12463 0.72844 0.0
C2318 C 0.47301 0.1409 0.69844 0.0
C2319 C 0.4719 0.13999 0.67965 0.0
C2320 C 0.45992 0.13057 0.67148 0.0
C2321 C 0.44901 0.12226 0.68247 0.0
C2322 C 0.45012 0.12321 0.70121 0.0
H2323 H 0.48366 0.11974 0.73754 0.0
H2324 H 0.47394 0.11758 0.71751 0.0
H2325 H 0.48841 0.13335 0.72215 0.0
H2326 H 0.48233 0.14817 0.7045 0.0
H2327 H 0.48048 0.14647 0.67153 0.0
H2328 H 0.55205 0.66723 0.67844 0.0
H2329 H 0.55104 0.66723 0.71137 0.0
H2330 H 0.51362 0.66653 0.70876 0.0
H2331 H 0.51438 0.66623 0.67576 0.0
H2332 H 0.53335 0.68605 0.73312 0.0
H2333 H 0.52499 0.63503 0.74331 0.0
H2334 H 0.5387 0.64548 0.72881 0.0
H2335 H 0.52205 0.64063 0.72198 0.0
C2336 C 0.54351 0.66689 0.68484 0.0
C2337 C 0.53325 0.66664 0.67446 0.0
C2338 C 0.54298 0.66694 0.70365 0.0
C2339 C 0.53218 0.66672 0.71241 0.0
C2340 C 0.52201 0.66667 0.70217 0.0
H2341 H 0.51423 0.6518 0.82685 0.0
H2342 H 0.51273 0.65173 0.79389 0.0
C2343 C 0.52251 0.66657 0.68334 0.0
C2344 C 0.53162 0.66672 0.73231 0.0
H2345 H 0.52991 0.64855 0.76941 0.0
C2346 C 0.53252 0.67784 0.74109 0.0
C2347 C 0.53039 0.65591 0.74258 0.0
C2348 C 0.52886 0.64352 0.73374 0.0
C2349 C 0.53259 0.67858 0.75998 0.0
C2350 C 0.53184 0.66797 0.77025 0.0
C2351 C 0.53058 0.6567 0.76146 0.0
C2352 C 0.53256 0.66843 0.79015 0.0
C2353 C 0.53342 0.69067 0.76883 0.0
C2354 C 0.54424 0.67781 0.79886 0.0
C2355 C 0.54512 0.67789 0.81765 0.0
C2356 C 0.53434 0.66856 0.82802 0.0
C2357 C 0.52263 0.65921 0.81923 0.0
C2358 C 0.52178 0.65911 0.80043 0.0
H2359 H 0.5307 0.69633 0.75934 0.0
H2360 H 0.52678 0.6878 0.78078 0.0
H2361 H 0.54376 0.69735 0.77346 0.0
H2362 H 0.55273 0.68496 0.79112 0.0
H2363 H 0.55423 0.68526 0.82407 0.0
H2364 H 0.88209 0.53258 0.32278 0.0
H2365 H 0.87978 0.5308 0.28993 0.0
H2366 H 0.8417 0.52861 0.29395 0.0
H2367 H 0.84409 0.53078 0.32676 0.0
H2368 H 0.85934 0.51047 0.2686 0.0
H2369 H 0.86292 0.55962 0.25868 0.0
H2370 H 0.8677 0.55507 0.27948 0.0
H2371 H 0.85044 0.54871 0.2744 0.0
C2372 C 0.87327 0.53182 0.31666 0.0
C2373 C 0.86332 0.53193 0.32735 0.0
C2374 C 0.87193 0.53071 0.29793 0.0
C2375 C 0.86066 0.52975 0.28956 0.0
C2376 C 0.85056 0.52954 0.30017 0.0
H2377 H 0.84159 0.52919 0.17572 0.0
H2378 H 0.84029 0.52751 0.20868 0.0
C2379 C 0.85189 0.53065 0.31892 0.0
C2380 C 0.85958 0.52911 0.26967 0.0
H2381 H 0.85876 0.54627 0.23281 0.0
C2382 C 0.85919 0.51827 0.26075 0.0
C2383 C 0.85936 0.53931 0.25954 0.0
C2384 C 0.86023 0.55141 0.26844 0.0
C2385 C 0.85857 0.51735 0.24187 0.0
C2386 C 0.85857 0.52766 0.23172 0.0
C2387 C 0.85874 0.53838 0.24067 0.0
C2388 C 0.85895 0.52781 0.21179 0.0
C2389 C 0.85783 0.50533 0.23294 0.0
C2390 C 0.8699 0.52858 0.20269 0.0
C2391 C 0.87065 0.52949 0.18391 0.0
C2392 C 0.8605 0.52973 0.1739 0.0
C2393 C 0.84948 0.52886 0.18306 0.0
C2394 C 0.84876 0.52797 0.20186 0.0
H2395 H 0.85422 0.49681 0.24243 0.0
H2396 H 0.85115 0.5022 0.22101 0.0
H2397 H 0.8679 0.50783 0.2283 0.0
H2398 H 0.87798 0.52871 0.21015 0.0
H2399 H 0.8792 0.53003 0.17724 0.0
H2400 H 0.31751 0.84138 0.6705 0.0
H2401 H 0.31729 0.83927 0.70342 0.0
H2402 H 0.33658 0.88192 0.7086 0.0
H2403 H 0.33707 0.88409 0.67577 0.0
H2404 H 0.34774 0.87162 0.73024 0.0
H2405 H 0.29287 0.84343 0.73825 0.0
H2406 H 0.2992 0.8356 0.72357 0.0
H2407 H 0.30082 0.85131 0.71732 0.0
C2408 C 0.32163 0.85028 0.67871 0.0
C2409 C 0.32729 0.8629 0.67064 0.0
C2410 C 0.32146 0.84906 0.69748 0.0
C2411 C 0.32672 0.86043 0.70845 0.0
C2412 C 0.33246 0.87303 0.70038 0.0
H2413 H 0.31345 0.86863 0.82032 0.0
H2414 H 0.31338 0.86723 0.78742 0.0
C2415 C 0.33276 0.87425 0.68165 0.0
C2416 C 0.32646 0.85932 0.72837 0.0
H2417 H 0.30567 0.84658 0.76455 0.0
C2418 C 0.33854 0.86612 0.73776 0.0
C2419 C 0.31444 0.85225 0.73812 0.0
C2420 C 0.30108 0.84533 0.72884 0.0
C2421 C 0.33893 0.86621 0.75666 0.0
C2422 C 0.32693 0.85896 0.76642 0.0
C2423 C 0.31486 0.85202 0.75702 0.0
C2424 C 0.32658 0.85913 0.78638 0.0
C2425 C 0.35214 0.87447 0.76597 0.0
C2426 C 0.33383 0.8548 0.79671 0.0
C2427 C 0.33397 0.85571 0.81551 0.0
C2428 C 0.32667 0.86072 0.82427 0.0
C2429 C 0.31908 0.86462 0.81392 0.0
C2430 C 0.31905 0.86385 0.79514 0.0
H2431 H 0.3597 0.88202 0.75677 0.0
H2432 H 0.35113 0.87967 0.77792 0.0
H2433 H 0.35592 0.86789 0.77062 0.0
H2434 H 0.33943 0.85081 0.79023 0.0
H2435 H 0.33977 0.85247 0.82321 0.0
H2436 H 0.44634 0.30758 0.32739 0.0
H2437 H 0.44686 0.30648 0.29442 0.0
H2438 H 0.46695 0.34926 0.2916 0.0
H2439 H 0.46673 0.35047 0.32454 0.0
H2440 H 0.43558 0.3168 0.26969 0.0
H2441 H 0.49005 0.33921 0.26018 0.0
H2442 H 0.48197 0.33272 0.2816 0.0
H2443 H 0.48525 0.34878 0.27406 0.0
C2444 C 0.45104 0.31675 0.31975 0.0
C2445 C 0.45654 0.32912 0.32854 0.0
C2446 C 0.45125 0.3161 0.30095 0.0
C2447 C 0.45708 0.32779 0.29065 0.0
C2448 C 0.46259 0.34014 0.29936 0.0
H2449 H 0.44724 0.34031 0.17843 0.0
H2450 H 0.44711 0.33942 0.21139 0.0
C2451 C 0.46233 0.3408 0.31815 0.0
C2452 C 0.45696 0.32708 0.27074 0.0
H2453 H 0.47721 0.33644 0.23383 0.0
C2454 C 0.44467 0.32102 0.26183 0.0
C2455 C 0.46884 0.33247 0.2606 0.0
C2456 C 0.48229 0.33856 0.26956 0.0
C2457 C 0.44394 0.32052 0.24294 0.0
C2458 C 0.45583 0.32635 0.23279 0.0
C2459 C 0.46812 0.33209 0.2417 0.0
C2460 C 0.45573 0.3267 0.21287 0.0
C2461 C 0.43048 0.3137 0.23398 0.0
C2462 C 0.46082 0.32001 0.20286 0.0
C2463 C 0.46086 0.32045 0.18403 0.0
C2464 C 0.4559 0.32768 0.1749 0.0
C2465 C 0.4509 0.33446 0.18503 0.0
C2466 C 0.45084 0.33398 0.20385 0.0
H2467 H 0.42251 0.30703 0.24346 0.0
H2468 H 0.42812 0.32133 0.22913 0.0
H2469 H 0.43041 0.3078 0.22216 0.0
H2470 H 0.46466 0.31436 0.20962 0.0
H2471 H 0.46464 0.31499 0.17663 0.0
H2472 H 0.13225 0.44318 0.67653 0.0
H2473 H 0.13342 0.44394 0.70949 0.0
H2474 H 0.14117 0.48431 0.70865 0.0
H2475 H 0.14035 0.48377 0.67563 0.0
H2476 H 0.15739 0.47932 0.73341 0.0
H2477 H 0.10332 0.44341 0.74033 0.0
H2478 H 0.11233 0.43793 0.72643 0.0
H2479 H 0.1107 0.45184 0.71941 0.0
C2480 C 0.13441 0.45229 0.68333 0.0
C2481 C 0.13613 0.46339 0.6735 0.0
C2482 C 0.13496 0.45266 0.70215 0.0
C2483 C 0.13719 0.46412 0.71143 0.0
C2484 C 0.13936 0.47536 0.70168 0.0
H2485 H 0.11891 0.46992 0.82274 0.0
H2486 H 0.12129 0.4713 0.78992 0.0
C2487 C 0.13879 0.475 0.68286 0.0
C2488 C 0.13678 0.46421 0.73134 0.0
H2489 H 0.11599 0.44999 0.76718 0.0
C2490 C 0.14836 0.47293 0.74084 0.0
C2491 C 0.12492 0.45596 0.74089 0.0
C2492 C 0.11206 0.44682 0.73129 0.0
C2493 C 0.14842 0.47349 0.75976 0.0
C2494 C 0.13662 0.46502 0.76931 0.0
C2495 C 0.12503 0.45641 0.75978 0.0
C2496 C 0.13596 0.46501 0.78922 0.0
C2497 C 0.16101 0.48328 0.76936 0.0
C2498 C 0.14344 0.46104 0.79965 0.0
C2499 C 0.14206 0.46019 0.81841 0.0
C2500 C 0.13309 0.4632 0.827 0.0
C2501 C 0.12576 0.46736 0.81649 0.0
C2502 C 0.12716 0.46823 0.79777 0.0
H2503 H 0.16815 0.49113 0.7601 0.0
H2504 H 0.15879 0.48809 0.78073 0.0
H2505 H 0.16588 0.47794 0.77498 0.0
H2506 H 0.15008 0.45827 0.79325 0.0
H2507 H 0.14769 0.45677 0.82611 0.0
H2508 H 0.66806 0.14856 0.32646 0.0
H2509 H 0.66818 0.15036 0.2935 0.0
H2510 H 0.66453 0.11171 0.28857 0.0
H2511 H 0.66478 0.10994 0.32137 0.0
H2512 H 0.6864 0.14681 0.26718 0.0
H2513 H 0.6324 0.11079 0.25954 0.0
H2514 H 0.63957 0.11953 0.28039 0.0
H2515 H 0.64152 0.10571 0.27395 0.0
C2516 C 0.66745 0.14051 0.31837 0.0
C2517 C 0.6663 0.12905 0.32656 0.0
C2518 C 0.66745 0.14154 0.29957 0.0
C2519 C 0.6662 0.1311 0.28873 0.0
C2520 C 0.66531 0.11978 0.2968 0.0
H2521 H 0.65913 0.10922 0.17745 0.0
H2522 H 0.65976 0.11076 0.21035 0.0
C2523 C 0.66539 0.11877 0.31553 0.0
C2524 C 0.66573 0.13188 0.26891 0.0
H2525 H 0.64529 0.11753 0.23281 0.0
C2526 C 0.67741 0.14054 0.2596 0.0
C2527 C 0.65397 0.12364 0.25921 0.0
C2528 C 0.6411 0.11444 0.26872 0.0
C2529 C 0.67777 0.14079 0.24066 0.0
C2530 C 0.66603 0.13236 0.23093 0.0
C2531 C 0.65427 0.12395 0.24032 0.0
C2532 C 0.6658 0.13166 0.21099 0.0
C2533 C 0.6908 0.14966 0.23128 0.0
C2534 C 0.66887 0.14287 0.20047 0.0
C2535 C 0.66854 0.14202 0.18165 0.0
C2536 C 0.66497 0.12989 0.17308 0.0
C2537 C 0.66177 0.11866 0.18368 0.0
C2538 C 0.66218 0.11954 0.20245 0.0
H2539 H 0.69939 0.15298 0.24056 0.0
H2540 H 0.6922 0.14449 0.21962 0.0
H2541 H 0.6908 0.15864 0.22616 0.0
H2542 H 0.67139 0.15225 0.2068 0.0
H2543 H 0.67088 0.15079 0.17381 0.0
H2544 H 0.16833 0.44559 0.00289 0.0
H2545 H 0.18549 0.44265 0.01783 0.0
H2546 H 0.19362 0.42922 0.96772 0.0
H2547 H 0.1766 0.43224 0.95263 0.0
H2548 H 0.19281 0.41424 -7e-05 0.0
H2549 H 0.22539 0.46908 0.00625 0.0
H2550 H 0.20888 0.46217 0.01532 0.0
H2551 H 0.21115 0.46162 0.99144 0.0
C2552 C 0.17377 0.44199 0.99507 0.0
C2553 C 0.17124 0.43929 0.97655 0.0
C2554 C 0.18349 0.44026 0.00363 0.0
C2555 C 0.19085 0.43585 0.99379 0.0
C2556 C 0.18798 0.4326 0.97551 0.0
H2557 H 0.26852 0.44736 0.00854 0.0
H2558 H 0.24761 0.44512 0.99793 0.0
C2559 C 0.17826 0.43432 0.96693 0.0
C2560 C 0.20219 0.43553 0.00213 0.0
H2561 H 0.23362 0.45575 0.0178 0.0
C2562 C 0.20171 0.42327 0.00399 0.0
C2563 C 0.21379 0.44739 0.00719 0.0
C2564 C 0.21496 0.46085 0.00487 0.0
C2565 C 0.21265 0.4226 0.01069 0.0
C2566 C 0.22425 0.43447 0.01566 0.0
C2567 C 0.22465 0.44668 0.01401 0.0
C2568 C 0.23642 0.43463 0.02164 0.0
C2569 C 0.21194 0.4093 0.01189 0.0
C2570 C 0.23695 0.42937 0.03843 0.0
C2571 C 0.24889 0.43058 0.04452 0.0
C2572 C 0.26044 0.43709 0.03387 0.0
C2573 C 0.25975 0.44212 0.01692 0.0
C2574 C 0.24785 0.44092 0.01088 0.0
H2575 H 0.20304 0.40134 0.00493 0.0
H2576 H 0.22098 0.40988 0.0059 0.0
H2577 H 0.21151 0.40648 0.02628 0.0
H2578 H 0.22823 0.42462 0.04697 0.0
H2579 H 0.24913 0.42654 0.05759 0.0
H2580 H 0.71975 0.16936 0.50148 0.0
H2581 H 0.73986 0.18684 0.516 0.0
H2582 H 0.76152 0.19353 0.46623 0.0
H2583 H 0.74144 0.17621 0.45151 0.0
H2584 H 0.77538 0.19324 0.49959 0.0
H2585 H 0.75386 0.22662 0.50179 0.0
H2586 H 0.74387 0.21033 0.51135 0.0
H2587 H 0.74718 0.21208 0.48756 0.0
C2588 C 0.7288 0.17456 0.49363 0.0
C2589 C 0.72899 0.17154 0.4753 0.0
C2590 C 0.74026 0.18446 0.50197 0.0
C2591 C 0.75206 0.1915 0.49209 0.0
C2592 C 0.75246 0.18815 0.47403 0.0
H2593 H 0.81906 0.26906 0.50731 0.0
H2594 H 0.80048 0.24828 0.49614 0.0
C2595 C 0.74101 0.17825 0.46567 0.0
C2596 C 0.76375 0.20298 0.50018 0.0
H2597 H 0.77512 0.23476 0.51444 0.0
C2598 C 0.77535 0.20231 0.50295 0.0
C2599 C 0.76362 0.21478 0.50433 0.0
C2600 C 0.75152 0.21612 0.50101 0.0
C2601 C 0.78691 0.21325 0.5098 0.0
C2602 C 0.78675 0.22503 0.51396 0.0
C2603 C 0.77513 0.22565 0.51128 0.0
C2604 C 0.79868 0.23712 0.52036 0.0
C2605 C 0.79931 0.21231 0.5121 0.0
C2606 C 0.80381 0.23763 0.53765 0.0
C2607 C 0.81446 0.2495 0.54407 0.0
C2608 C 0.82011 0.26099 0.53327 0.0
C2609 C 0.81506 0.26033 0.51584 0.0
C2610 C 0.80441 0.2485 0.50947 0.0
H2611 H 0.79841 0.20329 0.50554 0.0
H2612 H 0.80805 0.22123 0.50636 0.0
H2613 H 0.80121 0.21191 0.5267 0.0
H2614 H 0.79938 0.22895 0.5463 0.0
H2615 H 0.81822 0.24972 0.55752 0.0
H2616 H 0.56257 0.83275 0.00271 0.0
H2617 H 0.56661 0.81584 0.98921 0.0
H2618 H 0.55143 0.79186 0.03719 0.0
H2619 H 0.54745 0.80873 0.0508 0.0
H2620 H 0.57459 0.79305 0.02331 0.0
H2621 H 0.53616 0.78055 0.97034 0.0
H2622 H 0.54899 0.7977 0.97126 0.0
H2623 H 0.5376 0.79053 0.98978 0.0
C2624 C 0.5601 0.82386 0.01035 0.0
C2625 C 0.55459 0.82198 0.02773 0.0
C2626 C 0.56242 0.81424 0.00265 0.0
C2627 C 0.55912 0.80255 0.01212 0.0
C2628 C 0.55403 0.80084 0.02968 0.0
H2629 H 0.54908 0.72562 0.99636 0.0
H2630 H 0.55275 0.74684 0.00801 0.0
C2631 C 0.55178 0.81048 0.03744 0.0
C2632 C 0.56042 0.79178 0.00354 0.0
H2633 H 0.54773 0.76876 0.96982 0.0
C2634 C 0.56879 0.78778 0.01155 0.0
C2635 C 0.55284 0.78498 0.98818 0.0
C2636 C 0.5433 0.78855 0.97943 0.0
C2637 C 0.56966 0.77698 0.00471 0.0
C2638 C 0.56181 0.76997 0.98967 0.0
C2639 C 0.55375 0.77423 0.98133 0.0
C2640 C 0.56099 0.75759 0.98312 0.0
C2641 C 0.57888 0.77311 0.01369 0.0
C2642 C 0.56432 0.75661 0.96523 0.0
C2643 C 0.56224 0.74448 0.95852 0.0
C2644 C 0.55668 0.73312 0.96958 0.0
C2645 C 0.55358 0.73423 0.9876 0.0
C2646 C 0.55569 0.74635 0.99429 0.0
H2647 H 0.58684 0.78153 0.02141 0.0
H2648 H 0.57311 0.76486 0.02328 0.0
H2649 H 0.58356 0.76965 0.00361 0.0
H2650 H 0.56835 0.76518 0.95639 0.0
H2651 H 0.56489 0.74398 0.94465 0.0
H2652 H 0.74182 0.57486 0.54097 0.0
H2653 H 0.76326 0.5792 0.52893 0.0
H2654 H 0.74313 0.54525 0.49378 0.0
H2655 H 0.72173 0.54062 0.50597 0.0
H2656 H 0.77264 0.56076 0.53041 0.0
H2657 H 0.76967 0.57544 0.46019 0.0
H2658 H 0.75944 0.57594 0.47821 0.0
H2659 H 0.75506 0.56047 0.46724 0.0
C2660 C 0.74196 0.56831 0.53068 0.0
C2661 C 0.73007 0.55738 0.52443 0.0
C2662 C 0.7542 0.57088 0.52374 0.0
C2663 C 0.75471 0.56266 0.5103 0.0
C2664 C 0.74288 0.55188 0.50386 0.0
H2665 H 0.80619 0.5356 0.47878 0.0
H2666 H 0.78969 0.54036 0.49162 0.0
C2667 C 0.73067 0.54925 0.51084 0.0
C2668 C 0.76758 0.56458 0.50398 0.0
H2669 H 0.7853 0.56798 0.46571 0.0
C2670 C 0.77557 0.5626 0.51633 0.0
C2671 C 0.77141 0.56713 0.48567 0.0
C2672 C 0.76352 0.57 0.47207 0.0
C2673 C 0.78687 0.56224 0.5106 0.0
C2674 C 0.79013 0.5638 0.49207 0.0
C2675 C 0.78266 0.56666 0.4799 0.0
C2676 C 0.80047 0.56127 0.48485 0.0
C2677 C 0.79502 0.5598 0.52429 0.0
C2678 C 0.81187 0.57145 0.47657 0.0
C2679 C 0.82141 0.56879 0.46933 0.0
C2680 C 0.81958 0.55587 0.47011 0.0
C2681 C 0.80805 0.5457 0.47829 0.0
C2682 C 0.79859 0.54839 0.4856 0.0
H2683 H 0.79345 0.56239 0.53815 0.0
H2684 H 0.792 0.5491 0.52416 0.0
H2685 H 0.80578 0.56563 0.52101 0.0
H2686 H 0.8134 0.58143 0.47581 0.0
H2687 H 0.83025 0.57687 0.46328 0.0
H2688 H 0.25144 0.82033 0.94356 0.0
H2689 H 0.23054 0.80283 0.95637 0.0
H2690 H 0.25075 0.8046 0.006 0.0
H2691 H 0.27162 0.8223 0.99344 0.0
H2692 H 0.22704 0.77824 0.9685 0.0
H2693 H 0.217 0.80485 0.02292 0.0
H2694 H 0.22819 0.81338 0.00442 0.0
H2695 H 0.23356 0.80734 0.02307 0.0
C2696 C 0.25136 0.81717 0.95732 0.0
C2697 C 0.26314 0.82265 0.96751 0.0
C2698 C 0.23945 0.80717 0.96458 0.0
C2699 C 0.23911 0.80259 0.98217 0.0
C2700 C 0.25079 0.80819 0.9925 0.0
H2701 H 0.18694 0.7374 0.0493 0.0
H2702 H 0.20446 0.75813 0.03619 0.0
C2703 C 0.26271 0.81817 0.98524 0.0
C2704 C 0.22685 0.79114 0.98919 0.0
H2705 H 0.20455 0.78113 0.02381 0.0
C2706 C 0.22199 0.77887 0.98045 0.0
C2707 C 0.22039 0.79207 0.00481 0.0
C2708 C 0.22496 0.80514 0.01429 0.0
C2709 C 0.21111 0.76734 0.98733 0.0
C2710 C 0.20478 0.76821 0.00315 0.0
C2711 C 0.20945 0.78054 0.01168 0.0
C2712 C 0.19371 0.75627 0.01151 0.0
C2713 C 0.20684 0.75424 0.97804 0.0
C2714 C 0.18178 0.74858 0.00212 0.0
C2715 C 0.17179 0.73673 0.00954 0.0
C2716 C 0.17354 0.73248 0.02655 0.0
C2717 C 0.1853 0.74048 0.03622 0.0
C2718 C 0.19531 0.75229 0.02875 0.0
H2719 H 0.21457 0.75486 0.96862 0.0
H2720 H 0.20458 0.74628 0.98804 0.0
H2721 H 0.19768 0.75135 0.97011 0.0
H2722 H 0.18028 0.75165 0.98895 0.0
H2723 H 0.16272 0.73086 0.00195 0.0
H2724 H 0.43589 0.181 0.54586 0.0
H2725 H 0.43335 0.19806 0.53002 0.0
H2726 H 0.43759 0.18271 0.47895 0.0
H2727 H 0.44045 0.16582 0.4948 0.0
H2728 H 0.45382 0.20855 0.48101 0.0
H2729 H 0.40377 0.19788 0.50183 0.0
H2730 H 0.41386 0.19952 0.52103 0.0
H2731 H 0.40949 0.18617 0.50523 0.0
C2732 C 0.43601 0.18112 0.53124 0.0
C2733 C 0.43841 0.17216 0.52152 0.0
C2734 C 0.43448 0.19081 0.5222 0.0
C2735 C 0.43506 0.19152 0.50328 0.0
C2736 C 0.43705 0.1823 0.49354 0.0
H2737 H 0.42377 0.25194 0.44802 0.0
H2738 H 0.42102 0.23046 0.45724 0.0
C2739 C 0.43873 0.17271 0.50259 0.0
C2740 C 0.43503 0.20272 0.49384 0.0
H2741 H 0.41863 0.22016 0.49107 0.0
C2742 C 0.44601 0.21096 0.48298 0.0
C2743 C 0.42475 0.20575 0.49616 0.0
C2744 C 0.41224 0.19677 0.50654 0.0
C2745 C 0.44731 0.2225 0.4751 0.0
C2746 C 0.43754 0.22607 0.4786 0.0
C2747 C 0.42621 0.2175 0.48867 0.0
C2748 C 0.43925 0.23898 0.47269 0.0
C2749 C 0.45919 0.2308 0.46323 0.0
C2750 C 0.45032 0.25084 0.47851 0.0
C2751 C 0.45201 0.26308 0.47311 0.0
C2752 C 0.44254 0.2637 0.46198 0.0
C2753 C 0.43135 0.25179 0.45636 0.0
C2754 C 0.42971 0.23953 0.46171 0.0
H2755 H 0.46313 0.2247 0.45721 0.0
H2756 H 0.45667 0.2356 0.45217 0.0
H2757 H 0.46722 0.23869 0.47149 0.0
H2758 H 0.45766 0.25064 0.48732 0.0
H2759 H 0.46081 0.27205 0.47753 0.0
H2760 H 0.83477 0.57302 0.01428 0.0
H2761 H 0.81797 0.57663 -0.00053 0.0
H2762 H 0.78797 0.53625 0.01141 0.0
H2763 H 0.80454 0.53261 0.02655 0.0
H2764 H 0.78922 0.54574 0.97384 0.0
H2765 H 0.78696 0.57837 0.02723 0.0
H2766 H 0.80303 0.58225 0.01875 0.0
H2767 H 0.79343 0.56737 0.03161 0.0
C2768 C 0.82457 0.56494 0.01387 0.0
C2769 C 0.82098 0.55252 0.02159 0.0
C2770 C 0.81503 0.56702 0.00537 0.0
C2771 C 0.80179 0.55672 0.00448 0.0
C2772 C 0.79819 0.54429 0.01195 0.0
H2773 H 0.72492 0.54465 0.98794 0.0
H2774 H 0.74621 0.54785 -0.0014 0.0
C2775 C 0.80768 0.54222 0.0205 0.0
C2776 C 0.79151 0.55875 0.9959 0.0
H2777 H 0.77192 0.57248 0.00308 0.0
C2778 C 0.78554 0.55174 0.98003 0.0
C2779 C 0.78677 0.56654 0.00418 0.0
C2780 C 0.79278 0.57404 0.02144 0.0
C2781 C 0.7746 0.55196 0.97247 0.0
C2782 C 0.76964 0.55947 0.981 0.0
C2783 C 0.77586 0.56681 0.99657 0.0
C2784 C 0.75719 0.5587 0.97497 0.0
C2785 C 0.76803 0.54368 0.95592 0.0
C2786 C 0.75645 0.56399 0.95831 0.0
C2787 C 0.74431 0.56225 0.9522 0.0
C2788 C 0.73275 0.5552 0.9627 0.0
C2789 C 0.73366 0.55026 0.97963 0.0
C2790 C 0.74579 0.55203 0.98572 0.0
H2791 H 0.772 0.53701 0.95246 0.0
H2792 H 0.75713 0.53753 0.95799 0.0
H2793 H 0.76975 0.55034 0.94426 0.0
H2794 H 0.76522 0.5693 0.94995 0.0
H2795 H 0.74396 0.56637 0.93924 0.0
H2796 H 0.1911 0.7315 0.44755 0.0
H2797 H 0.20815 0.75256 0.4604 0.0
H2798 H 0.17822 0.75569 0.49085 0.0
H2799 H 0.16097 0.73477 0.4777 0.0
H2800 H 0.2087 0.77948 0.46154 0.0
H2801 H 0.20678 0.75567 0.52767 0.0
H2802 H 0.20102 0.74616 0.50707 0.0
H2803 H 0.19138 0.75248 0.51749 0.0
C2804 C 0.18808 0.73677 0.4567 0.0
C2805 C 0.17468 0.73143 0.46168 0.0
C2806 C 0.19784 0.74876 0.46406 0.0
C2807 C 0.19438 0.75555 0.47658 0.0
C2808 C 0.18103 0.75048 0.48127 0.0
H2809 H 0.24933 0.81997 0.54661 0.0
H2810 H 0.22891 0.80319 0.53203 0.0
C2811 C 0.17123 0.73851 0.47385 0.0
C2812 C 0.20491 0.76757 0.48542 0.0
H2813 H 0.22274 0.77821 0.52439 0.0
C2814 C 0.21173 0.77929 0.47533 0.0
C2815 C 0.20869 0.76721 0.50341 0.0
C2816 C 0.20167 0.75472 0.51462 0.0
C2817 C 0.22248 0.79072 0.48276 0.0
C2818 C 0.22665 0.7902 0.50053 0.0
C2819 C 0.21953 0.77856 0.51076 0.0
C2820 C 0.23884 0.80129 0.50847 0.0
C2821 C 0.22923 0.80321 0.47152 0.0
C2822 C 0.25117 0.80577 0.50004 0.0
C2823 C 0.26282 0.81546 0.50822 0.0
C2824 C 0.26239 0.82071 0.52513 0.0
C2825 C 0.25 0.81627 0.53347 0.0
C2826 C 0.23833 0.80664 0.52521 0.0
H2827 H 0.22236 0.80337 0.46122 0.0
H2828 H 0.23299 0.81225 0.48004 0.0
H2829 H 0.23777 0.80358 0.4643 0.0
H2830 H 0.25182 0.80154 0.48732 0.0
H2831 H 0.27219 0.81878 0.50133 0.0
H2832 H 0.43676 0.16894 0.99189 0.0
H2833 H 0.43414 0.18678 0.00502 0.0
H2834 H 0.43716 0.20347 0.95207 0.0
H2835 H 0.44027 0.18592 0.93888 0.0
H2836 H 0.4543 0.22152 0.97657 0.0
H2837 H 0.40339 0.19429 0.00501 0.0
H2838 H 0.41362 0.18752 0.01187 0.0
H2839 H 0.40933 0.18706 0.98846 0.0
C2840 C 0.43682 0.17638 0.98303 0.0
C2841 C 0.4388 0.17608 0.96437 0.0
C2842 C 0.43512 0.18645 0.99052 0.0
C2843 C 0.43526 0.19631 0.97947 0.0
C2844 C 0.4369 0.19586 0.96079 0.0
H2845 H 0.42402 0.26136 0.01623 0.0
H2846 H 0.42132 0.2414 0.00111 0.0
C2847 C 0.43862 0.1858 0.95328 0.0
C2848 C 0.43507 0.2078 0.98762 0.0
H2849 H 0.41746 0.21652 0.01581 0.0
C2850 C 0.44618 0.22045 0.98498 0.0
C2851 C 0.42441 0.20636 0.99846 0.0
C2852 C 0.41195 0.19309 0.00099 0.0
C2853 C 0.44713 0.23167 0.9934 0.0
C2854 C 0.43678 0.23014 0.00496 0.0
C2855 C 0.42544 0.21758 0.00711 0.0
C2856 C 0.43773 0.24151 0.01504 0.0
C2857 C 0.45921 0.24509 0.98989 0.0
C2858 C 0.44763 0.2479 0.02815 0.0
C2859 C 0.44925 0.2593 0.03671 0.0
C2860 C 0.44094 0.26446 0.03232 0.0
C2861 C 0.43069 0.25771 0.01966 0.0
C2862 C 0.42908 0.24629 0.01112 0.0
H2863 H 0.46454 0.24505 0.97747 0.0
H2864 H 0.45641 0.25289 0.98856 0.0
H2865 H 0.46619 0.24777 0.00142 0.0
H2866 H 0.4543 0.24422 0.03147 0.0
H2867 H 0.45728 0.26432 0.0463 0.0
H2868 H 0.19168 0.45543 0.54136 0.0
H2869 H 0.2078 0.45059 0.52718 0.0
H2870 H 0.17591 0.41598 0.5016 0.0
H2871 H 0.15964 0.42083 0.51566 0.0
H2872 H 0.20762 0.42407 0.52909 0.0
H2873 H 0.20289 0.44115 0.46054 0.0
H2874 H 0.19837 0.44681 0.48058 0.0
H2875 H 0.1881 0.43005 0.47298 0.0
C2876 C 0.1881 0.44682 0.53267 0.0
C2877 C 0.17444 0.43855 0.52949 0.0
C2878 C 0.19729 0.44402 0.5247 0.0
C2879 C 0.19298 0.43298 0.51335 0.0
C2880 C 0.17936 0.42457 0.51031 0.0
H2881 H 0.25045 0.42371 0.44703 0.0
H2882 H 0.22905 0.41883 0.45998 0.0
C2883 C 0.17012 0.42731 0.51839 0.0
C2884 C 0.20294 0.43063 0.50443 0.0
H2885 H 0.22013 0.43648 0.46505 0.0
C2886 C 0.21024 0.42655 0.51501 0.0
C2887 C 0.20618 0.43377 0.48605 0.0
C2888 C 0.19855 0.43823 0.47427 0.0
C2889 C 0.22116 0.42608 0.50784 0.0
C2890 C 0.22499 0.43012 0.48979 0.0
C2891 C 0.21719 0.43345 0.47892 0.0
C2892 C 0.23776 0.43232 0.4825 0.0
C2893 C 0.22864 0.42154 0.51976 0.0
C2894 C 0.24969 0.44163 0.49078 0.0
C2895 C 0.26186 0.44448 0.48341 0.0
C2896 C 0.26234 0.43814 0.46752 0.0
C2897 C 0.25037 0.42882 0.45922 0.0
C2898 C 0.23817 0.42596 0.46664 0.0
H2899 H 0.2221 0.41467 0.53044 0.0
H2900 H 0.23291 0.41646 0.51182 0.0
H2901 H 0.2369 0.43031 0.52652 0.0
H2902 H 0.24959 0.44696 0.50272 0.0
H2903 H 0.27091 0.45189 0.48991 0.0
H2904 H 0.8015 0.26883 0.95241 0.0
H2905 H 0.78338 0.24897 0.9664 0.0
H2906 H 0.81186 0.24201 0.99447 0.0
H2907 H 0.83005 0.26217 0.98112 0.0
H2908 H 0.77805 0.22284 0.96403 0.0
H2909 H 0.78743 0.24085 0.03497 0.0
H2910 H 0.7949 0.25184 0.01597 0.0
H2911 H 0.80142 0.24155 0.02361 0.0
C2912 C 0.80391 0.26318 0.96176 0.0
C2913 C 0.8172 0.26711 0.96575 0.0
C2914 C 0.79356 0.25179 0.96961 0.0
C2915 C 0.79631 0.24415 0.98162 0.0
C2916 C 0.80955 0.24792 0.98547 0.0
H2917 H 0.74149 0.17215 0.04056 0.0
H2918 H 0.76157 0.19036 0.02692 0.0
C2919 C 0.81992 0.25934 0.97767 0.0
C2920 C 0.78525 0.23215 0.98989 0.0
H2921 H 0.77036 0.21868 0.03015 0.0
C2922 C 0.77638 0.2219 0.97849 0.0
C2923 C 0.78317 0.23099 0.00876 0.0
C2924 C 0.79215 0.24192 0.02157 0.0
C2925 C 0.76535 0.21052 0.98546 0.0
C2926 C 0.76313 0.20949 0.00427 0.0
C2927 C 0.77217 0.21956 0.01573 0.0
C2928 C 0.75107 0.19837 0.01223 0.0
C2929 C 0.75614 0.1997 0.97269 0.0
C2930 C 0.73862 0.19704 0.0086 0.0
C2931 C 0.72719 0.18678 0.01649 0.0
C2932 C 0.72801 0.17767 0.02815 0.0
C2933 C 0.74054 0.17908 0.03178 0.0
C2934 C 0.752 0.1894 0.02393 0.0
H2935 H 0.76091 0.20048 0.95941 0.0
H2936 H 0.75289 0.18973 0.97849 0.0
H2937 H 0.74715 0.20056 0.9704 0.0
H2938 H 0.73778 0.20405 -0.00014 0.0
H2939 H 0.71774 0.18615 0.0137 0.0
H2940 H 0.5308 0.80426 0.47233 0.0
H2941 H 0.53496 0.78831 0.48827 0.0
H2942 H 0.5759 0.8185 0.49617 0.0
H2943 H 0.57177 0.83472 0.48067 0.0
H2944 H 0.57078 0.79277 0.48114 0.0
H2945 H 0.54259 0.78813 0.54378 0.0
H2946 H 0.53384 0.78705 0.52327 0.0
H2947 H 0.54866 0.80231 0.52889 0.0
C2948 C 0.54064 0.8076 0.47772 0.0
C2949 C 0.55094 0.82079 0.47531 0.0
C2950 C 0.543 0.79847 0.48676 0.0
C2951 C 0.55568 0.80233 0.49353 0.0
C2952 C 0.56604 0.81541 0.49107 0.0
H2953 H 0.56467 0.7445 0.55917 0.0
H2954 H 0.56836 0.76597 0.54816 0.0
C2955 C 0.56367 0.82461 0.48212 0.0
C2956 C 0.5581 0.79244 0.50256 0.0
H2957 H 0.54757 0.77083 0.53795 0.0
C2958 C 0.56592 0.78811 0.49372 0.0
C2959 C 0.55187 0.78656 0.51907 0.0
C2960 C 0.54386 0.79131 0.52943 0.0
C2961 C 0.56699 0.77741 0.50045 0.0
C2962 C 0.55998 0.77091 0.5163 0.0
C2963 C 0.55285 0.7758 0.52572 0.0
C2964 C 0.55885 0.75831 0.5224 0.0
C2965 C 0.57532 0.77292 0.49035 0.0
C2966 C 0.55223 0.74695 0.51155 0.0
C2967 C 0.54995 0.73469 0.51785 0.0
C2968 C 0.55424 0.73355 0.53515 0.0
C2969 C 0.56109 0.74502 0.54588 0.0
C2970 C 0.5633 0.7573 0.53958 0.0
H2971 H 0.58296 0.78103 0.48187 0.0
H2972 H 0.58035 0.76942 0.49979 0.0
H2973 H 0.5688 0.76454 0.48133 0.0
H2974 H 0.54844 0.7475 0.49842 0.0
H2975 H 0.54442 0.72602 0.50938 0.0
H2976 H 0.3432 0.39375 0.0626 0.0
H2977 H 0.35263 0.37961 0.0557 0.0
H2978 H 0.3672 0.3998 0.00486 0.0
H2979 H 0.35773 0.41401 0.01164 0.0
H2980 H 0.34981 0.36253 0.02569 0.0
H2981 H 0.40082 0.40625 0.03256 0.0
H2982 H 0.38625 0.40665 0.04002 0.0
H2983 H 0.39004 0.40763 0.0164 0.0
C2984 C 0.34817 0.39502 0.04979 0.0
C2985 C 0.34985 0.40508 0.03773 0.0
C2986 C 0.35356 0.38694 0.04588 0.0
C2987 C 0.36073 0.38879 0.02989 0.0
C2988 C 0.36186 0.39837 0.01739 0.0
H2989 H 0.41579 0.35898 0.01536 0.0
H2990 H 0.40138 0.36797 0.00732 0.0
C2991 C 0.3565 0.40649 0.02131 0.0
C2992 C 0.3679 0.38143 0.0272 0.0
H2993 H 0.39903 0.38547 0.02849 0.0
C2994 C 0.36058 0.36752 0.02604 0.0
C2995 C 0.38194 0.38802 0.02761 0.0
C2996 C 0.39028 0.40295 0.02933 0.0
C2997 C 0.36695 0.35997 0.02582 0.0
C2998 C 0.38096 0.36653 0.02716 0.0
C2999 C 0.38828 0.38047 0.02744 0.0
C3000 C 0.38824 0.35928 0.0302 0.0
C3001 C 0.35862 0.34504 0.02443 0.0
C3002 C 0.38551 0.35129 0.04558 0.0
C3003 C 0.39372 0.34617 0.05021 0.0
C3004 C 0.4049 0.34912 0.03964 0.0
C3005 C 0.40732 0.3567 0.02386 0.0
C3006 C 0.39906 0.36176 0.01919 0.0
H3007 H 0.34912 0.34201 0.01729 0.0
H3008 H 0.36401 0.34078 0.01724 0.0
H3009 H 0.35616 0.34074 0.03821 0.0
H3010 H 0.37744 0.34956 0.05455 0.0
H3011 H 0.39172 0.34051 0.06257 0.0
H3012 H 0.05744 0.39334 0.53307 0.0
H3013 H 0.03379 0.37803 0.52697 0.0
H3014 H 0.02319 0.39871 0.5659 0.0
H3015 H 0.04664 0.41423 0.57172 0.0
H3016 H 0.00981 0.3676 0.56707 0.0
H3017 H 0.00801 0.39105 0.50224 0.0
H3018 H 0.0215 0.38796 0.50676 0.0
H3019 H 0.02029 0.40053 0.51922 0.0
C3020 C 0.05007 0.39468 0.54024 0.0
C3021 C 0.05392 0.405 0.55292 0.0
C3022 C 0.0366 0.38589 0.5368 0.0
C3023 C 0.02686 0.3873 0.54602 0.0
C3024 C 0.03064 0.39746 0.55876 0.0
H3025 H 0.94914 0.371 0.54898 0.0
H3026 H 0.97281 0.379 0.54554 0.0
C3027 C 0.04404 0.40627 0.56213 0.0
C3028 C 0.01262 0.37842 0.54239 0.0
H3029 H 0.98759 0.37544 0.51521 0.0
C3030 C 0.00492 0.36902 0.55552 0.0
C3031 C 0.0064 0.38045 0.52733 0.0
C3032 C 0.01439 0.39054 0.513 0.0
C3033 C 0.99101 0.36206 0.55448 0.0
C3034 C 0.98475 0.3646 0.53991 0.0
C3035 C 0.99249 0.3735 0.52628 0.0
C3036 C 0.97033 0.35961 0.54002 0.0
C3037 C 0.98307 0.35269 0.56954 0.0
C3038 C 0.96112 0.34607 0.5377 0.0
C3039 C 0.94752 0.34145 0.5395 0.0
C3040 C 0.94296 0.35032 0.54368 0.0
C3041 C 0.95226 0.36393 0.54547 0.0
C3042 C 0.96581 0.36852 0.5436 0.0
H3043 H 0.98948 0.35274 0.58069 0.0
H3044 H 0.97587 0.35542 0.5751 0.0
H3045 H 0.9773 0.34242 0.56417 0.0
H3046 H 0.96448 0.33909 0.53479 0.0
H3047 H 0.94059 0.33094 0.53777 0.0
H3048 H 0.59566 0.94922 0.08083 0.0
H3049 H 0.61233 0.97244 0.07578 0.0
H3050 H 0.61658 0.9636 0.02051 0.0
H3051 H 0.59998 0.94018 0.02551 0.0
H3052 H 0.63971 0.98462 0.06203 0.0
H3053 H 0.60517 0.99248 0.01828 0.0
H3054 H 0.59932 0.97821 0.03288 0.0
H3055 H 0.60818 0.97916 0.01261 0.0
C3056 C 0.60031 0.95212 0.06769 0.0
C3057 C 0.59645 0.94285 0.05355 0.0
C3058 C 0.60981 0.9654 0.06482 0.0
C3059 C 0.61558 0.9697 0.04776 0.0
C3060 C 0.6121 0.96046 0.03372 0.0
H3061 H 0.65694 0.05484 0.02262 0.0
H3062 H 0.64973 0.03125 0.01859 0.0
C3063 C 0.60259 0.94712 0.03659 0.0
C3064 C 0.62457 0.98403 0.04465 0.0
H3065 H 0.62503 0.0113 0.02686 0.0
C3066 C 0.63665 0.99047 0.05409 0.0
C3067 C 0.62056 0.99156 0.03415 0.0
C3068 C 0.60758 0.98508 0.02393 0.0
C3069 C 0.64455 0.00436 0.05397 0.0
C3070 C 0.64006 0.01195 0.04451 0.0
C3071 C 0.62842 0.00545 0.03414 0.0
C3072 C 0.64624 0.02648 0.047 0.0
C3073 C 0.65744 0.01079 0.06435 0.0
C3074 C 0.64671 0.0316 0.06429 0.0
C3075 C 0.65073 0.04499 0.06662 0.0
C3076 C 0.65426 0.05353 0.05166 0.0
C3077 C 0.65416 0.04847 0.03438 0.0
C3078 C 0.65014 0.03504 0.03207 0.0
H3079 H 0.66173 0.00413 0.06506 0.0
H3080 H 0.66486 0.02036 0.05815 0.0
H3081 H 0.65553 0.01274 0.07838 0.0
H3082 H 0.64335 0.0251 0.07594 0.0
H3083 H 0.65044 0.0485 0.08006 0.0
H3084 H 0.65029 0.59709 0.51728 0.0
H3085 H 0.64224 0.61261 0.51151 0.0
H3086 H 0.64545 0.62204 0.5682 0.0
H3087 H 0.65321 0.60643 0.57416 0.0
H3088 H 0.61882 0.6088 0.52747 0.0
H3089 H 0.66082 0.65868 0.5441 0.0
H3090 H 0.66305 0.64472 0.53891 0.0
H3091 H 0.65786 0.6465 0.5611 0.0
C3092 C 0.64941 0.60257 0.52849 0.0
C3093 C 0.65232 0.60046 0.5462 0.0
C3094 C 0.64493 0.61151 0.52513 0.0
C3095 C 0.64345 0.6186 0.53939 0.0
C3096 C 0.64686 0.61693 0.55695 0.0
H3097 H 0.60102 0.6552 0.57406 0.0
H3098 H 0.61704 0.64788 0.568 0.0
C3099 C 0.65128 0.60796 0.56033 0.0
C3100 C 0.63658 0.62624 0.53652 0.0
H3101 H 0.6389 0.65614 0.54536 0.0
C3102 C 0.62327 0.61924 0.53096 0.0
C3103 C 0.64245 0.63981 0.54117 0.0
C3104 C 0.65687 0.64791 0.54649 0.0
C3105 C 0.61535 0.6252 0.53113 0.0
C3106 C 0.62105 0.63863 0.53657 0.0
C3107 C 0.63457 0.64584 0.54121 0.0
C3108 C 0.61277 0.64484 0.53941 0.0
C3109 C 0.60076 0.61678 0.52665 0.0
C3110 C 0.6054 0.64597 0.52522 0.0
C3111 C 0.59614 0.65002 0.52869 0.0
C3112 C 0.5943 0.65321 0.54635 0.0
C3113 C 0.60229 0.65286 0.56032 0.0
C3114 C 0.61143 0.64868 0.55687 0.0
H3115 H 0.59747 0.60601 0.52632 0.0
H3116 H 0.59458 0.61839 0.53665 0.0
H3117 H 0.59887 0.61962 0.51315 0.0
H3118 H 0.60651 0.64332 0.51159 0.0
H3119 H 0.59025 0.65042 0.51765 0.0
H3120 H 0.94847 0.58918 0.08271 0.0
H3121 H 0.97158 0.60637 0.07848 0.0
H3122 H 0.95978 0.62505 0.03792 0.0
H3123 H 0.93648 0.60785 0.04217 0.0
H3124 H 0.97981 0.62088 0.02657 0.0
H3125 H 0.99235 0.64523 0.09331 0.0
H3126 H 0.98455 0.62752 0.09549 0.0
H3127 H 0.97539 0.63477 0.0859 0.0
C3128 C 0.95073 0.59711 0.0732 0.0
C3129 C 0.94064 0.59717 0.0628 0.0
C3130 C 0.96395 0.60695 0.07082 0.0
C3131 C 0.96736 0.61711 0.05812 0.0
C3132 C 0.95732 0.61734 0.04789 0.0
H3133 H 0.05347 0.67242 0.05603 0.0
H3134 H 0.02978 0.66543 0.05468 0.0
C3135 C 0.94406 0.60748 0.05026 0.0
C3136 C 0.98152 0.62666 0.05451 0.0
H3137 H 0.01079 0.64656 0.07612 0.0
C3138 C 0.98657 0.62675 0.03728 0.0
C3139 C 0.99029 0.63454 0.06837 0.0
C3140 C 0.98533 0.63563 0.08674 0.0
C3141 C 0.00029 0.63365 0.03397 0.0
C3142 C 0.00911 0.64038 0.04836 0.0
C3143 C 0.00401 0.64122 0.06516 0.0
C3144 C 0.02351 0.64517 0.04699 0.0
C3145 C 0.0052 0.63329 0.01526 0.0
C3146 C 0.0278 0.6361 0.04309 0.0
C3147 C 0.04124 0.64002 0.04394 0.0
C3148 C 0.05068 0.65308 0.04887 0.0
C3149 C 0.04641 0.66226 0.05235 0.0
C3150 C 0.03291 0.65832 0.05148 0.0
H3151 H -0.00219 0.63217 0.00487 0.0
H3152 H 0.01479 0.64243 0.01233 0.0
H3153 H 0.00668 0.62459 0.01412 0.0
H3154 H 0.02067 0.6258 0.04013 0.0
H3155 H 0.04416 0.63263 0.04155 0.0
H3156 H 0.38127 0.05356 0.57406 0.0
H3157 H 0.36461 0.02988 0.57226 0.0
H3158 H 0.38701 0.02482 0.52971 0.0
H3159 H 0.4037 0.04842 0.53144 0.0
H3160 H 0.35826 0.01005 0.52511 0.0
H3161 H 0.37536 0.00328 0.59245 0.0
H3162 H 0.37 0.01533 0.59116 0.0
H3163 H 0.3847 0.01822 0.57932 0.0
C3164 C 0.38257 0.04741 0.56422 0.0
C3165 C 0.39386 0.05279 0.55304 0.0
C3166 C 0.37304 0.03393 0.56317 0.0
C3167 C 0.37472 0.02563 0.55102 0.0
C3168 C 0.38556 0.03111 0.53915 0.0
H3169 H 0.3498 0.94505 0.52914 0.0
H3170 H 0.35659 0.96857 0.52709 0.0
C3171 C 0.39507 0.04459 0.54014 0.0
C3172 C 0.36599 0.01107 0.55183 0.0
H3173 H 0.35915 0.98419 0.57781 0.0
C3174 C 0.3583 0.00436 0.53669 0.0
C3175 C 0.36611 0.00374 0.56698 0.0
C3176 C 0.37454 0.01045 0.58338 0.0
C3177 C 0.35086 0.99042 0.53619 0.0
C3178 C 0.35139 0.98309 0.55108 0.0
C3179 C 0.35872 0.98984 0.56645 0.0
C3180 C 0.34548 0.96848 0.55061 0.0
C3181 C 0.3426 0.9837 0.51971 0.0
C3182 C 0.337 0.96061 0.56452 0.0
C3183 C 0.33324 0.9472 0.56583 0.0
C3184 C 0.33791 0.94144 0.55326 0.0
C3185 C 0.34592 0.94918 0.53888 0.0
C3186 C 0.34974 0.96262 0.53764 0.0
H3187 H 0.33963 0.99024 0.51264 0.0
H3188 H 0.34858 0.98146 0.51015 0.0
H3189 H 0.33351 0.97423 0.52326 0.0
H3190 H 0.33367 0.96497 0.57472 0.0
H3191 H 0.32694 0.9414 0.57694 0.0
H3192 H 0.60484 0.65686 0.92621 0.0
H3193 H 0.62001 0.64832 0.93148 0.0
H3194 H 0.60344 0.63535 0.98466 0.0
H3195 H 0.58805 0.64363 0.9793 0.0
H3196 H 0.63915 0.6522 0.95747 0.0
H3197 H 0.59563 0.60092 0.9598 0.0
H3198 H 0.59425 0.615 0.95259 0.0
H3199 H 0.59537 0.61215 0.9762 0.0
C3200 C 0.60461 0.6524 0.93914 0.0
C3201 C 0.59517 0.65071 0.95227 0.0
C3202 C 0.61327 0.64754 0.94213 0.0
C3203 C 0.61265 0.64099 0.95832 0.0
C3204 C 0.60385 0.64011 0.97192 0.0
H3205 H 0.64516 0.58909 0.97945 0.0
H3206 H 0.63692 0.60448 0.98484 0.0
C3207 C 0.59509 0.64484 0.96886 0.0
C3208 C 0.62036 0.63409 0.96021 0.0
H3209 H 0.61669 0.60314 0.96332 0.0
C3210 C 0.63428 0.64149 0.95891 0.0
C3211 C 0.61394 0.6201 0.96201 0.0
C3212 C 0.59898 0.61153 0.96258 0.0
C3213 C 0.64194 0.63522 0.95915 0.0
C3214 C 0.63547 0.62123 0.96055 0.0
C3215 C 0.62161 0.61389 0.96239 0.0
C3216 C 0.6426 0.61375 0.95856 0.0
C3217 C 0.65686 0.64358 0.95775 0.0
C3218 C 0.64869 0.61404 0.9421 0.0
C3219 C 0.6533 0.60519 0.93892 0.0
C3220 C 0.65179 0.59584 0.95212 0.0
C3221 C 0.64628 0.59604 0.96892 0.0
C3222 C 0.64166 0.60488 0.97208 0.0
H3223 H 0.66045 0.65398 0.9621 0.0
H3224 H 0.66181 0.63935 0.96606 0.0
H3225 H 0.65987 0.6438 0.94349 0.0
H3226 H 0.64922 0.62059 0.93134 0.0
H3227 H 0.65735 0.60518 0.92576 0.0
H3228 H 0.9404 0.61496 0.43713 0.0
H3229 H 0.96434 0.63065 0.43945 0.0
H3230 H 0.96959 0.60094 0.46713 0.0
H3231 H 0.94581 0.58529 0.46493 0.0
H3232 H 0.98562 0.62686 0.4809 0.0
H3233 H 0.98894 0.62448 0.40609 0.0
H3234 H 0.97811 0.63008 0.41467 0.0
H3235 H 0.97415 0.61321 0.4184 0.0
C3236 C 0.94667 0.61185 0.44389 0.0
C3237 C 0.94126 0.59886 0.45069 0.0
C3238 C 0.9603 0.62082 0.44522 0.0
C3239 C 0.96872 0.61686 0.45322 0.0
C3240 C 0.96324 0.60418 0.46094 0.0
H3241 H 0.04432 0.62813 0.43493 0.0
H3242 H 0.02108 0.62199 0.43842 0.0
C3243 C 0.94964 0.59525 0.4597 0.0
C3244 C 0.98332 0.62523 0.45204 0.0
H3245 H 0.00891 0.63555 0.4221 0.0
C3246 C 0.99076 0.62901 0.46806 0.0
C3247 C 0.98993 0.62788 0.43522 0.0
C3248 C 0.98243 0.62365 0.41759 0.0
C3249 C 0.00465 0.63483 0.46773 0.0
C3250 C 0.01118 0.637 0.45094 0.0
C3251 C 0.00381 0.63386 0.43492 0.0
C3252 C 0.02535 0.64091 0.44966 0.0
C3253 C 0.01218 0.63788 0.4853 0.0
C3254 C 0.03542 0.65359 0.4549 0.0
C3255 C 0.04877 0.6571 0.45307 0.0
C3256 C 0.0522 0.64798 0.44595 0.0
C3257 C 0.04203 0.6353 0.44077 0.0
C3258 C 0.02875 0.63181 0.4426 0.0
H3259 H 0.00543 0.63408 0.49715 0.0
H3260 H 0.01872 0.63346 0.4854 0.0
H3261 H 0.01859 0.6488 0.48676 0.0
H3262 H 0.03296 0.66078 0.4602 0.0
H3263 H 0.0564 0.66693 0.45725 0.0
H3264 H 0.38225 0.05556 0.93656 0.0
H3265 H 0.36572 0.03195 0.93962 0.0
H3266 H 0.3939 0.02569 0.9697 0.0
H3267 H 0.41048 0.04912 0.96649 0.0
H3268 H 0.37024 0.01247 0.92548 0.0
H3269 H 0.35956 0.00412 0.99853 0.0
H3270 H 0.36684 0.02041 0.98834 0.0
H3271 H 0.37704 0.01326 0.99377 0.0
C3272 C 0.38487 0.04917 0.944 0.0
C3273 C 0.3977 0.0542 0.95121 0.0
C3274 C 0.37538 0.03573 0.94586 0.0
C3275 C 0.37853 0.02714 0.95511 0.0
C3276 C 0.39115 0.03223 0.96293 0.0
H3277 H 0.36058 0.9479 0.96197 0.0
H3278 H 0.36734 0.9713 0.9663 0.0
C3279 C 0.40064 0.04563 0.96104 0.0
C3280 C 0.36947 0.01262 0.95448 0.0
H3281 H 0.3552 0.98486 0.98089 0.0
C3282 C 0.36666 0.00641 0.93755 0.0
C3283 C 0.36489 0.0048 0.97028 0.0
C3284 C 0.36713 0.011 0.98875 0.0
C3285 C 0.36017 0.99255 0.93602 0.0
C3286 C 0.35613 0.98471 0.95187 0.0
C3287 C 0.35833 0.99091 0.96878 0.0
C3288 C 0.3509 0.97022 0.95117 0.0
C3289 C 0.3585 0.98647 0.9175 0.0
C3290 C 0.33919 0.96181 0.9417 0.0
C3291 C 0.33537 0.94847 0.93909 0.0
C3292 C 0.3431 0.94331 0.94614 0.0
C3293 C 0.3544 0.95159 0.95648 0.0
C3294 C 0.35827 0.96495 0.95895 0.0
H3295 H 0.36451 0.99401 0.90713 0.0
H3296 H 0.36141 0.97871 0.91758 0.0
H3297 H 0.3479 0.98172 0.91344 0.0
H3298 H 0.33323 0.96566 0.93592 0.0
H3299 H 0.32649 0.94222 0.93133 0.0
H3300 H 0.33646 0.38895 0.43247 0.0
H3301 H 0.34428 0.37353 0.4398 0.0
H3302 H 0.35949 0.39348 0.49064 0.0
H3303 H 0.35159 0.40892 0.48347 0.0
H3304 H 0.37829 0.39243 0.46898 0.0
H3305 H 0.33366 0.34243 0.47464 0.0
H3306 H 0.33374 0.35127 0.45474 0.0
H3307 H 0.33294 0.35756 0.47659 0.0
C3308 C 0.3411 0.38982 0.44545 0.0
C3309 C 0.3435 0.40021 0.45734 0.0
C3310 C 0.34552 0.38096 0.44965 0.0
C3311 C 0.35232 0.38228 0.46585 0.0
C3312 C 0.35419 0.39226 0.47812 0.0
H3313 H 0.40649 0.35199 0.48717 0.0
H3314 H 0.39152 0.36072 0.49295 0.0
C3315 C 0.34977 0.40113 0.47393 0.0
C3316 C 0.35915 0.37459 0.46865 0.0
H3317 H 0.35442 0.34313 0.4691 0.0
C3318 C 0.37308 0.38166 0.46939 0.0
C3319 C 0.35229 0.36054 0.469 0.0
C3320 C 0.33732 0.3525 0.46887 0.0
C3321 C 0.3804 0.37508 0.4695 0.0
C3322 C 0.37357 0.36101 0.46938 0.0
C3323 C 0.35961 0.35391 0.46927 0.0
C3324 C 0.38084 0.35364 0.46775 0.0
C3325 C 0.39538 0.38328 0.46869 0.0
C3326 C 0.37922 0.34608 0.45221 0.0
C3327 C 0.38762 0.34093 0.44902 0.0
C3328 C 0.3978 0.34336 0.46128 0.0
C3329 C 0.39884 0.35018 0.47739 0.0
C3330 C 0.39032 0.35517 0.48069 0.0
H3331 H 0.39887 0.39375 0.4648 0.0
H3332 H 0.39956 0.38336 0.48219 0.0
H3333 H 0.39945 0.379 0.45889 0.0
H3334 H 0.37193 0.34477 0.44209 0.0
H3335 H 0.38665 0.33575 0.43646 0.0
H3336 H 0.05386 0.38145 0.92885 0.0
H3337 H 0.03038 0.36433 0.93167 0.0
H3338 H 0.02396 0.38981 0.96759 0.0
H3339 H 0.04739 0.40682 0.96506 0.0
H3340 H 0.01004 0.3631 0.97786 0.0
H3341 H 0.00274 0.36969 0.90509 0.0
H3342 H 0.0148 0.36477 0.91 0.0
H3343 H 0.01781 0.38086 0.91696 0.0
C3344 C 0.04744 0.38332 0.93747 0.0
C3345 C 0.05237 0.39549 0.94659 0.0
C3346 C 0.03407 0.37355 0.93907 0.0
C3347 C 0.02542 0.37593 0.94957 0.0
C3348 C 0.03049 0.3878 0.95941 0.0
H3349 H 0.94668 0.35659 0.96482 0.0
H3350 H 0.9699 0.36265 0.96822 0.0
C3351 C 0.04386 0.3975 0.95797 0.0
C3352 C 0.01092 0.36668 0.94924 0.0
H3353 H 0.98382 0.35563 0.92188 0.0
C3354 C 0.0043 0.36129 0.96559 0.0
C3355 C 0.00348 0.36434 0.93318 0.0
C3356 C 0.01001 0.37028 0.91532 0.0
C3357 C 0.99037 0.35402 0.96641 0.0
C3358 C 0.98296 0.35224 0.95051 0.0
C3359 C 0.98958 0.357 0.93403 0.0
C3360 C 0.96846 0.34701 0.95085 0.0
C3361 C 0.98371 0.34857 0.98433 0.0
C3362 C 0.95995 0.33617 0.93999 0.0
C3363 C 0.94663 0.33266 0.93802 0.0
C3364 C 0.94165 0.34003 0.94674 0.0
C3365 C 0.95012 0.35056 0.95815 0.0
C3366 C 0.9634 0.35403 0.96015 0.0
H3367 H 0.99028 0.34694 0.99359 0.0
H3368 H 0.98146 0.35584 0.99079 0.0
H3369 H 0.97424 0.33905 0.98262 0.0
H3370 H 0.96373 0.33071 0.9326 0.0
H3371 H 0.94031 0.32437 0.92934 0.0
H3372 H 0.5872 0.94458 0.46465 0.0
H3373 H 0.60412 0.96807 0.46698 0.0
H3374 H 0.62561 0.96358 0.42264 0.0
H3375 H 0.6086 0.94006 0.42009 0.0
H3376 H 0.63192 0.98227 0.47169 0.0
H3377 H 0.61666 0.99137 0.40441 0.0
H3378 H 0.60709 0.97594 0.41642 0.0
H3379 H 0.62205 0.97934 0.40481 0.0
C3380 C 0.59566 0.94854 0.45562 0.0
C3381 C 0.59652 0.94056 0.44204 0.0
C3382 C 0.60531 0.96194 0.45696 0.0
C3383 C 0.61598 0.96757 0.44479 0.0
C3384 C 0.6173 0.95945 0.43192 0.0
H3385 H 0.66624 0.05232 0.42369 0.0
H3386 H 0.65926 0.02867 0.4253 0.0
C3387 C 0.60759 0.94606 0.43047 0.0
C3388 C 0.62498 0.98212 0.44469 0.0
H3389 H 0.63314 0.00986 0.41984 0.0
C3390 C 0.63233 0.98833 0.4603 0.0
C3391 C 0.62544 0.98995 0.4298 0.0
C3392 C 0.61733 0.98387 0.41295 0.0
C3393 C 0.63994 0.00223 0.46153 0.0
C3394 C 0.64003 0.01004 0.44686 0.0
C3395 C 0.63309 0.00381 0.43103 0.0
C3396 C 0.64611 0.02463 0.44805 0.0
C3397 C 0.64767 0.00843 0.47856 0.0
C3398 C 0.64119 0.0302 0.46051 0.0
C3399 C 0.64509 0.04367 0.45956 0.0
C3400 C 0.65388 0.05175 0.446 0.0
C3401 C 0.6593 0.04628 0.43411 0.0
C3402 C 0.65541 0.03282 0.43509 0.0
H3403 H 0.65003 0.0015 0.48585 0.0
H3404 H 0.65709 0.01776 0.47561 0.0
H3405 H 0.6416 0.01085 0.48767 0.0
H3406 H 0.63375 0.02399 0.47033 0.0
H3407 H 0.64062 0.04755 0.46876 0.0
H3408 H 0.46754 0.62188 0.97801 0.0
H3409 H 0.44753 0.60355 0.99159 0.0
H3410 H 0.46155 0.57648 0.97864 0.0
H3411 H 0.48168 0.59473 0.9654 0.0
H3412 H 0.43423 0.56795 0.96849 0.0
H3413 H 0.44597 0.58419 0.04007 0.0
H3414 H 0.44714 0.59642 0.02413 0.0
H3415 H 0.45851 0.59024 0.02263 0.0
C3416 C 0.46644 0.61206 0.97824 0.0
C3417 C 0.47621 0.60977 0.97062 0.0
C3418 C 0.455 0.60161 0.98596 0.0
C3419 C 0.45316 0.58873 0.9862 0.0
C3420 C 0.46282 0.58638 0.97854 0.0
H3421 H 0.40049 0.51724 0.04352 0.0
H3422 H 0.41927 0.53728 0.03079 0.0
C3423 C 0.47427 0.5968 0.97089 0.0
C3424 C 0.44108 0.57758 0.99422 0.0
H3425 H 0.42535 0.5649 0.03431 0.0
C3426 C 0.43222 0.56729 0.98286 0.0
C3427 C 0.43862 0.57677 0.01297 0.0
C3428 C 0.44808 0.58742 0.02576 0.0
C3429 C 0.42093 0.55613 0.9898 0.0
C3430 C 0.41845 0.55533 0.00855 0.0
C3431 C 0.42728 0.56564 0.01992 0.0
C3432 C 0.40704 0.54355 0.0167 0.0
C3433 C 0.41193 0.5451 0.97713 0.0
C3434 C 0.39399 0.5406 0.01314 0.0
C3435 C 0.38324 0.52915 0.02035 0.0
C3436 C 0.3854 0.52048 0.0312 0.0
C3437 C 0.39852 0.52363 0.03499 0.0
C3438 C 0.40924 0.5351 0.02785 0.0
H3439 H 0.41651 0.54616 0.96363 0.0
H3440 H 0.40941 0.53527 0.98282 0.0
H3441 H 0.40252 0.54526 0.97536 0.0
H3442 H 0.39212 0.54709 0.00468 0.0
H3443 H 0.37325 0.52694 0.01712 0.0
H3444 H 0.84482 0.37551 0.51864 0.0
H3445 H 0.8445 0.39492 0.50636 0.0
H3446 H 0.88433 0.42042 0.52596 0.0
H3447 H 0.88469 0.40115 0.53849 0.0
H3448 H 0.84883 0.41865 0.52491 0.0
H3449 H 0.88626 0.42905 0.47135 0.0
H3450 H 0.87764 0.4133 0.48298 0.0
H3451 H 0.89127 0.42741 0.49369 0.0
C3452 C 0.85347 0.38526 0.52048 0.0
C3453 C 0.86483 0.38678 0.52941 0.0
C3454 C 0.85328 0.39631 0.51339 0.0
C3455 C 0.86446 0.40903 0.51503 0.0
C3456 C 0.8757 0.41063 0.52424 0.0
H3457 H 0.88662 0.48838 0.48074 0.0
H3458 H 0.88542 0.46841 0.49358 0.0
C3459 C 0.8759 0.39961 0.53135 0.0
C3460 C 0.8644 0.42068 0.50715 0.0
H3461 H 0.87985 0.44526 0.47586 0.0
C3462 C 0.85554 0.42444 0.51412 0.0
C3463 C 0.87319 0.42817 0.4931 0.0
C3464 C 0.88256 0.42425 0.48469 0.0
C3465 C 0.85548 0.43578 0.50768 0.0
C3466 C 0.86434 0.44333 0.49369 0.0
C3467 C 0.8731 0.43946 0.48662 0.0
C3468 C 0.86483 0.45539 0.48628 0.0
C3469 C 0.84621 0.43977 0.51625 0.0
C3470 C 0.85368 0.45464 0.4778 0.0
C3471 C 0.85434 0.46603 0.47046 0.0
C3472 C 0.86621 0.47833 0.47129 0.0
C3473 C 0.87738 0.47902 0.47972 0.0
C3474 C 0.87669 0.46765 0.48712 0.0
H3475 H 0.84265 0.43503 0.52966 0.0
H3476 H 0.85116 0.45072 0.5179 0.0
H3477 H 0.83741 0.43656 0.50744 0.0
H3478 H 0.84453 0.44522 0.47663 0.0
H3479 H 0.84564 0.46516 0.4638 0.0
H3480 H 0.40075 0.88483 0.95619 0.0
H3481 H 0.41949 0.88413 0.96998 0.0
H3482 H 0.39238 0.85047 0.00218 0.0
H3483 H 0.37353 0.85121 0.98867 0.0
H3484 H 0.42585 0.886 0.00766 0.0
H3485 H 0.41663 0.83847 0.97683 0.0
H3486 H 0.40925 0.84783 0.96818 0.0
H3487 H 0.40272 0.83797 0.98821 0.0
C3488 C 0.39876 0.87734 0.96631 0.0
C3489 C 0.38564 0.86808 0.97134 0.0
C3490 C 0.40947 0.87691 0.97409 0.0
C3491 C 0.40729 0.86717 0.98693 0.0
C3492 C 0.39424 0.85792 0.99205 0.0
H3493 H 0.46675 0.86724 0.05856 0.0
H3494 H 0.44686 0.86648 0.04608 0.0
C3495 C 0.3835 0.85836 0.9843 0.0
C3496 C 0.41873 0.86689 0.99517 0.0
H3497 H 0.43413 0.84848 0.99806 0.0
C3498 C 0.42766 0.8778 0.00562 0.0
C3499 C 0.42107 0.85621 0.9923 0.0
C3500 C 0.41199 0.84448 0.98066 0.0
C3501 C 0.43891 0.87828 0.01337 0.0
C3502 C 0.44117 0.86753 0.01069 0.0
C3503 C 0.43227 0.85665 0.00017 0.0
C3504 C 0.45297 0.8676 0.01826 0.0
C3505 C 0.44844 0.8904 0.02406 0.0
C3506 C 0.46281 0.86822 0.0067 0.0
C3507 C 0.47414 0.8686 0.01377 0.0
C3508 C 0.47575 0.86827 0.03252 0.0
C3509 C 0.46574 0.86743 0.04406 0.0
C3510 C 0.45444 0.8671 0.03697 0.0
H3511 H 0.44669 0.89887 0.02185 0.0
H3512 H 0.44716 0.88794 0.03865 0.0
H3513 H 0.45889 0.89359 0.02041 0.0
H3514 H 0.46178 0.86854 0.99221 0.0
H3515 H 0.48159 0.86906 0.00455 0.0
H3516 H 0.50562 0.40029 0.47613 0.0
H3517 H 0.52526 0.41923 0.48932 0.0
H3518 H 0.54725 0.39861 0.48298 0.0
H3519 H 0.52763 0.3796 0.46983 0.0
H3520 H 0.53957 0.41983 0.52012 0.0
H3521 H 0.57123 0.43459 0.4587 0.0
H3522 H 0.5535 0.42337 0.45796 0.0
H3523 H 0.56442 0.41752 0.46526 0.0
C3524 C 0.51461 0.39975 0.47764 0.0
C3525 C 0.51509 0.38847 0.47189 0.0
C3526 C 0.52583 0.4106 0.48509 0.0
C3527 C 0.53773 0.41038 0.48687 0.0
C3528 C 0.53823 0.39908 0.48135 0.0
H3529 H 0.61536 0.46798 0.52958 0.0
H3530 H 0.59621 0.44801 0.51734 0.0
C3531 C 0.52702 0.38824 0.47385 0.0
C3532 C 0.54955 0.4219 0.49484 0.0
H3533 H 0.58144 0.44603 0.48571 0.0
C3534 C 0.54872 0.42558 0.51261 0.0
C3535 C 0.56147 0.42933 0.48498 0.0
C3536 C 0.56273 0.42611 0.46562 0.0
C3537 C 0.55955 0.43648 0.52086 0.0
C3538 C 0.57142 0.44398 0.51095 0.0
C3539 C 0.57231 0.44022 0.49325 0.0
C3540 C 0.58293 0.45599 0.51855 0.0
C3541 C 0.55826 0.43979 0.54017 0.0
C3542 C 0.5818 0.46711 0.52305 0.0
C3543 C 0.59272 0.47854 0.52993 0.0
C3544 C 0.60499 0.47908 0.53235 0.0
C3545 C 0.60609 0.46793 0.52771 0.0
C3546 C 0.59515 0.4565 0.52081 0.0
H3547 H 0.54996 0.43123 0.54723 0.0
H3548 H 0.56761 0.44289 0.54776 0.0
H3549 H 0.55623 0.44817 0.54038 0.0
H3550 H 0.57252 0.467 0.52102 0.0
H3551 H 0.59161 0.48705 0.53303 0.0
H3552 H 0.14521 0.53093 0.95823 0.0
H3553 H 0.14596 0.55064 0.97126 0.0
H3554 H 0.1088 0.52575 0.99851 0.0
H3555 H 0.10802 0.50598 0.98573 0.0
H3556 H 0.10985 0.54729 0.97934 0.0
H3557 H 0.15358 0.56337 0.02425 0.0
H3558 H 0.15617 0.56059 0.00113 0.0
H3559 H 0.14455 0.54687 0.01472 0.0
C3560 C 0.13729 0.52964 0.96719 0.0
C3561 C 0.12656 0.51688 0.97096 0.0
C3562 C 0.13773 0.54091 0.97461 0.0
C3563 C 0.12751 0.53961 0.98599 0.0
C3564 C 0.11679 0.52693 0.98976 0.0
H3565 H 0.12413 0.59806 0.05467 0.0
H3566 H 0.12465 0.57881 0.04218 0.0
C3567 C 0.11633 0.51566 0.98237 0.0
C3568 C 0.12772 0.55151 0.99349 0.0
H3569 H 0.14508 0.57808 0.0214 0.0
C3570 C 0.11754 0.55403 0.98855 0.0
C3571 C 0.13771 0.56017 0.00562 0.0
C3572 C 0.14858 0.5576 0.01191 0.0
C3573 C 0.11714 0.5651 0.99528 0.0
C3574 C 0.12729 0.57393 0.00709 0.0
C3575 C 0.1374 0.57133 0.0122 0.0
C3576 C 0.12738 0.58576 0.01459 0.0
C3577 C 0.10575 0.56715 0.98997 0.0
C3578 C 0.12896 0.59609 0.0032 0.0
C3579 C 0.1286 0.60705 0.01027 0.0
C3580 C 0.1267 0.60787 0.02887 0.0
C3581 C 0.1254 0.59761 0.04027 0.0
C3582 C 0.12579 0.58667 0.03318 0.0
H3583 H 0.09731 0.55799 0.98417 0.0
H3584 H 0.1021 0.57029 0.00177 0.0
H3585 H 0.10922 0.57511 0.97964 0.0
H3586 H 0.13037 0.59563 0.98883 0.0
H3587 H 0.12955 0.61475 0.00114 0.0
H3588 H 0.52953 0.14413 0.54265 0.0
H3589 H 0.54932 0.14494 0.52968 0.0
H3590 H 0.5244 0.11023 0.49766 0.0
H3591 H 0.50457 0.10948 0.51031 0.0
H3592 H 0.55576 0.12395 0.53103 0.0
H3593 H 0.55082 0.13792 0.46095 0.0
H3594 H 0.54232 0.14015 0.47985 0.0
H3595 H 0.53615 0.12396 0.47011 0.0
C3596 C 0.52827 0.13676 0.53269 0.0
C3597 C 0.51551 0.12676 0.52745 0.0
C3598 C 0.53957 0.1372 0.52538 0.0
C3599 C 0.53828 0.12774 0.51259 0.0
C3600 C 0.52557 0.11773 0.50734 0.0
H3601 H 0.59154 0.11032 0.45308 0.0
H3602 H 0.57253 0.11102 0.46594 0.0
C3603 C 0.51427 0.11724 0.51471 0.0
C3604 C 0.55023 0.12806 0.50514 0.0
H3605 H 0.56719 0.13176 0.466 0.0
C3606 C 0.55834 0.12574 0.51685 0.0
C3607 C 0.55348 0.13037 0.48663 0.0
C3608 C 0.54532 0.13335 0.47363 0.0
C3609 C 0.56948 0.12532 0.51042 0.0
C3610 C 0.57272 0.12758 0.49187 0.0
C3611 C 0.56466 0.13002 0.48021 0.0
C3612 C 0.5843 0.12723 0.48423 0.0
C3613 C 0.57745 0.12209 0.52344 0.0
C3614 C 0.59722 0.13622 0.49013 0.0
C3615 C 0.6081 0.13576 0.48296 0.0
C3616 C 0.60625 0.12636 0.46963 0.0
C3617 C 0.59329 0.11752 0.46355 0.0
C3618 C 0.58243 0.11797 0.47077 0.0
H3619 H 0.57176 0.1173 0.53592 0.0
H3620 H 0.58054 0.11539 0.51713 0.0
H3621 H 0.58655 0.13141 0.52738 0.0
H3622 H 0.5989 0.14361 0.50027 0.0
H3623 H 0.61794 0.14265 0.48802 0.0
H3624 H 0.51686 0.37916 0.00747 0.0
H3625 H 0.53683 0.39764 0.99426 0.0
H3626 H 0.55081 0.41383 0.04731 0.0
H3627 H 0.53099 0.39522 0.06073 0.0
H3628 H 0.5503 0.43193 0.02148 0.0
H3629 H 0.57606 0.40589 0.99548 0.0
H3630 H 0.5588 0.39843 0.98944 0.0
H3631 H 0.56336 0.39887 0.01269 0.0
C3632 C 0.52431 0.38648 0.01638 0.0
C3633 C 0.52233 0.3857 0.03517 0.0
C3634 C 0.5357 0.39704 0.0088 0.0
C3635 C 0.54532 0.407 0.01985 0.0
C3636 C 0.54349 0.4062 0.03859 0.0
H3637 H 0.62201 0.47369 0.98857 0.0
H3638 H 0.60416 0.45383 0.00303 0.0
C3639 C 0.53213 0.39561 0.04621 0.0
C3640 C 0.55686 0.4187 0.01174 0.0
H3641 H 0.58448 0.42823 0.98585 0.0
C3642 C 0.55782 0.43115 0.01378 0.0
C3643 C 0.56666 0.41761 0.00183 0.0
C3644 C 0.56629 0.40451 -0.00019 0.0
C3645 C 0.56821 0.44255 0.00577 0.0
C3646 C 0.57779 0.4414 0.99539 0.0
C3647 C 0.57702 0.42901 0.99371 0.0
C3648 C 0.58861 0.453 0.98609 0.0
C3649 C 0.5689 0.45576 0.00846 0.0
C3650 C 0.58575 0.45889 0.9716 0.0
C3651 C 0.59591 0.47014 0.96318 0.0
C3652 C 0.60913 0.47571 0.96915 0.0
C3653 C 0.61197 0.46959 0.9835 0.0
C3654 C 0.60179 0.45828 0.99184 0.0
H3655 H 0.56243 0.45543 0.01972 0.0
H3656 H 0.57927 0.46369 0.01127 0.0
H3657 H 0.56559 0.45848 0.99594 0.0
H3658 H 0.57563 0.4548 0.96683 0.0
H3659 H 0.59341 0.47445 0.95196 0.0
H3660 H 0.15339 0.62156 0.47342 0.0
H3661 H 0.15563 0.60382 0.48783 0.0
H3662 H 0.11422 0.57614 0.47751 0.0
H3663 H 0.11175 0.59388 0.46374 0.0
H3664 H 0.12188 0.57465 0.51229 0.0
H3665 H 0.15667 0.57318 0.46212 0.0
H3666 H 0.16208 0.58921 0.472 0.0
H3667 H 0.14754 0.58171 0.45792 0.0
C3668 C 0.14474 0.61171 0.47433 0.0
C3669 C 0.1324 0.60911 0.46734 0.0
C3670 C 0.14608 0.60157 0.48238 0.0
C3671 C 0.13514 0.58864 0.48347 0.0
C3672 C 0.1228 0.58604 0.47668 0.0
H3673 H 0.13003 0.51339 0.50296 0.0
H3674 H 0.13078 0.53326 0.49062 0.0
C3675 C 0.12144 0.59617 0.46868 0.0
C3676 C 0.13639 0.57779 0.49195 0.0
H3677 H 0.15162 0.55929 0.4877 0.0
C3678 C 0.12841 0.5713 0.50697 0.0
C3679 C 0.14483 0.5734 0.48483 0.0
C3680 C 0.15319 0.57964 0.46824 0.0
C3681 C 0.12856 0.56046 0.51502 0.0
C3682 C 0.13712 0.55617 0.50805 0.0
C3683 C 0.14517 0.5627 0.49309 0.0
C3684 C 0.13732 0.54446 0.51549 0.0
C3685 C 0.11924 0.55343 0.53054 0.0
C3686 C 0.14099 0.54429 0.53347 0.0
C3687 C 0.14043 0.53289 0.54063 0.0
C3688 C 0.13628 0.52151 0.52987 0.0
C3689 C 0.13303 0.5219 0.51169 0.0
C3690 C 0.13356 0.53327 0.50457 0.0
H3691 H 0.11121 0.55596 0.53146 0.0
H3692 H 0.11461 0.54248 0.5292 0.0
H3693 H 0.12492 0.55646 0.54337 0.0
H3694 H 0.14414 0.55291 0.54202 0.0
H3695 H 0.14292 0.53289 0.55471 0.0
H3696 H 0.59065 0.10753 0.03643 0.0
H3697 H 0.57256 0.10943 0.02256 0.0
H3698 H 0.60018 0.14996 0.00759 0.0
H3699 H 0.61838 0.14812 0.02121 0.0
H3700 H 0.57641 0.1461 0.02417 0.0
H3701 H 0.56643 0.11082 0.96781 0.0
H3702 H 0.56656 0.10435 0.98978 0.0
H3703 H 0.58158 0.118 0.98086 0.0
C3704 C 0.5929 0.1168 0.03 0.0
C3705 C 0.60596 0.12766 0.02985 0.0
C3706 C 0.58256 0.11787 0.02212 0.0
C3707 C 0.5851 0.12978 0.01387 0.0
C3708 C 0.59806 0.14068 0.01387 0.0
H3709 H 0.52936 0.13843 0.9446 0.0
H3710 H 0.5493 0.1394 0.95724 0.0
C3711 C 0.60841 0.13963 0.02173 0.0
C3712 C 0.57416 0.1309 0.0055 0.0
H3713 H 0.55064 0.11787 0.9724 0.0
C3714 C 0.57081 0.13999 0.01279 0.0
C3715 C 0.56702 0.12304 0.99052 0.0
C3716 C 0.57063 0.11358 0.98164 0.0
C3717 C 0.56023 0.14116 0.00577 0.0
C3718 C 0.55276 0.13292 0.99124 0.0
C3719 C 0.55634 0.1241 0.98364 0.0
C3720 C 0.541 0.13307 0.98394 0.0
C3721 C 0.55716 0.15124 0.01389 0.0
C3722 C 0.52976 0.12918 0.99479 0.0
C3723 C 0.51839 0.12866 0.98764 0.0
C3724 C 0.51805 0.13198 0.96949 0.0
C3725 C 0.52939 0.13599 0.95869 0.0
C3726 C 0.54074 0.13647 0.96585 0.0
H3727 H 0.56577 0.15903 0.02153 0.0
H3728 H 0.55432 0.1561 0.00328 0.0
H3729 H 0.54869 0.14613 0.02337 0.0
H3730 H 0.52969 0.12631 0.00871 0.0
H3731 H 0.50985 0.12563 0.99632 0.0
H3732 H 0.46933 0.59541 0.55067 0.0
H3733 H 0.44977 0.57739 0.53594 0.0
H3734 H 0.45332 0.60396 0.4929 0.0
H3735 H 0.47287 0.62209 0.50766 0.0
H3736 H 0.42715 0.58753 0.50426 0.0
H3737 H 0.45241 0.5586 0.49091 0.0
H3738 H 0.45252 0.56271 0.51427 0.0
H3739 H 0.46129 0.57574 0.49803 0.0
C3740 C 0.46594 0.5974 0.53807 0.0
C3741 C 0.4727 0.6101 0.53021 0.0
C3742 C 0.45479 0.58711 0.52967 0.0
C3743 C 0.45028 0.58929 0.51317 0.0
C3744 C 0.4567 0.60208 0.5056 0.0
H3745 H 0.39861 0.5251 0.44125 0.0
H3746 H 0.41672 0.54555 0.45415 0.0
C3747 C 0.46783 0.61241 0.51406 0.0
C3748 C 0.43909 0.57813 0.5036 0.0
H3749 H 0.42915 0.54757 0.48557 0.0
C3750 C 0.42758 0.57881 0.50007 0.0
C3751 C 0.4398 0.56689 0.49788 0.0
C3752 C 0.45222 0.56596 0.50029 0.0
C3753 C 0.41659 0.56835 0.49135 0.0
C3754 C 0.4171 0.55686 0.48636 0.0
C3755 C 0.42874 0.55634 0.48954 0.0
C3756 C 0.4057 0.54516 0.4779 0.0
C3757 C 0.40463 0.56978 0.48738 0.0
C3758 C 0.39348 0.53821 0.48695 0.0
C3759 C 0.3831 0.52655 0.47957 0.0
C3760 C 0.38485 0.52156 0.46315 0.0
C3761 C 0.39704 0.52865 0.45401 0.0
C3762 C 0.40736 0.54034 0.46132 0.0
H3763 H 0.40726 0.58039 0.48713 0.0
H3764 H 0.40007 0.56517 0.47423 0.0
H3765 H 0.39708 0.56472 0.4981 0.0
H3766 H 0.39209 0.54156 0.49997 0.0
H3767 H 0.37388 0.52119 0.48702 0.0
H3768 H 0.87818 0.40178 0.94922 0.0
H3769 H 0.87721 0.42012 0.96394 0.0
H3770 H 0.85467 0.39411 0.00774 0.0
H3771 H 0.8554 0.37565 0.99289 0.0
H3772 H 0.84453 0.40952 0.99709 0.0
H3773 H 0.89889 0.44066 0.0072 0.0
H3774 H 0.89452 0.43622 0.98401 0.0
H3775 H 0.89112 0.42347 0.0004 0.0
C3776 C 0.87308 0.4 0.96204 0.0
C3777 C 0.86695 0.38733 0.97 0.0
C3778 C 0.87257 0.41049 0.97046 0.0
C3779 C 0.86612 0.40855 0.98712 0.0
C3780 C 0.85976 0.39583 0.99492 0.0
H3781 H 0.87766 0.47425 0.05576 0.0
H3782 H 0.87681 0.45429 0.04346 0.0
C3783 C 0.86015 0.3853 0.98642 0.0
C3784 C 0.86593 0.41976 0.99633 0.0
H3785 H 0.88607 0.45122 0.01205 0.0
C3786 C 0.85361 0.41862 0.00048 0.0
C3787 C 0.87778 0.43152 0.00104 0.0
C3788 C 0.89132 0.43301 0.99811 0.0
C3789 C 0.85281 0.42905 0.00881 0.0
C3790 C 0.86467 0.44105 0.01266 0.0
C3791 C 0.87698 0.44207 0.00891 0.0
C3792 C 0.86459 0.45275 0.02051 0.0
C3793 C 0.8393 0.42701 0.01361 0.0
C3794 C 0.85806 0.45854 0.01165 0.0
C3795 C 0.85845 0.46987 0.01873 0.0
C3796 C 0.86558 0.47575 0.03462 0.0
C3797 C 0.87217 0.46998 0.04342 0.0
C3798 C 0.87166 0.45856 0.03644 0.0
H3799 H 0.83182 0.41629 0.015 0.0
H3800 H 0.83963 0.43213 0.02642 0.0
H3801 H 0.83589 0.43114 0.0027 0.0
H3802 H 0.85287 0.45445 -0.00093 0.0
H3803 H 0.85346 0.47425 0.01153 0.0
H3804 H 0.46564 0.84768 0.47326 0.0
H3805 H 0.44603 0.84757 0.48559 0.0
H3806 H 0.46333 0.8892 0.47283 0.0
H3807 H 0.48297 0.8894 0.46053 0.0
H3808 H 0.45315 0.88313 0.50728 0.0
H3809 H 0.41637 0.84863 0.45753 0.0
H3810 H 0.42567 0.84211 0.46852 0.0
H3811 H 0.43408 0.85636 0.45403 0.0
C3812 C 0.46519 0.85677 0.47291 0.0
C3813 C 0.47582 0.86854 0.46589 0.0
C3814 C 0.45399 0.85668 0.47993 0.0
C3815 C 0.45316 0.86832 0.47986 0.0
C3816 C 0.46377 0.8801 0.47296 0.0
H3817 H 0.38278 0.87444 0.49908 0.0
H3818 H 0.40227 0.87465 0.48622 0.0
C3819 C 0.475 0.88022 0.46601 0.0
C3820 C 0.44138 0.86834 0.48744 0.0
H3821 H 0.40774 0.85412 0.48312 0.0
C3822 C 0.44322 0.87683 0.50198 0.0
C3823 C 0.42848 0.86021 0.48033 0.0
C3824 C 0.426 0.8514 0.46413 0.0
C3825 C 0.43246 0.87729 0.50978 0.0
C3826 C 0.4195 0.86884 0.50305 0.0
C3827 C 0.41768 0.86049 0.48835 0.0
C3828 C 0.40771 0.86866 0.51093 0.0
C3829 C 0.43509 0.88698 0.52493 0.0
C3830 C 0.40424 0.86506 0.52902 0.0
C3831 C 0.39319 0.86506 0.53646 0.0
C3832 C 0.38535 0.86855 0.52588 0.0
C3833 C 0.38874 0.87192 0.50766 0.0
C3834 C 0.3998 0.87195 0.50026 0.0
H3835 H 0.44566 0.89504 0.52522 0.0
H3836 H 0.42869 0.89152 0.5237 0.0
H3837 H 0.43284 0.88162 0.538 0.0
H3838 H 0.41007 0.86225 0.5374 0.0
H3839 H 0.39092 0.86251 0.55057 0.0
loop_
_geom_bond_atom_site_label_1
_geom_bond_atom_site_label_2
_geom_bond_distance
_geom_bond_site_symmetry_2
_ccdc_geom_bond_type
Li0 N17 1.990 . S
Li0 O60 1.956 . S
Li0 O61 1.970 . S
Li0 O62 1.961 . S
Li1 N25 1.990 . S
Li1 O60 1.970 . S
Li1 O61 1.956 . S
Li1 O63 1.961 . S
Li2 N47 1.990 . S
Li2 O60 1.961 . S
Li2 O62 1.956 . S
Li2 O63 1.970 . S
Li3 N53 1.990 . S
Li3 O61 1.961 . S
Li3 O62 1.970 . S
Li3 O63 1.956 . S
C4 C6 1.348 . S
C4 C7 1.356 . S
C4 O60 1.325 . S
N5 C8 1.314 . S
N5 C9 1.279 . S
C6 C4 1.348 . S
C6 C8 1.353 . S
C6 H64 0.929 . S
C7 C4 1.356 . S
C7 C9 1.358 . S
C7 H65 0.930 . S
C8 N5 1.314 . S
C8 C6 1.353 . S
C8 H66 0.930 . S
C9 N5 1.279 . S
C9 C7 1.358 . S
C9 H67 0.930 . S
C10 C13 1.348 . S
C10 C14 1.356 . S
C10 O61 1.325 . S
C11 N12 1.279 . S
C11 C14 1.358 . S
C11 H68 0.930 . S
N12 C11 1.279 . S
N12 C15 1.314 . S
C13 C10 1.348 . S
C13 C15 1.353 . S
C13 H69 0.929 . S
C14 C10 1.356 . S
C14 C11 1.358 . S
C14 H70 0.930 . S
C15 N12 1.314 . S
C15 C13 1.353 . S
C15 H71 0.930 . S
C16 N17 1.314 . S
C16 C21 1.353 . S
C16 H22 0.930 . S
N17 Li0 1.990 . S
N17 C16 1.314 . S
N17 C19 1.279 . S
C18 C19 1.358 . S
C18 C20 1.356 . S
C18 H72 0.930 . S
C19 N17 1.279 . S
C19 C18 1.358 . S
C19 H23 0.930 . S
C20 C18 1.356 . S
C20 C21 1.348 . S
C21 C16 1.353 . S
C21 C20 1.348 . S
C21 H73 0.929 . S
H22 C16 0.930 . S
H23 C19 0.930 . S
C24 N25 1.314 . S
C24 C26 1.353 . S
C24 H30 0.930 . S
N25 Li1 1.990 . S
N25 C24 1.314 . S
N25 C28 1.279 . S
C26 C24 1.353 . S
C26 C29 1.348 . S
C26 H74 0.929 . S
C27 C28 1.358 . S
C27 C29 1.356 . S
C27 H75 0.930 . S
C28 N25 1.279 . S
C28 C27 1.358 . S
C28 H31 0.930 . S
C29 C26 1.348 . S
C29 C27 1.356 . S
H30 C24 0.930 . S
H31 C28 0.930 . S
C32 C34 1.348 . S
C32 C35 1.356 . S
C32 O62 1.325 . S
N33 C36 1.314 . S
N33 C37 1.279 . S
C34 C32 1.348 . S
C34 C36 1.353 . S
C34 H76 0.929 . S
C35 C32 1.356 . S
C35 C37 1.358 . S
C35 H77 0.930 . S
C36 N33 1.314 . S
C36 C34 1.353 . S
C36 H78 0.930 . S
C37 N33 1.279 . S
C37 C35 1.358 . S
C37 H79 0.930 . S
C38 C39 1.348 . S
C38 C40 1.356 . S
C38 O63 1.325 . S
C39 C38 1.348 . S
C39 C41 1.353 1_554 S
C39 H80 0.929 . S
C40 C38 1.356 . S
C40 C42 1.358 1_554 S
C40 H81 0.930 . S
C41 C39 1.353 1_556 S
C41 N43 1.314 . S
C41 H82 0.930 . S
C42 C40 1.358 1_556 S
C42 N43 1.279 . S
C42 H83 0.930 . S
N43 C41 1.314 . S
N43 C42 1.279 . S
C44 C46 1.353 . S
C44 N47 1.314 . S
C44 H50 0.930 . S
C45 N47 1.279 . S
C45 C48 1.358 . S
C45 H51 0.930 . S
C46 C44 1.353 . S
C46 C49 1.348 . S
C46 H84 0.929 . S
N47 Li2 1.990 . S
N47 C44 1.314 . S
N47 C45 1.279 . S
C48 C45 1.358 . S
C48 C49 1.356 . S
C48 H85 0.930 . S
C49 C46 1.348 . S
C49 C48 1.356 . S
H50 C44 0.930 . S
H51 C45 0.930 . S
C52 N53 1.314 . S
C52 C54 1.353 . S
C52 H58 0.930 . S
N53 Li3 1.990 . S
N53 C52 1.314 . S
N53 C56 1.279 . S
C54 C52 1.353 . S
C54 C57 1.348 . S
C54 H86 0.929 . S
C55 C56 1.358 . S
C55 C57 1.356 . S
C55 H87 0.930 . S
C56 N53 1.279 . S
C56 C55 1.358 . S
C56 H59 0.930 . S
C57 C54 1.348 . S
C57 C55 1.356 . S
H58 C52 0.930 . S
H59 C56 0.930 . S
O60 Li0 1.956 . S
O60 Li1 1.970 . S
O60 Li2 1.961 . S
O60 C4 1.325 . S
O61 Li0 1.970 . S
O61 Li1 1.956 . S
O61 Li3 1.961 . S
O61 C10 1.325 . S
O62 Li0 1.961 . S
O62 Li2 1.956 . S
O62 Li3 1.970 . S
O62 C32 1.325 . S
O63 Li1 1.961 . S
O63 Li2 1.970 . S
O63 Li3 1.956 . S
O63 C38 1.325 . S
H64 C6 0.929 . S
H65 C7 0.930 . S
H66 C8 0.930 . S
H67 C9 0.930 . S
H68 C11 0.930 . S
H69 C13 0.929 . S
H70 C14 0.930 . S
H71 C15 0.930 . S
H72 C18 0.930 . S
H73 C21 0.929 . S
H74 C26 0.929 . S
H75 C27 0.930 . S
H76 C34 0.929 . S
H77 C35 0.930 . S
H78 C36 0.930 . S
H79 C37 0.930 . S
H80 C39 0.929 . S
H81 C40 0.930 . S
H82 C41 0.930 . S
H83 C42 0.930 . S
H84 C46 0.929 . S
H85 C48 0.930 . S
H86 C54 0.929 . S
H87 C55 0.930 . S
Li88 N105 1.990 . S
Li88 O148 1.956 . S
Li88 O149 1.970 . S
Li88 O150 1.961 . S
Li89 N113 1.990 . S
Li89 O148 1.970 . S
Li89 O149 1.956 . S
Li89 O151 1.961 . S
Li90 N135 1.990 . S
Li90 O148 1.961 . S
Li90 O150 1.956 . S
Li90 O151 1.970 . S
Li91 N141 1.990 . S
Li91 O149 1.961 . S
Li91 O150 1.970 . S
Li91 O151 1.956 . S
C92 C94 1.348 . S
C92 C95 1.356 . S
C92 O148 1.325 . S
N93 C96 1.314 . S
N93 C97 1.279 . S
C94 C92 1.348 . S
C94 C96 1.353 . S
C94 H152 0.929 . S
C95 C92 1.356 . S
C95 C97 1.358 . S
C95 H153 0.930 . S
C96 N93 1.314 . S
C96 C94 1.353 . S
C96 H154 0.930 . S
C97 N93 1.279 . S
C97 C95 1.358 . S
C97 H155 0.930 . S
C98 C101 1.348 . S
C98 C102 1.356 . S
C98 O149 1.325 . S
C99 N100 1.279 . S
C99 C102 1.358 . S
C99 H156 0.930 . S
N100 C99 1.279 . S
N100 C103 1.314 . S
C101 C98 1.348 . S
C101 C103 1.353 . S
C101 H157 0.929 . S
C102 C98 1.356 . S
C102 C99 1.358 . S
C102 H158 0.930 . S
C103 N100 1.314 . S
C103 C101 1.353 . S
C103 H159 0.930 . S
C104 N105 1.314 . S
C104 C109 1.353 . S
C104 H110 0.930 . S
N105 Li88 1.990 . S
N105 C104 1.314 . S
N105 C107 1.279 . S
C106 C107 1.358 . S
C106 C108 1.356 . S
C106 H160 0.930 . S
C107 N105 1.279 . S
C107 C106 1.358 . S
C107 H111 0.930 . S
C108 C106 1.356 . S
C108 C109 1.348 . S
C109 C104 1.353 . S
C109 C108 1.348 . S
C109 H161 0.929 . S
H110 C104 0.930 . S
H111 C107 0.930 . S
C112 N113 1.314 . S
C112 C114 1.353 . S
C112 H118 0.930 . S
N113 Li89 1.990 . S
N113 C112 1.314 . S
N113 C116 1.279 . S
C114 C112 1.353 . S
C114 C117 1.348 . S
C114 H162 0.929 . S
C115 C116 1.358 . S
C115 C117 1.356 . S
C115 H163 0.930 . S
C116 N113 1.279 . S
C116 C115 1.358 . S
C116 H119 0.930 . S
C117 C114 1.348 . S
C117 C115 1.356 . S
H118 C112 0.930 . S
H119 C116 0.930 . S
C120 C122 1.348 . S
C120 C123 1.356 . S
C120 O150 1.325 . S
N121 C124 1.314 . S
N121 C125 1.279 . S
C122 C120 1.348 . S
C122 C124 1.353 . S
C122 H164 0.929 . S
C123 C120 1.356 . S
C123 C125 1.358 . S
C123 H165 0.930 . S
C124 N121 1.314 . S
C124 C122 1.353 . S
C124 H166 0.930 . S
C125 N121 1.279 . S
C125 C123 1.358 . S
C125 H167 0.930 . S
C126 C127 1.348 . S
C126 C128 1.356 . S
C126 O151 1.325 . S
C127 C126 1.348 . S
C127 C129 1.353 . S
C127 H168 0.929 . S
C128 C126 1.356 . S
C128 C130 1.358 . S
C128 H169 0.930 . S
C129 C127 1.353 . S
C129 N131 1.314 . S
C129 H170 0.930 . S
C130 C128 1.358 . S
C130 N131 1.279 . S
C130 H171 0.930 . S
N131 C129 1.314 . S
N131 C130 1.279 . S
C132 C134 1.353 . S
C132 N135 1.314 . S
C132 H138 0.930 . S
C133 N135 1.279 . S
C133 C136 1.358 . S
C133 H139 0.930 . S
C134 C132 1.353 . S
C134 C137 1.348 . S
C134 H172 0.929 . S
N135 Li90 1.990 . S
N135 C132 1.314 . S
N135 C133 1.279 . S
C136 C133 1.358 . S
C136 C137 1.356 . S
C136 H173 0.930 . S
C137 C134 1.348 . S
C137 C136 1.356 . S
H138 C132 0.930 . S
H139 C133 0.930 . S
C140 N141 1.314 . S
C140 C142 1.353 . S
C140 H146 0.930 . S
N141 Li91 1.990 . S
N141 C140 1.314 . S
N141 C144 1.279 . S
C142 C140 1.353 . S
C142 C145 1.348 . S
C142 H174 0.929 . S
C143 C144 1.358 . S
C143 C145 1.356 . S
C143 H175 0.930 . S
C144 N141 1.279 . S
C144 C143 1.358 . S
C144 H147 0.930 . S
C145 C142 1.348 . S
C145 C143 1.356 . S
H146 C140 0.930 . S
H147 C144 0.930 . S
O148 Li88 1.956 . S
O148 Li89 1.970 . S
O148 Li90 1.961 . S
O148 C92 1.325 . S
O149 Li88 1.970 . S
O149 Li89 1.956 . S
O149 Li91 1.961 . S
O149 C98 1.325 . S
O150 Li88 1.961 . S
O150 Li90 1.956 . S
O150 Li91 1.970 . S
O150 C120 1.325 . S
O151 Li89 1.961 . S
O151 Li90 1.970 . S
O151 Li91 1.956 . S
O151 C126 1.325 . S
H152 C94 0.929 . S
H153 C95 0.930 . S
H154 C96 0.930 . S
H155 C97 0.930 . S
H156 C99 0.930 . S
H157 C101 0.929 . S
H158 C102 0.930 . S
H159 C103 0.930 . S
H160 C106 0.930 . S
H161 C109 0.929 . S
H162 C114 0.929 . S
H163 C115 0.930 . S
H164 C122 0.929 . S
H165 C123 0.930 . S
H166 C124 0.930 . S
H167 C125 0.930 . S
H168 C127 0.929 . S
H169 C128 0.930 . S
H170 C129 0.930 . S
H171 C130 0.930 . S
H172 C134 0.929 . S
H173 C136 0.930 . S
H174 C142 0.929 . S
H175 C143 0.930 . S
Li176 N193 1.990 . S
Li176 O236 1.956 . S
Li176 O237 1.970 . S
Li176 O238 1.961 . S
Li177 N201 1.990 . S
Li177 O236 1.970 . S
Li177 O237 1.956 . S
Li177 O239 1.961 . S
Li178 N223 1.990 . S
Li178 O236 1.961 . S
Li178 O238 1.956 . S
Li178 O239 1.970 . S
Li179 N229 1.990 . S
Li179 O237 1.961 . S
Li179 O238 1.970 . S
Li179 O239 1.956 . S
C180 C182 1.348 . S
C180 C183 1.356 . S
C180 O236 1.325 . S
N181 C184 1.314 . S
N181 C185 1.279 . S
C182 C180 1.348 . S
C182 C184 1.353 . S
C182 H240 0.929 . S
C183 C180 1.356 . S
C183 C185 1.358 . S
C183 H241 0.930 . S
C184 N181 1.314 . S
C184 C182 1.353 . S
C184 H242 0.930 . S
C185 N181 1.279 . S
C185 C183 1.358 . S
C185 H243 0.930 . S
C186 C189 1.348 . S
C186 C190 1.356 . S
C186 O237 1.325 . S
C187 N188 1.279 . S
C187 C190 1.358 . S
C187 H244 0.930 . S
N188 C187 1.279 . S
N188 C191 1.314 . S
C189 C186 1.348 . S
C189 C191 1.353 . S
C189 H245 0.929 . S
C190 C186 1.356 . S
C190 C187 1.358 . S
C190 H246 0.930 . S
C191 N188 1.314 . S
C191 C189 1.353 . S
C191 H247 0.930 . S
C192 N193 1.314 . S
C192 C197 1.353 . S
C192 H198 0.930 . S
N193 Li176 1.990 . S
N193 C192 1.314 . S
N193 C195 1.279 . S
C194 C195 1.358 . S
C194 C196 1.356 . S
C194 H248 0.930 . S
C195 N193 1.279 . S
C195 C194 1.358 . S
C195 H199 0.930 . S
C196 C194 1.356 . S
C196 C197 1.348 . S
C197 C192 1.353 . S
C197 C196 1.348 . S
C197 H249 0.929 . S
H198 C192 0.930 . S
H199 C195 0.930 . S
C200 N201 1.314 . S
C200 C202 1.353 . S
C200 H206 0.930 . S
N201 Li177 1.990 . S
N201 C200 1.314 . S
N201 C204 1.279 . S
C202 C200 1.353 . S
C202 C205 1.348 . S
C202 H250 0.929 . S
C203 C204 1.358 . S
C203 C205 1.356 . S
C203 H251 0.930 . S
C204 N201 1.279 . S
C204 C203 1.358 . S
C204 H207 0.930 . S
C205 C202 1.348 . S
C205 C203 1.356 . S
H206 C200 0.930 . S
H207 C204 0.930 . S
C208 C210 1.348 . S
C208 C211 1.356 . S
C208 O238 1.325 . S
N209 C212 1.314 . S
N209 C213 1.279 . S
C210 C208 1.348 . S
C210 C212 1.353 1_554 S
C210 H252 0.929 . S
C211 C208 1.356 . S
C211 C213 1.358 1_554 S
C211 H253 0.930 . S
C212 N209 1.314 . S
C212 C210 1.353 1_556 S
C212 H254 0.930 . S
C213 N209 1.279 . S
C213 C211 1.358 1_556 S
C213 H255 0.930 . S
C214 C215 1.348 . S
C214 C216 1.356 . S
C214 O239 1.325 . S
C215 C214 1.348 . S
C215 C217 1.353 . S
C215 H256 0.929 . S
C216 C214 1.356 . S
C216 C218 1.358 . S
C216 H257 0.930 . S
C217 C215 1.353 . S
C217 N219 1.314 . S
C217 H258 0.930 . S
C218 C216 1.358 . S
C218 N219 1.279 . S
C218 H259 0.930 . S
N219 C217 1.314 . S
N219 C218 1.279 . S
C220 C222 1.353 . S
C220 N223 1.314 . S
C220 H226 0.930 . S
C221 N223 1.279 . S
C221 C224 1.358 . S
C221 H227 0.930 . S
C222 C220 1.353 . S
C222 C225 1.348 . S
C222 H260 0.929 . S
N223 Li178 1.990 . S
N223 C220 1.314 . S
N223 C221 1.279 . S
C224 C221 1.358 . S
C224 C225 1.356 . S
C224 H261 0.930 . S
C225 C222 1.348 . S
C225 C224 1.356 . S
H226 C220 0.930 . S
H227 C221 0.930 . S
C228 N229 1.314 . S
C228 C230 1.353 . S
C228 H234 0.930 . S
N229 Li179 1.990 . S
N229 C228 1.314 . S
N229 C232 1.279 . S
C230 C228 1.353 . S
C230 C233 1.348 . S
C230 H262 0.929 . S
C231 C232 1.358 . S
C231 C233 1.356 . S
C231 H263 0.930 . S
C232 N229 1.279 . S
C232 C231 1.358 . S
C232 H235 0.930 . S
C233 C230 1.348 . S
C233 C231 1.356 . S
H234 C228 0.930 . S
H235 C232 0.930 . S
O236 Li176 1.956 . S
O236 Li177 1.970 . S
O236 Li178 1.961 . S
O236 C180 1.325 . S
O237 Li176 1.970 . S
O237 Li177 1.956 . S
O237 Li179 1.961 . S
O237 C186 1.325 . S
O238 Li176 1.961 . S
O238 Li178 1.956 . S
O238 Li179 1.970 . S
O238 C208 1.325 . S
O239 Li177 1.961 . S
O239 Li178 1.970 . S
O239 Li179 1.956 . S
O239 C214 1.325 . S
H240 C182 0.929 . S
H241 C183 0.930 . S
H242 C184 0.930 . S
H243 C185 0.930 . S
H244 C187 0.930 . S
H245 C189 0.929 . S
H246 C190 0.930 . S
H247 C191 0.930 . S
H248 C194 0.930 . S
H249 C197 0.929 . S
H250 C202 0.929 . S
H251 C203 0.930 . S
H252 C210 0.929 . S
H253 C211 0.930 . S
H254 C212 0.930 . S
H255 C213 0.930 . S
H256 C215 0.929 . S
H257 C216 0.930 . S
H258 C217 0.930 . S
H259 C218 0.930 . S
H260 C222 0.929 . S
H261 C224 0.930 . S
H262 C230 0.929 . S
H263 C231 0.930 . S
Li264 N281 1.990 . S
Li264 O324 1.956 . S
Li264 O325 1.970 . S
Li264 O326 1.961 . S
Li265 N289 1.990 . S
Li265 O324 1.970 . S
Li265 O325 1.956 . S
Li265 O327 1.961 . S
Li266 N311 1.990 . S
Li266 O324 1.961 . S
Li266 O326 1.956 . S
Li266 O327 1.970 . S
Li267 N317 1.990 . S
Li267 O325 1.961 . S
Li267 O326 1.970 . S
Li267 O327 1.956 . S
C268 C270 1.348 . S
C268 C271 1.356 . S
C268 O324 1.325 . S
N269 C272 1.314 . S
N269 C273 1.279 . S
C270 C268 1.348 . S
C270 C272 1.353 . S
C270 H328 0.929 . S
C271 C268 1.356 . S
C271 C273 1.358 . S
C271 H329 0.930 . S
C272 N269 1.314 . S
C272 C270 1.353 . S
C272 H330 0.930 . S
C273 N269 1.279 . S
C273 C271 1.358 . S
C273 H331 0.930 . S
C274 C277 1.348 . S
C274 C278 1.356 . S
C274 O325 1.325 . S
C275 N276 1.279 . S
C275 C278 1.358 . S
C275 H332 0.930 . S
N276 C275 1.279 . S
N276 C279 1.314 . S
C277 C274 1.348 . S
C277 C279 1.353 . S
C277 H333 0.929 . S
C278 C274 1.356 . S
C278 C275 1.358 . S
C278 H334 0.930 . S
C279 N276 1.314 . S
C279 C277 1.353 . S
C279 H335 0.930 . S
C280 N281 1.314 . S
C280 C285 1.353 . S
C280 H286 0.930 . S
N281 Li264 1.990 . S
N281 C280 1.314 . S
N281 C283 1.279 . S
C282 C283 1.358 . S
C282 C284 1.356 . S
C282 H336 0.930 . S
C283 N281 1.279 . S
C283 C282 1.358 . S
C283 H287 0.930 . S
C284 C282 1.356 . S
C284 C285 1.348 . S
C285 C280 1.353 . S
C285 C284 1.348 . S
C285 H337 0.929 . S
H286 C280 0.930 . S
H287 C283 0.930 . S
C288 N289 1.314 . S
C288 C290 1.353 . S
C288 H294 0.930 . S
N289 Li265 1.990 . S
N289 C288 1.314 . S
N289 C292 1.279 . S
C290 C288 1.353 . S
C290 C293 1.348 . S
C290 H338 0.929 . S
C291 C292 1.358 . S
C291 C293 1.356 . S
C291 H339 0.930 . S
C292 N289 1.279 . S
C292 C291 1.358 . S
C292 H295 0.930 . S
C293 C290 1.348 . S
C293 C291 1.356 . S
H294 C288 0.930 . S
H295 C292 0.930 . S
C296 C298 1.348 . S
C296 C299 1.356 . S
C296 O326 1.325 . S
N297 C300 1.314 . S
N297 C301 1.279 . S
C298 C296 1.348 . S
C298 C300 1.353 . S
C298 H340 0.929 . S
C299 C296 1.356 . S
C299 C301 1.358 . S
C299 H341 0.930 . S
C300 N297 1.314 . S
C300 C298 1.353 . S
C300 H342 0.930 . S
C301 N297 1.279 . S
C301 C299 1.358 . S
C301 H343 0.930 . S
C302 C303 1.348 . S
C302 C304 1.356 . S
C302 O327 1.325 . S
C303 C302 1.348 . S
C303 C305 1.353 . S
C303 H344 0.929 . S
C304 C302 1.356 . S
C304 C306 1.358 . S
C304 H345 0.930 . S
C305 C303 1.353 . S
C305 N307 1.314 . S
C305 H346 0.930 . S
C306 C304 1.358 . S
C306 N307 1.279 . S
C306 H347 0.930 . S
N307 C305 1.314 . S
N307 C306 1.279 . S
C308 C310 1.353 . S
C308 N311 1.314 . S
C308 H314 0.930 . S
C309 N311 1.279 . S
C309 C312 1.358 . S
C309 H315 0.930 . S
C310 C308 1.353 . S
C310 C313 1.348 . S
C310 H348 0.929 . S
N311 Li266 1.990 . S
N311 C308 1.314 . S
N311 C309 1.279 . S
C312 C309 1.358 . S
C312 C313 1.356 . S
C312 H349 0.930 . S
C313 C310 1.348 . S
C313 C312 1.356 . S
H314 C308 0.930 . S
H315 C309 0.930 . S
C316 N317 1.314 . S
C316 C318 1.353 . S
C316 H322 0.930 . S
N317 Li267 1.990 . S
N317 C316 1.314 . S
N317 C320 1.279 . S
C318 C316 1.353 . S
C318 C321 1.348 . S
C318 H350 0.929 . S
C319 C320 1.358 . S
C319 C321 1.356 . S
C319 H351 0.930 . S
C320 N317 1.279 . S
C320 C319 1.358 . S
C320 H323 0.930 . S
C321 C318 1.348 . S
C321 C319 1.356 . S
H322 C316 0.930 . S
H323 C320 0.930 . S
O324 Li264 1.956 . S
O324 Li265 1.970 . S
O324 Li266 1.961 . S
O324 C268 1.325 . S
O325 Li264 1.970 . S
O325 Li265 1.956 . S
O325 Li267 1.961 . S
O325 C274 1.325 . S
O326 Li264 1.961 . S
O326 Li266 1.956 . S
O326 Li267 1.970 . S
O326 C296 1.325 . S
O327 Li265 1.961 . S
O327 Li266 1.970 . S
O327 Li267 1.956 . S
O327 C302 1.325 . S
H328 C270 0.929 . S
H329 C271 0.930 . S
H330 C272 0.930 . S
H331 C273 0.930 . S
H332 C275 0.930 . S
H333 C277 0.929 . S
H334 C278 0.930 . S
H335 C279 0.930 . S
H336 C282 0.930 . S
H337 C285 0.929 . S
H338 C290 0.929 . S
H339 C291 0.930 . S
H340 C298 0.929 . S
H341 C299 0.930 . S
H342 C300 0.930 . S
H343 C301 0.930 . S
H344 C303 0.929 . S
H345 C304 0.930 . S
H346 C305 0.930 . S
H347 C306 0.930 . S
H348 C310 0.929 . S
H349 C312 0.930 . S
H350 C318 0.929 . S
H351 C319 0.930 . S
Li352 N369 1.990 . S
Li352 O412 1.956 . S
Li352 O413 1.970 . S
Li352 O414 1.961 . S
Li353 N377 1.990 . S
Li353 O412 1.970 . S
Li353 O413 1.956 . S
Li353 O415 1.961 . S
Li354 N399 1.990 . S
Li354 O412 1.961 . S
Li354 O414 1.956 . S
Li354 O415 1.970 . S
Li355 N405 1.990 . S
Li355 O413 1.961 . S
Li355 O414 1.970 . S
Li355 O415 1.956 . S
C356 C358 1.348 . S
C356 C359 1.356 . S
C356 O412 1.325 . S
N357 C360 1.314 . S
N357 C361 1.279 . S
C358 C356 1.348 . S
C358 C360 1.353 . S
C358 H416 0.929 . S
C359 C356 1.356 . S
C359 C361 1.358 . S
C359 H417 0.930 . S
C360 N357 1.314 . S
C360 C358 1.353 . S
C360 H418 0.930 . S
C361 N357 1.279 . S
C361 C359 1.358 . S
C361 H419 0.930 . S
C362 C365 1.348 . S
C362 C366 1.356 . S
C362 O413 1.325 . S
C363 N364 1.279 . S
C363 C366 1.358 . S
C363 H420 0.930 . S
N364 C363 1.279 . S
N364 C367 1.314 . S
C365 C362 1.348 . S
C365 C367 1.353 . S
C365 H421 0.929 . S
C366 C362 1.356 . S
C366 C363 1.358 . S
C366 H422 0.930 . S
C367 N364 1.314 . S
C367 C365 1.353 . S
C367 H423 0.930 . S
C368 N369 1.314 . S
C368 C373 1.353 . S
C368 H374 0.930 . S
N369 Li352 1.990 . S
N369 C368 1.314 . S
N369 C371 1.279 . S
C370 C371 1.358 . S
C370 C372 1.356 . S
C370 H424 0.930 . S
C371 N369 1.279 . S
C371 C370 1.358 . S
C371 H375 0.930 . S
C372 C370 1.356 . S
C372 C373 1.348 . S
C373 C368 1.353 . S
C373 C372 1.348 . S
C373 H425 0.929 . S
H374 C368 0.930 . S
H375 C371 0.930 . S
C376 N377 1.314 . S
C376 C378 1.353 . S
C376 H382 0.930 . S
N377 Li353 1.990 . S
N377 C376 1.314 . S
N377 C380 1.279 . S
C378 C376 1.353 . S
C378 C381 1.348 . S
C378 H426 0.929 . S
C379 C380 1.358 . S
C379 C381 1.356 . S
C379 H427 0.930 . S
C380 N377 1.279 . S
C380 C379 1.358 . S
C380 H383 0.930 . S
C381 C378 1.348 . S
C381 C379 1.356 . S
H382 C376 0.930 . S
H383 C380 0.930 . S
C384 C386 1.348 . S
C384 C387 1.356 . S
C384 O414 1.325 . S
N385 C388 1.314 . S
N385 C389 1.279 . S
C386 C384 1.348 . S
C386 C388 1.353 . S
C386 H428 0.929 . S
C387 C384 1.356 . S
C387 C389 1.358 . S
C387 H429 0.930 . S
C388 N385 1.314 . S
C388 C386 1.353 . S
C388 H430 0.930 . S
C389 N385 1.279 . S
C389 C387 1.358 . S
C389 H431 0.930 . S
C390 C391 1.348 . S
C390 C392 1.356 . S
C390 O415 1.325 . S
C391 C390 1.348 . S
C391 C393 1.353 1_554 S
C391 H432 0.929 . S
C392 C390 1.356 . S
C392 C394 1.358 1_554 S
C392 H433 0.930 . S
C393 C391 1.353 1_556 S
C393 N395 1.314 . S
C393 H434 0.930 . S
C394 C392 1.358 1_556 S
C394 N395 1.279 . S
C394 H435 0.930 . S
N395 C393 1.314 . S
N395 C394 1.279 . S
C396 C398 1.353 . S
C396 N399 1.314 . S
C396 H402 0.930 . S
C397 N399 1.279 . S
C397 C400 1.358 . S
C397 H403 0.930 . S
C398 C396 1.353 . S
C398 C401 1.348 . S
C398 H436 0.929 . S
N399 Li354 1.990 . S
N399 C396 1.314 . S
N399 C397 1.279 . S
C400 C397 1.358 . S
C400 C401 1.356 . S
C400 H437 0.930 . S
C401 C398 1.348 . S
C401 C400 1.356 . S
H402 C396 0.930 . S
H403 C397 0.930 . S
C404 N405 1.314 . S
C404 C406 1.353 . S
C404 H410 0.930 . S
N405 Li355 1.990 . S
N405 C404 1.314 . S
N405 C408 1.279 . S
C406 C404 1.353 . S
C406 C409 1.348 . S
C406 H438 0.929 . S
C407 C408 1.358 . S
C407 C409 1.356 . S
C407 H439 0.930 . S
C408 N405 1.279 . S
C408 C407 1.358 . S
C408 H411 0.930 . S
C409 C406 1.348 . S
C409 C407 1.356 . S
H410 C404 0.930 . S
H411 C408 0.930 . S
O412 Li352 1.956 . S
O412 Li353 1.970 . S
O412 Li354 1.961 . S
O412 C356 1.325 . S
O413 Li352 1.970 . S
O413 Li353 1.956 . S
O413 Li355 1.961 . S
O413 C362 1.325 . S
O414 Li352 1.961 . S
O414 Li354 1.956 . S
O414 Li355 1.970 . S
O414 C384 1.325 . S
O415 Li353 1.961 . S
O415 Li354 1.970 . S
O415 Li355 1.956 . S
O415 C390 1.325 . S
H416 C358 0.929 . S
H417 C359 0.930 . S
H418 C360 0.930 . S
H419 C361 0.930 . S
H420 C363 0.930 . S
H421 C365 0.929 . S
H422 C366 0.930 . S
H423 C367 0.930 . S
H424 C370 0.930 . S
H425 C373 0.929 . S
H426 C378 0.929 . S
H427 C379 0.930 . S
H428 C386 0.929 . S
H429 C387 0.930 . S
H430 C388 0.930 . S
H431 C389 0.930 . S
H432 C391 0.929 . S
H433 C392 0.930 . S
H434 C393 0.930 . S
H435 C394 0.930 . S
H436 C398 0.929 . S
H437 C400 0.930 . S
H438 C406 0.929 . S
H439 C407 0.930 . S
Li440 N457 1.990 . S
Li440 O500 1.956 . S
Li440 O501 1.970 . S
Li440 O502 1.961 . S
Li441 N465 1.990 . S
Li441 O500 1.970 . S
Li441 O501 1.956 . S
Li441 O503 1.961 . S
Li442 N487 1.990 . S
Li442 O500 1.961 . S
Li442 O502 1.956 . S
Li442 O503 1.970 . S
Li443 N493 1.990 . S
Li443 O501 1.961 . S
Li443 O502 1.970 . S
Li443 O503 1.956 . S
C444 C446 1.348 . S
C444 C447 1.356 . S
C444 O500 1.325 . S
N445 C448 1.314 . S
N445 C449 1.279 . S
C446 C444 1.348 . S
C446 C448 1.353 . S
C446 H504 0.929 . S
C447 C444 1.356 . S
C447 C449 1.358 . S
C447 H505 0.930 . S
C448 N445 1.314 . S
C448 C446 1.353 . S
C448 H506 0.930 . S
C449 N445 1.279 . S
C449 C447 1.358 . S
C449 H507 0.930 . S
C450 C453 1.348 . S
C450 C454 1.356 . S
C450 O501 1.325 . S
C451 N452 1.279 . S
C451 C454 1.358 . S
C451 H508 0.930 . S
N452 C451 1.279 . S
N452 C455 1.314 . S
C453 C450 1.348 . S
C453 C455 1.353 . S
C453 H509 0.929 . S
C454 C450 1.356 . S
C454 C451 1.358 . S
C454 H510 0.930 . S
C455 N452 1.314 . S
C455 C453 1.353 . S
C455 H511 0.930 . S
C456 N457 1.314 . S
C456 C461 1.353 . S
C456 H462 0.930 . S
N457 Li440 1.990 . S
N457 C456 1.314 . S
N457 C459 1.279 . S
C458 C459 1.358 . S
C458 C460 1.356 . S
C458 H512 0.930 . S
C459 N457 1.279 . S
C459 C458 1.358 . S
C459 H463 0.930 . S
C460 C458 1.356 . S
C460 C461 1.348 . S
C461 C456 1.353 . S
C461 C460 1.348 . S
C461 H513 0.929 . S
H462 C456 0.930 . S
H463 C459 0.930 . S
C464 N465 1.314 . S
C464 C466 1.353 . S
C464 H470 0.930 . S
N465 Li441 1.990 . S
N465 C464 1.314 . S
N465 C468 1.279 . S
C466 C464 1.353 . S
C466 C469 1.348 . S
C466 H514 0.929 . S
C467 C468 1.358 . S
C467 C469 1.356 . S
C467 H515 0.930 . S
C468 N465 1.279 . S
C468 C467 1.358 . S
C468 H471 0.930 . S
C469 C466 1.348 . S
C469 C467 1.356 . S
H470 C464 0.930 . S
H471 C468 0.930 . S
C472 C474 1.348 . S
C472 C475 1.356 . S
C472 O502 1.325 . S
N473 C476 1.314 . S
N473 C477 1.279 . S
C474 C472 1.348 . S
C474 C476 1.353 . S
C474 H516 0.929 . S
C475 C472 1.356 . S
C475 C477 1.358 . S
C475 H517 0.930 . S
C476 N473 1.314 . S
C476 C474 1.353 . S
C476 H518 0.930 . S
C477 N473 1.279 . S
C477 C475 1.358 . S
C477 H519 0.930 . S
C478 C479 1.348 . S
C478 C480 1.356 . S
C478 O503 1.325 . S
C479 C478 1.348 . S
C479 C481 1.353 . S
C479 H520 0.929 . S
C480 C478 1.356 . S
C480 C482 1.358 . S
C480 H521 0.930 . S
C481 C479 1.353 . S
C481 N483 1.314 . S
C481 H522 0.930 . S
C482 C480 1.358 . S
C482 N483 1.279 . S
C482 H523 0.930 . S
N483 C481 1.314 . S
N483 C482 1.279 . S
C484 C486 1.353 . S
C484 N487 1.314 . S
C484 H490 0.930 . S
C485 N487 1.279 . S
C485 C488 1.358 . S
C485 H491 0.930 . S
C486 C484 1.353 . S
C486 C489 1.348 . S
C486 H524 0.929 . S
N487 Li442 1.990 . S
N487 C484 1.314 . S
N487 C485 1.279 . S
C488 C485 1.358 . S
C488 C489 1.356 . S
C488 H525 0.930 . S
C489 C486 1.348 . S
C489 C488 1.356 . S
H490 C484 0.930 . S
H491 C485 0.930 . S
C492 N493 1.314 . S
C492 C494 1.353 . S
C492 H498 0.930 . S
N493 Li443 1.990 . S
N493 C492 1.314 . S
N493 C496 1.279 . S
C494 C492 1.353 . S
C494 C497 1.348 . S
C494 H526 0.929 . S
C495 C496 1.358 . S
C495 C497 1.356 . S
C495 H527 0.930 . S
C496 N493 1.279 . S
C496 C495 1.358 . S
C496 H499 0.930 . S
C497 C494 1.348 . S
C497 C495 1.356 . S
H498 C492 0.930 . S
H499 C496 0.930 . S
O500 Li440 1.956 . S
O500 Li441 1.970 . S
O500 Li442 1.961 . S
O500 C444 1.325 . S
O501 Li440 1.970 . S
O501 Li441 1.956 . S
O501 Li443 1.961 . S
O501 C450 1.325 . S
O502 Li440 1.961 . S
O502 Li442 1.956 . S
O502 Li443 1.970 . S
O502 C472 1.325 . S
O503 Li441 1.961 . S
O503 Li442 1.970 . S
O503 Li443 1.956 . S
O503 C478 1.325 . S
H504 C446 0.929 . S
H505 C447 0.930 . S
H506 C448 0.930 . S
H507 C449 0.930 . S
H508 C451 0.930 . S
H509 C453 0.929 . S
H510 C454 0.930 . S
H511 C455 0.930 . S
H512 C458 0.930 . S
H513 C461 0.929 . S
H514 C466 0.929 . S
H515 C467 0.930 . S
H516 C474 0.929 . S
H517 C475 0.930 . S
H518 C476 0.930 . S
H519 C477 0.930 . S
H520 C479 0.929 . S
H521 C480 0.930 . S
H522 C481 0.930 . S
H523 C482 0.930 . S
H524 C486 0.929 . S
H525 C488 0.930 . S
H526 C494 0.929 . S
H527 C495 0.930 . S
Li528 N545 1.990 . S
Li528 O588 1.956 . S
Li528 O589 1.970 . S
Li528 O590 1.961 . S
Li529 N553 1.990 . S
Li529 O588 1.970 . S
Li529 O589 1.956 . S
Li529 O591 1.961 . S
Li530 N575 1.990 . S
Li530 O588 1.961 . S
Li530 O590 1.956 . S
Li530 O591 1.970 . S
Li531 N581 1.990 . S
Li531 O589 1.961 . S
Li531 O590 1.970 . S
Li531 O591 1.956 . S
C532 C534 1.348 . S
C532 C535 1.356 . S
C532 O588 1.325 . S
N533 C536 1.314 . S
N533 C537 1.279 . S
C534 C532 1.348 . S
C534 C536 1.353 . S
C534 H592 0.929 . S
C535 C532 1.356 . S
C535 C537 1.358 . S
C535 H593 0.930 . S
C536 N533 1.314 . S
C536 C534 1.353 . S
C536 H594 0.930 . S
C537 N533 1.279 . S
C537 C535 1.358 . S
C537 H595 0.930 . S
C538 C541 1.348 . S
C538 C542 1.356 . S
C538 O589 1.325 . S
C539 N540 1.279 . S
C539 C542 1.358 1_554 S
C539 H596 0.930 . S
N540 C539 1.279 . S
N540 C543 1.314 . S
C541 C538 1.348 . S
C541 C543 1.353 1_556 S
C541 H597 0.929 . S
C542 C538 1.356 . S
C542 C539 1.358 1_556 S
C542 H598 0.930 . S
C543 N540 1.314 . S
C543 C541 1.353 1_554 S
C543 H599 0.930 . S
C544 N545 1.314 . S
C544 C549 1.353 . S
C544 H550 0.930 . S
N545 Li528 1.990 . S
N545 C544 1.314 . S
N545 C547 1.279 . S
C546 C547 1.358 . S
C546 C548 1.356 . S
C546 H600 0.930 . S
C547 N545 1.279 . S
C547 C546 1.358 . S
C547 H551 0.930 . S
C548 C546 1.356 . S
C548 C549 1.348 . S
C549 C544 1.353 . S
C549 C548 1.348 . S
C549 H601 0.929 . S
H550 C544 0.930 . S
H551 C547 0.930 . S
C552 N553 1.314 . S
C552 C554 1.353 . S
C552 H558 0.930 . S
N553 Li529 1.990 . S
N553 C552 1.314 . S
N553 C556 1.279 . S
C554 C552 1.353 . S
C554 C557 1.348 . S
C554 H602 0.929 . S
C555 C556 1.358 . S
C555 C557 1.356 . S
C555 H603 0.930 . S
C556 N553 1.279 . S
C556 C555 1.358 . S
C556 H559 0.930 . S
C557 C554 1.348 . S
C557 C555 1.356 . S
H558 C552 0.930 . S
H559 C556 0.930 . S
C560 C562 1.348 . S
C560 C563 1.356 . S
C560 O590 1.325 . S
N561 C564 1.314 . S
N561 C565 1.279 . S
C562 C560 1.348 . S
C562 C564 1.353 . S
C562 H604 0.929 . S
C563 C560 1.356 . S
C563 C565 1.358 . S
C563 H605 0.930 . S
C564 N561 1.314 . S
C564 C562 1.353 . S
C564 H606 0.930 . S
C565 N561 1.279 . S
C565 C563 1.358 . S
C565 H607 0.930 . S
C566 C567 1.348 . S
C566 C568 1.356 . S
C566 O591 1.325 . S
C567 C566 1.348 . S
C567 C569 1.353 . S
C567 H608 0.929 . S
C568 C566 1.356 . S
C568 C570 1.358 . S
C568 H609 0.930 . S
C569 C567 1.353 . S
C569 N571 1.314 . S
C569 H610 0.930 . S
C570 C568 1.358 . S
C570 N571 1.279 . S
C570 H611 0.930 . S
N571 C569 1.314 . S
N571 C570 1.279 . S
C572 C574 1.353 . S
C572 N575 1.314 . S
C572 H578 0.930 . S
C573 N575 1.279 . S
C573 C576 1.358 . S
C573 H579 0.930 . S
C574 C572 1.353 . S
C574 C577 1.348 . S
C574 H612 0.929 . S
N575 Li530 1.990 . S
N575 C572 1.314 . S
N575 C573 1.279 . S
C576 C573 1.358 . S
C576 C577 1.356 . S
C576 H613 0.930 . S
C577 C574 1.348 . S
C577 C576 1.356 . S
H578 C572 0.930 . S
H579 C573 0.930 . S
C580 N581 1.314 . S
C580 C582 1.353 . S
C580 H586 0.930 . S
N581 Li531 1.990 . S
N581 C580 1.314 . S
N581 C584 1.279 . S
C582 C580 1.353 . S
C582 C585 1.348 . S
C582 H614 0.929 . S
C583 C584 1.358 . S
C583 C585 1.356 . S
C583 H615 0.930 . S
C584 N581 1.279 . S
C584 C583 1.358 . S
C584 H587 0.930 . S
C585 C582 1.348 . S
C585 C583 1.356 . S
H586 C580 0.930 . S
H587 C584 0.930 . S
O588 Li528 1.956 . S
O588 Li529 1.970 . S
O588 Li530 1.961 . S
O588 C532 1.325 . S
O589 Li528 1.970 . S
O589 Li529 1.956 . S
O589 Li531 1.961 . S
O589 C538 1.325 . S
O590 Li528 1.961 . S
O590 Li530 1.956 . S
O590 Li531 1.970 . S
O590 C560 1.325 . S
O591 Li529 1.961 . S
O591 Li530 1.970 . S
O591 Li531 1.956 . S
O591 C566 1.325 . S
H592 C534 0.929 . S
H593 C535 0.930 . S
H594 C536 0.930 . S
H595 C537 0.930 . S
H596 C539 0.930 . S
H597 C541 0.929 . S
H598 C542 0.930 . S
H599 C543 0.930 . S
H600 C546 0.930 . S
H601 C549 0.929 . S
H602 C554 0.929 . S
H603 C555 0.930 . S
H604 C562 0.929 . S
H605 C563 0.930 . S
H606 C564 0.930 . S
H607 C565 0.930 . S
H608 C567 0.929 . S
H609 C568 0.930 . S
H610 C569 0.930 . S
H611 C570 0.930 . S
H612 C574 0.929 . S
H613 C576 0.930 . S
H614 C582 0.929 . S
H615 C583 0.930 . S
Li616 N633 1.990 . S
Li616 O676 1.956 . S
Li616 O677 1.970 . S
Li616 O678 1.961 . S
Li617 N641 1.990 . S
Li617 O676 1.970 . S
Li617 O677 1.956 . S
Li617 O679 1.961 . S
Li618 N663 1.990 . S
Li618 O676 1.961 . S
Li618 O678 1.956 . S
Li618 O679 1.970 . S
Li619 N669 1.990 . S
Li619 O677 1.961 . S
Li619 O678 1.970 . S
Li619 O679 1.956 . S
C620 C622 1.348 . S
C620 C623 1.356 . S
C620 O676 1.325 . S
N621 C624 1.314 . S
N621 C625 1.279 . S
C622 C620 1.348 . S
C622 C624 1.353 . S
C622 H680 0.929 . S
C623 C620 1.356 . S
C623 C625 1.358 . S
C623 H681 0.930 . S
C624 N621 1.314 . S
C624 C622 1.353 . S
C624 H682 0.930 . S
C625 N621 1.279 . S
C625 C623 1.358 . S
C625 H683 0.930 . S
C626 C629 1.348 . S
C626 C630 1.356 . S
C626 O677 1.325 . S
C627 N628 1.279 . S
C627 C630 1.358 . S
C627 H684 0.930 . S
N628 C627 1.279 . S
N628 C631 1.314 . S
C629 C626 1.348 . S
C629 C631 1.353 . S
C629 H685 0.929 . S
C630 C626 1.356 . S
C630 C627 1.358 . S
C630 H686 0.930 . S
C631 N628 1.314 . S
C631 C629 1.353 . S
C631 H687 0.930 . S
C632 N633 1.314 . S
C632 C637 1.353 . S
C632 H638 0.930 . S
N633 Li616 1.990 . S
N633 C632 1.314 . S
N633 C635 1.279 . S
C634 C635 1.358 . S
C634 C636 1.356 . S
C634 H688 0.930 . S
C635 N633 1.279 . S
C635 C634 1.358 . S
C635 H639 0.930 . S
C636 C634 1.356 . S
C636 C637 1.348 . S
C637 C632 1.353 . S
C637 C636 1.348 . S
C637 H689 0.929 . S
H638 C632 0.930 . S
H639 C635 0.930 . S
C640 N641 1.314 . S
C640 C642 1.353 . S
C640 H646 0.930 . S
N641 Li617 1.990 . S
N641 C640 1.314 . S
N641 C644 1.279 . S
C642 C640 1.353 . S
C642 C645 1.348 . S
C642 H690 0.929 . S
C643 C644 1.358 . S
C643 C645 1.356 . S
C643 H691 0.930 . S
C644 N641 1.279 . S
C644 C643 1.358 . S
C644 H647 0.930 . S
C645 C642 1.348 . S
C645 C643 1.356 . S
H646 C640 0.930 . S
H647 C644 0.930 . S
C648 C650 1.348 . S
C648 C651 1.356 . S
C648 O678 1.325 . S
N649 C652 1.314 . S
N649 C653 1.279 . S
C650 C648 1.348 . S
C650 C652 1.353 . S
C650 H692 0.929 . S
C651 C648 1.356 . S
C651 C653 1.358 . S
C651 H693 0.930 . S
C652 N649 1.314 . S
C652 C650 1.353 . S
C652 H694 0.930 . S
C653 N649 1.279 . S
C653 C651 1.358 . S
C653 H695 0.930 . S
C654 C655 1.348 . S
C654 C656 1.356 . S
C654 O679 1.325 . S
C655 C654 1.348 . S
C655 C657 1.353 . S
C655 H696 0.929 . S
C656 C654 1.356 . S
C656 C658 1.358 . S
C656 H697 0.930 . S
C657 C655 1.353 . S
C657 N659 1.314 . S
C657 H698 0.930 . S
C658 C656 1.358 . S
C658 N659 1.279 . S
C658 H699 0.930 . S
N659 C657 1.314 . S
N659 C658 1.279 . S
C660 C662 1.353 . S
C660 N663 1.314 . S
C660 H666 0.930 . S
C661 N663 1.279 . S
C661 C664 1.358 . S
C661 H667 0.930 . S
C662 C660 1.353 . S
C662 C665 1.348 . S
C662 H700 0.929 . S
N663 Li618 1.990 . S
N663 C660 1.314 . S
N663 C661 1.279 . S
C664 C661 1.358 . S
C664 C665 1.356 . S
C664 H701 0.930 . S
C665 C662 1.348 . S
C665 C664 1.356 . S
H666 C660 0.930 . S
H667 C661 0.930 . S
C668 N669 1.314 . S
C668 C670 1.353 . S
C668 H674 0.930 . S
N669 Li619 1.990 . S
N669 C668 1.314 . S
N669 C672 1.279 . S
C670 C668 1.353 . S
C670 C673 1.348 . S
C670 H702 0.929 . S
C671 C672 1.358 . S
C671 C673 1.356 . S
C671 H703 0.930 . S
C672 N669 1.279 . S
C672 C671 1.358 . S
C672 H675 0.930 . S
C673 C670 1.348 . S
C673 C671 1.356 . S
H674 C668 0.930 . S
H675 C672 0.930 . S
O676 Li616 1.956 . S
O676 Li617 1.970 . S
O676 Li618 1.961 . S
O676 C620 1.325 . S
O677 Li616 1.970 . S
O677 Li617 1.956 . S
O677 Li619 1.961 . S
O677 C626 1.325 . S
O678 Li616 1.961 . S
O678 Li618 1.956 . S
O678 Li619 1.970 . S
O678 C648 1.325 . S
O679 Li617 1.961 . S
O679 Li618 1.970 . S
O679 Li619 1.956 . S
O679 C654 1.325 . S
H680 C622 0.929 . S
H681 C623 0.930 . S
H682 C624 0.930 . S
H683 C625 0.930 . S
H684 C627 0.930 . S
H685 C629 0.929 . S
H686 C630 0.930 . S
H687 C631 0.930 . S
H688 C634 0.930 . S
H689 C637 0.929 . S
H690 C642 0.929 . S
H691 C643 0.930 . S
H692 C650 0.929 . S
H693 C651 0.930 . S
H694 C652 0.930 . S
H695 C653 0.930 . S
H696 C655 0.929 . S
H697 C656 0.930 . S
H698 C657 0.930 . S
H699 C658 0.930 . S
H700 C662 0.929 . S
H701 C664 0.930 . S
H702 C670 0.929 . S
H703 C671 0.930 . S
Li704 N721 1.990 . S
Li704 O764 1.956 . S
Li704 O765 1.970 . S
Li704 O766 1.961 . S
Li705 N729 1.990 . S
Li705 O764 1.970 . S
Li705 O765 1.956 . S
Li705 O767 1.961 . S
Li706 N751 1.990 . S
Li706 O764 1.961 . S
Li706 O766 1.956 . S
Li706 O767 1.970 . S
Li707 N757 1.990 . S
Li707 O765 1.961 . S
Li707 O766 1.970 . S
Li707 O767 1.956 . S
C708 C710 1.348 . S
C708 C711 1.356 . S
C708 O764 1.325 . S
N709 C712 1.314 . S
N709 C713 1.279 . S
C710 C708 1.348 . S
C710 C712 1.353 . S
C710 H768 0.929 . S
C711 C708 1.356 . S
C711 C713 1.358 . S
C711 H769 0.930 . S
C712 N709 1.314 . S
C712 C710 1.353 . S
C712 H770 0.930 . S
C713 N709 1.279 . S
C713 C711 1.358 . S
C713 H771 0.930 . S
C714 C717 1.348 . S
C714 C718 1.356 . S
C714 O765 1.325 . S
C715 N716 1.279 . S
C715 C718 1.358 1_554 S
C715 H772 0.930 . S
N716 C715 1.279 . S
N716 C719 1.314 . S
C717 C714 1.348 . S
C717 C719 1.353 1_556 S
C717 H773 0.929 . S
C718 C714 1.356 . S
C718 C715 1.358 1_556 S
C718 H774 0.930 . S
C719 N716 1.314 . S
C719 C717 1.353 1_554 S
C719 H775 0.930 . S
C720 N721 1.314 . S
C720 C725 1.353 . S
C720 H726 0.930 . S
N721 Li704 1.990 . S
N721 C720 1.314 . S
N721 C723 1.279 . S
C722 C723 1.358 . S
C722 C724 1.356 . S
C722 H776 0.930 . S
C723 N721 1.279 . S
C723 C722 1.358 . S
C723 H727 0.930 . S
C724 C722 1.356 . S
C724 C725 1.348 . S
C725 C720 1.353 . S
C725 C724 1.348 . S
C725 H777 0.929 . S
H726 C720 0.930 . S
H727 C723 0.930 . S
C728 N729 1.314 . S
C728 C730 1.353 . S
C728 H734 0.930 . S
N729 Li705 1.990 . S
N729 C728 1.314 . S
N729 C732 1.279 . S
C730 C728 1.353 . S
C730 C733 1.348 . S
C730 H778 0.929 . S
C731 C732 1.358 . S
C731 C733 1.356 . S
C731 H779 0.930 . S
C732 N729 1.279 . S
C732 C731 1.358 . S
C732 H735 0.930 . S
C733 C730 1.348 . S
C733 C731 1.356 . S
H734 C728 0.930 . S
H735 C732 0.930 . S
C736 C738 1.348 . S
C736 C739 1.356 . S
C736 O766 1.325 . S
N737 C740 1.314 . S
N737 C741 1.279 . S
C738 C736 1.348 . S
C738 C740 1.353 . S
C738 H780 0.929 . S
C739 C736 1.356 . S
C739 C741 1.358 . S
C739 H781 0.930 . S
C740 N737 1.314 . S
C740 C738 1.353 . S
C740 H782 0.930 . S
C741 N737 1.279 . S
C741 C739 1.358 . S
C741 H783 0.930 . S
C742 C743 1.348 . S
C742 C744 1.356 . S
C742 O767 1.325 . S
C743 C742 1.348 . S
C743 C745 1.353 . S
C743 H784 0.929 . S
C744 C742 1.356 . S
C744 C746 1.358 . S
C744 H785 0.930 . S
C745 C743 1.353 . S
C745 N747 1.314 . S
C745 H786 0.930 . S
C746 C744 1.358 . S
C746 N747 1.279 . S
C746 H787 0.930 . S
N747 C745 1.314 . S
N747 C746 1.279 . S
C748 C750 1.353 . S
C748 N751 1.314 . S
C748 H754 0.930 . S
C749 N751 1.279 . S
C749 C752 1.358 . S
C749 H755 0.930 . S
C750 C748 1.353 . S
C750 C753 1.348 . S
C750 H788 0.929 . S
N751 Li706 1.990 . S
N751 C748 1.314 . S
N751 C749 1.279 . S
C752 C749 1.358 . S
C752 C753 1.356 . S
C752 H789 0.930 . S
C753 C750 1.348 . S
C753 C752 1.356 . S
H754 C748 0.930 . S
H755 C749 0.930 . S
C756 N757 1.314 . S
C756 C758 1.353 . S
C756 H762 0.930 . S
N757 Li707 1.990 . S
N757 C756 1.314 . S
N757 C760 1.279 . S
C758 C756 1.353 . S
C758 C761 1.348 . S
C758 H790 0.929 . S
C759 C760 1.358 . S
C759 C761 1.356 . S
C759 H791 0.930 . S
C760 N757 1.279 . S
C760 C759 1.358 . S
C760 H763 0.930 . S
C761 C758 1.348 . S
C761 C759 1.356 . S
H762 C756 0.930 . S
H763 C760 0.930 . S
O764 Li704 1.956 . S
O764 Li705 1.970 . S
O764 Li706 1.961 . S
O764 C708 1.325 . S
O765 Li704 1.970 . S
O765 Li705 1.956 . S
O765 Li707 1.961 . S
O765 C714 1.325 . S
O766 Li704 1.961 . S
O766 Li706 1.956 . S
O766 Li707 1.970 . S
O766 C736 1.325 . S
O767 Li705 1.961 . S
O767 Li706 1.970 . S
O767 Li707 1.956 . S
O767 C742 1.325 . S
H768 C710 0.929 . S
H769 C711 0.930 . S
H770 C712 0.930 . S
H771 C713 0.930 . S
H772 C715 0.930 . S
H773 C717 0.929 . S
H774 C718 0.930 . S
H775 C719 0.930 . S
H776 C722 0.930 . S
H777 C725 0.929 . S
H778 C730 0.929 . S
H779 C731 0.930 . S
H780 C738 0.929 . S
H781 C739 0.930 . S
H782 C740 0.930 . S
H783 C741 0.930 . S
H784 C743 0.929 . S
H785 C744 0.930 . S
H786 C745 0.930 . S
H787 C746 0.930 . S
H788 C750 0.929 . S
H789 C752 0.930 . S
H790 C758 0.929 . S
H791 C759 0.930 . S
Li792 N809 1.990 . S
Li792 O852 1.956 . S
Li792 O853 1.970 . S
Li792 O854 1.961 . S
Li793 N817 1.990 . S
Li793 O852 1.970 . S
Li793 O853 1.956 . S
Li793 O855 1.961 . S
Li794 N839 1.990 . S
Li794 O852 1.961 . S
Li794 O854 1.956 . S
Li794 O855 1.970 . S
Li795 N845 1.990 . S
Li795 O853 1.961 . S
Li795 O854 1.970 . S
Li795 O855 1.956 . S
C796 C798 1.348 . S
C796 C799 1.356 . S
C796 O852 1.325 . S
N797 C800 1.314 . S
N797 C801 1.279 . S
C798 C796 1.348 . S
C798 C800 1.353 . S
C798 H856 0.929 . S
C799 C796 1.356 . S
C799 C801 1.358 . S
C799 H857 0.930 . S
C800 N797 1.314 . S
C800 C798 1.353 . S
C800 H858 0.930 . S
C801 N797 1.279 . S
C801 C799 1.358 . S
C801 H859 0.930 . S
C802 C805 1.348 . S
C802 C806 1.356 . S
C802 O853 1.325 . S
C803 N804 1.279 . S
C803 C806 1.358 . S
C803 H860 0.930 . S
N804 C803 1.279 . S
N804 C807 1.314 . S
C805 C802 1.348 . S
C805 C807 1.353 . S
C805 H861 0.929 . S
C806 C802 1.356 . S
C806 C803 1.358 . S
C806 H862 0.930 . S
C807 N804 1.314 . S
C807 C805 1.353 . S
C807 H863 0.930 . S
C808 N809 1.314 . S
C808 C813 1.353 . S
C808 H814 0.930 . S
N809 Li792 1.990 . S
N809 C808 1.314 . S
N809 C811 1.279 . S
C810 C811 1.358 . S
C810 C812 1.356 . S
C810 H864 0.930 . S
C811 N809 1.279 . S
C811 C810 1.358 . S
C811 H815 0.930 . S
C812 C810 1.356 . S
C812 C813 1.348 . S
C813 C808 1.353 . S
C813 C812 1.348 . S
C813 H865 0.929 . S
H814 C808 0.930 . S
H815 C811 0.930 . S
C816 N817 1.314 . S
C816 C818 1.353 . S
C816 H822 0.930 . S
N817 Li793 1.990 . S
N817 C816 1.314 . S
N817 C820 1.279 . S
C818 C816 1.353 . S
C818 C821 1.348 . S
C818 H866 0.929 . S
C819 C820 1.358 . S
C819 C821 1.356 . S
C819 H867 0.930 . S
C820 N817 1.279 . S
C820 C819 1.358 . S
C820 H823 0.930 . S
C821 C818 1.348 . S
C821 C819 1.356 . S
H822 C816 0.930 . S
H823 C820 0.930 . S
C824 C826 1.348 . S
C824 C827 1.356 . S
C824 O854 1.325 . S
N825 C828 1.314 . S
N825 C829 1.279 . S
C826 C824 1.348 . S
C826 C828 1.353 . S
C826 H868 0.929 . S
C827 C824 1.356 . S
C827 C829 1.358 . S
C827 H869 0.930 . S
C828 N825 1.314 . S
C828 C826 1.353 . S
C828 H870 0.930 . S
C829 N825 1.279 . S
C829 C827 1.358 . S
C829 H871 0.930 . S
C830 C831 1.348 . S
C830 C832 1.356 . S
C830 O855 1.325 . S
C831 C830 1.348 . S
C831 C833 1.353 . S
C831 H872 0.929 . S
C832 C830 1.356 . S
C832 C834 1.358 . S
C832 H873 0.930 . S
C833 C831 1.353 . S
C833 N835 1.314 . S
C833 H874 0.930 . S
C834 C832 1.358 . S
C834 N835 1.279 . S
C834 H875 0.930 . S
N835 C833 1.314 . S
N835 C834 1.279 . S
C836 C838 1.353 . S
C836 N839 1.314 . S
C836 H842 0.930 . S
C837 N839 1.279 . S
C837 C840 1.358 . S
C837 H843 0.930 . S
C838 C836 1.353 . S
C838 C841 1.348 . S
C838 H876 0.929 . S
N839 Li794 1.990 . S
N839 C836 1.314 . S
N839 C837 1.279 . S
C840 C837 1.358 . S
C840 C841 1.356 . S
C840 H877 0.930 . S
C841 C838 1.348 . S
C841 C840 1.356 . S
H842 C836 0.930 . S
H843 C837 0.930 . S
C844 N845 1.314 . S
C844 C846 1.353 . S
C844 H850 0.930 . S
N845 Li795 1.990 . S
N845 C844 1.314 . S
N845 C848 1.279 . S
C846 C844 1.353 . S
C846 C849 1.348 . S
C846 H878 0.929 . S
C847 C848 1.358 . S
C847 C849 1.356 . S
C847 H879 0.930 . S
C848 N845 1.279 . S
C848 C847 1.358 . S
C848 H851 0.930 . S
C849 C846 1.348 . S
C849 C847 1.356 . S
H850 C844 0.930 . S
H851 C848 0.930 . S
O852 Li792 1.956 . S
O852 Li793 1.970 . S
O852 Li794 1.961 . S
O852 C796 1.325 . S
O853 Li792 1.970 . S
O853 Li793 1.956 . S
O853 Li795 1.961 . S
O853 C802 1.325 . S
O854 Li792 1.961 . S
O854 Li794 1.956 . S
O854 Li795 1.970 . S
O854 C824 1.325 . S
O855 Li793 1.961 . S
O855 Li794 1.970 . S
O855 Li795 1.956 . S
O855 C830 1.325 . S
H856 C798 0.929 . S
H857 C799 0.930 . S
H858 C800 0.930 . S
H859 C801 0.930 . S
H860 C803 0.930 . S
H861 C805 0.929 . S
H862 C806 0.930 . S
H863 C807 0.930 . S
H864 C810 0.930 . S
H865 C813 0.929 . S
H866 C818 0.929 . S
H867 C819 0.930 . S
H868 C826 0.929 . S
H869 C827 0.930 . S
H870 C828 0.930 . S
H871 C829 0.930 . S
H872 C831 0.929 . S
H873 C832 0.930 . S
H874 C833 0.930 . S
H875 C834 0.930 . S
H876 C838 0.929 . S
H877 C840 0.930 . S
H878 C846 0.929 . S
H879 C847 0.930 . S
Li880 N897 1.990 . S
Li880 O940 1.956 . S
Li880 O941 1.970 . S
Li880 O942 1.961 . S
Li881 N905 1.990 . S
Li881 O940 1.970 . S
Li881 O941 1.956 . S
Li881 O943 1.961 . S
Li882 N927 1.990 . S
Li882 O940 1.961 . S
Li882 O942 1.956 . S
Li882 O943 1.970 . S
Li883 N933 1.990 . S
Li883 O941 1.961 . S
Li883 O942 1.970 . S
Li883 O943 1.956 . S
C884 C886 1.348 . S
C884 C887 1.356 . S
C884 O940 1.325 . S
N885 C888 1.314 . S
N885 C889 1.279 . S
C886 C884 1.348 . S
C886 C888 1.353 . S
C886 H944 0.929 . S
C887 C884 1.356 . S
C887 C889 1.358 . S
C887 H945 0.930 . S
C888 N885 1.314 . S
C888 C886 1.353 . S
C888 H946 0.930 . S
C889 N885 1.279 . S
C889 C887 1.358 . S
C889 H947 0.930 . S
C890 C893 1.348 . S
C890 C894 1.356 . S
C890 O941 1.325 . S
C891 N892 1.279 . S
C891 C894 1.358 1_554 S
C891 H948 0.930 . S
N892 C891 1.279 . S
N892 C895 1.314 . S
C893 C890 1.348 . S
C893 C895 1.353 1_556 S
C893 H949 0.929 . S
C894 C890 1.356 . S
C894 C891 1.358 1_556 S
C894 H950 0.930 . S
C895 N892 1.314 . S
C895 C893 1.353 1_554 S
C895 H951 0.930 . S
C896 N897 1.314 . S
C896 C901 1.353 . S
C896 H902 0.930 . S
N897 Li880 1.990 . S
N897 C896 1.314 . S
N897 C899 1.279 . S
C898 C899 1.358 . S
C898 C900 1.356 . S
C898 H952 0.930 . S
C899 N897 1.279 . S
C899 C898 1.358 . S
C899 H903 0.930 . S
C900 C898 1.356 . S
C900 C901 1.348 . S
C901 C896 1.353 . S
C901 C900 1.348 . S
C901 H953 0.929 . S
H902 C896 0.930 . S
H903 C899 0.930 . S
C904 N905 1.314 . S
C904 C906 1.353 . S
C904 H910 0.930 . S
N905 Li881 1.990 . S
N905 C904 1.314 . S
N905 C908 1.279 . S
C906 C904 1.353 . S
C906 C909 1.348 . S
C906 H954 0.929 . S
C907 C908 1.358 . S
C907 C909 1.356 . S
C907 H955 0.930 . S
C908 N905 1.279 . S
C908 C907 1.358 . S
C908 H911 0.930 . S
C909 C906 1.348 . S
C909 C907 1.356 . S
H910 C904 0.930 . S
H911 C908 0.930 . S
C912 C914 1.348 . S
C912 C915 1.356 . S
C912 O942 1.325 . S
N913 C916 1.314 . S
N913 C917 1.279 . S
C914 C912 1.348 . S
C914 C916 1.353 . S
C914 H956 0.929 . S
C915 C912 1.356 . S
C915 C917 1.358 . S
C915 H957 0.930 . S
C916 N913 1.314 . S
C916 C914 1.353 . S
C916 H958 0.930 . S
C917 N913 1.279 . S
C917 C915 1.358 . S
C917 H959 0.930 . S
C918 C919 1.348 . S
C918 C920 1.356 . S
C918 O943 1.325 . S
C919 C918 1.348 . S
C919 C921 1.353 . S
C919 H960 0.929 . S
C920 C918 1.356 . S
C920 C922 1.358 . S
C920 H961 0.930 . S
C921 C919 1.353 . S
C921 N923 1.314 . S
C921 H962 0.930 . S
C922 C920 1.358 . S
C922 N923 1.279 . S
C922 H963 0.930 . S
N923 C921 1.314 . S
N923 C922 1.279 . S
C924 C926 1.353 . S
C924 N927 1.314 . S
C924 H930 0.930 . S
C925 N927 1.279 . S
C925 C928 1.358 . S
C925 H931 0.930 . S
C926 C924 1.353 . S
C926 C929 1.348 . S
C926 H964 0.929 . S
N927 Li882 1.990 . S
N927 C924 1.314 . S
N927 C925 1.279 . S
C928 C925 1.358 . S
C928 C929 1.356 . S
C928 H965 0.930 . S
C929 C926 1.348 . S
C929 C928 1.356 . S
H930 C924 0.930 . S
H931 C925 0.930 . S
C932 N933 1.314 . S
C932 C934 1.353 . S
C932 H938 0.930 . S
N933 Li883 1.990 . S
N933 C932 1.314 . S
N933 C936 1.279 . S
C934 C932 1.353 . S
C934 C937 1.348 . S
C934 H966 0.929 . S
C935 C936 1.358 . S
C935 C937 1.356 . S
C935 H967 0.930 . S
C936 N933 1.279 . S
C936 C935 1.358 . S
C936 H939 0.930 . S
C937 C934 1.348 . S
C937 C935 1.356 . S
H938 C932 0.930 . S
H939 C936 0.930 . S
O940 Li880 1.956 . S
O940 Li881 1.970 . S
O940 Li882 1.961 . S
O940 C884 1.325 . S
O941 Li880 1.970 . S
O941 Li881 1.956 . S
O941 Li883 1.961 . S
O941 C890 1.325 . S
O942 Li880 1.961 . S
O942 Li882 1.956 . S
O942 Li883 1.970 . S
O942 C912 1.325 . S
O943 Li881 1.961 . S
O943 Li882 1.970 . S
O943 Li883 1.956 . S
O943 C918 1.325 . S
H944 C886 0.929 . S
H945 C887 0.930 . S
H946 C888 0.930 . S
H947 C889 0.930 . S
H948 C891 0.930 . S
H949 C893 0.929 . S
H950 C894 0.930 . S
H951 C895 0.930 . S
H952 C898 0.930 . S
H953 C901 0.929 . S
H954 C906 0.929 . S
H955 C907 0.930 . S
H956 C914 0.929 . S
H957 C915 0.930 . S
H958 C916 0.930 . S
H959 C917 0.930 . S
H960 C919 0.929 . S
H961 C920 0.930 . S
H962 C921 0.930 . S
H963 C922 0.930 . S
H964 C926 0.929 . S
H965 C928 0.930 . S
H966 C934 0.929 . S
H967 C935 0.930 . S
Li968 N985 1.990 . S
Li968 O1028 1.956 . S
Li968 O1029 1.970 . S
Li968 O1030 1.961 . S
Li969 N993 1.990 . S
Li969 O1028 1.970 . S
Li969 O1029 1.956 . S
Li969 O1031 1.961 . S
Li970 N1015 1.990 . S
Li970 O1028 1.961 . S
Li970 O1030 1.956 . S
Li970 O1031 1.970 . S
Li971 N1021 1.990 . S
Li971 O1029 1.961 . S
Li971 O1030 1.970 . S
Li971 O1031 1.956 . S
C972 C974 1.348 . S
C972 C975 1.356 . S
C972 O1028 1.325 . S
N973 C976 1.314 . S
N973 C977 1.279 . S
C974 C972 1.348 . S
C974 C976 1.353 . S
C974 H1032 0.929 . S
C975 C972 1.356 . S
C975 C977 1.358 . S
C975 H1033 0.930 . S
C976 N973 1.314 . S
C976 C974 1.353 . S
C976 H1034 0.930 . S
C977 N973 1.279 . S
C977 C975 1.358 . S
C977 H1035 0.930 . S
C978 C981 1.348 . S
C978 C982 1.356 . S
C978 O1029 1.325 . S
C979 N980 1.279 . S
C979 C982 1.358 . S
C979 H1036 0.930 . S
N980 C979 1.279 . S
N980 C983 1.314 . S
C981 C978 1.348 . S
C981 C983 1.353 . S
C981 H1037 0.929 . S
C982 C978 1.356 . S
C982 C979 1.358 . S
C982 H1038 0.930 . S
C983 N980 1.314 . S
C983 C981 1.353 . S
C983 H1039 0.930 . S
C984 N985 1.314 . S
C984 C989 1.353 . S
C984 H990 0.930 . S
N985 Li968 1.990 . S
N985 C984 1.314 . S
N985 C987 1.279 . S
C986 C987 1.358 . S
C986 C988 1.356 . S
C986 H1040 0.930 . S
C987 N985 1.279 . S
C987 C986 1.358 . S
C987 H991 0.930 . S
C988 C986 1.356 . S
C988 C989 1.348 . S
C989 C984 1.353 . S
C989 C988 1.348 . S
C989 H1041 0.929 . S
H990 C984 0.930 . S
H991 C987 0.930 . S
C992 N993 1.314 . S
C992 C994 1.353 . S
C992 H998 0.930 . S
N993 Li969 1.990 . S
N993 C992 1.314 . S
N993 C996 1.279 . S
C994 C992 1.353 . S
C994 C997 1.348 . S
C994 H1042 0.929 . S
C995 C996 1.358 . S
C995 C997 1.356 . S
C995 H1043 0.930 . S
C996 N993 1.279 . S
C996 C995 1.358 . S
C996 H999 0.930 . S
C997 C994 1.348 . S
C997 C995 1.356 . S
H998 C992 0.930 . S
H999 C996 0.930 . S
C1000 C1002 1.348 . S
C1000 C1003 1.356 . S
C1000 O1030 1.325 . S
N1001 C1004 1.314 . S
N1001 C1005 1.279 . S
C1002 C1000 1.348 . S
C1002 C1004 1.353 . S
C1002 H1044 0.929 . S
C1003 C1000 1.356 . S
C1003 C1005 1.358 . S
C1003 H1045 0.930 . S
C1004 N1001 1.314 . S
C1004 C1002 1.353 . S
C1004 H1046 0.930 . S
C1005 N1001 1.279 . S
C1005 C1003 1.358 . S
C1005 H1047 0.930 . S
C1006 C1007 1.348 . S
C1006 C1008 1.356 . S
C1006 O1031 1.325 . S
C1007 C1006 1.348 . S
C1007 C1009 1.353 . S
C1007 H1048 0.929 . S
C1008 C1006 1.356 . S
C1008 C1010 1.358 . S
C1008 H1049 0.930 . S
C1009 C1007 1.353 . S
C1009 N1011 1.314 . S
C1009 H1050 0.930 . S
C1010 C1008 1.358 . S
C1010 N1011 1.279 . S
C1010 H1051 0.930 . S
N1011 C1009 1.314 . S
N1011 C1010 1.279 . S
C1012 C1014 1.353 . S
C1012 N1015 1.314 . S
C1012 H1018 0.930 . S
C1013 N1015 1.279 . S
C1013 C1016 1.358 . S
C1013 H1019 0.930 . S
C1014 C1012 1.353 . S
C1014 C1017 1.348 . S
C1014 H1052 0.929 . S
N1015 Li970 1.990 . S
N1015 C1012 1.314 . S
N1015 C1013 1.279 . S
C1016 C1013 1.358 . S
C1016 C1017 1.356 . S
C1016 H1053 0.930 . S
C1017 C1014 1.348 . S
C1017 C1016 1.356 . S
H1018 C1012 0.930 . S
H1019 C1013 0.930 . S
C1020 N1021 1.314 . S
C1020 C1022 1.353 . S
C1020 H1026 0.930 . S
N1021 Li971 1.990 . S
N1021 C1020 1.314 . S
N1021 C1024 1.279 . S
C1022 C1020 1.353 . S
C1022 C1025 1.348 . S
C1022 H1054 0.929 . S
C1023 C1024 1.358 . S
C1023 C1025 1.356 . S
C1023 H1055 0.930 . S
C1024 N1021 1.279 . S
C1024 C1023 1.358 . S
C1024 H1027 0.930 . S
C1025 C1022 1.348 . S
C1025 C1023 1.356 . S
H1026 C1020 0.930 . S
H1027 C1024 0.930 . S
O1028 Li968 1.956 . S
O1028 Li969 1.970 . S
O1028 Li970 1.961 . S
O1028 C972 1.325 . S
O1029 Li968 1.970 . S
O1029 Li969 1.956 . S
O1029 Li971 1.961 . S
O1029 C978 1.325 . S
O1030 Li968 1.961 . S
O1030 Li970 1.956 . S
O1030 Li971 1.970 . S
O1030 C1000 1.325 . S
O1031 Li969 1.961 . S
O1031 Li970 1.970 . S
O1031 Li971 1.956 . S
O1031 C1006 1.325 . S
H1032 C974 0.929 . S
H1033 C975 0.930 . S
H1034 C976 0.930 . S
H1035 C977 0.930 . S
H1036 C979 0.930 . S
H1037 C981 0.929 . S
H1038 C982 0.930 . S
H1039 C983 0.930 . S
H1040 C986 0.930 . S
H1041 C989 0.929 . S
H1042 C994 0.929 . S
H1043 C995 0.930 . S
H1044 C1002 0.929 . S
H1045 C1003 0.930 . S
H1046 C1004 0.930 . S
H1047 C1005 0.930 . S
H1048 C1007 0.929 . S
H1049 C1008 0.930 . S
H1050 C1009 0.930 . S
H1051 C1010 0.930 . S
H1052 C1014 0.929 . S
H1053 C1016 0.930 . S
H1054 C1022 0.929 . S
H1055 C1023 0.930 . S
Li1056 N1073 1.990 . S
Li1056 O1116 1.956 . S
Li1056 O1117 1.970 . S
Li1056 O1118 1.961 . S
Li1057 N1081 1.990 . S
Li1057 O1116 1.970 . S
Li1057 O1117 1.956 . S
Li1057 O1119 1.961 . S
Li1058 N1103 1.990 . S
Li1058 O1116 1.961 . S
Li1058 O1118 1.956 . S
Li1058 O1119 1.970 . S
Li1059 N1109 1.990 . S
Li1059 O1117 1.961 . S
Li1059 O1118 1.970 . S
Li1059 O1119 1.956 . S
C1060 C1062 1.348 . S
C1060 C1063 1.356 . S
C1060 O1116 1.325 . S
N1061 C1064 1.314 . S
N1061 C1065 1.279 . S
C1062 C1060 1.348 . S
C1062 C1064 1.353 . S
C1062 H1120 0.929 . S
C1063 C1060 1.356 . S
C1063 C1065 1.358 . S
C1063 H1121 0.930 . S
C1064 N1061 1.314 . S
C1064 C1062 1.353 . S
C1064 H1122 0.930 . S
C1065 N1061 1.279 . S
C1065 C1063 1.358 . S
C1065 H1123 0.930 . S
C1066 C1069 1.348 . S
C1066 C1070 1.356 . S
C1066 O1117 1.325 . S
C1067 N1068 1.279 . S
C1067 C1070 1.358 1_554 S
C1067 H1124 0.930 . S
N1068 C1067 1.279 . S
N1068 C1071 1.314 . S
C1069 C1066 1.348 . S
C1069 C1071 1.353 1_556 S
C1069 H1125 0.929 . S
C1070 C1066 1.356 . S
C1070 C1067 1.358 1_556 S
C1070 H1126 0.930 . S
C1071 N1068 1.314 . S
C1071 C1069 1.353 1_554 S
C1071 H1127 0.930 . S
C1072 N1073 1.314 . S
C1072 C1077 1.353 . S
C1072 H1078 0.930 . S
N1073 Li1056 1.990 . S
N1073 C1072 1.314 . S
N1073 C1075 1.279 . S
C1074 C1075 1.358 . S
C1074 C1076 1.356 . S
C1074 H1128 0.930 . S
C1075 N1073 1.279 . S
C1075 C1074 1.358 . S
C1075 H1079 0.930 . S
C1076 C1074 1.356 . S
C1076 C1077 1.348 . S
C1077 C1072 1.353 . S
C1077 C1076 1.348 . S
C1077 H1129 0.929 . S
H1078 C1072 0.930 . S
H1079 C1075 0.930 . S
C1080 N1081 1.314 . S
C1080 C1082 1.353 . S
C1080 H1086 0.930 . S
N1081 Li1057 1.990 . S
N1081 C1080 1.314 . S
N1081 C1084 1.279 . S
C1082 C1080 1.353 . S
C1082 C1085 1.348 . S
C1082 H1130 0.929 . S
C1083 C1084 1.358 . S
C1083 C1085 1.356 . S
C1083 H1131 0.930 . S
C1084 N1081 1.279 . S
C1084 C1083 1.358 . S
C1084 H1087 0.930 . S
C1085 C1082 1.348 . S
C1085 C1083 1.356 . S
H1086 C1080 0.930 . S
H1087 C1084 0.930 . S
C1088 C1090 1.348 . S
C1088 C1091 1.356 . S
C1088 O1118 1.325 . S
N1089 C1092 1.314 . S
N1089 C1093 1.279 . S
C1090 C1088 1.348 . S
C1090 C1092 1.353 . S
C1090 H1132 0.929 . S
C1091 C1088 1.356 . S
C1091 C1093 1.358 . S
C1091 H1133 0.930 . S
C1092 N1089 1.314 . S
C1092 C1090 1.353 . S
C1092 H1134 0.930 . S
C1093 N1089 1.279 . S
C1093 C1091 1.358 . S
C1093 H1135 0.930 . S
C1094 C1095 1.348 . S
C1094 C1096 1.356 . S
C1094 O1119 1.325 . S
C1095 C1094 1.348 . S
C1095 C1097 1.353 . S
C1095 H1136 0.929 . S
C1096 C1094 1.356 . S
C1096 C1098 1.358 . S
C1096 H1137 0.930 . S
C1097 C1095 1.353 . S
C1097 N1099 1.314 . S
C1097 H1138 0.930 . S
C1098 C1096 1.358 . S
C1098 N1099 1.279 . S
C1098 H1139 0.930 . S
N1099 C1097 1.314 . S
N1099 C1098 1.279 . S
C1100 C1102 1.353 . S
C1100 N1103 1.314 . S
C1100 H1106 0.930 . S
C1101 N1103 1.279 . S
C1101 C1104 1.358 . S
C1101 H1107 0.930 . S
C1102 C1100 1.353 . S
C1102 C1105 1.348 . S
C1102 H1140 0.929 . S
N1103 Li1058 1.990 . S
N1103 C1100 1.314 . S
N1103 C1101 1.279 . S
C1104 C1101 1.358 . S
C1104 C1105 1.356 . S
C1104 H1141 0.930 . S
C1105 C1102 1.348 . S
C1105 C1104 1.356 . S
H1106 C1100 0.930 . S
H1107 C1101 0.930 . S
C1108 N1109 1.314 . S
C1108 C1110 1.353 . S
C1108 H1114 0.930 . S
N1109 Li1059 1.990 . S
N1109 C1108 1.314 . S
N1109 C1112 1.279 . S
C1110 C1108 1.353 . S
C1110 C1113 1.348 . S
C1110 H1142 0.929 . S
C1111 C1112 1.358 . S
C1111 C1113 1.356 . S
C1111 H1143 0.930 . S
C1112 N1109 1.279 . S
C1112 C1111 1.358 . S
C1112 H1115 0.930 . S
C1113 C1110 1.348 . S
C1113 C1111 1.356 . S
H1114 C1108 0.930 . S
H1115 C1112 0.930 . S
O1116 Li1056 1.956 . S
O1116 Li1057 1.970 . S
O1116 Li1058 1.961 . S
O1116 C1060 1.325 . S
O1117 Li1056 1.970 . S
O1117 Li1057 1.956 . S
O1117 Li1059 1.961 . S
O1117 C1066 1.325 . S
O1118 Li1056 1.961 . S
O1118 Li1058 1.956 . S
O1118 Li1059 1.970 . S
O1118 C1088 1.325 . S
O1119 Li1057 1.961 . S
O1119 Li1058 1.970 . S
O1119 Li1059 1.956 . S
O1119 C1094 1.325 . S
H1120 C1062 0.929 . S
H1121 C1063 0.930 . S
H1122 C1064 0.930 . S
H1123 C1065 0.930 . S
H1124 C1067 0.930 . S
H1125 C1069 0.929 . S
H1126 C1070 0.930 . S
H1127 C1071 0.930 . S
H1128 C1074 0.930 . S
H1129 C1077 0.929 . S
H1130 C1082 0.929 . S
H1131 C1083 0.930 . S
H1132 C1090 0.929 . S
H1133 C1091 0.930 . S
H1134 C1092 0.930 . S
H1135 C1093 0.930 . S
H1136 C1095 0.929 . S
H1137 C1096 0.930 . S
H1138 C1097 0.930 . S
H1139 C1098 0.930 . S
H1140 C1102 0.929 . S
H1141 C1104 0.930 . S
H1142 C1110 0.929 . S
H1143 C1111 0.930 . S
Li1144 N1161 1.990 . S
Li1144 O1204 1.956 . S
Li1144 O1205 1.970 . S
Li1144 O1206 1.961 . S
Li1145 N1169 1.990 . S
Li1145 O1204 1.970 . S
Li1145 O1205 1.956 . S
Li1145 O1207 1.961 . S
Li1146 N1191 1.990 . S
Li1146 O1204 1.961 . S
Li1146 O1206 1.956 . S
Li1146 O1207 1.970 . S
Li1147 N1197 1.990 . S
Li1147 O1205 1.961 . S
Li1147 O1206 1.970 . S
Li1147 O1207 1.956 . S
C1148 C1150 1.348 . S
C1148 C1151 1.356 . S
C1148 O1204 1.325 . S
N1149 C1152 1.314 . S
N1149 C1153 1.279 . S
C1150 C1148 1.348 . S
C1150 C1152 1.353 . S
C1150 H1208 0.929 . S
C1151 C1148 1.356 . S
C1151 C1153 1.358 . S
C1151 H1209 0.930 . S
C1152 N1149 1.314 . S
C1152 C1150 1.353 . S
C1152 H1210 0.930 . S
C1153 N1149 1.279 . S
C1153 C1151 1.358 . S
C1153 H1211 0.930 . S
C1154 C1157 1.348 . S
C1154 C1158 1.356 . S
C1154 O1205 1.325 . S
C1155 N1156 1.279 . S
C1155 C1158 1.358 . S
C1155 H1212 0.930 . S
N1156 C1155 1.279 . S
N1156 C1159 1.314 . S
C1157 C1154 1.348 . S
C1157 C1159 1.353 . S
C1157 H1213 0.929 . S
C1158 C1154 1.356 . S
C1158 C1155 1.358 . S
C1158 H1214 0.930 . S
C1159 N1156 1.314 . S
C1159 C1157 1.353 . S
C1159 H1215 0.930 . S
C1160 N1161 1.314 . S
C1160 C1165 1.353 . S
C1160 H1166 0.930 . S
N1161 Li1144 1.990 . S
N1161 C1160 1.314 . S
N1161 C1163 1.279 . S
C1162 C1163 1.358 . S
C1162 C1164 1.356 . S
C1162 H1216 0.930 . S
C1163 N1161 1.279 . S
C1163 C1162 1.358 . S
C1163 H1167 0.930 . S
C1164 C1162 1.356 . S
C1164 C1165 1.348 . S
C1165 C1160 1.353 . S
C1165 C1164 1.348 . S
C1165 H1217 0.929 . S
H1166 C1160 0.930 . S
H1167 C1163 0.930 . S
C1168 N1169 1.314 . S
C1168 C1170 1.353 . S
C1168 H1174 0.930 . S
N1169 Li1145 1.990 . S
N1169 C1168 1.314 . S
N1169 C1172 1.279 . S
C1170 C1168 1.353 . S
C1170 C1173 1.348 . S
C1170 H1218 0.929 . S
C1171 C1172 1.358 . S
C1171 C1173 1.356 . S
C1171 H1219 0.930 . S
C1172 N1169 1.279 . S
C1172 C1171 1.358 . S
C1172 H1175 0.930 . S
C1173 C1170 1.348 . S
C1173 C1171 1.356 . S
H1174 C1168 0.930 . S
H1175 C1172 0.930 . S
C1176 C1178 1.348 . S
C1176 C1179 1.356 . S
C1176 O1206 1.325 . S
N1177 C1180 1.314 . S
N1177 C1181 1.279 . S
C1178 C1176 1.348 . S
C1178 C1180 1.353 . S
C1178 H1220 0.929 . S
C1179 C1176 1.356 . S
C1179 C1181 1.358 . S
C1179 H1221 0.930 . S
C1180 N1177 1.314 . S
C1180 C1178 1.353 . S
C1180 H1222 0.930 . S
C1181 N1177 1.279 . S
C1181 C1179 1.358 . S
C1181 H1223 0.930 . S
C1182 C1183 1.348 . S
C1182 C1184 1.356 . S
C1182 O1207 1.325 . S
C1183 C1182 1.348 . S
C1183 C1185 1.353 . S
C1183 H1224 0.929 . S
C1184 C1182 1.356 . S
C1184 C1186 1.358 . S
C1184 H1225 0.930 . S
C1185 C1183 1.353 . S
C1185 N1187 1.314 . S
C1185 H1226 0.930 . S
C1186 C1184 1.358 . S
C1186 N1187 1.279 . S
C1186 H1227 0.930 . S
N1187 C1185 1.314 . S
N1187 C1186 1.279 . S
C1188 C1190 1.353 . S
C1188 N1191 1.314 . S
C1188 H1194 0.930 . S
C1189 N1191 1.279 . S
C1189 C1192 1.358 . S
C1189 H1195 0.930 . S
C1190 C1188 1.353 . S
C1190 C1193 1.348 . S
C1190 H1228 0.929 . S
N1191 Li1146 1.990 . S
N1191 C1188 1.314 . S
N1191 C1189 1.279 . S
C1192 C1189 1.358 . S
C1192 C1193 1.356 . S
C1192 H1229 0.930 . S
C1193 C1190 1.348 . S
C1193 C1192 1.356 . S
H1194 C1188 0.930 . S
H1195 C1189 0.930 . S
C1196 N1197 1.314 . S
C1196 C1198 1.353 . S
C1196 H1202 0.930 . S
N1197 Li1147 1.990 . S
N1197 C1196 1.314 . S
N1197 C1200 1.279 . S
C1198 C1196 1.353 . S
C1198 C1201 1.348 . S
C1198 H1230 0.929 . S
C1199 C1200 1.358 . S
C1199 C1201 1.356 . S
C1199 H1231 0.930 . S
C1200 N1197 1.279 . S
C1200 C1199 1.358 . S
C1200 H1203 0.930 . S
C1201 C1198 1.348 . S
C1201 C1199 1.356 . S
H1202 C1196 0.930 . S
H1203 C1200 0.930 . S
O1204 Li1144 1.956 . S
O1204 Li1145 1.970 . S
O1204 Li1146 1.961 . S
O1204 C1148 1.325 . S
O1205 Li1144 1.970 . S
O1205 Li1145 1.956 . S
O1205 Li1147 1.961 . S
O1205 C1154 1.325 . S
O1206 Li1144 1.961 . S
O1206 Li1146 1.956 . S
O1206 Li1147 1.970 . S
O1206 C1176 1.325 . S
O1207 Li1145 1.961 . S
O1207 Li1146 1.970 . S
O1207 Li1147 1.956 . S
O1207 C1182 1.325 . S
H1208 C1150 0.929 . S
H1209 C1151 0.930 . S
H1210 C1152 0.930 . S
H1211 C1153 0.930 . S
H1212 C1155 0.930 . S
H1213 C1157 0.929 . S
H1214 C1158 0.930 . S
H1215 C1159 0.930 . S
H1216 C1162 0.930 . S
H1217 C1165 0.929 . S
H1218 C1170 0.929 . S
H1219 C1171 0.930 . S
H1220 C1178 0.929 . S
H1221 C1179 0.930 . S
H1222 C1180 0.930 . S
H1223 C1181 0.930 . S
H1224 C1183 0.929 . S
H1225 C1184 0.930 . S
H1226 C1185 0.930 . S
H1227 C1186 0.930 . S
H1228 C1190 0.929 . S
H1229 C1192 0.930 . S
H1230 C1198 0.929 . S
H1231 C1199 0.930 . S
Li1232 N1249 1.990 . S
Li1232 O1292 1.956 . S
Li1232 O1293 1.970 . S
Li1232 O1294 1.961 . S
Li1233 N1257 1.990 . S
Li1233 O1292 1.970 . S
Li1233 O1293 1.956 . S
Li1233 O1295 1.961 . S
Li1234 N1279 1.990 . S
Li1234 O1292 1.961 . S
Li1234 O1294 1.956 . S
Li1234 O1295 1.970 . S
Li1235 N1285 1.990 . S
Li1235 O1293 1.961 . S
Li1235 O1294 1.970 . S
Li1235 O1295 1.956 . S
C1236 C1238 1.348 . S
C1236 C1239 1.356 . S
C1236 O1292 1.325 . S
N1237 C1240 1.314 . S
N1237 C1241 1.279 . S
C1238 C1236 1.348 . S
C1238 C1240 1.353 . S
C1238 H1296 0.929 . S
C1239 C1236 1.356 . S
C1239 C1241 1.358 . S
C1239 H1297 0.930 . S
C1240 N1237 1.314 . S
C1240 C1238 1.353 . S
C1240 H1298 0.930 . S
C1241 N1237 1.279 . S
C1241 C1239 1.358 . S
C1241 H1299 0.930 . S
C1242 C1245 1.348 . S
C1242 C1246 1.356 . S
C1242 O1293 1.325 . S
C1243 N1244 1.279 . S
C1243 C1246 1.358 1_554 S
C1243 H1300 0.930 . S
N1244 C1243 1.279 . S
N1244 C1247 1.314 . S
C1245 C1242 1.348 . S
C1245 C1247 1.353 1_556 S
C1245 H1301 0.929 . S
C1246 C1242 1.356 . S
C1246 C1243 1.358 1_556 S
C1246 H1302 0.930 . S
C1247 N1244 1.314 . S
C1247 C1245 1.353 1_554 S
C1247 H1303 0.930 . S
C1248 N1249 1.314 . S
C1248 C1253 1.353 . S
C1248 H1254 0.930 . S
N1249 Li1232 1.990 . S
N1249 C1248 1.314 . S
N1249 C1251 1.279 . S
C1250 C1251 1.358 . S
C1250 C1252 1.356 . S
C1250 H1304 0.930 . S
C1251 N1249 1.279 . S
C1251 C1250 1.358 . S
C1251 H1255 0.930 . S
C1252 C1250 1.356 . S
C1252 C1253 1.348 . S
C1253 C1248 1.353 . S
C1253 C1252 1.348 . S
C1253 H1305 0.929 . S
H1254 C1248 0.930 . S
H1255 C1251 0.930 . S
C1256 N1257 1.314 . S
C1256 C1258 1.353 . S
C1256 H1262 0.930 . S
N1257 Li1233 1.990 . S
N1257 C1256 1.314 . S
N1257 C1260 1.279 . S
C1258 C1256 1.353 . S
C1258 C1261 1.348 . S
C1258 H1306 0.929 . S
C1259 C1260 1.358 . S
C1259 C1261 1.356 . S
C1259 H1307 0.930 . S
C1260 N1257 1.279 . S
C1260 C1259 1.358 . S
C1260 H1263 0.930 . S
C1261 C1258 1.348 . S
C1261 C1259 1.356 . S
H1262 C1256 0.930 . S
H1263 C1260 0.930 . S
C1264 C1266 1.348 . S
C1264 C1267 1.356 . S
C1264 O1294 1.325 . S
N1265 C1268 1.314 . S
N1265 C1269 1.279 . S
C1266 C1264 1.348 . S
C1266 C1268 1.353 . S
C1266 H1308 0.929 . S
C1267 C1264 1.356 . S
C1267 C1269 1.358 . S
C1267 H1309 0.930 . S
C1268 N1265 1.314 . S
C1268 C1266 1.353 . S
C1268 H1310 0.930 . S
C1269 N1265 1.279 . S
C1269 C1267 1.358 . S
C1269 H1311 0.930 . S
C1270 C1271 1.348 . S
C1270 C1272 1.356 . S
C1270 O1295 1.325 . S
C1271 C1270 1.348 . S
C1271 C1273 1.353 . S
C1271 H1312 0.929 . S
C1272 C1270 1.356 . S
C1272 C1274 1.358 . S
C1272 H1313 0.930 . S
C1273 C1271 1.353 . S
C1273 N1275 1.314 . S
C1273 H1314 0.930 . S
C1274 C1272 1.358 . S
C1274 N1275 1.279 . S
C1274 H1315 0.930 . S
N1275 C1273 1.314 . S
N1275 C1274 1.279 . S
C1276 C1278 1.353 . S
C1276 N1279 1.314 . S
C1276 H1282 0.930 . S
C1277 N1279 1.279 . S
C1277 C1280 1.358 . S
C1277 H1283 0.930 . S
C1278 C1276 1.353 . S
C1278 C1281 1.348 . S
C1278 H1316 0.929 . S
N1279 Li1234 1.990 . S
N1279 C1276 1.314 . S
N1279 C1277 1.279 . S
C1280 C1277 1.358 . S
C1280 C1281 1.356 . S
C1280 H1317 0.930 . S
C1281 C1278 1.348 . S
C1281 C1280 1.356 . S
H1282 C1276 0.930 . S
H1283 C1277 0.930 . S
C1284 N1285 1.314 . S
C1284 C1286 1.353 . S
C1284 H1290 0.930 . S
N1285 Li1235 1.990 . S
N1285 C1284 1.314 . S
N1285 C1288 1.279 . S
C1286 C1284 1.353 . S
C1286 C1289 1.348 . S
C1286 H1318 0.929 . S
C1287 C1288 1.358 . S
C1287 C1289 1.356 . S
C1287 H1319 0.930 . S
C1288 N1285 1.279 . S
C1288 C1287 1.358 . S
C1288 H1291 0.930 . S
C1289 C1286 1.348 . S
C1289 C1287 1.356 . S
H1290 C1284 0.930 . S
H1291 C1288 0.930 . S
O1292 Li1232 1.956 . S
O1292 Li1233 1.970 . S
O1292 Li1234 1.961 . S
O1292 C1236 1.325 . S
O1293 Li1232 1.970 . S
O1293 Li1233 1.956 . S
O1293 Li1235 1.961 . S
O1293 C1242 1.325 . S
O1294 Li1232 1.961 . S
O1294 Li1234 1.956 . S
O1294 Li1235 1.970 . S
O1294 C1264 1.325 . S
O1295 Li1233 1.961 . S
O1295 Li1234 1.970 . S
O1295 Li1235 1.956 . S
O1295 C1270 1.325 . S
H1296 C1238 0.929 . S
H1297 C1239 0.930 . S
H1298 C1240 0.930 . S
H1299 C1241 0.930 . S
H1300 C1243 0.930 . S
H1301 C1245 0.929 . S
H1302 C1246 0.930 . S
H1303 C1247 0.930 . S
H1304 C1250 0.930 . S
H1305 C1253 0.929 . S
H1306 C1258 0.929 . S
H1307 C1259 0.930 . S
H1308 C1266 0.929 . S
H1309 C1267 0.930 . S
H1310 C1268 0.930 . S
H1311 C1269 0.930 . S
H1312 C1271 0.929 . S
H1313 C1272 0.930 . S
H1314 C1273 0.930 . S
H1315 C1274 0.930 . S
H1316 C1278 0.929 . S
H1317 C1280 0.930 . S
H1318 C1286 0.929 . S
H1319 C1287 0.930 . S
Li1320 N1337 1.990 . S
Li1320 O1380 1.956 . S
Li1320 O1381 1.970 . S
Li1320 O1382 1.961 . S
Li1321 N1345 1.990 . S
Li1321 O1380 1.970 . S
Li1321 O1381 1.956 . S
Li1321 O1383 1.961 . S
Li1322 N1367 1.990 . S
Li1322 O1380 1.961 . S
Li1322 O1382 1.956 . S
Li1322 O1383 1.970 . S
Li1323 N1373 1.990 . S
Li1323 O1381 1.961 . S
Li1323 O1382 1.970 . S
Li1323 O1383 1.956 . S
C1324 C1326 1.348 . S
C1324 C1327 1.356 . S
C1324 O1380 1.325 . S
N1325 C1328 1.314 . S
N1325 C1329 1.279 . S
C1326 C1324 1.348 . S
C1326 C1328 1.353 . S
C1326 H1384 0.929 . S
C1327 C1324 1.356 . S
C1327 C1329 1.358 . S
C1327 H1385 0.930 . S
C1328 N1325 1.314 . S
C1328 C1326 1.353 . S
C1328 H1386 0.930 . S
C1329 N1325 1.279 . S
C1329 C1327 1.358 . S
C1329 H1387 0.930 . S
C1330 C1333 1.348 . S
C1330 C1334 1.356 . S
C1330 O1381 1.325 . S
C1331 N1332 1.279 . S
C1331 C1334 1.358 . S
C1331 H1388 0.930 . S
N1332 C1331 1.279 . S
N1332 C1335 1.314 . S
C1333 C1330 1.348 . S
C1333 C1335 1.353 . S
C1333 H1389 0.929 . S
C1334 C1330 1.356 . S
C1334 C1331 1.358 . S
C1334 H1390 0.930 . S
C1335 N1332 1.314 . S
C1335 C1333 1.353 . S
C1335 H1391 0.930 . S
C1336 N1337 1.314 . S
C1336 C1341 1.353 . S
C1336 H1342 0.930 . S
N1337 Li1320 1.990 . S
N1337 C1336 1.314 . S
N1337 C1339 1.279 . S
C1338 C1339 1.358 . S
C1338 C1340 1.356 . S
C1338 H1392 0.930 . S
C1339 N1337 1.279 . S
C1339 C1338 1.358 . S
C1339 H1343 0.930 . S
C1340 C1338 1.356 . S
C1340 C1341 1.348 . S
C1341 C1336 1.353 . S
C1341 C1340 1.348 . S
C1341 H1393 0.929 . S
H1342 C1336 0.930 . S
H1343 C1339 0.930 . S
C1344 N1345 1.314 . S
C1344 C1346 1.353 . S
C1344 H1350 0.930 . S
N1345 Li1321 1.990 . S
N1345 C1344 1.314 . S
N1345 C1348 1.279 . S
C1346 C1344 1.353 . S
C1346 C1349 1.348 . S
C1346 H1394 0.929 . S
C1347 C1348 1.358 . S
C1347 C1349 1.356 . S
C1347 H1395 0.930 . S
C1348 N1345 1.279 . S
C1348 C1347 1.358 . S
C1348 H1351 0.930 . S
C1349 C1346 1.348 . S
C1349 C1347 1.356 . S
H1350 C1344 0.930 . S
H1351 C1348 0.930 . S
C1352 C1354 1.348 . S
C1352 C1355 1.356 . S
C1352 O1382 1.325 . S
N1353 C1356 1.314 . S
N1353 C1357 1.279 . S
C1354 C1352 1.348 . S
C1354 C1356 1.353 . S
C1354 H1396 0.929 . S
C1355 C1352 1.356 . S
C1355 C1357 1.358 . S
C1355 H1397 0.930 . S
C1356 N1353 1.314 . S
C1356 C1354 1.353 . S
C1356 H1398 0.930 . S
C1357 N1353 1.279 . S
C1357 C1355 1.358 . S
C1357 H1399 0.930 . S
C1358 C1359 1.348 . S
C1358 C1360 1.356 . S
C1358 O1383 1.325 . S
C1359 C1358 1.348 . S
C1359 C1361 1.353 . S
C1359 H1400 0.929 . S
C1360 C1358 1.356 . S
C1360 C1362 1.358 . S
C1360 H1401 0.930 . S
C1361 C1359 1.353 . S
C1361 N1363 1.314 . S
C1361 H1402 0.930 . S
C1362 C1360 1.358 . S
C1362 N1363 1.279 . S
C1362 H1403 0.930 . S
N1363 C1361 1.314 . S
N1363 C1362 1.279 . S
C1364 C1366 1.353 . S
C1364 N1367 1.314 . S
C1364 H1370 0.930 . S
C1365 N1367 1.279 . S
C1365 C1368 1.358 . S
C1365 H1371 0.930 . S
C1366 C1364 1.353 . S
C1366 C1369 1.348 . S
C1366 H1404 0.929 . S
N1367 Li1322 1.990 . S
N1367 C1364 1.314 . S
N1367 C1365 1.279 . S
C1368 C1365 1.358 . S
C1368 C1369 1.356 . S
C1368 H1405 0.930 . S
C1369 C1366 1.348 . S
C1369 C1368 1.356 . S
H1370 C1364 0.930 . S
H1371 C1365 0.930 . S
C1372 N1373 1.314 . S
C1372 C1374 1.353 . S
C1372 H1378 0.930 . S
N1373 Li1323 1.990 . S
N1373 C1372 1.314 . S
N1373 C1376 1.279 . S
C1374 C1372 1.353 . S
C1374 C1377 1.348 . S
C1374 H1406 0.929 . S
C1375 C1376 1.358 . S
C1375 C1377 1.356 . S
C1375 H1407 0.930 . S
C1376 N1373 1.279 . S
C1376 C1375 1.358 . S
C1376 H1379 0.930 . S
C1377 C1374 1.348 . S
C1377 C1375 1.356 . S
H1378 C1372 0.930 . S
H1379 C1376 0.930 . S
O1380 Li1320 1.956 . S
O1380 Li1321 1.970 . S
O1380 Li1322 1.961 . S
O1380 C1324 1.325 . S
O1381 Li1320 1.970 . S
O1381 Li1321 1.956 . S
O1381 Li1323 1.961 . S
O1381 C1330 1.325 . S
O1382 Li1320 1.961 . S
O1382 Li1322 1.956 . S
O1382 Li1323 1.970 . S
O1382 C1352 1.325 . S
O1383 Li1321 1.961 . S
O1383 Li1322 1.970 . S
O1383 Li1323 1.956 . S
O1383 C1358 1.325 . S
H1384 C1326 0.929 . S
H1385 C1327 0.930 . S
H1386 C1328 0.930 . S
H1387 C1329 0.930 . S
H1388 C1331 0.930 . S
H1389 C1333 0.929 . S
H1390 C1334 0.930 . S
H1391 C1335 0.930 . S
H1392 C1338 0.930 . S
H1393 C1341 0.929 . S
H1394 C1346 0.929 . S
H1395 C1347 0.930 . S
H1396 C1354 0.929 . S
H1397 C1355 0.930 . S
H1398 C1356 0.930 . S
H1399 C1357 0.930 . S
H1400 C1359 0.929 . S
H1401 C1360 0.930 . S
H1402 C1361 0.930 . S
H1403 C1362 0.930 . S
H1404 C1366 0.929 . S
H1405 C1368 0.930 . S
H1406 C1374 0.929 . S
H1407 C1375 0.930 . S
Li1408 N1425 1.990 . S
Li1408 O1468 1.956 . S
Li1408 O1469 1.970 . S
Li1408 O1470 1.961 . S
Li1409 N1433 1.990 . S
Li1409 O1468 1.970 . S
Li1409 O1469 1.956 . S
Li1409 O1471 1.961 . S
Li1410 N1455 1.990 . S
Li1410 O1468 1.961 . S
Li1410 O1470 1.956 . S
Li1410 O1471 1.970 . S
Li1411 N1461 1.990 . S
Li1411 O1469 1.961 . S
Li1411 O1470 1.970 . S
Li1411 O1471 1.956 . S
C1412 C1414 1.348 . S
C1412 C1415 1.356 . S
C1412 O1468 1.325 . S
N1413 C1416 1.314 . S
N1413 C1417 1.279 . S
C1414 C1412 1.348 . S
C1414 C1416 1.353 . S
C1414 H1472 0.929 . S
C1415 C1412 1.356 . S
C1415 C1417 1.358 . S
C1415 H1473 0.930 . S
C1416 N1413 1.314 . S
C1416 C1414 1.353 . S
C1416 H1474 0.930 . S
C1417 N1413 1.279 . S
C1417 C1415 1.358 . S
C1417 H1475 0.930 . S
C1418 C1421 1.348 . S
C1418 C1422 1.356 . S
C1418 O1469 1.325 . S
C1419 N1420 1.279 . S
C1419 C1422 1.358 1_554 S
C1419 H1476 0.930 . S
N1420 C1419 1.279 . S
N1420 C1423 1.314 . S
C1421 C1418 1.348 . S
C1421 C1423 1.353 1_556 S
C1421 H1477 0.929 . S
C1422 C1418 1.356 . S
C1422 C1419 1.358 1_556 S
C1422 H1478 0.930 . S
C1423 N1420 1.314 . S
C1423 C1421 1.353 1_554 S
C1423 H1479 0.930 . S
C1424 N1425 1.314 . S
C1424 C1429 1.353 . S
C1424 H1430 0.930 . S
N1425 Li1408 1.990 . S
N1425 C1424 1.314 . S
N1425 C1427 1.279 . S
C1426 C1427 1.358 . S
C1426 C1428 1.356 . S
C1426 H1480 0.930 . S
C1427 N1425 1.279 . S
C1427 C1426 1.358 . S
C1427 H1431 0.930 . S
C1428 C1426 1.356 . S
C1428 C1429 1.348 . S
C1429 C1424 1.353 . S
C1429 C1428 1.348 . S
C1429 H1481 0.929 . S
H1430 C1424 0.930 . S
H1431 C1427 0.930 . S
C1432 N1433 1.314 . S
C1432 C1434 1.353 . S
C1432 H1438 0.930 . S
N1433 Li1409 1.990 . S
N1433 C1432 1.314 . S
N1433 C1436 1.279 . S
C1434 C1432 1.353 . S
C1434 C1437 1.348 . S
C1434 H1482 0.929 . S
C1435 C1436 1.358 . S
C1435 C1437 1.356 . S
C1435 H1483 0.930 . S
C1436 N1433 1.279 . S
C1436 C1435 1.358 . S
C1436 H1439 0.930 . S
C1437 C1434 1.348 . S
C1437 C1435 1.356 . S
H1438 C1432 0.930 . S
H1439 C1436 0.930 . S
C1440 C1442 1.348 . S
C1440 C1443 1.356 . S
C1440 O1470 1.325 . S
N1441 C1444 1.314 . S
N1441 C1445 1.279 . S
C1442 C1440 1.348 . S
C1442 C1444 1.353 . S
C1442 H1484 0.929 . S
C1443 C1440 1.356 . S
C1443 C1445 1.358 . S
C1443 H1485 0.930 . S
C1444 N1441 1.314 . S
C1444 C1442 1.353 . S
C1444 H1486 0.930 . S
C1445 N1441 1.279 . S
C1445 C1443 1.358 . S
C1445 H1487 0.930 . S
C1446 C1447 1.348 . S
C1446 C1448 1.356 . S
C1446 O1471 1.325 . S
C1447 C1446 1.348 . S
C1447 C1449 1.353 . S
C1447 H1488 0.929 . S
C1448 C1446 1.356 . S
C1448 C1450 1.358 . S
C1448 H1489 0.930 . S
C1449 C1447 1.353 . S
C1449 N1451 1.314 . S
C1449 H1490 0.930 . S
C1450 C1448 1.358 . S
C1450 N1451 1.279 . S
C1450 H1491 0.930 . S
N1451 C1449 1.314 . S
N1451 C1450 1.279 . S
C1452 C1454 1.353 . S
C1452 N1455 1.314 . S
C1452 H1458 0.930 . S
C1453 N1455 1.279 . S
C1453 C1456 1.358 . S
C1453 H1459 0.930 . S
C1454 C1452 1.353 . S
C1454 C1457 1.348 . S
C1454 H1492 0.929 . S
N1455 Li1410 1.990 . S
N1455 C1452 1.314 . S
N1455 C1453 1.279 . S
C1456 C1453 1.358 . S
C1456 C1457 1.356 . S
C1456 H1493 0.930 . S
C1457 C1454 1.348 . S
C1457 C1456 1.356 . S
H1458 C1452 0.930 . S
H1459 C1453 0.930 . S
C1460 N1461 1.314 . S
C1460 C1462 1.353 . S
C1460 H1466 0.930 . S
N1461 Li1411 1.990 . S
N1461 C1460 1.314 . S
N1461 C1464 1.279 . S
C1462 C1460 1.353 . S
C1462 C1465 1.348 . S
C1462 H1494 0.929 . S
C1463 C1464 1.358 . S
C1463 C1465 1.356 . S
C1463 H1495 0.930 . S
C1464 N1461 1.279 . S
C1464 C1463 1.358 . S
C1464 H1467 0.930 . S
C1465 C1462 1.348 . S
C1465 C1463 1.356 . S
H1466 C1460 0.930 . S
H1467 C1464 0.930 . S
O1468 Li1408 1.956 . S
O1468 Li1409 1.970 . S
O1468 Li1410 1.961 . S
O1468 C1412 1.325 . S
O1469 Li1408 1.970 . S
O1469 Li1409 1.956 . S
O1469 Li1411 1.961 . S
O1469 C1418 1.325 . S
O1470 Li1408 1.961 . S
O1470 Li1410 1.956 . S
O1470 Li1411 1.970 . S
O1470 C1440 1.325 . S
O1471 Li1409 1.961 . S
O1471 Li1410 1.970 . S
O1471 Li1411 1.956 . S
O1471 C1446 1.325 . S
H1472 C1414 0.929 . S
H1473 C1415 0.930 . S
H1474 C1416 0.930 . S
H1475 C1417 0.930 . S
H1476 C1419 0.930 . S
H1477 C1421 0.929 . S
H1478 C1422 0.930 . S
H1479 C1423 0.930 . S
H1480 C1426 0.930 . S
H1481 C1429 0.929 . S
H1482 C1434 0.929 . S
H1483 C1435 0.930 . S
H1484 C1442 0.929 . S
H1485 C1443 0.930 . S
H1486 C1444 0.930 . S
H1487 C1445 0.930 . S
H1488 C1447 0.929 . S
H1489 C1448 0.930 . S
H1490 C1449 0.930 . S
H1491 C1450 0.930 . S
H1492 C1454 0.929 . S
H1493 C1456 0.930 . S
H1494 C1462 0.929 . S
H1495 C1463 0.930 . S
Li1496 N1513 1.990 . S
Li1496 O1556 1.956 . S
Li1496 O1557 1.970 . S
Li1496 O1558 1.961 . S
Li1497 N1521 1.990 . S
Li1497 O1556 1.970 . S
Li1497 O1557 1.956 . S
Li1497 O1559 1.961 . S
Li1498 N1543 1.990 . S
Li1498 O1556 1.961 . S
Li1498 O1558 1.956 . S
Li1498 O1559 1.970 . S
Li1499 N1549 1.990 . S
Li1499 O1557 1.961 . S
Li1499 O1558 1.970 . S
Li1499 O1559 1.956 . S
C1500 C1502 1.348 . S
C1500 C1503 1.356 . S
C1500 O1556 1.325 . S
N1501 C1504 1.314 . S
N1501 C1505 1.279 . S
C1502 C1500 1.348 . S
C1502 C1504 1.353 . S
C1502 H1560 0.929 . S
C1503 C1500 1.356 . S
C1503 C1505 1.358 . S
C1503 H1561 0.930 . S
C1504 N1501 1.314 . S
C1504 C1502 1.353 . S
C1504 H1562 0.930 . S
C1505 N1501 1.279 . S
C1505 C1503 1.358 . S
C1505 H1563 0.930 . S
C1506 C1509 1.348 . S
C1506 C1510 1.356 . S
C1506 O1557 1.325 . S
C1507 N1508 1.279 . S
C1507 C1510 1.358 . S
C1507 H1564 0.930 . S
N1508 C1507 1.279 . S
N1508 C1511 1.314 . S
C1509 C1506 1.348 . S
C1509 C1511 1.353 . S
C1509 H1565 0.929 . S
C1510 C1506 1.356 . S
C1510 C1507 1.358 . S
C1510 H1566 0.930 . S
C1511 N1508 1.314 . S
C1511 C1509 1.353 . S
C1511 H1567 0.930 . S
C1512 N1513 1.314 . S
C1512 C1517 1.353 . S
C1512 H1518 0.930 . S
N1513 Li1496 1.990 . S
N1513 C1512 1.314 . S
N1513 C1515 1.279 . S
C1514 C1515 1.358 . S
C1514 C1516 1.356 . S
C1514 H1568 0.930 . S
C1515 N1513 1.279 . S
C1515 C1514 1.358 . S
C1515 H1519 0.930 . S
C1516 C1514 1.356 . S
C1516 C1517 1.348 . S
C1517 C1512 1.353 . S
C1517 C1516 1.348 . S
C1517 H1569 0.929 . S
H1518 C1512 0.930 . S
H1519 C1515 0.930 . S
C1520 N1521 1.314 . S
C1520 C1522 1.353 . S
C1520 H1526 0.930 . S
N1521 Li1497 1.990 . S
N1521 C1520 1.314 . S
N1521 C1524 1.279 . S
C1522 C1520 1.353 . S
C1522 C1525 1.348 . S
C1522 H1570 0.929 . S
C1523 C1524 1.358 . S
C1523 C1525 1.356 . S
C1523 H1571 0.930 . S
C1524 N1521 1.279 . S
C1524 C1523 1.358 . S
C1524 H1527 0.930 . S
C1525 C1522 1.348 . S
C1525 C1523 1.356 . S
H1526 C1520 0.930 . S
H1527 C1524 0.930 . S
C1528 C1530 1.348 . S
C1528 C1531 1.356 . S
C1528 O1558 1.325 . S
N1529 C1532 1.314 . S
N1529 C1533 1.279 . S
C1530 C1528 1.348 . S
C1530 C1532 1.353 . S
C1530 H1572 0.929 . S
C1531 C1528 1.356 . S
C1531 C1533 1.358 . S
C1531 H1573 0.930 . S
C1532 N1529 1.314 . S
C1532 C1530 1.353 . S
C1532 H1574 0.930 . S
C1533 N1529 1.279 . S
C1533 C1531 1.358 . S
C1533 H1575 0.930 . S
C1534 C1535 1.348 . S
C1534 C1536 1.356 . S
C1534 O1559 1.325 . S
C1535 C1534 1.348 . S
C1535 C1537 1.353 . S
C1535 H1576 0.929 . S
C1536 C1534 1.356 . S
C1536 C1538 1.358 . S
C1536 H1577 0.930 . S
C1537 C1535 1.353 . S
C1537 N1539 1.314 . S
C1537 H1578 0.930 . S
C1538 C1536 1.358 . S
C1538 N1539 1.279 . S
C1538 H1579 0.930 . S
N1539 C1537 1.314 . S
N1539 C1538 1.279 . S
C1540 C1542 1.353 . S
C1540 N1543 1.314 . S
C1540 H1546 0.930 . S
C1541 N1543 1.279 . S
C1541 C1544 1.358 . S
C1541 H1547 0.930 . S
C1542 C1540 1.353 . S
C1542 C1545 1.348 . S
C1542 H1580 0.929 . S
N1543 Li1498 1.990 . S
N1543 C1540 1.314 . S
N1543 C1541 1.279 . S
C1544 C1541 1.358 . S
C1544 C1545 1.356 . S
C1544 H1581 0.930 . S
C1545 C1542 1.348 . S
C1545 C1544 1.356 . S
H1546 C1540 0.930 . S
H1547 C1541 0.930 . S
C1548 N1549 1.314 . S
C1548 C1550 1.353 . S
C1548 H1554 0.930 . S
N1549 Li1499 1.990 . S
N1549 C1548 1.314 . S
N1549 C1552 1.279 . S
C1550 C1548 1.353 . S
C1550 C1553 1.348 . S
C1550 H1582 0.929 . S
C1551 C1552 1.358 . S
C1551 C1553 1.356 . S
C1551 H1583 0.930 . S
C1552 N1549 1.279 . S
C1552 C1551 1.358 . S
C1552 H1555 0.930 . S
C1553 C1550 1.348 . S
C1553 C1551 1.356 . S
H1554 C1548 0.930 . S
H1555 C1552 0.930 . S
O1556 Li1496 1.956 . S
O1556 Li1497 1.970 . S
O1556 Li1498 1.961 . S
O1556 C1500 1.325 . S
O1557 Li1496 1.970 . S
O1557 Li1497 1.956 . S
O1557 Li1499 1.961 . S
O1557 C1506 1.325 . S
O1558 Li1496 1.961 . S
O1558 Li1498 1.956 . S
O1558 Li1499 1.970 . S
O1558 C1528 1.325 . S
O1559 Li1497 1.961 . S
O1559 Li1498 1.970 . S
O1559 Li1499 1.956 . S
O1559 C1534 1.325 . S
H1560 C1502 0.929 . S
H1561 C1503 0.930 . S
H1562 C1504 0.930 . S
H1563 C1505 0.930 . S
H1564 C1507 0.930 . S
H1565 C1509 0.929 . S
H1566 C1510 0.930 . S
H1567 C1511 0.930 . S
H1568 C1514 0.930 . S
H1569 C1517 0.929 . S
H1570 C1522 0.929 . S
H1571 C1523 0.930 . S
H1572 C1530 0.929 . S
H1573 C1531 0.930 . S
H1574 C1532 0.930 . S
H1575 C1533 0.930 . S
H1576 C1535 0.929 . S
H1577 C1536 0.930 . S
H1578 C1537 0.930 . S
H1579 C1538 0.930 . S
H1580 C1542 0.929 . S
H1581 C1544 0.930 . S
H1582 C1550 0.929 . S
H1583 C1551 0.930 . S
Li1584 N1601 1.990 . S
Li1584 O1644 1.956 . S
Li1584 O1645 1.970 . S
Li1584 O1646 1.961 . S
Li1585 N1609 1.990 . S
Li1585 O1644 1.970 . S
Li1585 O1645 1.956 . S
Li1585 O1647 1.961 . S
Li1586 N1631 1.990 . S
Li1586 O1644 1.961 . S
Li1586 O1646 1.956 . S
Li1586 O1647 1.970 . S
Li1587 N1637 1.990 . S
Li1587 O1645 1.961 . S
Li1587 O1646 1.970 . S
Li1587 O1647 1.956 . S
C1588 C1590 1.348 . S
C1588 C1591 1.356 . S
C1588 O1644 1.325 . S
N1589 C1592 1.314 . S
N1589 C1593 1.279 . S
C1590 C1588 1.348 . S
C1590 C1592 1.353 1_554 S
C1590 H1648 0.929 . S
C1591 C1588 1.356 . S
C1591 C1593 1.358 1_554 S
C1591 H1649 0.930 . S
C1592 N1589 1.314 . S
C1592 C1590 1.353 1_556 S
C1592 H1650 0.930 . S
C1593 N1589 1.279 . S
C1593 C1591 1.358 1_556 S
C1593 H1651 0.930 . S
C1594 C1597 1.348 . S
C1594 C1598 1.356 . S
C1594 O1645 1.325 . S
C1595 N1596 1.279 . S
C1595 C1598 1.358 . S
C1595 H1652 0.930 . S
N1596 C1595 1.279 . S
N1596 C1599 1.314 . S
C1597 C1594 1.348 . S
C1597 C1599 1.353 . S
C1597 H1653 0.929 . S
C1598 C1594 1.356 . S
C1598 C1595 1.358 . S
C1598 H1654 0.930 . S
C1599 N1596 1.314 . S
C1599 C1597 1.353 . S
C1599 H1655 0.930 . S
C1600 N1601 1.314 . S
C1600 C1605 1.353 . S
C1600 H1606 0.930 . S
N1601 Li1584 1.990 . S
N1601 C1600 1.314 . S
N1601 C1603 1.279 . S
C1602 C1603 1.358 . S
C1602 C1604 1.356 . S
C1602 H1656 0.930 . S
C1603 N1601 1.279 . S
C1603 C1602 1.358 . S
C1603 H1607 0.930 . S
C1604 C1602 1.356 . S
C1604 C1605 1.348 . S
C1605 C1600 1.353 . S
C1605 C1604 1.348 . S
C1605 H1657 0.929 . S
H1606 C1600 0.930 . S
H1607 C1603 0.930 . S
C1608 N1609 1.314 . S
C1608 C1610 1.353 . S
C1608 H1614 0.930 . S
N1609 Li1585 1.990 . S
N1609 C1608 1.314 . S
N1609 C1612 1.279 . S
C1610 C1608 1.353 . S
C1610 C1613 1.348 . S
C1610 H1658 0.929 . S
C1611 C1612 1.358 . S
C1611 C1613 1.356 . S
C1611 H1659 0.930 . S
C1612 N1609 1.279 . S
C1612 C1611 1.358 . S
C1612 H1615 0.930 . S
C1613 C1610 1.348 . S
C1613 C1611 1.356 . S
H1614 C1608 0.930 . S
H1615 C1612 0.930 . S
C1616 C1618 1.348 . S
C1616 C1619 1.356 . S
C1616 O1646 1.325 . S
N1617 C1620 1.314 . S
N1617 C1621 1.279 . S
C1618 C1616 1.348 . S
C1618 C1620 1.353 . S
C1618 H1660 0.929 . S
C1619 C1616 1.356 . S
C1619 C1621 1.358 . S
C1619 H1661 0.930 . S
C1620 N1617 1.314 . S
C1620 C1618 1.353 . S
C1620 H1662 0.930 . S
C1621 N1617 1.279 . S
C1621 C1619 1.358 . S
C1621 H1663 0.930 . S
C1622 C1623 1.348 . S
C1622 C1624 1.356 . S
C1622 O1647 1.325 . S
C1623 C1622 1.348 . S
C1623 C1625 1.353 . S
C1623 H1664 0.929 . S
C1624 C1622 1.356 . S
C1624 C1626 1.358 . S
C1624 H1665 0.930 . S
C1625 C1623 1.353 . S
C1625 N1627 1.314 . S
C1625 H1666 0.930 . S
C1626 C1624 1.358 . S
C1626 N1627 1.279 . S
C1626 H1667 0.930 . S
N1627 C1625 1.314 . S
N1627 C1626 1.279 . S
C1628 C1630 1.353 . S
C1628 N1631 1.314 . S
C1628 H1634 0.930 . S
C1629 N1631 1.279 . S
C1629 C1632 1.358 . S
C1629 H1635 0.930 . S
C1630 C1628 1.353 . S
C1630 C1633 1.348 . S
C1630 H1668 0.929 . S
N1631 Li1586 1.990 . S
N1631 C1628 1.314 . S
N1631 C1629 1.279 . S
C1632 C1629 1.358 . S
C1632 C1633 1.356 . S
C1632 H1669 0.930 . S
C1633 C1630 1.348 . S
C1633 C1632 1.356 . S
H1634 C1628 0.930 . S
H1635 C1629 0.930 . S
C1636 N1637 1.314 . S
C1636 C1638 1.353 . S
C1636 H1642 0.930 . S
N1637 Li1587 1.990 . S
N1637 C1636 1.314 . S
N1637 C1640 1.279 . S
C1638 C1636 1.353 . S
C1638 C1641 1.348 . S
C1638 H1670 0.929 . S
C1639 C1640 1.358 . S
C1639 C1641 1.356 . S
C1639 H1671 0.930 . S
C1640 N1637 1.279 . S
C1640 C1639 1.358 . S
C1640 H1643 0.930 . S
C1641 C1638 1.348 . S
C1641 C1639 1.356 . S
H1642 C1636 0.930 . S
H1643 C1640 0.930 . S
O1644 Li1584 1.956 . S
O1644 Li1585 1.970 . S
O1644 Li1586 1.961 . S
O1644 C1588 1.325 . S
O1645 Li1584 1.970 . S
O1645 Li1585 1.956 . S
O1645 Li1587 1.961 . S
O1645 C1594 1.325 . S
O1646 Li1584 1.961 . S
O1646 Li1586 1.956 . S
O1646 Li1587 1.970 . S
O1646 C1616 1.325 . S
O1647 Li1585 1.961 . S
O1647 Li1586 1.970 . S
O1647 Li1587 1.956 . S
O1647 C1622 1.325 . S
H1648 C1590 0.929 . S
H1649 C1591 0.930 . S
H1650 C1592 0.930 . S
H1651 C1593 0.930 . S
H1652 C1595 0.930 . S
H1653 C1597 0.929 . S
H1654 C1598 0.930 . S
H1655 C1599 0.930 . S
H1656 C1602 0.930 . S
H1657 C1605 0.929 . S
H1658 C1610 0.929 . S
H1659 C1611 0.930 . S
H1660 C1618 0.929 . S
H1661 C1619 0.930 . S
H1662 C1620 0.930 . S
H1663 C1621 0.930 . S
H1664 C1623 0.929 . S
H1665 C1624 0.930 . S
H1666 C1625 0.930 . S
H1667 C1626 0.930 . S
H1668 C1630 0.929 . S
H1669 C1632 0.930 . S
H1670 C1638 0.929 . S
H1671 C1639 0.930 . S
Li1672 N1689 1.990 . S
Li1672 O1732 1.956 . S
Li1672 O1733 1.970 . S
Li1672 O1734 1.961 . S
Li1673 N1697 1.990 . S
Li1673 O1732 1.970 . S
Li1673 O1733 1.956 . S
Li1673 O1735 1.961 . S
Li1674 N1719 1.990 . S
Li1674 O1732 1.961 . S
Li1674 O1734 1.956 . S
Li1674 O1735 1.970 . S
Li1675 N1725 1.990 . S
Li1675 O1733 1.961 . S
Li1675 O1734 1.970 . S
Li1675 O1735 1.956 . S
C1676 C1678 1.348 . S
C1676 C1679 1.356 . S
C1676 O1732 1.325 . S
N1677 C1680 1.314 . S
N1677 C1681 1.279 . S
C1678 C1676 1.348 . S
C1678 C1680 1.353 . S
C1678 H1736 0.929 . S
C1679 C1676 1.356 . S
C1679 C1681 1.358 . S
C1679 H1737 0.930 . S
C1680 N1677 1.314 . S
C1680 C1678 1.353 . S
C1680 H1738 0.930 . S
C1681 N1677 1.279 . S
C1681 C1679 1.358 . S
C1681 H1739 0.930 . S
C1682 C1685 1.348 . S
C1682 C1686 1.356 . S
C1682 O1733 1.325 . S
C1683 N1684 1.279 . S
C1683 C1686 1.358 . S
C1683 H1740 0.930 . S
N1684 C1683 1.279 . S
N1684 C1687 1.314 . S
C1685 C1682 1.348 . S
C1685 C1687 1.353 . S
C1685 H1741 0.929 . S
C1686 C1682 1.356 . S
C1686 C1683 1.358 . S
C1686 H1742 0.930 . S
C1687 N1684 1.314 . S
C1687 C1685 1.353 . S
C1687 H1743 0.930 . S
C1688 N1689 1.314 . S
C1688 C1693 1.353 . S
C1688 H1694 0.930 . S
N1689 Li1672 1.990 . S
N1689 C1688 1.314 . S
N1689 C1691 1.279 . S
C1690 C1691 1.358 . S
C1690 C1692 1.356 . S
C1690 H1744 0.930 . S
C1691 N1689 1.279 . S
C1691 C1690 1.358 . S
C1691 H1695 0.930 . S
C1692 C1690 1.356 . S
C1692 C1693 1.348 . S
C1693 C1688 1.353 . S
C1693 C1692 1.348 . S
C1693 H1745 0.929 . S
H1694 C1688 0.930 . S
H1695 C1691 0.930 . S
C1696 N1697 1.314 . S
C1696 C1698 1.353 . S
C1696 H1702 0.930 . S
N1697 Li1673 1.990 . S
N1697 C1696 1.314 . S
N1697 C1700 1.279 . S
C1698 C1696 1.353 . S
C1698 C1701 1.348 . S
C1698 H1746 0.929 . S
C1699 C1700 1.358 . S
C1699 C1701 1.356 . S
C1699 H1747 0.930 . S
C1700 N1697 1.279 . S
C1700 C1699 1.358 . S
C1700 H1703 0.930 . S
C1701 C1698 1.348 . S
C1701 C1699 1.356 . S
H1702 C1696 0.930 . S
H1703 C1700 0.930 . S
C1704 C1706 1.348 . S
C1704 C1707 1.356 . S
C1704 O1734 1.325 . S
N1705 C1708 1.314 . S
N1705 C1709 1.279 . S
C1706 C1704 1.348 . S
C1706 C1708 1.353 . S
C1706 H1748 0.929 . S
C1707 C1704 1.356 . S
C1707 C1709 1.358 . S
C1707 H1749 0.930 . S
C1708 N1705 1.314 . S
C1708 C1706 1.353 . S
C1708 H1750 0.930 . S
C1709 N1705 1.279 . S
C1709 C1707 1.358 . S
C1709 H1751 0.930 . S
C1710 C1711 1.348 . S
C1710 C1712 1.356 . S
C1710 O1735 1.325 . S
C1711 C1710 1.348 . S
C1711 C1713 1.353 . S
C1711 H1752 0.929 . S
C1712 C1710 1.356 . S
C1712 C1714 1.358 . S
C1712 H1753 0.930 . S
C1713 C1711 1.353 . S
C1713 N1715 1.314 . S
C1713 H1754 0.930 . S
C1714 C1712 1.358 . S
C1714 N1715 1.279 . S
C1714 H1755 0.930 . S
N1715 C1713 1.314 . S
N1715 C1714 1.279 . S
C1716 C1718 1.353 . S
C1716 N1719 1.314 . S
C1716 H1722 0.930 . S
C1717 N1719 1.279 . S
C1717 C1720 1.358 . S
C1717 H1723 0.930 . S
C1718 C1716 1.353 . S
C1718 C1721 1.348 . S
C1718 H1756 0.929 . S
N1719 Li1674 1.990 . S
N1719 C1716 1.314 . S
N1719 C1717 1.279 . S
C1720 C1717 1.358 . S
C1720 C1721 1.356 . S
C1720 H1757 0.930 . S
C1721 C1718 1.348 . S
C1721 C1720 1.356 . S
H1722 C1716 0.930 . S
H1723 C1717 0.930 . S
C1724 N1725 1.314 . S
C1724 C1726 1.353 . S
C1724 H1730 0.930 . S
N1725 Li1675 1.990 . S
N1725 C1724 1.314 . S
N1725 C1728 1.279 . S
C1726 C1724 1.353 . S
C1726 C1729 1.348 . S
C1726 H1758 0.929 . S
C1727 C1728 1.358 . S
C1727 C1729 1.356 . S
C1727 H1759 0.930 . S
C1728 N1725 1.279 . S
C1728 C1727 1.358 . S
C1728 H1731 0.930 . S
C1729 C1726 1.348 . S
C1729 C1727 1.356 . S
H1730 C1724 0.930 . S
H1731 C1728 0.930 . S
O1732 Li1672 1.956 . S
O1732 Li1673 1.970 . S
O1732 Li1674 1.961 . S
O1732 C1676 1.325 . S
O1733 Li1672 1.970 . S
O1733 Li1673 1.956 . S
O1733 Li1675 1.961 . S
O1733 C1682 1.325 . S
O1734 Li1672 1.961 . S
O1734 Li1674 1.956 . S
O1734 Li1675 1.970 . S
O1734 C1704 1.325 . S
O1735 Li1673 1.961 . S
O1735 Li1674 1.970 . S
O1735 Li1675 1.956 . S
O1735 C1710 1.325 . S
H1736 C1678 0.929 . S
H1737 C1679 0.930 . S
H1738 C1680 0.930 . S
H1739 C1681 0.930 . S
H1740 C1683 0.930 . S
H1741 C1685 0.929 . S
H1742 C1686 0.930 . S
H1743 C1687 0.930 . S
H1744 C1690 0.930 . S
H1745 C1693 0.929 . S
H1746 C1698 0.929 . S
H1747 C1699 0.930 . S
H1748 C1706 0.929 . S
H1749 C1707 0.930 . S
H1750 C1708 0.930 . S
H1751 C1709 0.930 . S
H1752 C1711 0.929 . S
H1753 C1712 0.930 . S
H1754 C1713 0.930 . S
H1755 C1714 0.930 . S
H1756 C1718 0.929 . S
H1757 C1720 0.930 . S
H1758 C1726 0.929 . S
H1759 C1727 0.930 . S
Li1760 N1777 1.990 . S
Li1760 O1820 1.956 . S
Li1760 O1821 1.970 . S
Li1760 O1822 1.961 . S
Li1761 N1785 1.990 . S
Li1761 O1820 1.970 . S
Li1761 O1821 1.956 . S
Li1761 O1823 1.961 . S
Li1762 N1807 1.990 . S
Li1762 O1820 1.961 . S
Li1762 O1822 1.956 . S
Li1762 O1823 1.970 . S
Li1763 N1813 1.990 . S
Li1763 O1821 1.961 . S
Li1763 O1822 1.970 . S
Li1763 O1823 1.956 . S
C1764 C1766 1.348 . S
C1764 C1767 1.356 . S
C1764 O1820 1.325 . S
N1765 C1768 1.314 . S
N1765 C1769 1.279 . S
C1766 C1764 1.348 . S
C1766 C1768 1.353 . S
C1766 H1824 0.929 . S
C1767 C1764 1.356 . S
C1767 C1769 1.358 . S
C1767 H1825 0.930 . S
C1768 N1765 1.314 . S
C1768 C1766 1.353 . S
C1768 H1826 0.930 . S
C1769 N1765 1.279 . S
C1769 C1767 1.358 . S
C1769 H1827 0.930 . S
C1770 C1773 1.348 . S
C1770 C1774 1.356 . S
C1770 O1821 1.325 . S
C1771 N1772 1.279 . S
C1771 C1774 1.358 . S
C1771 H1828 0.930 . S
N1772 C1771 1.279 . S
N1772 C1775 1.314 . S
C1773 C1770 1.348 . S
C1773 C1775 1.353 . S
C1773 H1829 0.929 . S
C1774 C1770 1.356 . S
C1774 C1771 1.358 . S
C1774 H1830 0.930 . S
C1775 N1772 1.314 . S
C1775 C1773 1.353 . S
C1775 H1831 0.930 . S
C1776 N1777 1.314 . S
C1776 C1781 1.353 . S
C1776 H1782 0.930 . S
N1777 Li1760 1.990 . S
N1777 C1776 1.314 . S
N1777 C1779 1.279 . S
C1778 C1779 1.358 . S
C1778 C1780 1.356 . S
C1778 H1832 0.930 . S
C1779 N1777 1.279 . S
C1779 C1778 1.358 . S
C1779 H1783 0.930 . S
C1780 C1778 1.356 . S
C1780 C1781 1.348 . S
C1781 C1776 1.353 . S
C1781 C1780 1.348 . S
C1781 H1833 0.929 . S
H1782 C1776 0.930 . S
H1783 C1779 0.930 . S
C1784 N1785 1.314 . S
C1784 C1786 1.353 . S
C1784 H1790 0.930 . S
N1785 Li1761 1.990 . S
N1785 C1784 1.314 . S
N1785 C1788 1.279 . S
C1786 C1784 1.353 . S
C1786 C1789 1.348 . S
C1786 H1834 0.929 . S
C1787 C1788 1.358 . S
C1787 C1789 1.356 . S
C1787 H1835 0.930 . S
C1788 N1785 1.279 . S
C1788 C1787 1.358 . S
C1788 H1791 0.930 . S
C1789 C1786 1.348 . S
C1789 C1787 1.356 . S
H1790 C1784 0.930 . S
H1791 C1788 0.930 . S
C1792 C1794 1.348 . S
C1792 C1795 1.356 . S
C1792 O1822 1.325 . S
N1793 C1796 1.314 . S
N1793 C1797 1.279 . S
C1794 C1792 1.348 . S
C1794 C1796 1.353 1_554 S
C1794 H1836 0.929 . S
C1795 C1792 1.356 . S
C1795 C1797 1.358 1_554 S
C1795 H1837 0.930 . S
C1796 N1793 1.314 . S
C1796 C1794 1.353 1_556 S
C1796 H1838 0.930 . S
C1797 N1793 1.279 . S
C1797 C1795 1.358 1_556 S
C1797 H1839 0.930 . S
C1798 C1799 1.348 . S
C1798 C1800 1.356 . S
C1798 O1823 1.325 . S
C1799 C1798 1.348 . S
C1799 C1801 1.353 . S
C1799 H1840 0.929 . S
C1800 C1798 1.356 . S
C1800 C1802 1.358 . S
C1800 H1841 0.930 . S
C1801 C1799 1.353 . S
C1801 N1803 1.314 . S
C1801 H1842 0.930 . S
C1802 C1800 1.358 . S
C1802 N1803 1.279 . S
C1802 H1843 0.930 . S
N1803 C1801 1.314 . S
N1803 C1802 1.279 . S
C1804 C1806 1.353 . S
C1804 N1807 1.314 . S
C1804 H1810 0.930 . S
C1805 N1807 1.279 . S
C1805 C1808 1.358 . S
C1805 H1811 0.930 . S
C1806 C1804 1.353 . S
C1806 C1809 1.348 . S
C1806 H1844 0.929 . S
N1807 Li1762 1.990 . S
N1807 C1804 1.314 . S
N1807 C1805 1.279 . S
C1808 C1805 1.358 . S
C1808 C1809 1.356 . S
C1808 H1845 0.930 . S
C1809 C1806 1.348 . S
C1809 C1808 1.356 . S
H1810 C1804 0.930 . S
H1811 C1805 0.930 . S
C1812 N1813 1.314 . S
C1812 C1814 1.353 . S
C1812 H1818 0.930 . S
N1813 Li1763 1.990 . S
N1813 C1812 1.314 . S
N1813 C1816 1.279 . S
C1814 C1812 1.353 . S
C1814 C1817 1.348 . S
C1814 H1846 0.929 . S
C1815 C1816 1.358 . S
C1815 C1817 1.356 . S
C1815 H1847 0.930 . S
C1816 N1813 1.279 . S
C1816 C1815 1.358 . S
C1816 H1819 0.930 . S
C1817 C1814 1.348 . S
C1817 C1815 1.356 . S
H1818 C1812 0.930 . S
H1819 C1816 0.930 . S
O1820 Li1760 1.956 . S
O1820 Li1761 1.970 . S
O1820 Li1762 1.961 . S
O1820 C1764 1.325 . S
O1821 Li1760 1.970 . S
O1821 Li1761 1.956 . S
O1821 Li1763 1.961 . S
O1821 C1770 1.325 . S
O1822 Li1760 1.961 . S
O1822 Li1762 1.956 . S
O1822 Li1763 1.970 . S
O1822 C1792 1.325 . S
O1823 Li1761 1.961 . S
O1823 Li1762 1.970 . S
O1823 Li1763 1.956 . S
O1823 C1798 1.325 . S
H1824 C1766 0.929 . S
H1825 C1767 0.930 . S
H1826 C1768 0.930 . S
H1827 C1769 0.930 . S
H1828 C1771 0.930 . S
H1829 C1773 0.929 . S
H1830 C1774 0.930 . S
H1831 C1775 0.930 . S
H1832 C1778 0.930 . S
H1833 C1781 0.929 . S
H1834 C1786 0.929 . S
H1835 C1787 0.930 . S
H1836 C1794 0.929 . S
H1837 C1795 0.930 . S
H1838 C1796 0.930 . S
H1839 C1797 0.930 . S
H1840 C1799 0.929 . S
H1841 C1800 0.930 . S
H1842 C1801 0.930 . S
H1843 C1802 0.930 . S
H1844 C1806 0.929 . S
H1845 C1808 0.930 . S
H1846 C1814 0.929 . S
H1847 C1815 0.930 . S
Li1848 N1865 1.990 . S
Li1848 O1908 1.956 . S
Li1848 O1909 1.970 . S
Li1848 O1910 1.961 . S
Li1849 N1873 1.990 . S
Li1849 O1908 1.970 . S
Li1849 O1909 1.956 . S
Li1849 O1911 1.961 . S
Li1850 N1895 1.990 . S
Li1850 O1908 1.961 . S
Li1850 O1910 1.956 . S
Li1850 O1911 1.970 . S
Li1851 N1901 1.990 . S
Li1851 O1909 1.961 . S
Li1851 O1910 1.970 . S
Li1851 O1911 1.956 . S
C1852 C1854 1.348 . S
C1852 C1855 1.356 . S
C1852 O1908 1.325 . S
N1853 C1856 1.314 . S
N1853 C1857 1.279 . S
C1854 C1852 1.348 . S
C1854 C1856 1.353 . S
C1854 H1912 0.929 . S
C1855 C1852 1.356 . S
C1855 C1857 1.358 . S
C1855 H1913 0.930 . S
C1856 N1853 1.314 . S
C1856 C1854 1.353 . S
C1856 H1914 0.930 . S
C1857 N1853 1.279 . S
C1857 C1855 1.358 . S
C1857 H1915 0.930 . S
C1858 C1861 1.348 . S
C1858 C1862 1.356 . S
C1858 O1909 1.325 . S
C1859 N1860 1.279 . S
C1859 C1862 1.358 . S
C1859 H1916 0.930 . S
N1860 C1859 1.279 . S
N1860 C1863 1.314 . S
C1861 C1858 1.348 . S
C1861 C1863 1.353 . S
C1861 H1917 0.929 . S
C1862 C1858 1.356 . S
C1862 C1859 1.358 . S
C1862 H1918 0.930 . S
C1863 N1860 1.314 . S
C1863 C1861 1.353 . S
C1863 H1919 0.930 . S
C1864 N1865 1.314 . S
C1864 C1869 1.353 . S
C1864 H1870 0.930 . S
N1865 Li1848 1.990 . S
N1865 C1864 1.314 . S
N1865 C1867 1.279 . S
C1866 C1867 1.358 . S
C1866 C1868 1.356 . S
C1866 H1920 0.930 . S
C1867 N1865 1.279 . S
C1867 C1866 1.358 . S
C1867 H1871 0.930 . S
C1868 C1866 1.356 . S
C1868 C1869 1.348 . S
C1869 C1864 1.353 . S
C1869 C1868 1.348 . S
C1869 H1921 0.929 . S
H1870 C1864 0.930 . S
H1871 C1867 0.930 . S
C1872 N1873 1.314 . S
C1872 C1874 1.353 . S
C1872 H1878 0.930 . S
N1873 Li1849 1.990 . S
N1873 C1872 1.314 . S
N1873 C1876 1.279 . S
C1874 C1872 1.353 . S
C1874 C1877 1.348 . S
C1874 H1922 0.929 . S
C1875 C1876 1.358 . S
C1875 C1877 1.356 . S
C1875 H1923 0.930 . S
C1876 N1873 1.279 . S
C1876 C1875 1.358 . S
C1876 H1879 0.930 . S
C1877 C1874 1.348 . S
C1877 C1875 1.356 . S
H1878 C1872 0.930 . S
H1879 C1876 0.930 . S
C1880 C1882 1.348 . S
C1880 C1883 1.356 . S
C1880 O1910 1.325 . S
N1881 C1884 1.314 . S
N1881 C1885 1.279 . S
C1882 C1880 1.348 . S
C1882 C1884 1.353 . S
C1882 H1924 0.929 . S
C1883 C1880 1.356 . S
C1883 C1885 1.358 . S
C1883 H1925 0.930 . S
C1884 N1881 1.314 . S
C1884 C1882 1.353 . S
C1884 H1926 0.930 . S
C1885 N1881 1.279 . S
C1885 C1883 1.358 . S
C1885 H1927 0.930 . S
C1886 C1887 1.348 . S
C1886 C1888 1.356 . S
C1886 O1911 1.325 . S
C1887 C1886 1.348 . S
C1887 C1889 1.353 . S
C1887 H1928 0.929 . S
C1888 C1886 1.356 . S
C1888 C1890 1.358 . S
C1888 H1929 0.930 . S
C1889 C1887 1.353 . S
C1889 N1891 1.314 . S
C1889 H1930 0.930 . S
C1890 C1888 1.358 . S
C1890 N1891 1.279 . S
C1890 H1931 0.930 . S
N1891 C1889 1.314 . S
N1891 C1890 1.279 . S
C1892 C1894 1.353 . S
C1892 N1895 1.314 . S
C1892 H1898 0.930 . S
C1893 N1895 1.279 . S
C1893 C1896 1.358 . S
C1893 H1899 0.930 . S
C1894 C1892 1.353 . S
C1894 C1897 1.348 . S
C1894 H1932 0.929 . S
N1895 Li1850 1.990 . S
N1895 C1892 1.314 . S
N1895 C1893 1.279 . S
C1896 C1893 1.358 . S
C1896 C1897 1.356 . S
C1896 H1933 0.930 . S
C1897 C1894 1.348 . S
C1897 C1896 1.356 . S
H1898 C1892 0.930 . S
H1899 C1893 0.930 . S
C1900 N1901 1.314 . S
C1900 C1902 1.353 . S
C1900 H1906 0.930 . S
N1901 Li1851 1.990 . S
N1901 C1900 1.314 . S
N1901 C1904 1.279 . S
C1902 C1900 1.353 . S
C1902 C1905 1.348 . S
C1902 H1934 0.929 . S
C1903 C1904 1.358 . S
C1903 C1905 1.356 . S
C1903 H1935 0.930 . S
C1904 N1901 1.279 . S
C1904 C1903 1.358 . S
C1904 H1907 0.930 . S
C1905 C1902 1.348 . S
C1905 C1903 1.356 . S
H1906 C1900 0.930 . S
H1907 C1904 0.930 . S
O1908 Li1848 1.956 . S
O1908 Li1849 1.970 . S
O1908 Li1850 1.961 . S
O1908 C1852 1.325 . S
O1909 Li1848 1.970 . S
O1909 Li1849 1.956 . S
O1909 Li1851 1.961 . S
O1909 C1858 1.325 . S
O1910 Li1848 1.961 . S
O1910 Li1850 1.956 . S
O1910 Li1851 1.970 . S
O1910 C1880 1.325 . S
O1911 Li1849 1.961 . S
O1911 Li1850 1.970 . S
O1911 Li1851 1.956 . S
O1911 C1886 1.325 . S
H1912 C1854 0.929 . S
H1913 C1855 0.930 . S
H1914 C1856 0.930 . S
H1915 C1857 0.930 . S
H1916 C1859 0.930 . S
H1917 C1861 0.929 . S
H1918 C1862 0.930 . S
H1919 C1863 0.930 . S
H1920 C1866 0.930 . S
H1921 C1869 0.929 . S
H1922 C1874 0.929 . S
H1923 C1875 0.930 . S
H1924 C1882 0.929 . S
H1925 C1883 0.930 . S
H1926 C1884 0.930 . S
H1927 C1885 0.930 . S
H1928 C1887 0.929 . S
H1929 C1888 0.930 . S
H1930 C1889 0.930 . S
H1931 C1890 0.930 . S
H1932 C1894 0.929 . S
H1933 C1896 0.930 . S
H1934 C1902 0.929 . S
H1935 C1903 0.930 . S
Li1936 N1953 1.990 . S
Li1936 O1996 1.956 . S
Li1936 O1997 1.970 . S
Li1936 O1998 1.961 . S
Li1937 N1961 1.990 . S
Li1937 O1996 1.970 . S
Li1937 O1997 1.956 . S
Li1937 O1999 1.961 . S
Li1938 N1983 1.990 . S
Li1938 O1996 1.961 . S
Li1938 O1998 1.956 . S
Li1938 O1999 1.970 . S
Li1939 N1989 1.990 . S
Li1939 O1997 1.961 . S
Li1939 O1998 1.970 . S
Li1939 O1999 1.956 . S
C1940 C1942 1.348 . S
C1940 C1943 1.356 . S
C1940 O1996 1.325 . S
N1941 C1944 1.314 . S
N1941 C1945 1.279 . S
C1942 C1940 1.348 . S
C1942 C1944 1.353 . S
C1942 H2000 0.929 . S
C1943 C1940 1.356 . S
C1943 C1945 1.358 . S
C1943 H2001 0.930 . S
C1944 N1941 1.314 . S
C1944 C1942 1.353 . S
C1944 H2002 0.930 . S
C1945 N1941 1.279 . S
C1945 C1943 1.358 . S
C1945 H2003 0.930 . S
C1946 C1949 1.348 . S
C1946 C1950 1.356 . S
C1946 O1997 1.325 . S
C1947 N1948 1.279 . S
C1947 C1950 1.358 . S
C1947 H2004 0.930 . S
N1948 C1947 1.279 . S
N1948 C1951 1.314 . S
C1949 C1946 1.348 . S
C1949 C1951 1.353 . S
C1949 H2005 0.929 . S
C1950 C1946 1.356 . S
C1950 C1947 1.358 . S
C1950 H2006 0.930 . S
C1951 N1948 1.314 . S
C1951 C1949 1.353 . S
C1951 H2007 0.930 . S
C1952 N1953 1.314 . S
C1952 C1957 1.353 . S
C1952 H1958 0.930 . S
N1953 Li1936 1.990 . S
N1953 C1952 1.314 . S
N1953 C1955 1.279 . S
C1954 C1955 1.358 . S
C1954 C1956 1.356 . S
C1954 H2008 0.930 . S
C1955 N1953 1.279 . S
C1955 C1954 1.358 . S
C1955 H1959 0.930 . S
C1956 C1954 1.356 . S
C1956 C1957 1.348 . S
C1957 C1952 1.353 . S
C1957 C1956 1.348 . S
C1957 H2009 0.929 . S
H1958 C1952 0.930 . S
H1959 C1955 0.930 . S
C1960 N1961 1.314 . S
C1960 C1962 1.353 . S
C1960 H1966 0.930 . S
N1961 Li1937 1.990 . S
N1961 C1960 1.314 . S
N1961 C1964 1.279 . S
C1962 C1960 1.353 . S
C1962 C1965 1.348 . S
C1962 H2010 0.929 . S
C1963 C1964 1.358 . S
C1963 C1965 1.356 . S
C1963 H2011 0.930 . S
C1964 N1961 1.279 . S
C1964 C1963 1.358 . S
C1964 H1967 0.930 . S
C1965 C1962 1.348 . S
C1965 C1963 1.356 . S
H1966 C1960 0.930 . S
H1967 C1964 0.930 . S
C1968 C1970 1.348 . S
C1968 C1971 1.356 . S
C1968 O1998 1.325 . S
N1969 C1972 1.314 . S
N1969 C1973 1.279 . S
C1970 C1968 1.348 . S
C1970 C1972 1.353 1_554 S
C1970 H2012 0.929 . S
C1971 C1968 1.356 . S
C1971 C1973 1.358 1_554 S
C1971 H2013 0.930 . S
C1972 N1969 1.314 . S
C1972 C1970 1.353 1_556 S
C1972 H2014 0.930 . S
C1973 N1969 1.279 . S
C1973 C1971 1.358 1_556 S
C1973 H2015 0.930 . S
C1974 C1975 1.348 . S
C1974 C1976 1.356 . S
C1974 O1999 1.325 . S
C1975 C1974 1.348 . S
C1975 C1977 1.353 . S
C1975 H2016 0.929 . S
C1976 C1974 1.356 . S
C1976 C1978 1.358 . S
C1976 H2017 0.930 . S
C1977 C1975 1.353 . S
C1977 N1979 1.314 . S
C1977 H2018 0.930 . S
C1978 C1976 1.358 . S
C1978 N1979 1.279 . S
C1978 H2019 0.930 . S
N1979 C1977 1.314 . S
N1979 C1978 1.279 . S
C1980 C1982 1.353 . S
C1980 N1983 1.314 . S
C1980 H1986 0.930 . S
C1981 N1983 1.279 . S
C1981 C1984 1.358 . S
C1981 H1987 0.930 . S
C1982 C1980 1.353 . S
C1982 C1985 1.348 . S
C1982 H2020 0.929 . S
N1983 Li1938 1.990 . S
N1983 C1980 1.314 . S
N1983 C1981 1.279 . S
C1984 C1981 1.358 . S
C1984 C1985 1.356 . S
C1984 H2021 0.930 . S
C1985 C1982 1.348 . S
C1985 C1984 1.356 . S
H1986 C1980 0.930 . S
H1987 C1981 0.930 . S
C1988 N1989 1.314 . S
C1988 C1990 1.353 . S
C1988 H1994 0.930 . S
N1989 Li1939 1.990 . S
N1989 C1988 1.314 . S
N1989 C1992 1.279 . S
C1990 C1988 1.353 . S
C1990 C1993 1.348 . S
C1990 H2022 0.929 . S
C1991 C1992 1.358 . S
C1991 C1993 1.356 . S
C1991 H2023 0.930 . S
C1992 N1989 1.279 . S
C1992 C1991 1.358 . S
C1992 H1995 0.930 . S
C1993 C1990 1.348 . S
C1993 C1991 1.356 . S
H1994 C1988 0.930 . S
H1995 C1992 0.930 . S
O1996 Li1936 1.956 . S
O1996 Li1937 1.970 . S
O1996 Li1938 1.961 . S
O1996 C1940 1.325 . S
O1997 Li1936 1.970 . S
O1997 Li1937 1.956 . S
O1997 Li1939 1.961 . S
O1997 C1946 1.325 . S
O1998 Li1936 1.961 . S
O1998 Li1938 1.956 . S
O1998 Li1939 1.970 . S
O1998 C1968 1.325 . S
O1999 Li1937 1.961 . S
O1999 Li1938 1.970 . S
O1999 Li1939 1.956 . S
O1999 C1974 1.325 . S
H2000 C1942 0.929 . S
H2001 C1943 0.930 . S
H2002 C1944 0.930 . S
H2003 C1945 0.930 . S
H2004 C1947 0.930 . S
H2005 C1949 0.929 . S
H2006 C1950 0.930 . S
H2007 C1951 0.930 . S
H2008 C1954 0.930 . S
H2009 C1957 0.929 . S
H2010 C1962 0.929 . S
H2011 C1963 0.930 . S
H2012 C1970 0.929 . S
H2013 C1971 0.930 . S
H2014 C1972 0.930 . S
H2015 C1973 0.930 . S
H2016 C1975 0.929 . S
H2017 C1976 0.930 . S
H2018 C1977 0.930 . S
H2019 C1978 0.930 . S
H2020 C1982 0.929 . S
H2021 C1984 0.930 . S
H2022 C1990 0.929 . S
H2023 C1991 0.930 . S
Li2024 N2041 1.990 . S
Li2024 O2084 1.956 . S
Li2024 O2085 1.970 . S
Li2024 O2086 1.961 . S
Li2025 N2049 1.990 . S
Li2025 O2084 1.970 . S
Li2025 O2085 1.956 . S
Li2025 O2087 1.961 . S
Li2026 N2071 1.990 . S
Li2026 O2084 1.961 . S
Li2026 O2086 1.956 . S
Li2026 O2087 1.970 . S
Li2027 N2077 1.990 . S
Li2027 O2085 1.961 . S
Li2027 O2086 1.970 . S
Li2027 O2087 1.956 . S
C2028 C2030 1.348 . S
C2028 C2031 1.356 . S
C2028 O2084 1.325 . S
N2029 C2032 1.314 . S
N2029 C2033 1.279 . S
C2030 C2028 1.348 . S
C2030 C2032 1.353 . S
C2030 H2088 0.929 . S
C2031 C2028 1.356 . S
C2031 C2033 1.358 . S
C2031 H2089 0.930 . S
C2032 N2029 1.314 . S
C2032 C2030 1.353 . S
C2032 H2090 0.930 . S
C2033 N2029 1.279 . S
C2033 C2031 1.358 . S
C2033 H2091 0.930 . S
C2034 C2037 1.348 . S
C2034 C2038 1.356 . S
C2034 O2085 1.325 . S
C2035 N2036 1.279 . S
C2035 C2038 1.358 . S
C2035 H2092 0.930 . S
N2036 C2035 1.279 . S
N2036 C2039 1.314 . S
C2037 C2034 1.348 . S
C2037 C2039 1.353 . S
C2037 H2093 0.929 . S
C2038 C2034 1.356 . S
C2038 C2035 1.358 . S
C2038 H2094 0.930 . S
C2039 N2036 1.314 . S
C2039 C2037 1.353 . S
C2039 H2095 0.930 . S
C2040 N2041 1.314 . S
C2040 C2045 1.353 . S
C2040 H2046 0.930 . S
N2041 Li2024 1.990 . S
N2041 C2040 1.314 . S
N2041 C2043 1.279 . S
C2042 C2043 1.358 . S
C2042 C2044 1.356 . S
C2042 H2096 0.930 . S
C2043 N2041 1.279 . S
C2043 C2042 1.358 . S
C2043 H2047 0.930 . S
C2044 C2042 1.356 . S
C2044 C2045 1.348 . S
C2045 C2040 1.353 . S
C2045 C2044 1.348 . S
C2045 H2097 0.929 . S
H2046 C2040 0.930 . S
H2047 C2043 0.930 . S
C2048 N2049 1.314 . S
C2048 C2050 1.353 . S
C2048 H2054 0.930 . S
N2049 Li2025 1.990 . S
N2049 C2048 1.314 . S
N2049 C2052 1.279 . S
C2050 C2048 1.353 . S
C2050 C2053 1.348 . S
C2050 H2098 0.929 . S
C2051 C2052 1.358 . S
C2051 C2053 1.356 . S
C2051 H2099 0.930 . S
C2052 N2049 1.279 . S
C2052 C2051 1.358 . S
C2052 H2055 0.930 . S
C2053 C2050 1.348 . S
C2053 C2051 1.356 . S
H2054 C2048 0.930 . S
H2055 C2052 0.930 . S
C2056 C2058 1.348 . S
C2056 C2059 1.356 . S
C2056 O2086 1.325 . S
N2057 C2060 1.314 . S
N2057 C2061 1.279 . S
C2058 C2056 1.348 . S
C2058 C2060 1.353 . S
C2058 H2100 0.929 . S
C2059 C2056 1.356 . S
C2059 C2061 1.358 . S
C2059 H2101 0.930 . S
C2060 N2057 1.314 . S
C2060 C2058 1.353 . S
C2060 H2102 0.930 . S
C2061 N2057 1.279 . S
C2061 C2059 1.358 . S
C2061 H2103 0.930 . S
C2062 C2063 1.348 . S
C2062 C2064 1.356 . S
C2062 O2087 1.325 . S
C2063 C2062 1.348 . S
C2063 C2065 1.353 . S
C2063 H2104 0.929 . S
C2064 C2062 1.356 . S
C2064 C2066 1.358 . S
C2064 H2105 0.930 . S
C2065 C2063 1.353 . S
C2065 N2067 1.314 . S
C2065 H2106 0.930 . S
C2066 C2064 1.358 . S
C2066 N2067 1.279 . S
C2066 H2107 0.930 . S
N2067 C2065 1.314 . S
N2067 C2066 1.279 . S
C2068 C2070 1.353 . S
C2068 N2071 1.314 . S
C2068 H2074 0.930 . S
C2069 N2071 1.279 . S
C2069 C2072 1.358 . S
C2069 H2075 0.930 . S
C2070 C2068 1.353 . S
C2070 C2073 1.348 . S
C2070 H2108 0.929 . S
N2071 Li2026 1.990 . S
N2071 C2068 1.314 . S
N2071 C2069 1.279 . S
C2072 C2069 1.358 . S
C2072 C2073 1.356 . S
C2072 H2109 0.930 . S
C2073 C2070 1.348 . S
C2073 C2072 1.356 . S
H2074 C2068 0.930 . S
H2075 C2069 0.930 . S
C2076 N2077 1.314 . S
C2076 C2078 1.353 . S
C2076 H2082 0.930 . S
N2077 Li2027 1.990 . S
N2077 C2076 1.314 . S
N2077 C2080 1.279 . S
C2078 C2076 1.353 . S
C2078 C2081 1.348 . S
C2078 H2110 0.929 . S
C2079 C2080 1.358 . S
C2079 C2081 1.356 . S
C2079 H2111 0.930 . S
C2080 N2077 1.279 . S
C2080 C2079 1.358 . S
C2080 H2083 0.930 . S
C2081 C2078 1.348 . S
C2081 C2079 1.356 . S
H2082 C2076 0.930 . S
H2083 C2080 0.930 . S
O2084 Li2024 1.956 . S
O2084 Li2025 1.970 . S
O2084 Li2026 1.961 . S
O2084 C2028 1.325 . S
O2085 Li2024 1.970 . S
O2085 Li2025 1.956 . S
O2085 Li2027 1.961 . S
O2085 C2034 1.325 . S
O2086 Li2024 1.961 . S
O2086 Li2026 1.956 . S
O2086 Li2027 1.970 . S
O2086 C2056 1.325 . S
O2087 Li2025 1.961 . S
O2087 Li2026 1.970 . S
O2087 Li2027 1.956 . S
O2087 C2062 1.325 . S
H2088 C2030 0.929 . S
H2089 C2031 0.930 . S
H2090 C2032 0.930 . S
H2091 C2033 0.930 . S
H2092 C2035 0.930 . S
H2093 C2037 0.929 . S
H2094 C2038 0.930 . S
H2095 C2039 0.930 . S
H2096 C2042 0.930 . S
H2097 C2045 0.929 . S
H2098 C2050 0.929 . S
H2099 C2051 0.930 . S
H2100 C2058 0.929 . S
H2101 C2059 0.930 . S
H2102 C2060 0.930 . S
H2103 C2061 0.930 . S
H2104 C2063 0.929 . S
H2105 C2064 0.930 . S
H2106 C2065 0.930 . S
H2107 C2066 0.930 . S
H2108 C2070 0.929 . S
H2109 C2072 0.930 . S
H2110 C2078 0.929 . S
H2111 C2079 0.930 . S
H2112 C2120 0.929 . S
H2113 C2122 0.930 . S
H2114 C2124 0.930 . S
H2115 C2127 0.929 . S
H2116 C2130 0.930 . S
H2117 C2132 0.960 . S
H2118 C2132 0.960 . S
H2119 C2132 0.960 . S
C2120 H2112 0.929 . S
C2120 C2121 1.377 . S
C2120 C2122 1.384 . S
C2121 C2120 1.377 . S
C2121 C2127 1.390 . S
C2122 H2113 0.930 . S
C2122 C2120 1.384 . S
C2122 C2123 1.372 . S
C2123 C2122 1.372 . S
C2123 C2124 1.400 . S
C2123 C2128 1.490 . S
C2124 H2114 0.930 . S
C2124 C2123 1.400 . S
C2124 C2127 1.386 . S
H2125 C2141 0.930 . S
H2126 C2142 0.931 . S
C2127 H2115 0.929 . S
C2127 C2121 1.390 . S
C2127 C2124 1.386 . S
C2128 C2123 1.490 . S
C2128 C2130 1.395 . S
C2128 C2131 1.403 . S
H2129 C2135 0.930 . S
C2130 H2116 0.930 . S
C2130 C2128 1.395 . S
C2130 C2133 1.403 . S
C2131 C2128 1.403 . S
C2131 C2132 1.524 . S
C2131 C2135 1.400 . S
C2132 H2117 0.960 . S
C2132 H2118 0.960 . S
C2132 H2119 0.960 . S
C2132 C2131 1.524 . S
C2133 C2130 1.403 . S
C2133 C2134 1.392 . S
C2133 C2137 1.495 . S
C2134 C2133 1.392 . S
C2134 C2135 1.385 . S
C2134 C2136 1.478 . S
C2135 H2129 0.930 . S
C2135 C2131 1.400 . S
C2135 C2134 1.385 . S
C2136 C2134 1.478 . S
C2136 C2138 1.381 . S
C2136 C2142 1.383 . S
C2137 C2133 1.495 . S
C2137 H2143 0.959 . S
C2137 H2144 0.961 . S
C2137 H2145 0.960 . S
C2138 C2136 1.381 . S
C2138 C2139 1.394 . S
C2138 H2146 0.930 . S
C2139 C2138 1.394 . S
C2139 C2140 1.383 . S
C2139 H2147 0.929 . S
C2140 C2139 1.383 . S
C2140 C2141 1.377 . S
C2141 H2125 0.930 . S
C2141 C2140 1.377 . S
C2141 C2142 1.379 . S
C2142 H2126 0.931 . S
C2142 C2136 1.383 . S
C2142 C2141 1.379 . S
H2143 C2137 0.959 . S
H2144 C2137 0.961 . S
H2145 C2137 0.960 . S
H2146 C2138 0.930 . S
H2147 C2139 0.929 . S
H2148 C2156 0.929 . S
H2149 C2158 0.930 . S
H2150 C2160 0.930 . S
H2151 C2163 0.929 . S
H2152 C2166 0.930 . S
H2153 C2168 0.960 . S
H2154 C2168 0.960 . S
H2155 C2168 0.960 . S
C2156 H2148 0.929 . S
C2156 C2157 1.377 . S
C2156 C2158 1.384 . S
C2157 C2156 1.377 . S
C2157 C2163 1.390 . S
C2158 H2149 0.930 . S
C2158 C2156 1.384 . S
C2158 C2159 1.372 . S
C2159 C2158 1.372 . S
C2159 C2160 1.400 . S
C2159 C2164 1.490 . S
C2160 H2150 0.930 . S
C2160 C2159 1.400 . S
C2160 C2163 1.386 . S
H2161 C2177 0.930 . S
H2162 C2178 0.931 . S
C2163 H2151 0.929 . S
C2163 C2157 1.390 . S
C2163 C2160 1.386 . S
C2164 C2159 1.490 . S
C2164 C2166 1.395 . S
C2164 C2167 1.403 . S
H2165 C2171 0.930 . S
C2166 H2152 0.930 . S
C2166 C2164 1.395 . S
C2166 C2169 1.403 . S
C2167 C2164 1.403 . S
C2167 C2168 1.524 . S
C2167 C2171 1.400 . S
C2168 H2153 0.960 . S
C2168 H2154 0.960 . S
C2168 H2155 0.960 . S
C2168 C2167 1.524 . S
C2169 C2166 1.403 . S
C2169 C2170 1.392 . S
C2169 C2173 1.495 . S
C2170 C2169 1.392 . S
C2170 C2171 1.385 . S
C2170 C2172 1.478 . S
C2171 H2165 0.930 . S
C2171 C2167 1.400 . S
C2171 C2170 1.385 . S
C2172 C2170 1.478 . S
C2172 C2174 1.381 . S
C2172 C2178 1.383 . S
C2173 C2169 1.495 . S
C2173 H2179 0.959 . S
C2173 H2180 0.961 . S
C2173 H2181 0.960 . S
C2174 C2172 1.381 . S
C2174 C2175 1.394 . S
C2174 H2182 0.930 . S
C2175 C2174 1.394 . S
C2175 C2176 1.383 . S
C2175 H2183 0.929 . S
C2176 C2175 1.383 . S
C2176 C2177 1.377 . S
C2177 H2161 0.930 . S
C2177 C2176 1.377 . S
C2177 C2178 1.379 . S
C2178 H2162 0.931 . S
C2178 C2172 1.383 . S
C2178 C2177 1.379 . S
H2179 C2173 0.959 . S
H2180 C2173 0.961 . S
H2181 C2173 0.960 . S
H2182 C2174 0.930 . S
H2183 C2175 0.929 . S
H2184 C2192 0.929 . S
H2185 C2194 0.930 . S
H2186 C2196 0.930 . S
H2187 C2199 0.929 . S
H2188 C2202 0.930 . S
H2189 C2204 0.960 . S
H2190 C2204 0.960 . S
H2191 C2204 0.960 . S
C2192 H2184 0.929 . S
C2192 C2193 1.377 . S
C2192 C2194 1.384 . S
C2193 C2192 1.377 . S
C2193 C2199 1.390 . S
C2194 H2185 0.930 . S
C2194 C2192 1.384 . S
C2194 C2195 1.372 . S
C2195 C2194 1.372 . S
C2195 C2196 1.400 . S
C2195 C2200 1.490 . S
C2196 H2186 0.930 . S
C2196 C2195 1.400 . S
C2196 C2199 1.386 . S
H2197 C2213 0.930 . S
H2198 C2214 0.931 . S
C2199 H2187 0.929 . S
C2199 C2193 1.390 . S
C2199 C2196 1.386 . S
C2200 C2195 1.490 . S
C2200 C2202 1.395 . S
C2200 C2203 1.403 . S
H2201 C2207 0.930 . S
C2202 H2188 0.930 . S
C2202 C2200 1.395 . S
C2202 C2205 1.403 . S
C2203 C2200 1.403 . S
C2203 C2204 1.524 . S
C2203 C2207 1.400 . S
C2204 H2189 0.960 . S
C2204 H2190 0.960 . S
C2204 H2191 0.960 . S
C2204 C2203 1.524 . S
C2205 C2202 1.403 . S
C2205 C2206 1.392 . S
C2205 C2209 1.495 . S
C2206 C2205 1.392 . S
C2206 C2207 1.385 . S
C2206 C2208 1.478 . S
C2207 H2201 0.930 . S
C2207 C2203 1.400 . S
C2207 C2206 1.385 . S
C2208 C2206 1.478 . S
C2208 C2210 1.381 . S
C2208 C2214 1.383 . S
C2209 C2205 1.495 . S
C2209 H2215 0.959 . S
C2209 H2216 0.961 . S
C2209 H2217 0.960 . S
C2210 C2208 1.381 . S
C2210 C2211 1.394 . S
C2210 H2218 0.930 . S
C2211 C2210 1.394 . S
C2211 C2212 1.383 . S
C2211 H2219 0.929 . S
C2212 C2211 1.383 . S
C2212 C2213 1.377 . S
C2213 H2197 0.930 . S
C2213 C2212 1.377 . S
C2213 C2214 1.379 . S
C2214 H2198 0.931 . S
C2214 C2208 1.383 . S
C2214 C2213 1.379 . S
H2215 C2209 0.959 . S
H2216 C2209 0.961 . S
H2217 C2209 0.960 . S
H2218 C2210 0.930 . S
H2219 C2211 0.929 . S
H2220 C2228 0.929 . S
H2221 C2230 0.930 . S
H2222 C2232 0.930 . S
H2223 C2235 0.929 . S
H2224 C2238 0.930 . S
H2225 C2240 0.960 . S
H2226 C2240 0.960 . S
H2227 C2240 0.960 . S
C2228 H2220 0.929 . S
C2228 C2229 1.377 . S
C2228 C2230 1.384 . S
C2229 C2228 1.377 . S
C2229 C2235 1.390 . S
C2230 H2221 0.930 . S
C2230 C2228 1.384 . S
C2230 C2231 1.372 . S
C2231 C2230 1.372 . S
C2231 C2232 1.400 . S
C2231 C2236 1.490 . S
C2232 H2222 0.930 . S
C2232 C2231 1.400 . S
C2232 C2235 1.386 . S
H2233 C2249 0.930 . S
H2234 C2250 0.931 . S
C2235 H2223 0.929 . S
C2235 C2229 1.390 . S
C2235 C2232 1.386 . S
C2236 C2231 1.490 . S
C2236 C2238 1.395 . S
C2236 C2239 1.403 . S
H2237 C2243 0.930 . S
C2238 H2224 0.930 . S
C2238 C2236 1.395 . S
C2238 C2241 1.403 . S
C2239 C2236 1.403 . S
C2239 C2240 1.524 . S
C2239 C2243 1.400 . S
C2240 H2225 0.960 . S
C2240 H2226 0.960 . S
C2240 H2227 0.960 . S
C2240 C2239 1.524 . S
C2241 C2238 1.403 . S
C2241 C2242 1.392 . S
C2241 C2245 1.495 . S
C2242 C2241 1.392 . S
C2242 C2243 1.385 . S
C2242 C2244 1.478 . S
C2243 H2237 0.930 . S
C2243 C2239 1.400 . S
C2243 C2242 1.385 . S
C2244 C2242 1.478 . S
C2244 C2246 1.381 . S
C2244 C2250 1.383 . S
C2245 C2241 1.495 . S
C2245 H2251 0.959 . S
C2245 H2252 0.961 . S
C2245 H2253 0.960 . S
C2246 C2244 1.381 . S
C2246 C2247 1.394 . S
C2246 H2254 0.930 . S
C2247 C2246 1.394 . S
C2247 C2248 1.383 . S
C2247 H2255 0.929 . S
C2248 C2247 1.383 . S
C2248 C2249 1.377 . S
C2249 H2233 0.930 . S
C2249 C2248 1.377 . S
C2249 C2250 1.379 . S
C2250 H2234 0.931 . S
C2250 C2244 1.383 . S
C2250 C2249 1.379 . S
H2251 C2245 0.959 . S
H2252 C2245 0.961 . S
H2253 C2245 0.960 . S
H2254 C2246 0.930 . S
H2255 C2247 0.929 . S
H2256 C2264 0.929 . S
H2257 C2266 0.930 . S
H2258 C2268 0.930 . S
H2259 C2271 0.929 . S
H2260 C2274 0.930 . S
H2261 C2276 0.960 . S
H2262 C2276 0.960 . S
H2263 C2276 0.960 . S
C2264 H2256 0.929 . S
C2264 C2265 1.377 . S
C2264 C2266 1.384 . S
C2265 C2264 1.377 . S
C2265 C2271 1.390 . S
C2266 H2257 0.930 . S
C2266 C2264 1.384 . S
C2266 C2267 1.372 . S
C2267 C2266 1.372 . S
C2267 C2268 1.400 . S
C2267 C2272 1.490 . S
C2268 H2258 0.930 . S
C2268 C2267 1.400 . S
C2268 C2271 1.386 . S
H2269 C2285 0.930 . S
H2270 C2286 0.931 . S
C2271 H2259 0.929 . S
C2271 C2265 1.390 . S
C2271 C2268 1.386 . S
C2272 C2267 1.490 . S
C2272 C2274 1.395 . S
C2272 C2275 1.403 . S
H2273 C2279 0.930 . S
C2274 H2260 0.930 . S
C2274 C2272 1.395 . S
C2274 C2277 1.403 . S
C2275 C2272 1.403 . S
C2275 C2276 1.524 . S
C2275 C2279 1.400 . S
C2276 H2261 0.960 . S
C2276 H2262 0.960 . S
C2276 H2263 0.960 . S
C2276 C2275 1.524 . S
C2277 C2274 1.403 . S
C2277 C2278 1.392 . S
C2277 C2281 1.495 . S
C2278 C2277 1.392 . S
C2278 C2279 1.385 . S
C2278 C2280 1.478 . S
C2279 H2273 0.930 . S
C2279 C2275 1.400 . S
C2279 C2278 1.385 . S
C2280 C2278 1.478 . S
C2280 C2282 1.381 . S
C2280 C2286 1.383 . S
C2281 C2277 1.495 . S
C2281 H2287 0.959 . S
C2281 H2288 0.961 . S
C2281 H2289 0.960 . S
C2282 C2280 1.381 . S
C2282 C2283 1.394 . S
C2282 H2290 0.930 . S
C2283 C2282 1.394 . S
C2283 C2284 1.383 . S
C2283 H2291 0.929 . S
C2284 C2283 1.383 . S
C2284 C2285 1.377 . S
C2285 H2269 0.930 . S
C2285 C2284 1.377 . S
C2285 C2286 1.379 . S
C2286 H2270 0.931 . S
C2286 C2280 1.383 . S
C2286 C2285 1.379 . S
H2287 C2281 0.959 . S
H2288 C2281 0.961 . S
H2289 C2281 0.960 . S
H2290 C2282 0.930 . S
H2291 C2283 0.929 . S
H2292 C2300 0.929 . S
H2293 C2302 0.930 . S
H2294 C2304 0.930 . S
H2295 C2307 0.929 . S
H2296 C2310 0.930 . S
H2297 C2312 0.960 . S
H2298 C2312 0.960 . S
H2299 C2312 0.960 . S
C2300 H2292 0.929 . S
C2300 C2301 1.377 . S
C2300 C2302 1.384 . S
C2301 C2300 1.377 . S
C2301 C2307 1.390 . S
C2302 H2293 0.930 . S
C2302 C2300 1.384 . S
C2302 C2303 1.372 . S
C2303 C2302 1.372 . S
C2303 C2304 1.400 . S
C2303 C2308 1.490 . S
C2304 H2294 0.930 . S
C2304 C2303 1.400 . S
C2304 C2307 1.386 . S
H2305 C2321 0.930 . S
H2306 C2322 0.931 . S
C2307 H2295 0.929 . S
C2307 C2301 1.390 . S
C2307 C2304 1.386 . S
C2308 C2303 1.490 . S
C2308 C2310 1.395 . S
C2308 C2311 1.403 . S
H2309 C2315 0.930 . S
C2310 H2296 0.930 . S
C2310 C2308 1.395 . S
C2310 C2313 1.403 . S
C2311 C2308 1.403 . S
C2311 C2312 1.524 . S
C2311 C2315 1.400 . S
C2312 H2297 0.960 . S
C2312 H2298 0.960 . S
C2312 H2299 0.960 . S
C2312 C2311 1.524 . S
C2313 C2310 1.403 . S
C2313 C2314 1.392 . S
C2313 C2317 1.495 . S
C2314 C2313 1.392 . S
C2314 C2315 1.385 . S
C2314 C2316 1.478 . S
C2315 H2309 0.930 . S
C2315 C2311 1.400 . S
C2315 C2314 1.385 . S
C2316 C2314 1.478 . S
C2316 C2318 1.381 . S
C2316 C2322 1.383 . S
C2317 C2313 1.495 . S
C2317 H2323 0.959 . S
C2317 H2324 0.961 . S
C2317 H2325 0.960 . S
C2318 C2316 1.381 . S
C2318 C2319 1.394 . S
C2318 H2326 0.930 . S
C2319 C2318 1.394 . S
C2319 C2320 1.383 . S
C2319 H2327 0.929 . S
C2320 C2319 1.383 . S
C2320 C2321 1.377 . S
C2321 H2305 0.930 . S
C2321 C2320 1.377 . S
C2321 C2322 1.379 . S
C2322 H2306 0.931 . S
C2322 C2316 1.383 . S
C2322 C2321 1.379 . S
H2323 C2317 0.959 . S
H2324 C2317 0.961 . S
H2325 C2317 0.960 . S
H2326 C2318 0.930 . S
H2327 C2319 0.929 . S
H2328 C2336 0.929 . S
H2329 C2338 0.930 . S
H2330 C2340 0.930 . S
H2331 C2343 0.929 . S
H2332 C2346 0.930 . S
H2333 C2348 0.960 . S
H2334 C2348 0.960 . S
H2335 C2348 0.960 . S
C2336 H2328 0.929 . S
C2336 C2337 1.377 . S
C2336 C2338 1.384 . S
C2337 C2336 1.377 . S
C2337 C2343 1.390 . S
C2338 H2329 0.930 . S
C2338 C2336 1.384 . S
C2338 C2339 1.372 . S
C2339 C2338 1.372 . S
C2339 C2340 1.400 . S
C2339 C2344 1.490 . S
C2340 H2330 0.930 . S
C2340 C2339 1.400 . S
C2340 C2343 1.386 . S
H2341 C2357 0.930 . S
H2342 C2358 0.931 . S
C2343 H2331 0.929 . S
C2343 C2337 1.390 . S
C2343 C2340 1.386 . S
C2344 C2339 1.490 . S
C2344 C2346 1.395 . S
C2344 C2347 1.403 . S
H2345 C2351 0.930 . S
C2346 H2332 0.930 . S
C2346 C2344 1.395 . S
C2346 C2349 1.403 . S
C2347 C2344 1.403 . S
C2347 C2348 1.524 . S
C2347 C2351 1.400 . S
C2348 H2333 0.960 . S
C2348 H2334 0.960 . S
C2348 H2335 0.960 . S
C2348 C2347 1.524 . S
C2349 C2346 1.403 . S
C2349 C2350 1.392 . S
C2349 C2353 1.495 . S
C2350 C2349 1.392 . S
C2350 C2351 1.385 . S
C2350 C2352 1.478 . S
C2351 H2345 0.930 . S
C2351 C2347 1.400 . S
C2351 C2350 1.385 . S
C2352 C2350 1.478 . S
C2352 C2354 1.381 . S
C2352 C2358 1.383 . S
C2353 C2349 1.495 . S
C2353 H2359 0.959 . S
C2353 H2360 0.961 . S
C2353 H2361 0.960 . S
C2354 C2352 1.381 . S
C2354 C2355 1.394 . S
C2354 H2362 0.930 . S
C2355 C2354 1.394 . S
C2355 C2356 1.383 . S
C2355 H2363 0.929 . S
C2356 C2355 1.383 . S
C2356 C2357 1.377 . S
C2357 H2341 0.930 . S
C2357 C2356 1.377 . S
C2357 C2358 1.379 . S
C2358 H2342 0.931 . S
C2358 C2352 1.383 . S
C2358 C2357 1.379 . S
H2359 C2353 0.959 . S
H2360 C2353 0.961 . S
H2361 C2353 0.960 . S
H2362 C2354 0.930 . S
H2363 C2355 0.929 . S
H2364 C2372 0.929 . S
H2365 C2374 0.930 . S
H2366 C2376 0.930 . S
H2367 C2379 0.929 . S
H2368 C2382 0.930 . S
H2369 C2384 0.960 . S
H2370 C2384 0.960 . S
H2371 C2384 0.960 . S
C2372 H2364 0.929 . S
C2372 C2373 1.377 . S
C2372 C2374 1.384 . S
C2373 C2372 1.377 . S
C2373 C2379 1.390 . S
C2374 H2365 0.930 . S
C2374 C2372 1.384 . S
C2374 C2375 1.372 . S
C2375 C2374 1.372 . S
C2375 C2376 1.400 . S
C2375 C2380 1.490 . S
C2376 H2366 0.930 . S
C2376 C2375 1.400 . S
C2376 C2379 1.386 . S
H2377 C2393 0.930 . S
H2378 C2394 0.931 . S
C2379 H2367 0.929 . S
C2379 C2373 1.390 . S
C2379 C2376 1.386 . S
C2380 C2375 1.490 . S
C2380 C2382 1.395 . S
C2380 C2383 1.403 . S
H2381 C2387 0.930 . S
C2382 H2368 0.930 . S
C2382 C2380 1.395 . S
C2382 C2385 1.403 . S
C2383 C2380 1.403 . S
C2383 C2384 1.524 . S
C2383 C2387 1.400 . S
C2384 H2369 0.960 . S
C2384 H2370 0.960 . S
C2384 H2371 0.960 . S
C2384 C2383 1.524 . S
C2385 C2382 1.403 . S
C2385 C2386 1.392 . S
C2385 C2389 1.495 . S
C2386 C2385 1.392 . S
C2386 C2387 1.385 . S
C2386 C2388 1.478 . S
C2387 H2381 0.930 . S
C2387 C2383 1.400 . S
C2387 C2386 1.385 . S
C2388 C2386 1.478 . S
C2388 C2390 1.381 . S
C2388 C2394 1.383 . S
C2389 C2385 1.495 . S
C2389 H2395 0.959 . S
C2389 H2396 0.961 . S
C2389 H2397 0.960 . S
C2390 C2388 1.381 . S
C2390 C2391 1.394 . S
C2390 H2398 0.930 . S
C2391 C2390 1.394 . S
C2391 C2392 1.383 . S
C2391 H2399 0.929 . S
C2392 C2391 1.383 . S
C2392 C2393 1.377 . S
C2393 H2377 0.930 . S
C2393 C2392 1.377 . S
C2393 C2394 1.379 . S
C2394 H2378 0.931 . S
C2394 C2388 1.383 . S
C2394 C2393 1.379 . S
H2395 C2389 0.959 . S
H2396 C2389 0.961 . S
H2397 C2389 0.960 . S
H2398 C2390 0.930 . S
H2399 C2391 0.929 . S
H2400 C2408 0.929 . S
H2401 C2410 0.930 . S
H2402 C2412 0.930 . S
H2403 C2415 0.929 . S
H2404 C2418 0.930 . S
H2405 C2420 0.960 . S
H2406 C2420 0.960 . S
H2407 C2420 0.960 . S
C2408 H2400 0.929 . S
C2408 C2409 1.377 . S
C2408 C2410 1.384 . S
C2409 C2408 1.377 . S
C2409 C2415 1.390 . S
C2410 H2401 0.930 . S
C2410 C2408 1.384 . S
C2410 C2411 1.372 . S
C2411 C2410 1.372 . S
C2411 C2412 1.400 . S
C2411 C2416 1.490 . S
C2412 H2402 0.930 . S
C2412 C2411 1.400 . S
C2412 C2415 1.386 . S
H2413 C2429 0.930 . S
H2414 C2430 0.931 . S
C2415 H2403 0.929 . S
C2415 C2409 1.390 . S
C2415 C2412 1.386 . S
C2416 C2411 1.490 . S
C2416 C2418 1.395 . S
C2416 C2419 1.403 . S
H2417 C2423 0.930 . S
C2418 H2404 0.930 . S
C2418 C2416 1.395 . S
C2418 C2421 1.403 . S
C2419 C2416 1.403 . S
C2419 C2420 1.524 . S
C2419 C2423 1.400 . S
C2420 H2405 0.960 . S
C2420 H2406 0.960 . S
C2420 H2407 0.960 . S
C2420 C2419 1.524 . S
C2421 C2418 1.403 . S
C2421 C2422 1.392 . S
C2421 C2425 1.495 . S
C2422 C2421 1.392 . S
C2422 C2423 1.385 . S
C2422 C2424 1.478 . S
C2423 H2417 0.930 . S
C2423 C2419 1.400 . S
C2423 C2422 1.385 . S
C2424 C2422 1.478 . S
C2424 C2426 1.381 . S
C2424 C2430 1.383 . S
C2425 C2421 1.495 . S
C2425 H2431 0.959 . S
C2425 H2432 0.961 . S
C2425 H2433 0.960 . S
C2426 C2424 1.381 . S
C2426 C2427 1.394 . S
C2426 H2434 0.930 . S
C2427 C2426 1.394 . S
C2427 C2428 1.383 . S
C2427 H2435 0.929 . S
C2428 C2427 1.383 . S
C2428 C2429 1.377 . S
C2429 H2413 0.930 . S
C2429 C2428 1.377 . S
C2429 C2430 1.379 . S
C2430 H2414 0.931 . S
C2430 C2424 1.383 . S
C2430 C2429 1.379 . S
H2431 C2425 0.959 . S
H2432 C2425 0.961 . S
H2433 C2425 0.960 . S
H2434 C2426 0.930 . S
H2435 C2427 0.929 . S
H2436 C2444 0.929 . S
H2437 C2446 0.930 . S
H2438 C2448 0.930 . S
H2439 C2451 0.929 . S
H2440 C2454 0.930 . S
H2441 C2456 0.960 . S
H2442 C2456 0.960 . S
H2443 C2456 0.960 . S
C2444 H2436 0.929 . S
C2444 C2445 1.377 . S
C2444 C2446 1.384 . S
C2445 C2444 1.377 . S
C2445 C2451 1.390 . S
C2446 H2437 0.930 . S
C2446 C2444 1.384 . S
C2446 C2447 1.372 . S
C2447 C2446 1.372 . S
C2447 C2448 1.400 . S
C2447 C2452 1.490 . S
C2448 H2438 0.930 . S
C2448 C2447 1.400 . S
C2448 C2451 1.386 . S
H2449 C2465 0.930 . S
H2450 C2466 0.931 . S
C2451 H2439 0.929 . S
C2451 C2445 1.390 . S
C2451 C2448 1.386 . S
C2452 C2447 1.490 . S
C2452 C2454 1.395 . S
C2452 C2455 1.403 . S
H2453 C2459 0.930 . S
C2454 H2440 0.930 . S
C2454 C2452 1.395 . S
C2454 C2457 1.403 . S
C2455 C2452 1.403 . S
C2455 C2456 1.524 . S
C2455 C2459 1.400 . S
C2456 H2441 0.960 . S
C2456 H2442 0.960 . S
C2456 H2443 0.960 . S
C2456 C2455 1.524 . S
C2457 C2454 1.403 . S
C2457 C2458 1.392 . S
C2457 C2461 1.495 . S
C2458 C2457 1.392 . S
C2458 C2459 1.385 . S
C2458 C2460 1.478 . S
C2459 H2453 0.930 . S
C2459 C2455 1.400 . S
C2459 C2458 1.385 . S
C2460 C2458 1.478 . S
C2460 C2462 1.381 . S
C2460 C2466 1.383 . S
C2461 C2457 1.495 . S
C2461 H2467 0.959 . S
C2461 H2468 0.961 . S
C2461 H2469 0.960 . S
C2462 C2460 1.381 . S
C2462 C2463 1.394 . S
C2462 H2470 0.930 . S
C2463 C2462 1.394 . S
C2463 C2464 1.383 . S
C2463 H2471 0.929 . S
C2464 C2463 1.383 . S
C2464 C2465 1.377 . S
C2465 H2449 0.930 . S
C2465 C2464 1.377 . S
C2465 C2466 1.379 . S
C2466 H2450 0.931 . S
C2466 C2460 1.383 . S
C2466 C2465 1.379 . S
H2467 C2461 0.959 . S
H2468 C2461 0.961 . S
H2469 C2461 0.960 . S
H2470 C2462 0.930 . S
H2471 C2463 0.929 . S
H2472 C2480 0.929 . S
H2473 C2482 0.930 . S
H2474 C2484 0.930 . S
H2475 C2487 0.929 . S
H2476 C2490 0.930 . S
H2477 C2492 0.960 . S
H2478 C2492 0.960 . S
H2479 C2492 0.960 . S
C2480 H2472 0.929 . S
C2480 C2481 1.377 . S
C2480 C2482 1.384 . S
C2481 C2480 1.377 . S
C2481 C2487 1.390 . S
C2482 H2473 0.930 . S
C2482 C2480 1.384 . S
C2482 C2483 1.372 . S
C2483 C2482 1.372 . S
C2483 C2484 1.400 . S
C2483 C2488 1.490 . S
C2484 H2474 0.930 . S
C2484 C2483 1.400 . S
C2484 C2487 1.386 . S
H2485 C2501 0.930 . S
H2486 C2502 0.931 . S
C2487 H2475 0.929 . S
C2487 C2481 1.390 . S
C2487 C2484 1.386 . S
C2488 C2483 1.490 . S
C2488 C2490 1.395 . S
C2488 C2491 1.403 . S
H2489 C2495 0.930 . S
C2490 H2476 0.930 . S
C2490 C2488 1.395 . S
C2490 C2493 1.403 . S
C2491 C2488 1.403 . S
C2491 C2492 1.524 . S
C2491 C2495 1.400 . S
C2492 H2477 0.960 . S
C2492 H2478 0.960 . S
C2492 H2479 0.960 . S
C2492 C2491 1.524 . S
C2493 C2490 1.403 . S
C2493 C2494 1.392 . S
C2493 C2497 1.495 . S
C2494 C2493 1.392 . S
C2494 C2495 1.385 . S
C2494 C2496 1.478 . S
C2495 H2489 0.930 . S
C2495 C2491 1.400 . S
C2495 C2494 1.385 . S
C2496 C2494 1.478 . S
C2496 C2498 1.381 . S
C2496 C2502 1.383 . S
C2497 C2493 1.495 . S
C2497 H2503 0.959 . S
C2497 H2504 0.961 . S
C2497 H2505 0.960 . S
C2498 C2496 1.381 . S
C2498 C2499 1.394 . S
C2498 H2506 0.930 . S
C2499 C2498 1.394 . S
C2499 C2500 1.383 . S
C2499 H2507 0.929 . S
C2500 C2499 1.383 . S
C2500 C2501 1.377 . S
C2501 H2485 0.930 . S
C2501 C2500 1.377 . S
C2501 C2502 1.379 . S
C2502 H2486 0.931 . S
C2502 C2496 1.383 . S
C2502 C2501 1.379 . S
H2503 C2497 0.959 . S
H2504 C2497 0.961 . S
H2505 C2497 0.960 . S
H2506 C2498 0.930 . S
H2507 C2499 0.929 . S
H2508 C2516 0.929 . S
H2509 C2518 0.930 . S
H2510 C2520 0.930 . S
H2511 C2523 0.929 . S
H2512 C2526 0.930 . S
H2513 C2528 0.960 . S
H2514 C2528 0.960 . S
H2515 C2528 0.960 . S
C2516 H2508 0.929 . S
C2516 C2517 1.377 . S
C2516 C2518 1.384 . S
C2517 C2516 1.377 . S
C2517 C2523 1.390 . S
C2518 H2509 0.930 . S
C2518 C2516 1.384 . S
C2518 C2519 1.372 . S
C2519 C2518 1.372 . S
C2519 C2520 1.400 . S
C2519 C2524 1.490 . S
C2520 H2510 0.930 . S
C2520 C2519 1.400 . S
C2520 C2523 1.386 . S
H2521 C2537 0.930 . S
H2522 C2538 0.931 . S
C2523 H2511 0.929 . S
C2523 C2517 1.390 . S
C2523 C2520 1.386 . S
C2524 C2519 1.490 . S
C2524 C2526 1.395 . S
C2524 C2527 1.403 . S
H2525 C2531 0.930 . S
C2526 H2512 0.930 . S
C2526 C2524 1.395 . S
C2526 C2529 1.403 . S
C2527 C2524 1.403 . S
C2527 C2528 1.524 . S
C2527 C2531 1.400 . S
C2528 H2513 0.960 . S
C2528 H2514 0.960 . S
C2528 H2515 0.960 . S
C2528 C2527 1.524 . S
C2529 C2526 1.403 . S
C2529 C2530 1.392 . S
C2529 C2533 1.495 . S
C2530 C2529 1.392 . S
C2530 C2531 1.385 . S
C2530 C2532 1.478 . S
C2531 H2525 0.930 . S
C2531 C2527 1.400 . S
C2531 C2530 1.385 . S
C2532 C2530 1.478 . S
C2532 C2534 1.381 . S
C2532 C2538 1.383 . S
C2533 C2529 1.495 . S
C2533 H2539 0.959 . S
C2533 H2540 0.961 . S
C2533 H2541 0.960 . S
C2534 C2532 1.381 . S
C2534 C2535 1.394 . S
C2534 H2542 0.930 . S
C2535 C2534 1.394 . S
C2535 C2536 1.383 . S
C2535 H2543 0.929 . S
C2536 C2535 1.383 . S
C2536 C2537 1.377 . S
C2537 H2521 0.930 . S
C2537 C2536 1.377 . S
C2537 C2538 1.379 . S
C2538 H2522 0.931 . S
C2538 C2532 1.383 . S
C2538 C2537 1.379 . S
H2539 C2533 0.959 . S
H2540 C2533 0.961 . S
H2541 C2533 0.960 . S
H2542 C2534 0.930 . S
H2543 C2535 0.929 . S
H2544 C2552 0.929 1_554 S
H2545 C2554 0.909 1_554 S
H2546 C2556 0.930 . S
H2547 C2559 0.929 . S
H2548 C2562 0.930 . S
H2549 C2564 0.960 . S
H2550 C2564 0.960 1_554 S
H2551 C2564 0.960 . S
C2552 H2544 0.929 1_556 S
C2552 C2553 1.377 . S
C2552 C2554 1.392 . S
C2553 C2552 1.377 . S
C2553 C2559 1.390 . S
C2554 H2545 0.909 1_556 S
C2554 C2552 1.392 . S
C2554 C2555 1.386 . S
C2555 C2554 1.386 . S
C2555 C2556 1.400 . S
C2555 C2560 1.490 . S
C2556 H2546 0.930 . S
C2556 C2555 1.400 . S
C2556 C2559 1.386 . S
H2557 C2573 0.930 1_556 S
H2558 C2574 0.889 1_556 S
C2559 H2547 0.929 . S
C2559 C2553 1.390 . S
C2559 C2556 1.386 . S
C2560 C2555 1.490 . S
C2560 C2562 1.396 . S
C2560 C2563 1.403 . S
H2561 C2567 0.930 . S
C2562 H2548 0.930 . S
C2562 C2560 1.396 . S
C2562 C2565 1.401 1_556 S
C2563 C2560 1.403 . S
C2563 C2564 1.524 . S
C2563 C2567 1.400 1_556 S
C2564 H2549 0.960 . S
C2564 H2550 0.960 1_556 S
C2564 H2551 0.960 . S
C2564 C2563 1.524 . S
C2565 C2562 1.401 1_554 S
C2565 C2566 1.392 . S
C2565 C2569 1.495 . S
C2566 C2565 1.392 . S
C2566 C2567 1.385 . S
C2566 C2568 1.478 . S
C2567 H2561 0.930 . S
C2567 C2563 1.400 1_554 S
C2567 C2566 1.385 . S
C2568 C2566 1.478 . S
C2568 C2570 1.381 . S
C2568 C2574 1.411 . S
C2569 C2565 1.495 . S
C2569 H2575 0.959 . S
C2569 H2576 0.961 . S
C2569 H2577 0.960 . S
C2570 C2568 1.381 . S
C2570 C2571 1.394 . S
C2570 H2578 0.930 . S
C2571 C2570 1.394 . S
C2571 C2572 1.383 . S
C2571 H2579 0.929 . S
C2572 C2571 1.383 . S
C2572 C2573 1.377 . S
C2573 H2557 0.930 1_554 S
C2573 C2572 1.377 . S
C2573 C2574 1.394 . S
C2574 H2558 0.889 1_554 S
C2574 C2568 1.411 . S
C2574 C2573 1.394 . S
H2575 C2569 0.959 . S
H2576 C2569 0.961 . S
H2577 C2569 0.960 . S
H2578 C2570 0.930 . S
H2579 C2571 0.929 . S
H2580 C2588 0.929 . S
H2581 C2590 0.930 . S
H2582 C2592 0.930 . S
H2583 C2595 0.929 . S
H2584 C2598 0.930 . S
H2585 C2600 0.960 . S
H2586 C2600 0.960 . S
H2587 C2600 0.960 . S
C2588 H2580 0.929 . S
C2588 C2589 1.377 . S
C2588 C2590 1.384 . S
C2589 C2588 1.377 . S
C2589 C2595 1.390 . S
C2590 H2581 0.930 . S
C2590 C2588 1.384 . S
C2590 C2591 1.372 . S
C2591 C2590 1.372 . S
C2591 C2592 1.400 . S
C2591 C2596 1.490 . S
C2592 H2582 0.930 . S
C2592 C2591 1.400 . S
C2592 C2595 1.386 . S
H2593 C2609 0.930 . S
H2594 C2610 0.931 . S
C2595 H2583 0.929 . S
C2595 C2589 1.390 . S
C2595 C2592 1.386 . S
C2596 C2591 1.490 . S
C2596 C2598 1.395 . S
C2596 C2599 1.403 . S
H2597 C2603 0.930 . S
C2598 H2584 0.930 . S
C2598 C2596 1.395 . S
C2598 C2601 1.403 . S
C2599 C2596 1.403 . S
C2599 C2600 1.524 . S
C2599 C2603 1.400 . S
C2600 H2585 0.960 . S
C2600 H2586 0.960 . S
C2600 H2587 0.960 . S
C2600 C2599 1.524 . S
C2601 C2598 1.403 . S
C2601 C2602 1.392 . S
C2601 C2605 1.495 . S
C2602 C2601 1.392 . S
C2602 C2603 1.385 . S
C2602 C2604 1.478 . S
C2603 H2597 0.930 . S
C2603 C2599 1.400 . S
C2603 C2602 1.385 . S
C2604 C2602 1.478 . S
C2604 C2606 1.381 . S
C2604 C2610 1.383 . S
C2605 C2601 1.495 . S
C2605 H2611 0.959 . S
C2605 H2612 0.961 . S
C2605 H2613 0.960 . S
C2606 C2604 1.381 . S
C2606 C2607 1.394 . S
C2606 H2614 0.930 . S
C2607 C2606 1.394 . S
C2607 C2608 1.383 . S
C2607 H2615 0.929 . S
C2608 C2607 1.383 . S
C2608 C2609 1.377 . S
C2609 H2593 0.930 . S
C2609 C2608 1.377 . S
C2609 C2610 1.379 . S
C2610 H2594 0.931 . S
C2610 C2604 1.383 . S
C2610 C2609 1.379 . S
H2611 C2605 0.959 . S
H2612 C2605 0.961 . S
H2613 C2605 0.960 . S
H2614 C2606 0.930 . S
H2615 C2607 0.929 . S
H2616 C2624 0.929 . S
H2617 C2626 0.930 . S
H2618 C2628 0.930 . S
H2619 C2631 0.929 . S
H2620 C2634 0.930 . S
H2621 C2636 0.960 . S
H2622 C2636 0.960 . S
H2623 C2636 0.960 . S
C2624 H2616 0.929 . S
C2624 C2625 1.377 . S
C2624 C2626 1.384 . S
C2625 C2624 1.377 . S
C2625 C2631 1.390 . S
C2626 H2617 0.930 . S
C2626 C2624 1.384 . S
C2626 C2627 1.372 . S
C2627 C2626 1.372 . S
C2627 C2628 1.400 . S
C2627 C2632 1.490 . S
C2628 H2618 0.930 . S
C2628 C2627 1.400 . S
C2628 C2631 1.386 . S
H2629 C2645 0.930 . S
H2630 C2646 0.927 1_554 S
C2631 H2619 0.929 . S
C2631 C2625 1.390 . S
C2631 C2628 1.386 . S
C2632 C2627 1.490 . S
C2632 C2634 1.395 . S
C2632 C2635 1.403 1_554 S
H2633 C2639 0.930 . S
C2634 H2620 0.930 . S
C2634 C2632 1.395 . S
C2634 C2637 1.403 . S
C2635 C2632 1.403 1_556 S
C2635 C2636 1.524 . S
C2635 C2639 1.400 . S
C2636 H2621 0.960 . S
C2636 H2622 0.960 . S
C2636 H2623 0.960 . S
C2636 C2635 1.524 . S
C2637 C2634 1.403 . S
C2637 C2638 1.392 1_554 S
C2637 C2641 1.495 . S
C2638 C2637 1.392 1_556 S
C2638 C2639 1.385 . S
C2638 C2640 1.478 . S
C2639 H2633 0.930 . S
C2639 C2635 1.400 . S
C2639 C2638 1.385 . S
C2640 C2638 1.478 . S
C2640 C2642 1.381 . S
C2640 C2646 1.383 . S
C2641 C2637 1.495 . S
C2641 H2647 0.959 . S
C2641 H2648 0.961 . S
C2641 H2649 0.960 . S
C2642 C2640 1.381 . S
C2642 C2643 1.394 . S
C2642 H2650 0.930 . S
C2643 C2642 1.394 . S
C2643 C2644 1.383 . S
C2643 H2651 0.929 . S
C2644 C2643 1.383 . S
C2644 C2645 1.377 . S
C2645 H2629 0.930 . S
C2645 C2644 1.377 . S
C2645 C2646 1.379 . S
C2646 H2630 0.927 1_556 S
C2646 C2640 1.383 . S
C2646 C2645 1.379 . S
H2647 C2641 0.959 . S
H2648 C2641 0.961 . S
H2649 C2641 0.960 . S
H2650 C2642 0.930 . S
H2651 C2643 0.929 . S
H2652 C2660 0.929 . S
H2653 C2662 0.930 . S
H2654 C2664 0.930 . S
H2655 C2667 0.929 . S
H2656 C2670 0.930 . S
H2657 C2672 0.960 . S
H2658 C2672 0.960 . S
H2659 C2672 0.960 . S
C2660 H2652 0.929 . S
C2660 C2661 1.377 . S
C2660 C2662 1.384 . S
C2661 C2660 1.377 . S
C2661 C2667 1.390 . S
C2662 H2653 0.930 . S
C2662 C2660 1.384 . S
C2662 C2663 1.372 . S
C2663 C2662 1.372 . S
C2663 C2664 1.400 . S
C2663 C2668 1.490 . S
C2664 H2654 0.930 . S
C2664 C2663 1.400 . S
C2664 C2667 1.386 . S
H2665 C2681 0.930 . S
H2666 C2682 0.931 . S
C2667 H2655 0.929 . S
C2667 C2661 1.390 . S
C2667 C2664 1.386 . S
C2668 C2663 1.490 . S
C2668 C2670 1.395 . S
C2668 C2671 1.403 . S
H2669 C2675 0.930 . S
C2670 H2656 0.930 . S
C2670 C2668 1.395 . S
C2670 C2673 1.403 . S
C2671 C2668 1.403 . S
C2671 C2672 1.524 . S
C2671 C2675 1.400 . S
C2672 H2657 0.960 . S
C2672 H2658 0.960 . S
C2672 H2659 0.960 . S
C2672 C2671 1.524 . S
C2673 C2670 1.403 . S
C2673 C2674 1.392 . S
C2673 C2677 1.495 . S
C2674 C2673 1.392 . S
C2674 C2675 1.385 . S
C2674 C2676 1.478 . S
C2675 H2669 0.930 . S
C2675 C2671 1.400 . S
C2675 C2674 1.385 . S
C2676 C2674 1.478 . S
C2676 C2678 1.381 . S
C2676 C2682 1.383 . S
C2677 C2673 1.495 . S
C2677 H2683 0.959 . S
C2677 H2684 0.961 . S
C2677 H2685 0.960 . S
C2678 C2676 1.381 . S
C2678 C2679 1.394 . S
C2678 H2686 0.930 . S
C2679 C2678 1.394 . S
C2679 C2680 1.383 . S
C2679 H2687 0.929 . S
C2680 C2679 1.383 . S
C2680 C2681 1.377 . S
C2681 H2665 0.930 . S
C2681 C2680 1.377 . S
C2681 C2682 1.379 . S
C2682 H2666 0.931 . S
C2682 C2676 1.383 . S
C2682 C2681 1.379 . S
H2683 C2677 0.959 . S
H2684 C2677 0.961 . S
H2685 C2677 0.960 . S
H2686 C2678 0.930 . S
H2687 C2679 0.929 . S
H2688 C2696 0.929 . S
H2689 C2698 0.930 . S
H2690 C2700 0.916 1_554 S
H2691 C2703 0.929 1_554 S
H2692 C2706 0.930 . S
H2693 C2708 0.960 . S
H2694 C2708 0.960 1_556 S
H2695 C2708 0.960 . S
C2696 H2688 0.929 . S
C2696 C2697 1.377 . S
C2696 C2698 1.384 . S
C2697 C2696 1.377 . S
C2697 C2703 1.390 . S
C2698 H2689 0.930 . S
C2698 C2696 1.384 . S
C2698 C2699 1.372 . S
C2699 C2698 1.372 . S
C2699 C2700 1.410 . S
C2699 C2704 1.490 . S
C2700 H2690 0.916 1_556 S
C2700 C2699 1.410 . S
C2700 C2703 1.390 . S
H2701 C2717 0.930 . S
H2702 C2718 0.931 . S
C2703 H2691 0.929 1_556 S
C2703 C2697 1.390 . S
C2703 C2700 1.390 . S
C2704 C2699 1.490 . S
C2704 C2706 1.395 . S
C2704 C2707 1.403 1_556 S
H2705 C2711 0.930 . S
C2706 H2692 0.930 . S
C2706 C2704 1.395 . S
C2706 C2709 1.403 . S
C2707 C2704 1.403 1_554 S
C2707 C2708 1.524 . S
C2707 C2711 1.400 . S
C2708 H2693 0.960 . S
C2708 H2694 0.960 1_554 S
C2708 H2695 0.960 . S
C2708 C2707 1.524 . S
C2709 C2706 1.403 . S
C2709 C2710 1.392 1_556 S
C2709 C2713 1.495 . S
C2710 C2709 1.392 1_554 S
C2710 C2711 1.385 . S
C2710 C2712 1.478 . S
C2711 H2705 0.930 . S
C2711 C2707 1.400 . S
C2711 C2710 1.385 . S
C2712 C2710 1.478 . S
C2712 C2714 1.381 1_554 S
C2712 C2718 1.383 . S
C2713 C2709 1.495 . S
C2713 H2719 0.959 . S
C2713 H2720 0.961 . S
C2713 H2721 0.960 . S
C2714 C2712 1.381 1_556 S
C2714 C2715 1.394 1_556 S
C2714 H2722 0.930 . S
C2715 C2714 1.394 1_554 S
C2715 C2716 1.383 . S
C2715 H2723 0.929 1_554 S
C2716 C2715 1.383 . S
C2716 C2717 1.377 . S
C2717 H2701 0.930 . S
C2717 C2716 1.377 . S
C2717 C2718 1.379 . S
C2718 H2702 0.931 . S
C2718 C2712 1.383 . S
C2718 C2717 1.379 . S
H2719 C2713 0.959 . S
H2720 C2713 0.961 . S
H2721 C2713 0.960 . S
H2722 C2714 0.930 . S
H2723 C2715 0.929 1_556 S
H2724 C2732 0.929 . S
H2725 C2734 0.930 . S
H2726 C2736 0.930 . S
H2727 C2739 0.929 . S
H2728 C2742 0.930 . S
H2729 C2744 0.960 . S
H2730 C2744 0.960 . S
H2731 C2744 0.960 . S
C2732 H2724 0.929 . S
C2732 C2733 1.377 . S
C2732 C2734 1.384 . S
C2733 C2732 1.377 . S
C2733 C2739 1.390 . S
C2734 H2725 0.930 . S
C2734 C2732 1.384 . S
C2734 C2735 1.372 . S
C2735 C2734 1.372 . S
C2735 C2736 1.400 . S
C2735 C2740 1.490 . S
C2736 H2726 0.930 . S
C2736 C2735 1.400 . S
C2736 C2739 1.386 . S
H2737 C2753 0.930 . S
H2738 C2754 0.931 . S
C2739 H2727 0.929 . S
C2739 C2733 1.390 . S
C2739 C2736 1.386 . S
C2740 C2735 1.490 . S
C2740 C2742 1.395 . S
C2740 C2743 1.403 . S
H2741 C2747 0.930 . S
C2742 H2728 0.930 . S
C2742 C2740 1.395 . S
C2742 C2745 1.403 . S
C2743 C2740 1.403 . S
C2743 C2744 1.524 . S
C2743 C2747 1.400 . S
C2744 H2729 0.960 . S
C2744 H2730 0.960 . S
C2744 H2731 0.960 . S
C2744 C2743 1.524 . S
C2745 C2742 1.403 . S
C2745 C2746 1.392 . S
C2745 C2749 1.495 . S
C2746 C2745 1.392 . S
C2746 C2747 1.385 . S
C2746 C2748 1.478 . S
C2747 H2741 0.930 . S
C2747 C2743 1.400 . S
C2747 C2746 1.385 . S
C2748 C2746 1.478 . S
C2748 C2750 1.381 . S
C2748 C2754 1.383 . S
C2749 C2745 1.495 . S
C2749 H2755 0.959 . S
C2749 H2756 0.961 . S
C2749 H2757 0.960 . S
C2750 C2748 1.381 . S
C2750 C2751 1.394 . S
C2750 H2758 0.930 . S
C2751 C2750 1.394 . S
C2751 C2752 1.383 . S
C2751 H2759 0.929 . S
C2752 C2751 1.383 . S
C2752 C2753 1.377 . S
C2753 H2737 0.930 . S
C2753 C2752 1.377 . S
C2753 C2754 1.379 . S
C2754 H2738 0.931 . S
C2754 C2748 1.383 . S
C2754 C2753 1.379 . S
H2755 C2749 0.959 . S
H2756 C2749 0.961 . S
H2757 C2749 0.960 . S
H2758 C2750 0.930 . S
H2759 C2751 0.929 . S
H2760 C2768 0.929 . S
H2761 C2770 0.930 . S
H2762 C2772 0.930 . S
H2763 C2775 0.929 . S
H2764 C2778 0.930 . S
H2765 C2780 0.960 . S
H2766 C2780 0.960 . S
H2767 C2780 0.960 . S
C2768 H2760 0.929 . S
C2768 C2769 1.377 . S
C2768 C2770 1.384 . S
C2769 C2768 1.377 . S
C2769 C2775 1.390 . S
C2770 H2761 0.930 . S
C2770 C2768 1.384 . S
C2770 C2771 1.372 . S
C2771 C2770 1.372 . S
C2771 C2772 1.400 . S
C2771 C2776 1.490 . S
C2772 H2762 0.930 . S
C2772 C2771 1.400 . S
C2772 C2775 1.386 . S
H2773 C2789 0.930 . S
H2774 C2790 0.931 . S
C2775 H2763 0.929 . S
C2775 C2769 1.390 . S
C2775 C2772 1.386 . S
C2776 C2771 1.490 . S
C2776 C2778 1.395 1_554 S
C2776 C2779 1.403 . S
H2777 C2783 0.930 . S
C2778 H2764 0.930 . S
C2778 C2776 1.395 1_556 S
C2778 C2781 1.403 . S
C2779 C2776 1.403 . S
C2779 C2780 1.524 . S
C2779 C2783 1.400 . S
C2780 H2765 0.960 . S
C2780 H2766 0.960 . S
C2780 H2767 0.960 . S
C2780 C2779 1.524 . S
C2781 C2778 1.403 . S
C2781 C2782 1.392 . S
C2781 C2785 1.495 . S
C2782 C2781 1.392 . S
C2782 C2783 1.385 1_556 S
C2782 C2784 1.478 . S
C2783 H2777 0.930 . S
C2783 C2779 1.400 . S
C2783 C2782 1.385 1_554 S
C2784 C2782 1.478 . S
C2784 C2786 1.381 . S
C2784 C2790 1.383 . S
C2785 C2781 1.495 . S
C2785 H2791 0.959 . S
C2785 H2792 0.961 . S
C2785 H2793 0.960 . S
C2786 C2784 1.381 . S
C2786 C2787 1.394 . S
C2786 H2794 0.930 . S
C2787 C2786 1.394 . S
C2787 C2788 1.383 . S
C2787 H2795 0.929 . S
C2788 C2787 1.383 . S
C2788 C2789 1.377 . S
C2789 H2773 0.930 . S
C2789 C2788 1.377 . S
C2789 C2790 1.379 . S
C2790 H2774 0.931 . S
C2790 C2784 1.383 . S
C2790 C2789 1.379 . S
H2791 C2785 0.959 . S
H2792 C2785 0.961 . S
H2793 C2785 0.960 . S
H2794 C2786 0.930 . S
H2795 C2787 0.929 . S
H2796 C2804 0.929 . S
H2797 C2806 0.930 . S
H2798 C2808 0.930 . S
H2799 C2811 0.929 . S
H2800 C2814 0.930 . S
H2801 C2816 0.960 . S
H2802 C2816 0.960 . S
H2803 C2816 0.960 . S
C2804 H2796 0.929 . S
C2804 C2805 1.377 . S
C2804 C2806 1.384 . S
C2805 C2804 1.377 . S
C2805 C2811 1.390 . S
C2806 H2797 0.930 . S
C2806 C2804 1.384 . S
C2806 C2807 1.372 . S
C2807 C2806 1.372 . S
C2807 C2808 1.400 . S
C2807 C2812 1.490 . S
C2808 H2798 0.930 . S
C2808 C2807 1.400 . S
C2808 C2811 1.386 . S
H2809 C2825 0.930 . S
H2810 C2826 0.931 . S
C2811 H2799 0.929 . S
C2811 C2805 1.390 . S
C2811 C2808 1.386 . S
C2812 C2807 1.490 . S
C2812 C2814 1.395 . S
C2812 C2815 1.403 . S
H2813 C2819 0.930 . S
C2814 H2800 0.930 . S
C2814 C2812 1.395 . S
C2814 C2817 1.403 . S
C2815 C2812 1.403 . S
C2815 C2816 1.524 . S
C2815 C2819 1.400 . S
C2816 H2801 0.960 . S
C2816 H2802 0.960 . S
C2816 H2803 0.960 . S
C2816 C2815 1.524 . S
C2817 C2814 1.403 . S
C2817 C2818 1.392 . S
C2817 C2821 1.495 . S
C2818 C2817 1.392 . S
C2818 C2819 1.385 . S
C2818 C2820 1.478 . S
C2819 H2813 0.930 . S
C2819 C2815 1.400 . S
C2819 C2818 1.385 . S
C2820 C2818 1.478 . S
C2820 C2822 1.381 . S
C2820 C2826 1.383 . S
C2821 C2817 1.495 . S
C2821 H2827 0.959 . S
C2821 H2828 0.961 . S
C2821 H2829 0.960 . S
C2822 C2820 1.381 . S
C2822 C2823 1.394 . S
C2822 H2830 0.930 . S
C2823 C2822 1.394 . S
C2823 C2824 1.383 . S
C2823 H2831 0.929 . S
C2824 C2823 1.383 . S
C2824 C2825 1.377 . S
C2825 H2809 0.930 . S
C2825 C2824 1.377 . S
C2825 C2826 1.379 . S
C2826 H2810 0.931 . S
C2826 C2820 1.383 . S
C2826 C2825 1.379 . S
H2827 C2821 0.959 . S
H2828 C2821 0.961 . S
H2829 C2821 0.960 . S
H2830 C2822 0.930 . S
H2831 C2823 0.929 . S
H2832 C2840 0.929 1_554 S
H2833 C2842 0.970 . S
H2834 C2844 0.930 . S
H2835 C2847 0.929 . S
H2836 C2850 0.930 . S
H2837 C2852 0.960 . S
H2838 C2852 0.960 . S
H2839 C2852 0.960 . S
C2840 H2832 0.929 1_556 S
C2840 C2841 1.377 . S
C2840 C2842 1.371 1_556 S
C2841 C2840 1.377 . S
C2841 C2847 1.390 . S
C2842 H2833 0.970 . S
C2842 C2840 1.371 1_554 S
C2842 C2843 1.346 1_554 S
C2843 C2842 1.346 1_556 S
C2843 C2844 1.400 . S
C2843 C2848 1.490 . S
C2844 H2834 0.930 . S
C2844 C2843 1.400 . S
C2844 C2847 1.386 . S
H2845 C2861 0.930 1_556 S
H2846 C2862 0.931 1_556 S
C2847 H2835 0.929 . S
C2847 C2841 1.390 . S
C2847 C2844 1.386 . S
C2848 C2843 1.490 . S
C2848 C2850 1.395 1_556 S
C2848 C2851 1.403 . S
H2849 C2855 0.930 . S
C2850 H2836 0.930 . S
C2850 C2848 1.395 1_554 S
C2850 C2853 1.403 . S
C2851 C2848 1.403 . S
C2851 C2852 1.524 . S
C2851 C2855 1.400 . S
C2852 H2837 0.960 . S
C2852 H2838 0.960 . S
C2852 H2839 0.960 . S
C2852 C2851 1.524 . S
C2853 C2850 1.403 . S
C2853 C2854 1.392 . S
C2853 C2857 1.495 . S
C2854 C2853 1.392 . S
C2854 C2855 1.385 1_554 S
C2854 C2856 1.478 . S
C2855 H2849 0.930 . S
C2855 C2851 1.400 . S
C2855 C2854 1.385 1_556 S
C2856 C2854 1.478 . S
C2856 C2858 1.381 . S
C2856 C2862 1.383 . S
C2857 C2853 1.495 . S
C2857 H2863 0.959 . S
C2857 H2864 0.961 . S
C2857 H2865 0.960 . S
C2858 C2856 1.381 . S
C2858 C2859 1.394 . S
C2858 H2866 0.930 . S
C2859 C2858 1.394 . S
C2859 C2860 1.383 . S
C2859 H2867 0.929 . S
C2860 C2859 1.383 . S
C2860 C2861 1.377 . S
C2861 H2845 0.930 1_554 S
C2861 C2860 1.377 . S
C2861 C2862 1.379 . S
C2862 H2846 0.931 1_554 S
C2862 C2856 1.383 . S
C2862 C2861 1.379 . S
H2863 C2857 0.959 . S
H2864 C2857 0.961 . S
H2865 C2857 0.960 . S
H2866 C2858 0.930 . S
H2867 C2859 0.929 . S
H2868 C2876 0.929 . S
H2869 C2878 0.930 . S
H2870 C2880 0.930 . S
H2871 C2883 0.929 . S
H2872 C2886 0.930 . S
H2873 C2888 0.960 . S
H2874 C2888 0.960 . S
H2875 C2888 0.960 . S
C2876 H2868 0.929 . S
C2876 C2877 1.377 . S
C2876 C2878 1.384 . S
C2877 C2876 1.377 . S
C2877 C2883 1.390 . S
C2878 H2869 0.930 . S
C2878 C2876 1.384 . S
C2878 C2879 1.372 . S
C2879 C2878 1.372 . S
C2879 C2880 1.400 . S
C2879 C2884 1.490 . S
C2880 H2870 0.930 . S
C2880 C2879 1.400 . S
C2880 C2883 1.386 . S
H2881 C2897 0.930 . S
H2882 C2898 0.931 . S
C2883 H2871 0.929 . S
C2883 C2877 1.390 . S
C2883 C2880 1.386 . S
C2884 C2879 1.490 . S
C2884 C2886 1.395 . S
C2884 C2887 1.403 . S
H2885 C2891 0.930 . S
C2886 H2872 0.930 . S
C2886 C2884 1.395 . S
C2886 C2889 1.403 . S
C2887 C2884 1.403 . S
C2887 C2888 1.524 . S
C2887 C2891 1.400 . S
C2888 H2873 0.960 . S
C2888 H2874 0.960 . S
C2888 H2875 0.960 . S
C2888 C2887 1.524 . S
C2889 C2886 1.403 . S
C2889 C2890 1.392 . S
C2889 C2893 1.495 . S
C2890 C2889 1.392 . S
C2890 C2891 1.385 . S
C2890 C2892 1.478 . S
C2891 H2885 0.930 . S
C2891 C2887 1.400 . S
C2891 C2890 1.385 . S
C2892 C2890 1.478 . S
C2892 C2894 1.381 . S
C2892 C2898 1.383 . S
C2893 C2889 1.495 . S
C2893 H2899 0.959 . S
C2893 H2900 0.961 . S
C2893 H2901 0.960 . S
C2894 C2892 1.381 . S
C2894 C2895 1.394 . S
C2894 H2902 0.930 . S
C2895 C2894 1.394 . S
C2895 C2896 1.383 . S
C2895 H2903 0.929 . S
C2896 C2895 1.383 . S
C2896 C2897 1.377 . S
C2897 H2881 0.930 . S
C2897 C2896 1.377 . S
C2897 C2898 1.379 . S
C2898 H2882 0.931 . S
C2898 C2892 1.383 . S
C2898 C2897 1.379 . S
H2899 C2893 0.959 . S
H2900 C2893 0.961 . S
H2901 C2893 0.960 . S
H2902 C2894 0.930 . S
H2903 C2895 0.929 . S
H2904 C2912 0.929 . S
H2905 C2914 0.930 . S
H2906 C2916 0.930 . S
H2907 C2919 0.929 . S
H2908 C2922 0.930 . S
H2909 C2924 0.960 . S
H2910 C2924 0.960 . S
H2911 C2924 0.960 . S
C2912 H2904 0.929 . S
C2912 C2913 1.377 . S
C2912 C2914 1.384 . S
C2913 C2912 1.377 . S
C2913 C2919 1.390 . S
C2914 H2905 0.930 . S
C2914 C2912 1.384 . S
C2914 C2915 1.372 . S
C2915 C2914 1.372 . S
C2915 C2916 1.400 . S
C2915 C2920 1.490 . S
C2916 H2906 0.930 . S
C2916 C2915 1.400 . S
C2916 C2919 1.386 . S
H2917 C2933 0.930 . S
H2918 C2934 0.931 . S
C2919 H2907 0.929 . S
C2919 C2913 1.390 . S
C2919 C2916 1.386 . S
C2920 C2915 1.490 . S
C2920 C2922 1.395 . S
C2920 C2923 1.403 1_556 S
H2921 C2927 0.930 . S
C2922 H2908 0.930 . S
C2922 C2920 1.395 . S
C2922 C2925 1.403 . S
C2923 C2920 1.403 1_554 S
C2923 C2924 1.524 . S
C2923 C2927 1.400 . S
C2924 H2909 0.960 . S
C2924 H2910 0.960 . S
C2924 H2911 0.960 . S
C2924 C2923 1.524 . S
C2925 C2922 1.403 . S
C2925 C2926 1.392 1_556 S
C2925 C2929 1.495 . S
C2926 C2925 1.392 1_554 S
C2926 C2927 1.385 . S
C2926 C2928 1.478 . S
C2927 H2921 0.930 . S
C2927 C2923 1.400 . S
C2927 C2926 1.385 . S
C2928 C2926 1.478 . S
C2928 C2930 1.381 . S
C2928 C2934 1.383 . S
C2929 C2925 1.495 . S
C2929 H2935 0.959 . S
C2929 H2936 0.961 . S
C2929 H2937 0.960 . S
C2930 C2928 1.381 . S
C2930 C2931 1.394 . S
C2930 H2938 0.930 . S
C2931 C2930 1.394 . S
C2931 C2932 1.383 . S
C2931 H2939 0.929 . S
C2932 C2931 1.383 . S
C2932 C2933 1.377 . S
C2933 H2917 0.930 . S
C2933 C2932 1.377 . S
C2933 C2934 1.379 . S
C2934 H2918 0.931 . S
C2934 C2928 1.383 . S
C2934 C2933 1.379 . S
H2935 C2929 0.959 . S
H2936 C2929 0.961 . S
H2937 C2929 0.960 . S
H2938 C2930 0.930 . S
H2939 C2931 0.929 . S
H2940 C2948 0.929 . S
H2941 C2950 0.930 . S
H2942 C2952 0.930 . S
H2943 C2955 0.929 . S
H2944 C2958 0.930 . S
H2945 C2960 0.960 . S
H2946 C2960 0.960 . S
H2947 C2960 0.960 . S
C2948 H2940 0.929 . S
C2948 C2949 1.377 . S
C2948 C2950 1.384 . S
C2949 C2948 1.377 . S
C2949 C2955 1.390 . S
C2950 H2941 0.930 . S
C2950 C2948 1.384 . S
C2950 C2951 1.372 . S
C2951 C2950 1.372 . S
C2951 C2952 1.400 . S
C2951 C2956 1.490 . S
C2952 H2942 0.930 . S
C2952 C2951 1.400 . S
C2952 C2955 1.386 . S
H2953 C2969 0.930 . S
H2954 C2970 0.931 . S
C2955 H2943 0.929 . S
C2955 C2949 1.390 . S
C2955 C2952 1.386 . S
C2956 C2951 1.490 . S
C2956 C2958 1.395 . S
C2956 C2959 1.403 . S
H2957 C2963 0.930 . S
C2958 H2944 0.930 . S
C2958 C2956 1.395 . S
C2958 C2961 1.403 . S
C2959 C2956 1.403 . S
C2959 C2960 1.524 . S
C2959 C2963 1.400 . S
C2960 H2945 0.960 . S
C2960 H2946 0.960 . S
C2960 H2947 0.960 . S
C2960 C2959 1.524 . S
C2961 C2958 1.403 . S
C2961 C2962 1.392 . S
C2961 C2965 1.495 . S
C2962 C2961 1.392 . S
C2962 C2963 1.385 . S
C2962 C2964 1.478 . S
C2963 H2957 0.930 . S
C2963 C2959 1.400 . S
C2963 C2962 1.385 . S
C2964 C2962 1.478 . S
C2964 C2966 1.381 . S
C2964 C2970 1.383 . S
C2965 C2961 1.495 . S
C2965 H2971 0.959 . S
C2965 H2972 0.961 . S
C2965 H2973 0.960 . S
C2966 C2964 1.381 . S
C2966 C2967 1.394 . S
C2966 H2974 0.930 . S
C2967 C2966 1.394 . S
C2967 C2968 1.383 . S
C2967 H2975 0.929 . S
C2968 C2967 1.383 . S
C2968 C2969 1.377 . S
C2969 H2953 0.930 . S
C2969 C2968 1.377 . S
C2969 C2970 1.379 . S
C2970 H2954 0.931 . S
C2970 C2964 1.383 . S
C2970 C2969 1.379 . S
H2971 C2965 0.959 . S
H2972 C2965 0.961 . S
H2973 C2965 0.960 . S
H2974 C2966 0.930 . S
H2975 C2967 0.929 . S
H2976 C2984 0.929 . S
H2977 C2986 0.930 . S
H2978 C2988 0.930 . S
H2979 C2991 0.929 . S
H2980 C2994 0.930 . S
H2981 C2996 0.960 . S
H2982 C2996 0.960 . S
H2983 C2996 0.960 . S
C2984 H2976 0.929 . S
C2984 C2985 1.377 . S
C2984 C2986 1.384 . S
C2985 C2984 1.377 . S
C2985 C2991 1.390 . S
C2986 H2977 0.930 . S
C2986 C2984 1.384 . S
C2986 C2987 1.372 . S
C2987 C2986 1.372 . S
C2987 C2988 1.400 . S
C2987 C2992 1.490 . S
C2988 H2978 0.930 . S
C2988 C2987 1.400 . S
C2988 C2991 1.386 . S
H2989 C3005 0.930 . S
H2990 C3006 0.931 . S
C2991 H2979 0.929 . S
C2991 C2985 1.390 . S
C2991 C2988 1.386 . S
C2992 C2987 1.490 . S
C2992 C2994 1.395 . S
C2992 C2995 1.403 . S
H2993 C2999 0.930 . S
C2994 H2980 0.930 . S
C2994 C2992 1.395 . S
C2994 C2997 1.403 . S
C2995 C2992 1.403 . S
C2995 C2996 1.524 . S
C2995 C2999 1.400 . S
C2996 H2981 0.960 . S
C2996 H2982 0.960 . S
C2996 H2983 0.960 . S
C2996 C2995 1.524 . S
C2997 C2994 1.403 . S
C2997 C2998 1.392 . S
C2997 C3001 1.495 . S
C2998 C2997 1.392 . S
C2998 C2999 1.385 . S
C2998 C3000 1.478 . S
C2999 H2993 0.930 . S
C2999 C2995 1.400 . S
C2999 C2998 1.385 . S
C3000 C2998 1.478 . S
C3000 C3002 1.381 . S
C3000 C3006 1.383 . S
C3001 C2997 1.495 . S
C3001 H3007 0.959 . S
C3001 H3008 0.961 . S
C3001 H3009 0.960 . S
C3002 C3000 1.381 . S
C3002 C3003 1.394 . S
C3002 H3010 0.930 . S
C3003 C3002 1.394 . S
C3003 C3004 1.383 . S
C3003 H3011 0.929 . S
C3004 C3003 1.383 . S
C3004 C3005 1.377 . S
C3005 H2989 0.930 . S
C3005 C3004 1.377 . S
C3005 C3006 1.379 . S
C3006 H2990 0.931 . S
C3006 C3000 1.383 . S
C3006 C3005 1.379 . S
H3007 C3001 0.959 . S
H3008 C3001 0.961 . S
H3009 C3001 0.960 . S
H3010 C3002 0.930 . S
H3011 C3003 0.929 . S
H3012 C3020 0.929 . S
H3013 C3022 0.930 . S
H3014 C3024 0.930 . S
H3015 C3027 0.929 . S
H3016 C3030 0.930 . S
H3017 C3032 0.960 . S
H3018 C3032 0.960 . S
H3019 C3032 0.960 . S
C3020 H3012 0.929 . S
C3020 C3021 1.377 . S
C3020 C3022 1.384 . S
C3021 C3020 1.377 . S
C3021 C3027 1.390 . S
C3022 H3013 0.930 . S
C3022 C3020 1.384 . S
C3022 C3023 1.372 . S
C3023 C3022 1.372 . S
C3023 C3024 1.400 . S
C3023 C3028 1.490 . S
C3024 H3014 0.930 . S
C3024 C3023 1.400 . S
C3024 C3027 1.386 . S
H3025 C3041 0.930 . S
H3026 C3042 0.931 . S
C3027 H3015 0.929 . S
C3027 C3021 1.390 . S
C3027 C3024 1.386 . S
C3028 C3023 1.490 . S
C3028 C3030 1.395 . S
C3028 C3031 1.403 . S
H3029 C3035 0.930 . S
C3030 H3016 0.930 . S
C3030 C3028 1.395 . S
C3030 C3033 1.403 1_455 S
C3031 C3028 1.403 . S
C3031 C3032 1.524 . S
C3031 C3035 1.400 1_455 S
C3032 H3017 0.960 . S
C3032 H3018 0.960 . S
C3032 H3019 0.960 . S
C3032 C3031 1.524 . S
C3033 C3030 1.403 1_655 S
C3033 C3034 1.392 . S
C3033 C3037 1.495 . S
C3034 C3033 1.392 . S
C3034 C3035 1.385 . S
C3034 C3036 1.478 . S
C3035 H3029 0.930 . S
C3035 C3031 1.400 1_655 S
C3035 C3034 1.385 . S
C3036 C3034 1.478 . S
C3036 C3038 1.381 . S
C3036 C3042 1.383 . S
C3037 C3033 1.495 . S
C3037 H3043 0.959 . S
C3037 H3044 0.961 . S
C3037 H3045 0.960 . S
C3038 C3036 1.381 . S
C3038 C3039 1.394 . S
C3038 H3046 0.930 . S
C3039 C3038 1.394 . S
C3039 C3040 1.383 . S
C3039 H3047 0.929 . S
C3040 C3039 1.383 . S
C3040 C3041 1.377 . S
C3041 H3025 0.930 . S
C3041 C3040 1.377 . S
C3041 C3042 1.379 . S
C3042 H3026 0.931 . S
C3042 C3036 1.383 . S
C3042 C3041 1.379 . S
H3043 C3037 0.959 . S
H3044 C3037 0.961 . S
H3045 C3037 0.960 . S
H3046 C3038 0.930 . S
H3047 C3039 0.929 . S
H3048 C3056 0.929 . S
H3049 C3058 0.930 . S
H3050 C3060 0.930 . S
H3051 C3063 0.929 . S
H3052 C3066 0.930 . S
H3053 C3068 0.960 . S
H3054 C3068 0.960 . S
H3055 C3068 0.960 . S
C3056 H3048 0.929 . S
C3056 C3057 1.377 . S
C3056 C3058 1.384 . S
C3057 C3056 1.377 . S
C3057 C3063 1.390 . S
C3058 H3049 0.930 . S
C3058 C3056 1.384 . S
C3058 C3059 1.372 . S
C3059 C3058 1.372 . S
C3059 C3060 1.400 . S
C3059 C3064 1.490 . S
C3060 H3050 0.930 . S
C3060 C3059 1.400 . S
C3060 C3063 1.386 . S
H3061 C3077 0.930 . S
H3062 C3078 0.931 . S
C3063 H3051 0.929 . S
C3063 C3057 1.390 . S
C3063 C3060 1.386 . S
C3064 C3059 1.490 . S
C3064 C3066 1.395 . S
C3064 C3067 1.403 . S
H3065 C3071 0.930 . S
C3066 H3052 0.930 . S
C3066 C3064 1.395 . S
C3066 C3069 1.403 1_565 S
C3067 C3064 1.403 . S
C3067 C3068 1.524 . S
C3067 C3071 1.400 1_565 S
C3068 H3053 0.960 . S
C3068 H3054 0.960 . S
C3068 H3055 0.960 . S
C3068 C3067 1.524 . S
C3069 C3066 1.403 1_545 S
C3069 C3070 1.392 . S
C3069 C3073 1.495 . S
C3070 C3069 1.392 . S
C3070 C3071 1.385 . S
C3070 C3072 1.478 . S
C3071 H3065 0.930 . S
C3071 C3067 1.400 1_545 S
C3071 C3070 1.385 . S
C3072 C3070 1.478 . S
C3072 C3074 1.381 . S
C3072 C3078 1.383 . S
C3073 C3069 1.495 . S
C3073 H3079 0.959 . S
C3073 H3080 0.961 . S
C3073 H3081 0.960 . S
C3074 C3072 1.381 . S
C3074 C3075 1.394 . S
C3074 H3082 0.930 . S
C3075 C3074 1.394 . S
C3075 C3076 1.383 . S
C3075 H3083 0.929 . S
C3076 C3075 1.383 . S
C3076 C3077 1.377 . S
C3077 H3061 0.930 . S
C3077 C3076 1.377 . S
C3077 C3078 1.379 . S
C3078 H3062 0.931 . S
C3078 C3072 1.383 . S
C3078 C3077 1.379 . S
H3079 C3073 0.959 . S
H3080 C3073 0.961 . S
H3081 C3073 0.960 . S
H3082 C3074 0.930 . S
H3083 C3075 0.929 . S
H3084 C3092 0.929 . S
H3085 C3094 0.930 . S
H3086 C3096 0.930 . S
H3087 C3099 0.929 . S
H3088 C3102 0.930 . S
H3089 C3104 0.960 . S
H3090 C3104 0.960 . S
H3091 C3104 0.960 . S
C3092 H3084 0.929 . S
C3092 C3093 1.377 . S
C3092 C3094 1.384 . S
C3093 C3092 1.377 . S
C3093 C3099 1.390 . S
C3094 H3085 0.930 . S
C3094 C3092 1.384 . S
C3094 C3095 1.372 . S
C3095 C3094 1.372 . S
C3095 C3096 1.400 . S
C3095 C3100 1.490 . S
C3096 H3086 0.930 . S
C3096 C3095 1.400 . S
C3096 C3099 1.386 . S
H3097 C3113 0.930 . S
H3098 C3114 0.931 . S
C3099 H3087 0.929 . S
C3099 C3093 1.390 . S
C3099 C3096 1.386 . S
C3100 C3095 1.490 . S
C3100 C3102 1.395 . S
C3100 C3103 1.403 . S
H3101 C3107 0.930 . S
C3102 H3088 0.930 . S
C3102 C3100 1.395 . S
C3102 C3105 1.403 . S
C3103 C3100 1.403 . S
C3103 C3104 1.524 . S
C3103 C3107 1.400 . S
C3104 H3089 0.960 . S
C3104 H3090 0.960 . S
C3104 H3091 0.960 . S
C3104 C3103 1.524 . S
C3105 C3102 1.403 . S
C3105 C3106 1.392 . S
C3105 C3109 1.495 . S
C3106 C3105 1.392 . S
C3106 C3107 1.385 . S
C3106 C3108 1.478 . S
C3107 H3101 0.930 . S
C3107 C3103 1.400 . S
C3107 C3106 1.385 . S
C3108 C3106 1.478 . S
C3108 C3110 1.381 . S
C3108 C3114 1.383 . S
C3109 C3105 1.495 . S
C3109 H3115 0.959 . S
C3109 H3116 0.961 . S
C3109 H3117 0.960 . S
C3110 C3108 1.381 . S
C3110 C3111 1.394 . S
C3110 H3118 0.930 . S
C3111 C3110 1.394 . S
C3111 C3112 1.383 . S
C3111 H3119 0.929 . S
C3112 C3111 1.383 . S
C3112 C3113 1.377 . S
C3113 H3097 0.930 . S
C3113 C3112 1.377 . S
C3113 C3114 1.379 . S
C3114 H3098 0.931 . S
C3114 C3108 1.383 . S
C3114 C3113 1.379 . S
H3115 C3109 0.959 . S
H3116 C3109 0.961 . S
H3117 C3109 0.960 . S
H3118 C3110 0.930 . S
H3119 C3111 0.929 . S
H3120 C3128 0.929 . S
H3121 C3130 0.930 . S
H3122 C3132 0.930 . S
H3123 C3135 0.929 . S
H3124 C3138 0.930 . S
H3125 C3140 0.960 . S
H3126 C3140 0.960 . S
H3127 C3140 0.960 . S
C3128 H3120 0.929 . S
C3128 C3129 1.377 . S
C3128 C3130 1.384 . S
C3129 C3128 1.377 . S
C3129 C3135 1.390 . S
C3130 H3121 0.930 . S
C3130 C3128 1.384 . S
C3130 C3131 1.372 . S
C3131 C3130 1.372 . S
C3131 C3132 1.400 . S
C3131 C3136 1.490 . S
C3132 H3122 0.930 . S
C3132 C3131 1.400 . S
C3132 C3135 1.386 . S
H3133 C3149 0.930 . S
H3134 C3150 0.931 . S
C3135 H3123 0.929 . S
C3135 C3129 1.390 . S
C3135 C3132 1.386 . S
C3136 C3131 1.490 . S
C3136 C3138 1.395 . S
C3136 C3139 1.403 . S
H3137 C3143 0.930 . S
C3138 H3124 0.930 . S
C3138 C3136 1.395 . S
C3138 C3141 1.403 1_655 S
C3139 C3136 1.403 . S
C3139 C3140 1.524 . S
C3139 C3143 1.400 1_655 S
C3140 H3125 0.960 . S
C3140 H3126 0.960 . S
C3140 H3127 0.960 . S
C3140 C3139 1.524 . S
C3141 C3138 1.403 1_455 S
C3141 C3142 1.392 . S
C3141 C3145 1.495 . S
C3142 C3141 1.392 . S
C3142 C3143 1.385 . S
C3142 C3144 1.478 . S
C3143 H3137 0.930 . S
C3143 C3139 1.400 1_455 S
C3143 C3142 1.385 . S
C3144 C3142 1.478 . S
C3144 C3146 1.381 . S
C3144 C3150 1.383 . S
C3145 C3141 1.495 . S
C3145 H3151 0.959 . S
C3145 H3152 0.961 . S
C3145 H3153 0.960 . S
C3146 C3144 1.381 . S
C3146 C3147 1.394 . S
C3146 H3154 0.930 . S
C3147 C3146 1.394 . S
C3147 C3148 1.383 . S
C3147 H3155 0.929 . S
C3148 C3147 1.383 . S
C3148 C3149 1.377 . S
C3149 H3133 0.930 . S
C3149 C3148 1.377 . S
C3149 C3150 1.379 . S
C3150 H3134 0.931 . S
C3150 C3144 1.383 . S
C3150 C3149 1.379 . S
H3151 C3145 0.959 . S
H3152 C3145 0.961 . S
H3153 C3145 0.960 . S
H3154 C3146 0.930 . S
H3155 C3147 0.929 . S
H3156 C3164 0.929 . S
H3157 C3166 0.930 . S
H3158 C3168 0.930 . S
H3159 C3171 0.929 . S
H3160 C3174 0.930 . S
H3161 C3176 0.960 . S
H3162 C3176 0.960 . S
H3163 C3176 0.960 . S
C3164 H3156 0.929 . S
C3164 C3165 1.377 . S
C3164 C3166 1.384 . S
C3165 C3164 1.377 . S
C3165 C3171 1.390 . S
C3166 H3157 0.930 . S
C3166 C3164 1.384 . S
C3166 C3167 1.372 . S
C3167 C3166 1.372 . S
C3167 C3168 1.400 . S
C3167 C3172 1.490 . S
C3168 H3158 0.930 . S
C3168 C3167 1.400 . S
C3168 C3171 1.386 . S
H3169 C3185 0.930 . S
H3170 C3186 0.931 . S
C3171 H3159 0.929 . S
C3171 C3165 1.390 . S
C3171 C3168 1.386 . S
C3172 C3167 1.490 . S
C3172 C3174 1.395 . S
C3172 C3175 1.403 . S
H3173 C3179 0.930 . S
C3174 H3160 0.930 . S
C3174 C3172 1.395 . S
C3174 C3177 1.403 1_545 S
C3175 C3172 1.403 . S
C3175 C3176 1.524 . S
C3175 C3179 1.400 1_545 S
C3176 H3161 0.960 . S
C3176 H3162 0.960 . S
C3176 H3163 0.960 . S
C3176 C3175 1.524 . S
C3177 C3174 1.403 1_565 S
C3177 C3178 1.392 . S
C3177 C3181 1.495 . S
C3178 C3177 1.392 . S
C3178 C3179 1.385 . S
C3178 C3180 1.478 . S
C3179 H3173 0.930 . S
C3179 C3175 1.400 1_565 S
C3179 C3178 1.385 . S
C3180 C3178 1.478 . S
C3180 C3182 1.381 . S
C3180 C3186 1.383 . S
C3181 C3177 1.495 . S
C3181 H3187 0.959 . S
C3181 H3188 0.961 . S
C3181 H3189 0.960 . S
C3182 C3180 1.381 . S
C3182 C3183 1.394 . S
C3182 H3190 0.930 . S
C3183 C3182 1.394 . S
C3183 C3184 1.383 . S
C3183 H3191 0.929 . S
C3184 C3183 1.383 . S
C3184 C3185 1.377 . S
C3185 H3169 0.930 . S
C3185 C3184 1.377 . S
C3185 C3186 1.379 . S
C3186 H3170 0.931 . S
C3186 C3180 1.383 . S
C3186 C3185 1.379 . S
H3187 C3181 0.959 . S
H3188 C3181 0.961 . S
H3189 C3181 0.960 . S
H3190 C3182 0.930 . S
H3191 C3183 0.929 . S
H3192 C3200 0.929 . S
H3193 C3202 0.930 . S
H3194 C3204 0.930 . S
H3195 C3207 0.929 . S
H3196 C3210 0.930 . S
H3197 C3212 0.960 . S
H3198 C3212 0.960 . S
H3199 C3212 0.960 . S
C3200 H3192 0.929 . S
C3200 C3201 1.377 . S
C3200 C3202 1.384 . S
C3201 C3200 1.377 . S
C3201 C3207 1.390 . S
C3202 H3193 0.930 . S
C3202 C3200 1.384 . S
C3202 C3203 1.372 . S
C3203 C3202 1.372 . S
C3203 C3204 1.400 . S
C3203 C3208 1.490 . S
C3204 H3194 0.930 . S
C3204 C3203 1.400 . S
C3204 C3207 1.386 . S
H3205 C3221 0.930 . S
H3206 C3222 0.931 . S
C3207 H3195 0.929 . S
C3207 C3201 1.390 . S
C3207 C3204 1.386 . S
C3208 C3203 1.490 . S
C3208 C3210 1.395 . S
C3208 C3211 1.403 . S
H3209 C3215 0.930 . S
C3210 H3196 0.930 . S
C3210 C3208 1.395 . S
C3210 C3213 1.403 . S
C3211 C3208 1.403 . S
C3211 C3212 1.524 . S
C3211 C3215 1.400 . S
C3212 H3197 0.960 . S
C3212 H3198 0.960 . S
C3212 H3199 0.960 . S
C3212 C3211 1.524 . S
C3213 C3210 1.403 . S
C3213 C3214 1.392 . S
C3213 C3217 1.495 . S
C3214 C3213 1.392 . S
C3214 C3215 1.385 . S
C3214 C3216 1.478 . S
C3215 H3209 0.930 . S
C3215 C3211 1.400 . S
C3215 C3214 1.385 . S
C3216 C3214 1.478 . S
C3216 C3218 1.381 . S
C3216 C3222 1.383 . S
C3217 C3213 1.495 . S
C3217 H3223 0.959 . S
C3217 H3224 0.961 . S
C3217 H3225 0.960 . S
C3218 C3216 1.381 . S
C3218 C3219 1.394 . S
C3218 H3226 0.930 . S
C3219 C3218 1.394 . S
C3219 C3220 1.383 . S
C3219 H3227 0.929 . S
C3220 C3219 1.383 . S
C3220 C3221 1.377 . S
C3221 H3205 0.930 . S
C3221 C3220 1.377 . S
C3221 C3222 1.379 . S
C3222 H3206 0.931 . S
C3222 C3216 1.383 . S
C3222 C3221 1.379 . S
H3223 C3217 0.959 . S
H3224 C3217 0.961 . S
H3225 C3217 0.960 . S
H3226 C3218 0.930 . S
H3227 C3219 0.929 . S
H3228 C3236 0.929 . S
H3229 C3238 0.930 . S
H3230 C3240 0.930 . S
H3231 C3243 0.929 . S
H3232 C3246 0.930 . S
H3233 C3248 0.960 . S
H3234 C3248 0.960 . S
H3235 C3248 0.960 . S
C3236 H3228 0.929 . S
C3236 C3237 1.377 . S
C3236 C3238 1.384 . S
C3237 C3236 1.377 . S
C3237 C3243 1.390 . S
C3238 H3229 0.930 . S
C3238 C3236 1.384 . S
C3238 C3239 1.372 . S
C3239 C3238 1.372 . S
C3239 C3240 1.400 . S
C3239 C3244 1.490 . S
C3240 H3230 0.930 . S
C3240 C3239 1.400 . S
C3240 C3243 1.386 . S
H3241 C3257 0.930 . S
H3242 C3258 0.931 . S
C3243 H3231 0.929 . S
C3243 C3237 1.390 . S
C3243 C3240 1.386 . S
C3244 C3239 1.490 . S
C3244 C3246 1.395 . S
C3244 C3247 1.403 . S
H3245 C3251 0.930 . S
C3246 H3232 0.930 . S
C3246 C3244 1.395 . S
C3246 C3249 1.403 1_655 S
C3247 C3244 1.403 . S
C3247 C3248 1.524 . S
C3247 C3251 1.400 1_655 S
C3248 H3233 0.960 . S
C3248 H3234 0.960 . S
C3248 H3235 0.960 . S
C3248 C3247 1.524 . S
C3249 C3246 1.403 1_455 S
C3249 C3250 1.392 . S
C3249 C3253 1.495 . S
C3250 C3249 1.392 . S
C3250 C3251 1.385 . S
C3250 C3252 1.478 . S
C3251 H3245 0.930 . S
C3251 C3247 1.400 1_455 S
C3251 C3250 1.385 . S
C3252 C3250 1.478 . S
C3252 C3254 1.381 . S
C3252 C3258 1.383 . S
C3253 C3249 1.495 . S
C3253 H3259 0.959 . S
C3253 H3260 0.961 . S
C3253 H3261 0.960 . S
C3254 C3252 1.381 . S
C3254 C3255 1.394 . S
C3254 H3262 0.930 . S
C3255 C3254 1.394 . S
C3255 C3256 1.383 . S
C3255 H3263 0.929 . S
C3256 C3255 1.383 . S
C3256 C3257 1.377 . S
C3257 H3241 0.930 . S
C3257 C3256 1.377 . S
C3257 C3258 1.379 . S
C3258 H3242 0.931 . S
C3258 C3252 1.383 . S
C3258 C3257 1.379 . S
H3259 C3253 0.959 . S
H3260 C3253 0.961 . S
H3261 C3253 0.960 . S
H3262 C3254 0.930 . S
H3263 C3255 0.929 . S
H3264 C3272 0.929 . S
H3265 C3274 0.930 . S
H3266 C3276 0.930 . S
H3267 C3279 0.929 . S
H3268 C3282 0.930 . S
H3269 C3284 0.960 . S
H3270 C3284 0.960 . S
H3271 C3284 0.960 . S
C3272 H3264 0.929 . S
C3272 C3273 1.377 . S
C3272 C3274 1.384 . S
C3273 C3272 1.377 . S
C3273 C3279 1.390 . S
C3274 H3265 0.930 . S
C3274 C3272 1.384 . S
C3274 C3275 1.372 . S
C3275 C3274 1.372 . S
C3275 C3276 1.400 . S
C3275 C3280 1.490 . S
C3276 H3266 0.930 . S
C3276 C3275 1.400 . S
C3276 C3279 1.386 . S
H3277 C3293 0.930 . S
H3278 C3294 0.931 . S
C3279 H3267 0.929 . S
C3279 C3273 1.390 . S
C3279 C3276 1.386 . S
C3280 C3275 1.490 . S
C3280 C3282 1.395 . S
C3280 C3283 1.403 . S
H3281 C3287 0.930 . S
C3282 H3268 0.930 . S
C3282 C3280 1.395 . S
C3282 C3285 1.403 1_545 S
C3283 C3280 1.403 . S
C3283 C3284 1.524 . S
C3283 C3287 1.400 1_545 S
C3284 H3269 0.960 . S
C3284 H3270 0.960 . S
C3284 H3271 0.960 . S
C3284 C3283 1.524 . S
C3285 C3282 1.403 1_565 S
C3285 C3286 1.392 . S
C3285 C3289 1.495 . S
C3286 C3285 1.392 . S
C3286 C3287 1.385 . S
C3286 C3288 1.478 . S
C3287 H3281 0.930 . S
C3287 C3283 1.400 1_565 S
C3287 C3286 1.385 . S
C3288 C3286 1.478 . S
C3288 C3290 1.381 . S
C3288 C3294 1.383 . S
C3289 C3285 1.495 . S
C3289 H3295 0.959 . S
C3289 H3296 0.961 . S
C3289 H3297 0.960 . S
C3290 C3288 1.381 . S
C3290 C3291 1.394 . S
C3290 H3298 0.930 . S
C3291 C3290 1.394 . S
C3291 C3292 1.383 . S
C3291 H3299 0.929 . S
C3292 C3291 1.383 . S
C3292 C3293 1.377 . S
C3293 H3277 0.930 . S
C3293 C3292 1.377 . S
C3293 C3294 1.379 . S
C3294 H3278 0.931 . S
C3294 C3288 1.383 . S
C3294 C3293 1.379 . S
H3295 C3289 0.959 . S
H3296 C3289 0.961 . S
H3297 C3289 0.960 . S
H3298 C3290 0.930 . S
H3299 C3291 0.929 . S
H3300 C3308 0.929 . S
H3301 C3310 0.930 . S
H3302 C3312 0.930 . S
H3303 C3315 0.929 . S
H3304 C3318 0.930 . S
H3305 C3320 0.960 . S
H3306 C3320 0.960 . S
H3307 C3320 0.960 . S
C3308 H3300 0.929 . S
C3308 C3309 1.377 . S
C3308 C3310 1.384 . S
C3309 C3308 1.377 . S
C3309 C3315 1.390 . S
C3310 H3301 0.930 . S
C3310 C3308 1.384 . S
C3310 C3311 1.372 . S
C3311 C3310 1.372 . S
C3311 C3312 1.400 . S
C3311 C3316 1.490 . S
C3312 H3302 0.930 . S
C3312 C3311 1.400 . S
C3312 C3315 1.386 . S
H3313 C3329 0.930 . S
H3314 C3330 0.931 . S
C3315 H3303 0.929 . S
C3315 C3309 1.390 . S
C3315 C3312 1.386 . S
C3316 C3311 1.490 . S
C3316 C3318 1.395 . S
C3316 C3319 1.403 . S
H3317 C3323 0.930 . S
C3318 H3304 0.930 . S
C3318 C3316 1.395 . S
C3318 C3321 1.403 . S
C3319 C3316 1.403 . S
C3319 C3320 1.524 . S
C3319 C3323 1.400 . S
C3320 H3305 0.960 . S
C3320 H3306 0.960 . S
C3320 H3307 0.960 . S
C3320 C3319 1.524 . S
C3321 C3318 1.403 . S
C3321 C3322 1.392 . S
C3321 C3325 1.495 . S
C3322 C3321 1.392 . S
C3322 C3323 1.385 . S
C3322 C3324 1.478 . S
C3323 H3317 0.930 . S
C3323 C3319 1.400 . S
C3323 C3322 1.385 . S
C3324 C3322 1.478 . S
C3324 C3326 1.381 . S
C3324 C3330 1.383 . S
C3325 C3321 1.495 . S
C3325 H3331 0.959 . S
C3325 H3332 0.961 . S
C3325 H3333 0.960 . S
C3326 C3324 1.381 . S
C3326 C3327 1.394 . S
C3326 H3334 0.930 . S
C3327 C3326 1.394 . S
C3327 C3328 1.383 . S
C3327 H3335 0.929 . S
C3328 C3327 1.383 . S
C3328 C3329 1.377 . S
C3329 H3313 0.930 . S
C3329 C3328 1.377 . S
C3329 C3330 1.379 . S
C3330 H3314 0.931 . S
C3330 C3324 1.383 . S
C3330 C3329 1.379 . S
H3331 C3325 0.959 . S
H3332 C3325 0.961 . S
H3333 C3325 0.960 . S
H3334 C3326 0.930 . S
H3335 C3327 0.929 . S
H3336 C3344 0.929 . S
H3337 C3346 0.930 . S
H3338 C3348 0.930 . S
H3339 C3351 0.929 . S
H3340 C3354 0.930 . S
H3341 C3356 0.960 . S
H3342 C3356 0.960 . S
H3343 C3356 0.960 . S
C3344 H3336 0.929 . S
C3344 C3345 1.377 . S
C3344 C3346 1.384 . S
C3345 C3344 1.377 . S
C3345 C3351 1.390 . S
C3346 H3337 0.930 . S
C3346 C3344 1.384 . S
C3346 C3347 1.372 . S
C3347 C3346 1.372 . S
C3347 C3348 1.400 . S
C3347 C3352 1.490 . S
C3348 H3338 0.930 . S
C3348 C3347 1.400 . S
C3348 C3351 1.386 . S
H3349 C3365 0.930 . S
H3350 C3366 0.931 . S
C3351 H3339 0.929 . S
C3351 C3345 1.390 . S
C3351 C3348 1.386 . S
C3352 C3347 1.490 . S
C3352 C3354 1.395 . S
C3352 C3355 1.403 . S
H3353 C3359 0.930 . S
C3354 H3340 0.930 . S
C3354 C3352 1.395 . S
C3354 C3357 1.403 1_455 S
C3355 C3352 1.403 . S
C3355 C3356 1.524 . S
C3355 C3359 1.400 1_455 S
C3356 H3341 0.960 . S
C3356 H3342 0.960 . S
C3356 H3343 0.960 . S
C3356 C3355 1.524 . S
C3357 C3354 1.403 1_655 S
C3357 C3358 1.392 . S
C3357 C3361 1.495 . S
C3358 C3357 1.392 . S
C3358 C3359 1.385 . S
C3358 C3360 1.478 . S
C3359 H3353 0.930 . S
C3359 C3355 1.400 1_655 S
C3359 C3358 1.385 . S
C3360 C3358 1.478 . S
C3360 C3362 1.381 . S
C3360 C3366 1.383 . S
C3361 C3357 1.495 . S
C3361 H3367 0.959 . S
C3361 H3368 0.961 . S
C3361 H3369 0.960 . S
C3362 C3360 1.381 . S
C3362 C3363 1.394 . S
C3362 H3370 0.930 . S
C3363 C3362 1.394 . S
C3363 C3364 1.383 . S
C3363 H3371 0.929 . S
C3364 C3363 1.383 . S
C3364 C3365 1.377 . S
C3365 H3349 0.930 . S
C3365 C3364 1.377 . S
C3365 C3366 1.379 . S
C3366 H3350 0.931 . S
C3366 C3360 1.383 . S
C3366 C3365 1.379 . S
H3367 C3361 0.959 . S
H3368 C3361 0.961 . S
H3369 C3361 0.960 . S
H3370 C3362 0.930 . S
H3371 C3363 0.929 . S
H3372 C3380 0.929 . S
H3373 C3382 0.930 . S
H3374 C3384 0.930 . S
H3375 C3387 0.929 . S
H3376 C3390 0.930 . S
H3377 C3392 0.960 . S
H3378 C3392 0.960 . S
H3379 C3392 0.960 . S
C3380 H3372 0.929 . S
C3380 C3381 1.377 . S
C3380 C3382 1.384 . S
C3381 C3380 1.377 . S
C3381 C3387 1.390 . S
C3382 H3373 0.930 . S
C3382 C3380 1.384 . S
C3382 C3383 1.372 . S
C3383 C3382 1.372 . S
C3383 C3384 1.400 . S
C3383 C3388 1.490 . S
C3384 H3374 0.930 . S
C3384 C3383 1.400 . S
C3384 C3387 1.386 . S
H3385 C3401 0.930 . S
H3386 C3402 0.931 . S
C3387 H3375 0.929 . S
C3387 C3381 1.390 . S
C3387 C3384 1.386 . S
C3388 C3383 1.490 . S
C3388 C3390 1.395 . S
C3388 C3391 1.403 . S
H3389 C3395 0.930 . S
C3390 H3376 0.930 . S
C3390 C3388 1.395 . S
C3390 C3393 1.403 1_565 S
C3391 C3388 1.403 . S
C3391 C3392 1.524 . S
C3391 C3395 1.400 1_565 S
C3392 H3377 0.960 . S
C3392 H3378 0.960 . S
C3392 H3379 0.960 . S
C3392 C3391 1.524 . S
C3393 C3390 1.403 1_545 S
C3393 C3394 1.392 . S
C3393 C3397 1.495 . S
C3394 C3393 1.392 . S
C3394 C3395 1.385 . S
C3394 C3396 1.478 . S
C3395 H3389 0.930 . S
C3395 C3391 1.400 1_545 S
C3395 C3394 1.385 . S
C3396 C3394 1.478 . S
C3396 C3398 1.381 . S
C3396 C3402 1.383 . S
C3397 C3393 1.495 . S
C3397 H3403 0.959 . S
C3397 H3404 0.961 . S
C3397 H3405 0.960 . S
C3398 C3396 1.381 . S
C3398 C3399 1.394 . S
C3398 H3406 0.930 . S
C3399 C3398 1.394 . S
C3399 C3400 1.383 . S
C3399 H3407 0.929 . S
C3400 C3399 1.383 . S
C3400 C3401 1.377 . S
C3401 H3385 0.930 . S
C3401 C3400 1.377 . S
C3401 C3402 1.379 . S
C3402 H3386 0.931 . S
C3402 C3396 1.383 . S
C3402 C3401 1.379 . S
H3403 C3397 0.959 . S
H3404 C3397 0.961 . S
H3405 C3397 0.960 . S
H3406 C3398 0.930 . S
H3407 C3399 0.929 . S
H3408 C3416 0.929 . S
H3409 C3418 0.930 . S
H3410 C3420 0.930 . S
H3411 C3423 0.929 . S
H3412 C3426 0.930 . S
H3413 C3428 0.960 . S
H3414 C3428 0.960 . S
H3415 C3428 0.960 . S
C3416 H3408 0.929 . S
C3416 C3417 1.377 . S
C3416 C3418 1.384 . S
C3417 C3416 1.377 . S
C3417 C3423 1.390 . S
C3418 H3409 0.930 . S
C3418 C3416 1.384 . S
C3418 C3419 1.372 . S
C3419 C3418 1.372 . S
C3419 C3420 1.400 . S
C3419 C3424 1.490 . S
C3420 H3410 0.930 . S
C3420 C3419 1.400 . S
C3420 C3423 1.386 . S
H3421 C3437 0.930 . S
H3422 C3438 0.931 . S
C3423 H3411 0.929 . S
C3423 C3417 1.390 . S
C3423 C3420 1.386 . S
C3424 C3419 1.490 . S
C3424 C3426 1.395 . S
C3424 C3427 1.403 1_556 S
H3425 C3431 0.930 . S
C3426 H3412 0.930 . S
C3426 C3424 1.395 . S
C3426 C3429 1.403 . S
C3427 C3424 1.403 1_554 S
C3427 C3428 1.524 . S
C3427 C3431 1.400 . S
C3428 H3413 0.960 . S
C3428 H3414 0.960 . S
C3428 H3415 0.960 . S
C3428 C3427 1.524 . S
C3429 C3426 1.403 . S
C3429 C3430 1.392 1_556 S
C3429 C3433 1.495 . S
C3430 C3429 1.392 1_554 S
C3430 C3431 1.385 . S
C3430 C3432 1.478 . S
C3431 H3425 0.930 . S
C3431 C3427 1.400 . S
C3431 C3430 1.385 . S
C3432 C3430 1.478 . S
C3432 C3434 1.381 . S
C3432 C3438 1.383 . S
C3433 C3429 1.495 . S
C3433 H3439 0.959 . S
C3433 H3440 0.961 . S
C3433 H3441 0.960 . S
C3434 C3432 1.381 . S
C3434 C3435 1.394 . S
C3434 H3442 0.930 . S
C3435 C3434 1.394 . S
C3435 C3436 1.383 . S
C3435 H3443 0.929 . S
C3436 C3435 1.383 . S
C3436 C3437 1.377 . S
C3437 H3421 0.930 . S
C3437 C3436 1.377 . S
C3437 C3438 1.379 . S
C3438 H3422 0.931 . S
C3438 C3432 1.383 . S
C3438 C3437 1.379 . S
H3439 C3433 0.959 . S
H3440 C3433 0.961 . S
H3441 C3433 0.960 . S
H3442 C3434 0.930 . S
H3443 C3435 0.929 . S
H3444 C3452 0.929 . S
H3445 C3454 0.930 . S
H3446 C3456 0.930 . S
H3447 C3459 0.929 . S
H3448 C3462 0.930 . S
H3449 C3464 0.960 . S
H3450 C3464 0.960 . S
H3451 C3464 0.960 . S
C3452 H3444 0.929 . S
C3452 C3453 1.377 . S
C3452 C3454 1.384 . S
C3453 C3452 1.377 . S
C3453 C3459 1.390 . S
C3454 H3445 0.930 . S
C3454 C3452 1.384 . S
C3454 C3455 1.372 . S
C3455 C3454 1.372 . S
C3455 C3456 1.400 . S
C3455 C3460 1.490 . S
C3456 H3446 0.930 . S
C3456 C3455 1.400 . S
C3456 C3459 1.386 . S
H3457 C3473 0.930 . S
H3458 C3474 0.931 . S
C3459 H3447 0.929 . S
C3459 C3453 1.390 . S
C3459 C3456 1.386 . S
C3460 C3455 1.490 . S
C3460 C3462 1.395 . S
C3460 C3463 1.403 . S
H3461 C3467 0.930 . S
C3462 H3448 0.930 . S
C3462 C3460 1.395 . S
C3462 C3465 1.403 . S
C3463 C3460 1.403 . S
C3463 C3464 1.524 . S
C3463 C3467 1.400 . S
C3464 H3449 0.960 . S
C3464 H3450 0.960 . S
C3464 H3451 0.960 . S
C3464 C3463 1.524 . S
C3465 C3462 1.403 . S
C3465 C3466 1.392 . S
C3465 C3469 1.495 . S
C3466 C3465 1.392 . S
C3466 C3467 1.385 . S
C3466 C3468 1.478 . S
C3467 H3461 0.930 . S
C3467 C3463 1.400 . S
C3467 C3466 1.385 . S
C3468 C3466 1.478 . S
C3468 C3470 1.381 . S
C3468 C3474 1.383 . S
C3469 C3465 1.495 . S
C3469 H3475 0.959 . S
C3469 H3476 0.961 . S
C3469 H3477 0.960 . S
C3470 C3468 1.381 . S
C3470 C3471 1.394 . S
C3470 H3478 0.930 . S
C3471 C3470 1.394 . S
C3471 C3472 1.383 . S
C3471 H3479 0.929 . S
C3472 C3471 1.383 . S
C3472 C3473 1.377 . S
C3473 H3457 0.930 . S
C3473 C3472 1.377 . S
C3473 C3474 1.379 . S
C3474 H3458 0.931 . S
C3474 C3468 1.383 . S
C3474 C3473 1.379 . S
H3475 C3469 0.959 . S
H3476 C3469 0.961 . S
H3477 C3469 0.960 . S
H3478 C3470 0.930 . S
H3479 C3471 0.929 . S
H3480 C3488 0.929 . S
H3481 C3490 0.930 . S
H3482 C3492 0.930 1_554 S
H3483 C3495 0.929 . S
H3484 C3498 0.930 . S
H3485 C3500 0.960 . S
H3486 C3500 0.960 1_556 S
H3487 C3500 0.960 . S
C3488 H3480 0.929 . S
C3488 C3489 1.377 . S
C3488 C3490 1.384 . S
C3489 C3488 1.377 . S
C3489 C3495 1.390 . S
C3490 H3481 0.930 . S
C3490 C3488 1.384 . S
C3490 C3491 1.372 . S
C3491 C3490 1.372 . S
C3491 C3492 1.400 . S
C3491 C3496 1.490 . S
C3492 H3482 0.930 1_556 S
C3492 C3491 1.400 . S
C3492 C3495 1.386 . S
H3493 C3509 0.930 . S
H3494 C3510 0.931 . S
C3495 H3483 0.929 . S
C3495 C3489 1.390 . S
C3495 C3492 1.386 . S
C3496 C3491 1.490 . S
C3496 C3498 1.395 . S
C3496 C3499 1.399 1_556 S
H3497 C3503 0.930 . S
C3498 H3484 0.930 . S
C3498 C3496 1.395 . S
C3498 C3501 1.403 . S
C3499 C3496 1.399 1_554 S
C3499 C3500 1.524 . S
C3499 C3503 1.403 . S
C3500 H3485 0.960 . S
C3500 H3486 0.960 1_554 S
C3500 H3487 0.960 . S
C3500 C3499 1.524 . S
C3501 C3498 1.403 . S
C3501 C3502 1.392 1_556 S
C3501 C3505 1.495 . S
C3502 C3501 1.392 1_554 S
C3502 C3503 1.385 . S
C3502 C3504 1.478 . S
C3503 H3497 0.930 . S
C3503 C3499 1.403 . S
C3503 C3502 1.385 . S
C3504 C3502 1.478 . S
C3504 C3506 1.381 . S
C3504 C3510 1.383 . S
C3505 C3501 1.495 . S
C3505 H3511 0.959 . S
C3505 H3512 0.961 1_556 S
C3505 H3513 0.960 . S
C3506 C3504 1.381 . S
C3506 C3507 1.394 . S
C3506 H3514 0.930 1_554 S
C3507 C3506 1.394 . S
C3507 C3508 1.383 . S
C3507 H3515 0.929 . S
C3508 C3507 1.383 . S
C3508 C3509 1.377 . S
C3509 H3493 0.930 . S
C3509 C3508 1.377 . S
C3509 C3510 1.379 . S
C3510 H3494 0.931 . S
C3510 C3504 1.383 . S
C3510 C3509 1.379 . S
H3511 C3505 0.959 . S
H3512 C3505 0.961 1_554 S
H3513 C3505 0.960 . S
H3514 C3506 0.930 1_556 S
H3515 C3507 0.929 . S
H3516 C3524 0.929 . S
H3517 C3526 0.930 . S
H3518 C3528 0.930 . S
H3519 C3531 0.929 . S
H3520 C3534 0.930 . S
H3521 C3536 0.960 . S
H3522 C3536 0.960 . S
H3523 C3536 0.960 . S
C3524 H3516 0.929 . S
C3524 C3525 1.377 . S
C3524 C3526 1.384 . S
C3525 C3524 1.377 . S
C3525 C3531 1.390 . S
C3526 H3517 0.930 . S
C3526 C3524 1.384 . S
C3526 C3527 1.372 . S
C3527 C3526 1.372 . S
C3527 C3528 1.400 . S
C3527 C3532 1.490 . S
C3528 H3518 0.930 . S
C3528 C3527 1.400 . S
C3528 C3531 1.386 . S
H3529 C3545 0.930 . S
H3530 C3546 0.931 . S
C3531 H3519 0.929 . S
C3531 C3525 1.390 . S
C3531 C3528 1.386 . S
C3532 C3527 1.490 . S
C3532 C3534 1.395 . S
C3532 C3535 1.403 . S
H3533 C3539 0.930 . S
C3534 H3520 0.930 . S
C3534 C3532 1.395 . S
C3534 C3537 1.403 . S
C3535 C3532 1.403 . S
C3535 C3536 1.524 . S
C3535 C3539 1.400 . S
C3536 H3521 0.960 . S
C3536 H3522 0.960 . S
C3536 H3523 0.960 . S
C3536 C3535 1.524 . S
C3537 C3534 1.403 . S
C3537 C3538 1.392 . S
C3537 C3541 1.495 . S
C3538 C3537 1.392 . S
C3538 C3539 1.385 . S
C3538 C3540 1.478 . S
C3539 H3533 0.930 . S
C3539 C3535 1.400 . S
C3539 C3538 1.385 . S
C3540 C3538 1.478 . S
C3540 C3542 1.381 . S
C3540 C3546 1.383 . S
C3541 C3537 1.495 . S
C3541 H3547 0.959 . S
C3541 H3548 0.961 . S
C3541 H3549 0.960 . S
C3542 C3540 1.381 . S
C3542 C3543 1.394 . S
C3542 H3550 0.930 . S
C3543 C3542 1.394 . S
C3543 C3544 1.383 . S
C3543 H3551 0.929 . S
C3544 C3543 1.383 . S
C3544 C3545 1.377 . S
C3545 H3529 0.930 . S
C3545 C3544 1.377 . S
C3545 C3546 1.379 . S
C3546 H3530 0.931 . S
C3546 C3540 1.383 . S
C3546 C3545 1.379 . S
H3547 C3541 0.959 . S
H3548 C3541 0.961 . S
H3549 C3541 0.960 . S
H3550 C3542 0.930 . S
H3551 C3543 0.929 . S
H3552 C3560 0.929 . S
H3553 C3562 0.930 . S
H3554 C3564 0.930 1_554 S
H3555 C3567 0.929 . S
H3556 C3570 0.930 . S
H3557 C3572 0.960 . S
H3558 C3572 0.960 . S
H3559 C3572 0.960 . S
C3560 H3552 0.929 . S
C3560 C3561 1.377 . S
C3560 C3562 1.384 . S
C3561 C3560 1.377 . S
C3561 C3567 1.390 . S
C3562 H3553 0.930 . S
C3562 C3560 1.384 . S
C3562 C3563 1.372 . S
C3563 C3562 1.372 . S
C3563 C3564 1.400 . S
C3563 C3568 1.490 . S
C3564 H3554 0.930 1_556 S
C3564 C3563 1.400 . S
C3564 C3567 1.386 . S
H3565 C3581 0.930 . S
H3566 C3582 0.931 . S
C3567 H3555 0.929 . S
C3567 C3561 1.390 . S
C3567 C3564 1.386 . S
C3568 C3563 1.490 . S
C3568 C3570 1.395 . S
C3568 C3571 1.403 1_556 S
H3569 C3575 0.930 . S
C3570 H3556 0.930 . S
C3570 C3568 1.395 . S
C3570 C3573 1.403 . S
C3571 C3568 1.403 1_554 S
C3571 C3572 1.524 . S
C3571 C3575 1.400 . S
C3572 H3557 0.960 . S
C3572 H3558 0.960 . S
C3572 H3559 0.960 . S
C3572 C3571 1.524 . S
C3573 C3570 1.403 . S
C3573 C3574 1.392 1_556 S
C3573 C3577 1.495 . S
C3574 C3573 1.392 1_554 S
C3574 C3575 1.385 . S
C3574 C3576 1.478 . S
C3575 H3569 0.930 . S
C3575 C3571 1.400 . S
C3575 C3574 1.385 . S
C3576 C3574 1.478 . S
C3576 C3578 1.381 . S
C3576 C3582 1.383 . S
C3577 C3573 1.495 . S
C3577 H3583 0.959 . S
C3577 H3584 0.961 . S
C3577 H3585 0.960 . S
C3578 C3576 1.381 . S
C3578 C3579 1.394 . S
C3578 H3586 0.930 1_554 S
C3579 C3578 1.394 . S
C3579 C3580 1.383 . S
C3579 H3587 0.929 . S
C3580 C3579 1.383 . S
C3580 C3581 1.377 . S
C3581 H3565 0.930 . S
C3581 C3580 1.377 . S
C3581 C3582 1.379 . S
C3582 H3566 0.931 . S
C3582 C3576 1.383 . S
C3582 C3581 1.379 . S
H3583 C3577 0.959 . S
H3584 C3577 0.961 . S
H3585 C3577 0.960 . S
H3586 C3578 0.930 1_556 S
H3587 C3579 0.929 . S
H3588 C3596 0.929 . S
H3589 C3598 0.930 . S
H3590 C3600 0.930 . S
H3591 C3603 0.929 . S
H3592 C3606 0.930 . S
H3593 C3608 0.960 . S
H3594 C3608 0.960 . S
H3595 C3608 0.960 . S
C3596 H3588 0.929 . S
C3596 C3597 1.377 . S
C3596 C3598 1.384 . S
C3597 C3596 1.377 . S
C3597 C3603 1.390 . S
C3598 H3589 0.930 . S
C3598 C3596 1.384 . S
C3598 C3599 1.372 . S
C3599 C3598 1.372 . S
C3599 C3600 1.400 . S
C3599 C3604 1.490 . S
C3600 H3590 0.930 . S
C3600 C3599 1.400 . S
C3600 C3603 1.386 . S
H3601 C3617 0.930 . S
H3602 C3618 0.931 . S
C3603 H3591 0.929 . S
C3603 C3597 1.390 . S
C3603 C3600 1.386 . S
C3604 C3599 1.490 . S
C3604 C3606 1.395 . S
C3604 C3607 1.403 . S
H3605 C3611 0.930 . S
C3606 H3592 0.930 . S
C3606 C3604 1.395 . S
C3606 C3609 1.403 . S
C3607 C3604 1.403 . S
C3607 C3608 1.524 . S
C3607 C3611 1.400 . S
C3608 H3593 0.960 . S
C3608 H3594 0.960 . S
C3608 H3595 0.960 . S
C3608 C3607 1.524 . S
C3609 C3606 1.403 . S
C3609 C3610 1.392 . S
C3609 C3613 1.495 . S
C3610 C3609 1.392 . S
C3610 C3611 1.385 . S
C3610 C3612 1.478 . S
C3611 H3605 0.930 . S
C3611 C3607 1.400 . S
C3611 C3610 1.385 . S
C3612 C3610 1.478 . S
C3612 C3614 1.381 . S
C3612 C3618 1.383 . S
C3613 C3609 1.495 . S
C3613 H3619 0.959 . S
C3613 H3620 0.961 . S
C3613 H3621 0.960 . S
C3614 C3612 1.381 . S
C3614 C3615 1.394 . S
C3614 H3622 0.930 . S
C3615 C3614 1.394 . S
C3615 C3616 1.383 . S
C3615 H3623 0.929 . S
C3616 C3615 1.383 . S
C3616 C3617 1.377 . S
C3617 H3601 0.930 . S
C3617 C3616 1.377 . S
C3617 C3618 1.379 . S
C3618 H3602 0.931 . S
C3618 C3612 1.383 . S
C3618 C3617 1.379 . S
H3619 C3613 0.959 . S
H3620 C3613 0.961 . S
H3621 C3613 0.960 . S
H3622 C3614 0.930 . S
H3623 C3615 0.929 . S
H3624 C3632 0.929 . S
H3625 C3634 0.930 1_556 S
H3626 C3636 0.930 . S
H3627 C3639 0.929 . S
H3628 C3642 0.929 . S
H3629 C3644 0.960 . S
H3630 C3644 0.960 . S
H3631 C3644 0.960 . S
C3632 H3624 0.929 . S
C3632 C3633 1.377 . S
C3632 C3634 1.384 . S
C3633 C3632 1.377 . S
C3633 C3639 1.390 . S
C3634 H3625 0.930 1_554 S
C3634 C3632 1.384 . S
C3634 C3635 1.372 . S
C3635 C3634 1.372 . S
C3635 C3636 1.400 . S
C3635 C3640 1.490 . S
C3636 H3626 0.930 . S
C3636 C3635 1.400 . S
C3636 C3639 1.386 . S
H3637 C3653 0.930 . S
H3638 C3654 0.931 1_554 S
C3639 H3627 0.929 . S
C3639 C3633 1.390 . S
C3639 C3636 1.386 . S
C3640 C3635 1.490 . S
C3640 C3642 1.384 1_554 S
C3640 C3643 1.403 . S
H3641 C3647 0.930 . S
C3642 H3628 0.929 . S
C3642 C3640 1.384 1_556 S
C3642 C3645 1.415 . S
C3643 C3640 1.403 . S
C3643 C3644 1.524 . S
C3643 C3647 1.400 1_554 S
C3644 H3629 0.960 . S
C3644 H3630 0.960 . S
C3644 H3631 0.960 . S
C3644 C3643 1.524 . S
C3645 C3642 1.415 . S
C3645 C3646 1.392 . S
C3645 C3649 1.495 . S
C3646 C3645 1.392 . S
C3646 C3647 1.385 . S
C3646 C3648 1.478 . S
C3647 H3641 0.930 . S
C3647 C3643 1.400 1_556 S
C3647 C3646 1.385 . S
C3648 C3646 1.478 . S
C3648 C3650 1.381 . S
C3648 C3654 1.383 . S
C3649 C3645 1.495 . S
C3649 H3655 0.959 . S
C3649 H3656 0.961 . S
C3649 H3657 0.960 . S
C3650 C3648 1.381 . S
C3650 C3651 1.394 . S
C3650 H3658 0.930 . S
C3651 C3650 1.394 . S
C3651 C3652 1.383 . S
C3651 H3659 0.929 . S
C3652 C3651 1.383 . S
C3652 C3653 1.377 . S
C3653 H3637 0.930 . S
C3653 C3652 1.377 . S
C3653 C3654 1.379 . S
C3654 H3638 0.931 1_556 S
C3654 C3648 1.383 . S
C3654 C3653 1.379 . S
H3655 C3649 0.959 . S
H3656 C3649 0.961 . S
H3657 C3649 0.960 . S
H3658 C3650 0.930 . S
H3659 C3651 0.929 . S
H3660 C3668 0.929 . S
H3661 C3670 0.930 . S
H3662 C3672 0.930 . S
H3663 C3675 0.929 . S
H3664 C3678 0.930 . S
H3665 C3680 0.960 . S
H3666 C3680 0.960 . S
H3667 C3680 0.960 . S
C3668 H3660 0.929 . S
C3668 C3669 1.377 . S
C3668 C3670 1.384 . S
C3669 C3668 1.377 . S
C3669 C3675 1.390 . S
C3670 H3661 0.930 . S
C3670 C3668 1.384 . S
C3670 C3671 1.372 . S
C3671 C3670 1.372 . S
C3671 C3672 1.400 . S
C3671 C3676 1.490 . S
C3672 H3662 0.930 . S
C3672 C3671 1.400 . S
C3672 C3675 1.386 . S
H3673 C3689 0.930 . S
H3674 C3690 0.931 . S
C3675 H3663 0.929 . S
C3675 C3669 1.390 . S
C3675 C3672 1.386 . S
C3676 C3671 1.490 . S
C3676 C3678 1.395 . S
C3676 C3679 1.403 . S
H3677 C3683 0.930 . S
C3678 H3664 0.930 . S
C3678 C3676 1.395 . S
C3678 C3681 1.403 . S
C3679 C3676 1.403 . S
C3679 C3680 1.524 . S
C3679 C3683 1.400 . S
C3680 H3665 0.960 . S
C3680 H3666 0.960 . S
C3680 H3667 0.960 . S
C3680 C3679 1.524 . S
C3681 C3678 1.403 . S
C3681 C3682 1.392 . S
C3681 C3685 1.495 . S
C3682 C3681 1.392 . S
C3682 C3683 1.385 . S
C3682 C3684 1.478 . S
C3683 H3677 0.930 . S
C3683 C3679 1.400 . S
C3683 C3682 1.385 . S
C3684 C3682 1.478 . S
C3684 C3686 1.381 . S
C3684 C3690 1.383 . S
C3685 C3681 1.495 . S
C3685 H3691 0.959 . S
C3685 H3692 0.961 . S
C3685 H3693 0.960 . S
C3686 C3684 1.381 . S
C3686 C3687 1.394 . S
C3686 H3694 0.930 . S
C3687 C3686 1.394 . S
C3687 C3688 1.383 . S
C3687 H3695 0.929 . S
C3688 C3687 1.383 . S
C3688 C3689 1.377 . S
C3689 H3673 0.930 . S
C3689 C3688 1.377 . S
C3689 C3690 1.379 . S
C3690 H3674 0.931 . S
C3690 C3684 1.383 . S
C3690 C3689 1.379 . S
H3691 C3685 0.959 . S
H3692 C3685 0.961 . S
H3693 C3685 0.960 . S
H3694 C3686 0.930 . S
H3695 C3687 0.929 . S
H3696 C3704 0.929 . S
H3697 C3706 0.930 . S
H3698 C3708 0.930 1_556 S
H3699 C3711 0.929 . S
H3700 C3714 0.930 . S
H3701 C3716 0.960 . S
H3702 C3716 0.960 . S
H3703 C3716 0.960 . S
C3704 H3696 0.929 . S
C3704 C3705 1.377 . S
C3704 C3706 1.384 . S
C3705 C3704 1.377 . S
C3705 C3711 1.390 . S
C3706 H3697 0.930 . S
C3706 C3704 1.384 . S
C3706 C3707 1.372 . S
C3707 C3706 1.372 . S
C3707 C3708 1.400 . S
C3707 C3712 1.490 . S
C3708 H3698 0.930 1_554 S
C3708 C3707 1.400 . S
C3708 C3711 1.386 . S
H3709 C3725 0.930 . S
H3710 C3726 0.931 . S
C3711 H3699 0.929 . S
C3711 C3705 1.390 . S
C3711 C3708 1.386 . S
C3712 C3707 1.490 . S
C3712 C3714 1.395 . S
C3712 C3715 1.403 1_554 S
H3713 C3719 0.930 . S
C3714 H3700 0.930 . S
C3714 C3712 1.395 . S
C3714 C3717 1.403 . S
C3715 C3712 1.403 1_556 S
C3715 C3716 1.524 . S
C3715 C3719 1.400 . S
C3716 H3701 0.960 . S
C3716 H3702 0.960 . S
C3716 H3703 0.960 . S
C3716 C3715 1.524 . S
C3717 C3714 1.403 . S
C3717 C3718 1.392 1_554 S
C3717 C3721 1.495 . S
C3718 C3717 1.392 1_556 S
C3718 C3719 1.385 . S
C3718 C3720 1.478 . S
C3719 H3713 0.930 . S
C3719 C3715 1.400 . S
C3719 C3718 1.385 . S
C3720 C3718 1.478 . S
C3720 C3722 1.381 . S
C3720 C3726 1.383 . S
C3721 C3717 1.495 . S
C3721 H3727 0.959 . S
C3721 H3728 0.961 . S
C3721 H3729 0.960 . S
C3722 C3720 1.381 . S
C3722 C3723 1.394 . S
C3722 H3730 0.930 1_556 S
C3723 C3722 1.394 . S
C3723 C3724 1.383 . S
C3723 H3731 0.929 . S
C3724 C3723 1.383 . S
C3724 C3725 1.377 . S
C3725 H3709 0.930 . S
C3725 C3724 1.377 . S
C3725 C3726 1.379 . S
C3726 H3710 0.931 . S
C3726 C3720 1.383 . S
C3726 C3725 1.379 . S
H3727 C3721 0.959 . S
H3728 C3721 0.961 . S
H3729 C3721 0.960 . S
H3730 C3722 0.930 1_554 S
H3731 C3723 0.929 . S
H3732 C3740 0.929 . S
H3733 C3742 0.930 . S
H3734 C3744 0.930 . S
H3735 C3747 0.929 . S
H3736 C3750 0.930 . S
H3737 C3752 0.960 . S
H3738 C3752 0.960 . S
H3739 C3752 0.960 . S
C3740 H3732 0.929 . S
C3740 C3741 1.377 . S
C3740 C3742 1.384 . S
C3741 C3740 1.377 . S
C3741 C3747 1.390 . S
C3742 H3733 0.930 . S
C3742 C3740 1.384 . S
C3742 C3743 1.372 . S
C3743 C3742 1.372 . S
C3743 C3744 1.400 . S
C3743 C3748 1.490 . S
C3744 H3734 0.930 . S
C3744 C3743 1.400 . S
C3744 C3747 1.386 . S
H3745 C3761 0.930 . S
H3746 C3762 0.931 . S
C3747 H3735 0.929 . S
C3747 C3741 1.390 . S
C3747 C3744 1.386 . S
C3748 C3743 1.490 . S
C3748 C3750 1.395 . S
C3748 C3751 1.403 . S
H3749 C3755 0.930 . S
C3750 H3736 0.930 . S
C3750 C3748 1.395 . S
C3750 C3753 1.403 . S
C3751 C3748 1.403 . S
C3751 C3752 1.524 . S
C3751 C3755 1.400 . S
C3752 H3737 0.960 . S
C3752 H3738 0.960 . S
C3752 H3739 0.960 . S
C3752 C3751 1.524 . S
C3753 C3750 1.403 . S
C3753 C3754 1.392 . S
C3753 C3757 1.495 . S
C3754 C3753 1.392 . S
C3754 C3755 1.385 . S
C3754 C3756 1.478 . S
C3755 H3749 0.930 . S
C3755 C3751 1.400 . S
C3755 C3754 1.385 . S
C3756 C3754 1.478 . S
C3756 C3758 1.381 . S
C3756 C3762 1.383 . S
C3757 C3753 1.495 . S
C3757 H3763 0.959 . S
C3757 H3764 0.961 . S
C3757 H3765 0.960 . S
C3758 C3756 1.381 . S
C3758 C3759 1.394 . S
C3758 H3766 0.930 . S
C3759 C3758 1.394 . S
C3759 C3760 1.383 . S
C3759 H3767 0.929 . S
C3760 C3759 1.383 . S
C3760 C3761 1.377 . S
C3761 H3745 0.930 . S
C3761 C3760 1.377 . S
C3761 C3762 1.379 . S
C3762 H3746 0.931 . S
C3762 C3756 1.383 . S
C3762 C3761 1.379 . S
H3763 C3757 0.959 . S
H3764 C3757 0.961 . S
H3765 C3757 0.960 . S
H3766 C3758 0.930 . S
H3767 C3759 0.929 . S
H3768 C3776 0.929 . S
H3769 C3778 0.930 . S
H3770 C3780 0.930 1_554 S
H3771 C3783 0.929 . S
H3772 C3786 0.930 . S
H3773 C3788 0.963 1_554 S
H3774 C3788 0.954 . S
H3775 C3788 0.963 1_554 S
C3776 H3768 0.929 . S
C3776 C3777 1.377 . S
C3776 C3778 1.384 . S
C3777 C3776 1.377 . S
C3777 C3783 1.390 . S
C3778 H3769 0.930 . S
C3778 C3776 1.384 . S
C3778 C3779 1.372 . S
C3779 C3778 1.372 . S
C3779 C3780 1.400 . S
C3779 C3784 1.490 . S
C3780 H3770 0.930 1_556 S
C3780 C3779 1.400 . S
C3780 C3783 1.386 . S
H3781 C3797 0.930 . S
H3782 C3798 0.931 . S
C3783 H3771 0.929 . S
C3783 C3777 1.390 . S
C3783 C3780 1.386 . S
C3784 C3779 1.490 . S
C3784 C3786 1.395 . S
C3784 C3787 1.415 . S
H3785 C3791 0.930 . S
C3786 H3772 0.930 . S
C3786 C3784 1.395 . S
C3786 C3789 1.403 . S
C3787 C3784 1.415 . S
C3787 C3788 1.523 . S
C3787 C3791 1.389 1_556 S
C3788 H3773 0.963 1_556 S
C3788 H3774 0.954 . S
C3788 H3775 0.963 1_556 S
C3788 C3787 1.523 . S
C3789 C3786 1.403 . S
C3789 C3790 1.392 1_556 S
C3789 C3793 1.495 . S
C3790 C3789 1.392 1_554 S
C3790 C3791 1.385 . S
C3790 C3792 1.478 . S
C3791 H3785 0.930 . S
C3791 C3787 1.389 1_554 S
C3791 C3790 1.385 . S
C3792 C3790 1.478 . S
C3792 C3794 1.381 . S
C3792 C3798 1.383 . S
C3793 C3789 1.495 . S
C3793 H3799 0.959 . S
C3793 H3800 0.961 1_556 S
C3793 H3801 0.960 . S
C3794 C3792 1.381 . S
C3794 C3795 1.394 . S
C3794 H3802 0.930 1_554 S
C3795 C3794 1.394 . S
C3795 C3796 1.383 . S
C3795 H3803 0.929 . S
C3796 C3795 1.383 . S
C3796 C3797 1.377 . S
C3797 H3781 0.930 . S
C3797 C3796 1.377 . S
C3797 C3798 1.379 . S
C3798 H3782 0.931 . S
C3798 C3792 1.383 . S
C3798 C3797 1.379 . S
H3799 C3793 0.959 . S
H3800 C3793 0.961 1_554 S
H3801 C3793 0.960 . S
H3802 C3794 0.930 1_556 S
H3803 C3795 0.929 . S
H3804 C3812 0.929 . S
H3805 C3814 0.930 . S
H3806 C3816 0.930 . S
H3807 C3819 0.929 . S
H3808 C3822 0.930 . S
H3809 C3824 0.960 . S
H3810 C3824 0.960 . S
H3811 C3824 0.960 . S
C3812 H3804 0.929 . S
C3812 C3813 1.377 . S
C3812 C3814 1.384 . S
C3813 C3812 1.377 . S
C3813 C3819 1.390 . S
C3814 H3805 0.930 . S
C3814 C3812 1.384 . S
C3814 C3815 1.372 . S
C3815 C3814 1.372 . S
C3815 C3816 1.400 . S
C3815 C3820 1.490 . S
C3816 H3806 0.930 . S
C3816 C3815 1.400 . S
C3816 C3819 1.386 . S
H3817 C3833 0.930 . S
H3818 C3834 0.931 . S
C3819 H3807 0.929 . S
C3819 C3813 1.390 . S
C3819 C3816 1.386 . S
C3820 C3815 1.490 . S
C3820 C3822 1.395 . S
C3820 C3823 1.403 . S
H3821 C3827 0.930 . S
C3822 H3808 0.930 . S
C3822 C3820 1.395 . S
C3822 C3825 1.403 . S
C3823 C3820 1.403 . S
C3823 C3824 1.524 . S
C3823 C3827 1.400 . S
C3824 H3809 0.960 . S
C3824 H3810 0.960 . S
C3824 H3811 0.960 . S
C3824 C3823 1.524 . S
C3825 C3822 1.403 . S
C3825 C3826 1.392 . S
C3825 C3829 1.495 . S
C3826 C3825 1.392 . S
C3826 C3827 1.385 . S
C3826 C3828 1.478 . S
C3827 H3821 0.930 . S
C3827 C3823 1.400 . S
C3827 C3826 1.385 . S
C3828 C3826 1.478 . S
C3828 C3830 1.381 . S
C3828 C3834 1.383 . S
C3829 C3825 1.495 . S
C3829 H3835 0.959 . S
C3829 H3836 0.961 . S
C3829 H3837 0.960 . S
C3830 C3828 1.381 . S
C3830 C3831 1.394 . S
C3830 H3838 0.930 . S
C3831 C3830 1.394 . S
C3831 C3832 1.383 . S
C3831 H3839 0.929 . S
C3832 C3831 1.383 . S
C3832 C3833 1.377 . S
C3833 H3817 0.930 . S
C3833 C3832 1.377 . S
C3833 C3834 1.379 . S
C3834 H3818 0.931 . S
C3834 C3828 1.383 . S
C3834 C3833 1.379 . S
H3835 C3829 0.959 . S
H3836 C3829 0.961 . S
H3837 C3829 0.960 . S
H3838 C3830 0.930 . S
H3839 C3831 0.929 . S
C2121 C20 1.516 . S
C2140 C1369 1.520 . S
C2157 C117 1.517 . S
C2176 C1457 1.507 . S
C2193 C1553 1.517 . S
C2212 C205 1.505 . S
C2229 C1105 1.518 . S
C2248 C293 1.512 . S
C2265 C1164 1.516 . S
C2284 C372 1.520 . S
C2301 C1281 1.519 . S
C2320 C460 1.512 . S
C2337 C1868 1.516 . S
C2356 C577 1.519 . S
C2373 C665 1.514 . S
C2392 C1965 1.513 . S
C2409 C2044 1.518 . S
C2428 C753 1.504 . S
C2445 C841 1.517 . S
C2464 C1641 1.515 . S
C2481 C1701 1.517 . S
C2500 C929 1.521 . S
C2517 C1025 1.516 . S
C2536 C1789 1.519 . S
C2553 C909 0.672 . S
C2572 C57 0.692 . S
C2589 C988 0.674 . S
C2608 C137 0.696 . S
C2625 C225 0.675 . S
C2644 C557 0.696 . S
C2661 C313 0.676 . S
C2680 C645 0.687 . S
C2697 C733 0.672 . S
C2716 C409 0.658 . S
C2733 C497 0.668 . S
C2752 C821 0.647 . S
C2769 C1956 0.656 . S
C2788 C1113 0.641 . S
C2805 C1173 0.650 . S
C2824 C2053 0.681 . S
C2841 C1289 0.660 . S
C2860 C1633 0.630 . S
C2877 C1692 0.654 . S
C2896 C1377 0.670 . S
C2913 C1465 0.655 . S
C2932 C1780 0.669 . S
C2949 C1545 0.652 . S
C2968 C1877 0.677 . S
C2985 C29 0.996 . S
C3004 C1604 1.019 . S
C3021 C1721 1.004 . S
C3040 C108 1.005 . S
C3057 C196 0.996 . S
C3076 C1809 1.008 . S
C3093 C284 1.006 . S
C3112 C1905 0.984 . S
C3129 C1985 0.997 . S
C3148 C381 0.994 . S
C3165 C469 1.000 . S
C3184 C2081 1.021 . S
C3201 C585 0.996 . S
C3220 C1085 1.021 . S
C3237 C673 0.998 . S
C3256 C1201 1.024 . S
C3273 C1261 1.005 . S
C3292 C761 0.999 . S
C3309 C1349 0.999 . S
C3328 C849 0.984 . S
C3345 C937 0.999 . S
C3364 C1437 1.023 . S
C3381 C1516 0.996 . S
C3400 C1017 1.019 . S
C3417 C548 1.656 . S
C3436 C49 1.652 . S
C3453 C145 1.655 . S
C3472 C636 1.654 . S
C3489 C724 1.655 . S
C3508 C233 1.646 . S
C3525 C812 1.654 . S
C3544 C321 1.648 . S
C3561 C900 1.656 . S
C3580 C401 1.650 . S
C3597 C489 1.656 . S
C3616 C997 1.650 . S
C3633 C1613 1.650 . S
C3652 C1076 1.640 . S
C3669 C1193 1.651 . S
C3688 C1729 1.647 . S
C3705 C1817 1.648 . S
C3724 C1252 1.650 . S
C3741 C1897 1.649 . S
C3760 C1340 1.652 . S
C3777 C1428 1.649 . S
C3796 C1993 1.652 . S
C3813 C1525 1.651 . S
C3832 C2073 1.642 . S
