# Generated by pormake.
# Topology oob, (7)-cn, num edge types: 1
# Building blocks:
#     Node 0, Type 0, BuildingBlock: HICVOG_clean_sbu_0, # of connection points: 7
#     Node 1, Type 0, BuildingBlock: HICVOG_clean_sbu_0, # of connection points: 7
#     Node 2, Type 0, BuildingBlock: HICVOG_clean_sbu_0, # of connection points: 7
#     Node 3, Type 0, BuildingBlock: HICVOG_clean_sbu_0, # of connection points: 7
#     Edge 4, Type (0, 0), BuildingBlock: FUNLAD_clean_linker_1, # of connection points: 2
#     Edge 5, Type (0, 0), BuildingBlock: FUNLAD_clean_linker_1, # of connection points: 2
#     Edge 6, Type (0, 0), BuildingBlock: FUNLAD_clean_linker_1, # of connection points: 2
#     Edge 7, Type (0, 0), BuildingBlock: FUNLAD_clean_linker_1, # of connection points: 2
#     Edge 8, Type (0, 0), BuildingBlock: FUNLAD_clean_linker_1, # of connection points: 2
#     Edge 9, Type (0, 0), BuildingBlock: FUNLAD_clean_linker_1, # of connection points: 2
#     Edge 10, Type (0, 0), BuildingBlock: FUNLAD_clean_linker_1, # of connection points: 2
#     Edge 11, Type (0, 0), BuildingBlock: FUNLAD_clean_linker_1, # of connection points: 2
#     Edge 12, Type (0, 0), BuildingBlock: FUNLAD_clean_linker_1, # of connection points: 2
#     Edge 13, Type (0, 0), BuildingBlock: FUNLAD_clean_linker_1, # of connection points: 2
#     Edge 14, Type (0, 0), BuildingBlock: FUNLAD_clean_linker_1, # of connection points: 2
#     Edge 15, Type (0, 0), BuildingBlock: FUNLAD_clean_linker_1, # of connection points: 2
#     Edge 16, Type (0, 0), BuildingBlock: FUNLAD_clean_linker_1, # of connection points: 2
#     Edge 17, Type (0, 0), BuildingBlock: FUNLAD_clean_linker_1, # of connection points: 2
# Relax obj value: 0.263
# Max RMSD: 0.255
# Mean RMSD: 0.255
data_MOF--net-oob--node1-HICVOG_clean_sbu_0--edge1-FUNLAD_clean_linker_1
_symmetry_space_group_name_H-M    P1
_symmetry_Int_Tables_number       1
_symmetry_cell_setting            triclinic
loop_
_symmetry_equiv_pos_as_xyz
'x, y, z'
_cell_length_a     17.937129
_cell_length_b     41.085059
_cell_length_c     28.241283
_cell_angle_alpha  89.848984
_cell_angle_beta   106.52477
_cell_angle_gamma 90.615757
loop_
_atom_site_label
_atom_site_type_symbol
_atom_site_fract_x
_atom_site_fract_y
_atom_site_fract_z
_atom_type_partial_charge
Zn0 Zn 0.27072 0.04952 0.80954 0.0
C1 C 0.16505 1.0134 0.90741 0.0
N2 N 0.21524 0.03409 0.9374 0.0
C3 C 0.25565 0.04617 0.9079 0.0
N4 N 0.23149 0.03354 0.86208 0.0
N5 N 0.17396 1.01292 0.86153 0.0
C6 C 0.9754 1.01107 0.80684 0.0
O7 O 0.01769 0.03712 0.80539 0.0
O8 O 0.38442 0.03882 0.82262 0.0
Zn9 Zn 0.11951 0.9829 0.81001 0.0
N10 N 0.25564 0.09624 0.80871 0.0
C11 C 0.16339 0.13722 0.80943 0.0
C12 C 0.18253 0.10459 0.80862 0.0
C13 C 0.31104 0.11942 0.80938 0.0
N14 N 0.21808 0.16032 0.8099 0.0
C15 C 0.29174 0.15258 0.80983 0.0
O16 O 0.12349 0.99467 0.74101 0.0
C17 C 0.15979 1.01316 0.7186 0.0
O18 O 0.21318 0.03278 0.74151 0.0
H19 H 0.13953 0.08585 0.8082 0.0
H20 H 0.36891 0.11217 0.80946 0.0
C21 C 0.13065 0.91167 0.80683 0.0
C22 C 0.16861 0.88191 0.82179 0.0
C23 C 0.27198 0.91057 0.87819 0.0
C24 C 0.23468 0.93986 0.86305 0.0
N25 N 0.16477 0.94002 0.82787 0.0
N26 N 0.23835 0.88246 0.85726 0.0
H27 H 0.07526 0.91235 0.77866 0.0
C28 C 0.40369 1.00917 0.82174 0.0
O29 O 0.34962 0.98642 0.81358 0.0
O30 O 1.00569 0.98311 0.80793 0.0
H31 H 0.26184 0.96235 0.87922 0.0
H32 H 0.10546 0.1442 0.80953 0.0
H33 H 0.32754 0.91016 0.90618 0.0
Zn34 Zn 0.78352 0.05218 0.24985 0.0
C35 C 0.85992 1.00797 0.14504 0.0
N36 N 0.80449 0.02632 0.11535 0.0
C37 C 0.77391 0.04145 0.14739 0.0
N38 N 0.80854 0.03258 0.19443 0.0
N39 N 0.86366 1.01168 0.1931 0.0
C40 C 0.06367 1.01021 0.2365 0.0
O41 O 0.02046 0.03611 0.23346 0.0
O42 O 0.66975 0.04411 0.24449 0.0
Zn43 Zn 0.92289 0.98314 0.24467 0.0
N44 N 0.80967 0.09786 0.24662 0.0
C45 C 0.9081 0.13308 0.23374 0.0
C46 C 0.88017 0.10197 0.23836 0.0
C47 C 0.7656 0.12391 0.25115 0.0
N48 N 0.86474 0.15903 0.2382 0.0
C49 C 0.79435 0.15566 0.24703 0.0
O50 O 0.92912 0.99659 0.31472 0.0
C51 C 0.89852 0.01615 0.33853 0.0
O52 O 0.84603 0.03608 0.31692 0.0
H53 H 0.91431 0.08103 0.23517 0.0
H54 H 0.70972 0.11978 0.25766 0.0
C55 C 0.90367 0.9118 0.24976 0.0
C56 C 0.85855 0.88298 0.23923 0.0
C57 C 0.75056 0.91376 0.19347 0.0
C58 C 0.79478 0.94212 0.20453 0.0
N59 N 0.87057 0.94079 0.23198 0.0
N60 N 0.78323 0.88504 0.21109 0.0
H61 H 0.9636 0.91128 0.27225 0.0
C62 C 0.65251 1.01568 0.25632 0.0
O63 O 0.70776 0.99407 0.27063 0.0
O64 O 0.03461 0.98233 0.24098 0.0
H65 H 0.76808 0.96511 0.19158 0.0
H66 H 0.96395 0.13665 0.22685 0.0
H67 H 0.69038 0.91457 0.17153 0.0
Zn68 Zn 0.73842 0.55507 0.31096 0.0
C69 C 0.69183 0.50712 0.42542 0.0
N70 N 0.7454 0.52781 0.45214 0.0
C71 C 0.76806 0.54403 0.41735 0.0
N72 N 0.73023 0.5338 0.37113 0.0
N73 N 0.68144 0.51046 0.37634 0.0
C74 C 0.4671 0.49464 0.323 0.0
O75 O 0.48753 0.52157 0.30452 0.0
O76 O 0.85022 0.55543 0.3094 0.0
Zn77 Zn 0.62273 0.47976 0.32725 0.0
N78 N 0.70595 0.59922 0.31634 0.0
C79 C 0.60787 0.63252 0.33167 0.0
C80 C 0.63618 0.60188 0.32583 0.0
C81 C 0.74924 0.62605 0.31249 0.0
N82 N 0.65043 0.6593 0.32758 0.0
C83 C 0.72057 0.65721 0.31818 0.0
O84 O 0.60204 0.49398 0.25611 0.0
C85 C 0.62015 0.51476 0.2277 0.0
O86 O 0.66969 0.53747 0.24442 0.0
H87 H 0.60311 0.58023 0.32903 0.0
H88 H 0.80443 0.62285 0.30492 0.0
C89 C 0.64633 0.41002 0.32143 0.0
C90 C 0.69155 0.38167 0.33082 0.0
C91 C 0.80198 0.41364 0.37205 0.0
C92 C 0.75708 0.44157 0.36263 0.0
N93 N 0.68031 0.43935 0.33752 0.0
N94 N 0.76837 0.38448 0.35596 0.0
H95 H 0.58507 0.40884 0.30163 0.0
C96 C 0.88983 0.52952 0.3167 0.0
O97 O 0.85741 0.50212 0.32507 0.0
O98 O 0.5165 0.47206 0.33657 0.0
H99 H 0.78338 0.46487 0.37548 0.0
H100 H 0.55243 0.63505 0.3393 0.0
H101 H 0.8631 0.41508 0.39201 0.0
Zn102 Zn 0.27948 0.55159 0.75622 0.0
C103 C 0.35783 0.51368 0.64676 0.0
N104 N 0.30593 0.53393 0.61844 0.0
C105 C 0.27273 0.54693 0.65084 0.0
N106 N 0.30262 0.53504 0.69715 0.0
N107 N 0.35709 0.51412 0.69433 0.0
C108 C 0.56304 0.50599 0.75102 0.0
O109 O 0.53029 0.52974 0.76855 0.0
O110 O 0.16532 0.54351 0.75164 0.0
Zn111 Zn 0.41259 0.48237 0.74169 0.0
N112 N 0.30616 0.59745 0.75663 0.0
C113 C 0.4123 0.63224 0.75537 0.0
C114 C 0.38147 0.60125 0.75662 0.0
C115 C 0.25958 0.62369 0.7556 0.0
N116 N 0.36664 0.65837 0.75455 0.0
C117 C 0.29111 0.65534 0.75475 0.0
O118 O 0.42486 0.49437 0.81289 0.0
C119 C 0.40009 0.51316 0.84069 0.0
O120 O 0.3472 0.53407 0.82314 0.0
H121 H 0.41712 0.5801 0.75724 0.0
H122 H 0.19978 0.6198 0.75534 0.0
C123 C 0.38191 0.411 0.74032 0.0
C124 C 0.33204 0.38363 0.72587 0.0
C125 C 0.23062 0.41857 0.6828 0.0
C126 C 0.27923 0.44539 0.69748 0.0
N127 N 0.35405 0.44135 0.72547 0.0
N128 N 0.25805 0.38853 0.69727 0.0
H129 H 0.44137 0.40844 0.7628 0.0
C130 C 0.14456 0.51425 0.75657 0.0
O131 O 0.19734 0.4914 0.7661 0.0
O132 O 0.52345 0.48021 0.73559 0.0
H133 H 0.2567 0.46934 0.6866 0.0
H134 H 0.4721 0.63558 0.75515 0.0
H135 H 0.17122 0.42157 0.66033 0.0
H136 H 0.87502 0.03993 0.8107 0.0
C137 C 0.89509 1.01517 0.80931 0.0
H138 H 0.86627 0.96525 0.81004 0.0
H139 H 0.5985 0.98916 0.91192 0.0
H140 H 0.68652 0.9542 0.97114 0.0
H141 H 0.81149 0.93776 0.95879 0.0
H142 H 0.85051 0.95703 0.88814 0.0
C143 C 0.84651 0.99016 0.81 0.0
C144 C 0.76634 0.99616 0.81367 0.0
C145 C 0.74418 0.98442 0.85505 0.0
C146 C 0.6711 0.99321 0.86154 0.0
C147 C 0.65204 0.98235 0.90433 0.0
C148 C 0.70218 0.96239 0.93874 0.0
C149 C 0.77259 0.95315 0.93181 0.0
C150 C 0.79419 0.96435 0.89095 0.0
H151 H 0.49613 0.97465 0.81997 0.0
C152 C 0.48449 1.0001 0.82527 0.0
H153 H 0.53079 0.04786 0.83517 0.0
H154 H 0.78255 0.01652 0.72447 0.0
H155 H 0.69242 0.04959 0.66368 0.0
H156 H 0.56819 0.06667 0.67651 0.0
H157 H 0.53307 0.05041 0.74991 0.0
C158 C 0.54228 0.02219 0.83163 0.0
C159 C 0.61949 1.01306 0.82597 0.0
C160 C 0.64037 0.02372 0.78363 0.0
C161 C 0.71307 1.01474 0.77696 0.0
C162 C 0.72999 0.02399 0.73271 0.0
C163 C 0.67827 0.04266 0.69715 0.0
C164 C 0.60828 0.05221 0.70431 0.0
C165 C 0.589 0.04277 0.74678 0.0
H166 H 0.56394 0.983 0.27138 0.0
C167 C 0.5726 1.00659 0.25611 0.0
H168 H 0.51897 0.04988 0.22374 0.0
H169 H 0.2199 0.94574 0.19315 0.0
H170 H 0.28128 0.91421 0.14247 0.0
H171 H 0.40982 0.93001 0.1342 0.0
H172 H 0.47912 0.97687 0.17783 0.0
C173 C 0.51109 0.02591 0.23806 0.0
C174 C 0.43222 0.01644 0.24163 0.0
C175 C 0.39139 0.98935 0.21488 0.0
C176 C 0.31627 0.98061 0.21881 0.0
C177 C 0.27704 0.95347 0.19168 0.0
C178 C 0.31127 0.93526 0.1621 0.0
C179 C 0.38391 0.94404 0.15769 0.0
C180 C 0.42338 0.97091 0.18328 0.0
H181 H 0.15998 0.03831 0.22264 0.0
C182 C 0.14426 1.01458 0.23425 0.0
H183 H 0.18516 0.96806 0.26057 0.0
H184 H 0.49549 0.06889 0.29929 0.0
H185 H 0.439 0.09776 0.35518 0.0
H186 H 0.31196 0.08091 0.36517 0.0
H187 H 0.24024 0.03543 0.31883 0.0
C188 C 0.19963 0.99199 0.24904 0.0
C189 C 0.28153 0.99919 0.24894 0.0
C190 C 0.32407 0.02528 0.2776 0.0
C191 C 0.39857 0.03433 0.27305 0.0
C192 C 0.43886 0.06087 0.30135 0.0
C193 C 0.40725 0.07762 0.33375 0.0
C194 C 0.33566 0.06818 0.33929 0.0
C195 C 0.29459 0.04224 0.31193 0.0
H196 H 0.37298 0.46803 0.34352 0.0
C197 C 0.38931 0.49122 0.33054 0.0
H198 H 0.35375 0.53897 0.30747 0.0
H199 H 0.9972 0.50014 0.23735 0.0
H200 H 0.02632 0.50092 0.15868 0.0
H201 H 0.16148 0.50681 0.15486 0.0
H202 H 0.26837 0.51167 0.22978 0.0
C203 C 0.33867 0.51589 0.32145 0.0
C204 C 0.25781 0.51169 0.32463 0.0
C205 C 0.19584 0.5095 0.28046 0.0
C206 C 0.11783 0.5067 0.28264 0.0
C207 C 0.05738 0.50329 0.23793 0.0
C208 C 0.07331 0.50347 0.19245 0.0
C209 C 0.14939 0.50674 0.1903 0.0
C210 C 0.21019 0.50961 0.23363 0.0
H211 H 0.99369 0.5529 0.3039 0.0
C212 C 0.97192 0.5307 0.31656 0.0
H213 H 1.00022 0.48358 0.34612 0.0
H214 H 0.36316 0.51586 0.41626 0.0
H215 H 0.33401 0.51516 0.49514 0.0
H216 H 0.1985 0.5108 0.49892 0.0
H217 H 0.09117 0.50696 0.42383 0.0
C218 C 0.01991 0.50542 0.33128 0.0
C219 C 0.10179 0.50691 0.32903 0.0
C220 C 0.16385 0.50861 0.37327 0.0
C221 C 0.24206 0.51108 0.37109 0.0
C222 C 0.30281 0.51356 0.4158 0.0
C223 C 0.28688 0.51331 0.46132 0.0
C224 C 0.21055 0.51084 0.46346 0.0
C225 C 0.14951 0.50859 0.42008 0.0
H226 H 0.67455 0.53229 0.76785 0.0
C227 C 0.64455 0.51047 0.75012 0.0
H228 H 0.65383 0.46853 0.70909 0.0
H229 H 0.94089 0.52669 0.644 0.0
H230 H 0.8409 0.52334 0.56538 0.0
H231 H 0.70582 0.50836 0.56178 0.0
H232 H 0.67013 0.49586 0.63656 0.0
C233 C 0.68323 0.48974 0.72911 0.0
C234 C 0.76631 0.49664 0.73096 0.0
C235 C 0.78647 0.50387 0.68694 0.0
C236 C 0.86427 0.5132 0.68916 0.0
C237 C 0.88265 0.51991 0.64451 0.0
C238 C 0.82585 0.51804 0.59913 0.0
C239 C 0.7498 0.50952 0.59707 0.0
C240 C 0.73003 0.50245 0.64029 0.0
H241 H 0.05137 0.48046 0.76236 0.0
C242 C 0.0629 0.50524 0.75255 0.0
H243 H 1.01278 0.55031 0.72543 0.0
H244 H 0.75177 0.47898 0.82156 0.0
H245 H 0.84999 0.48447 0.90037 0.0
H246 H 0.98094 0.50579 0.905 0.0
H247 H 1.01498 0.52095 0.83084 0.0
C248 C 1.00314 0.52593 0.73767 0.0
C249 C 0.92187 0.51562 0.73544 0.0
C250 C 0.90174 0.50828 0.77947 0.0
C251 C 0.82476 0.49781 0.77707 0.0
C252 C 0.80802 0.48863 0.82138 0.0
C253 C 0.86408 0.49139 0.86689 0.0
C254 C 0.93789 0.50325 0.86947 0.0
C255 C 0.95682 0.51164 0.82646 0.0
H256 H 0.17841 0.02482 0.64645 0.0
C257 C 0.13908 1.01272 0.66404 0.0
H258 H 0.03254 0.98736 0.65291 0.0
H259 H 0.01962 0.06256 0.43872 0.0
H260 H 0.03496 0.11304 0.48472 0.0
H261 H 0.05176 0.1128 0.5745 0.0
H262 H 0.05618 0.06207 0.61894 0.0
C263 C 0.07205 0.9997 0.63572 0.0
C264 C 0.05095 1.00042 0.58052 0.0
C265 C 0.04263 0.03046 0.55455 0.0
C266 C 0.02645 0.0307 0.50216 0.0
C267 C 0.0264 0.06095 0.47792 0.0
C268 C 0.03596 0.09015 0.50398 0.0
C269 C 0.04589 0.09001 0.55454 0.0
C270 C 0.04914 0.06063 0.5797 0.0
H271 H 0.88835 0.02932 0.41208 0.0
C272 C 0.92341 0.01597 0.39315 0.0
H273 H 0.02316 0.98727 0.40146 0.0
H274 H 0.06333 0.93857 0.61826 0.0
H275 H 0.03887 0.88823 0.57165 0.0
H276 H 0.99985 0.8888 0.48057 0.0
H277 H 0.98614 0.93968 0.43554 0.0
C278 C 0.98814 1.00099 0.41995 0.0
C279 C 1.01139 1.00102 0.47522 0.0
C280 C 0.01783 0.97103 0.5011 0.0
C281 C 0.03843 0.97073 0.55369 0.0
C282 C 0.0464 0.94034 0.57841 0.0
C283 C 0.03271 0.9112 0.5521 0.0
C284 C 1.01089 0.91152 0.50083 0.0
C285 C 1.00341 0.94097 0.47544 0.0
H286 H 0.49374 0.49816 0.906 0.0
C287 C 0.4398 0.51169 0.89461 0.0
H288 H 0.36078 0.5403 0.91849 0.0
H289 H 0.60412 0.4665 0.11771 0.0
H290 H 0.56072 0.41534 0.07616 0.0
H291 H 0.46561 0.41415 0.99363 0.0
H292 H 0.41597 0.46418 0.95139 0.0
C293 C 0.41399 0.5263 0.92958 0.0
C294 C 0.46016 0.52633 0.98337 0.0
C295 C 0.48339 0.49676 1.00953 0.0
C296 C 0.5327 0.49736 0.05918 0.0
C297 C 0.56204 0.46751 0.08175 0.0
C298 C 0.5383 0.43791 0.05804 0.0
C299 C 0.48518 0.43725 1.01145 0.0
C300 C 0.45782 0.46622 0.98736 0.0
H301 H 0.52534 0.4978 0.16387 0.0
C302 C 0.57757 0.51292 0.17421 0.0
H303 H 0.65151 0.54402 0.14846 0.0
H304 H 0.42824 0.5877 0.94526 0.0
H305 H 0.46234 0.63862 0.98925 0.0
H306 H 0.53546 0.63945 0.07753 0.0
H307 H 0.57614 0.58938 0.12219 0.0
C308 C 0.59989 0.52856 0.13836 0.0
C309 C 0.55239 0.52743 0.08487 0.0
C310 C 0.52661 0.55693 0.0593 0.0
C311 C 0.4819 0.55641 1.00856 0.0
C312 C 0.46028 0.58644 0.98393 0.0
C313 C 0.47973 0.61596 1.00871 0.0
C314 C 0.52105 0.61643 0.05837 0.0
C315 C 0.54431 0.58741 0.08354 0.0
H316 H 0.37239 0.06355 0.90825 0.0
C317 C 0.32785 0.06526 0.92732 0.0
H318 H 0.30147 0.07829 0.99277 0.0
H319 H 0.61907 1.00964 0.10137 0.0
H320 H 0.52721 0.96653 0.10126 0.0
H321 H 0.38737 0.97351 0.0599 0.0
H322 H 0.33981 0.02344 1.01732 0.0
C323 C 0.34599 0.07715 0.97354 0.0
C324 C 0.42764 0.07626 1.00494 0.0
C325 C 0.45354 0.04802 0.03368 0.0
C326 C 0.53337 0.04475 0.05973 0.0
C327 C 0.55877 1.01462 0.08327 0.0
C328 C 0.50652 0.9893 0.0831 0.0
C329 C 0.42797 0.99317 0.05974 0.0
C330 C 0.40148 0.02205 0.03526 0.0
H331 H 0.66842 0.06496 0.1566 0.0
C332 C 0.70215 0.06061 0.13091 0.0
H333 H 0.70494 0.06239 0.0566 0.0
H334 H 0.39537 0.13358 0.95464 0.0
H335 H 0.48713 0.17766 0.9547 0.0
H336 H 0.62465 0.17352 1.00377 0.0
H337 H 0.67153 0.12521 0.05274 0.0
C338 C 0.67074 0.06606 0.08231 0.0
C339 C 0.58615 0.07085 0.05984 0.0
C340 C 0.55947 0.09952 0.03243 0.0
C341 C 0.48013 0.10208 1.00449 0.0
C342 C 0.45515 0.13057 0.97649 0.0
C343 C 0.50713 0.15599 0.97629 0.0
C344 C 0.58459 0.15365 1.0039 0.0
C345 C 0.61081 0.12579 1.03173 0.0
H346 H 0.21012 0.58448 0.60306 0.0
C347 C 0.20559 0.56846 0.63284 0.0
H348 H 0.12997 0.54054 0.66037 0.0
H349 H 0.93549 0.62024 0.45004 0.0
H350 H 0.98412 0.67101 0.49195 0.0
H351 H 0.0681 0.67107 0.57801 0.0
H352 H 0.10585 0.62027 0.6222 0.0
C353 C 0.13442 0.5579 0.6325 0.0
C354 C 0.06931 0.55885 0.5854 0.0
C355 C 0.04368 0.58875 0.5611 0.0
C356 C 0.99149 0.5888 0.51239 0.0
C357 C 0.97218 0.6189 0.48771 0.0
C358 C 1.00002 0.64819 0.51126 0.0
C359 C 0.04755 0.64822 0.55965 0.0
C360 C 0.06926 0.61892 0.58446 0.0
H361 H 0.82135 0.58623 0.45791 0.0
C362 C 0.83085 0.56845 0.43185 0.0
H363 H 0.91332 0.53945 0.41418 0.0
H364 H 0.10591 0.49614 0.61984 0.0
H365 H 0.04559 0.44655 0.58217 0.0
H366 H 0.94247 0.44729 0.50297 0.0
H367 H 0.90105 0.4977 0.46056 0.0
C368 C 0.90394 0.55821 0.4387 0.0
C369 C 0.96031 0.55905 0.48934 0.0
C370 C 0.98113 0.52925 0.51529 0.0
C371 C 0.03733 0.52902 0.56249 0.0
C372 C 0.06103 0.49849 0.5853 0.0
C373 C 0.02714 0.46949 0.56385 0.0
C374 C 0.96941 0.46988 0.51922 0.0
C375 C 0.94659 0.49922 0.49504 0.0
H376 H 0.9737 0.99042 0.14187 0.0
C377 C 0.91149 0.9879 0.12525 0.0
H378 H 0.82111 0.97288 0.06384 0.0
H379 H 0.98989 0.03247 0.91695 0.0
H380 H 0.87196 0.06377 0.90037 0.0
H381 H 0.78029 0.05583 0.95006 0.0
H382 H 0.80595 0.01656 1.0162 0.0
C383 C 0.88371 0.97529 0.07966 0.0
C384 C 0.93228 0.97586 0.04496 0.0
C385 C 0.91553 0.99897 1.00588 0.0
C386 C 0.9684 1.00367 0.9773 0.0
C387 C 0.95171 0.02761 0.93962 0.0
C388 C 0.88416 0.04591 0.92975 0.0
C389 C 0.83263 0.04146 0.95773 0.0
C390 C 0.8482 0.01863 0.9957 0.0
H391 H 0.06448 0.9793 0.8983 0.0
C392 C 0.10739 0.99414 0.9242 0.0
H393 H 0.14802 1.0114 0.99758 0.0
H394 H 0.97319 0.92563 0.1105 0.0
H395 H 0.08648 0.8911 0.12225 0.0
H396 H 0.17706 0.89897 0.07162 0.0
H397 H 0.15695 0.94228 1.01045 0.0
C398 C 0.10384 0.99739 0.97085 0.0
C399 C 0.03785 0.98543 0.98813 0.0
C400 C 0.05054 0.9603 1.0238 0.0
C401 C 0.99773 0.9555 0.0524 0.0
C402 C 1.0121 0.9304 0.08813 0.0
C403 C 0.07659 0.91039 0.09505 0.0
C404 C 0.12787 0.91493 0.06675 0.0
C405 C 0.11575 0.9398 1.03182 0.0
H406 H 0.37426 0.47689 0.59568 0.0
C407 C 0.40574 0.49297 0.62532 0.0
H408 H 0.50457 0.52244 0.65174 0.0
H409 H 0.56677 0.43268 0.46704 0.0
H410 H 0.56554 0.38491 0.5177 0.0
H411 H 0.53839 0.38978 0.59829 0.0
H412 H 0.51049 0.44238 0.62818 0.0
C413 C 0.47652 0.50369 0.62543 0.0
C414 C 0.50224 0.50056 0.58 0.0
C415 C 0.52144 0.46992 0.56405 0.0
C416 C 0.54084 0.46736 0.5187 0.0
C417 C 0.55505 0.43618 0.50218 0.0
C418 C 0.55397 0.40856 0.53074 0.0
C419 C 0.53841 0.41128 0.57604 0.0
C420 C 0.52216 0.44155 0.59267 0.0
H421 H 0.68032 0.47455 0.48337 0.0
C422 C 0.64672 0.48639 0.44971 0.0
H423 H 0.54239 0.509 0.41468 0.0
H424 H 0.46015 0.56273 0.59696 0.0
H425 H 0.4687 0.61071 0.54933 0.0
H426 H 0.51697 0.60745 0.47605 0.0
H427 H 0.55483 0.55625 0.44941 0.0
C428 C 0.57307 0.49438 0.44589 0.0
C429 C 0.54534 0.49576 0.49087 0.0
C430 C 0.52747 0.52658 0.50745 0.0
C431 C 0.50388 0.5288 0.55127 0.0
C432 C 0.48154 0.55958 0.56516 0.0
C433 C 0.48575 0.58747 0.53798 0.0
C434 C 0.51257 0.58561 0.49665 0.0
C435 C 0.53354 0.55573 0.48152 0.0
H436 H 0.40608 0.1729 0.8063 0.0
C437 C 0.3485 0.17908 0.80869 0.0
H438 H 0.27165 0.21685 0.81265 0.0
H439 H 0.45551 0.34155 0.86932 0.0
H440 H 0.44931 0.32497 0.9508 0.0
H441 H 0.41286 0.26865 0.96617 0.0
H442 H 0.38166 0.22857 0.89988 0.0
C443 C 0.32815 0.2106 0.8085 0.0
C444 C 0.37864 0.23888 0.8041 0.0
C445 C 0.39985 0.26166 0.84337 0.0
C446 C 0.42191 0.29403 0.83465 0.0
C447 C 0.4388 0.31665 0.87403 0.0
C448 C 0.43561 0.30742 0.92096 0.0
C449 C 0.41501 0.27571 0.92962 0.0
C450 C 0.39697 0.25302 0.89135 0.0
H451 H 0.30819 0.33143 0.72334 0.0
C452 C 0.35302 0.3494 0.73989 0.0
H453 H 0.46338 0.35564 0.79218 0.0
H454 H 0.35519 0.19985 0.72223 0.0
H455 H 0.37545 0.21495 0.64378 0.0
H456 H 0.42165 0.27011 0.63064 0.0
H457 H 0.44627 0.3108 0.69602 0.0
C458 C 0.41831 0.33874 0.77268 0.0
C459 C 0.42307 0.30342 0.78658 0.0
C460 C 0.41412 0.27923 0.74955 0.0
C461 C 0.39019 0.24706 0.75784 0.0
C462 C 0.37516 0.22436 0.71857 0.0
C463 C 0.38654 0.23273 0.67325 0.0
C464 C 0.4124 0.26381 0.6658 0.0
C465 C 0.42593 0.28692 0.70337 0.0
H466 H 0.59595 0.34701 0.29438 0.0
C467 C 0.65758 0.34915 0.31361 0.0
H468 H 0.76344 0.32427 0.34126 0.0
H469 H 0.68274 0.18178 0.35815 0.0
H470 H 0.70227 0.19832 0.44337 0.0
H471 H 0.70652 0.25647 0.46577 0.0
H472 H 0.69172 0.29849 0.403 0.0
C473 C 0.70233 0.32245 0.32073 0.0
C474 C 0.67296 0.28903 0.30473 0.0
C475 C 0.67848 0.26475 0.34132 0.0
C476 C 0.67513 0.23123 0.32833 0.0
C477 C 0.68457 0.20757 0.36602 0.0
C478 C 0.69564 0.21674 0.41503 0.0
C479 C 0.69809 0.24949 0.42766 0.0
C480 C 0.68984 0.27333 0.3914 0.0
H481 H 0.78359 0.20848 0.24641 0.0
C482 C 0.75441 0.18616 0.25256 0.0
H483 H 0.66051 0.1676 0.27657 0.0
H484 H 0.6485 0.32913 0.22381 0.0
H485 H 0.61641 0.31226 0.13815 0.0
H486 H 0.60309 0.25404 0.11568 0.0
H487 H 0.62342 0.21225 0.17933 0.0
C488 C 0.69 0.1889 0.26759 0.0
C489 C 0.66615 0.22213 0.2787 0.0
C490 C 0.64916 0.24628 0.2413 0.0
C491 C 0.65414 0.27985 0.25427 0.0
C492 C 0.64344 0.30333 0.21622 0.0
C493 C 0.62512 0.29396 0.1668 0.0
C494 C 0.61778 0.26117 0.15413 0.0
C495 C 0.62988 0.23749 0.19085 0.0
H496 H 0.94948 0.849 0.2822 0.0
C497 C 0.88976 0.85078 0.25916 0.0
H498 H 0.78469 0.82554 0.22599 0.0
H499 H 0.85675 0.68262 0.22083 0.0
H500 H 0.86078 0.69737 0.13823 0.0
H501 H 0.87007 0.75496 0.11524 0.0
H502 H 0.87507 0.79822 0.17482 0.0
C503 C 0.8437 0.82402 0.25015 0.0
C504 C 0.86807 0.79086 0.26938 0.0
C505 C 0.86839 0.76581 0.23503 0.0
C506 C 0.86388 0.73261 0.24845 0.0
C507 C 0.86057 0.70821 0.21261 0.0
C508 C 0.86294 0.71635 0.16512 0.0
C509 C 0.86809 0.74878 0.15215 0.0
C510 C 0.87059 0.77334 0.18652 0.0
H511 H 0.72801 0.71032 0.31448 0.0
C512 C 0.76051 0.68829 0.31312 0.0
H513 H 0.86576 0.6705 0.3031 0.0
H514 H 0.87939 0.83255 0.34692 0.0
H515 H 0.88757 0.81743 0.4313 0.0
H516 H 0.88621 0.75966 0.45531 0.0
H517 H 0.87529 0.71662 0.39453 0.0
C518 C 0.83126 0.69152 0.30587 0.0
C519 C 0.8592 0.72461 0.29632 0.0
C520 C 0.86993 0.74938 0.33259 0.0
C521 C 0.87315 0.78265 0.319 0.0
C522 C 0.87822 0.80691 0.35528 0.0
C523 C 0.88294 0.79855 0.40391 0.0
C524 C 0.88203 0.76602 0.41742 0.0
C525 C 0.87538 0.74161 0.38227 0.0
H526 H 0.28264 0.70826 0.75457 0.0
C527 C 0.24894 0.68613 0.75513 0.0
H528 H 0.14081 0.66828 0.76147 0.0
H529 H 0.12891 0.79844 0.883 0.0
H530 H 0.11809 0.75601 0.94106 0.0
H531 H 0.12042 0.69799 0.91915 0.0
H532 H 0.13309 0.68199 0.83906 0.0
C533 C 0.17619 0.68938 0.75877 0.0
C534 C 0.14851 0.7228 0.76573 0.0
C535 C 0.13865 0.73163 0.81196 0.0
C536 C 0.13823 0.76508 0.82481 0.0
C537 C 0.13065 0.77334 0.87183 0.0
C538 C 0.12408 0.74927 0.9053 0.0
C539 C 0.12533 0.71659 0.89294 0.0
C540 C 0.1328 0.70772 0.84692 0.0
H541 H 0.07872 0.8497 0.77216 0.0
C542 C 0.13544 0.85028 0.79937 0.0
H543 H 0.23137 0.82289 0.83997 0.0
H544 H 0.1421 0.71371 0.66925 0.0
H545 H 0.14683 0.75596 0.60944 0.0
H546 H 0.15397 0.814 0.63287 0.0
H547 H 0.1549 0.83023 0.71549 0.0
C548 C 0.17569 0.82247 0.81174 0.0
C549 C 0.14791 0.7896 0.79154 0.0
C550 C 0.1475 0.78077 0.74293 0.0
C551 C 0.14618 0.74727 0.72981 0.0
C552 C 0.14527 0.73886 0.68113 0.0
C553 C 0.14759 0.76281 0.64657 0.0
C554 C 0.15145 0.79549 0.65975 0.0
C555 C 0.15182 0.80451 0.70738 0.0
loop_
_geom_bond_atom_site_label_1
_geom_bond_atom_site_label_2
_geom_bond_distance
_geom_bond_site_symmetry_2
_ccdc_geom_bond_type
Zn0 N4 2.020 . S
Zn0 O8 2.019 . S
Zn0 N10 2.119 . S
Zn0 O18 1.975 . S
C1 N2 1.337 . S
C1 N5 1.336 . S
N2 C1 1.337 . S
N2 C3 1.331 1_565 S
C3 N2 1.331 1_545 S
C3 N4 1.336 . S
N4 Zn0 2.020 . S
N4 C3 1.336 . S
N4 N5 1.354 1_545 S
N5 C1 1.336 . S
N5 N4 1.354 1_565 S
N5 Zn9 2.020 . S
C6 O7 1.244 1_565 S
C6 O30 1.257 . S
O7 C6 1.244 1_545 S
O8 Zn0 2.019 . S
O8 C28 1.257 . S
Zn9 N5 2.020 . S
Zn9 O16 1.975 . S
Zn9 N25 2.119 . S
Zn9 O30 2.019 1_455 S
N10 Zn0 2.119 . S
N10 C12 1.334 . S
N10 C13 1.328 . S
C11 C12 1.391 . S
C11 N14 1.329 . S
C11 H32 0.930 . S
C12 N10 1.334 . S
C12 C11 1.391 . S
C12 H19 0.930 . S
C13 N10 1.328 . S
C13 C15 1.392 . S
C13 H20 0.930 . S
N14 C11 1.329 . S
N14 C15 1.331 . S
C15 C13 1.392 . S
C15 N14 1.331 . S
O16 Zn9 1.975 . S
O16 C17 1.250 1_565 S
C17 O16 1.250 1_545 S
C17 O18 1.254 . S
O18 Zn0 1.975 . S
O18 C17 1.254 . S
H19 C12 0.930 . S
H20 C13 0.930 . S
C21 C22 1.392 . S
C21 N25 1.328 . S
C21 H27 0.930 . S
C22 C21 1.392 . S
C22 N26 1.331 . S
C23 C24 1.391 . S
C23 N26 1.329 . S
C23 H33 0.930 . S
C24 C23 1.391 . S
C24 N25 1.334 . S
C24 H31 0.930 . S
N25 Zn9 2.119 . S
N25 C21 1.328 . S
N25 C24 1.334 . S
N26 C22 1.331 . S
N26 C23 1.329 . S
H27 C21 0.930 . S
C28 O8 1.257 . S
C28 O29 1.244 1_545 S
O29 C28 1.244 1_565 S
O30 C6 1.257 . S
O30 Zn9 2.019 1_655 S
H31 C24 0.930 . S
H32 C11 0.930 . S
H33 C23 0.930 . S
Zn34 N38 2.020 . S
Zn34 O42 2.019 . S
Zn34 N44 2.119 . S
Zn34 O52 1.975 . S
C35 N36 1.337 . S
C35 N39 1.336 . S
N36 C35 1.337 . S
N36 C37 1.331 1_565 S
C37 N36 1.331 1_545 S
C37 N38 1.336 . S
N38 Zn34 2.020 . S
N38 C37 1.336 . S
N38 N39 1.354 1_545 S
N39 C35 1.336 . S
N39 N38 1.354 1_565 S
N39 Zn43 2.020 . S
C40 O41 1.244 1_565 S
C40 O64 1.257 . S
O41 C40 1.244 1_545 S
O42 Zn34 2.019 . S
O42 C62 1.257 . S
Zn43 N39 2.020 . S
Zn43 O50 1.975 . S
Zn43 N59 2.119 . S
Zn43 O64 2.019 1_655 S
N44 Zn34 2.119 . S
N44 C46 1.334 . S
N44 C47 1.328 . S
C45 C46 1.391 . S
C45 N48 1.329 . S
C45 H66 0.930 . S
C46 N44 1.334 . S
C46 C45 1.391 . S
C46 H53 0.930 . S
C47 N44 1.328 . S
C47 C49 1.392 . S
C47 H54 0.930 . S
N48 C45 1.329 . S
N48 C49 1.331 . S
C49 C47 1.392 . S
C49 N48 1.331 . S
O50 Zn43 1.975 . S
O50 C51 1.250 1_565 S
C51 O50 1.250 1_545 S
C51 O52 1.254 . S
O52 Zn34 1.975 . S
O52 C51 1.254 . S
H53 C46 0.930 . S
H54 C47 0.930 . S
C55 C56 1.392 . S
C55 N59 1.328 . S
C55 H61 0.930 . S
C56 C55 1.392 . S
C56 N60 1.331 . S
C57 C58 1.391 . S
C57 N60 1.329 . S
C57 H67 0.930 . S
C58 C57 1.391 . S
C58 N59 1.334 . S
C58 H65 0.930 . S
N59 Zn43 2.119 . S
N59 C55 1.328 . S
N59 C58 1.334 . S
N60 C56 1.331 . S
N60 C57 1.329 . S
H61 C55 0.930 . S
C62 O42 1.257 . S
C62 O63 1.244 1_545 S
O63 C62 1.244 1_565 S
O64 C40 1.257 . S
O64 Zn43 2.019 1_455 S
H65 C58 0.930 . S
H66 C45 0.930 . S
H67 C57 0.930 . S
Zn68 N72 2.020 . S
Zn68 O76 2.019 . S
Zn68 N78 2.119 . S
Zn68 O86 1.975 . S
C69 N70 1.334 . S
C69 N73 1.336 . S
N70 C69 1.334 . S
N70 C71 1.334 . S
C71 N70 1.334 . S
C71 N72 1.336 . S
N72 Zn68 2.020 . S
N72 C71 1.336 . S
N72 N73 1.354 . S
N73 C69 1.336 . S
N73 N72 1.354 . S
N73 Zn77 2.020 . S
C74 O75 1.244 . S
C74 O98 1.257 . S
O75 C74 1.244 . S
O76 Zn68 2.019 . S
O76 C96 1.257 . S
Zn77 N73 2.020 . S
Zn77 O84 1.975 . S
Zn77 N93 2.119 . S
Zn77 O98 2.019 . S
N78 Zn68 2.119 . S
N78 C80 1.334 . S
N78 C81 1.328 . S
C79 C80 1.391 . S
C79 N82 1.329 . S
C79 H100 0.930 . S
C80 N78 1.334 . S
C80 C79 1.391 . S
C80 H87 0.930 . S
C81 N78 1.328 . S
C81 C83 1.392 . S
C81 H88 0.930 . S
N82 C79 1.329 . S
N82 C83 1.331 . S
C83 C81 1.392 . S
C83 N82 1.331 . S
O84 Zn77 1.975 . S
O84 C85 1.252 . S
C85 O84 1.252 . S
C85 O86 1.252 . S
O86 Zn68 1.975 . S
O86 C85 1.252 . S
H87 C80 0.930 . S
H88 C81 0.930 . S
C89 C90 1.392 . S
C89 N93 1.328 . S
C89 H95 0.930 . S
C90 C89 1.392 . S
C90 N94 1.331 . S
C91 C92 1.391 . S
C91 N94 1.329 . S
C91 H101 0.930 . S
C92 C91 1.391 . S
C92 N93 1.334 . S
C92 H99 0.930 . S
N93 Zn77 2.119 . S
N93 C89 1.328 . S
N93 C92 1.334 . S
N94 C90 1.331 . S
N94 C91 1.329 . S
H95 C89 0.930 . S
C96 O76 1.257 . S
C96 O97 1.244 . S
O97 C96 1.244 . S
O98 C74 1.257 . S
O98 Zn77 2.019 . S
H99 C92 0.930 . S
H100 C79 0.930 . S
H101 C91 0.930 . S
Zn102 N106 2.020 . S
Zn102 O110 2.019 . S
Zn102 N112 2.119 . S
Zn102 O120 1.975 . S
C103 N104 1.334 . S
C103 N107 1.336 . S
N104 C103 1.334 . S
N104 C105 1.334 . S
C105 N104 1.334 . S
C105 N106 1.336 . S
N106 Zn102 2.020 . S
N106 C105 1.336 . S
N106 N107 1.354 . S
N107 C103 1.336 . S
N107 N106 1.354 . S
N107 Zn111 2.020 . S
C108 O109 1.244 . S
C108 O132 1.257 . S
O109 C108 1.244 . S
O110 Zn102 2.019 . S
O110 C130 1.257 . S
Zn111 N107 2.020 . S
Zn111 O118 1.975 . S
Zn111 N127 2.119 . S
Zn111 O132 2.019 . S
N112 Zn102 2.119 . S
N112 C114 1.334 . S
N112 C115 1.328 . S
C113 C114 1.391 . S
C113 N116 1.329 . S
C113 H134 0.930 . S
C114 N112 1.334 . S
C114 C113 1.391 . S
C114 H121 0.930 . S
C115 N112 1.328 . S
C115 C117 1.392 . S
C115 H122 0.930 . S
N116 C113 1.329 . S
N116 C117 1.331 . S
C117 C115 1.392 . S
C117 N116 1.331 . S
O118 Zn111 1.975 . S
O118 C119 1.252 . S
C119 O118 1.252 . S
C119 O120 1.252 . S
O120 Zn102 1.975 . S
O120 C119 1.252 . S
H121 C114 0.930 . S
H122 C115 0.930 . S
C123 C124 1.392 . S
C123 N127 1.328 . S
C123 H129 0.930 . S
C124 C123 1.392 . S
C124 N128 1.331 . S
C125 C126 1.391 . S
C125 N128 1.329 . S
C125 H135 0.930 . S
C126 C125 1.391 . S
C126 N127 1.334 . S
C126 H133 0.930 . S
N127 Zn111 2.119 . S
N127 C123 1.328 . S
N127 C126 1.334 . S
N128 C124 1.331 . S
N128 C125 1.329 . S
H129 C123 0.930 . S
C130 O110 1.257 . S
C130 O131 1.244 . S
O131 C130 1.244 . S
O132 C108 1.257 . S
O132 Zn111 2.019 . S
H133 C126 0.930 . S
H134 C113 0.930 . S
H135 C125 0.930 . S
H136 C137 0.951 1_545 S
C137 H136 0.951 1_565 S
C137 C143 1.265 . S
H138 C143 0.950 . S
H139 C147 0.949 . S
H140 C148 0.950 . S
H141 C149 0.951 . S
H142 C150 0.951 . S
C143 C137 1.265 . S
C143 H138 0.950 . S
C143 C144 1.478 . S
C144 C143 1.478 . S
C144 C145 1.397 . S
C144 C161 1.394 1_565 S
C145 C144 1.397 . S
C145 C146 1.438 . S
C145 C150 1.429 . S
C146 C145 1.438 . S
C146 C147 1.428 . S
C146 C159 1.394 1_565 S
C147 H139 0.949 . S
C147 C146 1.428 . S
C147 C148 1.345 . S
C148 H140 0.950 . S
C148 C147 1.345 . S
C148 C149 1.424 . S
C149 H141 0.951 . S
C149 C148 1.424 . S
C149 C150 1.347 . S
C150 H142 0.951 . S
C150 C145 1.429 . S
C150 C149 1.347 . S
H151 C152 0.951 1_565 S
C152 H151 0.951 1_545 S
C152 C158 1.265 . S
H153 C158 0.950 . S
H154 C162 0.949 . S
H155 C163 0.950 . S
H156 C164 0.951 . S
H157 C165 0.951 . S
C158 C152 1.265 . S
C158 H153 0.950 . S
C158 C159 1.478 . S
C159 C146 1.394 1_545 S
C159 C158 1.478 . S
C159 C160 1.397 . S
C160 C159 1.397 . S
C160 C161 1.438 . S
C160 C165 1.429 . S
C161 C144 1.394 1_545 S
C161 C160 1.438 . S
C161 C162 1.428 . S
C162 H154 0.949 . S
C162 C161 1.428 . S
C162 C163 1.345 . S
C163 H155 0.950 . S
C163 C162 1.345 . S
C163 C164 1.424 . S
C164 H156 0.951 . S
C164 C163 1.424 . S
C164 C165 1.347 . S
C165 H157 0.951 . S
C165 C160 1.429 . S
C165 C164 1.347 . S
H166 C167 0.951 . S
C167 H166 0.951 . S
C167 C173 1.265 . S
H168 C173 0.950 . S
H169 C177 0.949 . S
H170 C178 0.950 . S
H171 C179 0.951 . S
H172 C180 0.951 . S
C173 C167 1.265 . S
C173 H168 0.950 . S
C173 C174 1.478 . S
C174 C173 1.478 . S
C174 C175 1.397 1_545 S
C174 C191 1.394 . S
C175 C174 1.397 1_565 S
C175 C176 1.438 . S
C175 C180 1.429 . S
C176 C175 1.438 . S
C176 C177 1.428 . S
C176 C189 1.394 . S
C177 H169 0.949 . S
C177 C176 1.428 . S
C177 C178 1.345 . S
C178 H170 0.950 . S
C178 C177 1.345 . S
C178 C179 1.424 . S
C179 H171 0.951 . S
C179 C178 1.424 . S
C179 C180 1.347 . S
C180 H172 0.951 . S
C180 C175 1.429 . S
C180 C179 1.347 . S
H181 C182 0.951 . S
C182 H181 0.951 . S
C182 C188 1.265 . S
H183 C188 0.950 . S
H184 C192 0.949 . S
H185 C193 0.950 . S
H186 C194 0.951 . S
H187 C195 0.951 . S
C188 C182 1.265 . S
C188 H183 0.950 . S
C188 C189 1.478 . S
C189 C176 1.394 . S
C189 C188 1.478 . S
C189 C190 1.397 1_565 S
C190 C189 1.397 1_545 S
C190 C191 1.438 . S
C190 C195 1.429 . S
C191 C174 1.394 . S
C191 C190 1.438 . S
C191 C192 1.428 . S
C192 H184 0.949 . S
C192 C191 1.428 . S
C192 C193 1.345 . S
C193 H185 0.950 . S
C193 C192 1.345 . S
C193 C194 1.424 . S
C194 H186 0.951 . S
C194 C193 1.424 . S
C194 C195 1.347 . S
C195 H187 0.951 . S
C195 C190 1.429 . S
C195 C194 1.347 . S
H196 C197 0.951 . S
C197 H196 0.951 . S
C197 C203 1.265 . S
H198 C203 0.950 . S
H199 C207 0.949 . S
H200 C208 0.950 . S
H201 C209 0.951 . S
H202 C210 0.951 . S
C203 C197 1.265 . S
C203 H198 0.950 . S
C203 C204 1.478 . S
C204 C203 1.478 . S
C204 C205 1.397 . S
C204 C221 1.394 . S
C205 C204 1.397 . S
C205 C206 1.438 . S
C205 C210 1.429 . S
C206 C205 1.438 . S
C206 C207 1.428 . S
C206 C219 1.394 . S
C207 H199 0.949 . S
C207 C206 1.428 . S
C207 C208 1.345 . S
C208 H200 0.950 . S
C208 C207 1.345 . S
C208 C209 1.424 . S
C209 H201 0.951 . S
C209 C208 1.424 . S
C209 C210 1.347 . S
C210 H202 0.951 . S
C210 C205 1.429 . S
C210 C209 1.347 . S
H211 C212 0.951 . S
C212 H211 0.951 . S
C212 C218 1.265 1_655 S
H213 C218 0.950 . S
H214 C222 0.949 . S
H215 C223 0.950 . S
H216 C224 0.951 . S
H217 C225 0.951 . S
C218 C212 1.265 1_455 S
C218 H213 0.950 . S
C218 C219 1.478 . S
C219 C206 1.394 . S
C219 C218 1.478 . S
C219 C220 1.397 . S
C220 C219 1.397 . S
C220 C221 1.438 . S
C220 C225 1.429 . S
C221 C204 1.394 . S
C221 C220 1.438 . S
C221 C222 1.428 . S
C222 H214 0.949 . S
C222 C221 1.428 . S
C222 C223 1.345 . S
C223 H215 0.950 . S
C223 C222 1.345 . S
C223 C224 1.424 . S
C224 H216 0.951 . S
C224 C223 1.424 . S
C224 C225 1.347 . S
C225 H217 0.951 . S
C225 C220 1.429 . S
C225 C224 1.347 . S
H226 C227 0.951 . S
C227 H226 0.951 . S
C227 C233 1.265 . S
H228 C233 0.950 . S
H229 C237 0.949 . S
H230 C238 0.950 . S
H231 C239 0.951 . S
H232 C240 0.951 . S
C233 C227 1.265 . S
C233 H228 0.950 . S
C233 C234 1.478 . S
C234 C233 1.478 . S
C234 C235 1.397 . S
C234 C251 1.394 . S
C235 C234 1.397 . S
C235 C236 1.438 . S
C235 C240 1.429 . S
C236 C235 1.438 . S
C236 C237 1.428 . S
C236 C249 1.394 . S
C237 H229 0.949 . S
C237 C236 1.428 . S
C237 C238 1.345 . S
C238 H230 0.950 . S
C238 C237 1.345 . S
C238 C239 1.424 . S
C239 H231 0.951 . S
C239 C238 1.424 . S
C239 C240 1.347 . S
C240 H232 0.951 . S
C240 C235 1.429 . S
C240 C239 1.347 . S
H241 C242 0.951 . S
C242 H241 0.951 . S
C242 C248 1.265 1_455 S
H243 C248 0.950 . S
H244 C252 0.949 . S
H245 C253 0.950 . S
H246 C254 0.951 . S
H247 C255 0.951 . S
C248 C242 1.265 1_655 S
C248 H243 0.950 . S
C248 C249 1.478 . S
C249 C236 1.394 . S
C249 C248 1.478 . S
C249 C250 1.397 . S
C250 C249 1.397 . S
C250 C251 1.438 . S
C250 C255 1.429 . S
C251 C234 1.394 . S
C251 C250 1.438 . S
C251 C252 1.428 . S
C252 H244 0.949 . S
C252 C251 1.428 . S
C252 C253 1.345 . S
C253 H245 0.950 . S
C253 C252 1.345 . S
C253 C254 1.424 . S
C254 H246 0.951 . S
C254 C253 1.424 . S
C254 C255 1.347 . S
C255 H247 0.951 . S
C255 C250 1.429 . S
C255 C254 1.347 . S
H256 C257 0.950 1_565 S
C257 H256 0.950 1_545 S
C257 C263 1.266 . S
H258 C263 0.950 . S
H259 C267 0.949 . S
H260 C268 0.950 . S
H261 C269 0.951 . S
H262 C270 0.951 . S
C263 C257 1.266 . S
C263 H258 0.950 . S
C263 C264 1.478 . S
C264 C263 1.478 . S
C264 C265 1.397 1_455 S
C264 C281 1.394 1_545 S
C265 C264 1.397 1_655 S
C265 C266 1.438 . S
C265 C270 1.429 . S
C266 C265 1.438 . S
C266 C267 1.428 . S
C266 C279 1.383 1_545 S
C267 H259 0.949 . S
C267 C266 1.428 . S
C267 C268 1.345 . S
C268 H260 0.950 . S
C268 C267 1.345 . S
C268 C269 1.424 . S
C269 H261 0.951 . S
C269 C268 1.424 . S
C269 C270 1.347 . S
C270 H262 0.951 . S
C270 C265 1.429 . S
C270 C269 1.347 . S
H271 C272 0.953 . S
C272 H271 0.953 . S
C272 C278 1.263 1_545 S
H273 C278 0.950 . S
H274 C282 0.949 . S
H275 C283 0.950 . S
H276 C284 0.951 . S
H277 C285 0.951 . S
C278 C272 1.263 1_565 S
C278 H273 0.950 . S
C278 C279 1.479 . S
C279 C266 1.383 1_565 S
C279 C278 1.479 . S
C279 C280 1.407 1_655 S
C280 C279 1.407 1_455 S
C280 C281 1.438 . S
C280 C285 1.429 . S
C281 C264 1.394 1_565 S
C281 C280 1.438 . S
C281 C282 1.428 . S
C282 H274 0.949 . S
C282 C281 1.428 . S
C282 C283 1.345 . S
C283 H275 0.950 . S
C283 C282 1.345 . S
C283 C284 1.424 . S
C284 H276 0.951 . S
C284 C283 1.424 . S
C284 C285 1.347 . S
C285 H277 0.951 . S
C285 C280 1.429 . S
C285 C284 1.347 . S
H286 C287 0.951 . S
C287 H286 0.951 . S
C287 C293 1.265 . S
H288 C293 0.950 . S
H289 C297 0.949 . S
H290 C298 0.950 . S
H291 C299 0.951 1_556 S
H292 C300 0.951 . S
C293 C287 1.265 . S
C293 H288 0.950 . S
C293 C294 1.478 . S
C294 C293 1.478 . S
C294 C295 1.397 . S
C294 C311 1.394 . S
C295 C294 1.397 . S
C295 C296 1.438 1_556 S
C295 C300 1.429 . S
C296 C295 1.438 1_554 S
C296 C297 1.428 . S
C296 C309 1.394 . S
C297 H289 0.949 . S
C297 C296 1.428 . S
C297 C298 1.345 . S
C298 H290 0.950 . S
C298 C297 1.345 . S
C298 C299 1.424 . S
C299 H291 0.951 1_554 S
C299 C298 1.424 . S
C299 C300 1.347 1_554 S
C300 H292 0.951 . S
C300 C295 1.429 . S
C300 C299 1.347 1_556 S
H301 C302 0.951 . S
C302 H301 0.951 . S
C302 C308 1.265 . S
H303 C308 0.950 . S
H304 C312 0.949 . S
H305 C313 0.950 . S
H306 C314 0.951 1_554 S
H307 C315 0.951 . S
C308 C302 1.265 . S
C308 H303 0.950 . S
C308 C309 1.478 . S
C309 C296 1.394 . S
C309 C308 1.478 . S
C309 C310 1.397 . S
C310 C309 1.397 . S
C310 C311 1.438 1_554 S
C310 C315 1.429 . S
C311 C294 1.394 . S
C311 C310 1.438 1_556 S
C311 C312 1.428 . S
C312 H304 0.949 . S
C312 C311 1.428 . S
C312 C313 1.345 . S
C313 H305 0.950 . S
C313 C312 1.345 . S
C313 C314 1.424 . S
C314 H306 0.951 1_556 S
C314 C313 1.424 . S
C314 C315 1.347 1_556 S
C315 H307 0.951 . S
C315 C310 1.429 . S
C315 C314 1.347 1_554 S
H316 C317 0.951 . S
C317 H316 0.951 . S
C317 C323 1.265 . S
H318 C323 0.950 . S
H319 C327 0.949 . S
H320 C328 0.950 . S
H321 C329 0.951 . S
H322 C330 0.951 . S
C323 C317 1.265 . S
C323 H318 0.950 . S
C323 C324 1.478 . S
C324 C323 1.478 . S
C324 C325 1.397 1_545 S
C324 C341 1.394 . S
C325 C324 1.397 1_565 S
C325 C326 1.438 1_556 S
C325 C330 1.429 . S
C326 C325 1.438 1_554 S
C326 C327 1.428 . S
C326 C339 1.394 1_565 S
C327 H319 0.949 . S
C327 C326 1.428 . S
C327 C328 1.345 . S
C328 H320 0.950 . S
C328 C327 1.345 . S
C328 C329 1.424 . S
C329 H321 0.951 . S
C329 C328 1.424 . S
C329 C330 1.347 1_554 S
C330 H322 0.951 . S
C330 C325 1.429 . S
C330 C329 1.347 1_556 S
H331 C332 0.951 . S
C332 H331 0.951 . S
C332 C338 1.265 . S
H333 C338 0.950 . S
H334 C342 0.949 . S
H335 C343 0.950 . S
H336 C344 0.951 . S
H337 C345 0.951 . S
C338 C332 1.265 . S
C338 H333 0.950 . S
C338 C339 1.478 . S
C339 C326 1.394 1_545 S
C339 C338 1.478 . S
C339 C340 1.397 . S
C340 C339 1.397 . S
C340 C341 1.438 1_554 S
C340 C345 1.429 . S
C341 C324 1.394 . S
C341 C340 1.438 1_556 S
C341 C342 1.428 . S
C342 H334 0.949 . S
C342 C341 1.428 . S
C342 C343 1.345 . S
C343 H335 0.950 . S
C343 C342 1.345 . S
C343 C344 1.424 . S
C344 H336 0.951 . S
C344 C343 1.424 . S
C344 C345 1.347 1_556 S
C345 H337 0.951 . S
C345 C340 1.429 . S
C345 C344 1.347 1_554 S
H346 C347 0.951 . S
C347 H346 0.951 . S
C347 C353 1.265 . S
H348 C353 0.950 . S
H349 C357 0.949 . S
H350 C358 0.950 . S
H351 C359 0.951 . S
H352 C360 0.951 1_455 S
C353 C347 1.265 . S
C353 H348 0.950 . S
C353 C354 1.478 . S
C354 C353 1.478 . S
C354 C355 1.397 1_455 S
C354 C371 1.394 . S
C355 C354 1.397 1_655 S
C355 C356 1.438 . S
C355 C360 1.429 . S
C356 C355 1.438 . S
C356 C357 1.428 . S
C356 C369 1.394 . S
C357 H349 0.949 . S
C357 C356 1.428 . S
C357 C358 1.345 . S
C358 H350 0.950 . S
C358 C357 1.345 . S
C358 C359 1.424 . S
C359 H351 0.951 . S
C359 C358 1.424 . S
C359 C360 1.347 . S
C360 H352 0.951 1_655 S
C360 C355 1.429 . S
C360 C359 1.347 . S
H361 C362 0.951 . S
C362 H361 0.951 . S
C362 C368 1.265 . S
H363 C368 0.950 . S
H364 C372 0.949 . S
H365 C373 0.950 . S
H366 C374 0.951 . S
H367 C375 0.951 1_655 S
C368 C362 1.265 . S
C368 H363 0.950 . S
C368 C369 1.478 . S
C369 C356 1.394 . S
C369 C368 1.478 . S
C369 C370 1.397 1_655 S
C370 C369 1.397 1_455 S
C370 C371 1.438 . S
C370 C375 1.429 . S
C371 C354 1.394 . S
C371 C370 1.438 . S
C371 C372 1.428 . S
C372 H364 0.949 . S
C372 C371 1.428 . S
C372 C373 1.345 . S
C373 H365 0.950 . S
C373 C372 1.345 . S
C373 C374 1.424 . S
C374 H366 0.951 . S
C374 C373 1.424 . S
C374 C375 1.347 . S
C375 H367 0.951 1_455 S
C375 C370 1.429 . S
C375 C374 1.347 . S
H376 C377 0.951 . S
C377 H376 0.951 . S
C377 C383 1.265 . S
H378 C383 0.950 . S
H379 C387 0.949 . S
H380 C388 0.950 . S
H381 C389 0.951 . S
H382 C390 0.951 . S
C383 C377 1.265 . S
C383 H378 0.950 . S
C383 C384 1.478 . S
C384 C383 1.478 . S
C384 C385 1.397 1_565 S
C384 C401 1.394 . S
C385 C384 1.397 1_545 S
C385 C386 1.438 1_654 S
C385 C390 1.429 . S
C386 C385 1.438 1_456 S
C386 C387 1.428 . S
C386 C399 1.394 1_545 S
C387 H379 0.949 . S
C387 C386 1.428 . S
C387 C388 1.345 1_455 S
C388 H380 0.950 . S
C388 C387 1.345 1_655 S
C388 C389 1.424 . S
C389 H381 0.951 . S
C389 C388 1.424 . S
C389 C390 1.347 1_556 S
C390 H382 0.951 . S
C390 C385 1.429 . S
C390 C389 1.347 1_554 S
H391 C392 0.951 . S
C392 H391 0.951 . S
C392 C398 1.265 . S
H393 C398 0.950 . S
H394 C402 0.949 . S
H395 C403 0.950 . S
H396 C404 0.951 . S
H397 C405 0.951 . S
C398 C392 1.265 . S
C398 H393 0.950 . S
C398 C399 1.478 . S
C399 C386 1.394 1_565 S
C399 C398 1.478 . S
C399 C400 1.397 . S
C400 C399 1.397 . S
C400 C401 1.438 1_456 S
C400 C405 1.429 . S
C401 C384 1.394 . S
C401 C400 1.438 1_654 S
C401 C402 1.428 . S
C402 H394 0.949 . S
C402 C401 1.428 . S
C402 C403 1.345 1_655 S
C403 H395 0.950 . S
C403 C402 1.345 1_455 S
C403 C404 1.424 . S
C404 H396 0.951 . S
C404 C403 1.424 . S
C404 C405 1.347 1_554 S
C405 H397 0.951 . S
C405 C400 1.429 . S
C405 C404 1.347 1_556 S
H406 C407 0.951 . S
C407 H406 0.951 . S
C407 C413 1.265 . S
H408 C413 0.950 . S
H409 C417 0.949 . S
H410 C418 0.950 . S
H411 C419 0.951 . S
H412 C420 0.951 . S
C413 C407 1.265 . S
C413 H408 0.950 . S
C413 C414 1.478 . S
C414 C413 1.478 . S
C414 C415 1.397 . S
C414 C431 1.394 . S
C415 C414 1.397 . S
C415 C416 1.438 . S
C415 C420 1.429 . S
C416 C415 1.438 . S
C416 C417 1.428 . S
C416 C429 1.394 . S
C417 H409 0.949 . S
C417 C416 1.428 . S
C417 C418 1.345 . S
C418 H410 0.950 . S
C418 C417 1.345 . S
C418 C419 1.424 . S
C419 H411 0.951 . S
C419 C418 1.424 . S
C419 C420 1.347 . S
C420 H412 0.951 . S
C420 C415 1.429 . S
C420 C419 1.347 . S
H421 C422 0.951 . S
C422 H421 0.951 . S
C422 C428 1.265 . S
H423 C428 0.950 . S
H424 C432 0.949 . S
H425 C433 0.950 . S
H426 C434 0.951 . S
H427 C435 0.951 . S
C428 C422 1.265 . S
C428 H423 0.950 . S
C428 C429 1.478 . S
C429 C416 1.394 . S
C429 C428 1.478 . S
C429 C430 1.397 . S
C430 C429 1.397 . S
C430 C431 1.438 . S
C430 C435 1.429 . S
C431 C414 1.394 . S
C431 C430 1.438 . S
C431 C432 1.428 . S
C432 H424 0.949 . S
C432 C431 1.428 . S
C432 C433 1.345 . S
C433 H425 0.950 . S
C433 C432 1.345 . S
C433 C434 1.424 . S
C434 H426 0.951 . S
C434 C433 1.424 . S
C434 C435 1.347 . S
C435 H427 0.951 . S
C435 C430 1.429 . S
C435 C434 1.347 . S
H436 C437 0.951 . S
C437 H436 0.951 . S
C437 C443 1.265 . S
H438 C443 0.950 . S
H439 C447 0.949 . S
H440 C448 0.950 . S
H441 C449 0.951 . S
H442 C450 0.951 . S
C443 C437 1.265 . S
C443 H438 0.950 . S
C443 C444 1.478 . S
C444 C443 1.478 . S
C444 C445 1.397 . S
C444 C461 1.394 . S
C445 C444 1.397 . S
C445 C446 1.438 . S
C445 C450 1.429 . S
C446 C445 1.438 . S
C446 C447 1.428 . S
C446 C459 1.394 . S
C447 H439 0.949 . S
C447 C446 1.428 . S
C447 C448 1.345 . S
C448 H440 0.950 . S
C448 C447 1.345 . S
C448 C449 1.424 . S
C449 H441 0.951 . S
C449 C448 1.424 . S
C449 C450 1.347 . S
C450 H442 0.951 . S
C450 C445 1.429 . S
C450 C449 1.347 . S
H451 C452 0.951 . S
C452 H451 0.951 . S
C452 C458 1.265 . S
H453 C458 0.950 . S
H454 C462 0.949 . S
H455 C463 0.950 . S
H456 C464 0.951 . S
H457 C465 0.951 . S
C458 C452 1.265 . S
C458 H453 0.950 . S
C458 C459 1.478 . S
C459 C446 1.394 . S
C459 C458 1.478 . S
C459 C460 1.397 . S
C460 C459 1.397 . S
C460 C461 1.438 . S
C460 C465 1.429 . S
C461 C444 1.394 . S
C461 C460 1.438 . S
C461 C462 1.428 . S
C462 H454 0.949 . S
C462 C461 1.428 . S
C462 C463 1.345 . S
C463 H455 0.950 . S
C463 C462 1.345 . S
C463 C464 1.424 . S
C464 H456 0.951 . S
C464 C463 1.424 . S
C464 C465 1.347 . S
C465 H457 0.951 . S
C465 C460 1.429 . S
C465 C464 1.347 . S
H466 C467 0.951 . S
C467 H466 0.951 . S
C467 C473 1.265 . S
H468 C473 0.950 . S
H469 C477 0.949 . S
H470 C478 0.950 . S
H471 C479 0.951 . S
H472 C480 0.951 . S
C473 C467 1.265 . S
C473 H468 0.950 . S
C473 C474 1.478 . S
C474 C473 1.478 . S
C474 C475 1.397 . S
C474 C491 1.394 . S
C475 C474 1.397 . S
C475 C476 1.438 . S
C475 C480 1.429 . S
C476 C475 1.438 . S
C476 C477 1.428 . S
C476 C489 1.394 . S
C477 H469 0.949 . S
C477 C476 1.428 . S
C477 C478 1.345 . S
C478 H470 0.950 . S
C478 C477 1.345 . S
C478 C479 1.424 . S
C479 H471 0.951 . S
C479 C478 1.424 . S
C479 C480 1.347 . S
C480 H472 0.951 . S
C480 C475 1.429 . S
C480 C479 1.347 . S
H481 C482 0.951 . S
C482 H481 0.951 . S
C482 C488 1.265 . S
H483 C488 0.950 . S
H484 C492 0.949 . S
H485 C493 0.950 . S
H486 C494 0.951 . S
H487 C495 0.951 . S
C488 C482 1.265 . S
C488 H483 0.950 . S
C488 C489 1.478 . S
C489 C476 1.394 . S
C489 C488 1.478 . S
C489 C490 1.397 . S
C490 C489 1.397 . S
C490 C491 1.438 . S
C490 C495 1.429 . S
C491 C474 1.394 . S
C491 C490 1.438 . S
C491 C492 1.428 . S
C492 H484 0.949 . S
C492 C491 1.428 . S
C492 C493 1.345 . S
C493 H485 0.950 . S
C493 C492 1.345 . S
C493 C494 1.424 . S
C494 H486 0.951 . S
C494 C493 1.424 . S
C494 C495 1.347 . S
C495 H487 0.951 . S
C495 C490 1.429 . S
C495 C494 1.347 . S
H496 C497 0.951 . S
C497 H496 0.951 . S
C497 C503 1.265 . S
H498 C503 0.950 . S
H499 C507 0.949 . S
H500 C508 0.950 . S
H501 C509 0.951 . S
H502 C510 0.951 . S
C503 C497 1.265 . S
C503 H498 0.950 . S
C503 C504 1.478 . S
C504 C503 1.478 . S
C504 C505 1.397 . S
C504 C521 1.394 . S
C505 C504 1.397 . S
C505 C506 1.438 . S
C505 C510 1.429 . S
C506 C505 1.438 . S
C506 C507 1.428 . S
C506 C519 1.394 . S
C507 H499 0.949 . S
C507 C506 1.428 . S
C507 C508 1.345 . S
C508 H500 0.950 . S
C508 C507 1.345 . S
C508 C509 1.424 . S
C509 H501 0.951 . S
C509 C508 1.424 . S
C509 C510 1.347 . S
C510 H502 0.951 . S
C510 C505 1.429 . S
C510 C509 1.347 . S
H511 C512 0.951 . S
C512 H511 0.951 . S
C512 C518 1.265 . S
H513 C518 0.950 . S
H514 C522 0.949 . S
H515 C523 0.950 . S
H516 C524 0.951 . S
H517 C525 0.951 . S
C518 C512 1.265 . S
C518 H513 0.950 . S
C518 C519 1.478 . S
C519 C506 1.394 . S
C519 C518 1.478 . S
C519 C520 1.397 . S
C520 C519 1.397 . S
C520 C521 1.438 . S
C520 C525 1.429 . S
C521 C504 1.394 . S
C521 C520 1.438 . S
C521 C522 1.428 . S
C522 H514 0.949 . S
C522 C521 1.428 . S
C522 C523 1.345 . S
C523 H515 0.950 . S
C523 C522 1.345 . S
C523 C524 1.424 . S
C524 H516 0.951 . S
C524 C523 1.424 . S
C524 C525 1.347 . S
C525 H517 0.951 . S
C525 C520 1.429 . S
C525 C524 1.347 . S
H526 C527 0.951 . S
C527 H526 0.951 . S
C527 C533 1.265 . S
H528 C533 0.950 . S
H529 C537 0.949 . S
H530 C538 0.950 . S
H531 C539 0.951 . S
H532 C540 0.951 . S
C533 C527 1.265 . S
C533 H528 0.950 . S
C533 C534 1.478 . S
C534 C533 1.478 . S
C534 C535 1.397 . S
C534 C551 1.394 . S
C535 C534 1.397 . S
C535 C536 1.438 . S
C535 C540 1.429 . S
C536 C535 1.438 . S
C536 C537 1.428 . S
C536 C549 1.394 . S
C537 H529 0.949 . S
C537 C536 1.428 . S
C537 C538 1.345 . S
C538 H530 0.950 . S
C538 C537 1.345 . S
C538 C539 1.424 . S
C539 H531 0.951 . S
C539 C538 1.424 . S
C539 C540 1.347 . S
C540 H532 0.951 . S
C540 C535 1.429 . S
C540 C539 1.347 . S
H541 C542 0.951 . S
C542 H541 0.951 . S
C542 C548 1.265 . S
H543 C548 0.950 . S
H544 C552 0.949 . S
H545 C553 0.950 . S
H546 C554 0.951 . S
H547 C555 0.951 . S
C548 C542 1.265 . S
C548 H543 0.950 . S
C548 C549 1.478 . S
C549 C536 1.394 . S
C549 C548 1.478 . S
C549 C550 1.397 . S
C550 C549 1.397 . S
C550 C551 1.438 . S
C550 C555 1.429 . S
C551 C534 1.394 . S
C551 C550 1.438 . S
C551 C552 1.428 . S
C552 H544 0.949 . S
C552 C551 1.428 . S
C552 C553 1.345 . S
C553 H545 0.950 . S
C553 C552 1.345 . S
C553 C554 1.424 . S
C554 H546 0.951 . S
C554 C553 1.424 . S
C554 C555 1.347 . S
C555 H547 0.951 . S
C555 C550 1.429 . S
C555 C554 1.347 . S
C137 C6 1.068 . S
C152 C28 1.079 . S
C167 C62 1.106 . S
C182 C40 1.080 . S
C197 C74 1.110 . S
C212 C96 1.120 . S
C227 C108 1.071 . S
C242 C130 1.093 . S
C257 C17 1.937 . S
C272 C51 1.937 . S
C287 C119 1.903 . S
C302 C85 1.903 . S
C317 C3 1.256 . S
C332 C37 1.265 . S
C347 C105 1.152 . S
C362 C71 1.138 . S
C377 C35 1.998 . S
C392 C1 1.992 . S
C407 C103 1.939 . S
C422 C69 1.946 . S
C437 C15 1.881 . S
C452 C124 1.611 . S
C467 C90 1.741 . S
C482 C49 1.821 . S
C497 C56 1.729 . S
C512 C83 1.829 . S
C527 C117 1.821 . S
C542 C22 1.743 . S
