# Generated by pormake.
# Topology wkf, (6)-cn, num edge types: 1
# Building blocks:
#     Node 0, Type 0, BuildingBlock: OJICUG_clean_sbu_0, # of connection points: 6
#     Node 1, Type 0, BuildingBlock: OJICUG_clean_sbu_0, # of connection points: 6
#     Node 2, Type 0, BuildingBlock: OJICUG_clean_sbu_0, # of connection points: 6
#     Node 3, Type 0, BuildingBlock: OJICUG_clean_sbu_0, # of connection points: 6
#     Node 4, Type 0, BuildingBlock: OJICUG_clean_sbu_0, # of connection points: 6
#     Node 5, Type 0, BuildingBlock: OJICUG_clean_sbu_0, # of connection points: 6
#     Node 6, Type 0, BuildingBlock: OJICUG_clean_sbu_0, # of connection points: 6
#     Node 7, Type 0, BuildingBlock: OJICUG_clean_sbu_0, # of connection points: 6
#     Node 8, Type 0, BuildingBlock: OJICUG_clean_sbu_0, # of connection points: 6
#     Node 9, Type 0, BuildingBlock: OJICUG_clean_sbu_0, # of connection points: 6
#     Node 10, Type 0, BuildingBlock: OJICUG_clean_sbu_0, # of connection points: 6
#     Node 11, Type 0, BuildingBlock: OJICUG_clean_sbu_0, # of connection points: 6
#     Edge 12, Type (0, 0), BuildingBlock: EZIPEK_clean_linker_0, # of connection points: 2
#     Edge 13, Type (0, 0), BuildingBlock: EZIPEK_clean_linker_0, # of connection points: 2
#     Edge 14, Type (0, 0), BuildingBlock: EZIPEK_clean_linker_0, # of connection points: 2
#     Edge 15, Type (0, 0), BuildingBlock: EZIPEK_clean_linker_0, # of connection points: 2
#     Edge 16, Type (0, 0), BuildingBlock: EZIPEK_clean_linker_0, # of connection points: 2
#     Edge 17, Type (0, 0), BuildingBlock: EZIPEK_clean_linker_0, # of connection points: 2
#     Edge 18, Type (0, 0), BuildingBlock: EZIPEK_clean_linker_0, # of connection points: 2
#     Edge 19, Type (0, 0), BuildingBlock: EZIPEK_clean_linker_0, # of connection points: 2
#     Edge 20, Type (0, 0), BuildingBlock: EZIPEK_clean_linker_0, # of connection points: 2
#     Edge 21, Type (0, 0), BuildingBlock: EZIPEK_clean_linker_0, # of connection points: 2
#     Edge 22, Type (0, 0), BuildingBlock: EZIPEK_clean_linker_0, # of connection points: 2
#     Edge 23, Type (0, 0), BuildingBlock: EZIPEK_clean_linker_0, # of connection points: 2
#     Edge 24, Type (0, 0), BuildingBlock: EZIPEK_clean_linker_0, # of connection points: 2
#     Edge 25, Type (0, 0), BuildingBlock: EZIPEK_clean_linker_0, # of connection points: 2
#     Edge 26, Type (0, 0), BuildingBlock: EZIPEK_clean_linker_0, # of connection points: 2
#     Edge 27, Type (0, 0), BuildingBlock: EZIPEK_clean_linker_0, # of connection points: 2
#     Edge 28, Type (0, 0), BuildingBlock: EZIPEK_clean_linker_0, # of connection points: 2
#     Edge 29, Type (0, 0), BuildingBlock: EZIPEK_clean_linker_0, # of connection points: 2
#     Edge 30, Type (0, 0), BuildingBlock: EZIPEK_clean_linker_0, # of connection points: 2
#     Edge 31, Type (0, 0), BuildingBlock: EZIPEK_clean_linker_0, # of connection points: 2
#     Edge 32, Type (0, 0), BuildingBlock: EZIPEK_clean_linker_0, # of connection points: 2
#     Edge 33, Type (0, 0), BuildingBlock: EZIPEK_clean_linker_0, # of connection points: 2
#     Edge 34, Type (0, 0), BuildingBlock: EZIPEK_clean_linker_0, # of connection points: 2
#     Edge 35, Type (0, 0), BuildingBlock: EZIPEK_clean_linker_0, # of connection points: 2
#     Edge 36, Type (0, 0), BuildingBlock: EZIPEK_clean_linker_0, # of connection points: 2
#     Edge 37, Type (0, 0), BuildingBlock: EZIPEK_clean_linker_0, # of connection points: 2
#     Edge 38, Type (0, 0), BuildingBlock: EZIPEK_clean_linker_0, # of connection points: 2
#     Edge 39, Type (0, 0), BuildingBlock: EZIPEK_clean_linker_0, # of connection points: 2
#     Edge 40, Type (0, 0), BuildingBlock: EZIPEK_clean_linker_0, # of connection points: 2
#     Edge 41, Type (0, 0), BuildingBlock: EZIPEK_clean_linker_0, # of connection points: 2
#     Edge 42, Type (0, 0), BuildingBlock: EZIPEK_clean_linker_0, # of connection points: 2
#     Edge 43, Type (0, 0), BuildingBlock: EZIPEK_clean_linker_0, # of connection points: 2
#     Edge 44, Type (0, 0), BuildingBlock: EZIPEK_clean_linker_0, # of connection points: 2
#     Edge 45, Type (0, 0), BuildingBlock: EZIPEK_clean_linker_0, # of connection points: 2
#     Edge 46, Type (0, 0), BuildingBlock: EZIPEK_clean_linker_0, # of connection points: 2
#     Edge 47, Type (0, 0), BuildingBlock: EZIPEK_clean_linker_0, # of connection points: 2
# Relax obj value: 0.170
# Max RMSD: 0.210
# Mean RMSD: 0.210
data_MOF--net-wkf--node1-OJICUG_clean_sbu_0--edge1-EZIPEK_clean_linker_0
_symmetry_space_group_name_H-M    P1
_symmetry_Int_Tables_number       1
_symmetry_cell_setting            triclinic
loop_
_symmetry_equiv_pos_as_xyz
'x, y, z'
_cell_length_a     21.672569
_cell_length_b     21.588764
_cell_length_c     53.971065
_cell_angle_alpha  89.82401
_cell_angle_beta   90.097348
_cell_angle_gamma 119.96794
loop_
_atom_site_label
_atom_site_type_symbol
_atom_site_fract_x
_atom_site_fract_y
_atom_site_fract_z
_atom_type_partial_charge
Sc0 Sc 0.4834 0.08774 0.3445 0.0
Sc1 Sc 0.33058 0.09637 0.36198 0.0
Sc2 Sc 0.43093 0.06625 0.4071 0.0
O3 O 0.41495 0.08346 0.37121 0.0
C4 C 0.47197 0.96255 0.37909 0.0
C5 C 0.33234 -0.00142 0.31807 0.0
C6 C 0.26221 0.97518 0.40296 0.0
C7 C 0.45188 0.21035 0.32701 0.0
C8 C 0.58922 0.17141 0.38892 0.0
C9 C 0.38068 0.18172 0.41274 0.0
O10 O 0.48525 -0.00382 0.3587 0.0
O11 O 0.30202 0.02459 0.33111 0.0
O12 O 0.32111 -0.01133 0.41258 0.0
O13 O 0.49042 0.1813 0.32717 0.0
O14 O 0.54181 0.14292 0.40555 0.0
O15 O 0.34877 0.16891 0.39203 0.0
O16 O 0.57657 0.15746 0.366 0.0
O17 O 0.394 0.18638 0.33886 0.0
O18 O 0.41331 0.15 0.42028 0.0
O19 O 0.39727 0.01584 0.32075 0.0
O20 O 0.45116 0.98031 0.3984 0.0
O21 O 0.25674 0.00808 0.38434 0.0
Sc22 Sc 0.35355 0.42035 0.57343 0.0
Sc23 Sc 0.22528 0.33512 0.5268 0.0
Sc24 Sc 0.38364 0.49644 0.5143 0.0
O25 O 0.32031 0.41708 0.53814 0.0
C26 C 0.40042 0.58267 0.56285 0.0
C27 C 0.19087 0.37334 0.5803 0.0
C28 C 0.23061 0.46355 0.49692 0.0
C29 C 0.27469 0.25374 0.56312 0.0
C30 C 0.49433 0.46975 0.54421 0.0
C31 C 0.33184 0.35546 0.4825 0.0
O32 O 0.39807 0.53339 0.57634 0.0
O33 O 0.17161 0.34188 0.55943 0.0
O34 O 0.29782 0.5007 0.49633 0.0
O35 O 0.31393 0.30862 0.57585 0.0
O36 O 0.47922 0.50383 0.52848 0.0
O37 O 0.27198 0.32162 0.49352 0.0
O38 O 0.45216 0.43073 0.56111 0.0
O39 O 0.24161 0.25448 0.54384 0.0
O40 O 0.37974 0.41885 0.48816 0.0
O41 O 0.2553 0.40729 0.58765 0.0
O42 O 0.39005 0.5769 0.53956 0.0
O43 O 0.1965 0.40475 0.50843 0.0
Sc44 Sc 0.86788 0.37834 0.67613 0.0
Sc45 Sc 0.87653 0.22354 0.69026 0.0
Sc46 Sc 0.89481 0.3429 0.7374 0.0
O47 O 0.87927 0.31461 0.70122 0.0
C48 C -0.00635 0.48917 0.71087 0.0
C49 C 0.96681 0.33304 0.64733 0.0
C50 C -0.00616 0.27385 0.73133 0.0
C51 C 0.75517 0.22227 0.65743 0.0
C52 C 0.78494 0.39308 0.72141 0.0
C53 C 0.78794 0.1775 0.7408 0.0
O54 O 0.95136 0.47344 0.69263 0.0
O55 O 0.94091 0.27303 0.65825 0.0
O56 O 0.96596 0.30314 0.7438 0.0
O57 O 0.78296 0.28981 0.65675 0.0
O58 O 0.82477 0.38609 0.73703 0.0
O59 O 0.81236 0.16382 0.72146 0.0
O60 O 0.78777 0.38419 0.69824 0.0
O61 O 0.7805 0.18992 0.66974 0.0
O62 O 0.80698 0.24054 0.74819 0.0
O63 O 0.94843 0.37918 0.65224 0.0
O64 O -0.01497 0.44592 0.72836 0.0
O65 O 0.97292 0.24887 0.70976 0.0
Sc66 Sc 0.54397 0.92802 0.90824 0.0
Sc67 Sc 0.63321 0.89224 0.86147 0.0
Sc68 Sc 0.47697 0.89346 0.84719 0.0
O69 O 0.55091 0.90386 0.87251 0.0
C70 C 0.38188 0.82285 0.89557 0.0
C71 C 0.59327 0.8104 0.9122 0.0
C72 C 0.50287 0.7718 0.83004 0.0
C73 C 0.70986 0.01556 0.90148 0.0
C74 C 0.50537 0.03038 0.87709 0.0
C75 C 0.62161 0.97658 0.81658 0.0
O76 O 0.43406 0.8471 0.91046 0.0
O77 O 0.61259 0.81464 0.88974 0.0
O78 O 0.45828 0.79171 0.83507 0.0
O79 O 0.65341 0.01001 0.91052 0.0
O80 O 0.49231 -0.00477 0.85711 0.0
O81 O 0.65977 0.97147 0.8334 0.0
O82 O 0.51972 0.01082 0.8976 0.0
O83 O 0.71032 0.9747 0.8848 0.0
O84 O 0.554 0.9436 0.81767 0.0
O85 O 0.57044 0.8493 0.92167 0.0
O86 O 0.38903 0.84024 0.87282 0.0
O87 O 0.56797 0.80647 0.83647 0.0
Sc88 Sc 0.58131 0.48589 0.01097 0.0
Sc89 Sc 0.73654 0.64602 0.02718 0.0
Sc90 Sc 0.61426 0.54126 0.07339 0.0
O91 O 0.64431 0.55758 0.03723 0.0
C92 C 0.47176 0.50578 0.04445 0.0
C93 C 0.63545 0.63346 0.98249 0.0
C94 C 0.68402 0.70959 0.06962 0.0
C95 C 0.73489 0.52237 0.99398 0.0
C96 C 0.55977 0.38223 0.0563 0.0
C97 C 0.78059 0.59823 0.07727 0.0
O98 O 0.49096 0.49175 0.02395 0.0
O99 O 0.68545 0.67042 0.9976 0.0
O100 O 0.64545 0.65001 0.08016 0.0
O101 O 0.66893 0.47737 0.99644 0.0
O102 O 0.58183 0.43075 0.0725 0.0
O103 O 0.79651 0.6323 0.05678 0.0
O104 O 0.55331 0.39323 0.03361 0.0
O105 O 0.76529 0.58497 1.00313 0.0
O106 O 0.71709 0.56101 0.08522 0.0
O107 O 0.59832 0.56592 0.98376 0.0
O108 O 0.50889 0.52231 0.0642 0.0
O109 O 0.71842 0.71684 0.04982 0.0
Sc110 Sc 0.03578 0.61592 0.24097 0.0
Sc111 Sc 0.08145 0.74605 0.19435 0.0
Sc112 Sc 0.08112 0.58605 0.18169 0.0
O113 O 0.06635 0.64975 0.20565 0.0
C114 C 0.14928 0.56737 0.23071 0.0
C115 C 0.1511 0.77913 0.24847 0.0
C116 C 0.20392 0.7396 0.16502 0.0
C117 C 0.94928 0.69571 0.22973 0.0
C118 C 0.94291 0.47471 0.21135 0.0
C119 C -0.00305 0.6421 0.14915 0.0
O120 O 0.10394 0.57123 0.24441 0.0
O121 O 0.14021 0.79887 0.22743 0.0
O122 O 0.17258 0.67204 0.16428 0.0
O123 O 0.96439 0.65627 0.24273 0.0
O124 O -0.00906 0.49049 0.1952 0.0
O125 O 0.02314 0.70146 0.16057 0.0
O126 O 0.9475 0.51645 0.22864 0.0
O127 O -0.01623 0.729 0.21056 0.0
O128 O 0.01017 0.59261 0.15494 0.0
O129 O 0.12046 0.71425 0.25564 0.0
O130 O 0.1529 0.57717 0.20737 0.0
O131 O 0.18032 0.77447 0.17658 0.0
Sc132 Sc 0.87691 0.48657 0.48985 0.0
Sc133 Sc 0.88351 0.65055 0.47878 0.0
Sc134 Sc 0.92837 0.56905 0.43155 0.0
O135 O 0.89591 0.56871 0.4668 0.0
C136 C 0.01876 0.51855 0.46152 0.0
C137 C 0.95424 0.61943 0.52608 0.0
C138 C 0.01669 0.73441 0.44445 0.0
C139 C 0.75522 0.51876 0.50556 0.0
C140 C 0.81538 0.40519 0.43955 0.0
C141 C 0.8157 0.61907 0.42427 0.0
O142 O 0.97012 0.48547 0.47748 0.0
O143 O 0.93713 0.6577 0.513 0.0
O144 O -0.00114 0.68108 0.43054 0.0
O145 O 0.78306 0.47931 0.50546 0.0
O146 O 0.86146 0.45667 0.4267 0.0
O147 O 0.82769 0.64983 0.44529 0.0
O148 O 0.8096 0.40838 0.46286 0.0
O149 O 0.78291 0.58007 0.49554 0.0
O150 O 0.84493 0.58388 0.41703 0.0
O151 O 0.94078 0.5577 0.51915 0.0
O152 O 0.01513 0.55637 0.44417 0.0
O153 O -0.01581 0.73139 0.46429 0.0
Sc154 Sc 0.33717 0.90663 0.60029 0.0
Sc155 Sc 0.21045 0.88443 0.64549 0.0
Sc156 Sc 0.36523 0.8809 0.66307 0.0
O157 O 0.30422 0.89034 0.63629 0.0
C158 C 0.38856 0.79922 0.6185 0.0
C159 C 0.17325 0.79535 0.59488 0.0
C160 C 0.20797 0.76344 0.67963 0.0
C161 C 0.26664 0.00493 0.6046 0.0
C162 C 0.47981 0.00818 0.62907 0.0
C163 C 0.30937 0.97475 0.69023 0.0
O164 O 0.37557 0.83308 0.60206 0.0
O165 O 0.15651 0.81602 0.6145 0.0
O166 O 0.27515 0.78938 0.67987 0.0
O167 O 0.30219 0.98179 0.59324 0.0
O168 O 0.46022 0.97087 0.64879 0.0
O169 O 0.25376 0.95229 0.67712 0.0
O170 O 0.44056 -0.00534 0.61001 0.0
O171 O 0.23446 0.97869 0.62485 0.0
O172 O 0.35512 0.95493 0.68731 0.0
O173 O 0.23694 0.82044 0.58742 0.0
O174 O 0.38417 0.80761 0.64161 0.0
O175 O 0.17692 0.79056 0.66759 0.0
Sc176 Sc 0.48203 0.39538 0.82325 0.0
Sc177 Sc 0.32464 0.23556 0.81228 0.0
Sc178 Sc 0.39676 0.3611 0.76504 0.0
O179 O 0.40184 0.33116 0.80021 0.0
C180 C 0.45368 0.50663 0.79435 0.0
C181 C 0.34039 0.33689 0.85641 0.0
C182 C 0.2367 0.28175 0.77671 0.0
C183 C 0.45921 0.24857 0.8417 0.0
C184 C 0.55919 0.40953 0.77102 0.0
C185 C 0.35173 0.19539 0.7601 0.0
O186 O 0.47129 0.48506 0.81349 0.0
O187 O 0.30073 0.28747 0.84135 0.0
O188 O 0.29072 0.33861 0.7694 0.0
O189 O 0.5017 0.31322 0.83617 0.0
O190 O 0.50326 0.38666 0.75802 0.0
O191 O 0.34923 0.18391 0.78327 0.0
O192 O 0.56102 0.41827 0.79446 0.0
O193 O 0.39351 0.21691 0.83619 0.0
O194 O 0.35949 0.25364 0.75112 0.0
O195 O 0.40801 0.37471 0.85383 0.0
O196 O 0.42982 0.47011 0.77471 0.0
O197 O 0.24077 0.23576 0.79029 0.0
Sc198 Sc 0.04415 0.41373 0.93451 0.0
Sc199 Sc 0.0885 0.33015 0.98174 0.0
Sc200 Sc 0.08659 0.48996 0.99365 0.0
O201 O 0.07348 0.41122 0.96996 0.0
C202 C 0.15816 0.57772 0.94487 0.0
C203 C 0.16665 0.37079 0.92989 0.0
C204 C 0.20521 0.45872 0.0141 0.0
C205 C 0.96152 0.24606 0.94352 0.0
C206 C 0.95186 0.46657 0.96214 0.0
C207 C -0.00761 0.34451 0.0237 0.0
O208 O 0.1135 0.52707 0.93131 0.0
O209 O 0.1596 0.34608 0.95176 0.0
O210 O 0.17647 0.49713 0.01278 0.0
O211 O 0.96926 0.30227 0.93325 0.0
O212 O -0.00188 0.49627 0.97902 0.0
O213 O 0.0166 0.30964 0.01217 0.0
O214 O 0.95653 0.42846 0.94522 0.0
O215 O 0.00178 0.24756 0.96082 0.0
O216 O 0.01253 0.41022 0.0195 0.0
O217 O 0.129 0.39606 0.92096 0.0
O218 O 0.16054 0.57203 0.96835 0.0
O219 O 0.17958 0.3983 0.00376 0.0
Sc220 Sc 0.5785 0.0894 0.15559 0.0
Sc221 Sc 0.73776 0.08947 0.14463 0.0
Sc222 Sc 0.60791 0.03897 0.09858 0.0
O223 O 0.64211 0.0721 0.13323 0.0
C224 C 0.47196 0.94549 0.12778 0.0
C225 C 0.63031 0.00324 0.18888 0.0
C226 C 0.69621 0.96127 0.10877 0.0
C227 C 0.73016 0.21142 0.17371 0.0
C228 C 0.55767 0.14816 0.10604 0.0
C229 C 0.76625 0.16259 0.09095 0.0
O230 O 0.48348 -9e-05 0.14042 0.0
O231 O 0.69148 0.03157 0.17857 0.0
O232 O 0.66121 0.97922 0.09466 0.0
O233 O 0.66281 0.17939 0.1744 0.0
O234 O 0.54383 0.08898 0.09692 0.0
O235 O 0.78787 0.14747 0.11089 0.0
O236 O 0.57787 0.16353 0.12846 0.0
O237 O 0.76527 0.18894 0.16178 0.0
O238 O 0.70075 0.13331 0.08468 0.0
O239 O 0.58109 0.01614 0.1824 0.0
O240 O 0.51681 0.94533 0.1127 0.0
O241 O 0.72217 -0.00871 0.12928 0.0
Sc242 Sc 0.53555 0.61716 0.26527 0.0
Sc243 Sc 0.63688 0.74837 0.309 0.0
Sc244 Sc 0.48326 0.59198 0.32749 0.0
O245 O 0.5522 0.65266 0.30061 0.0
C246 C 0.37975 0.57085 0.28375 0.0
C247 C 0.58231 0.77935 0.25799 0.0
C248 C 0.52297 0.74868 0.34446 0.0
C249 C 0.70417 0.695 0.2692 0.0
C250 C 0.49747 0.47783 0.29427 0.0
C251 C 0.63083 0.64749 0.35378 0.0
O252 O 0.42238 0.57035 0.26782 0.0
O253 O 0.62319 0.79928 0.27676 0.0
O254 O 0.49009 0.68143 0.34771 0.0
O255 O 0.64599 0.65886 0.25766 0.0
O256 O 0.4693 0.49417 0.31183 0.0
O257 O 0.65934 0.70679 0.34212 0.0
O258 O 0.53054 0.51936 0.27635 0.0
O259 O 0.70957 0.72605 0.28964 0.0
O260 O 0.56811 0.59647 0.3495 0.0
O261 O 0.54174 0.71417 0.25207 0.0
O262 O 0.39541 0.58551 0.30653 0.0
O263 O 0.57253 0.78018 0.32876 0.0
C264 C 0.26935 0.88618 0.25918 0.0
C265 C 0.19875 0.83485 0.26613 0.0
C266 C 0.22135 0.88386 0.308 0.0
C267 C 0.28792 0.94157 0.30013 0.0
N268 N 0.36965 0.00432 0.26657 0.0
N269 N 0.10228 0.79622 0.29558 0.0
C270 C 0.31067 0.94461 0.27525 0.0
C271 C 0.17316 0.83681 0.29011 0.0
N272 N 0.2978 0.87806 0.23769 0.0
N273 N 0.20504 0.87191 0.33265 0.0
H274 H 0.06409 0.76337 0.28268 0.0
H275 H 0.08045 0.80134 0.31212 0.0
H276 H 0.24032 0.9027 0.34658 0.0
H277 H 0.15993 0.82649 0.33928 0.0
H278 H 0.35138 0.90995 0.23306 0.0
H279 H 0.26977 0.83511 0.22569 0.0
H280 H 0.3843 0.01175 0.24795 0.0
H281 H 0.39993 0.0495 0.2774 0.0
C282 C 0.3736 0.34061 0.44027 0.0
C283 C 0.34918 0.31446 0.46457 0.0
C284 C 0.34051 0.20043 0.45389 0.0
C285 C 0.37139 0.22858 0.43044 0.0
N286 N 0.42977 0.32994 0.40289 0.0
N287 N 0.33025 0.22732 0.49637 0.0
C288 C 0.39169 0.30014 0.42405 0.0
C289 C 0.33886 0.24671 0.47194 0.0
N290 N 0.37655 0.40216 0.43229 0.0
N291 N 0.3095 0.12876 0.45869 0.0
H292 H 0.332 0.26081 0.51051 0.0
H293 H 0.32989 0.18158 0.50283 0.0
H294 H 0.30683 0.09164 0.44581 0.0
H295 H 0.27953 0.10508 0.47459 0.0
H296 H 0.38717 0.41988 0.41399 0.0
H297 H 0.36221 0.43233 0.44342 0.0
H298 H 0.45226 0.38401 0.39855 0.0
H299 H 0.44439 0.30195 0.39077 0.0
C300 C 0.08464 0.34374 0.63905 0.0
C301 C 0.02721 0.35182 0.63032 0.0
C302 C 0.08418 0.38644 0.58953 0.0
C303 C 0.13512 0.36743 0.59745 0.0
N304 N 0.17285 0.31165 0.62828 0.0
N305 N 0.96732 0.37275 0.59631 0.0
C306 C 0.13262 0.34185 0.62184 0.0
C307 C 0.02564 0.37141 0.60529 0.0
N308 N 0.09446 0.33942 0.66389 0.0
N309 N 0.09267 0.42021 0.56728 0.0
H310 H 0.92324 0.36138 0.60723 0.0
H311 H 0.96006 0.37939 0.57762 0.0
H312 H 0.13651 0.43488 0.55579 0.0
H313 H 0.05965 0.43911 0.56108 0.0
H314 H 0.13954 0.34049 0.67119 0.0
H315 H 0.06182 0.34289 0.6773 0.0
H316 H 0.16713 0.2857 0.64516 0.0
H317 H 0.20598 0.30507 0.61589 0.0
C318 C 0.76802 0.07937 0.77015 0.0
C319 C 0.74088 0.1173 0.75695 0.0
C320 C 0.63325 0.06177 0.7819 0.0
C321 C 0.65831 0.02036 0.79441 0.0
N322 N 0.73609 0.96984 0.79194 0.0
N323 N 0.63603 0.11798 0.74283 0.0
C324 C 0.72164 0.02282 0.78593 0.0
C325 C 0.66964 0.10011 0.76041 0.0
N326 N 0.8381 0.0982 0.7683 0.0
N327 N 0.57859 0.06917 0.79107 0.0
H328 H 0.66092 0.14267 0.72622 0.0
H329 H 0.58185 0.10133 0.74377 0.0
H330 H 0.55429 0.04852 0.80807 0.0
H331 H 0.56343 0.10355 0.78302 0.0
H332 H 0.8612 0.07588 0.77952 0.0
H333 H 0.87428 0.14023 0.75718 0.0
H334 H 0.77934 0.96747 0.78461 0.0
H335 H 0.70002 0.92363 0.80144 0.0
C336 C 0.54172 0.70155 0.93921 0.0
C337 C 0.60224 0.76068 0.92856 0.0
C338 C 0.68025 0.7236 0.94831 0.0
C339 C 0.62157 0.67148 0.96215 0.0
N340 N 0.49509 0.61043 0.97118 0.0
N341 N 0.73017 0.8343 0.92529 0.0
C342 C 0.55159 0.65963 0.95754 0.0
C343 C 0.6718 0.77325 0.93361 0.0
N344 N 0.47508 0.68548 0.93156 0.0
N345 N 0.74343 0.72375 0.94837 0.0
H346 H 0.72682 0.8726 0.91448 0.0
H347 H 0.78192 0.85009 0.93098 0.0
H348 H 0.75073 0.68589 0.95798 0.0
H349 H 0.78577 0.75604 0.9367 0.0
H350 H 0.42825 0.64046 0.93714 0.0
H351 H 0.46642 0.71492 0.91802 0.0
H352 H 0.44383 0.60245 0.96984 0.0
H353 H 0.49923 0.57949 0.98513 0.0
C354 C 0.88337 0.63689 0.13716 0.0
C355 C 0.94147 0.62766 0.13034 0.0
C356 C 0.89193 0.59376 0.08838 0.0
C357 C 0.83855 0.6108 0.09472 0.0
N358 N 0.79653 0.66783 0.12324 0.0
N359 N 0.00735 0.60747 0.09845 0.0
C360 C 0.83807 0.63797 0.11856 0.0
C361 C 0.9475 0.60858 0.10566 0.0
N362 N 0.86946 0.64186 0.16156 0.0
N363 N 0.88855 0.56183 0.06623 0.0
H364 H 0.04936 0.61884 0.1105 0.0
H365 H 0.01799 0.60111 0.08012 0.0
H366 H 0.84956 0.55175 0.05302 0.0
H367 H 0.92108 0.54077 0.06172 0.0
H368 H 0.82342 0.64123 0.16751 0.0
H369 H 0.89941 0.63833 0.17602 0.0
H370 H 0.79999 0.69492 0.1396 0.0
H371 H 0.76462 0.67289 0.10984 0.0
C372 C 0.10064 0.67511 0.57456 0.0
C373 C 0.11445 0.74582 0.57866 0.0
C374 C 0.00488 0.71852 0.55717 0.0
C375 C -0.00243 0.65291 0.54898 0.0
N376 N 0.01551 0.55518 0.56106 0.0
N377 N 0.08708 0.83905 0.5697 0.0
C378 C 0.0391 0.62682 0.56069 0.0
C379 C 0.06825 0.76851 0.56902 0.0
N380 N 0.14677 0.6546 0.58357 0.0
N381 N 0.94925 0.73108 0.55509 0.0
H382 H 0.13618 0.87849 0.57647 0.0
H383 H 0.05793 0.85913 0.56084 0.0
H384 H 0.89896 0.69182 0.54909 0.0
H385 H 0.95017 0.77597 0.5626 0.0
H386 H 0.14492 0.60709 0.57868 0.0
H387 H 0.19017 0.6874 0.59479 0.0
H388 H 0.04002 0.5325 0.57122 0.0
H389 H 0.96515 0.51715 0.55485 0.0
C390 C 0.35463 0.10276 0.70083 0.0
C391 C 0.32346 0.03072 0.70856 0.0
C392 C 0.30043 0.06436 0.74905 0.0
C393 C 0.34349 0.13818 0.74272 0.0
N394 N 0.43091 0.22395 0.71395 0.0
N395 N 0.28047 0.94511 0.74198 0.0
C396 C 0.3765 0.1566 0.719 0.0
C397 C 0.30148 0.01225 0.7334 0.0
N398 N 0.36144 0.12012 0.67628 0.0
N399 N 0.25411 0.04298 0.76855 0.0
H400 H 0.28228 0.90648 0.73096 0.0
H401 H 0.26886 0.93096 0.76059 0.0
H402 H 0.24335 0.07768 0.77855 0.0
H403 H 0.21867 -0.01071 0.77244 0.0
H404 H 0.37879 0.17212 0.67011 0.0
H405 H 0.34316 0.08175 0.6623 0.0
H406 H 0.45864 0.23701 0.69721 0.0
H407 H 0.45461 0.26354 0.7274 0.0
C408 C 0.28218 0.42292 0.90658 0.0
C409 C 0.21644 0.36274 0.91333 0.0
C410 C 0.24801 0.28619 0.88978 0.0
C411 C 0.3047 0.34758 0.87827 0.0
N412 N 0.37294 0.47716 0.87508 0.0
N413 N 0.13407 0.23583 0.91038 0.0
C414 C 0.32183 0.41696 0.88666 0.0
C415 C 0.19864 0.29388 0.90474 0.0
N416 N 0.30772 0.48492 0.91968 0.0
N417 N 0.24311 0.22087 0.88734 0.0
H418 H 0.09671 0.23863 0.92176 0.0
H419 H 0.11551 0.18596 0.90217 0.0
H420 H 0.28121 0.21381 0.87798 0.0
H421 H 0.20645 0.17569 0.89713 0.0
H422 H 0.35865 0.52841 0.91713 0.0
H423 H 0.28084 0.48973 0.93493 0.0
H424 H 0.3839 0.52837 0.87979 0.0
H425 H 0.40052 0.47662 0.85943 0.0
C426 C 0.87496 0.28134 0.08157 0.0
C427 C 0.82078 0.21304 0.07338 0.0
C428 C 0.87093 0.24097 0.03166 0.0
C429 C 0.93173 0.30315 0.04076 0.0
N430 N -0.00482 0.37963 0.07526 0.0
N431 N 0.77568 0.12255 0.04137 0.0
C432 C 0.93463 0.32306 0.06595 0.0
C433 C 0.82058 0.19155 0.04858 0.0
N434 N 0.8684 0.30712 0.10391 0.0
N435 N 0.85992 0.22963 0.00677 0.0
H436 H 0.74055 0.08254 0.05336 0.0
H437 H 0.7788 0.10312 0.02405 0.0
H438 H 0.89607 0.26316 0.99346 0.0
H439 H 0.8114 0.19069 0.99942 0.0
H440 H 0.90276 0.35923 0.10979 0.0
H441 H 0.82442 0.27879 0.11547 0.0
H442 H 0.00281 0.39187 0.09407 0.0
H443 H 0.04024 0.41081 0.0645 0.0
C444 C 0.57138 0.88672 0.24715 0.0
C445 C 0.59022 0.83488 0.24029 0.0
C446 C 0.62312 0.88704 0.19901 0.0
C447 C 0.61302 0.94433 0.20663 0.0
N448 N 0.58536 0.00369 0.2389 0.0
N449 N 0.64878 0.79511 0.21164 0.0
C450 C 0.58871 0.94541 0.23094 0.0
C451 C 0.6201 0.83754 0.21676 0.0
N452 N 0.53603 0.87914 0.26889 0.0
N453 N 0.63277 0.87798 0.17456 0.0
H454 H 0.64921 0.75867 0.22425 0.0
H455 H 0.6786 0.80119 0.19575 0.0
H456 H 0.63227 0.91122 0.1607 0.0
H457 H 0.63276 0.83286 0.16775 0.0
H458 H 0.51418 0.9108 0.27372 0.0
H459 H 0.5235 0.83727 0.28127 0.0
H460 H 0.57496 0.01075 0.25719 0.0
H461 H 0.59869 0.04799 0.22766 0.0
C462 C 0.69592 0.60364 0.4134 0.0
C463 C 0.7675 0.62654 0.40671 0.0
C464 C 0.7435 0.64889 0.36441 0.0
C465 C 0.67555 0.63637 0.37194 0.0
N466 N 0.59088 0.61246 0.40483 0.0
N467 N 0.86366 0.68583 0.37723 0.0
C468 C 0.65251 0.61641 0.39678 0.0
C469 C 0.79257 0.65343 0.38259 0.0
N470 N 0.66855 0.56734 0.43509 0.0
N471 N 0.76027 0.65351 0.33981 0.0
H472 H 0.90213 0.6931 0.39034 0.0
H473 H 0.88507 0.71231 0.36055 0.0
H474 H 0.72424 0.64648 0.32577 0.0
H475 H 0.80674 0.65595 0.33336 0.0
H476 H 0.61467 0.54299 0.43959 0.0
H477 H 0.6982 0.55558 0.44751 0.0
H478 H 0.5755 0.60514 0.42338 0.0
H479 H 0.55836 0.62306 0.39342 0.0
C480 C 0.43726 0.78075 0.36465 0.0
C481 C 0.50774 0.79455 0.36059 0.0
C482 C 0.55595 0.91556 0.37659 0.0
C483 C 0.48567 0.90223 0.37994 0.0
N484 N 0.36413 0.81461 0.38827 0.0
N485 N 0.63142 0.86324 0.3727 0.0
C486 C 0.42774 0.83202 0.37778 0.0
C487 C 0.56635 0.85814 0.36999 0.0
N488 N 0.37989 0.72241 0.35456 0.0
N489 N 0.61238 0.98336 0.37866 0.0
H490 H 0.6396 0.8204 0.3691 0.0
H491 H 0.67453 0.90667 0.38116 0.0
H492 H 0.60629 0.02637 0.38396 0.0
H493 H 0.66416 -0.00277 0.37368 0.0
H494 H 0.32857 0.71505 0.35517 0.0
H495 H 0.38385 0.68478 0.34372 0.0
H496 H 0.32139 0.76237 0.38878 0.0
H497 H 0.35886 0.85092 0.39946 0.0
C498 C 0.55836 0.42658 0.51833 0.0
C499 C 0.55896 0.46652 0.53921 0.0
C500 C 0.68796 0.52259 0.54207 0.0
C501 C 0.68778 0.49304 0.51862 0.0
N502 N 0.62495 0.41717 0.48398 0.0
N503 N 0.62158 0.55068 0.57179 0.0
C504 C 0.62354 0.4439 0.5068 0.0
C505 C 0.62295 0.51313 0.55166 0.0
N506 N 0.49511 0.37275 0.50951 0.0
N507 N 0.75022 0.5592 0.55502 0.0
H508 H 0.57409 0.54245 0.57966 0.0
H509 H 0.66705 0.5918 0.58002 0.0
H510 H 0.79845 0.56597 0.54842 0.0
H511 H 0.75322 0.57735 0.57307 0.0
H512 H 0.49108 0.33726 0.49574 0.0
H513 H 0.44654 0.35983 0.51763 0.0
H514 H 0.5799 0.38807 0.47304 0.0
H515 H 0.67207 0.42763 0.47521 0.0
C516 C 0.1287 0.68652 0.71406 0.0
C517 C 0.1624 0.69278 0.69089 0.0
C518 C 0.10388 0.56325 0.68773 0.0
C519 C 0.06132 0.55688 0.70845 0.0
N520 N 0.03077 0.61067 0.74162 0.0
N521 N 0.1698 0.63719 0.65313 0.0
C522 C 0.07381 0.61799 0.72205 0.0
C523 C 0.14749 0.6312 0.67713 0.0
N524 N 0.14833 0.74611 0.72804 0.0
N525 N 0.10127 0.50374 0.67794 0.0
H526 H 0.20055 0.68627 0.64426 0.0
H527 H 0.15209 0.59334 0.64136 0.0
H528 H 0.07002 0.45322 0.68579 0.0
H529 H 0.1353 0.50585 0.66392 0.0
H530 H 0.1306 0.74471 0.74605 0.0
H531 H 0.18624 0.797 0.72201 0.0
H532 H 0.03153 0.65359 0.75064 0.0
H533 H -0.00823 0.56076 0.74817 0.0
C534 C 0.44921 0.1701 0.87725 0.0
C535 C 0.48592 0.20741 0.8555 0.0
C536 C 0.55765 0.14912 0.85743 0.0
C537 C 0.50928 0.10025 0.87499 0.0
N538 N 0.40927 0.06365 0.90242 0.0
N539 N 0.57557 0.23175 0.82429 0.0
C540 C 0.45598 0.11137 0.8856 0.0
C541 C 0.54164 0.19821 0.84571 0.0
N542 N 0.40846 0.1914 0.88989 0.0
N543 N 0.61807 0.14716 0.8517 0.0
H544 H 0.56602 0.2683 0.81493 0.0
H545 H 0.60994 0.2196 0.81476 0.0
H546 H 0.63073 0.11146 0.86025 0.0
H547 H 0.6585 0.18507 0.84051 0.0
H548 H 0.38479 0.16989 0.90692 0.0
H549 H 0.40476 0.23594 0.88454 0.0
H550 H 0.36396 0.06423 0.90849 0.0
H551 H 0.41387 0.021 0.90935 0.0
C552 C 0.33486 0.54765 0.02061 0.0
C553 C 0.27206 0.48458 0.02813 0.0
C554 C 0.34169 0.44865 0.05396 0.0
C555 C 0.40445 0.50715 0.04428 0.0
N556 N 0.46251 0.62425 0.02584 0.0
N557 N 0.213 0.38982 0.05797 0.0
C558 C 0.40136 0.56109 0.03028 0.0
C559 C 0.27472 0.43995 0.04692 0.0
N560 N 0.33177 0.5915 1.00289 0.0
N561 N 0.34628 0.39988 0.06884 0.0
H562 H 0.16349 0.38387 0.05338 0.0
H563 H 0.21125 0.35895 0.07309 0.0
H564 H 0.39482 0.40798 0.07556 0.0
H565 H 0.30275 0.3511 0.07401 0.0
H566 H 0.37629 0.63524 0.99526 0.0
H567 H 0.28464 0.58294 0.99472 0.0
H568 H 0.46359 0.66907 0.01817 0.0
H569 H 0.51245 0.63321 0.03134 0.0
C570 C 0.83462 0.40945 0.18584 0.0
C571 C 0.87471 0.4095 0.20664 0.0
C572 C 0.80108 0.27987 0.21024 0.0
C573 C 0.77042 0.27927 0.18696 0.0
N574 N 0.75504 0.34118 0.15238 0.0
N575 N 0.8965 0.34763 0.23959 0.0
C576 C 0.78519 0.3435 0.17491 0.0
C577 C 0.8571 0.34558 0.21949 0.0
N578 N 0.84485 0.47283 0.17651 0.0
N579 N 0.77661 0.21752 0.22326 0.0
H580 H 0.93628 0.39553 0.24714 0.0
H581 H 0.89196 0.30232 0.24819 0.0
H582 H 0.73561 0.1687 0.21674 0.0
H583 H 0.79254 0.2148 0.24124 0.0
H584 H 0.81324 0.4768 0.16276 0.0
H585 H 0.8818 0.52197 0.18406 0.0
H586 H 0.77036 0.38576 0.14113 0.0
H587 H 0.71669 0.29358 0.14422 0.0
C588 C 0.1257 0.5576 0.48727 0.0
C589 C 0.08614 0.52025 0.46606 0.0
C590 C 0.15933 0.46456 0.46106 0.0
C591 C 0.18941 0.49153 0.48464 0.0
N592 N 0.20361 0.56373 0.52057 0.0
N593 N 0.06442 0.44039 0.43194 0.0
C594 C 0.17433 0.53921 0.49769 0.0
C595 C 0.10363 0.4754 0.45236 0.0
N596 N 0.11603 0.61018 0.49737 0.0
N597 N 0.18405 0.42855 0.44722 0.0
H598 H 0.02473 0.44925 0.42477 0.0
H599 H 0.06891 0.40056 0.42271 0.0
H600 H 0.22474 0.41974 0.45336 0.0
H601 H 0.16862 0.41254 0.42901 0.0
H602 H 0.14708 0.64346 0.51167 0.0
H603 H 0.08061 0.62477 0.48992 0.0
H604 H 0.18778 0.59119 0.53241 0.0
H605 H 0.24147 0.55321 0.52841 0.0
C606 C 0.60962 0.079 0.61822 0.0
C607 C 0.54927 0.07464 0.63001 0.0
C608 C 0.62463 0.17565 0.65664 0.0
C609 C 0.68537 0.17843 0.64571 0.0
N610 N 0.73818 0.14598 0.61268 0.0
N611 N 0.49833 0.13192 0.65363 0.0
C612 C 0.67863 0.13435 0.62526 0.0
C613 C 0.55673 0.12771 0.64693 0.0
N614 N 0.60075 0.02871 0.60112 0.0
N615 N 0.63114 0.21475 0.6774 0.0
H616 H 0.44802 0.097 0.64648 0.0
H617 H 0.5013 0.17413 0.66387 0.0
H618 H 0.67995 0.25033 0.68542 0.0
H619 H 0.58781 0.20781 0.68788 0.0
H620 H 0.6423 0.02326 0.59393 0.0
H621 H 0.55063 -0.00917 0.59455 0.0
H622 H 0.73694 0.11954 0.59644 0.0
H623 H 0.78918 0.18653 0.61752 0.0
C624 C 0.42104 0.63973 0.82569 0.0
C625 C 0.47875 0.70441 0.81651 0.0
C626 C 0.50928 0.63806 0.78704 0.0
C627 C 0.45303 0.57391 0.79683 0.0
N628 N 0.34178 0.51322 0.81873 0.0
N629 N 0.56244 0.7667 0.78352 0.0
C630 C 0.40372 0.57496 0.81367 0.0
C631 C 0.51789 0.70409 0.79547 0.0
N632 N 0.38706 0.639 0.84709 0.0
N633 N 0.55622 0.63581 0.77072 0.0
H634 H 0.56802 0.81565 0.78889 0.0
H635 H 0.58814 0.76915 0.76695 0.0
H636 H 0.54943 0.58791 0.76359 0.0
H637 H 0.60333 0.6809 0.76521 0.0
H638 H 0.34713 0.5925 0.85522 0.0
H639 H 0.40268 0.68389 0.85813 0.0
H640 H 0.30035 0.51133 0.82908 0.0
H641 H 0.32959 0.46475 0.81052 0.0
C642 C 0.81143 0.52237 0.95926 0.0
C643 C 0.78105 0.49791 0.98307 0.0
C644 C 0.8452 0.43272 0.98749 0.0
C645 C 0.88464 0.46677 0.96587 0.0
N646 N 0.90761 0.54477 0.93093 0.0
N647 N 0.77678 0.43869 0.0216 0.0
C648 C 0.86774 0.51108 0.95139 0.0
C649 C 0.7992 0.45462 0.99756 0.0
N650 N 0.78633 0.55618 0.94436 0.0
N651 N 0.85248 0.37969 0.99846 0.0
H652 H 0.7443 0.45534 0.03006 0.0
H653 H 0.79549 0.41444 0.03386 0.0
H654 H 0.886 0.3627 0.99121 0.0
H655 H 0.82032 0.34819 0.01297 0.0
H656 H 0.80205 0.57019 0.92602 0.0
H657 H 0.74527 0.56513 0.94982 0.0
H658 H 0.90335 0.58402 0.9211 0.0
H659 H 0.94769 0.53558 0.92447 0.0
C660 C 0.40228 0.83942 0.15425 0.0
C661 C 0.40528 0.87907 0.13288 0.0
C662 C 0.27581 0.81074 0.12895 0.0
C663 C 0.27272 0.78001 0.15247 0.0
N664 N 0.33043 0.76182 0.1877 0.0
N665 N 0.34793 0.90309 0.09902 0.0
C666 C 0.33528 0.79233 0.165 0.0
C667 C 0.34287 0.86401 0.11967 0.0
N668 N 0.46386 0.84777 0.1643 0.0
N669 N 0.2146 0.78866 0.11563 0.0
H670 H 0.39681 0.94028 0.0913 0.0
H671 H 0.30432 0.90086 0.09005 0.0
H672 H 0.16471 0.74983 0.12216 0.0
H673 H 0.21349 0.80438 0.09747 0.0
H674 H 0.46576 0.81621 0.17855 0.0
H675 H 0.51362 0.88322 0.1569 0.0
H676 H 0.37376 0.77545 0.1993 0.0
H677 H 0.28196 0.72467 0.19562 0.0
C678 C 0.45408 0.34921 0.2842 0.0
C679 C 0.50067 0.41188 0.29748 0.0
C680 C 0.52556 0.34282 0.32756 0.0
C681 C 0.47817 0.27966 0.31463 0.0
N682 N 0.40994 0.22235 0.27805 0.0
N683 N 0.59781 0.47179 0.32627 0.0
C684 C 0.44692 0.28287 0.29191 0.0
C685 C 0.54246 0.40969 0.31726 0.0
N686 N 0.41421 0.35275 0.2652 0.0
N687 N 0.55009 0.33884 0.35051 0.0
H688 H 0.61184 0.52165 0.31868 0.0
H689 H 0.63389 0.47325 0.33937 0.0
H690 H 0.53821 0.29053 0.3589 0.0
H691 H 0.57762 0.38298 0.36204 0.0
H692 H 0.37338 0.30799 0.25653 0.0
H693 H 0.42003 0.40109 0.25884 0.0
H694 H 0.39048 0.2219 0.26037 0.0
H695 H 0.40389 0.17319 0.28353 0.0
C696 C 0.14024 0.79431 0.42934 0.0
C697 C 0.08155 0.80069 0.43731 0.0
C698 C 0.14428 0.92635 0.42462 0.0
C699 C 0.19726 0.91539 0.41343 0.0
N700 N 0.23093 0.83176 0.39828 0.0
N701 N 0.02212 0.87037 0.43882 0.0
C702 C 0.19117 0.84735 0.41384 0.0
C703 C 0.0819 0.86625 0.43415 0.0
N704 N 0.14798 0.73805 0.43684 0.0
N705 N 0.15379 -0.00634 0.42646 0.0
H706 H 0.97479 0.82733 0.4453 0.0
H707 H 0.01773 0.91495 0.43427 0.0
H708 H 0.19817 0.0387 0.41923 0.0
H709 H 0.12028 0.00527 0.4368 0.0
H710 H 0.19302 0.73439 0.43263 0.0
H711 H 0.11356 0.69996 0.44955 0.0
H712 H 0.22129 0.77971 0.396 0.0
H713 H 0.26695 0.86886 0.38567 0.0
C714 C 0.20427 0.13072 0.58078 0.0
C715 C 0.26948 0.1866 0.57137 0.0
C716 C 0.33279 0.12817 0.58727 0.0
C717 C 0.26673 0.06821 0.59423 0.0
N718 N 0.13771 0.00787 0.59447 0.0
N719 N 0.39311 0.23243 0.56106 0.0
C720 C 0.20178 0.06804 0.59012 0.0
C721 C 0.33288 0.18325 0.57312 0.0
N722 N 0.14569 0.13889 0.58196 0.0
N723 N 0.39557 0.13471 0.59541 0.0
H724 H 0.39513 0.27386 0.55047 0.0
H725 H 0.43869 0.22801 0.55961 0.0
H726 H 0.398 0.09757 0.60713 0.0
H727 H 0.44477 0.18083 0.59291 0.0
H728 H 0.09933 0.10358 0.59141 0.0
H729 H 0.14518 0.18399 0.57526 0.0
H730 H 0.08926 0.00237 0.58879 0.0
H731 H 0.13266 0.96127 0.60209 0.0
C732 C 0.15373 0.32743 0.77181 0.0
C733 C 0.167 0.27036 0.76854 0.0
C734 C 0.05999 0.20891 0.7429 0.0
C735 C 0.05516 0.27228 0.74265 0.0
N736 N 0.11225 0.39903 0.75156 0.0
N737 N 0.13845 0.1601 0.7477 0.0
C738 C 0.10622 0.33372 0.75564 0.0
C739 C 0.12156 0.21154 0.75328 0.0
N740 N 0.18638 0.37539 0.7905 0.0
N741 N 0.00545 0.14588 0.73417 0.0
H742 H 0.18306 0.15986 0.75481 0.0
H743 H 0.11104 0.12075 0.73442 0.0
H744 H 0.95846 0.14063 0.72698 0.0
H745 H 0.00409 0.09723 0.73633 0.0
H746 H 0.17474 0.41562 0.79461 0.0
H747 H 0.21802 0.3687 0.80361 0.0
H748 H 0.15253 0.44596 0.75945 0.0
H749 H 0.08319 0.40761 0.73792 0.0
C750 C 0.79482 0.06226 0.93695 0.0
C751 C 0.77856 0.06914 0.91198 0.0
C752 C 0.89621 0.17359 0.90688 0.0
C753 C 0.90578 0.17695 0.93299 0.0
N754 N 0.8664 0.11935 0.97313 0.0
N755 N 0.81183 0.1332 0.8731 0.0
C756 C 0.85643 0.11927 0.94814 0.0
C757 C 0.829 0.12483 0.8968 0.0
N758 N 0.75242 0.00037 0.9497 0.0
N759 N 0.95225 0.2159 0.89173 0.0
H760 H 0.76257 0.09891 0.86504 0.0
H761 H 0.84424 0.17771 0.86221 0.0
H762 H 0.00341 0.2497 0.89854 0.0
H763 H 0.94993 0.21121 0.87249 0.0
H764 H 0.76575 -0.01165 0.96689 0.0
H765 H 0.70668 0.95767 0.94213 0.0
H766 H 0.82738 0.08379 0.98525 0.0
H767 H 0.91234 0.15616 0.98227 0.0
C768 C 0.62989 0.83158 0.10077 0.0
C769 C 0.69637 0.89554 0.10227 0.0
C770 C 0.75635 0.83353 0.08664 0.0
C771 C 0.68868 0.77336 0.0812 0.0
N772 N 0.56016 0.71919 0.07995 0.0
N773 N 0.82294 0.96079 0.09489 0.0
C774 C 0.6251 0.77318 0.08756 0.0
C775 C 0.75991 0.89755 0.09489 0.0
N776 N 0.57143 0.82635 0.11233 0.0
N777 N 0.81672 0.82866 0.08492 0.0
H778 H 0.82752 0.0085 0.10125 0.0
H779 H 0.86947 0.96683 0.08699 0.0
H780 H 0.81618 0.78187 0.07979 0.0
H781 H 0.86642 0.86873 0.09098 0.0
H782 H 0.52332 0.77854 0.11406 0.0
H783 H 0.57341 0.86819 0.12249 0.0
H784 H 0.5133 0.7212 0.08162 0.0
H785 H 0.55348 0.6753 0.06988 0.0
C786 C 0.76567 0.63176 0.25401 0.0
C787 C 0.76748 0.69714 0.25868 0.0
C788 C 0.89004 0.76402 0.24368 0.0
C789 C 0.88544 0.69838 0.23694 0.0
N790 N 0.81274 0.57156 0.22955 0.0
N791 N 0.82493 0.82515 0.25313 0.0
C792 C 0.82116 0.63275 0.24014 0.0
C793 C 0.82778 0.76338 0.25209 0.0
N794 N 0.71288 0.56912 0.26383 0.0
N795 N 0.9541 0.82619 0.24326 0.0
H796 H 0.77975 0.82662 0.25888 0.0
H797 H 0.865 0.87373 0.24613 0.0
H798 H 0.00127 0.82891 0.23749 0.0
H799 H 0.96146 0.87401 0.25059 0.0
H800 H 0.71326 0.5211 0.26288 0.0
H801 H 0.6729 0.56655 0.27524 0.0
H802 H 0.76438 0.52361 0.22942 0.0
H803 H 0.85194 0.57075 0.21863 0.0
C804 C 0.7262 0.35435 0.40568 0.0
C805 C 0.76139 0.34263 0.42576 0.0
C806 C 0.69215 0.21413 0.41833 0.0
C807 C 0.66052 0.2273 0.39729 0.0
N808 N 0.67255 0.31265 0.36573 0.0
N809 N 0.79034 0.26282 0.4476 0.0
C810 C 0.68625 0.2982 0.38907 0.0
C811 C 0.74838 0.27285 0.43103 0.0
N812 N 0.72633 0.41744 0.40343 0.0
N813 N 0.66747 0.14576 0.42643 0.0
H814 H 0.83237 0.30495 0.45701 0.0
H815 H 0.78743 0.21366 0.45038 0.0
H816 H 0.62931 0.10139 0.41675 0.0
H817 H 0.68238 0.13342 0.44328 0.0
H818 H 0.69662 0.42604 0.39005 0.0
H819 H 0.74775 0.45681 0.41701 0.0
H820 H 0.69537 0.36468 0.35882 0.0
H821 H 0.64652 0.27355 0.35232 0.0
C822 C 0.3489 0.67198 0.61106 0.0
C823 C 0.40367 0.74385 0.60931 0.0
C824 C 0.46206 0.71053 0.57724 0.0
C825 C 0.40058 0.6418 0.57635 0.0
N826 N 0.2783 0.56317 0.58829 0.0
N827 N 0.51467 0.83321 0.5916 0.0
C828 C 0.34191 0.62425 0.59211 0.0
C829 C 0.46128 0.76362 0.59264 0.0
N830 N 0.30427 0.6488 0.63096 0.0
N831 N 0.52102 0.72431 0.56385 0.0
H832 H 0.51805 0.87107 0.60433 0.0
H833 H 0.55406 0.85342 0.57803 0.0
H834 H 0.52193 0.68674 0.55196 0.0
H835 H 0.56989 0.7712 0.56551 0.0
H836 H 0.26747 0.59494 0.63397 0.0
H837 H 0.31072 0.68172 0.64596 0.0
H838 H 0.23214 0.55099 0.59808 0.0
H839 H 0.26992 0.52937 0.57333 0.0
C840 C 0.6752 0.47042 0.74783 0.0
C841 C 0.61916 0.40803 0.75895 0.0
C842 C 0.66992 0.33665 0.74392 0.0
C843 C 0.72451 0.39785 0.73182 0.0
N844 N 0.77776 0.52161 0.72009 0.0
N845 N 0.55569 0.27966 0.76436 0.0
C846 C 0.72663 0.46452 0.73304 0.0
C847 C 0.61454 0.34065 0.75613 0.0
N848 N 0.67928 0.5349 0.75175 0.0
N849 N 0.67231 0.27474 0.74457 0.0
H850 H 0.51503 0.27968 0.77466 0.0
H851 H 0.54463 0.22836 0.75962 0.0
H852 H 0.70681 0.26617 0.73359 0.0
H853 H 0.64331 0.23429 0.75735 0.0
H854 H 0.72118 0.58368 0.74578 0.0
H855 H 0.64185 0.54002 0.76236 0.0
H856 H 0.78004 0.57074 0.71861 0.0
H857 H 0.81631 0.51848 0.70948 0.0
C858 C 0.28701 0.77434 0.9286 0.0
C859 C 0.31165 0.76629 0.90508 0.0
C860 C 0.23981 0.63726 0.9088 0.0
C861 C 0.21175 0.64392 0.93182 0.0
N862 N 0.19424 0.72112 0.9598 0.0
N863 N 0.28336 0.69052 0.86888 0.0
C864 C 0.2311 0.71324 0.94073 0.0
C865 C 0.27863 0.69818 0.89379 0.0
N866 N 0.31664 0.84043 0.93921 0.0
N867 N 0.23357 0.57372 0.90172 0.0
H868 H 0.3071 0.73316 0.85655 0.0
H869 H 0.25465 0.6412 0.86005 0.0
H870 H 0.21188 0.52881 0.91306 0.0
H871 H 0.25843 0.56847 0.886 0.0
H872 H 0.30756 0.84859 0.95754 0.0
H873 H 0.35227 0.88693 0.92972 0.0
H874 H 0.20219 0.77059 0.96555 0.0
H875 H 0.15052 0.67809 0.96819 0.0
C876 C 0.5038 0.22651 0.09963 0.0
C877 C 0.54537 0.1976 0.09041 0.0
C878 C 0.58202 0.27891 0.05472 0.0
C879 C 0.54402 0.31064 0.06473 0.0
N880 N 0.45171 0.30142 0.09169 0.0
N881 N 0.60208 0.17915 0.05431 0.0
C882 C 0.49951 0.28014 0.0857 0.0
C883 C 0.577 0.21778 0.06638 0.0
N884 N 0.46789 0.20219 0.12153 0.0
N885 N 0.62692 0.30947 0.03502 0.0
H886 H 0.6028 0.13502 0.06147 0.0
H887 H 0.61601 0.18644 0.03562 0.0
H888 H 0.63009 0.35152 0.02464 0.0
H889 H 0.6648 0.29579 0.02975 0.0
H890 H 0.44483 0.2275 0.13097 0.0
H891 H 0.46214 0.15693 0.13064 0.0
H892 H 0.41328 0.27778 0.10547 0.0
H893 H 0.44612 0.33864 0.08103 0.0
C894 C 0.32007 0.63417 0.26696 0.0
C895 C 0.31572 0.56849 0.2736 0.0
C896 C 0.20534 0.50161 0.24977 0.0
C897 C 0.20882 0.5672 0.24373 0.0
N898 N 0.26284 0.69505 0.24875 0.0
N899 N 0.25291 0.44002 0.27427 0.0
C900 C 0.26431 0.63324 0.25298 0.0
C901 C 0.25772 0.50212 0.26587 0.0
N902 N 0.37942 0.69759 0.27296 0.0
N903 N 0.15259 0.43945 0.23974 0.0
H904 H 0.29059 0.43954 0.28623 0.0
H905 H 0.20987 0.38934 0.27092 0.0
H906 H 0.11344 0.43793 0.22805 0.0
H907 H 0.14944 0.39002 0.2417 0.0
H908 H 0.39065 0.74682 0.26567 0.0
H909 H 0.4201 0.70106 0.28427 0.0
H910 H 0.29564 0.74304 0.25781 0.0
H911 H 0.22604 0.69783 0.23703 0.0
loop_
_geom_bond_atom_site_label_1
_geom_bond_atom_site_label_2
_geom_bond_distance
_geom_bond_site_symmetry_2
_ccdc_geom_bond_type
Sc0 O3 2.025 . S
Sc0 O10 2.105 . S
Sc0 O13 2.105 . S
Sc0 O16 2.105 . S
Sc0 O19 2.105 . S
Sc1 O3 2.025 . S
Sc1 O11 2.105 . S
Sc1 O15 2.105 . S
Sc1 O17 2.105 . S
Sc1 O21 2.105 . S
Sc2 O3 2.025 . S
Sc2 O12 2.105 1_545 S
Sc2 O14 2.105 . S
Sc2 O18 2.105 . S
Sc2 O20 2.105 . S
O3 Sc0 2.025 . S
O3 Sc1 2.025 . S
O3 Sc2 2.025 . S
C4 O10 1.268 . S
C4 O20 1.268 . S
C5 O11 1.268 . S
C5 O19 1.268 . S
C6 O12 1.268 . S
C6 O21 1.268 1_565 S
C7 O13 1.268 . S
C7 O17 1.268 . S
C8 O14 1.268 . S
C8 O16 1.268 . S
C9 O15 1.268 . S
C9 O18 1.268 . S
O10 Sc0 2.105 . S
O10 C4 1.268 . S
O11 Sc1 2.105 . S
O11 C5 1.268 . S
O12 Sc2 2.105 1_565 S
O12 C6 1.268 . S
O13 Sc0 2.105 . S
O13 C7 1.268 . S
O14 Sc2 2.105 . S
O14 C8 1.268 . S
O15 Sc1 2.105 . S
O15 C9 1.268 . S
O16 Sc0 2.105 . S
O16 C8 1.268 . S
O17 Sc1 2.105 . S
O17 C7 1.268 . S
O18 Sc2 2.105 . S
O18 C9 1.268 . S
O19 Sc0 2.105 . S
O19 C5 1.268 . S
O20 Sc2 2.105 . S
O20 C4 1.268 . S
O21 Sc1 2.105 . S
O21 C6 1.268 1_545 S
Sc22 O25 2.025 . S
Sc22 O32 2.105 . S
Sc22 O35 2.105 . S
Sc22 O38 2.105 . S
Sc22 O41 2.105 . S
Sc23 O25 2.025 . S
Sc23 O33 2.105 . S
Sc23 O37 2.105 . S
Sc23 O39 2.105 . S
Sc23 O43 2.105 . S
Sc24 O25 2.025 . S
Sc24 O34 2.105 . S
Sc24 O36 2.105 . S
Sc24 O40 2.105 . S
Sc24 O42 2.105 . S
O25 Sc22 2.025 . S
O25 Sc23 2.025 . S
O25 Sc24 2.025 . S
C26 O32 1.268 . S
C26 O42 1.268 . S
C27 O33 1.268 . S
C27 O41 1.268 . S
C28 O34 1.268 . S
C28 O43 1.268 . S
C29 O35 1.268 . S
C29 O39 1.268 . S
C30 O36 1.268 . S
C30 O38 1.268 . S
C31 O37 1.268 . S
C31 O40 1.268 . S
O32 Sc22 2.105 . S
O32 C26 1.268 . S
O33 Sc23 2.105 . S
O33 C27 1.268 . S
O34 Sc24 2.105 . S
O34 C28 1.268 . S
O35 Sc22 2.105 . S
O35 C29 1.268 . S
O36 Sc24 2.105 . S
O36 C30 1.268 . S
O37 Sc23 2.105 . S
O37 C31 1.268 . S
O38 Sc22 2.105 . S
O38 C30 1.268 . S
O39 Sc23 2.105 . S
O39 C29 1.268 . S
O40 Sc24 2.105 . S
O40 C31 1.268 . S
O41 Sc22 2.105 . S
O41 C27 1.268 . S
O42 Sc24 2.105 . S
O42 C26 1.268 . S
O43 Sc23 2.105 . S
O43 C28 1.268 . S
Sc44 O47 2.025 . S
Sc44 O54 2.105 . S
Sc44 O57 2.105 . S
Sc44 O60 2.105 . S
Sc44 O63 2.105 . S
Sc45 O47 2.025 . S
Sc45 O55 2.105 . S
Sc45 O59 2.105 . S
Sc45 O61 2.105 . S
Sc45 O65 2.105 . S
Sc46 O47 2.025 . S
Sc46 O56 2.105 1_655 S
Sc46 O58 2.105 . S
Sc46 O62 2.105 . S
Sc46 O64 2.105 . S
O47 Sc44 2.025 . S
O47 Sc45 2.025 . S
O47 Sc46 2.025 . S
C48 O54 1.268 . S
C48 O64 1.268 . S
C49 O55 1.268 . S
C49 O63 1.268 . S
C50 O56 1.268 . S
C50 O65 1.268 1_455 S
C51 O57 1.268 . S
C51 O61 1.268 . S
C52 O58 1.268 . S
C52 O60 1.268 . S
C53 O59 1.268 . S
C53 O62 1.268 . S
O54 Sc44 2.105 . S
O54 C48 1.268 . S
O55 Sc45 2.105 . S
O55 C49 1.268 . S
O56 Sc46 2.105 1_455 S
O56 C50 1.268 . S
O57 Sc44 2.105 . S
O57 C51 1.268 . S
O58 Sc46 2.105 . S
O58 C52 1.268 . S
O59 Sc45 2.105 . S
O59 C53 1.268 . S
O60 Sc44 2.105 . S
O60 C52 1.268 . S
O61 Sc45 2.105 . S
O61 C51 1.268 . S
O62 Sc46 2.105 . S
O62 C53 1.268 . S
O63 Sc44 2.105 . S
O63 C49 1.268 . S
O64 Sc46 2.105 . S
O64 C48 1.268 . S
O65 Sc45 2.105 . S
O65 C50 1.268 1_655 S
Sc66 O69 2.025 . S
Sc66 O76 2.105 . S
Sc66 O79 2.105 1_565 S
Sc66 O82 2.105 . S
Sc66 O85 2.105 . S
Sc67 O69 2.025 . S
Sc67 O77 2.105 . S
Sc67 O81 2.105 . S
Sc67 O83 2.105 . S
Sc67 O87 2.105 . S
Sc68 O69 2.025 . S
Sc68 O78 2.105 . S
Sc68 O80 2.105 . S
Sc68 O84 2.105 . S
Sc68 O86 2.105 . S
O69 Sc66 2.025 . S
O69 Sc67 2.025 . S
O69 Sc68 2.025 . S
C70 O76 1.268 . S
C70 O86 1.268 . S
C71 O77 1.268 . S
C71 O85 1.268 . S
C72 O78 1.268 . S
C72 O87 1.268 . S
C73 O79 1.268 . S
C73 O83 1.268 1_545 S
C74 O80 1.268 . S
C74 O82 1.268 . S
C75 O81 1.268 . S
C75 O84 1.268 . S
O76 Sc66 2.105 . S
O76 C70 1.268 . S
O77 Sc67 2.105 . S
O77 C71 1.268 . S
O78 Sc68 2.105 . S
O78 C72 1.268 . S
O79 Sc66 2.105 1_545 S
O79 C73 1.268 . S
O80 Sc68 2.105 . S
O80 C74 1.268 . S
O81 Sc67 2.105 . S
O81 C75 1.268 . S
O82 Sc66 2.105 . S
O82 C74 1.268 . S
O83 Sc67 2.105 . S
O83 C73 1.268 1_565 S
O84 Sc68 2.105 . S
O84 C75 1.268 . S
O85 Sc66 2.105 . S
O85 C71 1.268 . S
O86 Sc68 2.105 . S
O86 C70 1.268 . S
O87 Sc67 2.105 . S
O87 C72 1.268 . S
Sc88 O91 2.025 . S
Sc88 O98 2.105 . S
Sc88 O101 2.105 . S
Sc88 O104 2.105 . S
Sc88 O107 2.105 1_554 S
Sc89 O91 2.025 . S
Sc89 O99 2.079 1_554 S
Sc89 O103 2.105 . S
Sc89 O105 2.105 . S
Sc89 O109 2.105 . S
Sc90 O91 2.025 . S
Sc90 O100 2.105 . S
Sc90 O102 2.105 . S
Sc90 O106 2.105 . S
Sc90 O108 2.105 . S
O91 Sc88 2.025 . S
O91 Sc89 2.025 . S
O91 Sc90 2.025 . S
C92 O98 1.268 . S
C92 O108 1.268 . S
C93 O99 1.287 . S
C93 O107 1.268 . S
C94 O100 1.268 . S
C94 O109 1.268 . S
C95 O101 1.268 . S
C95 O105 1.268 . S
C96 O102 1.268 . S
C96 O104 1.268 . S
C97 O103 1.268 . S
C97 O106 1.268 . S
O98 Sc88 2.105 . S
O98 C92 1.268 . S
O99 Sc89 2.079 1_556 S
O99 C93 1.287 . S
O100 Sc90 2.105 . S
O100 C94 1.268 . S
O101 Sc88 2.105 . S
O101 C95 1.268 . S
O102 Sc90 2.105 . S
O102 C96 1.268 . S
O103 Sc89 2.105 . S
O103 C97 1.268 . S
O104 Sc88 2.105 . S
O104 C96 1.268 . S
O105 Sc89 2.105 . S
O105 C95 1.268 . S
O106 Sc90 2.105 . S
O106 C97 1.268 . S
O107 Sc88 2.105 1_556 S
O107 C93 1.268 . S
O108 Sc90 2.105 . S
O108 C92 1.268 . S
O109 Sc89 2.105 . S
O109 C94 1.268 . S
Sc110 O113 2.025 . S
Sc110 O120 2.105 . S
Sc110 O123 2.105 1_455 S
Sc110 O126 2.105 . S
Sc110 O129 2.105 . S
Sc111 O113 2.025 . S
Sc111 O121 2.105 . S
Sc111 O125 2.105 . S
Sc111 O127 2.105 . S
Sc111 O131 2.105 . S
Sc112 O113 2.025 . S
Sc112 O122 2.105 . S
Sc112 O124 2.105 . S
Sc112 O128 2.105 . S
Sc112 O130 2.105 . S
O113 Sc110 2.025 . S
O113 Sc111 2.025 . S
O113 Sc112 2.025 . S
C114 O120 1.268 . S
C114 O130 1.268 . S
C115 O121 1.268 . S
C115 O129 1.268 . S
C116 O122 1.268 . S
C116 O131 1.268 . S
C117 O123 1.268 . S
C117 O127 1.268 1_655 S
C118 O124 1.268 . S
C118 O126 1.268 . S
C119 O125 1.268 . S
C119 O128 1.268 . S
O120 Sc110 2.105 . S
O120 C114 1.268 . S
O121 Sc111 2.105 . S
O121 C115 1.268 . S
O122 Sc112 2.105 . S
O122 C116 1.268 . S
O123 Sc110 2.105 1_655 S
O123 C117 1.268 . S
O124 Sc112 2.105 . S
O124 C118 1.268 . S
O125 Sc111 2.105 . S
O125 C119 1.268 . S
O126 Sc110 2.105 . S
O126 C118 1.268 . S
O127 Sc111 2.105 . S
O127 C117 1.268 1_455 S
O128 Sc112 2.105 . S
O128 C119 1.268 . S
O129 Sc110 2.105 . S
O129 C115 1.268 . S
O130 Sc112 2.105 . S
O130 C114 1.268 . S
O131 Sc111 2.105 . S
O131 C116 1.268 . S
Sc132 O135 2.025 . S
Sc132 O142 2.105 . S
Sc132 O145 2.105 . S
Sc132 O148 2.105 . S
Sc132 O151 2.105 . S
Sc133 O135 2.025 . S
Sc133 O143 2.105 . S
Sc133 O147 2.105 . S
Sc133 O149 2.105 . S
Sc133 O153 2.105 . S
Sc134 O135 2.025 . S
Sc134 O144 2.105 1_655 S
Sc134 O146 2.105 . S
Sc134 O150 2.105 . S
Sc134 O152 2.105 . S
O135 Sc132 2.025 . S
O135 Sc133 2.025 . S
O135 Sc134 2.025 . S
C136 O142 1.268 . S
C136 O152 1.268 . S
C137 O143 1.268 . S
C137 O151 1.268 . S
C138 O144 1.268 . S
C138 O153 1.268 1_455 S
C139 O145 1.268 . S
C139 O149 1.268 . S
C140 O146 1.268 . S
C140 O148 1.268 . S
C141 O147 1.268 . S
C141 O150 1.268 . S
O142 Sc132 2.105 . S
O142 C136 1.268 . S
O143 Sc133 2.105 . S
O143 C137 1.268 . S
O144 Sc134 2.105 1_455 S
O144 C138 1.268 . S
O145 Sc132 2.105 . S
O145 C139 1.268 . S
O146 Sc134 2.105 . S
O146 C140 1.268 . S
O147 Sc133 2.105 . S
O147 C141 1.268 . S
O148 Sc132 2.105 . S
O148 C140 1.268 . S
O149 Sc133 2.105 . S
O149 C139 1.268 . S
O150 Sc134 2.105 . S
O150 C141 1.268 . S
O151 Sc132 2.105 . S
O151 C137 1.268 . S
O152 Sc134 2.105 . S
O152 C136 1.268 . S
O153 Sc133 2.105 . S
O153 C138 1.268 1_655 S
Sc154 O157 2.025 . S
Sc154 O164 2.105 . S
Sc154 O167 2.105 1_565 S
Sc154 O170 2.105 . S
Sc154 O173 2.105 . S
Sc155 O157 2.025 . S
Sc155 O165 2.105 . S
Sc155 O169 2.105 . S
Sc155 O171 2.105 . S
Sc155 O175 2.105 . S
Sc156 O157 2.025 . S
Sc156 O166 2.105 . S
Sc156 O168 2.105 . S
Sc156 O172 2.105 . S
Sc156 O174 2.105 . S
O157 Sc154 2.025 . S
O157 Sc155 2.025 . S
O157 Sc156 2.025 . S
C158 O164 1.268 . S
C158 O174 1.268 . S
C159 O165 1.268 . S
C159 O173 1.268 . S
C160 O166 1.268 . S
C160 O175 1.268 . S
C161 O167 1.268 . S
C161 O171 1.268 1_545 S
C162 O168 1.268 . S
C162 O170 1.268 . S
C163 O169 1.268 . S
C163 O172 1.268 . S
O164 Sc154 2.105 . S
O164 C158 1.268 . S
O165 Sc155 2.105 . S
O165 C159 1.268 . S
O166 Sc156 2.105 . S
O166 C160 1.268 . S
O167 Sc154 2.105 1_545 S
O167 C161 1.268 . S
O168 Sc156 2.105 . S
O168 C162 1.268 . S
O169 Sc155 2.105 . S
O169 C163 1.268 . S
O170 Sc154 2.105 . S
O170 C162 1.268 . S
O171 Sc155 2.105 . S
O171 C161 1.268 1_565 S
O172 Sc156 2.105 . S
O172 C163 1.268 . S
O173 Sc154 2.105 . S
O173 C159 1.268 . S
O174 Sc156 2.105 . S
O174 C158 1.268 . S
O175 Sc155 2.105 . S
O175 C160 1.268 . S
Sc176 O179 2.025 . S
Sc176 O186 2.105 . S
Sc176 O189 2.105 . S
Sc176 O192 2.105 . S
Sc176 O195 2.105 . S
Sc177 O179 2.025 . S
Sc177 O187 2.105 . S
Sc177 O191 2.105 . S
Sc177 O193 2.105 . S
Sc177 O197 2.105 . S
Sc178 O179 2.025 . S
Sc178 O188 2.105 . S
Sc178 O190 2.105 . S
Sc178 O194 2.105 . S
Sc178 O196 2.105 . S
O179 Sc176 2.025 . S
O179 Sc177 2.025 . S
O179 Sc178 2.025 . S
C180 O186 1.268 . S
C180 O196 1.268 . S
C181 O187 1.268 . S
C181 O195 1.268 . S
C182 O188 1.268 . S
C182 O197 1.268 . S
C183 O189 1.268 . S
C183 O193 1.268 . S
C184 O190 1.268 . S
C184 O192 1.268 . S
C185 O191 1.268 . S
C185 O194 1.268 . S
O186 Sc176 2.105 . S
O186 C180 1.268 . S
O187 Sc177 2.105 . S
O187 C181 1.268 . S
O188 Sc178 2.105 . S
O188 C182 1.268 . S
O189 Sc176 2.105 . S
O189 C183 1.268 . S
O190 Sc178 2.105 . S
O190 C184 1.268 . S
O191 Sc177 2.105 . S
O191 C185 1.268 . S
O192 Sc176 2.105 . S
O192 C184 1.268 . S
O193 Sc177 2.105 . S
O193 C183 1.268 . S
O194 Sc178 2.105 . S
O194 C185 1.268 . S
O195 Sc176 2.105 . S
O195 C181 1.268 . S
O196 Sc178 2.105 . S
O196 C180 1.268 . S
O197 Sc177 2.105 . S
O197 C182 1.268 . S
Sc198 O201 2.025 . S
Sc198 O208 2.105 . S
Sc198 O211 2.105 1_455 S
Sc198 O214 2.105 . S
Sc198 O217 2.105 . S
Sc199 O201 2.025 . S
Sc199 O209 2.105 . S
Sc199 O213 2.107 . S
Sc199 O215 2.105 . S
Sc199 O219 2.105 . S
Sc200 O201 2.025 . S
Sc200 O210 2.105 . S
Sc200 O212 2.105 . S
Sc200 O216 2.105 1_556 S
Sc200 O218 2.105 . S
O201 Sc198 2.025 . S
O201 Sc199 2.025 . S
O201 Sc200 2.025 . S
C202 O208 1.268 . S
C202 O218 1.268 . S
C203 O209 1.268 . S
C203 O217 1.268 . S
C204 O210 1.268 . S
C204 O219 1.268 . S
C205 O211 1.268 . S
C205 O215 1.268 1_655 S
C206 O212 1.268 . S
C206 O214 1.268 . S
C207 O213 1.267 1_554 S
C207 O216 1.268 . S
O208 Sc198 2.105 . S
O208 C202 1.268 . S
O209 Sc199 2.105 . S
O209 C203 1.268 . S
O210 Sc200 2.105 . S
O210 C204 1.268 . S
O211 Sc198 2.105 1_655 S
O211 C205 1.268 . S
O212 Sc200 2.105 . S
O212 C206 1.268 . S
O213 Sc199 2.107 . S
O213 C207 1.267 1_556 S
O214 Sc198 2.105 . S
O214 C206 1.268 . S
O215 Sc199 2.105 . S
O215 C205 1.268 1_455 S
O216 Sc200 2.105 1_554 S
O216 C207 1.268 . S
O217 Sc198 2.105 . S
O217 C203 1.268 . S
O218 Sc200 2.105 . S
O218 C202 1.268 . S
O219 Sc199 2.105 . S
O219 C204 1.268 . S
Sc220 O223 2.025 . S
Sc220 O230 2.105 . S
Sc220 O233 2.105 . S
Sc220 O236 2.105 . S
Sc220 O239 2.105 . S
Sc221 O223 2.025 . S
Sc221 O231 2.105 . S
Sc221 O235 2.105 . S
Sc221 O237 2.105 . S
Sc221 O241 2.105 . S
Sc222 O223 2.025 . S
Sc222 O232 2.105 1_545 S
Sc222 O234 2.105 . S
Sc222 O238 2.105 . S
Sc222 O240 2.105 . S
O223 Sc220 2.025 . S
O223 Sc221 2.025 . S
O223 Sc222 2.025 . S
C224 O230 1.268 . S
C224 O240 1.268 . S
C225 O231 1.268 . S
C225 O239 1.268 . S
C226 O232 1.268 . S
C226 O241 1.268 1_565 S
C227 O233 1.268 . S
C227 O237 1.268 . S
C228 O234 1.268 . S
C228 O236 1.268 . S
C229 O235 1.268 . S
C229 O238 1.268 . S
O230 Sc220 2.105 . S
O230 C224 1.268 . S
O231 Sc221 2.105 . S
O231 C225 1.268 . S
O232 Sc222 2.105 1_565 S
O232 C226 1.268 . S
O233 Sc220 2.105 . S
O233 C227 1.268 . S
O234 Sc222 2.105 . S
O234 C228 1.268 . S
O235 Sc221 2.105 . S
O235 C229 1.268 . S
O236 Sc220 2.105 . S
O236 C228 1.268 . S
O237 Sc221 2.105 . S
O237 C227 1.268 . S
O238 Sc222 2.105 . S
O238 C229 1.268 . S
O239 Sc220 2.105 . S
O239 C225 1.268 . S
O240 Sc222 2.105 . S
O240 C224 1.268 . S
O241 Sc221 2.105 . S
O241 C226 1.268 1_545 S
Sc242 O245 2.025 . S
Sc242 O252 2.105 . S
Sc242 O255 2.105 . S
Sc242 O258 2.105 . S
Sc242 O261 2.105 . S
Sc243 O245 2.025 . S
Sc243 O253 2.105 . S
Sc243 O257 2.105 . S
Sc243 O259 2.105 . S
Sc243 O263 2.105 . S
Sc244 O245 2.025 . S
Sc244 O254 2.105 . S
Sc244 O256 2.105 . S
Sc244 O260 2.105 . S
Sc244 O262 2.105 . S
O245 Sc242 2.025 . S
O245 Sc243 2.025 . S
O245 Sc244 2.025 . S
C246 O252 1.268 . S
C246 O262 1.268 . S
C247 O253 1.268 . S
C247 O261 1.268 . S
C248 O254 1.268 . S
C248 O263 1.268 . S
C249 O255 1.268 . S
C249 O259 1.268 . S
C250 O256 1.268 . S
C250 O258 1.268 . S
C251 O257 1.268 . S
C251 O260 1.268 . S
O252 Sc242 2.105 . S
O252 C246 1.268 . S
O253 Sc243 2.105 . S
O253 C247 1.268 . S
O254 Sc244 2.105 . S
O254 C248 1.268 . S
O255 Sc242 2.105 . S
O255 C249 1.268 . S
O256 Sc244 2.105 . S
O256 C250 1.268 . S
O257 Sc243 2.105 . S
O257 C251 1.268 . S
O258 Sc242 2.105 . S
O258 C250 1.268 . S
O259 Sc243 2.105 . S
O259 C249 1.268 . S
O260 Sc244 2.105 . S
O260 C251 1.268 . S
O261 Sc242 2.105 . S
O261 C247 1.268 . S
O262 Sc244 2.105 . S
O262 C246 1.268 . S
O263 Sc243 2.105 . S
O263 C248 1.268 . S
C264 C265 1.363 . S
C264 C270 1.379 1_565 S
C264 N272 1.356 . S
C265 C264 1.363 . S
C265 C271 1.363 . S
C266 C267 1.363 1_565 S
C266 C271 1.379 . S
C266 N273 1.356 . S
C267 C266 1.363 1_545 S
C267 C270 1.363 . S
N268 C270 1.356 . S
N268 H280 0.984 . S
N268 H281 0.985 . S
N269 C271 1.356 . S
N269 H274 0.984 . S
N269 H275 0.985 . S
C270 C264 1.379 1_545 S
C270 C267 1.363 . S
C270 N268 1.356 . S
C271 C265 1.363 . S
C271 C266 1.379 . S
C271 N269 1.356 . S
N272 C264 1.356 . S
N272 H278 0.984 . S
N272 H279 0.984 . S
N273 C266 1.356 . S
N273 H276 0.984 1_565 S
N273 H277 0.985 . S
H274 N269 0.984 . S
H275 N269 0.985 . S
H276 N273 0.984 1_545 S
H277 N273 0.985 . S
H278 N272 0.984 . S
H279 N272 0.984 . S
H280 N268 0.984 . S
H281 N268 0.985 . S
C282 C283 1.363 . S
C282 C288 1.379 . S
C282 N290 1.356 . S
C283 C282 1.363 . S
C283 C289 1.363 . S
C284 C285 1.363 . S
C284 C289 1.379 . S
C284 N291 1.356 . S
C285 C284 1.363 . S
C285 C288 1.363 . S
N286 C288 1.356 . S
N286 H298 0.984 . S
N286 H299 0.985 . S
N287 C289 1.356 . S
N287 H292 0.984 . S
N287 H293 0.985 . S
C288 C282 1.379 . S
C288 C285 1.363 . S
C288 N286 1.356 . S
C289 C283 1.363 . S
C289 C284 1.379 . S
C289 N287 1.356 . S
N290 C282 1.356 . S
N290 H296 0.984 . S
N290 H297 0.984 . S
N291 C284 1.356 . S
N291 H294 0.984 . S
N291 H295 0.985 . S
H292 N287 0.984 . S
H293 N287 0.985 . S
H294 N291 0.984 . S
H295 N291 0.985 . S
H296 N290 0.984 . S
H297 N290 0.984 . S
H298 N286 0.984 . S
H299 N286 0.985 . S
C300 C301 1.363 1_455 S
C300 C306 1.379 . S
C300 N308 1.356 . S
C301 C300 1.363 1_655 S
C301 C307 1.363 . S
C302 C303 1.363 . S
C302 C307 1.379 1_455 S
C302 N309 1.356 . S
C303 C302 1.363 . S
C303 C306 1.363 . S
N304 C306 1.356 . S
N304 H316 0.984 . S
N304 H317 0.985 . S
N305 C307 1.356 . S
N305 H310 0.984 . S
N305 H311 0.985 . S
C306 C300 1.379 . S
C306 C303 1.363 . S
C306 N304 1.356 . S
C307 C301 1.363 . S
C307 C302 1.379 1_655 S
C307 N305 1.356 . S
N308 C300 1.356 . S
N308 H314 0.984 . S
N308 H315 0.984 . S
N309 C302 1.356 . S
N309 H312 0.984 . S
N309 H313 0.985 . S
H310 N305 0.984 . S
H311 N305 0.985 . S
H312 N309 0.984 . S
H313 N309 0.985 . S
H314 N308 0.984 . S
H315 N308 0.984 . S
H316 N304 0.984 . S
H317 N304 0.985 . S
C318 C319 1.363 . S
C318 C324 1.379 . S
C318 N326 1.356 . S
C319 C318 1.363 . S
C319 C325 1.363 . S
C320 C321 1.363 . S
C320 C325 1.379 1_565 S
C320 N327 1.356 . S
C321 C320 1.363 . S
C321 C324 1.363 1_565 S
N322 C324 1.356 . S
N322 H334 0.984 . S
N322 H335 0.985 1_545 S
N323 C325 1.356 . S
N323 H328 0.984 . S
N323 H329 0.985 . S
C324 C318 1.379 . S
C324 C321 1.363 1_545 S
C324 N322 1.356 . S
C325 C319 1.363 . S
C325 C320 1.379 1_545 S
C325 N323 1.356 . S
N326 C318 1.356 . S
N326 H332 0.984 . S
N326 H333 0.984 . S
N327 C320 1.356 . S
N327 H330 0.984 . S
N327 H331 0.985 . S
H328 N323 0.984 . S
H329 N323 0.985 . S
H330 N327 0.984 . S
H331 N327 0.985 . S
H332 N326 0.984 . S
H333 N326 0.984 . S
H334 N322 0.984 . S
H335 N322 0.985 1_565 S
C336 C337 1.363 . S
C336 C342 1.379 . S
C336 N344 1.356 . S
C337 C336 1.363 . S
C337 C343 1.363 . S
C338 C339 1.363 . S
C338 C343 1.379 . S
C338 N345 1.356 . S
C339 C338 1.363 . S
C339 C342 1.363 . S
N340 C342 1.356 . S
N340 H352 0.984 . S
N340 H353 0.985 . S
N341 C343 1.356 . S
N341 H346 0.984 . S
N341 H347 0.985 . S
C342 C336 1.379 . S
C342 C339 1.363 . S
C342 N340 1.356 . S
C343 C337 1.363 . S
C343 C338 1.379 . S
C343 N341 1.356 . S
N344 C336 1.356 . S
N344 H350 0.984 . S
N344 H351 0.984 . S
N345 C338 1.356 . S
N345 H348 0.984 . S
N345 H349 0.985 . S
H346 N341 0.984 . S
H347 N341 0.985 . S
H348 N345 0.984 . S
H349 N345 0.985 . S
H350 N344 0.984 . S
H351 N344 0.984 . S
H352 N340 0.984 . S
H353 N340 0.985 . S
C354 C355 1.363 1_655 S
C354 C360 1.379 . S
C354 N362 1.356 . S
C355 C354 1.363 1_455 S
C355 C361 1.363 . S
C356 C357 1.363 . S
C356 C361 1.379 1_655 S
C356 N363 1.356 . S
C357 C356 1.363 . S
C357 C360 1.363 . S
N358 C360 1.356 . S
N358 H370 0.984 . S
N358 H371 0.985 . S
N359 C361 1.356 . S
N359 H364 0.984 . S
N359 H365 0.985 . S
C360 C354 1.379 . S
C360 C357 1.363 . S
C360 N358 1.356 . S
C361 C355 1.363 . S
C361 C356 1.379 1_455 S
C361 N359 1.356 . S
N362 C354 1.356 . S
N362 H368 0.984 . S
N362 H369 0.984 . S
N363 C356 1.356 . S
N363 H366 0.984 . S
N363 H367 0.985 . S
H364 N359 0.984 . S
H365 N359 0.985 . S
H366 N363 0.984 . S
H367 N363 0.985 . S
H368 N362 0.984 . S
H369 N362 0.984 . S
H370 N358 0.984 . S
H371 N358 0.985 . S
C372 C373 1.363 . S
C372 C378 1.379 . S
C372 N380 1.356 . S
C373 C372 1.363 . S
C373 C379 1.363 . S
C374 C375 1.363 1_455 S
C374 C379 1.379 . S
C374 N381 1.356 1_455 S
C375 C374 1.363 1_655 S
C375 C378 1.363 1_655 S
N376 C378 1.356 1_655 S
N376 H388 0.984 . S
N376 H389 0.985 . S
N377 C379 1.356 . S
N377 H382 0.984 . S
N377 H383 0.985 . S
C378 C372 1.379 . S
C378 C375 1.363 1_455 S
C378 N376 1.356 1_455 S
C379 C373 1.363 . S
C379 C374 1.379 . S
C379 N377 1.356 . S
N380 C372 1.356 . S
N380 H386 0.984 . S
N380 H387 0.984 . S
N381 C374 1.356 1_655 S
N381 H384 0.984 . S
N381 H385 0.985 1_655 S
H382 N377 0.984 . S
H383 N377 0.985 . S
H384 N381 0.984 . S
H385 N381 0.985 1_455 S
H386 N380 0.984 . S
H387 N380 0.984 . S
H388 N376 0.984 . S
H389 N376 0.985 . S
C390 C391 1.363 1_545 S
C390 C396 1.379 . S
C390 N398 1.356 . S
C391 C390 1.363 1_565 S
C391 C397 1.363 . S
C392 C393 1.363 . S
C392 C397 1.379 1_545 S
C392 N399 1.356 . S
C393 C392 1.363 . S
C393 C396 1.363 . S
N394 C396 1.356 . S
N394 H406 0.984 . S
N394 H407 0.985 . S
N395 C397 1.356 . S
N395 H400 0.984 . S
N395 H401 0.985 . S
C396 C390 1.379 . S
C396 C393 1.363 . S
C396 N394 1.356 . S
C397 C391 1.363 . S
C397 C392 1.379 1_565 S
C397 N395 1.356 . S
N398 C390 1.356 . S
N398 H404 0.984 . S
N398 H405 0.984 1_545 S
N399 C392 1.356 . S
N399 H402 0.984 . S
N399 H403 0.985 . S
H400 N395 0.984 . S
H401 N395 0.985 . S
H402 N399 0.984 . S
H403 N399 0.985 . S
H404 N398 0.984 . S
H405 N398 0.984 1_565 S
H406 N394 0.984 . S
H407 N394 0.985 . S
C408 C409 1.363 . S
C408 C414 1.379 . S
C408 N416 1.356 . S
C409 C408 1.363 . S
C409 C415 1.363 . S
C410 C411 1.363 . S
C410 C415 1.379 . S
C410 N417 1.356 . S
C411 C410 1.363 . S
C411 C414 1.363 . S
N412 C414 1.356 . S
N412 H424 0.984 . S
N412 H425 0.985 . S
N413 C415 1.356 . S
N413 H418 0.984 . S
N413 H419 0.985 . S
C414 C408 1.379 . S
C414 C411 1.363 . S
C414 N412 1.356 . S
C415 C409 1.363 . S
C415 C410 1.379 . S
C415 N413 1.356 . S
N416 C408 1.356 . S
N416 H422 0.984 . S
N416 H423 0.984 . S
N417 C410 1.356 . S
N417 H420 0.984 . S
N417 H421 0.985 . S
H418 N413 0.984 . S
H419 N413 0.985 . S
H420 N417 0.984 . S
H421 N417 0.985 . S
H422 N416 0.984 . S
H423 N416 0.984 . S
H424 N412 0.984 . S
H425 N412 0.985 . S
C426 C427 1.363 . S
C426 C432 1.379 1_655 S
C426 N434 1.356 . S
C427 C426 1.363 . S
C427 C433 1.363 . S
C428 C429 1.363 1_655 S
C428 C433 1.379 . S
C428 N435 1.356 1_554 S
C429 C428 1.363 1_455 S
C429 C432 1.363 . S
N430 C432 1.356 . S
N430 H442 0.984 . S
N430 H443 0.985 . S
N431 C433 1.356 . S
N431 H436 0.984 . S
N431 H437 0.985 . S
C432 C426 1.379 1_455 S
C432 C429 1.363 . S
C432 N430 1.356 . S
C433 C427 1.363 . S
C433 C428 1.379 . S
C433 N431 1.356 . S
N434 C426 1.356 . S
N434 H440 0.984 . S
N434 H441 0.984 . S
N435 C428 1.356 1_556 S
N435 H438 0.984 . S
N435 H439 0.985 . S
H436 N431 0.984 . S
H437 N431 0.985 . S
H438 N435 0.984 . S
H439 N435 0.985 . S
H440 N434 0.984 . S
H441 N434 0.984 . S
H442 N430 0.984 . S
H443 N430 0.985 . S
C444 C445 1.363 . S
C444 C450 1.379 1_565 S
C444 N452 1.356 . S
C445 C444 1.363 . S
C445 C451 1.363 . S
C446 C447 1.363 1_565 S
C446 C451 1.379 . S
C446 N453 1.356 . S
C447 C446 1.363 1_545 S
C447 C450 1.363 . S
N448 C450 1.356 . S
N448 H460 0.984 . S
N448 H461 0.985 . S
N449 C451 1.356 . S
N449 H454 0.984 . S
N449 H455 0.985 . S
C450 C444 1.379 1_545 S
C450 C447 1.363 . S
C450 N448 1.356 . S
C451 C445 1.363 . S
C451 C446 1.379 . S
C451 N449 1.356 . S
N452 C444 1.356 . S
N452 H458 0.984 . S
N452 H459 0.984 . S
N453 C446 1.356 . S
N453 H456 0.984 1_565 S
N453 H457 0.985 . S
H454 N449 0.984 . S
H455 N449 0.985 . S
H456 N453 0.984 1_545 S
H457 N453 0.985 . S
H458 N452 0.984 . S
H459 N452 0.984 . S
H460 N448 0.984 . S
H461 N448 0.985 . S
C462 C463 1.363 . S
C462 C468 1.379 . S
C462 N470 1.356 . S
C463 C462 1.363 . S
C463 C469 1.363 . S
C464 C465 1.363 . S
C464 C469 1.379 . S
C464 N471 1.356 . S
C465 C464 1.363 . S
C465 C468 1.363 . S
N466 C468 1.356 . S
N466 H478 0.984 . S
N466 H479 0.985 . S
N467 C469 1.356 . S
N467 H472 0.984 . S
N467 H473 0.985 . S
C468 C462 1.379 . S
C468 C465 1.363 . S
C468 N466 1.356 . S
C469 C463 1.363 . S
C469 C464 1.379 . S
C469 N467 1.356 . S
N470 C462 1.356 . S
N470 H476 0.984 . S
N470 H477 0.984 . S
N471 C464 1.356 . S
N471 H474 0.984 . S
N471 H475 0.985 . S
H472 N467 0.984 . S
H473 N467 0.985 . S
H474 N471 0.984 . S
H475 N471 0.985 . S
H476 N470 0.984 . S
H477 N470 0.984 . S
H478 N466 0.984 . S
H479 N466 0.985 . S
C480 C481 1.363 . S
C480 C486 1.379 . S
C480 N488 1.356 . S
C481 C480 1.363 . S
C481 C487 1.363 . S
C482 C483 1.363 1_545 S
C482 C487 1.379 1_545 S
C482 N489 1.356 . S
C483 C482 1.363 1_565 S
C483 C486 1.363 . S
N484 C486 1.356 . S
N484 H496 0.984 . S
N484 H497 0.985 . S
N485 C487 1.356 . S
N485 H490 0.984 . S
N485 H491 0.985 1_565 S
C486 C480 1.379 . S
C486 C483 1.363 . S
C486 N484 1.356 . S
C487 C481 1.363 . S
C487 C482 1.379 1_565 S
C487 N485 1.356 . S
N488 C480 1.356 . S
N488 H494 0.984 . S
N488 H495 0.984 . S
N489 C482 1.356 . S
N489 H492 0.984 . S
N489 H493 0.985 . S
H490 N485 0.984 . S
H491 N485 0.985 1_545 S
H492 N489 0.984 . S
H493 N489 0.985 . S
H494 N488 0.984 . S
H495 N488 0.984 . S
H496 N484 0.984 . S
H497 N484 0.985 . S
C498 C499 1.363 . S
C498 C504 1.379 . S
C498 N506 1.356 . S
C499 C498 1.363 . S
C499 C505 1.363 . S
C500 C501 1.363 . S
C500 C505 1.379 . S
C500 N507 1.356 . S
C501 C500 1.363 . S
C501 C504 1.363 . S
N502 C504 1.356 . S
N502 H514 0.984 . S
N502 H515 0.985 . S
N503 C505 1.356 . S
N503 H508 0.984 . S
N503 H509 0.985 . S
C504 C498 1.379 . S
C504 C501 1.363 . S
C504 N502 1.356 . S
C505 C499 1.363 . S
C505 C500 1.379 . S
C505 N503 1.356 . S
N506 C498 1.356 . S
N506 H512 0.984 . S
N506 H513 0.984 . S
N507 C500 1.356 . S
N507 H510 0.984 . S
N507 H511 0.985 . S
H508 N503 0.984 . S
H509 N503 0.985 . S
H510 N507 0.984 . S
H511 N507 0.985 . S
H512 N506 0.984 . S
H513 N506 0.984 . S
H514 N502 0.984 . S
H515 N502 0.985 . S
C516 C517 1.363 . S
C516 C522 1.379 1_455 S
C516 N524 1.356 . S
C517 C516 1.363 . S
C517 C523 1.363 . S
C518 C519 1.363 . S
C518 C523 1.379 . S
C518 N525 1.356 . S
C519 C518 1.363 . S
C519 C522 1.363 1_455 S
N520 C522 1.356 . S
N520 H532 0.984 . S
N520 H533 0.985 . S
N521 C523 1.356 . S
N521 H526 0.984 . S
N521 H527 0.985 . S
C522 C516 1.379 1_655 S
C522 C519 1.363 1_655 S
C522 N520 1.356 . S
C523 C517 1.363 . S
C523 C518 1.379 . S
C523 N521 1.356 . S
N524 C516 1.356 . S
N524 H530 0.984 1_455 S
N524 H531 0.984 . S
N525 C518 1.356 . S
N525 H528 0.984 . S
N525 H529 0.985 . S
H526 N521 0.984 . S
H527 N521 0.985 . S
H528 N525 0.984 . S
H529 N525 0.985 . S
H530 N524 0.984 1_655 S
H531 N524 0.984 . S
H532 N520 0.984 . S
H533 N520 0.985 . S
C534 C535 1.363 . S
C534 C540 1.379 1_545 S
C534 N542 1.356 . S
C535 C534 1.363 . S
C535 C541 1.363 . S
C536 C537 1.363 . S
C536 C541 1.379 . S
C536 N543 1.356 . S
C537 C536 1.363 . S
C537 C540 1.363 1_545 S
N538 C540 1.356 . S
N538 H550 0.984 . S
N538 H551 0.985 . S
N539 C541 1.356 . S
N539 H544 0.984 . S
N539 H545 0.985 . S
C540 C534 1.379 1_565 S
C540 C537 1.363 1_565 S
C540 N538 1.356 . S
C541 C535 1.363 . S
C541 C536 1.379 . S
C541 N539 1.356 . S
N542 C534 1.356 . S
N542 H548 0.984 1_545 S
N542 H549 0.984 . S
N543 C536 1.356 . S
N543 H546 0.984 . S
N543 H547 0.985 . S
H544 N539 0.984 . S
H545 N539 0.985 . S
H546 N543 0.984 . S
H547 N543 0.985 . S
H548 N542 0.984 1_565 S
H549 N542 0.984 . S
H550 N538 0.984 . S
H551 N538 0.985 . S
C552 C553 1.362 . S
C552 C558 1.375 1_556 S
C552 N560 1.356 . S
C553 C552 1.362 . S
C553 C559 1.364 1_556 S
C554 C555 1.363 . S
C554 C559 1.379 . S
C554 N561 1.356 . S
C555 C554 1.363 . S
C555 C558 1.370 . S
N556 C558 1.355 1_556 S
N556 H568 0.984 . S
N556 H569 0.985 1_556 S
N557 C559 1.356 . S
N557 H562 0.984 . S
N557 H563 0.985 . S
C558 C552 1.375 1_554 S
C558 C555 1.370 . S
C558 N556 1.355 1_554 S
C559 C553 1.364 1_554 S
C559 C554 1.379 . S
C559 N557 1.356 . S
N560 C552 1.356 . S
N560 H566 0.984 . S
N560 H567 0.984 . S
N561 C554 1.356 . S
N561 H564 0.984 . S
N561 H565 0.985 . S
H562 N557 0.984 . S
H563 N557 0.985 . S
H564 N561 0.984 . S
H565 N561 0.985 . S
H566 N560 0.984 . S
H567 N560 0.984 . S
H568 N556 0.984 . S
H569 N556 0.985 1_554 S
C570 C571 1.363 . S
C570 C576 1.379 . S
C570 N578 1.356 1_655 S
C571 C570 1.363 . S
C571 C577 1.363 . S
C572 C573 1.363 . S
C572 C577 1.379 . S
C572 N579 1.356 . S
C573 C572 1.363 . S
C573 C576 1.363 . S
N574 C576 1.356 . S
N574 H586 0.984 . S
N574 H587 0.985 . S
N575 C577 1.356 . S
N575 H580 0.984 . S
N575 H581 0.985 . S
C576 C570 1.379 . S
C576 C573 1.363 . S
C576 N574 1.356 . S
C577 C571 1.363 . S
C577 C572 1.379 . S
C577 N575 1.356 . S
N578 C570 1.356 1_455 S
N578 H584 0.984 . S
N578 H585 0.984 . S
N579 C572 1.356 . S
N579 H582 0.984 . S
N579 H583 0.985 . S
H580 N575 0.984 . S
H581 N575 0.985 . S
H582 N579 0.984 . S
H583 N579 0.985 . S
H584 N578 0.984 . S
H585 N578 0.984 . S
H586 N574 0.984 . S
H587 N574 0.985 . S
C588 C589 1.363 . S
C588 C594 1.379 . S
C588 N596 1.356 1_455 S
C589 C588 1.363 . S
C589 C595 1.363 . S
C590 C591 1.363 . S
C590 C595 1.379 . S
C590 N597 1.356 . S
C591 C590 1.363 . S
C591 C594 1.363 . S
N592 C594 1.356 . S
N592 H604 0.984 . S
N592 H605 0.985 . S
N593 C595 1.356 . S
N593 H598 0.984 . S
N593 H599 0.985 . S
C594 C588 1.379 . S
C594 C591 1.363 . S
C594 N592 1.356 . S
C595 C589 1.363 . S
C595 C590 1.379 . S
C595 N593 1.356 . S
N596 C588 1.356 1_655 S
N596 H602 0.984 . S
N596 H603 0.984 . S
N597 C590 1.356 . S
N597 H600 0.984 . S
N597 H601 0.985 . S
H598 N593 0.984 . S
H599 N593 0.985 . S
H600 N597 0.984 . S
H601 N597 0.985 . S
H602 N596 0.984 . S
H603 N596 0.984 . S
H604 N592 0.984 . S
H605 N592 0.985 . S
C606 C607 1.363 . S
C606 C612 1.379 . S
C606 N614 1.356 . S
C607 C606 1.363 . S
C607 C613 1.363 . S
C608 C609 1.363 . S
C608 C613 1.379 . S
C608 N615 1.356 . S
C609 C608 1.363 . S
C609 C612 1.363 . S
N610 C612 1.356 . S
N610 H622 0.984 . S
N610 H623 0.985 . S
N611 C613 1.356 . S
N611 H616 0.984 1_545 S
N611 H617 0.985 . S
C612 C606 1.379 . S
C612 C609 1.363 . S
C612 N610 1.356 . S
C613 C607 1.363 . S
C613 C608 1.379 . S
C613 N611 1.356 . S
N614 C606 1.356 . S
N614 H620 0.984 . S
N614 H621 0.984 . S
N615 C608 1.356 . S
N615 H618 0.984 . S
N615 H619 0.985 . S
H616 N611 0.984 1_565 S
H617 N611 0.985 . S
H618 N615 0.984 . S
H619 N615 0.985 . S
H620 N614 0.984 . S
H621 N614 0.984 . S
H622 N610 0.984 . S
H623 N610 0.985 . S
C624 C625 1.363 . S
C624 C630 1.379 . S
C624 N632 1.356 . S
C625 C624 1.363 . S
C625 C631 1.363 . S
C626 C627 1.363 . S
C626 C631 1.379 . S
C626 N633 1.356 . S
C627 C626 1.363 . S
C627 C630 1.363 . S
N628 C630 1.356 . S
N628 H640 0.984 . S
N628 H641 0.985 . S
N629 C631 1.356 . S
N629 H634 0.984 . S
N629 H635 0.985 . S
C630 C624 1.379 . S
C630 C627 1.363 . S
C630 N628 1.356 . S
C631 C625 1.363 . S
C631 C626 1.379 . S
C631 N629 1.356 . S
N632 C624 1.356 . S
N632 H638 0.984 . S
N632 H639 0.984 . S
N633 C626 1.356 . S
N633 H636 0.984 . S
N633 H637 0.985 . S
H634 N629 0.984 . S
H635 N629 0.985 . S
H636 N633 0.984 . S
H637 N633 0.985 . S
H638 N632 0.984 . S
H639 N632 0.984 . S
H640 N628 0.984 . S
H641 N628 0.985 . S
C642 C643 1.396 . S
C642 C648 1.379 . S
C642 N650 1.356 . S
C643 C642 1.396 . S
C643 C649 1.348 1_556 S
C644 C645 1.363 . S
C644 C649 1.379 1_556 S
C644 N651 1.356 1_656 S
C645 C644 1.363 . S
C645 C648 1.363 . S
N646 C648 1.356 . S
N646 H658 0.984 . S
N646 H659 0.985 . S
N647 C649 1.356 . S
N647 H652 0.984 . S
N647 H653 0.985 . S
C648 C642 1.379 . S
C648 C645 1.363 . S
C648 N646 1.356 . S
C649 C643 1.348 1_554 S
C649 C644 1.379 1_554 S
C649 N647 1.356 . S
N650 C642 1.356 . S
N650 H656 0.984 . S
N650 H657 0.984 . S
N651 C644 1.356 1_454 S
N651 H654 0.984 1_554 S
N651 H655 0.985 . S
H652 N647 0.984 . S
H653 N647 0.985 . S
H654 N651 0.984 1_556 S
H655 N651 0.985 . S
H656 N650 0.984 . S
H657 N650 0.984 . S
H658 N646 0.984 . S
H659 N646 0.985 . S
C660 C661 1.363 . S
C660 C666 1.379 . S
C660 N668 1.356 1_565 S
C661 C660 1.363 . S
C661 C667 1.363 . S
C662 C663 1.363 . S
C662 C667 1.379 . S
C662 N669 1.356 . S
C663 C662 1.363 . S
C663 C666 1.363 . S
N664 C666 1.356 . S
N664 H676 0.984 . S
N664 H677 0.985 . S
N665 C667 1.356 . S
N665 H670 0.984 . S
N665 H671 0.985 . S
C666 C660 1.379 . S
C666 C663 1.363 . S
C666 N664 1.356 . S
C667 C661 1.363 . S
C667 C662 1.379 . S
C667 N665 1.356 . S
N668 C660 1.356 1_545 S
N668 H674 0.984 . S
N668 H675 0.984 . S
N669 C662 1.356 . S
N669 H672 0.984 . S
N669 H673 0.985 . S
H670 N665 0.984 . S
H671 N665 0.985 . S
H672 N669 0.984 . S
H673 N669 0.985 . S
H674 N668 0.984 . S
H675 N668 0.984 . S
H676 N664 0.984 . S
H677 N664 0.985 . S
C678 C679 1.363 . S
C678 C684 1.379 . S
C678 N686 1.356 . S
C679 C678 1.363 . S
C679 C685 1.363 . S
C680 C681 1.363 . S
C680 C685 1.379 . S
C680 N687 1.356 . S
C681 C680 1.363 . S
C681 C684 1.363 . S
N682 C684 1.356 . S
N682 H694 0.984 . S
N682 H695 0.985 . S
N683 C685 1.356 . S
N683 H688 0.984 . S
N683 H689 0.985 . S
C684 C678 1.379 . S
C684 C681 1.363 . S
C684 N682 1.356 . S
C685 C679 1.363 . S
C685 C680 1.379 . S
C685 N683 1.356 . S
N686 C678 1.356 . S
N686 H692 0.984 . S
N686 H693 0.984 . S
N687 C680 1.356 . S
N687 H690 0.984 . S
N687 H691 0.985 . S
H688 N683 0.984 . S
H689 N683 0.985 . S
H690 N687 0.984 . S
H691 N687 0.985 . S
H692 N686 0.984 . S
H693 N686 0.984 . S
H694 N682 0.984 . S
H695 N682 0.985 . S
C696 C697 1.363 . S
C696 C702 1.379 . S
C696 N704 1.356 . S
C697 C696 1.363 . S
C697 C703 1.363 . S
C698 C699 1.363 . S
C698 C703 1.379 . S
C698 N705 1.356 . S
C699 C698 1.363 . S
C699 C702 1.363 . S
N700 C702 1.356 . S
N700 H712 0.984 . S
N700 H713 0.985 . S
N701 C703 1.356 . S
N701 H706 0.984 . S
N701 H707 0.985 . S
C702 C696 1.379 . S
C702 C699 1.363 . S
C702 N700 1.356 . S
C703 C697 1.363 . S
C703 C698 1.379 . S
C703 N701 1.356 . S
N704 C696 1.356 . S
N704 H710 0.984 . S
N704 H711 0.984 . S
N705 C698 1.356 . S
N705 H708 0.984 1_565 S
N705 H709 0.985 1_565 S
H706 N701 0.984 . S
H707 N701 0.985 . S
H708 N705 0.984 1_545 S
H709 N705 0.985 1_545 S
H710 N704 0.984 . S
H711 N704 0.984 . S
H712 N700 0.984 . S
H713 N700 0.985 . S
C714 C715 1.363 . S
C714 C720 1.379 . S
C714 N722 1.356 . S
C715 C714 1.363 . S
C715 C721 1.363 . S
C716 C717 1.363 . S
C716 C721 1.379 . S
C716 N723 1.356 . S
C717 C716 1.363 . S
C717 C720 1.363 . S
N718 C720 1.356 . S
N718 H730 0.984 1_545 S
N718 H731 0.985 1_545 S
N719 C721 1.356 . S
N719 H724 0.984 . S
N719 H725 0.985 . S
C720 C714 1.379 . S
C720 C717 1.363 . S
C720 N718 1.356 . S
C721 C715 1.363 . S
C721 C716 1.379 . S
C721 N719 1.356 . S
N722 C714 1.356 . S
N722 H728 0.984 . S
N722 H729 0.984 . S
N723 C716 1.356 . S
N723 H726 0.984 . S
N723 H727 0.985 . S
H724 N719 0.984 . S
H725 N719 0.985 . S
H726 N723 0.984 . S
H727 N723 0.985 . S
H728 N722 0.984 . S
H729 N722 0.984 . S
H730 N718 0.984 1_565 S
H731 N718 0.985 1_565 S
C732 C733 1.363 . S
C732 C738 1.379 . S
C732 N740 1.356 . S
C733 C732 1.363 . S
C733 C739 1.363 . S
C734 C735 1.363 . S
C734 C739 1.379 . S
C734 N741 1.356 . S
C735 C734 1.363 . S
C735 C738 1.363 . S
N736 C738 1.356 . S
N736 H748 0.984 . S
N736 H749 0.985 . S
N737 C739 1.356 . S
N737 H742 0.984 . S
N737 H743 0.985 . S
C738 C732 1.379 . S
C738 C735 1.363 . S
C738 N736 1.356 . S
C739 C733 1.363 . S
C739 C734 1.379 . S
C739 N737 1.356 . S
N740 C732 1.356 . S
N740 H746 0.984 . S
N740 H747 0.984 . S
N741 C734 1.356 . S
N741 H744 0.984 . S
N741 H745 0.985 . S
H742 N737 0.984 . S
H743 N737 0.985 . S
H744 N741 0.984 . S
H745 N741 0.985 . S
H746 N740 0.984 . S
H747 N740 0.984 . S
H748 N736 0.984 . S
H749 N736 0.985 . S
C750 C751 1.363 . S
C750 C756 1.379 . S
C750 N758 1.356 . S
C751 C750 1.363 . S
C751 C757 1.363 . S
C752 C753 1.363 . S
C752 C757 1.379 . S
C752 N759 1.356 . S
C753 C752 1.363 . S
C753 C756 1.363 . S
N754 C756 1.356 . S
N754 H766 0.984 . S
N754 H767 0.985 . S
N755 C757 1.356 . S
N755 H760 0.984 . S
N755 H761 0.985 . S
C756 C750 1.379 . S
C756 C753 1.363 . S
C756 N754 1.356 . S
C757 C751 1.363 . S
C757 C752 1.379 . S
C757 N755 1.356 . S
N758 C750 1.356 . S
N758 H764 0.984 . S
N758 H765 0.984 . S
N759 C752 1.356 . S
N759 H762 0.984 1_655 S
N759 H763 0.985 . S
H760 N755 0.984 . S
H761 N755 0.985 . S
H762 N759 0.984 1_455 S
H763 N759 0.985 . S
H764 N758 0.984 . S
H765 N758 0.984 . S
H766 N754 0.984 . S
H767 N754 0.985 . S
C768 C769 1.363 . S
C768 C774 1.379 . S
C768 N776 1.356 . S
C769 C768 1.363 . S
C769 C775 1.363 . S
C770 C771 1.363 . S
C770 C775 1.379 . S
C770 N777 1.356 . S
C771 C770 1.363 . S
C771 C774 1.363 . S
N772 C774 1.356 . S
N772 H784 0.984 . S
N772 H785 0.985 . S
N773 C775 1.356 . S
N773 H778 0.984 . S
N773 H779 0.985 . S
C774 C768 1.379 . S
C774 C771 1.363 . S
C774 N772 1.356 . S
C775 C769 1.363 . S
C775 C770 1.379 . S
C775 N773 1.356 . S
N776 C768 1.356 . S
N776 H782 0.984 . S
N776 H783 0.984 . S
N777 C770 1.356 . S
N777 H780 0.984 . S
N777 H781 0.985 . S
H778 N773 0.984 . S
H779 N773 0.985 . S
H780 N777 0.984 . S
H781 N777 0.985 . S
H782 N776 0.984 . S
H783 N776 0.984 . S
H784 N772 0.984 . S
H785 N772 0.985 . S
C786 C787 1.363 . S
C786 C792 1.379 . S
C786 N794 1.356 . S
C787 C786 1.363 . S
C787 C793 1.363 . S
C788 C789 1.363 . S
C788 C793 1.379 . S
C788 N795 1.356 . S
C789 C788 1.363 . S
C789 C792 1.363 . S
N790 C792 1.356 . S
N790 H802 0.984 . S
N790 H803 0.985 . S
N791 C793 1.356 . S
N791 H796 0.984 . S
N791 H797 0.985 . S
C792 C786 1.379 . S
C792 C789 1.363 . S
C792 N790 1.356 . S
C793 C787 1.363 . S
C793 C788 1.379 . S
C793 N791 1.356 . S
N794 C786 1.356 . S
N794 H800 0.984 . S
N794 H801 0.984 . S
N795 C788 1.356 . S
N795 H798 0.984 . S
N795 H799 0.985 . S
H796 N791 0.984 . S
H797 N791 0.985 . S
H798 N795 0.984 . S
H799 N795 0.985 . S
H800 N794 0.984 . S
H801 N794 0.984 . S
H802 N790 0.984 . S
H803 N790 0.985 . S
C804 C805 1.363 . S
C804 C810 1.379 . S
C804 N812 1.356 . S
C805 C804 1.363 . S
C805 C811 1.363 . S
C806 C807 1.363 . S
C806 C811 1.379 . S
C806 N813 1.356 . S
C807 C806 1.363 . S
C807 C810 1.363 . S
N808 C810 1.356 . S
N808 H820 0.984 . S
N808 H821 0.985 . S
N809 C811 1.356 . S
N809 H814 0.984 . S
N809 H815 0.985 . S
C810 C804 1.379 . S
C810 C807 1.363 . S
C810 N808 1.356 . S
C811 C805 1.363 . S
C811 C806 1.379 . S
C811 N809 1.356 . S
N812 C804 1.356 . S
N812 H818 0.984 . S
N812 H819 0.984 . S
N813 C806 1.356 . S
N813 H816 0.984 . S
N813 H817 0.985 . S
H814 N809 0.984 . S
H815 N809 0.985 . S
H816 N813 0.984 . S
H817 N813 0.985 . S
H818 N812 0.984 . S
H819 N812 0.984 . S
H820 N808 0.984 . S
H821 N808 0.985 . S
C822 C823 1.363 . S
C822 C828 1.379 . S
C822 N830 1.356 . S
C823 C822 1.363 . S
C823 C829 1.363 . S
C824 C825 1.363 . S
C824 C829 1.379 . S
C824 N831 1.356 . S
C825 C824 1.363 . S
C825 C828 1.363 . S
N826 C828 1.356 . S
N826 H838 0.984 . S
N826 H839 0.985 . S
N827 C829 1.356 . S
N827 H832 0.984 . S
N827 H833 0.985 . S
C828 C822 1.379 . S
C828 C825 1.363 . S
C828 N826 1.356 . S
C829 C823 1.363 . S
C829 C824 1.379 . S
C829 N827 1.356 . S
N830 C822 1.356 . S
N830 H836 0.984 . S
N830 H837 0.984 . S
N831 C824 1.356 . S
N831 H834 0.984 . S
N831 H835 0.985 . S
H832 N827 0.984 . S
H833 N827 0.985 . S
H834 N831 0.984 . S
H835 N831 0.985 . S
H836 N830 0.984 . S
H837 N830 0.984 . S
H838 N826 0.984 . S
H839 N826 0.985 . S
C840 C841 1.363 . S
C840 C846 1.379 . S
C840 N848 1.356 . S
C841 C840 1.363 . S
C841 C847 1.363 . S
C842 C843 1.363 . S
C842 C847 1.379 . S
C842 N849 1.356 . S
C843 C842 1.363 . S
C843 C846 1.363 . S
N844 C846 1.356 . S
N844 H856 0.984 . S
N844 H857 0.985 . S
N845 C847 1.356 . S
N845 H850 0.984 . S
N845 H851 0.985 . S
C846 C840 1.379 . S
C846 C843 1.363 . S
C846 N844 1.356 . S
C847 C841 1.363 . S
C847 C842 1.379 . S
C847 N845 1.356 . S
N848 C840 1.356 . S
N848 H854 0.984 . S
N848 H855 0.984 . S
N849 C842 1.356 . S
N849 H852 0.984 . S
N849 H853 0.985 . S
H850 N845 0.984 . S
H851 N845 0.985 . S
H852 N849 0.984 . S
H853 N849 0.985 . S
H854 N848 0.984 . S
H855 N848 0.984 . S
H856 N844 0.984 . S
H857 N844 0.985 . S
C858 C859 1.363 . S
C858 C864 1.379 . S
C858 N866 1.356 . S
C859 C858 1.363 . S
C859 C865 1.363 . S
C860 C861 1.363 . S
C860 C865 1.379 . S
C860 N867 1.356 . S
C861 C860 1.363 . S
C861 C864 1.363 . S
N862 C864 1.356 . S
N862 H874 0.984 . S
N862 H875 0.985 . S
N863 C865 1.356 . S
N863 H868 0.984 . S
N863 H869 0.985 . S
C864 C858 1.379 . S
C864 C861 1.363 . S
C864 N862 1.356 . S
C865 C859 1.363 . S
C865 C860 1.379 . S
C865 N863 1.356 . S
N866 C858 1.356 . S
N866 H872 0.984 . S
N866 H873 0.984 . S
N867 C860 1.356 . S
N867 H870 0.984 . S
N867 H871 0.985 . S
H868 N863 0.984 . S
H869 N863 0.985 . S
H870 N867 0.984 . S
H871 N867 0.985 . S
H872 N866 0.984 . S
H873 N866 0.984 . S
H874 N862 0.984 . S
H875 N862 0.985 . S
C876 C877 1.363 . S
C876 C882 1.379 . S
C876 N884 1.356 . S
C877 C876 1.363 . S
C877 C883 1.363 . S
C878 C879 1.363 . S
C878 C883 1.379 . S
C878 N885 1.356 . S
C879 C878 1.363 . S
C879 C882 1.363 . S
N880 C882 1.356 . S
N880 H892 0.984 . S
N880 H893 0.985 . S
N881 C883 1.356 . S
N881 H886 0.984 . S
N881 H887 0.985 . S
C882 C876 1.379 . S
C882 C879 1.363 . S
C882 N880 1.356 . S
C883 C877 1.363 . S
C883 C878 1.379 . S
C883 N881 1.356 . S
N884 C876 1.356 . S
N884 H890 0.984 . S
N884 H891 0.984 . S
N885 C878 1.356 . S
N885 H888 0.984 . S
N885 H889 0.985 . S
H886 N881 0.984 . S
H887 N881 0.985 . S
H888 N885 0.984 . S
H889 N885 0.985 . S
H890 N884 0.984 . S
H891 N884 0.984 . S
H892 N880 0.984 . S
H893 N880 0.985 . S
C894 C895 1.363 . S
C894 C900 1.379 . S
C894 N902 1.356 . S
C895 C894 1.363 . S
C895 C901 1.363 . S
C896 C897 1.363 . S
C896 C901 1.379 . S
C896 N903 1.356 . S
C897 C896 1.363 . S
C897 C900 1.363 . S
N898 C900 1.356 . S
N898 H910 0.984 . S
N898 H911 0.985 . S
N899 C901 1.356 . S
N899 H904 0.984 . S
N899 H905 0.985 . S
C900 C894 1.379 . S
C900 C897 1.363 . S
C900 N898 1.356 . S
C901 C895 1.363 . S
C901 C896 1.379 . S
C901 N899 1.356 . S
N902 C894 1.356 . S
N902 H908 0.984 . S
N902 H909 0.984 . S
N903 C896 1.356 . S
N903 H906 0.984 . S
N903 H907 0.985 . S
H904 N899 0.984 . S
H905 N899 0.985 . S
H906 N903 0.984 . S
H907 N903 0.985 . S
H908 N902 0.984 . S
H909 N902 0.984 . S
H910 N898 0.984 . S
H911 N898 0.985 . S
C265 C115 1.258 . S
C267 C5 1.273 . S
C283 C31 1.273 . S
C285 C9 1.258 . S
C301 C49 1.273 . S
C303 C27 1.258 . S
C319 C53 1.258 . S
C321 C75 1.273 . S
C337 C71 1.258 . S
C339 C93 1.273 . S
C355 C119 1.273 . S
C357 C97 1.258 . S
C373 C159 1.258 . S
C375 C137 1.273 . S
C391 C163 1.273 . S
C393 C185 1.258 . S
C409 C203 1.258 . S
C411 C181 1.273 . S
C427 C229 1.258 . S
C429 C207 1.273 . S
C445 C247 1.258 . S
C447 C225 1.273 . S
C463 C141 1.258 . S
C465 C251 1.273 . S
C481 C248 1.434 . S
C483 C4 1.422 1_565 S
C499 C30 1.422 . S
C501 C139 1.434 . S
C517 C160 1.434 . S
C519 C48 1.422 1_455 S
C535 C183 1.434 . S
C537 C74 1.422 1_545 S
C553 C204 1.434 . S
C555 C92 1.422 . S
C571 C118 1.422 1_655 S
C573 C227 1.434 . S
C589 C136 1.422 1_455 S
C591 C28 1.434 . S
C607 C162 1.422 1_545 S
C609 C51 1.434 . S
C625 C72 1.434 . S
C627 C180 1.422 . S
C643 C95 1.424 1_556 S
C645 C206 1.422 1_655 S
C661 C224 1.422 1_565 S
C663 C116 1.434 . S
C679 C250 1.422 . S
C681 C7 1.434 . S
C697 C138 1.245 . S
C699 C6 1.245 . S
C715 C29 1.245 . S
C717 C161 1.245 . S
C733 C182 1.245 . S
C735 C50 1.245 . S
C751 C73 1.245 . S
C753 C205 1.245 . S
C769 C226 1.245 . S
C771 C94 1.245 . S
C787 C249 1.245 . S
C789 C117 1.245 . S
C805 C140 1.132 . S
C807 C8 1.132 . S
C823 C158 1.132 . S
C825 C26 1.132 . S
C841 C184 1.132 . S
C843 C52 1.132 . S
C859 C70 1.132 . S
C861 C202 1.132 . S
C877 C228 1.132 . S
C879 C96 1.132 . S
C895 C246 1.132 . S
C897 C114 1.132 . S
