# Generated by pormake.
# Topology msp, (4)-cn, num edge types: 1
# Building blocks:
#     Node 0, Type 0, BuildingBlock: ICAMEG_clean_sbu_1, # of connection points: 4
#     Node 1, Type 0, BuildingBlock: ICAMEG_clean_sbu_1, # of connection points: 4
#     Node 2, Type 0, BuildingBlock: ICAMEG_clean_sbu_1, # of connection points: 4
#     Node 3, Type 0, BuildingBlock: ICAMEG_clean_sbu_1, # of connection points: 4
#     Node 4, Type 0, BuildingBlock: ICAMEG_clean_sbu_1, # of connection points: 4
#     Node 5, Type 0, BuildingBlock: ICAMEG_clean_sbu_1, # of connection points: 4
#     Node 6, Type 0, BuildingBlock: ICAMEG_clean_sbu_1, # of connection points: 4
#     Node 7, Type 0, BuildingBlock: ICAMEG_clean_sbu_1, # of connection points: 4
#     Edge 8, Type (0, 0), BuildingBlock: MIFKUJ_clean_linker_0, # of connection points: 2
#     Edge 9, Type (0, 0), BuildingBlock: MIFKUJ_clean_linker_0, # of connection points: 2
#     Edge 10, Type (0, 0), BuildingBlock: MIFKUJ_clean_linker_0, # of connection points: 2
#     Edge 11, Type (0, 0), BuildingBlock: MIFKUJ_clean_linker_0, # of connection points: 2
#     Edge 12, Type (0, 0), BuildingBlock: MIFKUJ_clean_linker_0, # of connection points: 2
#     Edge 13, Type (0, 0), BuildingBlock: MIFKUJ_clean_linker_0, # of connection points: 2
#     Edge 14, Type (0, 0), BuildingBlock: MIFKUJ_clean_linker_0, # of connection points: 2
#     Edge 15, Type (0, 0), BuildingBlock: MIFKUJ_clean_linker_0, # of connection points: 2
#     Edge 16, Type (0, 0), BuildingBlock: MIFKUJ_clean_linker_0, # of connection points: 2
#     Edge 17, Type (0, 0), BuildingBlock: MIFKUJ_clean_linker_0, # of connection points: 2
#     Edge 18, Type (0, 0), BuildingBlock: MIFKUJ_clean_linker_0, # of connection points: 2
#     Edge 19, Type (0, 0), BuildingBlock: MIFKUJ_clean_linker_0, # of connection points: 2
#     Edge 20, Type (0, 0), BuildingBlock: MIFKUJ_clean_linker_0, # of connection points: 2
#     Edge 21, Type (0, 0), BuildingBlock: MIFKUJ_clean_linker_0, # of connection points: 2
#     Edge 22, Type (0, 0), BuildingBlock: MIFKUJ_clean_linker_0, # of connection points: 2
#     Edge 23, Type (0, 0), BuildingBlock: MIFKUJ_clean_linker_0, # of connection points: 2
# Relax obj value: 0.056
# Max RMSD: 0.145
# Mean RMSD: 0.145
data_MOF--net-msp--node1-ICAMEG_clean_sbu_1--edge1-MIFKUJ_clean_linker_0
_symmetry_space_group_name_H-M    P1
_symmetry_Int_Tables_number       1
_symmetry_cell_setting            triclinic
loop_
_symmetry_equiv_pos_as_xyz
'x, y, z'
_cell_length_a     33.938665
_cell_length_b     24.77618
_cell_length_c     56.410268
_cell_angle_alpha  89.9521
_cell_angle_beta   103.95223
_cell_angle_gamma 90.025288
loop_
_atom_site_label
_atom_site_type_symbol
_atom_site_fract_x
_atom_site_fract_y
_atom_site_fract_z
_atom_type_partial_charge
Co0 Co 0.07036 0.36884 0.35128 0.0
Co1 Co 0.02109 0.25734 0.36722 0.0
O2 O 0.03577 0.3052 0.34317 0.0
C3 C 0.11258 0.30286 0.32194 0.0
O4 O 0.10546 0.26164 0.33494 0.0
C5 C 0.94284 0.29258 0.33623 0.0
O6 O 0.95718 0.34202 0.33875 0.0
O7 O 0.00588 0.31948 0.38547 0.0
O8 O 0.04346 0.38915 0.37786 0.0
H9 H 0.01829 0.19529 0.45163 0.0
H10 H 0.0252 0.35042 0.30006 0.0
O11 O 0.09897 0.34943 0.32529 0.0
H12 H 0.97519 0.52459 0.32335 0.0
H13 H 0.1449 0.53153 0.331 0.0
H14 H 0.11515 0.42083 0.39728 0.0
H15 H 0.02833 0.47417 0.35253 0.0
H16 H 0.10026 0.45184 0.32157 0.0
O17 O 0.96444 0.25343 0.34668 0.0
H18 H 0.03738 0.25521 0.42128 0.0
H19 H 0.97106 0.15736 0.36351 0.0
H20 H 0.15966 0.50044 0.40753 0.0
H21 H 0.97211 0.39956 0.27027 0.0
H22 H 0.17482 0.55638 0.37425 0.0
H23 H 0.94671 0.48726 0.2819 0.0
O24 O 0.11182 0.32734 0.37532 0.0
H25 H 0.02237 0.14875 0.2922 0.0
H26 H 0.07291 0.15985 0.38168 0.0
H27 H 0.09386 0.08361 0.35944 0.0
H28 H 0.06848 0.07767 0.31438 0.0
H29 H 0.00252 0.22459 0.31512 0.0
H30 H 0.95093 0.09661 0.39322 0.0
H31 H 0.97475 0.1153 0.43764 0.0
O32 O 0.07727 0.26038 0.3882 0.0
C33 C 0.01909 0.36771 0.38919 0.0
C34 C 0.00788 0.18656 0.43233 0.0
C35 C 0.97003 0.13122 0.39955 0.0
N36 N 0.0058 0.20939 0.39068 0.0
C37 C 0.01873 0.22021 0.41507 0.0
C38 C 0.98149 0.16579 0.38281 0.0
C39 C 0.98341 0.14173 0.42446 0.0
C40 C 0.01455 0.38881 0.30515 0.0
N41 N 0.02997 0.40956 0.32794 0.0
C42 C 0.98439 0.41634 0.28825 0.0
C43 C 0.9701 0.4655 0.2948 0.0
C44 C 0.98605 0.48645 0.31806 0.0
C45 C 0.01609 0.4577 0.33451 0.0
C46 C 0.13844 0.50756 0.34566 0.0
C47 C 0.12135 0.44523 0.3827 0.0
C48 C 0.11324 0.46236 0.34044 0.0
N49 N 0.10482 0.43204 0.35887 0.0
C50 C 0.14669 0.49015 0.38862 0.0
C51 C 0.15521 0.52148 0.36993 0.0
C52 C 0.10962 0.28731 0.38915 0.0
C53 C 0.03353 0.1508 0.31184 0.0
C54 C 0.06182 0.15763 0.36207 0.0
C55 C 0.07372 0.1143 0.34958 0.0
C56 C 0.05945 0.11098 0.32429 0.0
N57 N 0.03633 0.19648 0.34973 0.0
C58 C 0.02225 0.19352 0.32493 0.0
Co59 Co 0.43768 0.34617 0.64562 0.0
Co60 Co 0.49494 0.23709 0.63531 0.0
O61 O 0.47428 0.28571 0.65679 0.0
C62 C 0.39238 0.27887 0.67314 0.0
O63 O 0.40295 0.23713 0.66176 0.0
C64 C 0.56837 0.28127 0.66861 0.0
O65 O 0.55212 0.32938 0.66397 0.0
O66 O 0.50936 0.29866 0.61606 0.0
O67 O 0.46892 0.36721 0.62136 0.0
H68 H 0.51055 0.16552 0.55473 0.0
H69 H 0.47534 0.33326 0.69844 0.0
O70 O 0.40474 0.32596 0.66938 0.0
H71 H 0.52218 0.51033 0.67607 0.0
H72 H 0.35061 0.50396 0.65701 0.0
H73 H 0.39873 0.3928 0.59718 0.0
H74 H 0.47582 0.45455 0.64528 0.0
H75 H 0.39774 0.42814 0.67072 0.0
O76 O 0.54977 0.23983 0.65821 0.0
H77 H 0.48422 0.22678 0.5817 0.0
H78 H 0.55124 0.14289 0.64419 0.0
H79 H 0.35191 0.4684 0.5827 0.0
H80 H 0.5215 0.38786 0.72986 0.0
H81 H 0.3275 0.5246 0.61272 0.0
H82 H 0.5453 0.47703 0.71871 0.0
O83 O 0.4018 0.30089 0.62027 0.0
H84 H 0.48922 0.13612 0.71173 0.0
H85 H 0.44968 0.13407 0.62168 0.0
H86 H 0.42958 0.0584 0.64467 0.0
H87 H 0.44944 0.05909 0.69003 0.0
H88 H 0.50832 0.21121 0.68804 0.0
H89 H 0.57857 0.08096 0.61789 0.0
H90 H 0.5581 0.09196 0.57281 0.0
O91 O 0.44083 0.23351 0.61212 0.0
C92 C 0.49505 0.34621 0.61126 0.0
C93 C 0.51963 0.16023 0.57435 0.0
C94 C 0.55785 0.11282 0.60979 0.0
N95 N 0.51602 0.18826 0.61449 0.0
C96 C 0.50475 0.19472 0.58972 0.0
C97 C 0.54236 0.1481 0.6246 0.0
C98 C 0.54633 0.119 0.5845 0.0
C99 C 0.48529 0.37225 0.69352 0.0
N100 N 0.47275 0.39085 0.67011 0.0
C101 C 0.51154 0.40288 0.71136 0.0
C102 C 0.52493 0.45288 0.70508 0.0
C103 C 0.51199 0.47157 0.68115 0.0
C104 C 0.4858 0.43978 0.66379 0.0
C105 C 0.36109 0.47984 0.64376 0.0
C106 C 0.38848 0.41727 0.61038 0.0
C107 C 0.38771 0.4368 0.65141 0.0
N108 N 0.4012 0.40633 0.63479 0.0
C109 C 0.36186 0.45994 0.60206 0.0
C110 C 0.34815 0.49141 0.61891 0.0
C111 C 0.40753 0.25952 0.60808 0.0
C112 C 0.48048 0.13529 0.69197 0.0
C113 C 0.45835 0.13473 0.64141 0.0
C114 C 0.44695 0.09172 0.65433 0.0
C115 C 0.45812 0.09211 0.67978 0.0
N116 N 0.48036 0.17688 0.6535 0.0
C117 C 0.49137 0.17758 0.67845 0.0
Co118 Co 0.91768 0.63866 0.64286 0.0
Co119 Co 0.97548 0.74393 0.62947 0.0
O120 O 0.95607 0.69786 0.65233 0.0
C121 C 0.87856 0.70981 0.67187 0.0
O122 O 0.88853 0.74966 0.65911 0.0
C123 C 0.04908 0.69836 0.66161 0.0
O124 O 0.03127 0.65106 0.65769 0.0
O125 O 0.98749 0.68043 0.61085 0.0
O126 O 0.94486 0.6152 0.61686 0.0
H127 H 0.98788 0.8067 0.54685 0.0
H128 H 0.9612 0.65134 0.69481 0.0
O129 O 0.889 0.66166 0.66832 0.0
H130 H 0.00064 0.47183 0.67068 0.0
H131 H 0.83049 0.48573 0.65958 0.0
H132 H 0.87205 0.59214 0.59577 0.0
H133 H 0.9527 0.52874 0.64125 0.0
H134 H 0.88008 0.55983 0.67074 0.0
O135 O 0.03127 0.74036 0.65123 0.0
H136 H 0.96247 0.74904 0.5756 0.0
H137 H 0.0328 0.8369 0.63569 0.0
H138 H 0.82262 0.51814 0.58379 0.0
H139 H 0.00906 0.59564 0.72488 0.0
H140 H 0.80152 0.46437 0.61582 0.0
H141 H 0.02915 0.50525 0.71284 0.0
O142 O 0.88044 0.68495 0.61866 0.0
H143 H 0.9768 0.85146 0.70518 0.0
H144 H 0.93131 0.8475 0.61531 0.0
H145 H 0.91411 0.92577 0.63786 0.0
H146 H 0.93696 0.92811 0.68313 0.0
H147 H 0.99299 0.77375 0.68193 0.0
H148 H 0.05927 0.89525 0.60761 0.0
H149 H 0.03665 0.88045 0.56283 0.0
O150 O 0.92008 0.74799 0.60736 0.0
C151 C 0.97131 0.63391 0.60633 0.0
C152 C 0.99781 0.81373 0.56631 0.0
C153 C 0.03793 0.86338 0.60042 0.0
N154 N 0.99573 0.79005 0.60726 0.0
C155 C 0.98339 0.78136 0.58267 0.0
C156 C 0.02287 0.83018 0.61623 0.0
C157 C 0.02521 0.85505 0.5753 0.0
C158 C 0.96951 0.61182 0.68953 0.0
N159 N 0.95404 0.59318 0.66636 0.0
C160 C 0.99674 0.58057 0.70659 0.0
C161 C 0.00805 0.52989 0.69981 0.0
C162 C 0.99209 0.51113 0.67615 0.0
C163 C 0.96501 0.54356 0.65956 0.0
C164 C 0.83952 0.50878 0.64545 0.0
C165 C 0.86324 0.56866 0.60981 0.0
C166 C 0.86754 0.55082 0.65167 0.0
N167 N 0.87922 0.57991 0.63393 0.0
C168 C 0.83514 0.52693 0.60292 0.0
C169 C 0.82329 0.49681 0.6209 0.0
C170 C 0.88594 0.72471 0.60546 0.0
C171 C 0.96678 0.85099 0.68546 0.0
C172 C 0.94129 0.84816 0.63501 0.0
C173 C 0.93152 0.89264 0.64768 0.0
C174 C 0.94437 0.89394 0.67307 0.0
N175 N 0.96333 0.80622 0.64729 0.0
C176 C 0.97602 0.8072 0.67219 0.0
Co177 Co 0.56635 0.62026 0.35238 0.0
Co178 Co 0.50412 0.72484 0.36186 0.0
O179 O 0.52443 0.67477 0.34069 0.0
C180 C 0.60032 0.68912 0.3193 0.0
O181 O 0.5829 0.73056 0.32703 0.0
C182 C 0.43072 0.66585 0.33562 0.0
O183 O 0.45174 0.62087 0.33945 0.0
O184 O 0.49969 0.66611 0.38538 0.0
O185 O 0.53932 0.59809 0.37851 0.0
H186 H 0.49829 0.80943 0.44188 0.0
H187 H 0.52365 0.6234 0.30003 0.0
O188 O 0.5956 0.64166 0.32687 0.0
H189 H 0.49324 0.44409 0.32923 0.0
H190 H 0.66316 0.47258 0.34265 0.0
H191 H 0.61238 0.584 0.40134 0.0
H192 H 0.53744 0.50792 0.3571 0.0
H193 H 0.60972 0.54066 0.32812 0.0
O194 O 0.44726 0.71066 0.3433 0.0
H195 H 0.52373 0.74659 0.41514 0.0
H196 H 0.44003 0.80989 0.35289 0.0
H197 H 0.66558 0.51621 0.41665 0.0
H198 H 0.47943 0.56076 0.27148 0.0
H199 H 0.69137 0.45993 0.38721 0.0
H200 H 0.4639 0.47042 0.28608 0.0
O201 O 0.60053 0.67219 0.37526 0.0
H202 H 0.4842 0.80959 0.27885 0.0
H203 H 0.54053 0.83517 0.36723 0.0
H204 H 0.54794 0.90761 0.3386 0.0
H205 H 0.51962 0.89506 0.29406 0.0
H206 H 0.47784 0.73797 0.30809 0.0
H207 H 0.41342 0.87313 0.379 0.0
H208 H 0.44272 0.87331 0.42382 0.0
O209 O 0.56008 0.74013 0.38095 0.0
C210 C 0.51547 0.61938 0.39019 0.0
C211 C 0.48534 0.80985 0.42237 0.0
C212 C 0.43768 0.84555 0.38708 0.0
N213 N 0.48357 0.77482 0.38246 0.0
C214 C 0.49969 0.77445 0.40712 0.0
C215 C 0.4528 0.80956 0.37239 0.0
C216 C 0.45414 0.84564 0.41223 0.0
C217 C 0.51731 0.58396 0.30643 0.0
N218 N 0.53326 0.56919 0.33014 0.0
C219 C 0.49215 0.54875 0.29022 0.0
C220 C 0.48339 0.4981 0.29843 0.0
C221 C 0.49983 0.48331 0.32265 0.0
C222 C 0.52479 0.51963 0.33835 0.0
C223 C 0.65211 0.49677 0.35565 0.0
C224 C 0.6232 0.55939 0.3884 0.0
C225 C 0.6219 0.53541 0.34753 0.0
N226 N 0.60771 0.56594 0.36386 0.0
C227 C 0.65344 0.52118 0.39719 0.0
C228 C 0.66792 0.48967 0.38066 0.0
C229 C 0.59441 0.71677 0.38505 0.0
C230 C 0.49657 0.81559 0.29822 0.0
C231 C 0.52822 0.82934 0.34787 0.0
C232 C 0.53243 0.87055 0.33175 0.0
C233 C 0.5165 0.86351 0.30676 0.0
N234 N 0.5086 0.78247 0.33935 0.0
C235 C 0.49289 0.77528 0.31487 0.0
Co236 Co 0.54886 0.85723 0.84665 0.0
Co237 Co 0.50477 0.7421 0.86362 0.0
O238 O 0.5153 0.7927 0.83932 0.0
C239 C 0.58941 0.79067 0.81665 0.0
O240 O 0.58205 0.7497 0.8297 0.0
C241 C 0.42497 0.78354 0.83781 0.0
O242 O 0.44123 0.83187 0.8409 0.0
O243 O 0.49553 0.80181 0.88532 0.0
O244 O 0.52246 0.87722 0.87341 0.0
H245 H 0.51888 0.66668 0.948 0.0
H246 H 0.50256 0.83627 0.79586 0.0
O247 O 0.57696 0.83771 0.82038 0.0
H248 H 0.45121 0.01019 0.81847 0.0
H249 H 0.62034 0.02127 0.82478 0.0
H250 H 0.5934 0.91146 0.89213 0.0
H251 H 0.5057 0.96169 0.84753 0.0
H252 H 0.57695 0.94021 0.81612 0.0
O253 O 0.44595 0.7423 0.84645 0.0
H254 H 0.53288 0.73041 0.91745 0.0
H255 H 0.452 0.64497 0.86067 0.0
H256 H 0.63672 0.99226 0.90162 0.0
H257 H 0.44816 0.88351 0.76617 0.0
H258 H 0.65045 0.04783 0.8678 0.0
H259 H 0.42207 0.97105 0.77746 0.0
O260 O 0.59133 0.81767 0.87076 0.0
H261 H 0.48883 0.64379 0.78394 0.0
H262 H 0.55486 0.64199 0.87198 0.0
H263 H 0.5688 0.56841 0.84572 0.0
H264 H 0.53561 0.56899 0.80137 0.0
H265 H 0.47603 0.71681 0.81082 0.0
H266 H 0.43687 0.58052 0.89064 0.0
H267 H 0.47054 0.59107 0.93465 0.0
O268 O 0.5631 0.74179 0.8811 0.0
C269 C 0.50451 0.85191 0.8875 0.0
C270 C 0.50409 0.66157 0.92887 0.0
C271 C 0.45802 0.61326 0.89668 0.0
N272 N 0.49345 0.69125 0.88729 0.0
C273 C 0.51197 0.69746 0.91147 0.0
C274 C 0.46663 0.64996 0.8798 0.0
C275 C 0.47694 0.61919 0.92137 0.0
C276 C 0.49161 0.87461 0.80079 0.0
N277 N 0.50741 0.89638 0.82332 0.0
C278 C 0.46071 0.90106 0.78395 0.0
C279 C 0.44604 0.95014 0.79031 0.0
C280 C 0.46236 0.97211 0.81333 0.0
C281 C 0.49317 0.94445 0.82972 0.0
C282 C 0.6145 0.99747 0.83967 0.0
C283 C 0.59897 0.93562 0.87731 0.0
C284 C 0.59001 0.95152 0.83487 0.0
N285 N 0.58235 0.92145 0.85359 0.0
C286 C 0.62365 0.98125 0.8828 0.0
C287 C 0.63137 0.01236 0.86382 0.0
C288 C 0.59304 0.77387 0.88286 0.0
C289 C 0.50337 0.643 0.80325 0.0
C290 C 0.54035 0.64256 0.85269 0.0
C291 C 0.54831 0.60074 0.83792 0.0
C292 C 0.52967 0.60108 0.81304 0.0
N293 N 0.51445 0.68346 0.84297 0.0
C294 C 0.49609 0.68411 0.81858 0.0
Co295 Co 0.93124 0.87149 0.14928 0.0
Co296 Co 0.98385 0.77081 0.12844 0.0
O297 O 0.96416 0.80613 0.15422 0.0
C298 C 0.88168 0.79627 0.17031 0.0
O299 O 0.88515 0.76243 0.15303 0.0
C300 C 0.05705 0.78662 0.16794 0.0
O301 O 0.0456 0.8371 0.16859 0.0
O302 O 0.00675 0.83976 0.1196 0.0
O303 O 0.96208 0.90153 0.1261 0.0
H304 H 0.00721 0.75217 0.04419 0.0
H305 H 0.97007 0.83591 0.1997 0.0
O306 O 0.89908 0.8422 0.17199 0.0
H307 H 0.02619 0.01676 0.19164 0.0
H308 H 0.8556 0.02413 0.17717 0.0
H309 H 0.89177 0.93835 0.10644 0.0
H310 H 0.97561 0.97633 0.15738 0.0
H311 H 0.89838 0.9424 0.18257 0.0
O312 O 0.036 0.75413 0.15249 0.0
H313 H 0.98173 0.79617 0.07673 0.0
H314 H 0.03038 0.66975 0.12602 0.0
H315 H 0.8492 0.02022 0.10024 0.0
H316 H 0.0204 0.87494 0.23447 0.0
H317 H 0.83085 0.06369 0.13578 0.0
H318 H 0.04888 0.96596 0.23053 0.0
O319 O 0.89212 0.83869 0.12097 0.0
H320 H 0.95582 0.62857 0.18582 0.0
H321 H 0.93109 0.68558 0.09971 0.0
H322 H 0.89968 0.60178 0.11 0.0
H323 H 0.91203 0.57274 0.15334 0.0
H324 H 0.98634 0.7124 0.17473 0.0
H325 H 0.05671 0.62454 0.09404 0.0
H326 H 0.045 0.66567 0.05275 0.0
O327 O 0.93223 0.78676 0.104 0.0
C328 C 0.99122 0.88692 0.11683 0.0
C329 C 0.01236 0.73371 0.06207 0.0
C330 C 0.04019 0.66213 0.09006 0.0
N331 N 0.00416 0.73524 0.10317 0.0
C332 C 0.99788 0.75835 0.08056 0.0
C333 C 0.02527 0.68794 0.10811 0.0
C334 C 0.0336 0.68522 0.0669 0.0
C335 C 0.98202 0.87577 0.19794 0.0
N336 N 0.96977 0.90393 0.1766 0.0
C337 C 0.01064 0.89756 0.21765 0.0
C338 C 0.02667 0.94859 0.21541 0.0
C339 C 0.01397 0.9771 0.19359 0.0
C340 C 0.98538 0.95396 0.17424 0.0
C341 C 0.8635 0.00567 0.16156 0.0
C342 C 0.88419 0.95728 0.12203 0.0
C343 C 0.88768 0.95938 0.1645 0.0
N344 N 0.89798 0.93606 0.14489 0.0
C345 C 0.85995 0.00352 0.11839 0.0
C346 C 0.84963 0.02785 0.13833 0.0
C347 C 0.89854 0.80998 0.10352 0.0
C348 C 0.95034 0.64071 0.16687 0.0
C349 C 0.93658 0.67327 0.11861 0.0
C350 C 0.91876 0.62571 0.12432 0.0
C351 C 0.92572 0.60943 0.14864 0.0
N352 N 0.96074 0.70369 0.1366 0.0
C353 C 0.96768 0.688 0.16047 0.0
Co354 Co 0.4285 0.15747 0.14277 0.0
Co355 Co 0.49723 0.24596 0.12862 0.0
O356 O 0.47444 0.20683 0.15226 0.0
C357 C 0.40186 0.23151 0.17665 0.0
O358 O 0.41289 0.27137 0.16431 0.0
C359 C 0.56829 0.19396 0.16101 0.0
O360 O 0.54778 0.14851 0.15818 0.0
O361 O 0.50349 0.17771 0.11134 0.0
O362 O 0.44773 0.13132 0.11391 0.0
H363 H 0.51262 0.29317 0.04468 0.0
H364 H 0.47912 0.1549 0.19351 0.0
O365 O 0.4075 0.18283 0.17104 0.0
H366 H 0.48981 0.97246 0.16075 0.0
H367 H 0.32609 0.02481 0.15954 0.0
H368 H 0.37122 0.12772 0.09602 0.0
H369 H 0.44736 0.04198 0.13543 0.0
H370 H 0.38604 0.0843 0.1705 0.0
O371 O 0.55257 0.23663 0.1502 0.0
H372 H 0.48331 0.24502 0.07466 0.0
H373 H 0.56209 0.32919 0.13283 0.0
H374 H 0.3114 0.06828 0.08421 0.0
H375 H 0.52172 0.08652 0.21953 0.0
H376 H 0.28841 0.0164 0.11611 0.0
H377 H 0.52732 0.99458 0.20313 0.0
O378 O 0.39575 0.21368 0.12184 0.0
H379 H 0.50882 0.36382 0.20243 0.0
H380 H 0.46236 0.35441 0.11268 0.0
H381 H 0.45246 0.43843 0.13393 0.0
H382 H 0.47584 0.44354 0.17912 0.0
H383 H 0.51773 0.28039 0.18048 0.0
H384 H 0.59265 0.37775 0.10348 0.0
H385 H 0.5678 0.35995 0.05904 0.0
O386 O 0.44233 0.2566 0.1065 0.0
C387 C 0.47815 0.1394 0.10477 0.0
C388 C 0.52369 0.30131 0.06399 0.0
C389 C 0.5686 0.34877 0.097 0.0
N390 N 0.52073 0.28463 0.10545 0.0
C391 C 0.50709 0.27433 0.08105 0.0
C392 C 0.55124 0.32108 0.11353 0.0
C393 C 0.55464 0.33877 0.07206 0.0
C394 C 0.48112 0.11482 0.18635 0.0
N395 N 0.46067 0.10235 0.16304 0.0
C396 C 0.50541 0.07634 0.20112 0.0
C397 C 0.5086 0.02479 0.19189 0.0
C398 C 0.48758 0.01237 0.16811 0.0
C399 C 0.46366 0.05192 0.15384 0.0
C400 C 0.33592 0.04703 0.14546 0.0
C401 C 0.36172 0.10477 0.10996 0.0
C402 C 0.36982 0.0808 0.15156 0.0
N403 N 0.38242 0.10895 0.13387 0.0
C404 C 0.3277 0.07137 0.10318 0.0
C405 C 0.31478 0.04234 0.12109 0.0
C406 C 0.40564 0.24625 0.10676 0.0
C407 C 0.49861 0.36215 0.18273 0.0
C408 C 0.4725 0.35624 0.13236 0.0
C409 C 0.4669 0.40398 0.14428 0.0
C410 C 0.48005 0.40683 0.16964 0.0
N411 N 0.49077 0.3126 0.14532 0.0
C412 C 0.50373 0.31509 0.17019 0.0
Co413 Co 0.07797 0.16149 0.86045 0.0
Co414 Co 0.02007 0.26896 0.87168 0.0
O415 O 0.03611 0.21643 0.84993 0.0
C416 C 0.10779 0.22351 0.82379 0.0
O417 O 0.09762 0.26696 0.83421 0.0
C418 C 0.94372 0.21379 0.84781 0.0
O419 O 0.96298 0.16762 0.85259 0.0
O420 O 0.01575 0.2117 0.89584 0.0
O421 O 0.05767 0.14533 0.89017 0.0
H422 H 0.02459 0.35758 0.95237 0.0
H423 H 0.0258 0.15781 0.81017 0.0
O424 O 0.10021 0.17697 0.83126 0.0
H425 H 0.00031 0.98646 0.84846 0.0
H426 H 0.16584 0.0064 0.84702 0.0
H427 H 0.13346 0.13115 0.90772 0.0
H428 H 0.04949 0.05241 0.87138 0.0
H429 H 0.11234 0.07527 0.83459 0.0
O430 O 0.96201 0.25797 0.85466 0.0
H431 H 0.04502 0.2918 0.92479 0.0
H432 H 0.95915 0.35797 0.86423 0.0
H433 H 0.18711 0.06266 0.92097 0.0
H434 H 0.97652 0.09288 0.78653 0.0
H435 H 0.20352 0.9997 0.89052 0.0
H436 H 0.96345 0.00655 0.80571 0.0
O437 O 0.11634 0.21525 0.87945 0.0
H438 H 0.99523 0.35088 0.78785 0.0
H439 H 0.06013 0.37698 0.87522 0.0
H440 H 0.06678 0.44759 0.84557 0.0
H441 H 0.03408 0.43483 0.80155 0.0
H442 H 0.98983 0.281 0.81803 0.0
H443 H 0.93756 0.42421 0.8912 0.0
H444 H 0.97049 0.42442 0.93559 0.0
O445 O 0.07763 0.28134 0.88902 0.0
C446 C 0.03385 0.16678 0.90188 0.0
C447 C 0.0101 0.35801 0.93305 0.0
C448 C 0.96122 0.39536 0.89872 0.0
N449 N 0.00352 0.32133 0.89291 0.0
C450 C 0.02161 0.32095 0.91733 0.0
C451 C 0.9735 0.35769 0.88355 0.0
C452 C 0.97972 0.39546 0.92362 0.0
C453 C 0.02053 0.12009 0.81854 0.0
N454 N 0.04062 0.10875 0.84205 0.0
C455 C 0.99249 0.08359 0.80511 0.0
C456 C 0.98512 0.03519 0.8159 0.0
C457 C 0.00578 0.02391 0.83989 0.0
C458 C 0.03353 0.06143 0.85279 0.0
C459 C 0.15885 0.0335 0.86048 0.0
C460 C 0.14027 0.1036 0.89441 0.0
C461 C 0.12863 0.0726 0.85355 0.0
N462 N 0.11952 0.10678 0.87047 0.0
C463 C 0.17073 0.06505 0.902 0.0
C464 C 0.17998 0.02976 0.88489 0.0
C465 C 0.11193 0.25931 0.89019 0.0
C466 C 0.00955 0.35697 0.80698 0.0
C467 C 0.04599 0.37101 0.85608 0.0
C468 C 0.04976 0.4112 0.83938 0.0
C469 C 0.03139 0.40403 0.81468 0.0
N470 N 0.02444 0.32501 0.84839 0.0
C471 C 0.00644 0.31764 0.82419 0.0
H472 H 0.96982 0.33697 0.4189 0.0
H473 H 0.96077 0.38292 0.4555 0.0
H474 H 0.03658 0.51379 0.44232 0.0
H475 H 0.0459 0.46837 0.40571 0.0
H476 H 0.06028 0.47545 0.48903 0.0
H477 H 0.93679 0.53262 0.43391 0.0
H478 H 0.87191 0.52128 0.40328 0.0
H479 H 0.82568 0.42501 0.45386 0.0
H480 H 0.89055 0.43509 0.48469 0.0
H481 H 0.02161 0.66149 0.57681 0.0
H482 H 0.0297 0.61453 0.5403 0.0
H483 H 0.95035 0.48762 0.5532 0.0
H484 H 0.94165 0.53444 0.58965 0.0
H485 H 0.92834 0.52292 0.50676 0.0
H486 H 0.05151 0.4659 0.56198 0.0
H487 H 0.11628 0.47723 0.59271 0.0
H488 H 0.16311 0.57263 0.5421 0.0
H489 H 0.09838 0.56253 0.51116 0.0
C490 C 0.98405 0.37595 0.4235 0.0
C491 C 0.00873 0.39878 0.40933 0.0
C492 C 0.97882 0.40217 0.44446 0.0
C493 C 0.99806 0.45172 0.45164 0.0
C494 C 0.02161 0.47545 0.43715 0.0
C495 C 0.02672 0.44946 0.41613 0.0
C496 C 0.99538 0.47742 0.47493 0.0
C497 C 0.03147 0.48657 0.49279 0.0
C498 C 0.95772 0.49043 0.48006 0.0
C499 C 0.91871 0.48414 0.46153 0.0
C500 C 0.91294 0.50859 0.43843 0.0
C501 C 0.87613 0.50248 0.42104 0.0
C502 C 0.84473 0.47232 0.4266 0.0
C503 C 0.85006 0.44829 0.44957 0.0
C504 C 0.88683 0.45422 0.46701 0.0
C505 C 0.00635 0.62316 0.57217 0.0
C506 C 0.98088 0.6019 0.58621 0.0
C507 C 0.01106 0.59632 0.55125 0.0
C508 C 0.99068 0.54751 0.54404 0.0
C509 C 0.96625 0.52533 0.55839 0.0
C510 C 0.9615 0.5521 0.57932 0.0
C511 C 0.99326 0.52105 0.52087 0.0
C512 C 0.95715 0.51173 0.50303 0.0
C513 C 0.03091 0.50779 0.51577 0.0
C514 C 0.06993 0.51388 0.53433 0.0
C515 C 0.07549 0.48968 0.55746 0.0
C516 C 0.11222 0.49581 0.57491 0.0
C517 C 0.14375 0.52574 0.56939 0.0
C518 C 0.13864 0.54951 0.54637 0.0
C519 C 0.10194 0.54355 0.52886 0.0
H520 H 0.17217 0.53043 0.58292 0.0
H521 H 0.81624 0.46768 0.41312 0.0
H522 H 0.53427 0.51416 0.40284 0.0
H523 H 0.53073 0.46855 0.44061 0.0
H524 H 0.47961 0.61166 0.46474 0.0
H525 H 0.4828 0.65783 0.42688 0.0
H526 H 0.54475 0.57007 0.49967 0.0
H527 H 0.42038 0.50706 0.44816 0.0
H528 H 0.37583 0.46579 0.41163 0.0
H529 H 0.44242 0.31728 0.42644 0.0
H530 H 0.48781 0.35795 0.46288 0.0
H531 H 0.48008 0.45271 0.59966 0.0
H532 H 0.48617 0.49897 0.56255 0.0
H533 H 0.53739 0.35548 0.53883 0.0
H534 H 0.53156 0.30862 0.57604 0.0
H535 H 0.47286 0.39714 0.50365 0.0
H536 H 0.59655 0.46151 0.55601 0.0
H537 H 0.63985 0.50383 0.59269 0.0
H538 H 0.57232 0.65136 0.57661 0.0
H539 H 0.52819 0.60966 0.54 0.0
C540 C 0.52165 0.53583 0.41596 0.0
C541 C 0.50867 0.58972 0.41171 0.0
C542 C 0.51966 0.5096 0.43756 0.0
C543 C 0.50482 0.53667 0.45544 0.0
C544 C 0.49115 0.59006 0.45114 0.0
C545 C 0.49274 0.61624 0.4294 0.0
C546 C 0.5052 0.50979 0.479 0.0
C547 C 0.52849 0.53271 0.50062 0.0
C548 C 0.48488 0.46031 0.4801 0.0
C549 C 0.45783 0.4358 0.4581 0.0
C550 C 0.42582 0.46579 0.44349 0.0
C551 C 0.40035 0.44246 0.42283 0.0
C552 C 0.40637 0.389 0.41667 0.0
C553 C 0.43784 0.35873 0.4312 0.0
C554 C 0.46344 0.38189 0.45187 0.0
C555 C 0.49344 0.43115 0.58684 0.0
C556 C 0.50537 0.37681 0.59093 0.0
C557 C 0.49689 0.45777 0.5656 0.0
C558 C 0.51227 0.4307 0.54794 0.0
C559 C 0.52543 0.37708 0.55225 0.0
C560 C 0.52234 0.35049 0.57363 0.0
C561 C 0.51226 0.45749 0.52439 0.0
C562 C 0.48905 0.43454 0.50275 0.0
C563 C 0.53242 0.50712 0.5233 0.0
C564 C 0.55877 0.53223 0.54539 0.0
C565 C 0.59066 0.5028 0.56042 0.0
C566 C 0.61541 0.52672 0.58117 0.0
C567 C 0.60877 0.5802 0.58702 0.0
C568 C 0.5774 0.60991 0.57208 0.0
C569 C 0.55252 0.58616 0.55132 0.0
H570 H 0.62799 0.59866 0.60308 0.0
H571 H 0.38659 0.37101 0.40068 0.0
H572 H 0.54661 0.09852 0.09384 0.0
H573 H 0.55047 0.04669 0.05743 0.0
H574 H 0.42032 0.05948 0.03068 0.0
H575 H 0.41635 0.10724 0.06772 0.0
H576 H 0.43791 0.96886 0.01959 0.0
H577 H 0.49517 0.14165 0.01034 0.0
H578 H 0.5417 0.21889 0.02181 0.0
H579 H 0.64378 0.11583 0.02285 0.0
H580 H 0.59787 0.03778 0.01166 0.0
H581 H 0.49946 0.96118 0.8934 0.0
H582 H 0.49282 0.00938 0.93002 0.0
H583 H 0.49 0.85736 0.96704 0.0
H584 H 0.49418 0.8092 0.93017 0.0
H585 H 0.53793 0.01901 0.97218 0.0
H586 H 0.44016 0.86409 0.01069 0.0
H587 H 0.38551 0.79816 0.99522 0.0
H588 H 0.34905 0.88698 0.9281 0.0
H589 H 0.40311 0.95378 0.94328 0.0
C590 C 0.51893 0.08955 0.08023 0.0
C591 C 0.48119 0.10644 0.08358 0.0
C592 C 0.52111 0.06043 0.05932 0.0
C593 C 0.48575 0.04987 0.04092 0.0
C594 C 0.44808 0.06661 0.04452 0.0
C595 C 0.44579 0.09401 0.06572 0.0
C596 C 0.48757 0.02185 0.01783 0.0
C597 C 0.45978 0.98005 0.00925 0.0
C598 C 0.51544 0.03688 0.00387 0.0
C599 C 0.54311 0.08378 0.01043 0.0
C600 C 0.52756 0.1354 0.01317 0.0
C601 C 0.55381 0.17933 0.01961 0.0
C602 C 0.59567 0.17224 0.02315 0.0
C603 C 0.61135 0.12123 0.02016 0.0
C604 C 0.58523 0.07714 0.01375 0.0
C605 C 0.49662 0.93806 0.90921 0.0
C606 C 0.4968 0.88133 0.90874 0.0
C607 C 0.49318 0.96566 0.93022 0.0
C608 C 0.49043 0.93714 0.95131 0.0
C609 C 0.49088 0.88046 0.95087 0.0
C610 C 0.49337 0.85287 0.92972 0.0
C611 C 0.48799 0.96658 0.9739 0.0
C612 C 0.5159 0.0082 0.98248 0.0
C613 C 0.45888 0.9533 0.98722 0.0
C614 C 0.42596 0.91362 0.97805 0.0
C615 C 0.42037 0.86965 0.99267 0.0
C616 C 0.38952 0.83211 0.98394 0.0
C617 C 0.36392 0.83828 0.96066 0.0
C618 C 0.369 0.88213 0.94609 0.0
C619 C 0.39977 0.91981 0.95474 0.0
H620 H 0.34008 0.80914 0.95393 0.0
H621 H 0.61594 0.2063 0.02814 0.0
H622 H 0.95627 0.98319 0.09946 0.0
H623 H 0.96635 0.03371 0.0643 0.0
H624 H 0.06276 0.92552 0.05814 0.0
H625 H 0.05244 0.87358 0.0931 0.0
H626 H 0.07684 0.04122 0.05108 0.0
H627 H 0.97968 0.89985 0.02286 0.0
H628 H 0.9182 0.84693 0.02287 0.0
H629 H 0.84481 0.98899 0.00418 0.0
H630 H 0.90604 0.043 0.00439 0.0
H631 H 0.07491 0.07831 0.92443 0.0
H632 H 0.07144 0.03816 0.96342 0.0
H633 H 0.97824 0.15152 0.96966 0.0
H634 H 0.98245 0.19363 0.931 0.0
H635 H 0.96254 0.03493 0.97721 0.0
H636 H 0.05658 0.17704 0.00713 0.0
H637 H 0.11697 0.23584 0.01469 0.0
H638 H 0.19453 0.09742 0.03254 0.0
H639 H 0.13454 0.03774 0.02514 0.0
C640 C 0.98013 0.97042 0.09098 0.0
C641 C 0.00323 0.92377 0.09902 0.0
C642 C 0.98571 0.99937 0.0708 0.0
C643 C 0.01485 0.98279 0.05846 0.0
C644 C 0.03997 0.9387 0.0674 0.0
C645 C 0.03404 0.90916 0.08742 0.0
C646 C 0.0173 0.00964 0.03539 0.0
C647 C 0.05221 0.03917 0.03477 0.0
C648 C 0.9845 0.00811 0.01445 0.0
C649 C 0.94751 0.9756 0.01389 0.0
C650 C 0.95048 0.91993 0.01895 0.0
C651 C 0.91566 0.8897 0.0189 0.0
C652 C 0.87761 0.91462 0.01364 0.0
C653 C 0.87431 0.96977 0.00831 0.0
C654 C 0.90907 1.0002 0.00836 0.0
C655 C 0.05357 0.09486 0.93399 0.0
C656 C 0.02904 0.13947 0.92451 0.0
C657 C 0.05186 0.07198 0.95639 0.0
C658 C 0.02493 0.09228 0.96951 0.0
C659 C -0.00053 0.13561 0.95985 0.0
C660 C 0.00181 0.15942 0.93769 0.0
C661 C 0.02232 0.06652 0.99281 0.0
C662 C 0.98733 0.03687 0.99345 0.0
C663 C 0.055 0.06816 0.01383 0.0
C664 C 0.09108 0.10289 0.01533 0.0
C665 C 0.08652 0.15904 0.01224 0.0
C666 C 0.12065 0.19258 0.0168 0.0
C667 C 0.15952 0.17039 0.02435 0.0
C668 C 0.16438 0.11455 0.0269 0.0
C669 C 0.13033 0.08086 0.02252 0.0
H670 H 0.18589 0.19646 0.02805 0.0
H671 H 0.85067 0.89118 0.0136 0.0
H672 H 0.6077 0.11751 0.19344 0.0
H673 H 0.67295 0.12769 0.22339 0.0
H674 H 0.6848 0.28887 0.1969 0.0
H675 H 0.62048 0.27887 0.16688 0.0
H676 H 0.75578 0.23619 0.20534 0.0
H677 H 0.65 0.26827 0.24764 0.0
H678 H 0.58856 0.24443 0.26144 0.0
H679 H 0.64969 0.10658 0.29959 0.0
H680 H 0.71136 0.12925 0.28573 0.0
H681 H 0.89537 0.36033 0.30294 0.0
H682 H 0.83159 0.33808 0.27366 0.0
H683 H 0.83635 0.17691 0.3032 0.0
H684 H 0.89992 0.19871 0.33255 0.0
H685 H 0.75877 0.2218 0.29354 0.0
H686 H 0.86642 0.19425 0.25309 0.0
H687 H 0.92776 0.22042 0.23971 0.0
H688 H 0.86275 0.35171 0.19817 0.0
H689 H 0.80115 0.32679 0.21162 0.0
C690 C 0.62449 0.15482 0.19384 0.0
C691 C 0.60883 0.19749 0.17791 0.0
C692 C 0.66161 0.16067 0.211 0.0
C693 C 0.68342 0.20928 0.2125 0.0
C694 C 0.66845 0.25106 0.19605 0.0
C695 C 0.63153 0.24531 0.17897 0.0
C696 C 0.72108 0.21805 0.23171 0.0
C697 C 0.75637 0.23336 0.22462 0.0
C698 C 0.72196 0.21341 0.25684 0.0
C699 C 0.68512 0.20011 0.26544 0.0
C700 C 0.65024 0.23267 0.25884 0.0
C701 C 0.6154 0.21941 0.26669 0.0
C702 C 0.61519 0.17393 0.28133 0.0
C703 C 0.64988 0.14174 0.28822 0.0
C704 C 0.6848 0.15479 0.28039 0.0
C705 C 0.88259 0.32038 0.30339 0.0
C706 C 0.90276 0.28116 0.31991 0.0
C707 C 0.84629 0.30768 0.28661 0.0
C708 C 0.82964 0.25568 0.28616 0.0
C709 C 0.84883 0.21719 0.30327 0.0
C710 C 0.88521 0.2297 0.31993 0.0
C711 C 0.79316 0.24073 0.26712 0.0
C712 C 0.7582 0.22418 0.27425 0.0
C713 C 0.7925 0.24442 0.24202 0.0
C714 C 0.82927 0.25891 0.23352 0.0
C715 C 0.86527 0.2289 0.24122 0.0
C716 C 0.90008 0.24349 0.23362 0.0
C717 C 0.89918 0.28777 0.21814 0.0
C718 C 0.86341 0.31744 0.21017 0.0
C719 C 0.82852 0.30307 0.21776 0.0
H720 H 0.92617 0.29904 0.21229 0.0
H721 H 0.58817 0.16371 0.28737 0.0
H722 H 0.60955 0.18724 0.68182 0.0
H723 H 0.67207 0.174 0.71322 0.0
H724 H 0.67761 0.34469 0.7287 0.0
H725 H 0.61494 0.35858 0.69702 0.0
H726 H 0.75116 0.30423 0.72643 0.0
H727 H 0.64528 0.25809 0.76562 0.0
H728 H 0.58391 0.2108 0.77067 0.0
H729 H 0.64496 0.05847 0.77287 0.0
H730 H 0.70651 0.10478 0.76735 0.0
H731 H 0.89429 0.30153 0.83843 0.0
H732 H 0.82898 0.30897 0.80904 0.0
H733 H 0.83304 0.13962 0.79218 0.0
H734 H 0.89889 0.13154 0.82181 0.0
H735 H 0.75505 0.17702 0.79503 0.0
H736 H 0.86121 0.22416 0.756 0.0
H737 H 0.92317 0.27256 0.75274 0.0
H738 H 0.86129 0.42413 0.75112 0.0
H739 H 0.79916 0.37668 0.75489 0.0
C740 C 0.62405 0.22212 0.69181 0.0
C741 C 0.6072 0.27403 0.68696 0.0
C742 C 0.65971 0.21436 0.70984 0.0
C743 C 0.67913 0.25823 0.7235 0.0
C744 C 0.66295 0.31029 0.71838 0.0
C745 C 0.62717 0.31814 0.7003 0.0
C746 C 0.71637 0.24959 0.74309 0.0
C747 C 0.75187 0.27695 0.74159 0.0
C748 C 0.71744 0.21291 0.76253 0.0
C749 C 0.6804 0.18491 0.7658 0.0
C750 C 0.64551 0.21447 0.76693 0.0
C751 C 0.6107 0.18784 0.76991 0.0
C752 C 0.61049 0.13165 0.77202 0.0
C753 C 0.64514 0.10199 0.77118 0.0
C754 C 0.68 0.12841 0.76812 0.0
C755 C 0.88122 0.2656 0.82871 0.0
C756 C 0.90199 0.21601 0.83225 0.0
C757 C 0.84387 0.27 0.81191 0.0
C758 C 0.82663 0.22506 0.79822 0.0
C759 C 0.84607 0.17477 0.80257 0.0
C760 C 0.88363 0.17026 0.81946 0.0
C761 C 0.78957 0.23185 0.77837 0.0
C762 C 0.75423 0.20413 0.7798 0.0
C763 C 0.78858 0.26823 0.75887 0.0
C764 C 0.8256 0.29685 0.75595 0.0
C765 C 0.86087 0.26783 0.75512 0.0
C766 C 0.89604 0.2951 0.75318 0.0
C767 C 0.8962 0.35139 0.75178 0.0
C768 C 0.86114 0.38052 0.75223 0.0
C769 C 0.82593 0.35346 0.75427 0.0
H770 H 0.92346 0.37244 0.75031 0.0
H771 H 0.58353 0.11112 0.77437 0.0
H772 H 0.09699 0.78788 0.67027 0.0
H773 H 0.16077 0.79922 0.70085 0.0
H774 H 0.15475 0.63382 0.7237 0.0
H775 H 0.09041 0.62209 0.69316 0.0
H776 H 0.1731 0.70426 0.76244 0.0
H777 H 0.2206 0.66675 0.69103 0.0
H778 H 0.22453 0.67695 0.64818 0.0
H779 H 0.26343 0.84131 0.66201 0.0
H780 H 0.25918 0.83233 0.70488 0.0
H781 H 0.37887 0.69208 0.83207 0.0
H782 H 0.31358 0.67717 0.80311 0.0
H783 H 0.31318 0.84228 0.77871 0.0
H784 H 0.3786 0.85763 0.8076 0.0
H785 H 0.29848 0.76877 0.74088 0.0
H786 H 0.24998 0.80618 0.81229 0.0
H787 H 0.24623 0.79539 0.85514 0.0
H788 H 0.20975 0.63015 0.84132 0.0
H789 H 0.21384 0.63973 0.79843 0.0
C790 C 0.10928 0.75373 0.68168 0.0
C791 C 0.08874 0.704 0.67925 0.0
C792 C 0.1458 0.76027 0.69909 0.0
C793 C 0.16257 0.71722 0.71435 0.0
C794 C 0.14225 0.66746 0.71201 0.0
C795 C 0.10568 0.66077 0.69449 0.0
C796 C 0.2009 0.72495 0.7331 0.0
C797 C 0.20074 0.7175 0.75774 0.0
C798 C 0.23657 0.74342 0.7269 0.0
C799 C 0.2392 0.74899 0.70112 0.0
C800 C 0.22966 0.70521 0.68489 0.0
C801 C 0.23201 0.71075 0.6606 0.0
C802 C 0.24412 0.75979 0.65236 0.0
C803 C 0.254 0.80336 0.66841 0.0
C804 C 0.25167 0.79805 0.69271 0.0
C805 C 0.36468 0.72542 0.82074 0.0
C806 C 0.38384 0.77604 0.82209 0.0
C807 C 0.32735 0.71685 0.80428 0.0
C808 C 0.30861 0.75869 0.78888 0.0
C809 C 0.32726 0.80954 0.79049 0.0
C810 C 0.36448 0.81829 0.80708 0.0
C811 C 0.2706 0.74852 0.77021 0.0
C812 C 0.27086 0.75542 0.74557 0.0
C813 C 0.23512 0.72942 0.77643 0.0
C814 C 0.23263 0.72353 0.80221 0.0
C815 C 0.24152 0.76739 0.81844 0.0
C816 C 0.23926 0.76153 0.84272 0.0
C817 C 0.22787 0.71207 0.85097 0.0
C818 C 0.21862 0.66841 0.83491 0.0
C819 C 0.22087 0.67405 0.81061 0.0
H820 H 0.22612 0.70762 0.86977 0.0
H821 H 0.24594 0.76399 0.63355 0.0
H822 H 0.38849 0.5844 0.30744 0.0
H823 H 0.31981 0.5899 0.28069 0.0
H824 H 0.30898 0.75349 0.30453 0.0
H825 H 0.37671 0.74821 0.33128 0.0
H826 H 0.23849 0.69818 0.29991 0.0
H827 H 0.33946 0.72861 0.25292 0.0
H828 H 0.39864 0.70207 0.2374 0.0
H829 H 0.33407 0.56268 0.20302 0.0
H830 H 0.27467 0.58808 0.21867 0.0
H831 H 0.10511 0.8411 0.20635 0.0
H832 H 0.16449 0.80674 0.23612 0.0
H833 H 0.15046 0.65235 0.19974 0.0
H834 H 0.09129 0.68646 0.16972 0.0
H835 H 0.22895 0.68577 0.2109 0.0
H836 H 0.12335 0.66511 0.25265 0.0
H837 H 0.0646 0.69346 0.26815 0.0
H838 H 0.13743 0.81491 0.31245 0.0
H839 H 0.19651 0.78781 0.29694 0.0
C840 C 0.37116 0.62119 0.30721 0.0
C841 C 0.38817 0.66608 0.32123 0.0
C842 C 0.33204 0.62431 0.29191 0.0
C843 C 0.30955 0.67233 0.29048 0.0
C844 C 0.3258 0.71608 0.30537 0.0
C845 C 0.3647 0.71308 0.32053 0.0
C846 C 0.27043 0.67937 0.27228 0.0
C847 C 0.23632 0.69546 0.28045 0.0
C848 C 0.26746 0.67463 0.24692 0.0
C849 C 0.30285 0.65988 0.23718 0.0
C850 C 0.33799 0.69213 0.24217 0.0
C851 C 0.37155 0.67732 0.23335 0.0
C852 C 0.37016 0.63062 0.21929 0.0
C853 C 0.33513 0.59877 0.21396 0.0
C854 C 0.30151 0.61336 0.22279 0.0
C855 C 0.11469 0.79989 0.20463 0.0
C856 C 0.09348 0.76652 0.18569 0.0
C857 C 0.14847 0.7802 0.22174 0.0
C858 C 0.16151 0.72677 0.22029 0.0
C859 C 0.14077 0.69361 0.20122 0.0
C860 C 0.10694 0.7132 0.18412 0.0
C861 C 0.19727 0.70603 0.23852 0.0
C862 C 0.23074 0.68739 0.23035 0.0
C863 C 0.19965 0.70856 0.26388 0.0
C864 C 0.16431 0.72463 0.27349 0.0
C865 C 0.12679 0.69809 0.26558 0.0
C866 C 0.09343 0.71391 0.27438 0.0
C867 C 0.09726 0.75603 0.29124 0.0
C868 C 0.13451 0.7823 0.29938 0.0
C869 C 0.16796 0.76668 0.29061 0.0
H870 H 0.07139 0.76824 0.29803 0.0
H871 H 0.39618 0.61919 0.21249 0.0
H872 H 0.37493 0.15825 0.20528 0.0
H873 H 0.32768 0.17389 0.23097 0.0
H874 H 0.32643 0.34409 0.2147 0.0
H875 H 0.37423 0.32897 0.18904 0.0
H876 H 0.32597 0.32348 0.26304 0.0
H877 H 0.25268 0.26722 0.18314 0.0
H878 H 0.23862 0.20772 0.14706 0.0
H879 H 0.21625 0.07522 0.19115 0.0
H880 H 0.23086 0.13375 0.22761 0.0
H881 H 0.14258 0.38201 0.29733 0.0
H882 H 0.19292 0.37223 0.2731 0.0
H883 H 0.19597 0.20023 0.28534 0.0
H884 H 0.14536 0.2095 0.30944 0.0
H885 H 0.1952 0.22463 0.23837 0.0
H886 H 0.26929 0.27972 0.31829 0.0
H887 H 0.28603 0.33756 0.3549 0.0
H888 H 0.30793 0.47123 0.31128 0.0
H889 H 0.2907 0.41436 0.27432 0.0
C890 C 0.3651 0.19918 0.20739 0.0
C891 C 0.37793 0.24231 0.19484 0.0
C892 C 0.338 0.20799 0.22204 0.0
C893 C 0.32297 0.25996 0.22431 0.0
C894 C 0.33752 0.30362 0.21303 0.0
C895 C 0.36477 0.29487 0.19836 0.0
C896 C 0.29026 0.26793 0.23724 0.0
C897 C 0.29714 0.30254 0.25748 0.0
C898 C 0.25297 0.23977 0.23015 0.0
C899 C 0.24322 0.20477 0.20815 0.0
C900 C 0.245 0.22532 0.18517 0.0
C901 C 0.23692 0.19177 0.16465 0.0
C902 C 0.22665 0.13768 0.16682 0.0
C903 C 0.22426 0.11711 0.18951 0.0
C904 C 0.23241 0.15046 0.2101 0.0
C905 C 0.15364 0.342 0.29468 0.0
C906 C 0.14014 0.29653 0.30543 0.0
C907 C 0.18261 0.33656 0.28096 0.0
C908 C 0.19863 0.28562 0.27776 0.0
C909 C 0.18412 0.23995 0.2877 0.0
C910 C 0.15524 0.24534 0.30149 0.0
C911 C 0.23094 0.27995 0.26434 0.0
C912 C 0.22395 0.24579 0.24393 0.0
C913 C 0.26811 0.30852 0.2713 0.0
C914 C 0.27824 0.34292 0.29348 0.0
C915 C 0.27727 0.32159 0.31646 0.0
C916 C 0.28693 0.35417 0.33728 0.0
C917 C 0.29792 0.40808 0.33541 0.0
C918 C 0.29933 0.42949 0.3127 0.0
C919 C 0.28964 0.39709 0.29181 0.0
H920 H 0.30546 0.4332 0.35156 0.0
H921 H 0.22048 0.11175 0.15092 0.0
H922 H 0.35512 0.35782 0.69358 0.0
H923 H 0.30578 0.34675 0.71827 0.0
H924 H 0.31605 0.17365 0.71397 0.0
H925 H 0.36488 0.1844 0.68867 0.0
H926 H 0.23868 0.20213 0.7064 0.0
H927 H 0.36061 0.24419 0.7665 0.0
H928 H 0.42205 0.29664 0.78507 0.0
H929 H 0.34859 0.43486 0.79071 0.0
H930 H 0.28671 0.38346 0.77185 0.0
H931 H 0.1413 0.1422 0.80228 0.0
H932 H 0.18786 0.15093 0.77557 0.0
H933 H 0.1769 0.32427 0.77718 0.0
H934 H 0.13071 0.31598 0.80421 0.0
H935 H 0.25485 0.29419 0.78624 0.0
H936 H 0.13269 0.25094 0.72603 0.0
H937 H 0.07167 0.19744 0.70773 0.0
H938 H 0.14621 0.05984 0.7029 0.0
H939 H 0.20768 0.11232 0.72149 0.0
C940 C 0.34715 0.31734 0.698 0.0
C941 C 0.36406 0.27196 0.6892 0.0
C942 C 0.31896 0.31108 0.7122 0.0
C943 C 0.30752 0.25936 0.71825 0.0
C944 C 0.32442 0.21396 0.70954 0.0
C945 C 0.35244 0.22017 0.69516 0.0
C946 C 0.27738 0.25282 0.73328 0.0
C947 C 0.24251 0.22162 0.72403 0.0
C948 C 0.28189 0.27918 0.75605 0.0
C949 C 0.31905 0.3101 0.76756 0.0
C950 C 0.35757 0.28589 0.77154 0.0
C951 C 0.39248 0.31541 0.78214 0.0
C952 C 0.38924 0.36909 0.78901 0.0
C953 C 0.35106 0.3933 0.78536 0.0
C954 C 0.31606 0.36397 0.77474 0.0
C955 C 0.14834 0.1822 0.79671 0.0
C956 C 0.13233 0.22843 0.80545 0.0
C957 C 0.17493 0.1871 0.78137 0.0
C958 C 0.18576 0.23826 0.77427 0.0
C959 C 0.16904 0.2844 0.78248 0.0
C960 C 0.14251 0.27956 0.79786 0.0
C961 C 0.21605 0.24378 0.7593 0.0
C962 C 0.25102 0.27472 0.7686 0.0
C963 C 0.21168 0.21699 0.73665 0.0
C964 C 0.17476 0.18543 0.72536 0.0
C965 C 0.13605 0.20915 0.72124 0.0
C966 C 0.10139 0.17903 0.71078 0.0
C967 C 0.10505 0.12523 0.70421 0.0
C968 C 0.14341 0.10149 0.70803 0.0
C969 C 0.17818 0.13143 0.7185 0.0
H970 H 0.07818 0.10198 0.69612 0.0
H971 H 0.4163 0.39188 0.79721 0.0
H972 H 0.62151 0.69633 0.80488 0.0
H973 H 0.67032 0.68481 0.77981 0.0
H974 H 0.66602 0.85568 0.7647 0.0
H975 H 0.61683 0.86768 0.78965 0.0
H976 H 0.66712 0.79466 0.72404 0.0
H977 H 0.74225 0.80661 0.80762 0.0
H978 H 0.75934 0.78233 0.8513 0.0
H979 H 0.78635 0.62024 0.83345 0.0
H980 H 0.76878 0.64333 0.78959 0.0
H981 H 0.84727 0.80641 0.6819 0.0
H982 H 0.79845 0.82187 0.70671 0.0
H983 H 0.80041 0.65223 0.72423 0.0
H984 H 0.84949 0.63635 0.69963 0.0
H985 H 0.80101 0.71526 0.76392 0.0
H986 H 0.72457 0.7023 0.68049 0.0
H987 H 0.70715 0.72583 0.63672 0.0
H988 H 0.68252 0.88909 0.6542 0.0
H989 H 0.70039 0.8667 0.69814 0.0
C990 C 0.63062 0.73146 0.79607 0.0
C991 C 0.6156 0.78303 0.79946 0.0
C992 C 0.65861 0.72479 0.7818 0.0
C993 C 0.67226 0.76954 0.77077 0.0
C994 C 0.65597 0.8207 0.77318 0.0
C995 C 0.62793 0.82746 0.78747 0.0
C996 C 0.70465 0.76308 0.75751 0.0
C997 C 0.6966 0.77801 0.73282 0.0
C998 C 0.74282 0.74045 0.76892 0.0
C999 C 0.75383 0.72658 0.7953 0.0
C1000 C 0.75154 0.76568 0.81299 0.0
C1001 C 0.76136 0.75215 0.83779 0.0
C1002 C 0.77384 0.69974 0.84514 0.0
C1003 C 0.77663 0.6608 0.82772 0.0
C1004 C 0.76678 0.6741 0.80289 0.0
C1005 C 0.8376 0.77242 0.69119 0.0
C1006 C 0.85199 0.72006 0.68862 0.0
C1007 C 0.80959 0.78132 0.70528 0.0
C1008 C 0.79538 0.73804 0.71698 0.0
C1009 C 0.8109 0.68612 0.71526 0.0
C1010 C 0.83889 0.67714 0.70116 0.0
C1011 C 0.76343 0.74657 0.73042 0.0
C1012 C 0.77158 0.73206 0.75515 0.0
C1013 C 0.72536 0.76951 0.71904 0.0
C1014 C 0.71422 0.78296 0.69262 0.0
C1015 C 0.71573 0.74332 0.67502 0.0
C1016 C 0.70574 0.75643 0.65018 0.0
C1017 C 0.69384 0.80896 0.64269 0.0
C1018 C 0.6918 0.84844 0.66003 0.0
C1019 C 0.70183 0.83555 0.68491 0.0
H1020 H 0.68613 0.81904 0.62345 0.0
H1021 H 0.78142 0.68934 0.86435 0.0
H1022 H 0.88391 0.83912 0.21521 0.0
H1023 H 0.83927 0.81793 0.24213 0.0
H1024 H 0.77403 0.70416 0.18896 0.0
H1025 H 0.81998 0.72305 0.16273 0.0
H1026 H 0.76553 0.83212 0.23936 0.0
H1027 H 0.73088 0.60559 0.21385 0.0
H1028 H 0.76614 0.52595 0.2027 0.0
H1029 H 0.88131 0.59504 0.23813 0.0
H1030 H 0.84676 0.67471 0.24978 0.0
H1031 H 0.59376 0.76161 0.28214 0.0
H1032 H 0.64235 0.77725 0.25704 0.0
H1033 H 0.72142 0.65539 0.2981 0.0
H1034 H 0.67124 0.63671 0.32159 0.0
H1035 H 0.72734 0.6454 0.25629 0.0
H1036 H 0.73503 0.8023 0.306 0.0
H1037 H 0.71026 0.88203 0.32421 0.0
H1038 H 0.66785 0.95219 0.25298 0.0
H1039 H 0.69188 0.87253 0.23432 0.0
C1040 C 0.8603 0.80915 0.20943 0.0
C1041 C 0.85558 0.78246 0.18696 0.0
C1042 C 0.83466 0.79721 0.22478 0.0
C1043 C 0.80342 0.75893 0.2178 0.0
C1044 C 0.79849 0.73274 0.19517 0.0
C1045 C 0.82468 0.74377 0.18009 0.0
C1046 C 0.77524 0.7476 0.23379 0.0
C1047 C 0.75735 0.79125 0.24316 0.0
C1048 C 0.76517 0.69434 0.23934 0.0
C1049 C 0.78619 0.6464 0.23246 0.0
C1050 C 0.76372 0.60371 0.21933 0.0
C1051 C 0.78359 0.55857 0.21291 0.0
C1052 C 0.82594 0.55553 0.21963 0.0
C1053 C 0.84852 0.59755 0.23285 0.0
C1054 C 0.8288 0.64274 0.23934 0.0
C1055 C 0.62143 0.73799 0.28556 0.0
C1056 C 0.62886 0.69799 0.30371 0.0
C1057 C 0.64944 0.74727 0.27142 0.0
C1058 C 0.68629 0.7185 0.27596 0.0
C1059 C 0.69337 0.67819 0.29406 0.0
C1060 C 0.66472 0.66757 0.30756 0.0
C1061 C 0.71742 0.72995 0.26188 0.0
C1062 C 0.7357 0.68631 0.25271 0.0
C1063 C 0.72945 0.78321 0.2576 0.0
C1064 C 0.71491 0.8312 0.26875 0.0
C1065 C 0.72017 0.83457 0.29421 0.0
C1066 C 0.70629 0.87977 0.30461 0.0
C1067 C 0.6874 0.92208 0.28976 0.0
C1068 C 0.68243 0.91934 0.26447 0.0
C1069 C 0.6962 0.8742 0.25397 0.0
H1070 H 0.67669 0.95705 0.29784 0.0
H1071 H 0.84126 0.52055 0.21464 0.0
H1072 H 0.40813 0.17533 0.57671 0.0
H1073 H 0.36442 0.16496 0.53573 0.0
H1074 H 0.29232 0.30041 0.5483 0.0
H1075 H 0.33588 0.3117 0.58914 0.0
H1076 H 0.28379 0.15072 0.51421 0.0
H1077 H 0.28327 0.38616 0.50053 0.0
H1078 H 0.3298 0.46198 0.51538 0.0
H1079 H 0.43124 0.35321 0.53039 0.0
H1080 H 0.38561 0.27709 0.51494 0.0
H1081 H 0.11183 0.2342 0.43149 0.0
H1082 H 0.17054 0.21493 0.46439 0.0
H1083 H 0.249 0.28453 0.42253 0.0
H1084 H 0.18937 0.30697 0.38978 0.0
H1085 H 0.27232 0.31899 0.46515 0.0
H1086 H 0.24785 0.14348 0.43517 0.0
H1087 H 0.20936 0.06196 0.41854 0.0
H1088 H 0.17295 0.04013 0.48571 0.0
H1089 H 0.21065 0.12199 0.50264 0.0
C1090 C 0.38248 0.2023 0.57099 0.0
C1091 C 0.376 0.24512 0.58604 0.0
C1092 C 0.35756 0.19617 0.54756 0.0
C1093 C 0.32597 0.23278 0.53891 0.0
C1094 C 0.31722 0.27247 0.5546 0.0
C1095 C 0.34203 0.27867 0.57799 0.0
C1096 C 0.30389 0.23277 0.51298 0.0
C1097 C 0.2813 0.1872 0.50331 0.0
C1098 C 0.30301 0.27939 0.49838 0.0
C1099 C 0.33084 0.32573 0.50673 0.0
C1100 C 0.31553 0.37846 0.50674 0.0
C1101 C 0.3418 0.42154 0.51527 0.0
C1102 C 0.38346 0.41244 0.52382 0.0
C1103 C 0.39899 0.36028 0.52373 0.0
C1104 C 0.37293 0.31716 0.51507 0.0
C1105 C 0.14155 0.24494 0.4291 0.0
C1106 C 0.146 0.27216 0.40807 0.0
C1107 C 0.17528 0.23335 0.44788 0.0
C1108 C 0.21443 0.24705 0.44578 0.0
C1109 C 0.21912 0.27331 0.42453 0.0
C1110 C 0.1851 0.28611 0.40586 0.0
C1111 C 0.24953 0.23805 0.46683 0.0
C1112 C 0.27511 0.2819 0.47564 0.0
C1113 C 0.25459 0.18885 0.4801 0.0
C1114 C 0.23209 0.13908 0.47017 0.0
C1115 C 0.23148 0.12148 0.44637 0.0
C1116 C 0.2098 0.07518 0.43689 0.0
C1117 C 0.18872 0.0459 0.45106 0.0
C1118 C 0.18934 0.06281 0.47477 0.0
C1119 C 0.21095 0.10912 0.48434 0.0
H1120 H 0.17192 0.01008 0.44368 0.0
H1121 H 0.40372 0.44578 0.53051 0.0
H1122 H 0.88921 0.7785 0.56395 0.0
H1123 H 0.8336 0.79629 0.52881 0.0
H1124 H 0.74862 0.73154 0.56743 0.0
H1125 H 0.80491 0.71065 0.60237 0.0
H1126 H 0.73316 0.68901 0.52635 0.0
H1127 H 0.75006 0.87043 0.55042 0.0
H1128 H 0.78536 0.9555 0.56495 0.0
H1129 H 0.82883 0.96597 0.49964 0.0
H1130 H 0.79432 0.88054 0.48485 0.0
H1131 H 0.59244 0.80744 0.41254 0.0
H1132 H 0.63862 0.82837 0.45177 0.0
H1133 H 0.71649 0.69711 0.44188 0.0
H1134 H 0.67044 0.67516 0.40283 0.0
H1135 H 0.7209 0.84936 0.47221 0.0
H1136 H 0.72804 0.61768 0.49086 0.0
H1137 H 0.68467 0.53802 0.47747 0.0
H1138 H 0.57864 0.63875 0.46214 0.0
H1139 H 0.62123 0.7188 0.47572 0.0
C1140 C 0.85866 0.76882 0.56517 0.0
C1141 C 0.85145 0.74268 0.58581 0.0
C1142 C 0.82671 0.77954 0.54508 0.0
C1143 C 0.78672 0.7659 0.5455 0.0
C1144 C 0.77921 0.74232 0.56664 0.0
C1145 C 0.81135 0.73043 0.58658 0.0
C1146 C 0.75391 0.77043 0.52285 0.0
C1147 C 0.73024 0.72446 0.51477 0.0
C1148 C 0.74898 0.81715 0.50787 0.0
C1149 C 0.76968 0.86885 0.51656 0.0
C1150 C 0.76734 0.89067 0.5392 0.0
C1151 C 0.7872 0.939 0.54748 0.0
C1152 C 0.80935 0.96609 0.53324 0.0
C1153 C 0.81163 0.94495 0.51065 0.0
C1154 C 0.79185 0.89661 0.50229 0.0
C1155 C 0.61991 0.78379 0.41836 0.0
C1156 C 0.62719 0.73861 0.40485 0.0
C1157 C 0.64631 0.79606 0.44076 0.0
C1158 C 0.68023 0.7634 0.44984 0.0
C1159 C 0.68993 0.72212 0.43522 0.0
C1160 C 0.66359 0.70971 0.41289 0.0
C1161 C 0.70248 0.76726 0.47566 0.0
C1162 C 0.72369 0.81461 0.48421 0.0
C1163 C 0.70385 0.72278 0.49155 0.0
C1164 C 0.67794 0.67431 0.48416 0.0
C1165 C 0.69545 0.62277 0.4848 0.0
C1166 C 0.67099 0.57755 0.47713 0.0
C1167 C 0.62893 0.58333 0.4689 0.0
C1168 C 0.61121 0.63431 0.46843 0.0
C1169 C 0.63551 0.67961 0.4761 0.0
H1170 H 0.61006 0.54832 0.46292 0.0
H1171 H 0.82471 0.00349 0.53969 0.0
H1172 H 0.81662 0.82408 0.09793 0.0
H1173 H 0.76303 0.80949 0.06062 0.0
H1174 H 0.85385 0.77 0.02145 0.0
H1175 H 0.90692 0.78237 0.05848 0.0
H1176 H 0.74469 0.85473 0.01718 0.0
H1177 H 0.82273 0.6736 0.9807 0.0
H1178 H 0.86858 0.59842 0.9976 0.0
H1179 H 0.8274 0.60357 0.0638 0.0
H1180 H 0.78075 0.67807 0.04715 0.0
H1181 H 0.66314 0.83295 0.8936 0.0
H1182 H 0.71619 0.82892 0.93131 0.0
H1183 H 0.6599 0.68829 0.95403 0.0
H1184 H 0.6068 0.6913 0.9162 0.0
H1185 H 0.74393 0.68603 0.96951 0.0
H1186 H 0.63362 0.80217 0.97206 0.0
H1187 H 0.58331 0.87328 0.95632 0.0
H1188 H 0.6791 0.98941 0.96223 0.0
H1189 H 0.73012 0.9187 0.97763 0.0
C1190 C 0.82501 0.81217 0.08133 0.0
C1191 C 0.86587 0.80358 0.08119 0.0
C1192 C 0.79446 0.80397 0.06007 0.0
C1193 C 0.80448 0.78751 0.03844 0.0
C1194 C 0.84536 0.78108 0.03812 0.0
C1195 C 0.87569 0.78838 0.05932 0.0
C1196 C 0.77253 0.77686 0.01603 0.0
C1197 C 0.7444 0.81774 0.00686 0.0
C1198 C 0.7715 0.72793 0.00288 0.0
C1199 C 0.79841 0.68172 0.0127 0.0
C1200 C 0.82318 0.65839 0.99878 0.0
C1201 C 0.84937 0.61595 0.00833 0.0
C1202 C 0.85096 0.59632 0.03178 0.0
C1203 C 0.8262 0.61888 0.04567 0.0
C1204 C 0.79987 0.66122 0.03617 0.0
C1205 C 0.6625 0.80024 0.90626 0.0
C1206 C 0.6301 0.76329 0.90217 0.0
C1207 C 0.69284 0.79811 0.92782 0.0
C1208 C 0.69115 0.7592 0.9456 0.0
C1209 C 0.66135 0.71891 0.94054 0.0
C1210 C 0.63098 0.72088 0.91892 0.0
C1211 C 0.71745 0.76466 0.9704 0.0
C1212 C 0.74422 0.72277 0.98 0.0
C1213 C 0.7163 0.81183 0.98435 0.0
C1214 C 0.68574 0.85501 0.97584 0.0
C1215 C 0.64399 0.84281 0.9699 0.0
C1216 C 0.61533 0.88304 0.96103 0.0
C1217 C 0.62799 0.93581 0.95824 0.0
C1218 C 0.66935 0.94849 0.9644 0.0
C1219 C 0.69816 0.90836 0.97323 0.0
H1220 H 0.60574 0.96687 0.95133 0.0
H1221 H 0.87136 0.56358 0.03917 0.0
H1222 H 0.41484 0.30565 0.06769 0.0
H1223 H 0.36263 0.32992 0.03176 0.0
H1224 H 0.27069 0.26548 0.06509 0.0
H1225 H 0.32322 0.23881 0.10096 0.0
H1226 H 0.2621 0.22374 0.02321 0.0
H1227 H 0.27636 0.40352 0.05139 0.0
H1228 H 0.31127 0.48725 0.06832 0.0
H1229 H 0.36024 0.50402 0.00526 0.0
H1230 H 0.32612 0.41993 0.98809 0.0
H1231 H 0.11481 0.34936 0.91868 0.0
H1232 H 0.16768 0.37064 0.95504 0.0
H1233 H 0.24313 0.24483 0.93691 0.0
H1234 H 0.19027 0.22238 0.90069 0.0
H1235 H 0.25119 0.39081 0.97339 0.0
H1236 H 0.26106 0.15725 0.98735 0.0
H1237 H 0.21982 0.07657 0.97258 0.0
H1238 H 0.11196 0.17381 0.95557 0.0
H1239 H 0.15211 0.25429 0.97104 0.0
C1240 C 0.38349 0.2974 0.06767 0.0
C1241 C 0.37328 0.26946 0.08708 0.0
C1242 C 0.35353 0.31189 0.04712 0.0
C1243 C 0.31268 0.2998 0.04574 0.0
C1244 C 0.30209 0.27507 0.06575 0.0
C1245 C 0.33214 0.25988 0.08624 0.0
C1246 C 0.28218 0.30616 0.02223 0.0
C1247 C 0.25958 0.2605 0.01248 0.0
C1248 C 0.27831 0.35437 0.00832 0.0
C1249 C 0.29883 0.40515 0.01851 0.0
C1250 C 0.29481 0.42482 0.0412 0.0
C1251 C 0.31442 0.4724 0.05083 0.0
C1252 C 0.33801 0.50089 0.03789 0.0
C1253 C 0.34196 0.4819 0.01527 0.0
C1254 C 0.32242 0.43432 0.00555 0.0
C1255 C 0.14312 0.32721 0.92195 0.0
C1256 C 0.14773 0.28272 0.90732 0.0
C1257 C 0.17348 0.33992 0.94265 0.0
C1258 C 0.20865 0.30831 0.94888 0.0
C1259 C 0.21575 0.26907 0.93247 0.0
C1260 C 0.18538 0.25611 0.91185 0.0
C1261 C 0.23294 0.30784 0.97435 0.0
C1262 C 0.25391 0.3544 0.98436 0.0
C1263 C 0.23448 0.26095 0.98889 0.0
C1264 C 0.20983 0.21213 0.97997 0.0
C1265 C 0.22851 0.16135 0.98055 0.0
C1266 C 0.20528 0.11554 0.97211 0.0
C1267 C 0.16331 0.12 0.96302 0.0
C1268 C 0.14447 0.17025 0.96239 0.0
C1269 C 0.16748 0.21603 0.97102 0.0
H1270 H 0.14542 0.08446 0.95655 0.0
H1271 H 0.35318 0.53771 0.04539 0.0
loop_
_geom_bond_atom_site_label_1
_geom_bond_atom_site_label_2
_geom_bond_distance
_geom_bond_site_symmetry_2
_ccdc_geom_bond_type
Co0 O2 2.143 . S
Co0 O8 2.074 . S
Co0 O11 2.093 . S
Co0 O24 2.097 . S
Co0 N41 2.151 . S
Co0 N49 2.214 . S
Co1 O2 2.160 . S
Co1 O7 2.058 . S
Co1 O17 2.057 1_455 S
Co1 O32 2.037 . S
Co1 N36 2.145 1_455 S
Co1 N57 2.257 . S
O2 Co0 2.143 . S
O2 Co1 2.160 . S
C3 O4 1.278 . S
C3 O11 1.224 . S
O4 C3 1.278 . S
C5 O6 1.245 . S
C5 O17 1.232 . S
O6 C5 1.245 . S
O7 Co1 2.058 . S
O7 C33 1.269 . S
O8 Co0 2.074 . S
O8 C33 1.257 . S
H9 C34 0.930 . S
H10 C40 0.930 . S
O11 Co0 2.093 . S
O11 C3 1.224 . S
H12 C44 0.929 . S
H13 C46 0.930 . S
H14 C47 0.930 . S
H15 C45 0.929 . S
H16 C48 0.928 . S
O17 Co1 2.057 1_655 S
O17 C5 1.232 . S
H18 C37 0.929 . S
H19 C38 0.929 . S
H20 C50 0.931 . S
H21 C42 0.929 . S
H22 C51 0.930 . S
H23 C43 0.931 . S
O24 Co0 2.097 . S
O24 C52 1.214 . S
H25 C53 0.929 . S
H26 C54 0.929 . S
H27 C55 0.930 . S
H28 C56 0.929 . S
H29 C58 0.930 . S
H30 C35 0.930 . S
H31 C39 0.930 . S
O32 Co1 2.037 . S
O32 C52 1.234 . S
C33 O7 1.269 . S
C33 O8 1.257 . S
C34 H9 0.930 . S
C34 C37 1.388 1_655 S
C34 C39 1.418 . S
C35 H30 0.930 . S
C35 C38 1.404 . S
C35 C39 1.353 . S
N36 Co1 2.145 1_655 S
N36 C37 1.397 1_655 S
N36 C38 1.334 . S
C37 H18 0.929 . S
C37 C34 1.388 1_455 S
C37 N36 1.397 1_455 S
C38 H19 0.929 . S
C38 C35 1.404 . S
C38 N36 1.334 . S
C39 H31 0.930 . S
C39 C34 1.418 . S
C39 C35 1.353 . S
C40 H10 0.930 . S
C40 N41 1.330 . S
C40 C42 1.446 . S
N41 Co0 2.151 . S
N41 C40 1.330 . S
N41 C45 1.418 . S
C42 H21 0.929 . S
C42 C40 1.446 . S
C42 C43 1.332 . S
C43 H23 0.931 . S
C43 C42 1.332 . S
C43 C44 1.267 . S
C44 H12 0.929 . S
C44 C43 1.267 . S
C44 C45 1.251 . S
C45 H15 0.929 . S
C45 N41 1.418 . S
C45 C44 1.251 . S
C46 H13 0.930 . S
C46 C48 1.406 . S
C46 C51 1.261 . S
C47 H14 0.930 . S
C47 N49 1.325 . S
C47 C50 1.357 . S
C48 H16 0.928 . S
C48 C46 1.406 . S
C48 N49 1.261 . S
N49 Co0 2.214 . S
N49 C47 1.325 . S
N49 C48 1.261 . S
C50 H20 0.931 . S
C50 C47 1.357 . S
C50 C51 1.312 . S
C51 H22 0.930 . S
C51 C46 1.261 . S
C51 C50 1.312 . S
C52 O24 1.214 . S
C52 O32 1.234 . S
C53 H25 0.929 . S
C53 C56 1.391 . S
C53 C58 1.391 . S
C54 H26 0.929 . S
C54 C55 1.390 . S
C54 N57 1.391 . S
C55 H27 0.930 . S
C55 C54 1.390 . S
C55 C56 1.392 . S
C56 H28 0.929 . S
C56 C53 1.391 . S
C56 C55 1.392 . S
N57 Co1 2.257 . S
N57 C54 1.391 . S
N57 C58 1.388 . S
C58 H29 0.930 . S
C58 C53 1.391 . S
C58 N57 1.388 . S
Co59 O61 2.143 . S
Co59 O67 2.074 . S
Co59 O70 2.093 . S
Co59 O83 2.097 . S
Co59 N100 2.151 . S
Co59 N108 2.214 . S
Co60 O61 2.160 . S
Co60 O66 2.058 . S
Co60 O76 2.057 . S
Co60 O91 2.037 . S
Co60 N95 2.145 . S
Co60 N116 2.257 . S
O61 Co59 2.143 . S
O61 Co60 2.160 . S
C62 O63 1.278 . S
C62 O70 1.224 . S
O63 C62 1.278 . S
C64 O65 1.245 . S
C64 O76 1.232 . S
O65 C64 1.245 . S
O66 Co60 2.058 . S
O66 C92 1.269 . S
O67 Co59 2.074 . S
O67 C92 1.257 . S
H68 C93 0.930 . S
H69 C99 0.930 . S
O70 Co59 2.093 . S
O70 C62 1.224 . S
H71 C103 0.929 . S
H72 C105 0.930 . S
H73 C106 0.930 . S
H74 C104 0.929 . S
H75 C107 0.928 . S
O76 Co60 2.057 . S
O76 C64 1.232 . S
H77 C96 0.929 . S
H78 C97 0.929 . S
H79 C109 0.931 . S
H80 C101 0.929 . S
H81 C110 0.930 . S
H82 C102 0.931 . S
O83 Co59 2.097 . S
O83 C111 1.214 . S
H84 C112 0.929 . S
H85 C113 0.929 . S
H86 C114 0.930 . S
H87 C115 0.929 . S
H88 C117 0.930 . S
H89 C94 0.930 . S
H90 C98 0.930 . S
O91 Co60 2.037 . S
O91 C111 1.234 . S
C92 O66 1.269 . S
C92 O67 1.257 . S
C93 H68 0.930 . S
C93 C96 1.388 . S
C93 C98 1.418 . S
C94 H89 0.930 . S
C94 C97 1.404 . S
C94 C98 1.353 . S
N95 Co60 2.145 . S
N95 C96 1.397 . S
N95 C97 1.334 . S
C96 H77 0.929 . S
C96 C93 1.388 . S
C96 N95 1.397 . S
C97 H78 0.929 . S
C97 C94 1.404 . S
C97 N95 1.334 . S
C98 H90 0.930 . S
C98 C93 1.418 . S
C98 C94 1.353 . S
C99 H69 0.930 . S
C99 N100 1.330 . S
C99 C101 1.446 . S
N100 Co59 2.151 . S
N100 C99 1.330 . S
N100 C104 1.418 . S
C101 H80 0.929 . S
C101 C99 1.446 . S
C101 C102 1.332 . S
C102 H82 0.931 . S
C102 C101 1.332 . S
C102 C103 1.267 . S
C103 H71 0.929 . S
C103 C102 1.267 . S
C103 C104 1.251 . S
C104 H74 0.929 . S
C104 N100 1.418 . S
C104 C103 1.251 . S
C105 H72 0.930 . S
C105 C107 1.406 . S
C105 C110 1.261 . S
C106 H73 0.930 . S
C106 N108 1.325 . S
C106 C109 1.357 . S
C107 H75 0.928 . S
C107 C105 1.406 . S
C107 N108 1.261 . S
N108 Co59 2.214 . S
N108 C106 1.325 . S
N108 C107 1.261 . S
C109 H79 0.931 . S
C109 C106 1.357 . S
C109 C110 1.312 . S
C110 H81 0.930 . S
C110 C105 1.261 . S
C110 C109 1.312 . S
C111 O83 1.214 . S
C111 O91 1.234 . S
C112 H84 0.929 . S
C112 C115 1.391 . S
C112 C117 1.391 . S
C113 H85 0.929 . S
C113 C114 1.390 . S
C113 N116 1.391 . S
C114 H86 0.930 . S
C114 C113 1.390 . S
C114 C115 1.392 . S
C115 H87 0.929 . S
C115 C112 1.391 . S
C115 C114 1.392 . S
N116 Co60 2.257 . S
N116 C113 1.391 . S
N116 C117 1.388 . S
C117 H88 0.930 . S
C117 C112 1.391 . S
C117 N116 1.388 . S
Co118 O120 2.143 . S
Co118 O126 2.074 . S
Co118 O129 2.093 . S
Co118 O142 2.097 . S
Co118 N159 2.151 . S
Co118 N167 2.214 . S
Co119 O120 2.160 . S
Co119 O125 2.058 . S
Co119 O135 2.057 1_655 S
Co119 O150 2.037 . S
Co119 N154 2.145 1_655 S
Co119 N175 2.257 . S
O120 Co118 2.143 . S
O120 Co119 2.160 . S
C121 O122 1.278 . S
C121 O129 1.224 . S
O122 C121 1.278 . S
C123 O124 1.245 . S
C123 O135 1.232 . S
O124 C123 1.245 . S
O125 Co119 2.058 . S
O125 C151 1.269 . S
O126 Co118 2.074 . S
O126 C151 1.257 . S
H127 C152 0.930 . S
H128 C158 0.930 . S
O129 Co118 2.093 . S
O129 C121 1.224 . S
H130 C162 0.929 . S
H131 C164 0.930 . S
H132 C165 0.930 . S
H133 C163 0.929 . S
H134 C166 0.928 . S
O135 Co119 2.057 1_455 S
O135 C123 1.232 . S
H136 C155 0.929 . S
H137 C156 0.929 . S
H138 C168 0.931 . S
H139 C160 0.929 . S
H140 C169 0.930 . S
H141 C161 0.931 . S
O142 Co118 2.097 . S
O142 C170 1.214 . S
H143 C171 0.929 . S
H144 C172 0.929 . S
H145 C173 0.930 . S
H146 C174 0.929 . S
H147 C176 0.930 . S
H148 C153 0.930 . S
H149 C157 0.930 . S
O150 Co119 2.037 . S
O150 C170 1.234 . S
C151 O125 1.269 . S
C151 O126 1.257 . S
C152 H127 0.930 . S
C152 C155 1.388 1_455 S
C152 C157 1.418 . S
C153 H148 0.930 . S
C153 C156 1.404 . S
C153 C157 1.353 . S
N154 Co119 2.145 1_455 S
N154 C155 1.397 1_455 S
N154 C156 1.334 . S
C155 H136 0.929 . S
C155 C152 1.388 1_655 S
C155 N154 1.397 1_655 S
C156 H137 0.929 . S
C156 C153 1.404 . S
C156 N154 1.334 . S
C157 H149 0.930 . S
C157 C152 1.418 . S
C157 C153 1.353 . S
C158 H128 0.930 . S
C158 N159 1.330 . S
C158 C160 1.446 . S
N159 Co118 2.151 . S
N159 C158 1.330 . S
N159 C163 1.418 . S
C160 H139 0.929 . S
C160 C158 1.446 . S
C160 C161 1.332 . S
C161 H141 0.931 . S
C161 C160 1.332 . S
C161 C162 1.267 . S
C162 H130 0.929 . S
C162 C161 1.267 . S
C162 C163 1.251 . S
C163 H133 0.929 . S
C163 N159 1.418 . S
C163 C162 1.251 . S
C164 H131 0.930 . S
C164 C166 1.406 . S
C164 C169 1.261 . S
C165 H132 0.930 . S
C165 N167 1.325 . S
C165 C168 1.357 . S
C166 H134 0.928 . S
C166 C164 1.406 . S
C166 N167 1.261 . S
N167 Co118 2.214 . S
N167 C165 1.325 . S
N167 C166 1.261 . S
C168 H138 0.931 . S
C168 C165 1.357 . S
C168 C169 1.312 . S
C169 H140 0.930 . S
C169 C164 1.261 . S
C169 C168 1.312 . S
C170 O142 1.214 . S
C170 O150 1.234 . S
C171 H143 0.929 . S
C171 C174 1.391 . S
C171 C176 1.391 . S
C172 H144 0.929 . S
C172 C173 1.390 . S
C172 N175 1.391 . S
C173 H145 0.930 . S
C173 C172 1.390 . S
C173 C174 1.392 . S
C174 H146 0.929 . S
C174 C171 1.391 . S
C174 C173 1.392 . S
N175 Co119 2.257 . S
N175 C172 1.391 . S
N175 C176 1.388 . S
C176 H147 0.930 . S
C176 C171 1.391 . S
C176 N175 1.388 . S
Co177 O179 2.143 . S
Co177 O185 2.074 . S
Co177 O188 2.093 . S
Co177 O201 2.097 . S
Co177 N218 2.151 . S
Co177 N226 2.214 . S
Co178 O179 2.160 . S
Co178 O184 2.058 . S
Co178 O194 2.057 . S
Co178 O209 2.037 . S
Co178 N213 2.145 . S
Co178 N234 2.257 . S
O179 Co177 2.143 . S
O179 Co178 2.160 . S
C180 O181 1.278 . S
C180 O188 1.224 . S
O181 C180 1.278 . S
C182 O183 1.245 . S
C182 O194 1.232 . S
O183 C182 1.245 . S
O184 Co178 2.058 . S
O184 C210 1.269 . S
O185 Co177 2.074 . S
O185 C210 1.257 . S
H186 C211 0.930 . S
H187 C217 0.930 . S
O188 Co177 2.093 . S
O188 C180 1.224 . S
H189 C221 0.929 . S
H190 C223 0.930 . S
H191 C224 0.930 . S
H192 C222 0.929 . S
H193 C225 0.928 . S
O194 Co178 2.057 . S
O194 C182 1.232 . S
H195 C214 0.929 . S
H196 C215 0.929 . S
H197 C227 0.931 . S
H198 C219 0.929 . S
H199 C228 0.930 . S
H200 C220 0.931 . S
O201 Co177 2.097 . S
O201 C229 1.214 . S
H202 C230 0.929 . S
H203 C231 0.929 . S
H204 C232 0.930 . S
H205 C233 0.929 . S
H206 C235 0.930 . S
H207 C212 0.930 . S
H208 C216 0.930 . S
O209 Co178 2.037 . S
O209 C229 1.234 . S
C210 O184 1.269 . S
C210 O185 1.257 . S
C211 H186 0.930 . S
C211 C214 1.388 . S
C211 C216 1.418 . S
C212 H207 0.930 . S
C212 C215 1.404 . S
C212 C216 1.353 . S
N213 Co178 2.145 . S
N213 C214 1.397 . S
N213 C215 1.334 . S
C214 H195 0.929 . S
C214 C211 1.388 . S
C214 N213 1.397 . S
C215 H196 0.929 . S
C215 C212 1.404 . S
C215 N213 1.334 . S
C216 H208 0.930 . S
C216 C211 1.418 . S
C216 C212 1.353 . S
C217 H187 0.930 . S
C217 N218 1.330 . S
C217 C219 1.446 . S
N218 Co177 2.151 . S
N218 C217 1.330 . S
N218 C222 1.418 . S
C219 H198 0.929 . S
C219 C217 1.446 . S
C219 C220 1.332 . S
C220 H200 0.931 . S
C220 C219 1.332 . S
C220 C221 1.267 . S
C221 H189 0.929 . S
C221 C220 1.267 . S
C221 C222 1.251 . S
C222 H192 0.929 . S
C222 N218 1.418 . S
C222 C221 1.251 . S
C223 H190 0.930 . S
C223 C225 1.406 . S
C223 C228 1.261 . S
C224 H191 0.930 . S
C224 N226 1.325 . S
C224 C227 1.357 . S
C225 H193 0.928 . S
C225 C223 1.406 . S
C225 N226 1.261 . S
N226 Co177 2.214 . S
N226 C224 1.325 . S
N226 C225 1.261 . S
C227 H197 0.931 . S
C227 C224 1.357 . S
C227 C228 1.312 . S
C228 H199 0.930 . S
C228 C223 1.261 . S
C228 C227 1.312 . S
C229 O201 1.214 . S
C229 O209 1.234 . S
C230 H202 0.929 . S
C230 C233 1.391 . S
C230 C235 1.391 . S
C231 H203 0.929 . S
C231 C232 1.390 . S
C231 N234 1.391 . S
C232 H204 0.930 . S
C232 C231 1.390 . S
C232 C233 1.392 . S
C233 H205 0.929 . S
C233 C230 1.391 . S
C233 C232 1.392 . S
N234 Co178 2.257 . S
N234 C231 1.391 . S
N234 C235 1.388 . S
C235 H206 0.930 . S
C235 C230 1.391 . S
C235 N234 1.388 . S
Co236 O238 2.143 . S
Co236 O244 2.074 . S
Co236 O247 2.093 . S
Co236 O260 2.097 . S
Co236 N277 2.151 . S
Co236 N285 2.214 . S
Co237 O238 2.160 . S
Co237 O243 2.058 . S
Co237 O253 2.057 . S
Co237 O268 2.037 . S
Co237 N272 2.145 . S
Co237 N293 2.257 . S
O238 Co236 2.143 . S
O238 Co237 2.160 . S
C239 O240 1.278 . S
C239 O247 1.224 . S
O240 C239 1.278 . S
C241 O242 1.245 . S
C241 O253 1.232 . S
O242 C241 1.245 . S
O243 Co237 2.058 . S
O243 C269 1.269 . S
O244 Co236 2.074 . S
O244 C269 1.257 . S
H245 C270 0.930 . S
H246 C276 0.930 . S
O247 Co236 2.093 . S
O247 C239 1.224 . S
H248 C280 0.929 1_545 S
H249 C282 0.930 . S
H250 C283 0.930 . S
H251 C281 0.929 . S
H252 C284 0.928 . S
O253 Co237 2.057 . S
O253 C241 1.232 . S
H254 C273 0.929 . S
H255 C274 0.929 . S
H256 C286 0.931 . S
H257 C278 0.929 . S
H258 C287 0.930 . S
H259 C279 0.931 . S
O260 Co236 2.097 . S
O260 C288 1.214 . S
H261 C289 0.929 . S
H262 C290 0.929 . S
H263 C291 0.930 . S
H264 C292 0.929 . S
H265 C294 0.930 . S
H266 C271 0.930 . S
H267 C275 0.930 . S
O268 Co237 2.037 . S
O268 C288 1.234 . S
C269 O243 1.269 . S
C269 O244 1.257 . S
C270 H245 0.930 . S
C270 C273 1.388 . S
C270 C275 1.418 . S
C271 H266 0.930 . S
C271 C274 1.404 . S
C271 C275 1.353 . S
N272 Co237 2.145 . S
N272 C273 1.397 . S
N272 C274 1.334 . S
C273 H254 0.929 . S
C273 C270 1.388 . S
C273 N272 1.397 . S
C274 H255 0.929 . S
C274 C271 1.404 . S
C274 N272 1.334 . S
C275 H267 0.930 . S
C275 C270 1.418 . S
C275 C271 1.353 . S
C276 H246 0.930 . S
C276 N277 1.330 . S
C276 C278 1.446 . S
N277 Co236 2.151 . S
N277 C276 1.330 . S
N277 C281 1.418 . S
C278 H257 0.929 . S
C278 C276 1.446 . S
C278 C279 1.332 . S
C279 H259 0.931 . S
C279 C278 1.332 . S
C279 C280 1.267 . S
C280 H248 0.929 1_565 S
C280 C279 1.267 . S
C280 C281 1.251 . S
C281 H251 0.929 . S
C281 N277 1.418 . S
C281 C280 1.251 . S
C282 H249 0.930 . S
C282 C284 1.406 . S
C282 C287 1.261 . S
C283 H250 0.930 . S
C283 N285 1.325 . S
C283 C286 1.357 . S
C284 H252 0.928 . S
C284 C282 1.406 . S
C284 N285 1.261 . S
N285 Co236 2.214 . S
N285 C283 1.325 . S
N285 C284 1.261 . S
C286 H256 0.931 . S
C286 C283 1.357 . S
C286 C287 1.312 . S
C287 H258 0.930 . S
C287 C282 1.261 . S
C287 C286 1.312 . S
C288 O260 1.214 . S
C288 O268 1.234 . S
C289 H261 0.929 . S
C289 C292 1.391 . S
C289 C294 1.391 . S
C290 H262 0.929 . S
C290 C291 1.390 . S
C290 N293 1.391 . S
C291 H263 0.930 . S
C291 C290 1.390 . S
C291 C292 1.392 . S
C292 H264 0.929 . S
C292 C289 1.391 . S
C292 C291 1.392 . S
N293 Co237 2.257 . S
N293 C290 1.391 . S
N293 C294 1.388 . S
C294 H265 0.930 . S
C294 C289 1.391 . S
C294 N293 1.388 . S
Co295 O297 2.143 . S
Co295 O303 2.074 . S
Co295 O306 2.093 . S
Co295 O319 2.097 . S
Co295 N336 2.151 . S
Co295 N344 2.214 . S
Co296 O297 2.160 . S
Co296 O302 2.058 . S
Co296 O312 2.057 1_655 S
Co296 O327 2.037 . S
Co296 N331 2.145 1_655 S
Co296 N352 2.257 . S
O297 Co295 2.143 . S
O297 Co296 2.160 . S
C298 O299 1.278 . S
C298 O306 1.224 . S
O299 C298 1.278 . S
C300 O301 1.245 . S
C300 O312 1.232 . S
O301 C300 1.245 . S
O302 Co296 2.058 . S
O302 C328 1.269 . S
O303 Co295 2.074 . S
O303 C328 1.257 . S
H304 C329 0.930 . S
H305 C335 0.930 . S
O306 Co295 2.093 . S
O306 C298 1.224 . S
H307 C339 0.929 1_545 S
H308 C341 0.930 . S
H309 C342 0.930 . S
H310 C340 0.929 . S
H311 C343 0.928 . S
O312 Co296 2.057 1_455 S
O312 C300 1.232 . S
H313 C332 0.929 . S
H314 C333 0.929 . S
H315 C345 0.931 . S
H316 C337 0.929 . S
H317 C346 0.930 . S
H318 C338 0.931 . S
O319 Co295 2.097 . S
O319 C347 1.214 . S
H320 C348 0.929 . S
H321 C349 0.929 . S
H322 C350 0.930 . S
H323 C351 0.929 . S
H324 C353 0.930 . S
H325 C330 0.930 . S
H326 C334 0.930 . S
O327 Co296 2.037 . S
O327 C347 1.234 . S
C328 O302 1.269 . S
C328 O303 1.257 . S
C329 H304 0.930 . S
C329 C332 1.388 1_455 S
C329 C334 1.418 . S
C330 H325 0.930 . S
C330 C333 1.404 . S
C330 C334 1.353 . S
N331 Co296 2.145 1_455 S
N331 C332 1.397 1_455 S
N331 C333 1.334 . S
C332 H313 0.929 . S
C332 C329 1.388 1_655 S
C332 N331 1.397 1_655 S
C333 H314 0.929 . S
C333 C330 1.404 . S
C333 N331 1.334 . S
C334 H326 0.930 . S
C334 C329 1.418 . S
C334 C330 1.353 . S
C335 H305 0.930 . S
C335 N336 1.330 . S
C335 C337 1.446 . S
N336 Co295 2.151 . S
N336 C335 1.330 . S
N336 C340 1.418 . S
C337 H316 0.929 . S
C337 C335 1.446 . S
C337 C338 1.332 . S
C338 H318 0.931 . S
C338 C337 1.332 . S
C338 C339 1.267 . S
C339 H307 0.929 1_565 S
C339 C338 1.267 . S
C339 C340 1.251 . S
C340 H310 0.929 . S
C340 N336 1.418 . S
C340 C339 1.251 . S
C341 H308 0.930 . S
C341 C343 1.406 . S
C341 C346 1.261 . S
C342 H309 0.930 . S
C342 N344 1.325 . S
C342 C345 1.357 . S
C343 H311 0.928 . S
C343 C341 1.406 . S
C343 N344 1.261 . S
N344 Co295 2.214 . S
N344 C342 1.325 . S
N344 C343 1.261 . S
C345 H315 0.931 . S
C345 C342 1.357 . S
C345 C346 1.312 . S
C346 H317 0.930 . S
C346 C341 1.261 . S
C346 C345 1.312 . S
C347 O319 1.214 . S
C347 O327 1.234 . S
C348 H320 0.929 . S
C348 C351 1.391 . S
C348 C353 1.391 . S
C349 H321 0.929 . S
C349 C350 1.390 . S
C349 N352 1.391 . S
C350 H322 0.930 . S
C350 C349 1.390 . S
C350 C351 1.392 . S
C351 H323 0.929 . S
C351 C348 1.391 . S
C351 C350 1.392 . S
N352 Co296 2.257 . S
N352 C349 1.391 . S
N352 C353 1.388 . S
C353 H324 0.930 . S
C353 C348 1.391 . S
C353 N352 1.388 . S
Co354 O356 2.143 . S
Co354 O362 2.074 . S
Co354 O365 2.093 . S
Co354 O378 2.097 . S
Co354 N395 2.151 . S
Co354 N403 2.214 . S
Co355 O356 2.160 . S
Co355 O361 2.058 . S
Co355 O371 2.057 . S
Co355 O386 2.037 . S
Co355 N390 2.145 . S
Co355 N411 2.257 . S
O356 Co354 2.143 . S
O356 Co355 2.160 . S
C357 O358 1.278 . S
C357 O365 1.224 . S
O358 C357 1.278 . S
C359 O360 1.245 . S
C359 O371 1.232 . S
O360 C359 1.245 . S
O361 Co355 2.058 . S
O361 C387 1.269 . S
O362 Co354 2.074 . S
O362 C387 1.257 . S
H363 C388 0.930 . S
H364 C394 0.930 . S
O365 Co354 2.093 . S
O365 C357 1.224 . S
H366 C398 0.929 1_565 S
H367 C400 0.930 . S
H368 C401 0.930 . S
H369 C399 0.929 . S
H370 C402 0.928 . S
O371 Co355 2.057 . S
O371 C359 1.232 . S
H372 C391 0.929 . S
H373 C392 0.929 . S
H374 C404 0.931 . S
H375 C396 0.929 . S
H376 C405 0.930 . S
H377 C397 0.931 . S
O378 Co354 2.097 . S
O378 C406 1.214 . S
H379 C407 0.929 . S
H380 C408 0.929 . S
H381 C409 0.930 . S
H382 C410 0.929 . S
H383 C412 0.930 . S
H384 C389 0.930 . S
H385 C393 0.930 . S
O386 Co355 2.037 . S
O386 C406 1.234 . S
C387 O361 1.269 . S
C387 O362 1.257 . S
C388 H363 0.930 . S
C388 C391 1.388 . S
C388 C393 1.418 . S
C389 H384 0.930 . S
C389 C392 1.404 . S
C389 C393 1.353 . S
N390 Co355 2.145 . S
N390 C391 1.397 . S
N390 C392 1.334 . S
C391 H372 0.929 . S
C391 C388 1.388 . S
C391 N390 1.397 . S
C392 H373 0.929 . S
C392 C389 1.404 . S
C392 N390 1.334 . S
C393 H385 0.930 . S
C393 C388 1.418 . S
C393 C389 1.353 . S
C394 H364 0.930 . S
C394 N395 1.330 . S
C394 C396 1.446 . S
N395 Co354 2.151 . S
N395 C394 1.330 . S
N395 C399 1.418 . S
C396 H375 0.929 . S
C396 C394 1.446 . S
C396 C397 1.332 . S
C397 H377 0.931 . S
C397 C396 1.332 . S
C397 C398 1.267 . S
C398 H366 0.929 1_545 S
C398 C397 1.267 . S
C398 C399 1.251 . S
C399 H369 0.929 . S
C399 N395 1.418 . S
C399 C398 1.251 . S
C400 H367 0.930 . S
C400 C402 1.406 . S
C400 C405 1.261 . S
C401 H368 0.930 . S
C401 N403 1.325 . S
C401 C404 1.357 . S
C402 H370 0.928 . S
C402 C400 1.406 . S
C402 N403 1.261 . S
N403 Co354 2.214 . S
N403 C401 1.325 . S
N403 C402 1.261 . S
C404 H374 0.931 . S
C404 C401 1.357 . S
C404 C405 1.312 . S
C405 H376 0.930 . S
C405 C400 1.261 . S
C405 C404 1.312 . S
C406 O378 1.214 . S
C406 O386 1.234 . S
C407 H379 0.929 . S
C407 C410 1.391 . S
C407 C412 1.391 . S
C408 H380 0.929 . S
C408 C409 1.390 . S
C408 N411 1.391 . S
C409 H381 0.930 . S
C409 C408 1.390 . S
C409 C410 1.392 . S
C410 H382 0.929 . S
C410 C407 1.391 . S
C410 C409 1.392 . S
N411 Co355 2.257 . S
N411 C408 1.391 . S
N411 C412 1.388 . S
C412 H383 0.930 . S
C412 C407 1.391 . S
C412 N411 1.388 . S
Co413 O415 2.143 . S
Co413 O421 2.074 . S
Co413 O424 2.093 . S
Co413 O437 2.097 . S
Co413 N454 2.151 . S
Co413 N462 2.214 . S
Co414 O415 2.160 . S
Co414 O420 2.058 . S
Co414 O430 2.057 1_455 S
Co414 O445 2.037 . S
Co414 N449 2.145 1_455 S
Co414 N470 2.257 . S
O415 Co413 2.143 . S
O415 Co414 2.160 . S
C416 O417 1.278 . S
C416 O424 1.224 . S
O417 C416 1.278 . S
C418 O419 1.245 . S
C418 O430 1.232 . S
O419 C418 1.245 . S
O420 Co414 2.058 . S
O420 C446 1.269 . S
O421 Co413 2.074 . S
O421 C446 1.257 . S
H422 C447 0.930 . S
H423 C453 0.930 . S
O424 Co413 2.093 . S
O424 C416 1.224 . S
H425 C457 0.929 1_565 S
H426 C459 0.930 . S
H427 C460 0.930 . S
H428 C458 0.929 . S
H429 C461 0.928 . S
O430 Co414 2.057 1_655 S
O430 C418 1.232 . S
H431 C450 0.929 . S
H432 C451 0.929 . S
H433 C463 0.931 . S
H434 C455 0.929 . S
H435 C464 0.930 . S
H436 C456 0.931 . S
O437 Co413 2.097 . S
O437 C465 1.214 . S
H438 C466 0.929 . S
H439 C467 0.929 . S
H440 C468 0.930 . S
H441 C469 0.929 . S
H442 C471 0.930 . S
H443 C448 0.930 . S
H444 C452 0.930 . S
O445 Co414 2.037 . S
O445 C465 1.234 . S
C446 O420 1.269 . S
C446 O421 1.257 . S
C447 H422 0.930 . S
C447 C450 1.388 1_655 S
C447 C452 1.418 . S
C448 H443 0.930 . S
C448 C451 1.404 . S
C448 C452 1.353 . S
N449 Co414 2.145 1_655 S
N449 C450 1.397 1_655 S
N449 C451 1.334 . S
C450 H431 0.929 . S
C450 C447 1.388 1_455 S
C450 N449 1.397 1_455 S
C451 H432 0.929 . S
C451 C448 1.404 . S
C451 N449 1.334 . S
C452 H444 0.930 . S
C452 C447 1.418 . S
C452 C448 1.353 . S
C453 H423 0.930 . S
C453 N454 1.330 . S
C453 C455 1.446 . S
N454 Co413 2.151 . S
N454 C453 1.330 . S
N454 C458 1.418 . S
C455 H434 0.929 . S
C455 C453 1.446 . S
C455 C456 1.332 . S
C456 H436 0.931 . S
C456 C455 1.332 . S
C456 C457 1.267 . S
C457 H425 0.929 1_545 S
C457 C456 1.267 . S
C457 C458 1.251 . S
C458 H428 0.929 . S
C458 N454 1.418 . S
C458 C457 1.251 . S
C459 H426 0.930 . S
C459 C461 1.406 . S
C459 C464 1.261 . S
C460 H427 0.930 . S
C460 N462 1.325 . S
C460 C463 1.357 . S
C461 H429 0.928 . S
C461 C459 1.406 . S
C461 N462 1.261 . S
N462 Co413 2.214 . S
N462 C460 1.325 . S
N462 C461 1.261 . S
C463 H433 0.931 . S
C463 C460 1.357 . S
C463 C464 1.312 . S
C464 H435 0.930 . S
C464 C459 1.261 . S
C464 C463 1.312 . S
C465 O437 1.214 . S
C465 O445 1.234 . S
C466 H438 0.929 . S
C466 C469 1.391 . S
C466 C471 1.391 . S
C467 H439 0.929 . S
C467 C468 1.390 . S
C467 N470 1.391 . S
C468 H440 0.930 . S
C468 C467 1.390 . S
C468 C469 1.392 . S
C469 H441 0.929 . S
C469 C466 1.391 . S
C469 C468 1.392 . S
N470 Co414 2.257 . S
N470 C467 1.391 . S
N470 C471 1.388 . S
C471 H442 0.930 . S
C471 C466 1.391 . S
C471 N470 1.388 . S
H472 C490 0.951 . S
H473 C492 0.951 . S
H474 C494 0.950 . S
H475 C495 0.950 . S
H476 C497 0.950 . S
H477 C500 0.950 . S
H478 C501 0.950 . S
H479 C503 0.950 . S
H480 C504 0.950 . S
H481 C505 0.951 . S
H482 C507 0.951 . S
H483 C509 0.950 . S
H484 C510 0.950 . S
H485 C512 0.950 . S
H486 C515 0.950 . S
H487 C516 0.950 . S
H488 C518 0.950 . S
H489 C519 0.950 . S
C490 H472 0.951 . S
C490 C491 1.366 1_655 S
C490 C492 1.388 . S
C491 C490 1.366 1_455 S
C491 C495 1.385 . S
C492 H473 0.951 . S
C492 C490 1.388 . S
C492 C493 1.366 1_655 S
C493 C492 1.366 1_455 S
C493 C494 1.414 . S
C493 C496 1.499 . S
C494 H474 0.950 . S
C494 C493 1.414 . S
C494 C495 1.374 . S
C495 H475 0.950 . S
C495 C491 1.385 . S
C495 C494 1.374 . S
C496 C493 1.499 . S
C496 C497 1.373 . S
C496 C498 1.389 1_455 S
C497 H476 0.950 . S
C497 C496 1.373 . S
C497 C513 1.377 . S
C498 C496 1.389 1_655 S
C498 C499 1.524 . S
C498 C512 1.377 . S
C499 C498 1.524 . S
C499 C500 1.397 1_655 S
C499 C504 1.363 . S
C500 H477 0.950 . S
C500 C499 1.397 1_455 S
C500 C501 1.334 . S
C501 H478 0.950 . S
C501 C500 1.334 . S
C501 C502 1.287 1_455 S
C502 C501 1.287 1_655 S
C502 C503 1.524 . S
C502 H521 0.913 . S
C503 H479 0.950 . S
C503 C502 1.524 . S
C503 C504 1.415 . S
C504 H480 0.950 . S
C504 C499 1.363 . S
C504 C503 1.415 . S
C505 H481 0.951 . S
C505 C506 1.366 1_455 S
C505 C507 1.388 . S
C506 C505 1.366 1_655 S
C506 C510 1.385 . S
C507 H482 0.951 . S
C507 C505 1.388 . S
C507 C508 1.366 1_455 S
C508 C507 1.366 1_655 S
C508 C509 1.414 . S
C508 C511 1.499 . S
C509 H483 0.950 . S
C509 C508 1.414 . S
C509 C510 1.374 . S
C510 H484 0.950 . S
C510 C506 1.385 . S
C510 C509 1.374 . S
C511 C508 1.499 . S
C511 C512 1.373 . S
C511 C513 1.389 1_655 S
C512 H485 0.950 . S
C512 C498 1.377 . S
C512 C511 1.373 . S
C513 C497 1.377 . S
C513 C511 1.389 1_455 S
C513 C514 1.524 . S
C514 C513 1.524 . S
C514 C515 1.397 1_455 S
C514 C519 1.363 . S
C515 H486 0.950 . S
C515 C514 1.397 1_655 S
C515 C516 1.334 . S
C516 H487 0.950 . S
C516 C515 1.334 . S
C516 C517 1.287 1_655 S
C517 C516 1.287 1_455 S
C517 C518 1.524 . S
C517 H520 0.999 . S
C518 H488 0.950 . S
C518 C517 1.524 . S
C518 C519 1.415 . S
C519 H489 0.950 . S
C519 C514 1.363 . S
C519 C518 1.415 . S
H520 C517 0.999 . S
H521 C502 0.913 . S
H522 C540 0.951 . S
H523 C542 0.951 . S
H524 C544 0.950 . S
H525 C545 0.950 . S
H526 C547 0.950 . S
H527 C550 0.950 . S
H528 C551 0.950 . S
H529 C553 0.950 . S
H530 C554 0.950 . S
H531 C555 0.951 . S
H532 C557 0.951 . S
H533 C559 0.950 . S
H534 C560 0.950 . S
H535 C562 0.950 . S
H536 C565 0.950 . S
H537 C566 0.950 . S
H538 C568 0.950 . S
H539 C569 0.950 . S
C540 H522 0.951 . S
C540 C541 1.366 . S
C540 C542 1.388 . S
C541 C540 1.366 . S
C541 C545 1.385 . S
C542 H523 0.951 . S
C542 C540 1.388 . S
C542 C543 1.366 . S
C543 C542 1.366 . S
C543 C544 1.414 . S
C543 C546 1.499 . S
C544 H524 0.950 . S
C544 C543 1.414 . S
C544 C545 1.374 . S
C545 H525 0.950 . S
C545 C541 1.385 . S
C545 C544 1.374 . S
C546 C543 1.499 . S
C546 C547 1.373 . S
C546 C548 1.389 . S
C547 H526 0.950 . S
C547 C546 1.373 . S
C547 C563 1.377 . S
C548 C546 1.389 . S
C548 C549 1.524 . S
C548 C562 1.377 . S
C549 C548 1.524 . S
C549 C550 1.397 . S
C549 C554 1.363 . S
C550 H527 0.950 . S
C550 C549 1.397 . S
C550 C551 1.334 . S
C551 H528 0.950 . S
C551 C550 1.334 . S
C551 C552 1.287 . S
C552 C551 1.287 . S
C552 C553 1.524 . S
C552 H571 0.913 . S
C553 H529 0.950 . S
C553 C552 1.524 . S
C553 C554 1.415 . S
C554 H530 0.950 . S
C554 C549 1.363 . S
C554 C553 1.415 . S
C555 H531 0.951 . S
C555 C556 1.366 . S
C555 C557 1.388 . S
C556 C555 1.366 . S
C556 C560 1.385 . S
C557 H532 0.951 . S
C557 C555 1.388 . S
C557 C558 1.366 . S
C558 C557 1.366 . S
C558 C559 1.414 . S
C558 C561 1.499 . S
C559 H533 0.950 . S
C559 C558 1.414 . S
C559 C560 1.374 . S
C560 H534 0.950 . S
C560 C556 1.385 . S
C560 C559 1.374 . S
C561 C558 1.499 . S
C561 C562 1.373 . S
C561 C563 1.389 . S
C562 H535 0.950 . S
C562 C548 1.377 . S
C562 C561 1.373 . S
C563 C547 1.377 . S
C563 C561 1.389 . S
C563 C564 1.524 . S
C564 C563 1.524 . S
C564 C565 1.397 . S
C564 C569 1.363 . S
C565 H536 0.950 . S
C565 C564 1.397 . S
C565 C566 1.334 . S
C566 H537 0.950 . S
C566 C565 1.334 . S
C566 C567 1.287 . S
C567 C566 1.287 . S
C567 C568 1.524 . S
C567 H570 0.999 . S
C568 H538 0.950 . S
C568 C567 1.524 . S
C568 C569 1.415 . S
C569 H539 0.950 . S
C569 C564 1.363 . S
C569 C568 1.415 . S
H570 C567 0.999 . S
H571 C552 0.913 . S
H572 C590 0.951 . S
H573 C592 0.951 . S
H574 C594 0.950 . S
H575 C595 0.950 . S
H576 C597 0.950 . S
H577 C600 0.950 . S
H578 C601 0.950 . S
H579 C603 0.950 1_565 S
H580 C604 0.950 1_565 S
H581 C605 0.951 . S
H582 C607 0.951 . S
H583 C609 0.950 . S
H584 C610 0.950 . S
H585 C612 0.950 . S
H586 C615 0.950 . S
H587 C616 0.950 . S
H588 C618 0.950 1_545 S
H589 C619 0.950 1_545 S
C590 H572 0.951 . S
C590 C591 1.366 . S
C590 C592 1.388 . S
C591 C590 1.366 . S
C591 C595 1.385 . S
C592 H573 0.951 . S
C592 C590 1.388 . S
C592 C593 1.366 . S
C593 C592 1.366 . S
C593 C594 1.414 . S
C593 C596 1.499 . S
C594 H574 0.950 . S
C594 C593 1.414 . S
C594 C595 1.374 . S
C595 H575 0.950 . S
C595 C591 1.385 . S
C595 C594 1.374 . S
C596 C593 1.499 . S
C596 C597 1.373 . S
C596 C598 1.389 . S
C597 H576 0.950 . S
C597 C596 1.373 . S
C597 C613 1.377 1_544 S
C598 C596 1.389 . S
C598 C599 1.524 . S
C598 C612 1.377 1_544 S
C599 C598 1.524 . S
C599 C600 1.397 . S
C599 C604 1.363 . S
C600 H577 0.950 . S
C600 C599 1.397 . S
C600 C601 1.334 . S
C601 H578 0.950 . S
C601 C600 1.334 . S
C601 C602 1.287 . S
C602 C601 1.287 . S
C602 C603 1.524 . S
C602 H621 0.913 . S
C603 H579 0.950 1_545 S
C603 C602 1.524 . S
C603 C604 1.415 . S
C604 H580 0.950 1_545 S
C604 C599 1.363 . S
C604 C603 1.415 . S
C605 H581 0.951 . S
C605 C606 1.366 . S
C605 C607 1.388 . S
C606 C605 1.366 . S
C606 C610 1.385 . S
C607 H582 0.951 . S
C607 C605 1.388 . S
C607 C608 1.366 . S
C608 C607 1.366 . S
C608 C609 1.414 . S
C608 C611 1.499 . S
C609 H583 0.950 . S
C609 C608 1.414 . S
C609 C610 1.374 . S
C610 H584 0.950 . S
C610 C606 1.385 . S
C610 C609 1.374 . S
C611 C608 1.499 . S
C611 C612 1.373 . S
C611 C613 1.389 . S
C612 H585 0.950 . S
C612 C598 1.377 1_566 S
C612 C611 1.373 . S
C613 C597 1.377 1_566 S
C613 C611 1.389 . S
C613 C614 1.524 . S
C614 C613 1.524 . S
C614 C615 1.397 . S
C614 C619 1.363 . S
C615 H586 0.950 . S
C615 C614 1.397 . S
C615 C616 1.334 . S
C616 H587 0.950 . S
C616 C615 1.334 . S
C616 C617 1.287 . S
C617 C616 1.287 . S
C617 C618 1.524 . S
C617 H620 0.999 . S
C618 H588 0.950 1_565 S
C618 C617 1.524 . S
C618 C619 1.415 . S
C619 H589 0.950 1_565 S
C619 C614 1.363 . S
C619 C618 1.415 . S
H620 C617 0.999 . S
H621 C602 0.913 . S
H622 C640 0.951 . S
H623 C642 0.951 . S
H624 C644 0.950 . S
H625 C645 0.950 . S
H626 C647 0.950 . S
H627 C650 0.974 1_554 S
H628 C651 0.950 . S
H629 C653 0.950 . S
H630 C654 0.950 . S
H631 C655 0.951 . S
H632 C657 0.951 . S
H633 C659 0.950 . S
H634 C660 0.950 . S
H635 C662 0.950 . S
H636 C665 0.974 1_556 S
H637 C666 0.950 . S
H638 C668 0.950 . S
H639 C669 0.950 . S
C640 H622 0.951 . S
C640 C641 1.366 . S
C640 C642 1.388 . S
C641 C640 1.366 . S
C641 C645 1.385 1_655 S
C642 H623 0.951 . S
C642 C640 1.388 . S
C642 C643 1.366 . S
C643 C642 1.366 . S
C643 C644 1.414 1_655 S
C643 C646 1.499 . S
C644 H624 0.950 . S
C644 C643 1.414 1_455 S
C644 C645 1.374 . S
C645 H625 0.950 . S
C645 C641 1.385 1_455 S
C645 C644 1.374 . S
C646 C643 1.499 . S
C646 C647 1.373 1_665 S
C646 C648 1.389 1_554 S
C647 H626 0.950 . S
C647 C646 1.373 1_445 S
C647 C663 1.377 . S
C648 C646 1.389 1_556 S
C648 C649 1.524 . S
C648 C662 1.377 . S
C649 C648 1.524 . S
C649 C650 1.397 . S
C649 C654 1.363 . S
C650 H627 0.974 1_556 S
C650 C649 1.397 . S
C650 C651 1.334 . S
C651 H628 0.950 . S
C651 C650 1.334 . S
C651 C652 1.287 . S
C652 C651 1.287 . S
C652 C653 1.524 . S
C652 H671 0.913 . S
C653 H629 0.950 . S
C653 C652 1.524 . S
C653 C654 1.415 . S
C654 H630 0.950 . S
C654 C649 1.363 . S
C654 C653 1.415 . S
C655 H631 0.951 . S
C655 C656 1.366 . S
C655 C657 1.388 . S
C656 C655 1.366 . S
C656 C660 1.385 1_455 S
C657 H632 0.951 . S
C657 C655 1.388 . S
C657 C658 1.366 . S
C658 C657 1.366 . S
C658 C659 1.414 1_455 S
C658 C661 1.499 . S
C659 H633 0.950 . S
C659 C658 1.414 1_655 S
C659 C660 1.374 . S
C660 H634 0.950 . S
C660 C656 1.385 1_655 S
C660 C659 1.374 . S
C661 C658 1.499 . S
C661 C662 1.373 1_445 S
C661 C663 1.389 1_556 S
C662 H635 0.950 . S
C662 C648 1.377 . S
C662 C661 1.373 1_665 S
C663 C647 1.377 . S
C663 C661 1.389 1_554 S
C663 C664 1.524 . S
C664 C663 1.524 . S
C664 C665 1.397 . S
C664 C669 1.363 . S
C665 H636 0.974 1_554 S
C665 C664 1.397 . S
C665 C666 1.334 . S
C666 H637 0.950 . S
C666 C665 1.334 . S
C666 C667 1.287 . S
C667 C666 1.287 . S
C667 C668 1.524 . S
C667 H670 0.999 . S
C668 H638 0.950 . S
C668 C667 1.524 . S
C668 C669 1.415 . S
C669 H639 0.950 . S
C669 C664 1.363 . S
C669 C668 1.415 . S
H670 C667 0.999 . S
H671 C652 0.913 . S
H672 C690 0.951 . S
H673 C692 0.951 . S
H674 C694 0.950 . S
H675 C695 0.950 . S
H676 C697 0.950 . S
H677 C700 0.950 . S
H678 C701 0.950 . S
H679 C703 0.950 . S
H680 C704 0.950 . S
H681 C705 0.951 . S
H682 C707 0.951 . S
H683 C709 0.950 . S
H684 C710 0.950 . S
H685 C712 0.950 . S
H686 C715 0.950 . S
H687 C716 0.950 . S
H688 C718 0.950 . S
H689 C719 0.950 . S
C690 H672 0.951 . S
C690 C691 1.366 . S
C690 C692 1.388 . S
C691 C690 1.366 . S
C691 C695 1.385 . S
C692 H673 0.951 . S
C692 C690 1.388 . S
C692 C693 1.366 . S
C693 C692 1.366 . S
C693 C694 1.414 . S
C693 C696 1.499 . S
C694 H674 0.950 . S
C694 C693 1.414 . S
C694 C695 1.374 . S
C695 H675 0.950 . S
C695 C691 1.385 . S
C695 C694 1.374 . S
C696 C693 1.499 . S
C696 C697 1.373 . S
C696 C698 1.389 . S
C697 H676 0.950 . S
C697 C696 1.373 . S
C697 C713 1.377 . S
C698 C696 1.389 . S
C698 C699 1.524 . S
C698 C712 1.377 . S
C699 C698 1.524 . S
C699 C700 1.397 . S
C699 C704 1.363 . S
C700 H677 0.950 . S
C700 C699 1.397 . S
C700 C701 1.334 . S
C701 H678 0.950 . S
C701 C700 1.334 . S
C701 C702 1.287 . S
C702 C701 1.287 . S
C702 C703 1.524 . S
C702 H721 0.913 . S
C703 H679 0.950 . S
C703 C702 1.524 . S
C703 C704 1.415 . S
C704 H680 0.950 . S
C704 C699 1.363 . S
C704 C703 1.415 . S
C705 H681 0.951 . S
C705 C706 1.366 . S
C705 C707 1.388 . S
C706 C705 1.366 . S
C706 C710 1.385 . S
C707 H682 0.951 . S
C707 C705 1.388 . S
C707 C708 1.366 . S
C708 C707 1.366 . S
C708 C709 1.414 . S
C708 C711 1.499 . S
C709 H683 0.950 . S
C709 C708 1.414 . S
C709 C710 1.374 . S
C710 H684 0.950 . S
C710 C706 1.385 . S
C710 C709 1.374 . S
C711 C708 1.499 . S
C711 C712 1.373 . S
C711 C713 1.389 . S
C712 H685 0.950 . S
C712 C698 1.377 . S
C712 C711 1.373 . S
C713 C697 1.377 . S
C713 C711 1.389 . S
C713 C714 1.524 . S
C714 C713 1.524 . S
C714 C715 1.397 . S
C714 C719 1.363 . S
C715 H686 0.950 . S
C715 C714 1.397 . S
C715 C716 1.334 . S
C716 H687 0.950 . S
C716 C715 1.334 . S
C716 C717 1.287 . S
C717 C716 1.287 . S
C717 C718 1.524 . S
C717 H720 0.999 . S
C718 H688 0.950 . S
C718 C717 1.524 . S
C718 C719 1.415 . S
C719 H689 0.950 . S
C719 C714 1.363 . S
C719 C718 1.415 . S
H720 C717 0.999 . S
H721 C702 0.913 . S
H722 C740 0.951 . S
H723 C742 0.951 . S
H724 C744 0.950 . S
H725 C745 0.950 . S
H726 C747 0.950 . S
H727 C750 0.950 . S
H728 C751 0.950 . S
H729 C753 0.950 . S
H730 C754 0.950 . S
H731 C755 0.951 . S
H732 C757 0.951 . S
H733 C759 0.950 . S
H734 C760 0.950 . S
H735 C762 0.950 . S
H736 C765 0.950 . S
H737 C766 0.950 . S
H738 C768 0.950 . S
H739 C769 0.950 . S
C740 H722 0.951 . S
C740 C741 1.366 . S
C740 C742 1.388 . S
C741 C740 1.366 . S
C741 C745 1.385 . S
C742 H723 0.951 . S
C742 C740 1.388 . S
C742 C743 1.366 . S
C743 C742 1.366 . S
C743 C744 1.414 . S
C743 C746 1.499 . S
C744 H724 0.950 . S
C744 C743 1.414 . S
C744 C745 1.374 . S
C745 H725 0.950 . S
C745 C741 1.385 . S
C745 C744 1.374 . S
C746 C743 1.499 . S
C746 C747 1.373 . S
C746 C748 1.389 . S
C747 H726 0.950 . S
C747 C746 1.373 . S
C747 C763 1.377 . S
C748 C746 1.389 . S
C748 C749 1.524 . S
C748 C762 1.377 . S
C749 C748 1.524 . S
C749 C750 1.397 . S
C749 C754 1.363 . S
C750 H727 0.950 . S
C750 C749 1.397 . S
C750 C751 1.334 . S
C751 H728 0.950 . S
C751 C750 1.334 . S
C751 C752 1.287 . S
C752 C751 1.287 . S
C752 C753 1.524 . S
C752 H771 0.913 . S
C753 H729 0.950 . S
C753 C752 1.524 . S
C753 C754 1.415 . S
C754 H730 0.950 . S
C754 C749 1.363 . S
C754 C753 1.415 . S
C755 H731 0.951 . S
C755 C756 1.366 . S
C755 C757 1.388 . S
C756 C755 1.366 . S
C756 C760 1.385 . S
C757 H732 0.951 . S
C757 C755 1.388 . S
C757 C758 1.366 . S
C758 C757 1.366 . S
C758 C759 1.414 . S
C758 C761 1.499 . S
C759 H733 0.950 . S
C759 C758 1.414 . S
C759 C760 1.374 . S
C760 H734 0.950 . S
C760 C756 1.385 . S
C760 C759 1.374 . S
C761 C758 1.499 . S
C761 C762 1.373 . S
C761 C763 1.389 . S
C762 H735 0.950 . S
C762 C748 1.377 . S
C762 C761 1.373 . S
C763 C747 1.377 . S
C763 C761 1.389 . S
C763 C764 1.524 . S
C764 C763 1.524 . S
C764 C765 1.397 . S
C764 C769 1.363 . S
C765 H736 0.950 . S
C765 C764 1.397 . S
C765 C766 1.334 . S
C766 H737 0.950 . S
C766 C765 1.334 . S
C766 C767 1.287 . S
C767 C766 1.287 . S
C767 C768 1.524 . S
C767 H770 0.999 . S
C768 H738 0.950 . S
C768 C767 1.524 . S
C768 C769 1.415 . S
C769 H739 0.950 . S
C769 C764 1.363 . S
C769 C768 1.415 . S
H770 C767 0.999 . S
H771 C752 0.913 . S
H772 C790 0.951 . S
H773 C792 0.951 . S
H774 C794 0.950 . S
H775 C795 0.950 . S
H776 C797 0.950 . S
H777 C800 0.950 . S
H778 C801 0.950 . S
H779 C803 0.950 . S
H780 C804 0.950 . S
H781 C805 0.951 . S
H782 C807 0.951 . S
H783 C809 0.950 . S
H784 C810 0.950 . S
H785 C812 0.950 . S
H786 C815 0.950 . S
H787 C816 0.950 . S
H788 C818 0.950 . S
H789 C819 0.950 . S
C790 H772 0.951 . S
C790 C791 1.366 . S
C790 C792 1.388 . S
C791 C790 1.366 . S
C791 C795 1.385 . S
C792 H773 0.951 . S
C792 C790 1.388 . S
C792 C793 1.366 . S
C793 C792 1.366 . S
C793 C794 1.414 . S
C793 C796 1.499 . S
C794 H774 0.950 . S
C794 C793 1.414 . S
C794 C795 1.374 . S
C795 H775 0.950 . S
C795 C791 1.385 . S
C795 C794 1.374 . S
C796 C793 1.499 . S
C796 C797 1.373 . S
C796 C798 1.389 . S
C797 H776 0.950 . S
C797 C796 1.373 . S
C797 C813 1.377 . S
C798 C796 1.389 . S
C798 C799 1.524 . S
C798 C812 1.377 . S
C799 C798 1.524 . S
C799 C800 1.397 . S
C799 C804 1.363 . S
C800 H777 0.950 . S
C800 C799 1.397 . S
C800 C801 1.334 . S
C801 H778 0.950 . S
C801 C800 1.334 . S
C801 C802 1.287 . S
C802 C801 1.287 . S
C802 C803 1.524 . S
C802 H821 0.913 . S
C803 H779 0.950 . S
C803 C802 1.524 . S
C803 C804 1.415 . S
C804 H780 0.950 . S
C804 C799 1.363 . S
C804 C803 1.415 . S
C805 H781 0.951 . S
C805 C806 1.366 . S
C805 C807 1.388 . S
C806 C805 1.366 . S
C806 C810 1.385 . S
C807 H782 0.951 . S
C807 C805 1.388 . S
C807 C808 1.366 . S
C808 C807 1.366 . S
C808 C809 1.414 . S
C808 C811 1.499 . S
C809 H783 0.950 . S
C809 C808 1.414 . S
C809 C810 1.374 . S
C810 H784 0.950 . S
C810 C806 1.385 . S
C810 C809 1.374 . S
C811 C808 1.499 . S
C811 C812 1.373 . S
C811 C813 1.389 . S
C812 H785 0.950 . S
C812 C798 1.377 . S
C812 C811 1.373 . S
C813 C797 1.377 . S
C813 C811 1.389 . S
C813 C814 1.524 . S
C814 C813 1.524 . S
C814 C815 1.397 . S
C814 C819 1.363 . S
C815 H786 0.950 . S
C815 C814 1.397 . S
C815 C816 1.334 . S
C816 H787 0.950 . S
C816 C815 1.334 . S
C816 C817 1.287 . S
C817 C816 1.287 . S
C817 C818 1.524 . S
C817 H820 0.999 . S
C818 H788 0.950 . S
C818 C817 1.524 . S
C818 C819 1.415 . S
C819 H789 0.950 . S
C819 C814 1.363 . S
C819 C818 1.415 . S
H820 C817 0.999 . S
H821 C802 0.913 . S
H822 C840 0.951 . S
H823 C842 0.951 . S
H824 C844 0.950 . S
H825 C845 0.950 . S
H826 C847 0.950 . S
H827 C850 0.950 . S
H828 C851 0.950 . S
H829 C853 0.950 . S
H830 C854 0.950 . S
H831 C855 0.951 . S
H832 C857 0.951 . S
H833 C859 0.950 . S
H834 C860 0.950 . S
H835 C862 0.950 . S
H836 C865 0.950 . S
H837 C866 0.950 . S
H838 C868 0.950 . S
H839 C869 0.950 . S
C840 H822 0.951 . S
C840 C841 1.366 . S
C840 C842 1.388 . S
C841 C840 1.366 . S
C841 C845 1.385 . S
C842 H823 0.951 . S
C842 C840 1.388 . S
C842 C843 1.366 . S
C843 C842 1.366 . S
C843 C844 1.414 . S
C843 C846 1.499 . S
C844 H824 0.950 . S
C844 C843 1.414 . S
C844 C845 1.374 . S
C845 H825 0.950 . S
C845 C841 1.385 . S
C845 C844 1.374 . S
C846 C843 1.499 . S
C846 C847 1.373 . S
C846 C848 1.389 . S
C847 H826 0.950 . S
C847 C846 1.373 . S
C847 C863 1.377 . S
C848 C846 1.389 . S
C848 C849 1.524 . S
C848 C862 1.377 . S
C849 C848 1.524 . S
C849 C850 1.397 . S
C849 C854 1.363 . S
C850 H827 0.950 . S
C850 C849 1.397 . S
C850 C851 1.334 . S
C851 H828 0.950 . S
C851 C850 1.334 . S
C851 C852 1.287 . S
C852 C851 1.287 . S
C852 C853 1.524 . S
C852 H871 0.913 . S
C853 H829 0.950 . S
C853 C852 1.524 . S
C853 C854 1.415 . S
C854 H830 0.950 . S
C854 C849 1.363 . S
C854 C853 1.415 . S
C855 H831 0.951 . S
C855 C856 1.366 . S
C855 C857 1.388 . S
C856 C855 1.366 . S
C856 C860 1.385 . S
C857 H832 0.951 . S
C857 C855 1.388 . S
C857 C858 1.366 . S
C858 C857 1.366 . S
C858 C859 1.414 . S
C858 C861 1.499 . S
C859 H833 0.950 . S
C859 C858 1.414 . S
C859 C860 1.374 . S
C860 H834 0.950 . S
C860 C856 1.385 . S
C860 C859 1.374 . S
C861 C858 1.499 . S
C861 C862 1.373 . S
C861 C863 1.389 . S
C862 H835 0.950 . S
C862 C848 1.377 . S
C862 C861 1.373 . S
C863 C847 1.377 . S
C863 C861 1.389 . S
C863 C864 1.524 . S
C864 C863 1.524 . S
C864 C865 1.397 . S
C864 C869 1.363 . S
C865 H836 0.950 . S
C865 C864 1.397 . S
C865 C866 1.334 . S
C866 H837 0.950 . S
C866 C865 1.334 . S
C866 C867 1.287 . S
C867 C866 1.287 . S
C867 C868 1.524 . S
C867 H870 0.999 . S
C868 H838 0.950 . S
C868 C867 1.524 . S
C868 C869 1.415 . S
C869 H839 0.950 . S
C869 C864 1.363 . S
C869 C868 1.415 . S
H870 C867 0.999 . S
H871 C852 0.913 . S
H872 C890 0.951 . S
H873 C892 0.951 . S
H874 C894 0.950 . S
H875 C895 0.950 . S
H876 C897 0.950 . S
H877 C900 0.950 . S
H878 C901 0.950 . S
H879 C903 0.950 . S
H880 C904 0.950 . S
H881 C905 0.951 . S
H882 C907 0.951 . S
H883 C909 0.950 . S
H884 C910 0.950 . S
H885 C912 0.950 . S
H886 C915 0.950 . S
H887 C916 0.950 . S
H888 C918 0.950 . S
H889 C919 0.950 . S
C890 H872 0.951 . S
C890 C891 1.366 . S
C890 C892 1.388 . S
C891 C890 1.366 . S
C891 C895 1.385 . S
C892 H873 0.951 . S
C892 C890 1.388 . S
C892 C893 1.366 . S
C893 C892 1.366 . S
C893 C894 1.414 . S
C893 C896 1.499 . S
C894 H874 0.950 . S
C894 C893 1.414 . S
C894 C895 1.374 . S
C895 H875 0.950 . S
C895 C891 1.385 . S
C895 C894 1.374 . S
C896 C893 1.499 . S
C896 C897 1.373 . S
C896 C898 1.389 . S
C897 H876 0.950 . S
C897 C896 1.373 . S
C897 C913 1.377 . S
C898 C896 1.389 . S
C898 C899 1.524 . S
C898 C912 1.377 . S
C899 C898 1.524 . S
C899 C900 1.397 . S
C899 C904 1.363 . S
C900 H877 0.950 . S
C900 C899 1.397 . S
C900 C901 1.334 . S
C901 H878 0.950 . S
C901 C900 1.334 . S
C901 C902 1.287 . S
C902 C901 1.287 . S
C902 C903 1.524 . S
C902 H921 0.913 . S
C903 H879 0.950 . S
C903 C902 1.524 . S
C903 C904 1.415 . S
C904 H880 0.950 . S
C904 C899 1.363 . S
C904 C903 1.415 . S
C905 H881 0.951 . S
C905 C906 1.366 . S
C905 C907 1.388 . S
C906 C905 1.366 . S
C906 C910 1.385 . S
C907 H882 0.951 . S
C907 C905 1.388 . S
C907 C908 1.366 . S
C908 C907 1.366 . S
C908 C909 1.414 . S
C908 C911 1.499 . S
C909 H883 0.950 . S
C909 C908 1.414 . S
C909 C910 1.374 . S
C910 H884 0.950 . S
C910 C906 1.385 . S
C910 C909 1.374 . S
C911 C908 1.499 . S
C911 C912 1.373 . S
C911 C913 1.389 . S
C912 H885 0.950 . S
C912 C898 1.377 . S
C912 C911 1.373 . S
C913 C897 1.377 . S
C913 C911 1.389 . S
C913 C914 1.524 . S
C914 C913 1.524 . S
C914 C915 1.397 . S
C914 C919 1.363 . S
C915 H886 0.950 . S
C915 C914 1.397 . S
C915 C916 1.334 . S
C916 H887 0.950 . S
C916 C915 1.334 . S
C916 C917 1.287 . S
C917 C916 1.287 . S
C917 C918 1.524 . S
C917 H920 0.999 . S
C918 H888 0.950 . S
C918 C917 1.524 . S
C918 C919 1.415 . S
C919 H889 0.950 . S
C919 C914 1.363 . S
C919 C918 1.415 . S
H920 C917 0.999 . S
H921 C902 0.913 . S
H922 C940 0.951 . S
H923 C942 0.951 . S
H924 C944 0.950 . S
H925 C945 0.950 . S
H926 C947 0.950 . S
H927 C950 0.950 . S
H928 C951 0.950 . S
H929 C953 0.950 . S
H930 C954 0.950 . S
H931 C955 0.951 . S
H932 C957 0.951 . S
H933 C959 0.950 . S
H934 C960 0.950 . S
H935 C962 0.950 . S
H936 C965 0.950 . S
H937 C966 0.950 . S
H938 C968 0.950 . S
H939 C969 0.950 . S
C940 H922 0.951 . S
C940 C941 1.366 . S
C940 C942 1.388 . S
C941 C940 1.366 . S
C941 C945 1.385 . S
C942 H923 0.951 . S
C942 C940 1.388 . S
C942 C943 1.366 . S
C943 C942 1.366 . S
C943 C944 1.414 . S
C943 C946 1.499 . S
C944 H924 0.950 . S
C944 C943 1.414 . S
C944 C945 1.374 . S
C945 H925 0.950 . S
C945 C941 1.385 . S
C945 C944 1.374 . S
C946 C943 1.499 . S
C946 C947 1.373 . S
C946 C948 1.389 . S
C947 H926 0.950 . S
C947 C946 1.373 . S
C947 C963 1.377 . S
C948 C946 1.389 . S
C948 C949 1.524 . S
C948 C962 1.377 . S
C949 C948 1.524 . S
C949 C950 1.397 . S
C949 C954 1.363 . S
C950 H927 0.950 . S
C950 C949 1.397 . S
C950 C951 1.334 . S
C951 H928 0.950 . S
C951 C950 1.334 . S
C951 C952 1.287 . S
C952 C951 1.287 . S
C952 C953 1.524 . S
C952 H971 0.913 . S
C953 H929 0.950 . S
C953 C952 1.524 . S
C953 C954 1.415 . S
C954 H930 0.950 . S
C954 C949 1.363 . S
C954 C953 1.415 . S
C955 H931 0.951 . S
C955 C956 1.366 . S
C955 C957 1.388 . S
C956 C955 1.366 . S
C956 C960 1.385 . S
C957 H932 0.951 . S
C957 C955 1.388 . S
C957 C958 1.366 . S
C958 C957 1.366 . S
C958 C959 1.414 . S
C958 C961 1.499 . S
C959 H933 0.950 . S
C959 C958 1.414 . S
C959 C960 1.374 . S
C960 H934 0.950 . S
C960 C956 1.385 . S
C960 C959 1.374 . S
C961 C958 1.499 . S
C961 C962 1.373 . S
C961 C963 1.389 . S
C962 H935 0.950 . S
C962 C948 1.377 . S
C962 C961 1.373 . S
C963 C947 1.377 . S
C963 C961 1.389 . S
C963 C964 1.524 . S
C964 C963 1.524 . S
C964 C965 1.397 . S
C964 C969 1.363 . S
C965 H936 0.950 . S
C965 C964 1.397 . S
C965 C966 1.334 . S
C966 H937 0.950 . S
C966 C965 1.334 . S
C966 C967 1.287 . S
C967 C966 1.287 . S
C967 C968 1.524 . S
C967 H970 0.999 . S
C968 H938 0.950 . S
C968 C967 1.524 . S
C968 C969 1.415 . S
C969 H939 0.950 . S
C969 C964 1.363 . S
C969 C968 1.415 . S
H970 C967 0.999 . S
H971 C952 0.913 . S
H972 C990 0.951 . S
H973 C992 0.951 . S
H974 C994 0.950 . S
H975 C995 0.950 . S
H976 C997 0.950 . S
H977 C1000 0.950 . S
H978 C1001 0.950 . S
H979 C1003 0.950 . S
H980 C1004 0.950 . S
H981 C1005 0.951 . S
H982 C1007 0.951 . S
H983 C1009 0.950 . S
H984 C1010 0.950 . S
H985 C1012 0.950 . S
H986 C1015 0.950 . S
H987 C1016 0.950 . S
H988 C1018 0.950 . S
H989 C1019 0.950 . S
C990 H972 0.951 . S
C990 C991 1.366 . S
C990 C992 1.388 . S
C991 C990 1.366 . S
C991 C995 1.385 . S
C992 H973 0.951 . S
C992 C990 1.388 . S
C992 C993 1.366 . S
C993 C992 1.366 . S
C993 C994 1.414 . S
C993 C996 1.499 . S
C994 H974 0.950 . S
C994 C993 1.414 . S
C994 C995 1.374 . S
C995 H975 0.950 . S
C995 C991 1.385 . S
C995 C994 1.374 . S
C996 C993 1.499 . S
C996 C997 1.373 . S
C996 C998 1.389 . S
C997 H976 0.950 . S
C997 C996 1.373 . S
C997 C1013 1.377 . S
C998 C996 1.389 . S
C998 C999 1.524 . S
C998 C1012 1.377 . S
C999 C998 1.524 . S
C999 C1000 1.397 . S
C999 C1004 1.363 . S
C1000 H977 0.950 . S
C1000 C999 1.397 . S
C1000 C1001 1.334 . S
C1001 H978 0.950 . S
C1001 C1000 1.334 . S
C1001 C1002 1.287 . S
C1002 C1001 1.287 . S
C1002 C1003 1.524 . S
C1002 H1021 0.913 . S
C1003 H979 0.950 . S
C1003 C1002 1.524 . S
C1003 C1004 1.415 . S
C1004 H980 0.950 . S
C1004 C999 1.363 . S
C1004 C1003 1.415 . S
C1005 H981 0.951 . S
C1005 C1006 1.366 . S
C1005 C1007 1.388 . S
C1006 C1005 1.366 . S
C1006 C1010 1.385 . S
C1007 H982 0.951 . S
C1007 C1005 1.388 . S
C1007 C1008 1.366 . S
C1008 C1007 1.366 . S
C1008 C1009 1.414 . S
C1008 C1011 1.499 . S
C1009 H983 0.950 . S
C1009 C1008 1.414 . S
C1009 C1010 1.374 . S
C1010 H984 0.950 . S
C1010 C1006 1.385 . S
C1010 C1009 1.374 . S
C1011 C1008 1.499 . S
C1011 C1012 1.373 . S
C1011 C1013 1.389 . S
C1012 H985 0.950 . S
C1012 C998 1.377 . S
C1012 C1011 1.373 . S
C1013 C997 1.377 . S
C1013 C1011 1.389 . S
C1013 C1014 1.524 . S
C1014 C1013 1.524 . S
C1014 C1015 1.397 . S
C1014 C1019 1.363 . S
C1015 H986 0.950 . S
C1015 C1014 1.397 . S
C1015 C1016 1.334 . S
C1016 H987 0.950 . S
C1016 C1015 1.334 . S
C1016 C1017 1.287 . S
C1017 C1016 1.287 . S
C1017 C1018 1.524 . S
C1017 H1020 0.999 . S
C1018 H988 0.950 . S
C1018 C1017 1.524 . S
C1018 C1019 1.415 . S
C1019 H989 0.950 . S
C1019 C1014 1.363 . S
C1019 C1018 1.415 . S
H1020 C1017 0.999 . S
H1021 C1002 0.913 . S
H1022 C1040 0.951 . S
H1023 C1042 0.951 . S
H1024 C1044 0.950 . S
H1025 C1045 0.950 . S
H1026 C1047 0.950 . S
H1027 C1050 0.950 . S
H1028 C1051 0.950 . S
H1029 C1053 0.950 . S
H1030 C1054 0.950 . S
H1031 C1055 0.951 . S
H1032 C1057 0.951 . S
H1033 C1059 0.950 . S
H1034 C1060 0.950 . S
H1035 C1062 0.950 . S
H1036 C1065 0.950 . S
H1037 C1066 0.950 . S
H1038 C1068 0.950 . S
H1039 C1069 0.950 . S
C1040 H1022 0.951 . S
C1040 C1041 1.366 . S
C1040 C1042 1.388 . S
C1041 C1040 1.366 . S
C1041 C1045 1.385 . S
C1042 H1023 0.951 . S
C1042 C1040 1.388 . S
C1042 C1043 1.366 . S
C1043 C1042 1.366 . S
C1043 C1044 1.414 . S
C1043 C1046 1.499 . S
C1044 H1024 0.950 . S
C1044 C1043 1.414 . S
C1044 C1045 1.374 . S
C1045 H1025 0.950 . S
C1045 C1041 1.385 . S
C1045 C1044 1.374 . S
C1046 C1043 1.499 . S
C1046 C1047 1.373 . S
C1046 C1048 1.389 . S
C1047 H1026 0.950 . S
C1047 C1046 1.373 . S
C1047 C1063 1.377 . S
C1048 C1046 1.389 . S
C1048 C1049 1.524 . S
C1048 C1062 1.377 . S
C1049 C1048 1.524 . S
C1049 C1050 1.397 . S
C1049 C1054 1.363 . S
C1050 H1027 0.950 . S
C1050 C1049 1.397 . S
C1050 C1051 1.334 . S
C1051 H1028 0.950 . S
C1051 C1050 1.334 . S
C1051 C1052 1.287 . S
C1052 C1051 1.287 . S
C1052 C1053 1.524 . S
C1052 H1071 0.913 . S
C1053 H1029 0.950 . S
C1053 C1052 1.524 . S
C1053 C1054 1.415 . S
C1054 H1030 0.950 . S
C1054 C1049 1.363 . S
C1054 C1053 1.415 . S
C1055 H1031 0.951 . S
C1055 C1056 1.366 . S
C1055 C1057 1.388 . S
C1056 C1055 1.366 . S
C1056 C1060 1.385 . S
C1057 H1032 0.951 . S
C1057 C1055 1.388 . S
C1057 C1058 1.366 . S
C1058 C1057 1.366 . S
C1058 C1059 1.414 . S
C1058 C1061 1.499 . S
C1059 H1033 0.950 . S
C1059 C1058 1.414 . S
C1059 C1060 1.374 . S
C1060 H1034 0.950 . S
C1060 C1056 1.385 . S
C1060 C1059 1.374 . S
C1061 C1058 1.499 . S
C1061 C1062 1.373 . S
C1061 C1063 1.389 . S
C1062 H1035 0.950 . S
C1062 C1048 1.377 . S
C1062 C1061 1.373 . S
C1063 C1047 1.377 . S
C1063 C1061 1.389 . S
C1063 C1064 1.524 . S
C1064 C1063 1.524 . S
C1064 C1065 1.397 . S
C1064 C1069 1.363 . S
C1065 H1036 0.950 . S
C1065 C1064 1.397 . S
C1065 C1066 1.334 . S
C1066 H1037 0.950 . S
C1066 C1065 1.334 . S
C1066 C1067 1.287 . S
C1067 C1066 1.287 . S
C1067 C1068 1.524 . S
C1067 H1070 0.999 . S
C1068 H1038 0.950 . S
C1068 C1067 1.524 . S
C1068 C1069 1.415 . S
C1069 H1039 0.950 . S
C1069 C1064 1.363 . S
C1069 C1068 1.415 . S
H1070 C1067 0.999 . S
H1071 C1052 0.913 . S
H1072 C1090 0.951 . S
H1073 C1092 0.951 . S
H1074 C1094 0.950 . S
H1075 C1095 0.950 . S
H1076 C1097 0.950 . S
H1077 C1100 0.950 . S
H1078 C1101 0.950 . S
H1079 C1103 0.950 . S
H1080 C1104 0.950 . S
H1081 C1105 0.951 . S
H1082 C1107 0.951 . S
H1083 C1109 0.950 . S
H1084 C1110 0.950 . S
H1085 C1112 0.950 . S
H1086 C1115 0.950 . S
H1087 C1116 0.950 . S
H1088 C1118 0.950 . S
H1089 C1119 0.950 . S
C1090 H1072 0.951 . S
C1090 C1091 1.366 . S
C1090 C1092 1.388 . S
C1091 C1090 1.366 . S
C1091 C1095 1.385 . S
C1092 H1073 0.951 . S
C1092 C1090 1.388 . S
C1092 C1093 1.366 . S
C1093 C1092 1.366 . S
C1093 C1094 1.414 . S
C1093 C1096 1.499 . S
C1094 H1074 0.950 . S
C1094 C1093 1.414 . S
C1094 C1095 1.374 . S
C1095 H1075 0.950 . S
C1095 C1091 1.385 . S
C1095 C1094 1.374 . S
C1096 C1093 1.499 . S
C1096 C1097 1.373 . S
C1096 C1098 1.389 . S
C1097 H1076 0.950 . S
C1097 C1096 1.373 . S
C1097 C1113 1.377 . S
C1098 C1096 1.389 . S
C1098 C1099 1.524 . S
C1098 C1112 1.377 . S
C1099 C1098 1.524 . S
C1099 C1100 1.397 . S
C1099 C1104 1.363 . S
C1100 H1077 0.950 . S
C1100 C1099 1.397 . S
C1100 C1101 1.334 . S
C1101 H1078 0.950 . S
C1101 C1100 1.334 . S
C1101 C1102 1.287 . S
C1102 C1101 1.287 . S
C1102 C1103 1.524 . S
C1102 H1121 0.913 . S
C1103 H1079 0.950 . S
C1103 C1102 1.524 . S
C1103 C1104 1.415 . S
C1104 H1080 0.950 . S
C1104 C1099 1.363 . S
C1104 C1103 1.415 . S
C1105 H1081 0.951 . S
C1105 C1106 1.366 . S
C1105 C1107 1.388 . S
C1106 C1105 1.366 . S
C1106 C1110 1.385 . S
C1107 H1082 0.951 . S
C1107 C1105 1.388 . S
C1107 C1108 1.366 . S
C1108 C1107 1.366 . S
C1108 C1109 1.414 . S
C1108 C1111 1.499 . S
C1109 H1083 0.950 . S
C1109 C1108 1.414 . S
C1109 C1110 1.374 . S
C1110 H1084 0.950 . S
C1110 C1106 1.385 . S
C1110 C1109 1.374 . S
C1111 C1108 1.499 . S
C1111 C1112 1.373 . S
C1111 C1113 1.389 . S
C1112 H1085 0.950 . S
C1112 C1098 1.377 . S
C1112 C1111 1.373 . S
C1113 C1097 1.377 . S
C1113 C1111 1.389 . S
C1113 C1114 1.524 . S
C1114 C1113 1.524 . S
C1114 C1115 1.397 . S
C1114 C1119 1.363 . S
C1115 H1086 0.950 . S
C1115 C1114 1.397 . S
C1115 C1116 1.334 . S
C1116 H1087 0.950 . S
C1116 C1115 1.334 . S
C1116 C1117 1.287 . S
C1117 C1116 1.287 . S
C1117 C1118 1.524 . S
C1117 H1120 0.999 . S
C1118 H1088 0.950 . S
C1118 C1117 1.524 . S
C1118 C1119 1.415 . S
C1119 H1089 0.950 . S
C1119 C1114 1.363 . S
C1119 C1118 1.415 . S
H1120 C1117 0.999 . S
H1121 C1102 0.913 . S
H1122 C1140 0.951 . S
H1123 C1142 0.951 . S
H1124 C1144 0.950 . S
H1125 C1145 0.950 . S
H1126 C1147 0.950 . S
H1127 C1150 0.950 . S
H1128 C1151 0.950 . S
H1129 C1153 0.950 . S
H1130 C1154 0.950 . S
H1131 C1155 0.951 . S
H1132 C1157 0.951 . S
H1133 C1159 0.950 . S
H1134 C1160 0.950 . S
H1135 C1162 0.950 . S
H1136 C1165 0.950 . S
H1137 C1166 0.950 . S
H1138 C1168 0.950 . S
H1139 C1169 0.950 . S
C1140 H1122 0.951 . S
C1140 C1141 1.366 . S
C1140 C1142 1.388 . S
C1141 C1140 1.366 . S
C1141 C1145 1.385 . S
C1142 H1123 0.951 . S
C1142 C1140 1.388 . S
C1142 C1143 1.366 . S
C1143 C1142 1.366 . S
C1143 C1144 1.414 . S
C1143 C1146 1.499 . S
C1144 H1124 0.950 . S
C1144 C1143 1.414 . S
C1144 C1145 1.374 . S
C1145 H1125 0.950 . S
C1145 C1141 1.385 . S
C1145 C1144 1.374 . S
C1146 C1143 1.499 . S
C1146 C1147 1.373 . S
C1146 C1148 1.389 . S
C1147 H1126 0.950 . S
C1147 C1146 1.373 . S
C1147 C1163 1.377 . S
C1148 C1146 1.389 . S
C1148 C1149 1.524 . S
C1148 C1162 1.377 . S
C1149 C1148 1.524 . S
C1149 C1150 1.397 . S
C1149 C1154 1.363 . S
C1150 H1127 0.950 . S
C1150 C1149 1.397 . S
C1150 C1151 1.334 . S
C1151 H1128 0.950 . S
C1151 C1150 1.334 . S
C1151 C1152 1.287 . S
C1152 C1151 1.287 . S
C1152 C1153 1.524 . S
C1152 H1171 0.913 1_565 S
C1153 H1129 0.950 . S
C1153 C1152 1.524 . S
C1153 C1154 1.415 . S
C1154 H1130 0.950 . S
C1154 C1149 1.363 . S
C1154 C1153 1.415 . S
C1155 H1131 0.951 . S
C1155 C1156 1.366 . S
C1155 C1157 1.388 . S
C1156 C1155 1.366 . S
C1156 C1160 1.385 . S
C1157 H1132 0.951 . S
C1157 C1155 1.388 . S
C1157 C1158 1.366 . S
C1158 C1157 1.366 . S
C1158 C1159 1.414 . S
C1158 C1161 1.499 . S
C1159 H1133 0.950 . S
C1159 C1158 1.414 . S
C1159 C1160 1.374 . S
C1160 H1134 0.950 . S
C1160 C1156 1.385 . S
C1160 C1159 1.374 . S
C1161 C1158 1.499 . S
C1161 C1162 1.373 . S
C1161 C1163 1.389 . S
C1162 H1135 0.950 . S
C1162 C1148 1.377 . S
C1162 C1161 1.373 . S
C1163 C1147 1.377 . S
C1163 C1161 1.389 . S
C1163 C1164 1.524 . S
C1164 C1163 1.524 . S
C1164 C1165 1.397 . S
C1164 C1169 1.363 . S
C1165 H1136 0.950 . S
C1165 C1164 1.397 . S
C1165 C1166 1.334 . S
C1166 H1137 0.950 . S
C1166 C1165 1.334 . S
C1166 C1167 1.287 . S
C1167 C1166 1.287 . S
C1167 C1168 1.524 . S
C1167 H1170 0.999 . S
C1168 H1138 0.950 . S
C1168 C1167 1.524 . S
C1168 C1169 1.415 . S
C1169 H1139 0.950 . S
C1169 C1164 1.363 . S
C1169 C1168 1.415 . S
H1170 C1167 0.999 . S
H1171 C1152 0.913 1_545 S
H1172 C1190 0.951 . S
H1173 C1192 0.951 . S
H1174 C1194 0.950 . S
H1175 C1195 0.950 . S
H1176 C1197 0.950 . S
H1177 C1200 0.950 1_554 S
H1178 C1201 0.950 . S
H1179 C1203 0.950 . S
H1180 C1204 0.950 . S
H1181 C1205 0.951 . S
H1182 C1207 0.951 . S
H1183 C1209 0.950 . S
H1184 C1210 0.950 . S
H1185 C1212 0.950 . S
H1186 C1215 0.950 1_556 S
H1187 C1216 0.950 . S
H1188 C1218 0.950 . S
H1189 C1219 0.950 . S
C1190 H1172 0.951 . S
C1190 C1191 1.366 . S
C1190 C1192 1.388 . S
C1191 C1190 1.366 . S
C1191 C1195 1.385 . S
C1192 H1173 0.951 . S
C1192 C1190 1.388 . S
C1192 C1193 1.366 . S
C1193 C1192 1.366 . S
C1193 C1194 1.414 . S
C1193 C1196 1.499 . S
C1194 H1174 0.950 . S
C1194 C1193 1.414 . S
C1194 C1195 1.374 . S
C1195 H1175 0.950 . S
C1195 C1191 1.385 . S
C1195 C1194 1.374 . S
C1196 C1193 1.499 . S
C1196 C1197 1.373 . S
C1196 C1198 1.389 1_554 S
C1197 H1176 0.950 . S
C1197 C1196 1.373 . S
C1197 C1213 1.377 . S
C1198 C1196 1.389 1_556 S
C1198 C1199 1.524 . S
C1198 C1212 1.377 . S
C1199 C1198 1.524 . S
C1199 C1200 1.397 . S
C1199 C1204 1.363 . S
C1200 H1177 0.950 1_556 S
C1200 C1199 1.397 . S
C1200 C1201 1.334 . S
C1201 H1178 0.950 . S
C1201 C1200 1.334 . S
C1201 C1202 1.287 . S
C1202 C1201 1.287 . S
C1202 C1203 1.524 . S
C1202 H1221 0.913 . S
C1203 H1179 0.950 . S
C1203 C1202 1.524 . S
C1203 C1204 1.415 . S
C1204 H1180 0.950 . S
C1204 C1199 1.363 . S
C1204 C1203 1.415 . S
C1205 H1181 0.951 . S
C1205 C1206 1.366 . S
C1205 C1207 1.388 . S
C1206 C1205 1.366 . S
C1206 C1210 1.385 . S
C1207 H1182 0.951 . S
C1207 C1205 1.388 . S
C1207 C1208 1.366 . S
C1208 C1207 1.366 . S
C1208 C1209 1.414 . S
C1208 C1211 1.499 . S
C1209 H1183 0.950 . S
C1209 C1208 1.414 . S
C1209 C1210 1.374 . S
C1210 H1184 0.950 . S
C1210 C1206 1.385 . S
C1210 C1209 1.374 . S
C1211 C1208 1.499 . S
C1211 C1212 1.373 . S
C1211 C1213 1.389 1_556 S
C1212 H1185 0.950 . S
C1212 C1198 1.377 . S
C1212 C1211 1.373 . S
C1213 C1197 1.377 . S
C1213 C1211 1.389 1_554 S
C1213 C1214 1.524 . S
C1214 C1213 1.524 . S
C1214 C1215 1.397 . S
C1214 C1219 1.363 . S
C1215 H1186 0.950 1_554 S
C1215 C1214 1.397 . S
C1215 C1216 1.334 . S
C1216 H1187 0.950 . S
C1216 C1215 1.334 . S
C1216 C1217 1.287 . S
C1217 C1216 1.287 . S
C1217 C1218 1.524 . S
C1217 H1220 0.999 . S
C1218 H1188 0.950 . S
C1218 C1217 1.524 . S
C1218 C1219 1.415 . S
C1219 H1189 0.950 . S
C1219 C1214 1.363 . S
C1219 C1218 1.415 . S
H1220 C1217 0.999 . S
H1221 C1202 0.913 . S
H1222 C1240 0.951 . S
H1223 C1242 0.951 . S
H1224 C1244 0.950 . S
H1225 C1245 0.950 . S
H1226 C1247 0.950 . S
H1227 C1250 0.950 . S
H1228 C1251 0.950 . S
H1229 C1253 0.950 . S
H1230 C1254 0.950 . S
H1231 C1255 0.951 . S
H1232 C1257 0.951 . S
H1233 C1259 0.950 . S
H1234 C1260 0.950 . S
H1235 C1262 0.950 . S
H1236 C1265 0.950 . S
H1237 C1266 0.950 . S
H1238 C1268 0.950 . S
H1239 C1269 0.950 . S
C1240 H1222 0.951 . S
C1240 C1241 1.366 . S
C1240 C1242 1.388 . S
C1241 C1240 1.366 . S
C1241 C1245 1.385 . S
C1242 H1223 0.951 . S
C1242 C1240 1.388 . S
C1242 C1243 1.366 . S
C1243 C1242 1.366 . S
C1243 C1244 1.414 . S
C1243 C1246 1.499 . S
C1244 H1224 0.950 . S
C1244 C1243 1.414 . S
C1244 C1245 1.374 . S
C1245 H1225 0.950 . S
C1245 C1241 1.385 . S
C1245 C1244 1.374 . S
C1246 C1243 1.499 . S
C1246 C1247 1.373 . S
C1246 C1248 1.370 1_554 S
C1247 H1226 0.950 . S
C1247 C1246 1.373 . S
C1247 C1263 1.391 . S
C1248 C1246 1.370 1_556 S
C1248 C1249 1.530 . S
C1248 C1262 1.391 . S
C1249 C1248 1.530 . S
C1249 C1250 1.397 1_556 S
C1249 C1254 1.363 . S
C1250 H1227 0.950 . S
C1250 C1249 1.397 1_554 S
C1250 C1251 1.334 . S
C1251 H1228 0.950 . S
C1251 C1250 1.334 . S
C1251 C1252 1.287 1_554 S
C1252 C1251 1.287 1_556 S
C1252 C1253 1.524 . S
C1252 H1271 0.913 . S
C1253 H1229 0.950 . S
C1253 C1252 1.524 . S
C1253 C1254 1.415 . S
C1254 H1230 0.950 . S
C1254 C1249 1.363 . S
C1254 C1253 1.415 . S
C1255 H1231 0.951 . S
C1255 C1256 1.366 . S
C1255 C1257 1.388 . S
C1256 C1255 1.366 . S
C1256 C1260 1.385 . S
C1257 H1232 0.951 . S
C1257 C1255 1.388 . S
C1257 C1258 1.366 . S
C1258 C1257 1.366 . S
C1258 C1259 1.414 . S
C1258 C1261 1.499 . S
C1259 H1233 0.950 . S
C1259 C1258 1.414 . S
C1259 C1260 1.374 . S
C1260 H1234 0.950 . S
C1260 C1256 1.385 . S
C1260 C1259 1.374 . S
C1261 C1258 1.499 . S
C1261 C1262 1.373 . S
C1261 C1263 1.370 1_556 S
C1262 H1235 0.950 . S
C1262 C1248 1.391 . S
C1262 C1261 1.373 . S
C1263 C1247 1.391 . S
C1263 C1261 1.370 1_554 S
C1263 C1264 1.530 . S
C1264 C1263 1.530 . S
C1264 C1265 1.397 1_554 S
C1264 C1269 1.363 . S
C1265 H1236 0.950 . S
C1265 C1264 1.397 1_556 S
C1265 C1266 1.334 . S
C1266 H1237 0.950 . S
C1266 C1265 1.334 . S
C1266 C1267 1.287 1_556 S
C1267 C1266 1.287 1_554 S
C1267 C1268 1.524 . S
C1267 H1270 0.999 . S
C1268 H1238 0.950 . S
C1268 C1267 1.524 . S
C1268 C1269 1.415 . S
C1269 H1239 0.950 . S
C1269 C1264 1.363 . S
C1269 C1268 1.415 . S
H1270 C1267 0.999 . S
H1271 C1252 0.913 . S
C491 C33 1.525 . S
C506 C151 1.525 . S
C541 C210 1.525 . S
C556 C92 1.525 . S
C591 C387 1.525 . S
C606 C269 1.525 . S
C641 C328 1.526 . S
C656 C446 1.526 . S
C691 C359 1.727 . S
C706 C5 1.727 . S
C741 C64 1.727 . S
C756 C418 1.727 . S
C791 C123 1.727 . S
C806 C241 1.727 . S
C841 C182 1.727 . S
C856 C300 1.727 . S
C891 C357 1.566 . S
C906 C3 1.566 . S
C941 C62 1.565 . S
C956 C416 1.565 . S
C991 C239 1.566 . S
C1006 C121 1.566 . S
C1041 C298 1.565 . S
C1056 C180 1.565 . S
C1091 C111 0.464 . S
C1106 C52 0.463 . S
C1141 C170 0.463 . S
C1156 C229 0.465 . S
C1191 C347 0.463 . S
C1206 C288 0.464 . S
C1241 C406 0.463 . S
C1256 C465 0.465 . S
