# Generated by pormake.
# Topology ukc, (4)-cn, num edge types: 1
# Building blocks:
#     Node 0, Type 0, BuildingBlock: AZAVOO_clean_sbu_0, # of connection points: 4
#     Node 1, Type 0, BuildingBlock: AZAVOO_clean_sbu_0, # of connection points: 4
#     Node 2, Type 0, BuildingBlock: AZAVOO_clean_sbu_0, # of connection points: 4
#     Node 3, Type 0, BuildingBlock: AZAVOO_clean_sbu_0, # of connection points: 4
#     Node 4, Type 0, BuildingBlock: AZAVOO_clean_sbu_0, # of connection points: 4
#     Node 5, Type 0, BuildingBlock: AZAVOO_clean_sbu_0, # of connection points: 4
#     Node 6, Type 0, BuildingBlock: AZAVOO_clean_sbu_0, # of connection points: 4
#     Node 7, Type 0, BuildingBlock: AZAVOO_clean_sbu_0, # of connection points: 4
#     Node 8, Type 0, BuildingBlock: AZAVOO_clean_sbu_0, # of connection points: 4
#     Node 9, Type 0, BuildingBlock: AZAVOO_clean_sbu_0, # of connection points: 4
#     Node 10, Type 0, BuildingBlock: AZAVOO_clean_sbu_0, # of connection points: 4
#     Node 11, Type 0, BuildingBlock: AZAVOO_clean_sbu_0, # of connection points: 4
#     Node 12, Type 0, BuildingBlock: AZAVOO_clean_sbu_0, # of connection points: 4
#     Node 13, Type 0, BuildingBlock: AZAVOO_clean_sbu_0, # of connection points: 4
#     Node 14, Type 0, BuildingBlock: AZAVOO_clean_sbu_0, # of connection points: 4
#     Node 15, Type 0, BuildingBlock: AZAVOO_clean_sbu_0, # of connection points: 4
#     Node 16, Type 0, BuildingBlock: AZAVOO_clean_sbu_0, # of connection points: 4
#     Node 17, Type 0, BuildingBlock: AZAVOO_clean_sbu_0, # of connection points: 4
#     Node 18, Type 0, BuildingBlock: AZAVOO_clean_sbu_0, # of connection points: 4
#     Node 19, Type 0, BuildingBlock: AZAVOO_clean_sbu_0, # of connection points: 4
#     Node 20, Type 0, BuildingBlock: AZAVOO_clean_sbu_0, # of connection points: 4
#     Node 21, Type 0, BuildingBlock: AZAVOO_clean_sbu_0, # of connection points: 4
#     Node 22, Type 0, BuildingBlock: AZAVOO_clean_sbu_0, # of connection points: 4
#     Node 23, Type 0, BuildingBlock: AZAVOO_clean_sbu_0, # of connection points: 4
#     Node 24, Type 0, BuildingBlock: AZAVOO_clean_sbu_0, # of connection points: 4
#     Node 25, Type 0, BuildingBlock: AZAVOO_clean_sbu_0, # of connection points: 4
#     Node 26, Type 0, BuildingBlock: AZAVOO_clean_sbu_0, # of connection points: 4
#     Node 27, Type 0, BuildingBlock: AZAVOO_clean_sbu_0, # of connection points: 4
#     Node 28, Type 0, BuildingBlock: AZAVOO_clean_sbu_0, # of connection points: 4
#     Node 29, Type 0, BuildingBlock: AZAVOO_clean_sbu_0, # of connection points: 4
#     Node 30, Type 0, BuildingBlock: AZAVOO_clean_sbu_0, # of connection points: 4
#     Node 31, Type 0, BuildingBlock: AZAVOO_clean_sbu_0, # of connection points: 4
#     Edge 32, Type (0, 0), None
#     Edge 33, Type (0, 0), None
#     Edge 34, Type (0, 0), None
#     Edge 35, Type (0, 0), None
#     Edge 36, Type (0, 0), None
#     Edge 37, Type (0, 0), None
#     Edge 38, Type (0, 0), None
#     Edge 39, Type (0, 0), None
#     Edge 40, Type (0, 0), None
#     Edge 41, Type (0, 0), None
#     Edge 42, Type (0, 0), None
#     Edge 43, Type (0, 0), None
#     Edge 44, Type (0, 0), None
#     Edge 45, Type (0, 0), None
#     Edge 46, Type (0, 0), None
#     Edge 47, Type (0, 0), None
#     Edge 48, Type (0, 0), None
#     Edge 49, Type (0, 0), None
#     Edge 50, Type (0, 0), None
#     Edge 51, Type (0, 0), None
#     Edge 52, Type (0, 0), None
#     Edge 53, Type (0, 0), None
#     Edge 54, Type (0, 0), None
#     Edge 55, Type (0, 0), None
#     Edge 56, Type (0, 0), None
#     Edge 57, Type (0, 0), None
#     Edge 58, Type (0, 0), None
#     Edge 59, Type (0, 0), None
#     Edge 60, Type (0, 0), None
#     Edge 61, Type (0, 0), None
#     Edge 62, Type (0, 0), None
#     Edge 63, Type (0, 0), None
#     Edge 64, Type (0, 0), None
#     Edge 65, Type (0, 0), None
#     Edge 66, Type (0, 0), None
#     Edge 67, Type (0, 0), None
#     Edge 68, Type (0, 0), None
#     Edge 69, Type (0, 0), None
#     Edge 70, Type (0, 0), None
#     Edge 71, Type (0, 0), None
#     Edge 72, Type (0, 0), None
#     Edge 73, Type (0, 0), None
#     Edge 74, Type (0, 0), None
#     Edge 75, Type (0, 0), None
#     Edge 76, Type (0, 0), None
#     Edge 77, Type (0, 0), None
#     Edge 78, Type (0, 0), None
#     Edge 79, Type (0, 0), None
#     Edge 80, Type (0, 0), None
#     Edge 81, Type (0, 0), None
#     Edge 82, Type (0, 0), None
#     Edge 83, Type (0, 0), None
#     Edge 84, Type (0, 0), None
#     Edge 85, Type (0, 0), None
#     Edge 86, Type (0, 0), None
#     Edge 87, Type (0, 0), None
#     Edge 88, Type (0, 0), None
#     Edge 89, Type (0, 0), None
#     Edge 90, Type (0, 0), None
#     Edge 91, Type (0, 0), None
#     Edge 92, Type (0, 0), None
#     Edge 93, Type (0, 0), None
#     Edge 94, Type (0, 0), None
#     Edge 95, Type (0, 0), None
# Relax obj value: 0.060
# Max RMSD: 0.099
# Mean RMSD: 0.099
data_MOF--net-ukc--node1-AZAVOO_clean_sbu_0--edge1-none
_symmetry_space_group_name_H-M    P1
_symmetry_Int_Tables_number       1
_symmetry_cell_setting            triclinic
loop_
_symmetry_equiv_pos_as_xyz
'x, y, z'
_cell_length_a     19.746268
_cell_length_b     19.746941
_cell_length_c     40.786491
_cell_angle_alpha  90.000004
_cell_angle_beta   89.999989
_cell_angle_gamma 90.0
loop_
_atom_site_label
_atom_site_type_symbol
_atom_site_fract_x
_atom_site_fract_y
_atom_site_fract_z
_atom_type_partial_charge
Mg0 Mg 0.15124 0.42437 0.00695 0.0
O1 O 0.06244 0.35092 0.01024 0.0
O2 O 0.10528 0.25508 0.03136 0.0
Mg3 Mg 0.21209 0.2728 0.05203 0.0
C4 C 0.05684 0.28887 0.01856 0.0
C5 C 0.05342 0.51782 0.95179 0.0
O6 O 0.05515 0.54268 0.92194 0.0
O7 O 0.20342 0.35625 -0.02895 0.0
O8 O 0.25994 0.28017 0.00142 0.0
O9 O 0.12498 0.46836 0.05668 0.0
O10 O 0.19311 0.38183 0.04945 0.0
C11 C 0.24749 0.30958 -0.0257 0.0
C12 C 0.16308 0.42161 0.06921 0.0
O13 O 0.10463 0.48464 -0.03761 0.0
Mg14 Mg 0.87229 0.90121 0.25695 0.0
O15 O 0.94577 0.81244 0.26024 0.0
O16 O 0.0416 0.85528 0.28136 0.0
Mg17 Mg 0.02384 0.96209 0.30203 0.0
C18 C 1.00782 0.80685 0.26855 0.0
C19 C 0.77884 0.80339 0.2018 0.0
O20 O 0.75407 0.80506 0.17193 0.0
O21 O 0.94039 0.95343 0.22105 0.0
O22 O 1.01647 1.00995 0.25142 0.0
O23 O 0.8283 0.87492 0.30667 0.0
O24 O 0.91481 0.94308 0.29945 0.0
C25 C 0.98706 0.9975 0.2243 0.0
C26 C 0.87503 0.91303 0.31921 0.0
O27 O 0.81207 0.85457 0.21237 0.0
Mg28 Mg 0.39534 0.62222 0.50695 0.0
O29 O 0.48413 0.69567 0.51024 0.0
O30 O 0.4413 0.79151 0.53136 0.0
Mg31 Mg 0.33449 0.77379 0.55203 0.0
C32 C 0.48973 0.75772 0.51856 0.0
C33 C 0.49316 0.52878 0.45179 0.0
O34 O 0.49142 0.50391 0.42194 0.0
O35 O 0.34316 0.69035 0.47105 0.0
O36 O 0.28664 0.76643 0.50142 0.0
O37 O 0.4216 0.57823 0.55668 0.0
O38 O 0.35347 0.66476 0.54945 0.0
C39 C 0.29909 0.73701 0.4743 0.0
C40 C 0.3835 0.62498 0.56921 0.0
O41 O 0.44194 0.56195 0.46239 0.0
Mg42 Mg 0.67429 0.14538 0.75695 0.0
O43 O 0.60081 0.23415 0.76024 0.0
O44 O 0.50498 0.19131 0.78136 0.0
Mg45 Mg 0.52274 0.08451 0.80203 0.0
C46 C 0.53876 0.23974 0.76855 0.0
C47 C 0.76774 0.2432 0.7018 0.0
O48 O 0.79251 0.24153 0.67193 0.0
O49 O 0.60618 0.09316 0.72105 0.0
O50 O 0.5301 0.03665 0.75142 0.0
O51 O 0.71828 0.17167 0.80667 0.0
O52 O 0.63177 0.10351 0.79945 0.0
C53 C 0.55952 0.04909 0.7243 0.0
C54 C 0.67155 0.13356 0.81921 0.0
O55 O 0.73451 0.19202 0.71237 0.0
Mg56 Mg 0.15126 0.62225 0.4168 0.0
O57 O 0.06244 0.69566 0.41349 0.0
O58 O 0.10529 0.79153 0.39242 0.0
Mg59 Mg 0.21213 0.77386 0.37177 0.0
C60 C 0.05684 0.75772 0.40519 0.0
C61 C 0.05343 0.52875 0.47194 0.0
O62 O 0.05518 0.50384 0.50178 0.0
O63 O 0.20331 0.6904 0.45273 0.0
O64 O 0.25995 0.76645 0.42239 0.0
O65 O 0.12506 0.57826 0.36707 0.0
O66 O 0.19315 0.66482 0.37431 0.0
C67 C 0.24736 0.73708 0.4495 0.0
C68 C 0.16314 0.62503 0.35455 0.0
O69 O 0.10465 0.56192 0.46135 0.0
Mg70 Mg 0.67426 0.90123 0.66681 0.0
O71 O 0.60082 0.81244 0.6635 0.0
O72 O 0.50496 0.8553 0.64242 0.0
Mg73 Mg 0.52267 0.96213 0.62176 0.0
C74 C 0.53876 0.80685 0.6552 0.0
C75 C 0.76777 0.8034 0.72194 0.0
O76 O 0.79258 0.80509 0.7518 0.0
O77 O 0.60613 0.95331 0.70273 0.0
O78 O 0.53008 1.00995 0.67239 0.0
O79 O 0.71825 0.87501 0.61708 0.0
O80 O 0.63171 0.94312 0.62431 0.0
C81 C 0.55945 0.99737 0.6995 0.0
C82 C 0.67149 0.9131 0.60455 0.0
O83 O 0.73453 0.85459 0.71136 0.0
Mg84 Mg 0.39532 0.42434 0.9168 0.0
O85 O 0.48414 0.35093 0.91349 0.0
O86 O 0.44129 0.25506 0.89242 0.0
Mg87 Mg 0.33445 0.27274 0.87176 0.0
C88 C 0.48973 0.28887 0.90519 0.0
C89 C 0.49315 0.51784 -0.02806 0.0
O90 O 0.49139 0.54275 0.00178 0.0
O91 O 0.34327 0.35619 0.95273 0.0
O92 O 0.28663 0.28014 0.92239 0.0
O93 O 0.42151 0.46833 0.86707 0.0
O94 O 0.35343 0.38177 0.87431 0.0
C95 C 0.29922 0.30951 0.9495 0.0
C96 C 0.38343 0.42156 0.85455 0.0
O97 O 0.44193 0.48467 0.96135 0.0
Mg98 Mg 0.87231 0.14537 0.16681 0.0
O99 O 0.94576 0.23415 0.1635 0.0
O100 O 0.04162 0.19129 0.14242 0.0
Mg101 Mg 0.0239 0.08446 0.12176 0.0
C102 C 1.00782 0.23974 0.1552 0.0
C103 C 0.77881 0.2432 0.22194 0.0
O104 O 0.75399 0.2415 0.2518 0.0
O105 O 0.94045 0.09328 0.20273 0.0
O106 O 1.0165 0.03664 0.17239 0.0
O107 O 0.82833 0.17159 0.11708 0.0
O108 O 0.91487 0.10347 0.12431 0.0
C109 C 0.98713 0.04922 0.1995 0.0
C110 C 0.87508 0.1335 0.10455 0.0
O111 O 0.81204 0.19201 0.21136 0.0
Mg112 Mg 0.89534 0.62222 0.91678 0.0
O113 O 0.98413 0.69567 0.91349 0.0
O114 O 0.9413 0.79151 0.89238 0.0
Mg115 Mg 0.83449 0.77379 0.87171 0.0
C116 C 0.98973 0.75772 0.90518 0.0
C117 C 0.99316 0.52878 -0.02806 0.0
O118 O 0.99142 0.50391 0.00179 0.0
O119 O 0.84316 0.69035 0.95269 0.0
O120 O 0.78664 0.76643 0.92232 0.0
O121 O 0.9216 0.57823 0.86706 0.0
O122 O 0.85347 0.66476 0.87429 0.0
C123 C 0.79909 0.73701 0.94944 0.0
C124 C 0.8835 0.62498 0.85453 0.0
O125 O 0.94194 0.56195 0.96135 0.0
Mg126 Mg 0.17429 0.14539 0.66679 0.0
O127 O 0.10081 0.23415 0.6635 0.0
O128 O 1.00498 0.19131 0.64238 0.0
Mg129 Mg 1.02274 0.08451 0.62171 0.0
C130 C 0.03876 0.23974 0.65518 0.0
C131 C 0.26774 0.2432 0.72194 0.0
O132 O 0.29251 0.24153 0.75181 0.0
O133 O 0.10618 0.09316 0.70269 0.0
O134 O 0.0301 0.03665 0.67232 0.0
O135 O 0.21828 0.17167 0.61706 0.0
O136 O 0.13177 0.10351 0.62429 0.0
C137 C 0.05952 0.04909 0.69944 0.0
C138 C 0.17155 0.13356 0.60453 0.0
O139 O 0.23451 0.19202 0.71137 0.0
Mg140 Mg 0.65124 0.42437 0.41678 0.0
O141 O 0.56244 0.35092 0.41349 0.0
O142 O 0.60528 0.25508 0.39238 0.0
Mg143 Mg 0.71209 0.2728 0.37171 0.0
C144 C 0.55684 0.28887 0.40518 0.0
C145 C 0.55342 0.51781 0.47194 0.0
O146 O 0.55515 0.54268 0.50179 0.0
O147 O 0.70342 0.35625 0.45269 0.0
O148 O 0.75994 0.28017 0.42232 0.0
O149 O 0.62498 0.46836 0.36706 0.0
O150 O 0.69311 0.38183 0.37429 0.0
C151 C 0.74749 0.30958 0.44944 0.0
C152 C 0.66308 0.42161 0.35453 0.0
O153 O 0.60463 0.48464 0.46135 0.0
Mg154 Mg 0.37229 0.90121 0.16679 0.0
O155 O 0.44577 0.81244 0.1635 0.0
O156 O 0.5416 0.85528 0.14238 0.0
Mg157 Mg 0.52384 0.96209 0.12171 0.0
C158 C 0.50782 0.80685 0.15518 0.0
C159 C 0.27884 0.80339 0.22194 0.0
O160 O 0.25407 0.80506 0.25181 0.0
O161 O 0.44039 0.95343 0.20269 0.0
O162 O 0.51647 1.00995 0.17232 0.0
O163 O 0.3283 0.87492 0.11706 0.0
O164 O 0.41481 0.94308 0.12428 0.0
C165 C 0.48706 0.9975 0.19944 0.0
C166 C 0.37503 0.91303 0.10453 0.0
O167 O 0.31207 0.85457 0.21137 0.0
Mg168 Mg 0.89532 0.42434 0.50694 0.0
O169 O 0.98414 0.35093 0.51025 0.0
O170 O 0.94129 0.25506 0.53132 0.0
Mg171 Mg 0.83445 0.27274 0.55197 0.0
C172 C 0.98973 0.28887 0.51855 0.0
C173 C 0.99315 0.51784 0.4518 0.0
O174 O 0.9914 0.54275 0.42196 0.0
O175 O 0.84327 0.35619 0.47101 0.0
O176 O 0.78663 0.28014 0.50135 0.0
O177 O 0.92151 0.46833 0.55666 0.0
O178 O 0.85343 0.38177 0.54942 0.0
C179 C 0.79922 0.30951 0.47423 0.0
C180 C 0.88343 0.42156 0.56918 0.0
O181 O 0.94193 0.48467 0.46239 0.0
Mg182 Mg 0.37231 0.14537 0.25693 0.0
O183 O 0.44576 0.23415 0.26024 0.0
O184 O 0.54162 0.19129 0.28132 0.0
Mg185 Mg 0.5239 0.08446 0.30197 0.0
C186 C 0.50782 0.23974 0.26854 0.0
C187 C 0.27881 0.24319 0.2018 0.0
O188 O 0.254 0.2415 0.17194 0.0
O189 O 0.44045 0.09328 0.22101 0.0
O190 O 0.5165 0.03664 0.25135 0.0
O191 O 0.32833 0.17159 0.30666 0.0
O192 O 0.41487 0.10347 0.29942 0.0
C193 C 0.48713 0.04922 0.22423 0.0
C194 C 0.37508 0.1335 0.31918 0.0
O195 O 0.31204 0.19201 0.21237 0.0
Mg196 Mg 0.65126 0.62225 0.00694 0.0
O197 O 0.56244 0.69566 0.01025 0.0
O198 O 0.60529 0.79153 0.03132 0.0
Mg199 Mg 0.71213 0.77386 0.05197 0.0
C200 C 0.55684 0.75772 0.01855 0.0
C201 C 0.55343 0.52875 0.9518 0.0
O202 O 0.55518 0.50384 0.92196 0.0
O203 O 0.70331 0.6904 -0.02899 0.0
O204 O 0.75995 0.76645 0.00135 0.0
O205 O 0.62506 0.57826 0.05666 0.0
O206 O 0.69315 0.66482 0.04942 0.0
C207 C 0.74736 0.73708 -0.02577 0.0
C208 C 0.66314 0.62503 0.06918 0.0
O209 O 0.60465 0.56192 -0.03761 0.0
Mg210 Mg 0.17426 0.90123 0.75693 0.0
O211 O 0.10082 0.81244 0.76024 0.0
O212 O 1.00496 0.8553 0.78132 0.0
Mg213 Mg 1.02267 0.96213 0.80197 0.0
C214 C 0.03876 0.80685 0.76854 0.0
C215 C 0.26777 0.8034 0.7018 0.0
O216 O 0.29258 0.80509 0.67194 0.0
O217 O 0.10613 0.95331 0.72101 0.0
O218 O 0.03008 1.00995 0.75135 0.0
O219 O 0.21825 0.87501 0.80666 0.0
O220 O 0.13171 0.94312 0.79942 0.0
C221 C 0.05945 0.99737 0.72423 0.0
C222 C 0.17149 0.9131 0.81918 0.0
O223 O 0.23453 0.85459 0.71237 0.0
Mg224 Mg 0.65115 0.9242 0.5069 0.0
O225 O 0.5624 0.85071 0.51022 0.0
O226 O 0.60528 0.75491 0.53136 0.0
Mg227 Mg 0.71207 0.77273 0.55203 0.0
C228 C 0.55684 0.78866 0.51854 0.0
C229 C 0.55332 1.01761 0.45175 0.0
O230 O 0.55492 0.04225 0.42185 0.0
O231 O 0.70338 0.85605 0.47103 0.0
O232 O 0.75995 0.78006 0.50143 0.0
O233 O 0.62487 0.96824 0.55663 0.0
O234 O 0.69305 0.88175 0.54942 0.0
C235 C 0.74748 0.80942 0.4743 0.0
C236 C 0.663 0.92154 0.56916 0.0
O237 O 0.60447 0.98431 0.4623 0.0
Mg238 Mg 0.37231 0.40119 0.75691 0.0
O239 O 0.44577 0.31242 0.76023 0.0
O240 O 0.54159 0.35528 0.78135 0.0
Mg241 Mg 0.52382 0.46208 0.80203 0.0
C242 C 0.50783 0.30685 0.76854 0.0
C243 C 0.27889 0.30337 0.70175 0.0
O244 O 0.25413 0.30504 0.67188 0.0
O245 O 0.44047 0.45339 0.72103 0.0
O246 O 0.51648 0.50995 0.75143 0.0
O247 O 0.32826 0.37494 0.80663 0.0
O248 O 0.41479 0.44308 0.79942 0.0
C249 C 0.48711 0.49749 0.72429 0.0
C250 C 0.37499 0.41306 0.81917 0.0
O251 O 0.31212 0.35456 0.71232 0.0
Mg252 Mg 0.89543 0.12239 0.0069 0.0
O253 O 0.98417 0.19589 0.01022 0.0
O254 O 0.9413 0.29169 0.03136 0.0
Mg255 Mg 0.8345 0.27387 0.05203 0.0
C256 C 0.98974 0.25794 0.01854 0.0
C257 C 0.99326 0.02898 0.95175 0.0
O258 O 0.99166 1.00434 0.92185 0.0
O259 O 0.8432 0.19055 -0.02897 0.0
O260 O 0.78663 0.26654 0.00143 0.0
O261 O 0.92171 0.07835 0.05663 0.0
O262 O 0.85353 0.16484 0.04942 0.0
C263 C 0.79909 0.23717 -0.0257 0.0
C264 C 0.88358 0.12506 0.06916 0.0
O265 O 0.9421 0.06228 -0.0377 0.0
Mg266 Mg 0.17427 0.6454 0.25691 0.0
O267 O 0.1008 0.73417 0.26023 0.0
O268 O 1.00499 0.69131 0.28135 0.0
Mg269 Mg 1.02276 0.58452 0.30203 0.0
C270 C 0.03875 0.73975 0.26854 0.0
C271 C 0.26769 0.74322 0.20175 0.0
O272 O 0.29245 0.74155 0.17188 0.0
O273 O 0.10611 0.5932 0.22103 0.0
O274 O 0.0301 0.53665 0.25143 0.0
O275 O 0.21832 0.67165 0.30663 0.0
O276 O 0.13179 0.60351 0.29942 0.0
C277 C 0.05947 0.5491 0.22429 0.0
C278 C 0.17159 0.63353 0.31917 0.0
O279 O 0.23446 0.69203 0.21232 0.0
Mg280 Mg 0.65117 0.12242 0.91685 0.0
O281 O 0.5624 0.19588 0.91351 0.0
O282 O 0.6053 0.29171 0.89242 0.0
Mg283 Mg 0.71212 0.27393 0.87176 0.0
C284 C 0.55684 0.25794 0.90521 0.0
C285 C 0.55333 0.02895 -0.02801 0.0
O286 O 0.55494 1.00427 0.00187 0.0
O287 O 0.70327 0.1906 0.95275 0.0
O288 O 0.75995 0.26656 0.92238 0.0
O289 O 0.62495 0.07837 0.86713 0.0
O290 O 0.69309 0.1649 0.87435 0.0
C291 C 0.74736 0.23725 0.94951 0.0
C292 C 0.66306 0.12511 0.85459 0.0
O293 O 0.60449 0.06226 0.96143 0.0
Mg294 Mg 0.17424 0.40121 0.16684 0.0
O295 O 0.10081 0.31242 0.16351 0.0
O296 O 1.00497 0.3553 0.14242 0.0
Mg297 Mg 1.0227 0.46212 0.12176 0.0
C298 C 0.03875 0.30685 0.15521 0.0
C299 C 0.26772 0.30338 0.22198 0.0
O300 O 0.29252 0.30507 0.25185 0.0
O301 O 0.10605 0.45328 0.20275 0.0
O302 O 0.03008 0.50996 0.17238 0.0
O303 O 0.21829 0.37503 0.11712 0.0
O304 O 0.13173 0.44312 0.12435 0.0
C305 C 0.0594 0.49736 0.19951 0.0
C306 C 0.17154 0.41312 0.10459 0.0
O307 O 0.23449 0.35457 0.21141 0.0
Mg308 Mg 0.89541 0.92417 0.41685 0.0
O309 O 0.98418 0.85072 0.41351 0.0
O310 O 0.94128 0.75488 0.39242 0.0
Mg311 Mg 0.83446 0.77267 0.37176 0.0
C312 C 0.98974 0.78866 0.40521 0.0
C313 C 0.99325 1.01764 0.47199 0.0
O314 O 0.99163 0.04233 0.50187 0.0
O315 O 0.84331 0.85599 0.45275 0.0
O316 O 0.78662 0.78003 0.42238 0.0
O317 O 0.92162 0.96822 0.36713 0.0
O318 O 0.85349 0.88169 0.37435 0.0
C319 C 0.79922 0.80935 0.44951 0.0
C320 C 0.88351 0.92149 0.35459 0.0
O321 O 0.94209 0.98434 0.46143 0.0
Mg322 Mg 0.37233 0.64538 0.66684 0.0
O323 O 0.44576 0.73418 0.66351 0.0
O324 O 0.54161 0.6913 0.64242 0.0
Mg325 Mg 0.52388 0.58447 0.62176 0.0
C326 C 0.50783 0.73974 0.65521 0.0
C327 C 0.27886 0.74321 0.72198 0.0
O328 O 0.25405 0.74152 0.75185 0.0
O329 O 0.44053 0.59331 0.70275 0.0
O330 O 0.5165 0.53664 0.67238 0.0
O331 O 0.32829 0.67156 0.61712 0.0
O332 O 0.41485 0.60347 0.62435 0.0
C333 C 0.48718 0.54923 0.69951 0.0
C334 C 0.37504 0.63347 0.60459 0.0
O335 O 0.31209 0.69202 0.71141 0.0
Mg336 Mg 0.39543 0.12239 0.41683 0.0
O337 O 0.48417 0.19589 0.41351 0.0
O338 O 0.4413 0.29169 0.39238 0.0
Mg339 Mg 0.3345 0.27387 0.3717 0.0
C340 C 0.48974 0.25794 0.4052 0.0
C341 C 0.49326 0.02898 0.47199 0.0
O342 O 0.49166 1.00434 0.50189 0.0
O343 O 0.3432 0.19055 0.45271 0.0
O344 O 0.28663 0.26654 0.42231 0.0
O345 O 0.42171 0.07835 0.36711 0.0
O346 O 0.35353 0.16484 0.37432 0.0
C347 C 0.29909 0.23717 0.44944 0.0
C348 C 0.38358 0.12506 0.35457 0.0
O349 O 0.4421 0.06228 0.46143 0.0
Mg350 Mg 0.67427 0.6454 0.16683 0.0
O351 O 0.6008 0.73417 0.16351 0.0
O352 O 0.50499 0.69131 0.14238 0.0
Mg353 Mg 0.52276 0.58452 0.12171 0.0
C354 C 0.53875 0.73975 0.1552 0.0
C355 C 0.76769 0.74322 0.22199 0.0
O356 O 0.79245 0.74155 0.25186 0.0
O357 O 0.6061 0.5932 0.20271 0.0
O358 O 0.5301 0.53665 0.17231 0.0
O359 O 0.71832 0.67165 0.11711 0.0
O360 O 0.63179 0.60351 0.12432 0.0
C361 C 0.55947 0.5491 0.19944 0.0
C362 C 0.67159 0.63353 0.10457 0.0
O363 O 0.73446 0.69203 0.21141 0.0
Mg364 Mg 0.15115 0.9242 0.91683 0.0
O365 O 0.0624 0.8507 0.91351 0.0
O366 O 0.10528 0.7549 0.89238 0.0
Mg367 Mg 0.21207 0.77273 0.8717 0.0
C368 C 0.05684 0.78865 0.9052 0.0
C369 C 0.05332 1.01761 -0.02801 0.0
O370 O 0.05492 0.04225 0.00189 0.0
O371 O 0.20338 0.85605 0.95271 0.0
O372 O 0.25995 0.78006 0.92231 0.0
O373 O 0.12487 0.96824 0.86711 0.0
O374 O 0.19305 0.88175 0.87432 0.0
C375 C 0.24748 0.80942 0.94944 0.0
C376 C 0.163 0.92154 0.85457 0.0
O377 O 0.10447 0.98431 0.96143 0.0
Mg378 Mg 0.87231 0.40119 0.66683 0.0
O379 O 0.94577 0.31242 0.66351 0.0
O380 O 0.04159 0.35528 0.64238 0.0
Mg381 Mg 0.02381 0.46208 0.62171 0.0
C382 C 1.00783 0.30685 0.6552 0.0
C383 C 0.77889 0.30337 0.72199 0.0
O384 O 0.75412 0.30504 0.75186 0.0
O385 O 0.94047 0.45339 0.70271 0.0
O386 O 1.01648 0.50995 0.67231 0.0
O387 O 0.82826 0.37494 0.61711 0.0
O388 O 0.91479 0.44308 0.62432 0.0
C389 C 0.9871 0.49749 0.69944 0.0
C390 C 0.87499 0.41306 0.60457 0.0
O391 O 0.81212 0.35456 0.71141 0.0
Mg392 Mg 0.39541 0.92417 0.00689 0.0
O393 O 0.48418 0.85071 0.01023 0.0
O394 O 0.44128 0.75488 0.03132 0.0
Mg395 Mg 0.33446 0.77267 0.05198 0.0
C396 C 0.48974 0.78866 0.01853 0.0
C397 C 0.49325 1.01764 0.95175 0.0
O398 O 0.49163 0.04232 0.92187 0.0
O399 O 0.34331 0.85599 -0.02902 0.0
O400 O 0.28662 0.78003 0.00136 0.0
O401 O 0.42162 0.96822 0.05661 0.0
O402 O 0.35349 0.88169 0.04939 0.0
C403 C 0.29922 0.80935 -0.02577 0.0
C404 C 0.38351 0.92149 0.06914 0.0
O405 O 0.44209 0.98434 -0.03769 0.0
Mg406 Mg 0.87233 0.64538 0.75689 0.0
O407 O 0.94576 0.73418 0.76023 0.0
O408 O 0.04161 0.69129 0.78132 0.0
Mg409 Mg 0.02388 0.58447 0.80197 0.0
C410 C 1.00783 0.73974 0.76853 0.0
C411 C 0.77886 0.74321 0.70175 0.0
O412 O 0.75405 0.74152 0.67189 0.0
O413 O 0.94053 0.59331 0.72098 0.0
O414 O 1.0165 0.53664 0.75136 0.0
O415 O 0.82829 0.67156 0.80662 0.0
O416 O 0.91485 0.60347 0.79939 0.0
C417 C 0.98718 0.54923 0.72423 0.0
C418 C 0.87504 0.63347 0.81914 0.0
O419 O 0.81209 0.69202 0.71233 0.0
Mg420 Mg 0.15117 0.12242 0.50689 0.0
O421 O 0.0624 0.19588 0.51023 0.0
O422 O 0.1053 0.29171 0.53132 0.0
Mg423 Mg 0.21212 0.27393 0.55198 0.0
C424 C 0.05684 0.25794 0.51853 0.0
C425 C 0.05333 0.02895 0.45175 0.0
O426 O 0.05494 1.00427 0.42187 0.0
O427 O 0.20327 0.1906 0.47098 0.0
O428 O 0.25995 0.26656 0.50136 0.0
O429 O 0.12496 0.07837 0.55661 0.0
O430 O 0.19309 0.1649 0.54939 0.0
C431 C 0.24736 0.23725 0.47423 0.0
C432 C 0.16306 0.12511 0.56914 0.0
O433 O 0.10449 0.06225 0.46231 0.0
Mg434 Mg 0.67424 0.40121 0.25689 0.0
O435 O 0.60081 0.31242 0.26023 0.0
O436 O 0.50497 0.3553 0.28132 0.0
Mg437 Mg 0.5227 0.46212 0.30197 0.0
C438 C 0.53875 0.30685 0.26853 0.0
C439 C 0.76772 0.30338 0.20175 0.0
O440 O 0.79252 0.30507 0.17189 0.0
O441 O 0.60605 0.45328 0.22098 0.0
O442 O 0.53008 0.50996 0.25136 0.0
O443 O 0.71829 0.37503 0.30662 0.0
O444 O 0.63173 0.44312 0.29939 0.0
C445 C 0.5594 0.49736 0.22423 0.0
C446 C 0.67154 0.41312 0.31914 0.0
O447 O 0.73449 0.35457 0.21233 0.0
loop_
_geom_bond_atom_site_label_1
_geom_bond_atom_site_label_2
_geom_bond_distance
_geom_bond_site_symmetry_2
_ccdc_geom_bond_type
Mg0 O1 2.028 . S
Mg0 O7 1.986 . S
Mg0 O9 2.114 . S
Mg0 O10 2.251 . S
Mg0 O13 2.010 . S
O1 Mg0 2.028 . S
O1 C4 1.250 . S
O2 Mg3 2.028 . S
O2 C4 1.248 . S
Mg3 O2 2.028 . S
Mg3 O8 2.032 . S
Mg3 O10 2.079 . S
C4 O1 1.250 . S
C4 O2 1.248 . S
C5 O6 1.264 . S
C5 O13 1.249 . S
O6 C5 1.264 . S
O7 Mg0 1.986 . S
O7 C11 1.246 . S
O8 Mg3 2.032 . S
O8 C11 1.259 . S
O9 Mg0 2.114 . S
O9 C12 1.252 . S
O10 Mg0 2.251 . S
O10 Mg3 2.079 . S
O10 C12 1.273 . S
C11 O7 1.246 . S
C11 O8 1.259 . S
C12 O9 1.252 . S
C12 O10 1.273 . S
O13 Mg0 2.010 . S
O13 C5 1.249 . S
Mg14 O15 2.028 . S
Mg14 O21 1.986 . S
Mg14 O23 2.114 . S
Mg14 O24 2.251 . S
Mg14 O27 2.010 . S
O15 Mg14 2.028 . S
O15 C18 1.250 . S
O16 Mg17 2.028 . S
O16 C18 1.248 1_455 S
Mg17 O16 2.028 . S
Mg17 O22 2.032 1_455 S
Mg17 O24 2.079 1_455 S
C18 O15 1.250 . S
C18 O16 1.248 1_655 S
C19 O20 1.264 . S
C19 O27 1.249 . S
O20 C19 1.264 . S
O21 Mg14 1.986 . S
O21 C25 1.246 . S
O22 Mg17 2.032 1_655 S
O22 C25 1.259 . S
O23 Mg14 2.114 . S
O23 C26 1.252 . S
O24 Mg14 2.251 . S
O24 Mg17 2.079 1_655 S
O24 C26 1.273 . S
C25 O21 1.246 . S
C25 O22 1.259 . S
C26 O23 1.252 . S
C26 O24 1.273 . S
O27 Mg14 2.010 . S
O27 C19 1.249 . S
Mg28 O29 2.028 . S
Mg28 O35 1.986 . S
Mg28 O37 2.114 . S
Mg28 O38 2.251 . S
Mg28 O41 2.010 . S
O29 Mg28 2.028 . S
O29 C32 1.250 . S
O30 Mg31 2.028 . S
O30 C32 1.248 . S
Mg31 O30 2.028 . S
Mg31 O36 2.032 . S
Mg31 O38 2.079 . S
C32 O29 1.250 . S
C32 O30 1.248 . S
C33 O34 1.264 . S
C33 O41 1.249 . S
O34 C33 1.264 . S
O35 Mg28 1.986 . S
O35 C39 1.246 . S
O36 Mg31 2.032 . S
O36 C39 1.259 . S
O37 Mg28 2.114 . S
O37 C40 1.252 . S
O38 Mg28 2.251 . S
O38 Mg31 2.079 . S
O38 C40 1.273 . S
C39 O35 1.246 . S
C39 O36 1.259 . S
C40 O37 1.252 . S
C40 O38 1.273 . S
O41 Mg28 2.010 . S
O41 C33 1.249 . S
Mg42 O43 2.028 . S
Mg42 O49 1.986 . S
Mg42 O51 2.114 . S
Mg42 O52 2.251 . S
Mg42 O55 2.010 . S
O43 Mg42 2.028 . S
O43 C46 1.250 . S
O44 Mg45 2.028 . S
O44 C46 1.248 . S
Mg45 O44 2.028 . S
Mg45 O50 2.032 . S
Mg45 O52 2.079 . S
C46 O43 1.250 . S
C46 O44 1.248 . S
C47 O48 1.264 . S
C47 O55 1.249 . S
O48 C47 1.264 . S
O49 Mg42 1.986 . S
O49 C53 1.246 . S
O50 Mg45 2.032 . S
O50 C53 1.259 . S
O51 Mg42 2.114 . S
O51 C54 1.252 . S
O52 Mg42 2.251 . S
O52 Mg45 2.079 . S
O52 C54 1.273 . S
C53 O49 1.246 . S
C53 O50 1.259 . S
C54 O51 1.252 . S
C54 O52 1.273 . S
O55 Mg42 2.010 . S
O55 C47 1.249 . S
Mg56 O57 2.028 . S
Mg56 O63 1.986 . S
Mg56 O65 2.114 . S
Mg56 O66 2.251 . S
Mg56 O69 2.010 . S
O57 Mg56 2.028 . S
O57 C60 1.250 . S
O58 Mg59 2.028 . S
O58 C60 1.248 . S
Mg59 O58 2.028 . S
Mg59 O64 2.032 . S
Mg59 O66 2.079 . S
C60 O57 1.250 . S
C60 O58 1.248 . S
C61 O62 1.264 . S
C61 O69 1.249 . S
O62 C61 1.264 . S
O63 Mg56 1.986 . S
O63 C67 1.246 . S
O64 Mg59 2.032 . S
O64 C67 1.259 . S
O65 Mg56 2.114 . S
O65 C68 1.252 . S
O66 Mg56 2.251 . S
O66 Mg59 2.079 . S
O66 C68 1.273 . S
C67 O63 1.246 . S
C67 O64 1.259 . S
C68 O65 1.252 . S
C68 O66 1.273 . S
O69 Mg56 2.010 . S
O69 C61 1.249 . S
Mg70 O71 2.028 . S
Mg70 O77 1.986 . S
Mg70 O79 2.114 . S
Mg70 O80 2.251 . S
Mg70 O83 2.010 . S
O71 Mg70 2.028 . S
O71 C74 1.250 . S
O72 Mg73 2.028 . S
O72 C74 1.248 . S
Mg73 O72 2.028 . S
Mg73 O78 2.032 . S
Mg73 O80 2.079 . S
C74 O71 1.250 . S
C74 O72 1.248 . S
C75 O76 1.264 . S
C75 O83 1.249 . S
O76 C75 1.264 . S
O77 Mg70 1.986 . S
O77 C81 1.246 . S
O78 Mg73 2.032 . S
O78 C81 1.259 . S
O79 Mg70 2.114 . S
O79 C82 1.252 . S
O80 Mg70 2.251 . S
O80 Mg73 2.079 . S
O80 C82 1.273 . S
C81 O77 1.246 . S
C81 O78 1.259 . S
C82 O79 1.252 . S
C82 O80 1.273 . S
O83 Mg70 2.010 . S
O83 C75 1.249 . S
Mg84 O85 2.028 . S
Mg84 O91 1.986 . S
Mg84 O93 2.114 . S
Mg84 O94 2.251 . S
Mg84 O97 2.010 . S
O85 Mg84 2.028 . S
O85 C88 1.250 . S
O86 Mg87 2.028 . S
O86 C88 1.248 . S
Mg87 O86 2.028 . S
Mg87 O92 2.032 . S
Mg87 O94 2.079 . S
C88 O85 1.250 . S
C88 O86 1.248 . S
C89 O90 1.264 . S
C89 O97 1.249 . S
O90 C89 1.264 . S
O91 Mg84 1.986 . S
O91 C95 1.246 . S
O92 Mg87 2.032 . S
O92 C95 1.259 . S
O93 Mg84 2.114 . S
O93 C96 1.252 . S
O94 Mg84 2.251 . S
O94 Mg87 2.079 . S
O94 C96 1.273 . S
C95 O91 1.246 . S
C95 O92 1.259 . S
C96 O93 1.252 . S
C96 O94 1.273 . S
O97 Mg84 2.010 . S
O97 C89 1.249 . S
Mg98 O99 2.028 . S
Mg98 O105 1.986 . S
Mg98 O107 2.114 . S
Mg98 O108 2.251 . S
Mg98 O111 2.010 . S
O99 Mg98 2.028 . S
O99 C102 1.250 . S
O100 Mg101 2.028 . S
O100 C102 1.248 1_455 S
Mg101 O100 2.028 . S
Mg101 O106 2.032 1_455 S
Mg101 O108 2.079 1_455 S
C102 O99 1.250 . S
C102 O100 1.248 1_655 S
C103 O104 1.264 . S
C103 O111 1.249 . S
O104 C103 1.264 . S
O105 Mg98 1.986 . S
O105 C109 1.246 . S
O106 Mg101 2.032 1_655 S
O106 C109 1.259 . S
O107 Mg98 2.114 . S
O107 C110 1.252 . S
O108 Mg98 2.251 . S
O108 Mg101 2.079 1_655 S
O108 C110 1.273 . S
C109 O105 1.246 . S
C109 O106 1.259 . S
C110 O107 1.252 . S
C110 O108 1.273 . S
O111 Mg98 2.010 . S
O111 C103 1.249 . S
Mg112 O113 2.028 . S
Mg112 O119 1.986 . S
Mg112 O121 2.114 . S
Mg112 O122 2.251 . S
Mg112 O125 2.010 . S
O113 Mg112 2.028 . S
O113 C116 1.250 . S
O114 Mg115 2.028 . S
O114 C116 1.248 . S
Mg115 O114 2.028 . S
Mg115 O120 2.032 . S
Mg115 O122 2.079 . S
C116 O113 1.250 . S
C116 O114 1.248 . S
C117 O118 1.264 . S
C117 O125 1.249 . S
O118 C117 1.264 . S
O119 Mg112 1.986 . S
O119 C123 1.246 . S
O120 Mg115 2.032 . S
O120 C123 1.259 . S
O121 Mg112 2.114 . S
O121 C124 1.252 . S
O122 Mg112 2.251 . S
O122 Mg115 2.079 . S
O122 C124 1.273 . S
C123 O119 1.246 . S
C123 O120 1.259 . S
C124 O121 1.252 . S
C124 O122 1.273 . S
O125 Mg112 2.010 . S
O125 C117 1.249 . S
Mg126 O127 2.028 . S
Mg126 O133 1.986 . S
Mg126 O135 2.114 . S
Mg126 O136 2.251 . S
Mg126 O139 2.010 . S
O127 Mg126 2.028 . S
O127 C130 1.250 . S
O128 Mg129 2.028 . S
O128 C130 1.248 1_655 S
Mg129 O128 2.028 . S
Mg129 O134 2.032 1_655 S
Mg129 O136 2.079 1_655 S
C130 O127 1.250 . S
C130 O128 1.248 1_455 S
C131 O132 1.264 . S
C131 O139 1.249 . S
O132 C131 1.264 . S
O133 Mg126 1.986 . S
O133 C137 1.246 . S
O134 Mg129 2.032 1_455 S
O134 C137 1.259 . S
O135 Mg126 2.114 . S
O135 C138 1.252 . S
O136 Mg126 2.251 . S
O136 Mg129 2.079 1_455 S
O136 C138 1.273 . S
C137 O133 1.246 . S
C137 O134 1.259 . S
C138 O135 1.252 . S
C138 O136 1.273 . S
O139 Mg126 2.010 . S
O139 C131 1.249 . S
Mg140 O141 2.028 . S
Mg140 O147 1.986 . S
Mg140 O149 2.114 . S
Mg140 O150 2.251 . S
Mg140 O153 2.010 . S
O141 Mg140 2.028 . S
O141 C144 1.250 . S
O142 Mg143 2.028 . S
O142 C144 1.248 . S
Mg143 O142 2.028 . S
Mg143 O148 2.032 . S
Mg143 O150 2.079 . S
C144 O141 1.250 . S
C144 O142 1.248 . S
C145 O146 1.264 . S
C145 O153 1.249 . S
O146 C145 1.264 . S
O147 Mg140 1.986 . S
O147 C151 1.246 . S
O148 Mg143 2.032 . S
O148 C151 1.259 . S
O149 Mg140 2.114 . S
O149 C152 1.252 . S
O150 Mg140 2.251 . S
O150 Mg143 2.079 . S
O150 C152 1.273 . S
C151 O147 1.246 . S
C151 O148 1.259 . S
C152 O149 1.252 . S
C152 O150 1.273 . S
O153 Mg140 2.010 . S
O153 C145 1.249 . S
Mg154 O155 2.028 . S
Mg154 O161 1.986 . S
Mg154 O163 2.114 . S
Mg154 O164 2.251 . S
Mg154 O167 2.010 . S
O155 Mg154 2.028 . S
O155 C158 1.250 . S
O156 Mg157 2.028 . S
O156 C158 1.248 . S
Mg157 O156 2.028 . S
Mg157 O162 2.032 . S
Mg157 O164 2.079 . S
C158 O155 1.250 . S
C158 O156 1.248 . S
C159 O160 1.264 . S
C159 O167 1.249 . S
O160 C159 1.264 . S
O161 Mg154 1.986 . S
O161 C165 1.246 . S
O162 Mg157 2.032 . S
O162 C165 1.259 . S
O163 Mg154 2.114 . S
O163 C166 1.252 . S
O164 Mg154 2.251 . S
O164 Mg157 2.079 . S
O164 C166 1.273 . S
C165 O161 1.246 . S
C165 O162 1.259 . S
C166 O163 1.252 . S
C166 O164 1.273 . S
O167 Mg154 2.010 . S
O167 C159 1.249 . S
Mg168 O169 2.028 . S
Mg168 O175 1.986 . S
Mg168 O177 2.114 . S
Mg168 O178 2.251 . S
Mg168 O181 2.010 . S
O169 Mg168 2.028 . S
O169 C172 1.250 . S
O170 Mg171 2.028 . S
O170 C172 1.248 . S
Mg171 O170 2.028 . S
Mg171 O176 2.032 . S
Mg171 O178 2.079 . S
C172 O169 1.250 . S
C172 O170 1.248 . S
C173 O174 1.264 . S
C173 O181 1.249 . S
O174 C173 1.264 . S
O175 Mg168 1.986 . S
O175 C179 1.246 . S
O176 Mg171 2.032 . S
O176 C179 1.259 . S
O177 Mg168 2.114 . S
O177 C180 1.252 . S
O178 Mg168 2.251 . S
O178 Mg171 2.079 . S
O178 C180 1.273 . S
C179 O175 1.246 . S
C179 O176 1.259 . S
C180 O177 1.252 . S
C180 O178 1.273 . S
O181 Mg168 2.010 . S
O181 C173 1.249 . S
Mg182 O183 2.028 . S
Mg182 O189 1.986 . S
Mg182 O191 2.114 . S
Mg182 O192 2.251 . S
Mg182 O195 2.010 . S
O183 Mg182 2.028 . S
O183 C186 1.250 . S
O184 Mg185 2.028 . S
O184 C186 1.248 . S
Mg185 O184 2.028 . S
Mg185 O190 2.032 . S
Mg185 O192 2.079 . S
C186 O183 1.250 . S
C186 O184 1.248 . S
C187 O188 1.264 . S
C187 O195 1.249 . S
O188 C187 1.264 . S
O189 Mg182 1.986 . S
O189 C193 1.246 . S
O190 Mg185 2.032 . S
O190 C193 1.259 . S
O191 Mg182 2.114 . S
O191 C194 1.252 . S
O192 Mg182 2.251 . S
O192 Mg185 2.079 . S
O192 C194 1.273 . S
C193 O189 1.246 . S
C193 O190 1.259 . S
C194 O191 1.252 . S
C194 O192 1.273 . S
O195 Mg182 2.010 . S
O195 C187 1.249 . S
Mg196 O197 2.028 . S
Mg196 O203 1.986 . S
Mg196 O205 2.114 . S
Mg196 O206 2.251 . S
Mg196 O209 2.010 . S
O197 Mg196 2.028 . S
O197 C200 1.250 . S
O198 Mg199 2.028 . S
O198 C200 1.248 . S
Mg199 O198 2.028 . S
Mg199 O204 2.032 . S
Mg199 O206 2.079 . S
C200 O197 1.250 . S
C200 O198 1.248 . S
C201 O202 1.264 . S
C201 O209 1.249 . S
O202 C201 1.264 . S
O203 Mg196 1.986 . S
O203 C207 1.246 . S
O204 Mg199 2.032 . S
O204 C207 1.259 . S
O205 Mg196 2.114 . S
O205 C208 1.252 . S
O206 Mg196 2.251 . S
O206 Mg199 2.079 . S
O206 C208 1.273 . S
C207 O203 1.246 . S
C207 O204 1.259 . S
C208 O205 1.252 . S
C208 O206 1.273 . S
O209 Mg196 2.010 . S
O209 C201 1.249 . S
Mg210 O211 2.028 . S
Mg210 O217 1.986 . S
Mg210 O219 2.114 . S
Mg210 O220 2.251 . S
Mg210 O223 2.010 . S
O211 Mg210 2.028 . S
O211 C214 1.250 . S
O212 Mg213 2.028 . S
O212 C214 1.248 1_655 S
Mg213 O212 2.028 . S
Mg213 O218 2.032 1_655 S
Mg213 O220 2.079 1_655 S
C214 O211 1.250 . S
C214 O212 1.248 1_455 S
C215 O216 1.264 . S
C215 O223 1.249 . S
O216 C215 1.264 . S
O217 Mg210 1.986 . S
O217 C221 1.246 . S
O218 Mg213 2.032 1_455 S
O218 C221 1.259 . S
O219 Mg210 2.114 . S
O219 C222 1.252 . S
O220 Mg210 2.251 . S
O220 Mg213 2.079 1_455 S
O220 C222 1.273 . S
C221 O217 1.246 . S
C221 O218 1.259 . S
C222 O219 1.252 . S
C222 O220 1.273 . S
O223 Mg210 2.010 . S
O223 C215 1.249 . S
Mg224 O225 2.028 . S
Mg224 O231 1.986 . S
Mg224 O233 2.114 . S
Mg224 O234 2.251 . S
Mg224 O237 2.010 . S
O225 Mg224 2.028 . S
O225 C228 1.250 . S
O226 Mg227 2.028 . S
O226 C228 1.248 . S
Mg227 O226 2.028 . S
Mg227 O232 2.032 . S
Mg227 O234 2.079 . S
C228 O225 1.250 . S
C228 O226 1.248 . S
C229 O230 1.264 . S
C229 O237 1.249 1_545 S
O230 C229 1.264 . S
O231 Mg224 1.986 . S
O231 C235 1.246 . S
O232 Mg227 2.032 . S
O232 C235 1.259 . S
O233 Mg224 2.114 . S
O233 C236 1.252 . S
O234 Mg224 2.251 . S
O234 Mg227 2.079 . S
O234 C236 1.273 . S
C235 O231 1.246 . S
C235 O232 1.259 . S
C236 O233 1.252 . S
C236 O234 1.273 . S
O237 Mg224 2.010 . S
O237 C229 1.249 1_565 S
Mg238 O239 2.028 . S
Mg238 O245 1.986 . S
Mg238 O247 2.114 . S
Mg238 O248 2.251 . S
Mg238 O251 2.010 . S
O239 Mg238 2.028 . S
O239 C242 1.250 . S
O240 Mg241 2.028 . S
O240 C242 1.248 . S
Mg241 O240 2.028 . S
Mg241 O246 2.032 . S
Mg241 O248 2.079 . S
C242 O239 1.250 . S
C242 O240 1.248 . S
C243 O244 1.264 . S
C243 O251 1.249 . S
O244 C243 1.264 . S
O245 Mg238 1.986 . S
O245 C249 1.246 . S
O246 Mg241 2.032 . S
O246 C249 1.259 . S
O247 Mg238 2.114 . S
O247 C250 1.252 . S
O248 Mg238 2.251 . S
O248 Mg241 2.079 . S
O248 C250 1.273 . S
C249 O245 1.246 . S
C249 O246 1.259 . S
C250 O247 1.252 . S
C250 O248 1.273 . S
O251 Mg238 2.010 . S
O251 C243 1.249 . S
Mg252 O253 2.028 . S
Mg252 O259 1.986 . S
Mg252 O261 2.114 . S
Mg252 O262 2.251 . S
Mg252 O265 2.010 . S
O253 Mg252 2.028 . S
O253 C256 1.250 . S
O254 Mg255 2.028 . S
O254 C256 1.248 . S
Mg255 O254 2.028 . S
Mg255 O260 2.032 . S
Mg255 O262 2.079 . S
C256 O253 1.250 . S
C256 O254 1.248 . S
C257 O258 1.264 . S
C257 O265 1.249 1_565 S
O258 C257 1.264 . S
O259 Mg252 1.986 . S
O259 C263 1.246 . S
O260 Mg255 2.032 . S
O260 C263 1.259 . S
O261 Mg252 2.114 . S
O261 C264 1.252 . S
O262 Mg252 2.251 . S
O262 Mg255 2.079 . S
O262 C264 1.273 . S
C263 O259 1.246 . S
C263 O260 1.259 . S
C264 O261 1.252 . S
C264 O262 1.273 . S
O265 Mg252 2.010 . S
O265 C257 1.249 1_545 S
Mg266 O267 2.028 . S
Mg266 O273 1.986 . S
Mg266 O275 2.114 . S
Mg266 O276 2.251 . S
Mg266 O279 2.010 . S
O267 Mg266 2.028 . S
O267 C270 1.250 . S
O268 Mg269 2.028 . S
O268 C270 1.248 1_655 S
Mg269 O268 2.028 . S
Mg269 O274 2.032 1_655 S
Mg269 O276 2.079 1_655 S
C270 O267 1.250 . S
C270 O268 1.248 1_455 S
C271 O272 1.264 . S
C271 O279 1.249 . S
O272 C271 1.264 . S
O273 Mg266 1.986 . S
O273 C277 1.246 . S
O274 Mg269 2.032 1_455 S
O274 C277 1.259 . S
O275 Mg266 2.114 . S
O275 C278 1.252 . S
O276 Mg266 2.251 . S
O276 Mg269 2.079 1_455 S
O276 C278 1.273 . S
C277 O273 1.246 . S
C277 O274 1.259 . S
C278 O275 1.252 . S
C278 O276 1.273 . S
O279 Mg266 2.010 . S
O279 C271 1.249 . S
Mg280 O281 2.028 . S
Mg280 O287 1.986 . S
Mg280 O289 2.114 . S
Mg280 O290 2.251 . S
Mg280 O293 2.010 . S
O281 Mg280 2.028 . S
O281 C284 1.250 . S
O282 Mg283 2.028 . S
O282 C284 1.248 . S
Mg283 O282 2.028 . S
Mg283 O288 2.032 . S
Mg283 O290 2.079 . S
C284 O281 1.250 . S
C284 O282 1.248 . S
C285 O286 1.264 . S
C285 O293 1.249 1_565 S
O286 C285 1.264 . S
O287 Mg280 1.986 . S
O287 C291 1.246 . S
O288 Mg283 2.032 . S
O288 C291 1.259 . S
O289 Mg280 2.114 . S
O289 C292 1.252 . S
O290 Mg280 2.251 . S
O290 Mg283 2.079 . S
O290 C292 1.273 . S
C291 O287 1.246 . S
C291 O288 1.259 . S
C292 O289 1.252 . S
C292 O290 1.273 . S
O293 Mg280 2.010 . S
O293 C285 1.249 1_545 S
Mg294 O295 2.028 . S
Mg294 O301 1.986 . S
Mg294 O303 2.114 . S
Mg294 O304 2.251 . S
Mg294 O307 2.010 . S
O295 Mg294 2.028 . S
O295 C298 1.250 . S
O296 Mg297 2.028 . S
O296 C298 1.248 1_655 S
Mg297 O296 2.028 . S
Mg297 O302 2.032 1_655 S
Mg297 O304 2.079 1_655 S
C298 O295 1.250 . S
C298 O296 1.248 1_455 S
C299 O300 1.264 . S
C299 O307 1.249 . S
O300 C299 1.264 . S
O301 Mg294 1.986 . S
O301 C305 1.246 . S
O302 Mg297 2.032 1_455 S
O302 C305 1.259 . S
O303 Mg294 2.114 . S
O303 C306 1.252 . S
O304 Mg294 2.251 . S
O304 Mg297 2.079 1_455 S
O304 C306 1.273 . S
C305 O301 1.246 . S
C305 O302 1.259 . S
C306 O303 1.252 . S
C306 O304 1.273 . S
O307 Mg294 2.010 . S
O307 C299 1.249 . S
Mg308 O309 2.028 . S
Mg308 O315 1.986 . S
Mg308 O317 2.114 . S
Mg308 O318 2.251 . S
Mg308 O321 2.010 . S
O309 Mg308 2.028 . S
O309 C312 1.250 . S
O310 Mg311 2.028 . S
O310 C312 1.248 . S
Mg311 O310 2.028 . S
Mg311 O316 2.032 . S
Mg311 O318 2.079 . S
C312 O309 1.250 . S
C312 O310 1.248 . S
C313 O314 1.264 . S
C313 O321 1.249 1_545 S
O314 C313 1.264 . S
O315 Mg308 1.986 . S
O315 C319 1.246 . S
O316 Mg311 2.032 . S
O316 C319 1.259 . S
O317 Mg308 2.114 . S
O317 C320 1.252 . S
O318 Mg308 2.251 . S
O318 Mg311 2.079 . S
O318 C320 1.273 . S
C319 O315 1.246 . S
C319 O316 1.259 . S
C320 O317 1.252 . S
C320 O318 1.273 . S
O321 Mg308 2.010 . S
O321 C313 1.249 1_565 S
Mg322 O323 2.028 . S
Mg322 O329 1.986 . S
Mg322 O331 2.114 . S
Mg322 O332 2.251 . S
Mg322 O335 2.010 . S
O323 Mg322 2.028 . S
O323 C326 1.250 . S
O324 Mg325 2.028 . S
O324 C326 1.248 . S
Mg325 O324 2.028 . S
Mg325 O330 2.032 . S
Mg325 O332 2.079 . S
C326 O323 1.250 . S
C326 O324 1.248 . S
C327 O328 1.264 . S
C327 O335 1.249 . S
O328 C327 1.264 . S
O329 Mg322 1.986 . S
O329 C333 1.246 . S
O330 Mg325 2.032 . S
O330 C333 1.259 . S
O331 Mg322 2.114 . S
O331 C334 1.252 . S
O332 Mg322 2.251 . S
O332 Mg325 2.079 . S
O332 C334 1.273 . S
C333 O329 1.246 . S
C333 O330 1.259 . S
C334 O331 1.252 . S
C334 O332 1.273 . S
O335 Mg322 2.010 . S
O335 C327 1.249 . S
Mg336 O337 2.028 . S
Mg336 O343 1.986 . S
Mg336 O345 2.114 . S
Mg336 O346 2.251 . S
Mg336 O349 2.010 . S
O337 Mg336 2.028 . S
O337 C340 1.250 . S
O338 Mg339 2.028 . S
O338 C340 1.248 . S
Mg339 O338 2.028 . S
Mg339 O344 2.032 . S
Mg339 O346 2.079 . S
C340 O337 1.250 . S
C340 O338 1.248 . S
C341 O342 1.264 . S
C341 O349 1.249 1_565 S
O342 C341 1.264 . S
O343 Mg336 1.986 . S
O343 C347 1.246 . S
O344 Mg339 2.032 . S
O344 C347 1.259 . S
O345 Mg336 2.114 . S
O345 C348 1.252 . S
O346 Mg336 2.251 . S
O346 Mg339 2.079 . S
O346 C348 1.273 . S
C347 O343 1.246 . S
C347 O344 1.259 . S
C348 O345 1.252 . S
C348 O346 1.273 . S
O349 Mg336 2.010 . S
O349 C341 1.249 1_545 S
Mg350 O351 2.028 . S
Mg350 O357 1.986 . S
Mg350 O359 2.114 . S
Mg350 O360 2.251 . S
Mg350 O363 2.010 . S
O351 Mg350 2.028 . S
O351 C354 1.250 . S
O352 Mg353 2.028 . S
O352 C354 1.248 . S
Mg353 O352 2.028 . S
Mg353 O358 2.032 . S
Mg353 O360 2.079 . S
C354 O351 1.250 . S
C354 O352 1.248 . S
C355 O356 1.264 . S
C355 O363 1.249 . S
O356 C355 1.264 . S
O357 Mg350 1.986 . S
O357 C361 1.246 . S
O358 Mg353 2.032 . S
O358 C361 1.259 . S
O359 Mg350 2.114 . S
O359 C362 1.252 . S
O360 Mg350 2.251 . S
O360 Mg353 2.079 . S
O360 C362 1.273 . S
C361 O357 1.246 . S
C361 O358 1.259 . S
C362 O359 1.252 . S
C362 O360 1.273 . S
O363 Mg350 2.010 . S
O363 C355 1.249 . S
Mg364 O365 2.028 . S
Mg364 O371 1.986 . S
Mg364 O373 2.114 . S
Mg364 O374 2.251 . S
Mg364 O377 2.010 . S
O365 Mg364 2.028 . S
O365 C368 1.250 . S
O366 Mg367 2.028 . S
O366 C368 1.248 . S
Mg367 O366 2.028 . S
Mg367 O372 2.032 . S
Mg367 O374 2.079 . S
C368 O365 1.250 . S
C368 O366 1.248 . S
C369 O370 1.264 . S
C369 O377 1.249 1_545 S
O370 C369 1.264 . S
O371 Mg364 1.986 . S
O371 C375 1.246 . S
O372 Mg367 2.032 . S
O372 C375 1.259 . S
O373 Mg364 2.114 . S
O373 C376 1.252 . S
O374 Mg364 2.251 . S
O374 Mg367 2.079 . S
O374 C376 1.273 . S
C375 O371 1.246 . S
C375 O372 1.259 . S
C376 O373 1.252 . S
C376 O374 1.273 . S
O377 Mg364 2.010 . S
O377 C369 1.249 1_565 S
Mg378 O379 2.028 . S
Mg378 O385 1.986 . S
Mg378 O387 2.114 . S
Mg378 O388 2.251 . S
Mg378 O391 2.010 . S
O379 Mg378 2.028 . S
O379 C382 1.250 . S
O380 Mg381 2.028 . S
O380 C382 1.248 1_455 S
Mg381 O380 2.028 . S
Mg381 O386 2.032 1_455 S
Mg381 O388 2.079 1_455 S
C382 O379 1.250 . S
C382 O380 1.248 1_655 S
C383 O384 1.264 . S
C383 O391 1.249 . S
O384 C383 1.264 . S
O385 Mg378 1.986 . S
O385 C389 1.246 . S
O386 Mg381 2.032 1_655 S
O386 C389 1.259 . S
O387 Mg378 2.114 . S
O387 C390 1.252 . S
O388 Mg378 2.251 . S
O388 Mg381 2.079 1_655 S
O388 C390 1.273 . S
C389 O385 1.246 . S
C389 O386 1.259 . S
C390 O387 1.252 . S
C390 O388 1.273 . S
O391 Mg378 2.010 . S
O391 C383 1.249 . S
Mg392 O393 2.028 . S
Mg392 O399 1.986 . S
Mg392 O401 2.114 . S
Mg392 O402 2.251 . S
Mg392 O405 2.010 . S
O393 Mg392 2.028 . S
O393 C396 1.250 . S
O394 Mg395 2.028 . S
O394 C396 1.248 . S
Mg395 O394 2.028 . S
Mg395 O400 2.032 . S
Mg395 O402 2.079 . S
C396 O393 1.250 . S
C396 O394 1.248 . S
C397 O398 1.264 . S
C397 O405 1.249 1_545 S
O398 C397 1.264 . S
O399 Mg392 1.986 . S
O399 C403 1.246 . S
O400 Mg395 2.032 . S
O400 C403 1.259 . S
O401 Mg392 2.114 . S
O401 C404 1.252 . S
O402 Mg392 2.251 . S
O402 Mg395 2.079 . S
O402 C404 1.273 . S
C403 O399 1.246 . S
C403 O400 1.259 . S
C404 O401 1.252 . S
C404 O402 1.273 . S
O405 Mg392 2.010 . S
O405 C397 1.249 1_565 S
Mg406 O407 2.028 . S
Mg406 O413 1.986 . S
Mg406 O415 2.114 . S
Mg406 O416 2.251 . S
Mg406 O419 2.010 . S
O407 Mg406 2.028 . S
O407 C410 1.250 . S
O408 Mg409 2.028 . S
O408 C410 1.248 1_455 S
Mg409 O408 2.028 . S
Mg409 O414 2.032 1_455 S
Mg409 O416 2.079 1_455 S
C410 O407 1.250 . S
C410 O408 1.248 1_655 S
C411 O412 1.264 . S
C411 O419 1.249 . S
O412 C411 1.264 . S
O413 Mg406 1.986 . S
O413 C417 1.246 . S
O414 Mg409 2.032 1_655 S
O414 C417 1.259 . S
O415 Mg406 2.114 . S
O415 C418 1.252 . S
O416 Mg406 2.251 . S
O416 Mg409 2.079 1_655 S
O416 C418 1.273 . S
C417 O413 1.246 . S
C417 O414 1.259 . S
C418 O415 1.252 . S
C418 O416 1.273 . S
O419 Mg406 2.010 . S
O419 C411 1.249 . S
Mg420 O421 2.028 . S
Mg420 O427 1.986 . S
Mg420 O429 2.114 . S
Mg420 O430 2.251 . S
Mg420 O433 2.010 . S
O421 Mg420 2.028 . S
O421 C424 1.250 . S
O422 Mg423 2.028 . S
O422 C424 1.248 . S
Mg423 O422 2.028 . S
Mg423 O428 2.032 . S
Mg423 O430 2.079 . S
C424 O421 1.250 . S
C424 O422 1.248 . S
C425 O426 1.264 . S
C425 O433 1.249 1_565 S
O426 C425 1.264 . S
O427 Mg420 1.986 . S
O427 C431 1.246 . S
O428 Mg423 2.032 . S
O428 C431 1.259 . S
O429 Mg420 2.114 . S
O429 C432 1.252 . S
O430 Mg420 2.251 . S
O430 Mg423 2.079 . S
O430 C432 1.273 . S
C431 O427 1.246 . S
C431 O428 1.259 . S
C432 O429 1.252 . S
C432 O430 1.273 . S
O433 Mg420 2.010 . S
O433 C425 1.249 1_545 S
Mg434 O435 2.028 . S
Mg434 O441 1.986 . S
Mg434 O443 2.114 . S
Mg434 O444 2.251 . S
Mg434 O447 2.010 . S
O435 Mg434 2.028 . S
O435 C438 1.250 . S
O436 Mg437 2.028 . S
O436 C438 1.248 . S
Mg437 O436 2.028 . S
Mg437 O442 2.032 . S
Mg437 O444 2.079 . S
C438 O435 1.250 . S
C438 O436 1.248 . S
C439 O440 1.264 . S
C439 O447 1.249 . S
O440 C439 1.264 . S
O441 Mg434 1.986 . S
O441 C445 1.246 . S
O442 Mg437 2.032 . S
O442 C445 1.259 . S
O443 Mg434 2.114 . S
O443 C446 1.252 . S
O444 Mg434 2.251 . S
O444 Mg437 2.079 . S
O444 C446 1.273 . S
C445 O441 1.246 . S
C445 O442 1.259 . S
C446 O443 1.252 . S
C446 O444 1.273 . S
O447 Mg434 2.010 . S
O447 C439 1.249 . S
C117 C5 1.169 1_656 S
C355 C19 1.169 . S
C145 C33 1.169 . S
C383 C47 1.169 . S
C173 C61 1.169 1_655 S
C75 C411 1.169 . S
C89 C201 1.169 1_556 S
C103 C439 1.169 . S
C243 C131 1.169 . S
C271 C159 1.169 . S
C187 C299 1.169 . S
C215 C327 1.169 . S
C229 C341 1.169 1_545 S
C369 C257 1.169 1_446 S
C285 C397 1.169 1_566 S
C425 C313 1.169 1_465 S
C256 C4 1.633 1_655 S
C270 C18 1.634 1_455 S
C32 C228 1.633 . S
C46 C242 1.634 . S
C312 C60 1.633 1_655 S
C74 C326 1.634 . S
C284 C88 1.633 . S
C298 C102 1.634 1_455 S
C116 C368 1.633 1_655 S
C382 C130 1.634 1_655 S
C144 C340 1.633 . S
C158 C354 1.634 . S
C172 C424 1.633 1_655 S
C186 C438 1.634 . S
C396 C200 1.633 . S
C410 C214 1.634 1_655 S
C95 C11 1.432 1_556 S
C109 C25 1.432 1_545 S
C67 C39 1.432 . S
C53 C81 1.432 1_545 S
C207 C123 1.432 1_554 S
C221 C137 1.432 1_565 S
C179 C151 1.432 . S
C193 C165 1.432 1_545 S
C319 C235 1.432 . S
C333 C249 1.432 . S
C263 C291 1.432 1_554 S
C277 C305 1.432 . S
C431 C347 1.432 . S
C445 C361 1.432 . S
C375 C403 1.432 1_556 S
C389 C417 1.432 . S
C12 C306 1.537 . S
C320 C26 1.536 . S
C334 C40 1.537 . S
C54 C292 1.536 . S
C278 C68 1.536 . S
C82 C236 1.536 . S
C250 C96 1.537 . S
C110 C264 1.536 . S
C418 C124 1.537 . S
C432 C138 1.536 . S
C152 C446 1.537 . S
C404 C166 1.536 . S
C390 C180 1.536 . S
C194 C348 1.536 . S
C362 C208 1.537 . S
C222 C376 1.536 . S
