# Generated by pormake.
# Topology yff, (5)-cn, num edge types: 1
# Building blocks:
#     Node 0, Type 0, BuildingBlock: XOMCOT_clean_sbu_0, # of connection points: 5
#     Node 1, Type 0, BuildingBlock: XOMCOT_clean_sbu_0, # of connection points: 5
#     Node 2, Type 0, BuildingBlock: XOMCOT_clean_sbu_0, # of connection points: 5
#     Node 3, Type 0, BuildingBlock: XOMCOT_clean_sbu_0, # of connection points: 5
#     Node 4, Type 0, BuildingBlock: XOMCOT_clean_sbu_0, # of connection points: 5
#     Node 5, Type 0, BuildingBlock: XOMCOT_clean_sbu_0, # of connection points: 5
#     Node 6, Type 0, BuildingBlock: XOMCOT_clean_sbu_0, # of connection points: 5
#     Node 7, Type 0, BuildingBlock: XOMCOT_clean_sbu_0, # of connection points: 5
#     Node 8, Type 0, BuildingBlock: XOMCOT_clean_sbu_0, # of connection points: 5
#     Node 9, Type 0, BuildingBlock: XOMCOT_clean_sbu_0, # of connection points: 5
#     Node 10, Type 0, BuildingBlock: XOMCOT_clean_sbu_0, # of connection points: 5
#     Node 11, Type 0, BuildingBlock: XOMCOT_clean_sbu_0, # of connection points: 5
#     Node 12, Type 0, BuildingBlock: XOMCOT_clean_sbu_0, # of connection points: 5
#     Node 13, Type 0, BuildingBlock: XOMCOT_clean_sbu_0, # of connection points: 5
#     Node 14, Type 0, BuildingBlock: XOMCOT_clean_sbu_0, # of connection points: 5
#     Node 15, Type 0, BuildingBlock: XOMCOT_clean_sbu_0, # of connection points: 5
#     Edge 16, Type (0, 0), BuildingBlock: OJICUG_clean_linker_0, # of connection points: 2
#     Edge 17, Type (0, 0), BuildingBlock: OJICUG_clean_linker_0, # of connection points: 2
#     Edge 18, Type (0, 0), BuildingBlock: OJICUG_clean_linker_0, # of connection points: 2
#     Edge 19, Type (0, 0), BuildingBlock: OJICUG_clean_linker_0, # of connection points: 2
#     Edge 20, Type (0, 0), BuildingBlock: OJICUG_clean_linker_0, # of connection points: 2
#     Edge 21, Type (0, 0), BuildingBlock: OJICUG_clean_linker_0, # of connection points: 2
#     Edge 22, Type (0, 0), BuildingBlock: OJICUG_clean_linker_0, # of connection points: 2
#     Edge 23, Type (0, 0), BuildingBlock: OJICUG_clean_linker_0, # of connection points: 2
#     Edge 24, Type (0, 0), BuildingBlock: OJICUG_clean_linker_0, # of connection points: 2
#     Edge 25, Type (0, 0), BuildingBlock: OJICUG_clean_linker_0, # of connection points: 2
#     Edge 26, Type (0, 0), BuildingBlock: OJICUG_clean_linker_0, # of connection points: 2
#     Edge 27, Type (0, 0), BuildingBlock: OJICUG_clean_linker_0, # of connection points: 2
#     Edge 28, Type (0, 0), BuildingBlock: OJICUG_clean_linker_0, # of connection points: 2
#     Edge 29, Type (0, 0), BuildingBlock: OJICUG_clean_linker_0, # of connection points: 2
#     Edge 30, Type (0, 0), BuildingBlock: OJICUG_clean_linker_0, # of connection points: 2
#     Edge 31, Type (0, 0), BuildingBlock: OJICUG_clean_linker_0, # of connection points: 2
#     Edge 32, Type (0, 0), BuildingBlock: OJICUG_clean_linker_0, # of connection points: 2
#     Edge 33, Type (0, 0), BuildingBlock: OJICUG_clean_linker_0, # of connection points: 2
#     Edge 34, Type (0, 0), BuildingBlock: OJICUG_clean_linker_0, # of connection points: 2
#     Edge 35, Type (0, 0), BuildingBlock: OJICUG_clean_linker_0, # of connection points: 2
#     Edge 36, Type (0, 0), BuildingBlock: OJICUG_clean_linker_0, # of connection points: 2
#     Edge 37, Type (0, 0), BuildingBlock: OJICUG_clean_linker_0, # of connection points: 2
#     Edge 38, Type (0, 0), BuildingBlock: OJICUG_clean_linker_0, # of connection points: 2
#     Edge 39, Type (0, 0), BuildingBlock: OJICUG_clean_linker_0, # of connection points: 2
#     Edge 40, Type (0, 0), BuildingBlock: OJICUG_clean_linker_0, # of connection points: 2
#     Edge 41, Type (0, 0), BuildingBlock: OJICUG_clean_linker_0, # of connection points: 2
#     Edge 42, Type (0, 0), BuildingBlock: OJICUG_clean_linker_0, # of connection points: 2
#     Edge 43, Type (0, 0), BuildingBlock: OJICUG_clean_linker_0, # of connection points: 2
#     Edge 44, Type (0, 0), BuildingBlock: OJICUG_clean_linker_0, # of connection points: 2
#     Edge 45, Type (0, 0), BuildingBlock: OJICUG_clean_linker_0, # of connection points: 2
#     Edge 46, Type (0, 0), BuildingBlock: OJICUG_clean_linker_0, # of connection points: 2
#     Edge 47, Type (0, 0), BuildingBlock: OJICUG_clean_linker_0, # of connection points: 2
#     Edge 48, Type (0, 0), BuildingBlock: OJICUG_clean_linker_0, # of connection points: 2
#     Edge 49, Type (0, 0), BuildingBlock: OJICUG_clean_linker_0, # of connection points: 2
#     Edge 50, Type (0, 0), BuildingBlock: OJICUG_clean_linker_0, # of connection points: 2
#     Edge 51, Type (0, 0), BuildingBlock: OJICUG_clean_linker_0, # of connection points: 2
#     Edge 52, Type (0, 0), BuildingBlock: OJICUG_clean_linker_0, # of connection points: 2
#     Edge 53, Type (0, 0), BuildingBlock: OJICUG_clean_linker_0, # of connection points: 2
#     Edge 54, Type (0, 0), BuildingBlock: OJICUG_clean_linker_0, # of connection points: 2
#     Edge 55, Type (0, 0), BuildingBlock: OJICUG_clean_linker_0, # of connection points: 2
# Relax obj value: 0.400
# Max RMSD: 0.319
# Mean RMSD: 0.300
data_MOF--net-yff--node1-XOMCOT_clean_sbu_0--edge1-OJICUG_clean_linker_0
_symmetry_space_group_name_H-M    P1
_symmetry_Int_Tables_number       1
_symmetry_cell_setting            triclinic
loop_
_symmetry_equiv_pos_as_xyz
'x, y, z'
_cell_length_a     47.252202
_cell_length_b     46.910344
_cell_length_c     22.228902
_cell_angle_alpha  89.498137
_cell_angle_beta   89.62532
_cell_angle_gamma 93.021157
loop_
_atom_site_label
_atom_site_type_symbol
_atom_site_fract_x
_atom_site_fract_y
_atom_site_fract_z
_atom_type_partial_charge
Co0 Co 0.08248 0.0369 0.46649 0.0
C1 C 0.0744 0.07197 0.5739 0.0
C2 C 0.10022 0.0953 0.50921 0.0
C3 C 0.10149 0.10972 0.56323 0.0
N4 N 0.08354 0.07123 0.51607 0.0
N5 N 0.08567 0.09462 0.60427 0.0
H6 H 0.06153 0.05503 0.59517 0.0
H7 H 0.11258 0.10108 0.4697 0.0
C8 C 0.11275 0.07159 0.36192 0.0
O9 O 0.13737 0.07598 0.38823 0.0
N10 N 0.08117 0.00229 0.42047 0.0
C11 C 0.09004 0.97706 0.44034 0.0
C12 C 0.08079 0.95613 0.40148 0.0
C13 C 0.06621 -0.00359 0.37043 0.0
N14 N 0.06566 0.96827 0.35786 0.0
C15 C 0.13085 0.03233 0.5437 0.0
C16 C 0.16763 0.01663 0.45417 0.0
C17 C 0.17755 0.01922 0.51314 0.0
C18 C 0.15885 0.02715 0.55839 0.0
C19 C 0.13975 0.02236 0.44139 0.0
N20 N 0.12186 0.03087 0.48545 0.0
H21 H 0.11634 0.03712 0.57938 0.0
H22 H 0.13247 0.01983 0.39567 0.0
H23 H 0.10108 0.9739 0.48216 0.0
H24 H 0.0549 0.01214 0.34568 0.0
O25 O 0.06341 0.0145 0.53012 0.0
O26 O 0.04227 0.03836 0.45808 0.0
O27 O 0.09172 0.05911 0.38971 0.0
C28 C 0.03994 0.02059 0.50307 0.0
H29 H 0.11494 0.12851 0.57269 0.0
H30 H 0.0834 0.93348 0.40717 0.0
H31 H 0.18144 0.01064 0.41782 0.0
H32 H 0.16569 0.02888 0.60469 0.0
Co33 Co 0.43681 0.07692 0.96543 0.0
C34 C 0.4019 0.06396 0.07341 0.0
C35 C 0.3786 0.0876 1.00981 0.0
C36 C 0.3643 0.0871 0.06433 0.0
N37 N 0.40259 0.07347 1.01567 0.0
N38 N 0.37939 0.07272 0.10469 0.0
H39 H 0.4188 0.05285 0.09399 0.0
H40 H 0.37285 0.09962 0.97072 0.0
C41 C 0.40211 0.10311 0.86152 0.0
O42 O 0.39713 0.12728 0.88792 0.0
N43 N 0.47127 0.08016 0.91867 0.0
C44 C 0.49605 0.09227 0.93784 0.0
C45 C 0.51705 0.08569 0.89832 0.0
C46 C 0.47747 0.06599 0.86839 0.0
N47 N 0.50539 0.06901 0.855 0.0
C48 C 0.43963 0.12609 0.04259 0.0
C49 C 0.45429 0.16534 0.95279 0.0
C50 C 0.4508 0.17494 1.01167 0.0
C51 C 0.44348 0.15497 0.05708 0.0
C52 C 0.44988 0.13649 0.94022 0.0
N53 N 0.44177 0.11729 0.98438 0.0
H54 H 0.4352 0.11082 0.07838 0.0
H55 H 0.45293 0.12957 0.89451 0.0
H56 H 0.49889 0.10368 0.97962 0.0
H57 H 0.46214 0.05265 0.84408 0.0
O58 O 0.45926 0.06046 0.02859 0.0
O59 O 0.43634 0.03628 0.95695 0.0
O60 O 0.41481 0.08349 0.8891 0.0
C61 C 0.4538 0.03611 1.0017 0.0
H62 H 0.34563 0.09861 0.07459 0.0
H63 H 0.53945 0.09115 0.90341 0.0
H64 H 0.45986 0.18009 0.9163 0.0
H65 H 0.44115 0.16157 0.10335 0.0
Co66 Co 0.3944 0.43593 0.47214 0.0
C67 C 0.40007 0.40392 0.58541 0.0
C68 C 0.3852 0.3754 0.5167 0.0
C69 C 0.38422 0.36096 0.57133 0.0
N70 N 0.39473 0.40264 0.52573 0.0
N71 N 0.39316 0.37917 0.61473 0.0
H72 H 0.4075 0.42316 0.60783 0.0
H73 H 0.37834 0.36661 0.47431 0.0
C74 C 0.36744 0.39671 0.37332 0.0
O75 O 0.34393 0.38943 0.40273 0.0
N76 N 0.39432 0.46969 0.42243 0.0
C77 C 0.38338 0.49437 0.43927 0.0
C78 C 0.3923 0.51541 0.39939 0.0
C79 C 0.4101 0.47603 0.37307 0.0
N80 N 0.40924 0.50394 0.35806 0.0
C81 C 0.34347 0.43837 0.54562 0.0
C82 C 0.3077 0.44583 0.44952 0.0
C83 C 0.29599 0.44183 0.5071 0.0
C84 C 0.31422 0.43907 0.55602 0.0
C85 C 0.33676 0.44501 0.44125 0.0
N86 N 0.3542 0.43974 0.48835 0.0
H87 H 0.35731 0.43655 0.5836 0.0
H88 H 0.3452 0.44785 0.39619 0.0
H89 H 0.37122 0.4972 0.47997 0.0
H90 H 0.423 0.46087 0.35075 0.0
O91 O 0.41193 0.4604 0.53347 0.0
O92 O 0.43473 0.43634 0.4647 0.0
O93 O 0.38718 0.4122 0.39773 0.0
C94 C 0.43596 0.45487 0.50756 0.0
H95 H 0.37615 0.33918 0.57871 0.0
H96 H 0.38817 0.5378 0.40308 0.0
H97 H 0.29441 0.44915 0.41079 0.0
H98 H 0.30595 0.43671 0.60144 0.0
Co99 Co 0.03191 0.39462 0.96898 0.0
C100 C 0.06723 0.40595 0.07558 0.0
C101 C 0.08949 0.38141 1.01205 0.0
C102 C 0.10363 0.38102 0.06629 0.0
N103 N 0.0662 0.39664 1.01809 0.0
N104 N 0.08918 0.39597 0.10665 0.0
H105 H 0.05085 0.41778 0.09623 0.0
H106 H 0.09473 0.36921 0.97317 0.0
C107 C 0.06549 0.36702 0.86521 0.0
O108 O 0.0694 0.34258 0.89234 0.0
N109 N -0.00258 0.39285 0.92333 0.0
C110 C 0.97221 0.38174 0.94356 0.0
C111 C 0.95152 0.38939 0.90458 0.0
C112 C -0.00819 0.40749 0.87294 0.0
N113 N 0.96384 0.40575 0.86054 0.0
C114 C 0.02808 0.34509 0.04731 0.0
C115 C 0.0129 0.30653 0.95842 0.0
C116 C 0.01768 0.29637 1.01668 0.0
C117 C 0.02491 0.31603 0.0618 0.0
C118 C 0.01665 0.33554 0.94583 0.0
N119 N 0.02543 0.35435 0.98927 0.0
H120 H 0.03286 0.36007 0.08279 0.0
H121 H 0.01326 0.34281 0.90031 0.0
H122 H 0.96893 0.3703 0.98571 0.0
H123 H 0.00764 0.42027 0.84788 0.0
O124 O 0.01021 0.41198 0.03224 0.0
O125 O 0.03405 0.43528 0.95913 0.0
O126 O 0.0536 0.38721 0.8923 0.0
C127 C 0.01667 0.43616 1.00437 0.0
H128 H 0.12165 0.36853 0.07643 0.0
H129 H 0.92897 0.3849 0.91051 0.0
H130 H 0.00734 0.29209 0.9221 0.0
H131 H 0.02813 0.30902 0.10769 0.0
Co132 Co 0.58029 0.9426 0.57093 0.0
C133 C 0.56985 0.90678 0.46443 0.0
C134 C 0.59467 0.88491 0.52824 0.0
C135 C 0.59522 0.87057 0.47418 0.0
N136 N 0.57913 0.90807 0.52193 0.0
N137 N 0.58007 0.88479 0.43365 0.0
H138 H 0.55779 0.92301 0.44357 0.0
H139 H 0.60688 0.87988 0.56725 0.0
C140 C 0.60864 0.90959 0.67502 0.0
O141 O 0.63294 0.90607 0.64783 0.0
N142 N 0.58121 0.97735 0.61641 0.0
C143 C 0.59161 0.00297 0.59604 0.0
C144 C 0.58353 0.0236 0.63489 0.0
C145 C 0.56655 0.98266 0.66676 0.0
N146 N 0.56761 0.01084 0.67901 0.0
C147 C 0.62925 0.948 0.49246 0.0
C148 C 0.66731 0.96432 0.58117 0.0
C149 C 0.6774 0.96016 0.52272 0.0
C150 C 0.65797 0.9523 0.47772 0.0
C151 C 0.63864 0.95945 0.594 0.0
N152 N 0.62012 0.95018 0.5506 0.0
H153 H 0.61442 0.94279 0.45707 0.0
H154 H 0.63142 0.96252 0.6396 0.0
H155 H 0.60287 0.00653 0.55389 0.0
H156 H 0.55427 0.96643 0.69192 0.0
O157 O 0.56243 0.96395 0.50757 0.0
O158 O 0.53996 0.93938 0.58081 0.0
O159 O 0.5883 0.92106 0.64778 0.0
C160 C 0.53859 0.95682 0.53548 0.0
H161 H 0.60786 0.85259 0.46425 0.0
H162 H 0.58744 0.04639 0.62883 0.0
H163 H 0.68158 0.97032 0.6174 0.0
H164 H 0.66491 0.9495 0.43171 0.0
Co165 Co 0.54196 0.5806 0.06763 0.0
C166 C 0.57473 0.57273 0.95652 0.0
C167 C 0.60154 0.59237 0.02306 0.0
C168 C 0.61585 0.59317 0.96849 0.0
N169 N 0.57542 0.57993 1.01536 0.0
N170 N 0.59865 0.58128 0.9264 0.0
H171 H 0.55628 0.56315 0.9348 0.0
H172 H 0.60938 0.60176 0.06411 0.0
C173 C 0.57946 0.60893 0.16761 0.0
O174 O 0.58574 0.633 0.13874 0.0
N175 N 0.50809 0.58103 0.11608 0.0
C176 C 0.4836 0.59156 0.09751 0.0
C177 C 0.46258 0.58327 0.13756 0.0
C178 C 0.50164 0.56605 0.16664 0.0
N179 N 0.47386 0.5671 0.18077 0.0
C180 C 0.53921 0.63057 0.99091 0.0
C181 C 0.52696 0.66741 0.08276 0.0
C182 C 0.52907 0.67798 0.02381 0.0
C183 C 0.53537 0.65931 0.97738 0.0
C184 C 0.53134 0.63886 0.09432 0.0
N185 N 0.53804 0.62085 0.04906 0.0
H186 H 0.54256 0.61615 0.95442 0.0
H187 H 0.52909 0.63115 0.14013 0.0
H188 H 0.48092 0.60305 0.0557 0.0
H189 H 0.51664 0.55359 0.1906 0.0
O190 O 0.51812 0.56266 1.00611 0.0
O191 O 0.54136 0.53995 0.07662 0.0
O192 O 0.56508 0.58851 0.14253 0.0
C193 C 0.52322 0.53859 0.03312 0.0
H194 H 0.63652 0.60348 0.95985 0.0
H195 H 0.44034 0.58724 0.13286 0.0
H196 H 0.52222 0.68119 0.11997 0.0
H197 H 0.53669 0.6667 0.9311 0.0
Co198 Co 0.89542 0.5362 0.57399 0.0
C199 C 0.90764 0.57186 0.4664 0.0
C200 C 0.88312 0.59442 0.52948 0.0
C201 C 0.8832 0.60877 0.47484 0.0
N202 N 0.89807 0.57083 0.52399 0.0
N203 N 0.89813 0.59411 0.4348 0.0
H204 H 0.91932 0.55527 0.44606 0.0
H205 H 0.8708 0.59973 0.56828 0.0
C206 C 0.86818 0.57014 0.67772 0.0
O207 O 0.84408 0.57458 0.65102 0.0
N208 N 0.89297 0.50136 0.62047 0.0
C209 C 0.88164 0.47617 0.60097 0.0
C210 C 0.88858 0.45513 0.64053 0.0
C211 C 0.90706 0.49538 0.67098 0.0
N212 N 0.90472 0.4672 0.6842 0.0
C213 C 0.84671 0.53255 0.49614 0.0
C214 C 0.80783 0.51696 0.58546 0.0
C215 C 0.79824 0.52091 0.52668 0.0
C216 C 0.81805 0.52858 0.48147 0.0
C217 C 0.83645 0.52151 0.59822 0.0
N218 N 0.85545 0.53022 0.55437 0.0
H219 H 0.86184 0.53738 0.46053 0.0
H220 H 0.84333 0.51831 0.64393 0.0
H221 H 0.87049 0.47312 0.55898 0.0
H222 H 0.91983 0.51108 0.69559 0.0
O223 O 0.91259 0.51425 0.51098 0.0
O224 O 0.93579 0.53775 0.58316 0.0
O225 O 0.88808 0.55795 0.65035 0.0
C226 C 0.93659 0.52037 0.53823 0.0
H227 H 0.87102 0.62704 0.46423 0.0
H228 H 0.88376 0.43249 0.63526 0.0
H229 H 0.79322 0.51111 0.62182 0.0
H230 H 0.81149 0.53123 0.43525 0.0
Co231 Co 0.9325 0.89422 0.07238 0.0
C232 C 0.89834 0.90431 0.96466 0.0
C233 C 0.8738 0.87956 0.02932 0.0
C234 C 0.8595 0.87911 0.9752 0.0
N235 N 0.89853 0.89505 0.02254 0.0
N236 N 0.87532 0.89423 0.9342 0.0
H237 H 0.91579 0.91636 0.94345 0.0
H238 H 0.86739 0.86743 0.06885 0.0
C239 C 0.89651 0.86572 0.17694 0.0
O240 O 0.89081 0.84112 0.15075 0.0
N241 N 0.96678 0.89361 0.11862 0.0
C242 C -0.0088 0.88325 0.09891 0.0
C243 C 0.01239 0.89126 0.13798 0.0
C244 C 0.97342 0.90826 0.16877 0.0
N245 N 0.00124 0.90712 0.18159 0.0
C246 C 0.93463 0.84517 0.99559 0.0
C247 C 0.94876 0.80749 0.08544 0.0
C248 C 0.94639 0.79773 0.02632 0.0
C249 C 0.93907 0.81681 0.98096 0.0
C250 C 0.94377 0.83573 0.09815 0.0
N251 N 0.93625 0.85414 0.05384 0.0
H252 H 0.93052 0.86001 0.95979 0.0
H253 H 0.94641 0.84293 0.14391 0.0
H254 H -0.00629 0.872 0.0571 0.0
H255 H 0.95852 0.92051 0.19348 0.0
O256 O 0.95574 0.9121 1.00873 0.0
O257 O 0.93336 0.93488 0.08036 0.0
O258 O 0.91 0.88624 0.14908 0.0
C259 C 0.95109 0.93614 0.0355 0.0
H260 H 0.84016 0.86661 0.96569 0.0
H261 H 0.03461 0.8873 0.13248 0.0
H262 H 0.95429 0.79335 0.12182 0.0
H263 H 0.93748 0.81006 0.93458 0.0
Co264 Co 0.89259 0.93694 0.57206 0.0
C265 C 0.90072 0.90181 0.46477 0.0
C266 C 0.87472 0.87859 0.52933 0.0
C267 C 0.87345 0.86418 0.4753 0.0
N268 N 0.89152 0.90259 0.52256 0.0
N269 N 0.88938 0.87922 0.43435 0.0
H270 H 0.91368 0.9187 0.44356 0.0
H271 H 0.86228 0.87288 0.56876 0.0
C272 C 0.86229 0.90234 0.67671 0.0
O273 O 0.83765 0.89797 0.65043 0.0
N274 N 0.89391 0.97157 0.61801 0.0
C275 C 0.88506 -0.0032 0.59809 0.0
C276 C 0.89434 0.01774 0.63689 0.0
C277 C 0.90888 0.97746 0.66802 0.0
N278 N 0.90947 0.00561 0.68053 0.0
C279 C 0.84426 0.94152 0.49477 0.0
C280 C 0.80746 0.95731 0.58417 0.0
C281 C 0.79757 0.95472 0.52518 0.0
C282 C 0.81628 0.94673 0.48 0.0
C283 C 0.83532 0.95154 0.59704 0.0
N284 N 0.85322 0.94299 0.55303 0.0
H285 H 0.85878 0.9367 0.45913 0.0
H286 H 0.84258 0.95409 0.64276 0.0
H287 H 0.87403 -5e-05 0.55626 0.0
H288 H 0.92018 0.96173 0.6928 0.0
O289 O 0.91168 0.9593 0.50841 0.0
O290 O 0.9328 0.93546 0.58051 0.0
O291 O 0.88333 0.91477 0.64887 0.0
C292 C 0.93514 0.95322 0.53549 0.0
H293 H 0.85991 0.84545 0.46576 0.0
H294 H 0.89175 0.04039 0.63115 0.0
H295 H 0.79364 0.96334 0.62047 0.0
H296 H 0.80947 0.945 0.43368 0.0
Co297 Co 0.53847 0.89748 0.07251 0.0
C298 C 0.57323 0.91063 0.96439 0.0
C299 C 0.59684 0.88741 0.02817 0.0
C300 C 0.61112 0.88797 0.97364 0.0
N301 N 0.57266 0.90122 0.0222 0.0
N302 N 0.59585 0.90208 0.93316 0.0
H303 H 0.55618 0.92149 0.94375 0.0
H304 H 0.60275 0.87556 0.06737 0.0
C305 C 0.57344 0.87142 0.17617 0.0
O306 O 0.57864 0.84734 0.14959 0.0
N307 N 0.50406 0.89395 0.11939 0.0
C308 C 0.47933 0.88167 0.10034 0.0
C309 C 0.45829 0.88821 0.13979 0.0
C310 C 0.49777 0.90819 0.16955 0.0
N311 N 0.46986 0.90506 0.18295 0.0
C312 C 0.53615 0.84834 0.99512 0.0
C313 C 0.52216 0.80889 0.08492 0.0
C314 C 0.52597 0.79933 0.02609 0.0
C315 C 0.5329 0.81941 0.98067 0.0
C316 C 0.52594 0.8378 0.09745 0.0
N317 N 0.53381 0.8571 0.05333 0.0
H318 H 0.54033 0.86366 0.95934 0.0
H319 H 0.52275 0.84466 0.14315 0.0
H320 H 0.47655 0.87018 0.05863 0.0
H321 H 0.51303 0.92168 0.19369 0.0
O322 O 0.51587 0.91387 1.00951 0.0
O323 O 0.53869 0.93808 0.08123 0.0
O324 O 0.56055 0.89096 0.14875 0.0
C325 C 0.52122 0.93822 0.03651 0.0
H326 H 0.62994 0.87668 0.96347 0.0
H327 H 0.43592 0.88264 0.13472 0.0
H328 H 0.51687 0.79407 0.12144 0.0
H329 H 0.53543 0.81285 0.93442 0.0
Co330 Co 0.58185 0.54095 0.56651 0.0
C331 C 0.57477 0.57594 0.45767 0.0
C332 C 0.60177 0.5985 0.51986 0.0
C333 C 0.60352 0.61255 0.46487 0.0
N334 N 0.58404 0.57511 0.51515 0.0
N335 N 0.58695 0.5979 0.42546 0.0
H336 H 0.56116 0.55944 0.43789 0.0
H337 H 0.61455 0.60385 0.55844 0.0
C338 C 0.61246 0.57491 0.66905 0.0
O339 O 0.63729 0.57818 0.64232 0.0
N340 N 0.57936 0.50654 0.61434 0.0
C341 C 0.58562 0.48059 0.59389 0.0
C342 C 0.57472 0.46017 0.63332 0.0
C343 C 0.56484 0.50171 0.66597 0.0
N344 N 0.56176 0.47356 0.6782 0.0
C345 C 0.63127 0.5361 0.4907 0.0
C346 C 0.66639 0.51892 0.58156 0.0
C347 C 0.6775 0.5227 0.52335 0.0
C348 C 0.65956 0.53119 0.47734 0.0
C349 C 0.63826 0.52439 0.59301 0.0
N350 N 0.62125 0.53389 0.54845 0.0
H351 H 0.61746 0.54158 0.45446 0.0
H352 H 0.63028 0.52147 0.63843 0.0
H353 H 0.59572 0.47676 0.55111 0.0
H354 H 0.5548 0.51809 0.69118 0.0
O355 O 0.56287 0.51874 0.50392 0.0
O356 O 0.54156 0.54321 0.57439 0.0
O357 O 0.59105 0.5633 0.64204 0.0
C358 C 0.53931 0.52517 0.53056 0.0
H359 H 0.61781 0.63063 0.45358 0.0
H360 H 0.57509 0.43726 0.62823 0.0
H361 H 0.67953 0.51252 0.61855 0.0
H362 H 0.66726 0.53377 0.43151 0.0
Co363 Co 0.93854 0.57878 0.07268 0.0
C364 C 0.90317 0.56713 0.96626 0.0
C365 C 0.88069 0.5914 0.02992 0.0
C366 C 0.86642 0.59153 0.97579 0.0
N367 N 0.90419 0.57649 0.02374 0.0
N368 N 0.88102 0.57676 0.93536 0.0
H369 H 0.91967 0.55551 0.94548 0.0
H370 H 0.87533 0.6035 0.06887 0.0
C371 C 0.90498 0.60644 0.17645 0.0
O372 O 0.90065 0.63067 0.14888 0.0
N373 N 0.97313 0.58082 0.11804 0.0
C374 C -0.00177 0.59201 0.09735 0.0
C375 C 0.01908 0.58455 0.13607 0.0
C376 C 0.97899 0.56633 0.16849 0.0
N377 N 0.00701 0.56824 0.18047 0.0
C378 C 0.94225 0.62815 0.99386 0.0
C379 C 0.95762 0.66686 0.08234 0.0
C380 C 0.95317 0.67688 0.02385 0.0
C381 C 0.94573 0.65716 0.97898 0.0
C382 C 0.95356 0.63792 0.09532 0.0
N383 N 0.94482 0.61903 0.05201 0.0
H384 H 0.93742 0.6131 0.95854 0.0
H385 H 0.95687 0.63076 0.14094 0.0
H386 H 0.00132 0.60335 0.05504 0.0
H387 H 0.9633 0.55352 0.19386 0.0
O388 O 0.96022 0.56136 1.00946 0.0
O389 O 0.93659 0.53814 0.08296 0.0
O390 O 0.91699 0.58628 0.14951 0.0
C391 C 0.95388 0.53722 0.0376 0.0
H392 H 0.84818 0.60372 0.96576 0.0
H393 H 0.0416 0.58912 0.12965 0.0
H394 H 0.96331 0.68138 0.11847 0.0
H395 H 0.94271 0.66407 0.93295 0.0
Co396 Co 0.39484 0.03161 0.46671 0.0
C397 C 0.4053 0.06734 0.57339 0.0
C398 C 0.3807 0.08938 0.50946 0.0
C399 C 0.38022 0.10375 0.5635 0.0
N400 N 0.39607 0.06611 0.51585 0.0
N401 N 0.39524 0.08942 0.6041 0.0
H402 H 0.41724 0.05102 0.59431 0.0
H403 H 0.3686 0.09451 0.47037 0.0
C404 C 0.36654 0.06479 0.36279 0.0
O405 O 0.34225 0.06836 0.39002 0.0
N406 N 0.39386 -0.0031 0.42108 0.0
C407 C 0.3834 0.97128 0.44136 0.0
C408 C 0.39146 0.95066 0.40247 0.0
C409 C 0.40853 -0.00841 0.37075 0.0
N410 N 0.40743 0.96341 0.35842 0.0
C411 C 0.34592 0.0262 0.54526 0.0
C412 C 0.3078 0.01002 0.45656 0.0
C413 C 0.29775 0.01407 0.51508 0.0
C414 C 0.3172 0.02188 0.56007 0.0
C415 C 0.33646 0.0149 0.44366 0.0
N416 N 0.35501 0.02408 0.48708 0.0
H417 H 0.36077 0.03133 0.58064 0.0
H418 H 0.34366 0.01189 0.39803 0.0
H419 H 0.37212 0.96771 0.48349 0.0
H420 H 0.42087 0.00781 0.34567 0.0
O421 O 0.41269 0.01019 0.52997 0.0
O422 O 0.43517 0.03478 0.45679 0.0
O423 O 0.38685 0.05324 0.38995 0.0
C424 C 0.43653 0.01731 0.50206 0.0
H425 H 0.36773 0.12184 0.57334 0.0
H426 H 0.38751 0.92787 0.4085 0.0
H427 H 0.2935 0.00407 0.42035 0.0
H428 H 0.31029 0.02459 0.60612 0.0
Co429 Co 0.43459 0.39352 0.97408 0.0
C430 C 0.40034 0.40104 0.08334 0.0
C431 C 0.3773 0.37443 0.0211 0.0
C432 C 0.36344 0.37281 0.07614 0.0
N433 N 0.40085 0.39182 0.0258 0.0
N434 N 0.37838 0.38913 0.1156 0.0
H435 H 0.417 0.41443 0.10304 0.0
H436 H 0.37164 0.36175 0.98245 0.0
C437 C 0.39995 0.36368 0.8717 0.0
O438 O 0.3965 0.33861 0.89818 0.0
N439 N 0.46858 0.39552 0.92581 0.0
C440 C 0.49427 0.38864 0.94581 0.0
C441 C 0.51457 0.3994 0.90623 0.0
C442 C 0.47343 0.41028 0.87432 0.0
N443 N 0.50135 0.41291 0.86173 0.0
C444 C 0.43859 0.34334 0.0492 0.0
C445 C 0.45477 0.30795 0.95783 0.0
C446 C 0.45095 0.29663 1.01594 0.0
C447 C 0.44297 0.31469 0.06221 0.0
C448 C 0.44986 0.33645 0.94674 0.0
N449 N 0.44084 0.3536 0.99155 0.0
H450 H 0.43351 0.35724 0.08564 0.0
H451 H 0.45279 0.34459 0.90138 0.0
H452 H 0.49806 0.37822 0.9884 0.0
H453 H 0.45727 0.42082 0.84949 0.0
O454 O 0.45726 0.4119 0.0367 0.0
O455 O 0.4332 0.4342 0.96683 0.0
O456 O 0.41192 0.38501 0.89871 0.0
C457 C 0.45132 0.4359 1.01043 0.0
H458 H 0.34523 0.35876 0.08737 0.0
H459 H 0.5373 0.39859 0.911 0.0
H460 H 0.46079 0.29471 0.92066 0.0
H461 H 0.44037 0.30681 0.10797 0.0
Co462 Co 0.07646 0.43842 0.46653 0.0
C463 C 0.06508 0.40445 0.57683 0.0
C464 C 0.08501 0.3791 0.51115 0.0
C465 C 0.08475 0.36476 0.56581 0.0
N466 N 0.07308 0.40438 0.51823 0.0
N467 N 0.07269 0.38109 0.60742 0.0
H468 H 0.05572 0.42228 0.59814 0.0
H469 H 0.09503 0.37212 0.47068 0.0
C470 C 0.10166 0.40203 0.36428 0.0
O471 O 0.12523 0.39614 0.39158 0.0
N472 N 0.07958 0.47272 0.41838 0.0
C473 C 0.09203 0.49773 0.43606 0.0
C474 C 0.08496 0.5187 0.39643 0.0
C475 C 0.06479 0.47875 0.36883 0.0
N476 N 0.06766 0.50679 0.35453 0.0
C477 C 0.1264 0.44047 0.54168 0.0
C478 C 0.16445 0.4505 0.44799 0.0
C479 C 0.17478 0.44479 0.50542 0.0
C480 C 0.15552 0.44088 0.55329 0.0
C481 C 0.13542 0.44996 0.43851 0.0
N482 N 0.11675 0.44318 0.48418 0.0
H483 H 0.11172 0.4374 0.57876 0.0
H484 H 0.12797 0.45373 0.39343 0.0
H485 H 0.10395 0.50078 0.47709 0.0
H486 H 0.05109 0.46321 0.3459 0.0
O487 O 0.06027 0.46162 0.52898 0.0
O488 O 0.03614 0.43786 0.45854 0.0
O489 O 0.08256 0.4157 0.39092 0.0
C490 C 0.03598 0.45571 0.50266 0.0
H491 H 0.09463 0.34489 0.57493 0.0
H492 H 0.09051 0.54127 0.40068 0.0
H493 H 0.17875 0.45457 0.41021 0.0
H494 H 0.16282 0.43714 0.59862 0.0
Co495 Co 0.04257 0.07966 0.96622 0.0
C496 C 0.07675 0.06968 0.07396 0.0
C497 C 0.10121 0.09454 1.00936 0.0
C498 C 0.11551 0.09502 0.06348 0.0
N499 N 0.07653 0.07896 1.01609 0.0
N500 N 0.09973 0.07983 0.10445 0.0
H501 H 0.05933 0.05757 0.09514 0.0
H502 H 0.10758 0.10671 0.96984 0.0
C503 C 0.07851 0.10823 0.86164 0.0
O504 O 0.08412 0.13286 0.88778 0.0
N505 N 0.00829 0.08016 0.91997 0.0
C506 C 0.98383 0.09046 0.93971 0.0
C507 C 0.96268 0.08246 0.90057 0.0
C508 C 0.00169 0.06556 0.86974 0.0
N509 N 0.97387 0.06667 0.8569 0.0
C510 C 0.04005 0.12863 0.04303 0.0
C511 C 0.02563 0.1662 0.9532 0.0
C512 C 0.02759 0.17588 1.01244 0.0
C513 C 0.03513 0.15688 0.05777 0.0
C514 C 0.03108 0.13809 0.94038 0.0
N515 N 0.03867 0.11972 0.98471 0.0
H516 H 0.04425 0.11381 0.0788 0.0
H517 H 0.02861 0.1309 0.89458 0.0
H518 H 0.9813 0.10167 0.98156 0.0
H519 H 0.01662 0.05336 0.84498 0.0
O520 O 0.01938 0.06175 0.02988 0.0
O521 O 0.04182 0.039 0.9583 0.0
O522 O 0.06506 0.08769 0.88953 0.0
C523 C 0.02408 0.03771 1.00314 0.0
H524 H 0.1348 0.10759 0.07303 0.0
H525 H 0.94045 0.08638 0.90606 0.0
H526 H 0.01995 0.1803 0.91685 0.0
H527 H 0.03643 0.16357 0.10422 0.0
C528 C 0.98626 0.96365 0.55889 0.0
C529 C 0.96234 0.96943 0.5242 0.0
H530 H 0.02935 0.97567 0.5806 0.0
C531 C 0.96389 -0.00713 0.48455 0.0
H532 H 0.98565 0.94592 0.59048 0.0
C533 C -0.01117 0.01015 0.47968 0.0
C534 C 0.01274 0.00437 0.51437 0.0
H535 H 0.94573 -0.00186 0.45796 0.0
H536 H -0.01057 0.02789 0.44809 0.0
C537 C 0.01119 0.98094 0.55402 0.0
C538 C 0.46488 0.98578 0.97908 0.0
C539 C 0.47006 0.01059 1.01345 0.0
H540 H 0.47732 0.94366 0.95832 0.0
C541 C 0.49283 0.01169 0.05361 0.0
H542 H 0.44766 0.98436 0.94715 0.0
C543 C 0.51005 -0.0115 0.05926 0.0
C544 C 0.50488 0.9637 0.02487 0.0
H545 H 0.49761 0.03061 0.08003 0.0
H546 H 0.52727 -0.01007 0.09118 0.0
C547 C 0.4821 0.96258 0.98474 0.0
C548 C 0.48791 0.51474 0.55462 0.0
C549 C 0.51225 0.50854 0.52121 0.0
H550 H 0.44477 0.50236 0.5777 0.0
C551 C 0.51146 0.48406 0.48547 0.0
H552 H 0.48796 0.5333 0.58328 0.0
C553 C 0.48697 0.46611 0.48336 0.0
C554 C 0.46261 0.47224 0.51675 0.0
H555 H 0.52995 0.47839 0.46008 0.0
H556 H 0.48709 0.44749 0.45488 0.0
C557 C 0.4633 0.4968 0.55232 0.0
C558 C 0.96268 0.48632 0.06166 0.0
C559 C 0.96899 0.51096 0.02634 0.0
H560 H 0.97315 0.44355 0.08351 0.0
C561 C -0.00823 0.51108 0.98564 0.0
H562 H 0.94542 0.48564 0.09403 0.0
C563 C 0.00789 0.48707 0.98035 0.0
C564 C 0.00158 0.46243 1.01567 0.0
H565 H -0.00258 0.52984 0.95849 0.0
H566 H 0.02515 0.48775 0.94798 0.0
C567 C 0.9788 0.46231 0.05637 0.0
C568 C 0.51161 -0.00573 0.48349 0.0
C569 C 0.51209 0.97129 0.52412 0.0
H570 H 0.48755 0.02729 0.44586 0.0
C571 C 0.48778 0.96424 0.55933 0.0
H572 H 0.5301 0.00049 0.45643 0.0
C573 C 0.4635 0.97983 0.55401 0.0
C574 C 0.46302 0.00281 0.51339 0.0
H575 H 0.48756 0.94681 0.59164 0.0
H576 H 0.44501 0.97362 0.58107 0.0
C577 C 0.48733 0.00986 0.47817 0.0
C578 C 0.51097 0.48742 0.05831 0.0
C579 C 0.50561 0.51198 0.02418 0.0
H580 H 0.49766 0.44441 0.0821 0.0
C581 C 0.48143 0.51169 0.9879 0.0
H582 H 0.52926 0.48703 0.08737 0.0
C583 C 0.46307 0.48732 0.98568 0.0
C584 C 0.46849 0.46275 0.01976 0.0
H585 H 0.47645 0.53039 0.96191 0.0
H586 H 0.44482 0.48763 0.95651 0.0
C587 C 0.49262 0.4631 0.05615 0.0
C588 C 0.96205 0.48203 0.48632 0.0
C589 C 0.96252 0.50494 0.52636 0.0
H590 H 0.98464 0.44811 0.4487 0.0
C591 C 0.98715 0.51103 0.56034 0.0
H592 H 0.94331 0.47654 0.46018 0.0
C593 C 0.01082 0.49452 0.55438 0.0
C594 C 0.0103 0.47155 0.51444 0.0
H595 H -0.01191 0.5284 0.59216 0.0
H596 H 0.02958 0.49996 0.5805 0.0
C597 C 0.98566 0.46551 0.48046 0.0
C598 C -0.00792 0.96269 0.98482 0.0
C599 C 0.96877 0.96259 0.02419 0.0
H600 H 0.02829 0.98628 0.94861 0.0
C601 C 0.9645 -0.01293 0.05865 0.0
H602 H -0.0038 0.94404 0.95842 0.0
C603 C 0.98312 0.01114 0.05384 0.0
C604 C 0.00642 0.01125 1.01446 0.0
H605 H 0.9469 -0.01244 0.09004 0.0
H606 H 0.979 0.02979 0.08024 0.0
C607 C 0.0107 0.98677 0.98 0.0
C608 C 0.1336 0.08123 0.2581 0.0
C609 C 0.10979 0.07685 0.29615 0.0
H610 H 0.14914 0.08511 0.1671 0.0
C611 C 0.08278 0.0747 0.26997 0.0
H612 H 0.15475 0.08278 0.27666 0.0
C613 C 0.0796 0.07598 0.20763 0.0
C614 C 0.10336 0.07927 0.16916 0.0
H615 H 0.0639 0.07154 0.29767 0.0
H616 H 0.05834 0.07446 0.18983 0.0
C617 C 0.13041 0.08243 0.19526 0.0
C618 C 0.39988 0.07271 0.76958 0.0
C619 C 0.39726 0.0996 0.79582 0.0
H620 H 0.40078 0.04826 0.68945 0.0
C621 C 0.39282 0.12311 0.75785 0.0
H622 H 0.40311 0.05404 0.79724 0.0
C623 C 0.392 0.11986 0.69503 0.0
C624 C 0.39557 0.09305 0.66883 0.0
H625 H 0.39093 0.14419 0.77645 0.0
H626 H 0.38924 0.13846 0.66694 0.0
C627 C 0.39895 0.06946 0.70725 0.0
C628 C 0.39668 0.3952 0.27954 0.0
C629 C 0.37006 0.39121 0.30777 0.0
H630 H 0.4203 0.39711 0.19764 0.0
C631 C 0.34614 0.3851 0.27175 0.0
H632 H 0.41562 0.3997 0.30574 0.0
C633 C 0.34877 0.38412 0.20873 0.0
C634 C 0.37536 0.38924 0.18052 0.0
H635 H 0.32527 0.38215 0.292 0.0
H636 H 0.32992 0.38016 0.18203 0.0
C637 C 0.39931 0.39412 0.21707 0.0
C638 C 0.07343 0.34995 0.69884 0.0
C639 C 0.0725 0.37725 0.67224 0.0
H640 H 0.07231 0.32518 0.78072 0.0
C641 C 0.07173 0.40104 0.71035 0.0
H642 H 0.0741 0.33117 0.67108 0.0
C643 C 0.07065 0.39762 0.77277 0.0
C644 C 0.07061 0.37035 0.79938 0.0
H645 H 0.072 0.42252 0.69227 0.0
H646 H 0.06939 0.41648 0.80026 0.0
C647 C 0.07254 0.34654 0.76175 0.0
C648 C 0.6293 0.90181 0.77821 0.0
C649 C 0.60557 0.90461 0.74102 0.0
H650 H 0.64492 0.89938 0.86863 0.0
C651 C 0.5787 0.90547 0.76822 0.0
H652 H 0.65035 0.90132 0.75884 0.0
C653 C 0.57562 0.90439 0.8307 0.0
C654 C 0.59935 0.90264 0.8683 0.0
H655 H 0.55989 0.9074 0.74117 0.0
H656 H 0.55445 0.90481 0.84926 0.0
C657 C 0.62621 0.90085 0.84118 0.0
C658 C 0.59083 0.6304 0.26924 0.0
C659 C 0.58483 0.60629 0.23326 0.0
H660 H 0.59578 0.64672 0.35894 0.0
C661 C 0.58099 0.57946 0.2616 0.0
H662 H 0.59373 0.65143 0.24894 0.0
C663 C 0.58207 0.57682 0.32409 0.0
C664 C 0.58686 0.60095 0.36054 0.0
H665 H 0.57659 0.56036 0.2355 0.0
H666 H 0.57916 0.55567 0.34366 0.0
C667 C 0.59186 0.62774 0.33228 0.0
C668 C 0.90117 0.57381 0.83248 0.0
C669 C 0.87756 0.57647 0.87059 0.0
H670 H 0.91682 0.57027 0.74268 0.0
C671 C 0.85087 0.57943 0.84405 0.0
H672 H 0.92225 0.57249 0.85056 0.0
C673 C 0.84781 0.57867 0.78117 0.0
C674 C 0.87138 0.57494 0.7435 0.0
H675 H 0.83226 0.58163 0.87191 0.0
H676 H 0.82686 0.58006 0.76228 0.0
C677 C 0.89812 0.57295 0.7701 0.0
C678 C 0.8859 0.8452 0.28082 0.0
C679 C 0.89153 0.86898 0.24268 0.0
H680 H 0.88129 0.8297 0.37188 0.0
C681 C 0.89524 0.8961 0.26877 0.0
H682 H 0.88313 0.82396 0.26234 0.0
C683 C 0.89424 0.89934 0.3311 0.0
C684 C 0.88968 0.87555 0.36965 0.0
H685 H 0.8994 0.91497 0.241 0.0
H686 H 0.89697 0.92069 0.34882 0.0
C687 C 0.88497 0.84846 0.34364 0.0
C688 C 0.89544 0.89799 0.831 0.0
C689 C 0.87169 0.89478 0.86949 0.0
H690 H 0.91114 0.90234 0.74094 0.0
C691 C 0.84463 0.89165 0.8434 0.0
H692 H 0.9167 0.89948 0.84878 0.0
C693 C 0.84143 0.89281 0.78057 0.0
C694 C 0.86524 0.89711 0.74249 0.0
H695 H 0.82589 0.88903 0.87158 0.0
H696 H 0.82027 0.89129 0.76202 0.0
C697 C 0.89226 0.89924 0.76866 0.0
C698 C 0.58354 0.85449 0.34258 0.0
C699 C 0.57979 0.88125 0.36891 0.0
H700 H 0.5848 0.83029 0.261 0.0
C701 C 0.57632 0.90486 0.33062 0.0
H702 H 0.58638 0.83588 0.37057 0.0
C703 C 0.57546 0.90169 0.26827 0.0
C704 C 0.57824 0.87486 0.24189 0.0
H705 H 0.57436 0.92602 0.34854 0.0
H706 H 0.57214 0.92037 0.24071 0.0
C707 C 0.58278 0.85133 0.27973 0.0
C708 C 0.6299 0.58253 0.8355 0.0
C709 C 0.60263 0.58167 0.86166 0.0
H710 H 0.65455 0.58139 0.75402 0.0
C711 C 0.57905 0.58132 0.82323 0.0
H712 H 0.64853 0.5829 0.86359 0.0
C713 C 0.58247 0.58044 0.76086 0.0
C714 C 0.60959 0.58016 0.73467 0.0
H715 H 0.55773 0.58167 0.84107 0.0
H716 H 0.56368 0.57943 0.73313 0.0
C717 C 0.63335 0.5818 0.77265 0.0
C718 C 0.90217 0.57651 0.2702 0.0
C719 C 0.90021 0.60338 0.24251 0.0
H720 H 0.90253 0.55239 0.35168 0.0
C721 C 0.89649 0.62722 0.27926 0.0
H722 H 0.90484 0.55761 0.24352 0.0
C723 C 0.89567 0.62428 0.34229 0.0
C724 C 0.89856 0.59746 0.36989 0.0
H725 H 0.89512 0.64828 0.2595 0.0
H726 H 0.89344 0.64308 0.36941 0.0
C727 C 0.90126 0.57358 0.33273 0.0
C728 C 0.39958 0.07007 0.20713 0.0
C729 C 0.37588 0.07207 0.16955 0.0
H730 H 0.41528 0.06676 0.29662 0.0
C731 C 0.34904 0.07401 0.19669 0.0
H732 H 0.42074 0.06953 0.18855 0.0
C733 C 0.34594 0.07293 0.25966 0.0
C734 C 0.36963 0.06988 0.29682 0.0
H735 H 0.33035 0.07568 0.16924 0.0
H736 H 0.3249 0.07354 0.27904 0.0
C737 C 0.39649 0.06889 0.2696 0.0
C738 C 0.39291 0.39424 0.78088 0.0
C739 C 0.39442 0.36685 0.80627 0.0
H740 H 0.3905 0.4196 0.70148 0.0
C741 C 0.39381 0.34321 0.76762 0.0
H742 H 0.39312 0.41292 0.80923 0.0
C743 C 0.39299 0.34709 0.70487 0.0
C744 C 0.3926 0.37468 0.67942 0.0
H745 H 0.39521 0.32181 0.78567 0.0
H746 H 0.39356 0.32855 0.67638 0.0
C747 C 0.39181 0.39808 0.7186 0.0
C748 C 0.06891 0.39933 0.20936 0.0
C749 C 0.09249 0.39608 0.17145 0.0
H750 H 0.05323 0.4032 0.29907 0.0
C751 C 0.11899 0.39233 0.19822 0.0
H752 H 0.04793 0.40125 0.19114 0.0
C753 C 0.12193 0.39288 0.26113 0.0
C754 C 0.09843 0.39724 0.29856 0.0
H755 H 0.13758 0.38967 0.17055 0.0
H756 H 0.14278 0.39091 0.28022 0.0
C757 C 0.07186 0.40002 0.27177 0.0
C758 C 0.08998 0.12544 0.6949 0.0
C759 C 0.08538 0.09831 0.66896 0.0
H760 H 0.09173 0.14999 0.77614 0.0
C761 C 0.08092 0.07453 0.70757 0.0
H762 H 0.09359 0.14419 0.66662 0.0
C763 C 0.07991 0.07781 0.76989 0.0
C764 C 0.08351 0.10495 0.79591 0.0
H765 H 0.07827 0.05316 0.6899 0.0
H766 H 0.07582 0.05894 0.79771 0.0
C767 C 0.08905 0.12873 0.75771 0.0
C768 C 0.008 0.94857 0.24868 0.0
C769 C 0.01692 0.9224 0.22724 0.0
H770 H 0.01661 0.98381 0.30734 0.0
C771 C 0.0422 0.91187 0.24891 0.0
H772 H -0.01119 0.95742 0.23216 0.0
C773 C 0.05835 0.92719 0.2909 0.0
C774 C 0.04951 0.95334 0.31242 0.0
H775 H 0.04948 0.89167 0.23354 0.0
H776 H 0.07787 0.91862 0.30633 0.0
C777 C 0.02418 0.96393 0.29091 0.0
C778 C 0.56206 0.05186 0.74528 0.0
C779 C 0.55203 0.02509 0.72434 0.0
H780 H 0.55468 0.08713 0.80224 0.0
C781 C 0.52607 0.01312 0.74636 0.0
H782 H 0.58207 0.06152 0.72942 0.0
C783 C 0.51048 0.0277 0.78854 0.0
C784 C 0.52058 0.05449 0.80944 0.0
H785 H 0.51757 -0.00728 0.73038 0.0
H786 H 0.49079 0.01775 0.80544 0.0
C787 C 0.54648 0.06643 0.78727 0.0
C788 C 0.41626 0.54533 0.29006 0.0
C789 C 0.42558 0.51945 0.31264 0.0
H790 H 0.42477 0.5812 0.23207 0.0
C791 C 0.45151 0.50968 0.29205 0.0
H792 H 0.39629 0.55332 0.30457 0.0
C793 C 0.4677 0.52552 0.24954 0.0
C794 C 0.45826 0.55141 0.22701 0.0
H795 H 0.45951 0.49004 0.30923 0.0
H796 H 0.48729 0.51721 0.23365 0.0
C797 C 0.43247 0.5612 0.24806 0.0
C798 C 0.90819 0.42582 0.75184 0.0
C799 C 0.91944 0.45221 0.7299 0.0
H800 H 0.91389 0.39004 0.80962 0.0
C801 C 0.94577 0.46301 0.75115 0.0
H802 H 0.88785 0.41709 0.73659 0.0
C803 C 0.96059 0.44761 0.79342 0.0
C804 C 0.94932 0.42116 0.81518 0.0
H805 H 0.95519 0.48308 0.73444 0.0
H806 H 0.98062 0.45665 0.80965 0.0
C807 C 0.92299 0.41043 0.79393 0.0
C808 C 0.93295 0.062 0.78945 0.0
C809 C 0.95822 0.05144 0.81115 0.0
H810 H 0.89729 0.05528 0.732 0.0
C811 C 0.96714 0.02528 0.78967 0.0
H812 H 0.92568 0.08219 0.80485 0.0
C813 C 0.95096 0.00994 0.74742 0.0
C814 C 0.92563 0.02054 0.72592 0.0
H815 H 0.98632 0.01642 0.8062 0.0
H816 H 0.95852 -0.00995 0.73099 0.0
C817 C 0.91681 0.04669 0.74743 0.0
C818 C 0.42867 0.90772 0.25045 0.0
C819 C 0.45458 0.91965 0.22831 0.0
H820 H 0.39303 0.91267 0.30812 0.0
C821 C 0.46463 0.94649 0.24907 0.0
H822 H 0.42051 0.88699 0.23559 0.0
C823 C 0.44899 0.96111 0.29111 0.0
C824 C 0.42303 0.94914 0.31313 0.0
H825 H 0.48431 0.95644 0.23218 0.0
H826 H 0.45747 0.98153 0.30699 0.0
C827 C 0.41304 0.92233 0.29228 0.0
C828 C 0.55039 0.46639 0.78485 0.0
C829 C 0.54476 0.46014 0.72455 0.0
H830 H 0.54077 0.45537 0.87683 0.0
C831 C 0.52334 0.43959 0.70979 0.0
H832 H 0.56687 0.48227 0.79653 0.0
C833 C 0.50811 0.42484 0.75518 0.0
C834 C 0.51478 0.43001 0.81546 0.0
H835 H 0.51872 0.43484 0.66317 0.0
H836 H 0.49196 0.40863 0.74349 0.0
C837 C 0.5357 0.45108 0.83023 0.0
C838 C 0.01055 0.5267 0.24847 0.0
C839 C 0.02182 0.55294 0.22562 0.0
H840 H 0.01627 0.4914 0.30766 0.0
C841 C 0.04848 0.56351 0.2454 0.0
H842 H -0.00974 0.51777 0.23347 0.0
C843 C 0.06365 0.5481 0.28683 0.0
C844 C 0.05244 0.52188 0.30972 0.0
H845 H 0.05761 0.58376 0.22898 0.0
H846 H 0.08427 0.55669 0.30072 0.0
C847 C 0.02571 0.51132 0.29017 0.0
C848 C 0.22431 0.03527 0.55668 0.0
C849 C 0.20762 0.01461 0.52576 0.0
H850 H 0.26639 0.05125 0.57753 0.0
C851 C 0.22058 -0.00871 0.50024 0.0
H852 H 0.21479 0.05349 0.57659 0.0
C853 C 0.24995 -0.01006 0.50093 0.0
C854 C 0.26689 0.01194 0.52702 0.0
H855 H 0.20807 0.9748 0.47713 0.0
H856 H 0.25951 0.97244 0.47834 0.0
C857 C 0.2538 0.03396 0.55727 0.0
C858 C 0.43264 0.21942 0.05573 0.0
C859 C 0.45387 0.20584 0.02407 0.0
H860 H 0.41508 0.25923 0.07796 0.0
C861 C 0.4764 0.22244 0.99802 0.0
H862 H 0.415 0.20707 0.07605 0.0
C863 C 0.47648 0.25212 0.99921 0.0
C864 C 0.45401 0.26577 0.02638 0.0
H865 H 0.49331 0.21244 0.97435 0.0
H866 H 0.49346 0.26442 0.97641 0.0
C867 C 0.4327 0.24923 0.05686 0.0
C868 C 0.24868 0.42282 0.47399 0.0
C869 C 0.26481 0.4398 0.51414 0.0
H870 H 0.20751 0.41099 0.44059 0.0
C871 C 0.25088 0.45614 0.55676 0.0
H872 H 0.25886 0.40952 0.4416 0.0
C873 C 0.22125 0.45691 0.5563 0.0
C874 C 0.20542 0.44138 0.51313 0.0
H875 H 0.26292 0.46936 0.58825 0.0
H876 H 0.21087 0.47064 0.58749 0.0
C877 C 0.21934 0.42365 0.47341 0.0
C878 C 0.03949 0.25285 0.05766 0.0
C879 C 0.01691 0.26524 0.02809 0.0
H880 H 0.06057 0.21433 0.07592 0.0
C881 C -0.00437 0.24745 1.00199 0.0
H882 H 0.05624 0.2661 0.07791 0.0
C883 C -0.0018 0.21804 1.00058 0.0
C884 C 0.02202 0.20586 0.02549 0.0
H885 H 0.97772 0.25644 0.9799 0.0
H886 H 0.98224 0.20491 0.97744 0.0
C887 C 0.04201 0.22329 0.05644 0.0
C888 C 0.72524 0.98418 0.53699 0.0
C889 C 0.70827 0.96221 0.5109 0.0
H890 H 0.76712 -0.00076 0.56095 0.0
C891 C 0.72133 0.94013 0.4808 0.0
H892 H 0.7157 0.00173 0.55948 0.0
C893 C 0.75081 0.93874 0.48153 0.0
C894 C 0.76752 0.95939 0.51245 0.0
H895 H 0.70872 0.92285 0.46055 0.0
H896 H 0.7603 0.92048 0.46172 0.0
C897 C 0.7546 0.98276 0.53784 0.0
C898 C 0.54592 0.7255 0.98132 0.0
C899 C 0.52516 0.70857 1.01246 0.0
H900 H 0.56246 0.76801 0.96131 0.0
C901 C 0.50238 0.72166 0.03972 0.0
H902 H 0.56372 0.71585 0.96011 0.0
C903 C 0.50162 0.75128 0.04035 0.0
C904 C 0.52366 0.76837 1.01382 0.0
H905 H 0.48586 0.70899 0.06314 0.0
H906 H 0.48448 0.76086 0.06411 0.0
C907 C 0.54519 0.75528 0.98202 0.0
C908 C 0.75427 0.53994 0.48291 0.0
C909 C 0.7675 0.51824 0.51432 0.0
H910 H 0.715 0.55834 0.46116 0.0
C911 C 0.75073 0.49574 0.54035 0.0
H912 H 0.76672 0.55758 0.46264 0.0
C913 C 0.72128 0.49616 0.53946 0.0
C914 C 0.70802 0.5191 0.51257 0.0
H915 H 0.76044 0.47847 0.56383 0.0
H916 H 0.70888 0.4792 0.56228 0.0
C917 C 0.7247 0.54036 0.48205 0.0
C918 C 0.9765 0.7253 0.03744 0.0
C919 C 0.95472 0.70797 1.01185 0.0
H920 H -0.00894 0.76762 0.06114 0.0
C921 C 0.93244 0.72085 0.98224 0.0
H922 H -0.00582 0.7159 0.05954 0.0
C923 C 0.93071 0.75052 0.983 0.0
C924 C 0.9512 0.76755 1.01349 0.0
H925 H 0.91533 0.70795 0.96236 0.0
H926 H 0.91237 0.75991 0.96357 0.0
C927 C 0.97472 0.75482 0.03835 0.0
loop_
_geom_bond_atom_site_label_1
_geom_bond_atom_site_label_2
_geom_bond_distance
_geom_bond_site_symmetry_2
_ccdc_geom_bond_type
Co0 N4 2.148 . S
Co0 N10 2.128 1_545 S
Co0 N20 2.194 . S
Co0 O25 2.351 1_545 S
Co0 O26 2.155 . S
Co0 O27 2.096 . S
C1 N4 1.301 . S
C1 N5 1.328 . S
C1 H6 0.930 . S
C2 C3 1.333 . S
C2 N4 1.317 . S
C2 H7 0.930 . S
C3 C2 1.333 . S
C3 N5 1.350 . S
C3 H29 0.931 . S
N4 Co0 2.148 . S
N4 C1 1.301 . S
N4 C2 1.317 . S
N5 C1 1.328 . S
N5 C3 1.350 . S
H6 C1 0.930 . S
H7 C2 0.930 . S
C8 O9 1.224 . S
C8 O27 1.247 . S
O9 C8 1.224 . S
N10 Co0 2.128 1_565 S
N10 C11 1.355 . S
N10 C13 1.311 . S
C11 N10 1.355 . S
C11 C12 1.363 . S
C11 H23 0.929 . S
C12 C11 1.363 . S
C12 N14 1.375 . S
C12 H30 0.931 . S
C13 N10 1.311 . S
C13 N14 1.347 . S
C13 H24 0.946 . S
N14 C12 1.375 . S
N14 C13 1.347 . S
C15 C18 1.365 . S
C15 N20 1.328 1_565 S
C15 H21 0.929 . S
C16 C17 1.362 1_545 S
C16 C19 1.378 . S
C16 H31 0.929 . S
C17 C16 1.362 1_565 S
C17 C18 1.366 . S
C18 C15 1.365 . S
C18 C17 1.366 . S
C18 H32 0.930 . S
C19 C16 1.378 . S
C19 N20 1.315 . S
C19 H22 0.930 . S
N20 Co0 2.194 . S
N20 C15 1.328 1_545 S
N20 C19 1.315 . S
H21 C15 0.929 . S
H22 C19 0.930 . S
H23 C11 0.929 . S
H24 C13 0.946 . S
O25 Co0 2.351 1_565 S
O25 C28 1.244 . S
O26 Co0 2.155 . S
O26 C28 1.240 1_545 S
O27 Co0 2.096 . S
O27 C8 1.247 . S
C28 O25 1.244 . S
C28 O26 1.240 1_565 S
H29 C3 0.931 . S
H30 C12 0.931 . S
H31 C16 0.929 . S
H32 C18 0.930 . S
Co33 N37 2.148 1_556 S
Co33 N43 2.128 . S
Co33 N53 2.194 . S
Co33 O58 2.351 1_556 S
Co33 O59 2.155 . S
Co33 O60 2.096 . S
C34 N37 1.301 . S
C34 N38 1.328 . S
C34 H39 0.930 . S
C35 C36 1.333 . S
C35 N37 1.317 . S
C35 H40 0.930 1_554 S
C36 C35 1.333 . S
C36 N38 1.350 . S
C36 H62 0.931 . S
N37 Co33 2.148 1_554 S
N37 C34 1.301 . S
N37 C35 1.317 . S
N38 C34 1.328 . S
N38 C36 1.350 . S
H39 C34 0.930 . S
H40 C35 0.930 1_556 S
C41 O42 1.224 . S
C41 O60 1.247 . S
O42 C41 1.224 . S
N43 Co33 2.128 . S
N43 C44 1.355 . S
N43 C46 1.311 . S
C44 N43 1.355 . S
C44 C45 1.363 . S
C44 H56 0.929 . S
C45 C44 1.363 . S
C45 N47 1.375 . S
C45 H63 0.931 . S
C46 N43 1.311 . S
C46 N47 1.347 . S
C46 H57 0.929 . S
N47 C45 1.375 . S
N47 C46 1.347 . S
C48 C51 1.365 . S
C48 N53 1.328 1_554 S
C48 H54 0.929 . S
C49 C50 1.362 . S
C49 C52 1.378 . S
C49 H64 0.929 . S
C50 C49 1.362 . S
C50 C51 1.366 1_556 S
C51 C48 1.365 . S
C51 C50 1.366 1_554 S
C51 H65 0.930 . S
C52 C49 1.378 . S
C52 N53 1.315 . S
C52 H55 0.930 . S
N53 Co33 2.194 . S
N53 C48 1.328 1_556 S
N53 C52 1.315 . S
H54 C48 0.929 . S
H55 C52 0.930 . S
H56 C44 0.929 . S
H57 C46 0.929 . S
O58 Co33 2.351 1_554 S
O58 C61 1.244 . S
O59 Co33 2.155 . S
O59 C61 1.240 1_556 S
O60 Co33 2.096 . S
O60 C41 1.247 . S
C61 O58 1.244 . S
C61 O59 1.240 1_554 S
H62 C36 0.931 . S
H63 C45 0.931 . S
H64 C49 0.929 . S
H65 C51 0.930 . S
Co66 N70 2.148 . S
Co66 N76 2.128 . S
Co66 N86 2.194 . S
Co66 O91 2.351 . S
Co66 O92 2.155 . S
Co66 O93 2.096 . S
C67 N70 1.301 . S
C67 N71 1.328 . S
C67 H72 0.930 . S
C68 C69 1.333 . S
C68 N70 1.317 . S
C68 H73 0.930 . S
C69 C68 1.333 . S
C69 N71 1.350 . S
C69 H95 0.931 . S
N70 Co66 2.148 . S
N70 C67 1.301 . S
N70 C68 1.317 . S
N71 C67 1.328 . S
N71 C69 1.350 . S
H72 C67 0.930 . S
H73 C68 0.930 . S
C74 O75 1.224 . S
C74 O93 1.247 . S
O75 C74 1.224 . S
N76 Co66 2.128 . S
N76 C77 1.355 . S
N76 C79 1.311 . S
C77 N76 1.355 . S
C77 C78 1.363 . S
C77 H89 0.929 . S
C78 C77 1.363 . S
C78 N80 1.375 . S
C78 H96 0.931 . S
C79 N76 1.311 . S
C79 N80 1.347 . S
C79 H90 0.929 . S
N80 C78 1.375 . S
N80 C79 1.347 . S
C81 C84 1.365 . S
C81 N86 1.328 . S
C81 H87 0.929 . S
C82 C83 1.362 . S
C82 C85 1.378 . S
C82 H97 0.929 . S
C83 C82 1.362 . S
C83 C84 1.366 . S
C84 C81 1.365 . S
C84 C83 1.366 . S
C84 H98 0.930 . S
C85 C82 1.378 . S
C85 N86 1.315 . S
C85 H88 0.930 . S
N86 Co66 2.194 . S
N86 C81 1.328 . S
N86 C85 1.315 . S
H87 C81 0.929 . S
H88 C85 0.930 . S
H89 C77 0.929 . S
H90 C79 0.929 . S
O91 Co66 2.351 . S
O91 C94 1.244 . S
O92 Co66 2.155 . S
O92 C94 1.240 . S
O93 Co66 2.096 . S
O93 C74 1.247 . S
C94 O91 1.244 . S
C94 O92 1.240 . S
H95 C69 0.931 . S
H96 C78 0.931 . S
H97 C82 0.929 . S
H98 C84 0.930 . S
Co99 N103 2.148 1_556 S
Co99 N109 2.128 1_455 S
Co99 N119 2.194 1_455 S
Co99 O124 2.351 1_456 S
Co99 O125 2.155 1_455 S
Co99 O126 2.096 . S
C100 N103 1.301 . S
C100 N104 1.328 . S
C100 H105 0.930 . S
C101 C102 1.333 . S
C101 N103 1.317 . S
C101 H106 0.930 1_554 S
C102 C101 1.333 . S
C102 N104 1.350 . S
C102 H128 0.931 . S
N103 Co99 2.148 1_554 S
N103 C100 1.301 . S
N103 C101 1.317 . S
N104 C100 1.328 . S
N104 C102 1.350 . S
H105 C100 0.930 . S
H106 C101 0.930 1_556 S
C107 O108 1.224 . S
C107 O126 1.247 . S
O108 C107 1.224 . S
N109 Co99 2.128 1_655 S
N109 C110 1.355 . S
N109 C112 1.311 . S
C110 N109 1.355 . S
C110 C111 1.363 . S
C110 H122 0.929 . S
C111 C110 1.363 . S
C111 N113 1.375 . S
C111 H129 0.931 . S
C112 N109 1.311 . S
C112 N113 1.347 . S
C112 H123 0.929 . S
N113 C111 1.375 . S
N113 C112 1.347 . S
C114 C117 1.365 . S
C114 N119 1.328 1_554 S
C114 H120 0.929 . S
C115 C116 1.365 1_455 S
C115 C118 1.378 . S
C115 H130 0.929 . S
C116 C115 1.365 1_655 S
C116 C117 1.363 1_556 S
C117 C114 1.365 . S
C117 C116 1.363 1_554 S
C117 H131 0.930 . S
C118 C115 1.378 . S
C118 N119 1.315 1_455 S
C118 H121 0.930 . S
N119 Co99 2.194 1_655 S
N119 C114 1.328 1_556 S
N119 C118 1.315 1_655 S
H120 C114 0.929 . S
H121 C118 0.930 . S
H122 C110 0.929 . S
H123 C112 0.929 . S
O124 Co99 2.351 1_654 S
O124 C127 1.244 . S
O125 Co99 2.155 1_655 S
O125 C127 1.240 1_556 S
O126 Co99 2.096 . S
O126 C107 1.247 . S
C127 O124 1.244 . S
C127 O125 1.240 1_554 S
H128 C102 0.931 . S
H129 C111 0.931 . S
H130 C115 0.929 . S
H131 C117 0.930 . S
Co132 N136 2.148 . S
Co132 N142 2.128 1_565 S
Co132 N152 2.194 1_565 S
Co132 O157 2.351 1_565 S
Co132 O158 2.155 1_565 S
Co132 O159 2.096 . S
C133 N136 1.301 . S
C133 N137 1.328 . S
C133 H138 0.930 . S
C134 C135 1.333 . S
C134 N136 1.317 . S
C134 H139 0.930 . S
C135 C134 1.333 . S
C135 N137 1.350 . S
C135 H161 0.931 . S
N136 Co132 2.148 . S
N136 C133 1.301 . S
N136 C134 1.317 . S
N137 C133 1.328 . S
N137 C135 1.350 . S
H138 C133 0.930 . S
H139 C134 0.930 . S
C140 O141 1.224 . S
C140 O159 1.247 . S
O141 C140 1.224 . S
N142 Co132 2.128 1_545 S
N142 C143 1.355 . S
N142 C145 1.311 . S
C143 N142 1.355 . S
C143 C144 1.363 . S
C143 H155 0.929 . S
C144 C143 1.363 . S
C144 N146 1.375 . S
C144 H162 0.931 . S
C145 N142 1.311 . S
C145 N146 1.347 . S
C145 H156 0.929 . S
N146 C144 1.375 . S
N146 C145 1.347 . S
C147 C150 1.365 . S
C147 N152 1.328 . S
C147 H153 0.929 . S
C148 C149 1.384 . S
C148 C151 1.372 1_545 S
C148 H163 0.915 1_545 S
C149 C148 1.384 . S
C149 C150 1.366 . S
C150 C147 1.365 . S
C150 C149 1.366 . S
C150 H164 0.930 . S
C151 C148 1.372 1_565 S
C151 N152 1.315 1_565 S
C151 H154 0.930 . S
N152 Co132 2.194 1_545 S
N152 C147 1.328 . S
N152 C151 1.315 1_545 S
H153 C147 0.929 . S
H154 C151 0.930 . S
H155 C143 0.929 . S
H156 C145 0.929 . S
O157 Co132 2.351 1_545 S
O157 C160 1.244 . S
O158 Co132 2.155 1_545 S
O158 C160 1.240 . S
O159 Co132 2.096 . S
O159 C140 1.247 . S
C160 O157 1.244 . S
C160 O158 1.240 . S
H161 C135 0.931 . S
H162 C144 0.931 . S
H163 C148 0.915 1_565 S
H164 C150 0.930 . S
Co165 N169 2.148 1_554 S
Co165 N175 2.128 . S
Co165 N185 2.194 . S
Co165 O190 2.351 1_554 S
Co165 O191 2.155 . S
Co165 O192 2.096 . S
C166 N169 1.301 . S
C166 N170 1.328 . S
C166 H171 0.930 . S
C167 C168 1.333 1_554 S
C167 N169 1.317 1_554 S
C167 H172 0.930 . S
C168 C167 1.333 1_556 S
C168 N170 1.350 . S
C168 H194 0.931 . S
N169 Co165 2.148 1_556 S
N169 C166 1.301 . S
N169 C167 1.317 1_556 S
N170 C166 1.328 . S
N170 C168 1.350 . S
H171 C166 0.930 . S
H172 C167 0.930 . S
C173 O174 1.224 . S
C173 O192 1.247 . S
O174 C173 1.224 . S
N175 Co165 2.128 . S
N175 C176 1.355 . S
N175 C178 1.311 . S
C176 N175 1.355 . S
C176 C177 1.363 . S
C176 H188 0.929 . S
C177 C176 1.363 . S
C177 N179 1.375 . S
C177 H195 0.931 . S
C178 N175 1.311 . S
C178 N179 1.347 . S
C178 H189 0.929 . S
N179 C177 1.375 . S
N179 C178 1.347 . S
C180 C183 1.365 . S
C180 N185 1.328 1_556 S
C180 H186 0.929 . S
C181 C182 1.362 . S
C181 C184 1.378 . S
C181 H196 0.929 . S
C182 C181 1.362 . S
C182 C183 1.366 1_554 S
C183 C180 1.365 . S
C183 C182 1.366 1_556 S
C183 H197 0.930 . S
C184 C181 1.378 . S
C184 N185 1.315 . S
C184 H187 0.930 . S
N185 Co165 2.194 . S
N185 C180 1.328 1_554 S
N185 C184 1.315 . S
H186 C180 0.929 . S
H187 C184 0.930 . S
H188 C176 0.929 . S
H189 C178 0.929 . S
O190 Co165 2.351 1_556 S
O190 C193 1.244 . S
O191 Co165 2.155 . S
O191 C193 1.240 1_554 S
O192 Co165 2.096 . S
O192 C173 1.247 . S
C193 O190 1.244 . S
C193 O191 1.240 1_556 S
H194 C168 0.931 . S
H195 C177 0.931 . S
H196 C181 0.929 . S
H197 C183 0.930 . S
Co198 N202 2.148 . S
Co198 N208 2.128 . S
Co198 N218 2.194 . S
Co198 O223 2.351 . S
Co198 O224 2.155 . S
Co198 O225 2.096 . S
C199 N202 1.301 . S
C199 N203 1.328 . S
C199 H204 0.930 . S
C200 C201 1.333 . S
C200 N202 1.317 . S
C200 H205 0.930 . S
C201 C200 1.333 . S
C201 N203 1.350 . S
C201 H227 0.931 . S
N202 Co198 2.148 . S
N202 C199 1.301 . S
N202 C200 1.317 . S
N203 C199 1.328 . S
N203 C201 1.350 . S
H204 C199 0.930 . S
H205 C200 0.930 . S
C206 O207 1.224 . S
C206 O225 1.247 . S
O207 C206 1.224 . S
N208 Co198 2.128 . S
N208 C209 1.355 . S
N208 C211 1.311 . S
C209 N208 1.355 . S
C209 C210 1.363 . S
C209 H221 0.929 . S
C210 C209 1.363 . S
C210 N212 1.375 . S
C210 H228 0.931 . S
C211 N208 1.311 . S
C211 N212 1.347 . S
C211 H222 0.929 . S
N212 C210 1.375 . S
N212 C211 1.347 . S
C213 C216 1.365 . S
C213 N218 1.328 . S
C213 H219 0.929 . S
C214 C215 1.362 . S
C214 C217 1.378 . S
C214 H229 0.929 . S
C215 C214 1.362 . S
C215 C216 1.366 . S
C216 C213 1.365 . S
C216 C215 1.366 . S
C216 H230 0.930 . S
C217 C214 1.378 . S
C217 N218 1.315 . S
C217 H220 0.930 . S
N218 Co198 2.194 . S
N218 C213 1.328 . S
N218 C217 1.315 . S
H219 C213 0.929 . S
H220 C217 0.930 . S
H221 C209 0.929 . S
H222 C211 0.929 . S
O223 Co198 2.351 . S
O223 C226 1.244 . S
O224 Co198 2.155 . S
O224 C226 1.240 . S
O225 Co198 2.096 . S
O225 C206 1.247 . S
C226 O223 1.244 . S
C226 O224 1.240 . S
H227 C201 0.931 . S
H228 C210 0.931 . S
H229 C214 0.929 . S
H230 C216 0.930 . S
Co231 N235 2.148 1_554 S
Co231 N241 2.128 1_655 S
Co231 N251 2.194 . S
Co231 O256 2.351 1_654 S
Co231 O257 2.155 . S
Co231 O258 2.096 . S
C232 N235 1.301 . S
C232 N236 1.328 . S
C232 H237 0.930 . S
C233 C234 1.333 1_554 S
C233 N235 1.317 1_554 S
C233 H238 0.930 . S
C234 C233 1.333 1_556 S
C234 N236 1.350 . S
C234 H260 0.931 . S
N235 Co231 2.148 1_556 S
N235 C232 1.301 . S
N235 C233 1.317 1_556 S
N236 C232 1.328 . S
N236 C234 1.350 . S
H237 C232 0.930 . S
H238 C233 0.930 . S
C239 O240 1.224 . S
C239 O258 1.247 . S
O240 C239 1.224 . S
N241 Co231 2.128 1_455 S
N241 C242 1.355 . S
N241 C244 1.311 . S
C242 N241 1.355 . S
C242 C243 1.363 . S
C242 H254 0.929 . S
C243 C242 1.363 . S
C243 N245 1.375 . S
C243 H261 0.931 . S
C244 N241 1.311 . S
C244 N245 1.347 . S
C244 H255 0.929 1_455 S
N245 C243 1.375 . S
N245 C244 1.347 . S
C246 C249 1.365 . S
C246 N251 1.328 1_456 S
C246 H252 0.929 . S
C247 C248 1.373 . S
C247 C250 1.378 . S
C247 H262 0.929 . S
C248 C247 1.373 . S
C248 C249 1.361 1_654 S
C249 C246 1.365 . S
C249 C248 1.361 1_456 S
C249 H263 0.930 . S
C250 C247 1.378 . S
C250 N251 1.315 . S
C250 H253 0.930 . S
N251 Co231 2.194 . S
N251 C246 1.328 1_654 S
N251 C250 1.315 . S
H252 C246 0.929 . S
H253 C250 0.930 . S
H254 C242 0.929 . S
H255 C244 0.929 1_655 S
O256 Co231 2.351 1_456 S
O256 C259 1.244 . S
O257 Co231 2.155 . S
O257 C259 1.240 1_654 S
O258 Co231 2.096 . S
O258 C239 1.247 . S
C259 O256 1.244 . S
C259 O257 1.240 1_456 S
H260 C234 0.931 . S
H261 C243 0.931 . S
H262 C247 0.929 . S
H263 C249 0.930 . S
Co264 N268 2.148 . S
Co264 N274 2.128 1_565 S
Co264 N284 2.194 . S
Co264 O289 2.351 1_565 S
Co264 O290 2.155 . S
Co264 O291 2.096 . S
C265 N268 1.301 . S
C265 N269 1.328 . S
C265 H270 0.930 . S
C266 C267 1.333 . S
C266 N268 1.317 . S
C266 H271 0.930 . S
C267 C266 1.333 . S
C267 N269 1.350 . S
C267 H293 0.931 . S
N268 Co264 2.148 . S
N268 C265 1.301 . S
N268 C266 1.317 . S
N269 C265 1.328 . S
N269 C267 1.350 . S
H270 C265 0.930 . S
H271 C266 0.930 . S
C272 O273 1.224 . S
C272 O291 1.247 . S
O273 C272 1.224 . S
N274 Co264 2.128 1_545 S
N274 C275 1.355 . S
N274 C277 1.311 . S
C275 N274 1.355 . S
C275 C276 1.363 . S
C275 H287 0.929 . S
C276 C275 1.363 . S
C276 N278 1.375 . S
C276 H294 0.931 . S
C277 N274 1.311 . S
C277 N278 1.347 . S
C277 H288 0.946 . S
N278 C276 1.375 . S
N278 C277 1.347 . S
C279 C282 1.365 . S
C279 N284 1.328 1_545 S
C279 H285 0.929 . S
C280 C281 1.362 1_565 S
C280 C283 1.378 . S
C280 H295 0.929 . S
C281 C280 1.362 1_545 S
C281 C282 1.366 . S
C282 C279 1.365 . S
C282 C281 1.366 . S
C282 H296 0.930 . S
C283 C280 1.378 . S
C283 N284 1.315 . S
C283 H286 0.930 . S
N284 Co264 2.194 . S
N284 C279 1.328 1_565 S
N284 C283 1.315 . S
H285 C279 0.929 . S
H286 C283 0.930 . S
H287 C275 0.929 . S
H288 C277 0.946 . S
O289 Co264 2.351 1_545 S
O289 C292 1.244 . S
O290 Co264 2.155 . S
O290 C292 1.240 1_565 S
O291 Co264 2.096 . S
O291 C272 1.247 . S
C292 O289 1.244 . S
C292 O290 1.240 1_545 S
H293 C267 0.931 . S
H294 C276 0.931 . S
H295 C280 0.929 . S
H296 C282 0.930 . S
Co297 N301 2.148 1_554 S
Co297 N307 2.128 . S
Co297 N317 2.194 . S
Co297 O322 2.351 1_554 S
Co297 O323 2.155 . S
Co297 O324 2.096 . S
C298 N301 1.301 . S
C298 N302 1.328 . S
C298 H303 0.930 . S
C299 C300 1.333 . S
C299 N301 1.317 . S
C299 H304 0.930 1_556 S
C300 C299 1.333 . S
C300 N302 1.350 . S
C300 H326 0.931 . S
N301 Co297 2.148 1_556 S
N301 C298 1.301 . S
N301 C299 1.317 . S
N302 C298 1.328 . S
N302 C300 1.350 . S
H303 C298 0.930 . S
H304 C299 0.930 1_554 S
C305 O306 1.224 . S
C305 O324 1.247 . S
O306 C305 1.224 . S
N307 Co297 2.128 . S
N307 C308 1.355 . S
N307 C310 1.311 . S
C308 N307 1.355 . S
C308 C309 1.363 . S
C308 H320 0.929 . S
C309 C308 1.363 . S
C309 N311 1.375 . S
C309 H327 0.931 . S
C310 N307 1.311 . S
C310 N311 1.347 . S
C310 H321 0.929 . S
N311 C309 1.375 . S
N311 C310 1.347 . S
C312 C315 1.365 . S
C312 N317 1.328 1_556 S
C312 H318 0.929 . S
C313 C314 1.362 . S
C313 C316 1.378 . S
C313 H328 0.929 . S
C314 C313 1.362 . S
C314 C315 1.366 1_554 S
C315 C312 1.365 . S
C315 C314 1.366 1_556 S
C315 H329 0.930 . S
C316 C313 1.378 . S
C316 N317 1.315 . S
C316 H319 0.930 . S
N317 Co297 2.194 . S
N317 C312 1.328 1_554 S
N317 C316 1.315 . S
H318 C312 0.929 . S
H319 C316 0.930 . S
H320 C308 0.929 . S
H321 C310 0.929 . S
O322 Co297 2.351 1_556 S
O322 C325 1.244 . S
O323 Co297 2.155 . S
O323 C325 1.240 1_554 S
O324 Co297 2.096 . S
O324 C305 1.247 . S
C325 O322 1.244 . S
C325 O323 1.240 1_556 S
H326 C300 0.931 . S
H327 C309 0.931 . S
H328 C313 0.929 . S
H329 C315 0.930 . S
Co330 N334 2.148 . S
Co330 N340 2.128 . S
Co330 N350 2.194 . S
Co330 O355 2.351 . S
Co330 O356 2.155 . S
Co330 O357 2.096 . S
C331 N334 1.301 . S
C331 N335 1.328 . S
C331 H336 0.930 . S
C332 C333 1.333 . S
C332 N334 1.317 . S
C332 H337 0.930 . S
C333 C332 1.333 . S
C333 N335 1.350 . S
C333 H359 0.931 . S
N334 Co330 2.148 . S
N334 C331 1.301 . S
N334 C332 1.317 . S
N335 C331 1.328 . S
N335 C333 1.350 . S
H336 C331 0.930 . S
H337 C332 0.930 . S
C338 O339 1.224 . S
C338 O357 1.247 . S
O339 C338 1.224 . S
N340 Co330 2.128 . S
N340 C341 1.355 . S
N340 C343 1.311 . S
C341 N340 1.355 . S
C341 C342 1.363 . S
C341 H353 0.929 . S
C342 C341 1.363 . S
C342 N344 1.375 . S
C342 H360 0.931 . S
C343 N340 1.311 . S
C343 N344 1.347 . S
C343 H354 0.929 . S
N344 C342 1.375 . S
N344 C343 1.347 . S
C345 C348 1.365 . S
C345 N350 1.328 . S
C345 H351 0.929 . S
C346 C347 1.362 . S
C346 C349 1.378 . S
C346 H361 0.929 . S
C347 C346 1.362 . S
C347 C348 1.366 . S
C348 C345 1.365 . S
C348 C347 1.366 . S
C348 H362 0.930 . S
C349 C346 1.378 . S
C349 N350 1.315 . S
C349 H352 0.930 . S
N350 Co330 2.194 . S
N350 C345 1.328 . S
N350 C349 1.315 . S
H351 C345 0.929 . S
H352 C349 0.930 . S
H353 C341 0.929 . S
H354 C343 0.929 . S
O355 Co330 2.351 . S
O355 C358 1.244 . S
O356 Co330 2.155 . S
O356 C358 1.240 . S
O357 Co330 2.096 . S
O357 C338 1.247 . S
C358 O355 1.244 . S
C358 O356 1.240 . S
H359 C333 0.931 . S
H360 C342 0.931 . S
H361 C346 0.929 . S
H362 C348 0.930 . S
Co363 N367 2.148 1_554 S
Co363 N373 2.128 1_655 S
Co363 N383 2.194 1_655 S
Co363 O388 2.351 1_654 S
Co363 O389 2.155 1_655 S
Co363 O390 2.096 . S
C364 N367 1.301 . S
C364 N368 1.328 . S
C364 H369 0.930 . S
C365 C366 1.333 . S
C365 N367 1.317 . S
C365 H370 0.930 1_556 S
C366 C365 1.333 . S
C366 N368 1.350 . S
C366 H392 0.931 . S
N367 Co363 2.148 1_556 S
N367 C364 1.301 . S
N367 C365 1.317 . S
N368 C364 1.328 . S
N368 C366 1.350 . S
H369 C364 0.930 . S
H370 C365 0.930 1_554 S
C371 O372 1.224 . S
C371 O390 1.247 . S
O372 C371 1.224 . S
N373 Co363 2.128 1_455 S
N373 C374 1.355 . S
N373 C376 1.311 . S
C374 N373 1.355 . S
C374 C375 1.363 . S
C374 H386 0.929 . S
C375 C374 1.363 . S
C375 N377 1.375 . S
C375 H393 0.931 . S
C376 N373 1.311 . S
C376 N377 1.347 . S
C376 H387 0.929 . S
N377 C375 1.375 . S
N377 C376 1.347 . S
C378 C381 1.365 . S
C378 N383 1.328 1_556 S
C378 H384 0.929 . S
C379 C380 1.365 1_655 S
C379 C382 1.378 . S
C379 H394 0.929 . S
C380 C379 1.365 1_455 S
C380 C381 1.363 1_554 S
C381 C378 1.365 . S
C381 C380 1.363 1_556 S
C381 H395 0.930 . S
C382 C379 1.378 . S
C382 N383 1.315 1_655 S
C382 H385 0.930 . S
N383 Co363 2.194 1_455 S
N383 C378 1.328 1_554 S
N383 C382 1.315 1_455 S
H384 C378 0.929 . S
H385 C382 0.930 . S
H386 C374 0.929 . S
H387 C376 0.929 . S
O388 Co363 2.351 1_456 S
O388 C391 1.244 . S
O389 Co363 2.155 1_455 S
O389 C391 1.240 1_554 S
O390 Co363 2.096 . S
O390 C371 1.247 . S
C391 O388 1.244 . S
C391 O389 1.240 1_556 S
H392 C366 0.931 . S
H393 C375 0.931 . S
H394 C379 0.929 . S
H395 C381 0.930 . S
Co396 N400 2.148 . S
Co396 N406 2.128 1_545 S
Co396 N416 2.194 1_545 S
Co396 O421 2.351 1_545 S
Co396 O422 2.155 1_545 S
Co396 O423 2.096 . S
C397 N400 1.301 . S
C397 N401 1.328 . S
C397 H402 0.930 . S
C398 C399 1.333 . S
C398 N400 1.317 . S
C398 H403 0.930 . S
C399 C398 1.333 . S
C399 N401 1.350 . S
C399 H425 0.931 . S
N400 Co396 2.148 . S
N400 C397 1.301 . S
N400 C398 1.317 . S
N401 C397 1.328 . S
N401 C399 1.350 . S
H402 C397 0.930 . S
H403 C398 0.930 . S
C404 O405 1.224 . S
C404 O423 1.247 . S
O405 C404 1.224 . S
N406 Co396 2.128 1_565 S
N406 C407 1.355 . S
N406 C409 1.311 . S
C407 N406 1.355 . S
C407 C408 1.363 . S
C407 H419 0.929 . S
C408 C407 1.363 . S
C408 N410 1.375 . S
C408 H426 0.931 . S
C409 N406 1.311 . S
C409 N410 1.347 . S
C409 H420 0.929 . S
N410 C408 1.375 . S
N410 C409 1.347 . S
C411 C414 1.365 . S
C411 N416 1.328 . S
C411 H417 0.929 . S
C412 C413 1.384 . S
C412 C415 1.372 1_565 S
C412 H427 0.915 1_565 S
C413 C412 1.384 . S
C413 C414 1.366 . S
C414 C411 1.365 . S
C414 C413 1.366 . S
C414 H428 0.930 . S
C415 C412 1.372 1_545 S
C415 N416 1.315 1_545 S
C415 H418 0.930 . S
N416 Co396 2.194 1_565 S
N416 C411 1.328 . S
N416 C415 1.315 1_565 S
H417 C411 0.929 . S
H418 C415 0.930 . S
H419 C407 0.929 . S
H420 C409 0.929 . S
O421 Co396 2.351 1_565 S
O421 C424 1.244 . S
O422 Co396 2.155 1_565 S
O422 C424 1.240 . S
O423 Co396 2.096 . S
O423 C404 1.247 . S
C424 O421 1.244 . S
C424 O422 1.240 . S
H425 C399 0.931 . S
H426 C408 0.931 . S
H427 C412 0.915 1_545 S
H428 C414 0.930 . S
Co429 N433 2.148 1_556 S
Co429 N439 2.128 . S
Co429 N449 2.194 . S
Co429 O454 2.351 1_556 S
Co429 O455 2.155 . S
Co429 O456 2.096 . S
C430 N433 1.301 . S
C430 N434 1.328 . S
C430 H435 0.930 . S
C431 C432 1.333 1_556 S
C431 N433 1.317 1_556 S
C431 H436 0.930 . S
C432 C431 1.333 1_554 S
C432 N434 1.350 . S
C432 H458 0.931 . S
N433 Co429 2.148 1_554 S
N433 C430 1.301 . S
N433 C431 1.317 1_554 S
N434 C430 1.328 . S
N434 C432 1.350 . S
H435 C430 0.930 . S
H436 C431 0.930 . S
C437 O438 1.224 . S
C437 O456 1.247 . S
O438 C437 1.224 . S
N439 Co429 2.128 . S
N439 C440 1.355 . S
N439 C442 1.311 . S
C440 N439 1.355 . S
C440 C441 1.363 . S
C440 H452 0.929 . S
C441 C440 1.363 . S
C441 N443 1.375 . S
C441 H459 0.931 . S
C442 N439 1.311 . S
C442 N443 1.347 . S
C442 H453 0.929 . S
N443 C441 1.375 . S
N443 C442 1.347 . S
C444 C447 1.365 . S
C444 N449 1.328 1_554 S
C444 H450 0.929 . S
C445 C446 1.362 . S
C445 C448 1.378 . S
C445 H460 0.929 . S
C446 C445 1.362 . S
C446 C447 1.366 1_556 S
C447 C444 1.365 . S
C447 C446 1.366 1_554 S
C447 H461 0.930 . S
C448 C445 1.378 . S
C448 N449 1.315 . S
C448 H451 0.930 . S
N449 Co429 2.194 . S
N449 C444 1.328 1_556 S
N449 C448 1.315 . S
H450 C444 0.929 . S
H451 C448 0.930 . S
H452 C440 0.929 . S
H453 C442 0.929 . S
O454 Co429 2.351 1_554 S
O454 C457 1.244 . S
O455 Co429 2.155 . S
O455 C457 1.240 1_556 S
O456 Co429 2.096 . S
O456 C437 1.247 . S
C457 O454 1.244 . S
C457 O455 1.240 1_554 S
H458 C432 0.931 . S
H459 C441 0.931 . S
H460 C445 0.929 . S
H461 C447 0.930 . S
Co462 N466 2.148 . S
Co462 N472 2.128 . S
Co462 N482 2.194 . S
Co462 O487 2.351 . S
Co462 O488 2.155 . S
Co462 O489 2.096 . S
C463 N466 1.301 . S
C463 N467 1.328 . S
C463 H468 0.930 . S
C464 C465 1.333 . S
C464 N466 1.317 . S
C464 H469 0.930 . S
C465 C464 1.333 . S
C465 N467 1.350 . S
C465 H491 0.931 . S
N466 Co462 2.148 . S
N466 C463 1.301 . S
N466 C464 1.317 . S
N467 C463 1.328 . S
N467 C465 1.350 . S
H468 C463 0.930 . S
H469 C464 0.930 . S
C470 O471 1.224 . S
C470 O489 1.247 . S
O471 C470 1.224 . S
N472 Co462 2.128 . S
N472 C473 1.355 . S
N472 C475 1.311 . S
C473 N472 1.355 . S
C473 C474 1.363 . S
C473 H485 0.929 . S
C474 C473 1.363 . S
C474 N476 1.375 . S
C474 H492 0.931 . S
C475 N472 1.311 . S
C475 N476 1.347 . S
C475 H486 0.929 . S
N476 C474 1.375 . S
N476 C475 1.347 . S
C477 C480 1.365 . S
C477 N482 1.328 . S
C477 H483 0.929 . S
C478 C479 1.362 . S
C478 C481 1.378 . S
C478 H493 0.929 . S
C479 C478 1.362 . S
C479 C480 1.366 . S
C480 C477 1.365 . S
C480 C479 1.366 . S
C480 H494 0.930 . S
C481 C478 1.378 . S
C481 N482 1.315 . S
C481 H484 0.930 . S
N482 Co462 2.194 . S
N482 C477 1.328 . S
N482 C481 1.315 . S
H483 C477 0.929 . S
H484 C481 0.930 . S
H485 C473 0.929 . S
H486 C475 0.929 . S
O487 Co462 2.351 . S
O487 C490 1.244 . S
O488 Co462 2.155 . S
O488 C490 1.240 . S
O489 Co462 2.096 . S
O489 C470 1.247 . S
C490 O487 1.244 . S
C490 O488 1.240 . S
H491 C465 0.931 . S
H492 C474 0.931 . S
H493 C478 0.929 . S
H494 C480 0.930 . S
Co495 N499 2.148 1_556 S
Co495 N505 2.128 1_455 S
Co495 N515 2.194 . S
Co495 O520 2.351 1_456 S
Co495 O521 2.155 . S
Co495 O522 2.096 . S
C496 N499 1.301 . S
C496 N500 1.328 . S
C496 H501 0.930 . S
C497 C498 1.333 1_556 S
C497 N499 1.317 1_556 S
C497 H502 0.930 . S
C498 C497 1.333 1_554 S
C498 N500 1.350 . S
C498 H524 0.931 . S
N499 Co495 2.148 1_554 S
N499 C496 1.301 . S
N499 C497 1.317 1_554 S
N500 C496 1.328 . S
N500 C498 1.350 . S
H501 C496 0.930 . S
H502 C497 0.930 . S
C503 O504 1.224 . S
C503 O522 1.247 . S
O504 C503 1.224 . S
N505 Co495 2.128 1_655 S
N505 C506 1.355 . S
N505 C508 1.311 . S
C506 N505 1.355 . S
C506 C507 1.363 . S
C506 H518 0.929 . S
C507 C506 1.363 . S
C507 N509 1.375 . S
C507 H525 0.931 . S
C508 N505 1.311 . S
C508 N509 1.347 . S
C508 H519 0.929 1_655 S
N509 C507 1.375 . S
N509 C508 1.347 . S
C510 C513 1.365 . S
C510 N515 1.328 1_654 S
C510 H516 0.929 . S
C511 C512 1.373 . S
C511 C514 1.378 . S
C511 H526 0.929 . S
C512 C511 1.373 . S
C512 C513 1.361 1_456 S
C513 C510 1.365 . S
C513 C512 1.361 1_654 S
C513 H527 0.930 . S
C514 C511 1.378 . S
C514 N515 1.315 . S
C514 H517 0.930 . S
N515 Co495 2.194 . S
N515 C510 1.328 1_456 S
N515 C514 1.315 . S
H516 C510 0.929 . S
H517 C514 0.930 . S
H518 C506 0.929 . S
H519 C508 0.929 1_455 S
O520 Co495 2.351 1_654 S
O520 C523 1.244 . S
O521 Co495 2.155 . S
O521 C523 1.240 1_456 S
O522 Co495 2.096 . S
O522 C503 1.247 . S
C523 O520 1.244 . S
C523 O521 1.240 1_654 S
H524 C498 0.931 . S
H525 C507 0.931 . S
H526 C511 0.929 . S
H527 C513 0.930 . S
C528 C529 1.387 1_565 S
C528 H532 0.950 . S
C528 C537 1.390 1_655 S
C529 C528 1.387 1_545 S
C529 C531 1.387 . S
H530 C537 0.950 . S
C531 C529 1.387 . S
C531 C533 1.390 1_655 S
C531 H535 0.950 . S
H532 C528 0.950 . S
C533 C531 1.390 1_455 S
C533 C534 1.387 1_545 S
C533 H536 0.950 . S
C534 C533 1.387 1_565 S
C534 C537 1.387 . S
H535 C531 0.950 . S
H536 C533 0.950 . S
C537 C528 1.390 1_455 S
C537 H530 0.950 . S
C537 C534 1.387 . S
C538 C539 1.387 . S
C538 H542 0.950 . S
C538 C547 1.390 1_545 S
C539 C538 1.387 . S
C539 C541 1.387 1_554 S
H540 C547 0.950 . S
C541 C539 1.387 1_556 S
C541 C543 1.390 1_545 S
C541 H545 0.950 . S
H542 C538 0.950 . S
C543 C541 1.390 1_565 S
C543 C544 1.387 . S
C543 H546 0.950 . S
C544 C543 1.387 . S
C544 C547 1.387 1_556 S
H545 C541 0.950 . S
H546 C543 0.950 . S
C547 C538 1.390 1_565 S
C547 H540 0.950 . S
C547 C544 1.387 1_554 S
C548 C549 1.387 . S
C548 H552 0.950 . S
C548 C557 1.390 . S
C549 C548 1.387 . S
C549 C551 1.387 . S
H550 C557 0.950 . S
C551 C549 1.387 . S
C551 C553 1.390 . S
C551 H555 0.950 . S
H552 C548 0.950 . S
C553 C551 1.390 . S
C553 C554 1.387 . S
C553 H556 0.950 . S
C554 C553 1.387 . S
C554 C557 1.387 . S
H555 C551 0.950 . S
H556 C553 0.950 . S
C557 C548 1.390 . S
C557 H550 0.950 . S
C557 C554 1.387 . S
C558 C559 1.406 . S
C558 H562 0.951 . S
C558 C567 1.372 1_455 S
C559 C558 1.406 . S
C559 C561 1.387 1_556 S
H560 C567 0.950 . S
C561 C559 1.387 1_554 S
C561 C563 1.372 1_455 S
C561 H565 0.950 . S
H562 C558 0.951 . S
C563 C561 1.372 1_655 S
C563 C564 1.406 . S
C563 H566 0.951 . S
C564 C563 1.406 . S
C564 C567 1.387 1_554 S
H565 C561 0.950 . S
H566 C563 0.951 . S
C567 C558 1.372 1_655 S
C567 H560 0.950 . S
C567 C564 1.387 1_556 S
C568 C569 1.387 . S
C568 H572 0.950 . S
C568 C577 1.390 . S
C569 C568 1.387 . S
C569 C571 1.387 1_545 S
H570 C577 0.950 . S
C571 C569 1.387 1_565 S
C571 C573 1.390 . S
C571 H575 0.950 . S
H572 C568 0.950 . S
C573 C571 1.390 . S
C573 C574 1.387 . S
C573 H576 0.950 . S
C574 C573 1.387 . S
C574 C577 1.387 1_565 S
H575 C571 0.950 . S
H576 C573 0.950 . S
C577 C568 1.390 . S
C577 H570 0.950 . S
C577 C574 1.387 1_545 S
C578 C579 1.387 . S
C578 H582 0.950 . S
C578 C587 1.390 1_556 S
C579 C578 1.387 . S
C579 C581 1.387 . S
H580 C587 0.950 . S
C581 C579 1.387 . S
C581 C583 1.390 1_556 S
C581 H585 0.950 . S
H582 C578 0.950 . S
C583 C581 1.390 1_554 S
C583 C584 1.387 . S
C583 H586 0.950 . S
C584 C583 1.387 . S
C584 C587 1.387 . S
H585 C581 0.950 . S
H586 C583 0.950 . S
C587 C578 1.390 1_554 S
C587 H580 0.950 . S
C587 C584 1.387 . S
C588 C589 1.387 . S
C588 H592 0.950 . S
C588 C597 1.390 1_655 S
C589 C588 1.387 . S
C589 C591 1.387 . S
H590 C597 0.950 . S
C591 C589 1.387 . S
C591 C593 1.390 1_655 S
C591 H595 0.950 . S
H592 C588 0.950 . S
C593 C591 1.390 1_455 S
C593 C594 1.387 . S
C593 H596 0.950 . S
C594 C593 1.387 . S
C594 C597 1.387 . S
H595 C591 0.950 . S
H596 C593 0.950 . S
C597 C588 1.390 1_455 S
C597 H590 0.950 . S
C597 C594 1.387 . S
C598 C599 1.387 1_545 S
C598 H602 0.950 . S
C598 C607 1.390 . S
C599 C598 1.387 1_565 S
C599 C601 1.387 1_456 S
H600 C607 0.950 . S
C601 C599 1.387 1_654 S
C601 C603 1.390 . S
C601 H605 0.950 . S
H602 C598 0.950 . S
C603 C601 1.390 . S
C603 C604 1.387 1_565 S
C603 H606 0.950 . S
C604 C603 1.387 1_545 S
C604 C607 1.387 1_654 S
H605 C601 0.950 . S
H606 C603 0.950 . S
C607 C598 1.390 . S
C607 H600 0.950 . S
C607 C604 1.387 1_456 S
C608 C609 1.387 . S
C608 H612 0.950 . S
C608 C617 1.390 . S
C609 C608 1.387 . S
C609 C611 1.387 . S
H610 C617 0.950 . S
C611 C609 1.387 . S
C611 C613 1.390 . S
C611 H615 0.950 . S
H612 C608 0.950 . S
C613 C611 1.390 . S
C613 C614 1.387 . S
C613 H616 0.950 . S
C614 C613 1.387 . S
C614 C617 1.387 . S
H615 C611 0.950 . S
H616 C613 0.950 . S
C617 C608 1.390 . S
C617 H610 0.950 . S
C617 C614 1.387 . S
C618 C619 1.387 . S
C618 H622 0.950 . S
C618 C627 1.390 . S
C619 C618 1.387 . S
C619 C621 1.387 . S
H620 C627 0.950 . S
C621 C619 1.387 . S
C621 C623 1.390 . S
C621 H625 0.950 . S
H622 C618 0.950 . S
C623 C621 1.390 . S
C623 C624 1.387 . S
C623 H626 0.950 . S
C624 C623 1.387 . S
C624 C627 1.387 . S
H625 C621 0.950 . S
H626 C623 0.950 . S
C627 C618 1.390 . S
C627 H620 0.950 . S
C627 C624 1.387 . S
C628 C629 1.387 . S
C628 H632 0.950 . S
C628 C637 1.390 . S
C629 C628 1.387 . S
C629 C631 1.387 . S
H630 C637 0.950 . S
C631 C629 1.387 . S
C631 C633 1.390 . S
C631 H635 0.950 . S
H632 C628 0.950 . S
C633 C631 1.390 . S
C633 C634 1.387 . S
C633 H636 0.950 . S
C634 C633 1.387 . S
C634 C637 1.387 . S
H635 C631 0.950 . S
H636 C633 0.950 . S
C637 C628 1.390 . S
C637 H630 0.950 . S
C637 C634 1.387 . S
C638 C639 1.387 . S
C638 H642 0.950 . S
C638 C647 1.390 . S
C639 C638 1.387 . S
C639 C641 1.387 . S
H640 C647 0.950 . S
C641 C639 1.387 . S
C641 C643 1.390 . S
C641 H645 0.950 . S
H642 C638 0.950 . S
C643 C641 1.390 . S
C643 C644 1.387 . S
C643 H646 0.950 . S
C644 C643 1.387 . S
C644 C647 1.387 . S
H645 C641 0.950 . S
H646 C643 0.950 . S
C647 C638 1.390 . S
C647 H640 0.950 . S
C647 C644 1.387 . S
C648 C649 1.387 . S
C648 H652 0.950 . S
C648 C657 1.390 . S
C649 C648 1.387 . S
C649 C651 1.387 . S
H650 C657 0.950 . S
C651 C649 1.387 . S
C651 C653 1.390 . S
C651 H655 0.950 . S
H652 C648 0.950 . S
C653 C651 1.390 . S
C653 C654 1.387 . S
C653 H656 0.950 . S
C654 C653 1.387 . S
C654 C657 1.387 . S
H655 C651 0.950 . S
H656 C653 0.950 . S
C657 C648 1.390 . S
C657 H650 0.950 . S
C657 C654 1.387 . S
C658 C659 1.387 . S
C658 H662 0.950 . S
C658 C667 1.390 . S
C659 C658 1.387 . S
C659 C661 1.387 . S
H660 C667 0.950 . S
C661 C659 1.387 . S
C661 C663 1.390 . S
C661 H665 0.950 . S
H662 C658 0.950 . S
C663 C661 1.390 . S
C663 C664 1.387 . S
C663 H666 0.950 . S
C664 C663 1.387 . S
C664 C667 1.387 . S
H665 C661 0.950 . S
H666 C663 0.950 . S
C667 C658 1.390 . S
C667 H660 0.950 . S
C667 C664 1.387 . S
C668 C669 1.387 . S
C668 H672 0.950 . S
C668 C677 1.390 . S
C669 C668 1.387 . S
C669 C671 1.387 . S
H670 C677 0.950 . S
C671 C669 1.387 . S
C671 C673 1.390 . S
C671 H675 0.950 . S
H672 C668 0.950 . S
C673 C671 1.390 . S
C673 C674 1.387 . S
C673 H676 0.950 . S
C674 C673 1.387 . S
C674 C677 1.387 . S
H675 C671 0.950 . S
H676 C673 0.950 . S
C677 C668 1.390 . S
C677 H670 0.950 . S
C677 C674 1.387 . S
C678 C679 1.387 . S
C678 H682 0.950 . S
C678 C687 1.390 . S
C679 C678 1.387 . S
C679 C681 1.387 . S
H680 C687 0.950 . S
C681 C679 1.387 . S
C681 C683 1.390 . S
C681 H685 0.950 . S
H682 C678 0.950 . S
C683 C681 1.390 . S
C683 C684 1.387 . S
C683 H686 0.950 . S
C684 C683 1.387 . S
C684 C687 1.387 . S
H685 C681 0.950 . S
H686 C683 0.950 . S
C687 C678 1.390 . S
C687 H680 0.950 . S
C687 C684 1.387 . S
C688 C689 1.387 . S
C688 H692 0.950 . S
C688 C697 1.390 . S
C689 C688 1.387 . S
C689 C691 1.387 . S
H690 C697 0.950 . S
C691 C689 1.387 . S
C691 C693 1.390 . S
C691 H695 0.950 . S
H692 C688 0.950 . S
C693 C691 1.390 . S
C693 C694 1.387 . S
C693 H696 0.950 . S
C694 C693 1.387 . S
C694 C697 1.387 . S
H695 C691 0.950 . S
H696 C693 0.950 . S
C697 C688 1.390 . S
C697 H690 0.950 . S
C697 C694 1.387 . S
C698 C699 1.387 . S
C698 H702 0.950 . S
C698 C707 1.390 . S
C699 C698 1.387 . S
C699 C701 1.387 . S
H700 C707 0.950 . S
C701 C699 1.387 . S
C701 C703 1.390 . S
C701 H705 0.950 . S
H702 C698 0.950 . S
C703 C701 1.390 . S
C703 C704 1.387 . S
C703 H706 0.950 . S
C704 C703 1.387 . S
C704 C707 1.387 . S
H705 C701 0.950 . S
H706 C703 0.950 . S
C707 C698 1.390 . S
C707 H700 0.950 . S
C707 C704 1.387 . S
C708 C709 1.387 . S
C708 H712 0.950 . S
C708 C717 1.390 . S
C709 C708 1.387 . S
C709 C711 1.387 . S
H710 C717 0.950 . S
C711 C709 1.387 . S
C711 C713 1.390 . S
C711 H715 0.950 . S
H712 C708 0.950 . S
C713 C711 1.390 . S
C713 C714 1.387 . S
C713 H716 0.950 . S
C714 C713 1.387 . S
C714 C717 1.387 . S
H715 C711 0.950 . S
H716 C713 0.950 . S
C717 C708 1.390 . S
C717 H710 0.950 . S
C717 C714 1.387 . S
C718 C719 1.387 . S
C718 H722 0.950 . S
C718 C727 1.390 . S
C719 C718 1.387 . S
C719 C721 1.387 . S
H720 C727 0.950 . S
C721 C719 1.387 . S
C721 C723 1.390 . S
C721 H725 0.950 . S
H722 C718 0.950 . S
C723 C721 1.390 . S
C723 C724 1.387 . S
C723 H726 0.950 . S
C724 C723 1.387 . S
C724 C727 1.387 . S
H725 C721 0.950 . S
H726 C723 0.950 . S
C727 C718 1.390 . S
C727 H720 0.950 . S
C727 C724 1.387 . S
C728 C729 1.387 . S
C728 H732 0.950 . S
C728 C737 1.390 . S
C729 C728 1.387 . S
C729 C731 1.387 . S
H730 C737 0.950 . S
C731 C729 1.387 . S
C731 C733 1.390 . S
C731 H735 0.950 . S
H732 C728 0.950 . S
C733 C731 1.390 . S
C733 C734 1.387 . S
C733 H736 0.950 . S
C734 C733 1.387 . S
C734 C737 1.387 . S
H735 C731 0.950 . S
H736 C733 0.950 . S
C737 C728 1.390 . S
C737 H730 0.950 . S
C737 C734 1.387 . S
C738 C739 1.387 . S
C738 H742 0.950 . S
C738 C747 1.390 . S
C739 C738 1.387 . S
C739 C741 1.387 . S
H740 C747 0.950 . S
C741 C739 1.387 . S
C741 C743 1.390 . S
C741 H745 0.950 . S
H742 C738 0.950 . S
C743 C741 1.390 . S
C743 C744 1.387 . S
C743 H746 0.950 . S
C744 C743 1.387 . S
C744 C747 1.387 . S
H745 C741 0.950 . S
H746 C743 0.950 . S
C747 C738 1.390 . S
C747 H740 0.950 . S
C747 C744 1.387 . S
C748 C749 1.387 . S
C748 H752 0.950 . S
C748 C757 1.390 . S
C749 C748 1.387 . S
C749 C751 1.387 . S
H750 C757 0.950 . S
C751 C749 1.387 . S
C751 C753 1.390 . S
C751 H755 0.950 . S
H752 C748 0.950 . S
C753 C751 1.390 . S
C753 C754 1.387 . S
C753 H756 0.950 . S
C754 C753 1.387 . S
C754 C757 1.387 . S
H755 C751 0.950 . S
H756 C753 0.950 . S
C757 C748 1.390 . S
C757 H750 0.950 . S
C757 C754 1.387 . S
C758 C759 1.387 . S
C758 H762 0.950 . S
C758 C767 1.390 . S
C759 C758 1.387 . S
C759 C761 1.387 . S
H760 C767 0.950 . S
C761 C759 1.387 . S
C761 C763 1.390 . S
C761 H765 0.950 . S
H762 C758 0.950 . S
C763 C761 1.390 . S
C763 C764 1.387 . S
C763 H766 0.950 . S
C764 C763 1.387 . S
C764 C767 1.387 . S
H765 C761 0.950 . S
H766 C763 0.950 . S
C767 C758 1.390 . S
C767 H760 0.950 . S
C767 C764 1.387 . S
C768 C769 1.387 . S
C768 H772 0.950 . S
C768 C777 1.390 . S
C769 C768 1.387 . S
C769 C771 1.387 . S
H770 C777 0.950 . S
C771 C769 1.387 . S
C771 C773 1.390 . S
C771 H775 0.950 . S
H772 C768 0.950 . S
C773 C771 1.390 . S
C773 C774 1.387 . S
C773 H776 0.950 . S
C774 C773 1.387 . S
C774 C777 1.387 . S
H775 C771 0.950 . S
H776 C773 0.950 . S
C777 C768 1.390 . S
C777 H770 0.950 . S
C777 C774 1.387 . S
C778 C779 1.387 . S
C778 H782 0.950 . S
C778 C787 1.390 . S
C779 C778 1.387 . S
C779 C781 1.387 . S
H780 C787 0.950 . S
C781 C779 1.387 . S
C781 C783 1.390 . S
C781 H785 0.950 . S
H782 C778 0.950 . S
C783 C781 1.390 . S
C783 C784 1.387 . S
C783 H786 0.950 . S
C784 C783 1.387 . S
C784 C787 1.387 . S
H785 C781 0.950 . S
H786 C783 0.950 . S
C787 C778 1.390 . S
C787 H780 0.950 . S
C787 C784 1.387 . S
C788 C789 1.387 . S
C788 H792 0.950 . S
C788 C797 1.390 . S
C789 C788 1.387 . S
C789 C791 1.387 . S
H790 C797 0.950 . S
C791 C789 1.387 . S
C791 C793 1.390 . S
C791 H795 0.950 . S
H792 C788 0.950 . S
C793 C791 1.390 . S
C793 C794 1.387 . S
C793 H796 0.950 . S
C794 C793 1.387 . S
C794 C797 1.387 . S
H795 C791 0.950 . S
H796 C793 0.950 . S
C797 C788 1.390 . S
C797 H790 0.950 . S
C797 C794 1.387 . S
C798 C799 1.387 . S
C798 H802 0.950 . S
C798 C807 1.390 . S
C799 C798 1.387 . S
C799 C801 1.387 . S
H800 C807 0.950 . S
C801 C799 1.387 . S
C801 C803 1.390 . S
C801 H805 0.950 . S
H802 C798 0.950 . S
C803 C801 1.390 . S
C803 C804 1.387 . S
C803 H806 0.950 . S
C804 C803 1.387 . S
C804 C807 1.387 . S
H805 C801 0.950 . S
H806 C803 0.950 . S
C807 C798 1.390 . S
C807 H800 0.950 . S
C807 C804 1.387 . S
C808 C809 1.387 . S
C808 H812 0.950 . S
C808 C817 1.390 . S
C809 C808 1.387 . S
C809 C811 1.387 . S
H810 C817 0.950 . S
C811 C809 1.387 . S
C811 C813 1.390 . S
C811 H815 0.950 . S
H812 C808 0.950 . S
C813 C811 1.390 . S
C813 C814 1.387 . S
C813 H816 0.950 . S
C814 C813 1.387 . S
C814 C817 1.387 . S
H815 C811 0.950 . S
H816 C813 0.950 . S
C817 C808 1.390 . S
C817 H810 0.950 . S
C817 C814 1.387 . S
C818 C819 1.387 . S
C818 H822 0.950 . S
C818 C827 1.390 . S
C819 C818 1.387 . S
C819 C821 1.387 . S
H820 C827 0.950 . S
C821 C819 1.387 . S
C821 C823 1.390 . S
C821 H825 0.950 . S
H822 C818 0.950 . S
C823 C821 1.390 . S
C823 C824 1.387 . S
C823 H826 0.950 . S
C824 C823 1.387 . S
C824 C827 1.387 . S
H825 C821 0.950 . S
H826 C823 0.950 . S
C827 C818 1.390 . S
C827 H820 0.950 . S
C827 C824 1.387 . S
C828 C829 1.387 . S
C828 H832 0.950 . S
C828 C837 1.390 . S
C829 C828 1.387 . S
C829 C831 1.387 . S
H830 C837 0.950 . S
C831 C829 1.387 . S
C831 C833 1.390 . S
C831 H835 0.950 . S
H832 C828 0.950 . S
C833 C831 1.390 . S
C833 C834 1.387 . S
C833 H836 0.950 . S
C834 C833 1.387 . S
C834 C837 1.387 . S
H835 C831 0.950 . S
H836 C833 0.950 . S
C837 C828 1.390 . S
C837 H830 0.950 . S
C837 C834 1.387 . S
C838 C839 1.387 . S
C838 H842 0.950 . S
C838 C847 1.390 . S
C839 C838 1.387 . S
C839 C841 1.387 . S
H840 C847 0.950 . S
C841 C839 1.387 . S
C841 C843 1.390 . S
C841 H845 0.950 . S
H842 C838 0.950 . S
C843 C841 1.390 . S
C843 C844 1.387 . S
C843 H846 0.950 . S
C844 C843 1.387 . S
C844 C847 1.387 . S
H845 C841 0.950 . S
H846 C843 0.950 . S
C847 C838 1.390 . S
C847 H840 0.950 . S
C847 C844 1.387 . S
C848 C849 1.387 . S
C848 H852 0.950 . S
C848 C857 1.390 . S
C849 C848 1.387 . S
C849 C851 1.387 . S
H850 C857 0.950 . S
C851 C849 1.387 . S
C851 C853 1.390 . S
C851 H855 0.950 . S
H852 C848 0.950 . S
C853 C851 1.390 . S
C853 C854 1.387 . S
C853 H856 0.950 . S
C854 C853 1.387 . S
C854 C857 1.387 . S
H855 C851 0.950 . S
H856 C853 0.950 . S
C857 C848 1.390 . S
C857 H850 0.950 . S
C857 C854 1.387 . S
C858 C859 1.387 1_554 S
C858 H862 0.950 . S
C858 C867 1.390 . S
C859 C858 1.387 1_556 S
C859 C861 1.387 . S
H860 C867 0.950 . S
C861 C859 1.387 . S
C861 C863 1.390 . S
C861 H865 0.950 . S
H862 C858 0.950 . S
C863 C861 1.390 . S
C863 C864 1.387 . S
C863 H866 0.950 . S
C864 C863 1.387 . S
C864 C867 1.387 1_556 S
H865 C861 0.950 . S
H866 C863 0.950 . S
C867 C858 1.390 . S
C867 H860 0.950 . S
C867 C864 1.387 1_554 S
C868 C869 1.387 . S
C868 H872 0.950 . S
C868 C877 1.390 . S
C869 C868 1.387 . S
C869 C871 1.387 . S
H870 C877 0.950 . S
C871 C869 1.387 . S
C871 C873 1.390 . S
C871 H875 0.950 . S
H872 C868 0.950 . S
C873 C871 1.390 . S
C873 C874 1.387 . S
C873 H876 0.950 . S
C874 C873 1.387 . S
C874 C877 1.387 . S
H875 C871 0.950 . S
H876 C873 0.950 . S
C877 C868 1.390 . S
C877 H870 0.950 . S
C877 C874 1.387 . S
C878 C879 1.387 . S
C878 H882 0.950 . S
C878 C887 1.390 . S
C879 C878 1.387 . S
C879 C881 1.387 1_554 S
H880 C887 0.950 . S
C881 C879 1.387 1_556 S
C881 C883 1.390 . S
C881 H885 0.950 . S
H882 C878 0.950 . S
C883 C881 1.390 . S
C883 C884 1.387 . S
C883 H886 0.942 1_655 S
C884 C883 1.387 . S
C884 C887 1.387 1_556 S
H885 C881 0.950 . S
H886 C883 0.942 1_455 S
C887 C878 1.390 . S
C887 H880 0.950 . S
C887 C884 1.387 1_554 S
C888 C889 1.387 . S
C888 H892 0.950 . S
C888 C897 1.390 . S
C889 C888 1.387 . S
C889 C891 1.387 . S
H890 C897 0.950 . S
C891 C889 1.387 . S
C891 C893 1.390 . S
C891 H895 0.950 . S
H892 C888 0.950 . S
C893 C891 1.390 . S
C893 C894 1.387 . S
C893 H896 0.950 . S
C894 C893 1.387 . S
C894 C897 1.387 . S
H895 C891 0.950 . S
H896 C893 0.950 . S
C897 C888 1.390 . S
C897 H890 0.950 . S
C897 C894 1.387 . S
C898 C899 1.387 1_556 S
C898 H902 0.950 . S
C898 C907 1.390 . S
C899 C898 1.387 1_554 S
C899 C901 1.387 . S
H900 C907 0.950 . S
C901 C899 1.387 . S
C901 C903 1.390 . S
C901 H905 0.950 . S
H902 C898 0.950 . S
C903 C901 1.390 . S
C903 C904 1.387 . S
C903 H906 0.950 . S
C904 C903 1.387 . S
C904 C907 1.387 1_554 S
H905 C901 0.950 . S
H906 C903 0.950 . S
C907 C898 1.390 . S
C907 H900 0.950 . S
C907 C904 1.387 1_556 S
C908 C909 1.387 . S
C908 H912 0.950 . S
C908 C917 1.390 . S
C909 C908 1.387 . S
C909 C911 1.387 . S
H910 C917 0.950 . S
C911 C909 1.387 . S
C911 C913 1.390 . S
C911 H915 0.950 . S
H912 C908 0.950 . S
C913 C911 1.390 . S
C913 C914 1.387 . S
C913 H916 0.950 . S
C914 C913 1.387 . S
C914 C917 1.387 . S
H915 C911 0.950 . S
H916 C913 0.950 . S
C917 C908 1.390 . S
C917 H910 0.950 . S
C917 C914 1.387 . S
C918 C919 1.387 1_554 S
C918 H922 0.950 . S
C918 C927 1.390 . S
C919 C918 1.387 1_556 S
C919 C921 1.387 . S
H920 C927 0.950 . S
C921 C919 1.387 . S
C921 C923 1.390 . S
C921 H925 0.950 . S
H922 C918 0.950 . S
C923 C921 1.390 . S
C923 C924 1.387 1_556 S
C923 H926 0.950 . S
C924 C923 1.387 1_554 S
C924 C927 1.387 . S
H925 C921 0.950 . S
H926 C923 0.950 . S
C927 C918 1.390 . S
C927 H920 0.950 . S
C927 C924 1.387 . S
C529 C292 1.162 . S
C534 C28 1.162 . S
C539 C61 1.155 . S
C544 C325 1.155 . S
C549 C358 1.188 . S
C554 C94 1.188 . S
C559 C391 1.256 . S
C564 C127 1.256 . S
C569 C160 1.295 . S
C574 C424 1.295 . S
C579 C193 1.125 . S
C584 C457 1.125 . S
C589 C226 1.198 . S
C594 C490 1.198 . S
C599 C259 1.097 . S
C604 C523 1.097 . S
C609 C8 1.830 . S
C614 N500 1.855 . S
C619 C41 1.859 . S
C624 N401 1.886 . S
C629 C74 1.834 . S
C634 N434 1.862 . S
C639 N467 1.890 . S
C644 C107 1.875 . S
C649 C140 1.850 . S
C654 N302 1.869 . S
C659 C173 1.849 . S
C664 N335 1.872 . S
C669 N368 1.870 . S
C674 C206 1.841 . S
C679 C239 1.844 . S
C684 N269 1.871 . S
C689 N236 1.856 . S
C694 C272 1.830 . S
C699 N137 1.886 . S
C704 C305 1.859 . S
C709 N170 1.862 . S
C714 C338 1.834 . S
C719 C371 1.875 . S
C724 N203 1.890 . S
C729 N38 1.869 . S
C734 C404 1.850 . S
C739 C437 1.849 . S
C744 N71 1.872 . S
C749 N104 1.868 . S
C754 C470 1.843 . S
C759 N5 1.872 . S
C764 C503 1.842 . S
C769 N245 0.839 . S
C774 N14 0.840 . S
C779 N146 0.775 . S
C784 N47 0.774 . S
C789 N80 0.822 . S
C794 N179 0.822 . S
C799 N212 0.764 . S
C804 N113 0.765 . S
C809 N509 0.841 . S
C814 N278 0.840 . S
C819 N311 0.769 . S
C824 N410 0.770 . S
C829 N344 0.820 . S
C834 N443 0.820 . S
C839 N377 0.765 . S
C844 N476 0.766 . S
C849 C17 1.427 . S
C854 C413 1.391 . S
C859 C50 1.341 . S
C864 C446 1.356 . S
C869 C83 1.393 . S
C874 C479 1.380 . S
C879 C116 1.350 1_554 S
C884 C512 1.392 1_655 S
C889 C149 1.391 . S
C894 C281 1.427 . S
C899 C182 1.355 . S
C904 C314 1.343 . S
C909 C215 1.380 . S
C914 C347 1.393 . S
C919 C380 1.350 1_556 S
C924 C248 1.392 1_455 S
