# Generated by pormake.
# Topology pcb, (4)-cn, num edge types: 1
# Building blocks:
#     Node 0, Type 0, BuildingBlock: ICAMEG_clean_sbu_1, # of connection points: 4
#     Node 1, Type 0, BuildingBlock: ICAMEG_clean_sbu_1, # of connection points: 4
#     Node 2, Type 0, BuildingBlock: ICAMEG_clean_sbu_1, # of connection points: 4
#     Node 3, Type 0, BuildingBlock: ICAMEG_clean_sbu_1, # of connection points: 4
#     Node 4, Type 0, BuildingBlock: ICAMEG_clean_sbu_1, # of connection points: 4
#     Node 5, Type 0, BuildingBlock: ICAMEG_clean_sbu_1, # of connection points: 4
#     Node 6, Type 0, BuildingBlock: ICAMEG_clean_sbu_1, # of connection points: 4
#     Node 7, Type 0, BuildingBlock: ICAMEG_clean_sbu_1, # of connection points: 4
#     Node 8, Type 0, BuildingBlock: ICAMEG_clean_sbu_1, # of connection points: 4
#     Node 9, Type 0, BuildingBlock: ICAMEG_clean_sbu_1, # of connection points: 4
#     Node 10, Type 0, BuildingBlock: ICAMEG_clean_sbu_1, # of connection points: 4
#     Node 11, Type 0, BuildingBlock: ICAMEG_clean_sbu_1, # of connection points: 4
#     Node 12, Type 0, BuildingBlock: ICAMEG_clean_sbu_1, # of connection points: 4
#     Node 13, Type 0, BuildingBlock: ICAMEG_clean_sbu_1, # of connection points: 4
#     Node 14, Type 0, BuildingBlock: ICAMEG_clean_sbu_1, # of connection points: 4
#     Node 15, Type 0, BuildingBlock: ICAMEG_clean_sbu_1, # of connection points: 4
#     Edge 16, Type (0, 0), BuildingBlock: OJICUG_clean_linker_0, # of connection points: 2
#     Edge 17, Type (0, 0), BuildingBlock: OJICUG_clean_linker_0, # of connection points: 2
#     Edge 18, Type (0, 0), BuildingBlock: OJICUG_clean_linker_0, # of connection points: 2
#     Edge 19, Type (0, 0), BuildingBlock: OJICUG_clean_linker_0, # of connection points: 2
#     Edge 20, Type (0, 0), BuildingBlock: OJICUG_clean_linker_0, # of connection points: 2
#     Edge 21, Type (0, 0), BuildingBlock: OJICUG_clean_linker_0, # of connection points: 2
#     Edge 22, Type (0, 0), BuildingBlock: OJICUG_clean_linker_0, # of connection points: 2
#     Edge 23, Type (0, 0), BuildingBlock: OJICUG_clean_linker_0, # of connection points: 2
#     Edge 24, Type (0, 0), BuildingBlock: OJICUG_clean_linker_0, # of connection points: 2
#     Edge 25, Type (0, 0), BuildingBlock: OJICUG_clean_linker_0, # of connection points: 2
#     Edge 26, Type (0, 0), BuildingBlock: OJICUG_clean_linker_0, # of connection points: 2
#     Edge 27, Type (0, 0), BuildingBlock: OJICUG_clean_linker_0, # of connection points: 2
#     Edge 28, Type (0, 0), BuildingBlock: OJICUG_clean_linker_0, # of connection points: 2
#     Edge 29, Type (0, 0), BuildingBlock: OJICUG_clean_linker_0, # of connection points: 2
#     Edge 30, Type (0, 0), BuildingBlock: OJICUG_clean_linker_0, # of connection points: 2
#     Edge 31, Type (0, 0), BuildingBlock: OJICUG_clean_linker_0, # of connection points: 2
#     Edge 32, Type (0, 0), BuildingBlock: OJICUG_clean_linker_0, # of connection points: 2
#     Edge 33, Type (0, 0), BuildingBlock: OJICUG_clean_linker_0, # of connection points: 2
#     Edge 34, Type (0, 0), BuildingBlock: OJICUG_clean_linker_0, # of connection points: 2
#     Edge 35, Type (0, 0), BuildingBlock: OJICUG_clean_linker_0, # of connection points: 2
#     Edge 36, Type (0, 0), BuildingBlock: OJICUG_clean_linker_0, # of connection points: 2
#     Edge 37, Type (0, 0), BuildingBlock: OJICUG_clean_linker_0, # of connection points: 2
#     Edge 38, Type (0, 0), BuildingBlock: OJICUG_clean_linker_0, # of connection points: 2
#     Edge 39, Type (0, 0), BuildingBlock: OJICUG_clean_linker_0, # of connection points: 2
#     Edge 40, Type (0, 0), BuildingBlock: OJICUG_clean_linker_0, # of connection points: 2
#     Edge 41, Type (0, 0), BuildingBlock: OJICUG_clean_linker_0, # of connection points: 2
#     Edge 42, Type (0, 0), BuildingBlock: OJICUG_clean_linker_0, # of connection points: 2
#     Edge 43, Type (0, 0), BuildingBlock: OJICUG_clean_linker_0, # of connection points: 2
#     Edge 44, Type (0, 0), BuildingBlock: OJICUG_clean_linker_0, # of connection points: 2
#     Edge 45, Type (0, 0), BuildingBlock: OJICUG_clean_linker_0, # of connection points: 2
#     Edge 46, Type (0, 0), BuildingBlock: OJICUG_clean_linker_0, # of connection points: 2
#     Edge 47, Type (0, 0), BuildingBlock: OJICUG_clean_linker_0, # of connection points: 2
# Relax obj value: 0.342
# Max RMSD: 0.266
# Mean RMSD: 0.202
data_MOF--net-pcb--node1-ICAMEG_clean_sbu_1--edge1-OJICUG_clean_linker_0
_symmetry_space_group_name_H-M    P1
_symmetry_Int_Tables_number       1
_symmetry_cell_setting            triclinic
loop_
_symmetry_equiv_pos_as_xyz
'x, y, z'
_cell_length_a     40.172317
_cell_length_b     32.525958
_cell_length_c     33.230644
_cell_angle_alpha  95.636957
_cell_angle_beta   94.304632
_cell_angle_gamma 99.464215
loop_
_atom_site_label
_atom_site_type_symbol
_atom_site_fract_x
_atom_site_fract_y
_atom_site_fract_z
_atom_type_partial_charge
Co0 Co 0.13528 0.12122 0.12698 0.0
Co1 Co 0.16213 0.22639 0.14639 0.0
O2 O 0.16732 0.16873 0.15567 0.0
C3 C 0.15588 0.08468 0.20621 0.0
O4 O 0.18076 0.11499 0.22123 0.0
C5 C 0.23736 0.22587 0.1511 0.0
O6 O 0.23174 0.18949 0.12865 0.0
O7 O 0.16583 0.21263 0.08676 0.0
O8 O 0.12947 0.1519 0.07822 0.0
H9 H 0.11552 0.3353 0.07273 0.0
H10 H 0.20564 0.11178 0.15697 0.0
O11 O 0.13837 0.0868 0.17322 0.0
H12 H 0.19133 0.05441 0.01291 0.0
H13 H 0.09107 0.96857 0.08631 0.0
H14 H 0.06861 0.11218 0.07806 0.0
H15 H 0.14553 0.08386 0.04405 0.0
H16 H 0.13229 0.02899 0.11766 0.0
O17 O 0.21278 0.24513 0.15775 0.0
H18 H 0.12133 0.26346 0.08609 0.0
H19 H 0.19423 0.31165 0.18591 0.0
H20 H 0.02655 0.05194 0.0451 0.0
H21 H 0.25167 0.08159 0.12751 0.0
H22 H 0.03735 0.9793 0.0506 0.0
H23 H 0.24479 0.05256 0.05484 0.0
O24 O 0.09791 0.14452 0.15197 0.0
H25 H 0.19457 0.22443 0.2952 0.0
H26 H 0.11521 0.26921 0.19472 0.0
H27 H 0.10907 0.28389 0.26772 0.0
H28 H 0.14902 0.26162 0.31855 0.0
H29 H 0.19953 0.20986 0.2219 0.0
H30 H 0.18938 0.384 0.17343 0.0
H31 H 0.14969 0.3962 0.11659 0.0
O32 O 0.11098 0.21056 0.13719 0.0
C33 C 0.1465 0.18284 0.06387 0.0
C34 C 0.13285 0.33039 0.09764 0.0
C35 C 0.17434 0.35773 0.15411 0.0
N36 N 0.15798 0.28332 0.13684 0.0
C37 C 0.13621 0.28977 0.1054 0.0
C38 C 0.17706 0.31667 0.16095 0.0
C39 C 0.15205 0.36455 0.12223 0.0
C40 C 0.20191 0.09843 0.12577 0.0
N41 N 0.17233 0.09883 0.10279 0.0
C42 C 0.22835 0.08175 0.10901 0.0
C43 C 0.22454 0.06563 0.06822 0.0
C44 C 0.19459 0.06671 0.04469 0.0
C45 C 0.16874 0.08366 0.06252 0.0
C46 C 0.08573 0.99979 0.08421 0.0
C47 C 0.0736 0.08069 0.07965 0.0
C48 C 0.10905 0.03432 0.10206 0.0
N49 N 0.10286 0.07417 0.09974 0.0
C50 C 0.04965 0.04672 0.06117 0.0
C51 C 0.05574 0.00603 0.06391 0.0
C52 C 0.09055 0.18086 0.14928 0.0
C53 C 0.17706 0.23439 0.27335 0.0
C54 C 0.13263 0.25924 0.21661 0.0
C55 C 0.12906 0.26773 0.25793 0.0
C56 C 0.15148 0.25523 0.28643 0.0
N57 N 0.15785 0.23889 0.20398 0.0
C58 C 0.17981 0.22635 0.23177 0.0
Co59 Co 0.89534 0.14312 0.15584 0.0
Co60 Co 0.90139 0.19891 0.2477 0.0
O61 O 0.8755 0.17857 0.19502 0.0
C62 C 0.86542 0.20068 0.10351 0.0
O63 O 0.87884 0.23399 0.12863 0.0
C64 C 0.82976 0.17621 0.26646 0.0
O65 O 0.82774 0.14121 0.24242 0.0
O66 O 0.89821 0.13943 0.25848 0.0
O67 O 0.91913 0.11816 0.20093 0.0
H68 H 0.99094 0.19597 0.3608 0.0
H69 H 0.8206 0.13792 0.15107 0.0
O70 O 0.87072 0.16457 0.11052 0.0
H71 H 0.84085 0.99373 0.16092 0.0
H72 H 0.90035 0.06819 0.01741 0.0
H73 H 0.96437 0.12257 0.14932 0.0
H74 H 0.8884 0.05106 0.15828 0.0
H75 H 0.87113 0.09349 0.07511 0.0
O76 O 0.85759 0.20215 0.27263 0.0
H77 H 0.95953 0.17372 0.29342 0.0
H78 H 0.89519 0.26312 0.31605 0.0
H79 H 0.99497 0.10012 0.09191 0.0
H80 H 0.77184 0.08092 0.15198 0.0
H81 H 0.96293 0.07309 0.02503 0.0
H82 H 0.78181 0.00813 0.15722 0.0
O83 O 0.93429 0.18961 0.15726 0.0
H84 H 0.85369 0.32039 0.19872 0.0
H85 H 0.95671 0.27363 0.25425 0.0
H86 H 0.96004 0.3465 0.23808 0.0
H87 H 0.90825 0.37034 0.21022 0.0
H88 H 0.85159 0.24765 0.21492 0.0
H89 H 0.92569 0.2861 0.38381 0.0
H90 H 0.97405 0.25256 0.4065 0.0
O91 O 0.94662 0.1973 0.2242 0.0
C92 C 0.90977 0.11189 0.23618 0.0
C93 C 0.97 0.21094 0.3512 0.0
C94 C 0.93335 0.26148 0.36413 0.0
N95 N 0.92579 0.21738 0.30067 0.0
C96 C 0.95219 0.19855 0.31303 0.0
C97 C 0.91613 0.24828 0.32576 0.0
C98 C 0.96048 0.24266 0.37684 0.0
C99 C 0.82501 0.10621 0.15274 0.0
N100 N 0.85727 0.09782 0.15485 0.0
C101 C 0.79735 0.0741 0.1534 0.0
C102 C 0.80295 0.03327 0.15633 0.0
C103 C 0.83596 0.02504 0.15822 0.0
C104 C 0.8629 0.05777 0.15702 0.0
C105 C 0.91466 0.08043 0.0462 0.0
C106 C 0.95031 0.11127 0.12041 0.0
C107 C 0.8982 0.09445 0.07915 0.0
N108 N 0.91618 0.11083 0.11539 0.0
C109 C 0.96778 0.0985 0.08791 0.0
C110 C 0.94979 0.08331 0.05044 0.0
C111 C 0.95574 0.19951 0.18823 0.0
C112 C 0.87642 0.31041 0.21095 0.0
C113 C 0.93409 0.2837 0.24195 0.0
C114 C 0.93612 0.32504 0.23296 0.0
C115 C 0.90704 0.33841 0.21735 0.0
N116 N 0.90393 0.25646 0.23567 0.0
C117 C 0.87535 0.26931 0.22031 0.0
Co118 Co 0.89488 0.88412 0.14724 0.0
Co119 Co 0.86644 0.78431 0.16542 0.0
O120 O 0.86632 0.84447 0.1757 0.0
C121 C 0.8895 0.93721 0.22832 0.0
O122 O 0.86567 0.91118 0.24223 0.0
C123 C 0.79166 0.75205 0.15236 0.0
O124 O 0.79635 0.73065 0.11823 0.0
O125 O 0.85475 0.78613 0.10587 0.0
O126 O 0.89179 0.84312 0.09789 0.0
H127 H 0.89498 0.65451 0.09112 0.0
H128 H 0.82881 0.89809 0.17753 0.0
O129 O 0.90082 0.9283 0.19445 0.0
H130 H 0.82199 0.93002 0.03566 0.0
H131 H 0.93487 0.02544 0.1055 0.0
H132 H 0.95184 0.87861 0.09524 0.0
H133 H 0.87293 0.90772 0.06588 0.0
H134 H 0.90069 0.97508 0.14129 0.0
O135 O 0.81681 0.77495 0.17396 0.0
H136 H 0.89547 0.73055 0.10535 0.0
H137 H 0.83535 0.70943 0.20354 0.0
H138 H 0.98602 0.92865 0.05687 0.0
H139 H 0.77716 0.91917 0.14817 0.0
H140 H 0.97765 0.00273 0.06148 0.0
H141 H 0.77354 0.93589 0.07684 0.0
O142 O 0.93496 0.86381 0.17083 0.0
H143 H 0.85375 0.8189 0.31367 0.0
H144 H 0.91705 0.74758 0.2149 0.0
H145 H 0.93185 0.74713 0.28816 0.0
H146 H 0.90001 0.78282 0.33813 0.0
H147 H 0.84 0.81899 0.24012 0.0
H148 H 0.83407 0.63316 0.19032 0.0
H149 H 0.86409 0.60528 0.13379 0.0
O150 O 0.91695 0.79421 0.15859 0.0
C151 C 0.87076 0.81063 0.08349 0.0
C152 C 0.88182 0.66628 0.11586 0.0
C153 C 0.84762 0.65429 0.17152 0.0
N154 N 0.86551 0.72434 0.15524 0.0
C155 C 0.88204 0.70928 0.12406 0.0
C156 C 0.8484 0.69748 0.17884 0.0
C157 C 0.86448 0.63867 0.1398 0.0
C158 C 0.82782 0.90554 0.14668 0.0
N159 N 0.85467 0.90306 0.12416 0.0
C160 C 0.79825 0.91722 0.13005 0.0
C161 C 0.79622 0.92657 0.09003 0.0
C162 C 0.82343 0.92345 0.06699 0.0
C163 C 0.8524 0.91113 0.08448 0.0
C164 C 0.93912 0.99363 0.1028 0.0
C165 C 0.94807 0.91088 0.09732 0.0
C166 C 0.91985 0.96476 0.12353 0.0
N167 N 0.92403 0.9238 0.12015 0.0
C168 C 0.96764 0.93905 0.07573 0.0
C169 C 0.96298 0.98069 0.07839 0.0
C170 C 0.94038 0.82619 0.16936 0.0
C171 C 0.86775 0.80313 0.29219 0.0
C172 C 0.90316 0.76338 0.23641 0.0
C173 C 0.91161 0.76291 0.27788 0.0
C174 C 0.89373 0.78293 0.3059 0.0
N175 N 0.87754 0.78313 0.22317 0.0
C176 C 0.86 0.80297 0.25049 0.0
Co177 Co 0.13199 0.84153 0.13224 0.0
Co178 Co 0.15359 0.827 0.22984 0.0
O179 O 0.15933 0.81809 0.17178 0.0
C180 C 0.10657 0.76799 0.07214 0.0
O181 O 0.07647 0.76996 0.0843 0.0
C182 C 0.22637 0.85147 0.26212 0.0
O183 O 0.21859 0.88503 0.28195 0.0
O184 O 0.16399 0.88873 0.228 0.0
O185 O 0.13077 0.89242 0.17159 0.0
H186 H 0.11382 0.89612 0.35501 0.0
H187 H 0.19614 0.81672 0.10859 0.0
O188 O 0.13272 0.79164 0.09127 0.0
H189 H 0.20699 0.96675 0.08974 0.0
H190 H 0.09599 0.87491 0.99271 0.0
H191 H 0.06945 0.87832 0.13524 0.0
H192 H 0.15549 0.92953 0.11485 0.0
H193 H 0.13373 0.85146 0.04389 0.0
O194 O 0.20339 0.82526 0.2401 0.0
H195 H 0.11923 0.88333 0.28157 0.0
H196 H 0.1797 0.79066 0.30249 0.0
H197 H 0.03021 0.9003 0.0848 0.0
H198 H 0.24795 0.85262 0.08277 0.0
H199 H 0.0434 0.89944 0.01282 0.0
H200 H 0.25356 0.92814 0.07315 0.0
O201 O 0.09107 0.81168 0.1528 0.0
H202 H 0.17178 0.67853 0.19744 0.0
H203 H 0.09973 0.76896 0.2634 0.0
H204 H 0.08578 0.69228 0.26364 0.0
H205 H 0.12202 0.64652 0.23064 0.0
H206 H 0.1846 0.75533 0.19749 0.0
H207 H 0.17504 0.80252 0.37618 0.0
H208 H 0.14185 0.85555 0.40286 0.0
O209 O 0.10312 0.82851 0.21968 0.0
C210 C 0.14817 0.9093 0.20464 0.0
C211 C 0.12829 0.87288 0.34375 0.0
C212 C 0.16267 0.82036 0.35564 0.0
N213 N 0.14961 0.83615 0.28777 0.0
C214 C 0.13141 0.86546 0.3022 0.0
C215 C 0.16522 0.81378 0.3139 0.0
C216 C 0.14404 0.85011 0.37058 0.0
C217 C 0.1984 0.84956 0.10435 0.0
N218 N 0.17278 0.87091 0.11303 0.0
C219 C 0.2278 0.86974 0.08981 0.0
C220 C 0.23095 0.91214 0.08445 0.0
C221 C 0.20484 0.93382 0.09377 0.0
C222 C 0.17581 0.91261 0.10819 0.0
C223 C 0.08981 0.87574 0.02383 0.0
C224 C 0.07527 0.87737 0.10399 0.0
C225 C 0.11129 0.86274 0.05307 0.0
N226 N 0.10383 0.86356 0.09259 0.0
C227 C 0.05287 0.88985 0.07543 0.0
C228 C 0.06032 0.88925 0.03511 0.0
C229 C 0.08192 0.81596 0.18842 0.0
C230 C 0.15585 0.69815 0.21202 0.0
C231 C 0.11553 0.74926 0.24877 0.0
C232 C 0.10755 0.70586 0.24911 0.0
C233 C 0.12791 0.68021 0.23061 0.0
N234 N 0.14309 0.76666 0.23065 0.0
C235 C 0.16305 0.74168 0.21226 0.0
Co236 Co 0.12025 0.82881 0.8604 0.0
Co237 Co 0.11472 0.72879 0.8171 0.0
O238 O 0.13756 0.78758 0.82465 0.0
C239 C 0.12354 0.88948 0.79782 0.0
O240 O 0.09503 0.86895 0.77852 0.0
C241 C 0.18773 0.72391 0.8308 0.0
O242 O 0.18962 0.7523 0.8622 0.0
O243 O 0.12224 0.72644 0.87656 0.0
O244 O 0.10334 0.78559 0.8967 0.0
H245 H 0.03455 0.60399 0.85089 0.0
H246 H 0.19237 0.84515 0.84321 0.0
O247 O 0.1381 0.87425 0.82682 0.0
H248 H 0.19463 0.85354 0.99246 0.0
H249 H 0.12142 0.97217 0.93388 0.0
H250 H 0.05522 0.83006 0.89666 0.0
H251 H 0.14031 0.83882 0.94965 0.0
H252 H 0.14633 0.91725 0.89651 0.0
O253 O 0.15955 0.71082 0.80954 0.0
H254 H 0.06203 0.6783 0.85838 0.0
H255 H 0.12186 0.65349 0.76169 0.0
H256 H 0.02909 0.88406 0.93275 0.0
H257 H 0.24737 0.8603 0.88493 0.0
H258 H 0.06225 0.95601 0.95192 0.0
H259 H 0.24871 0.86447 0.96011 0.0
O260 O 0.07609 0.81491 0.82659 0.0
H261 H 0.15008 0.7672 0.68194 0.0
H262 H 0.05562 0.70309 0.75449 0.0
H263 H 0.04621 0.7082 0.68109 0.0
H264 H 0.09369 0.74032 0.64429 0.0
H265 H 0.1583 0.76179 0.75545 0.0
H266 H 0.09523 0.57884 0.75337 0.0
H267 H 0.05114 0.5537 0.79807 0.0
O268 O 0.06864 0.74496 0.82397 0.0
C269 C 0.11227 0.75087 0.90363 0.0
C270 C 0.05365 0.61459 0.83114 0.0
C271 C 0.08774 0.60046 0.77644 0.0
N272 N 0.0933 0.67027 0.81028 0.0
C273 C 0.06923 0.65665 0.83517 0.0
C274 C 0.10278 0.64275 0.78135 0.0
C275 C 0.06299 0.58638 0.80152 0.0
C276 C 0.19279 0.84719 0.87591 0.0
N277 N 0.16318 0.84105 0.89392 0.0
C278 C 0.22399 0.85566 0.89938 0.0
C279 C 0.22472 0.85794 0.94156 0.0
C280 C 0.19441 0.8518 0.95974 0.0
C281 C 0.16371 0.84333 0.9353 0.0
C282 C 0.10668 0.94108 0.92571 0.0
C283 C 0.06982 0.86115 0.90463 0.0
C284 C 0.12068 0.9098 0.90464 0.0
N285 N 0.10221 0.87046 0.89418 0.0
C286 C 0.05482 0.89178 0.92509 0.0
C287 C 0.07342 0.93201 0.93574 0.0
C288 C 0.05712 0.77901 0.8209 0.0
C289 C 0.12922 0.75305 0.69762 0.0
C290 C 0.07638 0.71726 0.73873 0.0
C291 C 0.07091 0.71998 0.69715 0.0
C292 C 0.09756 0.738 0.67652 0.0
N293 N 0.10754 0.73196 0.75918 0.0
C294 C 0.13375 0.74981 0.7392 0.0
Co295 Co 0.09803 0.13515 0.80916 0.0
Co296 Co 0.15687 0.22471 0.8173 0.0
O297 O 0.13981 0.16671 0.79256 0.0
C298 C 0.14159 0.06838 0.81142 0.0
O299 O 0.16464 0.09291 0.83707 0.0
C300 C 0.1763 0.222 0.73014 0.0
O301 O 0.15586 0.18621 0.71915 0.0
O302 O 0.11271 0.24106 0.79823 0.0
O303 O 0.07855 0.1872 0.81897 0.0
H304 H 0.147 0.35951 0.89961 0.0
H305 H 0.12122 0.10864 0.72962 0.0
O306 O 0.11516 0.08139 0.79825 0.0
H307 H 1.00537 0.13576 0.69835 0.0
H308 H 1.00102 0.01359 0.80178 0.0
H309 H 0.055 0.14972 0.87614 0.0
H310 H 0.03105 0.14475 0.76905 0.0
H311 H 0.05325 0.0528 0.78004 0.0
O312 O 0.17699 0.24065 0.76589 0.0
H313 H 0.12767 0.28644 0.8691 0.0
H314 H 0.22088 0.28648 0.81666 0.0
H315 H 1.00253 0.11179 0.89846 0.0
H316 H 0.09642 0.09888 0.6584 0.0
H317 H 0.97503 0.04337 0.861 0.0
H318 H 0.03811 0.11259 0.64239 0.0
O319 O 0.11878 0.1434 0.86639 0.0
H320 H 0.25563 0.14883 0.80248 0.0
H321 H 0.20254 0.24142 0.89461 0.0
H322 H 0.25566 0.21942 0.91861 0.0
H323 H 0.28276 0.17301 0.87228 0.0
H324 H 0.20223 0.17097 0.78002 0.0
H325 H 0.24105 0.35969 0.84614 0.0
H326 H 0.20407 0.39666 0.88815 0.0
O327 O 0.13947 0.21209 0.87108 0.0
C328 C 0.08347 0.22269 0.8054 0.0
C329 C 0.16336 0.34374 0.88138 0.0
C330 C 0.21611 0.34387 0.85131 0.0
N331 N 0.17308 0.28217 0.8411 0.0
C332 C 0.15256 0.30234 0.86407 0.0
C333 C 0.20447 0.30247 0.83449 0.0
C334 C 0.19537 0.36458 0.87491 0.0
C335 C 0.09585 0.1147 0.72286 0.0
N336 N 0.0778 0.12774 0.75342 0.0
C337 C 0.08193 0.1091 0.68249 0.0
C338 C 0.04922 0.1168 0.67353 0.0
C339 C 0.03085 0.12983 0.70489 0.0
C340 C 0.04561 0.1351 0.74487 0.0
C341 C 0.01272 0.04343 0.81826 0.0
C342 C 0.04324 0.11996 0.85962 0.0
C343 C 0.04241 0.06573 0.80621 0.0
N344 N 0.05714 0.10372 0.82661 0.0
C345 C 0.01354 0.09857 0.87249 0.0
C346 C 0.99816 0.06012 0.85152 0.0
C347 C 0.13083 0.17844 0.88742 0.0
C348 C 0.24418 0.16926 0.82288 0.0
C349 C 0.21397 0.22103 0.87433 0.0
C350 C 0.24416 0.20877 0.88806 0.0
C351 C 0.25936 0.18276 0.86207 0.0
N352 N 0.19932 0.208 0.83572 0.0
C353 C 0.21396 0.18214 0.81023 0.0
Co354 Co 0.90229 0.22678 0.88997 0.0
Co355 Co 0.87626 0.20259 0.78853 0.0
O356 O 0.87152 0.23044 0.84253 0.0
C357 C 0.84238 0.19977 0.93561 0.0
O358 O 0.83487 0.16342 0.91308 0.0
C359 C 0.86063 0.28767 0.77588 0.0
O360 O 0.8809 0.30439 0.80818 0.0
O361 O 0.92468 0.23163 0.79129 0.0
O362 O 0.94159 0.22749 0.85644 0.0
H363 H 0.93534 0.12382 0.68637 0.0
H364 H 0.86037 0.29362 0.89048 0.0
O365 O 0.86466 0.22858 0.92581 0.0
H366 H 0.97799 0.36808 0.92246 0.0
H367 H 0.94843 0.25678 0.03733 0.0
H368 H 0.95562 0.17588 0.90571 0.0
H369 H 0.96533 0.29089 0.91164 0.0
H370 H 0.91317 0.26673 0.97627 0.0
O371 O 0.85967 0.24945 0.76238 0.0
H372 H 0.92773 0.15754 0.75402 0.0
H373 H 0.83552 0.19078 0.70773 0.0
H374 H 0.99187 0.16556 0.96585 0.0
H375 H 0.87164 0.37087 0.90205 0.0
H376 H 0.98818 0.20589 0.03237 0.0
H377 H 0.93086 0.40868 0.91785 0.0
O378 O 0.8916 0.16414 0.88014 0.0
H379 H 0.75246 0.19532 0.80761 0.0
H380 H 0.83934 0.11528 0.76195 0.0
H381 H 0.78017 0.07943 0.75999 0.0
H382 H 0.73613 0.11961 0.78265 0.0
H383 H 0.81207 0.22963 0.80992 0.0
H384 H 0.84228 0.15772 0.63951 0.0
H385 H 0.8924 0.12376 0.62852 0.0
O386 O 0.89071 0.15306 0.81244 0.0
C387 C 0.94792 0.23476 0.82049 0.0
C388 C 0.91334 0.13843 0.69078 0.0
C389 C 0.86115 0.15753 0.66448 0.0
N390 N 0.88115 0.17597 0.7349 0.0
C391 C 0.90886 0.1575 0.72905 0.0
C392 C 0.85753 0.17636 0.70316 0.0
C393 C 0.88927 0.13845 0.65834 0.0
C394 C 0.88621 0.3098 0.89747 0.0
N395 N 0.91232 0.28768 0.89936 0.0
C396 C 0.89243 0.35358 0.90393 0.0
C397 C 0.92565 0.37476 0.91273 0.0
C398 C 0.95211 0.35202 0.91517 0.0
C399 C 0.94489 0.30827 0.90847 0.0
C400 C 0.95026 0.239 0.00853 0.0
C401 C 0.95415 0.19396 0.93442 0.0
C402 C 0.93022 0.24436 0.97387 0.0
N403 N 0.93222 0.22186 0.93741 0.0
C404 C 0.97466 0.18785 0.96841 0.0
C405 C 0.97257 0.21046 0.00573 0.0
C406 C 0.89019 0.13969 0.84732 0.0
C407 C 0.77141 0.17745 0.79769 0.0
C408 C 0.82053 0.1328 0.77251 0.0
C409 C 0.78696 0.11241 0.77104 0.0
C410 C 0.76227 0.13497 0.78371 0.0
N411 N 0.82937 0.17448 0.78623 0.0
C412 C 0.80526 0.19674 0.79884 0.0
Co413 Co 0.90428 0.88804 0.86458 0.0
Co414 Co 0.84785 0.80069 0.82692 0.0
O415 O 0.86506 0.86117 0.82653 0.0
C416 C 0.86513 0.95881 0.85055 0.0
O417 O 0.843 0.93471 0.82355 0.0
C418 C 0.83011 0.76827 0.7398 0.0
O419 O 0.8517 0.74249 0.7447 0.0
O420 O 0.89279 0.78978 0.81049 0.0
O421 O 0.92417 0.83485 0.8599 0.0
H422 H 0.85866 0.65434 0.85553 0.0
H423 H 0.88789 0.91821 0.78357 0.0
O424 O 0.88755 0.94352 0.87052 0.0
H425 H 0.01014 0.91428 0.79194 0.0
H426 H 0.99299 0.00758 0.9319 0.0
H427 H 0.9399 0.86028 0.93554 0.0
H428 H 0.97626 0.89156 0.84687 0.0
H429 H 0.94894 0.97229 0.8784 0.0
O430 O 0.82893 0.7974 0.76822 0.0
H431 H 0.87784 0.73038 0.85578 0.0
H432 H 0.78277 0.74227 0.79711 0.0
H433 H 0.98331 0.89444 0.98989 0.0
H434 H 0.92082 0.94146 0.72828 0.0
H435 H 1.01009 0.96887 0.98822 0.0
H436 H 0.98254 0.93982 0.73213 0.0
O437 O 0.87814 0.86935 0.91021 0.0
H438 H 0.74712 0.87387 0.81993 0.0
H439 H 0.80266 0.77349 0.89085 0.0
H440 H 0.74898 0.79112 0.91277 0.0
H441 H 0.72072 0.84149 0.87709 0.0
H442 H 0.80111 0.85578 0.79933 0.0
H443 H 0.76262 0.66642 0.79621 0.0
H444 H 0.80068 0.62186 0.82556 0.0
O445 O 0.86456 0.80172 0.88596 0.0
C446 C 0.92106 0.80496 0.8311 0.0
C447 C 0.84185 0.67342 0.84262 0.0
C448 C 0.78795 0.68019 0.80936 0.0
N449 N 0.83155 0.74084 0.82641 0.0
C450 C 0.85259 0.71651 0.84264 0.0
C451 C 0.79952 0.72316 0.80998 0.0
C452 C 0.80931 0.65521 0.82581 0.0
C453 C 0.9147 0.91832 0.78636 0.0
N454 N 0.93015 0.90549 0.81981 0.0
C455 C 0.93327 0.9311 0.75451 0.0
C456 C 0.96786 0.93005 0.75661 0.0
C457 C 0.98337 0.91586 0.79018 0.0
C458 C 0.96398 0.9033 0.82141 0.0
C459 C 0.98136 0.97529 0.93298 0.0
C460 C 0.95142 0.89254 0.93462 0.0
C461 C 0.95644 0.95509 0.90278 0.0
N462 N 0.94173 0.91422 0.90393 0.0
C463 C 0.97589 0.91188 0.96566 0.0
C464 C 0.9909 0.95353 0.96473 0.0
C465 C 0.86835 0.83104 0.91521 0.0
C466 C 0.75915 0.85181 0.83566 0.0
C467 C 0.79069 0.79567 0.87531 0.0
C468 C 0.76021 0.80541 0.88779 0.0
C469 C 0.74437 0.83366 0.86775 0.0
N470 N 0.80502 0.81351 0.8437 0.0
C471 C 0.78968 0.84137 0.82406 0.0
Co472 Co 0.60389 0.59494 0.61158 0.0
Co473 Co 0.62935 0.6996 0.63782 0.0
O474 O 0.63724 0.64156 0.64038 0.0
C475 C 0.63193 0.5592 0.68611 0.0
O476 O 0.65405 0.59312 0.69928 0.0
C477 C 0.70541 0.70469 0.63754 0.0
O478 O 0.70106 0.668 0.61573 0.0
O479 O 0.63027 0.69075 0.57766 0.0
O480 O 0.59395 0.62979 0.56657 0.0
H481 H 0.57441 0.81074 0.57825 0.0
H482 H 0.67585 0.58441 0.6311 0.0
O483 O 0.61202 0.55751 0.65412 0.0
H484 H 0.65039 0.53886 0.48473 0.0
H485 H 0.55468 0.44339 0.56519 0.0
H486 H 0.53434 0.58927 0.57228 0.0
H487 H 0.60721 0.56393 0.52477 0.0
H488 H 0.59975 0.50199 0.59397 0.0
O489 O 0.6798 0.7213 0.64598 0.0
H490 H 0.58399 0.73864 0.58464 0.0
H491 H 0.65976 0.78344 0.68229 0.0
H492 H 0.48844 0.53148 0.54354 0.0
H493 H 0.71939 0.55822 0.59259 0.0
H494 H 0.49823 0.4579 0.54075 0.0
H495 H 0.7069 0.53522 0.51873 0.0
O496 O 0.56883 0.61455 0.6437 0.0
H497 H 0.67122 0.68789 0.7819 0.0
H498 H 0.58368 0.73489 0.69413 0.0
H499 H 0.58156 0.74305 0.76836 0.0
H500 H 0.62564 0.71962 0.81283 0.0
H501 H 0.67212 0.67983 0.70749 0.0
H502 H 0.65121 0.85608 0.67671 0.0
H503 H 0.60817 0.8701 0.6245 0.0
O504 O 0.57839 0.68149 0.6319 0.0
C505 C 0.61062 0.66215 0.55377 0.0
C506 C 0.5932 0.80504 0.60118 0.0
C507 C 0.63633 0.83049 0.65639 0.0
N508 N 0.6223 0.75676 0.63393 0.0
C509 C 0.59869 0.76426 0.605 0.0
C510 C 0.64114 0.78928 0.65932 0.0
C511 C 0.61217 0.83833 0.62711 0.0
C512 C 0.66984 0.5739 0.59929 0.0
N513 N 0.63867 0.57535 0.58056 0.0
C514 C 0.69479 0.55935 0.57746 0.0
C515 C 0.68781 0.54656 0.53601 0.0
C516 C 0.65616 0.54861 0.51693 0.0
C517 C 0.63181 0.56311 0.53979 0.0
C518 C 0.55002 0.47533 0.5665 0.0
C519 C 0.53901 0.55738 0.57044 0.0
C520 C 0.57547 0.50868 0.58271 0.0
N521 N 0.56974 0.54913 0.58469 0.0
C522 C 0.51288 0.52478 0.55428 0.0
C523 C 0.5184 0.48349 0.55268 0.0
C524 C 0.56006 0.65036 0.64452 0.0
C525 C 0.65189 0.69826 0.76286 0.0
C526 C 0.60284 0.72435 0.71321 0.0
C527 C 0.60156 0.72918 0.75526 0.0
C528 C 0.6263 0.71604 0.78019 0.0
N529 N 0.62805 0.7069 0.6964 0.0
C530 C 0.65231 0.69385 0.72068 0.0
Co531 Co 0.35755 0.61528 0.6658 0.0
Co532 Co 0.37747 0.67905 0.75573 0.0
O533 O 0.34882 0.66012 0.7047 0.0
C534 C 0.35256 0.68342 0.61441 0.0
O535 O 0.3723 0.70897 0.64277 0.0
C536 C 0.30723 0.6645 0.77779 0.0
O537 O 0.30426 0.62757 0.75668 0.0
O538 O 0.37097 0.621 0.77122 0.0
O539 O 0.37195 0.58329 0.7108 0.0
H540 H 0.46913 0.67296 0.86544 0.0
H541 H 0.29059 0.64194 0.65983 0.0
O542 O 0.34293 0.64537 0.61992 0.0
H543 H 0.26668 0.49131 0.67654 0.0
H544 H 0.34201 0.53014 0.52939 0.0
H545 H 0.41377 0.5672 0.65907 0.0
H546 H 0.32547 0.52735 0.67363 0.0
H547 H 0.32288 0.57143 0.58676 0.0
O548 O 0.33565 0.68936 0.7821 0.0
H549 H 0.43425 0.64965 0.8004 0.0
H550 H 0.37856 0.74873 0.82129 0.0
H551 H 0.43382 0.52576 0.60247 0.0
H552 H 0.23148 0.60708 0.66216 0.0
H553 H 0.39853 0.50865 0.53655 0.0
H554 H 0.2193 0.53122 0.67069 0.0
O555 O 0.40459 0.64469 0.66469 0.0
H556 H 0.33944 0.8051 0.70313 0.0
H557 H 0.43775 0.74578 0.75393 0.0
H558 H 0.44671 0.81709 0.73289 0.0
H559 H 0.39731 0.84724 0.70735 0.0
H560 H 0.33167 0.7337 0.72398 0.0
H561 H 0.41267 0.77295 0.88673 0.0
H562 H 0.45843 0.73505 0.90909 0.0
O563 O 0.42 0.6689 0.73012 0.0
C564 C 0.37252 0.58698 0.74951 0.0
C565 C 0.44934 0.68982 0.85597 0.0
C566 C 0.41762 0.74591 0.86794 0.0
N567 N 0.40461 0.69803 0.80692 0.0
C568 C 0.42957 0.67684 0.81912 0.0
C569 C 0.39835 0.73201 0.8309 0.0
C570 C 0.4433 0.72464 0.88046 0.0
C571 C 0.28541 0.60882 0.66311 0.0
N572 N 0.31137 0.58663 0.66645 0.0
C573 C 0.25193 0.58929 0.66457 0.0
C574 C 0.24512 0.54675 0.66942 0.0
C575 C 0.27174 0.52431 0.67269 0.0
C576 C 0.30492 0.54488 0.6711 0.0
C577 C 0.35786 0.538 0.55782 0.0
C578 C 0.39765 0.55844 0.63097 0.0
C579 C 0.347 0.56098 0.59055 0.0
N580 N 0.36732 0.57206 0.62611 0.0
C581 C 0.40936 0.53547 0.59889 0.0
C582 C 0.38961 0.52605 0.56181 0.0
C583 C 0.42694 0.65979 0.69374 0.0
C584 C 0.36115 0.79236 0.71431 0.0
C585 C 0.41614 0.75859 0.74268 0.0
C586 C 0.42136 0.79904 0.73092 0.0
C587 C 0.39364 0.81596 0.71663 0.0
N588 N 0.3842 0.73564 0.74032 0.0
C589 C 0.35689 0.75201 0.72635 0.0
Co590 Co 0.41299 0.39076 0.68633 0.0
Co591 Co 0.37424 0.28953 0.67819 0.0
O592 O 0.37732 0.34783 0.70018 0.0
C593 C 0.39306 0.42616 0.76722 0.0
O594 O 0.37043 0.39295 0.77069 0.0
C595 C 0.29922 0.26475 0.65304 0.0
O596 O 0.30548 0.24603 0.61826 0.0
O597 O 0.37203 0.30625 0.62146 0.0
O598 O 0.41564 0.35929 0.63232 0.0
H599 H 0.40245 0.17193 0.58454 0.0
H600 H 0.34427 0.40731 0.70643 0.0
O601 O 0.41318 0.42572 0.73944 0.0
H602 H 0.35709 0.44944 0.57005 0.0
H603 H 0.4716 0.53925 0.68042 0.0
H604 H 0.47939 0.38957 0.65376 0.0
H605 H 0.40522 0.42995 0.60942 0.0
H606 H 0.4246 0.48455 0.69338 0.0
O607 O 0.32357 0.28393 0.67839 0.0
H608 H 0.40642 0.24551 0.61363 0.0
H609 H 0.33393 0.20826 0.69555 0.0
H610 H 0.52722 0.44314 0.64075 0.0
H611 H 0.29786 0.43298 0.67096 0.0
H612 H 0.52337 0.51872 0.65386 0.0
H613 H 0.30369 0.45411 0.60167 0.0
O614 O 0.44701 0.36017 0.7108 0.0
H615 H 0.3419 0.29055 0.82158 0.0
H616 H 0.415 0.23681 0.72345 0.0
H617 H 0.41874 0.21767 0.79338 0.0
H618 H 0.38188 0.24439 0.84295 0.0
H619 H 0.33929 0.30942 0.75154 0.0
H620 H 0.32918 0.13427 0.66737 0.0
H621 H 0.36359 0.11572 0.61143 0.0
O622 O 0.42524 0.29565 0.67988 0.0
C623 C 0.39443 0.33304 0.60831 0.0
C624 C 0.38729 0.17962 0.60887 0.0
C625 C 0.34618 0.15848 0.65537 0.0
N626 N 0.37035 0.2312 0.65612 0.0
C627 C 0.38941 0.22123 0.62542 0.0
C628 C 0.34897 0.20043 0.67119 0.0
C629 C 0.36549 0.1481 0.62398 0.0
C630 C 0.34842 0.41912 0.67789 0.0
N631 N 0.37838 0.4183 0.66105 0.0
C632 C 0.32147 0.43288 0.65734 0.0
C633 C 0.3247 0.44449 0.61847 0.0
C634 C 0.35487 0.44263 0.60098 0.0
C635 C 0.38189 0.43074 0.62325 0.0
C636 C 0.47351 0.50647 0.67434 0.0
C637 C 0.47752 0.4223 0.65923 0.0
C638 C 0.44695 0.47532 0.68155 0.0
N639 N 0.44913 0.4338 0.6738 0.0
C640 C 0.50466 0.45255 0.65188 0.0
C641 C 0.50254 0.49492 0.65939 0.0
C642 C 0.44982 0.32231 0.69904 0.0
C643 C 0.35806 0.27865 0.80024 0.0
C644 C 0.39908 0.24892 0.7449 0.0
C645 C 0.40122 0.23781 0.78444 0.0
C646 C 0.38051 0.25278 0.81222 0.0
N647 N 0.37687 0.27416 0.73328 0.0
C648 C 0.35663 0.28914 0.76046 0.0
Co649 Co 0.622 0.3177 0.6242 0.0
Co650 Co 0.66145 0.31255 0.71686 0.0
O651 O 0.65935 0.30252 0.65735 0.0
C652 C 0.63973 0.24023 0.57729 0.0
O653 O 0.66357 0.23653 0.60525 0.0
C654 C 0.73527 0.34492 0.73748 0.0
O655 O 0.72706 0.37768 0.75825 0.0
O656 O 0.66513 0.37358 0.7122 0.0
O657 O 0.62154 0.36817 0.66438 0.0
H658 H 0.63448 0.38145 0.84977 0.0
H659 H 0.68729 0.30929 0.58817 0.0
O660 O 0.62138 0.2684 0.58253 0.0
H661 H 0.6661 0.4503 0.56495 0.0
H662 H 0.54914 0.31998 0.49438 0.0
H663 H 0.55996 0.35249 0.6432 0.0
H664 H 0.62597 0.40366 0.59972 0.0
H665 H 0.60122 0.31251 0.53494 0.0
O666 O 0.71212 0.31688 0.71799 0.0
H667 H 0.63056 0.36663 0.77521 0.0
H668 H 0.70011 0.28206 0.78502 0.0
H669 H 0.50857 0.36299 0.60317 0.0
H670 H 0.72665 0.35367 0.55066 0.0
H671 H 0.50265 0.34633 0.52842 0.0
H672 H 0.7163 0.42493 0.53888 0.0
O673 O 0.58986 0.28209 0.6538 0.0
H674 H 0.69109 0.16932 0.68498 0.0
H675 H 0.61771 0.25092 0.75992 0.0
H676 H 0.61193 0.17489 0.76421 0.0
H677 H 0.64894 0.13359 0.72676 0.0
H678 H 0.69568 0.24529 0.68104 0.0
H679 H 0.70481 0.29603 0.8597 0.0
H680 H 0.67182 0.34602 0.89256 0.0
O681 O 0.61048 0.3084 0.71672 0.0
C682 C 0.64267 0.38935 0.69267 0.0
C683 C 0.64895 0.35956 0.83581 0.0
C684 C 0.68841 0.31162 0.84139 0.0
N685 N 0.66496 0.32339 0.77573 0.0
C686 C 0.6468 0.35101 0.79359 0.0
C687 C 0.68562 0.30382 0.79909 0.0
C688 C 0.66991 0.33968 0.8598 0.0
C689 C 0.68185 0.33951 0.58215 0.0
N690 N 0.65365 0.35308 0.5952 0.0
C691 C 0.70456 0.36485 0.56128 0.0
C692 C 0.6988 0.40485 0.55476 0.0
C693 C 0.67057 0.41902 0.56921 0.0
C694 C 0.64799 0.39245 0.58906 0.0
C695 C 0.55147 0.32748 0.52704 0.0
C696 C 0.55811 0.34593 0.61059 0.0
C697 C 0.58086 0.32302 0.55032 0.0
N698 N 0.58364 0.33132 0.59173 0.0
C699 C 0.52877 0.35179 0.58813 0.0
C700 C 0.52539 0.34226 0.54612 0.0
C701 C 0.58567 0.2914 0.69086 0.0
C702 C 0.67481 0.18697 0.70143 0.0
C703 C 0.6336 0.23312 0.74308 0.0
C704 C 0.63035 0.19009 0.74583 0.0
C705 C 0.65114 0.16694 0.72485 0.0
N706 N 0.65695 0.25259 0.72012 0.0
C707 C 0.67733 0.23004 0.69937 0.0
Co708 Co 0.65436 0.33038 0.38121 0.0
Co709 Co 0.63774 0.23436 0.32157 0.0
O710 O 0.66201 0.29203 0.33513 0.0
C711 C 0.64064 0.38696 0.31879 0.0
O712 O 0.61573 0.35813 0.301 0.0
C713 C 0.7102 0.22602 0.33067 0.0
O714 O 0.71282 0.25111 0.36461 0.0
O715 O 0.64462 0.22179 0.3791 0.0
O716 O 0.64885 0.28442 0.41651 0.0
H717 H 0.55291 0.10723 0.33974 0.0
H718 H 0.71537 0.35125 0.33715 0.0
O719 O 0.66009 0.37858 0.34769 0.0
H720 H 0.75872 0.34348 0.47857 0.0
H721 H 0.67565 0.47094 0.46461 0.0
H722 H 0.60456 0.33042 0.44383 0.0
H723 H 0.69724 0.33202 0.45877 0.0
H724 H 0.68867 0.41612 0.41497 0.0
O725 O 0.68162 0.21537 0.30967 0.0
H726 H 0.58334 0.17994 0.3567 0.0
H727 H 0.64188 0.16584 0.25659 0.0
H728 H 0.58975 0.38587 0.49255 0.0
H729 H 0.77714 0.36318 0.3557 0.0
H730 H 0.62502 0.45617 0.50295 0.0
H731 H 0.79915 0.35918 0.42683 0.0
O732 O 0.60427 0.31783 0.36589 0.0
H733 H 0.67371 0.29087 0.1932 0.0
H734 H 0.5779 0.22085 0.25998 0.0
H735 H 0.56827 0.23751 0.18969 0.0
H736 H 0.61642 0.27266 0.15579 0.0
H737 H 0.68213 0.27402 0.26362 0.0
H738 H 0.61229 0.09287 0.23874 0.0
H739 H 0.56735 0.06319 0.28038 0.0
O740 O 0.59357 0.25231 0.33274 0.0
C741 C 0.64684 0.24475 0.41293 0.0
C742 C 0.57237 0.11985 0.3213 0.0
C743 C 0.60574 0.11177 0.26464 0.0
N744 N 0.61418 0.17717 0.30749 0.0
C745 C 0.58962 0.16102 0.33069 0.0
C746 C 0.62246 0.15306 0.27495 0.0
C747 C 0.58051 0.09514 0.28801 0.0
C748 C 0.72481 0.34985 0.36823 0.0
N749 N 0.70277 0.3411 0.39684 0.0
C750 C 0.75978 0.35647 0.37853 0.0
C751 C 0.77211 0.35416 0.41844 0.0
C752 C 0.74945 0.3453 0.44747 0.0
C753 C 0.71466 0.33874 0.43605 0.0
C754 C 0.65984 0.44025 0.46027 0.0
C755 C 0.62018 0.36114 0.44834 0.0
C756 C 0.6672 0.40887 0.43233 0.0
N757 N 0.64715 0.37006 0.42609 0.0
C758 C 0.61175 0.39214 0.47607 0.0
C759 C 0.63154 0.43195 0.48176 0.0
C760 C 0.58399 0.28521 0.34873 0.0
C761 C 0.65255 0.27544 0.2076 0.0
C762 C 0.59896 0.23629 0.2455 0.0
C763 C 0.59336 0.24555 0.20565 0.0
C764 C 0.62039 0.26526 0.18665 0.0
N765 N 0.63059 0.24627 0.26581 0.0
C766 C 0.65719 0.2657 0.24742 0.0
Co767 Co 0.58702 0.62316 0.29525 0.0
Co768 Co 0.64694 0.71337 0.31692 0.0
O769 O 0.63171 0.65587 0.28959 0.0
C770 C 0.63203 0.56176 0.31471 0.0
O771 O 0.65212 0.59115 0.33926 0.0
C772 C 0.66872 0.71635 0.23185 0.0
O773 O 0.64283 0.68749 0.21686 0.0
O774 O 0.60511 0.73207 0.29327 0.0
O775 O 0.56592 0.67416 0.29356 0.0
H776 H 0.63367 0.84567 0.40131 0.0
H777 H 0.62739 0.59603 0.2298 0.0
O778 O 0.60596 0.57013 0.29534 0.0
H779 H 0.51896 0.61435 0.16002 0.0
H780 H 0.49157 0.50012 0.26681 0.0
H781 H 0.53163 0.6378 0.34577 0.0
H782 H 0.52898 0.62655 0.23471 0.0
H783 H 0.54773 0.5399 0.25889 0.0
O784 O 0.6721 0.73007 0.26942 0.0
H785 H 0.61525 0.77369 0.36755 0.0
H786 H 0.71206 0.77438 0.32418 0.0
H787 H 0.47569 0.59824 0.35557 0.0
H788 H 0.61829 0.5826 0.15508 0.0
H789 H 0.45519 0.52851 0.31589 0.0
H790 H 0.56382 0.59203 0.11968 0.0
O791 O 0.59537 0.63335 0.35579 0.0
H792 H 0.74675 0.63838 0.31264 0.0
H793 H 0.68407 0.72403 0.39971 0.0
H794 H 0.73419 0.69944 0.42966 0.0
H795 H 0.76601 0.65639 0.38599 0.0
H796 H 0.69619 0.66312 0.28409 0.0
H797 H 0.73149 0.84645 0.35718 0.0
H798 H 0.6922 0.88259 0.39619 0.0
O799 O 0.62386 0.69925 0.3664 0.0
C800 C 0.57442 0.71272 0.28883 0.0
C801 C 0.651 0.83033 0.38428 0.0
C802 C 0.70587 0.83078 0.35948 0.0
N803 N 0.66235 0.76995 0.34351 0.0
C804 C 0.64066 0.78959 0.36502 0.0
C805 C 0.69464 0.79003 0.34063 0.0
C806 C 0.68384 0.85102 0.3814 0.0
C807 C 0.60358 0.60003 0.2146 0.0
N808 N 0.57895 0.61279 0.23652 0.0
C809 C 0.5986 0.59246 0.17229 0.0
C810 C 0.56805 0.59781 0.15245 0.0
C811 C 0.54291 0.61044 0.17504 0.0
C812 C 0.54883 0.61774 0.21729 0.0
C813 C 0.50026 0.52993 0.28469 0.0
C814 C 0.52298 0.60748 0.32852 0.0
C815 C 0.53205 0.55277 0.28019 0.0
N816 N 0.54291 0.59125 0.30168 0.0
C817 C 0.49122 0.58519 0.33422 0.0
C818 C 0.4798 0.54614 0.31203 0.0
C819 C 0.60784 0.66668 0.37921 0.0
C820 C 0.73315 0.65719 0.33198 0.0
C821 C 0.69757 0.70507 0.38055 0.0
C822 C 0.72605 0.69137 0.39766 0.0
C823 C 0.74391 0.66725 0.37314 0.0
N824 N 0.68716 0.69512 0.34014 0.0
C825 C 0.70455 0.67145 0.31594 0.0
Co826 Co 0.41988 0.73805 0.39976 0.0
Co827 Co 0.37304 0.70988 0.30652 0.0
O828 O 0.38026 0.73965 0.36193 0.0
C829 C 0.36382 0.71086 0.44967 0.0
O830 O 0.34934 0.6834 0.4192 0.0
C831 C 0.35273 0.79453 0.2993 0.0
O832 O 0.37367 0.81176 0.33086 0.0
O833 O 0.41962 0.73604 0.29423 0.0
O834 O 0.4499 0.74218 0.35493 0.0
H835 H 0.40528 0.62215 0.18742 0.0
H836 H 0.37554 0.80049 0.41781 0.0
O837 O 0.39129 0.73521 0.44602 0.0
H838 H 0.48972 0.88331 0.41593 0.0
H839 H 0.49405 0.77242 0.53226 0.0
H840 H 0.47872 0.69413 0.39547 0.0
H841 H 0.4803 0.80604 0.40447 0.0
H842 H 0.44481 0.77644 0.48464 0.0
O843 O 0.35255 0.7567 0.28498 0.0
H844 H 0.41307 0.6592 0.25673 0.0
H845 H 0.31729 0.69711 0.23909 0.0
H846 H 0.52854 0.68971 0.44191 0.0
H847 H 0.3838 0.87768 0.43034 0.0
H848 H 0.53643 0.72898 0.5109 0.0
H849 H 0.4412 0.91965 0.42912 0.0
O850 O 0.41208 0.67531 0.39067 0.0
H851 H 0.26041 0.70977 0.3634 0.0
H852 H 0.3324 0.62319 0.2923 0.0
H853 H 0.27612 0.59019 0.30868 0.0
H854 H 0.23956 0.63362 0.34431 0.0
H855 H 0.3171 0.74129 0.34713 0.0
H856 H 0.30858 0.66081 0.16947 0.0
H857 H 0.35272 0.62285 0.14323 0.0
O858 O 0.39113 0.66073 0.32552 0.0
C859 C 0.44773 0.74416 0.31674 0.0
C860 C 0.38589 0.63867 0.19845 0.0
C861 C 0.33166 0.66043 0.18837 0.0
N862 N 0.36584 0.68067 0.25188 0.0
C863 C 0.39018 0.65975 0.23767 0.0
C864 C 0.33684 0.68119 0.22775 0.0
C865 C 0.35641 0.63909 0.17368 0.0
C866 C 0.40061 0.81855 0.41738 0.0
N867 N 0.42732 0.79883 0.4095 0.0
C868 C 0.40512 0.86224 0.42442 0.0
C869 C 0.43732 0.88577 0.42368 0.0
C870 C 0.46452 0.86541 0.41616 0.0
C871 C 0.45902 0.82167 0.4092 0.0
C872 C 0.49092 0.75523 0.50225 0.0
C873 C 0.48211 0.71163 0.42531 0.0
C874 C 0.46303 0.7573 0.47518 0.0
N875 N 0.459 0.73583 0.43715 0.0
C876 C 0.51031 0.70886 0.45153 0.0
C877 C 0.5147 0.73086 0.49025 0.0
C878 C 0.40225 0.64953 0.35892 0.0
C879 C 0.27606 0.69051 0.34778 0.0
C880 C 0.31688 0.64224 0.30815 0.0
C881 C 0.28491 0.62341 0.31718 0.0
C882 C 0.2644 0.64779 0.33712 0.0
N883 N 0.32817 0.68421 0.31857 0.0
C884 C 0.30819 0.70825 0.33828 0.0
Co885 Co 0.43632 0.40145 0.37804 0.0
Co886 Co 0.37542 0.31478 0.35004 0.0
O887 O 0.39457 0.37342 0.34525 0.0
C888 C 0.39547 0.47053 0.36475 0.0
O889 O 0.37038 0.44378 0.34452 0.0
C890 C 0.35772 0.27617 0.26397 0.0
O891 O 0.37636 0.24776 0.27175 0.0
O892 O 0.41975 0.29781 0.33629 0.0
O893 O 0.45354 0.34778 0.37853 0.0
H894 H 0.37828 0.17242 0.39527 0.0
H895 H 0.41455 0.42658 0.2972 0.0
O896 O 0.42158 0.45802 0.37993 0.0
H897 H 0.53002 0.39655 0.28629 0.0
H898 H 0.53683 0.51699 0.41852 0.0
H899 H 0.47835 0.37903 0.44764 0.0
H900 H 0.50415 0.39294 0.35088 0.0
H901 H 0.48324 0.48321 0.37913 0.0
O902 O 0.35777 0.30734 0.29061 0.0
H903 H 0.40089 0.24643 0.38859 0.0
H904 H 0.30927 0.25808 0.32154 0.0
H905 H 0.53255 0.41095 0.4865 0.0
H906 H 0.43911 0.42935 0.23181 0.0
H907 H 0.56223 0.48045 0.47215 0.0
H908 H 0.49724 0.41411 0.22586 0.0
O909 O 0.41412 0.3896 0.42816 0.0
H910 H 0.27844 0.3929 0.33013 0.0
H911 H 0.32774 0.29713 0.41382 0.0
H912 H 0.27475 0.32033 0.43135 0.0
H913 H 0.2496 0.36844 0.38918 0.0
H914 H 0.33175 0.36947 0.31425 0.0
H915 H 0.28575 0.18423 0.3274 0.0
H916 H 0.32034 0.14085 0.3645 0.0
O917 O 0.39097 0.32179 0.41011 0.0
C918 C 0.44848 0.3133 0.35571 0.0
C919 C 0.363 0.19098 0.37897 0.0
C920 C 0.31106 0.1976 0.3409 0.0
N921 N 0.35655 0.25654 0.35453 0.0
C922 C 0.37568 0.23289 0.37505 0.0
C923 C 0.32455 0.23941 0.33765 0.0
C924 C 0.33047 0.17329 0.36171 0.0
C925 C 0.44001 0.42063 0.29533 0.0
N926 N 0.458 0.41053 0.32838 0.0
C927 C 0.45369 0.42178 0.25795 0.0
C928 C 0.48629 0.41316 0.25461 0.0
C929 C 0.50473 0.40349 0.28851 0.0
C930 C 0.49002 0.40197 0.3252 0.0
C931 C 0.52416 0.48668 0.42508 0.0
C932 C 0.49107 0.40919 0.44098 0.0
C933 C 0.49358 0.46755 0.40315 0.0
N934 N 0.47755 0.42906 0.41097 0.0
C935 C 0.52182 0.42712 0.46314 0.0
C936 C 0.53843 0.46614 0.45509 0.0
C937 C 0.40107 0.35331 0.43703 0.0
C938 C 0.28918 0.37203 0.34882 0.0
C939 C 0.31738 0.31866 0.39586 0.0
C940 C 0.28716 0.33141 0.40568 0.0
C941 C 0.27303 0.35833 0.38196 0.0
N942 N 0.33315 0.33229 0.36337 0.0
C943 C 0.31937 0.35861 0.33995 0.0
C944 C 0.30618 0.29326 0.22549 0.0
C945 C 0.33033 0.26674 0.22966 0.0
H946 H 0.25833 0.30147 0.19746 0.0
C947 C 0.32538 0.22865 0.20404 0.0
H948 H 0.309 0.32284 0.24453 0.0
C949 C 0.29613 0.21634 0.17678 0.0
C950 C 0.271 0.24173 0.17453 0.0
H951 H 0.34334 0.20735 0.20631 0.0
H952 H 0.2925 0.18598 0.15892 0.0
C953 C 0.27695 0.2809 0.19843 0.0
C954 C 0.7377 0.17855 0.28435 0.0
C955 C 0.74076 0.21177 0.31563 0.0
H956 H 0.76332 0.14082 0.24475 0.0
C957 C 0.77337 0.23211 0.33159 0.0
H958 H 0.71295 0.16215 0.27145 0.0
C959 C 0.80222 0.22019 0.31598 0.0
C960 C 0.79918 0.18723 0.28444 0.0
H961 H 0.77665 0.25792 0.35558 0.0
H962 H 0.82694 0.23704 0.3285 0.0
C963 C 0.76659 0.1662 0.26915 0.0
C964 C 0.75287 0.77138 0.20381 0.0
C965 C 0.75801 0.74609 0.16883 0.0
H966 H 0.72054 0.78247 0.25035 0.0
C967 C 0.73163 0.71355 0.15194 0.0
H968 H 0.77238 0.79705 0.21743 0.0
C969 C 0.70159 0.70507 0.17104 0.0
C970 C 0.6974 0.729 0.20735 0.0
H971 H 0.73471 0.69353 0.12494 0.0
H972 H 0.6824 0.67862 0.15839 0.0
C973 C 0.72301 0.763 0.22275 0.0
C974 C 0.31535 0.84921 0.30911 0.0
C975 C 0.32372 0.81456 0.28572 0.0
H976 H 0.27802 0.88822 0.32004 0.0
C977 C 0.30133 0.79535 0.252 0.0
H978 H 0.33191 0.86471 0.33535 0.0
C979 C 0.27037 0.80843 0.24356 0.0
C980 C 0.26103 0.84139 0.26835 0.0
H981 H 0.30703 0.76892 0.23295 0.0
H982 H 0.2533 0.79179 0.21823 0.0
C983 C 0.28434 0.86256 0.30044 0.0
C984 C 0.27993 0.71488 0.82108 0.0
C985 C 0.27687 0.67859 0.79336 0.0
H986 H 0.25418 0.75744 0.85507 0.0
C987 C 0.2443 0.65672 0.77916 0.0
H988 H 0.30468 0.73244 0.83258 0.0
C989 C 0.21545 0.6713 0.79161 0.0
C990 C 0.21846 0.70779 0.81902 0.0
H991 H 0.241 0.62877 0.75763 0.0
H992 H 0.19075 0.654 0.77958 0.0
C993 C 0.25101 0.72916 0.83402 0.0
C994 C 0.22682 0.27424 0.71792 0.0
C995 C 0.20402 0.23679 0.7048 0.0
H996 H 0.27449 0.31244 0.71176 0.0
C997 C 0.2107 0.21153 0.67044 0.0
H998 H 0.22238 0.29491 0.74378 0.0
C999 C 0.24065 0.22202 0.6516 0.0
C1000 C 0.26461 0.25776 0.66694 0.0
H1001 H 0.19373 0.18252 0.6594 0.0
H1002 H 0.24595 0.20077 0.62664 0.0
C1003 C 0.25677 0.28441 0.69945 0.0
C1004 C 0.81032 0.28925 0.72716 0.0
C1005 C 0.83264 0.30864 0.76089 0.0
H1006 H 0.76235 0.28561 0.69321 0.0
C1007 C 0.82466 0.34408 0.78341 0.0
H1008 H 0.81568 0.26209 0.70886 0.0
C1009 C 0.79387 0.35775 0.77423 0.0
C1010 C 0.77041 0.33612 0.74248 0.0
H1011 H 0.84117 0.35973 0.80963 0.0
H1012 H 0.78764 0.38369 0.79352 0.0
C1013 C 0.7796 0.3027 0.71818 0.0
C1014 C 0.79754 0.71867 0.68151 0.0
C1015 C 0.80102 0.75623 0.70772 0.0
H1016 H 0.76495 0.67302 0.63868 0.0
C1017 C 0.77406 0.77892 0.70679 0.0
H1018 H 0.81766 0.70022 0.68134 0.0
C1019 C 0.74378 0.76321 0.68236 0.0
C1020 C 0.7395 0.72436 0.65806 0.0
H1021 H 0.77566 0.80792 0.72643 0.0
H1022 H 0.72319 0.78086 0.68386 0.0
C1023 C 0.76719 0.70295 0.657 0.0
C1024 C 0.11937 0.14672 0.95202 0.0
C1025 C 0.13416 0.18068 0.93268 0.0
H1026 H 0.11061 0.12136 0.00766 0.0
C1027 C 0.1523 0.21653 0.95712 0.0
H1028 H 0.10476 0.11887 0.9345 0.0
C1029 C 0.15661 0.21761 0.99964 0.0
C1030 C 0.14218 0.18325 0.01884 0.0
H1031 H 0.16347 0.24377 0.94348 0.0
H1032 H 0.17109 0.24537 0.01741 0.0
C1033 C 0.12296 0.14818 0.99432 0.0
C1034 C 0.84658 0.24142 0.00369 0.0
C1035 C 0.83526 0.20322 0.97876 0.0
H1036 H 0.86577 0.27076 0.06341 0.0
C1037 C 0.82546 0.16676 0.99721 0.0
H1038 H 0.85341 0.2704 0.9904 0.0
C1039 C 0.83202 0.16721 0.03908 0.0
C1040 C 0.84869 0.20402 0.06309 0.0
H1041 H 0.81604 0.13699 0.97911 0.0
H1042 H 0.82672 0.13778 0.05201 0.0
C1043 C 0.85365 0.24176 0.04559 0.0
C1044 C 0.89037 0.79924 0.97491 0.0
C1045 C 0.86581 0.81951 0.95685 0.0
H1046 H 0.91102 0.78005 0.03019 0.0
C1047 C 0.8395 0.82969 0.97929 0.0
H1048 H 0.91079 0.79091 0.95799 0.0
C1049 C 0.83867 0.82146 0.01987 0.0
C1050 C 0.86465 0.80406 0.03889 0.0
H1051 H 0.82014 0.84502 0.96578 0.0
H1052 H 0.81913 0.83156 0.03725 0.0
C1053 C 0.89018 0.79234 0.01587 0.0
C1054 C 0.13998 0.75235 0.01334 0.0
C1055 C 0.10858 0.74991 0.0299 0.0
H1056 H 0.16561 0.7529 0.95894 0.0
C1057 C 0.0786 0.73779 0.00367 0.0
H1058 H 0.16352 0.76156 0.03266 0.0
C1059 C 0.07991 0.73368 0.96168 0.0
C1060 C 0.11117 0.74015 0.94529 0.0
H1061 H 0.05395 0.73538 0.01527 0.0
H1062 H 0.05648 0.7287 0.94204 0.0
C1063 C 0.14123 0.74722 0.9712 0.0
C1064 C 0.04481 0.17554 0.19641 0.0
C1065 C 0.05704 0.18891 0.16053 0.0
H1066 H 1.00381 0.17031 0.23431 0.0
C1067 C 0.0371 0.21002 0.13594 0.0
H1068 H 0.05989 0.15964 0.21613 0.0
C1069 C 1.00465 0.21548 0.14591 0.0
C1070 C 0.99208 0.20134 0.18147 0.0
H1071 H 0.04605 0.22078 0.10819 0.0
H1072 H 0.989 0.22974 0.12528 0.0
C1073 C 0.01292 0.18229 0.20712 0.0
C1074 C 0.8747 0.00395 0.26092 0.0
C1075 C 0.899 0.98162 0.24565 0.0
H1076 H 0.85956 0.06424 0.2706 0.0
C1077 C 0.93018 0.00409 0.23697 0.0
H1078 H 0.85034 0.98749 0.2674 0.0
C1079 C 0.93516 0.04759 0.23799 0.0
C1080 C 0.90938 0.0696 0.24869 0.0
H1081 H 0.94949 0.9877 0.22536 0.0
H1082 H 0.95804 0.06365 0.22719 0.0
C1083 C 0.87998 0.04788 0.26264 0.0
C1084 C 0.99851 0.85013 0.2054 0.0
C1085 C 0.97578 0.81996 0.17893 0.0
H1086 H 0.05 0.87152 0.23055 0.0
C1087 C 0.9877 0.78515 0.16053 0.0
H1088 H 0.98999 0.87711 0.22039 0.0
C1089 C 0.02212 0.78227 0.16611 0.0
C1090 C 0.04509 0.81343 0.19113 0.0
H1091 H 0.97083 0.76136 0.14012 0.0
H1092 H 0.0311 0.75656 0.14946 0.0
C1093 C 0.03277 0.84666 0.21178 0.0
C1094 C 0.12143 0.01484 0.20955 0.0
C1095 C 0.15257 0.0422 0.21954 0.0
H1096 H 0.09593 0.95129 0.19646 0.0
C1097 C 0.1813 0.02543 0.23194 0.0
H1098 H 0.09881 0.02679 0.20001 0.0
C1099 C 0.17947 0.98173 0.23033 0.0
C1100 C 0.14905 0.95457 0.2158 0.0
H1101 H 0.20569 0.04564 0.23929 0.0
H1102 H 0.20238 0.96924 0.23718 0.0
C1103 C 0.11979 0.97156 0.20718 0.0
C1104 C 0.96722 0.76575 0.84977 0.0
C1105 C 0.95212 0.78865 0.82206 0.0
H1106 H 0.01238 0.74342 0.86999 0.0
C1107 C 0.97064 0.80405 0.7909 0.0
H1108 H 0.95364 0.75446 0.87459 0.0
C1109 C 1.00461 0.79941 0.78934 0.0
C1110 C 0.02011 0.77783 0.81795 0.0
H1111 H 0.95963 0.82234 0.7696 0.0
H1112 H 0.01912 0.81395 0.76671 0.0
C1113 C 1.00077 0.75965 0.84723 0.0
C1114 C 0.11418 0.955 0.76844 0.0
C1115 C 0.1341 0.9347 0.7938 0.0
H1116 H 0.10146 0.01318 0.75361 0.0
C1117 C 0.16074 0.95925 0.82014 0.0
H1118 H 0.09374 0.93723 0.74747 0.0
C1119 C 0.16494 0.00313 0.82416 0.0
C1120 C 0.14278 0.02321 0.80159 0.0
H1121 H 0.17701 0.94465 0.83967 0.0
H1122 H 0.18411 0.02106 0.84667 0.0
C1123 C 0.11853 0.99871 0.77222 0.0
C1124 C 0.04331 0.25696 0.84203 0.0
C1125 C 0.05391 0.24397 0.80446 0.0
H1126 H 1.0019 0.26293 0.87667 0.0
C1127 C 0.03002 0.2355 0.77018 0.0
H1128 H 0.06098 0.26244 0.8691 0.0
C1129 C 0.99547 0.23585 0.77436 0.0
C1130 C 0.9844 0.24411 0.81304 0.0
H1131 H 0.0375 0.22441 0.74097 0.0
H1132 H 0.9773 0.22608 0.74802 0.0
C1133 C 1.00905 0.25663 0.84635 0.0
C1134 C 0.87882 0.03216 0.88694 0.0
C1135 C 0.87017 0.00503 0.85067 0.0
H1136 H 0.89139 0.09599 0.91466 0.0
C1137 C 0.87017 0.02231 0.81364 0.0
H1138 H 0.87988 0.01955 0.91591 0.0
C1139 C 0.87836 0.06568 0.81275 0.0
C1140 C 0.88545 0.09331 0.84894 0.0
H1141 H 0.8649 0.00212 0.78515 0.0
H1142 H 0.87894 0.07742 0.78343 0.0
C1143 C 0.88577 0.0759 0.88615 0.0
C1144 C 0.58669 0.63371 0.44018 0.0
C1145 C 0.60548 0.66744 0.42385 0.0
H1146 H 0.57245 0.60633 0.49357 0.0
C1147 C 0.6234 0.70138 0.45089 0.0
H1148 H 0.57207 0.60741 0.42045 0.0
C1149 C 0.62437 0.70033 0.493 0.0
C1150 C 0.6069 0.66568 0.5093 0.0
H1151 H 0.63755 0.72846 0.43965 0.0
H1152 H 0.63941 0.72633 0.51272 0.0
C1153 C 0.58709 0.63308 0.4823 0.0
C1154 C 0.36512 0.73349 0.56296 0.0
C1155 C 0.34773 0.69534 0.57286 0.0
H1156 H 0.3832 0.76871 0.5157 0.0
C1157 C 0.32983 0.66591 0.54147 0.0
H1158 H 0.37876 0.75704 0.58638 0.0
C1159 C 0.33246 0.6725 0.50083 0.0
C1160 C 0.353 0.70863 0.49099 0.0
H1161 H 0.31567 0.63643 0.54812 0.0
H1162 H 0.32056 0.6479 0.47734 0.0
C1163 C 0.36771 0.74008 0.52239 0.0
C1164 C 0.37739 0.31279 0.49283 0.0
C1165 C 0.39961 0.34661 0.48056 0.0
H1166 H 0.35751 0.28222 0.54272 0.0
C1167 C 0.42123 0.37372 0.51042 0.0
H1168 H 0.36103 0.29049 0.47064 0.0
C1169 C 0.42039 0.36771 0.55131 0.0
C1170 C 0.39681 0.3355 0.56403 0.0
H1171 H 0.43921 0.39951 0.50227 0.0
H1172 H 0.4381 0.3891 0.57301 0.0
C1173 C 0.37556 0.30772 0.53418 0.0
C1174 C 0.61328 0.2173 0.46636 0.0
C1175 C 0.6449 0.22544 0.45086 0.0
H1176 H 0.58682 0.21456 0.51984 0.0
C1177 C 0.67453 0.22784 0.47679 0.0
H1178 H 0.59019 0.21639 0.44693 0.0
C1179 C 0.67265 0.22624 0.51852 0.0
C1180 C 0.64113 0.22338 0.53472 0.0
H1181 H 0.69917 0.23522 0.46546 0.0
H1182 H 0.69598 0.23247 0.53839 0.0
C1183 C 0.61139 0.21636 0.50806 0.0
C1184 C 0.50717 0.682 0.64139 0.0
C1185 C 0.52686 0.65534 0.65896 0.0
H1186 H 0.45945 0.70383 0.63851 0.0
C1187 C 0.51443 0.63298 0.6904 0.0
H1188 H 0.51614 0.69954 0.61708 0.0
C1189 C 0.48271 0.63677 0.70368 0.0
C1190 C 0.46251 0.66206 0.68497 0.0
H1191 H 0.52919 0.61239 0.70461 0.0
H1192 H 0.47327 0.61838 0.72721 0.0
C1193 C 0.47494 0.68467 0.65375 0.0
C1194 C 0.40943 0.54236 0.77993 0.0
C1195 C 0.3767 0.54976 0.76949 0.0
H1196 H 0.44033 0.49596 0.78964 0.0
C1197 C 0.34884 0.5176 0.76981 0.0
H1198 H 0.43122 0.56677 0.77933 0.0
C1199 C 0.35394 0.47718 0.77645 0.0
C1200 C 0.38702 0.46843 0.78157 0.0
H1201 H 0.32341 0.52281 0.76137 0.0
H1202 H 0.33225 0.45199 0.77225 0.0
C1203 C 0.41457 0.50193 0.78614 0.0
C1204 C 0.54395 0.32718 0.72667 0.0
C1205 C 0.5506 0.29332 0.7006 0.0
H1206 H 0.50692 0.36339 0.74622 0.0
C1207 C 0.52329 0.26641 0.67783 0.0
H1208 H 0.56454 0.34889 0.7441 0.0
C1209 C 0.49028 0.27452 0.67923 0.0
C1210 C 0.4839 0.31025 0.70285 0.0
H1211 H 0.52769 0.24026 0.6573 0.0
H1212 H 0.47008 0.25402 0.65996 0.0
C1213 C 0.51097 0.33578 0.7275 0.0
C1214 C 0.60514 0.48755 0.69638 0.0
C1215 C 0.6343 0.51865 0.70136 0.0
H1216 H 0.58509 0.42208 0.69014 0.0
C1217 C 0.66596 0.50741 0.71147 0.0
H1218 H 0.58042 0.49542 0.68879 0.0
C1219 C 0.66868 0.465 0.71222 0.0
C1220 C 0.63979 0.43372 0.70262 0.0
H1221 H 0.68885 0.53078 0.71505 0.0
H1222 H 0.69356 0.45657 0.71684 0.0
C1223 C 0.60786 0.44553 0.69684 0.0
C1224 C 0.49095 0.28284 0.31557 0.0
C1225 C 0.47865 0.29297 0.35312 0.0
H1226 H 0.53465 0.27245 0.28466 0.0
C1227 C 0.50031 0.2954 0.38891 0.0
H1228 H 0.47509 0.28183 0.28753 0.0
C1229 C 0.53424 0.29166 0.3872 0.0
C1230 C 0.54725 0.2846 0.34973 0.0
H1231 H 0.49159 0.30343 0.41829 0.0
H1232 H 0.55054 0.29549 0.41523 0.0
C1233 C 0.52509 0.27827 0.31393 0.0
C1234 C 0.61633 0.44378 0.28729 0.0
C1235 C 0.64201 0.43164 0.31206 0.0
H1236 H 0.59321 0.49417 0.2685 0.0
C1237 C 0.6666 0.46311 0.33459 0.0
H1238 H 0.59702 0.42053 0.26952 0.0
C1239 C 0.66422 0.50556 0.33446 0.0
C1240 C 0.63735 0.5175 0.31153 0.0
H1241 H 0.68698 0.45496 0.35375 0.0
H1242 H 0.68276 0.52882 0.35336 0.0
C1243 C 0.61407 0.48617 0.28697 0.0
C1244 C 0.51762 0.71749 0.25629 0.0
C1245 C 0.54587 0.73572 0.28366 0.0
H1246 H 0.46352 0.70678 0.24461 0.0
C1247 C 0.54187 0.76678 0.31428 0.0
H1248 H 0.5202 0.69433 0.23161 0.0
C1249 C 0.5094 0.77406 0.32161 0.0
C1250 C 0.48049 0.75045 0.29845 0.0
H1251 H 0.56306 0.78165 0.33565 0.0
H1252 H 0.50681 0.7951 0.34796 0.0
C1253 C 0.48509 0.72482 0.26358 0.0
C1254 C 0.38254 0.53147 0.33018 0.0
C1255 C 0.39624 0.51619 0.36458 0.0
H1256 H 0.37555 0.58486 0.3004 0.0
C1257 C 0.41285 0.54503 0.39711 0.0
H1258 H 0.37036 0.51006 0.30424 0.0
C1259 C 0.41487 0.58838 0.39561 0.0
C1260 C 0.40141 0.60375 0.36088 0.0
H1261 H 0.42404 0.53403 0.42383 0.0
H1262 H 0.42731 0.60978 0.4214 0.0
C1263 C 0.38565 0.57458 0.32804 0.0
loop_
_geom_bond_atom_site_label_1
_geom_bond_atom_site_label_2
_geom_bond_distance
_geom_bond_site_symmetry_2
_ccdc_geom_bond_type
Co0 O2 2.143 . S
Co0 O8 2.074 . S
Co0 O11 2.093 . S
Co0 O24 2.097 . S
Co0 N41 2.151 . S
Co0 N49 2.214 . S
Co1 O2 2.160 . S
Co1 O7 2.058 . S
Co1 O17 2.057 . S
Co1 O32 2.037 . S
Co1 N36 2.145 . S
Co1 N57 2.257 . S
O2 Co0 2.143 . S
O2 Co1 2.160 . S
C3 O4 1.278 . S
C3 O11 1.224 . S
O4 C3 1.278 . S
C5 O6 1.245 . S
C5 O17 1.232 . S
O6 C5 1.245 . S
O7 Co1 2.058 . S
O7 C33 1.269 . S
O8 Co0 2.074 . S
O8 C33 1.257 . S
H9 C34 0.930 . S
H10 C40 0.930 . S
O11 Co0 2.093 . S
O11 C3 1.224 . S
H12 C44 0.929 1_556 S
H13 C46 0.930 1_565 S
H14 C47 0.930 . S
H15 C45 0.929 . S
H16 C48 0.928 . S
O17 Co1 2.057 . S
O17 C5 1.232 . S
H18 C37 0.929 . S
H19 C38 0.929 . S
H20 C50 0.931 . S
H21 C42 0.929 . S
H22 C51 0.930 1_556 S
H23 C43 0.931 . S
O24 Co0 2.097 . S
O24 C52 1.214 . S
H25 C53 0.929 . S
H26 C54 0.929 . S
H27 C55 0.930 . S
H28 C56 0.929 . S
H29 C58 0.930 . S
H30 C35 0.930 . S
H31 C39 0.930 . S
O32 Co1 2.037 . S
O32 C52 1.234 . S
C33 O7 1.269 . S
C33 O8 1.257 . S
C34 H9 0.930 . S
C34 C37 1.388 . S
C34 C39 1.418 . S
C35 H30 0.930 . S
C35 C38 1.404 . S
C35 C39 1.353 . S
N36 Co1 2.145 . S
N36 C37 1.397 . S
N36 C38 1.334 . S
C37 H18 0.929 . S
C37 C34 1.388 . S
C37 N36 1.397 . S
C38 H19 0.929 . S
C38 C35 1.404 . S
C38 N36 1.334 . S
C39 H31 0.930 . S
C39 C34 1.418 . S
C39 C35 1.353 . S
C40 H10 0.930 . S
C40 N41 1.330 . S
C40 C42 1.446 . S
N41 Co0 2.151 . S
N41 C40 1.330 . S
N41 C45 1.418 . S
C42 H21 0.929 . S
C42 C40 1.446 . S
C42 C43 1.332 . S
C43 H23 0.931 . S
C43 C42 1.332 . S
C43 C44 1.267 . S
C44 H12 0.929 1_554 S
C44 C43 1.267 . S
C44 C45 1.251 . S
C45 H15 0.929 . S
C45 N41 1.418 . S
C45 C44 1.251 . S
C46 H13 0.930 1_545 S
C46 C48 1.406 . S
C46 C51 1.261 . S
C47 H14 0.930 . S
C47 N49 1.325 . S
C47 C50 1.357 . S
C48 H16 0.928 . S
C48 C46 1.406 . S
C48 N49 1.261 . S
N49 Co0 2.214 . S
N49 C47 1.325 . S
N49 C48 1.261 . S
C50 H20 0.931 . S
C50 C47 1.357 . S
C50 C51 1.312 . S
C51 H22 0.930 1_554 S
C51 C46 1.261 . S
C51 C50 1.312 . S
C52 O24 1.214 . S
C52 O32 1.234 . S
C53 H25 0.929 . S
C53 C56 1.391 . S
C53 C58 1.391 . S
C54 H26 0.929 . S
C54 C55 1.390 . S
C54 N57 1.391 . S
C55 H27 0.930 . S
C55 C54 1.390 . S
C55 C56 1.392 . S
C56 H28 0.929 . S
C56 C53 1.391 . S
C56 C55 1.392 . S
N57 Co1 2.257 . S
N57 C54 1.391 . S
N57 C58 1.388 . S
C58 H29 0.930 . S
C58 C53 1.391 . S
C58 N57 1.388 . S
Co59 O61 2.143 . S
Co59 O67 2.074 . S
Co59 O70 2.093 . S
Co59 O83 2.097 . S
Co59 N100 2.151 . S
Co59 N108 2.214 . S
Co60 O61 2.160 . S
Co60 O66 2.058 . S
Co60 O76 2.057 . S
Co60 O91 2.037 . S
Co60 N95 2.145 . S
Co60 N116 2.257 . S
O61 Co59 2.143 . S
O61 Co60 2.160 . S
C62 O63 1.278 . S
C62 O70 1.224 . S
O63 C62 1.278 . S
C64 O65 1.245 . S
C64 O76 1.232 . S
O65 C64 1.245 . S
O66 Co60 2.058 . S
O66 C92 1.269 . S
O67 Co59 2.074 . S
O67 C92 1.257 . S
H68 C93 0.930 . S
H69 C99 0.930 . S
O70 Co59 2.093 . S
O70 C62 1.224 . S
H71 C103 0.929 . S
H72 C105 0.930 . S
H73 C106 0.930 . S
H74 C104 0.929 . S
H75 C107 0.928 . S
O76 Co60 2.057 . S
O76 C64 1.232 . S
H77 C96 0.929 . S
H78 C97 0.929 . S
H79 C109 0.931 . S
H80 C101 0.929 . S
H81 C110 0.930 . S
H82 C102 0.931 . S
O83 Co59 2.097 . S
O83 C111 1.214 . S
H84 C112 0.929 . S
H85 C113 0.929 . S
H86 C114 0.930 . S
H87 C115 0.929 . S
H88 C117 0.930 . S
H89 C94 0.930 . S
H90 C98 0.930 . S
O91 Co60 2.037 . S
O91 C111 1.234 . S
C92 O66 1.269 . S
C92 O67 1.257 . S
C93 H68 0.930 . S
C93 C96 1.388 . S
C93 C98 1.418 . S
C94 H89 0.930 . S
C94 C97 1.404 . S
C94 C98 1.353 . S
N95 Co60 2.145 . S
N95 C96 1.397 . S
N95 C97 1.334 . S
C96 H77 0.929 . S
C96 C93 1.388 . S
C96 N95 1.397 . S
C97 H78 0.929 . S
C97 C94 1.404 . S
C97 N95 1.334 . S
C98 H90 0.930 . S
C98 C93 1.418 . S
C98 C94 1.353 . S
C99 H69 0.930 . S
C99 N100 1.330 . S
C99 C101 1.446 . S
N100 Co59 2.151 . S
N100 C99 1.330 . S
N100 C104 1.418 . S
C101 H80 0.929 . S
C101 C99 1.446 . S
C101 C102 1.332 . S
C102 H82 0.931 . S
C102 C101 1.332 . S
C102 C103 1.267 . S
C103 H71 0.929 . S
C103 C102 1.267 . S
C103 C104 1.251 . S
C104 H74 0.929 . S
C104 N100 1.418 . S
C104 C103 1.251 . S
C105 H72 0.930 . S
C105 C107 1.406 . S
C105 C110 1.261 . S
C106 H73 0.930 . S
C106 N108 1.325 . S
C106 C109 1.357 . S
C107 H75 0.928 . S
C107 C105 1.406 . S
C107 N108 1.261 . S
N108 Co59 2.214 . S
N108 C106 1.325 . S
N108 C107 1.261 . S
C109 H79 0.931 . S
C109 C106 1.357 . S
C109 C110 1.312 . S
C110 H81 0.930 . S
C110 C105 1.261 . S
C110 C109 1.312 . S
C111 O83 1.214 . S
C111 O91 1.234 . S
C112 H84 0.929 . S
C112 C115 1.391 . S
C112 C117 1.391 . S
C113 H85 0.929 . S
C113 C114 1.390 . S
C113 N116 1.391 . S
C114 H86 0.930 . S
C114 C113 1.390 . S
C114 C115 1.392 . S
C115 H87 0.929 . S
C115 C112 1.391 . S
C115 C114 1.392 . S
N116 Co60 2.257 . S
N116 C113 1.391 . S
N116 C117 1.388 . S
C117 H88 0.930 . S
C117 C112 1.391 . S
C117 N116 1.388 . S
Co118 O120 2.143 . S
Co118 O126 2.074 . S
Co118 O129 2.093 . S
Co118 O142 2.097 . S
Co118 N159 2.151 . S
Co118 N167 2.214 . S
Co119 O120 2.160 . S
Co119 O125 2.058 . S
Co119 O135 2.057 . S
Co119 O150 2.037 . S
Co119 N154 2.145 . S
Co119 N175 2.257 . S
O120 Co118 2.143 . S
O120 Co119 2.160 . S
C121 O122 1.278 . S
C121 O129 1.224 . S
O122 C121 1.278 . S
C123 O124 1.245 . S
C123 O135 1.232 . S
O124 C123 1.245 . S
O125 Co119 2.058 . S
O125 C151 1.269 . S
O126 Co118 2.074 . S
O126 C151 1.257 . S
H127 C152 0.930 . S
H128 C158 0.930 . S
O129 Co118 2.093 . S
O129 C121 1.224 . S
H130 C162 0.929 . S
H131 C164 0.930 1_545 S
H132 C165 0.930 . S
H133 C163 0.929 . S
H134 C166 0.928 . S
O135 Co119 2.057 . S
O135 C123 1.232 . S
H136 C155 0.929 . S
H137 C156 0.929 . S
H138 C168 0.931 . S
H139 C160 0.929 . S
H140 C169 0.930 . S
H141 C161 0.931 . S
O142 Co118 2.097 . S
O142 C170 1.214 . S
H143 C171 0.929 . S
H144 C172 0.929 . S
H145 C173 0.930 . S
H146 C174 0.929 . S
H147 C176 0.930 . S
H148 C153 0.930 . S
H149 C157 0.930 . S
O150 Co119 2.037 . S
O150 C170 1.234 . S
C151 O125 1.269 . S
C151 O126 1.257 . S
C152 H127 0.930 . S
C152 C155 1.388 . S
C152 C157 1.418 . S
C153 H148 0.930 . S
C153 C156 1.404 . S
C153 C157 1.353 . S
N154 Co119 2.145 . S
N154 C155 1.397 . S
N154 C156 1.334 . S
C155 H136 0.929 . S
C155 C152 1.388 . S
C155 N154 1.397 . S
C156 H137 0.929 . S
C156 C153 1.404 . S
C156 N154 1.334 . S
C157 H149 0.930 . S
C157 C152 1.418 . S
C157 C153 1.353 . S
C158 H128 0.930 . S
C158 N159 1.330 . S
C158 C160 1.446 . S
N159 Co118 2.151 . S
N159 C158 1.330 . S
N159 C163 1.418 . S
C160 H139 0.929 . S
C160 C158 1.446 . S
C160 C161 1.332 . S
C161 H141 0.931 . S
C161 C160 1.332 . S
C161 C162 1.267 . S
C162 H130 0.929 . S
C162 C161 1.267 . S
C162 C163 1.251 . S
C163 H133 0.929 . S
C163 N159 1.418 . S
C163 C162 1.251 . S
C164 H131 0.930 1_565 S
C164 C166 1.406 . S
C164 C169 1.261 . S
C165 H132 0.930 . S
C165 N167 1.325 . S
C165 C168 1.357 . S
C166 H134 0.928 . S
C166 C164 1.406 . S
C166 N167 1.261 . S
N167 Co118 2.214 . S
N167 C165 1.325 . S
N167 C166 1.261 . S
C168 H138 0.931 . S
C168 C165 1.357 . S
C168 C169 1.312 . S
C169 H140 0.930 . S
C169 C164 1.261 . S
C169 C168 1.312 . S
C170 O142 1.214 . S
C170 O150 1.234 . S
C171 H143 0.929 . S
C171 C174 1.391 . S
C171 C176 1.391 . S
C172 H144 0.929 . S
C172 C173 1.390 . S
C172 N175 1.391 . S
C173 H145 0.930 . S
C173 C172 1.390 . S
C173 C174 1.392 . S
C174 H146 0.929 . S
C174 C171 1.391 . S
C174 C173 1.392 . S
N175 Co119 2.257 . S
N175 C172 1.391 . S
N175 C176 1.388 . S
C176 H147 0.930 . S
C176 C171 1.391 . S
C176 N175 1.388 . S
Co177 O179 2.143 . S
Co177 O185 2.074 . S
Co177 O188 2.093 . S
Co177 O201 2.097 . S
Co177 N218 2.151 . S
Co177 N226 2.214 . S
Co178 O179 2.160 . S
Co178 O184 2.058 . S
Co178 O194 2.057 . S
Co178 O209 2.037 . S
Co178 N213 2.145 . S
Co178 N234 2.257 . S
O179 Co177 2.143 . S
O179 Co178 2.160 . S
C180 O181 1.278 . S
C180 O188 1.224 . S
O181 C180 1.278 . S
C182 O183 1.245 . S
C182 O194 1.232 . S
O183 C182 1.245 . S
O184 Co178 2.058 . S
O184 C210 1.269 . S
O185 Co177 2.074 . S
O185 C210 1.257 . S
H186 C211 0.930 . S
H187 C217 0.930 . S
O188 Co177 2.093 . S
O188 C180 1.224 . S
H189 C221 0.929 . S
H190 C223 0.930 1_556 S
H191 C224 0.930 . S
H192 C222 0.929 . S
H193 C225 0.928 . S
O194 Co178 2.057 . S
O194 C182 1.232 . S
H195 C214 0.929 . S
H196 C215 0.929 . S
H197 C227 0.931 . S
H198 C219 0.929 . S
H199 C228 0.930 . S
H200 C220 0.931 . S
O201 Co177 2.097 . S
O201 C229 1.214 . S
H202 C230 0.929 . S
H203 C231 0.929 . S
H204 C232 0.930 . S
H205 C233 0.929 . S
H206 C235 0.930 . S
H207 C212 0.930 . S
H208 C216 0.930 . S
O209 Co178 2.037 . S
O209 C229 1.234 . S
C210 O184 1.269 . S
C210 O185 1.257 . S
C211 H186 0.930 . S
C211 C214 1.388 . S
C211 C216 1.418 . S
C212 H207 0.930 . S
C212 C215 1.404 . S
C212 C216 1.353 . S
N213 Co178 2.145 . S
N213 C214 1.397 . S
N213 C215 1.334 . S
C214 H195 0.929 . S
C214 C211 1.388 . S
C214 N213 1.397 . S
C215 H196 0.929 . S
C215 C212 1.404 . S
C215 N213 1.334 . S
C216 H208 0.930 . S
C216 C211 1.418 . S
C216 C212 1.353 . S
C217 H187 0.930 . S
C217 N218 1.330 . S
C217 C219 1.446 . S
N218 Co177 2.151 . S
N218 C217 1.330 . S
N218 C222 1.418 . S
C219 H198 0.929 . S
C219 C217 1.446 . S
C219 C220 1.332 . S
C220 H200 0.931 . S
C220 C219 1.332 . S
C220 C221 1.267 . S
C221 H189 0.929 . S
C221 C220 1.267 . S
C221 C222 1.251 . S
C222 H192 0.929 . S
C222 N218 1.418 . S
C222 C221 1.251 . S
C223 H190 0.930 1_554 S
C223 C225 1.406 . S
C223 C228 1.261 . S
C224 H191 0.930 . S
C224 N226 1.325 . S
C224 C227 1.357 . S
C225 H193 0.928 . S
C225 C223 1.406 . S
C225 N226 1.261 . S
N226 Co177 2.214 . S
N226 C224 1.325 . S
N226 C225 1.261 . S
C227 H197 0.931 . S
C227 C224 1.357 . S
C227 C228 1.312 . S
C228 H199 0.930 . S
C228 C223 1.261 . S
C228 C227 1.312 . S
C229 O201 1.214 . S
C229 O209 1.234 . S
C230 H202 0.929 . S
C230 C233 1.391 . S
C230 C235 1.391 . S
C231 H203 0.929 . S
C231 C232 1.390 . S
C231 N234 1.391 . S
C232 H204 0.930 . S
C232 C231 1.390 . S
C232 C233 1.392 . S
C233 H205 0.929 . S
C233 C230 1.391 . S
C233 C232 1.392 . S
N234 Co178 2.257 . S
N234 C231 1.391 . S
N234 C235 1.388 . S
C235 H206 0.930 . S
C235 C230 1.391 . S
C235 N234 1.388 . S
Co236 O238 2.143 . S
Co236 O244 2.074 . S
Co236 O247 2.093 . S
Co236 O260 2.097 . S
Co236 N277 2.151 . S
Co236 N285 2.214 . S
Co237 O238 2.160 . S
Co237 O243 2.058 . S
Co237 O253 2.057 . S
Co237 O268 2.037 . S
Co237 N272 2.145 . S
Co237 N293 2.257 . S
O238 Co236 2.143 . S
O238 Co237 2.160 . S
C239 O240 1.278 . S
C239 O247 1.224 . S
O240 C239 1.278 . S
C241 O242 1.245 . S
C241 O253 1.232 . S
O242 C241 1.245 . S
O243 Co237 2.058 . S
O243 C269 1.269 . S
O244 Co236 2.074 . S
O244 C269 1.257 . S
H245 C270 0.930 . S
H246 C276 0.930 . S
O247 Co236 2.093 . S
O247 C239 1.224 . S
H248 C280 0.929 . S
H249 C282 0.930 . S
H250 C283 0.930 . S
H251 C281 0.929 . S
H252 C284 0.928 . S
O253 Co237 2.057 . S
O253 C241 1.232 . S
H254 C273 0.929 . S
H255 C274 0.929 . S
H256 C286 0.931 . S
H257 C278 0.929 . S
H258 C287 0.930 . S
H259 C279 0.931 . S
O260 Co236 2.097 . S
O260 C288 1.214 . S
H261 C289 0.929 . S
H262 C290 0.929 . S
H263 C291 0.930 . S
H264 C292 0.929 . S
H265 C294 0.930 . S
H266 C271 0.930 . S
H267 C275 0.930 . S
O268 Co237 2.037 . S
O268 C288 1.234 . S
C269 O243 1.269 . S
C269 O244 1.257 . S
C270 H245 0.930 . S
C270 C273 1.388 . S
C270 C275 1.418 . S
C271 H266 0.930 . S
C271 C274 1.404 . S
C271 C275 1.353 . S
N272 Co237 2.145 . S
N272 C273 1.397 . S
N272 C274 1.334 . S
C273 H254 0.929 . S
C273 C270 1.388 . S
C273 N272 1.397 . S
C274 H255 0.929 . S
C274 C271 1.404 . S
C274 N272 1.334 . S
C275 H267 0.930 . S
C275 C270 1.418 . S
C275 C271 1.353 . S
C276 H246 0.930 . S
C276 N277 1.330 . S
C276 C278 1.446 . S
N277 Co236 2.151 . S
N277 C276 1.330 . S
N277 C281 1.418 . S
C278 H257 0.929 . S
C278 C276 1.446 . S
C278 C279 1.332 . S
C279 H259 0.931 . S
C279 C278 1.332 . S
C279 C280 1.267 . S
C280 H248 0.929 . S
C280 C279 1.267 . S
C280 C281 1.251 . S
C281 H251 0.929 . S
C281 N277 1.418 . S
C281 C280 1.251 . S
C282 H249 0.930 . S
C282 C284 1.406 . S
C282 C287 1.261 . S
C283 H250 0.930 . S
C283 N285 1.325 . S
C283 C286 1.357 . S
C284 H252 0.928 . S
C284 C282 1.406 . S
C284 N285 1.261 . S
N285 Co236 2.214 . S
N285 C283 1.325 . S
N285 C284 1.261 . S
C286 H256 0.931 . S
C286 C283 1.357 . S
C286 C287 1.312 . S
C287 H258 0.930 . S
C287 C282 1.261 . S
C287 C286 1.312 . S
C288 O260 1.214 . S
C288 O268 1.234 . S
C289 H261 0.929 . S
C289 C292 1.391 . S
C289 C294 1.391 . S
C290 H262 0.929 . S
C290 C291 1.390 . S
C290 N293 1.391 . S
C291 H263 0.930 . S
C291 C290 1.390 . S
C291 C292 1.392 . S
C292 H264 0.929 . S
C292 C289 1.391 . S
C292 C291 1.392 . S
N293 Co237 2.257 . S
N293 C290 1.391 . S
N293 C294 1.388 . S
C294 H265 0.930 . S
C294 C289 1.391 . S
C294 N293 1.388 . S
Co295 O297 2.143 . S
Co295 O303 2.074 . S
Co295 O306 2.093 . S
Co295 O319 2.097 . S
Co295 N336 2.151 . S
Co295 N344 2.214 . S
Co296 O297 2.160 . S
Co296 O302 2.058 . S
Co296 O312 2.057 . S
Co296 O327 2.037 . S
Co296 N331 2.145 . S
Co296 N352 2.257 . S
O297 Co295 2.143 . S
O297 Co296 2.160 . S
C298 O299 1.278 . S
C298 O306 1.224 . S
O299 C298 1.278 . S
C300 O301 1.245 . S
C300 O312 1.232 . S
O301 C300 1.245 . S
O302 Co296 2.058 . S
O302 C328 1.269 . S
O303 Co295 2.074 . S
O303 C328 1.257 . S
H304 C329 0.930 . S
H305 C335 0.930 . S
O306 Co295 2.093 . S
O306 C298 1.224 . S
H307 C339 0.929 1_655 S
H308 C341 0.930 1_565 S
H309 C342 0.930 . S
H310 C340 0.929 . S
H311 C343 0.928 . S
O312 Co296 2.057 . S
O312 C300 1.232 . S
H313 C332 0.929 . S
H314 C333 0.929 . S
H315 C345 0.931 . S
H316 C337 0.929 . S
H317 C346 0.930 . S
H318 C338 0.931 . S
O319 Co295 2.097 . S
O319 C347 1.214 . S
H320 C348 0.929 . S
H321 C349 0.929 . S
H322 C350 0.930 . S
H323 C351 0.929 . S
H324 C353 0.930 . S
H325 C330 0.930 . S
H326 C334 0.930 . S
O327 Co296 2.037 . S
O327 C347 1.234 . S
C328 O302 1.269 . S
C328 O303 1.257 . S
C329 H304 0.930 . S
C329 C332 1.388 . S
C329 C334 1.418 . S
C330 H325 0.930 . S
C330 C333 1.404 . S
C330 C334 1.353 . S
N331 Co296 2.145 . S
N331 C332 1.397 . S
N331 C333 1.334 . S
C332 H313 0.929 . S
C332 C329 1.388 . S
C332 N331 1.397 . S
C333 H314 0.929 . S
C333 C330 1.404 . S
C333 N331 1.334 . S
C334 H326 0.930 . S
C334 C329 1.418 . S
C334 C330 1.353 . S
C335 H305 0.930 . S
C335 N336 1.330 . S
C335 C337 1.446 . S
N336 Co295 2.151 . S
N336 C335 1.330 . S
N336 C340 1.418 . S
C337 H316 0.929 . S
C337 C335 1.446 . S
C337 C338 1.332 . S
C338 H318 0.931 . S
C338 C337 1.332 . S
C338 C339 1.267 . S
C339 H307 0.929 1_455 S
C339 C338 1.267 . S
C339 C340 1.251 . S
C340 H310 0.929 . S
C340 N336 1.418 . S
C340 C339 1.251 . S
C341 H308 0.930 1_545 S
C341 C343 1.406 1_655 S
C341 C346 1.261 . S
C342 H309 0.930 . S
C342 N344 1.325 . S
C342 C345 1.357 1_455 S
C343 H311 0.928 . S
C343 C341 1.406 1_455 S
C343 N344 1.261 . S
N344 Co295 2.214 . S
N344 C342 1.325 . S
N344 C343 1.261 . S
C345 H315 0.931 . S
C345 C342 1.357 1_655 S
C345 C346 1.312 . S
C346 H317 0.930 . S
C346 C341 1.261 . S
C346 C345 1.312 . S
C347 O319 1.214 . S
C347 O327 1.234 . S
C348 H320 0.929 . S
C348 C351 1.391 . S
C348 C353 1.391 . S
C349 H321 0.929 . S
C349 C350 1.390 . S
C349 N352 1.391 . S
C350 H322 0.930 . S
C350 C349 1.390 . S
C350 C351 1.392 . S
C351 H323 0.929 . S
C351 C348 1.391 . S
C351 C350 1.392 . S
N352 Co296 2.257 . S
N352 C349 1.391 . S
N352 C353 1.388 . S
C353 H324 0.930 . S
C353 C348 1.391 . S
C353 N352 1.388 . S
Co354 O356 2.143 . S
Co354 O362 2.074 . S
Co354 O365 2.093 . S
Co354 O378 2.097 . S
Co354 N395 2.151 . S
Co354 N403 2.214 . S
Co355 O356 2.160 . S
Co355 O361 2.058 . S
Co355 O371 2.057 . S
Co355 O386 2.037 . S
Co355 N390 2.145 . S
Co355 N411 2.257 . S
O356 Co354 2.143 . S
O356 Co355 2.160 . S
C357 O358 1.278 . S
C357 O365 1.224 . S
O358 C357 1.278 . S
C359 O360 1.245 . S
C359 O371 1.232 . S
O360 C359 1.245 . S
O361 Co355 2.058 . S
O361 C387 1.269 . S
O362 Co354 2.074 . S
O362 C387 1.257 . S
H363 C388 0.930 . S
H364 C394 0.930 . S
O365 Co354 2.093 . S
O365 C357 1.224 . S
H366 C398 0.929 1_455 S
H367 C400 0.930 . S
H368 C401 0.930 . S
H369 C399 0.929 . S
H370 C402 0.928 . S
O371 Co355 2.057 . S
O371 C359 1.232 . S
H372 C391 0.929 . S
H373 C392 0.929 . S
H374 C404 0.931 . S
H375 C396 0.929 . S
H376 C405 0.930 . S
H377 C397 0.931 . S
O378 Co354 2.097 . S
O378 C406 1.214 . S
H379 C407 0.929 . S
H380 C408 0.929 . S
H381 C409 0.930 . S
H382 C410 0.929 . S
H383 C412 0.930 . S
H384 C389 0.930 . S
H385 C393 0.930 . S
O386 Co355 2.037 . S
O386 C406 1.234 . S
C387 O361 1.269 . S
C387 O362 1.257 . S
C388 H363 0.930 . S
C388 C391 1.388 . S
C388 C393 1.418 . S
C389 H384 0.930 . S
C389 C392 1.404 . S
C389 C393 1.353 . S
N390 Co355 2.145 . S
N390 C391 1.397 . S
N390 C392 1.334 . S
C391 H372 0.929 . S
C391 C388 1.388 . S
C391 N390 1.397 . S
C392 H373 0.929 . S
C392 C389 1.404 . S
C392 N390 1.334 . S
C393 H385 0.930 . S
C393 C388 1.418 . S
C393 C389 1.353 . S
C394 H364 0.930 . S
C394 N395 1.330 . S
C394 C396 1.446 . S
N395 Co354 2.151 . S
N395 C394 1.330 . S
N395 C399 1.418 . S
C396 H375 0.929 . S
C396 C394 1.446 . S
C396 C397 1.332 . S
C397 H377 0.931 . S
C397 C396 1.332 . S
C397 C398 1.267 . S
C398 H366 0.929 1_655 S
C398 C397 1.267 . S
C398 C399 1.251 . S
C399 H369 0.929 . S
C399 N395 1.418 . S
C399 C398 1.251 . S
C400 H367 0.930 . S
C400 C402 1.406 1_455 S
C400 C405 1.261 . S
C401 H368 0.930 . S
C401 N403 1.325 . S
C401 C404 1.357 1_655 S
C402 H370 0.928 . S
C402 C400 1.406 1_655 S
C402 N403 1.261 . S
N403 Co354 2.214 . S
N403 C401 1.325 . S
N403 C402 1.261 . S
C404 H374 0.931 . S
C404 C401 1.357 1_455 S
C404 C405 1.312 . S
C405 H376 0.930 . S
C405 C400 1.261 . S
C405 C404 1.312 . S
C406 O378 1.214 . S
C406 O386 1.234 . S
C407 H379 0.929 . S
C407 C410 1.391 . S
C407 C412 1.391 . S
C408 H380 0.929 . S
C408 C409 1.390 . S
C408 N411 1.391 . S
C409 H381 0.930 . S
C409 C408 1.390 . S
C409 C410 1.392 . S
C410 H382 0.929 . S
C410 C407 1.391 . S
C410 C409 1.392 . S
N411 Co355 2.257 . S
N411 C408 1.391 . S
N411 C412 1.388 . S
C412 H383 0.930 . S
C412 C407 1.391 . S
C412 N411 1.388 . S
Co413 O415 2.143 . S
Co413 O421 2.074 . S
Co413 O424 2.093 . S
Co413 O437 2.097 . S
Co413 N454 2.151 . S
Co413 N462 2.214 . S
Co414 O415 2.160 . S
Co414 O420 2.058 . S
Co414 O430 2.057 . S
Co414 O445 2.037 . S
Co414 N449 2.145 . S
Co414 N470 2.257 . S
O415 Co413 2.143 . S
O415 Co414 2.160 . S
C416 O417 1.278 . S
C416 O424 1.224 . S
O417 C416 1.278 . S
C418 O419 1.245 . S
C418 O430 1.232 . S
O419 C418 1.245 . S
O420 Co414 2.058 . S
O420 C446 1.269 . S
O421 Co413 2.074 . S
O421 C446 1.257 . S
H422 C447 0.930 . S
H423 C453 0.930 . S
O424 Co413 2.093 . S
O424 C416 1.224 . S
H425 C457 0.929 . S
H426 C459 0.930 . S
H427 C460 0.930 . S
H428 C458 0.929 . S
H429 C461 0.928 . S
O430 Co414 2.057 . S
O430 C418 1.232 . S
H431 C450 0.929 . S
H432 C451 0.929 . S
H433 C463 0.931 . S
H434 C455 0.929 . S
H435 C464 0.930 . S
H436 C456 0.931 . S
O437 Co413 2.097 . S
O437 C465 1.214 . S
H438 C466 0.929 . S
H439 C467 0.929 . S
H440 C468 0.930 . S
H441 C469 0.929 . S
H442 C471 0.930 . S
H443 C448 0.930 . S
H444 C452 0.930 . S
O445 Co414 2.037 . S
O445 C465 1.234 . S
C446 O420 1.269 . S
C446 O421 1.257 . S
C447 H422 0.930 . S
C447 C450 1.388 . S
C447 C452 1.418 . S
C448 H443 0.930 . S
C448 C451 1.404 . S
C448 C452 1.353 . S
N449 Co414 2.145 . S
N449 C450 1.397 . S
N449 C451 1.334 . S
C450 H431 0.929 . S
C450 C447 1.388 . S
C450 N449 1.397 . S
C451 H432 0.929 . S
C451 C448 1.404 . S
C451 N449 1.334 . S
C452 H444 0.930 . S
C452 C447 1.418 . S
C452 C448 1.353 . S
C453 H423 0.930 . S
C453 N454 1.330 . S
C453 C455 1.446 . S
N454 Co413 2.151 . S
N454 C453 1.330 . S
N454 C458 1.418 . S
C455 H434 0.929 . S
C455 C453 1.446 . S
C455 C456 1.332 . S
C456 H436 0.931 . S
C456 C455 1.332 . S
C456 C457 1.267 . S
C457 H425 0.929 . S
C457 C456 1.267 . S
C457 C458 1.251 . S
C458 H428 0.929 . S
C458 N454 1.418 . S
C458 C457 1.251 . S
C459 H426 0.930 . S
C459 C461 1.406 1_455 S
C459 C464 1.261 . S
C460 H427 0.930 . S
C460 N462 1.325 . S
C460 C463 1.357 1_655 S
C461 H429 0.928 . S
C461 C459 1.406 1_655 S
C461 N462 1.261 . S
N462 Co413 2.214 . S
N462 C460 1.325 . S
N462 C461 1.261 . S
C463 H433 0.931 . S
C463 C460 1.357 1_455 S
C463 C464 1.312 . S
C464 H435 0.930 . S
C464 C459 1.261 . S
C464 C463 1.312 . S
C465 O437 1.214 . S
C465 O445 1.234 . S
C466 H438 0.929 . S
C466 C469 1.391 . S
C466 C471 1.391 . S
C467 H439 0.929 . S
C467 C468 1.390 . S
C467 N470 1.391 . S
C468 H440 0.930 . S
C468 C467 1.390 . S
C468 C469 1.392 . S
C469 H441 0.929 . S
C469 C466 1.391 . S
C469 C468 1.392 . S
N470 Co414 2.257 . S
N470 C467 1.391 . S
N470 C471 1.388 . S
C471 H442 0.930 . S
C471 C466 1.391 . S
C471 N470 1.388 . S
Co472 O474 2.143 . S
Co472 O480 2.074 . S
Co472 O483 2.093 . S
Co472 O496 2.097 . S
Co472 N513 2.151 . S
Co472 N521 2.214 . S
Co473 O474 2.160 . S
Co473 O479 2.058 . S
Co473 O489 2.057 . S
Co473 O504 2.037 . S
Co473 N508 2.145 . S
Co473 N529 2.257 . S
O474 Co472 2.143 . S
O474 Co473 2.160 . S
C475 O476 1.278 . S
C475 O483 1.224 . S
O476 C475 1.278 . S
C477 O478 1.245 . S
C477 O489 1.232 . S
O478 C477 1.245 . S
O479 Co473 2.058 . S
O479 C505 1.269 . S
O480 Co472 2.074 . S
O480 C505 1.257 . S
H481 C506 0.930 . S
H482 C512 0.930 . S
O483 Co472 2.093 . S
O483 C475 1.224 . S
H484 C516 0.929 . S
H485 C518 0.930 . S
H486 C519 0.930 . S
H487 C517 0.929 . S
H488 C520 0.928 . S
O489 Co473 2.057 . S
O489 C477 1.232 . S
H490 C509 0.929 . S
H491 C510 0.929 . S
H492 C522 0.931 . S
H493 C514 0.929 . S
H494 C523 0.930 . S
H495 C515 0.931 . S
O496 Co472 2.097 . S
O496 C524 1.214 . S
H497 C525 0.929 . S
H498 C526 0.929 . S
H499 C527 0.930 . S
H500 C528 0.929 . S
H501 C530 0.930 . S
H502 C507 0.930 . S
H503 C511 0.930 . S
O504 Co473 2.037 . S
O504 C524 1.234 . S
C505 O479 1.269 . S
C505 O480 1.257 . S
C506 H481 0.930 . S
C506 C509 1.388 . S
C506 C511 1.418 . S
C507 H502 0.930 . S
C507 C510 1.404 . S
C507 C511 1.353 . S
N508 Co473 2.145 . S
N508 C509 1.397 . S
N508 C510 1.334 . S
C509 H490 0.929 . S
C509 C506 1.388 . S
C509 N508 1.397 . S
C510 H491 0.929 . S
C510 C507 1.404 . S
C510 N508 1.334 . S
C511 H503 0.930 . S
C511 C506 1.418 . S
C511 C507 1.353 . S
C512 H482 0.930 . S
C512 N513 1.330 . S
C512 C514 1.446 . S
N513 Co472 2.151 . S
N513 C512 1.330 . S
N513 C517 1.418 . S
C514 H493 0.929 . S
C514 C512 1.446 . S
C514 C515 1.332 . S
C515 H495 0.931 . S
C515 C514 1.332 . S
C515 C516 1.267 . S
C516 H484 0.929 . S
C516 C515 1.267 . S
C516 C517 1.251 . S
C517 H487 0.929 . S
C517 N513 1.418 . S
C517 C516 1.251 . S
C518 H485 0.930 . S
C518 C520 1.406 . S
C518 C523 1.261 . S
C519 H486 0.930 . S
C519 N521 1.325 . S
C519 C522 1.357 . S
C520 H488 0.928 . S
C520 C518 1.406 . S
C520 N521 1.261 . S
N521 Co472 2.214 . S
N521 C519 1.325 . S
N521 C520 1.261 . S
C522 H492 0.931 . S
C522 C519 1.357 . S
C522 C523 1.312 . S
C523 H494 0.930 . S
C523 C518 1.261 . S
C523 C522 1.312 . S
C524 O496 1.214 . S
C524 O504 1.234 . S
C525 H497 0.929 . S
C525 C528 1.391 . S
C525 C530 1.391 . S
C526 H498 0.929 . S
C526 C527 1.390 . S
C526 N529 1.391 . S
C527 H499 0.930 . S
C527 C526 1.390 . S
C527 C528 1.392 . S
C528 H500 0.929 . S
C528 C525 1.391 . S
C528 C527 1.392 . S
N529 Co473 2.257 . S
N529 C526 1.391 . S
N529 C530 1.388 . S
C530 H501 0.930 . S
C530 C525 1.391 . S
C530 N529 1.388 . S
Co531 O533 2.143 . S
Co531 O539 2.074 . S
Co531 O542 2.093 . S
Co531 O555 2.097 . S
Co531 N572 2.151 . S
Co531 N580 2.214 . S
Co532 O533 2.160 . S
Co532 O538 2.058 . S
Co532 O548 2.057 . S
Co532 O563 2.037 . S
Co532 N567 2.145 . S
Co532 N588 2.257 . S
O533 Co531 2.143 . S
O533 Co532 2.160 . S
C534 O535 1.278 . S
C534 O542 1.224 . S
O535 C534 1.278 . S
C536 O537 1.245 . S
C536 O548 1.232 . S
O537 C536 1.245 . S
O538 Co532 2.058 . S
O538 C564 1.269 . S
O539 Co531 2.074 . S
O539 C564 1.257 . S
H540 C565 0.930 . S
H541 C571 0.930 . S
O542 Co531 2.093 . S
O542 C534 1.224 . S
H543 C575 0.929 . S
H544 C577 0.930 . S
H545 C578 0.930 . S
H546 C576 0.929 . S
H547 C579 0.928 . S
O548 Co532 2.057 . S
O548 C536 1.232 . S
H549 C568 0.929 . S
H550 C569 0.929 . S
H551 C581 0.931 . S
H552 C573 0.929 . S
H553 C582 0.930 . S
H554 C574 0.931 . S
O555 Co531 2.097 . S
O555 C583 1.214 . S
H556 C584 0.929 . S
H557 C585 0.929 . S
H558 C586 0.930 . S
H559 C587 0.929 . S
H560 C589 0.930 . S
H561 C566 0.930 . S
H562 C570 0.930 . S
O563 Co532 2.037 . S
O563 C583 1.234 . S
C564 O538 1.269 . S
C564 O539 1.257 . S
C565 H540 0.930 . S
C565 C568 1.388 . S
C565 C570 1.418 . S
C566 H561 0.930 . S
C566 C569 1.404 . S
C566 C570 1.353 . S
N567 Co532 2.145 . S
N567 C568 1.397 . S
N567 C569 1.334 . S
C568 H549 0.929 . S
C568 C565 1.388 . S
C568 N567 1.397 . S
C569 H550 0.929 . S
C569 C566 1.404 . S
C569 N567 1.334 . S
C570 H562 0.930 . S
C570 C565 1.418 . S
C570 C566 1.353 . S
C571 H541 0.930 . S
C571 N572 1.330 . S
C571 C573 1.446 . S
N572 Co531 2.151 . S
N572 C571 1.330 . S
N572 C576 1.418 . S
C573 H552 0.929 . S
C573 C571 1.446 . S
C573 C574 1.332 . S
C574 H554 0.931 . S
C574 C573 1.332 . S
C574 C575 1.267 . S
C575 H543 0.929 . S
C575 C574 1.267 . S
C575 C576 1.251 . S
C576 H546 0.929 . S
C576 N572 1.418 . S
C576 C575 1.251 . S
C577 H544 0.930 . S
C577 C579 1.406 . S
C577 C582 1.261 . S
C578 H545 0.930 . S
C578 N580 1.325 . S
C578 C581 1.357 . S
C579 H547 0.928 . S
C579 C577 1.406 . S
C579 N580 1.261 . S
N580 Co531 2.214 . S
N580 C578 1.325 . S
N580 C579 1.261 . S
C581 H551 0.931 . S
C581 C578 1.357 . S
C581 C582 1.312 . S
C582 H553 0.930 . S
C582 C577 1.261 . S
C582 C581 1.312 . S
C583 O555 1.214 . S
C583 O563 1.234 . S
C584 H556 0.929 . S
C584 C587 1.391 . S
C584 C589 1.391 . S
C585 H557 0.929 . S
C585 C586 1.390 . S
C585 N588 1.391 . S
C586 H558 0.930 . S
C586 C585 1.390 . S
C586 C587 1.392 . S
C587 H559 0.929 . S
C587 C584 1.391 . S
C587 C586 1.392 . S
N588 Co532 2.257 . S
N588 C585 1.391 . S
N588 C589 1.388 . S
C589 H560 0.930 . S
C589 C584 1.391 . S
C589 N588 1.388 . S
Co590 O592 2.143 . S
Co590 O598 2.074 . S
Co590 O601 2.093 . S
Co590 O614 2.097 . S
Co590 N631 2.151 . S
Co590 N639 2.214 . S
Co591 O592 2.160 . S
Co591 O597 2.058 . S
Co591 O607 2.057 . S
Co591 O622 2.037 . S
Co591 N626 2.145 . S
Co591 N647 2.257 . S
O592 Co590 2.143 . S
O592 Co591 2.160 . S
C593 O594 1.278 . S
C593 O601 1.224 . S
O594 C593 1.278 . S
C595 O596 1.245 . S
C595 O607 1.232 . S
O596 C595 1.245 . S
O597 Co591 2.058 . S
O597 C623 1.269 . S
O598 Co590 2.074 . S
O598 C623 1.257 . S
H599 C624 0.930 . S
H600 C630 0.930 . S
O601 Co590 2.093 . S
O601 C593 1.224 . S
H602 C634 0.929 . S
H603 C636 0.930 . S
H604 C637 0.930 . S
H605 C635 0.929 . S
H606 C638 0.928 . S
O607 Co591 2.057 . S
O607 C595 1.232 . S
H608 C627 0.929 . S
H609 C628 0.929 . S
H610 C640 0.931 . S
H611 C632 0.929 . S
H612 C641 0.930 . S
H613 C633 0.931 . S
O614 Co590 2.097 . S
O614 C642 1.214 . S
H615 C643 0.929 . S
H616 C644 0.929 . S
H617 C645 0.930 . S
H618 C646 0.929 . S
H619 C648 0.930 . S
H620 C625 0.930 . S
H621 C629 0.930 . S
O622 Co591 2.037 . S
O622 C642 1.234 . S
C623 O597 1.269 . S
C623 O598 1.257 . S
C624 H599 0.930 . S
C624 C627 1.388 . S
C624 C629 1.418 . S
C625 H620 0.930 . S
C625 C628 1.404 . S
C625 C629 1.353 . S
N626 Co591 2.145 . S
N626 C627 1.397 . S
N626 C628 1.334 . S
C627 H608 0.929 . S
C627 C624 1.388 . S
C627 N626 1.397 . S
C628 H609 0.929 . S
C628 C625 1.404 . S
C628 N626 1.334 . S
C629 H621 0.930 . S
C629 C624 1.418 . S
C629 C625 1.353 . S
C630 H600 0.930 . S
C630 N631 1.330 . S
C630 C632 1.446 . S
N631 Co590 2.151 . S
N631 C630 1.330 . S
N631 C635 1.418 . S
C632 H611 0.929 . S
C632 C630 1.446 . S
C632 C633 1.332 . S
C633 H613 0.931 . S
C633 C632 1.332 . S
C633 C634 1.267 . S
C634 H602 0.929 . S
C634 C633 1.267 . S
C634 C635 1.251 . S
C635 H605 0.929 . S
C635 N631 1.418 . S
C635 C634 1.251 . S
C636 H603 0.930 . S
C636 C638 1.406 . S
C636 C641 1.261 . S
C637 H604 0.930 . S
C637 N639 1.325 . S
C637 C640 1.357 . S
C638 H606 0.928 . S
C638 C636 1.406 . S
C638 N639 1.261 . S
N639 Co590 2.214 . S
N639 C637 1.325 . S
N639 C638 1.261 . S
C640 H610 0.931 . S
C640 C637 1.357 . S
C640 C641 1.312 . S
C641 H612 0.930 . S
C641 C636 1.261 . S
C641 C640 1.312 . S
C642 O614 1.214 . S
C642 O622 1.234 . S
C643 H615 0.929 . S
C643 C646 1.391 . S
C643 C648 1.391 . S
C644 H616 0.929 . S
C644 C645 1.390 . S
C644 N647 1.391 . S
C645 H617 0.930 . S
C645 C644 1.390 . S
C645 C646 1.392 . S
C646 H618 0.929 . S
C646 C643 1.391 . S
C646 C645 1.392 . S
N647 Co591 2.257 . S
N647 C644 1.391 . S
N647 C648 1.388 . S
C648 H619 0.930 . S
C648 C643 1.391 . S
C648 N647 1.388 . S
Co649 O651 2.143 . S
Co649 O657 2.074 . S
Co649 O660 2.093 . S
Co649 O673 2.097 . S
Co649 N690 2.151 . S
Co649 N698 2.214 . S
Co650 O651 2.160 . S
Co650 O656 2.058 . S
Co650 O666 2.057 . S
Co650 O681 2.037 . S
Co650 N685 2.145 . S
Co650 N706 2.257 . S
O651 Co649 2.143 . S
O651 Co650 2.160 . S
C652 O653 1.278 . S
C652 O660 1.224 . S
O653 C652 1.278 . S
C654 O655 1.245 . S
C654 O666 1.232 . S
O655 C654 1.245 . S
O656 Co650 2.058 . S
O656 C682 1.269 . S
O657 Co649 2.074 . S
O657 C682 1.257 . S
H658 C683 0.930 . S
H659 C689 0.930 . S
O660 Co649 2.093 . S
O660 C652 1.224 . S
H661 C693 0.929 . S
H662 C695 0.930 . S
H663 C696 0.930 . S
H664 C694 0.929 . S
H665 C697 0.928 . S
O666 Co650 2.057 . S
O666 C654 1.232 . S
H667 C686 0.929 . S
H668 C687 0.929 . S
H669 C699 0.931 . S
H670 C691 0.929 . S
H671 C700 0.930 . S
H672 C692 0.931 . S
O673 Co649 2.097 . S
O673 C701 1.214 . S
H674 C702 0.929 . S
H675 C703 0.929 . S
H676 C704 0.930 . S
H677 C705 0.929 . S
H678 C707 0.930 . S
H679 C684 0.930 . S
H680 C688 0.930 . S
O681 Co650 2.037 . S
O681 C701 1.234 . S
C682 O656 1.269 . S
C682 O657 1.257 . S
C683 H658 0.930 . S
C683 C686 1.388 . S
C683 C688 1.418 . S
C684 H679 0.930 . S
C684 C687 1.404 . S
C684 C688 1.353 . S
N685 Co650 2.145 . S
N685 C686 1.397 . S
N685 C687 1.334 . S
C686 H667 0.929 . S
C686 C683 1.388 . S
C686 N685 1.397 . S
C687 H668 0.929 . S
C687 C684 1.404 . S
C687 N685 1.334 . S
C688 H680 0.930 . S
C688 C683 1.418 . S
C688 C684 1.353 . S
C689 H659 0.930 . S
C689 N690 1.330 . S
C689 C691 1.446 . S
N690 Co649 2.151 . S
N690 C689 1.330 . S
N690 C694 1.418 . S
C691 H670 0.929 . S
C691 C689 1.446 . S
C691 C692 1.332 . S
C692 H672 0.931 . S
C692 C691 1.332 . S
C692 C693 1.267 . S
C693 H661 0.929 . S
C693 C692 1.267 . S
C693 C694 1.251 . S
C694 H664 0.929 . S
C694 N690 1.418 . S
C694 C693 1.251 . S
C695 H662 0.930 . S
C695 C697 1.406 . S
C695 C700 1.261 . S
C696 H663 0.930 . S
C696 N698 1.325 . S
C696 C699 1.357 . S
C697 H665 0.928 . S
C697 C695 1.406 . S
C697 N698 1.261 . S
N698 Co649 2.214 . S
N698 C696 1.325 . S
N698 C697 1.261 . S
C699 H669 0.931 . S
C699 C696 1.357 . S
C699 C700 1.312 . S
C700 H671 0.930 . S
C700 C695 1.261 . S
C700 C699 1.312 . S
C701 O673 1.214 . S
C701 O681 1.234 . S
C702 H674 0.929 . S
C702 C705 1.391 . S
C702 C707 1.391 . S
C703 H675 0.929 . S
C703 C704 1.390 . S
C703 N706 1.391 . S
C704 H676 0.930 . S
C704 C703 1.390 . S
C704 C705 1.392 . S
C705 H677 0.929 . S
C705 C702 1.391 . S
C705 C704 1.392 . S
N706 Co650 2.257 . S
N706 C703 1.391 . S
N706 C707 1.388 . S
C707 H678 0.930 . S
C707 C702 1.391 . S
C707 N706 1.388 . S
Co708 O710 2.143 . S
Co708 O716 2.074 . S
Co708 O719 2.093 . S
Co708 O732 2.097 . S
Co708 N749 2.151 . S
Co708 N757 2.214 . S
Co709 O710 2.160 . S
Co709 O715 2.058 . S
Co709 O725 2.057 . S
Co709 O740 2.037 . S
Co709 N744 2.145 . S
Co709 N765 2.257 . S
O710 Co708 2.143 . S
O710 Co709 2.160 . S
C711 O712 1.278 . S
C711 O719 1.224 . S
O712 C711 1.278 . S
C713 O714 1.245 . S
C713 O725 1.232 . S
O714 C713 1.245 . S
O715 Co709 2.058 . S
O715 C741 1.269 . S
O716 Co708 2.074 . S
O716 C741 1.257 . S
H717 C742 0.930 . S
H718 C748 0.930 . S
O719 Co708 2.093 . S
O719 C711 1.224 . S
H720 C752 0.929 . S
H721 C754 0.930 . S
H722 C755 0.930 . S
H723 C753 0.929 . S
H724 C756 0.928 . S
O725 Co709 2.057 . S
O725 C713 1.232 . S
H726 C745 0.929 . S
H727 C746 0.929 . S
H728 C758 0.931 . S
H729 C750 0.929 . S
H730 C759 0.930 . S
H731 C751 0.931 . S
O732 Co708 2.097 . S
O732 C760 1.214 . S
H733 C761 0.929 . S
H734 C762 0.929 . S
H735 C763 0.930 . S
H736 C764 0.929 . S
H737 C766 0.930 . S
H738 C743 0.930 . S
H739 C747 0.930 . S
O740 Co709 2.037 . S
O740 C760 1.234 . S
C741 O715 1.269 . S
C741 O716 1.257 . S
C742 H717 0.930 . S
C742 C745 1.388 . S
C742 C747 1.418 . S
C743 H738 0.930 . S
C743 C746 1.404 . S
C743 C747 1.353 . S
N744 Co709 2.145 . S
N744 C745 1.397 . S
N744 C746 1.334 . S
C745 H726 0.929 . S
C745 C742 1.388 . S
C745 N744 1.397 . S
C746 H727 0.929 . S
C746 C743 1.404 . S
C746 N744 1.334 . S
C747 H739 0.930 . S
C747 C742 1.418 . S
C747 C743 1.353 . S
C748 H718 0.930 . S
C748 N749 1.330 . S
C748 C750 1.446 . S
N749 Co708 2.151 . S
N749 C748 1.330 . S
N749 C753 1.418 . S
C750 H729 0.929 . S
C750 C748 1.446 . S
C750 C751 1.332 . S
C751 H731 0.931 . S
C751 C750 1.332 . S
C751 C752 1.267 . S
C752 H720 0.929 . S
C752 C751 1.267 . S
C752 C753 1.251 . S
C753 H723 0.929 . S
C753 N749 1.418 . S
C753 C752 1.251 . S
C754 H721 0.930 . S
C754 C756 1.406 . S
C754 C759 1.261 . S
C755 H722 0.930 . S
C755 N757 1.325 . S
C755 C758 1.357 . S
C756 H724 0.928 . S
C756 C754 1.406 . S
C756 N757 1.261 . S
N757 Co708 2.214 . S
N757 C755 1.325 . S
N757 C756 1.261 . S
C758 H728 0.931 . S
C758 C755 1.357 . S
C758 C759 1.312 . S
C759 H730 0.930 . S
C759 C754 1.261 . S
C759 C758 1.312 . S
C760 O732 1.214 . S
C760 O740 1.234 . S
C761 H733 0.929 . S
C761 C764 1.391 . S
C761 C766 1.391 . S
C762 H734 0.929 . S
C762 C763 1.390 . S
C762 N765 1.391 . S
C763 H735 0.930 . S
C763 C762 1.390 . S
C763 C764 1.392 . S
C764 H736 0.929 . S
C764 C761 1.391 . S
C764 C763 1.392 . S
N765 Co709 2.257 . S
N765 C762 1.391 . S
N765 C766 1.388 . S
C766 H737 0.930 . S
C766 C761 1.391 . S
C766 N765 1.388 . S
Co767 O769 2.143 . S
Co767 O775 2.074 . S
Co767 O778 2.093 . S
Co767 O791 2.097 . S
Co767 N808 2.151 . S
Co767 N816 2.214 . S
Co768 O769 2.160 . S
Co768 O774 2.058 . S
Co768 O784 2.057 . S
Co768 O799 2.037 . S
Co768 N803 2.145 . S
Co768 N824 2.257 . S
O769 Co767 2.143 . S
O769 Co768 2.160 . S
C770 O771 1.278 . S
C770 O778 1.224 . S
O771 C770 1.278 . S
C772 O773 1.245 . S
C772 O784 1.232 . S
O773 C772 1.245 . S
O774 Co768 2.058 . S
O774 C800 1.269 . S
O775 Co767 2.074 . S
O775 C800 1.257 . S
H776 C801 0.930 . S
H777 C807 0.930 . S
O778 Co767 2.093 . S
O778 C770 1.224 . S
H779 C811 0.929 . S
H780 C813 0.930 . S
H781 C814 0.930 . S
H782 C812 0.929 . S
H783 C815 0.928 . S
O784 Co768 2.057 . S
O784 C772 1.232 . S
H785 C804 0.929 . S
H786 C805 0.929 . S
H787 C817 0.931 . S
H788 C809 0.929 . S
H789 C818 0.930 . S
H790 C810 0.931 . S
O791 Co767 2.097 . S
O791 C819 1.214 . S
H792 C820 0.929 . S
H793 C821 0.929 . S
H794 C822 0.930 . S
H795 C823 0.929 . S
H796 C825 0.930 . S
H797 C802 0.930 . S
H798 C806 0.930 . S
O799 Co768 2.037 . S
O799 C819 1.234 . S
C800 O774 1.269 . S
C800 O775 1.257 . S
C801 H776 0.930 . S
C801 C804 1.388 . S
C801 C806 1.418 . S
C802 H797 0.930 . S
C802 C805 1.404 . S
C802 C806 1.353 . S
N803 Co768 2.145 . S
N803 C804 1.397 . S
N803 C805 1.334 . S
C804 H785 0.929 . S
C804 C801 1.388 . S
C804 N803 1.397 . S
C805 H786 0.929 . S
C805 C802 1.404 . S
C805 N803 1.334 . S
C806 H798 0.930 . S
C806 C801 1.418 . S
C806 C802 1.353 . S
C807 H777 0.930 . S
C807 N808 1.330 . S
C807 C809 1.446 . S
N808 Co767 2.151 . S
N808 C807 1.330 . S
N808 C812 1.418 . S
C809 H788 0.929 . S
C809 C807 1.446 . S
C809 C810 1.332 . S
C810 H790 0.931 . S
C810 C809 1.332 . S
C810 C811 1.267 . S
C811 H779 0.929 . S
C811 C810 1.267 . S
C811 C812 1.251 . S
C812 H782 0.929 . S
C812 N808 1.418 . S
C812 C811 1.251 . S
C813 H780 0.930 . S
C813 C815 1.406 . S
C813 C818 1.261 . S
C814 H781 0.930 . S
C814 N816 1.325 . S
C814 C817 1.357 . S
C815 H783 0.928 . S
C815 C813 1.406 . S
C815 N816 1.261 . S
N816 Co767 2.214 . S
N816 C814 1.325 . S
N816 C815 1.261 . S
C817 H787 0.931 . S
C817 C814 1.357 . S
C817 C818 1.312 . S
C818 H789 0.930 . S
C818 C813 1.261 . S
C818 C817 1.312 . S
C819 O791 1.214 . S
C819 O799 1.234 . S
C820 H792 0.929 . S
C820 C823 1.391 . S
C820 C825 1.391 . S
C821 H793 0.929 . S
C821 C822 1.390 . S
C821 N824 1.391 . S
C822 H794 0.930 . S
C822 C821 1.390 . S
C822 C823 1.392 . S
C823 H795 0.929 . S
C823 C820 1.391 . S
C823 C822 1.392 . S
N824 Co768 2.257 . S
N824 C821 1.391 . S
N824 C825 1.388 . S
C825 H796 0.930 . S
C825 C820 1.391 . S
C825 N824 1.388 . S
Co826 O828 2.143 . S
Co826 O834 2.074 . S
Co826 O837 2.093 . S
Co826 O850 2.097 . S
Co826 N867 2.151 . S
Co826 N875 2.214 . S
Co827 O828 2.160 . S
Co827 O833 2.058 . S
Co827 O843 2.057 . S
Co827 O858 2.037 . S
Co827 N862 2.145 . S
Co827 N883 2.257 . S
O828 Co826 2.143 . S
O828 Co827 2.160 . S
C829 O830 1.278 . S
C829 O837 1.224 . S
O830 C829 1.278 . S
C831 O832 1.245 . S
C831 O843 1.232 . S
O832 C831 1.245 . S
O833 Co827 2.058 . S
O833 C859 1.269 . S
O834 Co826 2.074 . S
O834 C859 1.257 . S
H835 C860 0.930 . S
H836 C866 0.930 . S
O837 Co826 2.093 . S
O837 C829 1.224 . S
H838 C870 0.929 . S
H839 C872 0.930 . S
H840 C873 0.930 . S
H841 C871 0.929 . S
H842 C874 0.928 . S
O843 Co827 2.057 . S
O843 C831 1.232 . S
H844 C863 0.929 . S
H845 C864 0.929 . S
H846 C876 0.931 . S
H847 C868 0.929 . S
H848 C877 0.930 . S
H849 C869 0.931 . S
O850 Co826 2.097 . S
O850 C878 1.214 . S
H851 C879 0.929 . S
H852 C880 0.929 . S
H853 C881 0.930 . S
H854 C882 0.929 . S
H855 C884 0.930 . S
H856 C861 0.930 . S
H857 C865 0.930 . S
O858 Co827 2.037 . S
O858 C878 1.234 . S
C859 O833 1.269 . S
C859 O834 1.257 . S
C860 H835 0.930 . S
C860 C863 1.388 . S
C860 C865 1.418 . S
C861 H856 0.930 . S
C861 C864 1.404 . S
C861 C865 1.353 . S
N862 Co827 2.145 . S
N862 C863 1.397 . S
N862 C864 1.334 . S
C863 H844 0.929 . S
C863 C860 1.388 . S
C863 N862 1.397 . S
C864 H845 0.929 . S
C864 C861 1.404 . S
C864 N862 1.334 . S
C865 H857 0.930 . S
C865 C860 1.418 . S
C865 C861 1.353 . S
C866 H836 0.930 . S
C866 N867 1.330 . S
C866 C868 1.446 . S
N867 Co826 2.151 . S
N867 C866 1.330 . S
N867 C871 1.418 . S
C868 H847 0.929 . S
C868 C866 1.446 . S
C868 C869 1.332 . S
C869 H849 0.931 . S
C869 C868 1.332 . S
C869 C870 1.267 . S
C870 H838 0.929 . S
C870 C869 1.267 . S
C870 C871 1.251 . S
C871 H841 0.929 . S
C871 N867 1.418 . S
C871 C870 1.251 . S
C872 H839 0.930 . S
C872 C874 1.406 . S
C872 C877 1.261 . S
C873 H840 0.930 . S
C873 N875 1.325 . S
C873 C876 1.357 . S
C874 H842 0.928 . S
C874 C872 1.406 . S
C874 N875 1.261 . S
N875 Co826 2.214 . S
N875 C873 1.325 . S
N875 C874 1.261 . S
C876 H846 0.931 . S
C876 C873 1.357 . S
C876 C877 1.312 . S
C877 H848 0.930 . S
C877 C872 1.261 . S
C877 C876 1.312 . S
C878 O850 1.214 . S
C878 O858 1.234 . S
C879 H851 0.929 . S
C879 C882 1.391 . S
C879 C884 1.391 . S
C880 H852 0.929 . S
C880 C881 1.390 . S
C880 N883 1.391 . S
C881 H853 0.930 . S
C881 C880 1.390 . S
C881 C882 1.392 . S
C882 H854 0.929 . S
C882 C879 1.391 . S
C882 C881 1.392 . S
N883 Co827 2.257 . S
N883 C880 1.391 . S
N883 C884 1.388 . S
C884 H855 0.930 . S
C884 C879 1.391 . S
C884 N883 1.388 . S
Co885 O887 2.143 . S
Co885 O893 2.074 . S
Co885 O896 2.093 . S
Co885 O909 2.097 . S
Co885 N926 2.151 . S
Co885 N934 2.214 . S
Co886 O887 2.160 . S
Co886 O892 2.058 . S
Co886 O902 2.057 . S
Co886 O917 2.037 . S
Co886 N921 2.145 . S
Co886 N942 2.257 . S
O887 Co885 2.143 . S
O887 Co886 2.160 . S
C888 O889 1.278 . S
C888 O896 1.224 . S
O889 C888 1.278 . S
C890 O891 1.245 . S
C890 O902 1.232 . S
O891 C890 1.245 . S
O892 Co886 2.058 . S
O892 C918 1.269 . S
O893 Co885 2.074 . S
O893 C918 1.257 . S
H894 C919 0.930 . S
H895 C925 0.930 . S
O896 Co885 2.093 . S
O896 C888 1.224 . S
H897 C929 0.929 . S
H898 C931 0.930 . S
H899 C932 0.930 . S
H900 C930 0.929 . S
H901 C933 0.928 . S
O902 Co886 2.057 . S
O902 C890 1.232 . S
H903 C922 0.929 . S
H904 C923 0.929 . S
H905 C935 0.931 . S
H906 C927 0.929 . S
H907 C936 0.930 . S
H908 C928 0.931 . S
O909 Co885 2.097 . S
O909 C937 1.214 . S
H910 C938 0.929 . S
H911 C939 0.929 . S
H912 C940 0.930 . S
H913 C941 0.929 . S
H914 C943 0.930 . S
H915 C920 0.930 . S
H916 C924 0.930 . S
O917 Co886 2.037 . S
O917 C937 1.234 . S
C918 O892 1.269 . S
C918 O893 1.257 . S
C919 H894 0.930 . S
C919 C922 1.388 . S
C919 C924 1.418 . S
C920 H915 0.930 . S
C920 C923 1.404 . S
C920 C924 1.353 . S
N921 Co886 2.145 . S
N921 C922 1.397 . S
N921 C923 1.334 . S
C922 H903 0.929 . S
C922 C919 1.388 . S
C922 N921 1.397 . S
C923 H904 0.929 . S
C923 C920 1.404 . S
C923 N921 1.334 . S
C924 H916 0.930 . S
C924 C919 1.418 . S
C924 C920 1.353 . S
C925 H895 0.930 . S
C925 N926 1.330 . S
C925 C927 1.446 . S
N926 Co885 2.151 . S
N926 C925 1.330 . S
N926 C930 1.418 . S
C927 H906 0.929 . S
C927 C925 1.446 . S
C927 C928 1.332 . S
C928 H908 0.931 . S
C928 C927 1.332 . S
C928 C929 1.267 . S
C929 H897 0.929 . S
C929 C928 1.267 . S
C929 C930 1.251 . S
C930 H900 0.929 . S
C930 N926 1.418 . S
C930 C929 1.251 . S
C931 H898 0.930 . S
C931 C933 1.406 . S
C931 C936 1.261 . S
C932 H899 0.930 . S
C932 N934 1.325 . S
C932 C935 1.357 . S
C933 H901 0.928 . S
C933 C931 1.406 . S
C933 N934 1.261 . S
N934 Co885 2.214 . S
N934 C932 1.325 . S
N934 C933 1.261 . S
C935 H905 0.931 . S
C935 C932 1.357 . S
C935 C936 1.312 . S
C936 H907 0.930 . S
C936 C931 1.261 . S
C936 C935 1.312 . S
C937 O909 1.214 . S
C937 O917 1.234 . S
C938 H910 0.929 . S
C938 C941 1.391 . S
C938 C943 1.391 . S
C939 H911 0.929 . S
C939 C940 1.390 . S
C939 N942 1.391 . S
C940 H912 0.930 . S
C940 C939 1.390 . S
C940 C941 1.392 . S
C941 H913 0.929 . S
C941 C938 1.391 . S
C941 C940 1.392 . S
N942 Co886 2.257 . S
N942 C939 1.391 . S
N942 C943 1.388 . S
C943 H914 0.930 . S
C943 C938 1.391 . S
C943 N942 1.388 . S
C944 C945 1.387 . S
C944 H948 0.950 . S
C944 C953 1.390 . S
C945 C944 1.387 . S
C945 C947 1.387 . S
H946 C953 0.950 . S
C947 C945 1.387 . S
C947 C949 1.390 . S
C947 H951 0.950 . S
H948 C944 0.950 . S
C949 C947 1.390 . S
C949 C950 1.387 . S
C949 H952 0.950 . S
C950 C949 1.387 . S
C950 C953 1.387 . S
H951 C947 0.950 . S
H952 C949 0.950 . S
C953 C944 1.390 . S
C953 H946 0.950 . S
C953 C950 1.387 . S
C954 C955 1.387 . S
C954 H958 0.950 . S
C954 C963 1.390 . S
C955 C954 1.387 . S
C955 C957 1.387 . S
H956 C963 0.950 . S
C957 C955 1.387 . S
C957 C959 1.390 . S
C957 H961 0.950 . S
H958 C954 0.950 . S
C959 C957 1.390 . S
C959 C960 1.387 . S
C959 H962 0.950 . S
C960 C959 1.387 . S
C960 C963 1.387 . S
H961 C957 0.950 . S
H962 C959 0.950 . S
C963 C954 1.390 . S
C963 H956 0.950 . S
C963 C960 1.387 . S
C964 C965 1.387 . S
C964 H968 0.950 . S
C964 C973 1.390 . S
C965 C964 1.387 . S
C965 C967 1.387 . S
H966 C973 0.950 . S
C967 C965 1.387 . S
C967 C969 1.390 . S
C967 H971 0.950 . S
H968 C964 0.950 . S
C969 C967 1.390 . S
C969 C970 1.387 . S
C969 H972 0.950 . S
C970 C969 1.387 . S
C970 C973 1.387 . S
H971 C967 0.950 . S
H972 C969 0.950 . S
C973 C964 1.390 . S
C973 H966 0.950 . S
C973 C970 1.387 . S
C974 C975 1.387 . S
C974 H978 0.950 . S
C974 C983 1.390 . S
C975 C974 1.387 . S
C975 C977 1.387 . S
H976 C983 0.950 . S
C977 C975 1.387 . S
C977 C979 1.390 . S
C977 H981 0.950 . S
H978 C974 0.950 . S
C979 C977 1.390 . S
C979 C980 1.387 . S
C979 H982 0.950 . S
C980 C979 1.387 . S
C980 C983 1.387 . S
H981 C977 0.950 . S
H982 C979 0.950 . S
C983 C974 1.390 . S
C983 H976 0.950 . S
C983 C980 1.387 . S
C984 C985 1.387 . S
C984 H988 0.950 . S
C984 C993 1.390 . S
C985 C984 1.387 . S
C985 C987 1.387 . S
H986 C993 0.950 . S
C987 C985 1.387 . S
C987 C989 1.390 . S
C987 H991 0.950 . S
H988 C984 0.950 . S
C989 C987 1.390 . S
C989 C990 1.387 . S
C989 H992 0.950 . S
C990 C989 1.387 . S
C990 C993 1.387 . S
H991 C987 0.950 . S
H992 C989 0.950 . S
C993 C984 1.390 . S
C993 H986 0.950 . S
C993 C990 1.387 . S
C994 C995 1.387 . S
C994 H998 0.950 . S
C994 C1003 1.390 . S
C995 C994 1.387 . S
C995 C997 1.387 . S
H996 C1003 0.950 . S
C997 C995 1.387 . S
C997 C999 1.390 . S
C997 H1001 0.950 . S
H998 C994 0.950 . S
C999 C997 1.390 . S
C999 C1000 1.387 . S
C999 H1002 0.950 . S
C1000 C999 1.387 . S
C1000 C1003 1.387 . S
H1001 C997 0.950 . S
H1002 C999 0.950 . S
C1003 C994 1.390 . S
C1003 H996 0.950 . S
C1003 C1000 1.387 . S
C1004 C1005 1.387 . S
C1004 H1008 0.950 . S
C1004 C1013 1.390 . S
C1005 C1004 1.387 . S
C1005 C1007 1.387 . S
H1006 C1013 0.950 . S
C1007 C1005 1.387 . S
C1007 C1009 1.390 . S
C1007 H1011 0.950 . S
H1008 C1004 0.950 . S
C1009 C1007 1.390 . S
C1009 C1010 1.387 . S
C1009 H1012 0.950 . S
C1010 C1009 1.387 . S
C1010 C1013 1.387 . S
H1011 C1007 0.950 . S
H1012 C1009 0.950 . S
C1013 C1004 1.390 . S
C1013 H1006 0.950 . S
C1013 C1010 1.387 . S
C1014 C1015 1.387 . S
C1014 H1018 0.950 . S
C1014 C1023 1.390 . S
C1015 C1014 1.387 . S
C1015 C1017 1.387 . S
H1016 C1023 0.950 . S
C1017 C1015 1.387 . S
C1017 C1019 1.390 . S
C1017 H1021 0.950 . S
H1018 C1014 0.950 . S
C1019 C1017 1.390 . S
C1019 C1020 1.387 . S
C1019 H1022 0.950 . S
C1020 C1019 1.387 . S
C1020 C1023 1.387 . S
H1021 C1017 0.950 . S
H1022 C1019 0.950 . S
C1023 C1014 1.390 . S
C1023 H1016 0.950 . S
C1023 C1020 1.387 . S
C1024 C1025 1.387 . S
C1024 H1028 0.950 . S
C1024 C1033 1.395 . S
C1025 C1024 1.387 . S
C1025 C1027 1.387 . S
H1026 C1033 0.946 1_554 S
C1027 C1025 1.387 . S
C1027 C1029 1.390 . S
C1027 H1031 0.950 . S
H1028 C1024 0.950 . S
C1029 C1027 1.390 . S
C1029 C1030 1.387 1_556 S
C1029 H1032 0.950 1_556 S
C1030 C1029 1.387 1_554 S
C1030 C1033 1.386 1_554 S
H1031 C1027 0.950 . S
H1032 C1029 0.950 1_554 S
C1033 C1024 1.395 . S
C1033 H1026 0.946 1_556 S
C1033 C1030 1.386 1_556 S
C1034 C1035 1.387 1_554 S
C1034 H1038 0.950 1_554 S
C1034 C1043 1.390 . S
C1035 C1034 1.387 1_556 S
C1035 C1037 1.387 1_556 S
H1036 C1043 0.950 . S
C1037 C1035 1.387 1_554 S
C1037 C1039 1.390 . S
C1037 H1041 0.950 1_554 S
H1038 C1034 0.950 1_556 S
C1039 C1037 1.390 . S
C1039 C1040 1.387 . S
C1039 H1042 0.950 . S
C1040 C1039 1.387 . S
C1040 C1043 1.387 . S
H1041 C1037 0.950 1_556 S
H1042 C1039 0.950 . S
C1043 C1034 1.390 . S
C1043 H1036 0.950 . S
C1043 C1040 1.387 . S
C1044 C1045 1.387 1_554 S
C1044 H1048 0.949 . S
C1044 C1053 1.390 . S
C1045 C1044 1.387 1_556 S
C1045 C1047 1.387 . S
H1046 C1053 0.950 . S
C1047 C1045 1.387 . S
C1047 C1049 1.390 1_556 S
C1047 H1051 0.950 . S
H1048 C1044 0.949 . S
C1049 C1047 1.390 1_554 S
C1049 C1050 1.387 . S
C1049 H1052 0.950 . S
C1050 C1049 1.387 . S
C1050 C1053 1.387 . S
H1051 C1047 0.950 . S
H1052 C1049 0.950 . S
C1053 C1044 1.390 . S
C1053 H1046 0.950 . S
C1053 C1050 1.387 . S
C1054 C1055 1.387 . S
C1054 H1058 0.950 . S
C1054 C1063 1.390 1_554 S
C1055 C1054 1.387 . S
C1055 C1057 1.396 . S
H1056 C1063 0.950 . S
C1057 C1055 1.396 . S
C1057 C1059 1.371 1_554 S
C1057 H1061 0.960 . S
H1058 C1054 0.950 . S
C1059 C1057 1.371 1_556 S
C1059 C1060 1.387 . S
C1059 H1062 0.950 . S
C1060 C1059 1.387 . S
C1060 C1063 1.387 . S
H1061 C1057 0.960 . S
H1062 C1059 0.950 . S
C1063 C1054 1.390 1_556 S
C1063 H1056 0.950 . S
C1063 C1060 1.387 . S
C1064 C1065 1.387 . S
C1064 H1068 0.950 . S
C1064 C1073 1.390 1_455 S
C1065 C1064 1.387 . S
C1065 C1067 1.387 . S
H1066 C1073 0.950 . S
C1067 C1065 1.387 . S
C1067 C1069 1.390 1_455 S
C1067 H1071 0.950 . S
H1068 C1064 0.950 . S
C1069 C1067 1.390 1_655 S
C1069 C1070 1.387 . S
C1069 H1072 0.950 . S
C1070 C1069 1.387 . S
C1070 C1073 1.387 . S
H1071 C1067 0.950 . S
H1072 C1069 0.950 . S
C1073 C1064 1.390 1_655 S
C1073 H1066 0.950 . S
C1073 C1070 1.387 . S
C1074 C1075 1.387 1_545 S
C1074 H1078 0.950 . S
C1074 C1083 1.390 . S
C1075 C1074 1.387 1_565 S
C1075 C1077 1.387 1_565 S
H1076 C1083 0.950 . S
C1077 C1075 1.387 1_545 S
C1077 C1079 1.390 . S
C1077 H1081 0.950 1_545 S
H1078 C1074 0.950 . S
C1079 C1077 1.390 . S
C1079 C1080 1.387 . S
C1079 H1082 0.950 . S
C1080 C1079 1.387 . S
C1080 C1083 1.387 . S
H1081 C1077 0.950 1_565 S
H1082 C1079 0.950 . S
C1083 C1074 1.390 . S
C1083 H1076 0.950 . S
C1083 C1080 1.387 . S
C1084 C1085 1.387 . S
C1084 H1088 0.950 . S
C1084 C1093 1.390 1_655 S
C1085 C1084 1.387 . S
C1085 C1087 1.387 . S
H1086 C1093 0.950 . S
C1087 C1085 1.387 . S
C1087 C1089 1.390 1_655 S
C1087 H1091 0.950 . S
H1088 C1084 0.950 . S
C1089 C1087 1.390 1_455 S
C1089 C1090 1.387 . S
C1089 H1092 0.950 . S
C1090 C1089 1.387 . S
C1090 C1093 1.387 . S
H1091 C1087 0.950 . S
H1092 C1089 0.950 . S
C1093 C1084 1.390 1_455 S
C1093 H1086 0.950 . S
C1093 C1090 1.387 . S
C1094 C1095 1.387 1_565 S
C1094 H1098 0.950 . S
C1094 C1103 1.390 . S
C1095 C1094 1.387 1_545 S
C1095 C1097 1.387 . S
H1096 C1103 0.950 . S
C1097 C1095 1.387 . S
C1097 C1099 1.390 1_545 S
C1097 H1101 0.950 . S
H1098 C1094 0.950 . S
C1099 C1097 1.390 1_565 S
C1099 C1100 1.387 . S
C1099 H1102 0.950 . S
C1100 C1099 1.387 . S
C1100 C1103 1.387 . S
H1101 C1097 0.950 . S
H1102 C1099 0.950 . S
C1103 C1094 1.390 . S
C1103 H1096 0.950 . S
C1103 C1100 1.387 . S
C1104 C1105 1.387 . S
C1104 H1108 0.950 . S
C1104 C1113 1.390 1_655 S
C1105 C1104 1.387 . S
C1105 C1107 1.387 . S
H1106 C1113 0.950 . S
C1107 C1105 1.387 . S
C1107 C1109 1.390 . S
C1107 H1111 0.950 . S
H1108 C1104 0.950 . S
C1109 C1107 1.390 . S
C1109 C1110 1.387 1_655 S
C1109 H1112 0.950 1_655 S
C1110 C1109 1.387 1_455 S
C1110 C1113 1.387 . S
H1111 C1107 0.950 . S
H1112 C1109 0.950 1_455 S
C1113 C1104 1.390 1_455 S
C1113 H1106 0.950 . S
C1113 C1110 1.387 . S
C1114 C1115 1.387 . S
C1114 H1118 0.950 . S
C1114 C1123 1.390 . S
C1115 C1114 1.387 . S
C1115 C1117 1.387 . S
H1116 C1123 0.950 . S
C1117 C1115 1.387 . S
C1117 C1119 1.390 . S
C1117 H1121 0.950 . S
H1118 C1114 0.950 . S
C1119 C1117 1.390 . S
C1119 C1120 1.379 1_565 S
C1119 H1122 0.954 . S
C1120 C1119 1.379 1_545 S
C1120 C1123 1.379 1_545 S
H1121 C1117 0.950 . S
H1122 C1119 0.954 . S
C1123 C1114 1.390 . S
C1123 H1116 0.950 . S
C1123 C1120 1.379 1_565 S
C1124 C1125 1.387 . S
C1124 H1128 0.950 . S
C1124 C1133 1.390 1_455 S
C1125 C1124 1.387 . S
C1125 C1127 1.387 . S
H1126 C1133 0.950 . S
C1127 C1125 1.387 . S
C1127 C1129 1.390 1_455 S
C1127 H1131 0.950 . S
H1128 C1124 0.950 . S
C1129 C1127 1.390 1_655 S
C1129 C1130 1.387 . S
C1129 H1132 0.950 . S
C1130 C1129 1.387 . S
C1130 C1133 1.387 . S
H1131 C1127 0.950 . S
H1132 C1129 0.950 . S
C1133 C1124 1.390 1_655 S
C1133 H1126 0.950 . S
C1133 C1130 1.387 . S
C1134 C1135 1.387 1_545 S
C1134 H1138 0.950 . S
C1134 C1143 1.390 . S
C1135 C1134 1.387 1_565 S
C1135 C1137 1.387 1_565 S
H1136 C1143 0.950 . S
C1137 C1135 1.387 1_545 S
C1137 C1139 1.390 . S
C1137 H1141 0.950 1_545 S
H1138 C1134 0.950 . S
C1139 C1137 1.390 . S
C1139 C1140 1.387 . S
C1139 H1142 0.950 . S
C1140 C1139 1.387 . S
C1140 C1143 1.387 . S
H1141 C1137 0.950 1_565 S
H1142 C1139 0.950 . S
C1143 C1134 1.390 . S
C1143 H1136 0.950 . S
C1143 C1140 1.387 . S
C1144 C1145 1.387 . S
C1144 H1148 0.950 . S
C1144 C1153 1.390 . S
C1145 C1144 1.387 . S
C1145 C1147 1.387 . S
H1146 C1153 0.950 . S
C1147 C1145 1.387 . S
C1147 C1149 1.390 . S
C1147 H1151 0.950 . S
H1148 C1144 0.950 . S
C1149 C1147 1.390 . S
C1149 C1150 1.387 . S
C1149 H1152 0.950 . S
C1150 C1149 1.387 . S
C1150 C1153 1.387 . S
H1151 C1147 0.950 . S
H1152 C1149 0.950 . S
C1153 C1144 1.390 . S
C1153 H1146 0.950 . S
C1153 C1150 1.387 . S
C1154 C1155 1.387 . S
C1154 H1158 0.950 . S
C1154 C1163 1.390 . S
C1155 C1154 1.387 . S
C1155 C1157 1.387 . S
H1156 C1163 0.950 . S
C1157 C1155 1.387 . S
C1157 C1159 1.390 . S
C1157 H1161 0.950 . S
H1158 C1154 0.950 . S
C1159 C1157 1.390 . S
C1159 C1160 1.387 . S
C1159 H1162 0.950 . S
C1160 C1159 1.387 . S
C1160 C1163 1.387 . S
H1161 C1157 0.950 . S
H1162 C1159 0.950 . S
C1163 C1154 1.390 . S
C1163 H1156 0.950 . S
C1163 C1160 1.387 . S
C1164 C1165 1.387 . S
C1164 H1168 0.950 . S
C1164 C1173 1.390 . S
C1165 C1164 1.387 . S
C1165 C1167 1.387 . S
H1166 C1173 0.950 . S
C1167 C1165 1.387 . S
C1167 C1169 1.390 . S
C1167 H1171 0.950 . S
H1168 C1164 0.950 . S
C1169 C1167 1.390 . S
C1169 C1170 1.387 . S
C1169 H1172 0.950 . S
C1170 C1169 1.387 . S
C1170 C1173 1.387 . S
H1171 C1167 0.950 . S
H1172 C1169 0.950 . S
C1173 C1164 1.390 . S
C1173 H1166 0.950 . S
C1173 C1170 1.387 . S
C1174 C1175 1.387 . S
C1174 H1178 0.950 . S
C1174 C1183 1.390 . S
C1175 C1174 1.387 . S
C1175 C1177 1.387 . S
H1176 C1183 0.950 . S
C1177 C1175 1.387 . S
C1177 C1179 1.390 . S
C1177 H1181 0.950 . S
H1178 C1174 0.950 . S
C1179 C1177 1.390 . S
C1179 C1180 1.387 . S
C1179 H1182 0.950 . S
C1180 C1179 1.387 . S
C1180 C1183 1.387 . S
H1181 C1177 0.950 . S
H1182 C1179 0.950 . S
C1183 C1174 1.390 . S
C1183 H1176 0.950 . S
C1183 C1180 1.387 . S
C1184 C1185 1.387 . S
C1184 H1188 0.950 . S
C1184 C1193 1.390 . S
C1185 C1184 1.387 . S
C1185 C1187 1.387 . S
H1186 C1193 0.950 . S
C1187 C1185 1.387 . S
C1187 C1189 1.390 . S
C1187 H1191 0.950 . S
H1188 C1184 0.950 . S
C1189 C1187 1.390 . S
C1189 C1190 1.387 . S
C1189 H1192 0.950 . S
C1190 C1189 1.387 . S
C1190 C1193 1.387 . S
H1191 C1187 0.950 . S
H1192 C1189 0.950 . S
C1193 C1184 1.390 . S
C1193 H1186 0.950 . S
C1193 C1190 1.387 . S
C1194 C1195 1.387 . S
C1194 H1198 0.950 . S
C1194 C1203 1.390 . S
C1195 C1194 1.387 . S
C1195 C1197 1.387 . S
H1196 C1203 0.950 . S
C1197 C1195 1.387 . S
C1197 C1199 1.390 . S
C1197 H1201 0.950 . S
H1198 C1194 0.950 . S
C1199 C1197 1.390 . S
C1199 C1200 1.387 . S
C1199 H1202 0.950 . S
C1200 C1199 1.387 . S
C1200 C1203 1.387 . S
H1201 C1197 0.950 . S
H1202 C1199 0.950 . S
C1203 C1194 1.390 . S
C1203 H1196 0.950 . S
C1203 C1200 1.387 . S
C1204 C1205 1.387 . S
C1204 H1208 0.950 . S
C1204 C1213 1.390 . S
C1205 C1204 1.387 . S
C1205 C1207 1.387 . S
H1206 C1213 0.950 . S
C1207 C1205 1.387 . S
C1207 C1209 1.390 . S
C1207 H1211 0.950 . S
H1208 C1204 0.950 . S
C1209 C1207 1.390 . S
C1209 C1210 1.387 . S
C1209 H1212 0.950 . S
C1210 C1209 1.387 . S
C1210 C1213 1.387 . S
H1211 C1207 0.950 . S
H1212 C1209 0.950 . S
C1213 C1204 1.390 . S
C1213 H1206 0.950 . S
C1213 C1210 1.387 . S
C1214 C1215 1.387 . S
C1214 H1218 0.950 . S
C1214 C1223 1.390 . S
C1215 C1214 1.387 . S
C1215 C1217 1.387 . S
H1216 C1223 0.950 . S
C1217 C1215 1.387 . S
C1217 C1219 1.390 . S
C1217 H1221 0.950 . S
H1218 C1214 0.950 . S
C1219 C1217 1.390 . S
C1219 C1220 1.387 . S
C1219 H1222 0.950 . S
C1220 C1219 1.387 . S
C1220 C1223 1.387 . S
H1221 C1217 0.950 . S
H1222 C1219 0.950 . S
C1223 C1214 1.390 . S
C1223 H1216 0.950 . S
C1223 C1220 1.387 . S
C1224 C1225 1.387 . S
C1224 H1228 0.950 . S
C1224 C1233 1.390 . S
C1225 C1224 1.387 . S
C1225 C1227 1.387 . S
H1226 C1233 0.950 . S
C1227 C1225 1.387 . S
C1227 C1229 1.390 . S
C1227 H1231 0.950 . S
H1228 C1224 0.950 . S
C1229 C1227 1.390 . S
C1229 C1230 1.387 . S
C1229 H1232 0.950 . S
C1230 C1229 1.387 . S
C1230 C1233 1.387 . S
H1231 C1227 0.950 . S
H1232 C1229 0.950 . S
C1233 C1224 1.390 . S
C1233 H1226 0.950 . S
C1233 C1230 1.387 . S
C1234 C1235 1.387 . S
C1234 H1238 0.950 . S
C1234 C1243 1.390 . S
C1235 C1234 1.387 . S
C1235 C1237 1.387 . S
H1236 C1243 0.950 . S
C1237 C1235 1.387 . S
C1237 C1239 1.390 . S
C1237 H1241 0.950 . S
H1238 C1234 0.950 . S
C1239 C1237 1.390 . S
C1239 C1240 1.387 . S
C1239 H1242 0.950 . S
C1240 C1239 1.387 . S
C1240 C1243 1.387 . S
H1241 C1237 0.950 . S
H1242 C1239 0.950 . S
C1243 C1234 1.390 . S
C1243 H1236 0.950 . S
C1243 C1240 1.387 . S
C1244 C1245 1.387 . S
C1244 H1248 0.950 . S
C1244 C1253 1.390 . S
C1245 C1244 1.387 . S
C1245 C1247 1.387 . S
H1246 C1253 0.950 . S
C1247 C1245 1.387 . S
C1247 C1249 1.390 . S
C1247 H1251 0.950 . S
H1248 C1244 0.950 . S
C1249 C1247 1.390 . S
C1249 C1250 1.387 . S
C1249 H1252 0.950 . S
C1250 C1249 1.387 . S
C1250 C1253 1.387 . S
H1251 C1247 0.950 . S
H1252 C1249 0.950 . S
C1253 C1244 1.390 . S
C1253 H1246 0.950 . S
C1253 C1250 1.387 . S
C1254 C1255 1.387 . S
C1254 H1258 0.950 . S
C1254 C1263 1.390 . S
C1255 C1254 1.387 . S
C1255 C1257 1.387 . S
H1256 C1263 0.950 . S
C1257 C1255 1.387 . S
C1257 C1259 1.390 . S
C1257 H1261 0.950 . S
H1258 C1254 0.950 . S
C1259 C1257 1.390 . S
C1259 C1260 1.387 . S
C1259 H1262 0.950 . S
C1260 C1259 1.387 . S
C1260 C1263 1.387 . S
H1261 C1257 0.950 . S
H1262 C1259 0.950 . S
C1263 C1254 1.390 . S
C1263 H1256 0.950 . S
C1263 C1260 1.387 . S
C945 C890 1.346 . S
C950 C5 1.361 . S
C955 C713 1.350 . S
C960 C64 1.352 . S
C965 C123 1.671 . S
C970 C772 1.602 . S
C975 C831 1.537 . S
C980 C182 1.599 . S
C985 C536 1.353 . S
C990 C241 1.352 . S
C995 C300 1.602 . S
C1000 C595 1.671 . S
C1005 C359 1.538 . S
C1010 C654 1.599 . S
C1015 C418 1.346 . S
C1020 C477 1.361 . S
C1025 C347 2.191 . S
C1030 C33 2.136 . S
C1035 C357 1.292 . S
C1040 C62 1.307 . S
C1045 C465 1.751 . S
C1050 C151 1.701 . S
C1055 C180 1.646 . S
C1060 C269 1.701 . S
C1065 C52 1.570 . S
C1070 C111 1.529 . S
C1075 C121 1.427 . S
C1080 C92 1.489 . S
C1085 C170 1.407 . S
C1090 C229 1.402 . S
C1095 C3 1.439 . S
C1100 C210 1.409 . S
C1105 C446 1.331 . S
C1110 C288 1.303 . S
C1115 C239 1.749 . S
C1120 C298 1.767 . S
C1125 C328 1.482 . S
C1130 C387 1.443 . S
C1135 C416 1.932 . S
C1140 C406 1.963 . S
C1145 C819 2.192 . S
C1150 C505 2.136 . S
C1155 C534 1.307 . S
C1160 C829 1.292 . S
C1165 C937 1.752 . S
C1170 C623 1.702 . S
C1175 C741 1.700 . S
C1180 C652 1.647 . S
C1185 C524 1.567 . S
C1190 C583 1.525 . S
C1195 C564 1.489 . S
C1200 C593 1.428 . S
C1205 C701 1.402 . S
C1210 C642 1.407 . S
C1215 C475 1.439 . S
C1220 C682 1.410 . S
C1225 C918 1.331 . S
C1230 C760 1.302 . S
C1235 C711 1.750 . S
C1240 C770 1.749 . S
C1245 C800 1.481 . S
C1250 C859 1.443 . S
C1255 C888 1.930 . S
C1260 C878 1.961 . S
