# Generated by pormake.
# Topology unj, (4)-cn, num edge types: 1
# Building blocks:
#     Node 0, Type 0, BuildingBlock: AZAVOO_clean_sbu_0, # of connection points: 4
#     Node 1, Type 0, BuildingBlock: AZAVOO_clean_sbu_0, # of connection points: 4
#     Node 2, Type 0, BuildingBlock: AZAVOO_clean_sbu_0, # of connection points: 4
#     Node 3, Type 0, BuildingBlock: AZAVOO_clean_sbu_0, # of connection points: 4
#     Node 4, Type 0, BuildingBlock: AZAVOO_clean_sbu_0, # of connection points: 4
#     Node 5, Type 0, BuildingBlock: AZAVOO_clean_sbu_0, # of connection points: 4
#     Edge 6, Type (0, 0), BuildingBlock: TEMPAE_clean_linker_10, # of connection points: 2
#     Edge 7, Type (0, 0), BuildingBlock: TEMPAE_clean_linker_10, # of connection points: 2
#     Edge 8, Type (0, 0), BuildingBlock: TEMPAE_clean_linker_10, # of connection points: 2
#     Edge 9, Type (0, 0), BuildingBlock: TEMPAE_clean_linker_10, # of connection points: 2
#     Edge 10, Type (0, 0), BuildingBlock: TEMPAE_clean_linker_10, # of connection points: 2
#     Edge 11, Type (0, 0), BuildingBlock: TEMPAE_clean_linker_10, # of connection points: 2
#     Edge 12, Type (0, 0), BuildingBlock: TEMPAE_clean_linker_10, # of connection points: 2
#     Edge 13, Type (0, 0), BuildingBlock: TEMPAE_clean_linker_10, # of connection points: 2
#     Edge 14, Type (0, 0), BuildingBlock: TEMPAE_clean_linker_10, # of connection points: 2
#     Edge 15, Type (0, 0), BuildingBlock: TEMPAE_clean_linker_10, # of connection points: 2
#     Edge 16, Type (0, 0), BuildingBlock: TEMPAE_clean_linker_10, # of connection points: 2
#     Edge 17, Type (0, 0), BuildingBlock: TEMPAE_clean_linker_10, # of connection points: 2
# Relax obj value: 0.030
# Max RMSD: 0.066
# Mean RMSD: 0.065
data_MOF--net-unj--node1-AZAVOO_clean_sbu_0--edge1-TEMPAE_clean_linker_10
_symmetry_space_group_name_H-M    P1
_symmetry_Int_Tables_number       1
_symmetry_cell_setting            triclinic
loop_
_symmetry_equiv_pos_as_xyz
'x, y, z'
_cell_length_a     35.946622
_cell_length_b     36.4867
_cell_length_c     33.100573
_cell_angle_alpha  89.38819
_cell_angle_beta   90.008899
_cell_angle_gamma 119.87707
loop_
_atom_site_label
_atom_site_type_symbol
_atom_site_fract_x
_atom_site_fract_y
_atom_site_fract_z
_atom_type_partial_charge
Mg0 Mg 0.47168 0.22249 0.562 0.0
O1 O 0.512 0.21641 0.61321 0.0
O2 O 0.54839 0.1876 0.58649 0.0
Mg3 Mg 0.53203 0.17542 0.51929 0.0
C4 C 0.53833 0.20263 0.61654 0.0
C5 C 0.44029 0.25288 0.63662 0.0
O6 O 0.43983 0.21986 0.6534 0.0
O7 O 0.53123 0.27917 0.53424 0.0
O8 O 0.56303 0.24674 0.50524 0.0
O9 O 0.41753 0.15678 0.57348 0.0
O10 O 0.4705 0.17255 0.5307 0.0
C11 C 0.56087 0.28008 0.51209 0.0
C12 C 0.43551 0.14415 0.54748 0.0
O13 O 0.4544 0.26355 0.60065 0.0
Mg14 Mg 0.20485 0.395 0.73891 0.0
O15 O 0.24747 0.44122 0.78781 0.0
O16 O 0.31354 0.4779 0.76152 0.0
Mg17 Mg 0.31509 0.45173 0.6991 0.0
C18 C 0.2868 0.47013 0.79031 0.0
C19 C 0.10821 0.35946 0.75561 0.0
O20 O 0.10798 0.34395 0.71991 0.0
O21 O 0.20775 0.44986 0.70179 0.0
O22 O 0.27267 0.47657 0.67277 0.0
O23 O 0.21836 0.34398 0.76117 0.0
O24 O 0.25751 0.39299 0.71593 0.0
C25 C 0.23645 0.4748 0.67664 0.0
C26 C 0.25173 0.36132 0.73773 0.0
O27 O 0.1441 0.3833 0.77227 0.0
Mg28 Mg 0.74061 0.20083 0.94518 0.0
O29 O 0.69685 0.20052 0.89385 0.0
O30 O 0.63059 0.17219 0.91954 0.0
Mg31 Mg 0.63116 0.15389 0.98589 0.0
C32 C 0.65702 0.18869 0.89013 0.0
C33 C 0.83056 0.23404 0.91265 0.0
O34 O 0.82346 0.20275 0.93736 0.0
O35 O 0.73985 0.25673 0.97533 0.0
O36 O 0.67431 0.22318 1.00325 0.0
O37 O 0.72551 0.13458 0.93094 0.0
O38 O 0.68887 0.14993 0.97409 0.0
C39 C 0.71089 0.25637 0.99805 0.0
C40 C 0.69387 0.12159 0.95627 0.0
O41 O 0.80111 0.2434 0.90819 0.0
Mg42 Mg 0.49571 0.73923 0.06491 0.0
O43 O 0.4528 0.74342 0.11454 0.0
O44 O 0.41649 0.77151 0.08551 0.0
Mg45 Mg 0.43564 0.78536 0.01867 0.0
C46 C 0.42576 0.75644 0.11642 0.0
C47 C 0.52392 0.70646 0.1414 0.0
O48 O 0.52126 0.73716 0.15905 0.0
O49 O 0.43823 0.68253 0.03602 0.0
O50 O 0.40697 0.71463 1.00466 0.0
O51 O 0.54848 0.80499 0.07702 0.0
O52 O 0.49717 0.78931 0.03262 0.0
C53 C 0.40961 0.68157 0.01236 0.0
C54 C 0.53118 0.81772 0.05008 0.0
O55 O 0.51263 0.69811 0.10467 0.0
Mg56 Mg 0.7642 0.56821 0.23092 0.0
O57 O 0.72606 0.52078 0.28236 0.0
O58 O 0.65844 0.48425 0.26024 0.0
Mg59 Mg 0.65147 0.51036 0.19922 0.0
C60 C 0.68695 0.49158 0.28696 0.0
C61 C 0.83901 0.58091 0.29463 0.0
O62 O 0.83191 0.58267 0.25612 0.0
O63 O 0.75952 0.51438 0.19197 0.0
O64 O 0.6924 0.48639 0.16881 0.0
O65 O 0.75131 0.61814 0.25661 0.0
O66 O 0.7092 0.56909 0.21388 0.0
C67 C 0.72916 0.48894 0.16902 0.0
C68 C 0.71604 0.60032 0.23619 0.0
O69 O 0.83103 0.58234 0.25722 0.0
Mg70 Mg 0.22569 0.76245 0.44645 0.0
O71 O 0.26812 0.76255 0.3937 0.0
O72 O 0.33508 0.79121 0.41714 0.0
Mg73 Mg 0.33616 0.80883 0.48346 0.0
C74 C 0.3079 0.7746 0.38868 0.0
C75 C 0.13685 0.73239 0.41105 0.0
O76 O 0.14707 0.76842 0.42836 0.0
O77 O 0.22714 0.70654 0.47694 0.0
O78 O 0.29386 0.73901 0.50141 0.0
O79 O 0.24098 0.82905 0.43155 0.0
O80 O 0.27826 0.81304 0.4736 0.0
C81 C 0.25695 0.70607 0.49764 0.0
C82 C 0.27306 0.84166 0.456 0.0
O83 O 0.1638 0.71943 0.41207 0.0
C84 C 0.43304 0.08733 0.50395 0.0
C85 C 0.41529 0.09928 0.53543 0.0
C86 C 0.41208 0.04585 0.48939 0.0
C87 C 0.37238 0.01555 0.5067 0.0
C88 C 0.35473 0.02715 0.53906 0.0
C89 C 0.37639 0.06888 0.55303 0.0
C90 C 0.432 0.03464 0.45496 0.0
C91 C 0.31257 -0.00436 0.55849 0.0
C92 C 0.29486 0.91823 0.44763 0.0
C93 C 0.30134 0.8869 0.46559 0.0
C94 C 0.31851 0.96051 0.46003 0.0
C95 C 0.34927 0.97161 0.49113 0.0
C96 C 0.35686 0.94036 0.50844 0.0
C97 C 0.33282 0.89845 0.4955 0.0
C98 C 0.30968 -0.00694 0.4407 0.0
C99 C 0.3894 0.95089 0.54161 0.0
H100 H 0.46292 0.11065 0.48994 0.0
H101 H 0.36238 0.07787 0.57727 0.0
H102 H 0.43647 0.00769 0.46387 0.0
H103 H 0.41022 0.02448 0.42857 0.0
H104 H 0.46355 0.06159 0.44548 0.0
H105 H 0.30355 0.00949 0.58379 0.0
H106 H 0.28667 -0.0162 0.53564 0.0
H107 H 0.3144 0.96798 0.57018 0.0
H108 H 0.27054 0.90957 0.4246 0.0
H109 H 0.33789 0.8745 0.50986 0.0
H110 H 0.33994 0.02012 0.42897 0.0
H111 H 0.29659 0.0056 0.46367 0.0
H112 H 0.28644 -0.02017 0.41549 0.0
H113 H 0.4211 0.97732 0.5319 0.0
H114 H 0.39319 0.92344 0.55032 0.0
H115 H 0.37937 0.96147 0.56873 0.0
C116 C 0.40486 0.29697 0.63426 0.0
C117 C 0.41853 0.27319 0.65691 0.0
C118 C 0.37941 0.31187 0.65176 0.0
C119 C 0.3681 0.30362 0.6932 0.0
C120 C 0.38354 0.28143 0.71673 0.0
C121 C 0.40819 0.26606 0.6982 0.0
C122 C 0.36315 0.33491 0.62542 0.0
C123 C 0.37319 0.27308 0.76123 0.0
C124 C 0.32568 0.37208 0.73577 0.0
C125 C 0.28132 0.34465 0.734 0.0
C126 C 0.35451 0.35824 0.72533 0.0
C127 C 0.33841 0.31658 0.71109 0.0
C128 C 0.29348 0.2884 0.71056 0.0
C129 C 0.26545 0.30264 0.72274 0.0
C130 C 0.4021 0.38879 0.72778 0.0
C131 C 0.2749 0.24414 0.69451 0.0
H132 H 0.41251 0.30248 0.60231 0.0
H133 H 0.41885 0.24792 0.71596 0.0
H134 H 0.32755 0.317 0.62489 0.0
H135 H 0.37298 0.36647 0.63801 0.0
H136 H 0.37527 0.33919 0.59386 0.0
H137 H 0.39093 0.25896 0.77604 0.0
H138 H 0.38111 0.3029 0.77673 0.0
H139 H 0.33832 0.25113 0.76547 0.0
H140 H 0.3378 0.40462 0.74455 0.0
H141 H 0.23105 0.28174 0.7208 0.0
H142 H 0.41565 0.39862 0.69688 0.0
H143 H 0.41867 0.37339 0.74241 0.0
H144 H 0.4093 0.41756 0.74495 0.0
H145 H 0.28287 0.24568 0.66191 0.0
H146 H 0.23947 0.2255 0.69813 0.0
H147 H 0.2892 0.22714 0.71019 0.0
C148 C 0.90148 0.24254 0.89282 0.0
C149 C 0.87168 0.25664 0.88991 0.0
C150 C 0.94007 0.2623 0.87085 0.0
C151 C 0.94944 0.29733 0.84544 0.0
C152 C 0.91992 0.3123 0.84285 0.0
C153 C 0.88126 0.29166 0.86501 0.0
C154 C 0.97051 0.24514 0.87432 0.0
C155 C 0.92897 0.34978 0.81633 0.0
C156 C 0.06691 0.36358 0.81497 0.0
C157 C 0.06722 0.3467 0.77714 0.0
C158 C 0.02847 0.34921 0.83681 0.0
C159 C -0.01052 0.31697 0.82059 0.0
C160 C -0.01058 0.30088 0.78184 0.0
C161 C 0.02821 0.31604 0.76056 0.0
C162 C 0.02981 0.36744 0.87786 0.0
C163 C 0.94861 0.26633 0.76354 0.0
H164 H 0.89445 0.21553 0.91194 0.0
H165 H 0.8585 0.30287 0.8627 0.0
H166 H 0.97483 0.23444 0.84432 0.0
H167 H 0.0025 0.27037 0.88427 0.0
H168 H 0.95884 0.21815 0.89601 0.0
H169 H 0.90372 0.35872 0.81904 0.0
H170 H 0.96033 0.3774 0.82438 0.0
H171 H 0.9312 0.34244 0.78428 0.0
H172 H 0.09684 0.38749 0.82791 0.0
H173 H 0.02803 0.30288 0.73131 0.0
H174 H 0.02211 0.3429 0.90154 0.0
H175 H 0.00528 0.37735 0.87995 0.0
H176 H 0.06177 0.39505 0.88447 0.0
H177 H 0.93651 0.23697 0.78198 0.0
H178 H 0.95345 0.25933 0.73202 0.0
H179 H 0.92336 0.27535 0.76367 0.0
C180 C 0.53436 0.87493 1.00541 0.0
C181 C 0.55128 0.86275 0.03772 0.0
C182 C 0.55543 0.91666 0.99054 0.0
C183 C 0.59438 0.94693 0.00836 0.0
C184 C 0.61115 0.93508 0.04155 0.0
C185 C 0.58938 0.89312 0.05584 0.0
C186 C 0.53645 0.92817 0.95525 0.0
C187 C 0.65253 0.96655 0.06149 0.0
C188 C 0.67299 0.04536 0.94913 0.0
C189 C 0.6657 0.07621 0.96629 0.0
C190 C 0.64935 0.0029 0.96191 0.0
C191 C 0.61764 -0.00891 0.99245 0.0
C192 C 0.60921 0.02183 0.0089 0.0
C193 C 0.63342 0.06398 0.99574 0.0
C194 C 0.65919 0.97091 0.94364 0.0
C195 C 0.57554 0.01048 0.04135 0.0
H196 H 0.50511 0.85164 0.99101 0.0
H197 H 0.60274 0.88394 0.08071 0.0
H198 H 0.53144 0.95483 0.96336 0.0
H199 H 0.55908 0.93887 0.92926 0.0
H200 H 0.50531 0.90121 0.94551 0.0
H201 H 0.66091 0.95245 0.08737 0.0
H202 H 0.67918 0.97901 0.03914 0.0
H203 H 0.64998 -0.00616 0.0725 0.0
H204 H 0.69796 0.05455 0.92649 0.0
H205 H 0.62773 0.08753 0.00951 0.0
H206 H 0.62948 0.9439 0.93159 0.0
H207 H 0.67164 0.95814 0.96731 0.0
H208 H 0.6833 -0.01527 0.91885 0.0
H209 H 0.54429 -0.01599 0.03134 0.0
H210 H 0.57114 0.0376 0.04928 0.0
H211 H 0.58484 -0.00036 0.06902 0.0
C212 C 0.64131 0.58754 0.2357 0.0
C213 C 0.6855 0.61614 0.236 0.0
C214 C 0.61192 0.60118 0.22685 0.0
C215 C 0.62733 0.64421 0.21684 0.0
C216 C 0.67184 0.67362 0.21958 0.0
C217 C 0.70041 0.65924 0.22969 0.0
C218 C 0.56467 0.56903 0.22564 0.0
C219 C 0.68972 0.71963 0.20849 0.0
C220 C 0.56496 0.66794 0.13841 0.0
C221 C 0.54648 0.68672 0.16164 0.0
C222 C 0.59098 0.65372 0.15618 0.0
C223 C 0.5979 0.65737 0.19843 0.0
C224 C 0.57779 0.67454 0.22236 0.0
C225 C 0.55273 0.68954 0.2036 0.0
C226 C 0.61226 0.63612 0.12942 0.0
C227 C 0.58336 0.67775 0.26761 0.0
H228 H 0.62979 0.55425 0.24116 0.0
H229 H 0.73467 0.68124 0.22959 0.0
H230 H 0.54559 0.58145 0.24046 0.0
H231 H 0.55408 0.56237 0.19376 0.0
H232 H 0.55741 0.53879 0.24067 0.0
H233 H 0.72426 0.73907 0.2161 0.0
H234 H 0.68602 0.72262 0.17552 0.0
H235 H 0.67172 0.7327 0.22419 0.0
H236 H 0.56056 0.66589 0.10595 0.0
H237 H 0.53837 0.70385 0.22174 0.0
H238 H 0.60273 0.6034 0.13909 0.0
H239 H 0.64765 0.6554 0.13232 0.0
H240 H 0.60378 0.63571 0.09709 0.0
H241 H 0.57565 0.64664 0.2808 0.0
H242 H 0.56268 0.68847 0.28224 0.0
H243 H 0.61729 0.70039 0.27498 0.0
C244 C 0.0674 0.72492 0.38756 0.0
C245 C 0.09411 0.70731 0.39201 0.0
C246 C 0.02633 0.70174 0.37085 0.0
C247 C 0.01124 0.65967 0.35843 0.0
C248 C 0.03805 0.64166 0.36259 0.0
C249 C 0.07928 0.66577 0.3792 0.0
C250 C -0.00101 0.72234 0.36662 0.0
C251 C 0.02302 0.59685 0.34984 0.0
C252 C 0.88975 0.59381 0.35065 0.0
C253 C 0.88337 0.59727 0.30942 0.0
C254 C 0.93132 0.61221 0.3668 0.0
C255 C 0.96737 0.63496 0.34104 0.0
C256 C 0.96112 0.63724 0.29905 0.0
C257 C 0.91924 0.61831 0.2837 0.0
C258 C 0.9366 0.60875 0.41168 0.0
C259 C -0.00139 0.66135 0.27056 0.0
H260 H 0.07856 0.75703 0.39718 0.0
H261 H 0.09965 0.65187 0.38263 0.0
H262 H -0.01006 0.72214 0.33454 0.0
H263 H 0.96884 0.70415 0.38425 0.0
H264 H 0.01568 0.75552 0.37723 0.0
H265 H 0.0478 0.58758 0.35477 0.0
H266 H -0.0063 0.57471 0.36709 0.0
H267 H 0.01435 0.59312 0.31738 0.0
H268 H 0.86209 0.5775 0.3705 0.0
H269 H 0.91469 0.62117 0.2517 0.0
H270 H 0.94967 0.64035 0.4255 0.0
H271 H 0.95988 0.59776 0.41754 0.0
H272 H 0.90576 0.58667 0.42691 0.0
H273 H 0.01471 0.69555 0.27748 0.0
H274 H -0.01141 0.65712 0.23841 0.0
H275 H 0.02265 0.65103 0.27468 0.0
C276 C 0.58327 0.35395 0.48818 0.0
C277 C 0.58995 0.31917 0.48875 0.0
C278 C 0.60438 0.38698 0.45974 0.0
C279 C 0.63264 0.38506 0.4311 0.0
C280 C 0.64224 0.35192 0.43379 0.0
C281 C 0.62097 0.31955 0.46265 0.0
C282 C 0.59386 0.42218 0.4584 0.0
C283 C 0.67217 0.34859 0.40396 0.0
C284 C 0.63406 0.42724 0.32553 0.0
C285 C 0.67366 0.46497 0.32428 0.0
C286 C 0.62046 0.40135 0.36018 0.0
C287 C 0.64682 0.41354 0.39487 0.0
C288 C 0.68668 0.45176 0.39412 0.0
C289 C 0.6998 0.47692 0.3587 0.0
C290 C 0.57796 0.36057 0.35941 0.0
C291 C 0.71538 0.46603 0.43067 0.0
H292 H 0.55973 0.35431 0.50839 0.0
H293 H 0.62694 0.29321 0.46307 0.0
H294 H 0.62339 0.45324 0.45391 0.0
H295 H 0.57243 0.41743 0.43245 0.0
H296 H 0.57744 0.42318 0.48645 0.0
H297 H 0.68086 0.32453 0.41345 0.0
H298 H 0.6564 0.3396 0.37403 0.0
H299 H 0.70202 0.37946 0.40008 0.0
H300 H 0.61368 0.41753 0.29911 0.0
H301 H 0.73033 0.50612 0.35813 0.0
H302 H 0.55664 0.36043 0.38371 0.0
H303 H 0.58304 0.33337 0.3652 0.0
H304 H 0.56125 0.35571 0.33005 0.0
H305 H 0.69775 0.46869 0.45695 0.0
H306 H 0.74494 0.49699 0.42553 0.0
H307 H 0.72478 0.4422 0.43882 0.0
C308 C 0.28159 0.66691 0.54234 0.0
C309 C 0.24825 0.66745 0.52074 0.0
C310 C 0.27396 0.63263 0.5673 0.0
C311 C 0.23193 0.5976 0.57066 0.0
C312 C 0.19815 0.59735 0.5484 0.0
C313 C 0.20669 0.63236 0.5237 0.0
C314 C 0.31099 0.63414 0.59037 0.0
C315 C 0.15305 0.5603 0.55095 0.0
C316 C 0.23459 0.50075 0.60778 0.0
C317 C 0.22759 0.50152 0.64929 0.0
C318 C 0.23235 0.52972 0.58122 0.0
C319 C 0.22433 0.56109 0.59683 0.0
C320 C 0.21512 0.56066 0.63858 0.0
C321 C 0.21635 0.53038 0.66437 0.0
C322 C 0.24135 0.5284 0.53686 0.0
C323 C 0.20713 0.594 0.65646 0.0
H324 H 0.31387 0.69369 0.54026 0.0
H325 H 0.18067 0.6325 0.50729 0.0
H326 H 0.30375 0.63041 0.62323 0.0
H327 H 0.31575 0.6076 0.5812 0.0
H328 H 0.34152 0.66422 0.5852 0.0
H329 H 0.13062 0.56444 0.53087 0.0
H330 H 0.15281 0.53081 0.54261 0.0
H331 H 0.141 0.55609 0.58248 0.0
H332 H 0.24293 0.47805 0.59623 0.0
H333 H 0.21116 0.53095 0.69657 0.0
H334 H 0.27359 0.55522 0.52912 0.0
H335 H 0.21765 0.53178 0.51807 0.0
H336 H 0.24052 0.49853 0.52874 0.0
H337 H 0.23742 0.62487 0.6559 0.0
H338 H 0.19548 0.58639 0.6882 0.0
H339 H 0.18332 0.59778 0.63827 0.0
C340 C 0.59645 0.16948 0.84191 0.0
C341 C 0.64049 0.19324 0.8503 0.0
C342 C 0.58019 0.17231 0.80413 0.0
C343 C 0.60847 0.20014 0.77408 0.0
C344 C 0.65284 0.22488 0.78258 0.0
C345 C 0.66838 0.22085 0.82043 0.0
C346 C 0.53281 0.14479 0.79611 0.0
C347 C 0.68393 0.25544 0.75159 0.0
C348 C 0.57403 0.17626 0.66436 0.0
C349 C 0.55711 0.20298 0.65665 0.0
C350 C 0.5909 0.17516 0.70233 0.0
C351 C 0.59172 0.20203 0.73328 0.0
C352 C 0.57539 0.22964 0.72554 0.0
C353 C 0.55786 0.22947 0.68746 0.0
C354 C 0.60714 0.14462 0.70953 0.0
C355 C 0.57634 0.25929 0.75751 0.0
H356 H 0.57463 0.14787 0.86465 0.0
H357 H 0.70238 0.23955 0.8267 0.0
H358 H 0.51867 0.16467 0.78739 0.0
H359 H 0.52795 0.12357 0.77044 0.0
H360 H 0.51503 0.12511 0.8228 0.0
H361 H 0.71702 0.27397 0.76359 0.0
H362 H 0.68468 0.23794 0.7247 0.0
H363 H 0.67319 0.2777 0.74129 0.0
H364 H 0.5733 0.15543 0.64088 0.0
H365 H 0.54508 0.25037 0.68172 0.0
H366 H 0.58876 0.12249 0.73461 0.0
H367 H 0.64128 0.16204 0.71875 0.0
H368 H 0.6043 0.12587 0.6823 0.0
H369 H 0.55654 0.24087 0.78386 0.0
H370 H 0.56412 0.28007 0.74617 0.0
H371 H 0.60963 0.2794 0.76842 0.0
C372 C 0.27568 0.48534 0.86195 0.0
C373 C 0.30187 0.4962 0.82734 0.0
C374 C 0.28933 0.51071 0.89656 0.0
C375 C 0.32989 0.54809 0.89641 0.0
C376 C 0.35671 0.55882 0.86185 0.0
C377 C 0.3425 0.5327 0.82792 0.0
C378 C 0.26008 0.49794 0.93301 0.0
C379 C 0.40008 0.59859 0.86026 0.0
C380 C 0.35367 0.64301 0.95993 0.0
C381 C 0.38263 0.64296 0.98842 0.0
C382 C 0.33433 0.61095 0.93124 0.0
C383 C 0.3437 0.5776 0.93117 0.0
C384 C 0.37014 0.57547 0.96178 0.0
C385 C 0.38942 0.60825 0.98998 0.0
C386 C 0.30633 0.6145 0.89919 0.0
C387 C 0.38026 0.54 0.96321 0.0
H388 H 0.24436 0.45706 0.86199 0.0
H389 H 0.36304 0.54149 0.80143 0.0
H390 H 0.27748 0.49728 0.96046 0.0
H391 H 0.2498 0.52159 0.93808 0.0
H392 H 0.23102 0.46641 0.92949 0.0
H393 H 0.41754 0.60182 0.83156 0.0
H394 H 0.39607 0.62668 0.86343 0.0
H395 H 0.42016 0.59877 0.88579 0.0
H396 H 0.34773 0.66935 0.95857 0.0
H397 H 0.41145 0.60762 0.01196 0.0
H398 H 0.27585 0.58414 0.89629 0.0
H399 H 0.32305 0.62163 0.86953 0.0
H400 H 0.29867 0.63981 0.9058 0.0
H401 H 0.35067 0.50903 0.95931 0.0
H402 H 0.39571 0.53933 0.99207 0.0
H403 H 0.40237 0.54403 0.938 0.0
C404 C 0.75452 0.33446 0.01164 0.0
C405 C 0.72024 0.29427 0.0217 0.0
C406 C 0.76266 0.37007 0.03439 0.0
C407 C 0.73625 0.36511 0.06816 0.0
C408 C 0.70251 0.32442 0.07907 0.0
C409 C 0.69477 0.28969 0.05561 0.0
C410 C 0.79864 0.41308 0.02168 0.0
C411 C 0.67381 0.31758 0.1151 0.0
C412 C 0.7638 0.44617 0.15066 0.0
C413 C 0.73606 0.46155 0.14103 0.0
C414 C 0.76626 0.41633 0.12589 0.0
C415 C 0.74097 0.40233 0.09049 0.0
C416 C 0.71524 0.42006 0.07935 0.0
C417 C 0.7128 0.4491 0.10492 0.0
C418 C 0.79375 0.39784 0.13896 0.0
C419 C 0.68824 0.40653 0.0416 0.0
H420 H 0.77446 0.3382 0.98561 0.0
H421 H 0.66864 0.25871 0.06412 0.0
H422 H 0.78515 0.43311 0.0115 0.0
H423 H 0.81987 0.42911 0.04767 0.0
H424 H 0.81828 0.41123 0.99671 0.0
H425 H 0.65103 0.28356 0.1212 0.0
H426 H 0.69343 0.3315 0.1425 0.0
H427 H 0.65502 0.33377 0.10975 0.0
H428 H 0.78191 0.45585 0.1785 0.0
H429 H 0.69191 0.46154 0.09696 0.0
H430 H 0.81294 0.3969 0.11317 0.0
H431 H 0.77281 0.36479 0.14962 0.0
H432 H 0.81583 0.41603 0.16382 0.0
H433 H 0.70761 0.40699 0.0153 0.0
H434 H 0.67442 0.42713 0.03458 0.0
H435 H 0.66147 0.37361 0.04559 0.0
C436 C 0.29537 0.74044 0.32059 0.0
C437 C 0.32353 0.76974 0.3486 0.0
C438 C 0.3103 0.7355 0.28285 0.0
C439 C 0.35426 0.76107 0.27251 0.0
C440 C 0.38274 0.79084 0.30059 0.0
C441 C 0.36714 0.79451 0.33833 0.0
C442 C 0.27907 0.7029 0.25403 0.0
C443 C 0.42966 0.81934 0.29053 0.0
C444 C 0.40617 0.73096 0.1884 0.0
C445 C 0.40574 0.75583 0.15595 0.0
C446 C 0.38837 0.73134 0.22616 0.0
C447 C 0.37046 0.75784 0.2319 0.0
C448 C 0.36971 0.78278 0.19919 0.0
C449 C 0.38697 0.78119 0.16162 0.0
C450 C 0.38916 0.70374 0.26007 0.0
C451 C 0.35172 0.81209 0.20416 0.0
H452 H 0.26171 0.72095 0.32836 0.0
H453 H 0.38912 0.81744 0.35963 0.0
H454 H 0.27717 0.71861 0.22587 0.0
H455 H 0.29049 0.68083 0.24549 0.0
H456 H 0.24633 0.68431 0.26722 0.0
H457 H 0.44757 0.84088 0.31566 0.0
H458 H 0.44482 0.80009 0.28345 0.0
H459 H 0.43297 0.83872 0.26326 0.0
H460 H 0.42039 0.71111 0.18429 0.0
H461 H 0.3867 0.80076 0.13688 0.0
H462 H 0.35634 0.6836 0.27251 0.0
H463 H 0.40949 0.72377 0.28501 0.0
H464 H 0.40182 0.68305 0.25008 0.0
H465 H 0.31796 0.79407 0.21485 0.0
H466 H 0.3528 0.82884 0.17557 0.0
H467 H 0.37022 0.83599 0.22741 0.0
loop_
_geom_bond_atom_site_label_1
_geom_bond_atom_site_label_2
_geom_bond_distance
_geom_bond_site_symmetry_2
_ccdc_geom_bond_type
Mg0 O1 2.028 . S
Mg0 O7 1.986 . S
Mg0 O9 2.114 . S
Mg0 O10 2.251 . S
Mg0 O13 2.010 . S
O1 Mg0 2.028 . S
O1 C4 1.250 . S
O2 Mg3 2.028 . S
O2 C4 1.248 . S
Mg3 O2 2.028 . S
Mg3 O8 2.032 . S
Mg3 O10 2.079 . S
C4 O1 1.250 . S
C4 O2 1.248 . S
C5 O6 1.264 . S
C5 O13 1.249 . S
O6 C5 1.264 . S
O7 Mg0 1.986 . S
O7 C11 1.246 . S
O8 Mg3 2.032 . S
O8 C11 1.259 . S
O9 Mg0 2.114 . S
O9 C12 1.252 . S
O10 Mg0 2.251 . S
O10 Mg3 2.079 . S
O10 C12 1.273 . S
C11 O7 1.246 . S
C11 O8 1.259 . S
C12 O9 1.252 . S
C12 O10 1.273 . S
O13 Mg0 2.010 . S
O13 C5 1.249 . S
Mg14 O15 2.028 . S
Mg14 O21 1.986 . S
Mg14 O23 2.114 . S
Mg14 O24 2.251 . S
Mg14 O27 2.010 . S
O15 Mg14 2.028 . S
O15 C18 1.250 . S
O16 Mg17 2.028 . S
O16 C18 1.248 . S
Mg17 O16 2.028 . S
Mg17 O22 2.032 . S
Mg17 O24 2.079 . S
C18 O15 1.250 . S
C18 O16 1.248 . S
C19 O20 1.264 . S
C19 O27 1.249 . S
O20 C19 1.264 . S
O21 Mg14 1.986 . S
O21 C25 1.246 . S
O22 Mg17 2.032 . S
O22 C25 1.259 . S
O23 Mg14 2.114 . S
O23 C26 1.252 . S
O24 Mg14 2.251 . S
O24 Mg17 2.079 . S
O24 C26 1.273 . S
C25 O21 1.246 . S
C25 O22 1.259 . S
C26 O23 1.252 . S
C26 O24 1.273 . S
O27 Mg14 2.010 . S
O27 C19 1.249 . S
Mg28 O29 2.028 . S
Mg28 O35 1.986 . S
Mg28 O37 2.114 . S
Mg28 O38 2.251 . S
Mg28 O41 2.010 . S
O29 Mg28 2.028 . S
O29 C32 1.250 . S
O30 Mg31 2.028 . S
O30 C32 1.248 . S
Mg31 O30 2.028 . S
Mg31 O36 2.032 . S
Mg31 O38 2.079 . S
C32 O29 1.250 . S
C32 O30 1.248 . S
C33 O34 1.264 . S
C33 O41 1.249 . S
O34 C33 1.264 . S
O35 Mg28 1.986 . S
O35 C39 1.246 . S
O36 Mg31 2.032 . S
O36 C39 1.259 . S
O37 Mg28 2.114 . S
O37 C40 1.252 . S
O38 Mg28 2.251 . S
O38 Mg31 2.079 . S
O38 C40 1.273 . S
C39 O35 1.246 . S
C39 O36 1.259 . S
C40 O37 1.252 . S
C40 O38 1.273 . S
O41 Mg28 2.010 . S
O41 C33 1.249 . S
Mg42 O43 2.028 . S
Mg42 O49 1.986 . S
Mg42 O51 2.114 . S
Mg42 O52 2.251 . S
Mg42 O55 2.010 . S
O43 Mg42 2.028 . S
O43 C46 1.250 . S
O44 Mg45 2.028 . S
O44 C46 1.248 . S
Mg45 O44 2.028 . S
Mg45 O50 2.032 . S
Mg45 O52 2.079 . S
C46 O43 1.250 . S
C46 O44 1.248 . S
C47 O48 1.264 . S
C47 O55 1.249 . S
O48 C47 1.264 . S
O49 Mg42 1.986 . S
O49 C53 1.246 . S
O50 Mg45 2.032 . S
O50 C53 1.259 . S
O51 Mg42 2.114 . S
O51 C54 1.252 . S
O52 Mg42 2.251 . S
O52 Mg45 2.079 . S
O52 C54 1.273 . S
C53 O49 1.246 . S
C53 O50 1.259 . S
C54 O51 1.252 . S
C54 O52 1.273 . S
O55 Mg42 2.010 . S
O55 C47 1.249 . S
Mg56 O57 2.028 . S
Mg56 O63 1.986 . S
Mg56 O65 2.114 . S
Mg56 O66 2.251 . S
Mg56 O69 2.010 . S
O57 Mg56 2.028 . S
O57 C60 1.250 . S
O58 Mg59 2.028 . S
O58 C60 1.248 . S
Mg59 O58 2.028 . S
Mg59 O64 2.032 . S
Mg59 O66 2.079 . S
C60 O57 1.250 . S
C60 O58 1.248 . S
C61 O62 1.264 . S
C61 O69 1.249 . S
O62 C61 1.264 . S
O63 Mg56 1.986 . S
O63 C67 1.246 . S
O64 Mg59 2.032 . S
O64 C67 1.259 . S
O65 Mg56 2.114 . S
O65 C68 1.252 . S
O66 Mg56 2.251 . S
O66 Mg59 2.079 . S
O66 C68 1.273 . S
C67 O63 1.246 . S
C67 O64 1.259 . S
C68 O65 1.252 . S
C68 O66 1.273 . S
O69 Mg56 2.010 . S
O69 C61 1.249 . S
Mg70 O71 2.028 . S
Mg70 O77 1.986 . S
Mg70 O79 2.114 . S
Mg70 O80 2.251 . S
Mg70 O83 2.010 . S
O71 Mg70 2.028 . S
O71 C74 1.250 . S
O72 Mg73 2.028 . S
O72 C74 1.248 . S
Mg73 O72 2.028 . S
Mg73 O78 2.032 . S
Mg73 O80 2.079 . S
C74 O71 1.250 . S
C74 O72 1.248 . S
C75 O76 1.264 . S
C75 O83 1.249 . S
O76 C75 1.264 . S
O77 Mg70 1.986 . S
O77 C81 1.246 . S
O78 Mg73 2.032 . S
O78 C81 1.259 . S
O79 Mg70 2.114 . S
O79 C82 1.252 . S
O80 Mg70 2.251 . S
O80 Mg73 2.079 . S
O80 C82 1.273 . S
C81 O77 1.246 . S
C81 O78 1.259 . S
C82 O79 1.252 . S
C82 O80 1.273 . S
O83 Mg70 2.010 . S
O83 C75 1.249 . S
C84 C85 1.391 . S
C84 C86 1.394 . S
C84 H100 0.931 . S
C85 C84 1.391 . S
C85 C89 1.376 . S
C86 C84 1.394 . S
C86 C87 1.369 . S
C86 C90 1.531 . S
C87 C86 1.369 . S
C87 C88 1.410 . S
C87 C95 1.503 1_545 S
C88 C87 1.410 . S
C88 C89 1.392 . S
C88 C91 1.511 . S
C89 C85 1.376 . S
C89 C88 1.392 . S
C89 H101 0.929 . S
C90 C86 1.531 . S
C90 H102 0.960 1_545 S
C90 H103 0.962 . S
C90 H104 0.960 . S
C91 C88 1.511 . S
C91 H105 0.961 . S
C91 H106 0.961 . S
C91 H107 0.961 . S
C92 C93 1.370 . S
C92 C94 1.363 . S
C92 H108 0.931 . S
C93 C92 1.370 . S
C93 C97 1.408 . S
C94 C92 1.363 . S
C94 C95 1.370 . S
C94 C98 1.524 1_565 S
C95 C87 1.503 1_565 S
C95 C94 1.370 . S
C95 C96 1.403 . S
C96 C95 1.403 . S
C96 C97 1.404 . S
C96 C99 1.539 . S
C97 C93 1.408 . S
C97 C96 1.404 . S
C97 H109 0.930 . S
C98 C94 1.524 1_545 S
C98 H110 0.956 . S
C98 H111 0.961 . S
C98 H112 0.961 . S
C99 C96 1.539 . S
C99 H113 0.958 . S
C99 H114 0.961 . S
C99 H115 0.960 . S
H100 C84 0.931 . S
H101 C89 0.929 . S
H102 C90 0.960 1_565 S
H103 C90 0.962 . S
H104 C90 0.960 . S
H105 C91 0.961 . S
H106 C91 0.961 . S
H107 C91 0.961 . S
H108 C92 0.931 . S
H109 C97 0.930 . S
H110 C98 0.956 . S
H111 C98 0.961 . S
H112 C98 0.961 . S
H113 C99 0.958 . S
H114 C99 0.961 . S
H115 C99 0.960 . S
C116 C117 1.391 . S
C116 C118 1.394 . S
C116 H132 0.931 . S
C117 C116 1.391 . S
C117 C121 1.376 . S
C118 C116 1.394 . S
C118 C119 1.369 . S
C118 C122 1.531 . S
C119 C118 1.369 . S
C119 C120 1.410 . S
C119 C127 1.503 . S
C120 C119 1.410 . S
C120 C121 1.392 . S
C120 C123 1.511 . S
C121 C117 1.376 . S
C121 C120 1.392 . S
C121 H133 0.929 . S
C122 C118 1.531 . S
C122 H134 0.960 . S
C122 H135 0.962 . S
C122 H136 0.960 . S
C123 C120 1.511 . S
C123 H137 0.961 . S
C123 H138 0.961 . S
C123 H139 0.961 . S
C124 C125 1.370 . S
C124 C126 1.363 . S
C124 H140 0.931 . S
C125 C124 1.370 . S
C125 C129 1.408 . S
C126 C124 1.363 . S
C126 C127 1.370 . S
C126 C130 1.524 . S
C127 C119 1.503 . S
C127 C126 1.370 . S
C127 C128 1.403 . S
C128 C127 1.403 . S
C128 C129 1.404 . S
C128 C131 1.539 . S
C129 C125 1.408 . S
C129 C128 1.404 . S
C129 H141 0.930 . S
C130 C126 1.524 . S
C130 H142 0.956 . S
C130 H143 0.961 . S
C130 H144 0.961 . S
C131 C128 1.539 . S
C131 H145 0.958 . S
C131 H146 0.961 . S
C131 H147 0.960 . S
H132 C116 0.931 . S
H133 C121 0.929 . S
H134 C122 0.960 . S
H135 C122 0.962 . S
H136 C122 0.960 . S
H137 C123 0.961 . S
H138 C123 0.961 . S
H139 C123 0.961 . S
H140 C124 0.931 . S
H141 C129 0.930 . S
H142 C130 0.956 . S
H143 C130 0.961 . S
H144 C130 0.961 . S
H145 C131 0.958 . S
H146 C131 0.961 . S
H147 C131 0.960 . S
C148 C149 1.391 . S
C148 C150 1.394 . S
C148 H164 0.931 . S
C149 C148 1.391 . S
C149 C153 1.376 . S
C150 C148 1.394 . S
C150 C151 1.369 . S
C150 C154 1.531 . S
C151 C150 1.369 . S
C151 C152 1.410 . S
C151 C159 1.503 1_655 S
C152 C151 1.410 . S
C152 C153 1.392 . S
C152 C155 1.511 . S
C153 C149 1.376 . S
C153 C152 1.392 . S
C153 H165 0.929 . S
C154 C150 1.531 . S
C154 H166 0.960 . S
C154 H167 0.962 . S
C154 H168 0.960 . S
C155 C152 1.511 . S
C155 H169 0.961 . S
C155 H170 0.961 . S
C155 H171 0.961 . S
C156 C157 1.370 . S
C156 C158 1.363 . S
C156 H172 0.931 . S
C157 C156 1.370 . S
C157 C161 1.408 . S
C158 C156 1.363 . S
C158 C159 1.370 . S
C158 C162 1.524 . S
C159 C151 1.503 1_455 S
C159 C158 1.370 . S
C159 C160 1.403 . S
C160 C159 1.403 . S
C160 C161 1.404 . S
C160 C163 1.539 1_455 S
C161 C157 1.408 . S
C161 C160 1.404 . S
C161 H173 0.930 . S
C162 C158 1.524 . S
C162 H174 0.956 . S
C162 H175 0.961 . S
C162 H176 0.961 . S
C163 C160 1.539 1_655 S
C163 H177 0.958 . S
C163 H178 0.961 1_655 S
C163 H179 0.960 . S
H164 C148 0.931 . S
H165 C153 0.929 . S
H166 C154 0.960 . S
H167 C154 0.962 . S
H168 C154 0.960 . S
H169 C155 0.961 . S
H170 C155 0.961 . S
H171 C155 0.961 . S
H172 C156 0.931 . S
H173 C161 0.930 . S
H174 C162 0.956 . S
H175 C162 0.961 . S
H176 C162 0.961 . S
H177 C163 0.958 . S
H178 C163 0.961 1_455 S
H179 C163 0.960 . S
C180 C181 1.391 . S
C180 C182 1.394 1_554 S
C180 H196 0.931 1_554 S
C181 C180 1.391 . S
C181 C185 1.376 . S
C182 C180 1.394 1_556 S
C182 C183 1.369 1_556 S
C182 C186 1.531 . S
C183 C182 1.369 1_554 S
C183 C184 1.410 . S
C183 C191 1.503 1_564 S
C184 C183 1.410 . S
C184 C185 1.392 . S
C184 C187 1.511 . S
C185 C181 1.376 . S
C185 C184 1.392 . S
C185 H197 0.929 . S
C186 C182 1.531 . S
C186 H198 0.960 . S
C186 H199 0.962 . S
C186 H200 0.960 . S
C187 C184 1.511 . S
C187 H201 0.961 . S
C187 H202 0.961 1_565 S
C187 H203 0.961 . S
C188 C189 1.370 . S
C188 C190 1.363 . S
C188 H204 0.931 . S
C189 C188 1.370 . S
C189 C193 1.408 . S
C190 C188 1.363 . S
C190 C191 1.370 . S
C190 C194 1.524 1_556 S
C191 C183 1.503 1_546 S
C191 C190 1.370 . S
C191 C192 1.403 . S
C192 C191 1.403 . S
C192 C193 1.404 . S
C192 C195 1.539 1_545 S
C193 C189 1.408 . S
C193 C192 1.404 . S
C193 H205 0.930 . S
C194 C190 1.524 1_554 S
C194 H206 0.956 . S
C194 H207 0.961 . S
C194 H208 0.961 . S
C195 C192 1.539 1_565 S
C195 H209 0.958 . S
C195 H210 0.961 1_565 S
C195 H211 0.960 . S
H196 C180 0.931 1_556 S
H197 C185 0.929 . S
H198 C186 0.960 . S
H199 C186 0.962 . S
H200 C186 0.960 . S
H201 C187 0.961 . S
H202 C187 0.961 1_545 S
H203 C187 0.961 . S
H204 C188 0.931 . S
H205 C193 0.930 . S
H206 C194 0.956 . S
H207 C194 0.961 . S
H208 C194 0.961 . S
H209 C195 0.958 . S
H210 C195 0.961 1_545 S
H211 C195 0.960 . S
C212 C213 1.391 . S
C212 C214 1.394 . S
C212 H228 0.931 . S
C213 C212 1.391 . S
C213 C217 1.376 . S
C214 C212 1.394 . S
C214 C215 1.369 . S
C214 C218 1.531 . S
C215 C214 1.369 . S
C215 C216 1.410 . S
C215 C223 1.503 . S
C216 C215 1.410 . S
C216 C217 1.392 . S
C216 C219 1.511 . S
C217 C213 1.376 . S
C217 C216 1.392 . S
C217 H229 0.929 . S
C218 C214 1.531 . S
C218 H230 0.960 . S
C218 H231 0.962 . S
C218 H232 0.960 . S
C219 C216 1.511 . S
C219 H233 0.961 . S
C219 H234 0.961 . S
C219 H235 0.961 . S
C220 C221 1.370 . S
C220 C222 1.363 . S
C220 H236 0.931 . S
C221 C220 1.370 . S
C221 C225 1.408 . S
C222 C220 1.363 . S
C222 C223 1.370 . S
C222 C226 1.524 . S
C223 C215 1.503 . S
C223 C222 1.370 . S
C223 C224 1.403 . S
C224 C223 1.403 . S
C224 C225 1.404 . S
C224 C227 1.539 . S
C225 C221 1.408 . S
C225 C224 1.404 . S
C225 H237 0.930 . S
C226 C222 1.524 . S
C226 H238 0.956 . S
C226 H239 0.961 . S
C226 H240 0.961 . S
C227 C224 1.539 . S
C227 H241 0.958 . S
C227 H242 0.961 . S
C227 H243 0.960 . S
H228 C212 0.931 . S
H229 C217 0.929 . S
H230 C218 0.960 . S
H231 C218 0.962 . S
H232 C218 0.960 . S
H233 C219 0.961 . S
H234 C219 0.961 . S
H235 C219 0.961 . S
H236 C220 0.931 . S
H237 C225 0.930 . S
H238 C226 0.956 . S
H239 C226 0.961 . S
H240 C226 0.961 . S
H241 C227 0.958 . S
H242 C227 0.961 . S
H243 C227 0.960 . S
C244 C245 1.391 . S
C244 C246 1.394 . S
C244 H260 0.931 . S
C245 C244 1.391 . S
C245 C249 1.376 . S
C246 C244 1.394 . S
C246 C247 1.369 . S
C246 C250 1.531 . S
C247 C246 1.369 . S
C247 C248 1.410 . S
C247 C255 1.503 1_455 S
C248 C247 1.410 . S
C248 C249 1.392 . S
C248 C251 1.511 . S
C249 C245 1.376 . S
C249 C248 1.392 . S
C249 H261 0.929 . S
C250 C246 1.531 . S
C250 H262 0.960 . S
C250 H263 0.962 . S
C250 H264 0.960 . S
C251 C248 1.511 . S
C251 H265 0.961 . S
C251 H266 0.961 . S
C251 H267 0.961 . S
C252 C253 1.370 . S
C252 C254 1.363 . S
C252 H268 0.931 . S
C253 C252 1.370 . S
C253 C257 1.408 . S
C254 C252 1.363 . S
C254 C255 1.370 . S
C254 C258 1.524 . S
C255 C247 1.503 1_655 S
C255 C254 1.370 . S
C255 C256 1.403 . S
C256 C255 1.403 . S
C256 C257 1.404 . S
C256 C259 1.539 1_655 S
C257 C253 1.408 . S
C257 C256 1.404 . S
C257 H269 0.930 . S
C258 C254 1.524 . S
C258 H270 0.956 . S
C258 H271 0.961 . S
C258 H272 0.961 . S
C259 C256 1.539 1_455 S
C259 H273 0.958 . S
C259 H274 0.961 1_455 S
C259 H275 0.960 . S
H260 C244 0.931 . S
H261 C249 0.929 . S
H262 C250 0.960 . S
H263 C250 0.962 . S
H264 C250 0.960 . S
H265 C251 0.961 . S
H266 C251 0.961 . S
H267 C251 0.961 . S
H268 C252 0.931 . S
H269 C257 0.930 . S
H270 C258 0.956 . S
H271 C258 0.961 . S
H272 C258 0.961 . S
H273 C259 0.958 . S
H274 C259 0.961 1_655 S
H275 C259 0.960 . S
C276 C277 1.391 . S
C276 C278 1.394 . S
C276 H292 0.931 . S
C277 C276 1.391 . S
C277 C281 1.376 . S
C278 C276 1.394 . S
C278 C279 1.369 . S
C278 C282 1.531 . S
C279 C278 1.369 . S
C279 C280 1.410 . S
C279 C287 1.503 . S
C280 C279 1.410 . S
C280 C281 1.392 . S
C280 C283 1.511 . S
C281 C277 1.376 . S
C281 C280 1.392 . S
C281 H293 0.929 . S
C282 C278 1.531 . S
C282 H294 0.960 . S
C282 H295 0.962 . S
C282 H296 0.960 . S
C283 C280 1.511 . S
C283 H297 0.961 . S
C283 H298 0.961 . S
C283 H299 0.961 . S
C284 C285 1.370 . S
C284 C286 1.363 . S
C284 H300 0.931 . S
C285 C284 1.370 . S
C285 C289 1.408 . S
C286 C284 1.363 . S
C286 C287 1.370 . S
C286 C290 1.524 . S
C287 C279 1.503 . S
C287 C286 1.370 . S
C287 C288 1.403 . S
C288 C287 1.403 . S
C288 C289 1.404 . S
C288 C291 1.539 . S
C289 C285 1.408 . S
C289 C288 1.404 . S
C289 H301 0.930 . S
C290 C286 1.524 . S
C290 H302 0.956 . S
C290 H303 0.961 . S
C290 H304 0.961 . S
C291 C288 1.539 . S
C291 H305 0.958 . S
C291 H306 0.961 . S
C291 H307 0.960 . S
H292 C276 0.931 . S
H293 C281 0.929 . S
H294 C282 0.960 . S
H295 C282 0.962 . S
H296 C282 0.960 . S
H297 C283 0.961 . S
H298 C283 0.961 . S
H299 C283 0.961 . S
H300 C284 0.931 . S
H301 C289 0.930 . S
H302 C290 0.956 . S
H303 C290 0.961 . S
H304 C290 0.961 . S
H305 C291 0.958 . S
H306 C291 0.961 . S
H307 C291 0.960 . S
C308 C309 1.391 . S
C308 C310 1.394 . S
C308 H324 0.931 . S
C309 C308 1.391 . S
C309 C313 1.376 . S
C310 C308 1.394 . S
C310 C311 1.369 . S
C310 C314 1.531 . S
C311 C310 1.369 . S
C311 C312 1.410 . S
C311 C319 1.503 . S
C312 C311 1.410 . S
C312 C313 1.392 . S
C312 C315 1.511 . S
C313 C309 1.376 . S
C313 C312 1.392 . S
C313 H325 0.929 . S
C314 C310 1.531 . S
C314 H326 0.960 . S
C314 H327 0.962 . S
C314 H328 0.960 . S
C315 C312 1.511 . S
C315 H329 0.961 . S
C315 H330 0.961 . S
C315 H331 0.961 . S
C316 C317 1.370 . S
C316 C318 1.363 . S
C316 H332 0.931 . S
C317 C316 1.370 . S
C317 C321 1.408 . S
C318 C316 1.363 . S
C318 C319 1.370 . S
C318 C322 1.524 . S
C319 C311 1.503 . S
C319 C318 1.370 . S
C319 C320 1.403 . S
C320 C319 1.403 . S
C320 C321 1.404 . S
C320 C323 1.539 . S
C321 C317 1.408 . S
C321 C320 1.404 . S
C321 H333 0.930 . S
C322 C318 1.524 . S
C322 H334 0.956 . S
C322 H335 0.961 . S
C322 H336 0.961 . S
C323 C320 1.539 . S
C323 H337 0.958 . S
C323 H338 0.961 . S
C323 H339 0.960 . S
H324 C308 0.931 . S
H325 C313 0.929 . S
H326 C314 0.960 . S
H327 C314 0.962 . S
H328 C314 0.960 . S
H329 C315 0.961 . S
H330 C315 0.961 . S
H331 C315 0.961 . S
H332 C316 0.931 . S
H333 C321 0.930 . S
H334 C322 0.956 . S
H335 C322 0.961 . S
H336 C322 0.961 . S
H337 C323 0.958 . S
H338 C323 0.961 . S
H339 C323 0.960 . S
C340 C341 1.391 . S
C340 C342 1.394 . S
C340 H356 0.931 . S
C341 C340 1.391 . S
C341 C345 1.376 . S
C342 C340 1.394 . S
C342 C343 1.369 . S
C342 C346 1.531 . S
C343 C342 1.369 . S
C343 C344 1.410 . S
C343 C351 1.503 . S
C344 C343 1.410 . S
C344 C345 1.392 . S
C344 C347 1.511 . S
C345 C341 1.376 . S
C345 C344 1.392 . S
C345 H357 0.929 . S
C346 C342 1.531 . S
C346 H358 0.960 . S
C346 H359 0.962 . S
C346 H360 0.960 . S
C347 C344 1.511 . S
C347 H361 0.961 . S
C347 H362 0.961 . S
C347 H363 0.961 . S
C348 C349 1.370 . S
C348 C350 1.363 . S
C348 H364 0.931 . S
C349 C348 1.370 . S
C349 C353 1.408 . S
C350 C348 1.363 . S
C350 C351 1.370 . S
C350 C354 1.524 . S
C351 C343 1.503 . S
C351 C350 1.370 . S
C351 C352 1.403 . S
C352 C351 1.403 . S
C352 C353 1.404 . S
C352 C355 1.539 . S
C353 C349 1.408 . S
C353 C352 1.404 . S
C353 H365 0.930 . S
C354 C350 1.524 . S
C354 H366 0.956 . S
C354 H367 0.961 . S
C354 H368 0.961 . S
C355 C352 1.539 . S
C355 H369 0.958 . S
C355 H370 0.961 . S
C355 H371 0.960 . S
H356 C340 0.931 . S
H357 C345 0.929 . S
H358 C346 0.960 . S
H359 C346 0.962 . S
H360 C346 0.960 . S
H361 C347 0.961 . S
H362 C347 0.961 . S
H363 C347 0.961 . S
H364 C348 0.931 . S
H365 C353 0.930 . S
H366 C354 0.956 . S
H367 C354 0.961 . S
H368 C354 0.961 . S
H369 C355 0.958 . S
H370 C355 0.961 . S
H371 C355 0.960 . S
C372 C373 1.391 . S
C372 C374 1.394 . S
C372 H388 0.931 . S
C373 C372 1.391 . S
C373 C377 1.376 . S
C374 C372 1.394 . S
C374 C375 1.369 . S
C374 C378 1.531 . S
C375 C374 1.369 . S
C375 C376 1.410 . S
C375 C383 1.503 . S
C376 C375 1.410 . S
C376 C377 1.392 . S
C376 C379 1.511 . S
C377 C373 1.376 . S
C377 C376 1.392 . S
C377 H389 0.929 . S
C378 C374 1.531 . S
C378 H390 0.960 . S
C378 H391 0.962 . S
C378 H392 0.960 . S
C379 C376 1.511 . S
C379 H393 0.961 . S
C379 H394 0.961 . S
C379 H395 0.961 . S
C380 C381 1.370 . S
C380 C382 1.363 . S
C380 H396 0.931 . S
C381 C380 1.370 . S
C381 C385 1.405 1_556 S
C382 C380 1.363 . S
C382 C383 1.370 . S
C382 C386 1.524 . S
C383 C375 1.503 . S
C383 C382 1.370 . S
C383 C384 1.403 . S
C384 C383 1.403 . S
C384 C385 1.395 1_556 S
C384 C387 1.539 . S
C385 C381 1.405 1_554 S
C385 C384 1.395 1_554 S
C385 H397 0.942 . S
C386 C382 1.524 . S
C386 H398 0.956 . S
C386 H399 0.961 . S
C386 H400 0.961 . S
C387 C384 1.539 . S
C387 H401 0.958 . S
C387 H402 0.961 1_556 S
C387 H403 0.960 . S
H388 C372 0.931 . S
H389 C377 0.929 . S
H390 C378 0.960 . S
H391 C378 0.962 . S
H392 C378 0.960 . S
H393 C379 0.961 . S
H394 C379 0.961 . S
H395 C379 0.961 . S
H396 C380 0.931 . S
H397 C385 0.942 . S
H398 C386 0.956 . S
H399 C386 0.961 . S
H400 C386 0.961 . S
H401 C387 0.958 . S
H402 C387 0.961 1_554 S
H403 C387 0.960 . S
C404 C405 1.391 . S
C404 C406 1.394 . S
C404 H420 0.931 1_554 S
C405 C404 1.391 . S
C405 C409 1.376 . S
C406 C404 1.394 . S
C406 C407 1.369 . S
C406 C410 1.531 . S
C407 C406 1.369 . S
C407 C408 1.410 . S
C407 C415 1.503 . S
C408 C407 1.410 . S
C408 C409 1.392 . S
C408 C411 1.511 . S
C409 C405 1.376 . S
C409 C408 1.392 . S
C409 H421 0.929 . S
C410 C406 1.531 . S
C410 H422 0.960 . S
C410 H423 0.962 . S
C410 H424 0.960 . S
C411 C408 1.511 . S
C411 H425 0.961 . S
C411 H426 0.961 . S
C411 H427 0.961 . S
C412 C413 1.370 . S
C412 C414 1.363 . S
C412 H428 0.931 . S
C413 C412 1.370 . S
C413 C417 1.408 . S
C414 C412 1.363 . S
C414 C415 1.370 . S
C414 C418 1.524 . S
C415 C407 1.503 . S
C415 C414 1.370 . S
C415 C416 1.403 . S
C416 C415 1.403 . S
C416 C417 1.404 . S
C416 C419 1.539 . S
C417 C413 1.408 . S
C417 C416 1.404 . S
C417 H429 0.930 . S
C418 C414 1.524 . S
C418 H430 0.956 . S
C418 H431 0.961 . S
C418 H432 0.961 . S
C419 C416 1.539 . S
C419 H433 0.958 . S
C419 H434 0.961 . S
C419 H435 0.960 . S
H420 C404 0.931 1_556 S
H421 C409 0.929 . S
H422 C410 0.960 . S
H423 C410 0.962 . S
H424 C410 0.960 . S
H425 C411 0.961 . S
H426 C411 0.961 . S
H427 C411 0.961 . S
H428 C412 0.931 . S
H429 C417 0.930 . S
H430 C418 0.956 . S
H431 C418 0.961 . S
H432 C418 0.961 . S
H433 C419 0.958 . S
H434 C419 0.961 . S
H435 C419 0.960 . S
C436 C437 1.391 . S
C436 C438 1.394 . S
C436 H452 0.931 . S
C437 C436 1.391 . S
C437 C441 1.376 . S
C438 C436 1.394 . S
C438 C439 1.369 . S
C438 C442 1.531 . S
C439 C438 1.369 . S
C439 C440 1.410 . S
C439 C447 1.503 . S
C440 C439 1.410 . S
C440 C441 1.392 . S
C440 C443 1.511 . S
C441 C437 1.376 . S
C441 C440 1.392 . S
C441 H453 0.929 . S
C442 C438 1.531 . S
C442 H454 0.960 . S
C442 H455 0.962 . S
C442 H456 0.960 . S
C443 C440 1.511 . S
C443 H457 0.961 . S
C443 H458 0.961 . S
C443 H459 0.961 . S
C444 C445 1.370 . S
C444 C446 1.363 . S
C444 H460 0.931 . S
C445 C444 1.370 . S
C445 C449 1.408 . S
C446 C444 1.363 . S
C446 C447 1.370 . S
C446 C450 1.524 . S
C447 C439 1.503 . S
C447 C446 1.370 . S
C447 C448 1.403 . S
C448 C447 1.403 . S
C448 C449 1.404 . S
C448 C451 1.539 . S
C449 C445 1.408 . S
C449 C448 1.404 . S
C449 H461 0.930 . S
C450 C446 1.524 . S
C450 H462 0.956 . S
C450 H463 0.961 . S
C450 H464 0.961 . S
C451 C448 1.539 . S
C451 H465 0.958 . S
C451 H466 0.961 . S
C451 H467 0.960 . S
H452 C436 0.931 . S
H453 C441 0.929 . S
H454 C442 0.960 . S
H455 C442 0.962 . S
H456 C442 0.960 . S
H457 C443 0.961 . S
H458 C443 0.961 . S
H459 C443 0.961 . S
H460 C444 0.931 . S
H461 C449 0.930 . S
H462 C450 0.956 . S
H463 C450 0.961 . S
H464 C450 0.961 . S
H465 C451 0.958 . S
H466 C451 0.961 . S
H467 C451 0.960 . S
C85 C12 1.448 . S
C93 C82 1.443 . S
C117 C5 1.108 . S
C125 C26 1.404 . S
C149 C33 1.192 . S
C157 C19 1.119 . S
C181 C54 1.438 . S
C189 C40 1.446 . S
C213 C68 1.405 . S
C221 C47 1.188 . S
C245 C75 1.189 . S
C253 C61 1.119 . S
C277 C11 1.551 . S
C285 C60 1.536 . S
C309 C81 1.387 . S
C317 C25 1.388 . S
C341 C32 1.668 . S
C349 C4 1.667 . S
C373 C18 1.540 . S
C381 C53 1.558 1_556 S
C405 C39 1.387 1_554 S
C413 C67 1.383 . S
C437 C74 1.679 . S
C445 C46 1.654 . S
