# Generated by pormake.
# Topology wio, (6)-cn, num edge types: 1
# Building blocks:
#     Node 0, Type 0, BuildingBlock: BETFEN_clean_sbu_0, # of connection points: 6
#     Node 1, Type 0, BuildingBlock: BETFEN_clean_sbu_0, # of connection points: 6
#     Node 2, Type 0, BuildingBlock: BETFEN_clean_sbu_0, # of connection points: 6
#     Node 3, Type 0, BuildingBlock: BETFEN_clean_sbu_0, # of connection points: 6
#     Node 4, Type 0, BuildingBlock: BETFEN_clean_sbu_0, # of connection points: 6
#     Node 5, Type 0, BuildingBlock: BETFEN_clean_sbu_0, # of connection points: 6
#     Node 6, Type 0, BuildingBlock: BETFEN_clean_sbu_0, # of connection points: 6
#     Node 7, Type 0, BuildingBlock: BETFEN_clean_sbu_0, # of connection points: 6
#     Node 8, Type 0, BuildingBlock: BETFEN_clean_sbu_0, # of connection points: 6
#     Node 9, Type 0, BuildingBlock: BETFEN_clean_sbu_0, # of connection points: 6
#     Node 10, Type 0, BuildingBlock: BETFEN_clean_sbu_0, # of connection points: 6
#     Node 11, Type 0, BuildingBlock: BETFEN_clean_sbu_0, # of connection points: 6
#     Node 12, Type 0, BuildingBlock: BETFEN_clean_sbu_0, # of connection points: 6
#     Node 13, Type 0, BuildingBlock: BETFEN_clean_sbu_0, # of connection points: 6
#     Node 14, Type 0, BuildingBlock: BETFEN_clean_sbu_0, # of connection points: 6
#     Node 15, Type 0, BuildingBlock: BETFEN_clean_sbu_0, # of connection points: 6
#     Node 16, Type 0, BuildingBlock: BETFEN_clean_sbu_0, # of connection points: 6
#     Node 17, Type 0, BuildingBlock: BETFEN_clean_sbu_0, # of connection points: 6
#     Node 18, Type 0, BuildingBlock: BETFEN_clean_sbu_0, # of connection points: 6
#     Node 19, Type 0, BuildingBlock: BETFEN_clean_sbu_0, # of connection points: 6
#     Node 20, Type 0, BuildingBlock: BETFEN_clean_sbu_0, # of connection points: 6
#     Node 21, Type 0, BuildingBlock: BETFEN_clean_sbu_0, # of connection points: 6
#     Node 22, Type 0, BuildingBlock: BETFEN_clean_sbu_0, # of connection points: 6
#     Node 23, Type 0, BuildingBlock: BETFEN_clean_sbu_0, # of connection points: 6
#     Node 24, Type 0, BuildingBlock: BETFEN_clean_sbu_0, # of connection points: 6
#     Node 25, Type 0, BuildingBlock: BETFEN_clean_sbu_0, # of connection points: 6
#     Node 26, Type 0, BuildingBlock: BETFEN_clean_sbu_0, # of connection points: 6
#     Node 27, Type 0, BuildingBlock: BETFEN_clean_sbu_0, # of connection points: 6
#     Node 28, Type 0, BuildingBlock: BETFEN_clean_sbu_0, # of connection points: 6
#     Node 29, Type 0, BuildingBlock: BETFEN_clean_sbu_0, # of connection points: 6
#     Node 30, Type 0, BuildingBlock: BETFEN_clean_sbu_0, # of connection points: 6
#     Node 31, Type 0, BuildingBlock: BETFEN_clean_sbu_0, # of connection points: 6
#     Edge 32, Type (0, 0), BuildingBlock: KIFKEQ_clean_linker_1, # of connection points: 2
#     Edge 33, Type (0, 0), BuildingBlock: KIFKEQ_clean_linker_1, # of connection points: 2
#     Edge 34, Type (0, 0), BuildingBlock: KIFKEQ_clean_linker_1, # of connection points: 2
#     Edge 35, Type (0, 0), BuildingBlock: KIFKEQ_clean_linker_1, # of connection points: 2
#     Edge 36, Type (0, 0), BuildingBlock: KIFKEQ_clean_linker_1, # of connection points: 2
#     Edge 37, Type (0, 0), BuildingBlock: KIFKEQ_clean_linker_1, # of connection points: 2
#     Edge 38, Type (0, 0), BuildingBlock: KIFKEQ_clean_linker_1, # of connection points: 2
#     Edge 39, Type (0, 0), BuildingBlock: KIFKEQ_clean_linker_1, # of connection points: 2
#     Edge 40, Type (0, 0), BuildingBlock: KIFKEQ_clean_linker_1, # of connection points: 2
#     Edge 41, Type (0, 0), BuildingBlock: KIFKEQ_clean_linker_1, # of connection points: 2
#     Edge 42, Type (0, 0), BuildingBlock: KIFKEQ_clean_linker_1, # of connection points: 2
#     Edge 43, Type (0, 0), BuildingBlock: KIFKEQ_clean_linker_1, # of connection points: 2
#     Edge 44, Type (0, 0), BuildingBlock: KIFKEQ_clean_linker_1, # of connection points: 2
#     Edge 45, Type (0, 0), BuildingBlock: KIFKEQ_clean_linker_1, # of connection points: 2
#     Edge 46, Type (0, 0), BuildingBlock: KIFKEQ_clean_linker_1, # of connection points: 2
#     Edge 47, Type (0, 0), BuildingBlock: KIFKEQ_clean_linker_1, # of connection points: 2
#     Edge 48, Type (0, 0), BuildingBlock: KIFKEQ_clean_linker_1, # of connection points: 2
#     Edge 49, Type (0, 0), BuildingBlock: KIFKEQ_clean_linker_1, # of connection points: 2
#     Edge 50, Type (0, 0), BuildingBlock: KIFKEQ_clean_linker_1, # of connection points: 2
#     Edge 51, Type (0, 0), BuildingBlock: KIFKEQ_clean_linker_1, # of connection points: 2
#     Edge 52, Type (0, 0), BuildingBlock: KIFKEQ_clean_linker_1, # of connection points: 2
#     Edge 53, Type (0, 0), BuildingBlock: KIFKEQ_clean_linker_1, # of connection points: 2
#     Edge 54, Type (0, 0), BuildingBlock: KIFKEQ_clean_linker_1, # of connection points: 2
#     Edge 55, Type (0, 0), BuildingBlock: KIFKEQ_clean_linker_1, # of connection points: 2
#     Edge 56, Type (0, 0), BuildingBlock: KIFKEQ_clean_linker_1, # of connection points: 2
#     Edge 57, Type (0, 0), BuildingBlock: KIFKEQ_clean_linker_1, # of connection points: 2
#     Edge 58, Type (0, 0), BuildingBlock: KIFKEQ_clean_linker_1, # of connection points: 2
#     Edge 59, Type (0, 0), BuildingBlock: KIFKEQ_clean_linker_1, # of connection points: 2
#     Edge 60, Type (0, 0), BuildingBlock: KIFKEQ_clean_linker_1, # of connection points: 2
#     Edge 61, Type (0, 0), BuildingBlock: KIFKEQ_clean_linker_1, # of connection points: 2
#     Edge 62, Type (0, 0), BuildingBlock: KIFKEQ_clean_linker_1, # of connection points: 2
#     Edge 63, Type (0, 0), BuildingBlock: KIFKEQ_clean_linker_1, # of connection points: 2
#     Edge 64, Type (0, 0), BuildingBlock: KIFKEQ_clean_linker_1, # of connection points: 2
#     Edge 65, Type (0, 0), BuildingBlock: KIFKEQ_clean_linker_1, # of connection points: 2
#     Edge 66, Type (0, 0), BuildingBlock: KIFKEQ_clean_linker_1, # of connection points: 2
#     Edge 67, Type (0, 0), BuildingBlock: KIFKEQ_clean_linker_1, # of connection points: 2
#     Edge 68, Type (0, 0), BuildingBlock: KIFKEQ_clean_linker_1, # of connection points: 2
#     Edge 69, Type (0, 0), BuildingBlock: KIFKEQ_clean_linker_1, # of connection points: 2
#     Edge 70, Type (0, 0), BuildingBlock: KIFKEQ_clean_linker_1, # of connection points: 2
#     Edge 71, Type (0, 0), BuildingBlock: KIFKEQ_clean_linker_1, # of connection points: 2
#     Edge 72, Type (0, 0), BuildingBlock: KIFKEQ_clean_linker_1, # of connection points: 2
#     Edge 73, Type (0, 0), BuildingBlock: KIFKEQ_clean_linker_1, # of connection points: 2
#     Edge 74, Type (0, 0), BuildingBlock: KIFKEQ_clean_linker_1, # of connection points: 2
#     Edge 75, Type (0, 0), BuildingBlock: KIFKEQ_clean_linker_1, # of connection points: 2
#     Edge 76, Type (0, 0), BuildingBlock: KIFKEQ_clean_linker_1, # of connection points: 2
#     Edge 77, Type (0, 0), BuildingBlock: KIFKEQ_clean_linker_1, # of connection points: 2
#     Edge 78, Type (0, 0), BuildingBlock: KIFKEQ_clean_linker_1, # of connection points: 2
#     Edge 79, Type (0, 0), BuildingBlock: KIFKEQ_clean_linker_1, # of connection points: 2
#     Edge 80, Type (0, 0), BuildingBlock: KIFKEQ_clean_linker_1, # of connection points: 2
#     Edge 81, Type (0, 0), BuildingBlock: KIFKEQ_clean_linker_1, # of connection points: 2
#     Edge 82, Type (0, 0), BuildingBlock: KIFKEQ_clean_linker_1, # of connection points: 2
#     Edge 83, Type (0, 0), BuildingBlock: KIFKEQ_clean_linker_1, # of connection points: 2
#     Edge 84, Type (0, 0), BuildingBlock: KIFKEQ_clean_linker_1, # of connection points: 2
#     Edge 85, Type (0, 0), BuildingBlock: KIFKEQ_clean_linker_1, # of connection points: 2
#     Edge 86, Type (0, 0), BuildingBlock: KIFKEQ_clean_linker_1, # of connection points: 2
#     Edge 87, Type (0, 0), BuildingBlock: KIFKEQ_clean_linker_1, # of connection points: 2
#     Edge 88, Type (0, 0), BuildingBlock: KIFKEQ_clean_linker_1, # of connection points: 2
#     Edge 89, Type (0, 0), BuildingBlock: KIFKEQ_clean_linker_1, # of connection points: 2
#     Edge 90, Type (0, 0), BuildingBlock: KIFKEQ_clean_linker_1, # of connection points: 2
#     Edge 91, Type (0, 0), BuildingBlock: KIFKEQ_clean_linker_1, # of connection points: 2
#     Edge 92, Type (0, 0), BuildingBlock: KIFKEQ_clean_linker_1, # of connection points: 2
#     Edge 93, Type (0, 0), BuildingBlock: KIFKEQ_clean_linker_1, # of connection points: 2
#     Edge 94, Type (0, 0), BuildingBlock: KIFKEQ_clean_linker_1, # of connection points: 2
#     Edge 95, Type (0, 0), BuildingBlock: KIFKEQ_clean_linker_1, # of connection points: 2
#     Edge 96, Type (0, 0), BuildingBlock: KIFKEQ_clean_linker_1, # of connection points: 2
#     Edge 97, Type (0, 0), BuildingBlock: KIFKEQ_clean_linker_1, # of connection points: 2
#     Edge 98, Type (0, 0), BuildingBlock: KIFKEQ_clean_linker_1, # of connection points: 2
#     Edge 99, Type (0, 0), BuildingBlock: KIFKEQ_clean_linker_1, # of connection points: 2
#     Edge 100, Type (0, 0), BuildingBlock: KIFKEQ_clean_linker_1, # of connection points: 2
#     Edge 101, Type (0, 0), BuildingBlock: KIFKEQ_clean_linker_1, # of connection points: 2
#     Edge 102, Type (0, 0), BuildingBlock: KIFKEQ_clean_linker_1, # of connection points: 2
#     Edge 103, Type (0, 0), BuildingBlock: KIFKEQ_clean_linker_1, # of connection points: 2
#     Edge 104, Type (0, 0), BuildingBlock: KIFKEQ_clean_linker_1, # of connection points: 2
#     Edge 105, Type (0, 0), BuildingBlock: KIFKEQ_clean_linker_1, # of connection points: 2
#     Edge 106, Type (0, 0), BuildingBlock: KIFKEQ_clean_linker_1, # of connection points: 2
#     Edge 107, Type (0, 0), BuildingBlock: KIFKEQ_clean_linker_1, # of connection points: 2
#     Edge 108, Type (0, 0), BuildingBlock: KIFKEQ_clean_linker_1, # of connection points: 2
#     Edge 109, Type (0, 0), BuildingBlock: KIFKEQ_clean_linker_1, # of connection points: 2
#     Edge 110, Type (0, 0), BuildingBlock: KIFKEQ_clean_linker_1, # of connection points: 2
#     Edge 111, Type (0, 0), BuildingBlock: KIFKEQ_clean_linker_1, # of connection points: 2
#     Edge 112, Type (0, 0), BuildingBlock: KIFKEQ_clean_linker_1, # of connection points: 2
#     Edge 113, Type (0, 0), BuildingBlock: KIFKEQ_clean_linker_1, # of connection points: 2
#     Edge 114, Type (0, 0), BuildingBlock: KIFKEQ_clean_linker_1, # of connection points: 2
#     Edge 115, Type (0, 0), BuildingBlock: KIFKEQ_clean_linker_1, # of connection points: 2
#     Edge 116, Type (0, 0), BuildingBlock: KIFKEQ_clean_linker_1, # of connection points: 2
#     Edge 117, Type (0, 0), BuildingBlock: KIFKEQ_clean_linker_1, # of connection points: 2
#     Edge 118, Type (0, 0), BuildingBlock: KIFKEQ_clean_linker_1, # of connection points: 2
#     Edge 119, Type (0, 0), BuildingBlock: KIFKEQ_clean_linker_1, # of connection points: 2
#     Edge 120, Type (0, 0), BuildingBlock: KIFKEQ_clean_linker_1, # of connection points: 2
#     Edge 121, Type (0, 0), BuildingBlock: KIFKEQ_clean_linker_1, # of connection points: 2
#     Edge 122, Type (0, 0), BuildingBlock: KIFKEQ_clean_linker_1, # of connection points: 2
#     Edge 123, Type (0, 0), BuildingBlock: KIFKEQ_clean_linker_1, # of connection points: 2
#     Edge 124, Type (0, 0), BuildingBlock: KIFKEQ_clean_linker_1, # of connection points: 2
#     Edge 125, Type (0, 0), BuildingBlock: KIFKEQ_clean_linker_1, # of connection points: 2
#     Edge 126, Type (0, 0), BuildingBlock: KIFKEQ_clean_linker_1, # of connection points: 2
#     Edge 127, Type (0, 0), BuildingBlock: KIFKEQ_clean_linker_1, # of connection points: 2
# Relax obj value: 0.201
# Max RMSD: 0.235
# Mean RMSD: 0.235
data_MOF--net-wio--node1-BETFEN_clean_sbu_0--edge1-KIFKEQ_clean_linker_1
_symmetry_space_group_name_H-M    P1
_symmetry_Int_Tables_number       1
_symmetry_cell_setting            triclinic
loop_
_symmetry_equiv_pos_as_xyz
'x, y, z'
_cell_length_a     63.339657
_cell_length_b     63.297596
_cell_length_c     55.970593
_cell_angle_alpha  89.91686
_cell_angle_beta   90.054736
_cell_angle_gamma 89.981099
loop_
_atom_site_label
_atom_site_type_symbol
_atom_site_fract_x
_atom_site_fract_y
_atom_site_fract_z
_atom_type_partial_charge
Pr0 Pr 0.1515 0.11802 0.28322 0.0
Pr1 Pr 0.10472 0.12448 0.29276 0.0
C2 C 0.19038 0.1075 0.26731 0.0
C3 C 0.20622 0.11101 0.24823 0.0
C4 C 0.21633 0.13062 0.24517 0.0
C5 C 0.23262 0.13293 0.22843 0.0
C6 C 0.23922 0.11568 0.21445 0.0
C7 C 0.22871 0.09624 0.2172 0.0
C8 C 0.21248 0.09393 0.23392 0.0
C9 C 0.14291 0.15479 0.30873 0.0
C10 C 0.12077 0.13478 0.23786 0.0
C11 C 0.06683 0.13669 0.31064 0.0
C12 C 0.05327 0.13626 0.33214 0.0
C13 C 0.05784 0.12322 0.35178 0.0
C14 C 0.0441 0.12248 0.37147 0.0
C15 C 0.02549 0.13477 0.3719 0.0
C16 C 0.0213 0.14808 0.35227 0.0
C17 C 0.03503 0.1488 0.33268 0.0
C18 C 0.11443 0.0845 0.27409 0.0
C19 C 0.13437 0.10043 0.33467 0.0
O20 O 0.17335 0.09681 0.26186 0.0
O21 O 0.18689 0.12275 0.28255 0.0
O22 O 0.13205 0.14855 0.29094 0.0
O23 O 0.15902 0.1426 0.31256 0.0
O24 O 0.10467 0.13648 0.2528 0.0
O25 O 0.1394 0.12798 0.2451 0.0
O26 O 0.08372 0.14853 0.3113 0.0
O27 O 0.06985 0.11886 0.29942 0.0
O28 O 0.12476 0.09437 0.28969 0.0
O29 O 0.098 0.09539 0.26746 0.0
O30 O 0.14901 0.09809 0.3181 0.0
O31 O 0.11708 0.11162 0.33031 0.0
H32 H 0.21197 0.14409 0.25602 0.0
H33 H 0.24045 0.14808 0.22695 0.0
H34 H 0.23307 0.08271 0.20646 0.0
H35 H 0.20505 0.07862 0.23596 0.0
H36 H 0.07189 0.11346 0.35177 0.0
H37 H 0.04806 0.11224 0.38632 0.0
H38 H 0.00705 0.15751 0.35165 0.0
H39 H 0.03118 0.15894 0.31768 0.0
Pr40 Pr 0.14358 0.90572 0.53541 0.0
Pr41 Pr 0.13616 0.85866 0.54258 0.0
C42 C 0.15352 0.94568 0.52246 0.0
C43 C 0.15064 0.96183 0.50379 0.0
C44 C 0.15834 0.98225 0.50786 0.0
C45 C 0.15584 0.99804 0.49062 0.0
C46 C 0.14558 0.99373 0.46884 0.0
C47 C 0.13769 0.9732 0.46491 0.0
C48 C 0.14021 0.95737 0.48226 0.0
C49 C 0.10664 0.89616 0.56022 0.0
C50 C 0.12725 0.87685 0.4884 0.0
C51 C 0.12304 0.82095 0.56014 0.0
C52 C 0.12499 0.80585 0.5805 0.0
C53 C 0.1367 0.78717 0.57772 0.0
C54 C 0.137 0.77176 0.59571 0.0
C55 C 0.12545 0.77448 0.61699 0.0
C56 C 0.11412 0.79343 0.62004 0.0
C57 C 0.11382 0.80888 0.602 0.0
C58 C 0.17645 0.86819 0.52473 0.0
C59 C 0.16113 0.88646 0.58582 0.0
O60 O 0.16526 0.92931 0.51729 0.0
O61 O 0.13698 0.94088 0.53529 0.0
O62 O 0.11279 0.88642 0.54165 0.0
O63 O 0.1192 0.91161 0.56554 0.0
O64 O 0.12311 0.86089 0.503 0.0
O65 O 0.13594 0.89441 0.49646 0.0
O66 O 0.11298 0.83873 0.56366 0.0
O67 O 0.13902 0.82294 0.54552 0.0
O68 O 0.16667 0.87823 0.54064 0.0
O69 O 0.16541 0.85205 0.51755 0.0
O70 O 0.16328 0.90194 0.57019 0.0
O71 O 0.15011 0.86926 0.58044 0.0
H72 H 0.16629 0.98602 0.52447 0.0
H73 H 0.16179 0.0137 0.49447 0.0
H74 H 0.1299 0.96926 0.44828 0.0
H75 H 0.13409 0.94168 0.47887 0.0
H76 H 0.14534 0.78422 0.56137 0.0
H77 H 0.14624 0.7576 0.59283 0.0
H78 H 0.10492 0.79605 0.63606 0.0
H79 H 0.10443 0.82298 0.6047 0.0
Pr80 Pr 0.35737 0.89178 0.78493 0.0
Pr81 Pr 0.40434 0.88453 0.79186 0.0
C82 C 0.31727 0.90146 0.7723 0.0
C83 C 0.30092 0.89869 0.75386 0.0
C84 C 0.28035 0.90558 0.75868 0.0
C85 C 0.26438 0.90323 0.74166 0.0
C86 C 0.26864 0.89396 0.71933 0.0
C87 C 0.28932 0.88683 0.71465 0.0
C88 C 0.30533 0.88917 0.7318 0.0
C89 C 0.36682 0.85497 0.81023 0.0
C90 C 0.38598 0.8755 0.73775 0.0
C91 C 0.44222 0.87212 0.80964 0.0
C92 C 0.45689 0.87508 0.83025 0.0
C93 C 0.47527 0.8873 0.82756 0.0
C94 C 0.48993 0.88909 0.84623 0.0
C95 C 0.48673 0.87857 0.86813 0.0
C96 C 0.46828 0.86639 0.87085 0.0
C97 C 0.45357 0.86465 0.85218 0.0
C98 C 0.39483 0.9246 0.77332 0.0
C99 C 0.37676 0.9098 0.83495 0.0
O100 O 0.33349 0.91337 0.76706 0.0
O101 O 0.3223 0.88483 0.78492 0.0
O102 O 0.37667 0.86086 0.79157 0.0
O103 O 0.35157 0.86779 0.81543 0.0
O104 O 0.40209 0.87151 0.75222 0.0
O105 O 0.36841 0.88401 0.74597 0.0
O106 O 0.42461 0.86182 0.81329 0.0
O107 O 0.44002 0.88772 0.7945 0.0
O108 O 0.3847 0.91505 0.78939 0.0
O109 O 0.41117 0.91358 0.76672 0.0
O110 O 0.36115 0.91176 0.81947 0.0
O111 O 0.39397 0.89885 0.82952 0.0
H112 H 0.27662 0.91281 0.7757 0.0
H113 H 0.24862 0.90856 0.7461 0.0
H114 H 0.29324 0.87979 0.6976 0.0
H115 H 0.32112 0.88364 0.72784 0.0
H116 H 0.47851 0.89526 0.81081 0.0
H117 H 0.50406 0.89834 0.84326 0.0
H118 H 0.46513 0.85824 0.88749 0.0
H119 H 0.4397 0.85494 0.85489 0.0
Pr120 Pr 0.36578 0.1075 0.03241 0.0
Pr121 Pr 0.37339 0.1542 0.04249 0.0
C122 C 0.35404 0.06929 1.01559 0.0
C123 C 0.3584 0.05309 0.99723 0.0
C124 C 0.37899 0.04594 0.99243 0.0
C125 C 0.38237 0.02945 0.97616 0.0
C126 C 0.36524 0.01977 0.96442 0.0
C127 C 0.34474 0.0274 0.9689 0.0
C128 C 0.34139 0.04381 0.98514 0.0
C129 C 0.40366 0.11514 0.05619 0.0
C130 C 0.38366 0.13827 0.98761 0.0
C131 C 0.38643 0.19104 0.06229 0.0
C132 C 0.38399 0.20491 0.0836 0.0
C133 C 0.36533 0.21638 0.08774 0.0
C134 C 0.36393 0.23053 0.10695 0.0
C135 C 0.38113 0.23363 0.12257 0.0
C136 C 0.39969 0.22192 0.11854 0.0
C137 C 0.4011 0.2078 0.0993 0.0
C138 C 0.33282 0.14555 0.02474 0.0
C139 C 0.3491 0.1245 0.08432 0.0
O140 O 0.34524 0.08696 1.00859 0.0
O141 O 0.36795 0.07187 0.03263 0.0
O142 O 0.39677 0.12643 0.03906 0.0
O143 O 0.39162 0.09893 0.06007 0.0
O144 O 0.38599 0.15412 1.0028 0.0
O145 O 0.37596 0.11987 0.9945 0.0
O146 O 0.39635 0.17309 0.06519 0.0
O147 O 0.37077 0.18973 0.0471 0.0
O148 O 0.34288 0.13474 0.03979 0.0
O149 O 0.34371 0.16209 1.01847 0.0
O150 O 0.34646 0.10991 0.06774 0.0
O151 O 0.36032 0.14174 0.07985 0.0
H152 H 0.39242 0.05284 1.00151 0.0
H153 H 0.39834 0.02393 0.97325 0.0
H154 H 0.33121 0.02067 0.95984 0.0
H155 H 0.32539 0.04909 0.98852 0.0
H156 H 0.35189 0.21474 0.07592 0.0
H157 H 0.34948 0.23945 0.10915 0.0
H158 H 0.41319 0.22362 0.13026 0.0
H159 H 0.41574 0.19931 0.09651 0.0
Pr160 Pr 0.15375 0.89253 0.2596 0.0
Pr161 Pr 0.10705 0.88437 0.25242 0.0
C162 C 0.19297 0.90327 0.27431 0.0
C163 C 0.20855 0.89968 0.29367 0.0
C164 C 0.21692 0.87951 0.29848 0.0
C165 C 0.23258 0.87684 0.31595 0.0
C166 C 0.24016 0.89423 0.32903 0.0
C167 C 0.23158 0.91432 0.3243 0.0
C168 C 0.21602 0.917 0.30681 0.0
C169 C 0.14538 0.85476 0.23591 0.0
C170 C 0.12508 0.8761 0.30676 0.0
C171 C 0.06938 0.8706 0.23534 0.0
C172 C 0.05498 0.87234 0.2146 0.0
C173 C 0.0362 0.86063 0.21443 0.0
C174 C 0.02219 0.86199 0.19509 0.0
C175 C 0.02665 0.87511 0.17538 0.0
C176 C 0.04568 0.88671 0.17558 0.0
C177 C 0.0597 0.88533 0.19499 0.0
C178 C 0.1159 0.92508 0.26956 0.0
C179 C 0.13459 0.90916 0.20884 0.0
O180 O 0.17615 0.91437 0.27945 0.0
O181 O 0.18913 0.88771 0.2596 0.0
O182 O 0.13508 0.86117 0.25401 0.0
O183 O 0.16073 0.86746 0.23064 0.0
O184 O 0.10902 0.87199 0.29232 0.0
O185 O 0.14259 0.88466 0.2985 0.0
O186 O 0.08721 0.86065 0.23197 0.0
O187 O 0.0714 0.88719 0.24903 0.0
O188 O 0.12606 0.91526 0.2538 0.0
O189 O 0.10002 0.91382 0.27705 0.0
O190 O 0.14994 0.91177 0.22451 0.0
O191 O 0.1176 0.89786 0.21433 0.0
H192 H 0.21151 0.86582 0.28866 0.0
H193 H 0.23868 0.86112 0.3193 0.0
H194 H 0.23723 0.92812 0.33377 0.0
H195 H 0.21001 0.93274 0.3033 0.0
H196 H 0.03225 0.85051 0.2294 0.0
H197 H 0.00761 0.85309 0.19588 0.0
H198 H 0.04983 0.89681 0.16067 0.0
H199 H 0.07417 0.89441 0.19472 0.0
Pr200 Pr 0.36872 0.90463 0.50873 0.0
Pr201 Pr 0.37596 0.85756 0.50157 0.0
C202 C 0.35896 0.94458 0.52187 0.0
C203 C 0.36067 0.96016 0.5413 0.0
C204 C 0.35089 0.97986 0.53853 0.0
C205 C 0.35263 0.99527 0.5563 0.0
C206 C 0.36418 0.99129 0.57733 0.0
C207 C 0.37402 0.97144 0.58004 0.0
C208 C 0.37227 0.956 0.56216 0.0
C209 C 0.40565 0.89528 0.48388 0.0
C210 C 0.38442 0.87549 0.55592 0.0
C211 C 0.38895 0.8196 0.48449 0.0
C212 C 0.38726 0.8052 0.46375 0.0
C213 C 0.37254 0.80861 0.44537 0.0
C214 C 0.37108 0.79441 0.42615 0.0
C215 C 0.38432 0.77649 0.42488 0.0
C216 C 0.39921 0.7734 0.44328 0.0
C217 C 0.40064 0.78758 0.46243 0.0
C218 C 0.33569 0.86733 0.51929 0.0
C219 C 0.35149 0.88564 0.45807 0.0
O220 O 0.34625 0.92854 0.52507 0.0
O221 O 0.3764 0.93948 0.51086 0.0
O222 O 0.39954 0.88528 0.50235 0.0
O223 O 0.39302 0.91073 0.47869 0.0
O224 O 0.38865 0.85955 0.54135 0.0
O225 O 0.37579 0.89306 0.54776 0.0
O226 O 0.39945 0.83716 0.48141 0.0
O227 O 0.37222 0.82203 0.49787 0.0
O228 O 0.34556 0.87728 0.50336 0.0
O229 O 0.34666 0.85117 0.52665 0.0
O230 O 0.34959 0.90127 0.4735 0.0
O231 O 0.36215 0.86825 0.46367 0.0
H232 H 0.34201 0.98342 0.52246 0.0
H233 H 0.34513 0.01043 0.55336 0.0
H234 H 0.38284 0.96773 0.59608 0.0
H235 H 0.37999 0.94087 0.56458 0.0
H236 H 0.36213 0.82217 0.44596 0.0
H237 H 0.3596 0.79753 0.41224 0.0
H238 H 0.40945 0.7597 0.44327 0.0
H239 H 0.41212 0.78464 0.47641 0.0
Pr240 Pr 0.35576 0.11562 0.76348 0.0
Pr241 Pr 0.40254 0.12409 0.7525 0.0
C242 C 0.31785 0.10334 0.78062 0.0
C243 C 0.30146 0.10756 0.79881 0.0
C244 C 0.29291 0.12783 0.80225 0.0
C245 C 0.27625 0.13092 0.81836 0.0
C246 C 0.26779 0.1138 0.83129 0.0
C247 C 0.27679 0.09366 0.82816 0.0
C248 C 0.29338 0.0906 0.81208 0.0
C249 C 0.36282 0.15319 0.73871 0.0
C250 C 0.38656 0.13458 0.80756 0.0
C251 C 0.43894 0.13863 0.733 0.0
C252 C 0.45294 0.13708 0.71196 0.0
C253 C 0.44863 0.12323 0.69302 0.0
C254 C 0.4624 0.12202 0.67339 0.0
C255 C 0.48074 0.13466 0.67232 0.0
C256 C 0.48475 0.14864 0.69134 0.0
C257 C 0.47101 0.14983 0.71088 0.0
C258 C 0.39497 0.08395 0.77194 0.0
C259 C 0.37314 0.09781 0.71203 0.0
O260 O 0.33571 0.09512 0.78789 0.0
O261 O 0.3201 0.11697 0.76322 0.0
O262 O 0.3742 0.14669 0.75592 0.0
O263 O 0.34674 0.1409 0.73517 0.0
O264 O 0.40231 0.13687 0.79219 0.0
O265 O 0.36817 0.12668 0.80099 0.0
O266 O 0.4206 0.14771 0.72989 0.0
O267 O 0.43807 0.12237 0.7474 0.0
O268 O 0.38361 0.0934 0.75688 0.0
O269 O 0.4118 0.095 0.77668 0.0
O270 O 0.35882 0.09526 0.72894 0.0
O271 O 0.39008 0.10971 0.71574 0.0
H272 H 0.29884 0.14122 0.79223 0.0
H273 H 0.26964 0.14661 0.82021 0.0
H274 H 0.27101 0.08019 0.83815 0.0
H275 H 0.29972 0.07483 0.80975 0.0
H276 H 0.4347 0.11333 0.69345 0.0
H277 H 0.45861 0.11123 0.65902 0.0
H278 H 0.49881 0.15836 0.69148 0.0
H279 H 0.47462 0.16062 0.72533 0.0
Pr280 Pr 0.13996 0.10726 1.01128 0.0
Pr281 Pr 0.13331 0.15392 1.00269 0.0
C282 C 0.1503 0.068 0.02626 0.0
C283 C 0.14537 0.05187 0.04446 0.0
C284 C 0.14669 0.03046 0.03826 0.0
C285 C 0.14316 0.01473 0.05536 0.0
C286 C 0.13829 0.0201 0.0791 0.0
C287 C 0.13652 0.04163 0.08515 0.0
C288 C 0.13998 0.05738 0.06797 0.0
C289 C 0.10272 0.11597 0.9866 0.0
C290 C 0.12315 0.13707 0.05726 0.0
C291 C 0.12093 0.19198 0.98527 0.0
C292 C 0.12202 0.20572 0.96394 0.0
C293 C 0.13481 0.20065 0.94431 0.0
C294 C 0.13595 0.2143 0.92455 0.0
C295 C 0.1243 0.23332 0.92404 0.0
C296 C 0.11128 0.23807 0.9437 0.0
C297 C 0.11017 0.22442 0.96338 0.0
C298 C 0.17349 0.14428 1.02091 0.0
C299 C 0.15729 0.12516 0.96013 0.0
O300 O 0.16012 0.08508 0.03334 0.0
O301 O 0.13596 0.07166 1.00999 0.0
O302 O 0.10919 0.12663 1.00442 0.0
O303 O 0.11497 0.10004 0.98226 0.0
O304 O 0.12116 0.15332 0.04252 0.0
O305 O 0.13023 0.11864 0.04972 0.0
O306 O 0.10952 0.17485 0.98363 0.0
O307 O 0.13834 0.18911 0.99737 0.0
O308 O 0.16366 0.13408 1.00516 0.0
O309 O 0.16244 0.16044 0.02797 0.0
O310 O 0.15983 0.1103 0.97645 0.0
O311 O 0.14607 0.14234 0.96487 0.0
H312 H 0.15084 0.02589 1.02021 0.0
H313 H 0.14491 0.99835 0.05013 0.0
H314 H 0.13253 0.04632 0.10319 0.0
H315 H 0.1387 0.07383 0.07312 0.0
H316 H 0.14401 0.18623 0.94434 0.0
H317 H 0.14595 0.20995 0.90968 0.0
H318 H 0.10235 0.25265 0.94424 0.0
H319 H 0.10021 0.22863 0.97836 0.0
Pr320 Pr 0.90637 0.88869 0.75415 0.0
Pr321 Pr 0.85587 0.89312 0.76365 0.0
C322 C 0.94505 0.87864 0.73723 0.0
C323 C 0.95802 0.87568 0.71547 0.0
C324 C 0.97396 0.86029 0.71557 0.0
C325 C 0.9883 0.85884 0.69662 0.0
C326 C 0.98709 0.8728 0.67704 0.0
C327 C 0.97044 0.88758 0.67644 0.0
C328 C 0.95608 0.88904 0.69548 0.0
C329 C 0.89302 0.92711 0.77362 0.0
C330 C 0.87517 0.9102 0.71162 0.0
C331 C 0.81787 0.90698 0.77853 0.0
C332 C 0.8 0.901 0.79413 0.0
C333 C 0.77936 0.90629 0.78727 0.0
C334 C 0.76233 0.90235 0.80257 0.0
C335 C 0.76555 0.89307 0.82518 0.0
C336 C 0.78625 0.88725 0.8317 0.0
C337 C 0.80328 0.89115 0.81634 0.0
C338 C 0.86526 0.85286 0.74466 0.0
C339 C 0.88816 0.87766 0.80868 0.0
O340 O 0.93077 0.86436 0.7424 0.0
O341 O 0.93921 0.89791 0.74253 0.0
O342 O 0.8834 0.91641 0.75804 0.0
O343 O 0.91066 0.91789 0.77963 0.0
O344 O 0.85922 0.91063 0.72694 0.0
O345 O 0.89352 0.90107 0.71686 0.0
O346 O 0.83571 0.91184 0.78913 0.0
O347 O 0.82039 0.89638 0.75862 0.0
O348 O 0.87791 0.86745 0.74995 0.0
O349 O 0.84631 0.85871 0.75057 0.0
O350 O 0.90453 0.87619 0.79394 0.0
O351 O 0.86932 0.8842 0.80154 0.0
H352 H 0.97576 0.84979 0.73075 0.0
H353 H 1.00065 0.84703 0.69755 0.0
H354 H 0.96907 0.89867 0.66177 0.0
H355 H 0.9439 0.90105 0.69493 0.0
H356 H 0.77645 0.91385 0.7702 0.0
H357 H 0.74662 0.90671 0.79671 0.0
H358 H 0.78944 0.8803 0.84902 0.0
H359 H 0.81906 0.88688 0.82207 0.0
Pr360 Pr 0.87254 0.15337 0.50153 0.0
Pr361 Pr 0.86555 0.10638 0.51024 0.0
C362 C 0.88458 0.19086 0.48229 0.0
C363 C 0.88237 0.20467 0.46076 0.0
C364 C 0.86532 0.21879 0.45832 0.0
C365 C 0.86438 0.23304 0.43908 0.0
C366 C 0.88053 0.2337 0.42178 0.0
C367 C 0.89738 0.21929 0.42405 0.0
C368 C 0.89832 0.20506 0.44327 0.0
C369 C 0.83227 0.14396 0.51942 0.0
C370 C 0.84835 0.12408 0.45909 0.0
C371 C 0.85547 0.06711 0.52561 0.0
C372 C 0.85955 0.05126 0.54449 0.0
C373 C 0.86054 0.02984 0.53823 0.0
C374 C 0.86342 0.01429 0.55574 0.0
C375 C 0.86538 0.01983 0.57999 0.0
C376 C 0.8647 0.04141 0.58617 0.0
C377 C 0.86182 0.05697 0.56859 0.0
C378 C 0.90283 0.11534 0.48586 0.0
C379 C 0.88234 0.13648 0.55614 0.0
O380 O 0.89552 0.17343 0.48019 0.0
O381 O 0.8684 0.18879 0.49662 0.0
O382 O 0.84219 0.1335 0.50395 0.0
O383 O 0.84321 0.16029 0.52624 0.0
O384 O 0.84596 0.10912 0.4753 0.0
O385 O 0.85936 0.14139 0.46392 0.0
O386 O 0.84479 0.08406 0.5314 0.0
O387 O 0.87067 0.07087 0.51043 0.0
O388 O 0.89629 0.12583 0.50376 0.0
O389 O 0.8906 0.09944 0.48125 0.0
O390 O 0.88556 0.15246 0.54124 0.0
O391 O 0.87413 0.11854 0.54856 0.0
H392 H 0.85287 0.21919 0.47156 0.0
H393 H 0.85129 0.24402 0.43822 0.0
H394 H 0.90998 0.21904 0.41099 0.0
H395 H 0.91179 0.19457 0.44464 0.0
H396 H 0.85874 0.02507 0.51975 0.0
H397 H 0.86355 0.99788 0.55031 0.0
H398 H 0.86644 0.0463 0.60459 0.0
H399 H 0.86116 0.0734 0.57387 0.0
Pr400 Pr 0.60575 0.12383 0.25012 0.0
Pr401 Pr 0.6525 0.11481 0.25897 0.0
C402 C 0.56941 0.1386 0.23071 0.0
C403 C 0.55494 0.13614 0.20995 0.0
C404 C 0.54404 0.11718 0.20562 0.0
C405 C 0.52956 0.11569 0.18672 0.0
C406 C 0.52558 0.13311 0.17161 0.0
C407 C 0.53674 0.15197 0.17586 0.0
C408 C 0.55118 0.15346 0.19479 0.0
C409 C 0.61328 0.08324 0.26825 0.0
C410 C 0.63403 0.09791 0.2079 0.0
C411 C 0.69111 0.10331 0.27486 0.0
C412 C 0.70663 0.10727 0.29413 0.0
C413 C 0.71531 0.12743 0.29805 0.0
C414 C 0.7309 0.13042 0.31551 0.0
C415 C 0.73804 0.11335 0.32947 0.0
C416 C 0.72914 0.09327 0.32563 0.0
C417 C 0.71367 0.09028 0.30814 0.0
C418 C 0.64492 0.15269 0.23507 0.0
C419 C 0.62307 0.1326 0.30488 0.0
O420 O 0.5879 0.14709 0.22668 0.0
O421 O 0.57005 0.12356 0.24678 0.0
O422 O 0.62442 0.09274 0.25301 0.0
O423 O 0.59676 0.09443 0.27386 0.0
O424 O 0.64913 0.09543 0.22392 0.0
O425 O 0.61689 0.10919 0.21281 0.0
O426 O 0.67383 0.09315 0.28056 0.0
O427 O 0.68801 0.11825 0.25909 0.0
O428 O 0.63423 0.14629 0.25287 0.0
O429 O 0.66039 0.13999 0.23027 0.0
O430 O 0.60735 0.13673 0.28991 0.0
O431 O 0.64061 0.12359 0.29731 0.0
H432 H 0.54646 0.10354 0.21701 0.0
H433 H 0.52109 0.10099 0.18433 0.0
H434 H 0.53438 0.16564 0.1645 0.0
H435 H 0.55929 0.1683 0.19773 0.0
H436 H 0.71021 0.14087 0.28753 0.0
H437 H 0.73726 0.14612 0.31818 0.0
H438 H 0.73447 0.07971 0.33582 0.0
H439 H 0.70739 0.07455 0.30532 0.0
Pr440 Pr 0.63705 0.85216 1.00235 0.0
Pr441 Pr 0.64325 0.90284 1.0101 0.0
C442 C 0.6262 0.81343 0.98596 0.0
C443 C 0.62501 0.80077 0.96379 0.0
C444 C 0.63699 0.806 0.94354 0.0
C445 C 0.63714 0.79266 0.92353 0.0
C446 C 0.62531 0.77377 0.92333 0.0
C447 C 0.61278 0.76904 0.94343 0.0
C448 C 0.61266 0.78238 0.9634 0.0
C449 C 0.67613 0.86501 1.02049 0.0
C450 C 0.65839 0.88224 0.95822 0.0
C451 C 0.65879 0.9403 0.02472 0.0
C452 C 0.65442 0.95768 0.04163 0.0
C453 C 0.63384 0.96498 0.04611 0.0
C454 C 0.63032 0.98105 0.06293 0.0
C455 C 0.6473 0.98992 0.07573 0.0
C456 C 0.66786 0.98265 0.07091 0.0
C457 C 0.67135 0.96675 0.05407 0.0
C458 C 0.60238 0.89415 0.99247 0.0
C459 C 0.62698 0.87199 0.05619 0.0
O460 O 0.61254 0.82878 0.98868 0.0
O461 O 0.64509 0.81824 0.9937 0.0
O462 O 0.66546 0.87443 1.0047 0.0
O463 O 0.66659 0.84781 0.02743 0.0
O464 O 0.65923 0.89869 0.97281 0.0
O465 O 0.64951 0.864 0.96453 0.0
O466 O 0.66435 0.92219 0.03422 0.0
O467 O 0.64648 0.93832 1.00597 0.0
O468 O 0.61671 0.88125 0.99796 0.0
O469 O 0.60885 0.91311 0.99754 0.0
O470 O 0.62397 0.85551 0.04188 0.0
O471 O 0.63494 0.89004 0.0483 0.0
H472 H 0.64659 0.82015 0.94341 0.0
H473 H 0.64673 0.79703 0.9083 0.0
H474 H 0.60368 0.75458 0.94416 0.0
H475 H 0.60335 0.778 0.97886 0.0
H476 H 0.62048 0.95812 0.03684 0.0
H477 H 0.61429 0.98617 0.06634 0.0
H478 H 0.68133 0.98931 0.08013 0.0
H479 H 0.68735 0.96139 0.05088 0.0
Pr480 Pr 0.90082 0.12703 0.792 0.0
Pr481 Pr 0.85377 0.11948 0.78422 0.0
C482 C 0.93813 0.14013 0.81054 0.0
C483 C 0.9524 0.13759 0.83153 0.0
C484 C 0.96377 0.11882 0.83554 0.0
C485 C 0.97808 0.11726 0.85461 0.0
C486 C 0.98145 0.13441 0.87022 0.0
C487 C 0.96988 0.15309 0.86628 0.0
C488 C 0.95561 0.15466 0.84718 0.0
C489 C 0.89137 0.0863 0.77539 0.0
C490 C 0.87231 0.10308 0.83547 0.0
C491 C 0.81463 0.10898 0.76909 0.0
C492 C 0.79924 0.11247 0.74952 0.0
C493 C 0.79055 0.13253 0.74487 0.0
C494 C 0.77501 0.13509 0.72726 0.0
C495 C 0.76788 0.11769 0.71388 0.0
C496 C 0.77679 0.09771 0.71843 0.0
C497 C 0.79222 0.09514 0.73607 0.0
C498 C 0.86266 0.15734 0.80732 0.0
C499 C 0.88333 0.13545 0.73747 0.0
O500 O 0.92027 0.15002 0.81397 0.0
O501 O 0.93647 0.12453 0.79533 0.0
O502 O 0.88112 0.09658 0.79069 0.0
O503 O 0.90777 0.09699 0.76825 0.0
O504 O 0.85691 0.10075 0.81979 0.0
O505 O 0.88963 0.11383 0.82994 0.0
O506 O 0.8314 0.09767 0.76431 0.0
O507 O 0.81846 0.12466 0.78364 0.0
O508 O 0.87305 0.15047 0.78951 0.0
O509 O 0.84686 0.14517 0.81247 0.0
O510 O 0.8992 0.13964 0.75217 0.0
O511 O 0.8657 0.12689 0.74546 0.0
H512 H 0.96186 0.1054 0.82375 0.0
H513 H 0.98688 0.10271 0.85674 0.0
H514 H 0.97179 0.16655 0.878 0.0
H515 H 0.94719 0.16938 0.8445 0.0
H516 H 0.79559 0.14622 0.75495 0.0
H517 H 0.76865 0.15072 0.72404 0.0
H518 H 0.77147 0.08391 0.70873 0.0
H519 H 0.79847 0.07948 0.73947 0.0
Pr520 Pr 0.63233 0.15344 0.54092 0.0
Pr521 Pr 0.64017 0.10659 0.53351 0.0
C522 C 0.61916 0.1907 0.55958 0.0
C523 C 0.62189 0.20487 0.58064 0.0
C524 C 0.64015 0.21723 0.58361 0.0
C525 C 0.64188 0.23144 0.60272 0.0
C526 C 0.62539 0.23377 0.61943 0.0
C527 C 0.60719 0.22125 0.61651 0.0
C528 C 0.60546 0.20706 0.59737 0.0
C529 C 0.67293 0.14448 0.52368 0.0
C530 C 0.65716 0.12531 0.58422 0.0
C531 C 0.65038 0.06725 0.51878 0.0
C532 C 0.64679 0.05182 0.49928 0.0
C533 C 0.6271 0.04194 0.49598 0.0
C534 C 0.62449 0.02638 0.47844 0.0
C535 C 0.6415 0.02038 0.46379 0.0
C536 C 0.66111 0.03042 0.46702 0.0
C537 C 0.66373 0.04589 0.48459 0.0
C538 C 0.60277 0.11528 0.55766 0.0
C539 C 0.62366 0.13567 0.48654 0.0
O540 O 0.60929 0.1728 0.56296 0.0
O541 O 0.63466 0.18912 0.54424 0.0
O542 O 0.66304 0.13412 0.53926 0.0
O543 O 0.66186 0.16064 0.51652 0.0
O544 O 0.65945 0.1099 0.5686 0.0
O545 O 0.64622 0.14255 0.57873 0.0
O546 O 0.66188 0.0839 0.51398 0.0
O547 O 0.63468 0.0713 0.53322 0.0
O548 O 0.60902 0.12551 0.5394 0.0
O549 O 0.61541 0.09984 0.56283 0.0
O550 O 0.61958 0.15167 0.50109 0.0
O551 O 0.63228 0.11811 0.4947 0.0
H552 H 0.65305 0.21618 0.57097 0.0
H553 H 0.656 0.241 0.60402 0.0
H554 H 0.59425 0.22235 0.62908 0.0
H555 H 0.5911 0.1979 0.59551 0.0
H556 H 0.61372 0.04606 0.50707 0.0
H557 H 0.60913 0.01912 0.47628 0.0
H558 H 0.67464 0.02598 0.45633 0.0
H559 H 0.67915 0.05301 0.48693 0.0
Pr560 Pr 0.60744 0.88326 0.29195 0.0
Pr561 Pr 0.65424 0.89241 0.28399 0.0
C562 C 0.57056 0.86838 0.30989 0.0
C563 C 0.55599 0.87053 0.33036 0.0
C564 C 0.53768 0.8581 0.33113 0.0
C565 C 0.52359 0.85972 0.35032 0.0
C566 C 0.52747 0.87383 0.36926 0.0
C567 C 0.54601 0.88618 0.36845 0.0
C568 C 0.56013 0.88453 0.3492 0.0
C569 C 0.61501 0.92375 0.27351 0.0
C570 C 0.63482 0.90958 0.3344 0.0
C571 C 0.69344 0.90383 0.26992 0.0
C572 C 0.70957 0.89996 0.25145 0.0
C573 C 0.73098 0.90134 0.25764 0.0
C574 C 0.74666 0.8984 0.24038 0.0
C575 C 0.74123 0.89403 0.21651 0.0
C576 C 0.7197 0.89234 0.21045 0.0
C577 C 0.70402 0.89525 0.22777 0.0
C578 C 0.64644 0.85476 0.30833 0.0
C579 C 0.62548 0.87472 0.23754 0.0
O580 O 0.58893 0.85976 0.3142 0.0
O581 O 0.57167 0.88416 0.29485 0.0
O582 O 0.62598 0.91448 0.28911 0.0
O583 O 0.59875 0.91232 0.26755 0.0
O584 O 0.64992 0.9123 0.31847 0.0
O585 O 0.61803 0.89782 0.32947 0.0
O586 O 0.67631 0.91393 0.2635 0.0
O587 O 0.68984 0.88854 0.28507 0.0
O588 O 0.63604 0.86088 0.29016 0.0
O589 O 0.66165 0.86769 0.31337 0.0
O590 O 0.60972 0.87029 0.25229 0.0
O591 O 0.64288 0.88386 0.24538 0.0
H592 H 0.5342 0.84718 0.31677 0.0
H593 H 0.50938 0.85021 0.35001 0.0
H594 H 0.54971 0.89705 0.38278 0.0
H595 H 0.57424 0.89418 0.34901 0.0
H596 H 0.73558 0.90499 0.27582 0.0
H597 H 0.76303 0.9001 0.24563 0.0
H598 H 0.71495 0.88873 0.19232 0.0
H599 H 0.6876 0.89398 0.22266 0.0
Pr600 Pr 0.87555 0.85805 0.04366 0.0
Pr601 Pr 0.86849 0.90508 0.03451 0.0
C602 C 0.88885 0.82067 0.06197 0.0
C603 C 0.88632 0.80516 0.0816 0.0
C604 C 0.89131 0.78394 0.07726 0.0
C605 C 0.88981 0.76886 0.09548 0.0
C606 C 0.88322 0.77458 0.11861 0.0
C607 C 0.87832 0.79597 0.12299 0.0
C608 C 0.87983 0.81112 0.10465 0.0
C609 C 0.83521 0.8674 0.02568 0.0
C610 C 0.85104 0.88714 0.08584 0.0
C611 C 0.85768 0.94398 1.01875 0.0
C612 C 0.86107 0.95954 0.99934 0.0
C613 C 0.88103 0.96842 0.99478 0.0
C614 C 0.88342 0.98417 0.97736 0.0
C615 C 0.86593 0.99131 0.96408 0.0
C616 C 0.84605 0.9822 0.96854 0.0
C617 C 0.84366 0.96656 0.98598 0.0
C618 C 0.9057 0.89631 0.05908 0.0
C619 C 0.88581 0.87493 0.98909 0.0
O620 O 0.89753 0.83885 0.0671 0.0
O621 O 0.87372 0.82219 0.04615 0.0
O622 O 0.84527 0.87795 0.04093 0.0
O623 O 0.84587 0.85071 1.01948 0.0
O624 O 0.84915 0.90233 0.06977 0.0
O625 O 0.86174 0.86964 0.08099 0.0
O626 O 0.84683 0.92696 1.01366 0.0
O627 O 0.87318 0.94049 0.03371 0.0
O628 O 0.89917 0.88566 0.04127 0.0
O629 O 0.89356 0.91235 0.06342 0.0
O630 O 0.88841 0.85896 1.0041 0.0
O631 O 0.87801 0.89319 0.99624 0.0
H632 H 0.89655 0.77902 0.0597 0.0
H633 H 0.89406 0.75268 0.09144 0.0
H634 H 0.87298 0.80095 0.14047 0.0
H635 H 0.87593 0.82743 0.10846 0.0
H636 H 0.89477 0.96337 1.0048 0.0
H637 H 0.89897 0.99069 0.97421 0.0
H638 H 0.83218 0.98752 0.95893 0.0
H639 H 0.82807 0.96017 0.98932 0.0
Pr640 Pr 0.65246 0.61453 0.78398 0.0
Pr641 Pr 0.60566 0.62356 0.7932 0.0
C642 C 0.69082 0.60256 0.76785 0.0
C643 C 0.70701 0.60691 0.74945 0.0
C644 C 0.71504 0.62734 0.74554 0.0
C645 C 0.73144 0.63065 0.72914 0.0
C646 C 0.74015 0.6136 0.71635 0.0
C647 C 0.73168 0.59329 0.71997 0.0
C648 C 0.71536 0.59 0.73635 0.0
C649 C 0.6451 0.65258 0.80761 0.0
C650 C 0.6228 0.63277 0.73842 0.0
C651 C 0.56909 0.63842 0.81195 0.0
C652 C 0.55459 0.63637 0.83251 0.0
C653 C 0.55882 0.62254 0.85154 0.0
C654 C 0.54477 0.62106 0.87089 0.0
C655 C 0.52622 0.63341 0.87161 0.0
C656 C 0.52223 0.64732 0.85246 0.0
C657 C 0.53625 0.64877 0.83318 0.0
C658 C 0.6133 0.58302 0.77498 0.0
C659 C 0.63419 0.59761 0.83517 0.0
O660 O 0.67324 0.59361 0.7609 0.0
O661 O 0.68807 0.61661 0.78467 0.0
O662 O 0.63415 0.64596 0.79013 0.0
O663 O 0.66084 0.64009 0.81209 0.0
O664 O 0.60712 0.63668 0.75347 0.0
O665 O 0.64043 0.62377 0.74583 0.0
O666 O 0.58756 0.64686 0.81609 0.0
O667 O 0.56992 0.62275 0.79678 0.0
O668 O 0.62436 0.59255 0.79023 0.0
O669 O 0.59673 0.59417 0.76939 0.0
O670 O 0.64892 0.59479 0.81881 0.0
O671 O 0.61726 0.60934 0.83059 0.0
H672 H 0.70889 0.6407 0.7554 0.0
H673 H 0.73763 0.64647 0.72694 0.0
H674 H 0.73766 0.57986 0.7101 0.0
H675 H 0.70942 0.57412 0.73903 0.0
H676 H 0.57295 0.61291 0.85143 0.0
H677 H 0.54853 0.61033 0.88536 0.0
H678 H 0.50802 0.65682 0.85206 0.0
H679 H 0.5327 0.65955 0.81867 0.0
Pr680 Pr 0.64503 0.40383 0.03674 0.0
Pr681 Pr 0.63623 0.35687 0.0447 0.0
C682 C 0.65637 0.44308 1.02252 0.0
C683 C 0.65216 0.4596 1.00455 0.0
C684 C 0.65875 0.48032 1.0092 0.0
C685 C 0.65545 0.49632 0.99236 0.0
C686 C 0.6455 0.49196 0.97042 0.0
C687 C 0.63856 0.47116 0.966 0.0
C688 C 0.64186 0.45512 0.98294 0.0
C689 C 0.60774 0.39582 0.06163 0.0
C690 C 0.62711 0.37502 0.99031 0.0
C691 C 0.62168 0.31968 0.06229 0.0
C692 C 0.62334 0.30507 0.08284 0.0
C693 C 0.63717 0.30893 0.10194 0.0
C694 C 0.63849 0.29464 0.12112 0.0
C695 C 0.62597 0.27619 0.12158 0.0
C696 C 0.61201 0.27261 0.10241 0.0
C697 C 0.61072 0.28688 0.08331 0.0
C698 C 0.6765 0.36503 0.026 0.0
C699 C 0.66251 0.3842 0.08721 0.0
O700 O 0.6659 0.42589 1.01532 0.0
O701 O 0.64157 0.43945 0.03823 0.0
O702 O 0.61371 0.38541 0.04343 0.0
O703 O 0.62052 0.41125 0.06625 0.0
O704 O 0.62314 0.35908 1.00504 0.0
O705 O 0.63594 0.39258 0.99816 0.0
O706 O 0.61246 0.33784 0.06605 0.0
O707 O 0.63798 0.32115 0.04807 0.0
O708 O 0.66721 0.37567 0.04181 0.0
O709 O 0.66518 0.34873 1.01991 0.0
O710 O 0.66516 0.39938 0.07127 0.0
O711 O 0.65078 0.36738 0.08225 0.0
H712 H 0.66658 0.48412 0.02587 0.0
H713 H 0.66067 0.51217 0.9966 0.0
H714 H 0.63101 0.46716 0.94924 0.0
H715 H 0.63656 0.43922 0.97909 0.0
H716 H 0.64698 0.32295 0.10198 0.0
H717 H 0.64926 0.29811 0.13562 0.0
H718 H 0.60237 0.25849 0.10183 0.0
H719 H 0.59994 0.2836 0.06874 0.0
Pr720 Pr 0.85974 0.39211 0.28242 0.0
Pr721 Pr 0.90786 0.38955 0.29168 0.0
C722 C 0.81896 0.40202 0.27359 0.0
C723 C 0.80186 0.39823 0.25596 0.0
C724 C 0.79396 0.37792 0.25104 0.0
C725 C 0.77806 0.37508 0.2338 0.0
C726 C 0.76991 0.39247 0.22103 0.0
C727 C 0.77768 0.41274 0.22632 0.0
C728 C 0.79338 0.41557 0.24358 0.0
C729 C 0.87403 0.35281 0.29991 0.0
C730 C 0.89008 0.37732 0.23753 0.0
C731 C 0.94682 0.38083 0.30888 0.0
C732 C 0.95894 0.37849 0.33136 0.0
C733 C 0.95308 0.38924 0.35227 0.0
C734 C 0.96605 0.38856 0.3726 0.0
C735 C 0.98516 0.37711 0.37248 0.0
C736 C 0.99049 0.36573 0.35174 0.0
C737 C 0.97753 0.36645 0.33143 0.0
C738 C 0.8954 0.42666 0.26819 0.0
C739 C 0.87796 0.41276 0.33326 0.0
O740 O 0.83492 0.41332 0.26609 0.0
O741 O 0.82458 0.38664 0.28796 0.0
O742 O 0.88 0.37077 0.30671 0.0
O743 O 0.85986 0.35466 0.28321 0.0
O744 O 0.90522 0.37353 0.25339 0.0
O745 O 0.87233 0.3867 0.24373 0.0
O746 O 0.93309 0.36609 0.30348 0.0
O747 O 0.94036 0.39987 0.3034 0.0
O748 O 0.88563 0.41748 0.28483 0.0
O749 O 0.91267 0.41642 0.26313 0.0
O750 O 0.86133 0.40958 0.31937 0.0
O751 O 0.89702 0.40598 0.32731 0.0
H752 H 0.80017 0.36422 0.26029 0.0
H753 H 0.77249 0.35925 0.23008 0.0
H754 H 0.77154 0.42652 0.21715 0.0
H755 H 0.79902 0.43142 0.24716 0.0
H756 H 0.93875 0.39856 0.35269 0.0
H757 H 0.96124 0.39727 0.38832 0.0
H758 H 0.00514 0.35695 0.35078 0.0
H759 H 0.9824 0.35809 0.31548 0.0
Pr760 Pr 0.86608 0.60812 0.53459 0.0
Pr761 Pr 0.87407 0.65505 0.54331 0.0
C762 C 0.85513 0.5692 0.51905 0.0
C763 C 0.85898 0.55347 0.50005 0.0
C764 C 0.85992 0.532 0.50618 0.0
C765 C 0.86274 0.51659 0.48858 0.0
C766 C 0.86466 0.5223 0.46437 0.0
C767 C 0.86393 0.54391 0.4583 0.0
C768 C 0.86113 0.55935 0.47597 0.0
C769 C 0.90341 0.61625 0.55942 0.0
C770 C 0.88406 0.63774 0.4889 0.0
C771 C 0.88715 0.69221 0.56235 0.0
C772 C 0.88413 0.70701 0.58281 0.0
C773 C 0.87157 0.7252 0.58014 0.0
C774 C 0.86992 0.74004 0.59863 0.0
C775 C 0.8809 0.73724 0.62031 0.0
C776 C 0.89338 0.71897 0.62302 0.0
C777 C 0.895 0.70409 0.60453 0.0
C778 C 0.83379 0.64653 0.52472 0.0
C779 C 0.84869 0.62634 0.58545 0.0
O780 O 0.8448 0.5864 0.51333 0.0
O781 O 0.87037 0.57251 0.53434 0.0
O782 O 0.89718 0.62694 0.54148 0.0
O783 O 0.89085 0.60056 0.56384 0.0
O784 O 0.88754 0.65363 0.5038 0.0
O785 O 0.87534 0.62001 0.49638 0.0
O786 O 0.89645 0.6741 0.56646 0.0
O787 O 0.87217 0.69082 0.54632 0.0
O788 O 0.84338 0.63579 0.54026 0.0
O789 O 0.8448 0.66311 0.51888 0.0
O790 O 0.84633 0.61128 0.56939 0.0
O791 O 0.85989 0.64355 0.58062 0.0
H792 H 0.8582 0.52711 0.52464 0.0
H793 H 0.86292 0.50014 0.49392 0.0
H794 H 0.86562 0.54892 0.43989 0.0
H795 H 0.86051 0.57582 0.47078 0.0
H796 H 0.86328 0.72819 0.56355 0.0
H797 H 0.86042 0.75402 0.59565 0.0
H798 H 0.90189 0.7161 0.6395 0.0
H799 H 0.90502 0.69041 0.60719 0.0
Pr800 Pr 0.6526 0.39142 0.7618 0.0
Pr801 Pr 0.60569 0.38337 0.75404 0.0
C802 C 0.6919 0.40166 0.77677 0.0
C803 C 0.70725 0.39847 0.79653 0.0
C804 C 0.71885 0.37958 0.79872 0.0
C805 C 0.7344 0.37742 0.81639 0.0
C806 C 0.73874 0.39407 0.83227 0.0
C807 C 0.72698 0.41286 0.83017 0.0
C808 C 0.7115 0.41504 0.81249 0.0
C809 C 0.64415 0.35433 0.73673 0.0
C810 C 0.6236 0.3746 0.80855 0.0
C811 C 0.56822 0.36967 0.73627 0.0
C812 C 0.55393 0.37139 0.71542 0.0
C813 C 0.5356 0.35898 0.71469 0.0
C814 C 0.52161 0.36037 0.69533 0.0
C815 C 0.52561 0.37422 0.67614 0.0
C816 C 0.5442 0.38652 0.67687 0.0
C817 C 0.55821 0.3851 0.6963 0.0
C818 C 0.61434 0.42356 0.77261 0.0
C819 C 0.63362 0.40899 0.71133 0.0
O820 O 0.6753 0.41341 0.78096 0.0
O821 O 0.68784 0.38565 0.76277 0.0
O822 O 0.63383 0.36027 0.75504 0.0
O823 O 0.65953 0.36714 0.73194 0.0
O824 O 0.60756 0.3707 0.79397 0.0
O825 O 0.6412 0.38312 0.80046 0.0
O826 O 0.58609 0.35975 0.73309 0.0
O827 O 0.57009 0.3862 0.75007 0.0
O828 O 0.62484 0.41415 0.75677 0.0
O829 O 0.59802 0.41235 0.77891 0.0
O830 O 0.649 0.41122 0.72705 0.0
O831 O 0.61651 0.39776 0.7165 0.0
H832 H 0.71613 0.36653 0.78663 0.0
H833 H 0.74298 0.36266 0.81763 0.0
H834 H 0.7301 0.42613 0.84183 0.0
H835 H 0.70309 0.42989 0.81104 0.0
H836 H 0.53198 0.3483 0.72926 0.0
H837 H 0.50738 0.3509 0.69573 0.0
H838 H 0.54801 0.39719 0.66237 0.0
H839 H 0.57233 0.39474 0.69644 0.0
Pr840 Pr 0.86756 0.40387 1.01372 0.0
Pr841 Pr 0.87607 0.3572 1.00279 0.0
C842 C 0.85513 0.44176 0.03075 0.0
C843 C 0.85921 0.45825 0.04883 0.0
C844 C 0.87956 0.46632 0.05299 0.0
C845 C 0.88257 0.48313 0.06893 0.0
C846 C 0.86528 0.49219 0.08097 0.0
C847 C 0.84505 0.48364 0.07714 0.0
C848 C 0.84207 0.46692 0.06123 0.0
C849 C 0.90515 0.39691 0.98906 0.0
C850 C 0.88684 0.37313 0.05775 0.0
C851 C 0.89023 0.32119 0.98217 0.0
C852 C 0.88743 0.30726 0.96103 0.0
C853 C 0.86833 0.29666 0.95659 0.0
C854 C 0.86653 0.28261 0.93735 0.0
C855 C 0.88375 0.27878 0.922 0.0
C856 C 0.90276 0.28966 0.92634 0.0
C857 C 0.90456 0.30367 0.94561 0.0
C858 C 0.83587 0.36455 1.02202 0.0
C859 C 0.84964 0.38661 0.96229 0.0
O860 O 0.84705 0.42387 0.0381 0.0
O861 O 0.8688 0.43954 1.01343 0.0
O862 O 0.89868 0.3855 1.00625 0.0
O863 O 0.89281 0.41296 0.98548 0.0
O864 O 0.88922 0.35742 0.04235 0.0
O865 O 0.87872 0.39147 0.05123 0.0
O866 O 0.8989 0.33967 0.97862 0.0
O867 O 0.87533 0.32159 0.99835 0.0
O868 O 0.84529 0.37602 1.00705 0.0
O869 O 0.84696 0.34772 0.02671 0.0
O870 O 0.84726 0.40102 0.9791 0.0
O871 O 0.86137 0.36956 0.96611 0.0
H872 H 0.89308 0.45991 0.04364 0.0
H873 H 0.89834 0.48936 0.07136 0.0
H874 H 0.83143 0.48989 0.08646 0.0
H875 H 0.82625 0.46093 0.05833 0.0
H876 H 0.85483 0.29895 0.96816 0.0
H877 H 0.85173 0.27433 0.9349 0.0
H878 H 0.91628 0.2874 0.9148 0.0
H879 H 0.9195 0.31157 0.94864 0.0
Pr880 Pr 0.85524 0.61767 0.26159 0.0
Pr881 Pr 0.90198 0.6274 0.25293 0.0
C882 C 0.81682 0.60464 0.27657 0.0
C883 C 0.80002 0.60883 0.29413 0.0
C884 C 0.77934 0.60252 0.28884 0.0
C885 C 0.76311 0.60559 0.30537 0.0
C886 C 0.76721 0.61504 0.32765 0.0
C887 C 0.78795 0.62176 0.33271 0.0
C888 C 0.80422 0.61868 0.31608 0.0
C889 C 0.862 0.65633 0.23888 0.0
C890 C 0.88435 0.63538 0.3077 0.0
C891 C 0.93855 0.64261 0.23462 0.0
C892 C 0.95452 0.63979 0.21555 0.0
C893 C 0.97547 0.6457 0.22009 0.0
C894 C 0.99088 0.64405 0.20227 0.0
C895 C 0.98577 0.63638 0.17937 0.0
C896 C 0.96467 0.6305 0.17482 0.0
C897 C 0.94921 0.63216 0.19274 0.0
C898 C 0.89463 0.5861 0.26955 0.0
C899 C 0.87418 0.60223 0.21006 0.0
O900 O 0.83457 0.5967 0.28454 0.0
O901 O 0.81948 0.61863 0.25966 0.0
O902 O 0.87321 0.64951 0.25612 0.0
O903 O 0.8463 0.64381 0.23447 0.0
O904 O 0.89982 0.64022 0.2927 0.0
O905 O 0.86703 0.62597 0.30008 0.0
O906 O 0.91986 0.64939 0.22829 0.0
O907 O 0.93791 0.62863 0.25183 0.0
O908 O 0.88353 0.59612 0.25474 0.0
O909 O 0.91119 0.59712 0.2754 0.0
O910 O 0.85933 0.59885 0.22616 0.0
O911 O 0.89098 0.6139 0.21517 0.0
H912 H 0.77576 0.59502 0.27192 0.0
H913 H 0.74731 0.60056 0.30067 0.0
H914 H 0.79173 0.62892 0.34975 0.0
H915 H 0.82009 0.62376 0.32046 0.0
H916 H 0.97991 0.65182 0.23745 0.0
H917 H 0.00681 0.64906 0.20642 0.0
H918 H 0.96016 0.62431 0.15753 0.0
H919 H 0.93312 0.62752 0.18876 0.0
Pr920 Pr 0.64279 0.60587 0.51201 0.0
Pr921 Pr 0.63393 0.65258 0.50284 0.0
C922 C 0.6544 0.56737 0.5283 0.0
C923 C 0.65034 0.55134 0.54703 0.0
C924 C 0.63001 0.54327 0.55134 0.0
C925 C 0.62698 0.52693 0.56793 0.0
C926 C 0.64422 0.5183 0.58052 0.0
C927 C 0.66444 0.52683 0.57652 0.0
C928 C 0.66745 0.54309 0.55995 0.0
C929 C 0.60509 0.61326 0.48754 0.0
C930 C 0.62426 0.63539 0.55742 0.0
C931 C 0.61994 0.68908 0.48296 0.0
C932 C 0.62304 0.7035 0.4622 0.0
C933 C 0.64133 0.71592 0.45981 0.0
C934 C 0.64333 0.73036 0.44091 0.0
C935 C 0.6271 0.73283 0.42386 0.0
C936 C 0.60891 0.72022 0.42619 0.0
C937 C 0.60691 0.7058 0.44511 0.0
C938 C 0.67435 0.64501 0.52153 0.0
C939 C 0.66022 0.62416 0.46117 0.0
O940 O 0.6639 0.58483 0.53469 0.0
O941 O 0.63994 0.57028 0.51193 0.0
O942 O 0.61137 0.62414 0.50525 0.0
O943 O 0.61778 0.59767 0.48319 0.0
O944 O 0.62041 0.65112 0.54236 0.0
O945 O 0.63335 0.61781 0.55007 0.0
O946 O 0.61136 0.67066 0.47879 0.0
O947 O 0.63456 0.68832 0.49948 0.0
O948 O 0.66499 0.63394 0.50615 0.0
O949 O 0.66304 0.66147 0.52707 0.0
O950 O 0.66279 0.60926 0.47743 0.0
O951 O 0.64857 0.64112 0.46573 0.0
H952 H 0.6165 0.54932 0.54162 0.0
H953 H 0.61122 0.52069 0.57042 0.0
H954 H 0.67802 0.52091 0.58622 0.0
H955 H 0.68327 0.54905 0.55696 0.0
H956 H 0.65402 0.71473 0.47272 0.0
H957 H 0.65744 0.73998 0.44004 0.0
H958 H 0.59618 0.72142 0.41333 0.0
H959 H 0.59256 0.69656 0.44653 0.0
Pr960 Pr 0.40321 0.38419 0.25363 0.0
Pr961 Pr 0.35645 0.39291 0.26256 0.0
C962 C 0.43972 0.36991 0.23421 0.0
C963 C 0.45511 0.37301 0.21436 0.0
C964 C 0.4715 0.3879 0.21621 0.0
C965 C 0.48711 0.38931 0.19854 0.0
C966 C 0.48689 0.3758 0.17855 0.0
C967 C 0.47022 0.36123 0.17643 0.0
C968 C 0.4546 0.35979 0.19415 0.0
C969 C 0.39554 0.42479 0.27168 0.0
C970 C 0.37472 0.41019 0.21159 0.0
C971 C 0.31783 0.40422 0.27849 0.0
C972 C 0.30228 0.40009 0.29765 0.0
C973 C 0.29363 0.37989 0.30145 0.0
C974 C 0.27803 0.37677 0.31885 0.0
C975 C 0.27085 0.39374 0.33287 0.0
C976 C 0.2797 0.41386 0.32914 0.0
C977 C 0.29518 0.41699 0.31171 0.0
C978 C 0.36407 0.35516 0.23852 0.0
C979 C 0.38596 0.3749 0.30829 0.0
O980 O 0.42114 0.36219 0.22893 0.0
O981 O 0.43901 0.38392 0.25138 0.0
O982 O 0.38438 0.41521 0.25656 0.0
O983 O 0.41218 0.4137 0.27716 0.0
O984 O 0.35971 0.41259 0.22769 0.0
O985 O 0.39186 0.39885 0.21638 0.0
O986 O 0.33511 0.41431 0.28434 0.0
O987 O 0.32094 0.38943 0.26258 0.0
O988 O 0.37488 0.36152 0.25628 0.0
O989 O 0.34849 0.3678 0.23391 0.0
O990 O 0.40161 0.37081 0.29326 0.0
O991 O 0.36843 0.38402 0.30083 0.0
H992 H 0.47254 0.39825 0.23156 0.0
H993 H 0.49947 0.40097 0.20065 0.0
H994 H 0.46958 0.35043 0.16146 0.0
H995 H 0.44239 0.34793 0.19228 0.0
H996 H 0.29876 0.36653 0.29088 0.0
H997 H 0.27169 0.36104 0.32143 0.0
H998 H 0.27434 0.42735 0.33936 0.0
H999 H 0.30143 0.43274 0.30898 0.0
Pr1000 Pr 0.37491 0.65236 1.00269 0.0
Pr1001 Pr 0.36651 0.60561 1.01031 0.0
C1002 C 0.38902 0.6898 0.98526 0.0
C1003 C 0.38774 0.70404 0.96433 0.0
C1004 C 0.37363 0.70027 0.94546 0.0
C1005 C 0.37258 0.71427 0.92599 0.0
C1006 C 0.38563 0.73233 0.92498 0.0
C1007 C 0.39992 0.73577 0.94388 0.0
C1008 C 0.40094 0.72179 0.96328 0.0
C1009 C 0.33422 0.64384 1.01997 0.0
C1010 C 0.35012 0.62453 0.95933 0.0
C1011 C 0.35571 0.56649 0.02536 0.0
C1012 C 0.35947 0.55104 0.04485 0.0
C1013 C 0.37934 0.54157 0.04838 0.0
C1014 C 0.38215 0.5261 0.06604 0.0
C1015 C 0.36518 0.51981 0.0806 0.0
C1016 C 0.34538 0.52944 0.07713 0.0
C1017 C 0.34256 0.54481 0.05944 0.0
C1018 C 0.40416 0.61378 0.98637 0.0
C1019 C 0.3833 0.63455 0.05718 0.0
O1020 O 0.39899 0.67191 0.98237 0.0
O1021 O 0.3722 0.68796 0.99862 0.0
O1022 O 0.34396 0.63341 1.00435 0.0
O1023 O 0.34554 0.65976 0.02724 0.0
O1024 O 0.34735 0.60928 0.97513 0.0
O1025 O 0.36144 0.64154 0.96471 0.0
O1026 O 0.3447 0.5834 0.03047 0.0
O1027 O 0.37113 0.57019 1.01042 0.0
O1028 O 0.39788 0.62415 1.00449 0.0
O1029 O 0.39143 0.59841 0.98127 0.0
O1030 O 0.38737 0.65053 0.04258 0.0
O1031 O 0.37466 0.61699 0.04911 0.0
H1032 H 0.36338 0.68659 0.94585 0.0
H1033 H 0.36156 0.71089 0.9117 0.0
H1034 H 0.40998 0.74959 0.94405 0.0
H1035 H 0.41195 0.72498 0.97765 0.0
H1036 H 0.39272 0.54597 0.0374 0.0
H1037 H 0.39764 0.51917 0.06839 0.0
H1038 H 0.33188 0.52477 0.08776 0.0
H1039 H 0.32703 0.55164 0.05693 0.0
Pr1040 Pr 0.10534 0.62498 0.75341 0.0
Pr1041 Pr 0.15251 0.61787 0.76083 0.0
C1042 C 0.06743 0.63792 0.73608 0.0
C1043 C 0.05334 0.63681 0.715 0.0
C1044 C 0.05757 0.62332 0.69569 0.0
C1045 C 0.0436 0.6223 0.67619 0.0
C1046 C 0.02511 0.63476 0.67557 0.0
C1047 C 0.02121 0.64843 0.69492 0.0
C1048 C 0.03515 0.64943 0.71434 0.0
C1049 C 0.11506 0.58488 0.77181 0.0
C1050 C 0.13354 0.6 0.71054 0.0
C1051 C 0.19221 0.60845 0.7751 0.0
C1052 C 0.20796 0.61172 0.79438 0.0
C1053 C 0.21659 0.63177 0.79913 0.0
C1054 C 0.23283 0.63412 0.81595 0.0
C1055 C 0.24084 0.6165 0.82837 0.0
C1056 C 0.2318 0.59657 0.82395 0.0
C1057 C 0.21563 0.59422 0.80712 0.0
C1058 C 0.14299 0.65426 0.735 0.0
C1059 C 0.12333 0.63421 0.80769 0.0
O1060 O 0.08481 0.64889 0.73393 0.0
O1061 O 0.07 0.62068 0.74864 0.0
O1062 O 0.12517 0.5946 0.75587 0.0
O1063 O 0.09889 0.59594 0.77887 0.0
O1064 O 0.14896 0.59797 0.72625 0.0
O1065 O 0.11625 0.61096 0.71572 0.0
O1066 O 0.17596 0.59632 0.77965 0.0
O1067 O 0.18755 0.62451 0.76137 0.0
O1068 O 0.13308 0.64851 0.75368 0.0
O1069 O 0.15861 0.64171 0.73031 0.0
O1070 O 0.10713 0.63769 0.7932 0.0
O1071 O 0.14111 0.6261 0.79954 0.0
H1072 H 0.07158 0.61351 0.69577 0.0
H1073 H 0.04734 0.61176 0.66158 0.0
H1074 H 0.00705 0.65802 0.6954 0.0
H1075 H 0.03157 0.65994 0.72905 0.0
H1076 H 0.21113 0.6456 0.78953 0.0
H1077 H 0.2395 0.64968 0.81871 0.0
H1078 H 0.23727 0.58269 0.83347 0.0
H1079 H 0.20934 0.57858 0.80377 0.0
Pr1080 Pr 0.13471 0.35501 0.50431 0.0
Pr1081 Pr 0.1436 0.40195 0.51315 0.0
C1082 C 0.11989 0.31831 0.48575 0.0
C1083 C 0.12175 0.30377 0.46519 0.0
C1084 C 0.13517 0.30809 0.44586 0.0
C1085 C 0.13642 0.29404 0.42649 0.0
C1086 C 0.12422 0.27537 0.42604 0.0
C1087 C 0.11072 0.27128 0.4455 0.0
C1088 C 0.10952 0.28531 0.46479 0.0
C1089 C 0.17523 0.36272 0.52256 0.0
C1090 C 0.16044 0.38341 0.46218 0.0
C1091 C 0.15512 0.44055 0.52905 0.0
C1092 C 0.15095 0.45629 0.54801 0.0
C1093 C 0.13057 0.46424 0.55235 0.0
C1094 C 0.12736 0.48002 0.56954 0.0
C1095 C 0.14444 0.48806 0.58281 0.0
C1096 C 0.16475 0.47988 0.57854 0.0
C1097 C 0.16795 0.46422 0.56132 0.0
C1098 C 0.10586 0.39434 0.48912 0.0
C1099 C 0.12546 0.37251 0.55886 0.0
O1100 O 0.1113 0.33675 0.48169 0.0
O1101 O 0.13573 0.31924 0.50072 0.0
O1102 O 0.1657 0.37384 0.50729 0.0
O1103 O 0.16405 0.34619 0.52822 0.0
O1104 O 0.16313 0.39836 0.47831 0.0
O1105 O 0.14895 0.36638 0.46693 0.0
O1106 O 0.16495 0.42318 0.53521 0.0
O1107 O 0.14049 0.43752 0.51292 0.0
O1108 O 0.11226 0.38354 0.50689 0.0
O1109 O 0.11844 0.40997 0.48453 0.0
O1110 O 0.12167 0.35666 0.544 0.0
O1111 O 0.13437 0.39012 0.55132 0.0
H1112 H 0.14466 0.32233 0.44573 0.0
H1113 H 0.14683 0.29789 0.41179 0.0
H1114 H 0.10136 0.25698 0.4461 0.0
H1115 H 0.09903 0.28167 0.47952 0.0
H1116 H 0.11712 0.45841 0.54237 0.0
H1117 H 0.1115 0.4858 0.57255 0.0
H1118 H 0.17831 0.4859 0.58816 0.0
H1119 H 0.18383 0.45849 0.55817 0.0
Pr1120 Pr 0.40251 0.62477 0.29341 0.0
Pr1121 Pr 0.35564 0.61651 0.28566 0.0
C1122 C 0.43953 0.63847 0.3122 0.0
C1123 C 0.45402 0.63565 0.33297 0.0
C1124 C 0.46608 0.61716 0.33595 0.0
C1125 C 0.48061 0.61537 0.35478 0.0
C1126 C 0.48353 0.632 0.37119 0.0
C1127 C 0.47128 0.6504 0.36829 0.0
C1128 C 0.45678 0.6522 0.34943 0.0
C1129 C 0.39427 0.58439 0.27511 0.0
C1130 C 0.37485 0.59879 0.33596 0.0
C1131 C 0.31614 0.60572 0.27192 0.0
C1132 C 0.29942 0.60974 0.25415 0.0
C1133 C 0.27867 0.60377 0.25956 0.0
C1134 C 0.26247 0.60679 0.24294 0.0
C1135 C 0.26666 0.61583 0.22045 0.0
C1136 C 0.2875 0.62217 0.21525 0.0
C1137 C 0.30374 0.61915 0.23198 0.0
C1138 C 0.36418 0.65389 0.31024 0.0
C1139 C 0.38452 0.63366 0.23897 0.0
O1140 O 0.4214 0.64775 0.3161 0.0
O1141 O 0.43822 0.62331 0.2964 0.0
O1142 O 0.38347 0.59382 0.29071 0.0
O1143 O 0.41064 0.59561 0.26907 0.0
O1144 O 0.35966 0.5963 0.32007 0.0
O1145 O 0.3918 0.61029 0.33092 0.0
O1146 O 0.3331 0.59581 0.26471 0.0
O1147 O 0.32012 0.62075 0.28722 0.0
O1148 O 0.37436 0.64778 0.29192 0.0
O1149 O 0.34883 0.64112 0.31526 0.0
O1150 O 0.40049 0.63768 0.25362 0.0
O1151 O 0.36693 0.62503 0.24698 0.0
H1152 H 0.46455 0.60415 0.32353 0.0
H1153 H 0.48993 0.60108 0.35609 0.0
H1154 H 0.47283 0.66346 0.38065 0.0
H1155 H 0.44784 0.66671 0.34755 0.0
H1156 H 0.275 0.59662 0.27666 0.0
H1157 H 0.2466 0.60207 0.24776 0.0
H1158 H 0.29136 0.62902 0.19806 0.0
H1159 H 0.31967 0.62395 0.22753 0.0
Pr1160 Pr 0.13437 0.65274 0.04382 0.0
Pr1161 Pr 0.14238 0.60597 0.03616 0.0
C1162 C 0.12081 0.69036 0.06122 0.0
C1163 C 0.12247 0.7046 0.08205 0.0
C1164 C 0.11045 0.7232 0.08249 0.0
C1165 C 0.11174 0.7371 0.10189 0.0
C1166 C 0.12512 0.73272 0.1214 0.0
C1167 C 0.13703 0.71387 0.12096 0.0
C1168 C 0.13571 0.69996 0.10148 0.0
C1169 C 0.17487 0.64396 0.02611 0.0
C1170 C 0.1594 0.62471 0.08691 0.0
C1171 C 0.15295 0.56677 1.0213 0.0
C1172 C 0.1493 0.55126 1.00192 0.0
C1173 C 0.12931 0.54225 0.99788 0.0
C1174 C 0.12662 0.52663 0.98042 0.0
C1175 C 0.14383 0.51973 0.9666 0.0
C1176 C 0.16374 0.52895 0.97056 0.0
C1177 C 0.16644 0.54447 0.98804 0.0
C1178 C 0.10508 0.61427 0.06075 0.0
C1179 C 0.12548 0.63504 0.98941 0.0
O1180 O 0.11073 0.67257 0.06437 0.0
O1181 O 0.13745 0.68834 0.04762 0.0
O1182 O 0.16518 0.63358 0.04184 0.0
O1183 O 0.16358 0.65995 1.01892 0.0
O1184 O 0.16193 0.60951 0.07106 0.0
O1185 O 0.1481 0.64179 0.08169 0.0
O1186 O 0.16411 0.58358 1.01619 0.0
O1187 O 0.13742 0.57061 0.03604 0.0
O1188 O 0.11116 0.62471 0.04255 0.0
O1189 O 0.11779 0.5988 0.06554 0.0
O1190 O 0.12156 0.651 1.00404 0.0
O1191 O 0.1341 0.61743 0.99742 0.0
H1192 H 0.10013 0.72709 0.06767 0.0
H1193 H 0.1026 0.75154 0.1013 0.0
H1194 H 0.14733 0.7098 0.13571 0.0
H1195 H 0.14503 0.68562 0.10155 0.0
H1196 H 0.11576 0.5471 1.00831 0.0
H1197 H 0.11103 0.52002 0.97767 0.0
H1198 H 0.1774 0.52382 0.9605 0.0
H1199 H 0.18205 0.55096 0.99096 0.0
Pr1200 Pr 0.10678 0.38457 0.79431 0.0
Pr1201 Pr 0.15355 0.39303 0.78583 0.0
C1202 C 0.0699 0.3709 0.81338 0.0
C1203 C 0.05541 0.37386 0.83405 0.0
C1204 C 0.04368 0.39254 0.83707 0.0
C1205 C 0.02917 0.39445 0.85586 0.0
C1206 C 0.02596 0.37776 0.87218 0.0
C1207 C 0.0379 0.35918 0.86924 0.0
C1208 C 0.05238 0.35726 0.85042 0.0
C1209 C 0.11506 0.42543 0.77721 0.0
C1210 C 0.13536 0.40924 0.83716 0.0
C1211 C 0.1922 0.40451 0.77008 0.0
C1212 C 0.20814 0.40055 0.75127 0.0
C1213 C 0.21612 0.38021 0.74674 0.0
C1214 C 0.23235 0.37724 0.73006 0.0
C1215 C 0.24097 0.39455 0.7176 0.0
C1216 C 0.23256 0.41479 0.72183 0.0
C1217 C 0.2164 0.41774 0.7385 0.0
C1218 C 0.14561 0.35492 0.80905 0.0
C1219 C 0.12402 0.37555 0.73983 0.0
O1220 O 0.08811 0.36184 0.81754 0.0
O1221 O 0.07106 0.38585 0.79726 0.0
O1222 O 0.12579 0.41549 0.79245 0.0
O1223 O 0.09885 0.4143 0.77041 0.0
O1224 O 0.15038 0.41198 0.82114 0.0
O1225 O 0.1182 0.39807 0.83202 0.0
O1226 O 0.17489 0.41439 0.76388 0.0
O1227 O 0.18908 0.38974 0.78605 0.0
O1228 O 0.13491 0.3617 0.79139 0.0
O1229 O 0.16134 0.36728 0.81391 0.0
O1230 O 0.10833 0.37138 0.75475 0.0
O1231 O 0.14154 0.38461 0.74742 0.0
H1232 H 0.04546 0.4056 0.82472 0.0
H1233 H 0.02008 0.40889 0.85722 0.0
H1234 H 0.03614 0.34608 0.88154 0.0
H1235 H 0.06109 0.34262 0.84851 0.0
H1236 H 0.21007 0.36663 0.75634 0.0
H1237 H 0.23851 0.36146 0.72741 0.0
H1238 H 0.23846 0.42843 0.71224 0.0
H1239 H 0.21052 0.43357 0.74166 0.0
Pr1240 Pr 0.37531 0.35536 0.54411 0.0
Pr1241 Pr 0.36663 0.40216 0.53548 0.0
C1242 C 0.38939 0.31871 0.56352 0.0
C1243 C 0.38631 0.3041 0.5841 0.0
C1244 C 0.36781 0.29203 0.58666 0.0
C1245 C 0.36582 0.27742 0.6054 0.0
C1246 C 0.38225 0.27445 0.62209 0.0
C1247 C 0.40065 0.28673 0.61959 0.0
C1248 C 0.40265 0.30131 0.60083 0.0
C1249 C 0.33476 0.36314 0.52594 0.0
C1250 C 0.34947 0.3836 0.58632 0.0
C1251 C 0.35537 0.44096 0.51979 0.0
C1252 C 0.35923 0.45686 0.50086 0.0
C1253 C 0.3795 0.46502 0.49635 0.0
C1254 C 0.38235 0.48127 0.47962 0.0
C1255 C 0.36501 0.48973 0.46708 0.0
C1256 C 0.34486 0.48112 0.47126 0.0
C1257 C 0.34201 0.46495 0.48799 0.0
C1258 C 0.40425 0.39431 0.55984 0.0
C1259 C 0.38453 0.37284 0.48956 0.0
O1260 O 0.39795 0.3371 0.56791 0.0
O1261 O 0.37475 0.3196 0.54702 0.0
O1262 O 0.34428 0.3742 0.54122 0.0
O1263 O 0.34597 0.34665 0.52021 0.0
O1264 O 0.34697 0.39873 0.57032 0.0
O1265 O 0.36083 0.36652 0.58141 0.0
O1266 O 0.34521 0.42375 0.51384 0.0
O1267 O 0.3703 0.43768 0.5355 0.0
O1268 O 0.398 0.38371 0.54188 0.0
O1269 O 0.39156 0.40982 0.5645 0.0
O1270 O 0.38854 0.35705 0.50449 0.0
O1271 O 0.37554 0.39039 0.49715 0.0
H1272 H 0.35496 0.29362 0.57402 0.0
H1273 H 0.35153 0.26807 0.60641 0.0
H1274 H 0.41354 0.28515 0.63219 0.0
H1275 H 0.41715 0.31029 0.59927 0.0
H1276 H 0.3931 0.45912 0.50603 0.0
H1277 H 0.39807 0.48758 0.47699 0.0
H1278 H 0.3312 0.48691 0.46161 0.0
H1279 H 0.32624 0.45894 0.49113 0.0
H1280 H 0.24865 0.14889 0.18455 0.0
H1281 H 0.27078 0.0871 0.20584 0.0
H1282 H 0.27736 0.15135 0.15557 0.0
H1283 H 0.29933 0.08953 0.17687 0.0
H1284 H 0.32743 0.09029 0.10082 0.0
H1285 H 0.30241 0.08885 0.13364 0.0
H1286 H 0.31604 0.15395 0.15074 0.0
H1287 H 0.34103 0.15552 0.11746 0.0
C1288 C 0.25976 0.13594 0.18328 0.0
C1289 C 0.25721 0.1177 0.19739 0.0
C1290 C 0.27626 0.13737 0.16668 0.0
C1291 C 0.29061 0.12059 0.16378 0.0
C1292 C 0.28836 0.1026 0.17832 0.0
C1293 C 0.27192 0.10118 0.1949 0.0
C1294 C 0.32534 0.10426 0.11173 0.0
C1295 C 0.33624 0.12304 0.10643 0.0
C1296 C 0.31102 0.10339 0.13066 0.0
C1297 C 0.30712 0.1213 0.14481 0.0
C1298 C 0.31849 0.13994 0.14001 0.0
C1299 C 0.33297 0.14077 0.12108 0.0
H1300 H 0.10408 0.09278 0.36892 0.0
H1301 H 0.16859 0.07819 0.35006 0.0
H1302 H 0.10636 0.06809 0.40254 0.0
H1303 H 0.17069 0.05342 0.38308 0.0
H1304 H 0.17492 0.02332 0.45582 0.0
H1305 H 0.17172 0.05102 0.42589 0.0
H1306 H 0.10866 0.02972 0.40907 0.0
H1307 H 0.11155 1.00241 0.43983 0.0
C1308 C 0.1188 0.08453 0.37207 0.0
C1309 C 0.13614 0.0875 0.35675 0.0
C1310 C 0.12004 0.07021 0.3912 0.0
C1311 C 0.13869 0.05868 0.39549 0.0
C1312 C 0.15616 0.06218 0.38055 0.0
C1313 C 0.15491 0.07637 0.36148 0.0
C1314 C 0.16024 0.02468 0.44601 0.0
C1315 C 0.14349 0.01059 0.45031 0.0
C1316 C 0.15848 0.04047 0.42863 0.0
C1317 C 0.13995 0.04261 0.41498 0.0
C1318 C 0.12309 0.02868 0.41941 0.0
C1319 C 0.12485 0.01283 0.43683 0.0
H1320 H 0.26063 0.86105 0.68848 0.0
H1321 H 0.23794 0.9229 0.70855 0.0
H1322 H 0.23308 0.85882 0.65796 0.0
H1323 H 0.21 0.92027 0.67892 0.0
H1324 H 0.18227 0.92042 0.60349 0.0
H1325 H 0.2072 0.92145 0.63633 0.0
H1326 H 0.19485 0.85565 0.65136 0.0
H1327 H 0.16999 0.85447 0.6178 0.0
C1328 C 0.24976 0.87415 0.68645 0.0
C1329 C 0.25159 0.89218 0.70099 0.0
C1330 C 0.23378 0.87274 0.66916 0.0
C1331 C 0.21928 0.88936 0.66594 0.0
C1332 C 0.22099 0.90725 0.6807 0.0
C1333 C 0.23692 0.90866 0.69791 0.0
C1334 C 0.18464 0.90617 0.61389 0.0
C1335 C 0.17411 0.88734 0.60792 0.0
C1336 C 0.19892 0.9068 0.63287 0.0
C1337 C 0.20311 0.88863 0.64654 0.0
C1338 C 0.19218 0.86988 0.64102 0.0
C1339 C 0.17776 0.86925 0.62196 0.0
H1340 H 0.34202 0.9275 0.8552 0.0
H1341 H 0.40951 0.9218 0.86432 0.0
H1342 H 0.34054 0.95243 0.8881 0.0
H1343 H 0.40798 0.94684 0.89768 0.0
H1344 H 0.39683 0.0142 0.93125 0.0
H1345 H 0.40073 0.98538 0.90256 0.0
H1346 H 0.345 0.95546 0.93129 0.0
H1347 H 0.34117 0.98406 0.96001 0.0
C1348 C 0.35654 0.93133 0.86447 0.0
C1349 C 0.37589 0.92266 0.85707 0.0
C1350 C 0.35567 0.94559 0.88345 0.0
C1351 C 0.37415 0.9517 0.89552 0.0
C1352 C 0.39348 0.9426 0.8886 0.0
C1353 C 0.39433 0.92811 0.86965 0.0
C1354 C 0.38559 1.00132 0.93169 0.0
C1355 C 0.36852 1.00164 0.94777 0.0
C1356 C 0.38785 0.98477 0.91526 0.0
C1357 C 0.37308 0.96818 0.9145 0.0
C1358 C 0.35644 0.96817 0.9311 0.0
C1359 C 0.35421 0.98464 0.94751 0.0
H1360 H 0.33985 0.853 0.42831 0.0
H1361 H 0.33297 0.9203 0.43837 0.0
H1362 H 0.31343 0.85421 0.39635 0.0
H1363 H 0.30704 0.92154 0.40643 0.0
H1364 H 0.24256 0.91268 0.37308 0.0
H1365 H 0.27086 0.91004 0.40233 0.0
H1366 H 0.30456 0.86723 0.35599 0.0
H1367 H 0.27606 0.86985 0.32659 0.0
C1368 C 0.33307 0.8681 0.42339 0.0
C1369 C 0.3384 0.88652 0.43607 0.0
C1370 C 0.31789 0.86879 0.40509 0.0
C1371 C 0.30779 0.88792 0.39912 0.0
C1372 C 0.31406 0.90645 0.41096 0.0
C1373 C 0.3291 0.90575 0.42919 0.0
C1374 C 0.25604 0.9028 0.36902 0.0
C1375 C 0.25708 0.89164 0.34736 0.0
C1376 C 0.27233 0.9013 0.38579 0.0
C1377 C 0.29018 0.88865 0.3814 0.0
C1378 C 0.29102 0.87704 0.36001 0.0
C1379 C 0.27466 0.87853 0.34317 0.0
H1380 H 0.33321 0.01817 0.59291 0.0
H1381 H 0.39866 1.002 0.60473 0.0
H1382 H 0.33566 0.04555 0.62321 0.0
H1383 H 0.40086 0.02892 0.63589 0.0
H1384 H 0.40261 0.09193 0.67642 0.0
H1385 H 0.40072 0.06711 0.64298 0.0
H1386 H 0.33844 0.048 0.66578 0.0
H1387 H 0.34011 0.0729 0.6986 0.0
C1388 C 0.34818 0.02048 0.60191 0.0
C1389 C 0.36574 0.00782 0.59629 0.0
C1390 C 0.34952 0.03608 0.61951 0.0
C1391 C 0.36845 0.03947 0.6321 0.0
C1392 C 0.38609 0.02693 0.6264 0.0
C1393 C 0.38475 0.01127 0.60875 0.0
C1394 C 0.38841 0.08264 0.67407 0.0
C1395 C 0.37152 0.08447 0.69025 0.0
C1396 C 0.38741 0.06825 0.65504 0.0
C1397 C 0.36945 0.05546 0.65168 0.0
C1398 C 0.35241 0.05773 0.66755 0.0
C1399 C 0.35343 0.07201 0.68652 0.0
H1400 H 0.16739 0.15696 0.92856 0.0
H1401 H 0.17681 0.09041 0.94204 0.0
H1402 H 0.19243 0.15517 0.89531 0.0
H1403 H 0.20183 0.0887 0.90924 0.0
H1404 H 0.23379 0.08766 0.83744 0.0
H1405 H 0.20497 0.09109 0.86593 0.0
H1406 H 0.23115 0.15007 0.89083 0.0
H1407 H 0.26016 0.14658 0.86236 0.0
C1408 C 0.17451 0.1419 0.92422 0.0
C1409 C 0.17009 0.12384 0.93799 0.0
C1410 C 0.18902 0.14092 0.90532 0.0
C1411 C 0.19922 0.12181 0.89965 0.0
C1412 C 0.19413 0.10363 0.9129 0.0
C1413 C 0.17982 0.10464 0.93182 0.0
C1414 C 0.2335 0.10133 0.84905 0.0
C1415 C 0.2495 0.1167 0.84778 0.0
C1416 C 0.2169 0.10333 0.86534 0.0
C1417 C 0.21579 0.12078 0.88079 0.0
C1418 C 0.23139 0.13654 0.87901 0.0
C1419 C 0.24805 0.13451 0.86271 0.0
H1420 H 0.16798 0.93109 0.19099 0.0
H1421 H 0.10223 0.91755 0.17722 0.0
H1422 H 0.16791 0.9571 0.15906 0.0
H1423 H 0.10217 0.94391 0.14513 0.0
H1424 H 0.11816 0.98173 0.07545 0.0
H1425 H 0.11704 0.95328 0.10508 0.0
H1426 H 0.15215 0.99222 0.15439 0.0
H1427 H 0.15378 0.02031 0.12469 0.0
C1428 C 0.15352 0.93349 0.18099 0.0
C1429 C 0.13505 0.92231 0.18685 0.0
C1430 C 0.15346 0.94856 0.16278 0.0
C1431 C 0.13494 0.9529 0.14985 0.0
C1432 C 0.1167 0.94095 0.15478 0.0
C1433 C 0.11675 0.92581 0.17314 0.0
C1434 C 0.12567 0.98418 0.09261 0.0
C1435 C 0.13614 1.0033 0.09764 0.0
C1436 C 0.12488 0.96794 0.10964 0.0
C1437 C 0.13469 0.97039 0.132 0.0
C1438 C 0.14473 0.98967 0.13719 0.0
C1439 C 0.14543 0.0059 0.12026 0.0
H1440 H 0.758 0.86009 0.85617 0.0
H1441 H 0.73236 0.92001 0.83313 0.0
H1442 H 0.7301 0.85713 0.886 0.0
H1443 H 0.70399 0.91657 0.86214 0.0
H1444 H 0.6763 0.91728 0.93817 0.0
H1445 H 0.70042 0.91898 0.90459 0.0
H1446 H 0.69256 0.85201 0.89287 0.0
H1447 H 0.66863 0.85018 0.92705 0.0
C1448 C 0.74636 0.87258 0.85732 0.0
C1449 C 0.7476 0.89036 0.84225 0.0
C1450 C 0.73016 0.87074 0.87425 0.0
C1451 C 0.71476 0.88664 0.87659 0.0
C1452 C 0.71569 0.90413 0.86109 0.0
C1453 C 0.73187 0.90598 0.8442 0.0
C1454 C 0.67944 0.9029 0.92831 0.0
C1455 C 0.67051 0.88356 0.93548 0.0
C1456 C 0.69326 0.90392 0.90889 0.0
C1457 C 0.69858 0.88562 0.896 0.0
C1458 C 0.68906 0.86637 0.90258 0.0
C1459 C 0.67515 0.86536 0.92206 0.0
H1460 H 0.88847 0.98303 0.57821 0.0
H1461 H 0.8469 0.01855 0.62426 0.0
H1462 H 0.8904 0.95497 0.6081 0.0
H1463 H 0.84951 0.99096 0.65446 0.0
H1464 H 0.83997 0.92977 0.69391 0.0
H1465 H 0.83789 0.95529 0.6615 0.0
H1466 H 0.9044 0.94688 0.64749 0.0
H1467 H 0.90645 0.92095 0.67974 0.0
C1468 C 0.87975 0.98489 0.5947 0.0
C1469 C 0.86746 1.00309 0.59873 0.0
C1470 C 0.88103 0.96886 0.61196 0.0
C1471 C 0.87 0.97058 0.63368 0.0
C1472 C 0.85794 0.9889 0.6378 0.0
C1473 C 0.85668 1.00491 0.62058 0.0
C1474 C 0.85414 0.9331 0.68376 0.0
C1475 C 0.87341 0.9233 0.6896 0.0
C1476 C 0.85297 0.94794 0.66526 0.0
C1477 C 0.87104 0.95346 0.65207 0.0
C1478 C 0.89013 0.94298 0.65718 0.0
C1479 C 0.89131 0.92807 0.67572 0.0
H1480 H 0.77451 0.1367 0.3261 0.0
H1481 H 0.73957 0.09663 0.37446 0.0
H1482 H 0.80285 0.13974 0.35564 0.0
H1483 H 0.76771 0.09969 0.40386 0.0
H1484 H 0.82927 0.08917 0.44092 0.0
H1485 H 0.80361 0.08736 0.40873 0.0
H1486 H 0.81158 0.15413 0.39547 0.0
H1487 H 0.83773 0.15588 0.42767 0.0
C1488 C 0.77277 0.12873 0.34311 0.0
C1489 C 0.75485 0.11625 0.34782 0.0
C1490 C 0.78903 0.13046 0.36002 0.0
C1491 C 0.78771 0.11972 0.38199 0.0
C1492 C 0.76952 0.10773 0.38688 0.0
C1493 C 0.75334 0.106 0.37003 0.0
C1494 C 0.8258 0.10345 0.43098 0.0
C1495 C 0.83545 0.12271 0.43702 0.0
C1496 C 0.81093 0.10244 0.41262 0.0
C1497 C 0.80518 0.12068 0.39982 0.0
C1498 C 0.81564 0.13977 0.40497 0.0
C1499 C 0.83065 0.14078 0.4234 0.0
H1500 H 0.62107 0.02466 0.07418 0.0
H1501 H 0.66549 0.99219 0.11983 0.0
H1502 H 0.61718 0.0524 0.10438 0.0
H1503 H 0.6615 0.01954 0.14989 0.0
H1504 H 0.66919 0.08056 0.1883 0.0
H1505 H 0.67143 0.05562 0.15551 0.0
H1506 H 0.60407 0.06046 0.14466 0.0
H1507 H 0.60191 0.08604 0.17743 0.0
C1508 C 0.62984 0.02333 0.09073 0.0
C1509 C 0.64382 0.00633 0.09443 0.0
C1510 C 0.62761 0.03923 0.10805 0.0
C1511 C 0.63928 0.03844 0.12946 0.0
C1512 C 0.65271 0.02105 0.13336 0.0
C1513 C 0.65498 0.00529 0.11612 0.0
C1514 C 0.65485 0.07653 0.17879 0.0
C1515 C 0.63534 0.08518 0.18566 0.0
C1516 C 0.65611 0.06205 0.16006 0.0
C1517 C 0.63787 0.0556 0.14771 0.0
C1518 C 0.61845 0.06505 0.15375 0.0
C1519 C 0.6172 0.07973 0.17253 0.0
H1520 H 0.73149 0.1413 0.71638 0.0
H1521 H 0.76618 0.09971 0.66955 0.0
H1522 H 0.70313 0.14366 0.68678 0.0
H1523 H 0.738 0.10209 0.64011 0.0
H1524 H 0.67625 0.09085 0.60363 0.0
H1525 H 0.70205 0.08983 0.63572 0.0
H1526 H 0.69433 0.15695 0.64647 0.0
H1527 H 0.66804 0.15793 0.61435 0.0
C1528 C 0.73318 0.13285 0.69968 0.0
C1529 C 0.75105 0.12015 0.69544 0.0
C1530 C 0.7169 0.13418 0.68274 0.0
C1531 C 0.71813 0.12283 0.66119 0.0
C1532 C 0.73626 0.11061 0.65676 0.0
C1533 C 0.75246 0.10927 0.67364 0.0
C1534 C 0.67981 0.10539 0.61299 0.0
C1535 C 0.67018 0.1245 0.60626 0.0
C1536 C 0.69477 0.10483 0.6313 0.0
C1537 C 0.70061 0.12338 0.64337 0.0
C1538 C 0.69018 0.14236 0.63754 0.0
C1539 C 0.67509 0.14292 0.61916 0.0
H1540 H 0.62012 0.9827 0.46752 0.0
H1541 H 0.6572 0.01996 0.41833 0.0
H1542 H 0.61789 0.95438 0.43789 0.0
H1543 H 0.65502 0.99179 0.38891 0.0
H1544 H 0.66872 0.93056 0.35233 0.0
H1545 H 0.66939 0.95639 0.38431 0.0
H1546 H 0.60323 0.94515 0.39792 0.0
H1547 H 0.60259 0.91886 0.3658 0.0
C1548 C 0.62759 0.98495 0.45031 0.0
C1549 C 0.63903 1.00354 0.4454 0.0
C1550 C 0.62633 0.96871 0.43336 0.0
C1551 C 0.63652 0.97068 0.41116 0.0
C1552 C 0.64743 0.98951 0.40606 0.0
C1553 C 0.64867 0.00569 0.42293 0.0
C1554 C 0.65432 0.93336 0.36225 0.0
C1555 C 0.63554 0.92275 0.35631 0.0
C1556 C 0.65468 0.94833 0.38051 0.0
C1557 C 0.63627 0.95318 0.39336 0.0
C1558 C 0.61769 0.94179 0.38834 0.0
C1559 C 0.61733 0.92671 0.36996 0.0
H1560 H 0.84251 0.85583 0.11864 0.0
H1561 H 0.82913 0.92122 0.10221 0.0
H1562 H 0.81646 0.85693 0.15086 0.0
H1563 H 0.80348 0.92234 0.13442 0.0
H1564 H 0.74087 0.90977 0.17096 0.0
H1565 H 0.76855 0.90764 0.14093 0.0
H1566 H 0.80766 0.87237 0.19008 0.0
H1567 H 0.77958 0.87388 0.21996 0.0
C1568 C 0.83433 0.87053 0.12215 0.0
C1569 C 0.83781 0.88838 0.10768 0.0
C1570 C 0.81938 0.87116 0.14062 0.0
C1571 C 0.80762 0.88963 0.14497 0.0
C1572 C 0.81188 0.90771 0.1312 0.0
C1573 C 0.82675 0.9071 0.11282 0.0
C1574 C 0.75523 0.90131 0.1753 0.0
C1575 C 0.75796 0.89202 0.19792 0.0
C1576 C 0.77125 0.90032 0.15817 0.0
C1577 C 0.79045 0.89003 0.16317 0.0
C1578 C 0.79306 0.88037 0.18561 0.0
C1579 C 0.77703 0.88141 0.20281 0.0
H1580 H 0.83795 0.08382 0.85483 0.0
H1581 H 0.90493 0.09239 0.8657 0.0
H1582 H 0.83716 0.05782 0.88678 0.0
H1583 H 0.90419 0.06593 0.89764 0.0
H1584 H 0.88919 0.02789 0.96701 0.0
H1585 H 0.89112 0.05664 0.93782 0.0
H1586 H 0.84971 0.02189 0.89078 0.0
H1587 H 0.84777 0.99334 0.91982 0.0
C1588 C 0.8525 0.08032 0.86421 0.0
C1589 C 0.87153 0.0901 0.85755 0.0
C1590 C 0.85208 0.06525 0.88243 0.0
C1591 C 0.87068 0.05944 0.89447 0.0
C1592 C 0.88956 0.07004 0.88874 0.0
C1593 C 0.88998 0.08524 0.87046 0.0
C1594 C 0.88068 0.02632 0.95032 0.0
C1595 C 0.86816 0.00837 0.94586 0.0
C1596 C 0.88177 0.04282 0.93361 0.0
C1597 C 0.87033 0.04174 0.91208 0.0
C1598 C 0.85828 0.02353 0.90743 0.0
C1599 C 0.85719 0.00711 0.92407 0.0
H1600 H 0.74659 0.64636 0.68479 0.0
H1601 H 0.77463 0.58815 0.7098 0.0
H1602 H 0.77511 0.65031 0.65575 0.0
H1603 H 0.80292 0.59203 0.68071 0.0
H1604 H 0.82976 0.59144 0.60403 0.0
H1605 H 0.80523 0.58948 0.63728 0.0
H1606 H 0.81377 0.65613 0.65053 0.0
H1607 H 0.83838 0.65818 0.61682 0.0
C1608 C 0.75896 0.63455 0.68434 0.0
C1609 C 0.75812 0.61679 0.69948 0.0
C1610 C 0.77533 0.63684 0.6677 0.0
C1611 C 0.79123 0.62141 0.66578 0.0
C1612 C 0.79074 0.60402 0.68142 0.0
C1613 C 0.77444 0.60176 0.69806 0.0
C1614 C 0.82665 0.60567 0.61417 0.0
C1615 C 0.83601 0.62498 0.60769 0.0
C1616 C 0.81263 0.60451 0.63335 0.0
C1617 C 0.80747 0.62265 0.64656 0.0
C1618 C 0.81727 0.64191 0.64056 0.0
C1619 C 0.8315 0.64304 0.62139 0.0
H1620 H 0.60313 0.58953 0.8685 0.0
H1621 H 0.6684 0.57623 0.85192 0.0
H1622 H 0.60515 0.56523 0.90257 0.0
H1623 H 0.67027 0.55192 0.88536 0.0
H1624 H 0.67384 0.52281 0.95838 0.0
H1625 H 0.6703 0.55032 0.92829 0.0
H1626 H 0.60841 0.52681 0.90983 0.0
H1627 H 0.61161 0.49964 0.94074 0.0
C1628 C 0.61795 0.58166 0.87225 0.0
C1629 C 0.63559 0.58486 0.85744 0.0
C1630 C 0.61905 0.56757 0.89164 0.0
C1631 C 0.63786 0.55655 0.89671 0.0
C1632 C 0.6556 0.56028 0.88224 0.0
C1633 C 0.65447 0.5742 0.86291 0.0
C1634 C 0.65931 0.52365 0.94821 0.0
C1635 C 0.64301 0.50894 0.95206 0.0
C1636 C 0.65737 0.53934 0.93074 0.0
C1637 C 0.63911 0.54077 0.91652 0.0
C1638 C 0.62262 0.5263 0.92059 0.0
C1639 C 0.62457 0.51054 0.93811 0.0
H1640 H 0.67284 0.35164 0.11789 0.0
H1641 H 0.6819 0.41851 0.10648 0.0
H1642 H 0.69831 0.35262 0.15083 0.0
H1643 H 0.70672 0.41962 0.13952 0.0
H1644 H 0.76903 0.41095 0.17701 0.0
H1645 H 0.742 0.40825 0.14635 0.0
H1646 H 0.7067 0.36513 0.19091 0.0
H1647 H 0.73417 0.36765 0.22166 0.0
C1648 C 0.67993 0.36661 0.12268 0.0
C1649 C 0.67546 0.38495 0.10936 0.0
C1650 C 0.69455 0.36718 0.14158 0.0
C1651 C 0.70493 0.38613 0.14761 0.0
C1652 C 0.69955 0.40461 0.13501 0.0
C1653 C 0.68513 0.40401 0.11613 0.0
C1654 C 0.75547 0.40096 0.18036 0.0
C1655 C 0.75367 0.38972 0.20194 0.0
C1656 C 0.73988 0.39945 0.16277 0.0
C1657 C 0.7219 0.38675 0.16623 0.0
C1658 C 0.72034 0.37501 0.18756 0.0
C1659 C 0.73608 0.37645 0.2052 0.0
H1660 H 0.88835 0.48596 0.46607 0.0
H1661 H 0.84605 0.52092 0.42011 0.0
H1662 H 0.89095 0.45821 0.43602 0.0
H1663 H 0.84927 0.49356 0.38973 0.0
H1664 H 0.84198 0.43172 0.34996 0.0
H1665 H 0.83882 0.45738 0.38214 0.0
H1666 H 0.90553 0.45142 0.39671 0.0
H1667 H 0.90866 0.42546 0.3648 0.0
C1668 C 0.8796 0.48775 0.44956 0.0
C1669 C 0.86695 0.50571 0.44559 0.0
C1670 C 0.88125 0.4719 0.43222 0.0
C1671 C 0.87026 0.47355 0.41044 0.0
C1672 C 0.85773 0.49158 0.40641 0.0
C1673 C 0.85611 0.50744 0.42373 0.0
C1674 C 0.85596 0.43565 0.36019 0.0
C1675 C 0.8756 0.42649 0.35466 0.0
C1676 C 0.85417 0.45055 0.37853 0.0
C1677 C 0.87196 0.4567 0.39189 0.0
C1678 C 0.89146 0.44699 0.38693 0.0
C1679 C 0.89326 0.4321 0.36855 0.0
H1680 H 0.77802 0.37598 0.82771 0.0
H1681 H 0.73784 0.40762 0.87869 0.0
H1682 H 0.80613 0.37409 0.85759 0.0
H1683 H 0.76584 0.40576 0.90842 0.0
H1684 H 0.82586 0.42018 0.9479 0.0
H1685 H 0.80003 0.42152 0.91585 0.0
H1686 H 0.81597 0.35759 0.8959 0.0
H1687 H 0.84224 0.35632 0.92797 0.0
C1688 C 0.77509 0.38234 0.84535 0.0
C1689 C 0.75567 0.39209 0.85071 0.0
C1690 C 0.79123 0.38127 0.86247 0.0
C1691 C 0.78837 0.38997 0.88535 0.0
C1692 C 0.76881 0.39933 0.89082 0.0
C1693 C 0.75271 0.40039 0.87375 0.0
C1694 C 0.82408 0.40644 0.93657 0.0
C1695 C 0.83607 0.38808 0.94068 0.0
C1696 C 0.8091 0.40716 0.91827 0.0
C1697 C 0.80562 0.38954 0.90352 0.0
C1698 C 0.81827 0.37147 0.90689 0.0
C1699 C 0.83333 0.37074 0.92528 0.0
H1700 H 0.90678 0.59235 0.17963 0.0
H1701 H 0.83985 0.58333 0.19029 0.0
H1702 H 0.90581 0.56752 0.14607 0.0
H1703 H 0.83893 0.5586 0.15714 0.0
H1704 H 0.83985 0.52693 0.08531 0.0
H1705 H 0.84288 0.55589 0.11371 0.0
H1706 H 0.90027 0.52855 0.14172 0.0
H1707 H 0.89716 0.49937 0.11338 0.0
C1708 C 0.89182 0.58539 0.17457 0.0
C1709 C 0.8734 0.58978 0.18766 0.0
C1710 C 0.89131 0.57102 0.15551 0.0
C1711 C 0.87231 0.56101 0.14899 0.0
C1712 C 0.85378 0.56616 0.1615 0.0
C1713 C 0.85434 0.58029 0.18061 0.0
C1714 C 0.85309 0.52701 0.09757 0.0
C1715 C 0.8681 0.51061 0.09726 0.0
C1716 C 0.85487 0.54368 0.11379 0.0
C1717 C 0.87174 0.54448 0.13009 0.0
C1718 C 0.8872 0.52853 0.12923 0.0
C1719 C 0.88539 0.51178 0.11301 0.0
H1720 H 0.73625 0.58646 0.33846 0.0
H1721 H 0.75919 0.64837 0.35786 0.0
H1722 H 0.70843 0.58941 0.36818 0.0
H1723 H 0.73169 0.65099 0.38835 0.0
H1724 H 0.66852 0.65561 0.4284 0.0
H1725 H 0.69314 0.65407 0.3947 0.0
H1726 H 0.70645 0.58874 0.41123 0.0
H1727 H 0.68182 0.59013 0.44435 0.0
C1728 C 0.73528 0.60079 0.34894 0.0
C1729 C 0.75001 0.61718 0.34571 0.0
C1730 C 0.71942 0.60239 0.36618 0.0
C1731 C 0.71784 0.6204 0.38076 0.0
C1732 C 0.73232 0.63697 0.3773 0.0
C1733 C 0.74826 0.63536 0.36002 0.0
C1734 C 0.67646 0.64084 0.42457 0.0
C1735 C 0.67317 0.623 0.43911 0.0
C1736 C 0.69073 0.64002 0.40541 0.0
C1737 C 0.70184 0.62129 0.40027 0.0
C1738 C 0.69802 0.60335 0.41444 0.0
C1739 C 0.68392 0.60419 0.43356 0.0
H1740 H 0.6682 0.42792 0.6921 0.0
H1741 H 0.60126 0.41967 0.6807 0.0
H1742 H 0.66963 0.45271 0.65901 0.0
H1743 H 0.60276 0.4445 0.6471 0.0
H1744 H 0.61198 0.51173 0.61265 0.0
H1745 H 0.60851 0.4831 0.64172 0.0
H1746 H 0.66643 0.45544 0.61579 0.0
H1747 H 0.66984 0.48387 0.5867 0.0
C1748 C 0.65381 0.43115 0.68229 0.0
C1749 C 0.6346 0.42181 0.68912 0.0
C1750 C 0.65466 0.44533 0.66319 0.0
C1751 C 0.63631 0.45067 0.65039 0.0
C1752 C 0.61715 0.44089 0.65675 0.0
C1753 C 0.61632 0.4265 0.67584 0.0
C1754 C 0.62382 0.49938 0.61291 0.0
C1755 C 0.64134 0.5003 0.59749 0.0
C1756 C 0.6218 0.48293 0.62957 0.0
C1757 C 0.63727 0.46703 0.63122 0.0
C1758 C 0.65442 0.46762 0.6153 0.0
C1759 C 0.65641 0.484 0.59867 0.0
H1760 H 0.17962 0.41813 0.44368 0.0
H1761 H 0.17099 0.35136 0.4311 0.0
H1762 H 0.2053 0.41969 0.41158 0.0
H1763 H 0.19717 0.35288 0.39893 0.0
H1764 H 0.2344 0.37033 0.32941 0.0
H1765 H 0.20603 0.36724 0.3589 0.0
H1766 H 0.24122 0.4071 0.40721 0.0
H1767 H 0.26938 0.41019 0.37791 0.0
C1768 C 0.18307 0.40377 0.43391 0.0
C1769 C 0.17338 0.38457 0.44014 0.0
C1770 C 0.19795 0.40465 0.41559 0.0
C1771 C 0.20366 0.38633 0.40301 0.0
C1772 C 0.19314 0.36729 0.40829 0.0
C1773 C 0.17812 0.36642 0.4267 0.0
C1774 C 0.23615 0.37824 0.34645 0.0
C1775 C 0.25407 0.3907 0.3512 0.0
C1776 C 0.21988 0.37649 0.36332 0.0
C1777 C 0.22119 0.38718 0.38528 0.0
C1778 C 0.23941 0.3991 0.39024 0.0
C1779 C 0.2556 0.40086 0.37344 0.0
H1780 H 0.40641 0.41982 0.17965 0.0
H1781 H 0.34026 0.43058 0.19397 0.0
H1782 H 0.40496 0.44583 0.14721 0.0
H1783 H 0.33877 0.45609 0.1616 0.0
H1784 H 0.34931 0.51939 0.126 0.0
H1785 H 0.35211 0.49157 0.15586 0.0
H1786 H 0.39009 0.45451 0.10747 0.0
H1787 H 0.38729 0.48251 0.07744 0.0
C1788 C 0.39149 0.42741 0.17561 0.0
C1789 C 0.37351 0.42327 0.18959 0.0
C1790 C 0.39066 0.44232 0.15703 0.0
C1791 C 0.37184 0.45336 0.15209 0.0
C1792 C 0.35366 0.44833 0.16531 0.0
C1793 C 0.35449 0.43354 0.18379 0.0
C1794 C 0.35816 0.50527 0.12162 0.0
C1795 C 0.3679 0.50314 0.09921 0.0
C1796 C 0.35975 0.48928 0.13875 0.0
C1797 C 0.37109 0.47064 0.13397 0.0
C1798 C 0.38132 0.46869 0.11179 0.0
C1799 C 0.37973 0.48475 0.09459 0.0
H1800 H 0.27447 0.58982 0.83467 0.0
H1801 H 0.24811 0.64833 0.86081 0.0
H1802 H 0.30299 0.59247 0.86371 0.0
H1803 H 0.27681 0.65103 0.88982 0.0
H1804 H 0.3402 0.65706 0.92857 0.0
H1805 H 0.31539 0.656 0.89499 0.0
H1806 H 0.30606 0.58921 0.90684 0.0
H1807 H 0.33086 0.5902 0.93992 0.0
C1808 C 0.27468 0.60322 0.84668 0.0
C1809 C 0.25878 0.61873 0.84553 0.0
C1810 C 0.29111 0.60478 0.86329 0.0
C1811 C 0.29217 0.62191 0.8792 0.0
C1812 C 0.27663 0.63775 0.87765 0.0
C1813 C 0.26013 0.63617 0.86103 0.0
C1814 C 0.33315 0.6421 0.92369 0.0
C1815 C 0.33752 0.62373 0.93697 0.0
C1816 C 0.31876 0.64153 0.90461 0.0
C1817 C 0.30864 0.62254 0.89826 0.0
C1818 C 0.3137 0.60407 0.91101 0.0
C1819 C 0.32789 0.60467 0.9301 0.0
H1820 H 0.10107 0.58777 0.68077 0.0
H1821 H 0.16841 0.58197 0.69109 0.0
H1822 H 0.10269 0.56119 0.64902 0.0
H1823 H 0.17006 0.55589 0.6594 0.0
H1824 H 0.16227 0.49097 0.62715 0.0
H1825 H 0.15893 0.51944 0.65602 0.0
H1826 H 0.1161 0.55221 0.60868 0.0
H1827 H 0.11943 0.52352 0.57962 0.0
C1828 C 0.11625 0.58119 0.67595 0.0
C1829 C 0.13457 0.58685 0.68864 0.0
C1830 C 0.11719 0.56593 0.65778 0.0
C1831 C 0.13645 0.55607 0.65199 0.0
C1832 C 0.15487 0.5627 0.66381 0.0
C1833 C 0.15394 0.57782 0.6819 0.0
C1834 C 0.15222 0.50428 0.62279 0.0
C1835 C 0.1413 0.50503 0.60094 0.0
C1836 C 0.15033 0.52066 0.63934 0.0
C1837 C 0.13749 0.53831 0.63454 0.0
C1838 C 0.12606 0.53883 0.61299 0.0
C1839 C 0.12795 0.52237 0.59636 0.0
H1840 H 0.16842 0.65663 0.11881 0.0
H1841 H 0.18 0.59051 0.10493 0.0
H1842 H 0.1931 0.65522 0.15253 0.0
H1843 H 0.20472 0.58923 0.138 0.0
H1844 H 0.23513 0.58765 0.21042 0.0
H1845 H 0.20717 0.59066 0.18083 0.0
H1846 H 0.23149 0.65142 0.15899 0.0
H1847 H 0.25912 0.64879 0.1894 0.0
C1848 C 0.17598 0.64176 0.12311 0.0
C1849 C 0.1722 0.62369 0.10914 0.0
C1850 C 0.19029 0.641 0.14227 0.0
C1851 C 0.20097 0.62212 0.14796 0.0
C1852 C 0.19663 0.60397 0.13439 0.0
C1853 C 0.18247 0.60475 0.11528 0.0
C1854 C 0.23437 0.60183 0.19961 0.0
C1855 C 0.24944 0.61798 0.20237 0.0
C1856 C 0.21843 0.60346 0.18243 0.0
C1857 C 0.21708 0.62125 0.16742 0.0
C1858 C 0.23192 0.63759 0.17039 0.0
C1859 C 0.24794 0.63595 0.18761 0.0
H1860 H 0.10316 0.4195 0.8681 0.0
H1861 H 0.16989 0.42852 0.85595 0.0
H1862 H 0.10435 0.44565 0.90029 0.0
H1863 H 0.17113 0.4542 0.8881 0.0
H1864 H 0.16085 0.51831 0.92179 0.0
H1865 H 0.15833 0.49007 0.89251 0.0
H1866 H 0.11835 0.45454 0.94039 0.0
H1867 H 0.12087 0.48297 0.96986 0.0
C1868 C 0.11815 0.42669 0.87261 0.0
C1869 C 0.13639 0.42207 0.85929 0.0
C1870 C 0.11883 0.44171 0.89104 0.0
C1871 C 0.13776 0.45235 0.89646 0.0
C1872 C 0.15617 0.44675 0.88399 0.0
C1873 C 0.15549 0.43187 0.86565 0.0
C1874 C 0.15162 0.50444 0.92618 0.0
C1875 C 0.14124 0.50285 0.94829 0.0
C1876 C 0.15019 0.4882 0.90939 0.0
C1877 C 0.13838 0.46987 0.91422 0.0
C1878 C 0.12751 0.46847 0.93606 0.0
C1879 C 0.12894 0.48478 0.95292 0.0
H1880 H 0.33052 0.41829 0.60529 0.0
H1881 H 0.33906 0.35139 0.61724 0.0
H1882 H 0.30591 0.41987 0.63851 0.0
H1883 H 0.31437 0.35304 0.6509 0.0
H1884 H 0.24725 0.36238 0.68532 0.0
H1885 H 0.27569 0.35887 0.65612 0.0
H1886 H 0.30356 0.41674 0.68194 0.0
H1887 H 0.27537 0.42016 0.71121 0.0
C1888 C 0.32737 0.40394 0.61524 0.0
C1889 C 0.33675 0.38471 0.60854 0.0
C1890 C 0.31331 0.40488 0.6344 0.0
C1891 C 0.3081 0.38657 0.64736 0.0
C1892 C 0.3179 0.36739 0.64112 0.0
C1893 C 0.33219 0.36648 0.62199 0.0
C1894 C 0.25961 0.37419 0.68502 0.0
C1895 C 0.25882 0.3917 0.70048 0.0
C1896 C 0.27594 0.37216 0.66828 0.0
C1897 C 0.29184 0.38759 0.66657 0.0
C1898 C 0.29138 0.40475 0.68249 0.0
C1899 C 0.27513 0.40675 0.69923 0.0
H1900 H 0.39712 0.49631 0.43479 0.0
H1901 H 0.33916 0.52396 0.46075 0.0
H1902 H 0.4004 0.52487 0.4056 0.0
H1903 H 0.34237 0.55229 0.43151 0.0
H1904 H 0.34043 0.57946 0.35501 0.0
H1905 H 0.33916 0.5547 0.38815 0.0
H1906 H 0.40591 0.56362 0.40029 0.0
H1907 H 0.40726 0.58846 0.36666 0.0
C1908 C 0.38522 0.50859 0.4345 0.0
C1909 C 0.36773 0.50764 0.44997 0.0
C1910 C 0.38713 0.52499 0.41778 0.0
C1911 C 0.37157 0.5408 0.4161 0.0
C1912 C 0.35444 0.54018 0.43203 0.0
C1913 C 0.35256 0.52386 0.44875 0.0
C1914 C 0.35483 0.57638 0.36487 0.0
C1915 C 0.37396 0.58593 0.35812 0.0
C1916 C 0.35407 0.56223 0.384 0.0
C1917 C 0.37243 0.55711 0.39688 0.0
C1918 C 0.39152 0.56707 0.39058 0.0
C1919 C 0.39225 0.58145 0.37147 0.0
H1920 H 0.15985 0.26356 0.40152 0.0
H1921 H 0.09276 0.25173 0.40481 0.0
H1922 H 0.16339 0.23663 0.37083 0.0
H1923 H 0.09649 0.22407 0.37467 0.0
H1924 H 0.11026 0.18419 0.30627 0.0
H1925 H 0.10498 0.21498 0.3325 0.0
H1926 H 0.16185 0.19874 0.37101 0.0
H1927 H 0.16709 0.16866 0.34515 0.0
C1928 C 0.14578 0.25541 0.39556 0.0
C1929 C 0.12605 0.25983 0.40593 0.0
C1930 C 0.14785 0.23973 0.37808 0.0
C1931 C 0.13027 0.2279 0.3704 0.0
C1932 C 0.11037 0.23285 0.38003 0.0
C1933 C 0.1083 0.24857 0.39758 0.0
C1934 C 0.12161 0.18734 0.3203 0.0
C1935 C 0.13912 0.17397 0.32352 0.0
C1936 C 0.11858 0.20492 0.33539 0.0
C1937 C 0.13312 0.20955 0.3538 0.0
C1938 C 0.15055 0.19608 0.35679 0.0
C1939 C 0.15348 0.17864 0.34195 0.0
H1940 H 0.07344 0.86843 0.55164 0.0
H1941 H 0.09897 0.91111 0.60439 0.0
H1942 H 0.04375 0.86043 0.5788 0.0
H1943 H 0.06995 0.90311 0.63107 0.0
H1944 H 0.02961 0.86869 0.68385 0.0
H1945 H 0.05777 0.87151 0.6545 0.0
H1946 H 0.01175 0.88088 0.59861 0.0
H1947 H 0.98324 0.8777 0.62812 0.0
C1948 C 0.07276 0.87602 0.56895 0.0
C1949 C 0.08855 0.89042 0.57583 0.0
C1950 C 0.05577 0.87152 0.58444 0.0
C1951 C 0.05458 0.88104 0.60717 0.0
C1952 C 0.07049 0.89528 0.61387 0.0
C1953 C 0.08711 0.89996 0.59844 0.0
C1954 C 0.02536 0.87093 0.66527 0.0
C1955 C 1.00407 0.873 0.65844 0.0
C1956 C 0.04156 0.8727 0.64844 0.0
C1957 C 0.03703 0.87654 0.62422 0.0
C1958 C 0.01576 0.87782 0.61711 0.0
C1959 C 0.99945 0.87621 0.63406 0.0
H1960 H 0.39832 0.82452 0.80556 0.0
H1961 H 0.34402 0.84157 0.84793 0.0
H1962 H 0.40362 0.79312 0.83103 0.0
H1963 H 0.34931 0.81093 0.87302 0.0
H1964 H 0.34969 0.74568 0.90203 0.0
H1965 H 0.34612 0.77308 0.87183 0.0
H1966 H 0.41353 0.78303 0.87281 0.0
H1967 H 0.41727 0.75485 0.90247 0.0
C1968 C 0.38752 0.82157 0.82017 0.0
C1969 C 0.37069 0.83552 0.82458 0.0
C1970 C 0.39058 0.80366 0.83482 0.0
C1971 C 0.37672 0.79929 0.85396 0.0
C1972 C 0.36002 0.81339 0.8582 0.0
C1973 C 0.35707 0.83114 0.8438 0.0
C1974 C 0.36386 0.75332 0.89553 0.0
C1975 C 0.38376 0.74804 0.90498 0.0
C1976 C 0.36178 0.76928 0.87832 0.0
C1977 C 0.37951 0.78055 0.87004 0.0
C1978 C 0.39953 0.7747 0.87869 0.0
C1979 C 0.40163 0.75869 0.89596 0.0
H1980 H 0.42062 0.08872 0.08887 0.0
H1981 H 0.43105 0.14944 0.05568 0.0
H1982 H 0.45113 0.094 0.11428 0.0
H1983 H 0.46198 0.15489 0.08169 0.0
H1984 H 0.49741 0.1635 0.1562 0.0
H1985 H 0.46989 0.16018 0.1258 0.0
H1986 H 0.48971 0.09612 0.11204 0.0
H1987 H 0.51736 0.09945 0.14206 0.0
C1988 C 0.42954 0.10322 0.08686 0.0
C1989 C 0.42329 0.1187 0.07024 0.0
C1990 C 0.44717 0.10618 0.10143 0.0
C1991 C 0.45913 0.12482 0.10003 0.0
C1992 C 0.45303 0.14038 0.08331 0.0
C1993 C 0.43537 0.13727 0.06838 0.0
C1994 C 0.49619 0.14881 0.14642 0.0
C1995 C 0.50957 0.13166 0.15191 0.0
C1996 C 0.48037 0.14694 0.12894 0.0
C1997 C 0.47744 0.12783 0.11658 0.0
C1998 C 0.49127 0.11095 0.12149 0.0
C1999 C 0.5071 0.11284 0.13884 0.0
H2000 H 0.16944 0.83974 0.20004 0.0
H2001 H 0.11297 0.8253 0.23998 0.0
H2002 H 0.16388 0.80904 0.17517 0.0
H2003 H 0.10733 0.79394 0.2147 0.0
H2004 H 0.09407 0.75687 0.1426 0.0
H2005 H 0.09833 0.78466 0.17251 0.0
H2006 H 0.16502 0.77101 0.17637 0.0
H2007 H 0.16097 0.74392 0.14592 0.0
C2008 C 0.15585 0.82987 0.20369 0.0
C2009 C 0.14164 0.83505 0.22207 0.0
C2010 C 0.15274 0.81209 0.18943 0.0
C2011 C 0.13526 0.79881 0.19296 0.0
C2012 C 0.12094 0.80387 0.21142 0.0
C2013 C 0.12418 0.82177 0.22595 0.0
C2014 C 0.10966 0.7598 0.14981 0.0
C2015 C 0.12721 0.74822 0.14152 0.0
C2016 C 0.11204 0.77558 0.16722 0.0
C2017 C 0.13205 0.78027 0.17675 0.0
C2018 C 0.14941 0.76809 0.16919 0.0
C2019 C 0.14704 0.75233 0.15185 0.0
H2020 H 0.51521 0.91016 0.39209 0.0
H2021 H 0.50404 0.84284 0.39166 0.0
H2022 H 0.488 0.91448 0.42233 0.0
H2023 H 0.47612 0.84734 0.42136 0.0
H2024 H 0.43552 0.8633 0.48864 0.0
H2025 H 0.46671 0.85742 0.46318 0.0
H2026 H 0.45004 0.91234 0.42134 0.0
H2027 H 0.41955 0.91817 0.44642 0.0
C2028 C 0.50715 0.89621 0.3986 0.0
C2029 C 0.51182 0.87617 0.38916 0.0
C2030 C 0.49133 0.89872 0.41582 0.0
C2031 C 0.47961 0.88129 0.42414 0.0
C2032 C 0.48482 0.86111 0.41546 0.0
C2033 C 0.50068 0.85859 0.39818 0.0
C2034 C 0.43867 0.87409 0.47405 0.0
C2035 C 0.42505 0.89122 0.46964 0.0
C2036 C 0.45646 0.87072 0.45941 0.0
C2037 C 0.46106 0.88455 0.44029 0.0
C2038 C 0.44737 0.90162 0.43613 0.0
C2039 C 0.42971 0.90487 0.45051 0.0
H2040 H 0.41296 0.24802 0.64037 0.0
H2041 H 0.3471 0.26425 0.64845 0.0
H2042 H 0.40907 0.22042 0.67061 0.0
H2043 H 0.34323 0.23655 0.67835 0.0
H2044 H 0.33785 0.16789 0.70324 0.0
H2045 H 0.34326 0.19803 0.67722 0.0
H2046 H 0.40147 0.21249 0.71392 0.0
H2047 H 0.39591 0.18191 0.74042 0.0
C2048 C 0.39772 0.24596 0.64878 0.0
C2049 C 0.38029 0.25834 0.64165 0.0
C2050 C 0.39551 0.23009 0.66617 0.0
C2051 C 0.3758 0.22609 0.67681 0.0
C2052 C 0.35857 0.2389 0.67023 0.0
C2053 C 0.36078 0.25478 0.65296 0.0
C2054 C 0.35178 0.17751 0.70598 0.0
C2055 C 0.36649 0.1724 0.72393 0.0
C2056 C 0.35482 0.19494 0.69106 0.0
C2057 C 0.37273 0.20784 0.69348 0.0
C2058 C 0.38754 0.20282 0.71147 0.0
C2059 C 0.38436 0.18534 0.72668 0.0
H2060 H 0.07474 0.14988 0.98776 0.0
H2061 H 0.08648 0.0902 0.95296 0.0
H2062 H 0.04388 0.15543 0.96159 0.0
H2063 H 0.05611 0.09558 0.9274 0.0
H2064 H 0.99012 0.10029 0.89904 0.0
H2065 H 0.01752 0.09686 0.92934 0.0
H2066 H 0.03604 0.16163 0.91754 0.0
H2067 H 0.00874 0.16507 0.88687 0.0
C2068 C 0.07072 0.13795 0.97468 0.0
C2069 C 0.08315 0.11964 0.97244 0.0
C2070 C 0.0531 0.14113 0.95966 0.0
C2071 C 0.04741 0.12587 0.94244 0.0
C2072 C 0.05973 0.10751 0.94064 0.0
C2073 C 0.0773 0.10449 0.9553 0.0
C2074 C 1.00004 0.11383 0.90276 0.0
C2075 C 0.99727 0.13287 0.89014 0.0
C2076 C 0.01573 0.11188 0.92027 0.0
C2077 C 0.02914 0.12892 0.9258 0.0
C2078 C 0.02589 0.14825 0.91392 0.0
C2079 C 0.0102 0.15018 0.89628 0.0
H2080 H 0.9006 0.84438 0.71759 0.0
H2081 H 0.8395 0.81947 0.73653 0.0
H2082 H 0.90514 0.81583 0.68851 0.0
H2083 H 0.84405 0.79086 0.70796 0.0
H2084 H 0.84606 0.75967 0.63479 0.0
H2085 H 0.84371 0.7866 0.66561 0.0
H2086 H 0.90986 0.77813 0.6818 0.0
H2087 H 0.9124 0.75165 0.65019 0.0
C2088 C 0.88837 0.83253 0.71596 0.0
C2089 C 0.86972 0.83417 0.72942 0.0
C2090 C 0.89092 0.81615 0.69923 0.0
C2091 C 0.87484 0.80107 0.69557 0.0
C2092 C 0.85658 0.80237 0.7098 0.0
C2093 C 0.85405 0.8187 0.7264 0.0
C2094 C 0.86018 0.76362 0.64474 0.0
C2095 C 0.87943 0.75339 0.63984 0.0
C2096 C 0.85878 0.77894 0.66271 0.0
C2097 C 0.87657 0.78457 0.67644 0.0
C2098 C 0.89584 0.77437 0.67156 0.0
C2099 C 0.89724 0.75897 0.65357 0.0
H2100 H 1.00142 0.16618 0.39266 0.0
H2101 H 0.01398 0.09919 0.39682 0.0
H2102 H 0.97332 0.16227 0.42224 0.0
H2103 H 0.98665 0.09551 0.42699 0.0
H2104 H 0.91801 0.09115 0.45018 0.0
H2105 H 0.94877 0.09663 0.42542 0.0
H2106 H 0.96332 0.15374 0.46422 0.0
H2107 H 0.93185 0.1482 0.48935 0.0
C2108 C 0.99835 0.15064 0.39999 0.0
C2109 C 0.00992 0.13296 0.392 0.0
C2110 C 0.98238 0.14847 0.41721 0.0
C2111 C 0.97749 0.12854 0.42689 0.0
C2112 C 0.98969 0.11106 0.41968 0.0
C2113 C 0.00561 0.11323 0.4025 0.0
C2114 C 0.92776 0.10486 0.45368 0.0
C2115 C 0.92242 0.11922 0.47186 0.0
C2116 C 0.94559 0.10792 0.43949 0.0
C2117 C 0.95877 0.1255 0.44289 0.0
C2118 C 0.95349 0.14003 0.46106 0.0
C2119 C 0.93553 0.13685 0.47551 0.0
H2120 H 0.59462 0.25271 0.14321 0.0
H2121 H 0.66195 0.26341 0.1449 0.0
H2122 H 0.59859 0.22436 0.17256 0.0
H2123 H 0.66575 0.23578 0.17484 0.0
H2124 H 0.66878 0.16707 0.19861 0.0
H2125 H 0.66361 0.19795 0.17378 0.0
H2126 H 0.60786 0.21423 0.21414 0.0
H2127 H 0.61306 0.18268 0.23929 0.0
C2128 C 0.61026 0.24916 0.14993 0.0
C2129 C 0.62799 0.26029 0.14135 0.0
C2130 C 0.61248 0.23304 0.16703 0.0
C2131 C 0.63252 0.22757 0.17597 0.0
C2132 C 0.6501 0.23929 0.16811 0.0
C2133 C 0.64789 0.25536 0.15107 0.0
C2134 C 0.65545 0.17724 0.20242 0.0
C2135 C 0.64135 0.17236 0.22102 0.0
C2136 C 0.65256 0.19512 0.18819 0.0
C2137 C 0.63544 0.20881 0.192 0.0
C2138 C 0.6212 0.204 0.21063 0.0
C2139 C 0.62419 0.18599 0.2251 0.0
H2140 H 0.50929 0.91341 0.88232 0.0
H2141 H 0.50058 0.84731 0.8987 0.0
H2142 H 0.53606 0.91587 0.91339 0.0
H2143 H 0.52692 0.84996 0.93048 0.0
H2144 H 0.59343 0.85885 0.96565 0.0
H2145 H 0.5647 0.85438 0.93681 0.0
H2146 H 0.54038 0.91585 0.95589 0.0
H2147 H 0.56919 0.92026 0.98436 0.0
C2148 C 0.51305 0.89937 0.89255 0.0
C2149 C 0.5027 0.88015 0.88785 0.0
C2150 C 0.52827 0.90084 0.91065 0.0
C2151 C 0.53369 0.88314 0.92466 0.0
C2152 C 0.52332 0.8639 0.92001 0.0
C2153 C 0.50801 0.86244 0.90192 0.0
C2154 C 0.58165 0.87113 0.96408 0.0
C2155 C 0.58352 0.88982 0.97743 0.0
C2156 C 0.56519 0.86865 0.94745 0.0
C2157 C 0.55024 0.88485 0.94374 0.0
C2158 C 0.55177 0.9032 0.95782 0.0
C2159 C 0.5682 0.90566 0.97435 0.0
H2160 H 0.91368 0.25054 0.90578 0.0
H2161 H 0.84979 0.27149 0.89258 0.0
H2162 H 0.90965 0.22335 0.87514 0.0
H2163 H 0.84574 0.24414 0.86235 0.0
H2164 H 0.83727 0.17468 0.84057 0.0
H2165 H 0.84337 0.20534 0.86544 0.0
H2166 H 0.90328 0.2158 0.83067 0.0
H2167 H 0.89694 0.18475 0.8051 0.0
C2168 C 0.89889 0.24963 0.89613 0.0
C2169 C 0.88197 0.26315 0.90199 0.0
C2170 C 0.89661 0.23401 0.87852 0.0
C2171 C 0.87732 0.23143 0.86642 0.0
C2172 C 0.86071 0.24546 0.87161 0.0
C2173 C 0.86301 0.2611 0.88907 0.0
C2174 C 0.85171 0.18355 0.83794 0.0
C2175 C 0.86668 0.17714 0.82087 0.0
C2176 C 0.85515 0.20126 0.8522 0.0
C2177 C 0.87376 0.21313 0.85005 0.0
C2178 C 0.8888 0.20691 0.83285 0.0
C2179 C 0.88518 0.18918 0.81819 0.0
H2180 H 0.5037 0.16608 0.65002 0.0
H2181 H 0.49299 0.0987 0.64871 0.0
H2182 H 0.53156 0.1621 0.62018 0.0
H2183 H 0.52007 0.0949 0.61827 0.0
H2184 H 0.58853 0.09173 0.5944 0.0
H2185 H 0.55787 0.09709 0.61929 0.0
H2186 H 0.54141 0.15266 0.57844 0.0
H2187 H 0.57283 0.14728 0.55319 0.0
C2188 C 0.50713 0.15043 0.64327 0.0
C2189 C 0.49617 0.13268 0.65213 0.0
C2190 C 0.52295 0.1482 0.62588 0.0
C2191 C 0.52829 0.12815 0.61693 0.0
C2192 C 0.51667 0.11056 0.62501 0.0
C2193 C 0.5009 0.11278 0.64234 0.0
C2194 C 0.57838 0.10507 0.59047 0.0
C2195 C 0.58317 0.11905 0.57168 0.0
C2196 C 0.56061 0.10806 0.60474 0.0
C2197 C 0.54692 0.12517 0.60081 0.0
C2198 C 0.55164 0.13932 0.58202 0.0
C2199 C 0.56957 0.13622 0.56749 0.0
H2200 H 0.61406 0.82524 0.30501 0.0
H2201 H 0.67079 0.84015 0.34432 0.0
H2202 H 0.6085 0.79427 0.331 0.0
H2203 H 0.6654 0.80967 0.36976 0.0
H2204 H 0.66243 0.74345 0.39805 0.0
H2205 H 0.66628 0.7711 0.36808 0.0
H2206 H 0.60005 0.78605 0.37433 0.0
H2207 H 0.59616 0.75849 0.40465 0.0
C2208 C 0.62533 0.8219 0.31906 0.0
C2209 C 0.64282 0.83522 0.32259 0.0
C2210 C 0.62215 0.80422 0.33398 0.0
C2211 C 0.63659 0.79937 0.35242 0.0
C2212 C 0.65414 0.81263 0.35557 0.0
C2213 C 0.65716 0.83025 0.34097 0.0
C2214 C 0.64865 0.75264 0.39318 0.0
C2215 C 0.62904 0.74879 0.40414 0.0
C2216 C 0.65085 0.76848 0.37587 0.0
C2217 C 0.63351 0.78097 0.36888 0.0
C2218 C 0.6137 0.77663 0.37909 0.0
C2219 C 0.61149 0.7608 0.39653 0.0
H2220 H 0.93423 0.86297 0.0565 0.0
H2221 H 0.92084 0.92061 0.09473 0.0
H2222 H 0.96518 0.85704 0.08238 0.0
H2223 H 0.9511 0.91474 0.12026 0.0
H2224 H 0.01599 0.91088 0.15029 0.0
H2225 H 0.98904 0.91502 0.11966 0.0
H2226 H 0.97418 0.84861 0.12468 0.0
H2227 H 1.00185 0.84423 0.15476 0.0
C2228 C 0.9379 0.87437 0.07029 0.0
C2229 C 0.92506 0.89227 0.07348 0.0
C2230 C 0.95556 0.87096 0.08518 0.0
C2231 C 0.96081 0.88552 0.10334 0.0
C2232 C 0.94793 0.9034 0.10624 0.0
C2233 C 0.93039 0.90669 0.0916 0.0
C2234 C 0.00733 0.89702 0.14459 0.0
C2235 C 0.01111 0.87725 0.15528 0.0
C2236 C 0.99165 0.89945 0.12715 0.0
C2237 C 0.97917 0.8822 0.11983 0.0
C2238 C 0.98348 0.86223 0.12977 0.0
C2239 C 0.9992 0.8598 0.14728 0.0
H2240 H 0.66942 0.66747 0.84342 0.0
H2241 H 0.61229 0.68163 0.80444 0.0
H2242 H 0.66378 0.69791 0.86873 0.0
H2243 H 0.60654 0.71265 0.83018 0.0
H2244 H 0.59406 0.7492 0.90298 0.0
H2245 H 0.59808 0.72147 0.8729 0.0
H2246 H 0.66444 0.73612 0.86727 0.0
H2247 H 0.66065 0.76316 0.89777 0.0
C2248 C 0.65566 0.67721 0.8401 0.0
C2249 C 0.6413 0.67205 0.82185 0.0
C2250 C 0.6525 0.69483 0.85461 0.0
C2251 C 0.6348 0.70793 0.85146 0.0
C2252 C 0.62031 0.70285 0.83317 0.0
C2253 C 0.62361 0.68514 0.81838 0.0
C2254 C 0.60952 0.74653 0.8953 0.0
C2255 C 0.62706 0.7584 0.90307 0.0
C2256 C 0.61176 0.73077 0.87783 0.0
C2257 C 0.63163 0.72638 0.86777 0.0
C2258 C 0.64895 0.73883 0.87485 0.0
C2259 C 0.64672 0.75456 0.89221 0.0
H2260 H 0.59701 0.41657 0.10182 0.0
H2261 H 0.57644 0.36519 0.05679 0.0
H2262 H 0.56789 0.41015 0.12875 0.0
H2263 H 0.54686 0.35848 0.08444 0.0
H2264 H 0.48439 0.37209 0.1294 0.0
H2265 H 0.5131 0.37492 0.10023 0.0
H2266 H 0.55764 0.38363 0.15778 0.0
H2267 H 0.5292 0.38077 0.18674 0.0
C2268 C 0.58624 0.4038 0.09763 0.0
C2269 C 0.58917 0.39133 0.07712 0.0
C2270 C 0.56954 0.40002 0.11328 0.0
C2271 C 0.55511 0.38362 0.10904 0.0
C2272 C 0.55769 0.37127 0.08825 0.0
C2273 C 0.57465 0.37504 0.07247 0.0
C2274 C 0.50035 0.37439 0.13583 0.0
C2275 C 0.50435 0.37656 0.1605 0.0
C2276 C 0.51682 0.37595 0.11908 0.0
C2277 C 0.53769 0.37977 0.12658 0.0
C2278 C 0.54172 0.38117 0.15127 0.0
C2279 C 0.52535 0.37962 0.16793 0.0
H2280 H 0.9005 0.34783 0.33786 0.0
H2281 H 0.8534 0.31462 0.29677 0.0
H2282 H 0.90242 0.31839 0.36582 0.0
H2283 H 0.85556 0.28478 0.32461 0.0
H2284 H 0.84642 0.24828 0.39585 0.0
H2285 H 0.8458 0.27572 0.36518 0.0
H2286 H 0.9134 0.28263 0.37152 0.0
H2287 H 0.9139 0.25588 0.4028 0.0
C2288 C 0.89076 0.33406 0.33459 0.0
C2289 C 0.87676 0.33363 0.31507 0.0
C2290 C 0.89192 0.31708 0.35062 0.0
C2291 C 0.87909 0.2991 0.34767 0.0
C2292 C 0.86547 0.29843 0.32773 0.0
C2293 C 0.86436 0.31546 0.3116 0.0
C2294 C 0.86115 0.25571 0.39082 0.0
C2295 C 0.88019 0.24978 0.40202 0.0
C2296 C 0.86084 0.27132 0.37295 0.0
C2297 C 0.87955 0.28154 0.36575 0.0
C2298 C 0.89861 0.27537 0.37669 0.0
C2299 C 0.89893 0.25976 0.39452 0.0
H2300 H 0.9329 0.64876 0.55654 0.0
H2301 H 0.91771 0.59191 0.59558 0.0
H2302 H 0.96398 0.65395 0.5824 0.0
H2303 H 0.94808 0.59708 0.62111 0.0
H2304 H 0.01301 0.59905 0.65128 0.0
H2305 H 0.98586 0.59549 0.62081 0.0
H2306 H 0.97358 0.6625 0.6243 0.0
H2307 H 1.00149 0.66626 0.65418 0.0
C2308 C 0.9362 0.63738 0.57051 0.0
C2309 C 0.92282 0.6199 0.5739 0.0
C2310 C 0.95394 0.64037 0.5854 0.0
C2311 C 0.95874 0.62581 0.60378 0.0
C2312 C 0.94528 0.60839 0.60692 0.0
C2313 C 0.92768 0.60551 0.59227 0.0
C2314 C 0.00489 0.61315 0.64528 0.0
C2315 C 0.00947 0.63293 0.65549 0.0
C2316 C 0.98907 0.61107 0.62793 0.0
C2317 C 0.97724 0.62867 0.62022 0.0
C2318 C 0.98235 0.6486 0.62968 0.0
C2319 C 0.99822 0.6507 0.6471 0.0
H2320 H 0.66863 0.33993 0.70088 0.0
H2321 H 0.61145 0.32499 0.73926 0.0
H2322 H 0.66326 0.3098 0.67503 0.0
H2323 H 0.60591 0.29434 0.71282 0.0
H2324 H 0.59427 0.2593 0.63844 0.0
H2325 H 0.59788 0.2865 0.66917 0.0
H2326 H 0.66396 0.2712 0.67645 0.0
H2327 H 0.66039 0.24392 0.64611 0.0
C2328 C 0.65489 0.3301 0.70394 0.0
C2329 C 0.64045 0.33497 0.7222 0.0
C2330 C 0.65188 0.31267 0.6891 0.0
C2331 C 0.63423 0.29948 0.69185 0.0
C2332 C 0.61965 0.30424 0.71014 0.0
C2333 C 0.62282 0.32173 0.72532 0.0
C2334 C 0.60951 0.26145 0.64687 0.0
C2335 C 0.6271 0.24947 0.63943 0.0
C2336 C 0.61155 0.27708 0.66454 0.0
C2337 C 0.63125 0.28124 0.67516 0.0
C2338 C 0.64862 0.26874 0.66836 0.0
C2339 C 0.64658 0.25311 0.65082 0.0
H2340 H 0.93348 0.36344 0.9902 0.0
H2341 H 0.92027 0.4224 0.95431 0.0
H2342 H 0.96396 0.35792 0.96365 0.0
H2343 H 0.95034 0.41703 0.92826 0.0
H2344 H 0.01637 0.41262 0.89933 0.0
H2345 H 0.98883 0.41642 0.92934 0.0
H2346 H 0.97167 0.35095 0.92018 0.0
H2347 H 0.99911 0.34715 0.88982 0.0
C2348 C 0.93709 0.3752 0.97675 0.0
C2349 C 0.92438 0.39331 0.97435 0.0
C2350 C 0.9545 0.37204 0.96151 0.0
C2351 C 0.95972 0.3871 0.94385 0.0
C2352 C 0.94708 0.40526 0.94183 0.0
C2353 C 0.92971 0.40828 0.95677 0.0
C2354 C 0.00671 0.39902 0.90355 0.0
C2355 C 0.00994 0.37964 0.89181 0.0
C2356 C 0.99092 0.40118 0.92088 0.0
C2357 C 0.97787 0.38403 0.9271 0.0
C2358 C 0.98153 0.36444 0.91603 0.0
C2359 C 0.99731 0.36228 0.89857 0.0
H2360 H 0.89348 0.77714 0.16661 0.0
H2361 H 0.86785 0.73443 0.11394 0.0
H2362 H 0.88921 0.74983 0.19742 0.0
H2363 H 0.86432 0.70723 0.14424 0.0
H2364 H 0.83593 0.67224 0.20536 0.0
H2365 H 0.84164 0.7014 0.17819 0.0
H2366 H 0.90206 0.71377 0.2111 0.0
H2367 H 0.89599 0.68433 0.2392 0.0
C2368 C 0.88695 0.76198 0.16157 0.0
C2369 C 0.88098 0.75808 0.13769 0.0
C2370 C 0.88474 0.74625 0.1792 0.0
C2371 C 0.8763 0.72633 0.17341 0.0
C2372 C 0.8706 0.72244 0.1495 0.0
C2373 C 0.87285 0.73804 0.13198 0.0
C2374 C 0.85045 0.68117 0.20705 0.0
C2375 C 0.86565 0.67568 0.2243 0.0
C2376 C 0.85378 0.69788 0.19126 0.0
C2377 C 0.87251 0.70972 0.19202 0.0
C2378 C 0.88746 0.70493 0.20995 0.0
C2379 C 0.88406 0.68803 0.22599 0.0
H2380 H 0.57636 0.64646 0.48927 0.0
H2381 H 0.59 0.58809 0.45259 0.0
H2382 H 0.54563 0.65193 0.46294 0.0
H2383 H 0.55974 0.59341 0.42678 0.0
H2384 H 0.49364 0.59711 0.39817 0.0
H2385 H 0.52128 0.59347 0.42815 0.0
H2386 H 0.53746 0.65925 0.41949 0.0
H2387 H 0.5099 0.66291 0.38916 0.0
C2388 C 0.57279 0.6348 0.47572 0.0
C2389 C 0.58568 0.61686 0.47305 0.0
C2390 C 0.55524 0.63794 0.46059 0.0
C2391 C 0.55008 0.62303 0.44279 0.0
C2392 C 0.56293 0.60506 0.44048 0.0
C2393 C 0.58042 0.60207 0.45529 0.0
C2394 C 0.5031 0.61082 0.4025 0.0
C2395 C 0.49957 0.63024 0.39088 0.0
C2396 C 0.51895 0.60875 0.41982 0.0
C2397 C 0.53178 0.62603 0.42616 0.0
C2398 C 0.52779 0.64566 0.41524 0.0
C2399 C 0.51194 0.64773 0.3978 0.0
H2400 H 0.41206 0.26061 0.13921 0.0
H2401 H 0.34722 0.24249 0.15147 0.0
H2402 H 0.40892 0.28795 0.16981 0.0
H2403 H 0.34407 0.26993 0.1817 0.0
H2404 H 0.33801 0.33904 0.20505 0.0
H2405 H 0.34306 0.30854 0.17963 0.0
H2406 H 0.4029 0.29592 0.21378 0.0
H2407 H 0.39769 0.32689 0.23978 0.0
C2408 C 0.39723 0.26218 0.14863 0.0
C2409 C 0.37981 0.24939 0.14253 0.0
C2410 C 0.39545 0.2779 0.16623 0.0
C2411 C 0.37619 0.28132 0.1781 0.0
C2412 C 0.35905 0.26802 0.17262 0.0
C2413 C 0.36083 0.2523 0.15516 0.0
C2414 C 0.35222 0.32974 0.20741 0.0
C2415 C 0.36748 0.3355 0.22447 0.0
C2416 C 0.35505 0.3121 0.19283 0.0
C2417 C 0.37332 0.29963 0.19467 0.0
C2418 C 0.38867 0.30525 0.21182 0.0
C2419 C 0.38568 0.32292 0.22676 0.0
H2420 H 0.51408 0.59735 0.89522 0.0
H2421 H 0.50285 0.66465 0.89356 0.0
H2422 H 0.48694 0.5934 0.92563 0.0
H2423 H 0.475 0.66052 0.9234 0.0
H2424 H 0.43418 0.64566 0.9907 0.0
H2425 H 0.4655 0.65106 0.9653 0.0
H2426 H 0.44904 0.59543 0.92478 0.0
H2427 H 0.41841 0.59009 0.94979 0.0
C2428 C 0.50603 0.61138 0.9015 0.0
C2429 C 0.51064 0.6313 0.89165 0.0
C2430 C 0.49024 0.60908 0.91881 0.0
C2431 C 0.47851 0.62661 0.92683 0.0
C2432 C 0.4837 0.64668 0.91776 0.0
C2433 C 0.49952 0.64899 0.90038 0.0
C2434 C 0.4374 0.6346 0.97642 0.0
C2435 C 0.42377 0.61745 0.97233 0.0
C2436 C 0.45528 0.6377 0.96182 0.0
C2437 C 0.45996 0.62356 0.94306 0.0
C2438 C 0.4463 0.60641 0.93928 0.0
C2439 C 0.42856 0.60343 0.95362 0.0
H2440 H 0.12622 0.77797 0.66627 0.0
H2441 H 0.12291 0.73182 0.60962 0.0
H2442 H 0.12762 0.74934 0.69583 0.0
H2443 H 0.1245 0.7035 0.63895 0.0
H2444 H 0.16006 0.66218 0.69192 0.0
H2445 H 0.15348 0.69125 0.66488 0.0
H2446 H 0.10797 0.71719 0.71415 0.0
H2447 H 0.1147 0.68747 0.74182 0.0
C2448 C 0.12553 0.76178 0.66009 0.0
C2449 C 0.12488 0.75728 0.63543 0.0
C2450 C 0.12628 0.74537 0.67707 0.0
C2451 C 0.12644 0.72411 0.66977 0.0
C2452 C 0.12484 0.71969 0.64521 0.0
C2453 C 0.12405 0.73598 0.62834 0.0
C2454 C 0.14858 0.67398 0.69716 0.0
C2455 C 0.13791 0.67244 0.71911 0.0
C2456 C 0.1447 0.69065 0.68147 0.0
C2457 C 0.13006 0.70651 0.68716 0.0
C2458 C 0.11939 0.70522 0.70925 0.0
C2459 C 0.12316 0.68821 0.72504 0.0
H2460 H 0.99484 0.41152 0.40003 0.0
H2461 H 0.00994 0.34539 0.39165 0.0
H2462 H 0.02166 0.41455 0.43095 0.0
H2463 H 0.03738 0.34866 0.42227 0.0
H2464 H 0.07679 0.36149 0.49182 0.0
H2465 H 0.04571 0.35614 0.46597 0.0
H2466 H 0.06017 0.41412 0.42871 0.0
H2467 H 0.09073 0.41931 0.45399 0.0
C2468 C 1.00362 0.39751 0.40501 0.0
C2469 C 1.00021 0.37824 0.39312 0.0
C2470 C 0.0192 0.3993 0.42263 0.0
C2471 C 0.03189 0.38191 0.42895 0.0
C2472 C 0.02788 0.36236 0.41792 0.0
C2473 C 0.01229 0.36057 0.40016 0.0
C2474 C 0.07322 0.37304 0.47813 0.0
C2475 C 0.08629 0.39078 0.47496 0.0
C2476 C 0.05547 0.36998 0.4633 0.0
C2477 C 0.05032 0.3848 0.44535 0.0
C2478 C 0.06335 0.40257 0.44256 0.0
C2479 C 0.08103 0.40548 0.45705 0.0
H2480 H 0.34796 0.76263 0.40317 0.0
H2481 H 0.41559 0.75402 0.40166 0.0
H2482 H 0.34394 0.73518 0.37319 0.0
H2483 H 0.41144 0.72578 0.37228 0.0
H2484 H 0.39561 0.68438 0.3055 0.0
H2485 H 0.4011 0.71558 0.33109 0.0
H2486 H 0.34708 0.69753 0.37347 0.0
H2487 H 0.34158 0.66709 0.3482 0.0
C2488 C 0.36204 0.75508 0.39631 0.0
C2489 C 0.3821 0.76058 0.40513 0.0
C2490 C 0.35971 0.73908 0.37923 0.0
C2491 C 0.37734 0.72796 0.37044 0.0
C2492 C 0.39749 0.73398 0.37853 0.0
C2493 C 0.39984 0.75003 0.39566 0.0
C2494 C 0.38492 0.68723 0.32023 0.0
C2495 C 0.36811 0.67326 0.32468 0.0
C2496 C 0.38808 0.70504 0.33496 0.0
C2497 C 0.37438 0.70929 0.35427 0.0
C2498 C 0.35768 0.69519 0.35854 0.0
C2499 C 0.35461 0.67754 0.34403 0.0
H2500 H 0.09076 0.58973 0.09658 0.0
H2501 H 0.07585 0.64721 0.05852 0.0
H2502 H 0.06152 0.59567 0.12343 0.0
H2503 H 0.04634 0.65358 0.08633 0.0
H2504 H 0.98334 0.64456 0.13085 0.0
H2505 H 0.01106 0.64012 0.10068 0.0
H2506 H 0.05415 0.61941 0.15575 0.0
H2507 H 0.02653 0.62304 0.18545 0.0
C2508 C 0.08122 0.60375 0.09392 0.0
C2509 C 0.0859 0.61815 0.07551 0.0
C2510 C 0.06445 0.60723 0.10954 0.0
C2511 C 0.05175 0.62533 0.10747 0.0
C2512 C 0.05584 0.63948 0.0885 0.0
C2513 C 0.07279 0.63591 0.07263 0.0
C2514 C 0.9987 0.6389 0.13646 0.0
C2515 C 1.00259 0.63412 0.16068 0.0
C2516 C 0.01467 0.6366 0.11918 0.0
C2517 C 0.03486 0.62927 0.12567 0.0
C2518 C 0.03875 0.6248 0.14994 0.0
C2519 C 0.0229 0.62712 0.1671 0.0
H2520 H 0.16994 0.33928 0.84446 0.0
H2521 H 0.11253 0.32625 0.80556 0.0
H2522 H 0.16406 0.30865 0.86944 0.0
H2523 H 0.10658 0.29495 0.8309 0.0
H2524 H 0.09347 0.258 0.90307 0.0
H2525 H 0.09796 0.28571 0.87305 0.0
H2526 H 0.16431 0.27067 0.86836 0.0
H2527 H 0.16005 0.24369 0.89896 0.0
C2528 C 0.15608 0.32972 0.84106 0.0
C2529 C 0.1417 0.33527 0.82295 0.0
C2530 C 0.15278 0.31198 0.85537 0.0
C2531 C 0.13494 0.29912 0.85214 0.0
C2532 C 0.12046 0.30455 0.83395 0.0
C2533 C 0.12388 0.32241 0.81937 0.0
C2534 C 0.10903 0.2606 0.89566 0.0
C2535 C 0.12644 0.24867 0.90377 0.0
C2536 C 0.11154 0.27635 0.87819 0.0
C2537 C 0.13153 0.28063 0.8684 0.0
C2538 C 0.14872 0.26807 0.87575 0.0
C2539 C 0.14623 0.25237 0.89317 0.0
H2540 H 0.51372 0.41026 0.65223 0.0
H2541 H 0.5019 0.34308 0.65436 0.0
H2542 H 0.48667 0.41429 0.62169 0.0
H2543 H 0.47413 0.3473 0.62439 0.0
H2544 H 0.43383 0.36191 0.55657 0.0
H2545 H 0.46482 0.35638 0.58249 0.0
H2546 H 0.44884 0.41282 0.62179 0.0
H2547 H 0.41852 0.4183 0.59623 0.0
C2548 C 0.50555 0.39627 0.64605 0.0
C2549 C 0.51001 0.37636 0.65606 0.0
C2550 C 0.4898 0.39862 0.62865 0.0
C2551 C 0.47793 0.38116 0.62069 0.0
C2552 C 0.48293 0.3611 0.62997 0.0
C2553 C 0.49872 0.35874 0.64743 0.0
C2554 C 0.43709 0.37312 0.57069 0.0
C2555 C 0.42368 0.39056 0.57426 0.0
C2556 C 0.45478 0.36994 0.58561 0.0
C2557 C 0.45952 0.38427 0.60419 0.0
C2558 C 0.44608 0.40168 0.60746 0.0
C2559 C 0.4285 0.40475 0.59279 0.0
H2560 H 0.09759 0.05887 0.23948 0.0
H2561 H 0.13304 0.05737 0.30543 0.0
H2562 H 0.098 0.01998 0.23846 0.0
H2563 H 0.13275 0.01883 0.30474 0.0
H2564 H 0.10009 0.95061 0.3048 0.0
H2565 H 0.09984 0.98949 0.30557 0.0
H2566 H 0.13122 0.9909 0.23724 0.0
H2567 H 0.13218 0.95234 0.23677 0.0
C2568 C 0.10546 0.05027 0.25367 0.0
C2569 C 0.11536 0.06116 0.27243 0.0
C2570 C 0.10566 0.0281 0.25312 0.0
C2571 C 0.11526 0.01651 0.27165 0.0
C2572 C 0.1251 0.02741 0.29038 0.0
C2573 C 0.12538 0.04948 0.29062 0.0
C2574 C 0.10706 0.95927 0.29009 0.0
C2575 C 0.11625 0.94844 0.27085 0.0
C2576 C 0.10688 0.98143 0.29049 0.0
C2577 C 0.11538 0.99309 0.27135 0.0
C2578 C 0.12444 0.98226 0.25209 0.0
C2579 C 0.12511 0.96019 0.25197 0.0
H2580 H 0.20377 0.88575 0.55657 0.0
H2581 H 0.20183 0.85194 0.48962 0.0
H2582 H 0.24229 0.88506 0.55577 0.0
H2583 H 0.24068 0.85195 0.4885 0.0
H2584 H 0.30857 0.88489 0.4872 0.0
H2585 H 0.27004 0.88465 0.48799 0.0
H2586 H 0.27128 0.85198 0.55566 0.0
H2587 H 0.31014 0.85152 0.55456 0.0
C2588 C 0.21156 0.87836 0.54152 0.0
C2589 C 0.19977 0.86892 0.52307 0.0
C2590 C 0.23361 0.87786 0.54122 0.0
C2591 C 0.24437 0.86836 0.52217 0.0
C2592 C 0.23267 0.85934 0.5034 0.0
C2593 C 0.21052 0.85937 0.50401 0.0
C2594 C 0.30069 0.87769 0.50233 0.0
C2595 C 0.31238 0.86825 0.5209 0.0
C2596 C 0.27864 0.87744 0.50263 0.0
C2597 C 0.26777 0.86821 0.52179 0.0
C2598 C 0.27937 0.85917 0.54067 0.0
C2599 C 0.30152 0.85894 0.54007 0.0
H2600 H 0.42437 0.95146 0.75437 0.0
H2601 H 0.36282 0.95028 0.78745 0.0
H2602 H 0.42396 0.99013 0.75527 0.0
H2603 H 0.36242 0.98884 0.78839 0.0
H2604 H 0.36174 0.05834 0.76186 0.0
H2605 H 0.36117 0.01979 0.7611 0.0
H2606 H 0.42546 0.01839 0.7868 0.0
H2607 H 0.42604 0.05706 0.7875 0.0
C2608 C 0.41065 0.95946 0.76154 0.0
C2609 C 0.39363 0.94785 0.77084 0.0
C2610 C 0.41051 0.98158 0.76231 0.0
C2611 C 0.39325 0.99254 0.77214 0.0
C2612 C 0.37592 0.98089 0.78064 0.0
C2613 C 0.37615 0.95881 0.78008 0.0
C2614 C 0.37566 0.04979 0.76765 0.0
C2615 C 0.39394 0.06072 0.77473 0.0
C2616 C 0.37533 0.02771 0.76721 0.0
C2617 C 0.39334 0.01603 0.77365 0.0
C2618 C 0.41145 0.02696 0.78137 0.0
C2619 C 0.41171 0.04909 0.78203 0.0
H2620 H 0.19905 0.16038 0.056 0.0
H2621 H 0.20069 0.12738 0.98853 0.0
H2622 H 0.23792 0.16066 0.05678 0.0
H2623 H 0.23922 0.12838 0.98899 0.0
H2624 H 0.3069 0.16269 0.99057 0.0
H2625 H 0.26803 0.16229 0.98987 0.0
H2626 H 0.26745 0.12737 0.05608 0.0
H2627 H 0.30599 0.12706 0.05643 0.0
C2628 C 0.20768 0.1532 0.04142 0.0
C2629 C 0.19684 0.14376 1.02233 0.0
C2630 C 0.22984 0.1534 0.04183 0.0
C2631 C 0.24145 0.14469 1.02282 0.0
C2632 C 0.23061 0.13534 1.00373 0.0
C2633 C 0.20855 0.13464 1.00362 0.0
C2634 C 0.29842 0.15481 1.00482 0.0
C2635 C 0.30948 0.14481 0.02343 0.0
C2636 C 0.27627 0.15461 1.00446 0.0
C2637 C 0.26485 0.14493 0.02304 0.0
C2638 C 0.27591 0.13507 0.04167 0.0
C2639 C 0.29797 0.13478 0.04172 0.0
H2640 H 0.90776 0.05986 0.7413 0.0
H2641 H 0.87247 0.05999 0.80731 0.0
H2642 H 0.90682 0.02096 0.74114 0.0
H2643 H 0.87226 0.02143 0.80748 0.0
H2644 H 0.90822 0.95368 0.80805 0.0
H2645 H 0.9069 0.99251 0.80813 0.0
H2646 H 0.87208 0.99163 0.7419 0.0
H2647 H 0.87265 0.95299 0.74217 0.0
C2648 C 0.8998 0.05161 0.75567 0.0
C2649 C 0.89014 0.06296 0.77423 0.0
C2650 C 0.89926 0.02944 0.75559 0.0
C2651 C 0.88955 0.01833 0.77438 0.0
C2652 C 0.87991 0.02967 0.79288 0.0
C2653 C 0.87996 0.05174 0.79265 0.0
C2654 C 0.9 0.9618 0.79375 0.0
C2655 C 0.89044 0.95031 0.77523 0.0
C2656 C 0.89932 0.98394 0.79374 0.0
C2657 C 0.88957 0.99493 0.77489 0.0
C2658 C 0.87982 0.98347 0.75652 0.0
C2659 C 0.88001 0.96138 0.75683 0.0
H2660 H 0.70002 0.12709 0.55593 0.0
H2661 H 0.69859 0.16065 0.4887 0.0
H2662 H 0.73854 0.12752 0.55537 0.0
H2663 H 0.73746 0.16037 0.48782 0.0
H2664 H 0.80512 0.12629 0.48745 0.0
H2665 H 0.76658 0.12704 0.48792 0.0
H2666 H 0.76782 0.16056 0.55494 0.0
H2667 H 0.80667 0.16051 0.55413 0.0
C2668 C 0.70793 0.13438 0.54088 0.0
C2669 C 0.69627 0.14381 0.52227 0.0
C2670 C 0.72998 0.13473 0.5407 0.0
C2671 C 0.7409 0.14405 0.52163 0.0
C2672 C 0.72933 0.1531 0.50274 0.0
C2673 C 0.70718 0.15325 0.50321 0.0
C2674 C 0.79724 0.13377 0.50237 0.0
C2675 C 0.80893 0.1433 0.52085 0.0
C2676 C 0.77518 0.13432 0.50249 0.0
C2677 C 0.76431 0.14395 0.52137 0.0
C2678 C 0.77591 0.15308 0.54015 0.0
C2679 C 0.79806 0.15301 0.53973 0.0
H2680 H 0.64614 0.05752 0.25699 0.0
H2681 H 0.5828 0.05645 0.28537 0.0
H2682 H 0.64696 0.01895 0.25726 0.0
H2683 H 0.5836 0.01776 0.28566 0.0
H2684 H 0.58442 0.94989 0.25531 0.0
H2685 H 0.58434 0.98858 0.25509 0.0
H2686 H 0.64693 0.98876 0.28574 0.0
H2687 H 0.647 0.95018 0.28594 0.0
C2688 C 0.63248 0.04902 0.26355 0.0
C2689 C 0.6144 0.06001 0.27116 0.0
C2690 C 0.63295 0.02693 0.26371 0.0
C2691 C 0.61528 0.01528 0.27128 0.0
C2692 C 0.59735 0.02628 0.27939 0.0
C2693 C 0.59697 0.04843 0.27947 0.0
C2694 C 0.59824 0.95821 0.26173 0.0
C2695 C 0.61572 0.94701 0.27064 0.0
C2696 C 0.59812 0.98036 0.26184 0.0
C2697 C 0.61556 0.99175 0.2706 0.0
C2698 C 0.63329 0.98048 0.27878 0.0
C2699 C 0.63332 0.95838 0.2789 0.0
H2700 H 0.70229 0.88471 0.98888 0.0
H2701 H 0.70236 0.85057 0.05574 0.0
H2702 H 0.74091 0.88561 0.98939 0.0
H2703 H 0.74115 0.85222 0.05659 0.0
H2704 H 0.80833 0.88726 0.05622 0.0
H2705 H 0.76978 0.88732 0.05547 0.0
H2706 H 0.77054 0.85093 0.9904 0.0
H2707 H 0.8094 0.85015 0.99152 0.0
C2708 C 0.71053 0.87771 1.00389 0.0
C2709 C 0.69931 0.8676 1.02235 0.0
C2710 C 0.73262 0.8781 1.00404 0.0
C2711 C 0.7439 0.86888 1.02294 0.0
C2712 C 0.73273 0.8594 0.04181 0.0
C2713 C 0.71061 0.85852 0.04136 0.0
C2714 C 0.80035 0.87935 0.04164 0.0
C2715 C 0.81191 0.86869 0.02387 0.0
C2716 C 0.77828 0.87931 0.04134 0.0
C2717 C 0.76729 0.8691 1.02294 0.0
C2718 C 0.77875 0.85894 1.00477 0.0
C2719 C 0.8009 0.85849 1.00539 0.0
H2720 H 0.64631 0.55741 0.78611 0.0
H2721 H 0.58262 0.5561 0.75863 0.0
H2722 H 0.64705 0.51885 0.78662 0.0
H2723 H 0.58335 0.51741 0.75912 0.0
H2724 H 0.58423 0.45009 0.79097 0.0
H2725 H 0.58438 0.48877 0.79043 0.0
H2726 H 0.64655 0.48819 0.75884 0.0
H2727 H 0.64639 0.44961 0.75939 0.0
C2728 C 0.63255 0.54886 0.7799 0.0
C2729 C 0.6144 0.55977 0.77233 0.0
C2730 C 0.63298 0.52676 0.78019 0.0
C2731 C 0.61519 0.51506 0.77312 0.0
C2732 C 0.5972 0.52599 0.76501 0.0
C2733 C 0.59685 0.54813 0.76448 0.0
C2734 C 0.59802 0.45824 0.7842 0.0
C2735 C 0.6153 0.44682 0.77522 0.0
C2736 C 0.59802 0.48038 0.78365 0.0
C2737 C 0.6154 0.49155 0.77437 0.0
C2738 C 0.63296 0.48008 0.76618 0.0
C2739 C 0.63287 0.45798 0.7665 0.0
H2740 H 0.80918 0.33354 0.0381 0.0
H2741 H 0.81005 0.3976 1.01151 0.0
H2742 H 0.77053 0.3341 0.03793 0.0
H2743 H 0.77151 0.39814 1.01125 0.0
H2744 H 0.70259 0.39713 0.0389 0.0
H2745 H 0.74112 0.39737 0.03899 0.0
H2746 H 0.74156 0.3352 1.00733 0.0
H2747 H 0.7029 0.33494 1.00732 0.0
C2748 C 0.80112 0.34781 0.0325 0.0
C2749 C 0.81264 0.36553 0.02483 0.0
C2750 C 0.77899 0.34805 0.03215 0.0
C2751 C 0.76794 0.36609 0.02436 0.0
C2752 C 0.77952 0.38403 1.01744 0.0
C2753 C 0.8016 0.38372 1.01759 0.0
C2754 C 0.71091 0.38361 0.03169 0.0
C2755 C 0.69972 0.366 0.02312 0.0
C2756 C 0.73299 0.38376 0.03174 0.0
C2757 C 0.74442 0.36622 0.02338 0.0
C2758 C 0.73321 0.34881 1.01424 0.0
C2759 C 0.71108 0.34875 1.01399 0.0
H2760 H 0.92548 0.55868 0.28454 0.0
H2761 H 0.86167 0.56077 0.25749 0.0
H2762 H 0.92487 0.52004 0.28246 0.0
H2763 H 0.86104 0.52224 0.25539 0.0
H2764 H 0.86251 0.45198 0.28084 0.0
H2765 H 0.86175 0.49056 0.28186 0.0
H2766 H 0.92384 0.49245 0.25017 0.0
H2767 H 0.92459 0.45383 0.24911 0.0
C2768 C 0.91125 0.55088 0.27844 0.0
C2769 C 0.89363 0.56275 0.27118 0.0
C2770 C 0.91097 0.52877 0.27699 0.0
C2771 C 0.89298 0.51806 0.26852 0.0
C2772 C 0.87512 0.52996 0.26205 0.0
C2773 C 0.87548 0.55204 0.26326 0.0
C2774 C 0.87583 0.46064 0.27367 0.0
C2775 C 0.8936 0.44984 0.2649 0.0
C2776 C 0.87541 0.48275 0.27431 0.0
C2777 C 0.89285 0.49458 0.26639 0.0
C2778 C 0.91031 0.48378 0.25679 0.0
C2779 C 0.91063 0.46166 0.25592 0.0
H2780 H 0.70072 0.67585 0.53865 0.0
H2781 H 0.70056 0.61263 0.50979 0.0
H2782 H 0.73938 0.67579 0.53839 0.0
H2783 H 0.73911 0.61257 0.5095 0.0
H2784 H 0.80822 0.61379 0.53703 0.0
H2785 H 0.76968 0.61301 0.53735 0.0
H2786 H 0.76816 0.67591 0.50745 0.0
H2787 H 0.80682 0.6767 0.50715 0.0
C2788 C 0.70894 0.66186 0.53254 0.0
C2789 C 0.69761 0.64425 0.52424 0.0
C2790 C 0.73107 0.6619 0.53214 0.0
C2791 C 0.74233 0.64425 0.52371 0.0
C2792 C 0.73095 0.62639 0.51619 0.0
C2793 C 0.70886 0.62642 0.51635 0.0
C2794 C 0.79966 0.62736 0.53025 0.0
C2795 C 0.81055 0.64531 0.52206 0.0
C2796 C 0.77757 0.6269 0.53044 0.0
C2797 C 0.76584 0.64447 0.52263 0.0
C2798 C 0.77675 0.66225 0.51391 0.0
C2799 C 0.79888 0.66262 0.5135 0.0
H2800 H 0.36218 0.55817 0.28798 0.0
H2801 H 0.42456 0.55797 0.25695 0.0
H2802 H 0.36207 0.51957 0.28818 0.0
H2803 H 0.42445 0.51929 0.25715 0.0
H2804 H 0.42613 0.45172 0.28828 0.0
H2805 H 0.42534 0.4904 0.28809 0.0
H2806 H 0.36179 0.48905 0.26017 0.0
H2807 H 0.36258 0.45047 0.26036 0.0
C2808 C 0.37577 0.54986 0.28094 0.0
C2809 C 0.39338 0.56111 0.27246 0.0
C2810 C 0.37571 0.52775 0.28105 0.0
C2811 C 0.39333 0.51635 0.2729 0.0
C2812 C 0.41076 0.52762 0.26389 0.0
C2813 C 0.41074 0.54976 0.26354 0.0
C2814 C 0.41192 0.4597 0.28238 0.0
C2815 C 0.39442 0.44806 0.27434 0.0
C2816 C 0.41154 0.48184 0.28203 0.0
C2817 C 0.39357 0.49281 0.27391 0.0
C2818 C 0.37584 0.48111 0.26662 0.0
C2819 C 0.3763 0.45901 0.26672 0.0
H2820 H 0.30674 0.62696 0.98785 0.0
H2821 H 0.30895 0.66009 0.05521 0.0
H2822 H 0.26822 0.62771 0.9888 0.0
H2823 H 0.2701 0.66015 0.05648 0.0
H2824 H 0.2024 0.62671 0.05798 0.0
H2825 H 0.24092 0.62742 0.05693 0.0
H2826 H 0.23893 0.66041 0.98949 0.0
H2827 H 0.20008 0.66039 0.99086 0.0
C2828 C 0.299 0.63423 1.003 0.0
C2829 C 0.31088 0.64343 1.02155 0.0
C2830 C 0.27695 0.63478 1.0034 0.0
C2831 C 0.26625 0.64407 1.02263 0.0
C2832 C 0.27804 0.65292 0.04144 0.0
C2833 C 0.30019 0.65286 0.04074 0.0
C2834 C 0.21011 0.63409 0.04285 0.0
C2835 C 0.1982 0.64347 0.02441 0.0
C2836 C 0.23217 0.63461 0.0424 0.0
C2837 C 0.24283 0.64405 0.02322 0.0
C2838 C 0.23101 0.65306 1.0045 0.0
C2839 C 0.20886 0.65303 1.00525 0.0
H2840 H 0.13255 0.45258 0.80928 0.0
H2841 H 0.09839 0.45108 0.74248 0.0
H2842 H 0.13196 0.49115 0.80864 0.0
H2843 H 0.09851 0.48996 0.7415 0.0
H2844 H 0.13241 0.55747 0.73997 0.0
H2845 H 0.13173 0.51894 0.74092 0.0
H2846 H 0.09903 0.52062 0.80844 0.0
H2847 H 0.09899 0.55951 0.80717 0.0
C2848 C 0.12509 0.46048 0.79432 0.0
C2849 C 0.11556 0.4488 0.77583 0.0
C2850 C 0.12464 0.48256 0.79409 0.0
C2851 C 0.11512 0.49345 0.77511 0.0
C2852 C 0.10592 0.48185 0.75636 0.0
C2853 C 0.10588 0.45969 0.75689 0.0
C2854 C 0.12512 0.5497 0.75511 0.0
C2855 C 0.11578 0.56153 0.77358 0.0
C2856 C 0.12462 0.52763 0.75551 0.0
C2857 C 0.11524 0.51688 0.77466 0.0
C2858 C 0.10633 0.52862 0.79345 0.0
C2859 C 0.10634 0.55079 0.79276 0.0
H2860 H 0.2011 0.39535 0.51068 0.0
H2861 H 0.20195 0.33218 0.53984 0.0
H2862 H 0.23965 0.39586 0.51052 0.0
H2863 H 0.24061 0.33268 0.53971 0.0
H2864 H 0.30817 0.33254 0.5087 0.0
H2865 H 0.26951 0.33284 0.50897 0.0
H2866 H 0.27017 0.39586 0.53839 0.0
H2867 H 0.30872 0.39556 0.53809 0.0
C2868 C 0.20954 0.38166 0.51733 0.0
C2869 C 0.19849 0.36372 0.52527 0.0
C2870 C 0.23163 0.38196 0.51724 0.0
C2871 C 0.24322 0.36424 0.5249 0.0
C2872 C 0.23215 0.34647 0.53336 0.0
C2873 C 0.21001 0.34625 0.53368 0.0
C2874 C 0.30004 0.34654 0.51495 0.0
C2875 C 0.31148 0.36403 0.52336 0.0
C2876 C 0.27791 0.34663 0.51534 0.0
C2877 C 0.26675 0.3643 0.5239 0.0
C2878 C 0.27825 0.38203 0.53159 0.0
C2879 C 0.30034 0.38186 0.53142 0.0
H2880 H 0.12774 0.17231 0.08562 0.0
H2881 H 0.10929 0.10675 0.08834 0.0
H2882 H 0.12515 0.17428 0.1294 0.0
H2883 H 0.10604 0.10895 0.13184 0.0
H2884 H 0.08602 0.12762 0.2094 0.0
H2885 H 0.08399 0.12992 0.16557 0.0
H2886 H 0.14759 0.15409 0.16344 0.0
H2887 H 0.14989 0.1511 0.20699 0.0
C2888 C 0.12264 0.15848 0.09546 0.0
C2889 C 0.11867 0.13939 0.08338 0.0
C2890 C 0.12128 0.15957 0.12056 0.0
C2891 C 0.11533 0.14178 0.13416 0.0
C2892 C 0.11047 0.12299 0.12195 0.0
C2893 C 0.11239 0.12173 0.09699 0.0
C2894 C 0.09941 0.13379 0.19961 0.0
C2895 C 0.11809 0.13925 0.21177 0.0
C2896 C 0.09831 0.13497 0.17449 0.0
C2897 C 0.11563 0.14223 0.16097 0.0
C2898 C 0.13391 0.1486 0.17326 0.0
C2899 C 0.13523 0.14686 0.19825 0.0
H2900 H 0.1103 0.84372 0.46161 0.0
H2901 H 0.13619 0.90657 0.45458 0.0
H2902 H 0.1078 0.84132 0.41767 0.0
H2903 H 0.13387 0.90399 0.41153 0.0
H2904 H 0.15646 0.88153 0.3395 0.0
H2905 H 0.15463 0.88008 0.38265 0.0
H2906 H 0.08935 0.86115 0.37876 0.0
H2907 H 0.09099 0.86284 0.33471 0.0
C2908 C 0.11525 0.85706 0.45087 0.0
C2909 C 0.1236 0.87527 0.46191 0.0
C2910 C 0.11375 0.8557 0.42569 0.0
C2911 C 0.12085 0.87239 0.41103 0.0
C2912 C 0.12851 0.89073 0.42217 0.0
C2913 C 0.12978 0.89218 0.44706 0.0
C2914 C 0.14162 0.8769 0.34755 0.0
C2915 C 0.12378 0.87254 0.33329 0.0
C2916 C 0.14061 0.87611 0.37248 0.0
C2917 C 0.1218 0.87075 0.38428 0.0
C2918 C 0.10411 0.86533 0.37023 0.0
C2919 C 0.10505 0.86633 0.34499 0.0
H2920 H 0.41968 0.86084 0.71004 0.0
H2921 H 0.35514 0.88244 0.70468 0.0
H2922 H 0.42145 0.85894 0.66601 0.0
H2923 H 0.35707 0.88071 0.66159 0.0
H2924 H 0.37643 0.9057 0.58938 0.0
H2925 H 0.37859 0.90336 0.63246 0.0
H2926 H 0.40259 0.83981 0.62716 0.0
H2927 H 0.40026 0.84198 0.58318 0.0
C2928 C 0.40584 0.86494 0.69965 0.0
C2929 C 0.38732 0.87195 0.71121 0.0
C2930 C 0.40685 0.86381 0.67441 0.0
C2931 C 0.38947 0.86992 0.6602 0.0
C2932 C 0.37086 0.87616 0.67186 0.0
C2933 C 0.36978 0.87709 0.69679 0.0
C2934 C 0.38233 0.89116 0.59709 0.0
C2935 C 0.38798 0.87395 0.58245 0.0
C2936 C 0.38353 0.88984 0.62201 0.0
C2937 C 0.39056 0.87134 0.63341 0.0
C2938 C 0.39713 0.85432 0.61896 0.0
C2939 C 0.39573 0.85556 0.59375 0.0
H2940 H 0.42179 0.12919 0.83581 0.0
H2941 H 0.35722 0.15072 0.83816 0.0
H2942 H 0.42399 0.13228 0.87957 0.0
H2943 H 0.35965 0.15447 0.88159 0.0
H2944 H 0.37829 0.17345 0.9592 0.0
H2945 H 0.38121 0.1755 0.91541 0.0
H2946 H 0.40288 0.11095 0.91352 0.0
H2947 H 0.3993 0.10866 0.95698 0.0
C2948 C 0.40828 0.13513 0.84555 0.0
C2949 C 0.38936 0.13978 0.83342 0.0
C2950 C 0.40948 0.13677 0.87064 0.0
C2951 C 0.392 0.14366 0.88412 0.0
C2952 C 0.37346 0.1493 0.87181 0.0
C2953 C 0.37207 0.14711 0.84689 0.0
C2954 C 0.38407 0.15984 0.94947 0.0
C2955 C 0.38862 0.14091 0.96165 0.0
C2956 C 0.38561 0.16097 0.92437 0.0
C2957 C 0.39232 0.14339 0.91093 0.0
C2958 C 0.39785 0.12483 0.92328 0.0
C2959 C 0.39574 0.12352 0.94822 0.0
H2960 H 0.92302 0.88441 0.83709 0.0
H2961 H 0.85891 0.86154 0.83958 0.0
H2962 H 0.92516 0.88181 0.88087 0.0
H2963 H 0.86132 0.8583 0.88308 0.0
H2964 H 0.88098 0.83971 0.96078 0.0
H2965 H 0.88357 0.83776 0.91698 0.0
H2966 H 0.90352 0.90284 0.91469 0.0
H2967 H 0.90027 0.90501 0.95819 0.0
C2968 C 0.90959 0.87833 0.84688 0.0
C2969 C 0.89082 0.87313 0.83475 0.0
C2970 C 0.91076 0.87697 0.87198 0.0
C2971 C 0.89342 0.8698 0.8855 0.0
C2972 C 0.87502 0.8637 0.87325 0.0
C2973 C 0.87364 0.8656 0.84828 0.0
C2974 C 0.8863 0.85347 0.95096 0.0
C2975 C 0.89049 0.87249 0.96305 0.0
C2976 C 0.88764 0.8524 0.92585 0.0
C2977 C 0.89379 0.87014 0.9123 0.0
C2978 C 0.89892 0.88884 0.92454 0.0
C2979 C 0.89701 0.89008 0.9495 0.0
H2980 H 0.91627 0.15285 0.71062 0.0
H2981 H 0.85392 0.12581 0.70364 0.0
H2982 H 0.91859 0.15537 0.66663 0.0
H2983 H 0.85651 0.12806 0.66058 0.0
H2984 H 0.88095 0.10489 0.58917 0.0
H2985 H 0.88302 0.10718 0.63228 0.0
H2986 H 0.8958 0.17391 0.62738 0.0
H2987 H 0.89332 0.17182 0.58338 0.0
C2988 C 0.90303 0.14764 0.69989 0.0
C2989 C 0.88498 0.13898 0.71095 0.0
C2990 C 0.90435 0.14915 0.67469 0.0
C2991 C 0.88778 0.14177 0.66008 0.0
C2992 C 0.86963 0.13373 0.67123 0.0
C2993 C 0.86819 0.13247 0.69611 0.0
C2994 C 0.88433 0.12015 0.59698 0.0
C2995 C 0.88665 0.13824 0.58248 0.0
C2996 C 0.88556 0.1214 0.62188 0.0
C2997 C 0.88939 0.14073 0.63336 0.0
C2998 C 0.89288 0.15875 0.61906 0.0
C2999 C 0.89142 0.15755 0.59385 0.0
H3000 H 0.63024 0.10473 0.45358 0.0
H3001 H 0.60885 0.16939 0.45873 0.0
H3002 H 0.62825 0.10662 0.41047 0.0
H3003 H 0.60658 0.17105 0.41468 0.0
H3004 H 0.58899 0.1477 0.33175 0.0
H3005 H 0.58679 0.15062 0.37571 0.0
H3006 H 0.65126 0.12943 0.38154 0.0
H3007 H 0.65367 0.1268 0.33851 0.0
C3008 C 0.62489 0.1194 0.44564 0.0
C3009 C 0.61992 0.13701 0.46 0.0
C3010 C 0.62376 0.12043 0.42071 0.0
C3011 C 0.61744 0.13901 0.40899 0.0
C3012 C 0.61148 0.15646 0.42314 0.0
C3013 C 0.61283 0.15551 0.44839 0.0
C3014 C 0.60276 0.14397 0.34241 0.0
C3015 C 0.62143 0.13679 0.3313 0.0
C3016 C 0.60151 0.14569 0.36761 0.0
C3017 C 0.6188 0.14004 0.3822 0.0
C3018 C 0.63756 0.13367 0.37096 0.0
C3019 C 0.63889 0.13217 0.34608 0.0
H3020 H 0.61551 0.83712 0.08397 0.0
H3021 H 0.6289 0.90392 0.08878 0.0
H3022 H 0.61287 0.83548 0.12795 0.0
H3023 H 0.62654 0.90208 0.1319 0.0
H3024 H 0.65477 0.88445 0.20369 0.0
H3025 H 0.65234 0.88186 0.16072 0.0
H3026 H 0.59059 0.8538 0.16679 0.0
H3027 H 0.59282 0.8566 0.21077 0.0
C3028 C 0.6176 0.85146 0.09421 0.0
C3029 C 0.62268 0.87059 0.08257 0.0
C3030 C 0.61604 0.85052 0.11942 0.0
C3031 C 0.61971 0.86862 0.13347 0.0
C3032 C 0.62385 0.88779 0.1217 0.0
C3033 C 0.62522 0.88878 0.0968 0.0
C3034 C 0.64063 0.87753 0.19621 0.0
C3035 C 0.62393 0.87088 0.21107 0.0
C3036 C 0.63926 0.8761 0.17135 0.0
C3037 C 0.62124 0.86779 0.16021 0.0
C3038 C 0.60474 0.86025 0.17484 0.0
C3039 C 0.606 0.86192 0.20003 0.0
H3040 H 0.58837 0.64753 0.71182 0.0
H3041 H 0.65342 0.62789 0.70473 0.0
H3042 H 0.58592 0.65064 0.66787 0.0
H3043 H 0.65072 0.63065 0.66169 0.0
H3044 H 0.62753 0.60412 0.59068 0.0
H3045 H 0.6251 0.60648 0.63376 0.0
H3046 H 0.60818 0.67224 0.62838 0.0
H3047 H 0.61097 0.67014 0.58439 0.0
C3048 C 0.60218 0.64415 0.70109 0.0
C3049 C 0.62102 0.63724 0.71209 0.0
C3050 C 0.60077 0.64599 0.67592 0.0
C3051 C 0.61811 0.64075 0.66128 0.0
C3052 C 0.63703 0.63466 0.67238 0.0
C3053 C 0.63851 0.63306 0.69724 0.0
C3054 C 0.6231 0.61918 0.59836 0.0
C3055 C 0.61971 0.63703 0.58373 0.0
C3056 C 0.62168 0.62045 0.62324 0.0
C3057 C 0.61658 0.63954 0.63457 0.0
C3058 C 0.61206 0.65727 0.62015 0.0
C3059 C 0.6137 0.65606 0.59495 0.0
H3060 H 0.58933 0.3618 0.83666 0.0
H3061 H 0.65518 0.37919 0.84122 0.0
H3062 H 0.58785 0.35997 0.88074 0.0
H3063 H 0.65348 0.37764 0.88435 0.0
H3064 H 0.6357 0.40466 0.95628 0.0
H3065 H 0.63289 0.4021 0.91328 0.0
H3066 H 0.60669 0.33953 0.91978 0.0
H3067 H 0.6097 0.34191 0.9637 0.0
C3068 C 0.6035 0.36497 0.84688 0.0
C3069 C 0.6223 0.37086 0.83509 0.0
C3070 C 0.60266 0.36389 0.87215 0.0
C3071 C 0.62051 0.36891 0.88615 0.0
C3072 C 0.63936 0.37395 0.87425 0.0
C3073 C 0.64027 0.37481 0.8493 0.0
C3074 C 0.62913 0.39031 0.94887 0.0
C3075 C 0.62308 0.37343 0.96384 0.0
C3076 C 0.62758 0.38886 0.92399 0.0
C3077 C 0.61973 0.37056 0.91294 0.0
C3078 C 0.61276 0.35389 0.92771 0.0
C3079 C 0.61455 0.35524 0.95289 0.0
H3080 H 0.90346 0.40241 0.08811 0.0
H3081 H 0.88119 0.33806 0.08618 0.0
H3082 H 0.90722 0.40015 0.13158 0.0
H3083 H 0.88426 0.33606 0.12996 0.0
H3084 H 0.86038 0.36227 0.20677 0.0
H3085 H 0.86288 0.35823 0.16339 0.0
H3086 H 0.92796 0.37806 0.16585 0.0
H3087 H 0.92567 0.38139 0.20961 0.0
C3088 C 0.89971 0.38764 0.09694 0.0
C3089 C 0.89216 0.37036 0.08359 0.0
C3090 C 0.9019 0.38635 0.12187 0.0
C3091 C 0.89604 0.36794 0.13429 0.0
C3092 C 0.88895 0.35046 0.12093 0.0
C3093 C 0.88732 0.35155 0.09584 0.0
C3094 C 0.87539 0.36529 0.19815 0.0
C3095 C 0.89287 0.37202 0.21172 0.0
C3096 C 0.87682 0.36293 0.17327 0.0
C3097 C 0.89561 0.36781 0.1611 0.0
C3098 C 0.91327 0.37414 0.17468 0.0
C3099 C 0.912 0.37592 0.19975 0.0
H3100 H 0.91672 0.65456 0.33398 0.0
H3101 H 0.8559 0.62445 0.34202 0.0
H3102 H 0.9194 0.65741 0.37792 0.0
H3103 H 0.85882 0.62708 0.38498 0.0
H3104 H 0.88425 0.60578 0.45643 0.0
H3105 H 0.88623 0.60776 0.41327 0.0
H3106 H 0.89643 0.67498 0.41723 0.0
H3107 H 0.89406 0.67317 0.46125 0.0
C3108 C 0.90388 0.64875 0.34492 0.0
C3109 C 0.88615 0.63916 0.33416 0.0
C3110 C 0.9054 0.65045 0.3701 0.0
C3111 C 0.88938 0.64231 0.38499 0.0
C3112 C 0.87153 0.63334 0.37413 0.0
C3113 C 0.86989 0.63188 0.34928 0.0
C3114 C 0.88707 0.62108 0.44838 0.0
C3115 C 0.88866 0.63938 0.46262 0.0
C3116 C 0.88825 0.62216 0.42347 0.0
C3117 C 0.89128 0.64153 0.41171 0.0
C3118 C 0.89413 0.65979 0.42576 0.0
C3119 C 0.89275 0.65874 0.45099 0.0
H3120 H 0.42037 0.36046 0.33521 0.0
H3121 H 0.35516 0.37971 0.34178 0.0
H3122 H 0.42263 0.35764 0.3792 0.0
H3123 H 0.35767 0.37722 0.38483 0.0
H3124 H 0.37935 0.40372 0.45612 0.0
H3125 H 0.38171 0.40135 0.41306 0.0
H3126 H 0.40172 0.33646 0.41858 0.0
H3127 H 0.39904 0.33858 0.46257 0.0
C3128 C 0.40649 0.36382 0.34584 0.0
C3129 C 0.38766 0.37054 0.33467 0.0
C3130 C 0.40779 0.36215 0.37104 0.0
C3131 C 0.39036 0.36739 0.38555 0.0
C3132 C 0.37145 0.37326 0.37427 0.0
C3133 C 0.37007 0.3747 0.34939 0.0
C3134 C 0.38443 0.38886 0.44848 0.0
C3135 C 0.38876 0.37125 0.46317 0.0
C3136 C 0.38579 0.38756 0.4236 0.0
C3137 C 0.39175 0.36871 0.41228 0.0
C3138 C 0.39714 0.35126 0.42677 0.0
C3139 C 0.39556 0.35248 0.45197 0.0
H3140 H 0.41808 0.64923 0.21158 0.0
H3141 H 0.35413 0.62609 0.20557 0.0
H3142 H 0.42009 0.65139 0.16755 0.0
H3143 H 0.35634 0.62804 0.16252 0.0
H3144 H 0.37697 0.60373 0.09049 0.0
H3145 H 0.37911 0.60591 0.1336 0.0
H3146 H 0.40038 0.67044 0.12852 0.0
H3147 H 0.39801 0.66845 0.08454 0.0
C3148 C 0.40442 0.64484 0.20106 0.0
C3149 C 0.386 0.63734 0.21244 0.0
C3150 C 0.40557 0.64612 0.17582 0.0
C3151 C 0.38844 0.63966 0.16144 0.0
C3152 C 0.36993 0.63289 0.17292 0.0
C3153 C 0.3687 0.63184 0.19783 0.0
C3154 C 0.38226 0.61847 0.09826 0.0
C3155 C 0.38709 0.63601 0.08369 0.0
C3156 C 0.38346 0.61968 0.12318 0.0
C3157 C 0.38971 0.63839 0.13465 0.0
C3158 C 0.39554 0.65575 0.12027 0.0
C3159 C 0.39413 0.65462 0.09505 0.0
H3160 H 0.08936 0.6484 0.8353 0.0
H3161 H 0.15438 0.62823 0.84079 0.0
H3162 H 0.0876 0.65065 0.87932 0.0
H3163 H 0.15238 0.63019 0.8839 0.0
H3164 H 0.13243 0.60453 0.956 0.0
H3165 H 0.13009 0.60683 0.91291 0.0
H3166 H 0.1074 0.67084 0.91818 0.0
H3167 H 0.11001 0.66878 0.96216 0.0
C3168 C 0.1033 0.64468 0.8457 0.0
C3169 C 0.12194 0.63795 0.8342 0.0
C3170 C 0.10229 0.64602 0.87094 0.0
C3171 C 0.11981 0.64039 0.88518 0.0
C3172 C 0.13852 0.63441 0.87358 0.0
C3173 C 0.13961 0.63332 0.84865 0.0
C3174 C 0.12678 0.61918 0.94828 0.0
C3175 C 0.12162 0.63656 0.96292 0.0
C3176 C 0.12547 0.62045 0.92338 0.0
C3177 C 0.11874 0.63905 0.91197 0.0
C3178 C 0.11261 0.65625 0.9264 0.0
C3179 C 0.11416 0.65507 0.95161 0.0
H3180 H 0.15422 0.38227 0.70605 0.0
H3181 H 0.09024 0.35944 0.7133 0.0
H3182 H 0.15159 0.37944 0.66304 0.0
H3183 H 0.08786 0.35631 0.66937 0.0
H3184 H 0.11291 0.33772 0.58624 0.0
H3185 H 0.1102 0.33587 0.63024 0.0
H3186 H 0.12568 0.40203 0.63477 0.0
H3187 H 0.12805 0.40411 0.59167 0.0
C3188 C 0.13957 0.3764 0.6986 0.0
C3189 C 0.12234 0.37131 0.71348 0.0
C3190 C 0.13813 0.37478 0.67376 0.0
C3191 C 0.11951 0.36778 0.66271 0.0
C3192 C 0.10247 0.36169 0.67738 0.0
C3193 C 0.10383 0.36354 0.70253 0.0
C3194 C 0.11534 0.35193 0.59662 0.0
C3195 C 0.12095 0.37099 0.58517 0.0
C3196 C 0.11376 0.35087 0.62182 0.0
C3197 C 0.11793 0.36878 0.63601 0.0
C3198 C 0.12258 0.3879 0.62443 0.0
C3199 C 0.12395 0.38902 0.59955 0.0
loop_
_geom_bond_atom_site_label_1
_geom_bond_atom_site_label_2
_geom_bond_distance
_geom_bond_site_symmetry_2
_ccdc_geom_bond_type
Pr0 C2 2.880 . S
Pr0 O20 2.562 . S
Pr0 O21 2.490 . S
Pr0 O22 2.695 . S
Pr0 O23 2.512 . S
Pr0 O25 2.437 . S
Pr0 O28 2.436 . S
Pr0 O30 2.438 . S
Pr1 C11 2.880 . S
Pr1 O22 2.436 . S
Pr1 O24 2.438 . S
Pr1 O26 2.562 . S
Pr1 O27 2.490 . S
Pr1 O28 2.695 . S
Pr1 O29 2.512 . S
Pr1 O31 2.437 . S
C2 Pr0 2.880 . S
C2 C3 1.491 . S
C2 O20 1.254 . S
C2 O21 1.225 . S
C3 C2 1.491 . S
C3 C4 1.392 . S
C3 C8 1.356 . S
C4 C3 1.392 . S
C4 C5 1.368 . S
C4 H32 0.929 . S
C5 C4 1.368 . S
C5 C6 1.386 . S
C5 H33 0.929 . S
C6 C5 1.386 . S
C6 C7 1.373 . S
C7 C6 1.373 . S
C7 C8 1.409 . S
C7 H34 0.931 . S
C8 C3 1.356 . S
C8 C7 1.409 . S
C8 H35 0.930 . S
C9 O22 1.270 . S
C9 O23 1.248 . S
C10 O24 1.267 . S
C10 O25 1.278 . S
C11 Pr1 2.880 . S
C11 C12 1.491 . S
C11 O26 1.254 . S
C11 O27 1.225 . S
C12 C11 1.491 . S
C12 C13 1.392 . S
C12 C17 1.356 . S
C13 C12 1.392 . S
C13 C14 1.368 . S
C13 H36 0.929 . S
C14 C13 1.368 . S
C14 C15 1.386 . S
C14 H37 0.929 . S
C15 C14 1.386 . S
C15 C16 1.373 . S
C16 C15 1.373 . S
C16 C17 1.409 . S
C16 H38 0.931 . S
C17 C12 1.356 . S
C17 C16 1.409 . S
C17 H39 0.930 . S
C18 O28 1.270 . S
C18 O29 1.248 . S
C19 O30 1.267 . S
C19 O31 1.278 . S
O20 Pr0 2.562 . S
O20 C2 1.254 . S
O21 Pr0 2.490 . S
O21 C2 1.225 . S
O22 Pr0 2.695 . S
O22 Pr1 2.436 . S
O22 C9 1.270 . S
O23 Pr0 2.512 . S
O23 C9 1.248 . S
O24 Pr1 2.438 . S
O24 C10 1.267 . S
O25 Pr0 2.437 . S
O25 C10 1.278 . S
O26 Pr1 2.562 . S
O26 C11 1.254 . S
O27 Pr1 2.490 . S
O27 C11 1.225 . S
O28 Pr0 2.436 . S
O28 Pr1 2.695 . S
O28 C18 1.270 . S
O29 Pr1 2.512 . S
O29 C18 1.248 . S
O30 Pr0 2.438 . S
O30 C19 1.267 . S
O31 Pr1 2.437 . S
O31 C19 1.278 . S
H32 C4 0.929 . S
H33 C5 0.929 . S
H34 C7 0.931 . S
H35 C8 0.930 . S
H36 C13 0.929 . S
H37 C14 0.929 . S
H38 C16 0.931 . S
H39 C17 0.930 . S
Pr40 C42 2.880 . S
Pr40 O60 2.562 . S
Pr40 O61 2.490 . S
Pr40 O62 2.695 . S
Pr40 O63 2.512 . S
Pr40 O65 2.437 . S
Pr40 O68 2.436 . S
Pr40 O70 2.438 . S
Pr41 C51 2.880 . S
Pr41 O62 2.436 . S
Pr41 O64 2.438 . S
Pr41 O66 2.562 . S
Pr41 O67 2.490 . S
Pr41 O68 2.695 . S
Pr41 O69 2.512 . S
Pr41 O71 2.437 . S
C42 Pr40 2.880 . S
C42 C43 1.491 . S
C42 O60 1.254 . S
C42 O61 1.225 . S
C43 C42 1.491 . S
C43 C44 1.392 . S
C43 C48 1.356 . S
C44 C43 1.392 . S
C44 C45 1.368 . S
C44 H72 0.929 . S
C45 C44 1.368 . S
C45 C46 1.386 . S
C45 H73 0.915 1_565 S
C46 C45 1.386 . S
C46 C47 1.373 . S
C47 C46 1.373 . S
C47 C48 1.409 . S
C47 H74 0.931 . S
C48 C43 1.356 . S
C48 C47 1.409 . S
C48 H75 0.930 . S
C49 O62 1.270 . S
C49 O63 1.248 . S
C50 O64 1.267 . S
C50 O65 1.278 . S
C51 Pr41 2.880 . S
C51 C52 1.491 . S
C51 O66 1.254 . S
C51 O67 1.225 . S
C52 C51 1.491 . S
C52 C53 1.392 . S
C52 C57 1.356 . S
C53 C52 1.392 . S
C53 C54 1.368 . S
C53 H76 0.929 . S
C54 C53 1.368 . S
C54 C55 1.386 . S
C54 H77 0.929 . S
C55 C54 1.386 . S
C55 C56 1.373 . S
C56 C55 1.373 . S
C56 C57 1.409 . S
C56 H78 0.931 . S
C57 C52 1.356 . S
C57 C56 1.409 . S
C57 H79 0.930 . S
C58 O68 1.270 . S
C58 O69 1.248 . S
C59 O70 1.267 . S
C59 O71 1.278 . S
O60 Pr40 2.562 . S
O60 C42 1.254 . S
O61 Pr40 2.490 . S
O61 C42 1.225 . S
O62 Pr40 2.695 . S
O62 Pr41 2.436 . S
O62 C49 1.270 . S
O63 Pr40 2.512 . S
O63 C49 1.248 . S
O64 Pr41 2.438 . S
O64 C50 1.267 . S
O65 Pr40 2.437 . S
O65 C50 1.278 . S
O66 Pr41 2.562 . S
O66 C51 1.254 . S
O67 Pr41 2.490 . S
O67 C51 1.225 . S
O68 Pr40 2.436 . S
O68 Pr41 2.695 . S
O68 C58 1.270 . S
O69 Pr41 2.512 . S
O69 C58 1.248 . S
O70 Pr40 2.438 . S
O70 C59 1.267 . S
O71 Pr41 2.437 . S
O71 C59 1.278 . S
H72 C44 0.929 . S
H73 C45 0.915 1_545 S
H74 C47 0.931 . S
H75 C48 0.930 . S
H76 C53 0.929 . S
H77 C54 0.929 . S
H78 C56 0.931 . S
H79 C57 0.930 . S
Pr80 C82 2.880 . S
Pr80 O100 2.562 . S
Pr80 O101 2.490 . S
Pr80 O102 2.695 . S
Pr80 O103 2.512 . S
Pr80 O105 2.437 . S
Pr80 O108 2.436 . S
Pr80 O110 2.438 . S
Pr81 C91 2.880 . S
Pr81 O102 2.436 . S
Pr81 O104 2.438 . S
Pr81 O106 2.562 . S
Pr81 O107 2.490 . S
Pr81 O108 2.695 . S
Pr81 O109 2.512 . S
Pr81 O111 2.437 . S
C82 Pr80 2.880 . S
C82 C83 1.491 . S
C82 O100 1.254 . S
C82 O101 1.225 . S
C83 C82 1.491 . S
C83 C84 1.392 . S
C83 C88 1.356 . S
C84 C83 1.392 . S
C84 C85 1.368 . S
C84 H112 0.929 . S
C85 C84 1.368 . S
C85 C86 1.386 . S
C85 H113 0.929 . S
C86 C85 1.386 . S
C86 C87 1.373 . S
C87 C86 1.373 . S
C87 C88 1.409 . S
C87 H114 0.931 . S
C88 C83 1.356 . S
C88 C87 1.409 . S
C88 H115 0.930 . S
C89 O102 1.270 . S
C89 O103 1.248 . S
C90 O104 1.267 . S
C90 O105 1.278 . S
C91 Pr81 2.880 . S
C91 C92 1.491 . S
C91 O106 1.254 . S
C91 O107 1.225 . S
C92 C91 1.491 . S
C92 C93 1.392 . S
C92 C97 1.356 . S
C93 C92 1.392 . S
C93 C94 1.368 . S
C93 H116 0.929 . S
C94 C93 1.368 . S
C94 C95 1.386 . S
C94 H117 0.929 . S
C95 C94 1.386 . S
C95 C96 1.373 . S
C96 C95 1.373 . S
C96 C97 1.409 . S
C96 H118 0.931 . S
C97 C92 1.356 . S
C97 C96 1.409 . S
C97 H119 0.930 . S
C98 O108 1.270 . S
C98 O109 1.248 . S
C99 O110 1.267 . S
C99 O111 1.278 . S
O100 Pr80 2.562 . S
O100 C82 1.254 . S
O101 Pr80 2.490 . S
O101 C82 1.225 . S
O102 Pr80 2.695 . S
O102 Pr81 2.436 . S
O102 C89 1.270 . S
O103 Pr80 2.512 . S
O103 C89 1.248 . S
O104 Pr81 2.438 . S
O104 C90 1.267 . S
O105 Pr80 2.437 . S
O105 C90 1.278 . S
O106 Pr81 2.562 . S
O106 C91 1.254 . S
O107 Pr81 2.490 . S
O107 C91 1.225 . S
O108 Pr80 2.436 . S
O108 Pr81 2.695 . S
O108 C98 1.270 . S
O109 Pr81 2.512 . S
O109 C98 1.248 . S
O110 Pr80 2.438 . S
O110 C99 1.267 . S
O111 Pr81 2.437 . S
O111 C99 1.278 . S
H112 C84 0.929 . S
H113 C85 0.929 . S
H114 C87 0.931 . S
H115 C88 0.930 . S
H116 C93 0.929 . S
H117 C94 0.929 . S
H118 C96 0.931 . S
H119 C97 0.930 . S
Pr120 C122 2.880 1_554 S
Pr120 O140 2.562 1_554 S
Pr120 O141 2.490 . S
Pr120 O142 2.695 . S
Pr120 O143 2.512 . S
Pr120 O145 2.437 1_554 S
Pr120 O148 2.436 . S
Pr120 O150 2.438 . S
Pr121 C131 2.880 . S
Pr121 O142 2.436 . S
Pr121 O144 2.438 1_554 S
Pr121 O146 2.562 . S
Pr121 O147 2.490 . S
Pr121 O148 2.695 . S
Pr121 O149 2.512 . S
Pr121 O151 2.437 . S
C122 Pr120 2.880 1_556 S
C122 C123 1.491 . S
C122 O140 1.254 . S
C122 O141 1.225 1_556 S
C123 C122 1.491 . S
C123 C124 1.392 . S
C123 C128 1.356 . S
C124 C123 1.392 . S
C124 C125 1.368 . S
C124 H152 0.929 . S
C125 C124 1.368 . S
C125 C126 1.386 . S
C125 H153 0.915 1_545 S
C126 C125 1.386 . S
C126 C127 1.373 . S
C127 C126 1.373 . S
C127 C128 1.409 . S
C127 H154 0.931 . S
C128 C123 1.356 . S
C128 C127 1.409 . S
C128 H155 0.930 . S
C129 O142 1.270 . S
C129 O143 1.248 . S
C130 O144 1.267 . S
C130 O145 1.278 . S
C131 Pr121 2.880 . S
C131 C132 1.491 . S
C131 O146 1.254 . S
C131 O147 1.225 . S
C132 C131 1.491 . S
C132 C133 1.392 . S
C132 C137 1.356 . S
C133 C132 1.392 . S
C133 C134 1.368 . S
C133 H156 0.929 . S
C134 C133 1.368 . S
C134 C135 1.386 . S
C134 H157 0.929 . S
C135 C134 1.386 . S
C135 C136 1.373 . S
C136 C135 1.373 . S
C136 C137 1.409 . S
C136 H158 0.931 . S
C137 C132 1.356 . S
C137 C136 1.409 . S
C137 H159 0.930 . S
C138 O148 1.270 . S
C138 O149 1.248 . S
C139 O150 1.267 . S
C139 O151 1.278 . S
O140 Pr120 2.562 1_556 S
O140 C122 1.254 . S
O141 Pr120 2.490 . S
O141 C122 1.225 1_554 S
O142 Pr120 2.695 . S
O142 Pr121 2.436 . S
O142 C129 1.270 . S
O143 Pr120 2.512 . S
O143 C129 1.248 . S
O144 Pr121 2.438 1_556 S
O144 C130 1.267 . S
O145 Pr120 2.437 1_556 S
O145 C130 1.278 . S
O146 Pr121 2.562 . S
O146 C131 1.254 . S
O147 Pr121 2.490 . S
O147 C131 1.225 . S
O148 Pr120 2.436 . S
O148 Pr121 2.695 . S
O148 C138 1.270 . S
O149 Pr121 2.512 . S
O149 C138 1.248 . S
O150 Pr120 2.438 . S
O150 C139 1.267 . S
O151 Pr121 2.437 . S
O151 C139 1.278 . S
H152 C124 0.929 . S
H153 C125 0.915 1_565 S
H154 C127 0.931 . S
H155 C128 0.930 . S
H156 C133 0.929 . S
H157 C134 0.929 . S
H158 C136 0.931 . S
H159 C137 0.930 . S
Pr160 C162 2.880 . S
Pr160 O180 2.562 . S
Pr160 O181 2.490 . S
Pr160 O182 2.695 . S
Pr160 O183 2.512 . S
Pr160 O185 2.437 . S
Pr160 O188 2.436 . S
Pr160 O190 2.438 . S
Pr161 C171 2.880 . S
Pr161 O182 2.436 . S
Pr161 O184 2.438 . S
Pr161 O186 2.562 . S
Pr161 O187 2.490 . S
Pr161 O188 2.695 . S
Pr161 O189 2.512 . S
Pr161 O191 2.437 . S
C162 Pr160 2.880 . S
C162 C163 1.491 . S
C162 O180 1.254 . S
C162 O181 1.225 . S
C163 C162 1.491 . S
C163 C164 1.392 . S
C163 C168 1.356 . S
C164 C163 1.392 . S
C164 C165 1.368 . S
C164 H192 0.929 . S
C165 C164 1.368 . S
C165 C166 1.386 . S
C165 H193 0.929 . S
C166 C165 1.386 . S
C166 C167 1.373 . S
C167 C166 1.373 . S
C167 C168 1.409 . S
C167 H194 0.931 . S
C168 C163 1.356 . S
C168 C167 1.409 . S
C168 H195 0.930 . S
C169 O182 1.270 . S
C169 O183 1.248 . S
C170 O184 1.267 . S
C170 O185 1.278 . S
C171 Pr161 2.880 . S
C171 C172 1.491 . S
C171 O186 1.254 . S
C171 O187 1.225 . S
C172 C171 1.491 . S
C172 C173 1.392 . S
C172 C177 1.356 . S
C173 C172 1.392 . S
C173 C174 1.368 . S
C173 H196 0.929 . S
C174 C173 1.368 . S
C174 C175 1.386 . S
C174 H197 0.929 . S
C175 C174 1.386 . S
C175 C176 1.373 . S
C176 C175 1.373 . S
C176 C177 1.409 . S
C176 H198 0.931 . S
C177 C172 1.356 . S
C177 C176 1.409 . S
C177 H199 0.930 . S
C178 O188 1.270 . S
C178 O189 1.248 . S
C179 O190 1.267 . S
C179 O191 1.278 . S
O180 Pr160 2.562 . S
O180 C162 1.254 . S
O181 Pr160 2.490 . S
O181 C162 1.225 . S
O182 Pr160 2.695 . S
O182 Pr161 2.436 . S
O182 C169 1.270 . S
O183 Pr160 2.512 . S
O183 C169 1.248 . S
O184 Pr161 2.438 . S
O184 C170 1.267 . S
O185 Pr160 2.437 . S
O185 C170 1.278 . S
O186 Pr161 2.562 . S
O186 C171 1.254 . S
O187 Pr161 2.490 . S
O187 C171 1.225 . S
O188 Pr160 2.436 . S
O188 Pr161 2.695 . S
O188 C178 1.270 . S
O189 Pr161 2.512 . S
O189 C178 1.248 . S
O190 Pr160 2.438 . S
O190 C179 1.267 . S
O191 Pr161 2.437 . S
O191 C179 1.278 . S
H192 C164 0.929 . S
H193 C165 0.929 . S
H194 C167 0.931 . S
H195 C168 0.930 . S
H196 C173 0.929 . S
H197 C174 0.929 . S
H198 C176 0.931 . S
H199 C177 0.930 . S
Pr200 C202 2.880 . S
Pr200 O220 2.562 . S
Pr200 O221 2.490 . S
Pr200 O222 2.695 . S
Pr200 O223 2.512 . S
Pr200 O225 2.437 . S
Pr200 O228 2.436 . S
Pr200 O230 2.438 . S
Pr201 C211 2.880 . S
Pr201 O222 2.436 . S
Pr201 O224 2.438 . S
Pr201 O226 2.562 . S
Pr201 O227 2.490 . S
Pr201 O228 2.695 . S
Pr201 O229 2.512 . S
Pr201 O231 2.437 . S
C202 Pr200 2.880 . S
C202 C203 1.491 . S
C202 O220 1.254 . S
C202 O221 1.225 . S
C203 C202 1.491 . S
C203 C204 1.392 . S
C203 C208 1.356 . S
C204 C203 1.392 . S
C204 C205 1.368 . S
C204 H232 0.929 . S
C205 C204 1.368 . S
C205 C206 1.386 . S
C205 H233 0.915 1_565 S
C206 C205 1.386 . S
C206 C207 1.373 . S
C207 C206 1.373 . S
C207 C208 1.409 . S
C207 H234 0.931 . S
C208 C203 1.356 . S
C208 C207 1.409 . S
C208 H235 0.930 . S
C209 O222 1.270 . S
C209 O223 1.248 . S
C210 O224 1.267 . S
C210 O225 1.278 . S
C211 Pr201 2.880 . S
C211 C212 1.491 . S
C211 O226 1.254 . S
C211 O227 1.225 . S
C212 C211 1.491 . S
C212 C213 1.392 . S
C212 C217 1.356 . S
C213 C212 1.392 . S
C213 C214 1.368 . S
C213 H236 0.929 . S
C214 C213 1.368 . S
C214 C215 1.386 . S
C214 H237 0.929 . S
C215 C214 1.386 . S
C215 C216 1.373 . S
C216 C215 1.373 . S
C216 C217 1.409 . S
C216 H238 0.931 . S
C217 C212 1.356 . S
C217 C216 1.409 . S
C217 H239 0.930 . S
C218 O228 1.270 . S
C218 O229 1.248 . S
C219 O230 1.267 . S
C219 O231 1.278 . S
O220 Pr200 2.562 . S
O220 C202 1.254 . S
O221 Pr200 2.490 . S
O221 C202 1.225 . S
O222 Pr200 2.695 . S
O222 Pr201 2.436 . S
O222 C209 1.270 . S
O223 Pr200 2.512 . S
O223 C209 1.248 . S
O224 Pr201 2.438 . S
O224 C210 1.267 . S
O225 Pr200 2.437 . S
O225 C210 1.278 . S
O226 Pr201 2.562 . S
O226 C211 1.254 . S
O227 Pr201 2.490 . S
O227 C211 1.225 . S
O228 Pr200 2.436 . S
O228 Pr201 2.695 . S
O228 C218 1.270 . S
O229 Pr201 2.512 . S
O229 C218 1.248 . S
O230 Pr200 2.438 . S
O230 C219 1.267 . S
O231 Pr201 2.437 . S
O231 C219 1.278 . S
H232 C204 0.929 . S
H233 C205 0.915 1_545 S
H234 C207 0.931 . S
H235 C208 0.930 . S
H236 C213 0.929 . S
H237 C214 0.929 . S
H238 C216 0.931 . S
H239 C217 0.930 . S
Pr240 C242 2.880 . S
Pr240 O260 2.562 . S
Pr240 O261 2.490 . S
Pr240 O262 2.695 . S
Pr240 O263 2.512 . S
Pr240 O265 2.437 . S
Pr240 O268 2.436 . S
Pr240 O270 2.438 . S
Pr241 C251 2.880 . S
Pr241 O262 2.436 . S
Pr241 O264 2.438 . S
Pr241 O266 2.562 . S
Pr241 O267 2.490 . S
Pr241 O268 2.695 . S
Pr241 O269 2.512 . S
Pr241 O271 2.437 . S
C242 Pr240 2.880 . S
C242 C243 1.491 . S
C242 O260 1.254 . S
C242 O261 1.225 . S
C243 C242 1.491 . S
C243 C244 1.392 . S
C243 C248 1.356 . S
C244 C243 1.392 . S
C244 C245 1.368 . S
C244 H272 0.929 . S
C245 C244 1.368 . S
C245 C246 1.386 . S
C245 H273 0.929 . S
C246 C245 1.386 . S
C246 C247 1.373 . S
C247 C246 1.373 . S
C247 C248 1.409 . S
C247 H274 0.931 . S
C248 C243 1.356 . S
C248 C247 1.409 . S
C248 H275 0.930 . S
C249 O262 1.270 . S
C249 O263 1.248 . S
C250 O264 1.267 . S
C250 O265 1.278 . S
C251 Pr241 2.880 . S
C251 C252 1.491 . S
C251 O266 1.254 . S
C251 O267 1.225 . S
C252 C251 1.491 . S
C252 C253 1.392 . S
C252 C257 1.356 . S
C253 C252 1.392 . S
C253 C254 1.368 . S
C253 H276 0.929 . S
C254 C253 1.368 . S
C254 C255 1.386 . S
C254 H277 0.929 . S
C255 C254 1.386 . S
C255 C256 1.373 . S
C256 C255 1.373 . S
C256 C257 1.409 . S
C256 H278 0.931 . S
C257 C252 1.356 . S
C257 C256 1.409 . S
C257 H279 0.930 . S
C258 O268 1.270 . S
C258 O269 1.248 . S
C259 O270 1.267 . S
C259 O271 1.278 . S
O260 Pr240 2.562 . S
O260 C242 1.254 . S
O261 Pr240 2.490 . S
O261 C242 1.225 . S
O262 Pr240 2.695 . S
O262 Pr241 2.436 . S
O262 C249 1.270 . S
O263 Pr240 2.512 . S
O263 C249 1.248 . S
O264 Pr241 2.438 . S
O264 C250 1.267 . S
O265 Pr240 2.437 . S
O265 C250 1.278 . S
O266 Pr241 2.562 . S
O266 C251 1.254 . S
O267 Pr241 2.490 . S
O267 C251 1.225 . S
O268 Pr240 2.436 . S
O268 Pr241 2.695 . S
O268 C258 1.270 . S
O269 Pr241 2.512 . S
O269 C258 1.248 . S
O270 Pr240 2.438 . S
O270 C259 1.267 . S
O271 Pr241 2.437 . S
O271 C259 1.278 . S
H272 C244 0.929 . S
H273 C245 0.929 . S
H274 C247 0.931 . S
H275 C248 0.930 . S
H276 C253 0.929 . S
H277 C254 0.929 . S
H278 C256 0.931 . S
H279 C257 0.930 . S
Pr280 C282 2.880 1_556 S
Pr280 O300 2.562 1_556 S
Pr280 O301 2.490 . S
Pr280 O302 2.695 . S
Pr280 O303 2.512 . S
Pr280 O305 2.437 1_556 S
Pr280 O308 2.436 . S
Pr280 O310 2.438 . S
Pr281 C291 2.880 . S
Pr281 O302 2.436 . S
Pr281 O304 2.438 1_556 S
Pr281 O306 2.562 . S
Pr281 O307 2.490 . S
Pr281 O308 2.695 . S
Pr281 O309 2.512 . S
Pr281 O311 2.437 . S
C282 Pr280 2.880 1_554 S
C282 C283 1.491 . S
C282 O300 1.254 . S
C282 O301 1.225 1_554 S
C283 C282 1.491 . S
C283 C284 1.392 . S
C283 C288 1.356 . S
C284 C283 1.392 . S
C284 C285 1.368 . S
C284 H312 0.929 . S
C285 C284 1.368 . S
C285 C286 1.386 . S
C285 H313 0.915 1_545 S
C286 C285 1.386 . S
C286 C287 1.373 . S
C287 C286 1.373 . S
C287 C288 1.409 . S
C287 H314 0.931 . S
C288 C283 1.356 . S
C288 C287 1.409 . S
C288 H315 0.930 . S
C289 O302 1.270 . S
C289 O303 1.248 . S
C290 O304 1.267 . S
C290 O305 1.278 . S
C291 Pr281 2.880 . S
C291 C292 1.491 . S
C291 O306 1.254 . S
C291 O307 1.225 . S
C292 C291 1.491 . S
C292 C293 1.392 . S
C292 C297 1.356 . S
C293 C292 1.392 . S
C293 C294 1.368 . S
C293 H316 0.929 . S
C294 C293 1.368 . S
C294 C295 1.386 . S
C294 H317 0.929 . S
C295 C294 1.386 . S
C295 C296 1.373 . S
C296 C295 1.373 . S
C296 C297 1.409 . S
C296 H318 0.931 . S
C297 C292 1.356 . S
C297 C296 1.409 . S
C297 H319 0.930 . S
C298 O308 1.270 . S
C298 O309 1.248 . S
C299 O310 1.267 . S
C299 O311 1.278 . S
O300 Pr280 2.562 1_554 S
O300 C282 1.254 . S
O301 Pr280 2.490 . S
O301 C282 1.225 1_556 S
O302 Pr280 2.695 . S
O302 Pr281 2.436 . S
O302 C289 1.270 . S
O303 Pr280 2.512 . S
O303 C289 1.248 . S
O304 Pr281 2.438 1_554 S
O304 C290 1.267 . S
O305 Pr280 2.437 1_554 S
O305 C290 1.278 . S
O306 Pr281 2.562 . S
O306 C291 1.254 . S
O307 Pr281 2.490 . S
O307 C291 1.225 . S
O308 Pr280 2.436 . S
O308 Pr281 2.695 . S
O308 C298 1.270 . S
O309 Pr281 2.512 . S
O309 C298 1.248 . S
O310 Pr280 2.438 . S
O310 C299 1.267 . S
O311 Pr281 2.437 . S
O311 C299 1.278 . S
H312 C284 0.929 . S
H313 C285 0.915 1_565 S
H314 C287 0.931 . S
H315 C288 0.930 . S
H316 C293 0.929 . S
H317 C294 0.929 . S
H318 C296 0.931 . S
H319 C297 0.930 . S
Pr320 C322 2.880 . S
Pr320 O340 2.562 . S
Pr320 O341 2.490 . S
Pr320 O342 2.695 . S
Pr320 O343 2.512 . S
Pr320 O345 2.437 . S
Pr320 O348 2.436 . S
Pr320 O350 2.438 . S
Pr321 C331 2.880 . S
Pr321 O342 2.436 . S
Pr321 O344 2.438 . S
Pr321 O346 2.562 . S
Pr321 O347 2.490 . S
Pr321 O348 2.695 . S
Pr321 O349 2.512 . S
Pr321 O351 2.437 . S
C322 Pr320 2.880 . S
C322 C323 1.491 . S
C322 O340 1.254 . S
C322 O341 1.225 . S
C323 C322 1.491 . S
C323 C324 1.392 . S
C323 C328 1.356 . S
C324 C323 1.392 . S
C324 C325 1.368 . S
C324 H352 0.929 . S
C325 C324 1.368 . S
C325 C326 1.386 . S
C325 H353 0.929 . S
C326 C325 1.386 . S
C326 C327 1.373 . S
C327 C326 1.373 . S
C327 C328 1.409 . S
C327 H354 0.931 . S
C328 C323 1.356 . S
C328 C327 1.409 . S
C328 H355 0.930 . S
C329 O342 1.270 . S
C329 O343 1.248 . S
C330 O344 1.267 . S
C330 O345 1.278 . S
C331 Pr321 2.880 . S
C331 C332 1.491 . S
C331 O346 1.254 . S
C331 O347 1.225 . S
C332 C331 1.491 . S
C332 C333 1.392 . S
C332 C337 1.356 . S
C333 C332 1.392 . S
C333 C334 1.368 . S
C333 H356 0.929 . S
C334 C333 1.368 . S
C334 C335 1.386 . S
C334 H357 0.929 . S
C335 C334 1.386 . S
C335 C336 1.373 . S
C336 C335 1.373 . S
C336 C337 1.409 . S
C336 H358 0.931 . S
C337 C332 1.356 . S
C337 C336 1.409 . S
C337 H359 0.930 . S
C338 O348 1.270 . S
C338 O349 1.248 . S
C339 O350 1.267 . S
C339 O351 1.278 . S
O340 Pr320 2.562 . S
O340 C322 1.254 . S
O341 Pr320 2.490 . S
O341 C322 1.225 . S
O342 Pr320 2.695 . S
O342 Pr321 2.436 . S
O342 C329 1.270 . S
O343 Pr320 2.512 . S
O343 C329 1.248 . S
O344 Pr321 2.438 . S
O344 C330 1.267 . S
O345 Pr320 2.437 . S
O345 C330 1.278 . S
O346 Pr321 2.562 . S
O346 C331 1.254 . S
O347 Pr321 2.490 . S
O347 C331 1.225 . S
O348 Pr320 2.436 . S
O348 Pr321 2.695 . S
O348 C338 1.270 . S
O349 Pr321 2.512 . S
O349 C338 1.248 . S
O350 Pr320 2.438 . S
O350 C339 1.267 . S
O351 Pr321 2.437 . S
O351 C339 1.278 . S
H352 C324 0.929 . S
H353 C325 0.929 . S
H354 C327 0.931 . S
H355 C328 0.930 . S
H356 C333 0.929 . S
H357 C334 0.929 . S
H358 C336 0.931 . S
H359 C337 0.930 . S
Pr360 C362 2.880 . S
Pr360 O380 2.562 . S
Pr360 O381 2.490 . S
Pr360 O382 2.695 . S
Pr360 O383 2.512 . S
Pr360 O385 2.437 . S
Pr360 O388 2.436 . S
Pr360 O390 2.438 . S
Pr361 C371 2.880 . S
Pr361 O382 2.436 . S
Pr361 O384 2.438 . S
Pr361 O386 2.562 . S
Pr361 O387 2.490 . S
Pr361 O388 2.695 . S
Pr361 O389 2.512 . S
Pr361 O391 2.437 . S
C362 Pr360 2.880 . S
C362 C363 1.491 . S
C362 O380 1.254 . S
C362 O381 1.225 . S
C363 C362 1.491 . S
C363 C364 1.392 . S
C363 C368 1.356 . S
C364 C363 1.392 . S
C364 C365 1.368 . S
C364 H392 0.929 . S
C365 C364 1.368 . S
C365 C366 1.386 . S
C365 H393 0.929 . S
C366 C365 1.386 . S
C366 C367 1.373 . S
C367 C366 1.373 . S
C367 C368 1.409 . S
C367 H394 0.931 . S
C368 C363 1.356 . S
C368 C367 1.409 . S
C368 H395 0.930 . S
C369 O382 1.270 . S
C369 O383 1.248 . S
C370 O384 1.267 . S
C370 O385 1.278 . S
C371 Pr361 2.880 . S
C371 C372 1.491 . S
C371 O386 1.254 . S
C371 O387 1.225 . S
C372 C371 1.491 . S
C372 C373 1.392 . S
C372 C377 1.356 . S
C373 C372 1.392 . S
C373 C374 1.368 . S
C373 H396 0.929 . S
C374 C373 1.368 . S
C374 C375 1.386 . S
C374 H397 0.915 1_545 S
C375 C374 1.386 . S
C375 C376 1.373 . S
C376 C375 1.373 . S
C376 C377 1.409 . S
C376 H398 0.931 . S
C377 C372 1.356 . S
C377 C376 1.409 . S
C377 H399 0.930 . S
C378 O388 1.270 . S
C378 O389 1.248 . S
C379 O390 1.267 . S
C379 O391 1.278 . S
O380 Pr360 2.562 . S
O380 C362 1.254 . S
O381 Pr360 2.490 . S
O381 C362 1.225 . S
O382 Pr360 2.695 . S
O382 Pr361 2.436 . S
O382 C369 1.270 . S
O383 Pr360 2.512 . S
O383 C369 1.248 . S
O384 Pr361 2.438 . S
O384 C370 1.267 . S
O385 Pr360 2.437 . S
O385 C370 1.278 . S
O386 Pr361 2.562 . S
O386 C371 1.254 . S
O387 Pr361 2.490 . S
O387 C371 1.225 . S
O388 Pr360 2.436 . S
O388 Pr361 2.695 . S
O388 C378 1.270 . S
O389 Pr361 2.512 . S
O389 C378 1.248 . S
O390 Pr360 2.438 . S
O390 C379 1.267 . S
O391 Pr361 2.437 . S
O391 C379 1.278 . S
H392 C364 0.929 . S
H393 C365 0.929 . S
H394 C367 0.931 . S
H395 C368 0.930 . S
H396 C373 0.929 . S
H397 C374 0.915 1_565 S
H398 C376 0.931 . S
H399 C377 0.930 . S
Pr400 C402 2.880 . S
Pr400 O420 2.562 . S
Pr400 O421 2.490 . S
Pr400 O422 2.695 . S
Pr400 O423 2.512 . S
Pr400 O425 2.437 . S
Pr400 O428 2.436 . S
Pr400 O430 2.438 . S
Pr401 C411 2.880 . S
Pr401 O422 2.436 . S
Pr401 O424 2.438 . S
Pr401 O426 2.562 . S
Pr401 O427 2.490 . S
Pr401 O428 2.695 . S
Pr401 O429 2.512 . S
Pr401 O431 2.437 . S
C402 Pr400 2.880 . S
C402 C403 1.491 . S
C402 O420 1.254 . S
C402 O421 1.225 . S
C403 C402 1.491 . S
C403 C404 1.392 . S
C403 C408 1.356 . S
C404 C403 1.392 . S
C404 C405 1.368 . S
C404 H432 0.929 . S
C405 C404 1.368 . S
C405 C406 1.386 . S
C405 H433 0.929 . S
C406 C405 1.386 . S
C406 C407 1.373 . S
C407 C406 1.373 . S
C407 C408 1.409 . S
C407 H434 0.931 . S
C408 C403 1.356 . S
C408 C407 1.409 . S
C408 H435 0.930 . S
C409 O422 1.270 . S
C409 O423 1.248 . S
C410 O424 1.267 . S
C410 O425 1.278 . S
C411 Pr401 2.880 . S
C411 C412 1.491 . S
C411 O426 1.254 . S
C411 O427 1.225 . S
C412 C411 1.491 . S
C412 C413 1.392 . S
C412 C417 1.356 . S
C413 C412 1.392 . S
C413 C414 1.368 . S
C413 H436 0.929 . S
C414 C413 1.368 . S
C414 C415 1.386 . S
C414 H437 0.929 . S
C415 C414 1.386 . S
C415 C416 1.373 . S
C416 C415 1.373 . S
C416 C417 1.409 . S
C416 H438 0.931 . S
C417 C412 1.356 . S
C417 C416 1.409 . S
C417 H439 0.930 . S
C418 O428 1.270 . S
C418 O429 1.248 . S
C419 O430 1.267 . S
C419 O431 1.278 . S
O420 Pr400 2.562 . S
O420 C402 1.254 . S
O421 Pr400 2.490 . S
O421 C402 1.225 . S
O422 Pr400 2.695 . S
O422 Pr401 2.436 . S
O422 C409 1.270 . S
O423 Pr400 2.512 . S
O423 C409 1.248 . S
O424 Pr401 2.438 . S
O424 C410 1.267 . S
O425 Pr400 2.437 . S
O425 C410 1.278 . S
O426 Pr401 2.562 . S
O426 C411 1.254 . S
O427 Pr401 2.490 . S
O427 C411 1.225 . S
O428 Pr400 2.436 . S
O428 Pr401 2.695 . S
O428 C418 1.270 . S
O429 Pr401 2.512 . S
O429 C418 1.248 . S
O430 Pr400 2.438 . S
O430 C419 1.267 . S
O431 Pr401 2.437 . S
O431 C419 1.278 . S
H432 C404 0.929 . S
H433 C405 0.929 . S
H434 C407 0.931 . S
H435 C408 0.930 . S
H436 C413 0.929 . S
H437 C414 0.929 . S
H438 C416 0.931 . S
H439 C417 0.930 . S
Pr440 C442 2.880 . S
Pr440 O460 2.562 . S
Pr440 O461 2.490 . S
Pr440 O462 2.695 . S
Pr440 O463 2.512 . S
Pr440 O465 2.437 . S
Pr440 O468 2.436 . S
Pr440 O470 2.438 1_556 S
Pr441 C451 2.880 1_556 S
Pr441 O462 2.436 . S
Pr441 O464 2.438 . S
Pr441 O466 2.562 1_556 S
Pr441 O467 2.490 . S
Pr441 O468 2.695 . S
Pr441 O469 2.512 . S
Pr441 O471 2.437 1_556 S
C442 Pr440 2.880 . S
C442 C443 1.491 . S
C442 O460 1.254 . S
C442 O461 1.225 . S
C443 C442 1.491 . S
C443 C444 1.392 . S
C443 C448 1.356 . S
C444 C443 1.392 . S
C444 C445 1.368 . S
C444 H472 0.929 . S
C445 C444 1.368 . S
C445 C446 1.386 . S
C445 H473 0.929 . S
C446 C445 1.386 . S
C446 C447 1.373 . S
C447 C446 1.373 . S
C447 C448 1.409 . S
C447 H474 0.931 . S
C448 C443 1.356 . S
C448 C447 1.409 . S
C448 H475 0.930 . S
C449 O462 1.270 . S
C449 O463 1.248 . S
C450 O464 1.267 . S
C450 O465 1.278 . S
C451 Pr441 2.880 1_554 S
C451 C452 1.491 . S
C451 O466 1.254 . S
C451 O467 1.225 1_554 S
C452 C451 1.491 . S
C452 C453 1.392 . S
C452 C457 1.356 . S
C453 C452 1.392 . S
C453 C454 1.368 . S
C453 H476 0.929 . S
C454 C453 1.368 . S
C454 C455 1.386 . S
C454 H477 0.915 1_565 S
C455 C454 1.386 . S
C455 C456 1.373 . S
C456 C455 1.373 . S
C456 C457 1.409 . S
C456 H478 0.931 . S
C457 C452 1.356 . S
C457 C456 1.409 . S
C457 H479 0.930 . S
C458 O468 1.270 . S
C458 O469 1.248 . S
C459 O470 1.267 . S
C459 O471 1.278 . S
O460 Pr440 2.562 . S
O460 C442 1.254 . S
O461 Pr440 2.490 . S
O461 C442 1.225 . S
O462 Pr440 2.695 . S
O462 Pr441 2.436 . S
O462 C449 1.270 . S
O463 Pr440 2.512 . S
O463 C449 1.248 . S
O464 Pr441 2.438 . S
O464 C450 1.267 . S
O465 Pr440 2.437 . S
O465 C450 1.278 . S
O466 Pr441 2.562 1_554 S
O466 C451 1.254 . S
O467 Pr441 2.490 . S
O467 C451 1.225 1_556 S
O468 Pr440 2.436 . S
O468 Pr441 2.695 . S
O468 C458 1.270 . S
O469 Pr441 2.512 . S
O469 C458 1.248 . S
O470 Pr440 2.438 1_554 S
O470 C459 1.267 . S
O471 Pr441 2.437 1_554 S
O471 C459 1.278 . S
H472 C444 0.929 . S
H473 C445 0.929 . S
H474 C447 0.931 . S
H475 C448 0.930 . S
H476 C453 0.929 . S
H477 C454 0.915 1_545 S
H478 C456 0.931 . S
H479 C457 0.930 . S
Pr480 C482 2.880 . S
Pr480 O500 2.562 . S
Pr480 O501 2.490 . S
Pr480 O502 2.695 . S
Pr480 O503 2.512 . S
Pr480 O505 2.437 . S
Pr480 O508 2.436 . S
Pr480 O510 2.438 . S
Pr481 C491 2.880 . S
Pr481 O502 2.436 . S
Pr481 O504 2.438 . S
Pr481 O506 2.562 . S
Pr481 O507 2.490 . S
Pr481 O508 2.695 . S
Pr481 O509 2.512 . S
Pr481 O511 2.437 . S
C482 Pr480 2.880 . S
C482 C483 1.491 . S
C482 O500 1.254 . S
C482 O501 1.225 . S
C483 C482 1.491 . S
C483 C484 1.392 . S
C483 C488 1.356 . S
C484 C483 1.392 . S
C484 C485 1.368 . S
C484 H512 0.929 . S
C485 C484 1.368 . S
C485 C486 1.386 . S
C485 H513 0.929 . S
C486 C485 1.386 . S
C486 C487 1.373 . S
C487 C486 1.373 . S
C487 C488 1.409 . S
C487 H514 0.931 . S
C488 C483 1.356 . S
C488 C487 1.409 . S
C488 H515 0.930 . S
C489 O502 1.270 . S
C489 O503 1.248 . S
C490 O504 1.267 . S
C490 O505 1.278 . S
C491 Pr481 2.880 . S
C491 C492 1.491 . S
C491 O506 1.254 . S
C491 O507 1.225 . S
C492 C491 1.491 . S
C492 C493 1.392 . S
C492 C497 1.356 . S
C493 C492 1.392 . S
C493 C494 1.368 . S
C493 H516 0.929 . S
C494 C493 1.368 . S
C494 C495 1.386 . S
C494 H517 0.929 . S
C495 C494 1.386 . S
C495 C496 1.373 . S
C496 C495 1.373 . S
C496 C497 1.409 . S
C496 H518 0.931 . S
C497 C492 1.356 . S
C497 C496 1.409 . S
C497 H519 0.930 . S
C498 O508 1.270 . S
C498 O509 1.248 . S
C499 O510 1.267 . S
C499 O511 1.278 . S
O500 Pr480 2.562 . S
O500 C482 1.254 . S
O501 Pr480 2.490 . S
O501 C482 1.225 . S
O502 Pr480 2.695 . S
O502 Pr481 2.436 . S
O502 C489 1.270 . S
O503 Pr480 2.512 . S
O503 C489 1.248 . S
O504 Pr481 2.438 . S
O504 C490 1.267 . S
O505 Pr480 2.437 . S
O505 C490 1.278 . S
O506 Pr481 2.562 . S
O506 C491 1.254 . S
O507 Pr481 2.490 . S
O507 C491 1.225 . S
O508 Pr480 2.436 . S
O508 Pr481 2.695 . S
O508 C498 1.270 . S
O509 Pr481 2.512 . S
O509 C498 1.248 . S
O510 Pr480 2.438 . S
O510 C499 1.267 . S
O511 Pr481 2.437 . S
O511 C499 1.278 . S
H512 C484 0.929 . S
H513 C485 0.929 . S
H514 C487 0.931 . S
H515 C488 0.930 . S
H516 C493 0.929 . S
H517 C494 0.929 . S
H518 C496 0.931 . S
H519 C497 0.930 . S
Pr520 C522 2.880 . S
Pr520 O540 2.562 . S
Pr520 O541 2.490 . S
Pr520 O542 2.695 . S
Pr520 O543 2.512 . S
Pr520 O545 2.437 . S
Pr520 O548 2.436 . S
Pr520 O550 2.438 . S
Pr521 C531 2.880 . S
Pr521 O542 2.436 . S
Pr521 O544 2.438 . S
Pr521 O546 2.562 . S
Pr521 O547 2.490 . S
Pr521 O548 2.695 . S
Pr521 O549 2.512 . S
Pr521 O551 2.437 . S
C522 Pr520 2.880 . S
C522 C523 1.491 . S
C522 O540 1.254 . S
C522 O541 1.225 . S
C523 C522 1.491 . S
C523 C524 1.392 . S
C523 C528 1.356 . S
C524 C523 1.392 . S
C524 C525 1.368 . S
C524 H552 0.929 . S
C525 C524 1.368 . S
C525 C526 1.386 . S
C525 H553 0.929 . S
C526 C525 1.386 . S
C526 C527 1.373 . S
C527 C526 1.373 . S
C527 C528 1.409 . S
C527 H554 0.931 . S
C528 C523 1.356 . S
C528 C527 1.409 . S
C528 H555 0.930 . S
C529 O542 1.270 . S
C529 O543 1.248 . S
C530 O544 1.267 . S
C530 O545 1.278 . S
C531 Pr521 2.880 . S
C531 C532 1.491 . S
C531 O546 1.254 . S
C531 O547 1.225 . S
C532 C531 1.491 . S
C532 C533 1.392 . S
C532 C537 1.356 . S
C533 C532 1.392 . S
C533 C534 1.368 . S
C533 H556 0.929 . S
C534 C533 1.368 . S
C534 C535 1.386 . S
C534 H557 0.915 1_545 S
C535 C534 1.386 . S
C535 C536 1.373 . S
C536 C535 1.373 . S
C536 C537 1.409 . S
C536 H558 0.931 . S
C537 C532 1.356 . S
C537 C536 1.409 . S
C537 H559 0.930 . S
C538 O548 1.270 . S
C538 O549 1.248 . S
C539 O550 1.267 . S
C539 O551 1.278 . S
O540 Pr520 2.562 . S
O540 C522 1.254 . S
O541 Pr520 2.490 . S
O541 C522 1.225 . S
O542 Pr520 2.695 . S
O542 Pr521 2.436 . S
O542 C529 1.270 . S
O543 Pr520 2.512 . S
O543 C529 1.248 . S
O544 Pr521 2.438 . S
O544 C530 1.267 . S
O545 Pr520 2.437 . S
O545 C530 1.278 . S
O546 Pr521 2.562 . S
O546 C531 1.254 . S
O547 Pr521 2.490 . S
O547 C531 1.225 . S
O548 Pr520 2.436 . S
O548 Pr521 2.695 . S
O548 C538 1.270 . S
O549 Pr521 2.512 . S
O549 C538 1.248 . S
O550 Pr520 2.438 . S
O550 C539 1.267 . S
O551 Pr521 2.437 . S
O551 C539 1.278 . S
H552 C524 0.929 . S
H553 C525 0.929 . S
H554 C527 0.931 . S
H555 C528 0.930 . S
H556 C533 0.929 . S
H557 C534 0.915 1_565 S
H558 C536 0.931 . S
H559 C537 0.930 . S
Pr560 C562 2.880 . S
Pr560 O580 2.562 . S
Pr560 O581 2.490 . S
Pr560 O582 2.695 . S
Pr560 O583 2.512 . S
Pr560 O585 2.437 . S
Pr560 O588 2.436 . S
Pr560 O590 2.438 . S
Pr561 C571 2.880 . S
Pr561 O582 2.436 . S
Pr561 O584 2.438 . S
Pr561 O586 2.562 . S
Pr561 O587 2.490 . S
Pr561 O588 2.695 . S
Pr561 O589 2.512 . S
Pr561 O591 2.437 . S
C562 Pr560 2.880 . S
C562 C563 1.491 . S
C562 O580 1.254 . S
C562 O581 1.225 . S
C563 C562 1.491 . S
C563 C564 1.392 . S
C563 C568 1.356 . S
C564 C563 1.392 . S
C564 C565 1.368 . S
C564 H592 0.929 . S
C565 C564 1.368 . S
C565 C566 1.386 . S
C565 H593 0.929 . S
C566 C565 1.386 . S
C566 C567 1.373 . S
C567 C566 1.373 . S
C567 C568 1.409 . S
C567 H594 0.931 . S
C568 C563 1.356 . S
C568 C567 1.409 . S
C568 H595 0.930 . S
C569 O582 1.270 . S
C569 O583 1.248 . S
C570 O584 1.267 . S
C570 O585 1.278 . S
C571 Pr561 2.880 . S
C571 C572 1.491 . S
C571 O586 1.254 . S
C571 O587 1.225 . S
C572 C571 1.491 . S
C572 C573 1.392 . S
C572 C577 1.356 . S
C573 C572 1.392 . S
C573 C574 1.368 . S
C573 H596 0.929 . S
C574 C573 1.368 . S
C574 C575 1.386 . S
C574 H597 0.929 . S
C575 C574 1.386 . S
C575 C576 1.373 . S
C576 C575 1.373 . S
C576 C577 1.409 . S
C576 H598 0.931 . S
C577 C572 1.356 . S
C577 C576 1.409 . S
C577 H599 0.930 . S
C578 O588 1.270 . S
C578 O589 1.248 . S
C579 O590 1.267 . S
C579 O591 1.278 . S
O580 Pr560 2.562 . S
O580 C562 1.254 . S
O581 Pr560 2.490 . S
O581 C562 1.225 . S
O582 Pr560 2.695 . S
O582 Pr561 2.436 . S
O582 C569 1.270 . S
O583 Pr560 2.512 . S
O583 C569 1.248 . S
O584 Pr561 2.438 . S
O584 C570 1.267 . S
O585 Pr560 2.437 . S
O585 C570 1.278 . S
O586 Pr561 2.562 . S
O586 C571 1.254 . S
O587 Pr561 2.490 . S
O587 C571 1.225 . S
O588 Pr560 2.436 . S
O588 Pr561 2.695 . S
O588 C578 1.270 . S
O589 Pr561 2.512 . S
O589 C578 1.248 . S
O590 Pr560 2.438 . S
O590 C579 1.267 . S
O591 Pr561 2.437 . S
O591 C579 1.278 . S
H592 C564 0.929 . S
H593 C565 0.929 . S
H594 C567 0.931 . S
H595 C568 0.930 . S
H596 C573 0.929 . S
H597 C574 0.929 . S
H598 C576 0.931 . S
H599 C577 0.930 . S
Pr600 C602 2.880 . S
Pr600 O620 2.562 . S
Pr600 O621 2.490 . S
Pr600 O622 2.695 . S
Pr600 O623 2.512 . S
Pr600 O625 2.437 . S
Pr600 O628 2.436 . S
Pr600 O630 2.438 1_554 S
Pr601 C611 2.880 1_554 S
Pr601 O622 2.436 . S
Pr601 O624 2.438 . S
Pr601 O626 2.562 1_554 S
Pr601 O627 2.490 . S
Pr601 O628 2.695 . S
Pr601 O629 2.512 . S
Pr601 O631 2.437 1_554 S
C602 Pr600 2.880 . S
C602 C603 1.491 . S
C602 O620 1.254 . S
C602 O621 1.225 . S
C603 C602 1.491 . S
C603 C604 1.392 . S
C603 C608 1.356 . S
C604 C603 1.392 . S
C604 C605 1.368 . S
C604 H632 0.929 . S
C605 C604 1.368 . S
C605 C606 1.386 . S
C605 H633 0.929 . S
C606 C605 1.386 . S
C606 C607 1.373 . S
C607 C606 1.373 . S
C607 C608 1.409 . S
C607 H634 0.931 . S
C608 C603 1.356 . S
C608 C607 1.409 . S
C608 H635 0.930 . S
C609 O622 1.270 . S
C609 O623 1.248 . S
C610 O624 1.267 . S
C610 O625 1.278 . S
C611 Pr601 2.880 1_556 S
C611 C612 1.491 . S
C611 O626 1.254 . S
C611 O627 1.225 1_556 S
C612 C611 1.491 . S
C612 C613 1.392 . S
C612 C617 1.356 . S
C613 C612 1.392 . S
C613 C614 1.368 . S
C613 H636 0.929 . S
C614 C613 1.368 . S
C614 C615 1.386 . S
C614 H637 0.915 1_565 S
C615 C614 1.386 . S
C615 C616 1.373 . S
C616 C615 1.373 . S
C616 C617 1.409 . S
C616 H638 0.931 . S
C617 C612 1.356 . S
C617 C616 1.409 . S
C617 H639 0.930 . S
C618 O628 1.270 . S
C618 O629 1.248 . S
C619 O630 1.267 . S
C619 O631 1.278 . S
O620 Pr600 2.562 . S
O620 C602 1.254 . S
O621 Pr600 2.490 . S
O621 C602 1.225 . S
O622 Pr600 2.695 . S
O622 Pr601 2.436 . S
O622 C609 1.270 . S
O623 Pr600 2.512 . S
O623 C609 1.248 . S
O624 Pr601 2.438 . S
O624 C610 1.267 . S
O625 Pr600 2.437 . S
O625 C610 1.278 . S
O626 Pr601 2.562 1_556 S
O626 C611 1.254 . S
O627 Pr601 2.490 . S
O627 C611 1.225 1_554 S
O628 Pr600 2.436 . S
O628 Pr601 2.695 . S
O628 C618 1.270 . S
O629 Pr601 2.512 . S
O629 C618 1.248 . S
O630 Pr600 2.438 1_556 S
O630 C619 1.267 . S
O631 Pr601 2.437 1_556 S
O631 C619 1.278 . S
H632 C604 0.929 . S
H633 C605 0.929 . S
H634 C607 0.931 . S
H635 C608 0.930 . S
H636 C613 0.929 . S
H637 C614 0.915 1_545 S
H638 C616 0.931 . S
H639 C617 0.930 . S
Pr640 C642 2.880 . S
Pr640 O660 2.562 . S
Pr640 O661 2.490 . S
Pr640 O662 2.695 . S
Pr640 O663 2.512 . S
Pr640 O665 2.437 . S
Pr640 O668 2.436 . S
Pr640 O670 2.438 . S
Pr641 C651 2.880 . S
Pr641 O662 2.436 . S
Pr641 O664 2.438 . S
Pr641 O666 2.562 . S
Pr641 O667 2.490 . S
Pr641 O668 2.695 . S
Pr641 O669 2.512 . S
Pr641 O671 2.437 . S
C642 Pr640 2.880 . S
C642 C643 1.491 . S
C642 O660 1.254 . S
C642 O661 1.225 . S
C643 C642 1.491 . S
C643 C644 1.392 . S
C643 C648 1.356 . S
C644 C643 1.392 . S
C644 C645 1.368 . S
C644 H672 0.929 . S
C645 C644 1.368 . S
C645 C646 1.386 . S
C645 H673 0.929 . S
C646 C645 1.386 . S
C646 C647 1.373 . S
C647 C646 1.373 . S
C647 C648 1.409 . S
C647 H674 0.931 . S
C648 C643 1.356 . S
C648 C647 1.409 . S
C648 H675 0.930 . S
C649 O662 1.270 . S
C649 O663 1.248 . S
C650 O664 1.267 . S
C650 O665 1.278 . S
C651 Pr641 2.880 . S
C651 C652 1.491 . S
C651 O666 1.254 . S
C651 O667 1.225 . S
C652 C651 1.491 . S
C652 C653 1.392 . S
C652 C657 1.356 . S
C653 C652 1.392 . S
C653 C654 1.368 . S
C653 H676 0.929 . S
C654 C653 1.368 . S
C654 C655 1.386 . S
C654 H677 0.929 . S
C655 C654 1.386 . S
C655 C656 1.373 . S
C656 C655 1.373 . S
C656 C657 1.409 . S
C656 H678 0.931 . S
C657 C652 1.356 . S
C657 C656 1.409 . S
C657 H679 0.930 . S
C658 O668 1.270 . S
C658 O669 1.248 . S
C659 O670 1.267 . S
C659 O671 1.278 . S
O660 Pr640 2.562 . S
O660 C642 1.254 . S
O661 Pr640 2.490 . S
O661 C642 1.225 . S
O662 Pr640 2.695 . S
O662 Pr641 2.436 . S
O662 C649 1.270 . S
O663 Pr640 2.512 . S
O663 C649 1.248 . S
O664 Pr641 2.438 . S
O664 C650 1.267 . S
O665 Pr640 2.437 . S
O665 C650 1.278 . S
O666 Pr641 2.562 . S
O666 C651 1.254 . S
O667 Pr641 2.490 . S
O667 C651 1.225 . S
O668 Pr640 2.436 . S
O668 Pr641 2.695 . S
O668 C658 1.270 . S
O669 Pr641 2.512 . S
O669 C658 1.248 . S
O670 Pr640 2.438 . S
O670 C659 1.267 . S
O671 Pr641 2.437 . S
O671 C659 1.278 . S
H672 C644 0.929 . S
H673 C645 0.929 . S
H674 C647 0.931 . S
H675 C648 0.930 . S
H676 C653 0.929 . S
H677 C654 0.929 . S
H678 C656 0.931 . S
H679 C657 0.930 . S
Pr680 C682 2.880 1_554 S
Pr680 O700 2.562 1_554 S
Pr680 O701 2.490 . S
Pr680 O702 2.695 . S
Pr680 O703 2.512 . S
Pr680 O705 2.437 1_554 S
Pr680 O708 2.436 . S
Pr680 O710 2.438 . S
Pr681 C691 2.880 . S
Pr681 O702 2.436 . S
Pr681 O704 2.438 1_554 S
Pr681 O706 2.562 . S
Pr681 O707 2.490 . S
Pr681 O708 2.695 . S
Pr681 O709 2.512 . S
Pr681 O711 2.437 . S
C682 Pr680 2.880 1_556 S
C682 C683 1.491 . S
C682 O700 1.254 . S
C682 O701 1.225 1_556 S
C683 C682 1.491 . S
C683 C684 1.392 . S
C683 C688 1.356 . S
C684 C683 1.392 . S
C684 C685 1.368 . S
C684 H712 0.929 . S
C685 C684 1.368 . S
C685 C686 1.386 . S
C685 H713 0.929 . S
C686 C685 1.386 . S
C686 C687 1.373 . S
C687 C686 1.373 . S
C687 C688 1.409 . S
C687 H714 0.931 . S
C688 C683 1.356 . S
C688 C687 1.409 . S
C688 H715 0.930 . S
C689 O702 1.270 . S
C689 O703 1.248 . S
C690 O704 1.267 . S
C690 O705 1.278 . S
C691 Pr681 2.880 . S
C691 C692 1.491 . S
C691 O706 1.254 . S
C691 O707 1.225 . S
C692 C691 1.491 . S
C692 C693 1.392 . S
C692 C697 1.356 . S
C693 C692 1.392 . S
C693 C694 1.368 . S
C693 H716 0.929 . S
C694 C693 1.368 . S
C694 C695 1.386 . S
C694 H717 0.929 . S
C695 C694 1.386 . S
C695 C696 1.373 . S
C696 C695 1.373 . S
C696 C697 1.409 . S
C696 H718 0.931 . S
C697 C692 1.356 . S
C697 C696 1.409 . S
C697 H719 0.930 . S
C698 O708 1.270 . S
C698 O709 1.248 . S
C699 O710 1.267 . S
C699 O711 1.278 . S
O700 Pr680 2.562 1_556 S
O700 C682 1.254 . S
O701 Pr680 2.490 . S
O701 C682 1.225 1_554 S
O702 Pr680 2.695 . S
O702 Pr681 2.436 . S
O702 C689 1.270 . S
O703 Pr680 2.512 . S
O703 C689 1.248 . S
O704 Pr681 2.438 1_556 S
O704 C690 1.267 . S
O705 Pr680 2.437 1_556 S
O705 C690 1.278 . S
O706 Pr681 2.562 . S
O706 C691 1.254 . S
O707 Pr681 2.490 . S
O707 C691 1.225 . S
O708 Pr680 2.436 . S
O708 Pr681 2.695 . S
O708 C698 1.270 . S
O709 Pr681 2.512 . S
O709 C698 1.248 . S
O710 Pr680 2.438 . S
O710 C699 1.267 . S
O711 Pr681 2.437 . S
O711 C699 1.278 . S
H712 C684 0.929 . S
H713 C685 0.929 . S
H714 C687 0.931 . S
H715 C688 0.930 . S
H716 C693 0.929 . S
H717 C694 0.929 . S
H718 C696 0.931 . S
H719 C697 0.930 . S
Pr720 C722 2.880 . S
Pr720 O740 2.562 . S
Pr720 O741 2.490 . S
Pr720 O742 2.695 . S
Pr720 O743 2.512 . S
Pr720 O745 2.437 . S
Pr720 O748 2.436 . S
Pr720 O750 2.438 . S
Pr721 C731 2.880 . S
Pr721 O742 2.436 . S
Pr721 O744 2.438 . S
Pr721 O746 2.562 . S
Pr721 O747 2.490 . S
Pr721 O748 2.695 . S
Pr721 O749 2.512 . S
Pr721 O751 2.437 . S
C722 Pr720 2.880 . S
C722 C723 1.491 . S
C722 O740 1.254 . S
C722 O741 1.225 . S
C723 C722 1.491 . S
C723 C724 1.392 . S
C723 C728 1.356 . S
C724 C723 1.392 . S
C724 C725 1.368 . S
C724 H752 0.929 . S
C725 C724 1.368 . S
C725 C726 1.386 . S
C725 H753 0.929 . S
C726 C725 1.386 . S
C726 C727 1.373 . S
C727 C726 1.373 . S
C727 C728 1.409 . S
C727 H754 0.931 . S
C728 C723 1.356 . S
C728 C727 1.409 . S
C728 H755 0.930 . S
C729 O742 1.270 . S
C729 O743 1.248 . S
C730 O744 1.267 . S
C730 O745 1.278 . S
C731 Pr721 2.880 . S
C731 C732 1.491 . S
C731 O746 1.254 . S
C731 O747 1.225 . S
C732 C731 1.491 . S
C732 C733 1.392 . S
C732 C737 1.356 . S
C733 C732 1.392 . S
C733 C734 1.368 . S
C733 H756 0.929 . S
C734 C733 1.368 . S
C734 C735 1.386 . S
C734 H757 0.929 . S
C735 C734 1.386 . S
C735 C736 1.373 . S
C736 C735 1.373 . S
C736 C737 1.409 . S
C736 H758 0.931 . S
C737 C732 1.356 . S
C737 C736 1.409 . S
C737 H759 0.930 . S
C738 O748 1.270 . S
C738 O749 1.248 . S
C739 O750 1.267 . S
C739 O751 1.278 . S
O740 Pr720 2.562 . S
O740 C722 1.254 . S
O741 Pr720 2.490 . S
O741 C722 1.225 . S
O742 Pr720 2.695 . S
O742 Pr721 2.436 . S
O742 C729 1.270 . S
O743 Pr720 2.512 . S
O743 C729 1.248 . S
O744 Pr721 2.438 . S
O744 C730 1.267 . S
O745 Pr720 2.437 . S
O745 C730 1.278 . S
O746 Pr721 2.562 . S
O746 C731 1.254 . S
O747 Pr721 2.490 . S
O747 C731 1.225 . S
O748 Pr720 2.436 . S
O748 Pr721 2.695 . S
O748 C738 1.270 . S
O749 Pr721 2.512 . S
O749 C738 1.248 . S
O750 Pr720 2.438 . S
O750 C739 1.267 . S
O751 Pr721 2.437 . S
O751 C739 1.278 . S
H752 C724 0.929 . S
H753 C725 0.929 . S
H754 C727 0.931 . S
H755 C728 0.930 . S
H756 C733 0.929 . S
H757 C734 0.929 . S
H758 C736 0.931 . S
H759 C737 0.930 . S
Pr760 C762 2.880 . S
Pr760 O780 2.562 . S
Pr760 O781 2.490 . S
Pr760 O782 2.695 . S
Pr760 O783 2.512 . S
Pr760 O785 2.437 . S
Pr760 O788 2.436 . S
Pr760 O790 2.438 . S
Pr761 C771 2.880 . S
Pr761 O782 2.436 . S
Pr761 O784 2.438 . S
Pr761 O786 2.562 . S
Pr761 O787 2.490 . S
Pr761 O788 2.695 . S
Pr761 O789 2.512 . S
Pr761 O791 2.437 . S
C762 Pr760 2.880 . S
C762 C763 1.491 . S
C762 O780 1.254 . S
C762 O781 1.225 . S
C763 C762 1.491 . S
C763 C764 1.392 . S
C763 C768 1.356 . S
C764 C763 1.392 . S
C764 C765 1.368 . S
C764 H792 0.929 . S
C765 C764 1.368 . S
C765 C766 1.386 . S
C765 H793 0.929 . S
C766 C765 1.386 . S
C766 C767 1.373 . S
C767 C766 1.373 . S
C767 C768 1.409 . S
C767 H794 0.931 . S
C768 C763 1.356 . S
C768 C767 1.409 . S
C768 H795 0.930 . S
C769 O782 1.270 . S
C769 O783 1.248 . S
C770 O784 1.267 . S
C770 O785 1.278 . S
C771 Pr761 2.880 . S
C771 C772 1.491 . S
C771 O786 1.254 . S
C771 O787 1.225 . S
C772 C771 1.491 . S
C772 C773 1.392 . S
C772 C777 1.356 . S
C773 C772 1.392 . S
C773 C774 1.368 . S
C773 H796 0.929 . S
C774 C773 1.368 . S
C774 C775 1.386 . S
C774 H797 0.929 . S
C775 C774 1.386 . S
C775 C776 1.373 . S
C776 C775 1.373 . S
C776 C777 1.409 . S
C776 H798 0.931 . S
C777 C772 1.356 . S
C777 C776 1.409 . S
C777 H799 0.930 . S
C778 O788 1.270 . S
C778 O789 1.248 . S
C779 O790 1.267 . S
C779 O791 1.278 . S
O780 Pr760 2.562 . S
O780 C762 1.254 . S
O781 Pr760 2.490 . S
O781 C762 1.225 . S
O782 Pr760 2.695 . S
O782 Pr761 2.436 . S
O782 C769 1.270 . S
O783 Pr760 2.512 . S
O783 C769 1.248 . S
O784 Pr761 2.438 . S
O784 C770 1.267 . S
O785 Pr760 2.437 . S
O785 C770 1.278 . S
O786 Pr761 2.562 . S
O786 C771 1.254 . S
O787 Pr761 2.490 . S
O787 C771 1.225 . S
O788 Pr760 2.436 . S
O788 Pr761 2.695 . S
O788 C778 1.270 . S
O789 Pr761 2.512 . S
O789 C778 1.248 . S
O790 Pr760 2.438 . S
O790 C779 1.267 . S
O791 Pr761 2.437 . S
O791 C779 1.278 . S
H792 C764 0.929 . S
H793 C765 0.929 . S
H794 C767 0.931 . S
H795 C768 0.930 . S
H796 C773 0.929 . S
H797 C774 0.929 . S
H798 C776 0.931 . S
H799 C777 0.930 . S
Pr800 C802 2.880 . S
Pr800 O820 2.562 . S
Pr800 O821 2.490 . S
Pr800 O822 2.695 . S
Pr800 O823 2.512 . S
Pr800 O825 2.437 . S
Pr800 O828 2.436 . S
Pr800 O830 2.438 . S
Pr801 C811 2.880 . S
Pr801 O822 2.436 . S
Pr801 O824 2.438 . S
Pr801 O826 2.562 . S
Pr801 O827 2.490 . S
Pr801 O828 2.695 . S
Pr801 O829 2.512 . S
Pr801 O831 2.437 . S
C802 Pr800 2.880 . S
C802 C803 1.491 . S
C802 O820 1.254 . S
C802 O821 1.225 . S
C803 C802 1.491 . S
C803 C804 1.392 . S
C803 C808 1.356 . S
C804 C803 1.392 . S
C804 C805 1.368 . S
C804 H832 0.929 . S
C805 C804 1.368 . S
C805 C806 1.386 . S
C805 H833 0.929 . S
C806 C805 1.386 . S
C806 C807 1.373 . S
C807 C806 1.373 . S
C807 C808 1.409 . S
C807 H834 0.931 . S
C808 C803 1.356 . S
C808 C807 1.409 . S
C808 H835 0.930 . S
C809 O822 1.270 . S
C809 O823 1.248 . S
C810 O824 1.267 . S
C810 O825 1.278 . S
C811 Pr801 2.880 . S
C811 C812 1.491 . S
C811 O826 1.254 . S
C811 O827 1.225 . S
C812 C811 1.491 . S
C812 C813 1.392 . S
C812 C817 1.356 . S
C813 C812 1.392 . S
C813 C814 1.368 . S
C813 H836 0.929 . S
C814 C813 1.368 . S
C814 C815 1.386 . S
C814 H837 0.929 . S
C815 C814 1.386 . S
C815 C816 1.373 . S
C816 C815 1.373 . S
C816 C817 1.409 . S
C816 H838 0.931 . S
C817 C812 1.356 . S
C817 C816 1.409 . S
C817 H839 0.930 . S
C818 O828 1.270 . S
C818 O829 1.248 . S
C819 O830 1.267 . S
C819 O831 1.278 . S
O820 Pr800 2.562 . S
O820 C802 1.254 . S
O821 Pr800 2.490 . S
O821 C802 1.225 . S
O822 Pr800 2.695 . S
O822 Pr801 2.436 . S
O822 C809 1.270 . S
O823 Pr800 2.512 . S
O823 C809 1.248 . S
O824 Pr801 2.438 . S
O824 C810 1.267 . S
O825 Pr800 2.437 . S
O825 C810 1.278 . S
O826 Pr801 2.562 . S
O826 C811 1.254 . S
O827 Pr801 2.490 . S
O827 C811 1.225 . S
O828 Pr800 2.436 . S
O828 Pr801 2.695 . S
O828 C818 1.270 . S
O829 Pr801 2.512 . S
O829 C818 1.248 . S
O830 Pr800 2.438 . S
O830 C819 1.267 . S
O831 Pr801 2.437 . S
O831 C819 1.278 . S
H832 C804 0.929 . S
H833 C805 0.929 . S
H834 C807 0.931 . S
H835 C808 0.930 . S
H836 C813 0.929 . S
H837 C814 0.929 . S
H838 C816 0.931 . S
H839 C817 0.930 . S
Pr840 C842 2.880 1_556 S
Pr840 O860 2.562 1_556 S
Pr840 O861 2.490 . S
Pr840 O862 2.695 . S
Pr840 O863 2.512 . S
Pr840 O865 2.437 1_556 S
Pr840 O868 2.436 . S
Pr840 O870 2.438 . S
Pr841 C851 2.880 . S
Pr841 O862 2.436 . S
Pr841 O864 2.438 1_556 S
Pr841 O866 2.562 . S
Pr841 O867 2.490 . S
Pr841 O868 2.695 . S
Pr841 O869 2.512 . S
Pr841 O871 2.437 . S
C842 Pr840 2.880 1_554 S
C842 C843 1.491 . S
C842 O860 1.254 . S
C842 O861 1.225 1_554 S
C843 C842 1.491 . S
C843 C844 1.392 . S
C843 C848 1.356 . S
C844 C843 1.392 . S
C844 C845 1.368 . S
C844 H872 0.929 . S
C845 C844 1.368 . S
C845 C846 1.386 . S
C845 H873 0.929 . S
C846 C845 1.386 . S
C846 C847 1.373 . S
C847 C846 1.373 . S
C847 C848 1.409 . S
C847 H874 0.931 . S
C848 C843 1.356 . S
C848 C847 1.409 . S
C848 H875 0.930 . S
C849 O862 1.270 . S
C849 O863 1.248 . S
C850 O864 1.267 . S
C850 O865 1.278 . S
C851 Pr841 2.880 . S
C851 C852 1.491 . S
C851 O866 1.254 . S
C851 O867 1.225 . S
C852 C851 1.491 . S
C852 C853 1.392 . S
C852 C857 1.356 . S
C853 C852 1.392 . S
C853 C854 1.368 . S
C853 H876 0.929 . S
C854 C853 1.368 . S
C854 C855 1.386 . S
C854 H877 0.929 . S
C855 C854 1.386 . S
C855 C856 1.373 . S
C856 C855 1.373 . S
C856 C857 1.409 . S
C856 H878 0.931 . S
C857 C852 1.356 . S
C857 C856 1.409 . S
C857 H879 0.930 . S
C858 O868 1.270 . S
C858 O869 1.248 . S
C859 O870 1.267 . S
C859 O871 1.278 . S
O860 Pr840 2.562 1_554 S
O860 C842 1.254 . S
O861 Pr840 2.490 . S
O861 C842 1.225 1_556 S
O862 Pr840 2.695 . S
O862 Pr841 2.436 . S
O862 C849 1.270 . S
O863 Pr840 2.512 . S
O863 C849 1.248 . S
O864 Pr841 2.438 1_554 S
O864 C850 1.267 . S
O865 Pr840 2.437 1_554 S
O865 C850 1.278 . S
O866 Pr841 2.562 . S
O866 C851 1.254 . S
O867 Pr841 2.490 . S
O867 C851 1.225 . S
O868 Pr840 2.436 . S
O868 Pr841 2.695 . S
O868 C858 1.270 . S
O869 Pr841 2.512 . S
O869 C858 1.248 . S
O870 Pr840 2.438 . S
O870 C859 1.267 . S
O871 Pr841 2.437 . S
O871 C859 1.278 . S
H872 C844 0.929 . S
H873 C845 0.929 . S
H874 C847 0.931 . S
H875 C848 0.930 . S
H876 C853 0.929 . S
H877 C854 0.929 . S
H878 C856 0.931 . S
H879 C857 0.930 . S
Pr880 C882 2.880 . S
Pr880 O900 2.562 . S
Pr880 O901 2.490 . S
Pr880 O902 2.695 . S
Pr880 O903 2.512 . S
Pr880 O905 2.437 . S
Pr880 O908 2.436 . S
Pr880 O910 2.438 . S
Pr881 C891 2.880 . S
Pr881 O902 2.436 . S
Pr881 O904 2.438 . S
Pr881 O906 2.562 . S
Pr881 O907 2.490 . S
Pr881 O908 2.695 . S
Pr881 O909 2.512 . S
Pr881 O911 2.437 . S
C882 Pr880 2.880 . S
C882 C883 1.491 . S
C882 O900 1.254 . S
C882 O901 1.225 . S
C883 C882 1.491 . S
C883 C884 1.392 . S
C883 C888 1.356 . S
C884 C883 1.392 . S
C884 C885 1.368 . S
C884 H912 0.929 . S
C885 C884 1.368 . S
C885 C886 1.386 . S
C885 H913 0.929 . S
C886 C885 1.386 . S
C886 C887 1.373 . S
C887 C886 1.373 . S
C887 C888 1.409 . S
C887 H914 0.931 . S
C888 C883 1.356 . S
C888 C887 1.409 . S
C888 H915 0.930 . S
C889 O902 1.270 . S
C889 O903 1.248 . S
C890 O904 1.267 . S
C890 O905 1.278 . S
C891 Pr881 2.880 . S
C891 C892 1.491 . S
C891 O906 1.254 . S
C891 O907 1.225 . S
C892 C891 1.491 . S
C892 C893 1.392 . S
C892 C897 1.356 . S
C893 C892 1.392 . S
C893 C894 1.368 . S
C893 H916 0.929 . S
C894 C893 1.368 . S
C894 C895 1.386 . S
C894 H917 0.929 . S
C895 C894 1.386 . S
C895 C896 1.373 . S
C896 C895 1.373 . S
C896 C897 1.409 . S
C896 H918 0.931 . S
C897 C892 1.356 . S
C897 C896 1.409 . S
C897 H919 0.930 . S
C898 O908 1.270 . S
C898 O909 1.248 . S
C899 O910 1.267 . S
C899 O911 1.278 . S
O900 Pr880 2.562 . S
O900 C882 1.254 . S
O901 Pr880 2.490 . S
O901 C882 1.225 . S
O902 Pr880 2.695 . S
O902 Pr881 2.436 . S
O902 C889 1.270 . S
O903 Pr880 2.512 . S
O903 C889 1.248 . S
O904 Pr881 2.438 . S
O904 C890 1.267 . S
O905 Pr880 2.437 . S
O905 C890 1.278 . S
O906 Pr881 2.562 . S
O906 C891 1.254 . S
O907 Pr881 2.490 . S
O907 C891 1.225 . S
O908 Pr880 2.436 . S
O908 Pr881 2.695 . S
O908 C898 1.270 . S
O909 Pr881 2.512 . S
O909 C898 1.248 . S
O910 Pr880 2.438 . S
O910 C899 1.267 . S
O911 Pr881 2.437 . S
O911 C899 1.278 . S
H912 C884 0.929 . S
H913 C885 0.929 . S
H914 C887 0.931 . S
H915 C888 0.930 . S
H916 C893 0.929 . S
H917 C894 0.929 . S
H918 C896 0.931 . S
H919 C897 0.930 . S
Pr920 C922 2.880 . S
Pr920 O940 2.562 . S
Pr920 O941 2.490 . S
Pr920 O942 2.695 . S
Pr920 O943 2.512 . S
Pr920 O945 2.437 . S
Pr920 O948 2.436 . S
Pr920 O950 2.438 . S
Pr921 C931 2.880 . S
Pr921 O942 2.436 . S
Pr921 O944 2.438 . S
Pr921 O946 2.562 . S
Pr921 O947 2.490 . S
Pr921 O948 2.695 . S
Pr921 O949 2.512 . S
Pr921 O951 2.437 . S
C922 Pr920 2.880 . S
C922 C923 1.491 . S
C922 O940 1.254 . S
C922 O941 1.225 . S
C923 C922 1.491 . S
C923 C924 1.392 . S
C923 C928 1.356 . S
C924 C923 1.392 . S
C924 C925 1.368 . S
C924 H952 0.929 . S
C925 C924 1.368 . S
C925 C926 1.386 . S
C925 H953 0.929 . S
C926 C925 1.386 . S
C926 C927 1.373 . S
C927 C926 1.373 . S
C927 C928 1.409 . S
C927 H954 0.931 . S
C928 C923 1.356 . S
C928 C927 1.409 . S
C928 H955 0.930 . S
C929 O942 1.270 . S
C929 O943 1.248 . S
C930 O944 1.267 . S
C930 O945 1.278 . S
C931 Pr921 2.880 . S
C931 C932 1.491 . S
C931 O946 1.254 . S
C931 O947 1.225 . S
C932 C931 1.491 . S
C932 C933 1.392 . S
C932 C937 1.356 . S
C933 C932 1.392 . S
C933 C934 1.368 . S
C933 H956 0.929 . S
C934 C933 1.368 . S
C934 C935 1.386 . S
C934 H957 0.929 . S
C935 C934 1.386 . S
C935 C936 1.373 . S
C936 C935 1.373 . S
C936 C937 1.409 . S
C936 H958 0.931 . S
C937 C932 1.356 . S
C937 C936 1.409 . S
C937 H959 0.930 . S
C938 O948 1.270 . S
C938 O949 1.248 . S
C939 O950 1.267 . S
C939 O951 1.278 . S
O940 Pr920 2.562 . S
O940 C922 1.254 . S
O941 Pr920 2.490 . S
O941 C922 1.225 . S
O942 Pr920 2.695 . S
O942 Pr921 2.436 . S
O942 C929 1.270 . S
O943 Pr920 2.512 . S
O943 C929 1.248 . S
O944 Pr921 2.438 . S
O944 C930 1.267 . S
O945 Pr920 2.437 . S
O945 C930 1.278 . S
O946 Pr921 2.562 . S
O946 C931 1.254 . S
O947 Pr921 2.490 . S
O947 C931 1.225 . S
O948 Pr920 2.436 . S
O948 Pr921 2.695 . S
O948 C938 1.270 . S
O949 Pr921 2.512 . S
O949 C938 1.248 . S
O950 Pr920 2.438 . S
O950 C939 1.267 . S
O951 Pr921 2.437 . S
O951 C939 1.278 . S
H952 C924 0.929 . S
H953 C925 0.929 . S
H954 C927 0.931 . S
H955 C928 0.930 . S
H956 C933 0.929 . S
H957 C934 0.929 . S
H958 C936 0.931 . S
H959 C937 0.930 . S
Pr960 C962 2.880 . S
Pr960 O980 2.562 . S
Pr960 O981 2.490 . S
Pr960 O982 2.695 . S
Pr960 O983 2.512 . S
Pr960 O985 2.437 . S
Pr960 O988 2.436 . S
Pr960 O990 2.438 . S
Pr961 C971 2.880 . S
Pr961 O982 2.436 . S
Pr961 O984 2.438 . S
Pr961 O986 2.562 . S
Pr961 O987 2.490 . S
Pr961 O988 2.695 . S
Pr961 O989 2.512 . S
Pr961 O991 2.437 . S
C962 Pr960 2.880 . S
C962 C963 1.491 . S
C962 O980 1.254 . S
C962 O981 1.225 . S
C963 C962 1.491 . S
C963 C964 1.392 . S
C963 C968 1.356 . S
C964 C963 1.392 . S
C964 C965 1.368 . S
C964 H992 0.929 . S
C965 C964 1.368 . S
C965 C966 1.386 . S
C965 H993 0.929 . S
C966 C965 1.386 . S
C966 C967 1.373 . S
C967 C966 1.373 . S
C967 C968 1.409 . S
C967 H994 0.931 . S
C968 C963 1.356 . S
C968 C967 1.409 . S
C968 H995 0.930 . S
C969 O982 1.270 . S
C969 O983 1.248 . S
C970 O984 1.267 . S
C970 O985 1.278 . S
C971 Pr961 2.880 . S
C971 C972 1.491 . S
C971 O986 1.254 . S
C971 O987 1.225 . S
C972 C971 1.491 . S
C972 C973 1.392 . S
C972 C977 1.356 . S
C973 C972 1.392 . S
C973 C974 1.368 . S
C973 H996 0.929 . S
C974 C973 1.368 . S
C974 C975 1.386 . S
C974 H997 0.929 . S
C975 C974 1.386 . S
C975 C976 1.373 . S
C976 C975 1.373 . S
C976 C977 1.409 . S
C976 H998 0.931 . S
C977 C972 1.356 . S
C977 C976 1.409 . S
C977 H999 0.930 . S
C978 O988 1.270 . S
C978 O989 1.248 . S
C979 O990 1.267 . S
C979 O991 1.278 . S
O980 Pr960 2.562 . S
O980 C962 1.254 . S
O981 Pr960 2.490 . S
O981 C962 1.225 . S
O982 Pr960 2.695 . S
O982 Pr961 2.436 . S
O982 C969 1.270 . S
O983 Pr960 2.512 . S
O983 C969 1.248 . S
O984 Pr961 2.438 . S
O984 C970 1.267 . S
O985 Pr960 2.437 . S
O985 C970 1.278 . S
O986 Pr961 2.562 . S
O986 C971 1.254 . S
O987 Pr961 2.490 . S
O987 C971 1.225 . S
O988 Pr960 2.436 . S
O988 Pr961 2.695 . S
O988 C978 1.270 . S
O989 Pr961 2.512 . S
O989 C978 1.248 . S
O990 Pr960 2.438 . S
O990 C979 1.267 . S
O991 Pr961 2.437 . S
O991 C979 1.278 . S
H992 C964 0.929 . S
H993 C965 0.929 . S
H994 C967 0.931 . S
H995 C968 0.930 . S
H996 C973 0.929 . S
H997 C974 0.929 . S
H998 C976 0.931 . S
H999 C977 0.930 . S
Pr1000 C1002 2.880 . S
Pr1000 O1020 2.562 . S
Pr1000 O1021 2.490 . S
Pr1000 O1022 2.695 . S
Pr1000 O1023 2.512 . S
Pr1000 O1025 2.437 . S
Pr1000 O1028 2.436 . S
Pr1000 O1030 2.438 1_556 S
Pr1001 C1011 2.880 1_556 S
Pr1001 O1022 2.436 . S
Pr1001 O1024 2.438 . S
Pr1001 O1026 2.562 1_556 S
Pr1001 O1027 2.490 . S
Pr1001 O1028 2.695 . S
Pr1001 O1029 2.512 . S
Pr1001 O1031 2.437 1_556 S
C1002 Pr1000 2.880 . S
C1002 C1003 1.491 . S
C1002 O1020 1.254 . S
C1002 O1021 1.225 . S
C1003 C1002 1.491 . S
C1003 C1004 1.392 . S
C1003 C1008 1.356 . S
C1004 C1003 1.392 . S
C1004 C1005 1.368 . S
C1004 H1032 0.929 . S
C1005 C1004 1.368 . S
C1005 C1006 1.386 . S
C1005 H1033 0.929 . S
C1006 C1005 1.386 . S
C1006 C1007 1.373 . S
C1007 C1006 1.373 . S
C1007 C1008 1.409 . S
C1007 H1034 0.931 . S
C1008 C1003 1.356 . S
C1008 C1007 1.409 . S
C1008 H1035 0.930 . S
C1009 O1022 1.270 . S
C1009 O1023 1.248 . S
C1010 O1024 1.267 . S
C1010 O1025 1.278 . S
C1011 Pr1001 2.880 1_554 S
C1011 C1012 1.491 . S
C1011 O1026 1.254 . S
C1011 O1027 1.225 1_554 S
C1012 C1011 1.491 . S
C1012 C1013 1.392 . S
C1012 C1017 1.356 . S
C1013 C1012 1.392 . S
C1013 C1014 1.368 . S
C1013 H1036 0.929 . S
C1014 C1013 1.368 . S
C1014 C1015 1.386 . S
C1014 H1037 0.929 . S
C1015 C1014 1.386 . S
C1015 C1016 1.373 . S
C1016 C1015 1.373 . S
C1016 C1017 1.409 . S
C1016 H1038 0.931 . S
C1017 C1012 1.356 . S
C1017 C1016 1.409 . S
C1017 H1039 0.930 . S
C1018 O1028 1.270 . S
C1018 O1029 1.248 . S
C1019 O1030 1.267 . S
C1019 O1031 1.278 . S
O1020 Pr1000 2.562 . S
O1020 C1002 1.254 . S
O1021 Pr1000 2.490 . S
O1021 C1002 1.225 . S
O1022 Pr1000 2.695 . S
O1022 Pr1001 2.436 . S
O1022 C1009 1.270 . S
O1023 Pr1000 2.512 . S
O1023 C1009 1.248 . S
O1024 Pr1001 2.438 . S
O1024 C1010 1.267 . S
O1025 Pr1000 2.437 . S
O1025 C1010 1.278 . S
O1026 Pr1001 2.562 1_554 S
O1026 C1011 1.254 . S
O1027 Pr1001 2.490 . S
O1027 C1011 1.225 1_556 S
O1028 Pr1000 2.436 . S
O1028 Pr1001 2.695 . S
O1028 C1018 1.270 . S
O1029 Pr1001 2.512 . S
O1029 C1018 1.248 . S
O1030 Pr1000 2.438 1_554 S
O1030 C1019 1.267 . S
O1031 Pr1001 2.437 1_554 S
O1031 C1019 1.278 . S
H1032 C1004 0.929 . S
H1033 C1005 0.929 . S
H1034 C1007 0.931 . S
H1035 C1008 0.930 . S
H1036 C1013 0.929 . S
H1037 C1014 0.929 . S
H1038 C1016 0.931 . S
H1039 C1017 0.930 . S
Pr1040 C1042 2.880 . S
Pr1040 O1060 2.562 . S
Pr1040 O1061 2.490 . S
Pr1040 O1062 2.695 . S
Pr1040 O1063 2.512 . S
Pr1040 O1065 2.437 . S
Pr1040 O1068 2.436 . S
Pr1040 O1070 2.438 . S
Pr1041 C1051 2.880 . S
Pr1041 O1062 2.436 . S
Pr1041 O1064 2.438 . S
Pr1041 O1066 2.562 . S
Pr1041 O1067 2.490 . S
Pr1041 O1068 2.695 . S
Pr1041 O1069 2.512 . S
Pr1041 O1071 2.437 . S
C1042 Pr1040 2.880 . S
C1042 C1043 1.491 . S
C1042 O1060 1.254 . S
C1042 O1061 1.225 . S
C1043 C1042 1.491 . S
C1043 C1044 1.392 . S
C1043 C1048 1.356 . S
C1044 C1043 1.392 . S
C1044 C1045 1.368 . S
C1044 H1072 0.929 . S
C1045 C1044 1.368 . S
C1045 C1046 1.386 . S
C1045 H1073 0.929 . S
C1046 C1045 1.386 . S
C1046 C1047 1.373 . S
C1047 C1046 1.373 . S
C1047 C1048 1.409 . S
C1047 H1074 0.931 . S
C1048 C1043 1.356 . S
C1048 C1047 1.409 . S
C1048 H1075 0.930 . S
C1049 O1062 1.270 . S
C1049 O1063 1.248 . S
C1050 O1064 1.267 . S
C1050 O1065 1.278 . S
C1051 Pr1041 2.880 . S
C1051 C1052 1.491 . S
C1051 O1066 1.254 . S
C1051 O1067 1.225 . S
C1052 C1051 1.491 . S
C1052 C1053 1.392 . S
C1052 C1057 1.356 . S
C1053 C1052 1.392 . S
C1053 C1054 1.368 . S
C1053 H1076 0.929 . S
C1054 C1053 1.368 . S
C1054 C1055 1.386 . S
C1054 H1077 0.929 . S
C1055 C1054 1.386 . S
C1055 C1056 1.373 . S
C1056 C1055 1.373 . S
C1056 C1057 1.409 . S
C1056 H1078 0.931 . S
C1057 C1052 1.356 . S
C1057 C1056 1.409 . S
C1057 H1079 0.930 . S
C1058 O1068 1.270 . S
C1058 O1069 1.248 . S
C1059 O1070 1.267 . S
C1059 O1071 1.278 . S
O1060 Pr1040 2.562 . S
O1060 C1042 1.254 . S
O1061 Pr1040 2.490 . S
O1061 C1042 1.225 . S
O1062 Pr1040 2.695 . S
O1062 Pr1041 2.436 . S
O1062 C1049 1.270 . S
O1063 Pr1040 2.512 . S
O1063 C1049 1.248 . S
O1064 Pr1041 2.438 . S
O1064 C1050 1.267 . S
O1065 Pr1040 2.437 . S
O1065 C1050 1.278 . S
O1066 Pr1041 2.562 . S
O1066 C1051 1.254 . S
O1067 Pr1041 2.490 . S
O1067 C1051 1.225 . S
O1068 Pr1040 2.436 . S
O1068 Pr1041 2.695 . S
O1068 C1058 1.270 . S
O1069 Pr1041 2.512 . S
O1069 C1058 1.248 . S
O1070 Pr1040 2.438 . S
O1070 C1059 1.267 . S
O1071 Pr1041 2.437 . S
O1071 C1059 1.278 . S
H1072 C1044 0.929 . S
H1073 C1045 0.929 . S
H1074 C1047 0.931 . S
H1075 C1048 0.930 . S
H1076 C1053 0.929 . S
H1077 C1054 0.929 . S
H1078 C1056 0.931 . S
H1079 C1057 0.930 . S
Pr1080 C1082 2.880 . S
Pr1080 O1100 2.562 . S
Pr1080 O1101 2.490 . S
Pr1080 O1102 2.695 . S
Pr1080 O1103 2.512 . S
Pr1080 O1105 2.437 . S
Pr1080 O1108 2.436 . S
Pr1080 O1110 2.438 . S
Pr1081 C1091 2.880 . S
Pr1081 O1102 2.436 . S
Pr1081 O1104 2.438 . S
Pr1081 O1106 2.562 . S
Pr1081 O1107 2.490 . S
Pr1081 O1108 2.695 . S
Pr1081 O1109 2.512 . S
Pr1081 O1111 2.437 . S
C1082 Pr1080 2.880 . S
C1082 C1083 1.491 . S
C1082 O1100 1.254 . S
C1082 O1101 1.225 . S
C1083 C1082 1.491 . S
C1083 C1084 1.392 . S
C1083 C1088 1.356 . S
C1084 C1083 1.392 . S
C1084 C1085 1.368 . S
C1084 H1112 0.929 . S
C1085 C1084 1.368 . S
C1085 C1086 1.386 . S
C1085 H1113 0.929 . S
C1086 C1085 1.386 . S
C1086 C1087 1.373 . S
C1087 C1086 1.373 . S
C1087 C1088 1.409 . S
C1087 H1114 0.931 . S
C1088 C1083 1.356 . S
C1088 C1087 1.409 . S
C1088 H1115 0.930 . S
C1089 O1102 1.270 . S
C1089 O1103 1.248 . S
C1090 O1104 1.267 . S
C1090 O1105 1.278 . S
C1091 Pr1081 2.880 . S
C1091 C1092 1.491 . S
C1091 O1106 1.254 . S
C1091 O1107 1.225 . S
C1092 C1091 1.491 . S
C1092 C1093 1.392 . S
C1092 C1097 1.356 . S
C1093 C1092 1.392 . S
C1093 C1094 1.368 . S
C1093 H1116 0.929 . S
C1094 C1093 1.368 . S
C1094 C1095 1.386 . S
C1094 H1117 0.929 . S
C1095 C1094 1.386 . S
C1095 C1096 1.373 . S
C1096 C1095 1.373 . S
C1096 C1097 1.409 . S
C1096 H1118 0.931 . S
C1097 C1092 1.356 . S
C1097 C1096 1.409 . S
C1097 H1119 0.930 . S
C1098 O1108 1.270 . S
C1098 O1109 1.248 . S
C1099 O1110 1.267 . S
C1099 O1111 1.278 . S
O1100 Pr1080 2.562 . S
O1100 C1082 1.254 . S
O1101 Pr1080 2.490 . S
O1101 C1082 1.225 . S
O1102 Pr1080 2.695 . S
O1102 Pr1081 2.436 . S
O1102 C1089 1.270 . S
O1103 Pr1080 2.512 . S
O1103 C1089 1.248 . S
O1104 Pr1081 2.438 . S
O1104 C1090 1.267 . S
O1105 Pr1080 2.437 . S
O1105 C1090 1.278 . S
O1106 Pr1081 2.562 . S
O1106 C1091 1.254 . S
O1107 Pr1081 2.490 . S
O1107 C1091 1.225 . S
O1108 Pr1080 2.436 . S
O1108 Pr1081 2.695 . S
O1108 C1098 1.270 . S
O1109 Pr1081 2.512 . S
O1109 C1098 1.248 . S
O1110 Pr1080 2.438 . S
O1110 C1099 1.267 . S
O1111 Pr1081 2.437 . S
O1111 C1099 1.278 . S
H1112 C1084 0.929 . S
H1113 C1085 0.929 . S
H1114 C1087 0.931 . S
H1115 C1088 0.930 . S
H1116 C1093 0.929 . S
H1117 C1094 0.929 . S
H1118 C1096 0.931 . S
H1119 C1097 0.930 . S
Pr1120 C1122 2.880 . S
Pr1120 O1140 2.562 . S
Pr1120 O1141 2.490 . S
Pr1120 O1142 2.695 . S
Pr1120 O1143 2.512 . S
Pr1120 O1145 2.437 . S
Pr1120 O1148 2.436 . S
Pr1120 O1150 2.438 . S
Pr1121 C1131 2.880 . S
Pr1121 O1142 2.436 . S
Pr1121 O1144 2.438 . S
Pr1121 O1146 2.562 . S
Pr1121 O1147 2.490 . S
Pr1121 O1148 2.695 . S
Pr1121 O1149 2.512 . S
Pr1121 O1151 2.437 . S
C1122 Pr1120 2.880 . S
C1122 C1123 1.491 . S
C1122 O1140 1.254 . S
C1122 O1141 1.225 . S
C1123 C1122 1.491 . S
C1123 C1124 1.392 . S
C1123 C1128 1.356 . S
C1124 C1123 1.392 . S
C1124 C1125 1.368 . S
C1124 H1152 0.929 . S
C1125 C1124 1.368 . S
C1125 C1126 1.386 . S
C1125 H1153 0.929 . S
C1126 C1125 1.386 . S
C1126 C1127 1.373 . S
C1127 C1126 1.373 . S
C1127 C1128 1.409 . S
C1127 H1154 0.931 . S
C1128 C1123 1.356 . S
C1128 C1127 1.409 . S
C1128 H1155 0.930 . S
C1129 O1142 1.270 . S
C1129 O1143 1.248 . S
C1130 O1144 1.267 . S
C1130 O1145 1.278 . S
C1131 Pr1121 2.880 . S
C1131 C1132 1.491 . S
C1131 O1146 1.254 . S
C1131 O1147 1.225 . S
C1132 C1131 1.491 . S
C1132 C1133 1.392 . S
C1132 C1137 1.356 . S
C1133 C1132 1.392 . S
C1133 C1134 1.368 . S
C1133 H1156 0.929 . S
C1134 C1133 1.368 . S
C1134 C1135 1.386 . S
C1134 H1157 0.929 . S
C1135 C1134 1.386 . S
C1135 C1136 1.373 . S
C1136 C1135 1.373 . S
C1136 C1137 1.409 . S
C1136 H1158 0.931 . S
C1137 C1132 1.356 . S
C1137 C1136 1.409 . S
C1137 H1159 0.930 . S
C1138 O1148 1.270 . S
C1138 O1149 1.248 . S
C1139 O1150 1.267 . S
C1139 O1151 1.278 . S
O1140 Pr1120 2.562 . S
O1140 C1122 1.254 . S
O1141 Pr1120 2.490 . S
O1141 C1122 1.225 . S
O1142 Pr1120 2.695 . S
O1142 Pr1121 2.436 . S
O1142 C1129 1.270 . S
O1143 Pr1120 2.512 . S
O1143 C1129 1.248 . S
O1144 Pr1121 2.438 . S
O1144 C1130 1.267 . S
O1145 Pr1120 2.437 . S
O1145 C1130 1.278 . S
O1146 Pr1121 2.562 . S
O1146 C1131 1.254 . S
O1147 Pr1121 2.490 . S
O1147 C1131 1.225 . S
O1148 Pr1120 2.436 . S
O1148 Pr1121 2.695 . S
O1148 C1138 1.270 . S
O1149 Pr1121 2.512 . S
O1149 C1138 1.248 . S
O1150 Pr1120 2.438 . S
O1150 C1139 1.267 . S
O1151 Pr1121 2.437 . S
O1151 C1139 1.278 . S
H1152 C1124 0.929 . S
H1153 C1125 0.929 . S
H1154 C1127 0.931 . S
H1155 C1128 0.930 . S
H1156 C1133 0.929 . S
H1157 C1134 0.929 . S
H1158 C1136 0.931 . S
H1159 C1137 0.930 . S
Pr1160 C1162 2.880 . S
Pr1160 O1180 2.562 . S
Pr1160 O1181 2.490 . S
Pr1160 O1182 2.695 . S
Pr1160 O1183 2.512 . S
Pr1160 O1185 2.437 . S
Pr1160 O1188 2.436 . S
Pr1160 O1190 2.438 1_554 S
Pr1161 C1171 2.880 1_554 S
Pr1161 O1182 2.436 . S
Pr1161 O1184 2.438 . S
Pr1161 O1186 2.562 1_554 S
Pr1161 O1187 2.490 . S
Pr1161 O1188 2.695 . S
Pr1161 O1189 2.512 . S
Pr1161 O1191 2.437 1_554 S
C1162 Pr1160 2.880 . S
C1162 C1163 1.491 . S
C1162 O1180 1.254 . S
C1162 O1181 1.225 . S
C1163 C1162 1.491 . S
C1163 C1164 1.392 . S
C1163 C1168 1.356 . S
C1164 C1163 1.392 . S
C1164 C1165 1.368 . S
C1164 H1192 0.929 . S
C1165 C1164 1.368 . S
C1165 C1166 1.386 . S
C1165 H1193 0.929 . S
C1166 C1165 1.386 . S
C1166 C1167 1.373 . S
C1167 C1166 1.373 . S
C1167 C1168 1.409 . S
C1167 H1194 0.931 . S
C1168 C1163 1.356 . S
C1168 C1167 1.409 . S
C1168 H1195 0.930 . S
C1169 O1182 1.270 . S
C1169 O1183 1.248 . S
C1170 O1184 1.267 . S
C1170 O1185 1.278 . S
C1171 Pr1161 2.880 1_556 S
C1171 C1172 1.491 . S
C1171 O1186 1.254 . S
C1171 O1187 1.225 1_556 S
C1172 C1171 1.491 . S
C1172 C1173 1.392 . S
C1172 C1177 1.356 . S
C1173 C1172 1.392 . S
C1173 C1174 1.368 . S
C1173 H1196 0.929 . S
C1174 C1173 1.368 . S
C1174 C1175 1.386 . S
C1174 H1197 0.929 . S
C1175 C1174 1.386 . S
C1175 C1176 1.373 . S
C1176 C1175 1.373 . S
C1176 C1177 1.409 . S
C1176 H1198 0.931 . S
C1177 C1172 1.356 . S
C1177 C1176 1.409 . S
C1177 H1199 0.930 . S
C1178 O1188 1.270 . S
C1178 O1189 1.248 . S
C1179 O1190 1.267 . S
C1179 O1191 1.278 . S
O1180 Pr1160 2.562 . S
O1180 C1162 1.254 . S
O1181 Pr1160 2.490 . S
O1181 C1162 1.225 . S
O1182 Pr1160 2.695 . S
O1182 Pr1161 2.436 . S
O1182 C1169 1.270 . S
O1183 Pr1160 2.512 . S
O1183 C1169 1.248 . S
O1184 Pr1161 2.438 . S
O1184 C1170 1.267 . S
O1185 Pr1160 2.437 . S
O1185 C1170 1.278 . S
O1186 Pr1161 2.562 1_556 S
O1186 C1171 1.254 . S
O1187 Pr1161 2.490 . S
O1187 C1171 1.225 1_554 S
O1188 Pr1160 2.436 . S
O1188 Pr1161 2.695 . S
O1188 C1178 1.270 . S
O1189 Pr1161 2.512 . S
O1189 C1178 1.248 . S
O1190 Pr1160 2.438 1_556 S
O1190 C1179 1.267 . S
O1191 Pr1161 2.437 1_556 S
O1191 C1179 1.278 . S
H1192 C1164 0.929 . S
H1193 C1165 0.929 . S
H1194 C1167 0.931 . S
H1195 C1168 0.930 . S
H1196 C1173 0.929 . S
H1197 C1174 0.929 . S
H1198 C1176 0.931 . S
H1199 C1177 0.930 . S
Pr1200 C1202 2.880 . S
Pr1200 O1220 2.562 . S
Pr1200 O1221 2.490 . S
Pr1200 O1222 2.695 . S
Pr1200 O1223 2.512 . S
Pr1200 O1225 2.437 . S
Pr1200 O1228 2.436 . S
Pr1200 O1230 2.438 . S
Pr1201 C1211 2.880 . S
Pr1201 O1222 2.436 . S
Pr1201 O1224 2.438 . S
Pr1201 O1226 2.562 . S
Pr1201 O1227 2.490 . S
Pr1201 O1228 2.695 . S
Pr1201 O1229 2.512 . S
Pr1201 O1231 2.437 . S
C1202 Pr1200 2.880 . S
C1202 C1203 1.491 . S
C1202 O1220 1.254 . S
C1202 O1221 1.225 . S
C1203 C1202 1.491 . S
C1203 C1204 1.392 . S
C1203 C1208 1.356 . S
C1204 C1203 1.392 . S
C1204 C1205 1.368 . S
C1204 H1232 0.929 . S
C1205 C1204 1.368 . S
C1205 C1206 1.386 . S
C1205 H1233 0.929 . S
C1206 C1205 1.386 . S
C1206 C1207 1.373 . S
C1207 C1206 1.373 . S
C1207 C1208 1.409 . S
C1207 H1234 0.931 . S
C1208 C1203 1.356 . S
C1208 C1207 1.409 . S
C1208 H1235 0.930 . S
C1209 O1222 1.270 . S
C1209 O1223 1.248 . S
C1210 O1224 1.267 . S
C1210 O1225 1.278 . S
C1211 Pr1201 2.880 . S
C1211 C1212 1.491 . S
C1211 O1226 1.254 . S
C1211 O1227 1.225 . S
C1212 C1211 1.491 . S
C1212 C1213 1.392 . S
C1212 C1217 1.356 . S
C1213 C1212 1.392 . S
C1213 C1214 1.368 . S
C1213 H1236 0.929 . S
C1214 C1213 1.368 . S
C1214 C1215 1.386 . S
C1214 H1237 0.929 . S
C1215 C1214 1.386 . S
C1215 C1216 1.373 . S
C1216 C1215 1.373 . S
C1216 C1217 1.409 . S
C1216 H1238 0.931 . S
C1217 C1212 1.356 . S
C1217 C1216 1.409 . S
C1217 H1239 0.930 . S
C1218 O1228 1.270 . S
C1218 O1229 1.248 . S
C1219 O1230 1.267 . S
C1219 O1231 1.278 . S
O1220 Pr1200 2.562 . S
O1220 C1202 1.254 . S
O1221 Pr1200 2.490 . S
O1221 C1202 1.225 . S
O1222 Pr1200 2.695 . S
O1222 Pr1201 2.436 . S
O1222 C1209 1.270 . S
O1223 Pr1200 2.512 . S
O1223 C1209 1.248 . S
O1224 Pr1201 2.438 . S
O1224 C1210 1.267 . S
O1225 Pr1200 2.437 . S
O1225 C1210 1.278 . S
O1226 Pr1201 2.562 . S
O1226 C1211 1.254 . S
O1227 Pr1201 2.490 . S
O1227 C1211 1.225 . S
O1228 Pr1200 2.436 . S
O1228 Pr1201 2.695 . S
O1228 C1218 1.270 . S
O1229 Pr1201 2.512 . S
O1229 C1218 1.248 . S
O1230 Pr1200 2.438 . S
O1230 C1219 1.267 . S
O1231 Pr1201 2.437 . S
O1231 C1219 1.278 . S
H1232 C1204 0.929 . S
H1233 C1205 0.929 . S
H1234 C1207 0.931 . S
H1235 C1208 0.930 . S
H1236 C1213 0.929 . S
H1237 C1214 0.929 . S
H1238 C1216 0.931 . S
H1239 C1217 0.930 . S
Pr1240 C1242 2.880 . S
Pr1240 O1260 2.562 . S
Pr1240 O1261 2.490 . S
Pr1240 O1262 2.695 . S
Pr1240 O1263 2.512 . S
Pr1240 O1265 2.437 . S
Pr1240 O1268 2.436 . S
Pr1240 O1270 2.438 . S
Pr1241 C1251 2.880 . S
Pr1241 O1262 2.436 . S
Pr1241 O1264 2.438 . S
Pr1241 O1266 2.562 . S
Pr1241 O1267 2.490 . S
Pr1241 O1268 2.695 . S
Pr1241 O1269 2.512 . S
Pr1241 O1271 2.437 . S
C1242 Pr1240 2.880 . S
C1242 C1243 1.491 . S
C1242 O1260 1.254 . S
C1242 O1261 1.225 . S
C1243 C1242 1.491 . S
C1243 C1244 1.392 . S
C1243 C1248 1.356 . S
C1244 C1243 1.392 . S
C1244 C1245 1.368 . S
C1244 H1272 0.929 . S
C1245 C1244 1.368 . S
C1245 C1246 1.386 . S
C1245 H1273 0.929 . S
C1246 C1245 1.386 . S
C1246 C1247 1.373 . S
C1247 C1246 1.373 . S
C1247 C1248 1.409 . S
C1247 H1274 0.931 . S
C1248 C1243 1.356 . S
C1248 C1247 1.409 . S
C1248 H1275 0.930 . S
C1249 O1262 1.270 . S
C1249 O1263 1.248 . S
C1250 O1264 1.267 . S
C1250 O1265 1.278 . S
C1251 Pr1241 2.880 . S
C1251 C1252 1.491 . S
C1251 O1266 1.254 . S
C1251 O1267 1.225 . S
C1252 C1251 1.491 . S
C1252 C1253 1.392 . S
C1252 C1257 1.356 . S
C1253 C1252 1.392 . S
C1253 C1254 1.368 . S
C1253 H1276 0.929 . S
C1254 C1253 1.368 . S
C1254 C1255 1.386 . S
C1254 H1277 0.929 . S
C1255 C1254 1.386 . S
C1255 C1256 1.373 . S
C1256 C1255 1.373 . S
C1256 C1257 1.409 . S
C1256 H1278 0.931 . S
C1257 C1252 1.356 . S
C1257 C1256 1.409 . S
C1257 H1279 0.930 . S
C1258 O1268 1.270 . S
C1258 O1269 1.248 . S
C1259 O1270 1.267 . S
C1259 O1271 1.278 . S
O1260 Pr1240 2.562 . S
O1260 C1242 1.254 . S
O1261 Pr1240 2.490 . S
O1261 C1242 1.225 . S
O1262 Pr1240 2.695 . S
O1262 Pr1241 2.436 . S
O1262 C1249 1.270 . S
O1263 Pr1240 2.512 . S
O1263 C1249 1.248 . S
O1264 Pr1241 2.438 . S
O1264 C1250 1.267 . S
O1265 Pr1240 2.437 . S
O1265 C1250 1.278 . S
O1266 Pr1241 2.562 . S
O1266 C1251 1.254 . S
O1267 Pr1241 2.490 . S
O1267 C1251 1.225 . S
O1268 Pr1240 2.436 . S
O1268 Pr1241 2.695 . S
O1268 C1258 1.270 . S
O1269 Pr1241 2.512 . S
O1269 C1258 1.248 . S
O1270 Pr1240 2.438 . S
O1270 C1259 1.267 . S
O1271 Pr1241 2.437 . S
O1271 C1259 1.278 . S
H1272 C1244 0.929 . S
H1273 C1245 0.929 . S
H1274 C1247 0.931 . S
H1275 C1248 0.930 . S
H1276 C1253 0.929 . S
H1277 C1254 0.929 . S
H1278 C1256 0.931 . S
H1279 C1257 0.930 . S
H1280 C1288 0.950 . S
H1281 C1293 0.950 . S
H1282 C1290 0.950 . S
H1283 C1292 0.950 . S
H1284 C1294 0.950 . S
H1285 C1296 0.950 . S
H1286 C1298 0.950 . S
H1287 C1299 0.950 . S
C1288 H1280 0.950 . S
C1288 C1289 1.386 . S
C1288 C1290 1.391 . S
C1289 C1288 1.386 . S
C1289 C1293 1.393 . S
C1290 H1282 0.950 . S
C1290 C1288 1.391 . S
C1290 C1291 1.400 . S
C1291 C1290 1.400 . S
C1291 C1292 1.398 . S
C1291 C1297 1.491 . S
C1292 H1283 0.950 . S
C1292 C1291 1.398 . S
C1292 C1293 1.391 . S
C1293 H1281 0.950 . S
C1293 C1289 1.393 . S
C1293 C1292 1.391 . S
C1294 H1284 0.950 . S
C1294 C1295 1.386 . S
C1294 C1296 1.391 . S
C1295 C1294 1.386 . S
C1295 C1299 1.393 . S
C1296 H1285 0.950 . S
C1296 C1294 1.391 . S
C1296 C1297 1.400 . S
C1297 C1291 1.491 . S
C1297 C1296 1.400 . S
C1297 C1298 1.398 . S
C1298 H1286 0.950 . S
C1298 C1297 1.398 . S
C1298 C1299 1.391 . S
C1299 H1287 0.950 . S
C1299 C1295 1.393 . S
C1299 C1298 1.391 . S
H1300 C1308 0.950 . S
H1301 C1313 0.950 . S
H1302 C1310 0.950 . S
H1303 C1312 0.950 . S
H1304 C1314 0.950 . S
H1305 C1316 0.950 . S
H1306 C1318 0.950 . S
H1307 C1319 0.950 . S
C1308 H1300 0.950 . S
C1308 C1309 1.386 . S
C1308 C1310 1.391 . S
C1309 C1308 1.386 . S
C1309 C1313 1.393 . S
C1310 H1302 0.950 . S
C1310 C1308 1.391 . S
C1310 C1311 1.400 . S
C1311 C1310 1.400 . S
C1311 C1312 1.398 . S
C1311 C1317 1.491 . S
C1312 H1303 0.950 . S
C1312 C1311 1.398 . S
C1312 C1313 1.391 . S
C1313 H1301 0.950 . S
C1313 C1309 1.393 . S
C1313 C1312 1.391 . S
C1314 H1304 0.950 . S
C1314 C1315 1.394 . S
C1314 C1316 1.391 . S
C1315 C1314 1.394 . S
C1315 C1319 1.391 1_545 S
C1316 H1305 0.950 . S
C1316 C1314 1.391 . S
C1316 C1317 1.400 . S
C1317 C1311 1.491 . S
C1317 C1316 1.400 . S
C1317 C1318 1.398 . S
C1318 H1306 0.950 . S
C1318 C1317 1.398 . S
C1318 C1319 1.391 1_545 S
C1319 H1307 0.950 . S
C1319 C1315 1.391 1_565 S
C1319 C1318 1.391 1_565 S
H1320 C1328 0.950 . S
H1321 C1333 0.950 . S
H1322 C1330 0.950 . S
H1323 C1332 0.950 . S
H1324 C1334 0.950 . S
H1325 C1336 0.950 . S
H1326 C1338 0.950 . S
H1327 C1339 0.950 . S
C1328 H1320 0.950 . S
C1328 C1329 1.386 . S
C1328 C1330 1.391 . S
C1329 C1328 1.386 . S
C1329 C1333 1.393 . S
C1330 H1322 0.950 . S
C1330 C1328 1.391 . S
C1330 C1331 1.400 . S
C1331 C1330 1.400 . S
C1331 C1332 1.398 . S
C1331 C1337 1.491 . S
C1332 H1323 0.950 . S
C1332 C1331 1.398 . S
C1332 C1333 1.391 . S
C1333 H1321 0.950 . S
C1333 C1329 1.393 . S
C1333 C1332 1.391 . S
C1334 H1324 0.950 . S
C1334 C1335 1.386 . S
C1334 C1336 1.391 . S
C1335 C1334 1.386 . S
C1335 C1339 1.393 . S
C1336 H1325 0.950 . S
C1336 C1334 1.391 . S
C1336 C1337 1.400 . S
C1337 C1331 1.491 . S
C1337 C1336 1.400 . S
C1337 C1338 1.398 . S
C1338 H1326 0.950 . S
C1338 C1337 1.398 . S
C1338 C1339 1.391 . S
C1339 H1327 0.950 . S
C1339 C1335 1.393 . S
C1339 C1338 1.391 . S
H1340 C1348 0.950 . S
H1341 C1353 0.950 . S
H1342 C1350 0.950 . S
H1343 C1352 0.950 . S
H1344 C1354 0.974 . S
H1345 C1356 0.950 . S
H1346 C1358 0.950 . S
H1347 C1359 0.950 . S
C1348 H1340 0.950 . S
C1348 C1349 1.386 . S
C1348 C1350 1.391 . S
C1349 C1348 1.386 . S
C1349 C1353 1.393 . S
C1350 H1342 0.950 . S
C1350 C1348 1.391 . S
C1350 C1351 1.400 . S
C1351 C1350 1.400 . S
C1351 C1352 1.398 . S
C1351 C1357 1.491 . S
C1352 H1343 0.950 . S
C1352 C1351 1.398 . S
C1352 C1353 1.391 . S
C1353 H1341 0.950 . S
C1353 C1349 1.393 . S
C1353 C1352 1.391 . S
C1354 H1344 0.974 . S
C1354 C1355 1.386 . S
C1354 C1356 1.368 1_545 S
C1355 C1354 1.386 . S
C1355 C1359 1.380 1_545 S
C1356 H1345 0.950 . S
C1356 C1354 1.368 1_565 S
C1356 C1357 1.400 . S
C1357 C1351 1.491 . S
C1357 C1356 1.400 . S
C1357 C1358 1.398 . S
C1358 H1346 0.950 . S
C1358 C1357 1.398 . S
C1358 C1359 1.391 . S
C1359 H1347 0.950 . S
C1359 C1355 1.380 1_565 S
C1359 C1358 1.391 . S
H1360 C1368 0.950 . S
H1361 C1373 0.950 . S
H1362 C1370 0.950 . S
H1363 C1372 0.950 . S
H1364 C1374 0.950 . S
H1365 C1376 0.950 . S
H1366 C1378 0.950 . S
H1367 C1379 0.950 . S
C1368 H1360 0.950 . S
C1368 C1369 1.386 . S
C1368 C1370 1.391 . S
C1369 C1368 1.386 . S
C1369 C1373 1.393 . S
C1370 H1362 0.950 . S
C1370 C1368 1.391 . S
C1370 C1371 1.400 . S
C1371 C1370 1.400 . S
C1371 C1372 1.398 . S
C1371 C1377 1.491 . S
C1372 H1363 0.950 . S
C1372 C1371 1.398 . S
C1372 C1373 1.391 . S
C1373 H1361 0.950 . S
C1373 C1369 1.393 . S
C1373 C1372 1.391 . S
C1374 H1364 0.950 . S
C1374 C1375 1.386 . S
C1374 C1376 1.391 . S
C1375 C1374 1.386 . S
C1375 C1379 1.393 . S
C1376 H1365 0.950 . S
C1376 C1374 1.391 . S
C1376 C1377 1.400 . S
C1377 C1371 1.491 . S
C1377 C1376 1.400 . S
C1377 C1378 1.398 . S
C1378 H1366 0.950 . S
C1378 C1377 1.398 . S
C1378 C1379 1.391 . S
C1379 H1367 0.950 . S
C1379 C1375 1.393 . S
C1379 C1378 1.391 . S
H1380 C1388 0.950 . S
H1381 C1393 0.950 . S
H1382 C1390 0.950 . S
H1383 C1392 0.950 . S
H1384 C1394 0.950 . S
H1385 C1396 0.950 . S
H1386 C1398 0.950 . S
H1387 C1399 0.950 . S
C1388 H1380 0.950 . S
C1388 C1389 1.389 1_545 S
C1388 C1390 1.391 . S
C1389 C1388 1.389 1_565 S
C1389 C1393 1.392 . S
C1390 H1382 0.950 . S
C1390 C1388 1.391 . S
C1390 C1391 1.400 . S
C1391 C1390 1.400 . S
C1391 C1392 1.398 . S
C1391 C1397 1.491 . S
C1392 H1383 0.950 . S
C1392 C1391 1.398 . S
C1392 C1393 1.391 1_545 S
C1393 H1381 0.950 . S
C1393 C1389 1.392 . S
C1393 C1392 1.391 1_565 S
C1394 H1384 0.950 . S
C1394 C1395 1.386 . S
C1394 C1396 1.391 . S
C1395 C1394 1.386 . S
C1395 C1399 1.393 . S
C1396 H1385 0.950 . S
C1396 C1394 1.391 . S
C1396 C1397 1.400 . S
C1397 C1391 1.491 . S
C1397 C1396 1.400 . S
C1397 C1398 1.398 . S
C1398 H1386 0.950 . S
C1398 C1397 1.398 . S
C1398 C1399 1.391 . S
C1399 H1387 0.950 . S
C1399 C1395 1.393 . S
C1399 C1398 1.391 . S
H1400 C1408 0.950 . S
H1401 C1413 0.950 . S
H1402 C1410 0.950 . S
H1403 C1412 0.950 . S
H1404 C1414 0.950 . S
H1405 C1416 0.950 . S
H1406 C1418 0.950 . S
H1407 C1419 0.950 . S
C1408 H1400 0.950 . S
C1408 C1409 1.386 . S
C1408 C1410 1.391 . S
C1409 C1408 1.386 . S
C1409 C1413 1.393 . S
C1410 H1402 0.950 . S
C1410 C1408 1.391 . S
C1410 C1411 1.400 . S
C1411 C1410 1.400 . S
C1411 C1412 1.398 . S
C1411 C1417 1.491 . S
C1412 H1403 0.950 . S
C1412 C1411 1.398 . S
C1412 C1413 1.391 . S
C1413 H1401 0.950 . S
C1413 C1409 1.393 . S
C1413 C1412 1.391 . S
C1414 H1404 0.950 . S
C1414 C1415 1.386 . S
C1414 C1416 1.391 . S
C1415 C1414 1.386 . S
C1415 C1419 1.393 . S
C1416 H1405 0.950 . S
C1416 C1414 1.391 . S
C1416 C1417 1.400 . S
C1417 C1411 1.491 . S
C1417 C1416 1.400 . S
C1417 C1418 1.398 . S
C1418 H1406 0.950 . S
C1418 C1417 1.398 . S
C1418 C1419 1.391 . S
C1419 H1407 0.950 . S
C1419 C1415 1.393 . S
C1419 C1418 1.391 . S
H1420 C1428 0.950 . S
H1421 C1433 0.950 . S
H1422 C1430 0.950 . S
H1423 C1432 0.950 . S
H1424 C1434 0.950 1_545 S
H1425 C1436 0.950 . S
H1426 C1438 0.950 . S
H1427 C1439 0.950 . S
C1428 H1420 0.950 . S
C1428 C1429 1.386 . S
C1428 C1430 1.391 . S
C1429 C1428 1.386 . S
C1429 C1433 1.393 . S
C1430 H1422 0.950 . S
C1430 C1428 1.391 . S
C1430 C1431 1.400 . S
C1431 C1430 1.400 . S
C1431 C1432 1.398 . S
C1431 C1437 1.491 . S
C1432 H1423 0.950 . S
C1432 C1431 1.398 . S
C1432 C1433 1.391 . S
C1433 H1421 0.950 . S
C1433 C1429 1.393 . S
C1433 C1432 1.391 . S
C1434 H1424 0.950 1_565 S
C1434 C1435 1.381 1_565 S
C1434 C1436 1.391 . S
C1435 C1434 1.381 1_545 S
C1435 C1439 1.381 1_545 S
C1436 H1425 0.950 . S
C1436 C1434 1.391 . S
C1436 C1437 1.400 . S
C1437 C1431 1.491 . S
C1437 C1436 1.400 . S
C1437 C1438 1.398 . S
C1438 H1426 0.950 . S
C1438 C1437 1.398 . S
C1438 C1439 1.391 . S
C1439 H1427 0.950 . S
C1439 C1435 1.381 1_565 S
C1439 C1438 1.391 . S
H1440 C1448 0.950 . S
H1441 C1453 0.950 . S
H1442 C1450 0.950 . S
H1443 C1452 0.950 . S
H1444 C1454 0.950 . S
H1445 C1456 0.950 . S
H1446 C1458 0.950 . S
H1447 C1459 0.950 . S
C1448 H1440 0.950 . S
C1448 C1449 1.386 . S
C1448 C1450 1.391 . S
C1449 C1448 1.386 . S
C1449 C1453 1.393 . S
C1450 H1442 0.950 . S
C1450 C1448 1.391 . S
C1450 C1451 1.400 . S
C1451 C1450 1.400 . S
C1451 C1452 1.398 . S
C1451 C1457 1.491 . S
C1452 H1443 0.950 . S
C1452 C1451 1.398 . S
C1452 C1453 1.391 . S
C1453 H1441 0.950 . S
C1453 C1449 1.393 . S
C1453 C1452 1.391 . S
C1454 H1444 0.950 . S
C1454 C1455 1.386 . S
C1454 C1456 1.391 . S
C1455 C1454 1.386 . S
C1455 C1459 1.393 . S
C1456 H1445 0.950 . S
C1456 C1454 1.391 . S
C1456 C1457 1.400 . S
C1457 C1451 1.491 . S
C1457 C1456 1.400 . S
C1457 C1458 1.398 . S
C1458 H1446 0.950 . S
C1458 C1457 1.398 . S
C1458 C1459 1.391 . S
C1459 H1447 0.950 . S
C1459 C1455 1.393 . S
C1459 C1458 1.391 . S
H1460 C1468 0.950 . S
H1461 C1473 0.950 . S
H1462 C1470 0.950 . S
H1463 C1472 0.950 . S
H1464 C1474 0.950 . S
H1465 C1476 0.950 . S
H1466 C1478 0.950 . S
H1467 C1479 0.950 . S
C1468 H1460 0.950 . S
C1468 C1469 1.377 1_565 S
C1468 C1470 1.391 . S
C1469 C1468 1.377 1_545 S
C1469 C1473 1.384 1_545 S
C1470 H1462 0.950 . S
C1470 C1468 1.391 . S
C1470 C1471 1.400 . S
C1471 C1470 1.400 . S
C1471 C1472 1.398 . S
C1471 C1477 1.491 . S
C1472 H1463 0.950 . S
C1472 C1471 1.398 . S
C1472 C1473 1.391 . S
C1473 H1461 0.950 . S
C1473 C1469 1.384 1_565 S
C1473 C1472 1.391 . S
C1474 H1464 0.950 . S
C1474 C1475 1.386 . S
C1474 C1476 1.391 . S
C1475 C1474 1.386 . S
C1475 C1479 1.393 . S
C1476 H1465 0.950 . S
C1476 C1474 1.391 . S
C1476 C1477 1.400 . S
C1477 C1471 1.491 . S
C1477 C1476 1.400 . S
C1477 C1478 1.398 . S
C1478 H1466 0.950 . S
C1478 C1477 1.398 . S
C1478 C1479 1.391 . S
C1479 H1467 0.950 . S
C1479 C1475 1.393 . S
C1479 C1478 1.391 . S
H1480 C1488 0.950 . S
H1481 C1493 0.950 . S
H1482 C1490 0.950 . S
H1483 C1492 0.950 . S
H1484 C1494 0.950 . S
H1485 C1496 0.950 . S
H1486 C1498 0.950 . S
H1487 C1499 0.950 . S
C1488 H1480 0.950 . S
C1488 C1489 1.386 . S
C1488 C1490 1.391 . S
C1489 C1488 1.386 . S
C1489 C1493 1.393 . S
C1490 H1482 0.950 . S
C1490 C1488 1.391 . S
C1490 C1491 1.400 . S
C1491 C1490 1.400 . S
C1491 C1492 1.398 . S
C1491 C1497 1.491 . S
C1492 H1483 0.950 . S
C1492 C1491 1.398 . S
C1492 C1493 1.391 . S
C1493 H1481 0.950 . S
C1493 C1489 1.393 . S
C1493 C1492 1.391 . S
C1494 H1484 0.950 . S
C1494 C1495 1.386 . S
C1494 C1496 1.391 . S
C1495 C1494 1.386 . S
C1495 C1499 1.393 . S
C1496 H1485 0.950 . S
C1496 C1494 1.391 . S
C1496 C1497 1.400 . S
C1497 C1491 1.491 . S
C1497 C1496 1.400 . S
C1497 C1498 1.398 . S
C1498 H1486 0.950 . S
C1498 C1497 1.398 . S
C1498 C1499 1.391 . S
C1499 H1487 0.950 . S
C1499 C1495 1.393 . S
C1499 C1498 1.391 . S
H1500 C1508 0.950 . S
H1501 C1513 0.950 . S
H1502 C1510 0.950 . S
H1503 C1512 0.950 . S
H1504 C1514 0.950 . S
H1505 C1516 0.950 . S
H1506 C1518 0.950 . S
H1507 C1519 0.950 . S
C1508 H1500 0.950 . S
C1508 C1509 1.373 1_545 S
C1508 C1510 1.391 . S
C1509 C1508 1.373 1_565 S
C1509 C1513 1.395 . S
C1510 H1502 0.950 . S
C1510 C1508 1.391 . S
C1510 C1511 1.400 . S
C1511 C1510 1.400 . S
C1511 C1512 1.398 . S
C1511 C1517 1.491 . S
C1512 H1503 0.950 . S
C1512 C1511 1.398 . S
C1512 C1513 1.391 1_545 S
C1513 H1501 0.950 . S
C1513 C1509 1.395 . S
C1513 C1512 1.391 1_565 S
C1514 H1504 0.950 . S
C1514 C1515 1.386 . S
C1514 C1516 1.391 . S
C1515 C1514 1.386 . S
C1515 C1519 1.393 . S
C1516 H1505 0.950 . S
C1516 C1514 1.391 . S
C1516 C1517 1.400 . S
C1517 C1511 1.491 . S
C1517 C1516 1.400 . S
C1517 C1518 1.398 . S
C1518 H1506 0.950 . S
C1518 C1517 1.398 . S
C1518 C1519 1.391 . S
C1519 H1507 0.950 . S
C1519 C1515 1.393 . S
C1519 C1518 1.391 . S
H1520 C1528 0.950 . S
H1521 C1533 0.950 . S
H1522 C1530 0.950 . S
H1523 C1532 0.950 . S
H1524 C1534 0.950 . S
H1525 C1536 0.950 . S
H1526 C1538 0.950 . S
H1527 C1539 0.950 . S
C1528 H1520 0.950 . S
C1528 C1529 1.386 . S
C1528 C1530 1.391 . S
C1529 C1528 1.386 . S
C1529 C1533 1.393 . S
C1530 H1522 0.950 . S
C1530 C1528 1.391 . S
C1530 C1531 1.400 . S
C1531 C1530 1.400 . S
C1531 C1532 1.398 . S
C1531 C1537 1.491 . S
C1532 H1523 0.950 . S
C1532 C1531 1.398 . S
C1532 C1533 1.391 . S
C1533 H1521 0.950 . S
C1533 C1529 1.393 . S
C1533 C1532 1.391 . S
C1534 H1524 0.950 . S
C1534 C1535 1.386 . S
C1534 C1536 1.391 . S
C1535 C1534 1.386 . S
C1535 C1539 1.393 . S
C1536 H1525 0.950 . S
C1536 C1534 1.391 . S
C1536 C1537 1.400 . S
C1537 C1531 1.491 . S
C1537 C1536 1.400 . S
C1537 C1538 1.398 . S
C1538 H1526 0.950 . S
C1538 C1537 1.398 . S
C1538 C1539 1.391 . S
C1539 H1527 0.950 . S
C1539 C1535 1.393 . S
C1539 C1538 1.391 . S
H1540 C1548 0.950 . S
H1541 C1553 0.950 . S
H1542 C1550 0.950 . S
H1543 C1552 0.950 . S
H1544 C1554 0.950 . S
H1545 C1556 0.950 . S
H1546 C1558 0.950 . S
H1547 C1559 0.950 . S
C1548 H1540 0.950 . S
C1548 C1549 1.381 1_565 S
C1548 C1550 1.391 . S
C1549 C1548 1.381 1_545 S
C1549 C1553 1.394 . S
C1550 H1542 0.950 . S
C1550 C1548 1.391 . S
C1550 C1551 1.400 . S
C1551 C1550 1.400 . S
C1551 C1552 1.398 . S
C1551 C1557 1.491 . S
C1552 H1543 0.950 . S
C1552 C1551 1.398 . S
C1552 C1553 1.391 1_565 S
C1553 H1541 0.950 . S
C1553 C1549 1.394 . S
C1553 C1552 1.391 1_545 S
C1554 H1544 0.950 . S
C1554 C1555 1.386 . S
C1554 C1556 1.391 . S
C1555 C1554 1.386 . S
C1555 C1559 1.393 . S
C1556 H1545 0.950 . S
C1556 C1554 1.391 . S
C1556 C1557 1.400 . S
C1557 C1551 1.491 . S
C1557 C1556 1.400 . S
C1557 C1558 1.398 . S
C1558 H1546 0.950 . S
C1558 C1557 1.398 . S
C1558 C1559 1.391 . S
C1559 H1547 0.950 . S
C1559 C1555 1.393 . S
C1559 C1558 1.391 . S
H1560 C1568 0.950 . S
H1561 C1573 0.950 . S
H1562 C1570 0.950 . S
H1563 C1572 0.950 . S
H1564 C1574 0.950 . S
H1565 C1576 0.950 . S
H1566 C1578 0.950 . S
H1567 C1579 0.950 . S
C1568 H1560 0.950 . S
C1568 C1569 1.386 . S
C1568 C1570 1.391 . S
C1569 C1568 1.386 . S
C1569 C1573 1.393 . S
C1570 H1562 0.950 . S
C1570 C1568 1.391 . S
C1570 C1571 1.400 . S
C1571 C1570 1.400 . S
C1571 C1572 1.398 . S
C1571 C1577 1.491 . S
C1572 H1563 0.950 . S
C1572 C1571 1.398 . S
C1572 C1573 1.391 . S
C1573 H1561 0.950 . S
C1573 C1569 1.393 . S
C1573 C1572 1.391 . S
C1574 H1564 0.950 . S
C1574 C1575 1.386 . S
C1574 C1576 1.391 . S
C1575 C1574 1.386 . S
C1575 C1579 1.393 . S
C1576 H1565 0.950 . S
C1576 C1574 1.391 . S
C1576 C1577 1.400 . S
C1577 C1571 1.491 . S
C1577 C1576 1.400 . S
C1577 C1578 1.398 . S
C1578 H1566 0.950 . S
C1578 C1577 1.398 . S
C1578 C1579 1.391 . S
C1579 H1567 0.950 . S
C1579 C1575 1.393 . S
C1579 C1578 1.391 . S
H1580 C1588 0.950 . S
H1581 C1593 0.950 . S
H1582 C1590 0.950 . S
H1583 C1592 0.950 . S
H1584 C1594 0.950 . S
H1585 C1596 0.950 . S
H1586 C1598 0.950 . S
H1587 C1599 0.950 . S
C1588 H1580 0.950 . S
C1588 C1589 1.386 . S
C1588 C1590 1.391 . S
C1589 C1588 1.386 . S
C1589 C1593 1.393 . S
C1590 H1582 0.950 . S
C1590 C1588 1.391 . S
C1590 C1591 1.400 . S
C1591 C1590 1.400 . S
C1591 C1592 1.398 . S
C1591 C1597 1.491 . S
C1592 H1583 0.950 . S
C1592 C1591 1.398 . S
C1592 C1593 1.391 . S
C1593 H1581 0.950 . S
C1593 C1589 1.393 . S
C1593 C1592 1.391 . S
C1594 H1584 0.950 . S
C1594 C1595 1.395 . S
C1594 C1596 1.391 . S
C1595 C1594 1.395 . S
C1595 C1599 1.391 1_545 S
C1596 H1585 0.950 . S
C1596 C1594 1.391 . S
C1596 C1597 1.400 . S
C1597 C1591 1.491 . S
C1597 C1596 1.400 . S
C1597 C1598 1.398 . S
C1598 H1586 0.950 . S
C1598 C1597 1.398 . S
C1598 C1599 1.391 1_545 S
C1599 H1587 0.950 . S
C1599 C1595 1.391 1_565 S
C1599 C1598 1.391 1_565 S
H1600 C1608 0.950 . S
H1601 C1613 0.950 . S
H1602 C1610 0.950 . S
H1603 C1612 0.950 . S
H1604 C1614 0.950 . S
H1605 C1616 0.950 . S
H1606 C1618 0.950 . S
H1607 C1619 0.950 . S
C1608 H1600 0.950 . S
C1608 C1609 1.386 . S
C1608 C1610 1.391 . S
C1609 C1608 1.386 . S
C1609 C1613 1.393 . S
C1610 H1602 0.950 . S
C1610 C1608 1.391 . S
C1610 C1611 1.400 . S
C1611 C1610 1.400 . S
C1611 C1612 1.398 . S
C1611 C1617 1.491 . S
C1612 H1603 0.950 . S
C1612 C1611 1.398 . S
C1612 C1613 1.391 . S
C1613 H1601 0.950 . S
C1613 C1609 1.393 . S
C1613 C1612 1.391 . S
C1614 H1604 0.950 . S
C1614 C1615 1.386 . S
C1614 C1616 1.391 . S
C1615 C1614 1.386 . S
C1615 C1619 1.393 . S
C1616 H1605 0.950 . S
C1616 C1614 1.391 . S
C1616 C1617 1.400 . S
C1617 C1611 1.491 . S
C1617 C1616 1.400 . S
C1617 C1618 1.398 . S
C1618 H1606 0.950 . S
C1618 C1617 1.398 . S
C1618 C1619 1.391 . S
C1619 H1607 0.950 . S
C1619 C1615 1.393 . S
C1619 C1618 1.391 . S
H1620 C1628 0.950 . S
H1621 C1633 0.950 . S
H1622 C1630 0.950 . S
H1623 C1632 0.950 . S
H1624 C1634 0.950 . S
H1625 C1636 0.950 . S
H1626 C1638 0.950 . S
H1627 C1639 0.950 . S
C1628 H1620 0.950 . S
C1628 C1629 1.386 . S
C1628 C1630 1.391 . S
C1629 C1628 1.386 . S
C1629 C1633 1.393 . S
C1630 H1622 0.950 . S
C1630 C1628 1.391 . S
C1630 C1631 1.400 . S
C1631 C1630 1.400 . S
C1631 C1632 1.398 . S
C1631 C1637 1.491 . S
C1632 H1623 0.950 . S
C1632 C1631 1.398 . S
C1632 C1633 1.391 . S
C1633 H1621 0.950 . S
C1633 C1629 1.393 . S
C1633 C1632 1.391 . S
C1634 H1624 0.950 . S
C1634 C1635 1.386 . S
C1634 C1636 1.391 . S
C1635 C1634 1.386 . S
C1635 C1639 1.393 . S
C1636 H1625 0.950 . S
C1636 C1634 1.391 . S
C1636 C1637 1.400 . S
C1637 C1631 1.491 . S
C1637 C1636 1.400 . S
C1637 C1638 1.398 . S
C1638 H1626 0.950 . S
C1638 C1637 1.398 . S
C1638 C1639 1.391 . S
C1639 H1627 0.950 . S
C1639 C1635 1.393 . S
C1639 C1638 1.391 . S
H1640 C1648 0.950 . S
H1641 C1653 0.950 . S
H1642 C1650 0.950 . S
H1643 C1652 0.950 . S
H1644 C1654 0.950 . S
H1645 C1656 0.950 . S
H1646 C1658 0.950 . S
H1647 C1659 0.950 . S
C1648 H1640 0.950 . S
C1648 C1649 1.386 . S
C1648 C1650 1.391 . S
C1649 C1648 1.386 . S
C1649 C1653 1.393 . S
C1650 H1642 0.950 . S
C1650 C1648 1.391 . S
C1650 C1651 1.400 . S
C1651 C1650 1.400 . S
C1651 C1652 1.398 . S
C1651 C1657 1.491 . S
C1652 H1643 0.950 . S
C1652 C1651 1.398 . S
C1652 C1653 1.391 . S
C1653 H1641 0.950 . S
C1653 C1649 1.393 . S
C1653 C1652 1.391 . S
C1654 H1644 0.950 . S
C1654 C1655 1.386 . S
C1654 C1656 1.391 . S
C1655 C1654 1.386 . S
C1655 C1659 1.393 . S
C1656 H1645 0.950 . S
C1656 C1654 1.391 . S
C1656 C1657 1.400 . S
C1657 C1651 1.491 . S
C1657 C1656 1.400 . S
C1657 C1658 1.398 . S
C1658 H1646 0.950 . S
C1658 C1657 1.398 . S
C1658 C1659 1.391 . S
C1659 H1647 0.950 . S
C1659 C1655 1.393 . S
C1659 C1658 1.391 . S
H1660 C1668 0.950 . S
H1661 C1673 0.950 . S
H1662 C1670 0.950 . S
H1663 C1672 0.950 . S
H1664 C1674 0.950 . S
H1665 C1676 0.950 . S
H1666 C1678 0.950 . S
H1667 C1679 0.950 . S
C1668 H1660 0.950 . S
C1668 C1669 1.386 . S
C1668 C1670 1.391 . S
C1669 C1668 1.386 . S
C1669 C1673 1.393 . S
C1670 H1662 0.950 . S
C1670 C1668 1.391 . S
C1670 C1671 1.400 . S
C1671 C1670 1.400 . S
C1671 C1672 1.398 . S
C1671 C1677 1.491 . S
C1672 H1663 0.950 . S
C1672 C1671 1.398 . S
C1672 C1673 1.391 . S
C1673 H1661 0.950 . S
C1673 C1669 1.393 . S
C1673 C1672 1.391 . S
C1674 H1664 0.950 . S
C1674 C1675 1.386 . S
C1674 C1676 1.391 . S
C1675 C1674 1.386 . S
C1675 C1679 1.393 . S
C1676 H1665 0.950 . S
C1676 C1674 1.391 . S
C1676 C1677 1.400 . S
C1677 C1671 1.491 . S
C1677 C1676 1.400 . S
C1677 C1678 1.398 . S
C1678 H1666 0.950 . S
C1678 C1677 1.398 . S
C1678 C1679 1.391 . S
C1679 H1667 0.950 . S
C1679 C1675 1.393 . S
C1679 C1678 1.391 . S
H1680 C1688 0.950 . S
H1681 C1693 0.950 . S
H1682 C1690 0.950 . S
H1683 C1692 0.950 . S
H1684 C1694 0.950 . S
H1685 C1696 0.950 . S
H1686 C1698 0.950 . S
H1687 C1699 0.950 . S
C1688 H1680 0.950 . S
C1688 C1689 1.386 . S
C1688 C1690 1.391 . S
C1689 C1688 1.386 . S
C1689 C1693 1.393 . S
C1690 H1682 0.950 . S
C1690 C1688 1.391 . S
C1690 C1691 1.400 . S
C1691 C1690 1.400 . S
C1691 C1692 1.398 . S
C1691 C1697 1.491 . S
C1692 H1683 0.950 . S
C1692 C1691 1.398 . S
C1692 C1693 1.391 . S
C1693 H1681 0.950 . S
C1693 C1689 1.393 . S
C1693 C1692 1.391 . S
C1694 H1684 0.950 . S
C1694 C1695 1.386 . S
C1694 C1696 1.391 . S
C1695 C1694 1.386 . S
C1695 C1699 1.393 . S
C1696 H1685 0.950 . S
C1696 C1694 1.391 . S
C1696 C1697 1.400 . S
C1697 C1691 1.491 . S
C1697 C1696 1.400 . S
C1697 C1698 1.398 . S
C1698 H1686 0.950 . S
C1698 C1697 1.398 . S
C1698 C1699 1.391 . S
C1699 H1687 0.950 . S
C1699 C1695 1.393 . S
C1699 C1698 1.391 . S
H1700 C1708 0.950 . S
H1701 C1713 0.950 . S
H1702 C1710 0.950 . S
H1703 C1712 0.950 . S
H1704 C1714 0.950 . S
H1705 C1716 0.950 . S
H1706 C1718 0.950 . S
H1707 C1719 0.950 . S
C1708 H1700 0.950 . S
C1708 C1709 1.386 . S
C1708 C1710 1.391 . S
C1709 C1708 1.386 . S
C1709 C1713 1.393 . S
C1710 H1702 0.950 . S
C1710 C1708 1.391 . S
C1710 C1711 1.400 . S
C1711 C1710 1.400 . S
C1711 C1712 1.398 . S
C1711 C1717 1.491 . S
C1712 H1703 0.950 . S
C1712 C1711 1.398 . S
C1712 C1713 1.391 . S
C1713 H1701 0.950 . S
C1713 C1709 1.393 . S
C1713 C1712 1.391 . S
C1714 H1704 0.950 . S
C1714 C1715 1.386 . S
C1714 C1716 1.391 . S
C1715 C1714 1.386 . S
C1715 C1719 1.393 . S
C1716 H1705 0.950 . S
C1716 C1714 1.391 . S
C1716 C1717 1.400 . S
C1717 C1711 1.491 . S
C1717 C1716 1.400 . S
C1717 C1718 1.398 . S
C1718 H1706 0.950 . S
C1718 C1717 1.398 . S
C1718 C1719 1.391 . S
C1719 H1707 0.950 . S
C1719 C1715 1.393 . S
C1719 C1718 1.391 . S
H1720 C1728 0.950 . S
H1721 C1733 0.950 . S
H1722 C1730 0.950 . S
H1723 C1732 0.950 . S
H1724 C1734 0.950 . S
H1725 C1736 0.950 . S
H1726 C1738 0.950 . S
H1727 C1739 0.950 . S
C1728 H1720 0.950 . S
C1728 C1729 1.386 . S
C1728 C1730 1.391 . S
C1729 C1728 1.386 . S
C1729 C1733 1.393 . S
C1730 H1722 0.950 . S
C1730 C1728 1.391 . S
C1730 C1731 1.400 . S
C1731 C1730 1.400 . S
C1731 C1732 1.398 . S
C1731 C1737 1.491 . S
C1732 H1723 0.950 . S
C1732 C1731 1.398 . S
C1732 C1733 1.391 . S
C1733 H1721 0.950 . S
C1733 C1729 1.393 . S
C1733 C1732 1.391 . S
C1734 H1724 0.950 . S
C1734 C1735 1.386 . S
C1734 C1736 1.391 . S
C1735 C1734 1.386 . S
C1735 C1739 1.393 . S
C1736 H1725 0.950 . S
C1736 C1734 1.391 . S
C1736 C1737 1.400 . S
C1737 C1731 1.491 . S
C1737 C1736 1.400 . S
C1737 C1738 1.398 . S
C1738 H1726 0.950 . S
C1738 C1737 1.398 . S
C1738 C1739 1.391 . S
C1739 H1727 0.950 . S
C1739 C1735 1.393 . S
C1739 C1738 1.391 . S
H1740 C1748 0.950 . S
H1741 C1753 0.950 . S
H1742 C1750 0.950 . S
H1743 C1752 0.950 . S
H1744 C1754 0.950 . S
H1745 C1756 0.950 . S
H1746 C1758 0.950 . S
H1747 C1759 0.950 . S
C1748 H1740 0.950 . S
C1748 C1749 1.386 . S
C1748 C1750 1.391 . S
C1749 C1748 1.386 . S
C1749 C1753 1.393 . S
C1750 H1742 0.950 . S
C1750 C1748 1.391 . S
C1750 C1751 1.400 . S
C1751 C1750 1.400 . S
C1751 C1752 1.398 . S
C1751 C1757 1.491 . S
C1752 H1743 0.950 . S
C1752 C1751 1.398 . S
C1752 C1753 1.391 . S
C1753 H1741 0.950 . S
C1753 C1749 1.393 . S
C1753 C1752 1.391 . S
C1754 H1744 0.950 . S
C1754 C1755 1.386 . S
C1754 C1756 1.391 . S
C1755 C1754 1.386 . S
C1755 C1759 1.393 . S
C1756 H1745 0.950 . S
C1756 C1754 1.391 . S
C1756 C1757 1.400 . S
C1757 C1751 1.491 . S
C1757 C1756 1.400 . S
C1757 C1758 1.398 . S
C1758 H1746 0.950 . S
C1758 C1757 1.398 . S
C1758 C1759 1.391 . S
C1759 H1747 0.950 . S
C1759 C1755 1.393 . S
C1759 C1758 1.391 . S
H1760 C1768 0.950 . S
H1761 C1773 0.950 . S
H1762 C1770 0.950 . S
H1763 C1772 0.950 . S
H1764 C1774 0.950 . S
H1765 C1776 0.950 . S
H1766 C1778 0.950 . S
H1767 C1779 0.950 . S
C1768 H1760 0.950 . S
C1768 C1769 1.386 . S
C1768 C1770 1.391 . S
C1769 C1768 1.386 . S
C1769 C1773 1.393 . S
C1770 H1762 0.950 . S
C1770 C1768 1.391 . S
C1770 C1771 1.400 . S
C1771 C1770 1.400 . S
C1771 C1772 1.398 . S
C1771 C1777 1.491 . S
C1772 H1763 0.950 . S
C1772 C1771 1.398 . S
C1772 C1773 1.391 . S
C1773 H1761 0.950 . S
C1773 C1769 1.393 . S
C1773 C1772 1.391 . S
C1774 H1764 0.950 . S
C1774 C1775 1.386 . S
C1774 C1776 1.391 . S
C1775 C1774 1.386 . S
C1775 C1779 1.393 . S
C1776 H1765 0.950 . S
C1776 C1774 1.391 . S
C1776 C1777 1.400 . S
C1777 C1771 1.491 . S
C1777 C1776 1.400 . S
C1777 C1778 1.398 . S
C1778 H1766 0.950 . S
C1778 C1777 1.398 . S
C1778 C1779 1.391 . S
C1779 H1767 0.950 . S
C1779 C1775 1.393 . S
C1779 C1778 1.391 . S
H1780 C1788 0.950 . S
H1781 C1793 0.950 . S
H1782 C1790 0.950 . S
H1783 C1792 0.950 . S
H1784 C1794 0.950 . S
H1785 C1796 0.950 . S
H1786 C1798 0.950 . S
H1787 C1799 0.950 . S
C1788 H1780 0.950 . S
C1788 C1789 1.386 . S
C1788 C1790 1.391 . S
C1789 C1788 1.386 . S
C1789 C1793 1.393 . S
C1790 H1782 0.950 . S
C1790 C1788 1.391 . S
C1790 C1791 1.400 . S
C1791 C1790 1.400 . S
C1791 C1792 1.398 . S
C1791 C1797 1.491 . S
C1792 H1783 0.950 . S
C1792 C1791 1.398 . S
C1792 C1793 1.391 . S
C1793 H1781 0.950 . S
C1793 C1789 1.393 . S
C1793 C1792 1.391 . S
C1794 H1784 0.950 . S
C1794 C1795 1.386 . S
C1794 C1796 1.391 . S
C1795 C1794 1.386 . S
C1795 C1799 1.393 . S
C1796 H1785 0.950 . S
C1796 C1794 1.391 . S
C1796 C1797 1.400 . S
C1797 C1791 1.491 . S
C1797 C1796 1.400 . S
C1797 C1798 1.398 . S
C1798 H1786 0.950 . S
C1798 C1797 1.398 . S
C1798 C1799 1.391 . S
C1799 H1787 0.950 . S
C1799 C1795 1.393 . S
C1799 C1798 1.391 . S
H1800 C1808 0.950 . S
H1801 C1813 0.950 . S
H1802 C1810 0.950 . S
H1803 C1812 0.950 . S
H1804 C1814 0.950 . S
H1805 C1816 0.950 . S
H1806 C1818 0.950 . S
H1807 C1819 0.950 . S
C1808 H1800 0.950 . S
C1808 C1809 1.386 . S
C1808 C1810 1.391 . S
C1809 C1808 1.386 . S
C1809 C1813 1.393 . S
C1810 H1802 0.950 . S
C1810 C1808 1.391 . S
C1810 C1811 1.400 . S
C1811 C1810 1.400 . S
C1811 C1812 1.398 . S
C1811 C1817 1.491 . S
C1812 H1803 0.950 . S
C1812 C1811 1.398 . S
C1812 C1813 1.391 . S
C1813 H1801 0.950 . S
C1813 C1809 1.393 . S
C1813 C1812 1.391 . S
C1814 H1804 0.950 . S
C1814 C1815 1.386 . S
C1814 C1816 1.391 . S
C1815 C1814 1.386 . S
C1815 C1819 1.393 . S
C1816 H1805 0.950 . S
C1816 C1814 1.391 . S
C1816 C1817 1.400 . S
C1817 C1811 1.491 . S
C1817 C1816 1.400 . S
C1817 C1818 1.398 . S
C1818 H1806 0.950 . S
C1818 C1817 1.398 . S
C1818 C1819 1.391 . S
C1819 H1807 0.950 . S
C1819 C1815 1.393 . S
C1819 C1818 1.391 . S
H1820 C1828 0.950 . S
H1821 C1833 0.950 . S
H1822 C1830 0.950 . S
H1823 C1832 0.950 . S
H1824 C1834 0.950 . S
H1825 C1836 0.950 . S
H1826 C1838 0.950 . S
H1827 C1839 0.950 . S
C1828 H1820 0.950 . S
C1828 C1829 1.386 . S
C1828 C1830 1.391 . S
C1829 C1828 1.386 . S
C1829 C1833 1.393 . S
C1830 H1822 0.950 . S
C1830 C1828 1.391 . S
C1830 C1831 1.400 . S
C1831 C1830 1.400 . S
C1831 C1832 1.398 . S
C1831 C1837 1.491 . S
C1832 H1823 0.950 . S
C1832 C1831 1.398 . S
C1832 C1833 1.391 . S
C1833 H1821 0.950 . S
C1833 C1829 1.393 . S
C1833 C1832 1.391 . S
C1834 H1824 0.950 . S
C1834 C1835 1.386 . S
C1834 C1836 1.391 . S
C1835 C1834 1.386 . S
C1835 C1839 1.393 . S
C1836 H1825 0.950 . S
C1836 C1834 1.391 . S
C1836 C1837 1.400 . S
C1837 C1831 1.491 . S
C1837 C1836 1.400 . S
C1837 C1838 1.398 . S
C1838 H1826 0.950 . S
C1838 C1837 1.398 . S
C1838 C1839 1.391 . S
C1839 H1827 0.950 . S
C1839 C1835 1.393 . S
C1839 C1838 1.391 . S
H1840 C1848 0.950 . S
H1841 C1853 0.950 . S
H1842 C1850 0.950 . S
H1843 C1852 0.950 . S
H1844 C1854 0.950 . S
H1845 C1856 0.950 . S
H1846 C1858 0.950 . S
H1847 C1859 0.950 . S
C1848 H1840 0.950 . S
C1848 C1849 1.386 . S
C1848 C1850 1.391 . S
C1849 C1848 1.386 . S
C1849 C1853 1.393 . S
C1850 H1842 0.950 . S
C1850 C1848 1.391 . S
C1850 C1851 1.400 . S
C1851 C1850 1.400 . S
C1851 C1852 1.398 . S
C1851 C1857 1.491 . S
C1852 H1843 0.950 . S
C1852 C1851 1.398 . S
C1852 C1853 1.391 . S
C1853 H1841 0.950 . S
C1853 C1849 1.393 . S
C1853 C1852 1.391 . S
C1854 H1844 0.950 . S
C1854 C1855 1.386 . S
C1854 C1856 1.391 . S
C1855 C1854 1.386 . S
C1855 C1859 1.393 . S
C1856 H1845 0.950 . S
C1856 C1854 1.391 . S
C1856 C1857 1.400 . S
C1857 C1851 1.491 . S
C1857 C1856 1.400 . S
C1857 C1858 1.398 . S
C1858 H1846 0.950 . S
C1858 C1857 1.398 . S
C1858 C1859 1.391 . S
C1859 H1847 0.950 . S
C1859 C1855 1.393 . S
C1859 C1858 1.391 . S
H1860 C1868 0.950 . S
H1861 C1873 0.950 . S
H1862 C1870 0.950 . S
H1863 C1872 0.950 . S
H1864 C1874 0.950 . S
H1865 C1876 0.950 . S
H1866 C1878 0.950 . S
H1867 C1879 0.950 . S
C1868 H1860 0.950 . S
C1868 C1869 1.386 . S
C1868 C1870 1.391 . S
C1869 C1868 1.386 . S
C1869 C1873 1.393 . S
C1870 H1862 0.950 . S
C1870 C1868 1.391 . S
C1870 C1871 1.400 . S
C1871 C1870 1.400 . S
C1871 C1872 1.398 . S
C1871 C1877 1.491 . S
C1872 H1863 0.950 . S
C1872 C1871 1.398 . S
C1872 C1873 1.391 . S
C1873 H1861 0.950 . S
C1873 C1869 1.393 . S
C1873 C1872 1.391 . S
C1874 H1864 0.950 . S
C1874 C1875 1.386 . S
C1874 C1876 1.391 . S
C1875 C1874 1.386 . S
C1875 C1879 1.393 . S
C1876 H1865 0.950 . S
C1876 C1874 1.391 . S
C1876 C1877 1.400 . S
C1877 C1871 1.491 . S
C1877 C1876 1.400 . S
C1877 C1878 1.398 . S
C1878 H1866 0.950 . S
C1878 C1877 1.398 . S
C1878 C1879 1.391 . S
C1879 H1867 0.950 . S
C1879 C1875 1.393 . S
C1879 C1878 1.391 . S
H1880 C1888 0.950 . S
H1881 C1893 0.950 . S
H1882 C1890 0.950 . S
H1883 C1892 0.950 . S
H1884 C1894 0.950 . S
H1885 C1896 0.950 . S
H1886 C1898 0.950 . S
H1887 C1899 0.950 . S
C1888 H1880 0.950 . S
C1888 C1889 1.386 . S
C1888 C1890 1.391 . S
C1889 C1888 1.386 . S
C1889 C1893 1.393 . S
C1890 H1882 0.950 . S
C1890 C1888 1.391 . S
C1890 C1891 1.400 . S
C1891 C1890 1.400 . S
C1891 C1892 1.398 . S
C1891 C1897 1.491 . S
C1892 H1883 0.950 . S
C1892 C1891 1.398 . S
C1892 C1893 1.391 . S
C1893 H1881 0.950 . S
C1893 C1889 1.393 . S
C1893 C1892 1.391 . S
C1894 H1884 0.950 . S
C1894 C1895 1.386 . S
C1894 C1896 1.391 . S
C1895 C1894 1.386 . S
C1895 C1899 1.393 . S
C1896 H1885 0.950 . S
C1896 C1894 1.391 . S
C1896 C1897 1.400 . S
C1897 C1891 1.491 . S
C1897 C1896 1.400 . S
C1897 C1898 1.398 . S
C1898 H1886 0.950 . S
C1898 C1897 1.398 . S
C1898 C1899 1.391 . S
C1899 H1887 0.950 . S
C1899 C1895 1.393 . S
C1899 C1898 1.391 . S
H1900 C1908 0.950 . S
H1901 C1913 0.950 . S
H1902 C1910 0.950 . S
H1903 C1912 0.950 . S
H1904 C1914 0.950 . S
H1905 C1916 0.950 . S
H1906 C1918 0.950 . S
H1907 C1919 0.950 . S
C1908 H1900 0.950 . S
C1908 C1909 1.386 . S
C1908 C1910 1.391 . S
C1909 C1908 1.386 . S
C1909 C1913 1.393 . S
C1910 H1902 0.950 . S
C1910 C1908 1.391 . S
C1910 C1911 1.400 . S
C1911 C1910 1.400 . S
C1911 C1912 1.398 . S
C1911 C1917 1.491 . S
C1912 H1903 0.950 . S
C1912 C1911 1.398 . S
C1912 C1913 1.391 . S
C1913 H1901 0.950 . S
C1913 C1909 1.393 . S
C1913 C1912 1.391 . S
C1914 H1904 0.950 . S
C1914 C1915 1.386 . S
C1914 C1916 1.391 . S
C1915 C1914 1.386 . S
C1915 C1919 1.393 . S
C1916 H1905 0.950 . S
C1916 C1914 1.391 . S
C1916 C1917 1.400 . S
C1917 C1911 1.491 . S
C1917 C1916 1.400 . S
C1917 C1918 1.398 . S
C1918 H1906 0.950 . S
C1918 C1917 1.398 . S
C1918 C1919 1.391 . S
C1919 H1907 0.950 . S
C1919 C1915 1.393 . S
C1919 C1918 1.391 . S
H1920 C1928 0.950 . S
H1921 C1933 0.950 . S
H1922 C1930 0.950 . S
H1923 C1932 0.950 . S
H1924 C1934 0.950 . S
H1925 C1936 0.950 . S
H1926 C1938 0.950 . S
H1927 C1939 0.950 . S
C1928 H1920 0.950 . S
C1928 C1929 1.386 . S
C1928 C1930 1.391 . S
C1929 C1928 1.386 . S
C1929 C1933 1.393 . S
C1930 H1922 0.950 . S
C1930 C1928 1.391 . S
C1930 C1931 1.400 . S
C1931 C1930 1.400 . S
C1931 C1932 1.398 . S
C1931 C1937 1.491 . S
C1932 H1923 0.950 . S
C1932 C1931 1.398 . S
C1932 C1933 1.391 . S
C1933 H1921 0.950 . S
C1933 C1929 1.393 . S
C1933 C1932 1.391 . S
C1934 H1924 0.950 . S
C1934 C1935 1.386 . S
C1934 C1936 1.391 . S
C1935 C1934 1.386 . S
C1935 C1939 1.393 . S
C1936 H1925 0.950 . S
C1936 C1934 1.391 . S
C1936 C1937 1.400 . S
C1937 C1931 1.491 . S
C1937 C1936 1.400 . S
C1937 C1938 1.398 . S
C1938 H1926 0.950 . S
C1938 C1937 1.398 . S
C1938 C1939 1.391 . S
C1939 H1927 0.950 . S
C1939 C1935 1.393 . S
C1939 C1938 1.391 . S
H1940 C1948 0.950 . S
H1941 C1953 0.950 . S
H1942 C1950 0.950 . S
H1943 C1952 0.950 . S
H1944 C1954 0.950 . S
H1945 C1956 0.950 . S
H1946 C1958 0.950 . S
H1947 C1959 0.950 . S
C1948 H1940 0.950 . S
C1948 C1949 1.386 . S
C1948 C1950 1.391 . S
C1949 C1948 1.386 . S
C1949 C1953 1.393 . S
C1950 H1942 0.950 . S
C1950 C1948 1.391 . S
C1950 C1951 1.400 . S
C1951 C1950 1.400 . S
C1951 C1952 1.398 . S
C1951 C1957 1.491 . S
C1952 H1943 0.950 . S
C1952 C1951 1.398 . S
C1952 C1953 1.391 . S
C1953 H1941 0.950 . S
C1953 C1949 1.393 . S
C1953 C1952 1.391 . S
C1954 H1944 0.950 . S
C1954 C1955 1.368 1_455 S
C1954 C1956 1.391 . S
C1955 C1954 1.368 1_655 S
C1955 C1959 1.373 1_655 S
C1956 H1945 0.950 . S
C1956 C1954 1.391 . S
C1956 C1957 1.400 . S
C1957 C1951 1.491 . S
C1957 C1956 1.400 . S
C1957 C1958 1.398 . S
C1958 H1946 0.950 . S
C1958 C1957 1.398 . S
C1958 C1959 1.391 . S
C1959 H1947 0.950 . S
C1959 C1955 1.373 1_455 S
C1959 C1958 1.391 . S
H1960 C1968 0.950 . S
H1961 C1973 0.950 . S
H1962 C1970 0.950 . S
H1963 C1972 0.950 . S
H1964 C1974 0.950 . S
H1965 C1976 0.950 . S
H1966 C1978 0.950 . S
H1967 C1979 0.950 . S
C1968 H1960 0.950 . S
C1968 C1969 1.386 . S
C1968 C1970 1.391 . S
C1969 C1968 1.386 . S
C1969 C1973 1.393 . S
C1970 H1962 0.950 . S
C1970 C1968 1.391 . S
C1970 C1971 1.400 . S
C1971 C1970 1.400 . S
C1971 C1972 1.398 . S
C1971 C1977 1.491 . S
C1972 H1963 0.950 . S
C1972 C1971 1.398 . S
C1972 C1973 1.391 . S
C1973 H1961 0.950 . S
C1973 C1969 1.393 . S
C1973 C1972 1.391 . S
C1974 H1964 0.950 . S
C1974 C1975 1.386 . S
C1974 C1976 1.391 . S
C1975 C1974 1.386 . S
C1975 C1979 1.393 . S
C1976 H1965 0.950 . S
C1976 C1974 1.391 . S
C1976 C1977 1.400 . S
C1977 C1971 1.491 . S
C1977 C1976 1.400 . S
C1977 C1978 1.398 . S
C1978 H1966 0.950 . S
C1978 C1977 1.398 . S
C1978 C1979 1.391 . S
C1979 H1967 0.950 . S
C1979 C1975 1.393 . S
C1979 C1978 1.391 . S
H1980 C1988 0.950 . S
H1981 C1993 0.950 . S
H1982 C1990 0.950 . S
H1983 C1992 0.950 . S
H1984 C1994 0.950 . S
H1985 C1996 0.950 . S
H1986 C1998 0.950 . S
H1987 C1999 0.950 . S
C1988 H1980 0.950 . S
C1988 C1989 1.386 . S
C1988 C1990 1.391 . S
C1989 C1988 1.386 . S
C1989 C1993 1.393 . S
C1990 H1982 0.950 . S
C1990 C1988 1.391 . S
C1990 C1991 1.400 . S
C1991 C1990 1.400 . S
C1991 C1992 1.398 . S
C1991 C1997 1.491 . S
C1992 H1983 0.950 . S
C1992 C1991 1.398 . S
C1992 C1993 1.391 . S
C1993 H1981 0.950 . S
C1993 C1989 1.393 . S
C1993 C1992 1.391 . S
C1994 H1984 0.950 . S
C1994 C1995 1.386 . S
C1994 C1996 1.391 . S
C1995 C1994 1.386 . S
C1995 C1999 1.393 . S
C1996 H1985 0.950 . S
C1996 C1994 1.391 . S
C1996 C1997 1.400 . S
C1997 C1991 1.491 . S
C1997 C1996 1.400 . S
C1997 C1998 1.398 . S
C1998 H1986 0.950 . S
C1998 C1997 1.398 . S
C1998 C1999 1.391 . S
C1999 H1987 0.950 . S
C1999 C1995 1.393 . S
C1999 C1998 1.391 . S
H2000 C2008 0.950 . S
H2001 C2013 0.950 . S
H2002 C2010 0.950 . S
H2003 C2012 0.950 . S
H2004 C2014 0.950 . S
H2005 C2016 0.950 . S
H2006 C2018 0.950 . S
H2007 C2019 0.950 . S
C2008 H2000 0.950 . S
C2008 C2009 1.386 . S
C2008 C2010 1.391 . S
C2009 C2008 1.386 . S
C2009 C2013 1.393 . S
C2010 H2002 0.950 . S
C2010 C2008 1.391 . S
C2010 C2011 1.400 . S
C2011 C2010 1.400 . S
C2011 C2012 1.398 . S
C2011 C2017 1.491 . S
C2012 H2003 0.950 . S
C2012 C2011 1.398 . S
C2012 C2013 1.391 . S
C2013 H2001 0.950 . S
C2013 C2009 1.393 . S
C2013 C2012 1.391 . S
C2014 H2004 0.950 . S
C2014 C2015 1.386 . S
C2014 C2016 1.391 . S
C2015 C2014 1.386 . S
C2015 C2019 1.393 . S
C2016 H2005 0.950 . S
C2016 C2014 1.391 . S
C2016 C2017 1.400 . S
C2017 C2011 1.491 . S
C2017 C2016 1.400 . S
C2017 C2018 1.398 . S
C2018 H2006 0.950 . S
C2018 C2017 1.398 . S
C2018 C2019 1.391 . S
C2019 H2007 0.950 . S
C2019 C2015 1.393 . S
C2019 C2018 1.391 . S
H2020 C2028 0.950 . S
H2021 C2033 0.950 . S
H2022 C2030 0.950 . S
H2023 C2032 0.950 . S
H2024 C2034 0.950 . S
H2025 C2036 0.950 . S
H2026 C2038 0.950 . S
H2027 C2039 0.950 . S
C2028 H2020 0.950 . S
C2028 C2029 1.386 . S
C2028 C2030 1.391 . S
C2029 C2028 1.386 . S
C2029 C2033 1.393 . S
C2030 H2022 0.950 . S
C2030 C2028 1.391 . S
C2030 C2031 1.400 . S
C2031 C2030 1.400 . S
C2031 C2032 1.398 . S
C2031 C2037 1.491 . S
C2032 H2023 0.950 . S
C2032 C2031 1.398 . S
C2032 C2033 1.391 . S
C2033 H2021 0.950 . S
C2033 C2029 1.393 . S
C2033 C2032 1.391 . S
C2034 H2024 0.950 . S
C2034 C2035 1.386 . S
C2034 C2036 1.391 . S
C2035 C2034 1.386 . S
C2035 C2039 1.393 . S
C2036 H2025 0.950 . S
C2036 C2034 1.391 . S
C2036 C2037 1.400 . S
C2037 C2031 1.491 . S
C2037 C2036 1.400 . S
C2037 C2038 1.398 . S
C2038 H2026 0.950 . S
C2038 C2037 1.398 . S
C2038 C2039 1.391 . S
C2039 H2027 0.950 . S
C2039 C2035 1.393 . S
C2039 C2038 1.391 . S
H2040 C2048 0.950 . S
H2041 C2053 0.950 . S
H2042 C2050 0.950 . S
H2043 C2052 0.950 . S
H2044 C2054 0.950 . S
H2045 C2056 0.950 . S
H2046 C2058 0.950 . S
H2047 C2059 0.950 . S
C2048 H2040 0.950 . S
C2048 C2049 1.386 . S
C2048 C2050 1.391 . S
C2049 C2048 1.386 . S
C2049 C2053 1.393 . S
C2050 H2042 0.950 . S
C2050 C2048 1.391 . S
C2050 C2051 1.400 . S
C2051 C2050 1.400 . S
C2051 C2052 1.398 . S
C2051 C2057 1.491 . S
C2052 H2043 0.950 . S
C2052 C2051 1.398 . S
C2052 C2053 1.391 . S
C2053 H2041 0.950 . S
C2053 C2049 1.393 . S
C2053 C2052 1.391 . S
C2054 H2044 0.950 . S
C2054 C2055 1.386 . S
C2054 C2056 1.391 . S
C2055 C2054 1.386 . S
C2055 C2059 1.393 . S
C2056 H2045 0.950 . S
C2056 C2054 1.391 . S
C2056 C2057 1.400 . S
C2057 C2051 1.491 . S
C2057 C2056 1.400 . S
C2057 C2058 1.398 . S
C2058 H2046 0.950 . S
C2058 C2057 1.398 . S
C2058 C2059 1.391 . S
C2059 H2047 0.950 . S
C2059 C2055 1.393 . S
C2059 C2058 1.391 . S
H2060 C2068 0.950 . S
H2061 C2073 0.950 . S
H2062 C2070 0.950 . S
H2063 C2072 0.950 . S
H2064 C2074 0.950 . S
H2065 C2076 0.950 . S
H2066 C2078 0.950 . S
H2067 C2079 0.982 . S
C2068 H2060 0.950 . S
C2068 C2069 1.386 . S
C2068 C2070 1.391 . S
C2069 C2068 1.386 . S
C2069 C2073 1.393 . S
C2070 H2062 0.950 . S
C2070 C2068 1.391 . S
C2070 C2071 1.400 . S
C2071 C2070 1.400 . S
C2071 C2072 1.398 . S
C2071 C2077 1.491 . S
C2072 H2063 0.950 . S
C2072 C2071 1.398 . S
C2072 C2073 1.391 . S
C2073 H2061 0.950 . S
C2073 C2069 1.393 . S
C2073 C2072 1.391 . S
C2074 H2064 0.950 . S
C2074 C2075 1.356 1_455 S
C2074 C2076 1.391 . S
C2075 C2074 1.356 1_655 S
C2075 C2079 1.393 . S
C2076 H2065 0.950 . S
C2076 C2074 1.391 . S
C2076 C2077 1.400 . S
C2077 C2071 1.491 . S
C2077 C2076 1.400 . S
C2077 C2078 1.398 . S
C2078 H2066 0.950 . S
C2078 C2077 1.398 . S
C2078 C2079 1.359 1_455 S
C2079 H2067 0.982 . S
C2079 C2075 1.393 . S
C2079 C2078 1.359 1_655 S
H2080 C2088 0.950 . S
H2081 C2093 0.950 . S
H2082 C2090 0.950 . S
H2083 C2092 0.950 . S
H2084 C2094 0.950 . S
H2085 C2096 0.950 . S
H2086 C2098 0.950 . S
H2087 C2099 0.950 . S
C2088 H2080 0.950 . S
C2088 C2089 1.386 . S
C2088 C2090 1.391 . S
C2089 C2088 1.386 . S
C2089 C2093 1.393 . S
C2090 H2082 0.950 . S
C2090 C2088 1.391 . S
C2090 C2091 1.400 . S
C2091 C2090 1.400 . S
C2091 C2092 1.398 . S
C2091 C2097 1.491 . S
C2092 H2083 0.950 . S
C2092 C2091 1.398 . S
C2092 C2093 1.391 . S
C2093 H2081 0.950 . S
C2093 C2089 1.393 . S
C2093 C2092 1.391 . S
C2094 H2084 0.950 . S
C2094 C2095 1.386 . S
C2094 C2096 1.391 . S
C2095 C2094 1.386 . S
C2095 C2099 1.393 . S
C2096 H2085 0.950 . S
C2096 C2094 1.391 . S
C2096 C2097 1.400 . S
C2097 C2091 1.491 . S
C2097 C2096 1.400 . S
C2097 C2098 1.398 . S
C2098 H2086 0.950 . S
C2098 C2097 1.398 . S
C2098 C2099 1.391 . S
C2099 H2087 0.950 . S
C2099 C2095 1.393 . S
C2099 C2098 1.391 . S
H2100 C2108 0.969 . S
H2101 C2113 0.950 . S
H2102 C2110 0.950 . S
H2103 C2112 0.950 . S
H2104 C2114 0.950 . S
H2105 C2116 0.950 . S
H2106 C2118 0.950 . S
H2107 C2119 0.950 . S
C2108 H2100 0.969 . S
C2108 C2109 1.386 . S
C2108 C2110 1.373 1_455 S
C2109 C2108 1.386 . S
C2109 C2113 1.388 1_455 S
C2110 H2102 0.950 . S
C2110 C2108 1.373 1_655 S
C2110 C2111 1.400 . S
C2111 C2110 1.400 . S
C2111 C2112 1.398 . S
C2111 C2117 1.491 . S
C2112 H2103 0.950 . S
C2112 C2111 1.398 . S
C2112 C2113 1.391 . S
C2113 H2101 0.950 . S
C2113 C2109 1.388 1_655 S
C2113 C2112 1.391 . S
C2114 H2104 0.950 . S
C2114 C2115 1.386 . S
C2114 C2116 1.391 . S
C2115 C2114 1.386 . S
C2115 C2119 1.393 . S
C2116 H2105 0.950 . S
C2116 C2114 1.391 . S
C2116 C2117 1.400 . S
C2117 C2111 1.491 . S
C2117 C2116 1.400 . S
C2117 C2118 1.398 . S
C2118 H2106 0.950 . S
C2118 C2117 1.398 . S
C2118 C2119 1.391 . S
C2119 H2107 0.950 . S
C2119 C2115 1.393 . S
C2119 C2118 1.391 . S
H2120 C2128 0.950 . S
H2121 C2133 0.950 . S
H2122 C2130 0.950 . S
H2123 C2132 0.950 . S
H2124 C2134 0.950 . S
H2125 C2136 0.950 . S
H2126 C2138 0.950 . S
H2127 C2139 0.950 . S
C2128 H2120 0.950 . S
C2128 C2129 1.386 . S
C2128 C2130 1.391 . S
C2129 C2128 1.386 . S
C2129 C2133 1.393 . S
C2130 H2122 0.950 . S
C2130 C2128 1.391 . S
C2130 C2131 1.400 . S
C2131 C2130 1.400 . S
C2131 C2132 1.398 . S
C2131 C2137 1.491 . S
C2132 H2123 0.950 . S
C2132 C2131 1.398 . S
C2132 C2133 1.391 . S
C2133 H2121 0.950 . S
C2133 C2129 1.393 . S
C2133 C2132 1.391 . S
C2134 H2124 0.950 . S
C2134 C2135 1.386 . S
C2134 C2136 1.391 . S
C2135 C2134 1.386 . S
C2135 C2139 1.393 . S
C2136 H2125 0.950 . S
C2136 C2134 1.391 . S
C2136 C2137 1.400 . S
C2137 C2131 1.491 . S
C2137 C2136 1.400 . S
C2137 C2138 1.398 . S
C2138 H2126 0.950 . S
C2138 C2137 1.398 . S
C2138 C2139 1.391 . S
C2139 H2127 0.950 . S
C2139 C2135 1.393 . S
C2139 C2138 1.391 . S
H2140 C2148 0.950 . S
H2141 C2153 0.950 . S
H2142 C2150 0.950 . S
H2143 C2152 0.950 . S
H2144 C2154 0.950 . S
H2145 C2156 0.950 . S
H2146 C2158 0.950 . S
H2147 C2159 0.950 . S
C2148 H2140 0.950 . S
C2148 C2149 1.386 . S
C2148 C2150 1.391 . S
C2149 C2148 1.386 . S
C2149 C2153 1.393 . S
C2150 H2142 0.950 . S
C2150 C2148 1.391 . S
C2150 C2151 1.400 . S
C2151 C2150 1.400 . S
C2151 C2152 1.398 . S
C2151 C2157 1.491 . S
C2152 H2143 0.950 . S
C2152 C2151 1.398 . S
C2152 C2153 1.391 . S
C2153 H2141 0.950 . S
C2153 C2149 1.393 . S
C2153 C2152 1.391 . S
C2154 H2144 0.950 . S
C2154 C2155 1.386 . S
C2154 C2156 1.391 . S
C2155 C2154 1.386 . S
C2155 C2159 1.393 . S
C2156 H2145 0.950 . S
C2156 C2154 1.391 . S
C2156 C2157 1.400 . S
C2157 C2151 1.491 . S
C2157 C2156 1.400 . S
C2157 C2158 1.398 . S
C2158 H2146 0.950 . S
C2158 C2157 1.398 . S
C2158 C2159 1.391 . S
C2159 H2147 0.950 . S
C2159 C2155 1.393 . S
C2159 C2158 1.391 . S
H2160 C2168 0.950 . S
H2161 C2173 0.950 . S
H2162 C2170 0.950 . S
H2163 C2172 0.950 . S
H2164 C2174 0.950 . S
H2165 C2176 0.950 . S
H2166 C2178 0.950 . S
H2167 C2179 0.950 . S
C2168 H2160 0.950 . S
C2168 C2169 1.386 . S
C2168 C2170 1.391 . S
C2169 C2168 1.386 . S
C2169 C2173 1.393 . S
C2170 H2162 0.950 . S
C2170 C2168 1.391 . S
C2170 C2171 1.400 . S
C2171 C2170 1.400 . S
C2171 C2172 1.398 . S
C2171 C2177 1.491 . S
C2172 H2163 0.950 . S
C2172 C2171 1.398 . S
C2172 C2173 1.391 . S
C2173 H2161 0.950 . S
C2173 C2169 1.393 . S
C2173 C2172 1.391 . S
C2174 H2164 0.950 . S
C2174 C2175 1.386 . S
C2174 C2176 1.391 . S
C2175 C2174 1.386 . S
C2175 C2179 1.393 . S
C2176 H2165 0.950 . S
C2176 C2174 1.391 . S
C2176 C2177 1.400 . S
C2177 C2171 1.491 . S
C2177 C2176 1.400 . S
C2177 C2178 1.398 . S
C2178 H2166 0.950 . S
C2178 C2177 1.398 . S
C2178 C2179 1.391 . S
C2179 H2167 0.950 . S
C2179 C2175 1.393 . S
C2179 C2178 1.391 . S
H2180 C2188 0.950 . S
H2181 C2193 0.950 . S
H2182 C2190 0.950 . S
H2183 C2192 0.950 . S
H2184 C2194 0.950 . S
H2185 C2196 0.950 . S
H2186 C2198 0.950 . S
H2187 C2199 0.950 . S
C2188 H2180 0.950 . S
C2188 C2189 1.386 . S
C2188 C2190 1.391 . S
C2189 C2188 1.386 . S
C2189 C2193 1.393 . S
C2190 H2182 0.950 . S
C2190 C2188 1.391 . S
C2190 C2191 1.400 . S
C2191 C2190 1.400 . S
C2191 C2192 1.398 . S
C2191 C2197 1.491 . S
C2192 H2183 0.950 . S
C2192 C2191 1.398 . S
C2192 C2193 1.391 . S
C2193 H2181 0.950 . S
C2193 C2189 1.393 . S
C2193 C2192 1.391 . S
C2194 H2184 0.950 . S
C2194 C2195 1.386 . S
C2194 C2196 1.391 . S
C2195 C2194 1.386 . S
C2195 C2199 1.393 . S
C2196 H2185 0.950 . S
C2196 C2194 1.391 . S
C2196 C2197 1.400 . S
C2197 C2191 1.491 . S
C2197 C2196 1.400 . S
C2197 C2198 1.398 . S
C2198 H2186 0.950 . S
C2198 C2197 1.398 . S
C2198 C2199 1.391 . S
C2199 H2187 0.950 . S
C2199 C2195 1.393 . S
C2199 C2198 1.391 . S
H2200 C2208 0.950 . S
H2201 C2213 0.950 . S
H2202 C2210 0.950 . S
H2203 C2212 0.950 . S
H2204 C2214 0.950 . S
H2205 C2216 0.950 . S
H2206 C2218 0.950 . S
H2207 C2219 0.950 . S
C2208 H2200 0.950 . S
C2208 C2209 1.386 . S
C2208 C2210 1.391 . S
C2209 C2208 1.386 . S
C2209 C2213 1.393 . S
C2210 H2202 0.950 . S
C2210 C2208 1.391 . S
C2210 C2211 1.400 . S
C2211 C2210 1.400 . S
C2211 C2212 1.398 . S
C2211 C2217 1.491 . S
C2212 H2203 0.950 . S
C2212 C2211 1.398 . S
C2212 C2213 1.391 . S
C2213 H2201 0.950 . S
C2213 C2209 1.393 . S
C2213 C2212 1.391 . S
C2214 H2204 0.950 . S
C2214 C2215 1.386 . S
C2214 C2216 1.391 . S
C2215 C2214 1.386 . S
C2215 C2219 1.393 . S
C2216 H2205 0.950 . S
C2216 C2214 1.391 . S
C2216 C2217 1.400 . S
C2217 C2211 1.491 . S
C2217 C2216 1.400 . S
C2217 C2218 1.398 . S
C2218 H2206 0.950 . S
C2218 C2217 1.398 . S
C2218 C2219 1.391 . S
C2219 H2207 0.950 . S
C2219 C2215 1.393 . S
C2219 C2218 1.391 . S
H2220 C2228 0.950 . S
H2221 C2233 0.950 . S
H2222 C2230 0.950 . S
H2223 C2232 0.950 . S
H2224 C2234 0.950 1_455 S
H2225 C2236 0.950 . S
H2226 C2238 0.950 . S
H2227 C2239 0.950 . S
C2228 H2220 0.950 . S
C2228 C2229 1.386 . S
C2228 C2230 1.391 . S
C2229 C2228 1.386 . S
C2229 C2233 1.393 . S
C2230 H2222 0.950 . S
C2230 C2228 1.391 . S
C2230 C2231 1.400 . S
C2231 C2230 1.400 . S
C2231 C2232 1.398 . S
C2231 C2237 1.491 . S
C2232 H2223 0.950 . S
C2232 C2231 1.398 . S
C2232 C2233 1.391 . S
C2233 H2221 0.950 . S
C2233 C2229 1.393 . S
C2233 C2232 1.391 . S
C2234 H2224 0.950 1_655 S
C2234 C2235 1.386 1_655 S
C2234 C2236 1.391 . S
C2235 C2234 1.386 1_455 S
C2235 C2239 1.395 1_455 S
C2236 H2225 0.950 . S
C2236 C2234 1.391 . S
C2236 C2237 1.400 . S
C2237 C2231 1.491 . S
C2237 C2236 1.400 . S
C2237 C2238 1.398 . S
C2238 H2226 0.950 . S
C2238 C2237 1.398 . S
C2238 C2239 1.391 . S
C2239 H2227 0.950 . S
C2239 C2235 1.395 1_655 S
C2239 C2238 1.391 . S
H2240 C2248 0.950 . S
H2241 C2253 0.950 . S
H2242 C2250 0.950 . S
H2243 C2252 0.950 . S
H2244 C2254 0.950 . S
H2245 C2256 0.950 . S
H2246 C2258 0.950 . S
H2247 C2259 0.950 . S
C2248 H2240 0.950 . S
C2248 C2249 1.386 . S
C2248 C2250 1.391 . S
C2249 C2248 1.386 . S
C2249 C2253 1.393 . S
C2250 H2242 0.950 . S
C2250 C2248 1.391 . S
C2250 C2251 1.400 . S
C2251 C2250 1.400 . S
C2251 C2252 1.398 . S
C2251 C2257 1.491 . S
C2252 H2243 0.950 . S
C2252 C2251 1.398 . S
C2252 C2253 1.391 . S
C2253 H2241 0.950 . S
C2253 C2249 1.393 . S
C2253 C2252 1.391 . S
C2254 H2244 0.950 . S
C2254 C2255 1.386 . S
C2254 C2256 1.391 . S
C2255 C2254 1.386 . S
C2255 C2259 1.393 . S
C2256 H2245 0.950 . S
C2256 C2254 1.391 . S
C2256 C2257 1.400 . S
C2257 C2251 1.491 . S
C2257 C2256 1.400 . S
C2257 C2258 1.398 . S
C2258 H2246 0.950 . S
C2258 C2257 1.398 . S
C2258 C2259 1.391 . S
C2259 H2247 0.950 . S
C2259 C2255 1.393 . S
C2259 C2258 1.391 . S
H2260 C2268 0.950 . S
H2261 C2273 0.950 . S
H2262 C2270 0.950 . S
H2263 C2272 0.950 . S
H2264 C2274 0.950 . S
H2265 C2276 0.950 . S
H2266 C2278 0.950 . S
H2267 C2279 0.950 . S
C2268 H2260 0.950 . S
C2268 C2269 1.386 . S
C2268 C2270 1.391 . S
C2269 C2268 1.386 . S
C2269 C2273 1.393 . S
C2270 H2262 0.950 . S
C2270 C2268 1.391 . S
C2270 C2271 1.400 . S
C2271 C2270 1.400 . S
C2271 C2272 1.398 . S
C2271 C2277 1.491 . S
C2272 H2263 0.950 . S
C2272 C2271 1.398 . S
C2272 C2273 1.391 . S
C2273 H2261 0.950 . S
C2273 C2269 1.393 . S
C2273 C2272 1.391 . S
C2274 H2264 0.950 . S
C2274 C2275 1.386 . S
C2274 C2276 1.391 . S
C2275 C2274 1.386 . S
C2275 C2279 1.393 . S
C2276 H2265 0.950 . S
C2276 C2274 1.391 . S
C2276 C2277 1.400 . S
C2277 C2271 1.491 . S
C2277 C2276 1.400 . S
C2277 C2278 1.398 . S
C2278 H2266 0.950 . S
C2278 C2277 1.398 . S
C2278 C2279 1.391 . S
C2279 H2267 0.950 . S
C2279 C2275 1.393 . S
C2279 C2278 1.391 . S
H2280 C2288 0.950 . S
H2281 C2293 0.950 . S
H2282 C2290 0.950 . S
H2283 C2292 0.950 . S
H2284 C2294 0.950 . S
H2285 C2296 0.950 . S
H2286 C2298 0.950 . S
H2287 C2299 0.950 . S
C2288 H2280 0.950 . S
C2288 C2289 1.386 . S
C2288 C2290 1.391 . S
C2289 C2288 1.386 . S
C2289 C2293 1.393 . S
C2290 H2282 0.950 . S
C2290 C2288 1.391 . S
C2290 C2291 1.400 . S
C2291 C2290 1.400 . S
C2291 C2292 1.398 . S
C2291 C2297 1.491 . S
C2292 H2283 0.950 . S
C2292 C2291 1.398 . S
C2292 C2293 1.391 . S
C2293 H2281 0.950 . S
C2293 C2289 1.393 . S
C2293 C2292 1.391 . S
C2294 H2284 0.950 . S
C2294 C2295 1.386 . S
C2294 C2296 1.391 . S
C2295 C2294 1.386 . S
C2295 C2299 1.393 . S
C2296 H2285 0.950 . S
C2296 C2294 1.391 . S
C2296 C2297 1.400 . S
C2297 C2291 1.491 . S
C2297 C2296 1.400 . S
C2297 C2298 1.398 . S
C2298 H2286 0.950 . S
C2298 C2297 1.398 . S
C2298 C2299 1.391 . S
C2299 H2287 0.950 . S
C2299 C2295 1.393 . S
C2299 C2298 1.391 . S
H2300 C2308 0.950 . S
H2301 C2313 0.950 . S
H2302 C2310 0.950 . S
H2303 C2312 0.950 . S
H2304 C2314 0.950 . S
H2305 C2316 0.950 . S
H2306 C2318 0.950 . S
H2307 C2319 0.950 . S
C2308 H2300 0.950 . S
C2308 C2309 1.386 . S
C2308 C2310 1.391 . S
C2309 C2308 1.386 . S
C2309 C2313 1.393 . S
C2310 H2302 0.950 . S
C2310 C2308 1.391 . S
C2310 C2311 1.400 . S
C2311 C2310 1.400 . S
C2311 C2312 1.398 . S
C2311 C2317 1.491 . S
C2312 H2303 0.950 . S
C2312 C2311 1.398 . S
C2312 C2313 1.391 . S
C2313 H2301 0.950 . S
C2313 C2309 1.393 . S
C2313 C2312 1.391 . S
C2314 H2304 0.950 . S
C2314 C2315 1.369 1_655 S
C2314 C2316 1.391 . S
C2315 C2314 1.369 1_455 S
C2315 C2319 1.394 . S
C2316 H2305 0.950 . S
C2316 C2314 1.391 . S
C2316 C2317 1.400 . S
C2317 C2311 1.491 . S
C2317 C2316 1.400 . S
C2317 C2318 1.398 . S
C2318 H2306 0.950 . S
C2318 C2317 1.398 . S
C2318 C2319 1.391 1_655 S
C2319 H2307 0.950 . S
C2319 C2315 1.394 . S
C2319 C2318 1.391 1_455 S
H2320 C2328 0.950 . S
H2321 C2333 0.950 . S
H2322 C2330 0.950 . S
H2323 C2332 0.950 . S
H2324 C2334 0.950 . S
H2325 C2336 0.950 . S
H2326 C2338 0.950 . S
H2327 C2339 0.950 . S
C2328 H2320 0.950 . S
C2328 C2329 1.386 . S
C2328 C2330 1.391 . S
C2329 C2328 1.386 . S
C2329 C2333 1.393 . S
C2330 H2322 0.950 . S
C2330 C2328 1.391 . S
C2330 C2331 1.400 . S
C2331 C2330 1.400 . S
C2331 C2332 1.398 . S
C2331 C2337 1.491 . S
C2332 H2323 0.950 . S
C2332 C2331 1.398 . S
C2332 C2333 1.391 . S
C2333 H2321 0.950 . S
C2333 C2329 1.393 . S
C2333 C2332 1.391 . S
C2334 H2324 0.950 . S
C2334 C2335 1.386 . S
C2334 C2336 1.391 . S
C2335 C2334 1.386 . S
C2335 C2339 1.393 . S
C2336 H2325 0.950 . S
C2336 C2334 1.391 . S
C2336 C2337 1.400 . S
C2337 C2331 1.491 . S
C2337 C2336 1.400 . S
C2337 C2338 1.398 . S
C2338 H2326 0.950 . S
C2338 C2337 1.398 . S
C2338 C2339 1.391 . S
C2339 H2327 0.950 . S
C2339 C2335 1.393 . S
C2339 C2338 1.391 . S
H2340 C2348 0.950 . S
H2341 C2353 0.950 . S
H2342 C2350 0.950 . S
H2343 C2352 0.950 . S
H2344 C2354 0.950 . S
H2345 C2356 0.950 . S
H2346 C2358 0.950 . S
H2347 C2359 0.977 . S
C2348 H2340 0.950 . S
C2348 C2349 1.386 . S
C2348 C2350 1.391 . S
C2349 C2348 1.386 . S
C2349 C2353 1.393 . S
C2350 H2342 0.950 . S
C2350 C2348 1.391 . S
C2350 C2351 1.400 . S
C2351 C2350 1.400 . S
C2351 C2352 1.398 . S
C2351 C2357 1.491 . S
C2352 H2343 0.950 . S
C2352 C2351 1.398 . S
C2352 C2353 1.391 . S
C2353 H2341 0.950 . S
C2353 C2349 1.393 . S
C2353 C2352 1.391 . S
C2354 H2344 0.950 . S
C2354 C2355 1.356 1_655 S
C2354 C2356 1.391 . S
C2355 C2354 1.356 1_455 S
C2355 C2359 1.393 . S
C2356 H2345 0.950 . S
C2356 C2354 1.391 . S
C2356 C2357 1.400 . S
C2357 C2351 1.491 . S
C2357 C2356 1.400 . S
C2357 C2358 1.398 . S
C2358 H2346 0.950 . S
C2358 C2357 1.398 . S
C2358 C2359 1.364 1_655 S
C2359 H2347 0.977 . S
C2359 C2355 1.393 . S
C2359 C2358 1.364 1_455 S
H2360 C2368 0.950 . S
H2361 C2373 0.950 . S
H2362 C2370 0.950 . S
H2363 C2372 0.950 . S
H2364 C2374 0.950 . S
H2365 C2376 0.950 . S
H2366 C2378 0.950 . S
H2367 C2379 0.950 . S
C2368 H2360 0.950 . S
C2368 C2369 1.386 . S
C2368 C2370 1.391 . S
C2369 C2368 1.386 . S
C2369 C2373 1.393 . S
C2370 H2362 0.950 . S
C2370 C2368 1.391 . S
C2370 C2371 1.400 . S
C2371 C2370 1.400 . S
C2371 C2372 1.398 . S
C2371 C2377 1.491 . S
C2372 H2363 0.950 . S
C2372 C2371 1.398 . S
C2372 C2373 1.391 . S
C2373 H2361 0.950 . S
C2373 C2369 1.393 . S
C2373 C2372 1.391 . S
C2374 H2364 0.950 . S
C2374 C2375 1.386 . S
C2374 C2376 1.391 . S
C2375 C2374 1.386 . S
C2375 C2379 1.393 . S
C2376 H2365 0.950 . S
C2376 C2374 1.391 . S
C2376 C2377 1.400 . S
C2377 C2371 1.491 . S
C2377 C2376 1.400 . S
C2377 C2378 1.398 . S
C2378 H2366 0.950 . S
C2378 C2377 1.398 . S
C2378 C2379 1.391 . S
C2379 H2367 0.950 . S
C2379 C2375 1.393 . S
C2379 C2378 1.391 . S
H2380 C2388 0.950 . S
H2381 C2393 0.950 . S
H2382 C2390 0.950 . S
H2383 C2392 0.950 . S
H2384 C2394 0.950 . S
H2385 C2396 0.950 . S
H2386 C2398 0.950 . S
H2387 C2399 0.950 . S
C2388 H2380 0.950 . S
C2388 C2389 1.386 . S
C2388 C2390 1.391 . S
C2389 C2388 1.386 . S
C2389 C2393 1.393 . S
C2390 H2382 0.950 . S
C2390 C2388 1.391 . S
C2390 C2391 1.400 . S
C2391 C2390 1.400 . S
C2391 C2392 1.398 . S
C2391 C2397 1.491 . S
C2392 H2383 0.950 . S
C2392 C2391 1.398 . S
C2392 C2393 1.391 . S
C2393 H2381 0.950 . S
C2393 C2389 1.393 . S
C2393 C2392 1.391 . S
C2394 H2384 0.950 . S
C2394 C2395 1.386 . S
C2394 C2396 1.391 . S
C2395 C2394 1.386 . S
C2395 C2399 1.393 . S
C2396 H2385 0.950 . S
C2396 C2394 1.391 . S
C2396 C2397 1.400 . S
C2397 C2391 1.491 . S
C2397 C2396 1.400 . S
C2397 C2398 1.398 . S
C2398 H2386 0.950 . S
C2398 C2397 1.398 . S
C2398 C2399 1.391 . S
C2399 H2387 0.950 . S
C2399 C2395 1.393 . S
C2399 C2398 1.391 . S
H2400 C2408 0.950 . S
H2401 C2413 0.950 . S
H2402 C2410 0.950 . S
H2403 C2412 0.950 . S
H2404 C2414 0.950 . S
H2405 C2416 0.950 . S
H2406 C2418 0.950 . S
H2407 C2419 0.950 . S
C2408 H2400 0.950 . S
C2408 C2409 1.386 . S
C2408 C2410 1.391 . S
C2409 C2408 1.386 . S
C2409 C2413 1.393 . S
C2410 H2402 0.950 . S
C2410 C2408 1.391 . S
C2410 C2411 1.400 . S
C2411 C2410 1.400 . S
C2411 C2412 1.398 . S
C2411 C2417 1.491 . S
C2412 H2403 0.950 . S
C2412 C2411 1.398 . S
C2412 C2413 1.391 . S
C2413 H2401 0.950 . S
C2413 C2409 1.393 . S
C2413 C2412 1.391 . S
C2414 H2404 0.950 . S
C2414 C2415 1.386 . S
C2414 C2416 1.391 . S
C2415 C2414 1.386 . S
C2415 C2419 1.393 . S
C2416 H2405 0.950 . S
C2416 C2414 1.391 . S
C2416 C2417 1.400 . S
C2417 C2411 1.491 . S
C2417 C2416 1.400 . S
C2417 C2418 1.398 . S
C2418 H2406 0.950 . S
C2418 C2417 1.398 . S
C2418 C2419 1.391 . S
C2419 H2407 0.950 . S
C2419 C2415 1.393 . S
C2419 C2418 1.391 . S
H2420 C2428 0.950 . S
H2421 C2433 0.950 . S
H2422 C2430 0.950 . S
H2423 C2432 0.950 . S
H2424 C2434 0.950 . S
H2425 C2436 0.950 . S
H2426 C2438 0.950 . S
H2427 C2439 0.950 . S
C2428 H2420 0.950 . S
C2428 C2429 1.386 . S
C2428 C2430 1.391 . S
C2429 C2428 1.386 . S
C2429 C2433 1.393 . S
C2430 H2422 0.950 . S
C2430 C2428 1.391 . S
C2430 C2431 1.400 . S
C2431 C2430 1.400 . S
C2431 C2432 1.398 . S
C2431 C2437 1.491 . S
C2432 H2423 0.950 . S
C2432 C2431 1.398 . S
C2432 C2433 1.391 . S
C2433 H2421 0.950 . S
C2433 C2429 1.393 . S
C2433 C2432 1.391 . S
C2434 H2424 0.950 . S
C2434 C2435 1.386 . S
C2434 C2436 1.391 . S
C2435 C2434 1.386 . S
C2435 C2439 1.393 . S
C2436 H2425 0.950 . S
C2436 C2434 1.391 . S
C2436 C2437 1.400 . S
C2437 C2431 1.491 . S
C2437 C2436 1.400 . S
C2437 C2438 1.398 . S
C2438 H2426 0.950 . S
C2438 C2437 1.398 . S
C2438 C2439 1.391 . S
C2439 H2427 0.950 . S
C2439 C2435 1.393 . S
C2439 C2438 1.391 . S
H2440 C2448 0.950 . S
H2441 C2453 0.950 . S
H2442 C2450 0.950 . S
H2443 C2452 0.950 . S
H2444 C2454 0.950 . S
H2445 C2456 0.950 . S
H2446 C2458 0.950 . S
H2447 C2459 0.950 . S
C2448 H2440 0.950 . S
C2448 C2449 1.386 . S
C2448 C2450 1.391 . S
C2449 C2448 1.386 . S
C2449 C2453 1.393 . S
C2450 H2442 0.950 . S
C2450 C2448 1.391 . S
C2450 C2451 1.400 . S
C2451 C2450 1.400 . S
C2451 C2452 1.398 . S
C2451 C2457 1.491 . S
C2452 H2443 0.950 . S
C2452 C2451 1.398 . S
C2452 C2453 1.391 . S
C2453 H2441 0.950 . S
C2453 C2449 1.393 . S
C2453 C2452 1.391 . S
C2454 H2444 0.950 . S
C2454 C2455 1.386 . S
C2454 C2456 1.391 . S
C2455 C2454 1.386 . S
C2455 C2459 1.393 . S
C2456 H2445 0.950 . S
C2456 C2454 1.391 . S
C2456 C2457 1.400 . S
C2457 C2451 1.491 . S
C2457 C2456 1.400 . S
C2457 C2458 1.398 . S
C2458 H2446 0.950 . S
C2458 C2457 1.398 . S
C2458 C2459 1.391 . S
C2459 H2447 0.950 . S
C2459 C2455 1.393 . S
C2459 C2458 1.391 . S
H2460 C2468 0.950 . S
H2461 C2473 0.950 . S
H2462 C2470 0.950 . S
H2463 C2472 0.950 . S
H2464 C2474 0.950 . S
H2465 C2476 0.950 . S
H2466 C2478 0.950 . S
H2467 C2479 0.950 . S
C2468 H2460 0.950 . S
C2468 C2469 1.359 1_455 S
C2468 C2470 1.391 . S
C2469 C2468 1.359 1_655 S
C2469 C2473 1.394 . S
C2470 H2462 0.950 . S
C2470 C2468 1.391 . S
C2470 C2471 1.400 . S
C2471 C2470 1.400 . S
C2471 C2472 1.398 . S
C2471 C2477 1.491 . S
C2472 H2463 0.950 . S
C2472 C2471 1.398 . S
C2472 C2473 1.391 1_455 S
C2473 H2461 0.950 . S
C2473 C2469 1.394 . S
C2473 C2472 1.391 1_655 S
C2474 H2464 0.950 . S
C2474 C2475 1.386 . S
C2474 C2476 1.391 . S
C2475 C2474 1.386 . S
C2475 C2479 1.393 . S
C2476 H2465 0.950 . S
C2476 C2474 1.391 . S
C2476 C2477 1.400 . S
C2477 C2471 1.491 . S
C2477 C2476 1.400 . S
C2477 C2478 1.398 . S
C2478 H2466 0.950 . S
C2478 C2477 1.398 . S
C2478 C2479 1.391 . S
C2479 H2467 0.950 . S
C2479 C2475 1.393 . S
C2479 C2478 1.391 . S
H2480 C2488 0.950 . S
H2481 C2493 0.950 . S
H2482 C2490 0.950 . S
H2483 C2492 0.950 . S
H2484 C2494 0.950 . S
H2485 C2496 0.950 . S
H2486 C2498 0.950 . S
H2487 C2499 0.950 . S
C2488 H2480 0.950 . S
C2488 C2489 1.386 . S
C2488 C2490 1.391 . S
C2489 C2488 1.386 . S
C2489 C2493 1.393 . S
C2490 H2482 0.950 . S
C2490 C2488 1.391 . S
C2490 C2491 1.400 . S
C2491 C2490 1.400 . S
C2491 C2492 1.398 . S
C2491 C2497 1.491 . S
C2492 H2483 0.950 . S
C2492 C2491 1.398 . S
C2492 C2493 1.391 . S
C2493 H2481 0.950 . S
C2493 C2489 1.393 . S
C2493 C2492 1.391 . S
C2494 H2484 0.950 . S
C2494 C2495 1.386 . S
C2494 C2496 1.391 . S
C2495 C2494 1.386 . S
C2495 C2499 1.393 . S
C2496 H2485 0.950 . S
C2496 C2494 1.391 . S
C2496 C2497 1.400 . S
C2497 C2491 1.491 . S
C2497 C2496 1.400 . S
C2497 C2498 1.398 . S
C2498 H2486 0.950 . S
C2498 C2497 1.398 . S
C2498 C2499 1.391 . S
C2499 H2487 0.950 . S
C2499 C2495 1.393 . S
C2499 C2498 1.391 . S
H2500 C2508 0.950 . S
H2501 C2513 0.950 . S
H2502 C2510 0.950 . S
H2503 C2512 0.950 . S
H2504 C2514 0.950 . S
H2505 C2516 0.950 . S
H2506 C2518 0.950 . S
H2507 C2519 0.950 1_655 S
C2508 H2500 0.950 . S
C2508 C2509 1.386 . S
C2508 C2510 1.391 . S
C2509 C2508 1.386 . S
C2509 C2513 1.393 . S
C2510 H2502 0.950 . S
C2510 C2508 1.391 . S
C2510 C2511 1.400 . S
C2511 C2510 1.400 . S
C2511 C2512 1.398 . S
C2511 C2517 1.491 . S
C2512 H2503 0.950 . S
C2512 C2511 1.398 . S
C2512 C2513 1.391 . S
C2513 H2501 0.950 . S
C2513 C2509 1.393 . S
C2513 C2512 1.391 . S
C2514 H2504 0.950 . S
C2514 C2515 1.359 1_455 S
C2514 C2516 1.391 . S
C2515 C2514 1.359 1_655 S
C2515 C2519 1.382 1_655 S
C2516 H2505 0.950 . S
C2516 C2514 1.391 . S
C2516 C2517 1.400 . S
C2517 C2511 1.491 . S
C2517 C2516 1.400 . S
C2517 C2518 1.398 . S
C2518 H2506 0.950 . S
C2518 C2517 1.398 . S
C2518 C2519 1.391 . S
C2519 H2507 0.950 1_455 S
C2519 C2515 1.382 1_455 S
C2519 C2518 1.391 . S
H2520 C2528 0.950 . S
H2521 C2533 0.950 . S
H2522 C2530 0.950 . S
H2523 C2532 0.950 . S
H2524 C2534 0.950 . S
H2525 C2536 0.950 . S
H2526 C2538 0.950 . S
H2527 C2539 0.950 . S
C2528 H2520 0.950 . S
C2528 C2529 1.386 . S
C2528 C2530 1.391 . S
C2529 C2528 1.386 . S
C2529 C2533 1.393 . S
C2530 H2522 0.950 . S
C2530 C2528 1.391 . S
C2530 C2531 1.400 . S
C2531 C2530 1.400 . S
C2531 C2532 1.398 . S
C2531 C2537 1.491 . S
C2532 H2523 0.950 . S
C2532 C2531 1.398 . S
C2532 C2533 1.391 . S
C2533 H2521 0.950 . S
C2533 C2529 1.393 . S
C2533 C2532 1.391 . S
C2534 H2524 0.950 . S
C2534 C2535 1.386 . S
C2534 C2536 1.391 . S
C2535 C2534 1.386 . S
C2535 C2539 1.393 . S
C2536 H2525 0.950 . S
C2536 C2534 1.391 . S
C2536 C2537 1.400 . S
C2537 C2531 1.491 . S
C2537 C2536 1.400 . S
C2537 C2538 1.398 . S
C2538 H2526 0.950 . S
C2538 C2537 1.398 . S
C2538 C2539 1.391 . S
C2539 H2527 0.950 . S
C2539 C2535 1.393 . S
C2539 C2538 1.391 . S
H2540 C2548 0.950 . S
H2541 C2553 0.950 . S
H2542 C2550 0.950 . S
H2543 C2552 0.950 . S
H2544 C2554 0.950 . S
H2545 C2556 0.950 . S
H2546 C2558 0.950 . S
H2547 C2559 0.950 . S
C2548 H2540 0.950 . S
C2548 C2549 1.386 . S
C2548 C2550 1.391 . S
C2549 C2548 1.386 . S
C2549 C2553 1.393 . S
C2550 H2542 0.950 . S
C2550 C2548 1.391 . S
C2550 C2551 1.400 . S
C2551 C2550 1.400 . S
C2551 C2552 1.398 . S
C2551 C2557 1.491 . S
C2552 H2543 0.950 . S
C2552 C2551 1.398 . S
C2552 C2553 1.391 . S
C2553 H2541 0.950 . S
C2553 C2549 1.393 . S
C2553 C2552 1.391 . S
C2554 H2544 0.950 . S
C2554 C2555 1.386 . S
C2554 C2556 1.391 . S
C2555 C2554 1.386 . S
C2555 C2559 1.393 . S
C2556 H2545 0.950 . S
C2556 C2554 1.391 . S
C2556 C2557 1.400 . S
C2557 C2551 1.491 . S
C2557 C2556 1.400 . S
C2557 C2558 1.398 . S
C2558 H2546 0.950 . S
C2558 C2557 1.398 . S
C2558 C2559 1.391 . S
C2559 H2547 0.950 . S
C2559 C2555 1.393 . S
C2559 C2558 1.391 . S
H2560 C2568 0.950 . S
H2561 C2573 0.950 . S
H2562 C2570 0.950 . S
H2563 C2572 0.950 . S
H2564 C2574 0.950 . S
H2565 C2576 0.950 . S
H2566 C2578 0.950 . S
H2567 C2579 0.950 . S
C2568 H2560 0.950 . S
C2568 C2569 1.386 . S
C2568 C2570 1.391 . S
C2569 C2568 1.386 . S
C2569 C2573 1.393 . S
C2570 H2562 0.950 . S
C2570 C2568 1.391 . S
C2570 C2571 1.400 . S
C2571 C2570 1.400 . S
C2571 C2572 1.398 . S
C2571 C2577 1.491 1_545 S
C2572 H2563 0.950 . S
C2572 C2571 1.398 . S
C2572 C2573 1.391 . S
C2573 H2561 0.950 . S
C2573 C2569 1.393 . S
C2573 C2572 1.391 . S
C2574 H2564 0.950 . S
C2574 C2575 1.386 . S
C2574 C2576 1.391 . S
C2575 C2574 1.386 . S
C2575 C2579 1.393 . S
C2576 H2565 0.950 . S
C2576 C2574 1.391 . S
C2576 C2577 1.400 . S
C2577 C2571 1.491 1_565 S
C2577 C2576 1.400 . S
C2577 C2578 1.398 . S
C2578 H2566 0.950 . S
C2578 C2577 1.398 . S
C2578 C2579 1.391 . S
C2579 H2567 0.950 . S
C2579 C2575 1.393 . S
C2579 C2578 1.391 . S
H2580 C2588 0.950 . S
H2581 C2593 0.950 . S
H2582 C2590 0.950 . S
H2583 C2592 0.950 . S
H2584 C2594 0.950 . S
H2585 C2596 0.950 . S
H2586 C2598 0.950 . S
H2587 C2599 0.950 . S
C2588 H2580 0.950 . S
C2588 C2589 1.386 . S
C2588 C2590 1.391 . S
C2589 C2588 1.386 . S
C2589 C2593 1.393 . S
C2590 H2582 0.950 . S
C2590 C2588 1.391 . S
C2590 C2591 1.400 . S
C2591 C2590 1.400 . S
C2591 C2592 1.398 . S
C2591 C2597 1.491 . S
C2592 H2583 0.950 . S
C2592 C2591 1.398 . S
C2592 C2593 1.391 . S
C2593 H2581 0.950 . S
C2593 C2589 1.393 . S
C2593 C2592 1.391 . S
C2594 H2584 0.950 . S
C2594 C2595 1.386 . S
C2594 C2596 1.391 . S
C2595 C2594 1.386 . S
C2595 C2599 1.393 . S
C2596 H2585 0.950 . S
C2596 C2594 1.391 . S
C2596 C2597 1.400 . S
C2597 C2591 1.491 . S
C2597 C2596 1.400 . S
C2597 C2598 1.398 . S
C2598 H2586 0.950 . S
C2598 C2597 1.398 . S
C2598 C2599 1.391 . S
C2599 H2587 0.950 . S
C2599 C2595 1.393 . S
C2599 C2598 1.391 . S
H2600 C2608 0.950 . S
H2601 C2613 0.950 . S
H2602 C2610 0.950 . S
H2603 C2612 0.950 . S
H2604 C2614 0.950 . S
H2605 C2616 0.950 . S
H2606 C2618 0.950 . S
H2607 C2619 0.950 . S
C2608 H2600 0.950 . S
C2608 C2609 1.386 . S
C2608 C2610 1.391 . S
C2609 C2608 1.386 . S
C2609 C2613 1.393 . S
C2610 H2602 0.950 . S
C2610 C2608 1.391 . S
C2610 C2611 1.400 . S
C2611 C2610 1.400 . S
C2611 C2612 1.398 . S
C2611 C2617 1.491 1_565 S
C2612 H2603 0.950 . S
C2612 C2611 1.398 . S
C2612 C2613 1.391 . S
C2613 H2601 0.950 . S
C2613 C2609 1.393 . S
C2613 C2612 1.391 . S
C2614 H2604 0.950 . S
C2614 C2615 1.386 . S
C2614 C2616 1.391 . S
C2615 C2614 1.386 . S
C2615 C2619 1.393 . S
C2616 H2605 0.950 . S
C2616 C2614 1.391 . S
C2616 C2617 1.400 . S
C2617 C2611 1.491 1_545 S
C2617 C2616 1.400 . S
C2617 C2618 1.398 . S
C2618 H2606 0.950 . S
C2618 C2617 1.398 . S
C2618 C2619 1.391 . S
C2619 H2607 0.950 . S
C2619 C2615 1.393 . S
C2619 C2618 1.391 . S
H2620 C2628 0.950 . S
H2621 C2633 0.950 . S
H2622 C2630 0.950 . S
H2623 C2632 0.950 . S
H2624 C2634 0.950 . S
H2625 C2636 0.950 . S
H2626 C2638 0.950 . S
H2627 C2639 0.950 . S
C2628 H2620 0.950 . S
C2628 C2629 1.386 1_554 S
C2628 C2630 1.391 . S
C2629 C2628 1.386 1_556 S
C2629 C2633 1.393 . S
C2630 H2622 0.950 . S
C2630 C2628 1.391 . S
C2630 C2631 1.400 1_554 S
C2631 C2630 1.400 1_556 S
C2631 C2632 1.398 . S
C2631 C2637 1.491 1_556 S
C2632 H2623 0.950 . S
C2632 C2631 1.398 . S
C2632 C2633 1.391 . S
C2633 H2621 0.950 . S
C2633 C2629 1.393 . S
C2633 C2632 1.391 . S
C2634 H2624 0.950 . S
C2634 C2635 1.386 1_556 S
C2634 C2636 1.391 . S
C2635 C2634 1.386 1_554 S
C2635 C2639 1.393 . S
C2636 H2625 0.950 . S
C2636 C2634 1.391 . S
C2636 C2637 1.400 1_556 S
C2637 C2631 1.491 1_554 S
C2637 C2636 1.400 1_554 S
C2637 C2638 1.398 . S
C2638 H2626 0.950 . S
C2638 C2637 1.398 . S
C2638 C2639 1.391 . S
C2639 H2627 0.950 . S
C2639 C2635 1.393 . S
C2639 C2638 1.391 . S
H2640 C2648 0.950 . S
H2641 C2653 0.950 . S
H2642 C2650 0.950 . S
H2643 C2652 0.950 . S
H2644 C2654 0.950 . S
H2645 C2656 0.950 . S
H2646 C2658 0.950 . S
H2647 C2659 0.950 . S
C2648 H2640 0.950 . S
C2648 C2649 1.386 . S
C2648 C2650 1.391 . S
C2649 C2648 1.386 . S
C2649 C2653 1.393 . S
C2650 H2642 0.950 . S
C2650 C2648 1.391 . S
C2650 C2651 1.400 . S
C2651 C2650 1.400 . S
C2651 C2652 1.398 . S
C2651 C2657 1.491 1_545 S
C2652 H2643 0.950 . S
C2652 C2651 1.398 . S
C2652 C2653 1.391 . S
C2653 H2641 0.950 . S
C2653 C2649 1.393 . S
C2653 C2652 1.391 . S
C2654 H2644 0.950 . S
C2654 C2655 1.386 . S
C2654 C2656 1.391 . S
C2655 C2654 1.386 . S
C2655 C2659 1.393 . S
C2656 H2645 0.950 . S
C2656 C2654 1.391 . S
C2656 C2657 1.400 . S
C2657 C2651 1.491 1_565 S
C2657 C2656 1.400 . S
C2657 C2658 1.398 . S
C2658 H2646 0.950 . S
C2658 C2657 1.398 . S
C2658 C2659 1.391 . S
C2659 H2647 0.950 . S
C2659 C2655 1.393 . S
C2659 C2658 1.391 . S
H2660 C2668 0.950 . S
H2661 C2673 0.950 . S
H2662 C2670 0.950 . S
H2663 C2672 0.950 . S
H2664 C2674 0.950 . S
H2665 C2676 0.950 . S
H2666 C2678 0.950 . S
H2667 C2679 0.950 . S
C2668 H2660 0.950 . S
C2668 C2669 1.386 . S
C2668 C2670 1.391 . S
C2669 C2668 1.386 . S
C2669 C2673 1.393 . S
C2670 H2662 0.950 . S
C2670 C2668 1.391 . S
C2670 C2671 1.400 . S
C2671 C2670 1.400 . S
C2671 C2672 1.398 . S
C2671 C2677 1.491 . S
C2672 H2663 0.950 . S
C2672 C2671 1.398 . S
C2672 C2673 1.391 . S
C2673 H2661 0.950 . S
C2673 C2669 1.393 . S
C2673 C2672 1.391 . S
C2674 H2664 0.950 . S
C2674 C2675 1.386 . S
C2674 C2676 1.391 . S
C2675 C2674 1.386 . S
C2675 C2679 1.393 . S
C2676 H2665 0.950 . S
C2676 C2674 1.391 . S
C2676 C2677 1.400 . S
C2677 C2671 1.491 . S
C2677 C2676 1.400 . S
C2677 C2678 1.398 . S
C2678 H2666 0.950 . S
C2678 C2677 1.398 . S
C2678 C2679 1.391 . S
C2679 H2667 0.950 . S
C2679 C2675 1.393 . S
C2679 C2678 1.391 . S
H2680 C2688 0.950 . S
H2681 C2693 0.950 . S
H2682 C2690 0.950 . S
H2683 C2692 0.950 . S
H2684 C2694 0.950 . S
H2685 C2696 0.950 . S
H2686 C2698 0.950 . S
H2687 C2699 0.950 . S
C2688 H2680 0.950 . S
C2688 C2689 1.386 . S
C2688 C2690 1.391 . S
C2689 C2688 1.386 . S
C2689 C2693 1.393 . S
C2690 H2682 0.950 . S
C2690 C2688 1.391 . S
C2690 C2691 1.400 . S
C2691 C2690 1.400 . S
C2691 C2692 1.398 . S
C2691 C2697 1.491 1_545 S
C2692 H2683 0.950 . S
C2692 C2691 1.398 . S
C2692 C2693 1.391 . S
C2693 H2681 0.950 . S
C2693 C2689 1.393 . S
C2693 C2692 1.391 . S
C2694 H2684 0.950 . S
C2694 C2695 1.386 . S
C2694 C2696 1.391 . S
C2695 C2694 1.386 . S
C2695 C2699 1.393 . S
C2696 H2685 0.950 . S
C2696 C2694 1.391 . S
C2696 C2697 1.400 . S
C2697 C2691 1.491 1_565 S
C2697 C2696 1.400 . S
C2697 C2698 1.398 . S
C2698 H2686 0.950 . S
C2698 C2697 1.398 . S
C2698 C2699 1.391 . S
C2699 H2687 0.950 . S
C2699 C2695 1.393 . S
C2699 C2698 1.391 . S
H2700 C2708 0.950 . S
H2701 C2713 0.950 . S
H2702 C2710 0.950 . S
H2703 C2712 0.950 . S
H2704 C2714 0.950 . S
H2705 C2716 0.950 . S
H2706 C2718 0.950 . S
H2707 C2719 0.950 . S
C2708 H2700 0.950 . S
C2708 C2709 1.386 . S
C2708 C2710 1.391 . S
C2709 C2708 1.386 . S
C2709 C2713 1.393 1_556 S
C2710 H2702 0.950 . S
C2710 C2708 1.391 . S
C2710 C2711 1.420 . S
C2711 C2710 1.420 . S
C2711 C2712 1.379 1_556 S
C2711 C2717 1.489 1_556 S
C2712 H2703 0.950 . S
C2712 C2711 1.379 1_554 S
C2712 C2713 1.391 . S
C2713 H2701 0.950 . S
C2713 C2709 1.393 1_554 S
C2713 C2712 1.391 . S
C2714 H2704 0.950 . S
C2714 C2715 1.386 . S
C2714 C2716 1.391 . S
C2715 C2714 1.386 . S
C2715 C2719 1.393 1_554 S
C2716 H2705 0.950 . S
C2716 C2714 1.391 . S
C2716 C2717 1.420 . S
C2717 C2711 1.489 1_554 S
C2717 C2716 1.420 . S
C2717 C2718 1.379 1_554 S
C2718 H2706 0.950 . S
C2718 C2717 1.379 1_556 S
C2718 C2719 1.391 . S
C2719 H2707 0.950 . S
C2719 C2715 1.393 1_556 S
C2719 C2718 1.391 . S
H2720 C2728 0.950 . S
H2721 C2733 0.950 . S
H2722 C2730 0.950 . S
H2723 C2732 0.950 . S
H2724 C2734 0.950 . S
H2725 C2736 0.950 . S
H2726 C2738 0.950 . S
H2727 C2739 0.950 . S
C2728 H2720 0.950 . S
C2728 C2729 1.386 . S
C2728 C2730 1.391 . S
C2729 C2728 1.386 . S
C2729 C2733 1.393 . S
C2730 H2722 0.950 . S
C2730 C2728 1.391 . S
C2730 C2731 1.400 . S
C2731 C2730 1.400 . S
C2731 C2732 1.398 . S
C2731 C2737 1.491 . S
C2732 H2723 0.950 . S
C2732 C2731 1.398 . S
C2732 C2733 1.391 . S
C2733 H2721 0.950 . S
C2733 C2729 1.393 . S
C2733 C2732 1.391 . S
C2734 H2724 0.950 . S
C2734 C2735 1.386 . S
C2734 C2736 1.391 . S
C2735 C2734 1.386 . S
C2735 C2739 1.393 . S
C2736 H2725 0.950 . S
C2736 C2734 1.391 . S
C2736 C2737 1.400 . S
C2737 C2731 1.491 . S
C2737 C2736 1.400 . S
C2737 C2738 1.398 . S
C2738 H2726 0.950 . S
C2738 C2737 1.398 . S
C2738 C2739 1.391 . S
C2739 H2727 0.950 . S
C2739 C2735 1.393 . S
C2739 C2738 1.391 . S
H2740 C2748 0.950 . S
H2741 C2753 0.951 . S
H2742 C2750 0.950 . S
H2743 C2752 0.950 . S
H2744 C2754 0.950 . S
H2745 C2756 0.950 . S
H2746 C2758 0.950 . S
H2747 C2759 0.951 . S
C2748 H2740 0.950 . S
C2748 C2749 1.386 . S
C2748 C2750 1.391 . S
C2749 C2748 1.386 . S
C2749 C2753 1.391 1_556 S
C2750 H2742 0.950 . S
C2750 C2748 1.391 . S
C2750 C2751 1.401 . S
C2751 C2750 1.401 . S
C2751 C2752 1.398 1_556 S
C2751 C2757 1.490 1_556 S
C2752 H2743 0.950 . S
C2752 C2751 1.398 1_554 S
C2752 C2753 1.392 . S
C2753 H2741 0.951 . S
C2753 C2749 1.391 1_554 S
C2753 C2752 1.392 . S
C2754 H2744 0.950 . S
C2754 C2755 1.386 . S
C2754 C2756 1.391 . S
C2755 C2754 1.386 . S
C2755 C2759 1.391 1_554 S
C2756 H2745 0.950 . S
C2756 C2754 1.391 . S
C2756 C2757 1.401 . S
C2757 C2751 1.490 1_554 S
C2757 C2756 1.401 . S
C2757 C2758 1.398 1_554 S
C2758 H2746 0.950 . S
C2758 C2757 1.398 1_556 S
C2758 C2759 1.392 . S
C2759 H2747 0.951 . S
C2759 C2755 1.391 1_556 S
C2759 C2758 1.392 . S
H2760 C2768 0.950 . S
H2761 C2773 0.950 . S
H2762 C2770 0.950 . S
H2763 C2772 0.950 . S
H2764 C2774 0.950 . S
H2765 C2776 0.950 . S
H2766 C2778 0.950 . S
H2767 C2779 0.950 . S
C2768 H2760 0.950 . S
C2768 C2769 1.386 . S
C2768 C2770 1.391 . S
C2769 C2768 1.386 . S
C2769 C2773 1.393 . S
C2770 H2762 0.950 . S
C2770 C2768 1.391 . S
C2770 C2771 1.400 . S
C2771 C2770 1.400 . S
C2771 C2772 1.398 . S
C2771 C2777 1.491 . S
C2772 H2763 0.950 . S
C2772 C2771 1.398 . S
C2772 C2773 1.391 . S
C2773 H2761 0.950 . S
C2773 C2769 1.393 . S
C2773 C2772 1.391 . S
C2774 H2764 0.950 . S
C2774 C2775 1.386 . S
C2774 C2776 1.391 . S
C2775 C2774 1.386 . S
C2775 C2779 1.393 . S
C2776 H2765 0.950 . S
C2776 C2774 1.391 . S
C2776 C2777 1.400 . S
C2777 C2771 1.491 . S
C2777 C2776 1.400 . S
C2777 C2778 1.398 . S
C2778 H2766 0.950 . S
C2778 C2777 1.398 . S
C2778 C2779 1.391 . S
C2779 H2767 0.950 . S
C2779 C2775 1.393 . S
C2779 C2778 1.391 . S
H2780 C2788 0.950 . S
H2781 C2793 0.950 . S
H2782 C2790 0.950 . S
H2783 C2792 0.950 . S
H2784 C2794 0.950 . S
H2785 C2796 0.950 . S
H2786 C2798 0.950 . S
H2787 C2799 0.950 . S
C2788 H2780 0.950 . S
C2788 C2789 1.386 . S
C2788 C2790 1.391 . S
C2789 C2788 1.386 . S
C2789 C2793 1.393 . S
C2790 H2782 0.950 . S
C2790 C2788 1.391 . S
C2790 C2791 1.400 . S
C2791 C2790 1.400 . S
C2791 C2792 1.398 . S
C2791 C2797 1.491 . S
C2792 H2783 0.950 . S
C2792 C2791 1.398 . S
C2792 C2793 1.391 . S
C2793 H2781 0.950 . S
C2793 C2789 1.393 . S
C2793 C2792 1.391 . S
C2794 H2784 0.950 . S
C2794 C2795 1.386 . S
C2794 C2796 1.391 . S
C2795 C2794 1.386 . S
C2795 C2799 1.393 . S
C2796 H2785 0.950 . S
C2796 C2794 1.391 . S
C2796 C2797 1.400 . S
C2797 C2791 1.491 . S
C2797 C2796 1.400 . S
C2797 C2798 1.398 . S
C2798 H2786 0.950 . S
C2798 C2797 1.398 . S
C2798 C2799 1.391 . S
C2799 H2787 0.950 . S
C2799 C2795 1.393 . S
C2799 C2798 1.391 . S
H2800 C2808 0.950 . S
H2801 C2813 0.950 . S
H2802 C2810 0.950 . S
H2803 C2812 0.950 . S
H2804 C2814 0.950 . S
H2805 C2816 0.950 . S
H2806 C2818 0.950 . S
H2807 C2819 0.950 . S
C2808 H2800 0.950 . S
C2808 C2809 1.386 . S
C2808 C2810 1.391 . S
C2809 C2808 1.386 . S
C2809 C2813 1.393 . S
C2810 H2802 0.950 . S
C2810 C2808 1.391 . S
C2810 C2811 1.400 . S
C2811 C2810 1.400 . S
C2811 C2812 1.398 . S
C2811 C2817 1.491 . S
C2812 H2803 0.950 . S
C2812 C2811 1.398 . S
C2812 C2813 1.391 . S
C2813 H2801 0.950 . S
C2813 C2809 1.393 . S
C2813 C2812 1.391 . S
C2814 H2804 0.950 . S
C2814 C2815 1.386 . S
C2814 C2816 1.391 . S
C2815 C2814 1.386 . S
C2815 C2819 1.393 . S
C2816 H2805 0.950 . S
C2816 C2814 1.391 . S
C2816 C2817 1.400 . S
C2817 C2811 1.491 . S
C2817 C2816 1.400 . S
C2817 C2818 1.398 . S
C2818 H2806 0.950 . S
C2818 C2817 1.398 . S
C2818 C2819 1.391 . S
C2819 H2807 0.950 . S
C2819 C2815 1.393 . S
C2819 C2818 1.391 . S
H2820 C2828 0.950 . S
H2821 C2833 0.950 . S
H2822 C2830 0.950 . S
H2823 C2832 0.950 . S
H2824 C2834 0.950 . S
H2825 C2836 0.950 . S
H2826 C2838 0.950 . S
H2827 C2839 0.950 . S
C2828 H2820 0.950 . S
C2828 C2829 1.386 . S
C2828 C2830 1.391 . S
C2829 C2828 1.386 . S
C2829 C2833 1.393 1_556 S
C2830 H2822 0.950 . S
C2830 C2828 1.391 . S
C2830 C2831 1.423 . S
C2831 C2830 1.423 . S
C2831 C2832 1.377 1_556 S
C2831 C2837 1.489 1_556 S
C2832 H2823 0.950 . S
C2832 C2831 1.377 1_554 S
C2832 C2833 1.391 . S
C2833 H2821 0.950 . S
C2833 C2829 1.393 1_554 S
C2833 C2832 1.391 . S
C2834 H2824 0.950 . S
C2834 C2835 1.386 . S
C2834 C2836 1.391 . S
C2835 C2834 1.386 . S
C2835 C2839 1.393 1_554 S
C2836 H2825 0.950 . S
C2836 C2834 1.391 . S
C2836 C2837 1.423 . S
C2837 C2831 1.489 1_554 S
C2837 C2836 1.423 . S
C2837 C2838 1.377 1_554 S
C2838 H2826 0.950 . S
C2838 C2837 1.377 1_556 S
C2838 C2839 1.391 . S
C2839 H2827 0.950 . S
C2839 C2835 1.393 1_556 S
C2839 C2838 1.391 . S
H2840 C2848 0.950 . S
H2841 C2853 0.950 . S
H2842 C2850 0.950 . S
H2843 C2852 0.950 . S
H2844 C2854 0.950 . S
H2845 C2856 0.950 . S
H2846 C2858 0.950 . S
H2847 C2859 0.950 . S
C2848 H2840 0.950 . S
C2848 C2849 1.386 . S
C2848 C2850 1.391 . S
C2849 C2848 1.386 . S
C2849 C2853 1.393 . S
C2850 H2842 0.950 . S
C2850 C2848 1.391 . S
C2850 C2851 1.400 . S
C2851 C2850 1.400 . S
C2851 C2852 1.398 . S
C2851 C2857 1.491 . S
C2852 H2843 0.950 . S
C2852 C2851 1.398 . S
C2852 C2853 1.391 . S
C2853 H2841 0.950 . S
C2853 C2849 1.393 . S
C2853 C2852 1.391 . S
C2854 H2844 0.950 . S
C2854 C2855 1.386 . S
C2854 C2856 1.391 . S
C2855 C2854 1.386 . S
C2855 C2859 1.393 . S
C2856 H2845 0.950 . S
C2856 C2854 1.391 . S
C2856 C2857 1.400 . S
C2857 C2851 1.491 . S
C2857 C2856 1.400 . S
C2857 C2858 1.398 . S
C2858 H2846 0.950 . S
C2858 C2857 1.398 . S
C2858 C2859 1.391 . S
C2859 H2847 0.950 . S
C2859 C2855 1.393 . S
C2859 C2858 1.391 . S
H2860 C2868 0.950 . S
H2861 C2873 0.950 . S
H2862 C2870 0.950 . S
H2863 C2872 0.950 . S
H2864 C2874 0.950 . S
H2865 C2876 0.950 . S
H2866 C2878 0.950 . S
H2867 C2879 0.950 . S
C2868 H2860 0.950 . S
C2868 C2869 1.386 . S
C2868 C2870 1.391 . S
C2869 C2868 1.386 . S
C2869 C2873 1.393 . S
C2870 H2862 0.950 . S
C2870 C2868 1.391 . S
C2870 C2871 1.400 . S
C2871 C2870 1.400 . S
C2871 C2872 1.398 . S
C2871 C2877 1.491 . S
C2872 H2863 0.950 . S
C2872 C2871 1.398 . S
C2872 C2873 1.391 . S
C2873 H2861 0.950 . S
C2873 C2869 1.393 . S
C2873 C2872 1.391 . S
C2874 H2864 0.950 . S
C2874 C2875 1.386 . S
C2874 C2876 1.391 . S
C2875 C2874 1.386 . S
C2875 C2879 1.393 . S
C2876 H2865 0.950 . S
C2876 C2874 1.391 . S
C2876 C2877 1.400 . S
C2877 C2871 1.491 . S
C2877 C2876 1.400 . S
C2877 C2878 1.398 . S
C2878 H2866 0.950 . S
C2878 C2877 1.398 . S
C2878 C2879 1.391 . S
C2879 H2867 0.950 . S
C2879 C2875 1.393 . S
C2879 C2878 1.391 . S
H2880 C2888 0.950 . S
H2881 C2893 0.950 . S
H2882 C2890 0.950 . S
H2883 C2892 0.950 . S
H2884 C2894 0.950 . S
H2885 C2896 0.950 . S
H2886 C2898 0.950 . S
H2887 C2899 0.950 . S
C2888 H2880 0.950 . S
C2888 C2889 1.386 . S
C2888 C2890 1.391 . S
C2889 C2888 1.386 . S
C2889 C2893 1.393 . S
C2890 H2882 0.950 . S
C2890 C2888 1.391 . S
C2890 C2891 1.400 . S
C2891 C2890 1.400 . S
C2891 C2892 1.398 . S
C2891 C2897 1.491 . S
C2892 H2883 0.950 . S
C2892 C2891 1.398 . S
C2892 C2893 1.391 . S
C2893 H2881 0.950 . S
C2893 C2889 1.393 . S
C2893 C2892 1.391 . S
C2894 H2884 0.950 . S
C2894 C2895 1.386 . S
C2894 C2896 1.391 . S
C2895 C2894 1.386 . S
C2895 C2899 1.393 . S
C2896 H2885 0.950 . S
C2896 C2894 1.391 . S
C2896 C2897 1.400 . S
C2897 C2891 1.491 . S
C2897 C2896 1.400 . S
C2897 C2898 1.398 . S
C2898 H2886 0.950 . S
C2898 C2897 1.398 . S
C2898 C2899 1.391 . S
C2899 H2887 0.950 . S
C2899 C2895 1.393 . S
C2899 C2898 1.391 . S
H2900 C2908 0.950 . S
H2901 C2913 0.950 . S
H2902 C2910 0.950 . S
H2903 C2912 0.950 . S
H2904 C2914 0.950 . S
H2905 C2916 0.950 . S
H2906 C2918 0.950 . S
H2907 C2919 0.950 . S
C2908 H2900 0.950 . S
C2908 C2909 1.386 . S
C2908 C2910 1.391 . S
C2909 C2908 1.386 . S
C2909 C2913 1.393 . S
C2910 H2902 0.950 . S
C2910 C2908 1.391 . S
C2910 C2911 1.400 . S
C2911 C2910 1.400 . S
C2911 C2912 1.398 . S
C2911 C2917 1.491 . S
C2912 H2903 0.950 . S
C2912 C2911 1.398 . S
C2912 C2913 1.391 . S
C2913 H2901 0.950 . S
C2913 C2909 1.393 . S
C2913 C2912 1.391 . S
C2914 H2904 0.950 . S
C2914 C2915 1.386 . S
C2914 C2916 1.391 . S
C2915 C2914 1.386 . S
C2915 C2919 1.393 . S
C2916 H2905 0.950 . S
C2916 C2914 1.391 . S
C2916 C2917 1.400 . S
C2917 C2911 1.491 . S
C2917 C2916 1.400 . S
C2917 C2918 1.398 . S
C2918 H2906 0.950 . S
C2918 C2917 1.398 . S
C2918 C2919 1.391 . S
C2919 H2907 0.950 . S
C2919 C2915 1.393 . S
C2919 C2918 1.391 . S
H2920 C2928 0.950 . S
H2921 C2933 0.950 . S
H2922 C2930 0.950 . S
H2923 C2932 0.950 . S
H2924 C2934 0.950 . S
H2925 C2936 0.950 . S
H2926 C2938 0.950 . S
H2927 C2939 0.950 . S
C2928 H2920 0.950 . S
C2928 C2929 1.386 . S
C2928 C2930 1.391 . S
C2929 C2928 1.386 . S
C2929 C2933 1.393 . S
C2930 H2922 0.950 . S
C2930 C2928 1.391 . S
C2930 C2931 1.400 . S
C2931 C2930 1.400 . S
C2931 C2932 1.398 . S
C2931 C2937 1.491 . S
C2932 H2923 0.950 . S
C2932 C2931 1.398 . S
C2932 C2933 1.391 . S
C2933 H2921 0.950 . S
C2933 C2929 1.393 . S
C2933 C2932 1.391 . S
C2934 H2924 0.950 . S
C2934 C2935 1.386 . S
C2934 C2936 1.391 . S
C2935 C2934 1.386 . S
C2935 C2939 1.393 . S
C2936 H2925 0.950 . S
C2936 C2934 1.391 . S
C2936 C2937 1.400 . S
C2937 C2931 1.491 . S
C2937 C2936 1.400 . S
C2937 C2938 1.398 . S
C2938 H2926 0.950 . S
C2938 C2937 1.398 . S
C2938 C2939 1.391 . S
C2939 H2927 0.950 . S
C2939 C2935 1.393 . S
C2939 C2938 1.391 . S
H2940 C2948 0.950 . S
H2941 C2953 0.950 . S
H2942 C2950 0.950 . S
H2943 C2952 0.950 . S
H2944 C2954 0.950 . S
H2945 C2956 0.950 . S
H2946 C2958 0.950 . S
H2947 C2959 0.950 . S
C2948 H2940 0.950 . S
C2948 C2949 1.386 . S
C2948 C2950 1.391 . S
C2949 C2948 1.386 . S
C2949 C2953 1.393 . S
C2950 H2942 0.950 . S
C2950 C2948 1.391 . S
C2950 C2951 1.400 . S
C2951 C2950 1.400 . S
C2951 C2952 1.398 . S
C2951 C2957 1.491 . S
C2952 H2943 0.950 . S
C2952 C2951 1.398 . S
C2952 C2953 1.391 . S
C2953 H2941 0.950 . S
C2953 C2949 1.393 . S
C2953 C2952 1.391 . S
C2954 H2944 0.950 . S
C2954 C2955 1.386 . S
C2954 C2956 1.391 . S
C2955 C2954 1.386 . S
C2955 C2959 1.393 . S
C2956 H2945 0.950 . S
C2956 C2954 1.391 . S
C2956 C2957 1.400 . S
C2957 C2951 1.491 . S
C2957 C2956 1.400 . S
C2957 C2958 1.398 . S
C2958 H2946 0.950 . S
C2958 C2957 1.398 . S
C2958 C2959 1.391 . S
C2959 H2947 0.950 . S
C2959 C2955 1.393 . S
C2959 C2958 1.391 . S
H2960 C2968 0.950 . S
H2961 C2973 0.950 . S
H2962 C2970 0.950 . S
H2963 C2972 0.950 . S
H2964 C2974 0.950 . S
H2965 C2976 0.950 . S
H2966 C2978 0.950 . S
H2967 C2979 0.950 . S
C2968 H2960 0.950 . S
C2968 C2969 1.386 . S
C2968 C2970 1.391 . S
C2969 C2968 1.386 . S
C2969 C2973 1.393 . S
C2970 H2962 0.950 . S
C2970 C2968 1.391 . S
C2970 C2971 1.400 . S
C2971 C2970 1.400 . S
C2971 C2972 1.398 . S
C2971 C2977 1.491 . S
C2972 H2963 0.950 . S
C2972 C2971 1.398 . S
C2972 C2973 1.391 . S
C2973 H2961 0.950 . S
C2973 C2969 1.393 . S
C2973 C2972 1.391 . S
C2974 H2964 0.950 . S
C2974 C2975 1.386 . S
C2974 C2976 1.391 . S
C2975 C2974 1.386 . S
C2975 C2979 1.393 . S
C2976 H2965 0.950 . S
C2976 C2974 1.391 . S
C2976 C2977 1.400 . S
C2977 C2971 1.491 . S
C2977 C2976 1.400 . S
C2977 C2978 1.398 . S
C2978 H2966 0.950 . S
C2978 C2977 1.398 . S
C2978 C2979 1.391 . S
C2979 H2967 0.950 . S
C2979 C2975 1.393 . S
C2979 C2978 1.391 . S
H2980 C2988 0.950 . S
H2981 C2993 0.950 . S
H2982 C2990 0.950 . S
H2983 C2992 0.950 . S
H2984 C2994 0.950 . S
H2985 C2996 0.950 . S
H2986 C2998 0.950 . S
H2987 C2999 0.950 . S
C2988 H2980 0.950 . S
C2988 C2989 1.386 . S
C2988 C2990 1.391 . S
C2989 C2988 1.386 . S
C2989 C2993 1.393 . S
C2990 H2982 0.950 . S
C2990 C2988 1.391 . S
C2990 C2991 1.400 . S
C2991 C2990 1.400 . S
C2991 C2992 1.398 . S
C2991 C2997 1.491 . S
C2992 H2983 0.950 . S
C2992 C2991 1.398 . S
C2992 C2993 1.391 . S
C2993 H2981 0.950 . S
C2993 C2989 1.393 . S
C2993 C2992 1.391 . S
C2994 H2984 0.950 . S
C2994 C2995 1.386 . S
C2994 C2996 1.391 . S
C2995 C2994 1.386 . S
C2995 C2999 1.393 . S
C2996 H2985 0.950 . S
C2996 C2994 1.391 . S
C2996 C2997 1.400 . S
C2997 C2991 1.491 . S
C2997 C2996 1.400 . S
C2997 C2998 1.398 . S
C2998 H2986 0.950 . S
C2998 C2997 1.398 . S
C2998 C2999 1.391 . S
C2999 H2987 0.950 . S
C2999 C2995 1.393 . S
C2999 C2998 1.391 . S
H3000 C3008 0.950 . S
H3001 C3013 0.950 . S
H3002 C3010 0.950 . S
H3003 C3012 0.950 . S
H3004 C3014 0.950 . S
H3005 C3016 0.950 . S
H3006 C3018 0.950 . S
H3007 C3019 0.950 . S
C3008 H3000 0.950 . S
C3008 C3009 1.386 . S
C3008 C3010 1.391 . S
C3009 C3008 1.386 . S
C3009 C3013 1.393 . S
C3010 H3002 0.950 . S
C3010 C3008 1.391 . S
C3010 C3011 1.400 . S
C3011 C3010 1.400 . S
C3011 C3012 1.398 . S
C3011 C3017 1.491 . S
C3012 H3003 0.950 . S
C3012 C3011 1.398 . S
C3012 C3013 1.391 . S
C3013 H3001 0.950 . S
C3013 C3009 1.393 . S
C3013 C3012 1.391 . S
C3014 H3004 0.950 . S
C3014 C3015 1.386 . S
C3014 C3016 1.391 . S
C3015 C3014 1.386 . S
C3015 C3019 1.393 . S
C3016 H3005 0.950 . S
C3016 C3014 1.391 . S
C3016 C3017 1.400 . S
C3017 C3011 1.491 . S
C3017 C3016 1.400 . S
C3017 C3018 1.398 . S
C3018 H3006 0.950 . S
C3018 C3017 1.398 . S
C3018 C3019 1.391 . S
C3019 H3007 0.950 . S
C3019 C3015 1.393 . S
C3019 C3018 1.391 . S
H3020 C3028 0.950 . S
H3021 C3033 0.950 . S
H3022 C3030 0.950 . S
H3023 C3032 0.950 . S
H3024 C3034 0.950 . S
H3025 C3036 0.950 . S
H3026 C3038 0.950 . S
H3027 C3039 0.950 . S
C3028 H3020 0.950 . S
C3028 C3029 1.386 . S
C3028 C3030 1.391 . S
C3029 C3028 1.386 . S
C3029 C3033 1.393 . S
C3030 H3022 0.950 . S
C3030 C3028 1.391 . S
C3030 C3031 1.400 . S
C3031 C3030 1.400 . S
C3031 C3032 1.398 . S
C3031 C3037 1.491 . S
C3032 H3023 0.950 . S
C3032 C3031 1.398 . S
C3032 C3033 1.391 . S
C3033 H3021 0.950 . S
C3033 C3029 1.393 . S
C3033 C3032 1.391 . S
C3034 H3024 0.950 . S
C3034 C3035 1.386 . S
C3034 C3036 1.391 . S
C3035 C3034 1.386 . S
C3035 C3039 1.393 . S
C3036 H3025 0.950 . S
C3036 C3034 1.391 . S
C3036 C3037 1.400 . S
C3037 C3031 1.491 . S
C3037 C3036 1.400 . S
C3037 C3038 1.398 . S
C3038 H3026 0.950 . S
C3038 C3037 1.398 . S
C3038 C3039 1.391 . S
C3039 H3027 0.950 . S
C3039 C3035 1.393 . S
C3039 C3038 1.391 . S
H3040 C3048 0.950 . S
H3041 C3053 0.950 . S
H3042 C3050 0.950 . S
H3043 C3052 0.950 . S
H3044 C3054 0.950 . S
H3045 C3056 0.950 . S
H3046 C3058 0.950 . S
H3047 C3059 0.950 . S
C3048 H3040 0.950 . S
C3048 C3049 1.386 . S
C3048 C3050 1.391 . S
C3049 C3048 1.386 . S
C3049 C3053 1.393 . S
C3050 H3042 0.950 . S
C3050 C3048 1.391 . S
C3050 C3051 1.400 . S
C3051 C3050 1.400 . S
C3051 C3052 1.398 . S
C3051 C3057 1.491 . S
C3052 H3043 0.950 . S
C3052 C3051 1.398 . S
C3052 C3053 1.391 . S
C3053 H3041 0.950 . S
C3053 C3049 1.393 . S
C3053 C3052 1.391 . S
C3054 H3044 0.950 . S
C3054 C3055 1.386 . S
C3054 C3056 1.391 . S
C3055 C3054 1.386 . S
C3055 C3059 1.393 . S
C3056 H3045 0.950 . S
C3056 C3054 1.391 . S
C3056 C3057 1.400 . S
C3057 C3051 1.491 . S
C3057 C3056 1.400 . S
C3057 C3058 1.398 . S
C3058 H3046 0.950 . S
C3058 C3057 1.398 . S
C3058 C3059 1.391 . S
C3059 H3047 0.950 . S
C3059 C3055 1.393 . S
C3059 C3058 1.391 . S
H3060 C3068 0.950 . S
H3061 C3073 0.950 . S
H3062 C3070 0.950 . S
H3063 C3072 0.950 . S
H3064 C3074 0.950 . S
H3065 C3076 0.950 . S
H3066 C3078 0.950 . S
H3067 C3079 0.950 . S
C3068 H3060 0.950 . S
C3068 C3069 1.386 . S
C3068 C3070 1.391 . S
C3069 C3068 1.386 . S
C3069 C3073 1.393 . S
C3070 H3062 0.950 . S
C3070 C3068 1.391 . S
C3070 C3071 1.400 . S
C3071 C3070 1.400 . S
C3071 C3072 1.398 . S
C3071 C3077 1.491 . S
C3072 H3063 0.950 . S
C3072 C3071 1.398 . S
C3072 C3073 1.391 . S
C3073 H3061 0.950 . S
C3073 C3069 1.393 . S
C3073 C3072 1.391 . S
C3074 H3064 0.950 . S
C3074 C3075 1.386 . S
C3074 C3076 1.391 . S
C3075 C3074 1.386 . S
C3075 C3079 1.393 . S
C3076 H3065 0.950 . S
C3076 C3074 1.391 . S
C3076 C3077 1.400 . S
C3077 C3071 1.491 . S
C3077 C3076 1.400 . S
C3077 C3078 1.398 . S
C3078 H3066 0.950 . S
C3078 C3077 1.398 . S
C3078 C3079 1.391 . S
C3079 H3067 0.950 . S
C3079 C3075 1.393 . S
C3079 C3078 1.391 . S
H3080 C3088 0.950 . S
H3081 C3093 0.950 . S
H3082 C3090 0.950 . S
H3083 C3092 0.950 . S
H3084 C3094 0.950 . S
H3085 C3096 0.950 . S
H3086 C3098 0.950 . S
H3087 C3099 0.950 . S
C3088 H3080 0.950 . S
C3088 C3089 1.386 . S
C3088 C3090 1.391 . S
C3089 C3088 1.386 . S
C3089 C3093 1.393 . S
C3090 H3082 0.950 . S
C3090 C3088 1.391 . S
C3090 C3091 1.400 . S
C3091 C3090 1.400 . S
C3091 C3092 1.398 . S
C3091 C3097 1.491 . S
C3092 H3083 0.950 . S
C3092 C3091 1.398 . S
C3092 C3093 1.391 . S
C3093 H3081 0.950 . S
C3093 C3089 1.393 . S
C3093 C3092 1.391 . S
C3094 H3084 0.950 . S
C3094 C3095 1.386 . S
C3094 C3096 1.391 . S
C3095 C3094 1.386 . S
C3095 C3099 1.393 . S
C3096 H3085 0.950 . S
C3096 C3094 1.391 . S
C3096 C3097 1.400 . S
C3097 C3091 1.491 . S
C3097 C3096 1.400 . S
C3097 C3098 1.398 . S
C3098 H3086 0.950 . S
C3098 C3097 1.398 . S
C3098 C3099 1.391 . S
C3099 H3087 0.950 . S
C3099 C3095 1.393 . S
C3099 C3098 1.391 . S
H3100 C3108 0.950 . S
H3101 C3113 0.950 . S
H3102 C3110 0.950 . S
H3103 C3112 0.950 . S
H3104 C3114 0.950 . S
H3105 C3116 0.950 . S
H3106 C3118 0.950 . S
H3107 C3119 0.950 . S
C3108 H3100 0.950 . S
C3108 C3109 1.386 . S
C3108 C3110 1.391 . S
C3109 C3108 1.386 . S
C3109 C3113 1.393 . S
C3110 H3102 0.950 . S
C3110 C3108 1.391 . S
C3110 C3111 1.400 . S
C3111 C3110 1.400 . S
C3111 C3112 1.398 . S
C3111 C3117 1.491 . S
C3112 H3103 0.950 . S
C3112 C3111 1.398 . S
C3112 C3113 1.391 . S
C3113 H3101 0.950 . S
C3113 C3109 1.393 . S
C3113 C3112 1.391 . S
C3114 H3104 0.950 . S
C3114 C3115 1.386 . S
C3114 C3116 1.391 . S
C3115 C3114 1.386 . S
C3115 C3119 1.393 . S
C3116 H3105 0.950 . S
C3116 C3114 1.391 . S
C3116 C3117 1.400 . S
C3117 C3111 1.491 . S
C3117 C3116 1.400 . S
C3117 C3118 1.398 . S
C3118 H3106 0.950 . S
C3118 C3117 1.398 . S
C3118 C3119 1.391 . S
C3119 H3107 0.950 . S
C3119 C3115 1.393 . S
C3119 C3118 1.391 . S
H3120 C3128 0.950 . S
H3121 C3133 0.950 . S
H3122 C3130 0.950 . S
H3123 C3132 0.950 . S
H3124 C3134 0.950 . S
H3125 C3136 0.950 . S
H3126 C3138 0.950 . S
H3127 C3139 0.950 . S
C3128 H3120 0.950 . S
C3128 C3129 1.386 . S
C3128 C3130 1.391 . S
C3129 C3128 1.386 . S
C3129 C3133 1.393 . S
C3130 H3122 0.950 . S
C3130 C3128 1.391 . S
C3130 C3131 1.400 . S
C3131 C3130 1.400 . S
C3131 C3132 1.398 . S
C3131 C3137 1.491 . S
C3132 H3123 0.950 . S
C3132 C3131 1.398 . S
C3132 C3133 1.391 . S
C3133 H3121 0.950 . S
C3133 C3129 1.393 . S
C3133 C3132 1.391 . S
C3134 H3124 0.950 . S
C3134 C3135 1.386 . S
C3134 C3136 1.391 . S
C3135 C3134 1.386 . S
C3135 C3139 1.393 . S
C3136 H3125 0.950 . S
C3136 C3134 1.391 . S
C3136 C3137 1.400 . S
C3137 C3131 1.491 . S
C3137 C3136 1.400 . S
C3137 C3138 1.398 . S
C3138 H3126 0.950 . S
C3138 C3137 1.398 . S
C3138 C3139 1.391 . S
C3139 H3127 0.950 . S
C3139 C3135 1.393 . S
C3139 C3138 1.391 . S
H3140 C3148 0.950 . S
H3141 C3153 0.950 . S
H3142 C3150 0.950 . S
H3143 C3152 0.950 . S
H3144 C3154 0.950 . S
H3145 C3156 0.950 . S
H3146 C3158 0.950 . S
H3147 C3159 0.950 . S
C3148 H3140 0.950 . S
C3148 C3149 1.386 . S
C3148 C3150 1.391 . S
C3149 C3148 1.386 . S
C3149 C3153 1.393 . S
C3150 H3142 0.950 . S
C3150 C3148 1.391 . S
C3150 C3151 1.400 . S
C3151 C3150 1.400 . S
C3151 C3152 1.398 . S
C3151 C3157 1.491 . S
C3152 H3143 0.950 . S
C3152 C3151 1.398 . S
C3152 C3153 1.391 . S
C3153 H3141 0.950 . S
C3153 C3149 1.393 . S
C3153 C3152 1.391 . S
C3154 H3144 0.950 . S
C3154 C3155 1.386 . S
C3154 C3156 1.391 . S
C3155 C3154 1.386 . S
C3155 C3159 1.393 . S
C3156 H3145 0.950 . S
C3156 C3154 1.391 . S
C3156 C3157 1.400 . S
C3157 C3151 1.491 . S
C3157 C3156 1.400 . S
C3157 C3158 1.398 . S
C3158 H3146 0.950 . S
C3158 C3157 1.398 . S
C3158 C3159 1.391 . S
C3159 H3147 0.950 . S
C3159 C3155 1.393 . S
C3159 C3158 1.391 . S
H3160 C3168 0.950 . S
H3161 C3173 0.950 . S
H3162 C3170 0.950 . S
H3163 C3172 0.950 . S
H3164 C3174 0.950 . S
H3165 C3176 0.950 . S
H3166 C3178 0.950 . S
H3167 C3179 0.950 . S
C3168 H3160 0.950 . S
C3168 C3169 1.386 . S
C3168 C3170 1.391 . S
C3169 C3168 1.386 . S
C3169 C3173 1.393 . S
C3170 H3162 0.950 . S
C3170 C3168 1.391 . S
C3170 C3171 1.400 . S
C3171 C3170 1.400 . S
C3171 C3172 1.398 . S
C3171 C3177 1.491 . S
C3172 H3163 0.950 . S
C3172 C3171 1.398 . S
C3172 C3173 1.391 . S
C3173 H3161 0.950 . S
C3173 C3169 1.393 . S
C3173 C3172 1.391 . S
C3174 H3164 0.950 . S
C3174 C3175 1.386 . S
C3174 C3176 1.391 . S
C3175 C3174 1.386 . S
C3175 C3179 1.393 . S
C3176 H3165 0.950 . S
C3176 C3174 1.391 . S
C3176 C3177 1.400 . S
C3177 C3171 1.491 . S
C3177 C3176 1.400 . S
C3177 C3178 1.398 . S
C3178 H3166 0.950 . S
C3178 C3177 1.398 . S
C3178 C3179 1.391 . S
C3179 H3167 0.950 . S
C3179 C3175 1.393 . S
C3179 C3178 1.391 . S
H3180 C3188 0.950 . S
H3181 C3193 0.950 . S
H3182 C3190 0.950 . S
H3183 C3192 0.950 . S
H3184 C3194 0.950 . S
H3185 C3196 0.950 . S
H3186 C3198 0.950 . S
H3187 C3199 0.950 . S
C3188 H3180 0.950 . S
C3188 C3189 1.386 . S
C3188 C3190 1.391 . S
C3189 C3188 1.386 . S
C3189 C3193 1.393 . S
C3190 H3182 0.950 . S
C3190 C3188 1.391 . S
C3190 C3191 1.400 . S
C3191 C3190 1.400 . S
C3191 C3192 1.398 . S
C3191 C3197 1.491 . S
C3192 H3183 0.950 . S
C3192 C3191 1.398 . S
C3192 C3193 1.391 . S
C3193 H3181 0.950 . S
C3193 C3189 1.393 . S
C3193 C3192 1.391 . S
C3194 H3184 0.950 . S
C3194 C3195 1.386 . S
C3194 C3196 1.391 . S
C3195 C3194 1.386 . S
C3195 C3199 1.393 . S
C3196 H3185 0.950 . S
C3196 C3194 1.391 . S
C3196 C3197 1.400 . S
C3197 C3191 1.491 . S
C3197 C3196 1.400 . S
C3197 C3198 1.398 . S
C3198 H3186 0.950 . S
C3198 C3197 1.398 . S
C3198 C3199 1.391 . S
C3199 H3187 0.950 . S
C3199 C3195 1.393 . S
C3199 C3198 1.391 . S
C1289 C6 1.082 . S
C1295 C139 1.018 . S
C1309 C19 1.024 . S
C1315 C46 1.074 1_545 S
C1329 C86 1.081 . S
C1335 C59 1.018 . S
C1349 C99 1.055 . S
C1355 C126 1.088 . S
C1369 C219 1.030 . S
C1375 C166 1.080 . S
C1389 C206 1.075 . S
C1395 C259 1.045 . S
C1409 C299 1.017 . S
C1415 C246 1.082 . S
C1429 C179 1.057 . S
C1435 C286 1.093 . S
C1449 C335 1.079 . S
C1455 C450 1.037 . S
C1469 C375 1.094 . S
C1475 C330 1.056 . S
C1489 C415 1.078 . S
C1495 C370 1.038 . S
C1509 C455 1.087 . S
C1515 C410 1.045 . S
C1529 C495 1.079 . S
C1535 C530 1.035 . S
C1549 C535 1.082 . S
C1555 C570 1.039 . S
C1569 C610 1.055 . S
C1575 C575 1.075 . S
C1589 C490 1.034 . S
C1595 C615 1.072 1_545 S
C1609 C646 1.082 . S
C1615 C779 1.018 . S
C1629 C659 1.025 . S
C1635 C686 1.080 . S
C1649 C699 1.036 . S
C1655 C726 1.079 . S
C1669 C766 1.082 . S
C1675 C739 1.016 . S
C1689 C806 1.078 . S
C1695 C859 1.040 . S
C1709 C899 1.017 . S
C1715 C846 1.082 . S
C1729 C886 1.076 . S
C1735 C939 1.053 . S
C1749 C819 1.055 . S
C1755 C926 1.075 . S
C1769 C1090 1.038 . S
C1775 C975 1.079 . S
C1789 C970 1.041 . S
C1795 C1015 1.077 . S
C1809 C1055 1.082 . S
C1815 C1010 1.016 . S
C1829 C1050 1.044 . S
C1835 C1095 1.077 . S
C1849 C1170 1.054 . S
C1855 C1135 1.076 . S
C1869 C1210 1.033 . S
C1875 C1175 1.079 . S
C1889 C1250 1.016 . S
C1895 C1215 1.082 . S
C1909 C1255 1.075 . S
C1915 C1130 1.056 . S
C1929 C1086 1.585 . S
C1935 C9 1.525 . S
C1949 C49 1.528 . S
C1955 C326 1.630 . S
C1969 C89 1.546 . S
C1975 C1006 1.600 . S
C1989 C129 1.533 . S
C1995 C406 1.587 . S
C2009 C169 1.550 . S
C2015 C1166 1.596 . S
C2029 C566 1.595 . S
C2035 C209 1.548 . S
C2049 C1246 1.598 . S
C2055 C249 1.539 . S
C2069 C289 1.543 . S
C2075 C486 1.627 . S
C2089 C338 1.541 . S
C2095 C775 1.590 . S
C2109 C15 1.590 . S
C2115 C378 1.530 . S
C2129 C695 1.588 . S
C2135 C418 1.523 . S
C2149 C95 1.595 . S
C2155 C458 1.532 . S
C2169 C855 1.587 . S
C2175 C498 1.535 . S
C2189 C255 1.588 . S
C2195 C538 1.523 . S
C2209 C578 1.533 . S
C2215 C935 1.587 . S
C2229 C618 1.549 . S
C2235 C175 1.593 . S
C2249 C649 1.523 . S
C2255 C446 1.587 . S
C2269 C689 1.527 . S
C2275 C966 1.585 . S
C2289 C729 1.536 . S
C2295 C366 1.597 . S
C2309 C769 1.549 . S
C2315 C1046 1.614 . S
C2329 C809 1.535 . S
C2335 C526 1.587 . S
C2349 C849 1.543 . S
C2355 C1206 1.628 . S
C2369 C606 1.593 . S
C2375 C889 1.528 . S
C2389 C929 1.543 . S
C2395 C1126 1.600 . S
C2409 C135 1.586 . S
C2415 C978 1.531 . S
C2429 C655 1.600 . S
C2435 C1018 1.545 . S
C2449 C55 1.585 . S
C2455 C1058 1.528 . S
C2469 C735 1.625 . S
C2475 C1098 1.545 . S
C2489 C215 1.600 . S
C2495 C1138 1.548 . S
C2509 C1178 1.527 . S
C2515 C895 1.629 . S
C2529 C1218 1.549 . S
C2535 C295 1.600 . S
C2549 C815 1.588 . S
C2555 C1258 1.523 . S
C2569 C18 0.660 . S
C2575 C178 0.618 . S
C2589 C58 0.616 . S
C2595 C218 0.647 . S
C2609 C98 0.652 . S
C2615 C258 0.674 . S
C2629 C298 0.645 . S
C2635 C138 0.617 . S
C2649 C489 0.635 . S
C2655 C329 0.675 . S
C2669 C529 0.664 . S
C2675 C369 0.620 . S
C2689 C409 0.665 . S
C2695 C569 0.666 . S
C2709 C449 0.674 . S
C2715 C609 0.633 . S
C2729 C658 0.638 . S
C2735 C818 0.619 . S
C2749 C858 0.666 . S
C2755 C698 0.665 . S
C2769 C898 0.674 . S
C2775 C738 0.652 . S
C2789 C938 0.654 . S
C2795 C778 0.673 . S
C2809 C1129 0.667 . S
C2815 C969 0.664 . S
C2829 C1009 0.673 . S
C2835 C1169 0.630 . S
C2849 C1209 0.651 . S
C2855 C1049 0.616 . S
C2869 C1089 0.672 . S
C2875 C1249 0.656 . S
C2889 C290 2.724 . S
C2895 C10 2.723 . S
C2909 C50 2.726 . S
C2915 C170 2.726 . S
C2929 C90 2.726 . S
C2935 C210 2.725 . S
C2949 C250 2.726 . S
C2955 C130 2.724 . S
C2969 C339 2.724 . S
C2975 C619 2.725 . S
C2989 C499 2.723 . S
C2995 C379 2.722 . S
C3009 C539 2.726 . S
C3015 C419 2.725 . S
C3029 C459 2.723 . S
C3035 C579 2.722 . S
C3049 C650 2.726 . S
C3055 C930 2.726 . S
C3069 C810 2.726 . S
C3075 C690 2.726 . S
C3089 C850 2.722 . S
C3095 C730 2.724 . S
C3109 C890 2.726 . S
C3115 C770 2.726 . S
C3129 C979 2.722 . S
C3135 C1259 2.723 . S
C3149 C1139 2.722 . S
C3155 C1019 2.722 . S
C3169 C1059 2.722 . S
C3175 C1179 2.723 . S
C3189 C1219 2.726 . S
C3195 C1099 2.726 . S
