# Generated by pormake.
# Topology uoy, (4)-cn, num edge types: 1
# Building blocks:
#     Node 0, Type 0, BuildingBlock: CEKHIL_clean_sbu_0, # of connection points: 4
#     Node 1, Type 0, BuildingBlock: CEKHIL_clean_sbu_0, # of connection points: 4
#     Node 2, Type 0, BuildingBlock: CEKHIL_clean_sbu_0, # of connection points: 4
#     Node 3, Type 0, BuildingBlock: CEKHIL_clean_sbu_0, # of connection points: 4
#     Node 4, Type 0, BuildingBlock: CEKHIL_clean_sbu_0, # of connection points: 4
#     Node 5, Type 0, BuildingBlock: CEKHIL_clean_sbu_0, # of connection points: 4
#     Node 6, Type 0, BuildingBlock: CEKHIL_clean_sbu_0, # of connection points: 4
#     Node 7, Type 0, BuildingBlock: CEKHIL_clean_sbu_0, # of connection points: 4
#     Node 8, Type 0, BuildingBlock: CEKHIL_clean_sbu_0, # of connection points: 4
#     Node 9, Type 0, BuildingBlock: CEKHIL_clean_sbu_0, # of connection points: 4
#     Node 10, Type 0, BuildingBlock: CEKHIL_clean_sbu_0, # of connection points: 4
#     Node 11, Type 0, BuildingBlock: CEKHIL_clean_sbu_0, # of connection points: 4
#     Node 12, Type 0, BuildingBlock: CEKHIL_clean_sbu_0, # of connection points: 4
#     Node 13, Type 0, BuildingBlock: CEKHIL_clean_sbu_0, # of connection points: 4
#     Node 14, Type 0, BuildingBlock: CEKHIL_clean_sbu_0, # of connection points: 4
#     Node 15, Type 0, BuildingBlock: CEKHIL_clean_sbu_0, # of connection points: 4
#     Edge 16, Type (0, 0), BuildingBlock: OJICUG_clean_linker_0, # of connection points: 2
#     Edge 17, Type (0, 0), BuildingBlock: OJICUG_clean_linker_0, # of connection points: 2
#     Edge 18, Type (0, 0), BuildingBlock: OJICUG_clean_linker_0, # of connection points: 2
#     Edge 19, Type (0, 0), BuildingBlock: OJICUG_clean_linker_0, # of connection points: 2
#     Edge 20, Type (0, 0), BuildingBlock: OJICUG_clean_linker_0, # of connection points: 2
#     Edge 21, Type (0, 0), BuildingBlock: OJICUG_clean_linker_0, # of connection points: 2
#     Edge 22, Type (0, 0), BuildingBlock: OJICUG_clean_linker_0, # of connection points: 2
#     Edge 23, Type (0, 0), BuildingBlock: OJICUG_clean_linker_0, # of connection points: 2
#     Edge 24, Type (0, 0), BuildingBlock: OJICUG_clean_linker_0, # of connection points: 2
#     Edge 25, Type (0, 0), BuildingBlock: OJICUG_clean_linker_0, # of connection points: 2
#     Edge 26, Type (0, 0), BuildingBlock: OJICUG_clean_linker_0, # of connection points: 2
#     Edge 27, Type (0, 0), BuildingBlock: OJICUG_clean_linker_0, # of connection points: 2
#     Edge 28, Type (0, 0), BuildingBlock: OJICUG_clean_linker_0, # of connection points: 2
#     Edge 29, Type (0, 0), BuildingBlock: OJICUG_clean_linker_0, # of connection points: 2
#     Edge 30, Type (0, 0), BuildingBlock: OJICUG_clean_linker_0, # of connection points: 2
#     Edge 31, Type (0, 0), BuildingBlock: OJICUG_clean_linker_0, # of connection points: 2
#     Edge 32, Type (0, 0), BuildingBlock: OJICUG_clean_linker_0, # of connection points: 2
#     Edge 33, Type (0, 0), BuildingBlock: OJICUG_clean_linker_0, # of connection points: 2
#     Edge 34, Type (0, 0), BuildingBlock: OJICUG_clean_linker_0, # of connection points: 2
#     Edge 35, Type (0, 0), BuildingBlock: OJICUG_clean_linker_0, # of connection points: 2
#     Edge 36, Type (0, 0), BuildingBlock: OJICUG_clean_linker_0, # of connection points: 2
#     Edge 37, Type (0, 0), BuildingBlock: OJICUG_clean_linker_0, # of connection points: 2
#     Edge 38, Type (0, 0), BuildingBlock: OJICUG_clean_linker_0, # of connection points: 2
#     Edge 39, Type (0, 0), BuildingBlock: OJICUG_clean_linker_0, # of connection points: 2
#     Edge 40, Type (0, 0), BuildingBlock: OJICUG_clean_linker_0, # of connection points: 2
#     Edge 41, Type (0, 0), BuildingBlock: OJICUG_clean_linker_0, # of connection points: 2
#     Edge 42, Type (0, 0), BuildingBlock: OJICUG_clean_linker_0, # of connection points: 2
#     Edge 43, Type (0, 0), BuildingBlock: OJICUG_clean_linker_0, # of connection points: 2
#     Edge 44, Type (0, 0), BuildingBlock: OJICUG_clean_linker_0, # of connection points: 2
#     Edge 45, Type (0, 0), BuildingBlock: OJICUG_clean_linker_0, # of connection points: 2
#     Edge 46, Type (0, 0), BuildingBlock: OJICUG_clean_linker_0, # of connection points: 2
#     Edge 47, Type (0, 0), BuildingBlock: OJICUG_clean_linker_0, # of connection points: 2
# Relax obj value: 0.040
# Max RMSD: 0.061
# Mean RMSD: 0.061
data_MOF--net-uoy--node1-CEKHIL_clean_sbu_0--edge1-OJICUG_clean_linker_0
_symmetry_space_group_name_H-M    P1
_symmetry_Int_Tables_number       1
_symmetry_cell_setting            triclinic
loop_
_symmetry_equiv_pos_as_xyz
'x, y, z'
_cell_length_a     19.940855
_cell_length_b     19.94476
_cell_length_c     76.88648
_cell_angle_alpha  90.022312
_cell_angle_beta   89.997826
_cell_angle_gamma 89.97412
loop_
_atom_site_label
_atom_site_type_symbol
_atom_site_fract_x
_atom_site_fract_y
_atom_site_fract_z
_atom_type_partial_charge
Co0 Co 0.24124 0.11841 0.19063 0.0
O1 O 0.14527 0.13276 0.19137 0.0
O2 O 0.19438 0.04007 0.18203 0.0
C3 C 0.26445 0.15631 0.21759 0.0
O4 O 0.33736 0.08312 0.18868 0.0
Co5 Co 0.34215 0.23697 0.19319 0.0
O6 O 0.41117 0.16535 0.19456 0.0
C7 C 0.26249 0.21831 0.16138 0.0
C8 C 0.13909 0.07221 0.18534 0.0
C9 C 0.39774 0.10414 0.19128 0.0
O10 O 0.24541 0.15919 0.16653 0.0
O11 O 0.29464 0.25975 0.17098 0.0
O12 O 0.24161 0.09589 0.21539 0.0
O13 O 0.26585 0.19341 0.20385 0.0
Co14 Co 0.89883 0.74081 0.44057 0.0
O15 O 0.88452 0.64488 0.44136 0.0
O16 O 0.97717 0.69384 0.43198 0.0
C17 C 0.86094 0.7643 0.46752 0.0
O18 O 0.9341 0.83688 0.43856 0.0
Co19 Co 0.78026 0.84185 0.4431 0.0
O20 O 0.85187 0.91082 0.4444 0.0
C21 C 0.79875 0.76177 0.41134 0.0
C22 C 0.94505 0.63861 0.43533 0.0
C23 C 0.91308 0.89731 0.44112 0.0
O24 O 0.85793 0.74473 0.41648 0.0
O25 O 0.75737 0.79406 0.42093 0.0
O26 O 0.92139 0.74143 0.46533 0.0
O27 O 0.82384 0.7656 0.45378 0.0
Co28 Co 0.27563 0.39961 0.69056 0.0
O29 O 0.37158 0.38526 0.69137 0.0
O30 O 0.32256 0.47786 0.68196 0.0
C31 C 0.25216 0.3619 0.71752 0.0
O32 O 0.17954 0.43492 0.68853 0.0
Co33 Co 0.17459 0.28115 0.69313 0.0
O34 O 0.10561 0.35282 0.69441 0.0
C35 C 0.25469 0.29933 0.66138 0.0
C36 C 0.37782 0.44576 0.68533 0.0
C37 C 0.11912 0.41398 0.6911 0.0
O38 O 0.27172 0.35854 0.66648 0.0
O39 O 0.22241 0.25807 0.67098 0.0
O40 O 0.275 0.42232 0.71532 0.0
O41 O 0.25087 0.32473 0.70379 0.0
Co42 Co 0.61817 0.77518 0.94058 0.0
O43 O 0.63249 0.87111 0.94141 0.0
O44 O 0.53988 0.82217 0.93199 0.0
C45 C 0.65592 0.75168 0.96754 0.0
O46 O 0.58289 0.67912 0.93854 0.0
Co47 Co 0.73672 0.67414 0.94312 0.0
O48 O 0.66508 0.60519 0.94441 0.0
C49 C 0.71839 0.75426 0.91138 0.0
C50 C 0.57198 0.87739 0.93536 0.0
C51 C 0.60388 0.6187 0.9411 0.0
O52 O 0.65919 0.77129 0.9165 0.0
O53 O 0.75972 0.72194 0.92097 0.0
O54 O 0.59549 0.77455 0.96534 0.0
O55 O 0.6931 0.75038 0.95381 0.0
Co56 Co 0.24278 0.39905 0.06055 0.0
O57 O 0.14683 0.38474 0.05974 0.0
O58 O 0.19579 0.4772 0.06925 0.0
C59 C 0.26616 0.36172 0.03354 0.0
O60 O 0.33888 0.43432 0.06259 0.0
Co61 Co 0.3439 0.28063 0.05784 0.0
O62 O 0.41277 0.35232 0.0565 0.0
C63 C 0.26399 0.29845 0.08966 0.0
C64 C 0.14055 0.44517 0.06585 0.0
C65 C 0.39928 0.41342 0.05991 0.0
O66 O 0.24672 0.35763 0.08458 0.0
O67 O 0.29649 0.25737 0.08003 0.0
O68 O 0.24331 0.42212 0.03582 0.0
O69 O 0.26753 0.32434 0.04723 0.0
Co70 Co 0.61806 0.74202 0.31049 0.0
O71 O 0.63236 0.64609 0.30964 0.0
O72 O 0.53986 0.69509 0.31914 0.0
C73 C 0.65547 0.76556 0.28351 0.0
O74 O 0.58285 0.83813 0.31256 0.0
Co75 Co 0.73665 0.84288 0.3079 0.0
O76 O 0.66501 0.91189 0.30658 0.0
C77 C 0.7186 0.7627 0.33963 0.0
C78 C 0.57193 0.63984 0.31574 0.0
C79 C 0.60384 0.89849 0.30993 0.0
O80 O 0.65936 0.74577 0.33453 0.0
O81 O 0.75984 0.79506 0.33003 0.0
O82 O 0.59506 0.74273 0.28576 0.0
O83 O 0.69284 0.76675 0.29721 0.0
Co84 Co 0.27356 0.11753 0.56064 0.0
O85 O 0.36947 0.13178 0.55974 0.0
O86 O 0.32058 0.03938 0.5693 0.0
C87 C 0.24987 0.15469 0.53365 0.0
O88 O 0.17746 0.08237 0.56275 0.0
Co89 Co 0.17258 0.23607 0.55802 0.0
O90 O 0.10362 0.16445 0.55673 0.0
C91 C 0.25306 0.21836 0.58973 0.0
C92 C 0.37579 0.07138 0.56585 0.0
C93 C 0.11707 0.10333 0.56011 0.0
O94 O 0.26997 0.15905 0.58466 0.0
O95 O 0.22059 0.25949 0.58012 0.0
O96 O 0.2727 0.0943 0.53592 0.0
O97 O 0.24871 0.19219 0.54733 0.0
Co98 Co 0.89962 0.77465 0.81057 0.0
O99 O 0.8853 0.87057 0.80974 0.0
O100 O 0.9778 0.8216 0.81924 0.0
C101 C 0.86227 0.7512 0.78358 0.0
O102 O 0.93486 0.67854 0.81263 0.0
Co103 Co 0.7811 0.67372 0.80791 0.0
O104 O 0.85277 0.60475 0.8066 0.0
C105 C 0.79899 0.75378 0.83969 0.0
C106 C 0.94574 0.87683 0.81583 0.0
C107 C 0.91391 0.61816 0.80998 0.0
O108 O 0.85823 0.77085 0.83461 0.0
O109 O 0.75783 0.72139 0.83007 0.0
O110 O 0.92268 0.77398 0.78584 0.0
O111 O 0.82488 0.74993 0.79727 0.0
Co112 Co 0.74144 0.61808 0.69047 0.0
O113 O 0.6455 0.63234 0.69138 0.0
O114 O 0.69447 0.53992 0.68181 0.0
C115 C 0.76519 0.65529 0.71746 0.0
O116 O 0.83755 0.58291 0.68835 0.0
Co117 Co 0.84229 0.73665 0.69308 0.0
O118 O 0.91133 0.66503 0.69435 0.0
C119 C 0.76194 0.71872 0.66135 0.0
C120 C 0.63923 0.57194 0.68526 0.0
C121 C 0.89793 0.60389 0.69097 0.0
O122 O 0.74499 0.65949 0.66644 0.0
O123 O 0.7944 0.75991 0.67095 0.0
O124 O 0.74235 0.59491 0.71518 0.0
O125 O 0.76626 0.69277 0.70378 0.0
Co126 Co 0.39974 0.24119 0.94044 0.0
O127 O 0.38541 0.14528 0.94132 0.0
O128 O 0.47792 0.19411 0.93179 0.0
C129 C 0.36242 0.26492 0.96742 0.0
O130 O 0.43497 0.33725 0.93834 0.0
Co131 Co 0.28118 0.34219 0.94304 0.0
O132 O 0.35285 0.41111 0.94434 0.0
C133 C 0.29913 0.26184 0.9113 0.0
C134 C 0.44586 0.13893 0.93523 0.0
C135 C 0.414 0.39764 0.94097 0.0
O136 O 0.35838 0.24484 0.91639 0.0
O137 O 0.25793 0.2943 0.92091 0.0
O138 O 0.42281 0.24203 0.96516 0.0
O139 O 0.325 0.26608 0.95373 0.0
Co140 Co 0.77548 0.89991 0.19048 0.0
O141 O 0.87142 0.88557 0.1913 0.0
O142 O 0.82243 0.9781 0.18183 0.0
C143 C 0.75204 0.86246 0.21746 0.0
O144 O 0.67936 0.93518 0.18845 0.0
Co145 Co 0.67452 0.78143 0.1931 0.0
O146 O 0.60559 0.85311 0.19449 0.0
C147 C 0.75469 0.79933 0.16134 0.0
C148 C 0.87768 0.94603 0.18523 0.0
C149 C 0.619 0.91425 0.19113 0.0
O150 O 0.77164 0.8586 0.16642 0.0
O151 O 0.72233 0.75816 0.17096 0.0
O152 O 0.77486 0.92286 0.21522 0.0
O153 O 0.75076 0.82514 0.20375 0.0
Co154 Co 0.11721 0.27486 0.44047 0.0
O155 O 0.13152 0.37076 0.44135 0.0
O156 O 0.03916 0.3219 0.43173 0.0
C157 C 0.1541 0.2513 0.46749 0.0
O158 O 0.08199 0.17878 0.43836 0.0
Co159 Co 0.23571 0.17386 0.44322 0.0
O160 O 0.16401 0.10498 0.44449 0.0
C161 C 0.21829 0.25398 0.41144 0.0
C162 C 0.07117 0.3771 0.4352 0.0
C163 C 0.10291 0.11842 0.44105 0.0
O164 O 0.15898 0.27108 0.41647 0.0
O165 O 0.25931 0.22152 0.42109 0.0
O166 O 0.09373 0.27417 0.46517 0.0
O167 O 0.19172 0.25005 0.45384 0.0
Co168 Co 0.73955 0.89909 0.56045 0.0
O169 O 0.64361 0.88473 0.55963 0.0
O170 O 0.69253 0.97734 0.56905 0.0
C171 C 0.76315 0.86137 0.53349 0.0
O172 O 0.8356 0.93439 0.5625 0.0
Co173 Co 0.84066 0.78059 0.5579 0.0
O174 O 0.9096 0.85225 0.55663 0.0
C175 C 0.76057 0.79895 0.58965 0.0
C176 C 0.63731 0.94523 0.56568 0.0
C177 C 0.89604 0.91342 0.55994 0.0
O178 O 0.74344 0.8581 0.58453 0.0
O179 O 0.79292 0.75763 0.58006 0.0
O180 O 0.74022 0.92177 0.53569 0.0
O181 O 0.76441 0.82419 0.54721 0.0
Co182 Co 0.11803 0.24043 0.81046 0.0
O183 O 0.13235 0.14449 0.80961 0.0
O184 O 0.03981 0.19348 0.81909 0.0
C185 C 0.15554 0.26406 0.78349 0.0
O186 O 0.08277 0.33652 0.81254 0.0
Co187 Co 0.23659 0.34135 0.8079 0.0
O188 O 0.16493 0.41035 0.80662 0.0
C189 C 0.21847 0.26118 0.83963 0.0
C190 C 0.07188 0.13824 0.8157 0.0
C191 C 0.10376 0.39691 0.80996 0.0
O192 O 0.15924 0.2442 0.83453 0.0
O193 O 0.25973 0.2935 0.83003 0.0
O194 O 0.09514 0.24119 0.78572 0.0
O195 O 0.19284 0.26522 0.7972 0.0
Co196 Co 0.77685 0.61765 0.06055 0.0
O197 O 0.87281 0.63193 0.05976 0.0
O198 O 0.8238 0.53944 0.0692 0.0
C199 C 0.75345 0.65513 0.03356 0.0
O200 O 0.68075 0.58239 0.06256 0.0
Co201 Co 0.67577 0.73613 0.0579 0.0
O202 O 0.60684 0.66448 0.05659 0.0
C203 C 0.75574 0.71817 0.08969 0.0
C204 C 0.87906 0.57147 0.06583 0.0
C205 C 0.62034 0.60334 0.05993 0.0
O206 O 0.77284 0.65893 0.08461 0.0
O207 O 0.72344 0.75937 0.08006 0.0
O208 O 0.77633 0.59473 0.0358 0.0
O209 O 0.75211 0.69243 0.04727 0.0
Co210 Co 0.39965 0.27627 0.31059 0.0
O211 O 0.38527 0.3722 0.30984 0.0
O212 O 0.47797 0.32318 0.3192 0.0
C213 C 0.3618 0.25304 0.28363 0.0
O214 O 0.43498 0.18017 0.31255 0.0
Co215 Co 0.28114 0.1753 0.308 0.0
O216 O 0.35281 0.10634 0.30663 0.0
C217 C 0.29949 0.25516 0.33979 0.0
C218 C 0.44582 0.37843 0.31586 0.0
C219 C 0.414 0.11979 0.30994 0.0
O220 O 0.35871 0.27219 0.33469 0.0
O221 O 0.25816 0.22297 0.33018 0.0
O222 O 0.42224 0.27584 0.28583 0.0
O223 O 0.32469 0.25163 0.29737 0.0
C224 C 0.24679 0.32617 0.12113 0.0
C225 C 0.25145 0.27798 0.10788 0.0
H226 H 0.24675 0.34485 0.14855 0.0
C227 C 0.25098 0.20957 0.1124 0.0
H228 H 0.24693 0.37918 0.11807 0.0
C229 C 0.24987 0.18984 0.12985 0.0
C230 C 0.25049 0.23818 0.14311 0.0
H231 H 0.25387 0.17119 0.10245 0.0
H232 H 0.25257 0.13691 0.13293 0.0
C233 C 0.24698 0.30646 0.13858 0.0
C234 C 0.82701 0.74743 0.37983 0.0
C235 C 0.77869 0.74949 0.39309 0.0
H236 H 0.84569 0.75018 0.35242 0.0
C237 C 0.71033 0.74713 0.38856 0.0
H238 H 0.88 0.74914 0.38291 0.0
C239 C 0.69062 0.74677 0.37111 0.0
C240 C 0.73889 0.75009 0.35786 0.0
H241 H 0.67192 0.74799 0.39852 0.0
H242 H 0.6376 0.74792 0.36805 0.0
C243 C 0.80729 0.74837 0.36238 0.0
C244 C 0.26949 0.19078 0.62121 0.0
C245 C 0.26589 0.23887 0.60793 0.0
H246 H 0.26867 0.17241 0.64864 0.0
C247 C 0.26755 0.30731 0.6124 0.0
H248 H 0.26841 0.13773 0.61818 0.0
C249 C 0.26869 0.32725 0.62984 0.0
C250 C 0.26689 0.2791 0.64313 0.0
H251 H 0.26554 0.34559 0.60242 0.0
H252 H 0.2669 0.38026 0.63288 0.0
C253 C 0.26934 0.2107 0.63865 0.0
C254 C 0.82675 0.76973 0.87119 0.0
C255 C 0.77857 0.76628 0.85792 0.0
H256 H 0.84527 0.76849 0.89861 0.0
C257 C 0.71014 0.76771 0.86242 0.0
H258 H 0.87978 0.7688 0.86815 0.0
C259 C 0.6903 0.76852 0.87986 0.0
C260 C 0.73854 0.76661 0.89314 0.0
H261 H 0.6718 0.76578 0.85245 0.0
H262 H 0.6373 0.76659 0.88291 0.0
C263 C 0.80692 0.76924 0.88863 0.0
C264 C 0.74644 0.82717 0.62118 0.0
C265 C 0.74837 0.77888 0.60791 0.0
H266 H 0.74942 0.84581 0.64858 0.0
C267 C 0.74599 0.71053 0.61243 0.0
H268 H 0.74818 0.88015 0.61811 0.0
C269 C 0.74575 0.6908 0.62987 0.0
C270 C 0.7492 0.73904 0.64314 0.0
H271 H 0.74676 0.67214 0.60246 0.0
H272 H 0.74688 0.63779 0.63293 0.0
C273 C 0.7475 0.80743 0.63862 0.0
C274 C 0.21036 0.24731 0.88859 0.0
C275 C 0.27878 0.24922 0.89308 0.0
H276 H 0.13749 0.24802 0.8681 0.0
C277 C 0.32697 0.24617 0.8798 0.0
H278 H 0.17203 0.24891 0.89857 0.0
C279 C 0.30713 0.24662 0.86236 0.0
C280 C 0.23872 0.24881 0.85786 0.0
H281 H 0.38 0.24748 0.88284 0.0
H282 H 0.34546 0.2477 0.85238 0.0
C283 C 0.19051 0.24645 0.87115 0.0
C284 C 0.77006 0.80697 0.1124 0.0
C285 C 0.76795 0.73855 0.10793 0.0
H286 H 0.76906 0.87999 0.13285 0.0
C287 C 0.77024 0.69045 0.12123 0.0
H288 H 0.76902 0.84523 0.1024 0.0
C289 C 0.76929 0.71043 0.13866 0.0
C290 C 0.76733 0.77887 0.14313 0.0
H291 H 0.76873 0.63742 0.1182 0.0
H292 H 0.76766 0.67217 0.14865 0.0
C293 C 0.7704 0.82695 0.12983 0.0
C294 C 0.19092 0.27059 0.37994 0.0
C295 C 0.23896 0.26658 0.39324 0.0
H296 H 0.17263 0.27001 0.35251 0.0
C297 C 0.30744 0.26765 0.38878 0.0
H298 H 0.13786 0.26997 0.38295 0.0
C299 C 0.32744 0.26867 0.37135 0.0
C300 C 0.2793 0.26734 0.35804 0.0
H301 H 0.34569 0.26529 0.39877 0.0
H302 H 0.38045 0.26644 0.36832 0.0
C303 C 0.2109 0.27032 0.36251 0.0
C304 C 0.34006 0.22988 0.23515 0.0
C305 C 0.29039 0.17999 0.23447 0.0
H306 H 0.40288 0.29092 0.25134 0.0
C307 C 0.26522 0.15345 0.25005 0.0
H308 H 0.36056 0.25099 0.22333 0.0
C309 C 0.2881 0.17763 0.26606 0.0
C310 C 0.33804 0.22725 0.26674 0.0
H311 H 0.22684 0.11504 0.24987 0.0
H312 H 0.26709 0.15703 0.27788 0.0
C313 C 0.36444 0.25256 0.25116 0.0
C314 C 0.86352 0.7651 0.49999 0.0
C315 C 0.83715 0.79029 0.48439 0.0
H316 H 0.85951 0.76682 0.52781 0.0
C317 C 0.78719 0.83993 0.48503 0.0
H318 H 0.902 0.72673 0.49983 0.0
C319 C 0.76421 0.86421 0.50102 0.0
C320 C 0.78931 0.83774 0.51662 0.0
H321 H 0.7662 0.86046 0.47319 0.0
H322 H 0.72577 0.90262 0.50118 0.0
C323 C 0.83905 0.78788 0.51598 0.0
C324 C 0.2516 0.36443 0.74999 0.0
C325 C 0.22623 0.33818 0.73439 0.0
H326 H 0.25014 0.36028 0.77782 0.0
C327 C 0.17652 0.28833 0.73504 0.0
H328 H 0.29002 0.40281 0.74983 0.0
C329 C 0.15236 0.26533 0.75104 0.0
C330 C 0.17902 0.29028 0.76663 0.0
H331 H 0.15586 0.26744 0.72321 0.0
H332 H 0.1139 0.22698 0.7512 0.0
C333 C 0.22894 0.33993 0.76598 0.0
C334 C 0.67769 0.72853 0.016 0.0
C335 C 0.72737 0.6786 0.01668 0.0
H336 H 0.61485 0.78959 0.99982 0.0
C337 C 0.75246 0.65195 0.0011 0.0
H338 H 0.65723 0.74973 0.02783 0.0
C339 C 0.72955 0.6761 0.98509 0.0
C340 C 0.67965 0.7258 0.98442 0.0
H341 H 0.79085 0.6135 0.00128 0.0
H342 H 0.75053 0.65544 0.97326 0.0
C343 C 0.65327 0.75118 1.0 0.0
C344 C 0.3417 0.28841 0.0159 0.0
C345 C 0.29196 0.33825 0.01664 0.0
H346 H 0.40425 0.22732 0.99964 0.0
C347 C 0.26648 0.36478 0.00108 0.0
H348 H 0.36244 0.26732 0.0277 0.0
C349 C 0.28906 0.34053 0.98505 0.0
C350 C 0.339 0.29089 0.98432 0.0
H351 H 0.22804 0.40317 0.00131 0.0
H352 H 0.26779 0.36108 0.97325 0.0
C353 C 0.36578 0.26568 0.99987 0.0
C354 C 0.72883 0.84119 0.26593 0.0
C355 C 0.67894 0.79154 0.26663 0.0
H356 H 0.78989 0.90385 0.24971 0.0
C357 C 0.65229 0.76633 0.25106 0.0
H358 H 0.75001 0.86173 0.27775 0.0
C359 C 0.67646 0.78908 0.23504 0.0
C360 C 0.72614 0.83894 0.23434 0.0
H361 H 0.61386 0.72796 0.25126 0.0
H362 H 0.65581 0.76801 0.22323 0.0
C363 C 0.75149 0.86545 0.24992 0.0
C364 C 0.15047 0.25071 0.49994 0.0
C365 C 0.17727 0.22535 0.4844 0.0
H366 H 0.1537 0.24923 0.52778 0.0
C367 C 0.22709 0.1756 0.48516 0.0
H368 H 0.11208 0.28915 0.4997 0.0
C369 C 0.24955 0.15142 0.5012 0.0
C370 C 0.22409 0.1781 0.51674 0.0
H371 H 0.24838 0.15494 0.47337 0.0
H372 H 0.28792 0.11295 0.50145 0.0
C373 C 0.17444 0.22803 0.51599 0.0
C374 C 0.7661 0.65178 0.74991 0.0
C375 C 0.79123 0.67861 0.73435 0.0
H376 H 0.76788 0.65498 0.77774 0.0
C377 C 0.84088 0.7285 0.73509 0.0
H378 H 0.72774 0.61334 0.74968 0.0
C379 C 0.8652 0.75098 0.75112 0.0
C380 C 0.83874 0.72546 0.76667 0.0
H381 H 0.86136 0.74981 0.72328 0.0
H382 H 0.90358 0.78939 0.75135 0.0
C383 C 0.7889 0.67576 0.76594 0.0
C384 C 0.06647 0.96978 0.18319 0.0
C385 C 0.07236 0.04001 0.18354 0.0
H386 H 1.00032 0.88499 0.18363 0.0
C387 C 0.0136 0.079 0.18328 0.0
H388 H 0.11076 0.93834 0.18345 0.0
C389 C 0.95033 0.04843 0.18306 0.0
C390 C 0.94444 0.97821 0.18347 0.0
H391 H 0.01648 0.13323 0.1835 0.0
H392 H 0.90603 0.07988 0.18321 0.0
C393 C 1.0032 0.93922 0.18335 0.0
C394 C 0.96878 0.44986 0.43301 0.0
C395 C 0.03902 0.44388 0.43344 0.0
H396 H 0.88398 0.5161 0.43345 0.0
C397 C 0.07803 0.50258 0.43334 0.0
H398 H 0.93732 0.4056 0.43314 0.0
C399 C 0.04748 0.56588 0.4332 0.0
C400 C 0.97724 0.57185 0.43352 0.0
H401 H 0.13226 0.49963 0.43364 0.0
H402 H 0.07894 0.61013 0.43348 0.0
C403 C 0.93822 0.51315 0.43324 0.0
C404 C 0.45045 0.54818 0.68319 0.0
C405 C 0.44456 0.47795 0.68355 0.0
H406 H 0.5166 0.63297 0.68364 0.0
C407 C 0.50332 0.43896 0.68331 0.0
H408 H 0.40616 0.57962 0.68344 0.0
C409 C 0.56659 0.46953 0.6831 0.0
C410 C 0.57248 0.53975 0.68351 0.0
H411 H 0.50044 0.38473 0.68354 0.0
H412 H 0.61089 0.43808 0.68328 0.0
C413 C 0.51372 0.57874 0.68336 0.0
C414 C 0.43902 0.01343 0.93335 0.0
C415 C 0.47803 0.07213 0.93349 0.0
H416 H 0.4381 0.90589 0.93344 0.0
C417 C 0.54827 0.06616 0.93311 0.0
H418 H 0.38478 0.01638 0.93361 0.0
C419 C 0.57883 1.00286 0.93333 0.0
C420 C 0.53981 0.94416 0.93357 0.0
H421 H 0.57974 0.11041 0.93328 0.0
H422 H 0.63306 0.99991 0.93358 0.0
C423 C 0.46957 0.95013 0.9332 0.0
C424 C 0.01503 0.43841 0.06778 0.0
C425 C 0.07377 0.47737 0.06763 0.0
H426 H 0.90746 0.43759 0.06772 0.0
C427 C 0.06785 0.5476 0.06806 0.0
H428 H 0.01793 0.38418 0.06749 0.0
C429 C 1.00456 0.5782 0.06786 0.0
C430 C 0.94582 0.53925 0.06762 0.0
H431 H 0.11213 0.57902 0.06789 0.0
H432 H 1.00166 0.63243 0.06764 0.0
C433 C 0.95174 0.46901 0.06796 0.0
C434 C 0.46956 0.56718 0.31802 0.0
C435 C 0.53979 0.57309 0.31755 0.0
H436 H 0.38477 0.501 0.31769 0.0
C437 C 0.57882 0.51436 0.31768 0.0
H438 H 0.43809 0.61145 0.31786 0.0
C439 C 0.54827 0.45109 0.3179 0.0
C440 C 0.47803 0.44517 0.31762 0.0
H441 H 0.63305 0.51726 0.31736 0.0
H442 H 0.57974 0.40681 0.31765 0.0
C443 C 0.43901 0.50391 0.31787 0.0
C444 C 0.56458 0.04762 0.56787 0.0
C445 C 0.57053 0.97739 0.56748 0.0
H446 H 0.49835 0.13241 0.56748 0.0
C447 C 0.51182 0.93839 0.56771 0.0
H448 H 0.60884 0.07907 0.56763 0.0
C449 C 0.44852 0.96896 0.56795 0.0
C450 C 0.44257 0.03919 0.56758 0.0
H451 H 0.51475 0.88417 0.56745 0.0
H452 H 0.40425 0.93752 0.56777 0.0
C453 C 0.50128 0.07818 0.56773 0.0
C454 C 0.07874 0.01276 0.8177 0.0
C455 C 0.03972 0.07149 0.81749 0.0
H456 H 0.07964 0.90521 0.81773 0.0
C457 C 0.96949 0.06559 0.8179 0.0
H458 H 0.13297 0.01565 0.81743 0.0
C459 C 0.93893 1.00232 0.81775 0.0
C460 C 0.97794 0.94358 0.81758 0.0
H461 H 0.93802 0.10986 0.81768 0.0
H462 H 0.88469 0.99942 0.81751 0.0
C463 C 0.04818 0.94949 0.81793 0.0
C464 C 0.57458 0.03239 0.1903 0.0
C465 C 0.56249 0.96296 0.19049 0.0
H466 H 0.53254 0.13111 0.19045 0.0
C467 C 0.49555 0.94041 0.19048 0.0
H468 H 0.62536 0.05165 0.19032 0.0
C469 C 0.44216 0.98603 0.19044 0.0
C470 C 0.45426 0.05545 0.19058 0.0
H471 H 0.48419 0.88731 0.19055 0.0
H472 H 0.39139 0.96675 0.19057 0.0
C473 C 0.52119 0.07801 0.19043 0.0
C474 C 0.03122 0.94164 0.44032 0.0
C475 C 0.96178 0.95377 0.4404 0.0
H476 H 0.12993 0.98361 0.44052 0.0
C477 C 0.93919 0.0207 0.44017 0.0
H478 H 0.05051 0.89087 0.4405 0.0
C479 C 0.9848 0.07406 0.44006 0.0
C480 C 0.05423 0.06193 0.44034 0.0
H481 H 0.88607 0.03207 0.44014 0.0
H482 H 0.9655 0.12483 0.44005 0.0
C483 C 0.07682 0.995 0.44038 0.0
C484 C 0.07476 0.53212 0.6902 0.0
C485 C 0.06264 0.4627 0.69036 0.0
H486 H 0.03275 0.63085 0.69033 0.0
C487 C 0.9957 0.44015 0.69019 0.0
H488 H 0.12554 0.55137 0.69034 0.0
C489 C 0.94233 0.48579 0.69007 0.0
C490 C 0.95444 0.5552 0.69028 0.0
H491 H 0.98433 0.38706 0.69022 0.0
H492 H 0.89156 0.46653 0.6901 0.0
C493 C 0.02138 0.57775 0.69025 0.0
C494 C 0.53213 0.44196 0.94011 0.0
C495 C 0.4627 0.45411 0.94029 0.0
H496 H 0.63087 0.48391 0.94028 0.0
C497 C 0.44012 0.52105 0.94024 0.0
H498 H 0.55141 0.39119 0.94016 0.0
C499 C 0.48575 0.57439 0.9402 0.0
C500 C 0.55518 0.56225 0.94037 0.0
H501 H 0.38701 0.53244 0.9403 0.0
H502 H 0.46646 0.62517 0.94031 0.0
C503 C 0.57776 0.49531 0.94023 0.0
C504 C 0.57605 0.48521 0.06072 0.0
C505 C 0.56389 0.55463 0.06063 0.0
H506 H 0.53412 0.38649 0.06051 0.0
C507 C 0.49693 0.57718 0.06079 0.0
H508 H 0.62684 0.46595 0.06058 0.0
C509 C 0.44358 0.53155 0.06087 0.0
C510 C 0.45574 0.46213 0.06061 0.0
H511 H 0.48552 0.63028 0.0608 0.0
H512 H 0.39279 0.55081 0.06085 0.0
C513 C 0.52271 0.43958 0.06063 0.0
C514 C 0.44012 0.99636 0.31075 0.0
C515 C 0.46271 0.06328 0.31062 0.0
H516 H 0.46643 0.89221 0.31078 0.0
C517 C 0.53215 0.07534 0.31077 0.0
H518 H 0.38701 0.98503 0.31072 0.0
C519 C 0.57776 0.02194 0.31069 0.0
C520 C 0.55517 0.95502 0.31063 0.0
H521 H 0.55144 0.1261 0.31066 0.0
H522 H 0.63087 0.03328 0.31061 0.0
C523 C 0.48573 0.94297 0.31083 0.0
C524 C 0.9403 0.03156 0.56085 0.0
C525 C 0.95248 0.96214 0.56069 0.0
H526 H 0.98223 0.13028 0.56074 0.0
C527 C 0.01944 0.93959 0.56087 0.0
H528 H 0.88951 0.05081 0.56071 0.0
C529 C 0.07277 0.98522 0.561 0.0
C530 C 0.0606 0.05464 0.5608 0.0
H531 H 0.03085 0.88649 0.56083 0.0
H532 H 0.12356 0.96596 0.56097 0.0
C533 C 0.99364 0.07719 0.56082 0.0
C534 C 0.94001 0.49473 0.81072 0.0
C535 C 0.9626 0.56165 0.81069 0.0
H536 H 0.96634 0.39058 0.81065 0.0
C537 C 0.03203 0.57372 0.81093 0.0
H538 H 0.8869 0.48339 0.81061 0.0
C539 C 0.07765 0.52033 0.81084 0.0
C540 C 0.05506 0.45341 0.81068 0.0
H541 H 0.05132 0.62448 0.8109 0.0
H542 H 0.13076 0.53166 0.81084 0.0
C543 C 0.98563 0.44134 0.81079 0.0
loop_
_geom_bond_atom_site_label_1
_geom_bond_atom_site_label_2
_geom_bond_distance
_geom_bond_site_symmetry_2
_ccdc_geom_bond_type
Co0 O1 2.216 . S
Co0 O2 2.091 . S
Co0 O4 2.004 . S
Co0 O10 2.021 . S
Co0 O12 2.137 . S
Co0 O13 2.244 . S
O1 Co0 2.216 . S
O1 C8 1.247 . S
O2 Co0 2.091 . S
O2 C8 1.261 . S
C3 O12 1.247 . S
C3 O13 1.272 . S
O4 Co0 2.004 . S
O4 C9 1.259 . S
Co5 O6 2.061 . S
Co5 O11 2.052 . S
Co5 O13 2.135 . S
O6 Co5 2.061 . S
O6 C9 1.235 . S
C7 O10 1.238 . S
C7 O11 1.241 . S
C8 O1 1.247 . S
C8 O2 1.261 . S
C9 O4 1.259 . S
C9 O6 1.235 . S
O10 Co0 2.021 . S
O10 C7 1.238 . S
O11 Co5 2.052 . S
O11 C7 1.241 . S
O12 Co0 2.137 . S
O12 C3 1.247 . S
O13 Co0 2.244 . S
O13 C3 1.272 . S
O13 Co5 2.135 . S
Co14 O15 2.216 . S
Co14 O16 2.091 . S
Co14 O18 2.004 . S
Co14 O24 2.021 . S
Co14 O26 2.137 . S
Co14 O27 2.244 . S
O15 Co14 2.216 . S
O15 C22 1.247 . S
O16 Co14 2.091 . S
O16 C22 1.261 . S
C17 O26 1.247 . S
C17 O27 1.272 . S
O18 Co14 2.004 . S
O18 C23 1.259 . S
Co19 O20 2.061 . S
Co19 O25 2.052 . S
Co19 O27 2.135 . S
O20 Co19 2.061 . S
O20 C23 1.235 . S
C21 O24 1.238 . S
C21 O25 1.241 . S
C22 O15 1.247 . S
C22 O16 1.261 . S
C23 O18 1.259 . S
C23 O20 1.235 . S
O24 Co14 2.021 . S
O24 C21 1.238 . S
O25 Co19 2.052 . S
O25 C21 1.241 . S
O26 Co14 2.137 . S
O26 C17 1.247 . S
O27 Co14 2.244 . S
O27 C17 1.272 . S
O27 Co19 2.135 . S
Co28 O29 2.216 . S
Co28 O30 2.091 . S
Co28 O32 2.004 . S
Co28 O38 2.021 . S
Co28 O40 2.137 . S
Co28 O41 2.244 . S
O29 Co28 2.216 . S
O29 C36 1.247 . S
O30 Co28 2.091 . S
O30 C36 1.261 . S
C31 O40 1.247 . S
C31 O41 1.272 . S
O32 Co28 2.004 . S
O32 C37 1.259 . S
Co33 O34 2.061 . S
Co33 O39 2.052 . S
Co33 O41 2.135 . S
O34 Co33 2.061 . S
O34 C37 1.235 . S
C35 O38 1.238 . S
C35 O39 1.241 . S
C36 O29 1.247 . S
C36 O30 1.261 . S
C37 O32 1.259 . S
C37 O34 1.235 . S
O38 Co28 2.021 . S
O38 C35 1.238 . S
O39 Co33 2.052 . S
O39 C35 1.241 . S
O40 Co28 2.137 . S
O40 C31 1.247 . S
O41 Co28 2.244 . S
O41 C31 1.272 . S
O41 Co33 2.135 . S
Co42 O43 2.216 . S
Co42 O44 2.091 . S
Co42 O46 2.004 . S
Co42 O52 2.021 . S
Co42 O54 2.137 . S
Co42 O55 2.244 . S
O43 Co42 2.216 . S
O43 C50 1.247 . S
O44 Co42 2.091 . S
O44 C50 1.261 . S
C45 O54 1.247 . S
C45 O55 1.272 . S
O46 Co42 2.004 . S
O46 C51 1.259 . S
Co47 O48 2.061 . S
Co47 O53 2.052 . S
Co47 O55 2.135 . S
O48 Co47 2.061 . S
O48 C51 1.235 . S
C49 O52 1.238 . S
C49 O53 1.241 . S
C50 O43 1.247 . S
C50 O44 1.261 . S
C51 O46 1.259 . S
C51 O48 1.235 . S
O52 Co42 2.021 . S
O52 C49 1.238 . S
O53 Co47 2.052 . S
O53 C49 1.241 . S
O54 Co42 2.137 . S
O54 C45 1.247 . S
O55 Co42 2.244 . S
O55 C45 1.272 . S
O55 Co47 2.135 . S
Co56 O57 2.216 . S
Co56 O58 2.091 . S
Co56 O60 2.004 . S
Co56 O66 2.021 . S
Co56 O68 2.137 . S
Co56 O69 2.244 . S
O57 Co56 2.216 . S
O57 C64 1.247 . S
O58 Co56 2.091 . S
O58 C64 1.261 . S
C59 O68 1.247 . S
C59 O69 1.272 . S
O60 Co56 2.004 . S
O60 C65 1.259 . S
Co61 O62 2.061 . S
Co61 O67 2.052 . S
Co61 O69 2.135 . S
O62 Co61 2.061 . S
O62 C65 1.235 . S
C63 O66 1.238 . S
C63 O67 1.241 . S
C64 O57 1.247 . S
C64 O58 1.261 . S
C65 O60 1.259 . S
C65 O62 1.235 . S
O66 Co56 2.021 . S
O66 C63 1.238 . S
O67 Co61 2.052 . S
O67 C63 1.241 . S
O68 Co56 2.137 . S
O68 C59 1.247 . S
O69 Co56 2.244 . S
O69 C59 1.272 . S
O69 Co61 2.135 . S
Co70 O71 2.216 . S
Co70 O72 2.091 . S
Co70 O74 2.004 . S
Co70 O80 2.021 . S
Co70 O82 2.137 . S
Co70 O83 2.244 . S
O71 Co70 2.216 . S
O71 C78 1.247 . S
O72 Co70 2.091 . S
O72 C78 1.261 . S
C73 O82 1.247 . S
C73 O83 1.272 . S
O74 Co70 2.004 . S
O74 C79 1.259 . S
Co75 O76 2.061 . S
Co75 O81 2.052 . S
Co75 O83 2.135 . S
O76 Co75 2.061 . S
O76 C79 1.235 . S
C77 O80 1.238 . S
C77 O81 1.241 . S
C78 O71 1.247 . S
C78 O72 1.261 . S
C79 O74 1.259 . S
C79 O76 1.235 . S
O80 Co70 2.021 . S
O80 C77 1.238 . S
O81 Co75 2.052 . S
O81 C77 1.241 . S
O82 Co70 2.137 . S
O82 C73 1.247 . S
O83 Co70 2.244 . S
O83 C73 1.272 . S
O83 Co75 2.135 . S
Co84 O85 2.216 . S
Co84 O86 2.091 . S
Co84 O88 2.004 . S
Co84 O94 2.021 . S
Co84 O96 2.137 . S
Co84 O97 2.244 . S
O85 Co84 2.216 . S
O85 C92 1.247 . S
O86 Co84 2.091 . S
O86 C92 1.261 . S
C87 O96 1.247 . S
C87 O97 1.272 . S
O88 Co84 2.004 . S
O88 C93 1.259 . S
Co89 O90 2.061 . S
Co89 O95 2.052 . S
Co89 O97 2.135 . S
O90 Co89 2.061 . S
O90 C93 1.235 . S
C91 O94 1.238 . S
C91 O95 1.241 . S
C92 O85 1.247 . S
C92 O86 1.261 . S
C93 O88 1.259 . S
C93 O90 1.235 . S
O94 Co84 2.021 . S
O94 C91 1.238 . S
O95 Co89 2.052 . S
O95 C91 1.241 . S
O96 Co84 2.137 . S
O96 C87 1.247 . S
O97 Co84 2.244 . S
O97 C87 1.272 . S
O97 Co89 2.135 . S
Co98 O99 2.216 . S
Co98 O100 2.091 . S
Co98 O102 2.004 . S
Co98 O108 2.021 . S
Co98 O110 2.137 . S
Co98 O111 2.244 . S
O99 Co98 2.216 . S
O99 C106 1.247 . S
O100 Co98 2.091 . S
O100 C106 1.261 . S
C101 O110 1.247 . S
C101 O111 1.272 . S
O102 Co98 2.004 . S
O102 C107 1.259 . S
Co103 O104 2.061 . S
Co103 O109 2.052 . S
Co103 O111 2.135 . S
O104 Co103 2.061 . S
O104 C107 1.235 . S
C105 O108 1.238 . S
C105 O109 1.241 . S
C106 O99 1.247 . S
C106 O100 1.261 . S
C107 O102 1.259 . S
C107 O104 1.235 . S
O108 Co98 2.021 . S
O108 C105 1.238 . S
O109 Co103 2.052 . S
O109 C105 1.241 . S
O110 Co98 2.137 . S
O110 C101 1.247 . S
O111 Co98 2.244 . S
O111 C101 1.272 . S
O111 Co103 2.135 . S
Co112 O113 2.216 . S
Co112 O114 2.091 . S
Co112 O116 2.004 . S
Co112 O122 2.021 . S
Co112 O124 2.137 . S
Co112 O125 2.244 . S
O113 Co112 2.216 . S
O113 C120 1.247 . S
O114 Co112 2.091 . S
O114 C120 1.261 . S
C115 O124 1.247 . S
C115 O125 1.272 . S
O116 Co112 2.004 . S
O116 C121 1.259 . S
Co117 O118 2.061 . S
Co117 O123 2.052 . S
Co117 O125 2.135 . S
O118 Co117 2.061 . S
O118 C121 1.235 . S
C119 O122 1.238 . S
C119 O123 1.241 . S
C120 O113 1.247 . S
C120 O114 1.261 . S
C121 O116 1.259 . S
C121 O118 1.235 . S
O122 Co112 2.021 . S
O122 C119 1.238 . S
O123 Co117 2.052 . S
O123 C119 1.241 . S
O124 Co112 2.137 . S
O124 C115 1.247 . S
O125 Co112 2.244 . S
O125 C115 1.272 . S
O125 Co117 2.135 . S
Co126 O127 2.216 . S
Co126 O128 2.091 . S
Co126 O130 2.004 . S
Co126 O136 2.021 . S
Co126 O138 2.137 . S
Co126 O139 2.244 . S
O127 Co126 2.216 . S
O127 C134 1.247 . S
O128 Co126 2.091 . S
O128 C134 1.261 . S
C129 O138 1.247 . S
C129 O139 1.272 . S
O130 Co126 2.004 . S
O130 C135 1.259 . S
Co131 O132 2.061 . S
Co131 O137 2.052 . S
Co131 O139 2.135 . S
O132 Co131 2.061 . S
O132 C135 1.235 . S
C133 O136 1.238 . S
C133 O137 1.241 . S
C134 O127 1.247 . S
C134 O128 1.261 . S
C135 O130 1.259 . S
C135 O132 1.235 . S
O136 Co126 2.021 . S
O136 C133 1.238 . S
O137 Co131 2.052 . S
O137 C133 1.241 . S
O138 Co126 2.137 . S
O138 C129 1.247 . S
O139 Co126 2.244 . S
O139 C129 1.272 . S
O139 Co131 2.135 . S
Co140 O141 2.216 . S
Co140 O142 2.091 . S
Co140 O144 2.004 . S
Co140 O150 2.021 . S
Co140 O152 2.137 . S
Co140 O153 2.244 . S
O141 Co140 2.216 . S
O141 C148 1.247 . S
O142 Co140 2.091 . S
O142 C148 1.261 . S
C143 O152 1.247 . S
C143 O153 1.272 . S
O144 Co140 2.004 . S
O144 C149 1.259 . S
Co145 O146 2.061 . S
Co145 O151 2.052 . S
Co145 O153 2.135 . S
O146 Co145 2.061 . S
O146 C149 1.235 . S
C147 O150 1.238 . S
C147 O151 1.241 . S
C148 O141 1.247 . S
C148 O142 1.261 . S
C149 O144 1.259 . S
C149 O146 1.235 . S
O150 Co140 2.021 . S
O150 C147 1.238 . S
O151 Co145 2.052 . S
O151 C147 1.241 . S
O152 Co140 2.137 . S
O152 C143 1.247 . S
O153 Co140 2.244 . S
O153 C143 1.272 . S
O153 Co145 2.135 . S
Co154 O155 2.216 . S
Co154 O156 2.091 . S
Co154 O158 2.004 . S
Co154 O164 2.021 . S
Co154 O166 2.137 . S
Co154 O167 2.244 . S
O155 Co154 2.216 . S
O155 C162 1.247 . S
O156 Co154 2.091 . S
O156 C162 1.261 . S
C157 O166 1.247 . S
C157 O167 1.272 . S
O158 Co154 2.004 . S
O158 C163 1.259 . S
Co159 O160 2.061 . S
Co159 O165 2.052 . S
Co159 O167 2.135 . S
O160 Co159 2.061 . S
O160 C163 1.235 . S
C161 O164 1.238 . S
C161 O165 1.241 . S
C162 O155 1.247 . S
C162 O156 1.261 . S
C163 O158 1.259 . S
C163 O160 1.235 . S
O164 Co154 2.021 . S
O164 C161 1.238 . S
O165 Co159 2.052 . S
O165 C161 1.241 . S
O166 Co154 2.137 . S
O166 C157 1.247 . S
O167 Co154 2.244 . S
O167 C157 1.272 . S
O167 Co159 2.135 . S
Co168 O169 2.216 . S
Co168 O170 2.091 . S
Co168 O172 2.004 . S
Co168 O178 2.021 . S
Co168 O180 2.137 . S
Co168 O181 2.244 . S
O169 Co168 2.216 . S
O169 C176 1.247 . S
O170 Co168 2.091 . S
O170 C176 1.261 . S
C171 O180 1.247 . S
C171 O181 1.272 . S
O172 Co168 2.004 . S
O172 C177 1.259 . S
Co173 O174 2.061 . S
Co173 O179 2.052 . S
Co173 O181 2.135 . S
O174 Co173 2.061 . S
O174 C177 1.235 . S
C175 O178 1.238 . S
C175 O179 1.241 . S
C176 O169 1.247 . S
C176 O170 1.261 . S
C177 O172 1.259 . S
C177 O174 1.235 . S
O178 Co168 2.021 . S
O178 C175 1.238 . S
O179 Co173 2.052 . S
O179 C175 1.241 . S
O180 Co168 2.137 . S
O180 C171 1.247 . S
O181 Co168 2.244 . S
O181 C171 1.272 . S
O181 Co173 2.135 . S
Co182 O183 2.216 . S
Co182 O184 2.091 . S
Co182 O186 2.004 . S
Co182 O192 2.021 . S
Co182 O194 2.137 . S
Co182 O195 2.244 . S
O183 Co182 2.216 . S
O183 C190 1.247 . S
O184 Co182 2.091 . S
O184 C190 1.261 . S
C185 O194 1.247 . S
C185 O195 1.272 . S
O186 Co182 2.004 . S
O186 C191 1.259 . S
Co187 O188 2.061 . S
Co187 O193 2.052 . S
Co187 O195 2.135 . S
O188 Co187 2.061 . S
O188 C191 1.235 . S
C189 O192 1.238 . S
C189 O193 1.241 . S
C190 O183 1.247 . S
C190 O184 1.261 . S
C191 O186 1.259 . S
C191 O188 1.235 . S
O192 Co182 2.021 . S
O192 C189 1.238 . S
O193 Co187 2.052 . S
O193 C189 1.241 . S
O194 Co182 2.137 . S
O194 C185 1.247 . S
O195 Co182 2.244 . S
O195 C185 1.272 . S
O195 Co187 2.135 . S
Co196 O197 2.216 . S
Co196 O198 2.091 . S
Co196 O200 2.004 . S
Co196 O206 2.021 . S
Co196 O208 2.137 . S
Co196 O209 2.244 . S
O197 Co196 2.216 . S
O197 C204 1.247 . S
O198 Co196 2.091 . S
O198 C204 1.261 . S
C199 O208 1.247 . S
C199 O209 1.272 . S
O200 Co196 2.004 . S
O200 C205 1.259 . S
Co201 O202 2.061 . S
Co201 O207 2.052 . S
Co201 O209 2.135 . S
O202 Co201 2.061 . S
O202 C205 1.235 . S
C203 O206 1.238 . S
C203 O207 1.241 . S
C204 O197 1.247 . S
C204 O198 1.261 . S
C205 O200 1.259 . S
C205 O202 1.235 . S
O206 Co196 2.021 . S
O206 C203 1.238 . S
O207 Co201 2.052 . S
O207 C203 1.241 . S
O208 Co196 2.137 . S
O208 C199 1.247 . S
O209 Co196 2.244 . S
O209 C199 1.272 . S
O209 Co201 2.135 . S
Co210 O211 2.216 . S
Co210 O212 2.091 . S
Co210 O214 2.004 . S
Co210 O220 2.021 . S
Co210 O222 2.137 . S
Co210 O223 2.244 . S
O211 Co210 2.216 . S
O211 C218 1.247 . S
O212 Co210 2.091 . S
O212 C218 1.261 . S
C213 O222 1.247 . S
C213 O223 1.272 . S
O214 Co210 2.004 . S
O214 C219 1.259 . S
Co215 O216 2.061 . S
Co215 O221 2.052 . S
Co215 O223 2.135 . S
O216 Co215 2.061 . S
O216 C219 1.235 . S
C217 O220 1.238 . S
C217 O221 1.241 . S
C218 O211 1.247 . S
C218 O212 1.261 . S
C219 O214 1.259 . S
C219 O216 1.235 . S
O220 Co210 2.021 . S
O220 C217 1.238 . S
O221 Co215 2.052 . S
O221 C217 1.241 . S
O222 Co210 2.137 . S
O222 C213 1.247 . S
O223 Co210 2.244 . S
O223 C213 1.272 . S
O223 Co215 2.135 . S
C224 C225 1.387 . S
C224 H228 0.950 . S
C224 C233 1.390 . S
C225 C224 1.387 . S
C225 C227 1.387 . S
H226 C233 0.950 . S
C227 C225 1.387 . S
C227 C229 1.390 . S
C227 H231 0.950 . S
H228 C224 0.950 . S
C229 C227 1.390 . S
C229 C230 1.387 . S
C229 H232 0.950 . S
C230 C229 1.387 . S
C230 C233 1.387 . S
H231 C227 0.950 . S
H232 C229 0.950 . S
C233 C224 1.390 . S
C233 H226 0.950 . S
C233 C230 1.387 . S
C234 C235 1.387 . S
C234 H238 0.950 . S
C234 C243 1.390 . S
C235 C234 1.387 . S
C235 C237 1.387 . S
H236 C243 0.950 . S
C237 C235 1.387 . S
C237 C239 1.390 . S
C237 H241 0.950 . S
H238 C234 0.950 . S
C239 C237 1.390 . S
C239 C240 1.387 . S
C239 H242 0.950 . S
C240 C239 1.387 . S
C240 C243 1.387 . S
H241 C237 0.950 . S
H242 C239 0.950 . S
C243 C234 1.390 . S
C243 H236 0.950 . S
C243 C240 1.387 . S
C244 C245 1.387 . S
C244 H248 0.950 . S
C244 C253 1.390 . S
C245 C244 1.387 . S
C245 C247 1.387 . S
H246 C253 0.950 . S
C247 C245 1.387 . S
C247 C249 1.390 . S
C247 H251 0.950 . S
H248 C244 0.950 . S
C249 C247 1.390 . S
C249 C250 1.387 . S
C249 H252 0.950 . S
C250 C249 1.387 . S
C250 C253 1.387 . S
H251 C247 0.950 . S
H252 C249 0.950 . S
C253 C244 1.390 . S
C253 H246 0.950 . S
C253 C250 1.387 . S
C254 C255 1.387 . S
C254 H258 0.950 . S
C254 C263 1.390 . S
C255 C254 1.387 . S
C255 C257 1.387 . S
H256 C263 0.950 . S
C257 C255 1.387 . S
C257 C259 1.390 . S
C257 H261 0.950 . S
H258 C254 0.950 . S
C259 C257 1.390 . S
C259 C260 1.387 . S
C259 H262 0.950 . S
C260 C259 1.387 . S
C260 C263 1.387 . S
H261 C257 0.950 . S
H262 C259 0.950 . S
C263 C254 1.390 . S
C263 H256 0.950 . S
C263 C260 1.387 . S
C264 C265 1.387 . S
C264 H268 0.950 . S
C264 C273 1.390 . S
C265 C264 1.387 . S
C265 C267 1.387 . S
H266 C273 0.950 . S
C267 C265 1.387 . S
C267 C269 1.390 . S
C267 H271 0.950 . S
H268 C264 0.950 . S
C269 C267 1.390 . S
C269 C270 1.387 . S
C269 H272 0.950 . S
C270 C269 1.387 . S
C270 C273 1.387 . S
H271 C267 0.950 . S
H272 C269 0.950 . S
C273 C264 1.390 . S
C273 H266 0.950 . S
C273 C270 1.387 . S
C274 C275 1.387 . S
C274 H278 0.950 . S
C274 C283 1.390 . S
C275 C274 1.387 . S
C275 C277 1.387 . S
H276 C283 0.950 . S
C277 C275 1.387 . S
C277 C279 1.390 . S
C277 H281 0.950 . S
H278 C274 0.950 . S
C279 C277 1.390 . S
C279 C280 1.387 . S
C279 H282 0.950 . S
C280 C279 1.387 . S
C280 C283 1.387 . S
H281 C277 0.950 . S
H282 C279 0.950 . S
C283 C274 1.390 . S
C283 H276 0.950 . S
C283 C280 1.387 . S
C284 C285 1.387 . S
C284 H288 0.950 . S
C284 C293 1.390 . S
C285 C284 1.387 . S
C285 C287 1.387 . S
H286 C293 0.950 . S
C287 C285 1.387 . S
C287 C289 1.390 . S
C287 H291 0.950 . S
H288 C284 0.950 . S
C289 C287 1.390 . S
C289 C290 1.387 . S
C289 H292 0.950 . S
C290 C289 1.387 . S
C290 C293 1.387 . S
H291 C287 0.950 . S
H292 C289 0.950 . S
C293 C284 1.390 . S
C293 H286 0.950 . S
C293 C290 1.387 . S
C294 C295 1.387 . S
C294 H298 0.950 . S
C294 C303 1.390 . S
C295 C294 1.387 . S
C295 C297 1.387 . S
H296 C303 0.950 . S
C297 C295 1.387 . S
C297 C299 1.390 . S
C297 H301 0.950 . S
H298 C294 0.950 . S
C299 C297 1.390 . S
C299 C300 1.387 . S
C299 H302 0.950 . S
C300 C299 1.387 . S
C300 C303 1.387 . S
H301 C297 0.950 . S
H302 C299 0.950 . S
C303 C294 1.390 . S
C303 H296 0.950 . S
C303 C300 1.387 . S
C304 C305 1.387 . S
C304 H308 0.950 . S
C304 C313 1.390 . S
C305 C304 1.387 . S
C305 C307 1.387 . S
H306 C313 0.950 . S
C307 C305 1.387 . S
C307 C309 1.390 . S
C307 H311 0.950 . S
H308 C304 0.950 . S
C309 C307 1.390 . S
C309 C310 1.387 . S
C309 H312 0.950 . S
C310 C309 1.387 . S
C310 C313 1.387 . S
H311 C307 0.950 . S
H312 C309 0.950 . S
C313 C304 1.390 . S
C313 H306 0.950 . S
C313 C310 1.387 . S
C314 C315 1.387 . S
C314 H318 0.950 . S
C314 C323 1.390 . S
C315 C314 1.387 . S
C315 C317 1.387 . S
H316 C323 0.950 . S
C317 C315 1.387 . S
C317 C319 1.390 . S
C317 H321 0.950 . S
H318 C314 0.950 . S
C319 C317 1.390 . S
C319 C320 1.387 . S
C319 H322 0.950 . S
C320 C319 1.387 . S
C320 C323 1.387 . S
H321 C317 0.950 . S
H322 C319 0.950 . S
C323 C314 1.390 . S
C323 H316 0.950 . S
C323 C320 1.387 . S
C324 C325 1.387 . S
C324 H328 0.950 . S
C324 C333 1.390 . S
C325 C324 1.387 . S
C325 C327 1.387 . S
H326 C333 0.950 . S
C327 C325 1.387 . S
C327 C329 1.390 . S
C327 H331 0.950 . S
H328 C324 0.950 . S
C329 C327 1.390 . S
C329 C330 1.387 . S
C329 H332 0.950 . S
C330 C329 1.387 . S
C330 C333 1.387 . S
H331 C327 0.950 . S
H332 C329 0.950 . S
C333 C324 1.390 . S
C333 H326 0.950 . S
C333 C330 1.387 . S
C334 C335 1.387 . S
C334 H338 0.950 . S
C334 C343 1.390 1_554 S
C335 C334 1.387 . S
C335 C337 1.387 . S
H336 C343 0.950 . S
C337 C335 1.387 . S
C337 C339 1.390 1_554 S
C337 H341 0.950 . S
H338 C334 0.950 . S
C339 C337 1.390 1_556 S
C339 C340 1.387 . S
C339 H342 0.950 . S
C340 C339 1.387 . S
C340 C343 1.387 . S
H341 C337 0.950 . S
H342 C339 0.950 . S
C343 C334 1.390 1_556 S
C343 H336 0.950 . S
C343 C340 1.387 . S
C344 C345 1.387 . S
C344 H348 0.950 . S
C344 C353 1.390 1_554 S
C345 C344 1.387 . S
C345 C347 1.387 . S
H346 C353 0.950 . S
C347 C345 1.387 . S
C347 C349 1.390 1_554 S
C347 H351 0.950 . S
H348 C344 0.950 . S
C349 C347 1.390 1_556 S
C349 C350 1.387 . S
C349 H352 0.950 . S
C350 C349 1.387 . S
C350 C353 1.387 . S
H351 C347 0.950 . S
H352 C349 0.950 . S
C353 C344 1.390 1_556 S
C353 H346 0.950 . S
C353 C350 1.387 . S
C354 C355 1.387 . S
C354 H358 0.950 . S
C354 C363 1.390 . S
C355 C354 1.387 . S
C355 C357 1.387 . S
H356 C363 0.950 . S
C357 C355 1.387 . S
C357 C359 1.390 . S
C357 H361 0.950 . S
H358 C354 0.950 . S
C359 C357 1.390 . S
C359 C360 1.387 . S
C359 H362 0.950 . S
C360 C359 1.387 . S
C360 C363 1.387 . S
H361 C357 0.950 . S
H362 C359 0.950 . S
C363 C354 1.390 . S
C363 H356 0.950 . S
C363 C360 1.387 . S
C364 C365 1.387 . S
C364 H368 0.950 . S
C364 C373 1.390 . S
C365 C364 1.387 . S
C365 C367 1.387 . S
H366 C373 0.950 . S
C367 C365 1.387 . S
C367 C369 1.390 . S
C367 H371 0.950 . S
H368 C364 0.950 . S
C369 C367 1.390 . S
C369 C370 1.387 . S
C369 H372 0.950 . S
C370 C369 1.387 . S
C370 C373 1.387 . S
H371 C367 0.950 . S
H372 C369 0.950 . S
C373 C364 1.390 . S
C373 H366 0.950 . S
C373 C370 1.387 . S
C374 C375 1.387 . S
C374 H378 0.950 . S
C374 C383 1.390 . S
C375 C374 1.387 . S
C375 C377 1.387 . S
H376 C383 0.950 . S
C377 C375 1.387 . S
C377 C379 1.390 . S
C377 H381 0.950 . S
H378 C374 0.950 . S
C379 C377 1.390 . S
C379 C380 1.387 . S
C379 H382 0.950 . S
C380 C379 1.387 . S
C380 C383 1.387 . S
H381 C377 0.950 . S
H382 C379 0.950 . S
C383 C374 1.390 . S
C383 H376 0.950 . S
C383 C380 1.387 . S
C384 C385 1.387 . S
C384 H388 0.950 . S
C384 C393 1.390 1_445 S
C385 C384 1.387 . S
C385 C387 1.387 . S
H386 C393 0.950 . S
C387 C385 1.387 . S
C387 C389 1.390 1_445 S
C387 H391 0.950 . S
H388 C384 0.950 . S
C389 C387 1.390 1_665 S
C389 C390 1.387 . S
C389 H392 0.950 . S
C390 C389 1.387 . S
C390 C393 1.387 . S
H391 C387 0.950 . S
H392 C389 0.950 . S
C393 C384 1.390 1_665 S
C393 H386 0.950 . S
C393 C390 1.387 . S
C394 C395 1.387 . S
C394 H398 0.950 . S
C394 C403 1.390 1_455 S
C395 C394 1.387 . S
C395 C397 1.387 . S
H396 C403 0.950 . S
C397 C395 1.387 . S
C397 C399 1.390 1_455 S
C397 H401 0.950 . S
H398 C394 0.950 . S
C399 C397 1.390 1_655 S
C399 C400 1.387 . S
C399 H402 0.950 . S
C400 C399 1.387 . S
C400 C403 1.387 . S
H401 C397 0.950 . S
H402 C399 0.950 . S
C403 C394 1.390 1_655 S
C403 H396 0.950 . S
C403 C400 1.387 . S
C404 C405 1.387 . S
C404 H408 0.950 . S
C404 C413 1.390 . S
C405 C404 1.387 . S
C405 C407 1.387 . S
H406 C413 0.950 . S
C407 C405 1.387 . S
C407 C409 1.390 . S
C407 H411 0.950 . S
H408 C404 0.950 . S
C409 C407 1.390 . S
C409 C410 1.387 . S
C409 H412 0.950 . S
C410 C409 1.387 . S
C410 C413 1.387 . S
H411 C407 0.950 . S
H412 C409 0.950 . S
C413 C404 1.390 . S
C413 H406 0.950 . S
C413 C410 1.387 . S
C414 C415 1.387 . S
C414 H418 0.950 . S
C414 C423 1.390 1_545 S
C415 C414 1.387 . S
C415 C417 1.387 . S
H416 C423 0.950 . S
C417 C415 1.387 . S
C417 C419 1.390 1_545 S
C417 H421 0.950 . S
H418 C414 0.950 . S
C419 C417 1.390 1_565 S
C419 C420 1.387 . S
C419 H422 0.950 . S
C420 C419 1.387 . S
C420 C423 1.387 . S
H421 C417 0.950 . S
H422 C419 0.950 . S
C423 C414 1.390 1_565 S
C423 H416 0.950 . S
C423 C420 1.387 . S
C424 C425 1.387 . S
C424 H428 0.950 . S
C424 C433 1.390 1_455 S
C425 C424 1.387 . S
C425 C427 1.387 . S
H426 C433 0.950 . S
C427 C425 1.387 . S
C427 C429 1.390 1_455 S
C427 H431 0.950 . S
H428 C424 0.950 . S
C429 C427 1.390 1_655 S
C429 C430 1.387 . S
C429 H432 0.950 . S
C430 C429 1.387 . S
C430 C433 1.387 . S
H431 C427 0.950 . S
H432 C429 0.950 . S
C433 C424 1.390 1_655 S
C433 H426 0.950 . S
C433 C430 1.387 . S
C434 C435 1.387 . S
C434 H438 0.950 . S
C434 C443 1.390 . S
C435 C434 1.387 . S
C435 C437 1.387 . S
H436 C443 0.950 . S
C437 C435 1.387 . S
C437 C439 1.390 . S
C437 H441 0.950 . S
H438 C434 0.950 . S
C439 C437 1.390 . S
C439 C440 1.387 . S
C439 H442 0.950 . S
C440 C439 1.387 . S
C440 C443 1.387 . S
H441 C437 0.950 . S
H442 C439 0.950 . S
C443 C434 1.390 . S
C443 H436 0.950 . S
C443 C440 1.387 . S
C444 C445 1.387 . S
C444 H448 0.950 . S
C444 C453 1.390 1_565 S
C445 C444 1.387 . S
C445 C447 1.387 . S
H446 C453 0.950 . S
C447 C445 1.387 . S
C447 C449 1.390 1_565 S
C447 H451 0.950 . S
H448 C444 0.950 . S
C449 C447 1.390 1_545 S
C449 C450 1.387 . S
C449 H452 0.950 . S
C450 C449 1.387 . S
C450 C453 1.387 . S
H451 C447 0.950 . S
H452 C449 0.950 . S
C453 C444 1.390 1_545 S
C453 H446 0.950 . S
C453 C450 1.387 . S
C454 C455 1.387 . S
C454 H458 0.950 . S
C454 C463 1.390 1_445 S
C455 C454 1.387 . S
C455 C457 1.387 . S
H456 C463 0.950 . S
C457 C455 1.387 . S
C457 C459 1.390 1_445 S
C457 H461 0.950 . S
H458 C454 0.950 . S
C459 C457 1.390 1_665 S
C459 C460 1.387 . S
C459 H462 0.950 . S
C460 C459 1.387 . S
C460 C463 1.387 . S
H461 C457 0.950 . S
H462 C459 0.950 . S
C463 C454 1.390 1_665 S
C463 H456 0.950 . S
C463 C460 1.387 . S
C464 C465 1.387 . S
C464 H468 0.950 . S
C464 C473 1.390 1_565 S
C465 C464 1.387 . S
C465 C467 1.387 . S
H466 C473 0.950 . S
C467 C465 1.387 . S
C467 C469 1.390 1_565 S
C467 H471 0.950 . S
H468 C464 0.950 . S
C469 C467 1.390 1_545 S
C469 C470 1.387 . S
C469 H472 0.950 . S
C470 C469 1.387 . S
C470 C473 1.387 . S
H471 C467 0.950 . S
H472 C469 0.950 . S
C473 C464 1.390 1_545 S
C473 H466 0.950 . S
C473 C470 1.387 . S
C474 C475 1.387 . S
C474 H478 0.950 . S
C474 C483 1.390 1_665 S
C475 C474 1.387 . S
C475 C477 1.387 . S
H476 C483 0.950 . S
C477 C475 1.387 . S
C477 C479 1.390 1_665 S
C477 H481 0.950 . S
H478 C474 0.950 . S
C479 C477 1.390 1_445 S
C479 C480 1.387 . S
C479 H482 0.950 . S
C480 C479 1.387 . S
C480 C483 1.387 . S
H481 C477 0.950 . S
H482 C479 0.950 . S
C483 C474 1.390 1_445 S
C483 H476 0.950 . S
C483 C480 1.387 . S
C484 C485 1.387 . S
C484 H488 0.950 . S
C484 C493 1.390 1_455 S
C485 C484 1.387 . S
C485 C487 1.387 . S
H486 C493 0.950 . S
C487 C485 1.387 . S
C487 C489 1.390 1_455 S
C487 H491 0.950 . S
H488 C484 0.950 . S
C489 C487 1.390 1_655 S
C489 C490 1.387 . S
C489 H492 0.950 . S
C490 C489 1.387 . S
C490 C493 1.387 . S
H491 C487 0.950 . S
H492 C489 0.950 . S
C493 C484 1.390 1_655 S
C493 H486 0.950 . S
C493 C490 1.387 . S
C494 C495 1.387 . S
C494 H498 0.950 . S
C494 C503 1.390 . S
C495 C494 1.387 . S
C495 C497 1.387 . S
H496 C503 0.950 . S
C497 C495 1.387 . S
C497 C499 1.390 . S
C497 H501 0.950 . S
H498 C494 0.950 . S
C499 C497 1.390 . S
C499 C500 1.387 . S
C499 H502 0.950 . S
C500 C499 1.387 . S
C500 C503 1.387 . S
H501 C497 0.950 . S
H502 C499 0.950 . S
C503 C494 1.390 . S
C503 H496 0.950 . S
C503 C500 1.387 . S
C504 C505 1.387 . S
C504 H508 0.950 . S
C504 C513 1.390 . S
C505 C504 1.387 . S
C505 C507 1.387 . S
H506 C513 0.950 . S
C507 C505 1.387 . S
C507 C509 1.390 . S
C507 H511 0.950 . S
H508 C504 0.950 . S
C509 C507 1.390 . S
C509 C510 1.387 . S
C509 H512 0.950 . S
C510 C509 1.387 . S
C510 C513 1.387 . S
H511 C507 0.950 . S
H512 C509 0.950 . S
C513 C504 1.390 . S
C513 H506 0.950 . S
C513 C510 1.387 . S
C514 C515 1.387 . S
C514 H518 0.950 . S
C514 C523 1.390 1_545 S
C515 C514 1.387 . S
C515 C517 1.387 . S
H516 C523 0.950 . S
C517 C515 1.387 . S
C517 C519 1.390 1_545 S
C517 H521 0.950 . S
H518 C514 0.950 . S
C519 C517 1.390 1_565 S
C519 C520 1.387 . S
C519 H522 0.950 . S
C520 C519 1.387 . S
C520 C523 1.387 . S
H521 C517 0.950 . S
H522 C519 0.950 . S
C523 C514 1.390 1_565 S
C523 H516 0.950 . S
C523 C520 1.387 . S
C524 C525 1.387 . S
C524 H528 0.950 . S
C524 C533 1.390 1_665 S
C525 C524 1.387 . S
C525 C527 1.387 . S
H526 C533 0.950 . S
C527 C525 1.387 . S
C527 C529 1.390 1_665 S
C527 H531 0.950 . S
H528 C524 0.950 . S
C529 C527 1.390 1_445 S
C529 C530 1.387 . S
C529 H532 0.950 . S
C530 C529 1.387 . S
C530 C533 1.387 . S
H531 C527 0.950 . S
H532 C529 0.950 . S
C533 C524 1.390 1_445 S
C533 H526 0.950 . S
C533 C530 1.387 . S
C534 C535 1.387 . S
C534 H538 0.950 . S
C534 C543 1.390 1_655 S
C535 C534 1.387 . S
C535 C537 1.387 . S
H536 C543 0.950 . S
C537 C535 1.387 . S
C537 C539 1.390 1_655 S
C537 H541 0.950 . S
H538 C534 0.950 . S
C539 C537 1.390 1_455 S
C539 C540 1.387 . S
C539 H542 0.950 . S
C540 C539 1.387 . S
C540 C543 1.387 . S
H541 C537 0.950 . S
H542 C539 0.950 . S
C543 C534 1.390 1_455 S
C543 H536 0.950 . S
C543 C540 1.387 . S
C225 C63 1.393 . S
C230 C7 1.393 . S
C235 C21 1.393 . S
C240 C77 1.393 . S
C245 C91 1.393 . S
C250 C35 1.393 . S
C255 C105 1.393 . S
C260 C49 1.393 . S
C265 C175 1.392 . S
C270 C119 1.392 . S
C275 C133 1.393 . S
C280 C189 1.393 . S
C285 C203 1.392 . S
C290 C147 1.392 . S
C295 C161 1.393 . S
C300 C217 1.393 . S
C305 C3 1.451 . S
C310 C213 1.453 . S
C315 C17 1.453 . S
C320 C171 1.452 . S
C325 C31 1.452 . S
C330 C185 1.452 . S
C335 C199 1.452 . S
C340 C45 1.453 . S
C345 C59 1.452 . S
C350 C129 1.453 . S
C355 C73 1.452 . S
C360 C143 1.453 . S
C365 C157 1.452 . S
C370 C87 1.452 . S
C375 C115 1.453 . S
C380 C101 1.451 . S
C385 C8 1.595 . S
C390 C148 1.595 . S
C395 C162 1.595 . S
C400 C22 1.595 . S
C405 C36 1.594 . S
C410 C120 1.594 . S
C415 C134 1.594 . S
C420 C50 1.594 . S
C425 C64 1.595 . S
C430 C204 1.595 . S
C435 C78 1.595 . S
C440 C218 1.595 . S
C445 C176 1.594 . S
C450 C92 1.594 . S
C455 C190 1.594 . S
C460 C106 1.594 . S
C465 C149 1.417 . S
C470 C9 1.417 . S
C475 C23 1.416 . S
C480 C163 1.416 . S
C485 C37 1.417 . S
C490 C121 1.417 . S
C495 C135 1.416 . S
C500 C51 1.416 . S
C505 C205 1.416 . S
C510 C65 1.416 . S
C515 C219 1.416 . S
C520 C79 1.416 . S
C525 C177 1.416 . S
C530 C93 1.416 . S
C535 C107 1.416 . S
C540 C191 1.416 . S
